# Generated by pormake.
# Topology crs, (6)-cn, num edge types: 1
# Building blocks:
#     Node 0, Type 0, BuildingBlock: BETDEL_clean_sbu_0, # of connection points: 6
#     Node 1, Type 0, BuildingBlock: BETDEL_clean_sbu_0, # of connection points: 6
#     Node 2, Type 0, BuildingBlock: BETDEL_clean_sbu_0, # of connection points: 6
#     Node 3, Type 0, BuildingBlock: BETDEL_clean_sbu_0, # of connection points: 6
#     Node 4, Type 0, BuildingBlock: BETDEL_clean_sbu_0, # of connection points: 6
#     Node 5, Type 0, BuildingBlock: BETDEL_clean_sbu_0, # of connection points: 6
#     Node 6, Type 0, BuildingBlock: BETDEL_clean_sbu_0, # of connection points: 6
#     Node 7, Type 0, BuildingBlock: BETDEL_clean_sbu_0, # of connection points: 6
#     Node 8, Type 0, BuildingBlock: BETDEL_clean_sbu_0, # of connection points: 6
#     Node 9, Type 0, BuildingBlock: BETDEL_clean_sbu_0, # of connection points: 6
#     Node 10, Type 0, BuildingBlock: BETDEL_clean_sbu_0, # of connection points: 6
#     Node 11, Type 0, BuildingBlock: BETDEL_clean_sbu_0, # of connection points: 6
#     Node 12, Type 0, BuildingBlock: BETDEL_clean_sbu_0, # of connection points: 6
#     Node 13, Type 0, BuildingBlock: BETDEL_clean_sbu_0, # of connection points: 6
#     Node 14, Type 0, BuildingBlock: BETDEL_clean_sbu_0, # of connection points: 6
#     Node 15, Type 0, BuildingBlock: BETDEL_clean_sbu_0, # of connection points: 6
#     Edge 16, Type (0, 0), BuildingBlock: XUDNAN_clean_linker_2, # of connection points: 2
#     Edge 17, Type (0, 0), BuildingBlock: XUDNAN_clean_linker_2, # of connection points: 2
#     Edge 18, Type (0, 0), BuildingBlock: XUDNAN_clean_linker_2, # of connection points: 2
#     Edge 19, Type (0, 0), BuildingBlock: XUDNAN_clean_linker_2, # of connection points: 2
#     Edge 20, Type (0, 0), BuildingBlock: XUDNAN_clean_linker_2, # of connection points: 2
#     Edge 21, Type (0, 0), BuildingBlock: XUDNAN_clean_linker_2, # of connection points: 2
#     Edge 22, Type (0, 0), BuildingBlock: XUDNAN_clean_linker_2, # of connection points: 2
#     Edge 23, Type (0, 0), BuildingBlock: XUDNAN_clean_linker_2, # of connection points: 2
#     Edge 24, Type (0, 0), BuildingBlock: XUDNAN_clean_linker_2, # of connection points: 2
#     Edge 25, Type (0, 0), BuildingBlock: XUDNAN_clean_linker_2, # of connection points: 2
#     Edge 26, Type (0, 0), BuildingBlock: XUDNAN_clean_linker_2, # of connection points: 2
#     Edge 27, Type (0, 0), BuildingBlock: XUDNAN_clean_linker_2, # of connection points: 2
#     Edge 28, Type (0, 0), BuildingBlock: XUDNAN_clean_linker_2, # of connection points: 2
#     Edge 29, Type (0, 0), BuildingBlock: XUDNAN_clean_linker_2, # of connection points: 2
#     Edge 30, Type (0, 0), BuildingBlock: XUDNAN_clean_linker_2, # of connection points: 2
#     Edge 31, Type (0, 0), BuildingBlock: XUDNAN_clean_linker_2, # of connection points: 2
#     Edge 32, Type (0, 0), BuildingBlock: XUDNAN_clean_linker_2, # of connection points: 2
#     Edge 33, Type (0, 0), BuildingBlock: XUDNAN_clean_linker_2, # of connection points: 2
#     Edge 34, Type (0, 0), BuildingBlock: XUDNAN_clean_linker_2, # of connection points: 2
#     Edge 35, Type (0, 0), BuildingBlock: XUDNAN_clean_linker_2, # of connection points: 2
#     Edge 36, Type (0, 0), BuildingBlock: XUDNAN_clean_linker_2, # of connection points: 2
#     Edge 37, Type (0, 0), BuildingBlock: XUDNAN_clean_linker_2, # of connection points: 2
#     Edge 38, Type (0, 0), BuildingBlock: XUDNAN_clean_linker_2, # of connection points: 2
#     Edge 39, Type (0, 0), BuildingBlock: XUDNAN_clean_linker_2, # of connection points: 2
#     Edge 40, Type (0, 0), BuildingBlock: XUDNAN_clean_linker_2, # of connection points: 2
#     Edge 41, Type (0, 0), BuildingBlock: XUDNAN_clean_linker_2, # of connection points: 2
#     Edge 42, Type (0, 0), BuildingBlock: XUDNAN_clean_linker_2, # of connection points: 2
#     Edge 43, Type (0, 0), BuildingBlock: XUDNAN_clean_linker_2, # of connection points: 2
#     Edge 44, Type (0, 0), BuildingBlock: XUDNAN_clean_linker_2, # of connection points: 2
#     Edge 45, Type (0, 0), BuildingBlock: XUDNAN_clean_linker_2, # of connection points: 2
#     Edge 46, Type (0, 0), BuildingBlock: XUDNAN_clean_linker_2, # of connection points: 2
#     Edge 47, Type (0, 0), BuildingBlock: XUDNAN_clean_linker_2, # of connection points: 2
#     Edge 48, Type (0, 0), BuildingBlock: XUDNAN_clean_linker_2, # of connection points: 2
#     Edge 49, Type (0, 0), BuildingBlock: XUDNAN_clean_linker_2, # of connection points: 2
#     Edge 50, Type (0, 0), BuildingBlock: XUDNAN_clean_linker_2, # of connection points: 2
#     Edge 51, Type (0, 0), BuildingBlock: XUDNAN_clean_linker_2, # of connection points: 2
#     Edge 52, Type (0, 0), BuildingBlock: XUDNAN_clean_linker_2, # of connection points: 2
#     Edge 53, Type (0, 0), BuildingBlock: XUDNAN_clean_linker_2, # of connection points: 2
#     Edge 54, Type (0, 0), BuildingBlock: XUDNAN_clean_linker_2, # of connection points: 2
#     Edge 55, Type (0, 0), BuildingBlock: XUDNAN_clean_linker_2, # of connection points: 2
#     Edge 56, Type (0, 0), BuildingBlock: XUDNAN_clean_linker_2, # of connection points: 2
#     Edge 57, Type (0, 0), BuildingBlock: XUDNAN_clean_linker_2, # of connection points: 2
#     Edge 58, Type (0, 0), BuildingBlock: XUDNAN_clean_linker_2, # of connection points: 2
#     Edge 59, Type (0, 0), BuildingBlock: XUDNAN_clean_linker_2, # of connection points: 2
#     Edge 60, Type (0, 0), BuildingBlock: XUDNAN_clean_linker_2, # of connection points: 2
#     Edge 61, Type (0, 0), BuildingBlock: XUDNAN_clean_linker_2, # of connection points: 2
#     Edge 62, Type (0, 0), BuildingBlock: XUDNAN_clean_linker_2, # of connection points: 2
#     Edge 63, Type (0, 0), BuildingBlock: XUDNAN_clean_linker_2, # of connection points: 2
# Relax obj value: 0.346
# Max RMSD: 0.299
# Mean RMSD: 0.253
data_MOF--net-crs--node1-BETDEL_clean_sbu_0--edge1-XUDNAN_clean_linker_2
_symmetry_space_group_name_H-M    P1
_symmetry_Int_Tables_number       1
_symmetry_cell_setting            triclinic
loop_
_symmetry_equiv_pos_as_xyz
'x, y, z'
_cell_length_a     43.697003
_cell_length_b     43.643451
_cell_length_c     42.774875
_cell_angle_alpha  84.56039
_cell_angle_beta   86.137158
_cell_angle_gamma 79.624112
loop_
_atom_site_label
_atom_site_type_symbol
_atom_site_fract_x
_atom_site_fract_y
_atom_site_fract_z
_atom_type_partial_charge
Dy0 Dy 0.95903 0.98633 0.0065 0.0
C1 C 0.07258 0.0292 0.96673 0.0
C2 C 0.90335 0.9692 0.02444 0.0
Dy3 Dy 0.01387 0.01763 0.97966 0.0
O4 O 0.92976 0.95682 0.03628 0.0
O5 O 0.90729 0.99102 0.00246 0.0
O6 O -0.00726 0.95042 0.03386 0.0
O7 O 0.00062 -0.00339 0.02526 0.0
C8 C 0.01174 0.96959 0.0366 0.0
C9 C 0.96181 0.03338 0.94753 0.0
O10 O 0.02526 0.97074 0.95943 0.0
O11 O 0.97662 0.95606 0.96773 0.0
O12 O 0.04775 0.04553 0.95444 0.0
O13 O 0.06531 0.00673 0.98627 0.0
O14 O 0.98242 0.05149 0.94763 0.0
O15 O 0.97246 0.00728 0.96109 0.0
O16 O 0.94622 0.0336 0.02499 0.0
O17 O -0.00596 0.05 0.01617 0.0
C18 C 0.00543 0.95202 0.95494 0.0
C19 C 0.96512 0.05344 0.02868 0.0
Dy20 Dy 0.01242 0.26196 0.26935 0.0
C21 C 0.96077 0.17564 0.20746 0.0
C22 C 0.03356 0.3028 0.30293 0.0
Dy23 Dy 0.97517 0.21926 0.24243 0.0
O24 O 0.0327 0.27386 0.31231 0.0
O25 O 0.02266 0.30976 0.27516 0.0
O26 O 0.05704 0.23179 0.25566 0.0
O27 O 0.01733 0.21141 0.26824 0.0
C28 C 0.04497 0.20662 0.25695 0.0
C29 C 0.94368 0.27626 0.25219 0.0
O30 O 0.97114 0.20272 0.29279 0.0
O31 O 0.97778 0.25031 0.30829 0.0
O32 O 0.94035 0.19457 0.22318 0.0
O33 O -0.01131 0.17985 0.21198 0.0
O34 O 0.93062 0.25157 0.25462 0.0
O35 O 0.97144 0.26959 0.24205 0.0
O36 O 0.02232 0.27627 0.21869 0.0
O37 O 0.0006 0.23746 0.19948 0.0
C38 C 0.96861 0.22288 0.31439 0.0
C39 C 0.01668 0.26061 0.19526 0.0
Dy40 Dy 0.73964 0.201 0.49522 0.0
C41 C 0.76905 0.31528 0.53041 0.0
C42 C 0.73608 0.14312 0.4795 0.0
Dy43 Dy 0.75494 0.259 0.52123 0.0
O44 O 0.73858 0.16691 0.45946 0.0
O45 O 0.7349 0.15111 0.50808 0.0
O46 O 0.70426 0.23147 0.46495 0.0
O47 O 0.74441 0.2479 0.47499 0.0
C48 C 0.71885 0.25507 0.46183 0.0
C49 C 0.75713 0.20839 0.56262 0.0
O50 O 0.70321 0.26601 0.52792 0.0
O51 O 0.69902 0.21378 0.52916 0.0
O52 O 0.78384 0.28849 0.54197 0.0
O53 O 0.74642 0.31135 0.51385 0.0
O54 O 0.74865 0.23673 0.57074 0.0
O55 O 0.76574 0.20904 0.53398 0.0
O56 O 0.78994 0.19642 0.47963 0.0
O57 O 0.79901 0.24464 0.4924 0.0
C58 C 0.68717 0.24304 0.53461 0.0
C59 C 0.80802 0.21778 0.47954 0.0
Dy60 Dy 0.68943 0.98406 0.75403 0.0
C61 C 0.79536 0.00429 0.81971 0.0
C62 C 0.63774 0.98798 0.72057 0.0
Dy63 Dy 0.74205 0.00187 0.79146 0.0
O64 O 0.65762 0.96247 0.72674 0.0
O65 O 0.6457 0.01092 0.73352 0.0
O66 O 0.72061 0.93918 0.74318 0.0
O67 O 0.73954 0.97913 0.74915 0.0
C68 C 0.74585 0.95046 0.7456 0.0
C69 C 0.68549 0.03638 0.7982 0.0
O70 O 0.74701 0.03351 0.74771 0.0
O71 O 0.70404 0.02419 0.72273 0.0
O72 O 0.76739 0.01389 0.83138 0.0
O73 O 0.79413 0.993 0.79291 0.0
O74 O 0.71105 0.04737 0.79981 0.0
O75 O 0.69167 0.00744 0.7959 0.0
O76 O 0.6827 0.95698 0.80025 0.0
O77 O 0.73216 0.9569 0.81761 0.0
C78 C 0.72747 0.03948 0.72459 0.0
C79 C 0.70565 0.94566 0.81931 0.0
Dy80 Dy 0.51477 0.75249 0.27547 0.0
C81 C 0.45375 0.67665 0.20708 0.0
C82 C 0.54037 0.7915 0.30761 0.0
Dy83 Dy 0.47841 0.71814 0.2367 0.0
O84 O 0.53252 0.79755 0.27859 0.0
O85 O 0.53465 0.76433 0.31852 0.0
O86 O 0.53544 0.70677 0.30133 0.0
O87 O 0.52423 0.70802 0.25463 0.0
C88 C 0.53252 0.69034 0.27841 0.0
C89 C 0.46022 0.78032 0.23236 0.0
O90 O 0.45739 0.7085 0.28502 0.0
O91 O 0.47171 0.7503 0.30629 0.0
O92 O 0.4649 0.67097 0.23483 0.0
O93 O 0.45546 0.705 0.19612 0.0
O94 O 0.45832 0.76276 0.21004 0.0
O95 O 0.46847 0.76346 0.25691 0.0
O96 O 0.53699 0.76155 0.22695 0.0
O97 O 0.52034 0.72113 0.20519 0.0
C98 C 0.45615 0.72676 0.30822 0.0
C99 C 0.53667 0.74403 0.20326 0.0
Dy100 Dy 0.2267 0.72658 0.48821 0.0
C101 C 0.25435 0.83992 0.52514 0.0
C102 C 0.21968 0.6696 0.472 0.0
Dy103 Dy 0.24497 0.78217 0.51353 0.0
O104 O 0.22489 0.69277 0.4523 0.0
O105 O 0.21829 0.67759 0.50061 0.0
O106 O 0.19657 0.7585 0.45419 0.0
O107 O 0.23823 0.77081 0.46643 0.0
C108 C 0.21404 0.77981 0.45123 0.0
C109 C 0.25832 0.72893 0.55036 0.0
O110 O 0.19341 0.79042 0.52616 0.0
O111 O 0.18187 0.74312 0.51378 0.0
O112 O 0.26431 0.81412 0.54186 0.0
O113 O 0.23876 0.83425 0.50221 0.0
O114 O 0.27531 0.75066 0.5477 0.0
O115 O 0.23398 0.73774 0.53531 0.0
O116 O 0.27861 0.71608 0.48253 0.0
O117 O 0.28693 0.7668 0.48232 0.0
C118 C 0.17365 0.77081 0.52495 0.0
C119 C 0.29683 0.73725 0.4767 0.0
Dy120 Dy 0.21048 0.49535 0.72905 0.0
C121 C 0.2933 0.52143 0.81979 0.0
C122 C 0.16936 0.48492 0.68748 0.0
Dy123 Dy 0.25264 0.51594 0.77574 0.0
O124 O 0.19118 0.46417 0.69985 0.0
O125 O 0.16965 0.51194 0.69789 0.0
O126 O 0.24205 0.44908 0.72889 0.0
O127 O 0.26064 0.48904 0.73503 0.0
C128 C 0.26646 0.45981 0.73521 0.0
C129 C 0.19724 0.5521 0.76834 0.0
O130 O 0.26708 0.54312 0.73192 0.0
O131 O 0.22754 0.53577 0.70074 0.0
O132 O 0.30142 0.51069 0.79252 0.0
O133 O 0.26322 0.52911 0.82275 0.0
O134 O 0.22191 0.56278 0.77439 0.0
O135 O 0.2027 0.52273 0.76932 0.0
O136 O 0.19308 0.47377 0.77477 0.0
O137 O 0.23854 0.47221 0.80024 0.0
C138 C 0.25114 0.54975 0.70598 0.0
C139 C 0.21179 0.46245 0.7979 0.0
Dy140 Dy 0.96428 0.48213 0.50127 0.0
C141 C 0.06695 0.54403 0.46441 0.0
C142 C 0.9098 0.46071 0.51309 0.0
Dy143 Dy 0.01239 0.52288 0.47717 0.0
O144 O 0.93569 0.44867 0.52622 0.0
O145 O 0.91372 0.48423 0.49326 0.0
O146 O -0.00044 0.45076 0.53074 0.0
O147 O 0.00173 0.49858 0.52224 0.0
C148 C 0.01548 0.47261 0.53406 0.0
C149 C 0.96067 0.532 0.44525 0.0
O150 O 0.03314 0.47651 0.45928 0.0
O151 O -0.01048 0.45251 0.46499 0.0
O152 O 0.04549 0.54587 0.4444 0.0
O153 O 0.05824 0.53148 0.49149 0.0
O154 O 0.97579 0.55446 0.44886 0.0
O155 O 0.9752 0.50622 0.45654 0.0
O156 O 0.94477 0.52711 0.52253 0.0
O157 O 0.98587 0.55457 0.51107 0.0
C158 C 0.01849 0.45351 0.45427 0.0
C159 C 0.95815 0.55176 0.52432 0.0
Dy160 Dy 0.22047 0.22312 0.97962 0.0
C161 C 0.24474 0.33561 0.02325 0.0
C162 C 0.21588 0.16503 0.96452 0.0
Dy163 Dy 0.238 0.278 0.00856 0.0
O164 O 0.20464 0.19101 0.94867 0.0
O165 O 0.2297 0.17079 0.98867 0.0
O166 O 0.18837 0.25614 0.94803 0.0
O167 O 0.22941 0.26916 0.96115 0.0
C168 C 0.20462 0.27844 0.94699 0.0
C169 C 0.25477 0.22252 0.04052 0.0
O170 O 0.18733 0.28313 0.0236 0.0
O171 O 0.17809 0.23499 0.01109 0.0
O172 O 0.25414 0.30954 0.03985 0.0
O173 O 0.23115 0.33019 -0.00121 0.0
O174 O 0.2708 0.24499 0.03927 0.0
O175 O 0.22957 0.23171 0.02699 0.0
O176 O 0.27126 0.21815 0.96456 0.0
O177 O 0.28031 0.26626 0.97717 0.0
C178 C 0.16908 0.26194 0.02372 0.0
C179 C 0.28951 0.23932 0.96465 0.0
Dy180 Dy 0.226 0.97738 0.21234 0.0
C181 C 0.31976 0.00563 0.28939 0.0
C182 C 0.18095 0.96755 0.17542 0.0
Dy183 Dy 0.27037 -0.00021 0.25651 0.0
O184 O 0.18504 -0.00508 0.18217 0.0
O185 O 0.20119 0.94585 0.18898 0.0
O186 O 0.26088 0.93326 0.20537 0.0
O187 O 0.27571 0.9738 0.21571 0.0
C188 C 0.28406 0.94515 0.2132 0.0
C189 C 0.21377 0.03381 0.25318 0.0
O190 O 0.27882 0.02907 0.21202 0.0
O191 O 0.23841 0.01962 0.18323 0.0
O192 O 0.32156 -0.00369 0.26133 0.0
O193 O 0.29082 0.01189 0.29973 0.0
O194 O 0.23809 0.04535 0.2589 0.0
O195 O 0.2202 0.00452 0.25302 0.0
O196 O 0.21202 0.95558 0.25936 0.0
O197 O 0.25746 0.9568 0.28408 0.0
C198 C 0.26124 0.03507 0.18725 0.0
C199 C 0.23112 0.94595 0.28257 0.0
Dy200 Dy 0.49503 0.26882 0.75104 0.0
C201 C 0.44029 0.17843 0.69517 0.0
C202 C 0.51337 0.31226 0.78347 0.0
Dy203 Dy 0.45855 0.2239 0.7249 0.0
O204 O 0.51422 0.28316 0.79335 0.0
O205 O 0.50284 0.31785 0.75544 0.0
O206 O 0.53948 0.23541 0.74263 0.0
O207 O 0.49779 0.21842 0.75439 0.0
C208 C 0.526 0.21098 0.74582 0.0
C209 C 0.42688 0.28103 0.7314 0.0
O210 O 0.44737 0.21372 0.77606 0.0
O211 O 0.45925 0.26046 0.78934 0.0
O212 O 0.42485 0.20661 0.69647 0.0
O213 O 0.46548 0.17496 0.71057 0.0
O214 O 0.41391 0.2563 0.73424 0.0
O215 O 0.45511 0.27442 0.72236 0.0
O216 O 0.50724 0.27907 0.70056 0.0
O217 O 0.49209 0.23477 0.6846 0.0
C218 C 0.44702 0.23486 0.79646 0.0
C219 C 0.50662 0.25912 0.67931 0.0
Dy220 Dy -0.00582 0.77876 0.74632 0.0
C221 C 0.93758 0.69639 0.68108 0.0
C222 C 0.00901 0.82272 0.78081 0.0
Dy223 Dy 0.95976 0.73496 0.71671 0.0
O224 O 0.02862 0.79923 0.77092 0.0
O225 O 0.98143 0.82242 0.7715 0.0
O226 O 0.04004 0.75126 0.73112 0.0
O227 O 0.00183 0.72844 0.74244 0.0
C228 C 0.02954 0.7252 0.7314 0.0
C229 C 0.92487 0.78733 0.73428 0.0
O230 O 0.95451 0.71544 0.76635 0.0
O231 O 0.96892 0.75732 0.78807 0.0
O232 O 0.92839 0.72633 0.68055 0.0
O233 O 0.95912 0.68727 0.70117 0.0
O234 O 0.91504 0.76086 0.73598 0.0
O235 O 0.95181 0.7851 0.72123 0.0
O236 O 0.00033 0.7969 0.69638 0.0
O237 O -0.01015 0.75229 0.67674 0.0
C238 C 0.9569 0.73129 0.79074 0.0
C239 C 0.00057 0.77903 0.67301 0.0
Dy240 Dy 0.71303 0.46697 0.23041 0.0
C241 C 0.78841 0.51001 0.31819 0.0
C242 C 0.67469 0.45074 0.18912 0.0
Dy243 Dy 0.74651 0.49241 0.28198 0.0
O244 O 0.70488 0.44515 0.18694 0.0
O245 O 0.6652 0.46442 0.21462 0.0
O246 O 0.75998 0.4513 0.2064 0.0
O247 O 0.75552 0.45195 0.25522 0.0
C248 C 0.77462 0.44787 0.23222 0.0
C249 C 0.68498 0.51085 0.28178 0.0
O250 O 0.76064 0.51954 0.23728 0.0
O251 O 0.72137 0.51226 0.20605 0.0
O252 O 0.7628 0.52768 0.30914 0.0
O253 O 0.79116 0.48274 0.30744 0.0
O254 O 0.70053 0.50764 0.30714 0.0
O255 O 0.70337 0.50725 0.25791 0.0
O256 O 0.70214 0.43568 0.27346 0.0
O257 O 0.7359 0.44859 0.30831 0.0
C258 C 0.74481 0.52615 0.21134 0.0
C259 C 0.71572 0.43137 0.30092 0.0
Dy260 Dy 0.74791 0.69889 0.99221 0.0
C261 C 0.7807 0.81127 0.02929 0.0
C262 C 0.73727 0.64263 0.97776 0.0
Dy263 Dy 0.7682 0.75455 0.01988 0.0
O264 O 0.74355 0.66491 0.95722 0.0
O265 O 0.7373 0.65106 0.00607 0.0
O266 O 0.71047 0.73223 0.96664 0.0
O267 O 0.75202 0.74673 0.97486 0.0
C268 C 0.72532 0.75561 0.96452 0.0
C269 C 0.77259 0.70168 0.05806 0.0
O270 O 0.71763 0.76107 0.03454 0.0
O271 O 0.71113 0.71008 0.02999 0.0
O272 O 0.79755 0.78476 0.039 0.0
O273 O 0.75738 0.80676 0.0141 0.0
O274 O 0.76706 0.72925 0.0685 0.0
O275 O 0.77803 0.70408 0.02879 0.0
O276 O 0.79696 0.69378 0.97255 0.0
O277 O 0.80953 0.74017 0.98705 0.0
C278 C 0.70147 0.73812 0.03993 0.0
C279 C 0.8161 0.71425 0.97205 0.0
Dy280 Dy 0.46872 0.98131 0.50079 0.0
C281 C 0.58086 0.02748 0.46791 0.0
C282 C 0.41111 0.96609 0.51061 0.0
Dy283 Dy 0.52157 0.01719 0.47514 0.0
O284 O 0.43561 0.9518 0.52506 0.0
O285 O 0.41822 0.98828 0.4906 0.0
O286 O 0.49929 0.95589 0.53972 0.0
O287 O 0.50439 0.00022 0.52047 0.0
C288 C 0.51615 0.97777 0.53873 0.0
C289 C 0.47348 0.02412 0.43847 0.0
O290 O 0.53897 0.96935 0.45924 0.0
O291 O 0.49502 0.94609 0.46957 0.0
O292 O 0.55762 0.04455 0.45334 0.0
O293 O 0.57147 0.00561 0.48675 0.0
O294 O 0.49155 0.04489 0.4383 0.0
O295 O 0.48489 -0.0003 0.45479 0.0
O296 O 0.45003 0.03029 0.51441 0.0
O297 O 0.49551 0.0515 0.50707 0.0
C298 C 0.52383 0.9459 0.45745 0.0
C299 C 0.46602 0.0529 0.51757 0.0
Dy300 Dy 0.46095 0.47536 0.00839 0.0
C301 C 0.57158 0.5295 0.97585 0.0
C302 C 0.40426 0.45775 0.013 0.0
Dy303 Dy 0.51652 0.50854 0.98533 0.0
O304 O 0.41147 0.48127 0.99508 0.0
O305 O 0.42825 0.44325 0.02811 0.0
O306 O 0.48505 0.45607 0.05242 0.0
O307 O 0.51149 0.46385 0.0102 0.0
C308 C 0.51279 0.45653 0.03943 0.0
C309 C 0.46363 0.52827 0.95572 0.0
O310 O 0.52687 0.46746 0.95702 0.0
O311 O 0.47826 0.45222 0.96433 0.0
O312 O 0.54983 0.534 0.95589 0.0
O313 O 0.56296 0.51431 0.00158 0.0
O314 O 0.49094 0.52842 0.94187 0.0
O315 O 0.46623 0.52026 0.98456 0.0
O316 O 0.45239 0.5135 0.04022 0.0
O317 O 0.49875 0.53298 0.02878 0.0
C318 C 0.50591 0.45148 0.9493 0.0
C319 C 0.47243 0.5314 0.04592 0.0
H320 H 0.00123 0.09002 0.05184 0.0
H321 H 0.90763 0.06851 0.05889 0.0
H322 H 0.89484 0.10007 0.10446 0.0
H323 H 0.01345 0.08126 0.12956 0.0
H324 H 0.03445 0.11308 0.13068 0.0
H325 H 0.03522 0.09432 0.09497 0.0
H326 H 0.01439 0.14647 0.06385 0.0
H327 H 0.01469 0.16624 0.09892 0.0
H328 H 0.97942 0.17083 0.07811 0.0
H329 H 0.8941 0.12999 0.15266 0.0
H330 H 0.90546 0.15711 0.19797 0.0
H331 H 0.00016 0.15536 0.15972 0.0
C332 C 0.97772 0.09267 0.06227 0.0
C333 C 0.95543 0.07684 0.05176 0.0
C334 C 0.9251 0.08051 0.0665 0.0
C335 C 0.91759 0.09839 0.0924 0.0
C336 C 0.94062 0.11252 0.10305 0.0
C337 C 0.96994 0.11019 0.08814 0.0
C338 C -0.00869 0.12552 0.10544 0.0
C339 C 0.02029 0.10211 0.11579 0.0
C340 C 0.00047 0.15395 0.08539 0.0
C341 C 0.96994 0.13545 0.1332 0.0
C342 C 0.94057 0.12849 0.13119 0.0
C343 C 0.917 0.13567 0.1544 0.0
C344 C 0.92365 0.15079 0.18008 0.0
C345 C 0.95374 0.15773 0.18239 0.0
C346 C 0.97707 0.14979 0.15876 0.0
H347 H 0.84091 0.2614 0.45126 0.0
H348 H 0.84298 0.16142 0.46765 0.0
H349 H 0.89018 0.15189 0.43251 0.0
H350 H 0.85828 0.26176 0.37223 0.0
H351 H 0.88214 0.29167 0.36918 0.0
H352 H 0.85244 0.29088 0.40027 0.0
H353 H 0.89349 0.28882 0.44174 0.0
H354 H 0.92341 0.28987 0.4107 0.0
H355 H 0.92767 0.25872 0.44177 0.0
H356 H 0.93114 0.15318 0.38999 0.0
H357 H 0.96381 0.16528 0.34272 0.0
H358 H 0.9358 0.26441 0.35355 0.0
C359 C 0.85199 0.2375 0.44832 0.0
C360 C 0.83857 0.2121 0.46236 0.0
C361 C 0.85302 0.18117 0.45717 0.0
C362 C 0.87991 0.17553 0.4374 0.0
C363 C 0.89203 0.20108 0.42307 0.0
C364 C 0.87869 0.23149 0.42837 0.0
C365 C 0.89405 0.25479 0.40716 0.0
C366 C 0.87032 0.276 0.38596 0.0
C367 C 0.91065 0.27419 0.42651 0.0
C368 C 0.91725 0.23269 0.38831 0.0
C369 C 0.91598 0.20183 0.3982 0.0
C370 C 0.93291 0.1772 0.38246 0.0
C371 C 0.95126 0.18429 0.35558 0.0
C372 C 0.95252 0.21572 0.3448 0.0
C373 C 0.93585 0.24016 0.36179 0.0
H374 H 0.72277 0.10351 0.72127 0.0
H375 H 0.74751 0.02309 0.6667 0.0
H376 H 0.76012 0.05751 0.62005 0.0
H377 H 0.68487 0.15527 0.65922 0.0
H378 H 0.69836 0.1897 0.66885 0.0
H379 H 0.69305 0.15956 0.69928 0.0
H380 H 0.74973 0.15397 0.71474 0.0
H381 H 0.75554 0.18482 0.68503 0.0
H382 H 0.78098 0.14739 0.68509 0.0
H383 H 0.77201 0.0999 0.58023 0.0
H384 H 0.77651 0.14864 0.54741 0.0
H385 H 0.73871 0.20279 0.62544 0.0
C386 C 0.73096 0.09332 0.69946 0.0
C387 C 0.73454 0.06074 0.69736 0.0
C388 C 0.74483 0.04804 0.66854 0.0
C389 C 0.75209 0.06736 0.64205 0.0
C390 C 0.7484 0.09941 0.6447 0.0
C391 C 0.73761 0.11247 0.67247 0.0
C392 C 0.73455 0.14786 0.66831 0.0
C393 C 0.70066 0.16401 0.67426 0.0
C394 C 0.75652 0.15917 0.68955 0.0
C395 C 0.74494 0.15252 0.6339 0.0
C396 C 0.7534 0.12418 0.62098 0.0
C397 C 0.76485 0.12226 0.58992 0.0
C398 C 0.76702 0.15008 0.57135 0.0
C399 C 0.75686 0.17945 0.58352 0.0
C400 C 0.74614 0.18064 0.61537 0.0
H401 H 0.89871 0.04928 0.94902 0.0
H402 H 0.97977 0.01738 0.88902 0.0
H403 H 0.94565 0.00784 0.84841 0.0
H404 H 0.85546 -0.0052 0.93363 0.0
H405 H 0.81797 0.02008 0.93278 0.0
H406 H 0.84793 0.02901 0.95547 0.0
H407 H 0.84463 0.08373 0.9262 0.0
H408 H 0.81374 0.07594 0.90389 0.0
H409 H 0.84793 0.08765 0.88383 0.0
H410 H 0.90322 -0.00363 0.81735 0.0
H411 H 0.85468 0.98824 0.79532 0.0
H412 H 0.80103 0.02854 0.87516 0.0
C413 C 0.90904 0.04153 0.92674 0.0
C414 C 0.94158 0.0349 0.92143 0.0
C415 C 0.95472 0.02348 0.89278 0.0
C416 C 0.93558 0.01778 0.86979 0.0
C417 C 0.90344 0.02393 0.8759 0.0
C418 C 0.8902 0.0361 0.90339 0.0
C419 C 0.85509 0.03917 0.90472 0.0
C420 C 0.84344 0.01956 0.93333 0.0
C421 C 0.83943 0.07368 0.90464 0.0
C422 C 0.85076 0.02589 0.87423 0.0
C423 C 0.87893 0.01733 0.85791 0.0
C424 C 0.88097 0.00345 0.82964 0.0
C425 C 0.85336 -0.00123 0.81743 0.0
C426 C 0.82426 0.00791 0.83354 0.0
C427 C 0.82301 0.02148 0.86234 0.0
H428 H 0.04403 0.01115 0.05672 0.0
H429 H 0.04118 0.91209 0.05943 0.0
H430 H 0.08594 0.90058 0.09381 0.0
H431 H 0.12872 0.00503 0.05812 0.0
H432 H 0.12505 0.03663 0.08307 0.0
H433 H 0.09512 0.03583 0.05632 0.0
H434 H 0.05368 0.03877 0.10361 0.0
H435 H 0.08417 0.04025 0.12948 0.0
H436 H 0.06 0.01068 0.13717 0.0
H437 H 0.12943 0.90027 0.12931 0.0
H438 H 0.16831 0.91098 0.16426 0.0
H439 H 0.14113 0.01055 0.13991 0.0
C440 C 0.05315 0.987 0.06419 0.0
C441 C 0.03942 0.96242 0.05543 0.0
C442 C 0.05155 0.93117 0.06595 0.0
C443 C 0.07693 0.92445 0.08536 0.0
C444 C 0.08966 0.9493 0.09401 0.0
C445 C 0.0782 0.97994 0.08377 0.0
C446 C 0.09473 0.0025 0.09798 0.0
C447 C 0.11191 0.02109 0.07233 0.0
C448 C 0.07181 0.02435 0.1183 0.0
C449 C 0.11729 0.97978 0.11795 0.0
C450 C 0.11413 0.9492 0.11515 0.0
C451 C 0.13218 0.92409 0.13162 0.0
C452 C 0.15411 0.93041 0.15143 0.0
C453 C 0.15755 0.96156 0.15473 0.0
C454 C 0.13888 0.98652 0.13781 0.0
H455 H 0.01164 0.39278 0.45506 0.0
H456 H 0.05674 0.464 0.40308 0.0
H457 H 0.07209 0.42953 0.36004 0.0
H458 H 0.06962 0.32369 0.42723 0.0
H459 H 0.03907 0.30108 0.42617 0.0
H460 H 0.03652 0.32922 0.45492 0.0
H461 H 0.98249 0.356 0.43546 0.0
H462 H 0.98501 0.32837 0.40644 0.0
H463 H 0.97885 0.36966 0.39453 0.0
H464 H 0.07108 0.39319 0.31849 0.0
H465 H 0.06127 0.35331 0.28454 0.0
H466 H 0.02222 0.30339 0.36548 0.0
C467 C 0.02568 0.40058 0.43506 0.0
C468 C 0.03311 0.43082 0.43221 0.0
C469 C 0.0512 0.44064 0.40573 0.0
C470 C 0.05994 0.42129 0.38117 0.0
C471 C 0.05116 0.39198 0.38407 0.0
C472 C 0.03524 0.38127 0.41077 0.0
C473 C 0.02669 0.34979 0.40718 0.0
C474 C 0.04402 0.32444 0.43024 0.0
C475 C -0.00883 0.35107 0.41112 0.0
C476 C 0.03862 0.34536 0.37366 0.0
C477 C 0.05265 0.36992 0.36065 0.0
C478 C 0.06128 0.3732 0.32866 0.0
C479 C 0.05546 0.3507 0.30956 0.0
C480 C 0.04173 0.32522 0.32279 0.0
C481 C 0.03375 0.32223 0.3552 0.0
H482 H 0.65224 0.20268 0.5668 0.0
H483 H 0.65087 0.30063 0.53604 0.0
H484 H 0.59998 0.31443 0.56423 0.0
H485 H 0.5666 0.20439 0.56489 0.0
H486 H 0.56599 0.17812 0.6 0.0
H487 H 0.60031 0.17514 0.57382 0.0
H488 H 0.63361 0.18106 0.6201 0.0
H489 H 0.59946 0.18405 0.6463 0.0
H490 H 0.62271 0.21449 0.64273 0.0
H491 H 0.55389 0.31877 0.6013 0.0
H492 H 0.51464 0.31295 0.64483 0.0
H493 H 0.54396 0.21236 0.65031 0.0
C494 C 0.64083 0.22692 0.56534 0.0
C495 C 0.65545 0.25057 0.54916 0.0
C496 C 0.64014 0.28211 0.54836 0.0
C497 C 0.61112 0.29019 0.56412 0.0
C498 C 0.59761 0.26645 0.58041 0.0
C499 C 0.61181 0.23541 0.58106 0.0
C500 C 0.5936 0.21486 0.60272 0.0
C501 C 0.58087 0.19177 0.58424 0.0
C502 C 0.61353 0.19763 0.62953 0.0
C503 C 0.56755 0.23937 0.61485 0.0
C504 C 0.5702 0.26894 0.60146 0.0
C505 C 0.55099 0.29571 0.61138 0.0
C506 C 0.52885 0.29223 0.63607 0.0
C507 C 0.52597 0.26222 0.65021 0.0
C508 C 0.54503 0.23545 0.639 0.0
H509 H 0.7495 0.91076 0.85794 0.0
H510 H 0.65316 0.91995 0.83354 0.0
H511 H 0.64713 0.87427 0.87041 0.0
H512 H 0.76651 0.82787 0.86325 0.0
H513 H 0.79108 0.82424 0.89605 0.0
H514 H 0.78733 0.85883 0.86913 0.0
H515 H 0.76994 0.89308 0.91571 0.0
H516 H 0.77363 0.8584 0.94258 0.0
H517 H 0.73728 0.88554 0.94149 0.0
H518 H 0.6521 0.82591 0.9074 0.0
H519 H 0.668 0.77795 0.94225 0.0
H520 H 0.76073 0.80018 0.94356 0.0
C521 C 0.72699 0.90347 0.86064 0.0
C522 C 0.70174 0.91916 0.84285 0.0
C523 C 0.67285 0.90848 0.84686 0.0
C524 C 0.66915 0.88253 0.86783 0.0
C525 C 0.69451 0.86749 0.88476 0.0
C526 C 0.72287 0.87756 0.88152 0.0
C527 C 0.74672 0.85641 0.90169 0.0
C528 C 0.77455 0.84093 0.8813 0.0
C529 C 0.75752 0.87444 0.92686 0.0
C530 C 0.72742 0.83266 0.91636 0.0
C531 C 0.69733 0.83959 0.90637 0.0
C532 C 0.6755 0.82039 0.91562 0.0
C533 C 0.68473 0.7932 0.93537 0.0
C534 C 0.71548 0.78549 0.94565 0.0
C535 C 0.73695 0.80571 0.93631 0.0
H536 H 0.15414 0.29384 0.07581 0.0
H537 H 0.11673 0.24004 0.01214 0.0
H538 H 0.06818 0.24302 0.04566 0.0
H539 H 0.12997 0.25456 0.14259 0.0
H540 H 0.12113 0.28744 0.16618 0.0
H541 H 0.14958 0.28759 0.13388 0.0
H542 H 0.11888 0.33998 0.10979 0.0
H543 H 0.09024 0.34001 0.14219 0.0
H544 H 0.07829 0.34289 0.10234 0.0
H545 H 0.02796 0.24479 0.08901 0.0
H546 H -3e-05 0.24218 0.14069 0.0
H547 H 0.06414 0.29314 0.17786 0.0
C548 C 0.13521 0.28374 0.06836 0.0
C549 C 0.13879 0.26714 0.04125 0.0
C550 C 0.11418 0.25307 0.03277 0.0
C551 C 0.0865 0.25485 0.05151 0.0
C552 C 0.08397 0.27066 0.07865 0.0
C553 C 0.10769 0.28482 0.08714 0.0
C554 C 0.10118 0.29604 0.11977 0.0
C555 C 0.12698 0.28046 0.14189 0.0
C556 C 0.09689 0.33186 0.11843 0.0
C557 C 0.07077 0.28475 0.12885 0.0
C558 C 0.06091 0.2709 0.10446 0.0
C559 C 0.03508 0.25611 0.10807 0.0
C560 C 0.01942 0.25464 0.13762 0.0
C561 C 0.02986 0.26756 0.16328 0.0
C562 C 0.05528 0.28363 0.15852 0.0
H563 H 0.75178 0.40298 0.34899 0.0
H564 H 0.66607 0.40042 0.3043 0.0
H565 H 0.65624 0.35664 0.34256 0.0
H566 H 0.77418 0.32039 0.36287 0.0
H567 H 0.79073 0.32206 0.40001 0.0
H568 H 0.79017 0.35416 0.37022 0.0
H569 H 0.76085 0.3923 0.40965 0.0
H570 H 0.7615 0.36023 0.43953 0.0
H571 H 0.72498 0.38443 0.42942 0.0
H572 H 0.65613 0.3128 0.38529 0.0
H573 H 0.6672 0.27008 0.42741 0.0
H574 H 0.7535 0.30076 0.44344 0.0
C575 C 0.73073 0.39349 0.34743 0.0
C576 C 0.70949 0.40532 0.32382 0.0
C577 C 0.68261 0.39176 0.3222 0.0
C578 C 0.67679 0.36699 0.3439 0.0
C579 C 0.69819 0.35594 0.36689 0.0
C580 C 0.72474 0.36861 0.36866 0.0
C581 C 0.74481 0.35149 0.39463 0.0
C582 C 0.77685 0.33611 0.38112 0.0
C583 C 0.74821 0.37343 0.41979 0.0
C584 C 0.72531 0.32725 0.40731 0.0
C585 C 0.69844 0.33032 0.3911 0.0
C586 C 0.67705 0.31022 0.39818 0.0
C587 C 0.68351 0.28607 0.42214 0.0
C588 C 0.71115 0.28219 0.43862 0.0
C589 C 0.73209 0.30331 0.43132 0.0
H590 H 0.53781 0.93703 0.58984 0.0
H591 H 0.54199 0.02885 0.54257 0.0
H592 H 0.56852 0.04226 0.58659 0.0
H593 H 0.52813 0.95793 0.66925 0.0
H594 H 0.55468 0.9246 0.68542 0.0
H595 H 0.53439 0.92169 0.6508 0.0
H596 H 0.58686 0.90403 0.62022 0.0
H597 H 0.60725 0.90626 0.65493 0.0
H598 H 0.61681 0.92774 0.61857 0.0
H599 H 0.58906 0.0484 0.6373 0.0
H600 H 0.61765 0.04189 0.68585 0.0
H601 H 0.60888 0.94389 0.69807 0.0
C602 C 0.54458 0.9598 0.58876 0.0
C603 C 0.53676 0.98233 0.56326 0.0
C604 C 0.54673 0.01157 0.56227 0.0
C605 C 0.56187 0.01949 0.5872 0.0
C606 C 0.56788 -0.00248 0.61266 0.0
C607 C 0.56084 0.96782 0.6132 0.0
C608 C 0.57283 0.94796 0.64243 0.0
C609 C 0.54589 0.93743 0.6632 0.0
C610 C 0.59741 0.91983 0.6335 0.0
C611 C 0.58729 0.97137 0.6581 0.0
C612 C 0.58316 5e-05 0.64084 0.0
C613 C 0.59305 0.02592 0.65082 0.0
C614 C 0.60899 0.02206 0.67855 0.0
C615 C 0.6156 0.99237 0.69544 0.0
C616 C 0.60415 0.9668 0.68543 0.0
H617 H 0.96485 0.93311 0.91891 0.0
H618 H 0.06345 0.92383 0.9339 0.0
H619 H 0.07575 0.89123 0.88873 0.0
H620 H 0.96559 0.85621 0.89614 0.0
H621 H 0.93723 0.86948 0.86689 0.0
H622 H 0.93687 0.89094 0.90086 0.0
H623 H 0.94072 0.94118 0.86434 0.0
H624 H 0.94165 0.91979 0.83019 0.0
H625 H 0.97248 0.94105 0.83517 0.0
H626 H 0.07661 0.85851 0.84277 0.0
H627 H 0.06606 0.82822 0.79978 0.0
H628 H 0.96706 0.86262 0.81378 0.0
C629 C -0.01096 0.92379 0.9131 0.0
C630 C 0.01325 0.93043 0.93013 0.0
C631 C 0.04462 0.91865 0.92122 0.0
C632 C 0.05178 0.90029 0.8956 0.0
C633 C 0.02726 0.89456 0.87902 0.0
C634 C -0.00345 0.90607 0.88741 0.0
C635 C 0.97444 0.89731 0.8655 0.0
C636 C 0.95224 0.87728 0.88342 0.0
C637 C 0.95627 0.92657 0.84775 0.0
C638 C -0.00252 0.87845 0.84374 0.0
C639 C 0.02784 0.87711 0.85185 0.0
C640 C 0.05298 0.85965 0.83601 0.0
C641 C 0.04681 0.84261 0.81166 0.0
C642 C 0.01583 0.84345 0.80347 0.0
C643 C -0.009 0.86202 0.81931 0.0
H644 H 0.09074 0.07329 0.92429 0.0
H645 H 0.12375 0.00455 -0.00018 0.0
H646 H 0.17254 0.02586 -0.00107 0.0
H647 H 0.17123 0.07844 0.88375 0.0
H648 H 0.15932 0.11985 0.87444 0.0
H649 H 0.13128 0.09405 0.87538 0.0
H650 H 0.09602 0.12726 0.91545 0.0
H651 H 0.12381 0.15293 0.91471 0.0
H652 H 0.11184 0.13388 0.9516 0.0
H653 H 0.21051 0.06199 -0.0014 0.0
H654 H 0.23441 0.10921 -0.0017 0.0
H655 H 0.17793 0.15326 0.92152 0.0
C656 C 0.10883 0.062 0.93974 0.0
C657 C 0.10373 0.03747 0.96214 0.0
C658 C 0.12747 0.0234 0.98243 0.0
C659 C 0.15529 0.03521 0.98192 0.0
C660 C 0.15914 0.06051 0.96043 0.0
C661 C 0.13673 0.07337 0.93927 0.0
C662 C 0.14417 0.10308 0.92177 0.0
C663 C 0.15198 0.09857 0.88675 0.0
C664 C 0.11739 0.13089 0.92619 0.0
C665 C 0.17278 0.1064 0.93821 0.0
C666 C 0.18163 0.08121 0.95984 0.0
C667 C 0.20452 0.08131 0.98104 0.0
C668 C 0.21789 0.10823 0.98081 0.0
C669 C 0.20799 0.13459 0.95977 0.0
C670 C 0.18629 0.13308 0.93737 0.0
H671 H 0.6492 0.54049 0.32792 0.0
H672 H 0.64941 0.51997 0.23084 0.0
H673 H 0.59934 0.55549 0.22483 0.0
H674 H 0.55954 0.56123 0.34337 0.0
H675 H 0.56452 0.59285 0.36569 0.0
H676 H 0.59327 0.55753 0.36642 0.0
H677 H 0.6362 0.59037 0.34891 0.0
H678 H 0.60777 0.62554 0.34777 0.0
H679 H 0.63226 0.61596 0.31319 0.0
H680 H 0.5584 0.60128 0.22468 0.0
H681 H 0.53162 0.6554 0.22934 0.0
H682 H 0.55922 0.65007 0.32544 0.0
C683 C 0.63781 0.54238 0.30593 0.0
C684 C 0.6526 0.52699 0.28005 0.0
C685 C 0.63792 0.53087 0.25117 0.0
C686 C 0.60943 0.55101 0.2476 0.0
C687 C 0.59614 0.56729 0.27307 0.0
C688 C 0.60981 0.56316 0.3018 0.0
C689 C 0.59494 0.58819 0.32303 0.0
C690 C 0.57699 0.5741 0.3513 0.0
C691 C 0.61924 0.60606 0.3338 0.0
C692 C 0.57286 0.60857 0.30073 0.0
C693 C 0.5729 0.59535 0.27256 0.0
C694 C 0.55748 0.61151 0.24688 0.0
C695 C 0.54252 0.64231 0.24967 0.0
C696 C 0.54359 0.65667 0.27775 0.0
C697 C 0.55788 0.63929 0.30391 0.0
H698 H 0.29707 0.84949 0.56427 0.0
H699 H 0.23953 0.89488 0.48872 0.0
H700 H 0.2687 0.93878 0.48382 0.0
H701 H 0.3139 0.92313 0.59656 0.0
H702 H 0.35339 0.90429 0.60333 0.0
H703 H 0.32246 0.88163 0.60717 0.0
H704 H 0.35285 0.84482 0.5672 0.0
H705 H 0.38349 0.86752 0.56274 0.0
H706 H 0.36407 0.86109 0.52869 0.0
H707 H 0.31007 0.9716 0.47999 0.0
H708 H 0.36031 0.99039 0.47724 0.0
H709 H 0.39255 0.92174 0.55314 0.0
C710 C 0.28969 0.8694 0.54773 0.0
C711 C 0.26591 0.86918 0.52715 0.0
C712 C 0.25743 0.89499 0.50501 0.0
C713 C 0.27385 0.92 0.50212 0.0
C714 C 0.29846 0.91872 0.52165 0.0
C715 C 0.30615 0.89416 0.54427 0.0
C716 C 0.3366 0.89541 0.55856 0.0
C717 C 0.33126 0.90149 0.59348 0.0
C718 C 0.36064 0.86545 0.55399 0.0
C719 C 0.34583 0.92334 0.53914 0.0
C720 C 0.32312 0.93704 0.51864 0.0
C721 C 0.32767 0.9615 0.49641 0.0
C722 C 0.3563 0.97188 0.49484 0.0
C723 C 0.38009 0.9574 0.51491 0.0
C724 C 0.37454 0.93333 0.53773 0.0
H725 H 0.09239 0.7144 0.72329 0.0
H726 H 0.01235 0.66764 0.73578 0.0
H727 H 0.04753 0.61635 0.73942 0.0
H728 H 0.14565 0.65364 0.68037 0.0
H729 H 0.17878 0.65913 0.70082 0.0
H730 H 0.14768 0.69158 0.69263 0.0
H731 H 0.14081 0.70077 0.7518 0.0
H732 H 0.17178 0.66855 0.76032 0.0
H733 H 0.13395 0.66906 0.78009 0.0
H734 H 0.09153 0.57083 0.74857 0.0
H735 H 0.14027 0.53549 0.76388 0.0
H736 H 0.19024 0.61331 0.74815 0.0
C737 C 0.08227 0.69334 0.72584 0.0
C738 C 0.04982 0.69476 0.72903 0.0
C739 C 0.03729 0.66685 0.733 0.0
C740 C 0.05706 0.63768 0.73502 0.0
C741 C 0.08913 0.63707 0.73298 0.0
C742 C 0.10161 0.66424 0.72835 0.0
C743 C 0.13649 0.65777 0.73093 0.0
C744 C 0.15313 0.66603 0.69929 0.0
C745 C 0.1463 0.67505 0.75736 0.0
C746 C 0.1416 0.62291 0.73908 0.0
C747 C 0.11422 0.61117 0.73943 0.0
C748 C 0.11316 0.57971 0.748 0.0
C749 C 0.1408 0.55989 0.75676 0.0
C750 C 0.16866 0.57195 0.75739 0.0
C751 C 0.1691 0.60364 0.74799 0.0
H752 H 0.81664 0.32507 0.56315 0.0
H753 H 0.74632 0.37174 0.49966 0.0
H754 H 0.77089 0.41892 0.49479 0.0
H755 H 0.8287 0.3967 0.60072 0.0
H756 H 0.86995 0.38216 0.60206 0.0
H757 H 0.84285 0.35521 0.6059 0.0
H758 H 0.87236 0.3266 0.5594 0.0
H759 H 0.89922 0.35354 0.55514 0.0
H760 H 0.87764 0.34847 0.52209 0.0
H761 H 0.80817 0.45677 0.48972 0.0
H762 H 0.85462 0.48237 0.48553 0.0
H763 H 0.90042 0.41013 0.55182 0.0
C764 C 0.80579 0.34565 0.54914 0.0
C765 C 0.77963 0.34506 0.53191 0.0
C766 C 0.76629 0.37203 0.51326 0.0
C767 C 0.78002 0.39889 0.51044 0.0
C768 C 0.8067 0.39831 0.52679 0.0
C769 C 0.8192 0.37246 0.5461 0.0
C770 C 0.85005 0.37599 0.55795 0.0
C771 C 0.84773 0.37763 0.59379 0.0
C772 C 0.87634 0.3496 0.54803 0.0
C773 C 0.85383 0.40711 0.541 0.0
C774 C 0.82835 0.41998 0.52363 0.0
C775 C 0.82792 0.44728 0.50376 0.0
C776 C 0.85439 0.46152 0.50135 0.0
C777 C 0.88086 0.44805 0.51834 0.0
C778 C 0.88027 0.421 0.53887 0.0
H779 H 0.32191 0.90808 0.17421 0.0
H780 H 0.31437 0.94059 0.26732 0.0
H781 H 0.36533 0.90855 0.27916 0.0
H782 H 0.35074 0.83169 0.19625 0.0
H783 H 0.37694 0.82467 0.16228 0.0
H784 H 0.34292 0.85455 0.15937 0.0
H785 H 0.37765 0.89543 0.13934 0.0
H786 H 0.41192 0.86554 0.14241 0.0
H787 H 0.40909 0.90054 0.16246 0.0
H788 H 0.41229 0.86691 0.28375 0.0
H789 H 0.45073 0.81799 0.28102 0.0
H790 H 0.42867 0.81352 0.18438 0.0
C791 C 0.33153 0.90892 0.19674 0.0
C792 C 0.315 0.92744 0.21956 0.0
C793 C 0.32749 0.92758 0.24913 0.0
C794 C 0.35634 0.90931 0.25608 0.0
C795 C 0.37231 0.89124 0.23304 0.0
C796 C 0.36042 0.89102 0.20388 0.0
C797 C 0.38047 0.86714 0.18448 0.0
C798 C 0.36165 0.8431 0.17508 0.0
C799 C 0.39569 0.88313 0.15546 0.0
C800 C 0.40438 0.85268 0.20798 0.0
C801 C 0.3997 0.86726 0.23564 0.0
C802 C 0.41673 0.85573 0.26198 0.0
C803 C 0.43842 0.82797 0.26026 0.0
C804 C 0.44253 0.81221 0.23249 0.0
C805 C 0.4262 0.82539 0.20576 0.0
H806 H 0.2742 0.40019 0.75931 0.0
H807 H 0.32497 0.4747 0.72686 0.0
H808 H 0.37482 0.43721 0.73096 0.0
H809 H 0.33503 0.35503 0.81346 0.0
H810 H 0.32631 0.31845 0.80339 0.0
H811 H 0.29598 0.3524 0.80427 0.0
H812 H 0.28372 0.34626 0.74718 0.0
H813 H 0.31398 0.31263 0.74571 0.0
H814 H 0.31441 0.34537 0.71673 0.0
H815 H 0.41711 0.38953 0.72792 0.0
H816 H 0.44797 0.33689 0.72082 0.0
H817 H 0.36865 0.29494 0.75692 0.0
C818 C 0.29592 0.40873 0.75396 0.0
C819 C 0.29615 0.43993 0.74257 0.0
C820 C 0.32468 0.45066 0.73574 0.0
C821 C 0.35297 0.4296 0.73809 0.0
C822 C 0.35195 0.39838 0.7481 0.0
C823 C 0.32408 0.38821 0.75658 0.0
C824 C 0.32852 0.3532 0.76326 0.0
C825 C 0.32105 0.34424 0.79819 0.0
C826 C 0.30903 0.33854 0.74193 0.0
C827 C 0.36289 0.34489 0.75498 0.0
C828 C 0.37629 0.37115 0.74691 0.0
C829 C 0.40708 0.36885 0.73502 0.0
C830 C 0.42436 0.33898 0.7309 0.0
C831 C 0.41049 0.31215 0.73835 0.0
C832 C 0.37977 0.31518 0.75124 0.0
H833 H 0.15314 0.80477 0.57512 0.0
H834 H 0.12215 0.75395 0.50447 0.0
H835 H 0.06942 0.76098 0.5301 0.0
H836 H 0.11725 0.7692 0.63698 0.0
H837 H 0.1066 0.80255 0.65976 0.0
H838 H 0.1394 0.80057 0.63196 0.0
H839 H 0.11494 0.8539 0.60417 0.0
H840 H 0.0819 0.85603 0.63204 0.0
H841 H 0.07607 0.85911 0.59046 0.0
H842 H 0.02416 0.76436 0.56762 0.0
H843 H -0.01012 0.76222 0.61565 0.0
H844 H 0.04932 0.81063 0.66298 0.0
C845 C 0.13485 0.79628 0.56445 0.0
C846 C 0.14143 0.77916 0.53772 0.0
C847 C 0.1174 0.76726 0.52492 0.0
C848 C 0.08734 0.77137 0.53915 0.0
C849 C 0.08173 0.78742 0.56617 0.0
C850 C 0.10476 0.79979 0.57871 0.0
C851 C 0.09402 0.81164 0.61049 0.0
C852 C 0.11559 0.79498 0.6363 0.0
C853 C 0.09158 0.84729 0.6092 0.0
C854 C 0.0621 0.80241 0.61459 0.0
C855 C 0.05519 0.78919 0.58837 0.0
C856 C 0.02885 0.77542 0.58796 0.0
C857 C 0.00958 0.77421 0.61537 0.0
C858 C 0.01681 0.78662 0.64278 0.0
C859 C 0.04277 0.80185 0.642 0.0
H860 H 0.26558 0.91615 0.33207 0.0
H861 H 0.17645 0.92338 0.29007 0.0
H862 H 0.16162 0.88415 0.33064 0.0
H863 H 0.27774 0.83415 0.35092 0.0
H864 H 0.29496 0.83496 0.38787 0.0
H865 H 0.29834 0.86524 0.35685 0.0
H866 H 0.27371 0.90733 0.3943 0.0
H867 H 0.27042 0.87714 0.42553 0.0
H868 H 0.23641 0.9049 0.41422 0.0
H869 H 0.15699 0.84266 0.37374 0.0
H870 H 0.16341 0.80039 0.41663 0.0
H871 H 0.25524 0.81942 0.43146 0.0
C872 C 0.24281 0.90974 0.3316 0.0
C873 C 0.22216 0.92301 0.30783 0.0
C874 C 0.19271 0.91367 0.30794 0.0
C875 C 0.18399 0.89142 0.33098 0.0
C876 C 0.20488 0.87871 0.35389 0.0
C877 C 0.23367 0.88747 0.3545 0.0
C878 C 0.25214 0.86913 0.38112 0.0
C879 C 0.2826 0.84973 0.36841 0.0
C880 C 0.25854 0.89093 0.40521 0.0
C881 C 0.22941 0.84834 0.39491 0.0
C882 C 0.20221 0.8545 0.37896 0.0
C883 C 0.17808 0.83774 0.38657 0.0
C884 C 0.18195 0.81377 0.41093 0.0
C885 C 0.20975 0.80671 0.42732 0.0
C886 C 0.23363 0.8245 0.41944 0.0
H887 H 0.95392 0.6333 0.67985 0.0
H888 H 0.90115 0.7158 0.63153 0.0
H889 H 0.89311 0.68465 0.58857 0.0
H890 H -0.00463 0.60359 0.61737 0.0
H891 H -0.00605 0.56303 0.62911 0.0
H892 H -0.00989 0.59049 0.65836 0.0
H893 H 0.9377 0.57357 0.6786 0.0
H894 H 0.94186 0.54647 0.64865 0.0
H895 H 0.90721 0.57572 0.65169 0.0
H896 H 0.90049 0.64806 0.54656 0.0
H897 H 0.91986 0.607 0.51012 0.0
H898 H 0.96601 0.54794 0.58622 0.0
C899 C 0.93978 0.64446 0.66071 0.0
C900 C 0.92816 0.67677 0.6588 0.0
C901 C 0.9101 0.69092 0.63336 0.0
C902 C 0.90533 0.67342 0.60893 0.0
C903 C 0.91821 0.64176 0.61077 0.0
C904 C 0.93452 0.62722 0.63634 0.0
C905 C 0.94856 0.59371 0.6312 0.0
C906 C 0.98411 0.58743 0.63416 0.0
C907 C 0.93288 0.57103 0.65388 0.0
C908 C 0.93995 0.59256 0.59776 0.0
C909 C 0.92178 0.62024 0.58661 0.0
C910 C 0.91385 0.62591 0.55525 0.0
C911 C 0.92502 0.60273 0.53473 0.0
C912 C 0.94381 0.57462 0.54589 0.0
C913 C 0.95097 0.56921 0.57769 0.0
H914 H 0.33565 0.77591 0.44891 0.0
H915 H 0.32507 0.67844 0.46386 0.0
H916 H 0.36892 0.66449 0.42576 0.0
H917 H 0.34807 0.77864 0.37024 0.0
H918 H 0.37728 0.80332 0.3663 0.0
H919 H 0.34948 0.80566 0.39928 0.0
H920 H 0.39361 0.79425 0.43822 0.0
H921 H 0.42191 0.79273 0.40548 0.0
H922 H 0.42355 0.76024 0.43502 0.0
H923 H 0.4062 0.66242 0.37956 0.0
H924 H 0.43963 0.67162 0.33193 0.0
H925 H 0.42783 0.76985 0.348 0.0
C926 C 0.34328 0.75149 0.44505 0.0
C927 C 0.32689 0.72829 0.45927 0.0
C928 C 0.33724 0.69665 0.45318 0.0
C929 C 0.36218 0.68844 0.43162 0.0
C930 C 0.37682 0.71207 0.41677 0.0
C931 C 0.36828 0.74286 0.42368 0.0
C932 C 0.38611 0.76406 0.40242 0.0
C933 C 0.3639 0.78938 0.38343 0.0
C934 C 0.40758 0.77867 0.42142 0.0
C935 C 0.40472 0.74056 0.38151 0.0
C936 C 0.39919 0.71068 0.39035 0.0
C937 C 0.4114 0.68554 0.37285 0.0
C938 C 0.43005 0.69103 0.34571 0.0
C939 C 0.43635 0.72135 0.33658 0.0
C940 C 0.42375 0.74633 0.35486 0.0
H941 H 0.22204 0.06756 0.14278 0.0
H942 H 0.31392 0.06083 0.17857 0.0
H943 H 0.32328 0.10555 0.14189 0.0
H944 H 0.24323 0.09169 0.06013 0.0
H945 H 0.20701 0.11844 0.05496 0.0
H946 H 0.2083 0.08402 0.08202 0.0
H947 H 0.18528 0.11869 0.12731 0.0
H948 H 0.18344 0.15263 0.09963 0.0
H949 H 0.20417 0.15055 0.13497 0.0
H950 H 0.3217 0.1528 0.10462 0.0
H951 H 0.30894 0.20056 0.06891 0.0
H952 H 0.21811 0.17768 0.05666 0.0
C953 C 0.24435 0.07512 0.14244 0.0
C954 C 0.26734 0.06052 0.16345 0.0
C955 C 0.29596 0.07157 0.16274 0.0
C956 C 0.30156 0.09691 0.14189 0.0
C957 C 0.27835 0.11103 0.12182 0.0
C958 C 0.2503 0.1006 0.12182 0.0
C959 C 0.22865 0.12128 0.09904 0.0
C960 C 0.22138 0.10274 0.07246 0.0
C961 C 0.1986 0.13667 0.11629 0.0
C962 C 0.24873 0.14525 0.08682 0.0
C963 C 0.2774 0.13865 0.10013 0.0
C964 C 0.29947 0.15807 0.09379 0.0
C965 C 0.29198 0.18518 0.07357 0.0
C966 C 0.26263 0.19271 0.06001 0.0
C967 C 0.24086 0.17228 0.06646 0.0
H968 H 0.84952 0.75798 0.94488 0.0
H969 H 0.84604 0.65881 0.95156 0.0
H970 H 0.88801 0.6512 0.9101 0.0
H971 H 0.85612 0.76729 0.86493 0.0
H972 H 0.88211 0.79527 0.86178 0.0
H973 H 0.85643 0.79226 0.89611 0.0
H974 H 0.90351 0.78247 0.93176 0.0
H975 H 0.9294 0.78578 0.89744 0.0
H976 H 0.93566 0.75131 0.92458 0.0
H977 H 0.92289 0.65567 0.86228 0.0
H978 H 0.95036 0.67182 0.81271 0.0
H979 H 0.93228 0.76774 0.83754 0.0
C980 C 0.85844 0.73449 0.93847 0.0
C981 C 0.84473 0.70894 0.95156 0.0
C982 C 0.8563 0.6787 0.94186 0.0
C983 C 0.88022 0.67411 0.91843 0.0
C984 C 0.89241 0.69998 0.90506 0.0
C985 C 0.88218 0.72956 0.91493 0.0
C986 C 0.89655 0.75394 0.8943 0.0
C987 C 0.8713 0.77862 0.87834 0.0
C988 C 0.91754 0.76927 0.91315 0.0
C989 C 0.91554 0.73357 0.87068 0.0
C990 C 0.91306 0.70249 0.87746 0.0
C991 C 0.92574 0.67978 0.85714 0.0
C992 C 0.94113 0.68916 0.82901 0.0
C993 C 0.94379 0.72087 0.82166 0.0
C994 C 0.93134 0.74317 0.84306 0.0
H995 H 0.21706 0.57971 0.65667 0.0
H996 H 0.30367 0.57621 0.70221 0.0
H997 H 0.31616 0.61942 0.66494 0.0
H998 H 0.24659 0.5993 0.57589 0.0
H999 H 0.21091 0.6252 0.56607 0.0
H1000 H 0.20998 0.5922 0.59457 0.0
H1001 H 0.1816 0.62954 0.63548 0.0
H1002 H 0.18233 0.66206 0.60639 0.0
H1003 H 0.19878 0.66233 0.64382 0.0
H1004 H 0.31807 0.66468 0.62504 0.0
H1005 H 0.30886 0.70982 0.58543 0.0
H1006 H 0.2208 0.68478 0.56582 0.0
C1007 C 0.23892 0.58764 0.65849 0.0
C1008 C 0.2595 0.57435 0.68229 0.0
C1009 C 0.28756 0.5859 0.68419 0.0
C1010 C 0.29492 0.6104 0.66305 0.0
C1011 C 0.27401 0.62315 0.64012 0.0
C1012 C 0.24658 0.61221 0.63764 0.0
C1013 C 0.22742 0.63117 0.61185 0.0
C1014 C 0.22353 0.61072 0.58554 0.0
C1015 C 0.19564 0.64721 0.62521 0.0
C1016 C 0.24811 0.65485 0.60066 0.0
C1017 C 0.27499 0.64957 0.61712 0.0
C1018 C 0.29723 0.66892 0.61185 0.0
C1019 C 0.29175 0.69454 0.58936 0.0
C1020 C 0.26418 0.70073 0.57257 0.0
C1021 C 0.24222 0.68043 0.57813 0.0
H1022 H 0.32022 0.03036 0.34584 0.0
H1023 H 0.3804 0.98575 0.27218 0.0
H1024 H 0.42652 0.9883 0.30144 0.0
H1025 H 0.37237 0.08308 0.36236 0.0
H1026 H 0.3628 0.08029 0.40406 0.0
H1027 H 0.33434 0.07607 0.37691 0.0
H1028 H 0.32856 0.02166 0.40505 0.0
H1029 H 0.35606 0.02716 0.43254 0.0
H1030 H 0.36305 0.99257 0.41126 0.0
H1031 H 0.46558 0.99319 0.33925 0.0
H1032 H 0.49578 0.00042 0.3841 0.0
H1033 H 0.41085 0.04249 0.43317 0.0
C1034 C 0.34315 0.02129 0.3359 0.0
C1035 C 0.34693 0.00789 0.30685 0.0
C1036 C 0.37715 -0.00378 0.2944 0.0
C1037 C 0.40344 -0.00242 0.3108 0.0
C1038 C 0.399 0.01089 0.33943 0.0
C1039 C 0.36969 0.02266 0.35188 0.0
C1040 C 0.37151 0.03535 0.38332 0.0
C1041 C 0.35955 0.0708 0.38154 0.0
C1042 C 0.35375 0.0181 0.40958 0.0
C1043 C 0.40635 0.02791 0.38705 0.0
C1044 C 0.42174 0.01412 0.36123 0.0
C1045 C 0.4539 0.00427 0.35944 0.0
C1046 C 0.4708 0.00847 0.38485 0.0
C1047 C 0.45543 0.02232 0.41146 0.0
C1048 C 0.42293 0.03228 0.41266 0.0
H1049 H 0.82517 0.82376 0.06485 0.0
H1050 H 0.75338 0.86757 0.00178 0.0
H1051 H 0.77113 0.91814 0.00258 0.0
H1052 H 0.82516 0.89503 0.10999 0.0
H1053 H 0.86681 0.88518 0.11276 0.0
H1054 H 0.84396 0.85463 0.11287 0.0
H1055 H 0.87833 0.83223 0.06564 0.0
H1056 H 0.90114 0.86253 0.0654 0.0
H1057 H 0.8827 0.85738 0.03027 0.0
H1058 H 0.80318 0.96008 0.00154 0.0
H1059 H 0.84684 0.98943 -0.00122 0.0
H1060 H 0.89634 0.91876 0.06399 0.0
C1061 C 0.81261 0.84428 0.05205 0.0
C1062 C 0.78809 0.84204 0.03322 0.0
C1063 C 0.77227 0.86905 0.0164 0.0
C1064 C 0.78203 0.89786 0.01692 0.0
C1065 C 0.80709 0.89918 0.03496 0.0
C1066 C 0.82187 0.87313 0.0526 0.0
C1067 C 0.85062 0.87948 0.06671 0.0
C1068 C 0.84637 0.87853 0.10272 0.0
C1069 C 0.8799 0.85657 0.05635 0.0
C1070 C 0.85106 0.91236 0.05234 0.0
C1071 C 0.82538 0.92369 0.03474 0.0
C1072 C 0.82292 0.95188 0.01596 0.0
C1073 C 0.84782 0.96832 0.01437 0.0
C1074 C 0.87471 0.95623 0.03117 0.0
C1075 C 0.87573 0.92869 0.05132 0.0
H1076 H 0.70294 0.13603 0.43086 0.0
H1077 H 0.7481 0.08639 0.51239 0.0
H1078 H 0.72125 0.0421 0.50756 0.0
H1079 H 0.63446 0.12541 0.45507 0.0
H1080 H 0.61849 0.12087 0.41834 0.0
H1081 H 0.65005 0.14191 0.41845 0.0
H1082 H 0.68335 0.10511 0.38025 0.0
H1083 H 0.65145 0.08414 0.37938 0.0
H1084 H 0.6894 0.0634 0.3898 0.0
H1085 H 0.68053 0.01153 0.50391 0.0
H1086 H 0.6284 -0.00222 0.50313 0.0
H1087 H 0.60535 0.06945 0.42698 0.0
C1088 C 0.7085 0.11493 0.44637 0.0
C1089 C 0.72785 0.11397 0.47154 0.0
C1090 C 0.73366 0.08699 0.49264 0.0
C1091 C 0.71861 0.06175 0.48993 0.0
C1092 C 0.69763 0.06424 0.46625 0.0
C1093 C 0.69267 0.09014 0.44461 0.0
C1094 C 0.6638 0.09088 0.42666 0.0
C1095 C 0.64035 0.12155 0.42988 0.0
C1096 C 0.67253 0.08555 0.39196 0.0
C1097 C 0.65172 0.06315 0.44362 0.0
C1098 C 0.67233 0.04724 0.46528 0.0
C1099 C 0.66463 0.02319 0.48644 0.0
C1100 C 0.63489 0.01572 0.486 0.0
C1101 C 0.61311 0.03273 0.46502 0.0
C1102 C 0.62188 0.05602 0.44299 0.0
H1103 H 0.79406 0.4031 0.27791 0.0
H1104 H 0.82522 0.45273 0.19256 0.0
H1105 H 0.87719 0.41894 0.19527 0.0
H1106 H 0.87148 0.38092 0.31634 0.0
H1107 H 0.86299 0.34286 0.33006 0.0
H1108 H 0.83182 0.37604 0.32647 0.0
H1109 H 0.80379 0.34632 0.29091 0.0
H1110 H 0.83488 0.31332 0.29404 0.0
H1111 H 0.82401 0.33148 0.25581 0.0
H1112 H 0.92274 0.37669 0.20369 0.0
H1113 H 0.95604 0.3249 0.21216 0.0
H1114 H 0.89226 0.29893 0.28798 0.0
C1115 C 0.81229 0.40751 0.26049 0.0
C1116 C 0.80628 0.43066 0.23535 0.0
C1117 C 0.82989 0.43519 0.21213 0.0
C1118 C 0.85939 0.41634 0.21369 0.0
C1119 C 0.86443 0.39297 0.23835 0.0
C1120 C 0.84139 0.38827 0.26119 0.0
C1121 C 0.85051 0.35818 0.28165 0.0
C1122 C 0.85445 0.36492 0.31564 0.0
C1123 C 0.82691 0.33603 0.28048 0.0
C1124 C 0.88151 0.34575 0.26557 0.0
C1125 C 0.88974 0.36685 0.24164 0.0
C1126 C 0.91674 0.36011 0.22254 0.0
C1127 C 0.93542 0.33069 0.22746 0.0
C1128 C 0.92631 0.3082 0.25052 0.0
C1129 C 0.89946 0.31595 0.2702 0.0
H1130 H 0.10819 0.55038 0.50677 0.0
H1131 H 0.09184 0.56318 0.40724 0.0
H1132 H 0.13965 0.58618 0.39706 0.0
H1133 H 0.12666 0.62136 0.51149 0.0
H1134 H 0.1557 0.60934 0.5403 0.0
H1135 H 0.12531 0.5871 0.53823 0.0
H1136 H 0.1673 0.53737 0.53134 0.0
H1137 H 0.19764 0.56016 0.5329 0.0
H1138 H 0.19674 0.53774 0.49978 0.0
H1139 H 0.18233 0.61604 0.39882 0.0
H1140 H 0.21303 0.65452 0.41276 0.0
H1141 H 0.20129 0.62326 0.5113 0.0
C1142 C 0.11529 0.55716 0.48277 0.0
C1143 C 0.09669 0.55498 0.45774 0.0
C1144 C 0.10603 0.56466 0.42666 0.0
C1145 C 0.13327 0.57741 0.42067 0.0
C1146 C 0.1508 0.58009 0.44603 0.0
C1147 C 0.14213 0.57025 0.47653 0.0
C1148 C 0.16162 0.58052 0.50015 0.0
C1149 C 0.1411 0.60079 0.5239 0.0
C1150 C 0.18204 0.55225 0.51703 0.0
C1151 C 0.18117 0.59945 0.47835 0.0
C1152 C 0.17539 0.59803 0.44715 0.0
C1153 C 0.18768 0.61676 0.42305 0.0
C1154 C 0.20505 0.63856 0.43117 0.0
C1155 C 0.20942 0.64161 0.46309 0.0
C1156 C 0.19866 0.62087 0.48673 0.0
H1157 H 0.68 0.09012 0.76092 0.0
H1158 H 0.62633 0.02562 0.81217 0.0
H1159 H 0.57737 0.06034 0.79621 0.0
H1160 H 0.63681 0.15847 0.77885 0.0
H1161 H 0.64044 0.17888 0.74047 0.0
H1162 H 0.66988 0.14646 0.75256 0.0
H1163 H 0.66118 0.11812 0.70276 0.0
H1164 H 0.63261 0.152 0.69126 0.0
H1165 H 0.62233 0.1136 0.69533 0.0
H1166 H 0.53538 0.10595 0.78135 0.0
H1167 H 0.50405 0.15843 0.76986 0.0
H1168 H 0.586 0.19142 0.72649 0.0
C1169 C 0.65789 0.08324 0.76847 0.0
C1170 C 0.65649 0.05581 0.78811 0.0
C1171 C 0.62746 0.04693 0.79726 0.0
C1172 C 0.59973 0.06626 0.78806 0.0
C1173 C 0.60184 0.09362 0.76894 0.0
C1174 C 0.63025 0.10174 0.75883 0.0
C1175 C 0.62645 0.13308 0.74004 0.0
C1176 C 0.64444 0.15553 0.75382 0.0
C1177 C 0.63623 0.129 0.70528 0.0
C1178 C 0.59167 0.14308 0.74424 0.0
C1179 C 0.57766 0.11954 0.75984 0.0
C1180 C 0.54598 0.12429 0.76856 0.0
C1181 C 0.52842 0.15414 0.76204 0.0
C1182 C 0.54288 0.17875 0.74753 0.0
C1183 C 0.57454 0.17286 0.73757 0.0
H1184 H 0.74228 0.58938 0.21204 0.0
H1185 H 0.76757 0.51204 0.15349 0.0
H1186 H 0.78011 0.54849 0.10855 0.0
H1187 H 0.70375 0.64224 0.15253 0.0
H1188 H 0.71596 0.67648 0.16449 0.0
H1189 H 0.71182 0.64418 0.19301 0.0
H1190 H 0.76892 0.64058 0.20802 0.0
H1191 H 0.77317 0.67298 0.17963 0.0
H1192 H 0.79984 0.63644 0.17779 0.0
H1193 H 0.78821 0.59292 0.06982 0.0
H1194 H 0.78971 0.64323 0.03865 0.0
H1195 H 0.75626 0.69278 0.12098 0.0
C1196 C 0.75111 0.58025 0.18987 0.0
C1197 C 0.75463 0.54802 0.18607 0.0
C1198 C 0.7652 0.53671 0.15668 0.0
C1199 C 0.77234 0.55719 0.13112 0.0
C1200 C 0.76832 0.58895 0.13534 0.0
C1201 C 0.75779 0.60055 0.16387 0.0
C1202 C 0.75349 0.63598 0.1613 0.0
C1203 C 0.71922 0.65057 0.16824 0.0
C1204 C 0.77515 0.64714 0.18297 0.0
C1205 C 0.76325 0.64238 0.12693 0.0
C1206 C 0.77191 0.61487 0.11252 0.0
C1207 C 0.78149 0.61463 0.08081 0.0
C1208 C 0.78212 0.6433 0.06328 0.0
C1209 C 0.77286 0.6718 0.07737 0.0
C1210 C 0.7635 0.67129 0.10966 0.0
H1211 H 0.93624 0.48533 0.42337 0.0
H1212 H 0.92191 0.58599 0.42627 0.0
H1213 H 0.87507 0.59131 0.39525 0.0
H1214 H 0.91552 0.48604 0.34435 0.0
H1215 H 0.89661 0.4524 0.35142 0.0
H1216 H 0.9277 0.45638 0.37547 0.0
H1217 H 0.89153 0.4518 0.42613 0.0
H1218 H 0.86109 0.44666 0.40173 0.0
H1219 H 0.85413 0.47717 0.4282 0.0
H1220 H 0.8298 0.5854 0.36397 0.0
H1221 H 0.79108 0.56906 0.33235 0.0
H1222 H 0.83684 0.47248 0.34774 0.0
C1223 C 0.92308 0.50847 0.41767 0.0
C1224 C 0.93249 0.5353 0.42725 0.0
C1225 C 0.91499 0.5652 0.41909 0.0
C1226 C 0.88836 0.56841 0.4016 0.0
C1227 C 0.87978 0.54147 0.39233 0.0
C1228 C 0.89671 0.51208 0.39997 0.0
C1229 C 0.88337 0.48698 0.38606 0.0
C1230 C 0.90722 0.46943 0.36295 0.0
C1231 C 0.87187 0.46431 0.41209 0.0
C1232 C 0.85639 0.50685 0.36915 0.0
C1233 C 0.85448 0.53818 0.37339 0.0
C1234 C 0.83113 0.56096 0.36042 0.0
C1235 C 0.80925 0.55148 0.34255 0.0
C1236 C 0.81115 0.5196 0.33754 0.0
C1237 C 0.83501 0.49706 0.35105 0.0
H1238 H 0.12902 0.5262 0.64975 0.0
H1239 H 0.16195 0.4275 0.67421 0.0
H1240 H 0.12752 0.41399 0.63635 0.0
H1241 H 0.04894 0.52134 0.63907 0.0
H1242 H 0.04552 0.55003 0.60564 0.0
H1243 H 0.07253 0.55156 0.63517 0.0
H1244 H 0.11698 0.54994 0.59116 0.0
H1245 H 0.08906 0.54827 0.56252 0.0
H1246 H 0.12341 0.51851 0.56568 0.0
H1247 H 0.08903 0.41069 0.59741 0.0
H1248 H 0.04811 0.41797 0.55898 0.0
H1249 H 0.0404 0.51862 0.55788 0.0
C1250 C 0.12882 0.5018 0.64711 0.0
C1251 C 0.148 0.47786 0.66496 0.0
C1252 C 0.14741 0.44619 0.66075 0.0
C1253 C 0.12798 0.43825 0.63929 0.0
C1254 C 0.10945 0.46228 0.62192 0.0
C1255 C 0.10971 0.49341 0.6254 0.0
C1256 C 0.08753 0.51448 0.60347 0.0
C1257 C 0.06211 0.53557 0.622 0.0
C1258 C 0.10534 0.53394 0.57927 0.0
C1259 C 0.07421 0.49029 0.58789 0.0
C1260 C 0.08742 0.46034 0.59879 0.0
C1261 C 0.07858 0.43401 0.58853 0.0
C1262 C 0.05534 0.43836 0.56675 0.0
C1263 C 0.04124 0.46877 0.55545 0.0
C1264 C 0.05103 0.49507 0.56593 0.0
H1265 H 0.59203 0.76677 0.1939 0.0
H1266 H 0.5231 0.7308 0.14609 0.0
H1267 H 0.55574 0.73145 0.09717 0.0
H1268 H 0.61805 0.81685 0.12426 0.0
H1269 H 0.65823 0.80759 0.13441 0.0
H1270 H 0.62759 0.80878 0.16492 0.0
H1271 H 0.65073 0.7522 0.18581 0.0
H1272 H 0.68127 0.75078 0.15533 0.0
H1273 H 0.65664 0.72153 0.15945 0.0
H1274 H 0.59793 0.72766 0.05658 0.0
H1275 H 0.64749 0.72306 0.02458 0.0
H1276 H 0.68925 0.76368 0.09613 0.0
C1277 C 0.58354 0.75994 0.17285 0.0
C1278 C 0.55514 0.7487 0.17372 0.0
C1279 C 0.54494 0.73929 0.14596 0.0
C1280 C 0.5632 0.73975 0.11797 0.0
C1281 C 0.59152 0.74991 0.118 0.0
C1282 C 0.60166 0.76016 0.14449 0.0
C1283 C 0.63435 0.76731 0.1385 0.0
C1284 C 0.63456 0.80222 0.14064 0.0
C1285 C 0.65707 0.74672 0.16111 0.0
C1286 C 0.64116 0.75847 0.10497 0.0
C1287 C 0.616 0.74862 0.09366 0.0
C1288 C 0.61755 0.73611 0.06471 0.0
C1289 C 0.64571 0.73343 0.04681 0.0
C1290 C 0.6716 0.7436 0.05782 0.0
C1291 C 0.66927 0.75669 0.08697 0.0
H1292 H 0.61065 0.46126 0.18948 0.0
H1293 H 0.69403 0.43184 0.13126 0.0
H1294 H 0.66173 0.42975 0.08661 0.0
H1295 H 0.5629 0.41218 0.15762 0.0
H1296 H 0.52789 0.44111 0.15962 0.0
H1297 H 0.55758 0.43971 0.18723 0.0
H1298 H 0.56026 0.49792 0.17075 0.0
H1299 H 0.53076 0.4994 0.14293 0.0
H1300 H 0.5678 0.51007 0.12992 0.0
H1301 H 0.6207 0.4347 0.04711 0.0
H1302 H 0.57308 0.44116 0.01706 0.0
H1303 H 0.51628 0.46421 0.10151 0.0
C1304 C 0.62201 0.45399 0.16744 0.0
C1305 C 0.6548 0.44663 0.16379 0.0
C1306 C 0.66891 0.4374 0.13458 0.0
C1307 C 0.65078 0.43627 0.10904 0.0
C1308 C 0.61854 0.44411 0.11319 0.0
C1309 C 0.6042 0.45238 0.14174 0.0
C1310 C 0.56908 0.45961 0.13986 0.0
C1311 C 0.55345 0.43678 0.16242 0.0
C1312 C 0.55623 0.49378 0.14625 0.0
C1313 C 0.566 0.4542 0.10582 0.0
C1314 C 0.59482 0.44564 0.09073 0.0
C1315 C 0.59797 0.44091 0.05878 0.0
C1316 C 0.5709 0.44468 0.0419 0.0
C1317 C 0.54118 0.45265 0.05715 0.0
C1318 C 0.53876 0.45748 0.08947 0.0
H1319 H 0.38427 0.41339 0.05426 0.0
H1320 H 0.35489 0.48229 0.97743 0.0
H1321 H 0.30393 0.46494 0.97948 0.0
H1322 H 0.35466 0.35405 0.02912 0.0
H1323 H 0.34256 0.338 0.0674 0.0
H1324 H 0.37383 0.35989 0.06357 0.0
H1325 H 0.34428 0.39722 0.10366 0.0
H1326 H 0.31263 0.37548 0.1073 0.0
H1327 H 0.30514 0.41699 0.09655 0.0
H1328 H 0.26088 0.43412 0.98349 0.0
H1329 H 0.23034 0.39129 0.98805 0.0
H1330 H 0.28653 0.34419 0.0639 0.0
C1331 C 0.36678 0.42526 0.03841 0.0
C1332 C 0.37326 0.44906 0.01574 0.0
C1333 C 0.35014 0.464 0.99507 0.0
C1334 C 0.3211 0.45449 0.99623 0.0
C1335 C 0.3155 0.43048 0.01859 0.0
C1336 C 0.33764 0.41625 0.03949 0.0
C1337 C 0.3274 0.38872 0.05877 0.0
C1338 C 0.35099 0.3584 0.05442 0.0
C1339 C 0.32204 0.39499 0.09364 0.0
C1340 C 0.29699 0.38839 0.04406 0.0
C1341 C 0.29012 0.41308 0.02141 0.0
C1342 C 0.26546 0.41522 0.00177 0.0
C1343 C 0.24826 0.39083 0.00448 0.0
C1344 C 0.25609 0.36473 0.02645 0.0
C1345 C 0.27968 0.3643 0.04742 0.0
H1346 H 0.10391 0.19553 0.23284 0.0
H1347 H 0.02679 0.14916 0.26657 0.0
H1348 H 0.06055 0.09767 0.26049 0.0
H1349 H 0.1427 0.13671 0.17735 0.0
H1350 H 0.18063 0.14167 0.18795 0.0
H1351 H 0.14861 0.17413 0.18802 0.0
H1352 H 0.15829 0.18084 0.24599 0.0
H1353 H 0.19002 0.14842 0.24592 0.0
H1354 H 0.15826 0.14809 0.27505 0.0
H1355 H 0.10519 0.05164 0.2578 0.0
H1356 H 0.15638 0.01623 0.26139 0.0
H1357 H 0.2032 0.09434 0.2317 0.0
C1358 C 0.09388 0.17455 0.23817 0.0
C1359 C 0.06296 0.17605 0.25016 0.0
C1360 C 0.05057 0.14827 0.25722 0.0
C1361 C 0.06949 0.11904 0.25367 0.0
C1362 C 0.10043 0.11832 0.24276 0.0
C1363 C 0.11239 0.14549 0.23494 0.0
C1364 C 0.1471 0.13892 0.22787 0.0
C1365 C 0.1552 0.14843 0.19321 0.0
C1366 C 0.1644 0.155 0.25004 0.0
C1367 C 0.15323 0.10392 0.23455 0.0
C1368 C 0.12606 0.09218 0.24221 0.0
C1369 C 0.12652 0.06054 0.25137 0.0
C1370 C 0.15555 0.04066 0.25341 0.0
C1371 C 0.18336 0.05291 0.24708 0.0
C1372 C 0.18211 0.0846 0.23677 0.0
H1373 H 0.24335 0.32106 0.93122 0.0
H1374 H 0.15209 0.30125 0.91548 0.0
H1375 H 0.1426 0.34827 0.87801 0.0
H1376 H 0.22203 0.40661 0.92529 0.0
H1377 H 0.2583 0.41225 0.90486 0.0
H1378 H 0.25702 0.37846 0.93226 0.0
H1379 H 0.2807 0.3424 0.88919 0.0
H1380 H 0.2819 0.37569 0.86117 0.0
H1381 H 0.26166 0.34512 0.8527 0.0
H1382 H 0.14436 0.3954 0.83989 0.0
H1383 H 0.15718 0.43927 0.80365 0.0
H1384 H 0.24756 0.42826 0.84391 0.0
C1385 C 0.22117 0.32694 0.92026 0.0
C1386 C 0.19834 0.30766 0.92628 0.0
C1387 C 0.16982 0.31579 0.91118 0.0
C1388 C 0.16421 0.34247 0.88994 0.0
C1389 C 0.18736 0.36078 0.88414 0.0
C1390 C 0.21524 0.35345 0.89892 0.0
C1391 C 0.23691 0.37603 0.88721 0.0
C1392 C 0.24396 0.39444 0.914 0.0
C1393 C 0.26708 0.35879 0.87163 0.0
C1394 C 0.21699 0.39697 0.86325 0.0
C1395 C 0.18844 0.38788 0.86199 0.0
C1396 C 0.16653 0.40292 0.84085 0.0
C1397 C 0.17406 0.42782 0.82031 0.0
C1398 C 0.20329 0.43741 0.82099 0.0
C1399 C 0.22486 0.42181 0.84298 0.0
H1400 H 0.30721 0.2042 0.91486 0.0
H1401 H 0.3401 0.26436 0.97542 0.0
H1402 H 0.38891 0.26203 0.94259 0.0
H1403 H 0.38568 0.15691 0.89273 0.0
H1404 H 0.37502 0.15619 0.85286 0.0
H1405 H 0.34571 0.15694 0.88467 0.0
H1406 H 0.31339 0.20638 0.85671 0.0
H1407 H 0.34257 0.20591 0.82502 0.0
H1408 H 0.3312 0.24036 0.8461 0.0
H1409 H 0.42925 0.26055 0.89968 0.0
H1410 H 0.45887 0.26053 0.84872 0.0
H1411 H 0.40014 0.2018 0.81477 0.0
C1412 C 0.32521 0.2159 0.92181 0.0
C1413 C 0.32017 0.2342 0.94776 0.0
C1414 C 0.34368 0.25012 0.95564 0.0
C1415 C 0.37152 0.24876 0.93727 0.0
C1416 C 0.37541 0.23136 0.91119 0.0
C1417 C 0.353 0.21508 0.90346 0.0
C1418 C 0.36112 0.20171 0.87193 0.0
C1419 C 0.36725 0.1658 0.87579 0.0
C1420 C 0.33556 0.21436 0.84858 0.0
C1421 C 0.39082 0.21426 0.86251 0.0
C1422 C 0.39892 0.23076 0.88582 0.0
C1423 C 0.4236 0.24714 0.88151 0.0
C1424 C 0.44013 0.24715 0.85241 0.0
C1425 C 0.43181 0.23102 0.82795 0.0
C1426 C 0.40735 0.21374 0.83333 0.0
H1427 H 0.45708 0.51471 0.89576 0.0
H1428 H 0.40484 0.5482 0.97926 0.0
H1429 H 0.35549 0.55023 0.95328 0.0
H1430 H 0.40635 0.56057 0.83827 0.0
H1431 H 0.41062 0.52966 0.81235 0.0
H1432 H 0.4417 0.532 0.83714 0.0
H1433 H 0.44083 0.4752 0.86067 0.0
H1434 H 0.40963 0.47271 0.83608 0.0
H1435 H 0.40492 0.46499 0.87811 0.0
H1436 H 0.31222 0.54787 0.91876 0.0
H1437 H 0.27726 0.54163 0.87773 0.0
H1438 H 0.35739 0.50855 0.81665 0.0
C1439 C 0.43521 0.5229 0.90831 0.0
C1440 C 0.43452 0.53144 0.93939 0.0
C1441 C 0.40563 0.54159 0.9554 0.0
C1442 C 0.37759 0.54278 0.94085 0.0
C1443 C 0.37897 0.5337 0.91034 0.0
C1444 C 0.40699 0.52397 0.89421 0.0
C1445 C 0.4019 0.51464 0.86196 0.0
C1446 C 0.41598 0.53547 0.83589 0.0
C1447 C 0.4151 0.47982 0.85905 0.0
C1448 C 0.36661 0.52093 0.86236 0.0
C1449 C 0.35391 0.53189 0.89054 0.0
C1450 C 0.32186 0.53937 0.89658 0.0
C1451 C 0.30221 0.53574 0.87315 0.0
C1452 C 0.31466 0.52467 0.84407 0.0
C1453 C 0.34728 0.51708 0.83869 0.0
H1454 H 0.71462 0.60011 0.01915 0.0
H1455 H 0.72793 0.62657 0.91958 0.0
H1456 H 0.69261 0.59152 0.90775 0.0
H1457 H 0.70154 0.51609 0.01084 0.0
H1458 H 0.67244 0.51927 0.04286 0.0
H1459 H 0.70538 0.53892 0.04288 0.0
H1460 H 0.66761 0.59117 0.0492 0.0
H1461 H 0.63463 0.57205 0.04843 0.0
H1462 H 0.6387 0.60492 0.02055 0.0
H1463 H 0.64683 0.5659 0.90764 0.0
H1464 H 0.5973 0.5464 0.9188 0.0
H1465 H 0.61358 0.53523 0.01842 0.0
C1466 C 0.71124 0.59729 0.9948 0.0
C1467 C 0.72393 0.61582 0.97022 0.0
C1468 C 0.71855 0.61229 0.93867 0.0
C1469 C 0.69854 0.59243 0.93176 0.0
C1470 C 0.68461 0.57603 0.95668 0.0
C1471 C 0.69126 0.57762 0.98759 0.0
C1472 C 0.66996 0.56131 0.01022 0.0
C1473 C 0.68843 0.53216 0.02773 0.0
C1474 C 0.65165 0.58372 0.03343 0.0
C1475 C 0.64882 0.5524 0.98734 0.0
C1476 C 0.65803 0.56059 0.95655 0.0
C1477 C 0.63995 0.55842 0.93152 0.0
C1478 C 0.61174 0.54765 0.93809 0.0
C1479 C 0.60197 0.5392 0.96941 0.0
C1480 C 0.62098 0.54102 0.99424 0.0
H1481 H 0.86655 0.79365 0.76053 0.0
H1482 H 0.93792 0.84669 0.72384 0.0
H1483 H 0.90067 0.89595 0.73006 0.0
H1484 H 0.80837 0.83605 0.71943 0.0
H1485 H 0.77758 0.83412 0.74941 0.0
H1486 H 0.81127 0.80373 0.74928 0.0
H1487 H 0.82145 0.81285 0.80642 0.0
H1488 H 0.78742 0.84314 0.80687 0.0
H1489 H 0.82463 0.8515 0.81586 0.0
H1490 H 0.85377 0.93843 0.73297 0.0
H1491 H 0.80096 0.97063 0.73167 0.0
H1492 H 0.76052 0.88878 0.76376 0.0
C1493 C 0.87458 0.81567 0.75464 0.0
C1494 C 0.9049 0.81664 0.74179 0.0
C1495 C 0.91468 0.84569 0.73394 0.0
C1496 C 0.89376 0.87368 0.7375 0.0
C1497 C 0.86346 0.87191 0.7491 0.0
C1498 C 0.85401 0.84359 0.7578 0.0
C1499 C 0.81941 0.84758 0.76578 0.0
C1500 C 0.80323 0.8293 0.7447 0.0
C1501 C 0.81286 0.83821 0.80082 0.0
C1502 C 0.8105 0.88238 0.7584 0.0
C1503 C 0.83627 0.89619 0.74971 0.0
C1504 C 0.8335 0.92796 0.7402 0.0
C1505 C 0.80355 0.94597 0.73939 0.0
C1506 C 0.77707 0.93189 0.74747 0.0
C1507 C 0.78058 0.89989 0.75735 0.0
H1508 H 0.48247 0.13213 0.67193 0.0
H1509 H 0.38634 0.17849 0.66625 0.0
H1510 H 0.38078 0.14918 0.62065 0.0
H1511 H 0.50052 0.13927 0.59297 0.0
H1512 H 0.52643 0.10221 0.59151 0.0
H1513 H 0.52106 0.12168 0.62717 0.0
H1514 H 0.50474 0.07271 0.65794 0.0
H1515 H 0.51025 0.05273 0.62252 0.0
H1516 H 0.47341 0.05627 0.64458 0.0
H1517 H 0.38747 0.11658 0.57319 0.0
H1518 H 0.40638 0.08494 0.52802 0.0
H1519 H 0.49936 0.06715 0.56273 0.0
C1520 C 0.45993 0.13526 0.6618 0.0
C1521 C 0.43466 0.15701 0.6727 0.0
C1522 C 0.4058 0.16144 0.65831 0.0
C1523 C 0.40248 0.145 0.63243 0.0
C1524 C 0.42839 0.12466 0.62127 0.0
C1525 C 0.45654 0.11977 0.63562 0.0
C1526 C 0.48182 0.09951 0.61741 0.0
C1527 C 0.50903 0.11672 0.60663 0.0
C1528 C 0.49321 0.06847 0.63676 0.0
C1529 C 0.46382 0.09458 0.59001 0.0
C1530 C 0.43286 0.10843 0.59289 0.0
C1531 C 0.41173 0.10582 0.57059 0.0
C1532 C 0.42261 0.08815 0.54498 0.0
C1533 C 0.45441 0.07452 0.5416 0.0
C1534 C 0.47512 0.0781 0.56425 0.0
H1535 H 0.50197 0.3109 0.84609 0.0
H1536 H 0.53376 0.36742 0.76585 0.0
H1537 H 0.53921 0.40815 0.80093 0.0
H1538 H 0.45409 0.37416 0.88054 0.0
H1539 H 0.46096 0.35836 0.92043 0.0
H1540 H 0.46335 0.33245 0.88971 0.0
H1541 H 0.51947 0.3072 0.90441 0.0
H1542 H 0.51727 0.33305 0.93522 0.0
H1543 H 0.54851 0.33162 0.90536 0.0
H1544 H 0.54101 0.44215 0.84515 0.0
H1545 H 0.53291 0.47011 0.89359 0.0
H1546 H 0.49423 0.39324 0.94297 0.0
C1547 C 0.51068 0.33161 0.83606 0.0
C1548 C 0.51816 0.33603 0.80361 0.0
C1549 C 0.52836 0.36373 0.79086 0.0
C1550 C 0.53157 0.3868 0.81056 0.0
C1551 C 0.52379 0.3818 0.8426 0.0
C1552 C 0.51308 0.35509 0.85513 0.0
C1553 C 0.50327 0.35658 0.88958 0.0
C1554 C 0.46835 0.35533 0.89538 0.0
C1555 C 0.52334 0.33057 0.90983 0.0
C1556 C 0.51015 0.38836 0.89461 0.0
C1557 C 0.52258 0.40227 0.86743 0.0
C1558 C 0.53124 0.43154 0.86652 0.0
C1559 C 0.52671 0.44711 0.89407 0.0
C1560 C 0.51302 0.43361 0.92169 0.0
C1561 C 0.50468 0.40393 0.92199 0.0
H1562 H 0.52353 0.79531 0.36888 0.0
H1563 H 0.57239 0.83954 0.29068 0.0
H1564 H 0.58089 0.87997 0.32472 0.0
H1565 H 0.48113 0.86434 0.39266 0.0
H1566 H 0.48043 0.85215 0.43412 0.0
H1567 H 0.48404 0.82351 0.40594 0.0
H1568 H 0.53481 0.7939 0.43053 0.0
H1569 H 0.53136 0.82253 0.45888 0.0
H1570 H 0.5665 0.81445 0.43425 0.0
H1571 H 0.58063 0.91698 0.36606 0.0
H1572 H 0.56536 0.95242 0.40803 0.0
H1573 H 0.51153 0.88655 0.45718 0.0
C1574 C 0.53688 0.81298 0.35926 0.0
C1575 C 0.54806 0.81416 0.32758 0.0
C1576 C 0.56416 0.83824 0.31515 0.0
C1577 C 0.56919 0.86105 0.33433 0.0
C1578 C 0.55744 0.8595 0.36552 0.0
C1579 C 0.5412 0.83631 0.37772 0.0
C1580 C 0.52672 0.84244 0.41017 0.0
C1581 C 0.49097 0.84583 0.41072 0.0
C1582 C 0.54069 0.8168 0.43492 0.0
C1583 C 0.53671 0.87317 0.41411 0.0
C1584 C 0.55522 0.88208 0.38854 0.0
C1585 C 0.56638 0.91013 0.38629 0.0
C1586 C 0.55765 0.93004 0.41036 0.0
C1587 C 0.53731 0.9221 0.43589 0.0
C1588 C 0.52725 0.89304 0.43804 0.0
H1589 H 0.47828 0.59202 0.05019 0.0
H1590 H 0.45047 0.51095 0.1032 0.0
H1591 H 0.43867 0.54052 0.15037 0.0
H1592 H 0.51437 0.61926 0.11116 0.0
H1593 H 0.50041 0.66005 0.10028 0.0
H1594 H 0.50614 0.63242 0.07087 0.0
H1595 H 0.44873 0.65041 0.05588 0.0
H1596 H 0.44278 0.67793 0.08549 0.0
H1597 H 0.41779 0.64923 0.08582 0.0
H1598 H 0.43501 0.57735 0.19274 0.0
H1599 H 0.4367 0.62026 0.2264 0.0
H1600 H 0.46114 0.6785 0.14401 0.0
C1601 C 0.46962 0.58067 0.07176 0.0
C1602 C 0.46526 0.54942 0.0734 0.0
C1603 C 0.45371 0.53509 0.10173 0.0
C1604 C 0.44698 0.55163 0.12854 0.0
C1605 C 0.45129 0.58259 0.12622 0.0
C1606 C 0.46197 0.5971 0.09847 0.0
C1607 C 0.46454 0.63057 0.10221 0.0
C1608 C 0.49837 0.63587 0.09576 0.0
C1609 C 0.44211 0.65338 0.0811 0.0
C1610 C 0.45439 0.63235 0.13656 0.0
C1611 C 0.44702 0.60442 0.15011 0.0
C1612 C 0.43996 0.59961 0.18231 0.0
C1613 C 0.44092 0.62397 0.2012 0.0
C1614 C 0.44828 0.65266 0.18753 0.0
C1615 C 0.45445 0.65706 0.15482 0.0
loop_
_geom_bond_atom_site_label_1
_geom_bond_atom_site_label_2
_geom_bond_distance
_geom_bond_site_symmetry_2
_ccdc_geom_bond_type
Dy0 O4 2.398 . S
Dy0 O5 2.486 1_554 S
Dy0 O6 2.403 1_655 S
Dy0 O7 2.664 1_655 S
Dy0 O11 2.326 1_654 S
Dy0 O15 2.310 1_564 S
Dy0 O16 2.351 1_565 S
C1 O12 1.185 . S
C1 O13 1.343 1_556 S
C2 O4 1.185 . S
C2 O5 1.349 1_554 S
Dy3 O7 2.310 1_546 S
Dy3 O10 2.351 1_545 S
Dy3 O12 2.398 . S
Dy3 O13 2.481 1_556 S
Dy3 O14 2.403 1_455 S
Dy3 O15 2.664 1_455 S
Dy3 O17 2.326 1_456 S
O4 Dy0 2.398 . S
O4 C2 1.185 . S
O5 Dy0 2.486 1_556 S
O5 C2 1.349 1_556 S
O6 Dy0 2.403 1_455 S
O6 C8 1.254 . S
O7 Dy0 2.664 1_455 S
O7 Dy3 2.310 1_564 S
O7 C8 1.268 . S
C8 O6 1.254 . S
C8 O7 1.268 . S
C9 O14 1.254 . S
C9 O15 1.268 . S
O10 Dy3 2.351 1_565 S
O10 C18 1.249 . S
O11 Dy0 2.326 1_456 S
O11 C18 1.267 . S
O12 C1 1.185 . S
O12 Dy3 2.398 . S
O13 C1 1.343 1_554 S
O13 Dy3 2.481 1_554 S
O14 Dy3 2.403 1_655 S
O14 C9 1.254 . S
O15 Dy0 2.310 1_546 S
O15 Dy3 2.664 1_655 S
O15 C9 1.268 . S
O16 Dy0 2.351 1_545 S
O16 C19 1.249 . S
O17 Dy3 2.326 1_654 S
O17 C19 1.267 . S
C18 O10 1.249 . S
C18 O11 1.267 . S
C19 O16 1.249 . S
C19 O17 1.267 . S
Dy20 O24 2.398 . S
Dy20 O25 2.491 1_455 S
Dy20 O26 2.403 . S
Dy20 O27 2.664 . S
Dy20 O31 2.326 1_455 S
Dy20 O35 2.310 1_455 S
Dy20 O36 2.351 . S
C21 O32 1.185 . S
C21 O33 1.355 1_655 S
C22 O24 1.185 . S
C22 O25 1.355 1_455 S
Dy23 O27 2.310 1_655 S
Dy23 O30 2.351 . S
Dy23 O32 2.398 . S
Dy23 O33 2.491 1_655 S
Dy23 O34 2.403 . S
Dy23 O35 2.664 . S
Dy23 O37 2.326 1_655 S
O24 Dy20 2.398 . S
O24 C22 1.185 . S
O25 Dy20 2.491 1_655 S
O25 C22 1.355 1_655 S
O26 Dy20 2.403 . S
O26 C28 1.254 . S
O27 Dy20 2.664 . S
O27 Dy23 2.310 1_455 S
O27 C28 1.268 . S
C28 O26 1.254 . S
C28 O27 1.268 . S
C29 O34 1.254 . S
C29 O35 1.268 . S
O30 Dy23 2.351 . S
O30 C38 1.249 . S
O31 Dy20 2.326 1_655 S
O31 C38 1.267 . S
O32 C21 1.185 . S
O32 Dy23 2.398 . S
O33 C21 1.355 1_455 S
O33 Dy23 2.491 1_455 S
O34 Dy23 2.403 . S
O34 C29 1.254 . S
O35 Dy20 2.310 1_655 S
O35 Dy23 2.664 . S
O35 C29 1.268 . S
O36 Dy20 2.351 . S
O36 C39 1.249 . S
O37 Dy23 2.326 1_455 S
O37 C39 1.267 . S
C38 O30 1.249 . S
C38 O31 1.267 . S
C39 O36 1.249 . S
C39 O37 1.267 . S
Dy40 O44 2.398 . S
Dy40 O45 2.491 . S
Dy40 O46 2.403 . S
Dy40 O47 2.664 . S
Dy40 O51 2.326 . S
Dy40 O55 2.310 . S
Dy40 O56 2.351 . S
C41 O52 1.185 . S
C41 O53 1.355 . S
C42 O44 1.185 . S
C42 O45 1.355 . S
Dy43 O47 2.310 . S
Dy43 O50 2.351 . S
Dy43 O52 2.398 . S
Dy43 O53 2.491 . S
Dy43 O54 2.403 . S
Dy43 O55 2.664 . S
Dy43 O57 2.326 . S
O44 Dy40 2.398 . S
O44 C42 1.185 . S
O45 Dy40 2.491 . S
O45 C42 1.355 . S
O46 Dy40 2.403 . S
O46 C48 1.254 . S
O47 Dy40 2.664 . S
O47 Dy43 2.310 . S
O47 C48 1.268 . S
C48 O46 1.254 . S
C48 O47 1.268 . S
C49 O54 1.254 . S
C49 O55 1.268 . S
O50 Dy43 2.351 . S
O50 C58 1.249 . S
O51 Dy40 2.326 . S
O51 C58 1.267 . S
O52 C41 1.185 . S
O52 Dy43 2.398 . S
O53 C41 1.355 . S
O53 Dy43 2.491 . S
O54 Dy43 2.403 . S
O54 C49 1.254 . S
O55 Dy40 2.310 . S
O55 Dy43 2.664 . S
O55 C49 1.268 . S
O56 Dy40 2.351 . S
O56 C59 1.249 . S
O57 Dy43 2.326 . S
O57 C59 1.267 . S
C58 O50 1.249 . S
C58 O51 1.267 . S
C59 O56 1.249 . S
C59 O57 1.267 . S
Dy60 O64 2.398 . S
Dy60 O65 2.491 1_565 S
Dy60 O66 2.403 . S
Dy60 O67 2.664 . S
Dy60 O71 2.326 1_565 S
Dy60 O75 2.310 1_565 S
Dy60 O76 2.351 . S
C61 O72 1.185 . S
C61 O73 1.355 1_545 S
C62 O64 1.185 . S
C62 O65 1.355 1_565 S
Dy63 O67 2.310 1_545 S
Dy63 O70 2.351 . S
Dy63 O72 2.398 . S
Dy63 O73 2.491 1_545 S
Dy63 O74 2.403 . S
Dy63 O75 2.664 . S
Dy63 O77 2.326 1_545 S
O64 Dy60 2.398 . S
O64 C62 1.185 . S
O65 Dy60 2.491 1_545 S
O65 C62 1.355 1_545 S
O66 Dy60 2.403 . S
O66 C68 1.254 . S
O67 Dy60 2.664 . S
O67 Dy63 2.310 1_565 S
O67 C68 1.268 . S
C68 O66 1.254 . S
C68 O67 1.268 . S
C69 O74 1.254 . S
C69 O75 1.268 . S
O70 Dy63 2.351 . S
O70 C78 1.249 . S
O71 Dy60 2.326 1_545 S
O71 C78 1.267 . S
O72 C61 1.185 . S
O72 Dy63 2.398 . S
O73 C61 1.355 1_565 S
O73 Dy63 2.491 1_565 S
O74 Dy63 2.403 . S
O74 C69 1.254 . S
O75 Dy60 2.310 1_545 S
O75 Dy63 2.664 . S
O75 C69 1.268 . S
O76 Dy60 2.351 . S
O76 C79 1.249 . S
O77 Dy63 2.326 1_565 S
O77 C79 1.267 . S
C78 O70 1.249 . S
C78 O71 1.267 . S
C79 O76 1.249 . S
C79 O77 1.267 . S
Dy80 O84 2.398 . S
Dy80 O85 2.491 . S
Dy80 O86 2.403 . S
Dy80 O87 2.664 . S
Dy80 O91 2.326 . S
Dy80 O95 2.310 . S
Dy80 O96 2.351 . S
C81 O92 1.185 . S
C81 O93 1.355 . S
C82 O84 1.185 . S
C82 O85 1.355 . S
Dy83 O87 2.310 . S
Dy83 O90 2.351 . S
Dy83 O92 2.398 . S
Dy83 O93 2.491 . S
Dy83 O94 2.403 . S
Dy83 O95 2.664 . S
Dy83 O97 2.326 . S
O84 Dy80 2.398 . S
O84 C82 1.185 . S
O85 Dy80 2.491 . S
O85 C82 1.355 . S
O86 Dy80 2.403 . S
O86 C88 1.254 . S
O87 Dy80 2.664 . S
O87 Dy83 2.310 . S
O87 C88 1.268 . S
C88 O86 1.254 . S
C88 O87 1.268 . S
C89 O94 1.254 . S
C89 O95 1.268 . S
O90 Dy83 2.351 . S
O90 C98 1.249 . S
O91 Dy80 2.326 . S
O91 C98 1.267 . S
O92 C81 1.185 . S
O92 Dy83 2.398 . S
O93 C81 1.355 . S
O93 Dy83 2.491 . S
O94 Dy83 2.403 . S
O94 C89 1.254 . S
O95 Dy80 2.310 . S
O95 Dy83 2.664 . S
O95 C89 1.268 . S
O96 Dy80 2.351 . S
O96 C99 1.249 . S
O97 Dy83 2.326 . S
O97 C99 1.267 . S
C98 O90 1.249 . S
C98 O91 1.267 . S
C99 O96 1.249 . S
C99 O97 1.267 . S
Dy100 O104 2.398 . S
Dy100 O105 2.491 . S
Dy100 O106 2.403 . S
Dy100 O107 2.664 . S
Dy100 O111 2.326 . S
Dy100 O115 2.310 . S
Dy100 O116 2.351 . S
C101 O112 1.185 . S
C101 O113 1.355 . S
C102 O104 1.185 . S
C102 O105 1.355 . S
Dy103 O107 2.310 . S
Dy103 O110 2.351 . S
Dy103 O112 2.398 . S
Dy103 O113 2.491 . S
Dy103 O114 2.403 . S
Dy103 O115 2.664 . S
Dy103 O117 2.326 . S
O104 Dy100 2.398 . S
O104 C102 1.185 . S
O105 Dy100 2.491 . S
O105 C102 1.355 . S
O106 Dy100 2.403 . S
O106 C108 1.254 . S
O107 Dy100 2.664 . S
O107 Dy103 2.310 . S
O107 C108 1.268 . S
C108 O106 1.254 . S
C108 O107 1.268 . S
C109 O114 1.254 . S
C109 O115 1.268 . S
O110 Dy103 2.351 . S
O110 C118 1.249 . S
O111 Dy100 2.326 . S
O111 C118 1.267 . S
O112 C101 1.185 . S
O112 Dy103 2.398 . S
O113 C101 1.355 . S
O113 Dy103 2.491 . S
O114 Dy103 2.403 . S
O114 C109 1.254 . S
O115 Dy100 2.310 . S
O115 Dy103 2.664 . S
O115 C109 1.268 . S
O116 Dy100 2.351 . S
O116 C119 1.249 . S
O117 Dy103 2.326 . S
O117 C119 1.267 . S
C118 O110 1.249 . S
C118 O111 1.267 . S
C119 O116 1.249 . S
C119 O117 1.267 . S
Dy120 O124 2.398 . S
Dy120 O125 2.491 . S
Dy120 O126 2.403 . S
Dy120 O127 2.664 . S
Dy120 O131 2.326 . S
Dy120 O135 2.310 . S
Dy120 O136 2.351 . S
C121 O132 1.185 . S
C121 O133 1.355 . S
C122 O124 1.185 . S
C122 O125 1.355 . S
Dy123 O127 2.310 . S
Dy123 O130 2.351 . S
Dy123 O132 2.398 . S
Dy123 O133 2.491 . S
Dy123 O134 2.403 . S
Dy123 O135 2.664 . S
Dy123 O137 2.326 . S
O124 Dy120 2.398 . S
O124 C122 1.185 . S
O125 Dy120 2.491 . S
O125 C122 1.355 . S
O126 Dy120 2.403 . S
O126 C128 1.254 . S
O127 Dy120 2.664 . S
O127 Dy123 2.310 . S
O127 C128 1.268 . S
C128 O126 1.254 . S
C128 O127 1.268 . S
C129 O134 1.254 . S
C129 O135 1.268 . S
O130 Dy123 2.351 . S
O130 C138 1.249 . S
O131 Dy120 2.326 . S
O131 C138 1.267 . S
O132 C121 1.185 . S
O132 Dy123 2.398 . S
O133 C121 1.355 . S
O133 Dy123 2.491 . S
O134 Dy123 2.403 . S
O134 C129 1.254 . S
O135 Dy120 2.310 . S
O135 Dy123 2.664 . S
O135 C129 1.268 . S
O136 Dy120 2.351 . S
O136 C139 1.249 . S
O137 Dy123 2.326 . S
O137 C139 1.267 . S
C138 O130 1.249 . S
C138 O131 1.267 . S
C139 O136 1.249 . S
C139 O137 1.267 . S
Dy140 O144 2.398 . S
Dy140 O145 2.491 . S
Dy140 O146 2.403 1_655 S
Dy140 O147 2.664 1_655 S
Dy140 O151 2.326 1_655 S
Dy140 O155 2.310 . S
Dy140 O156 2.351 . S
C141 O152 1.185 . S
C141 O153 1.355 . S
C142 O144 1.185 . S
C142 O145 1.355 . S
Dy143 O147 2.310 . S
Dy143 O150 2.351 . S
Dy143 O152 2.398 . S
Dy143 O153 2.491 . S
Dy143 O154 2.403 1_455 S
Dy143 O155 2.664 1_455 S
Dy143 O157 2.326 1_455 S
O144 Dy140 2.398 . S
O144 C142 1.185 . S
O145 Dy140 2.491 . S
O145 C142 1.355 . S
O146 Dy140 2.403 1_455 S
O146 C148 1.254 . S
O147 Dy140 2.664 1_455 S
O147 Dy143 2.310 . S
O147 C148 1.268 . S
C148 O146 1.254 . S
C148 O147 1.268 . S
C149 O154 1.254 . S
C149 O155 1.268 . S
O150 Dy143 2.351 . S
O150 C158 1.249 . S
O151 Dy140 2.326 1_455 S
O151 C158 1.267 . S
O152 C141 1.185 . S
O152 Dy143 2.398 . S
O153 C141 1.355 . S
O153 Dy143 2.491 . S
O154 Dy143 2.403 1_655 S
O154 C149 1.254 . S
O155 Dy140 2.310 . S
O155 Dy143 2.664 1_655 S
O155 C149 1.268 . S
O156 Dy140 2.351 . S
O156 C159 1.249 . S
O157 Dy143 2.326 1_655 S
O157 C159 1.267 . S
C158 O150 1.249 . S
C158 O151 1.267 . S
C159 O156 1.249 . S
C159 O157 1.267 . S
Dy160 O164 2.398 . S
Dy160 O165 2.491 1_556 S
Dy160 O166 2.403 . S
Dy160 O167 2.664 . S
Dy160 O171 2.326 1_556 S
Dy160 O175 2.310 1_556 S
Dy160 O176 2.351 . S
C161 O172 1.185 . S
C161 O173 1.355 1_554 S
C162 O164 1.185 . S
C162 O165 1.355 1_556 S
Dy163 O167 2.310 1_554 S
Dy163 O170 2.351 . S
Dy163 O172 2.398 . S
Dy163 O173 2.491 1_554 S
Dy163 O174 2.403 . S
Dy163 O175 2.664 . S
Dy163 O177 2.326 1_554 S
O164 Dy160 2.398 . S
O164 C162 1.185 . S
O165 Dy160 2.491 1_554 S
O165 C162 1.355 1_554 S
O166 Dy160 2.403 . S
O166 C168 1.254 . S
O167 Dy160 2.664 . S
O167 Dy163 2.310 1_556 S
O167 C168 1.268 . S
C168 O166 1.254 . S
C168 O167 1.268 . S
C169 O174 1.254 . S
C169 O175 1.268 . S
O170 Dy163 2.351 . S
O170 C178 1.249 . S
O171 Dy160 2.326 1_554 S
O171 C178 1.267 . S
O172 C161 1.185 . S
O172 Dy163 2.398 . S
O173 C161 1.355 1_556 S
O173 Dy163 2.491 1_556 S
O174 Dy163 2.403 . S
O174 C169 1.254 . S
O175 Dy160 2.310 1_554 S
O175 Dy163 2.664 . S
O175 C169 1.268 . S
O176 Dy160 2.351 . S
O176 C179 1.249 . S
O177 Dy163 2.326 1_556 S
O177 C179 1.267 . S
C178 O170 1.249 . S
C178 O171 1.267 . S
C179 O176 1.249 . S
C179 O177 1.267 . S
Dy180 O184 2.398 . S
Dy180 O185 2.491 1_565 S
Dy180 O186 2.403 . S
Dy180 O187 2.664 . S
Dy180 O191 2.326 1_565 S
Dy180 O195 2.310 1_565 S
Dy180 O196 2.351 . S
C181 O192 1.185 . S
C181 O193 1.355 1_545 S
C182 O184 1.185 . S
C182 O185 1.355 1_565 S
Dy183 O187 2.310 1_545 S
Dy183 O190 2.351 . S
Dy183 O192 2.398 . S
Dy183 O193 2.491 1_545 S
Dy183 O194 2.403 . S
Dy183 O195 2.664 . S
Dy183 O197 2.326 1_545 S
O184 Dy180 2.398 . S
O184 C182 1.185 . S
O185 Dy180 2.491 1_545 S
O185 C182 1.355 1_545 S
O186 Dy180 2.403 . S
O186 C188 1.254 . S
O187 Dy180 2.664 . S
O187 Dy183 2.310 1_565 S
O187 C188 1.268 . S
C188 O186 1.254 . S
C188 O187 1.268 . S
C189 O194 1.254 . S
C189 O195 1.268 . S
O190 Dy183 2.351 . S
O190 C198 1.249 . S
O191 Dy180 2.326 1_545 S
O191 C198 1.267 . S
O192 C181 1.185 . S
O192 Dy183 2.398 . S
O193 C181 1.355 1_565 S
O193 Dy183 2.491 1_565 S
O194 Dy183 2.403 . S
O194 C189 1.254 . S
O195 Dy180 2.310 1_545 S
O195 Dy183 2.664 . S
O195 C189 1.268 . S
O196 Dy180 2.351 . S
O196 C199 1.249 . S
O197 Dy183 2.326 1_565 S
O197 C199 1.267 . S
C198 O190 1.249 . S
C198 O191 1.267 . S
C199 O196 1.249 . S
C199 O197 1.267 . S
Dy200 O204 2.398 . S
Dy200 O205 2.491 . S
Dy200 O206 2.403 . S
Dy200 O207 2.664 . S
Dy200 O211 2.326 . S
Dy200 O215 2.310 . S
Dy200 O216 2.351 . S
C201 O212 1.185 . S
C201 O213 1.355 . S
C202 O204 1.185 . S
C202 O205 1.355 . S
Dy203 O207 2.310 . S
Dy203 O210 2.351 . S
Dy203 O212 2.398 . S
Dy203 O213 2.491 . S
Dy203 O214 2.403 . S
Dy203 O215 2.664 . S
Dy203 O217 2.326 . S
O204 Dy200 2.398 . S
O204 C202 1.185 . S
O205 Dy200 2.491 . S
O205 C202 1.355 . S
O206 Dy200 2.403 . S
O206 C208 1.254 . S
O207 Dy200 2.664 . S
O207 Dy203 2.310 . S
O207 C208 1.268 . S
C208 O206 1.254 . S
C208 O207 1.268 . S
C209 O214 1.254 . S
C209 O215 1.268 . S
O210 Dy203 2.351 . S
O210 C218 1.249 . S
O211 Dy200 2.326 . S
O211 C218 1.267 . S
O212 C201 1.185 . S
O212 Dy203 2.398 . S
O213 C201 1.355 . S
O213 Dy203 2.491 . S
O214 Dy203 2.403 . S
O214 C209 1.254 . S
O215 Dy200 2.310 . S
O215 Dy203 2.664 . S
O215 C209 1.268 . S
O216 Dy200 2.351 . S
O216 C219 1.249 . S
O217 Dy203 2.326 . S
O217 C219 1.267 . S
C218 O210 1.249 . S
C218 O211 1.267 . S
C219 O216 1.249 . S
C219 O217 1.267 . S
Dy220 O224 2.398 . S
Dy220 O225 2.491 1_455 S
Dy220 O226 2.403 . S
Dy220 O227 2.664 . S
Dy220 O231 2.326 1_455 S
Dy220 O235 2.310 1_455 S
Dy220 O236 2.351 . S
C221 O232 1.185 . S
C221 O233 1.355 1_655 S
C222 O224 1.185 . S
C222 O225 1.355 1_455 S
Dy223 O227 2.310 1_655 S
Dy223 O230 2.351 . S
Dy223 O232 2.398 . S
Dy223 O233 2.491 1_655 S
Dy223 O234 2.403 . S
Dy223 O235 2.664 . S
Dy223 O237 2.326 1_655 S
O224 Dy220 2.398 . S
O224 C222 1.185 . S
O225 Dy220 2.491 1_655 S
O225 C222 1.355 1_655 S
O226 Dy220 2.403 . S
O226 C228 1.254 . S
O227 Dy220 2.664 . S
O227 Dy223 2.310 1_455 S
O227 C228 1.268 . S
C228 O226 1.254 . S
C228 O227 1.268 . S
C229 O234 1.254 . S
C229 O235 1.268 . S
O230 Dy223 2.351 . S
O230 C238 1.249 . S
O231 Dy220 2.326 1_655 S
O231 C238 1.267 . S
O232 C221 1.185 . S
O232 Dy223 2.398 . S
O233 C221 1.355 1_455 S
O233 Dy223 2.491 1_455 S
O234 Dy223 2.403 . S
O234 C229 1.254 . S
O235 Dy220 2.310 1_655 S
O235 Dy223 2.664 . S
O235 C229 1.268 . S
O236 Dy220 2.351 . S
O236 C239 1.249 . S
O237 Dy223 2.326 1_455 S
O237 C239 1.267 . S
C238 O230 1.249 . S
C238 O231 1.267 . S
C239 O236 1.249 . S
C239 O237 1.267 . S
Dy240 O244 2.398 . S
Dy240 O245 2.491 . S
Dy240 O246 2.403 . S
Dy240 O247 2.664 . S
Dy240 O251 2.326 . S
Dy240 O255 2.310 . S
Dy240 O256 2.351 . S
C241 O252 1.185 . S
C241 O253 1.355 . S
C242 O244 1.185 . S
C242 O245 1.355 . S
Dy243 O247 2.310 . S
Dy243 O250 2.351 . S
Dy243 O252 2.398 . S
Dy243 O253 2.491 . S
Dy243 O254 2.403 . S
Dy243 O255 2.664 . S
Dy243 O257 2.326 . S
O244 Dy240 2.398 . S
O244 C242 1.185 . S
O245 Dy240 2.491 . S
O245 C242 1.355 . S
O246 Dy240 2.403 . S
O246 C248 1.254 . S
O247 Dy240 2.664 . S
O247 Dy243 2.310 . S
O247 C248 1.268 . S
C248 O246 1.254 . S
C248 O247 1.268 . S
C249 O254 1.254 . S
C249 O255 1.268 . S
O250 Dy243 2.351 . S
O250 C258 1.249 . S
O251 Dy240 2.326 . S
O251 C258 1.267 . S
O252 C241 1.185 . S
O252 Dy243 2.398 . S
O253 C241 1.355 . S
O253 Dy243 2.491 . S
O254 Dy243 2.403 . S
O254 C249 1.254 . S
O255 Dy240 2.310 . S
O255 Dy243 2.664 . S
O255 C249 1.268 . S
O256 Dy240 2.351 . S
O256 C259 1.249 . S
O257 Dy243 2.326 . S
O257 C259 1.267 . S
C258 O250 1.249 . S
C258 O251 1.267 . S
C259 O256 1.249 . S
C259 O257 1.267 . S
Dy260 O264 2.398 . S
Dy260 O265 2.491 1_556 S
Dy260 O266 2.403 . S
Dy260 O267 2.664 . S
Dy260 O271 2.326 1_556 S
Dy260 O275 2.310 1_556 S
Dy260 O276 2.351 . S
C261 O272 1.185 . S
C261 O273 1.355 1_554 S
C262 O264 1.185 . S
C262 O265 1.355 1_556 S
Dy263 O267 2.310 1_554 S
Dy263 O270 2.351 . S
Dy263 O272 2.398 . S
Dy263 O273 2.491 1_554 S
Dy263 O274 2.403 . S
Dy263 O275 2.664 . S
Dy263 O277 2.326 1_554 S
O264 Dy260 2.398 . S
O264 C262 1.185 . S
O265 Dy260 2.491 1_554 S
O265 C262 1.355 1_554 S
O266 Dy260 2.403 . S
O266 C268 1.254 . S
O267 Dy260 2.664 . S
O267 Dy263 2.310 1_556 S
O267 C268 1.268 . S
C268 O266 1.254 . S
C268 O267 1.268 . S
C269 O274 1.254 . S
C269 O275 1.268 . S
O270 Dy263 2.351 . S
O270 C278 1.249 . S
O271 Dy260 2.326 1_554 S
O271 C278 1.267 . S
O272 C261 1.185 . S
O272 Dy263 2.398 . S
O273 C261 1.355 1_556 S
O273 Dy263 2.491 1_556 S
O274 Dy263 2.403 . S
O274 C269 1.254 . S
O275 Dy260 2.310 1_554 S
O275 Dy263 2.664 . S
O275 C269 1.268 . S
O276 Dy260 2.351 . S
O276 C279 1.249 . S
O277 Dy263 2.326 1_556 S
O277 C279 1.267 . S
C278 O270 1.249 . S
C278 O271 1.267 . S
C279 O276 1.249 . S
C279 O277 1.267 . S
Dy280 O284 2.398 . S
Dy280 O285 2.491 . S
Dy280 O286 2.403 . S
Dy280 O287 2.664 . S
Dy280 O291 2.326 . S
Dy280 O295 2.310 1_565 S
Dy280 O296 2.351 1_565 S
C281 O292 1.185 . S
C281 O293 1.355 . S
C282 O284 1.185 . S
C282 O285 1.355 . S
Dy283 O287 2.310 1_545 S
Dy283 O290 2.351 1_545 S
Dy283 O292 2.398 . S
Dy283 O293 2.491 . S
Dy283 O294 2.403 . S
Dy283 O295 2.664 . S
Dy283 O297 2.326 . S
O284 Dy280 2.398 . S
O284 C282 1.185 . S
O285 Dy280 2.491 . S
O285 C282 1.355 . S
O286 Dy280 2.403 . S
O286 C288 1.254 . S
O287 Dy280 2.664 . S
O287 Dy283 2.310 1_565 S
O287 C288 1.268 . S
C288 O286 1.254 . S
C288 O287 1.268 . S
C289 O294 1.254 . S
C289 O295 1.268 . S
O290 Dy283 2.351 1_565 S
O290 C298 1.249 . S
O291 Dy280 2.326 . S
O291 C298 1.267 . S
O292 C281 1.185 . S
O292 Dy283 2.398 . S
O293 C281 1.355 . S
O293 Dy283 2.491 . S
O294 Dy283 2.403 . S
O294 C289 1.254 . S
O295 Dy280 2.310 1_545 S
O295 Dy283 2.664 . S
O295 C289 1.268 . S
O296 Dy280 2.351 1_545 S
O296 C299 1.249 . S
O297 Dy283 2.326 . S
O297 C299 1.267 . S
C298 O290 1.249 . S
C298 O291 1.267 . S
C299 O296 1.249 . S
C299 O297 1.267 . S
Dy300 O304 2.398 . S
Dy300 O305 2.486 1_554 S
Dy300 O306 2.403 . S
Dy300 O307 2.664 . S
Dy300 O311 2.326 1_554 S
Dy300 O315 2.310 1_554 S
Dy300 O316 2.351 . S
C301 O312 1.185 . S
C301 O313 1.343 1_556 S
C302 O304 1.185 . S
C302 O305 1.349 1_554 S
Dy303 O307 2.310 1_556 S
Dy303 O310 2.351 . S
Dy303 O312 2.398 . S
Dy303 O313 2.481 1_556 S
Dy303 O314 2.403 . S
Dy303 O315 2.664 . S
Dy303 O317 2.326 1_556 S
O304 Dy300 2.398 . S
O304 C302 1.185 . S
O305 Dy300 2.486 1_556 S
O305 C302 1.349 1_556 S
O306 Dy300 2.403 . S
O306 C308 1.254 . S
O307 Dy300 2.664 . S
O307 Dy303 2.310 1_554 S
O307 C308 1.268 . S
C308 O306 1.254 . S
C308 O307 1.268 . S
C309 O314 1.254 . S
C309 O315 1.268 . S
O310 Dy303 2.351 . S
O310 C318 1.249 . S
O311 Dy300 2.326 1_556 S
O311 C318 1.267 . S
O312 C301 1.185 . S
O312 Dy303 2.398 . S
O313 C301 1.343 1_554 S
O313 Dy303 2.481 1_554 S
O314 Dy303 2.403 . S
O314 C309 1.254 . S
O315 Dy300 2.310 1_556 S
O315 Dy303 2.664 . S
O315 C309 1.268 . S
O316 Dy300 2.351 . S
O316 C319 1.249 . S
O317 Dy303 2.326 1_554 S
O317 C319 1.267 . S
C318 O310 1.249 . S
C318 O311 1.267 . S
C319 O316 1.249 . S
C319 O317 1.267 . S
H320 C332 0.930 . S
H321 C334 0.930 . S
H322 C335 0.930 1_455 S
H323 C339 0.959 . S
H324 C339 0.959 . S
H325 C339 0.961 . S
H326 C340 0.960 . S
H327 C340 0.961 . S
H328 C340 0.959 . S
H329 C343 0.929 1_455 S
H330 C344 0.927 1_455 S
H331 C346 0.930 . S
C332 H320 0.930 . S
C332 C333 1.399 . S
C332 C337 1.399 . S
C333 C332 1.399 . S
C333 C334 1.376 . S
C334 H321 0.930 . S
C334 C333 1.376 . S
C334 C335 1.388 . S
C335 H322 0.930 1_655 S
C335 C334 1.388 . S
C335 C336 1.390 . S
C336 C335 1.390 . S
C336 C337 1.394 . S
C336 C342 1.465 . S
C337 C332 1.399 . S
C337 C336 1.394 . S
C337 C338 1.516 . S
C338 C337 1.516 . S
C338 C339 1.502 . S
C338 C340 1.561 1_655 S
C338 C341 1.526 . S
C339 H323 0.959 . S
C339 H324 0.959 . S
C339 H325 0.961 . S
C339 C338 1.502 . S
C340 H326 0.960 . S
C340 H327 0.961 . S
C340 H328 0.959 . S
C340 C338 1.561 1_455 S
C341 C338 1.526 . S
C341 C342 1.396 . S
C341 C346 1.390 . S
C342 C336 1.465 . S
C342 C341 1.396 . S
C342 C343 1.399 . S
C343 H329 0.929 1_655 S
C343 C342 1.399 . S
C343 C344 1.385 . S
C344 H330 0.927 1_655 S
C344 C343 1.385 . S
C344 C345 1.389 . S
C345 C344 1.389 . S
C345 C346 1.387 . S
C346 H331 0.930 . S
C346 C341 1.390 . S
C346 C345 1.387 . S
H347 C359 0.930 . S
H348 C361 0.930 . S
H349 C362 0.930 . S
H350 C366 0.959 . S
H351 C366 0.959 . S
H352 C366 0.961 . S
H353 C367 0.960 . S
H354 C367 0.961 . S
H355 C367 0.959 . S
H356 C370 0.929 . S
H357 C371 0.931 . S
H358 C373 0.930 . S
C359 H347 0.930 . S
C359 C360 1.399 . S
C359 C364 1.399 . S
C360 C359 1.399 . S
C360 C361 1.376 . S
C361 H348 0.930 . S
C361 C360 1.376 . S
C361 C362 1.388 . S
C362 H349 0.930 . S
C362 C361 1.388 . S
C362 C363 1.390 . S
C363 C362 1.390 . S
C363 C364 1.394 . S
C363 C369 1.465 . S
C364 C359 1.399 . S
C364 C363 1.394 . S
C364 C365 1.516 . S
C365 C364 1.516 . S
C365 C366 1.502 . S
C365 C367 1.561 . S
C365 C368 1.526 . S
C366 H350 0.959 . S
C366 H351 0.959 . S
C366 H352 0.961 . S
C366 C365 1.502 . S
C367 H353 0.960 . S
C367 H354 0.961 . S
C367 H355 0.959 . S
C367 C365 1.561 . S
C368 C365 1.526 . S
C368 C369 1.396 . S
C368 C373 1.390 . S
C369 C363 1.465 . S
C369 C368 1.396 . S
C369 C370 1.399 . S
C370 H356 0.929 . S
C370 C369 1.399 . S
C370 C371 1.385 . S
C371 H357 0.931 . S
C371 C370 1.385 . S
C371 C372 1.389 . S
C372 C371 1.389 . S
C372 C373 1.387 . S
C373 H358 0.930 . S
C373 C368 1.390 . S
C373 C372 1.387 . S
H374 C386 0.930 . S
H375 C388 0.930 . S
H376 C389 0.930 . S
H377 C393 0.959 . S
H378 C393 0.959 . S
H379 C393 0.961 . S
H380 C394 0.960 . S
H381 C394 0.961 . S
H382 C394 0.959 . S
H383 C397 0.929 . S
H384 C398 0.931 . S
H385 C400 0.930 . S
C386 H374 0.930 . S
C386 C387 1.399 . S
C386 C391 1.399 . S
C387 C386 1.399 . S
C387 C388 1.376 . S
C388 H375 0.930 . S
C388 C387 1.376 . S
C388 C389 1.388 . S
C389 H376 0.930 . S
C389 C388 1.388 . S
C389 C390 1.390 . S
C390 C389 1.390 . S
C390 C391 1.394 . S
C390 C396 1.465 . S
C391 C386 1.399 . S
C391 C390 1.394 . S
C391 C392 1.516 . S
C392 C391 1.516 . S
C392 C393 1.502 . S
C392 C394 1.561 . S
C392 C395 1.526 . S
C393 H377 0.959 . S
C393 H378 0.959 . S
C393 H379 0.961 . S
C393 C392 1.502 . S
C394 H380 0.960 . S
C394 H381 0.961 . S
C394 H382 0.959 . S
C394 C392 1.561 . S
C395 C392 1.526 . S
C395 C396 1.396 . S
C395 C400 1.390 . S
C396 C390 1.465 . S
C396 C395 1.396 . S
C396 C397 1.399 . S
C397 H383 0.929 . S
C397 C396 1.399 . S
C397 C398 1.385 . S
C398 H384 0.931 . S
C398 C397 1.385 . S
C398 C399 1.389 . S
C399 C398 1.389 . S
C399 C400 1.387 . S
C400 H385 0.930 . S
C400 C395 1.390 . S
C400 C399 1.387 . S
H401 C413 0.930 . S
H402 C415 0.930 . S
H403 C416 0.930 . S
H404 C420 0.959 1_565 S
H405 C420 0.959 . S
H406 C420 0.961 . S
H407 C421 0.960 . S
H408 C421 0.961 . S
H409 C421 0.959 . S
H410 C424 0.933 . S
H411 C425 0.931 1_565 S
H412 C427 0.930 . S
C413 H401 0.930 . S
C413 C414 1.399 . S
C413 C418 1.399 . S
C414 C413 1.399 . S
C414 C415 1.376 . S
C415 H402 0.930 . S
C415 C414 1.376 . S
C415 C416 1.388 . S
C416 H403 0.930 . S
C416 C415 1.388 . S
C416 C417 1.390 . S
C417 C416 1.390 . S
C417 C418 1.394 . S
C417 C423 1.465 . S
C418 C413 1.399 . S
C418 C417 1.394 . S
C418 C419 1.516 . S
C419 C418 1.516 . S
C419 C420 1.502 . S
C419 C421 1.561 . S
C419 C422 1.526 . S
C420 H404 0.959 1_545 S
C420 H405 0.959 . S
C420 H406 0.961 . S
C420 C419 1.502 . S
C421 H407 0.960 . S
C421 H408 0.961 . S
C421 H409 0.959 . S
C421 C419 1.561 . S
C422 C419 1.526 . S
C422 C423 1.396 . S
C422 C427 1.390 . S
C423 C417 1.465 . S
C423 C422 1.396 . S
C423 C424 1.399 . S
C424 H410 0.933 . S
C424 C423 1.399 . S
C424 C425 1.385 . S
C425 H411 0.931 1_545 S
C425 C424 1.385 . S
C425 C426 1.389 . S
C426 C425 1.389 . S
C426 C427 1.387 . S
C427 H412 0.930 . S
C427 C422 1.390 . S
C427 C426 1.387 . S
H428 C440 0.930 . S
H429 C442 0.930 1_545 S
H430 C443 0.930 . S
H431 C447 0.959 . S
H432 C447 0.959 . S
H433 C447 0.961 . S
H434 C448 0.960 . S
H435 C448 0.961 . S
H436 C448 0.959 . S
H437 C451 0.929 . S
H438 C452 0.931 . S
H439 C454 0.930 . S
C440 H428 0.930 . S
C440 C441 1.399 . S
C440 C445 1.399 . S
C441 C440 1.399 . S
C441 C442 1.376 . S
C442 H429 0.930 1_565 S
C442 C441 1.376 . S
C442 C443 1.388 1_565 S
C443 H430 0.930 . S
C443 C442 1.388 1_545 S
C443 C444 1.390 1_545 S
C444 C443 1.390 1_565 S
C444 C445 1.394 . S
C444 C450 1.465 . S
C445 C440 1.399 . S
C445 C444 1.394 . S
C445 C446 1.516 . S
C446 C445 1.516 . S
C446 C447 1.502 . S
C446 C448 1.561 . S
C446 C449 1.526 . S
C447 H431 0.959 . S
C447 H432 0.959 . S
C447 H433 0.961 . S
C447 C446 1.502 . S
C448 H434 0.960 . S
C448 H435 0.961 . S
C448 H436 0.959 . S
C448 C446 1.561 . S
C449 C446 1.526 . S
C449 C450 1.396 . S
C449 C454 1.390 . S
C450 C444 1.465 . S
C450 C449 1.396 . S
C450 C451 1.399 1_565 S
C451 H437 0.929 . S
C451 C450 1.399 1_545 S
C451 C452 1.385 . S
C452 H438 0.931 . S
C452 C451 1.385 . S
C452 C453 1.389 1_545 S
C453 C452 1.389 1_565 S
C453 C454 1.387 . S
C454 H439 0.930 . S
C454 C449 1.390 . S
C454 C453 1.387 . S
H455 C467 0.930 . S
H456 C469 0.930 . S
H457 C470 0.930 . S
H458 C474 0.959 . S
H459 C474 0.959 . S
H460 C474 0.961 . S
H461 C475 0.960 . S
H462 C475 0.961 . S
H463 C475 0.959 . S
H464 C478 0.929 . S
H465 C479 0.931 . S
H466 C481 0.930 . S
C467 H455 0.930 . S
C467 C468 1.399 . S
C467 C472 1.399 . S
C468 C467 1.399 . S
C468 C469 1.376 . S
C469 H456 0.930 . S
C469 C468 1.376 . S
C469 C470 1.388 . S
C470 H457 0.930 . S
C470 C469 1.388 . S
C470 C471 1.390 . S
C471 C470 1.390 . S
C471 C472 1.394 . S
C471 C477 1.465 . S
C472 C467 1.399 . S
C472 C471 1.394 . S
C472 C473 1.516 . S
C473 C472 1.516 . S
C473 C474 1.502 . S
C473 C475 1.561 1_455 S
C473 C476 1.526 . S
C474 H458 0.959 . S
C474 H459 0.959 . S
C474 H460 0.961 . S
C474 C473 1.502 . S
C475 H461 0.960 . S
C475 H462 0.961 . S
C475 H463 0.959 . S
C475 C473 1.561 1_655 S
C476 C473 1.526 . S
C476 C477 1.396 . S
C476 C481 1.390 . S
C477 C471 1.465 . S
C477 C476 1.396 . S
C477 C478 1.399 . S
C478 H464 0.929 . S
C478 C477 1.399 . S
C478 C479 1.385 . S
C479 H465 0.931 . S
C479 C478 1.385 . S
C479 C480 1.389 . S
C480 C479 1.389 . S
C480 C481 1.387 . S
C481 H466 0.930 . S
C481 C476 1.390 . S
C481 C480 1.387 . S
H482 C494 0.930 . S
H483 C496 0.930 . S
H484 C497 0.930 . S
H485 C501 0.959 . S
H486 C501 0.959 . S
H487 C501 0.961 . S
H488 C502 0.960 . S
H489 C502 0.961 . S
H490 C502 0.959 . S
H491 C505 0.929 . S
H492 C506 0.931 . S
H493 C508 0.930 . S
C494 H482 0.930 . S
C494 C495 1.399 . S
C494 C499 1.399 . S
C495 C494 1.399 . S
C495 C496 1.376 . S
C496 H483 0.930 . S
C496 C495 1.376 . S
C496 C497 1.388 . S
C497 H484 0.930 . S
C497 C496 1.388 . S
C497 C498 1.390 . S
C498 C497 1.390 . S
C498 C499 1.394 . S
C498 C504 1.465 . S
C499 C494 1.399 . S
C499 C498 1.394 . S
C499 C500 1.516 . S
C500 C499 1.516 . S
C500 C501 1.502 . S
C500 C502 1.561 . S
C500 C503 1.526 . S
C501 H485 0.959 . S
C501 H486 0.959 . S
C501 H487 0.961 . S
C501 C500 1.502 . S
C502 H488 0.960 . S
C502 H489 0.961 . S
C502 H490 0.959 . S
C502 C500 1.561 . S
C503 C500 1.526 . S
C503 C504 1.396 . S
C503 C508 1.390 . S
C504 C498 1.465 . S
C504 C503 1.396 . S
C504 C505 1.399 . S
C505 H491 0.929 . S
C505 C504 1.399 . S
C505 C506 1.385 . S
C506 H492 0.931 . S
C506 C505 1.385 . S
C506 C507 1.389 . S
C507 C506 1.389 . S
C507 C508 1.387 . S
C508 H493 0.930 . S
C508 C503 1.390 . S
C508 C507 1.387 . S
H509 C521 0.930 . S
H510 C523 0.930 . S
H511 C524 0.930 . S
H512 C528 0.959 . S
H513 C528 0.959 . S
H514 C528 0.961 . S
H515 C529 0.960 . S
H516 C529 0.961 . S
H517 C529 0.959 . S
H518 C532 0.929 . S
H519 C533 0.931 . S
H520 C535 0.930 . S
C521 H509 0.930 . S
C521 C522 1.399 . S
C521 C526 1.399 . S
C522 C521 1.399 . S
C522 C523 1.376 . S
C523 H510 0.930 . S
C523 C522 1.376 . S
C523 C524 1.388 . S
C524 H511 0.930 . S
C524 C523 1.388 . S
C524 C525 1.390 . S
C525 C524 1.390 . S
C525 C526 1.394 . S
C525 C531 1.465 . S
C526 C521 1.399 . S
C526 C525 1.394 . S
C526 C527 1.516 . S
C527 C526 1.516 . S
C527 C528 1.502 . S
C527 C529 1.561 . S
C527 C530 1.526 . S
C528 H512 0.959 . S
C528 H513 0.959 . S
C528 H514 0.961 . S
C528 C527 1.502 . S
C529 H515 0.960 . S
C529 H516 0.961 . S
C529 H517 0.959 . S
C529 C527 1.561 . S
C530 C527 1.526 . S
C530 C531 1.396 . S
C530 C535 1.390 . S
C531 C525 1.465 . S
C531 C530 1.396 . S
C531 C532 1.399 . S
C532 H518 0.929 . S
C532 C531 1.399 . S
C532 C533 1.385 . S
C533 H519 0.931 . S
C533 C532 1.385 . S
C533 C534 1.389 . S
C534 C533 1.389 . S
C534 C535 1.387 . S
C535 H520 0.930 . S
C535 C530 1.390 . S
C535 C534 1.387 . S
H536 C548 0.930 . S
H537 C550 0.930 . S
H538 C551 0.930 . S
H539 C555 0.959 . S
H540 C555 0.959 . S
H541 C555 0.961 . S
H542 C556 0.960 . S
H543 C556 0.961 . S
H544 C556 0.959 . S
H545 C559 0.929 . S
H546 C560 0.931 . S
H547 C562 0.930 . S
C548 H536 0.930 . S
C548 C549 1.399 . S
C548 C553 1.399 . S
C549 C548 1.399 . S
C549 C550 1.376 . S
C550 H537 0.930 . S
C550 C549 1.376 . S
C550 C551 1.388 . S
C551 H538 0.930 . S
C551 C550 1.388 . S
C551 C552 1.390 . S
C552 C551 1.390 . S
C552 C553 1.394 . S
C552 C558 1.465 . S
C553 C548 1.399 . S
C553 C552 1.394 . S
C553 C554 1.516 . S
C554 C553 1.516 . S
C554 C555 1.502 . S
C554 C556 1.561 . S
C554 C557 1.526 . S
C555 H539 0.959 . S
C555 H540 0.959 . S
C555 H541 0.961 . S
C555 C554 1.502 . S
C556 H542 0.960 . S
C556 H543 0.961 . S
C556 H544 0.959 . S
C556 C554 1.561 . S
C557 C554 1.526 . S
C557 C558 1.396 . S
C557 C562 1.390 . S
C558 C552 1.465 . S
C558 C557 1.396 . S
C558 C559 1.399 . S
C559 H545 0.929 . S
C559 C558 1.399 . S
C559 C560 1.385 . S
C560 H546 0.931 . S
C560 C559 1.385 . S
C560 C561 1.389 . S
C561 C560 1.389 . S
C561 C562 1.387 . S
C562 H547 0.930 . S
C562 C557 1.390 . S
C562 C561 1.387 . S
H563 C575 0.930 . S
H564 C577 0.930 . S
H565 C578 0.930 . S
H566 C582 0.959 . S
H567 C582 0.959 . S
H568 C582 0.961 . S
H569 C583 0.960 . S
H570 C583 0.961 . S
H571 C583 0.959 . S
H572 C586 0.929 . S
H573 C587 0.931 . S
H574 C589 0.930 . S
C575 H563 0.930 . S
C575 C576 1.399 . S
C575 C580 1.399 . S
C576 C575 1.399 . S
C576 C577 1.376 . S
C577 H564 0.930 . S
C577 C576 1.376 . S
C577 C578 1.388 . S
C578 H565 0.930 . S
C578 C577 1.388 . S
C578 C579 1.390 . S
C579 C578 1.390 . S
C579 C580 1.394 . S
C579 C585 1.465 . S
C580 C575 1.399 . S
C580 C579 1.394 . S
C580 C581 1.516 . S
C581 C580 1.516 . S
C581 C582 1.502 . S
C581 C583 1.561 . S
C581 C584 1.526 . S
C582 H566 0.959 . S
C582 H567 0.959 . S
C582 H568 0.961 . S
C582 C581 1.502 . S
C583 H569 0.960 . S
C583 H570 0.961 . S
C583 H571 0.959 . S
C583 C581 1.561 . S
C584 C581 1.526 . S
C584 C585 1.396 . S
C584 C589 1.390 . S
C585 C579 1.465 . S
C585 C584 1.396 . S
C585 C586 1.399 . S
C586 H572 0.929 . S
C586 C585 1.399 . S
C586 C587 1.385 . S
C587 H573 0.931 . S
C587 C586 1.385 . S
C587 C588 1.389 . S
C588 C587 1.389 . S
C588 C589 1.387 . S
C589 H574 0.930 . S
C589 C584 1.390 . S
C589 C588 1.387 . S
H590 C602 0.930 . S
H591 C604 0.930 1_545 S
H592 C605 0.930 . S
H593 C609 0.959 . S
H594 C609 0.959 . S
H595 C609 0.961 . S
H596 C610 0.960 . S
H597 C610 0.961 . S
H598 C610 0.959 . S
H599 C613 0.929 . S
H600 C614 0.931 . S
H601 C616 0.930 . S
C602 H590 0.930 . S
C602 C603 1.399 . S
C602 C607 1.399 . S
C603 C602 1.399 . S
C603 C604 1.376 . S
C604 H591 0.930 1_565 S
C604 C603 1.376 . S
C604 C605 1.388 1_565 S
C605 H592 0.930 . S
C605 C604 1.388 1_545 S
C605 C606 1.390 1_545 S
C606 C605 1.390 1_565 S
C606 C607 1.394 . S
C606 C612 1.465 . S
C607 C602 1.399 . S
C607 C606 1.394 . S
C607 C608 1.516 . S
C608 C607 1.516 . S
C608 C609 1.502 . S
C608 C610 1.561 . S
C608 C611 1.526 . S
C609 H593 0.959 . S
C609 H594 0.959 . S
C609 H595 0.961 . S
C609 C608 1.502 . S
C610 H596 0.960 . S
C610 H597 0.961 . S
C610 H598 0.959 . S
C610 C608 1.561 . S
C611 C608 1.526 . S
C611 C612 1.396 . S
C611 C616 1.390 . S
C612 C606 1.465 . S
C612 C611 1.396 . S
C612 C613 1.399 1_565 S
C613 H599 0.929 . S
C613 C612 1.399 1_545 S
C613 C614 1.385 . S
C614 H600 0.931 . S
C614 C613 1.385 . S
C614 C615 1.389 1_545 S
C615 C614 1.389 1_565 S
C615 C616 1.387 . S
C616 H601 0.930 . S
C616 C611 1.390 . S
C616 C615 1.387 . S
H617 C629 0.930 1_655 S
H618 C631 0.930 . S
H619 C632 0.930 . S
H620 C636 0.959 . S
H621 C636 0.959 . S
H622 C636 0.961 . S
H623 C637 0.960 . S
H624 C637 0.961 1_655 S
H625 C637 0.959 . S
H626 C640 0.929 . S
H627 C641 0.931 . S
H628 C643 0.930 . S
C629 H617 0.930 1_455 S
C629 C630 1.399 . S
C629 C634 1.399 . S
C630 C629 1.399 . S
C630 C631 1.376 . S
C631 H618 0.930 . S
C631 C630 1.376 . S
C631 C632 1.388 . S
C632 H619 0.930 . S
C632 C631 1.388 . S
C632 C633 1.390 . S
C633 C632 1.390 . S
C633 C634 1.394 . S
C633 C639 1.465 . S
C634 C629 1.399 . S
C634 C633 1.394 . S
C634 C635 1.516 1_455 S
C635 C634 1.516 1_655 S
C635 C636 1.502 . S
C635 C637 1.561 1_655 S
C635 C638 1.526 1_655 S
C636 H620 0.959 . S
C636 H621 0.959 . S
C636 H622 0.961 . S
C636 C635 1.502 . S
C637 H623 0.960 . S
C637 H624 0.961 1_455 S
C637 H625 0.959 . S
C637 C635 1.561 1_455 S
C638 C635 1.526 1_455 S
C638 C639 1.396 . S
C638 C643 1.390 1_455 S
C639 C633 1.465 . S
C639 C638 1.396 . S
C639 C640 1.399 . S
C640 H626 0.929 . S
C640 C639 1.399 . S
C640 C641 1.385 . S
C641 H627 0.931 . S
C641 C640 1.385 . S
C641 C642 1.389 . S
C642 C641 1.389 . S
C642 C643 1.387 1_455 S
C643 H628 0.930 . S
C643 C638 1.390 1_655 S
C643 C642 1.387 1_655 S
H644 C656 0.930 . S
H645 C658 0.930 . S
H646 C659 0.930 . S
H647 C663 0.959 . S
H648 C663 0.959 . S
H649 C663 0.961 . S
H650 C664 0.960 . S
H651 C664 0.961 . S
H652 C664 0.959 . S
H653 C667 0.929 . S
H654 C668 0.931 . S
H655 C670 0.930 . S
C656 H644 0.930 . S
C656 C657 1.399 . S
C656 C661 1.399 . S
C657 C656 1.399 . S
C657 C658 1.376 1_556 S
C658 H645 0.930 . S
C658 C657 1.376 1_554 S
C658 C659 1.388 . S
C659 H646 0.930 . S
C659 C658 1.388 . S
C659 C660 1.390 1_554 S
C660 C659 1.390 1_556 S
C660 C661 1.394 . S
C660 C666 1.466 . S
C661 C656 1.399 . S
C661 C660 1.394 . S
C661 C662 1.516 . S
C662 C661 1.516 . S
C662 C663 1.502 . S
C662 C664 1.561 . S
C662 C665 1.526 . S
C663 H647 0.959 . S
C663 H648 0.959 . S
C663 H649 0.961 . S
C663 C662 1.502 . S
C664 H650 0.960 . S
C664 H651 0.961 . S
C664 H652 0.959 . S
C664 C662 1.561 . S
C665 C662 1.526 . S
C665 C666 1.399 . S
C665 C670 1.390 . S
C666 C660 1.466 . S
C666 C665 1.399 . S
C666 C667 1.396 1_556 S
C667 H653 0.929 . S
C667 C666 1.396 1_554 S
C667 C668 1.385 . S
C668 H654 0.931 . S
C668 C667 1.385 . S
C668 C669 1.389 1_554 S
C669 C668 1.389 1_556 S
C669 C670 1.387 . S
C670 H655 0.930 . S
C670 C665 1.390 . S
C670 C669 1.387 . S
H671 C683 0.930 . S
H672 C685 0.930 . S
H673 C686 0.930 . S
H674 C690 0.959 . S
H675 C690 0.959 . S
H676 C690 0.961 . S
H677 C691 0.960 . S
H678 C691 0.961 . S
H679 C691 0.959 . S
H680 C694 0.929 . S
H681 C695 0.931 . S
H682 C697 0.930 . S
C683 H671 0.930 . S
C683 C684 1.399 . S
C683 C688 1.399 . S
C684 C683 1.399 . S
C684 C685 1.376 . S
C685 H672 0.930 . S
C685 C684 1.376 . S
C685 C686 1.388 . S
C686 H673 0.930 . S
C686 C685 1.388 . S
C686 C687 1.390 . S
C687 C686 1.390 . S
C687 C688 1.394 . S
C687 C693 1.465 . S
C688 C683 1.399 . S
C688 C687 1.394 . S
C688 C689 1.516 . S
C689 C688 1.516 . S
C689 C690 1.502 . S
C689 C691 1.561 . S
C689 C692 1.526 . S
C690 H674 0.959 . S
C690 H675 0.959 . S
C690 H676 0.961 . S
C690 C689 1.502 . S
C691 H677 0.960 . S
C691 H678 0.961 . S
C691 H679 0.959 . S
C691 C689 1.561 . S
C692 C689 1.526 . S
C692 C693 1.396 . S
C692 C697 1.390 . S
C693 C687 1.465 . S
C693 C692 1.396 . S
C693 C694 1.399 . S
C694 H680 0.929 . S
C694 C693 1.399 . S
C694 C695 1.385 . S
C695 H681 0.931 . S
C695 C694 1.385 . S
C695 C696 1.389 . S
C696 C695 1.389 . S
C696 C697 1.387 . S
C697 H682 0.930 . S
C697 C692 1.390 . S
C697 C696 1.387 . S
H698 C710 0.930 . S
H699 C712 0.930 . S
H700 C713 0.930 . S
H701 C717 0.959 . S
H702 C717 0.959 . S
H703 C717 0.961 . S
H704 C718 0.960 . S
H705 C718 0.961 . S
H706 C718 0.959 . S
H707 C721 0.929 . S
H708 C722 0.931 . S
H709 C724 0.930 . S
C710 H698 0.930 . S
C710 C711 1.399 . S
C710 C715 1.399 . S
C711 C710 1.399 . S
C711 C712 1.376 . S
C712 H699 0.930 . S
C712 C711 1.376 . S
C712 C713 1.388 . S
C713 H700 0.930 . S
C713 C712 1.388 . S
C713 C714 1.390 . S
C714 C713 1.390 . S
C714 C715 1.394 . S
C714 C720 1.465 . S
C715 C710 1.399 . S
C715 C714 1.394 . S
C715 C716 1.516 . S
C716 C715 1.516 . S
C716 C717 1.502 . S
C716 C718 1.561 . S
C716 C719 1.526 . S
C717 H701 0.959 . S
C717 H702 0.959 . S
C717 H703 0.961 . S
C717 C716 1.502 . S
C718 H704 0.960 . S
C718 H705 0.961 . S
C718 H706 0.959 . S
C718 C716 1.561 . S
C719 C716 1.526 . S
C719 C720 1.396 . S
C719 C724 1.390 . S
C720 C714 1.465 . S
C720 C719 1.396 . S
C720 C721 1.399 . S
C721 H707 0.929 . S
C721 C720 1.399 . S
C721 C722 1.385 . S
C722 H708 0.931 . S
C722 C721 1.385 . S
C722 C723 1.389 . S
C723 C722 1.389 . S
C723 C724 1.387 . S
C724 H709 0.930 . S
C724 C719 1.390 . S
C724 C723 1.387 . S
H725 C737 0.930 . S
H726 C739 0.930 . S
H727 C740 0.930 . S
H728 C744 0.959 . S
H729 C744 0.959 . S
H730 C744 0.961 . S
H731 C745 0.960 . S
H732 C745 0.961 . S
H733 C745 0.959 . S
H734 C748 0.929 . S
H735 C749 0.931 . S
H736 C751 0.930 . S
C737 H725 0.930 . S
C737 C738 1.399 . S
C737 C742 1.399 . S
C738 C737 1.399 . S
C738 C739 1.376 . S
C739 H726 0.930 . S
C739 C738 1.376 . S
C739 C740 1.388 . S
C740 H727 0.930 . S
C740 C739 1.388 . S
C740 C741 1.390 . S
C741 C740 1.390 . S
C741 C742 1.394 . S
C741 C747 1.465 . S
C742 C737 1.399 . S
C742 C741 1.394 . S
C742 C743 1.516 . S
C743 C742 1.516 . S
C743 C744 1.502 . S
C743 C745 1.561 . S
C743 C746 1.526 . S
C744 H728 0.959 . S
C744 H729 0.959 . S
C744 H730 0.961 . S
C744 C743 1.502 . S
C745 H731 0.960 . S
C745 H732 0.961 . S
C745 H733 0.959 . S
C745 C743 1.561 . S
C746 C743 1.526 . S
C746 C747 1.396 . S
C746 C751 1.390 . S
C747 C741 1.465 . S
C747 C746 1.396 . S
C747 C748 1.399 . S
C748 H734 0.929 . S
C748 C747 1.399 . S
C748 C749 1.385 . S
C749 H735 0.931 . S
C749 C748 1.385 . S
C749 C750 1.389 . S
C750 C749 1.389 . S
C750 C751 1.387 . S
C751 H736 0.930 . S
C751 C746 1.390 . S
C751 C750 1.387 . S
H752 C764 0.930 . S
H753 C766 0.930 . S
H754 C767 0.930 . S
H755 C771 0.959 . S
H756 C771 0.959 . S
H757 C771 0.961 . S
H758 C772 0.960 . S
H759 C772 0.961 . S
H760 C772 0.959 . S
H761 C775 0.929 . S
H762 C776 0.931 . S
H763 C778 0.930 . S
C764 H752 0.930 . S
C764 C765 1.399 . S
C764 C769 1.399 . S
C765 C764 1.399 . S
C765 C766 1.376 . S
C766 H753 0.930 . S
C766 C765 1.376 . S
C766 C767 1.388 . S
C767 H754 0.930 . S
C767 C766 1.388 . S
C767 C768 1.390 . S
C768 C767 1.390 . S
C768 C769 1.394 . S
C768 C774 1.465 . S
C769 C764 1.399 . S
C769 C768 1.394 . S
C769 C770 1.516 . S
C770 C769 1.516 . S
C770 C771 1.502 . S
C770 C772 1.561 . S
C770 C773 1.526 . S
C771 H755 0.959 . S
C771 H756 0.959 . S
C771 H757 0.961 . S
C771 C770 1.502 . S
C772 H758 0.960 . S
C772 H759 0.961 . S
C772 H760 0.959 . S
C772 C770 1.561 . S
C773 C770 1.526 . S
C773 C774 1.396 . S
C773 C778 1.390 . S
C774 C768 1.465 . S
C774 C773 1.396 . S
C774 C775 1.399 . S
C775 H761 0.929 . S
C775 C774 1.399 . S
C775 C776 1.385 . S
C776 H762 0.931 . S
C776 C775 1.385 . S
C776 C777 1.389 . S
C777 C776 1.389 . S
C777 C778 1.387 . S
C778 H763 0.930 . S
C778 C773 1.390 . S
C778 C777 1.387 . S
H779 C791 0.930 . S
H780 C793 0.930 . S
H781 C794 0.930 . S
H782 C798 0.959 . S
H783 C798 0.959 . S
H784 C798 0.961 . S
H785 C799 0.960 . S
H786 C799 0.961 . S
H787 C799 0.959 . S
H788 C802 0.929 . S
H789 C803 0.931 . S
H790 C805 0.930 . S
C791 H779 0.930 . S
C791 C792 1.399 . S
C791 C796 1.399 . S
C792 C791 1.399 . S
C792 C793 1.376 . S
C793 H780 0.930 . S
C793 C792 1.376 . S
C793 C794 1.388 . S
C794 H781 0.930 . S
C794 C793 1.388 . S
C794 C795 1.390 . S
C795 C794 1.390 . S
C795 C796 1.394 . S
C795 C801 1.465 . S
C796 C791 1.399 . S
C796 C795 1.394 . S
C796 C797 1.516 . S
C797 C796 1.516 . S
C797 C798 1.502 . S
C797 C799 1.561 . S
C797 C800 1.526 . S
C798 H782 0.959 . S
C798 H783 0.959 . S
C798 H784 0.961 . S
C798 C797 1.502 . S
C799 H785 0.960 . S
C799 H786 0.961 . S
C799 H787 0.959 . S
C799 C797 1.561 . S
C800 C797 1.526 . S
C800 C801 1.396 . S
C800 C805 1.390 . S
C801 C795 1.465 . S
C801 C800 1.396 . S
C801 C802 1.399 . S
C802 H788 0.929 . S
C802 C801 1.399 . S
C802 C803 1.385 . S
C803 H789 0.931 . S
C803 C802 1.385 . S
C803 C804 1.389 . S
C804 C803 1.389 . S
C804 C805 1.387 . S
C805 H790 0.930 . S
C805 C800 1.390 . S
C805 C804 1.387 . S
H806 C818 0.930 . S
H807 C820 0.930 . S
H808 C821 0.930 . S
H809 C825 0.959 . S
H810 C825 0.959 . S
H811 C825 0.961 . S
H812 C826 0.960 . S
H813 C826 0.961 . S
H814 C826 0.959 . S
H815 C829 0.929 . S
H816 C830 0.931 . S
H817 C832 0.930 . S
C818 H806 0.930 . S
C818 C819 1.399 . S
C818 C823 1.399 . S
C819 C818 1.399 . S
C819 C820 1.376 . S
C820 H807 0.930 . S
C820 C819 1.376 . S
C820 C821 1.388 . S
C821 H808 0.930 . S
C821 C820 1.388 . S
C821 C822 1.390 . S
C822 C821 1.390 . S
C822 C823 1.394 . S
C822 C828 1.465 . S
C823 C818 1.399 . S
C823 C822 1.394 . S
C823 C824 1.516 . S
C824 C823 1.516 . S
C824 C825 1.502 . S
C824 C826 1.561 . S
C824 C827 1.526 . S
C825 H809 0.959 . S
C825 H810 0.959 . S
C825 H811 0.961 . S
C825 C824 1.502 . S
C826 H812 0.960 . S
C826 H813 0.961 . S
C826 H814 0.959 . S
C826 C824 1.561 . S
C827 C824 1.526 . S
C827 C828 1.396 . S
C827 C832 1.390 . S
C828 C822 1.465 . S
C828 C827 1.396 . S
C828 C829 1.399 . S
C829 H815 0.929 . S
C829 C828 1.399 . S
C829 C830 1.385 . S
C830 H816 0.931 . S
C830 C829 1.385 . S
C830 C831 1.389 . S
C831 C830 1.389 . S
C831 C832 1.387 . S
C832 H817 0.930 . S
C832 C827 1.390 . S
C832 C831 1.387 . S
H833 C845 0.930 . S
H834 C847 0.930 . S
H835 C848 0.930 . S
H836 C852 0.959 . S
H837 C852 0.959 . S
H838 C852 0.961 . S
H839 C853 0.960 . S
H840 C853 0.961 . S
H841 C853 0.959 . S
H842 C856 0.929 . S
H843 C857 0.931 . S
H844 C859 0.930 . S
C845 H833 0.930 . S
C845 C846 1.399 . S
C845 C850 1.399 . S
C846 C845 1.399 . S
C846 C847 1.376 . S
C847 H834 0.930 . S
C847 C846 1.376 . S
C847 C848 1.388 . S
C848 H835 0.930 . S
C848 C847 1.388 . S
C848 C849 1.390 . S
C849 C848 1.390 . S
C849 C850 1.394 . S
C849 C855 1.465 . S
C850 C845 1.399 . S
C850 C849 1.394 . S
C850 C851 1.516 . S
C851 C850 1.516 . S
C851 C852 1.502 . S
C851 C853 1.561 . S
C851 C854 1.526 . S
C852 H836 0.959 . S
C852 H837 0.959 . S
C852 H838 0.961 . S
C852 C851 1.502 . S
C853 H839 0.960 . S
C853 H840 0.961 . S
C853 H841 0.959 . S
C853 C851 1.561 . S
C854 C851 1.526 . S
C854 C855 1.396 . S
C854 C859 1.390 . S
C855 C849 1.465 . S
C855 C854 1.396 . S
C855 C856 1.399 . S
C856 H842 0.929 . S
C856 C855 1.399 . S
C856 C857 1.385 . S
C857 H843 0.931 . S
C857 C856 1.385 . S
C857 C858 1.389 . S
C858 C857 1.389 . S
C858 C859 1.387 . S
C859 H844 0.930 . S
C859 C854 1.390 . S
C859 C858 1.387 . S
H860 C872 0.930 . S
H861 C874 0.930 . S
H862 C875 0.930 . S
H863 C879 0.959 . S
H864 C879 0.959 . S
H865 C879 0.961 . S
H866 C880 0.960 . S
H867 C880 0.961 . S
H868 C880 0.959 . S
H869 C883 0.929 . S
H870 C884 0.931 . S
H871 C886 0.930 . S
C872 H860 0.930 . S
C872 C873 1.399 . S
C872 C877 1.399 . S
C873 C872 1.399 . S
C873 C874 1.376 . S
C874 H861 0.930 . S
C874 C873 1.376 . S
C874 C875 1.388 . S
C875 H862 0.930 . S
C875 C874 1.388 . S
C875 C876 1.390 . S
C876 C875 1.390 . S
C876 C877 1.394 . S
C876 C882 1.465 . S
C877 C872 1.399 . S
C877 C876 1.394 . S
C877 C878 1.516 . S
C878 C877 1.516 . S
C878 C879 1.502 . S
C878 C880 1.561 . S
C878 C881 1.526 . S
C879 H863 0.959 . S
C879 H864 0.959 . S
C879 H865 0.961 . S
C879 C878 1.502 . S
C880 H866 0.960 . S
C880 H867 0.961 . S
C880 H868 0.959 . S
C880 C878 1.561 . S
C881 C878 1.526 . S
C881 C882 1.396 . S
C881 C886 1.390 . S
C882 C876 1.465 . S
C882 C881 1.396 . S
C882 C883 1.399 . S
C883 H869 0.929 . S
C883 C882 1.399 . S
C883 C884 1.385 . S
C884 H870 0.931 . S
C884 C883 1.385 . S
C884 C885 1.389 . S
C885 C884 1.389 . S
C885 C886 1.387 . S
C886 H871 0.930 . S
C886 C881 1.390 . S
C886 C885 1.387 . S
H887 C899 0.930 . S
H888 C901 0.930 . S
H889 C902 0.930 . S
H890 C906 0.959 . S
H891 C906 0.959 . S
H892 C906 0.961 . S
H893 C907 0.960 . S
H894 C907 0.961 . S
H895 C907 0.959 . S
H896 C910 0.929 . S
H897 C911 0.931 . S
H898 C913 0.930 . S
C899 H887 0.930 . S
C899 C900 1.399 . S
C899 C904 1.399 . S
C900 C899 1.399 . S
C900 C901 1.376 . S
C901 H888 0.930 . S
C901 C900 1.376 . S
C901 C902 1.388 . S
C902 H889 0.930 . S
C902 C901 1.388 . S
C902 C903 1.390 . S
C903 C902 1.390 . S
C903 C904 1.394 . S
C903 C909 1.465 . S
C904 C899 1.399 . S
C904 C903 1.394 . S
C904 C905 1.516 . S
C905 C904 1.516 . S
C905 C906 1.502 1_655 S
C905 C907 1.561 . S
C905 C908 1.526 . S
C906 H890 0.959 . S
C906 H891 0.959 . S
C906 H892 0.961 . S
C906 C905 1.502 1_455 S
C907 H893 0.960 . S
C907 H894 0.961 . S
C907 H895 0.959 . S
C907 C905 1.561 . S
C908 C905 1.526 . S
C908 C909 1.396 . S
C908 C913 1.390 . S
C909 C903 1.465 . S
C909 C908 1.396 . S
C909 C910 1.399 . S
C910 H896 0.929 . S
C910 C909 1.399 . S
C910 C911 1.385 . S
C911 H897 0.931 . S
C911 C910 1.385 . S
C911 C912 1.389 . S
C912 C911 1.389 . S
C912 C913 1.387 . S
C913 H898 0.930 . S
C913 C908 1.390 . S
C913 C912 1.387 . S
H914 C926 0.930 . S
H915 C928 0.930 . S
H916 C929 0.930 . S
H917 C933 0.959 . S
H918 C933 0.959 . S
H919 C933 0.961 . S
H920 C934 0.960 . S
H921 C934 0.961 . S
H922 C934 0.959 . S
H923 C937 0.929 . S
H924 C938 0.931 . S
H925 C940 0.930 . S
C926 H914 0.930 . S
C926 C927 1.399 . S
C926 C931 1.399 . S
C927 C926 1.399 . S
C927 C928 1.376 . S
C928 H915 0.930 . S
C928 C927 1.376 . S
C928 C929 1.388 . S
C929 H916 0.930 . S
C929 C928 1.388 . S
C929 C930 1.390 . S
C930 C929 1.390 . S
C930 C931 1.394 . S
C930 C936 1.465 . S
C931 C926 1.399 . S
C931 C930 1.394 . S
C931 C932 1.516 . S
C932 C931 1.516 . S
C932 C933 1.502 . S
C932 C934 1.561 . S
C932 C935 1.526 . S
C933 H917 0.959 . S
C933 H918 0.959 . S
C933 H919 0.961 . S
C933 C932 1.502 . S
C934 H920 0.960 . S
C934 H921 0.961 . S
C934 H922 0.959 . S
C934 C932 1.561 . S
C935 C932 1.526 . S
C935 C936 1.396 . S
C935 C940 1.390 . S
C936 C930 1.465 . S
C936 C935 1.396 . S
C936 C937 1.399 . S
C937 H923 0.929 . S
C937 C936 1.399 . S
C937 C938 1.385 . S
C938 H924 0.931 . S
C938 C937 1.385 . S
C938 C939 1.389 . S
C939 C938 1.389 . S
C939 C940 1.387 . S
C940 H925 0.930 . S
C940 C935 1.390 . S
C940 C939 1.387 . S
H941 C953 0.930 . S
H942 C955 0.930 . S
H943 C956 0.930 . S
H944 C960 0.959 . S
H945 C960 0.959 . S
H946 C960 0.961 . S
H947 C961 0.960 . S
H948 C961 0.961 . S
H949 C961 0.959 . S
H950 C964 0.929 . S
H951 C965 0.931 . S
H952 C967 0.930 . S
C953 H941 0.930 . S
C953 C954 1.399 . S
C953 C958 1.399 . S
C954 C953 1.399 . S
C954 C955 1.376 . S
C955 H942 0.930 . S
C955 C954 1.376 . S
C955 C956 1.388 . S
C956 H943 0.930 . S
C956 C955 1.388 . S
C956 C957 1.390 . S
C957 C956 1.390 . S
C957 C958 1.394 . S
C957 C963 1.465 . S
C958 C953 1.399 . S
C958 C957 1.394 . S
C958 C959 1.516 . S
C959 C958 1.516 . S
C959 C960 1.502 . S
C959 C961 1.561 . S
C959 C962 1.526 . S
C960 H944 0.959 . S
C960 H945 0.959 . S
C960 H946 0.961 . S
C960 C959 1.502 . S
C961 H947 0.960 . S
C961 H948 0.961 . S
C961 H949 0.959 . S
C961 C959 1.561 . S
C962 C959 1.526 . S
C962 C963 1.396 . S
C962 C967 1.390 . S
C963 C957 1.465 . S
C963 C962 1.396 . S
C963 C964 1.399 . S
C964 H950 0.929 . S
C964 C963 1.399 . S
C964 C965 1.385 . S
C965 H951 0.931 . S
C965 C964 1.385 . S
C965 C966 1.389 . S
C966 C965 1.389 . S
C966 C967 1.387 . S
C967 H952 0.930 . S
C967 C962 1.390 . S
C967 C966 1.387 . S
H968 C980 0.930 . S
H969 C982 0.930 . S
H970 C983 0.930 . S
H971 C987 0.959 . S
H972 C987 0.959 . S
H973 C987 0.961 . S
H974 C988 0.960 . S
H975 C988 0.961 . S
H976 C988 0.959 . S
H977 C991 0.929 . S
H978 C992 0.931 . S
H979 C994 0.930 . S
C980 H968 0.930 . S
C980 C981 1.399 . S
C980 C985 1.399 . S
C981 C980 1.399 . S
C981 C982 1.376 . S
C982 H969 0.930 . S
C982 C981 1.376 . S
C982 C983 1.388 . S
C983 H970 0.930 . S
C983 C982 1.388 . S
C983 C984 1.390 . S
C984 C983 1.390 . S
C984 C985 1.394 . S
C984 C990 1.465 . S
C985 C980 1.399 . S
C985 C984 1.394 . S
C985 C986 1.516 . S
C986 C985 1.516 . S
C986 C987 1.502 . S
C986 C988 1.561 . S
C986 C989 1.526 . S
C987 H971 0.959 . S
C987 H972 0.959 . S
C987 H973 0.961 . S
C987 C986 1.502 . S
C988 H974 0.960 . S
C988 H975 0.961 . S
C988 H976 0.959 . S
C988 C986 1.561 . S
C989 C986 1.526 . S
C989 C990 1.396 . S
C989 C994 1.390 . S
C990 C984 1.465 . S
C990 C989 1.396 . S
C990 C991 1.399 . S
C991 H977 0.929 . S
C991 C990 1.399 . S
C991 C992 1.385 . S
C992 H978 0.931 . S
C992 C991 1.385 . S
C992 C993 1.389 . S
C993 C992 1.389 . S
C993 C994 1.387 . S
C994 H979 0.930 . S
C994 C989 1.390 . S
C994 C993 1.387 . S
H995 C1007 0.930 . S
H996 C1009 0.930 . S
H997 C1010 0.930 . S
H998 C1014 0.959 . S
H999 C1014 0.959 . S
H1000 C1014 0.961 . S
H1001 C1015 0.960 . S
H1002 C1015 0.961 . S
H1003 C1015 0.959 . S
H1004 C1018 0.929 . S
H1005 C1019 0.931 . S
H1006 C1021 0.930 . S
C1007 H995 0.930 . S
C1007 C1008 1.399 . S
C1007 C1012 1.399 . S
C1008 C1007 1.399 . S
C1008 C1009 1.376 . S
C1009 H996 0.930 . S
C1009 C1008 1.376 . S
C1009 C1010 1.388 . S
C1010 H997 0.930 . S
C1010 C1009 1.388 . S
C1010 C1011 1.390 . S
C1011 C1010 1.390 . S
C1011 C1012 1.394 . S
C1011 C1017 1.465 . S
C1012 C1007 1.399 . S
C1012 C1011 1.394 . S
C1012 C1013 1.516 . S
C1013 C1012 1.516 . S
C1013 C1014 1.502 . S
C1013 C1015 1.561 . S
C1013 C1016 1.526 . S
C1014 H998 0.959 . S
C1014 H999 0.959 . S
C1014 H1000 0.961 . S
C1014 C1013 1.502 . S
C1015 H1001 0.960 . S
C1015 H1002 0.961 . S
C1015 H1003 0.959 . S
C1015 C1013 1.561 . S
C1016 C1013 1.526 . S
C1016 C1017 1.396 . S
C1016 C1021 1.390 . S
C1017 C1011 1.465 . S
C1017 C1016 1.396 . S
C1017 C1018 1.399 . S
C1018 H1004 0.929 . S
C1018 C1017 1.399 . S
C1018 C1019 1.385 . S
C1019 H1005 0.931 . S
C1019 C1018 1.385 . S
C1019 C1020 1.389 . S
C1020 C1019 1.389 . S
C1020 C1021 1.387 . S
C1021 H1006 0.930 . S
C1021 C1016 1.390 . S
C1021 C1020 1.387 . S
H1022 C1034 0.930 1_565 S
H1023 C1036 0.930 . S
H1024 C1037 0.930 . S
H1025 C1041 0.959 . S
H1026 C1041 0.959 . S
H1027 C1041 0.961 . S
H1028 C1042 0.960 . S
H1029 C1042 0.961 . S
H1030 C1042 0.959 . S
H1031 C1045 0.929 . S
H1032 C1046 0.931 . S
H1033 C1048 0.930 . S
C1034 H1022 0.930 1_545 S
C1034 C1035 1.399 . S
C1034 C1039 1.399 . S
C1035 C1034 1.399 . S
C1035 C1036 1.376 . S
C1036 H1023 0.930 . S
C1036 C1035 1.376 . S
C1036 C1037 1.388 . S
C1037 H1024 0.930 . S
C1037 C1036 1.388 . S
C1037 C1038 1.390 . S
C1038 C1037 1.390 . S
C1038 C1039 1.394 . S
C1038 C1044 1.465 . S
C1039 C1034 1.399 . S
C1039 C1038 1.394 . S
C1039 C1040 1.516 . S
C1040 C1039 1.516 . S
C1040 C1041 1.502 . S
C1040 C1042 1.561 1_545 S
C1040 C1043 1.526 . S
C1041 H1025 0.959 . S
C1041 H1026 0.959 . S
C1041 H1027 0.961 . S
C1041 C1040 1.502 . S
C1042 H1028 0.960 . S
C1042 H1029 0.961 . S
C1042 H1030 0.959 . S
C1042 C1040 1.561 1_565 S
C1043 C1040 1.526 . S
C1043 C1044 1.396 . S
C1043 C1048 1.390 . S
C1044 C1038 1.465 . S
C1044 C1043 1.396 . S
C1044 C1045 1.399 . S
C1045 H1031 0.929 . S
C1045 C1044 1.399 . S
C1045 C1046 1.385 . S
C1046 H1032 0.931 . S
C1046 C1045 1.385 . S
C1046 C1047 1.389 . S
C1047 C1046 1.389 . S
C1047 C1048 1.387 . S
C1048 H1033 0.930 . S
C1048 C1043 1.390 . S
C1048 C1047 1.387 . S
H1049 C1061 0.930 . S
H1050 C1063 0.930 . S
H1051 C1064 0.930 . S
H1052 C1068 0.959 . S
H1053 C1068 0.959 . S
H1054 C1068 0.961 . S
H1055 C1069 0.960 . S
H1056 C1069 0.961 . S
H1057 C1069 0.959 . S
H1058 C1072 0.929 . S
H1059 C1073 0.931 . S
H1060 C1075 0.930 . S
C1061 H1049 0.930 . S
C1061 C1062 1.399 . S
C1061 C1066 1.399 . S
C1062 C1061 1.399 . S
C1062 C1063 1.376 1_554 S
C1063 H1050 0.930 . S
C1063 C1062 1.376 1_556 S
C1063 C1064 1.388 . S
C1064 H1051 0.930 . S
C1064 C1063 1.388 . S
C1064 C1065 1.381 1_556 S
C1065 C1064 1.381 1_554 S
C1065 C1066 1.403 . S
C1065 C1071 1.467 . S
C1066 C1061 1.399 . S
C1066 C1065 1.403 . S
C1066 C1067 1.516 . S
C1067 C1066 1.516 . S
C1067 C1068 1.502 . S
C1067 C1069 1.561 . S
C1067 C1070 1.526 . S
C1068 H1052 0.959 . S
C1068 H1053 0.959 . S
C1068 H1054 0.961 . S
C1068 C1067 1.502 . S
C1069 H1055 0.960 . S
C1069 H1056 0.961 . S
C1069 H1057 0.959 . S
C1069 C1067 1.561 . S
C1070 C1067 1.526 . S
C1070 C1071 1.396 . S
C1070 C1075 1.390 . S
C1071 C1065 1.467 . S
C1071 C1070 1.396 . S
C1071 C1072 1.399 1_554 S
C1072 H1058 0.929 . S
C1072 C1071 1.399 1_556 S
C1072 C1073 1.385 . S
C1073 H1059 0.931 . S
C1073 C1072 1.385 . S
C1073 C1074 1.389 1_556 S
C1074 C1073 1.389 1_554 S
C1074 C1075 1.387 . S
C1075 H1060 0.930 . S
C1075 C1070 1.390 . S
C1075 C1074 1.387 . S
H1076 C1088 0.930 . S
H1077 C1090 0.930 . S
H1078 C1091 0.930 . S
H1079 C1095 0.959 . S
H1080 C1095 0.959 . S
H1081 C1095 0.961 . S
H1082 C1096 0.960 . S
H1083 C1096 0.961 . S
H1084 C1096 0.959 . S
H1085 C1099 0.929 . S
H1086 C1100 0.931 . S
H1087 C1102 0.930 . S
C1088 H1076 0.930 . S
C1088 C1089 1.399 . S
C1088 C1093 1.399 . S
C1089 C1088 1.399 . S
C1089 C1090 1.376 . S
C1090 H1077 0.930 . S
C1090 C1089 1.376 . S
C1090 C1091 1.388 . S
C1091 H1078 0.930 . S
C1091 C1090 1.388 . S
C1091 C1092 1.390 . S
C1092 C1091 1.390 . S
C1092 C1093 1.394 . S
C1092 C1098 1.465 . S
C1093 C1088 1.399 . S
C1093 C1092 1.394 . S
C1093 C1094 1.516 . S
C1094 C1093 1.516 . S
C1094 C1095 1.502 . S
C1094 C1096 1.561 . S
C1094 C1097 1.526 . S
C1095 H1079 0.959 . S
C1095 H1080 0.959 . S
C1095 H1081 0.961 . S
C1095 C1094 1.502 . S
C1096 H1082 0.960 . S
C1096 H1083 0.961 . S
C1096 H1084 0.959 . S
C1096 C1094 1.561 . S
C1097 C1094 1.526 . S
C1097 C1098 1.396 . S
C1097 C1102 1.390 . S
C1098 C1092 1.465 . S
C1098 C1097 1.396 . S
C1098 C1099 1.399 . S
C1099 H1085 0.929 . S
C1099 C1098 1.399 . S
C1099 C1100 1.385 . S
C1100 H1086 0.931 . S
C1100 C1099 1.385 . S
C1100 C1101 1.389 . S
C1101 C1100 1.389 . S
C1101 C1102 1.387 . S
C1102 H1087 0.930 . S
C1102 C1097 1.390 . S
C1102 C1101 1.387 . S
H1103 C1115 0.930 . S
H1104 C1117 0.930 . S
H1105 C1118 0.930 . S
H1106 C1122 0.959 . S
H1107 C1122 0.959 . S
H1108 C1122 0.961 . S
H1109 C1123 0.960 . S
H1110 C1123 0.961 . S
H1111 C1123 0.959 . S
H1112 C1126 0.929 . S
H1113 C1127 0.931 . S
H1114 C1129 0.930 . S
C1115 H1103 0.930 . S
C1115 C1116 1.399 . S
C1115 C1120 1.399 . S
C1116 C1115 1.399 . S
C1116 C1117 1.376 . S
C1117 H1104 0.930 . S
C1117 C1116 1.376 . S
C1117 C1118 1.388 . S
C1118 H1105 0.930 . S
C1118 C1117 1.388 . S
C1118 C1119 1.390 . S
C1119 C1118 1.390 . S
C1119 C1120 1.394 . S
C1119 C1125 1.465 . S
C1120 C1115 1.399 . S
C1120 C1119 1.394 . S
C1120 C1121 1.516 . S
C1121 C1120 1.516 . S
C1121 C1122 1.502 . S
C1121 C1123 1.561 . S
C1121 C1124 1.526 . S
C1122 H1106 0.959 . S
C1122 H1107 0.959 . S
C1122 H1108 0.961 . S
C1122 C1121 1.502 . S
C1123 H1109 0.960 . S
C1123 H1110 0.961 . S
C1123 H1111 0.959 . S
C1123 C1121 1.561 . S
C1124 C1121 1.526 . S
C1124 C1125 1.396 . S
C1124 C1129 1.390 . S
C1125 C1119 1.465 . S
C1125 C1124 1.396 . S
C1125 C1126 1.399 . S
C1126 H1112 0.929 . S
C1126 C1125 1.399 . S
C1126 C1127 1.385 . S
C1127 H1113 0.931 . S
C1127 C1126 1.385 . S
C1127 C1128 1.389 . S
C1128 C1127 1.389 . S
C1128 C1129 1.387 . S
C1129 H1114 0.930 . S
C1129 C1124 1.390 . S
C1129 C1128 1.387 . S
H1130 C1142 0.930 . S
H1131 C1144 0.930 . S
H1132 C1145 0.930 . S
H1133 C1149 0.959 . S
H1134 C1149 0.959 . S
H1135 C1149 0.961 . S
H1136 C1150 0.960 . S
H1137 C1150 0.961 . S
H1138 C1150 0.959 . S
H1139 C1153 0.929 . S
H1140 C1154 0.931 . S
H1141 C1156 0.930 . S
C1142 H1130 0.930 . S
C1142 C1143 1.399 . S
C1142 C1147 1.399 . S
C1143 C1142 1.399 . S
C1143 C1144 1.376 . S
C1144 H1131 0.930 . S
C1144 C1143 1.376 . S
C1144 C1145 1.388 . S
C1145 H1132 0.930 . S
C1145 C1144 1.388 . S
C1145 C1146 1.390 . S
C1146 C1145 1.390 . S
C1146 C1147 1.394 . S
C1146 C1152 1.465 . S
C1147 C1142 1.399 . S
C1147 C1146 1.394 . S
C1147 C1148 1.516 . S
C1148 C1147 1.516 . S
C1148 C1149 1.502 . S
C1148 C1150 1.561 . S
C1148 C1151 1.526 . S
C1149 H1133 0.959 . S
C1149 H1134 0.959 . S
C1149 H1135 0.961 . S
C1149 C1148 1.502 . S
C1150 H1136 0.960 . S
C1150 H1137 0.961 . S
C1150 H1138 0.959 . S
C1150 C1148 1.561 . S
C1151 C1148 1.526 . S
C1151 C1152 1.396 . S
C1151 C1156 1.390 . S
C1152 C1146 1.465 . S
C1152 C1151 1.396 . S
C1152 C1153 1.399 . S
C1153 H1139 0.929 . S
C1153 C1152 1.399 . S
C1153 C1154 1.385 . S
C1154 H1140 0.931 . S
C1154 C1153 1.385 . S
C1154 C1155 1.389 . S
C1155 C1154 1.389 . S
C1155 C1156 1.387 . S
C1156 H1141 0.930 . S
C1156 C1151 1.390 . S
C1156 C1155 1.387 . S
H1157 C1169 0.930 . S
H1158 C1171 0.930 . S
H1159 C1172 0.930 . S
H1160 C1176 0.959 . S
H1161 C1176 0.959 . S
H1162 C1176 0.961 . S
H1163 C1177 0.960 . S
H1164 C1177 0.961 . S
H1165 C1177 0.959 . S
H1166 C1180 0.929 . S
H1167 C1181 0.931 . S
H1168 C1183 0.930 . S
C1169 H1157 0.930 . S
C1169 C1170 1.399 . S
C1169 C1174 1.399 . S
C1170 C1169 1.399 . S
C1170 C1171 1.376 . S
C1171 H1158 0.930 . S
C1171 C1170 1.376 . S
C1171 C1172 1.388 . S
C1172 H1159 0.930 . S
C1172 C1171 1.388 . S
C1172 C1173 1.390 . S
C1173 C1172 1.390 . S
C1173 C1174 1.394 . S
C1173 C1179 1.465 . S
C1174 C1169 1.399 . S
C1174 C1173 1.394 . S
C1174 C1175 1.516 . S
C1175 C1174 1.516 . S
C1175 C1176 1.502 . S
C1175 C1177 1.561 . S
C1175 C1178 1.526 . S
C1176 H1160 0.959 . S
C1176 H1161 0.959 . S
C1176 H1162 0.961 . S
C1176 C1175 1.502 . S
C1177 H1163 0.960 . S
C1177 H1164 0.961 . S
C1177 H1165 0.959 . S
C1177 C1175 1.561 . S
C1178 C1175 1.526 . S
C1178 C1179 1.396 . S
C1178 C1183 1.390 . S
C1179 C1173 1.465 . S
C1179 C1178 1.396 . S
C1179 C1180 1.399 . S
C1180 H1166 0.929 . S
C1180 C1179 1.399 . S
C1180 C1181 1.385 . S
C1181 H1167 0.931 . S
C1181 C1180 1.385 . S
C1181 C1182 1.389 . S
C1182 C1181 1.389 . S
C1182 C1183 1.387 . S
C1183 H1168 0.930 . S
C1183 C1178 1.390 . S
C1183 C1182 1.387 . S
H1184 C1196 0.930 . S
H1185 C1198 0.930 . S
H1186 C1199 0.930 . S
H1187 C1203 0.959 . S
H1188 C1203 0.959 . S
H1189 C1203 0.961 . S
H1190 C1204 0.960 . S
H1191 C1204 0.961 . S
H1192 C1204 0.959 . S
H1193 C1207 0.929 . S
H1194 C1208 0.931 . S
H1195 C1210 0.930 . S
C1196 H1184 0.930 . S
C1196 C1197 1.399 . S
C1196 C1201 1.399 . S
C1197 C1196 1.399 . S
C1197 C1198 1.376 . S
C1198 H1185 0.930 . S
C1198 C1197 1.376 . S
C1198 C1199 1.388 . S
C1199 H1186 0.930 . S
C1199 C1198 1.388 . S
C1199 C1200 1.390 . S
C1200 C1199 1.390 . S
C1200 C1201 1.394 . S
C1200 C1206 1.465 . S
C1201 C1196 1.399 . S
C1201 C1200 1.394 . S
C1201 C1202 1.516 . S
C1202 C1201 1.516 . S
C1202 C1203 1.502 . S
C1202 C1204 1.561 . S
C1202 C1205 1.526 . S
C1203 H1187 0.959 . S
C1203 H1188 0.959 . S
C1203 H1189 0.961 . S
C1203 C1202 1.502 . S
C1204 H1190 0.960 . S
C1204 H1191 0.961 . S
C1204 H1192 0.959 . S
C1204 C1202 1.561 . S
C1205 C1202 1.526 . S
C1205 C1206 1.396 . S
C1205 C1210 1.390 . S
C1206 C1200 1.465 . S
C1206 C1205 1.396 . S
C1206 C1207 1.399 . S
C1207 H1193 0.929 . S
C1207 C1206 1.399 . S
C1207 C1208 1.385 . S
C1208 H1194 0.931 . S
C1208 C1207 1.385 . S
C1208 C1209 1.389 . S
C1209 C1208 1.389 . S
C1209 C1210 1.387 . S
C1210 H1195 0.930 . S
C1210 C1205 1.390 . S
C1210 C1209 1.387 . S
H1211 C1223 0.930 . S
H1212 C1225 0.930 . S
H1213 C1226 0.930 . S
H1214 C1230 0.959 . S
H1215 C1230 0.959 . S
H1216 C1230 0.961 . S
H1217 C1231 0.960 . S
H1218 C1231 0.961 . S
H1219 C1231 0.959 . S
H1220 C1234 0.929 . S
H1221 C1235 0.931 . S
H1222 C1237 0.930 . S
C1223 H1211 0.930 . S
C1223 C1224 1.399 . S
C1223 C1228 1.399 . S
C1224 C1223 1.399 . S
C1224 C1225 1.376 . S
C1225 H1212 0.930 . S
C1225 C1224 1.376 . S
C1225 C1226 1.388 . S
C1226 H1213 0.930 . S
C1226 C1225 1.388 . S
C1226 C1227 1.390 . S
C1227 C1226 1.390 . S
C1227 C1228 1.394 . S
C1227 C1233 1.465 . S
C1228 C1223 1.399 . S
C1228 C1227 1.394 . S
C1228 C1229 1.516 . S
C1229 C1228 1.516 . S
C1229 C1230 1.502 . S
C1229 C1231 1.561 . S
C1229 C1232 1.526 . S
C1230 H1214 0.959 . S
C1230 H1215 0.959 . S
C1230 H1216 0.961 . S
C1230 C1229 1.502 . S
C1231 H1217 0.960 . S
C1231 H1218 0.961 . S
C1231 H1219 0.959 . S
C1231 C1229 1.561 . S
C1232 C1229 1.526 . S
C1232 C1233 1.396 . S
C1232 C1237 1.390 . S
C1233 C1227 1.465 . S
C1233 C1232 1.396 . S
C1233 C1234 1.399 . S
C1234 H1220 0.929 . S
C1234 C1233 1.399 . S
C1234 C1235 1.385 . S
C1235 H1221 0.931 . S
C1235 C1234 1.385 . S
C1235 C1236 1.389 . S
C1236 C1235 1.389 . S
C1236 C1237 1.387 . S
C1237 H1222 0.930 . S
C1237 C1232 1.390 . S
C1237 C1236 1.387 . S
H1238 C1250 0.930 . S
H1239 C1252 0.930 . S
H1240 C1253 0.930 . S
H1241 C1257 0.959 . S
H1242 C1257 0.959 . S
H1243 C1257 0.961 . S
H1244 C1258 0.960 . S
H1245 C1258 0.961 . S
H1246 C1258 0.959 . S
H1247 C1261 0.929 . S
H1248 C1262 0.931 . S
H1249 C1264 0.930 . S
C1250 H1238 0.930 . S
C1250 C1251 1.399 . S
C1250 C1255 1.399 . S
C1251 C1250 1.399 . S
C1251 C1252 1.376 . S
C1252 H1239 0.930 . S
C1252 C1251 1.376 . S
C1252 C1253 1.388 . S
C1253 H1240 0.930 . S
C1253 C1252 1.388 . S
C1253 C1254 1.390 . S
C1254 C1253 1.390 . S
C1254 C1255 1.394 . S
C1254 C1260 1.465 . S
C1255 C1250 1.399 . S
C1255 C1254 1.394 . S
C1255 C1256 1.516 . S
C1256 C1255 1.516 . S
C1256 C1257 1.502 . S
C1256 C1258 1.561 . S
C1256 C1259 1.526 . S
C1257 H1241 0.959 . S
C1257 H1242 0.959 . S
C1257 H1243 0.961 . S
C1257 C1256 1.502 . S
C1258 H1244 0.960 . S
C1258 H1245 0.961 . S
C1258 H1246 0.959 . S
C1258 C1256 1.561 . S
C1259 C1256 1.526 . S
C1259 C1260 1.396 . S
C1259 C1264 1.390 . S
C1260 C1254 1.465 . S
C1260 C1259 1.396 . S
C1260 C1261 1.399 . S
C1261 H1247 0.929 . S
C1261 C1260 1.399 . S
C1261 C1262 1.385 . S
C1262 H1248 0.931 . S
C1262 C1261 1.385 . S
C1262 C1263 1.389 . S
C1263 C1262 1.389 . S
C1263 C1264 1.387 . S
C1264 H1249 0.930 . S
C1264 C1259 1.390 . S
C1264 C1263 1.387 . S
H1265 C1277 0.930 . S
H1266 C1279 0.930 . S
H1267 C1280 0.930 . S
H1268 C1284 0.959 . S
H1269 C1284 0.959 . S
H1270 C1284 0.961 . S
H1271 C1285 0.960 . S
H1272 C1285 0.961 . S
H1273 C1285 0.959 . S
H1274 C1288 0.929 . S
H1275 C1289 0.931 . S
H1276 C1291 0.930 . S
C1277 H1265 0.930 . S
C1277 C1278 1.399 . S
C1277 C1282 1.399 . S
C1278 C1277 1.399 . S
C1278 C1279 1.376 . S
C1279 H1266 0.930 . S
C1279 C1278 1.376 . S
C1279 C1280 1.388 . S
C1280 H1267 0.930 . S
C1280 C1279 1.388 . S
C1280 C1281 1.390 . S
C1281 C1280 1.390 . S
C1281 C1282 1.394 . S
C1281 C1287 1.465 . S
C1282 C1277 1.399 . S
C1282 C1281 1.394 . S
C1282 C1283 1.516 . S
C1283 C1282 1.516 . S
C1283 C1284 1.502 . S
C1283 C1285 1.561 . S
C1283 C1286 1.526 . S
C1284 H1268 0.959 . S
C1284 H1269 0.959 . S
C1284 H1270 0.961 . S
C1284 C1283 1.502 . S
C1285 H1271 0.960 . S
C1285 H1272 0.961 . S
C1285 H1273 0.959 . S
C1285 C1283 1.561 . S
C1286 C1283 1.526 . S
C1286 C1287 1.396 . S
C1286 C1291 1.390 . S
C1287 C1281 1.465 . S
C1287 C1286 1.396 . S
C1287 C1288 1.399 . S
C1288 H1274 0.929 . S
C1288 C1287 1.399 . S
C1288 C1289 1.385 . S
C1289 H1275 0.931 . S
C1289 C1288 1.385 . S
C1289 C1290 1.389 . S
C1290 C1289 1.389 . S
C1290 C1291 1.387 . S
C1291 H1276 0.930 . S
C1291 C1286 1.390 . S
C1291 C1290 1.387 . S
H1292 C1304 0.930 . S
H1293 C1306 0.930 . S
H1294 C1307 0.930 . S
H1295 C1311 0.959 . S
H1296 C1311 0.959 . S
H1297 C1311 0.961 . S
H1298 C1312 0.960 . S
H1299 C1312 0.961 . S
H1300 C1312 0.959 . S
H1301 C1315 0.929 . S
H1302 C1316 0.931 . S
H1303 C1318 0.930 . S
C1304 H1292 0.930 . S
C1304 C1305 1.399 . S
C1304 C1309 1.399 . S
C1305 C1304 1.399 . S
C1305 C1306 1.376 . S
C1306 H1293 0.930 . S
C1306 C1305 1.376 . S
C1306 C1307 1.388 . S
C1307 H1294 0.930 . S
C1307 C1306 1.388 . S
C1307 C1308 1.390 . S
C1308 C1307 1.390 . S
C1308 C1309 1.394 . S
C1308 C1314 1.465 . S
C1309 C1304 1.399 . S
C1309 C1308 1.394 . S
C1309 C1310 1.516 . S
C1310 C1309 1.516 . S
C1310 C1311 1.502 . S
C1310 C1312 1.561 . S
C1310 C1313 1.526 . S
C1311 H1295 0.959 . S
C1311 H1296 0.959 . S
C1311 H1297 0.961 . S
C1311 C1310 1.502 . S
C1312 H1298 0.960 . S
C1312 H1299 0.961 . S
C1312 H1300 0.959 . S
C1312 C1310 1.561 . S
C1313 C1310 1.526 . S
C1313 C1314 1.396 . S
C1313 C1318 1.390 . S
C1314 C1308 1.465 . S
C1314 C1313 1.396 . S
C1314 C1315 1.399 . S
C1315 H1301 0.929 . S
C1315 C1314 1.399 . S
C1315 C1316 1.385 . S
C1316 H1302 0.931 . S
C1316 C1315 1.385 . S
C1316 C1317 1.389 . S
C1317 C1316 1.389 . S
C1317 C1318 1.387 . S
C1318 H1303 0.930 . S
C1318 C1313 1.390 . S
C1318 C1317 1.387 . S
H1319 C1331 0.930 . S
H1320 C1333 0.930 . S
H1321 C1334 0.930 . S
H1322 C1338 0.959 . S
H1323 C1338 0.959 . S
H1324 C1338 0.961 . S
H1325 C1339 0.960 . S
H1326 C1339 0.961 . S
H1327 C1339 0.959 . S
H1328 C1342 0.929 . S
H1329 C1343 0.931 . S
H1330 C1345 0.930 . S
C1331 H1319 0.930 . S
C1331 C1332 1.399 . S
C1331 C1336 1.399 . S
C1332 C1331 1.399 . S
C1332 C1333 1.376 1_554 S
C1333 H1320 0.930 . S
C1333 C1332 1.376 1_556 S
C1333 C1334 1.388 . S
C1334 H1321 0.930 . S
C1334 C1333 1.388 . S
C1334 C1335 1.390 1_556 S
C1335 C1334 1.390 1_554 S
C1335 C1336 1.394 . S
C1335 C1341 1.465 . S
C1336 C1331 1.399 . S
C1336 C1335 1.394 . S
C1336 C1337 1.516 . S
C1337 C1336 1.516 . S
C1337 C1338 1.502 . S
C1337 C1339 1.561 . S
C1337 C1340 1.526 . S
C1338 H1322 0.959 . S
C1338 H1323 0.959 . S
C1338 H1324 0.961 . S
C1338 C1337 1.502 . S
C1339 H1325 0.960 . S
C1339 H1326 0.961 . S
C1339 H1327 0.959 . S
C1339 C1337 1.561 . S
C1340 C1337 1.526 . S
C1340 C1341 1.396 . S
C1340 C1345 1.390 . S
C1341 C1335 1.465 . S
C1341 C1340 1.396 . S
C1341 C1342 1.399 1_554 S
C1342 H1328 0.929 . S
C1342 C1341 1.399 1_556 S
C1342 C1343 1.385 . S
C1343 H1329 0.931 . S
C1343 C1342 1.385 . S
C1343 C1344 1.389 1_556 S
C1344 C1343 1.389 1_554 S
C1344 C1345 1.387 . S
C1345 H1330 0.930 . S
C1345 C1340 1.390 . S
C1345 C1344 1.387 . S
H1346 C1358 0.930 . S
H1347 C1360 0.930 . S
H1348 C1361 0.930 . S
H1349 C1365 0.959 . S
H1350 C1365 0.959 . S
H1351 C1365 0.961 . S
H1352 C1366 0.960 . S
H1353 C1366 0.961 . S
H1354 C1366 0.959 . S
H1355 C1369 0.929 . S
H1356 C1370 0.931 . S
H1357 C1372 0.930 . S
C1358 H1346 0.930 . S
C1358 C1359 1.399 . S
C1358 C1363 1.399 . S
C1359 C1358 1.399 . S
C1359 C1360 1.376 . S
C1360 H1347 0.930 . S
C1360 C1359 1.376 . S
C1360 C1361 1.388 . S
C1361 H1348 0.930 . S
C1361 C1360 1.388 . S
C1361 C1362 1.390 . S
C1362 C1361 1.390 . S
C1362 C1363 1.394 . S
C1362 C1368 1.465 . S
C1363 C1358 1.399 . S
C1363 C1362 1.394 . S
C1363 C1364 1.516 . S
C1364 C1363 1.516 . S
C1364 C1365 1.502 . S
C1364 C1366 1.561 . S
C1364 C1367 1.526 . S
C1365 H1349 0.959 . S
C1365 H1350 0.959 . S
C1365 H1351 0.961 . S
C1365 C1364 1.502 . S
C1366 H1352 0.960 . S
C1366 H1353 0.961 . S
C1366 H1354 0.959 . S
C1366 C1364 1.561 . S
C1367 C1364 1.526 . S
C1367 C1368 1.396 . S
C1367 C1372 1.390 . S
C1368 C1362 1.465 . S
C1368 C1367 1.396 . S
C1368 C1369 1.399 . S
C1369 H1355 0.929 . S
C1369 C1368 1.399 . S
C1369 C1370 1.385 . S
C1370 H1356 0.931 . S
C1370 C1369 1.385 . S
C1370 C1371 1.389 . S
C1371 C1370 1.389 . S
C1371 C1372 1.387 . S
C1372 H1357 0.930 . S
C1372 C1367 1.390 . S
C1372 C1371 1.387 . S
H1373 C1385 0.930 . S
H1374 C1387 0.930 . S
H1375 C1388 0.930 . S
H1376 C1392 0.959 . S
H1377 C1392 0.959 . S
H1378 C1392 0.961 . S
H1379 C1393 0.960 . S
H1380 C1393 0.961 . S
H1381 C1393 0.959 . S
H1382 C1396 0.929 . S
H1383 C1397 0.931 . S
H1384 C1399 0.930 . S
C1385 H1373 0.930 . S
C1385 C1386 1.399 . S
C1385 C1390 1.399 . S
C1386 C1385 1.399 . S
C1386 C1387 1.376 . S
C1387 H1374 0.930 . S
C1387 C1386 1.376 . S
C1387 C1388 1.388 . S
C1388 H1375 0.930 . S
C1388 C1387 1.388 . S
C1388 C1389 1.390 . S
C1389 C1388 1.390 . S
C1389 C1390 1.394 . S
C1389 C1395 1.465 . S
C1390 C1385 1.399 . S
C1390 C1389 1.394 . S
C1390 C1391 1.516 . S
C1391 C1390 1.516 . S
C1391 C1392 1.502 . S
C1391 C1393 1.561 . S
C1391 C1394 1.526 . S
C1392 H1376 0.959 . S
C1392 H1377 0.959 . S
C1392 H1378 0.961 . S
C1392 C1391 1.502 . S
C1393 H1379 0.960 . S
C1393 H1380 0.961 . S
C1393 H1381 0.959 . S
C1393 C1391 1.561 . S
C1394 C1391 1.526 . S
C1394 C1395 1.396 . S
C1394 C1399 1.390 . S
C1395 C1389 1.465 . S
C1395 C1394 1.396 . S
C1395 C1396 1.399 . S
C1396 H1382 0.929 . S
C1396 C1395 1.399 . S
C1396 C1397 1.385 . S
C1397 H1383 0.931 . S
C1397 C1396 1.385 . S
C1397 C1398 1.389 . S
C1398 C1397 1.389 . S
C1398 C1399 1.387 . S
C1399 H1384 0.930 . S
C1399 C1394 1.390 . S
C1399 C1398 1.387 . S
H1400 C1412 0.930 . S
H1401 C1414 0.930 . S
H1402 C1415 0.930 . S
H1403 C1419 0.959 . S
H1404 C1419 0.959 . S
H1405 C1419 0.961 . S
H1406 C1420 0.960 . S
H1407 C1420 0.961 . S
H1408 C1420 0.959 . S
H1409 C1423 0.929 . S
H1410 C1424 0.931 . S
H1411 C1426 0.930 . S
C1412 H1400 0.930 . S
C1412 C1413 1.399 . S
C1412 C1417 1.399 . S
C1413 C1412 1.399 . S
C1413 C1414 1.376 . S
C1414 H1401 0.930 . S
C1414 C1413 1.376 . S
C1414 C1415 1.388 . S
C1415 H1402 0.930 . S
C1415 C1414 1.388 . S
C1415 C1416 1.390 . S
C1416 C1415 1.390 . S
C1416 C1417 1.394 . S
C1416 C1422 1.465 . S
C1417 C1412 1.399 . S
C1417 C1416 1.394 . S
C1417 C1418 1.516 . S
C1418 C1417 1.516 . S
C1418 C1419 1.502 . S
C1418 C1420 1.561 . S
C1418 C1421 1.526 . S
C1419 H1403 0.959 . S
C1419 H1404 0.959 . S
C1419 H1405 0.961 . S
C1419 C1418 1.502 . S
C1420 H1406 0.960 . S
C1420 H1407 0.961 . S
C1420 H1408 0.959 . S
C1420 C1418 1.561 . S
C1421 C1418 1.526 . S
C1421 C1422 1.396 . S
C1421 C1426 1.390 . S
C1422 C1416 1.465 . S
C1422 C1421 1.396 . S
C1422 C1423 1.399 . S
C1423 H1409 0.929 . S
C1423 C1422 1.399 . S
C1423 C1424 1.385 . S
C1424 H1410 0.931 . S
C1424 C1423 1.385 . S
C1424 C1425 1.389 . S
C1425 C1424 1.389 . S
C1425 C1426 1.387 . S
C1426 H1411 0.930 . S
C1426 C1421 1.390 . S
C1426 C1425 1.387 . S
H1427 C1439 0.930 . S
H1428 C1441 0.930 . S
H1429 C1442 0.930 . S
H1430 C1446 0.959 . S
H1431 C1446 0.959 . S
H1432 C1446 0.961 . S
H1433 C1447 0.960 . S
H1434 C1447 0.961 . S
H1435 C1447 0.959 . S
H1436 C1450 0.929 . S
H1437 C1451 0.931 . S
H1438 C1453 0.930 . S
C1439 H1427 0.930 . S
C1439 C1440 1.399 . S
C1439 C1444 1.399 . S
C1440 C1439 1.399 . S
C1440 C1441 1.376 . S
C1441 H1428 0.930 . S
C1441 C1440 1.376 . S
C1441 C1442 1.388 . S
C1442 H1429 0.930 . S
C1442 C1441 1.388 . S
C1442 C1443 1.390 . S
C1443 C1442 1.390 . S
C1443 C1444 1.394 . S
C1443 C1449 1.465 . S
C1444 C1439 1.399 . S
C1444 C1443 1.394 . S
C1444 C1445 1.516 . S
C1445 C1444 1.516 . S
C1445 C1446 1.502 . S
C1445 C1447 1.561 . S
C1445 C1448 1.526 . S
C1446 H1430 0.959 . S
C1446 H1431 0.959 . S
C1446 H1432 0.961 . S
C1446 C1445 1.502 . S
C1447 H1433 0.960 . S
C1447 H1434 0.961 . S
C1447 H1435 0.959 . S
C1447 C1445 1.561 . S
C1448 C1445 1.526 . S
C1448 C1449 1.396 . S
C1448 C1453 1.390 . S
C1449 C1443 1.465 . S
C1449 C1448 1.396 . S
C1449 C1450 1.399 . S
C1450 H1436 0.929 . S
C1450 C1449 1.399 . S
C1450 C1451 1.385 . S
C1451 H1437 0.931 . S
C1451 C1450 1.385 . S
C1451 C1452 1.389 . S
C1452 C1451 1.389 . S
C1452 C1453 1.387 . S
C1453 H1438 0.930 . S
C1453 C1448 1.390 . S
C1453 C1452 1.387 . S
H1454 C1466 0.930 . S
H1455 C1468 0.930 . S
H1456 C1469 0.930 . S
H1457 C1473 0.959 . S
H1458 C1473 0.959 . S
H1459 C1473 0.961 . S
H1460 C1474 0.960 . S
H1461 C1474 0.961 . S
H1462 C1474 0.959 . S
H1463 C1477 0.929 . S
H1464 C1478 0.931 . S
H1465 C1480 0.937 . S
C1466 H1454 0.930 . S
C1466 C1467 1.399 1_554 S
C1466 C1471 1.400 . S
C1467 C1466 1.399 1_556 S
C1467 C1468 1.376 . S
C1468 H1455 0.930 . S
C1468 C1467 1.376 . S
C1468 C1469 1.388 . S
C1469 H1456 0.930 . S
C1469 C1468 1.388 . S
C1469 C1470 1.390 . S
C1470 C1469 1.390 . S
C1470 C1471 1.391 1_556 S
C1470 C1476 1.465 . S
C1471 C1466 1.400 . S
C1471 C1470 1.391 1_554 S
C1471 C1472 1.517 . S
C1472 C1471 1.517 . S
C1472 C1473 1.502 . S
C1472 C1474 1.561 . S
C1472 C1475 1.526 1_554 S
C1473 H1457 0.959 . S
C1473 H1458 0.959 . S
C1473 H1459 0.961 . S
C1473 C1472 1.502 . S
C1474 H1460 0.960 . S
C1474 H1461 0.961 . S
C1474 H1462 0.959 . S
C1474 C1472 1.561 . S
C1475 C1472 1.526 1_556 S
C1475 C1476 1.396 . S
C1475 C1480 1.389 1_556 S
C1476 C1470 1.465 . S
C1476 C1475 1.396 . S
C1476 C1477 1.399 . S
C1477 H1463 0.929 . S
C1477 C1476 1.399 . S
C1477 C1478 1.385 . S
C1478 H1464 0.931 . S
C1478 C1477 1.385 . S
C1478 C1479 1.389 . S
C1479 C1478 1.389 . S
C1479 C1480 1.380 1_556 S
C1480 H1465 0.937 . S
C1480 C1475 1.389 1_554 S
C1480 C1479 1.380 1_554 S
H1481 C1493 0.930 . S
H1482 C1495 0.930 . S
H1483 C1496 0.930 . S
H1484 C1500 0.959 . S
H1485 C1500 0.959 . S
H1486 C1500 0.961 . S
H1487 C1501 0.960 . S
H1488 C1501 0.961 . S
H1489 C1501 0.959 . S
H1490 C1504 0.929 . S
H1491 C1505 0.931 . S
H1492 C1507 0.930 . S
C1493 H1481 0.930 . S
C1493 C1494 1.399 . S
C1493 C1498 1.399 . S
C1494 C1493 1.399 . S
C1494 C1495 1.376 . S
C1495 H1482 0.930 . S
C1495 C1494 1.376 . S
C1495 C1496 1.388 . S
C1496 H1483 0.930 . S
C1496 C1495 1.388 . S
C1496 C1497 1.390 . S
C1497 C1496 1.390 . S
C1497 C1498 1.394 . S
C1497 C1503 1.465 . S
C1498 C1493 1.399 . S
C1498 C1497 1.394 . S
C1498 C1499 1.516 . S
C1499 C1498 1.516 . S
C1499 C1500 1.502 . S
C1499 C1501 1.561 . S
C1499 C1502 1.526 . S
C1500 H1484 0.959 . S
C1500 H1485 0.959 . S
C1500 H1486 0.961 . S
C1500 C1499 1.502 . S
C1501 H1487 0.960 . S
C1501 H1488 0.961 . S
C1501 H1489 0.959 . S
C1501 C1499 1.561 . S
C1502 C1499 1.526 . S
C1502 C1503 1.396 . S
C1502 C1507 1.390 . S
C1503 C1497 1.465 . S
C1503 C1502 1.396 . S
C1503 C1504 1.399 . S
C1504 H1490 0.929 . S
C1504 C1503 1.399 . S
C1504 C1505 1.385 . S
C1505 H1491 0.931 . S
C1505 C1504 1.385 . S
C1505 C1506 1.389 . S
C1506 C1505 1.389 . S
C1506 C1507 1.387 . S
C1507 H1492 0.930 . S
C1507 C1502 1.390 . S
C1507 C1506 1.387 . S
H1508 C1520 0.930 . S
H1509 C1522 0.930 . S
H1510 C1523 0.930 . S
H1511 C1527 0.959 . S
H1512 C1527 0.959 . S
H1513 C1527 0.961 . S
H1514 C1528 0.960 . S
H1515 C1528 0.961 . S
H1516 C1528 0.959 . S
H1517 C1531 0.929 . S
H1518 C1532 0.931 . S
H1519 C1534 0.930 . S
C1520 H1508 0.930 . S
C1520 C1521 1.399 . S
C1520 C1525 1.399 . S
C1521 C1520 1.399 . S
C1521 C1522 1.376 . S
C1522 H1509 0.930 . S
C1522 C1521 1.376 . S
C1522 C1523 1.388 . S
C1523 H1510 0.930 . S
C1523 C1522 1.388 . S
C1523 C1524 1.390 . S
C1524 C1523 1.390 . S
C1524 C1525 1.394 . S
C1524 C1530 1.465 . S
C1525 C1520 1.399 . S
C1525 C1524 1.394 . S
C1525 C1526 1.516 . S
C1526 C1525 1.516 . S
C1526 C1527 1.502 . S
C1526 C1528 1.561 . S
C1526 C1529 1.526 . S
C1527 H1511 0.959 . S
C1527 H1512 0.959 . S
C1527 H1513 0.961 . S
C1527 C1526 1.502 . S
C1528 H1514 0.960 . S
C1528 H1515 0.961 . S
C1528 H1516 0.959 . S
C1528 C1526 1.561 . S
C1529 C1526 1.526 . S
C1529 C1530 1.396 . S
C1529 C1534 1.390 . S
C1530 C1524 1.465 . S
C1530 C1529 1.396 . S
C1530 C1531 1.399 . S
C1531 H1517 0.929 . S
C1531 C1530 1.399 . S
C1531 C1532 1.385 . S
C1532 H1518 0.931 . S
C1532 C1531 1.385 . S
C1532 C1533 1.389 . S
C1533 C1532 1.389 . S
C1533 C1534 1.387 . S
C1534 H1519 0.930 . S
C1534 C1529 1.390 . S
C1534 C1533 1.387 . S
H1535 C1547 0.930 . S
H1536 C1549 0.930 . S
H1537 C1550 0.930 . S
H1538 C1554 0.959 . S
H1539 C1554 0.959 . S
H1540 C1554 0.961 . S
H1541 C1555 0.960 . S
H1542 C1555 0.961 . S
H1543 C1555 0.959 . S
H1544 C1558 0.929 . S
H1545 C1559 0.931 . S
H1546 C1561 0.930 . S
C1547 H1535 0.930 . S
C1547 C1548 1.399 . S
C1547 C1552 1.399 . S
C1548 C1547 1.399 . S
C1548 C1549 1.376 . S
C1549 H1536 0.930 . S
C1549 C1548 1.376 . S
C1549 C1550 1.388 . S
C1550 H1537 0.930 . S
C1550 C1549 1.388 . S
C1550 C1551 1.390 . S
C1551 C1550 1.390 . S
C1551 C1552 1.394 . S
C1551 C1557 1.465 . S
C1552 C1547 1.399 . S
C1552 C1551 1.394 . S
C1552 C1553 1.516 . S
C1553 C1552 1.516 . S
C1553 C1554 1.502 . S
C1553 C1555 1.561 . S
C1553 C1556 1.526 . S
C1554 H1538 0.959 . S
C1554 H1539 0.959 . S
C1554 H1540 0.961 . S
C1554 C1553 1.502 . S
C1555 H1541 0.960 . S
C1555 H1542 0.961 . S
C1555 H1543 0.959 . S
C1555 C1553 1.561 . S
C1556 C1553 1.526 . S
C1556 C1557 1.396 . S
C1556 C1561 1.390 . S
C1557 C1551 1.465 . S
C1557 C1556 1.396 . S
C1557 C1558 1.399 . S
C1558 H1544 0.929 . S
C1558 C1557 1.399 . S
C1558 C1559 1.385 . S
C1559 H1545 0.931 . S
C1559 C1558 1.385 . S
C1559 C1560 1.389 . S
C1560 C1559 1.389 . S
C1560 C1561 1.387 . S
C1561 H1546 0.930 . S
C1561 C1556 1.390 . S
C1561 C1560 1.387 . S
H1562 C1574 0.930 . S
H1563 C1576 0.930 . S
H1564 C1577 0.930 . S
H1565 C1581 0.959 . S
H1566 C1581 0.959 . S
H1567 C1581 0.961 . S
H1568 C1582 0.960 . S
H1569 C1582 0.961 . S
H1570 C1582 0.959 . S
H1571 C1585 0.929 . S
H1572 C1586 0.931 . S
H1573 C1588 0.930 . S
C1574 H1562 0.930 . S
C1574 C1575 1.399 . S
C1574 C1579 1.399 . S
C1575 C1574 1.399 . S
C1575 C1576 1.376 . S
C1576 H1563 0.930 . S
C1576 C1575 1.376 . S
C1576 C1577 1.388 . S
C1577 H1564 0.930 . S
C1577 C1576 1.388 . S
C1577 C1578 1.390 . S
C1578 C1577 1.390 . S
C1578 C1579 1.394 . S
C1578 C1584 1.465 . S
C1579 C1574 1.399 . S
C1579 C1578 1.394 . S
C1579 C1580 1.516 . S
C1580 C1579 1.516 . S
C1580 C1581 1.502 . S
C1580 C1582 1.561 . S
C1580 C1583 1.526 . S
C1581 H1565 0.959 . S
C1581 H1566 0.959 . S
C1581 H1567 0.961 . S
C1581 C1580 1.502 . S
C1582 H1568 0.960 . S
C1582 H1569 0.961 . S
C1582 H1570 0.959 . S
C1582 C1580 1.561 . S
C1583 C1580 1.526 . S
C1583 C1584 1.396 . S
C1583 C1588 1.390 . S
C1584 C1578 1.465 . S
C1584 C1583 1.396 . S
C1584 C1585 1.399 . S
C1585 H1571 0.929 . S
C1585 C1584 1.399 . S
C1585 C1586 1.385 . S
C1586 H1572 0.931 . S
C1586 C1585 1.385 . S
C1586 C1587 1.389 . S
C1587 C1586 1.389 . S
C1587 C1588 1.387 . S
C1588 H1573 0.930 . S
C1588 C1583 1.390 . S
C1588 C1587 1.387 . S
H1589 C1601 0.930 . S
H1590 C1603 0.930 . S
H1591 C1604 0.930 . S
H1592 C1608 0.959 . S
H1593 C1608 0.959 . S
H1594 C1608 0.961 . S
H1595 C1609 0.960 . S
H1596 C1609 0.961 . S
H1597 C1609 0.959 . S
H1598 C1612 0.929 . S
H1599 C1613 0.931 . S
H1600 C1615 0.930 . S
C1601 H1589 0.930 . S
C1601 C1602 1.399 . S
C1601 C1606 1.399 . S
C1602 C1601 1.399 . S
C1602 C1603 1.376 . S
C1603 H1590 0.930 . S
C1603 C1602 1.376 . S
C1603 C1604 1.388 . S
C1604 H1591 0.930 . S
C1604 C1603 1.388 . S
C1604 C1605 1.390 . S
C1605 C1604 1.390 . S
C1605 C1606 1.394 . S
C1605 C1611 1.465 . S
C1606 C1601 1.399 . S
C1606 C1605 1.394 . S
C1606 C1607 1.516 . S
C1607 C1606 1.516 . S
C1607 C1608 1.502 . S
C1607 C1609 1.561 . S
C1607 C1610 1.526 . S
C1608 H1592 0.959 . S
C1608 H1593 0.959 . S
C1608 H1594 0.961 . S
C1608 C1607 1.502 . S
C1609 H1595 0.960 . S
C1609 H1596 0.961 . S
C1609 H1597 0.959 . S
C1609 C1607 1.561 . S
C1610 C1607 1.526 . S
C1610 C1611 1.396 . S
C1610 C1615 1.390 . S
C1611 C1605 1.465 . S
C1611 C1610 1.396 . S
C1611 C1612 1.399 . S
C1612 H1598 0.929 . S
C1612 C1611 1.399 . S
C1612 C1613 1.385 . S
C1613 H1599 0.931 . S
C1613 C1612 1.385 . S
C1613 C1614 1.389 . S
C1614 C1613 1.389 . S
C1614 C1615 1.387 . S
C1615 H1600 0.930 . S
C1615 C1610 1.390 . S
C1615 C1614 1.387 . S
C333 C19 0.959 . S
C345 C21 0.988 . S
C360 C59 1.266 . S
C372 C38 1.256 . S
C387 C78 1.396 . S
C399 C49 1.415 . S
C414 C9 1.028 . S
C426 C61 1.017 . S
C441 C8 1.081 . S
C453 C182 1.099 . S
C468 C158 0.956 . S
C480 C22 0.914 . S
C495 C58 1.255 . S
C507 C219 1.247 . S
C522 C79 1.387 . S
C534 C268 1.370 . S
C549 C178 1.269 . S
C561 C39 1.272 . S
C576 C259 1.391 . S
C588 C48 1.356 . S
C603 C288 1.071 . S
C615 C62 1.100 . S
C630 C18 0.965 . S
C642 C222 0.955 . S
C657 C1 0.484 . S
C669 C162 0.521 . S
C684 C249 1.084 . S
C696 C88 1.087 . S
C711 C101 0.531 . S
C723 C282 0.467 . S
C738 C228 1.154 . S
C750 C129 1.144 . S
C765 C41 0.533 . S
C777 C142 0.474 . S
C792 C188 1.157 . S
C804 C89 1.145 . S
C819 C128 1.105 . S
C831 C209 1.121 . S
C846 C118 1.269 . S
C858 C239 1.273 . S
C873 C199 1.387 . S
C885 C108 1.366 . S
C900 C221 0.970 . S
C912 C159 0.963 . S
C927 C119 1.265 . S
C939 C98 1.254 . S
C954 C198 1.405 . S
C966 C169 1.351 . S
C981 C279 1.262 . S
C993 C238 1.251 . S
C1008 C138 1.388 . S
C1020 C109 1.400 . S
C1035 C181 1.017 . S
C1047 C289 1.028 . S
C1062 C261 0.492 . S
C1074 C2 0.414 . S
C1089 C42 0.449 . S
C1101 C281 0.419 . S
C1116 C248 1.102 . S
C1128 C29 1.117 . S
C1143 C141 0.378 . S
C1155 C102 0.372 . S
C1170 C69 1.160 . S
C1182 C208 1.152 . S
C1197 C258 1.403 . S
C1209 C269 1.417 . S
C1224 C149 1.100 . S
C1236 C241 1.025 . S
C1251 C122 1.034 . S
C1263 C148 1.090 . S
C1278 C99 1.259 . S
C1290 C278 1.259 . S
C1305 C242 1.085 . S
C1317 C308 1.100 . S
C1332 C302 0.393 . S
C1344 C161 0.466 . S
C1359 C28 1.156 . S
C1371 C189 1.162 . S
C1386 C168 1.395 . S
C1398 C139 1.393 . S
C1413 C179 1.262 . S
C1425 C218 1.272 . S
C1440 C309 1.030 . S
C1452 C121 1.097 . S
C1467 C262 0.471 . S
C1479 C301 0.456 . S
C1494 C229 1.162 . S
C1506 C68 1.151 . S
C1521 C201 0.966 . S
C1533 C299 0.963 . S
C1548 C202 0.919 . S
C1560 C318 0.957 . S
C1575 C82 0.902 . S
C1587 C298 0.958 . S
C1602 C319 0.963 . S
C1614 C81 0.898 . S
