# Generated by pormake.
# Topology mon, (4)-cn, num edge types: 1
# Building blocks:
#     Node 0, Type 0, BuildingBlock: ICAMEG_clean_sbu_1, # of connection points: 4
#     Node 1, Type 0, BuildingBlock: ICAMEG_clean_sbu_1, # of connection points: 4
#     Node 2, Type 0, BuildingBlock: ICAMEG_clean_sbu_1, # of connection points: 4
#     Node 3, Type 0, BuildingBlock: ICAMEG_clean_sbu_1, # of connection points: 4
#     Node 4, Type 0, BuildingBlock: ICAMEG_clean_sbu_1, # of connection points: 4
#     Node 5, Type 0, BuildingBlock: ICAMEG_clean_sbu_1, # of connection points: 4
#     Node 6, Type 0, BuildingBlock: ICAMEG_clean_sbu_1, # of connection points: 4
#     Node 7, Type 0, BuildingBlock: ICAMEG_clean_sbu_1, # of connection points: 4
#     Node 8, Type 0, BuildingBlock: ICAMEG_clean_sbu_1, # of connection points: 4
#     Node 9, Type 0, BuildingBlock: ICAMEG_clean_sbu_1, # of connection points: 4
#     Node 10, Type 0, BuildingBlock: ICAMEG_clean_sbu_1, # of connection points: 4
#     Node 11, Type 0, BuildingBlock: ICAMEG_clean_sbu_1, # of connection points: 4
#     Node 12, Type 0, BuildingBlock: ICAMEG_clean_sbu_1, # of connection points: 4
#     Node 13, Type 0, BuildingBlock: ICAMEG_clean_sbu_1, # of connection points: 4
#     Node 14, Type 0, BuildingBlock: ICAMEG_clean_sbu_1, # of connection points: 4
#     Node 15, Type 0, BuildingBlock: ICAMEG_clean_sbu_1, # of connection points: 4
#     Edge 16, Type (0, 0), BuildingBlock: UVAHIK_clean_linker_0, # of connection points: 2
#     Edge 17, Type (0, 0), BuildingBlock: UVAHIK_clean_linker_0, # of connection points: 2
#     Edge 18, Type (0, 0), BuildingBlock: UVAHIK_clean_linker_0, # of connection points: 2
#     Edge 19, Type (0, 0), BuildingBlock: UVAHIK_clean_linker_0, # of connection points: 2
#     Edge 20, Type (0, 0), BuildingBlock: UVAHIK_clean_linker_0, # of connection points: 2
#     Edge 21, Type (0, 0), BuildingBlock: UVAHIK_clean_linker_0, # of connection points: 2
#     Edge 22, Type (0, 0), BuildingBlock: UVAHIK_clean_linker_0, # of connection points: 2
#     Edge 23, Type (0, 0), BuildingBlock: UVAHIK_clean_linker_0, # of connection points: 2
#     Edge 24, Type (0, 0), BuildingBlock: UVAHIK_clean_linker_0, # of connection points: 2
#     Edge 25, Type (0, 0), BuildingBlock: UVAHIK_clean_linker_0, # of connection points: 2
#     Edge 26, Type (0, 0), BuildingBlock: UVAHIK_clean_linker_0, # of connection points: 2
#     Edge 27, Type (0, 0), BuildingBlock: UVAHIK_clean_linker_0, # of connection points: 2
#     Edge 28, Type (0, 0), BuildingBlock: UVAHIK_clean_linker_0, # of connection points: 2
#     Edge 29, Type (0, 0), BuildingBlock: UVAHIK_clean_linker_0, # of connection points: 2
#     Edge 30, Type (0, 0), BuildingBlock: UVAHIK_clean_linker_0, # of connection points: 2
#     Edge 31, Type (0, 0), BuildingBlock: UVAHIK_clean_linker_0, # of connection points: 2
#     Edge 32, Type (0, 0), BuildingBlock: UVAHIK_clean_linker_0, # of connection points: 2
#     Edge 33, Type (0, 0), BuildingBlock: UVAHIK_clean_linker_0, # of connection points: 2
#     Edge 34, Type (0, 0), BuildingBlock: UVAHIK_clean_linker_0, # of connection points: 2
#     Edge 35, Type (0, 0), BuildingBlock: UVAHIK_clean_linker_0, # of connection points: 2
#     Edge 36, Type (0, 0), BuildingBlock: UVAHIK_clean_linker_0, # of connection points: 2
#     Edge 37, Type (0, 0), BuildingBlock: UVAHIK_clean_linker_0, # of connection points: 2
#     Edge 38, Type (0, 0), BuildingBlock: UVAHIK_clean_linker_0, # of connection points: 2
#     Edge 39, Type (0, 0), BuildingBlock: UVAHIK_clean_linker_0, # of connection points: 2
#     Edge 40, Type (0, 0), BuildingBlock: UVAHIK_clean_linker_0, # of connection points: 2
#     Edge 41, Type (0, 0), BuildingBlock: UVAHIK_clean_linker_0, # of connection points: 2
#     Edge 42, Type (0, 0), BuildingBlock: UVAHIK_clean_linker_0, # of connection points: 2
#     Edge 43, Type (0, 0), BuildingBlock: UVAHIK_clean_linker_0, # of connection points: 2
#     Edge 44, Type (0, 0), BuildingBlock: UVAHIK_clean_linker_0, # of connection points: 2
#     Edge 45, Type (0, 0), BuildingBlock: UVAHIK_clean_linker_0, # of connection points: 2
#     Edge 46, Type (0, 0), BuildingBlock: UVAHIK_clean_linker_0, # of connection points: 2
#     Edge 47, Type (0, 0), BuildingBlock: UVAHIK_clean_linker_0, # of connection points: 2
# Relax obj value: 0.220
# Max RMSD: 0.232
# Mean RMSD: 0.232
data_MOF--net-mon--node1-ICAMEG_clean_sbu_1--edge1-UVAHIK_clean_linker_0
_symmetry_space_group_name_H-M    P1
_symmetry_Int_Tables_number       1
_symmetry_cell_setting            triclinic
loop_
_symmetry_equiv_pos_as_xyz
'x, y, z'
_cell_length_a     44.078788
_cell_length_b     44.063464
_cell_length_c     121.66477
_cell_angle_alpha  89.983106
_cell_angle_beta   90.007662
_cell_angle_gamma 90.009311
loop_
_atom_site_label
_atom_site_type_symbol
_atom_site_fract_x
_atom_site_fract_y
_atom_site_fract_z
_atom_type_partial_charge
Co0 Co 0.99488 0.98608 0.57599 0.0
Co1 Co 0.01412 0.03377 0.5974 0.0
O2 O 0.01034 0.02506 0.58156 0.0
C3 C 0.04742 0.00196 0.56099 0.0
O4 O 0.05768 0.02218 0.56795 0.0
C5 C 0.98685 0.09026 0.58767 0.0
O6 O 0.97202 0.07403 0.58041 0.0
O7 O 0.97064 0.02325 0.59989 0.0
O8 O 0.96461 0.98406 0.58829 0.0
H9 H 1.00094 0.01213 0.6377 0.0
H10 H 0.99789 0.03974 0.5612 0.0
O11 O 0.02399 0.98625 0.56325 0.0
H12 H 0.89086 0.00746 0.56063 0.0
H13 H 0.96167 0.91142 0.54699 0.0
H14 H 0.97736 0.92824 0.58665 0.0
H15 H 0.92856 0.97948 0.57163 0.0
H16 H 0.98033 0.96071 0.55379 0.0
O17 O 0.0032 0.07743 0.59493 0.0
H18 H 0.99664 0.00151 0.61787 0.0
H19 H 0.03991 0.08515 0.61042 0.0
H20 H 0.95835 0.8787 0.58021 0.0
H21 H 0.9612 0.06796 0.54988 0.0
H22 H 0.9504 0.87004 0.56024 0.0
H23 H 0.90715 0.052 0.54959 0.0
O24 O 0.02534 0.96359 0.585 0.0
H25 H 0.10112 0.08692 0.57881 0.0
H26 H 0.0722 0.01524 0.60812 0.0
H27 H 0.12617 0.02745 0.60525 0.0
H28 H 0.14095 0.06364 0.59053 0.0
H29 H 0.04746 0.07363 0.58181 0.0
H30 H 0.04448 0.09677 0.63016 0.0
H31 H 0.025 0.06008 0.64397 0.0
O32 O 0.02566 0.99084 0.60055 0.0
C33 C 0.95581 1.00033 0.59637 0.0
C34 C 0.00952 0.02831 0.63177 0.0
C35 C 0.03392 0.07582 0.62754 0.0
N36 N 0.01793 0.04268 0.61298 0.0
C37 C 0.00715 0.02241 0.62052 0.0
C38 C 0.03115 0.06916 0.61636 0.0
C39 C 0.023 0.05522 0.63528 0.0
C40 C 0.97456 0.03236 0.56103 0.0
N41 N 0.96541 0.00799 0.56714 0.0
C42 C 0.95381 0.04857 0.55464 0.0
C43 C 0.92349 0.03965 0.5545 0.0
C44 C 0.91432 0.01472 0.56071 0.0
C45 C 0.93572 0.99909 0.56701 0.0
C46 C 0.965 0.91494 0.55571 0.0
C47 C 0.97378 0.92472 0.57796 0.0
C48 C 0.97566 0.94277 0.55961 0.0
N49 N 0.97976 0.94743 0.57062 0.0
C50 C 0.9631 0.89659 0.57435 0.0
C51 C 0.95867 0.89173 0.56315 0.0
C52 C 0.03217 0.96702 0.59511 0.0
C53 C 0.09497 0.07115 0.58526 0.0
C54 C 0.07841 0.03074 0.60161 0.0
C55 C 0.10903 0.0377 0.60007 0.0
C56 C 0.1173 0.05804 0.59182 0.0
N57 N 0.05661 0.04364 0.59512 0.0
C58 C 0.06457 0.06366 0.58704 0.0
Co59 Co 0.27288 0.73537 0.82627 0.0
Co60 Co 0.22941 0.75192 0.84874 0.0
O61 O 0.23519 0.75012 0.83281 0.0
C62 C 0.28651 0.78273 0.80958 0.0
O63 O 0.31346 0.78555 0.81408 0.0
C64 C 0.17217 0.72488 0.84002 0.0
O65 O 0.18818 0.70862 0.8331 0.0
O66 O 0.23951 0.70802 0.85006 0.0
O67 O 0.27895 0.70511 0.83844 0.0
H68 H 0.2571 0.73155 0.88814 0.0
H69 H 0.21749 0.73769 0.81243 0.0
O70 O 0.26695 0.76499 0.81388 0.0
H71 H 0.24859 0.63022 0.81249 0.0
H72 H 0.33992 0.70104 0.79505 0.0
H73 H 0.3341 0.72117 0.83487 0.0
H74 H 0.27833 0.66844 0.82261 0.0
H75 H 0.29223 0.71894 0.80343 0.0
O76 O 0.18529 0.74221 0.8469 0.0
H77 H 0.26442 0.73034 0.86806 0.0
H78 H 0.18087 0.77656 0.86335 0.0
H79 H 0.38223 0.70323 0.82683 0.0
H80 H 0.18744 0.70031 0.80202 0.0
H81 H 0.38535 0.69306 0.80678 0.0
H82 H 0.20285 0.64609 0.80205 0.0
O83 O 0.29624 0.76632 0.8348 0.0
H84 H 0.17796 0.8426 0.83199 0.0
H85 H 0.24947 0.80789 0.86052 0.0
H86 H 0.23843 0.86251 0.8587 0.0
H87 H 0.20234 0.88018 0.84438 0.0
H88 H 0.18988 0.78819 0.83402 0.0
H89 H 0.17253 0.77805 0.88338 0.0
H90 H 0.21086 0.75553 0.89593 0.0
O91 O 0.27304 0.76239 0.85114 0.0
C92 C 0.26309 0.69459 0.84638 0.0
C93 C 0.24025 0.74149 0.88276 0.0
C94 C 0.19277 0.76755 0.88009 0.0
N95 N 0.22316 0.75343 0.86453 0.0
C96 C 0.24431 0.74093 0.87138 0.0
C97 C 0.19758 0.76654 0.86875 0.0
C98 C 0.2143 0.75492 0.88712 0.0
C99 C 0.2246 0.71422 0.81238 0.0
N100 N 0.2497 0.70532 0.81813 0.0
C101 C 0.20737 0.69312 0.80651 0.0
C102 C 0.21599 0.6627 0.80655 0.0
C103 C 0.24162 0.65377 0.81243 0.0
C104 C 0.25828 0.6755 0.81821 0.0
C105 C 0.33884 0.70538 0.8038 0.0
C106 C 0.33527 0.71677 0.82614 0.0
C107 C 0.3119 0.71552 0.80859 0.0
N108 N 0.31038 0.72111 0.81963 0.0
C109 C 0.36259 0.70662 0.82163 0.0
C110 C 0.36432 0.70091 0.81038 0.0
C111 C 0.2951 0.77113 0.84514 0.0
C112 C 0.19365 0.83517 0.83828 0.0
C113 C 0.23383 0.81539 0.85423 0.0
C114 C 0.22761 0.84635 0.85326 0.0
C115 C 0.20736 0.85625 0.84523 0.0
N116 N 0.22017 0.79483 0.84742 0.0
C117 C 0.20041 0.80438 0.83949 0.0
Co118 Co 0.52135 0.02286 0.07493 0.0
Co119 Co 0.51119 0.97029 0.09534 0.0
O120 O 0.51119 0.98136 0.07965 0.0
C121 C 0.47196 0.00159 0.05939 0.0
O122 O 0.46565 0.97837 0.06572 0.0
C123 C 0.53536 0.91527 0.08331 0.0
O124 O 0.54141 0.93148 0.07455 0.0
O125 O 0.55421 0.98347 0.09659 0.0
O126 O 0.55114 0.02724 0.08732 0.0
H127 H 0.53391 0.98779 0.13532 0.0
H128 H 0.526 0.973 0.05844 0.0
O129 O 0.49232 0.02067 0.06215 0.0
H130 H 0.62805 0.0184 0.06019 0.0
H131 H 0.54398 0.10573 0.04757 0.0
H132 H 0.53034 0.08094 0.08679 0.0
H133 H 0.58662 0.0384 0.07167 0.0
H134 H 0.53243 0.05335 0.05334 0.0
O135 O 0.52465 0.92772 0.09193 0.0
H136 H 0.53244 1.00095 0.11564 0.0
H137 H 0.49151 0.91605 0.10827 0.0
H138 H 0.5421 0.13357 0.08138 0.0
H139 H 0.5666 0.95269 0.04668 0.0
H140 H 0.54901 0.14625 0.06164 0.0
H141 H 0.61815 0.97532 0.04753 0.0
O142 O 0.48832 0.03906 0.08439 0.0
H143 H 0.42332 0.91482 0.07815 0.0
H144 H 0.45502 0.98245 0.10831 0.0
H145 H 0.40145 0.96708 0.10684 0.0
H146 H 0.38528 0.9329 0.09171 0.0
H147 H 0.47653 0.93117 0.0798 0.0
H148 H 0.49274 0.90191 0.12787 0.0
H149 H 0.51395 0.93795 0.14156 0.0
O150 O 0.49725 0.01199 0.09961 0.0
C151 C 0.56454 0.00962 0.09409 0.0
C152 C 0.52454 0.97192 0.12944 0.0
C153 C 0.50147 0.92371 0.12526 0.0
N154 N 0.51175 0.95939 0.1108 0.0
C155 C 0.52359 0.97927 0.11828 0.0
C156 C 0.50091 0.93183 0.11416 0.0
C157 C 0.51336 0.94395 0.13293 0.0
C158 C 0.54818 0.98328 0.05879 0.0
N159 N 0.55376 0.00696 0.06574 0.0
C160 C 0.57118 0.97153 0.05214 0.0
C161 C 0.60011 0.98419 0.05263 0.0
C162 C 0.60568 0.00833 0.05975 0.0
C163 C 0.58213 0.01947 0.06627 0.0
C164 C 0.54106 0.10048 0.0562 0.0
C165 C 0.53345 0.08623 0.07819 0.0
C166 C 0.53444 0.07086 0.05952 0.0
N167 N 0.53088 0.06403 0.0704 0.0
C168 C 0.54005 0.11609 0.07517 0.0
C169 C 0.54389 0.1232 0.0641 0.0
C170 C 0.48519 0.03451 0.09467 0.0
C171 C 0.43009 0.92968 0.0848 0.0
C172 C 0.44818 0.96783 0.10163 0.0
C173 C 0.4178 0.95907 0.10088 0.0
C174 C 0.40875 0.93986 0.09239 0.0
N175 N 0.46902 0.95775 0.09414 0.0
C176 C 0.46028 0.93891 0.08581 0.0
Co177 Co 0.24764 0.26645 0.32605 0.0
Co178 Co 0.29177 0.24656 0.34822 0.0
O179 O 0.28555 0.25051 0.33224 0.0
C180 C 0.2668 0.21615 0.31038 0.0
O181 O 0.28843 0.20689 0.31698 0.0
C182 C 0.34926 0.27391 0.33974 0.0
O183 O 0.33339 0.29095 0.33302 0.0
O184 O 0.28225 0.29034 0.35045 0.0
O185 O 0.2438 0.29606 0.33853 0.0
H186 H 0.26494 0.26039 0.38808 0.0
H187 H 0.30407 0.26486 0.31257 0.0
O188 O 0.24955 0.23809 0.31311 0.0
H189 H 0.27062 0.37152 0.31193 0.0
H190 H 0.17723 0.30141 0.29594 0.0
H191 H 0.18837 0.28332 0.33573 0.0
H192 H 0.24118 0.33294 0.32198 0.0
H193 H 0.22548 0.28236 0.30351 0.0
O194 O 0.33598 0.25609 0.34642 0.0
H195 H 0.25708 0.2648 0.36809 0.0
H196 H 0.34066 0.21971 0.36215 0.0
H197 H 0.13982 0.30274 0.32851 0.0
H198 H 0.3338 0.30246 0.30221 0.0
H199 H 0.13402 0.31189 0.30848 0.0
H200 H 0.31725 0.35633 0.30188 0.0
O201 O 0.22411 0.23531 0.33435 0.0
H202 H 0.34401 0.15767 0.33052 0.0
H203 H 0.26998 0.18922 0.35867 0.0
H204 H 0.28048 0.13481 0.35596 0.0
H205 H 0.31782 0.1187 0.34183 0.0
H206 H 0.33248 0.21183 0.33338 0.0
H207 H 0.3495 0.215 0.38208 0.0
H208 H 0.31145 0.23535 0.39521 0.0
O209 O 0.24802 0.2365 0.35063 0.0
C210 C 0.25948 0.30505 0.34674 0.0
C211 C 0.2817 0.25144 0.38245 0.0
C212 C 0.32918 0.22601 0.37908 0.0
N213 N 0.29842 0.24266 0.36394 0.0
C214 C 0.27737 0.25387 0.37111 0.0
C215 C 0.32409 0.22887 0.3678 0.0
C216 C 0.3078 0.23741 0.38644 0.0
C217 C 0.29636 0.28807 0.31235 0.0
N218 N 0.27077 0.29658 0.31789 0.0
C219 C 0.31346 0.30936 0.30652 0.0
C220 C 0.30421 0.33958 0.30636 0.0
C221 C 0.2781 0.34813 0.31202 0.0
C222 C 0.26161 0.32621 0.31777 0.0
C223 C 0.17949 0.29755 0.30468 0.0
C224 C 0.18609 0.28743 0.32701 0.0
C225 C 0.20673 0.28666 0.30902 0.0
N226 N 0.20982 0.2819 0.32007 0.0
C227 C 0.15851 0.29834 0.32297 0.0
C228 C 0.15526 0.30344 0.31172 0.0
C229 C 0.2256 0.22926 0.34458 0.0
C230 C 0.32771 0.1644 0.33671 0.0
C231 C 0.28604 0.18243 0.35242 0.0
C232 C 0.292 0.15157 0.35097 0.0
C233 C 0.31298 0.14255 0.34305 0.0
N234 N 0.30052 0.20374 0.34616 0.0
C235 C 0.32117 0.19506 0.3384 0.0
Co236 Co 1.00034 0.01839 0.42927 0.0
Co237 Co 0.01189 0.97015 0.40775 0.0
O238 O 0.01173 0.97817 0.42368 0.0
C239 C 0.04863 0.99505 0.44498 0.0
O240 O 0.05362 0.97101 0.4389 0.0
C241 C 0.98808 0.91293 0.41825 0.0
O242 O 0.97664 0.92855 0.42642 0.0
O243 O 0.96819 0.9812 0.40698 0.0
O244 O 0.97045 0.02389 0.41692 0.0
H245 H 0.98698 0.99326 0.36831 0.0
H246 H 0.99604 0.96492 0.44434 0.0
O247 O 0.02937 0.01504 0.44203 0.0
H248 H 0.89369 0.00973 0.44379 0.0
H249 H 0.97552 0.09623 0.45825 0.0
H250 H 0.98968 0.07794 0.4186 0.0
H251 H 0.93494 0.03237 0.43288 0.0
H252 H 0.9885 0.04517 0.45144 0.0
O253 O 0.00129 0.92636 0.41031 0.0
H254 H 0.98834 0.00306 0.38824 0.0
H255 H 0.03421 0.91954 0.39356 0.0
H256 H 0.97643 0.12929 0.42506 0.0
H257 H 0.95568 0.94198 0.45553 0.0
H258 H 0.96927 0.1387 0.44502 0.0
H259 H 0.90395 0.96429 0.45529 0.0
O260 O 0.03321 0.03683 0.42026 0.0
H261 H 0.10305 0.91711 0.42353 0.0
H262 H 0.06703 0.9879 0.39498 0.0
H263 H 0.12146 0.97561 0.39611 0.0
H264 H 0.13981 0.9399 0.41045 0.0
H265 H 0.04885 0.93032 0.4222 0.0
H266 H 0.03316 0.90877 0.37368 0.0
H267 H 0.00951 0.94583 0.36089 0.0
O268 O 0.02318 0.01334 0.40437 0.0
C269 C 0.95723 0.00674 0.40993 0.0
C270 C 0.99741 0.97697 0.37379 0.0
C271 C 0.02329 0.92953 0.3768 0.0
N272 N 0.01144 0.96197 0.39207 0.0
C273 C 0.99829 0.98241 0.38509 0.0
C274 C 0.02374 0.93573 0.38806 0.0
C275 C 0.01003 0.95034 0.36964 0.0
C276 C 0.97388 0.97518 0.44431 0.0
N277 N 0.96814 1.00024 0.43803 0.0
C278 C 0.95096 0.96189 0.45061 0.0
C279 C 0.92193 0.97437 0.45045 0.0
C280 C 0.91616 0.99983 0.44399 0.0
C281 C 0.93963 0.01249 0.4378 0.0
C282 C 0.97855 0.09241 0.44954 0.0
C283 C 0.98646 0.08181 0.42729 0.0
C284 C 0.98599 0.06355 0.44563 0.0
N285 N 0.98969 0.05852 0.43462 0.0
C286 C 0.97902 0.11095 0.4309 0.0
C287 C 0.97503 0.11622 0.4421 0.0
C288 C 0.03557 0.03465 0.40985 0.0
C289 C 0.09534 0.93269 0.41725 0.0
C290 C 0.07481 0.97254 0.40131 0.0
C291 C 0.10568 0.96557 0.40187 0.0
C292 C 0.11595 0.94551 0.40991 0.0
N293 N 0.05471 0.95992 0.40855 0.0
C294 C 0.06463 0.94021 0.41644 0.0
Co295 Co 0.24208 0.7364 0.67761 0.0
Co296 Co 0.29343 0.74911 0.65705 0.0
O297 O 0.28309 0.74796 0.6728 0.0
C298 C 0.26188 0.78593 0.69336 0.0
O299 O 0.2831 0.79519 0.6866 0.0
C300 C 0.34987 0.72637 0.66863 0.0
O301 O 0.33439 0.71977 0.67751 0.0
O302 O 0.28137 0.70576 0.65555 0.0
O303 O 0.23779 0.70754 0.66495 0.0
H304 H 0.27475 0.72816 0.61701 0.0
H305 H 0.2925 0.73193 0.6938 0.0
O306 O 0.24425 0.76422 0.6907 0.0
H307 H 0.25012 0.62867 0.69121 0.0
H308 H 0.1611 0.70926 0.70516 0.0
H309 H 0.18368 0.7271 0.66599 0.0
H310 H 0.22844 0.6704 0.68027 0.0
H311 H 0.21289 0.7226 0.69923 0.0
O312 O 0.33654 0.73671 0.66012 0.0
H313 H 0.26247 0.72813 0.63677 0.0
H314 H 0.34648 0.77105 0.64396 0.0
H315 H 0.13163 0.71357 0.67156 0.0
H316 H 0.3145 0.691 0.70504 0.0
H317 H 0.12006 0.70455 0.69127 0.0
H318 H 0.2934 0.63885 0.70376 0.0
O319 O 0.22471 0.76982 0.66857 0.0
H320 H 0.34682 0.8377 0.67463 0.0
H321 H 0.2792 0.80559 0.64452 0.0
H322 H 0.29309 0.85951 0.64629 0.0
H323 H 0.32726 0.8759 0.6614 0.0
H324 H 0.33193 0.78413 0.6727 0.0
H325 H 0.35974 0.77134 0.62428 0.0
H326 H 0.3237 0.74989 0.61064 0.0
O327 O 0.25116 0.76211 0.65313 0.0
C328 C 0.25549 0.69479 0.65805 0.0
C329 C 0.29062 0.73764 0.62287 0.0
C330 C 0.33832 0.76184 0.62695 0.0
N331 N 0.30363 0.74972 0.64152 0.0
C332 C 0.28376 0.73774 0.63407 0.0
C333 C 0.33071 0.76154 0.63809 0.0
C334 C 0.31809 0.74981 0.6193 0.0
C335 C 0.28293 0.70944 0.69327 0.0
N336 N 0.25918 0.70368 0.68637 0.0
C337 C 0.29561 0.68627 0.69962 0.0
C338 C 0.2838 0.65702 0.69888 0.0
C339 C 0.25955 0.65129 0.69183 0.0
C340 C 0.24747 0.67501 0.68561 0.0
C341 C 0.16586 0.71311 0.69654 0.0
C342 C 0.17887 0.72309 0.67458 0.0
C343 C 0.19514 0.72074 0.69314 0.0
N344 N 0.20137 0.72548 0.68226 0.0
C345 C 0.14933 0.71549 0.67769 0.0
C346 C 0.14285 0.71045 0.68875 0.0
C347 C 0.22866 0.77349 0.65827 0.0
C348 C 0.33199 0.83084 0.66799 0.0
C349 C 0.29388 0.8125 0.65119 0.0
C350 C 0.30177 0.84309 0.65211 0.0
C351 C 0.32097 0.85226 0.66058 0.0
N352 N 0.30481 0.79157 0.65849 0.0
C353 C 0.32361 0.80044 0.66681 0.0
Co354 Co 0.5221 0.97948 0.92869 0.0
Co355 Co 0.5115 0.03282 0.90858 0.0
O356 O 0.51169 0.02112 0.92421 0.0
C357 C 0.47047 0.99789 0.94351 0.0
O358 O 0.46038 0.017 0.9361 0.0
C359 C 0.53493 0.08778 0.92093 0.0
O360 O 0.53989 0.07158 0.92979 0.0
O361 O 0.55453 0.01962 0.90716 0.0
O362 O 0.55155 0.97549 0.9162 0.0
H363 H 0.53351 0.01672 0.86847 0.0
H364 H 0.52628 0.02818 0.9455 0.0
O365 O 0.49362 0.98149 0.94156 0.0
H366 H 0.62912 0.98477 0.94313 0.0
H367 H 0.54583 0.896 0.95567 0.0
H368 H 0.53085 0.92172 0.9166 0.0
H369 H 0.58774 0.9646 0.93165 0.0
H370 H 0.53393 0.94848 0.95012 0.0
O371 O 0.52513 0.0753 0.91217 0.0
H372 H 0.5323 0.00285 0.8881 0.0
H373 H 0.49181 0.08761 0.89595 0.0
H374 H 0.54293 0.869 0.92179 0.0
H375 H 0.56688 0.0487 0.95727 0.0
H376 H 0.55052 0.85585 0.94145 0.0
H377 H 0.61881 0.02706 0.95609 0.0
O378 O 0.48893 0.96345 0.91924 0.0
H379 H 0.42385 0.08742 0.92628 0.0
H380 H 0.45521 0.0215 0.89559 0.0
H381 H 0.40171 0.03699 0.89719 0.0
H382 H 0.38571 0.07035 0.91258 0.0
H383 H 0.47693 0.07088 0.92452 0.0
H384 H 0.4928 0.10246 0.87642 0.0
H385 H 0.51365 0.06685 0.86252 0.0
O386 O 0.49736 0.99128 0.90415 0.0
C387 C 0.56491 0.99339 0.90952 0.0
C388 C 0.52429 0.03241 0.87445 0.0
C389 C 0.50148 0.08054 0.87891 0.0
N390 N 0.51185 0.0443 0.89317 0.0
C391 C 0.5235 0.02465 0.88558 0.0
C392 C 0.50106 0.07202 0.88997 0.0
C393 C 0.51317 0.06054 0.87111 0.0
C394 C 0.54871 0.01845 0.94499 0.0
N395 N 0.55457 0.99527 0.93785 0.0
C396 C 0.57167 0.03025 0.95165 0.0
C397 C 0.6008 0.01814 0.95098 0.0
C398 C 0.60661 0.99444 0.9437 0.0
C399 C 0.5831 0.98323 0.93716 0.0
C400 C 0.54262 0.90146 0.94708 0.0
C401 C 0.53424 0.91622 0.92517 0.0
C402 C 0.5358 0.93113 0.94388 0.0
N403 N 0.53187 0.93822 0.93303 0.0
C404 C 0.54102 0.88631 0.92806 0.0
C405 C 0.54525 0.87894 0.93909 0.0
C406 C 0.48555 0.96844 0.90898 0.0
C407 C 0.43055 0.073 0.91951 0.0
C408 C 0.44845 0.03579 0.90238 0.0
C409 C 0.41811 0.04461 0.90321 0.0
C410 C 0.40916 0.06335 0.91184 0.0
N411 N 0.46937 0.04539 0.90992 0.0
C412 C 0.4607 0.06372 0.91841 0.0
Co413 Co 0.27411 0.2668 0.17767 0.0
Co414 Co 0.22931 0.25382 0.15534 0.0
O415 O 0.23543 0.2541 0.17129 0.0
C416 C 0.28601 0.2185 0.19416 0.0
O417 O 0.31253 0.21441 0.18946 0.0
C418 C 0.17199 0.27948 0.16476 0.0
O419 O 0.1876 0.29316 0.17249 0.0
O420 O 0.24036 0.29758 0.1546 0.0
O421 O 0.28131 0.29685 0.16552 0.0
H422 H 0.25667 0.27812 0.11621 0.0
H423 H 0.21974 0.26731 0.19208 0.0
O424 O 0.26717 0.23732 0.19004 0.0
H425 H 0.2563 0.37305 0.19159 0.0
H426 H 0.34424 0.29708 0.20856 0.0
H427 H 0.33569 0.27767 0.16876 0.0
H428 H 0.28315 0.33339 0.18116 0.0
H429 H 0.2953 0.28191 0.20042 0.0
O430 O 0.18542 0.2643 0.15732 0.0
H431 H 0.26429 0.27708 0.13628 0.0
H432 H 0.18023 0.23135 0.14049 0.0
H433 H 0.38505 0.29284 0.17656 0.0
H434 H 0.1926 0.30617 0.20282 0.0
H435 H 0.38956 0.30265 0.19659 0.0
H436 H 0.21076 0.35953 0.20258 0.0
O437 O 0.29526 0.23484 0.16895 0.0
H438 H 0.1763 0.16276 0.17117 0.0
H439 H 0.24759 0.19857 0.14275 0.0
H440 H 0.23531 0.14409 0.14392 0.0
H441 H 0.19932 0.12586 0.15818 0.0
H442 H 0.18947 0.21702 0.16978 0.0
H443 H 0.17162 0.2321 0.12047 0.0
H444 H 0.21006 0.2555 0.10818 0.0
O445 O 0.27268 0.24247 0.1527 0.0
C446 C 0.26516 0.30922 0.15803 0.0
C447 C 0.23979 0.26778 0.12148 0.0
C448 C 0.19204 0.24199 0.12387 0.0
N449 N 0.22283 0.25402 0.13956 0.0
C450 C 0.244 0.26707 0.13285 0.0
C451 C 0.19701 0.24171 0.13521 0.0
C452 C 0.21362 0.25512 0.11698 0.0
C453 C 0.22805 0.29038 0.19204 0.0
N454 N 0.25305 0.29799 0.18599 0.0
C455 C 0.21246 0.31234 0.19809 0.0
C456 C 0.22262 0.34228 0.19793 0.0
C457 C 0.24814 0.34989 0.19175 0.0
C458 C 0.26314 0.32734 0.1858 0.0
C459 C 0.34257 0.29289 0.19981 0.0
C460 C 0.33745 0.28191 0.17749 0.0
C461 C 0.31491 0.2843 0.19516 0.0
N462 N 0.31262 0.27891 0.18412 0.0
C463 C 0.36547 0.2905 0.18185 0.0
C464 C 0.36798 0.296 0.1931 0.0
C465 C 0.29399 0.23139 0.15855 0.0
C466 C 0.19194 0.17043 0.16489 0.0
C467 C 0.232 0.19083 0.14901 0.0
C468 C 0.22508 0.15994 0.14961 0.0
C469 C 0.20488 0.14974 0.15761 0.0
N470 N 0.21909 0.21102 0.15614 0.0
C471 C 0.1994 0.20115 0.16405 0.0
Co472 Co 0.74815 0.23894 0.17683 0.0
Co473 Co 0.79464 0.25134 0.1549 0.0
O474 O 0.78737 0.25128 0.17078 0.0
C475 C 0.73575 0.28707 0.19339 0.0
O476 O 0.70929 0.29135 0.18866 0.0
C477 C 0.8509 0.22488 0.16482 0.0
O478 O 0.83456 0.2115 0.17241 0.0
O479 O 0.78318 0.2077 0.15411 0.0
O480 O 0.74151 0.20886 0.16465 0.0
H481 H 0.76971 0.22696 0.11557 0.0
H482 H 0.80163 0.23808 0.19168 0.0
O483 O 0.75464 0.2684 0.18922 0.0
H484 H 0.76422 0.13264 0.19102 0.0
H485 H 0.67584 0.20914 0.20711 0.0
H486 H 0.68707 0.22855 0.1674 0.0
H487 H 0.73837 0.17244 0.18032 0.0
H488 H 0.7254 0.22397 0.1994 0.0
O489 O 0.83825 0.24037 0.15727 0.0
H490 H 0.76074 0.22827 0.13556 0.0
H491 H 0.84494 0.27318 0.14047 0.0
H492 H 0.63711 0.21374 0.17478 0.0
H493 H 0.82773 0.19909 0.2027 0.0
H494 H 0.63126 0.20394 0.19477 0.0
H495 H 0.80915 0.14588 0.20237 0.0
O496 O 0.72774 0.27099 0.16786 0.0
H497 H 0.84757 0.34195 0.17107 0.0
H498 H 0.77776 0.30668 0.14209 0.0
H499 H 0.79054 0.36104 0.14331 0.0
H500 H 0.82579 0.37899 0.15786 0.0
H501 H 0.83392 0.28781 0.16963 0.0
H502 H 0.85491 0.27216 0.12053 0.0
H503 H 0.81709 0.24903 0.10793 0.0
O504 O 0.7516 0.2631 0.15186 0.0
C505 C 0.75808 0.19629 0.15733 0.0
C506 C 0.78633 0.23718 0.12097 0.0
C507 C 0.83416 0.26251 0.12376 0.0
N508 N 0.80219 0.25094 0.13918 0.0
C509 C 0.78134 0.23804 0.1323 0.0
C510 C 0.82842 0.26295 0.13505 0.0
C511 C 0.81293 0.24954 0.11669 0.0
C512 C 0.79311 0.21509 0.19161 0.0
N513 N 0.76844 0.20763 0.18536 0.0
C514 C 0.80812 0.19305 0.19781 0.0
C515 C 0.79773 0.16319 0.19761 0.0
C516 C 0.77256 0.15574 0.19122 0.0
C517 C 0.75812 0.17837 0.18512 0.0
C518 C 0.6781 0.21335 0.19839 0.0
C519 C 0.68472 0.22434 0.17611 0.0
C520 C 0.70611 0.22174 0.19397 0.0
N521 N 0.70915 0.22715 0.18295 0.0
C522 C 0.65637 0.21594 0.18024 0.0
C523 C 0.6531 0.21044 0.19146 0.0
C524 C 0.7298 0.27421 0.15746 0.0
C525 C 0.83226 0.3344 0.16468 0.0
C526 C 0.79302 0.31431 0.14848 0.0
C527 C 0.80023 0.34512 0.14911 0.0
C528 C 0.82001 0.35517 0.15727 0.0
N529 N 0.80526 0.29404 0.15574 0.0
C530 C 0.82453 0.30375 0.1638 0.0
Co531 Co 0.77354 0.76531 0.6778 0.0
Co532 Co 0.72909 0.7501 0.65547 0.0
O533 O 0.73542 0.75119 0.67138 0.0
C534 C 0.78714 0.7174 0.6943 0.0
O535 O 0.81397 0.71441 0.68972 0.0
C536 C 0.67211 0.77679 0.6646 0.0
O537 O 0.68827 0.79252 0.67164 0.0
O538 O 0.73938 0.794 0.65437 0.0
O539 O 0.77952 0.79587 0.66571 0.0
H540 H 0.75558 0.77212 0.61608 0.0
H541 H 0.71866 0.76326 0.6919 0.0
O542 O 0.76767 0.73541 0.69009 0.0
H543 H 0.75113 0.87034 0.69209 0.0
H544 H 0.84215 0.79797 0.70881 0.0
H545 H 0.8346 0.77903 0.66896 0.0
H546 H 0.77996 0.83206 0.68167 0.0
H547 H 0.79394 0.78087 0.7006 0.0
O548 O 0.68507 0.7599 0.65754 0.0
H549 H 0.76356 0.77241 0.63614 0.0
H550 H 0.67997 0.72628 0.64093 0.0
H551 H 0.88324 0.79618 0.67682 0.0
H552 H 0.68952 0.8007 0.70262 0.0
H553 H 0.88724 0.80574 0.69689 0.0
H554 H 0.70562 0.85472 0.70272 0.0
O555 O 0.7962 0.73432 0.66904 0.0
H556 H 0.6778 0.65891 0.67193 0.0
H557 H 0.74847 0.69457 0.64328 0.0
H558 H 0.73724 0.63993 0.64484 0.0
H559 H 0.70157 0.62178 0.65921 0.0
H560 H 0.6899 0.71335 0.67016 0.0
H561 H 0.67098 0.72571 0.62092 0.0
H562 H 0.70899 0.74865 0.60835 0.0
O563 O 0.77258 0.73956 0.65283 0.0
C564 C 0.76335 0.80696 0.65796 0.0
C565 C 0.73887 0.762 0.62147 0.0
C566 C 0.69137 0.736 0.62419 0.0
N567 N 0.72232 0.74931 0.6397 0.0
C568 C 0.74329 0.76204 0.63284 0.0
C569 C 0.69655 0.73648 0.63552 0.0
C570 C 0.71272 0.74886 0.61714 0.0
C571 C 0.72607 0.78664 0.69201 0.0
N572 N 0.75104 0.79541 0.68616 0.0
C573 C 0.70936 0.80778 0.69805 0.0
C574 C 0.71836 0.83809 0.69808 0.0
C575 C 0.74385 0.84688 0.6921 0.0
C576 C 0.76 0.82511 0.68615 0.0
C577 C 0.8407 0.79388 0.70005 0.0
C578 C 0.83615 0.78316 0.67769 0.0
C579 C 0.81346 0.7842 0.69536 0.0
N580 N 0.81145 0.77893 0.6843 0.0
C581 C 0.86376 0.79287 0.6821 0.0
C582 C 0.86598 0.79823 0.69336 0.0
C583 C 0.7947 0.73017 0.65866 0.0
C584 C 0.6933 0.66655 0.66561 0.0
C585 C 0.73301 0.68686 0.64959 0.0
C586 C 0.72669 0.65589 0.65041 0.0
C587 C 0.70667 0.64573 0.65848 0.0
N588 N 0.71969 0.70717 0.65658 0.0
C589 C 0.70017 0.69736 0.66454 0.0
Co590 Co 0.78031 0.23701 0.32595 0.0
Co591 Co 0.728 0.24943 0.34621 0.0
O592 O 0.73883 0.24765 0.33052 0.0
C593 C 0.7601 0.28556 0.30991 0.0
O594 O 0.73959 0.29566 0.3168 0.0
C595 C 0.67197 0.22578 0.33451 0.0
O596 O 0.68725 0.2211 0.32542 0.0
O597 O 0.74137 0.20656 0.34812 0.0
O598 O 0.7852 0.20921 0.33891 0.0
H599 H 0.74633 0.23152 0.38647 0.0
H600 H 0.73061 0.23 0.30964 0.0
O601 O 0.77755 0.26375 0.3126 0.0
H602 H 0.77559 0.12813 0.3134 0.0
H603 H 0.86272 0.21033 0.29892 0.0
H604 H 0.8387 0.23043 0.33783 0.0
H605 H 0.7959 0.17124 0.32398 0.0
H606 H 0.81041 0.22248 0.30457 0.0
O607 O 0.68532 0.23541 0.34313 0.0
H608 H 0.75912 0.23075 0.36675 0.0
H609 H 0.6739 0.27033 0.35895 0.0
H610 H 0.89127 0.21813 0.33254 0.0
H611 H 0.7099 0.18764 0.29877 0.0
H612 H 0.90357 0.20797 0.31296 0.0
H613 H 0.73234 0.13619 0.30064 0.0
O614 O 0.79642 0.27157 0.33473 0.0
H615 H 0.67292 0.33561 0.32769 0.0
H616 H 0.73985 0.30687 0.35843 0.0
H617 H 0.72442 0.36025 0.35627 0.0
H618 H 0.69056 0.37493 0.34084 0.0
H619 H 0.68936 0.28267 0.33002 0.0
H620 H 0.66012 0.2713 0.37859 0.0
H621 H 0.69651 0.25191 0.39251 0.0
O622 O 0.76974 0.26405 0.35015 0.0
C623 C 0.76768 0.19629 0.34583 0.0
C624 C 0.73031 0.24011 0.38049 0.0
C625 C 0.68191 0.26239 0.37606 0.0
N626 N 0.71738 0.25063 0.3617 0.0
C627 C 0.73745 0.23978 0.3693 0.0
C628 C 0.68982 0.2617 0.36495 0.0
C629 C 0.70234 0.25152 0.38387 0.0
C630 C 0.74068 0.20779 0.31045 0.0
N631 N 0.76441 0.20319 0.31747 0.0
C632 C 0.72877 0.18383 0.3043 0.0
C633 C 0.74133 0.15497 0.30536 0.0
C634 C 0.76557 0.15042 0.31253 0.0
C635 C 0.77687 0.17492 0.31855 0.0
C636 C 0.85764 0.21468 0.30748 0.0
C637 C 0.84383 0.22593 0.3293 0.0
C638 C 0.82806 0.22165 0.31073 0.0
N639 N 0.82144 0.22703 0.32154 0.0
C640 C 0.87366 0.21902 0.32635 0.0
C641 C 0.88054 0.21334 0.31536 0.0
C642 C 0.79203 0.27582 0.34498 0.0
C643 C 0.68756 0.32948 0.33448 0.0
C644 C 0.7253 0.31303 0.35164 0.0
C645 C 0.71654 0.34332 0.35049 0.0
C646 C 0.69752 0.35154 0.34184 0.0
N647 N 0.71536 0.29145 0.34441 0.0
C648 C 0.69679 0.29941 0.33589 0.0
Co649 Co 0.74252 0.76468 0.82624 0.0
Co650 Co 0.79325 0.75143 0.84698 0.0
O651 O 0.78336 0.75295 0.83119 0.0
C652 C 0.76258 0.71526 0.81049 0.0
O653 O 0.7836 0.70586 0.81731 0.0
C654 C 0.84987 0.77477 0.8357 0.0
O655 O 0.83453 0.78176 0.82683 0.0
O656 O 0.78113 0.79473 0.84858 0.0
O657 O 0.73792 0.79334 0.83894 0.0
H658 H 0.77338 0.77137 0.88701 0.0
H659 H 0.79337 0.76925 0.81024 0.0
O660 O 0.745 0.73703 0.81312 0.0
H661 H 0.75125 0.87259 0.81289 0.0
H662 H 0.66243 0.79239 0.79843 0.0
H663 H 0.6838 0.77388 0.83764 0.0
H664 H 0.72917 0.83076 0.82368 0.0
H665 H 0.71402 0.77888 0.80454 0.0
O666 O 0.83642 0.76399 0.84411 0.0
H667 H 0.76166 0.77182 0.8672 0.0
H668 H 0.84598 0.72933 0.8602 0.0
H669 H 0.63194 0.78758 0.83189 0.0
H670 H 0.81577 0.81029 0.79915 0.0
H671 H 0.62098 0.79694 0.81215 0.0
H672 H 0.79481 0.86248 0.80047 0.0
O673 O 0.72481 0.73117 0.83513 0.0
H674 H 0.84732 0.66343 0.82931 0.0
H675 H 0.77882 0.69461 0.85928 0.0
H676 H 0.79287 0.64076 0.85739 0.0
H677 H 0.82749 0.62485 0.84235 0.0
H678 H 0.83226 0.71691 0.83137 0.0
H679 H 0.85869 0.72862 0.87993 0.0
H680 H 0.8222 0.74965 0.8935 0.0
O681 O 0.75088 0.73824 0.85071 0.0
C682 C 0.75541 0.80587 0.84597 0.0
C683 C 0.78943 0.76207 0.88118 0.0
C684 C 0.83732 0.73812 0.87721 0.0
N685 N 0.80301 0.75047 0.86254 0.0
C686 C 0.7829 0.76221 0.86995 0.0
C687 C 0.83002 0.73865 0.86604 0.0
C688 C 0.81684 0.7499 0.88482 0.0
C689 C 0.78386 0.79176 0.81078 0.0
N690 N 0.75996 0.79748 0.81762 0.0
C691 C 0.79676 0.81499 0.80452 0.0
C692 C 0.78503 0.84427 0.80528 0.0
C693 C 0.76063 0.84996 0.81226 0.0
C694 C 0.74832 0.82618 0.8184 0.0
C695 C 0.66693 0.78841 0.80705 0.0
C696 C 0.67926 0.77804 0.82905 0.0
C697 C 0.69609 0.78067 0.81056 0.0
N698 N 0.70198 0.77575 0.82145 0.0
C699 C 0.64983 0.78574 0.82584 0.0
C700 C 0.64369 0.79097 0.81476 0.0
C701 C 0.72851 0.72706 0.84542 0.0
C702 C 0.83229 0.67009 0.83592 0.0
C703 C 0.79368 0.6879 0.85264 0.0
C704 C 0.80167 0.65735 0.85165 0.0
C705 C 0.82112 0.64845 0.84322 0.0
N706 N 0.80475 0.70904 0.84545 0.0
C707 C 0.82381 0.70043 0.83717 0.0
Co708 Co 0.49935 0.49147 0.07619 0.0
Co709 Co 0.51268 0.53701 0.09831 0.0
O710 O 0.51227 0.53027 0.08241 0.0
C711 C 0.54736 0.47888 0.05965 0.0
O712 O 0.55135 0.45238 0.06438 0.0
C713 C 0.48593 0.59354 0.08876 0.0
O714 O 0.47087 0.57716 0.0816 0.0
O715 O 0.4689 0.526 0.09917 0.0
O716 O 0.46932 0.48481 0.08837 0.0
H717 H 0.48876 0.51128 0.13761 0.0
H718 H 0.49913 0.54567 0.06169 0.0
O719 O 0.5288 0.49793 0.06379 0.0
H720 H 0.39324 0.50962 0.0622 0.0
H721 H 0.46849 0.42064 0.04559 0.0
H722 H 0.48818 0.43018 0.08534 0.0
H723 H 0.43275 0.48268 0.07269 0.0
H724 H 0.48397 0.46973 0.05354 0.0
O725 O 0.50227 0.5808 0.09604 0.0
H726 H 0.48961 0.50282 0.11758 0.0
H727 H 0.53528 0.58671 0.11285 0.0
H728 H 0.4727 0.38067 0.07774 0.0
H729 H 0.46042 0.57291 0.0509 0.0
H730 H 0.46275 0.37566 0.05773 0.0
H731 H 0.40699 0.555 0.05115 0.0
O732 O 0.53113 0.47031 0.08503 0.0
H733 H 0.60359 0.58937 0.08211 0.0
H734 H 0.56801 0.51916 0.11093 0.0
H735 H 0.62247 0.53137 0.10964 0.0
H736 H 0.64057 0.56681 0.09517 0.0
H737 H 0.54934 0.5763 0.08363 0.0
H738 H 0.53472 0.59617 0.13282 0.0
H739 H 0.51144 0.55824 0.14536 0.0
O740 O 0.524 0.49372 0.10117 0.0
C741 C 0.45713 0.50117 0.09583 0.0
C742 C 0.49904 0.52795 0.13224 0.0
C743 C 0.5248 0.57561 0.12955 0.0
N744 N 0.51262 0.54415 0.11405 0.0
C745 C 0.49964 0.52325 0.12089 0.0
C746 C 0.52497 0.57016 0.11824 0.0
C747 C 0.51174 0.55431 0.13658 0.0
C748 C 0.47603 0.53746 0.06173 0.0
N749 N 0.4683 0.51253 0.0678 0.0
C750 C 0.45416 0.5531 0.05566 0.0
C751 C 0.42418 0.54309 0.05582 0.0
C752 C 0.41644 0.51766 0.06203 0.0
C753 C 0.43891 0.50259 0.06801 0.0
C754 C 0.47275 0.42253 0.05433 0.0
C755 C 0.48389 0.42819 0.07663 0.0
C756 C 0.48151 0.45027 0.05888 0.0
N757 N 0.48698 0.45284 0.0699 0.0
C758 C 0.47512 0.4001 0.07237 0.0
C759 C 0.46954 0.39731 0.06114 0.0
C760 C 0.5347 0.47198 0.09543 0.0
C761 C 0.59597 0.57397 0.08847 0.0
C762 C 0.5757 0.5345 0.10458 0.0
C763 C 0.60657 0.54138 0.10391 0.0
C764 C 0.61671 0.56128 0.0958 0.0
N765 N 0.55546 0.54716 0.0974 0.0
C766 C 0.56526 0.56655 0.08939 0.0
Co767 Co 0.02239 0.52054 0.57511 0.0
Co768 Co 0.01127 0.46851 0.59565 0.0
O769 O 0.01161 0.47928 0.57992 0.0
C770 C 0.9734 0.49939 0.55934 0.0
O771 O 0.96752 0.47552 0.56541 0.0
C772 C 0.03492 0.41294 0.58379 0.0
O773 O 0.04174 0.42905 0.57508 0.0
O774 O 0.05449 0.48111 0.59694 0.0
O775 O 0.05214 0.52469 0.58752 0.0
H776 H 0.03379 0.48637 0.63562 0.0
H777 H 0.02672 0.47011 0.5588 0.0
O778 O 0.99339 0.51861 0.56231 0.0
H779 H 0.12911 0.51471 0.56047 0.0
H780 H 0.04629 0.60269 0.54761 0.0
H781 H 0.03211 0.57867 0.58686 0.0
H782 H 0.0878 0.53533 0.57186 0.0
H783 H 0.03401 0.55055 0.55347 0.0
O784 O 0.02409 0.42563 0.59234 0.0
H785 H 0.03272 0.49921 0.61591 0.0
H786 H 0.99065 0.41479 0.60867 0.0
H787 H 0.04461 0.63105 0.58136 0.0
H788 H 0.06717 0.4492 0.54712 0.0
H789 H 0.05179 0.64335 0.56161 0.0
H790 H 0.11891 0.47142 0.54793 0.0
O791 O 0.98952 0.53734 0.5845 0.0
H792 H 0.92281 0.41428 0.57835 0.0
H793 H 0.95512 0.48157 0.60852 0.0
H794 H 0.90133 0.46704 0.60696 0.0
H795 H 0.88485 0.43304 0.59181 0.0
H796 H 0.97626 0.42977 0.58011 0.0
H797 H 0.99147 0.40097 0.6283 0.0
H798 H 0.01305 0.43693 0.64194 0.0
O799 O 0.99785 0.5105 0.59982 0.0
C800 C 0.06525 0.50703 0.59435 0.0
C801 C 0.02426 0.47054 0.62976 0.0
C802 C 1.00054 0.42259 0.62565 0.0
N803 N 0.01149 0.45787 0.61114 0.0
C804 C 0.02354 0.4777 0.61859 0.0
C805 C 1.00021 0.43053 0.61454 0.0
C806 C 0.01264 0.44279 0.6333 0.0
C807 C 0.04895 0.48025 0.55911 0.0
N808 N 0.05468 0.50407 0.56599 0.0
C809 C 0.07188 0.46815 0.55252 0.0
C810 C 0.10092 0.48057 0.55299 0.0
C811 C 0.10666 0.50483 0.56004 0.0
C812 C 0.08316 0.51632 0.56651 0.0
C813 C 0.04326 0.5976 0.55624 0.0
C814 C 0.03534 0.58379 0.57826 0.0
C815 C 0.03622 0.56813 0.55962 0.0
N816 N 0.03252 0.5615 0.57052 0.0
C817 C 0.04235 0.61352 0.57519 0.0
C818 C 0.04635 0.6204 0.5641 0.0
C819 C 0.98614 0.53306 0.59479 0.0
C820 C 0.92971 0.42907 0.585 0.0
C821 C 0.94815 0.46701 0.60184 0.0
C822 C 0.91765 0.45874 0.60103 0.0
C823 C 0.90842 0.43964 0.59254 0.0
N824 N 0.96894 0.45657 0.5944 0.0
C825 C 0.96003 0.43782 0.58607 0.0
Co826 Co 0.49554 0.51415 0.92786 0.0
Co827 Co 0.51342 0.46669 0.90632 0.0
O828 O 0.51047 0.47513 0.9222 0.0
C829 C 0.54676 0.49626 0.94331 0.0
O830 O 0.5556 0.47423 0.93682 0.0
C831 C 0.48659 0.41012 0.91607 0.0
O832 O 0.47118 0.42639 0.92315 0.0
O833 O 0.46971 0.47688 0.90422 0.0
O834 O 0.46511 0.51671 0.91561 0.0
H835 H 0.49764 0.4886 0.86617 0.0
H836 H 0.49747 0.45959 0.94234 0.0
O837 O 0.52478 0.51347 0.94057 0.0
H838 H 0.39137 0.49461 0.9434 0.0
H839 H 0.4638 0.58895 0.95703 0.0
H840 H 0.47865 0.57233 0.91731 0.0
H841 H 0.42952 0.52207 0.93245 0.0
H842 H 0.48163 0.53948 0.95013 0.0
O843 O 0.50312 0.42293 0.90885 0.0
H844 H 0.49441 0.49898 0.88604 0.0
H845 H 0.53888 0.41569 0.89305 0.0
H846 H 0.46044 0.62206 0.92386 0.0
H847 H 0.46034 0.4319 0.95362 0.0
H848 H 0.45292 0.63062 0.94385 0.0
H849 H 0.40675 0.44923 0.95416 0.0
O850 O 0.52624 0.53631 0.91883 0.0
H851 H 0.60207 0.41461 0.92426 0.0
H852 H 0.57063 0.48583 0.89515 0.0
H853 H 0.62489 0.47431 0.89762 0.0
H854 H 0.64094 0.43837 0.91224 0.0
H855 H 0.54807 0.42714 0.92162 0.0
H856 H 0.54239 0.4043 0.87326 0.0
H857 H 0.52176 0.44093 0.85965 0.0
O858 O 0.52431 0.50978 0.90313 0.0
C859 C 0.4555 0.50024 0.9077 0.0
C860 C 0.50671 0.47244 0.87201 0.0
C861 C 0.53178 0.42512 0.87599 0.0
N862 N 0.51635 0.45797 0.89071 0.0
C863 C 0.50496 0.47822 0.88328 0.0
C864 C 0.52961 0.43166 0.8872 0.0
C865 C 0.52023 0.4457 0.86836 0.0
C866 C 0.47439 0.46764 0.94264 0.0
N867 N 0.46577 0.49254 0.93671 0.0
C868 C 0.45336 0.45169 0.94899 0.0
C869 C 0.42329 0.46137 0.94927 0.0
C870 C 0.41464 0.48678 0.94322 0.0
C871 C 0.4363 0.50213 0.93695 0.0
C872 C 0.46696 0.58549 0.9483 0.0
C873 C 0.47526 0.57582 0.92602 0.0
C874 C 0.47716 0.55755 0.94434 0.0
N875 N 0.48103 0.55294 0.93331 0.0
C876 C 0.46502 0.60405 0.92968 0.0
C877 C 0.46084 0.60885 0.9409 0.0
C878 C 0.53187 0.53324 0.9086 0.0
C879 C 0.59537 0.43029 0.91786 0.0
C880 C 0.5774 0.47042 0.90161 0.0
C881 C 0.60818 0.46386 0.90293 0.0
C882 C 0.61717 0.44366 0.91112 0.0
N883 N 0.55613 0.45726 0.90826 0.0
C884 C 0.56479 0.43739 0.91629 0.0
Co885 Co 0.02508 0.48458 0.42844 0.0
Co886 Co 0.01096 0.53415 0.40724 0.0
O887 O 0.01259 0.52485 0.42309 0.0
C888 C 0.97361 0.50372 0.44339 0.0
O889 O 0.96448 0.52422 0.43632 0.0
C890 C 0.03736 0.59001 0.41787 0.0
O891 O 0.04888 0.57361 0.42584 0.0
O892 O 0.05428 0.52224 0.40558 0.0
O893 O 0.05508 0.48045 0.41609 0.0
H894 H 0.02993 0.51312 0.36723 0.0
H895 H 0.02635 0.53678 0.44391 0.0
O896 O 0.99614 0.48666 0.4412 0.0
H897 H 0.13097 0.49739 0.44336 0.0
H898 H 0.0525 0.40653 0.45706 0.0
H899 H 0.03754 0.42581 0.4175 0.0
H900 H 0.09109 0.47329 0.43218 0.0
H901 H 0.03792 0.45741 0.45049 0.0
O902 O 0.02306 0.57745 0.41 0.0
H903 H 0.03083 0.50195 0.38707 0.0
H904 H 0.98848 0.58647 0.39389 0.0
H905 H 0.0524 0.37466 0.42372 0.0
H906 H 0.06533 0.56116 0.45541 0.0
H907 H 0.05997 0.36475 0.44363 0.0
H908 H 0.11816 0.54159 0.45514 0.0
O909 O 0.9929 0.46521 0.41932 0.0
H910 H 0.9233 0.58932 0.4246 0.0
H911 H 0.95389 0.51832 0.39532 0.0
H912 H 0.90004 0.53227 0.39727 0.0
H913 H 0.88443 0.56814 0.41196 0.0
H914 H 0.97682 0.57431 0.42249 0.0
H915 H 0.98732 0.59863 0.37412 0.0
H916 H 0.00806 0.56178 0.36062 0.0
O917 O 0.99821 0.49162 0.40371 0.0
C918 C 0.0665 0.49737 0.40864 0.0
C919 C 0.02078 0.52935 0.37302 0.0
C920 C 0.99691 0.57735 0.37689 0.0
N921 N 0.00967 0.54347 0.39165 0.0
C922 C 0.02118 0.52313 0.38427 0.0
C923 C 0.99771 0.57037 0.38808 0.0
C924 C 0.00853 0.55666 0.36932 0.0
C925 C 0.04914 0.52783 0.44384 0.0
N926 N 0.05635 0.50359 0.43735 0.0
C927 C 0.07119 0.54188 0.45033 0.0
C928 C 0.10084 0.53093 0.45016 0.0
C929 C 0.10805 0.50617 0.44353 0.0
C930 C 0.0854 0.49273 0.43715 0.0
C931 C 0.04931 0.41058 0.44836 0.0
C932 C 0.04095 0.42173 0.42617 0.0
C933 C 0.04097 0.43933 0.44459 0.0
N934 N 0.03705 0.44464 0.4336 0.0
C935 C 0.04929 0.39269 0.42964 0.0
C936 C 0.05351 0.38715 0.44082 0.0
C937 C 0.98822 0.46883 0.40906 0.0
C938 C 0.92982 0.57371 0.41815 0.0
C939 C 0.94729 0.53367 0.40182 0.0
C940 C 0.91675 0.54162 0.40284 0.0
C941 C 0.90802 0.56178 0.41107 0.0
N942 N 0.96857 0.54543 0.4088 0.0
C943 C 0.96015 0.56524 0.41688 0.0
C944 C 0.99712 0.14101 0.59596 0.0
C945 C 0.98816 0.12377 0.5868 0.0
C946 C 0.00231 0.17214 0.59499 0.0
C947 C 0.99052 0.23926 0.57684 0.0
H948 H 0.05726 0.27145 0.59405 0.0
C949 C 0.03281 0.36403 0.57319 0.0
C950 C 0.03498 0.37934 0.5833 0.0
C951 C 0.02875 0.33248 0.57289 0.0
C952 C 0.03853 0.26281 0.58921 0.0
H953 H 0.97678 0.12587 0.5695 0.0
H954 H 0.98648 0.18033 0.56772 0.0
H955 H 0.04566 0.21751 0.59487 0.0
H956 H 0.03576 0.37345 0.601 0.0
H957 H 0.02944 0.31851 0.60046 0.0
H958 H 0.98385 0.28486 0.5711 0.0
C959 C 0.98903 0.16984 0.57571 0.0
C960 C 0.03168 0.23188 0.58972 0.0
C961 C 0.98345 0.13861 0.57672 0.0
C962 C 0.03421 0.36233 0.59307 0.0
C963 C 0.03065 0.33084 0.59277 0.0
C964 C 0.99763 0.27023 0.57623 0.0
C965 C 0.99915 0.18691 0.5848 0.0
C966 C 0.00721 0.21972 0.58371 0.0
C967 C 0.02734 0.31561 0.5827 0.0
C968 C 0.02141 0.2824 0.58255 0.0
H969 H 1.00065 0.13031 0.60388 0.0
H970 H 0.00913 0.18457 0.60226 0.0
H971 H 0.9714 0.23086 0.57215 0.0
H972 H 0.03307 0.37653 0.56552 0.0
H973 H 0.02647 0.32129 0.56501 0.0
C974 C 0.89931 0.77069 0.82555 0.0
C975 C 0.88345 0.77396 0.8355 0.0
C976 C 0.93062 0.7651 0.82557 0.0
C977 C 0.99134 0.73644 0.84422 0.0
H978 H 0.04553 0.76608 0.82153 0.0
C979 C 0.12158 0.73586 0.84833 0.0
C980 C 0.13867 0.72582 0.83928 0.0
C981 C 0.09023 0.73966 0.84747 0.0
C982 C 0.03056 0.75738 0.82784 0.0
H983 H 0.8882 0.77579 0.85322 0.0
H984 H 0.94271 0.76751 0.85325 0.0
H985 H 0.99168 0.77919 0.82084 0.0
H986 H 0.13624 0.71165 0.82224 0.0
H987 H 0.08117 0.71882 0.82069 0.0
H988 H 0.03048 0.71549 0.85139 0.0
C989 C 0.93101 0.76799 0.84543 0.0
C990 C 0.99967 0.76486 0.82746 0.0
C991 C 0.89975 0.77311 0.84542 0.0
C992 C 0.12362 0.71918 0.82938 0.0
C993 C 0.0922 0.72352 0.82846 0.0
C994 C 0.0222 0.72933 0.84467 0.0
C995 C 0.94679 0.76303 0.83553 0.0
C996 C 0.97967 0.75472 0.83571 0.0
C997 C 0.07525 0.73399 0.83749 0.0
C998 C 0.04218 0.73989 0.83654 0.0
H999 H 0.88733 0.77095 0.81778 0.0
H1000 H 0.94185 0.76121 0.81778 0.0
H1001 H 0.97663 0.72742 0.85055 0.0
H1002 H 0.13252 0.74118 0.85607 0.0
H1003 H 0.0778 0.74795 0.85454 0.0
C1004 C 0.48223 0.64144 0.0776 0.0
C1005 C 0.48752 0.62697 0.08772 0.0
C1006 C 0.4881 0.67255 0.07637 0.0
C1007 C 0.53274 0.73442 0.08954 0.0
H1008 H 0.48361 0.78749 0.0714 0.0
C1009 C 0.53622 0.86476 0.09261 0.0
C1010 C 0.53589 0.88171 0.08283 0.0
C1011 C 0.53275 0.83327 0.09238 0.0
C1012 C 0.49776 0.77283 0.07638 0.0
H1013 H 0.50132 0.63404 0.10463 0.0
H1014 H 0.51036 0.68811 0.10263 0.0
H1015 H 0.47067 0.73367 0.0728 0.0
H1016 H 0.53224 0.87882 0.06508 0.0
H1017 H 0.52581 0.82355 0.0647 0.0
H1018 H 0.55921 0.77378 0.09338 0.0
C1019 C 0.50283 0.67547 0.09551 0.0
C1020 C 0.49036 0.74197 0.07719 0.0
C1021 C 0.49733 0.64446 0.09669 0.0
C1022 C 0.53284 0.86635 0.07276 0.0
C1023 C 0.52888 0.83479 0.07254 0.0
C1024 C 0.53991 0.76523 0.08882 0.0
C1025 C 0.49911 0.68983 0.08527 0.0
C1026 C 0.50751 0.72244 0.08392 0.0
C1027 C 0.52845 0.818 0.08237 0.0
C1028 C 0.52231 0.78485 0.08234 0.0
H1029 H 0.47489 0.62851 0.07051 0.0
H1030 H 0.48508 0.68276 0.06835 0.0
H1031 H 0.54704 0.72 0.09455 0.0
H1032 H 0.53846 0.87594 0.1005 0.0
H1033 H 0.5323 0.82099 0.10009 0.0
C1034 C 0.62232 0.23047 0.32452 0.0
C1035 C 0.63835 0.22597 0.33437 0.0
C1036 C 0.59094 0.23564 0.32467 0.0
C1037 C 0.53009 0.26095 0.34388 0.0
H1038 H 0.47608 0.23457 0.32062 0.0
C1039 C 0.39977 0.26148 0.34788 0.0
C1040 C 0.38277 0.27271 0.33899 0.0
C1041 C 0.43111 0.25759 0.34698 0.0
C1042 C 0.491 0.24236 0.32711 0.0
H1043 H 0.6338 0.22149 0.35203 0.0
H1044 H 0.57917 0.22905 0.35228 0.0
H1045 H 0.52997 0.22174 0.31971 0.0
H1046 H 0.38539 0.28888 0.32219 0.0
H1047 H 0.44042 0.28159 0.32056 0.0
H1048 H 0.49088 0.28073 0.35141 0.0
C1049 C 0.5908 0.22984 0.34445 0.0
C1050 C 0.52191 0.23504 0.3266 0.0
C1051 C 0.62214 0.22513 0.34431 0.0
C1052 C 0.39792 0.28041 0.32921 0.0
C1053 C 0.42932 0.276 0.32824 0.0
C1054 C 0.4992 0.2679 0.34445 0.0
C1055 C 0.57484 0.23606 0.33468 0.0
C1056 C 0.54188 0.24403 0.33504 0.0
C1057 C 0.44619 0.26438 0.33711 0.0
C1058 C 0.47928 0.25853 0.33611 0.0
H1059 H 0.6342 0.23154 0.31674 0.0
H1060 H 0.5796 0.24053 0.31698 0.0
H1061 H 0.54476 0.26908 0.35038 0.0
H1062 H 0.38877 0.25532 0.35553 0.0
H1063 H 0.44345 0.24839 0.35393 0.0
C1064 C 0.99536 0.86269 0.40912 0.0
C1065 C 0.98973 0.87936 0.41874 0.0
C1066 C 1.00075 0.83149 0.40959 0.0
C1067 C 0.99541 0.76337 0.42774 0.0
H1068 H 0.05491 0.7318 0.40723 0.0
C1069 C 0.03908 0.63858 0.42871 0.0
C1070 C 0.0372 0.62359 0.41853 0.0
C1071 C 0.03502 0.6701 0.42935 0.0
C1072 C 0.03822 0.74027 0.413 0.0
H1073 H 0.9846 0.87616 0.43642 0.0
H1074 H 0.99474 0.82169 0.4373 0.0
H1075 H 0.04324 0.78577 0.40725 0.0
H1076 H 0.03072 0.63 0.40101 0.0
H1077 H 0.02445 0.68488 0.4021 0.0
H1078 H 0.99094 0.71757 0.43356 0.0
C1079 C 0.99444 0.83262 0.42934 0.0
C1080 C 0.0313 0.77122 0.41296 0.0
C1081 C 0.98863 0.8639 0.42884 0.0
C1082 C 0.03233 0.64087 0.40898 0.0
C1083 C 0.02881 0.67233 0.40959 0.0
C1084 C 0.00264 0.73238 0.42786 0.0
C1085 C 0.00117 0.81609 0.41973 0.0
C1086 C 0.00939 0.78318 0.4202 0.0
C1087 C 0.0296 0.68725 0.41979 0.0
C1088 C 0.02379 0.72045 0.42037 0.0
H1089 H 0.99609 0.87387 0.40119 0.0
H1090 H 0.0049 0.8195 0.40197 0.0
H1091 H 0.97826 0.77158 0.43337 0.0
H1092 H 0.04255 0.62584 0.43622 0.0
H1093 H 0.03592 0.68106 0.43731 0.0
C1094 C 0.39915 0.73067 0.67889 0.0
C1095 C 0.38345 0.72731 0.66891 0.0
C1096 C 0.43044 0.73638 0.67894 0.0
C1097 C 0.49126 0.76544 0.66045 0.0
H1098 H 0.54542 0.73544 0.68309 0.0
C1099 C 0.6214 0.76636 0.65629 0.0
C1100 C 0.63861 0.77591 0.66538 0.0
C1101 C 0.59005 0.76257 0.65716 0.0
C1102 C 0.53046 0.74426 0.67679 0.0
H1103 H 0.38852 0.72544 0.6512 0.0
H1104 H 0.44298 0.73401 0.65129 0.0
H1105 H 0.49157 0.72226 0.68372 0.0
H1106 H 0.63637 0.78929 0.6825 0.0
H1107 H 0.58129 0.78219 0.68407 0.0
H1108 H 0.53036 0.78662 0.65335 0.0
C1109 C 0.43115 0.73347 0.65908 0.0
C1110 C 0.49957 0.73673 0.67714 0.0
C1111 C 0.39991 0.72819 0.65903 0.0
C1112 C 0.62367 0.78212 0.67534 0.0
C1113 C 0.59224 0.77782 0.67626 0.0
C1114 C 0.5221 0.77263 0.66003 0.0
C1115 C 0.44676 0.73851 0.66901 0.0
C1116 C 0.47959 0.74696 0.6689 0.0
C1117 C 0.57517 0.76781 0.66719 0.0
C1118 C 0.54209 0.76192 0.66814 0.0
H1119 H 0.38705 0.73038 0.68664 0.0
H1120 H 0.44155 0.74031 0.68675 0.0
H1121 H 0.47654 0.77452 0.65413 0.0
H1122 H 0.63224 0.76137 0.6485 0.0
H1123 H 0.57755 0.75463 0.65006 0.0
C1124 C 0.4981 0.3593 0.90806 0.0
C1125 C 0.48819 0.37665 0.91705 0.0
C1126 C 0.50345 0.32824 0.90917 0.0
C1127 C 0.49028 0.26136 0.92726 0.0
H1128 H 0.559 0.2294 0.91105 0.0
C1129 C 0.53195 0.13665 0.93152 0.0
C1130 C 0.53536 0.12137 0.92145 0.0
C1131 C 0.52801 0.16821 0.93176 0.0
C1132 C 0.53971 0.23797 0.91562 0.0
H1133 H 0.47528 0.3748 0.93422 0.0
H1134 H 0.48522 0.32045 0.93626 0.0
H1135 H 0.54724 0.28329 0.91003 0.0
H1136 H 0.53855 0.12736 0.90379 0.0
H1137 H 0.5324 0.18231 0.90425 0.0
H1138 H 0.48314 0.21577 0.93292 0.0
C1139 C 0.48843 0.33081 0.92827 0.0
C1140 C 0.53279 0.26886 0.91498 0.0
C1141 C 0.48271 0.36198 0.92712 0.0
C1142 C 0.53603 0.13844 0.91169 0.0
C1143 C 0.53257 0.16994 0.91195 0.0
C1144 C 0.49743 0.23043 0.92799 0.0
C1145 C 0.49948 0.31366 0.91936 0.0
C1146 C 0.50763 0.28093 0.92062 0.0
C1147 C 0.52794 0.18513 0.92196 0.0
C1148 C 0.52194 0.21834 0.92202 0.0
H1149 H 0.50223 0.36985 0.90015 0.0
H1150 H 0.51103 0.31572 0.90202 0.0
H1151 H 0.47062 0.26971 0.93166 0.0
H1152 H 0.5311 0.12412 0.93917 0.0
H1153 H 0.52472 0.17937 0.93961 0.0
C1154 C 0.12321 0.27951 0.17543 0.0
C1155 C 0.13852 0.27775 0.16532 0.0
C1156 C 0.09209 0.27309 0.17605 0.0
C1157 C 0.03166 0.23322 0.16018 0.0
H1158 H 0.97703 0.27379 0.18036 0.0
C1159 C 0.90161 0.23075 0.156 0.0
C1160 C 0.88438 0.22529 0.16551 0.0
C1161 C 0.93298 0.23464 0.15666 0.0
C1162 C 0.99216 0.26203 0.17478 0.0
H1163 H 0.13301 0.26981 0.14786 0.0
H1164 H 0.07883 0.26011 0.14882 0.0
H1165 H 0.0307 0.28787 0.18003 0.0
H1166 H 0.88652 0.21926 0.18318 0.0
H1167 H 0.94166 0.22669 0.18435 0.0
H1168 H 0.99282 0.20827 0.15466 0.0
C1169 C 0.09082 0.26513 0.15637 0.0
C1170 C 0.02292 0.27006 0.17458 0.0
C1171 C 0.12188 0.27105 0.15579 0.0
C1172 C 0.89929 0.22317 0.1757 0.0
C1173 C 0.93072 0.22767 0.17639 0.0
C1174 C 1.00093 0.22554 0.16027 0.0
C1175 C 0.07562 0.26516 0.16654 0.0
C1176 C 0.04303 0.25604 0.16716 0.0
C1177 C 0.9478 0.23368 0.16687 0.0
C1178 C 0.9808 0.24007 0.16749 0.0
H1179 H 0.13553 0.28436 0.18293 0.0
H1180 H 0.08128 0.27321 0.18403 0.0
H1181 H 0.04649 0.22121 0.15458 0.0
H1182 H 0.89074 0.23256 0.14804 0.0
H1183 H 0.94554 0.23944 0.1492 0.0
C1184 C 0.06359 0.02466 0.46164 0.0
C1185 C 0.06046 0.99651 0.45635 0.0
C1186 C 0.0702 0.02616 0.47286 0.0
C1187 C 0.09106 0.97846 0.49746 0.0
H1188 H 0.04941 0.0428 0.51311 0.0
C1189 C 0.0548 0.97436 0.54324 0.0
C1190 C 0.05943 1.00054 0.54963 0.0
C1191 C 0.06181 0.97428 0.53203 0.0
C1192 C 0.06157 0.02496 0.50885 0.0
H1193 H 0.06261 0.94782 0.45861 0.0
H1194 H 0.07272 0.95021 0.47825 0.0
H1195 H 0.0484 0.042 0.49316 0.0
H1196 H 0.07597 0.04686 0.54936 0.0
H1197 H 0.08752 0.04694 0.52965 0.0
H1198 H 0.10232 0.96052 0.51336 0.0
C1199 C 0.07114 0.97131 0.47374 0.0
C1200 C 0.06117 0.02451 0.49736 0.0
C1201 C 0.06523 0.96987 0.46244 0.0
C1202 C 0.07236 0.02628 0.54467 0.0
C1203 C 0.07879 0.0264 0.53339 0.0
C1204 C 0.09092 0.97862 0.50898 0.0
C1205 C 0.07301 0.9995 0.47919 0.0
C1206 C 0.07565 1.00109 0.49146 0.0
C1207 C 0.07305 1.00057 0.52693 0.0
C1208 C 0.07595 0.00175 0.51478 0.0
H1209 H 0.06021 0.0456 0.45712 0.0
H1210 H 0.07237 0.04832 0.47661 0.0
H1211 H 0.10302 0.96038 0.49329 0.0
H1212 H 0.04485 0.95418 0.54684 0.0
H1213 H 0.05694 0.95414 0.52724 0.0
C1214 C 0.25225 0.7908 0.79341 0.0
C1215 C 0.28094 0.79436 0.7983 0.0
C1216 C 0.24811 0.79655 0.78221 0.0
C1217 C 0.28296 0.83049 0.75717 0.0
H1218 H 0.2387 0.76617 0.74251 0.0
C1219 C 0.28721 0.80881 0.70994 0.0
C1220 C 0.26121 0.79659 0.70492 0.0
C1221 C 0.28793 0.81371 0.72133 0.0
C1222 C 0.25064 0.7847 0.74644 0.0
H1223 H 0.32733 0.80866 0.79535 0.0
H1224 H 0.32012 0.81849 0.77578 0.0
H1225 H 0.24266 0.76601 0.76237 0.0
H1226 H 0.21482 0.78221 0.70776 0.0
H1227 H 0.21573 0.79159 0.72744 0.0
H1228 H 0.29127 0.84886 0.74111 0.0
C1229 C 0.30077 0.81139 0.78062 0.0
C1230 C 0.25293 0.78459 0.75788 0.0
C1231 C 0.30492 0.80569 0.79186 0.0
C1232 C 0.23535 0.79129 0.71139 0.0
C1233 C 0.23596 0.79646 0.72271 0.0
C1234 C 0.28057 0.83067 0.74567 0.0
C1235 C 0.27255 0.80593 0.77559 0.0
C1236 C 0.26916 0.8074 0.76341 0.0
C1237 C 0.26258 0.8067 0.7279 0.0
C1238 C 0.2644 0.8077 0.74015 0.0
H1239 H 0.23318 0.78241 0.79813 0.0
H1240 H 0.2259 0.79277 0.77866 0.0
H1241 H 0.29549 0.8485 0.76118 0.0
H1242 H 0.30756 0.813 0.70518 0.0
H1243 H 0.30887 0.8215 0.72503 0.0
C1244 C 0.45317 0.97621 0.04228 0.0
C1245 C 0.45997 0.00295 0.04804 0.0
C1246 C 0.44692 0.97715 0.03099 0.0
C1247 C 0.45937 0.02761 0.00674 0.0
H1248 H 0.41362 0.96498 0.99169 0.0
C1249 C 0.44691 0.02524 0.95944 0.0
C1250 C 0.45846 0.99835 0.95486 0.0
C1251 C 0.44066 0.02696 0.97072 0.0
C1252 C 0.42629 0.98272 0.99581 0.0
H1253 H 0.4635 0.05183 0.04673 0.0
H1254 H 0.45077 0.0538 0.02727 0.0
H1255 H 0.41356 0.96675 0.01176 0.0
H1256 H 0.47077 0.95168 0.95833 0.0
H1257 H 0.4589 0.95443 0.97792 0.0
H1258 H 0.47175 0.04363 0.99072 0.0
C1259 C 0.4516 0.03185 0.03125 0.0
C1260 C 0.42653 0.98363 0.00732 0.0
C1261 C 0.45856 0.03082 0.04246 0.0
C1262 C 0.46186 0.97271 0.96163 0.0
C1263 C 0.45499 0.97423 0.97283 0.0
C1264 C 0.4586 0.02703 0.99525 0.0
C1265 C 0.44671 0.00495 0.02524 0.0
C1266 C 0.44363 0.00571 0.01298 0.0
C1267 C 0.44517 0.0016 0.97755 0.0
C1268 C 0.44257 0.00425 0.98967 0.0
H1269 H 0.45443 0.95436 0.04633 0.0
H1270 H 0.44374 0.95585 0.02672 0.0
H1271 H 0.4734 0.04459 0.01066 0.0
H1272 H 0.44431 0.04543 0.95444 0.0
H1273 H 0.43307 0.04831 0.97416 0.0
C1274 C 0.25213 0.21149 0.21049 0.0
C1275 C 0.28045 0.20693 0.20544 0.0
C1276 C 0.24825 0.20575 0.2217 0.0
C1277 C 0.28318 0.17047 0.24651 0.0
H1278 H 0.24145 0.23592 0.26148 0.0
C1279 C 0.29075 0.19251 0.29368 0.0
C1280 C 0.26526 0.20524 0.29887 0.0
C1281 C 0.29069 0.18743 0.28229 0.0
C1282 C 0.25269 0.21709 0.25747 0.0
H1283 H 0.3264 0.19091 0.20811 0.0
H1284 H 0.31968 0.18115 0.2277 0.0
H1285 H 0.24443 0.23606 0.2416 0.0
H1286 H 0.21894 0.22031 0.29636 0.0
H1287 H 0.21853 0.21069 0.27669 0.0
H1288 H 0.29187 0.15188 0.26252 0.0
C1289 C 0.3004 0.18899 0.22298 0.0
C1290 C 0.2544 0.21718 0.24602 0.0
C1291 C 0.30426 0.19465 0.21173 0.0
C1292 C 0.23909 0.21084 0.29259 0.0
C1293 C 0.23894 0.20552 0.28128 0.0
C1294 C 0.28141 0.17034 0.25803 0.0
C1295 C 0.27261 0.19542 0.22817 0.0
C1296 C 0.26971 0.19396 0.24037 0.0
C1297 C 0.26507 0.1948 0.27591 0.0
C1298 C 0.26617 0.19373 0.26365 0.0
H1299 H 0.2332 0.22065 0.20589 0.0
H1300 H 0.22634 0.21029 0.22538 0.0
H1301 H 0.295 0.15213 0.24242 0.0
H1302 H 0.31131 0.18807 0.29828 0.0
H1303 H 0.31126 0.17926 0.27843 0.0
C1304 C 0.76954 0.29343 0.20977 0.0
C1305 C 0.74116 0.29803 0.20476 0.0
C1306 C 0.77337 0.29834 0.22103 0.0
C1307 C 0.7387 0.33166 0.24618 0.0
H1308 H 0.78089 0.26535 0.26049 0.0
C1309 C 0.73461 0.3088 0.29341 0.0
C1310 C 0.76045 0.29587 0.2983 0.0
C1311 C 0.73363 0.31377 0.28202 0.0
C1312 C 0.76952 0.2844 0.25666 0.0
H1313 H 0.69504 0.31329 0.20759 0.0
H1314 H 0.70172 0.32172 0.22729 0.0
H1315 H 0.7771 0.26627 0.24063 0.0
H1316 H 0.8063 0.28018 0.29523 0.0
H1317 H 0.80495 0.28966 0.27556 0.0
H1318 H 0.73086 0.34952 0.26234 0.0
C1319 C 0.72106 0.31443 0.22247 0.0
C1320 C 0.76732 0.28491 0.24522 0.0
C1321 C 0.71722 0.30956 0.21117 0.0
C1322 C 0.78588 0.28981 0.2917 0.0
C1323 C 0.78502 0.29503 0.28038 0.0
C1324 C 0.741 0.33121 0.25768 0.0
C1325 C 0.74892 0.3079 0.2276 0.0
C1326 C 0.75192 0.3085 0.23981 0.0
C1327 C 0.75855 0.30612 0.27532 0.0
C1328 C 0.75648 0.30755 0.26308 0.0
H1329 H 0.78858 0.28485 0.20508 0.0
H1330 H 0.79534 0.29375 0.22466 0.0
H1331 H 0.72678 0.35023 0.24226 0.0
H1332 H 0.7146 0.3136 0.29827 0.0
H1333 H 0.71282 0.32222 0.27841 0.0
C1334 C 0.80575 0.69453 0.712 0.0
C1335 C 0.78168 0.70569 0.70557 0.0
C1336 C 0.80169 0.68891 0.72325 0.0
C1337 C 0.75392 0.71587 0.74596 0.0
H1338 H 0.79237 0.65192 0.76286 0.0
C1339 C 0.73622 0.70978 0.79244 0.0
C1340 C 0.76203 0.70454 0.79895 0.0
C1341 C 0.7369 0.70448 0.78113 0.0
C1342 C 0.78164 0.67003 0.75826 0.0
H1343 H 0.73386 0.71736 0.70575 0.0
H1344 H 0.72673 0.70713 0.72524 0.0
H1345 H 0.79658 0.652 0.74278 0.0
H1346 H 0.80838 0.68815 0.79876 0.0
H1347 H 0.80982 0.67945 0.77891 0.0
H1348 H 0.73967 0.7345 0.7613 0.0
C1349 C 0.74895 0.70343 0.72167 0.0
C1350 C 0.78402 0.67004 0.74676 0.0
C1351 C 0.753 0.70911 0.71047 0.0
C1352 C 0.78807 0.69229 0.79397 0.0
C1353 C 0.78886 0.68727 0.78259 0.0
C1354 C 0.75164 0.71593 0.7574 0.0
C1355 C 0.77347 0.69428 0.72829 0.0
C1356 C 0.77016 0.693 0.74047 0.0
C1357 C 0.76354 0.6942 0.77598 0.0
C1358 C 0.76542 0.69304 0.76373 0.0
H1359 H 0.82816 0.69168 0.7085 0.0
H1360 H 0.8211 0.68197 0.72809 0.0
H1361 H 0.74361 0.73436 0.74144 0.0
H1362 H 0.71566 0.71888 0.79604 0.0
H1363 H 0.71669 0.70928 0.77638 0.0
C1364 C 0.55241 0.52436 0.96103 0.0
C1365 C 0.55795 0.4981 0.95479 0.0
C1366 C 0.55794 0.5247 0.97233 0.0
C1367 C 0.59368 0.48246 0.99557 0.0
H1368 H 0.52859 0.51992 0.01215 0.0
C1369 C 0.57051 0.46021 0.04201 0.0
C1370 C 0.55861 0.4842 0.0483 0.0
C1371 C 0.57583 0.4639 0.03073 0.0
C1372 C 0.54729 0.50981 0.00769 0.0
H1373 H 0.57523 0.45209 0.95545 0.0
H1374 H 0.58444 0.45247 0.97526 0.0
H1375 H 0.52823 0.52269 0.99226 0.0
H1376 H 0.54519 0.53155 0.04782 0.0
H1377 H 0.55493 0.53808 0.02827 0.0
H1378 H 0.6122 0.46892 0.01115 0.0
C1379 C 0.57614 0.47297 0.97138 0.0
C1380 C 0.5471 0.51141 0.99624 0.0
C1381 C 0.57084 0.47272 0.96001 0.0
C1382 C 0.55406 0.51249 0.04321 0.0
C1383 C 0.55945 0.51618 0.03197 0.0
C1384 C 0.59383 0.48079 0.00709 0.0
C1385 C 0.56885 0.49868 0.97774 0.0
C1386 C 0.57023 0.49775 0.99 0.0
C1387 C 0.56942 0.49166 0.02551 0.0
C1388 C 0.57057 0.49442 0.01329 0.0
H1389 H 0.5428 0.54443 0.95723 0.0
H1390 H 0.55283 0.54518 0.97688 0.0
H1391 H 0.61199 0.47188 0.99105 0.0
H1392 H 0.57423 0.43809 0.04565 0.0
H1393 H 0.5834 0.4445 0.026 0.0
C1394 C 0.95509 0.47501 0.54196 0.0
C1395 C 0.96154 0.50141 0.54798 0.0
C1396 C 0.94905 0.47667 0.53067 0.0
C1397 C 0.96174 0.52879 0.50692 0.0
H1398 H 0.91643 0.46716 0.49118 0.0
C1399 C 0.95033 0.53004 0.45961 0.0
C1400 C 0.96157 0.50338 0.45474 0.0
C1401 C 0.94397 0.53089 0.47089 0.0
C1402 C 0.929 0.48461 0.49549 0.0
H1403 H 0.96464 0.5504 0.54711 0.0
H1404 H 0.95231 0.55358 0.52765 0.0
H1405 H 0.91602 0.46747 0.51126 0.0
H1406 H 0.97319 0.45628 0.45772 0.0
H1407 H 0.96119 0.45756 0.47731 0.0
H1408 H 0.9744 0.54598 0.4911 0.0
C1409 C 0.95324 0.53137 0.53143 0.0
C1410 C 0.92902 0.4847 0.50701 0.0
C1411 C 0.95997 0.52963 0.54265 0.0
C1412 C 0.96455 0.47714 0.46124 0.0
C1413 C 0.95759 0.47783 0.47244 0.0
C1414 C 0.96121 0.52903 0.49543 0.0
C1415 C 0.94872 0.50485 0.52517 0.0
C1416 C 0.94593 0.50643 0.51291 0.0
C1417 C 0.94808 0.50492 0.47745 0.0
C1418 C 0.94533 0.50662 0.4896 0.0
H1419 H 0.95647 0.4529 0.54582 0.0
H1420 H 0.94613 0.45564 0.5262 0.0
H1421 H 0.97563 0.54554 0.51104 0.0
H1422 H 0.94803 0.55066 0.45483 0.0
H1423 H 0.93659 0.55204 0.47455 0.0
C1424 C 0.18336 0.80823 0.65679 0.0
C1425 C 0.20594 0.79058 0.65173 0.0
C1426 C 0.1628 0.82496 0.65042 0.0
C1427 C 0.15338 0.85659 0.62224 0.0
H1428 H 0.06985 0.86745 0.63137 0.0
C1429 C 0.0652 0.92029 0.5954 0.0
C1430 C 0.04875 0.94273 0.60105 0.0
C1431 C 0.08269 0.8991 0.60123 0.0
C1432 C 0.09315 0.86462 0.62873 0.0
H1433 H 0.22387 0.77597 0.63596 0.0
H1434 H 0.18782 0.80423 0.62497 0.0
H1435 H 0.10373 0.83592 0.6424 0.0
H1436 H 0.03685 0.95964 0.61726 0.0
H1437 H 0.06693 0.92281 0.62729 0.0
H1438 H 0.1427 0.88529 0.60856 0.0
C1439 C 0.18641 0.80598 0.63384 0.0
C1440 C 0.11263 0.8467 0.63508 0.0
C1441 C 0.20704 0.78956 0.64017 0.0
C1442 C 0.04934 0.94282 0.61262 0.0
C1443 C 0.06644 0.92153 0.6184 0.0
C1444 C 0.13384 0.87428 0.61585 0.0
C1445 C 0.16421 0.8242 0.63885 0.0
C1446 C 0.1431 0.84266 0.63198 0.0
C1447 C 0.08365 0.89969 0.6128 0.0
C1448 C 0.1036 0.87875 0.61908 0.0
H1449 H 0.1819 0.80956 0.66566 0.0
H1450 H 0.14623 0.83899 0.65457 0.0
H1451 H 0.1768 0.85449 0.61967 0.0
H1452 H 0.06524 0.91961 0.58651 0.0
H1453 H 0.09561 0.88236 0.59669 0.0
C1454 C 0.32315 0.78535 0.86219 0.0
C1455 C 0.31993 0.78779 0.85072 0.0
C1456 C 0.34437 0.80291 0.86782 0.0
C1457 C 0.38428 0.87524 0.86606 0.0
H1458 H 0.43079 0.84329 0.89054 0.0
C1459 C 0.46718 0.95031 0.89064 0.0
C1460 C 0.46839 0.94647 0.90212 0.0
C1461 C 0.45118 0.92995 0.88404 0.0
C1462 C 0.41771 0.85266 0.88381 0.0
H1463 H 0.33721 0.81005 0.83612 0.0
H1464 H 0.37444 0.84115 0.84604 0.0
H1465 H 0.40049 0.80896 0.87926 0.0
H1466 H 0.45369 0.9179 0.91562 0.0
H1467 H 0.42513 0.88262 0.9041 0.0
H1468 H 0.40072 0.91901 0.87074 0.0
C1469 C 0.36031 0.82554 0.85063 0.0
C1470 C 0.40049 0.83295 0.8773 0.0
C1471 C 0.33918 0.80762 0.84495 0.0
C1472 C 0.45325 0.92156 0.90682 0.0
C1473 C 0.43705 0.90121 0.90019 0.0
C1474 C 0.40135 0.89498 0.8726 0.0
C1475 C 0.36285 0.82358 0.86215 0.0
C1476 C 0.38335 0.84405 0.86842 0.0
C1477 C 0.43575 0.90521 0.88871 0.0
C1478 C 0.41812 0.88399 0.88161 0.0
H1479 H 0.30883 0.77019 0.86691 0.0
H1480 H 0.3455 0.80106 0.87669 0.0
H1481 H 0.37093 0.88457 0.85939 0.0
H1482 H 0.47872 0.96904 0.88667 0.0
H1483 H 0.45118 0.93349 0.87523 0.0
C1484 C 0.46721 0.05337 0.11295 0.0
C1485 C 0.46787 0.05653 0.10144 0.0
C1486 C 0.45082 0.07362 0.11946 0.0
C1487 C 0.41493 0.14971 0.11928 0.0
H1488 H 0.36988 0.11754 0.14408 0.0
C1489 C 0.32021 0.216 0.14123 0.0
C1490 C 0.31798 0.2141 0.15275 0.0
C1491 C 0.34114 0.19838 0.13549 0.0
C1492 C 0.38271 0.12695 0.13729 0.0
H1493 H 0.45185 0.08379 0.08778 0.0
H1494 H 0.42264 0.11889 0.09916 0.0
H1495 H 0.40027 0.08348 0.13279 0.0
H1496 H 0.33662 0.19257 0.16728 0.0
H1497 H 0.37329 0.16143 0.15717 0.0
H1498 H 0.39665 0.19309 0.12366 0.0
C1499 C 0.43527 0.10092 0.10315 0.0
C1500 C 0.40013 0.10743 0.1308 0.0
C1501 C 0.45186 0.08068 0.09661 0.0
C1502 C 0.33776 0.19458 0.15842 0.0
C1503 C 0.35861 0.17664 0.15263 0.0
C1504 C 0.39736 0.1692 0.12574 0.0
C1505 C 0.43445 0.09754 0.11466 0.0
C1506 C 0.41633 0.11852 0.12166 0.0
C1507 C 0.36031 0.1782 0.14109 0.0
C1508 C 0.38087 0.15799 0.13477 0.0
H1509 H 0.47944 0.03524 0.11701 0.0
H1510 H 0.45122 0.07062 0.12829 0.0
H1511 H 0.42753 0.15914 0.11244 0.0
H1512 H 0.30545 0.23085 0.13657 0.0
H1513 H 0.34161 0.19987 0.1266 0.0
C1514 C 0.07949 0.07018 0.40757 0.0
C1515 C 0.05213 0.05813 0.40363 0.0
C1516 C 0.09647 0.09016 0.40105 0.0
C1517 C 0.1035 0.11693 0.37184 0.0
H1518 H 0.15671 0.17632 0.38516 0.0
C1519 C 0.19122 0.18446 0.34615 0.0
C1520 C 0.20058 0.21294 0.34997 0.0
C1521 C 0.17127 0.16675 0.35242 0.0
C1522 C 0.14158 0.16033 0.38123 0.0
H1523 H 0.02021 0.05847 0.39011 0.0
H1524 H 0.04847 0.0947 0.37909 0.0
H1525 H 0.125 0.14505 0.39675 0.0
H1526 H 0.19565 0.24613 0.36294 0.0
H1527 H 0.15919 0.21656 0.37347 0.0
H1528 H 0.1187 0.13348 0.35629 0.0
C1529 C 0.05791 0.08781 0.38691 0.0
C1530 C 0.12373 0.14178 0.38795 0.0
C1531 C 0.04144 0.06725 0.39328 0.0
C1532 C 0.18866 0.22414 0.35985 0.0
C1533 C 0.16811 0.20689 0.36596 0.0
C1534 C 0.1208 0.13598 0.36511 0.0
C1535 C 0.08604 0.09913 0.39057 0.0
C1536 C 0.10456 0.11959 0.38338 0.0
C1537 C 0.15979 0.17751 0.36253 0.0
C1538 C 0.14032 0.15785 0.36968 0.0
H1539 H 0.08835 0.0632 0.41548 0.0
H1540 H 0.11817 0.09781 0.40415 0.0
H1541 H 0.0896 0.09982 0.36792 0.0
H1542 H 0.20062 0.17519 0.33864 0.0
H1543 H 0.16595 0.14416 0.34952 0.0
C1544 C 0.91648 0.0036 0.39537 0.0
C1545 C 0.92999 0.019 0.40423 0.0
C1546 C 0.89284 0.01708 0.38938 0.0
C1547 C 0.83824 0.08249 0.38978 0.0
H1548 H 0.84452 0.07629 0.3581 0.0
C1549 C 0.80901 0.1586 0.34935 0.0
C1550 C 0.78004 0.16986 0.35199 0.0
C1551 C 0.82223 0.13547 0.35554 0.0
C1552 C 0.84242 0.07833 0.36694 0.0
H1553 H 0.9282 0.06028 0.41398 0.0
H1554 H 0.88793 0.08374 0.40352 0.0
H1555 H 0.87682 0.04497 0.36965 0.0
H1556 H 0.74193 0.16477 0.36311 0.0
H1557 H 0.76498 0.12389 0.37388 0.0
H1558 H 0.80524 0.1173 0.38704 0.0
C1559 C 0.89504 0.06108 0.40123 0.0
C1560 C 0.8607 0.05999 0.37358 0.0
C1561 C 0.91848 0.04763 0.40721 0.0
C1562 C 0.76426 0.15668 0.36084 0.0
C1563 C 0.77758 0.13336 0.36706 0.0
C1564 C 0.82012 0.10102 0.38312 0.0
C1565 C 0.88218 0.04628 0.39212 0.0
C1566 C 0.85951 0.06242 0.3851 0.0
C1567 C 0.80692 0.1227 0.36455 0.0
C1568 C 0.82262 0.09983 0.37161 0.0
H1569 H 0.92468 0.9815 0.39285 0.0
H1570 H 0.88323 0.00479 0.38251 0.0
H1571 H 0.83618 0.08456 0.39861 0.0
H1572 H 0.82203 0.16813 0.34264 0.0
H1573 H 0.84505 0.12841 0.35346 0.0
C1574 C 0.60564 0.00541 0.10849 0.0
C1575 C 0.59167 0.02163 0.09991 0.0
C1576 C 0.62951 0.01839 0.1145 0.0
C1577 C 0.68427 0.08347 0.11429 0.0
H1578 H 0.68048 0.07506 0.14596 0.0
C1579 C 0.71746 0.15714 0.15485 0.0
C1580 C 0.74571 0.16911 0.15165 0.0
C1581 C 0.70377 0.13389 0.14884 0.0
C1582 C 0.68187 0.07772 0.13713 0.0
H1583 H 0.59266 0.064 0.09076 0.0
H1584 H 0.63334 0.08653 0.10125 0.0
H1585 H 0.64702 0.04476 0.13446 0.0
H1586 H 0.78235 0.16477 0.13985 0.0
H1587 H 0.75868 0.12365 0.12947 0.0
H1588 H 0.71763 0.11788 0.11697 0.0
C1589 C 0.62645 0.06361 0.10327 0.0
C1590 C 0.66293 0.05997 0.1305 0.0
C1591 C 0.60278 0.05068 0.09728 0.0
C1592 C 0.76055 0.15621 0.14254 0.0
C1593 C 0.74684 0.13276 0.13654 0.0
C1594 C 0.70301 0.10141 0.12091 0.0
C1595 C 0.63994 0.04787 0.11206 0.0
C1596 C 0.66324 0.06325 0.119 0.0
C1597 C 0.71797 0.12172 0.13948 0.0
C1598 C 0.70146 0.09941 0.13244 0.0
H1599 H 0.59772 0.98299 0.11074 0.0
H1600 H 0.63957 0.00546 0.12113 0.0
H1601 H 0.68564 0.08616 0.10546 0.0
H1602 H 0.70527 0.16638 0.16182 0.0
H1603 H 0.68137 0.12645 0.1513 0.0
C1604 C 0.71517 0.84502 0.849 0.0
C1605 C 0.7436 0.8329 0.8519 0.0
C1606 C 0.70225 0.86855 0.85505 0.0
C1607 C 0.70359 0.90201 0.88276 0.0
H1608 H 0.6477 0.95883 0.86925 0.0
C1609 C 0.6061 0.99798 0.89516 0.0
C1610 C 0.59216 0.98163 0.90372 0.0
C1611 C 0.63015 0.98519 0.88919 0.0
C1612 C 0.66361 0.9436 0.87319 0.0
H1613 H 0.78121 0.83703 0.8633 0.0
H1614 H 0.75872 0.87862 0.87384 0.0
H1615 H 0.68061 0.92803 0.85772 0.0
H1616 H 0.59339 0.93924 0.91285 0.0
H1617 H 0.63434 0.91707 0.90243 0.0
H1618 H 0.68668 0.91767 0.89823 0.0
C1619 C 0.74628 0.86948 0.86692 0.0
C1620 C 0.68224 0.92557 0.86656 0.0
C1621 C 0.75927 0.84575 0.86083 0.0
C1622 C 0.60347 0.95266 0.90635 0.0
C1623 C 0.62732 0.93995 0.9004 0.0
C1624 C 0.68516 0.92024 0.88939 0.0
C1625 C 0.71736 0.88087 0.8642 0.0
C1626 C 0.70166 0.90373 0.87124 0.0
C1627 C 0.64078 0.95579 0.89164 0.0
C1628 C 0.6641 0.94047 0.88469 0.0
H1629 H 0.70228 0.83579 0.8422 0.0
H1630 H 0.67974 0.87619 0.8528 0.0
H1631 H 0.71817 0.88547 0.88669 0.0
H1632 H 0.59802 0.02035 0.89291 0.0
H1633 H 0.64016 0.99819 0.88256 0.0
C1634 C 0.76472 0.84203 0.64162 0.0
C1635 C 0.77503 0.83434 0.65221 0.0
C1636 C 0.77908 0.865 0.63559 0.0
C1637 C 0.82917 0.93166 0.63717 0.0
H1638 H 0.86112 0.90307 0.60939 0.0
C1639 C 0.92558 0.99443 0.61381 0.0
C1640 C 0.92847 0.98989 0.60242 0.0
C1641 C 0.90279 0.97947 0.61977 0.0
C1642 C 0.85185 0.91199 0.61696 0.0
H1643 H 0.80739 0.84623 0.66497 0.0
H1644 H 0.83164 0.88676 0.65457 0.0
H1645 H 0.8275 0.87076 0.61995 0.0
H1646 H 0.90781 0.96834 0.58828 0.0
H1647 H 0.86713 0.94442 0.59838 0.0
H1648 H 0.85316 0.9731 0.63417 0.0
C1649 C 0.81268 0.87479 0.65091 0.0
C1650 C 0.83263 0.89323 0.62305 0.0
C1651 C 0.79878 0.85146 0.65686 0.0
C1652 C 0.90661 0.97208 0.59704 0.0
C1653 C 0.88339 0.95792 0.60291 0.0
C1654 C 0.84797 0.95079 0.63096 0.0
C1655 C 0.80355 0.88121 0.64011 0.0
C1656 C 0.82141 0.90267 0.63328 0.0
C1657 C 0.88185 0.96025 0.61444 0.0
C1658 C 0.85995 0.94108 0.62081 0.0
H1659 H 0.74647 0.82946 0.63779 0.0
H1660 H 0.77151 0.86963 0.62729 0.0
H1661 H 0.82074 0.9395 0.64504 0.0
H1662 H 0.94189 0.00813 0.61823 0.0
H1663 H 0.90263 0.98191 0.62862 0.0
C1664 C 0.68502 0.30989 0.15664 0.0
C1665 C 0.70613 0.29107 0.1513 0.0
C1666 C 0.66437 0.32724 0.15051 0.0
C1667 C 0.6544 0.35912 0.1225 0.0
H1668 H 0.57162 0.37307 0.13194 0.0
C1669 C 0.56842 0.4257 0.09576 0.0
C1670 C 0.55155 0.44788 0.10138 0.0
C1671 C 0.58557 0.40431 0.10161 0.0
C1672 C 0.59473 0.36946 0.12922 0.0
H1673 H 0.72097 0.27467 0.13533 0.0
H1674 H 0.68493 0.30414 0.12481 0.0
H1675 H 0.6047 0.34044 0.14289 0.0
H1676 H 0.53887 0.46426 0.1176 0.0
H1677 H 0.56861 0.42731 0.12766 0.0
H1678 H 0.64452 0.38824 0.10887 0.0
C1679 C 0.68476 0.30631 0.13367 0.0
C1680 C 0.61372 0.35086 0.13552 0.0
C1681 C 0.70538 0.28922 0.13975 0.0
C1682 C 0.55162 0.44763 0.11295 0.0
C1683 C 0.56853 0.42624 0.11876 0.0
C1684 C 0.63541 0.37759 0.11619 0.0
C1685 C 0.66434 0.32597 0.13893 0.0
C1686 C 0.64384 0.34555 0.13226 0.0
C1687 C 0.58596 0.40452 0.11319 0.0
C1688 C 0.60542 0.38316 0.11951 0.0
H1689 H 0.68499 0.31184 0.16551 0.0
H1690 H 0.64904 0.34229 0.15482 0.0
H1691 H 0.67763 0.35601 0.11983 0.0
H1692 H 0.56882 0.4252 0.08686 0.0
H1693 H 0.5986 0.38766 0.09708 0.0
C1694 C 0.83681 0.31132 0.34635 0.0
C1695 C 0.81404 0.29401 0.35146 0.0
C1696 C 0.85686 0.32886 0.35266 0.0
C1697 C 0.86464 0.36305 0.38053 0.0
H1698 H 0.949 0.37208 0.37218 0.0
C1699 C 0.9525 0.42419 0.40823 0.0
C1700 C 0.97058 0.44586 0.40283 0.0
C1701 C 0.93453 0.40397 0.40216 0.0
C1702 C 0.92545 0.36982 0.37459 0.0
H1703 H 0.79514 0.281 0.36728 0.0
H1704 H 0.83025 0.31065 0.37815 0.0
H1705 H 0.91543 0.34053 0.36103 0.0
H1706 H 0.9846 0.46252 0.3868 0.0
H1707 H 0.95361 0.42731 0.37634 0.0
H1708 H 0.87479 0.3922 0.39414 0.0
C1709 C 0.83224 0.3115 0.36929 0.0
C1710 C 0.90616 0.35188 0.36817 0.0
C1711 C 0.81215 0.29426 0.36301 0.0
C1712 C 0.9709 0.44625 0.39126 0.0
C1713 C 0.95326 0.42591 0.38523 0.0
C1714 C 0.88398 0.38075 0.387 0.0
C1715 C 0.8547 0.32929 0.36422 0.0
C1716 C 0.87544 0.34834 0.37103 0.0
C1717 C 0.93462 0.40476 0.39059 0.0
C1718 C 0.91456 0.38449 0.38407 0.0
H1719 H 0.8389 0.31168 0.33748 0.0
H1720 H 0.87366 0.34252 0.34846 0.0
H1721 H 0.84101 0.36139 0.3829 0.0
H1722 H 0.95172 0.42326 0.41712 0.0
H1723 H 0.92052 0.38774 0.40651 0.0
C1724 C 0.96687 0.55209 0.61291 0.0
C1725 C 0.96874 0.55538 0.60141 0.0
C1726 C 0.95022 0.57259 0.61924 0.0
C1727 C 0.88732 0.62692 0.61735 0.0
H1728 H 0.91728 0.6558 0.64546 0.0
C1729 C 0.82238 0.71749 0.64141 0.0
C1730 C 0.8191 0.7136 0.65283 0.0
C1731 C 0.8427 0.69978 0.63545 0.0
C1732 C 0.90846 0.6477 0.63769 0.0
H1733 H 0.95479 0.58329 0.58762 0.0
H1734 H 0.9256 0.61913 0.59872 0.0
H1735 H 0.94875 0.62213 0.63428 0.0
H1736 H 0.83561 0.68882 0.66699 0.0
H1737 H 0.87107 0.65726 0.65648 0.0
H1738 H 0.84691 0.6519 0.62077 0.0
C1739 C 0.93692 0.60042 0.60279 0.0
C1740 C 0.92651 0.62846 0.63127 0.0
C1741 C 0.95374 0.57995 0.59643 0.0
C1742 C 0.83767 0.69237 0.65822 0.0
C1743 C 0.85798 0.67434 0.65219 0.0
C1744 C 0.86926 0.64599 0.62377 0.0
C1745 C 0.93488 0.5969 0.61427 0.0
C1746 C 0.91615 0.61791 0.62101 0.0
C1747 C 0.8602 0.67741 0.64068 0.0
C1748 C 0.87962 0.65677 0.634 0.0
H1749 H 0.97813 0.53351 0.61707 0.0
H1750 H 0.94883 0.569 0.62804 0.0
H1751 H 0.8784 0.61872 0.60961 0.0
H1752 H 0.80881 0.73399 0.63701 0.0
H1753 H 0.84441 0.70342 0.62666 0.0
C1754 C 0.70753 0.70832 0.86331 0.0
C1755 C 0.70568 0.70953 0.85176 0.0
C1756 C 0.68666 0.69148 0.86942 0.0
C1757 C 0.63513 0.62662 0.86725 0.0
H1758 H 0.60127 0.65765 0.89446 0.0
C1759 C 0.54584 0.5587 0.89101 0.0
C1760 C 0.5482 0.5574 0.90253 0.0
C1761 C 0.56311 0.57923 0.88495 0.0
C1762 C 0.61077 0.64852 0.88695 0.0
H1763 H 0.68001 0.69412 0.83762 0.0
H1764 H 0.64357 0.66441 0.84833 0.0
H1765 H 0.63474 0.68974 0.88344 0.0
H1766 H 0.56986 0.57752 0.91675 0.0
H1767 H 0.60075 0.61322 0.90611 0.0
H1768 H 0.61194 0.58523 0.87082 0.0
C1769 C 0.66138 0.67653 0.85261 0.0
C1770 C 0.62986 0.66694 0.88061 0.0
C1771 C 0.68217 0.69363 0.84648 0.0
C1772 C 0.56751 0.578 0.90789 0.0
C1773 C 0.58514 0.59848 0.90178 0.0
C1774 C 0.61625 0.60816 0.87361 0.0
C1775 C 0.66347 0.67521 0.86415 0.0
C1776 C 0.64226 0.65618 0.87069 0.0
C1777 C 0.58356 0.59891 0.89021 0.0
C1778 C 0.60374 0.61885 0.88353 0.0
H1779 H 0.72525 0.72028 0.8677 0.0
H1780 H 0.68914 0.69064 0.87827 0.0
H1781 H 0.64476 0.61746 0.85977 0.0
H1782 H 0.53081 0.54354 0.88661 0.0
H1783 H 0.56058 0.57945 0.8761 0.0
C1784 C 0.42422 0.50571 0.89046 0.0
C1785 C 0.42806 0.511 0.90177 0.0
C1786 C 0.40147 0.5209 0.88456 0.0
C1787 C 0.35262 0.58999 0.88721 0.0
H1788 H 0.31872 0.56153 0.85968 0.0
C1789 C 0.26499 0.66025 0.8629 0.0
C1790 C 0.27471 0.66728 0.85219 0.0
C1791 C 0.27935 0.63732 0.86895 0.0
C1792 C 0.32793 0.56963 0.8674 0.0
H1793 H 0.40902 0.53421 0.91588 0.0
H1794 H 0.36834 0.55849 0.90591 0.0
H1795 H 0.35111 0.52781 0.87052 0.0
H1796 H 0.30598 0.65426 0.83922 0.0
H1797 H 0.33021 0.61376 0.84966 0.0
H1798 H 0.32904 0.63161 0.88412 0.0
C1799 C 0.38389 0.54421 0.90137 0.0
C1800 C 0.34672 0.55044 0.87358 0.0
C1801 C 0.4071 0.52982 0.90717 0.0
C1802 C 0.29784 0.64954 0.84744 0.0
C1803 C 0.31172 0.62624 0.8534 0.0
C1804 C 0.33339 0.60883 0.88115 0.0
C1805 C 0.38148 0.54111 0.88989 0.0
C1806 C 0.35968 0.56046 0.88354 0.0
C1807 C 0.30321 0.62046 0.86431 0.0
C1808 C 0.32116 0.59903 0.87113 0.0
H1809 H 0.43979 0.49119 0.88604 0.0
H1810 H 0.40061 0.51782 0.87574 0.0
H1811 H 0.36268 0.59916 0.89461 0.0
H1812 H 0.24723 0.67331 0.86682 0.0
H1813 H 0.27228 0.6332 0.87734 0.0
C1814 C 0.10409 0.54762 0.59737 0.0
C1815 C 0.09257 0.51881 0.60011 0.0
C1816 C 0.1279 0.56044 0.60332 0.0
C1817 C 0.16366 0.55727 0.63067 0.0
H1818 H 0.21851 0.61522 0.61723 0.0
C1819 C 0.25946 0.65487 0.64319 0.0
C1820 C 0.24371 0.66778 0.6521 0.0
C1821 C 0.24645 0.63122 0.63707 0.0
C1822 C 0.20385 0.59873 0.62114 0.0
H1823 H 0.09811 0.48042 0.61109 0.0
H1824 H 0.1402 0.50268 0.62142 0.0
H1825 H 0.18714 0.58297 0.60565 0.0
H1826 H 0.20222 0.66503 0.6617 0.0
H1827 H 0.17967 0.62475 0.65104 0.0
H1828 H 0.18049 0.5729 0.64616 0.0
C1829 C 0.13035 0.51554 0.61473 0.0
C1830 C 0.18547 0.58048 0.61449 0.0
C1831 C 0.10634 0.50267 0.60876 0.0
C1832 C 0.21518 0.65576 0.65493 0.0
C1833 C 0.20224 0.6323 0.64884 0.0
C1834 C 0.18223 0.57531 0.63732 0.0
C1835 C 0.14113 0.54483 0.61219 0.0
C1836 C 0.16433 0.56029 0.61917 0.0
C1837 C 0.21743 0.61993 0.63973 0.0
C1838 C 0.20177 0.59709 0.63266 0.0
H1839 H 0.09417 0.56087 0.59079 0.0
H1840 H 0.13505 0.58322 0.60122 0.0
H1841 H 0.14768 0.54209 0.63461 0.0
H1842 H 0.28147 0.66352 0.64077 0.0
H1843 H 0.25896 0.62204 0.63017 0.0
C1844 C 0.1104 0.46142 0.40707 0.0
C1845 C 0.09354 0.48572 0.40268 0.0
C1846 C 0.13357 0.44777 0.40099 0.0
C1847 C 0.15176 0.42863 0.37318 0.0
H1848 H 0.23198 0.40865 0.38408 0.0
C1849 C 0.2301 0.35362 0.34727 0.0
C1850 C 0.24847 0.33232 0.35271 0.0
C1851 C 0.21584 0.37694 0.35306 0.0
C1852 C 0.20957 0.41366 0.38093 0.0
H1853 H 0.08872 0.51528 0.38851 0.0
H1854 H 0.12856 0.49051 0.37773 0.0
H1855 H 0.19857 0.44115 0.39497 0.0
H1856 H 0.26737 0.31988 0.36852 0.0
H1857 H 0.24096 0.35924 0.37878 0.0
H1858 H 0.16125 0.39974 0.3596 0.0
C1859 C 0.12394 0.48247 0.38597 0.0
C1860 C 0.19057 0.43254 0.38715 0.0
C1861 C 0.10117 0.49665 0.39216 0.0
C1862 C 0.25328 0.33577 0.36406 0.0
C1863 C 0.23822 0.35864 0.36994 0.0
C1864 C 0.17039 0.40926 0.36709 0.0
C1865 C 0.14004 0.45762 0.39028 0.0
C1866 C 0.16144 0.44007 0.38334 0.0
C1867 C 0.21861 0.37913 0.36456 0.0
C1868 C 0.19958 0.40129 0.37088 0.0
H1869 H 0.10515 0.45221 0.41508 0.0
H1870 H 0.14541 0.42847 0.40446 0.0
H1871 H 0.12918 0.4336 0.37015 0.0
H1872 H 0.22603 0.35193 0.33854 0.0
H1873 H 0.20199 0.3928 0.34848 0.0
C1874 C 0.41791 0.46062 0.09827 0.0
C1875 C 0.4299 0.48883 0.1015 0.0
C1876 C 0.39452 0.44698 0.10421 0.0
C1877 C 0.36041 0.44672 0.13197 0.0
H1878 H 0.30458 0.39069 0.11802 0.0
C1879 C 0.26276 0.3499 0.14343 0.0
C1880 C 0.2777 0.33645 0.15242 0.0
C1881 C 0.27645 0.37362 0.13756 0.0
C1882 C 0.31953 0.40661 0.1221 0.0
H1883 H 0.42551 0.52545 0.11331 0.0
H1884 H 0.38402 0.50194 0.12355 0.0
H1885 H 0.33584 0.42372 0.10675 0.0
H1886 H 0.31843 0.33833 0.16246 0.0
H1887 H 0.34236 0.3786 0.15214 0.0
H1888 H 0.34374 0.42999 0.14732 0.0
C1889 C 0.39327 0.49005 0.11652 0.0
C1890 C 0.33788 0.4253 0.1156 0.0
C1891 C 0.41692 0.50367 0.11059 0.0
C1892 C 0.30613 0.34802 0.1556 0.0
C1893 C 0.31984 0.37147 0.1497 0.0
C1894 C 0.3418 0.42829 0.13847 0.0
C1895 C 0.38213 0.46123 0.11353 0.0
C1896 C 0.35931 0.44489 0.12043 0.0
C1897 C 0.30546 0.38435 0.14049 0.0
C1898 C 0.32181 0.40724 0.13363 0.0
H1899 H 0.42723 0.4484 0.09132 0.0
H1900 H 0.38707 0.42461 0.10172 0.0
H1901 H 0.37664 0.46136 0.13603 0.0
H1902 H 0.2408 0.34166 0.14077 0.0
H1903 H 0.26444 0.38325 0.13062 0.0
loop_
_geom_bond_atom_site_label_1
_geom_bond_atom_site_label_2
_geom_bond_distance
_geom_bond_site_symmetry_2
_ccdc_geom_bond_type
Co0 O2 2.145 1_565 S
Co0 O8 2.069 1_455 S
Co0 O11 2.097 . S
Co0 O24 2.107 . S
Co0 N41 2.141 1_455 S
Co0 N49 2.212 1_455 S
Co1 O2 2.160 . S
Co1 O7 2.058 1_455 S
Co1 O17 2.057 . S
Co1 O32 2.037 . S
Co1 N36 2.145 . S
Co1 N57 2.257 . S
O2 Co0 2.145 1_545 S
O2 Co1 2.160 . S
C3 O4 1.278 . S
C3 O11 1.224 1_545 S
O4 C3 1.278 . S
C5 O6 1.245 . S
C5 O17 1.232 1_655 S
O6 C5 1.245 . S
O7 Co1 2.058 1_655 S
O7 C33 1.240 1_545 S
O8 Co0 2.069 1_655 S
O8 C33 1.277 . S
H9 C34 0.930 . S
H10 C40 0.930 . S
O11 Co0 2.097 . S
O11 C3 1.224 1_565 S
H12 C44 0.929 . S
H13 C46 0.930 . S
H14 C47 0.930 1_455 S
H15 C45 0.929 . S
H16 C48 0.928 . S
O17 Co1 2.057 . S
O17 C5 1.232 1_455 S
H18 C37 0.929 . S
H19 C38 0.929 . S
H20 C50 0.931 . S
H21 C42 0.929 . S
H22 C51 0.930 . S
H23 C43 0.931 . S
O24 Co0 2.107 . S
O24 C52 1.214 . S
H25 C53 0.929 . S
H26 C54 0.929 . S
H27 C55 0.930 . S
H28 C56 0.929 . S
H29 C58 0.930 . S
H30 C35 0.930 . S
H31 C39 0.930 . S
O32 Co1 2.037 . S
O32 C52 1.234 1_545 S
C33 O7 1.240 1_565 S
C33 O8 1.277 . S
C34 H9 0.930 . S
C34 C37 1.388 . S
C34 C39 1.418 . S
C35 H30 0.930 . S
C35 C38 1.404 . S
C35 C39 1.353 . S
N36 Co1 2.145 . S
N36 C37 1.397 . S
N36 C38 1.334 . S
C37 H18 0.929 . S
C37 C34 1.388 . S
C37 N36 1.397 . S
C38 H19 0.929 . S
C38 C35 1.404 . S
C38 N36 1.334 . S
C39 H31 0.930 . S
C39 C34 1.418 . S
C39 C35 1.353 . S
C40 H10 0.930 . S
C40 N41 1.330 1_545 S
C40 C42 1.446 . S
N41 Co0 2.141 1_655 S
N41 C40 1.330 1_565 S
N41 C45 1.418 . S
C42 H21 0.929 . S
C42 C40 1.446 . S
C42 C43 1.332 . S
C43 H23 0.931 . S
C43 C42 1.332 . S
C43 C44 1.267 1_545 S
C44 H12 0.929 . S
C44 C43 1.267 1_565 S
C44 C45 1.251 . S
C45 H15 0.929 . S
C45 N41 1.418 . S
C45 C44 1.251 . S
C46 H13 0.930 . S
C46 C48 1.406 . S
C46 C51 1.261 . S
C47 H14 0.930 1_655 S
C47 N49 1.325 . S
C47 C50 1.357 . S
C48 H16 0.928 . S
C48 C46 1.406 . S
C48 N49 1.261 . S
N49 Co0 2.212 1_655 S
N49 C47 1.325 . S
N49 C48 1.261 . S
C50 H20 0.931 . S
C50 C47 1.357 . S
C50 C51 1.312 . S
C51 H22 0.930 . S
C51 C46 1.261 . S
C51 C50 1.312 . S
C52 O24 1.214 . S
C52 O32 1.234 1_565 S
C53 H25 0.929 . S
C53 C56 1.391 . S
C53 C58 1.391 . S
C54 H26 0.929 . S
C54 C55 1.390 . S
C54 N57 1.391 . S
C55 H27 0.930 . S
C55 C54 1.390 . S
C55 C56 1.392 . S
C56 H28 0.929 . S
C56 C53 1.391 . S
C56 C55 1.392 . S
N57 Co1 2.257 . S
N57 C54 1.391 . S
N57 C58 1.388 . S
C58 H29 0.930 . S
C58 C53 1.391 . S
C58 N57 1.388 . S
Co59 O61 2.143 . S
Co59 O67 2.074 . S
Co59 O70 2.093 . S
Co59 O83 2.097 . S
Co59 N100 2.151 . S
Co59 N108 2.214 . S
Co60 O61 2.160 . S
Co60 O66 2.058 . S
Co60 O76 2.057 . S
Co60 O91 2.037 . S
Co60 N95 2.145 . S
Co60 N116 2.257 . S
O61 Co59 2.143 . S
O61 Co60 2.160 . S
C62 O63 1.278 . S
C62 O70 1.224 . S
O63 C62 1.278 . S
C64 O65 1.245 . S
C64 O76 1.232 . S
O65 C64 1.245 . S
O66 Co60 2.058 . S
O66 C92 1.269 . S
O67 Co59 2.074 . S
O67 C92 1.257 . S
H68 C93 0.930 . S
H69 C99 0.930 . S
O70 Co59 2.093 . S
O70 C62 1.224 . S
H71 C103 0.929 . S
H72 C105 0.930 . S
H73 C106 0.930 . S
H74 C104 0.929 . S
H75 C107 0.928 . S
O76 Co60 2.057 . S
O76 C64 1.232 . S
H77 C96 0.929 . S
H78 C97 0.929 . S
H79 C109 0.931 . S
H80 C101 0.929 . S
H81 C110 0.930 . S
H82 C102 0.931 . S
O83 Co59 2.097 . S
O83 C111 1.214 . S
H84 C112 0.929 . S
H85 C113 0.929 . S
H86 C114 0.930 . S
H87 C115 0.929 . S
H88 C117 0.930 . S
H89 C94 0.930 . S
H90 C98 0.930 . S
O91 Co60 2.037 . S
O91 C111 1.234 . S
C92 O66 1.269 . S
C92 O67 1.257 . S
C93 H68 0.930 . S
C93 C96 1.388 . S
C93 C98 1.418 . S
C94 H89 0.930 . S
C94 C97 1.404 . S
C94 C98 1.353 . S
N95 Co60 2.145 . S
N95 C96 1.397 . S
N95 C97 1.334 . S
C96 H77 0.929 . S
C96 C93 1.388 . S
C96 N95 1.397 . S
C97 H78 0.929 . S
C97 C94 1.404 . S
C97 N95 1.334 . S
C98 H90 0.930 . S
C98 C93 1.418 . S
C98 C94 1.353 . S
C99 H69 0.930 . S
C99 N100 1.330 . S
C99 C101 1.446 . S
N100 Co59 2.151 . S
N100 C99 1.330 . S
N100 C104 1.418 . S
C101 H80 0.929 . S
C101 C99 1.446 . S
C101 C102 1.332 . S
C102 H82 0.931 . S
C102 C101 1.332 . S
C102 C103 1.267 . S
C103 H71 0.929 . S
C103 C102 1.267 . S
C103 C104 1.251 . S
C104 H74 0.929 . S
C104 N100 1.418 . S
C104 C103 1.251 . S
C105 H72 0.930 . S
C105 C107 1.406 . S
C105 C110 1.261 . S
C106 H73 0.930 . S
C106 N108 1.325 . S
C106 C109 1.357 . S
C107 H75 0.928 . S
C107 C105 1.406 . S
C107 N108 1.261 . S
N108 Co59 2.214 . S
N108 C106 1.325 . S
N108 C107 1.261 . S
C109 H79 0.931 . S
C109 C106 1.357 . S
C109 C110 1.312 . S
C110 H81 0.930 . S
C110 C105 1.261 . S
C110 C109 1.312 . S
C111 O83 1.214 . S
C111 O91 1.234 . S
C112 H84 0.929 . S
C112 C115 1.391 . S
C112 C117 1.391 . S
C113 H85 0.929 . S
C113 C114 1.390 . S
C113 N116 1.391 . S
C114 H86 0.930 . S
C114 C113 1.390 . S
C114 C115 1.392 . S
C115 H87 0.929 . S
C115 C112 1.391 . S
C115 C114 1.392 . S
N116 Co60 2.257 . S
N116 C113 1.391 . S
N116 C117 1.388 . S
C117 H88 0.930 . S
C117 C112 1.391 . S
C117 N116 1.388 . S
Co118 O120 2.143 1_545 S
Co118 O126 2.074 . S
Co118 O129 2.093 . S
Co118 O142 2.097 . S
Co118 N159 2.151 . S
Co118 N167 2.214 . S
Co119 O120 2.160 . S
Co119 O125 2.058 . S
Co119 O135 2.057 . S
Co119 O150 2.037 . S
Co119 N154 2.145 . S
Co119 N175 2.257 . S
O120 Co118 2.143 1_565 S
O120 Co119 2.160 . S
C121 O122 1.278 . S
C121 O129 1.224 1_565 S
O122 C121 1.278 . S
C123 O124 1.245 . S
C123 O135 1.232 . S
O124 C123 1.245 . S
O125 Co119 2.058 . S
O125 C151 1.241 1_565 S
O126 Co118 2.074 . S
O126 C151 1.277 . S
H127 C152 0.930 . S
H128 C158 0.930 . S
O129 Co118 2.093 . S
O129 C121 1.224 1_545 S
H130 C162 0.929 . S
H131 C164 0.930 . S
H132 C165 0.930 . S
H133 C163 0.929 . S
H134 C166 0.928 . S
O135 Co119 2.057 . S
O135 C123 1.232 . S
H136 C155 0.929 . S
H137 C156 0.929 . S
H138 C168 0.931 . S
H139 C160 0.929 . S
H140 C169 0.930 . S
H141 C161 0.931 . S
O142 Co118 2.097 . S
O142 C170 1.214 . S
H143 C171 0.929 . S
H144 C172 0.929 . S
H145 C173 0.930 . S
H146 C174 0.929 . S
H147 C176 0.930 . S
H148 C153 0.930 . S
H149 C157 0.930 . S
O150 Co119 2.037 . S
O150 C170 1.234 1_565 S
C151 O125 1.241 1_545 S
C151 O126 1.277 . S
C152 H127 0.930 . S
C152 C155 1.388 . S
C152 C157 1.418 . S
C153 H148 0.930 . S
C153 C156 1.404 . S
C153 C157 1.353 . S
N154 Co119 2.145 . S
N154 C155 1.397 . S
N154 C156 1.334 . S
C155 H136 0.929 . S
C155 C152 1.388 . S
C155 N154 1.397 . S
C156 H137 0.929 . S
C156 C153 1.404 . S
C156 N154 1.334 . S
C157 H149 0.930 . S
C157 C152 1.418 . S
C157 C153 1.353 . S
C158 H128 0.930 . S
C158 N159 1.330 1_565 S
C158 C160 1.446 . S
N159 Co118 2.151 . S
N159 C158 1.330 1_545 S
N159 C163 1.418 . S
C160 H139 0.929 . S
C160 C158 1.446 . S
C160 C161 1.332 . S
C161 H141 0.931 . S
C161 C160 1.332 . S
C161 C162 1.267 1_565 S
C162 H130 0.929 . S
C162 C161 1.267 1_545 S
C162 C163 1.251 . S
C163 H133 0.929 . S
C163 N159 1.418 . S
C163 C162 1.251 . S
C164 H131 0.930 . S
C164 C166 1.406 . S
C164 C169 1.261 . S
C165 H132 0.930 . S
C165 N167 1.325 . S
C165 C168 1.357 . S
C166 H134 0.928 . S
C166 C164 1.406 . S
C166 N167 1.261 . S
N167 Co118 2.214 . S
N167 C165 1.325 . S
N167 C166 1.261 . S
C168 H138 0.931 . S
C168 C165 1.357 . S
C168 C169 1.312 . S
C169 H140 0.930 . S
C169 C164 1.261 . S
C169 C168 1.312 . S
C170 O142 1.214 . S
C170 O150 1.234 1_545 S
C171 H143 0.929 . S
C171 C174 1.391 . S
C171 C176 1.391 . S
C172 H144 0.929 . S
C172 C173 1.390 . S
C172 N175 1.391 . S
C173 H145 0.930 . S
C173 C172 1.390 . S
C173 C174 1.392 . S
C174 H146 0.929 . S
C174 C171 1.391 . S
C174 C173 1.392 . S
N175 Co119 2.257 . S
N175 C172 1.391 . S
N175 C176 1.388 . S
C176 H147 0.930 . S
C176 C171 1.391 . S
C176 N175 1.388 . S
Co177 O179 2.143 . S
Co177 O185 2.074 . S
Co177 O188 2.093 . S
Co177 O201 2.097 . S
Co177 N218 2.151 . S
Co177 N226 2.214 . S
Co178 O179 2.160 . S
Co178 O184 2.058 . S
Co178 O194 2.057 . S
Co178 O209 2.037 . S
Co178 N213 2.145 . S
Co178 N234 2.257 . S
O179 Co177 2.143 . S
O179 Co178 2.160 . S
C180 O181 1.278 . S
C180 O188 1.224 . S
O181 C180 1.278 . S
C182 O183 1.245 . S
C182 O194 1.232 . S
O183 C182 1.245 . S
O184 Co178 2.058 . S
O184 C210 1.269 . S
O185 Co177 2.074 . S
O185 C210 1.257 . S
H186 C211 0.930 . S
H187 C217 0.930 . S
O188 Co177 2.093 . S
O188 C180 1.224 . S
H189 C221 0.929 . S
H190 C223 0.930 . S
H191 C224 0.930 . S
H192 C222 0.929 . S
H193 C225 0.928 . S
O194 Co178 2.057 . S
O194 C182 1.232 . S
H195 C214 0.929 . S
H196 C215 0.929 . S
H197 C227 0.931 . S
H198 C219 0.929 . S
H199 C228 0.930 . S
H200 C220 0.931 . S
O201 Co177 2.097 . S
O201 C229 1.214 . S
H202 C230 0.929 . S
H203 C231 0.929 . S
H204 C232 0.930 . S
H205 C233 0.929 . S
H206 C235 0.930 . S
H207 C212 0.930 . S
H208 C216 0.930 . S
O209 Co178 2.037 . S
O209 C229 1.234 . S
C210 O184 1.269 . S
C210 O185 1.257 . S
C211 H186 0.930 . S
C211 C214 1.388 . S
C211 C216 1.418 . S
C212 H207 0.930 . S
C212 C215 1.404 . S
C212 C216 1.353 . S
N213 Co178 2.145 . S
N213 C214 1.397 . S
N213 C215 1.334 . S
C214 H195 0.929 . S
C214 C211 1.388 . S
C214 N213 1.397 . S
C215 H196 0.929 . S
C215 C212 1.404 . S
C215 N213 1.334 . S
C216 H208 0.930 . S
C216 C211 1.418 . S
C216 C212 1.353 . S
C217 H187 0.930 . S
C217 N218 1.330 . S
C217 C219 1.446 . S
N218 Co177 2.151 . S
N218 C217 1.330 . S
N218 C222 1.418 . S
C219 H198 0.929 . S
C219 C217 1.446 . S
C219 C220 1.332 . S
C220 H200 0.931 . S
C220 C219 1.332 . S
C220 C221 1.267 . S
C221 H189 0.929 . S
C221 C220 1.267 . S
C221 C222 1.251 . S
C222 H192 0.929 . S
C222 N218 1.418 . S
C222 C221 1.251 . S
C223 H190 0.930 . S
C223 C225 1.406 . S
C223 C228 1.261 . S
C224 H191 0.930 . S
C224 N226 1.325 . S
C224 C227 1.357 . S
C225 H193 0.928 . S
C225 C223 1.406 . S
C225 N226 1.261 . S
N226 Co177 2.214 . S
N226 C224 1.325 . S
N226 C225 1.261 . S
C227 H197 0.931 . S
C227 C224 1.357 . S
C227 C228 1.312 . S
C228 H199 0.930 . S
C228 C223 1.261 . S
C228 C227 1.312 . S
C229 O201 1.214 . S
C229 O209 1.234 . S
C230 H202 0.929 . S
C230 C233 1.391 . S
C230 C235 1.391 . S
C231 H203 0.929 . S
C231 C232 1.390 . S
C231 N234 1.391 . S
C232 H204 0.930 . S
C232 C231 1.390 . S
C232 C233 1.392 . S
C233 H205 0.929 . S
C233 C230 1.391 . S
C233 C232 1.392 . S
N234 Co178 2.257 . S
N234 C231 1.391 . S
N234 C235 1.388 . S
C235 H206 0.930 . S
C235 C230 1.391 . S
C235 N234 1.388 . S
Co236 O238 2.145 1_545 S
Co236 O244 2.069 1_455 S
Co236 O247 2.097 . S
Co236 O260 2.107 . S
Co236 N277 2.141 1_455 S
Co236 N285 2.212 1_455 S
Co237 O238 2.160 . S
Co237 O243 2.058 1_455 S
Co237 O253 2.057 . S
Co237 O268 2.037 . S
Co237 N272 2.145 . S
Co237 N293 2.257 . S
O238 Co236 2.145 1_565 S
O238 Co237 2.160 . S
C239 O240 1.278 . S
C239 O247 1.224 1_565 S
O240 C239 1.278 . S
C241 O242 1.245 . S
C241 O253 1.232 1_655 S
O242 C241 1.245 . S
O243 Co237 2.058 1_655 S
O243 C269 1.240 1_565 S
O244 Co236 2.069 1_655 S
O244 C269 1.277 . S
H245 C270 0.930 . S
H246 C276 0.930 . S
O247 Co236 2.097 . S
O247 C239 1.224 1_545 S
H248 C280 0.929 . S
H249 C282 0.930 . S
H250 C283 0.930 1_455 S
H251 C281 0.929 . S
H252 C284 0.928 . S
O253 Co237 2.057 . S
O253 C241 1.232 1_455 S
H254 C273 0.929 . S
H255 C274 0.929 . S
H256 C286 0.931 . S
H257 C278 0.929 . S
H258 C287 0.930 . S
H259 C279 0.931 . S
O260 Co236 2.107 . S
O260 C288 1.214 . S
H261 C289 0.929 . S
H262 C290 0.929 . S
H263 C291 0.930 . S
H264 C292 0.929 . S
H265 C294 0.930 . S
H266 C271 0.930 . S
H267 C275 0.930 . S
O268 Co237 2.037 . S
O268 C288 1.234 1_565 S
C269 O243 1.240 1_545 S
C269 O244 1.277 . S
C270 H245 0.930 . S
C270 C273 1.388 . S
C270 C275 1.418 . S
C271 H266 0.930 . S
C271 C274 1.404 . S
C271 C275 1.353 . S
N272 Co237 2.145 . S
N272 C273 1.397 . S
N272 C274 1.334 . S
C273 H254 0.929 . S
C273 C270 1.388 . S
C273 N272 1.397 . S
C274 H255 0.929 . S
C274 C271 1.404 . S
C274 N272 1.334 . S
C275 H267 0.930 . S
C275 C270 1.418 . S
C275 C271 1.353 . S
C276 H246 0.930 . S
C276 N277 1.330 1_565 S
C276 C278 1.446 . S
N277 Co236 2.141 1_655 S
N277 C276 1.330 1_545 S
N277 C281 1.418 . S
C278 H257 0.929 . S
C278 C276 1.446 . S
C278 C279 1.332 . S
C279 H259 0.931 . S
C279 C278 1.332 . S
C279 C280 1.267 1_565 S
C280 H248 0.929 . S
C280 C279 1.267 1_545 S
C280 C281 1.251 . S
C281 H251 0.929 . S
C281 N277 1.418 . S
C281 C280 1.251 . S
C282 H249 0.930 . S
C282 C284 1.406 . S
C282 C287 1.261 . S
C283 H250 0.930 1_655 S
C283 N285 1.325 . S
C283 C286 1.357 . S
C284 H252 0.928 . S
C284 C282 1.406 . S
C284 N285 1.261 . S
N285 Co236 2.212 1_655 S
N285 C283 1.325 . S
N285 C284 1.261 . S
C286 H256 0.931 . S
C286 C283 1.357 . S
C286 C287 1.312 . S
C287 H258 0.930 . S
C287 C282 1.261 . S
C287 C286 1.312 . S
C288 O260 1.214 . S
C288 O268 1.234 1_545 S
C289 H261 0.929 . S
C289 C292 1.391 . S
C289 C294 1.391 . S
C290 H262 0.929 . S
C290 C291 1.390 . S
C290 N293 1.391 . S
C291 H263 0.930 . S
C291 C290 1.390 . S
C291 C292 1.392 . S
C292 H264 0.929 . S
C292 C289 1.391 . S
C292 C291 1.392 . S
N293 Co237 2.257 . S
N293 C290 1.391 . S
N293 C294 1.388 . S
C294 H265 0.930 . S
C294 C289 1.391 . S
C294 N293 1.388 . S
Co295 O297 2.143 . S
Co295 O303 2.074 . S
Co295 O306 2.093 . S
Co295 O319 2.097 . S
Co295 N336 2.151 . S
Co295 N344 2.214 . S
Co296 O297 2.160 . S
Co296 O302 2.058 . S
Co296 O312 2.057 . S
Co296 O327 2.037 . S
Co296 N331 2.145 . S
Co296 N352 2.257 . S
O297 Co295 2.143 . S
O297 Co296 2.160 . S
C298 O299 1.278 . S
C298 O306 1.224 . S
O299 C298 1.278 . S
C300 O301 1.245 . S
C300 O312 1.232 . S
O301 C300 1.245 . S
O302 Co296 2.058 . S
O302 C328 1.269 . S
O303 Co295 2.074 . S
O303 C328 1.257 . S
H304 C329 0.930 . S
H305 C335 0.930 . S
O306 Co295 2.093 . S
O306 C298 1.224 . S
H307 C339 0.929 . S
H308 C341 0.930 . S
H309 C342 0.930 . S
H310 C340 0.929 . S
H311 C343 0.928 . S
O312 Co296 2.057 . S
O312 C300 1.232 . S
H313 C332 0.929 . S
H314 C333 0.929 . S
H315 C345 0.931 . S
H316 C337 0.929 . S
H317 C346 0.930 . S
H318 C338 0.931 . S
O319 Co295 2.097 . S
O319 C347 1.214 . S
H320 C348 0.929 . S
H321 C349 0.929 . S
H322 C350 0.930 . S
H323 C351 0.929 . S
H324 C353 0.930 . S
H325 C330 0.930 . S
H326 C334 0.930 . S
O327 Co296 2.037 . S
O327 C347 1.234 . S
C328 O302 1.269 . S
C328 O303 1.257 . S
C329 H304 0.930 . S
C329 C332 1.388 . S
C329 C334 1.418 . S
C330 H325 0.930 . S
C330 C333 1.404 . S
C330 C334 1.353 . S
N331 Co296 2.145 . S
N331 C332 1.397 . S
N331 C333 1.334 . S
C332 H313 0.929 . S
C332 C329 1.388 . S
C332 N331 1.397 . S
C333 H314 0.929 . S
C333 C330 1.404 . S
C333 N331 1.334 . S
C334 H326 0.930 . S
C334 C329 1.418 . S
C334 C330 1.353 . S
C335 H305 0.930 . S
C335 N336 1.330 . S
C335 C337 1.446 . S
N336 Co295 2.151 . S
N336 C335 1.330 . S
N336 C340 1.418 . S
C337 H316 0.929 . S
C337 C335 1.446 . S
C337 C338 1.332 . S
C338 H318 0.931 . S
C338 C337 1.332 . S
C338 C339 1.267 . S
C339 H307 0.929 . S
C339 C338 1.267 . S
C339 C340 1.251 . S
C340 H310 0.929 . S
C340 N336 1.418 . S
C340 C339 1.251 . S
C341 H308 0.930 . S
C341 C343 1.406 . S
C341 C346 1.261 . S
C342 H309 0.930 . S
C342 N344 1.325 . S
C342 C345 1.357 . S
C343 H311 0.928 . S
C343 C341 1.406 . S
C343 N344 1.261 . S
N344 Co295 2.214 . S
N344 C342 1.325 . S
N344 C343 1.261 . S
C345 H315 0.931 . S
C345 C342 1.357 . S
C345 C346 1.312 . S
C346 H317 0.930 . S
C346 C341 1.261 . S
C346 C345 1.312 . S
C347 O319 1.214 . S
C347 O327 1.234 . S
C348 H320 0.929 . S
C348 C351 1.391 . S
C348 C353 1.391 . S
C349 H321 0.929 . S
C349 C350 1.390 . S
C349 N352 1.391 . S
C350 H322 0.930 . S
C350 C349 1.390 . S
C350 C351 1.392 . S
C351 H323 0.929 . S
C351 C348 1.391 . S
C351 C350 1.392 . S
N352 Co296 2.257 . S
N352 C349 1.391 . S
N352 C353 1.388 . S
C353 H324 0.930 . S
C353 C348 1.391 . S
C353 N352 1.388 . S
Co354 O356 2.143 1_565 S
Co354 O362 2.074 . S
Co354 O365 2.093 . S
Co354 O378 2.097 . S
Co354 N395 2.151 . S
Co354 N403 2.214 . S
Co355 O356 2.160 . S
Co355 O361 2.058 . S
Co355 O371 2.057 . S
Co355 O386 2.037 . S
Co355 N390 2.145 . S
Co355 N411 2.257 . S
O356 Co354 2.143 1_545 S
O356 Co355 2.160 . S
C357 O358 1.278 . S
C357 O365 1.224 1_545 S
O358 C357 1.278 . S
C359 O360 1.245 . S
C359 O371 1.232 . S
O360 C359 1.245 . S
O361 Co355 2.058 . S
O361 C387 1.241 1_545 S
O362 Co354 2.074 . S
O362 C387 1.277 . S
H363 C388 0.930 . S
H364 C394 0.930 . S
O365 Co354 2.093 . S
O365 C357 1.224 1_565 S
H366 C398 0.929 . S
H367 C400 0.930 . S
H368 C401 0.930 . S
H369 C399 0.929 . S
H370 C402 0.928 . S
O371 Co355 2.057 . S
O371 C359 1.232 . S
H372 C391 0.929 . S
H373 C392 0.929 . S
H374 C404 0.931 . S
H375 C396 0.929 . S
H376 C405 0.930 . S
H377 C397 0.931 . S
O378 Co354 2.097 . S
O378 C406 1.214 . S
H379 C407 0.929 . S
H380 C408 0.929 . S
H381 C409 0.930 . S
H382 C410 0.929 . S
H383 C412 0.930 . S
H384 C389 0.930 . S
H385 C393 0.930 . S
O386 Co355 2.037 . S
O386 C406 1.234 1_545 S
C387 O361 1.241 1_565 S
C387 O362 1.277 . S
C388 H363 0.930 . S
C388 C391 1.388 . S
C388 C393 1.418 . S
C389 H384 0.930 . S
C389 C392 1.404 . S
C389 C393 1.353 . S
N390 Co355 2.145 . S
N390 C391 1.397 . S
N390 C392 1.334 . S
C391 H372 0.929 . S
C391 C388 1.388 . S
C391 N390 1.397 . S
C392 H373 0.929 . S
C392 C389 1.404 . S
C392 N390 1.334 . S
C393 H385 0.930 . S
C393 C388 1.418 . S
C393 C389 1.353 . S
C394 H364 0.930 . S
C394 N395 1.330 1_545 S
C394 C396 1.446 . S
N395 Co354 2.151 . S
N395 C394 1.330 1_565 S
N395 C399 1.418 . S
C396 H375 0.929 . S
C396 C394 1.446 . S
C396 C397 1.332 . S
C397 H377 0.931 . S
C397 C396 1.332 . S
C397 C398 1.267 1_545 S
C398 H366 0.929 . S
C398 C397 1.267 1_565 S
C398 C399 1.251 . S
C399 H369 0.929 . S
C399 N395 1.418 . S
C399 C398 1.251 . S
C400 H367 0.930 . S
C400 C402 1.406 . S
C400 C405 1.261 . S
C401 H368 0.930 . S
C401 N403 1.325 . S
C401 C404 1.357 . S
C402 H370 0.928 . S
C402 C400 1.406 . S
C402 N403 1.261 . S
N403 Co354 2.214 . S
N403 C401 1.325 . S
N403 C402 1.261 . S
C404 H374 0.931 . S
C404 C401 1.357 . S
C404 C405 1.312 . S
C405 H376 0.930 . S
C405 C400 1.261 . S
C405 C404 1.312 . S
C406 O378 1.214 . S
C406 O386 1.234 1_565 S
C407 H379 0.929 . S
C407 C410 1.391 . S
C407 C412 1.391 . S
C408 H380 0.929 . S
C408 C409 1.390 . S
C408 N411 1.391 . S
C409 H381 0.930 . S
C409 C408 1.390 . S
C409 C410 1.392 . S
C410 H382 0.929 . S
C410 C407 1.391 . S
C410 C409 1.392 . S
N411 Co355 2.257 . S
N411 C408 1.391 . S
N411 C412 1.388 . S
C412 H383 0.930 . S
C412 C407 1.391 . S
C412 N411 1.388 . S
Co413 O415 2.143 . S
Co413 O421 2.074 . S
Co413 O424 2.093 . S
Co413 O437 2.097 . S
Co413 N454 2.151 . S
Co413 N462 2.214 . S
Co414 O415 2.160 . S
Co414 O420 2.058 . S
Co414 O430 2.057 . S
Co414 O445 2.037 . S
Co414 N449 2.145 . S
Co414 N470 2.257 . S
O415 Co413 2.143 . S
O415 Co414 2.160 . S
C416 O417 1.278 . S
C416 O424 1.224 . S
O417 C416 1.278 . S
C418 O419 1.245 . S
C418 O430 1.232 . S
O419 C418 1.245 . S
O420 Co414 2.058 . S
O420 C446 1.269 . S
O421 Co413 2.074 . S
O421 C446 1.257 . S
H422 C447 0.930 . S
H423 C453 0.930 . S
O424 Co413 2.093 . S
O424 C416 1.224 . S
H425 C457 0.929 . S
H426 C459 0.930 . S
H427 C460 0.930 . S
H428 C458 0.929 . S
H429 C461 0.928 . S
O430 Co414 2.057 . S
O430 C418 1.232 . S
H431 C450 0.929 . S
H432 C451 0.929 . S
H433 C463 0.931 . S
H434 C455 0.929 . S
H435 C464 0.930 . S
H436 C456 0.931 . S
O437 Co413 2.097 . S
O437 C465 1.214 . S
H438 C466 0.929 . S
H439 C467 0.929 . S
H440 C468 0.930 . S
H441 C469 0.929 . S
H442 C471 0.930 . S
H443 C448 0.930 . S
H444 C452 0.930 . S
O445 Co414 2.037 . S
O445 C465 1.234 . S
C446 O420 1.269 . S
C446 O421 1.257 . S
C447 H422 0.930 . S
C447 C450 1.388 . S
C447 C452 1.418 . S
C448 H443 0.930 . S
C448 C451 1.404 . S
C448 C452 1.353 . S
N449 Co414 2.145 . S
N449 C450 1.397 . S
N449 C451 1.334 . S
C450 H431 0.929 . S
C450 C447 1.388 . S
C450 N449 1.397 . S
C451 H432 0.929 . S
C451 C448 1.404 . S
C451 N449 1.334 . S
C452 H444 0.930 . S
C452 C447 1.418 . S
C452 C448 1.353 . S
C453 H423 0.930 . S
C453 N454 1.330 . S
C453 C455 1.446 . S
N454 Co413 2.151 . S
N454 C453 1.330 . S
N454 C458 1.418 . S
C455 H434 0.929 . S
C455 C453 1.446 . S
C455 C456 1.332 . S
C456 H436 0.931 . S
C456 C455 1.332 . S
C456 C457 1.267 . S
C457 H425 0.929 . S
C457 C456 1.267 . S
C457 C458 1.251 . S
C458 H428 0.929 . S
C458 N454 1.418 . S
C458 C457 1.251 . S
C459 H426 0.930 . S
C459 C461 1.406 . S
C459 C464 1.261 . S
C460 H427 0.930 . S
C460 N462 1.325 . S
C460 C463 1.357 . S
C461 H429 0.928 . S
C461 C459 1.406 . S
C461 N462 1.261 . S
N462 Co413 2.214 . S
N462 C460 1.325 . S
N462 C461 1.261 . S
C463 H433 0.931 . S
C463 C460 1.357 . S
C463 C464 1.312 . S
C464 H435 0.930 . S
C464 C459 1.261 . S
C464 C463 1.312 . S
C465 O437 1.214 . S
C465 O445 1.234 . S
C466 H438 0.929 . S
C466 C469 1.391 . S
C466 C471 1.391 . S
C467 H439 0.929 . S
C467 C468 1.390 . S
C467 N470 1.391 . S
C468 H440 0.930 . S
C468 C467 1.390 . S
C468 C469 1.392 . S
C469 H441 0.929 . S
C469 C466 1.391 . S
C469 C468 1.392 . S
N470 Co414 2.257 . S
N470 C467 1.391 . S
N470 C471 1.388 . S
C471 H442 0.930 . S
C471 C466 1.391 . S
C471 N470 1.388 . S
Co472 O474 2.143 . S
Co472 O480 2.074 . S
Co472 O483 2.093 . S
Co472 O496 2.097 . S
Co472 N513 2.151 . S
Co472 N521 2.214 . S
Co473 O474 2.160 . S
Co473 O479 2.058 . S
Co473 O489 2.057 . S
Co473 O504 2.037 . S
Co473 N508 2.145 . S
Co473 N529 2.257 . S
O474 Co472 2.143 . S
O474 Co473 2.160 . S
C475 O476 1.278 . S
C475 O483 1.224 . S
O476 C475 1.278 . S
C477 O478 1.245 . S
C477 O489 1.232 . S
O478 C477 1.245 . S
O479 Co473 2.058 . S
O479 C505 1.269 . S
O480 Co472 2.074 . S
O480 C505 1.257 . S
H481 C506 0.930 . S
H482 C512 0.930 . S
O483 Co472 2.093 . S
O483 C475 1.224 . S
H484 C516 0.929 . S
H485 C518 0.930 . S
H486 C519 0.930 . S
H487 C517 0.929 . S
H488 C520 0.928 . S
O489 Co473 2.057 . S
O489 C477 1.232 . S
H490 C509 0.929 . S
H491 C510 0.929 . S
H492 C522 0.931 . S
H493 C514 0.929 . S
H494 C523 0.930 . S
H495 C515 0.931 . S
O496 Co472 2.097 . S
O496 C524 1.214 . S
H497 C525 0.929 . S
H498 C526 0.929 . S
H499 C527 0.930 . S
H500 C528 0.929 . S
H501 C530 0.930 . S
H502 C507 0.930 . S
H503 C511 0.930 . S
O504 Co473 2.037 . S
O504 C524 1.234 . S
C505 O479 1.269 . S
C505 O480 1.257 . S
C506 H481 0.930 . S
C506 C509 1.388 . S
C506 C511 1.418 . S
C507 H502 0.930 . S
C507 C510 1.404 . S
C507 C511 1.353 . S
N508 Co473 2.145 . S
N508 C509 1.397 . S
N508 C510 1.334 . S
C509 H490 0.929 . S
C509 C506 1.388 . S
C509 N508 1.397 . S
C510 H491 0.929 . S
C510 C507 1.404 . S
C510 N508 1.334 . S
C511 H503 0.930 . S
C511 C506 1.418 . S
C511 C507 1.353 . S
C512 H482 0.930 . S
C512 N513 1.330 . S
C512 C514 1.446 . S
N513 Co472 2.151 . S
N513 C512 1.330 . S
N513 C517 1.418 . S
C514 H493 0.929 . S
C514 C512 1.446 . S
C514 C515 1.332 . S
C515 H495 0.931 . S
C515 C514 1.332 . S
C515 C516 1.267 . S
C516 H484 0.929 . S
C516 C515 1.267 . S
C516 C517 1.251 . S
C517 H487 0.929 . S
C517 N513 1.418 . S
C517 C516 1.251 . S
C518 H485 0.930 . S
C518 C520 1.406 . S
C518 C523 1.261 . S
C519 H486 0.930 . S
C519 N521 1.325 . S
C519 C522 1.357 . S
C520 H488 0.928 . S
C520 C518 1.406 . S
C520 N521 1.261 . S
N521 Co472 2.214 . S
N521 C519 1.325 . S
N521 C520 1.261 . S
C522 H492 0.931 . S
C522 C519 1.357 . S
C522 C523 1.312 . S
C523 H494 0.930 . S
C523 C518 1.261 . S
C523 C522 1.312 . S
C524 O496 1.214 . S
C524 O504 1.234 . S
C525 H497 0.929 . S
C525 C528 1.391 . S
C525 C530 1.391 . S
C526 H498 0.929 . S
C526 C527 1.390 . S
C526 N529 1.391 . S
C527 H499 0.930 . S
C527 C526 1.390 . S
C527 C528 1.392 . S
C528 H500 0.929 . S
C528 C525 1.391 . S
C528 C527 1.392 . S
N529 Co473 2.257 . S
N529 C526 1.391 . S
N529 C530 1.388 . S
C530 H501 0.930 . S
C530 C525 1.391 . S
C530 N529 1.388 . S
Co531 O533 2.143 . S
Co531 O539 2.074 . S
Co531 O542 2.093 . S
Co531 O555 2.097 . S
Co531 N572 2.151 . S
Co531 N580 2.214 . S
Co532 O533 2.160 . S
Co532 O538 2.058 . S
Co532 O548 2.057 . S
Co532 O563 2.037 . S
Co532 N567 2.145 . S
Co532 N588 2.257 . S
O533 Co531 2.143 . S
O533 Co532 2.160 . S
C534 O535 1.278 . S
C534 O542 1.224 . S
O535 C534 1.278 . S
C536 O537 1.245 . S
C536 O548 1.232 . S
O537 C536 1.245 . S
O538 Co532 2.058 . S
O538 C564 1.269 . S
O539 Co531 2.074 . S
O539 C564 1.257 . S
H540 C565 0.930 . S
H541 C571 0.930 . S
O542 Co531 2.093 . S
O542 C534 1.224 . S
H543 C575 0.929 . S
H544 C577 0.930 . S
H545 C578 0.930 . S
H546 C576 0.929 . S
H547 C579 0.928 . S
O548 Co532 2.057 . S
O548 C536 1.232 . S
H549 C568 0.929 . S
H550 C569 0.929 . S
H551 C581 0.931 . S
H552 C573 0.929 . S
H553 C582 0.930 . S
H554 C574 0.931 . S
O555 Co531 2.097 . S
O555 C583 1.214 . S
H556 C584 0.929 . S
H557 C585 0.929 . S
H558 C586 0.930 . S
H559 C587 0.929 . S
H560 C589 0.930 . S
H561 C566 0.930 . S
H562 C570 0.930 . S
O563 Co532 2.037 . S
O563 C583 1.234 . S
C564 O538 1.269 . S
C564 O539 1.257 . S
C565 H540 0.930 . S
C565 C568 1.388 . S
C565 C570 1.418 . S
C566 H561 0.930 . S
C566 C569 1.404 . S
C566 C570 1.353 . S
N567 Co532 2.145 . S
N567 C568 1.397 . S
N567 C569 1.334 . S
C568 H549 0.929 . S
C568 C565 1.388 . S
C568 N567 1.397 . S
C569 H550 0.929 . S
C569 C566 1.404 . S
C569 N567 1.334 . S
C570 H562 0.930 . S
C570 C565 1.418 . S
C570 C566 1.353 . S
C571 H541 0.930 . S
C571 N572 1.330 . S
C571 C573 1.446 . S
N572 Co531 2.151 . S
N572 C571 1.330 . S
N572 C576 1.418 . S
C573 H552 0.929 . S
C573 C571 1.446 . S
C573 C574 1.332 . S
C574 H554 0.931 . S
C574 C573 1.332 . S
C574 C575 1.267 . S
C575 H543 0.929 . S
C575 C574 1.267 . S
C575 C576 1.251 . S
C576 H546 0.929 . S
C576 N572 1.418 . S
C576 C575 1.251 . S
C577 H544 0.930 . S
C577 C579 1.406 . S
C577 C582 1.261 . S
C578 H545 0.930 . S
C578 N580 1.325 . S
C578 C581 1.357 . S
C579 H547 0.928 . S
C579 C577 1.406 . S
C579 N580 1.261 . S
N580 Co531 2.214 . S
N580 C578 1.325 . S
N580 C579 1.261 . S
C581 H551 0.931 . S
C581 C578 1.357 . S
C581 C582 1.312 . S
C582 H553 0.930 . S
C582 C577 1.261 . S
C582 C581 1.312 . S
C583 O555 1.214 . S
C583 O563 1.234 . S
C584 H556 0.929 . S
C584 C587 1.391 . S
C584 C589 1.391 . S
C585 H557 0.929 . S
C585 C586 1.390 . S
C585 N588 1.391 . S
C586 H558 0.930 . S
C586 C585 1.390 . S
C586 C587 1.392 . S
C587 H559 0.929 . S
C587 C584 1.391 . S
C587 C586 1.392 . S
N588 Co532 2.257 . S
N588 C585 1.391 . S
N588 C589 1.388 . S
C589 H560 0.930 . S
C589 C584 1.391 . S
C589 N588 1.388 . S
Co590 O592 2.143 . S
Co590 O598 2.074 . S
Co590 O601 2.093 . S
Co590 O614 2.097 . S
Co590 N631 2.151 . S
Co590 N639 2.214 . S
Co591 O592 2.160 . S
Co591 O597 2.058 . S
Co591 O607 2.057 . S
Co591 O622 2.037 . S
Co591 N626 2.145 . S
Co591 N647 2.257 . S
O592 Co590 2.143 . S
O592 Co591 2.160 . S
C593 O594 1.278 . S
C593 O601 1.224 . S
O594 C593 1.278 . S
C595 O596 1.245 . S
C595 O607 1.232 . S
O596 C595 1.245 . S
O597 Co591 2.058 . S
O597 C623 1.269 . S
O598 Co590 2.074 . S
O598 C623 1.257 . S
H599 C624 0.930 . S
H600 C630 0.930 . S
O601 Co590 2.093 . S
O601 C593 1.224 . S
H602 C634 0.929 . S
H603 C636 0.930 . S
H604 C637 0.930 . S
H605 C635 0.929 . S
H606 C638 0.928 . S
O607 Co591 2.057 . S
O607 C595 1.232 . S
H608 C627 0.929 . S
H609 C628 0.929 . S
H610 C640 0.931 . S
H611 C632 0.929 . S
H612 C641 0.930 . S
H613 C633 0.931 . S
O614 Co590 2.097 . S
O614 C642 1.214 . S
H615 C643 0.929 . S
H616 C644 0.929 . S
H617 C645 0.930 . S
H618 C646 0.929 . S
H619 C648 0.930 . S
H620 C625 0.930 . S
H621 C629 0.930 . S
O622 Co591 2.037 . S
O622 C642 1.234 . S
C623 O597 1.269 . S
C623 O598 1.257 . S
C624 H599 0.930 . S
C624 C627 1.388 . S
C624 C629 1.418 . S
C625 H620 0.930 . S
C625 C628 1.404 . S
C625 C629 1.353 . S
N626 Co591 2.145 . S
N626 C627 1.397 . S
N626 C628 1.334 . S
C627 H608 0.929 . S
C627 C624 1.388 . S
C627 N626 1.397 . S
C628 H609 0.929 . S
C628 C625 1.404 . S
C628 N626 1.334 . S
C629 H621 0.930 . S
C629 C624 1.418 . S
C629 C625 1.353 . S
C630 H600 0.930 . S
C630 N631 1.330 . S
C630 C632 1.446 . S
N631 Co590 2.151 . S
N631 C630 1.330 . S
N631 C635 1.418 . S
C632 H611 0.929 . S
C632 C630 1.446 . S
C632 C633 1.332 . S
C633 H613 0.931 . S
C633 C632 1.332 . S
C633 C634 1.267 . S
C634 H602 0.929 . S
C634 C633 1.267 . S
C634 C635 1.251 . S
C635 H605 0.929 . S
C635 N631 1.418 . S
C635 C634 1.251 . S
C636 H603 0.930 . S
C636 C638 1.406 . S
C636 C641 1.261 . S
C637 H604 0.930 . S
C637 N639 1.325 . S
C637 C640 1.357 . S
C638 H606 0.928 . S
C638 C636 1.406 . S
C638 N639 1.261 . S
N639 Co590 2.214 . S
N639 C637 1.325 . S
N639 C638 1.261 . S
C640 H610 0.931 . S
C640 C637 1.357 . S
C640 C641 1.312 . S
C641 H612 0.930 . S
C641 C636 1.261 . S
C641 C640 1.312 . S
C642 O614 1.214 . S
C642 O622 1.234 . S
C643 H615 0.929 . S
C643 C646 1.391 . S
C643 C648 1.391 . S
C644 H616 0.929 . S
C644 C645 1.390 . S
C644 N647 1.391 . S
C645 H617 0.930 . S
C645 C644 1.390 . S
C645 C646 1.392 . S
C646 H618 0.929 . S
C646 C643 1.391 . S
C646 C645 1.392 . S
N647 Co591 2.257 . S
N647 C644 1.391 . S
N647 C648 1.388 . S
C648 H619 0.930 . S
C648 C643 1.391 . S
C648 N647 1.388 . S
Co649 O651 2.143 . S
Co649 O657 2.074 . S
Co649 O660 2.093 . S
Co649 O673 2.097 . S
Co649 N690 2.151 . S
Co649 N698 2.214 . S
Co650 O651 2.160 . S
Co650 O656 2.058 . S
Co650 O666 2.057 . S
Co650 O681 2.037 . S
Co650 N685 2.145 . S
Co650 N706 2.257 . S
O651 Co649 2.143 . S
O651 Co650 2.160 . S
C652 O653 1.278 . S
C652 O660 1.224 . S
O653 C652 1.278 . S
C654 O655 1.245 . S
C654 O666 1.232 . S
O655 C654 1.245 . S
O656 Co650 2.058 . S
O656 C682 1.269 . S
O657 Co649 2.074 . S
O657 C682 1.257 . S
H658 C683 0.930 . S
H659 C689 0.930 . S
O660 Co649 2.093 . S
O660 C652 1.224 . S
H661 C693 0.929 . S
H662 C695 0.930 . S
H663 C696 0.930 . S
H664 C694 0.929 . S
H665 C697 0.928 . S
O666 Co650 2.057 . S
O666 C654 1.232 . S
H667 C686 0.929 . S
H668 C687 0.929 . S
H669 C699 0.931 . S
H670 C691 0.929 . S
H671 C700 0.930 . S
H672 C692 0.931 . S
O673 Co649 2.097 . S
O673 C701 1.214 . S
H674 C702 0.929 . S
H675 C703 0.929 . S
H676 C704 0.930 . S
H677 C705 0.929 . S
H678 C707 0.930 . S
H679 C684 0.930 . S
H680 C688 0.930 . S
O681 Co650 2.037 . S
O681 C701 1.234 . S
C682 O656 1.269 . S
C682 O657 1.257 . S
C683 H658 0.930 . S
C683 C686 1.388 . S
C683 C688 1.418 . S
C684 H679 0.930 . S
C684 C687 1.404 . S
C684 C688 1.353 . S
N685 Co650 2.145 . S
N685 C686 1.397 . S
N685 C687 1.334 . S
C686 H667 0.929 . S
C686 C683 1.388 . S
C686 N685 1.397 . S
C687 H668 0.929 . S
C687 C684 1.404 . S
C687 N685 1.334 . S
C688 H680 0.930 . S
C688 C683 1.418 . S
C688 C684 1.353 . S
C689 H659 0.930 . S
C689 N690 1.330 . S
C689 C691 1.446 . S
N690 Co649 2.151 . S
N690 C689 1.330 . S
N690 C694 1.418 . S
C691 H670 0.929 . S
C691 C689 1.446 . S
C691 C692 1.332 . S
C692 H672 0.931 . S
C692 C691 1.332 . S
C692 C693 1.267 . S
C693 H661 0.929 . S
C693 C692 1.267 . S
C693 C694 1.251 . S
C694 H664 0.929 . S
C694 N690 1.418 . S
C694 C693 1.251 . S
C695 H662 0.930 . S
C695 C697 1.406 . S
C695 C700 1.261 . S
C696 H663 0.930 . S
C696 N698 1.325 . S
C696 C699 1.357 . S
C697 H665 0.928 . S
C697 C695 1.406 . S
C697 N698 1.261 . S
N698 Co649 2.214 . S
N698 C696 1.325 . S
N698 C697 1.261 . S
C699 H669 0.931 . S
C699 C696 1.357 . S
C699 C700 1.312 . S
C700 H671 0.930 . S
C700 C695 1.261 . S
C700 C699 1.312 . S
C701 O673 1.214 . S
C701 O681 1.234 . S
C702 H674 0.929 . S
C702 C705 1.391 . S
C702 C707 1.391 . S
C703 H675 0.929 . S
C703 C704 1.390 . S
C703 N706 1.391 . S
C704 H676 0.930 . S
C704 C703 1.390 . S
C704 C705 1.392 . S
C705 H677 0.929 . S
C705 C702 1.391 . S
C705 C704 1.392 . S
N706 Co650 2.257 . S
N706 C703 1.391 . S
N706 C707 1.388 . S
C707 H678 0.930 . S
C707 C702 1.391 . S
C707 N706 1.388 . S
Co708 O710 2.143 . S
Co708 O716 2.074 . S
Co708 O719 2.093 . S
Co708 O732 2.097 . S
Co708 N749 2.151 . S
Co708 N757 2.214 . S
Co709 O710 2.160 . S
Co709 O715 2.058 . S
Co709 O725 2.057 . S
Co709 O740 2.037 . S
Co709 N744 2.145 . S
Co709 N765 2.257 . S
O710 Co708 2.143 . S
O710 Co709 2.160 . S
C711 O712 1.278 . S
C711 O719 1.224 . S
O712 C711 1.278 . S
C713 O714 1.245 . S
C713 O725 1.232 . S
O714 C713 1.245 . S
O715 Co709 2.058 . S
O715 C741 1.269 . S
O716 Co708 2.074 . S
O716 C741 1.257 . S
H717 C742 0.930 . S
H718 C748 0.930 . S
O719 Co708 2.093 . S
O719 C711 1.224 . S
H720 C752 0.929 . S
H721 C754 0.930 . S
H722 C755 0.930 . S
H723 C753 0.929 . S
H724 C756 0.928 . S
O725 Co709 2.057 . S
O725 C713 1.232 . S
H726 C745 0.929 . S
H727 C746 0.929 . S
H728 C758 0.931 . S
H729 C750 0.929 . S
H730 C759 0.930 . S
H731 C751 0.931 . S
O732 Co708 2.097 . S
O732 C760 1.214 . S
H733 C761 0.929 . S
H734 C762 0.929 . S
H735 C763 0.930 . S
H736 C764 0.929 . S
H737 C766 0.930 . S
H738 C743 0.930 . S
H739 C747 0.930 . S
O740 Co709 2.037 . S
O740 C760 1.234 . S
C741 O715 1.269 . S
C741 O716 1.257 . S
C742 H717 0.930 . S
C742 C745 1.388 . S
C742 C747 1.418 . S
C743 H738 0.930 . S
C743 C746 1.404 . S
C743 C747 1.353 . S
N744 Co709 2.145 . S
N744 C745 1.397 . S
N744 C746 1.334 . S
C745 H726 0.929 . S
C745 C742 1.388 . S
C745 N744 1.397 . S
C746 H727 0.929 . S
C746 C743 1.404 . S
C746 N744 1.334 . S
C747 H739 0.930 . S
C747 C742 1.418 . S
C747 C743 1.353 . S
C748 H718 0.930 . S
C748 N749 1.330 . S
C748 C750 1.446 . S
N749 Co708 2.151 . S
N749 C748 1.330 . S
N749 C753 1.418 . S
C750 H729 0.929 . S
C750 C748 1.446 . S
C750 C751 1.332 . S
C751 H731 0.931 . S
C751 C750 1.332 . S
C751 C752 1.267 . S
C752 H720 0.929 . S
C752 C751 1.267 . S
C752 C753 1.251 . S
C753 H723 0.929 . S
C753 N749 1.418 . S
C753 C752 1.251 . S
C754 H721 0.930 . S
C754 C756 1.406 . S
C754 C759 1.261 . S
C755 H722 0.930 . S
C755 N757 1.325 . S
C755 C758 1.357 . S
C756 H724 0.928 . S
C756 C754 1.406 . S
C756 N757 1.261 . S
N757 Co708 2.214 . S
N757 C755 1.325 . S
N757 C756 1.261 . S
C758 H728 0.931 . S
C758 C755 1.357 . S
C758 C759 1.312 . S
C759 H730 0.930 . S
C759 C754 1.261 . S
C759 C758 1.312 . S
C760 O732 1.214 . S
C760 O740 1.234 . S
C761 H733 0.929 . S
C761 C764 1.391 . S
C761 C766 1.391 . S
C762 H734 0.929 . S
C762 C763 1.390 . S
C762 N765 1.391 . S
C763 H735 0.930 . S
C763 C762 1.390 . S
C763 C764 1.392 . S
C764 H736 0.929 . S
C764 C761 1.391 . S
C764 C763 1.392 . S
N765 Co709 2.257 . S
N765 C762 1.391 . S
N765 C766 1.388 . S
C766 H737 0.930 . S
C766 C761 1.391 . S
C766 N765 1.388 . S
Co767 O769 2.143 . S
Co767 O775 2.074 . S
Co767 O778 2.093 . S
Co767 O791 2.097 1_455 S
Co767 N808 2.151 . S
Co767 N816 2.214 . S
Co768 O769 2.160 1_655 S
Co768 O774 2.058 1_655 S
Co768 O784 2.057 1_655 S
Co768 O799 2.037 . S
Co768 N803 2.145 . S
Co768 N824 2.257 . S
O769 Co767 2.143 . S
O769 Co768 2.160 1_455 S
C770 O771 1.278 . S
C770 O778 1.224 1_655 S
O771 C770 1.278 . S
C772 O773 1.245 . S
C772 O784 1.232 . S
O773 C772 1.245 . S
O774 Co768 2.058 1_455 S
O774 C800 1.269 . S
O775 Co767 2.074 . S
O775 C800 1.257 . S
H776 C801 0.930 . S
H777 C807 0.930 . S
O778 Co767 2.093 . S
O778 C770 1.224 1_455 S
H779 C811 0.929 . S
H780 C813 0.930 . S
H781 C814 0.930 . S
H782 C812 0.929 . S
H783 C815 0.928 . S
O784 Co768 2.057 1_455 S
O784 C772 1.232 . S
H785 C804 0.929 . S
H786 C805 0.929 . S
H787 C817 0.931 . S
H788 C809 0.929 . S
H789 C818 0.930 . S
H790 C810 0.931 . S
O791 Co767 2.097 1_655 S
O791 C819 1.214 . S
H792 C820 0.929 . S
H793 C821 0.929 . S
H794 C822 0.930 . S
H795 C823 0.929 . S
H796 C825 0.930 . S
H797 C802 0.930 . S
H798 C806 0.930 . S
O799 Co768 2.037 . S
O799 C819 1.234 . S
C800 O774 1.269 . S
C800 O775 1.257 . S
C801 H776 0.930 . S
C801 C804 1.388 . S
C801 C806 1.418 . S
C802 H797 0.930 . S
C802 C805 1.404 . S
C802 C806 1.353 . S
N803 Co768 2.145 . S
N803 C804 1.397 . S
N803 C805 1.334 . S
C804 H785 0.929 . S
C804 C801 1.388 . S
C804 N803 1.397 . S
C805 H786 0.929 . S
C805 C802 1.404 . S
C805 N803 1.334 . S
C806 H798 0.930 . S
C806 C801 1.418 . S
C806 C802 1.353 . S
C807 H777 0.930 . S
C807 N808 1.330 . S
C807 C809 1.446 . S
N808 Co767 2.151 . S
N808 C807 1.330 . S
N808 C812 1.418 . S
C809 H788 0.929 . S
C809 C807 1.446 . S
C809 C810 1.332 . S
C810 H790 0.931 . S
C810 C809 1.332 . S
C810 C811 1.267 . S
C811 H779 0.929 . S
C811 C810 1.267 . S
C811 C812 1.251 . S
C812 H782 0.929 . S
C812 N808 1.418 . S
C812 C811 1.251 . S
C813 H780 0.930 . S
C813 C815 1.406 . S
C813 C818 1.261 . S
C814 H781 0.930 . S
C814 N816 1.325 . S
C814 C817 1.357 . S
C815 H783 0.928 . S
C815 C813 1.406 . S
C815 N816 1.261 . S
N816 Co767 2.214 . S
N816 C814 1.325 . S
N816 C815 1.261 . S
C817 H787 0.931 . S
C817 C814 1.357 . S
C817 C818 1.312 . S
C818 H789 0.930 . S
C818 C813 1.261 . S
C818 C817 1.312 . S
C819 O791 1.214 . S
C819 O799 1.234 . S
C820 H792 0.929 . S
C820 C823 1.391 . S
C820 C825 1.391 . S
C821 H793 0.929 . S
C821 C822 1.390 . S
C821 N824 1.391 . S
C822 H794 0.930 . S
C822 C821 1.390 . S
C822 C823 1.392 . S
C823 H795 0.929 . S
C823 C820 1.391 . S
C823 C822 1.392 . S
N824 Co768 2.257 . S
N824 C821 1.391 . S
N824 C825 1.388 . S
C825 H796 0.930 . S
C825 C820 1.391 . S
C825 N824 1.388 . S
Co826 O828 2.143 . S
Co826 O834 2.074 . S
Co826 O837 2.093 . S
Co826 O850 2.097 . S
Co826 N867 2.151 . S
Co826 N875 2.214 . S
Co827 O828 2.160 . S
Co827 O833 2.058 . S
Co827 O843 2.057 . S
Co827 O858 2.037 . S
Co827 N862 2.145 . S
Co827 N883 2.257 . S
O828 Co826 2.143 . S
O828 Co827 2.160 . S
C829 O830 1.278 . S
C829 O837 1.224 . S
O830 C829 1.278 . S
C831 O832 1.245 . S
C831 O843 1.232 . S
O832 C831 1.245 . S
O833 Co827 2.058 . S
O833 C859 1.269 . S
O834 Co826 2.074 . S
O834 C859 1.257 . S
H835 C860 0.930 . S
H836 C866 0.930 . S
O837 Co826 2.093 . S
O837 C829 1.224 . S
H838 C870 0.929 . S
H839 C872 0.930 . S
H840 C873 0.930 . S
H841 C871 0.929 . S
H842 C874 0.928 . S
O843 Co827 2.057 . S
O843 C831 1.232 . S
H844 C863 0.929 . S
H845 C864 0.929 . S
H846 C876 0.931 . S
H847 C868 0.929 . S
H848 C877 0.930 . S
H849 C869 0.931 . S
O850 Co826 2.097 . S
O850 C878 1.214 . S
H851 C879 0.929 . S
H852 C880 0.929 . S
H853 C881 0.930 . S
H854 C882 0.929 . S
H855 C884 0.930 . S
H856 C861 0.930 . S
H857 C865 0.930 . S
O858 Co827 2.037 . S
O858 C878 1.234 . S
C859 O833 1.269 . S
C859 O834 1.257 . S
C860 H835 0.930 . S
C860 C863 1.388 . S
C860 C865 1.418 . S
C861 H856 0.930 . S
C861 C864 1.404 . S
C861 C865 1.353 . S
N862 Co827 2.145 . S
N862 C863 1.397 . S
N862 C864 1.334 . S
C863 H844 0.929 . S
C863 C860 1.388 . S
C863 N862 1.397 . S
C864 H845 0.929 . S
C864 C861 1.404 . S
C864 N862 1.334 . S
C865 H857 0.930 . S
C865 C860 1.418 . S
C865 C861 1.353 . S
C866 H836 0.930 . S
C866 N867 1.330 . S
C866 C868 1.446 . S
N867 Co826 2.151 . S
N867 C866 1.330 . S
N867 C871 1.418 . S
C868 H847 0.929 . S
C868 C866 1.446 . S
C868 C869 1.332 . S
C869 H849 0.931 . S
C869 C868 1.332 . S
C869 C870 1.267 . S
C870 H838 0.929 . S
C870 C869 1.267 . S
C870 C871 1.251 . S
C871 H841 0.929 . S
C871 N867 1.418 . S
C871 C870 1.251 . S
C872 H839 0.930 . S
C872 C874 1.406 . S
C872 C877 1.261 . S
C873 H840 0.930 . S
C873 N875 1.325 . S
C873 C876 1.357 . S
C874 H842 0.928 . S
C874 C872 1.406 . S
C874 N875 1.261 . S
N875 Co826 2.214 . S
N875 C873 1.325 . S
N875 C874 1.261 . S
C876 H846 0.931 . S
C876 C873 1.357 . S
C876 C877 1.312 . S
C877 H848 0.930 . S
C877 C872 1.261 . S
C877 C876 1.312 . S
C878 O850 1.214 . S
C878 O858 1.234 . S
C879 H851 0.929 . S
C879 C882 1.391 . S
C879 C884 1.391 . S
C880 H852 0.929 . S
C880 C881 1.390 . S
C880 N883 1.391 . S
C881 H853 0.930 . S
C881 C880 1.390 . S
C881 C882 1.392 . S
C882 H854 0.929 . S
C882 C879 1.391 . S
C882 C881 1.392 . S
N883 Co827 2.257 . S
N883 C880 1.391 . S
N883 C884 1.388 . S
C884 H855 0.930 . S
C884 C879 1.391 . S
C884 N883 1.388 . S
Co885 O887 2.143 . S
Co885 O893 2.074 . S
Co885 O896 2.093 . S
Co885 O909 2.097 1_455 S
Co885 N926 2.151 . S
Co885 N934 2.214 . S
Co886 O887 2.160 1_655 S
Co886 O892 2.058 1_655 S
Co886 O902 2.057 1_655 S
Co886 O917 2.037 . S
Co886 N921 2.145 . S
Co886 N942 2.257 . S
O887 Co885 2.143 . S
O887 Co886 2.160 1_455 S
C888 O889 1.278 . S
C888 O896 1.224 1_655 S
O889 C888 1.278 . S
C890 O891 1.245 . S
C890 O902 1.232 . S
O891 C890 1.245 . S
O892 Co886 2.058 1_455 S
O892 C918 1.269 . S
O893 Co885 2.074 . S
O893 C918 1.257 . S
H894 C919 0.930 . S
H895 C925 0.930 . S
O896 Co885 2.093 . S
O896 C888 1.224 1_455 S
H897 C929 0.929 . S
H898 C931 0.930 . S
H899 C932 0.930 . S
H900 C930 0.929 . S
H901 C933 0.928 . S
O902 Co886 2.057 1_455 S
O902 C890 1.232 . S
H903 C922 0.929 . S
H904 C923 0.929 . S
H905 C935 0.931 . S
H906 C927 0.929 . S
H907 C936 0.930 . S
H908 C928 0.931 . S
O909 Co885 2.097 1_655 S
O909 C937 1.214 . S
H910 C938 0.929 . S
H911 C939 0.929 . S
H912 C940 0.930 . S
H913 C941 0.929 . S
H914 C943 0.930 . S
H915 C920 0.930 . S
H916 C924 0.930 . S
O917 Co886 2.037 . S
O917 C937 1.234 . S
C918 O892 1.269 . S
C918 O893 1.257 . S
C919 H894 0.930 . S
C919 C922 1.388 . S
C919 C924 1.418 . S
C920 H915 0.930 . S
C920 C923 1.404 . S
C920 C924 1.353 . S
N921 Co886 2.145 . S
N921 C922 1.397 . S
N921 C923 1.334 . S
C922 H903 0.929 . S
C922 C919 1.388 . S
C922 N921 1.397 . S
C923 H904 0.929 . S
C923 C920 1.404 . S
C923 N921 1.334 . S
C924 H916 0.930 . S
C924 C919 1.418 . S
C924 C920 1.353 . S
C925 H895 0.930 . S
C925 N926 1.330 . S
C925 C927 1.446 . S
N926 Co885 2.151 . S
N926 C925 1.330 . S
N926 C930 1.418 . S
C927 H906 0.929 . S
C927 C925 1.446 . S
C927 C928 1.332 . S
C928 H908 0.931 . S
C928 C927 1.332 . S
C928 C929 1.267 . S
C929 H897 0.929 . S
C929 C928 1.267 . S
C929 C930 1.251 . S
C930 H900 0.929 . S
C930 N926 1.418 . S
C930 C929 1.251 . S
C931 H898 0.930 . S
C931 C933 1.406 . S
C931 C936 1.261 . S
C932 H899 0.930 . S
C932 N934 1.325 . S
C932 C935 1.357 . S
C933 H901 0.928 . S
C933 C931 1.406 . S
C933 N934 1.261 . S
N934 Co885 2.214 . S
N934 C932 1.325 . S
N934 C933 1.261 . S
C935 H905 0.931 . S
C935 C932 1.357 . S
C935 C936 1.312 . S
C936 H907 0.930 . S
C936 C931 1.261 . S
C936 C935 1.312 . S
C937 O909 1.214 . S
C937 O917 1.234 . S
C938 H910 0.929 . S
C938 C941 1.391 . S
C938 C943 1.391 . S
C939 H911 0.929 . S
C939 C940 1.390 . S
C939 N942 1.391 . S
C940 H912 0.930 . S
C940 C939 1.390 . S
C940 C941 1.392 . S
C941 H913 0.929 . S
C941 C938 1.391 . S
C941 C940 1.392 . S
N942 Co886 2.257 . S
N942 C939 1.391 . S
N942 C943 1.388 . S
C943 H914 0.930 . S
C943 C938 1.391 . S
C943 N942 1.388 . S
C944 C945 1.349 1_455 S
C944 C946 1.327 . S
C944 H969 0.950 . S
C945 C944 1.349 1_655 S
C945 C961 1.349 . S
C946 C944 1.327 . S
C946 C965 1.429 . S
C946 H970 0.950 . S
C947 C964 1.574 . S
C947 C966 1.368 1_655 S
C947 H971 0.949 . S
H948 C952 0.949 . S
C949 C950 1.349 . S
C949 C951 1.327 . S
C949 H972 0.950 . S
C950 C949 1.349 . S
C950 C962 1.349 . S
C951 C949 1.327 . S
C951 C967 1.429 . S
C951 H973 0.950 1_455 S
C952 H948 0.949 . S
C952 C960 1.574 . S
C952 C968 1.368 . S
H953 C961 0.950 . S
H954 C959 0.950 . S
H955 C960 0.949 . S
H956 C962 0.950 . S
H957 C963 0.950 . S
H958 C964 0.949 . S
C959 H954 0.950 . S
C959 C961 1.327 . S
C959 C965 1.429 1_655 S
C960 C952 1.574 . S
C960 H955 0.949 . S
C960 C966 1.368 . S
C961 C945 1.349 . S
C961 H953 0.950 . S
C961 C959 1.327 . S
C962 C950 1.349 . S
C962 H956 0.950 . S
C962 C963 1.327 . S
C963 H957 0.950 . S
C963 C962 1.327 . S
C963 C967 1.429 . S
C964 C947 1.574 . S
C964 H958 0.949 . S
C964 C968 1.368 1_655 S
C965 C946 1.429 . S
C965 C959 1.429 1_455 S
C965 C966 1.523 . S
C966 C947 1.368 1_455 S
C966 C960 1.368 . S
C966 C965 1.523 . S
C967 C951 1.429 . S
C967 C963 1.429 . S
C967 C968 1.523 . S
C968 C952 1.368 . S
C968 C964 1.368 1_455 S
C968 C967 1.523 . S
H969 C944 0.950 . S
H970 C946 0.950 . S
H971 C947 0.949 . S
H972 C949 0.950 . S
H973 C951 0.950 1_655 S
C974 C975 1.349 . S
C974 C976 1.327 . S
C974 H999 0.950 . S
C975 C974 1.349 . S
C975 C991 1.349 . S
C976 C974 1.327 . S
C976 C995 1.429 . S
C976 H1000 0.950 . S
C977 C994 1.574 1_655 S
C977 C996 1.368 . S
C977 H1001 0.949 . S
H978 C982 0.949 . S
C979 C980 1.349 . S
C979 C981 1.327 . S
C979 H1002 0.950 . S
C980 C979 1.349 . S
C980 C992 1.349 . S
C981 C979 1.327 . S
C981 C997 1.429 . S
C981 H1003 0.950 . S
C982 H978 0.949 . S
C982 C990 1.574 1_455 S
C982 C998 1.368 . S
H983 C991 0.950 . S
H984 C989 0.950 . S
H985 C990 0.949 . S
H986 C992 0.950 . S
H987 C993 0.950 . S
H988 C994 0.949 . S
C989 H984 0.950 . S
C989 C991 1.327 . S
C989 C995 1.429 . S
C990 C982 1.574 1_655 S
C990 H985 0.949 . S
C990 C996 1.368 . S
C991 C975 1.349 . S
C991 H983 0.950 . S
C991 C989 1.327 . S
C992 C980 1.349 . S
C992 H986 0.950 . S
C992 C993 1.327 . S
C993 H987 0.950 . S
C993 C992 1.327 . S
C993 C997 1.429 . S
C994 C977 1.574 1_455 S
C994 H988 0.949 . S
C994 C998 1.368 . S
C995 C976 1.429 . S
C995 C989 1.429 . S
C995 C996 1.523 . S
C996 C977 1.368 . S
C996 C990 1.368 . S
C996 C995 1.523 . S
C997 C981 1.429 . S
C997 C993 1.429 . S
C997 C998 1.523 . S
C998 C982 1.368 . S
C998 C994 1.368 . S
C998 C997 1.523 . S
H999 C974 0.950 . S
H1000 C976 0.950 . S
H1001 C977 0.949 . S
H1002 C979 0.950 . S
H1003 C981 0.950 . S
C1004 C1005 1.349 . S
C1004 C1006 1.327 . S
C1004 H1029 0.950 . S
C1005 C1004 1.349 . S
C1005 C1021 1.349 . S
C1006 C1004 1.327 . S
C1006 C1025 1.429 . S
C1006 H1030 0.950 . S
C1007 C1024 1.574 . S
C1007 C1026 1.368 . S
C1007 H1031 0.949 . S
H1008 C1012 0.949 . S
C1009 C1010 1.349 . S
C1009 C1011 1.327 . S
C1009 H1032 0.950 . S
C1010 C1009 1.349 . S
C1010 C1022 1.349 . S
C1011 C1009 1.327 . S
C1011 C1027 1.429 . S
C1011 H1033 0.950 . S
C1012 H1008 0.949 . S
C1012 C1020 1.574 . S
C1012 C1028 1.368 . S
H1013 C1021 0.950 . S
H1014 C1019 0.950 . S
H1015 C1020 0.949 . S
H1016 C1022 0.950 . S
H1017 C1023 0.950 . S
H1018 C1024 0.949 . S
C1019 H1014 0.950 . S
C1019 C1021 1.327 . S
C1019 C1025 1.429 . S
C1020 C1012 1.574 . S
C1020 H1015 0.949 . S
C1020 C1026 1.368 . S
C1021 C1005 1.349 . S
C1021 H1013 0.950 . S
C1021 C1019 1.327 . S
C1022 C1010 1.349 . S
C1022 H1016 0.950 . S
C1022 C1023 1.327 . S
C1023 H1017 0.950 . S
C1023 C1022 1.327 . S
C1023 C1027 1.429 . S
C1024 C1007 1.574 . S
C1024 H1018 0.949 . S
C1024 C1028 1.368 . S
C1025 C1006 1.429 . S
C1025 C1019 1.429 . S
C1025 C1026 1.523 . S
C1026 C1007 1.368 . S
C1026 C1020 1.368 . S
C1026 C1025 1.523 . S
C1027 C1011 1.429 . S
C1027 C1023 1.429 . S
C1027 C1028 1.523 . S
C1028 C1012 1.368 . S
C1028 C1024 1.368 . S
C1028 C1027 1.523 . S
H1029 C1004 0.950 . S
H1030 C1006 0.950 . S
H1031 C1007 0.949 . S
H1032 C1009 0.950 . S
H1033 C1011 0.950 . S
C1034 C1035 1.349 . S
C1034 C1036 1.327 . S
C1034 H1059 0.950 . S
C1035 C1034 1.349 . S
C1035 C1051 1.349 . S
C1036 C1034 1.327 . S
C1036 C1055 1.429 . S
C1036 H1060 0.950 . S
C1037 C1054 1.574 . S
C1037 C1056 1.368 . S
C1037 H1061 0.949 . S
H1038 C1042 0.949 . S
C1039 C1040 1.349 . S
C1039 C1041 1.327 . S
C1039 H1062 0.950 . S
C1040 C1039 1.349 . S
C1040 C1052 1.349 . S
C1041 C1039 1.327 . S
C1041 C1057 1.429 . S
C1041 H1063 0.950 . S
C1042 H1038 0.949 . S
C1042 C1050 1.574 . S
C1042 C1058 1.368 . S
H1043 C1051 0.950 . S
H1044 C1049 0.950 . S
H1045 C1050 0.949 . S
H1046 C1052 0.950 . S
H1047 C1053 0.950 . S
H1048 C1054 0.949 . S
C1049 H1044 0.950 . S
C1049 C1051 1.327 . S
C1049 C1055 1.429 . S
C1050 C1042 1.574 . S
C1050 H1045 0.949 . S
C1050 C1056 1.368 . S
C1051 C1035 1.349 . S
C1051 H1043 0.950 . S
C1051 C1049 1.327 . S
C1052 C1040 1.349 . S
C1052 H1046 0.950 . S
C1052 C1053 1.327 . S
C1053 H1047 0.950 . S
C1053 C1052 1.327 . S
C1053 C1057 1.429 . S
C1054 C1037 1.574 . S
C1054 H1048 0.949 . S
C1054 C1058 1.368 . S
C1055 C1036 1.429 . S
C1055 C1049 1.429 . S
C1055 C1056 1.523 . S
C1056 C1037 1.368 . S
C1056 C1050 1.368 . S
C1056 C1055 1.523 . S
C1057 C1041 1.429 . S
C1057 C1053 1.429 . S
C1057 C1058 1.523 . S
C1058 C1042 1.368 . S
C1058 C1054 1.368 . S
C1058 C1057 1.523 . S
H1059 C1034 0.950 . S
H1060 C1036 0.950 . S
H1061 C1037 0.949 . S
H1062 C1039 0.950 . S
H1063 C1041 0.950 . S
C1064 C1065 1.349 1_455 S
C1064 C1066 1.327 . S
C1064 H1089 0.950 . S
C1065 C1064 1.349 1_655 S
C1065 C1081 1.349 . S
C1066 C1064 1.327 . S
C1066 C1085 1.429 . S
C1066 H1090 0.950 . S
C1067 C1084 1.574 . S
C1067 C1086 1.368 1_655 S
C1067 H1091 0.949 . S
H1068 C1072 0.949 . S
C1069 C1070 1.349 . S
C1069 C1071 1.327 . S
C1069 H1092 0.953 . S
C1070 C1069 1.349 . S
C1070 C1082 1.349 . S
C1071 C1069 1.327 . S
C1071 C1087 1.429 . S
C1071 H1093 0.950 1_455 S
C1072 H1068 0.949 . S
C1072 C1080 1.574 . S
C1072 C1088 1.368 . S
H1073 C1081 0.950 . S
H1074 C1079 0.950 . S
H1075 C1080 0.949 . S
H1076 C1082 0.950 . S
H1077 C1083 0.950 . S
H1078 C1084 0.949 . S
C1079 H1074 0.950 . S
C1079 C1081 1.327 . S
C1079 C1085 1.429 1_655 S
C1080 C1072 1.574 . S
C1080 H1075 0.949 . S
C1080 C1086 1.368 . S
C1081 C1065 1.349 . S
C1081 H1073 0.950 . S
C1081 C1079 1.327 . S
C1082 C1070 1.349 . S
C1082 H1076 0.950 . S
C1082 C1083 1.327 . S
C1083 H1077 0.950 . S
C1083 C1082 1.327 . S
C1083 C1087 1.429 . S
C1084 C1067 1.574 . S
C1084 H1078 0.949 . S
C1084 C1088 1.368 1_655 S
C1085 C1066 1.429 . S
C1085 C1079 1.429 1_455 S
C1085 C1086 1.523 . S
C1086 C1067 1.368 1_455 S
C1086 C1080 1.368 . S
C1086 C1085 1.523 . S
C1087 C1071 1.429 . S
C1087 C1083 1.429 . S
C1087 C1088 1.523 . S
C1088 C1072 1.368 . S
C1088 C1084 1.368 1_455 S
C1088 C1087 1.523 . S
H1089 C1064 0.950 . S
H1090 C1066 0.950 . S
H1091 C1067 0.949 . S
H1092 C1069 0.953 . S
H1093 C1071 0.950 1_655 S
C1094 C1095 1.349 . S
C1094 C1096 1.327 . S
C1094 H1119 0.950 . S
C1095 C1094 1.349 . S
C1095 C1111 1.349 . S
C1096 C1094 1.327 . S
C1096 C1115 1.429 . S
C1096 H1120 0.950 . S
C1097 C1114 1.574 . S
C1097 C1116 1.368 . S
C1097 H1121 0.949 . S
H1098 C1102 0.949 . S
C1099 C1100 1.349 . S
C1099 C1101 1.327 . S
C1099 H1122 0.950 . S
C1100 C1099 1.349 . S
C1100 C1112 1.349 . S
C1101 C1099 1.327 . S
C1101 C1117 1.429 . S
C1101 H1123 0.950 . S
C1102 H1098 0.949 . S
C1102 C1110 1.574 . S
C1102 C1118 1.368 . S
H1103 C1111 0.950 . S
H1104 C1109 0.950 . S
H1105 C1110 0.949 . S
H1106 C1112 0.950 . S
H1107 C1113 0.950 . S
H1108 C1114 0.949 . S
C1109 H1104 0.950 . S
C1109 C1111 1.327 . S
C1109 C1115 1.429 . S
C1110 C1102 1.574 . S
C1110 H1105 0.949 . S
C1110 C1116 1.368 . S
C1111 C1095 1.349 . S
C1111 H1103 0.950 . S
C1111 C1109 1.327 . S
C1112 C1100 1.349 . S
C1112 H1106 0.950 . S
C1112 C1113 1.327 . S
C1113 H1107 0.950 . S
C1113 C1112 1.327 . S
C1113 C1117 1.429 . S
C1114 C1097 1.574 . S
C1114 H1108 0.949 . S
C1114 C1118 1.368 . S
C1115 C1096 1.429 . S
C1115 C1109 1.429 . S
C1115 C1116 1.523 . S
C1116 C1097 1.368 . S
C1116 C1110 1.368 . S
C1116 C1115 1.523 . S
C1117 C1101 1.429 . S
C1117 C1113 1.429 . S
C1117 C1118 1.523 . S
C1118 C1102 1.368 . S
C1118 C1114 1.368 . S
C1118 C1117 1.523 . S
H1119 C1094 0.950 . S
H1120 C1096 0.950 . S
H1121 C1097 0.949 . S
H1122 C1099 0.950 . S
H1123 C1101 0.950 . S
C1124 C1125 1.349 . S
C1124 C1126 1.327 . S
C1124 H1149 0.950 . S
C1125 C1124 1.349 . S
C1125 C1141 1.349 . S
C1126 C1124 1.327 . S
C1126 C1145 1.429 . S
C1126 H1150 0.950 . S
C1127 C1144 1.574 . S
C1127 C1146 1.368 . S
C1127 H1151 0.949 . S
H1128 C1132 0.949 . S
C1129 C1130 1.349 . S
C1129 C1131 1.327 . S
C1129 H1152 0.950 . S
C1130 C1129 1.349 . S
C1130 C1142 1.349 . S
C1131 C1129 1.327 . S
C1131 C1147 1.429 . S
C1131 H1153 0.950 . S
C1132 H1128 0.949 . S
C1132 C1140 1.574 . S
C1132 C1148 1.368 . S
H1133 C1141 0.950 . S
H1134 C1139 0.950 . S
H1135 C1140 0.949 . S
H1136 C1142 0.950 . S
H1137 C1143 0.950 . S
H1138 C1144 0.949 . S
C1139 H1134 0.950 . S
C1139 C1141 1.327 . S
C1139 C1145 1.429 . S
C1140 C1132 1.574 . S
C1140 H1135 0.949 . S
C1140 C1146 1.368 . S
C1141 C1125 1.349 . S
C1141 H1133 0.950 . S
C1141 C1139 1.327 . S
C1142 C1130 1.349 . S
C1142 H1136 0.950 . S
C1142 C1143 1.327 . S
C1143 H1137 0.950 . S
C1143 C1142 1.327 . S
C1143 C1147 1.429 . S
C1144 C1127 1.574 . S
C1144 H1138 0.949 . S
C1144 C1148 1.368 . S
C1145 C1126 1.429 . S
C1145 C1139 1.429 . S
C1145 C1146 1.523 . S
C1146 C1127 1.368 . S
C1146 C1140 1.368 . S
C1146 C1145 1.523 . S
C1147 C1131 1.429 . S
C1147 C1143 1.429 . S
C1147 C1148 1.523 . S
C1148 C1132 1.368 . S
C1148 C1144 1.368 . S
C1148 C1147 1.523 . S
H1149 C1124 0.950 . S
H1150 C1126 0.950 . S
H1151 C1127 0.949 . S
H1152 C1129 0.950 . S
H1153 C1131 0.950 . S
C1154 C1155 1.349 . S
C1154 C1156 1.327 . S
C1154 H1179 0.950 . S
C1155 C1154 1.349 . S
C1155 C1171 1.349 . S
C1156 C1154 1.327 . S
C1156 C1175 1.429 . S
C1156 H1180 0.950 . S
C1157 C1174 1.574 1_455 S
C1157 C1176 1.368 . S
C1157 H1181 0.949 . S
H1158 C1162 0.949 . S
C1159 C1160 1.349 . S
C1159 C1161 1.327 . S
C1159 H1182 0.950 . S
C1160 C1159 1.349 . S
C1160 C1172 1.349 . S
C1161 C1159 1.327 . S
C1161 C1177 1.429 . S
C1161 H1183 0.950 . S
C1162 H1158 0.949 . S
C1162 C1170 1.574 1_655 S
C1162 C1178 1.368 . S
H1163 C1171 0.950 . S
H1164 C1169 0.950 . S
H1165 C1170 0.949 . S
H1166 C1172 0.950 . S
H1167 C1173 0.950 . S
H1168 C1174 0.949 . S
C1169 H1164 0.950 . S
C1169 C1171 1.327 . S
C1169 C1175 1.429 . S
C1170 C1162 1.574 1_455 S
C1170 H1165 0.949 . S
C1170 C1176 1.368 . S
C1171 C1155 1.349 . S
C1171 H1163 0.950 . S
C1171 C1169 1.327 . S
C1172 C1160 1.349 . S
C1172 H1166 0.950 . S
C1172 C1173 1.327 . S
C1173 H1167 0.950 . S
C1173 C1172 1.327 . S
C1173 C1177 1.429 . S
C1174 C1157 1.574 1_655 S
C1174 H1168 0.949 . S
C1174 C1178 1.368 . S
C1175 C1156 1.429 . S
C1175 C1169 1.429 . S
C1175 C1176 1.523 . S
C1176 C1157 1.368 . S
C1176 C1170 1.368 . S
C1176 C1175 1.523 . S
C1177 C1161 1.429 . S
C1177 C1173 1.429 . S
C1177 C1178 1.523 . S
C1178 C1162 1.368 . S
C1178 C1174 1.368 . S
C1178 C1177 1.523 . S
H1179 C1154 0.950 . S
H1180 C1156 0.950 . S
H1181 C1157 0.949 . S
H1182 C1159 0.950 . S
H1183 C1161 0.950 . S
C1184 C1185 1.349 1_545 S
C1184 C1186 1.327 . S
C1184 H1209 0.950 . S
C1185 C1184 1.349 1_565 S
C1185 C1201 1.349 . S
C1186 C1184 1.327 . S
C1186 C1205 1.429 1_545 S
C1186 H1210 0.950 . S
C1187 C1204 1.574 . S
C1187 C1206 1.368 . S
C1187 H1211 0.949 . S
H1188 C1192 0.949 . S
C1189 C1190 1.349 1_565 S
C1189 C1191 1.327 . S
C1189 H1212 0.950 . S
C1190 C1189 1.349 1_545 S
C1190 C1202 1.349 . S
C1191 C1189 1.327 . S
C1191 C1207 1.429 1_565 S
C1191 H1213 0.950 . S
C1192 H1188 0.949 . S
C1192 C1200 1.574 . S
C1192 C1208 1.368 . S
H1193 C1201 0.950 . S
H1194 C1199 0.950 . S
H1195 C1200 0.949 . S
H1196 C1202 0.950 . S
H1197 C1203 0.950 . S
H1198 C1204 0.949 . S
C1199 H1194 0.950 . S
C1199 C1201 1.327 . S
C1199 C1205 1.429 . S
C1200 C1192 1.574 . S
C1200 H1195 0.949 . S
C1200 C1206 1.368 1_545 S
C1201 C1185 1.349 . S
C1201 H1193 0.950 . S
C1201 C1199 1.327 . S
C1202 C1190 1.349 . S
C1202 H1196 0.950 . S
C1202 C1203 1.327 . S
C1203 H1197 0.950 . S
C1203 C1202 1.327 . S
C1203 C1207 1.429 . S
C1204 C1187 1.574 . S
C1204 H1198 0.949 . S
C1204 C1208 1.368 1_565 S
C1205 C1186 1.429 1_565 S
C1205 C1199 1.429 . S
C1205 C1206 1.523 . S
C1206 C1187 1.368 . S
C1206 C1200 1.368 1_565 S
C1206 C1205 1.523 . S
C1207 C1191 1.429 1_545 S
C1207 C1203 1.429 . S
C1207 C1208 1.523 . S
C1208 C1192 1.368 . S
C1208 C1204 1.368 1_545 S
C1208 C1207 1.523 . S
H1209 C1184 0.950 . S
H1210 C1186 0.950 . S
H1211 C1187 0.949 . S
H1212 C1189 0.950 . S
H1213 C1191 0.950 . S
C1214 C1215 1.349 . S
C1214 C1216 1.327 . S
C1214 H1239 0.950 . S
C1215 C1214 1.349 . S
C1215 C1231 1.349 . S
C1216 C1214 1.327 . S
C1216 C1235 1.429 . S
C1216 H1240 0.950 . S
C1217 C1234 1.574 . S
C1217 C1236 1.368 . S
C1217 H1241 0.949 . S
H1218 C1222 0.949 . S
C1219 C1220 1.349 . S
C1219 C1221 1.327 . S
C1219 H1242 0.950 . S
C1220 C1219 1.349 . S
C1220 C1232 1.349 . S
C1221 C1219 1.327 . S
C1221 C1237 1.429 . S
C1221 H1243 0.950 . S
C1222 H1218 0.949 . S
C1222 C1230 1.574 . S
C1222 C1238 1.368 . S
H1223 C1231 0.950 . S
H1224 C1229 0.950 . S
H1225 C1230 0.949 . S
H1226 C1232 0.950 . S
H1227 C1233 0.950 . S
H1228 C1234 0.949 . S
C1229 H1224 0.950 . S
C1229 C1231 1.327 . S
C1229 C1235 1.429 . S
C1230 C1222 1.574 . S
C1230 H1225 0.949 . S
C1230 C1236 1.368 . S
C1231 C1215 1.349 . S
C1231 H1223 0.950 . S
C1231 C1229 1.327 . S
C1232 C1220 1.349 . S
C1232 H1226 0.950 . S
C1232 C1233 1.327 . S
C1233 H1227 0.950 . S
C1233 C1232 1.327 . S
C1233 C1237 1.429 . S
C1234 C1217 1.574 . S
C1234 H1228 0.949 . S
C1234 C1238 1.368 . S
C1235 C1216 1.429 . S
C1235 C1229 1.429 . S
C1235 C1236 1.523 . S
C1236 C1217 1.368 . S
C1236 C1230 1.368 . S
C1236 C1235 1.523 . S
C1237 C1221 1.429 . S
C1237 C1233 1.429 . S
C1237 C1238 1.523 . S
C1238 C1222 1.368 . S
C1238 C1234 1.368 . S
C1238 C1237 1.523 . S
H1239 C1214 0.950 . S
H1240 C1216 0.950 . S
H1241 C1217 0.949 . S
H1242 C1219 0.950 . S
H1243 C1221 0.950 . S
C1244 C1245 1.349 . S
C1244 C1246 1.327 . S
C1244 H1269 0.950 . S
C1245 C1244 1.349 . S
C1245 C1261 1.349 1_565 S
C1246 C1244 1.327 . S
C1246 C1265 1.429 . S
C1246 H1270 0.950 . S
C1247 C1264 1.574 1_554 S
C1247 C1266 1.368 1_545 S
C1247 H1271 0.949 . S
H1248 C1252 0.949 . S
C1249 C1250 1.349 . S
C1249 C1251 1.327 . S
C1249 H1272 0.950 . S
C1250 C1249 1.349 . S
C1250 C1262 1.349 1_545 S
C1251 C1249 1.327 . S
C1251 C1267 1.429 . S
C1251 H1273 0.950 . S
C1252 H1248 0.949 . S
C1252 C1260 1.574 1_556 S
C1252 C1268 1.368 1_565 S
H1253 C1261 0.950 . S
H1254 C1259 0.950 . S
H1255 C1260 0.949 . S
H1256 C1262 0.950 . S
H1257 C1263 0.950 . S
H1258 C1264 0.949 . S
C1259 H1254 0.950 . S
C1259 C1261 1.327 . S
C1259 C1265 1.429 1_545 S
C1260 C1252 1.574 1_554 S
C1260 H1255 0.949 . S
C1260 C1266 1.368 . S
C1261 C1245 1.349 1_545 S
C1261 H1253 0.950 . S
C1261 C1259 1.327 . S
C1262 C1250 1.349 1_565 S
C1262 H1256 0.950 . S
C1262 C1263 1.327 . S
C1263 H1257 0.950 . S
C1263 C1262 1.327 . S
C1263 C1267 1.429 1_565 S
C1264 C1247 1.574 1_556 S
C1264 H1258 0.949 . S
C1264 C1268 1.368 . S
C1265 C1246 1.429 . S
C1265 C1259 1.429 1_565 S
C1265 C1266 1.523 . S
C1266 C1247 1.368 1_565 S
C1266 C1260 1.368 . S
C1266 C1265 1.523 . S
C1267 C1251 1.429 . S
C1267 C1263 1.429 1_545 S
C1267 C1268 1.523 . S
C1268 C1252 1.368 1_545 S
C1268 C1264 1.368 . S
C1268 C1267 1.523 . S
H1269 C1244 0.950 . S
H1270 C1246 0.950 . S
H1271 C1247 0.949 . S
H1272 C1249 0.950 . S
H1273 C1251 0.950 . S
C1274 C1275 1.349 . S
C1274 C1276 1.327 . S
C1274 H1299 0.950 . S
C1275 C1274 1.349 . S
C1275 C1291 1.349 . S
C1276 C1274 1.327 . S
C1276 C1295 1.429 . S
C1276 H1300 0.950 . S
C1277 C1294 1.574 . S
C1277 C1296 1.368 . S
C1277 H1301 0.949 . S
H1278 C1282 0.949 . S
C1279 C1280 1.349 . S
C1279 C1281 1.327 . S
C1279 H1302 0.950 . S
C1280 C1279 1.349 . S
C1280 C1292 1.349 . S
C1281 C1279 1.327 . S
C1281 C1297 1.429 . S
C1281 H1303 0.950 . S
C1282 H1278 0.949 . S
C1282 C1290 1.574 . S
C1282 C1298 1.368 . S
H1283 C1291 0.950 . S
H1284 C1289 0.950 . S
H1285 C1290 0.949 . S
H1286 C1292 0.950 . S
H1287 C1293 0.950 . S
H1288 C1294 0.949 . S
C1289 H1284 0.950 . S
C1289 C1291 1.327 . S
C1289 C1295 1.429 . S
C1290 C1282 1.574 . S
C1290 H1285 0.949 . S
C1290 C1296 1.368 . S
C1291 C1275 1.349 . S
C1291 H1283 0.950 . S
C1291 C1289 1.327 . S
C1292 C1280 1.349 . S
C1292 H1286 0.950 . S
C1292 C1293 1.327 . S
C1293 H1287 0.950 . S
C1293 C1292 1.327 . S
C1293 C1297 1.429 . S
C1294 C1277 1.574 . S
C1294 H1288 0.949 . S
C1294 C1298 1.368 . S
C1295 C1276 1.429 . S
C1295 C1289 1.429 . S
C1295 C1296 1.523 . S
C1296 C1277 1.368 . S
C1296 C1290 1.368 . S
C1296 C1295 1.523 . S
C1297 C1281 1.429 . S
C1297 C1293 1.429 . S
C1297 C1298 1.523 . S
C1298 C1282 1.368 . S
C1298 C1294 1.368 . S
C1298 C1297 1.523 . S
H1299 C1274 0.950 . S
H1300 C1276 0.950 . S
H1301 C1277 0.949 . S
H1302 C1279 0.950 . S
H1303 C1281 0.950 . S
C1304 C1305 1.349 . S
C1304 C1306 1.327 . S
C1304 H1329 0.950 . S
C1305 C1304 1.349 . S
C1305 C1321 1.349 . S
C1306 C1304 1.327 . S
C1306 C1325 1.429 . S
C1306 H1330 0.950 . S
C1307 C1324 1.574 . S
C1307 C1326 1.368 . S
C1307 H1331 0.949 . S
H1308 C1312 0.949 . S
C1309 C1310 1.349 . S
C1309 C1311 1.327 . S
C1309 H1332 0.950 . S
C1310 C1309 1.349 . S
C1310 C1322 1.349 . S
C1311 C1309 1.327 . S
C1311 C1327 1.429 . S
C1311 H1333 0.950 . S
C1312 H1308 0.949 . S
C1312 C1320 1.574 . S
C1312 C1328 1.368 . S
H1313 C1321 0.950 . S
H1314 C1319 0.950 . S
H1315 C1320 0.949 . S
H1316 C1322 0.950 . S
H1317 C1323 0.950 . S
H1318 C1324 0.949 . S
C1319 H1314 0.950 . S
C1319 C1321 1.327 . S
C1319 C1325 1.429 . S
C1320 C1312 1.574 . S
C1320 H1315 0.949 . S
C1320 C1326 1.368 . S
C1321 C1305 1.349 . S
C1321 H1313 0.950 . S
C1321 C1319 1.327 . S
C1322 C1310 1.349 . S
C1322 H1316 0.950 . S
C1322 C1323 1.327 . S
C1323 H1317 0.950 . S
C1323 C1322 1.327 . S
C1323 C1327 1.429 . S
C1324 C1307 1.574 . S
C1324 H1318 0.949 . S
C1324 C1328 1.368 . S
C1325 C1306 1.429 . S
C1325 C1319 1.429 . S
C1325 C1326 1.523 . S
C1326 C1307 1.368 . S
C1326 C1320 1.368 . S
C1326 C1325 1.523 . S
C1327 C1311 1.429 . S
C1327 C1323 1.429 . S
C1327 C1328 1.523 . S
C1328 C1312 1.368 . S
C1328 C1324 1.368 . S
C1328 C1327 1.523 . S
H1329 C1304 0.950 . S
H1330 C1306 0.950 . S
H1331 C1307 0.949 . S
H1332 C1309 0.950 . S
H1333 C1311 0.950 . S
C1334 C1335 1.349 . S
C1334 C1336 1.327 . S
C1334 H1359 0.950 . S
C1335 C1334 1.349 . S
C1335 C1351 1.349 . S
C1336 C1334 1.327 . S
C1336 C1355 1.429 . S
C1336 H1360 0.950 . S
C1337 C1354 1.574 . S
C1337 C1356 1.368 . S
C1337 H1361 0.949 . S
H1338 C1342 0.949 . S
C1339 C1340 1.349 . S
C1339 C1341 1.327 . S
C1339 H1362 0.950 . S
C1340 C1339 1.349 . S
C1340 C1352 1.349 . S
C1341 C1339 1.327 . S
C1341 C1357 1.429 . S
C1341 H1363 0.950 . S
C1342 H1338 0.949 . S
C1342 C1350 1.574 . S
C1342 C1358 1.368 . S
H1343 C1351 0.950 . S
H1344 C1349 0.950 . S
H1345 C1350 0.949 . S
H1346 C1352 0.950 . S
H1347 C1353 0.950 . S
H1348 C1354 0.949 . S
C1349 H1344 0.950 . S
C1349 C1351 1.327 . S
C1349 C1355 1.429 . S
C1350 C1342 1.574 . S
C1350 H1345 0.949 . S
C1350 C1356 1.368 . S
C1351 C1335 1.349 . S
C1351 H1343 0.950 . S
C1351 C1349 1.327 . S
C1352 C1340 1.349 . S
C1352 H1346 0.950 . S
C1352 C1353 1.327 . S
C1353 H1347 0.950 . S
C1353 C1352 1.327 . S
C1353 C1357 1.429 . S
C1354 C1337 1.574 . S
C1354 H1348 0.949 . S
C1354 C1358 1.368 . S
C1355 C1336 1.429 . S
C1355 C1349 1.429 . S
C1355 C1356 1.523 . S
C1356 C1337 1.368 . S
C1356 C1350 1.368 . S
C1356 C1355 1.523 . S
C1357 C1341 1.429 . S
C1357 C1353 1.429 . S
C1357 C1358 1.523 . S
C1358 C1342 1.368 . S
C1358 C1354 1.368 . S
C1358 C1357 1.523 . S
H1359 C1334 0.950 . S
H1360 C1336 0.950 . S
H1361 C1337 0.949 . S
H1362 C1339 0.950 . S
H1363 C1341 0.950 . S
C1364 C1365 1.349 . S
C1364 C1366 1.327 . S
C1364 H1389 0.950 . S
C1365 C1364 1.349 . S
C1365 C1381 1.349 . S
C1366 C1364 1.327 . S
C1366 C1385 1.429 . S
C1366 H1390 0.950 . S
C1367 C1384 1.574 1_556 S
C1367 C1386 1.368 . S
C1367 H1391 0.949 . S
H1368 C1372 0.949 . S
C1369 C1370 1.349 . S
C1369 C1371 1.327 . S
C1369 H1392 0.950 . S
C1370 C1369 1.349 . S
C1370 C1382 1.349 . S
C1371 C1369 1.327 . S
C1371 C1387 1.429 . S
C1371 H1393 0.950 . S
C1372 H1368 0.949 . S
C1372 C1380 1.574 1_554 S
C1372 C1388 1.368 . S
H1373 C1381 0.950 . S
H1374 C1379 0.950 . S
H1375 C1380 0.949 . S
H1376 C1382 0.950 . S
H1377 C1383 0.950 . S
H1378 C1384 0.949 . S
C1379 H1374 0.950 . S
C1379 C1381 1.327 . S
C1379 C1385 1.429 . S
C1380 C1372 1.574 1_556 S
C1380 H1375 0.949 . S
C1380 C1386 1.368 . S
C1381 C1365 1.349 . S
C1381 H1373 0.950 . S
C1381 C1379 1.327 . S
C1382 C1370 1.349 . S
C1382 H1376 0.950 . S
C1382 C1383 1.327 . S
C1383 H1377 0.950 . S
C1383 C1382 1.327 . S
C1383 C1387 1.429 . S
C1384 C1367 1.574 1_554 S
C1384 H1378 0.949 . S
C1384 C1388 1.368 . S
C1385 C1366 1.429 . S
C1385 C1379 1.429 . S
C1385 C1386 1.523 . S
C1386 C1367 1.368 . S
C1386 C1380 1.368 . S
C1386 C1385 1.523 . S
C1387 C1371 1.429 . S
C1387 C1383 1.429 . S
C1387 C1388 1.523 . S
C1388 C1372 1.368 . S
C1388 C1384 1.368 . S
C1388 C1387 1.523 . S
H1389 C1364 0.950 . S
H1390 C1366 0.950 . S
H1391 C1367 0.949 . S
H1392 C1369 0.950 . S
H1393 C1371 0.950 . S
C1394 C1395 1.349 . S
C1394 C1396 1.327 . S
C1394 H1419 0.950 . S
C1395 C1394 1.349 . S
C1395 C1411 1.349 1_655 S
C1396 C1394 1.327 . S
C1396 C1415 1.429 . S
C1396 H1420 0.950 . S
C1397 C1414 1.574 . S
C1397 C1416 1.368 1_455 S
C1397 H1421 0.949 . S
H1398 C1402 0.949 . S
C1399 C1400 1.349 1_455 S
C1399 C1401 1.327 . S
C1399 H1422 0.950 . S
C1400 C1399 1.349 1_655 S
C1400 C1412 1.349 . S
C1401 C1399 1.327 . S
C1401 C1417 1.429 1_455 S
C1401 H1423 0.950 . S
C1402 H1398 0.949 . S
C1402 C1410 1.574 . S
C1402 C1418 1.368 . S
H1403 C1411 0.950 . S
H1404 C1409 0.950 . S
H1405 C1410 0.949 . S
H1406 C1412 0.950 . S
H1407 C1413 0.950 . S
H1408 C1414 0.949 . S
C1409 H1404 0.950 . S
C1409 C1411 1.327 . S
C1409 C1415 1.429 1_455 S
C1410 C1402 1.574 . S
C1410 H1405 0.949 . S
C1410 C1416 1.368 . S
C1411 C1395 1.349 1_455 S
C1411 H1403 0.950 . S
C1411 C1409 1.327 . S
C1412 C1400 1.349 . S
C1412 H1406 0.950 . S
C1412 C1413 1.327 . S
C1413 H1407 0.950 . S
C1413 C1412 1.327 . S
C1413 C1417 1.429 . S
C1414 C1397 1.574 . S
C1414 H1408 0.949 . S
C1414 C1418 1.368 1_455 S
C1415 C1396 1.429 . S
C1415 C1409 1.429 1_655 S
C1415 C1416 1.523 . S
C1416 C1397 1.368 1_655 S
C1416 C1410 1.368 . S
C1416 C1415 1.523 . S
C1417 C1401 1.429 1_655 S
C1417 C1413 1.429 . S
C1417 C1418 1.523 . S
C1418 C1402 1.368 . S
C1418 C1414 1.368 1_655 S
C1418 C1417 1.523 . S
H1419 C1394 0.950 . S
H1420 C1396 0.950 . S
H1421 C1397 0.949 . S
H1422 C1399 0.950 . S
H1423 C1401 0.950 . S
C1424 C1425 1.349 . S
C1424 C1426 1.327 . S
C1424 H1449 0.950 . S
C1425 C1424 1.349 . S
C1425 C1441 1.349 . S
C1426 C1424 1.327 . S
C1426 C1445 1.429 . S
C1426 H1450 0.950 . S
C1427 C1444 1.574 . S
C1427 C1446 1.368 . S
C1427 H1451 0.949 . S
H1428 C1432 0.949 . S
C1429 C1430 1.349 . S
C1429 C1431 1.327 . S
C1429 H1452 0.950 . S
C1430 C1429 1.349 . S
C1430 C1442 1.349 . S
C1431 C1429 1.327 . S
C1431 C1447 1.429 . S
C1431 H1453 0.950 . S
C1432 H1428 0.949 . S
C1432 C1440 1.574 . S
C1432 C1448 1.368 . S
H1433 C1441 0.950 . S
H1434 C1439 0.950 . S
H1435 C1440 0.949 . S
H1436 C1442 0.950 . S
H1437 C1443 0.950 . S
H1438 C1444 0.949 . S
C1439 H1434 0.950 . S
C1439 C1441 1.327 . S
C1439 C1445 1.429 . S
C1440 C1432 1.574 . S
C1440 H1435 0.949 . S
C1440 C1446 1.368 . S
C1441 C1425 1.349 . S
C1441 H1433 0.950 . S
C1441 C1439 1.327 . S
C1442 C1430 1.349 . S
C1442 H1436 0.950 . S
C1442 C1443 1.327 . S
C1443 H1437 0.950 . S
C1443 C1442 1.327 . S
C1443 C1447 1.429 . S
C1444 C1427 1.574 . S
C1444 H1438 0.949 . S
C1444 C1448 1.368 . S
C1445 C1426 1.429 . S
C1445 C1439 1.429 . S
C1445 C1446 1.523 . S
C1446 C1427 1.368 . S
C1446 C1440 1.368 . S
C1446 C1445 1.523 . S
C1447 C1431 1.429 . S
C1447 C1443 1.429 . S
C1447 C1448 1.523 . S
C1448 C1432 1.368 . S
C1448 C1444 1.368 . S
C1448 C1447 1.523 . S
H1449 C1424 0.950 . S
H1450 C1426 0.950 . S
H1451 C1427 0.949 . S
H1452 C1429 0.950 . S
H1453 C1431 0.950 . S
C1454 C1455 1.349 . S
C1454 C1456 1.327 . S
C1454 H1479 0.950 . S
C1455 C1454 1.349 . S
C1455 C1471 1.349 . S
C1456 C1454 1.327 . S
C1456 C1475 1.429 . S
C1456 H1480 0.950 . S
C1457 C1474 1.574 . S
C1457 C1476 1.368 . S
C1457 H1481 0.949 . S
H1458 C1462 0.949 . S
C1459 C1460 1.349 . S
C1459 C1461 1.327 . S
C1459 H1482 0.950 . S
C1460 C1459 1.349 . S
C1460 C1472 1.349 . S
C1461 C1459 1.327 . S
C1461 C1477 1.429 . S
C1461 H1483 0.950 . S
C1462 H1458 0.949 . S
C1462 C1470 1.574 . S
C1462 C1478 1.368 . S
H1463 C1471 0.950 . S
H1464 C1469 0.950 . S
H1465 C1470 0.949 . S
H1466 C1472 0.950 . S
H1467 C1473 0.950 . S
H1468 C1474 0.949 . S
C1469 H1464 0.950 . S
C1469 C1471 1.327 . S
C1469 C1475 1.429 . S
C1470 C1462 1.574 . S
C1470 H1465 0.949 . S
C1470 C1476 1.368 . S
C1471 C1455 1.349 . S
C1471 H1463 0.950 . S
C1471 C1469 1.327 . S
C1472 C1460 1.349 . S
C1472 H1466 0.950 . S
C1472 C1473 1.327 . S
C1473 H1467 0.950 . S
C1473 C1472 1.327 . S
C1473 C1477 1.429 . S
C1474 C1457 1.574 . S
C1474 H1468 0.949 . S
C1474 C1478 1.368 . S
C1475 C1456 1.429 . S
C1475 C1469 1.429 . S
C1475 C1476 1.523 . S
C1476 C1457 1.368 . S
C1476 C1470 1.368 . S
C1476 C1475 1.523 . S
C1477 C1461 1.429 . S
C1477 C1473 1.429 . S
C1477 C1478 1.523 . S
C1478 C1462 1.368 . S
C1478 C1474 1.368 . S
C1478 C1477 1.523 . S
H1479 C1454 0.950 . S
H1480 C1456 0.950 . S
H1481 C1457 0.949 . S
H1482 C1459 0.950 . S
H1483 C1461 0.950 . S
C1484 C1485 1.349 . S
C1484 C1486 1.327 . S
C1484 H1509 0.950 . S
C1485 C1484 1.349 . S
C1485 C1501 1.349 . S
C1486 C1484 1.327 . S
C1486 C1505 1.429 . S
C1486 H1510 0.950 . S
C1487 C1504 1.574 . S
C1487 C1506 1.368 . S
C1487 H1511 0.949 . S
H1488 C1492 0.949 . S
C1489 C1490 1.349 . S
C1489 C1491 1.327 . S
C1489 H1512 0.950 . S
C1490 C1489 1.349 . S
C1490 C1502 1.349 . S
C1491 C1489 1.327 . S
C1491 C1507 1.429 . S
C1491 H1513 0.950 . S
C1492 H1488 0.949 . S
C1492 C1500 1.574 . S
C1492 C1508 1.368 . S
H1493 C1501 0.950 . S
H1494 C1499 0.950 . S
H1495 C1500 0.949 . S
H1496 C1502 0.950 . S
H1497 C1503 0.950 . S
H1498 C1504 0.949 . S
C1499 H1494 0.950 . S
C1499 C1501 1.327 . S
C1499 C1505 1.429 . S
C1500 C1492 1.574 . S
C1500 H1495 0.949 . S
C1500 C1506 1.368 . S
C1501 C1485 1.349 . S
C1501 H1493 0.950 . S
C1501 C1499 1.327 . S
C1502 C1490 1.349 . S
C1502 H1496 0.950 . S
C1502 C1503 1.327 . S
C1503 H1497 0.950 . S
C1503 C1502 1.327 . S
C1503 C1507 1.429 . S
C1504 C1487 1.574 . S
C1504 H1498 0.949 . S
C1504 C1508 1.368 . S
C1505 C1486 1.429 . S
C1505 C1499 1.429 . S
C1505 C1506 1.523 . S
C1506 C1487 1.368 . S
C1506 C1500 1.368 . S
C1506 C1505 1.523 . S
C1507 C1491 1.429 . S
C1507 C1503 1.429 . S
C1507 C1508 1.523 . S
C1508 C1492 1.368 . S
C1508 C1504 1.368 . S
C1508 C1507 1.523 . S
H1509 C1484 0.950 . S
H1510 C1486 0.950 . S
H1511 C1487 0.949 . S
H1512 C1489 0.950 . S
H1513 C1491 0.950 . S
C1514 C1515 1.349 . S
C1514 C1516 1.327 . S
C1514 H1539 0.950 . S
C1515 C1514 1.349 . S
C1515 C1531 1.349 . S
C1516 C1514 1.327 . S
C1516 C1535 1.429 . S
C1516 H1540 0.950 . S
C1517 C1534 1.574 . S
C1517 C1536 1.368 . S
C1517 H1541 0.949 . S
H1518 C1522 0.949 . S
C1519 C1520 1.349 . S
C1519 C1521 1.327 . S
C1519 H1542 0.950 . S
C1520 C1519 1.349 . S
C1520 C1532 1.349 . S
C1521 C1519 1.327 . S
C1521 C1537 1.429 . S
C1521 H1543 0.950 . S
C1522 H1518 0.949 . S
C1522 C1530 1.574 . S
C1522 C1538 1.368 . S
H1523 C1531 0.950 . S
H1524 C1529 0.950 . S
H1525 C1530 0.949 . S
H1526 C1532 0.950 . S
H1527 C1533 0.950 . S
H1528 C1534 0.949 . S
C1529 H1524 0.950 . S
C1529 C1531 1.327 . S
C1529 C1535 1.429 . S
C1530 C1522 1.574 . S
C1530 H1525 0.949 . S
C1530 C1536 1.368 . S
C1531 C1515 1.349 . S
C1531 H1523 0.950 . S
C1531 C1529 1.327 . S
C1532 C1520 1.349 . S
C1532 H1526 0.950 . S
C1532 C1533 1.327 . S
C1533 H1527 0.950 . S
C1533 C1532 1.327 . S
C1533 C1537 1.429 . S
C1534 C1517 1.574 . S
C1534 H1528 0.949 . S
C1534 C1538 1.368 . S
C1535 C1516 1.429 . S
C1535 C1529 1.429 . S
C1535 C1536 1.523 . S
C1536 C1517 1.368 . S
C1536 C1530 1.368 . S
C1536 C1535 1.523 . S
C1537 C1521 1.429 . S
C1537 C1533 1.429 . S
C1537 C1538 1.523 . S
C1538 C1522 1.368 . S
C1538 C1534 1.368 . S
C1538 C1537 1.523 . S
H1539 C1514 0.950 . S
H1540 C1516 0.950 . S
H1541 C1517 0.949 . S
H1542 C1519 0.950 . S
H1543 C1521 0.950 . S
C1544 C1545 1.349 . S
C1544 C1546 1.327 . S
C1544 H1569 0.950 1_545 S
C1545 C1544 1.349 . S
C1545 C1561 1.349 . S
C1546 C1544 1.327 . S
C1546 C1565 1.429 . S
C1546 H1570 0.950 . S
C1547 C1564 1.574 . S
C1547 C1566 1.368 . S
C1547 H1571 0.949 . S
H1548 C1552 0.949 . S
C1549 C1550 1.349 . S
C1549 C1551 1.327 . S
C1549 H1572 0.950 . S
C1550 C1549 1.349 . S
C1550 C1562 1.349 . S
C1551 C1549 1.327 . S
C1551 C1567 1.429 . S
C1551 H1573 0.950 . S
C1552 H1548 0.949 . S
C1552 C1560 1.574 . S
C1552 C1568 1.368 . S
H1553 C1561 0.950 . S
H1554 C1559 0.950 . S
H1555 C1560 0.949 . S
H1556 C1562 0.950 . S
H1557 C1563 0.950 . S
H1558 C1564 0.949 . S
C1559 H1554 0.950 . S
C1559 C1561 1.327 . S
C1559 C1565 1.429 . S
C1560 C1552 1.574 . S
C1560 H1555 0.949 . S
C1560 C1566 1.368 . S
C1561 C1545 1.349 . S
C1561 H1553 0.950 . S
C1561 C1559 1.327 . S
C1562 C1550 1.349 . S
C1562 H1556 0.950 . S
C1562 C1563 1.327 . S
C1563 H1557 0.950 . S
C1563 C1562 1.327 . S
C1563 C1567 1.429 . S
C1564 C1547 1.574 . S
C1564 H1558 0.949 . S
C1564 C1568 1.368 . S
C1565 C1546 1.429 . S
C1565 C1559 1.429 . S
C1565 C1566 1.523 . S
C1566 C1547 1.368 . S
C1566 C1560 1.368 . S
C1566 C1565 1.523 . S
C1567 C1551 1.429 . S
C1567 C1563 1.429 . S
C1567 C1568 1.523 . S
C1568 C1552 1.368 . S
C1568 C1564 1.368 . S
C1568 C1567 1.523 . S
H1569 C1544 0.950 1_565 S
H1570 C1546 0.950 . S
H1571 C1547 0.949 . S
H1572 C1549 0.950 . S
H1573 C1551 0.950 . S
C1574 C1575 1.349 . S
C1574 C1576 1.327 . S
C1574 H1599 0.950 1_545 S
C1575 C1574 1.349 . S
C1575 C1591 1.349 . S
C1576 C1574 1.327 . S
C1576 C1595 1.429 . S
C1576 H1600 0.950 . S
C1577 C1594 1.574 . S
C1577 C1596 1.368 . S
C1577 H1601 0.949 . S
H1578 C1582 0.949 . S
C1579 C1580 1.349 . S
C1579 C1581 1.327 . S
C1579 H1602 0.950 . S
C1580 C1579 1.349 . S
C1580 C1592 1.349 . S
C1581 C1579 1.327 . S
C1581 C1597 1.429 . S
C1581 H1603 0.950 . S
C1582 H1578 0.949 . S
C1582 C1590 1.574 . S
C1582 C1598 1.368 . S
H1583 C1591 0.950 . S
H1584 C1589 0.950 . S
H1585 C1590 0.949 . S
H1586 C1592 0.950 . S
H1587 C1593 0.950 . S
H1588 C1594 0.949 . S
C1589 H1584 0.950 . S
C1589 C1591 1.327 . S
C1589 C1595 1.429 . S
C1590 C1582 1.574 . S
C1590 H1585 0.949 . S
C1590 C1596 1.368 . S
C1591 C1575 1.349 . S
C1591 H1583 0.950 . S
C1591 C1589 1.327 . S
C1592 C1580 1.349 . S
C1592 H1586 0.950 . S
C1592 C1593 1.327 . S
C1593 H1587 0.950 . S
C1593 C1592 1.327 . S
C1593 C1597 1.429 . S
C1594 C1577 1.574 . S
C1594 H1588 0.949 . S
C1594 C1598 1.368 . S
C1595 C1576 1.429 . S
C1595 C1589 1.429 . S
C1595 C1596 1.523 . S
C1596 C1577 1.368 . S
C1596 C1590 1.368 . S
C1596 C1595 1.523 . S
C1597 C1581 1.429 . S
C1597 C1593 1.429 . S
C1597 C1598 1.523 . S
C1598 C1582 1.368 . S
C1598 C1594 1.368 . S
C1598 C1597 1.523 . S
H1599 C1574 0.950 1_565 S
H1600 C1576 0.950 . S
H1601 C1577 0.949 . S
H1602 C1579 0.950 . S
H1603 C1581 0.950 . S
C1604 C1605 1.349 . S
C1604 C1606 1.327 . S
C1604 H1629 0.950 . S
C1605 C1604 1.349 . S
C1605 C1621 1.349 . S
C1606 C1604 1.327 . S
C1606 C1625 1.429 . S
C1606 H1630 0.950 . S
C1607 C1624 1.574 . S
C1607 C1626 1.368 . S
C1607 H1631 0.949 . S
H1608 C1612 0.949 . S
C1609 C1610 1.349 . S
C1609 C1611 1.327 . S
C1609 H1632 0.950 1_565 S
C1610 C1609 1.349 . S
C1610 C1622 1.349 . S
C1611 C1609 1.327 . S
C1611 C1627 1.429 . S
C1611 H1633 0.950 . S
C1612 H1608 0.949 . S
C1612 C1620 1.574 . S
C1612 C1628 1.368 . S
H1613 C1621 0.950 . S
H1614 C1619 0.950 . S
H1615 C1620 0.949 . S
H1616 C1622 0.950 . S
H1617 C1623 0.950 . S
H1618 C1624 0.949 . S
C1619 H1614 0.950 . S
C1619 C1621 1.327 . S
C1619 C1625 1.429 . S
C1620 C1612 1.574 . S
C1620 H1615 0.949 . S
C1620 C1626 1.368 . S
C1621 C1605 1.349 . S
C1621 H1613 0.950 . S
C1621 C1619 1.327 . S
C1622 C1610 1.349 . S
C1622 H1616 0.950 . S
C1622 C1623 1.327 . S
C1623 H1617 0.950 . S
C1623 C1622 1.327 . S
C1623 C1627 1.429 . S
C1624 C1607 1.574 . S
C1624 H1618 0.949 . S
C1624 C1628 1.368 . S
C1625 C1606 1.429 . S
C1625 C1619 1.429 . S
C1625 C1626 1.523 . S
C1626 C1607 1.368 . S
C1626 C1620 1.368 . S
C1626 C1625 1.523 . S
C1627 C1611 1.429 . S
C1627 C1623 1.429 . S
C1627 C1628 1.523 . S
C1628 C1612 1.368 . S
C1628 C1624 1.368 . S
C1628 C1627 1.523 . S
H1629 C1604 0.950 . S
H1630 C1606 0.950 . S
H1631 C1607 0.949 . S
H1632 C1609 0.950 1_545 S
H1633 C1611 0.950 . S
C1634 C1635 1.349 . S
C1634 C1636 1.327 . S
C1634 H1659 0.950 . S
C1635 C1634 1.349 . S
C1635 C1651 1.349 . S
C1636 C1634 1.327 . S
C1636 C1655 1.429 . S
C1636 H1660 0.950 . S
C1637 C1654 1.574 . S
C1637 C1656 1.368 . S
C1637 H1661 0.949 . S
H1638 C1642 0.949 . S
C1639 C1640 1.349 . S
C1639 C1641 1.327 . S
C1639 H1662 0.950 . S
C1640 C1639 1.349 . S
C1640 C1652 1.349 . S
C1641 C1639 1.327 . S
C1641 C1657 1.429 . S
C1641 H1663 0.950 . S
C1642 H1638 0.949 . S
C1642 C1650 1.574 . S
C1642 C1658 1.368 . S
H1643 C1651 0.950 . S
H1644 C1649 0.950 . S
H1645 C1650 0.949 . S
H1646 C1652 0.950 . S
H1647 C1653 0.950 . S
H1648 C1654 0.949 . S
C1649 H1644 0.950 . S
C1649 C1651 1.327 . S
C1649 C1655 1.429 . S
C1650 C1642 1.574 . S
C1650 H1645 0.949 . S
C1650 C1656 1.368 . S
C1651 C1635 1.349 . S
C1651 H1643 0.950 . S
C1651 C1649 1.327 . S
C1652 C1640 1.349 . S
C1652 H1646 0.950 . S
C1652 C1653 1.327 . S
C1653 H1647 0.950 . S
C1653 C1652 1.327 . S
C1653 C1657 1.429 . S
C1654 C1637 1.574 . S
C1654 H1648 0.949 . S
C1654 C1658 1.368 . S
C1655 C1636 1.429 . S
C1655 C1649 1.429 . S
C1655 C1656 1.523 . S
C1656 C1637 1.368 . S
C1656 C1650 1.368 . S
C1656 C1655 1.523 . S
C1657 C1641 1.429 . S
C1657 C1653 1.429 . S
C1657 C1658 1.523 . S
C1658 C1642 1.368 . S
C1658 C1654 1.368 . S
C1658 C1657 1.523 . S
H1659 C1634 0.950 . S
H1660 C1636 0.950 . S
H1661 C1637 0.949 . S
H1662 C1639 0.950 . S
H1663 C1641 0.950 . S
C1664 C1665 1.349 . S
C1664 C1666 1.327 . S
C1664 H1689 0.950 . S
C1665 C1664 1.349 . S
C1665 C1681 1.349 . S
C1666 C1664 1.327 . S
C1666 C1685 1.429 . S
C1666 H1690 0.950 . S
C1667 C1684 1.574 . S
C1667 C1686 1.368 . S
C1667 H1691 0.949 . S
H1668 C1672 0.949 . S
C1669 C1670 1.349 . S
C1669 C1671 1.327 . S
C1669 H1692 0.950 . S
C1670 C1669 1.349 . S
C1670 C1682 1.349 . S
C1671 C1669 1.327 . S
C1671 C1687 1.429 . S
C1671 H1693 0.950 . S
C1672 H1668 0.949 . S
C1672 C1680 1.574 . S
C1672 C1688 1.368 . S
H1673 C1681 0.950 . S
H1674 C1679 0.950 . S
H1675 C1680 0.949 . S
H1676 C1682 0.950 . S
H1677 C1683 0.950 . S
H1678 C1684 0.949 . S
C1679 H1674 0.950 . S
C1679 C1681 1.327 . S
C1679 C1685 1.429 . S
C1680 C1672 1.574 . S
C1680 H1675 0.949 . S
C1680 C1686 1.368 . S
C1681 C1665 1.349 . S
C1681 H1673 0.950 . S
C1681 C1679 1.327 . S
C1682 C1670 1.349 . S
C1682 H1676 0.950 . S
C1682 C1683 1.327 . S
C1683 H1677 0.950 . S
C1683 C1682 1.327 . S
C1683 C1687 1.429 . S
C1684 C1667 1.574 . S
C1684 H1678 0.949 . S
C1684 C1688 1.368 . S
C1685 C1666 1.429 . S
C1685 C1679 1.429 . S
C1685 C1686 1.523 . S
C1686 C1667 1.368 . S
C1686 C1680 1.368 . S
C1686 C1685 1.523 . S
C1687 C1671 1.429 . S
C1687 C1683 1.429 . S
C1687 C1688 1.523 . S
C1688 C1672 1.368 . S
C1688 C1684 1.368 . S
C1688 C1687 1.523 . S
H1689 C1664 0.950 . S
H1690 C1666 0.950 . S
H1691 C1667 0.949 . S
H1692 C1669 0.950 . S
H1693 C1671 0.950 . S
C1694 C1695 1.349 . S
C1694 C1696 1.327 . S
C1694 H1719 0.950 . S
C1695 C1694 1.349 . S
C1695 C1711 1.349 . S
C1696 C1694 1.327 . S
C1696 C1715 1.429 . S
C1696 H1720 0.950 . S
C1697 C1714 1.574 . S
C1697 C1716 1.368 . S
C1697 H1721 0.949 . S
H1698 C1702 0.949 . S
C1699 C1700 1.349 . S
C1699 C1701 1.327 . S
C1699 H1722 0.950 . S
C1700 C1699 1.349 . S
C1700 C1712 1.349 . S
C1701 C1699 1.327 . S
C1701 C1717 1.429 . S
C1701 H1723 0.950 . S
C1702 H1698 0.949 . S
C1702 C1710 1.574 . S
C1702 C1718 1.368 . S
H1703 C1711 0.950 . S
H1704 C1709 0.950 . S
H1705 C1710 0.949 . S
H1706 C1712 0.950 . S
H1707 C1713 0.950 . S
H1708 C1714 0.949 . S
C1709 H1704 0.950 . S
C1709 C1711 1.327 . S
C1709 C1715 1.429 . S
C1710 C1702 1.574 . S
C1710 H1705 0.949 . S
C1710 C1716 1.368 . S
C1711 C1695 1.349 . S
C1711 H1703 0.950 . S
C1711 C1709 1.327 . S
C1712 C1700 1.349 . S
C1712 H1706 0.950 . S
C1712 C1713 1.327 . S
C1713 H1707 0.950 . S
C1713 C1712 1.327 . S
C1713 C1717 1.429 . S
C1714 C1697 1.574 . S
C1714 H1708 0.949 . S
C1714 C1718 1.368 . S
C1715 C1696 1.429 . S
C1715 C1709 1.429 . S
C1715 C1716 1.523 . S
C1716 C1697 1.368 . S
C1716 C1710 1.368 . S
C1716 C1715 1.523 . S
C1717 C1701 1.429 . S
C1717 C1713 1.429 . S
C1717 C1718 1.523 . S
C1718 C1702 1.368 . S
C1718 C1714 1.368 . S
C1718 C1717 1.523 . S
H1719 C1694 0.950 . S
H1720 C1696 0.950 . S
H1721 C1697 0.949 . S
H1722 C1699 0.950 . S
H1723 C1701 0.950 . S
C1724 C1725 1.349 . S
C1724 C1726 1.327 . S
C1724 H1749 0.950 . S
C1725 C1724 1.349 . S
C1725 C1741 1.349 . S
C1726 C1724 1.327 . S
C1726 C1745 1.429 . S
C1726 H1750 0.950 . S
C1727 C1744 1.574 . S
C1727 C1746 1.368 . S
C1727 H1751 0.949 . S
H1728 C1732 0.949 . S
C1729 C1730 1.349 . S
C1729 C1731 1.327 . S
C1729 H1752 0.950 . S
C1730 C1729 1.349 . S
C1730 C1742 1.349 . S
C1731 C1729 1.327 . S
C1731 C1747 1.429 . S
C1731 H1753 0.950 . S
C1732 H1728 0.949 . S
C1732 C1740 1.574 . S
C1732 C1748 1.368 . S
H1733 C1741 0.950 . S
H1734 C1739 0.950 . S
H1735 C1740 0.949 . S
H1736 C1742 0.950 . S
H1737 C1743 0.950 . S
H1738 C1744 0.949 . S
C1739 H1734 0.950 . S
C1739 C1741 1.327 . S
C1739 C1745 1.429 . S
C1740 C1732 1.574 . S
C1740 H1735 0.949 . S
C1740 C1746 1.368 . S
C1741 C1725 1.349 . S
C1741 H1733 0.950 . S
C1741 C1739 1.327 . S
C1742 C1730 1.349 . S
C1742 H1736 0.950 . S
C1742 C1743 1.327 . S
C1743 H1737 0.950 . S
C1743 C1742 1.327 . S
C1743 C1747 1.429 . S
C1744 C1727 1.574 . S
C1744 H1738 0.949 . S
C1744 C1748 1.368 . S
C1745 C1726 1.429 . S
C1745 C1739 1.429 . S
C1745 C1746 1.523 . S
C1746 C1727 1.368 . S
C1746 C1740 1.368 . S
C1746 C1745 1.523 . S
C1747 C1731 1.429 . S
C1747 C1743 1.429 . S
C1747 C1748 1.523 . S
C1748 C1732 1.368 . S
C1748 C1744 1.368 . S
C1748 C1747 1.523 . S
H1749 C1724 0.950 . S
H1750 C1726 0.950 . S
H1751 C1727 0.949 . S
H1752 C1729 0.950 . S
H1753 C1731 0.950 . S
C1754 C1755 1.349 . S
C1754 C1756 1.327 . S
C1754 H1779 0.950 . S
C1755 C1754 1.349 . S
C1755 C1771 1.349 . S
C1756 C1754 1.327 . S
C1756 C1775 1.429 . S
C1756 H1780 0.950 . S
C1757 C1774 1.574 . S
C1757 C1776 1.368 . S
C1757 H1781 0.949 . S
H1758 C1762 0.949 . S
C1759 C1760 1.349 . S
C1759 C1761 1.327 . S
C1759 H1782 0.950 . S
C1760 C1759 1.349 . S
C1760 C1772 1.349 . S
C1761 C1759 1.327 . S
C1761 C1777 1.429 . S
C1761 H1783 0.950 . S
C1762 H1758 0.949 . S
C1762 C1770 1.574 . S
C1762 C1778 1.368 . S
H1763 C1771 0.950 . S
H1764 C1769 0.950 . S
H1765 C1770 0.949 . S
H1766 C1772 0.950 . S
H1767 C1773 0.950 . S
H1768 C1774 0.949 . S
C1769 H1764 0.950 . S
C1769 C1771 1.327 . S
C1769 C1775 1.429 . S
C1770 C1762 1.574 . S
C1770 H1765 0.949 . S
C1770 C1776 1.368 . S
C1771 C1755 1.349 . S
C1771 H1763 0.950 . S
C1771 C1769 1.327 . S
C1772 C1760 1.349 . S
C1772 H1766 0.950 . S
C1772 C1773 1.327 . S
C1773 H1767 0.950 . S
C1773 C1772 1.327 . S
C1773 C1777 1.429 . S
C1774 C1757 1.574 . S
C1774 H1768 0.949 . S
C1774 C1778 1.368 . S
C1775 C1756 1.429 . S
C1775 C1769 1.429 . S
C1775 C1776 1.523 . S
C1776 C1757 1.368 . S
C1776 C1770 1.368 . S
C1776 C1775 1.523 . S
C1777 C1761 1.429 . S
C1777 C1773 1.429 . S
C1777 C1778 1.523 . S
C1778 C1762 1.368 . S
C1778 C1774 1.368 . S
C1778 C1777 1.523 . S
H1779 C1754 0.950 . S
H1780 C1756 0.950 . S
H1781 C1757 0.949 . S
H1782 C1759 0.950 . S
H1783 C1761 0.950 . S
C1784 C1785 1.349 . S
C1784 C1786 1.327 . S
C1784 H1809 0.950 . S
C1785 C1784 1.349 . S
C1785 C1801 1.349 . S
C1786 C1784 1.327 . S
C1786 C1805 1.429 . S
C1786 H1810 0.950 . S
C1787 C1804 1.574 . S
C1787 C1806 1.368 . S
C1787 H1811 0.949 . S
H1788 C1792 0.949 . S
C1789 C1790 1.349 . S
C1789 C1791 1.327 . S
C1789 H1812 0.950 . S
C1790 C1789 1.349 . S
C1790 C1802 1.349 . S
C1791 C1789 1.327 . S
C1791 C1807 1.429 . S
C1791 H1813 0.950 . S
C1792 H1788 0.949 . S
C1792 C1800 1.574 . S
C1792 C1808 1.368 . S
H1793 C1801 0.950 . S
H1794 C1799 0.950 . S
H1795 C1800 0.949 . S
H1796 C1802 0.950 . S
H1797 C1803 0.950 . S
H1798 C1804 0.949 . S
C1799 H1794 0.950 . S
C1799 C1801 1.327 . S
C1799 C1805 1.429 . S
C1800 C1792 1.574 . S
C1800 H1795 0.949 . S
C1800 C1806 1.368 . S
C1801 C1785 1.349 . S
C1801 H1793 0.950 . S
C1801 C1799 1.327 . S
C1802 C1790 1.349 . S
C1802 H1796 0.950 . S
C1802 C1803 1.327 . S
C1803 H1797 0.950 . S
C1803 C1802 1.327 . S
C1803 C1807 1.429 . S
C1804 C1787 1.574 . S
C1804 H1798 0.949 . S
C1804 C1808 1.368 . S
C1805 C1786 1.429 . S
C1805 C1799 1.429 . S
C1805 C1806 1.523 . S
C1806 C1787 1.368 . S
C1806 C1800 1.368 . S
C1806 C1805 1.523 . S
C1807 C1791 1.429 . S
C1807 C1803 1.429 . S
C1807 C1808 1.523 . S
C1808 C1792 1.368 . S
C1808 C1804 1.368 . S
C1808 C1807 1.523 . S
H1809 C1784 0.950 . S
H1810 C1786 0.950 . S
H1811 C1787 0.949 . S
H1812 C1789 0.950 . S
H1813 C1791 0.950 . S
C1814 C1815 1.349 . S
C1814 C1816 1.327 . S
C1814 H1839 0.950 . S
C1815 C1814 1.349 . S
C1815 C1831 1.349 . S
C1816 C1814 1.327 . S
C1816 C1835 1.429 . S
C1816 H1840 0.950 . S
C1817 C1834 1.574 . S
C1817 C1836 1.368 . S
C1817 H1841 0.949 . S
H1818 C1822 0.949 . S
C1819 C1820 1.349 . S
C1819 C1821 1.327 . S
C1819 H1842 0.950 . S
C1820 C1819 1.349 . S
C1820 C1832 1.349 . S
C1821 C1819 1.327 . S
C1821 C1837 1.429 . S
C1821 H1843 0.950 . S
C1822 H1818 0.949 . S
C1822 C1830 1.574 . S
C1822 C1838 1.368 . S
H1823 C1831 0.950 . S
H1824 C1829 0.950 . S
H1825 C1830 0.949 . S
H1826 C1832 0.950 . S
H1827 C1833 0.950 . S
H1828 C1834 0.949 . S
C1829 H1824 0.950 . S
C1829 C1831 1.327 . S
C1829 C1835 1.429 . S
C1830 C1822 1.574 . S
C1830 H1825 0.949 . S
C1830 C1836 1.368 . S
C1831 C1815 1.349 . S
C1831 H1823 0.950 . S
C1831 C1829 1.327 . S
C1832 C1820 1.349 . S
C1832 H1826 0.950 . S
C1832 C1833 1.327 . S
C1833 H1827 0.950 . S
C1833 C1832 1.327 . S
C1833 C1837 1.429 . S
C1834 C1817 1.574 . S
C1834 H1828 0.949 . S
C1834 C1838 1.368 . S
C1835 C1816 1.429 . S
C1835 C1829 1.429 . S
C1835 C1836 1.523 . S
C1836 C1817 1.368 . S
C1836 C1830 1.368 . S
C1836 C1835 1.523 . S
C1837 C1821 1.429 . S
C1837 C1833 1.429 . S
C1837 C1838 1.523 . S
C1838 C1822 1.368 . S
C1838 C1834 1.368 . S
C1838 C1837 1.523 . S
H1839 C1814 0.950 . S
H1840 C1816 0.950 . S
H1841 C1817 0.949 . S
H1842 C1819 0.950 . S
H1843 C1821 0.950 . S
C1844 C1845 1.349 . S
C1844 C1846 1.327 . S
C1844 H1869 0.950 . S
C1845 C1844 1.349 . S
C1845 C1861 1.349 . S
C1846 C1844 1.327 . S
C1846 C1865 1.429 . S
C1846 H1870 0.950 . S
C1847 C1864 1.574 . S
C1847 C1866 1.368 . S
C1847 H1871 0.949 . S
H1848 C1852 0.949 . S
C1849 C1850 1.349 . S
C1849 C1851 1.327 . S
C1849 H1872 0.950 . S
C1850 C1849 1.349 . S
C1850 C1862 1.349 . S
C1851 C1849 1.327 . S
C1851 C1867 1.429 . S
C1851 H1873 0.950 . S
C1852 H1848 0.949 . S
C1852 C1860 1.574 . S
C1852 C1868 1.368 . S
H1853 C1861 0.950 . S
H1854 C1859 0.950 . S
H1855 C1860 0.949 . S
H1856 C1862 0.950 . S
H1857 C1863 0.950 . S
H1858 C1864 0.949 . S
C1859 H1854 0.950 . S
C1859 C1861 1.327 . S
C1859 C1865 1.429 . S
C1860 C1852 1.574 . S
C1860 H1855 0.949 . S
C1860 C1866 1.368 . S
C1861 C1845 1.349 . S
C1861 H1853 0.950 . S
C1861 C1859 1.327 . S
C1862 C1850 1.349 . S
C1862 H1856 0.950 . S
C1862 C1863 1.327 . S
C1863 H1857 0.950 . S
C1863 C1862 1.327 . S
C1863 C1867 1.429 . S
C1864 C1847 1.574 . S
C1864 H1858 0.949 . S
C1864 C1868 1.368 . S
C1865 C1846 1.429 . S
C1865 C1859 1.429 . S
C1865 C1866 1.523 . S
C1866 C1847 1.368 . S
C1866 C1860 1.368 . S
C1866 C1865 1.523 . S
C1867 C1851 1.429 . S
C1867 C1863 1.429 . S
C1867 C1868 1.523 . S
C1868 C1852 1.368 . S
C1868 C1864 1.368 . S
C1868 C1867 1.523 . S
H1869 C1844 0.950 . S
H1870 C1846 0.950 . S
H1871 C1847 0.949 . S
H1872 C1849 0.950 . S
H1873 C1851 0.950 . S
C1874 C1875 1.349 . S
C1874 C1876 1.327 . S
C1874 H1899 0.950 . S
C1875 C1874 1.349 . S
C1875 C1891 1.349 . S
C1876 C1874 1.327 . S
C1876 C1895 1.429 . S
C1876 H1900 0.950 . S
C1877 C1894 1.574 . S
C1877 C1896 1.368 . S
C1877 H1901 0.949 . S
H1878 C1882 0.949 . S
C1879 C1880 1.349 . S
C1879 C1881 1.327 . S
C1879 H1902 0.950 . S
C1880 C1879 1.349 . S
C1880 C1892 1.349 . S
C1881 C1879 1.327 . S
C1881 C1897 1.429 . S
C1881 H1903 0.950 . S
C1882 H1878 0.949 . S
C1882 C1890 1.574 . S
C1882 C1898 1.368 . S
H1883 C1891 0.950 . S
H1884 C1889 0.950 . S
H1885 C1890 0.949 . S
H1886 C1892 0.950 . S
H1887 C1893 0.950 . S
H1888 C1894 0.949 . S
C1889 H1884 0.950 . S
C1889 C1891 1.327 . S
C1889 C1895 1.429 . S
C1890 C1882 1.574 . S
C1890 H1885 0.949 . S
C1890 C1896 1.368 . S
C1891 C1875 1.349 . S
C1891 H1883 0.950 . S
C1891 C1889 1.327 . S
C1892 C1880 1.349 . S
C1892 H1886 0.950 . S
C1892 C1893 1.327 . S
C1893 H1887 0.950 . S
C1893 C1892 1.327 . S
C1893 C1897 1.429 . S
C1894 C1877 1.574 . S
C1894 H1888 0.949 . S
C1894 C1898 1.368 . S
C1895 C1876 1.429 . S
C1895 C1889 1.429 . S
C1895 C1896 1.523 . S
C1896 C1877 1.368 . S
C1896 C1890 1.368 . S
C1896 C1895 1.523 . S
C1897 C1881 1.429 . S
C1897 C1893 1.429 . S
C1897 C1898 1.523 . S
C1898 C1882 1.368 . S
C1898 C1894 1.368 . S
C1898 C1897 1.523 . S
H1899 C1874 0.950 . S
H1900 C1876 0.950 . S
H1901 C1877 0.949 . S
H1902 C1879 0.950 . S
H1903 C1881 0.950 . S
C945 C5 1.179 . S
C950 C772 1.179 . S
C975 C654 1.179 . S
C980 C64 1.179 . S
C1005 C713 1.179 . S
C1010 C123 1.179 . S
C1035 C595 1.179 . S
C1040 C182 1.179 . S
C1065 C241 1.179 . S
C1070 C890 1.179 . S
C1095 C300 1.179 . S
C1100 C536 1.179 . S
C1125 C831 1.179 . S
C1130 C359 1.179 . S
C1155 C418 1.179 . S
C1160 C477 1.179 . S
C1185 C239 1.660 . S
C1190 C3 1.660 . S
C1215 C62 1.660 . S
C1220 C298 1.660 . S
C1245 C121 1.660 . S
C1250 C357 1.660 . S
C1275 C416 1.660 . S
C1280 C180 1.660 . S
C1305 C475 1.660 . S
C1310 C593 1.660 . S
C1335 C534 1.660 . S
C1340 C652 1.660 . S
C1365 C829 1.660 . S
C1370 C711 1.660 . S
C1395 C770 1.660 . S
C1400 C888 1.660 . S
C1425 C347 1.329 . S
C1430 C52 1.329 . S
C1455 C111 1.329 . S
C1460 C406 1.329 . S
C1485 C170 1.329 . S
C1490 C465 1.329 . S
C1515 C288 1.329 . S
C1520 C229 1.329 . S
C1545 C269 1.660 . S
C1550 C623 1.641 . S
C1575 C151 1.659 . S
C1580 C505 1.642 . S
C1605 C682 1.642 . S
C1610 C387 1.659 . S
C1635 C564 1.641 . S
C1640 C33 1.660 . S
C1665 C524 1.329 . S
C1670 C760 1.329 . S
C1695 C642 1.329 . S
C1700 C937 1.329 . S
C1725 C819 1.329 . S
C1730 C583 1.329 . S
C1755 C701 1.329 . S
C1760 C878 1.329 . S
C1785 C859 1.642 . S
C1790 C92 1.642 . S
C1815 C800 1.642 . S
C1820 C328 1.642 . S
C1845 C918 1.642 . S
C1850 C210 1.642 . S
C1875 C741 1.642 . S
C1880 C446 1.642 . S
