# Generated by pormake.
# Topology unl, (4)-cn, num edge types: 1
# Building blocks:
#     Node 0, Type 0, BuildingBlock: UXUYUI_clean_sbu_0, # of connection points: 4
#     Node 1, Type 0, BuildingBlock: UXUYUI_clean_sbu_0, # of connection points: 4
#     Node 2, Type 0, BuildingBlock: UXUYUI_clean_sbu_0, # of connection points: 4
#     Node 3, Type 0, BuildingBlock: UXUYUI_clean_sbu_0, # of connection points: 4
#     Node 4, Type 0, BuildingBlock: UXUYUI_clean_sbu_0, # of connection points: 4
#     Node 5, Type 0, BuildingBlock: UXUYUI_clean_sbu_0, # of connection points: 4
#     Node 6, Type 0, BuildingBlock: UXUYUI_clean_sbu_0, # of connection points: 4
#     Node 7, Type 0, BuildingBlock: UXUYUI_clean_sbu_0, # of connection points: 4
#     Node 8, Type 0, BuildingBlock: UXUYUI_clean_sbu_0, # of connection points: 4
#     Node 9, Type 0, BuildingBlock: UXUYUI_clean_sbu_0, # of connection points: 4
#     Node 10, Type 0, BuildingBlock: UXUYUI_clean_sbu_0, # of connection points: 4
#     Node 11, Type 0, BuildingBlock: UXUYUI_clean_sbu_0, # of connection points: 4
#     Node 12, Type 0, BuildingBlock: UXUYUI_clean_sbu_0, # of connection points: 4
#     Node 13, Type 0, BuildingBlock: UXUYUI_clean_sbu_0, # of connection points: 4
#     Node 14, Type 0, BuildingBlock: UXUYUI_clean_sbu_0, # of connection points: 4
#     Node 15, Type 0, BuildingBlock: UXUYUI_clean_sbu_0, # of connection points: 4
#     Node 16, Type 0, BuildingBlock: UXUYUI_clean_sbu_0, # of connection points: 4
#     Node 17, Type 0, BuildingBlock: UXUYUI_clean_sbu_0, # of connection points: 4
#     Node 18, Type 0, BuildingBlock: UXUYUI_clean_sbu_0, # of connection points: 4
#     Node 19, Type 0, BuildingBlock: UXUYUI_clean_sbu_0, # of connection points: 4
#     Node 20, Type 0, BuildingBlock: UXUYUI_clean_sbu_0, # of connection points: 4
#     Node 21, Type 0, BuildingBlock: UXUYUI_clean_sbu_0, # of connection points: 4
#     Node 22, Type 0, BuildingBlock: UXUYUI_clean_sbu_0, # of connection points: 4
#     Node 23, Type 0, BuildingBlock: UXUYUI_clean_sbu_0, # of connection points: 4
#     Node 24, Type 0, BuildingBlock: UXUYUI_clean_sbu_0, # of connection points: 4
#     Node 25, Type 0, BuildingBlock: UXUYUI_clean_sbu_0, # of connection points: 4
#     Node 26, Type 0, BuildingBlock: UXUYUI_clean_sbu_0, # of connection points: 4
#     Node 27, Type 0, BuildingBlock: UXUYUI_clean_sbu_0, # of connection points: 4
#     Node 28, Type 0, BuildingBlock: UXUYUI_clean_sbu_0, # of connection points: 4
#     Node 29, Type 0, BuildingBlock: UXUYUI_clean_sbu_0, # of connection points: 4
#     Node 30, Type 0, BuildingBlock: UXUYUI_clean_sbu_0, # of connection points: 4
#     Node 31, Type 0, BuildingBlock: UXUYUI_clean_sbu_0, # of connection points: 4
#     Node 32, Type 0, BuildingBlock: UXUYUI_clean_sbu_0, # of connection points: 4
#     Node 33, Type 0, BuildingBlock: UXUYUI_clean_sbu_0, # of connection points: 4
#     Node 34, Type 0, BuildingBlock: UXUYUI_clean_sbu_0, # of connection points: 4
#     Node 35, Type 0, BuildingBlock: UXUYUI_clean_sbu_0, # of connection points: 4
#     Edge 36, Type (0, 0), BuildingBlock: CIFDUS_clean_linker_0, # of connection points: 2
#     Edge 37, Type (0, 0), BuildingBlock: CIFDUS_clean_linker_0, # of connection points: 2
#     Edge 38, Type (0, 0), BuildingBlock: CIFDUS_clean_linker_0, # of connection points: 2
#     Edge 39, Type (0, 0), BuildingBlock: CIFDUS_clean_linker_0, # of connection points: 2
#     Edge 40, Type (0, 0), BuildingBlock: CIFDUS_clean_linker_0, # of connection points: 2
#     Edge 41, Type (0, 0), BuildingBlock: CIFDUS_clean_linker_0, # of connection points: 2
#     Edge 42, Type (0, 0), BuildingBlock: CIFDUS_clean_linker_0, # of connection points: 2
#     Edge 43, Type (0, 0), BuildingBlock: CIFDUS_clean_linker_0, # of connection points: 2
#     Edge 44, Type (0, 0), BuildingBlock: CIFDUS_clean_linker_0, # of connection points: 2
#     Edge 45, Type (0, 0), BuildingBlock: CIFDUS_clean_linker_0, # of connection points: 2
#     Edge 46, Type (0, 0), BuildingBlock: CIFDUS_clean_linker_0, # of connection points: 2
#     Edge 47, Type (0, 0), BuildingBlock: CIFDUS_clean_linker_0, # of connection points: 2
#     Edge 48, Type (0, 0), BuildingBlock: CIFDUS_clean_linker_0, # of connection points: 2
#     Edge 49, Type (0, 0), BuildingBlock: CIFDUS_clean_linker_0, # of connection points: 2
#     Edge 50, Type (0, 0), BuildingBlock: CIFDUS_clean_linker_0, # of connection points: 2
#     Edge 51, Type (0, 0), BuildingBlock: CIFDUS_clean_linker_0, # of connection points: 2
#     Edge 52, Type (0, 0), BuildingBlock: CIFDUS_clean_linker_0, # of connection points: 2
#     Edge 53, Type (0, 0), BuildingBlock: CIFDUS_clean_linker_0, # of connection points: 2
#     Edge 54, Type (0, 0), BuildingBlock: CIFDUS_clean_linker_0, # of connection points: 2
#     Edge 55, Type (0, 0), BuildingBlock: CIFDUS_clean_linker_0, # of connection points: 2
#     Edge 56, Type (0, 0), BuildingBlock: CIFDUS_clean_linker_0, # of connection points: 2
#     Edge 57, Type (0, 0), BuildingBlock: CIFDUS_clean_linker_0, # of connection points: 2
#     Edge 58, Type (0, 0), BuildingBlock: CIFDUS_clean_linker_0, # of connection points: 2
#     Edge 59, Type (0, 0), BuildingBlock: CIFDUS_clean_linker_0, # of connection points: 2
#     Edge 60, Type (0, 0), BuildingBlock: CIFDUS_clean_linker_0, # of connection points: 2
#     Edge 61, Type (0, 0), BuildingBlock: CIFDUS_clean_linker_0, # of connection points: 2
#     Edge 62, Type (0, 0), BuildingBlock: CIFDUS_clean_linker_0, # of connection points: 2
#     Edge 63, Type (0, 0), BuildingBlock: CIFDUS_clean_linker_0, # of connection points: 2
#     Edge 64, Type (0, 0), BuildingBlock: CIFDUS_clean_linker_0, # of connection points: 2
#     Edge 65, Type (0, 0), BuildingBlock: CIFDUS_clean_linker_0, # of connection points: 2
#     Edge 66, Type (0, 0), BuildingBlock: CIFDUS_clean_linker_0, # of connection points: 2
#     Edge 67, Type (0, 0), BuildingBlock: CIFDUS_clean_linker_0, # of connection points: 2
#     Edge 68, Type (0, 0), BuildingBlock: CIFDUS_clean_linker_0, # of connection points: 2
#     Edge 69, Type (0, 0), BuildingBlock: CIFDUS_clean_linker_0, # of connection points: 2
#     Edge 70, Type (0, 0), BuildingBlock: CIFDUS_clean_linker_0, # of connection points: 2
#     Edge 71, Type (0, 0), BuildingBlock: CIFDUS_clean_linker_0, # of connection points: 2
#     Edge 72, Type (0, 0), BuildingBlock: CIFDUS_clean_linker_0, # of connection points: 2
#     Edge 73, Type (0, 0), BuildingBlock: CIFDUS_clean_linker_0, # of connection points: 2
#     Edge 74, Type (0, 0), BuildingBlock: CIFDUS_clean_linker_0, # of connection points: 2
#     Edge 75, Type (0, 0), BuildingBlock: CIFDUS_clean_linker_0, # of connection points: 2
#     Edge 76, Type (0, 0), BuildingBlock: CIFDUS_clean_linker_0, # of connection points: 2
#     Edge 77, Type (0, 0), BuildingBlock: CIFDUS_clean_linker_0, # of connection points: 2
#     Edge 78, Type (0, 0), BuildingBlock: CIFDUS_clean_linker_0, # of connection points: 2
#     Edge 79, Type (0, 0), BuildingBlock: CIFDUS_clean_linker_0, # of connection points: 2
#     Edge 80, Type (0, 0), BuildingBlock: CIFDUS_clean_linker_0, # of connection points: 2
#     Edge 81, Type (0, 0), BuildingBlock: CIFDUS_clean_linker_0, # of connection points: 2
#     Edge 82, Type (0, 0), BuildingBlock: CIFDUS_clean_linker_0, # of connection points: 2
#     Edge 83, Type (0, 0), BuildingBlock: CIFDUS_clean_linker_0, # of connection points: 2
#     Edge 84, Type (0, 0), BuildingBlock: CIFDUS_clean_linker_0, # of connection points: 2
#     Edge 85, Type (0, 0), BuildingBlock: CIFDUS_clean_linker_0, # of connection points: 2
#     Edge 86, Type (0, 0), BuildingBlock: CIFDUS_clean_linker_0, # of connection points: 2
#     Edge 87, Type (0, 0), BuildingBlock: CIFDUS_clean_linker_0, # of connection points: 2
#     Edge 88, Type (0, 0), BuildingBlock: CIFDUS_clean_linker_0, # of connection points: 2
#     Edge 89, Type (0, 0), BuildingBlock: CIFDUS_clean_linker_0, # of connection points: 2
#     Edge 90, Type (0, 0), BuildingBlock: CIFDUS_clean_linker_0, # of connection points: 2
#     Edge 91, Type (0, 0), BuildingBlock: CIFDUS_clean_linker_0, # of connection points: 2
#     Edge 92, Type (0, 0), BuildingBlock: CIFDUS_clean_linker_0, # of connection points: 2
#     Edge 93, Type (0, 0), BuildingBlock: CIFDUS_clean_linker_0, # of connection points: 2
#     Edge 94, Type (0, 0), BuildingBlock: CIFDUS_clean_linker_0, # of connection points: 2
#     Edge 95, Type (0, 0), BuildingBlock: CIFDUS_clean_linker_0, # of connection points: 2
#     Edge 96, Type (0, 0), BuildingBlock: CIFDUS_clean_linker_0, # of connection points: 2
#     Edge 97, Type (0, 0), BuildingBlock: CIFDUS_clean_linker_0, # of connection points: 2
#     Edge 98, Type (0, 0), BuildingBlock: CIFDUS_clean_linker_0, # of connection points: 2
#     Edge 99, Type (0, 0), BuildingBlock: CIFDUS_clean_linker_0, # of connection points: 2
#     Edge 100, Type (0, 0), BuildingBlock: CIFDUS_clean_linker_0, # of connection points: 2
#     Edge 101, Type (0, 0), BuildingBlock: CIFDUS_clean_linker_0, # of connection points: 2
#     Edge 102, Type (0, 0), BuildingBlock: CIFDUS_clean_linker_0, # of connection points: 2
#     Edge 103, Type (0, 0), BuildingBlock: CIFDUS_clean_linker_0, # of connection points: 2
#     Edge 104, Type (0, 0), BuildingBlock: CIFDUS_clean_linker_0, # of connection points: 2
#     Edge 105, Type (0, 0), BuildingBlock: CIFDUS_clean_linker_0, # of connection points: 2
#     Edge 106, Type (0, 0), BuildingBlock: CIFDUS_clean_linker_0, # of connection points: 2
#     Edge 107, Type (0, 0), BuildingBlock: CIFDUS_clean_linker_0, # of connection points: 2
# Relax obj value: 0.279
# Max RMSD: 0.258
# Mean RMSD: 0.258
data_MOF--net-unl--node1-UXUYUI_clean_sbu_0--edge1-CIFDUS_clean_linker_0
_symmetry_space_group_name_H-M    P1
_symmetry_Int_Tables_number       1
_symmetry_cell_setting            triclinic
loop_
_symmetry_equiv_pos_as_xyz
'x, y, z'
_cell_length_a     86.777649
_cell_length_b     86.786019
_cell_length_c     52.104082
_cell_angle_alpha  89.997384
_cell_angle_beta   90.01685
_cell_angle_gamma 120.00501
loop_
_atom_site_label
_atom_site_type_symbol
_atom_site_fract_x
_atom_site_fract_y
_atom_site_fract_z
_atom_type_partial_charge
Li0 Li 0.19576 0.08934 0.1064 0.0
Li1 Li 0.22485 0.1161 0.11799 0.0
Li2 Li 0.19617 0.11313 0.13219 0.0
Li3 Li 0.2047 0.11793 0.08796 0.0
C4 C 0.19614 0.08591 0.16024 0.0
N5 N 0.17554 0.06244 0.19828 0.0
C6 C 0.20406 0.08455 0.18282 0.0
C7 C 0.17774 0.07535 0.157 0.0
C8 C 0.19342 0.0726 0.20183 0.0
C9 C 0.16756 0.06357 0.17645 0.0
C10 C 0.221 0.1062 0.05909 0.0
C11 C 0.23963 0.1242 0.02428 0.0
N12 N 0.22844 0.11175 0.00724 0.0
C13 C 0.20976 0.09352 0.04124 0.0
C14 C 0.23612 0.12161 0.05057 0.0
C15 C 0.21372 0.09658 0.01511 0.0
C16 C 0.17079 0.05872 0.08157 0.0
N17 N 0.18427 0.06479 0.09887 0.0
C18 C 0.1832 0.03675 0.09908 0.0
C19 C 0.19038 0.05419 0.10809 0.0
C20 C 0.16979 0.03033 0.08023 0.0
C21 C 0.16336 0.0415 0.07189 0.0
H22 H 0.16647 0.06761 0.07427 0.0
H23 H 0.20122 0.05947 0.12175 0.0
C24 C 0.25446 0.13312 0.15036 0.0
N25 N 0.24858 0.12409 0.1279 0.0
C26 C 0.27203 0.13961 0.15812 0.0
C27 C 0.27707 0.12729 0.1195 0.0
C28 C 0.25937 0.12097 0.11255 0.0
C29 C 0.28364 0.13681 0.14255 0.0
H30 H 0.24548 0.13532 0.16215 0.0
H31 H 0.25427 0.11371 0.0948 0.0
C32 C 0.16791 0.10468 0.09961 0.0
N33 N 0.1412 0.11302 0.09493 0.0
C34 C 0.1721 0.12244 0.09857 0.0
C35 C 0.15013 0.09114 0.09828 0.0
C36 C 0.15842 0.12639 0.09618 0.0
C37 C 0.13681 0.09563 0.09592 0.0
C38 C 0.22711 0.15164 0.11179 0.0
C39 C 0.22008 0.16285 0.11577 0.0
C40 C 0.24457 0.1588 0.10287 0.0
C41 C 0.2305 0.18097 0.1102 0.0
C42 C 0.25456 0.17699 0.09757 0.0
N43 N 0.24737 0.1876 0.10128 0.0
C44 C 0.19588 0.13507 0.17085 0.0
C45 C 0.16764 0.10943 0.16426 0.0
C46 C 0.18863 0.14184 0.18835 0.0
N47 N 0.18531 0.11934 0.15884 0.0
C48 C 0.15984 0.11563 0.18187 0.0
C49 C 0.17034 0.13222 0.19374 0.0
H50 H 0.20991 0.1426 0.16629 0.0
H51 H 0.1595 0.09697 0.15441 0.0
C52 C 0.1878 0.11652 0.04215 0.0
N53 N 0.2021 0.12794 0.05647 0.0
C54 C 0.18318 0.12244 0.02019 0.0
C55 C 0.2087 0.15161 0.02709 0.0
C56 C 0.21284 0.14509 0.04897 0.0
C57 C 0.19343 0.14032 0.01275 0.0
H58 H 0.17962 0.10286 0.04829 0.0
H59 H 0.22441 0.15388 0.06006 0.0
O60 O 0.20641 0.09763 0.14156 0.0
O61 O 0.21706 0.10366 0.08471 0.0
O62 O 0.18105 0.10046 0.10224 0.0
O63 O 0.21718 0.13389 0.11748 0.0
H64 H 0.2183 0.09267 0.18561 0.0
H65 H 0.17135 0.07625 0.1397 0.0
H66 H 0.19938 0.0714 0.21941 0.0
H67 H 0.1533 0.05533 0.17421 0.0
H68 H 0.25122 0.13613 0.01743 0.0
H69 H 0.19801 0.08151 0.04746 0.0
H70 H 0.24498 0.13156 0.06409 0.0
H71 H 0.20507 0.08693 0.00108 0.0
H72 H 0.18843 0.02857 0.10628 0.0
H73 H 0.15335 0.03737 0.05702 0.0
H74 H 0.27643 0.14663 0.17621 0.0
H75 H 0.28558 0.12501 0.10676 0.0
H76 H 0.18576 0.13303 0.0995 0.0
H77 H 0.14666 0.07731 0.09921 0.0
H78 H 0.16149 0.1401 0.09533 0.0
H79 H 0.12299 0.08529 0.09491 0.0
H80 H 0.20675 0.15768 0.12318 0.0
H81 H 0.25035 0.15045 0.09991 0.0
H82 H 0.22518 0.18976 0.11308 0.0
H83 H 0.26804 0.18268 0.09051 0.0
H84 H 0.19722 0.15455 0.19742 0.0
H85 H 0.14567 0.10786 0.18546 0.0
H86 H 0.17122 0.11328 0.00987 0.0
H87 H 0.21714 0.16542 0.02176 0.0
Li88 Li 0.88022 0.10085 0.12186 0.0
Li89 Li 0.90654 0.09979 0.10851 0.0
Li90 Li 0.8773 0.07957 0.09015 0.0
Li91 Li 0.88446 0.07608 0.13429 0.0
C92 C 0.8898 0.10762 0.06185 0.0
N93 N 0.8863 0.10928 0.00936 0.0
C94 C 0.90381 0.11056 0.04555 0.0
C95 C 0.87402 0.10556 0.05144 0.0
C96 C 0.90178 0.11137 0.01907 0.0
C97 C 0.87251 0.10642 0.02486 0.0
C98 C 0.91449 0.11434 0.15434 0.0
C99 C 0.94403 0.12454 0.17074 0.0
N100 N 0.94643 0.1412 0.17333 0.0
C101 C 0.91721 0.13154 0.15724 0.0
C102 C 0.92796 0.11077 0.16124 0.0
C103 C 0.93347 0.14494 0.16686 0.0
C104 C 0.86794 0.11582 0.15871 0.0
N105 N 0.87143 0.11579 0.13329 0.0
C106 C 0.86031 0.13543 0.12425 0.0
C107 C 0.86806 0.12552 0.11613 0.0
C108 C 0.85608 0.13534 0.15031 0.0
C109 C 0.86018 0.12552 0.16767 0.0
H110 H 0.87091 0.10805 0.17192 0.0
H111 H 0.8711 0.12535 0.09608 0.0
C112 C 0.93995 0.10578 0.09138 0.0
N113 N 0.93102 0.1139 0.09995 0.0
C114 C 0.9571 0.11586 0.08144 0.0
C115 C 0.95575 0.14252 0.09012 0.0
C116 C 0.93856 0.1319 0.09968 0.0
C117 C 0.96511 0.1345 0.08023 0.0
H118 H 0.93345 0.09143 0.09109 0.0
H119 H 0.93096 0.13798 0.10596 0.0
C120 C 0.84833 0.07471 0.13228 0.0
N121 N 0.82052 0.07588 0.15625 0.0
C122 C 0.84469 0.07012 0.15819 0.0
C123 C 0.83779 0.07986 0.11856 0.0
C124 C 0.83056 0.07078 0.16994 0.0
C125 C 0.82382 0.0804 0.13103 0.0
C126 C 0.89663 0.05926 0.10712 0.0
C127 C 0.8835 0.0428 0.09765 0.0
C128 C 0.91022 0.06016 0.1226 0.0
C129 C 0.88415 0.02748 0.10391 0.0
C130 C 0.91038 0.04453 0.12847 0.0
N131 N 0.89745 0.02866 0.11908 0.0
C132 C 0.87538 0.06367 0.04263 0.0
C133 C 0.84759 0.05902 0.05762 0.0
C134 C 0.86716 0.0523 0.0219 0.0
N135 N 0.8655 0.06649 0.06021 0.0
C136 C 0.83883 0.04771 0.03701 0.0
C137 C 0.84856 0.04381 0.01916 0.0
H138 H 0.8896 0.06966 0.04538 0.0
H139 H 0.84004 0.06137 0.07198 0.0
C140 C 0.88968 0.06176 0.18105 0.0
N141 N 0.87965 0.05841 0.15951 0.0
C142 C 0.88539 0.04827 0.19908 0.0
C143 C 0.86066 0.02824 0.17226 0.0
C144 C 0.86539 0.04207 0.15486 0.0
C145 C 0.87061 0.03126 0.19485 0.0
H146 H 0.90087 0.07492 0.18435 0.0
H147 H 0.85765 0.03984 0.13757 0.0
O148 O 0.89135 0.10636 0.0878 0.0
O149 O 0.89874 0.10108 0.14471 0.0
O150 O 0.86237 0.07456 0.12057 0.0
O151 O 0.89599 0.07436 0.10174 0.0
H152 H 0.91606 0.11206 0.05319 0.0
H153 H 0.86293 0.10297 0.06371 0.0
H154 H 0.91249 0.11358 0.00624 0.0
H155 H 0.86033 0.10472 0.01654 0.0
H156 H 0.95462 0.122 0.176 0.0
H157 H 0.90697 0.13456 0.1519 0.0
H158 H 0.9261 0.09756 0.159 0.0
H159 H 0.93579 0.15833 0.16911 0.0
H160 H 0.85725 0.14269 0.11018 0.0
H161 H 0.8574 0.1253 0.18797 0.0
H162 H 0.9636 0.10904 0.07356 0.0
H163 H 0.96142 0.15683 0.08978 0.0
H164 H 0.85281 0.06631 0.16922 0.0
H165 H 0.8406 0.08379 0.09864 0.0
H166 H 0.82764 0.06733 0.19 0.0
H167 H 0.81566 0.08452 0.12071 0.0
H168 H 0.87275 0.0418 0.08592 0.0
H169 H 0.92041 0.07276 0.13025 0.0
H170 H 0.87402 0.01465 0.09683 0.0
H171 H 0.92076 0.04502 0.14055 0.0
H172 H 0.87522 0.04951 0.00896 0.0
H173 H 0.82452 0.0417 0.0355 0.0
H174 H 0.8933 0.05123 0.21638 0.0
H175 H 0.84933 0.01529 0.16803 0.0
Li176 Li 0.92281 0.79818 0.09087 0.0
Li177 Li 0.92561 0.81093 0.1325 0.0
Li178 Li 0.8994 0.78023 0.12098 0.0
Li179 Li 0.90267 0.80837 0.10206 0.0
C180 C 0.93545 0.78142 0.11672 0.0
N181 N 0.95654 0.76803 0.09962 0.0
C182 C 0.95386 0.79112 0.12039 0.0
C183 C 0.92773 0.76486 0.10455 0.0
C184 C 0.96431 0.78413 0.11155 0.0
C185 C 0.93863 0.75833 0.096 0.0
C186 C 0.93491 0.84059 0.10246 0.0
C187 C 0.93219 0.86409 0.12278 0.0
N188 N 0.9469 0.87635 0.10997 0.0
C189 C 0.94994 0.85342 0.08938 0.0
C190 C 0.92592 0.84596 0.11921 0.0
C191 C 0.95582 0.87144 0.09347 0.0
C192 C 0.93331 0.78592 0.04498 0.0
N193 N 0.93799 0.79811 0.06418 0.0
C194 C 0.96761 0.81465 0.04784 0.0
C195 C 0.95482 0.81214 0.06603 0.0
C196 C 0.96295 0.80273 0.02728 0.0
C197 C 0.94561 0.78816 0.02592 0.0
H198 H 0.92013 0.7745 0.04426 0.0
H199 H 0.95829 0.82143 0.08176 0.0
C200 C 0.93716 0.82003 0.18385 0.0
N201 N 0.94192 0.82418 0.15887 0.0
C202 C 0.94968 0.82855 0.20332 0.0
C203 C 0.97162 0.84564 0.17095 0.0
C204 C 0.95873 0.83671 0.15213 0.0
C205 C 0.96723 0.8414 0.19692 0.0
H206 H 0.92376 0.80977 0.18859 0.0
H207 H 0.96228 0.83937 0.13208 0.0
C208 C 0.89226 0.7778 0.06174 0.0
N209 N 0.88306 0.76193 0.01394 0.0
C210 C 0.89461 0.78808 0.03989 0.0
C211 C 0.8852 0.75943 0.0593 0.0
C212 C 0.8899 0.77982 0.01589 0.0
C213 C 0.88063 0.75166 0.03496 0.0
C214 C 0.88754 0.80226 0.1541 0.0
C215 C 0.8696 0.78912 0.15309 0.0
C216 C 0.89304 0.81646 0.17123 0.0
C217 C 0.85737 0.79057 0.16887 0.0
C218 C 0.88041 0.81744 0.18671 0.0
N219 N 0.86299 0.8046 0.18521 0.0
C220 C 0.88942 0.74972 0.15067 0.0
C221 C 0.86656 0.7481 0.12387 0.0
C222 C 0.87829 0.73235 0.1592 0.0
N223 N 0.88343 0.75713 0.13323 0.0
C224 C 0.85493 0.73073 0.13198 0.0
C225 C 0.86082 0.7226 0.14972 0.0
H226 H 0.90294 0.75726 0.1577 0.0
H227 H 0.86224 0.75432 0.10982 0.0
C228 C 0.89767 0.82936 0.06688 0.0
N229 N 0.8898 0.81875 0.08756 0.0
C230 C 0.88836 0.83526 0.05189 0.0
C231 C 0.86321 0.82002 0.08045 0.0
C232 C 0.87298 0.81422 0.09479 0.0
C233 C 0.87078 0.83023 0.05829 0.0
H234 H 0.91091 0.83251 0.06122 0.0
H235 H 0.86682 0.80545 0.11088 0.0
O236 O 0.92506 0.78826 0.12449 0.0
O237 O 0.92909 0.8229 0.09871 0.0
O238 O 0.89654 0.78557 0.08546 0.0
O239 O 0.89978 0.80087 0.13916 0.0
H240 H 0.96001 0.80399 0.12971 0.0
H241 H 0.91349 0.75725 0.10145 0.0
H242 H 0.97859 0.79153 0.1141 0.0
H243 H 0.93287 0.74559 0.08639 0.0
H244 H 0.92534 0.86841 0.1357 0.0
H245 H 0.95702 0.84951 0.07621 0.0
H246 H 0.91414 0.83625 0.12912 0.0
H247 H 0.96746 0.88151 0.08353 0.0
H248 H 0.98088 0.82607 0.04942 0.0
H249 H 0.94168 0.77863 0.01038 0.0
H250 H 0.94575 0.82495 0.22313 0.0
H251 H 0.98507 0.85522 0.16517 0.0
H252 H 0.90017 0.8023 0.04138 0.0
H253 H 0.88345 0.75128 0.07595 0.0
H254 H 0.89171 0.78763 0.9988 0.0
H255 H 0.87521 0.73748 0.03277 0.0
H256 H 0.8651 0.77805 0.14 0.0
H257 H 0.90692 0.8266 0.17268 0.0
H258 H 0.84342 0.78056 0.16812 0.0
H259 H 0.88448 0.82839 0.19998 0.0
H260 H 0.88327 0.72661 0.17308 0.0
H261 H 0.84164 0.7236 0.12398 0.0
H262 H 0.89465 0.8432 0.03497 0.0
H263 H 0.8496 0.81576 0.08579 0.0
Li264 Li 0.09683 0.19723 0.39602 0.0
Li265 Li 0.12321 0.22362 0.37939 0.0
Li266 Li 0.1171 0.19463 0.36583 0.0
Li267 Li 0.12659 0.20539 0.40994 0.0
C268 C 0.09126 0.21187 0.35173 0.0
N269 N 0.06973 0.22515 0.3361 0.0
C270 C 0.08981 0.22443 0.3668 0.0
C271 C 0.08179 0.2061 0.32871 0.0
C272 C 0.07886 0.23098 0.35854 0.0
C273 C 0.07095 0.21295 0.32116 0.0
C274 C 0.11798 0.22406 0.44002 0.0
C275 C 0.13957 0.24011 0.47318 0.0
N276 N 0.12628 0.23375 0.49089 0.0
C277 C 0.10452 0.21787 0.45851 0.0
C278 C 0.13562 0.23546 0.44736 0.0
C279 C 0.10899 0.22286 0.48414 0.0
C280 C 0.07099 0.17663 0.43097 0.0
N281 N 0.07295 0.18565 0.40877 0.0
C282 C 0.04219 0.17743 0.40956 0.0
C283 C 0.05888 0.18592 0.39766 0.0
C284 C 0.03996 0.16833 0.43278 0.0
C285 C 0.05459 0.16785 0.44334 0.0
H286 H 0.08236 0.17656 0.43935 0.0
H287 H 0.06047 0.1927 0.37969 0.0
C288 C 0.13041 0.25028 0.34222 0.0
N289 N 0.13254 0.24752 0.36733 0.0
C290 C 0.13719 0.26753 0.3328 0.0
C291 C 0.14895 0.27885 0.37498 0.0
C292 C 0.1415 0.26137 0.38373 0.0
C293 C 0.14675 0.28221 0.34919 0.0
H294 H 0.1234 0.23904 0.32946 0.0
H295 H 0.14315 0.25886 0.40353 0.0
C296 C 0.09483 0.16444 0.39386 0.0
N297 N 0.06949 0.12941 0.38447 0.0
C298 C 0.09418 0.15086 0.40904 0.0
C299 C 0.08259 0.16022 0.37389 0.0
C300 C 0.08127 0.13323 0.40399 0.0
C301 C 0.06988 0.14243 0.36946 0.0
C302 C 0.15371 0.22826 0.36471 0.0
C303 C 0.15403 0.22789 0.3379 0.0
C304 C 0.16691 0.24303 0.37784 0.0
C305 C 0.16749 0.24236 0.32466 0.0
C306 C 0.18015 0.25725 0.3639 0.0
N307 N 0.18016 0.25662 0.33782 0.0
C308 C 0.11589 0.1824 0.31465 0.0
C309 C 0.12501 0.16937 0.34693 0.0
C310 C 0.11915 0.17306 0.29558 0.0
N311 N 0.11916 0.1806 0.33966 0.0
C312 C 0.12819 0.15959 0.32858 0.0
C313 C 0.12557 0.16163 0.3025 0.0
H314 H 0.11129 0.1915 0.30948 0.0
H315 H 0.12761 0.16835 0.36698 0.0
C316 C 0.12829 0.19094 0.45673 0.0
N317 N 0.13869 0.2028 0.43853 0.0
C318 C 0.13599 0.18706 0.47739 0.0
C319 C 0.16502 0.20821 0.46073 0.0
C320 C 0.15673 0.2115 0.44017 0.0
C321 C 0.15463 0.19557 0.47947 0.0
H322 H 0.11396 0.18413 0.45476 0.0
H323 H 0.16468 0.22075 0.42532 0.0
O324 O 0.10213 0.20543 0.35902 0.0
O325 O 0.11385 0.21917 0.41485 0.0
O326 O 0.10737 0.18176 0.39872 0.0
O327 O 0.14031 0.21442 0.37796 0.0
H328 H 0.09699 0.22907 0.38467 0.0
H329 H 0.08282 0.19643 0.31681 0.0
H330 H 0.07761 0.2407 0.37 0.0
H331 H 0.06354 0.20859 0.3034 0.0
H332 H 0.1532 0.24873 0.47915 0.0
H333 H 0.09075 0.20946 0.45315 0.0
H334 H 0.14623 0.24034 0.43338 0.0
H335 H 0.09871 0.2181 0.49864 0.0
H336 H 0.03115 0.1779 0.40066 0.0
H337 H 0.05349 0.16115 0.46135 0.0
H338 H 0.1348 0.26925 0.31291 0.0
H339 H 0.15656 0.28957 0.38833 0.0
H340 H 0.10356 0.15393 0.42459 0.0
H341 H 0.08285 0.17054 0.36196 0.0
H342 H 0.0806 0.12258 0.41559 0.0
H343 H 0.06032 0.13897 0.35409 0.0
H344 H 0.14387 0.21667 0.3274 0.0
H345 H 0.16678 0.2437 0.39854 0.0
H346 H 0.16783 0.24228 0.30391 0.0
H347 H 0.19035 0.26882 0.37381 0.0
H348 H 0.11692 0.17491 0.27564 0.0
H349 H 0.13333 0.15109 0.33465 0.0
H350 H 0.12738 0.17698 0.49098 0.0
H351 H 0.17941 0.21527 0.46166 0.0
Li352 Li 0.8012 0.91456 0.36702 0.0
Li353 Li 0.79257 0.91667 0.41285 0.0
Li354 Li 0.79786 0.89376 0.39964 0.0
Li355 Li 0.77101 0.89184 0.38534 0.0
C356 C 0.82988 0.91988 0.40787 0.0
N357 N 0.85904 0.91852 0.42615 0.0
C358 C 0.83272 0.92 0.43428 0.0
C359 C 0.84192 0.91923 0.39072 0.0
C360 C 0.84753 0.91925 0.44315 0.0
C361 C 0.85658 0.91853 0.40036 0.0
C362 C 0.7765 0.93 0.37382 0.0
C363 C 0.75414 0.93852 0.36851 0.0
N364 N 0.76687 0.95481 0.36012 0.0
C365 C 0.78934 0.9468 0.365 0.0
C366 C 0.75873 0.92578 0.37546 0.0
C367 C 0.78422 0.95917 0.35823 0.0
C368 C 0.8031 0.92376 0.3152 0.0
N369 N 0.81238 0.92827 0.33756 0.0
C370 C 0.83513 0.95544 0.31939 0.0
C371 C 0.8283 0.94352 0.33989 0.0
C372 C 0.82546 0.95158 0.29634 0.0
C373 C 0.80948 0.93524 0.29417 0.0
H374 H 0.79038 0.9116 0.31409 0.0
H375 H 0.83518 0.94688 0.35812 0.0
C376 C 0.79395 0.92843 0.46419 0.0
N377 N 0.79611 0.93342 0.4391 0.0
C378 C 0.79796 0.941 0.48357 0.0
C379 C 0.80652 0.96364 0.45095 0.0
C380 C 0.8023 0.95063 0.43225 0.0
C381 C 0.80451 0.95893 0.47705 0.0
H382 H 0.78954 0.91476 0.46923 0.0
H383 H 0.80459 0.9544 0.4123 0.0
C384 C 0.78611 0.87226 0.35773 0.0
N385 N 0.78252 0.83971 0.34521 0.0
C386 C 0.77444 0.85706 0.37159 0.0
C387 C 0.79588 0.87092 0.3374 0.0
C388 C 0.77284 0.84072 0.365 0.0
C389 C 0.79389 0.85433 0.33139 0.0
C390 C 0.76418 0.88813 0.43746 0.0
C391 C 0.75787 0.87461 0.45589 0.0
C392 C 0.75628 0.89869 0.43521 0.0
C393 C 0.74372 0.87187 0.4717 0.0
C394 C 0.74217 0.89554 0.45138 0.0
N395 N 0.73622 0.8823 0.46913 0.0
C396 C 0.80389 0.8749 0.43728 0.0
C397 C 0.81754 0.87489 0.39791 0.0
C398 C 0.81038 0.86486 0.44893 0.0
N399 N 0.80746 0.87963 0.41222 0.0
C400 C 0.82426 0.86471 0.40879 0.0
C401 C 0.82063 0.85951 0.43466 0.0
H402 H 0.79625 0.87924 0.44839 0.0
H403 H 0.82055 0.87916 0.37816 0.0
C404 C 0.74167 0.88134 0.35309 0.0
N405 N 0.74684 0.87739 0.37559 0.0
C406 C 0.72405 0.87128 0.34485 0.0
C407 C 0.71749 0.85312 0.38293 0.0
C408 C 0.73526 0.86343 0.39031 0.0
C409 C 0.7117 0.85706 0.35998 0.0
H410 H 0.75125 0.8924 0.34164 0.0
H411 H 0.7398 0.86019 0.40769 0.0
O412 O 0.81521 0.92011 0.39884 0.0
O413 O 0.78119 0.91754 0.37998 0.0
O414 O 0.78803 0.88839 0.36407 0.0
O415 O 0.77793 0.89077 0.42171 0.0
H416 H 0.82346 0.92043 0.44777 0.0
H417 H 0.83983 0.91904 0.37022 0.0
H418 H 0.84983 0.91919 0.46354 0.0
H419 H 0.86596 0.9179 0.38734 0.0
H420 H 0.74044 0.93543 0.36974 0.0
H421 H 0.80315 0.95035 0.36366 0.0
H422 H 0.74854 0.9128 0.38197 0.0
H423 H 0.79405 0.97225 0.35149 0.0
H424 H 0.84735 0.96796 0.32208 0.0
H425 H 0.80172 0.93159 0.27666 0.0
H426 H 0.79619 0.93677 0.50343 0.0
H427 H 0.81197 0.97735 0.44502 0.0
H428 H 0.76688 0.85792 0.38749 0.0
H429 H 0.80497 0.88261 0.32652 0.0
H430 H 0.76394 0.82885 0.37565 0.0
H431 H 0.80141 0.85309 0.31577 0.0
H432 H 0.76376 0.86624 0.45783 0.0
H433 H 0.76109 0.90932 0.42137 0.0
H434 H 0.73867 0.86143 0.48598 0.0
H435 H 0.73597 0.90366 0.44985 0.0
H436 H 0.80767 0.86164 0.46911 0.0
H437 H 0.83213 0.86091 0.39709 0.0
H438 H 0.72007 0.87477 0.32707 0.0
H439 H 0.70842 0.84206 0.39488 0.0
Li440 Li 0.10676 0.88127 0.38911 0.0
Li441 Li 0.1053 0.90854 0.4 0.0
Li442 Li 0.08432 0.88015 0.41758 0.0
Li443 Li 0.08226 0.88559 0.37294 0.0
C444 C 0.11137 0.89076 0.44825 0.0
N445 N 0.11136 0.88483 0.50036 0.0
C446 C 0.11299 0.90367 0.46579 0.0
C447 C 0.10991 0.87491 0.4572 0.0
C448 C 0.11292 0.90041 0.49206 0.0
C449 C 0.10989 0.87214 0.48362 0.0
C450 C 0.11086 0.91249 0.34662 0.0
C451 C 0.10578 0.93543 0.32965 0.0
N452 N 0.1159 0.93691 0.30884 0.0
C453 C 0.1212 0.91423 0.32509 0.0
C454 C 0.10308 0.92316 0.34896 0.0
C455 C 0.1236 0.92666 0.30619 0.0
C456 C 0.1192 0.86389 0.35748 0.0
N457 N 0.12177 0.87217 0.3805 0.0
C458 C 0.14471 0.86578 0.3914 0.0
C459 C 0.13432 0.87342 0.39732 0.0
C460 C 0.14224 0.85697 0.36784 0.0
C461 C 0.1294 0.8562 0.35066 0.0
H462 H 0.10903 0.86306 0.3446 0.0
H463 H 0.13612 0.88021 0.41542 0.0
C464 C 0.11138 0.93937 0.42449 0.0
N465 N 0.11891 0.93299 0.40793 0.0
C466 C 0.12136 0.95646 0.43452 0.0
C467 C 0.14645 0.96048 0.40917 0.0
C468 C 0.13598 0.94317 0.39978 0.0
C469 C 0.13928 0.96719 0.42729 0.0
H470 H 0.09786 0.9308 0.43095 0.0
H471 H 0.14162 0.93764 0.38669 0.0
C472 C 0.07245 0.84639 0.39267 0.0
N473 N 0.05506 0.81004 0.40075 0.0
C474 C 0.05442 0.83587 0.3865 0.0
C475 C 0.08169 0.83834 0.40256 0.0
C476 C 0.04585 0.81754 0.39085 0.0
C477 C 0.07265 0.81997 0.4066 0.0
C478 C 0.06211 0.89445 0.40426 0.0
C479 C 0.04826 0.87679 0.4044 0.0
C480 C 0.05821 0.90822 0.40558 0.0
C481 C 0.03069 0.87317 0.40587 0.0
C482 C 0.04046 0.90407 0.40701 0.0
N483 N 0.02718 0.88677 0.40712 0.0
C484 C 0.06786 0.88153 0.46259 0.0
C485 C 0.06411 0.85287 0.4557 0.0
C486 C 0.05725 0.87561 0.48449 0.0
N487 N 0.07076 0.87009 0.44835 0.0
C488 C 0.05342 0.84638 0.47754 0.0
C489 C 0.04959 0.85773 0.49197 0.0
H490 H 0.07354 0.89523 0.45659 0.0
H491 H 0.0669 0.84408 0.44465 0.0
C492 C 0.06209 0.86497 0.33189 0.0
N493 N 0.0663 0.88011 0.34497 0.0
C494 C 0.04887 0.8586 0.31313 0.0
C495 C 0.04511 0.88401 0.3207 0.0
C496 C 0.0584 0.88986 0.33944 0.0
C497 C 0.03994 0.86797 0.30768 0.0
H498 H 0.06871 0.85756 0.33656 0.0
H499 H 0.06202 0.9019 0.35007 0.0
O500 O 0.11088 0.8935 0.42247 0.0
O501 O 0.10835 0.90029 0.36517 0.0
O502 O 0.08113 0.86433 0.38813 0.0
O503 O 0.07943 0.89836 0.40255 0.0
H504 H 0.11413 0.91601 0.45924 0.0
H505 H 0.10859 0.86475 0.44393 0.0
H506 H 0.11406 0.91024 0.50585 0.0
H507 H 0.10863 0.85987 0.49081 0.0
H508 H 0.09983 0.94376 0.3312 0.0
H509 H 0.12729 0.90603 0.323 0.0
H510 H 0.09501 0.92199 0.36545 0.0
H511 H 0.13157 0.92815 0.28941 0.0
H512 H 0.15461 0.86679 0.40502 0.0
H513 H 0.12699 0.84937 0.33243 0.0
H514 H 0.11531 0.96081 0.44882 0.0
H515 H 0.16012 0.96832 0.40282 0.0
H516 H 0.0471 0.84175 0.3783 0.0
H517 H 0.09564 0.84616 0.40726 0.0
H518 H 0.03189 0.80927 0.38626 0.0
H519 H 0.07962 0.8136 0.4144 0.0
H520 H 0.05106 0.86602 0.4035 0.0
H521 H 0.06879 0.92197 0.40536 0.0
H522 H 0.01985 0.85955 0.40602 0.0
H523 H 0.03724 0.91459 0.408 0.0
H524 H 0.05454 0.88482 0.49486 0.0
H525 H 0.04805 0.83257 0.48289 0.0
H526 H 0.04551 0.84635 0.30321 0.0
H527 H 0.03851 0.8916 0.31713 0.0
Li528 Li 0.80221 0.91158 0.8866 0.0
Li529 Li 0.79815 0.88456 0.90728 0.0
Li530 Li 0.80607 0.89051 0.86184 0.0
Li531 Li 0.77641 0.88275 0.87699 0.0
C532 C 0.83657 0.9071 0.88634 0.0
N533 N 0.86945 0.91171 0.87315 0.0
C534 C 0.84318 0.89736 0.89888 0.0
C535 C 0.84673 0.91926 0.86721 0.0
C536 C 0.85983 0.89988 0.89192 0.0
C537 C 0.8633 0.92136 0.86077 0.0
C538 C 0.77976 0.89431 0.93577 0.0
C539 C 0.76536 0.87708 0.97362 0.0
N540 N 0.77472 0.89187 0.98831 0.0
C541 C 0.78922 0.90935 0.95124 0.0
C542 C 0.76769 0.87805 0.94702 0.0
C543 C 0.78648 0.90784 0.97776 0.0
C544 C 0.79736 0.94047 0.89827 0.0
N545 N 0.80989 0.93588 0.89301 0.0
C546 C 0.83321 0.96487 0.90461 0.0
C547 C 0.82754 0.94775 0.89543 0.0
C548 C 0.82055 0.96968 0.91163 0.0
C549 C 0.80243 0.95742 0.90763 0.0
H550 H 0.7834 0.93064 0.89653 0.0
H551 H 0.83718 0.94364 0.89158 0.0
C552 C 0.79772 0.85766 0.93798 0.0
N553 N 0.80269 0.87519 0.93739 0.0
C554 C 0.80325 0.85094 0.95808 0.0
C555 C 0.81826 0.88029 0.97713 0.0
C556 C 0.81259 0.88648 0.95651 0.0
C557 C 0.81398 0.86241 0.97766 0.0
H558 H 0.79017 0.84907 0.92227 0.0
H559 H 0.8168 0.90047 0.95512 0.0
C560 C 0.79156 0.91583 0.84205 0.0
N561 N 0.79118 0.9454 0.82329 0.0
C562 C 0.77591 0.91669 0.84291 0.0
C563 C 0.80699 0.92994 0.83154 0.0
C564 C 0.776 0.93177 0.83333 0.0
C565 C 0.80653 0.9448 0.8222 0.0
C566 C 0.775 0.85206 0.86964 0.0
C567 C 0.77511 0.84697 0.84422 0.0
C568 C 0.761 0.84087 0.88586 0.0
C569 C 0.7611 0.8308 0.83539 0.0
C570 C 0.74722 0.82483 0.87628 0.0
N571 N 0.74755 0.82017 0.85146 0.0
C572 C 0.82551 0.87589 0.8407 0.0
C573 C 0.81907 0.89267 0.81109 0.0
C574 C 0.83357 0.87119 0.82148 0.0
N575 N 0.81849 0.88643 0.8352 0.0
C576 C 0.82679 0.88808 0.79116 0.0
C577 C 0.83403 0.87709 0.79627 0.0
H578 H 0.82441 0.87073 0.85992 0.0
H579 H 0.81311 0.90078 0.80721 0.0
C580 C 0.73929 0.86816 0.88507 0.0
N581 N 0.75201 0.87069 0.86767 0.0
C582 C 0.72136 0.85912 0.87802 0.0
C583 C 0.73003 0.85558 0.83529 0.0
C584 C 0.74778 0.86485 0.84308 0.0
C585 C 0.71657 0.85262 0.85288 0.0
H586 H 0.74306 0.87317 0.90439 0.0
H587 H 0.75823 0.86739 0.82955 0.0
O588 O 0.82017 0.90465 0.8926 0.0
O589 O 0.7824 0.89546 0.90979 0.0
O590 O 0.79185 0.90136 0.85182 0.0
O591 O 0.78839 0.868 0.87852 0.0
H592 H 0.83549 0.88784 0.91364 0.0
H593 H 0.84176 0.9268 0.85718 0.0
H594 H 0.86507 0.89238 0.90138 0.0
H595 H 0.87124 0.93063 0.84588 0.0
H596 H 0.75613 0.86456 0.98258 0.0
H597 H 0.79874 0.92201 0.94295 0.0
H598 H 0.76035 0.86626 0.93537 0.0
H599 H 0.79376 0.91935 0.98997 0.0
H600 H 0.84728 0.97381 0.90778 0.0
H601 H 0.79227 0.96064 0.91271 0.0
H602 H 0.7997 0.83707 0.95786 0.0
H603 H 0.82677 0.88959 0.99165 0.0
H604 H 0.76388 0.90592 0.8511 0.0
H605 H 0.81921 0.92949 0.83083 0.0
H606 H 0.76401 0.93267 0.83396 0.0
H607 H 0.8184 0.95586 0.81413 0.0
H608 H 0.78578 0.85548 0.83134 0.0
H609 H 0.76067 0.84463 0.90556 0.0
H610 H 0.76097 0.82673 0.81572 0.0
H611 H 0.73623 0.81611 0.88857 0.0
H612 H 0.83871 0.86243 0.82607 0.0
H613 H 0.82689 0.89286 0.77192 0.0
H614 H 0.71135 0.85705 0.89214 0.0
H615 H 0.72688 0.85102 0.81562 0.0
Li616 Li 0.08715 0.88793 0.88868 0.0
Li617 Li 0.11189 0.91204 0.91216 0.0
Li618 Li 0.10786 0.9143 0.86605 0.0
Li619 Li 0.11748 0.89397 0.88257 0.0
C620 C 0.08724 0.92469 0.88861 0.0
N621 N 0.07917 0.95064 0.87508 0.0
C622 C 0.09466 0.94071 0.90222 0.0
C623 C 0.07562 0.92182 0.86824 0.0
C624 C 0.09043 0.95367 0.89506 0.0
C625 C 0.07174 0.93513 0.86165 0.0
C626 C 0.10353 0.88363 0.93979 0.0
C627 C 0.11978 0.88652 0.97875 0.0
N628 N 0.10435 0.87967 0.99231 0.0
C629 C 0.08782 0.87661 0.9541 0.0
C630 C 0.11964 0.88859 0.95218 0.0
C631 C 0.08852 0.87471 0.98064 0.0
C632 C 0.06072 0.853 0.89933 0.0
N633 N 0.06334 0.86935 0.89315 0.0
C634 C 0.03331 0.86046 0.90397 0.0
C635 C 0.04994 0.87313 0.89452 0.0
C636 C 0.03064 0.84393 0.91242 0.0
C637 C 0.04436 0.83999 0.90909 0.0
H638 H 0.07175 0.85051 0.89849 0.0
H639 H 0.05251 0.88635 0.88999 0.0
C640 C 0.13552 0.93885 0.94604 0.0
N641 N 0.11856 0.92524 0.94322 0.0
C642 C 0.14021 0.95001 0.9674 0.0
C643 C 0.11003 0.93256 0.98295 0.0
C644 C 0.10588 0.92188 0.96113 0.0
C645 C 0.12732 0.94711 0.98608 0.0
H646 H 0.14523 0.94147 0.93122 0.0
H647 H 0.09238 0.91123 0.95806 0.0
C648 C 0.08647 0.87457 0.84411 0.0
N649 N 0.05934 0.84383 0.82266 0.0
C650 C 0.08696 0.85873 0.84529 0.0
C651 C 0.07226 0.87482 0.8319 0.0
C652 C 0.0731 0.84332 0.83434 0.0
C653 C 0.05864 0.85912 0.82121 0.0
C654 C 0.14697 0.92525 0.87824 0.0
C655 C 0.15314 0.93169 0.85356 0.0
C656 C 0.15817 0.92338 0.89569 0.0
C657 C 0.1704 0.93602 0.84667 0.0
C658 C 0.17533 0.92782 0.88804 0.0
N659 N 0.18104 0.93399 0.86389 0.0
C660 C 0.11991 0.9485 0.84708 0.0
C661 C 0.10693 0.92615 0.81514 0.0
C662 C 0.1237 0.96174 0.82898 0.0
N663 N 0.11159 0.93112 0.83995 0.0
C664 C 0.11075 0.93902 0.79625 0.0
C665 C 0.11936 0.95715 0.80303 0.0
H666 H 0.12374 0.95207 0.8669 0.0
H667 H 0.10058 0.91223 0.80996 0.0
C668 C 0.13104 0.87108 0.89282 0.0
N669 N 0.13127 0.88298 0.87568 0.0
C670 C 0.14006 0.86189 0.88751 0.0
C671 C 0.14951 0.87751 0.84705 0.0
C672 C 0.14014 0.88624 0.85304 0.0
C673 C 0.14941 0.86498 0.86429 0.0
H674 H 0.12346 0.86835 0.91035 0.0
H675 H 0.13971 0.89544 0.83946 0.0
O676 O 0.09142 0.91194 0.89508 0.0
O677 O 0.10318 0.88581 0.91382 0.0
O678 O 0.09971 0.8897 0.85519 0.0
O679 O 0.13005 0.92074 0.88528 0.0
H680 H 0.10372 0.9432 0.91798 0.0
H681 H 0.06983 0.90955 0.85742 0.0
H682 H 0.09613 0.96616 0.90535 0.0
H683 H 0.06287 0.93313 0.84581 0.0
H684 H 0.13216 0.89037 0.98859 0.0
H685 H 0.07526 0.87289 0.94494 0.0
H686 H 0.13191 0.8941 0.94141 0.0
H687 H 0.07648 0.86936 0.99196 0.0
H688 H 0.02315 0.8641 0.90658 0.0
H689 H 0.04278 0.82739 0.91539 0.0
H690 H 0.1536 0.96126 0.96859 0.0
H691 H 0.09969 0.92968 0.9969 0.0
H692 H 0.09783 0.8583 0.85476 0.0
H693 H 0.07168 0.88697 0.83086 0.0
H694 H 0.07325 0.83094 0.83521 0.0
H695 H 0.04751 0.85909 0.81181 0.0
H696 H 0.14465 0.93319 0.83979 0.0
H697 H 0.15361 0.91844 0.91486 0.0
H698 H 0.17533 0.94095 0.8276 0.0
H699 H 0.1841 0.92635 0.90129 0.0
H700 H 0.13004 0.97545 0.83532 0.0
H701 H 0.10742 0.93481 0.77649 0.0
H702 H 0.13924 0.8521 0.90113 0.0
H703 H 0.15665 0.88049 0.82904 0.0
Li704 Li 0.08091 0.19871 0.9109 0.0
Li705 Li 0.10543 0.19502 0.89463 0.0
Li706 Li 0.10245 0.21944 0.87967 0.0
Li707 Li 0.08111 0.18847 0.86758 0.0
C708 C 0.10967 0.22882 0.93079 0.0
N709 N 0.11538 0.25695 0.96196 0.0
C710 C 0.12331 0.23543 0.94901 0.0
C711 C 0.09894 0.23654 0.92838 0.0
C712 C 0.12598 0.24965 0.9646 0.0
C713 C 0.10204 0.25075 0.94433 0.0
C714 C 0.06724 0.15929 0.89761 0.0
C715 C 0.05582 0.13032 0.87828 0.0
N716 N 0.04021 0.12451 0.89106 0.0
C717 C 0.05117 0.15294 0.91082 0.0
C718 C 0.06967 0.14781 0.88146 0.0
C719 C 0.03764 0.13535 0.90715 0.0
C720 C 0.04971 0.19363 0.93383 0.0
N721 N 0.06613 0.19617 0.93912 0.0
C722 C 0.05947 0.19185 0.98391 0.0
C723 C 0.07131 0.19559 0.96355 0.0
C724 C 0.04217 0.18862 0.97895 0.0
C725 C 0.03746 0.18983 0.95352 0.0
H726 H 0.04587 0.19379 0.91414 0.0
H727 H 0.08446 0.19756 0.9671 0.0
C728 C 0.13926 0.20293 0.91088 0.0
N729 N 0.12274 0.18923 0.90541 0.0
C730 C 0.15193 0.19963 0.92209 0.0
C731 C 0.13046 0.16814 0.92112 0.0
C732 C 0.11822 0.17206 0.90986 0.0
C733 C 0.14744 0.18207 0.92795 0.0
H734 H 0.14238 0.21647 0.9073 0.0
H735 H 0.10489 0.16146 0.90569 0.0
C736 C 0.06955 0.21292 0.85886 0.0
N737 N 0.05645 0.22346 0.81825 0.0
C738 C 0.07655 0.21446 0.8342 0.0
C739 C 0.05591 0.21679 0.86284 0.0
C740 C 0.06973 0.21978 0.81393 0.0
C741 C 0.04948 0.22211 0.84208 0.0
C742 C 0.11959 0.19969 0.84953 0.0
C743 C 0.13728 0.21348 0.84844 0.0
C744 C 0.11532 0.18256 0.84192 0.0
C745 C 0.15045 0.20981 0.8403 0.0
C746 C 0.12887 0.17942 0.83389 0.0
N747 N 0.14601 0.19299 0.8333 0.0
C748 C 0.13367 0.25194 0.87768 0.0
C749 C 0.10954 0.25356 0.85933 0.0
C750 C 0.14528 0.26984 0.87219 0.0
N751 N 0.11624 0.24408 0.87082 0.0
C752 C 0.12071 0.27148 0.85329 0.0
C753 C 0.13886 0.27978 0.85957 0.0
H754 H 0.13855 0.24425 0.88749 0.0
H755 H 0.09556 0.24742 0.85499 0.0
C756 C 0.04737 0.16567 0.84788 0.0
N757 N 0.06489 0.17392 0.8416 0.0
C758 C 0.03439 0.15631 0.82942 0.0
C759 C 0.05769 0.16451 0.79798 0.0
C760 C 0.07027 0.17339 0.81729 0.0
C761 C 0.03941 0.15601 0.80385 0.0
H762 H 0.04344 0.16683 0.86714 0.0
H763 H 0.08429 0.18055 0.81262 0.0
O764 O 0.10705 0.21499 0.9153 0.0
O765 O 0.08061 0.17653 0.90082 0.0
O766 O 0.07565 0.20726 0.87893 0.0
O767 O 0.10654 0.20291 0.85805 0.0
H768 H 0.13176 0.22962 0.95104 0.0
H769 H 0.08836 0.23168 0.91434 0.0
H770 H 0.1365 0.2549 0.97879 0.0
H771 H 0.09384 0.25685 0.94267 0.0
H772 H 0.05748 0.12136 0.86568 0.0
H773 H 0.04909 0.16147 0.92371 0.0
H774 H 0.08207 0.15234 0.87142 0.0
H775 H 0.0251 0.13032 0.91713 0.0
H776 H 0.06371 0.19119 0.00324 0.0
H777 H 0.02418 0.18707 0.94869 0.0
H778 H 0.16491 0.21074 0.9268 0.0
H779 H 0.12632 0.15444 0.92566 0.0
H780 H 0.0872 0.21169 0.83071 0.0
H781 H 0.05036 0.21573 0.88178 0.0
H782 H 0.07502 0.221 0.79477 0.0
H783 H 0.03893 0.22514 0.8449 0.0
H784 H 0.14084 0.22685 0.85389 0.0
H785 H 0.1017 0.17182 0.84218 0.0
H786 H 0.16421 0.22034 0.83955 0.0
H787 H 0.12574 0.1662 0.82811 0.0
H788 H 0.15918 0.27575 0.8774 0.0
H789 H 0.11516 0.27881 0.8441 0.0
H790 H 0.02055 0.14973 0.83511 0.0
H791 H 0.06227 0.165 0.77852 0.0
Li792 Li 0.88032 0.77539 0.62592 0.0
Li793 Li 0.88914 0.80598 0.63876 0.0
Li794 Li 0.88087 0.79662 0.59463 0.0
Li795 Li 0.90835 0.8002 0.61348 0.0
C796 C 0.84864 0.77504 0.61935 0.0
N797 N 0.81391 0.75035 0.60699 0.0
C798 C 0.83462 0.77392 0.63394 0.0
C799 C 0.84502 0.76362 0.59845 0.0
C800 C 0.81714 0.76135 0.62739 0.0
C801 C 0.82737 0.75122 0.59253 0.0
C802 C 0.91423 0.79076 0.65831 0.0
C803 C 0.94323 0.80473 0.67812 0.0
N804 N 0.94344 0.78922 0.67597 0.0
C805 C 0.91467 0.77492 0.65646 0.0
C806 C 0.92855 0.80576 0.66938 0.0
C807 C 0.92959 0.77443 0.66544 0.0
C808 C 0.86347 0.73817 0.61911 0.0
N809 N 0.86793 0.75137 0.63653 0.0
C810 C 0.85478 0.73025 0.67047 0.0
C811 C 0.86376 0.74781 0.66177 0.0
C812 C 0.85009 0.71627 0.65296 0.0
C813 C 0.85449 0.72041 0.62694 0.0
H814 H 0.86685 0.74143 0.59913 0.0
H815 H 0.86753 0.75866 0.67515 0.0
C816 C 0.87786 0.82881 0.65704 0.0
N817 N 0.88615 0.81977 0.6644 0.0
C818 C 0.87424 0.83851 0.67491 0.0
C819 C 0.8873 0.82903 0.70787 0.0
C820 C 0.89102 0.81977 0.68918 0.0
C821 C 0.87862 0.83845 0.70088 0.0
H822 H 0.87388 0.82832 0.63726 0.0
H823 H 0.89735 0.81222 0.69452 0.0
C824 C 0.89763 0.78152 0.56695 0.0
N825 N 0.91237 0.78413 0.51897 0.0
C826 C 0.90854 0.79822 0.55584 0.0
C827 C 0.8943 0.76618 0.55363 0.0
C828 C 0.91586 0.79925 0.5316 0.0
C829 C 0.90182 0.76777 0.52938 0.0
C830 C 0.90762 0.83606 0.61219 0.0
C831 C 0.90119 0.8453 0.59796 0.0
C832 C 0.91992 0.84477 0.63186 0.0
C833 C 0.90694 0.86306 0.60396 0.0
C834 C 0.92532 0.86253 0.6373 0.0
N835 N 0.91876 0.87122 0.62337 0.0
C836 C 0.85876 0.80754 0.57471 0.0
C837 C 0.86908 0.7961 0.54178 0.0
C838 C 0.84931 0.81158 0.55697 0.0
N839 N 0.86855 0.80013 0.56691 0.0
C840 C 0.86007 0.80026 0.52325 0.0
C841 C 0.85009 0.80815 0.53086 0.0
H842 H 0.85854 0.81056 0.5948 0.0
H843 H 0.87649 0.78976 0.53594 0.0
C844 C 0.93565 0.79339 0.59987 0.0
N845 N 0.9322 0.80671 0.60506 0.0
C846 C 0.95168 0.79717 0.58839 0.0
C847 C 0.96062 0.82839 0.58884 0.0
C848 C 0.94441 0.82401 0.60036 0.0
C849 C 0.96417 0.81482 0.58195 0.0
H850 H 0.92552 0.77971 0.60325 0.0
H851 H 0.94116 0.83429 0.60402 0.0
O852 O 0.86581 0.7873 0.62561 0.0
O853 O 0.89987 0.79159 0.64926 0.0
O854 O 0.89089 0.7801 0.59117 0.0
O855 O 0.90196 0.81859 0.6068 0.0
H856 H 0.83722 0.7827 0.65015 0.0
H857 H 0.85569 0.76431 0.58689 0.0
H858 H 0.80614 0.76033 0.63851 0.0
H859 H 0.82437 0.7423 0.57642 0.0
H860 H 0.95444 0.81625 0.68662 0.0
H861 H 0.90373 0.7632 0.64788 0.0
H862 H 0.92834 0.81806 0.67119 0.0
H863 H 0.93017 0.76229 0.66398 0.0
H864 H 0.85183 0.72766 0.69073 0.0
H865 H 0.85089 0.71004 0.61275 0.0
H866 H 0.8679 0.84583 0.66838 0.0
H867 H 0.89069 0.82831 0.72766 0.0
H868 H 0.91136 0.81029 0.56571 0.0
H869 H 0.88607 0.75315 0.56198 0.0
H870 H 0.92432 0.81208 0.52282 0.0
H871 H 0.89933 0.75599 0.51888 0.0
H872 H 0.89187 0.83886 0.58242 0.0
H873 H 0.92508 0.83784 0.64298 0.0
H874 H 0.902 0.87035 0.59318 0.0
H875 H 0.93472 0.86938 0.65262 0.0
H876 H 0.84187 0.8178 0.56352 0.0
H877 H 0.86082 0.79731 0.50324 0.0
H878 H 0.95394 0.78631 0.58359 0.0
H879 H 0.96971 0.84214 0.58383 0.0
Li880 Li 0.21921 0.10383 0.62692 0.0
Li881 Li 0.18938 0.0823 0.64202 0.0
Li882 Li 0.19682 0.08487 0.5963 0.0
Li883 Li 0.19388 0.10801 0.61862 0.0
C884 C 0.21947 0.07364 0.63198 0.0
N885 N 0.24606 0.06716 0.648 0.0
C886 C 0.21963 0.06821 0.65719 0.0
C887 C 0.23274 0.07562 0.61486 0.0
C888 C 0.23321 0.06503 0.66493 0.0
C889 C 0.2461 0.07234 0.62335 0.0
C890 C 0.20503 0.12194 0.66342 0.0
C891 C 0.19076 0.13622 0.68448 0.0
N892 N 0.20635 0.15197 0.68375 0.0
C893 C 0.22094 0.13823 0.66294 0.0
C894 C 0.18983 0.12088 0.67434 0.0
C895 C 0.22133 0.15327 0.67331 0.0
C896 C 0.25619 0.12731 0.61941 0.0
N897 N 0.24366 0.1158 0.63604 0.0
C898 C 0.26564 0.12281 0.66848 0.0
C899 C 0.24799 0.11346 0.66022 0.0
C900 C 0.27892 0.13497 0.65186 0.0
C901 C 0.274 0.13707 0.62695 0.0
H902 H 0.25231 0.12928 0.60055 0.0
H903 H 0.23767 0.10454 0.67324 0.0
C904 C 0.16958 0.04797 0.66256 0.0
N905 N 0.17694 0.06551 0.66843 0.0
C906 C 0.16188 0.03509 0.68173 0.0
C907 C 0.16955 0.0586 0.71268 0.0
C908 C 0.17694 0.07103 0.69283 0.0
C909 C 0.1621 0.04038 0.70725 0.0
H910 H 0.17023 0.04402 0.64308 0.0
H911 H 0.18317 0.08509 0.69701 0.0
C912 C 0.21685 0.11385 0.56919 0.0
N913 N 0.22386 0.11845 0.51716 0.0
C914 C 0.20855 0.12074 0.55376 0.0
C915 C 0.22878 0.10937 0.55817 0.0
C916 C 0.21226 0.12296 0.52749 0.0
C917 C 0.23211 0.11176 0.53183 0.0
C918 C 0.15879 0.06969 0.61821 0.0
C919 C 0.15178 0.05346 0.60524 0.0
C920 C 0.1489 0.07176 0.6377 0.0
C921 C 0.13501 0.03949 0.61215 0.0
C922 C 0.1322 0.05746 0.64407 0.0
N923 N 0.12567 0.04176 0.63128 0.0
C924 C 0.19492 0.05821 0.56292 0.0
C925 C 0.1827 0.0753 0.54663 0.0
C926 C 0.18892 0.04711 0.54144 0.0
N927 N 0.19154 0.07183 0.5652 0.0
C928 C 0.17674 0.06475 0.52464 0.0
C929 C 0.17941 0.05012 0.52207 0.0
H930 H 0.20158 0.0555 0.5783 0.0
H931 H 0.17974 0.0859 0.5493 0.0
C932 C 0.20031 0.14227 0.6075 0.0
N933 N 0.18717 0.12543 0.61288 0.0
C934 C 0.19611 0.15457 0.59727 0.0
C935 C 0.16491 0.13235 0.60008 0.0
C936 C 0.16972 0.12042 0.61008 0.0
C937 C 0.17824 0.14944 0.5926 0.0
H938 H 0.21408 0.14574 0.60948 0.0
H939 H 0.15958 0.10685 0.61402 0.0
O940 O 0.20645 0.07708 0.62412 0.0
O941 O 0.20428 0.10715 0.65289 0.0
O942 O 0.21326 0.11139 0.59492 0.0
O943 O 0.17529 0.08344 0.61202 0.0
H944 H 0.20951 0.06666 0.67073 0.0
H945 H 0.23276 0.07973 0.59526 0.0
H946 H 0.23356 0.06092 0.68442 0.0
H947 H 0.2565 0.07391 0.61034 0.0
H948 H 0.17907 0.13563 0.69288 0.0
H949 H 0.23281 0.13931 0.65444 0.0
H950 H 0.1774 0.10837 0.67477 0.0
H951 H 0.23352 0.16599 0.67298 0.0
H952 H 0.26879 0.12061 0.68776 0.0
H953 H 0.28369 0.14654 0.61365 0.0
H954 H 0.15654 0.02121 0.67681 0.0
H955 H 0.16994 0.06319 0.73213 0.0
H956 H 0.19914 0.12411 0.56185 0.0
H957 H 0.23529 0.104 0.56981 0.0
H958 H 0.20587 0.1282 0.51531 0.0
H959 H 0.24125 0.10828 0.52303 0.0
H960 H 0.15925 0.05159 0.59015 0.0
H961 H 0.15416 0.0842 0.648 0.0
H962 H 0.12946 0.02683 0.60235 0.0
H963 H 0.12446 0.05883 0.65923 0.0
H964 H 0.19099 0.03581 0.54068 0.0
H965 H 0.16969 0.06777 0.51015 0.0
H966 H 0.20675 0.16765 0.59181 0.0
H967 H 0.15099 0.12781 0.59646 0.0
Li968 Li 0.89759 0.11987 0.62221 0.0
Li969 Li 0.91956 0.11202 0.6364 0.0
Li970 Li 0.91782 0.11922 0.59143 0.0
Li971 Li 0.89492 0.09143 0.61043 0.0
C972 C 0.92633 0.15041 0.63129 0.0
N973 N 0.92952 0.18119 0.65194 0.0
C974 C 0.93099 0.1546 0.65707 0.0
C975 C 0.92342 0.16193 0.61595 0.0
C976 C 0.93253 0.17023 0.66716 0.0
C977 C 0.92505 0.1774 0.62677 0.0
C978 C 0.87975 0.08573 0.65531 0.0
C979 C 0.86613 0.05635 0.6738 0.0
N980 N 0.85011 0.05564 0.67363 0.0
C981 C 0.86318 0.08475 0.65539 0.0
C982 C 0.88128 0.07147 0.66467 0.0
C983 C 0.84835 0.06941 0.66472 0.0
C984 C 0.87522 0.13498 0.61631 0.0
N985 N 0.88485 0.13123 0.63313 0.0
C986 C 0.87629 0.14325 0.66792 0.0
C987 C 0.88548 0.13508 0.65851 0.0
C988 C 0.86617 0.14731 0.65107 0.0
C989 C 0.86574 0.14309 0.62491 0.0
H990 H 0.87473 0.13151 0.5963 0.0
H991 H 0.89314 0.13177 0.67146 0.0
C992 C 0.95334 0.12548 0.65877 0.0
N993 N 0.9356 0.11519 0.66334 0.0
C994 C 0.96557 0.12936 0.67856 0.0
C995 C 0.94103 0.11227 0.7075 0.0
C996 C 0.92927 0.10847 0.68703 0.0
C997 C 0.95942 0.12295 0.70336 0.0
H998 H 0.95794 0.13109 0.6399 0.0
H999 H 0.91508 0.10061 0.6902 0.0
C1000 C 0.88985 0.10983 0.56276 0.0
N1001 N 0.88785 0.11346 0.51037 0.0
C1002 C 0.88457 0.09518 0.54658 0.0
C1003 C 0.89404 0.1263 0.55231 0.0
C1004 C 0.88365 0.09729 0.52014 0.0
C1005 C 0.89298 0.12788 0.52577 0.0
C1006 C 0.93379 0.09622 0.61051 0.0
C1007 C 0.95035 0.10651 0.59876 0.0
C1008 C 0.93148 0.08322 0.62839 0.0
C1009 C 0.96437 0.10368 0.60521 0.0
C1010 C 0.94584 0.08082 0.63436 0.0
N1011 N 0.96185 0.09102 0.62275 0.0
C1012 C 0.9434 0.14681 0.5597 0.0
C1013 C 0.93077 0.11756 0.54298 0.0
C1014 C 0.95526 0.15355 0.5391 0.0
N1015 N 0.93168 0.12908 0.56139 0.0
C1016 C 0.94232 0.12372 0.52205 0.0
C1017 C 0.95508 0.14188 0.52024 0.0
H1018 H 0.94407 0.1556 0.57489 0.0
H1019 H 0.92152 0.10347 0.5451 0.0
C1020 C 0.86124 0.06183 0.59917 0.0
N1021 N 0.87876 0.06724 0.60244 0.0
C1022 C 0.84965 0.04495 0.58928 0.0
C1023 C 0.87428 0.0394 0.58703 0.0
C1024 C 0.88537 0.05635 0.59701 0.0
C1025 C 0.85624 0.03366 0.58242 0.0
H1026 H 0.85644 0.07094 0.60312 0.0
H1027 H 0.89942 0.06115 0.59917 0.0
O1028 O 0.92437 0.13498 0.62119 0.0
O1029 O 0.89437 0.1005 0.64587 0.0
O1030 O 0.89112 0.10811 0.58866 0.0
O1031 O 0.91996 0.09894 0.60471 0.0
H1032 H 0.93322 0.14582 0.66926 0.0
H1033 H 0.91972 0.15883 0.596 0.0
H1034 H 0.93604 0.1736 0.68711 0.0
H1035 H 0.9227 0.18637 0.61518 0.0
H1036 H 0.8671 0.04517 0.68099 0.0
H1037 H 0.86174 0.09563 0.64809 0.0
H1038 H 0.89401 0.07201 0.6647 0.0
H1039 H 0.83542 0.06843 0.6648 0.0
H1040 H 0.87718 0.14643 0.68816 0.0
H1041 H 0.85787 0.14569 0.61131 0.0
H1042 H 0.97963 0.1379 0.67476 0.0
H1043 H 0.93583 0.10715 0.72643 0.0
H1044 H 0.8814 0.08235 0.55427 0.0
H1045 H 0.89827 0.13781 0.56452 0.0
H1046 H 0.87965 0.08609 0.50739 0.0
H1047 H 0.89628 0.14057 0.51741 0.0
H1048 H 0.95245 0.11671 0.58501 0.0
H1049 H 0.91878 0.0752 0.63775 0.0
H1050 H 0.97728 0.1116 0.59635 0.0
H1051 H 0.94426 0.07088 0.64827 0.0
H1052 H 0.96505 0.1676 0.53868 0.0
H1053 H 0.94161 0.11428 0.50784 0.0
H1054 H 0.83582 0.04102 0.58622 0.0
H1055 H 0.88004 0.03132 0.58159 0.0
Li1056 Li 0.86055 0.42272 0.44049 0.0
Li1057 Li 0.88789 0.45011 0.45185 0.0
Li1058 Li 0.85893 0.44545 0.46519 0.0
Li1059 Li 0.86842 0.45108 0.42018 0.0
C1060 C 0.86856 0.41698 0.48731 0.0
N1061 N 0.86475 0.38663 0.51046 0.0
C1062 C 0.88329 0.41467 0.49023 0.0
C1063 C 0.85192 0.40392 0.49632 0.0
C1064 C 0.88108 0.39922 0.50197 0.0
C1065 C 0.85026 0.38865 0.5079 0.0
C1066 C 0.88468 0.43863 0.39287 0.0
C1067 C 0.90049 0.4553 0.35532 0.0
N1068 N 0.88991 0.44099 0.34038 0.0
C1069 C 0.874 0.42407 0.37715 0.0
C1070 C 0.89808 0.45436 0.3819 0.0
C1071 C 0.87685 0.42554 0.35066 0.0
C1072 C 0.83347 0.38998 0.42264 0.0
N1073 N 0.84997 0.39804 0.43328 0.0
C1074 C 0.85225 0.37201 0.42659 0.0
C1075 C 0.85939 0.38945 0.43551 0.0
C1076 C 0.83548 0.36354 0.41458 0.0
C1077 C 0.82596 0.37271 0.41311 0.0
H1078 H 0.82651 0.3973 0.42031 0.0
H1079 H 0.87272 0.39635 0.44326 0.0
C1080 C 0.91477 0.46375 0.48876 0.0
N1081 N 0.9117 0.45978 0.46338 0.0
C1082 C 0.93202 0.47163 0.4985 0.0
C1083 C 0.9426 0.47072 0.45589 0.0
C1084 C 0.92511 0.46291 0.44695 0.0
C1085 C 0.94623 0.47531 0.48196 0.0
H1086 H 0.90377 0.46092 0.50139 0.0
H1087 H 0.92226 0.4595 0.4269 0.0
C1088 C 0.82887 0.43095 0.43885 0.0
N1089 N 0.79623 0.42778 0.44962 0.0
C1090 C 0.82405 0.44252 0.42749 0.0
C1091 C 0.81705 0.4177 0.45556 0.0
C1092 C 0.80749 0.44071 0.4332 0.0
C1093 C 0.80063 0.41634 0.46081 0.0
C1094 C 0.89284 0.4821 0.4596 0.0
C1095 C 0.89242 0.48686 0.48511 0.0
C1096 C 0.90802 0.49233 0.44474 0.0
C1097 C 0.90729 0.50174 0.4954 0.0
C1098 C 0.92263 0.50708 0.45575 0.0
N1099 N 0.92197 0.51143 0.48064 0.0
C1100 C 0.8463 0.44391 0.51555 0.0
C1101 C 0.84041 0.4614 0.48654 0.0
C1102 C 0.83908 0.44876 0.5358 0.0
N1103 N 0.84691 0.45034 0.49156 0.0
C1104 C 0.83276 0.46632 0.50611 0.0
C1105 C 0.83231 0.46019 0.53116 0.0
H1106 H 0.85192 0.43546 0.51911 0.0
H1107 H 0.84164 0.46681 0.46748 0.0
C1108 C 0.85272 0.44928 0.37297 0.0
N1109 N 0.86568 0.46083 0.38906 0.0
C1110 C 0.8484 0.45548 0.351 0.0
C1111 C 0.87147 0.48531 0.36187 0.0
C1112 C 0.87523 0.47852 0.38383 0.0
C1113 C 0.85759 0.47379 0.3454 0.0
H1114 H 0.84526 0.43529 0.3778 0.0
H1115 H 0.88542 0.48741 0.39702 0.0
O1116 O 0.87042 0.43196 0.47576 0.0
O1117 O 0.88184 0.4376 0.41879 0.0
O1118 O 0.8451 0.43262 0.43376 0.0
O1119 O 0.8786 0.46732 0.44937 0.0
H1120 H 0.89626 0.4246 0.4833 0.0
H1121 H 0.84041 0.40554 0.49428 0.0
H1122 H 0.89235 0.39721 0.50426 0.0
H1123 H 0.83744 0.37839 0.51485 0.0
H1124 H 0.91072 0.46743 0.34656 0.0
H1125 H 0.86354 0.41182 0.38527 0.0
H1126 H 0.90634 0.46581 0.39374 0.0
H1127 H 0.86864 0.4144 0.33826 0.0
H1128 H 0.86004 0.36547 0.42841 0.0
H1129 H 0.81323 0.36704 0.40346 0.0
H1130 H 0.9342 0.47471 0.51877 0.0
H1131 H 0.9532 0.47346 0.44247 0.0
H1132 H 0.83308 0.45296 0.41469 0.0
H1133 H 0.82056 0.40861 0.46446 0.0
H1134 H 0.80363 0.44963 0.42466 0.0
H1135 H 0.79138 0.40619 0.47379 0.0
H1136 H 0.88083 0.47907 0.49695 0.0
H1137 H 0.90864 0.48874 0.42504 0.0
H1138 H 0.90719 0.50552 0.51515 0.0
H1139 H 0.93453 0.51502 0.44454 0.0
H1140 H 0.839 0.44385 0.55494 0.0
H1141 H 0.82795 0.47542 0.50196 0.0
H1142 H 0.8374 0.4461 0.33924 0.0
H1143 H 0.8791 0.49947 0.35816 0.0
Li1144 Li 0.57409 0.44138 0.43457 0.0
Li1145 Li 0.54561 0.43773 0.44826 0.0
Li1146 Li 0.55422 0.41575 0.45972 0.0
Li1147 Li 0.54606 0.41852 0.4156 0.0
C1148 C 0.58004 0.45482 0.48141 0.0
N1149 N 0.6097 0.48353 0.50254 0.0
C1150 C 0.58051 0.47104 0.48471 0.0
C1151 C 0.59457 0.45316 0.48904 0.0
C1152 C 0.59565 0.4854 0.49541 0.0
C1153 C 0.60947 0.46784 0.49961 0.0
C1154 C 0.55489 0.44737 0.38883 0.0
C1155 C 0.53637 0.44435 0.35246 0.0
N1156 N 0.55098 0.45146 0.33706 0.0
C1157 C 0.56973 0.4547 0.37265 0.0
C1158 C 0.53808 0.44222 0.37869 0.0
C1159 C 0.56747 0.45665 0.34653 0.0
C1160 C 0.60776 0.45136 0.41513 0.0
N1161 N 0.59804 0.45794 0.42599 0.0
C1162 C 0.62096 0.48775 0.41718 0.0
C1163 C 0.6043 0.47575 0.42738 0.0
C1164 C 0.63106 0.48131 0.40491 0.0
C1165 C 0.62434 0.46282 0.40441 0.0
H1166 H 0.60225 0.43715 0.41355 0.0
H1167 H 0.59604 0.48061 0.43536 0.0
C1168 C 0.53019 0.44943 0.48558 0.0
N1169 N 0.53395 0.44991 0.46018 0.0
C1170 C 0.52171 0.4584 0.49478 0.0
C1171 C 0.52131 0.46828 0.45151 0.0
C1172 C 0.52976 0.45911 0.44316 0.0
C1173 C 0.51723 0.46805 0.47764 0.0
H1174 H 0.53388 0.44217 0.49869 0.0
H1175 H 0.53305 0.45939 0.42313 0.0
C1176 C 0.57047 0.40317 0.43049 0.0
N1177 N 0.57761 0.37586 0.43827 0.0
C1178 C 0.56037 0.38689 0.41793 0.0
C1179 C 0.58431 0.40563 0.44681 0.0
C1180 C 0.56417 0.37324 0.42216 0.0
C1181 C 0.58767 0.39163 0.45055 0.0
C1182 C 0.51563 0.40854 0.45747 0.0
C1183 C 0.51241 0.40384 0.48338 0.0
C1184 C 0.50334 0.41102 0.44336 0.0
C1185 C 0.49695 0.40182 0.49482 0.0
C1186 C 0.48806 0.40891 0.45553 0.0
N1187 N 0.48521 0.4044 0.48079 0.0
C1188 C 0.55888 0.40376 0.50854 0.0
C1189 C 0.54171 0.38129 0.47813 0.0
C1190 C 0.55569 0.39089 0.52715 0.0
N1191 N 0.55181 0.39873 0.48465 0.0
C1192 C 0.53849 0.36802 0.49593 0.0
C1193 C 0.54531 0.37278 0.52089 0.0
H1194 H 0.5666 0.41774 0.51331 0.0
H1195 H 0.53583 0.37771 0.45923 0.0
C1196 C 0.54587 0.40749 0.36463 0.0
N1197 N 0.53551 0.4051 0.38549 0.0
C1198 C 0.53887 0.39629 0.3434 0.0
C1199 C 0.51067 0.38044 0.36554 0.0
C1200 C 0.51817 0.39207 0.38621 0.0
C1201 C 0.52114 0.38225 0.3439 0.0
H1202 H 0.55975 0.41773 0.36485 0.0
H1203 H 0.51037 0.39023 0.40329 0.0
O1204 O 0.5654 0.44064 0.47083 0.0
O1205 O 0.55679 0.44519 0.41442 0.0
O1206 O 0.56682 0.41663 0.42689 0.0
O1207 O 0.53089 0.41099 0.44606 0.0
H1208 H 0.56939 0.47257 0.47886 0.0
H1209 H 0.59438 0.44068 0.48669 0.0
H1210 H 0.59624 0.49806 0.49796 0.0
H1211 H 0.62086 0.46677 0.50549 0.0
H1212 H 0.52342 0.44031 0.34433 0.0
H1213 H 0.58284 0.45876 0.3801 0.0
H1214 H 0.52643 0.43639 0.39088 0.0
H1215 H 0.57883 0.46225 0.33378 0.0
H1216 H 0.62561 0.50186 0.41822 0.0
H1217 H 0.63132 0.45712 0.39461 0.0
H1218 H 0.51901 0.45807 0.51512 0.0
H1219 H 0.51793 0.47539 0.43761 0.0
H1220 H 0.54959 0.38474 0.40527 0.0
H1221 H 0.59228 0.41816 0.4566 0.0
H1222 H 0.5564 0.36053 0.41268 0.0
H1223 H 0.59826 0.39331 0.46325 0.0
H1224 H 0.52182 0.40195 0.49461 0.0
H1225 H 0.50568 0.41473 0.42332 0.0
H1226 H 0.49431 0.39827 0.51489 0.0
H1227 H 0.47848 0.41091 0.4449 0.0
H1228 H 0.56108 0.39502 0.54629 0.0
H1229 H 0.53013 0.35419 0.49057 0.0
H1230 H 0.5474 0.39832 0.32707 0.0
H1231 H 0.49708 0.36962 0.3671 0.0
Li1232 Li 0.58135 0.12969 0.41943 0.0
Li1233 Li 0.58425 0.13808 0.46494 0.0
Li1234 Li 0.56306 0.1078 0.45091 0.0
Li1235 Li 0.5579 0.1324 0.44185 0.0
C1236 C 0.5932 0.1082 0.4565 0.0
N1237 N 0.5993 0.08178 0.47447 0.0
C1238 C 0.59777 0.10812 0.4822 0.0
C1239 C 0.59185 0.09493 0.43989 0.0
C1240 C 0.60079 0.09463 0.49092 0.0
C1241 C 0.59494 0.08166 0.44937 0.0
C1242 C 0.59513 0.16828 0.43914 0.0
C1243 C 0.60601 0.19554 0.46312 0.0
N1244 N 0.62139 0.20282 0.44939 0.0
C1245 C 0.611 0.17606 0.42514 0.0
C1246 C 0.59254 0.17811 0.45816 0.0
C1247 C 0.62413 0.19354 0.43065 0.0
C1248 C 0.59028 0.14152 0.36806 0.0
N1249 N 0.59458 0.13471 0.38853 0.0
C1250 C 0.62066 0.13867 0.36722 0.0
C1251 C 0.60932 0.13303 0.38842 0.0
C1252 C 0.61672 0.14596 0.34577 0.0
C1253 C 0.60102 0.14694 0.34622 0.0
H1254 H 0.57876 0.14319 0.36895 0.0
H1255 H 0.61267 0.12801 0.40524 0.0
C1256 C 0.59702 0.15217 0.51502 0.0
N1257 N 0.60153 0.15186 0.49014 0.0
C1258 C 0.61026 0.16139 0.53339 0.0
C1259 C 0.63239 0.17017 0.49994 0.0
C1260 C 0.61878 0.16051 0.4824 0.0
C1261 C 0.62829 0.17047 0.52599 0.0
H1262 H 0.58319 0.14488 0.52071 0.0
H1263 H 0.62199 0.1597 0.46258 0.0
C1264 C 0.55197 0.10935 0.39296 0.0
N1265 N 0.54634 0.10241 0.34099 0.0
C1266 C 0.54312 0.11621 0.37869 0.0
C1267 C 0.5579 0.0989 0.3808 0.0
C1268 C 0.54041 0.11255 0.35244 0.0
C1269 C 0.55496 0.09558 0.35451 0.0
C1270 C 0.54512 0.12199 0.48827 0.0
C1271 C 0.52914 0.10581 0.48966 0.0
C1272 C 0.54622 0.13729 0.49889 0.0
C1273 C 0.51442 0.10525 0.5015 0.0
C1274 C 0.53119 0.13619 0.51053 0.0
N1275 N 0.51574 0.12032 0.51157 0.0
C1276 C 0.55256 0.07878 0.48478 0.0
C1277 C 0.54284 0.07082 0.44181 0.0
C1278 C 0.544 0.06089 0.492 0.0
N1279 N 0.55185 0.08335 0.46004 0.0
C1280 C 0.53413 0.0528 0.44814 0.0
C1281 C 0.53457 0.04763 0.47355 0.0
H1282 H 0.55968 0.08907 0.49893 0.0
H1283 H 0.54219 0.07482 0.42241 0.0
C1284 C 0.54568 0.15578 0.42872 0.0
N1285 N 0.54025 0.13882 0.43614 0.0
C1286 C 0.53346 0.16017 0.41874 0.0
C1287 C 0.5101 0.12979 0.4256 0.0
C1288 C 0.52281 0.12596 0.43532 0.0
C1289 C 0.51548 0.14695 0.41626 0.0
H1290 H 0.55967 0.16563 0.42893 0.0
H1291 H 0.51894 0.11246 0.44064 0.0
O1292 O 0.58978 0.12103 0.44772 0.0
O1293 O 0.58221 0.15111 0.43428 0.0
O1294 O 0.55484 0.11284 0.41868 0.0
O1295 O 0.55962 0.12286 0.47654 0.0
H1296 H 0.59879 0.11824 0.49533 0.0
H1297 H 0.58831 0.09482 0.41995 0.0
H1298 H 0.60425 0.09434 0.51079 0.0
H1299 H 0.59384 0.07125 0.43677 0.0
H1300 H 0.60423 0.20327 0.4779 0.0
H1301 H 0.61323 0.16866 0.41033 0.0
H1302 H 0.58033 0.17229 0.46911 0.0
H1303 H 0.63651 0.1997 0.42007 0.0
H1304 H 0.63279 0.13802 0.36823 0.0
H1305 H 0.59724 0.15223 0.33013 0.0
H1306 H 0.60641 0.16092 0.55325 0.0
H1307 H 0.64598 0.17718 0.4931 0.0
H1308 H 0.53851 0.12439 0.38768 0.0
H1309 H 0.56492 0.09362 0.39148 0.0
H1310 H 0.53362 0.11782 0.34116 0.0
H1311 H 0.55958 0.0876 0.34483 0.0
H1312 H 0.52805 0.09385 0.48147 0.0
H1313 H 0.55851 0.1499 0.49804 0.0
H1314 H 0.50193 0.09284 0.50261 0.0
H1315 H 0.53182 0.14794 0.51873 0.0
H1316 H 0.54477 0.05747 0.51176 0.0
H1317 H 0.52675 0.04304 0.43342 0.0
H1318 H 0.53832 0.17348 0.41136 0.0
H1319 H 0.49638 0.11922 0.42424 0.0
Li1320 Li 0.75639 0.52795 0.72686 0.0
Li1321 Li 0.78392 0.55426 0.71376 0.0
Li1322 Li 0.77683 0.52466 0.69921 0.0
Li1323 Li 0.78522 0.534 0.74375 0.0
C1324 C 0.74925 0.5372 0.68215 0.0
N1325 N 0.71879 0.53644 0.66485 0.0
C1326 C 0.74765 0.55241 0.68391 0.0
C1327 C 0.73544 0.52166 0.67141 0.0
C1328 C 0.73213 0.55175 0.67509 0.0
C1329 C 0.72012 0.52152 0.66284 0.0
C1330 C 0.77546 0.55088 0.77414 0.0
C1331 C 0.79385 0.56558 0.81097 0.0
N1332 N 0.7802 0.55465 0.82668 0.0
C1333 C 0.76161 0.53979 0.79065 0.0
C1334 C 0.79171 0.5639 0.78435 0.0
C1335 C 0.76427 0.54192 0.81716 0.0
C1336 C 0.72147 0.50198 0.7416 0.0
N1337 N 0.73231 0.5195 0.7362 0.0
C1338 C 0.71029 0.52633 0.75073 0.0
C1339 C 0.72702 0.53163 0.74028 0.0
C1340 C 0.69902 0.50841 0.75736 0.0
C1341 C 0.70465 0.4961 0.75213 0.0
H1342 H 0.72617 0.4927 0.73893 0.0
H1343 H 0.73611 0.54556 0.73643 0.0
C1344 C 0.79756 0.58188 0.67768 0.0
N1345 N 0.7942 0.57832 0.70311 0.0
C1346 C 0.80582 0.59939 0.66887 0.0
C1347 C 0.8065 0.6092 0.71251 0.0
C1348 C 0.79827 0.59148 0.72049 0.0
C1349 C 0.81049 0.61334 0.68641 0.0
H1350 H 0.79397 0.57108 0.66429 0.0
H1351 H 0.79528 0.58824 0.74055 0.0
C1352 C 0.76096 0.49427 0.725 0.0
N1353 N 0.7532 0.46039 0.71118 0.0
C1354 C 0.77041 0.48675 0.7359 0.0
C1355 C 0.74751 0.48451 0.70716 0.0
C1356 C 0.76629 0.46961 0.72865 0.0
C1357 C 0.74381 0.46742 0.70038 0.0
C1358 C 0.81454 0.55725 0.7014 0.0
C1359 C 0.81803 0.55601 0.67552 0.0
C1360 C 0.82589 0.57264 0.71522 0.0
C1361 C 0.83278 0.57024 0.66385 0.0
C1362 C 0.84048 0.58659 0.70284 0.0
N1363 N 0.84359 0.58512 0.67763 0.0
C1364 C 0.77368 0.51148 0.64813 0.0
C1365 C 0.78984 0.50409 0.6775 0.0
C1366 C 0.77758 0.50321 0.62814 0.0
N1367 N 0.77993 0.51182 0.67216 0.0
C1368 C 0.79366 0.49533 0.65833 0.0
C1369 C 0.78786 0.49511 0.63305 0.0
H1370 H 0.76615 0.51808 0.64434 0.0
H1371 H 0.79503 0.505 0.69664 0.0
C1372 C 0.78694 0.51824 0.79004 0.0
N1373 N 0.7969 0.53105 0.77263 0.0
C1374 C 0.79515 0.51423 0.80991 0.0
C1375 C 0.82366 0.53738 0.79437 0.0
C1376 C 0.8149 0.54077 0.77462 0.0
C1377 C 0.81382 0.52362 0.81199 0.0
H1378 H 0.77263 0.51064 0.78784 0.0
H1379 H 0.82251 0.55083 0.76048 0.0
O1380 O 0.76423 0.5375 0.69102 0.0
O1381 O 0.77328 0.54871 0.74814 0.0
O1382 O 0.76496 0.51114 0.73157 0.0
O1383 O 0.79994 0.54362 0.71303 0.0
H1384 H 0.75818 0.56454 0.69227 0.0
H1385 H 0.73652 0.50981 0.66977 0.0
H1386 H 0.73065 0.56338 0.67646 0.0
H1387 H 0.70929 0.50956 0.65458 0.0
H1388 H 0.80639 0.57551 0.81913 0.0
H1389 H 0.74901 0.52952 0.78314 0.0
H1390 H 0.80267 0.5724 0.77187 0.0
H1391 H 0.75369 0.5334 0.83016 0.0
H1392 H 0.70646 0.53625 0.7543 0.0
H1393 H 0.69658 0.48223 0.75741 0.0
H1394 H 0.80841 0.60197 0.64853 0.0
H1395 H 0.80999 0.61956 0.72669 0.0
H1396 H 0.78097 0.49415 0.74955 0.0
H1397 H 0.74013 0.49015 0.69846 0.0
H1398 H 0.77355 0.46367 0.73684 0.0
H1399 H 0.7335 0.45977 0.6865 0.0
H1400 H 0.80939 0.54427 0.66446 0.0
H1401 H 0.82325 0.57397 0.73514 0.0
H1402 H 0.8356 0.56948 0.64382 0.0
H1403 H 0.84926 0.59863 0.71324 0.0
H1404 H 0.77306 0.5037 0.60895 0.0
H1405 H 0.80129 0.489 0.66333 0.0
H1406 H 0.78698 0.50333 0.82271 0.0
H1407 H 0.83803 0.54519 0.79544 0.0
Li1408 Li 0.47231 0.25555 0.69207 0.0
Li1409 Li 0.46283 0.25172 0.73623 0.0
Li1410 Li 0.46952 0.23101 0.71744 0.0
Li1411 Li 0.44195 0.23037 0.70547 0.0
C1412 C 0.499 0.27399 0.7267 0.0
N1413 N 0.52443 0.30915 0.73525 0.0
C1414 C 0.49464 0.28739 0.72413 0.0
C1415 C 0.51631 0.2785 0.73368 0.0
C1416 C 0.50766 0.30507 0.72851 0.0
C1417 C 0.52897 0.29634 0.7379 0.0
C1418 C 0.44082 0.26346 0.71236 0.0
C1419 C 0.41334 0.26005 0.72902 0.0
N1420 N 0.41919 0.27748 0.72384 0.0
C1421 C 0.44652 0.28133 0.7071 0.0
C1422 C 0.42407 0.25273 0.72334 0.0
C1423 C 0.43541 0.28816 0.7131 0.0
C1424 C 0.4751 0.27959 0.65468 0.0
N1425 N 0.48439 0.27264 0.66596 0.0
C1426 C 0.51071 0.29283 0.64298 0.0
C1427 C 0.5018 0.27874 0.66026 0.0
C1428 C 0.50159 0.30076 0.63197 0.0
C1429 C 0.48352 0.29383 0.63771 0.0
H1430 H 0.46123 0.27433 0.65938 0.0
H1431 H 0.50887 0.273 0.66967 0.0
C1432 C 0.47898 0.26526 0.78326 0.0
N1433 N 0.46607 0.26462 0.76776 0.0
C1434 C 0.48429 0.27581 0.80526 0.0
C1435 C 0.46256 0.28459 0.79557 0.0
C1436 C 0.45755 0.2737 0.77385 0.0
C1437 C 0.4764 0.28608 0.8113 0.0
H1438 H 0.4856 0.25794 0.77807 0.0
H1439 H 0.44729 0.27308 0.76159 0.0
C1440 C 0.46377 0.2181 0.67113 0.0
N1441 N 0.47161 0.19347 0.65068 0.0
C1442 C 0.45045 0.20029 0.66885 0.0
C1443 C 0.48105 0.22344 0.66289 0.0
C1444 C 0.45469 0.18803 0.65848 0.0
C1445 C 0.48475 0.21076 0.65264 0.0
C1446 C 0.44601 0.22304 0.76493 0.0
C1447 C 0.45801 0.22101 0.78049 0.0
C1448 C 0.43136 0.22303 0.77607 0.0
C1449 C 0.45522 0.21916 0.80699 0.0
C1450 C 0.42905 0.22117 0.80265 0.0
N1451 N 0.44093 0.2193 0.81743 0.0
C1452 C 0.49626 0.22244 0.72905 0.0
C1453 C 0.46668 0.19815 0.72844 0.0
C1454 C 0.50241 0.21166 0.73939 0.0
N1455 N 0.47862 0.21564 0.72451 0.0
C1456 C 0.47225 0.18688 0.7386 0.0
C1457 C 0.49023 0.19375 0.74512 0.0
H1458 H 0.50539 0.23645 0.72597 0.0
H1459 H 0.45269 0.1932 0.72493 0.0
C1460 C 0.4133 0.2186 0.67119 0.0
N1461 N 0.41822 0.21559 0.69456 0.0
C1462 C 0.39593 0.20778 0.66239 0.0
C1463 C 0.38907 0.19105 0.70198 0.0
C1464 C 0.40662 0.20211 0.70992 0.0
C1465 C 0.38356 0.19382 0.67792 0.0
H1466 H 0.42291 0.22943 0.65942 0.0
H1467 H 0.411 0.19995 0.72831 0.0
O1468 O 0.48646 0.25651 0.72269 0.0
O1469 O 0.45146 0.25649 0.70635 0.0
O1470 O 0.45999 0.23021 0.68175 0.0
O1471 O 0.44867 0.22515 0.73898 0.0
H1472 H 0.48135 0.28421 0.7189 0.0
H1473 H 0.51993 0.26831 0.73587 0.0
H1474 H 0.50444 0.31555 0.72658 0.0
H1475 H 0.54242 0.3 0.74331 0.0
H1476 H 0.40038 0.2519 0.7376 0.0
H1477 H 0.45941 0.28988 0.69856 0.0
H1478 H 0.41943 0.23894 0.72766 0.0
H1479 H 0.43968 0.30197 0.7092 0.0
H1480 H 0.52467 0.29789 0.63897 0.0
H1481 H 0.47603 0.29947 0.62929 0.0
H1482 H 0.49477 0.27623 0.81705 0.0
H1483 H 0.45618 0.29237 0.79928 0.0
H1484 H 0.43702 0.19598 0.67523 0.0
H1485 H 0.4915 0.23718 0.66465 0.0
H1486 H 0.44454 0.17418 0.65669 0.0
H1487 H 0.49808 0.21466 0.64631 0.0
H1488 H 0.46951 0.22112 0.7723 0.0
H1489 H 0.42189 0.22451 0.76438 0.0
H1490 H 0.46446 0.21769 0.81926 0.0
H1491 H 0.41781 0.22123 0.81153 0.0
H1492 H 0.51635 0.21758 0.74435 0.0
H1493 H 0.46245 0.17311 0.74236 0.0
H1494 H 0.39214 0.21044 0.64382 0.0
H1495 H 0.37999 0.1803 0.71438 0.0
Li1496 Li 0.774 0.2175 0.70858 0.0
Li1497 Li 0.7704 0.24309 0.72298 0.0
Li1498 Li 0.74934 0.21319 0.73509 0.0
Li1499 Li 0.74979 0.22189 0.69134 0.0
C1500 C 0.77418 0.22223 0.76904 0.0
N1501 N 0.77051 0.21237 0.82009 0.0
C1502 C 0.77359 0.23335 0.78794 0.0
C1503 C 0.77307 0.20617 0.77613 0.0
C1504 C 0.77169 0.22811 0.81363 0.0
C1505 C 0.77118 0.2014 0.80203 0.0
C1506 C 0.77932 0.25131 0.67069 0.0
C1507 C 0.77439 0.27484 0.65597 0.0
N1508 N 0.7858 0.27803 0.63615 0.0
C1509 C 0.79098 0.2548 0.65017 0.0
C1510 C 0.77094 0.26138 0.67364 0.0
C1511 C 0.79409 0.26838 0.63291 0.0
C1512 C 0.78978 0.20547 0.67376 0.0
N1513 N 0.79031 0.21018 0.69874 0.0
C1514 C 0.81304 0.20312 0.70786 0.0
C1515 C 0.80171 0.2093 0.71577 0.0
C1516 C 0.8127 0.19801 0.68216 0.0
C1517 C 0.80096 0.19937 0.66498 0.0
H1518 H 0.7805 0.20629 0.66075 0.0
H1519 H 0.80189 0.21325 0.7355 0.0
C1520 C 0.77314 0.27164 0.75074 0.0
N1521 N 0.78241 0.26689 0.73475 0.0
C1522 C 0.78153 0.28826 0.76258 0.0
C1523 C 0.80874 0.29509 0.74054 0.0
C1524 C 0.79981 0.27822 0.72919 0.0
C1525 C 0.79965 0.30018 0.75784 0.0
H1526 H 0.75939 0.2622 0.75509 0.0
H1527 H 0.80684 0.274 0.71646 0.0
C1528 C 0.74066 0.18188 0.70601 0.0
N1529 N 0.7245 0.14527 0.70981 0.0
C1530 C 0.72307 0.1711 0.69788 0.0
C1531 C 0.75011 0.17399 0.71568 0.0
C1532 C 0.71511 0.15264 0.70009 0.0
C1533 C 0.74169 0.15548 0.71754 0.0
C1534 C 0.72687 0.22739 0.72138 0.0
C1535 C 0.71349 0.20968 0.71834 0.0
C1536 C 0.72234 0.24069 0.72344 0.0
C1537 C 0.69574 0.20554 0.71747 0.0
C1538 C 0.70443 0.23602 0.72246 0.0
N1539 N 0.69161 0.21868 0.71952 0.0
C1540 C 0.72889 0.2103 0.77776 0.0
C1541 C 0.72695 0.18277 0.76782 0.0
C1542 C 0.71605 0.20232 0.79687 0.0
N1543 N 0.73369 0.20041 0.76314 0.0
C1544 C 0.71409 0.17422 0.78685 0.0
C1545 C 0.70813 0.18394 0.80122 0.0
H1546 H 0.73465 0.22437 0.77399 0.0
H1547 H 0.73124 0.17518 0.75661 0.0
C1548 C 0.7327 0.20383 0.64704 0.0
N1549 N 0.73566 0.21803 0.66158 0.0
C1550 C 0.72098 0.19856 0.62635 0.0
C1551 C 0.71612 0.22315 0.63519 0.0
C1552 C 0.72789 0.22788 0.6559 0.0
C1553 C 0.71232 0.20813 0.6203 0.0
H1554 H 0.73909 0.19626 0.652 0.0
H1555 H 0.73053 0.23918 0.66772 0.0
O1556 O 0.77551 0.22689 0.74372 0.0
O1557 O 0.77609 0.23798 0.68762 0.0
O1558 O 0.74875 0.19999 0.70365 0.0
O1559 O 0.74438 0.23183 0.72197 0.0
H1560 H 0.77442 0.24581 0.78281 0.0
H1561 H 0.77348 0.19738 0.76179 0.0
H1562 H 0.7711 0.23654 0.82844 0.0
H1563 H 0.77018 0.18895 0.80776 0.0
H1564 H 0.76799 0.28273 0.65801 0.0
H1565 H 0.79753 0.24707 0.64761 0.0
H1566 H 0.76183 0.25884 0.68934 0.0
H1567 H 0.80308 0.27123 0.61694 0.0
H1568 H 0.82203 0.20242 0.72162 0.0
H1569 H 0.80014 0.19537 0.64511 0.0
H1570 H 0.77404 0.2914 0.77613 0.0
H1571 H 0.82266 0.3039 0.73611 0.0
H1572 H 0.71563 0.1769 0.68982 0.0
H1573 H 0.76374 0.18203 0.72185 0.0
H1574 H 0.70149 0.14416 0.69399 0.0
H1575 H 0.74882 0.14922 0.72514 0.0
H1576 H 0.71677 0.19926 0.71677 0.0
H1577 H 0.73257 0.25449 0.72562 0.0
H1578 H 0.68524 0.19187 0.71516 0.0
H1579 H 0.70073 0.24617 0.72399 0.0
H1580 H 0.71181 0.21036 0.80727 0.0
H1581 H 0.70861 0.16009 0.78992 0.0
H1582 H 0.71831 0.18675 0.61575 0.0
H1583 H 0.70997 0.23108 0.63104 0.0
Li1584 Li 0.47093 0.2398 0.2274 0.0
Li1585 Li 0.46435 0.21202 0.2472 0.0
Li1586 Li 0.47416 0.21867 0.20201 0.0
Li1587 Li 0.44456 0.21222 0.21321 0.0
C1588 C 0.5017 0.24505 0.24374 0.0
N1589 N 0.53015 0.2752 0.26431 0.0
C1590 C 0.50125 0.24969 0.2693 0.0
C1591 C 0.51666 0.25565 0.22869 0.0
C1592 C 0.51575 0.26503 0.27933 0.0
C1593 C 0.53091 0.27085 0.23945 0.0
C1594 C 0.43452 0.21367 0.26274 0.0
C1595 C 0.41213 0.1856 0.28043 0.0
N1596 N 0.40396 0.19387 0.29132 0.0
C1597 C 0.42582 0.22185 0.27398 0.0
C1598 C 0.42755 0.19536 0.26586 0.0
C1599 C 0.41042 0.21163 0.28841 0.0
C1600 C 0.49369 0.27782 0.22325 0.0
N1601 N 0.47993 0.26419 0.23597 0.0
C1602 C 0.47939 0.28434 0.26664 0.0
C1603 C 0.47267 0.26716 0.25715 0.0
C1604 C 0.49393 0.2986 0.25444 0.0
C1605 C 0.50105 0.29525 0.23236 0.0
H1606 H 0.4994 0.27516 0.20664 0.0
H1607 H 0.46205 0.25609 0.26725 0.0
C1608 C 0.47277 0.18988 0.27502 0.0
N1609 N 0.46684 0.20159 0.27775 0.0
C1610 C 0.4765 0.18281 0.29659 0.0
C1611 C 0.46781 0.1999 0.32346 0.0
C1612 C 0.46421 0.20663 0.3013 0.0
C1613 C 0.47423 0.18796 0.32124 0.0
H1614 H 0.47514 0.18648 0.25603 0.0
H1615 H 0.45974 0.21621 0.30288 0.0
C1616 C 0.46773 0.23795 0.16761 0.0
N1617 N 0.47918 0.24906 0.11802 0.0
C1618 C 0.45547 0.23233 0.14745 0.0
C1619 C 0.4858 0.24926 0.16255 0.0
C1620 C 0.46152 0.2381 0.12251 0.0
C1621 C 0.49133 0.25471 0.13735 0.0
C1622 C 0.44893 0.1827 0.19903 0.0
C1623 C 0.44202 0.18403 0.17544 0.0
C1624 C 0.45029 0.16765 0.20442 0.0
C1625 C 0.43664 0.1703 0.15755 0.0
C1626 C 0.44476 0.15419 0.18603 0.0
N1627 N 0.43811 0.15578 0.16317 0.0
C1628 C 0.50301 0.21502 0.18589 0.0
C1629 C 0.48257 0.21019 0.15245 0.0
C1630 C 0.51313 0.21084 0.16951 0.0
N1631 N 0.48803 0.2146 0.17719 0.0
C1632 C 0.49229 0.20595 0.13542 0.0
C1633 C 0.50771 0.20607 0.14393 0.0
H1634 H 0.50691 0.21827 0.20575 0.0
H1635 H 0.47047 0.20958 0.14598 0.0
C1636 C 0.41521 0.21318 0.1928 0.0
N1637 N 0.42041 0.20215 0.20318 0.0
C1638 C 0.39751 0.20661 0.18568 0.0
C1639 C 0.39081 0.17749 0.20047 0.0
C1640 C 0.40866 0.18462 0.20718 0.0
C1641 C 0.38501 0.18853 0.18954 0.0
H1642 H 0.42486 0.22711 0.1901 0.0
H1643 H 0.41313 0.1762 0.21579 0.0
O1644 O 0.4874 0.2304 0.23337 0.0
O1645 O 0.44945 0.22351 0.24817 0.0
O1646 O 0.46204 0.2324 0.19213 0.0
O1647 O 0.45439 0.19604 0.2168 0.0
H1648 H 0.48971 0.24172 0.28113 0.0
H1649 H 0.5172 0.25226 0.20885 0.0
H1650 H 0.51553 0.26887 0.29901 0.0
H1651 H 0.54254 0.27924 0.22799 0.0
H1652 H 0.40663 0.17143 0.28299 0.0
H1653 H 0.4308 0.23594 0.27147 0.0
H1654 H 0.43386 0.18867 0.25702 0.0
H1655 H 0.40358 0.21781 0.29723 0.0
H1656 H 0.47377 0.28635 0.28403 0.0
H1657 H 0.51233 0.30593 0.22252 0.0
H1658 H 0.48181 0.17397 0.29394 0.0
H1659 H 0.46585 0.20419 0.34209 0.0
H1660 H 0.44143 0.22354 0.15098 0.0
H1661 H 0.4955 0.25339 0.17781 0.0
H1662 H 0.45218 0.23382 0.10672 0.0
H1663 H 0.5053 0.26333 0.13314 0.0
H1664 H 0.441 0.19563 0.17085 0.0
H1665 H 0.45555 0.16637 0.22261 0.0
H1666 H 0.43133 0.1712 0.13918 0.0
H1667 H 0.44576 0.14248 0.18994 0.0
H1668 H 0.52497 0.21118 0.17685 0.0
H1669 H 0.48741 0.20202 0.11602 0.0
H1670 H 0.3937 0.21557 0.17707 0.0
H1671 H 0.3816 0.16355 0.2042 0.0
Li1672 Li 0.75931 0.22564 0.22569 0.0
Li1673 Li 0.78764 0.24828 0.24491 0.0
Li1674 Li 0.77969 0.25121 0.20044 0.0
Li1675 Li 0.78778 0.22886 0.21216 0.0
C1676 C 0.76309 0.26373 0.23014 0.0
N1677 N 0.75491 0.29042 0.22359 0.0
C1678 C 0.77264 0.27978 0.24344 0.0
C1679 C 0.74925 0.26116 0.21374 0.0
C1680 C 0.76832 0.29313 0.23982 0.0
C1681 C 0.74537 0.27485 0.21061 0.0
C1682 C 0.77799 0.21851 0.27129 0.0
C1683 C 0.79609 0.22059 0.30773 0.0
N1684 N 0.78123 0.21253 0.32258 0.0
C1685 C 0.76288 0.21018 0.28689 0.0
C1686 C 0.79472 0.22368 0.28174 0.0
C1687 C 0.7648 0.20729 0.31279 0.0
C1688 C 0.72732 0.19187 0.23033 0.0
N1689 N 0.73511 0.20972 0.23418 0.0
C1690 C 0.70976 0.20594 0.25742 0.0
C1691 C 0.72663 0.21687 0.24719 0.0
C1692 C 0.70137 0.18739 0.25415 0.0
C1693 C 0.71027 0.18043 0.2399 0.0
H1694 H 0.73457 0.18645 0.2207 0.0
H1695 H 0.73332 0.23102 0.25073 0.0
C1696 C 0.81495 0.27624 0.2727 0.0
N1697 N 0.79841 0.26182 0.27491 0.0
C1698 C 0.82256 0.28798 0.29323 0.0
C1699 C 0.79628 0.26935 0.31835 0.0
C1700 C 0.78902 0.2582 0.29712 0.0
C1701 C 0.81312 0.28478 0.31643 0.0
H1702 H 0.82193 0.27904 0.25459 0.0
H1703 H 0.77568 0.24693 0.29814 0.0
C1704 C 0.75371 0.21248 0.17795 0.0
N1705 N 0.72451 0.18463 0.15449 0.0
C1706 C 0.75306 0.19622 0.17418 0.0
C1707 C 0.7396 0.21464 0.16959 0.0
C1708 C 0.73816 0.18229 0.16231 0.0
C1709 C 0.72493 0.20038 0.15785 0.0
C1710 C 0.8182 0.25795 0.20368 0.0
C1711 C 0.82171 0.26231 0.17771 0.0
C1712 C 0.83036 0.25575 0.21857 0.0
C1713 C 0.83733 0.26423 0.16696 0.0
C1714 C 0.8458 0.25775 0.20709 0.0
N1715 N 0.84893 0.2619 0.18174 0.0
C1716 C 0.79125 0.28561 0.18198 0.0
C1717 C 0.77664 0.26297 0.1508 0.0
C1718 C 0.79457 0.29872 0.16385 0.0
N1719 N 0.78236 0.26815 0.17523 0.0
C1720 C 0.78001 0.27569 0.13187 0.0
C1721 C 0.78924 0.2939 0.13821 0.0
H1722 H 0.79605 0.28937 0.2014 0.0
H1723 H 0.76994 0.249 0.14586 0.0
C1724 C 0.80369 0.20755 0.21762 0.0
N1725 N 0.79939 0.21657 0.20044 0.0
C1726 C 0.81244 0.19862 0.20954 0.0
C1727 C 0.81207 0.2083 0.16614 0.0
C1728 C 0.80328 0.21703 0.17508 0.0
C1729 C 0.81674 0.19892 0.18349 0.0
H1730 H 0.80033 0.2073 0.23762 0.0
H1731 H 0.79953 0.22418 0.16183 0.0
O1732 O 0.76721 0.25056 0.23324 0.0
O1733 O 0.77638 0.2215 0.24591 0.0
O1734 O 0.76815 0.22626 0.18955 0.0
O1735 O 0.80278 0.25557 0.21441 0.0
H1736 H 0.78335 0.28197 0.25627 0.0
H1737 H 0.74167 0.24876 0.20346 0.0
H1738 H 0.77566 0.30567 0.24988 0.0
H1739 H 0.73476 0.27308 0.19787 0.0
H1740 H 0.80897 0.22463 0.3161 0.0
H1741 H 0.74982 0.20603 0.27916 0.0
H1742 H 0.80656 0.23024 0.26999 0.0
H1743 H 0.75323 0.20091 0.3251 0.0
H1744 H 0.70379 0.212 0.26886 0.0
H1745 H 0.70436 0.16626 0.23671 0.0
H1746 H 0.83535 0.29985 0.29043 0.0
H1747 H 0.78855 0.2661 0.33585 0.0
H1748 H 0.76386 0.19432 0.18056 0.0
H1749 H 0.73997 0.22718 0.17221 0.0
H1750 H 0.73742 0.1696 0.15937 0.0
H1751 H 0.71387 0.20183 0.15139 0.0
H1752 H 0.81241 0.264 0.16591 0.0
H1753 H 0.82781 0.25237 0.2387 0.0
H1754 H 0.84019 0.2675 0.14685 0.0
H1755 H 0.85528 0.25596 0.21832 0.0
H1756 H 0.80143 0.3125 0.16989 0.0
H1757 H 0.77594 0.27127 0.11234 0.0
H1758 H 0.81596 0.19171 0.2236 0.0
H1759 H 0.81493 0.20868 0.14585 0.0
Li1760 Li 0.75219 0.53813 0.24034 0.0
Li1761 Li 0.77522 0.53256 0.22243 0.0
Li1762 Li 0.77347 0.55987 0.20956 0.0
Li1763 Li 0.75136 0.53061 0.19645 0.0
C1764 C 0.78665 0.55916 0.26663 0.0
N1765 N 0.80448 0.57187 0.31266 0.0
C1766 C 0.78977 0.54806 0.28266 0.0
C1767 C 0.79279 0.57679 0.27397 0.0
C1768 C 0.79875 0.55471 0.30585 0.0
C1769 C 0.80171 0.58294 0.29734 0.0
C1770 C 0.73229 0.50221 0.23056 0.0
C1771 C 0.7114 0.47304 0.24676 0.0
N1772 N 0.69772 0.47561 0.23992 0.0
C1773 C 0.71802 0.50457 0.22373 0.0
C1774 C 0.72896 0.48633 0.24221 0.0
C1775 C 0.70065 0.49096 0.2286 0.0
C1776 C 0.72209 0.53356 0.26849 0.0
N1777 N 0.73807 0.5343 0.27049 0.0
C1778 C 0.73239 0.5255 0.31453 0.0
C1779 C 0.74333 0.5304 0.29294 0.0
C1780 C 0.71552 0.524 0.31285 0.0
C1781 C 0.71055 0.52838 0.28946 0.0
H1782 H 0.71788 0.53616 0.25028 0.0
H1783 H 0.75568 0.53034 0.2939 0.0
C1784 C 0.80869 0.53782 0.23491 0.0
N1785 N 0.79148 0.52496 0.23111 0.0
C1786 C 0.82051 0.53368 0.247 0.0
C1787 C 0.79703 0.5029 0.24908 0.0
C1788 C 0.78559 0.50768 0.23721 0.0
C1789 C 0.81454 0.51613 0.25494 0.0
H1790 H 0.81287 0.55149 0.23011 0.0
H1791 H 0.77177 0.49781 0.23419 0.0
C1792 C 0.74328 0.56219 0.21794 0.0
N1793 N 0.73554 0.58814 0.23284 0.0
C1794 C 0.73143 0.56519 0.20358 0.0
C1795 C 0.75112 0.57233 0.23993 0.0
C1796 C 0.72771 0.57839 0.2114 0.0
C1797 C 0.74706 0.58539 0.24715 0.0
C1798 C 0.77635 0.53761 0.16346 0.0
C1799 C 0.77584 0.54789 0.1432 0.0
C1800 C 0.77515 0.52123 0.15844 0.0
C1801 C 0.77394 0.54148 0.11812 0.0
C1802 C 0.77327 0.5153 0.13309 0.0
N1803 N 0.77269 0.52545 0.11363 0.0
C1804 C 0.80472 0.59287 0.20946 0.0
C1805 C 0.78128 0.59216 0.18513 0.0
C1806 C 0.81598 0.61069 0.20312 0.0
N1807 N 0.78773 0.58408 0.20061 0.0
C1808 C 0.79209 0.60998 0.17824 0.0
C1809 C 0.80971 0.61948 0.18726 0.0
H1810 H 0.80954 0.58598 0.22142 0.0
H1811 H 0.76782 0.5847 0.17791 0.0
C1812 C 0.72899 0.50108 0.16324 0.0
N1813 N 0.73594 0.51872 0.16816 0.0
C1814 C 0.71694 0.49306 0.14302 0.0
C1815 C 0.71991 0.52163 0.13304 0.0
C1816 C 0.73175 0.52903 0.15347 0.0
C1817 C 0.71221 0.50339 0.12769 0.0
H1818 H 0.73263 0.49321 0.17519 0.0
H1819 H 0.73755 0.54303 0.15779 0.0
O1820 O 0.77836 0.55305 0.24342 0.0
O1821 O 0.74947 0.51542 0.22636 0.0
O1822 O 0.74717 0.54943 0.21025 0.0
O1823 O 0.77763 0.54336 0.18818 0.0
H1824 H 0.78507 0.53436 0.27746 0.0
H1825 H 0.7908 0.58571 0.26174 0.0
H1826 H 0.80115 0.54623 0.31845 0.0
H1827 H 0.80648 0.59654 0.30324 0.0
H1828 H 0.70863 0.46069 0.25578 0.0
H1829 H 0.72028 0.51678 0.21486 0.0
H1830 H 0.73984 0.48432 0.24779 0.0
H1831 H 0.6895 0.49263 0.22342 0.0
H1832 H 0.73694 0.52246 0.33213 0.0
H1833 H 0.69755 0.52701 0.2869 0.0
H1834 H 0.83393 0.54421 0.25111 0.0
H1835 H 0.7919 0.48926 0.25516 0.0
H1836 H 0.72519 0.55743 0.18653 0.0
H1837 H 0.76007 0.57 0.25145 0.0
H1838 H 0.71859 0.58088 0.20043 0.0
H1839 H 0.75304 0.59331 0.26416 0.0
H1840 H 0.77668 0.56057 0.14686 0.0
H1841 H 0.77545 0.51311 0.17399 0.0
H1842 H 0.7734 0.54922 0.10223 0.0
H1843 H 0.77221 0.50259 0.12889 0.0
H1844 H 0.8294 0.61753 0.21068 0.0
H1845 H 0.78682 0.61613 0.1656 0.0
H1846 H 0.71143 0.47899 0.13938 0.0
H1847 H 0.71649 0.53005 0.12194 0.0
Li1848 Li 0.55287 0.14021 0.96486 0.0
Li1849 Li 0.54461 0.11145 0.94921 0.0
Li1850 Li 0.57143 0.13685 0.93418 0.0
Li1851 Li 0.54161 0.13151 0.91938 0.0
C1852 C 0.57081 0.13163 0.9945 0.0
N1853 N 0.57954 0.14101 0.04538 0.0
C1854 C 0.56101 0.11965 0.01404 0.0
C1855 C 0.58506 0.14837 0.00089 0.0
C1856 C 0.56564 0.12463 0.03962 0.0
C1857 C 0.58925 0.15287 0.0267 0.0
C1858 C 0.51248 0.10808 0.95847 0.0
C1859 C 0.4818 0.0879 0.94744 0.0
N1860 N 0.47923 0.08006 0.97086 0.0
C1861 C 0.50951 0.09983 0.98244 0.0
C1862 C 0.49851 0.10208 0.94081 0.0
C1863 C 0.49262 0.08567 0.98833 0.0
C1864 C 0.55894 0.17179 0.98997 0.0
N1865 N 0.55152 0.15388 0.99268 0.0
C1866 C 0.53868 0.15474 0.03285 0.0
C1867 C 0.54168 0.14532 0.0137 0.0
C1868 C 0.54573 0.17317 0.03027 0.0
C1869 C 0.55625 0.18176 0.00866 0.0
H1870 H 0.56644 0.17826 0.97289 0.0
H1871 H 0.53567 0.13109 0.0153 0.0
C1872 C 0.54535 0.08216 0.97068 0.0
N1873 N 0.53485 0.08666 0.95697 0.0
C1874 C 0.53929 0.06445 0.97716 0.0
C1875 C 0.51197 0.05612 0.95437 0.0
C1876 C 0.51861 0.074 0.94822 0.0
C1877 C 0.52231 0.05119 0.96922 0.0
H1878 H 0.55849 0.09235 0.97656 0.0
H1879 H 0.51082 0.07773 0.93631 0.0
C1880 C 0.57648 0.16791 0.92053 0.0
N1881 N 0.60539 0.19509 0.89551 0.0
C1882 C 0.57575 0.17035 0.89414 0.0
C1883 C 0.59186 0.1794 0.93424 0.0
C1884 C 0.59051 0.18415 0.88183 0.0
C1885 C 0.60635 0.19302 0.92123 0.0
C1886 C 0.54996 0.10151 0.90357 0.0
C1887 C 0.56225 0.09588 0.90803 0.0
C1888 C 0.53428 0.09052 0.89013 0.0
C1889 C 0.55856 0.07919 0.89914 0.0
C1890 C 0.53109 0.07393 0.88153 0.0
N1891 N 0.54318 0.06865 0.8862 0.0
C1892 C 0.60921 0.14996 0.93579 0.0
C1893 C 0.59555 0.14466 0.89485 0.0
C1894 C 0.62581 0.15567 0.92446 0.0
N1895 N 0.59457 0.14474 0.92085 0.0
C1896 C 0.61179 0.15018 0.88276 0.0
C1897 C 0.62721 0.15578 0.89758 0.0
H1898 H 0.60801 0.14964 0.95644 0.0
H1899 H 0.58366 0.14039 0.88348 0.0
C1900 C 0.51935 0.14276 0.89884 0.0
N1901 N 0.52909 0.13501 0.8925 0.0
C1902 C 0.51092 0.14713 0.8798 0.0
C1903 C 0.5227 0.13548 0.84798 0.0
C1904 C 0.53083 0.1312 0.86773 0.0
C1905 C 0.51269 0.14367 0.85394 0.0
H1906 H 0.51846 0.14584 0.91871 0.0
H1907 H 0.53893 0.1253 0.86327 0.0
O1908 O 0.56635 0.12709 0.96931 0.0
O1909 O 0.52889 0.12205 0.95234 0.0
O1910 O 0.56236 0.15413 0.93278 0.0
O1911 O 0.55313 0.11759 0.9127 0.0
H1912 H 0.54976 0.10674 0.00958 0.0
H1913 H 0.59268 0.15788 0.98611 0.0
H1914 H 0.55812 0.11552 0.05491 0.0
H1915 H 0.6002 0.16582 0.03189 0.0
H1916 H 0.47089 0.0831 0.93395 0.0
H1917 H 0.52021 0.10399 0.99613 0.0
H1918 H 0.50055 0.10821 0.92212 0.0
H1919 H 0.49019 0.07908 0.00673 0.0
H1920 H 0.53023 0.14749 0.04891 0.0
H1921 H 0.56202 0.19596 0.00596 0.0
H1922 H 0.54771 0.06122 0.9886 0.0
H1923 H 0.49898 0.04625 0.94734 0.0
H1924 H 0.564 0.16159 0.88319 0.0
H1925 H 0.59269 0.17771 0.95465 0.0
H1926 H 0.59016 0.18612 0.86139 0.0
H1927 H 0.61838 0.20192 0.93157 0.0
H1928 H 0.57442 0.10424 0.91851 0.0
H1929 H 0.52458 0.09465 0.88673 0.0
H1930 H 0.56789 0.07459 0.90259 0.0
H1931 H 0.51896 0.06521 0.87125 0.0
H1932 H 0.63737 0.15975 0.93656 0.0
H1933 H 0.61231 0.15032 0.86198 0.0
H1934 H 0.50359 0.15371 0.8852 0.0
H1935 H 0.52435 0.13256 0.8283 0.0
Li1936 Li 0.85967 0.41504 0.97164 0.0
Li1937 Li 0.8895 0.4375 0.95764 0.0
Li1938 Li 0.86333 0.4395 0.94579 0.0
Li1939 Li 0.86873 0.41693 0.9266 0.0
C1940 C 0.8725 0.45479 0.99017 0.0
N1941 N 0.87122 0.4843 0.00704 0.0
C1942 C 0.88772 0.47163 0.9891 0.0
C1943 C 0.85666 0.45292 -7e-05 0.0
C1944 C 0.8868 0.48639 0.99771 0.0
C1945 C 0.85627 0.46801 0.00832 0.0
C1946 C 0.89153 0.40851 0.96629 0.0
C1947 C 0.91936 0.40895 0.96112 0.0
N1948 N 0.91883 0.40453 0.98628 0.0
C1949 C 0.89119 0.40386 0.99205 0.0
C1950 C 0.90566 0.41097 0.95063 0.0
C1951 C 0.90514 0.40194 0.00181 0.0
C1952 C 0.84 0.38113 0.99387 0.0
N1953 N 0.84718 0.39882 0.99859 0.0
C1954 C 0.83956 0.39315 0.04298 0.0
C1955 C 0.84699 0.405 0.02248 0.0
C1956 C 0.8322 0.37482 0.03869 0.0
C1957 C 0.83219 0.36881 0.01369 0.0
H1958 H 0.84083 0.37665 0.97483 0.0
H1959 H 0.85311 0.41916 0.02576 0.0
C1960 C 0.92672 0.4616 0.95222 0.0
N1961 N 0.91358 0.45064 0.96857 0.0
C1962 C 0.94425 0.47156 0.96091 0.0
C1963 C 0.93436 0.45873 0.00306 0.0
C1964 C 0.91703 0.44918 0.99361 0.0
C1965 C 0.94828 0.47021 0.98669 0.0
H1966 H 0.92355 0.46283 0.93255 0.0
H1967 H 0.90624 0.44061 0.00629 0.0
C1968 C 0.82974 0.40008 0.94537 0.0
N1969 N 0.79692 0.37114 0.95699 0.0
C1970 C 0.8238 0.38392 0.93256 0.0
C1971 C 0.81894 0.40155 0.96396 0.0
C1972 C 0.80717 0.36944 0.93873 0.0
C1973 C 0.80241 0.38676 0.96961 0.0
C1974 C 0.88828 0.44567 0.89861 0.0
C1975 C 0.87989 0.45156 0.88154 0.0
C1976 C 0.9011 0.44178 0.88947 0.0
C1977 C 0.8844 0.45336 0.85554 0.0
C1978 C 0.90522 0.44372 0.86333 0.0
N1979 N 0.89685 0.44942 0.84705 0.0
C1980 C 0.86718 0.47256 0.93187 0.0
C1981 C 0.83727 0.4492 0.93566 0.0
C1982 C 0.86161 0.48389 0.92185 0.0
N1983 N 0.85502 0.45547 0.93793 0.0
C1984 C 0.8311 0.46011 0.92589 0.0
C1985 C 0.84337 0.47752 0.91811 0.0
H1986 H 0.88123 0.47709 0.93361 0.0
H1987 H 0.82792 0.43549 0.94023 0.0
C1988 C 0.86941 0.38992 0.89709 0.0
N1989 N 0.8653 0.4031 0.89663 0.0
C1990 C 0.86481 0.37814 0.87647 0.0
C1991 C 0.85248 0.3942 0.85488 0.0
C1992 C 0.85704 0.40545 0.8761 0.0
C1993 C 0.85594 0.38 0.8551 0.0
H1994 H 0.87558 0.38807 0.91395 0.0
H1995 H 0.85345 0.41571 0.87655 0.0
O1996 O 0.87302 0.44024 0.98127 0.0
O1997 O 0.87818 0.41078 0.95648 0.0
O1998 O 0.84608 0.41436 0.93982 0.0
O1999 O 0.88394 0.44367 0.92411 0.0
H2000 H 0.90006 0.47331 0.98145 0.0
H2001 H 0.84475 0.43998 0.00078 0.0
H2002 H 0.89845 0.49952 0.9969 0.0
H2003 H 0.84408 0.46679 0.01579 0.0
H2004 H 0.93043 0.41092 0.94926 0.0
H2005 H 0.8804 0.40195 0.00448 0.0
H2006 H 0.90608 0.41449 0.93063 0.0
H2007 H 0.9051 0.39845 0.02174 0.0
H2008 H 0.83983 0.39826 0.06205 0.0
H2009 H 0.82692 0.3548 0.00974 0.0
H2010 H 0.95446 0.48049 0.94771 0.0
H2011 H 0.9368 0.45708 0.02297 0.0
H2012 H 0.83197 0.38251 0.91815 0.0
H2013 H 0.82338 0.41392 0.97418 0.0
H2014 H 0.80243 0.35684 0.92905 0.0
H2015 H 0.79397 0.38767 0.98409 0.0
H2016 H 0.86983 0.45449 0.88819 0.0
H2017 H 0.90769 0.43718 0.90239 0.0
H2018 H 0.87795 0.45782 0.8421 0.0
H2019 H 0.91505 0.44067 0.85598 0.0
H2020 H 0.87147 0.49726 0.91618 0.0
H2021 H 0.81695 0.45462 0.92299 0.0
H2022 H 0.86745 0.36723 0.87785 0.0
H2023 H 0.8459 0.39636 0.83878 0.0
Li2024 Li 0.58521 0.44294 0.97228 0.0
Li2025 Li 0.56063 0.44885 0.95907 0.0
Li2026 Li 0.56223 0.42433 0.94252 0.0
Li2027 Li 0.58387 0.45313 0.92796 0.0
C2028 C 0.54678 0.41205 0.98584 0.0
N2029 N 0.5214 0.37734 0.99685 0.0
C2030 C 0.52881 0.4061 0.98115 0.0
C2031 C 0.55186 0.40043 0.99629 0.0
C2032 C 0.51617 0.38847 0.9868 0.0
C2033 C 0.53882 0.38291 0.00169 0.0
C2034 C 0.59511 0.48181 0.97199 0.0
C2035 C 0.6108 0.51385 0.96921 0.0
N2036 N 0.61231 0.51486 0.99522 0.0
C2037 C 0.59693 0.48318 0.99867 0.0
C2038 C 0.6022 0.49727 0.9571 0.0
C2039 C 0.60561 0.5 0.01006 0.0
C2040 C 0.61875 0.45184 0.99002 0.0
N2041 N 0.60178 0.44575 0.99802 0.0
C2042 C 0.61047 0.44703 0.04183 0.0
C2043 C 0.59733 0.44298 0.02328 0.0
C2044 C 0.62829 0.45389 0.03421 0.0
C2045 C 0.63225 0.45591 0.00784 0.0
H2046 H 0.62185 0.45393 0.96976 0.0
H2047 H 0.58371 0.43823 0.02904 0.0
C2048 C 0.53058 0.45375 0.95787 0.0
N2049 N 0.54551 0.45743 0.97124 0.0
C2050 C 0.51966 0.46031 0.96622 0.0
C2051 C 0.53904 0.47339 0.0028 0.0
C2052 C 0.54969 0.46675 0.99357 0.0
C2053 C 0.52392 0.47036 0.98889 0.0
H2054 H 0.52708 0.4457 0.94072 0.0
H2055 H 0.56123 0.46896 0.00434 0.0
C2056 C 0.59243 0.42698 0.91834 0.0
N2057 N 0.60131 0.41372 0.87618 0.0
C2058 C 0.58279 0.42357 0.8955 0.0
C2059 C 0.60658 0.42365 0.91974 0.0
C2060 C 0.58749 0.41686 0.87441 0.0
C2061 C 0.61087 0.41695 0.89821 0.0
C2062 C 0.55376 0.45145 0.90718 0.0
C2063 C 0.54246 0.44408 0.88606 0.0
C2064 C 0.56123 0.46959 0.91243 0.0
C2065 C 0.53878 0.455 0.87058 0.0
C2066 C 0.55722 0.48006 0.89652 0.0
N2067 N 0.54618 0.47261 0.87609 0.0
C2068 C 0.53331 0.39587 0.91744 0.0
C2069 C 0.55457 0.38892 0.93399 0.0
C2070 C 0.52426 0.3794 0.90515 0.0
N2071 N 0.54837 0.40042 0.93099 0.0
C2072 C 0.54598 0.37233 0.92195 0.0
C2073 C 0.53088 0.3676 0.90674 0.0
H2074 H 0.52876 0.40535 0.91533 0.0
H2075 H 0.56662 0.39294 0.94487 0.0
C2076 C 0.61668 0.47767 0.90805 0.0
N2077 N 0.5994 0.46707 0.90119 0.0
C2078 C 0.6296 0.4869 0.88942 0.0
C2079 C 0.60664 0.4743 0.85694 0.0
C2080 C 0.59414 0.46533 0.87626 0.0
C2081 C 0.62469 0.48506 0.86342 0.0
H2082 H 0.6205 0.47847 0.92799 0.0
H2083 H 0.58037 0.45651 0.87123 0.0
O2084 O 0.55937 0.42909 0.97979 0.0
O2085 O 0.58694 0.46545 0.96042 0.0
O2086 O 0.58814 0.43358 0.9393 0.0
O2087 O 0.5576 0.44088 0.92224 0.0
H2088 H 0.52471 0.41495 0.97295 0.0
H2089 H 0.56575 0.40487 -8e-05 0.0
H2090 H 0.50222 0.38362 0.98313 0.0
H2091 H 0.54254 0.37372 0.00965 0.0
H2092 H 0.61631 0.52591 0.95792 0.0
H2093 H 0.59152 0.47138 0.0105 0.0
H2094 H 0.60114 0.4965 0.93639 0.0
H2095 H 0.60702 0.50124 0.0307 0.0
H2096 H 0.60681 0.44544 0.06192 0.0
H2097 H 0.6457 0.46083 0.00101 0.0
H2098 H 0.50789 0.45736 0.95525 0.0
H2099 H 0.54274 0.48104 0.02042 0.0
H2100 H 0.57178 0.42602 0.89402 0.0
H2101 H 0.61417 0.42623 0.93729 0.0
H2102 H 0.58014 0.41415 0.85662 0.0
H2103 H 0.62179 0.41431 0.89902 0.0
H2104 H 0.53665 0.43008 0.88162 0.0
H2105 H 0.56987 0.47549 0.92874 0.0
H2106 H 0.53007 0.44947 0.85417 0.0
H2107 H 0.56287 0.49411 0.90044 0.0
H2108 H 0.51279 0.37637 0.89341 0.0
H2109 H 0.5514 0.36354 0.92388 0.0
H2110 H 0.64338 0.49476 0.89526 0.0
H2111 H 0.6023 0.47255 0.83714 0.0
Li2112 Li 0.53397 0.78689 0.75837 0.0
Li2113 Li 0.52416 0.77877 0.80226 0.0
Li2114 Li 0.55546 0.78687 0.78836 0.0
Li2115 Li 0.52904 0.7595 0.77426 0.0
C2116 C 0.55315 0.81986 0.78691 0.0
N2117 N 0.57175 0.85655 0.78296 0.0
C2118 C 0.54522 0.82976 0.79439 0.0
C2119 C 0.57063 0.82866 0.77771 0.0
C2120 C 0.55482 0.84828 0.79214 0.0
C2121 C 0.57979 0.8472 0.77578 0.0
C2122 C 0.49719 0.77011 0.76794 0.0
C2123 C 0.46634 0.76026 0.75917 0.0
N2124 N 0.46965 0.77719 0.76251 0.0
C2125 C 0.50027 0.78741 0.77126 0.0
C2126 C 0.48009 0.75642 0.76182 0.0
C2127 C 0.48619 0.79072 0.76844 0.0
C2128 C 0.51677 0.78762 0.71296 0.0
N2129 N 0.53102 0.79801 0.72813 0.0
C2130 C 0.53872 0.82321 0.7013 0.0
C2131 C 0.54226 0.81538 0.72219 0.0
C2132 C 0.52346 0.81306 0.6863 0.0
C2133 C 0.51264 0.79491 0.69203 0.0
H2134 H 0.50833 0.77369 0.71747 0.0
H2135 H 0.5539 0.82329 0.73365 0.0
C2136 C 0.52098 0.79623 0.84442 0.0
N2137 N 0.51148 0.78156 0.82967 0.0
C2138 C 0.51262 0.80053 0.86361 0.0
C2139 C 0.48484 0.77418 0.85271 0.0
C2140 C 0.49379 0.77039 0.8336 0.0
C2141 C 0.49426 0.78954 0.86787 0.0
H2142 H 0.53504 0.80484 0.84082 0.0
H2143 H 0.48658 0.75876 0.8216 0.0
C2144 C 0.55272 0.77909 0.72807 0.0
N2145 N 0.55812 0.78509 0.67593 0.0
C2146 C 0.54084 0.7665 0.71066 0.0
C2147 C 0.56739 0.79469 0.719 0.0
C2148 C 0.5438 0.76979 0.68436 0.0
C2149 C 0.56987 0.79749 0.69256 0.0
C2150 C 0.53513 0.75089 0.81922 0.0
C2151 C 0.54888 0.74693 0.81865 0.0
C2152 C 0.51831 0.73821 0.82813 0.0
C2153 C 0.5455 0.7302 0.82688 0.0
C2154 C 0.51546 0.72163 0.83618 0.0
N2155 N 0.529 0.718 0.83537 0.0
C2156 C 0.5831 0.80488 0.82347 0.0
C2157 C 0.59199 0.79768 0.78435 0.0
C2158 C 0.60055 0.81323 0.83258 0.0
N2159 N 0.57923 0.79742 0.79973 0.0
C2160 C 0.60965 0.806 0.79262 0.0
C2161 C 0.61415 0.81397 0.81703 0.0
H2162 H 0.57259 0.80437 0.83524 0.0
H2163 H 0.58846 0.79158 0.76557 0.0
C2164 C 0.50377 0.72333 0.76444 0.0
N2165 N 0.52138 0.73563 0.76526 0.0
C2166 C 0.49818 0.70644 0.75428 0.0
C2167 C 0.52901 0.71507 0.74721 0.0
C2168 C 0.53399 0.73175 0.75747 0.0
C2169 C 0.51088 0.70234 0.74482 0.0
H2170 H 0.49408 0.72687 0.77074 0.0
H2171 H 0.5479 0.74188 0.75834 0.0
O2172 O 0.54409 0.80172 0.78957 0.0
O2173 O 0.51073 0.76645 0.77073 0.0
O2174 O 0.54977 0.77634 0.75387 0.0
O2175 O 0.53803 0.76698 0.81057 0.0
H2176 H 0.53183 0.82326 0.80198 0.0
H2177 H 0.57698 0.82129 0.77164 0.0
H2178 H 0.54882 0.85609 0.79779 0.0
H2179 H 0.59327 0.85415 0.76851 0.0
H2180 H 0.45303 0.74978 0.75445 0.0
H2181 H 0.51339 0.79816 0.77582 0.0
H2182 H 0.47746 0.74295 0.75916 0.0
H2183 H 0.48842 0.80406 0.77094 0.0
H2184 H 0.54772 0.83713 0.69719 0.0
H2185 H 0.50069 0.78653 0.68111 0.0
H2186 H 0.52039 0.81267 0.87445 0.0
H2187 H 0.47073 0.76525 0.85551 0.0
H2188 H 0.52933 0.75444 0.71736 0.0
H2189 H 0.57663 0.80463 0.73223 0.0
H2190 H 0.53466 0.76021 0.67065 0.0
H2191 H 0.5811 0.80955 0.68525 0.0
H2192 H 0.56196 0.75662 0.81168 0.0
H2193 H 0.50753 0.74109 0.82854 0.0
H2194 H 0.55597 0.72689 0.82643 0.0
H2195 H 0.50248 0.71163 0.84298 0.0
H2196 H 0.60332 0.81893 0.85167 0.0
H2197 H 0.6197 0.80644 0.77983 0.0
H2198 H 0.48406 0.69708 0.75257 0.0
H2199 H 0.53922 0.71236 0.74044 0.0
Li2200 Li 0.2141 0.77139 0.78534 0.0
Li2201 Li 0.23957 0.77043 0.77167 0.0
Li2202 Li 0.21107 0.74794 0.75694 0.0
Li2203 Li 0.21989 0.74862 0.80202 0.0
C2204 C 0.21267 0.77667 0.73283 0.0
N2205 N 0.19204 0.78286 0.6986 0.0
C2206 C 0.22055 0.78781 0.71172 0.0
C2207 C 0.19429 0.76862 0.7365 0.0
C2208 C 0.2099 0.79079 0.69464 0.0
C2209 C 0.1841 0.77194 0.71899 0.0
C2210 C 0.24458 0.79244 0.81348 0.0
C2211 C 0.26041 0.81561 0.84472 0.0
N2212 N 0.26472 0.82806 0.82605 0.0
C2213 C 0.24916 0.80547 0.7946 0.0
C2214 C 0.25024 0.79754 0.83874 0.0
C2215 C 0.25935 0.8234 0.80133 0.0
C2216 C 0.19369 0.78173 0.81486 0.0
N2217 N 0.20471 0.78636 0.79424 0.0
C2218 C 0.20167 0.81185 0.7865 0.0
C2219 C 0.20898 0.80121 0.78028 0.0
C2220 C 0.19012 0.80731 0.80754 0.0
C2221 C 0.18626 0.79214 0.822 0.0
H2222 H 0.19062 0.76989 0.82568 0.0
H2223 H 0.21803 0.80481 0.76424 0.0
C2224 C 0.26382 0.78063 0.7332 0.0
N2225 N 0.26317 0.78343 0.75871 0.0
C2226 C 0.28008 0.78785 0.7206 0.0
C2227 C 0.29487 0.80145 0.76054 0.0
C2228 C 0.27822 0.79362 0.77258 0.0
C2229 C 0.29584 0.79831 0.73432 0.0
H2230 H 0.25161 0.77238 0.72279 0.0
H2231 H 0.27735 0.79539 0.79296 0.0
C2232 C 0.18364 0.72845 0.79228 0.0
N2233 N 0.15688 0.69383 0.80069 0.0
C2234 C 0.18632 0.71426 0.78627 0.0
C2235 C 0.16737 0.72503 0.8026 0.0
C2236 C 0.17262 0.69685 0.79066 0.0
C2237 C 0.154 0.70744 0.80669 0.0
C2238 C 0.24561 0.74372 0.77065 0.0
C2239 C 0.24997 0.73677 0.74946 0.0
C2240 C 0.25745 0.75065 0.7913 0.0
C2241 C 0.26622 0.73709 0.74914 0.0
C2242 C 0.27356 0.7507 0.79025 0.0
N2243 N 0.27759 0.744 0.76936 0.0
C2244 C 0.21019 0.73367 0.70933 0.0
C2245 C 0.18123 0.72421 0.72526 0.0
C2246 C 0.20319 0.72318 0.68749 0.0
N2247 N 0.19923 0.73365 0.72792 0.0
C2248 C 0.17362 0.71359 0.70357 0.0
C2249 C 0.18465 0.71274 0.68449 0.0
H2250 H 0.22442 0.74176 0.71165 0.0
H2251 H 0.17279 0.72483 0.73998 0.0
C2252 C 0.20725 0.73421 0.85109 0.0
N2253 N 0.21648 0.73349 0.8305 0.0
C2254 C 0.2026 0.72189 0.87104 0.0
C2255 C 0.21748 0.70868 0.84851 0.0
C2256 C 0.22158 0.72103 0.82884 0.0
C2257 C 0.20768 0.70888 0.86978 0.0
H2258 H 0.20304 0.74403 0.85162 0.0
H2259 H 0.22829 0.72025 0.81188 0.0
O2260 O 0.22303 0.77361 0.74953 0.0
O2261 O 0.23449 0.77476 0.80753 0.0
O2262 O 0.1969 0.74565 0.78861 0.0
O2263 O 0.23003 0.74411 0.77105 0.0
H2264 H 0.23476 0.79409 0.70858 0.0
H2265 H 0.18791 0.75995 0.75268 0.0
H2266 H 0.21582 0.79941 0.67823 0.0
H2267 H 0.16986 0.76582 0.72162 0.0
H2268 H 0.26488 0.81975 0.8642 0.0
H2269 H 0.24499 0.80183 0.77492 0.0
H2270 H 0.24677 0.78761 0.85359 0.0
H2271 H 0.26299 0.83361 0.78691 0.0
H2272 H 0.20513 0.82358 0.77511 0.0
H2273 H 0.17734 0.78819 0.83829 0.0
H2274 H 0.28035 0.7853 0.70029 0.0
H2275 H 0.30683 0.80942 0.77165 0.0
H2276 H 0.19881 0.7166 0.77831 0.0
H2277 H 0.16513 0.73589 0.80744 0.0
H2278 H 0.17451 0.68575 0.78611 0.0
H2279 H 0.14134 0.7046 0.81467 0.0
H2280 H 0.24093 0.73119 0.73343 0.0
H2281 H 0.25433 0.75616 0.80781 0.0
H2282 H 0.2698 0.73183 0.73282 0.0
H2283 H 0.2829 0.75615 0.80601 0.0
H2284 H 0.21226 0.72288 0.67351 0.0
H2285 H 0.15926 0.70607 0.70184 0.0
H2286 H 0.195 0.72243 0.88716 0.0
H2287 H 0.22134 0.69863 0.84664 0.0
Li2288 Li 0.25236 0.46151 0.75721 0.0
Li2289 Li 0.24732 0.46762 0.80357 0.0
Li2290 Li 0.22881 0.43873 0.78362 0.0
Li2291 Li 0.22646 0.46307 0.76959 0.0
C2292 C 0.25724 0.43662 0.7926 0.0
N2293 N 0.26035 0.40666 0.79849 0.0
C2294 C 0.25563 0.42917 0.81691 0.0
C2295 C 0.26051 0.4289 0.77128 0.0
C2296 C 0.25721 0.414 0.81949 0.0
C2297 C 0.26204 0.41375 0.77466 0.0
C2298 C 0.25137 0.49651 0.76178 0.0
C2299 C 0.24656 0.52148 0.7658 0.0
N2300 N 0.24946 0.52459 0.74018 0.0
C2301 C 0.25448 0.50008 0.73555 0.0
C2302 C 0.24754 0.50739 0.77709 0.0
C2303 C 0.25339 0.51429 0.72497 0.0
C2304 C 0.26637 0.46542 0.7069 0.0
N2305 N 0.27029 0.46814 0.73233 0.0
C2306 C 0.30127 0.4859 0.72338 0.0
C2307 C 0.2873 0.4778 0.74085 0.0
C2308 C 0.29764 0.48409 0.69693 0.0
C2309 C 0.27997 0.47329 0.68869 0.0
H2310 H 0.25263 0.45794 0.70077 0.0
H2311 H 0.2899 0.47983 0.76124 0.0
C2312 C 0.25731 0.4692 0.85492 0.0
N2313 N 0.26033 0.47915 0.83341 0.0
C2314 C 0.26934 0.47578 0.8753 0.0
C2315 C 0.28656 0.50323 0.85174 0.0
C2316 C 0.2743 0.49603 0.83165 0.0
C2317 C 0.28448 0.49278 0.87345 0.0
H2318 H 0.24612 0.45578 0.8556 0.0
H2319 H 0.2765 0.50347 0.81406 0.0
C2320 C 0.21147 0.43279 0.73738 0.0
N2321 N 0.1789 0.40814 0.71709 0.0
C2322 C 0.19583 0.42787 0.75104 0.0
C2323 C 0.21055 0.42516 0.7134 0.0
C2324 C 0.17949 0.4154 0.74046 0.0
C2325 C 0.19396 0.41272 0.70347 0.0
C2326 C 0.21078 0.4571 0.81876 0.0
C2327 C 0.19265 0.4449 0.82182 0.0
C2328 C 0.21818 0.47374 0.83063 0.0
C2329 C 0.18216 0.44972 0.83626 0.0
C2330 C 0.20725 0.47806 0.84493 0.0
N2331 N 0.1896 0.46607 0.84739 0.0
C2332 C 0.20849 0.40928 0.81487 0.0
C2333 C 0.21436 0.40177 0.77367 0.0
C2334 C 0.19832 0.39135 0.82141 0.0
N2335 N 0.21612 0.41409 0.7913 0.0
C2336 C 0.20424 0.38366 0.77937 0.0
C2337 C 0.19597 0.37827 0.80347 0.0
H2338 H 0.21016 0.41942 0.82848 0.0
H2339 H 0.22071 0.40601 0.75513 0.0
C2340 C 0.21215 0.47056 0.72799 0.0
N2341 N 0.21113 0.47043 0.75402 0.0
C2342 C 0.20159 0.47491 0.7131 0.0
C2343 C 0.18927 0.47954 0.75197 0.0
C2344 C 0.20012 0.475 0.76622 0.0
C2345 C 0.1898 0.47928 0.72502 0.0
H2346 H 0.22128 0.46726 0.71872 0.0
H2347 H 0.19963 0.47511 0.78688 0.0
O2348 O 0.25518 0.45114 0.78952 0.0
O2349 O 0.25194 0.48237 0.77234 0.0
O2350 O 0.22767 0.44489 0.7474 0.0
O2351 O 0.22126 0.45249 0.80492 0.0
H2352 H 0.25298 0.43491 0.83357 0.0
H2353 H 0.26164 0.43442 0.7523 0.0
H2354 H 0.2559 0.40802 0.83817 0.0
H2355 H 0.26448 0.40757 0.75833 0.0
H2356 H 0.2435 0.52994 0.7774 0.0
H2357 H 0.25746 0.49181 0.72339 0.0
H2358 H 0.24531 0.505 0.79746 0.0
H2359 H 0.25561 0.5171 0.70465 0.0
H2360 H 0.31473 0.49393 0.7305 0.0
H2361 H 0.27661 0.47172 0.66848 0.0
H2362 H 0.26726 0.4674 0.89184 0.0
H2363 H 0.29816 0.51632 0.84955 0.0
H2364 H 0.1963 0.43364 0.76956 0.0
H2365 H 0.22255 0.42878 0.70263 0.0
H2366 H 0.16729 0.41149 0.75084 0.0
H2367 H 0.19305 0.4067 0.68494 0.0
H2368 H 0.18675 0.43181 0.81322 0.0
H2369 H 0.23219 0.48324 0.82887 0.0
H2370 H 0.1681 0.44044 0.83867 0.0
H2371 H 0.21279 0.49093 0.8541 0.0
H2372 H 0.19201 0.38777 0.84008 0.0
H2373 H 0.20293 0.37399 0.76512 0.0
H2374 H 0.2028 0.47501 0.6924 0.0
H2375 H 0.1804 0.48292 0.76188 0.0
Li2376 Li 0.42952 0.86449 0.06726 0.0
Li2377 Li 0.45538 0.89378 0.04958 0.0
Li2378 Li 0.4517 0.86493 0.03846 0.0
Li2379 Li 0.46053 0.87581 0.08038 0.0
C2380 C 0.4275 0.86503 0.00868 0.0
N2381 N 0.41385 0.84737 0.96291 0.0
C2382 C 0.43641 0.87243 0.98566 0.0
C2383 C 0.41162 0.84872 0.00846 0.0
C2384 C 0.4293 0.86326 0.96271 0.0
C2385 C 0.40493 0.83999 0.9851 0.0
C2386 C 0.45163 0.89444 0.1091 0.0
C2387 C 0.47306 0.91748 0.13677 0.0
N2388 N 0.46404 0.90767 0.15761 0.0
C2389 C 0.44252 0.88463 0.13077 0.0
C2390 C 0.46698 0.91103 0.11207 0.0
C2391 C 0.44903 0.89153 0.15514 0.0
C2392 C 0.40352 0.84198 0.10066 0.0
N2393 N 0.40626 0.85303 0.08058 0.0
C2394 C 0.37782 0.85053 0.08686 0.0
C2395 C 0.39374 0.85716 0.07311 0.0
C2396 C 0.37511 0.83988 0.10858 0.0
C2397 C 0.38796 0.83523 0.11503 0.0
H2398 H 0.41385 0.83916 0.1063 0.0
H2399 H 0.39646 0.86621 0.05724 0.0
C2400 C 0.47141 0.92225 0.01529 0.0
N2401 N 0.46187 0.9167 0.03738 0.0
C2402 C 0.47702 0.93928 0.00583 0.0
C2403 C 0.46261 0.94444 0.04188 0.0
C2404 C 0.45727 0.92728 0.05064 0.0
C2405 C 0.47273 0.95068 0.01927 0.0
H2406 H 0.47483 0.91348 0.0052 0.0
H2407 H 0.44964 0.92245 0.06816 0.0
C2408 C 0.442 0.83586 0.06742 0.0
N2409 N 0.44127 0.80398 0.06015 0.0
C2410 C 0.45781 0.8353 0.06781 0.0
C2411 C 0.42579 0.82019 0.06367 0.0
C2412 C 0.45718 0.81906 0.06399 0.0
C2413 C 0.42571 0.80421 0.05995 0.0
C2414 C 0.49137 0.89592 0.05387 0.0
C2415 C 0.50099 0.88695 0.05492 0.0
C2416 C 0.50012 0.91429 0.05809 0.0
C2417 C 0.51917 0.89648 0.06051 0.0
C2418 C 0.51833 0.92335 0.06356 0.0
N2419 N 0.52738 0.91432 0.06468 0.0
C2420 C 0.47254 0.86119 0.00123 0.0
C2421 C 0.4438 0.83569 0.00385 0.0
C2422 C 0.47799 0.8526 0.98402 0.0
N2423 N 0.4559 0.8525 0.01141 0.0
C2424 C 0.44866 0.82661 0.98642 0.0
C2425 C 0.46613 0.83495 0.97691 0.0
H2426 H 0.48177 0.87469 0.00694 0.0
H2427 H 0.43055 0.82913 0.01186 0.0
C2428 C 0.46384 0.8601 0.12437 0.0
N2429 N 0.47318 0.87518 0.11029 0.0
C2430 C 0.47157 0.85681 0.14551 0.0
C2431 C 0.4982 0.88511 0.1384 0.0
C2432 C 0.48985 0.88793 0.11742 0.0
C2433 C 0.48912 0.8692 0.15243 0.0
H2434 H 0.45042 0.85039 0.11887 0.0
H2435 H 0.4968 0.90018 0.10677 0.0
O2436 O 0.43437 0.87363 0.03138 0.0
O2437 O 0.44582 0.88765 0.08509 0.0
O2438 O 0.44236 0.85164 0.0709 0.0
O2439 O 0.47363 0.88686 0.04797 0.0
H2440 H 0.44874 0.88503 0.98556 0.0
H2441 H 0.40463 0.84279 0.02616 0.0
H2442 H 0.43608 0.86876 0.94474 0.0
H2443 H 0.39269 0.82731 0.98463 0.0
H2444 H 0.48498 0.93025 0.13937 0.0
H2445 H 0.43067 0.87173 0.1288 0.0
H2446 H 0.47424 0.91875 0.0955 0.0
H2447 H 0.44218 0.88403 0.17209 0.0
H2448 H 0.36822 0.85446 0.08149 0.0
H2449 H 0.38625 0.82695 0.13157 0.0
H2450 H 0.48458 0.94346 0.98816 0.0
H2451 H 0.45917 0.95285 0.05297 0.0
H2452 H 0.47042 0.84728 0.071 0.0
H2453 H 0.41343 0.82042 0.06335 0.0
H2454 H 0.46932 0.81844 0.06409 0.0
H2455 H 0.41328 0.79199 0.05685 0.0
H2456 H 0.49451 0.87279 0.0514 0.0
H2457 H 0.49297 0.9215 0.0573 0.0
H2458 H 0.52675 0.88969 0.06146 0.0
H2459 H 0.52524 0.93754 0.06697 0.0
H2460 H 0.49145 0.85962 0.97661 0.0
H2461 H 0.43912 0.81301 0.98123 0.0
H2462 H 0.46409 0.8443 0.15563 0.0
H2463 H 0.51166 0.89513 0.14339 0.0
Li2464 Li 0.13906 0.58598 0.03523 0.0
Li2465 Li 0.13087 0.5822 0.0791 0.0
Li2466 Li 0.13879 0.56224 0.06032 0.0
Li2467 Li 0.11053 0.56114 0.04863 0.0
C2468 C 0.17103 0.59315 0.05654 0.0
N2469 N 0.20498 0.60307 0.03992 0.0
C2470 C 0.18583 0.60563 0.0704 0.0
C2471 C 0.1735 0.58568 0.03423 0.0
C2472 C 0.20289 0.61048 0.06168 0.0
C2473 C 0.19077 0.59088 0.02615 0.0
C2474 C 0.12177 0.60385 0.05079 0.0
C2475 C 0.11236 0.62514 0.04164 0.0
N2476 N 0.12835 0.63847 0.05008 0.0
C2477 C 0.13812 0.61776 0.05934 0.0
C2478 C 0.10878 0.60756 0.04184 0.0
C2479 C 0.14118 0.63516 0.05884 0.0
C2480 C 0.14031 0.59979 0.98626 0.0
N2481 N 0.14969 0.60306 0.00844 0.0
C2482 C 0.17141 0.63195 0.99355 0.0
C2483 C 0.16502 0.61872 0.01235 0.0
C2484 C 0.16178 0.62912 0.97069 0.0
C2485 C 0.14613 0.61272 0.96703 0.0
H2486 H 0.12801 0.58732 0.98388 0.0
H2487 H 0.17197 0.62127 0.03043 0.0
C2488 C 0.14758 0.59762 0.12506 0.0
N2489 N 0.13335 0.59452 0.11045 0.0
C2490 C 0.15138 0.60753 0.14757 0.0
C2491 C 0.12546 0.61045 0.14005 0.0
C2492 C 0.12216 0.60046 0.1176 0.0
C2493 C 0.14042 0.61434 0.15516 0.0
H2494 H 0.15621 0.59268 0.11887 0.0
H2495 H 0.11086 0.59769 0.10567 0.0
C2496 C 0.12232 0.54406 0.01474 0.0
N2497 N 0.10915 0.51059 0.99358 0.0
C2498 C 0.11073 0.52892 0.02884 0.0
C2499 C 0.12719 0.54217 0.98988 0.0
C2500 C 0.10421 0.51212 0.01779 0.0
C2501 C 0.12041 0.52514 0.97954 0.0
C2502 C 0.11165 0.5542 0.10649 0.0
C2503 C 0.12019 0.55074 0.12654 0.0
C2504 C 0.09722 0.55663 0.11181 0.0
C2505 C 0.11422 0.54991 0.15168 0.0
C2506 C 0.09164 0.55567 0.1372 0.0
N2507 N 0.10019 0.55238 0.15644 0.0
C2508 C 0.16089 0.55643 0.09058 0.0
C2509 C 0.1499 0.53533 0.05678 0.0
C2510 C 0.17007 0.54859 0.10101 0.0
N2511 N 0.15091 0.54967 0.06904 0.0
C2512 C 0.15868 0.52684 0.06685 0.0
C2513 C 0.16885 0.53346 0.08934 0.0
H2514 H 0.16142 0.56778 0.1 0.0
H2515 H 0.14217 0.5303 0.03945 0.0
C2516 C 0.08256 0.54982 0.01385 0.0
N2517 N 0.08664 0.54665 0.03772 0.0
C2518 C 0.06536 0.53948 0.00415 0.0
C2519 C 0.05686 0.52288 0.04391 0.0
C2520 C 0.07428 0.53342 0.05273 0.0
C2521 C 0.05225 0.52585 0.0193 0.0
H2522 H 0.09274 0.56038 0.00233 0.0
H2523 H 0.07799 0.53094 0.07143 0.0
O2524 O 0.15428 0.58827 0.0651 0.0
O2525 O 0.11843 0.58668 0.0508 0.0
O2526 O 0.1286 0.56071 0.02478 0.0
O2527 O 0.11756 0.5555 0.08182 0.0
H2528 H 0.18414 0.61151 0.08773 0.0
H2529 H 0.16228 0.57598 0.02322 0.0
H2530 H 0.21446 0.62014 0.07222 0.0
H2531 H 0.19288 0.58522 0.00893 0.0
H2532 H 0.10243 0.6282 0.03477 0.0
H2533 H 0.14836 0.6152 0.06627 0.0
H2534 H 0.09608 0.59694 0.03508 0.0
H2535 H 0.15377 0.64604 0.0654 0.0
H2536 H 0.18338 0.64452 0.99729 0.0
H2537 H 0.13838 0.60999 0.9496 0.0
H2538 H 0.1632 0.6104 0.15833 0.0
H2539 H 0.11656 0.61528 0.14533 0.0
H2540 H 0.10688 0.53006 0.04815 0.0
H2541 H 0.13608 0.55377 0.97869 0.0
H2542 H 0.09525 0.5003 0.02848 0.0
H2543 H 0.12408 0.52348 0.96032 0.0
H2544 H 0.13133 0.54877 0.12277 0.0
H2545 H 0.09061 0.55956 0.09654 0.0
H2546 H 0.12074 0.54731 0.1674 0.0
H2547 H 0.08057 0.55766 0.14162 0.0
H2548 H 0.17756 0.55396 0.11857 0.0
H2549 H 0.15752 0.51523 0.05727 0.0
H2550 H 0.06229 0.54225 0.98514 0.0
H2551 H 0.04717 0.51234 0.05602 0.0
Li2552 Li 0.43176 0.54153 0.04595 0.0
Li2553 Li 0.43463 0.56962 0.0604 0.0
Li2554 Li 0.41245 0.54099 0.0776 0.0
Li2555 Li 0.40921 0.54806 0.03244 0.0
C2556 C 0.43971 0.54862 0.10551 0.0
N2557 N 0.44008 0.54012 0.15658 0.0
C2558 C 0.44236 0.56095 0.12471 0.0
C2559 C 0.43751 0.53206 0.11231 0.0
C2560 C 0.44244 0.55639 0.15041 0.0
C2561 C 0.43767 0.52798 0.13822 0.0
C2562 C 0.44968 0.56561 0.01024 0.0
C2563 C 0.46391 0.56679 0.96993 0.0
N2564 N 0.47932 0.57143 0.98262 0.0
C2565 C 0.46572 0.57053 0.02285 0.0
C2566 C 0.44879 0.56382 0.98354 0.0
C2567 C 0.48053 0.57336 0.00857 0.0
C2568 C 0.44196 0.52344 0.01016 0.0
N2569 N 0.44515 0.53084 0.03396 0.0
C2570 C 0.46842 0.52416 0.04075 0.0
C2571 C 0.45818 0.53146 0.04916 0.0
C2572 C 0.46522 0.5161 0.01643 0.0
C2573 C 0.45177 0.51583 0.00106 0.0
H2574 H 0.43179 0.52347 0.99822 0.0
H2575 H 0.46085 0.53793 0.06766 0.0
C2576 C 0.44371 0.59966 0.08989 0.0
N2577 N 0.44902 0.59418 0.06897 0.0
C2578 C 0.45362 0.61716 0.09848 0.0
C2579 C 0.47406 0.62338 0.06331 0.0
C2580 C 0.46367 0.60571 0.05532 0.0
C2581 C 0.46915 0.62924 0.08533 0.0
H2582 H 0.43187 0.5903 0.1002 0.0
H2583 H 0.46738 0.60125 0.03831 0.0
C2584 C 0.4029 0.5098 0.03715 0.0
N2585 N 0.39795 0.47825 0.01657 0.0
C2586 C 0.39458 0.50387 0.01333 0.0
C2587 C 0.40839 0.49947 0.0507 0.0
C2588 C 0.39227 0.48794 0.00321 0.0
C2589 C 0.40588 0.48364 0.03992 0.0
C2590 C 0.40489 0.57362 0.05967 0.0
C2591 C 0.39364 0.57631 0.07593 0.0
C2592 C 0.41221 0.58449 0.03811 0.0
C2593 C 0.3899 0.58985 0.07035 0.0
C2594 C 0.40814 0.59788 0.0332 0.0
N2595 N 0.39716 0.60026 0.04928 0.0
C2596 C 0.39577 0.54057 0.12387 0.0
C2597 C 0.39125 0.51234 0.11144 0.0
C2598 C 0.38404 0.53299 0.14444 0.0
N2599 N 0.39881 0.53015 0.1076 0.0
C2600 C 0.37956 0.50421 0.13191 0.0
C2601 C 0.37542 0.51448 0.14835 0.0
H2602 H 0.40201 0.55472 0.12032 0.0
H2603 H 0.39385 0.50436 0.0982 0.0
C2604 C 0.39444 0.54233 0.98231 0.0
N2605 N 0.39214 0.54545 0.00719 0.0
C2606 C 0.38115 0.53861 0.96421 0.0
C2607 C 0.36373 0.54221 0.99739 0.0
C2608 C 0.37715 0.54542 0.01497 0.0
C2609 C 0.36556 0.53844 0.97181 0.0
H2610 H 0.4062 0.5419 0.97679 0.0
H2611 H 0.37535 0.54737 0.03498 0.0
O2612 O 0.43909 0.55266 0.08024 0.0
O2613 O 0.43492 0.56233 0.02404 0.0
O2614 O 0.40536 0.52546 0.04726 0.0
O2615 O 0.40878 0.5605 0.06506 0.0
H2616 H 0.44428 0.57388 0.11991 0.0
H2617 H 0.43565 0.5224 0.0978 0.0
H2618 H 0.44436 0.56578 0.16545 0.0
H2619 H 0.43586 0.51516 0.14372 0.0
H2620 H 0.46338 0.56541 0.94926 0.0
H2621 H 0.46663 0.57187 0.04353 0.0
H2622 H 0.4366 0.56021 0.97338 0.0
H2623 H 0.49297 0.57702 0.01813 0.0
H2624 H 0.47893 0.5251 0.05301 0.0
H2625 H 0.44873 0.50968 0.98227 0.0
H2626 H 0.44943 0.62102 0.11571 0.0
H2627 H 0.48581 0.63235 0.05243 0.0
H2628 H 0.38988 0.51141 0.00278 0.0
H2629 H 0.41476 0.50373 0.06915 0.0
H2630 H 0.38593 0.48327 0.98473 0.0
H2631 H 0.41026 0.47565 0.0501 0.0
H2632 H 0.38785 0.56802 0.09268 0.0
H2633 H 0.42096 0.58266 0.0253 0.0
H2634 H 0.38121 0.59208 0.08277 0.0
H2635 H 0.41372 0.60639 0.0166 0.0
H2636 H 0.38114 0.54145 0.15633 0.0
H2637 H 0.37348 0.48996 0.1344 0.0
H2638 H 0.38285 0.53556 0.94461 0.0
H2639 H 0.35171 0.54186 0.00394 0.0
Li2640 Li 0.13186 0.5761 0.555 0.0
Li2641 Li 0.13098 0.54991 0.57411 0.0
Li2642 Li 0.13796 0.55738 0.52928 0.0
Li2643 Li 0.10767 0.54682 0.54478 0.0
C2644 C 0.16878 0.57836 0.5509 0.0
N2645 N 0.20295 0.59183 0.53225 0.0
C2646 C 0.18034 0.57353 0.56229 0.0
C2647 C 0.1747 0.59026 0.5303 0.0
C2648 C 0.19754 0.58043 0.55252 0.0
C2649 C 0.19199 0.59685 0.52106 0.0
C2650 C 0.11495 0.5658 0.60249 0.0
C2651 C 0.10174 0.57197 0.63893 0.0
N2652 N 0.11821 0.58233 0.64916 0.0
C2653 C 0.13176 0.57655 0.61338 0.0
C2654 C 0.09982 0.56355 0.61533 0.0
C2655 C 0.13312 0.58477 0.63698 0.0
C2656 C 0.12301 0.60158 0.57056 0.0
N2657 N 0.13696 0.59952 0.5635 0.0
C2658 C 0.15764 0.62823 0.58005 0.0
C2659 C 0.15406 0.61263 0.56732 0.0
C2660 C 0.14346 0.63014 0.58922 0.0
C2661 C 0.12597 0.61687 0.58354 0.0
H2662 H 0.10955 0.59076 0.56789 0.0
H2663 H 0.16489 0.61047 0.56222 0.0
C2664 C 0.14685 0.53251 0.59635 0.0
N2665 N 0.13611 0.5392 0.60235 0.0
C2666 C 0.15212 0.52473 0.61524 0.0
C2667 C 0.13473 0.53033 0.64616 0.0
C2668 C 0.12962 0.53784 0.62655 0.0
C2669 C 0.14622 0.52378 0.64058 0.0
H2670 H 0.15144 0.53338 0.57682 0.0
H2671 H 0.12048 0.54251 0.63078 0.0
C2672 C 0.11869 0.57948 0.51159 0.0
N2673 N 0.11243 0.60601 0.49455 0.0
C2674 C 0.10222 0.57824 0.51598 0.0
C2675 C 0.13192 0.59413 0.49832 0.0
C2676 C 0.09933 0.59181 0.50727 0.0
C2677 C 0.12852 0.60743 0.48992 0.0
C2678 C 0.11051 0.51673 0.55221 0.0
C2679 C 0.11113 0.50287 0.53955 0.0
C2680 C 0.09904 0.51295 0.57308 0.0
C2681 C 0.10021 0.48539 0.54795 0.0
C2682 C 0.08833 0.49531 0.5809 0.0
N2683 N 0.08913 0.48201 0.56828 0.0
C2684 C 0.16015 0.54647 0.50648 0.0
C2685 C 0.14877 0.55936 0.47741 0.0
C2686 C 0.16806 0.5423 0.4864 0.0
N2687 N 0.15065 0.55473 0.50162 0.0
C2688 C 0.1563 0.55527 0.45669 0.0
C2689 C 0.16586 0.54638 0.46106 0.0
H2690 H 0.16108 0.54261 0.52591 0.0
H2691 H 0.14092 0.56569 0.47411 0.0
C2692 C 0.07035 0.52901 0.55319 0.0
N2693 N 0.08343 0.53286 0.53578 0.0
C2694 C 0.05252 0.51933 0.54575 0.0
C2695 C 0.06207 0.51756 0.50277 0.0
C2696 C 0.07969 0.52728 0.51104 0.0
C2697 C 0.0482 0.51359 0.52017 0.0
H2698 H 0.07378 0.53357 0.57276 0.0
H2699 H 0.09045 0.53065 0.49767 0.0
O2700 O 0.15178 0.57153 0.55993 0.0
O2701 O 0.11329 0.55831 0.57877 0.0
O2702 O 0.12186 0.56645 0.52028 0.0
O2703 O 0.12123 0.53389 0.54425 0.0
H2704 H 0.17612 0.56462 0.57855 0.0
H2705 H 0.16597 0.59422 0.5214 0.0
H2706 H 0.20659 0.57674 0.56108 0.0
H2707 H 0.19668 0.60596 0.50498 0.0
H2708 H 0.09014 0.57035 0.64905 0.0
H2709 H 0.14367 0.57861 0.60374 0.0
H2710 H 0.08673 0.55551 0.60706 0.0
H2711 H 0.14604 0.59313 0.64557 0.0
H2712 H 0.17131 0.63804 0.5844 0.0
H2713 H 0.11471 0.61789 0.59029 0.0
H2714 H 0.16104 0.51987 0.61017 0.0
H2715 H 0.12967 0.52953 0.6654 0.0
H2716 H 0.09185 0.56706 0.52632 0.0
H2717 H 0.14468 0.59523 0.49449 0.0
H2718 H 0.08668 0.59108 0.51069 0.0
H2719 H 0.13866 0.61887 0.4797 0.0
H2720 H 0.12 0.5056 0.52341 0.0
H2721 H 0.09843 0.5235 0.58322 0.0
H2722 H 0.10055 0.47452 0.53833 0.0
H2723 H 0.07939 0.49219 0.59702 0.0
H2724 H 0.17508 0.5352 0.49054 0.0
H2725 H 0.15437 0.55868 0.43742 0.0
H2726 H 0.04223 0.51636 0.55984 0.0
H2727 H 0.05935 0.5136 0.48282 0.0
Li2728 Li 0.42748 0.56561 0.55357 0.0
Li2729 Li 0.45626 0.58812 0.57069 0.0
Li2730 Li 0.44789 0.58957 0.5264 0.0
Li2731 Li 0.4549 0.56686 0.54015 0.0
C2732 C 0.43284 0.60439 0.55287 0.0
N2733 N 0.42673 0.63177 0.53993 0.0
C2734 C 0.44334 0.62133 0.56346 0.0
C2735 C 0.41918 0.60137 0.5358 0.0
C2736 C 0.44005 0.63499 0.55667 0.0
C2737 C 0.41632 0.61539 0.52946 0.0
C2738 C 0.4466 0.56116 0.60045 0.0
C2739 C 0.46521 0.56457 0.63688 0.0
N2740 N 0.45156 0.56144 0.65287 0.0
C2741 C 0.43276 0.55799 0.61725 0.0
C2742 C 0.46296 0.56447 0.61032 0.0
C2743 C 0.43553 0.55817 0.64369 0.0
C2744 C 0.39824 0.53256 0.5673 0.0
N2745 N 0.40352 0.54999 0.56325 0.0
C2746 C 0.37658 0.54611 0.58147 0.0
C2747 C 0.39295 0.55682 0.5696 0.0
C2748 C 0.37115 0.52827 0.58704 0.0
C2749 C 0.38193 0.52135 0.57906 0.0
H2750 H 0.40717 0.52764 0.56278 0.0
H2751 H 0.39764 0.5708 0.56678 0.0
C2752 C 0.48576 0.61119 0.60176 0.0
N2753 N 0.46775 0.6024 0.59984 0.0
C2754 C 0.49424 0.62334 0.62163 0.0
C2755 C 0.4654 0.6168 0.63746 0.0
C2756 C 0.45749 0.60464 0.61746 0.0
C2757 C 0.48405 0.62667 0.6394 0.0
H2758 H 0.49359 0.60922 0.58741 0.0
H2759 H 0.44318 0.59755 0.61527 0.0
C2760 C 0.41998 0.54965 0.509 0.0
N2761 N 0.38895 0.52021 0.49255 0.0
C2762 C 0.41834 0.5328 0.50969 0.0
C2763 C 0.4059 0.55156 0.49978 0.0
C2764 C 0.40253 0.51807 0.50131 0.0
C2765 C 0.3903 0.5365 0.49161 0.0
C2766 C 0.48553 0.5945 0.52812 0.0
C2767 C 0.4888 0.5991 0.50217 0.0
C2768 C 0.49701 0.59058 0.54179 0.0
C2769 C 0.50348 0.59962 0.4903 0.0
C2770 C 0.51152 0.59119 0.5292 0.0
N2771 N 0.51443 0.59567 0.50393 0.0
C2772 C 0.46197 0.62348 0.50547 0.0
C2773 C 0.44321 0.60055 0.47662 0.0
C2774 C 0.46531 0.63643 0.48707 0.0
N2775 N 0.45096 0.60598 0.50006 0.0
C2776 C 0.44651 0.61308 0.45739 0.0
C2777 C 0.45765 0.63125 0.46265 0.0
H2778 H 0.46835 0.62733 0.52404 0.0
H2779 H 0.43473 0.58652 0.47275 0.0
C2780 C 0.46879 0.54365 0.54654 0.0
N2781 N 0.46505 0.55303 0.52924 0.0
C2782 C 0.4767 0.53388 0.5385 0.0
C2783 C 0.47641 0.54336 0.49494 0.0
C2784 C 0.46847 0.5529 0.50382 0.0
C2785 C 0.48071 0.53374 0.5124 0.0
H2786 H 0.46572 0.54382 0.56658 0.0
H2787 H 0.46511 0.56032 0.49049 0.0
O2788 O 0.43605 0.5909 0.55892 0.0
O2789 O 0.4443 0.56148 0.57451 0.0
O2790 O 0.43522 0.56419 0.5175 0.0
O2791 O 0.471 0.59353 0.53996 0.0
H2792 H 0.4541 0.62399 0.57646 0.0
H2793 H 0.41099 0.58839 0.5273 0.0
H2794 H 0.44813 0.64818 0.56461 0.0
H2795 H 0.40587 0.61326 0.51615 0.0
H2796 H 0.47784 0.56723 0.64477 0.0
H2797 H 0.42007 0.55561 0.61003 0.0
H2798 H 0.47392 0.56725 0.59763 0.0
H2799 H 0.42495 0.55579 0.65691 0.0
H2800 H 0.3686 0.55192 0.58724 0.0
H2801 H 0.37835 0.50775 0.58337 0.0
H2802 H 0.50863 0.63041 0.62259 0.0
H2803 H 0.45698 0.61907 0.6504 0.0
H2804 H 0.42907 0.53106 0.51687 0.0
H2805 H 0.40697 0.56451 0.49906 0.0
H2806 H 0.40104 0.50493 0.50186 0.0
H2807 H 0.37926 0.53777 0.48454 0.0
H2808 H 0.48002 0.60208 0.49123 0.0
H2809 H 0.49455 0.58673 0.56177 0.0
H2810 H 0.50614 0.60309 0.47021 0.0
H2811 H 0.52042 0.58803 0.53948 0.0
H2812 H 0.47423 0.65031 0.49161 0.0
H2813 H 0.44048 0.60865 0.43865 0.0
H2814 H 0.4799 0.52674 0.55262 0.0
H2815 H 0.47902 0.54339 0.47461 0.0
Li2816 Li 0.4174 0.86647 0.57474 0.0
Li2817 Li 0.43922 0.86105 0.55308 0.0
Li2818 Li 0.43848 0.88839 0.54591 0.0
Li2819 Li 0.41518 0.85999 0.52877 0.0
C2820 C 0.4453 0.88159 0.60408 0.0
N2821 N 0.44704 0.88349 0.65704 0.0
C2822 C 0.44961 0.87049 0.61803 0.0
C2823 C 0.4419 0.89367 0.61709 0.0
C2824 C 0.45044 0.87167 0.64478 0.0
C2825 C 0.44282 0.8944 0.64387 0.0
C2826 C 0.39958 0.82848 0.55104 0.0
C2827 C 0.3865 0.80228 0.52431 0.0
N2828 N 0.37052 0.7967 0.53589 0.0
C2829 C 0.38305 0.82246 0.56275 0.0
C2830 C 0.40136 0.81828 0.53176 0.0
C2831 C 0.36851 0.80636 0.5548 0.0
C2832 C 0.39416 0.86988 0.60976 0.0
N2833 N 0.40388 0.86182 0.60528 0.0
C2834 C 0.39249 0.84423 0.64317 0.0
C2835 C 0.40343 0.84938 0.62158 0.0
C2836 C 0.38183 0.85188 0.64791 0.0
C2837 C 0.38302 0.86514 0.63117 0.0
H2838 H 0.39459 0.87955 0.59627 0.0
H2839 H 0.4112 0.84309 0.61734 0.0
C2840 C 0.47208 0.8634 0.56271 0.0
N2841 N 0.45455 0.85168 0.55866 0.0
C2842 C 0.48324 0.85747 0.57221 0.0
C2843 C 0.45825 0.82742 0.57205 0.0
C2844 C 0.44757 0.83394 0.56253 0.0
C2845 C 0.47619 0.83934 0.57786 0.0
H2846 H 0.47715 0.87749 0.56007 0.0
H2847 H 0.4335 0.82499 0.55979 0.0
C2848 C 0.41121 0.89281 0.53872 0.0
N2849 N 0.41076 0.92268 0.52146 0.0
C2850 C 0.40702 0.89394 0.51313 0.0
C2851 C 0.41507 0.90682 0.55556 0.0
C2852 C 0.40687 0.90916 0.50478 0.0
C2853 C 0.41482 0.92183 0.54644 0.0
C2854 C 0.45449 0.87234 0.50858 0.0
C2855 C 0.47154 0.88729 0.50924 0.0
C2856 C 0.45187 0.85664 0.49715 0.0
C2857 C 0.48575 0.88622 0.49857 0.0
C2858 C 0.46643 0.85611 0.48672 0.0
N2859 N 0.48292 0.87079 0.48765 0.0
C2860 C 0.46219 0.92467 0.55782 0.0
C2861 C 0.45324 0.91868 0.51426 0.0
C2862 C 0.47257 0.94282 0.55261 0.0
N2863 N 0.4527 0.91308 0.53876 0.0
C2864 C 0.46348 0.93671 0.50817 0.0
C2865 C 0.47331 0.94904 0.5275 0.0
H2866 H 0.46177 0.91981 0.57703 0.0
H2867 H 0.44565 0.90911 0.49946 0.0
C2868 C 0.38106 0.8425 0.50702 0.0
N2869 N 0.39855 0.84894 0.50161 0.0
C2870 C 0.36826 0.83474 0.48776 0.0
C2871 C 0.39177 0.84089 0.45749 0.0
C2872 C 0.40411 0.84828 0.47746 0.0
C2873 C 0.37359 0.83402 0.46259 0.0
H2874 H 0.37709 0.84363 0.52627 0.0
H2875 H 0.41814 0.85375 0.47364 0.0
O2876 O 0.44411 0.88043 0.57788 0.0
O2877 O 0.41392 0.84435 0.55825 0.0
O2878 O 0.41184 0.8782 0.54712 0.0
O2879 O 0.44045 0.87302 0.51926 0.0
H2880 H 0.4521 0.86093 0.60839 0.0
H2881 H 0.43827 0.90216 0.60667 0.0
H2882 H 0.4537 0.86313 0.65581 0.0
H2883 H 0.4401 0.9036 0.65418 0.0
H2884 H 0.38766 0.79431 0.5093 0.0
H2885 H 0.38138 0.83022 0.57758 0.0
H2886 H 0.41404 0.82278 0.52244 0.0
H2887 H 0.35562 0.80158 0.56359 0.0
H2888 H 0.39205 0.83405 0.65569 0.0
H2889 H 0.37482 0.87116 0.63389 0.0
H2890 H 0.49702 0.86708 0.57628 0.0
H2891 H 0.45221 0.81339 0.5765 0.0
H2892 H 0.4041 0.88327 0.49979 0.0
H2893 H 0.41851 0.90624 0.57535 0.0
H2894 H 0.40373 0.91025 0.48501 0.0
H2895 H 0.41791 0.93284 0.55921 0.0
H2896 H 0.47382 0.89951 0.51813 0.0
H2897 H 0.43876 0.84496 0.4965 0.0
H2898 H 0.49903 0.89766 0.49905 0.0
H2899 H 0.46461 0.84402 0.47793 0.0
H2900 H 0.48015 0.95185 0.56799 0.0
H2901 H 0.46355 0.94096 0.48861 0.0
H2902 H 0.3544 0.82985 0.49233 0.0
H2903 H 0.39636 0.8406 0.43826 0.0
Li2904 Li 0.2211 0.47602 0.3016 0.0
Li2905 Li 0.21349 0.44528 0.2908 0.0
Li2906 Li 0.24221 0.47102 0.27897 0.0
Li2907 Li 0.215 0.46536 0.25686 0.0
C2908 C 0.24731 0.46381 0.32494 0.0
N2909 N 0.27817 0.46658 0.34454 0.0
C2910 C 0.24923 0.44878 0.32639 0.0
C2911 C 0.26103 0.48023 0.33359 0.0
C2912 C 0.26495 0.45046 0.33635 0.0
C2913 C 0.27655 0.48136 0.34339 0.0
C2914 C 0.18174 0.44509 0.29348 0.0
C2915 C 0.15388 0.41808 0.2862 0.0
N2916 N 0.14749 0.42078 0.30856 0.0
C2917 C 0.17488 0.44765 0.31634 0.0
C2918 C 0.17115 0.43024 0.27821 0.0
C2919 C 0.15753 0.43519 0.32364 0.0
C2920 C 0.20752 0.49761 0.31894 0.0
N2921 N 0.2172 0.48994 0.32613 0.0
C2922 C 0.21962 0.50081 0.36893 0.0
C2923 C 0.2233 0.49138 0.35053 0.0
C2924 C 0.20963 0.50892 0.36211 0.0
C2925 C 0.20377 0.50738 0.33657 0.0
H2926 H 0.20254 0.49595 0.29952 0.0
H2927 H 0.23068 0.48486 0.35584 0.0
C2928 C 0.20683 0.41007 0.29097 0.0
N2929 N 0.20214 0.42123 0.30226 0.0
C2930 C 0.19944 0.39249 0.29936 0.0
C2931 C 0.18221 0.39811 0.33048 0.0
C2932 C 0.19034 0.4157 0.32199 0.0
C2933 C 0.18681 0.38618 0.31933 0.0
H2934 H 0.21663 0.41494 0.27577 0.0
H2935 H 0.18726 0.42496 0.33127 0.0
C2936 C 0.23718 0.50495 0.27276 0.0
N2937 N 0.24147 0.53847 0.27946 0.0
C2938 C 0.22738 0.51043 0.25787 0.0
C2939 C 0.24923 0.51657 0.29096 0.0
C2940 C 0.22974 0.52742 0.26155 0.0
C2941 C 0.25118 0.53344 0.2941 0.0
C2942 C 0.22415 0.4438 0.23353 0.0
C2943 C 0.23805 0.45237 0.21592 0.0
C2944 C 0.20819 0.42897 0.22584 0.0
C2945 C 0.23566 0.44603 0.19075 0.0
C2946 C 0.20632 0.42305 0.20049 0.0
N2947 N 0.21998 0.43164 0.18361 0.0
C2948 C 0.27107 0.46597 0.26778 0.0
C2949 C 0.27836 0.49618 0.26945 0.0
C2950 C 0.28798 0.47088 0.25843 0.0
N2951 N 0.2665 0.47858 0.27249 0.0
C2952 C 0.29545 0.50169 0.26027 0.0
C2953 C 0.30025 0.48892 0.25387 0.0
H2954 H 0.26125 0.45205 0.27007 0.0
H2955 H 0.27428 0.50588 0.27288 0.0
C2956 C 0.18815 0.46247 0.22285 0.0
N2957 N 0.20569 0.4677 0.22501 0.0
C2958 C 0.18176 0.46652 0.20077 0.0
C2959 C 0.21153 0.48076 0.18322 0.0
C2960 C 0.21734 0.4765 0.20568 0.0
C2961 C 0.19359 0.47617 0.18081 0.0
H2962 H 0.17926 0.45592 0.23875 0.0
H2963 H 0.23131 0.48091 0.20819 0.0
O2964 O 0.23223 0.46254 0.31462 0.0
O2965 O 0.19871 0.45711 0.28607 0.0
O2966 O 0.23493 0.4883 0.26963 0.0
O2967 O 0.22615 0.4499 0.25818 0.0
H2968 H 0.23876 0.43599 0.31971 0.0
H2969 H 0.25977 0.492 0.33251 0.0
H2970 H 0.26665 0.43895 0.33748 0.0
H2971 H 0.28732 0.494 0.35002 0.0
H2972 H 0.14556 0.40649 0.27462 0.0
H2973 H 0.18289 0.45904 0.32842 0.0
H2974 H 0.17624 0.4281 0.26044 0.0
H2975 H 0.15207 0.43696 0.34132 0.0
H2976 H 0.22413 0.50129 0.38844 0.0
H2977 H 0.19627 0.51357 0.33022 0.0
H2978 H 0.20391 0.38412 0.29056 0.0
H2979 H 0.17241 0.394 0.34563 0.0
H2980 H 0.21793 0.50163 0.24377 0.0
H2981 H 0.25681 0.51252 0.30281 0.0
H2982 H 0.22219 0.5318 0.25022 0.0
H2983 H 0.26036 0.54251 0.30824 0.0
H2984 H 0.25047 0.4639 0.22155 0.0
H2985 H 0.19737 0.42211 0.2393 0.0
H2986 H 0.24627 0.45259 0.17687 0.0
H2987 H 0.19402 0.41162 0.19424 0.0
H2988 H 0.2912 0.46063 0.25388 0.0
H2989 H 0.30439 0.51571 0.25667 0.0
H2990 H 0.16791 0.46301 0.19999 0.0
H2991 H 0.22109 0.48812 0.16828 0.0
Li2992 Li 0.55537 0.76987 0.2737 0.0
Li2993 Li 0.5258 0.74732 0.28839 0.0
Li2994 Li 0.53295 0.75225 0.24266 0.0
Li2995 Li 0.5299 0.77411 0.26848 0.0
C2996 C 0.55631 0.74009 0.27492 0.0
N2997 N 0.58366 0.7341 0.28841 0.0
C2998 C 0.55644 0.73317 0.29909 0.0
C2999 C 0.57002 0.74385 0.25755 0.0
C3000 C 0.57039 0.73025 0.30555 0.0
C3001 C 0.58375 0.74077 0.26476 0.0
C3002 C 0.54133 0.78552 0.31483 0.0
C3003 C 0.52714 0.79803 0.34043 0.0
N3004 N 0.54266 0.81385 0.34097 0.0
C3005 C 0.55717 0.80187 0.31572 0.0
C3006 C 0.52621 0.78353 0.32737 0.0
C3007 C 0.55756 0.81604 0.32901 0.0
C3008 C 0.59216 0.79334 0.2652 0.0
N3009 N 0.57992 0.78162 0.28197 0.0
C3010 C 0.60257 0.78751 0.31281 0.0
C3011 C 0.58473 0.77862 0.30544 0.0
C3012 C 0.61556 0.79987 0.29603 0.0
C3013 C 0.61015 0.80266 0.27186 0.0
H3014 H 0.5879 0.79573 0.24688 0.0
H3015 H 0.57464 0.76943 0.31853 0.0
C3016 C 0.50556 0.71196 0.30375 0.0
N3017 N 0.5133 0.72891 0.3127 0.0
C3018 C 0.49703 0.69762 0.32053 0.0
C3019 C 0.50496 0.71843 0.35567 0.0
C3020 C 0.5131 0.73241 0.33807 0.0
C3021 C 0.49688 0.7007 0.347 0.0
H3022 H 0.50628 0.7096 0.28353 0.0
H3023 H 0.51968 0.74605 0.3447 0.0
C3024 C 0.55106 0.78197 0.21751 0.0
N3025 N 0.5548 0.78781 0.16518 0.0
C3026 C 0.54144 0.78866 0.20484 0.0
C3027 C 0.56263 0.77832 0.20359 0.0
C3028 C 0.54352 0.79152 0.17837 0.0
C3029 C 0.56431 0.78132 0.17713 0.0
C3030 C 0.49481 0.7362 0.2656 0.0
C3031 C 0.48718 0.72063 0.25092 0.0
C3032 C 0.48536 0.7377 0.28625 0.0
C3033 C 0.47024 0.70674 0.2573 0.0
C3034 C 0.46847 0.7235 0.29203 0.0
N3035 N 0.46132 0.70844 0.27756 0.0
C3036 C 0.53179 0.72736 0.20704 0.0
C3037 C 0.51673 0.74251 0.19394 0.0
C3038 C 0.52494 0.71585 0.18612 0.0
N3039 N 0.5273 0.7401 0.21079 0.0
C3040 C 0.50966 0.73136 0.17265 0.0
C3041 C 0.51329 0.71744 0.16897 0.0
H3042 H 0.53985 0.72546 0.22109 0.0
H3043 H 0.51302 0.75247 0.19778 0.0
C3044 C 0.53568 0.80891 0.26446 0.0
N3045 N 0.52284 0.79152 0.26641 0.0
C3046 C 0.53118 0.82175 0.25782 0.0
C3047 C 0.50027 0.7986 0.25638 0.0
C3048 C 0.50537 0.78624 0.26309 0.0
C3049 C 0.51331 0.81655 0.25286 0.0
H3050 H 0.54952 0.81266 0.26662 0.0
H3051 H 0.49549 0.77228 0.26411 0.0
O3052 O 0.54294 0.74335 0.26838 0.0
O3053 O 0.54059 0.77158 0.30157 0.0
O3054 O 0.54907 0.77886 0.24337 0.0
O3055 O 0.51149 0.74985 0.25992 0.0
H3056 H 0.54598 0.73025 0.31282 0.0
H3057 H 0.57013 0.74925 0.23879 0.0
H3058 H 0.57071 0.72497 0.32424 0.0
H3059 H 0.59451 0.74372 0.25157 0.0
H3060 H 0.51552 0.79671 0.35013 0.0
H3061 H 0.56898 0.80365 0.30604 0.0
H3062 H 0.51387 0.77095 0.32689 0.0
H3063 H 0.5697 0.8288 0.32976 0.0
H3064 H 0.60611 0.78476 0.33148 0.0
H3065 H 0.61963 0.81227 0.25849 0.0
H3066 H 0.49078 0.68426 0.3128 0.0
H3067 H 0.50552 0.72152 0.37589 0.0
H3068 H 0.53233 0.79144 0.21524 0.0
H3069 H 0.57011 0.77306 0.21307 0.0
H3070 H 0.53611 0.79663 0.1683 0.0
H3071 H 0.57315 0.77847 0.1661 0.0
H3072 H 0.49431 0.71917 0.23496 0.0
H3073 H 0.49108 0.74963 0.29785 0.0
H3074 H 0.46421 0.69458 0.24619 0.0
H3075 H 0.46105 0.72443 0.30805 0.0
H3076 H 0.52784 0.70513 0.18439 0.0
H3077 H 0.50086 0.73316 0.15984 0.0
H3078 H 0.54164 0.83544 0.25547 0.0
H3079 H 0.48638 0.79392 0.2523 0.0
Li3080 Li 0.24838 0.77443 0.30244 0.0
Li3081 Li 0.22707 0.7833 0.28791 0.0
Li3082 Li 0.22293 0.75419 0.27741 0.0
Li3083 Li 0.24656 0.78113 0.25722 0.0
C3084 C 0.20851 0.75003 0.32272 0.0
N3085 N 0.17841 0.72107 0.3424 0.0
C3086 C 0.19224 0.74969 0.32248 0.0
C3087 C 0.20953 0.73574 0.33314 0.0
C3088 C 0.17716 0.7349 0.33249 0.0
C3089 C 0.19415 0.72118 0.34294 0.0
C3090 C 0.25695 0.81336 0.29598 0.0
C3091 C 0.25713 0.84106 0.29073 0.0
N3092 N 0.2627 0.84544 0.31543 0.0
C3093 C 0.26275 0.81816 0.32128 0.0
C3094 C 0.2542 0.82494 0.28052 0.0
C3095 C 0.26557 0.83443 0.33076 0.0
C3096 C 0.28254 0.7868 0.32169 0.0
N3097 N 0.26511 0.7778 0.32851 0.0
C3098 C 0.2729 0.77722 0.37236 0.0
C3099 C 0.26005 0.77285 0.35321 0.0
C3100 C 0.2911 0.78666 0.36592 0.0
C3101 C 0.29577 0.79109 0.34002 0.0
H3102 H 0.28619 0.79099 0.30202 0.0
H3103 H 0.24607 0.76602 0.35817 0.0
C3104 C 0.2047 0.79772 0.27949 0.0
N3105 N 0.21514 0.79578 0.29711 0.0
C3106 C 0.19587 0.80692 0.28579 0.0
C3107 C 0.2086 0.81182 0.32835 0.0
C3108 C 0.21705 0.80238 0.32128 0.0
C3109 C 0.19782 0.81421 0.31049 0.0
H3110 H 0.2031 0.79199 0.2606 0.0
H3111 H 0.22524 0.80038 0.33501 0.0
C3112 C 0.26049 0.75624 0.27657 0.0
N3113 N 0.28672 0.74814 0.28805 0.0
C3114 C 0.27678 0.76483 0.26365 0.0
C3115 C 0.25748 0.74344 0.29518 0.0
C3116 C 0.28988 0.76056 0.26976 0.0
C3117 C 0.27093 0.73956 0.30076 0.0
C3118 C 0.21872 0.77242 0.22881 0.0
C3119 C 0.21295 0.75745 0.21314 0.0
C3120 C 0.22329 0.78884 0.21777 0.0
C3121 C 0.21188 0.75918 0.18663 0.0
C3122 C 0.22208 0.79003 0.19118 0.0
N3123 N 0.21644 0.7753 0.17629 0.0
C3124 C 0.1885 0.72663 0.26603 0.0
C3125 C 0.21061 0.71822 0.26461 0.0
C3126 C 0.17603 0.71048 0.25502 0.0
N3127 N 0.20549 0.73032 0.27 0.0
C3128 C 0.19858 0.7019 0.25356 0.0
C3129 C 0.1812 0.69812 0.24781 0.0
H3130 H 0.18493 0.7367 0.2699 0.0
H3131 H 0.22431 0.72168 0.26733 0.0
C3132 C 0.27306 0.80827 0.22716 0.0
N3133 N 0.26061 0.7907 0.22729 0.0
C3134 C 0.28539 0.81533 0.20725 0.0
C3135 C 0.27138 0.78625 0.18738 0.0
C3136 C 0.25937 0.77971 0.20782 0.0
C3137 C 0.28489 0.80417 0.18737 0.0
H3138 H 0.27394 0.81663 0.24309 0.0
H3139 H 0.2496 0.76569 0.20878 0.0
O3140 O 0.22335 0.76424 0.31263 0.0
O3141 O 0.25383 0.79736 0.28646 0.0
O3142 O 0.24757 0.76038 0.27109 0.0
O3143 O 0.2201 0.77108 0.25478 0.0
H3144 H 0.19122 0.76064 0.31443 0.0
H3145 H 0.22205 0.73585 0.33355 0.0
H3146 H 0.16445 0.7344 0.33232 0.0
H3147 H 0.19471 0.70998 0.35096 0.0
H3148 H 0.25493 0.85009 0.27904 0.0
H3149 H 0.2649 0.80936 0.33356 0.0
H3150 H 0.24964 0.8214 0.26094 0.0
H3151 H 0.26999 0.83828 0.35033 0.0
H3152 H 0.26858 0.77377 0.39205 0.0
H3153 H 0.30954 0.79804 0.3339 0.0
H3154 H 0.18739 0.80807 0.27158 0.0
H3155 H 0.21063 0.81733 0.34752 0.0
H3156 H 0.27937 0.77482 0.24926 0.0
H3157 H 0.24496 0.73668 0.30537 0.0
H3158 H 0.30259 0.76717 0.26001 0.0
H3159 H 0.26883 0.72976 0.31523 0.0
H3160 H 0.20952 0.74466 0.22125 0.0
H3161 H 0.22791 0.80059 0.22957 0.0
H3162 H 0.2075 0.74772 0.17427 0.0
H3163 H 0.22566 0.80267 0.18237 0.0
H3164 H 0.16275 0.70805 0.25106 0.0
H3165 H 0.20324 0.69291 0.24794 0.0
H3166 H 0.29561 0.82924 0.20784 0.0
H3167 H 0.27075 0.77719 0.17258 0.0
H3168 H 0.13621 0.00652 0.06405 0.0
H3169 H 0.18958 0.01487 0.06726 0.0
H3170 H 0.18051 0.98848 0.04099 0.0
H3171 H 0.15831 0.96494 0.01334 0.0
H3172 H 0.10587 0.9587 0.00662 0.0
H3173 H 0.11368 0.9822 0.03804 0.0
C3174 C 0.14588 0.00259 0.05904 0.0
C3175 C 0.1636 0.01285 0.06747 0.0
C3176 C 0.14076 0.98778 0.0431 0.0
C3177 C 0.1758 0.00721 0.06132 0.0
C3178 C 0.17068 0.99219 0.04602 0.0
C3179 C 0.14857 0.96871 0.01871 0.0
C3180 C 0.13156 0.96006 0.00738 0.0
C3181 C 0.15333 0.98269 0.03619 0.0
C3182 C 0.119 0.96489 0.01513 0.0
C3183 C 0.12351 0.97849 0.03297 0.0
H3184 H 0.97438 0.16265 0.04838 0.0
H3185 H 0.9944 0.13025 0.08072 0.0
H3186 H 0.02077 0.14516 0.0535 0.0
H3187 H 0.03667 0.1654 0.01778 0.0
H3188 H 0.01695 0.1983 0.98641 0.0
H3189 H 0.99201 0.1853 0.01637 0.0
C3190 C 0.9847 0.15912 0.05004 0.0
C3191 C 0.98228 0.14521 0.06646 0.0
C3192 C -0.00019 0.16773 0.03434 0.0
C3193 C 0.99572 0.14068 0.06792 0.0
C3194 C 0.01085 0.14924 0.05242 0.0
C3195 C 0.02717 0.17006 0.01789 0.0
C3196 C 0.02859 0.18266 -0.00036 0.0
C3197 C 0.01283 0.1625 0.03514 0.0
C3198 C 0.016 0.18837 -0.0001 0.0
C3199 C 0.00176 0.18098 0.01709 0.0
H3200 H 0.83129 0.84453 0.96816 0.0
H3201 H 0.81592 0.86716 0.02981 0.0
H3202 H 0.83161 0.85855 0.06072 0.0
H3203 H 0.85067 0.84542 0.06975 0.0
H3204 H 0.8668 0.82412 0.00716 0.0
H3205 H 0.84976 0.83127 0.97703 0.0
C3206 C 0.83114 0.84732 0.98843 0.0
C3207 C 0.82235 0.85628 0.9968 0.0
C3208 C 0.84043 0.84268 0.00584 0.0
C3209 C 0.82261 0.86024 0.023 0.0
C3210 C 0.83156 0.85533 0.04062 0.0
C3211 C 0.85031 0.84229 0.04953 0.0
C3212 C 0.86003 0.83439 0.04059 0.0
C3213 C 0.84067 0.84668 0.03221 0.0
C3214 C 0.8596 0.83044 0.01436 0.0
C3215 C 0.84982 0.83444 0.99717 0.0
H3216 H 0.97327 0.12582 0.50406 0.0
H3217 H 0.96882 0.17263 0.49202 0.0
H3218 H 0.99401 0.18443 0.46231 0.0
H3219 H 0.01855 0.18227 0.44211 0.0
H3220 H 0.02289 0.13546 0.45478 0.0
H3221 H 0.99627 0.12268 0.48162 0.0
C3222 C 0.97753 0.13843 0.49453 0.0
C3223 C 0.96917 0.14833 0.50027 0.0
C3224 C 0.99207 0.14516 0.47769 0.0
C3225 C 0.97515 0.16483 0.48814 0.0
C3226 C 0.98951 0.17156 0.4711 0.0
C3227 C 0.01346 0.16914 0.45038 0.0
C3228 C 0.02272 0.15986 0.44662 0.0
C3229 C 0.99826 0.16197 0.46607 0.0
C3230 C 0.01611 0.14295 0.45768 0.0
C3231 C 0.00089 0.13563 0.47298 0.0
H3232 H 0.80392 0.8325 0.46889 0.0
H3233 H 0.85371 0.86319 0.42875 0.0
H3234 H 0.86659 0.84825 0.45297 0.0
H3235 H 0.86463 0.82876 0.48879 0.0
H3236 H 0.81552 0.79997 0.53094 0.0
H3237 H 0.80147 0.812 0.50291 0.0
C3238 C 0.81761 0.83596 0.46544 0.0
C3239 C 0.82788 0.84911 0.44724 0.0
C3240 C 0.82508 0.82774 0.47995 0.0
C3241 C 0.84545 0.85306 0.44253 0.0
C3242 C 0.85287 0.84462 0.45653 0.0
C3243 C 0.85076 0.8249 0.49145 0.0
C3244 C 0.84108 0.81356 0.51183 0.0
C3245 C 0.84294 0.83224 0.4757 0.0
C3246 C 0.8232 0.80878 0.5154 0.0
C3247 C 0.81519 0.81565 0.49943 0.0
H3248 H 0.13005 0.99164 0.44209 0.0
H3249 H 0.17408 0.98167 0.44246 0.0
H3250 H 0.19121 0.00781 0.46932 0.0
H3251 H 0.19254 0.03162 0.49638 0.0
H3252 H 0.14702 0.03922 0.49964 0.0
H3253 H 0.1318 0.01604 0.46771 0.0
C3254 C 0.1434 0.99515 0.44803 0.0
C3255 C 0.15062 0.98452 0.44042 0.0
C3256 C 0.15293 0.00978 0.46432 0.0
C3257 C 0.16815 0.98963 0.44775 0.0
C3258 C 0.17793 0.0045 0.46339 0.0
C3259 C 0.17928 0.02821 0.49016 0.0
C3260 C 0.17099 0.0372 0.50063 0.0
C3261 C 0.17025 0.01436 0.47239 0.0
C3262 C 0.15394 0.03281 0.49179 0.0
C3263 C 0.14509 0.01938 0.47365 0.0
H3264 H 0.85919 0.0431 0.96991 0.0
H3265 H 0.8172 0.01249 0.02422 0.0
H3266 H 0.80369 0.9878 0.99415 0.0
H3267 H 0.80558 0.97356 0.9548 0.0
H3268 H 0.84842 0.00304 0.9014 0.0
H3269 H 0.85998 0.02938 0.92895 0.0
C3270 C 0.84707 0.03104 0.97516 0.0
C3271 C 0.83932 0.02972 0.99942 0.0
C3272 C 0.83961 0.01659 0.95806 0.0
C3273 C 0.82338 0.01409 0.00562 0.0
C3274 C 0.81571 -0.00017 0.98852 0.0
C3275 C 0.81719 0.98588 0.94885 0.0
C3276 C 0.82613 0.98637 0.9261 0.0
C3277 C 0.82393 0.00078 0.96498 0.0
C3278 C 0.84138 0.00232 0.91893 0.0
C3279 C 0.84798 0.01736 0.93466 0.0
H3280 H 0.95975 0.80733 0.97662 0.0
H3281 H 0.99574 0.80652 0.03289 0.0
H3282 H 0.01939 0.81695 0.0007 0.0
H3283 H 0.0307 0.82972 0.95837 0.0
H3284 H 0.99558 0.8329 0.90276 0.0
H3285 H 0.97061 0.81801 0.93274 0.0
C3286 C 0.97267 0.80907 0.98155 0.0
C3287 C 0.97611 0.8062 0.00692 0.0
C3288 C 0.98634 0.81565 0.96317 0.0
C3289 C 0.99291 0.80872 0.01339 0.0
C3290 C 0.0064 0.81471 0.99505 0.0
C3291 C 0.01747 0.8267 0.95254 0.0
C3292 C 0.01493 0.83231 0.92839 0.0
C3293 C 0.0034 0.8187 0.97011 0.0
C3294 C 0.99782 0.82871 0.9213 0.0
C3295 C 0.98358 0.82025 0.93844 0.0
H3296 H 0.15446 0.15492 0.92196 0.0
H3297 H 0.16755 0.2008 0.96905 0.0
H3298 H 0.18469 0.19295 0.99778 0.0
H3299 H 0.1931 0.17138 0.01224 0.0
H3300 H 0.17939 0.12492 0.96624 0.0
H3301 H 0.16515 0.13455 0.93459 0.0
C3302 C 0.16115 0.16324 0.93844 0.0
C3303 C 0.15963 0.17837 0.94337 0.0
C3304 C 0.17069 0.15845 0.95526 0.0
C3305 C 0.16863 0.18919 0.96458 0.0
C3306 C 0.17832 0.18463 0.98119 0.0
C3307 C 0.1874 0.16357 0.99498 0.0
C3308 C 0.18721 0.14739 0.9917 0.0
C3309 C 0.17909 0.16908 0.97706 0.0
C3310 C 0.17949 0.1373 0.9694 0.0
C3311 C 0.17138 0.14282 0.95129 0.0
H3312 H 0.99811 0.84279 0.58587 0.0
H3313 H 0.96493 0.79609 0.54047 0.0
H3314 H 0.98911 0.8044 0.51003 0.0
H3315 H 0.01842 0.82642 0.49387 0.0
H3316 H 0.05161 0.87358 0.53834 0.0
H3317 H 0.02857 0.86375 0.57132 0.0
C3318 C 0.99623 0.83439 0.5694 0.0
C3319 C 0.97971 0.81887 0.56548 0.0
C3320 C 0.01009 0.83944 0.5516 0.0
C3321 C 0.97756 0.80798 0.54421 0.0
C3322 C 0.99133 0.81281 0.52661 0.0
C3323 C 0.02082 0.83437 0.51104 0.0
C3324 C 0.03667 0.85077 0.51352 0.0
C3325 C 0.0075 0.8287 0.52981 0.0
C3326 C 0.0394 0.86102 0.53575 0.0
C3327 C 0.02626 0.85539 0.55466 0.0
H3328 H 0.14382 0.18643 0.52929 0.0
H3329 H 0.18432 0.19232 0.47549 0.0
H3330 H 0.19644 0.18069 0.50717 0.0
H3331 H 0.19369 0.16586 0.54817 0.0
H3332 H 0.15197 0.15762 0.60094 0.0
H3333 H 0.14198 0.17285 0.57144 0.0
C3334 C 0.15529 0.18516 0.52444 0.0
C3335 C 0.16304 0.19021 0.49989 0.0
C3336 C 0.16188 0.17786 0.54249 0.0
C3337 C 0.17816 0.18881 0.49426 0.0
C3338 C 0.18503 0.18198 0.51231 0.0
C3339 C 0.18267 0.16778 0.5535 0.0
C3340 C 0.17362 0.16072 0.57672 0.0
C3341 C 0.17677 0.17611 0.53623 0.0
C3342 C 0.15911 0.16292 0.58312 0.0
C3343 C 0.1534 0.17159 0.56626 0.0
H3344 H 0.83262 0.02808 0.54433 0.0
H3345 H 0.85495 0.00162 0.5879 0.0
H3346 H 0.83983 0.97556 0.56007 0.0
H3347 H 0.82258 0.96154 0.5211 0.0
H3348 H 0.79989 0.98788 0.47804 0.0
H3349 H 0.81277 0.01273 0.50819 0.0
C3350 C 0.83384 0.01646 0.5482 0.0
C3351 C 0.84502 0.01688 0.56809 0.0
C3352 C 0.8252 0.00158 0.53206 0.0
C3353 C 0.84664 0.00176 0.57248 0.0
C3354 C 0.83798 0.98684 0.55662 0.0
C3355 C 0.82009 0.97251 0.5186 0.0
C3356 C 0.81042 0.97291 0.49716 0.0
C3357 C 0.82757 0.98678 0.53598 0.0
C3358 C 0.80755 0.98738 0.4941 0.0
C3359 C 0.81485 0.00157 0.51138 0.0
H3360 H 0.79425 0.29356 0.34948 0.0
H3361 H 0.84797 0.30651 0.33102 0.0
H3362 H 0.85959 0.33141 0.36092 0.0
H3363 H 0.85454 0.35108 0.389 0.0
H3364 H 0.80081 0.33652 0.41029 0.0
H3365 H 0.78922 0.31039 0.38274 0.0
C3366 C 0.8085 0.30142 0.35241 0.0
C3367 C 0.82016 0.29822 0.33749 0.0
C3368 C 0.81513 0.31555 0.36999 0.0
C3369 C 0.83861 0.30889 0.34156 0.0
C3370 C 0.84531 0.3231 0.35883 0.0
C3371 C 0.84031 0.34198 0.38829 0.0
C3372 C 0.8286 0.34606 0.40142 0.0
C3373 C 0.83369 0.32681 0.37267 0.0
C3374 C 0.81017 0.33407 0.39987 0.0
C3375 C 0.80351 0.31904 0.38421 0.0
H3376 H 0.66106 0.47883 0.39987 0.0
H3377 H 0.63832 0.51111 0.37724 0.0
H3378 H 0.66364 0.52859 0.34923 0.0
H3379 H 0.69065 0.5328 0.32781 0.0
H3380 H 0.71111 0.49788 0.34663 0.0
H3381 H 0.68839 0.48353 0.37938 0.0
C3382 C 0.66157 0.48966 0.38879 0.0
C3383 C 0.64763 0.49346 0.39059 0.0
C3384 C 0.67578 0.49919 0.37183 0.0
C3385 C 0.64887 0.50791 0.37658 0.0
C3386 C 0.66329 0.51783 0.36027 0.0
C3387 C 0.69014 0.52201 0.33898 0.0
C3388 C 0.70264 0.51647 0.33451 0.0
C3389 C 0.67655 0.51326 0.3572 0.0
C3390 C 0.70194 0.50272 0.34974 0.0
C3391 C 0.68879 0.49433 0.36839 0.0
H3392 H 0.51289 0.17707 0.41586 0.0
H3393 H 0.49058 0.12495 0.38153 0.0
H3394 H 0.47397 0.13236 0.35117 0.0
H3395 H 0.46864 0.15476 0.33094 0.0
H3396 H 0.49268 0.20762 0.36303 0.0
H3397 H 0.50559 0.19878 0.39766 0.0
C3398 C 0.50429 0.16729 0.40186 0.0
C3399 C 0.50314 0.15053 0.40094 0.0
C3400 C 0.49518 0.17183 0.38384 0.0
C3401 C 0.49163 0.13789 0.38297 0.0
C3402 C 0.48225 0.14218 0.36535 0.0
C3403 C 0.47663 0.16431 0.3456 0.0
C3404 C 0.47985 0.18187 0.3442 0.0
C3405 C 0.48438 0.15928 0.36508 0.0
C3406 C 0.4899 0.19399 0.36368 0.0
C3407 C 0.49742 0.18899 0.38339 0.0
H3408 H 0.62684 0.47005 0.81872 0.0
H3409 H 0.65391 0.51843 0.86311 0.0
H3410 H 0.67874 0.53049 0.83289 0.0
H3411 H 0.69384 0.52614 0.7963 0.0
H3412 H 0.66681 0.47788 0.75164 0.0
H3413 H 0.64076 0.46697 0.7795 0.0
C3414 C 0.63798 0.4834 0.82147 0.0
C3415 C 0.63858 0.49327 0.84326 0.0
C3416 C 0.65227 0.49019 0.80413 0.0
C3417 C 0.65325 0.51045 0.84671 0.0
C3418 C 0.66742 0.51737 0.82941 0.0
C3419 C 0.68211 0.51343 0.79222 0.0
C3420 C 0.68234 0.50281 0.77198 0.0
C3421 C 0.66725 0.50719 0.80839 0.0
C3422 C 0.66709 0.48622 0.76732 0.0
C3423 C 0.65217 0.47999 0.7832 0.0
H3424 H 0.4725 0.1716 0.78465 0.0
H3425 H 0.52092 0.19213 0.74056 0.0
H3426 H 0.53165 0.17729 0.76943 0.0
H3427 H 0.52818 0.16048 0.80918 0.0
H3428 H 0.47964 0.1401 0.85293 0.0
H3429 H 0.46792 0.15271 0.82189 0.0
C3430 C 0.48521 0.17249 0.7809 0.0
C3431 C 0.49589 0.183 0.76046 0.0
C3432 C 0.49133 0.16406 0.79764 0.0
C3433 C 0.51252 0.18429 0.75632 0.0
C3434 C 0.51864 0.17578 0.77278 0.0
C3435 C 0.5149 0.15849 0.81163 0.0
C3436 C 0.50485 0.14949 0.83344 0.0
C3437 C 0.5083 0.16592 0.79381 0.0
C3438 C 0.48774 0.14721 0.83651 0.0
C3439 C 0.48102 0.15437 0.81875 0.0
H3440 H 0.82479 0.36728 0.82865 0.0
H3441 H 0.8715 0.36184 0.83468 0.0
H3442 H 0.85861 0.33728 0.80405 0.0
H3443 H 0.83317 0.31602 0.77802 0.0
H3444 H 0.78731 0.32271 0.77037 0.0
H3445 H 0.80103 0.3484 0.7989 0.0
C3446 C 0.83244 0.36109 0.82286 0.0
C3447 C 0.84908 0.3664 0.83426 0.0
C3448 C 0.82505 0.34711 0.80503 0.0
C3449 C 0.85851 0.35785 0.82671 0.0
C3450 C 0.8512 0.34385 0.80905 0.0
C3451 C 0.82633 0.32331 0.78208 0.0
C3452 C 0.8091 0.31724 0.77228 0.0
C3453 C 0.83433 0.33816 0.79844 0.0
C3454 C 0.8004 0.32682 0.77806 0.0
C3455 C 0.80827 0.34157 0.79431 0.0
H3456 H 0.53878 0.36851 0.31793 0.0
H3457 H 0.48745 0.36498 0.3236 0.0
H3458 H 0.47474 0.33947 0.29463 0.0
H3459 H 0.47766 0.31656 0.27085 0.0
H3460 H 0.52906 0.3205 0.26471 0.0
H3461 H 0.54245 0.34789 0.29002 0.0
C3462 C 0.52492 0.36252 0.31234 0.0
C3463 C 0.51406 0.36856 0.32327 0.0
C3464 C 0.51771 0.3479 0.2956 0.0
C3465 C 0.49605 0.36038 0.31597 0.0
C3466 C 0.48878 0.34583 0.2993 0.0
C3467 C 0.49183 0.32358 0.27482 0.0
C3468 C 0.50236 0.31652 0.26615 0.0
C3469 C 0.49938 0.3392 0.28957 0.0
C3470 C 0.52073 0.32578 0.27109 0.0
C3471 C 0.52835 0.34134 0.28572 0.0
H3472 H 0.67363 0.19321 0.2626 0.0
H3473 H 0.69052 0.15478 0.27619 0.0
H3474 H 0.66442 0.13732 0.30283 0.0
H3475 H 0.63856 0.13457 0.32595 0.0
H3476 H 0.62433 0.17542 0.31696 0.0
H3477 H 0.64747 0.19012 0.28487 0.0
C3478 C 0.67169 0.18106 0.27143 0.0
C3479 C 0.68425 0.17552 0.2675 0.0
C3480 C 0.65709 0.17148 0.28776 0.0
C3481 C 0.68109 0.15939 0.27853 0.0
C3482 C 0.66623 0.14945 0.29407 0.0
C3483 C 0.64052 0.14673 0.31711 0.0
C3484 C 0.62966 0.15383 0.32419 0.0
C3485 C 0.65443 0.15565 0.29942 0.0
C3486 C 0.63219 0.16937 0.31183 0.0
C3487 C 0.64561 0.17796 0.29358 0.0
H3488 H 0.85608 0.50438 0.34443 0.0
H3489 H 0.8454 0.45893 0.29785 0.0
H3490 H 0.8318 0.46842 0.26508 0.0
H3491 H 0.82107 0.48858 0.25102 0.0
H3492 H 0.83266 0.53433 0.29734 0.0
H3493 H 0.84825 0.52603 0.32845 0.0
C3494 C 0.85122 0.49674 0.32686 0.0
C3495 C 0.85162 0.48083 0.32385 0.0
C3496 C 0.84354 0.50233 0.308 0.0
C3497 C 0.84495 0.47103 0.30101 0.0
C3498 C 0.83722 0.47648 0.28217 0.0
C3499 C 0.82718 0.49679 0.26782 0.0
C3500 C 0.82571 0.51201 0.27191 0.0
C3501 C 0.8361 0.4919 0.28572 0.0
C3502 C 0.83379 0.52265 0.29363 0.0
C3503 C 0.84259 0.51784 0.31153 0.0
H3504 H 0.63415 0.1406 0.857 0.0
H3505 H 0.65932 0.18488 0.90945 0.0
H3506 H 0.68726 0.19663 0.88566 0.0
H3507 H 0.70375 0.19554 0.84795 0.0
H3508 H 0.67778 0.15199 0.79434 0.0
H3509 H 0.65107 0.13863 0.82079 0.0
C3510 C 0.64576 0.15282 0.86323 0.0
C3511 C 0.64461 0.16196 0.88477 0.0
C3512 C 0.66165 0.15963 0.84925 0.0
C3513 C 0.65987 0.17755 0.89298 0.0
C3514 C 0.67582 0.18433 0.8793 0.0
C3515 C 0.69226 0.18311 0.84208 0.0
C3516 C 0.69278 0.17486 0.81908 0.0
C3517 C 0.67674 0.17568 0.85709 0.0
C3518 C 0.67788 0.15856 0.81205 0.0
C3519 C 0.6625 0.15097 0.82705 0.0
H3520 H 0.85718 0.49547 0.87393 0.0
H3521 H 0.81544 0.48276 0.92904 0.0
H3522 H 0.80335 0.49726 0.90192 0.0
H3523 H 0.80364 0.51182 0.86123 0.0
H3524 H 0.84451 0.52256 0.80519 0.0
H3525 H 0.85825 0.51111 0.83439 0.0
C3526 C 0.84567 0.49622 0.88028 0.0
C3527 C 0.83724 0.48811 0.90347 0.0
C3528 C 0.83863 0.50423 0.8644 0.0
C3529 C 0.8221 0.48884 0.91119 0.0
C3530 C 0.8152 0.49712 0.8957 0.0
C3531 C 0.81554 0.51165 0.85537 0.0
C3532 C 0.82296 0.51807 0.83095 0.0
C3533 C 0.82315 0.50453 0.872 0.0
C3534 C 0.8386 0.51802 0.82396 0.0
C3535 C 0.84642 0.51129 0.84057 0.0
H3536 H 0.49575 0.34368 0.89843 0.0
H3537 H 0.54873 0.35527 0.87826 0.0
H3538 H 0.53646 0.33041 0.84824 0.0
H3539 H 0.51099 0.30708 0.8252 0.0
H3540 H 0.45781 0.29501 0.84512 0.0
H3541 H 0.4699 0.31863 0.87735 0.0
C3542 C 0.50458 0.34069 0.88754 0.0
C3543 C 0.52312 0.35133 0.89059 0.0
C3544 C 0.49743 0.32646 0.87003 0.0
C3545 C 0.5344 0.34717 0.87657 0.0
C3546 C 0.52741 0.33304 0.85921 0.0
C3547 C 0.50196 0.30928 0.83695 0.0
C3548 C 0.48349 0.29927 0.83261 0.0
C3549 C 0.50897 0.32279 0.8555 0.0
C3550 C 0.47209 0.30267 0.84773 0.0
C3551 C 0.47899 0.31613 0.86627 0.0
H3552 H 0.47394 0.62784 0.68883 0.0
H3553 H 0.51364 0.65918 0.63199 0.0
H3554 H 0.52635 0.68465 0.66072 0.0
H3555 H 0.52456 0.69894 0.7 0.0
H3556 H 0.48417 0.66855 0.7563 0.0
H3557 H 0.47311 0.64191 0.72947 0.0
C3558 C 0.48538 0.64023 0.68272 0.0
C3559 C 0.49276 0.6415 0.6582 0.0
C3560 C 0.49238 0.65508 0.6991 0.0
C3561 C 0.5078 0.65762 0.65084 0.0
C3562 C 0.515 0.67231 0.66718 0.0
C3563 C 0.51358 0.68641 0.7067 0.0
C3564 C 0.50522 0.68571 0.73012 0.0
C3565 C 0.5072 0.67129 0.6911 0.0
C3566 C 0.49075 0.66944 0.73824 0.0
C3567 C 0.48445 0.65422 0.72294 0.0
H3568 H 0.35969 0.81737 0.66002 0.0
H3569 H 0.37327 0.87065 0.68174 0.0
H3570 H 0.34871 0.85869 0.71262 0.0
H3571 H 0.32185 0.83293 0.73082 0.0
H3572 H 0.30795 0.77991 0.70731 0.0
H3573 H 0.33441 0.79188 0.68014 0.0
C3574 C 0.35755 0.82638 0.67191 0.0
C3575 C 0.36828 0.84486 0.6686 0.0
C3576 C 0.3433 0.81943 0.68925 0.0
C3577 C 0.36507 0.85636 0.68379 0.0
C3578 C 0.35107 0.84954 0.70147 0.0
C3579 C 0.32487 0.82407 0.72008 0.0
C3580 C 0.31306 0.80563 0.7209 0.0
C3581 C 0.33988 0.83108 0.70399 0.0
C3582 C 0.31689 0.79418 0.70677 0.0
C3583 C 0.33196 0.801 0.69124 0.0
H3584 H 0.14727 0.49314 0.63903 0.0
H3585 H 0.1592 0.53785 0.68788 0.0
H3586 H 0.17247 0.52719 0.7197 0.0
H3587 H 0.18311 0.50658 0.73164 0.0
H3588 H 0.17104 0.46196 0.68235 0.0
H3589 H 0.15549 0.47121 0.65265 0.0
C3590 C 0.15271 0.50049 0.65671 0.0
C3591 C 0.15245 0.51633 0.66102 0.0
C3592 C 0.16042 0.49438 0.67472 0.0
C3593 C 0.15922 0.52557 0.6842 0.0
C3594 C 0.1669 0.51955 0.70231 0.0
C3595 C 0.17678 0.49871 0.71464 0.0
C3596 C 0.17845 0.48377 0.70901 0.0
C3597 C 0.16789 0.50415 0.69753 0.0
C3598 C 0.17025 0.47374 0.68685 0.0
C3599 C 0.16131 0.47897 0.66988 0.0
H3600 H 0.33985 0.82391 0.09625 0.0
H3601 H 0.37647 0.84501 0.15985 0.0
H3602 H 0.35179 0.83656 0.18952 0.0
H3603 H 0.31994 0.82237 0.19768 0.0
H3604 H 0.2827 0.80003 0.13505 0.0
H3605 H 0.30744 0.80972 0.10461 0.0
C3606 C 0.34234 0.82671 0.11659 0.0
C3607 C 0.35988 0.83494 0.12595 0.0
C3608 C 0.32802 0.82158 0.13365 0.0
C3609 C 0.36303 0.83846 0.15232 0.0
C3610 C 0.34895 0.83371 0.16926 0.0
C3611 C 0.31725 0.81987 0.17731 0.0
C3612 C 0.29959 0.8107 0.16853 0.0
C3613 C 0.33142 0.82517 0.16017 0.0
C3614 C 0.29624 0.80711 0.14219 0.0
C3615 C 0.31035 0.81265 0.12484 0.0
H3616 H 0.15388 0.49824 0.10021 0.0
H3617 H 0.20284 0.54833 0.10691 0.0
H3618 H 0.2155 0.53441 0.13388 0.0
H3619 H 0.21135 0.50904 0.15947 0.0
H3620 H 0.16225 0.45892 0.15385 0.0
H3621 H 0.15092 0.47181 0.12252 0.0
C3622 C 0.16746 0.50596 0.10709 0.0
C3623 C 0.17739 0.52429 0.10177 0.0
C3624 C 0.17451 0.49795 0.12306 0.0
C3625 C 0.19491 0.53423 0.11101 0.0
C3626 C 0.20213 0.52629 0.12644 0.0
C3627 C 0.19835 0.50076 0.15092 0.0
C3628 C 0.18764 0.48306 0.15912 0.0
C3629 C 0.19187 0.5083 0.13319 0.0
C3630 C 0.17068 0.47266 0.14814 0.0
C3631 C 0.16421 0.48001 0.13018 0.0
H3632 H 0.52581 0.70033 0.13881 0.0
H3633 H 0.47827 0.70259 0.15575 0.0
H3634 H 0.46083 0.6767 0.12872 0.0
H3635 H 0.45839 0.65151 0.1042 0.0
H3636 H 0.50542 0.64791 0.08949 0.0
H3637 H 0.5237 0.67623 0.11149 0.0
C3638 C 0.51166 0.69522 0.13646 0.0
C3639 C 0.5034 0.70338 0.14947 0.0
C3640 C 0.50155 0.67997 0.12142 0.0
C3641 C 0.48508 0.69676 0.14579 0.0
C3642 C 0.47502 0.68181 0.13052 0.0
C3643 C 0.47266 0.65697 0.10572 0.0
C3644 C 0.48049 0.64751 0.09551 0.0
C3645 C 0.48302 0.67303 0.11887 0.0
C3646 C 0.49905 0.65495 0.09709 0.0
C3647 C 0.5095 0.67108 0.10985 0.0
H3648 H 0.16783 0.66544 0.58502 0.0
H3649 H 0.12709 0.62695 0.63491 0.0
H3650 H 0.13522 0.64956 0.66806 0.0
H3651 H 0.15588 0.67929 0.68449 0.0
H3652 H 0.19642 0.71817 0.63461 0.0
H3653 H 0.18652 0.69633 0.60001 0.0
C3654 C 0.16063 0.66211 0.60306 0.0
C3655 C 0.14691 0.64458 0.60753 0.0
C3656 C 0.16549 0.67515 0.62217 0.0
C3657 C 0.13756 0.64042 0.63088 0.0
C3658 C 0.14231 0.6533 0.64995 0.0
C3659 C 0.16231 0.68318 0.66589 0.0
C3660 C 0.17706 0.70031 0.66237 0.0
C3661 C 0.1565 0.6706 0.64601 0.0
C3662 C 0.1853 0.70496 0.63812 0.0
C3663 C 0.1796 0.6925 0.61824 0.0
H3664 H 0.30428 0.47304 0.65123 0.0
H3665 H 0.32313 0.5189 0.70067 0.0
H3666 H 0.347 0.53662 0.67057 0.0
H3667 H 0.36293 0.53903 0.63089 0.0
H3668 H 0.34474 0.49352 0.58106 0.0
H3669 H 0.32012 0.47571 0.61055 0.0
C3670 C 0.31357 0.48693 0.65529 0.0
C3671 C 0.31204 0.49459 0.67827 0.0
C3672 C 0.32733 0.4971 0.63784 0.0
C3673 C 0.32422 0.51259 0.68337 0.0
C3674 C 0.3378 0.52278 0.66608 0.0
C3675 C 0.3534 0.52529 0.62624 0.0
C3676 C 0.35552 0.51764 0.60373 0.0
C3677 C 0.33951 0.51516 0.64334 0.0
C3678 C 0.34335 0.49969 0.59831 0.0
C3679 C 0.3293 0.48953 0.61514 0.0
H3680 H 0.50855 0.79955 0.63943 0.0
H3681 H 0.52604 0.84569 0.68799 0.0
H3682 H 0.51468 0.85864 0.65719 0.0
H3683 H 0.49719 0.85562 0.61891 0.0
H3684 H 0.47828 0.80908 0.57098 0.0
H3685 H 0.49252 0.79739 0.59936 0.0
C3686 C 0.5099 0.81245 0.64326 0.0
C3687 C 0.51811 0.82157 0.66609 0.0
C3688 C 0.50292 0.81968 0.62573 0.0
C3689 C 0.52002 0.83843 0.67048 0.0
C3690 C 0.51337 0.84581 0.65297 0.0
C3691 C 0.49654 0.84312 0.61427 0.0
C3692 C 0.48671 0.83325 0.59284 0.0
C3693 C 0.5045 0.8364 0.63082 0.0
C3694 C 0.48567 0.81688 0.58747 0.0
C3695 C 0.49381 0.8102 0.60368 0.0
H3696 H 0.30443 0.47314 0.21176 0.0
H3697 H 0.33352 0.51711 0.26365 0.0
H3698 H 0.36003 0.52813 0.2366 0.0
H3699 H 0.37411 0.52643 0.1965 0.0
H3700 H 0.34403 0.48315 0.14378 0.0
H3701 H 0.319 0.4704 0.17333 0.0
C3702 C 0.31669 0.4849 0.21751 0.0
C3703 C 0.31701 0.4943 0.23967 0.0
C3704 C 0.33172 0.49131 0.20168 0.0
C3705 C 0.33291 0.50972 0.24656 0.0
C3706 C 0.34806 0.51602 0.23111 0.0
C3707 C 0.3621 0.5142 0.19149 0.0
C3708 C 0.36103 0.50584 0.16784 0.0
C3709 C 0.34748 0.50714 0.2083 0.0
C3710 C 0.34543 0.48979 0.16193 0.0
C3711 C 0.33098 0.48255 0.17874 0.0
H3712 H 0.5312 0.84077 0.21541 0.0
H3713 H 0.48424 0.82014 0.26285 0.0
H3714 H 0.47355 0.83662 0.23754 0.0
H3715 H 0.47594 0.85397 0.19893 0.0
H3716 H 0.52254 0.87372 0.15092 0.0
H3717 H 0.5353 0.86108 0.1801 0.0
C3718 C 0.51888 0.84027 0.22074 0.0
C3719 C 0.50845 0.82908 0.24085 0.0
C3720 C 0.51272 0.84959 0.20593 0.0
C3721 C 0.49239 0.82842 0.2472 0.0
C3722 C 0.48628 0.83786 0.23276 0.0
C3723 C 0.48899 0.85568 0.19505 0.0
C3724 C 0.49818 0.86457 0.17264 0.0
C3725 C 0.49605 0.84799 0.21156 0.0
C3726 C 0.51522 0.86701 0.16809 0.0
C3727 C 0.52245 0.85963 0.18464 0.0
H3728 H 0.17554 0.66426 0.25087 0.0
H3729 H 0.16092 0.69735 0.20736 0.0
H3730 H 0.14524 0.67348 0.17637 0.0
H3731 H 0.13883 0.64474 0.15882 0.0
H3732 H 0.15377 0.61163 0.20157 0.0
H3733 H 0.16637 0.63407 0.23542 0.0
C3734 C 0.16878 0.66617 0.23473 0.0
C3735 C 0.16949 0.6826 0.23143 0.0
C3736 C 0.16006 0.65249 0.21661 0.0
C3737 C 0.16044 0.68478 0.21059 0.0
C3738 C 0.1516 0.67119 0.19267 0.0
C3739 C 0.14442 0.6422 0.17582 0.0
C3740 C 0.14552 0.6266 0.17748 0.0
C3741 C 0.15173 0.65518 0.19513 0.0
C3742 C 0.15305 0.62367 0.19956 0.0
C3743 C 0.16021 0.63647 0.21897 0.0
H3744 H 0.14566 0.17675 0.26025 0.0
H3745 H 0.11748 0.1269 0.30082 0.0
H3746 H 0.12823 0.11308 0.27007 0.0
H3747 H 0.14688 0.11566 0.23278 0.0
H3748 H 0.17573 0.16591 0.19326 0.0
H3749 H 0.16349 0.17909 0.2224 0.0
C3750 C 0.14165 0.16278 0.26209 0.0
C3751 C 0.13076 0.15283 0.28267 0.0
C3752 C 0.14814 0.15506 0.24466 0.0
C3753 C 0.12592 0.13483 0.28515 0.0
C3754 C 0.13206 0.12694 0.26759 0.0
C3755 C 0.15032 0.12944 0.23045 0.0
C3756 C 0.16227 0.13983 0.21102 0.0
C3757 C 0.14337 0.13699 0.24746 0.0
C3758 C 0.16676 0.15771 0.20831 0.0
C3759 C 0.1597 0.16524 0.22488 0.0
H3760 H 0.85927 0.974 0.27913 0.0
H3761 H 0.8045 0.95988 0.26719 0.0
H3762 H 0.81364 0.98288 0.23455 0.0
H3763 H 0.83711 0.00775 0.21064 0.0
H3764 H 0.892 0.02247 0.22256 0.0
H3765 H 0.88291 0.99884 0.25454 0.0
C3766 C 0.84935 0.97599 0.26944 0.0
C3767 C 0.83121 0.9651 0.27556 0.0
C3768 C 0.85471 0.98948 0.25091 0.0
C3769 C 0.81852 0.96777 0.26257 0.0
C3770 C 0.82374 0.98106 0.24405 0.0
C3771 C 0.84709 0.00567 0.21997 0.0
C3772 C 0.8652 0.01684 0.21415 0.0
C3773 C 0.84178 0.99205 0.23818 0.0
C3774 C 0.87798 0.01418 0.22686 0.0
C3775 C 0.87278 0.0006 0.24504 0.0
H3776 H 0.97304 0.82458 0.23634 0.0
H3777 H 0.99298 0.87637 0.20209 0.0
H3778 H 0.01709 0.88931 0.23364 0.0
H3779 H 0.03302 0.88566 0.27022 0.0
H3780 H 0.01293 0.83368 0.304 0.0
H3781 H 0.98837 0.82108 0.2734 0.0
C3782 C 0.9825 0.83875 0.23602 0.0
C3783 C 0.98119 0.84951 0.21698 0.0
C3784 C 0.99639 0.84604 0.25401 0.0
C3785 C 0.99377 0.86779 0.21648 0.0
C3786 C 0.00754 0.8752 0.23453 0.0
C3787 C 0.02317 0.87161 0.27099 0.0
C3788 C 0.02488 0.86061 0.28924 0.0
C3789 C 0.00906 0.86442 0.25326 0.0
C3790 C 0.0121 0.84239 0.28987 0.0
C3791 C 0.99798 0.83518 0.27248 0.0
H3792 H 0.84868 0.84121 0.70176 0.0
H3793 H 0.8967 0.85592 0.74464 0.0
H3794 H 0.88727 0.86934 0.77776 0.0
H3795 H 0.86506 0.87647 0.79492 0.0
H3796 H 0.81798 0.86302 0.75063 0.0
H3797 H 0.82775 0.85012 0.71715 0.0
C3798 C 0.85734 0.84766 0.718 0.0
C3799 C 0.8734 0.84745 0.72058 0.0
C3800 C 0.85205 0.8557 0.73668 0.0
C3801 C 0.88413 0.85555 0.74226 0.0
C3802 C 0.87881 0.86337 0.76115 0.0
C3803 C 0.85702 0.87077 0.77785 0.0
C3804 C 0.84084 0.87067 0.77521 0.0
C3805 C 0.86274 0.8634 0.75865 0.0
C3806 C 0.83058 0.86341 0.75295 0.0
C3807 C 0.83609 0.85593 0.73391 0.0
H3808 H 0.13135 0.0084 0.7091 0.0
H3809 H 0.17893 0.0424 0.75222 0.0
H3810 H 0.16983 0.01977 0.78562 0.0
H3811 H 0.14922 0.98993 0.80149 0.0
H3812 H 0.10084 0.95618 0.75963 0.0
H3813 H 0.10968 0.97893 0.72647 0.0
C3814 C 0.13968 0.01083 0.72587 0.0
C3815 C 0.15578 0.02704 0.7282 0.0
C3816 C 0.13436 0.99775 0.74504 0.0
C3817 C 0.16637 0.03012 0.75012 0.0
C3818 C 0.16125 0.01714 0.76913 0.0
C3819 C 0.14038 0.9876 0.78542 0.0
C3820 C 0.12437 0.97125 0.78318 0.0
C3821 C 0.14535 0.00086 0.76669 0.0
C3822 C 0.11338 0.96845 0.76175 0.0
C3823 C 0.11836 0.98153 0.74283 0.0
H3824 H 0.98997 0.12152 0.70657 0.0
H3825 H 0.95722 0.13721 0.74859 0.0
H3826 H 0.97898 0.14863 0.78341 0.0
H3827 H 0.00782 0.15555 0.80069 0.0
H3828 H 0.04002 0.13827 0.76036 0.0
H3829 H 0.01814 0.12649 0.72575 0.0
C3830 C 0.98762 0.12737 0.72345 0.0
C3831 C 0.97207 0.12855 0.72508 0.0
C3832 C 0.00014 0.1338 0.74349 0.0
C3833 C 0.96903 0.13601 0.74707 0.0
C3834 C 0.98151 0.14264 0.76688 0.0
C3835 C 0.00997 0.14885 0.78471 0.0
C3836 C 0.02567 0.14787 0.7833 0.0
C3837 C 0.99716 0.14173 0.76519 0.0
C3838 C 0.02827 0.13953 0.76189 0.0
C3839 C 0.01568 0.13266 0.74212 0.0
H3840 H 0.81912 0.49506 0.62816 0.0
H3841 H 0.76882 0.47738 0.58996 0.0
H3842 H 0.77823 0.46534 0.55486 0.0
H3843 H 0.80085 0.45976 0.53498 0.0
H3844 H 0.84995 0.4755 0.5752 0.0
H3845 H 0.84062 0.48786 0.61004 0.0
C3846 C 0.80997 0.48825 0.61252 0.0
C3847 C 0.79323 0.48718 0.6119 0.0
C3848 C 0.81523 0.4809 0.59278 0.0
C3849 C 0.78189 0.47872 0.59089 0.0
C3850 C 0.7872 0.47168 0.57085 0.0
C3851 C 0.80942 0.46586 0.55146 0.0
C3852 C 0.82603 0.46675 0.55263 0.0
C3853 C 0.80386 0.47274 0.57157 0.0
C3854 C 0.83704 0.47455 0.57407 0.0
C3855 C 0.83175 0.48168 0.59389 0.0
H3856 H 0.52093 0.30429 0.5891 0.0
H3857 H 0.50264 0.33234 0.63716 0.0
H3858 H 0.51603 0.35786 0.60808 0.0
H3859 H 0.5312 0.37137 0.5676 0.0
H3860 H 0.54788 0.34275 0.51792 0.0
H3861 H 0.537 0.31831 0.54897 0.0
C3862 C 0.5201 0.3161 0.59326 0.0
C3863 C 0.51082 0.3165 0.6151 0.0
C3864 C 0.52747 0.33055 0.57613 0.0
C3865 C 0.50963 0.33175 0.62029 0.0
C3866 C 0.51729 0.34632 0.60372 0.0
C3867 C 0.53271 0.35991 0.56383 0.0
C3868 C 0.54038 0.35884 0.54066 0.0
C3869 C 0.526 0.34577 0.5814 0.0
C3870 C 0.54197 0.34379 0.53568 0.0
C3871 C 0.53575 0.32984 0.55339 0.0
H3872 H 0.66079 0.17269 0.52627 0.0
H3873 H 0.62851 0.18846 0.56964 0.0
H3874 H 0.65172 0.20178 0.60228 0.0
H3875 H 0.68078 0.20807 0.61919 0.0
H3876 H 0.71372 0.19415 0.57386 0.0
H3877 H 0.69067 0.18128 0.54108 0.0
C3878 C 0.65888 0.17936 0.54251 0.0
C3879 C 0.64278 0.17946 0.54536 0.0
C3880 C 0.67241 0.18732 0.56095 0.0
C3881 C 0.64056 0.18784 0.56704 0.0
C3882 C 0.65391 0.1956 0.58567 0.0
C3883 C 0.6831 0.20254 0.60193 0.0
C3884 C 0.69894 0.20193 0.59923 0.0
C3885 C 0.66984 0.19531 0.58291 0.0
C3886 C 0.70153 0.19448 0.5768 0.0
C3887 C 0.68838 0.18718 0.55794 0.0
H3888 H 0.54363 0.1697 0.08234 0.0
H3889 H 0.53666 0.19851 0.02014 0.0
H3890 H 0.5256 0.2123 0.05015 0.0
H3891 H 0.51578 0.21448 0.09351 0.0
H3892 H 0.52138 0.18455 0.15535 0.0
H3893 H 0.53514 0.173 0.12609 0.0
C3894 C 0.53972 0.17903 0.07536 0.0
C3895 C 0.5409 0.18297 0.04899 0.0
C3896 C 0.53304 0.18666 0.09265 0.0
C3897 C 0.53609 0.19535 0.04035 0.0
C3898 C 0.5296 0.20314 0.05747 0.0
C3899 C 0.52002 0.20543 0.10058 0.0
C3900 C 0.51744 0.20031 0.12655 0.0
C3901 C 0.52768 0.19861 0.08357 0.0
C3902 C 0.52333 0.18884 0.13551 0.0
C3903 C 0.53109 0.18212 0.11875 0.0
H3904 H 0.80091 0.34355 0.04233 0.0
H3905 H 0.84942 0.37759 0.08346 0.0
H3906 H 0.84029 0.35572 0.11801 0.0
H3907 H 0.81945 0.32637 0.13519 0.0
H3908 H 0.76996 0.29281 0.09559 0.0
H3909 H 0.77879 0.31488 0.06145 0.0
C3910 C 0.8094 0.34616 0.05896 0.0
C3911 C 0.82581 0.3621 0.06039 0.0
C3912 C 0.80402 0.33355 0.07882 0.0
C3913 C 0.83665 0.36546 0.08208 0.0
C3914 C 0.83149 0.35292 0.10174 0.0
C3915 C 0.81034 0.32395 0.11946 0.0
C3916 C 0.79406 0.3078 0.11808 0.0
C3917 C 0.81529 0.33686 0.10018 0.0
C3918 C 0.78273 0.3049 0.09704 0.0
C3919 C 0.7877 0.31759 0.07756 0.0
H3920 H 0.66125 0.48323 0.0321 0.0
H3921 H 0.6279 0.43813 0.08014 0.0
H3922 H 0.65122 0.44902 0.11285 0.0
H3923 H 0.68066 0.47208 0.1285 0.0
H3924 H 0.714 0.51668 0.07968 0.0
H3925 H 0.69118 0.50504 0.04637 0.0
C3926 C 0.65915 0.47555 0.04948 0.0
C3927 C 0.64279 0.45986 0.05359 0.0
C3928 C 0.67262 0.48182 0.06811 0.0
C3929 C 0.64025 0.45036 0.07657 0.0
C3930 C 0.65362 0.45653 0.09523 0.0
C3931 C 0.68304 0.47909 0.1104 0.0
C3932 C 0.69897 0.49529 0.10667 0.0
C3933 C 0.66981 0.47235 0.09132 0.0
C3934 C 0.70175 0.50432 0.0832 0.0
C3935 C 0.68873 0.49765 0.06412 0.0
H3936 H 0.4503 0.81532 0.93402 0.0
H3937 H 0.49608 0.83298 0.98321 0.0
H3938 H 0.50803 0.81909 0.95492 0.0
H3939 H 0.50636 0.80348 0.91517 0.0
H3940 H 0.46158 0.78713 0.8643 0.0
H3941 H 0.44808 0.79842 0.89462 0.0
C3942 C 0.46277 0.81591 0.93861 0.0
C3943 C 0.4724 0.82529 0.96047 0.0
C3944 C 0.46972 0.8081 0.92203 0.0
C3945 C 0.48859 0.82605 0.96625 0.0
C3946 C 0.49539 0.81807 0.95015 0.0
C3947 C 0.49367 0.80241 0.91065 0.0
C3948 C 0.48511 0.79463 0.88737 0.0
C3949 C 0.48624 0.80936 0.92777 0.0
C3950 C 0.46843 0.79295 0.88216 0.0
C3951 C 0.46076 0.79954 0.89939 0.0
H3952 H 0.17454 0.68825 0.88911 0.0
H3953 H 0.22832 0.69821 0.89487 0.0
H3954 H 0.21892 0.67442 0.92669 0.0
H3955 H 0.19527 0.65049 0.95238 0.0
H3956 H 0.14135 0.64013 0.94579 0.0
H3957 H 0.15088 0.66426 0.91465 0.0
C3958 C 0.1842 0.68531 0.89757 0.0
C3959 C 0.2021 0.695 0.88985 0.0
C3960 C 0.17865 0.67145 0.91551 0.0
C3961 C 0.21446 0.69087 0.90053 0.0
C3962 C 0.2091 0.6773 0.9187 0.0
C3963 C 0.18564 0.65359 0.9442 0.0
C3964 C 0.16763 0.64352 0.95133 0.0
C3965 C 0.19121 0.66745 0.92625 0.0
C3966 C 0.15525 0.64753 0.94035 0.0
C3967 C 0.16071 0.6614 0.92268 0.0
H3968 H 0.34797 0.50714 0.94708 0.0
H3969 H 0.34959 0.55721 0.95683 0.0
H3970 H 0.32442 0.54757 0.92717 0.0
H3971 H 0.302 0.5247 0.89827 0.0
H3972 H 0.29971 0.4741 0.89078 0.0
H3973 H 0.32494 0.48399 0.91993 0.0
C3974 C 0.34282 0.51593 0.94252 0.0
C3975 C 0.35064 0.53289 0.95368 0.0
C3976 C 0.32816 0.51013 0.92607 0.0
C3977 C 0.34375 0.54412 0.94821 0.0
C3978 C 0.32939 0.5386 0.93133 0.0
C3979 C 0.30704 0.51588 0.90316 0.0
C3980 C 0.29901 0.49869 0.89252 0.0
C3981 C 0.32148 0.52161 0.92014 0.0
C3982 C 0.30554 0.4873 0.89903 0.0
C3983 C 0.32004 0.49299 0.91553 0.0
H3984 H 0.19823 0.54877 0.45566 0.0
H3985 H 0.14762 0.52947 0.41786 0.0
H3986 H 0.15688 0.51666 0.38362 0.0
H3987 H 0.1785 0.50933 0.36595 0.0
H3988 H 0.22967 0.52948 0.40261 0.0
H3989 H 0.22084 0.54316 0.4361 0.0
C3990 C 0.18928 0.54181 0.43984 0.0
C3991 C 0.17226 0.54005 0.4393 0.0
C3992 C 0.19468 0.53443 0.42023 0.0
C3993 C 0.16086 0.53118 0.41858 0.0
C3994 C 0.16609 0.52373 0.3991 0.0
C3995 C 0.18792 0.51701 0.38091 0.0
C3996 C 0.20472 0.51823 0.3817 0.0
C3997 C 0.18288 0.5251 0.39989 0.0
C3998 C 0.21652 0.52797 0.40169 0.0
C3999 C 0.21153 0.53593 0.42079 0.0
H4000 H 0.47122 0.63202 0.41573 0.0
H4001 H 0.45474 0.66104 0.46494 0.0
H4002 H 0.46456 0.68476 0.43286 0.0
H4003 H 0.47881 0.69764 0.39153 0.0
H4004 H 0.49763 0.66955 0.34421 0.0
H4005 H 0.48557 0.64496 0.37451 0.0
C4006 C 0.46957 0.64345 0.41919 0.0
C4007 C 0.4622 0.64482 0.44246 0.0
C4008 C 0.47567 0.6572 0.40101 0.0
C4009 C 0.4604 0.65978 0.44707 0.0
C4010 C 0.46602 0.67332 0.42878 0.0
C4011 C 0.48042 0.68623 0.38789 0.0
C4012 C 0.48908 0.68554 0.36543 0.0
C4013 C 0.47391 0.67228 0.40583 0.0
C4014 C 0.49073 0.67041 0.36097 0.0
C4015 C 0.48396 0.65635 0.37844 0.0
H4016 H 0.34225 0.8027 0.46147 0.0
H4017 H 0.37518 0.84979 0.41684 0.0
H4018 H 0.35261 0.83928 0.38308 0.0
H4019 H 0.32316 0.81749 0.36725 0.0
H4020 H 0.29077 0.76932 0.41035 0.0
H4021 H 0.31332 0.77974 0.44404 0.0
C4022 C 0.34445 0.8106 0.44429 0.0
C4023 C 0.3603 0.82699 0.4416 0.0
C4024 C 0.33147 0.80441 0.42486 0.0
C4025 C 0.36313 0.83706 0.4192 0.0
C4026 C 0.3502 0.83111 0.39998 0.0
C4027 C 0.32109 0.80901 0.38369 0.0
C4028 C 0.30516 0.7926 0.3861 0.0
C4029 C 0.33428 0.81486 0.40269 0.0
C4030 C 0.3027 0.78214 0.40804 0.0
C4031 C 0.31567 0.78803 0.42728 0.0
H4032 H 0.30604 0.16889 0.16437 0.0
H4033 H 0.30369 0.12066 0.13773 0.0
H4034 H 0.33483 0.1325 0.14952 0.0
H4035 H 0.36273 0.15657 0.16722 0.0
H4036 H 0.36464 0.20421 0.19568 0.0
H4037 H 0.33364 0.19254 0.18335 0.0
C4038 C 0.31226 0.16086 0.16143 0.0
C4039 C 0.30251 0.14391 0.15016 0.0
C4040 C 0.33011 0.16766 0.16849 0.0
C4041 C 0.31092 0.13384 0.14604 0.0
C4042 C 0.3287 0.14056 0.15292 0.0
C4043 C 0.35632 0.16432 0.17101 0.0
C4044 C 0.36605 0.18127 0.18231 0.0
C4045 C 0.33842 0.15745 0.16414 0.0
C4046 C 0.35758 0.19125 0.18666 0.0
C4047 C 0.33981 0.18454 0.17976 0.0
H4048 H 0.80998 0.16601 0.19774 0.0
H4049 H 0.84403 0.21033 0.14898 0.0
H4050 H 0.85917 0.19458 0.13433 0.0
H4051 H 0.86301 0.16839 0.13592 0.0
H4052 H 0.82879 0.12407 0.18462 0.0
H4053 H 0.81376 0.13987 0.19927 0.0
C4054 C 0.82083 0.1723 0.18409 0.0
C4055 C 0.82589 0.18933 0.1745 0.0
C4056 C 0.82952 0.16322 0.17588 0.0
C4057 C 0.83975 0.19715 0.15645 0.0
C4058 C 0.84848 0.1882 0.14818 0.0
C4059 C 0.85218 0.16213 0.14959 0.0
C4060 C 0.84709 0.1451 0.15922 0.0
C4061 C 0.84348 0.17123 0.15778 0.0
C4062 C 0.83317 0.13728 0.1772 0.0
C4063 C 0.82448 0.14625 0.18546 0.0
H4064 H 0.80132 0.64576 0.18406 0.0
H4065 H 0.84482 0.63561 0.17386 0.0
H4066 H 0.8645 0.66665 0.1621 0.0
H4067 H 0.86926 0.69654 0.1539 0.0
H4068 H 0.82573 0.70669 0.16323 0.0
H4069 H 0.80605 0.67568 0.17561 0.0
C4070 C 0.81506 0.6503 0.17903 0.0
C4071 C 0.82158 0.63837 0.17992 0.0
C4072 C 0.82628 0.66814 0.17204 0.0
C4073 C 0.83951 0.64455 0.17372 0.0
C4074 C 0.85076 0.66229 0.16684 0.0
C4075 C 0.85551 0.692 0.1589 0.0
C4076 C 0.84897 0.70389 0.15772 0.0
C4077 C 0.84429 0.67419 0.16594 0.0
C4078 C 0.83104 0.69775 0.1638 0.0
C4079 C 0.81981 0.68005 0.17097 0.0
H4080 H 0.17971 0.35631 0.29193 0.0
H4081 H 0.17578 0.37355 0.36832 0.0
H4082 H 0.1621 0.34307 0.38352 0.0
H4083 H 0.15145 0.31161 0.37548 0.0
H4084 H 0.15954 0.29508 0.30081 0.0
H4085 H 0.17139 0.32524 0.28481 0.0
C4086 C 0.1762 0.35358 0.31203 0.0
C4087 C 0.17874 0.36745 0.32875 0.0
C4088 C 0.16898 0.33606 0.32105 0.0
C4089 C 0.17364 0.36328 0.35464 0.0
C4090 C 0.16595 0.3458 0.36352 0.0
C4091 C 0.15608 0.31453 0.35582 0.0
C4092 C 0.1544 0.30082 0.33948 0.0
C4093 C 0.1636 0.3321 0.34691 0.0
C4094 C 0.16017 0.30508 0.31385 0.0
C4095 C 0.16716 0.32244 0.30467 0.0
H4096 H 0.62865 0.81383 0.34314 0.0
H4097 H 0.6452 0.8092 0.26677 0.0
H4098 H 0.67636 0.82679 0.27965 0.0
H4099 H 0.69893 0.8433 0.31276 0.0
H4100 H 0.68224 0.84697 0.38939 0.0
H4101 H 0.65106 0.82954 0.37639 0.0
C4102 C 0.63904 0.81642 0.32937 0.0
C4103 C 0.63454 0.81018 0.30401 0.0
C4104 C 0.6569 0.82633 0.33698 0.0
C4105 C 0.64825 0.81403 0.28632 0.0
C4106 C 0.66608 0.824 0.2937 0.0
C4107 C 0.68844 0.84035 0.32653 0.0
C4108 C 0.69284 0.84641 0.35196 0.0
C4109 C 0.67056 0.83025 0.31896 0.0
C4110 C 0.67915 0.8423 0.36975 0.0
C4111 C 0.66135 0.83241 0.36231 0.0
H4112 H 0.1819 0.81315 0.35605 0.0
H4113 H 0.19266 0.83731 0.28089 0.0
H4114 H 0.17637 0.85255 0.29195 0.0
H4115 H 0.15895 0.85894 0.3229 0.0
H4116 H 0.149 0.83555 0.39843 0.0
H4117 H 0.16553 0.82046 0.38751 0.0
C4118 C 0.18092 0.82195 0.34219 0.0
C4119 C 0.18844 0.82398 0.31762 0.0
C4120 C 0.17174 0.83087 0.34877 0.0
C4121 C 0.18675 0.83522 0.29978 0.0
C4122 C 0.17753 0.84405 0.30614 0.0
C4123 C 0.16037 0.85049 0.33691 0.0
C4124 C 0.15275 0.84831 0.36139 0.0
C4125 C 0.1699 0.84189 0.33052 0.0
C4126 C 0.15489 0.83754 0.37952 0.0
C4127 C 0.16425 0.82884 0.37325 0.0
H4128 H 0.69161 0.86207 0.86184 0.0
H4129 H 0.69926 0.82165 0.82581 0.0
H4130 H 0.66819 0.80597 0.81183 0.0
H4131 H 0.63891 0.80379 0.80994 0.0
H4132 H 0.63163 0.8449 0.84457 0.0
H4133 H 0.66238 0.86004 0.85952 0.0
C4134 C 0.6864 0.84974 0.85111 0.0
C4135 C 0.69766 0.843 0.84488 0.0
C4136 C 0.6686 0.8409 0.843 0.0
C4137 C 0.69085 0.82716 0.83064 0.0
C4138 C 0.6731 0.81818 0.82273 0.0
C4139 C 0.64408 0.81615 0.82052 0.0
C4140 C 0.63291 0.82314 0.82613 0.0
C4141 C 0.66187 0.82497 0.82871 0.0
C4142 C 0.6398 0.83904 0.84029 0.0
C4143 C 0.65744 0.84779 0.84872 0.0
H4144 H 0.1886 0.82026 0.85435 0.0
H4145 H 0.17338 0.81883 0.77522 0.0
H4146 H 0.15959 0.83665 0.78571 0.0
H4147 H 0.15128 0.85199 0.81747 0.0
H4148 H 0.16772 0.85473 0.89638 0.0
H4149 H 0.18131 0.83677 0.88595 0.0
C4150 C 0.18219 0.82382 0.83948 0.0
C4151 C 0.18194 0.81823 0.81409 0.0
C4152 C 0.17444 0.83421 0.84561 0.0
C4153 C 0.17382 0.8231 0.79487 0.0
C4154 C 0.16589 0.83323 0.80087 0.0
C4155 C 0.15808 0.84894 0.83236 0.0
C4156 C 0.1584 0.85471 0.85771 0.0
C4157 C 0.16612 0.83885 0.82618 0.0
C4158 C 0.16699 0.85026 0.87678 0.0
C4159 C 0.17487 0.84006 0.87082 0.0
H4160 H 0.19504 0.36153 0.84804 0.0
H4161 H 0.17119 0.3521 0.77281 0.0
H4162 H 0.15154 0.32079 0.78346 0.0
H4163 H 0.14075 0.29622 0.81443 0.0
H4164 H 0.16434 0.30569 0.88982 0.0
H4165 H 0.18444 0.3369 0.87888 0.0
C4166 C 0.18547 0.35263 0.83404 0.0
C4167 C 0.18455 0.35913 0.8097 0.0
C4168 C 0.17415 0.33468 0.84034 0.0
C4169 C 0.1723 0.34738 0.79158 0.0
C4170 C 0.16097 0.32951 0.79772 0.0
C4171 C 0.15021 0.30517 0.82851 0.0
C4172 C 0.15102 0.2987 0.85292 0.0
C4173 C 0.16171 0.32305 0.82208 0.0
C4174 C 0.16355 0.31034 0.87083 0.0
C4175 C 0.17499 0.32818 0.86463 0.0
H4176 H 0.85651 0.68993 0.63833 0.0
H4177 H 0.82286 0.70046 0.68759 0.0
H4178 H 0.80779 0.66964 0.70248 0.0
H4179 H 0.80393 0.63961 0.70109 0.0
H4180 H 0.83759 0.62915 0.65173 0.0
H4181 H 0.85261 0.65995 0.63684 0.0
C4182 C 0.84576 0.68544 0.65212 0.0
C4183 C 0.84082 0.69749 0.66181 0.0
C4184 C 0.83709 0.6677 0.66049 0.0
C4185 C 0.82706 0.69152 0.68004 0.0
C4186 C 0.81838 0.67388 0.68847 0.0
C4187 C 0.81465 0.64412 0.68723 0.0
C4188 C 0.81961 0.63209 0.67751 0.0
C4189 C 0.8233 0.66186 0.67884 0.0
C4190 C 0.83336 0.63807 0.65927 0.0
C4191 C 0.84202 0.6557 0.65085 0.0
H4192 H 0.30933 0.14456 0.62475 0.0
H4193 H 0.29066 0.15012 0.69911 0.0
H4194 H 0.32126 0.16824 0.71384 0.0
H4195 H 0.35334 0.18322 0.70539 0.0
H4196 H 0.37212 0.17866 0.6307 0.0
H4197 H 0.34145 0.15982 0.61614 0.0
C4198 C 0.31193 0.14985 0.64411 0.0
C4199 C 0.29765 0.14587 0.66078 0.0
C4200 C 0.32959 0.16056 0.65237 0.0
C4201 C 0.30134 0.15266 0.68596 0.0
C4202 C 0.31885 0.16316 0.69437 0.0
C4203 C 0.35071 0.17797 0.68599 0.0
C4204 C 0.36496 0.18229 0.66916 0.0
C4205 C 0.33307 0.16723 0.67774 0.0
C4206 C 0.36136 0.17564 0.64395 0.0
C4207 C 0.34384 0.16481 0.63565 0.0
H4208 H 0.86198 0.17331 0.62846 0.0
H4209 H 0.84713 0.13979 0.69567 0.0
H4210 H 0.83005 0.1531 0.71172 0.0
H4211 H 0.81847 0.17355 0.70606 0.0
H4212 H 0.83253 0.20643 0.63833 0.0
H4213 H 0.85049 0.19385 0.62288 0.0
C4214 C 0.85489 0.16881 0.64652 0.0
C4215 C 0.85588 0.15557 0.66082 0.0
C4216 C 0.84487 0.17635 0.6555 0.0
C4217 C 0.84684 0.15012 0.68441 0.0
C4218 C 0.83695 0.15765 0.69355 0.0
C4219 C 0.82563 0.1781 0.68806 0.0
C4220 C 0.82418 0.1909 0.67337 0.0
C4221 C 0.83583 0.17072 0.67922 0.0
C4222 C 0.83331 0.19647 0.64988 0.0
C4223 C 0.84362 0.18932 0.64107 0.0
H4224 H 0.02214 0.52099 0.53227 0.0
H4225 H 0.03212 0.48478 0.48822 0.0
H4226 H 0.00151 0.46978 0.47244 0.0
H4227 H 0.97192 0.46705 0.47105 0.0
H4228 H 0.96206 0.50335 0.51509 0.0
H4229 H 0.9925 0.51797 0.53142 0.0
C4230 C 0.01755 0.50967 0.51948 0.0
C4231 C 0.0294 0.50402 0.51144 0.0
C4232 C -5e-05 0.50111 0.51052 0.0
C4233 C 0.02333 0.48952 0.49449 0.0
C4234 C 0.00581 0.48089 0.48553 0.0
C4235 C 0.97649 0.47824 0.48408 0.0
C4236 C 0.96474 0.48409 0.49184 0.0
C4237 C 0.99403 0.48664 0.4933 0.0
C4238 C 0.97077 0.49844 0.50905 0.0
C4239 C 0.9882 0.50688 0.51829 0.0
H4240 H 0.4732 0.50056 0.52689 0.0
H4241 H 0.50773 0.54444 0.47774 0.0
H4242 H 0.52194 0.52794 0.46259 0.0
H4243 H 0.52481 0.50126 0.46365 0.0
H4244 H 0.49032 0.45731 0.51269 0.0
H4245 H 0.47614 0.47383 0.52803 0.0
C4246 C 0.48394 0.50657 0.51304 0.0
C4247 C 0.48937 0.52369 0.50343 0.0
C4248 C 0.49212 0.49705 0.50449 0.0
C4249 C 0.50314 0.53119 0.48519 0.0
C4250 C 0.51134 0.52181 0.47662 0.0
C4251 C 0.51407 0.49522 0.47751 0.0
C4252 C 0.50861 0.47807 0.48697 0.0
C4253 C 0.50592 0.50473 0.48611 0.0
C4254 C 0.4949 0.47057 0.5053 0.0
C4255 C 0.48672 0.47996 0.51397 0.0
H4256 H 0.5142 0.0327 0.51597 0.0
H4257 H 0.53294 0.01965 0.44717 0.0
H4258 H 0.5157 0.98805 0.45783 0.0
H4259 H 0.49507 0.96411 0.48643 0.0
H4260 H 0.47626 0.97712 0.55518 0.0
H4261 H 0.49408 0.00879 0.54508 0.0
C4262 C 0.5147 0.02296 0.50349 0.0
C4263 C 0.52481 0.02853 0.48078 0.0
C4264 C 0.50476 0.00482 0.50973 0.0
C4265 C 0.52509 0.0157 0.4646 0.0
C4266 C 0.51529 0.99764 0.47072 0.0
C4267 C 0.49478 0.97388 0.4991 0.0
C4268 C 0.48432 0.96827 0.52147 0.0
C4269 C 0.50498 0.99204 0.49313 0.0
C4270 C 0.48433 0.9811 0.53796 0.0
C4271 C 0.49444 0.9992 0.53214 0.0
H4272 H 0.4892 0.02759 0.98662 0.0
H4273 H 0.54003 0.03259 0.9685 0.0
H4274 H 0.52911 0.00193 0.98222 0.0
H4275 H 0.50539 0.97398 0.0002 0.0
H4276 H 0.45439 0.96874 0.01781 0.0
H4277 H 0.46515 0.99927 0.0035 0.0
C4278 C 0.49781 0.02189 0.98539 0.0
C4279 C 0.5154 0.03235 0.9766 0.0
C4280 C 0.49146 0.00427 0.99334 0.0
C4281 C 0.5265 0.02488 0.97549 0.0
C4282 C 0.52025 0.00733 0.98323 0.0
C4283 C 0.49655 0.97943 0.0006 0.0
C4284 C 0.47911 0.96909 0.01004 0.0
C4285 C 0.50279 0.99695 0.99231 0.0
C4286 C 0.46794 0.97649 0.0109 0.0
C4287 C 0.47404 0.9939 0.0026 0.0
H4288 H 0.97924 0.47822 0.96223 0.0
H4289 H 0.95902 0.48648 0.03352 0.0
H4290 H 0.98923 0.50378 0.05011 0.0
H4291 H 0.02149 0.51711 0.04418 0.0
H4292 H 0.04185 0.51005 0.97234 0.0
H4293 H 0.01152 0.49209 0.95595 0.0
C4294 C 0.98142 0.48396 0.98129 0.0
C4295 C 0.96679 0.48093 0.99659 0.0
C4296 C 0.99888 0.49419 0.99059 0.0
C4297 C 0.96994 0.48827 0.02143 0.0
C4298 C 0.98725 0.4983 0.0309 0.0
C4299 C 0.01925 0.51152 0.02501 0.0
C4300 C 0.03385 0.51485 0.00951 0.0
C4301 C 0.00181 0.50134 0.01566 0.0
C4302 C 0.0308 0.50777 0.98456 0.0
C4303 C 0.01348 0.49745 0.97522 0.0
H4304 H 0.51111 0.48785 0.96082 0.0
H4305 H 0.51158 0.46922 0.0374 0.0
H4306 H 0.49326 0.4815 0.05259 0.0
H4307 H 0.47705 0.49736 0.04403 0.0
H4308 H 0.47767 0.51714 0.96776 0.0
H4309 H 0.49526 0.50419 0.95242 0.0
C4310 C 0.50708 0.48638 0.98079 0.0
C4311 C 0.51265 0.47764 0.99797 0.0
C4312 C 0.49668 0.49358 0.98941 0.0
C4313 C 0.50756 0.47604 0.02387 0.0
C4314 C 0.49705 0.48298 0.03253 0.0
C4315 C 0.48118 0.49903 0.02411 0.0
C4316 C 0.47597 0.50821 0.00711 0.0
C4317 C 0.49158 0.49183 0.01548 0.0
C4318 C 0.48121 0.50991 0.98123 0.0
C4319 C 0.4914 0.50262 0.97245 0.0
loop_
_geom_bond_atom_site_label_1
_geom_bond_atom_site_label_2
_geom_bond_distance
_geom_bond_site_symmetry_2
_ccdc_geom_bond_type
Li0 N17 1.990 . S
Li0 O60 1.956 . S
Li0 O61 1.970 . S
Li0 O62 1.961 . S
Li1 N25 1.990 . S
Li1 O60 1.970 . S
Li1 O61 1.956 . S
Li1 O63 1.961 . S
Li2 N47 1.990 . S
Li2 O60 1.961 . S
Li2 O62 1.956 . S
Li2 O63 1.970 . S
Li3 N53 1.990 . S
Li3 O61 1.961 . S
Li3 O62 1.970 . S
Li3 O63 1.956 . S
C4 C6 1.348 . S
C4 C7 1.356 . S
C4 O60 1.325 . S
N5 C8 1.314 . S
N5 C9 1.279 . S
C6 C4 1.348 . S
C6 C8 1.353 . S
C6 H64 0.929 . S
C7 C4 1.356 . S
C7 C9 1.358 . S
C7 H65 0.930 . S
C8 N5 1.314 . S
C8 C6 1.353 . S
C8 H66 0.930 . S
C9 N5 1.279 . S
C9 C7 1.358 . S
C9 H67 0.930 . S
C10 C13 1.348 . S
C10 C14 1.356 . S
C10 O61 1.325 . S
C11 N12 1.279 . S
C11 C14 1.358 . S
C11 H68 0.930 . S
N12 C11 1.279 . S
N12 C15 1.314 . S
C13 C10 1.348 . S
C13 C15 1.353 . S
C13 H69 0.929 . S
C14 C10 1.356 . S
C14 C11 1.358 . S
C14 H70 0.930 . S
C15 N12 1.314 . S
C15 C13 1.353 . S
C15 H71 0.930 . S
C16 N17 1.314 . S
C16 C21 1.353 . S
C16 H22 0.930 . S
N17 Li0 1.990 . S
N17 C16 1.314 . S
N17 C19 1.279 . S
C18 C19 1.358 . S
C18 C20 1.356 . S
C18 H72 0.930 . S
C19 N17 1.279 . S
C19 C18 1.358 . S
C19 H23 0.930 . S
C20 C18 1.356 . S
C20 C21 1.348 . S
C21 C16 1.353 . S
C21 C20 1.348 . S
C21 H73 0.929 . S
H22 C16 0.930 . S
H23 C19 0.930 . S
C24 N25 1.314 . S
C24 C26 1.353 . S
C24 H30 0.930 . S
N25 Li1 1.990 . S
N25 C24 1.314 . S
N25 C28 1.279 . S
C26 C24 1.353 . S
C26 C29 1.348 . S
C26 H74 0.929 . S
C27 C28 1.358 . S
C27 C29 1.356 . S
C27 H75 0.930 . S
C28 N25 1.279 . S
C28 C27 1.358 . S
C28 H31 0.930 . S
C29 C26 1.348 . S
C29 C27 1.356 . S
H30 C24 0.930 . S
H31 C28 0.930 . S
C32 C34 1.348 . S
C32 C35 1.356 . S
C32 O62 1.325 . S
N33 C36 1.314 . S
N33 C37 1.279 . S
C34 C32 1.348 . S
C34 C36 1.353 . S
C34 H76 0.929 . S
C35 C32 1.356 . S
C35 C37 1.358 . S
C35 H77 0.930 . S
C36 N33 1.314 . S
C36 C34 1.353 . S
C36 H78 0.930 . S
C37 N33 1.279 . S
C37 C35 1.358 . S
C37 H79 0.930 . S
C38 C39 1.348 . S
C38 C40 1.356 . S
C38 O63 1.325 . S
C39 C38 1.348 . S
C39 C41 1.353 . S
C39 H80 0.929 . S
C40 C38 1.356 . S
C40 C42 1.358 . S
C40 H81 0.930 . S
C41 C39 1.353 . S
C41 N43 1.314 . S
C41 H82 0.930 . S
C42 C40 1.358 . S
C42 N43 1.279 . S
C42 H83 0.930 . S
N43 C41 1.314 . S
N43 C42 1.279 . S
C44 C46 1.353 . S
C44 N47 1.314 . S
C44 H50 0.930 . S
C45 N47 1.279 . S
C45 C48 1.358 . S
C45 H51 0.930 . S
C46 C44 1.353 . S
C46 C49 1.348 . S
C46 H84 0.929 . S
N47 Li2 1.990 . S
N47 C44 1.314 . S
N47 C45 1.279 . S
C48 C45 1.358 . S
C48 C49 1.356 . S
C48 H85 0.930 . S
C49 C46 1.348 . S
C49 C48 1.356 . S
H50 C44 0.930 . S
H51 C45 0.930 . S
C52 N53 1.314 . S
C52 C54 1.353 . S
C52 H58 0.930 . S
N53 Li3 1.990 . S
N53 C52 1.314 . S
N53 C56 1.279 . S
C54 C52 1.353 . S
C54 C57 1.348 . S
C54 H86 0.929 . S
C55 C56 1.358 . S
C55 C57 1.356 . S
C55 H87 0.930 . S
C56 N53 1.279 . S
C56 C55 1.358 . S
C56 H59 0.930 . S
C57 C54 1.348 . S
C57 C55 1.356 . S
H58 C52 0.930 . S
H59 C56 0.930 . S
O60 Li0 1.956 . S
O60 Li1 1.970 . S
O60 Li2 1.961 . S
O60 C4 1.325 . S
O61 Li0 1.970 . S
O61 Li1 1.956 . S
O61 Li3 1.961 . S
O61 C10 1.325 . S
O62 Li0 1.961 . S
O62 Li2 1.956 . S
O62 Li3 1.970 . S
O62 C32 1.325 . S
O63 Li1 1.961 . S
O63 Li2 1.970 . S
O63 Li3 1.956 . S
O63 C38 1.325 . S
H64 C6 0.929 . S
H65 C7 0.930 . S
H66 C8 0.930 . S
H67 C9 0.930 . S
H68 C11 0.930 . S
H69 C13 0.929 . S
H70 C14 0.930 . S
H71 C15 0.930 . S
H72 C18 0.930 . S
H73 C21 0.929 . S
H74 C26 0.929 . S
H75 C27 0.930 . S
H76 C34 0.929 . S
H77 C35 0.930 . S
H78 C36 0.930 . S
H79 C37 0.930 . S
H80 C39 0.929 . S
H81 C40 0.930 . S
H82 C41 0.930 . S
H83 C42 0.930 . S
H84 C46 0.929 . S
H85 C48 0.930 . S
H86 C54 0.929 . S
H87 C55 0.930 . S
Li88 N105 1.990 . S
Li88 O148 1.956 . S
Li88 O149 1.970 . S
Li88 O150 1.961 . S
Li89 N113 1.990 . S
Li89 O148 1.970 . S
Li89 O149 1.956 . S
Li89 O151 1.961 . S
Li90 N135 1.990 . S
Li90 O148 1.961 . S
Li90 O150 1.956 . S
Li90 O151 1.970 . S
Li91 N141 1.990 . S
Li91 O149 1.961 . S
Li91 O150 1.970 . S
Li91 O151 1.956 . S
C92 C94 1.348 . S
C92 C95 1.356 . S
C92 O148 1.325 . S
N93 C96 1.314 . S
N93 C97 1.279 . S
C94 C92 1.348 . S
C94 C96 1.353 . S
C94 H152 0.929 . S
C95 C92 1.356 . S
C95 C97 1.358 . S
C95 H153 0.930 . S
C96 N93 1.314 . S
C96 C94 1.353 . S
C96 H154 0.930 . S
C97 N93 1.279 . S
C97 C95 1.358 . S
C97 H155 0.930 . S
C98 C101 1.348 . S
C98 C102 1.356 . S
C98 O149 1.325 . S
C99 N100 1.279 . S
C99 C102 1.358 . S
C99 H156 0.930 . S
N100 C99 1.279 . S
N100 C103 1.314 . S
C101 C98 1.348 . S
C101 C103 1.353 . S
C101 H157 0.929 . S
C102 C98 1.356 . S
C102 C99 1.358 . S
C102 H158 0.930 . S
C103 N100 1.314 . S
C103 C101 1.353 . S
C103 H159 0.930 . S
C104 N105 1.314 . S
C104 C109 1.353 . S
C104 H110 0.930 . S
N105 Li88 1.990 . S
N105 C104 1.314 . S
N105 C107 1.279 . S
C106 C107 1.358 . S
C106 C108 1.356 . S
C106 H160 0.930 . S
C107 N105 1.279 . S
C107 C106 1.358 . S
C107 H111 0.930 . S
C108 C106 1.356 . S
C108 C109 1.348 . S
C109 C104 1.353 . S
C109 C108 1.348 . S
C109 H161 0.929 . S
H110 C104 0.930 . S
H111 C107 0.930 . S
C112 N113 1.314 . S
C112 C114 1.353 . S
C112 H118 0.930 . S
N113 Li89 1.990 . S
N113 C112 1.314 . S
N113 C116 1.279 . S
C114 C112 1.353 . S
C114 C117 1.348 . S
C114 H162 0.929 . S
C115 C116 1.358 . S
C115 C117 1.356 . S
C115 H163 0.930 . S
C116 N113 1.279 . S
C116 C115 1.358 . S
C116 H119 0.930 . S
C117 C114 1.348 . S
C117 C115 1.356 . S
H118 C112 0.930 . S
H119 C116 0.930 . S
C120 C122 1.348 . S
C120 C123 1.356 . S
C120 O150 1.325 . S
N121 C124 1.314 . S
N121 C125 1.279 . S
C122 C120 1.348 . S
C122 C124 1.353 . S
C122 H164 0.929 . S
C123 C120 1.356 . S
C123 C125 1.358 . S
C123 H165 0.930 . S
C124 N121 1.314 . S
C124 C122 1.353 . S
C124 H166 0.930 . S
C125 N121 1.279 . S
C125 C123 1.358 . S
C125 H167 0.930 . S
C126 C127 1.348 . S
C126 C128 1.356 . S
C126 O151 1.325 . S
C127 C126 1.348 . S
C127 C129 1.353 . S
C127 H168 0.929 . S
C128 C126 1.356 . S
C128 C130 1.358 . S
C128 H169 0.930 . S
C129 C127 1.353 . S
C129 N131 1.314 . S
C129 H170 0.930 . S
C130 C128 1.358 . S
C130 N131 1.279 . S
C130 H171 0.930 . S
N131 C129 1.314 . S
N131 C130 1.279 . S
C132 C134 1.353 . S
C132 N135 1.314 . S
C132 H138 0.930 . S
C133 N135 1.279 . S
C133 C136 1.358 . S
C133 H139 0.930 . S
C134 C132 1.353 . S
C134 C137 1.348 . S
C134 H172 0.929 . S
N135 Li90 1.990 . S
N135 C132 1.314 . S
N135 C133 1.279 . S
C136 C133 1.358 . S
C136 C137 1.356 . S
C136 H173 0.930 . S
C137 C134 1.348 . S
C137 C136 1.356 . S
H138 C132 0.930 . S
H139 C133 0.930 . S
C140 N141 1.314 . S
C140 C142 1.353 . S
C140 H146 0.930 . S
N141 Li91 1.990 . S
N141 C140 1.314 . S
N141 C144 1.279 . S
C142 C140 1.353 . S
C142 C145 1.348 . S
C142 H174 0.929 . S
C143 C144 1.358 . S
C143 C145 1.356 . S
C143 H175 0.930 . S
C144 N141 1.279 . S
C144 C143 1.358 . S
C144 H147 0.930 . S
C145 C142 1.348 . S
C145 C143 1.356 . S
H146 C140 0.930 . S
H147 C144 0.930 . S
O148 Li88 1.956 . S
O148 Li89 1.970 . S
O148 Li90 1.961 . S
O148 C92 1.325 . S
O149 Li88 1.970 . S
O149 Li89 1.956 . S
O149 Li91 1.961 . S
O149 C98 1.325 . S
O150 Li88 1.961 . S
O150 Li90 1.956 . S
O150 Li91 1.970 . S
O150 C120 1.325 . S
O151 Li89 1.961 . S
O151 Li90 1.970 . S
O151 Li91 1.956 . S
O151 C126 1.325 . S
H152 C94 0.929 . S
H153 C95 0.930 . S
H154 C96 0.930 . S
H155 C97 0.930 . S
H156 C99 0.930 . S
H157 C101 0.929 . S
H158 C102 0.930 . S
H159 C103 0.930 . S
H160 C106 0.930 . S
H161 C109 0.929 . S
H162 C114 0.929 . S
H163 C115 0.930 . S
H164 C122 0.929 . S
H165 C123 0.930 . S
H166 C124 0.930 . S
H167 C125 0.930 . S
H168 C127 0.929 . S
H169 C128 0.930 . S
H170 C129 0.930 . S
H171 C130 0.930 . S
H172 C134 0.929 . S
H173 C136 0.930 . S
H174 C142 0.929 . S
H175 C143 0.930 . S
Li176 N193 1.990 . S
Li176 O236 1.956 . S
Li176 O237 1.970 . S
Li176 O238 1.961 . S
Li177 N201 1.990 . S
Li177 O236 1.970 . S
Li177 O237 1.956 . S
Li177 O239 1.961 . S
Li178 N223 1.990 . S
Li178 O236 1.961 . S
Li178 O238 1.956 . S
Li178 O239 1.970 . S
Li179 N229 1.990 . S
Li179 O237 1.961 . S
Li179 O238 1.970 . S
Li179 O239 1.956 . S
C180 C182 1.348 . S
C180 C183 1.356 . S
C180 O236 1.325 . S
N181 C184 1.314 . S
N181 C185 1.279 . S
C182 C180 1.348 . S
C182 C184 1.353 . S
C182 H240 0.929 . S
C183 C180 1.356 . S
C183 C185 1.358 . S
C183 H241 0.930 . S
C184 N181 1.314 . S
C184 C182 1.353 . S
C184 H242 0.930 . S
C185 N181 1.279 . S
C185 C183 1.358 . S
C185 H243 0.930 . S
C186 C189 1.348 . S
C186 C190 1.356 . S
C186 O237 1.325 . S
C187 N188 1.279 . S
C187 C190 1.358 . S
C187 H244 0.930 . S
N188 C187 1.279 . S
N188 C191 1.314 . S
C189 C186 1.348 . S
C189 C191 1.353 . S
C189 H245 0.929 . S
C190 C186 1.356 . S
C190 C187 1.358 . S
C190 H246 0.930 . S
C191 N188 1.314 . S
C191 C189 1.353 . S
C191 H247 0.930 . S
C192 N193 1.314 . S
C192 C197 1.353 . S
C192 H198 0.930 . S
N193 Li176 1.990 . S
N193 C192 1.314 . S
N193 C195 1.279 . S
C194 C195 1.358 . S
C194 C196 1.356 . S
C194 H248 0.930 . S
C195 N193 1.279 . S
C195 C194 1.358 . S
C195 H199 0.930 . S
C196 C194 1.356 . S
C196 C197 1.348 . S
C197 C192 1.353 . S
C197 C196 1.348 . S
C197 H249 0.929 . S
H198 C192 0.930 . S
H199 C195 0.930 . S
C200 N201 1.314 . S
C200 C202 1.353 . S
C200 H206 0.930 . S
N201 Li177 1.990 . S
N201 C200 1.314 . S
N201 C204 1.279 . S
C202 C200 1.353 . S
C202 C205 1.348 . S
C202 H250 0.929 . S
C203 C204 1.358 . S
C203 C205 1.356 . S
C203 H251 0.930 . S
C204 N201 1.279 . S
C204 C203 1.358 . S
C204 H207 0.930 . S
C205 C202 1.348 . S
C205 C203 1.356 . S
H206 C200 0.930 . S
H207 C204 0.930 . S
C208 C210 1.348 . S
C208 C211 1.356 . S
C208 O238 1.325 . S
N209 C212 1.314 . S
N209 C213 1.279 . S
C210 C208 1.348 . S
C210 C212 1.353 . S
C210 H252 0.929 . S
C211 C208 1.356 . S
C211 C213 1.358 . S
C211 H253 0.930 . S
C212 N209 1.314 . S
C212 C210 1.353 . S
C212 H254 0.930 . S
C213 N209 1.279 . S
C213 C211 1.358 . S
C213 H255 0.930 . S
C214 C215 1.348 . S
C214 C216 1.356 . S
C214 O239 1.325 . S
C215 C214 1.348 . S
C215 C217 1.353 . S
C215 H256 0.929 . S
C216 C214 1.356 . S
C216 C218 1.358 . S
C216 H257 0.930 . S
C217 C215 1.353 . S
C217 N219 1.314 . S
C217 H258 0.930 . S
C218 C216 1.358 . S
C218 N219 1.279 . S
C218 H259 0.930 . S
N219 C217 1.314 . S
N219 C218 1.279 . S
C220 C222 1.353 . S
C220 N223 1.314 . S
C220 H226 0.930 . S
C221 N223 1.279 . S
C221 C224 1.358 . S
C221 H227 0.930 . S
C222 C220 1.353 . S
C222 C225 1.348 . S
C222 H260 0.929 . S
N223 Li178 1.990 . S
N223 C220 1.314 . S
N223 C221 1.279 . S
C224 C221 1.358 . S
C224 C225 1.356 . S
C224 H261 0.930 . S
C225 C222 1.348 . S
C225 C224 1.356 . S
H226 C220 0.930 . S
H227 C221 0.930 . S
C228 N229 1.314 . S
C228 C230 1.353 . S
C228 H234 0.930 . S
N229 Li179 1.990 . S
N229 C228 1.314 . S
N229 C232 1.279 . S
C230 C228 1.353 . S
C230 C233 1.348 . S
C230 H262 0.929 . S
C231 C232 1.358 . S
C231 C233 1.356 . S
C231 H263 0.930 . S
C232 N229 1.279 . S
C232 C231 1.358 . S
C232 H235 0.930 . S
C233 C230 1.348 . S
C233 C231 1.356 . S
H234 C228 0.930 . S
H235 C232 0.930 . S
O236 Li176 1.956 . S
O236 Li177 1.970 . S
O236 Li178 1.961 . S
O236 C180 1.325 . S
O237 Li176 1.970 . S
O237 Li177 1.956 . S
O237 Li179 1.961 . S
O237 C186 1.325 . S
O238 Li176 1.961 . S
O238 Li178 1.956 . S
O238 Li179 1.970 . S
O238 C208 1.325 . S
O239 Li177 1.961 . S
O239 Li178 1.970 . S
O239 Li179 1.956 . S
O239 C214 1.325 . S
H240 C182 0.929 . S
H241 C183 0.930 . S
H242 C184 0.930 . S
H243 C185 0.930 . S
H244 C187 0.930 . S
H245 C189 0.929 . S
H246 C190 0.930 . S
H247 C191 0.930 . S
H248 C194 0.930 . S
H249 C197 0.929 . S
H250 C202 0.929 . S
H251 C203 0.930 . S
H252 C210 0.929 . S
H253 C211 0.930 . S
H254 C212 0.930 . S
H255 C213 0.930 . S
H256 C215 0.929 . S
H257 C216 0.930 . S
H258 C217 0.930 . S
H259 C218 0.930 . S
H260 C222 0.929 . S
H261 C224 0.930 . S
H262 C230 0.929 . S
H263 C231 0.930 . S
Li264 N281 1.990 . S
Li264 O324 1.956 . S
Li264 O325 1.970 . S
Li264 O326 1.961 . S
Li265 N289 1.990 . S
Li265 O324 1.970 . S
Li265 O325 1.956 . S
Li265 O327 1.961 . S
Li266 N311 1.990 . S
Li266 O324 1.961 . S
Li266 O326 1.956 . S
Li266 O327 1.970 . S
Li267 N317 1.990 . S
Li267 O325 1.961 . S
Li267 O326 1.970 . S
Li267 O327 1.956 . S
C268 C270 1.348 . S
C268 C271 1.356 . S
C268 O324 1.325 . S
N269 C272 1.314 . S
N269 C273 1.279 . S
C270 C268 1.348 . S
C270 C272 1.353 . S
C270 H328 0.929 . S
C271 C268 1.356 . S
C271 C273 1.358 . S
C271 H329 0.930 . S
C272 N269 1.314 . S
C272 C270 1.353 . S
C272 H330 0.930 . S
C273 N269 1.279 . S
C273 C271 1.358 . S
C273 H331 0.930 . S
C274 C277 1.348 . S
C274 C278 1.356 . S
C274 O325 1.325 . S
C275 N276 1.279 . S
C275 C278 1.358 . S
C275 H332 0.930 . S
N276 C275 1.279 . S
N276 C279 1.314 . S
C277 C274 1.348 . S
C277 C279 1.353 . S
C277 H333 0.929 . S
C278 C274 1.356 . S
C278 C275 1.358 . S
C278 H334 0.930 . S
C279 N276 1.314 . S
C279 C277 1.353 . S
C279 H335 0.930 . S
C280 N281 1.314 . S
C280 C285 1.353 . S
C280 H286 0.930 . S
N281 Li264 1.990 . S
N281 C280 1.314 . S
N281 C283 1.279 . S
C282 C283 1.358 . S
C282 C284 1.356 . S
C282 H336 0.930 . S
C283 N281 1.279 . S
C283 C282 1.358 . S
C283 H287 0.930 . S
C284 C282 1.356 . S
C284 C285 1.348 . S
C285 C280 1.353 . S
C285 C284 1.348 . S
C285 H337 0.929 . S
H286 C280 0.930 . S
H287 C283 0.930 . S
C288 N289 1.314 . S
C288 C290 1.353 . S
C288 H294 0.930 . S
N289 Li265 1.990 . S
N289 C288 1.314 . S
N289 C292 1.279 . S
C290 C288 1.353 . S
C290 C293 1.348 . S
C290 H338 0.929 . S
C291 C292 1.358 . S
C291 C293 1.356 . S
C291 H339 0.930 . S
C292 N289 1.279 . S
C292 C291 1.358 . S
C292 H295 0.930 . S
C293 C290 1.348 . S
C293 C291 1.356 . S
H294 C288 0.930 . S
H295 C292 0.930 . S
C296 C298 1.348 . S
C296 C299 1.356 . S
C296 O326 1.325 . S
N297 C300 1.314 . S
N297 C301 1.279 . S
C298 C296 1.348 . S
C298 C300 1.353 . S
C298 H340 0.929 . S
C299 C296 1.356 . S
C299 C301 1.358 . S
C299 H341 0.930 . S
C300 N297 1.314 . S
C300 C298 1.353 . S
C300 H342 0.930 . S
C301 N297 1.279 . S
C301 C299 1.358 . S
C301 H343 0.930 . S
C302 C303 1.348 . S
C302 C304 1.356 . S
C302 O327 1.325 . S
C303 C302 1.348 . S
C303 C305 1.353 . S
C303 H344 0.929 . S
C304 C302 1.356 . S
C304 C306 1.358 . S
C304 H345 0.930 . S
C305 C303 1.353 . S
C305 N307 1.314 . S
C305 H346 0.930 . S
C306 C304 1.358 . S
C306 N307 1.279 . S
C306 H347 0.930 . S
N307 C305 1.314 . S
N307 C306 1.279 . S
C308 C310 1.353 . S
C308 N311 1.314 . S
C308 H314 0.930 . S
C309 N311 1.279 . S
C309 C312 1.358 . S
C309 H315 0.930 . S
C310 C308 1.353 . S
C310 C313 1.348 . S
C310 H348 0.929 . S
N311 Li266 1.990 . S
N311 C308 1.314 . S
N311 C309 1.279 . S
C312 C309 1.358 . S
C312 C313 1.356 . S
C312 H349 0.930 . S
C313 C310 1.348 . S
C313 C312 1.356 . S
H314 C308 0.930 . S
H315 C309 0.930 . S
C316 N317 1.314 . S
C316 C318 1.353 . S
C316 H322 0.930 . S
N317 Li267 1.990 . S
N317 C316 1.314 . S
N317 C320 1.279 . S
C318 C316 1.353 . S
C318 C321 1.348 . S
C318 H350 0.929 . S
C319 C320 1.358 . S
C319 C321 1.356 . S
C319 H351 0.930 . S
C320 N317 1.279 . S
C320 C319 1.358 . S
C320 H323 0.930 . S
C321 C318 1.348 . S
C321 C319 1.356 . S
H322 C316 0.930 . S
H323 C320 0.930 . S
O324 Li264 1.956 . S
O324 Li265 1.970 . S
O324 Li266 1.961 . S
O324 C268 1.325 . S
O325 Li264 1.970 . S
O325 Li265 1.956 . S
O325 Li267 1.961 . S
O325 C274 1.325 . S
O326 Li264 1.961 . S
O326 Li266 1.956 . S
O326 Li267 1.970 . S
O326 C296 1.325 . S
O327 Li265 1.961 . S
O327 Li266 1.970 . S
O327 Li267 1.956 . S
O327 C302 1.325 . S
H328 C270 0.929 . S
H329 C271 0.930 . S
H330 C272 0.930 . S
H331 C273 0.930 . S
H332 C275 0.930 . S
H333 C277 0.929 . S
H334 C278 0.930 . S
H335 C279 0.930 . S
H336 C282 0.930 . S
H337 C285 0.929 . S
H338 C290 0.929 . S
H339 C291 0.930 . S
H340 C298 0.929 . S
H341 C299 0.930 . S
H342 C300 0.930 . S
H343 C301 0.930 . S
H344 C303 0.929 . S
H345 C304 0.930 . S
H346 C305 0.930 . S
H347 C306 0.930 . S
H348 C310 0.929 . S
H349 C312 0.930 . S
H350 C318 0.929 . S
H351 C319 0.930 . S
Li352 N369 1.990 . S
Li352 O412 1.956 . S
Li352 O413 1.970 . S
Li352 O414 1.961 . S
Li353 N377 1.990 . S
Li353 O412 1.970 . S
Li353 O413 1.956 . S
Li353 O415 1.961 . S
Li354 N399 1.990 . S
Li354 O412 1.961 . S
Li354 O414 1.956 . S
Li354 O415 1.970 . S
Li355 N405 1.990 . S
Li355 O413 1.961 . S
Li355 O414 1.970 . S
Li355 O415 1.956 . S
C356 C358 1.348 . S
C356 C359 1.356 . S
C356 O412 1.325 . S
N357 C360 1.314 . S
N357 C361 1.279 . S
C358 C356 1.348 . S
C358 C360 1.353 . S
C358 H416 0.929 . S
C359 C356 1.356 . S
C359 C361 1.358 . S
C359 H417 0.930 . S
C360 N357 1.314 . S
C360 C358 1.353 . S
C360 H418 0.930 . S
C361 N357 1.279 . S
C361 C359 1.358 . S
C361 H419 0.930 . S
C362 C365 1.348 . S
C362 C366 1.356 . S
C362 O413 1.325 . S
C363 N364 1.279 . S
C363 C366 1.358 . S
C363 H420 0.930 . S
N364 C363 1.279 . S
N364 C367 1.314 . S
C365 C362 1.348 . S
C365 C367 1.353 . S
C365 H421 0.929 . S
C366 C362 1.356 . S
C366 C363 1.358 . S
C366 H422 0.930 . S
C367 N364 1.314 . S
C367 C365 1.353 . S
C367 H423 0.930 . S
C368 N369 1.314 . S
C368 C373 1.353 . S
C368 H374 0.930 . S
N369 Li352 1.990 . S
N369 C368 1.314 . S
N369 C371 1.279 . S
C370 C371 1.358 . S
C370 C372 1.356 . S
C370 H424 0.930 . S
C371 N369 1.279 . S
C371 C370 1.358 . S
C371 H375 0.930 . S
C372 C370 1.356 . S
C372 C373 1.348 . S
C373 C368 1.353 . S
C373 C372 1.348 . S
C373 H425 0.929 . S
H374 C368 0.930 . S
H375 C371 0.930 . S
C376 N377 1.314 . S
C376 C378 1.353 . S
C376 H382 0.930 . S
N377 Li353 1.990 . S
N377 C376 1.314 . S
N377 C380 1.279 . S
C378 C376 1.353 . S
C378 C381 1.348 . S
C378 H426 0.929 . S
C379 C380 1.358 . S
C379 C381 1.356 . S
C379 H427 0.930 . S
C380 N377 1.279 . S
C380 C379 1.358 . S
C380 H383 0.930 . S
C381 C378 1.348 . S
C381 C379 1.356 . S
H382 C376 0.930 . S
H383 C380 0.930 . S
C384 C386 1.348 . S
C384 C387 1.356 . S
C384 O414 1.325 . S
N385 C388 1.314 . S
N385 C389 1.279 . S
C386 C384 1.348 . S
C386 C388 1.353 . S
C386 H428 0.929 . S
C387 C384 1.356 . S
C387 C389 1.358 . S
C387 H429 0.930 . S
C388 N385 1.314 . S
C388 C386 1.353 . S
C388 H430 0.930 . S
C389 N385 1.279 . S
C389 C387 1.358 . S
C389 H431 0.930 . S
C390 C391 1.348 . S
C390 C392 1.356 . S
C390 O415 1.325 . S
C391 C390 1.348 . S
C391 C393 1.353 . S
C391 H432 0.929 . S
C392 C390 1.356 . S
C392 C394 1.358 . S
C392 H433 0.930 . S
C393 C391 1.353 . S
C393 N395 1.314 . S
C393 H434 0.930 . S
C394 C392 1.358 . S
C394 N395 1.279 . S
C394 H435 0.930 . S
N395 C393 1.314 . S
N395 C394 1.279 . S
C396 C398 1.353 . S
C396 N399 1.314 . S
C396 H402 0.930 . S
C397 N399 1.279 . S
C397 C400 1.358 . S
C397 H403 0.930 . S
C398 C396 1.353 . S
C398 C401 1.348 . S
C398 H436 0.929 . S
N399 Li354 1.990 . S
N399 C396 1.314 . S
N399 C397 1.279 . S
C400 C397 1.358 . S
C400 C401 1.356 . S
C400 H437 0.930 . S
C401 C398 1.348 . S
C401 C400 1.356 . S
H402 C396 0.930 . S
H403 C397 0.930 . S
C404 N405 1.314 . S
C404 C406 1.353 . S
C404 H410 0.930 . S
N405 Li355 1.990 . S
N405 C404 1.314 . S
N405 C408 1.279 . S
C406 C404 1.353 . S
C406 C409 1.348 . S
C406 H438 0.929 . S
C407 C408 1.358 . S
C407 C409 1.356 . S
C407 H439 0.930 . S
C408 N405 1.279 . S
C408 C407 1.358 . S
C408 H411 0.930 . S
C409 C406 1.348 . S
C409 C407 1.356 . S
H410 C404 0.930 . S
H411 C408 0.930 . S
O412 Li352 1.956 . S
O412 Li353 1.970 . S
O412 Li354 1.961 . S
O412 C356 1.325 . S
O413 Li352 1.970 . S
O413 Li353 1.956 . S
O413 Li355 1.961 . S
O413 C362 1.325 . S
O414 Li352 1.961 . S
O414 Li354 1.956 . S
O414 Li355 1.970 . S
O414 C384 1.325 . S
O415 Li353 1.961 . S
O415 Li354 1.970 . S
O415 Li355 1.956 . S
O415 C390 1.325 . S
H416 C358 0.929 . S
H417 C359 0.930 . S
H418 C360 0.930 . S
H419 C361 0.930 . S
H420 C363 0.930 . S
H421 C365 0.929 . S
H422 C366 0.930 . S
H423 C367 0.930 . S
H424 C370 0.930 . S
H425 C373 0.929 . S
H426 C378 0.929 . S
H427 C379 0.930 . S
H428 C386 0.929 . S
H429 C387 0.930 . S
H430 C388 0.930 . S
H431 C389 0.930 . S
H432 C391 0.929 . S
H433 C392 0.930 . S
H434 C393 0.930 . S
H435 C394 0.930 . S
H436 C398 0.929 . S
H437 C400 0.930 . S
H438 C406 0.929 . S
H439 C407 0.930 . S
Li440 N457 1.990 . S
Li440 O500 1.956 . S
Li440 O501 1.970 . S
Li440 O502 1.961 . S
Li441 N465 1.990 . S
Li441 O500 1.970 . S
Li441 O501 1.956 . S
Li441 O503 1.961 . S
Li442 N487 1.990 . S
Li442 O500 1.961 . S
Li442 O502 1.956 . S
Li442 O503 1.970 . S
Li443 N493 1.990 . S
Li443 O501 1.961 . S
Li443 O502 1.970 . S
Li443 O503 1.956 . S
C444 C446 1.348 . S
C444 C447 1.356 . S
C444 O500 1.325 . S
N445 C448 1.314 . S
N445 C449 1.279 . S
C446 C444 1.348 . S
C446 C448 1.353 . S
C446 H504 0.929 . S
C447 C444 1.356 . S
C447 C449 1.358 . S
C447 H505 0.930 . S
C448 N445 1.314 . S
C448 C446 1.353 . S
C448 H506 0.930 . S
C449 N445 1.279 . S
C449 C447 1.358 . S
C449 H507 0.930 . S
C450 C453 1.348 . S
C450 C454 1.356 . S
C450 O501 1.325 . S
C451 N452 1.279 . S
C451 C454 1.358 . S
C451 H508 0.930 . S
N452 C451 1.279 . S
N452 C455 1.314 . S
C453 C450 1.348 . S
C453 C455 1.353 . S
C453 H509 0.929 . S
C454 C450 1.356 . S
C454 C451 1.358 . S
C454 H510 0.930 . S
C455 N452 1.314 . S
C455 C453 1.353 . S
C455 H511 0.930 . S
C456 N457 1.314 . S
C456 C461 1.353 . S
C456 H462 0.930 . S
N457 Li440 1.990 . S
N457 C456 1.314 . S
N457 C459 1.279 . S
C458 C459 1.358 . S
C458 C460 1.356 . S
C458 H512 0.930 . S
C459 N457 1.279 . S
C459 C458 1.358 . S
C459 H463 0.930 . S
C460 C458 1.356 . S
C460 C461 1.348 . S
C461 C456 1.353 . S
C461 C460 1.348 . S
C461 H513 0.929 . S
H462 C456 0.930 . S
H463 C459 0.930 . S
C464 N465 1.314 . S
C464 C466 1.353 . S
C464 H470 0.930 . S
N465 Li441 1.990 . S
N465 C464 1.314 . S
N465 C468 1.279 . S
C466 C464 1.353 . S
C466 C469 1.348 . S
C466 H514 0.929 . S
C467 C468 1.358 . S
C467 C469 1.356 . S
C467 H515 0.930 . S
C468 N465 1.279 . S
C468 C467 1.358 . S
C468 H471 0.930 . S
C469 C466 1.348 . S
C469 C467 1.356 . S
H470 C464 0.930 . S
H471 C468 0.930 . S
C472 C474 1.348 . S
C472 C475 1.356 . S
C472 O502 1.325 . S
N473 C476 1.314 . S
N473 C477 1.279 . S
C474 C472 1.348 . S
C474 C476 1.353 . S
C474 H516 0.929 . S
C475 C472 1.356 . S
C475 C477 1.358 . S
C475 H517 0.930 . S
C476 N473 1.314 . S
C476 C474 1.353 . S
C476 H518 0.930 . S
C477 N473 1.279 . S
C477 C475 1.358 . S
C477 H519 0.930 . S
C478 C479 1.348 . S
C478 C480 1.356 . S
C478 O503 1.325 . S
C479 C478 1.348 . S
C479 C481 1.353 . S
C479 H520 0.929 . S
C480 C478 1.356 . S
C480 C482 1.358 . S
C480 H521 0.930 . S
C481 C479 1.353 . S
C481 N483 1.314 . S
C481 H522 0.930 . S
C482 C480 1.358 . S
C482 N483 1.279 . S
C482 H523 0.930 . S
N483 C481 1.314 . S
N483 C482 1.279 . S
C484 C486 1.353 . S
C484 N487 1.314 . S
C484 H490 0.930 . S
C485 N487 1.279 . S
C485 C488 1.358 . S
C485 H491 0.930 . S
C486 C484 1.353 . S
C486 C489 1.348 . S
C486 H524 0.929 . S
N487 Li442 1.990 . S
N487 C484 1.314 . S
N487 C485 1.279 . S
C488 C485 1.358 . S
C488 C489 1.356 . S
C488 H525 0.930 . S
C489 C486 1.348 . S
C489 C488 1.356 . S
H490 C484 0.930 . S
H491 C485 0.930 . S
C492 N493 1.314 . S
C492 C494 1.353 . S
C492 H498 0.930 . S
N493 Li443 1.990 . S
N493 C492 1.314 . S
N493 C496 1.279 . S
C494 C492 1.353 . S
C494 C497 1.348 . S
C494 H526 0.929 . S
C495 C496 1.358 . S
C495 C497 1.356 . S
C495 H527 0.930 . S
C496 N493 1.279 . S
C496 C495 1.358 . S
C496 H499 0.930 . S
C497 C494 1.348 . S
C497 C495 1.356 . S
H498 C492 0.930 . S
H499 C496 0.930 . S
O500 Li440 1.956 . S
O500 Li441 1.970 . S
O500 Li442 1.961 . S
O500 C444 1.325 . S
O501 Li440 1.970 . S
O501 Li441 1.956 . S
O501 Li443 1.961 . S
O501 C450 1.325 . S
O502 Li440 1.961 . S
O502 Li442 1.956 . S
O502 Li443 1.970 . S
O502 C472 1.325 . S
O503 Li441 1.961 . S
O503 Li442 1.970 . S
O503 Li443 1.956 . S
O503 C478 1.325 . S
H504 C446 0.929 . S
H505 C447 0.930 . S
H506 C448 0.930 . S
H507 C449 0.930 . S
H508 C451 0.930 . S
H509 C453 0.929 . S
H510 C454 0.930 . S
H511 C455 0.930 . S
H512 C458 0.930 . S
H513 C461 0.929 . S
H514 C466 0.929 . S
H515 C467 0.930 . S
H516 C474 0.929 . S
H517 C475 0.930 . S
H518 C476 0.930 . S
H519 C477 0.930 . S
H520 C479 0.929 . S
H521 C480 0.930 . S
H522 C481 0.930 . S
H523 C482 0.930 . S
H524 C486 0.929 . S
H525 C488 0.930 . S
H526 C494 0.929 . S
H527 C495 0.930 . S
Li528 N545 1.990 . S
Li528 O588 1.956 . S
Li528 O589 1.970 . S
Li528 O590 1.961 . S
Li529 N553 1.990 . S
Li529 O588 1.970 . S
Li529 O589 1.956 . S
Li529 O591 1.961 . S
Li530 N575 1.990 . S
Li530 O588 1.961 . S
Li530 O590 1.956 . S
Li530 O591 1.970 . S
Li531 N581 1.990 . S
Li531 O589 1.961 . S
Li531 O590 1.970 . S
Li531 O591 1.956 . S
C532 C534 1.348 . S
C532 C535 1.356 . S
C532 O588 1.325 . S
N533 C536 1.314 . S
N533 C537 1.279 . S
C534 C532 1.348 . S
C534 C536 1.353 . S
C534 H592 0.929 . S
C535 C532 1.356 . S
C535 C537 1.358 . S
C535 H593 0.930 . S
C536 N533 1.314 . S
C536 C534 1.353 . S
C536 H594 0.930 . S
C537 N533 1.279 . S
C537 C535 1.358 . S
C537 H595 0.930 . S
C538 C541 1.348 . S
C538 C542 1.356 . S
C538 O589 1.325 . S
C539 N540 1.279 . S
C539 C542 1.358 . S
C539 H596 0.930 . S
N540 C539 1.279 . S
N540 C543 1.314 . S
C541 C538 1.348 . S
C541 C543 1.353 . S
C541 H597 0.929 . S
C542 C538 1.356 . S
C542 C539 1.358 . S
C542 H598 0.930 . S
C543 N540 1.314 . S
C543 C541 1.353 . S
C543 H599 0.930 . S
C544 N545 1.314 . S
C544 C549 1.353 . S
C544 H550 0.930 . S
N545 Li528 1.990 . S
N545 C544 1.314 . S
N545 C547 1.279 . S
C546 C547 1.358 . S
C546 C548 1.356 . S
C546 H600 0.930 . S
C547 N545 1.279 . S
C547 C546 1.358 . S
C547 H551 0.930 . S
C548 C546 1.356 . S
C548 C549 1.348 . S
C549 C544 1.353 . S
C549 C548 1.348 . S
C549 H601 0.929 . S
H550 C544 0.930 . S
H551 C547 0.930 . S
C552 N553 1.314 . S
C552 C554 1.353 . S
C552 H558 0.930 . S
N553 Li529 1.990 . S
N553 C552 1.314 . S
N553 C556 1.279 . S
C554 C552 1.353 . S
C554 C557 1.348 . S
C554 H602 0.929 . S
C555 C556 1.358 . S
C555 C557 1.356 . S
C555 H603 0.930 . S
C556 N553 1.279 . S
C556 C555 1.358 . S
C556 H559 0.930 . S
C557 C554 1.348 . S
C557 C555 1.356 . S
H558 C552 0.930 . S
H559 C556 0.930 . S
C560 C562 1.348 . S
C560 C563 1.356 . S
C560 O590 1.325 . S
N561 C564 1.314 . S
N561 C565 1.279 . S
C562 C560 1.348 . S
C562 C564 1.353 . S
C562 H604 0.929 . S
C563 C560 1.356 . S
C563 C565 1.358 . S
C563 H605 0.930 . S
C564 N561 1.314 . S
C564 C562 1.353 . S
C564 H606 0.930 . S
C565 N561 1.279 . S
C565 C563 1.358 . S
C565 H607 0.930 . S
C566 C567 1.348 . S
C566 C568 1.356 . S
C566 O591 1.325 . S
C567 C566 1.348 . S
C567 C569 1.353 . S
C567 H608 0.929 . S
C568 C566 1.356 . S
C568 C570 1.358 . S
C568 H609 0.930 . S
C569 C567 1.353 . S
C569 N571 1.314 . S
C569 H610 0.930 . S
C570 C568 1.358 . S
C570 N571 1.279 . S
C570 H611 0.930 . S
N571 C569 1.314 . S
N571 C570 1.279 . S
C572 C574 1.353 . S
C572 N575 1.314 . S
C572 H578 0.930 . S
C573 N575 1.279 . S
C573 C576 1.358 . S
C573 H579 0.930 . S
C574 C572 1.353 . S
C574 C577 1.348 . S
C574 H612 0.929 . S
N575 Li530 1.990 . S
N575 C572 1.314 . S
N575 C573 1.279 . S
C576 C573 1.358 . S
C576 C577 1.356 . S
C576 H613 0.930 . S
C577 C574 1.348 . S
C577 C576 1.356 . S
H578 C572 0.930 . S
H579 C573 0.930 . S
C580 N581 1.314 . S
C580 C582 1.353 . S
C580 H586 0.930 . S
N581 Li531 1.990 . S
N581 C580 1.314 . S
N581 C584 1.279 . S
C582 C580 1.353 . S
C582 C585 1.348 . S
C582 H614 0.929 . S
C583 C584 1.358 . S
C583 C585 1.356 . S
C583 H615 0.930 . S
C584 N581 1.279 . S
C584 C583 1.358 . S
C584 H587 0.930 . S
C585 C582 1.348 . S
C585 C583 1.356 . S
H586 C580 0.930 . S
H587 C584 0.930 . S
O588 Li528 1.956 . S
O588 Li529 1.970 . S
O588 Li530 1.961 . S
O588 C532 1.325 . S
O589 Li528 1.970 . S
O589 Li529 1.956 . S
O589 Li531 1.961 . S
O589 C538 1.325 . S
O590 Li528 1.961 . S
O590 Li530 1.956 . S
O590 Li531 1.970 . S
O590 C560 1.325 . S
O591 Li529 1.961 . S
O591 Li530 1.970 . S
O591 Li531 1.956 . S
O591 C566 1.325 . S
H592 C534 0.929 . S
H593 C535 0.930 . S
H594 C536 0.930 . S
H595 C537 0.930 . S
H596 C539 0.930 . S
H597 C541 0.929 . S
H598 C542 0.930 . S
H599 C543 0.930 . S
H600 C546 0.930 . S
H601 C549 0.929 . S
H602 C554 0.929 . S
H603 C555 0.930 . S
H604 C562 0.929 . S
H605 C563 0.930 . S
H606 C564 0.930 . S
H607 C565 0.930 . S
H608 C567 0.929 . S
H609 C568 0.930 . S
H610 C569 0.930 . S
H611 C570 0.930 . S
H612 C574 0.929 . S
H613 C576 0.930 . S
H614 C582 0.929 . S
H615 C583 0.930 . S
Li616 N633 1.990 . S
Li616 O676 1.956 . S
Li616 O677 1.970 . S
Li616 O678 1.961 . S
Li617 N641 1.990 . S
Li617 O676 1.970 . S
Li617 O677 1.956 . S
Li617 O679 1.961 . S
Li618 N663 1.990 . S
Li618 O676 1.961 . S
Li618 O678 1.956 . S
Li618 O679 1.970 . S
Li619 N669 1.990 . S
Li619 O677 1.961 . S
Li619 O678 1.970 . S
Li619 O679 1.956 . S
C620 C622 1.348 . S
C620 C623 1.356 . S
C620 O676 1.325 . S
N621 C624 1.314 . S
N621 C625 1.279 . S
C622 C620 1.348 . S
C622 C624 1.353 . S
C622 H680 0.929 . S
C623 C620 1.356 . S
C623 C625 1.358 . S
C623 H681 0.930 . S
C624 N621 1.314 . S
C624 C622 1.353 . S
C624 H682 0.930 . S
C625 N621 1.279 . S
C625 C623 1.358 . S
C625 H683 0.930 . S
C626 C629 1.348 . S
C626 C630 1.356 . S
C626 O677 1.325 . S
C627 N628 1.279 . S
C627 C630 1.358 . S
C627 H684 0.930 . S
N628 C627 1.279 . S
N628 C631 1.314 . S
C629 C626 1.348 . S
C629 C631 1.353 . S
C629 H685 0.929 . S
C630 C626 1.356 . S
C630 C627 1.358 . S
C630 H686 0.930 . S
C631 N628 1.314 . S
C631 C629 1.353 . S
C631 H687 0.930 . S
C632 N633 1.314 . S
C632 C637 1.353 . S
C632 H638 0.930 . S
N633 Li616 1.990 . S
N633 C632 1.314 . S
N633 C635 1.279 . S
C634 C635 1.358 . S
C634 C636 1.356 . S
C634 H688 0.930 . S
C635 N633 1.279 . S
C635 C634 1.358 . S
C635 H639 0.930 . S
C636 C634 1.356 . S
C636 C637 1.348 . S
C637 C632 1.353 . S
C637 C636 1.348 . S
C637 H689 0.929 . S
H638 C632 0.930 . S
H639 C635 0.930 . S
C640 N641 1.314 . S
C640 C642 1.353 . S
C640 H646 0.930 . S
N641 Li617 1.990 . S
N641 C640 1.314 . S
N641 C644 1.279 . S
C642 C640 1.353 . S
C642 C645 1.348 . S
C642 H690 0.929 . S
C643 C644 1.358 . S
C643 C645 1.356 . S
C643 H691 0.930 . S
C644 N641 1.279 . S
C644 C643 1.358 . S
C644 H647 0.930 . S
C645 C642 1.348 . S
C645 C643 1.356 . S
H646 C640 0.930 . S
H647 C644 0.930 . S
C648 C650 1.348 . S
C648 C651 1.356 . S
C648 O678 1.325 . S
N649 C652 1.314 . S
N649 C653 1.279 . S
C650 C648 1.348 . S
C650 C652 1.353 . S
C650 H692 0.929 . S
C651 C648 1.356 . S
C651 C653 1.358 . S
C651 H693 0.930 . S
C652 N649 1.314 . S
C652 C650 1.353 . S
C652 H694 0.930 . S
C653 N649 1.279 . S
C653 C651 1.358 . S
C653 H695 0.930 . S
C654 C655 1.348 . S
C654 C656 1.356 . S
C654 O679 1.325 . S
C655 C654 1.348 . S
C655 C657 1.353 . S
C655 H696 0.929 . S
C656 C654 1.356 . S
C656 C658 1.358 . S
C656 H697 0.930 . S
C657 C655 1.353 . S
C657 N659 1.314 . S
C657 H698 0.930 . S
C658 C656 1.358 . S
C658 N659 1.279 . S
C658 H699 0.930 . S
N659 C657 1.314 . S
N659 C658 1.279 . S
C660 C662 1.353 . S
C660 N663 1.314 . S
C660 H666 0.930 . S
C661 N663 1.279 . S
C661 C664 1.358 . S
C661 H667 0.930 . S
C662 C660 1.353 . S
C662 C665 1.348 . S
C662 H700 0.929 . S
N663 Li618 1.990 . S
N663 C660 1.314 . S
N663 C661 1.279 . S
C664 C661 1.358 . S
C664 C665 1.356 . S
C664 H701 0.930 . S
C665 C662 1.348 . S
C665 C664 1.356 . S
H666 C660 0.930 . S
H667 C661 0.930 . S
C668 N669 1.314 . S
C668 C670 1.353 . S
C668 H674 0.930 . S
N669 Li619 1.990 . S
N669 C668 1.314 . S
N669 C672 1.279 . S
C670 C668 1.353 . S
C670 C673 1.348 . S
C670 H702 0.929 . S
C671 C672 1.358 . S
C671 C673 1.356 . S
C671 H703 0.930 . S
C672 N669 1.279 . S
C672 C671 1.358 . S
C672 H675 0.930 . S
C673 C670 1.348 . S
C673 C671 1.356 . S
H674 C668 0.930 . S
H675 C672 0.930 . S
O676 Li616 1.956 . S
O676 Li617 1.970 . S
O676 Li618 1.961 . S
O676 C620 1.325 . S
O677 Li616 1.970 . S
O677 Li617 1.956 . S
O677 Li619 1.961 . S
O677 C626 1.325 . S
O678 Li616 1.961 . S
O678 Li618 1.956 . S
O678 Li619 1.970 . S
O678 C648 1.325 . S
O679 Li617 1.961 . S
O679 Li618 1.970 . S
O679 Li619 1.956 . S
O679 C654 1.325 . S
H680 C622 0.929 . S
H681 C623 0.930 . S
H682 C624 0.930 . S
H683 C625 0.930 . S
H684 C627 0.930 . S
H685 C629 0.929 . S
H686 C630 0.930 . S
H687 C631 0.930 . S
H688 C634 0.930 . S
H689 C637 0.929 . S
H690 C642 0.929 . S
H691 C643 0.930 . S
H692 C650 0.929 . S
H693 C651 0.930 . S
H694 C652 0.930 . S
H695 C653 0.930 . S
H696 C655 0.929 . S
H697 C656 0.930 . S
H698 C657 0.930 . S
H699 C658 0.930 . S
H700 C662 0.929 . S
H701 C664 0.930 . S
H702 C670 0.929 . S
H703 C671 0.930 . S
Li704 N721 1.990 . S
Li704 O764 1.956 . S
Li704 O765 1.970 . S
Li704 O766 1.961 . S
Li705 N729 1.990 . S
Li705 O764 1.970 . S
Li705 O765 1.956 . S
Li705 O767 1.961 . S
Li706 N751 1.990 . S
Li706 O764 1.961 . S
Li706 O766 1.956 . S
Li706 O767 1.970 . S
Li707 N757 1.990 . S
Li707 O765 1.961 . S
Li707 O766 1.970 . S
Li707 O767 1.956 . S
C708 C710 1.348 . S
C708 C711 1.356 . S
C708 O764 1.325 . S
N709 C712 1.314 . S
N709 C713 1.279 . S
C710 C708 1.348 . S
C710 C712 1.353 . S
C710 H768 0.929 . S
C711 C708 1.356 . S
C711 C713 1.358 . S
C711 H769 0.930 . S
C712 N709 1.314 . S
C712 C710 1.353 . S
C712 H770 0.930 . S
C713 N709 1.279 . S
C713 C711 1.358 . S
C713 H771 0.930 . S
C714 C717 1.348 . S
C714 C718 1.356 . S
C714 O765 1.325 . S
C715 N716 1.279 . S
C715 C718 1.358 . S
C715 H772 0.930 . S
N716 C715 1.279 . S
N716 C719 1.314 . S
C717 C714 1.348 . S
C717 C719 1.353 . S
C717 H773 0.929 . S
C718 C714 1.356 . S
C718 C715 1.358 . S
C718 H774 0.930 . S
C719 N716 1.314 . S
C719 C717 1.353 . S
C719 H775 0.930 . S
C720 N721 1.314 . S
C720 C725 1.353 . S
C720 H726 0.930 . S
N721 Li704 1.990 . S
N721 C720 1.314 . S
N721 C723 1.279 . S
C722 C723 1.358 . S
C722 C724 1.356 . S
C722 H776 0.930 . S
C723 N721 1.279 . S
C723 C722 1.358 . S
C723 H727 0.930 . S
C724 C722 1.356 . S
C724 C725 1.348 . S
C725 C720 1.353 . S
C725 C724 1.348 . S
C725 H777 0.929 . S
H726 C720 0.930 . S
H727 C723 0.930 . S
C728 N729 1.314 . S
C728 C730 1.353 . S
C728 H734 0.930 . S
N729 Li705 1.990 . S
N729 C728 1.314 . S
N729 C732 1.279 . S
C730 C728 1.353 . S
C730 C733 1.348 . S
C730 H778 0.929 . S
C731 C732 1.358 . S
C731 C733 1.356 . S
C731 H779 0.930 . S
C732 N729 1.279 . S
C732 C731 1.358 . S
C732 H735 0.930 . S
C733 C730 1.348 . S
C733 C731 1.356 . S
H734 C728 0.930 . S
H735 C732 0.930 . S
C736 C738 1.348 . S
C736 C739 1.356 . S
C736 O766 1.325 . S
N737 C740 1.314 . S
N737 C741 1.279 . S
C738 C736 1.348 . S
C738 C740 1.353 . S
C738 H780 0.929 . S
C739 C736 1.356 . S
C739 C741 1.358 . S
C739 H781 0.930 . S
C740 N737 1.314 . S
C740 C738 1.353 . S
C740 H782 0.930 . S
C741 N737 1.279 . S
C741 C739 1.358 . S
C741 H783 0.930 . S
C742 C743 1.348 . S
C742 C744 1.356 . S
C742 O767 1.325 . S
C743 C742 1.348 . S
C743 C745 1.353 . S
C743 H784 0.929 . S
C744 C742 1.356 . S
C744 C746 1.358 . S
C744 H785 0.930 . S
C745 C743 1.353 . S
C745 N747 1.314 . S
C745 H786 0.930 . S
C746 C744 1.358 . S
C746 N747 1.279 . S
C746 H787 0.930 . S
N747 C745 1.314 . S
N747 C746 1.279 . S
C748 C750 1.353 . S
C748 N751 1.314 . S
C748 H754 0.930 . S
C749 N751 1.279 . S
C749 C752 1.358 . S
C749 H755 0.930 . S
C750 C748 1.353 . S
C750 C753 1.348 . S
C750 H788 0.929 . S
N751 Li706 1.990 . S
N751 C748 1.314 . S
N751 C749 1.279 . S
C752 C749 1.358 . S
C752 C753 1.356 . S
C752 H789 0.930 . S
C753 C750 1.348 . S
C753 C752 1.356 . S
H754 C748 0.930 . S
H755 C749 0.930 . S
C756 N757 1.314 . S
C756 C758 1.353 . S
C756 H762 0.930 . S
N757 Li707 1.990 . S
N757 C756 1.314 . S
N757 C760 1.279 . S
C758 C756 1.353 . S
C758 C761 1.348 . S
C758 H790 0.929 . S
C759 C760 1.358 . S
C759 C761 1.356 . S
C759 H791 0.930 . S
C760 N757 1.279 . S
C760 C759 1.358 . S
C760 H763 0.930 . S
C761 C758 1.348 . S
C761 C759 1.356 . S
H762 C756 0.930 . S
H763 C760 0.930 . S
O764 Li704 1.956 . S
O764 Li705 1.970 . S
O764 Li706 1.961 . S
O764 C708 1.325 . S
O765 Li704 1.970 . S
O765 Li705 1.956 . S
O765 Li707 1.961 . S
O765 C714 1.325 . S
O766 Li704 1.961 . S
O766 Li706 1.956 . S
O766 Li707 1.970 . S
O766 C736 1.325 . S
O767 Li705 1.961 . S
O767 Li706 1.970 . S
O767 Li707 1.956 . S
O767 C742 1.325 . S
H768 C710 0.929 . S
H769 C711 0.930 . S
H770 C712 0.930 . S
H771 C713 0.930 . S
H772 C715 0.930 . S
H773 C717 0.929 . S
H774 C718 0.930 . S
H775 C719 0.930 . S
H776 C722 0.930 . S
H777 C725 0.929 . S
H778 C730 0.929 . S
H779 C731 0.930 . S
H780 C738 0.929 . S
H781 C739 0.930 . S
H782 C740 0.930 . S
H783 C741 0.930 . S
H784 C743 0.929 . S
H785 C744 0.930 . S
H786 C745 0.930 . S
H787 C746 0.930 . S
H788 C750 0.929 . S
H789 C752 0.930 . S
H790 C758 0.929 . S
H791 C759 0.930 . S
Li792 N809 1.990 . S
Li792 O852 1.956 . S
Li792 O853 1.970 . S
Li792 O854 1.961 . S
Li793 N817 1.990 . S
Li793 O852 1.970 . S
Li793 O853 1.956 . S
Li793 O855 1.961 . S
Li794 N839 1.990 . S
Li794 O852 1.961 . S
Li794 O854 1.956 . S
Li794 O855 1.970 . S
Li795 N845 1.990 . S
Li795 O853 1.961 . S
Li795 O854 1.970 . S
Li795 O855 1.956 . S
C796 C798 1.348 . S
C796 C799 1.356 . S
C796 O852 1.325 . S
N797 C800 1.314 . S
N797 C801 1.279 . S
C798 C796 1.348 . S
C798 C800 1.353 . S
C798 H856 0.929 . S
C799 C796 1.356 . S
C799 C801 1.358 . S
C799 H857 0.930 . S
C800 N797 1.314 . S
C800 C798 1.353 . S
C800 H858 0.930 . S
C801 N797 1.279 . S
C801 C799 1.358 . S
C801 H859 0.930 . S
C802 C805 1.348 . S
C802 C806 1.356 . S
C802 O853 1.325 . S
C803 N804 1.279 . S
C803 C806 1.358 . S
C803 H860 0.930 . S
N804 C803 1.279 . S
N804 C807 1.314 . S
C805 C802 1.348 . S
C805 C807 1.353 . S
C805 H861 0.929 . S
C806 C802 1.356 . S
C806 C803 1.358 . S
C806 H862 0.930 . S
C807 N804 1.314 . S
C807 C805 1.353 . S
C807 H863 0.930 . S
C808 N809 1.314 . S
C808 C813 1.353 . S
C808 H814 0.930 . S
N809 Li792 1.990 . S
N809 C808 1.314 . S
N809 C811 1.279 . S
C810 C811 1.358 . S
C810 C812 1.356 . S
C810 H864 0.930 . S
C811 N809 1.279 . S
C811 C810 1.358 . S
C811 H815 0.930 . S
C812 C810 1.356 . S
C812 C813 1.348 . S
C813 C808 1.353 . S
C813 C812 1.348 . S
C813 H865 0.929 . S
H814 C808 0.930 . S
H815 C811 0.930 . S
C816 N817 1.314 . S
C816 C818 1.353 . S
C816 H822 0.930 . S
N817 Li793 1.990 . S
N817 C816 1.314 . S
N817 C820 1.279 . S
C818 C816 1.353 . S
C818 C821 1.348 . S
C818 H866 0.929 . S
C819 C820 1.358 . S
C819 C821 1.356 . S
C819 H867 0.930 . S
C820 N817 1.279 . S
C820 C819 1.358 . S
C820 H823 0.930 . S
C821 C818 1.348 . S
C821 C819 1.356 . S
H822 C816 0.930 . S
H823 C820 0.930 . S
C824 C826 1.348 . S
C824 C827 1.356 . S
C824 O854 1.325 . S
N825 C828 1.314 . S
N825 C829 1.279 . S
C826 C824 1.348 . S
C826 C828 1.353 . S
C826 H868 0.929 . S
C827 C824 1.356 . S
C827 C829 1.358 . S
C827 H869 0.930 . S
C828 N825 1.314 . S
C828 C826 1.353 . S
C828 H870 0.930 . S
C829 N825 1.279 . S
C829 C827 1.358 . S
C829 H871 0.930 . S
C830 C831 1.348 . S
C830 C832 1.356 . S
C830 O855 1.325 . S
C831 C830 1.348 . S
C831 C833 1.353 . S
C831 H872 0.929 . S
C832 C830 1.356 . S
C832 C834 1.358 . S
C832 H873 0.930 . S
C833 C831 1.353 . S
C833 N835 1.314 . S
C833 H874 0.930 . S
C834 C832 1.358 . S
C834 N835 1.279 . S
C834 H875 0.930 . S
N835 C833 1.314 . S
N835 C834 1.279 . S
C836 C838 1.353 . S
C836 N839 1.314 . S
C836 H842 0.930 . S
C837 N839 1.279 . S
C837 C840 1.358 . S
C837 H843 0.930 . S
C838 C836 1.353 . S
C838 C841 1.348 . S
C838 H876 0.929 . S
N839 Li794 1.990 . S
N839 C836 1.314 . S
N839 C837 1.279 . S
C840 C837 1.358 . S
C840 C841 1.356 . S
C840 H877 0.930 . S
C841 C838 1.348 . S
C841 C840 1.356 . S
H842 C836 0.930 . S
H843 C837 0.930 . S
C844 N845 1.314 . S
C844 C846 1.353 . S
C844 H850 0.930 . S
N845 Li795 1.990 . S
N845 C844 1.314 . S
N845 C848 1.279 . S
C846 C844 1.353 . S
C846 C849 1.348 . S
C846 H878 0.929 . S
C847 C848 1.358 . S
C847 C849 1.356 . S
C847 H879 0.930 . S
C848 N845 1.279 . S
C848 C847 1.358 . S
C848 H851 0.930 . S
C849 C846 1.348 . S
C849 C847 1.356 . S
H850 C844 0.930 . S
H851 C848 0.930 . S
O852 Li792 1.956 . S
O852 Li793 1.970 . S
O852 Li794 1.961 . S
O852 C796 1.325 . S
O853 Li792 1.970 . S
O853 Li793 1.956 . S
O853 Li795 1.961 . S
O853 C802 1.325 . S
O854 Li792 1.961 . S
O854 Li794 1.956 . S
O854 Li795 1.970 . S
O854 C824 1.325 . S
O855 Li793 1.961 . S
O855 Li794 1.970 . S
O855 Li795 1.956 . S
O855 C830 1.325 . S
H856 C798 0.929 . S
H857 C799 0.930 . S
H858 C800 0.930 . S
H859 C801 0.930 . S
H860 C803 0.930 . S
H861 C805 0.929 . S
H862 C806 0.930 . S
H863 C807 0.930 . S
H864 C810 0.930 . S
H865 C813 0.929 . S
H866 C818 0.929 . S
H867 C819 0.930 . S
H868 C826 0.929 . S
H869 C827 0.930 . S
H870 C828 0.930 . S
H871 C829 0.930 . S
H872 C831 0.929 . S
H873 C832 0.930 . S
H874 C833 0.930 . S
H875 C834 0.930 . S
H876 C838 0.929 . S
H877 C840 0.930 . S
H878 C846 0.929 . S
H879 C847 0.930 . S
Li880 N897 1.990 . S
Li880 O940 1.956 . S
Li880 O941 1.970 . S
Li880 O942 1.961 . S
Li881 N905 1.990 . S
Li881 O940 1.970 . S
Li881 O941 1.956 . S
Li881 O943 1.961 . S
Li882 N927 1.990 . S
Li882 O940 1.961 . S
Li882 O942 1.956 . S
Li882 O943 1.970 . S
Li883 N933 1.990 . S
Li883 O941 1.961 . S
Li883 O942 1.970 . S
Li883 O943 1.956 . S
C884 C886 1.348 . S
C884 C887 1.356 . S
C884 O940 1.325 . S
N885 C888 1.314 . S
N885 C889 1.279 . S
C886 C884 1.348 . S
C886 C888 1.353 . S
C886 H944 0.929 . S
C887 C884 1.356 . S
C887 C889 1.358 . S
C887 H945 0.930 . S
C888 N885 1.314 . S
C888 C886 1.353 . S
C888 H946 0.930 . S
C889 N885 1.279 . S
C889 C887 1.358 . S
C889 H947 0.930 . S
C890 C893 1.348 . S
C890 C894 1.356 . S
C890 O941 1.325 . S
C891 N892 1.279 . S
C891 C894 1.358 . S
C891 H948 0.930 . S
N892 C891 1.279 . S
N892 C895 1.314 . S
C893 C890 1.348 . S
C893 C895 1.353 . S
C893 H949 0.929 . S
C894 C890 1.356 . S
C894 C891 1.358 . S
C894 H950 0.930 . S
C895 N892 1.314 . S
C895 C893 1.353 . S
C895 H951 0.930 . S
C896 N897 1.314 . S
C896 C901 1.353 . S
C896 H902 0.930 . S
N897 Li880 1.990 . S
N897 C896 1.314 . S
N897 C899 1.279 . S
C898 C899 1.358 . S
C898 C900 1.356 . S
C898 H952 0.930 . S
C899 N897 1.279 . S
C899 C898 1.358 . S
C899 H903 0.930 . S
C900 C898 1.356 . S
C900 C901 1.348 . S
C901 C896 1.353 . S
C901 C900 1.348 . S
C901 H953 0.929 . S
H902 C896 0.930 . S
H903 C899 0.930 . S
C904 N905 1.314 . S
C904 C906 1.353 . S
C904 H910 0.930 . S
N905 Li881 1.990 . S
N905 C904 1.314 . S
N905 C908 1.279 . S
C906 C904 1.353 . S
C906 C909 1.348 . S
C906 H954 0.929 . S
C907 C908 1.358 . S
C907 C909 1.356 . S
C907 H955 0.930 . S
C908 N905 1.279 . S
C908 C907 1.358 . S
C908 H911 0.930 . S
C909 C906 1.348 . S
C909 C907 1.356 . S
H910 C904 0.930 . S
H911 C908 0.930 . S
C912 C914 1.348 . S
C912 C915 1.356 . S
C912 O942 1.325 . S
N913 C916 1.314 . S
N913 C917 1.279 . S
C914 C912 1.348 . S
C914 C916 1.353 . S
C914 H956 0.929 . S
C915 C912 1.356 . S
C915 C917 1.358 . S
C915 H957 0.930 . S
C916 N913 1.314 . S
C916 C914 1.353 . S
C916 H958 0.930 . S
C917 N913 1.279 . S
C917 C915 1.358 . S
C917 H959 0.930 . S
C918 C919 1.348 . S
C918 C920 1.356 . S
C918 O943 1.325 . S
C919 C918 1.348 . S
C919 C921 1.353 . S
C919 H960 0.929 . S
C920 C918 1.356 . S
C920 C922 1.358 . S
C920 H961 0.930 . S
C921 C919 1.353 . S
C921 N923 1.314 . S
C921 H962 0.930 . S
C922 C920 1.358 . S
C922 N923 1.279 . S
C922 H963 0.930 . S
N923 C921 1.314 . S
N923 C922 1.279 . S
C924 C926 1.353 . S
C924 N927 1.314 . S
C924 H930 0.930 . S
C925 N927 1.279 . S
C925 C928 1.358 . S
C925 H931 0.930 . S
C926 C924 1.353 . S
C926 C929 1.348 . S
C926 H964 0.929 . S
N927 Li882 1.990 . S
N927 C924 1.314 . S
N927 C925 1.279 . S
C928 C925 1.358 . S
C928 C929 1.356 . S
C928 H965 0.930 . S
C929 C926 1.348 . S
C929 C928 1.356 . S
H930 C924 0.930 . S
H931 C925 0.930 . S
C932 N933 1.314 . S
C932 C934 1.353 . S
C932 H938 0.930 . S
N933 Li883 1.990 . S
N933 C932 1.314 . S
N933 C936 1.279 . S
C934 C932 1.353 . S
C934 C937 1.348 . S
C934 H966 0.929 . S
C935 C936 1.358 . S
C935 C937 1.356 . S
C935 H967 0.930 . S
C936 N933 1.279 . S
C936 C935 1.358 . S
C936 H939 0.930 . S
C937 C934 1.348 . S
C937 C935 1.356 . S
H938 C932 0.930 . S
H939 C936 0.930 . S
O940 Li880 1.956 . S
O940 Li881 1.970 . S
O940 Li882 1.961 . S
O940 C884 1.325 . S
O941 Li880 1.970 . S
O941 Li881 1.956 . S
O941 Li883 1.961 . S
O941 C890 1.325 . S
O942 Li880 1.961 . S
O942 Li882 1.956 . S
O942 Li883 1.970 . S
O942 C912 1.325 . S
O943 Li881 1.961 . S
O943 Li882 1.970 . S
O943 Li883 1.956 . S
O943 C918 1.325 . S
H944 C886 0.929 . S
H945 C887 0.930 . S
H946 C888 0.930 . S
H947 C889 0.930 . S
H948 C891 0.930 . S
H949 C893 0.929 . S
H950 C894 0.930 . S
H951 C895 0.930 . S
H952 C898 0.930 . S
H953 C901 0.929 . S
H954 C906 0.929 . S
H955 C907 0.930 . S
H956 C914 0.929 . S
H957 C915 0.930 . S
H958 C916 0.930 . S
H959 C917 0.930 . S
H960 C919 0.929 . S
H961 C920 0.930 . S
H962 C921 0.930 . S
H963 C922 0.930 . S
H964 C926 0.929 . S
H965 C928 0.930 . S
H966 C934 0.929 . S
H967 C935 0.930 . S
Li968 N985 1.990 . S
Li968 O1028 1.956 . S
Li968 O1029 1.970 . S
Li968 O1030 1.961 . S
Li969 N993 1.990 . S
Li969 O1028 1.970 . S
Li969 O1029 1.956 . S
Li969 O1031 1.961 . S
Li970 N1015 1.990 . S
Li970 O1028 1.961 . S
Li970 O1030 1.956 . S
Li970 O1031 1.970 . S
Li971 N1021 1.990 . S
Li971 O1029 1.961 . S
Li971 O1030 1.970 . S
Li971 O1031 1.956 . S
C972 C974 1.348 . S
C972 C975 1.356 . S
C972 O1028 1.325 . S
N973 C976 1.314 . S
N973 C977 1.279 . S
C974 C972 1.348 . S
C974 C976 1.353 . S
C974 H1032 0.929 . S
C975 C972 1.356 . S
C975 C977 1.358 . S
C975 H1033 0.930 . S
C976 N973 1.314 . S
C976 C974 1.353 . S
C976 H1034 0.930 . S
C977 N973 1.279 . S
C977 C975 1.358 . S
C977 H1035 0.930 . S
C978 C981 1.348 . S
C978 C982 1.356 . S
C978 O1029 1.325 . S
C979 N980 1.279 . S
C979 C982 1.358 . S
C979 H1036 0.930 . S
N980 C979 1.279 . S
N980 C983 1.314 . S
C981 C978 1.348 . S
C981 C983 1.353 . S
C981 H1037 0.929 . S
C982 C978 1.356 . S
C982 C979 1.358 . S
C982 H1038 0.930 . S
C983 N980 1.314 . S
C983 C981 1.353 . S
C983 H1039 0.930 . S
C984 N985 1.314 . S
C984 C989 1.353 . S
C984 H990 0.930 . S
N985 Li968 1.990 . S
N985 C984 1.314 . S
N985 C987 1.279 . S
C986 C987 1.358 . S
C986 C988 1.356 . S
C986 H1040 0.930 . S
C987 N985 1.279 . S
C987 C986 1.358 . S
C987 H991 0.930 . S
C988 C986 1.356 . S
C988 C989 1.348 . S
C989 C984 1.353 . S
C989 C988 1.348 . S
C989 H1041 0.929 . S
H990 C984 0.930 . S
H991 C987 0.930 . S
C992 N993 1.314 . S
C992 C994 1.353 . S
C992 H998 0.930 . S
N993 Li969 1.990 . S
N993 C992 1.314 . S
N993 C996 1.279 . S
C994 C992 1.353 . S
C994 C997 1.348 . S
C994 H1042 0.929 . S
C995 C996 1.358 . S
C995 C997 1.356 . S
C995 H1043 0.930 . S
C996 N993 1.279 . S
C996 C995 1.358 . S
C996 H999 0.930 . S
C997 C994 1.348 . S
C997 C995 1.356 . S
H998 C992 0.930 . S
H999 C996 0.930 . S
C1000 C1002 1.348 . S
C1000 C1003 1.356 . S
C1000 O1030 1.325 . S
N1001 C1004 1.314 . S
N1001 C1005 1.279 . S
C1002 C1000 1.348 . S
C1002 C1004 1.353 . S
C1002 H1044 0.929 . S
C1003 C1000 1.356 . S
C1003 C1005 1.358 . S
C1003 H1045 0.930 . S
C1004 N1001 1.314 . S
C1004 C1002 1.353 . S
C1004 H1046 0.930 . S
C1005 N1001 1.279 . S
C1005 C1003 1.358 . S
C1005 H1047 0.930 . S
C1006 C1007 1.348 . S
C1006 C1008 1.356 . S
C1006 O1031 1.325 . S
C1007 C1006 1.348 . S
C1007 C1009 1.353 . S
C1007 H1048 0.929 . S
C1008 C1006 1.356 . S
C1008 C1010 1.358 . S
C1008 H1049 0.930 . S
C1009 C1007 1.353 . S
C1009 N1011 1.314 . S
C1009 H1050 0.930 . S
C1010 C1008 1.358 . S
C1010 N1011 1.279 . S
C1010 H1051 0.930 . S
N1011 C1009 1.314 . S
N1011 C1010 1.279 . S
C1012 C1014 1.353 . S
C1012 N1015 1.314 . S
C1012 H1018 0.930 . S
C1013 N1015 1.279 . S
C1013 C1016 1.358 . S
C1013 H1019 0.930 . S
C1014 C1012 1.353 . S
C1014 C1017 1.348 . S
C1014 H1052 0.929 . S
N1015 Li970 1.990 . S
N1015 C1012 1.314 . S
N1015 C1013 1.279 . S
C1016 C1013 1.358 . S
C1016 C1017 1.356 . S
C1016 H1053 0.930 . S
C1017 C1014 1.348 . S
C1017 C1016 1.356 . S
H1018 C1012 0.930 . S
H1019 C1013 0.930 . S
C1020 N1021 1.314 . S
C1020 C1022 1.353 . S
C1020 H1026 0.930 . S
N1021 Li971 1.990 . S
N1021 C1020 1.314 . S
N1021 C1024 1.279 . S
C1022 C1020 1.353 . S
C1022 C1025 1.348 . S
C1022 H1054 0.929 . S
C1023 C1024 1.358 . S
C1023 C1025 1.356 . S
C1023 H1055 0.930 . S
C1024 N1021 1.279 . S
C1024 C1023 1.358 . S
C1024 H1027 0.930 . S
C1025 C1022 1.348 . S
C1025 C1023 1.356 . S
H1026 C1020 0.930 . S
H1027 C1024 0.930 . S
O1028 Li968 1.956 . S
O1028 Li969 1.970 . S
O1028 Li970 1.961 . S
O1028 C972 1.325 . S
O1029 Li968 1.970 . S
O1029 Li969 1.956 . S
O1029 Li971 1.961 . S
O1029 C978 1.325 . S
O1030 Li968 1.961 . S
O1030 Li970 1.956 . S
O1030 Li971 1.970 . S
O1030 C1000 1.325 . S
O1031 Li969 1.961 . S
O1031 Li970 1.970 . S
O1031 Li971 1.956 . S
O1031 C1006 1.325 . S
H1032 C974 0.929 . S
H1033 C975 0.930 . S
H1034 C976 0.930 . S
H1035 C977 0.930 . S
H1036 C979 0.930 . S
H1037 C981 0.929 . S
H1038 C982 0.930 . S
H1039 C983 0.930 . S
H1040 C986 0.930 . S
H1041 C989 0.929 . S
H1042 C994 0.929 . S
H1043 C995 0.930 . S
H1044 C1002 0.929 . S
H1045 C1003 0.930 . S
H1046 C1004 0.930 . S
H1047 C1005 0.930 . S
H1048 C1007 0.929 . S
H1049 C1008 0.930 . S
H1050 C1009 0.930 . S
H1051 C1010 0.930 . S
H1052 C1014 0.929 . S
H1053 C1016 0.930 . S
H1054 C1022 0.929 . S
H1055 C1023 0.930 . S
Li1056 N1073 1.990 . S
Li1056 O1116 1.956 . S
Li1056 O1117 1.970 . S
Li1056 O1118 1.961 . S
Li1057 N1081 1.990 . S
Li1057 O1116 1.970 . S
Li1057 O1117 1.956 . S
Li1057 O1119 1.961 . S
Li1058 N1103 1.990 . S
Li1058 O1116 1.961 . S
Li1058 O1118 1.956 . S
Li1058 O1119 1.970 . S
Li1059 N1109 1.990 . S
Li1059 O1117 1.961 . S
Li1059 O1118 1.970 . S
Li1059 O1119 1.956 . S
C1060 C1062 1.348 . S
C1060 C1063 1.356 . S
C1060 O1116 1.325 . S
N1061 C1064 1.314 . S
N1061 C1065 1.279 . S
C1062 C1060 1.348 . S
C1062 C1064 1.353 . S
C1062 H1120 0.929 . S
C1063 C1060 1.356 . S
C1063 C1065 1.358 . S
C1063 H1121 0.930 . S
C1064 N1061 1.314 . S
C1064 C1062 1.353 . S
C1064 H1122 0.930 . S
C1065 N1061 1.279 . S
C1065 C1063 1.358 . S
C1065 H1123 0.930 . S
C1066 C1069 1.348 . S
C1066 C1070 1.356 . S
C1066 O1117 1.325 . S
C1067 N1068 1.279 . S
C1067 C1070 1.358 . S
C1067 H1124 0.930 . S
N1068 C1067 1.279 . S
N1068 C1071 1.314 . S
C1069 C1066 1.348 . S
C1069 C1071 1.353 . S
C1069 H1125 0.929 . S
C1070 C1066 1.356 . S
C1070 C1067 1.358 . S
C1070 H1126 0.930 . S
C1071 N1068 1.314 . S
C1071 C1069 1.353 . S
C1071 H1127 0.930 . S
C1072 N1073 1.314 . S
C1072 C1077 1.353 . S
C1072 H1078 0.930 . S
N1073 Li1056 1.990 . S
N1073 C1072 1.314 . S
N1073 C1075 1.279 . S
C1074 C1075 1.358 . S
C1074 C1076 1.356 . S
C1074 H1128 0.930 . S
C1075 N1073 1.279 . S
C1075 C1074 1.358 . S
C1075 H1079 0.930 . S
C1076 C1074 1.356 . S
C1076 C1077 1.348 . S
C1077 C1072 1.353 . S
C1077 C1076 1.348 . S
C1077 H1129 0.929 . S
H1078 C1072 0.930 . S
H1079 C1075 0.930 . S
C1080 N1081 1.314 . S
C1080 C1082 1.353 . S
C1080 H1086 0.930 . S
N1081 Li1057 1.990 . S
N1081 C1080 1.314 . S
N1081 C1084 1.279 . S
C1082 C1080 1.353 . S
C1082 C1085 1.348 . S
C1082 H1130 0.929 . S
C1083 C1084 1.358 . S
C1083 C1085 1.356 . S
C1083 H1131 0.930 . S
C1084 N1081 1.279 . S
C1084 C1083 1.358 . S
C1084 H1087 0.930 . S
C1085 C1082 1.348 . S
C1085 C1083 1.356 . S
H1086 C1080 0.930 . S
H1087 C1084 0.930 . S
C1088 C1090 1.348 . S
C1088 C1091 1.356 . S
C1088 O1118 1.325 . S
N1089 C1092 1.314 . S
N1089 C1093 1.279 . S
C1090 C1088 1.348 . S
C1090 C1092 1.353 . S
C1090 H1132 0.929 . S
C1091 C1088 1.356 . S
C1091 C1093 1.358 . S
C1091 H1133 0.930 . S
C1092 N1089 1.314 . S
C1092 C1090 1.353 . S
C1092 H1134 0.930 . S
C1093 N1089 1.279 . S
C1093 C1091 1.358 . S
C1093 H1135 0.930 . S
C1094 C1095 1.348 . S
C1094 C1096 1.356 . S
C1094 O1119 1.325 . S
C1095 C1094 1.348 . S
C1095 C1097 1.353 . S
C1095 H1136 0.929 . S
C1096 C1094 1.356 . S
C1096 C1098 1.358 . S
C1096 H1137 0.930 . S
C1097 C1095 1.353 . S
C1097 N1099 1.314 . S
C1097 H1138 0.930 . S
C1098 C1096 1.358 . S
C1098 N1099 1.279 . S
C1098 H1139 0.930 . S
N1099 C1097 1.314 . S
N1099 C1098 1.279 . S
C1100 C1102 1.353 . S
C1100 N1103 1.314 . S
C1100 H1106 0.930 . S
C1101 N1103 1.279 . S
C1101 C1104 1.358 . S
C1101 H1107 0.930 . S
C1102 C1100 1.353 . S
C1102 C1105 1.348 . S
C1102 H1140 0.929 . S
N1103 Li1058 1.990 . S
N1103 C1100 1.314 . S
N1103 C1101 1.279 . S
C1104 C1101 1.358 . S
C1104 C1105 1.356 . S
C1104 H1141 0.930 . S
C1105 C1102 1.348 . S
C1105 C1104 1.356 . S
H1106 C1100 0.930 . S
H1107 C1101 0.930 . S
C1108 N1109 1.314 . S
C1108 C1110 1.353 . S
C1108 H1114 0.930 . S
N1109 Li1059 1.990 . S
N1109 C1108 1.314 . S
N1109 C1112 1.279 . S
C1110 C1108 1.353 . S
C1110 C1113 1.348 . S
C1110 H1142 0.929 . S
C1111 C1112 1.358 . S
C1111 C1113 1.356 . S
C1111 H1143 0.930 . S
C1112 N1109 1.279 . S
C1112 C1111 1.358 . S
C1112 H1115 0.930 . S
C1113 C1110 1.348 . S
C1113 C1111 1.356 . S
H1114 C1108 0.930 . S
H1115 C1112 0.930 . S
O1116 Li1056 1.956 . S
O1116 Li1057 1.970 . S
O1116 Li1058 1.961 . S
O1116 C1060 1.325 . S
O1117 Li1056 1.970 . S
O1117 Li1057 1.956 . S
O1117 Li1059 1.961 . S
O1117 C1066 1.325 . S
O1118 Li1056 1.961 . S
O1118 Li1058 1.956 . S
O1118 Li1059 1.970 . S
O1118 C1088 1.325 . S
O1119 Li1057 1.961 . S
O1119 Li1058 1.970 . S
O1119 Li1059 1.956 . S
O1119 C1094 1.325 . S
H1120 C1062 0.929 . S
H1121 C1063 0.930 . S
H1122 C1064 0.930 . S
H1123 C1065 0.930 . S
H1124 C1067 0.930 . S
H1125 C1069 0.929 . S
H1126 C1070 0.930 . S
H1127 C1071 0.930 . S
H1128 C1074 0.930 . S
H1129 C1077 0.929 . S
H1130 C1082 0.929 . S
H1131 C1083 0.930 . S
H1132 C1090 0.929 . S
H1133 C1091 0.930 . S
H1134 C1092 0.930 . S
H1135 C1093 0.930 . S
H1136 C1095 0.929 . S
H1137 C1096 0.930 . S
H1138 C1097 0.930 . S
H1139 C1098 0.930 . S
H1140 C1102 0.929 . S
H1141 C1104 0.930 . S
H1142 C1110 0.929 . S
H1143 C1111 0.930 . S
Li1144 N1161 1.990 . S
Li1144 O1204 1.956 . S
Li1144 O1205 1.970 . S
Li1144 O1206 1.961 . S
Li1145 N1169 1.990 . S
Li1145 O1204 1.970 . S
Li1145 O1205 1.956 . S
Li1145 O1207 1.961 . S
Li1146 N1191 1.990 . S
Li1146 O1204 1.961 . S
Li1146 O1206 1.956 . S
Li1146 O1207 1.970 . S
Li1147 N1197 1.990 . S
Li1147 O1205 1.961 . S
Li1147 O1206 1.970 . S
Li1147 O1207 1.956 . S
C1148 C1150 1.348 . S
C1148 C1151 1.356 . S
C1148 O1204 1.325 . S
N1149 C1152 1.314 . S
N1149 C1153 1.279 . S
C1150 C1148 1.348 . S
C1150 C1152 1.353 . S
C1150 H1208 0.929 . S
C1151 C1148 1.356 . S
C1151 C1153 1.358 . S
C1151 H1209 0.930 . S
C1152 N1149 1.314 . S
C1152 C1150 1.353 . S
C1152 H1210 0.930 . S
C1153 N1149 1.279 . S
C1153 C1151 1.358 . S
C1153 H1211 0.930 . S
C1154 C1157 1.348 . S
C1154 C1158 1.356 . S
C1154 O1205 1.325 . S
C1155 N1156 1.279 . S
C1155 C1158 1.358 . S
C1155 H1212 0.930 . S
N1156 C1155 1.279 . S
N1156 C1159 1.314 . S
C1157 C1154 1.348 . S
C1157 C1159 1.353 . S
C1157 H1213 0.929 . S
C1158 C1154 1.356 . S
C1158 C1155 1.358 . S
C1158 H1214 0.930 . S
C1159 N1156 1.314 . S
C1159 C1157 1.353 . S
C1159 H1215 0.930 . S
C1160 N1161 1.314 . S
C1160 C1165 1.353 . S
C1160 H1166 0.930 . S
N1161 Li1144 1.990 . S
N1161 C1160 1.314 . S
N1161 C1163 1.279 . S
C1162 C1163 1.358 . S
C1162 C1164 1.356 . S
C1162 H1216 0.930 . S
C1163 N1161 1.279 . S
C1163 C1162 1.358 . S
C1163 H1167 0.930 . S
C1164 C1162 1.356 . S
C1164 C1165 1.348 . S
C1165 C1160 1.353 . S
C1165 C1164 1.348 . S
C1165 H1217 0.929 . S
H1166 C1160 0.930 . S
H1167 C1163 0.930 . S
C1168 N1169 1.314 . S
C1168 C1170 1.353 . S
C1168 H1174 0.930 . S
N1169 Li1145 1.990 . S
N1169 C1168 1.314 . S
N1169 C1172 1.279 . S
C1170 C1168 1.353 . S
C1170 C1173 1.348 . S
C1170 H1218 0.929 . S
C1171 C1172 1.358 . S
C1171 C1173 1.356 . S
C1171 H1219 0.930 . S
C1172 N1169 1.279 . S
C1172 C1171 1.358 . S
C1172 H1175 0.930 . S
C1173 C1170 1.348 . S
C1173 C1171 1.356 . S
H1174 C1168 0.930 . S
H1175 C1172 0.930 . S
C1176 C1178 1.348 . S
C1176 C1179 1.356 . S
C1176 O1206 1.325 . S
N1177 C1180 1.314 . S
N1177 C1181 1.279 . S
C1178 C1176 1.348 . S
C1178 C1180 1.353 . S
C1178 H1220 0.929 . S
C1179 C1176 1.356 . S
C1179 C1181 1.358 . S
C1179 H1221 0.930 . S
C1180 N1177 1.314 . S
C1180 C1178 1.353 . S
C1180 H1222 0.930 . S
C1181 N1177 1.279 . S
C1181 C1179 1.358 . S
C1181 H1223 0.930 . S
C1182 C1183 1.348 . S
C1182 C1184 1.356 . S
C1182 O1207 1.325 . S
C1183 C1182 1.348 . S
C1183 C1185 1.353 . S
C1183 H1224 0.929 . S
C1184 C1182 1.356 . S
C1184 C1186 1.358 . S
C1184 H1225 0.930 . S
C1185 C1183 1.353 . S
C1185 N1187 1.314 . S
C1185 H1226 0.930 . S
C1186 C1184 1.358 . S
C1186 N1187 1.279 . S
C1186 H1227 0.930 . S
N1187 C1185 1.314 . S
N1187 C1186 1.279 . S
C1188 C1190 1.353 . S
C1188 N1191 1.314 . S
C1188 H1194 0.930 . S
C1189 N1191 1.279 . S
C1189 C1192 1.358 . S
C1189 H1195 0.930 . S
C1190 C1188 1.353 . S
C1190 C1193 1.348 . S
C1190 H1228 0.929 . S
N1191 Li1146 1.990 . S
N1191 C1188 1.314 . S
N1191 C1189 1.279 . S
C1192 C1189 1.358 . S
C1192 C1193 1.356 . S
C1192 H1229 0.930 . S
C1193 C1190 1.348 . S
C1193 C1192 1.356 . S
H1194 C1188 0.930 . S
H1195 C1189 0.930 . S
C1196 N1197 1.314 . S
C1196 C1198 1.353 . S
C1196 H1202 0.930 . S
N1197 Li1147 1.990 . S
N1197 C1196 1.314 . S
N1197 C1200 1.279 . S
C1198 C1196 1.353 . S
C1198 C1201 1.348 . S
C1198 H1230 0.929 . S
C1199 C1200 1.358 . S
C1199 C1201 1.356 . S
C1199 H1231 0.930 . S
C1200 N1197 1.279 . S
C1200 C1199 1.358 . S
C1200 H1203 0.930 . S
C1201 C1198 1.348 . S
C1201 C1199 1.356 . S
H1202 C1196 0.930 . S
H1203 C1200 0.930 . S
O1204 Li1144 1.956 . S
O1204 Li1145 1.970 . S
O1204 Li1146 1.961 . S
O1204 C1148 1.325 . S
O1205 Li1144 1.970 . S
O1205 Li1145 1.956 . S
O1205 Li1147 1.961 . S
O1205 C1154 1.325 . S
O1206 Li1144 1.961 . S
O1206 Li1146 1.956 . S
O1206 Li1147 1.970 . S
O1206 C1176 1.325 . S
O1207 Li1145 1.961 . S
O1207 Li1146 1.970 . S
O1207 Li1147 1.956 . S
O1207 C1182 1.325 . S
H1208 C1150 0.929 . S
H1209 C1151 0.930 . S
H1210 C1152 0.930 . S
H1211 C1153 0.930 . S
H1212 C1155 0.930 . S
H1213 C1157 0.929 . S
H1214 C1158 0.930 . S
H1215 C1159 0.930 . S
H1216 C1162 0.930 . S
H1217 C1165 0.929 . S
H1218 C1170 0.929 . S
H1219 C1171 0.930 . S
H1220 C1178 0.929 . S
H1221 C1179 0.930 . S
H1222 C1180 0.930 . S
H1223 C1181 0.930 . S
H1224 C1183 0.929 . S
H1225 C1184 0.930 . S
H1226 C1185 0.930 . S
H1227 C1186 0.930 . S
H1228 C1190 0.929 . S
H1229 C1192 0.930 . S
H1230 C1198 0.929 . S
H1231 C1199 0.930 . S
Li1232 N1249 1.990 . S
Li1232 O1292 1.956 . S
Li1232 O1293 1.970 . S
Li1232 O1294 1.961 . S
Li1233 N1257 1.990 . S
Li1233 O1292 1.970 . S
Li1233 O1293 1.956 . S
Li1233 O1295 1.961 . S
Li1234 N1279 1.990 . S
Li1234 O1292 1.961 . S
Li1234 O1294 1.956 . S
Li1234 O1295 1.970 . S
Li1235 N1285 1.990 . S
Li1235 O1293 1.961 . S
Li1235 O1294 1.970 . S
Li1235 O1295 1.956 . S
C1236 C1238 1.348 . S
C1236 C1239 1.356 . S
C1236 O1292 1.325 . S
N1237 C1240 1.314 . S
N1237 C1241 1.279 . S
C1238 C1236 1.348 . S
C1238 C1240 1.353 . S
C1238 H1296 0.929 . S
C1239 C1236 1.356 . S
C1239 C1241 1.358 . S
C1239 H1297 0.930 . S
C1240 N1237 1.314 . S
C1240 C1238 1.353 . S
C1240 H1298 0.930 . S
C1241 N1237 1.279 . S
C1241 C1239 1.358 . S
C1241 H1299 0.930 . S
C1242 C1245 1.348 . S
C1242 C1246 1.356 . S
C1242 O1293 1.325 . S
C1243 N1244 1.279 . S
C1243 C1246 1.358 . S
C1243 H1300 0.930 . S
N1244 C1243 1.279 . S
N1244 C1247 1.314 . S
C1245 C1242 1.348 . S
C1245 C1247 1.353 . S
C1245 H1301 0.929 . S
C1246 C1242 1.356 . S
C1246 C1243 1.358 . S
C1246 H1302 0.930 . S
C1247 N1244 1.314 . S
C1247 C1245 1.353 . S
C1247 H1303 0.930 . S
C1248 N1249 1.314 . S
C1248 C1253 1.353 . S
C1248 H1254 0.930 . S
N1249 Li1232 1.990 . S
N1249 C1248 1.314 . S
N1249 C1251 1.279 . S
C1250 C1251 1.358 . S
C1250 C1252 1.356 . S
C1250 H1304 0.930 . S
C1251 N1249 1.279 . S
C1251 C1250 1.358 . S
C1251 H1255 0.930 . S
C1252 C1250 1.356 . S
C1252 C1253 1.348 . S
C1253 C1248 1.353 . S
C1253 C1252 1.348 . S
C1253 H1305 0.929 . S
H1254 C1248 0.930 . S
H1255 C1251 0.930 . S
C1256 N1257 1.314 . S
C1256 C1258 1.353 . S
C1256 H1262 0.930 . S
N1257 Li1233 1.990 . S
N1257 C1256 1.314 . S
N1257 C1260 1.279 . S
C1258 C1256 1.353 . S
C1258 C1261 1.348 . S
C1258 H1306 0.929 . S
C1259 C1260 1.358 . S
C1259 C1261 1.356 . S
C1259 H1307 0.930 . S
C1260 N1257 1.279 . S
C1260 C1259 1.358 . S
C1260 H1263 0.930 . S
C1261 C1258 1.348 . S
C1261 C1259 1.356 . S
H1262 C1256 0.930 . S
H1263 C1260 0.930 . S
C1264 C1266 1.348 . S
C1264 C1267 1.356 . S
C1264 O1294 1.325 . S
N1265 C1268 1.314 . S
N1265 C1269 1.279 . S
C1266 C1264 1.348 . S
C1266 C1268 1.353 . S
C1266 H1308 0.929 . S
C1267 C1264 1.356 . S
C1267 C1269 1.358 . S
C1267 H1309 0.930 . S
C1268 N1265 1.314 . S
C1268 C1266 1.353 . S
C1268 H1310 0.930 . S
C1269 N1265 1.279 . S
C1269 C1267 1.358 . S
C1269 H1311 0.930 . S
C1270 C1271 1.348 . S
C1270 C1272 1.356 . S
C1270 O1295 1.325 . S
C1271 C1270 1.348 . S
C1271 C1273 1.353 . S
C1271 H1312 0.929 . S
C1272 C1270 1.356 . S
C1272 C1274 1.358 . S
C1272 H1313 0.930 . S
C1273 C1271 1.353 . S
C1273 N1275 1.314 . S
C1273 H1314 0.930 . S
C1274 C1272 1.358 . S
C1274 N1275 1.279 . S
C1274 H1315 0.930 . S
N1275 C1273 1.314 . S
N1275 C1274 1.279 . S
C1276 C1278 1.353 . S
C1276 N1279 1.314 . S
C1276 H1282 0.930 . S
C1277 N1279 1.279 . S
C1277 C1280 1.358 . S
C1277 H1283 0.930 . S
C1278 C1276 1.353 . S
C1278 C1281 1.348 . S
C1278 H1316 0.929 . S
N1279 Li1234 1.990 . S
N1279 C1276 1.314 . S
N1279 C1277 1.279 . S
C1280 C1277 1.358 . S
C1280 C1281 1.356 . S
C1280 H1317 0.930 . S
C1281 C1278 1.348 . S
C1281 C1280 1.356 . S
H1282 C1276 0.930 . S
H1283 C1277 0.930 . S
C1284 N1285 1.314 . S
C1284 C1286 1.353 . S
C1284 H1290 0.930 . S
N1285 Li1235 1.990 . S
N1285 C1284 1.314 . S
N1285 C1288 1.279 . S
C1286 C1284 1.353 . S
C1286 C1289 1.348 . S
C1286 H1318 0.929 . S
C1287 C1288 1.358 . S
C1287 C1289 1.356 . S
C1287 H1319 0.930 . S
C1288 N1285 1.279 . S
C1288 C1287 1.358 . S
C1288 H1291 0.930 . S
C1289 C1286 1.348 . S
C1289 C1287 1.356 . S
H1290 C1284 0.930 . S
H1291 C1288 0.930 . S
O1292 Li1232 1.956 . S
O1292 Li1233 1.970 . S
O1292 Li1234 1.961 . S
O1292 C1236 1.325 . S
O1293 Li1232 1.970 . S
O1293 Li1233 1.956 . S
O1293 Li1235 1.961 . S
O1293 C1242 1.325 . S
O1294 Li1232 1.961 . S
O1294 Li1234 1.956 . S
O1294 Li1235 1.970 . S
O1294 C1264 1.325 . S
O1295 Li1233 1.961 . S
O1295 Li1234 1.970 . S
O1295 Li1235 1.956 . S
O1295 C1270 1.325 . S
H1296 C1238 0.929 . S
H1297 C1239 0.930 . S
H1298 C1240 0.930 . S
H1299 C1241 0.930 . S
H1300 C1243 0.930 . S
H1301 C1245 0.929 . S
H1302 C1246 0.930 . S
H1303 C1247 0.930 . S
H1304 C1250 0.930 . S
H1305 C1253 0.929 . S
H1306 C1258 0.929 . S
H1307 C1259 0.930 . S
H1308 C1266 0.929 . S
H1309 C1267 0.930 . S
H1310 C1268 0.930 . S
H1311 C1269 0.930 . S
H1312 C1271 0.929 . S
H1313 C1272 0.930 . S
H1314 C1273 0.930 . S
H1315 C1274 0.930 . S
H1316 C1278 0.929 . S
H1317 C1280 0.930 . S
H1318 C1286 0.929 . S
H1319 C1287 0.930 . S
Li1320 N1337 1.990 . S
Li1320 O1380 1.956 . S
Li1320 O1381 1.970 . S
Li1320 O1382 1.961 . S
Li1321 N1345 1.990 . S
Li1321 O1380 1.970 . S
Li1321 O1381 1.956 . S
Li1321 O1383 1.961 . S
Li1322 N1367 1.990 . S
Li1322 O1380 1.961 . S
Li1322 O1382 1.956 . S
Li1322 O1383 1.970 . S
Li1323 N1373 1.990 . S
Li1323 O1381 1.961 . S
Li1323 O1382 1.970 . S
Li1323 O1383 1.956 . S
C1324 C1326 1.348 . S
C1324 C1327 1.356 . S
C1324 O1380 1.325 . S
N1325 C1328 1.314 . S
N1325 C1329 1.279 . S
C1326 C1324 1.348 . S
C1326 C1328 1.353 . S
C1326 H1384 0.929 . S
C1327 C1324 1.356 . S
C1327 C1329 1.358 . S
C1327 H1385 0.930 . S
C1328 N1325 1.314 . S
C1328 C1326 1.353 . S
C1328 H1386 0.930 . S
C1329 N1325 1.279 . S
C1329 C1327 1.358 . S
C1329 H1387 0.930 . S
C1330 C1333 1.348 . S
C1330 C1334 1.356 . S
C1330 O1381 1.325 . S
C1331 N1332 1.279 . S
C1331 C1334 1.358 . S
C1331 H1388 0.930 . S
N1332 C1331 1.279 . S
N1332 C1335 1.314 . S
C1333 C1330 1.348 . S
C1333 C1335 1.353 . S
C1333 H1389 0.929 . S
C1334 C1330 1.356 . S
C1334 C1331 1.358 . S
C1334 H1390 0.930 . S
C1335 N1332 1.314 . S
C1335 C1333 1.353 . S
C1335 H1391 0.930 . S
C1336 N1337 1.314 . S
C1336 C1341 1.353 . S
C1336 H1342 0.930 . S
N1337 Li1320 1.990 . S
N1337 C1336 1.314 . S
N1337 C1339 1.279 . S
C1338 C1339 1.358 . S
C1338 C1340 1.356 . S
C1338 H1392 0.930 . S
C1339 N1337 1.279 . S
C1339 C1338 1.358 . S
C1339 H1343 0.930 . S
C1340 C1338 1.356 . S
C1340 C1341 1.348 . S
C1341 C1336 1.353 . S
C1341 C1340 1.348 . S
C1341 H1393 0.929 . S
H1342 C1336 0.930 . S
H1343 C1339 0.930 . S
C1344 N1345 1.314 . S
C1344 C1346 1.353 . S
C1344 H1350 0.930 . S
N1345 Li1321 1.990 . S
N1345 C1344 1.314 . S
N1345 C1348 1.279 . S
C1346 C1344 1.353 . S
C1346 C1349 1.348 . S
C1346 H1394 0.929 . S
C1347 C1348 1.358 . S
C1347 C1349 1.356 . S
C1347 H1395 0.930 . S
C1348 N1345 1.279 . S
C1348 C1347 1.358 . S
C1348 H1351 0.930 . S
C1349 C1346 1.348 . S
C1349 C1347 1.356 . S
H1350 C1344 0.930 . S
H1351 C1348 0.930 . S
C1352 C1354 1.348 . S
C1352 C1355 1.356 . S
C1352 O1382 1.325 . S
N1353 C1356 1.314 . S
N1353 C1357 1.279 . S
C1354 C1352 1.348 . S
C1354 C1356 1.353 . S
C1354 H1396 0.929 . S
C1355 C1352 1.356 . S
C1355 C1357 1.358 . S
C1355 H1397 0.930 . S
C1356 N1353 1.314 . S
C1356 C1354 1.353 . S
C1356 H1398 0.930 . S
C1357 N1353 1.279 . S
C1357 C1355 1.358 . S
C1357 H1399 0.930 . S
C1358 C1359 1.348 . S
C1358 C1360 1.356 . S
C1358 O1383 1.325 . S
C1359 C1358 1.348 . S
C1359 C1361 1.353 . S
C1359 H1400 0.929 . S
C1360 C1358 1.356 . S
C1360 C1362 1.358 . S
C1360 H1401 0.930 . S
C1361 C1359 1.353 . S
C1361 N1363 1.314 . S
C1361 H1402 0.930 . S
C1362 C1360 1.358 . S
C1362 N1363 1.279 . S
C1362 H1403 0.930 . S
N1363 C1361 1.314 . S
N1363 C1362 1.279 . S
C1364 C1366 1.353 . S
C1364 N1367 1.314 . S
C1364 H1370 0.930 . S
C1365 N1367 1.279 . S
C1365 C1368 1.358 . S
C1365 H1371 0.930 . S
C1366 C1364 1.353 . S
C1366 C1369 1.348 . S
C1366 H1404 0.929 . S
N1367 Li1322 1.990 . S
N1367 C1364 1.314 . S
N1367 C1365 1.279 . S
C1368 C1365 1.358 . S
C1368 C1369 1.356 . S
C1368 H1405 0.930 . S
C1369 C1366 1.348 . S
C1369 C1368 1.356 . S
H1370 C1364 0.930 . S
H1371 C1365 0.930 . S
C1372 N1373 1.314 . S
C1372 C1374 1.353 . S
C1372 H1378 0.930 . S
N1373 Li1323 1.990 . S
N1373 C1372 1.314 . S
N1373 C1376 1.279 . S
C1374 C1372 1.353 . S
C1374 C1377 1.348 . S
C1374 H1406 0.929 . S
C1375 C1376 1.358 . S
C1375 C1377 1.356 . S
C1375 H1407 0.930 . S
C1376 N1373 1.279 . S
C1376 C1375 1.358 . S
C1376 H1379 0.930 . S
C1377 C1374 1.348 . S
C1377 C1375 1.356 . S
H1378 C1372 0.930 . S
H1379 C1376 0.930 . S
O1380 Li1320 1.956 . S
O1380 Li1321 1.970 . S
O1380 Li1322 1.961 . S
O1380 C1324 1.325 . S
O1381 Li1320 1.970 . S
O1381 Li1321 1.956 . S
O1381 Li1323 1.961 . S
O1381 C1330 1.325 . S
O1382 Li1320 1.961 . S
O1382 Li1322 1.956 . S
O1382 Li1323 1.970 . S
O1382 C1352 1.325 . S
O1383 Li1321 1.961 . S
O1383 Li1322 1.970 . S
O1383 Li1323 1.956 . S
O1383 C1358 1.325 . S
H1384 C1326 0.929 . S
H1385 C1327 0.930 . S
H1386 C1328 0.930 . S
H1387 C1329 0.930 . S
H1388 C1331 0.930 . S
H1389 C1333 0.929 . S
H1390 C1334 0.930 . S
H1391 C1335 0.930 . S
H1392 C1338 0.930 . S
H1393 C1341 0.929 . S
H1394 C1346 0.929 . S
H1395 C1347 0.930 . S
H1396 C1354 0.929 . S
H1397 C1355 0.930 . S
H1398 C1356 0.930 . S
H1399 C1357 0.930 . S
H1400 C1359 0.929 . S
H1401 C1360 0.930 . S
H1402 C1361 0.930 . S
H1403 C1362 0.930 . S
H1404 C1366 0.929 . S
H1405 C1368 0.930 . S
H1406 C1374 0.929 . S
H1407 C1375 0.930 . S
Li1408 N1425 1.990 . S
Li1408 O1468 1.956 . S
Li1408 O1469 1.970 . S
Li1408 O1470 1.961 . S
Li1409 N1433 1.990 . S
Li1409 O1468 1.970 . S
Li1409 O1469 1.956 . S
Li1409 O1471 1.961 . S
Li1410 N1455 1.990 . S
Li1410 O1468 1.961 . S
Li1410 O1470 1.956 . S
Li1410 O1471 1.970 . S
Li1411 N1461 1.990 . S
Li1411 O1469 1.961 . S
Li1411 O1470 1.970 . S
Li1411 O1471 1.956 . S
C1412 C1414 1.348 . S
C1412 C1415 1.356 . S
C1412 O1468 1.325 . S
N1413 C1416 1.314 . S
N1413 C1417 1.279 . S
C1414 C1412 1.348 . S
C1414 C1416 1.353 . S
C1414 H1472 0.929 . S
C1415 C1412 1.356 . S
C1415 C1417 1.358 . S
C1415 H1473 0.930 . S
C1416 N1413 1.314 . S
C1416 C1414 1.353 . S
C1416 H1474 0.930 . S
C1417 N1413 1.279 . S
C1417 C1415 1.358 . S
C1417 H1475 0.930 . S
C1418 C1421 1.348 . S
C1418 C1422 1.356 . S
C1418 O1469 1.325 . S
C1419 N1420 1.279 . S
C1419 C1422 1.358 . S
C1419 H1476 0.930 . S
N1420 C1419 1.279 . S
N1420 C1423 1.314 . S
C1421 C1418 1.348 . S
C1421 C1423 1.353 . S
C1421 H1477 0.929 . S
C1422 C1418 1.356 . S
C1422 C1419 1.358 . S
C1422 H1478 0.930 . S
C1423 N1420 1.314 . S
C1423 C1421 1.353 . S
C1423 H1479 0.930 . S
C1424 N1425 1.314 . S
C1424 C1429 1.353 . S
C1424 H1430 0.930 . S
N1425 Li1408 1.990 . S
N1425 C1424 1.314 . S
N1425 C1427 1.279 . S
C1426 C1427 1.358 . S
C1426 C1428 1.356 . S
C1426 H1480 0.930 . S
C1427 N1425 1.279 . S
C1427 C1426 1.358 . S
C1427 H1431 0.930 . S
C1428 C1426 1.356 . S
C1428 C1429 1.348 . S
C1429 C1424 1.353 . S
C1429 C1428 1.348 . S
C1429 H1481 0.929 . S
H1430 C1424 0.930 . S
H1431 C1427 0.930 . S
C1432 N1433 1.314 . S
C1432 C1434 1.353 . S
C1432 H1438 0.930 . S
N1433 Li1409 1.990 . S
N1433 C1432 1.314 . S
N1433 C1436 1.279 . S
C1434 C1432 1.353 . S
C1434 C1437 1.348 . S
C1434 H1482 0.929 . S
C1435 C1436 1.358 . S
C1435 C1437 1.356 . S
C1435 H1483 0.930 . S
C1436 N1433 1.279 . S
C1436 C1435 1.358 . S
C1436 H1439 0.930 . S
C1437 C1434 1.348 . S
C1437 C1435 1.356 . S
H1438 C1432 0.930 . S
H1439 C1436 0.930 . S
C1440 C1442 1.348 . S
C1440 C1443 1.356 . S
C1440 O1470 1.325 . S
N1441 C1444 1.314 . S
N1441 C1445 1.279 . S
C1442 C1440 1.348 . S
C1442 C1444 1.353 . S
C1442 H1484 0.929 . S
C1443 C1440 1.356 . S
C1443 C1445 1.358 . S
C1443 H1485 0.930 . S
C1444 N1441 1.314 . S
C1444 C1442 1.353 . S
C1444 H1486 0.930 . S
C1445 N1441 1.279 . S
C1445 C1443 1.358 . S
C1445 H1487 0.930 . S
C1446 C1447 1.348 . S
C1446 C1448 1.356 . S
C1446 O1471 1.325 . S
C1447 C1446 1.348 . S
C1447 C1449 1.353 . S
C1447 H1488 0.929 . S
C1448 C1446 1.356 . S
C1448 C1450 1.358 . S
C1448 H1489 0.930 . S
C1449 C1447 1.353 . S
C1449 N1451 1.314 . S
C1449 H1490 0.930 . S
C1450 C1448 1.358 . S
C1450 N1451 1.279 . S
C1450 H1491 0.930 . S
N1451 C1449 1.314 . S
N1451 C1450 1.279 . S
C1452 C1454 1.353 . S
C1452 N1455 1.314 . S
C1452 H1458 0.930 . S
C1453 N1455 1.279 . S
C1453 C1456 1.358 . S
C1453 H1459 0.930 . S
C1454 C1452 1.353 . S
C1454 C1457 1.348 . S
C1454 H1492 0.929 . S
N1455 Li1410 1.990 . S
N1455 C1452 1.314 . S
N1455 C1453 1.279 . S
C1456 C1453 1.358 . S
C1456 C1457 1.356 . S
C1456 H1493 0.930 . S
C1457 C1454 1.348 . S
C1457 C1456 1.356 . S
H1458 C1452 0.930 . S
H1459 C1453 0.930 . S
C1460 N1461 1.314 . S
C1460 C1462 1.353 . S
C1460 H1466 0.930 . S
N1461 Li1411 1.990 . S
N1461 C1460 1.314 . S
N1461 C1464 1.279 . S
C1462 C1460 1.353 . S
C1462 C1465 1.348 . S
C1462 H1494 0.929 . S
C1463 C1464 1.358 . S
C1463 C1465 1.356 . S
C1463 H1495 0.930 . S
C1464 N1461 1.279 . S
C1464 C1463 1.358 . S
C1464 H1467 0.930 . S
C1465 C1462 1.348 . S
C1465 C1463 1.356 . S
H1466 C1460 0.930 . S
H1467 C1464 0.930 . S
O1468 Li1408 1.956 . S
O1468 Li1409 1.970 . S
O1468 Li1410 1.961 . S
O1468 C1412 1.325 . S
O1469 Li1408 1.970 . S
O1469 Li1409 1.956 . S
O1469 Li1411 1.961 . S
O1469 C1418 1.325 . S
O1470 Li1408 1.961 . S
O1470 Li1410 1.956 . S
O1470 Li1411 1.970 . S
O1470 C1440 1.325 . S
O1471 Li1409 1.961 . S
O1471 Li1410 1.970 . S
O1471 Li1411 1.956 . S
O1471 C1446 1.325 . S
H1472 C1414 0.929 . S
H1473 C1415 0.930 . S
H1474 C1416 0.930 . S
H1475 C1417 0.930 . S
H1476 C1419 0.930 . S
H1477 C1421 0.929 . S
H1478 C1422 0.930 . S
H1479 C1423 0.930 . S
H1480 C1426 0.930 . S
H1481 C1429 0.929 . S
H1482 C1434 0.929 . S
H1483 C1435 0.930 . S
H1484 C1442 0.929 . S
H1485 C1443 0.930 . S
H1486 C1444 0.930 . S
H1487 C1445 0.930 . S
H1488 C1447 0.929 . S
H1489 C1448 0.930 . S
H1490 C1449 0.930 . S
H1491 C1450 0.930 . S
H1492 C1454 0.929 . S
H1493 C1456 0.930 . S
H1494 C1462 0.929 . S
H1495 C1463 0.930 . S
Li1496 N1513 1.990 . S
Li1496 O1556 1.956 . S
Li1496 O1557 1.970 . S
Li1496 O1558 1.961 . S
Li1497 N1521 1.990 . S
Li1497 O1556 1.970 . S
Li1497 O1557 1.956 . S
Li1497 O1559 1.961 . S
Li1498 N1543 1.990 . S
Li1498 O1556 1.961 . S
Li1498 O1558 1.956 . S
Li1498 O1559 1.970 . S
Li1499 N1549 1.990 . S
Li1499 O1557 1.961 . S
Li1499 O1558 1.970 . S
Li1499 O1559 1.956 . S
C1500 C1502 1.348 . S
C1500 C1503 1.356 . S
C1500 O1556 1.325 . S
N1501 C1504 1.314 . S
N1501 C1505 1.279 . S
C1502 C1500 1.348 . S
C1502 C1504 1.353 . S
C1502 H1560 0.929 . S
C1503 C1500 1.356 . S
C1503 C1505 1.358 . S
C1503 H1561 0.930 . S
C1504 N1501 1.314 . S
C1504 C1502 1.353 . S
C1504 H1562 0.930 . S
C1505 N1501 1.279 . S
C1505 C1503 1.358 . S
C1505 H1563 0.930 . S
C1506 C1509 1.348 . S
C1506 C1510 1.356 . S
C1506 O1557 1.325 . S
C1507 N1508 1.279 . S
C1507 C1510 1.358 . S
C1507 H1564 0.930 . S
N1508 C1507 1.279 . S
N1508 C1511 1.314 . S
C1509 C1506 1.348 . S
C1509 C1511 1.353 . S
C1509 H1565 0.929 . S
C1510 C1506 1.356 . S
C1510 C1507 1.358 . S
C1510 H1566 0.930 . S
C1511 N1508 1.314 . S
C1511 C1509 1.353 . S
C1511 H1567 0.930 . S
C1512 N1513 1.314 . S
C1512 C1517 1.353 . S
C1512 H1518 0.930 . S
N1513 Li1496 1.990 . S
N1513 C1512 1.314 . S
N1513 C1515 1.279 . S
C1514 C1515 1.358 . S
C1514 C1516 1.356 . S
C1514 H1568 0.930 . S
C1515 N1513 1.279 . S
C1515 C1514 1.358 . S
C1515 H1519 0.930 . S
C1516 C1514 1.356 . S
C1516 C1517 1.348 . S
C1517 C1512 1.353 . S
C1517 C1516 1.348 . S
C1517 H1569 0.929 . S
H1518 C1512 0.930 . S
H1519 C1515 0.930 . S
C1520 N1521 1.314 . S
C1520 C1522 1.353 . S
C1520 H1526 0.930 . S
N1521 Li1497 1.990 . S
N1521 C1520 1.314 . S
N1521 C1524 1.279 . S
C1522 C1520 1.353 . S
C1522 C1525 1.348 . S
C1522 H1570 0.929 . S
C1523 C1524 1.358 . S
C1523 C1525 1.356 . S
C1523 H1571 0.930 . S
C1524 N1521 1.279 . S
C1524 C1523 1.358 . S
C1524 H1527 0.930 . S
C1525 C1522 1.348 . S
C1525 C1523 1.356 . S
H1526 C1520 0.930 . S
H1527 C1524 0.930 . S
C1528 C1530 1.348 . S
C1528 C1531 1.356 . S
C1528 O1558 1.325 . S
N1529 C1532 1.314 . S
N1529 C1533 1.279 . S
C1530 C1528 1.348 . S
C1530 C1532 1.353 . S
C1530 H1572 0.929 . S
C1531 C1528 1.356 . S
C1531 C1533 1.358 . S
C1531 H1573 0.930 . S
C1532 N1529 1.314 . S
C1532 C1530 1.353 . S
C1532 H1574 0.930 . S
C1533 N1529 1.279 . S
C1533 C1531 1.358 . S
C1533 H1575 0.930 . S
C1534 C1535 1.348 . S
C1534 C1536 1.356 . S
C1534 O1559 1.325 . S
C1535 C1534 1.348 . S
C1535 C1537 1.353 . S
C1535 H1576 0.929 . S
C1536 C1534 1.356 . S
C1536 C1538 1.358 . S
C1536 H1577 0.930 . S
C1537 C1535 1.353 . S
C1537 N1539 1.314 . S
C1537 H1578 0.930 . S
C1538 C1536 1.358 . S
C1538 N1539 1.279 . S
C1538 H1579 0.930 . S
N1539 C1537 1.314 . S
N1539 C1538 1.279 . S
C1540 C1542 1.353 . S
C1540 N1543 1.314 . S
C1540 H1546 0.930 . S
C1541 N1543 1.279 . S
C1541 C1544 1.358 . S
C1541 H1547 0.930 . S
C1542 C1540 1.353 . S
C1542 C1545 1.348 . S
C1542 H1580 0.929 . S
N1543 Li1498 1.990 . S
N1543 C1540 1.314 . S
N1543 C1541 1.279 . S
C1544 C1541 1.358 . S
C1544 C1545 1.356 . S
C1544 H1581 0.930 . S
C1545 C1542 1.348 . S
C1545 C1544 1.356 . S
H1546 C1540 0.930 . S
H1547 C1541 0.930 . S
C1548 N1549 1.314 . S
C1548 C1550 1.353 . S
C1548 H1554 0.930 . S
N1549 Li1499 1.990 . S
N1549 C1548 1.314 . S
N1549 C1552 1.279 . S
C1550 C1548 1.353 . S
C1550 C1553 1.348 . S
C1550 H1582 0.929 . S
C1551 C1552 1.358 . S
C1551 C1553 1.356 . S
C1551 H1583 0.930 . S
C1552 N1549 1.279 . S
C1552 C1551 1.358 . S
C1552 H1555 0.930 . S
C1553 C1550 1.348 . S
C1553 C1551 1.356 . S
H1554 C1548 0.930 . S
H1555 C1552 0.930 . S
O1556 Li1496 1.956 . S
O1556 Li1497 1.970 . S
O1556 Li1498 1.961 . S
O1556 C1500 1.325 . S
O1557 Li1496 1.970 . S
O1557 Li1497 1.956 . S
O1557 Li1499 1.961 . S
O1557 C1506 1.325 . S
O1558 Li1496 1.961 . S
O1558 Li1498 1.956 . S
O1558 Li1499 1.970 . S
O1558 C1528 1.325 . S
O1559 Li1497 1.961 . S
O1559 Li1498 1.970 . S
O1559 Li1499 1.956 . S
O1559 C1534 1.325 . S
H1560 C1502 0.929 . S
H1561 C1503 0.930 . S
H1562 C1504 0.930 . S
H1563 C1505 0.930 . S
H1564 C1507 0.930 . S
H1565 C1509 0.929 . S
H1566 C1510 0.930 . S
H1567 C1511 0.930 . S
H1568 C1514 0.930 . S
H1569 C1517 0.929 . S
H1570 C1522 0.929 . S
H1571 C1523 0.930 . S
H1572 C1530 0.929 . S
H1573 C1531 0.930 . S
H1574 C1532 0.930 . S
H1575 C1533 0.930 . S
H1576 C1535 0.929 . S
H1577 C1536 0.930 . S
H1578 C1537 0.930 . S
H1579 C1538 0.930 . S
H1580 C1542 0.929 . S
H1581 C1544 0.930 . S
H1582 C1550 0.929 . S
H1583 C1551 0.930 . S
Li1584 N1601 1.990 . S
Li1584 O1644 1.956 . S
Li1584 O1645 1.970 . S
Li1584 O1646 1.961 . S
Li1585 N1609 1.990 . S
Li1585 O1644 1.970 . S
Li1585 O1645 1.956 . S
Li1585 O1647 1.961 . S
Li1586 N1631 1.990 . S
Li1586 O1644 1.961 . S
Li1586 O1646 1.956 . S
Li1586 O1647 1.970 . S
Li1587 N1637 1.990 . S
Li1587 O1645 1.961 . S
Li1587 O1646 1.970 . S
Li1587 O1647 1.956 . S
C1588 C1590 1.348 . S
C1588 C1591 1.356 . S
C1588 O1644 1.325 . S
N1589 C1592 1.314 . S
N1589 C1593 1.279 . S
C1590 C1588 1.348 . S
C1590 C1592 1.353 . S
C1590 H1648 0.929 . S
C1591 C1588 1.356 . S
C1591 C1593 1.358 . S
C1591 H1649 0.930 . S
C1592 N1589 1.314 . S
C1592 C1590 1.353 . S
C1592 H1650 0.930 . S
C1593 N1589 1.279 . S
C1593 C1591 1.358 . S
C1593 H1651 0.930 . S
C1594 C1597 1.348 . S
C1594 C1598 1.356 . S
C1594 O1645 1.325 . S
C1595 N1596 1.279 . S
C1595 C1598 1.358 . S
C1595 H1652 0.930 . S
N1596 C1595 1.279 . S
N1596 C1599 1.314 . S
C1597 C1594 1.348 . S
C1597 C1599 1.353 . S
C1597 H1653 0.929 . S
C1598 C1594 1.356 . S
C1598 C1595 1.358 . S
C1598 H1654 0.930 . S
C1599 N1596 1.314 . S
C1599 C1597 1.353 . S
C1599 H1655 0.930 . S
C1600 N1601 1.314 . S
C1600 C1605 1.353 . S
C1600 H1606 0.930 . S
N1601 Li1584 1.990 . S
N1601 C1600 1.314 . S
N1601 C1603 1.279 . S
C1602 C1603 1.358 . S
C1602 C1604 1.356 . S
C1602 H1656 0.930 . S
C1603 N1601 1.279 . S
C1603 C1602 1.358 . S
C1603 H1607 0.930 . S
C1604 C1602 1.356 . S
C1604 C1605 1.348 . S
C1605 C1600 1.353 . S
C1605 C1604 1.348 . S
C1605 H1657 0.929 . S
H1606 C1600 0.930 . S
H1607 C1603 0.930 . S
C1608 N1609 1.314 . S
C1608 C1610 1.353 . S
C1608 H1614 0.930 . S
N1609 Li1585 1.990 . S
N1609 C1608 1.314 . S
N1609 C1612 1.279 . S
C1610 C1608 1.353 . S
C1610 C1613 1.348 . S
C1610 H1658 0.929 . S
C1611 C1612 1.358 . S
C1611 C1613 1.356 . S
C1611 H1659 0.930 . S
C1612 N1609 1.279 . S
C1612 C1611 1.358 . S
C1612 H1615 0.930 . S
C1613 C1610 1.348 . S
C1613 C1611 1.356 . S
H1614 C1608 0.930 . S
H1615 C1612 0.930 . S
C1616 C1618 1.348 . S
C1616 C1619 1.356 . S
C1616 O1646 1.325 . S
N1617 C1620 1.314 . S
N1617 C1621 1.279 . S
C1618 C1616 1.348 . S
C1618 C1620 1.353 . S
C1618 H1660 0.929 . S
C1619 C1616 1.356 . S
C1619 C1621 1.358 . S
C1619 H1661 0.930 . S
C1620 N1617 1.314 . S
C1620 C1618 1.353 . S
C1620 H1662 0.930 . S
C1621 N1617 1.279 . S
C1621 C1619 1.358 . S
C1621 H1663 0.930 . S
C1622 C1623 1.348 . S
C1622 C1624 1.356 . S
C1622 O1647 1.325 . S
C1623 C1622 1.348 . S
C1623 C1625 1.353 . S
C1623 H1664 0.929 . S
C1624 C1622 1.356 . S
C1624 C1626 1.358 . S
C1624 H1665 0.930 . S
C1625 C1623 1.353 . S
C1625 N1627 1.314 . S
C1625 H1666 0.930 . S
C1626 C1624 1.358 . S
C1626 N1627 1.279 . S
C1626 H1667 0.930 . S
N1627 C1625 1.314 . S
N1627 C1626 1.279 . S
C1628 C1630 1.353 . S
C1628 N1631 1.314 . S
C1628 H1634 0.930 . S
C1629 N1631 1.279 . S
C1629 C1632 1.358 . S
C1629 H1635 0.930 . S
C1630 C1628 1.353 . S
C1630 C1633 1.348 . S
C1630 H1668 0.929 . S
N1631 Li1586 1.990 . S
N1631 C1628 1.314 . S
N1631 C1629 1.279 . S
C1632 C1629 1.358 . S
C1632 C1633 1.356 . S
C1632 H1669 0.930 . S
C1633 C1630 1.348 . S
C1633 C1632 1.356 . S
H1634 C1628 0.930 . S
H1635 C1629 0.930 . S
C1636 N1637 1.314 . S
C1636 C1638 1.353 . S
C1636 H1642 0.930 . S
N1637 Li1587 1.990 . S
N1637 C1636 1.314 . S
N1637 C1640 1.279 . S
C1638 C1636 1.353 . S
C1638 C1641 1.348 . S
C1638 H1670 0.929 . S
C1639 C1640 1.358 . S
C1639 C1641 1.356 . S
C1639 H1671 0.930 . S
C1640 N1637 1.279 . S
C1640 C1639 1.358 . S
C1640 H1643 0.930 . S
C1641 C1638 1.348 . S
C1641 C1639 1.356 . S
H1642 C1636 0.930 . S
H1643 C1640 0.930 . S
O1644 Li1584 1.956 . S
O1644 Li1585 1.970 . S
O1644 Li1586 1.961 . S
O1644 C1588 1.325 . S
O1645 Li1584 1.970 . S
O1645 Li1585 1.956 . S
O1645 Li1587 1.961 . S
O1645 C1594 1.325 . S
O1646 Li1584 1.961 . S
O1646 Li1586 1.956 . S
O1646 Li1587 1.970 . S
O1646 C1616 1.325 . S
O1647 Li1585 1.961 . S
O1647 Li1586 1.970 . S
O1647 Li1587 1.956 . S
O1647 C1622 1.325 . S
H1648 C1590 0.929 . S
H1649 C1591 0.930 . S
H1650 C1592 0.930 . S
H1651 C1593 0.930 . S
H1652 C1595 0.930 . S
H1653 C1597 0.929 . S
H1654 C1598 0.930 . S
H1655 C1599 0.930 . S
H1656 C1602 0.930 . S
H1657 C1605 0.929 . S
H1658 C1610 0.929 . S
H1659 C1611 0.930 . S
H1660 C1618 0.929 . S
H1661 C1619 0.930 . S
H1662 C1620 0.930 . S
H1663 C1621 0.930 . S
H1664 C1623 0.929 . S
H1665 C1624 0.930 . S
H1666 C1625 0.930 . S
H1667 C1626 0.930 . S
H1668 C1630 0.929 . S
H1669 C1632 0.930 . S
H1670 C1638 0.929 . S
H1671 C1639 0.930 . S
Li1672 N1689 1.990 . S
Li1672 O1732 1.956 . S
Li1672 O1733 1.970 . S
Li1672 O1734 1.961 . S
Li1673 N1697 1.990 . S
Li1673 O1732 1.970 . S
Li1673 O1733 1.956 . S
Li1673 O1735 1.961 . S
Li1674 N1719 1.990 . S
Li1674 O1732 1.961 . S
Li1674 O1734 1.956 . S
Li1674 O1735 1.970 . S
Li1675 N1725 1.990 . S
Li1675 O1733 1.961 . S
Li1675 O1734 1.970 . S
Li1675 O1735 1.956 . S
C1676 C1678 1.348 . S
C1676 C1679 1.356 . S
C1676 O1732 1.325 . S
N1677 C1680 1.314 . S
N1677 C1681 1.279 . S
C1678 C1676 1.348 . S
C1678 C1680 1.353 . S
C1678 H1736 0.929 . S
C1679 C1676 1.356 . S
C1679 C1681 1.358 . S
C1679 H1737 0.930 . S
C1680 N1677 1.314 . S
C1680 C1678 1.353 . S
C1680 H1738 0.930 . S
C1681 N1677 1.279 . S
C1681 C1679 1.358 . S
C1681 H1739 0.930 . S
C1682 C1685 1.348 . S
C1682 C1686 1.356 . S
C1682 O1733 1.325 . S
C1683 N1684 1.279 . S
C1683 C1686 1.358 . S
C1683 H1740 0.930 . S
N1684 C1683 1.279 . S
N1684 C1687 1.314 . S
C1685 C1682 1.348 . S
C1685 C1687 1.353 . S
C1685 H1741 0.929 . S
C1686 C1682 1.356 . S
C1686 C1683 1.358 . S
C1686 H1742 0.930 . S
C1687 N1684 1.314 . S
C1687 C1685 1.353 . S
C1687 H1743 0.930 . S
C1688 N1689 1.314 . S
C1688 C1693 1.353 . S
C1688 H1694 0.930 . S
N1689 Li1672 1.990 . S
N1689 C1688 1.314 . S
N1689 C1691 1.279 . S
C1690 C1691 1.358 . S
C1690 C1692 1.356 . S
C1690 H1744 0.930 . S
C1691 N1689 1.279 . S
C1691 C1690 1.358 . S
C1691 H1695 0.930 . S
C1692 C1690 1.356 . S
C1692 C1693 1.348 . S
C1693 C1688 1.353 . S
C1693 C1692 1.348 . S
C1693 H1745 0.929 . S
H1694 C1688 0.930 . S
H1695 C1691 0.930 . S
C1696 N1697 1.314 . S
C1696 C1698 1.353 . S
C1696 H1702 0.930 . S
N1697 Li1673 1.990 . S
N1697 C1696 1.314 . S
N1697 C1700 1.279 . S
C1698 C1696 1.353 . S
C1698 C1701 1.348 . S
C1698 H1746 0.929 . S
C1699 C1700 1.358 . S
C1699 C1701 1.356 . S
C1699 H1747 0.930 . S
C1700 N1697 1.279 . S
C1700 C1699 1.358 . S
C1700 H1703 0.930 . S
C1701 C1698 1.348 . S
C1701 C1699 1.356 . S
H1702 C1696 0.930 . S
H1703 C1700 0.930 . S
C1704 C1706 1.348 . S
C1704 C1707 1.356 . S
C1704 O1734 1.325 . S
N1705 C1708 1.314 . S
N1705 C1709 1.279 . S
C1706 C1704 1.348 . S
C1706 C1708 1.353 . S
C1706 H1748 0.929 . S
C1707 C1704 1.356 . S
C1707 C1709 1.358 . S
C1707 H1749 0.930 . S
C1708 N1705 1.314 . S
C1708 C1706 1.353 . S
C1708 H1750 0.930 . S
C1709 N1705 1.279 . S
C1709 C1707 1.358 . S
C1709 H1751 0.930 . S
C1710 C1711 1.348 . S
C1710 C1712 1.356 . S
C1710 O1735 1.325 . S
C1711 C1710 1.348 . S
C1711 C1713 1.353 . S
C1711 H1752 0.929 . S
C1712 C1710 1.356 . S
C1712 C1714 1.358 . S
C1712 H1753 0.930 . S
C1713 C1711 1.353 . S
C1713 N1715 1.314 . S
C1713 H1754 0.930 . S
C1714 C1712 1.358 . S
C1714 N1715 1.279 . S
C1714 H1755 0.930 . S
N1715 C1713 1.314 . S
N1715 C1714 1.279 . S
C1716 C1718 1.353 . S
C1716 N1719 1.314 . S
C1716 H1722 0.930 . S
C1717 N1719 1.279 . S
C1717 C1720 1.358 . S
C1717 H1723 0.930 . S
C1718 C1716 1.353 . S
C1718 C1721 1.348 . S
C1718 H1756 0.929 . S
N1719 Li1674 1.990 . S
N1719 C1716 1.314 . S
N1719 C1717 1.279 . S
C1720 C1717 1.358 . S
C1720 C1721 1.356 . S
C1720 H1757 0.930 . S
C1721 C1718 1.348 . S
C1721 C1720 1.356 . S
H1722 C1716 0.930 . S
H1723 C1717 0.930 . S
C1724 N1725 1.314 . S
C1724 C1726 1.353 . S
C1724 H1730 0.930 . S
N1725 Li1675 1.990 . S
N1725 C1724 1.314 . S
N1725 C1728 1.279 . S
C1726 C1724 1.353 . S
C1726 C1729 1.348 . S
C1726 H1758 0.929 . S
C1727 C1728 1.358 . S
C1727 C1729 1.356 . S
C1727 H1759 0.930 . S
C1728 N1725 1.279 . S
C1728 C1727 1.358 . S
C1728 H1731 0.930 . S
C1729 C1726 1.348 . S
C1729 C1727 1.356 . S
H1730 C1724 0.930 . S
H1731 C1728 0.930 . S
O1732 Li1672 1.956 . S
O1732 Li1673 1.970 . S
O1732 Li1674 1.961 . S
O1732 C1676 1.325 . S
O1733 Li1672 1.970 . S
O1733 Li1673 1.956 . S
O1733 Li1675 1.961 . S
O1733 C1682 1.325 . S
O1734 Li1672 1.961 . S
O1734 Li1674 1.956 . S
O1734 Li1675 1.970 . S
O1734 C1704 1.325 . S
O1735 Li1673 1.961 . S
O1735 Li1674 1.970 . S
O1735 Li1675 1.956 . S
O1735 C1710 1.325 . S
H1736 C1678 0.929 . S
H1737 C1679 0.930 . S
H1738 C1680 0.930 . S
H1739 C1681 0.930 . S
H1740 C1683 0.930 . S
H1741 C1685 0.929 . S
H1742 C1686 0.930 . S
H1743 C1687 0.930 . S
H1744 C1690 0.930 . S
H1745 C1693 0.929 . S
H1746 C1698 0.929 . S
H1747 C1699 0.930 . S
H1748 C1706 0.929 . S
H1749 C1707 0.930 . S
H1750 C1708 0.930 . S
H1751 C1709 0.930 . S
H1752 C1711 0.929 . S
H1753 C1712 0.930 . S
H1754 C1713 0.930 . S
H1755 C1714 0.930 . S
H1756 C1718 0.929 . S
H1757 C1720 0.930 . S
H1758 C1726 0.929 . S
H1759 C1727 0.930 . S
Li1760 N1777 1.990 . S
Li1760 O1820 1.956 . S
Li1760 O1821 1.970 . S
Li1760 O1822 1.961 . S
Li1761 N1785 1.990 . S
Li1761 O1820 1.970 . S
Li1761 O1821 1.956 . S
Li1761 O1823 1.961 . S
Li1762 N1807 1.990 . S
Li1762 O1820 1.961 . S
Li1762 O1822 1.956 . S
Li1762 O1823 1.970 . S
Li1763 N1813 1.990 . S
Li1763 O1821 1.961 . S
Li1763 O1822 1.970 . S
Li1763 O1823 1.956 . S
C1764 C1766 1.348 . S
C1764 C1767 1.356 . S
C1764 O1820 1.325 . S
N1765 C1768 1.314 . S
N1765 C1769 1.279 . S
C1766 C1764 1.348 . S
C1766 C1768 1.353 . S
C1766 H1824 0.929 . S
C1767 C1764 1.356 . S
C1767 C1769 1.358 . S
C1767 H1825 0.930 . S
C1768 N1765 1.314 . S
C1768 C1766 1.353 . S
C1768 H1826 0.930 . S
C1769 N1765 1.279 . S
C1769 C1767 1.358 . S
C1769 H1827 0.930 . S
C1770 C1773 1.348 . S
C1770 C1774 1.356 . S
C1770 O1821 1.325 . S
C1771 N1772 1.279 . S
C1771 C1774 1.358 . S
C1771 H1828 0.930 . S
N1772 C1771 1.279 . S
N1772 C1775 1.314 . S
C1773 C1770 1.348 . S
C1773 C1775 1.353 . S
C1773 H1829 0.929 . S
C1774 C1770 1.356 . S
C1774 C1771 1.358 . S
C1774 H1830 0.930 . S
C1775 N1772 1.314 . S
C1775 C1773 1.353 . S
C1775 H1831 0.930 . S
C1776 N1777 1.314 . S
C1776 C1781 1.353 . S
C1776 H1782 0.930 . S
N1777 Li1760 1.990 . S
N1777 C1776 1.314 . S
N1777 C1779 1.279 . S
C1778 C1779 1.358 . S
C1778 C1780 1.356 . S
C1778 H1832 0.930 . S
C1779 N1777 1.279 . S
C1779 C1778 1.358 . S
C1779 H1783 0.930 . S
C1780 C1778 1.356 . S
C1780 C1781 1.348 . S
C1781 C1776 1.353 . S
C1781 C1780 1.348 . S
C1781 H1833 0.929 . S
H1782 C1776 0.930 . S
H1783 C1779 0.930 . S
C1784 N1785 1.314 . S
C1784 C1786 1.353 . S
C1784 H1790 0.930 . S
N1785 Li1761 1.990 . S
N1785 C1784 1.314 . S
N1785 C1788 1.279 . S
C1786 C1784 1.353 . S
C1786 C1789 1.348 . S
C1786 H1834 0.929 . S
C1787 C1788 1.358 . S
C1787 C1789 1.356 . S
C1787 H1835 0.930 . S
C1788 N1785 1.279 . S
C1788 C1787 1.358 . S
C1788 H1791 0.930 . S
C1789 C1786 1.348 . S
C1789 C1787 1.356 . S
H1790 C1784 0.930 . S
H1791 C1788 0.930 . S
C1792 C1794 1.348 . S
C1792 C1795 1.356 . S
C1792 O1822 1.325 . S
N1793 C1796 1.314 . S
N1793 C1797 1.279 . S
C1794 C1792 1.348 . S
C1794 C1796 1.353 . S
C1794 H1836 0.929 . S
C1795 C1792 1.356 . S
C1795 C1797 1.358 . S
C1795 H1837 0.930 . S
C1796 N1793 1.314 . S
C1796 C1794 1.353 . S
C1796 H1838 0.930 . S
C1797 N1793 1.279 . S
C1797 C1795 1.358 . S
C1797 H1839 0.930 . S
C1798 C1799 1.348 . S
C1798 C1800 1.356 . S
C1798 O1823 1.325 . S
C1799 C1798 1.348 . S
C1799 C1801 1.353 . S
C1799 H1840 0.929 . S
C1800 C1798 1.356 . S
C1800 C1802 1.358 . S
C1800 H1841 0.930 . S
C1801 C1799 1.353 . S
C1801 N1803 1.314 . S
C1801 H1842 0.930 . S
C1802 C1800 1.358 . S
C1802 N1803 1.279 . S
C1802 H1843 0.930 . S
N1803 C1801 1.314 . S
N1803 C1802 1.279 . S
C1804 C1806 1.353 . S
C1804 N1807 1.314 . S
C1804 H1810 0.930 . S
C1805 N1807 1.279 . S
C1805 C1808 1.358 . S
C1805 H1811 0.930 . S
C1806 C1804 1.353 . S
C1806 C1809 1.348 . S
C1806 H1844 0.929 . S
N1807 Li1762 1.990 . S
N1807 C1804 1.314 . S
N1807 C1805 1.279 . S
C1808 C1805 1.358 . S
C1808 C1809 1.356 . S
C1808 H1845 0.930 . S
C1809 C1806 1.348 . S
C1809 C1808 1.356 . S
H1810 C1804 0.930 . S
H1811 C1805 0.930 . S
C1812 N1813 1.314 . S
C1812 C1814 1.353 . S
C1812 H1818 0.930 . S
N1813 Li1763 1.990 . S
N1813 C1812 1.314 . S
N1813 C1816 1.279 . S
C1814 C1812 1.353 . S
C1814 C1817 1.348 . S
C1814 H1846 0.929 . S
C1815 C1816 1.358 . S
C1815 C1817 1.356 . S
C1815 H1847 0.930 . S
C1816 N1813 1.279 . S
C1816 C1815 1.358 . S
C1816 H1819 0.930 . S
C1817 C1814 1.348 . S
C1817 C1815 1.356 . S
H1818 C1812 0.930 . S
H1819 C1816 0.930 . S
O1820 Li1760 1.956 . S
O1820 Li1761 1.970 . S
O1820 Li1762 1.961 . S
O1820 C1764 1.325 . S
O1821 Li1760 1.970 . S
O1821 Li1761 1.956 . S
O1821 Li1763 1.961 . S
O1821 C1770 1.325 . S
O1822 Li1760 1.961 . S
O1822 Li1762 1.956 . S
O1822 Li1763 1.970 . S
O1822 C1792 1.325 . S
O1823 Li1761 1.961 . S
O1823 Li1762 1.970 . S
O1823 Li1763 1.956 . S
O1823 C1798 1.325 . S
H1824 C1766 0.929 . S
H1825 C1767 0.930 . S
H1826 C1768 0.930 . S
H1827 C1769 0.930 . S
H1828 C1771 0.930 . S
H1829 C1773 0.929 . S
H1830 C1774 0.930 . S
H1831 C1775 0.930 . S
H1832 C1778 0.930 . S
H1833 C1781 0.929 . S
H1834 C1786 0.929 . S
H1835 C1787 0.930 . S
H1836 C1794 0.929 . S
H1837 C1795 0.930 . S
H1838 C1796 0.930 . S
H1839 C1797 0.930 . S
H1840 C1799 0.929 . S
H1841 C1800 0.930 . S
H1842 C1801 0.930 . S
H1843 C1802 0.930 . S
H1844 C1806 0.929 . S
H1845 C1808 0.930 . S
H1846 C1814 0.929 . S
H1847 C1815 0.930 . S
Li1848 N1865 1.990 1_556 S
Li1848 O1908 1.956 . S
Li1848 O1909 1.970 . S
Li1848 O1910 1.961 . S
Li1849 N1873 1.990 . S
Li1849 O1908 1.970 . S
Li1849 O1909 1.956 . S
Li1849 O1911 1.961 . S
Li1850 N1895 1.990 . S
Li1850 O1908 1.961 . S
Li1850 O1910 1.956 . S
Li1850 O1911 1.970 . S
Li1851 N1901 1.990 . S
Li1851 O1909 1.961 . S
Li1851 O1910 1.970 . S
Li1851 O1911 1.956 . S
C1852 C1854 1.361 . S
C1852 C1855 1.356 . S
C1852 O1908 1.325 . S
N1853 C1856 1.314 . S
N1853 C1857 1.279 . S
C1854 C1852 1.361 . S
C1854 C1856 1.335 1_556 S
C1854 H1912 0.935 . S
C1855 C1852 1.356 . S
C1855 C1857 1.358 1_556 S
C1855 H1913 0.930 . S
C1856 N1853 1.314 . S
C1856 C1854 1.335 1_554 S
C1856 H1914 0.930 . S
C1857 N1853 1.279 . S
C1857 C1855 1.358 1_554 S
C1857 H1915 0.930 . S
C1858 C1861 1.348 . S
C1858 C1862 1.356 . S
C1858 O1909 1.325 . S
C1859 N1860 1.279 . S
C1859 C1862 1.358 . S
C1859 H1916 0.930 . S
N1860 C1859 1.279 . S
N1860 C1863 1.314 . S
C1861 C1858 1.348 . S
C1861 C1863 1.353 . S
C1861 H1917 0.929 1_556 S
C1862 C1858 1.356 . S
C1862 C1859 1.358 . S
C1862 H1918 0.930 . S
C1863 N1860 1.314 . S
C1863 C1861 1.353 . S
C1863 H1919 0.930 1_556 S
C1864 N1865 1.314 . S
C1864 C1869 1.353 . S
C1864 H1870 0.930 1_554 S
N1865 Li1848 1.990 1_554 S
N1865 C1864 1.314 . S
N1865 C1867 1.279 . S
C1866 C1867 1.358 . S
C1866 C1868 1.356 . S
C1866 H1920 0.930 . S
C1867 N1865 1.279 . S
C1867 C1866 1.358 . S
C1867 H1871 0.930 . S
C1868 C1866 1.356 . S
C1868 C1869 1.348 . S
C1869 C1864 1.353 . S
C1869 C1868 1.348 . S
C1869 H1921 0.929 . S
H1870 C1864 0.930 1_556 S
H1871 C1867 0.930 . S
C1872 N1873 1.314 . S
C1872 C1874 1.353 . S
C1872 H1878 0.930 . S
N1873 Li1849 1.990 . S
N1873 C1872 1.314 . S
N1873 C1876 1.279 . S
C1874 C1872 1.353 . S
C1874 C1877 1.348 . S
C1874 H1922 0.929 . S
C1875 C1876 1.358 . S
C1875 C1877 1.356 . S
C1875 H1923 0.930 . S
C1876 N1873 1.279 . S
C1876 C1875 1.358 . S
C1876 H1879 0.930 . S
C1877 C1874 1.348 . S
C1877 C1875 1.356 . S
H1878 C1872 0.930 . S
H1879 C1876 0.930 . S
C1880 C1882 1.348 . S
C1880 C1883 1.356 . S
C1880 O1910 1.325 . S
N1881 C1884 1.314 . S
N1881 C1885 1.279 . S
C1882 C1880 1.348 . S
C1882 C1884 1.353 . S
C1882 H1924 0.929 . S
C1883 C1880 1.356 . S
C1883 C1885 1.358 . S
C1883 H1925 0.930 . S
C1884 N1881 1.314 . S
C1884 C1882 1.353 . S
C1884 H1926 0.930 . S
C1885 N1881 1.279 . S
C1885 C1883 1.358 . S
C1885 H1927 0.930 . S
C1886 C1887 1.348 . S
C1886 C1888 1.356 . S
C1886 O1911 1.325 . S
C1887 C1886 1.348 . S
C1887 C1889 1.353 . S
C1887 H1928 0.929 . S
C1888 C1886 1.356 . S
C1888 C1890 1.358 . S
C1888 H1929 0.930 . S
C1889 C1887 1.353 . S
C1889 N1891 1.314 . S
C1889 H1930 0.930 . S
C1890 C1888 1.358 . S
C1890 N1891 1.279 . S
C1890 H1931 0.930 . S
N1891 C1889 1.314 . S
N1891 C1890 1.279 . S
C1892 C1894 1.353 . S
C1892 N1895 1.314 . S
C1892 H1898 0.930 . S
C1893 N1895 1.279 . S
C1893 C1896 1.358 . S
C1893 H1899 0.930 . S
C1894 C1892 1.353 . S
C1894 C1897 1.348 . S
C1894 H1932 0.929 . S
N1895 Li1850 1.990 . S
N1895 C1892 1.314 . S
N1895 C1893 1.279 . S
C1896 C1893 1.358 . S
C1896 C1897 1.356 . S
C1896 H1933 0.930 . S
C1897 C1894 1.348 . S
C1897 C1896 1.356 . S
H1898 C1892 0.930 . S
H1899 C1893 0.930 . S
C1900 N1901 1.314 . S
C1900 C1902 1.353 . S
C1900 H1906 0.930 . S
N1901 Li1851 1.990 . S
N1901 C1900 1.314 . S
N1901 C1904 1.279 . S
C1902 C1900 1.353 . S
C1902 C1905 1.348 . S
C1902 H1934 0.929 . S
C1903 C1904 1.358 . S
C1903 C1905 1.356 . S
C1903 H1935 0.930 . S
C1904 N1901 1.279 . S
C1904 C1903 1.358 . S
C1904 H1907 0.930 . S
C1905 C1902 1.348 . S
C1905 C1903 1.356 . S
H1906 C1900 0.930 . S
H1907 C1904 0.930 . S
O1908 Li1848 1.956 . S
O1908 Li1849 1.970 . S
O1908 Li1850 1.961 . S
O1908 C1852 1.325 . S
O1909 Li1848 1.970 . S
O1909 Li1849 1.956 . S
O1909 Li1851 1.961 . S
O1909 C1858 1.325 . S
O1910 Li1848 1.961 . S
O1910 Li1850 1.956 . S
O1910 Li1851 1.970 . S
O1910 C1880 1.325 . S
O1911 Li1849 1.961 . S
O1911 Li1850 1.970 . S
O1911 Li1851 1.956 . S
O1911 C1886 1.325 . S
H1912 C1854 0.935 . S
H1913 C1855 0.930 . S
H1914 C1856 0.930 . S
H1915 C1857 0.930 . S
H1916 C1859 0.930 . S
H1917 C1861 0.929 1_554 S
H1918 C1862 0.930 . S
H1919 C1863 0.930 1_554 S
H1920 C1866 0.930 . S
H1921 C1869 0.929 . S
H1922 C1874 0.929 . S
H1923 C1875 0.930 . S
H1924 C1882 0.929 . S
H1925 C1883 0.930 . S
H1926 C1884 0.930 . S
H1927 C1885 0.930 . S
H1928 C1887 0.929 . S
H1929 C1888 0.930 . S
H1930 C1889 0.930 . S
H1931 C1890 0.930 . S
H1932 C1894 0.929 . S
H1933 C1896 0.930 . S
H1934 C1902 0.929 . S
H1935 C1903 0.930 . S
Li1936 N1953 1.990 1_556 S
Li1936 O1996 1.956 . S
Li1936 O1997 1.970 . S
Li1936 O1998 1.961 . S
Li1937 N1961 1.990 . S
Li1937 O1996 1.970 . S
Li1937 O1997 1.956 . S
Li1937 O1999 1.961 . S
Li1938 N1983 1.990 . S
Li1938 O1996 1.961 . S
Li1938 O1998 1.956 . S
Li1938 O1999 1.970 . S
Li1939 N1989 1.990 . S
Li1939 O1997 1.961 . S
Li1939 O1998 1.970 . S
Li1939 O1999 1.956 . S
C1940 C1942 1.361 . S
C1940 C1943 1.356 . S
C1940 O1996 1.325 . S
N1941 C1944 1.314 . S
N1941 C1945 1.279 . S
C1942 C1940 1.361 . S
C1942 C1944 1.335 1_556 S
C1942 H2000 0.935 . S
C1943 C1940 1.356 . S
C1943 C1945 1.358 1_556 S
C1943 H2001 0.930 . S
C1944 N1941 1.314 . S
C1944 C1942 1.335 1_554 S
C1944 H2002 0.930 . S
C1945 N1941 1.279 . S
C1945 C1943 1.358 1_554 S
C1945 H2003 0.930 . S
C1946 C1949 1.348 . S
C1946 C1950 1.356 . S
C1946 O1997 1.325 . S
C1947 N1948 1.279 . S
C1947 C1950 1.358 . S
C1947 H2004 0.930 . S
N1948 C1947 1.279 . S
N1948 C1951 1.314 . S
C1949 C1946 1.348 . S
C1949 C1951 1.353 . S
C1949 H2005 0.929 1_556 S
C1950 C1946 1.356 . S
C1950 C1947 1.358 . S
C1950 H2006 0.930 . S
C1951 N1948 1.314 . S
C1951 C1949 1.353 . S
C1951 H2007 0.930 1_556 S
C1952 N1953 1.314 . S
C1952 C1957 1.353 . S
C1952 H1958 0.930 1_554 S
N1953 Li1936 1.990 1_554 S
N1953 C1952 1.314 . S
N1953 C1955 1.279 . S
C1954 C1955 1.358 . S
C1954 C1956 1.356 . S
C1954 H2008 0.930 . S
C1955 N1953 1.279 . S
C1955 C1954 1.358 . S
C1955 H1959 0.930 . S
C1956 C1954 1.356 . S
C1956 C1957 1.348 . S
C1957 C1952 1.353 . S
C1957 C1956 1.348 . S
C1957 H2009 0.929 . S
H1958 C1952 0.930 1_556 S
H1959 C1955 0.930 . S
C1960 N1961 1.314 . S
C1960 C1962 1.353 . S
C1960 H1966 0.930 . S
N1961 Li1937 1.990 . S
N1961 C1960 1.314 . S
N1961 C1964 1.279 . S
C1962 C1960 1.353 . S
C1962 C1965 1.348 . S
C1962 H2010 0.929 . S
C1963 C1964 1.358 . S
C1963 C1965 1.356 . S
C1963 H2011 0.930 . S
C1964 N1961 1.279 . S
C1964 C1963 1.358 . S
C1964 H1967 0.930 . S
C1965 C1962 1.348 . S
C1965 C1963 1.356 . S
H1966 C1960 0.930 . S
H1967 C1964 0.930 . S
C1968 C1970 1.348 . S
C1968 C1971 1.356 . S
C1968 O1998 1.325 . S
N1969 C1972 1.314 . S
N1969 C1973 1.279 . S
C1970 C1968 1.348 . S
C1970 C1972 1.353 . S
C1970 H2012 0.929 . S
C1971 C1968 1.356 . S
C1971 C1973 1.358 . S
C1971 H2013 0.930 . S
C1972 N1969 1.314 . S
C1972 C1970 1.353 . S
C1972 H2014 0.930 . S
C1973 N1969 1.279 . S
C1973 C1971 1.358 . S
C1973 H2015 0.930 . S
C1974 C1975 1.348 . S
C1974 C1976 1.356 . S
C1974 O1999 1.325 . S
C1975 C1974 1.348 . S
C1975 C1977 1.353 . S
C1975 H2016 0.929 . S
C1976 C1974 1.356 . S
C1976 C1978 1.358 . S
C1976 H2017 0.930 . S
C1977 C1975 1.353 . S
C1977 N1979 1.314 . S
C1977 H2018 0.930 . S
C1978 C1976 1.358 . S
C1978 N1979 1.279 . S
C1978 H2019 0.930 . S
N1979 C1977 1.314 . S
N1979 C1978 1.279 . S
C1980 C1982 1.353 . S
C1980 N1983 1.314 . S
C1980 H1986 0.930 . S
C1981 N1983 1.279 . S
C1981 C1984 1.358 . S
C1981 H1987 0.930 . S
C1982 C1980 1.353 . S
C1982 C1985 1.348 . S
C1982 H2020 0.929 . S
N1983 Li1938 1.990 . S
N1983 C1980 1.314 . S
N1983 C1981 1.279 . S
C1984 C1981 1.358 . S
C1984 C1985 1.356 . S
C1984 H2021 0.930 . S
C1985 C1982 1.348 . S
C1985 C1984 1.356 . S
H1986 C1980 0.930 . S
H1987 C1981 0.930 . S
C1988 N1989 1.314 . S
C1988 C1990 1.353 . S
C1988 H1994 0.930 . S
N1989 Li1939 1.990 . S
N1989 C1988 1.314 . S
N1989 C1992 1.279 . S
C1990 C1988 1.353 . S
C1990 C1993 1.348 . S
C1990 H2022 0.929 . S
C1991 C1992 1.358 . S
C1991 C1993 1.356 . S
C1991 H2023 0.930 . S
C1992 N1989 1.279 . S
C1992 C1991 1.358 . S
C1992 H1995 0.930 . S
C1993 C1990 1.348 . S
C1993 C1991 1.356 . S
H1994 C1988 0.930 . S
H1995 C1992 0.930 . S
O1996 Li1936 1.956 . S
O1996 Li1937 1.970 . S
O1996 Li1938 1.961 . S
O1996 C1940 1.325 . S
O1997 Li1936 1.970 . S
O1997 Li1937 1.956 . S
O1997 Li1939 1.961 . S
O1997 C1946 1.325 . S
O1998 Li1936 1.961 . S
O1998 Li1938 1.956 . S
O1998 Li1939 1.970 . S
O1998 C1968 1.325 . S
O1999 Li1937 1.961 . S
O1999 Li1938 1.970 . S
O1999 Li1939 1.956 . S
O1999 C1974 1.325 . S
H2000 C1942 0.935 . S
H2001 C1943 0.930 . S
H2002 C1944 0.930 . S
H2003 C1945 0.930 . S
H2004 C1947 0.930 . S
H2005 C1949 0.929 1_554 S
H2006 C1950 0.930 . S
H2007 C1951 0.930 1_554 S
H2008 C1954 0.930 . S
H2009 C1957 0.929 . S
H2010 C1962 0.929 . S
H2011 C1963 0.930 . S
H2012 C1970 0.929 . S
H2013 C1971 0.930 . S
H2014 C1972 0.930 . S
H2015 C1973 0.930 . S
H2016 C1975 0.929 . S
H2017 C1976 0.930 . S
H2018 C1977 0.930 . S
H2019 C1978 0.930 . S
H2020 C1982 0.929 . S
H2021 C1984 0.930 . S
H2022 C1990 0.929 . S
H2023 C1991 0.930 . S
Li2024 N2041 1.990 1_556 S
Li2024 O2084 1.956 . S
Li2024 O2085 1.970 . S
Li2024 O2086 1.961 . S
Li2025 N2049 1.990 . S
Li2025 O2084 1.970 . S
Li2025 O2085 1.956 . S
Li2025 O2087 1.961 . S
Li2026 N2071 1.990 . S
Li2026 O2084 1.961 . S
Li2026 O2086 1.956 . S
Li2026 O2087 1.970 . S
Li2027 N2077 1.990 . S
Li2027 O2085 1.961 . S
Li2027 O2086 1.970 . S
Li2027 O2087 1.956 . S
C2028 C2030 1.361 . S
C2028 C2031 1.356 . S
C2028 O2084 1.325 . S
N2029 C2032 1.314 . S
N2029 C2033 1.279 . S
C2030 C2028 1.361 . S
C2030 C2032 1.335 1_556 S
C2030 H2088 0.935 . S
C2031 C2028 1.356 . S
C2031 C2033 1.358 1_556 S
C2031 H2089 0.930 . S
C2032 N2029 1.314 . S
C2032 C2030 1.335 1_554 S
C2032 H2090 0.930 . S
C2033 N2029 1.279 . S
C2033 C2031 1.358 1_554 S
C2033 H2091 0.930 . S
C2034 C2037 1.348 . S
C2034 C2038 1.356 . S
C2034 O2085 1.325 . S
C2035 N2036 1.279 . S
C2035 C2038 1.358 . S
C2035 H2092 0.930 . S
N2036 C2035 1.279 . S
N2036 C2039 1.314 . S
C2037 C2034 1.348 . S
C2037 C2039 1.353 . S
C2037 H2093 0.929 1_556 S
C2038 C2034 1.356 . S
C2038 C2035 1.358 . S
C2038 H2094 0.930 . S
C2039 N2036 1.314 . S
C2039 C2037 1.353 . S
C2039 H2095 0.930 1_556 S
C2040 N2041 1.314 . S
C2040 C2045 1.353 . S
C2040 H2046 0.930 1_554 S
N2041 Li2024 1.990 1_554 S
N2041 C2040 1.314 . S
N2041 C2043 1.279 . S
C2042 C2043 1.358 . S
C2042 C2044 1.356 . S
C2042 H2096 0.930 . S
C2043 N2041 1.279 . S
C2043 C2042 1.358 . S
C2043 H2047 0.930 . S
C2044 C2042 1.356 . S
C2044 C2045 1.348 . S
C2045 C2040 1.353 . S
C2045 C2044 1.348 . S
C2045 H2097 0.929 . S
H2046 C2040 0.930 1_556 S
H2047 C2043 0.930 . S
C2048 N2049 1.314 . S
C2048 C2050 1.353 . S
C2048 H2054 0.930 . S
N2049 Li2025 1.990 . S
N2049 C2048 1.314 . S
N2049 C2052 1.279 . S
C2050 C2048 1.353 . S
C2050 C2053 1.348 . S
C2050 H2098 0.929 . S
C2051 C2052 1.358 . S
C2051 C2053 1.356 . S
C2051 H2099 0.930 . S
C2052 N2049 1.279 . S
C2052 C2051 1.358 . S
C2052 H2055 0.930 . S
C2053 C2050 1.348 . S
C2053 C2051 1.356 . S
H2054 C2048 0.930 . S
H2055 C2052 0.930 . S
C2056 C2058 1.348 . S
C2056 C2059 1.356 . S
C2056 O2086 1.325 . S
N2057 C2060 1.314 . S
N2057 C2061 1.279 . S
C2058 C2056 1.348 . S
C2058 C2060 1.353 . S
C2058 H2100 0.929 . S
C2059 C2056 1.356 . S
C2059 C2061 1.358 . S
C2059 H2101 0.930 . S
C2060 N2057 1.314 . S
C2060 C2058 1.353 . S
C2060 H2102 0.930 . S
C2061 N2057 1.279 . S
C2061 C2059 1.358 . S
C2061 H2103 0.930 . S
C2062 C2063 1.348 . S
C2062 C2064 1.356 . S
C2062 O2087 1.325 . S
C2063 C2062 1.348 . S
C2063 C2065 1.353 . S
C2063 H2104 0.929 . S
C2064 C2062 1.356 . S
C2064 C2066 1.358 . S
C2064 H2105 0.930 . S
C2065 C2063 1.353 . S
C2065 N2067 1.314 . S
C2065 H2106 0.930 . S
C2066 C2064 1.358 . S
C2066 N2067 1.279 . S
C2066 H2107 0.930 . S
N2067 C2065 1.314 . S
N2067 C2066 1.279 . S
C2068 C2070 1.353 . S
C2068 N2071 1.314 . S
C2068 H2074 0.930 . S
C2069 N2071 1.279 . S
C2069 C2072 1.358 . S
C2069 H2075 0.930 . S
C2070 C2068 1.353 . S
C2070 C2073 1.348 . S
C2070 H2108 0.929 . S
N2071 Li2026 1.990 . S
N2071 C2068 1.314 . S
N2071 C2069 1.279 . S
C2072 C2069 1.358 . S
C2072 C2073 1.356 . S
C2072 H2109 0.930 . S
C2073 C2070 1.348 . S
C2073 C2072 1.356 . S
H2074 C2068 0.930 . S
H2075 C2069 0.930 . S
C2076 N2077 1.314 . S
C2076 C2078 1.353 . S
C2076 H2082 0.930 . S
N2077 Li2027 1.990 . S
N2077 C2076 1.314 . S
N2077 C2080 1.279 . S
C2078 C2076 1.353 . S
C2078 C2081 1.348 . S
C2078 H2110 0.929 . S
C2079 C2080 1.358 . S
C2079 C2081 1.356 . S
C2079 H2111 0.930 . S
C2080 N2077 1.279 . S
C2080 C2079 1.358 . S
C2080 H2083 0.930 . S
C2081 C2078 1.348 . S
C2081 C2079 1.356 . S
H2082 C2076 0.930 . S
H2083 C2080 0.930 . S
O2084 Li2024 1.956 . S
O2084 Li2025 1.970 . S
O2084 Li2026 1.961 . S
O2084 C2028 1.325 . S
O2085 Li2024 1.970 . S
O2085 Li2025 1.956 . S
O2085 Li2027 1.961 . S
O2085 C2034 1.325 . S
O2086 Li2024 1.961 . S
O2086 Li2026 1.956 . S
O2086 Li2027 1.970 . S
O2086 C2056 1.325 . S
O2087 Li2025 1.961 . S
O2087 Li2026 1.970 . S
O2087 Li2027 1.956 . S
O2087 C2062 1.325 . S
H2088 C2030 0.935 . S
H2089 C2031 0.930 . S
H2090 C2032 0.930 . S
H2091 C2033 0.930 . S
H2092 C2035 0.930 . S
H2093 C2037 0.929 1_554 S
H2094 C2038 0.930 . S
H2095 C2039 0.930 1_554 S
H2096 C2042 0.930 . S
H2097 C2045 0.929 . S
H2098 C2050 0.929 . S
H2099 C2051 0.930 . S
H2100 C2058 0.929 . S
H2101 C2059 0.930 . S
H2102 C2060 0.930 . S
H2103 C2061 0.930 . S
H2104 C2063 0.929 . S
H2105 C2064 0.930 . S
H2106 C2065 0.930 . S
H2107 C2066 0.930 . S
H2108 C2070 0.929 . S
H2109 C2072 0.930 . S
H2110 C2078 0.929 . S
H2111 C2079 0.930 . S
Li2112 N2129 1.990 . S
Li2112 O2172 1.956 . S
Li2112 O2173 1.970 . S
Li2112 O2174 1.961 . S
Li2113 N2137 1.990 . S
Li2113 O2172 1.970 . S
Li2113 O2173 1.956 . S
Li2113 O2175 1.961 . S
Li2114 N2159 1.990 . S
Li2114 O2172 1.961 . S
Li2114 O2174 1.956 . S
Li2114 O2175 1.970 . S
Li2115 N2165 1.990 . S
Li2115 O2173 1.961 . S
Li2115 O2174 1.970 . S
Li2115 O2175 1.956 . S
C2116 C2118 1.348 . S
C2116 C2119 1.356 . S
C2116 O2172 1.325 . S
N2117 C2120 1.314 . S
N2117 C2121 1.279 . S
C2118 C2116 1.348 . S
C2118 C2120 1.353 . S
C2118 H2176 0.929 . S
C2119 C2116 1.356 . S
C2119 C2121 1.358 . S
C2119 H2177 0.930 . S
C2120 N2117 1.314 . S
C2120 C2118 1.353 . S
C2120 H2178 0.930 . S
C2121 N2117 1.279 . S
C2121 C2119 1.358 . S
C2121 H2179 0.930 . S
C2122 C2125 1.348 . S
C2122 C2126 1.356 . S
C2122 O2173 1.325 . S
C2123 N2124 1.279 . S
C2123 C2126 1.358 . S
C2123 H2180 0.930 . S
N2124 C2123 1.279 . S
N2124 C2127 1.314 . S
C2125 C2122 1.348 . S
C2125 C2127 1.353 . S
C2125 H2181 0.929 . S
C2126 C2122 1.356 . S
C2126 C2123 1.358 . S
C2126 H2182 0.930 . S
C2127 N2124 1.314 . S
C2127 C2125 1.353 . S
C2127 H2183 0.930 . S
C2128 N2129 1.314 . S
C2128 C2133 1.353 . S
C2128 H2134 0.930 . S
N2129 Li2112 1.990 . S
N2129 C2128 1.314 . S
N2129 C2131 1.279 . S
C2130 C2131 1.358 . S
C2130 C2132 1.356 . S
C2130 H2184 0.930 . S
C2131 N2129 1.279 . S
C2131 C2130 1.358 . S
C2131 H2135 0.930 . S
C2132 C2130 1.356 . S
C2132 C2133 1.348 . S
C2133 C2128 1.353 . S
C2133 C2132 1.348 . S
C2133 H2185 0.929 . S
H2134 C2128 0.930 . S
H2135 C2131 0.930 . S
C2136 N2137 1.314 . S
C2136 C2138 1.353 . S
C2136 H2142 0.930 . S
N2137 Li2113 1.990 . S
N2137 C2136 1.314 . S
N2137 C2140 1.279 . S
C2138 C2136 1.353 . S
C2138 C2141 1.348 . S
C2138 H2186 0.929 . S
C2139 C2140 1.358 . S
C2139 C2141 1.356 . S
C2139 H2187 0.930 . S
C2140 N2137 1.279 . S
C2140 C2139 1.358 . S
C2140 H2143 0.930 . S
C2141 C2138 1.348 . S
C2141 C2139 1.356 . S
H2142 C2136 0.930 . S
H2143 C2140 0.930 . S
C2144 C2146 1.348 . S
C2144 C2147 1.356 . S
C2144 O2174 1.325 . S
N2145 C2148 1.314 . S
N2145 C2149 1.279 . S
C2146 C2144 1.348 . S
C2146 C2148 1.353 . S
C2146 H2188 0.929 . S
C2147 C2144 1.356 . S
C2147 C2149 1.358 . S
C2147 H2189 0.930 . S
C2148 N2145 1.314 . S
C2148 C2146 1.353 . S
C2148 H2190 0.930 . S
C2149 N2145 1.279 . S
C2149 C2147 1.358 . S
C2149 H2191 0.930 . S
C2150 C2151 1.348 . S
C2150 C2152 1.356 . S
C2150 O2175 1.325 . S
C2151 C2150 1.348 . S
C2151 C2153 1.353 . S
C2151 H2192 0.929 . S
C2152 C2150 1.356 . S
C2152 C2154 1.358 . S
C2152 H2193 0.930 . S
C2153 C2151 1.353 . S
C2153 N2155 1.314 . S
C2153 H2194 0.930 . S
C2154 C2152 1.358 . S
C2154 N2155 1.279 . S
C2154 H2195 0.930 . S
N2155 C2153 1.314 . S
N2155 C2154 1.279 . S
C2156 C2158 1.353 . S
C2156 N2159 1.314 . S
C2156 H2162 0.930 . S
C2157 N2159 1.279 . S
C2157 C2160 1.358 . S
C2157 H2163 0.930 . S
C2158 C2156 1.353 . S
C2158 C2161 1.348 . S
C2158 H2196 0.929 . S
N2159 Li2114 1.990 . S
N2159 C2156 1.314 . S
N2159 C2157 1.279 . S
C2160 C2157 1.358 . S
C2160 C2161 1.356 . S
C2160 H2197 0.930 . S
C2161 C2158 1.348 . S
C2161 C2160 1.356 . S
H2162 C2156 0.930 . S
H2163 C2157 0.930 . S
C2164 N2165 1.314 . S
C2164 C2166 1.353 . S
C2164 H2170 0.930 . S
N2165 Li2115 1.990 . S
N2165 C2164 1.314 . S
N2165 C2168 1.279 . S
C2166 C2164 1.353 . S
C2166 C2169 1.348 . S
C2166 H2198 0.929 . S
C2167 C2168 1.358 . S
C2167 C2169 1.356 . S
C2167 H2199 0.930 . S
C2168 N2165 1.279 . S
C2168 C2167 1.358 . S
C2168 H2171 0.930 . S
C2169 C2166 1.348 . S
C2169 C2167 1.356 . S
H2170 C2164 0.930 . S
H2171 C2168 0.930 . S
O2172 Li2112 1.956 . S
O2172 Li2113 1.970 . S
O2172 Li2114 1.961 . S
O2172 C2116 1.325 . S
O2173 Li2112 1.970 . S
O2173 Li2113 1.956 . S
O2173 Li2115 1.961 . S
O2173 C2122 1.325 . S
O2174 Li2112 1.961 . S
O2174 Li2114 1.956 . S
O2174 Li2115 1.970 . S
O2174 C2144 1.325 . S
O2175 Li2113 1.961 . S
O2175 Li2114 1.970 . S
O2175 Li2115 1.956 . S
O2175 C2150 1.325 . S
H2176 C2118 0.929 . S
H2177 C2119 0.930 . S
H2178 C2120 0.930 . S
H2179 C2121 0.930 . S
H2180 C2123 0.930 . S
H2181 C2125 0.929 . S
H2182 C2126 0.930 . S
H2183 C2127 0.930 . S
H2184 C2130 0.930 . S
H2185 C2133 0.929 . S
H2186 C2138 0.929 . S
H2187 C2139 0.930 . S
H2188 C2146 0.929 . S
H2189 C2147 0.930 . S
H2190 C2148 0.930 . S
H2191 C2149 0.930 . S
H2192 C2151 0.929 . S
H2193 C2152 0.930 . S
H2194 C2153 0.930 . S
H2195 C2154 0.930 . S
H2196 C2158 0.929 . S
H2197 C2160 0.930 . S
H2198 C2166 0.929 . S
H2199 C2167 0.930 . S
Li2200 N2217 1.990 . S
Li2200 O2260 1.956 . S
Li2200 O2261 1.970 . S
Li2200 O2262 1.961 . S
Li2201 N2225 1.990 . S
Li2201 O2260 1.970 . S
Li2201 O2261 1.956 . S
Li2201 O2263 1.961 . S
Li2202 N2247 1.990 . S
Li2202 O2260 1.961 . S
Li2202 O2262 1.956 . S
Li2202 O2263 1.970 . S
Li2203 N2253 1.990 . S
Li2203 O2261 1.961 . S
Li2203 O2262 1.970 . S
Li2203 O2263 1.956 . S
C2204 C2206 1.348 . S
C2204 C2207 1.356 . S
C2204 O2260 1.325 . S
N2205 C2208 1.314 . S
N2205 C2209 1.279 . S
C2206 C2204 1.348 . S
C2206 C2208 1.353 . S
C2206 H2264 0.929 . S
C2207 C2204 1.356 . S
C2207 C2209 1.358 . S
C2207 H2265 0.930 . S
C2208 N2205 1.314 . S
C2208 C2206 1.353 . S
C2208 H2266 0.930 . S
C2209 N2205 1.279 . S
C2209 C2207 1.358 . S
C2209 H2267 0.930 . S
C2210 C2213 1.348 . S
C2210 C2214 1.356 . S
C2210 O2261 1.325 . S
C2211 N2212 1.279 . S
C2211 C2214 1.358 . S
C2211 H2268 0.930 . S
N2212 C2211 1.279 . S
N2212 C2215 1.314 . S
C2213 C2210 1.348 . S
C2213 C2215 1.353 . S
C2213 H2269 0.929 . S
C2214 C2210 1.356 . S
C2214 C2211 1.358 . S
C2214 H2270 0.930 . S
C2215 N2212 1.314 . S
C2215 C2213 1.353 . S
C2215 H2271 0.930 . S
C2216 N2217 1.314 . S
C2216 C2221 1.353 . S
C2216 H2222 0.930 . S
N2217 Li2200 1.990 . S
N2217 C2216 1.314 . S
N2217 C2219 1.279 . S
C2218 C2219 1.358 . S
C2218 C2220 1.356 . S
C2218 H2272 0.930 . S
C2219 N2217 1.279 . S
C2219 C2218 1.358 . S
C2219 H2223 0.930 . S
C2220 C2218 1.356 . S
C2220 C2221 1.348 . S
C2221 C2216 1.353 . S
C2221 C2220 1.348 . S
C2221 H2273 0.929 . S
H2222 C2216 0.930 . S
H2223 C2219 0.930 . S
C2224 N2225 1.314 . S
C2224 C2226 1.353 . S
C2224 H2230 0.930 . S
N2225 Li2201 1.990 . S
N2225 C2224 1.314 . S
N2225 C2228 1.279 . S
C2226 C2224 1.353 . S
C2226 C2229 1.348 . S
C2226 H2274 0.929 . S
C2227 C2228 1.358 . S
C2227 C2229 1.356 . S
C2227 H2275 0.930 . S
C2228 N2225 1.279 . S
C2228 C2227 1.358 . S
C2228 H2231 0.930 . S
C2229 C2226 1.348 . S
C2229 C2227 1.356 . S
H2230 C2224 0.930 . S
H2231 C2228 0.930 . S
C2232 C2234 1.348 . S
C2232 C2235 1.356 . S
C2232 O2262 1.325 . S
N2233 C2236 1.314 . S
N2233 C2237 1.279 . S
C2234 C2232 1.348 . S
C2234 C2236 1.353 . S
C2234 H2276 0.929 . S
C2235 C2232 1.356 . S
C2235 C2237 1.358 . S
C2235 H2277 0.930 . S
C2236 N2233 1.314 . S
C2236 C2234 1.353 . S
C2236 H2278 0.930 . S
C2237 N2233 1.279 . S
C2237 C2235 1.358 . S
C2237 H2279 0.930 . S
C2238 C2239 1.348 . S
C2238 C2240 1.356 . S
C2238 O2263 1.325 . S
C2239 C2238 1.348 . S
C2239 C2241 1.353 . S
C2239 H2280 0.929 . S
C2240 C2238 1.356 . S
C2240 C2242 1.358 . S
C2240 H2281 0.930 . S
C2241 C2239 1.353 . S
C2241 N2243 1.314 . S
C2241 H2282 0.930 . S
C2242 C2240 1.358 . S
C2242 N2243 1.279 . S
C2242 H2283 0.930 . S
N2243 C2241 1.314 . S
N2243 C2242 1.279 . S
C2244 C2246 1.353 . S
C2244 N2247 1.314 . S
C2244 H2250 0.930 . S
C2245 N2247 1.279 . S
C2245 C2248 1.358 . S
C2245 H2251 0.930 . S
C2246 C2244 1.353 . S
C2246 C2249 1.348 . S
C2246 H2284 0.929 . S
N2247 Li2202 1.990 . S
N2247 C2244 1.314 . S
N2247 C2245 1.279 . S
C2248 C2245 1.358 . S
C2248 C2249 1.356 . S
C2248 H2285 0.930 . S
C2249 C2246 1.348 . S
C2249 C2248 1.356 . S
H2250 C2244 0.930 . S
H2251 C2245 0.930 . S
C2252 N2253 1.314 . S
C2252 C2254 1.353 . S
C2252 H2258 0.930 . S
N2253 Li2203 1.990 . S
N2253 C2252 1.314 . S
N2253 C2256 1.279 . S
C2254 C2252 1.353 . S
C2254 C2257 1.348 . S
C2254 H2286 0.929 . S
C2255 C2256 1.358 . S
C2255 C2257 1.356 . S
C2255 H2287 0.930 . S
C2256 N2253 1.279 . S
C2256 C2255 1.358 . S
C2256 H2259 0.930 . S
C2257 C2254 1.348 . S
C2257 C2255 1.356 . S
H2258 C2252 0.930 . S
H2259 C2256 0.930 . S
O2260 Li2200 1.956 . S
O2260 Li2201 1.970 . S
O2260 Li2202 1.961 . S
O2260 C2204 1.325 . S
O2261 Li2200 1.970 . S
O2261 Li2201 1.956 . S
O2261 Li2203 1.961 . S
O2261 C2210 1.325 . S
O2262 Li2200 1.961 . S
O2262 Li2202 1.956 . S
O2262 Li2203 1.970 . S
O2262 C2232 1.325 . S
O2263 Li2201 1.961 . S
O2263 Li2202 1.970 . S
O2263 Li2203 1.956 . S
O2263 C2238 1.325 . S
H2264 C2206 0.929 . S
H2265 C2207 0.930 . S
H2266 C2208 0.930 . S
H2267 C2209 0.930 . S
H2268 C2211 0.930 . S
H2269 C2213 0.929 . S
H2270 C2214 0.930 . S
H2271 C2215 0.930 . S
H2272 C2218 0.930 . S
H2273 C2221 0.929 . S
H2274 C2226 0.929 . S
H2275 C2227 0.930 . S
H2276 C2234 0.929 . S
H2277 C2235 0.930 . S
H2278 C2236 0.930 . S
H2279 C2237 0.930 . S
H2280 C2239 0.929 . S
H2281 C2240 0.930 . S
H2282 C2241 0.930 . S
H2283 C2242 0.930 . S
H2284 C2246 0.929 . S
H2285 C2248 0.930 . S
H2286 C2254 0.929 . S
H2287 C2255 0.930 . S
Li2288 N2305 1.990 . S
Li2288 O2348 1.956 . S
Li2288 O2349 1.970 . S
Li2288 O2350 1.961 . S
Li2289 N2313 1.990 . S
Li2289 O2348 1.970 . S
Li2289 O2349 1.956 . S
Li2289 O2351 1.961 . S
Li2290 N2335 1.990 . S
Li2290 O2348 1.961 . S
Li2290 O2350 1.956 . S
Li2290 O2351 1.970 . S
Li2291 N2341 1.990 . S
Li2291 O2349 1.961 . S
Li2291 O2350 1.970 . S
Li2291 O2351 1.956 . S
C2292 C2294 1.348 . S
C2292 C2295 1.356 . S
C2292 O2348 1.325 . S
N2293 C2296 1.314 . S
N2293 C2297 1.279 . S
C2294 C2292 1.348 . S
C2294 C2296 1.353 . S
C2294 H2352 0.929 . S
C2295 C2292 1.356 . S
C2295 C2297 1.358 . S
C2295 H2353 0.930 . S
C2296 N2293 1.314 . S
C2296 C2294 1.353 . S
C2296 H2354 0.930 . S
C2297 N2293 1.279 . S
C2297 C2295 1.358 . S
C2297 H2355 0.930 . S
C2298 C2301 1.348 . S
C2298 C2302 1.356 . S
C2298 O2349 1.325 . S
C2299 N2300 1.279 . S
C2299 C2302 1.358 . S
C2299 H2356 0.930 . S
N2300 C2299 1.279 . S
N2300 C2303 1.314 . S
C2301 C2298 1.348 . S
C2301 C2303 1.353 . S
C2301 H2357 0.929 . S
C2302 C2298 1.356 . S
C2302 C2299 1.358 . S
C2302 H2358 0.930 . S
C2303 N2300 1.314 . S
C2303 C2301 1.353 . S
C2303 H2359 0.930 . S
C2304 N2305 1.314 . S
C2304 C2309 1.353 . S
C2304 H2310 0.930 . S
N2305 Li2288 1.990 . S
N2305 C2304 1.314 . S
N2305 C2307 1.279 . S
C2306 C2307 1.358 . S
C2306 C2308 1.356 . S
C2306 H2360 0.930 . S
C2307 N2305 1.279 . S
C2307 C2306 1.358 . S
C2307 H2311 0.930 . S
C2308 C2306 1.356 . S
C2308 C2309 1.348 . S
C2309 C2304 1.353 . S
C2309 C2308 1.348 . S
C2309 H2361 0.929 . S
H2310 C2304 0.930 . S
H2311 C2307 0.930 . S
C2312 N2313 1.314 . S
C2312 C2314 1.353 . S
C2312 H2318 0.930 . S
N2313 Li2289 1.990 . S
N2313 C2312 1.314 . S
N2313 C2316 1.279 . S
C2314 C2312 1.353 . S
C2314 C2317 1.348 . S
C2314 H2362 0.929 . S
C2315 C2316 1.358 . S
C2315 C2317 1.356 . S
C2315 H2363 0.930 . S
C2316 N2313 1.279 . S
C2316 C2315 1.358 . S
C2316 H2319 0.930 . S
C2317 C2314 1.348 . S
C2317 C2315 1.356 . S
H2318 C2312 0.930 . S
H2319 C2316 0.930 . S
C2320 C2322 1.348 . S
C2320 C2323 1.356 . S
C2320 O2350 1.325 . S
N2321 C2324 1.314 . S
N2321 C2325 1.279 . S
C2322 C2320 1.348 . S
C2322 C2324 1.353 . S
C2322 H2364 0.929 . S
C2323 C2320 1.356 . S
C2323 C2325 1.358 . S
C2323 H2365 0.930 . S
C2324 N2321 1.314 . S
C2324 C2322 1.353 . S
C2324 H2366 0.930 . S
C2325 N2321 1.279 . S
C2325 C2323 1.358 . S
C2325 H2367 0.930 . S
C2326 C2327 1.348 . S
C2326 C2328 1.356 . S
C2326 O2351 1.325 . S
C2327 C2326 1.348 . S
C2327 C2329 1.353 . S
C2327 H2368 0.929 . S
C2328 C2326 1.356 . S
C2328 C2330 1.358 . S
C2328 H2369 0.930 . S
C2329 C2327 1.353 . S
C2329 N2331 1.314 . S
C2329 H2370 0.930 . S
C2330 C2328 1.358 . S
C2330 N2331 1.279 . S
C2330 H2371 0.930 . S
N2331 C2329 1.314 . S
N2331 C2330 1.279 . S
C2332 C2334 1.353 . S
C2332 N2335 1.314 . S
C2332 H2338 0.930 . S
C2333 N2335 1.279 . S
C2333 C2336 1.358 . S
C2333 H2339 0.930 . S
C2334 C2332 1.353 . S
C2334 C2337 1.348 . S
C2334 H2372 0.929 . S
N2335 Li2290 1.990 . S
N2335 C2332 1.314 . S
N2335 C2333 1.279 . S
C2336 C2333 1.358 . S
C2336 C2337 1.356 . S
C2336 H2373 0.930 . S
C2337 C2334 1.348 . S
C2337 C2336 1.356 . S
H2338 C2332 0.930 . S
H2339 C2333 0.930 . S
C2340 N2341 1.314 . S
C2340 C2342 1.353 . S
C2340 H2346 0.930 . S
N2341 Li2291 1.990 . S
N2341 C2340 1.314 . S
N2341 C2344 1.279 . S
C2342 C2340 1.353 . S
C2342 C2345 1.348 . S
C2342 H2374 0.929 . S
C2343 C2344 1.358 . S
C2343 C2345 1.356 . S
C2343 H2375 0.930 . S
C2344 N2341 1.279 . S
C2344 C2343 1.358 . S
C2344 H2347 0.930 . S
C2345 C2342 1.348 . S
C2345 C2343 1.356 . S
H2346 C2340 0.930 . S
H2347 C2344 0.930 . S
O2348 Li2288 1.956 . S
O2348 Li2289 1.970 . S
O2348 Li2290 1.961 . S
O2348 C2292 1.325 . S
O2349 Li2288 1.970 . S
O2349 Li2289 1.956 . S
O2349 Li2291 1.961 . S
O2349 C2298 1.325 . S
O2350 Li2288 1.961 . S
O2350 Li2290 1.956 . S
O2350 Li2291 1.970 . S
O2350 C2320 1.325 . S
O2351 Li2289 1.961 . S
O2351 Li2290 1.970 . S
O2351 Li2291 1.956 . S
O2351 C2326 1.325 . S
H2352 C2294 0.929 . S
H2353 C2295 0.930 . S
H2354 C2296 0.930 . S
H2355 C2297 0.930 . S
H2356 C2299 0.930 . S
H2357 C2301 0.929 . S
H2358 C2302 0.930 . S
H2359 C2303 0.930 . S
H2360 C2306 0.930 . S
H2361 C2309 0.929 . S
H2362 C2314 0.929 . S
H2363 C2315 0.930 . S
H2364 C2322 0.929 . S
H2365 C2323 0.930 . S
H2366 C2324 0.930 . S
H2367 C2325 0.930 . S
H2368 C2327 0.929 . S
H2369 C2328 0.930 . S
H2370 C2329 0.930 . S
H2371 C2330 0.930 . S
H2372 C2334 0.929 . S
H2373 C2336 0.930 . S
H2374 C2342 0.929 . S
H2375 C2343 0.930 . S
Li2376 N2393 1.990 . S
Li2376 O2436 1.956 . S
Li2376 O2437 1.970 . S
Li2376 O2438 1.961 . S
Li2377 N2401 1.990 . S
Li2377 O2436 1.970 . S
Li2377 O2437 1.956 . S
Li2377 O2439 1.961 . S
Li2378 N2423 1.990 1_554 S
Li2378 O2436 1.961 . S
Li2378 O2438 1.956 . S
Li2378 O2439 1.970 . S
Li2379 N2429 1.990 . S
Li2379 O2437 1.961 . S
Li2379 O2438 1.970 . S
Li2379 O2439 1.956 . S
C2380 C2382 1.348 . S
C2380 C2383 1.332 1_554 S
C2380 O2436 1.325 . S
N2381 C2384 1.314 . S
N2381 C2385 1.279 . S
C2382 C2380 1.348 . S
C2382 C2384 1.353 1_554 S
C2382 H2440 0.929 . S
C2383 C2380 1.332 1_556 S
C2383 C2385 1.387 . S
C2383 H2441 0.925 1_556 S
C2384 N2381 1.314 . S
C2384 C2382 1.353 1_556 S
C2384 H2442 0.930 . S
C2385 N2381 1.279 . S
C2385 C2383 1.387 . S
C2385 H2443 0.930 . S
C2386 C2389 1.348 . S
C2386 C2390 1.356 . S
C2386 O2437 1.325 . S
C2387 N2388 1.279 . S
C2387 C2390 1.358 . S
C2387 H2444 0.930 . S
N2388 C2387 1.279 . S
N2388 C2391 1.314 . S
C2389 C2386 1.348 . S
C2389 C2391 1.353 . S
C2389 H2445 0.929 . S
C2390 C2386 1.356 . S
C2390 C2387 1.358 . S
C2390 H2446 0.930 . S
C2391 N2388 1.314 . S
C2391 C2389 1.353 . S
C2391 H2447 0.930 . S
C2392 N2393 1.314 . S
C2392 C2397 1.353 . S
C2392 H2398 0.930 . S
N2393 Li2376 1.990 . S
N2393 C2392 1.314 . S
N2393 C2395 1.279 . S
C2394 C2395 1.358 . S
C2394 C2396 1.356 . S
C2394 H2448 0.930 . S
C2395 N2393 1.279 . S
C2395 C2394 1.358 . S
C2395 H2399 0.930 . S
C2396 C2394 1.356 . S
C2396 C2397 1.348 . S
C2397 C2392 1.353 . S
C2397 C2396 1.348 . S
C2397 H2449 0.929 . S
H2398 C2392 0.930 . S
H2399 C2395 0.930 . S
C2400 N2401 1.314 . S
C2400 C2402 1.353 . S
C2400 H2406 0.930 . S
N2401 Li2377 1.990 . S
N2401 C2400 1.314 . S
N2401 C2404 1.279 . S
C2402 C2400 1.353 . S
C2402 C2405 1.348 . S
C2402 H2450 0.929 . S
C2403 C2404 1.358 . S
C2403 C2405 1.356 . S
C2403 H2451 0.930 . S
C2404 N2401 1.279 . S
C2404 C2403 1.358 . S
C2404 H2407 0.930 . S
C2405 C2402 1.348 . S
C2405 C2403 1.356 . S
H2406 C2400 0.930 . S
H2407 C2404 0.930 . S
C2408 C2410 1.348 . S
C2408 C2411 1.356 . S
C2408 O2438 1.325 . S
N2409 C2412 1.314 . S
N2409 C2413 1.279 . S
C2410 C2408 1.348 . S
C2410 C2412 1.353 . S
C2410 H2452 0.929 . S
C2411 C2408 1.356 . S
C2411 C2413 1.358 . S
C2411 H2453 0.930 . S
C2412 N2409 1.314 . S
C2412 C2410 1.353 . S
C2412 H2454 0.930 . S
C2413 N2409 1.279 . S
C2413 C2411 1.358 . S
C2413 H2455 0.930 . S
C2414 C2415 1.348 . S
C2414 C2416 1.356 . S
C2414 O2439 1.325 . S
C2415 C2414 1.348 . S
C2415 C2417 1.353 . S
C2415 H2456 0.929 . S
C2416 C2414 1.356 . S
C2416 C2418 1.358 . S
C2416 H2457 0.930 . S
C2417 C2415 1.353 . S
C2417 N2419 1.314 . S
C2417 H2458 0.930 . S
C2418 C2416 1.358 . S
C2418 N2419 1.279 . S
C2418 H2459 0.930 . S
N2419 C2417 1.314 . S
N2419 C2418 1.279 . S
C2420 C2422 1.353 . S
C2420 N2423 1.314 . S
C2420 H2426 0.930 . S
C2421 N2423 1.279 . S
C2421 C2424 1.358 . S
C2421 H2427 0.930 1_556 S
C2422 C2420 1.353 . S
C2422 C2425 1.348 . S
C2422 H2460 0.929 . S
N2423 Li2378 1.990 1_556 S
N2423 C2420 1.314 . S
N2423 C2421 1.279 . S
C2424 C2421 1.358 . S
C2424 C2425 1.356 . S
C2424 H2461 0.930 . S
C2425 C2422 1.348 . S
C2425 C2424 1.356 . S
H2426 C2420 0.930 . S
H2427 C2421 0.930 1_554 S
C2428 N2429 1.314 . S
C2428 C2430 1.353 . S
C2428 H2434 0.930 . S
N2429 Li2379 1.990 . S
N2429 C2428 1.314 . S
N2429 C2432 1.279 . S
C2430 C2428 1.353 . S
C2430 C2433 1.348 . S
C2430 H2462 0.929 . S
C2431 C2432 1.358 . S
C2431 C2433 1.356 . S
C2431 H2463 0.930 . S
C2432 N2429 1.279 . S
C2432 C2431 1.358 . S
C2432 H2435 0.930 . S
C2433 C2430 1.348 . S
C2433 C2431 1.356 . S
H2434 C2428 0.930 . S
H2435 C2432 0.930 . S
O2436 Li2376 1.956 . S
O2436 Li2377 1.970 . S
O2436 Li2378 1.961 . S
O2436 C2380 1.325 . S
O2437 Li2376 1.970 . S
O2437 Li2377 1.956 . S
O2437 Li2379 1.961 . S
O2437 C2386 1.325 . S
O2438 Li2376 1.961 . S
O2438 Li2378 1.956 . S
O2438 Li2379 1.970 . S
O2438 C2408 1.325 . S
O2439 Li2377 1.961 . S
O2439 Li2378 1.970 . S
O2439 Li2379 1.956 . S
O2439 C2414 1.325 . S
H2440 C2382 0.929 . S
H2441 C2383 0.925 1_554 S
H2442 C2384 0.930 . S
H2443 C2385 0.930 . S
H2444 C2387 0.930 . S
H2445 C2389 0.929 . S
H2446 C2390 0.930 . S
H2447 C2391 0.930 . S
H2448 C2394 0.930 . S
H2449 C2397 0.929 . S
H2450 C2402 0.929 . S
H2451 C2403 0.930 . S
H2452 C2410 0.929 . S
H2453 C2411 0.930 . S
H2454 C2412 0.930 . S
H2455 C2413 0.930 . S
H2456 C2415 0.929 . S
H2457 C2416 0.930 . S
H2458 C2417 0.930 . S
H2459 C2418 0.930 . S
H2460 C2422 0.929 . S
H2461 C2424 0.930 . S
H2462 C2430 0.929 . S
H2463 C2431 0.930 . S
Li2464 N2481 1.990 1_554 S
Li2464 O2524 1.956 . S
Li2464 O2525 1.970 . S
Li2464 O2526 1.961 . S
Li2465 N2489 1.990 . S
Li2465 O2524 1.970 . S
Li2465 O2525 1.956 . S
Li2465 O2527 1.961 . S
Li2466 N2511 1.990 . S
Li2466 O2524 1.961 . S
Li2466 O2526 1.956 . S
Li2466 O2527 1.970 . S
Li2467 N2517 1.990 . S
Li2467 O2525 1.961 . S
Li2467 O2526 1.970 . S
Li2467 O2527 1.956 . S
C2468 C2470 1.348 . S
C2468 C2471 1.356 . S
C2468 O2524 1.325 . S
N2469 C2472 1.314 . S
N2469 C2473 1.279 . S
C2470 C2468 1.348 . S
C2470 C2472 1.353 . S
C2470 H2528 0.929 . S
C2471 C2468 1.356 . S
C2471 C2473 1.358 . S
C2471 H2529 0.930 . S
C2472 N2469 1.314 . S
C2472 C2470 1.353 . S
C2472 H2530 0.930 . S
C2473 N2469 1.279 . S
C2473 C2471 1.358 . S
C2473 H2531 0.930 . S
C2474 C2477 1.348 . S
C2474 C2478 1.356 . S
C2474 O2525 1.325 . S
C2475 N2476 1.279 . S
C2475 C2478 1.358 . S
C2475 H2532 0.930 . S
N2476 C2475 1.279 . S
N2476 C2479 1.314 . S
C2477 C2474 1.348 . S
C2477 C2479 1.353 . S
C2477 H2533 0.929 . S
C2478 C2474 1.356 . S
C2478 C2475 1.358 . S
C2478 H2534 0.930 . S
C2479 N2476 1.314 . S
C2479 C2477 1.353 . S
C2479 H2535 0.930 . S
C2480 N2481 1.314 . S
C2480 C2485 1.353 . S
C2480 H2486 0.930 . S
N2481 Li2464 1.990 1_556 S
N2481 C2480 1.314 . S
N2481 C2483 1.279 . S
C2482 C2483 1.358 . S
C2482 C2484 1.356 . S
C2482 H2536 0.930 . S
C2483 N2481 1.279 . S
C2483 C2482 1.358 . S
C2483 H2487 0.930 1_556 S
C2484 C2482 1.356 . S
C2484 C2485 1.348 . S
C2485 C2480 1.353 . S
C2485 C2484 1.348 . S
C2485 H2537 0.929 . S
H2486 C2480 0.930 . S
H2487 C2483 0.930 1_554 S
C2488 N2489 1.314 . S
C2488 C2490 1.353 . S
C2488 H2494 0.930 . S
N2489 Li2465 1.990 . S
N2489 C2488 1.314 . S
N2489 C2492 1.279 . S
C2490 C2488 1.353 . S
C2490 C2493 1.348 . S
C2490 H2538 0.929 . S
C2491 C2492 1.358 . S
C2491 C2493 1.356 . S
C2491 H2539 0.930 . S
C2492 N2489 1.279 . S
C2492 C2491 1.358 . S
C2492 H2495 0.930 . S
C2493 C2490 1.348 . S
C2493 C2491 1.356 . S
H2494 C2488 0.930 . S
H2495 C2492 0.930 . S
C2496 C2498 1.348 . S
C2496 C2499 1.332 1_554 S
C2496 O2526 1.325 . S
N2497 C2500 1.314 . S
N2497 C2501 1.279 . S
C2498 C2496 1.348 . S
C2498 C2500 1.353 1_554 S
C2498 H2540 0.929 . S
C2499 C2496 1.332 1_556 S
C2499 C2501 1.387 . S
C2499 H2541 0.925 1_556 S
C2500 N2497 1.314 . S
C2500 C2498 1.353 1_556 S
C2500 H2542 0.930 . S
C2501 N2497 1.279 . S
C2501 C2499 1.387 . S
C2501 H2543 0.930 . S
C2502 C2503 1.348 . S
C2502 C2504 1.356 . S
C2502 O2527 1.325 . S
C2503 C2502 1.348 . S
C2503 C2505 1.353 . S
C2503 H2544 0.929 . S
C2504 C2502 1.356 . S
C2504 C2506 1.358 . S
C2504 H2545 0.930 . S
C2505 C2503 1.353 . S
C2505 N2507 1.314 . S
C2505 H2546 0.930 . S
C2506 C2504 1.358 . S
C2506 N2507 1.279 . S
C2506 H2547 0.930 . S
N2507 C2505 1.314 . S
N2507 C2506 1.279 . S
C2508 C2510 1.353 . S
C2508 N2511 1.314 . S
C2508 H2514 0.930 . S
C2509 N2511 1.279 . S
C2509 C2512 1.358 . S
C2509 H2515 0.930 . S
C2510 C2508 1.353 . S
C2510 C2513 1.348 . S
C2510 H2548 0.929 . S
N2511 Li2466 1.990 . S
N2511 C2508 1.314 . S
N2511 C2509 1.279 . S
C2512 C2509 1.358 . S
C2512 C2513 1.356 . S
C2512 H2549 0.930 . S
C2513 C2510 1.348 . S
C2513 C2512 1.356 . S
H2514 C2508 0.930 . S
H2515 C2509 0.930 . S
C2516 N2517 1.314 . S
C2516 C2518 1.353 . S
C2516 H2522 0.930 . S
N2517 Li2467 1.990 . S
N2517 C2516 1.314 . S
N2517 C2520 1.279 . S
C2518 C2516 1.353 . S
C2518 C2521 1.348 . S
C2518 H2550 0.929 . S
C2519 C2520 1.358 . S
C2519 C2521 1.356 . S
C2519 H2551 0.930 . S
C2520 N2517 1.279 . S
C2520 C2519 1.358 . S
C2520 H2523 0.930 . S
C2521 C2518 1.348 . S
C2521 C2519 1.356 . S
H2522 C2516 0.930 . S
H2523 C2520 0.930 . S
O2524 Li2464 1.956 . S
O2524 Li2465 1.970 . S
O2524 Li2466 1.961 . S
O2524 C2468 1.325 . S
O2525 Li2464 1.970 . S
O2525 Li2465 1.956 . S
O2525 Li2467 1.961 . S
O2525 C2474 1.325 . S
O2526 Li2464 1.961 . S
O2526 Li2466 1.956 . S
O2526 Li2467 1.970 . S
O2526 C2496 1.325 . S
O2527 Li2465 1.961 . S
O2527 Li2466 1.970 . S
O2527 Li2467 1.956 . S
O2527 C2502 1.325 . S
H2528 C2470 0.929 . S
H2529 C2471 0.930 . S
H2530 C2472 0.930 . S
H2531 C2473 0.930 . S
H2532 C2475 0.930 . S
H2533 C2477 0.929 . S
H2534 C2478 0.930 . S
H2535 C2479 0.930 . S
H2536 C2482 0.930 . S
H2537 C2485 0.929 . S
H2538 C2490 0.929 . S
H2539 C2491 0.930 . S
H2540 C2498 0.929 . S
H2541 C2499 0.925 1_554 S
H2542 C2500 0.930 . S
H2543 C2501 0.930 . S
H2544 C2503 0.929 . S
H2545 C2504 0.930 . S
H2546 C2505 0.930 . S
H2547 C2506 0.930 . S
H2548 C2510 0.929 . S
H2549 C2512 0.930 . S
H2550 C2518 0.929 . S
H2551 C2519 0.930 . S
Li2552 N2569 1.990 . S
Li2552 O2612 1.956 . S
Li2552 O2613 1.970 . S
Li2552 O2614 1.961 . S
Li2553 N2577 1.990 . S
Li2553 O2612 1.970 . S
Li2553 O2613 1.956 . S
Li2553 O2615 1.961 . S
Li2554 N2599 1.990 . S
Li2554 O2612 1.961 . S
Li2554 O2614 1.956 . S
Li2554 O2615 1.970 . S
Li2555 N2605 1.990 1_554 S
Li2555 O2613 1.961 . S
Li2555 O2614 1.970 . S
Li2555 O2615 1.956 . S
C2556 C2558 1.348 . S
C2556 C2559 1.356 . S
C2556 O2612 1.325 . S
N2557 C2560 1.314 . S
N2557 C2561 1.279 . S
C2558 C2556 1.348 . S
C2558 C2560 1.353 . S
C2558 H2616 0.929 . S
C2559 C2556 1.356 . S
C2559 C2561 1.358 . S
C2559 H2617 0.930 . S
C2560 N2557 1.314 . S
C2560 C2558 1.353 . S
C2560 H2618 0.930 . S
C2561 N2557 1.279 . S
C2561 C2559 1.358 . S
C2561 H2619 0.930 . S
C2562 C2565 1.348 . S
C2562 C2566 1.332 1_554 S
C2562 O2613 1.325 . S
C2563 N2564 1.279 . S
C2563 C2566 1.387 . S
C2563 H2620 0.930 . S
N2564 C2563 1.279 . S
N2564 C2567 1.314 . S
C2565 C2562 1.348 . S
C2565 C2567 1.353 1_554 S
C2565 H2621 0.929 . S
C2566 C2562 1.332 1_556 S
C2566 C2563 1.387 . S
C2566 H2622 0.925 1_556 S
C2567 N2564 1.314 . S
C2567 C2565 1.353 1_556 S
C2567 H2623 0.930 . S
C2568 N2569 1.314 . S
C2568 C2573 1.353 . S
C2568 H2574 0.930 . S
N2569 Li2552 1.990 . S
N2569 C2568 1.314 . S
N2569 C2571 1.279 . S
C2570 C2571 1.358 . S
C2570 C2572 1.356 . S
C2570 H2624 0.930 . S
C2571 N2569 1.279 . S
C2571 C2570 1.358 . S
C2571 H2575 0.930 . S
C2572 C2570 1.356 . S
C2572 C2573 1.348 . S
C2573 C2568 1.353 . S
C2573 C2572 1.348 . S
C2573 H2625 0.929 . S
H2574 C2568 0.930 . S
H2575 C2571 0.930 . S
C2576 N2577 1.314 . S
C2576 C2578 1.353 . S
C2576 H2582 0.930 . S
N2577 Li2553 1.990 . S
N2577 C2576 1.314 . S
N2577 C2580 1.279 . S
C2578 C2576 1.353 . S
C2578 C2581 1.348 . S
C2578 H2626 0.929 . S
C2579 C2580 1.358 . S
C2579 C2581 1.356 . S
C2579 H2627 0.930 . S
C2580 N2577 1.279 . S
C2580 C2579 1.358 . S
C2580 H2583 0.930 . S
C2581 C2578 1.348 . S
C2581 C2579 1.356 . S
H2582 C2576 0.930 . S
H2583 C2580 0.930 . S
C2584 C2586 1.348 . S
C2584 C2587 1.356 . S
C2584 O2614 1.325 . S
N2585 C2588 1.314 . S
N2585 C2589 1.279 . S
C2586 C2584 1.348 . S
C2586 C2588 1.353 . S
C2586 H2628 0.929 . S
C2587 C2584 1.356 . S
C2587 C2589 1.358 . S
C2587 H2629 0.930 . S
C2588 N2585 1.314 . S
C2588 C2586 1.353 . S
C2588 H2630 0.930 . S
C2589 N2585 1.279 . S
C2589 C2587 1.358 . S
C2589 H2631 0.930 . S
C2590 C2591 1.348 . S
C2590 C2592 1.356 . S
C2590 O2615 1.325 . S
C2591 C2590 1.348 . S
C2591 C2593 1.353 . S
C2591 H2632 0.929 . S
C2592 C2590 1.356 . S
C2592 C2594 1.358 . S
C2592 H2633 0.930 . S
C2593 C2591 1.353 . S
C2593 N2595 1.314 . S
C2593 H2634 0.930 . S
C2594 C2592 1.358 . S
C2594 N2595 1.279 . S
C2594 H2635 0.930 . S
N2595 C2593 1.314 . S
N2595 C2594 1.279 . S
C2596 C2598 1.353 . S
C2596 N2599 1.314 . S
C2596 H2602 0.930 . S
C2597 N2599 1.279 . S
C2597 C2600 1.358 . S
C2597 H2603 0.930 . S
C2598 C2596 1.353 . S
C2598 C2601 1.348 . S
C2598 H2636 0.929 . S
N2599 Li2554 1.990 . S
N2599 C2596 1.314 . S
N2599 C2597 1.279 . S
C2600 C2597 1.358 . S
C2600 C2601 1.356 . S
C2600 H2637 0.930 . S
C2601 C2598 1.348 . S
C2601 C2600 1.356 . S
H2602 C2596 0.930 . S
H2603 C2597 0.930 . S
C2604 N2605 1.314 . S
C2604 C2606 1.353 . S
C2604 H2610 0.930 . S
N2605 Li2555 1.990 1_556 S
N2605 C2604 1.314 . S
N2605 C2608 1.279 . S
C2606 C2604 1.353 . S
C2606 C2609 1.348 . S
C2606 H2638 0.929 . S
C2607 C2608 1.358 . S
C2607 C2609 1.356 . S
C2607 H2639 0.930 . S
C2608 N2605 1.279 . S
C2608 C2607 1.358 . S
C2608 H2611 0.930 1_556 S
C2609 C2606 1.348 . S
C2609 C2607 1.356 . S
H2610 C2604 0.930 . S
H2611 C2608 0.930 1_554 S
O2612 Li2552 1.956 . S
O2612 Li2553 1.970 . S
O2612 Li2554 1.961 . S
O2612 C2556 1.325 . S
O2613 Li2552 1.970 . S
O2613 Li2553 1.956 . S
O2613 Li2555 1.961 . S
O2613 C2562 1.325 . S
O2614 Li2552 1.961 . S
O2614 Li2554 1.956 . S
O2614 Li2555 1.970 . S
O2614 C2584 1.325 . S
O2615 Li2553 1.961 . S
O2615 Li2554 1.970 . S
O2615 Li2555 1.956 . S
O2615 C2590 1.325 . S
H2616 C2558 0.929 . S
H2617 C2559 0.930 . S
H2618 C2560 0.930 . S
H2619 C2561 0.930 . S
H2620 C2563 0.930 . S
H2621 C2565 0.929 . S
H2622 C2566 0.925 1_554 S
H2623 C2567 0.930 . S
H2624 C2570 0.930 . S
H2625 C2573 0.929 . S
H2626 C2578 0.929 . S
H2627 C2579 0.930 . S
H2628 C2586 0.929 . S
H2629 C2587 0.930 . S
H2630 C2588 0.930 . S
H2631 C2589 0.930 . S
H2632 C2591 0.929 . S
H2633 C2592 0.930 . S
H2634 C2593 0.930 . S
H2635 C2594 0.930 . S
H2636 C2598 0.929 . S
H2637 C2600 0.930 . S
H2638 C2606 0.929 . S
H2639 C2607 0.930 . S
Li2640 N2657 1.990 . S
Li2640 O2700 1.956 . S
Li2640 O2701 1.970 . S
Li2640 O2702 1.961 . S
Li2641 N2665 1.990 . S
Li2641 O2700 1.970 . S
Li2641 O2701 1.956 . S
Li2641 O2703 1.961 . S
Li2642 N2687 1.990 . S
Li2642 O2700 1.961 . S
Li2642 O2702 1.956 . S
Li2642 O2703 1.970 . S
Li2643 N2693 1.990 . S
Li2643 O2701 1.961 . S
Li2643 O2702 1.970 . S
Li2643 O2703 1.956 . S
C2644 C2646 1.348 . S
C2644 C2647 1.356 . S
C2644 O2700 1.325 . S
N2645 C2648 1.314 . S
N2645 C2649 1.279 . S
C2646 C2644 1.348 . S
C2646 C2648 1.353 . S
C2646 H2704 0.929 . S
C2647 C2644 1.356 . S
C2647 C2649 1.358 . S
C2647 H2705 0.930 . S
C2648 N2645 1.314 . S
C2648 C2646 1.353 . S
C2648 H2706 0.930 . S
C2649 N2645 1.279 . S
C2649 C2647 1.358 . S
C2649 H2707 0.930 . S
C2650 C2653 1.348 . S
C2650 C2654 1.356 . S
C2650 O2701 1.325 . S
C2651 N2652 1.279 . S
C2651 C2654 1.358 . S
C2651 H2708 0.930 . S
N2652 C2651 1.279 . S
N2652 C2655 1.314 . S
C2653 C2650 1.348 . S
C2653 C2655 1.353 . S
C2653 H2709 0.929 . S
C2654 C2650 1.356 . S
C2654 C2651 1.358 . S
C2654 H2710 0.930 . S
C2655 N2652 1.314 . S
C2655 C2653 1.353 . S
C2655 H2711 0.930 . S
C2656 N2657 1.314 . S
C2656 C2661 1.353 . S
C2656 H2662 0.930 . S
N2657 Li2640 1.990 . S
N2657 C2656 1.314 . S
N2657 C2659 1.279 . S
C2658 C2659 1.358 . S
C2658 C2660 1.356 . S
C2658 H2712 0.930 . S
C2659 N2657 1.279 . S
C2659 C2658 1.358 . S
C2659 H2663 0.930 . S
C2660 C2658 1.356 . S
C2660 C2661 1.348 . S
C2661 C2656 1.353 . S
C2661 C2660 1.348 . S
C2661 H2713 0.929 . S
H2662 C2656 0.930 . S
H2663 C2659 0.930 . S
C2664 N2665 1.314 . S
C2664 C2666 1.353 . S
C2664 H2670 0.930 . S
N2665 Li2641 1.990 . S
N2665 C2664 1.314 . S
N2665 C2668 1.279 . S
C2666 C2664 1.353 . S
C2666 C2669 1.348 . S
C2666 H2714 0.929 . S
C2667 C2668 1.358 . S
C2667 C2669 1.356 . S
C2667 H2715 0.930 . S
C2668 N2665 1.279 . S
C2668 C2667 1.358 . S
C2668 H2671 0.930 . S
C2669 C2666 1.348 . S
C2669 C2667 1.356 . S
H2670 C2664 0.930 . S
H2671 C2668 0.930 . S
C2672 C2674 1.348 . S
C2672 C2675 1.356 . S
C2672 O2702 1.325 . S
N2673 C2676 1.314 . S
N2673 C2677 1.279 . S
C2674 C2672 1.348 . S
C2674 C2676 1.353 . S
C2674 H2716 0.929 . S
C2675 C2672 1.356 . S
C2675 C2677 1.358 . S
C2675 H2717 0.930 . S
C2676 N2673 1.314 . S
C2676 C2674 1.353 . S
C2676 H2718 0.930 . S
C2677 N2673 1.279 . S
C2677 C2675 1.358 . S
C2677 H2719 0.930 . S
C2678 C2679 1.348 . S
C2678 C2680 1.356 . S
C2678 O2703 1.325 . S
C2679 C2678 1.348 . S
C2679 C2681 1.353 . S
C2679 H2720 0.929 . S
C2680 C2678 1.356 . S
C2680 C2682 1.358 . S
C2680 H2721 0.930 . S
C2681 C2679 1.353 . S
C2681 N2683 1.314 . S
C2681 H2722 0.930 . S
C2682 C2680 1.358 . S
C2682 N2683 1.279 . S
C2682 H2723 0.930 . S
N2683 C2681 1.314 . S
N2683 C2682 1.279 . S
C2684 C2686 1.353 . S
C2684 N2687 1.314 . S
C2684 H2690 0.930 . S
C2685 N2687 1.279 . S
C2685 C2688 1.358 . S
C2685 H2691 0.930 . S
C2686 C2684 1.353 . S
C2686 C2689 1.348 . S
C2686 H2724 0.929 . S
N2687 Li2642 1.990 . S
N2687 C2684 1.314 . S
N2687 C2685 1.279 . S
C2688 C2685 1.358 . S
C2688 C2689 1.356 . S
C2688 H2725 0.930 . S
C2689 C2686 1.348 . S
C2689 C2688 1.356 . S
H2690 C2684 0.930 . S
H2691 C2685 0.930 . S
C2692 N2693 1.314 . S
C2692 C2694 1.353 . S
C2692 H2698 0.930 . S
N2693 Li2643 1.990 . S
N2693 C2692 1.314 . S
N2693 C2696 1.279 . S
C2694 C2692 1.353 . S
C2694 C2697 1.348 . S
C2694 H2726 0.929 . S
C2695 C2696 1.358 . S
C2695 C2697 1.356 . S
C2695 H2727 0.930 . S
C2696 N2693 1.279 . S
C2696 C2695 1.358 . S
C2696 H2699 0.930 . S
C2697 C2694 1.348 . S
C2697 C2695 1.356 . S
H2698 C2692 0.930 . S
H2699 C2696 0.930 . S
O2700 Li2640 1.956 . S
O2700 Li2641 1.970 . S
O2700 Li2642 1.961 . S
O2700 C2644 1.325 . S
O2701 Li2640 1.970 . S
O2701 Li2641 1.956 . S
O2701 Li2643 1.961 . S
O2701 C2650 1.325 . S
O2702 Li2640 1.961 . S
O2702 Li2642 1.956 . S
O2702 Li2643 1.970 . S
O2702 C2672 1.325 . S
O2703 Li2641 1.961 . S
O2703 Li2642 1.970 . S
O2703 Li2643 1.956 . S
O2703 C2678 1.325 . S
H2704 C2646 0.929 . S
H2705 C2647 0.930 . S
H2706 C2648 0.930 . S
H2707 C2649 0.930 . S
H2708 C2651 0.930 . S
H2709 C2653 0.929 . S
H2710 C2654 0.930 . S
H2711 C2655 0.930 . S
H2712 C2658 0.930 . S
H2713 C2661 0.929 . S
H2714 C2666 0.929 . S
H2715 C2667 0.930 . S
H2716 C2674 0.929 . S
H2717 C2675 0.930 . S
H2718 C2676 0.930 . S
H2719 C2677 0.930 . S
H2720 C2679 0.929 . S
H2721 C2680 0.930 . S
H2722 C2681 0.930 . S
H2723 C2682 0.930 . S
H2724 C2686 0.929 . S
H2725 C2688 0.930 . S
H2726 C2694 0.929 . S
H2727 C2695 0.930 . S
Li2728 N2745 1.990 . S
Li2728 O2788 1.956 . S
Li2728 O2789 1.970 . S
Li2728 O2790 1.961 . S
Li2729 N2753 1.990 . S
Li2729 O2788 1.970 . S
Li2729 O2789 1.956 . S
Li2729 O2791 1.961 . S
Li2730 N2775 1.990 . S
Li2730 O2788 1.961 . S
Li2730 O2790 1.956 . S
Li2730 O2791 1.970 . S
Li2731 N2781 1.990 . S
Li2731 O2789 1.961 . S
Li2731 O2790 1.970 . S
Li2731 O2791 1.956 . S
C2732 C2734 1.348 . S
C2732 C2735 1.356 . S
C2732 O2788 1.325 . S
N2733 C2736 1.314 . S
N2733 C2737 1.279 . S
C2734 C2732 1.348 . S
C2734 C2736 1.353 . S
C2734 H2792 0.929 . S
C2735 C2732 1.356 . S
C2735 C2737 1.358 . S
C2735 H2793 0.930 . S
C2736 N2733 1.314 . S
C2736 C2734 1.353 . S
C2736 H2794 0.930 . S
C2737 N2733 1.279 . S
C2737 C2735 1.358 . S
C2737 H2795 0.930 . S
C2738 C2741 1.348 . S
C2738 C2742 1.356 . S
C2738 O2789 1.325 . S
C2739 N2740 1.279 . S
C2739 C2742 1.358 . S
C2739 H2796 0.930 . S
N2740 C2739 1.279 . S
N2740 C2743 1.314 . S
C2741 C2738 1.348 . S
C2741 C2743 1.353 . S
C2741 H2797 0.929 . S
C2742 C2738 1.356 . S
C2742 C2739 1.358 . S
C2742 H2798 0.930 . S
C2743 N2740 1.314 . S
C2743 C2741 1.353 . S
C2743 H2799 0.930 . S
C2744 N2745 1.314 . S
C2744 C2749 1.353 . S
C2744 H2750 0.930 . S
N2745 Li2728 1.990 . S
N2745 C2744 1.314 . S
N2745 C2747 1.279 . S
C2746 C2747 1.358 . S
C2746 C2748 1.356 . S
C2746 H2800 0.930 . S
C2747 N2745 1.279 . S
C2747 C2746 1.358 . S
C2747 H2751 0.930 . S
C2748 C2746 1.356 . S
C2748 C2749 1.348 . S
C2749 C2744 1.353 . S
C2749 C2748 1.348 . S
C2749 H2801 0.929 . S
H2750 C2744 0.930 . S
H2751 C2747 0.930 . S
C2752 N2753 1.314 . S
C2752 C2754 1.353 . S
C2752 H2758 0.930 . S
N2753 Li2729 1.990 . S
N2753 C2752 1.314 . S
N2753 C2756 1.279 . S
C2754 C2752 1.353 . S
C2754 C2757 1.348 . S
C2754 H2802 0.929 . S
C2755 C2756 1.358 . S
C2755 C2757 1.356 . S
C2755 H2803 0.930 . S
C2756 N2753 1.279 . S
C2756 C2755 1.358 . S
C2756 H2759 0.930 . S
C2757 C2754 1.348 . S
C2757 C2755 1.356 . S
H2758 C2752 0.930 . S
H2759 C2756 0.930 . S
C2760 C2762 1.348 . S
C2760 C2763 1.356 . S
C2760 O2790 1.325 . S
N2761 C2764 1.314 . S
N2761 C2765 1.279 . S
C2762 C2760 1.348 . S
C2762 C2764 1.353 . S
C2762 H2804 0.929 . S
C2763 C2760 1.356 . S
C2763 C2765 1.358 . S
C2763 H2805 0.930 . S
C2764 N2761 1.314 . S
C2764 C2762 1.353 . S
C2764 H2806 0.930 . S
C2765 N2761 1.279 . S
C2765 C2763 1.358 . S
C2765 H2807 0.930 . S
C2766 C2767 1.348 . S
C2766 C2768 1.356 . S
C2766 O2791 1.325 . S
C2767 C2766 1.348 . S
C2767 C2769 1.353 . S
C2767 H2808 0.929 . S
C2768 C2766 1.356 . S
C2768 C2770 1.358 . S
C2768 H2809 0.930 . S
C2769 C2767 1.353 . S
C2769 N2771 1.314 . S
C2769 H2810 0.930 . S
C2770 C2768 1.358 . S
C2770 N2771 1.279 . S
C2770 H2811 0.930 . S
N2771 C2769 1.314 . S
N2771 C2770 1.279 . S
C2772 C2774 1.353 . S
C2772 N2775 1.314 . S
C2772 H2778 0.930 . S
C2773 N2775 1.279 . S
C2773 C2776 1.358 . S
C2773 H2779 0.930 . S
C2774 C2772 1.353 . S
C2774 C2777 1.348 . S
C2774 H2812 0.929 . S
N2775 Li2730 1.990 . S
N2775 C2772 1.314 . S
N2775 C2773 1.279 . S
C2776 C2773 1.358 . S
C2776 C2777 1.356 . S
C2776 H2813 0.930 . S
C2777 C2774 1.348 . S
C2777 C2776 1.356 . S
H2778 C2772 0.930 . S
H2779 C2773 0.930 . S
C2780 N2781 1.314 . S
C2780 C2782 1.353 . S
C2780 H2786 0.930 . S
N2781 Li2731 1.990 . S
N2781 C2780 1.314 . S
N2781 C2784 1.279 . S
C2782 C2780 1.353 . S
C2782 C2785 1.348 . S
C2782 H2814 0.929 . S
C2783 C2784 1.358 . S
C2783 C2785 1.356 . S
C2783 H2815 0.930 . S
C2784 N2781 1.279 . S
C2784 C2783 1.358 . S
C2784 H2787 0.930 . S
C2785 C2782 1.348 . S
C2785 C2783 1.356 . S
H2786 C2780 0.930 . S
H2787 C2784 0.930 . S
O2788 Li2728 1.956 . S
O2788 Li2729 1.970 . S
O2788 Li2730 1.961 . S
O2788 C2732 1.325 . S
O2789 Li2728 1.970 . S
O2789 Li2729 1.956 . S
O2789 Li2731 1.961 . S
O2789 C2738 1.325 . S
O2790 Li2728 1.961 . S
O2790 Li2730 1.956 . S
O2790 Li2731 1.970 . S
O2790 C2760 1.325 . S
O2791 Li2729 1.961 . S
O2791 Li2730 1.970 . S
O2791 Li2731 1.956 . S
O2791 C2766 1.325 . S
H2792 C2734 0.929 . S
H2793 C2735 0.930 . S
H2794 C2736 0.930 . S
H2795 C2737 0.930 . S
H2796 C2739 0.930 . S
H2797 C2741 0.929 . S
H2798 C2742 0.930 . S
H2799 C2743 0.930 . S
H2800 C2746 0.930 . S
H2801 C2749 0.929 . S
H2802 C2754 0.929 . S
H2803 C2755 0.930 . S
H2804 C2762 0.929 . S
H2805 C2763 0.930 . S
H2806 C2764 0.930 . S
H2807 C2765 0.930 . S
H2808 C2767 0.929 . S
H2809 C2768 0.930 . S
H2810 C2769 0.930 . S
H2811 C2770 0.930 . S
H2812 C2774 0.929 . S
H2813 C2776 0.930 . S
H2814 C2782 0.929 . S
H2815 C2783 0.930 . S
Li2816 N2833 1.990 . S
Li2816 O2876 1.956 . S
Li2816 O2877 1.970 . S
Li2816 O2878 1.961 . S
Li2817 N2841 1.990 . S
Li2817 O2876 1.970 . S
Li2817 O2877 1.956 . S
Li2817 O2879 1.961 . S
Li2818 N2863 1.990 . S
Li2818 O2876 1.961 . S
Li2818 O2878 1.956 . S
Li2818 O2879 1.970 . S
Li2819 N2869 1.990 . S
Li2819 O2877 1.961 . S
Li2819 O2878 1.970 . S
Li2819 O2879 1.956 . S
C2820 C2822 1.348 . S
C2820 C2823 1.356 . S
C2820 O2876 1.325 . S
N2821 C2824 1.314 . S
N2821 C2825 1.279 . S
C2822 C2820 1.348 . S
C2822 C2824 1.353 . S
C2822 H2880 0.929 . S
C2823 C2820 1.356 . S
C2823 C2825 1.358 . S
C2823 H2881 0.930 . S
C2824 N2821 1.314 . S
C2824 C2822 1.353 . S
C2824 H2882 0.930 . S
C2825 N2821 1.279 . S
C2825 C2823 1.358 . S
C2825 H2883 0.930 . S
C2826 C2829 1.348 . S
C2826 C2830 1.356 . S
C2826 O2877 1.325 . S
C2827 N2828 1.279 . S
C2827 C2830 1.358 . S
C2827 H2884 0.930 . S
N2828 C2827 1.279 . S
N2828 C2831 1.314 . S
C2829 C2826 1.348 . S
C2829 C2831 1.353 . S
C2829 H2885 0.929 . S
C2830 C2826 1.356 . S
C2830 C2827 1.358 . S
C2830 H2886 0.930 . S
C2831 N2828 1.314 . S
C2831 C2829 1.353 . S
C2831 H2887 0.930 . S
C2832 N2833 1.314 . S
C2832 C2837 1.353 . S
C2832 H2838 0.930 . S
N2833 Li2816 1.990 . S
N2833 C2832 1.314 . S
N2833 C2835 1.279 . S
C2834 C2835 1.358 . S
C2834 C2836 1.356 . S
C2834 H2888 0.930 . S
C2835 N2833 1.279 . S
C2835 C2834 1.358 . S
C2835 H2839 0.930 . S
C2836 C2834 1.356 . S
C2836 C2837 1.348 . S
C2837 C2832 1.353 . S
C2837 C2836 1.348 . S
C2837 H2889 0.929 . S
H2838 C2832 0.930 . S
H2839 C2835 0.930 . S
C2840 N2841 1.314 . S
C2840 C2842 1.353 . S
C2840 H2846 0.930 . S
N2841 Li2817 1.990 . S
N2841 C2840 1.314 . S
N2841 C2844 1.279 . S
C2842 C2840 1.353 . S
C2842 C2845 1.348 . S
C2842 H2890 0.929 . S
C2843 C2844 1.358 . S
C2843 C2845 1.356 . S
C2843 H2891 0.930 . S
C2844 N2841 1.279 . S
C2844 C2843 1.358 . S
C2844 H2847 0.930 . S
C2845 C2842 1.348 . S
C2845 C2843 1.356 . S
H2846 C2840 0.930 . S
H2847 C2844 0.930 . S
C2848 C2850 1.348 . S
C2848 C2851 1.356 . S
C2848 O2878 1.325 . S
N2849 C2852 1.314 . S
N2849 C2853 1.279 . S
C2850 C2848 1.348 . S
C2850 C2852 1.353 . S
C2850 H2892 0.929 . S
C2851 C2848 1.356 . S
C2851 C2853 1.358 . S
C2851 H2893 0.930 . S
C2852 N2849 1.314 . S
C2852 C2850 1.353 . S
C2852 H2894 0.930 . S
C2853 N2849 1.279 . S
C2853 C2851 1.358 . S
C2853 H2895 0.930 . S
C2854 C2855 1.348 . S
C2854 C2856 1.356 . S
C2854 O2879 1.325 . S
C2855 C2854 1.348 . S
C2855 C2857 1.353 . S
C2855 H2896 0.929 . S
C2856 C2854 1.356 . S
C2856 C2858 1.358 . S
C2856 H2897 0.930 . S
C2857 C2855 1.353 . S
C2857 N2859 1.314 . S
C2857 H2898 0.930 . S
C2858 C2856 1.358 . S
C2858 N2859 1.279 . S
C2858 H2899 0.930 . S
N2859 C2857 1.314 . S
N2859 C2858 1.279 . S
C2860 C2862 1.353 . S
C2860 N2863 1.314 . S
C2860 H2866 0.930 . S
C2861 N2863 1.279 . S
C2861 C2864 1.358 . S
C2861 H2867 0.930 . S
C2862 C2860 1.353 . S
C2862 C2865 1.348 . S
C2862 H2900 0.929 . S
N2863 Li2818 1.990 . S
N2863 C2860 1.314 . S
N2863 C2861 1.279 . S
C2864 C2861 1.358 . S
C2864 C2865 1.356 . S
C2864 H2901 0.930 . S
C2865 C2862 1.348 . S
C2865 C2864 1.356 . S
H2866 C2860 0.930 . S
H2867 C2861 0.930 . S
C2868 N2869 1.314 . S
C2868 C2870 1.353 . S
C2868 H2874 0.930 . S
N2869 Li2819 1.990 . S
N2869 C2868 1.314 . S
N2869 C2872 1.279 . S
C2870 C2868 1.353 . S
C2870 C2873 1.348 . S
C2870 H2902 0.929 . S
C2871 C2872 1.358 . S
C2871 C2873 1.356 . S
C2871 H2903 0.930 . S
C2872 N2869 1.279 . S
C2872 C2871 1.358 . S
C2872 H2875 0.930 . S
C2873 C2870 1.348 . S
C2873 C2871 1.356 . S
H2874 C2868 0.930 . S
H2875 C2872 0.930 . S
O2876 Li2816 1.956 . S
O2876 Li2817 1.970 . S
O2876 Li2818 1.961 . S
O2876 C2820 1.325 . S
O2877 Li2816 1.970 . S
O2877 Li2817 1.956 . S
O2877 Li2819 1.961 . S
O2877 C2826 1.325 . S
O2878 Li2816 1.961 . S
O2878 Li2818 1.956 . S
O2878 Li2819 1.970 . S
O2878 C2848 1.325 . S
O2879 Li2817 1.961 . S
O2879 Li2818 1.970 . S
O2879 Li2819 1.956 . S
O2879 C2854 1.325 . S
H2880 C2822 0.929 . S
H2881 C2823 0.930 . S
H2882 C2824 0.930 . S
H2883 C2825 0.930 . S
H2884 C2827 0.930 . S
H2885 C2829 0.929 . S
H2886 C2830 0.930 . S
H2887 C2831 0.930 . S
H2888 C2834 0.930 . S
H2889 C2837 0.929 . S
H2890 C2842 0.929 . S
H2891 C2843 0.930 . S
H2892 C2850 0.929 . S
H2893 C2851 0.930 . S
H2894 C2852 0.930 . S
H2895 C2853 0.930 . S
H2896 C2855 0.929 . S
H2897 C2856 0.930 . S
H2898 C2857 0.930 . S
H2899 C2858 0.930 . S
H2900 C2862 0.929 . S
H2901 C2864 0.930 . S
H2902 C2870 0.929 . S
H2903 C2871 0.930 . S
Li2904 N2921 1.990 . S
Li2904 O2964 1.956 . S
Li2904 O2965 1.970 . S
Li2904 O2966 1.961 . S
Li2905 N2929 1.990 . S
Li2905 O2964 1.970 . S
Li2905 O2965 1.956 . S
Li2905 O2967 1.961 . S
Li2906 N2951 1.990 . S
Li2906 O2964 1.961 . S
Li2906 O2966 1.956 . S
Li2906 O2967 1.970 . S
Li2907 N2957 1.990 . S
Li2907 O2965 1.961 . S
Li2907 O2966 1.970 . S
Li2907 O2967 1.956 . S
C2908 C2910 1.348 . S
C2908 C2911 1.356 . S
C2908 O2964 1.325 . S
N2909 C2912 1.314 . S
N2909 C2913 1.279 . S
C2910 C2908 1.348 . S
C2910 C2912 1.353 . S
C2910 H2968 0.929 . S
C2911 C2908 1.356 . S
C2911 C2913 1.358 . S
C2911 H2969 0.930 . S
C2912 N2909 1.314 . S
C2912 C2910 1.353 . S
C2912 H2970 0.930 . S
C2913 N2909 1.279 . S
C2913 C2911 1.358 . S
C2913 H2971 0.930 . S
C2914 C2917 1.348 . S
C2914 C2918 1.356 . S
C2914 O2965 1.325 . S
C2915 N2916 1.279 . S
C2915 C2918 1.358 . S
C2915 H2972 0.930 . S
N2916 C2915 1.279 . S
N2916 C2919 1.314 . S
C2917 C2914 1.348 . S
C2917 C2919 1.353 . S
C2917 H2973 0.929 . S
C2918 C2914 1.356 . S
C2918 C2915 1.358 . S
C2918 H2974 0.930 . S
C2919 N2916 1.314 . S
C2919 C2917 1.353 . S
C2919 H2975 0.930 . S
C2920 N2921 1.314 . S
C2920 C2925 1.353 . S
C2920 H2926 0.930 . S
N2921 Li2904 1.990 . S
N2921 C2920 1.314 . S
N2921 C2923 1.279 . S
C2922 C2923 1.358 . S
C2922 C2924 1.356 . S
C2922 H2976 0.930 . S
C2923 N2921 1.279 . S
C2923 C2922 1.358 . S
C2923 H2927 0.930 . S
C2924 C2922 1.356 . S
C2924 C2925 1.348 . S
C2925 C2920 1.353 . S
C2925 C2924 1.348 . S
C2925 H2977 0.929 . S
H2926 C2920 0.930 . S
H2927 C2923 0.930 . S
C2928 N2929 1.314 . S
C2928 C2930 1.353 . S
C2928 H2934 0.930 . S
N2929 Li2905 1.990 . S
N2929 C2928 1.314 . S
N2929 C2932 1.279 . S
C2930 C2928 1.353 . S
C2930 C2933 1.348 . S
C2930 H2978 0.929 . S
C2931 C2932 1.358 . S
C2931 C2933 1.356 . S
C2931 H2979 0.930 . S
C2932 N2929 1.279 . S
C2932 C2931 1.358 . S
C2932 H2935 0.930 . S
C2933 C2930 1.348 . S
C2933 C2931 1.356 . S
H2934 C2928 0.930 . S
H2935 C2932 0.930 . S
C2936 C2938 1.348 . S
C2936 C2939 1.356 . S
C2936 O2966 1.325 . S
N2937 C2940 1.314 . S
N2937 C2941 1.279 . S
C2938 C2936 1.348 . S
C2938 C2940 1.353 . S
C2938 H2980 0.929 . S
C2939 C2936 1.356 . S
C2939 C2941 1.358 . S
C2939 H2981 0.930 . S
C2940 N2937 1.314 . S
C2940 C2938 1.353 . S
C2940 H2982 0.930 . S
C2941 N2937 1.279 . S
C2941 C2939 1.358 . S
C2941 H2983 0.930 . S
C2942 C2943 1.348 . S
C2942 C2944 1.356 . S
C2942 O2967 1.325 . S
C2943 C2942 1.348 . S
C2943 C2945 1.353 . S
C2943 H2984 0.929 . S
C2944 C2942 1.356 . S
C2944 C2946 1.358 . S
C2944 H2985 0.930 . S
C2945 C2943 1.353 . S
C2945 N2947 1.314 . S
C2945 H2986 0.930 . S
C2946 C2944 1.358 . S
C2946 N2947 1.279 . S
C2946 H2987 0.930 . S
N2947 C2945 1.314 . S
N2947 C2946 1.279 . S
C2948 C2950 1.353 . S
C2948 N2951 1.314 . S
C2948 H2954 0.930 . S
C2949 N2951 1.279 . S
C2949 C2952 1.358 . S
C2949 H2955 0.930 . S
C2950 C2948 1.353 . S
C2950 C2953 1.348 . S
C2950 H2988 0.929 . S
N2951 Li2906 1.990 . S
N2951 C2948 1.314 . S
N2951 C2949 1.279 . S
C2952 C2949 1.358 . S
C2952 C2953 1.356 . S
C2952 H2989 0.930 . S
C2953 C2950 1.348 . S
C2953 C2952 1.356 . S
H2954 C2948 0.930 . S
H2955 C2949 0.930 . S
C2956 N2957 1.314 . S
C2956 C2958 1.353 . S
C2956 H2962 0.930 . S
N2957 Li2907 1.990 . S
N2957 C2956 1.314 . S
N2957 C2960 1.279 . S
C2958 C2956 1.353 . S
C2958 C2961 1.348 . S
C2958 H2990 0.929 . S
C2959 C2960 1.358 . S
C2959 C2961 1.356 . S
C2959 H2991 0.930 . S
C2960 N2957 1.279 . S
C2960 C2959 1.358 . S
C2960 H2963 0.930 . S
C2961 C2958 1.348 . S
C2961 C2959 1.356 . S
H2962 C2956 0.930 . S
H2963 C2960 0.930 . S
O2964 Li2904 1.956 . S
O2964 Li2905 1.970 . S
O2964 Li2906 1.961 . S
O2964 C2908 1.325 . S
O2965 Li2904 1.970 . S
O2965 Li2905 1.956 . S
O2965 Li2907 1.961 . S
O2965 C2914 1.325 . S
O2966 Li2904 1.961 . S
O2966 Li2906 1.956 . S
O2966 Li2907 1.970 . S
O2966 C2936 1.325 . S
O2967 Li2905 1.961 . S
O2967 Li2906 1.970 . S
O2967 Li2907 1.956 . S
O2967 C2942 1.325 . S
H2968 C2910 0.929 . S
H2969 C2911 0.930 . S
H2970 C2912 0.930 . S
H2971 C2913 0.930 . S
H2972 C2915 0.930 . S
H2973 C2917 0.929 . S
H2974 C2918 0.930 . S
H2975 C2919 0.930 . S
H2976 C2922 0.930 . S
H2977 C2925 0.929 . S
H2978 C2930 0.929 . S
H2979 C2931 0.930 . S
H2980 C2938 0.929 . S
H2981 C2939 0.930 . S
H2982 C2940 0.930 . S
H2983 C2941 0.930 . S
H2984 C2943 0.929 . S
H2985 C2944 0.930 . S
H2986 C2945 0.930 . S
H2987 C2946 0.930 . S
H2988 C2950 0.929 . S
H2989 C2952 0.930 . S
H2990 C2958 0.929 . S
H2991 C2959 0.930 . S
Li2992 N3009 1.990 . S
Li2992 O3052 1.956 . S
Li2992 O3053 1.970 . S
Li2992 O3054 1.961 . S
Li2993 N3017 1.990 . S
Li2993 O3052 1.970 . S
Li2993 O3053 1.956 . S
Li2993 O3055 1.961 . S
Li2994 N3039 1.990 . S
Li2994 O3052 1.961 . S
Li2994 O3054 1.956 . S
Li2994 O3055 1.970 . S
Li2995 N3045 1.990 . S
Li2995 O3053 1.961 . S
Li2995 O3054 1.970 . S
Li2995 O3055 1.956 . S
C2996 C2998 1.348 . S
C2996 C2999 1.356 . S
C2996 O3052 1.325 . S
N2997 C3000 1.314 . S
N2997 C3001 1.279 . S
C2998 C2996 1.348 . S
C2998 C3000 1.353 . S
C2998 H3056 0.929 . S
C2999 C2996 1.356 . S
C2999 C3001 1.358 . S
C2999 H3057 0.930 . S
C3000 N2997 1.314 . S
C3000 C2998 1.353 . S
C3000 H3058 0.930 . S
C3001 N2997 1.279 . S
C3001 C2999 1.358 . S
C3001 H3059 0.930 . S
C3002 C3005 1.348 . S
C3002 C3006 1.356 . S
C3002 O3053 1.325 . S
C3003 N3004 1.279 . S
C3003 C3006 1.358 . S
C3003 H3060 0.930 . S
N3004 C3003 1.279 . S
N3004 C3007 1.314 . S
C3005 C3002 1.348 . S
C3005 C3007 1.353 . S
C3005 H3061 0.929 . S
C3006 C3002 1.356 . S
C3006 C3003 1.358 . S
C3006 H3062 0.930 . S
C3007 N3004 1.314 . S
C3007 C3005 1.353 . S
C3007 H3063 0.930 . S
C3008 N3009 1.314 . S
C3008 C3013 1.353 . S
C3008 H3014 0.930 . S
N3009 Li2992 1.990 . S
N3009 C3008 1.314 . S
N3009 C3011 1.279 . S
C3010 C3011 1.358 . S
C3010 C3012 1.356 . S
C3010 H3064 0.930 . S
C3011 N3009 1.279 . S
C3011 C3010 1.358 . S
C3011 H3015 0.930 . S
C3012 C3010 1.356 . S
C3012 C3013 1.348 . S
C3013 C3008 1.353 . S
C3013 C3012 1.348 . S
C3013 H3065 0.929 . S
H3014 C3008 0.930 . S
H3015 C3011 0.930 . S
C3016 N3017 1.314 . S
C3016 C3018 1.353 . S
C3016 H3022 0.930 . S
N3017 Li2993 1.990 . S
N3017 C3016 1.314 . S
N3017 C3020 1.279 . S
C3018 C3016 1.353 . S
C3018 C3021 1.348 . S
C3018 H3066 0.929 . S
C3019 C3020 1.358 . S
C3019 C3021 1.356 . S
C3019 H3067 0.930 . S
C3020 N3017 1.279 . S
C3020 C3019 1.358 . S
C3020 H3023 0.930 . S
C3021 C3018 1.348 . S
C3021 C3019 1.356 . S
H3022 C3016 0.930 . S
H3023 C3020 0.930 . S
C3024 C3026 1.348 . S
C3024 C3027 1.356 . S
C3024 O3054 1.325 . S
N3025 C3028 1.314 . S
N3025 C3029 1.279 . S
C3026 C3024 1.348 . S
C3026 C3028 1.353 . S
C3026 H3068 0.929 . S
C3027 C3024 1.356 . S
C3027 C3029 1.358 . S
C3027 H3069 0.930 . S
C3028 N3025 1.314 . S
C3028 C3026 1.353 . S
C3028 H3070 0.930 . S
C3029 N3025 1.279 . S
C3029 C3027 1.358 . S
C3029 H3071 0.930 . S
C3030 C3031 1.348 . S
C3030 C3032 1.356 . S
C3030 O3055 1.325 . S
C3031 C3030 1.348 . S
C3031 C3033 1.353 . S
C3031 H3072 0.929 . S
C3032 C3030 1.356 . S
C3032 C3034 1.358 . S
C3032 H3073 0.930 . S
C3033 C3031 1.353 . S
C3033 N3035 1.314 . S
C3033 H3074 0.930 . S
C3034 C3032 1.358 . S
C3034 N3035 1.279 . S
C3034 H3075 0.930 . S
N3035 C3033 1.314 . S
N3035 C3034 1.279 . S
C3036 C3038 1.353 . S
C3036 N3039 1.314 . S
C3036 H3042 0.930 . S
C3037 N3039 1.279 . S
C3037 C3040 1.358 . S
C3037 H3043 0.930 . S
C3038 C3036 1.353 . S
C3038 C3041 1.348 . S
C3038 H3076 0.929 . S
N3039 Li2994 1.990 . S
N3039 C3036 1.314 . S
N3039 C3037 1.279 . S
C3040 C3037 1.358 . S
C3040 C3041 1.356 . S
C3040 H3077 0.930 . S
C3041 C3038 1.348 . S
C3041 C3040 1.356 . S
H3042 C3036 0.930 . S
H3043 C3037 0.930 . S
C3044 N3045 1.314 . S
C3044 C3046 1.353 . S
C3044 H3050 0.930 . S
N3045 Li2995 1.990 . S
N3045 C3044 1.314 . S
N3045 C3048 1.279 . S
C3046 C3044 1.353 . S
C3046 C3049 1.348 . S
C3046 H3078 0.929 . S
C3047 C3048 1.358 . S
C3047 C3049 1.356 . S
C3047 H3079 0.930 . S
C3048 N3045 1.279 . S
C3048 C3047 1.358 . S
C3048 H3051 0.930 . S
C3049 C3046 1.348 . S
C3049 C3047 1.356 . S
H3050 C3044 0.930 . S
H3051 C3048 0.930 . S
O3052 Li2992 1.956 . S
O3052 Li2993 1.970 . S
O3052 Li2994 1.961 . S
O3052 C2996 1.325 . S
O3053 Li2992 1.970 . S
O3053 Li2993 1.956 . S
O3053 Li2995 1.961 . S
O3053 C3002 1.325 . S
O3054 Li2992 1.961 . S
O3054 Li2994 1.956 . S
O3054 Li2995 1.970 . S
O3054 C3024 1.325 . S
O3055 Li2993 1.961 . S
O3055 Li2994 1.970 . S
O3055 Li2995 1.956 . S
O3055 C3030 1.325 . S
H3056 C2998 0.929 . S
H3057 C2999 0.930 . S
H3058 C3000 0.930 . S
H3059 C3001 0.930 . S
H3060 C3003 0.930 . S
H3061 C3005 0.929 . S
H3062 C3006 0.930 . S
H3063 C3007 0.930 . S
H3064 C3010 0.930 . S
H3065 C3013 0.929 . S
H3066 C3018 0.929 . S
H3067 C3019 0.930 . S
H3068 C3026 0.929 . S
H3069 C3027 0.930 . S
H3070 C3028 0.930 . S
H3071 C3029 0.930 . S
H3072 C3031 0.929 . S
H3073 C3032 0.930 . S
H3074 C3033 0.930 . S
H3075 C3034 0.930 . S
H3076 C3038 0.929 . S
H3077 C3040 0.930 . S
H3078 C3046 0.929 . S
H3079 C3047 0.930 . S
Li3080 N3097 1.990 . S
Li3080 O3140 1.956 . S
Li3080 O3141 1.970 . S
Li3080 O3142 1.961 . S
Li3081 N3105 1.990 . S
Li3081 O3140 1.970 . S
Li3081 O3141 1.956 . S
Li3081 O3143 1.961 . S
Li3082 N3127 1.990 . S
Li3082 O3140 1.961 . S
Li3082 O3142 1.956 . S
Li3082 O3143 1.970 . S
Li3083 N3133 1.990 . S
Li3083 O3141 1.961 . S
Li3083 O3142 1.970 . S
Li3083 O3143 1.956 . S
C3084 C3086 1.348 . S
C3084 C3087 1.356 . S
C3084 O3140 1.325 . S
N3085 C3088 1.314 . S
N3085 C3089 1.279 . S
C3086 C3084 1.348 . S
C3086 C3088 1.353 . S
C3086 H3144 0.929 . S
C3087 C3084 1.356 . S
C3087 C3089 1.358 . S
C3087 H3145 0.930 . S
C3088 N3085 1.314 . S
C3088 C3086 1.353 . S
C3088 H3146 0.930 . S
C3089 N3085 1.279 . S
C3089 C3087 1.358 . S
C3089 H3147 0.930 . S
C3090 C3093 1.348 . S
C3090 C3094 1.356 . S
C3090 O3141 1.325 . S
C3091 N3092 1.279 . S
C3091 C3094 1.358 . S
C3091 H3148 0.930 . S
N3092 C3091 1.279 . S
N3092 C3095 1.314 . S
C3093 C3090 1.348 . S
C3093 C3095 1.353 . S
C3093 H3149 0.929 . S
C3094 C3090 1.356 . S
C3094 C3091 1.358 . S
C3094 H3150 0.930 . S
C3095 N3092 1.314 . S
C3095 C3093 1.353 . S
C3095 H3151 0.930 . S
C3096 N3097 1.314 . S
C3096 C3101 1.353 . S
C3096 H3102 0.930 . S
N3097 Li3080 1.990 . S
N3097 C3096 1.314 . S
N3097 C3099 1.279 . S
C3098 C3099 1.358 . S
C3098 C3100 1.356 . S
C3098 H3152 0.930 . S
C3099 N3097 1.279 . S
C3099 C3098 1.358 . S
C3099 H3103 0.930 . S
C3100 C3098 1.356 . S
C3100 C3101 1.348 . S
C3101 C3096 1.353 . S
C3101 C3100 1.348 . S
C3101 H3153 0.929 . S
H3102 C3096 0.930 . S
H3103 C3099 0.930 . S
C3104 N3105 1.314 . S
C3104 C3106 1.353 . S
C3104 H3110 0.930 . S
N3105 Li3081 1.990 . S
N3105 C3104 1.314 . S
N3105 C3108 1.279 . S
C3106 C3104 1.353 . S
C3106 C3109 1.348 . S
C3106 H3154 0.929 . S
C3107 C3108 1.358 . S
C3107 C3109 1.356 . S
C3107 H3155 0.930 . S
C3108 N3105 1.279 . S
C3108 C3107 1.358 . S
C3108 H3111 0.930 . S
C3109 C3106 1.348 . S
C3109 C3107 1.356 . S
H3110 C3104 0.930 . S
H3111 C3108 0.930 . S
C3112 C3114 1.348 . S
C3112 C3115 1.356 . S
C3112 O3142 1.325 . S
N3113 C3116 1.314 . S
N3113 C3117 1.279 . S
C3114 C3112 1.348 . S
C3114 C3116 1.353 . S
C3114 H3156 0.929 . S
C3115 C3112 1.356 . S
C3115 C3117 1.358 . S
C3115 H3157 0.930 . S
C3116 N3113 1.314 . S
C3116 C3114 1.353 . S
C3116 H3158 0.930 . S
C3117 N3113 1.279 . S
C3117 C3115 1.358 . S
C3117 H3159 0.930 . S
C3118 C3119 1.348 . S
C3118 C3120 1.356 . S
C3118 O3143 1.325 . S
C3119 C3118 1.348 . S
C3119 C3121 1.353 . S
C3119 H3160 0.929 . S
C3120 C3118 1.356 . S
C3120 C3122 1.358 . S
C3120 H3161 0.930 . S
C3121 C3119 1.353 . S
C3121 N3123 1.314 . S
C3121 H3162 0.930 . S
C3122 C3120 1.358 . S
C3122 N3123 1.279 . S
C3122 H3163 0.930 . S
N3123 C3121 1.314 . S
N3123 C3122 1.279 . S
C3124 C3126 1.353 . S
C3124 N3127 1.314 . S
C3124 H3130 0.930 . S
C3125 N3127 1.279 . S
C3125 C3128 1.358 . S
C3125 H3131 0.930 . S
C3126 C3124 1.353 . S
C3126 C3129 1.348 . S
C3126 H3164 0.929 . S
N3127 Li3082 1.990 . S
N3127 C3124 1.314 . S
N3127 C3125 1.279 . S
C3128 C3125 1.358 . S
C3128 C3129 1.356 . S
C3128 H3165 0.930 . S
C3129 C3126 1.348 . S
C3129 C3128 1.356 . S
H3130 C3124 0.930 . S
H3131 C3125 0.930 . S
C3132 N3133 1.314 . S
C3132 C3134 1.353 . S
C3132 H3138 0.930 . S
N3133 Li3083 1.990 . S
N3133 C3132 1.314 . S
N3133 C3136 1.279 . S
C3134 C3132 1.353 . S
C3134 C3137 1.348 . S
C3134 H3166 0.929 . S
C3135 C3136 1.358 . S
C3135 C3137 1.356 . S
C3135 H3167 0.930 . S
C3136 N3133 1.279 . S
C3136 C3135 1.358 . S
C3136 H3139 0.930 . S
C3137 C3134 1.348 . S
C3137 C3135 1.356 . S
H3138 C3132 0.930 . S
H3139 C3136 0.930 . S
O3140 Li3080 1.956 . S
O3140 Li3081 1.970 . S
O3140 Li3082 1.961 . S
O3140 C3084 1.325 . S
O3141 Li3080 1.970 . S
O3141 Li3081 1.956 . S
O3141 Li3083 1.961 . S
O3141 C3090 1.325 . S
O3142 Li3080 1.961 . S
O3142 Li3082 1.956 . S
O3142 Li3083 1.970 . S
O3142 C3112 1.325 . S
O3143 Li3081 1.961 . S
O3143 Li3082 1.970 . S
O3143 Li3083 1.956 . S
O3143 C3118 1.325 . S
H3144 C3086 0.929 . S
H3145 C3087 0.930 . S
H3146 C3088 0.930 . S
H3147 C3089 0.930 . S
H3148 C3091 0.930 . S
H3149 C3093 0.929 . S
H3150 C3094 0.930 . S
H3151 C3095 0.930 . S
H3152 C3098 0.930 . S
H3153 C3101 0.929 . S
H3154 C3106 0.929 . S
H3155 C3107 0.930 . S
H3156 C3114 0.929 . S
H3157 C3115 0.930 . S
H3158 C3116 0.930 . S
H3159 C3117 0.930 . S
H3160 C3119 0.929 . S
H3161 C3120 0.930 . S
H3162 C3121 0.930 . S
H3163 C3122 0.930 . S
H3164 C3126 0.929 . S
H3165 C3128 0.930 . S
H3166 C3134 0.929 . S
H3167 C3135 0.930 . S
H3168 C3174 0.930 1_565 S
H3169 C3177 0.930 . S
H3170 C3178 0.930 . S
H3171 C3179 0.930 1_545 S
H3172 C3182 0.930 . S
H3173 C3183 0.930 . S
C3174 H3168 0.930 1_545 S
C3174 C3175 1.355 . S
C3174 C3176 1.415 1_545 S
C3175 C3174 1.355 . S
C3175 C3177 1.419 . S
C3176 C3174 1.415 1_565 S
C3176 C3181 1.425 1_565 S
C3176 C3183 1.409 . S
C3177 H3169 0.930 . S
C3177 C3175 1.419 . S
C3177 C3178 1.362 . S
C3178 H3170 0.930 . S
C3178 C3177 1.362 . S
C3178 C3181 1.409 . S
C3179 H3171 0.930 1_565 S
C3179 C3180 1.355 . S
C3179 C3181 1.415 1_566 S
C3180 C3179 1.355 . S
C3180 C3182 1.419 1_556 S
C3181 C3176 1.425 1_545 S
C3181 C3178 1.409 . S
C3181 C3179 1.415 1_544 S
C3182 H3172 0.930 . S
C3182 C3180 1.419 1_554 S
C3182 C3183 1.362 . S
C3183 H3173 0.930 . S
C3183 C3176 1.409 . S
C3183 C3182 1.362 . S
H3184 C3190 0.930 . S
H3185 C3193 0.930 . S
H3186 C3194 0.899 1_455 S
H3187 C3195 0.914 1_556 S
H3188 C3198 0.918 1_556 S
H3189 C3199 0.930 . S
C3190 H3184 0.930 . S
C3190 C3191 1.355 . S
C3190 C3192 1.415 . S
C3191 C3190 1.355 . S
C3191 C3193 1.419 . S
C3192 C3190 1.415 . S
C3192 C3197 1.425 1_655 S
C3192 C3199 1.409 . S
C3193 H3185 0.930 . S
C3193 C3191 1.419 . S
C3193 C3194 1.383 . S
C3194 H3186 0.899 1_655 S
C3194 C3193 1.383 . S
C3194 C3197 1.420 1_655 S
C3195 H3187 0.914 1_554 S
C3195 C3196 1.337 1_554 S
C3195 C3197 1.450 . S
C3196 C3195 1.337 1_556 S
C3196 C3198 1.408 1_556 S
C3197 C3192 1.425 1_455 S
C3197 C3194 1.420 1_455 S
C3197 C3195 1.450 . S
C3198 H3188 0.918 1_554 S
C3198 C3196 1.408 1_554 S
C3198 C3199 1.386 1_455 S
C3199 H3189 0.930 . S
C3199 C3192 1.409 . S
C3199 C3198 1.386 1_655 S
H3200 C3206 0.930 . S
H3201 C3209 0.930 . S
H3202 C3210 0.930 . S
H3203 C3211 0.930 . S
H3204 C3214 0.930 . S
H3205 C3215 0.930 . S
C3206 H3200 0.930 . S
C3206 C3207 1.355 . S
C3206 C3208 1.415 1_556 S
C3207 C3206 1.355 . S
C3207 C3209 1.419 1_556 S
C3208 C3206 1.415 1_554 S
C3208 C3213 1.425 . S
C3208 C3215 1.409 . S
C3209 H3201 0.930 . S
C3209 C3207 1.419 1_554 S
C3209 C3210 1.362 . S
C3210 H3202 0.930 . S
C3210 C3209 1.362 . S
C3210 C3213 1.409 . S
C3211 H3203 0.930 . S
C3211 C3212 1.355 . S
C3211 C3213 1.415 . S
C3212 C3211 1.355 . S
C3212 C3214 1.419 . S
C3213 C3208 1.425 . S
C3213 C3210 1.409 . S
C3213 C3211 1.415 . S
C3214 H3204 0.930 . S
C3214 C3212 1.419 . S
C3214 C3215 1.362 . S
C3215 H3205 0.930 . S
C3215 C3208 1.409 . S
C3215 C3214 1.362 . S
H3216 C3222 0.930 . S
H3217 C3225 0.930 . S
H3218 C3226 0.930 . S
H3219 C3227 0.930 . S
H3220 C3230 0.930 . S
H3221 C3231 0.930 . S
C3222 H3216 0.930 . S
C3222 C3223 1.355 . S
C3222 C3224 1.415 1_655 S
C3223 C3222 1.355 . S
C3223 C3225 1.419 . S
C3224 C3222 1.415 1_455 S
C3224 C3229 1.440 . S
C3224 C3231 1.409 . S
C3225 H3217 0.930 . S
C3225 C3223 1.419 . S
C3225 C3226 1.362 . S
C3226 H3218 0.930 . S
C3226 C3225 1.362 . S
C3226 C3229 1.376 1_655 S
C3227 H3219 0.930 . S
C3227 C3228 1.355 . S
C3227 C3229 1.435 . S
C3228 C3227 1.355 . S
C3228 C3230 1.419 . S
C3229 C3224 1.440 . S
C3229 C3226 1.376 1_455 S
C3229 C3227 1.435 . S
C3230 H3220 0.930 . S
C3230 C3228 1.419 . S
C3230 C3231 1.362 . S
C3231 H3221 0.930 . S
C3231 C3224 1.409 . S
C3231 C3230 1.362 . S
H3232 C3238 0.930 . S
H3233 C3241 0.930 . S
H3234 C3242 0.930 . S
H3235 C3243 0.930 . S
H3236 C3246 0.930 . S
H3237 C3247 0.930 . S
C3238 H3232 0.930 . S
C3238 C3239 1.355 . S
C3238 C3240 1.415 . S
C3239 C3238 1.355 . S
C3239 C3241 1.419 . S
C3240 C3238 1.415 . S
C3240 C3245 1.425 . S
C3240 C3247 1.409 . S
C3241 H3233 0.930 . S
C3241 C3239 1.419 . S
C3241 C3242 1.362 . S
C3242 H3234 0.930 . S
C3242 C3241 1.362 . S
C3242 C3245 1.409 . S
C3243 H3235 0.930 . S
C3243 C3244 1.355 . S
C3243 C3245 1.415 . S
C3244 C3243 1.355 . S
C3244 C3246 1.419 . S
C3245 C3240 1.425 . S
C3245 C3242 1.409 . S
C3245 C3243 1.415 . S
C3246 H3236 0.930 . S
C3246 C3244 1.419 . S
C3246 C3247 1.362 . S
C3247 H3237 0.930 . S
C3247 C3240 1.409 . S
C3247 C3246 1.362 . S
H3248 C3254 0.930 . S
H3249 C3257 0.930 . S
H3250 C3258 0.930 . S
H3251 C3259 0.930 . S
H3252 C3262 0.930 . S
H3253 C3263 0.930 . S
C3254 H3248 0.930 . S
C3254 C3255 1.355 . S
C3254 C3256 1.415 1_565 S
C3255 C3254 1.355 . S
C3255 C3257 1.419 . S
C3256 C3254 1.415 1_545 S
C3256 C3261 1.425 1_545 S
C3256 C3263 1.409 . S
C3257 H3249 0.930 . S
C3257 C3255 1.419 . S
C3257 C3258 1.362 . S
C3258 H3250 0.930 . S
C3258 C3257 1.362 . S
C3258 C3261 1.409 . S
C3259 H3251 0.930 . S
C3259 C3260 1.355 . S
C3259 C3261 1.415 1_545 S
C3260 C3259 1.355 . S
C3260 C3262 1.419 . S
C3261 C3256 1.425 1_565 S
C3261 C3258 1.409 . S
C3261 C3259 1.415 1_565 S
C3262 H3252 0.930 . S
C3262 C3260 1.419 . S
C3262 C3263 1.362 . S
C3263 H3253 0.930 . S
C3263 C3256 1.409 . S
C3263 C3262 1.362 . S
H3264 C3270 0.930 . S
H3265 C3273 0.930 . S
H3266 C3274 0.930 . S
H3267 C3275 0.930 . S
H3268 C3278 0.930 . S
H3269 C3279 0.930 . S
C3270 H3264 0.930 . S
C3270 C3271 1.355 1_556 S
C3270 C3272 1.415 . S
C3271 C3270 1.355 1_554 S
C3271 C3273 1.419 . S
C3272 C3270 1.415 . S
C3272 C3277 1.425 1_545 S
C3272 C3279 1.409 . S
C3273 H3265 0.930 . S
C3273 C3271 1.419 . S
C3273 C3274 1.362 1_545 S
C3274 H3266 0.930 . S
C3274 C3273 1.362 1_565 S
C3274 C3277 1.409 1_554 S
C3275 H3267 0.930 . S
C3275 C3276 1.355 . S
C3275 C3277 1.415 . S
C3276 C3275 1.355 . S
C3276 C3278 1.419 . S
C3277 C3272 1.425 1_565 S
C3277 C3274 1.409 1_556 S
C3277 C3275 1.415 . S
C3278 H3268 0.930 . S
C3278 C3276 1.419 . S
C3278 C3279 1.362 1_565 S
C3279 H3269 0.930 . S
C3279 C3272 1.409 . S
C3279 C3278 1.362 1_545 S
H3280 C3286 0.930 . S
H3281 C3289 0.906 1_455 S
H3282 C3290 0.930 . S
H3283 C3291 0.930 . S
H3284 C3294 0.943 . S
H3285 C3295 0.930 . S
C3286 H3280 0.930 . S
C3286 C3287 1.355 1_556 S
C3286 C3288 1.415 . S
C3287 C3286 1.355 1_554 S
C3287 C3289 1.474 . S
C3288 C3286 1.415 . S
C3288 C3293 1.425 1_655 S
C3288 C3295 1.409 . S
C3289 H3281 0.906 1_655 S
C3289 C3287 1.474 . S
C3289 C3290 1.333 1_654 S
C3290 H3282 0.930 . S
C3290 C3289 1.333 1_456 S
C3290 C3293 1.409 . S
C3291 H3283 0.930 . S
C3291 C3292 1.355 . S
C3291 C3293 1.415 . S
C3292 C3291 1.355 . S
C3292 C3294 1.419 . S
C3293 C3288 1.425 1_455 S
C3293 C3290 1.409 . S
C3293 C3291 1.415 . S
C3294 H3284 0.943 . S
C3294 C3292 1.419 . S
C3294 C3295 1.362 1_455 S
C3295 H3285 0.930 . S
C3295 C3288 1.409 . S
C3295 C3294 1.362 1_655 S
H3296 C3302 0.930 . S
H3297 C3305 0.930 . S
H3298 C3306 0.940 . S
H3299 C3307 0.930 . S
H3300 C3310 0.930 . S
H3301 C3311 0.930 . S
C3302 H3296 0.930 . S
C3302 C3303 1.355 . S
C3302 C3304 1.415 . S
C3303 C3302 1.355 . S
C3303 C3305 1.419 . S
C3304 C3302 1.415 . S
C3304 C3309 1.425 . S
C3304 C3311 1.409 . S
C3305 H3297 0.930 . S
C3305 C3303 1.419 . S
C3305 C3306 1.362 . S
C3306 H3298 0.940 . S
C3306 C3305 1.362 . S
C3306 C3309 1.409 . S
C3307 H3299 0.930 . S
C3307 C3308 1.355 . S
C3307 C3309 1.415 1_554 S
C3308 C3307 1.355 . S
C3308 C3310 1.419 1_554 S
C3309 C3304 1.425 . S
C3309 C3306 1.409 . S
C3309 C3307 1.415 1_556 S
C3310 H3300 0.930 . S
C3310 C3308 1.419 1_556 S
C3310 C3311 1.362 . S
C3311 H3301 0.930 . S
C3311 C3304 1.409 . S
C3311 C3310 1.362 . S
H3312 C3318 0.930 . S
H3313 C3321 0.930 . S
H3314 C3322 0.930 . S
H3315 C3323 0.969 . S
H3316 C3326 0.930 . S
H3317 C3327 0.930 . S
C3318 H3312 0.930 . S
C3318 C3319 1.355 . S
C3318 C3320 1.415 1_655 S
C3319 C3318 1.355 . S
C3319 C3321 1.419 . S
C3320 C3318 1.415 1_455 S
C3320 C3325 1.425 1_455 S
C3320 C3327 1.409 . S
C3321 H3313 0.930 . S
C3321 C3319 1.419 . S
C3321 C3322 1.362 . S
C3322 H3314 0.930 . S
C3322 C3321 1.362 . S
C3322 C3325 1.409 . S
C3323 H3315 0.969 . S
C3323 C3324 1.355 . S
C3323 C3325 1.415 1_455 S
C3324 C3323 1.355 . S
C3324 C3326 1.419 . S
C3325 C3320 1.425 1_655 S
C3325 C3322 1.409 . S
C3325 C3323 1.415 1_655 S
C3326 H3316 0.930 . S
C3326 C3324 1.419 . S
C3326 C3327 1.362 . S
C3327 H3317 0.930 . S
C3327 C3320 1.409 . S
C3327 C3326 1.362 . S
H3328 C3334 0.930 . S
H3329 C3337 0.930 . S
H3330 C3338 0.930 . S
H3331 C3339 0.930 . S
H3332 C3342 0.930 . S
H3333 C3343 0.930 . S
C3334 H3328 0.930 . S
C3334 C3335 1.355 . S
C3334 C3336 1.415 . S
C3335 C3334 1.355 . S
C3335 C3337 1.419 . S
C3336 C3334 1.415 . S
C3336 C3341 1.425 . S
C3336 C3343 1.409 . S
C3337 H3329 0.930 . S
C3337 C3335 1.419 . S
C3337 C3338 1.362 . S
C3338 H3330 0.930 . S
C3338 C3337 1.362 . S
C3338 C3341 1.409 . S
C3339 H3331 0.930 . S
C3339 C3340 1.355 . S
C3339 C3341 1.415 . S
C3340 C3339 1.355 . S
C3340 C3342 1.419 . S
C3341 C3336 1.425 . S
C3341 C3338 1.409 . S
C3341 C3339 1.415 . S
C3342 H3332 0.930 . S
C3342 C3340 1.419 . S
C3342 C3343 1.362 . S
C3343 H3333 0.930 . S
C3343 C3336 1.409 . S
C3343 C3342 1.362 . S
H3344 C3350 0.930 . S
H3345 C3353 0.920 1_565 S
H3346 C3354 0.930 . S
H3347 C3355 0.930 . S
H3348 C3358 0.930 1_545 S
H3349 C3359 0.930 . S
C3350 H3344 0.930 . S
C3350 C3351 1.355 . S
C3350 C3352 1.415 . S
C3351 C3350 1.355 . S
C3351 C3353 1.419 . S
C3352 C3350 1.415 . S
C3352 C3357 1.425 1_545 S
C3352 C3359 1.409 . S
C3353 H3345 0.920 1_545 S
C3353 C3351 1.419 . S
C3353 C3354 1.362 1_545 S
C3354 H3346 0.930 . S
C3354 C3353 1.362 1_565 S
C3354 C3357 1.409 . S
C3355 H3347 0.930 . S
C3355 C3356 1.355 . S
C3355 C3357 1.415 . S
C3356 C3355 1.355 . S
C3356 C3358 1.420 . S
C3357 C3352 1.425 1_565 S
C3357 C3354 1.409 . S
C3357 C3355 1.415 . S
C3358 H3348 0.930 1_565 S
C3358 C3356 1.420 . S
C3358 C3359 1.362 1_565 S
C3359 H3349 0.930 . S
C3359 C3352 1.409 . S
C3359 C3358 1.362 1_545 S
H3360 C3366 0.930 . S
H3361 C3369 0.930 . S
H3362 C3370 0.930 . S
H3363 C3371 0.930 . S
H3364 C3374 0.930 . S
H3365 C3375 0.930 . S
C3366 H3360 0.930 . S
C3366 C3367 1.355 . S
C3366 C3368 1.415 . S
C3367 C3366 1.355 . S
C3367 C3369 1.419 . S
C3368 C3366 1.415 . S
C3368 C3373 1.425 . S
C3368 C3375 1.409 . S
C3369 H3361 0.930 . S
C3369 C3367 1.419 . S
C3369 C3370 1.362 . S
C3370 H3362 0.930 . S
C3370 C3369 1.362 . S
C3370 C3373 1.409 . S
C3371 H3363 0.930 . S
C3371 C3372 1.355 . S
C3371 C3373 1.415 . S
C3372 C3371 1.355 . S
C3372 C3374 1.419 . S
C3373 C3368 1.425 . S
C3373 C3370 1.409 . S
C3373 C3371 1.415 . S
C3374 H3364 0.930 . S
C3374 C3372 1.419 . S
C3374 C3375 1.362 . S
C3375 H3365 0.930 . S
C3375 C3368 1.409 . S
C3375 C3374 1.362 . S
H3376 C3382 0.930 . S
H3377 C3385 0.930 . S
H3378 C3386 0.930 . S
H3379 C3387 0.930 . S
H3380 C3390 0.930 . S
H3381 C3391 0.930 . S
C3382 H3376 0.930 . S
C3382 C3383 1.355 . S
C3382 C3384 1.415 . S
C3383 C3382 1.355 . S
C3383 C3385 1.419 . S
C3384 C3382 1.415 . S
C3384 C3389 1.425 . S
C3384 C3391 1.409 . S
C3385 H3377 0.930 . S
C3385 C3383 1.419 . S
C3385 C3386 1.362 . S
C3386 H3378 0.930 . S
C3386 C3385 1.362 . S
C3386 C3389 1.409 . S
C3387 H3379 0.930 . S
C3387 C3388 1.355 . S
C3387 C3389 1.415 . S
C3388 C3387 1.355 . S
C3388 C3390 1.419 . S
C3389 C3384 1.425 . S
C3389 C3386 1.409 . S
C3389 C3387 1.415 . S
C3390 H3380 0.930 . S
C3390 C3388 1.419 . S
C3390 C3391 1.362 . S
C3391 H3381 0.930 . S
C3391 C3384 1.409 . S
C3391 C3390 1.362 . S
H3392 C3398 0.930 . S
H3393 C3401 0.930 . S
H3394 C3402 0.930 . S
H3395 C3403 0.930 . S
H3396 C3406 0.930 . S
H3397 C3407 0.930 . S
C3398 H3392 0.930 . S
C3398 C3399 1.355 . S
C3398 C3400 1.415 . S
C3399 C3398 1.355 . S
C3399 C3401 1.419 . S
C3400 C3398 1.415 . S
C3400 C3405 1.425 . S
C3400 C3407 1.409 . S
C3401 H3393 0.930 . S
C3401 C3399 1.419 . S
C3401 C3402 1.362 . S
C3402 H3394 0.930 . S
C3402 C3401 1.362 . S
C3402 C3405 1.409 . S
C3403 H3395 0.930 . S
C3403 C3404 1.355 . S
C3403 C3405 1.415 . S
C3404 C3403 1.355 . S
C3404 C3406 1.419 . S
C3405 C3400 1.425 . S
C3405 C3402 1.409 . S
C3405 C3403 1.415 . S
C3406 H3396 0.930 . S
C3406 C3404 1.419 . S
C3406 C3407 1.362 . S
C3407 H3397 0.930 . S
C3407 C3400 1.409 . S
C3407 C3406 1.362 . S
H3408 C3414 0.930 . S
H3409 C3417 0.930 . S
H3410 C3418 0.930 . S
H3411 C3419 0.930 . S
H3412 C3422 0.930 . S
H3413 C3423 0.930 . S
C3414 H3408 0.930 . S
C3414 C3415 1.355 . S
C3414 C3416 1.415 . S
C3415 C3414 1.355 . S
C3415 C3417 1.419 . S
C3416 C3414 1.415 . S
C3416 C3421 1.425 . S
C3416 C3423 1.409 . S
C3417 H3409 0.930 . S
C3417 C3415 1.419 . S
C3417 C3418 1.362 . S
C3418 H3410 0.930 . S
C3418 C3417 1.362 . S
C3418 C3421 1.409 . S
C3419 H3411 0.930 . S
C3419 C3420 1.355 . S
C3419 C3421 1.415 . S
C3420 C3419 1.355 . S
C3420 C3422 1.419 . S
C3421 C3416 1.425 . S
C3421 C3418 1.409 . S
C3421 C3419 1.415 . S
C3422 H3412 0.930 . S
C3422 C3420 1.419 . S
C3422 C3423 1.362 . S
C3423 H3413 0.930 . S
C3423 C3416 1.409 . S
C3423 C3422 1.362 . S
H3424 C3430 0.930 . S
H3425 C3433 0.930 . S
H3426 C3434 0.930 . S
H3427 C3435 0.930 . S
H3428 C3438 0.930 . S
H3429 C3439 0.930 . S
C3430 H3424 0.930 . S
C3430 C3431 1.355 . S
C3430 C3432 1.415 . S
C3431 C3430 1.355 . S
C3431 C3433 1.419 . S
C3432 C3430 1.415 . S
C3432 C3437 1.425 . S
C3432 C3439 1.409 . S
C3433 H3425 0.930 . S
C3433 C3431 1.419 . S
C3433 C3434 1.362 . S
C3434 H3426 0.930 . S
C3434 C3433 1.362 . S
C3434 C3437 1.409 . S
C3435 H3427 0.930 . S
C3435 C3436 1.355 . S
C3435 C3437 1.415 . S
C3436 C3435 1.355 . S
C3436 C3438 1.419 . S
C3437 C3432 1.425 . S
C3437 C3434 1.409 . S
C3437 C3435 1.415 . S
C3438 H3428 0.930 . S
C3438 C3436 1.419 . S
C3438 C3439 1.362 . S
C3439 H3429 0.930 . S
C3439 C3432 1.409 . S
C3439 C3438 1.362 . S
H3440 C3446 0.930 . S
H3441 C3449 0.930 . S
H3442 C3450 0.930 . S
H3443 C3451 0.930 . S
H3444 C3454 0.930 . S
H3445 C3455 0.930 . S
C3446 H3440 0.930 . S
C3446 C3447 1.355 . S
C3446 C3448 1.415 . S
C3447 C3446 1.355 . S
C3447 C3449 1.419 . S
C3448 C3446 1.415 . S
C3448 C3453 1.425 . S
C3448 C3455 1.409 . S
C3449 H3441 0.930 . S
C3449 C3447 1.419 . S
C3449 C3450 1.362 . S
C3450 H3442 0.930 . S
C3450 C3449 1.362 . S
C3450 C3453 1.409 . S
C3451 H3443 0.930 . S
C3451 C3452 1.355 . S
C3451 C3453 1.415 . S
C3452 C3451 1.355 . S
C3452 C3454 1.419 . S
C3453 C3448 1.425 . S
C3453 C3450 1.409 . S
C3453 C3451 1.415 . S
C3454 H3444 0.930 . S
C3454 C3452 1.419 . S
C3454 C3455 1.362 . S
C3455 H3445 0.930 . S
C3455 C3448 1.409 . S
C3455 C3454 1.362 . S
H3456 C3462 0.930 . S
H3457 C3465 0.930 . S
H3458 C3466 0.930 . S
H3459 C3467 0.930 . S
H3460 C3470 0.930 . S
H3461 C3471 0.930 . S
C3462 H3456 0.930 . S
C3462 C3463 1.355 . S
C3462 C3464 1.415 . S
C3463 C3462 1.355 . S
C3463 C3465 1.419 . S
C3464 C3462 1.415 . S
C3464 C3469 1.425 . S
C3464 C3471 1.409 . S
C3465 H3457 0.930 . S
C3465 C3463 1.419 . S
C3465 C3466 1.362 . S
C3466 H3458 0.930 . S
C3466 C3465 1.362 . S
C3466 C3469 1.409 . S
C3467 H3459 0.930 . S
C3467 C3468 1.355 . S
C3467 C3469 1.415 . S
C3468 C3467 1.355 . S
C3468 C3470 1.419 . S
C3469 C3464 1.425 . S
C3469 C3466 1.409 . S
C3469 C3467 1.415 . S
C3470 H3460 0.930 . S
C3470 C3468 1.419 . S
C3470 C3471 1.362 . S
C3471 H3461 0.930 . S
C3471 C3464 1.409 . S
C3471 C3470 1.362 . S
H3472 C3478 0.930 . S
H3473 C3481 0.930 . S
H3474 C3482 0.930 . S
H3475 C3483 0.930 . S
H3476 C3486 0.930 . S
H3477 C3487 0.930 . S
C3478 H3472 0.930 . S
C3478 C3479 1.355 . S
C3478 C3480 1.415 . S
C3479 C3478 1.355 . S
C3479 C3481 1.419 . S
C3480 C3478 1.415 . S
C3480 C3485 1.425 . S
C3480 C3487 1.409 . S
C3481 H3473 0.930 . S
C3481 C3479 1.419 . S
C3481 C3482 1.362 . S
C3482 H3474 0.930 . S
C3482 C3481 1.362 . S
C3482 C3485 1.409 . S
C3483 H3475 0.930 . S
C3483 C3484 1.355 . S
C3483 C3485 1.415 . S
C3484 C3483 1.355 . S
C3484 C3486 1.419 . S
C3485 C3480 1.425 . S
C3485 C3482 1.409 . S
C3485 C3483 1.415 . S
C3486 H3476 0.930 . S
C3486 C3484 1.419 . S
C3486 C3487 1.362 . S
C3487 H3477 0.930 . S
C3487 C3480 1.409 . S
C3487 C3486 1.362 . S
H3488 C3494 0.930 . S
H3489 C3497 0.930 . S
H3490 C3498 0.930 . S
H3491 C3499 0.930 . S
H3492 C3502 0.930 . S
H3493 C3503 0.930 . S
C3494 H3488 0.930 . S
C3494 C3495 1.355 . S
C3494 C3496 1.415 . S
C3495 C3494 1.355 . S
C3495 C3497 1.419 . S
C3496 C3494 1.415 . S
C3496 C3501 1.425 . S
C3496 C3503 1.409 . S
C3497 H3489 0.930 . S
C3497 C3495 1.419 . S
C3497 C3498 1.362 . S
C3498 H3490 0.930 . S
C3498 C3497 1.362 . S
C3498 C3501 1.409 . S
C3499 H3491 0.930 . S
C3499 C3500 1.355 . S
C3499 C3501 1.415 . S
C3500 C3499 1.355 . S
C3500 C3502 1.419 . S
C3501 C3496 1.425 . S
C3501 C3498 1.409 . S
C3501 C3499 1.415 . S
C3502 H3492 0.930 . S
C3502 C3500 1.419 . S
C3502 C3503 1.362 . S
C3503 H3493 0.930 . S
C3503 C3496 1.409 . S
C3503 C3502 1.362 . S
H3504 C3510 0.930 . S
H3505 C3513 0.930 . S
H3506 C3514 0.930 . S
H3507 C3515 0.930 . S
H3508 C3518 0.930 . S
H3509 C3519 0.930 . S
C3510 H3504 0.930 . S
C3510 C3511 1.355 . S
C3510 C3512 1.415 . S
C3511 C3510 1.355 . S
C3511 C3513 1.419 . S
C3512 C3510 1.415 . S
C3512 C3517 1.425 . S
C3512 C3519 1.409 . S
C3513 H3505 0.930 . S
C3513 C3511 1.419 . S
C3513 C3514 1.362 . S
C3514 H3506 0.930 . S
C3514 C3513 1.362 . S
C3514 C3517 1.409 . S
C3515 H3507 0.930 . S
C3515 C3516 1.355 . S
C3515 C3517 1.415 . S
C3516 C3515 1.355 . S
C3516 C3518 1.419 . S
C3517 C3512 1.425 . S
C3517 C3514 1.409 . S
C3517 C3515 1.415 . S
C3518 H3508 0.930 . S
C3518 C3516 1.419 . S
C3518 C3519 1.362 . S
C3519 H3509 0.930 . S
C3519 C3512 1.409 . S
C3519 C3518 1.362 . S
H3520 C3526 0.930 . S
H3521 C3529 0.930 . S
H3522 C3530 0.930 . S
H3523 C3531 0.930 . S
H3524 C3534 0.930 . S
H3525 C3535 0.930 . S
C3526 H3520 0.930 . S
C3526 C3527 1.355 . S
C3526 C3528 1.415 . S
C3527 C3526 1.355 . S
C3527 C3529 1.419 . S
C3528 C3526 1.415 . S
C3528 C3533 1.425 . S
C3528 C3535 1.409 . S
C3529 H3521 0.930 . S
C3529 C3527 1.419 . S
C3529 C3530 1.362 . S
C3530 H3522 0.930 . S
C3530 C3529 1.362 . S
C3530 C3533 1.409 . S
C3531 H3523 0.930 . S
C3531 C3532 1.355 . S
C3531 C3533 1.415 . S
C3532 C3531 1.355 . S
C3532 C3534 1.419 . S
C3533 C3528 1.425 . S
C3533 C3530 1.409 . S
C3533 C3531 1.415 . S
C3534 H3524 0.930 . S
C3534 C3532 1.419 . S
C3534 C3535 1.362 . S
C3535 H3525 0.930 . S
C3535 C3528 1.409 . S
C3535 C3534 1.362 . S
H3536 C3542 0.930 . S
H3537 C3545 0.930 . S
H3538 C3546 0.930 . S
H3539 C3547 0.930 . S
H3540 C3550 0.930 . S
H3541 C3551 0.930 . S
C3542 H3536 0.930 . S
C3542 C3543 1.355 . S
C3542 C3544 1.415 . S
C3543 C3542 1.355 . S
C3543 C3545 1.419 . S
C3544 C3542 1.415 . S
C3544 C3549 1.425 . S
C3544 C3551 1.409 . S
C3545 H3537 0.930 . S
C3545 C3543 1.419 . S
C3545 C3546 1.362 . S
C3546 H3538 0.930 . S
C3546 C3545 1.362 . S
C3546 C3549 1.409 . S
C3547 H3539 0.930 . S
C3547 C3548 1.355 . S
C3547 C3549 1.415 . S
C3548 C3547 1.355 . S
C3548 C3550 1.419 . S
C3549 C3544 1.425 . S
C3549 C3546 1.409 . S
C3549 C3547 1.415 . S
C3550 H3540 0.930 . S
C3550 C3548 1.419 . S
C3550 C3551 1.362 . S
C3551 H3541 0.930 . S
C3551 C3544 1.409 . S
C3551 C3550 1.362 . S
H3552 C3558 0.930 . S
H3553 C3561 0.930 . S
H3554 C3562 0.930 . S
H3555 C3563 0.930 . S
H3556 C3566 0.930 . S
H3557 C3567 0.930 . S
C3558 H3552 0.930 . S
C3558 C3559 1.355 . S
C3558 C3560 1.415 . S
C3559 C3558 1.355 . S
C3559 C3561 1.419 . S
C3560 C3558 1.415 . S
C3560 C3565 1.425 . S
C3560 C3567 1.409 . S
C3561 H3553 0.930 . S
C3561 C3559 1.419 . S
C3561 C3562 1.362 . S
C3562 H3554 0.930 . S
C3562 C3561 1.362 . S
C3562 C3565 1.409 . S
C3563 H3555 0.930 . S
C3563 C3564 1.355 . S
C3563 C3565 1.415 . S
C3564 C3563 1.355 . S
C3564 C3566 1.419 . S
C3565 C3560 1.425 . S
C3565 C3562 1.409 . S
C3565 C3563 1.415 . S
C3566 H3556 0.930 . S
C3566 C3564 1.419 . S
C3566 C3567 1.362 . S
C3567 H3557 0.930 . S
C3567 C3560 1.409 . S
C3567 C3566 1.362 . S
H3568 C3574 0.930 . S
H3569 C3577 0.930 . S
H3570 C3578 0.930 . S
H3571 C3579 0.930 . S
H3572 C3582 0.930 . S
H3573 C3583 0.930 . S
C3574 H3568 0.930 . S
C3574 C3575 1.355 . S
C3574 C3576 1.415 . S
C3575 C3574 1.355 . S
C3575 C3577 1.419 . S
C3576 C3574 1.415 . S
C3576 C3581 1.425 . S
C3576 C3583 1.409 . S
C3577 H3569 0.930 . S
C3577 C3575 1.419 . S
C3577 C3578 1.362 . S
C3578 H3570 0.930 . S
C3578 C3577 1.362 . S
C3578 C3581 1.409 . S
C3579 H3571 0.930 . S
C3579 C3580 1.355 . S
C3579 C3581 1.415 . S
C3580 C3579 1.355 . S
C3580 C3582 1.419 . S
C3581 C3576 1.425 . S
C3581 C3578 1.409 . S
C3581 C3579 1.415 . S
C3582 H3572 0.930 . S
C3582 C3580 1.419 . S
C3582 C3583 1.362 . S
C3583 H3573 0.930 . S
C3583 C3576 1.409 . S
C3583 C3582 1.362 . S
H3584 C3590 0.930 . S
H3585 C3593 0.930 . S
H3586 C3594 0.930 . S
H3587 C3595 0.930 . S
H3588 C3598 0.930 . S
H3589 C3599 0.930 . S
C3590 H3584 0.930 . S
C3590 C3591 1.355 . S
C3590 C3592 1.415 . S
C3591 C3590 1.355 . S
C3591 C3593 1.419 . S
C3592 C3590 1.415 . S
C3592 C3597 1.425 . S
C3592 C3599 1.409 . S
C3593 H3585 0.930 . S
C3593 C3591 1.419 . S
C3593 C3594 1.362 . S
C3594 H3586 0.930 . S
C3594 C3593 1.362 . S
C3594 C3597 1.409 . S
C3595 H3587 0.930 . S
C3595 C3596 1.355 . S
C3595 C3597 1.415 . S
C3596 C3595 1.355 . S
C3596 C3598 1.419 . S
C3597 C3592 1.425 . S
C3597 C3594 1.409 . S
C3597 C3595 1.415 . S
C3598 H3588 0.930 . S
C3598 C3596 1.419 . S
C3598 C3599 1.362 . S
C3599 H3589 0.930 . S
C3599 C3592 1.409 . S
C3599 C3598 1.362 . S
H3600 C3606 0.930 . S
H3601 C3609 0.930 . S
H3602 C3610 0.930 . S
H3603 C3611 0.930 . S
H3604 C3614 0.930 . S
H3605 C3615 0.930 . S
C3606 H3600 0.930 . S
C3606 C3607 1.355 . S
C3606 C3608 1.415 . S
C3607 C3606 1.355 . S
C3607 C3609 1.419 . S
C3608 C3606 1.415 . S
C3608 C3613 1.425 . S
C3608 C3615 1.409 . S
C3609 H3601 0.930 . S
C3609 C3607 1.419 . S
C3609 C3610 1.362 . S
C3610 H3602 0.930 . S
C3610 C3609 1.362 . S
C3610 C3613 1.409 . S
C3611 H3603 0.930 . S
C3611 C3612 1.355 . S
C3611 C3613 1.415 . S
C3612 C3611 1.355 . S
C3612 C3614 1.419 . S
C3613 C3608 1.425 . S
C3613 C3610 1.409 . S
C3613 C3611 1.415 . S
C3614 H3604 0.930 . S
C3614 C3612 1.419 . S
C3614 C3615 1.362 . S
C3615 H3605 0.930 . S
C3615 C3608 1.409 . S
C3615 C3614 1.362 . S
H3616 C3622 0.930 . S
H3617 C3625 0.930 . S
H3618 C3626 0.930 . S
H3619 C3627 0.930 . S
H3620 C3630 0.930 . S
H3621 C3631 0.930 . S
C3622 H3616 0.930 . S
C3622 C3623 1.355 . S
C3622 C3624 1.415 . S
C3623 C3622 1.355 . S
C3623 C3625 1.419 . S
C3624 C3622 1.415 . S
C3624 C3629 1.425 . S
C3624 C3631 1.409 . S
C3625 H3617 0.930 . S
C3625 C3623 1.419 . S
C3625 C3626 1.362 . S
C3626 H3618 0.930 . S
C3626 C3625 1.362 . S
C3626 C3629 1.409 . S
C3627 H3619 0.930 . S
C3627 C3628 1.355 . S
C3627 C3629 1.415 . S
C3628 C3627 1.355 . S
C3628 C3630 1.419 . S
C3629 C3624 1.425 . S
C3629 C3626 1.409 . S
C3629 C3627 1.415 . S
C3630 H3620 0.930 . S
C3630 C3628 1.419 . S
C3630 C3631 1.362 . S
C3631 H3621 0.930 . S
C3631 C3624 1.409 . S
C3631 C3630 1.362 . S
H3632 C3638 0.930 . S
H3633 C3641 0.930 . S
H3634 C3642 0.930 . S
H3635 C3643 0.930 . S
H3636 C3646 0.930 . S
H3637 C3647 0.930 . S
C3638 H3632 0.930 . S
C3638 C3639 1.355 . S
C3638 C3640 1.415 . S
C3639 C3638 1.355 . S
C3639 C3641 1.419 . S
C3640 C3638 1.415 . S
C3640 C3645 1.425 . S
C3640 C3647 1.409 . S
C3641 H3633 0.930 . S
C3641 C3639 1.419 . S
C3641 C3642 1.362 . S
C3642 H3634 0.930 . S
C3642 C3641 1.362 . S
C3642 C3645 1.409 . S
C3643 H3635 0.930 . S
C3643 C3644 1.355 . S
C3643 C3645 1.415 . S
C3644 C3643 1.355 . S
C3644 C3646 1.419 . S
C3645 C3640 1.425 . S
C3645 C3642 1.409 . S
C3645 C3643 1.415 . S
C3646 H3636 0.930 . S
C3646 C3644 1.419 . S
C3646 C3647 1.362 . S
C3647 H3637 0.930 . S
C3647 C3640 1.409 . S
C3647 C3646 1.362 . S
H3648 C3654 0.930 . S
H3649 C3657 0.930 . S
H3650 C3658 0.930 . S
H3651 C3659 0.930 . S
H3652 C3662 0.930 . S
H3653 C3663 0.930 . S
C3654 H3648 0.930 . S
C3654 C3655 1.355 . S
C3654 C3656 1.415 . S
C3655 C3654 1.355 . S
C3655 C3657 1.419 . S
C3656 C3654 1.415 . S
C3656 C3661 1.425 . S
C3656 C3663 1.409 . S
C3657 H3649 0.930 . S
C3657 C3655 1.419 . S
C3657 C3658 1.362 . S
C3658 H3650 0.930 . S
C3658 C3657 1.362 . S
C3658 C3661 1.409 . S
C3659 H3651 0.930 . S
C3659 C3660 1.355 . S
C3659 C3661 1.415 . S
C3660 C3659 1.355 . S
C3660 C3662 1.419 . S
C3661 C3656 1.425 . S
C3661 C3658 1.409 . S
C3661 C3659 1.415 . S
C3662 H3652 0.930 . S
C3662 C3660 1.419 . S
C3662 C3663 1.362 . S
C3663 H3653 0.930 . S
C3663 C3656 1.409 . S
C3663 C3662 1.362 . S
H3664 C3670 0.930 . S
H3665 C3673 0.930 . S
H3666 C3674 0.930 . S
H3667 C3675 0.930 . S
H3668 C3678 0.930 . S
H3669 C3679 0.930 . S
C3670 H3664 0.930 . S
C3670 C3671 1.355 . S
C3670 C3672 1.415 . S
C3671 C3670 1.355 . S
C3671 C3673 1.419 . S
C3672 C3670 1.415 . S
C3672 C3677 1.425 . S
C3672 C3679 1.409 . S
C3673 H3665 0.930 . S
C3673 C3671 1.419 . S
C3673 C3674 1.362 . S
C3674 H3666 0.930 . S
C3674 C3673 1.362 . S
C3674 C3677 1.409 . S
C3675 H3667 0.930 . S
C3675 C3676 1.355 . S
C3675 C3677 1.415 . S
C3676 C3675 1.355 . S
C3676 C3678 1.419 . S
C3677 C3672 1.425 . S
C3677 C3674 1.409 . S
C3677 C3675 1.415 . S
C3678 H3668 0.930 . S
C3678 C3676 1.419 . S
C3678 C3679 1.362 . S
C3679 H3669 0.930 . S
C3679 C3672 1.409 . S
C3679 C3678 1.362 . S
H3680 C3686 0.930 . S
H3681 C3689 0.930 . S
H3682 C3690 0.930 . S
H3683 C3691 0.930 . S
H3684 C3694 0.930 . S
H3685 C3695 0.930 . S
C3686 H3680 0.930 . S
C3686 C3687 1.355 . S
C3686 C3688 1.415 . S
C3687 C3686 1.355 . S
C3687 C3689 1.419 . S
C3688 C3686 1.415 . S
C3688 C3693 1.425 . S
C3688 C3695 1.409 . S
C3689 H3681 0.930 . S
C3689 C3687 1.419 . S
C3689 C3690 1.362 . S
C3690 H3682 0.930 . S
C3690 C3689 1.362 . S
C3690 C3693 1.409 . S
C3691 H3683 0.930 . S
C3691 C3692 1.355 . S
C3691 C3693 1.415 . S
C3692 C3691 1.355 . S
C3692 C3694 1.419 . S
C3693 C3688 1.425 . S
C3693 C3690 1.409 . S
C3693 C3691 1.415 . S
C3694 H3684 0.930 . S
C3694 C3692 1.419 . S
C3694 C3695 1.362 . S
C3695 H3685 0.930 . S
C3695 C3688 1.409 . S
C3695 C3694 1.362 . S
H3696 C3702 0.930 . S
H3697 C3705 0.930 . S
H3698 C3706 0.930 . S
H3699 C3707 0.930 . S
H3700 C3710 0.930 . S
H3701 C3711 0.930 . S
C3702 H3696 0.930 . S
C3702 C3703 1.355 . S
C3702 C3704 1.415 . S
C3703 C3702 1.355 . S
C3703 C3705 1.419 . S
C3704 C3702 1.415 . S
C3704 C3709 1.425 . S
C3704 C3711 1.409 . S
C3705 H3697 0.930 . S
C3705 C3703 1.419 . S
C3705 C3706 1.362 . S
C3706 H3698 0.930 . S
C3706 C3705 1.362 . S
C3706 C3709 1.409 . S
C3707 H3699 0.930 . S
C3707 C3708 1.355 . S
C3707 C3709 1.415 . S
C3708 C3707 1.355 . S
C3708 C3710 1.419 . S
C3709 C3704 1.425 . S
C3709 C3706 1.409 . S
C3709 C3707 1.415 . S
C3710 H3700 0.930 . S
C3710 C3708 1.419 . S
C3710 C3711 1.362 . S
C3711 H3701 0.930 . S
C3711 C3704 1.409 . S
C3711 C3710 1.362 . S
H3712 C3718 0.930 . S
H3713 C3721 0.930 . S
H3714 C3722 0.930 . S
H3715 C3723 0.930 . S
H3716 C3726 0.930 . S
H3717 C3727 0.930 . S
C3718 H3712 0.930 . S
C3718 C3719 1.355 . S
C3718 C3720 1.415 . S
C3719 C3718 1.355 . S
C3719 C3721 1.419 . S
C3720 C3718 1.415 . S
C3720 C3725 1.425 . S
C3720 C3727 1.409 . S
C3721 H3713 0.930 . S
C3721 C3719 1.419 . S
C3721 C3722 1.362 . S
C3722 H3714 0.930 . S
C3722 C3721 1.362 . S
C3722 C3725 1.409 . S
C3723 H3715 0.930 . S
C3723 C3724 1.355 . S
C3723 C3725 1.415 . S
C3724 C3723 1.355 . S
C3724 C3726 1.419 . S
C3725 C3720 1.425 . S
C3725 C3722 1.409 . S
C3725 C3723 1.415 . S
C3726 H3716 0.930 . S
C3726 C3724 1.419 . S
C3726 C3727 1.362 . S
C3727 H3717 0.930 . S
C3727 C3720 1.409 . S
C3727 C3726 1.362 . S
H3728 C3734 0.930 . S
H3729 C3737 0.930 . S
H3730 C3738 0.930 . S
H3731 C3739 0.930 . S
H3732 C3742 0.930 . S
H3733 C3743 0.930 . S
C3734 H3728 0.930 . S
C3734 C3735 1.355 . S
C3734 C3736 1.415 . S
C3735 C3734 1.355 . S
C3735 C3737 1.419 . S
C3736 C3734 1.415 . S
C3736 C3741 1.425 . S
C3736 C3743 1.409 . S
C3737 H3729 0.930 . S
C3737 C3735 1.419 . S
C3737 C3738 1.362 . S
C3738 H3730 0.930 . S
C3738 C3737 1.362 . S
C3738 C3741 1.409 . S
C3739 H3731 0.930 . S
C3739 C3740 1.355 . S
C3739 C3741 1.415 . S
C3740 C3739 1.355 . S
C3740 C3742 1.419 . S
C3741 C3736 1.425 . S
C3741 C3738 1.409 . S
C3741 C3739 1.415 . S
C3742 H3732 0.930 . S
C3742 C3740 1.419 . S
C3742 C3743 1.362 . S
C3743 H3733 0.930 . S
C3743 C3736 1.409 . S
C3743 C3742 1.362 . S
H3744 C3750 0.930 . S
H3745 C3753 0.930 . S
H3746 C3754 0.930 . S
H3747 C3755 0.930 . S
H3748 C3758 0.930 . S
H3749 C3759 0.930 . S
C3750 H3744 0.930 . S
C3750 C3751 1.355 . S
C3750 C3752 1.415 . S
C3751 C3750 1.355 . S
C3751 C3753 1.419 . S
C3752 C3750 1.415 . S
C3752 C3757 1.425 . S
C3752 C3759 1.409 . S
C3753 H3745 0.930 . S
C3753 C3751 1.419 . S
C3753 C3754 1.362 . S
C3754 H3746 0.930 . S
C3754 C3753 1.362 . S
C3754 C3757 1.409 . S
C3755 H3747 0.930 . S
C3755 C3756 1.355 . S
C3755 C3757 1.415 . S
C3756 C3755 1.355 . S
C3756 C3758 1.419 . S
C3757 C3752 1.425 . S
C3757 C3754 1.409 . S
C3757 C3755 1.415 . S
C3758 H3748 0.930 . S
C3758 C3756 1.419 . S
C3758 C3759 1.362 . S
C3759 H3749 0.930 . S
C3759 C3752 1.409 . S
C3759 C3758 1.362 . S
H3760 C3766 0.930 . S
H3761 C3769 0.930 . S
H3762 C3770 0.937 . S
H3763 C3771 0.930 . S
H3764 C3774 0.930 . S
H3765 C3775 0.937 . S
C3766 H3760 0.930 . S
C3766 C3767 1.355 . S
C3766 C3768 1.415 . S
C3767 C3766 1.355 . S
C3767 C3769 1.419 . S
C3768 C3766 1.415 . S
C3768 C3773 1.425 1_565 S
C3768 C3775 1.409 1_565 S
C3769 H3761 0.930 . S
C3769 C3767 1.419 . S
C3769 C3770 1.362 . S
C3770 H3762 0.937 . S
C3770 C3769 1.362 . S
C3770 C3773 1.409 1_565 S
C3771 H3763 0.930 . S
C3771 C3772 1.355 . S
C3771 C3773 1.415 . S
C3772 C3771 1.355 . S
C3772 C3774 1.419 . S
C3773 C3768 1.425 1_545 S
C3773 C3770 1.409 1_545 S
C3773 C3771 1.415 . S
C3774 H3764 0.930 . S
C3774 C3772 1.419 . S
C3774 C3775 1.362 . S
C3775 H3765 0.937 . S
C3775 C3768 1.409 1_545 S
C3775 C3774 1.362 . S
H3776 C3782 0.930 . S
H3777 C3785 0.930 . S
H3778 C3786 0.930 1_455 S
H3779 C3787 0.930 . S
H3780 C3790 0.930 . S
H3781 C3791 0.930 1_655 S
C3782 H3776 0.930 . S
C3782 C3783 1.355 . S
C3782 C3784 1.415 . S
C3783 C3782 1.355 . S
C3783 C3785 1.419 . S
C3784 C3782 1.415 . S
C3784 C3789 1.425 1_655 S
C3784 C3791 1.409 1_655 S
C3785 H3777 0.930 . S
C3785 C3783 1.419 . S
C3785 C3786 1.362 . S
C3786 H3778 0.930 1_655 S
C3786 C3785 1.362 . S
C3786 C3789 1.409 1_655 S
C3787 H3779 0.930 . S
C3787 C3788 1.355 . S
C3787 C3789 1.415 . S
C3788 C3787 1.355 . S
C3788 C3790 1.419 . S
C3789 C3784 1.425 1_455 S
C3789 C3786 1.409 1_455 S
C3789 C3787 1.415 . S
C3790 H3780 0.930 . S
C3790 C3788 1.419 . S
C3790 C3791 1.362 . S
C3791 H3781 0.930 1_455 S
C3791 C3784 1.409 1_455 S
C3791 C3790 1.362 . S
H3792 C3798 0.930 . S
H3793 C3801 0.930 . S
H3794 C3802 0.930 . S
H3795 C3803 0.930 . S
H3796 C3806 0.930 . S
H3797 C3807 0.930 . S
C3798 H3792 0.930 . S
C3798 C3799 1.355 . S
C3798 C3800 1.415 . S
C3799 C3798 1.355 . S
C3799 C3801 1.419 . S
C3800 C3798 1.415 . S
C3800 C3805 1.425 . S
C3800 C3807 1.409 . S
C3801 H3793 0.930 . S
C3801 C3799 1.419 . S
C3801 C3802 1.362 . S
C3802 H3794 0.930 . S
C3802 C3801 1.362 . S
C3802 C3805 1.409 . S
C3803 H3795 0.930 . S
C3803 C3804 1.355 . S
C3803 C3805 1.415 . S
C3804 C3803 1.355 . S
C3804 C3806 1.419 . S
C3805 C3800 1.425 . S
C3805 C3802 1.409 . S
C3805 C3803 1.415 . S
C3806 H3796 0.930 . S
C3806 C3804 1.419 . S
C3806 C3807 1.362 . S
C3807 H3797 0.930 . S
C3807 C3800 1.409 . S
C3807 C3806 1.362 . S
H3808 C3814 0.930 . S
H3809 C3817 0.930 . S
H3810 C3818 0.930 . S
H3811 C3819 0.930 . S
H3812 C3822 0.930 . S
H3813 C3823 0.930 . S
C3814 H3808 0.930 . S
C3814 C3815 1.355 . S
C3814 C3816 1.415 . S
C3815 C3814 1.355 . S
C3815 C3817 1.419 . S
C3816 C3814 1.415 . S
C3816 C3821 1.425 1_545 S
C3816 C3823 1.409 1_545 S
C3817 H3809 0.930 . S
C3817 C3815 1.419 . S
C3817 C3818 1.362 . S
C3818 H3810 0.930 . S
C3818 C3817 1.362 . S
C3818 C3821 1.409 1_545 S
C3819 H3811 0.930 . S
C3819 C3820 1.355 . S
C3819 C3821 1.415 . S
C3820 C3819 1.355 . S
C3820 C3822 1.419 . S
C3821 C3816 1.425 1_565 S
C3821 C3818 1.409 1_565 S
C3821 C3819 1.415 . S
C3822 H3812 0.930 . S
C3822 C3820 1.419 . S
C3822 C3823 1.362 . S
C3823 H3813 0.930 . S
C3823 C3816 1.409 1_565 S
C3823 C3822 1.362 . S
H3824 C3830 0.930 . S
H3825 C3833 0.930 . S
H3826 C3834 0.930 . S
H3827 C3835 0.930 . S
H3828 C3838 0.930 . S
H3829 C3839 0.930 . S
C3830 H3824 0.930 . S
C3830 C3831 1.355 . S
C3830 C3832 1.415 . S
C3831 C3830 1.355 . S
C3831 C3833 1.419 . S
C3832 C3830 1.415 . S
C3832 C3837 1.425 1_655 S
C3832 C3839 1.409 1_655 S
C3833 H3825 0.930 . S
C3833 C3831 1.419 . S
C3833 C3834 1.362 . S
C3834 H3826 0.930 . S
C3834 C3833 1.362 . S
C3834 C3837 1.409 1_655 S
C3835 H3827 0.930 . S
C3835 C3836 1.355 . S
C3835 C3837 1.415 . S
C3836 C3835 1.355 . S
C3836 C3838 1.419 . S
C3837 C3832 1.425 1_455 S
C3837 C3834 1.409 1_455 S
C3837 C3835 1.415 . S
C3838 H3828 0.930 . S
C3838 C3836 1.419 . S
C3838 C3839 1.362 . S
C3839 H3829 0.930 . S
C3839 C3832 1.409 1_455 S
C3839 C3838 1.362 . S
H3840 C3846 0.930 . S
H3841 C3849 0.930 . S
H3842 C3850 0.930 . S
H3843 C3851 0.930 . S
H3844 C3854 0.930 . S
H3845 C3855 0.930 . S
C3846 H3840 0.930 . S
C3846 C3847 1.355 . S
C3846 C3848 1.415 . S
C3847 C3846 1.355 . S
C3847 C3849 1.419 . S
C3848 C3846 1.415 . S
C3848 C3853 1.425 . S
C3848 C3855 1.409 . S
C3849 H3841 0.930 . S
C3849 C3847 1.419 . S
C3849 C3850 1.362 . S
C3850 H3842 0.930 . S
C3850 C3849 1.362 . S
C3850 C3853 1.409 . S
C3851 H3843 0.930 . S
C3851 C3852 1.355 . S
C3851 C3853 1.415 . S
C3852 C3851 1.355 . S
C3852 C3854 1.419 . S
C3853 C3848 1.425 . S
C3853 C3850 1.409 . S
C3853 C3851 1.415 . S
C3854 H3844 0.930 . S
C3854 C3852 1.419 . S
C3854 C3855 1.362 . S
C3855 H3845 0.930 . S
C3855 C3848 1.409 . S
C3855 C3854 1.362 . S
H3856 C3862 0.930 . S
H3857 C3865 0.930 . S
H3858 C3866 0.930 . S
H3859 C3867 0.930 . S
H3860 C3870 0.930 . S
H3861 C3871 0.930 . S
C3862 H3856 0.930 . S
C3862 C3863 1.355 . S
C3862 C3864 1.415 . S
C3863 C3862 1.355 . S
C3863 C3865 1.419 . S
C3864 C3862 1.415 . S
C3864 C3869 1.425 . S
C3864 C3871 1.409 . S
C3865 H3857 0.930 . S
C3865 C3863 1.419 . S
C3865 C3866 1.362 . S
C3866 H3858 0.930 . S
C3866 C3865 1.362 . S
C3866 C3869 1.409 . S
C3867 H3859 0.930 . S
C3867 C3868 1.355 . S
C3867 C3869 1.415 . S
C3868 C3867 1.355 . S
C3868 C3870 1.419 . S
C3869 C3864 1.425 . S
C3869 C3866 1.409 . S
C3869 C3867 1.415 . S
C3870 H3860 0.930 . S
C3870 C3868 1.419 . S
C3870 C3871 1.362 . S
C3871 H3861 0.930 . S
C3871 C3864 1.409 . S
C3871 C3870 1.362 . S
H3872 C3878 0.930 . S
H3873 C3881 0.930 . S
H3874 C3882 0.930 . S
H3875 C3883 0.930 . S
H3876 C3886 0.930 . S
H3877 C3887 0.930 . S
C3878 H3872 0.930 . S
C3878 C3879 1.355 . S
C3878 C3880 1.415 . S
C3879 C3878 1.355 . S
C3879 C3881 1.419 . S
C3880 C3878 1.415 . S
C3880 C3885 1.425 . S
C3880 C3887 1.409 . S
C3881 H3873 0.930 . S
C3881 C3879 1.419 . S
C3881 C3882 1.362 . S
C3882 H3874 0.930 . S
C3882 C3881 1.362 . S
C3882 C3885 1.409 . S
C3883 H3875 0.930 . S
C3883 C3884 1.355 . S
C3883 C3885 1.415 . S
C3884 C3883 1.355 . S
C3884 C3886 1.419 . S
C3885 C3880 1.425 . S
C3885 C3882 1.409 . S
C3885 C3883 1.415 . S
C3886 H3876 0.930 . S
C3886 C3884 1.419 . S
C3886 C3887 1.362 . S
C3887 H3877 0.930 . S
C3887 C3880 1.409 . S
C3887 C3886 1.362 . S
H3888 C3894 0.930 . S
H3889 C3897 0.930 . S
H3890 C3898 0.930 . S
H3891 C3899 0.930 . S
H3892 C3902 0.930 . S
H3893 C3903 0.930 . S
C3894 H3888 0.930 . S
C3894 C3895 1.355 . S
C3894 C3896 1.415 . S
C3895 C3894 1.355 . S
C3895 C3897 1.419 . S
C3896 C3894 1.415 . S
C3896 C3901 1.425 . S
C3896 C3903 1.409 . S
C3897 H3889 0.930 . S
C3897 C3895 1.419 . S
C3897 C3898 1.362 . S
C3898 H3890 0.930 . S
C3898 C3897 1.362 . S
C3898 C3901 1.409 . S
C3899 H3891 0.930 . S
C3899 C3900 1.355 . S
C3899 C3901 1.415 . S
C3900 C3899 1.355 . S
C3900 C3902 1.419 . S
C3901 C3896 1.425 . S
C3901 C3898 1.409 . S
C3901 C3899 1.415 . S
C3902 H3892 0.930 . S
C3902 C3900 1.419 . S
C3902 C3903 1.362 . S
C3903 H3893 0.930 . S
C3903 C3896 1.409 . S
C3903 C3902 1.362 . S
H3904 C3910 0.930 . S
H3905 C3913 0.930 . S
H3906 C3914 0.930 . S
H3907 C3915 0.930 . S
H3908 C3918 0.930 . S
H3909 C3919 0.930 . S
C3910 H3904 0.930 . S
C3910 C3911 1.355 . S
C3910 C3912 1.415 . S
C3911 C3910 1.355 . S
C3911 C3913 1.419 . S
C3912 C3910 1.415 . S
C3912 C3917 1.425 . S
C3912 C3919 1.409 . S
C3913 H3905 0.930 . S
C3913 C3911 1.419 . S
C3913 C3914 1.362 . S
C3914 H3906 0.930 . S
C3914 C3913 1.362 . S
C3914 C3917 1.409 . S
C3915 H3907 0.930 . S
C3915 C3916 1.355 . S
C3915 C3917 1.415 . S
C3916 C3915 1.355 . S
C3916 C3918 1.419 . S
C3917 C3912 1.425 . S
C3917 C3914 1.409 . S
C3917 C3915 1.415 . S
C3918 H3908 0.930 . S
C3918 C3916 1.419 . S
C3918 C3919 1.362 . S
C3919 H3909 0.930 . S
C3919 C3912 1.409 . S
C3919 C3918 1.362 . S
H3920 C3926 0.930 . S
H3921 C3929 0.930 . S
H3922 C3930 0.930 . S
H3923 C3931 0.930 . S
H3924 C3934 0.930 . S
H3925 C3935 0.930 . S
C3926 H3920 0.930 . S
C3926 C3927 1.355 . S
C3926 C3928 1.415 . S
C3927 C3926 1.355 . S
C3927 C3929 1.419 . S
C3928 C3926 1.415 . S
C3928 C3933 1.425 . S
C3928 C3935 1.409 . S
C3929 H3921 0.930 . S
C3929 C3927 1.419 . S
C3929 C3930 1.362 . S
C3930 H3922 0.930 . S
C3930 C3929 1.362 . S
C3930 C3933 1.409 . S
C3931 H3923 0.930 . S
C3931 C3932 1.355 . S
C3931 C3933 1.415 . S
C3932 C3931 1.355 . S
C3932 C3934 1.419 . S
C3933 C3928 1.425 . S
C3933 C3930 1.409 . S
C3933 C3931 1.415 . S
C3934 H3924 0.930 . S
C3934 C3932 1.419 . S
C3934 C3935 1.362 . S
C3935 H3925 0.930 . S
C3935 C3928 1.409 . S
C3935 C3934 1.362 . S
H3936 C3942 0.930 . S
H3937 C3945 0.930 . S
H3938 C3946 0.930 . S
H3939 C3947 0.930 . S
H3940 C3950 0.930 . S
H3941 C3951 0.930 . S
C3942 H3936 0.930 . S
C3942 C3943 1.355 . S
C3942 C3944 1.415 . S
C3943 C3942 1.355 . S
C3943 C3945 1.419 . S
C3944 C3942 1.415 . S
C3944 C3949 1.425 . S
C3944 C3951 1.409 . S
C3945 H3937 0.930 . S
C3945 C3943 1.419 . S
C3945 C3946 1.362 . S
C3946 H3938 0.930 . S
C3946 C3945 1.362 . S
C3946 C3949 1.409 . S
C3947 H3939 0.930 . S
C3947 C3948 1.355 . S
C3947 C3949 1.415 . S
C3948 C3947 1.355 . S
C3948 C3950 1.419 . S
C3949 C3944 1.425 . S
C3949 C3946 1.409 . S
C3949 C3947 1.415 . S
C3950 H3940 0.930 . S
C3950 C3948 1.419 . S
C3950 C3951 1.362 . S
C3951 H3941 0.930 . S
C3951 C3944 1.409 . S
C3951 C3950 1.362 . S
H3952 C3958 0.930 . S
H3953 C3961 0.930 . S
H3954 C3962 0.930 . S
H3955 C3963 0.930 . S
H3956 C3966 0.930 . S
H3957 C3967 0.930 . S
C3958 H3952 0.930 . S
C3958 C3959 1.355 . S
C3958 C3960 1.415 . S
C3959 C3958 1.355 . S
C3959 C3961 1.419 . S
C3960 C3958 1.415 . S
C3960 C3965 1.425 . S
C3960 C3967 1.409 . S
C3961 H3953 0.930 . S
C3961 C3959 1.419 . S
C3961 C3962 1.362 . S
C3962 H3954 0.930 . S
C3962 C3961 1.362 . S
C3962 C3965 1.409 . S
C3963 H3955 0.930 . S
C3963 C3964 1.355 . S
C3963 C3965 1.415 . S
C3964 C3963 1.355 . S
C3964 C3966 1.419 . S
C3965 C3960 1.425 . S
C3965 C3962 1.409 . S
C3965 C3963 1.415 . S
C3966 H3956 0.930 . S
C3966 C3964 1.419 . S
C3966 C3967 1.362 . S
C3967 H3957 0.930 . S
C3967 C3960 1.409 . S
C3967 C3966 1.362 . S
H3968 C3974 0.930 . S
H3969 C3977 0.930 . S
H3970 C3978 0.930 . S
H3971 C3979 0.930 . S
H3972 C3982 0.930 . S
H3973 C3983 0.930 . S
C3974 H3968 0.930 . S
C3974 C3975 1.355 . S
C3974 C3976 1.415 . S
C3975 C3974 1.355 . S
C3975 C3977 1.419 . S
C3976 C3974 1.415 . S
C3976 C3981 1.425 . S
C3976 C3983 1.409 . S
C3977 H3969 0.930 . S
C3977 C3975 1.419 . S
C3977 C3978 1.362 . S
C3978 H3970 0.930 . S
C3978 C3977 1.362 . S
C3978 C3981 1.409 . S
C3979 H3971 0.930 . S
C3979 C3980 1.355 . S
C3979 C3981 1.415 . S
C3980 C3979 1.355 . S
C3980 C3982 1.419 . S
C3981 C3976 1.425 . S
C3981 C3978 1.409 . S
C3981 C3979 1.415 . S
C3982 H3972 0.930 . S
C3982 C3980 1.419 . S
C3982 C3983 1.362 . S
C3983 H3973 0.930 . S
C3983 C3976 1.409 . S
C3983 C3982 1.362 . S
H3984 C3990 0.930 . S
H3985 C3993 0.930 . S
H3986 C3994 0.930 . S
H3987 C3995 0.930 . S
H3988 C3998 0.930 . S
H3989 C3999 0.930 . S
C3990 H3984 0.930 . S
C3990 C3991 1.355 . S
C3990 C3992 1.415 . S
C3991 C3990 1.355 . S
C3991 C3993 1.419 . S
C3992 C3990 1.415 . S
C3992 C3997 1.425 . S
C3992 C3999 1.409 . S
C3993 H3985 0.930 . S
C3993 C3991 1.419 . S
C3993 C3994 1.362 . S
C3994 H3986 0.930 . S
C3994 C3993 1.362 . S
C3994 C3997 1.409 . S
C3995 H3987 0.930 . S
C3995 C3996 1.355 . S
C3995 C3997 1.415 . S
C3996 C3995 1.355 . S
C3996 C3998 1.419 . S
C3997 C3992 1.425 . S
C3997 C3994 1.409 . S
C3997 C3995 1.415 . S
C3998 H3988 0.930 . S
C3998 C3996 1.419 . S
C3998 C3999 1.362 . S
C3999 H3989 0.930 . S
C3999 C3992 1.409 . S
C3999 C3998 1.362 . S
H4000 C4006 0.930 . S
H4001 C4009 0.930 . S
H4002 C4010 0.930 . S
H4003 C4011 0.930 . S
H4004 C4014 0.930 . S
H4005 C4015 0.930 . S
C4006 H4000 0.930 . S
C4006 C4007 1.355 . S
C4006 C4008 1.415 . S
C4007 C4006 1.355 . S
C4007 C4009 1.419 . S
C4008 C4006 1.415 . S
C4008 C4013 1.425 . S
C4008 C4015 1.409 . S
C4009 H4001 0.930 . S
C4009 C4007 1.419 . S
C4009 C4010 1.362 . S
C4010 H4002 0.930 . S
C4010 C4009 1.362 . S
C4010 C4013 1.409 . S
C4011 H4003 0.930 . S
C4011 C4012 1.355 . S
C4011 C4013 1.415 . S
C4012 C4011 1.355 . S
C4012 C4014 1.419 . S
C4013 C4008 1.425 . S
C4013 C4010 1.409 . S
C4013 C4011 1.415 . S
C4014 H4004 0.930 . S
C4014 C4012 1.419 . S
C4014 C4015 1.362 . S
C4015 H4005 0.930 . S
C4015 C4008 1.409 . S
C4015 C4014 1.362 . S
H4016 C4022 0.930 . S
H4017 C4025 0.930 . S
H4018 C4026 0.930 . S
H4019 C4027 0.930 . S
H4020 C4030 0.930 . S
H4021 C4031 0.930 . S
C4022 H4016 0.930 . S
C4022 C4023 1.355 . S
C4022 C4024 1.415 . S
C4023 C4022 1.355 . S
C4023 C4025 1.419 . S
C4024 C4022 1.415 . S
C4024 C4029 1.425 . S
C4024 C4031 1.409 . S
C4025 H4017 0.930 . S
C4025 C4023 1.419 . S
C4025 C4026 1.362 . S
C4026 H4018 0.930 . S
C4026 C4025 1.362 . S
C4026 C4029 1.409 . S
C4027 H4019 0.930 . S
C4027 C4028 1.355 . S
C4027 C4029 1.415 . S
C4028 C4027 1.355 . S
C4028 C4030 1.419 . S
C4029 C4024 1.425 . S
C4029 C4026 1.409 . S
C4029 C4027 1.415 . S
C4030 H4020 0.930 . S
C4030 C4028 1.419 . S
C4030 C4031 1.362 . S
C4031 H4021 0.930 . S
C4031 C4024 1.409 . S
C4031 C4030 1.362 . S
H4032 C4038 0.930 . S
H4033 C4041 0.930 . S
H4034 C4042 0.930 . S
H4035 C4043 0.930 . S
H4036 C4046 0.930 . S
H4037 C4047 0.930 . S
C4038 H4032 0.930 . S
C4038 C4039 1.355 . S
C4038 C4040 1.415 . S
C4039 C4038 1.355 . S
C4039 C4041 1.419 . S
C4040 C4038 1.415 . S
C4040 C4045 1.425 . S
C4040 C4047 1.409 . S
C4041 H4033 0.930 . S
C4041 C4039 1.419 . S
C4041 C4042 1.362 . S
C4042 H4034 0.930 . S
C4042 C4041 1.362 . S
C4042 C4045 1.409 . S
C4043 H4035 0.930 . S
C4043 C4044 1.355 . S
C4043 C4045 1.415 . S
C4044 C4043 1.355 . S
C4044 C4046 1.419 . S
C4045 C4040 1.425 . S
C4045 C4042 1.409 . S
C4045 C4043 1.415 . S
C4046 H4036 0.930 . S
C4046 C4044 1.419 . S
C4046 C4047 1.362 . S
C4047 H4037 0.930 . S
C4047 C4040 1.409 . S
C4047 C4046 1.362 . S
H4048 C4054 0.930 . S
H4049 C4057 0.930 . S
H4050 C4058 0.930 . S
H4051 C4059 0.930 . S
H4052 C4062 0.930 . S
H4053 C4063 0.930 . S
C4054 H4048 0.930 . S
C4054 C4055 1.355 . S
C4054 C4056 1.415 . S
C4055 C4054 1.355 . S
C4055 C4057 1.419 . S
C4056 C4054 1.415 . S
C4056 C4061 1.425 . S
C4056 C4063 1.409 . S
C4057 H4049 0.930 . S
C4057 C4055 1.419 . S
C4057 C4058 1.362 . S
C4058 H4050 0.930 . S
C4058 C4057 1.362 . S
C4058 C4061 1.409 . S
C4059 H4051 0.930 . S
C4059 C4060 1.355 . S
C4059 C4061 1.415 . S
C4060 C4059 1.355 . S
C4060 C4062 1.419 . S
C4061 C4056 1.425 . S
C4061 C4058 1.409 . S
C4061 C4059 1.415 . S
C4062 H4052 0.930 . S
C4062 C4060 1.419 . S
C4062 C4063 1.362 . S
C4063 H4053 0.930 . S
C4063 C4056 1.409 . S
C4063 C4062 1.362 . S
H4064 C4070 0.930 . S
H4065 C4073 0.930 . S
H4066 C4074 0.930 . S
H4067 C4075 0.930 . S
H4068 C4078 0.930 . S
H4069 C4079 0.930 . S
C4070 H4064 0.930 . S
C4070 C4071 1.355 . S
C4070 C4072 1.415 . S
C4071 C4070 1.355 . S
C4071 C4073 1.419 . S
C4072 C4070 1.415 . S
C4072 C4077 1.425 . S
C4072 C4079 1.409 . S
C4073 H4065 0.930 . S
C4073 C4071 1.419 . S
C4073 C4074 1.362 . S
C4074 H4066 0.930 . S
C4074 C4073 1.362 . S
C4074 C4077 1.409 . S
C4075 H4067 0.930 . S
C4075 C4076 1.355 . S
C4075 C4077 1.415 . S
C4076 C4075 1.355 . S
C4076 C4078 1.419 . S
C4077 C4072 1.425 . S
C4077 C4074 1.409 . S
C4077 C4075 1.415 . S
C4078 H4068 0.930 . S
C4078 C4076 1.419 . S
C4078 C4079 1.362 . S
C4079 H4069 0.930 . S
C4079 C4072 1.409 . S
C4079 C4078 1.362 . S
H4080 C4086 0.930 . S
H4081 C4089 0.930 . S
H4082 C4090 0.930 . S
H4083 C4091 0.930 . S
H4084 C4094 0.930 . S
H4085 C4095 0.930 . S
C4086 H4080 0.930 . S
C4086 C4087 1.355 . S
C4086 C4088 1.415 . S
C4087 C4086 1.355 . S
C4087 C4089 1.419 . S
C4088 C4086 1.415 . S
C4088 C4093 1.425 . S
C4088 C4095 1.409 . S
C4089 H4081 0.930 . S
C4089 C4087 1.419 . S
C4089 C4090 1.362 . S
C4090 H4082 0.930 . S
C4090 C4089 1.362 . S
C4090 C4093 1.409 . S
C4091 H4083 0.930 . S
C4091 C4092 1.355 . S
C4091 C4093 1.415 . S
C4092 C4091 1.355 . S
C4092 C4094 1.419 . S
C4093 C4088 1.425 . S
C4093 C4090 1.409 . S
C4093 C4091 1.415 . S
C4094 H4084 0.930 . S
C4094 C4092 1.419 . S
C4094 C4095 1.362 . S
C4095 H4085 0.930 . S
C4095 C4088 1.409 . S
C4095 C4094 1.362 . S
H4096 C4102 0.930 . S
H4097 C4105 0.930 . S
H4098 C4106 0.930 . S
H4099 C4107 0.930 . S
H4100 C4110 0.930 . S
H4101 C4111 0.930 . S
C4102 H4096 0.930 . S
C4102 C4103 1.355 . S
C4102 C4104 1.415 . S
C4103 C4102 1.355 . S
C4103 C4105 1.419 . S
C4104 C4102 1.415 . S
C4104 C4109 1.425 . S
C4104 C4111 1.409 . S
C4105 H4097 0.930 . S
C4105 C4103 1.419 . S
C4105 C4106 1.362 . S
C4106 H4098 0.930 . S
C4106 C4105 1.362 . S
C4106 C4109 1.409 . S
C4107 H4099 0.930 . S
C4107 C4108 1.355 . S
C4107 C4109 1.415 . S
C4108 C4107 1.355 . S
C4108 C4110 1.419 . S
C4109 C4104 1.425 . S
C4109 C4106 1.409 . S
C4109 C4107 1.415 . S
C4110 H4100 0.930 . S
C4110 C4108 1.419 . S
C4110 C4111 1.362 . S
C4111 H4101 0.930 . S
C4111 C4104 1.409 . S
C4111 C4110 1.362 . S
H4112 C4118 0.930 . S
H4113 C4121 0.930 . S
H4114 C4122 0.930 . S
H4115 C4123 0.930 . S
H4116 C4126 0.930 . S
H4117 C4127 0.930 . S
C4118 H4112 0.930 . S
C4118 C4119 1.355 . S
C4118 C4120 1.415 . S
C4119 C4118 1.355 . S
C4119 C4121 1.419 . S
C4120 C4118 1.415 . S
C4120 C4125 1.425 . S
C4120 C4127 1.409 . S
C4121 H4113 0.930 . S
C4121 C4119 1.419 . S
C4121 C4122 1.362 . S
C4122 H4114 0.930 . S
C4122 C4121 1.362 . S
C4122 C4125 1.409 . S
C4123 H4115 0.930 . S
C4123 C4124 1.355 . S
C4123 C4125 1.415 . S
C4124 C4123 1.355 . S
C4124 C4126 1.419 . S
C4125 C4120 1.425 . S
C4125 C4122 1.409 . S
C4125 C4123 1.415 . S
C4126 H4116 0.930 . S
C4126 C4124 1.419 . S
C4126 C4127 1.362 . S
C4127 H4117 0.930 . S
C4127 C4120 1.409 . S
C4127 C4126 1.362 . S
H4128 C4134 0.930 . S
H4129 C4137 0.930 . S
H4130 C4138 0.930 . S
H4131 C4139 0.930 . S
H4132 C4142 0.930 . S
H4133 C4143 0.930 . S
C4134 H4128 0.930 . S
C4134 C4135 1.355 . S
C4134 C4136 1.415 . S
C4135 C4134 1.355 . S
C4135 C4137 1.419 . S
C4136 C4134 1.415 . S
C4136 C4141 1.425 . S
C4136 C4143 1.409 . S
C4137 H4129 0.930 . S
C4137 C4135 1.419 . S
C4137 C4138 1.362 . S
C4138 H4130 0.930 . S
C4138 C4137 1.362 . S
C4138 C4141 1.409 . S
C4139 H4131 0.930 . S
C4139 C4140 1.355 . S
C4139 C4141 1.415 . S
C4140 C4139 1.355 . S
C4140 C4142 1.419 . S
C4141 C4136 1.425 . S
C4141 C4138 1.409 . S
C4141 C4139 1.415 . S
C4142 H4132 0.930 . S
C4142 C4140 1.419 . S
C4142 C4143 1.362 . S
C4143 H4133 0.930 . S
C4143 C4136 1.409 . S
C4143 C4142 1.362 . S
H4144 C4150 0.930 . S
H4145 C4153 0.930 . S
H4146 C4154 0.930 . S
H4147 C4155 0.930 . S
H4148 C4158 0.930 . S
H4149 C4159 0.930 . S
C4150 H4144 0.930 . S
C4150 C4151 1.355 . S
C4150 C4152 1.415 . S
C4151 C4150 1.355 . S
C4151 C4153 1.419 . S
C4152 C4150 1.415 . S
C4152 C4157 1.425 . S
C4152 C4159 1.409 . S
C4153 H4145 0.930 . S
C4153 C4151 1.419 . S
C4153 C4154 1.362 . S
C4154 H4146 0.930 . S
C4154 C4153 1.362 . S
C4154 C4157 1.409 . S
C4155 H4147 0.930 . S
C4155 C4156 1.355 . S
C4155 C4157 1.415 . S
C4156 C4155 1.355 . S
C4156 C4158 1.419 . S
C4157 C4152 1.425 . S
C4157 C4154 1.409 . S
C4157 C4155 1.415 . S
C4158 H4148 0.930 . S
C4158 C4156 1.419 . S
C4158 C4159 1.362 . S
C4159 H4149 0.930 . S
C4159 C4152 1.409 . S
C4159 C4158 1.362 . S
H4160 C4166 0.930 . S
H4161 C4169 0.930 . S
H4162 C4170 0.930 . S
H4163 C4171 0.930 . S
H4164 C4174 0.930 . S
H4165 C4175 0.930 . S
C4166 H4160 0.930 . S
C4166 C4167 1.355 . S
C4166 C4168 1.415 . S
C4167 C4166 1.355 . S
C4167 C4169 1.419 . S
C4168 C4166 1.415 . S
C4168 C4173 1.425 . S
C4168 C4175 1.409 . S
C4169 H4161 0.930 . S
C4169 C4167 1.419 . S
C4169 C4170 1.362 . S
C4170 H4162 0.930 . S
C4170 C4169 1.362 . S
C4170 C4173 1.409 . S
C4171 H4163 0.930 . S
C4171 C4172 1.355 . S
C4171 C4173 1.415 . S
C4172 C4171 1.355 . S
C4172 C4174 1.419 . S
C4173 C4168 1.425 . S
C4173 C4170 1.409 . S
C4173 C4171 1.415 . S
C4174 H4164 0.930 . S
C4174 C4172 1.419 . S
C4174 C4175 1.362 . S
C4175 H4165 0.930 . S
C4175 C4168 1.409 . S
C4175 C4174 1.362 . S
H4176 C4182 0.930 . S
H4177 C4185 0.930 . S
H4178 C4186 0.930 . S
H4179 C4187 0.930 . S
H4180 C4190 0.930 . S
H4181 C4191 0.930 . S
C4182 H4176 0.930 . S
C4182 C4183 1.355 . S
C4182 C4184 1.415 . S
C4183 C4182 1.355 . S
C4183 C4185 1.419 . S
C4184 C4182 1.415 . S
C4184 C4189 1.425 . S
C4184 C4191 1.409 . S
C4185 H4177 0.930 . S
C4185 C4183 1.419 . S
C4185 C4186 1.362 . S
C4186 H4178 0.930 . S
C4186 C4185 1.362 . S
C4186 C4189 1.409 . S
C4187 H4179 0.930 . S
C4187 C4188 1.355 . S
C4187 C4189 1.415 . S
C4188 C4187 1.355 . S
C4188 C4190 1.419 . S
C4189 C4184 1.425 . S
C4189 C4186 1.409 . S
C4189 C4187 1.415 . S
C4190 H4180 0.930 . S
C4190 C4188 1.419 . S
C4190 C4191 1.362 . S
C4191 H4181 0.930 . S
C4191 C4184 1.409 . S
C4191 C4190 1.362 . S
H4192 C4198 0.930 . S
H4193 C4201 0.930 . S
H4194 C4202 0.930 . S
H4195 C4203 0.930 . S
H4196 C4206 0.930 . S
H4197 C4207 0.930 . S
C4198 H4192 0.930 . S
C4198 C4199 1.355 . S
C4198 C4200 1.415 . S
C4199 C4198 1.355 . S
C4199 C4201 1.419 . S
C4200 C4198 1.415 . S
C4200 C4205 1.425 . S
C4200 C4207 1.409 . S
C4201 H4193 0.930 . S
C4201 C4199 1.419 . S
C4201 C4202 1.362 . S
C4202 H4194 0.930 . S
C4202 C4201 1.362 . S
C4202 C4205 1.409 . S
C4203 H4195 0.930 . S
C4203 C4204 1.355 . S
C4203 C4205 1.415 . S
C4204 C4203 1.355 . S
C4204 C4206 1.419 . S
C4205 C4200 1.425 . S
C4205 C4202 1.409 . S
C4205 C4203 1.415 . S
C4206 H4196 0.930 . S
C4206 C4204 1.419 . S
C4206 C4207 1.362 . S
C4207 H4197 0.930 . S
C4207 C4200 1.409 . S
C4207 C4206 1.362 . S
H4208 C4214 0.930 . S
H4209 C4217 0.930 . S
H4210 C4218 0.930 . S
H4211 C4219 0.930 . S
H4212 C4222 0.930 . S
H4213 C4223 0.930 . S
C4214 H4208 0.930 . S
C4214 C4215 1.355 . S
C4214 C4216 1.415 . S
C4215 C4214 1.355 . S
C4215 C4217 1.419 . S
C4216 C4214 1.415 . S
C4216 C4221 1.425 . S
C4216 C4223 1.409 . S
C4217 H4209 0.930 . S
C4217 C4215 1.419 . S
C4217 C4218 1.362 . S
C4218 H4210 0.930 . S
C4218 C4217 1.362 . S
C4218 C4221 1.409 . S
C4219 H4211 0.930 . S
C4219 C4220 1.355 . S
C4219 C4221 1.415 . S
C4220 C4219 1.355 . S
C4220 C4222 1.419 . S
C4221 C4216 1.425 . S
C4221 C4218 1.409 . S
C4221 C4219 1.415 . S
C4222 H4212 0.930 . S
C4222 C4220 1.419 . S
C4222 C4223 1.362 . S
C4223 H4213 0.930 . S
C4223 C4216 1.409 . S
C4223 C4222 1.362 . S
H4224 C4230 0.930 . S
H4225 C4233 0.930 . S
H4226 C4234 0.930 . S
H4227 C4235 0.930 . S
H4228 C4238 0.930 . S
H4229 C4239 0.930 . S
C4230 H4224 0.930 . S
C4230 C4231 1.355 . S
C4230 C4232 1.415 . S
C4231 C4230 1.355 . S
C4231 C4233 1.419 . S
C4232 C4230 1.415 . S
C4232 C4237 1.446 1_455 S
C4232 C4239 1.409 1_455 S
C4233 H4225 0.930 . S
C4233 C4231 1.419 . S
C4233 C4234 1.362 . S
C4234 H4226 0.930 . S
C4234 C4233 1.362 . S
C4234 C4237 1.347 1_455 S
C4235 H4227 0.930 . S
C4235 C4236 1.355 . S
C4235 C4237 1.459 . S
C4236 C4235 1.355 . S
C4236 C4238 1.419 . S
C4237 C4232 1.446 1_655 S
C4237 C4234 1.347 1_655 S
C4237 C4235 1.459 . S
C4238 H4228 0.930 . S
C4238 C4236 1.419 . S
C4238 C4239 1.362 . S
C4239 H4229 0.930 . S
C4239 C4232 1.409 1_655 S
C4239 C4238 1.362 . S
H4240 C4246 0.930 . S
H4241 C4249 0.930 . S
H4242 C4250 0.930 . S
H4243 C4251 0.930 . S
H4244 C4254 0.930 . S
H4245 C4255 0.930 . S
C4246 H4240 0.930 . S
C4246 C4247 1.355 . S
C4246 C4248 1.415 . S
C4247 C4246 1.355 . S
C4247 C4249 1.419 . S
C4248 C4246 1.415 . S
C4248 C4253 1.425 . S
C4248 C4255 1.409 . S
C4249 H4241 0.930 . S
C4249 C4247 1.419 . S
C4249 C4250 1.362 . S
C4250 H4242 0.930 . S
C4250 C4249 1.362 . S
C4250 C4253 1.409 . S
C4251 H4243 0.930 . S
C4251 C4252 1.355 . S
C4251 C4253 1.415 . S
C4252 C4251 1.355 . S
C4252 C4254 1.419 . S
C4253 C4248 1.425 . S
C4253 C4250 1.409 . S
C4253 C4251 1.415 . S
C4254 H4244 0.930 . S
C4254 C4252 1.419 . S
C4254 C4255 1.362 . S
C4255 H4245 0.930 . S
C4255 C4248 1.409 . S
C4255 C4254 1.362 . S
H4256 C4262 0.930 . S
H4257 C4265 0.930 . S
H4258 C4266 0.930 . S
H4259 C4267 0.930 . S
H4260 C4270 0.930 . S
H4261 C4271 0.930 . S
C4262 H4256 0.930 . S
C4262 C4263 1.355 . S
C4262 C4264 1.415 . S
C4263 C4262 1.355 . S
C4263 C4265 1.419 . S
C4264 C4262 1.415 . S
C4264 C4269 1.425 1_545 S
C4264 C4271 1.409 . S
C4265 H4257 0.930 . S
C4265 C4263 1.419 . S
C4265 C4266 1.362 1_545 S
C4266 H4258 0.930 . S
C4266 C4265 1.362 1_565 S
C4266 C4269 1.409 . S
C4267 H4259 0.930 . S
C4267 C4268 1.355 . S
C4267 C4269 1.415 . S
C4268 C4267 1.355 . S
C4268 C4270 1.419 . S
C4269 C4264 1.425 1_565 S
C4269 C4266 1.409 . S
C4269 C4267 1.415 . S
C4270 H4260 0.930 . S
C4270 C4268 1.419 . S
C4270 C4271 1.362 1_565 S
C4271 H4261 0.930 . S
C4271 C4264 1.409 . S
C4271 C4270 1.362 1_545 S
H4272 C4278 0.934 . S
H4273 C4281 0.930 . S
H4274 C4282 0.930 1_565 S
H4275 C4283 0.938 . S
H4276 C4286 0.930 . S
H4277 C4287 0.930 1_545 S
C4278 H4272 0.934 . S
C4278 C4279 1.355 . S
C4278 C4280 1.415 1_556 S
C4279 C4278 1.355 . S
C4279 C4281 1.419 . S
C4280 C4278 1.415 1_554 S
C4280 C4285 1.425 1_544 S
C4280 C4287 1.409 1_545 S
C4281 H4273 0.930 . S
C4281 C4279 1.419 . S
C4281 C4282 1.362 . S
C4282 H4274 0.930 1_545 S
C4282 C4281 1.362 . S
C4282 C4285 1.409 1_545 S
C4283 H4275 0.938 . S
C4283 C4284 1.355 . S
C4283 C4285 1.415 1_554 S
C4284 C4283 1.355 . S
C4284 C4286 1.419 . S
C4285 C4280 1.425 1_566 S
C4285 C4282 1.409 1_565 S
C4285 C4283 1.415 1_556 S
C4286 H4276 0.930 . S
C4286 C4284 1.419 . S
C4286 C4287 1.362 . S
C4287 H4277 0.930 1_565 S
C4287 C4280 1.409 1_565 S
C4287 C4286 1.362 . S
H4288 C4294 0.930 . S
H4289 C4297 0.929 1_554 S
H4290 C4298 0.930 . S
H4291 C4299 0.930 . S
H4292 C4302 0.931 1_556 S
H4293 C4303 0.930 . S
C4294 H4288 0.930 . S
C4294 C4295 1.355 . S
C4294 C4296 1.415 1_655 S
C4295 C4294 1.355 . S
C4295 C4297 1.419 . S
C4296 C4294 1.415 1_455 S
C4296 C4301 1.425 1_456 S
C4296 C4303 1.409 . S
C4297 H4289 0.929 1_556 S
C4297 C4295 1.419 . S
C4297 C4298 1.362 1_556 S
C4298 H4290 0.930 . S
C4298 C4297 1.362 1_554 S
C4298 C4301 1.409 . S
C4299 H4291 0.930 . S
C4299 C4300 1.355 . S
C4299 C4301 1.415 1_455 S
C4300 C4299 1.355 . S
C4300 C4302 1.419 . S
C4301 C4296 1.425 1_654 S
C4301 C4298 1.409 . S
C4301 C4299 1.415 1_655 S
C4302 H4292 0.931 1_554 S
C4302 C4300 1.419 . S
C4302 C4303 1.362 1_554 S
C4303 H4293 0.930 . S
C4303 C4296 1.409 . S
C4303 C4302 1.362 1_556 S
H4304 C4310 0.930 . S
H4305 C4313 0.931 1_554 S
H4306 C4314 0.930 . S
H4307 C4315 0.930 . S
H4308 C4318 0.929 1_556 S
H4309 C4319 0.930 . S
C4310 H4304 0.930 . S
C4310 C4311 1.355 . S
C4310 C4312 1.415 . S
C4311 C4310 1.355 . S
C4311 C4313 1.415 . S
C4312 C4310 1.415 . S
C4312 C4317 1.425 1_556 S
C4312 C4319 1.409 . S
C4313 H4305 0.931 1_556 S
C4313 C4311 1.415 . S
C4313 C4314 1.366 1_556 S
C4314 H4306 0.930 . S
C4314 C4313 1.366 1_554 S
C4314 C4317 1.409 . S
C4315 H4307 0.930 . S
C4315 C4316 1.355 . S
C4315 C4317 1.415 . S
C4316 C4315 1.355 . S
C4316 C4318 1.424 . S
C4317 C4312 1.425 1_554 S
C4317 C4314 1.409 . S
C4317 C4315 1.415 . S
C4318 H4308 0.929 1_554 S
C4318 C4316 1.424 . S
C4318 C4319 1.358 1_554 S
C4319 H4309 0.930 . S
C4319 C4312 1.409 . S
C4319 C4318 1.358 1_556 S
C3175 C20 1.099 . S
C3180 C645 1.124 . S
C3191 C117 1.146 . S
C3196 C724 1.191 . S
C3207 C557 1.183 . S
C3212 C233 1.129 . S
C3223 C1017 1.191 . S
C3228 C284 1.144 . S
C3239 C401 1.187 . S
C3244 C841 1.189 . S
C3255 C469 1.127 . S
C3260 C929 1.117 . S
C3271 C137 1.151 . S
C3276 C548 1.178 . S
C3287 C196 1.187 . S
C3292 C636 1.170 . S
C3303 C733 1.109 . S
C3308 C57 1.172 . S
C3319 C849 1.115 . S
C3324 C489 1.176 . S
C3335 C321 1.145 . S
C3340 C937 1.175 . S
C3351 C1025 1.183 . S
C3356 C381 1.170 . S
C3367 C1701 1.196 . S
C3372 C1076 1.166 . S
C3383 C1164 1.141 . S
C3388 C1780 1.122 . S
C3399 C1289 1.106 . S
C3404 C1613 1.119 . S
C3415 C2081 1.177 . S
C3420 C1340 1.191 . S
C3431 C1457 1.145 . S
C3436 C1905 1.191 . S
C3447 C1993 1.193 . S
C3452 C1525 1.183 . S
C3463 C1201 1.187 . S
C3468 C1604 1.172 . S
C3479 C1692 1.095 . S
C3484 C1252 1.117 . S
C3495 C1113 1.144 . S
C3500 C1789 1.088 . S
C3511 C1897 1.168 . S
C3516 C1545 1.137 . S
C3527 C1985 1.123 . S
C3532 C1377 1.112 . S
C3543 C2073 1.145 . S
C3548 C1437 1.188 . S
C3559 C2757 1.140 . S
C3564 C2169 1.169 . S
C3575 C2836 1.187 . S
C3580 C2229 1.137 . S
C3591 C2669 1.147 . S
C3596 C2345 1.097 . S
C3607 C2396 1.101 . S
C3612 C3137 1.155 . S
C3623 C2513 1.189 . S
C3628 C2961 1.186 . S
C3639 C3041 1.117 . S
C3644 C2581 1.118 . S
C3655 C2660 1.103 . S
C3660 C2249 1.166 . S
C3671 C2308 1.134 . S
C3676 C2748 1.165 . S
C3687 C2132 1.172 . S
C3692 C2845 1.183 . S
C3703 C2953 1.137 . S
C3708 C2601 1.116 . S
C3719 C3049 1.178 . S
C3724 C2433 1.151 . S
C3735 C3129 1.086 . S
C3740 C2493 1.137 . S
C3751 C313 1.671 . S
C3756 C49 1.650 . S
C3767 C372 1.644 . S
C3772 C145 1.660 . S
C3783 C205 1.672 . S
C3788 C497 1.651 . S
C3799 C821 1.726 . S
C3804 C577 1.714 . S
C3815 C909 1.704 . S
C3820 C665 1.722 . S
C3831 C997 1.686 . S
C3836 C761 1.710 . S
C3847 C1369 1.704 . S
C3852 C1105 1.680 . S
C3863 C1428 1.641 . S
C3868 C1193 1.653 . S
C3879 C1261 1.728 . S
C3884 C1553 1.720 . S
C3895 C1868 1.640 . S
C3900 C1633 1.650 . S
C3911 C1956 1.668 . S
C3916 C1721 1.694 . S
C3927 C2044 1.726 . S
C3932 C1817 1.714 . S
C3943 C2425 1.641 . S
C3948 C2141 1.641 . S
C3959 C2257 1.685 . S
C3964 C2484 1.661 . S
C3975 C2609 1.680 . S
C3980 C2317 1.657 . S
C3991 C2689 1.687 . S
C3996 C2924 1.711 . S
C4007 C2777 1.642 . S
C4012 C3021 1.643 . S
C4023 C2873 1.703 . S
C4028 C3100 1.722 . S
C4039 C29 1.524 . S
C4044 C1641 1.523 . S
C4055 C1729 1.515 . S
C4060 C108 1.519 . S
C4071 C1809 1.474 . S
C4076 C225 1.476 . S
C4087 C2933 1.482 . S
C4092 C293 1.487 . S
C4103 C3012 1.521 . S
C4108 C409 1.522 . S
C4119 C3109 1.525 . S
C4124 C460 1.526 . S
C4135 C585 1.490 . S
C4140 C2161 1.495 . S
C4151 C2220 1.526 . S
C4156 C673 1.525 . S
C4167 C2337 1.523 . S
C4172 C753 1.522 . S
C4183 C812 1.508 . S
C4188 C1349 1.511 . S
C4199 C900 1.477 . S
C4204 C1465 1.481 . S
C4215 C988 1.469 . S
C4220 C1516 1.474 . S
C4231 C2697 1.491 . S
C4236 C1085 1.496 . S
C4247 C2785 1.503 . S
C4252 C1173 1.507 . S
C4263 C1281 1.526 . S
C4268 C2865 1.524 . S
C4279 C1877 1.506 . S
C4284 C2405 1.507 . S
C4295 C1965 1.466 . S
C4300 C2521 1.470 . S
C4311 C2053 1.473 . S
C4316 C2572 1.478 . S
