# Generated by pormake.
# Topology xfy, (5)-cn, num edge types: 1
# Building blocks:
#     Node 0, Type 0, BuildingBlock: BEQFEK_clean_sbu_0, # of connection points: 5
#     Node 1, Type 0, BuildingBlock: BEQFEK_clean_sbu_0, # of connection points: 5
#     Node 2, Type 0, BuildingBlock: BEQFEK_clean_sbu_0, # of connection points: 5
#     Node 3, Type 0, BuildingBlock: BEQFEK_clean_sbu_0, # of connection points: 5
#     Node 4, Type 0, BuildingBlock: BEQFEK_clean_sbu_0, # of connection points: 5
#     Node 5, Type 0, BuildingBlock: BEQFEK_clean_sbu_0, # of connection points: 5
#     Node 6, Type 0, BuildingBlock: BEQFEK_clean_sbu_0, # of connection points: 5
#     Node 7, Type 0, BuildingBlock: BEQFEK_clean_sbu_0, # of connection points: 5
#     Edge 8, Type (0, 0), BuildingBlock: ZUJKAS_clean_linker_0, # of connection points: 2
#     Edge 9, Type (0, 0), BuildingBlock: ZUJKAS_clean_linker_0, # of connection points: 2
#     Edge 10, Type (0, 0), BuildingBlock: ZUJKAS_clean_linker_0, # of connection points: 2
#     Edge 11, Type (0, 0), BuildingBlock: ZUJKAS_clean_linker_0, # of connection points: 2
#     Edge 12, Type (0, 0), BuildingBlock: ZUJKAS_clean_linker_0, # of connection points: 2
#     Edge 13, Type (0, 0), BuildingBlock: ZUJKAS_clean_linker_0, # of connection points: 2
#     Edge 14, Type (0, 0), BuildingBlock: ZUJKAS_clean_linker_0, # of connection points: 2
#     Edge 15, Type (0, 0), BuildingBlock: ZUJKAS_clean_linker_0, # of connection points: 2
#     Edge 16, Type (0, 0), BuildingBlock: ZUJKAS_clean_linker_0, # of connection points: 2
#     Edge 17, Type (0, 0), BuildingBlock: ZUJKAS_clean_linker_0, # of connection points: 2
#     Edge 18, Type (0, 0), BuildingBlock: ZUJKAS_clean_linker_0, # of connection points: 2
#     Edge 19, Type (0, 0), BuildingBlock: ZUJKAS_clean_linker_0, # of connection points: 2
#     Edge 20, Type (0, 0), BuildingBlock: ZUJKAS_clean_linker_0, # of connection points: 2
#     Edge 21, Type (0, 0), BuildingBlock: ZUJKAS_clean_linker_0, # of connection points: 2
#     Edge 22, Type (0, 0), BuildingBlock: ZUJKAS_clean_linker_0, # of connection points: 2
#     Edge 23, Type (0, 0), BuildingBlock: ZUJKAS_clean_linker_0, # of connection points: 2
#     Edge 24, Type (0, 0), BuildingBlock: ZUJKAS_clean_linker_0, # of connection points: 2
#     Edge 25, Type (0, 0), BuildingBlock: ZUJKAS_clean_linker_0, # of connection points: 2
#     Edge 26, Type (0, 0), BuildingBlock: ZUJKAS_clean_linker_0, # of connection points: 2
#     Edge 27, Type (0, 0), BuildingBlock: ZUJKAS_clean_linker_0, # of connection points: 2
# Relax obj value: 0.384
# Max RMSD: 0.216
# Mean RMSD: 0.216
data_MOF--net-xfy--node1-BEQFEK_clean_sbu_0--edge1-ZUJKAS_clean_linker_0
_symmetry_space_group_name_H-M    P1
_symmetry_Int_Tables_number       1
_symmetry_cell_setting            triclinic
loop_
_symmetry_equiv_pos_as_xyz
'x, y, z'
_cell_length_a     36.654869
_cell_length_b     36.688294
_cell_length_c     72.512768
_cell_angle_alpha  89.988261
_cell_angle_beta   90.005731
_cell_angle_gamma 90.01937
loop_
_atom_site_label
_atom_site_type_symbol
_atom_site_fract_x
_atom_site_fract_y
_atom_site_fract_z
_atom_type_partial_charge
Co0 Co 0.2478 0.07233 0.41226 0.0
Co1 Co 0.23568 0.13647 0.38439 0.0
C2 C 0.1849 0.07312 0.38548 0.0
O3 O 0.2034 0.0587 0.39842 0.0
O4 O 0.19416 0.10356 0.37845 0.0
C5 C 0.25531 0.99775 0.42237 0.0
O6 O 0.24387 0.99255 0.4054 0.0
C7 C 0.23005 0.17416 0.34895 0.0
C8 C 0.24679 0.2302 0.35633 0.0
C9 C 0.23666 0.20846 0.34159 0.0
N10 N 0.23663 0.17549 0.36715 0.0
N11 N 0.24618 0.20913 0.37153 0.0
C12 C 0.21577 0.14101 0.33928 0.0
H13 H 0.1891 0.13342 0.34541 0.0
H14 H 0.23455 0.11774 0.34154 0.0
H15 H 0.21171 0.14564 0.32432 0.0
C16 C 0.31911 0.06958 0.39352 0.0
N17 N 0.28594 0.08444 0.39599 0.0
N18 N 0.28106 0.1108 0.38391 0.0
C19 C 0.31112 0.11317 0.37318 0.0
C20 C 0.33601 0.08714 0.37896 0.0
C21 C 0.33339 0.03781 0.40427 0.0
H22 H 0.32859 0.04229 0.4192 0.0
H23 H 0.31846 0.01289 0.40005 0.0
H24 H 0.36292 0.03338 0.40184 0.0
O25 O 0.2363 0.11353 0.4287 0.0
O26 O 0.22656 0.15867 0.40894 0.0
H27 H 0.30947 0.16775 0.36275 0.0
H28 H 0.34489 0.13977 0.35275 0.0
C29 C 0.31635 0.13998 0.35786 0.0
H30 H 0.2979 0.13299 0.34629 0.0
H31 H 0.25309 0.2175 0.38483 0.0
O32 O 0.26036 0.03013 0.42806 0.0
C33 C 0.22782 0.14653 0.42538 0.0
Co34 Co 0.06653 0.75948 0.57887 0.0
Co35 Co 0.12857 0.77052 0.60804 0.0
C36 C 0.06673 0.82251 0.60574 0.0
O37 O 0.05339 0.80449 0.59233 0.0
O38 O 0.09605 0.81241 0.61367 0.0
C39 C 0.99217 0.74711 0.56745 0.0
O40 O 0.9844 0.74985 0.58508 0.0
C41 C 0.16632 0.77739 0.64367 0.0
C42 C 0.21994 0.75286 0.63729 0.0
C43 C 0.19954 0.76778 0.65148 0.0
N44 N 0.16688 0.76791 0.62577 0.0
N45 N 0.19916 0.75371 0.62199 0.0
C46 C 0.1351 0.79686 0.65262 0.0
H47 H 0.10998 0.78012 0.65151 0.0
H48 H 0.14067 0.80353 0.66726 0.0
H49 H 0.13007 0.82268 0.64512 0.0
C50 C 0.06078 0.68817 0.59761 0.0
N51 N 0.07622 0.72114 0.59542 0.0
N52 N 0.1015 0.72582 0.60811 0.0
C53 C 0.10227 0.69606 0.61909 0.0
C54 C 0.07626 0.67141 0.61284 0.0
C55 C 0.03346 0.67193 0.58465 0.0
H56 H 0.03812 0.68206 0.57045 0.0
H57 H 0.0056 0.67972 0.5891 0.0
H58 H 0.03528 0.64172 0.58466 0.0
O59 O 0.10916 0.76857 0.56322 0.0
O60 O 0.15273 0.77947 0.58374 0.0
H61 H 0.15493 0.69218 0.63161 0.0
H62 H 0.11977 0.6671 0.64366 0.0
C63 C 0.12585 0.69232 0.63583 0.0
H64 H 0.12139 0.71598 0.64502 0.0
H65 H 0.20667 0.74379 0.60906 0.0
O66 O 0.02519 0.74907 0.56219 0.0
C67 C 0.1419 0.777 0.5671 0.0
Co68 Co 0.76054 0.94017 0.41042 0.0
Co69 Co 0.76882 0.87242 0.38424 0.0
C70 C 0.82446 0.93316 0.38542 0.0
O71 O 0.80588 0.95097 0.39717 0.0
O72 O 0.81377 0.90222 0.37949 0.0
C73 C 0.76248 0.98604 0.44157 0.0
O74 O 0.78402 0.95987 0.44741 0.0
C75 C 0.77124 0.83496 0.34841 0.0
C76 C 0.75674 0.77858 0.35631 0.0
C77 C 0.7646 0.80046 0.34126 0.0
N78 N 0.76676 0.8336 0.3668 0.0
N79 N 0.75846 0.79976 0.37144 0.0
C80 C 0.78312 0.86832 0.33811 0.0
H81 H 0.80095 0.88549 0.34682 0.0
H82 H 0.7589 0.88477 0.33431 0.0
H83 H 0.79797 0.86082 0.32532 0.0
C84 C 0.6911 0.94688 0.39075 0.0
N85 N 0.723 0.92985 0.39365 0.0
N86 N 0.72551 0.90137 0.38268 0.0
C87 C 0.69465 0.89924 0.37252 0.0
C88 C 0.67209 0.9281 0.37729 0.0
C89 C 0.6797 0.98103 0.40046 0.0
H90 H 0.70195 0.00145 0.39957 0.0
H91 H 0.6545 0.99281 0.39445 0.0
H92 H 0.67505 0.97488 0.41526 0.0
O93 O 0.76882 0.89843 0.42713 0.0
O94 O 0.77322 0.84985 0.40906 0.0
H95 H 0.69427 0.84247 0.36545 0.0
H96 H 0.65581 0.86795 0.35663 0.0
C97 C 0.68553 0.8689 0.35953 0.0
H98 H 0.7001 0.87319 0.34633 0.0
H99 H 0.75329 0.79125 0.38492 0.0
O100 O 0.74847 0.98354 0.4256 0.0
C101 C 0.77329 0.8643 0.42502 0.0
Co102 Co 0.92151 0.24182 0.58172 0.0
Co103 Co 0.861 0.23466 0.612 0.0
C104 C 0.91586 0.17613 0.60675 0.0
O105 O 0.92963 0.19375 0.59333 0.0
O106 O 0.8891 0.18889 0.61592 0.0
C107 C 0.99476 0.23861 0.5688 0.0
O108 O -0.00024 0.22081 0.58431 0.0
C109 C 0.82689 0.22901 0.64841 0.0
C110 C 0.77332 0.25501 0.64358 0.0
C111 C 0.79468 0.23902 0.65709 0.0
N112 N 0.82478 0.23907 0.63064 0.0
N113 N 0.7926 0.2543 0.62779 0.0
C114 C 0.85828 0.20805 0.65631 0.0
H115 H 0.85891 0.18069 0.64983 0.0
H116 H 0.88433 0.22181 0.6528 0.0
H117 H 0.856 0.20437 0.67142 0.0
C118 C 0.93894 0.30781 0.60288 0.0
N119 N 0.91821 0.27823 0.59983 0.0
N120 N 0.8929 0.27594 0.61265 0.0
C121 C 0.89685 0.30434 0.62436 0.0
C122 C 0.92648 0.32509 0.61864 0.0
C123 C 0.96933 0.31997 0.59052 0.0
H124 H 0.96112 0.31679 0.5759 0.0
H125 H 0.99363 0.30268 0.59307 0.0
H126 H 0.97672 0.34888 0.59302 0.0
O127 O 0.87693 0.24018 0.56674 0.0
O128 O 0.83442 0.23088 0.58804 0.0
H129 H 0.84466 0.31061 0.63719 0.0
H130 H 0.88074 0.3366 0.64804 0.0
C131 C 0.87389 0.31053 0.64113 0.0
H132 H 0.87835 0.28797 0.65103 0.0
H133 H 0.78403 0.26471 0.61512 0.0
O134 O 0.9632 0.25081 0.56497 0.0
C135 C 0.84388 0.23449 0.57124 0.0
Co136 Co 0.25695 0.56582 0.91352 0.0
Co137 Co 0.27026 0.62796 0.88464 0.0
C138 C 0.32315 0.56723 0.88868 0.0
O139 O 0.30416 0.55394 0.90176 0.0
O140 O 0.31311 0.59589 0.88015 0.0
C141 C 0.25149 0.49158 0.92477 0.0
O142 O 0.26772 0.48565 0.9089 0.0
C143 C 0.2796 0.66508 0.84907 0.0
C144 C 0.25504 0.71892 0.8548 0.0
C145 C 0.27059 0.69814 0.84094 0.0
N146 N 0.26917 0.6661 0.86682 0.0
N147 N 0.25498 0.69852 0.87023 0.0
C148 C 0.29936 0.63355 0.84058 0.0
H149 H 0.28243 0.60858 0.84164 0.0
H150 H 0.30682 0.63873 0.826 0.0
H151 H 0.32479 0.62858 0.84845 0.0
C152 C 0.18916 0.55756 0.89229 0.0
N153 N 0.22098 0.5745 0.89561 0.0
N154 N 0.22606 0.60031 0.88327 0.0
C155 C 0.19743 0.60031 0.87151 0.0
C156 C 0.17337 0.57292 0.87677 0.0
C157 C 0.1734 0.52839 0.90435 0.0
H158 H 0.17837 0.53504 0.91905 0.0
H159 H 0.18693 0.50209 0.90118 0.0
H160 H 0.1436 0.52536 0.90216 0.0
O161 O 0.2631 0.60851 0.92947 0.0
O162 O 0.27637 0.65195 0.90922 0.0
H163 H 0.19484 0.65355 0.85957 0.0
H164 H 0.16867 0.61958 0.84723 0.0
C165 C 0.19415 0.62469 0.85505 0.0
H166 H 0.21762 0.62 0.84574 0.0
H167 H 0.24436 0.70635 0.88297 0.0
O168 O 0.24366 0.52405 0.9294 0.0
C169 C 0.27192 0.64124 0.92579 0.0
Co170 Co 0.56953 0.74151 0.0805 0.0
Co171 Co 0.63502 0.73068 0.1077 0.0
C172 C 0.57637 0.67492 0.10456 0.0
O173 O 0.56074 0.69361 0.09206 0.0
O174 O 0.60544 0.68611 0.11234 0.0
C175 C 0.49415 0.74465 0.07103 0.0
O176 O 0.49019 0.73055 0.08756 0.0
C177 C 0.67292 0.72297 0.14292 0.0
C178 C 0.72818 0.74305 0.13617 0.0
C179 C 0.70698 0.72992 0.15055 0.0
N180 N 0.67406 0.73161 0.12493 0.0
N181 N 0.70727 0.74314 0.12091 0.0
C182 C 0.63875 0.7117 0.1527 0.0
H183 H 0.61434 0.7197 0.14461 0.0
H184 H 0.63739 0.72427 0.16661 0.0
H185 H 0.63863 0.68162 0.15431 0.0
C186 C 0.55946 0.80775 0.10282 0.0
N187 N 0.57789 0.77721 0.09864 0.0
N188 N 0.60566 0.77356 0.11003 0.0
C189 C 0.60579 0.80217 0.12179 0.0
C190 C 0.57616 0.82426 0.11773 0.0
C191 C 0.5271 0.82157 0.09234 0.0
H192 H 0.50264 0.80568 0.0964 0.0
H193 H 0.52192 0.85082 0.09523 0.0
H194 H 0.5316 0.81803 0.07733 0.0
O195 O 0.61137 0.73796 0.06365 0.0
O196 O 0.65739 0.72685 0.08274 0.0
H197 H 0.6609 0.80279 0.13165 0.0
H198 H 0.63138 0.83589 0.14257 0.0
C199 C 0.63297 0.80785 0.1369 0.0
H200 H 0.62735 0.78837 0.14822 0.0
H201 H 0.71536 0.75203 0.10787 0.0
O202 O 0.52598 0.75264 0.06537 0.0
C203 C 0.6449 0.73108 0.06649 0.0
Co204 Co 0.74484 0.43009 0.91664 0.0
Co205 Co 0.73703 0.36223 0.89075 0.0
C206 C 0.67954 0.41988 0.89219 0.0
O207 O 0.69776 0.43731 0.90422 0.0
O208 O 0.69136 0.3901 0.88541 0.0
C209 C 0.74664 0.50608 0.92405 0.0
O210 O 0.73338 0.50788 0.90724 0.0
C211 C 0.73022 0.32208 0.8562 0.0
C212 C 0.75243 0.268 0.86357 0.0
C213 C 0.73806 0.28787 0.84901 0.0
N214 N 0.73946 0.32227 0.87412 0.0
N215 N 0.75234 0.28977 0.87851 0.0
C216 C 0.71745 0.35524 0.84604 0.0
H217 H 0.72533 0.38035 0.85358 0.0
H218 H 0.72912 0.35603 0.83192 0.0
H219 H 0.68726 0.35451 0.84494 0.0
C220 C 0.8122 0.4398 0.895 0.0
N221 N 0.78189 0.42093 0.89922 0.0
N222 N 0.77912 0.3926 0.88816 0.0
C223 C 0.80797 0.3926 0.87653 0.0
C224 C 0.82941 0.42284 0.88036 0.0
C225 C 0.82512 0.47292 0.90514 0.0
H226 H 0.82052 0.4695 0.92014 0.0
H227 H 0.80952 0.49699 0.9003 0.0
H228 H 0.85458 0.47799 0.90268 0.0
O229 O 0.73973 0.38963 0.93424 0.0
O230 O 0.73381 0.34133 0.91606 0.0
H231 H 0.81063 0.33725 0.86723 0.0
H232 H 0.84188 0.3677 0.85558 0.0
C233 C 0.8142 0.36512 0.86162 0.0
H234 H 0.7939 0.36932 0.85051 0.0
H235 H 0.76186 0.28275 0.89159 0.0
O236 O 0.75455 0.47511 0.93081 0.0
C237 C 0.73511 0.35552 0.93209 0.0
Co238 Co 0.43078 0.25459 0.07841 0.0
Co239 Co 0.36921 0.26453 0.10789 0.0
C240 C 0.42889 0.31863 0.10464 0.0
O241 O 0.44257 0.30051 0.09137 0.0
O242 O 0.40014 0.30789 0.11287 0.0
C243 C 0.50536 0.24405 0.06801 0.0
O244 O 0.51154 0.2484 0.08572 0.0
C245 C 0.33134 0.27264 0.14335 0.0
C246 C 0.27761 0.24829 0.13701 0.0
C247 C 0.29762 0.2643 0.15105 0.0
N248 N 0.33107 0.26207 0.12561 0.0
N249 N 0.29878 0.24788 0.12186 0.0
C250 C 0.36442 0.28735 0.15292 0.0
H251 H 0.38956 0.27944 0.14541 0.0
H252 H 0.36591 0.27714 0.16731 0.0
H253 H 0.36285 0.31754 0.15324 0.0
C254 C 0.43933 0.1843 0.09805 0.0
N255 N 0.42259 0.21653 0.09548 0.0
N256 N 0.39762 0.22098 0.10834 0.0
C257 C 0.39824 0.19187 0.11974 0.0
C258 C 0.42498 0.1679 0.11366 0.0
C259 C 0.46693 0.1683 0.08517 0.0
H260 H 0.46175 0.17758 0.07086 0.0
H261 H 0.49462 0.17709 0.08942 0.0
H262 H 0.46601 0.13806 0.08557 0.0
O263 O 0.38774 0.26237 0.06275 0.0
O264 O 0.34456 0.27123 0.08367 0.0
H265 H 0.34598 0.18814 0.13271 0.0
H266 H 0.38149 0.16301 0.14449 0.0
C267 C 0.3752 0.18821 0.13668 0.0
H268 H 0.38003 0.2119 0.1458 0.0
H269 H 0.29146 0.23727 0.10903 0.0
O270 O 0.47276 0.24465 0.06205 0.0
C271 C 0.35478 0.26942 0.06691 0.0
H272 H 0.6093 0.92958 0.39669 0.0
H273 H 0.55031 0.95352 0.38654 0.0
H274 H 0.59423 0.97219 0.33214 0.0
H275 H 0.65351 0.94769 0.34234 0.0
H276 H 0.56232 0.03472 0.35006 0.0
H277 H 0.46946 0.91581 0.35126 0.0
H278 H 0.49792 0.91837 0.37138 0.0
H279 H 0.51842 0.91136 0.34911 0.0
C280 C 0.60596 0.93792 0.38245 0.0
C281 C 0.63553 0.93689 0.37023 0.0
C282 C 0.57234 0.95142 0.37664 0.0
C283 C 0.56787 0.96423 0.35854 0.0
C284 C 0.59713 0.96206 0.3461 0.0
H285 H 0.3473 0.05407 0.346 0.0
H286 H 0.40488 0.02731 0.33495 0.0
C287 C 0.63077 0.94807 0.35188 0.0
C288 C 0.53397 0.98374 0.35367 0.0
H289 H 0.4416 0.97483 0.35634 0.0
C290 C 0.53586 0.02154 0.35089 0.0
C291 C 0.4996 0.96644 0.35454 0.0
C292 C 0.49615 0.92567 0.35655 0.0
C293 C 0.50415 0.04293 0.35064 0.0
C294 C 0.46996 0.02599 0.35336 0.0
C295 C 0.46792 0.98784 0.35442 0.0
C296 C 0.43691 0.04722 0.35792 0.0
C297 C 0.50761 0.08364 0.34836 0.0
C298 C 0.43612 0.06762 0.3743 0.0
C299 C 0.40344 0.08253 0.38061 0.0
C300 C 0.37119 0.07734 0.37061 0.0
C301 C 0.37215 0.05858 0.35377 0.0
C302 C 0.40485 0.04331 0.34751 0.0
H303 H 0.53264 0.09088 0.34053 0.0
H304 H 0.48351 0.09516 0.34114 0.0
H305 H 0.50956 0.09651 0.36217 0.0
H306 H 0.46035 0.07025 0.38274 0.0
H307 H 0.40298 0.09663 0.39374 0.0
H308 H 0.99603 0.33326 0.63032 0.0
H309 H 0.02668 0.39055 0.63815 0.0
H310 H 0.92433 0.44774 0.63312 0.0
H311 H 0.89365 0.39032 0.6253 0.0
H312 H 0.02593 0.44556 0.61169 0.0
H313 H 0.97239 0.49657 0.67836 0.0
H314 H 0.96967 0.4492 0.67163 0.0
H315 H 0.93772 0.48171 0.66253 0.0
C316 C 0.97999 0.35796 0.63147 0.0
C317 C 0.94264 0.35769 0.62723 0.0
C318 C 0.99744 0.39055 0.63595 0.0
C319 C 0.97773 0.42329 0.63636 0.0
C320 C 0.93988 0.42264 0.63327 0.0
H321 H 0.00797 0.64916 0.62149 0.0
H322 H 0.98843 0.5878 0.63016 0.0
C323 C 0.9224 0.38995 0.62877 0.0
C324 C 0.99746 0.45843 0.63681 0.0
H325 H 0.00192 0.54043 0.65885 0.0
C326 C 0.02129 0.46611 0.62218 0.0
C327 C 0.99103 0.48511 0.65045 0.0
C328 C 0.96655 0.47771 0.66674 0.0
C329 C 0.03744 0.5005 0.62026 0.0
C330 C 0.03032 0.52764 0.63365 0.0
C331 C 0.0075 0.51951 0.64867 0.0
C332 C 0.0431 0.56558 0.63111 0.0
C333 C 0.06015 0.50804 0.60329 0.0
C334 C 0.08041 0.57372 0.62937 0.0
C335 C 0.09155 0.60866 0.62408 0.0
C336 C 0.06553 0.63594 0.62077 0.0
C337 C 0.02846 0.62834 0.62371 0.0
C338 C 0.01733 0.59345 0.62881 0.0
H339 H 0.05638 0.48684 0.59252 0.0
H340 H 0.05314 0.53495 0.59725 0.0
H341 H 0.08944 0.50844 0.60715 0.0
H342 H 0.10076 0.55272 0.63141 0.0
H343 H 0.12029 0.61392 0.62183 0.0
H344 H 0.8953 0.38915 0.87723 0.0
H345 H 0.95282 0.41781 0.8675 0.0
H346 H 0.89443 0.51574 0.85299 0.0
H347 H 0.83709 0.48724 0.86275 0.0
H348 H 0.97793 0.46124 0.83302 0.0
H349 H 0.96337 0.53902 0.89865 0.0
H350 H 0.93806 0.49774 0.89421 0.0
H351 H 0.92519 0.53946 0.88307 0.0
C352 C 0.89475 0.4163 0.87135 0.0
C353 C 0.86213 0.43619 0.87073 0.0
C354 C 0.92747 0.43261 0.86582 0.0
C355 C 0.92771 0.4689 0.85968 0.0
C356 C 0.89467 0.48773 0.85773 0.0
H357 H 0.11404 0.61484 0.86872 0.0
H358 H 0.05343 0.5931 0.85943 0.0
C359 C 0.86208 0.47151 0.8633 0.0
C360 C 0.96259 0.48871 0.85806 0.0
H361 H 0.01598 0.5494 0.88122 0.0
C362 C 0.98625 0.4808 0.84342 0.0
C363 C 0.97308 0.51428 0.87164 0.0
C364 C 0.94882 0.52312 0.88788 0.0
C365 C 0.02063 0.4976 0.84214 0.0
C366 C 0.0317 0.52217 0.85613 0.0
C367 C 0.00741 0.5308 0.87043 0.0
C368 C 0.06945 0.53639 0.85752 0.0
C369 C 0.04471 0.48877 0.82589 0.0
C370 C 0.09872 0.51193 0.85903 0.0
C371 C 0.13323 0.52439 0.86409 0.0
C372 C 0.13895 0.5614 0.868 0.0
C373 C 0.11028 0.58623 0.86557 0.0
C374 C 0.07572 0.57379 0.86034 0.0
H375 H 0.02817 0.48136 0.8136 0.0
H376 H 0.0627 0.51204 0.82226 0.0
H377 H 0.06207 0.46496 0.82935 0.0
H378 H 0.09446 0.48289 0.85743 0.0
H379 H 0.15507 0.5048 0.86589 0.0
H380 H 0.38399 0.10872 0.12325 0.0
H381 H 0.40656 0.04912 0.13359 0.0
H382 H 0.51694 0.09004 0.13205 0.0
H383 H 0.49432 0.14972 0.12253 0.0
H384 H 0.44947 0.00841 0.11248 0.0
H385 H 0.52051 0.03112 0.17868 0.0
H386 H 0.48903 0.06392 0.16909 0.0
H387 H 0.53575 0.06256 0.16139 0.0
C388 C 0.41291 0.10516 0.12574 0.0
C389 C 0.4375 0.13357 0.12214 0.0
C390 C 0.42579 0.0712 0.13158 0.0
C391 C 0.46341 0.06526 0.13387 0.0
C392 C 0.48778 0.09416 0.13089 0.0
H393 H 0.6105 0.88983 0.11973 0.0
H394 H 0.582 0.94814 0.12815 0.0
C395 C 0.4749 0.12808 0.12519 0.0
C396 C 0.4777 0.0279 0.13659 0.0
H397 H 0.53944 0.97788 0.16124 0.0
C398 C 0.46849 0.00151 0.12339 0.0
C399 C 0.50279 0.01904 0.15075 0.0
C400 C 0.51229 0.04561 0.16588 0.0
C401 C 0.48495 0.96711 0.12341 0.0
C402 C 0.51099 0.95872 0.13716 0.0
C403 C 0.51948 0.98456 0.15073 0.0
C404 C 0.53092 0.92381 0.1367 0.0
C405 C 0.4756 0.94053 0.10821 0.0
C406 C 0.51214 0.89102 0.13958 0.0
C407 C 0.52827 0.85798 0.13473 0.0
C408 C 0.56346 0.85739 0.12713 0.0
C409 C 0.58346 0.88984 0.12575 0.0
C410 C 0.56722 0.92299 0.13053 0.0
H411 H 0.45965 0.95352 0.09696 0.0
H412 H 0.50078 0.92858 0.10221 0.0
H413 H 0.45907 0.9179 0.114 0.0
H414 H 0.48415 0.89123 0.14438 0.0
H415 H 0.51245 0.83312 0.1358 0.0
H416 H 0.13021 0.10122 0.36385 0.0
H417 H 0.06945 0.0751 0.35885 0.0
H418 H 0.10084 0.97892 0.38908 0.0
H419 H 0.16131 0.00474 0.39433 0.0
H420 H 0.04191 0.00487 0.34416 0.0
H421 H 0.01575 0.02617 0.41891 0.0
H422 H 0.05346 0.04733 0.40703 0.0
H423 H 0.05597 0.0002 0.41365 0.0
C424 C 0.12442 0.07423 0.36915 0.0
C425 C 0.15041 0.05534 0.37977 0.0
C426 C 0.08972 0.05934 0.36624 0.0
C427 C 0.08061 0.02538 0.37386 0.0
C428 C 0.10728 0.0054 0.38332 0.0
H429 H 0.88045 0.8977 0.36771 0.0
H430 H 0.94238 0.92073 0.36244 0.0
C431 C 0.14181 0.02026 0.38631 0.0
C432 C 0.04239 0.01242 0.3736 0.0
H433 H 0.97036 0.99516 0.40204 0.0
C434 C 0.02614 0.00274 0.35677 0.0
C435 C 0.02188 0.01018 0.39007 0.0
C436 C 0.03744 0.02179 0.40844 0.0
C437 C 0.98983 0.99031 0.35605 0.0
C438 C 0.96965 0.98733 0.37261 0.0
C439 C 0.98594 0.99735 0.38937 0.0
C440 C 0.93126 0.97469 0.37312 0.0
C441 C 0.97317 0.9811 0.33762 0.0
C442 C 0.90446 0.99744 0.38072 0.0
C443 C 0.86935 0.9843 0.38394 0.0
C444 C 0.86023 0.94805 0.37962 0.0
C445 C 0.88659 0.92577 0.37115 0.0
C446 C 0.92194 0.93895 0.36803 0.0
H447 H 0.98906 0.99293 0.32602 0.0
H448 H 0.97272 0.95105 0.3359 0.0
H449 H 0.94463 0.99112 0.33678 0.0
H450 H 0.91109 0.0251 0.38475 0.0
H451 H 0.84966 0.00231 0.39034 0.0
H452 H 0.90062 0.1327 0.63675 0.0
H453 H 0.92658 0.07271 0.64384 0.0
H454 H 0.99068 0.07748 0.59402 0.0
H455 H 0.9659 0.13735 0.58712 0.0
H456 H 0.92239 0.01011 0.62507 0.0
H457 H 0.06731 0.04875 0.63068 0.0
H458 H 0.03117 0.08217 0.6306 0.0
H459 H 0.04889 0.06443 0.60921 0.0
C460 C 0.92049 0.12109 0.6274 0.0
C461 C 0.93133 0.13999 0.61143 0.0
C462 C 0.93532 0.08683 0.63149 0.0
C463 C 0.96124 0.07098 0.61969 0.0
C464 C 0.97167 0.08964 0.60365 0.0
H465 H 0.00879 0.85578 0.5892 0.0
H466 H 0.98196 0.9145 0.59666 0.0
C467 C 0.95717 0.12384 0.59964 0.0
C468 C 0.97599 0.03403 0.62332 0.0
H469 H 0.05538 0.98559 0.62266 0.0
C470 C 0.95149 0.00478 0.62492 0.0
C471 C 0.01396 0.02705 0.62363 0.0
C472 C 0.04178 0.05738 0.62365 0.0
C473 C 0.96392 0.96861 0.62542 0.0
C474 C 0.00175 0.96154 0.62377 0.0
C475 C 0.02633 0.99089 0.62359 0.0
C476 C 0.01621 0.92432 0.62048 0.0
C477 C 0.93628 0.93839 0.6274 0.0
C478 C 0.04508 0.91047 0.63112 0.0
C479 C 0.06107 0.87697 0.62666 0.0
C480 C 0.04848 0.85674 0.61145 0.0
C481 C 0.01908 0.87042 0.60108 0.0
C482 C 0.00338 0.90394 0.60545 0.0
H483 H 0.91216 0.94768 0.6354 0.0
H484 H 0.92654 0.93018 0.61352 0.0
H485 H 0.94814 0.91416 0.63435 0.0
H486 H 0.05566 0.92589 0.64269 0.0
H487 H 0.08364 0.86728 0.63494 0.0
H488 H 0.64173 0.47477 0.90857 0.0
H489 H 0.58113 0.49695 0.9011 0.0
H490 H 0.57462 0.42121 0.8557 0.0
H491 H 0.63538 0.3977 0.86355 0.0
H492 H 0.55395 0.52911 0.87113 0.0
H493 H 0.48229 0.39761 0.88345 0.0
H494 H 0.52939 0.40451 0.88968 0.0
H495 H 0.51706 0.39673 0.86602 0.0
C496 C 0.62758 0.46272 0.89696 0.0
C497 C 0.64334 0.4342 0.88675 0.0
C498 C 0.59287 0.47556 0.89267 0.0
C499 C 0.57307 0.46047 0.87799 0.0
C500 C 0.58905 0.43272 0.86735 0.0
H501 H 0.36517 0.57656 0.85762 0.0
H502 H 0.42456 0.5488 0.85102 0.0
C503 C 0.62383 0.41945 0.87179 0.0
C504 C 0.5355 0.4738 0.87443 0.0
H505 H 0.44601 0.44836 0.87648 0.0
C506 C 0.53029 0.51144 0.87207 0.0
C507 C 0.50473 0.45064 0.87574 0.0
C508 C 0.50843 0.41017 0.879 0.0
C509 C 0.49527 0.52687 0.87208 0.0
C510 C 0.46449 0.50381 0.87382 0.0
C511 C 0.46965 0.46595 0.87511 0.0
C512 C 0.42719 0.51855 0.87664 0.0
C513 C 0.49182 0.56787 0.87147 0.0
C514 C 0.40821 0.50958 0.89282 0.0
C515 C 0.37411 0.52478 0.89644 0.0
C516 C 0.3583 0.54963 0.88403 0.0
C517 C 0.37686 0.55792 0.86757 0.0
C518 C 0.41087 0.5422 0.86382 0.0
H519 H 0.51823 0.58167 0.87428 0.0
H520 H 0.48258 0.57631 0.85754 0.0
H521 H 0.47149 0.57761 0.88169 0.0
H522 H 0.4202 0.49141 0.90292 0.0
H523 H 0.36061 0.51773 0.90924 0.0
H524 H 0.41531 0.36103 0.13516 0.0
H525 H 0.44175 0.42079 0.14233 0.0
H526 H 0.50629 0.4156 0.09264 0.0
H527 H 0.48124 0.35577 0.08576 0.0
H528 H 0.54535 0.44226 0.12062 0.0
H529 H 0.41156 0.51346 0.11688 0.0
H530 H 0.41466 0.47827 0.13401 0.0
H531 H 0.41709 0.46662 0.10996 0.0
C532 C 0.43531 0.37258 0.12584 0.0
C533 C 0.44594 0.35376 0.10981 0.0
C534 C 0.45024 0.4068 0.12991 0.0
C535 C 0.47549 0.42298 0.11784 0.0
C536 C 0.48683 0.40371 0.10215 0.0
H537 H 0.52396 0.63715 0.08607 0.0
H538 H 0.50033 0.57672 0.0929 0.0
C539 C 0.47236 0.36946 0.09821 0.0
C540 C 0.48953 0.46043 0.12089 0.0
H541 H 0.46339 0.54971 0.12152 0.0
C542 C 0.52747 0.4658 0.12104 0.0
C543 C 0.46608 0.49106 0.12133 0.0
C544 C 0.4251 0.48727 0.12039 0.0
C545 C 0.54266 0.50091 0.12062 0.0
C546 C 0.51919 0.53154 0.12067 0.0
C547 C 0.48129 0.52616 0.12154 0.0
C548 C 0.53296 0.56905 0.11749 0.0
C549 C 0.58354 0.50474 0.11893 0.0
C550 C 0.55891 0.58518 0.12918 0.0
C551 C 0.57301 0.61976 0.12513 0.0
C552 C 0.56087 0.63897 0.1095 0.0
C553 C 0.53398 0.62316 0.09821 0.0
C554 C 0.52033 0.58858 0.10213 0.0
H555 H 0.59682 0.4786 0.11509 0.0
H556 H 0.59077 0.52554 0.10842 0.0
H557 H 0.59496 0.51358 0.13237 0.0
H558 H 0.56842 0.57098 0.14135 0.0
H559 H 0.5934 0.63139 0.13421 0.0
H560 H 0.25559 0.21651 0.17003 0.0
H561 H 0.23966 0.21813 0.20269 0.0
H562 H 0.29651 0.32043 0.20863 0.0
H563 H 0.3123 0.31913 0.17582 0.0
H564 H 0.31797 0.26937 0.23394 0.0
H565 H 0.16738 0.27805 0.23248 0.0
H566 H 0.18415 0.24188 0.21816 0.0
H567 H 0.19528 0.28842 0.21262 0.0
C568 C 0.26423 0.23964 0.17822 0.0
C569 C 0.28591 0.26727 0.17049 0.0
C570 C 0.2549 0.24065 0.19686 0.0
C571 C 0.2666 0.26958 0.20803 0.0
C572 C 0.28723 0.29786 0.20022 0.0
H573 H 0.21097 0.27106 0.32623 0.0
H574 H 0.21768 0.29103 0.29402 0.0
C575 C 0.2966 0.29685 0.18154 0.0
C576 C 0.26031 0.26818 0.22816 0.0
H577 H 0.19412 0.25445 0.26054 0.0
C578 C 0.29086 0.26678 0.2398 0.0
C579 C 0.22492 0.26527 0.2358 0.0
C580 C 0.19106 0.26887 0.22412 0.0
C581 C 0.28704 0.26035 0.25874 0.0
C582 C 0.25183 0.25468 0.26613 0.0
C583 C 0.22113 0.25829 0.25474 0.0
C584 C 0.24667 0.24261 0.28537 0.0
C585 C 0.32079 0.25888 0.27064 0.0
C586 C 0.26027 0.20864 0.29097 0.0
C587 C 0.25638 0.19723 0.3092 0.0
C588 C 0.23835 0.2194 0.32206 0.0
C589 C 0.22457 0.25335 0.31645 0.0
C590 C 0.22837 0.26474 0.29814 0.0
H591 H 0.34396 0.27364 0.26416 0.0
H592 H 0.31554 0.27079 0.28446 0.0
H593 H 0.32906 0.23002 0.27252 0.0
H594 H 0.27425 0.1911 0.28125 0.0
H595 H 0.26834 0.1715 0.31332 0.0
H596 H 0.28979 0.7634 0.82601 0.0
H597 H 0.28516 0.78184 0.79352 0.0
H598 H 0.24572 0.67461 0.77943 0.0
H599 H 0.25008 0.65624 0.81173 0.0
H600 H 0.29838 0.70232 0.75461 0.0
H601 H 0.18624 0.80088 0.7684 0.0
H602 H 0.2275 0.80755 0.78137 0.0
H603 H 0.20051 0.76737 0.78513 0.0
C604 C 0.2806 0.74373 0.81588 0.0
C605 C 0.27116 0.70817 0.82125 0.0
C606 C 0.27782 0.7543 0.79741 0.0
C607 C 0.26494 0.72961 0.78414 0.0
C608 C 0.25604 0.69394 0.78945 0.0
H609 H 0.15853 0.74606 0.68078 0.0
H610 H 0.17763 0.74125 0.71296 0.0
C611 C 0.25888 0.68337 0.80787 0.0
C612 C 0.25912 0.74097 0.76479 0.0
H613 H 0.20489 0.7941 0.73757 0.0
C614 C 0.27826 0.72267 0.75084 0.0
C615 C 0.23256 0.76729 0.76001 0.0
C616 C 0.21024 0.78679 0.77446 0.0
C617 C 0.27091 0.72933 0.73215 0.0
C618 C 0.24409 0.75539 0.72737 0.0
C619 C 0.22561 0.77435 0.74133 0.0
C620 C 0.23244 0.76093 0.70805 0.0
C621 C 0.29067 0.70725 0.71771 0.0
C622 C 0.25681 0.77413 0.6947 0.0
C623 C 0.24582 0.77714 0.67629 0.0
C624 C 0.21016 0.76763 0.67109 0.0
C625 C 0.18573 0.75488 0.68453 0.0
C626 C 0.19672 0.75179 0.70288 0.0
H627 H 0.30516 0.68351 0.72378 0.0
H628 H 0.27132 0.69719 0.70708 0.0
H629 H 0.31116 0.72475 0.71075 0.0
H630 H 0.28438 0.78168 0.69847 0.0
H631 H 0.26521 0.78669 0.6661 0.0
H632 H 0.78523 0.73527 0.32668 0.0
H633 H 0.77886 0.71493 0.29459 0.0
H634 H 0.73193 0.81887 0.28013 0.0
H635 H 0.73696 0.83874 0.31211 0.0
H636 H 0.69219 0.7586 0.26759 0.0
H637 H 0.83932 0.74776 0.2494 0.0
H638 H 0.82487 0.72372 0.26974 0.0
H639 H 0.82356 0.77262 0.26935 0.0
C640 C 0.77388 0.75383 0.31658 0.0
C641 C 0.76263 0.78899 0.32177 0.0
C642 C 0.77045 0.74227 0.29828 0.0
C643 C 0.75555 0.76568 0.28497 0.0
C644 C 0.74395 0.8006 0.29018 0.0
H645 H 0.75061 0.77828 0.16824 0.0
H646 H 0.76403 0.78132 0.20121 0.0
C647 C 0.74734 0.81212 0.30842 0.0
C648 C 0.75057 0.75366 0.26568 0.0
H649 H 0.7968 0.73229 0.22628 0.0
C650 C 0.715 0.75251 0.25857 0.0
C651 C 0.78048 0.74592 0.25402 0.0
C652 C 0.81928 0.74775 0.26089 0.0
C653 C 0.7085 0.74479 0.23993 0.0
C654 C 0.73842 0.73741 0.2282 0.0
C655 C 0.77397 0.73768 0.2354 0.0
C656 C 0.73344 0.73274 0.20811 0.0
C657 C 0.66984 0.74623 0.23279 0.0
C658 C 0.71277 0.70375 0.20103 0.0
C659 C 0.70496 0.70203 0.18218 0.0
C660 C 0.71772 0.72928 0.17019 0.0
C661 C 0.74017 0.75706 0.17719 0.0
C662 C 0.74788 0.75882 0.196 0.0
H663 H 0.65094 0.7592 0.24281 0.0
H664 H 0.66852 0.76157 0.2196 0.0
H665 H 0.66004 0.71809 0.23015 0.0
H666 H 0.70213 0.68288 0.21012 0.0
H667 H 0.68875 0.67955 0.17706 0.0
H668 H 0.68554 0.30315 0.82314 0.0
H669 H 0.68723 0.28835 0.79024 0.0
H670 H 0.7878 0.22946 0.79832 0.0
H671 H 0.78652 0.24455 0.83114 0.0
H672 H 0.74301 0.31047 0.76702 0.0
H673 H 0.72861 0.16014 0.76572 0.0
H674 H 0.71638 0.18732 0.78556 0.0
H675 H 0.7633 0.17568 0.78134 0.0
C676 C 0.70805 0.28716 0.81789 0.0
C677 C 0.73642 0.27581 0.82959 0.0
C678 C 0.70874 0.27837 0.79916 0.0
C679 C 0.7375 0.25763 0.79189 0.0
C680 C 0.765 0.24493 0.8037 0.0
H681 H 0.83736 0.26015 0.68585 0.0
H682 H 0.82059 0.26252 0.71849 0.0
C683 C 0.76433 0.25373 0.82243 0.0
C684 C 0.74092 0.25253 0.77174 0.0
H685 H 0.75251 0.1881 0.73827 0.0
C686 C 0.74457 0.28372 0.7607 0.0
C687 C 0.7427 0.21761 0.76353 0.0
C688 C 0.73718 0.18326 0.77462 0.0
C689 C 0.75152 0.28092 0.74176 0.0
C690 C 0.75525 0.24603 0.73375 0.0
C691 C 0.75003 0.21479 0.74458 0.0
C692 C 0.76597 0.24177 0.71426 0.0
C693 C 0.75535 0.31528 0.73049 0.0
C694 C 0.74098 0.22859 0.70123 0.0
C695 C 0.75063 0.22694 0.6826 0.0
C696 C 0.78558 0.23779 0.67687 0.0
C697 C 0.81068 0.25046 0.69 0.0
C698 C 0.801 0.25226 0.70858 0.0
H699 H 0.74364 0.3393 0.7377 0.0
H700 H 0.78471 0.32069 0.72795 0.0
H701 H 0.74168 0.31225 0.7169 0.0
H702 H 0.71378 0.22051 0.70542 0.0
H703 H 0.73072 0.21751 0.67263 0.0
H704 H 0.19833 0.8256 0.56817 0.0
H705 H 0.2291 0.85308 0.5416 0.0
H706 H 0.17212 0.77954 0.5052 0.0
H707 H 0.14014 0.75306 0.53159 0.0
H708 H 0.27157 0.83241 0.51176 0.0
H709 H 0.13412 0.87798 0.48909 0.0
H710 H 0.14196 0.85738 0.51129 0.0
H711 H 0.13849 0.82944 0.49096 0.0
C712 C 0.19297 0.81479 0.55453 0.0
C713 C 0.16634 0.78774 0.55187 0.0
C714 C 0.21058 0.83048 0.53937 0.0
C715 C 0.20209 0.81901 0.52141 0.0
C716 C 0.17826 0.78948 0.51892 0.0
H717 H 0.23613 0.92683 0.4162 0.0
H718 H 0.22999 0.8785 0.43919 0.0
C719 C 0.16013 0.7743 0.53399 0.0
C720 C 0.21475 0.84051 0.50534 0.0
H721 H 0.18338 0.89284 0.46981 0.0
C722 C 0.25235 0.84547 0.50251 0.0
C723 C 0.18956 0.85787 0.49341 0.0
C724 C 0.14881 0.85576 0.4964 0.0
C725 C 0.26537 0.86734 0.488 0.0
C726 C 0.2401 0.88459 0.47616 0.0
C727 C 0.20264 0.87913 0.47881 0.0
C728 C 0.25123 0.91077 0.46172 0.0
C729 C 0.30592 0.87199 0.48544 0.0
C730 C 0.26595 0.94463 0.46674 0.0
C731 C 0.26924 0.97243 0.45367 0.0
C732 C 0.2577 0.96681 0.43539 0.0
C733 C 0.24513 0.9321 0.43017 0.0
C734 C 0.2417 0.9044 0.44327 0.0
H735 H 0.32156 0.85028 0.49263 0.0
H736 H 0.31319 0.87173 0.47058 0.0
H737 H 0.31436 0.89869 0.49124 0.0
H738 H 0.27286 0.95029 0.48098 0.0
H739 H 0.27919 0.99881 0.45811 0.0
H740 H 0.79966 0.88837 0.45779 0.0
H741 H 0.82371 0.85232 0.48301 0.0
H742 H 0.79103 0.75355 0.45517 0.0
H743 H 0.76868 0.78987 0.42908 0.0
H744 H 0.79917 0.80639 0.50705 0.0
H745 H 0.8963 0.73272 0.46124 0.0
H746 H 0.86863 0.76978 0.45296 0.0
H747 H 0.84882 0.72544 0.45655 0.0
C748 C 0.79719 0.859 0.45703 0.0
C749 C 0.78271 0.84196 0.44131 0.0
C750 C 0.81092 0.83832 0.47154 0.0
C751 C 0.80999 0.80009 0.47088 0.0
C752 C 0.79317 0.78294 0.45576 0.0
H753 H 0.92192 0.72298 0.57198 0.0
H754 H 0.87252 0.7248 0.54913 0.0
C755 C 0.78014 0.80372 0.44094 0.0
C756 C 0.8291 0.77922 0.48555 0.0
H757 H 0.90387 0.72572 0.49289 0.0
C758 C 0.82182 0.78834 0.50401 0.0
C759 C 0.8585 0.75545 0.48154 0.0
C760 C 0.86882 0.74538 0.46203 0.0
C761 C 0.84513 0.77744 0.51834 0.0
C762 C 0.87557 0.75513 0.5142 0.0
C763 C 0.88068 0.74302 0.496 0.0
C764 C 0.9056 0.74911 0.52763 0.0
C765 C 0.83851 0.79257 0.53742 0.0
C766 C 0.94108 0.76008 0.52285 0.0
C767 C 0.96939 0.75796 0.53561 0.0
C768 C 0.96276 0.74544 0.55359 0.0
C769 C 0.9276 0.73324 0.55827 0.0
C770 C 0.89934 0.73452 0.54528 0.0
H771 H 0.81834 0.81517 0.53735 0.0
H772 H 0.82766 0.77067 0.54643 0.0
H773 H 0.86426 0.80289 0.54357 0.0
H774 H 0.94672 0.77146 0.50935 0.0
H775 H 0.99617 0.76759 0.53158 0.0
H776 H 0.72921 0.05041 0.4319 0.0
H777 H 0.72709 0.10686 0.45015 0.0
H778 H 0.78116 0.05213 0.49509 0.0
H779 H 0.78361 0.99604 0.47713 0.0
H780 H 0.70247 0.11839 0.49346 0.0
H781 H 0.84632 0.14339 0.47291 0.0
H782 H 0.81513 0.11676 0.45908 0.0
H783 H 0.83566 0.09718 0.47927 0.0
C784 C 0.74013 0.05031 0.44578 0.0
C785 C 0.75703 0.01893 0.453 0.0
C786 C 0.73874 0.08247 0.45617 0.0
C787 C 0.75406 0.08345 0.47387 0.0
C788 C 0.76922 0.05174 0.48142 0.0
H789 H 0.7868 0.18726 0.57254 0.0
H790 H 0.75566 0.16069 0.54614 0.0
C791 C 0.77074 0.01978 0.47109 0.0
C792 C 0.75814 0.11801 0.48402 0.0
H793 H 0.8253 0.17371 0.4998 0.0
C794 C 0.72901 0.13127 0.49459 0.0
C795 C 0.79254 0.13509 0.48509 0.0
C796 C 0.82423 0.12267 0.47338 0.0
C797 C 0.7343 0.15966 0.50735 0.0
C798 C 0.7698 0.17418 0.50984 0.0
C799 C 0.79804 0.16271 0.49808 0.0
C800 C 0.78007 0.19694 0.52598 0.0
C801 C 0.70201 0.17306 0.51828 0.0
C802 C 0.80363 0.22684 0.52367 0.0
C803 C 0.82249 0.24121 0.53875 0.0
C804 C 0.81747 0.22648 0.55644 0.0
C805 C 0.79099 0.19932 0.55906 0.0
C806 C 0.77284 0.18429 0.54392 0.0
H807 H 0.67678 0.17213 0.5098 0.0
H808 H 0.69768 0.15486 0.53031 0.0
H809 H 0.70609 0.20136 0.5233 0.0
H810 H 0.80961 0.23719 0.51001 0.0
H811 H 0.8426 0.26236 0.5364 0.0
H812 H 0.19444 0.21318 0.42326 0.0
H813 H 0.1631 0.24537 0.44818 0.0
H814 H 0.2002 0.16448 0.48702 0.0
H815 H 0.23166 0.13219 0.46233 0.0
H816 H 0.10756 0.20859 0.467 0.0
H817 H 0.2111 0.26015 0.5161 0.0
H818 H 0.22167 0.2493 0.49237 0.0
H819 H 0.21852 0.21366 0.50934 0.0
C820 C 0.19682 0.20277 0.43719 0.0
C821 C 0.21519 0.16984 0.44077 0.0
C822 C 0.17891 0.22125 0.4514 0.0
C823 C 0.17956 0.20745 0.46944 0.0
C824 C 0.19991 0.17597 0.47326 0.0
H825 H 0.05901 0.2012 0.56834 0.0
H826 H 0.10499 0.201 0.54398 0.0
C827 C 0.21762 0.15736 0.45907 0.0
C828 C 0.15438 0.222 0.48356 0.0
H829 H 0.15042 0.25161 0.52812 0.0
C830 C 0.11683 0.2188 0.48024 0.0
C831 C 0.16669 0.23494 0.50082 0.0
C832 C 0.20672 0.24006 0.50485 0.0
C833 C 0.0912 0.22601 0.49409 0.0
C834 C 0.10351 0.23781 0.51162 0.0
C835 C 0.14106 0.24261 0.51468 0.0
C836 C 0.07803 0.2419 0.52733 0.0
C837 C 0.0514 0.21865 0.49015 0.0
C838 C 0.04825 0.26586 0.52635 0.0
C839 C 0.02158 0.2656 0.54012 0.0
C840 C 0.02468 0.24186 0.55527 0.0
C841 C 0.05576 0.21966 0.5568 0.0
C842 C 0.08213 0.2196 0.54292 0.0
H843 H 0.04761 0.20193 0.47752 0.0
H844 H 0.0383 0.20428 0.50189 0.0
H845 H 0.03701 0.24491 0.48803 0.0
H846 H 0.04505 0.28395 0.51466 0.0
H847 H 0.9982 0.28343 0.53872 0.0
H848 H 0.36644 0.26743 0.0297 0.0
H849 H 0.32948 0.29634 0.00586 0.0
H850 H 0.24811 0.32421 0.04639 0.0
H851 H 0.28503 0.29555 0.07049 0.0
H852 H 0.25219 0.29258 0.99341 0.0
H853 H 0.29235 0.42275 0.02762 0.0
H854 H 0.31475 0.3802 0.03279 0.0
H855 H 0.26973 0.38892 0.04145 0.0
C856 C 0.34033 0.27898 0.03354 0.0
C857 C 0.32907 0.27986 0.05208 0.0
C858 C 0.31915 0.29531 0.01985 0.0
C859 C 0.28642 0.3128 0.02446 0.0
C860 C 0.27353 0.31109 0.04264 0.0
H861 H 0.20931 0.49183 0.95583 0.0
H862 H 0.20668 0.44489 0.97974 0.0
C863 C 0.29469 0.2947 0.05638 0.0
C864 C 0.26908 0.33708 0.01078 0.0
H865 H 0.2638 0.42683 -0.00098 0.0
C866 C 0.25404 0.32198 0.99471 0.0
C867 C 0.27149 0.37536 0.01261 0.0
C868 C 0.2881 0.39299 0.02947 0.0
C869 C 0.24245 0.34429 0.98009 0.0
C870 C 0.24703 0.38251 0.98147 0.0
C871 C 0.26026 0.39755 -0.00204 0.0
C872 C 0.24243 0.40732 0.96549 0.0
C873 C 0.22596 0.32664 0.96327 0.0
C874 C 0.26272 0.4015 0.94932 0.0
C875 C 0.26401 0.42813 0.93558 0.0
C876 C 0.24565 0.4614 0.93793 0.0
C877 C 0.22401 0.46656 0.95371 0.0
C878 C 0.22237 0.43972 0.96735 0.0
H879 H 0.21157 0.301 0.96697 0.0
H880 H 0.20644 0.34512 0.95622 0.0
H881 H 0.24805 0.31948 0.95345 0.0
H882 H 0.27928 0.37727 0.94776 0.0
H883 H 0.28102 0.4234 0.92361 0.0
H884 H 0.32074 0.69745 0.92572 0.0
H885 H 0.34737 0.72687 0.95287 0.0
H886 H 0.27118 0.66992 0.98787 0.0
H887 H 0.24546 0.63928 0.96089 0.0
H888 H 0.32647 0.76825 0.98326 0.0
H889 H 0.36858 0.62852 0.00396 0.0
H890 H 0.34885 0.63822 0.98175 0.0
H891 H 0.32019 0.63435 0.0018 0.0
C892 C 0.30908 0.6919 0.93916 0.0
C893 C 0.28156 0.66554 0.94127 0.0
C894 C 0.32431 0.70873 0.95466 0.0
C895 C 0.31191 0.69975 0.9724 0.0
C896 C 0.2818 0.67643 0.97433 0.0
H897 H 0.42382 0.72341 0.07747 0.0
H898 H 0.37434 0.71917 0.05496 0.0
C899 C 0.26705 0.65907 0.95891 0.0
C900 C 0.33331 0.71096 0.98878 0.0
H901 H 0.38523 0.67628 0.02368 0.0
C902 C 0.3391 0.7482 0.99221 0.0
C903 C 0.3501 0.68469 0.00032 0.0
C904 C 0.34698 0.64423 0.99672 0.0
C905 C 0.36136 0.75983 0.00687 0.0
C906 C 0.37828 0.73349 0.01824 0.0
C907 C 0.37183 0.69638 0.01504 0.0
C908 C 0.40525 0.74311 0.03262 0.0
C909 C 0.36678 0.80008 0.01003 0.0
C910 C 0.43876 0.75866 0.02758 0.0
C911 C 0.46717 0.76095 0.04038 0.0
C912 C 0.46259 0.74749 0.0584 0.0
C913 C 0.4283 0.73386 0.06368 0.0
C914 C 0.39994 0.73152 0.05086 0.0
H915 H 0.3445 0.81637 0.00372 0.0
H916 H 0.36819 0.80637 0.025 0.0
H917 H 0.3929 0.80866 0.00362 0.0
H918 H 0.44368 0.76709 0.01348 0.0
H919 H 0.49321 0.77172 0.03588 0.0
H920 H 0.63817 0.75761 0.03152 0.0
H921 H 0.66799 0.73397 0.00381 0.0
H922 H 0.73245 0.66132 0.03738 0.0
H923 H 0.704 0.68605 0.06517 0.0
H924 H 0.76974 0.68342 0.00643 0.0
H925 H 0.63027 0.63532 0.98835 0.0
H926 H 0.63454 0.68387 0.99019 0.0
H927 H 0.64062 0.65578 0.0103 0.0
C928 C 0.65942 0.7373 0.033 0.0
C929 C 0.66832 0.72315 0.05044 0.0
C930 C 0.67631 0.72372 0.01718 0.0
C931 C 0.70151 0.69506 0.01852 0.0
C932 C 0.71283 0.68325 0.03603 0.0
H933 H 0.77486 0.51212 0.9588 0.0
H934 H 0.7701 0.56435 0.97951 0.0
C935 C 0.69652 0.69738 0.0519 0.0
C936 C 0.71237 0.67413 0.00195 0.0
H937 H 0.67757 0.61881 0.96845 0.0
C938 C 0.74962 0.6696 -0.00202 0.0
C939 C 0.68602 0.65583 0.99104 0.0
C940 C 0.64567 0.65758 0.99523 0.0
C941 C 0.76119 0.64677 0.98356 0.0
C942 C 0.73482 0.62804 0.97297 0.0
C943 C 0.69766 0.63357 0.97652 0.0
C944 C 0.74458 0.59965 0.95938 0.0
C945 C 0.80145 0.64243 0.97993 0.0
C946 C 0.73214 0.60232 0.94113 0.0
C947 C 0.7346 0.57241 0.92928 0.0
C948 C 0.74912 0.5392 0.93558 0.0
C949 C 0.76336 0.53726 0.95356 0.0
C950 C 0.76102 0.56722 0.96537 0.0
H951 H 0.81728 0.6659 0.98538 0.0
H952 H 0.81133 0.61739 0.9869 0.0
H953 H 0.80695 0.63966 0.96493 0.0
H954 H 0.71906 0.62704 0.93633 0.0
H955 H 0.72352 0.57484 0.91549 0.0
H956 H 0.7141 0.37906 0.96598 0.0
H957 H 0.68975 0.3429 0.99103 0.0
H958 H 0.71315 0.24424 0.96082 0.0
H959 H 0.73584 0.28084 0.93497 0.0
H960 H 0.64884 0.2399 0.97197 0.0
H961 H 0.72519 0.28511 0.03253 0.0
H962 H 0.70895 0.32553 0.0215 0.0
H963 H 0.74046 0.29592 0.00951 0.0
C964 C 0.71495 0.34964 0.96477 0.0
C965 C 0.72678 0.33285 0.94843 0.0
C966 C 0.70132 0.32884 0.97929 0.0
C967 C 0.70022 0.29064 0.97811 0.0
C968 C 0.71385 0.27364 0.96215 0.0
H969 H 0.57516 0.22155 0.0751 0.0
H970 H 0.62669 0.22048 0.05354 0.0
C971 C 0.72684 0.29457 0.94739 0.0
C972 C 0.67995 0.26958 0.99233 0.0
H973 H 0.65936 0.27217 0.03813 0.0
C974 C 0.6519 0.24614 0.98651 0.0
C975 C 0.68442 0.27619 0.01143 0.0
C976 C 0.71676 0.29672 0.01904 0.0
C977 C 0.62602 0.23257 -0.00102 0.0
C978 C 0.62717 0.24418 0.01759 0.0
C979 C 0.65751 0.26417 0.02376 0.0
C980 C 0.59541 0.23996 0.03018 0.0
C981 C 0.5972 0.20675 0.99189 0.0
C982 C 0.56062 0.25106 0.02428 0.0
C983 C 0.53115 0.25091 0.03642 0.0
C984 C 0.53602 0.24083 0.05493 0.0
C985 C 0.5707 0.22954 0.0609 0.0
C986 C 0.60011 0.22888 0.04859 0.0
H987 H 0.60875 0.18851 0.98114 0.0
H988 H 0.58557 0.18969 0.00308 0.0
H989 H 0.57494 0.22263 0.98533 0.0
H990 H 0.55639 0.26122 0.01043 0.0
H991 H 0.50486 0.26023 0.03149 0.0
loop_
_geom_bond_atom_site_label_1
_geom_bond_atom_site_label_2
_geom_bond_distance
_geom_bond_site_symmetry_2
_ccdc_geom_bond_type
Co0 O3 1.970 . S
Co0 N17 1.989 . S
Co0 O25 1.967 . S
Co0 O32 1.920 . S
Co1 O4 1.966 . S
Co1 N10 2.022 . S
Co1 N18 1.993 . S
Co1 O26 1.941 . S
C2 O3 1.258 . S
C2 O4 1.263 . S
O3 Co0 1.970 . S
O3 C2 1.258 . S
O4 Co1 1.966 . S
O4 C2 1.263 . S
C5 O6 1.235 1_545 S
C5 O32 1.289 . S
O6 C5 1.235 1_565 S
C7 C9 1.400 . S
C7 N10 1.351 . S
C7 C12 1.501 . S
C8 C9 1.387 . S
C8 N11 1.341 . S
C9 C7 1.400 . S
C9 C8 1.387 . S
N10 Co1 2.022 . S
N10 C7 1.351 . S
N10 N11 1.365 . S
N11 C8 1.341 . S
N11 N10 1.365 . S
N11 H31 0.862 . S
C12 C7 1.501 . S
C12 H13 0.961 . S
C12 H14 0.961 . S
C12 H15 0.960 . S
H13 C12 0.961 . S
H14 C12 0.961 . S
H15 C12 0.960 . S
C16 N17 1.342 . S
C16 C20 1.401 . S
C16 C21 1.499 . S
N17 Co0 1.989 . S
N17 C16 1.342 . S
N17 N18 1.388 . S
N18 Co1 1.993 . S
N18 N17 1.388 . S
N18 C19 1.346 . S
C19 N18 1.346 . S
C19 C20 1.396 . S
C19 C29 1.510 . S
C20 C16 1.401 . S
C20 C19 1.396 . S
C21 C16 1.499 . S
C21 H22 0.959 . S
C21 H23 0.960 . S
C21 H24 0.961 . S
H22 C21 0.959 . S
H23 C21 0.960 . S
H24 C21 0.961 . S
O25 Co0 1.967 . S
O25 C33 1.258 . S
O26 Co1 1.941 . S
O26 C33 1.266 . S
H27 C29 0.959 . S
H28 C29 0.961 . S
C29 C19 1.510 . S
C29 H27 0.959 . S
C29 H28 0.961 . S
C29 H30 0.960 . S
H30 C29 0.960 . S
H31 N11 0.862 . S
O32 Co0 1.920 . S
O32 C5 1.289 . S
C33 O25 1.258 . S
C33 O26 1.266 . S
Co34 O37 1.970 . S
Co34 N51 1.989 . S
Co34 O59 1.967 . S
Co34 O66 1.920 . S
Co35 O38 1.966 . S
Co35 N44 2.022 . S
Co35 N52 1.993 . S
Co35 O60 1.941 . S
C36 O37 1.258 . S
C36 O38 1.263 . S
O37 Co34 1.970 . S
O37 C36 1.258 . S
O38 Co35 1.966 . S
O38 C36 1.263 . S
C39 O40 1.235 1_455 S
C39 O66 1.289 . S
O40 C39 1.235 1_655 S
C41 C43 1.400 . S
C41 N44 1.351 . S
C41 C46 1.501 . S
C42 C43 1.387 . S
C42 N45 1.341 . S
C43 C41 1.400 . S
C43 C42 1.387 . S
N44 Co35 2.022 . S
N44 C41 1.351 . S
N44 N45 1.365 . S
N45 C42 1.341 . S
N45 N44 1.365 . S
N45 H65 0.862 . S
C46 C41 1.501 . S
C46 H47 0.961 . S
C46 H48 0.961 . S
C46 H49 0.960 . S
H47 C46 0.961 . S
H48 C46 0.961 . S
H49 C46 0.960 . S
C50 N51 1.342 . S
C50 C54 1.401 . S
C50 C55 1.499 . S
N51 Co34 1.989 . S
N51 C50 1.342 . S
N51 N52 1.388 . S
N52 Co35 1.993 . S
N52 N51 1.388 . S
N52 C53 1.346 . S
C53 N52 1.346 . S
C53 C54 1.396 . S
C53 C63 1.510 . S
C54 C50 1.401 . S
C54 C53 1.396 . S
C55 C50 1.499 . S
C55 H56 0.959 . S
C55 H57 0.960 . S
C55 H58 0.961 . S
H56 C55 0.959 . S
H57 C55 0.960 . S
H58 C55 0.961 . S
O59 Co34 1.967 . S
O59 C67 1.258 . S
O60 Co35 1.941 . S
O60 C67 1.266 . S
H61 C63 0.959 . S
H62 C63 0.961 . S
C63 C53 1.510 . S
C63 H61 0.959 . S
C63 H62 0.961 . S
C63 H64 0.960 . S
H64 C63 0.960 . S
H65 N45 0.862 . S
O66 Co34 1.920 . S
O66 C39 1.289 . S
C67 O59 1.258 . S
C67 O60 1.266 . S
Co68 O71 1.970 . S
Co68 N85 1.989 . S
Co68 O93 1.967 . S
Co68 O100 1.920 . S
Co69 O72 1.966 . S
Co69 N78 2.022 . S
Co69 N86 1.993 . S
Co69 O94 1.941 . S
C70 O71 1.258 . S
C70 O72 1.263 . S
O71 Co68 1.970 . S
O71 C70 1.258 . S
O72 Co69 1.966 . S
O72 C70 1.263 . S
C73 O74 1.235 1_565 S
C73 O100 1.289 . S
O74 C73 1.235 1_545 S
C75 C77 1.400 . S
C75 N78 1.351 . S
C75 C80 1.501 . S
C76 C77 1.387 . S
C76 N79 1.341 . S
C77 C75 1.400 . S
C77 C76 1.387 . S
N78 Co69 2.022 . S
N78 C75 1.351 . S
N78 N79 1.365 . S
N79 C76 1.341 . S
N79 N78 1.365 . S
N79 H99 0.862 . S
C80 C75 1.501 . S
C80 H81 0.961 . S
C80 H82 0.961 . S
C80 H83 0.960 . S
H81 C80 0.961 . S
H82 C80 0.961 . S
H83 C80 0.960 . S
C84 N85 1.342 . S
C84 C88 1.401 . S
C84 C89 1.499 . S
N85 Co68 1.989 . S
N85 C84 1.342 . S
N85 N86 1.388 . S
N86 Co69 1.993 . S
N86 N85 1.388 . S
N86 C87 1.346 . S
C87 N86 1.346 . S
C87 C88 1.396 . S
C87 C97 1.510 . S
C88 C84 1.401 . S
C88 C87 1.396 . S
C89 C84 1.499 . S
C89 H90 0.959 . S
C89 H91 0.960 . S
C89 H92 0.961 . S
H90 C89 0.959 . S
H91 C89 0.960 . S
H92 C89 0.961 . S
O93 Co68 1.967 . S
O93 C101 1.258 . S
O94 Co69 1.941 . S
O94 C101 1.266 . S
H95 C97 0.959 . S
H96 C97 0.961 . S
C97 C87 1.510 . S
C97 H95 0.959 . S
C97 H96 0.961 . S
C97 H98 0.960 . S
H98 C97 0.960 . S
H99 N79 0.862 . S
O100 Co68 1.920 . S
O100 C73 1.289 . S
C101 O93 1.258 . S
C101 O94 1.266 . S
Co102 O105 1.970 . S
Co102 N119 1.989 . S
Co102 O127 1.967 . S
Co102 O134 1.920 . S
Co103 O106 1.966 . S
Co103 N112 2.022 . S
Co103 N120 1.993 . S
Co103 O128 1.941 . S
C104 O105 1.258 . S
C104 O106 1.263 . S
O105 Co102 1.970 . S
O105 C104 1.258 . S
O106 Co103 1.966 . S
O106 C104 1.263 . S
C107 O108 1.235 1_655 S
C107 O134 1.289 . S
O108 C107 1.235 1_455 S
C109 C111 1.400 . S
C109 N112 1.351 . S
C109 C114 1.501 . S
C110 C111 1.387 . S
C110 N113 1.341 . S
C111 C109 1.400 . S
C111 C110 1.387 . S
N112 Co103 2.022 . S
N112 C109 1.351 . S
N112 N113 1.365 . S
N113 C110 1.341 . S
N113 N112 1.365 . S
N113 H133 0.862 . S
C114 C109 1.501 . S
C114 H115 0.961 . S
C114 H116 0.961 . S
C114 H117 0.960 . S
H115 C114 0.961 . S
H116 C114 0.961 . S
H117 C114 0.960 . S
C118 N119 1.342 . S
C118 C122 1.401 . S
C118 C123 1.499 . S
N119 Co102 1.989 . S
N119 C118 1.342 . S
N119 N120 1.388 . S
N120 Co103 1.993 . S
N120 N119 1.388 . S
N120 C121 1.346 . S
C121 N120 1.346 . S
C121 C122 1.396 . S
C121 C131 1.510 . S
C122 C118 1.401 . S
C122 C121 1.396 . S
C123 C118 1.499 . S
C123 H124 0.959 . S
C123 H125 0.960 . S
C123 H126 0.961 . S
H124 C123 0.959 . S
H125 C123 0.960 . S
H126 C123 0.961 . S
O127 Co102 1.967 . S
O127 C135 1.258 . S
O128 Co103 1.941 . S
O128 C135 1.266 . S
H129 C131 0.959 . S
H130 C131 0.961 . S
C131 C121 1.510 . S
C131 H129 0.959 . S
C131 H130 0.961 . S
C131 H132 0.960 . S
H132 C131 0.960 . S
H133 N113 0.862 . S
O134 Co102 1.920 . S
O134 C107 1.289 . S
C135 O127 1.258 . S
C135 O128 1.266 . S
Co136 O139 1.970 . S
Co136 N153 1.989 . S
Co136 O161 1.967 . S
Co136 O168 1.920 . S
Co137 O140 1.966 . S
Co137 N146 2.022 . S
Co137 N154 1.993 . S
Co137 O162 1.941 . S
C138 O139 1.258 . S
C138 O140 1.263 . S
O139 Co136 1.970 . S
O139 C138 1.258 . S
O140 Co137 1.966 . S
O140 C138 1.263 . S
C141 O142 1.235 . S
C141 O168 1.289 . S
O142 C141 1.235 . S
C143 C145 1.400 . S
C143 N146 1.351 . S
C143 C148 1.501 . S
C144 C145 1.387 . S
C144 N147 1.341 . S
C145 C143 1.400 . S
C145 C144 1.387 . S
N146 Co137 2.022 . S
N146 C143 1.351 . S
N146 N147 1.365 . S
N147 C144 1.341 . S
N147 N146 1.365 . S
N147 H167 0.862 . S
C148 C143 1.501 . S
C148 H149 0.961 . S
C148 H150 0.961 . S
C148 H151 0.960 . S
H149 C148 0.961 . S
H150 C148 0.961 . S
H151 C148 0.960 . S
C152 N153 1.342 . S
C152 C156 1.401 . S
C152 C157 1.499 . S
N153 Co136 1.989 . S
N153 C152 1.342 . S
N153 N154 1.388 . S
N154 Co137 1.993 . S
N154 N153 1.388 . S
N154 C155 1.346 . S
C155 N154 1.346 . S
C155 C156 1.396 . S
C155 C165 1.510 . S
C156 C152 1.401 . S
C156 C155 1.396 . S
C157 C152 1.499 . S
C157 H158 0.959 . S
C157 H159 0.960 . S
C157 H160 0.961 . S
H158 C157 0.959 . S
H159 C157 0.960 . S
H160 C157 0.961 . S
O161 Co136 1.967 . S
O161 C169 1.258 . S
O162 Co137 1.941 . S
O162 C169 1.266 . S
H163 C165 0.959 . S
H164 C165 0.961 . S
C165 C155 1.510 . S
C165 H163 0.959 . S
C165 H164 0.961 . S
C165 H166 0.960 . S
H166 C165 0.960 . S
H167 N147 0.862 . S
O168 Co136 1.920 . S
O168 C141 1.289 . S
C169 O161 1.258 . S
C169 O162 1.266 . S
Co170 O173 1.970 . S
Co170 N187 1.989 . S
Co170 O195 1.967 . S
Co170 O202 1.920 . S
Co171 O174 1.966 . S
Co171 N180 2.022 . S
Co171 N188 1.993 . S
Co171 O196 1.941 . S
C172 O173 1.258 . S
C172 O174 1.263 . S
O173 Co170 1.970 . S
O173 C172 1.258 . S
O174 Co171 1.966 . S
O174 C172 1.263 . S
C175 O176 1.235 . S
C175 O202 1.289 . S
O176 C175 1.235 . S
C177 C179 1.400 . S
C177 N180 1.351 . S
C177 C182 1.501 . S
C178 C179 1.387 . S
C178 N181 1.341 . S
C179 C177 1.400 . S
C179 C178 1.387 . S
N180 Co171 2.022 . S
N180 C177 1.351 . S
N180 N181 1.365 . S
N181 C178 1.341 . S
N181 N180 1.365 . S
N181 H201 0.862 . S
C182 C177 1.501 . S
C182 H183 0.961 . S
C182 H184 0.961 . S
C182 H185 0.960 . S
H183 C182 0.961 . S
H184 C182 0.961 . S
H185 C182 0.960 . S
C186 N187 1.342 . S
C186 C190 1.401 . S
C186 C191 1.499 . S
N187 Co170 1.989 . S
N187 C186 1.342 . S
N187 N188 1.388 . S
N188 Co171 1.993 . S
N188 N187 1.388 . S
N188 C189 1.346 . S
C189 N188 1.346 . S
C189 C190 1.396 . S
C189 C199 1.510 . S
C190 C186 1.401 . S
C190 C189 1.396 . S
C191 C186 1.499 . S
C191 H192 0.959 . S
C191 H193 0.960 . S
C191 H194 0.961 . S
H192 C191 0.959 . S
H193 C191 0.960 . S
H194 C191 0.961 . S
O195 Co170 1.967 . S
O195 C203 1.258 . S
O196 Co171 1.941 . S
O196 C203 1.266 . S
H197 C199 0.959 . S
H198 C199 0.961 . S
C199 C189 1.510 . S
C199 H197 0.959 . S
C199 H198 0.961 . S
C199 H200 0.960 . S
H200 C199 0.960 . S
H201 N181 0.862 . S
O202 Co170 1.920 . S
O202 C175 1.289 . S
C203 O195 1.258 . S
C203 O196 1.266 . S
Co204 O207 1.970 . S
Co204 N221 1.989 . S
Co204 O229 1.967 . S
Co204 O236 1.920 . S
Co205 O208 1.966 . S
Co205 N214 2.022 . S
Co205 N222 1.993 . S
Co205 O230 1.941 . S
C206 O207 1.258 . S
C206 O208 1.263 . S
O207 Co204 1.970 . S
O207 C206 1.258 . S
O208 Co205 1.966 . S
O208 C206 1.263 . S
C209 O210 1.235 . S
C209 O236 1.289 . S
O210 C209 1.235 . S
C211 C213 1.400 . S
C211 N214 1.351 . S
C211 C216 1.501 . S
C212 C213 1.387 . S
C212 N215 1.341 . S
C213 C211 1.400 . S
C213 C212 1.387 . S
N214 Co205 2.022 . S
N214 C211 1.351 . S
N214 N215 1.365 . S
N215 C212 1.341 . S
N215 N214 1.365 . S
N215 H235 0.862 . S
C216 C211 1.501 . S
C216 H217 0.961 . S
C216 H218 0.961 . S
C216 H219 0.960 . S
H217 C216 0.961 . S
H218 C216 0.961 . S
H219 C216 0.960 . S
C220 N221 1.342 . S
C220 C224 1.401 . S
C220 C225 1.499 . S
N221 Co204 1.989 . S
N221 C220 1.342 . S
N221 N222 1.388 . S
N222 Co205 1.993 . S
N222 N221 1.388 . S
N222 C223 1.346 . S
C223 N222 1.346 . S
C223 C224 1.396 . S
C223 C233 1.510 . S
C224 C220 1.401 . S
C224 C223 1.396 . S
C225 C220 1.499 . S
C225 H226 0.959 . S
C225 H227 0.960 . S
C225 H228 0.961 . S
H226 C225 0.959 . S
H227 C225 0.960 . S
H228 C225 0.961 . S
O229 Co204 1.967 . S
O229 C237 1.258 . S
O230 Co205 1.941 . S
O230 C237 1.266 . S
H231 C233 0.959 . S
H232 C233 0.961 . S
C233 C223 1.510 . S
C233 H231 0.959 . S
C233 H232 0.961 . S
C233 H234 0.960 . S
H234 C233 0.960 . S
H235 N215 0.862 . S
O236 Co204 1.920 . S
O236 C209 1.289 . S
C237 O229 1.258 . S
C237 O230 1.266 . S
Co238 O241 1.970 . S
Co238 N255 1.989 . S
Co238 O263 1.967 . S
Co238 O270 1.920 . S
Co239 O242 1.966 . S
Co239 N248 2.022 . S
Co239 N256 1.993 . S
Co239 O264 1.941 . S
C240 O241 1.258 . S
C240 O242 1.263 . S
O241 Co238 1.970 . S
O241 C240 1.258 . S
O242 Co239 1.966 . S
O242 C240 1.263 . S
C243 O244 1.235 . S
C243 O270 1.289 . S
O244 C243 1.235 . S
C245 C247 1.400 . S
C245 N248 1.351 . S
C245 C250 1.501 . S
C246 C247 1.387 . S
C246 N249 1.341 . S
C247 C245 1.400 . S
C247 C246 1.387 . S
N248 Co239 2.022 . S
N248 C245 1.351 . S
N248 N249 1.365 . S
N249 C246 1.341 . S
N249 N248 1.365 . S
N249 H269 0.862 . S
C250 C245 1.501 . S
C250 H251 0.961 . S
C250 H252 0.961 . S
C250 H253 0.960 . S
H251 C250 0.961 . S
H252 C250 0.961 . S
H253 C250 0.960 . S
C254 N255 1.342 . S
C254 C258 1.401 . S
C254 C259 1.499 . S
N255 Co238 1.989 . S
N255 C254 1.342 . S
N255 N256 1.388 . S
N256 Co239 1.993 . S
N256 N255 1.388 . S
N256 C257 1.346 . S
C257 N256 1.346 . S
C257 C258 1.396 . S
C257 C267 1.510 . S
C258 C254 1.401 . S
C258 C257 1.396 . S
C259 C254 1.499 . S
C259 H260 0.959 . S
C259 H261 0.960 . S
C259 H262 0.961 . S
H260 C259 0.959 . S
H261 C259 0.960 . S
H262 C259 0.961 . S
O263 Co238 1.967 . S
O263 C271 1.258 . S
O264 Co239 1.941 . S
O264 C271 1.266 . S
H265 C267 0.959 . S
H266 C267 0.961 . S
C267 C257 1.510 . S
C267 H265 0.959 . S
C267 H266 0.961 . S
C267 H268 0.960 . S
H268 C267 0.960 . S
H269 N249 0.862 . S
O270 Co238 1.920 . S
O270 C243 1.289 . S
C271 O263 1.258 . S
C271 O264 1.266 . S
H272 C280 0.929 . S
H273 C282 0.930 . S
H274 C284 0.930 . S
H275 C287 0.929 . S
H276 C290 0.930 . S
H277 C292 0.960 . S
H278 C292 0.960 . S
H279 C292 0.960 . S
C280 H272 0.929 . S
C280 C281 1.377 . S
C280 C282 1.384 . S
C281 C280 1.377 . S
C281 C287 1.390 . S
C282 H273 0.930 . S
C282 C280 1.384 . S
C282 C283 1.372 . S
C283 C282 1.372 . S
C283 C284 1.400 . S
C283 C288 1.490 . S
C284 H274 0.930 . S
C284 C283 1.400 . S
C284 C287 1.386 . S
H285 C301 0.930 . S
H286 C302 0.931 . S
C287 H275 0.929 . S
C287 C281 1.390 . S
C287 C284 1.386 . S
C288 C283 1.490 . S
C288 C290 1.395 1_565 S
C288 C291 1.403 . S
H289 C295 0.930 . S
C290 H276 0.930 . S
C290 C288 1.395 1_545 S
C290 C293 1.403 . S
C291 C288 1.403 . S
C291 C292 1.524 . S
C291 C295 1.400 . S
C292 H277 0.960 . S
C292 H278 0.960 . S
C292 H279 0.960 . S
C292 C291 1.524 . S
C293 C290 1.403 . S
C293 C294 1.392 . S
C293 C297 1.495 . S
C294 C293 1.392 . S
C294 C295 1.385 1_545 S
C294 C296 1.478 . S
C295 H289 0.930 . S
C295 C291 1.400 . S
C295 C294 1.385 1_565 S
C296 C294 1.478 . S
C296 C298 1.381 . S
C296 C302 1.383 . S
C297 C293 1.495 . S
C297 H303 0.959 . S
C297 H304 0.961 . S
C297 H305 0.960 . S
C298 C296 1.381 . S
C298 C299 1.394 . S
C298 H306 0.930 . S
C299 C298 1.394 . S
C299 C300 1.383 . S
C299 H307 0.929 . S
C300 C299 1.383 . S
C300 C301 1.377 . S
C301 H285 0.930 . S
C301 C300 1.377 . S
C301 C302 1.379 . S
C302 H286 0.931 . S
C302 C296 1.383 . S
C302 C301 1.379 . S
H303 C297 0.959 . S
H304 C297 0.961 . S
H305 C297 0.960 . S
H306 C298 0.930 . S
H307 C299 0.929 . S
H308 C316 0.929 . S
H309 C318 0.930 1_455 S
H310 C320 0.930 . S
H311 C323 0.929 . S
H312 C326 0.930 . S
H313 C328 0.960 . S
H314 C328 0.960 . S
H315 C328 0.960 . S
C316 H308 0.929 . S
C316 C317 1.377 . S
C316 C318 1.384 . S
C317 C316 1.377 . S
C317 C323 1.390 . S
C318 H309 0.930 1_655 S
C318 C316 1.384 . S
C318 C319 1.372 . S
C319 C318 1.372 . S
C319 C320 1.400 . S
C319 C324 1.490 . S
C320 H310 0.930 . S
C320 C319 1.400 . S
C320 C323 1.386 . S
H321 C337 0.930 . S
H322 C338 0.931 1_655 S
C323 H311 0.929 . S
C323 C317 1.390 . S
C323 C320 1.386 . S
C324 C319 1.490 . S
C324 C326 1.395 1_655 S
C324 C327 1.403 . S
H325 C331 0.929 1_655 S
C326 H312 0.930 . S
C326 C324 1.395 1_455 S
C326 C329 1.403 . S
C327 C324 1.403 . S
C327 C328 1.524 . S
C327 C331 1.400 1_655 S
C328 H313 0.960 . S
C328 H314 0.960 . S
C328 H315 0.960 . S
C328 C327 1.524 . S
C329 C326 1.403 . S
C329 C330 1.392 . S
C329 C333 1.495 . S
C330 C329 1.392 . S
C330 C331 1.385 . S
C330 C332 1.478 . S
C331 H325 0.929 1_455 S
C331 C327 1.400 1_455 S
C331 C330 1.385 . S
C332 C330 1.478 . S
C332 C334 1.381 . S
C332 C338 1.383 . S
C333 C329 1.495 . S
C333 H339 0.959 . S
C333 H340 0.961 . S
C333 H341 0.960 . S
C334 C332 1.381 . S
C334 C335 1.394 . S
C334 H342 0.930 . S
C335 C334 1.394 . S
C335 C336 1.383 . S
C335 H343 0.929 . S
C336 C335 1.383 . S
C336 C337 1.377 . S
C337 H321 0.930 . S
C337 C336 1.377 . S
C337 C338 1.379 . S
C338 H322 0.931 1_455 S
C338 C332 1.383 . S
C338 C337 1.379 . S
H339 C333 0.959 . S
H340 C333 0.961 . S
H341 C333 0.960 . S
H342 C334 0.930 . S
H343 C335 0.929 . S
H344 C352 0.929 . S
H345 C354 0.930 . S
H346 C356 0.930 . S
H347 C359 0.929 . S
H348 C362 0.930 . S
H349 C364 0.960 . S
H350 C364 0.960 . S
H351 C364 0.960 . S
C352 H344 0.929 . S
C352 C353 1.377 . S
C352 C354 1.384 . S
C353 C352 1.377 . S
C353 C359 1.390 . S
C354 H345 0.930 . S
C354 C352 1.384 . S
C354 C355 1.372 . S
C355 C354 1.372 . S
C355 C356 1.400 . S
C355 C360 1.490 . S
C356 H346 0.930 . S
C356 C355 1.400 . S
C356 C359 1.386 . S
H357 C373 0.930 . S
H358 C374 0.931 . S
C359 H347 0.929 . S
C359 C353 1.390 . S
C359 C356 1.386 . S
C360 C355 1.490 . S
C360 C362 1.395 . S
C360 C363 1.403 . S
H361 C367 0.930 . S
C362 H348 0.930 . S
C362 C360 1.395 . S
C362 C365 1.403 1_655 S
C363 C360 1.403 . S
C363 C364 1.524 . S
C363 C367 1.400 1_655 S
C364 H349 0.960 . S
C364 H350 0.960 . S
C364 H351 0.960 . S
C364 C363 1.524 . S
C365 C362 1.403 1_455 S
C365 C366 1.392 . S
C365 C369 1.495 . S
C366 C365 1.392 . S
C366 C367 1.385 . S
C366 C368 1.478 . S
C367 H361 0.930 . S
C367 C363 1.400 1_455 S
C367 C366 1.385 . S
C368 C366 1.478 . S
C368 C370 1.381 . S
C368 C374 1.383 . S
C369 C365 1.495 . S
C369 H375 0.959 . S
C369 H376 0.961 . S
C369 H377 0.960 . S
C370 C368 1.381 . S
C370 C371 1.394 . S
C370 H378 0.930 . S
C371 C370 1.394 . S
C371 C372 1.383 . S
C371 H379 0.929 . S
C372 C371 1.383 . S
C372 C373 1.377 . S
C373 H357 0.930 . S
C373 C372 1.377 . S
C373 C374 1.379 . S
C374 H358 0.931 . S
C374 C368 1.383 . S
C374 C373 1.379 . S
H375 C369 0.959 . S
H376 C369 0.961 . S
H377 C369 0.960 . S
H378 C370 0.930 . S
H379 C371 0.929 . S
H380 C388 0.929 . S
H381 C390 0.930 . S
H382 C392 0.930 . S
H383 C395 0.929 . S
H384 C398 0.930 . S
H385 C400 0.960 . S
H386 C400 0.960 . S
H387 C400 0.960 . S
C388 H380 0.929 . S
C388 C389 1.377 . S
C388 C390 1.384 . S
C389 C388 1.377 . S
C389 C395 1.390 . S
C390 H381 0.930 . S
C390 C388 1.384 . S
C390 C391 1.372 . S
C391 C390 1.372 . S
C391 C392 1.400 . S
C391 C396 1.490 . S
C392 H382 0.930 . S
C392 C391 1.400 . S
C392 C395 1.386 . S
H393 C409 0.930 . S
H394 C410 0.931 . S
C395 H383 0.929 . S
C395 C389 1.390 . S
C395 C392 1.386 . S
C396 C391 1.490 . S
C396 C398 1.395 . S
C396 C399 1.403 . S
H397 C403 0.930 . S
C398 H384 0.930 . S
C398 C396 1.395 . S
C398 C401 1.403 1_545 S
C399 C396 1.403 . S
C399 C400 1.524 . S
C399 C403 1.400 1_545 S
C400 H385 0.960 . S
C400 H386 0.960 . S
C400 H387 0.960 . S
C400 C399 1.524 . S
C401 C398 1.403 1_565 S
C401 C402 1.392 . S
C401 C405 1.495 . S
C402 C401 1.392 . S
C402 C403 1.385 . S
C402 C404 1.478 . S
C403 H397 0.930 . S
C403 C399 1.400 1_565 S
C403 C402 1.385 . S
C404 C402 1.478 . S
C404 C406 1.381 . S
C404 C410 1.383 . S
C405 C401 1.495 . S
C405 H411 0.959 . S
C405 H412 0.961 . S
C405 H413 0.960 . S
C406 C404 1.381 . S
C406 C407 1.394 . S
C406 H414 0.930 . S
C407 C406 1.394 . S
C407 C408 1.383 . S
C407 H415 0.929 . S
C408 C407 1.383 . S
C408 C409 1.377 . S
C409 H393 0.930 . S
C409 C408 1.377 . S
C409 C410 1.379 . S
C410 H394 0.931 . S
C410 C404 1.383 . S
C410 C409 1.379 . S
H411 C405 0.959 . S
H412 C405 0.961 . S
H413 C405 0.960 . S
H414 C406 0.930 . S
H415 C407 0.929 . S
H416 C424 0.929 . S
H417 C426 0.930 . S
H418 C428 0.930 1_565 S
H419 C431 0.929 . S
H420 C434 0.930 . S
H421 C436 0.960 . S
H422 C436 0.960 1_545 S
H423 C436 0.960 . S
C424 H416 0.929 . S
C424 C425 1.377 . S
C424 C426 1.384 . S
C425 C424 1.377 . S
C425 C431 1.390 . S
C426 H417 0.930 . S
C426 C424 1.384 . S
C426 C427 1.372 . S
C427 C426 1.372 . S
C427 C428 1.400 . S
C427 C432 1.490 . S
C428 H418 0.930 1_545 S
C428 C427 1.400 . S
C428 C431 1.386 . S
H429 C445 0.930 . S
H430 C446 0.931 . S
C431 H419 0.929 . S
C431 C425 1.390 . S
C431 C428 1.386 . S
C432 C427 1.490 . S
C432 C434 1.395 . S
C432 C435 1.403 1_545 S
H433 C439 0.930 . S
C434 H420 0.930 . S
C434 C432 1.395 . S
C434 C437 1.403 1_455 S
C435 C432 1.403 1_565 S
C435 C436 1.524 . S
C435 C439 1.400 1_455 S
C436 H421 0.960 . S
C436 H422 0.960 1_565 S
C436 H423 0.960 . S
C436 C435 1.524 . S
C437 C434 1.403 1_655 S
C437 C438 1.392 1_545 S
C437 C441 1.495 . S
C438 C437 1.392 1_565 S
C438 C439 1.385 . S
C438 C440 1.478 . S
C439 H433 0.930 . S
C439 C435 1.400 1_655 S
C439 C438 1.385 . S
C440 C438 1.478 . S
C440 C442 1.381 . S
C440 C446 1.383 . S
C441 C437 1.495 . S
C441 H447 0.959 . S
C441 H448 0.961 1_545 S
C441 H449 0.960 . S
C442 C440 1.381 . S
C442 C443 1.394 . S
C442 H450 0.930 1_565 S
C443 C442 1.394 . S
C443 C444 1.383 . S
C443 H451 0.929 . S
C444 C443 1.383 . S
C444 C445 1.377 . S
C445 H429 0.930 . S
C445 C444 1.377 . S
C445 C446 1.379 . S
C446 H430 0.931 . S
C446 C440 1.383 . S
C446 C445 1.379 . S
H447 C441 0.959 . S
H448 C441 0.961 1_565 S
H449 C441 0.960 . S
H450 C442 0.930 1_545 S
H451 C443 0.929 . S
H452 C460 0.929 . S
H453 C462 0.930 1_455 S
H454 C464 0.930 . S
H455 C467 0.929 . S
H456 C470 0.930 . S
H457 C472 0.959 . S
H458 C472 0.958 . S
H459 C472 0.964 1_655 S
C460 H452 0.929 . S
C460 C461 1.377 . S
C460 C462 1.384 . S
C461 C460 1.377 . S
C461 C467 1.390 . S
C462 H453 0.930 1_655 S
C462 C460 1.384 . S
C462 C463 1.372 . S
C463 C462 1.372 . S
C463 C464 1.400 . S
C463 C468 1.490 . S
C464 H454 0.930 . S
C464 C463 1.400 . S
C464 C467 1.386 . S
H465 C481 0.930 . S
H466 C482 0.931 1_655 S
C467 H455 0.929 . S
C467 C461 1.390 . S
C467 C464 1.386 . S
C468 C463 1.490 . S
C468 C470 1.395 . S
C468 C471 1.407 . S
H469 C475 0.930 . S
C470 H456 0.930 . S
C470 C468 1.395 . S
C470 C473 1.403 1_645 S
C471 C468 1.407 . S
C471 C472 1.524 1_655 S
C471 C475 1.395 1_645 S
C472 H457 0.959 . S
C472 H458 0.958 . S
C472 H459 0.964 1_455 S
C472 C471 1.524 1_455 S
C473 C470 1.403 1_465 S
C473 C474 1.392 . S
C473 C477 1.495 . S
C474 C473 1.392 . S
C474 C475 1.385 . S
C474 C476 1.478 . S
C475 H469 0.930 . S
C475 C471 1.395 1_465 S
C475 C474 1.385 . S
C476 C474 1.478 . S
C476 C478 1.381 . S
C476 C482 1.383 . S
C477 C473 1.495 . S
C477 H483 0.959 1_455 S
C477 H484 0.961 1_455 S
C477 H485 0.960 . S
C478 C476 1.381 . S
C478 C479 1.394 . S
C478 H486 0.930 . S
C479 C478 1.394 . S
C479 C480 1.383 . S
C479 H487 0.929 . S
C480 C479 1.383 . S
C480 C481 1.377 . S
C481 H465 0.930 . S
C481 C480 1.377 . S
C481 C482 1.379 . S
C482 H466 0.931 1_455 S
C482 C476 1.383 . S
C482 C481 1.379 . S
H483 C477 0.959 1_655 S
H484 C477 0.961 1_655 S
H485 C477 0.960 . S
H486 C478 0.930 . S
H487 C479 0.929 . S
H488 C496 0.929 . S
H489 C498 0.930 . S
H490 C500 0.930 . S
H491 C503 0.929 . S
H492 C506 0.930 . S
H493 C508 0.960 . S
H494 C508 0.960 . S
H495 C508 0.960 . S
C496 H488 0.929 . S
C496 C497 1.377 . S
C496 C498 1.384 . S
C497 C496 1.377 . S
C497 C503 1.390 . S
C498 H489 0.930 . S
C498 C496 1.384 . S
C498 C499 1.372 . S
C499 C498 1.372 . S
C499 C500 1.400 . S
C499 C504 1.490 . S
C500 H490 0.930 . S
C500 C499 1.400 . S
C500 C503 1.386 . S
H501 C517 0.930 . S
H502 C518 0.931 . S
C503 H491 0.929 . S
C503 C497 1.390 . S
C503 C500 1.386 . S
C504 C499 1.490 . S
C504 C506 1.395 . S
C504 C507 1.403 . S
H505 C511 0.930 . S
C506 H492 0.930 . S
C506 C504 1.395 . S
C506 C509 1.403 . S
C507 C504 1.403 . S
C507 C508 1.524 . S
C507 C511 1.400 . S
C508 H493 0.960 . S
C508 H494 0.960 . S
C508 H495 0.960 . S
C508 C507 1.524 . S
C509 C506 1.403 . S
C509 C510 1.392 . S
C509 C513 1.495 . S
C510 C509 1.392 . S
C510 C511 1.385 . S
C510 C512 1.478 . S
C511 H505 0.930 . S
C511 C507 1.400 . S
C511 C510 1.385 . S
C512 C510 1.478 . S
C512 C514 1.381 . S
C512 C518 1.383 . S
C513 C509 1.495 . S
C513 H519 0.959 . S
C513 H520 0.961 . S
C513 H521 0.960 . S
C514 C512 1.381 . S
C514 C515 1.394 . S
C514 H522 0.930 . S
C515 C514 1.394 . S
C515 C516 1.383 . S
C515 H523 0.929 . S
C516 C515 1.383 . S
C516 C517 1.377 . S
C517 H501 0.930 . S
C517 C516 1.377 . S
C517 C518 1.379 . S
C518 H502 0.931 . S
C518 C512 1.383 . S
C518 C517 1.379 . S
H519 C513 0.959 . S
H520 C513 0.961 . S
H521 C513 0.960 . S
H522 C514 0.930 . S
H523 C515 0.929 . S
H524 C532 0.929 . S
H525 C534 0.930 . S
H526 C536 0.930 . S
H527 C539 0.929 . S
H528 C542 0.930 . S
H529 C544 0.960 . S
H530 C544 0.960 . S
H531 C544 0.960 . S
C532 H524 0.929 . S
C532 C533 1.377 . S
C532 C534 1.384 . S
C533 C532 1.377 . S
C533 C539 1.390 . S
C534 H525 0.930 . S
C534 C532 1.384 . S
C534 C535 1.372 . S
C535 C534 1.372 . S
C535 C536 1.400 . S
C535 C540 1.490 . S
C536 H526 0.930 . S
C536 C535 1.400 . S
C536 C539 1.386 . S
H537 C553 0.930 . S
H538 C554 0.931 . S
C539 H527 0.929 . S
C539 C533 1.390 . S
C539 C536 1.386 . S
C540 C535 1.490 . S
C540 C542 1.395 . S
C540 C543 1.403 . S
H541 C547 0.930 . S
C542 H528 0.930 . S
C542 C540 1.395 . S
C542 C545 1.403 . S
C543 C540 1.403 . S
C543 C544 1.524 . S
C543 C547 1.400 . S
C544 H529 0.960 . S
C544 H530 0.960 . S
C544 H531 0.960 . S
C544 C543 1.524 . S
C545 C542 1.403 . S
C545 C546 1.392 . S
C545 C549 1.495 . S
C546 C545 1.392 . S
C546 C547 1.385 . S
C546 C548 1.478 . S
C547 H541 0.930 . S
C547 C543 1.400 . S
C547 C546 1.385 . S
C548 C546 1.478 . S
C548 C550 1.381 . S
C548 C554 1.383 . S
C549 C545 1.495 . S
C549 H555 0.959 . S
C549 H556 0.961 . S
C549 H557 0.960 . S
C550 C548 1.381 . S
C550 C551 1.394 . S
C550 H558 0.930 . S
C551 C550 1.394 . S
C551 C552 1.383 . S
C551 H559 0.929 . S
C552 C551 1.383 . S
C552 C553 1.377 . S
C553 H537 0.930 . S
C553 C552 1.377 . S
C553 C554 1.379 . S
C554 H538 0.931 . S
C554 C548 1.383 . S
C554 C553 1.379 . S
H555 C549 0.959 . S
H556 C549 0.961 . S
H557 C549 0.960 . S
H558 C550 0.930 . S
H559 C551 0.929 . S
H560 C568 0.929 . S
H561 C570 0.930 . S
H562 C572 0.930 . S
H563 C575 0.929 . S
H564 C578 0.930 . S
H565 C580 0.960 . S
H566 C580 0.960 . S
H567 C580 0.960 . S
C568 H560 0.929 . S
C568 C569 1.377 . S
C568 C570 1.384 . S
C569 C568 1.377 . S
C569 C575 1.390 . S
C570 H561 0.930 . S
C570 C568 1.384 . S
C570 C571 1.372 . S
C571 C570 1.372 . S
C571 C572 1.400 . S
C571 C576 1.490 . S
C572 H562 0.930 . S
C572 C571 1.400 . S
C572 C575 1.386 . S
H573 C589 0.930 . S
H574 C590 0.931 . S
C575 H563 0.929 . S
C575 C569 1.390 . S
C575 C572 1.386 . S
C576 C571 1.490 . S
C576 C578 1.395 . S
C576 C579 1.403 . S
H577 C583 0.930 . S
C578 H564 0.930 . S
C578 C576 1.395 . S
C578 C581 1.403 . S
C579 C576 1.403 . S
C579 C580 1.524 . S
C579 C583 1.400 . S
C580 H565 0.960 . S
C580 H566 0.960 . S
C580 H567 0.960 . S
C580 C579 1.524 . S
C581 C578 1.403 . S
C581 C582 1.392 . S
C581 C585 1.495 . S
C582 C581 1.392 . S
C582 C583 1.385 . S
C582 C584 1.478 . S
C583 H577 0.930 . S
C583 C579 1.400 . S
C583 C582 1.385 . S
C584 C582 1.478 . S
C584 C586 1.381 . S
C584 C590 1.383 . S
C585 C581 1.495 . S
C585 H591 0.959 . S
C585 H592 0.961 . S
C585 H593 0.960 . S
C586 C584 1.381 . S
C586 C587 1.394 . S
C586 H594 0.930 . S
C587 C586 1.394 . S
C587 C588 1.383 . S
C587 H595 0.929 . S
C588 C587 1.383 . S
C588 C589 1.377 . S
C589 H573 0.930 . S
C589 C588 1.377 . S
C589 C590 1.379 . S
C590 H574 0.931 . S
C590 C584 1.383 . S
C590 C589 1.379 . S
H591 C585 0.959 . S
H592 C585 0.961 . S
H593 C585 0.960 . S
H594 C586 0.930 . S
H595 C587 0.929 . S
H596 C604 0.929 . S
H597 C606 0.930 . S
H598 C608 0.930 . S
H599 C611 0.929 . S
H600 C614 0.930 . S
H601 C616 0.960 . S
H602 C616 0.960 . S
H603 C616 0.960 . S
C604 H596 0.929 . S
C604 C605 1.377 . S
C604 C606 1.384 . S
C605 C604 1.377 . S
C605 C611 1.390 . S
C606 H597 0.930 . S
C606 C604 1.384 . S
C606 C607 1.372 . S
C607 C606 1.372 . S
C607 C608 1.400 . S
C607 C612 1.490 . S
C608 H598 0.930 . S
C608 C607 1.400 . S
C608 C611 1.386 . S
H609 C625 0.930 . S
H610 C626 0.931 . S
C611 H599 0.929 . S
C611 C605 1.390 . S
C611 C608 1.386 . S
C612 C607 1.490 . S
C612 C614 1.395 . S
C612 C615 1.403 . S
H613 C619 0.930 . S
C614 H600 0.930 . S
C614 C612 1.395 . S
C614 C617 1.403 . S
C615 C612 1.403 . S
C615 C616 1.524 . S
C615 C619 1.400 . S
C616 H601 0.960 . S
C616 H602 0.960 . S
C616 H603 0.960 . S
C616 C615 1.524 . S
C617 C614 1.403 . S
C617 C618 1.392 . S
C617 C621 1.495 . S
C618 C617 1.392 . S
C618 C619 1.385 . S
C618 C620 1.478 . S
C619 H613 0.930 . S
C619 C615 1.400 . S
C619 C618 1.385 . S
C620 C618 1.478 . S
C620 C622 1.381 . S
C620 C626 1.383 . S
C621 C617 1.495 . S
C621 H627 0.959 . S
C621 H628 0.961 . S
C621 H629 0.960 . S
C622 C620 1.381 . S
C622 C623 1.394 . S
C622 H630 0.930 . S
C623 C622 1.394 . S
C623 C624 1.383 . S
C623 H631 0.929 . S
C624 C623 1.383 . S
C624 C625 1.377 . S
C625 H609 0.930 . S
C625 C624 1.377 . S
C625 C626 1.379 . S
C626 H610 0.931 . S
C626 C620 1.383 . S
C626 C625 1.379 . S
H627 C621 0.959 . S
H628 C621 0.961 . S
H629 C621 0.960 . S
H630 C622 0.930 . S
H631 C623 0.929 . S
H632 C640 0.929 . S
H633 C642 0.930 . S
H634 C644 0.930 . S
H635 C647 0.929 . S
H636 C650 0.930 . S
H637 C652 0.960 . S
H638 C652 0.960 . S
H639 C652 0.960 . S
C640 H632 0.929 . S
C640 C641 1.377 . S
C640 C642 1.384 . S
C641 C640 1.377 . S
C641 C647 1.390 . S
C642 H633 0.930 . S
C642 C640 1.384 . S
C642 C643 1.372 . S
C643 C642 1.372 . S
C643 C644 1.400 . S
C643 C648 1.490 . S
C644 H634 0.930 . S
C644 C643 1.400 . S
C644 C647 1.386 . S
H645 C661 0.930 . S
H646 C662 0.931 . S
C647 H635 0.929 . S
C647 C641 1.390 . S
C647 C644 1.386 . S
C648 C643 1.490 . S
C648 C650 1.395 . S
C648 C651 1.403 . S
H649 C655 0.930 . S
C650 H636 0.930 . S
C650 C648 1.395 . S
C650 C653 1.403 . S
C651 C648 1.403 . S
C651 C652 1.524 . S
C651 C655 1.400 . S
C652 H637 0.960 . S
C652 H638 0.960 . S
C652 H639 0.960 . S
C652 C651 1.524 . S
C653 C650 1.403 . S
C653 C654 1.392 . S
C653 C657 1.495 . S
C654 C653 1.392 . S
C654 C655 1.385 . S
C654 C656 1.478 . S
C655 H649 0.930 . S
C655 C651 1.400 . S
C655 C654 1.385 . S
C656 C654 1.478 . S
C656 C658 1.381 . S
C656 C662 1.383 . S
C657 C653 1.495 . S
C657 H663 0.959 . S
C657 H664 0.961 . S
C657 H665 0.960 . S
C658 C656 1.381 . S
C658 C659 1.394 . S
C658 H666 0.930 . S
C659 C658 1.394 . S
C659 C660 1.383 . S
C659 H667 0.929 . S
C660 C659 1.383 . S
C660 C661 1.377 . S
C661 H645 0.930 . S
C661 C660 1.377 . S
C661 C662 1.379 . S
C662 H646 0.931 . S
C662 C656 1.383 . S
C662 C661 1.379 . S
H663 C657 0.959 . S
H664 C657 0.961 . S
H665 C657 0.960 . S
H666 C658 0.930 . S
H667 C659 0.929 . S
H668 C676 0.929 . S
H669 C678 0.930 . S
H670 C680 0.930 . S
H671 C683 0.929 . S
H672 C686 0.930 . S
H673 C688 0.960 . S
H674 C688 0.960 . S
H675 C688 0.960 . S
C676 H668 0.929 . S
C676 C677 1.377 . S
C676 C678 1.384 . S
C677 C676 1.377 . S
C677 C683 1.390 . S
C678 H669 0.930 . S
C678 C676 1.384 . S
C678 C679 1.372 . S
C679 C678 1.372 . S
C679 C680 1.400 . S
C679 C684 1.490 . S
C680 H670 0.930 . S
C680 C679 1.400 . S
C680 C683 1.386 . S
H681 C697 0.930 . S
H682 C698 0.931 . S
C683 H671 0.929 . S
C683 C677 1.390 . S
C683 C680 1.386 . S
C684 C679 1.490 . S
C684 C686 1.395 . S
C684 C687 1.403 . S
H685 C691 0.930 . S
C686 H672 0.930 . S
C686 C684 1.395 . S
C686 C689 1.403 . S
C687 C684 1.403 . S
C687 C688 1.524 . S
C687 C691 1.400 . S
C688 H673 0.960 . S
C688 H674 0.960 . S
C688 H675 0.960 . S
C688 C687 1.524 . S
C689 C686 1.403 . S
C689 C690 1.392 . S
C689 C693 1.495 . S
C690 C689 1.392 . S
C690 C691 1.385 . S
C690 C692 1.478 . S
C691 H685 0.930 . S
C691 C687 1.400 . S
C691 C690 1.385 . S
C692 C690 1.478 . S
C692 C694 1.381 . S
C692 C698 1.383 . S
C693 C689 1.495 . S
C693 H699 0.959 . S
C693 H700 0.961 . S
C693 H701 0.960 . S
C694 C692 1.381 . S
C694 C695 1.394 . S
C694 H702 0.930 . S
C695 C694 1.394 . S
C695 C696 1.383 . S
C695 H703 0.929 . S
C696 C695 1.383 . S
C696 C697 1.377 . S
C697 H681 0.930 . S
C697 C696 1.377 . S
C697 C698 1.379 . S
C698 H682 0.931 . S
C698 C692 1.383 . S
C698 C697 1.379 . S
H699 C693 0.959 . S
H700 C693 0.961 . S
H701 C693 0.960 . S
H702 C694 0.930 . S
H703 C695 0.929 . S
H704 C712 0.929 . S
H705 C714 0.930 . S
H706 C716 0.930 . S
H707 C719 0.929 . S
H708 C722 0.930 . S
H709 C724 0.960 . S
H710 C724 0.960 . S
H711 C724 0.960 . S
C712 H704 0.929 . S
C712 C713 1.377 . S
C712 C714 1.384 . S
C713 C712 1.377 . S
C713 C719 1.390 . S
C714 H705 0.930 . S
C714 C712 1.384 . S
C714 C715 1.372 . S
C715 C714 1.372 . S
C715 C716 1.400 . S
C715 C720 1.490 . S
C716 H706 0.930 . S
C716 C715 1.400 . S
C716 C719 1.386 . S
H717 C733 0.930 . S
H718 C734 0.931 . S
C719 H707 0.929 . S
C719 C713 1.390 . S
C719 C716 1.386 . S
C720 C715 1.490 . S
C720 C722 1.395 . S
C720 C723 1.403 . S
H721 C727 0.930 . S
C722 H708 0.930 . S
C722 C720 1.395 . S
C722 C725 1.403 . S
C723 C720 1.403 . S
C723 C724 1.524 . S
C723 C727 1.400 . S
C724 H709 0.960 . S
C724 H710 0.960 . S
C724 H711 0.960 . S
C724 C723 1.524 . S
C725 C722 1.403 . S
C725 C726 1.392 . S
C725 C729 1.495 . S
C726 C725 1.392 . S
C726 C727 1.385 . S
C726 C728 1.478 . S
C727 H721 0.930 . S
C727 C723 1.400 . S
C727 C726 1.385 . S
C728 C726 1.478 . S
C728 C730 1.381 . S
C728 C734 1.383 . S
C729 C725 1.495 . S
C729 H735 0.959 . S
C729 H736 0.961 . S
C729 H737 0.960 . S
C730 C728 1.381 . S
C730 C731 1.394 1_565 S
C730 H738 0.930 . S
C731 C730 1.394 1_545 S
C731 C732 1.383 . S
C731 H739 0.929 . S
C732 C731 1.383 . S
C732 C733 1.377 1_545 S
C733 H717 0.930 . S
C733 C732 1.377 1_565 S
C733 C734 1.379 . S
C734 H718 0.931 . S
C734 C728 1.383 . S
C734 C733 1.379 . S
H735 C729 0.959 . S
H736 C729 0.961 . S
H737 C729 0.960 . S
H738 C730 0.930 . S
H739 C731 0.929 . S
H740 C748 0.929 . S
H741 C750 0.930 . S
H742 C752 0.930 . S
H743 C755 0.929 . S
H744 C758 0.930 . S
H745 C760 0.960 . S
H746 C760 0.960 . S
H747 C760 0.960 . S
C748 H740 0.929 . S
C748 C749 1.377 . S
C748 C750 1.384 . S
C749 C748 1.377 . S
C749 C755 1.390 . S
C750 H741 0.930 . S
C750 C748 1.384 . S
C750 C751 1.372 . S
C751 C750 1.372 . S
C751 C752 1.400 . S
C751 C756 1.490 . S
C752 H742 0.930 . S
C752 C751 1.400 . S
C752 C755 1.386 . S
H753 C769 0.930 . S
H754 C770 0.931 . S
C755 H743 0.929 . S
C755 C749 1.390 . S
C755 C752 1.386 . S
C756 C751 1.490 . S
C756 C758 1.395 . S
C756 C759 1.403 . S
H757 C763 0.930 . S
C758 H744 0.930 . S
C758 C756 1.395 . S
C758 C761 1.403 . S
C759 C756 1.403 . S
C759 C760 1.524 . S
C759 C763 1.400 . S
C760 H745 0.960 . S
C760 H746 0.960 . S
C760 H747 0.960 . S
C760 C759 1.524 . S
C761 C758 1.403 . S
C761 C762 1.392 . S
C761 C765 1.495 . S
C762 C761 1.392 . S
C762 C763 1.385 . S
C762 C764 1.478 . S
C763 H757 0.930 . S
C763 C759 1.400 . S
C763 C762 1.385 . S
C764 C762 1.478 . S
C764 C766 1.381 . S
C764 C770 1.383 . S
C765 C761 1.495 . S
C765 H771 0.959 . S
C765 H772 0.961 . S
C765 H773 0.960 . S
C766 C764 1.381 . S
C766 C767 1.394 . S
C766 H774 0.930 . S
C767 C766 1.394 . S
C767 C768 1.383 1_655 S
C767 H775 0.929 1_655 S
C768 C767 1.383 1_455 S
C768 C769 1.377 1_455 S
C769 H753 0.930 . S
C769 C768 1.377 1_655 S
C769 C770 1.379 . S
C770 H754 0.931 . S
C770 C764 1.383 . S
C770 C769 1.379 . S
H771 C765 0.959 . S
H772 C765 0.961 . S
H773 C765 0.960 . S
H774 C766 0.930 . S
H775 C767 0.929 1_455 S
H776 C784 0.929 . S
H777 C786 0.930 . S
H778 C788 0.930 . S
H779 C791 0.929 1_565 S
H780 C794 0.930 . S
H781 C796 0.960 . S
H782 C796 0.960 . S
H783 C796 0.960 . S
C784 H776 0.929 . S
C784 C785 1.377 1_545 S
C784 C786 1.384 . S
C785 C784 1.377 1_565 S
C785 C791 1.390 1_565 S
C786 H777 0.930 . S
C786 C784 1.384 . S
C786 C787 1.372 . S
C787 C786 1.372 . S
C787 C788 1.400 . S
C787 C792 1.490 . S
C788 H778 0.930 . S
C788 C787 1.400 . S
C788 C791 1.386 . S
H789 C805 0.930 . S
H790 C806 0.931 . S
C791 H779 0.929 1_545 S
C791 C785 1.390 1_545 S
C791 C788 1.386 . S
C792 C787 1.490 . S
C792 C794 1.395 . S
C792 C795 1.403 . S
H793 C799 0.930 . S
C794 H780 0.930 . S
C794 C792 1.395 . S
C794 C797 1.403 . S
C795 C792 1.403 . S
C795 C796 1.524 . S
C795 C799 1.400 . S
C796 H781 0.960 . S
C796 H782 0.960 . S
C796 H783 0.960 . S
C796 C795 1.524 . S
C797 C794 1.403 . S
C797 C798 1.392 . S
C797 C801 1.495 . S
C798 C797 1.392 . S
C798 C799 1.385 . S
C798 C800 1.478 . S
C799 H793 0.930 . S
C799 C795 1.400 . S
C799 C798 1.385 . S
C800 C798 1.478 . S
C800 C802 1.381 . S
C800 C806 1.383 . S
C801 C797 1.495 . S
C801 H807 0.959 . S
C801 H808 0.961 . S
C801 H809 0.960 . S
C802 C800 1.381 . S
C802 C803 1.394 . S
C802 H810 0.930 . S
C803 C802 1.394 . S
C803 C804 1.383 . S
C803 H811 0.929 . S
C804 C803 1.383 . S
C804 C805 1.377 . S
C805 H789 0.930 . S
C805 C804 1.377 . S
C805 C806 1.379 . S
C806 H790 0.931 . S
C806 C800 1.383 . S
C806 C805 1.379 . S
H807 C801 0.959 . S
H808 C801 0.961 . S
H809 C801 0.960 . S
H810 C802 0.930 . S
H811 C803 0.929 . S
H812 C820 0.929 . S
H813 C822 0.930 . S
H814 C824 0.930 . S
H815 C827 0.929 . S
H816 C830 0.930 . S
H817 C832 0.960 . S
H818 C832 0.960 . S
H819 C832 0.960 . S
C820 H812 0.929 . S
C820 C821 1.377 . S
C820 C822 1.384 . S
C821 C820 1.377 . S
C821 C827 1.390 . S
C822 H813 0.930 . S
C822 C820 1.384 . S
C822 C823 1.372 . S
C823 C822 1.372 . S
C823 C824 1.400 . S
C823 C828 1.490 . S
C824 H814 0.930 . S
C824 C823 1.400 . S
C824 C827 1.386 . S
H825 C841 0.930 . S
H826 C842 0.931 . S
C827 H815 0.929 . S
C827 C821 1.390 . S
C827 C824 1.386 . S
C828 C823 1.490 . S
C828 C830 1.395 . S
C828 C831 1.403 . S
H829 C835 0.930 . S
C830 H816 0.930 . S
C830 C828 1.395 . S
C830 C833 1.403 . S
C831 C828 1.403 . S
C831 C832 1.524 . S
C831 C835 1.400 . S
C832 H817 0.960 . S
C832 H818 0.960 . S
C832 H819 0.960 . S
C832 C831 1.524 . S
C833 C830 1.403 . S
C833 C834 1.392 . S
C833 C837 1.495 . S
C834 C833 1.392 . S
C834 C835 1.385 . S
C834 C836 1.478 . S
C835 H829 0.930 . S
C835 C831 1.400 . S
C835 C834 1.385 . S
C836 C834 1.478 . S
C836 C838 1.381 . S
C836 C842 1.383 . S
C837 C833 1.495 . S
C837 H843 0.959 . S
C837 H844 0.961 . S
C837 H845 0.960 . S
C838 C836 1.381 . S
C838 C839 1.394 1_455 S
C838 H846 0.930 . S
C839 C838 1.394 1_655 S
C839 C840 1.383 . S
C839 H847 0.929 . S
C840 C839 1.383 . S
C840 C841 1.377 1_655 S
C841 H825 0.930 . S
C841 C840 1.377 1_455 S
C841 C842 1.379 . S
C842 H826 0.931 . S
C842 C836 1.383 . S
C842 C841 1.379 . S
H843 C837 0.959 . S
H844 C837 0.961 . S
H845 C837 0.960 . S
H846 C838 0.930 . S
H847 C839 0.929 . S
H848 C856 0.929 . S
H849 C858 0.930 . S
H850 C860 0.930 . S
H851 C863 0.929 . S
H852 C866 0.930 . S
H853 C868 0.960 . S
H854 C868 0.960 . S
H855 C868 0.960 . S
C856 H848 0.929 . S
C856 C857 1.377 . S
C856 C858 1.384 . S
C857 C856 1.377 . S
C857 C863 1.390 . S
C858 H849 0.930 . S
C858 C856 1.384 . S
C858 C859 1.372 . S
C859 C858 1.372 . S
C859 C860 1.400 . S
C859 C864 1.490 . S
C860 H850 0.930 . S
C860 C859 1.400 . S
C860 C863 1.386 . S
H861 C877 0.930 . S
H862 C878 0.931 . S
C863 H851 0.929 . S
C863 C857 1.390 . S
C863 C860 1.386 . S
C864 C859 1.490 . S
C864 C866 1.395 . S
C864 C867 1.403 . S
H865 C871 0.930 . S
C866 H852 0.930 . S
C866 C864 1.395 . S
C866 C869 1.403 1_554 S
C867 C864 1.403 . S
C867 C868 1.524 . S
C867 C871 1.400 . S
C868 H853 0.960 . S
C868 H854 0.960 . S
C868 H855 0.960 . S
C868 C867 1.524 . S
C869 C866 1.403 1_556 S
C869 C870 1.392 . S
C869 C873 1.495 . S
C870 C869 1.392 . S
C870 C871 1.385 1_556 S
C870 C872 1.478 . S
C871 H865 0.930 . S
C871 C867 1.400 . S
C871 C870 1.385 1_554 S
C872 C870 1.478 . S
C872 C874 1.381 . S
C872 C878 1.383 . S
C873 C869 1.495 . S
C873 H879 0.959 . S
C873 H880 0.961 . S
C873 H881 0.960 . S
C874 C872 1.381 . S
C874 C875 1.394 . S
C874 H882 0.930 . S
C875 C874 1.394 . S
C875 C876 1.383 . S
C875 H883 0.929 . S
C876 C875 1.383 . S
C876 C877 1.377 . S
C877 H861 0.930 . S
C877 C876 1.377 . S
C877 C878 1.379 . S
C878 H862 0.931 . S
C878 C872 1.383 . S
C878 C877 1.379 . S
H879 C873 0.959 . S
H880 C873 0.961 . S
H881 C873 0.960 . S
H882 C874 0.930 . S
H883 C875 0.929 . S
H884 C892 0.929 . S
H885 C894 0.930 . S
H886 C896 0.930 . S
H887 C899 0.929 . S
H888 C902 0.930 . S
H889 C904 0.960 . S
H890 C904 0.960 1_556 S
H891 C904 0.960 1_556 S
C892 H884 0.929 . S
C892 C893 1.377 . S
C892 C894 1.384 . S
C893 C892 1.377 . S
C893 C899 1.390 . S
C894 H885 0.930 . S
C894 C892 1.384 . S
C894 C895 1.372 . S
C895 C894 1.372 . S
C895 C896 1.400 . S
C895 C900 1.490 . S
C896 H886 0.930 . S
C896 C895 1.400 . S
C896 C899 1.386 . S
H897 C913 0.930 . S
H898 C914 0.931 . S
C899 H887 0.929 . S
C899 C893 1.390 . S
C899 C896 1.386 . S
C900 C895 1.490 . S
C900 C902 1.395 . S
C900 C903 1.403 . S
H901 C907 0.930 . S
C902 H888 0.930 . S
C902 C900 1.395 . S
C902 C905 1.403 . S
C903 C900 1.403 . S
C903 C904 1.524 1_556 S
C903 C907 1.400 1_556 S
C904 H889 0.960 . S
C904 H890 0.960 1_554 S
C904 H891 0.960 1_554 S
C904 C903 1.524 1_554 S
C905 C902 1.403 . S
C905 C906 1.440 . S
C905 C909 1.495 . S
C906 C905 1.440 . S
C906 C907 1.371 1_556 S
C906 C908 1.445 1_556 S
C907 H901 0.930 . S
C907 C903 1.400 1_554 S
C907 C906 1.371 1_554 S
C908 C906 1.445 1_554 S
C908 C910 1.381 . S
C908 C914 1.383 . S
C909 C905 1.495 . S
C909 H915 0.959 . S
C909 H916 0.961 . S
C909 H917 0.960 . S
C910 C908 1.381 . S
C910 C911 1.394 . S
C910 H918 0.930 . S
C911 C910 1.394 . S
C911 C912 1.383 . S
C911 H919 0.929 . S
C912 C911 1.383 . S
C912 C913 1.377 . S
C913 H897 0.930 . S
C913 C912 1.377 . S
C913 C914 1.379 . S
C914 H898 0.931 . S
C914 C908 1.383 . S
C914 C913 1.379 . S
H915 C909 0.959 . S
H916 C909 0.961 . S
H917 C909 0.960 . S
H918 C910 0.930 . S
H919 C911 0.929 . S
H920 C928 0.929 . S
H921 C930 0.930 . S
H922 C932 0.930 . S
H923 C935 0.929 . S
H924 C938 0.930 . S
H925 C940 0.960 1_556 S
H926 C940 0.960 . S
H927 C940 0.960 . S
C928 H920 0.929 . S
C928 C929 1.377 . S
C928 C930 1.384 . S
C929 C928 1.377 . S
C929 C935 1.390 . S
C930 H921 0.930 . S
C930 C928 1.384 . S
C930 C931 1.372 . S
C931 C930 1.372 . S
C931 C932 1.400 . S
C931 C936 1.490 . S
C932 H922 0.930 . S
C932 C931 1.400 . S
C932 C935 1.386 . S
H933 C949 0.930 . S
H934 C950 0.931 . S
C935 H923 0.929 . S
C935 C929 1.390 . S
C935 C932 1.386 . S
C936 C931 1.490 . S
C936 C938 1.395 . S
C936 C939 1.403 . S
H937 C943 0.930 . S
C938 H924 0.930 . S
C938 C936 1.395 . S
C938 C941 1.403 . S
C939 C936 1.403 . S
C939 C940 1.524 . S
C939 C943 1.400 1_554 S
C940 H925 0.960 1_554 S
C940 H926 0.960 . S
C940 H927 0.960 . S
C940 C939 1.524 . S
C941 C938 1.403 . S
C941 C942 1.385 1_554 S
C941 C945 1.495 . S
C942 C941 1.385 1_556 S
C942 C943 1.386 . S
C942 C944 1.483 . S
C943 H937 0.930 . S
C943 C939 1.400 1_556 S
C943 C942 1.386 . S
C944 C942 1.483 . S
C944 C946 1.381 . S
C944 C950 1.383 . S
C945 C941 1.495 . S
C945 H951 0.959 . S
C945 H952 0.961 . S
C945 H953 0.960 . S
C946 C944 1.381 . S
C946 C947 1.394 . S
C946 H954 0.930 . S
C947 C946 1.394 . S
C947 C948 1.383 . S
C947 H955 0.929 . S
C948 C947 1.383 . S
C948 C949 1.377 . S
C949 H933 0.930 . S
C949 C948 1.377 . S
C949 C950 1.379 . S
C950 H934 0.931 . S
C950 C944 1.383 . S
C950 C949 1.379 . S
H951 C945 0.959 . S
H952 C945 0.961 . S
H953 C945 0.960 . S
H954 C946 0.930 . S
H955 C947 0.929 . S
H956 C964 0.929 . S
H957 C966 0.930 . S
H958 C968 0.930 . S
H959 C971 0.929 . S
H960 C974 0.930 . S
H961 C976 0.977 . S
H962 C976 0.955 1_556 S
H963 C976 0.951 1_556 S
C964 H956 0.929 . S
C964 C965 1.377 . S
C964 C966 1.384 . S
C965 C964 1.377 . S
C965 C971 1.390 . S
C966 H957 0.930 . S
C966 C964 1.384 . S
C966 C967 1.372 . S
C967 C966 1.372 . S
C967 C968 1.400 . S
C967 C972 1.490 . S
C968 H958 0.930 . S
C968 C967 1.400 . S
C968 C971 1.386 . S
H969 C985 0.930 . S
H970 C986 0.931 . S
C971 H959 0.929 . S
C971 C965 1.390 . S
C971 C968 1.386 . S
C972 C967 1.490 . S
C972 C974 1.395 . S
C972 C975 1.403 . S
H973 C979 0.930 . S
C974 H960 0.930 . S
C974 C972 1.395 . S
C974 C977 1.403 . S
C975 C972 1.403 . S
C975 C976 1.518 1_556 S
C975 C979 1.400 1_556 S
C976 H961 0.977 . S
C976 H962 0.955 1_554 S
C976 H963 0.951 1_554 S
C976 C975 1.518 1_554 S
C977 C974 1.403 . S
C977 C978 1.420 . S
C977 C981 1.495 . S
C978 C977 1.420 . S
C978 C979 1.377 1_556 S
C978 C980 1.458 1_556 S
C979 H973 0.930 . S
C979 C975 1.400 1_554 S
C979 C978 1.377 1_554 S
C980 C978 1.458 1_554 S
C980 C982 1.381 . S
C980 C986 1.383 . S
C981 C977 1.495 . S
C981 H987 0.959 . S
C981 H988 0.961 . S
C981 H989 0.960 . S
C982 C980 1.381 . S
C982 C983 1.394 . S
C982 H990 0.930 . S
C983 C982 1.394 . S
C983 C984 1.383 . S
C983 H991 0.929 . S
C984 C983 1.383 . S
C984 C985 1.377 . S
C985 H969 0.930 . S
C985 C984 1.377 . S
C985 C986 1.379 . S
C986 H970 0.931 . S
C986 C980 1.383 . S
C986 C985 1.379 . S
H987 C981 0.959 . S
H988 C981 0.961 . S
H989 C981 0.960 . S
H990 C982 0.930 . S
H991 C983 0.929 . S
C281 C88 1.070 . S
C300 C20 1.088 . S
C317 C122 1.064 . S
C336 C54 1.072 . S
C353 C224 1.067 . S
C372 C156 1.045 . S
C389 C258 1.065 . S
C408 C190 1.043 . S
C425 C2 1.165 . S
C444 C70 1.189 . S
C461 C104 1.166 . S
C480 C36 1.190 . S
C497 C206 1.164 . S
C516 C138 1.176 . S
C533 C240 1.173 . S
C552 C172 1.177 . S
C569 C247 1.378 . S
C588 C9 1.366 . S
C605 C145 1.378 . S
C624 C43 1.360 . S
C641 C77 1.379 . S
C660 C179 1.393 . S
C677 C213 1.379 . S
C696 C111 1.361 . S
C713 C67 0.450 . S
C732 C5 0.393 . S
C749 C101 0.449 . S
C768 C39 0.285 . S
C785 C73 0.342 . S
C804 C135 0.498 . S
C821 C33 0.488 . S
C840 C107 0.419 . S
C857 C271 0.448 . S
C876 C141 0.290 . S
C893 C169 0.452 . S
C912 C175 0.426 . S
C929 C203 0.479 . S
C948 C209 0.417 . S
C965 C237 0.456 . S
C984 C243 0.423 . S
