# Generated by pormake.
# Topology zfu, (5)-cn, num edge types: 1
# Building blocks:
#     Node 0, Type 0, BuildingBlock: BEQFEK_clean_sbu_0, # of connection points: 5
#     Node 1, Type 0, BuildingBlock: BEQFEK_clean_sbu_0, # of connection points: 5
#     Node 2, Type 0, BuildingBlock: BEQFEK_clean_sbu_0, # of connection points: 5
#     Node 3, Type 0, BuildingBlock: BEQFEK_clean_sbu_0, # of connection points: 5
#     Node 4, Type 0, BuildingBlock: BEQFEK_clean_sbu_0, # of connection points: 5
#     Node 5, Type 0, BuildingBlock: BEQFEK_clean_sbu_0, # of connection points: 5
#     Node 6, Type 0, BuildingBlock: BEQFEK_clean_sbu_0, # of connection points: 5
#     Node 7, Type 0, BuildingBlock: BEQFEK_clean_sbu_0, # of connection points: 5
#     Edge 8, Type (0, 0), BuildingBlock: MIFKUJ_clean_linker_0, # of connection points: 2
#     Edge 9, Type (0, 0), BuildingBlock: MIFKUJ_clean_linker_0, # of connection points: 2
#     Edge 10, Type (0, 0), BuildingBlock: MIFKUJ_clean_linker_0, # of connection points: 2
#     Edge 11, Type (0, 0), BuildingBlock: MIFKUJ_clean_linker_0, # of connection points: 2
#     Edge 12, Type (0, 0), BuildingBlock: MIFKUJ_clean_linker_0, # of connection points: 2
#     Edge 13, Type (0, 0), BuildingBlock: MIFKUJ_clean_linker_0, # of connection points: 2
#     Edge 14, Type (0, 0), BuildingBlock: MIFKUJ_clean_linker_0, # of connection points: 2
#     Edge 15, Type (0, 0), BuildingBlock: MIFKUJ_clean_linker_0, # of connection points: 2
#     Edge 16, Type (0, 0), BuildingBlock: MIFKUJ_clean_linker_0, # of connection points: 2
#     Edge 17, Type (0, 0), BuildingBlock: MIFKUJ_clean_linker_0, # of connection points: 2
#     Edge 18, Type (0, 0), BuildingBlock: MIFKUJ_clean_linker_0, # of connection points: 2
#     Edge 19, Type (0, 0), BuildingBlock: MIFKUJ_clean_linker_0, # of connection points: 2
#     Edge 20, Type (0, 0), BuildingBlock: MIFKUJ_clean_linker_0, # of connection points: 2
#     Edge 21, Type (0, 0), BuildingBlock: MIFKUJ_clean_linker_0, # of connection points: 2
#     Edge 22, Type (0, 0), BuildingBlock: MIFKUJ_clean_linker_0, # of connection points: 2
#     Edge 23, Type (0, 0), BuildingBlock: MIFKUJ_clean_linker_0, # of connection points: 2
#     Edge 24, Type (0, 0), BuildingBlock: MIFKUJ_clean_linker_0, # of connection points: 2
#     Edge 25, Type (0, 0), BuildingBlock: MIFKUJ_clean_linker_0, # of connection points: 2
#     Edge 26, Type (0, 0), BuildingBlock: MIFKUJ_clean_linker_0, # of connection points: 2
#     Edge 27, Type (0, 0), BuildingBlock: MIFKUJ_clean_linker_0, # of connection points: 2
# Relax obj value: 0.065
# Max RMSD: 0.102
# Mean RMSD: 0.102
data_MOF--net-zfu--node1-BEQFEK_clean_sbu_0--edge1-MIFKUJ_clean_linker_0
_symmetry_space_group_name_H-M    P1
_symmetry_Int_Tables_number       1
_symmetry_cell_setting            triclinic
loop_
_symmetry_equiv_pos_as_xyz
'x, y, z'
_cell_length_a     52.184964
_cell_length_b     52.167973
_cell_length_c     34.284787
_cell_angle_alpha  89.9556
_cell_angle_beta   90.018891
_cell_angle_gamma 89.990913
loop_
_atom_site_label
_atom_site_type_symbol
_atom_site_fract_x
_atom_site_fract_y
_atom_site_fract_z
_atom_type_partial_charge
Co0 Co 0.44342 0.70921 0.05664 0.0
Co1 Co 0.40809 0.75809 0.05399 0.0
C2 C 0.46427 0.76133 0.07413 0.0
O3 O 0.46721 0.73737 0.06907 0.0
O4 O 0.44244 0.77186 0.06956 0.0
C5 C 0.48134 0.67341 0.07683 0.0
O6 O 0.48329 0.68922 0.1065 0.0
C7 C 0.38986 0.80786 0.02266 0.0
C8 C 0.34954 0.80779 0.04211 0.0
C9 C 0.36715 0.8219 0.02069 0.0
N10 N 0.38554 0.78637 0.04355 0.0
N11 N 0.36146 0.78663 0.05534 0.0
C12 C 0.41538 0.81472 0.00565 0.0
H13 H 0.43107 0.80496 0.02142 0.0
H14 H 0.41611 0.8084 0.97478 0.0
H15 H 0.41847 0.83575 0.0068 0.0
C16 C 0.42138 0.70182 0.97819 0.0
N17 N 0.42479 0.71602 0.01057 0.0
N18 N 0.40969 0.73621 0.00923 0.0
C19 C 0.39588 0.73527 0.97593 0.0
C20 C 0.40291 0.71352 0.95512 0.0
C21 C 0.43346 0.67611 0.972 0.0
H22 H 0.42909 0.66357 0.99731 0.0
H23 H 0.45458 0.67839 0.97055 0.0
H24 H 0.42654 0.66675 0.94494 0.0
O25 O 0.41957 0.70419 0.10095 0.0
O26 O 0.39392 0.73823 0.09898 0.0
H27 H 0.36093 0.75506 0.98847 0.0
H28 H 0.36612 0.74921 0.93704 0.0
C29 C 0.37553 0.75419 0.96503 0.0
H30 H 0.38426 0.77341 0.96197 0.0
H31 H 0.35301 0.7721 0.07186 0.0
O32 O 0.46459 0.67786 0.05077 0.0
C33 C 0.4008 0.71706 0.11448 0.0
Co34 Co 0.79399 0.94328 0.30791 0.0
Co35 Co 0.74569 0.90727 0.30361 0.0
C36 C 0.74128 0.9633 0.32379 0.0
O37 O 0.76528 0.96636 0.31959 0.0
O38 O 0.73093 0.94142 0.31882 0.0
C39 C 0.82779 0.98344 0.32741 0.0
O40 O 0.81025 0.98691 0.35438 0.0
C41 C 0.69796 0.88822 0.26782 0.0
C42 C 0.69447 0.8498 0.29433 0.0
C43 C 0.68271 0.86628 0.26805 0.0
N44 N 0.71779 0.88457 0.29234 0.0
N45 N 0.71551 0.8616 0.30817 0.0
C46 C 0.69345 0.91273 0.24612 0.0
H47 H 0.70402 0.92875 0.25988 0.0
H48 H 0.70057 0.91072 0.21581 0.0
H49 H 0.67268 0.91727 0.24515 0.0
C50 C 0.80244 0.9223 0.22924 0.0
N51 N 0.78792 0.92501 0.26139 0.0
N52 N 0.76829 0.90922 0.25956 0.0
C53 C 0.77016 0.89538 0.22638 0.0
C54 C 0.79181 0.90332 0.20594 0.0
C55 C 0.82632 0.93739 0.22166 0.0
H56 H 0.82295 0.95785 0.2288 0.0
H57 H 0.83245 0.93588 0.19077 0.0
H58 H 0.84187 0.93022 0.24088 0.0
O59 O 0.79885 0.91899 0.35188 0.0
O60 O 0.76491 0.89329 0.34914 0.0
H61 H 0.74979 0.86162 0.24422 0.0
H62 H 0.7632 0.85963 0.19593 0.0
C63 C 0.75379 0.87257 0.21722 0.0
H64 H 0.73535 0.87917 0.20471 0.0
H65 H 0.72842 0.85391 0.32828 0.0
O66 O 0.82521 0.96496 0.30358 0.0
C67 C 0.78594 0.90012 0.36504 0.0
Co68 Co 0.5585 0.29108 0.55814 0.0
Co69 Co 0.59408 0.24258 0.55584 0.0
C70 C 0.53815 0.23816 0.57404 0.0
O71 O 0.53558 0.26227 0.57035 0.0
O72 O 0.55983 0.2274 0.56904 0.0
C73 C 0.51497 0.32016 0.5357 0.0
O74 O 0.50849 0.2983 0.51944 0.0
C75 C 0.61433 0.19438 0.52383 0.0
C76 C 0.65415 0.19477 0.54569 0.0
C77 C 0.63732 0.18101 0.52248 0.0
N78 N 0.61754 0.21514 0.54656 0.0
N79 N 0.64129 0.21505 0.55998 0.0
C80 C 0.59046 0.18908 0.50108 0.0
H81 H 0.57892 0.20684 0.49784 0.0
H82 H 0.59524 0.18119 0.47192 0.0
H83 H 0.57881 0.17468 0.51698 0.0
C84 C 0.58117 0.29922 0.48015 0.0
N85 N 0.57754 0.28482 0.51228 0.0
N86 N 0.59291 0.26482 0.51119 0.0
C87 C 0.60713 0.26611 0.4783 0.0
C88 C 0.60011 0.28793 0.4575 0.0
C89 C 0.56693 0.32354 0.47186 0.0
H90 H 0.54613 0.31938 0.47083 0.0
H91 H 0.5725 0.3322 0.44359 0.0
H92 H 0.57035 0.33743 0.4958 0.0
O93 O 0.58213 0.29671 0.60242 0.0
O94 O 0.60699 0.26213 0.60183 0.0
H95 H 0.64117 0.24634 0.49599 0.0
H96 H 0.64149 0.25643 0.4458 0.0
C97 C 0.62924 0.24877 0.46951 0.0
H98 H 0.62186 0.22972 0.46064 0.0
H99 H 0.64895 0.22931 0.57784 0.0
O100 O 0.5364 0.32186 0.55313 0.0
C101 C 0.60044 0.28355 0.61673 0.0
Co102 Co 0.20743 0.06003 0.80783 0.0
Co103 Co 0.25576 0.09595 0.80464 0.0
C104 C 0.26023 0.04125 0.8292 0.0
O105 O 0.23615 0.03861 0.82558 0.0
O106 O 0.27124 0.06234 0.82078 0.0
C107 C 0.18056 0.01384 0.79282 0.0
O108 O 0.2039 0.00574 0.78553 0.0
C109 C 0.30414 0.11581 0.77287 0.0
C110 C 0.30331 0.15612 0.79251 0.0
C111 C 0.31745 0.13883 0.77062 0.0
N112 N 0.28309 0.11945 0.79482 0.0
N113 N 0.2829 0.14349 0.80691 0.0
C114 C 0.30981 0.09142 0.75164 0.0
H115 H 0.29215 0.07974 0.74859 0.0
H116 H 0.31802 0.09554 0.72244 0.0
H117 H 0.32405 0.08021 0.76859 0.0
C118 C 0.20104 0.07958 0.72763 0.0
N119 N 0.21488 0.07721 0.76059 0.0
N120 N 0.23459 0.09292 0.75919 0.0
C121 C 0.23362 0.10616 0.72532 0.0
C122 C 0.21235 0.09808 0.70412 0.0
C123 C 0.17693 0.06494 0.7197 0.0
H124 H 0.18052 0.04421 0.72417 0.0
H125 H 0.17 0.06789 0.68945 0.0
H126 H 0.16191 0.07099 0.74067 0.0
O127 O 0.20018 0.08525 0.84918 0.0
O128 O 0.23484 0.11003 0.84872 0.0
H129 H 0.2523 0.14101 0.74209 0.0
H130 H 0.24269 0.14029 0.69173 0.0
C131 C 0.25044 0.12861 0.71605 0.0
H132 H 0.26975 0.1216 0.70783 0.0
H133 H 0.2684 0.1515 0.82395 0.0
O134 O 0.17714 0.03718 0.80215 0.0
C135 C 0.21304 0.10395 0.86287 0.0
Co136 Co 0.94038 0.79308 0.76199 0.0
Co137 Co 0.90607 0.74335 0.76494 0.0
C138 C 0.9606 0.74116 0.73886 0.0
O139 O 0.96253 0.76526 0.74313 0.0
O140 O 0.93996 0.72939 0.74731 0.0
C141 C 0.98587 0.81996 0.77956 0.0
O142 O 0.99367 0.79652 0.78702 0.0
C143 C 0.88761 0.69337 0.79508 0.0
C144 C 0.84686 0.69463 0.77787 0.0
C145 C 0.86464 0.67986 0.7979 0.0
N146 N 0.8833 0.71524 0.77514 0.0
N147 N 0.85896 0.71568 0.76461 0.0
C148 C 0.91335 0.68563 0.81043 0.0
H149 H 0.92887 0.69472 0.79342 0.0
H150 H 0.91526 0.69206 0.84112 0.0
H151 H 0.91565 0.66449 0.80936 0.0
C152 C 0.92077 0.79847 0.84208 0.0
N153 N 0.92369 0.78471 0.80916 0.0
N154 N 0.90889 0.7643 0.81064 0.0
C155 C 0.89584 0.76464 0.84467 0.0
C156 C 0.90303 0.78623 0.86575 0.0
C157 C 0.93214 0.82453 0.84811 0.0
H158 H 0.92851 0.83656 0.82198 0.0
H159 H 0.95319 0.82265 0.85162 0.0
H160 H 0.92411 0.83425 0.87415 0.0
O161 O 0.91479 0.79989 0.72108 0.0
O162 O 0.89113 0.76438 0.7213 0.0
H163 H 0.86049 0.74525 0.83327 0.0
H164 H 0.86705 0.74999 0.88459 0.0
C165 C 0.87571 0.74557 0.85585 0.0
H166 H 0.88442 0.72627 0.85751 0.0
H167 H 0.85046 0.73064 0.74908 0.0
O168 O 0.96282 0.82356 0.76879 0.0
C169 C 0.89646 0.78648 0.70738 0.0
Co170 Co 0.70697 0.44038 0.01336 0.0
Co171 Co 0.75636 0.40583 0.01558 0.0
C172 C 0.75933 0.46103 0.99337 0.0
O173 O 0.73518 0.46309 0.9973 0.0
O174 O 0.77086 0.44002 1.00057 0.0
C175 C 0.67787 0.48252 0.04081 0.0
O176 O 0.69954 0.4876 0.05876 0.0
C177 C 0.80594 0.38614 0.04427 0.0
C178 C 0.80325 0.34527 0.02794 0.0
C179 C 0.81863 0.36278 0.04735 0.0
N180 N 0.78399 0.38241 0.02441 0.0
N181 N 0.78275 0.35804 0.01417 0.0
C182 C 0.81292 0.41093 0.06342 0.0
H183 H 0.7957 0.42322 0.0669 0.0
H184 H 0.82188 0.40742 0.0923 0.0
H185 H 0.82694 0.42122 0.04479 0.0
C186 C 0.7006 0.41843 0.09246 0.0
N187 N 0.71449 0.42219 0.05981 0.0
N188 N 0.73516 0.4077 0.06109 0.0
C189 C 0.73498 0.39427 0.09481 0.0
C190 C 0.71317 0.40073 0.11579 0.0
C191 C 0.67425 0.42899 0.09883 0.0
H192 H 0.66332 0.42869 0.0711 0.0
H193 H 0.67581 0.44914 0.10882 0.0
H194 H 0.6636 0.41788 0.12119 0.0
O195 O 0.70057 0.4161 0.97063 0.0
O196 O 0.73566 0.3919 0.971 0.0
H197 H 0.75538 0.35945 0.08378 0.0
H198 H 0.75063 0.36617 0.135 0.0
C199 C 0.7547 0.3748 0.1061 0.0
H200 H 0.77372 0.38412 0.10749 0.0
H201 H 0.7674 0.3499 0.99909 0.0
O202 O 0.67635 0.46253 0.01977 0.0
C203 C 0.71387 0.39782 0.95663 0.0
Co204 Co 0.05962 0.21052 0.26372 0.0
Co205 Co 0.09469 0.25951 0.26398 0.0
C206 C 0.0385 0.26305 0.24684 0.0
O207 O 0.03607 0.23897 0.25139 0.0
O208 O 0.06017 0.27396 0.25105 0.0
C209 C 0.01754 0.1812 0.29108 0.0
O210 O 0.01168 0.20323 0.30736 0.0
C211 C 0.11432 0.30873 0.2934 0.0
C212 C 0.15373 0.30891 0.26998 0.0
C213 C 0.13698 0.32285 0.29314 0.0
N214 N 0.11778 0.28751 0.27174 0.0
N215 N 0.14127 0.28791 0.25743 0.0
C216 C 0.09055 0.31378 0.31655 0.0
H217 H 0.07936 0.29585 0.3203 0.0
H218 H 0.09544 0.32187 0.34554 0.0
H219 H 0.07845 0.32783 0.30066 0.0
C220 C 0.08365 0.20344 0.34117 0.0
N221 N 0.07936 0.21746 0.3088 0.0
N222 N 0.09429 0.23782 0.30918 0.0
C223 C 0.10875 0.23719 0.34188 0.0
C224 C 0.10231 0.2155 0.36332 0.0
C225 C 0.07231 0.1775 0.3484 0.0
H226 H 0.07255 0.16614 0.32109 0.0
H227 H 0.0521 0.17979 0.3578 0.0
H228 H 0.08291 0.16688 0.37135 0.0
O229 O 0.08255 0.20476 0.21859 0.0
O230 O 0.10727 0.23946 0.21823 0.0
H231 H 0.14266 0.25812 0.32706 0.0
H232 H 0.13965 0.25116 0.37857 0.0
C233 C 0.12903 0.25641 0.35172 0.0
H234 H 0.11997 0.27533 0.35648 0.0
H235 H 0.14901 0.27349 0.23995 0.0
O236 O 0.03797 0.17955 0.27106 0.0
C237 C 0.10062 0.21796 0.20367 0.0
Co238 Co 0.29334 0.55979 0.51052 0.0
Co239 Co 0.24526 0.596 0.51452 0.0
C240 C 0.24048 0.54045 0.49251 0.0
O241 O 0.26448 0.53737 0.4967 0.0
O242 O 0.2301 0.5622 0.4985 0.0
C243 C 0.32154 0.51618 0.53389 0.0
O244 O 0.29978 0.51095 0.55145 0.0
C245 C 0.19717 0.6158 0.54875 0.0
C246 C 0.19635 0.65524 0.52547 0.0
C247 C 0.18311 0.63857 0.54978 0.0
N248 N 0.21772 0.61924 0.52554 0.0
N249 N 0.21698 0.64281 0.51154 0.0
C250 C 0.19123 0.59089 0.56846 0.0
H251 H 0.20191 0.57494 0.55475 0.0
H252 H 0.19718 0.59191 0.59947 0.0
H253 H 0.17036 0.58686 0.56711 0.0
C254 C 0.30186 0.58115 0.58943 0.0
N255 N 0.28724 0.57797 0.55739 0.0
N256 N 0.26742 0.59356 0.55912 0.0
C257 C 0.26906 0.60744 0.59232 0.0
C258 C 0.29087 0.59996 0.61269 0.0
C259 C 0.32622 0.5668 0.59695 0.0
H260 H 0.32181 0.54612 0.59974 0.0
H261 H 0.3358 0.57295 0.62421 0.0
H262 H 0.33944 0.56932 0.5719 0.0
O263 O 0.29927 0.5844 0.46747 0.0
O264 O 0.26522 0.61002 0.46949 0.0
H265 H 0.26051 0.64202 0.62503 0.0
H266 H 0.23324 0.62294 0.61112 0.0
C267 C 0.25228 0.62992 0.60158 0.0
H268 H 0.24972 0.64189 0.57516 0.0
H269 H 0.23077 0.65054 0.49289 0.0
O270 O 0.32365 0.537 0.51489 0.0
C271 C 0.28651 0.60335 0.45421 0.0
H272 H 0.63296 0.48195 0.99948 0.0
H273 H 0.59692 0.5118 0.00512 0.0
H274 H 0.63639 0.55212 0.097 0.0
H275 H 0.6725 0.52248 0.09153 0.0
H276 H 0.58477 0.54306 0.11354 0.0
H277 H 0.63662 0.57642 0.00816 0.0
H278 H 0.65913 0.57397 0.94504 0.0
H279 H 0.58823 0.55651 0.88728 0.0
H280 H 0.56534 0.5585 0.95019 0.0
H281 H 0.52226 0.66217 0.12324 0.0
H282 H 0.55259 0.62696 0.11638 0.0
H283 H 0.51109 0.59935 0.01597 0.0
H284 H 0.4809 0.6351 0.02206 0.0
H285 H 0.56065 0.59862 0.00185 0.0
H286 H 0.50782 0.56824 0.10514 0.0
H287 H 0.48462 0.56997 0.16771 0.0
H288 H 0.55568 0.58022 0.22889 0.0
H289 H 0.5793 0.57892 0.16662 0.0
C290 C 0.63393 0.49712 0.02099 0.0
C291 C 0.65564 0.49993 0.04494 0.0
C292 C 0.61336 0.51418 0.02409 0.0
C293 C 0.6141 0.53425 0.0513 0.0
C294 C 0.63547 0.53675 0.07582 0.0
C295 C 0.65612 0.51985 0.07253 0.0
C296 C 0.59283 0.55301 0.05387 0.0
C297 C 0.57959 0.55538 0.08927 0.0
C298 C 0.5856 0.56844 0.02176 0.0
C299 C 0.59933 0.56731 0.98393 0.0
C300 C 0.62587 0.57183 0.98205 0.0
C301 C 0.63869 0.57057 0.9463 0.0
C302 C 0.62513 0.56501 0.91219 0.0
C303 C 0.59871 0.56077 0.91374 0.0
C304 C 0.58581 0.56197 0.94943 0.0
C305 C 0.51944 0.64855 0.0998 0.0
C306 C 0.4991 0.6514 0.07327 0.0
C307 C 0.53676 0.62832 0.09604 0.0
C308 C 0.53391 0.61024 0.06603 0.0
C309 C 0.51361 0.61301 0.03944 0.0
C310 C 0.49635 0.63341 0.04302 0.0
C311 C 0.55273 0.58903 0.06182 0.0
C312 C 0.56555 0.58615 0.02608 0.0
C313 C 0.55943 0.57297 0.09356 0.0
C314 C 0.54531 0.57368 0.13114 0.0
C315 C 0.51849 0.57105 0.1319 0.0
C316 C 0.50526 0.57193 0.16733 0.0
C317 C 0.51866 0.57525 0.20225 0.0
C318 C 0.54533 0.57766 0.20182 0.0
C319 C 0.55865 0.57682 0.16646 0.0
H320 H 0.50838 0.57592 0.22964 0.0
H321 H 0.63509 0.56405 0.88454 0.0
H322 H 0.02232 0.1336 0.25799 0.0
H323 H 0.99302 0.09718 0.2644 0.0
H324 H 0.94474 0.14168 0.34075 0.0
H325 H 0.97392 0.17806 0.33475 0.0
H326 H 0.95209 0.09308 0.36807 0.0
H327 H 0.92899 0.13355 0.24587 0.0
H328 H 0.93745 0.14999 0.17965 0.0
H329 H 0.9613 0.075 0.143 0.0
H330 H 0.95329 0.05819 0.2092 0.0
H331 H 0.83416 0.02868 0.36584 0.0
H332 H 0.86925 0.05916 0.35957 0.0
H333 H 0.90619 0.00962 0.27598 0.0
H334 H 0.87052 0.97925 0.28119 0.0
H335 H 0.90843 0.0572 0.2517 0.0
H336 H 0.92842 0.01553 0.37169 0.0
H337 H 0.92036 0.99859 0.43772 0.0
H338 H 0.90366 0.07452 0.47874 0.0
H339 H 0.91127 0.09189 0.41283 0.0
C340 C 0.00551 0.13561 0.27624 0.0
C341 C 1.00039 0.15879 0.29572 0.0
C342 C 0.98875 0.1148 0.27977 0.0
C343 C 0.96658 0.11681 0.30277 0.0
C344 C 0.96173 0.13973 0.32284 0.0
C345 C 0.97841 0.16053 0.31926 0.0
C346 C 0.94814 0.09524 0.30566 0.0
C347 C 0.94238 0.08534 0.34269 0.0
C348 C 0.93612 0.08461 0.27239 0.0
C349 C 0.94082 0.09469 0.23258 0.0
C350 C 0.93623 0.12062 0.22377 0.0
C351 C 0.94091 0.12999 0.18623 0.0
C352 C 0.94998 0.11357 0.15717 0.0
C353 C 0.95432 0.08771 0.16556 0.0
C354 C 0.9497 0.07825 0.20307 0.0
C355 C 0.84979 0.02414 0.34625 0.0
C356 C 0.84961 0.00146 0.32417 0.0
C357 C 0.86995 0.04157 0.34285 0.0
C358 C 0.89066 0.0365 0.31786 0.0
C359 C 0.8905 0.0139 0.2956 0.0
C360 C 0.87014 0.99653 0.29868 0.0
C361 C 0.91197 0.05527 0.31427 0.0
C362 C 0.91832 0.06466 0.27711 0.0
C363 C 0.92468 0.06533 0.34743 0.0
C364 C 0.92025 0.05498 0.38722 0.0
C365 C 0.92287 0.0286 0.39473 0.0
C366 C 0.9184 0.01893 0.43215 0.0
C367 C 0.91145 0.03547 0.46239 0.0
C368 C 0.90903 0.06173 0.45529 0.0
C369 C 0.91345 0.07151 0.41791 0.0
H370 H 0.90799 0.02794 0.49134 0.0
H371 H 0.95358 0.12086 0.12812 0.0
H372 H 0.51735 0.3643 0.5786 0.0
H373 H 0.48594 0.39909 0.5804 0.0
H374 H 0.4415 0.36105 0.49145 0.0
H375 H 0.47232 0.32585 0.49047 0.0
H376 H 0.46861 0.43324 0.53181 0.0
H377 H 0.37877 0.36942 0.50634 0.0
H378 H 0.3645 0.32517 0.51959 0.0
H379 H 0.41717 0.32008 0.61554 0.0
H380 H 0.43148 0.3644 0.60321 0.0
H381 H 0.36228 0.51186 0.48435 0.0
H382 H 0.39669 0.4801 0.48665 0.0
H383 H 0.36463 0.44856 0.5924 0.0
H384 H 0.32953 0.47945 0.58902 0.0
H385 H 0.37676 0.41164 0.54933 0.0
H386 H 0.42145 0.48669 0.58965 0.0
H387 H 0.43645 0.53146 0.58615 0.0
H388 H 0.47526 0.51532 0.47852 0.0
H389 H 0.4602 0.47052 0.48109 0.0
C390 C 0.50093 0.36341 0.55931 0.0
C391 C 0.49715 0.3422 0.5347 0.0
C392 C 0.48303 0.38335 0.5603 0.0
C393 C 0.46111 0.38249 0.53656 0.0
C394 C 0.45793 0.36185 0.51072 0.0
C395 C 0.47563 0.34178 0.51008 0.0
C396 C 0.44122 0.40277 0.5395 0.0
C397 C 0.44852 0.42855 0.53567 0.0
C398 C 0.41508 0.39673 0.54564 0.0
C399 C 0.40637 0.37015 0.55357 0.0
C400 C 0.38722 0.35889 0.53035 0.0
C401 C 0.37915 0.33379 0.53769 0.0
C402 C 0.38999 0.3198 0.5683 0.0
C403 C 0.40886 0.33091 0.59174 0.0
C404 C 0.41698 0.356 0.58456 0.0
C405 C 0.3627 0.49824 0.5082 0.0
C406 C 0.34322 0.49807 0.53647 0.0
C407 C 0.38247 0.48016 0.50963 0.0
C408 C 0.38352 0.46205 0.53999 0.0
C409 C 0.36425 0.46223 0.5686 0.0
C410 C 0.34421 0.47993 0.56671 0.0
C411 C 0.40402 0.44223 0.54109 0.0
C412 C 0.39683 0.41645 0.54559 0.0
C413 C 0.43034 0.44839 0.53702 0.0
C414 C 0.4395 0.4753 0.5354 0.0
C415 C 0.43303 0.49273 0.56509 0.0
C416 C 0.44157 0.51811 0.5633 0.0
C417 C 0.45675 0.52624 0.53209 0.0
C418 C 0.46348 0.509 0.50266 0.0
C419 C 0.45497 0.4836 0.50429 0.0
H420 H 0.46334 0.54589 0.53075 0.0
H421 H 0.38372 0.30036 0.57391 0.0
H422 H 0.03784 0.81739 0.78435 0.0
H423 H 0.06815 0.85277 0.78854 0.0
H424 H 0.00559 0.90688 0.78672 0.0
H425 H 0.97502 0.87137 0.78126 0.0
H426 H 0.0428 0.92326 0.74137 0.0
H427 H 0.03846 0.89299 0.87219 0.0
H428 H 0.03898 0.8611 0.9253 0.0
H429 H 0.11664 0.8413 0.89698 0.0
H430 H 0.11648 0.87283 0.84332 0.0
H431 H 0.12921 0.02464 0.79814 0.0
H432 H 0.09356 0.99401 0.79761 0.0
H433 H 0.14708 0.93166 0.78392 0.0
H434 H 0.18268 0.96197 0.7844 0.0
H435 H 0.11119 0.92287 0.84194 0.0
H436 H 0.11326 0.95189 0.70765 0.0
H437 H 0.11199 0.98462 0.65575 0.0
H438 H 0.03721 0.00828 0.69361 0.0
H439 H 0.03821 0.97591 0.74612 0.0
C440 C 0.03047 0.8368 0.78503 0.0
C441 C 0.00402 0.8416 0.78272 0.0
C442 C 0.04785 0.85704 0.78758 0.0
C443 C 0.03915 0.88251 0.78872 0.0
C444 C 0.01274 0.88739 0.78606 0.0
C445 C 0.9953 0.8671 0.78302 0.0
C446 C 0.05783 0.90388 0.79202 0.0
C447 C 0.05745 0.92343 0.76382 0.0
C448 C 0.07712 0.90403 0.82109 0.0
C449 C 0.07739 0.88517 0.85354 0.0
C450 C 0.0556 0.88172 0.87712 0.0
C451 C 0.05584 0.86373 0.90735 0.0
C452 C 0.07782 0.84915 0.91447 0.0
C453 C 0.09963 0.8526 0.89142 0.0
C454 C 0.09948 0.87056 0.86113 0.0
C455 C 0.13336 0.00441 0.7949 0.0
C456 C 0.15877 0.99572 0.79131 0.0
C457 C 0.11298 0.98697 0.79451 0.0
C458 C 0.11772 0.9606 0.79064 0.0
C459 C 0.14304 0.95193 0.78702 0.0
C460 C 0.16336 0.96931 0.78713 0.0
C461 C 0.09645 0.9418 0.79084 0.0
C462 C 0.09633 0.9228 0.8198 0.0
C463 C 0.07659 0.94234 0.76277 0.0
C464 C 0.07594 0.96169 0.73108 0.0
C465 C 0.09665 0.96422 0.70512 0.0
C466 C 0.09595 0.98268 0.67555 0.0
C467 C 0.07457 0.99858 0.67146 0.0
C468 C 0.05379 0.99599 0.69686 0.0
C469 C 0.0544 0.97758 0.72651 0.0
H470 H 0.07407 0.01285 0.64854 0.0
H471 H 0.07796 0.83522 0.93788 0.0
H472 H 0.33192 0.59556 0.41636 0.0
H473 H 0.34876 0.61856 0.36012 0.0
H474 H 0.28154 0.66664 0.35815 0.0
H475 H 0.26426 0.64347 0.41455 0.0
H476 H 0.29444 0.65024 0.28519 0.0
H477 H 0.33701 0.69066 0.39135 0.0
H478 H 0.36183 0.69315 0.45242 0.0
H479 H 0.42546 0.65591 0.39687 0.0
H480 H 0.40088 0.65285 0.33559 0.0
H481 H 0.35562 0.73435 0.14627 0.0
H482 H 0.33389 0.71822 0.20475 0.0
H483 H 0.3935 0.66188 0.22038 0.0
H484 H 0.41525 0.67772 0.16222 0.0
H485 H 0.38184 0.68765 0.28846 0.0
H486 H 0.33729 0.64416 0.18416 0.0
H487 H 0.31219 0.64176 0.12332 0.0
H488 H 0.25197 0.68586 0.176 0.0
H489 H 0.2769 0.68883 0.23703 0.0
C490 C 0.32065 0.61105 0.40415 0.0
C491 C 0.29673 0.61769 0.42017 0.0
C492 C 0.3304 0.62427 0.37201 0.0
C493 C 0.31658 0.64455 0.35521 0.0
C494 C 0.29257 0.65111 0.37075 0.0
C495 C 0.28277 0.63789 0.40306 0.0
C496 C 0.32729 0.65851 0.32113 0.0
C497 C 0.31334 0.65888 0.2861 0.0
C498 C 0.35209 0.66949 0.32216 0.0
C499 C 0.36701 0.67135 0.35894 0.0
C500 C 0.35622 0.68282 0.39223 0.0
C501 C 0.37026 0.68437 0.42688 0.0
C502 C 0.39519 0.67465 0.42855 0.0
C503 C 0.40615 0.66342 0.39554 0.0
C504 C 0.39218 0.6618 0.36082 0.0
C505 C 0.36408 0.71851 0.16213 0.0
C506 C 0.38718 0.70732 0.14947 0.0
C507 C 0.3516 0.70928 0.19547 0.0
C508 C 0.36206 0.68881 0.21682 0.0
C509 C 0.38512 0.67772 0.20436 0.0
C510 C 0.39747 0.68675 0.17096 0.0
C511 C 0.34923 0.67887 0.25239 0.0
C512 C 0.3628 0.6793 0.28771 0.0
C513 C 0.32408 0.66875 0.25163 0.0
C514 C 0.30909 0.66699 0.21497 0.0
C515 C 0.3188 0.65356 0.18264 0.0
C516 C 0.30459 0.65205 0.14816 0.0
C517 C 0.28054 0.66372 0.14575 0.0
C518 C 0.27063 0.67687 0.17788 0.0
C519 C 0.28478 0.67847 0.21242 0.0
H520 H 0.26956 0.66252 0.11903 0.0
H521 H 0.40603 0.67587 0.4554 0.0
H522 H 0.7641 0.85892 0.40243 0.0
H523 H 0.78025 0.83629 0.46 0.0
H524 H 0.84544 0.88704 0.46399 0.0
H525 H 0.82973 0.9095 0.4064 0.0
H526 H 0.86001 0.83854 0.47429 0.0
H527 H 0.79455 0.89411 0.52623 0.0
H528 H 0.75093 0.91193 0.5317 0.0
H529 H 0.72164 0.83743 0.56091 0.0
H530 H 0.76508 0.81909 0.55508 0.0
H531 H 0.90707 0.82932 0.66464 0.0
H532 H 0.88543 0.84462 0.60619 0.0
H533 H 0.83169 0.78205 0.61357 0.0
H534 H 0.8534 0.76632 0.67249 0.0
H535 H 0.80898 0.83087 0.59586 0.0
H536 H 0.87612 0.77648 0.54963 0.0
H537 H 0.92029 0.7599 0.54579 0.0
H538 H 0.94686 0.83345 0.50672 0.0
H539 H 0.90289 0.8506 0.5109 0.0
C540 C 0.78189 0.86526 0.41553 0.0
C541 C 0.79558 0.88609 0.39975 0.0
C542 C 0.79104 0.85235 0.44854 0.0
C543 C 0.81396 0.8601 0.46651 0.0
C544 C 0.82773 0.8807 0.4506 0.0
C545 C 0.81865 0.89358 0.41767 0.0
C546 C 0.82385 0.84683 0.5018 0.0
C547 C 0.84889 0.83703 0.50092 0.0
C548 C 0.8091 0.84419 0.53626 0.0
C549 C 0.78299 0.85517 0.53974 0.0
C550 C 0.77877 0.88148 0.53347 0.0
C551 C 0.75409 0.89169 0.53671 0.0
C552 C 0.73351 0.87581 0.54652 0.0
C553 C 0.73759 0.8497 0.55322 0.0
C554 C 0.76223 0.83939 0.54998 0.0
C555 C 0.89056 0.81879 0.65415 0.0
C556 C 0.88208 0.79646 0.67324 0.0
C557 C 0.87826 0.82757 0.62059 0.0
C558 C 0.85716 0.8143 0.60533 0.0
C559 C 0.84802 0.79249 0.62487 0.0
C560 C 0.86049 0.78352 0.65843 0.0
C561 C 0.84527 0.82317 0.56844 0.0
C562 C 0.81992 0.8321 0.56902 0.0
C563 C 0.85975 0.82516 0.5337 0.0
C564 C 0.88622 0.81488 0.53087 0.0
C565 C 0.89141 0.78918 0.54051 0.0
C566 C 0.91641 0.77967 0.53822 0.0
C567 C 0.93638 0.79563 0.52609 0.0
C568 C 0.93137 0.82112 0.51613 0.0
C569 C 0.90641 0.83074 0.51842 0.0
H570 H 0.95572 0.78823 0.52434 0.0
H571 H 0.71442 0.88375 0.54902 0.0
H572 H 0.72956 0.35121 0.92785 0.0
H573 H 0.71191 0.32801 0.87179 0.0
H574 H 0.65842 0.38973 0.85165 0.0
H575 H 0.67524 0.41243 0.90807 0.0
H576 H 0.63461 0.34655 0.84541 0.0
H577 H 0.71494 0.3798 0.79565 0.0
H578 H 0.76188 0.3854 0.79502 0.0
H579 H 0.77196 0.30405 0.78386 0.0
H580 H 0.72507 0.29794 0.78489 0.0
H581 H 0.59406 0.32983 0.65267 0.0
H582 H 0.61519 0.34551 0.71133 0.0
H583 H 0.65851 0.27528 0.71943 0.0
H584 H 0.6377 0.25949 0.66004 0.0
H585 H 0.68824 0.31696 0.7348 0.0
H586 H 0.60723 0.28469 0.77832 0.0
H587 H 0.56022 0.27986 0.77753 0.0
H588 H 0.55135 0.36036 0.79975 0.0
H589 H 0.5983 0.36575 0.80014 0.0
C590 C 0.71405 0.3598 0.9114 0.0
C591 C 0.70378 0.38365 0.92248 0.0
C592 C 0.70405 0.34658 0.87926 0.0
C593 C 0.68396 0.35722 0.85719 0.0
C594 C 0.67382 0.38104 0.86825 0.0
C595 C 0.68352 0.39405 0.90055 0.0
C596 C 0.67303 0.34367 0.82283 0.0
C597 C 0.64636 0.3403 0.82111 0.0
C598 C 0.68837 0.3347 0.79159 0.0
C599 C 0.71653 0.33839 0.79078 0.0
C600 C 0.72718 0.36309 0.79334 0.0
C601 C 0.75377 0.36636 0.79286 0.0
C602 C 0.76989 0.34509 0.78952 0.0
C603 C 0.75946 0.3205 0.78652 0.0
C604 C 0.73288 0.31713 0.78702 0.0
C605 C 0.60809 0.31765 0.66679 0.0
C606 C 0.614 0.29328 0.65175 0.0
C607 C 0.62011 0.32664 0.70046 0.0
C608 C 0.6381 0.31138 0.72017 0.0
C609 C 0.64458 0.28731 0.70478 0.0
C610 C 0.63261 0.27831 0.67089 0.0
C611 C 0.64982 0.32066 0.75702 0.0
C612 C 0.67657 0.32305 0.75929 0.0
C613 C 0.63457 0.32888 0.78876 0.0
C614 C 0.6063 0.32564 0.78902 0.0
C615 C 0.59525 0.30139 0.78282 0.0
C616 C 0.56861 0.29855 0.78247 0.0
C617 C 0.55281 0.3198 0.78853 0.0
C618 C 0.56361 0.34392 0.79506 0.0
C619 C 0.59024 0.34687 0.7954 0.0
H620 H 0.53219 0.31756 0.78822 0.0
H621 H 0.79047 0.34766 0.78917 0.0
H622 H 0.17105 0.09198 0.90663 0.0
H623 H 0.15386 0.11498 0.96248 0.0
H624 H 0.2134 0.17187 0.95139 0.0
H625 H 0.23127 0.14847 0.89568 0.0
H626 H 0.2069 0.15925 0.02586 0.0
H627 H 0.15136 0.18484 0.92267 0.0
H628 H 0.12283 0.17904 0.86601 0.0
H629 H 0.07075 0.13517 0.93632 0.0
H630 H 0.09913 0.14039 0.9933 0.0
H631 H 0.1411 0.2395 0.1642 0.0
H632 H 0.1618 0.22358 0.10487 0.0
H633 H 0.1107 0.15862 0.10377 0.0
H634 H 0.08981 0.17438 0.16264 0.0
H635 H 0.11439 0.18078 0.03242 0.0
H636 H 0.17248 0.15265 0.13399 0.0
H637 H 0.20126 0.15889 0.19025 0.0
H638 H 0.24865 0.20906 0.12197 0.0
H639 H 0.21993 0.20337 0.06542 0.0
C640 C 0.1805 0.10944 0.91583 0.0
C641 C 0.20249 0.11844 0.89644 0.0
C642 C 0.17054 0.12266 0.94776 0.0
C643 C 0.18204 0.14543 0.96075 0.0
C644 C 0.20414 0.1544 0.94176 0.0
C645 C 0.21428 0.14104 0.90987 0.0
C646 C 0.17106 0.15941 0.99462 0.0
C647 C 0.18678 0.16441 0.027 0.0
C648 C 0.14473 0.16591 0.99636 0.0
C649 C 0.12748 0.16287 0.96221 0.0
C650 C 0.1339 0.17382 0.926 0.0
C651 C 0.11775 0.17065 0.89383 0.0
C652 C 0.09502 0.15671 0.89755 0.0
C653 C 0.08837 0.14596 0.93348 0.0
C654 C 0.10446 0.14904 0.96574 0.0
C655 C 0.1343 0.22179 0.1514 0.0
C656 C 0.11377 0.20823 0.16826 0.0
C657 C 0.14621 0.21269 0.11754 0.0
C658 C 0.13787 0.18985 0.10001 0.0
C659 C 0.11741 0.17632 0.11677 0.0
C660 C 0.10555 0.18534 0.15056 0.0
C661 C 0.15009 0.18 0.0639 0.0
C662 C 0.13458 0.17587 0.03107 0.0
C663 C 0.1766 0.17448 0.0617 0.0
C664 C 0.1939 0.17782 0.09564 0.0
C665 C 0.18892 0.16518 0.13108 0.0
C666 C 0.20524 0.16859 0.16299 0.0
C667 C 0.22673 0.18442 0.15972 0.0
C668 C 0.23197 0.19683 0.12448 0.0
C669 C 0.21569 0.19351 0.09249 0.0
H670 H 0.23934 0.18703 0.18446 0.0
H671 H 0.08254 0.15427 0.8726 0.0
H672 H 0.26765 0.60731 0.683 0.0
H673 H 0.28599 0.62736 0.74156 0.0
H674 H 0.35703 0.63984 0.68011 0.0
H675 H 0.33858 0.62033 0.62148 0.0
H676 H 0.36405 0.6189 0.75422 0.0
H677 H 0.31793 0.68842 0.69387 0.0
H678 H 0.27981 0.70928 0.66558 0.0
H679 H 0.23998 0.70111 0.77446 0.0
H680 H 0.27775 0.6798 0.80323 0.0
H681 H 0.42587 0.70282 0.8859 0.0
H682 H 0.40611 0.68424 0.82744 0.0
H683 H 0.33319 0.68135 0.88674 0.0
H684 H 0.35292 0.70048 0.94479 0.0
H685 H 0.32634 0.69675 0.81431 0.0
H686 H 0.37116 0.62768 0.8755 0.0
H687 H 0.40828 0.60575 0.90496 0.0
H688 H 0.44914 0.61122 0.79659 0.0
H689 H 0.41241 0.63359 0.76664 0.0
C690 C 0.28714 0.61442 0.68212 0.0
C691 C 0.30185 0.61202 0.64805 0.0
C692 C 0.29758 0.62584 0.71546 0.0
C693 C 0.32289 0.63506 0.71515 0.0
C694 C 0.33755 0.63268 0.68106 0.0
C695 C 0.32705 0.62148 0.64769 0.0
C696 C 0.33415 0.64722 0.75032 0.0
C697 C 0.35601 0.6361 0.76712 0.0
C698 C 0.32321 0.66923 0.76772 0.0
C699 C 0.30058 0.68228 0.75058 0.0
C700 C 0.30097 0.69088 0.71169 0.0
C701 C 0.27944 0.70281 0.69558 0.0
C702 C 0.25746 0.70646 0.71818 0.0
C703 C 0.25701 0.69824 0.75697 0.0
C704 C 0.27848 0.68625 0.7732 0.0
C705 C 0.40561 0.69828 0.88619 0.0
C706 C 0.39083 0.70305 0.91955 0.0
C707 C 0.39435 0.68758 0.85296 0.0
C708 C 0.3682 0.68105 0.85282 0.0
C709 C 0.35337 0.68622 0.88609 0.0
C710 C 0.3646 0.69711 0.91919 0.0
C711 C 0.3564 0.66853 0.81822 0.0
C712 C 0.33441 0.67953 0.80152 0.0
C713 C 0.36707 0.64623 0.80113 0.0
C714 C 0.38911 0.63253 0.81893 0.0
C715 C 0.38813 0.62437 0.85802 0.0
C716 C 0.40909 0.61184 0.87481 0.0
C717 C 0.43108 0.60714 0.85269 0.0
C718 C 0.43211 0.61491 0.8137 0.0
C719 C 0.41122 0.6275 0.7968 0.0
H720 H 0.44729 0.59744 0.86574 0.0
H721 H 0.24081 0.7157 0.70565 0.0
H722 H 0.76787 0.89329 0.13689 0.0
H723 H 0.78627 0.87306 0.07864 0.0
H724 H 0.8592 0.86667 0.13717 0.0
H725 H 0.8408 0.88664 0.19538 0.0
H726 H 0.86456 0.88406 0.06253 0.0
H727 H 0.82065 0.81535 0.12845 0.0
H728 H 0.78335 0.79448 0.15911 0.0
H729 H 0.74207 0.79873 0.05093 0.0
H730 H 0.779 0.82002 0.01977 0.0
H731 H 0.92646 0.79789 0.93427 0.0
H732 H 0.90702 0.81714 0.99248 0.0
H733 H 0.83347 0.81802 0.9348 0.0
H734 H 0.85288 0.79829 0.877 0.0
H735 H 0.82779 0.80389 0.00844 0.0
H736 H 0.8709 0.87212 0.94193 0.0
H737 H 0.90756 0.89355 0.9104 0.0
H738 H 0.9494 0.89134 0.01822 0.0
H739 H 0.91313 0.86948 0.05025 0.0
C740 C 0.7878 0.88751 0.1372 0.0
C741 C 0.80297 0.89162 0.17044 0.0
C742 C 0.79829 0.87597 0.10402 0.0
C743 C 0.82409 0.86822 0.10365 0.0
C744 C 0.8393 0.8726 0.13674 0.0
C745 C 0.82881 0.88407 0.1699 0.0
C746 C 0.83524 0.85533 0.06898 0.0
C747 C 0.85672 0.86636 0.05096 0.0
C748 C 0.8246 0.8326 0.05332 0.0
C749 C 0.80251 0.8195 0.07188 0.0
C750 C 0.80355 0.812 0.11127 0.0
C751 C 0.78249 0.80008 0.12873 0.0
C752 C 0.76033 0.79534 0.10701 0.0
C753 C 0.75923 0.80244 0.06774 0.0
C754 C 0.78023 0.81443 0.05016 0.0
C755 C 0.90612 0.80206 0.93433 0.0
C756 C 0.89107 0.79658 0.90149 0.0
C757 C 0.89504 0.81314 0.9674 0.0
C758 C 0.86882 0.81936 0.96785 0.0
C759 C 0.85371 0.81339 0.93519 0.0
C760 C 0.86476 0.80213 0.90225 0.0
C761 C 0.85724 0.83254 0.00202 0.0
C762 C 0.83565 0.82159 0.01993 0.0
C763 C 0.86767 0.85547 0.01744 0.0
C764 C 0.88938 0.86894 0.9984 0.0
C765 C 0.88798 0.87605 0.95886 0.0
C766 C 0.90868 0.88828 0.9409 0.0
C767 C 0.93082 0.89375 0.96227 0.0
C768 C 0.93225 0.88706 1.00169 0.0
C769 C 0.91162 0.87476 0.01977 0.0
H770 H 0.94683 0.90322 0.94832 0.0
H771 H 0.74404 0.78611 0.12058 0.0
H772 H 0.7027 0.35025 0.12729 0.0
H773 H 0.68447 0.3302 0.18584 0.0
H774 H 0.68261 0.40387 0.24286 0.0
H775 H 0.70077 0.42396 0.18413 0.0
H776 H 0.70206 0.36354 0.29019 0.0
H777 H 0.62956 0.38179 0.20776 0.0
H778 H 0.60488 0.38037 0.14648 0.0
H779 H 0.60307 0.29816 0.15194 0.0
H780 H 0.62814 0.29907 0.21296 0.0
H781 H 0.62032 0.33563 0.44848 0.0
H782 H 0.64028 0.35382 0.3902 0.0
H783 H 0.62947 0.28206 0.32977 0.0
H784 H 0.60833 0.26423 0.38776 0.0
H785 H 0.61747 0.3203 0.28335 0.0
H786 H 0.68887 0.30107 0.36544 0.0
H787 H 0.71453 0.30137 0.42584 0.0
H788 H 0.71981 0.38343 0.42037 0.0
H789 H 0.69385 0.38366 0.36022 0.0
C790 C 0.6986 0.36204 0.15253 0.0
C791 C 0.70325 0.38853 0.1516 0.0
C792 C 0.68811 0.35065 0.18578 0.0
C793 C 0.68213 0.36559 0.21858 0.0
C794 C 0.68716 0.39203 0.21786 0.0
C795 C 0.69743 0.40346 0.18444 0.0
C796 C 0.67016 0.3537 0.25335 0.0
C797 C 0.68343 0.35434 0.2889 0.0
C798 C 0.64622 0.34107 0.25124 0.0
C799 C 0.63096 0.3405 0.21472 0.0
C800 C 0.6241 0.3634 0.19572 0.0
C801 C 0.61 0.36269 0.16106 0.0
C802 C 0.60246 0.33919 0.14527 0.0
C803 C 0.60895 0.31635 0.16417 0.0
C804 C 0.6231 0.31695 0.19881 0.0
C805 C 0.62198 0.32387 0.42258 0.0
C806 C 0.61261 0.29865 0.42234 0.0
C807 C 0.63366 0.33415 0.38945 0.0
C808 C 0.63672 0.31922 0.35569 0.0
C809 C 0.62737 0.29395 0.35547 0.0
C810 C 0.61544 0.28374 0.38856 0.0
C811 C 0.6493 0.33017 0.32051 0.0
C812 C 0.63615 0.32938 0.28479 0.0
C813 C 0.67349 0.34246 0.32241 0.0
C814 C 0.68922 0.34239 0.35849 0.0
C815 C 0.69534 0.3192 0.37727 0.0
C816 C 0.70996 0.31927 0.41144 0.0
C817 C 0.71874 0.34241 0.42698 0.0
C818 C 0.71297 0.36553 0.40832 0.0
C819 C 0.69833 0.36556 0.37416 0.0
H820 H 0.73006 0.34243 0.45344 0.0
H821 H 0.59155 0.33867 0.11844 0.0
H822 H 0.15257 0.20324 0.37365 0.0
H823 H 0.17248 0.18412 0.4317 0.0
H824 H 0.09943 0.18532 0.49059 0.0
H825 H 0.07956 0.2045 0.43251 0.0
H826 H 0.13983 0.2019 0.53772 0.0
H827 H 0.11986 0.13126 0.4528 0.0
H828 H 0.1207 0.10734 0.39083 0.0
H829 H 0.20279 0.10298 0.39658 0.0
H830 H 0.20246 0.12727 0.45832 0.0
H831 H 0.16422 0.11691 0.6933 0.0
H832 H 0.1467 0.13727 0.6348 0.0
H833 H 0.21931 0.12748 0.57643 0.0
H834 H 0.23659 0.10618 0.63473 0.0
H835 H 0.18071 0.11623 0.52829 0.0
H836 H 0.20122 0.18569 0.61348 0.0
H837 H 0.20105 0.2101 0.67503 0.0
H838 H 0.11921 0.21751 0.66843 0.0
H839 H 0.11885 0.1928 0.6071 0.0
C840 C 0.14092 0.1997 0.39924 0.0
C841 C 0.11466 0.20546 0.39898 0.0
C842 C 0.15222 0.18865 0.4322 0.0
C843 C 0.13739 0.18318 0.46536 0.0
C844 C 0.11122 0.18943 0.46534 0.0
C845 C 0.09989 0.20031 0.43227 0.0
C846 C 0.14901 0.17038 0.49975 0.0
C847 C 0.14852 0.18305 0.53581 0.0
C848 C 0.16094 0.14609 0.49694 0.0
C849 C 0.16116 0.13132 0.45997 0.0
C850 C 0.13811 0.1254 0.44069 0.0
C851 C 0.13849 0.11174 0.40563 0.0
C852 C 0.16179 0.1037 0.38973 0.0
C853 C 0.18476 0.10925 0.40891 0.0
C854 C 0.18449 0.12295 0.44394 0.0
C855 C 0.1763 0.1188 0.66777 0.0
C856 C 0.20168 0.10987 0.66831 0.0
C857 C 0.16639 0.13068 0.63452 0.0
C858 C 0.18179 0.13425 0.60136 0.0
C859 C 0.20708 0.125 0.60169 0.0
C860 C 0.21697 0.11296 0.63495 0.0
C861 C 0.17144 0.14767 0.56647 0.0
C862 C 0.17215 0.13513 0.53027 0.0
C863 C 0.15984 0.17217 0.56911 0.0
C864 C 0.15999 0.18719 0.60586 0.0
C865 C 0.18317 0.19236 0.62529 0.0
C866 C 0.18317 0.20628 0.66012 0.0
C867 C 0.16013 0.2153 0.67567 0.0
C868 C 0.13704 0.21049 0.65637 0.0
C869 C 0.13693 0.19654 0.62155 0.0
H870 H 0.16017 0.22607 0.70264 0.0
H871 H 0.16204 0.09312 0.36259 0.0
H872 H 0.33024 0.85662 0.03876 0.0
H873 H 0.31709 0.89443 1.00169 0.0
H874 H 0.37666 0.88005 0.91761 0.0
H875 H 0.38896 0.84137 0.95284 0.0
H876 H 0.36646 0.93714 0.95209 0.0
H877 H 0.33063 0.86393 0.88243 0.0
H878 H 0.30729 0.82286 0.8798 0.0
H879 H 0.24144 0.8584 0.93186 0.0
H880 H 0.26458 0.89959 0.93539 0.0
H881 H 0.31146 0.02969 0.82003 0.0
H882 H 0.33452 0.99275 0.8475 0.0
H883 H 0.2652 0.96828 0.90537 0.0
H884 H 0.2421 0.00393 0.87653 0.0
H885 H 0.28551 0.92911 0.87718 0.0
H886 H 0.31885 1.00021 0.95211 0.0
H887 H 0.34057 0.04174 0.96163 0.0
H888 H 0.40857 0.012 0.90757 0.0
H889 H 0.38713 0.97037 0.89734 0.0
C890 C 0.34075 0.86153 0.01255 0.0
C891 C 0.36115 0.8461 0.99953 0.0
C892 C 0.33326 0.88323 0.99156 0.0
C893 C 0.34612 0.8901 0.95724 0.0
C894 C 0.36683 0.87524 0.94446 0.0
C895 C 0.37405 0.85321 0.96508 0.0
C896 C 0.33646 0.91169 0.93342 0.0
C897 C 0.34901 0.93542 0.93508 0.0
C898 C 0.31345 0.90941 0.91207 0.0
C899 C 0.29943 0.88475 0.90953 0.0
C900 C 0.31127 0.86292 0.89366 0.0
C901 C 0.29806 0.83964 0.89193 0.0
C902 C 0.27292 0.838 0.90574 0.0
C903 C 0.26092 0.85968 0.92121 0.0
C904 C 0.27407 0.883 0.92306 0.0
C905 C 0.30125 0.01633 0.83859 0.0
C906 C 0.27496 0.01962 0.84594 0.0
C907 C 0.31445 0.99531 0.85447 0.0
C908 C 0.3017 0.9777 0.87886 0.0
C909 C 0.27551 0.98132 0.88642 0.0
C910 C 0.26229 0.00183 0.86994 0.0
C911 C 0.31504 0.95519 0.89644 0.0
C912 C 0.30317 0.93106 0.89363 0.0
C913 C 0.3384 0.95733 0.91736 0.0
C914 C 0.35129 0.98231 0.92354 0.0
C915 C 0.33837 0.0026 0.942 0.0
C916 C 0.35064 0.02614 0.94757 0.0
C917 C 0.3759 0.02953 0.93509 0.0
C918 C 0.38898 0.00936 0.91714 0.0
C919 C 0.37679 0.98579 0.91147 0.0
H920 H 0.38537 0.04777 0.93942 0.0
H921 H 0.26272 0.81996 0.90438 0.0
H922 H 0.46533 0.81226 0.09475 0.0
H923 H 0.50148 0.83622 0.12221 0.0
H924 H 0.54913 0.76892 0.11317 0.0
H925 H 0.51347 0.74505 0.08543 0.0
H926 H 0.52699 0.8284 0.18845 0.0
H927 H 0.61028 0.78505 0.09643 0.0
H928 H 0.61785 0.77016 0.02914 0.0
H929 H 0.55686 0.81831 0.98781 0.0
H930 H 0.54916 0.83376 0.05472 0.0
H931 H 0.64395 0.83466 0.29004 0.0
H932 H 0.60595 0.82249 0.25307 0.0
H933 H 0.62946 0.87198 0.15879 0.0
H934 H 0.66832 0.88286 0.19446 0.0
H935 H 0.61392 0.82954 0.1299 0.0
H936 H 0.57827 0.88758 0.22212 0.0
H937 H 0.56991 0.90603 0.28707 0.0
H938 H 0.53399 0.8359 0.3233 0.0
H939 H 0.54245 0.81689 0.25873 0.0
C940 C 0.4836 0.80266 0.09816 0.0
C941 C 0.48645 0.77671 0.08785 0.0
C942 C 0.50421 0.81636 0.114 0.0
C943 C 0.52809 0.80445 0.11949 0.0
C944 C 0.53105 0.77869 0.10864 0.0
C945 C 0.51053 0.765 0.09289 0.0
C946 C 0.54968 0.81833 0.1383 0.0
C947 C 0.54597 0.82883 0.17555 0.0
C948 C 0.57433 0.81941 0.12114 0.0
C949 C 0.57903 0.81041 0.08069 0.0
C950 C 0.59857 0.79256 0.07296 0.0
C951 C 0.60286 0.784 0.03489 0.0
C952 C 0.5878 0.79323 0.00424 0.0
C953 C 0.56846 0.8111 0.01159 0.0
C954 C 0.5641 0.81974 0.0496 0.0
C955 C 0.641 0.84309 0.26151 0.0
C956 C 0.65895 0.86037 0.24585 0.0
C957 C 0.61909 0.83628 0.24051 0.0
C958 C 0.61443 0.84679 0.20345 0.0
C959 C 0.63241 0.86388 0.18755 0.0
C960 C 0.6545 0.87048 0.2084 0.0
C961 C 0.59144 0.83892 0.18066 0.0
C962 C 0.5949 0.82946 0.14267 0.0
C963 C 0.56645 0.83933 0.19681 0.0
C964 C 0.56114 0.85076 0.23562 0.0
C965 C 0.56872 0.87603 0.24401 0.0
C966 C 0.56395 0.8866 0.28075 0.0
C967 C 0.55146 0.87214 0.30931 0.0
C968 C 0.54367 0.84708 0.30115 0.0
C969 C 0.54841 0.83642 0.26446 0.0
H970 H 0.54779 0.88035 0.33775 0.0
H971 H 0.59115 0.78657 0.97479 0.0
H972 H 0.69215 0.96333 0.35319 0.0
H973 H 0.66988 0.99929 0.38447 0.0
H974 H 0.7335 0.04895 0.35726 0.0
H975 H 0.75587 0.01336 0.32662 0.0
H976 H 0.72136 0.05099 0.4332 0.0
H977 H 0.67546 0.05389 0.31025 0.0
H978 H 0.64852 0.03571 0.25802 0.0
H979 H 0.58856 0.02082 0.34073 0.0
H980 H 0.61529 0.03861 0.39357 0.0
H981 H 0.68092 0.17385 0.48125 0.0
H982 H 0.69405 0.1359 0.44483 0.0
H983 H 0.62305 0.09847 0.47523 0.0
H984 H 0.60947 0.13698 0.51083 0.0
H985 H 0.63565 0.0868 0.40236 0.0
H986 H 0.67947 0.0851 0.52448 0.0
H987 H 0.70581 0.10208 0.5783 0.0
H988 H 0.7691 0.11249 0.49986 0.0
H989 H 0.74302 0.0959 0.44544 0.0
C990 C 0.70118 0.98202 0.3533 0.0
C991 C 0.7259 0.98539 0.33771 0.0
C992 C 0.68841 0.00256 0.37116 0.0
C993 C 0.70008 0.0268 0.37334 0.0
C994 C 0.72421 0.03039 0.35619 0.0
C995 C 0.73696 0.00997 0.33859 0.0
C996 C 0.68834 0.04814 0.39578 0.0
C997 C 0.70272 0.05899 0.42614 0.0
C998 C 0.66357 0.05787 0.38772 0.0
C999 C 0.64748 0.04733 0.35592 0.0
C1000 C 0.65661 0.04655 0.31735 0.0
C1001 C 0.64137 0.03636 0.28763 0.0
C1002 C 0.61688 0.02705 0.29607 0.0
C1003 C 0.60755 0.028 0.33424 0.0
C1004 C 0.62273 0.03815 0.36408 0.0
C1005 C 0.66805 0.15757 0.47999 0.0
C1006 C 0.6442 0.15832 0.49885 0.0
C1007 C 0.67559 0.13585 0.45927 0.0
C1008 C 0.6598 0.11406 0.45796 0.0
C1009 C 0.6356 0.11501 0.47589 0.0
C1010 C 0.62783 0.13701 0.49615 0.0
C1011 C 0.66911 0.0902 0.43887 0.0
C1012 C 0.65423 0.07874 0.40949 0.0
C1013 C 0.69338 0.07963 0.44805 0.0
C1014 C 0.70921 0.08941 0.48082 0.0
C1015 C 0.69895 0.09114 0.51866 0.0
C1016 C 0.71385 0.10069 0.54928 0.0
C1017 C 0.7391 0.1084 0.54249 0.0
C1018 C 0.74953 0.10652 0.50508 0.0
C1019 C 0.73471 0.09701 0.47434 0.0
H1020 H 0.75059 0.11579 0.56624 0.0
H1021 H 0.60511 0.01916 0.27302 0.0
H1022 H 0.53701 0.18909 0.6038 0.0
H1023 H 0.50038 0.16756 0.63457 0.0
H1024 H 0.45208 0.2319 0.60544 0.0
H1025 H 0.48831 0.25349 0.57522 0.0
H1026 H 0.44936 0.2203 0.68168 0.0
H1027 H 0.44617 0.17394 0.55944 0.0
H1028 H 0.46397 0.14647 0.50757 0.0
H1029 H 0.47735 0.08645 0.5909 0.0
H1030 H 0.45993 0.11371 0.64338 0.0
H1031 H 0.32549 0.182 0.72857 0.0
H1032 H 0.36387 0.19436 0.69256 0.0
H1033 H 0.40023 0.12322 0.72527 0.0
H1034 H 0.36138 0.11046 0.76065 0.0
H1035 H 0.41221 0.13503 0.65176 0.0
H1036 H 0.41413 0.1796 0.77324 0.0
H1037 H 0.39738 0.20659 0.82646 0.0
H1038 H 0.38837 0.26954 0.74686 0.0
H1039 H 0.40474 0.24281 0.69303 0.0
C1040 C 0.51847 0.19841 0.60335 0.0
C1041 C 0.51567 0.22312 0.5874 0.0
C1042 C 0.49755 0.18608 0.62093 0.0
C1043 C 0.4735 0.19819 0.62248 0.0
C1044 C 0.47048 0.22228 0.60488 0.0
C1045 C 0.49127 0.23458 0.58754 0.0
C1046 C 0.45181 0.187 0.64479 0.0
C1047 C 0.44107 0.20176 0.67482 0.0
C1048 C 0.44167 0.16237 0.63697 0.0
C1049 C 0.45201 0.14596 0.6054 0.0
C1050 C 0.4531 0.15496 0.56676 0.0
C1051 C 0.46308 0.13942 0.53724 0.0
C1052 C 0.47185 0.11476 0.54596 0.0
C1053 C 0.47059 0.10557 0.5842 0.0
C1054 C 0.46064 0.12105 0.61383 0.0
C1055 C 0.34163 0.16893 0.72793 0.0
C1056 C 0.34045 0.14527 0.74735 0.0
C1057 C 0.36359 0.17603 0.70743 0.0
C1058 C 0.38518 0.15995 0.7068 0.0
C1059 C 0.38384 0.13596 0.72536 0.0
C1060 C 0.36163 0.12866 0.74548 0.0
C1061 C 0.40925 0.16875 0.68776 0.0
C1062 C 0.42057 0.15351 0.6587 0.0
C1063 C 0.42017 0.19291 0.69665 0.0
C1064 C 0.4105 0.20912 0.72904 0.0
C1065 C 0.40843 0.19915 0.76704 0.0
C1066 C 0.39902 0.21441 0.79732 0.0
C1067 C 0.39177 0.23975 0.79003 0.0
C1068 C 0.39398 0.2499 0.75246 0.0
C1069 C 0.40335 0.23471 0.72206 0.0
H1070 H 0.38448 0.25153 0.81351 0.0
H1071 H 0.47958 0.10276 0.52306 0.0
H1072 H 0.82702 0.64572 0.78076 0.0
H1073 H 0.81361 0.60825 0.81839 0.0
H1074 H 0.87427 0.62187 0.90104 0.0
H1075 H 0.88695 0.66015 0.86506 0.0
H1076 H 0.86478 0.56608 0.87161 0.0
H1077 H 0.82498 0.63992 0.93266 0.0
H1078 H 0.80024 0.68019 0.93148 0.0
H1079 H 0.73625 0.64073 0.88059 0.0
H1080 H 0.76079 0.60029 0.88087 0.0
H1081 H 0.80978 0.47469 0.00476 0.0
H1082 H 0.83208 0.51193 0.97685 0.0
H1083 H 0.76315 0.53285 0.9147 0.0
H1084 H 0.74069 0.49703 0.94424 0.0
H1085 H 0.78156 0.5732 0.94064 0.0
H1086 H 0.81948 0.50134 0.87246 0.0
H1087 H 0.84293 0.46043 0.86713 0.0
H1088 H 0.90816 0.49413 0.92368 0.0
H1089 H 0.88497 0.53518 0.92973 0.0
C1090 C 0.83771 0.64068 0.80675 0.0
C1091 C 0.85852 0.65576 0.81917 0.0
C1092 C 0.83006 0.6192 0.8281 0.0
C1093 C 0.84312 0.61224 0.86224 0.0
C1094 C 0.86425 0.62675 0.87437 0.0
C1095 C 0.87168 0.64853 0.85335 0.0
C1096 C 0.83337 0.5909 0.88652 0.0
C1097 C 0.84678 0.56762 0.88728 0.0
C1098 C 0.8097 0.59292 0.9062 0.0
C1099 C 0.79481 0.61715 0.90647 0.0
C1100 C 0.80572 0.63988 0.92091 0.0
C1101 C 0.79171 0.66273 0.92046 0.0
C1102 C 0.76671 0.66303 0.90589 0.0
C1103 C 0.75563 0.64047 0.89183 0.0
C1104 C 0.76957 0.61758 0.89216 0.0
C1105 C 0.79949 0.48739 0.98524 0.0
C1106 C 0.77348 0.48307 0.97687 0.0
C1107 C 0.81226 0.50855 0.96906 0.0
C1108 C 0.79944 0.5252 0.9432 0.0
C1109 C 0.77352 0.52058 0.93475 0.0
C1110 C 0.76066 0.49999 0.95164 0.0
C1111 C 0.81244 0.54767 0.92493 0.0
C1112 C 0.79968 0.57142 0.92538 0.0
C1113 C 0.83644 0.54583 0.90567 0.0
C1114 C 0.85039 0.52121 0.90195 0.0
C1115 C 0.83876 0.49996 0.88399 0.0
C1116 C 0.85201 0.47676 0.8808 0.0
C1117 C 0.87699 0.47466 0.89517 0.0
C1118 C 0.88879 0.49577 0.91264 0.0
C1119 C 0.87562 0.51901 0.91593 0.0
H1120 H 0.88721 0.45668 0.89269 0.0
H1121 H 0.75589 0.68074 0.90556 0.0
H1122 H 0.03735 0.31174 0.21594 0.0
H1123 H 1.00084 0.33297 0.18451 0.0
H1124 H 0.95238 0.26904 0.21499 0.0
H1125 H 0.98861 0.24764 0.24575 0.0
H1126 H 0.94899 0.2798 0.13924 0.0
H1127 H 0.94688 0.32829 0.2594 0.0
H1128 H 0.96514 0.35625 0.31027 0.0
H1129 H 0.97957 0.41469 0.22478 0.0
H1130 H 0.96169 0.38692 0.17329 0.0
H1131 H 0.82585 0.32037 0.09148 0.0
H1132 H 0.86408 0.30774 0.12762 0.0
H1133 H 0.90228 0.37694 0.09056 0.0
H1134 H 0.86361 0.38997 0.05481 0.0
H1135 H 0.91378 0.36643 0.16533 0.0
H1136 H 0.91469 0.31948 0.04585 0.0
H1137 H 0.89721 0.29187 0.99391 0.0
H1138 H 0.88666 0.2308 0.0764 0.0
H1139 H 0.90375 0.25817 0.12896 0.0
C1140 C 0.0188 0.30243 0.21654 0.0
C1141 C 0.01597 0.27788 0.23307 0.0
C1142 C 0.99794 0.31461 0.19859 0.0
C1143 C 0.97386 0.30256 0.19726 0.0
C1144 C 0.9708 0.27863 0.21537 0.0
C1145 C 0.99157 0.26643 0.23305 0.0
C1146 C 0.9522 0.3137 0.1747 0.0
C1147 C 0.94112 0.29863 0.14531 0.0
C1148 C 0.94259 0.33869 0.18145 0.0
C1149 C 0.95319 0.35542 0.21243 0.0
C1150 C 0.95413 0.34702 0.25139 0.0
C1151 C 0.96438 0.36285 0.28035 0.0
C1152 C 0.97358 0.3872 0.27075 0.0
C1153 C 0.97247 0.39581 0.23218 0.0
C1154 C 0.96226 0.38004 0.2031 0.0
C1155 C 0.84237 0.33295 0.09109 0.0
C1156 C 0.84174 0.35616 0.07034 0.0
C1157 C 0.86424 0.3257 0.11172 0.0
C1158 C 0.88627 0.34115 0.11126 0.0
C1159 C 0.88553 0.36469 0.09132 0.0
C1160 C 0.86342 0.37215 0.07098 0.0
C1161 C 0.91011 0.33215 0.13075 0.0
C1162 C 0.92173 0.34764 0.15923 0.0
C1163 C 0.92043 0.30756 0.12304 0.0
C1164 C 0.91034 0.29095 0.0914 0.0
C1165 C 0.9085 0.30022 0.05296 0.0
C1166 C 0.89868 0.2846 0.0234 0.0
C1167 C 0.89079 0.25962 0.03186 0.0
C1168 C 0.89277 0.25017 0.06989 0.0
C1169 C 0.90255 0.26571 0.09957 0.0
H1170 H 0.88318 0.24756 0.00894 0.0
H1171 H 0.98151 0.39943 0.2932 0.0
H1172 H 0.25685 0.49161 0.47935 0.0
H1173 H 0.23392 0.45706 0.44704 0.0
H1174 H 0.16651 0.50451 0.43864 0.0
H1175 H 0.18948 0.53965 0.4712 0.0
H1176 H 0.15688 0.45081 0.45852 0.0
H1177 H 0.1997 0.50118 0.3617 0.0
H1178 H 0.23619 0.52446 0.33289 0.0
H1179 H 0.27967 0.45465 0.32831 0.0
H1180 H 0.24357 0.431 0.35769 0.0
H1181 H 0.10641 0.36431 0.31253 0.0
H1182 H 0.11913 0.40284 0.34837 0.0
H1183 H 0.19624 0.37369 0.35757 0.0
H1184 H 0.18363 0.33511 0.3224 0.0
H1185 H 0.19605 0.42252 0.33386 0.0
H1186 H 0.15524 0.37291 0.43524 0.0
H1187 H 0.1196 0.34917 0.46562 0.0
H1188 H 0.0728 0.41685 0.4623 0.0
H1189 H 0.10809 0.44092 0.43135 0.0
C1190 C 0.23706 0.49478 0.47111 0.0
C1191 C 0.22513 0.51861 0.47747 0.0
C1192 C 0.22398 0.47493 0.4526 0.0
C1193 C 0.19867 0.47836 0.43995 0.0
C1194 C 0.1861 0.50155 0.44809 0.0
C1195 C 0.19927 0.5216 0.46662 0.0
C1196 C 0.18634 0.45814 0.41602 0.0
C1197 C 0.16507 0.4449 0.43087 0.0
C1198 C 0.19729 0.45026 0.38023 0.0
C1199 C 0.21898 0.46436 0.36217 0.0
C1200 C 0.21711 0.49082 0.35482 0.0
C1201 C 0.23771 0.50408 0.33834 0.0
C1202 C 0.26025 0.49105 0.32884 0.0
C1203 C 0.26221 0.46472 0.33571 0.0
C1204 C 0.24166 0.45137 0.35223 0.0
C1205 C 0.1259 0.36579 0.32294 0.0
C1206 C 0.14388 0.34634 0.31523 0.0
C1207 C 0.1332 0.38796 0.3432 0.0
C1208 C 0.1586 0.39107 0.35597 0.0
C1209 C 0.17654 0.37174 0.34801 0.0
C1210 C 0.16929 0.34968 0.32786 0.0
C1211 C 0.16696 0.41462 0.37676 0.0
C1212 C 0.18754 0.42858 0.36122 0.0
C1213 C 0.15537 0.42304 0.41187 0.0
C1214 C 0.13419 0.40862 0.43054 0.0
C1215 C 0.13727 0.38267 0.44066 0.0
C1216 C 0.11715 0.36917 0.45805 0.0
C1217 C 0.09392 0.38147 0.46577 0.0
C1218 C 0.09079 0.40733 0.45622 0.0
C1219 C 0.11085 0.42091 0.43877 0.0
H1220 H 0.07836 0.37099 0.47925 0.0
H1221 H 0.27619 0.50135 0.31609 0.0
H1222 H 0.16339 0.61755 0.61849 0.0
H1223 H 0.12487 0.63051 0.6533 0.0
H1224 H 0.11186 0.69043 0.56914 0.0
H1225 H 0.14943 0.67663 0.5324 0.0
H1226 H 0.11337 0.70321 0.65748 0.0
H1227 H 0.07506 0.64773 0.55821 0.0
H1228 H 0.0704 0.60641 0.52403 0.0
H1229 H 0.0517 0.56937 0.63224 0.0
H1230 H 0.05666 0.61044 0.66714 0.0
H1231 H 0.99573 0.76019 0.68871 0.0
H1232 H 0.03279 0.73872 0.66102 0.0
H1233 H 0.01329 0.66955 0.7235 0.0
H1234 H 0.97493 0.69084 0.74986 0.0
H1235 H 0.03021 0.65706 0.65504 0.0
H1236 H 0.06276 0.71095 0.75442 0.0
H1237 H 0.06778 0.7508 0.79229 0.0
H1238 H 0.09942 0.78855 0.69197 0.0
H1239 H 0.09423 0.74906 0.65327 0.0
C1240 C 0.15201 0.63278 0.60621 0.0
C1241 C 0.15936 0.64543 0.57163 0.0
C1242 C 0.1301 0.64045 0.62671 0.0
C1243 C 0.11552 0.66129 0.61361 0.0
C1244 C 0.12288 0.67421 0.5796 0.0
C1245 C 0.14441 0.66626 0.55869 0.0
C1246 C 0.093 0.67033 0.6359 0.0
C1247 C 0.09511 0.69327 0.65686 0.0
C1248 C 0.06962 0.65667 0.63636 0.0
C1249 C 0.06657 0.63206 0.61534 0.0
C1250 C 0.07025 0.63072 0.57477 0.0
C1251 C 0.06748 0.60736 0.55525 0.0
C1252 C 0.06085 0.58526 0.57597 0.0
C1253 C 0.0569 0.58649 0.61624 0.0
C1254 C 0.05967 0.6098 0.63589 0.0
C1255 C 0.99928 0.74039 0.69663 0.0
C1256 C 0.98262 0.72728 0.72187 0.0
C1257 C 0.02062 0.72815 0.68093 0.0
C1258 C 0.0264 0.70273 0.6911 0.0
C1259 C 0.0094 0.68926 0.71552 0.0
C1260 C 0.98754 0.70141 0.73061 0.0
C1261 C 0.05019 0.69058 0.67581 0.0
C1262 C 0.04847 0.66696 0.6563 0.0
C1263 C 0.07418 0.70336 0.67745 0.0
C1264 C 0.07796 0.72703 0.70086 0.0
C1265 C 0.0707 0.72777 0.74037 0.0
C1266 C 0.07356 0.75031 0.76199 0.0
C1267 C 0.08387 0.77221 0.74453 0.0
C1268 C 0.09144 0.77158 0.70545 0.0
C1269 C 0.08858 0.7491 0.68367 0.0
H1270 H 0.086 0.78966 0.76128 0.0
H1271 H 0.05871 0.5672 0.56081 0.0
loop_
_geom_bond_atom_site_label_1
_geom_bond_atom_site_label_2
_geom_bond_distance
_geom_bond_site_symmetry_2
_ccdc_geom_bond_type
Co0 O3 1.970 . S
Co0 N17 1.989 . S
Co0 O25 1.967 . S
Co0 O32 1.920 . S
Co1 O4 1.966 . S
Co1 N10 2.022 . S
Co1 N18 1.993 . S
Co1 O26 1.941 . S
C2 O3 1.258 . S
C2 O4 1.263 . S
O3 Co0 1.970 . S
O3 C2 1.258 . S
O4 Co1 1.966 . S
O4 C2 1.263 . S
C5 O6 1.235 . S
C5 O32 1.289 . S
O6 C5 1.235 . S
C7 C9 1.400 . S
C7 N10 1.351 . S
C7 C12 1.501 . S
C8 C9 1.387 . S
C8 N11 1.341 . S
C9 C7 1.400 . S
C9 C8 1.387 . S
N10 Co1 2.022 . S
N10 C7 1.351 . S
N10 N11 1.365 . S
N11 C8 1.341 . S
N11 N10 1.365 . S
N11 H31 0.862 . S
C12 C7 1.501 . S
C12 H13 0.961 . S
C12 H14 0.961 . S
C12 H15 0.960 . S
H13 C12 0.961 . S
H14 C12 0.961 . S
H15 C12 0.960 . S
C16 N17 1.342 1_556 S
C16 C20 1.401 . S
C16 C21 1.499 . S
N17 Co0 1.989 . S
N17 C16 1.342 1_554 S
N17 N18 1.388 . S
N18 Co1 1.993 . S
N18 N17 1.388 . S
N18 C19 1.346 1_554 S
C19 N18 1.346 1_556 S
C19 C20 1.396 . S
C19 C29 1.510 . S
C20 C16 1.401 . S
C20 C19 1.396 . S
C21 C16 1.499 . S
C21 H22 0.936 1_556 S
C21 H23 0.960 . S
C21 H24 0.961 . S
H22 C21 0.936 1_554 S
H23 C21 0.960 . S
H24 C21 0.961 . S
O25 Co0 1.967 . S
O25 C33 1.258 . S
O26 Co1 1.941 . S
O26 C33 1.266 . S
H27 C29 0.959 . S
H28 C29 0.961 . S
C29 C19 1.510 . S
C29 H27 0.959 . S
C29 H28 0.961 . S
C29 H30 0.960 . S
H30 C29 0.960 . S
H31 N11 0.862 . S
O32 Co0 1.920 . S
O32 C5 1.289 . S
C33 O25 1.258 . S
C33 O26 1.266 . S
Co34 O37 1.970 . S
Co34 N51 1.989 . S
Co34 O59 1.967 . S
Co34 O66 1.920 . S
Co35 O38 1.966 . S
Co35 N44 2.022 . S
Co35 N52 1.993 . S
Co35 O60 1.941 . S
C36 O37 1.258 . S
C36 O38 1.263 . S
O37 Co34 1.970 . S
O37 C36 1.258 . S
O38 Co35 1.966 . S
O38 C36 1.263 . S
C39 O40 1.235 . S
C39 O66 1.289 . S
O40 C39 1.235 . S
C41 C43 1.400 . S
C41 N44 1.351 . S
C41 C46 1.501 . S
C42 C43 1.387 . S
C42 N45 1.341 . S
C43 C41 1.400 . S
C43 C42 1.387 . S
N44 Co35 2.022 . S
N44 C41 1.351 . S
N44 N45 1.365 . S
N45 C42 1.341 . S
N45 N44 1.365 . S
N45 H65 0.862 . S
C46 C41 1.501 . S
C46 H47 0.961 . S
C46 H48 0.961 . S
C46 H49 0.960 . S
H47 C46 0.961 . S
H48 C46 0.961 . S
H49 C46 0.960 . S
C50 N51 1.342 . S
C50 C54 1.401 . S
C50 C55 1.499 . S
N51 Co34 1.989 . S
N51 C50 1.342 . S
N51 N52 1.388 . S
N52 Co35 1.993 . S
N52 N51 1.388 . S
N52 C53 1.346 . S
C53 N52 1.346 . S
C53 C54 1.396 . S
C53 C63 1.510 . S
C54 C50 1.401 . S
C54 C53 1.396 . S
C55 C50 1.499 . S
C55 H56 0.959 . S
C55 H57 0.960 . S
C55 H58 0.961 . S
H56 C55 0.959 . S
H57 C55 0.960 . S
H58 C55 0.961 . S
O59 Co34 1.967 . S
O59 C67 1.258 . S
O60 Co35 1.941 . S
O60 C67 1.266 . S
H61 C63 0.959 . S
H62 C63 0.961 . S
C63 C53 1.510 . S
C63 H61 0.959 . S
C63 H62 0.961 . S
C63 H64 0.960 . S
H64 C63 0.960 . S
H65 N45 0.862 . S
O66 Co34 1.920 . S
O66 C39 1.289 . S
C67 O59 1.258 . S
C67 O60 1.266 . S
Co68 O71 1.970 . S
Co68 N85 1.989 . S
Co68 O93 1.967 . S
Co68 O100 1.920 . S
Co69 O72 1.966 . S
Co69 N78 2.022 . S
Co69 N86 1.993 . S
Co69 O94 1.941 . S
C70 O71 1.258 . S
C70 O72 1.263 . S
O71 Co68 1.970 . S
O71 C70 1.258 . S
O72 Co69 1.966 . S
O72 C70 1.263 . S
C73 O74 1.235 . S
C73 O100 1.289 . S
O74 C73 1.235 . S
C75 C77 1.400 . S
C75 N78 1.351 . S
C75 C80 1.501 . S
C76 C77 1.387 . S
C76 N79 1.341 . S
C77 C75 1.400 . S
C77 C76 1.387 . S
N78 Co69 2.022 . S
N78 C75 1.351 . S
N78 N79 1.365 . S
N79 C76 1.341 . S
N79 N78 1.365 . S
N79 H99 0.862 . S
C80 C75 1.501 . S
C80 H81 0.961 . S
C80 H82 0.961 . S
C80 H83 0.960 . S
H81 C80 0.961 . S
H82 C80 0.961 . S
H83 C80 0.960 . S
C84 N85 1.342 . S
C84 C88 1.401 . S
C84 C89 1.499 . S
N85 Co68 1.989 . S
N85 C84 1.342 . S
N85 N86 1.388 . S
N86 Co69 1.993 . S
N86 N85 1.388 . S
N86 C87 1.346 . S
C87 N86 1.346 . S
C87 C88 1.396 . S
C87 C97 1.510 . S
C88 C84 1.401 . S
C88 C87 1.396 . S
C89 C84 1.499 . S
C89 H90 0.959 . S
C89 H91 0.960 . S
C89 H92 0.961 . S
H90 C89 0.959 . S
H91 C89 0.960 . S
H92 C89 0.961 . S
O93 Co68 1.967 . S
O93 C101 1.258 . S
O94 Co69 1.941 . S
O94 C101 1.266 . S
H95 C97 0.959 . S
H96 C97 0.961 . S
C97 C87 1.510 . S
C97 H95 0.959 . S
C97 H96 0.961 . S
C97 H98 0.960 . S
H98 C97 0.960 . S
H99 N79 0.862 . S
O100 Co68 1.920 . S
O100 C73 1.289 . S
C101 O93 1.258 . S
C101 O94 1.266 . S
Co102 O105 1.970 . S
Co102 N119 1.989 . S
Co102 O127 1.967 . S
Co102 O134 1.920 . S
Co103 O106 1.966 . S
Co103 N112 2.022 . S
Co103 N120 1.993 . S
Co103 O128 1.941 . S
C104 O105 1.258 . S
C104 O106 1.263 . S
O105 Co102 1.970 . S
O105 C104 1.258 . S
O106 Co103 1.966 . S
O106 C104 1.263 . S
C107 O108 1.235 . S
C107 O134 1.289 . S
O108 C107 1.235 . S
C109 C111 1.400 . S
C109 N112 1.351 . S
C109 C114 1.501 . S
C110 C111 1.387 . S
C110 N113 1.341 . S
C111 C109 1.400 . S
C111 C110 1.387 . S
N112 Co103 2.022 . S
N112 C109 1.351 . S
N112 N113 1.365 . S
N113 C110 1.341 . S
N113 N112 1.365 . S
N113 H133 0.862 . S
C114 C109 1.501 . S
C114 H115 0.961 . S
C114 H116 0.961 . S
C114 H117 0.960 . S
H115 C114 0.961 . S
H116 C114 0.961 . S
H117 C114 0.960 . S
C118 N119 1.342 . S
C118 C122 1.401 . S
C118 C123 1.499 . S
N119 Co102 1.989 . S
N119 C118 1.342 . S
N119 N120 1.388 . S
N120 Co103 1.993 . S
N120 N119 1.388 . S
N120 C121 1.346 . S
C121 N120 1.346 . S
C121 C122 1.396 . S
C121 C131 1.510 . S
C122 C118 1.401 . S
C122 C121 1.396 . S
C123 C118 1.499 . S
C123 H124 0.959 . S
C123 H125 0.960 . S
C123 H126 0.961 . S
H124 C123 0.959 . S
H125 C123 0.960 . S
H126 C123 0.961 . S
O127 Co102 1.967 . S
O127 C135 1.258 . S
O128 Co103 1.941 . S
O128 C135 1.266 . S
H129 C131 0.959 . S
H130 C131 0.961 . S
C131 C121 1.510 . S
C131 H129 0.959 . S
C131 H130 0.961 . S
C131 H132 0.960 . S
H132 C131 0.960 . S
H133 N113 0.862 . S
O134 Co102 1.920 . S
O134 C107 1.289 . S
C135 O127 1.258 . S
C135 O128 1.266 . S
Co136 O139 1.970 . S
Co136 N153 1.989 . S
Co136 O161 1.967 . S
Co136 O168 1.920 . S
Co137 O140 1.966 . S
Co137 N146 2.022 . S
Co137 N154 1.993 . S
Co137 O162 1.941 . S
C138 O139 1.258 . S
C138 O140 1.263 . S
O139 Co136 1.970 . S
O139 C138 1.258 . S
O140 Co137 1.966 . S
O140 C138 1.263 . S
C141 O142 1.235 . S
C141 O168 1.289 . S
O142 C141 1.235 . S
C143 C145 1.400 . S
C143 N146 1.351 . S
C143 C148 1.501 . S
C144 C145 1.387 . S
C144 N147 1.341 . S
C145 C143 1.400 . S
C145 C144 1.387 . S
N146 Co137 2.022 . S
N146 C143 1.351 . S
N146 N147 1.365 . S
N147 C144 1.341 . S
N147 N146 1.365 . S
N147 H167 0.862 . S
C148 C143 1.501 . S
C148 H149 0.961 . S
C148 H150 0.961 . S
C148 H151 0.960 . S
H149 C148 0.961 . S
H150 C148 0.961 . S
H151 C148 0.960 . S
C152 N153 1.342 . S
C152 C156 1.401 . S
C152 C157 1.499 . S
N153 Co136 1.989 . S
N153 C152 1.342 . S
N153 N154 1.388 . S
N154 Co137 1.993 . S
N154 N153 1.388 . S
N154 C155 1.346 . S
C155 N154 1.346 . S
C155 C156 1.396 . S
C155 C165 1.510 . S
C156 C152 1.401 . S
C156 C155 1.396 . S
C157 C152 1.499 . S
C157 H158 0.959 . S
C157 H159 0.960 . S
C157 H160 0.961 . S
H158 C157 0.959 . S
H159 C157 0.960 . S
H160 C157 0.961 . S
O161 Co136 1.967 . S
O161 C169 1.258 . S
O162 Co137 1.941 . S
O162 C169 1.266 . S
H163 C165 0.959 . S
H164 C165 0.961 . S
C165 C155 1.510 . S
C165 H163 0.959 . S
C165 H164 0.961 . S
C165 H166 0.960 . S
H166 C165 0.960 . S
H167 N147 0.862 . S
O168 Co136 1.920 . S
O168 C141 1.289 . S
C169 O161 1.258 . S
C169 O162 1.266 . S
Co170 O173 1.967 1_554 S
Co170 N187 1.989 . S
Co170 O195 1.967 1_554 S
Co170 O202 1.920 . S
Co171 O174 1.966 1_554 S
Co171 N180 2.022 . S
Co171 N188 1.993 . S
Co171 O196 1.941 1_554 S
C172 O173 1.263 . S
C172 O174 1.263 . S
O173 Co170 1.967 1_556 S
O173 C172 1.263 . S
O174 Co171 1.966 1_556 S
O174 C172 1.263 . S
C175 O176 1.235 . S
C175 O202 1.289 . S
O176 C175 1.235 . S
C177 C179 1.400 . S
C177 N180 1.351 . S
C177 C182 1.501 . S
C178 C179 1.387 . S
C178 N181 1.341 . S
C179 C177 1.400 . S
C179 C178 1.387 . S
N180 Co171 2.022 . S
N180 C177 1.351 . S
N180 N181 1.365 . S
N181 C178 1.341 . S
N181 N180 1.365 . S
N181 H201 0.862 . S
C182 C177 1.501 . S
C182 H183 0.961 . S
C182 H184 0.961 . S
C182 H185 0.960 . S
H183 C182 0.961 . S
H184 C182 0.961 . S
H185 C182 0.960 . S
C186 N187 1.342 . S
C186 C190 1.401 . S
C186 C191 1.499 . S
N187 Co170 1.989 . S
N187 C186 1.342 . S
N187 N188 1.388 . S
N188 Co171 1.993 . S
N188 N187 1.388 . S
N188 C189 1.346 . S
C189 N188 1.346 . S
C189 C190 1.396 . S
C189 C199 1.510 . S
C190 C186 1.401 . S
C190 C189 1.396 . S
C191 C186 1.499 . S
C191 H192 0.959 . S
C191 H193 0.960 . S
C191 H194 0.961 . S
H192 C191 0.959 . S
H193 C191 0.960 . S
H194 C191 0.961 . S
O195 Co170 1.967 1_556 S
O195 C203 1.258 . S
O196 Co171 1.941 1_556 S
O196 C203 1.266 . S
H197 C199 0.959 . S
H198 C199 0.961 . S
C199 C189 1.510 . S
C199 H197 0.959 . S
C199 H198 0.961 . S
C199 H200 0.960 . S
H200 C199 0.960 . S
H201 N181 0.862 . S
O202 Co170 1.920 . S
O202 C175 1.289 . S
C203 O195 1.258 . S
C203 O196 1.266 . S
Co204 O207 1.970 . S
Co204 N221 1.989 . S
Co204 O229 1.967 . S
Co204 O236 1.920 . S
Co205 O208 1.966 . S
Co205 N214 2.022 . S
Co205 N222 1.993 . S
Co205 O230 1.941 . S
C206 O207 1.258 . S
C206 O208 1.263 . S
O207 Co204 1.970 . S
O207 C206 1.258 . S
O208 Co205 1.966 . S
O208 C206 1.263 . S
C209 O210 1.235 . S
C209 O236 1.289 . S
O210 C209 1.235 . S
C211 C213 1.400 . S
C211 N214 1.351 . S
C211 C216 1.501 . S
C212 C213 1.387 . S
C212 N215 1.341 . S
C213 C211 1.400 . S
C213 C212 1.387 . S
N214 Co205 2.022 . S
N214 C211 1.351 . S
N214 N215 1.365 . S
N215 C212 1.341 . S
N215 N214 1.365 . S
N215 H235 0.862 . S
C216 C211 1.501 . S
C216 H217 0.961 . S
C216 H218 0.961 . S
C216 H219 0.960 . S
H217 C216 0.961 . S
H218 C216 0.961 . S
H219 C216 0.960 . S
C220 N221 1.342 . S
C220 C224 1.401 . S
C220 C225 1.499 . S
N221 Co204 1.989 . S
N221 C220 1.342 . S
N221 N222 1.388 . S
N222 Co205 1.993 . S
N222 N221 1.388 . S
N222 C223 1.346 . S
C223 N222 1.346 . S
C223 C224 1.396 . S
C223 C233 1.510 . S
C224 C220 1.401 . S
C224 C223 1.396 . S
C225 C220 1.499 . S
C225 H226 0.959 . S
C225 H227 0.960 . S
C225 H228 0.961 . S
H226 C225 0.959 . S
H227 C225 0.960 . S
H228 C225 0.961 . S
O229 Co204 1.967 . S
O229 C237 1.258 . S
O230 Co205 1.941 . S
O230 C237 1.266 . S
H231 C233 0.959 . S
H232 C233 0.961 . S
C233 C223 1.510 . S
C233 H231 0.959 . S
C233 H232 0.961 . S
C233 H234 0.960 . S
H234 C233 0.960 . S
H235 N215 0.862 . S
O236 Co204 1.920 . S
O236 C209 1.289 . S
C237 O229 1.258 . S
C237 O230 1.266 . S
Co238 O241 1.970 . S
Co238 N255 1.989 . S
Co238 O263 1.967 . S
Co238 O270 1.920 . S
Co239 O242 1.966 . S
Co239 N248 2.022 . S
Co239 N256 1.993 . S
Co239 O264 1.941 . S
C240 O241 1.258 . S
C240 O242 1.263 . S
O241 Co238 1.970 . S
O241 C240 1.258 . S
O242 Co239 1.966 . S
O242 C240 1.263 . S
C243 O244 1.235 . S
C243 O270 1.289 . S
O244 C243 1.235 . S
C245 C247 1.400 . S
C245 N248 1.351 . S
C245 C250 1.501 . S
C246 C247 1.387 . S
C246 N249 1.341 . S
C247 C245 1.400 . S
C247 C246 1.387 . S
N248 Co239 2.022 . S
N248 C245 1.351 . S
N248 N249 1.365 . S
N249 C246 1.341 . S
N249 N248 1.365 . S
N249 H269 0.862 . S
C250 C245 1.501 . S
C250 H251 0.961 . S
C250 H252 0.961 . S
C250 H253 0.960 . S
H251 C250 0.961 . S
H252 C250 0.961 . S
H253 C250 0.960 . S
C254 N255 1.342 . S
C254 C258 1.401 . S
C254 C259 1.499 . S
N255 Co238 1.989 . S
N255 C254 1.342 . S
N255 N256 1.388 . S
N256 Co239 1.993 . S
N256 N255 1.388 . S
N256 C257 1.346 . S
C257 N256 1.346 . S
C257 C258 1.396 . S
C257 C267 1.510 . S
C258 C254 1.401 . S
C258 C257 1.396 . S
C259 C254 1.499 . S
C259 H260 0.959 . S
C259 H261 0.960 . S
C259 H262 0.961 . S
H260 C259 0.959 . S
H261 C259 0.960 . S
H262 C259 0.961 . S
O263 Co238 1.967 . S
O263 C271 1.258 . S
O264 Co239 1.941 . S
O264 C271 1.266 . S
H265 C267 0.959 . S
H266 C267 0.961 . S
C267 C257 1.510 . S
C267 H265 0.959 . S
C267 H266 0.961 . S
C267 H268 0.960 . S
H268 C267 0.960 . S
H269 N249 0.862 . S
O270 Co238 1.920 . S
O270 C243 1.289 . S
C271 O263 1.258 . S
C271 O264 1.266 . S
H272 C290 0.951 . S
H273 C292 0.955 . S
H274 C294 0.950 . S
H275 C295 0.950 . S
H276 C297 0.950 . S
H277 C300 0.950 . S
H278 C301 0.950 . S
H279 C303 0.950 . S
H280 C304 0.950 . S
H281 C305 0.951 . S
H282 C307 0.951 . S
H283 C309 0.950 1_556 S
H284 C310 0.950 . S
H285 C312 0.950 1_556 S
H286 C315 0.950 . S
H287 C316 0.950 . S
H288 C318 0.950 . S
H289 C319 0.950 . S
C290 H272 0.951 . S
C290 C291 1.366 1_556 S
C290 C292 1.388 . S
C291 C290 1.366 1_554 S
C291 C295 1.385 . S
C292 H273 0.955 . S
C292 C290 1.388 . S
C292 C293 1.361 1_556 S
C293 C292 1.361 1_554 S
C293 C294 1.414 . S
C293 C296 1.499 . S
C294 H274 0.950 . S
C294 C293 1.414 . S
C294 C295 1.374 . S
C295 H275 0.950 . S
C295 C291 1.385 . S
C295 C294 1.374 . S
C296 C293 1.499 . S
C296 C297 1.373 . S
C296 C298 1.390 . S
C297 H276 0.950 . S
C297 C296 1.373 . S
C297 C313 1.377 . S
C298 C296 1.390 . S
C298 C299 1.524 1_554 S
C298 C312 1.377 . S
C299 C298 1.524 1_556 S
C299 C300 1.397 . S
C299 C304 1.363 . S
C300 H277 0.950 . S
C300 C299 1.397 . S
C300 C301 1.334 . S
C301 H278 0.950 . S
C301 C300 1.334 . S
C301 C302 1.287 . S
C302 C301 1.287 . S
C302 C303 1.524 . S
C302 H321 0.913 . S
C303 H279 0.950 . S
C303 C302 1.524 . S
C303 C304 1.415 . S
C304 H280 0.950 . S
C304 C299 1.363 . S
C304 C303 1.415 . S
C305 H281 0.951 . S
C305 C306 1.366 . S
C305 C307 1.388 . S
C306 C305 1.366 . S
C306 C310 1.385 . S
C307 H282 0.951 . S
C307 C305 1.388 . S
C307 C308 1.366 . S
C308 C307 1.366 . S
C308 C309 1.414 . S
C308 C311 1.499 . S
C309 H283 0.950 1_554 S
C309 C308 1.414 . S
C309 C310 1.374 . S
C310 H284 0.950 . S
C310 C306 1.385 . S
C310 C309 1.374 . S
C311 C308 1.499 . S
C311 C312 1.373 . S
C311 C313 1.389 . S
C312 H285 0.950 1_554 S
C312 C298 1.377 . S
C312 C311 1.373 . S
C313 C297 1.377 . S
C313 C311 1.389 . S
C313 C314 1.524 . S
C314 C313 1.524 . S
C314 C315 1.397 . S
C314 C319 1.363 . S
C315 H286 0.950 . S
C315 C314 1.397 . S
C315 C316 1.334 . S
C316 H287 0.950 . S
C316 C315 1.334 . S
C316 C317 1.287 . S
C317 C316 1.287 . S
C317 C318 1.524 . S
C317 H320 0.999 . S
C318 H288 0.950 . S
C318 C317 1.524 . S
C318 C319 1.415 . S
C319 H289 0.950 . S
C319 C314 1.363 . S
C319 C318 1.415 . S
H320 C317 0.999 . S
H321 C302 0.913 . S
H322 C340 0.951 . S
H323 C342 0.951 . S
H324 C344 0.950 . S
H325 C345 0.950 . S
H326 C347 0.950 . S
H327 C350 0.950 . S
H328 C351 0.950 . S
H329 C353 0.950 . S
H330 C354 0.950 . S
H331 C355 0.951 . S
H332 C357 0.951 . S
H333 C359 0.960 . S
H334 C360 0.950 . S
H335 C362 0.950 . S
H336 C365 0.950 . S
H337 C366 0.950 . S
H338 C368 0.950 . S
H339 C369 0.950 . S
C340 H322 0.951 . S
C340 C341 1.366 . S
C340 C342 1.388 1_455 S
C341 C340 1.366 . S
C341 C345 1.385 1_455 S
C342 H323 0.951 . S
C342 C340 1.388 1_655 S
C342 C343 1.366 . S
C343 C342 1.366 . S
C343 C344 1.414 . S
C343 C346 1.499 . S
C344 H324 0.950 . S
C344 C343 1.414 . S
C344 C345 1.374 . S
C345 H325 0.950 . S
C345 C341 1.385 1_655 S
C345 C344 1.374 . S
C346 C343 1.499 . S
C346 C347 1.373 . S
C346 C348 1.389 . S
C347 H326 0.950 . S
C347 C346 1.373 . S
C347 C363 1.377 . S
C348 C346 1.389 . S
C348 C349 1.524 . S
C348 C362 1.377 . S
C349 C348 1.524 . S
C349 C350 1.397 . S
C349 C354 1.363 . S
C350 H327 0.950 . S
C350 C349 1.397 . S
C350 C351 1.334 . S
C351 H328 0.950 . S
C351 C350 1.334 . S
C351 C352 1.287 . S
C352 C351 1.287 . S
C352 C353 1.524 . S
C352 H371 0.913 . S
C353 H329 0.950 . S
C353 C352 1.524 . S
C353 C354 1.415 . S
C354 H330 0.950 . S
C354 C349 1.363 . S
C354 C353 1.415 . S
C355 H331 0.951 . S
C355 C356 1.366 1_545 S
C355 C357 1.388 . S
C356 C355 1.366 1_565 S
C356 C360 1.385 . S
C357 H332 0.951 . S
C357 C355 1.388 . S
C357 C358 1.366 . S
C358 C357 1.366 . S
C358 C359 1.414 . S
C358 C361 1.499 . S
C359 H333 0.960 . S
C359 C358 1.414 . S
C359 C360 1.374 1_545 S
C360 H334 0.950 . S
C360 C356 1.385 . S
C360 C359 1.374 1_565 S
C361 C358 1.499 . S
C361 C362 1.373 . S
C361 C363 1.389 . S
C362 H335 0.950 . S
C362 C348 1.377 . S
C362 C361 1.373 . S
C363 C347 1.377 . S
C363 C361 1.389 . S
C363 C364 1.524 . S
C364 C363 1.524 . S
C364 C365 1.397 . S
C364 C369 1.363 . S
C365 H336 0.950 . S
C365 C364 1.397 . S
C365 C366 1.334 . S
C366 H337 0.950 . S
C366 C365 1.334 . S
C366 C367 1.287 . S
C367 C366 1.287 . S
C367 C368 1.524 . S
C367 H370 0.999 . S
C368 H338 0.950 . S
C368 C367 1.524 . S
C368 C369 1.415 . S
C369 H339 0.950 . S
C369 C364 1.363 . S
C369 C368 1.415 . S
H370 C367 0.999 . S
H371 C352 0.913 . S
H372 C390 0.951 . S
H373 C392 0.951 . S
H374 C394 0.950 . S
H375 C395 0.950 . S
H376 C397 0.950 . S
H377 C400 0.950 . S
H378 C401 0.950 . S
H379 C403 0.950 . S
H380 C404 0.950 . S
H381 C405 0.951 . S
H382 C407 0.951 . S
H383 C409 0.950 . S
H384 C410 0.950 . S
H385 C412 0.950 . S
H386 C415 0.950 . S
H387 C416 0.950 . S
H388 C418 0.950 . S
H389 C419 0.950 . S
C390 H372 0.951 . S
C390 C391 1.366 . S
C390 C392 1.388 . S
C391 C390 1.366 . S
C391 C395 1.385 . S
C392 H373 0.951 . S
C392 C390 1.388 . S
C392 C393 1.366 . S
C393 C392 1.366 . S
C393 C394 1.414 . S
C393 C396 1.499 . S
C394 H374 0.950 . S
C394 C393 1.414 . S
C394 C395 1.374 . S
C395 H375 0.950 . S
C395 C391 1.385 . S
C395 C394 1.374 . S
C396 C393 1.499 . S
C396 C397 1.373 . S
C396 C398 1.389 . S
C397 H376 0.950 . S
C397 C396 1.373 . S
C397 C413 1.377 . S
C398 C396 1.389 . S
C398 C399 1.524 . S
C398 C412 1.377 . S
C399 C398 1.524 . S
C399 C400 1.397 . S
C399 C404 1.363 . S
C400 H377 0.950 . S
C400 C399 1.397 . S
C400 C401 1.334 . S
C401 H378 0.950 . S
C401 C400 1.334 . S
C401 C402 1.287 . S
C402 C401 1.287 . S
C402 C403 1.524 . S
C402 H421 0.913 . S
C403 H379 0.950 . S
C403 C402 1.524 . S
C403 C404 1.415 . S
C404 H380 0.950 . S
C404 C399 1.363 . S
C404 C403 1.415 . S
C405 H381 0.951 . S
C405 C406 1.366 . S
C405 C407 1.388 . S
C406 C405 1.366 . S
C406 C410 1.385 . S
C407 H382 0.951 . S
C407 C405 1.388 . S
C407 C408 1.366 . S
C408 C407 1.366 . S
C408 C409 1.414 . S
C408 C411 1.499 . S
C409 H383 0.950 . S
C409 C408 1.414 . S
C409 C410 1.374 . S
C410 H384 0.950 . S
C410 C406 1.385 . S
C410 C409 1.374 . S
C411 C408 1.499 . S
C411 C412 1.373 . S
C411 C413 1.389 . S
C412 H385 0.950 . S
C412 C398 1.377 . S
C412 C411 1.373 . S
C413 C397 1.377 . S
C413 C411 1.389 . S
C413 C414 1.524 . S
C414 C413 1.524 . S
C414 C415 1.397 . S
C414 C419 1.363 . S
C415 H386 0.950 . S
C415 C414 1.397 . S
C415 C416 1.334 . S
C416 H387 0.950 . S
C416 C415 1.334 . S
C416 C417 1.287 . S
C417 C416 1.287 . S
C417 C418 1.524 . S
C417 H420 0.999 . S
C418 H388 0.950 . S
C418 C417 1.524 . S
C418 C419 1.415 . S
C419 H389 0.950 . S
C419 C414 1.363 . S
C419 C418 1.415 . S
H420 C417 0.999 . S
H421 C402 0.913 . S
H422 C440 0.951 . S
H423 C442 0.951 . S
H424 C444 0.950 1_655 S
H425 C445 0.950 . S
H426 C447 0.950 . S
H427 C450 0.950 . S
H428 C451 0.950 . S
H429 C453 0.950 . S
H430 C454 0.950 . S
H431 C455 0.951 . S
H432 C457 0.956 . S
H433 C459 0.950 . S
H434 C460 0.950 . S
H435 C462 0.950 . S
H436 C465 0.950 . S
H437 C466 0.950 1_545 S
H438 C468 0.950 . S
H439 C469 0.950 . S
C440 H422 0.951 . S
C440 C441 1.366 1_455 S
C440 C442 1.388 . S
C441 C440 1.366 1_655 S
C441 C445 1.385 . S
C442 H423 0.951 . S
C442 C440 1.388 . S
C442 C443 1.366 . S
C443 C442 1.366 . S
C443 C444 1.414 . S
C443 C446 1.499 . S
C444 H424 0.950 1_455 S
C444 C443 1.414 . S
C444 C445 1.374 1_455 S
C445 H425 0.950 . S
C445 C441 1.385 . S
C445 C444 1.374 1_655 S
C446 C443 1.499 . S
C446 C447 1.373 . S
C446 C448 1.389 . S
C447 H426 0.950 . S
C447 C446 1.373 . S
C447 C463 1.377 . S
C448 C446 1.389 . S
C448 C449 1.524 . S
C448 C462 1.377 . S
C449 C448 1.524 . S
C449 C450 1.397 . S
C449 C454 1.363 . S
C450 H427 0.950 . S
C450 C449 1.397 . S
C450 C451 1.334 . S
C451 H428 0.950 . S
C451 C450 1.334 . S
C451 C452 1.287 . S
C452 C451 1.287 . S
C452 C453 1.524 . S
C452 H471 0.913 . S
C453 H429 0.950 . S
C453 C452 1.524 . S
C453 C454 1.415 . S
C454 H430 0.950 . S
C454 C449 1.363 . S
C454 C453 1.415 . S
C455 H431 0.951 . S
C455 C456 1.366 . S
C455 C457 1.388 1_545 S
C456 C455 1.366 . S
C456 C460 1.385 1_545 S
C457 H432 0.956 . S
C457 C455 1.388 1_565 S
C457 C458 1.366 . S
C458 C457 1.366 . S
C458 C459 1.414 . S
C458 C461 1.499 . S
C459 H433 0.950 . S
C459 C458 1.414 . S
C459 C460 1.374 . S
C460 H434 0.950 . S
C460 C456 1.385 1_565 S
C460 C459 1.374 . S
C461 C458 1.499 . S
C461 C462 1.373 . S
C461 C463 1.389 . S
C462 H435 0.950 . S
C462 C448 1.377 . S
C462 C461 1.373 . S
C463 C447 1.377 . S
C463 C461 1.389 . S
C463 C464 1.524 . S
C464 C463 1.524 . S
C464 C465 1.397 . S
C464 C469 1.363 . S
C465 H436 0.950 . S
C465 C464 1.397 . S
C465 C466 1.334 . S
C466 H437 0.950 1_565 S
C466 C465 1.334 . S
C466 C467 1.287 1_565 S
C467 C466 1.287 1_545 S
C467 C468 1.524 . S
C467 H470 0.999 . S
C468 H438 0.950 . S
C468 C467 1.524 . S
C468 C469 1.415 1_545 S
C469 H439 0.950 . S
C469 C464 1.363 . S
C469 C468 1.415 1_565 S
H470 C467 0.999 . S
H471 C452 0.913 . S
H472 C490 0.951 . S
H473 C492 0.951 . S
H474 C494 0.950 . S
H475 C495 0.950 . S
H476 C497 0.950 . S
H477 C500 0.950 . S
H478 C501 0.950 . S
H479 C503 0.950 . S
H480 C504 0.950 . S
H481 C505 0.951 . S
H482 C507 0.951 . S
H483 C509 0.950 . S
H484 C510 0.950 . S
H485 C512 0.950 . S
H486 C515 0.950 . S
H487 C516 0.950 . S
H488 C518 0.950 . S
H489 C519 0.950 . S
C490 H472 0.951 . S
C490 C491 1.366 . S
C490 C492 1.388 . S
C491 C490 1.366 . S
C491 C495 1.385 . S
C492 H473 0.951 . S
C492 C490 1.388 . S
C492 C493 1.366 . S
C493 C492 1.366 . S
C493 C494 1.414 . S
C493 C496 1.499 . S
C494 H474 0.950 . S
C494 C493 1.414 . S
C494 C495 1.374 . S
C495 H475 0.950 . S
C495 C491 1.385 . S
C495 C494 1.374 . S
C496 C493 1.499 . S
C496 C497 1.373 . S
C496 C498 1.389 . S
C497 H476 0.950 . S
C497 C496 1.373 . S
C497 C513 1.377 . S
C498 C496 1.389 . S
C498 C499 1.524 . S
C498 C512 1.377 . S
C499 C498 1.524 . S
C499 C500 1.397 . S
C499 C504 1.363 . S
C500 H477 0.950 . S
C500 C499 1.397 . S
C500 C501 1.334 . S
C501 H478 0.950 . S
C501 C500 1.334 . S
C501 C502 1.287 . S
C502 C501 1.287 . S
C502 C503 1.524 . S
C502 H521 0.913 . S
C503 H479 0.950 . S
C503 C502 1.524 . S
C503 C504 1.415 . S
C504 H480 0.950 . S
C504 C499 1.363 . S
C504 C503 1.415 . S
C505 H481 0.951 . S
C505 C506 1.366 . S
C505 C507 1.388 . S
C506 C505 1.366 . S
C506 C510 1.385 . S
C507 H482 0.951 . S
C507 C505 1.388 . S
C507 C508 1.366 . S
C508 C507 1.366 . S
C508 C509 1.414 . S
C508 C511 1.499 . S
C509 H483 0.950 . S
C509 C508 1.414 . S
C509 C510 1.374 . S
C510 H484 0.950 . S
C510 C506 1.385 . S
C510 C509 1.374 . S
C511 C508 1.499 . S
C511 C512 1.373 . S
C511 C513 1.389 . S
C512 H485 0.950 . S
C512 C498 1.377 . S
C512 C511 1.373 . S
C513 C497 1.377 . S
C513 C511 1.389 . S
C513 C514 1.524 . S
C514 C513 1.524 . S
C514 C515 1.397 . S
C514 C519 1.363 . S
C515 H486 0.950 . S
C515 C514 1.397 . S
C515 C516 1.334 . S
C516 H487 0.950 . S
C516 C515 1.334 . S
C516 C517 1.287 . S
C517 C516 1.287 . S
C517 C518 1.524 . S
C517 H520 0.999 . S
C518 H488 0.950 . S
C518 C517 1.524 . S
C518 C519 1.415 . S
C519 H489 0.950 . S
C519 C514 1.363 . S
C519 C518 1.415 . S
H520 C517 0.999 . S
H521 C502 0.913 . S
H522 C540 0.951 . S
H523 C542 0.951 . S
H524 C544 0.950 . S
H525 C545 0.950 . S
H526 C547 0.950 . S
H527 C550 0.950 . S
H528 C551 0.950 . S
H529 C553 0.950 . S
H530 C554 0.950 . S
H531 C555 0.951 . S
H532 C557 0.951 . S
H533 C559 0.950 . S
H534 C560 0.950 . S
H535 C562 0.950 . S
H536 C565 0.950 . S
H537 C566 0.950 . S
H538 C568 0.950 . S
H539 C569 0.950 . S
C540 H522 0.951 . S
C540 C541 1.366 . S
C540 C542 1.388 . S
C541 C540 1.366 . S
C541 C545 1.385 . S
C542 H523 0.951 . S
C542 C540 1.388 . S
C542 C543 1.366 . S
C543 C542 1.366 . S
C543 C544 1.414 . S
C543 C546 1.499 . S
C544 H524 0.950 . S
C544 C543 1.414 . S
C544 C545 1.374 . S
C545 H525 0.950 . S
C545 C541 1.385 . S
C545 C544 1.374 . S
C546 C543 1.499 . S
C546 C547 1.373 . S
C546 C548 1.389 . S
C547 H526 0.950 . S
C547 C546 1.373 . S
C547 C563 1.377 . S
C548 C546 1.389 . S
C548 C549 1.524 . S
C548 C562 1.377 . S
C549 C548 1.524 . S
C549 C550 1.397 . S
C549 C554 1.363 . S
C550 H527 0.950 . S
C550 C549 1.397 . S
C550 C551 1.334 . S
C551 H528 0.950 . S
C551 C550 1.334 . S
C551 C552 1.287 . S
C552 C551 1.287 . S
C552 C553 1.524 . S
C552 H571 0.913 . S
C553 H529 0.950 . S
C553 C552 1.524 . S
C553 C554 1.415 . S
C554 H530 0.950 . S
C554 C549 1.363 . S
C554 C553 1.415 . S
C555 H531 0.951 . S
C555 C556 1.366 . S
C555 C557 1.388 . S
C556 C555 1.366 . S
C556 C560 1.385 . S
C557 H532 0.951 . S
C557 C555 1.388 . S
C557 C558 1.366 . S
C558 C557 1.366 . S
C558 C559 1.414 . S
C558 C561 1.499 . S
C559 H533 0.950 . S
C559 C558 1.414 . S
C559 C560 1.374 . S
C560 H534 0.950 . S
C560 C556 1.385 . S
C560 C559 1.374 . S
C561 C558 1.499 . S
C561 C562 1.373 . S
C561 C563 1.389 . S
C562 H535 0.950 . S
C562 C548 1.377 . S
C562 C561 1.373 . S
C563 C547 1.377 . S
C563 C561 1.389 . S
C563 C564 1.524 . S
C564 C563 1.524 . S
C564 C565 1.397 . S
C564 C569 1.363 . S
C565 H536 0.950 . S
C565 C564 1.397 . S
C565 C566 1.334 . S
C566 H537 0.950 . S
C566 C565 1.334 . S
C566 C567 1.287 . S
C567 C566 1.287 . S
C567 C568 1.524 . S
C567 H570 0.999 . S
C568 H538 0.950 . S
C568 C567 1.524 . S
C568 C569 1.415 . S
C569 H539 0.950 . S
C569 C564 1.363 . S
C569 C568 1.415 . S
H570 C567 0.999 . S
H571 C552 0.913 . S
H572 C590 0.951 . S
H573 C592 0.951 . S
H574 C594 0.950 . S
H575 C595 0.950 . S
H576 C597 0.950 . S
H577 C600 0.950 . S
H578 C601 0.950 . S
H579 C603 0.950 . S
H580 C604 0.950 . S
H581 C605 0.951 . S
H582 C607 0.951 . S
H583 C609 0.950 . S
H584 C610 0.950 . S
H585 C612 0.950 . S
H586 C615 0.950 . S
H587 C616 0.950 . S
H588 C618 0.950 . S
H589 C619 0.950 . S
C590 H572 0.951 . S
C590 C591 1.366 . S
C590 C592 1.388 . S
C591 C590 1.366 . S
C591 C595 1.385 . S
C592 H573 0.951 . S
C592 C590 1.388 . S
C592 C593 1.366 . S
C593 C592 1.366 . S
C593 C594 1.414 . S
C593 C596 1.499 . S
C594 H574 0.950 . S
C594 C593 1.414 . S
C594 C595 1.374 . S
C595 H575 0.950 . S
C595 C591 1.385 . S
C595 C594 1.374 . S
C596 C593 1.499 . S
C596 C597 1.373 . S
C596 C598 1.389 . S
C597 H576 0.950 . S
C597 C596 1.373 . S
C597 C613 1.377 . S
C598 C596 1.389 . S
C598 C599 1.524 . S
C598 C612 1.377 . S
C599 C598 1.524 . S
C599 C600 1.397 . S
C599 C604 1.363 . S
C600 H577 0.950 . S
C600 C599 1.397 . S
C600 C601 1.334 . S
C601 H578 0.950 . S
C601 C600 1.334 . S
C601 C602 1.287 . S
C602 C601 1.287 . S
C602 C603 1.524 . S
C602 H621 0.913 . S
C603 H579 0.950 . S
C603 C602 1.524 . S
C603 C604 1.415 . S
C604 H580 0.950 . S
C604 C599 1.363 . S
C604 C603 1.415 . S
C605 H581 0.951 . S
C605 C606 1.366 . S
C605 C607 1.388 . S
C606 C605 1.366 . S
C606 C610 1.385 . S
C607 H582 0.951 . S
C607 C605 1.388 . S
C607 C608 1.366 . S
C608 C607 1.366 . S
C608 C609 1.414 . S
C608 C611 1.499 . S
C609 H583 0.950 . S
C609 C608 1.414 . S
C609 C610 1.374 . S
C610 H584 0.950 . S
C610 C606 1.385 . S
C610 C609 1.374 . S
C611 C608 1.499 . S
C611 C612 1.373 . S
C611 C613 1.389 . S
C612 H585 0.950 . S
C612 C598 1.377 . S
C612 C611 1.373 . S
C613 C597 1.377 . S
C613 C611 1.389 . S
C613 C614 1.524 . S
C614 C613 1.524 . S
C614 C615 1.397 . S
C614 C619 1.363 . S
C615 H586 0.950 . S
C615 C614 1.397 . S
C615 C616 1.334 . S
C616 H587 0.950 . S
C616 C615 1.334 . S
C616 C617 1.287 . S
C617 C616 1.287 . S
C617 C618 1.524 . S
C617 H620 0.999 . S
C618 H588 0.950 . S
C618 C617 1.524 . S
C618 C619 1.415 . S
C619 H589 0.950 . S
C619 C614 1.363 . S
C619 C618 1.415 . S
H620 C617 0.999 . S
H621 C602 0.913 . S
H622 C640 0.951 . S
H623 C642 0.951 . S
H624 C644 0.950 . S
H625 C645 0.950 . S
H626 C647 0.950 . S
H627 C650 0.950 . S
H628 C651 0.950 . S
H629 C653 0.950 . S
H630 C654 0.950 1_554 S
H631 C655 0.951 . S
H632 C657 0.951 . S
H633 C659 0.950 . S
H634 C660 0.950 . S
H635 C662 0.950 . S
H636 C665 0.950 . S
H637 C666 0.950 . S
H638 C668 0.950 . S
H639 C669 0.950 . S
C640 H622 0.951 . S
C640 C641 1.366 . S
C640 C642 1.388 . S
C641 C640 1.366 . S
C641 C645 1.385 . S
C642 H623 0.951 . S
C642 C640 1.388 . S
C642 C643 1.366 . S
C643 C642 1.366 . S
C643 C644 1.414 . S
C643 C646 1.499 1_556 S
C644 H624 0.950 . S
C644 C643 1.414 . S
C644 C645 1.374 . S
C645 H625 0.950 . S
C645 C641 1.385 . S
C645 C644 1.374 . S
C646 C643 1.499 1_554 S
C646 C647 1.373 . S
C646 C648 1.389 . S
C647 H626 0.950 . S
C647 C646 1.373 . S
C647 C663 1.377 . S
C648 C646 1.389 . S
C648 C649 1.524 1_554 S
C648 C662 1.377 . S
C649 C648 1.524 1_556 S
C649 C650 1.397 . S
C649 C654 1.363 . S
C650 H627 0.950 . S
C650 C649 1.397 . S
C650 C651 1.334 . S
C651 H628 0.950 . S
C651 C650 1.334 . S
C651 C652 1.287 . S
C652 C651 1.287 . S
C652 C653 1.524 . S
C652 H671 0.913 . S
C653 H629 0.950 . S
C653 C652 1.524 . S
C653 C654 1.415 . S
C654 H630 0.950 1_556 S
C654 C649 1.363 . S
C654 C653 1.415 . S
C655 H631 0.951 . S
C655 C656 1.366 . S
C655 C657 1.388 . S
C656 C655 1.366 . S
C656 C660 1.385 . S
C657 H632 0.951 . S
C657 C655 1.388 . S
C657 C658 1.366 . S
C658 C657 1.366 . S
C658 C659 1.414 . S
C658 C661 1.499 . S
C659 H633 0.950 . S
C659 C658 1.414 . S
C659 C660 1.374 . S
C660 H634 0.950 . S
C660 C656 1.385 . S
C660 C659 1.374 . S
C661 C658 1.499 . S
C661 C662 1.373 . S
C661 C663 1.389 . S
C662 H635 0.950 . S
C662 C648 1.377 . S
C662 C661 1.373 . S
C663 C647 1.377 . S
C663 C661 1.389 . S
C663 C664 1.524 . S
C664 C663 1.524 . S
C664 C665 1.397 . S
C664 C669 1.363 . S
C665 H636 0.950 . S
C665 C664 1.397 . S
C665 C666 1.334 . S
C666 H637 0.950 . S
C666 C665 1.334 . S
C666 C667 1.287 . S
C667 C666 1.287 . S
C667 C668 1.524 . S
C667 H670 0.999 . S
C668 H638 0.950 . S
C668 C667 1.524 . S
C668 C669 1.415 . S
C669 H639 0.950 . S
C669 C664 1.363 . S
C669 C668 1.415 . S
H670 C667 0.999 . S
H671 C652 0.913 . S
H672 C690 0.951 . S
H673 C692 0.951 . S
H674 C694 0.950 . S
H675 C695 0.950 . S
H676 C697 0.950 . S
H677 C700 0.950 . S
H678 C701 0.950 . S
H679 C703 0.950 . S
H680 C704 0.950 . S
H681 C705 0.951 . S
H682 C707 0.951 . S
H683 C709 0.950 . S
H684 C710 0.950 . S
H685 C712 0.950 . S
H686 C715 0.950 . S
H687 C716 0.950 . S
H688 C718 0.950 . S
H689 C719 0.950 . S
C690 H672 0.951 . S
C690 C691 1.366 . S
C690 C692 1.388 . S
C691 C690 1.366 . S
C691 C695 1.385 . S
C692 H673 0.951 . S
C692 C690 1.388 . S
C692 C693 1.366 . S
C693 C692 1.366 . S
C693 C694 1.414 . S
C693 C696 1.499 . S
C694 H674 0.950 . S
C694 C693 1.414 . S
C694 C695 1.374 . S
C695 H675 0.950 . S
C695 C691 1.385 . S
C695 C694 1.374 . S
C696 C693 1.499 . S
C696 C697 1.373 . S
C696 C698 1.389 . S
C697 H676 0.950 . S
C697 C696 1.373 . S
C697 C713 1.377 . S
C698 C696 1.389 . S
C698 C699 1.524 . S
C698 C712 1.377 . S
C699 C698 1.524 . S
C699 C700 1.397 . S
C699 C704 1.363 . S
C700 H677 0.950 . S
C700 C699 1.397 . S
C700 C701 1.334 . S
C701 H678 0.950 . S
C701 C700 1.334 . S
C701 C702 1.287 . S
C702 C701 1.287 . S
C702 C703 1.524 . S
C702 H721 0.913 . S
C703 H679 0.950 . S
C703 C702 1.524 . S
C703 C704 1.415 . S
C704 H680 0.950 . S
C704 C699 1.363 . S
C704 C703 1.415 . S
C705 H681 0.951 . S
C705 C706 1.366 . S
C705 C707 1.388 . S
C706 C705 1.366 . S
C706 C710 1.385 . S
C707 H682 0.951 . S
C707 C705 1.388 . S
C707 C708 1.366 . S
C708 C707 1.366 . S
C708 C709 1.414 . S
C708 C711 1.499 . S
C709 H683 0.950 . S
C709 C708 1.414 . S
C709 C710 1.374 . S
C710 H684 0.950 . S
C710 C706 1.385 . S
C710 C709 1.374 . S
C711 C708 1.499 . S
C711 C712 1.373 . S
C711 C713 1.389 . S
C712 H685 0.950 . S
C712 C698 1.377 . S
C712 C711 1.373 . S
C713 C697 1.377 . S
C713 C711 1.389 . S
C713 C714 1.524 . S
C714 C713 1.524 . S
C714 C715 1.397 . S
C714 C719 1.363 . S
C715 H686 0.950 . S
C715 C714 1.397 . S
C715 C716 1.334 . S
C716 H687 0.950 . S
C716 C715 1.334 . S
C716 C717 1.287 . S
C717 C716 1.287 . S
C717 C718 1.524 . S
C717 H720 0.999 . S
C718 H688 0.950 . S
C718 C717 1.524 . S
C718 C719 1.415 . S
C719 H689 0.950 . S
C719 C714 1.363 . S
C719 C718 1.415 . S
H720 C717 0.999 . S
H721 C702 0.913 . S
H722 C740 0.951 . S
H723 C742 0.951 . S
H724 C744 0.950 . S
H725 C745 0.950 . S
H726 C747 0.950 . S
H727 C750 0.950 . S
H728 C751 0.950 . S
H729 C753 0.950 . S
H730 C754 0.950 . S
H731 C755 0.951 . S
H732 C757 0.951 . S
H733 C759 0.950 . S
H734 C760 0.950 . S
H735 C762 0.949 1_556 S
H736 C765 0.950 . S
H737 C766 0.950 . S
H738 C768 0.950 . S
H739 C769 0.950 . S
C740 H722 0.951 . S
C740 C741 1.366 . S
C740 C742 1.388 . S
C741 C740 1.366 . S
C741 C745 1.385 . S
C742 H723 0.951 . S
C742 C740 1.388 . S
C742 C743 1.366 . S
C743 C742 1.366 . S
C743 C744 1.414 . S
C743 C746 1.499 . S
C744 H724 0.950 . S
C744 C743 1.414 . S
C744 C745 1.374 . S
C745 H725 0.950 . S
C745 C741 1.385 . S
C745 C744 1.374 . S
C746 C743 1.499 . S
C746 C747 1.373 . S
C746 C748 1.389 . S
C747 H726 0.950 . S
C747 C746 1.373 . S
C747 C763 1.377 . S
C748 C746 1.389 . S
C748 C749 1.524 . S
C748 C762 1.377 . S
C749 C748 1.524 . S
C749 C750 1.397 . S
C749 C754 1.363 . S
C750 H727 0.950 . S
C750 C749 1.397 . S
C750 C751 1.334 . S
C751 H728 0.950 . S
C751 C750 1.334 . S
C751 C752 1.287 . S
C752 C751 1.287 . S
C752 C753 1.524 . S
C752 H771 0.913 . S
C753 H729 0.950 . S
C753 C752 1.524 . S
C753 C754 1.415 . S
C754 H730 0.950 . S
C754 C749 1.363 . S
C754 C753 1.415 . S
C755 H731 0.951 . S
C755 C756 1.366 . S
C755 C757 1.388 . S
C756 C755 1.366 . S
C756 C760 1.385 . S
C757 H732 0.951 . S
C757 C755 1.388 . S
C757 C758 1.366 . S
C758 C757 1.366 . S
C758 C759 1.414 . S
C758 C761 1.501 . S
C759 H733 0.950 . S
C759 C758 1.414 . S
C759 C760 1.374 . S
C760 H734 0.950 . S
C760 C756 1.385 . S
C760 C759 1.374 . S
C761 C758 1.501 . S
C761 C762 1.372 1_556 S
C761 C763 1.388 1_556 S
C762 H735 0.949 1_554 S
C762 C748 1.377 . S
C762 C761 1.372 1_554 S
C763 C747 1.377 . S
C763 C761 1.388 1_554 S
C763 C764 1.524 . S
C764 C763 1.524 . S
C764 C765 1.397 1_554 S
C764 C769 1.363 . S
C765 H736 0.950 . S
C765 C764 1.397 1_556 S
C765 C766 1.334 . S
C766 H737 0.950 . S
C766 C765 1.334 . S
C766 C767 1.287 . S
C767 C766 1.287 . S
C767 C768 1.524 1_556 S
C767 H770 0.999 . S
C768 H738 0.950 . S
C768 C767 1.524 1_554 S
C768 C769 1.415 . S
C769 H739 0.950 . S
C769 C764 1.363 . S
C769 C768 1.415 . S
H770 C767 0.999 . S
H771 C752 0.913 . S
H772 C790 0.951 . S
H773 C792 0.951 . S
H774 C794 0.950 . S
H775 C795 0.950 . S
H776 C797 0.950 . S
H777 C800 0.950 . S
H778 C801 0.950 . S
H779 C803 0.950 . S
H780 C804 0.950 . S
H781 C805 0.951 . S
H782 C807 0.951 . S
H783 C809 0.950 . S
H784 C810 0.950 . S
H785 C812 0.950 . S
H786 C815 0.950 . S
H787 C816 0.950 . S
H788 C818 0.950 . S
H789 C819 0.950 . S
C790 H772 0.951 . S
C790 C791 1.366 . S
C790 C792 1.388 . S
C791 C790 1.366 . S
C791 C795 1.385 . S
C792 H773 0.951 . S
C792 C790 1.388 . S
C792 C793 1.366 . S
C793 C792 1.366 . S
C793 C794 1.414 . S
C793 C796 1.499 . S
C794 H774 0.950 . S
C794 C793 1.414 . S
C794 C795 1.374 . S
C795 H775 0.950 . S
C795 C791 1.385 . S
C795 C794 1.374 . S
C796 C793 1.499 . S
C796 C797 1.373 . S
C796 C798 1.389 . S
C797 H776 0.950 . S
C797 C796 1.373 . S
C797 C813 1.377 . S
C798 C796 1.389 . S
C798 C799 1.524 . S
C798 C812 1.377 . S
C799 C798 1.524 . S
C799 C800 1.397 . S
C799 C804 1.363 . S
C800 H777 0.950 . S
C800 C799 1.397 . S
C800 C801 1.334 . S
C801 H778 0.950 . S
C801 C800 1.334 . S
C801 C802 1.287 . S
C802 C801 1.287 . S
C802 C803 1.524 . S
C802 H821 0.913 . S
C803 H779 0.950 . S
C803 C802 1.524 . S
C803 C804 1.415 . S
C804 H780 0.950 . S
C804 C799 1.363 . S
C804 C803 1.415 . S
C805 H781 0.951 . S
C805 C806 1.366 . S
C805 C807 1.388 . S
C806 C805 1.366 . S
C806 C810 1.385 . S
C807 H782 0.951 . S
C807 C805 1.388 . S
C807 C808 1.366 . S
C808 C807 1.366 . S
C808 C809 1.414 . S
C808 C811 1.499 . S
C809 H783 0.950 . S
C809 C808 1.414 . S
C809 C810 1.374 . S
C810 H784 0.950 . S
C810 C806 1.385 . S
C810 C809 1.374 . S
C811 C808 1.499 . S
C811 C812 1.373 . S
C811 C813 1.389 . S
C812 H785 0.950 . S
C812 C798 1.377 . S
C812 C811 1.373 . S
C813 C797 1.377 . S
C813 C811 1.389 . S
C813 C814 1.524 . S
C814 C813 1.524 . S
C814 C815 1.397 . S
C814 C819 1.363 . S
C815 H786 0.950 . S
C815 C814 1.397 . S
C815 C816 1.334 . S
C816 H787 0.950 . S
C816 C815 1.334 . S
C816 C817 1.287 . S
C817 C816 1.287 . S
C817 C818 1.524 . S
C817 H820 0.999 . S
C818 H788 0.950 . S
C818 C817 1.524 . S
C818 C819 1.415 . S
C819 H789 0.950 . S
C819 C814 1.363 . S
C819 C818 1.415 . S
H820 C817 0.999 . S
H821 C802 0.913 . S
H822 C840 0.951 . S
H823 C842 0.951 . S
H824 C844 0.950 . S
H825 C845 0.950 . S
H826 C847 0.950 . S
H827 C850 0.950 . S
H828 C851 0.950 . S
H829 C853 0.950 . S
H830 C854 0.950 . S
H831 C855 0.951 . S
H832 C857 0.951 . S
H833 C859 0.950 . S
H834 C860 0.950 . S
H835 C862 0.950 . S
H836 C865 0.950 . S
H837 C866 0.950 . S
H838 C868 0.950 . S
H839 C869 0.950 . S
C840 H822 0.951 . S
C840 C841 1.366 . S
C840 C842 1.388 . S
C841 C840 1.366 . S
C841 C845 1.385 . S
C842 H823 0.951 . S
C842 C840 1.388 . S
C842 C843 1.366 . S
C843 C842 1.366 . S
C843 C844 1.414 . S
C843 C846 1.499 . S
C844 H824 0.950 . S
C844 C843 1.414 . S
C844 C845 1.374 . S
C845 H825 0.950 . S
C845 C841 1.385 . S
C845 C844 1.374 . S
C846 C843 1.499 . S
C846 C847 1.373 . S
C846 C848 1.389 . S
C847 H826 0.950 . S
C847 C846 1.373 . S
C847 C863 1.377 . S
C848 C846 1.389 . S
C848 C849 1.524 . S
C848 C862 1.377 . S
C849 C848 1.524 . S
C849 C850 1.397 . S
C849 C854 1.363 . S
C850 H827 0.950 . S
C850 C849 1.397 . S
C850 C851 1.334 . S
C851 H828 0.950 . S
C851 C850 1.334 . S
C851 C852 1.287 . S
C852 C851 1.287 . S
C852 C853 1.524 . S
C852 H871 0.913 . S
C853 H829 0.950 . S
C853 C852 1.524 . S
C853 C854 1.415 . S
C854 H830 0.950 . S
C854 C849 1.363 . S
C854 C853 1.415 . S
C855 H831 0.951 . S
C855 C856 1.366 . S
C855 C857 1.388 . S
C856 C855 1.366 . S
C856 C860 1.385 . S
C857 H832 0.951 . S
C857 C855 1.388 . S
C857 C858 1.366 . S
C858 C857 1.366 . S
C858 C859 1.414 . S
C858 C861 1.499 . S
C859 H833 0.950 . S
C859 C858 1.414 . S
C859 C860 1.374 . S
C860 H834 0.950 . S
C860 C856 1.385 . S
C860 C859 1.374 . S
C861 C858 1.499 . S
C861 C862 1.373 . S
C861 C863 1.389 . S
C862 H835 0.950 . S
C862 C848 1.377 . S
C862 C861 1.373 . S
C863 C847 1.377 . S
C863 C861 1.389 . S
C863 C864 1.524 . S
C864 C863 1.524 . S
C864 C865 1.397 . S
C864 C869 1.363 . S
C865 H836 0.950 . S
C865 C864 1.397 . S
C865 C866 1.334 . S
C866 H837 0.950 . S
C866 C865 1.334 . S
C866 C867 1.287 . S
C867 C866 1.287 . S
C867 C868 1.524 . S
C867 H870 0.999 . S
C868 H838 0.950 . S
C868 C867 1.524 . S
C868 C869 1.415 . S
C869 H839 0.950 . S
C869 C864 1.363 . S
C869 C868 1.415 . S
H870 C867 0.999 . S
H871 C852 0.913 . S
H872 C890 0.951 . S
H873 C892 0.951 1_554 S
H874 C894 0.950 . S
H875 C895 0.950 . S
H876 C897 0.950 . S
H877 C900 0.950 . S
H878 C901 0.950 . S
H879 C903 0.950 . S
H880 C904 0.950 . S
H881 C905 0.951 . S
H882 C907 0.951 . S
H883 C909 0.950 . S
H884 C910 0.950 . S
H885 C912 0.950 . S
H886 C915 0.950 . S
H887 C916 0.950 . S
H888 C918 0.950 . S
H889 C919 0.950 . S
C890 H872 0.951 . S
C890 C891 1.366 1_554 S
C890 C892 1.388 1_554 S
C891 C890 1.366 1_556 S
C891 C895 1.385 . S
C892 H873 0.951 1_556 S
C892 C890 1.388 1_556 S
C892 C893 1.366 . S
C893 C892 1.366 . S
C893 C894 1.414 . S
C893 C896 1.499 . S
C894 H874 0.950 . S
C894 C893 1.414 . S
C894 C895 1.374 . S
C895 H875 0.950 . S
C895 C891 1.385 . S
C895 C894 1.374 . S
C896 C893 1.499 . S
C896 C897 1.373 . S
C896 C898 1.389 . S
C897 H876 0.950 . S
C897 C896 1.373 . S
C897 C913 1.377 . S
C898 C896 1.389 . S
C898 C899 1.524 . S
C898 C912 1.377 . S
C899 C898 1.524 . S
C899 C900 1.397 . S
C899 C904 1.363 . S
C900 H877 0.950 . S
C900 C899 1.397 . S
C900 C901 1.334 . S
C901 H878 0.950 . S
C901 C900 1.334 . S
C901 C902 1.287 . S
C902 C901 1.287 . S
C902 C903 1.524 . S
C902 H921 0.913 . S
C903 H879 0.950 . S
C903 C902 1.524 . S
C903 C904 1.415 . S
C904 H880 0.950 . S
C904 C899 1.363 . S
C904 C903 1.415 . S
C905 H881 0.951 . S
C905 C906 1.366 . S
C905 C907 1.388 1_545 S
C906 C905 1.366 . S
C906 C910 1.385 . S
C907 H882 0.951 . S
C907 C905 1.388 1_565 S
C907 C908 1.366 . S
C908 C907 1.366 . S
C908 C909 1.414 . S
C908 C911 1.499 . S
C909 H883 0.950 . S
C909 C908 1.414 . S
C909 C910 1.374 1_565 S
C910 H884 0.950 . S
C910 C906 1.385 . S
C910 C909 1.374 1_545 S
C911 C908 1.499 . S
C911 C912 1.373 . S
C911 C913 1.389 . S
C912 H885 0.950 . S
C912 C898 1.377 . S
C912 C911 1.373 . S
C913 C897 1.377 . S
C913 C911 1.389 . S
C913 C914 1.524 . S
C914 C913 1.524 . S
C914 C915 1.397 . S
C914 C919 1.363 . S
C915 H886 0.950 . S
C915 C914 1.397 . S
C915 C916 1.334 1_565 S
C916 H887 0.950 . S
C916 C915 1.334 1_545 S
C916 C917 1.287 . S
C917 C916 1.287 . S
C917 C918 1.524 1_545 S
C917 H920 0.999 . S
C918 H888 0.950 . S
C918 C917 1.524 1_565 S
C918 C919 1.415 . S
C919 H889 0.950 . S
C919 C914 1.363 . S
C919 C918 1.415 . S
H920 C917 0.999 . S
H921 C902 0.913 . S
H922 C940 0.951 . S
H923 C942 0.951 . S
H924 C944 0.950 . S
H925 C945 0.950 . S
H926 C947 0.950 . S
H927 C950 0.950 . S
H928 C951 0.950 . S
H929 C953 0.950 . S
H930 C954 0.950 . S
H931 C955 0.951 . S
H932 C957 0.951 . S
H933 C959 0.950 . S
H934 C960 0.950 . S
H935 C962 0.950 . S
H936 C965 0.950 . S
H937 C966 0.950 . S
H938 C968 0.950 . S
H939 C969 0.950 . S
C940 H922 0.951 . S
C940 C941 1.366 . S
C940 C942 1.388 . S
C941 C940 1.366 . S
C941 C945 1.385 . S
C942 H923 0.951 . S
C942 C940 1.388 . S
C942 C943 1.366 . S
C943 C942 1.366 . S
C943 C944 1.414 . S
C943 C946 1.499 . S
C944 H924 0.950 . S
C944 C943 1.414 . S
C944 C945 1.374 . S
C945 H925 0.950 . S
C945 C941 1.385 . S
C945 C944 1.374 . S
C946 C943 1.499 . S
C946 C947 1.373 . S
C946 C948 1.389 . S
C947 H926 0.950 . S
C947 C946 1.373 . S
C947 C963 1.377 . S
C948 C946 1.389 . S
C948 C949 1.524 . S
C948 C962 1.377 . S
C949 C948 1.524 . S
C949 C950 1.397 . S
C949 C954 1.363 . S
C950 H927 0.950 . S
C950 C949 1.397 . S
C950 C951 1.334 . S
C951 H928 0.950 . S
C951 C950 1.334 . S
C951 C952 1.287 . S
C952 C951 1.287 . S
C952 C953 1.524 . S
C952 H971 0.913 1_554 S
C953 H929 0.950 . S
C953 C952 1.524 . S
C953 C954 1.415 . S
C954 H930 0.950 . S
C954 C949 1.363 . S
C954 C953 1.415 . S
C955 H931 0.951 . S
C955 C956 1.366 . S
C955 C957 1.388 . S
C956 C955 1.366 . S
C956 C960 1.385 . S
C957 H932 0.951 . S
C957 C955 1.388 . S
C957 C958 1.366 . S
C958 C957 1.366 . S
C958 C959 1.414 . S
C958 C961 1.499 . S
C959 H933 0.950 . S
C959 C958 1.414 . S
C959 C960 1.374 . S
C960 H934 0.950 . S
C960 C956 1.385 . S
C960 C959 1.374 . S
C961 C958 1.499 . S
C961 C962 1.373 . S
C961 C963 1.389 . S
C962 H935 0.950 . S
C962 C948 1.377 . S
C962 C961 1.373 . S
C963 C947 1.377 . S
C963 C961 1.389 . S
C963 C964 1.524 . S
C964 C963 1.524 . S
C964 C965 1.397 . S
C964 C969 1.363 . S
C965 H936 0.950 . S
C965 C964 1.397 . S
C965 C966 1.334 . S
C966 H937 0.950 . S
C966 C965 1.334 . S
C966 C967 1.287 . S
C967 C966 1.287 . S
C967 C968 1.524 . S
C967 H970 0.999 . S
C968 H938 0.950 . S
C968 C967 1.524 . S
C968 C969 1.415 . S
C969 H939 0.950 . S
C969 C964 1.363 . S
C969 C968 1.415 . S
H970 C967 0.999 . S
H971 C952 0.913 1_556 S
H972 C990 0.951 . S
H973 C992 0.951 . S
H974 C994 0.950 . S
H975 C995 0.950 . S
H976 C997 0.950 . S
H977 C1000 0.950 . S
H978 C1001 0.950 1_565 S
H979 C1003 0.950 . S
H980 C1004 0.950 . S
H981 C1005 0.951 . S
H982 C1007 0.951 . S
H983 C1009 0.950 . S
H984 C1010 0.950 . S
H985 C1012 0.950 . S
H986 C1015 0.950 . S
H987 C1016 0.950 . S
H988 C1018 0.950 . S
H989 C1019 0.950 . S
C990 H972 0.951 . S
C990 C991 1.366 . S
C990 C992 1.392 . S
C991 C990 1.366 . S
C991 C995 1.385 1_565 S
C992 H973 0.951 . S
C992 C990 1.392 . S
C992 C993 1.361 1_565 S
C993 C992 1.361 1_545 S
C993 C994 1.414 . S
C993 C996 1.499 . S
C994 H974 0.950 . S
C994 C993 1.414 . S
C994 C995 1.374 . S
C995 H975 0.950 . S
C995 C991 1.385 1_545 S
C995 C994 1.374 . S
C996 C993 1.499 . S
C996 C997 1.373 . S
C996 C998 1.389 . S
C997 H976 0.950 . S
C997 C996 1.373 . S
C997 C1013 1.377 . S
C998 C996 1.389 . S
C998 C999 1.524 . S
C998 C1012 1.377 . S
C999 C998 1.524 . S
C999 C1000 1.397 . S
C999 C1004 1.363 . S
C1000 H977 0.950 . S
C1000 C999 1.397 . S
C1000 C1001 1.334 . S
C1001 H978 0.950 1_545 S
C1001 C1000 1.334 . S
C1001 C1002 1.287 1_545 S
C1002 C1001 1.287 1_565 S
C1002 C1003 1.524 . S
C1002 H1021 0.913 . S
C1003 H979 0.950 . S
C1003 C1002 1.524 . S
C1003 C1004 1.415 1_565 S
C1004 H980 0.950 . S
C1004 C999 1.363 . S
C1004 C1003 1.415 1_545 S
C1005 H981 0.951 . S
C1005 C1006 1.366 . S
C1005 C1007 1.388 . S
C1006 C1005 1.366 . S
C1006 C1010 1.385 . S
C1007 H982 0.951 . S
C1007 C1005 1.388 . S
C1007 C1008 1.366 . S
C1008 C1007 1.366 . S
C1008 C1009 1.414 . S
C1008 C1011 1.499 . S
C1009 H983 0.950 . S
C1009 C1008 1.414 . S
C1009 C1010 1.374 . S
C1010 H984 0.950 . S
C1010 C1006 1.385 . S
C1010 C1009 1.374 . S
C1011 C1008 1.499 . S
C1011 C1012 1.373 . S
C1011 C1013 1.389 . S
C1012 H985 0.950 . S
C1012 C998 1.377 . S
C1012 C1011 1.373 . S
C1013 C997 1.377 . S
C1013 C1011 1.389 . S
C1013 C1014 1.524 . S
C1014 C1013 1.524 . S
C1014 C1015 1.397 . S
C1014 C1019 1.363 . S
C1015 H986 0.950 . S
C1015 C1014 1.397 . S
C1015 C1016 1.334 . S
C1016 H987 0.950 . S
C1016 C1015 1.334 . S
C1016 C1017 1.287 . S
C1017 C1016 1.287 . S
C1017 C1018 1.524 . S
C1017 H1020 0.999 . S
C1018 H988 0.950 . S
C1018 C1017 1.524 . S
C1018 C1019 1.415 . S
C1019 H989 0.950 . S
C1019 C1014 1.363 . S
C1019 C1018 1.415 . S
H1020 C1017 0.999 . S
H1021 C1002 0.913 . S
H1022 C1040 0.951 . S
H1023 C1042 0.951 . S
H1024 C1044 0.950 . S
H1025 C1045 0.950 . S
H1026 C1047 0.950 . S
H1027 C1050 0.950 . S
H1028 C1051 0.950 . S
H1029 C1053 0.950 . S
H1030 C1054 0.950 . S
H1031 C1055 0.951 . S
H1032 C1057 0.951 . S
H1033 C1059 0.950 . S
H1034 C1060 0.950 . S
H1035 C1062 0.950 . S
H1036 C1065 0.950 . S
H1037 C1066 0.950 . S
H1038 C1068 0.950 . S
H1039 C1069 0.950 . S
C1040 H1022 0.951 . S
C1040 C1041 1.366 . S
C1040 C1042 1.388 . S
C1041 C1040 1.366 . S
C1041 C1045 1.385 . S
C1042 H1023 0.951 . S
C1042 C1040 1.388 . S
C1042 C1043 1.366 . S
C1043 C1042 1.366 . S
C1043 C1044 1.414 . S
C1043 C1046 1.499 . S
C1044 H1024 0.950 . S
C1044 C1043 1.414 . S
C1044 C1045 1.374 . S
C1045 H1025 0.950 . S
C1045 C1041 1.385 . S
C1045 C1044 1.374 . S
C1046 C1043 1.499 . S
C1046 C1047 1.373 . S
C1046 C1048 1.389 . S
C1047 H1026 0.950 . S
C1047 C1046 1.373 . S
C1047 C1063 1.377 . S
C1048 C1046 1.389 . S
C1048 C1049 1.524 . S
C1048 C1062 1.377 . S
C1049 C1048 1.524 . S
C1049 C1050 1.397 . S
C1049 C1054 1.363 . S
C1050 H1027 0.950 . S
C1050 C1049 1.397 . S
C1050 C1051 1.334 . S
C1051 H1028 0.950 . S
C1051 C1050 1.334 . S
C1051 C1052 1.287 . S
C1052 C1051 1.287 . S
C1052 C1053 1.524 . S
C1052 H1071 0.913 . S
C1053 H1029 0.950 . S
C1053 C1052 1.524 . S
C1053 C1054 1.415 . S
C1054 H1030 0.950 . S
C1054 C1049 1.363 . S
C1054 C1053 1.415 . S
C1055 H1031 0.951 . S
C1055 C1056 1.366 . S
C1055 C1057 1.388 . S
C1056 C1055 1.366 . S
C1056 C1060 1.385 . S
C1057 H1032 0.951 . S
C1057 C1055 1.388 . S
C1057 C1058 1.366 . S
C1058 C1057 1.366 . S
C1058 C1059 1.414 . S
C1058 C1061 1.499 . S
C1059 H1033 0.950 . S
C1059 C1058 1.414 . S
C1059 C1060 1.374 . S
C1060 H1034 0.950 . S
C1060 C1056 1.385 . S
C1060 C1059 1.374 . S
C1061 C1058 1.499 . S
C1061 C1062 1.373 . S
C1061 C1063 1.389 . S
C1062 H1035 0.950 . S
C1062 C1048 1.377 . S
C1062 C1061 1.373 . S
C1063 C1047 1.377 . S
C1063 C1061 1.389 . S
C1063 C1064 1.524 . S
C1064 C1063 1.524 . S
C1064 C1065 1.397 . S
C1064 C1069 1.363 . S
C1065 H1036 0.950 . S
C1065 C1064 1.397 . S
C1065 C1066 1.334 . S
C1066 H1037 0.950 . S
C1066 C1065 1.334 . S
C1066 C1067 1.287 . S
C1067 C1066 1.287 . S
C1067 C1068 1.524 . S
C1067 H1070 0.999 . S
C1068 H1038 0.950 . S
C1068 C1067 1.524 . S
C1068 C1069 1.415 . S
C1069 H1039 0.950 . S
C1069 C1064 1.363 . S
C1069 C1068 1.415 . S
H1070 C1067 0.999 . S
H1071 C1052 0.913 . S
H1072 C1090 0.951 . S
H1073 C1092 0.951 . S
H1074 C1094 0.950 . S
H1075 C1095 0.950 . S
H1076 C1097 0.950 . S
H1077 C1100 0.950 . S
H1078 C1101 0.950 . S
H1079 C1103 0.950 . S
H1080 C1104 0.950 . S
H1081 C1105 0.951 1_554 S
H1082 C1107 0.951 . S
H1083 C1109 0.950 . S
H1084 C1110 0.950 . S
H1085 C1112 0.950 . S
H1086 C1115 0.950 . S
H1087 C1116 0.950 . S
H1088 C1118 0.950 . S
H1089 C1119 0.950 . S
C1090 H1072 0.951 . S
C1090 C1091 1.366 . S
C1090 C1092 1.388 . S
C1091 C1090 1.366 . S
C1091 C1095 1.385 . S
C1092 H1073 0.951 . S
C1092 C1090 1.388 . S
C1092 C1093 1.366 . S
C1093 C1092 1.366 . S
C1093 C1094 1.414 . S
C1093 C1096 1.499 . S
C1094 H1074 0.950 . S
C1094 C1093 1.414 . S
C1094 C1095 1.374 . S
C1095 H1075 0.950 . S
C1095 C1091 1.385 . S
C1095 C1094 1.374 . S
C1096 C1093 1.499 . S
C1096 C1097 1.373 . S
C1096 C1098 1.389 . S
C1097 H1076 0.950 . S
C1097 C1096 1.373 . S
C1097 C1113 1.377 . S
C1098 C1096 1.389 . S
C1098 C1099 1.524 . S
C1098 C1112 1.377 . S
C1099 C1098 1.524 . S
C1099 C1100 1.397 . S
C1099 C1104 1.363 . S
C1100 H1077 0.950 . S
C1100 C1099 1.397 . S
C1100 C1101 1.334 . S
C1101 H1078 0.950 . S
C1101 C1100 1.334 . S
C1101 C1102 1.287 . S
C1102 C1101 1.287 . S
C1102 C1103 1.524 . S
C1102 H1121 0.913 . S
C1103 H1079 0.950 . S
C1103 C1102 1.524 . S
C1103 C1104 1.415 . S
C1104 H1080 0.950 . S
C1104 C1099 1.363 . S
C1104 C1103 1.415 . S
C1105 H1081 0.951 1_556 S
C1105 C1106 1.366 . S
C1105 C1107 1.388 . S
C1106 C1105 1.366 . S
C1106 C1110 1.385 . S
C1107 H1082 0.951 . S
C1107 C1105 1.388 . S
C1107 C1108 1.366 . S
C1108 C1107 1.366 . S
C1108 C1109 1.414 . S
C1108 C1111 1.499 . S
C1109 H1083 0.950 . S
C1109 C1108 1.414 . S
C1109 C1110 1.374 . S
C1110 H1084 0.950 . S
C1110 C1106 1.385 . S
C1110 C1109 1.374 . S
C1111 C1108 1.499 . S
C1111 C1112 1.373 . S
C1111 C1113 1.389 . S
C1112 H1085 0.950 . S
C1112 C1098 1.377 . S
C1112 C1111 1.373 . S
C1113 C1097 1.377 . S
C1113 C1111 1.389 . S
C1113 C1114 1.524 . S
C1114 C1113 1.524 . S
C1114 C1115 1.397 . S
C1114 C1119 1.363 . S
C1115 H1086 0.950 . S
C1115 C1114 1.397 . S
C1115 C1116 1.334 . S
C1116 H1087 0.950 . S
C1116 C1115 1.334 . S
C1116 C1117 1.287 . S
C1117 C1116 1.287 . S
C1117 C1118 1.524 . S
C1117 H1120 0.999 . S
C1118 H1088 0.950 . S
C1118 C1117 1.524 . S
C1118 C1119 1.415 . S
C1119 H1089 0.950 . S
C1119 C1114 1.363 . S
C1119 C1118 1.415 . S
H1120 C1117 0.999 . S
H1121 C1102 0.913 . S
H1122 C1140 0.951 . S
H1123 C1142 0.951 . S
H1124 C1144 0.950 . S
H1125 C1145 0.950 . S
H1126 C1147 0.950 . S
H1127 C1150 0.950 . S
H1128 C1151 0.948 1_455 S
H1129 C1153 0.949 . S
H1130 C1154 0.950 . S
H1131 C1155 0.951 . S
H1132 C1157 0.951 . S
H1133 C1159 0.950 . S
H1134 C1160 0.950 . S
H1135 C1162 0.950 . S
H1136 C1165 0.950 . S
H1137 C1166 0.950 . S
H1138 C1168 0.950 . S
H1139 C1169 0.950 . S
C1140 H1122 0.951 . S
C1140 C1141 1.366 . S
C1140 C1142 1.388 . S
C1141 C1140 1.366 . S
C1141 C1145 1.385 1_455 S
C1142 H1123 0.951 . S
C1142 C1140 1.388 . S
C1142 C1143 1.365 1_455 S
C1143 C1142 1.365 1_655 S
C1143 C1144 1.414 . S
C1143 C1146 1.499 . S
C1144 H1124 0.950 . S
C1144 C1143 1.414 . S
C1144 C1145 1.374 . S
C1145 H1125 0.950 . S
C1145 C1141 1.385 1_655 S
C1145 C1144 1.374 . S
C1146 C1143 1.499 . S
C1146 C1147 1.373 . S
C1146 C1148 1.389 . S
C1147 H1126 0.950 . S
C1147 C1146 1.373 . S
C1147 C1163 1.377 . S
C1148 C1146 1.389 . S
C1148 C1149 1.524 . S
C1148 C1162 1.377 . S
C1149 C1148 1.524 . S
C1149 C1150 1.397 . S
C1149 C1154 1.363 . S
C1150 H1127 0.950 . S
C1150 C1149 1.397 . S
C1150 C1151 1.334 . S
C1151 H1128 0.948 1_655 S
C1151 C1150 1.334 . S
C1151 C1152 1.287 1_655 S
C1152 C1151 1.287 1_455 S
C1152 C1153 1.524 . S
C1152 H1171 0.913 . S
C1153 H1129 0.949 . S
C1153 C1152 1.524 . S
C1153 C1154 1.416 1_455 S
C1154 H1130 0.950 . S
C1154 C1149 1.363 . S
C1154 C1153 1.416 1_655 S
C1155 H1131 0.951 . S
C1155 C1156 1.366 . S
C1155 C1157 1.388 . S
C1156 C1155 1.366 . S
C1156 C1160 1.385 . S
C1157 H1132 0.951 . S
C1157 C1155 1.388 . S
C1157 C1158 1.366 . S
C1158 C1157 1.366 . S
C1158 C1159 1.414 . S
C1158 C1161 1.499 . S
C1159 H1133 0.950 . S
C1159 C1158 1.414 . S
C1159 C1160 1.374 . S
C1160 H1134 0.950 . S
C1160 C1156 1.385 . S
C1160 C1159 1.374 . S
C1161 C1158 1.499 . S
C1161 C1162 1.373 . S
C1161 C1163 1.389 . S
C1162 H1135 0.950 . S
C1162 C1148 1.377 . S
C1162 C1161 1.373 . S
C1163 C1147 1.377 . S
C1163 C1161 1.389 . S
C1163 C1164 1.524 . S
C1164 C1163 1.524 . S
C1164 C1165 1.397 . S
C1164 C1169 1.363 . S
C1165 H1136 0.950 . S
C1165 C1164 1.397 . S
C1165 C1166 1.334 . S
C1166 H1137 0.950 . S
C1166 C1165 1.334 . S
C1166 C1167 1.287 . S
C1167 C1166 1.287 . S
C1167 C1168 1.524 . S
C1167 H1170 0.999 . S
C1168 H1138 0.950 . S
C1168 C1167 1.524 . S
C1168 C1169 1.415 . S
C1169 H1139 0.950 . S
C1169 C1164 1.363 . S
C1169 C1168 1.415 . S
H1170 C1167 0.999 . S
H1171 C1152 0.913 . S
H1172 C1190 0.951 . S
H1173 C1192 0.951 . S
H1174 C1194 0.950 . S
H1175 C1195 0.950 . S
H1176 C1197 0.950 . S
H1177 C1200 0.950 . S
H1178 C1201 0.950 . S
H1179 C1203 0.950 . S
H1180 C1204 0.950 . S
H1181 C1205 0.951 . S
H1182 C1207 0.951 . S
H1183 C1209 0.950 . S
H1184 C1210 0.950 . S
H1185 C1212 0.950 . S
H1186 C1215 0.950 . S
H1187 C1216 0.950 . S
H1188 C1218 0.950 . S
H1189 C1219 0.950 . S
C1190 H1172 0.951 . S
C1190 C1191 1.366 . S
C1190 C1192 1.388 . S
C1191 C1190 1.366 . S
C1191 C1195 1.385 . S
C1192 H1173 0.951 . S
C1192 C1190 1.388 . S
C1192 C1193 1.366 . S
C1193 C1192 1.366 . S
C1193 C1194 1.414 . S
C1193 C1196 1.499 . S
C1194 H1174 0.950 . S
C1194 C1193 1.414 . S
C1194 C1195 1.374 . S
C1195 H1175 0.950 . S
C1195 C1191 1.385 . S
C1195 C1194 1.374 . S
C1196 C1193 1.499 . S
C1196 C1197 1.373 . S
C1196 C1198 1.389 . S
C1197 H1176 0.950 . S
C1197 C1196 1.373 . S
C1197 C1213 1.377 . S
C1198 C1196 1.389 . S
C1198 C1199 1.524 . S
C1198 C1212 1.377 . S
C1199 C1198 1.524 . S
C1199 C1200 1.397 . S
C1199 C1204 1.363 . S
C1200 H1177 0.950 . S
C1200 C1199 1.397 . S
C1200 C1201 1.334 . S
C1201 H1178 0.950 . S
C1201 C1200 1.334 . S
C1201 C1202 1.287 . S
C1202 C1201 1.287 . S
C1202 C1203 1.524 . S
C1202 H1221 0.913 . S
C1203 H1179 0.950 . S
C1203 C1202 1.524 . S
C1203 C1204 1.415 . S
C1204 H1180 0.950 . S
C1204 C1199 1.363 . S
C1204 C1203 1.415 . S
C1205 H1181 0.951 . S
C1205 C1206 1.366 . S
C1205 C1207 1.388 . S
C1206 C1205 1.366 . S
C1206 C1210 1.385 . S
C1207 H1182 0.951 . S
C1207 C1205 1.388 . S
C1207 C1208 1.366 . S
C1208 C1207 1.366 . S
C1208 C1209 1.414 . S
C1208 C1211 1.499 . S
C1209 H1183 0.950 . S
C1209 C1208 1.414 . S
C1209 C1210 1.374 . S
C1210 H1184 0.950 . S
C1210 C1206 1.385 . S
C1210 C1209 1.374 . S
C1211 C1208 1.499 . S
C1211 C1212 1.373 . S
C1211 C1213 1.389 . S
C1212 H1185 0.950 . S
C1212 C1198 1.377 . S
C1212 C1211 1.373 . S
C1213 C1197 1.377 . S
C1213 C1211 1.389 . S
C1213 C1214 1.524 . S
C1214 C1213 1.524 . S
C1214 C1215 1.397 . S
C1214 C1219 1.363 . S
C1215 H1186 0.950 . S
C1215 C1214 1.397 . S
C1215 C1216 1.334 . S
C1216 H1187 0.950 . S
C1216 C1215 1.334 . S
C1216 C1217 1.287 . S
C1217 C1216 1.287 . S
C1217 C1218 1.524 . S
C1217 H1220 0.999 . S
C1218 H1188 0.950 . S
C1218 C1217 1.524 . S
C1218 C1219 1.415 . S
C1219 H1189 0.950 . S
C1219 C1214 1.363 . S
C1219 C1218 1.415 . S
H1220 C1217 0.999 . S
H1221 C1202 0.913 . S
H1222 C1240 0.951 . S
H1223 C1242 0.951 . S
H1224 C1244 0.950 . S
H1225 C1245 0.950 . S
H1226 C1247 0.950 . S
H1227 C1250 0.950 . S
H1228 C1251 0.950 . S
H1229 C1253 0.950 . S
H1230 C1254 0.950 . S
H1231 C1255 0.951 . S
H1232 C1257 0.951 . S
H1233 C1259 0.950 . S
H1234 C1260 0.950 . S
H1235 C1262 0.950 . S
H1236 C1265 0.950 . S
H1237 C1266 0.950 . S
H1238 C1268 0.950 . S
H1239 C1269 0.950 . S
C1240 H1222 0.951 . S
C1240 C1241 1.366 . S
C1240 C1242 1.388 . S
C1241 C1240 1.366 . S
C1241 C1245 1.385 . S
C1242 H1223 0.951 . S
C1242 C1240 1.388 . S
C1242 C1243 1.366 . S
C1243 C1242 1.366 . S
C1243 C1244 1.414 . S
C1243 C1246 1.499 . S
C1244 H1224 0.950 . S
C1244 C1243 1.414 . S
C1244 C1245 1.374 . S
C1245 H1225 0.950 . S
C1245 C1241 1.385 . S
C1245 C1244 1.374 . S
C1246 C1243 1.499 . S
C1246 C1247 1.373 . S
C1246 C1248 1.389 . S
C1247 H1226 0.950 . S
C1247 C1246 1.373 . S
C1247 C1263 1.377 . S
C1248 C1246 1.389 . S
C1248 C1249 1.524 . S
C1248 C1262 1.377 . S
C1249 C1248 1.524 . S
C1249 C1250 1.397 . S
C1249 C1254 1.363 . S
C1250 H1227 0.950 . S
C1250 C1249 1.397 . S
C1250 C1251 1.334 . S
C1251 H1228 0.950 . S
C1251 C1250 1.334 . S
C1251 C1252 1.287 . S
C1252 C1251 1.287 . S
C1252 C1253 1.524 . S
C1252 H1271 0.913 . S
C1253 H1229 0.950 . S
C1253 C1252 1.524 . S
C1253 C1254 1.415 . S
C1254 H1230 0.950 . S
C1254 C1249 1.363 . S
C1254 C1253 1.415 . S
C1255 H1231 0.951 . S
C1255 C1256 1.366 . S
C1255 C1257 1.388 1_655 S
C1256 C1255 1.366 . S
C1256 C1260 1.385 . S
C1257 H1232 0.951 . S
C1257 C1255 1.388 1_455 S
C1257 C1258 1.366 . S
C1258 C1257 1.366 . S
C1258 C1259 1.414 . S
C1258 C1261 1.499 . S
C1259 H1233 0.950 . S
C1259 C1258 1.414 . S
C1259 C1260 1.374 1_455 S
C1260 H1234 0.950 . S
C1260 C1256 1.385 . S
C1260 C1259 1.374 1_655 S
C1261 C1258 1.499 . S
C1261 C1262 1.373 . S
C1261 C1263 1.389 . S
C1262 H1235 0.950 . S
C1262 C1248 1.377 . S
C1262 C1261 1.373 . S
C1263 C1247 1.377 . S
C1263 C1261 1.389 . S
C1263 C1264 1.524 . S
C1264 C1263 1.524 . S
C1264 C1265 1.397 . S
C1264 C1269 1.363 . S
C1265 H1236 0.950 . S
C1265 C1264 1.397 . S
C1265 C1266 1.334 . S
C1266 H1237 0.950 . S
C1266 C1265 1.334 . S
C1266 C1267 1.287 . S
C1267 C1266 1.287 . S
C1267 C1268 1.524 . S
C1267 H1270 0.999 . S
C1268 H1238 0.950 . S
C1268 C1267 1.524 . S
C1268 C1269 1.415 . S
C1269 H1239 0.950 . S
C1269 C1264 1.363 . S
C1269 C1268 1.415 . S
H1270 C1267 0.999 . S
H1271 C1252 0.913 . S
C291 C175 1.366 . S
C306 C5 1.366 . S
C341 C209 1.366 . S
C356 C39 1.366 . S
C391 C73 1.367 . S
C406 C243 1.366 . S
C441 C141 1.367 . S
C456 C107 1.366 . S
C491 C271 1.395 . S
C506 C33 1.396 . S
C541 C67 1.395 . S
C556 C169 1.395 . S
C591 C203 1.395 . S
C606 C101 1.396 . S
C641 C135 1.396 . S
C656 C237 1.396 . S
C691 C258 1.357 . S
C706 C20 1.357 . S
C741 C54 1.357 . S
C756 C156 1.357 . S
C791 C190 1.357 . S
C806 C88 1.357 . S
C841 C224 1.357 . S
C856 C122 1.357 . S
C891 C9 1.642 1_556 S
C906 C104 1.666 . S
C941 C2 1.667 . S
C956 C43 1.642 . S
C991 C36 1.666 . S
C1006 C77 1.642 . S
C1041 C70 1.666 . S
C1056 C111 1.642 . S
C1091 C145 1.642 . S
C1106 C172 1.666 . S
C1141 C206 1.666 . S
C1156 C179 1.642 . S
C1191 C240 1.667 . S
C1206 C213 1.642 . S
C1241 C247 1.642 . S
C1256 C138 1.667 . S
