# Generated by pormake.
# Topology fst, (5)-cn, num edge types: 1
# Building blocks:
#     Node 0, Type 0, BuildingBlock: XOMCOT_clean_sbu_0, # of connection points: 5
#     Node 1, Type 0, BuildingBlock: XOMCOT_clean_sbu_0, # of connection points: 5
#     Node 2, Type 0, BuildingBlock: XOMCOT_clean_sbu_0, # of connection points: 5
#     Node 3, Type 0, BuildingBlock: XOMCOT_clean_sbu_0, # of connection points: 5
#     Node 4, Type 0, BuildingBlock: XOMCOT_clean_sbu_0, # of connection points: 5
#     Node 5, Type 0, BuildingBlock: XOMCOT_clean_sbu_0, # of connection points: 5
#     Node 6, Type 0, BuildingBlock: XOMCOT_clean_sbu_0, # of connection points: 5
#     Node 7, Type 0, BuildingBlock: XOMCOT_clean_sbu_0, # of connection points: 5
#     Node 8, Type 0, BuildingBlock: XOMCOT_clean_sbu_0, # of connection points: 5
#     Node 9, Type 0, BuildingBlock: XOMCOT_clean_sbu_0, # of connection points: 5
#     Node 10, Type 0, BuildingBlock: XOMCOT_clean_sbu_0, # of connection points: 5
#     Node 11, Type 0, BuildingBlock: XOMCOT_clean_sbu_0, # of connection points: 5
#     Edge 12, Type (0, 0), BuildingBlock: KIFKEQ_clean_linker_1, # of connection points: 2
#     Edge 13, Type (0, 0), BuildingBlock: KIFKEQ_clean_linker_1, # of connection points: 2
#     Edge 14, Type (0, 0), BuildingBlock: KIFKEQ_clean_linker_1, # of connection points: 2
#     Edge 15, Type (0, 0), BuildingBlock: KIFKEQ_clean_linker_1, # of connection points: 2
#     Edge 16, Type (0, 0), BuildingBlock: KIFKEQ_clean_linker_1, # of connection points: 2
#     Edge 17, Type (0, 0), BuildingBlock: KIFKEQ_clean_linker_1, # of connection points: 2
#     Edge 18, Type (0, 0), BuildingBlock: KIFKEQ_clean_linker_1, # of connection points: 2
#     Edge 19, Type (0, 0), BuildingBlock: KIFKEQ_clean_linker_1, # of connection points: 2
#     Edge 20, Type (0, 0), BuildingBlock: KIFKEQ_clean_linker_1, # of connection points: 2
#     Edge 21, Type (0, 0), BuildingBlock: KIFKEQ_clean_linker_1, # of connection points: 2
#     Edge 22, Type (0, 0), BuildingBlock: KIFKEQ_clean_linker_1, # of connection points: 2
#     Edge 23, Type (0, 0), BuildingBlock: KIFKEQ_clean_linker_1, # of connection points: 2
#     Edge 24, Type (0, 0), BuildingBlock: KIFKEQ_clean_linker_1, # of connection points: 2
#     Edge 25, Type (0, 0), BuildingBlock: KIFKEQ_clean_linker_1, # of connection points: 2
#     Edge 26, Type (0, 0), BuildingBlock: KIFKEQ_clean_linker_1, # of connection points: 2
#     Edge 27, Type (0, 0), BuildingBlock: KIFKEQ_clean_linker_1, # of connection points: 2
#     Edge 28, Type (0, 0), BuildingBlock: KIFKEQ_clean_linker_1, # of connection points: 2
#     Edge 29, Type (0, 0), BuildingBlock: KIFKEQ_clean_linker_1, # of connection points: 2
#     Edge 30, Type (0, 0), BuildingBlock: KIFKEQ_clean_linker_1, # of connection points: 2
#     Edge 31, Type (0, 0), BuildingBlock: KIFKEQ_clean_linker_1, # of connection points: 2
#     Edge 32, Type (0, 0), BuildingBlock: KIFKEQ_clean_linker_1, # of connection points: 2
#     Edge 33, Type (0, 0), BuildingBlock: KIFKEQ_clean_linker_1, # of connection points: 2
#     Edge 34, Type (0, 0), BuildingBlock: KIFKEQ_clean_linker_1, # of connection points: 2
#     Edge 35, Type (0, 0), BuildingBlock: KIFKEQ_clean_linker_1, # of connection points: 2
#     Edge 36, Type (0, 0), BuildingBlock: KIFKEQ_clean_linker_1, # of connection points: 2
#     Edge 37, Type (0, 0), BuildingBlock: KIFKEQ_clean_linker_1, # of connection points: 2
#     Edge 38, Type (0, 0), BuildingBlock: KIFKEQ_clean_linker_1, # of connection points: 2
#     Edge 39, Type (0, 0), BuildingBlock: KIFKEQ_clean_linker_1, # of connection points: 2
#     Edge 40, Type (0, 0), BuildingBlock: KIFKEQ_clean_linker_1, # of connection points: 2
#     Edge 41, Type (0, 0), BuildingBlock: KIFKEQ_clean_linker_1, # of connection points: 2
# Relax obj value: 0.183
# Max RMSD: 0.161
# Mean RMSD: 0.161
data_MOF--net-fst--node1-XOMCOT_clean_sbu_0--edge1-KIFKEQ_clean_linker_1
_symmetry_space_group_name_H-M    P1
_symmetry_Int_Tables_number       1
_symmetry_cell_setting            triclinic
loop_
_symmetry_equiv_pos_as_xyz
'x, y, z'
_cell_length_a     75.002581
_cell_length_b     74.931166
_cell_length_c     17.90299
_cell_angle_alpha  89.881867
_cell_angle_beta   90.162472
_cell_angle_gamma 120.10012
loop_
_atom_site_label
_atom_site_type_symbol
_atom_site_fract_x
_atom_site_fract_y
_atom_site_fract_z
_atom_type_partial_charge
Co0 Co 0.11718 0.42815 0.05539 0.0
C1 C 0.11976 0.42698 0.22252 0.0
C2 C 0.10206 0.39704 0.17287 0.0
C3 C 0.10249 0.39463 0.24882 0.0
N4 N 0.11273 0.4173 0.15623 0.0
N5 N 0.11362 0.41344 0.28015 0.0
H6 H 0.12955 0.44343 0.22874 0.0
H7 H 0.09459 0.38479 0.13229 0.0
C8 C 0.07487 0.40177 0.98057 0.0
O9 O 0.0808 0.41185 0.91718 0.0
N10 N 0.12205 0.4389 0.95367 0.0
C11 C 0.12843 0.45854 0.93311 0.0
C12 C 0.13174 0.46047 0.85746 0.0
C13 C 0.12233 0.42935 0.88986 0.0
N14 N 0.12781 0.44212 0.83005 0.0
C15 C 0.12559 0.46684 0.11849 0.0
C16 C 0.09074 0.46617 0.06437 0.0
C17 C 0.10691 0.48482 0.09186 0.0
C18 C 0.12405 0.48466 0.12275 0.0
C19 C 0.09275 0.44862 0.06218 0.0
N20 N 0.11046 0.44928 0.08543 0.0
H21 H 0.13976 0.4678 0.13665 0.0
H22 H 0.08045 0.43518 0.03649 0.0
H23 H 0.13088 0.47092 0.97 0.0
H24 H 0.11841 0.41336 0.88725 0.0
O25 O 0.1466 0.44331 0.07172 0.0
O26 O 0.12911 0.41118 0.03039 0.0
O27 O 0.08719 0.4071 0.03622 0.0
C28 C 0.14679 0.4269 0.04949 0.0
H29 H 0.09496 0.38011 0.27862 0.0
H30 H 0.13633 0.4743 0.82495 0.0
H31 H 0.07716 0.46534 0.03965 0.0
H32 H 0.13674 0.49848 0.14663 0.0
Co33 Co 0.68537 0.1201 0.05942 0.0
C34 C 0.68395 0.11716 0.22507 0.0
C35 C 0.69468 0.09834 0.17426 0.0
C36 C 0.69504 0.09636 0.25047 0.0
N37 N 0.68769 0.1113 0.15845 0.0
N38 N 0.68827 0.10815 0.28272 0.0
H39 H 0.67826 0.12779 0.23083 0.0
H40 H 0.69958 0.09115 0.1331 0.0
C41 C 0.6576 0.07895 0.98598 0.0
O42 O 0.64738 0.08679 0.95298 0.0
N43 N 0.68375 0.12911 0.9584 0.0
C44 C 0.68506 0.14718 0.93897 0.0
C45 C 0.68612 0.14913 0.86265 0.0
C46 C 0.68493 0.12079 0.89278 0.0
N47 N 0.68596 0.13251 0.83357 0.0
C48 C 0.6554 0.13261 0.08296 0.0
C49 C 0.62182 0.09377 0.10512 0.0
C50 C 0.61856 0.11042 0.09337 0.0
C51 C 0.63575 0.13019 0.08631 0.0
C52 C 0.64193 0.09705 0.10333 0.0
N53 N 0.65814 0.11593 0.08423 0.0
H54 H 0.66837 0.14796 0.07787 0.0
H55 H 0.64428 0.0842 0.11427 0.0
H56 H 0.68647 0.15894 0.97698 0.0
H57 H 0.68594 0.10693 0.88832 0.0
O58 O 0.70186 0.14848 0.0899 0.0
O59 O 0.71442 0.12979 0.0425 0.0
O60 O 0.67343 0.09045 0.0259 0.0
C61 C 0.71788 0.14749 0.06845 0.0
H62 H 0.70049 0.08734 0.2796 0.0
H63 H 0.68725 0.16198 0.83103 0.0
H64 H 0.60896 0.07836 0.11438 0.0
H65 H 0.634 0.14361 0.07987 0.0
Co66 Co 0.57358 0.692 0.06613 0.0
C67 C 0.57536 0.69219 0.23467 0.0
C68 C 0.60485 0.70954 0.18207 0.0
C69 C 0.60777 0.71085 0.25797 0.0
N70 N 0.58457 0.69781 0.16714 0.0
N71 N 0.58924 0.69987 0.29121 0.0
H72 H 0.55907 0.68235 0.24287 0.0
H73 H 0.61679 0.71661 0.14024 0.0
C74 C 0.59302 0.66685 0.09089 0.0
O75 O 0.58236 0.66148 0.15314 0.0
N76 N 0.56315 0.68713 0.96526 0.0
C77 C 0.54392 0.6825 0.946 0.0
C78 C 0.5425 0.6823 0.86963 0.0
C79 C 0.57328 0.68976 0.90041 0.0
N80 N 0.56094 0.68693 0.84105 0.0
C81 C 0.53387 0.66423 0.13085 0.0
C82 C 0.5285 0.62948 0.05711 0.0
C83 C 0.51199 0.62832 0.09707 0.0
C84 C 0.5148 0.64594 0.13463 0.0
C85 C 0.54702 0.64807 0.05329 0.0
N86 N 0.54992 0.66513 0.09158 0.0
H87 H 0.53529 0.678 0.15574 0.0
H88 H 0.55845 0.64898 1.01463 0.0
H89 H 0.53188 0.67999 0.98493 0.0
H90 H 0.58946 0.69447 0.89678 0.0
O91 O 0.56118 0.70877 0.08237 0.0
O92 O 0.59289 0.72062 0.04038 0.0
O93 O 0.59141 0.67916 0.045 0.0
C94 C 0.57831 0.72438 0.05914 0.0
H95 H 0.62245 0.71948 0.28618 0.0
H96 H 0.52901 0.67923 0.83749 0.0
H97 H 0.52668 0.61647 0.02464 0.0
H98 H 0.50218 0.64576 0.16462 0.0
Co99 Co 0.88626 0.57197 0.06099 0.0
C100 C 0.88894 0.5737 0.22669 0.0
C101 C 0.90792 0.60323 0.17525 0.0
C102 C 0.90991 0.60564 0.25144 0.0
N103 N 0.89485 0.58325 0.15986 0.0
N104 N 0.89801 0.58707 0.28408 0.0
H105 H 0.87827 0.55735 0.23279 0.0
H106 H 0.91525 0.61528 0.13379 0.0
C107 C 0.92723 0.58416 0.98938 0.0
O108 O 0.91887 0.56606 0.9565 0.0
N109 N 0.87749 0.56116 0.96009 0.0
C110 C 0.85958 0.54423 0.94049 0.0
C111 C 0.85771 0.54337 0.86413 0.0
C112 C 0.88582 0.57077 0.89453 0.0
N113 N 0.87422 0.56001 0.83521 0.0
C114 C 0.87219 0.52932 0.08974 0.0
C115 C 0.91032 0.53297 0.11134 0.0
C116 C 0.89305 0.51328 0.10153 0.0
C117 C 0.87367 0.51156 0.09482 0.0
C118 C 0.90799 0.55037 0.10758 0.0
N119 N 0.88941 0.54842 0.08863 0.0
H120 H 0.85711 0.52758 0.08504 0.0
H121 H 0.9213 0.56539 0.11718 0.0
H122 H 0.84783 0.53373 0.9783 0.0
H123 H 0.89959 0.58575 0.89025 0.0
O124 O 0.85791 0.56075 0.08938 0.0
O125 O 0.87734 0.59185 0.0409 0.0
O126 O 0.91609 0.58898 0.02893 0.0
C127 C 0.85939 0.57785 0.06605 0.0
H128 H 0.91905 0.62013 0.28025 0.0
H129 H 0.84495 0.53155 0.83238 0.0
H130 H 0.92547 0.53489 0.12049 0.0
H131 H 0.8598 0.49664 0.08981 0.0
Co132 Co 0.31392 0.88494 0.02581 0.0
C133 C 0.31614 0.88837 0.19354 0.0
C134 C 0.29534 0.8968 0.14419 0.0
C135 C 0.29526 0.89925 0.22006 0.0
N136 N 0.30846 0.89005 0.12713 0.0
N137 N 0.30834 0.89397 0.25111 0.0
H138 H 0.32731 0.88345 0.20033 0.0
H139 H 0.28621 0.8996 0.10425 0.0
C140 C 0.31624 0.92514 0.98811 0.0
O141 O 0.29656 0.91551 0.97101 0.0
N142 N 0.31917 0.87996 0.92476 0.0
C143 C 0.32566 0.86679 0.90549 0.0
C144 C 0.32801 0.86734 0.82944 0.0
C145 C 0.31738 0.88821 0.86008 0.0
N146 N 0.32284 0.8808 0.80086 0.0
C147 C 0.3442 0.87588 0.08624 0.0
C148 C 0.37778 0.90909 0.02045 0.0
C149 C 0.38042 0.89364 0.05332 0.0
C150 C 0.3635 0.87717 0.08875 0.0
C151 C 0.35838 0.90726 0.01924 0.0
N152 N 0.34169 0.8907 0.05112 0.0
H153 H 0.33103 0.86234 0.10905 0.0
H154 H 0.35684 0.91852 0.98684 0.0
H155 H 0.32839 0.85731 0.94416 0.0
H156 H 0.31236 0.89943 0.85644 0.0
O157 O 0.29878 0.85553 0.04251 0.0
O158 O 0.28489 0.87378 1.00192 0.0
O159 O 0.32506 0.91496 1.00556 0.0
C160 C 0.28247 0.85588 0.02034 0.0
H161 H 0.28594 0.90413 0.25015 0.0
H162 H 0.33271 0.85816 0.79743 0.0
H163 H 0.39045 0.92208 0.99248 0.0
H164 H 0.36484 0.86476 0.11403 0.0
Co165 Co 0.43295 0.31693 0.04756 0.0
C166 C 0.43097 0.31482 0.21416 0.0
C167 C 0.40115 0.30009 0.16212 0.0
C168 C 0.39852 0.29799 0.23819 0.0
N169 N 0.42144 0.3107 0.14704 0.0
N170 N 0.41726 0.30729 0.27119 0.0
H171 H 0.4475 0.32318 0.22109 0.0
H172 H 0.38906 0.29405 0.12041 0.0
C173 C 0.41036 0.33667 0.97167 0.0
O174 O 0.42485 0.34582 0.92119 0.0
N175 N 0.44433 0.32266 0.94702 0.0
C176 C 0.46448 0.33299 0.92895 0.0
C177 C 0.46641 0.33285 0.85285 0.0
C178 C 0.43428 0.31564 0.88115 0.0
N179 N 0.44743 0.32215 0.82236 0.0
C180 C 0.47258 0.34736 0.10438 0.0
C181 C 0.46922 0.38164 0.07321 0.0
C182 C 0.48871 0.38431 0.08862 0.0
C183 C 0.49008 0.36698 0.10866 0.0
C184 C 0.45202 0.36176 0.07118 0.0
N185 N 0.45412 0.34475 0.07979 0.0
H186 H 0.47442 0.33422 0.11524 0.0
H187 H 0.43736 0.36047 0.06104 0.0
H188 H 0.47716 0.33976 0.96777 0.0
H189 H 0.41769 0.30646 0.87651 0.0
O190 O 0.44759 0.30231 0.06744 0.0
O191 O 0.41598 0.288 0.02151 0.0
O192 O 0.41214 0.32581 0.02312 0.0
C193 C 0.43134 0.28581 0.04342 0.0
H194 H 0.38386 0.28984 0.26664 0.0
H195 H 0.48082 0.33982 0.8226 0.0
H196 H 0.46736 0.39478 0.06095 0.0
H197 H 0.50481 0.36838 0.12238 0.0
Co198 Co 0.5717 0.88459 1.00795 0.0
C199 C 0.57343 0.88667 0.84227 0.0
C200 C 0.60262 0.90718 0.89339 0.0
C201 C 0.60491 0.90914 0.81711 0.0
N202 N 0.58291 0.8932 0.90902 0.0
N203 N 0.58656 0.89626 0.78486 0.0
H204 H 0.55728 0.87528 0.83606 0.0
H205 H 0.61457 0.91525 0.93469 0.0
C206 C 0.58367 0.92553 0.08059 0.0
O207 O 0.56571 0.91707 0.11433 0.0
N208 N 0.56085 0.8758 0.10872 0.0
C209 C 0.54317 0.85859 0.1277 0.0
C210 C 0.54164 0.85711 0.20403 0.0
C211 C 0.57032 0.88395 0.17473 0.0
N212 N 0.55862 0.87313 0.23384 0.0
C213 C 0.5291 0.86981 0.97588 0.0
C214 C 0.53165 0.90769 0.96271 0.0
C215 C 0.51217 0.89002 0.97224 0.0
C216 C 0.51106 0.87079 0.97339 0.0
C217 C 0.54935 0.90585 0.96403 0.0
N218 N 0.54792 0.88731 0.97983 0.0
H219 H 0.52778 0.85483 0.97692 0.0
H220 H 0.56416 0.9195 0.95555 0.0
H221 H 0.53242 0.84711 0.08961 0.0
H222 H 0.58544 0.89751 0.17941 0.0
O223 O 0.56089 0.85624 0.9799 0.0
O224 O 0.59189 0.87609 0.0284 0.0
O225 O 0.5884 0.91449 0.03999 0.0
C226 C 0.57813 0.85804 1.00304 0.0
H227 H 0.61913 0.91899 0.78776 0.0
H228 H 0.52926 0.84471 0.23516 0.0
H229 H 0.53336 0.92287 0.95773 0.0
H230 H 0.49637 0.85657 0.97458 0.0
Co231 Co 0.69231 0.57096 1.01628 0.0
C232 C 0.69214 0.57271 0.85051 0.0
C233 C 0.70223 0.60222 0.90124 0.0
C234 C 0.70286 0.60457 0.82492 0.0
N235 N 0.69542 0.58227 0.91715 0.0
N236 N 0.69651 0.58603 0.79289 0.0
H237 H 0.68662 0.55639 0.84454 0.0
H238 H 0.70672 0.61429 0.94238 0.0
C239 C 0.6658 0.58529 0.09294 0.0
O240 O 0.65608 0.5677 0.12926 0.0
N241 N 0.68978 0.55991 0.11704 0.0
C242 C 0.68706 0.54124 0.13563 0.0
C243 C 0.68729 0.53968 0.21193 0.0
C244 C 0.69269 0.56982 0.18308 0.0
N245 N 0.69062 0.55756 0.24205 0.0
C246 C 0.66299 0.52875 0.98092 0.0
C247 C 0.62844 0.53283 0.97728 0.0
C248 C 0.6258 0.51292 0.98284 0.0
C249 C 0.64351 0.5111 0.97905 0.0
C250 C 0.64835 0.55008 0.97742 0.0
N251 N 0.66517 0.54786 0.9885 0.0
H252 H 0.67632 0.52687 0.97923 0.0
H253 H 0.65001 0.56516 0.97146 0.0
H254 H 0.6859 0.52968 0.0972 0.0
H255 H 0.69604 0.58559 0.18781 0.0
O256 O 0.70913 0.55921 0.98905 0.0
O257 O 0.72113 0.59042 0.03674 0.0
O258 O 0.68041 0.58873 0.04809 0.0
C259 C 0.72489 0.57629 1.01223 0.0
H260 H 0.7081 0.61897 0.79544 0.0
H261 H 0.68572 0.52652 0.24271 0.0
H262 H 0.61539 0.53526 0.9763 0.0
H263 H 0.64243 0.49615 0.97703 0.0
Co264 Co 0.12174 0.68646 1.01475 0.0
C265 C 0.11901 0.68531 0.84894 0.0
C266 C 0.10093 0.69687 0.89993 0.0
C267 C 0.09897 0.69733 0.82377 0.0
N268 N 0.11341 0.6893 0.9156 0.0
N269 N 0.11029 0.69002 0.79141 0.0
H270 H 0.12921 0.6791 0.84305 0.0
H271 H 0.09402 0.70204 0.9412 0.0
C272 C 0.08043 0.65881 0.08663 0.0
O273 O 0.08818 0.64859 0.12019 0.0
N274 N 0.13028 0.68431 0.11594 0.0
C275 C 0.14794 0.68484 0.13576 0.0
C276 C 0.14983 0.68586 0.21208 0.0
C277 C 0.12213 0.68589 0.18132 0.0
N278 N 0.13358 0.68645 0.24075 0.0
C279 C 0.13397 0.65629 0.98914 0.0
C280 C 0.09503 0.62289 0.96689 0.0
C281 C 0.11157 0.61945 0.97813 0.0
C282 C 0.1314 0.63656 0.98517 0.0
C283 C 0.09847 0.64307 0.96941 0.0
N284 N 0.1174 0.65917 0.98872 0.0
H285 H 0.14936 0.6692 0.994 0.0
H286 H 0.0857 0.64554 0.95867 0.0
H287 H 0.15955 0.68577 0.09809 0.0
H288 H 0.10861 0.68748 0.18541 0.0
O289 O 0.15031 0.70285 0.98669 0.0
O290 O 0.13156 0.71554 0.03278 0.0
O291 O 0.09201 0.67461 0.04668 0.0
C292 C 0.14933 0.71885 1.00853 0.0
H293 H 0.09028 0.70317 0.79476 0.0
H294 H 0.1624 0.68647 0.24398 0.0
H295 H 0.07959 0.61012 0.95745 0.0
H296 H 0.14475 0.63468 0.99111 0.0
Co297 Co 0.43012 0.1201 1.01559 0.0
C298 C 0.42866 0.12346 0.84932 0.0
C299 C 0.39879 0.10522 0.89845 0.0
C300 C 0.39642 0.10566 0.82247 0.0
N301 N 0.41899 0.11616 0.91533 0.0
N302 N 0.41521 0.11714 0.79128 0.0
H303 H 0.44508 0.13341 0.84382 0.0
H304 H 0.38655 0.0974 0.93876 0.0
C305 C 0.40372 0.07758 0.08911 0.0
O306 O 0.41455 0.08311 0.151 0.0
N307 N 0.44123 0.12445 0.11677 0.0
C308 C 0.46061 0.12951 0.13629 0.0
C309 C 0.46263 0.13155 0.21237 0.0
C310 C 0.43203 0.12448 0.18179 0.0
N311 N 0.44464 0.12819 0.24116 0.0
C312 C 0.46843 0.12803 0.95093 0.0
C313 C 0.46676 0.09225 0.99979 0.0
C314 C 0.48567 0.10847 0.97454 0.0
C315 C 0.48598 0.12608 0.94583 0.0
C316 C 0.44947 0.09466 1.00268 0.0
N317 N 0.45069 0.11288 0.98278 0.0
H318 H 0.46978 0.14252 0.93469 0.0
H319 H 0.43577 0.08219 0.0261 0.0
H320 H 0.47274 0.13177 0.0986 0.0
H321 H 0.41617 0.12088 0.18583 0.0
O322 O 0.44574 0.14958 1.00037 0.0
O323 O 0.41377 0.13253 0.04303 0.0
O324 O 0.40866 0.09016 0.03437 0.0
C325 C 0.42962 0.1501 0.02379 0.0
H326 H 0.38192 0.09774 0.79274 0.0
H327 H 0.47636 0.13527 0.24417 0.0
H328 H 0.46551 0.07825 0.02235 0.0
H329 H 0.49999 0.13882 0.92334 0.0
Co330 Co 0.31526 0.43476 1.01444 0.0
C331 C 0.31784 0.43393 0.84737 0.0
C332 C 0.29909 0.40398 0.89576 0.0
C333 C 0.29928 0.40175 0.81979 0.0
N334 N 0.31081 0.4241 0.91341 0.0
N335 N 0.31107 0.42056 0.78932 0.0
H336 H 0.32772 0.45038 0.84142 0.0
H337 H 0.29063 0.39169 0.93524 0.0
C338 C 0.31911 0.39799 0.05571 0.0
O339 O 0.29935 0.38737 0.07115 0.0
N340 N 0.31956 0.44521 0.11533 0.0
C341 C 0.32443 0.46453 0.13418 0.0
C342 C 0.32656 0.46657 0.21031 0.0
C343 C 0.31854 0.4356 0.18038 0.0
N344 N 0.32289 0.44842 0.23939 0.0
C345 C 0.34411 0.47526 0.95949 0.0
C346 C 0.3786 0.47696 0.02215 0.0
C347 C 0.37994 0.49531 0.99735 0.0
C348 C 0.3626 0.49417 0.96266 0.0
C349 C 0.35985 0.45856 0.0194 0.0
N350 N 0.34261 0.45783 0.9902 0.0
H351 H 0.3306 0.47503 0.93719 0.0
H352 H 0.35927 0.44555 0.04692 0.0
H353 H 0.32615 0.47634 0.09526 0.0
H354 H 0.31485 0.41971 0.18446 0.0
O355 O 0.29903 0.44762 0.99397 0.0
O356 O 0.28632 0.41583 0.03671 0.0
O357 O 0.32749 0.41698 0.03802 0.0
C358 C 0.28305 0.43061 1.01584 0.0
H359 H 0.29092 0.38742 0.7892 0.0
H360 H 0.33009 0.48024 0.24198 0.0
H361 H 0.39169 0.47692 0.04767 0.0
H362 H 0.36284 0.50793 0.94265 0.0
Co363 Co 0.88232 0.31305 0.03446 0.0
C364 C 0.88565 0.31462 0.86673 0.0
C365 C 0.89517 0.29484 0.91771 0.0
C366 C 0.89677 0.29385 0.8417 0.0
N367 N 0.88817 0.30782 0.93382 0.0
N368 N 0.89078 0.30626 0.80966 0.0
H369 H 0.8797 0.32494 0.85889 0.0
H370 H 0.89851 0.28626 0.95836 0.0
C371 C 0.92226 0.3156 0.07683 0.0
O372 O 0.91254 0.29589 0.0938 0.0
N373 N 0.87654 0.31801 0.13483 0.0
C374 C 0.86233 0.32319 0.15301 0.0
C375 C 0.86211 0.325 0.2292 0.0
C376 C 0.88478 0.31665 0.20019 0.0
N377 N 0.87625 0.32094 0.25914 0.0
C378 C 0.87333 0.34321 0.97208 0.0
C379 C 0.90634 0.37703 0.03779 0.0
C380 C 0.89131 0.37978 1.00166 0.0
C381 C 0.87482 0.36258 0.96708 0.0
C382 C 0.90431 0.35754 0.04141 0.0
N383 N 0.88796 0.34078 1.0089 0.0
H384 H 0.85988 0.32997 0.94911 0.0
H385 H 0.91523 0.35602 0.07599 0.0
H386 H 0.85256 0.32524 0.11353 0.0
H387 H 0.8967 0.3126 0.20435 0.0
O388 O 0.8531 0.29758 1.01429 0.0
O389 O 0.87128 0.28404 0.05841 0.0
O390 O 0.91219 0.32441 0.05779 0.0
C391 C 0.85345 0.28131 0.03732 0.0
H392 H 0.90195 0.28468 0.81226 0.0
H393 H 0.85184 0.32848 0.26002 0.0
H394 H 0.91895 0.38957 0.06776 0.0
H395 H 0.86279 0.3639 0.93851 0.0
H396 H 0.13229 0.60269 0.90979 0.0
H397 H 0.08403 0.58892 0.06912 0.0
H398 H 0.13009 0.56978 0.93732 0.0
H399 H 0.08231 0.55633 0.09945 0.0
H400 H 0.07387 0.49146 0.09644 0.0
H401 H 0.07344 0.52272 0.0627 0.0
H402 H 0.13947 0.55457 0.03215 0.0
H403 H 0.13969 0.52307 0.05993 0.0
C404 C 0.12114 0.59252 0.95052 0.0
C405 C 0.10834 0.59834 0.98732 0.0
C406 C 0.12 0.57373 0.96702 0.0
C407 C 0.10627 0.56043 0.02175 0.0
C408 C 0.09295 0.56599 0.05658 0.0
C409 C 0.0939 0.58468 0.03921 0.0
C410 C 0.08829 0.50508 0.08197 0.0
C411 C 0.1068 0.50455 0.08078 0.0
C412 C 0.08807 0.52314 0.06335 0.0
C413 C 0.10638 0.54123 0.04372 0.0
C414 C 0.12496 0.54087 0.04511 0.0
C415 C 0.12515 0.5228 0.06279 0.0
H416 H 0.60186 0.13104 0.16259 0.0
H417 H 0.58831 0.08346 1.00008 0.0
H418 H 0.5693 0.1294 0.13382 0.0
H419 H 0.55609 0.08236 0.96834 0.0
H420 H 0.49172 0.07503 0.96727 0.0
H421 H 0.52246 0.07381 1.00236 0.0
H422 H 0.55496 0.1397 0.03914 0.0
H423 H 0.52394 0.14066 1.01024 0.0
C424 C 0.5918 0.12014 0.12093 0.0
C425 C 0.59758 0.10738 0.08358 0.0
C426 C 0.57323 0.11934 0.10368 0.0
C427 C 0.56012 0.10602 0.04756 0.0
C428 C 0.56562 0.09269 1.01223 0.0
C429 C 0.58408 0.09329 0.0304 0.0
C430 C 0.50536 0.08925 0.98341 0.0
C431 C 0.50515 0.10793 0.98605 0.0
C432 C 0.52313 0.08858 1.00281 0.0
C433 C 0.54125 0.10661 0.02464 0.0
C434 C 0.54122 0.12537 0.02454 0.0
C435 C 0.52343 0.126 1.00617 0.0
H436 H 0.39865 0.5305 0.91062 0.0
H437 H 0.40334 0.50611 0.12424 0.0
H438 H 0.42963 0.56333 0.94061 0.0
H439 H 0.43438 0.53848 0.1526 0.0
H440 H 0.50308 0.58889 0.12233 0.0
H441 H 0.47044 0.55718 0.09968 0.0
H442 H 0.44239 0.59312 0.03557 0.0
H443 H 0.47518 0.62494 0.05844 0.0
C444 C 0.40619 0.53212 0.96389 0.0
C445 C 0.39867 0.51548 1.0143 0.0
C446 C 0.4239 0.5509 0.98106 0.0
C447 C 0.43447 0.55336 0.04872 0.0
C448 C 0.42675 0.53691 0.09953 0.0
C449 C 0.40902 0.51828 0.08282 0.0
C450 C 0.48985 0.58998 0.10438 0.0
C451 C 0.49158 0.60931 0.09256 0.0
C452 C 0.47119 0.57188 0.09149 0.0
C453 C 0.45392 0.57271 0.06555 0.0
C454 C 0.45552 0.59205 0.05497 0.0
C455 C 0.47416 0.61021 0.06891 0.0
H456 H 0.9252 0.41872 0.99648 0.0
H457 H 0.85899 0.38664 0.02171 0.0
H458 H 0.92681 0.45121 0.02507 0.0
H459 H 0.86046 0.41927 0.04526 0.0
H460 H 0.87027 0.47577 0.16919 0.0
H461 H 0.8704 0.44397 0.14184 0.0
H462 H 0.9196 0.47681 0.98282 0.0
H463 H 0.91983 0.50869 1.01237 0.0
C464 C 0.91094 0.4186 1.00724 0.0
C465 C 0.89198 0.39995 1.00744 0.0
C466 C 0.91185 0.43731 0.02295 0.0
C467 C 0.8938 0.43792 0.03854 0.0
C468 C 0.87475 0.41938 0.03534 0.0
C469 C 0.87386 0.40065 0.02033 0.0
C470 C 0.88127 0.47618 0.1291 0.0
C471 C 0.89505 0.49468 0.09296 0.0
C472 C 0.88121 0.45793 0.11274 0.0
C473 C 0.89477 0.45767 0.05911 0.0
C474 C 0.90904 0.47639 0.02485 0.0
C475 C 0.90924 0.4947 0.04189 0.0
H476 H 0.40267 0.90119 0.9257 0.0
H477 H 0.40263 0.88635 0.1588 0.0
H478 H 0.43474 0.90114 0.90745 0.0
H479 H 0.4352 0.88684 0.14131 0.0
H480 H 0.48002 0.86635 0.0653 0.0
H481 H 0.44876 0.86765 0.08522 0.0
H482 H 0.47063 0.91919 0.93279 0.0
H483 H 0.50147 0.91701 0.90898 0.0
C484 C 0.40974 0.89823 0.97341 0.0
C485 C 0.40021 0.89389 0.04385 0.0
C486 C 0.42819 0.89827 0.963 0.0
C487 C 0.4377 0.89409 0.02288 0.0
C488 C 0.42819 0.88984 0.0936 0.0
C489 C 0.40957 0.88962 0.10383 0.0
C490 C 0.47807 0.87776 0.03484 0.0
C491 C 0.49323 0.89138 0.98452 0.0
C492 C 0.46023 0.87875 0.04745 0.0
C493 C 0.45709 0.89354 1.01081 0.0
C494 C 0.47237 0.9074 0.9613 0.0
C495 C 0.49021 0.90631 0.94821 0.0
H496 H 0.61695 0.47858 0.06513 0.0
H497 H 0.5874 0.50505 0.93414 0.0
H498 H 0.58381 0.44861 0.09024 0.0
H499 H 0.5539 0.47567 0.96496 0.0
H500 H 0.49874 0.40953 0.96764 0.0
H501 H 0.53131 0.44077 0.94163 0.0
H502 H 0.5539 0.4364 0.15957 0.0
H503 H 0.52159 0.40455 0.1834 0.0
C504 C 0.60342 0.47805 0.04119 0.0
C505 C 0.6051 0.49435 0.9967 0.0
C506 C 0.58422 0.46092 0.05717 0.0
C507 C 0.56596 0.45963 0.03049 0.0
C508 C 0.56756 0.47592 0.98607 0.0
C509 C 0.58686 0.49299 0.9691 0.0
C510 C 0.51061 0.41545 1.01028 0.0
C511 C 0.50765 0.40462 0.07753 0.0
C512 C 0.52932 0.43342 0.9955 0.0
C513 C 0.54548 0.44119 0.0481 0.0
C514 C 0.54212 0.43069 0.11671 0.0
C515 C 0.52352 0.41252 0.13088 0.0
H516 H 0.24644 0.39777 0.06408 0.0
H517 H 0.2731 0.45933 0.97316 0.0
H518 H 0.21295 0.39598 0.07284 0.0
H519 H 0.23988 0.45743 0.98077 0.0
H520 H 0.18528 0.45765 0.08638 0.0
H521 H 0.21754 0.45742 0.07862 0.0
H522 H 0.18482 0.3949 0.99554 0.0
H523 H 0.1523 0.39502 1.00445 0.0
C524 C 0.24512 0.41083 0.04554 0.0
C525 C 0.26244 0.42873 0.01837 0.0
C526 C 0.22595 0.40978 0.05026 0.0
C527 C 0.22378 0.42665 0.02816 0.0
C528 C 0.24107 0.44432 0.99964 0.0
C529 C 0.26012 0.44535 0.99485 0.0
C530 C 0.18492 0.44382 0.06654 0.0
C531 C 0.16624 0.42639 0.04567 0.0
C532 C 0.20344 0.44372 0.06173 0.0
C533 C 0.2038 0.42619 0.03586 0.0
C534 C 0.18506 0.40859 1.01614 0.0
C535 C 0.16646 0.4087 0.02085 0.0
H536 H 0.81459 0.27261 1.00271 0.0
H537 H 0.84895 0.24399 0.07993 0.0
H538 H 0.78273 0.23971 1.01206 0.0
H539 H 0.81676 0.21083 0.09001 0.0
H540 H 0.75449 0.15168 0.01881 0.0
H541 H 0.78802 0.18356 1.01175 0.0
H542 H 0.76149 0.21709 0.11352 0.0
H543 H 0.72823 0.18558 0.11988 0.0
C544 C 0.81536 0.25927 0.02168 0.0
C545 C 0.83431 0.26095 0.04095 0.0
C546 C 0.79705 0.24041 0.02746 0.0
C547 C 0.79716 0.22267 0.05255 0.0
C548 C 0.81617 0.2242 0.07027 0.0
C549 C 0.83457 0.24319 0.0648 0.0
C550 C 0.75591 0.16585 0.04021 0.0
C551 C 0.73867 0.16612 0.06942 0.0
C552 C 0.77511 0.18408 0.03636 0.0
C553 C 0.77735 0.20291 0.06124 0.0
C554 C 0.76021 0.20295 0.09252 0.0
C555 C 0.74115 0.18482 0.09657 0.0
H556 H 0.5491 0.73461 0.0881 0.0
H557 H 0.61222 0.76092 1.0151 0.0
H558 H 0.55122 0.76778 0.072 0.0
H559 H 0.61429 0.79451 0.99865 0.0
H560 H 0.61033 0.85469 0.06222 0.0
H561 H 0.61228 0.82303 0.07495 0.0
H562 H 0.55407 0.78885 0.95969 0.0
H563 H 0.55204 0.82004 0.9473 0.0
C564 C 0.56349 0.74751 0.06877 0.0
C565 C 0.58045 0.74507 0.05236 0.0
C566 C 0.56466 0.76653 0.05922 0.0
C567 C 0.58284 0.78369 0.03319 0.0
C568 C 0.60009 0.78153 0.01885 0.0
C569 C 0.59887 0.76232 0.02799 0.0
C570 C 0.59811 0.84044 0.03888 0.0
C571 C 0.58093 0.83983 1.00447 0.0
C572 C 0.59926 0.82236 0.04601 0.0
C573 C 0.58317 0.80342 0.01927 0.0
C574 C 0.56651 0.80312 0.98213 0.0
C575 C 0.56541 0.82106 0.9748 0.0
H576 H 0.7612 0.60992 0.05856 0.0
H577 H 0.73566 0.54798 0.97267 0.0
H578 H 0.79486 0.61221 0.07256 0.0
H579 H 0.76903 0.55032 0.98648 0.0
H580 H 0.85584 0.61033 1.01093 0.0
H581 H 0.82396 0.61172 0.99598 0.0
H582 H 0.78951 0.55175 0.09924 0.0
H583 H 0.82094 0.55031 0.11406 0.0
C584 C 0.76281 0.5969 0.04201 0.0
C585 C 0.74573 0.57871 1.01502 0.0
C586 C 0.78207 0.59825 0.04982 0.0
C587 C 0.7845 0.58135 0.03147 0.0
C588 C 0.76755 0.56347 1.00228 0.0
C589 C 0.74844 0.56218 0.99402 0.0
C590 C 0.84146 0.59759 0.03112 0.0
C591 C 0.8409 0.58015 0.06315 0.0
C592 C 0.82325 0.59839 0.02265 0.0
C593 C 0.80421 0.5817 0.04544 0.0
C594 C 0.80387 0.56467 0.0798 0.0
C595 C 0.82195 0.56392 0.08866 0.0
H596 H 0.15279 0.75673 0.98592 0.0
H597 H 0.18807 0.72722 0.03698 0.0
H598 H 0.18452 0.79034 0.98409 0.0
H599 H 0.21938 0.76046 0.04152 0.0
H600 H 0.27596 0.81844 0.97932 0.0
H601 H 0.24356 0.7862 0.97185 0.0
H602 H 0.2113 0.81728 0.04671 0.0
H603 H 0.24395 0.84999 0.04772 0.0
C604 C 0.16735 0.75753 0.99764 0.0
C605 C 0.16808 0.73943 1.01053 0.0
C606 C 0.18557 0.7768 0.99717 0.0
C607 C 0.20484 0.77837 1.01161 0.0
C608 C 0.20518 0.7601 0.02721 0.0
C609 C 0.18714 0.74093 0.0254 0.0
C610 C 0.26189 0.81834 0.99373 0.0
C611 C 0.26242 0.83662 1.01449 0.0
C612 C 0.24322 0.79976 0.99032 0.0
C613 C 0.22455 0.79874 1.01027 0.0
C614 C 0.22515 0.81727 0.03013 0.0
C615 C 0.24388 0.83605 0.03124 0.0
H616 H 0.39811 0.15612 0.06858 0.0
H617 H 0.46066 0.18848 0.98666 0.0
H618 H 0.39808 0.18873 0.0741 0.0
H619 H 0.46053 0.22088 0.99096 0.0
H620 H 0.39949 0.24849 0.99697 0.0
H621 H 0.39866 0.21546 0.99253 0.0
H622 H 0.46048 0.24466 0.0823 0.0
H623 H 0.46142 0.27759 0.08553 0.0
C624 C 0.41182 0.17018 0.05163 0.0
C625 C 0.42941 0.16973 0.02744 0.0
C626 C 0.41177 0.18884 0.05434 0.0
C627 C 0.42932 0.20744 0.03316 0.0
C628 C 0.44685 0.20691 1.00877 0.0
C629 C 0.44689 0.18829 1.00594 0.0
C630 C 0.41288 0.24782 1.01572 0.0
C631 C 0.43054 0.26567 0.04133 0.0
C632 C 0.41237 0.22888 1.0136 0.0
C633 C 0.42953 0.22741 0.03684 0.0
C634 C 0.44711 0.24528 0.06291 0.0
C635 C 0.4476 0.26416 0.06513 0.0
H636 H 0.12139 0.44845 0.35249 0.0
H637 H 0.11496 0.38845 0.38721 0.0
H638 H 0.12629 0.45505 0.48638 0.0
H639 H 0.11988 0.39503 0.52092 0.0
H640 H 0.10397 0.4053 0.76155 0.0
H641 H 0.10183 0.39835 0.62759 0.0
H642 H 0.15004 0.46117 0.58797 0.0
H643 H 0.15206 0.46806 0.72149 0.0
C644 C 0.1213 0.43677 0.38845 0.0
C645 C 0.11766 0.41787 0.3589 0.0
C646 C 0.1241 0.44055 0.46535 0.0
C647 C 0.1234 0.42553 0.51463 0.0
C648 C 0.12015 0.40679 0.48486 0.0
C649 C 0.11733 0.40302 0.40805 0.0
C650 C 0.11434 0.4175 0.72433 0.0
C651 C 0.12806 0.43728 0.75219 0.0
C652 C 0.11311 0.41355 0.64747 0.0
C653 C 0.12562 0.42928 0.59678 0.0
C654 C 0.13986 0.44883 0.62511 0.0
C655 C 0.14105 0.45277 0.70175 0.0
H656 H 0.68702 0.08318 0.39568 0.0
H657 H 0.68626 0.13953 0.35152 0.0
H658 H 0.68711 0.08901 0.52872 0.0
H659 H 0.68504 0.14468 0.48494 0.0
H660 H 0.7063 0.16065 0.72534 0.0
H661 H 0.70636 0.15433 0.59213 0.0
H662 H 0.6671 0.08891 0.63065 0.0
H663 H 0.66762 0.09537 0.76461 0.0
C664 C 0.68683 0.09682 0.41399 0.0
C665 C 0.6869 0.111 0.36204 0.0
C666 C 0.68657 0.10001 0.49078 0.0
C667 C 0.68618 0.11738 0.51806 0.0
C668 C 0.68573 0.13131 0.46621 0.0
C669 C 0.68615 0.1282 0.3893 0.0
C670 C 0.69768 0.14493 0.70527 0.0
C671 C 0.68689 0.12851 0.75537 0.0
C672 C 0.6976 0.14129 0.62874 0.0
C673 C 0.68655 0.12112 0.60009 0.0
C674 C 0.67599 0.10463 0.65054 0.0
C675 C 0.67626 0.10829 0.72736 0.0
H676 H 0.55299 0.68834 0.36202 0.0
H677 H 0.61638 0.70501 0.4018 0.0
H678 H 0.54657 0.68443 0.49538 0.0
H679 H 0.61026 0.7024 0.5354 0.0
H680 H 0.5866 0.67691 0.77062 0.0
H681 H 0.59347 0.67906 0.63626 0.0
H682 H 0.55441 0.70555 0.6025 0.0
H683 H 0.54723 0.70278 0.73557 0.0
C684 C 0.56558 0.69116 0.39886 0.0
C685 C 0.58526 0.69713 0.37052 0.0
C686 C 0.56196 0.68919 0.47572 0.0
C687 C 0.57796 0.69333 0.52639 0.0
C688 C 0.59754 0.69895 0.49812 0.0
C689 C 0.60111 0.70075 0.42121 0.0
C690 C 0.57966 0.68329 0.73417 0.0
C691 C 0.56623 0.68947 0.76314 0.0
C692 C 0.58356 0.68455 0.65734 0.0
C693 C 0.57428 0.69225 0.6083 0.0
C694 C 0.56136 0.699 0.6381 0.0
C695 C 0.55731 0.69751 0.71445 0.0
H696 H 0.86673 0.5536 0.35341 0.0
H697 H 0.92307 0.6109 0.39676 0.0
H698 H 0.86177 0.54718 0.48687 0.0
H699 H 0.9174 0.6051 0.5299 0.0
H700 H 0.91128 0.57909 0.76613 0.0
H701 H 0.91763 0.58519 0.63209 0.0
H702 H 0.85222 0.55876 0.59398 0.0
H703 H 0.84603 0.55222 0.72721 0.0
C704 C 0.87809 0.56485 0.39102 0.0
C705 C 0.89524 0.58287 0.36349 0.0
C706 C 0.87509 0.5613 0.46796 0.0
C707 C 0.88906 0.57571 0.51963 0.0
C708 C 0.90637 0.59355 0.4921 0.0
C709 C 0.90946 0.59702 0.41526 0.0
C710 C 0.89835 0.57479 0.72893 0.0
C711 C 0.87817 0.56507 0.75703 0.0
C712 C 0.90194 0.57826 0.65208 0.0
C713 C 0.88542 0.5723 0.60171 0.0
C714 C 0.86529 0.56307 0.6305 0.0
C715 C 0.86172 0.55942 0.70703 0.0
H716 H 0.29709 0.89104 0.73107 0.0
H717 H 0.34812 0.88087 0.69369 0.0
H718 H 0.29482 0.89557 0.59686 0.0
H719 H 0.34611 0.88562 0.56003 0.0
H720 H 0.31878 0.86872 0.32348 0.0
H721 H 0.3235 0.86716 0.45765 0.0
H722 H 0.31203 0.91763 0.49128 0.0
H723 H 0.30711 0.91898 0.35727 0.0
C724 C 0.30803 0.89012 0.6943 0.0
C725 C 0.32263 0.88539 0.72281 0.0
C726 C 0.30676 0.89271 0.61739 0.0
C727 C 0.32017 0.89075 0.5675 0.0
C728 C 0.33524 0.88675 0.59657 0.0
C729 C 0.33642 0.88408 0.67321 0.0
C730 C 0.31753 0.87963 0.35944 0.0
C731 C 0.31245 0.89388 0.32976 0.0
C732 C 0.32024 0.87877 0.4364 0.0
C733 C 0.31806 0.89223 0.48539 0.0
C734 C 0.31344 0.90678 0.45539 0.0
C735 C 0.31065 0.90758 0.37854 0.0
H736 H 0.39126 0.30318 0.38426 0.0
H737 H 0.45279 0.3147 0.34003 0.0
H738 H 0.39816 0.30555 0.5176 0.0
H739 H 0.45972 0.31737 0.47382 0.0
H740 H 0.47153 0.34589 0.70846 0.0
H741 H 0.46409 0.34122 0.57588 0.0
H742 H 0.40484 0.28772 0.62177 0.0
H743 H 0.41241 0.29219 0.75565 0.0
C744 C 0.4062 0.306 0.40262 0.0
C745 C 0.42145 0.30873 0.35063 0.0
C746 C 0.41013 0.30735 0.47941 0.0
C747 C 0.42947 0.31163 0.50645 0.0
C748 C 0.44472 0.31429 0.45476 0.0
C749 C 0.44075 0.31282 0.37788 0.0
C750 C 0.45703 0.33289 0.6908 0.0
C751 C 0.44267 0.31929 0.74337 0.0
C752 C 0.45276 0.33025 0.61439 0.0
C753 C 0.43395 0.31402 0.58807 0.0
C754 C 0.41944 0.30048 0.64032 0.0
C755 C 0.42376 0.30306 0.71711 0.0
H756 H 0.53077 0.86232 0.34526 0.0
H757 H 0.59617 0.89371 0.30161 0.0
H758 H 0.53754 0.86816 0.47833 0.0
H759 H 0.60301 0.89955 0.43556 0.0
H760 H 0.60678 0.92381 0.67395 0.0
H761 H 0.60032 0.91866 0.54024 0.0
H762 H 0.55023 0.85685 0.58142 0.0
H763 H 0.55669 0.86204 0.71535 0.0
C764 C 0.54663 0.87031 0.36408 0.0
C765 C 0.56293 0.87736 0.31257 0.0
C766 C 0.55051 0.87366 0.44059 0.0
C767 C 0.57081 0.88417 0.46793 0.0
C768 C 0.58717 0.89156 0.41642 0.0
C769 C 0.58327 0.88822 0.33958 0.0
C770 C 0.59448 0.90905 0.65459 0.0
C771 C 0.58229 0.89331 0.70568 0.0
C772 C 0.5908 0.9061 0.57774 0.0
C773 C 0.57479 0.88733 0.54985 0.0
C774 C 0.56251 0.87162 0.60093 0.0
C775 C 0.56619 0.87458 0.67786 0.0
H776 H 0.69145 0.60755 0.68079 0.0
H777 H 0.69873 0.55485 0.72446 0.0
H778 H 0.69025 0.60106 0.54724 0.0
H779 H 0.6975 0.54833 0.59065 0.0
H780 H 0.67202 0.53002 0.35405 0.0
H781 H 0.67349 0.53699 0.48691 0.0
H782 H 0.71187 0.6022 0.4436 0.0
H783 H 0.71041 0.59518 0.30975 0.0
C784 C 0.69297 0.59467 0.66202 0.0
C785 C 0.69525 0.58176 0.71372 0.0
C786 C 0.6923 0.59096 0.58524 0.0
C787 C 0.69384 0.57421 0.55801 0.0
C788 C 0.696 0.56122 0.60967 0.0
C789 C 0.69668 0.56493 0.68653 0.0
C790 C 0.68099 0.54585 0.3726 0.0
C791 C 0.69128 0.56202 0.32089 0.0
C792 C 0.68182 0.54984 0.44906 0.0
C793 C 0.69292 0.57013 0.4762 0.0
C794 C 0.70301 0.58639 0.42457 0.0
C795 C 0.70219 0.58237 0.34778 0.0
H796 H 0.09653 0.66918 0.30962 0.0
H797 H 0.16194 0.70637 0.34869 0.0
H798 H 0.09025 0.66895 0.44365 0.0
H799 H 0.15583 0.70672 0.4819 0.0
H800 H 0.14087 0.68675 0.72225 0.0
H801 H 0.1457 0.68524 0.58877 0.0
H802 H 0.09118 0.6894 0.54571 0.0
H803 H 0.08561 0.68958 0.67881 0.0
C804 C 0.10952 0.67756 0.34685 0.0
C805 C 0.12971 0.68767 0.31883 0.0
C806 C 0.10597 0.67745 0.42367 0.0
C807 C 0.12255 0.68766 0.47403 0.0
C808 C 0.1427 0.69823 0.44533 0.0
C809 C 0.14623 0.69814 0.36883 0.0
C810 C 0.12971 0.68704 0.68462 0.0
C811 C 0.11292 0.68846 0.71208 0.0
C812 C 0.13265 0.68646 0.60769 0.0
C813 C 0.11895 0.68742 0.55605 0.0
C814 C 0.10197 0.68847 0.58352 0.0
C815 C 0.09895 0.68888 0.66033 0.0
H816 H 0.41899 0.139 0.30826 0.0
H817 H 0.45932 0.11464 0.35161 0.0
H818 H 0.41225 0.13827 0.44247 0.0
H819 H 0.45233 0.11336 0.48425 0.0
H820 H 0.45215 0.13015 0.72286 0.0
H821 H 0.45927 0.13453 0.59001 0.0
H822 H 0.39561 0.11584 0.5455 0.0
H823 H 0.38875 0.11274 0.6786 0.0
C824 C 0.42626 0.13335 0.34644 0.0
C825 C 0.43986 0.12712 0.31956 0.0
C826 C 0.42242 0.1329 0.42329 0.0
C827 C 0.43194 0.12599 0.47464 0.0
C828 C 0.44518 0.11936 0.44702 0.0
C829 C 0.44914 0.12 0.37073 0.0
C830 C 0.4397 0.12731 0.68523 0.0
C831 C 0.41978 0.12086 0.71233 0.0
C832 C 0.44374 0.12957 0.60854 0.0
C833 C 0.42795 0.12525 0.55655 0.0
C834 C 0.4082 0.11941 0.58362 0.0
C835 C 0.40419 0.11733 0.66038 0.0
H836 H 0.31241 0.39584 0.68227 0.0
H837 H 0.31815 0.45546 0.71795 0.0
H838 H 0.31662 0.4024 0.54839 0.0
H839 H 0.32216 0.46202 0.58381 0.0
H840 H 0.34655 0.47506 0.34712 0.0
H841 H 0.34515 0.4685 0.48078 0.0
H842 H 0.29793 0.40511 0.44336 0.0
H843 H 0.29958 0.41173 0.30918 0.0
C844 C 0.31448 0.41033 0.66144 0.0
C845 C 0.31482 0.42509 0.71074 0.0
C846 C 0.31686 0.41408 0.58464 0.0
C847 C 0.31961 0.43268 0.55514 0.0
C848 C 0.32035 0.44762 0.60464 0.0
C849 C 0.31805 0.44389 0.68159 0.0
C850 C 0.33586 0.45973 0.36746 0.0
C851 C 0.32305 0.44395 0.31764 0.0
C852 C 0.33502 0.45597 0.44413 0.0
C853 C 0.32129 0.43634 0.47304 0.0
C854 C 0.30885 0.42038 0.42298 0.0
C855 C 0.30977 0.42413 0.34606 0.0
H856 H 0.89667 0.34092 0.73982 0.0
H857 H 0.88194 0.27819 0.70054 0.0
H858 H 0.89525 0.34596 0.60552 0.0
H859 H 0.87997 0.28289 0.56703 0.0
H860 H 0.89444 0.30139 0.32608 0.0
H861 H 0.8997 0.2993 0.45921 0.0
H862 H 0.87175 0.33643 0.50495 0.0
H863 H 0.86771 0.33962 0.37225 0.0
C864 C 0.89295 0.32817 0.70247 0.0
C865 C 0.88949 0.3092 0.73067 0.0
C866 C 0.89211 0.33101 0.62549 0.0
C867 C 0.88758 0.31486 0.57507 0.0
C868 C 0.88399 0.29585 0.60371 0.0
C869 C 0.88502 0.2931 0.68042 0.0
C870 C 0.88973 0.30941 0.36427 0.0
C871 C 0.88042 0.32049 0.33784 0.0
C872 C 0.89251 0.30799 0.44094 0.0
C873 C 0.88595 0.31751 0.49322 0.0
C874 C 0.87716 0.32902 0.46663 0.0
C875 C 0.87454 0.33058 0.39011 0.0
H876 H 0.04255 0.39192 0.88572 0.0
H877 H 0.05698 0.37731 0.10329 0.0
H878 H 0.00592 0.36979 0.91122 0.0
H879 H 0.02025 0.35518 0.12855 0.0
H880 H 0.95042 0.30324 0.10985 0.0
H881 H 0.98765 0.32237 0.08544 0.0
H882 H 0.98248 0.37359 1.00103 0.0
H883 H 0.94577 0.35483 0.0249 0.0
C884 C 0.03796 0.38384 0.93863 0.0
C885 C 0.05274 0.38658 0.99268 0.0
C886 C 0.01695 0.37123 0.95337 0.0
C887 C 0.01022 0.36094 0.02223 0.0
C888 C 0.02498 0.36287 0.07494 0.0
C889 C 0.04602 0.37563 0.06047 0.0
C890 C 0.95729 0.31865 0.08673 0.0
C891 C 0.94504 0.32743 0.06934 0.0
C892 C 0.97858 0.32958 0.07274 0.0
C893 C 0.98789 0.34935 0.04027 0.0
C894 C 0.97569 0.35824 0.02469 0.0
C895 C 0.95461 0.34749 0.03919 0.0
H896 H 0.57281 0.95409 0.11936 0.0
H897 H 0.62282 0.94858 0.02524 0.0
H898 H 0.59153 0.99102 0.09292 0.0
H899 H 0.64155 0.9856 0.99905 0.0
H900 H 0.67537 0.05721 0.03932 0.0
H901 H 0.65845 0.02022 0.06522 0.0
H902 H 0.60156 0.01235 0.97462 0.0
H903 H 0.61839 0.04924 0.94845 0.0
C904 C 0.58792 0.96078 0.09412 0.0
C905 C 0.59629 0.94833 0.07439 0.0
C906 C 0.59855 0.98191 0.07823 0.0
C907 C 0.6179 0.99116 0.04305 0.0
C908 C 0.62668 0.97892 0.02623 0.0
C909 C 0.61594 0.95771 0.04129 0.0
C910 C 0.65933 0.04755 0.02388 0.0
C911 C 0.64825 0.05622 0.99178 0.0
C912 C 0.64965 0.02636 0.03878 0.0
C913 C 0.62862 0.01343 0.02283 0.0
C914 C 0.61771 0.02199 0.98862 0.0
C915 C 0.62743 0.04311 0.97287 0.0
H916 H 0.63602 0.58405 0.18373 0.0
H917 H 0.67604 0.61827 1.00026 0.0
H918 H 0.6194 0.60472 0.17464 0.0
H919 H 0.65898 0.63864 0.98988 0.0
H920 H 0.63353 0.68305 0.05049 0.0
H921 H 0.65277 0.66442 0.04967 0.0
H922 H 0.59606 0.60724 0.08971 0.0
H923 H 0.57731 0.6259 0.09287 0.0
C924 C 0.64133 0.59603 0.1416 0.0
C925 C 0.65726 0.59937 0.09249 0.0
C926 C 0.63167 0.60779 0.13587 0.0
C927 C 0.63756 0.62309 0.08046 0.0
C928 C 0.65406 0.62701 0.03319 0.0
C929 C 0.66382 0.61529 0.03918 0.0
C930 C 0.62525 0.66644 0.05712 0.0
C931 C 0.60403 0.65585 0.07185 0.0
C932 C 0.63622 0.65577 0.05711 0.0
C933 C 0.62603 0.63438 0.07156 0.0
C934 C 0.60453 0.62376 0.08084 0.0
C935 C 0.59372 0.63439 0.08164 0.0
H936 H 0.0507 0.61972 0.12528 0.0
H937 H 0.05876 0.67639 0.03054 0.0
H938 H 0.01389 0.60276 0.09825 0.0
H939 H 0.02182 0.65934 1.00385 0.0
H940 H 0.95009 0.62356 0.04335 0.0
H941 H 0.98708 0.64254 0.06982 0.0
H942 H 0.99278 0.59232 0.9791 0.0
H943 H 0.95591 0.57336 0.95229 0.0
C944 C 0.0446 0.62868 0.0998 0.0
C945 C 0.05773 0.64943 0.08008 0.0
C946 C 0.02352 0.61888 0.08358 0.0
C947 C 0.015 0.62965 0.04808 0.0
C948 C 0.02794 0.65064 0.03128 0.0
C949 C 0.04909 0.6604 0.04664 0.0
C950 C 0.95928 0.61669 0.02801 0.0
C951 C 0.95 0.59692 0.99569 0.0
C952 C 0.98046 0.62758 0.04324 0.0
C953 C 0.99278 0.61881 0.02742 0.0
C954 C 0.98362 0.59934 0.993 0.0
C955 C 0.96252 0.58857 0.9769 0.0
H956 H 0.35526 0.9483 0.04221 0.0
H957 H 0.30417 0.95363 0.95655 0.0
H958 H 0.3742 0.98495 0.06747 0.0
H959 H 0.32347 0.99083 0.98251 0.0
H960 H 0.37891 0.06008 0.96658 0.0
H961 H 0.35633 0.0234 0.94078 0.0
H962 H 0.37079 0.00847 0.15733 0.0
H963 H 0.39338 0.04503 0.18331 0.0
C964 C 0.34806 0.95728 0.0281 0.0
C965 C 0.3281 0.9479 0.9972 0.0
C966 C 0.35891 0.97834 0.04343 0.0
C967 C 0.35022 0.99073 0.02803 0.0
C968 C 0.33053 0.98161 0.99506 0.0
C969 C 0.3195 0.96034 0.98021 0.0
C970 C 0.37709 0.04901 1.00915 0.0
C971 C 0.38817 0.05554 0.07679 0.0
C972 C 0.36407 0.02799 0.99436 0.0
C973 C 0.36198 0.01307 0.04663 0.0
C974 C 0.37235 0.01963 0.11545 0.0
C975 C 0.38524 0.0406 0.13046 0.0
H976 H 0.30732 0.35724 0.08238 0.0
H977 H 0.35907 0.41521 1.01048 0.0
H978 H 0.32745 0.34023 0.05867 0.0
H979 H 0.37896 0.39847 0.98843 0.0
H980 H 0.40278 0.36115 0.87862 0.0
H981 H 0.37925 0.37417 0.89922 0.0
H982 H 0.35825 0.33906 0.10375 0.0
H983 H 0.38153 0.3257 0.08264 0.0
C984 C 0.32299 0.3664 0.0624 0.0
C985 C 0.33152 0.38763 0.04854 0.0
C986 C 0.33452 0.35666 0.04881 0.0
C987 C 0.35472 0.36794 0.02056 0.0
C988 C 0.36331 0.38921 1.00854 0.0
C989 C 0.35191 0.39888 0.02224 0.0
C990 C 0.393 0.356 0.92756 0.0
C991 C 0.39427 0.34257 0.97934 0.0
C992 C 0.37958 0.36356 0.93963 0.0
C993 C 0.36711 0.35792 1.00382 0.0
C994 C 0.36759 0.34367 0.05369 0.0
C995 C 0.38103 0.33608 0.04161 0.0
loop_
_geom_bond_atom_site_label_1
_geom_bond_atom_site_label_2
_geom_bond_distance
_geom_bond_site_symmetry_2
_ccdc_geom_bond_type
Co0 N4 2.148 . S
Co0 N10 2.128 1_554 S
Co0 N20 2.194 . S
Co0 O25 2.351 . S
Co0 O26 2.155 . S
Co0 O27 2.096 . S
C1 N4 1.301 . S
C1 N5 1.328 . S
C1 H6 0.930 . S
C2 C3 1.333 . S
C2 N4 1.317 . S
C2 H7 0.930 . S
C3 C2 1.333 . S
C3 N5 1.350 . S
C3 H29 0.931 . S
N4 Co0 2.148 . S
N4 C1 1.301 . S
N4 C2 1.317 . S
N5 C1 1.328 . S
N5 C3 1.350 . S
H6 C1 0.930 . S
H7 C2 0.930 . S
C8 O9 1.224 . S
C8 O27 1.247 1_556 S
O9 C8 1.224 . S
N10 Co0 2.128 1_556 S
N10 C11 1.355 . S
N10 C13 1.311 . S
C11 N10 1.355 . S
C11 C12 1.363 . S
C11 H23 0.929 . S
C12 C11 1.363 . S
C12 N14 1.375 . S
C12 H30 0.931 . S
C13 N10 1.311 . S
C13 N14 1.347 . S
C13 H24 0.929 . S
N14 C12 1.375 . S
N14 C13 1.347 . S
C15 C18 1.365 . S
C15 N20 1.328 . S
C15 H21 0.929 . S
C16 C17 1.362 . S
C16 C19 1.378 . S
C16 H31 0.929 . S
C17 C16 1.362 . S
C17 C18 1.366 . S
C18 C15 1.365 . S
C18 C17 1.366 . S
C18 H32 0.930 . S
C19 C16 1.378 . S
C19 N20 1.315 . S
C19 H22 0.930 . S
N20 Co0 2.194 . S
N20 C15 1.328 . S
N20 C19 1.315 . S
H21 C15 0.929 . S
H22 C19 0.930 . S
H23 C11 0.929 . S
H24 C13 0.929 . S
O25 Co0 2.351 . S
O25 C28 1.244 . S
O26 Co0 2.155 . S
O26 C28 1.240 . S
O27 Co0 2.096 . S
O27 C8 1.247 1_554 S
C28 O25 1.244 . S
C28 O26 1.240 . S
H29 C3 0.931 . S
H30 C12 0.931 . S
H31 C16 0.929 . S
H32 C18 0.930 . S
Co33 N37 2.148 . S
Co33 N43 2.128 1_554 S
Co33 N53 2.194 . S
Co33 O58 2.351 . S
Co33 O59 2.155 . S
Co33 O60 2.096 . S
C34 N37 1.301 . S
C34 N38 1.328 . S
C34 H39 0.930 . S
C35 C36 1.333 . S
C35 N37 1.317 . S
C35 H40 0.930 . S
C36 C35 1.333 . S
C36 N38 1.350 . S
C36 H62 0.931 . S
N37 Co33 2.148 . S
N37 C34 1.301 . S
N37 C35 1.317 . S
N38 C34 1.328 . S
N38 C36 1.350 . S
H39 C34 0.930 . S
H40 C35 0.930 . S
C41 O42 1.224 . S
C41 O60 1.247 1_556 S
O42 C41 1.224 . S
N43 Co33 2.128 1_556 S
N43 C44 1.355 . S
N43 C46 1.311 . S
C44 N43 1.355 . S
C44 C45 1.363 . S
C44 H56 0.929 . S
C45 C44 1.363 . S
C45 N47 1.375 . S
C45 H63 0.931 . S
C46 N43 1.311 . S
C46 N47 1.347 . S
C46 H57 0.929 . S
N47 C45 1.375 . S
N47 C46 1.347 . S
C48 C51 1.365 . S
C48 N53 1.328 . S
C48 H54 0.929 . S
C49 C50 1.362 . S
C49 C52 1.378 . S
C49 H64 0.929 . S
C50 C49 1.362 . S
C50 C51 1.366 . S
C51 C48 1.365 . S
C51 C50 1.366 . S
C51 H65 0.930 . S
C52 C49 1.378 . S
C52 N53 1.315 . S
C52 H55 0.930 . S
N53 Co33 2.194 . S
N53 C48 1.328 . S
N53 C52 1.315 . S
H54 C48 0.929 . S
H55 C52 0.930 . S
H56 C44 0.929 . S
H57 C46 0.929 . S
O58 Co33 2.351 . S
O58 C61 1.244 . S
O59 Co33 2.155 . S
O59 C61 1.240 . S
O60 Co33 2.096 . S
O60 C41 1.247 1_554 S
C61 O58 1.244 . S
C61 O59 1.240 . S
H62 C36 0.931 . S
H63 C45 0.931 . S
H64 C49 0.929 . S
H65 C51 0.930 . S
Co66 N70 2.148 . S
Co66 N76 2.128 1_554 S
Co66 N86 2.194 . S
Co66 O91 2.351 . S
Co66 O92 2.155 . S
Co66 O93 2.096 . S
C67 N70 1.301 . S
C67 N71 1.328 . S
C67 H72 0.930 . S
C68 C69 1.333 . S
C68 N70 1.317 . S
C68 H73 0.930 . S
C69 C68 1.333 . S
C69 N71 1.350 . S
C69 H95 0.931 . S
N70 Co66 2.148 . S
N70 C67 1.301 . S
N70 C68 1.317 . S
N71 C67 1.328 . S
N71 C69 1.350 . S
H72 C67 0.930 . S
H73 C68 0.930 . S
C74 O75 1.224 . S
C74 O93 1.247 1_556 S
O75 C74 1.224 . S
N76 Co66 2.128 1_556 S
N76 C77 1.355 . S
N76 C79 1.311 . S
C77 N76 1.355 . S
C77 C78 1.363 . S
C77 H89 0.929 . S
C78 C77 1.363 . S
C78 N80 1.375 . S
C78 H96 0.931 . S
C79 N76 1.311 . S
C79 N80 1.347 . S
C79 H90 0.929 . S
N80 C78 1.375 . S
N80 C79 1.347 . S
C81 C84 1.365 . S
C81 N86 1.328 . S
C81 H87 0.929 . S
C82 C83 1.362 . S
C82 C85 1.378 . S
C82 H97 0.929 . S
C83 C82 1.362 . S
C83 C84 1.366 . S
C84 C81 1.365 . S
C84 C83 1.366 . S
C84 H98 0.930 . S
C85 C82 1.378 . S
C85 N86 1.315 . S
C85 H88 0.930 . S
N86 Co66 2.194 . S
N86 C81 1.328 . S
N86 C85 1.315 . S
H87 C81 0.929 . S
H88 C85 0.930 . S
H89 C77 0.929 . S
H90 C79 0.929 . S
O91 Co66 2.351 . S
O91 C94 1.244 . S
O92 Co66 2.155 . S
O92 C94 1.240 . S
O93 Co66 2.096 . S
O93 C74 1.247 1_554 S
C94 O91 1.244 . S
C94 O92 1.240 . S
H95 C69 0.931 . S
H96 C78 0.931 . S
H97 C82 0.929 . S
H98 C84 0.930 . S
Co99 N103 2.148 . S
Co99 N109 2.128 1_554 S
Co99 N119 2.194 . S
Co99 O124 2.351 . S
Co99 O125 2.155 . S
Co99 O126 2.096 . S
C100 N103 1.301 . S
C100 N104 1.328 . S
C100 H105 0.930 . S
C101 C102 1.333 . S
C101 N103 1.317 . S
C101 H106 0.930 . S
C102 C101 1.333 . S
C102 N104 1.350 . S
C102 H128 0.931 . S
N103 Co99 2.148 . S
N103 C100 1.301 . S
N103 C101 1.317 . S
N104 C100 1.328 . S
N104 C102 1.350 . S
H105 C100 0.930 . S
H106 C101 0.930 . S
C107 O108 1.224 . S
C107 O126 1.247 1_556 S
O108 C107 1.224 . S
N109 Co99 2.128 1_556 S
N109 C110 1.355 . S
N109 C112 1.311 . S
C110 N109 1.355 . S
C110 C111 1.363 . S
C110 H122 0.929 . S
C111 C110 1.363 . S
C111 N113 1.375 . S
C111 H129 0.931 . S
C112 N109 1.311 . S
C112 N113 1.347 . S
C112 H123 0.929 . S
N113 C111 1.375 . S
N113 C112 1.347 . S
C114 C117 1.365 . S
C114 N119 1.328 . S
C114 H120 0.929 . S
C115 C116 1.362 . S
C115 C118 1.378 . S
C115 H130 0.929 . S
C116 C115 1.362 . S
C116 C117 1.366 . S
C117 C114 1.365 . S
C117 C116 1.366 . S
C117 H131 0.930 . S
C118 C115 1.378 . S
C118 N119 1.315 . S
C118 H121 0.930 . S
N119 Co99 2.194 . S
N119 C114 1.328 . S
N119 C118 1.315 . S
H120 C114 0.929 . S
H121 C118 0.930 . S
H122 C110 0.929 . S
H123 C112 0.929 . S
O124 Co99 2.351 . S
O124 C127 1.244 . S
O125 Co99 2.155 . S
O125 C127 1.240 . S
O126 Co99 2.096 . S
O126 C107 1.247 1_554 S
C127 O124 1.244 . S
C127 O125 1.240 . S
H128 C102 0.931 . S
H129 C111 0.931 . S
H130 C115 0.929 . S
H131 C117 0.930 . S
Co132 N136 2.148 . S
Co132 N142 2.128 1_554 S
Co132 N152 2.194 . S
Co132 O157 2.351 . S
Co132 O158 2.155 . S
Co132 O159 2.096 . S
C133 N136 1.301 . S
C133 N137 1.328 . S
C133 H138 0.930 . S
C134 C135 1.333 . S
C134 N136 1.317 . S
C134 H139 0.930 . S
C135 C134 1.333 . S
C135 N137 1.350 . S
C135 H161 0.931 . S
N136 Co132 2.148 . S
N136 C133 1.301 . S
N136 C134 1.317 . S
N137 C133 1.328 . S
N137 C135 1.350 . S
H138 C133 0.930 . S
H139 C134 0.930 . S
C140 O141 1.224 . S
C140 O159 1.247 1_556 S
O141 C140 1.224 . S
N142 Co132 2.128 1_556 S
N142 C143 1.355 . S
N142 C145 1.311 . S
C143 N142 1.355 . S
C143 C144 1.363 . S
C143 H155 0.929 . S
C144 C143 1.363 . S
C144 N146 1.375 . S
C144 H162 0.931 . S
C145 N142 1.311 . S
C145 N146 1.347 . S
C145 H156 0.929 . S
N146 C144 1.375 . S
N146 C145 1.347 . S
C147 C150 1.365 . S
C147 N152 1.328 . S
C147 H153 0.929 . S
C148 C149 1.362 . S
C148 C151 1.378 . S
C148 H163 0.929 . S
C149 C148 1.362 . S
C149 C150 1.366 . S
C150 C147 1.365 . S
C150 C149 1.366 . S
C150 H164 0.930 . S
C151 C148 1.378 . S
C151 N152 1.315 . S
C151 H154 0.930 . S
N152 Co132 2.194 . S
N152 C147 1.328 . S
N152 C151 1.315 . S
H153 C147 0.929 . S
H154 C151 0.930 . S
H155 C143 0.929 . S
H156 C145 0.929 . S
O157 Co132 2.351 . S
O157 C160 1.244 . S
O158 Co132 2.155 . S
O158 C160 1.240 . S
O159 Co132 2.096 . S
O159 C140 1.247 1_554 S
C160 O157 1.244 . S
C160 O158 1.240 . S
H161 C135 0.931 . S
H162 C144 0.931 . S
H163 C148 0.929 . S
H164 C150 0.930 . S
Co165 N169 2.148 . S
Co165 N175 2.128 1_554 S
Co165 N185 2.194 . S
Co165 O190 2.351 . S
Co165 O191 2.155 . S
Co165 O192 2.096 . S
C166 N169 1.301 . S
C166 N170 1.328 . S
C166 H171 0.930 . S
C167 C168 1.333 . S
C167 N169 1.317 . S
C167 H172 0.930 . S
C168 C167 1.333 . S
C168 N170 1.350 . S
C168 H194 0.931 . S
N169 Co165 2.148 . S
N169 C166 1.301 . S
N169 C167 1.317 . S
N170 C166 1.328 . S
N170 C168 1.350 . S
H171 C166 0.930 . S
H172 C167 0.930 . S
C173 O174 1.224 . S
C173 O192 1.247 1_556 S
O174 C173 1.224 . S
N175 Co165 2.128 1_556 S
N175 C176 1.355 . S
N175 C178 1.311 . S
C176 N175 1.355 . S
C176 C177 1.363 . S
C176 H188 0.929 . S
C177 C176 1.363 . S
C177 N179 1.375 . S
C177 H195 0.931 . S
C178 N175 1.311 . S
C178 N179 1.347 . S
C178 H189 0.929 . S
N179 C177 1.375 . S
N179 C178 1.347 . S
C180 C183 1.365 . S
C180 N185 1.328 . S
C180 H186 0.929 . S
C181 C182 1.362 . S
C181 C184 1.378 . S
C181 H196 0.929 . S
C182 C181 1.362 . S
C182 C183 1.366 . S
C183 C180 1.365 . S
C183 C182 1.366 . S
C183 H197 0.930 . S
C184 C181 1.378 . S
C184 N185 1.315 . S
C184 H187 0.930 . S
N185 Co165 2.194 . S
N185 C180 1.328 . S
N185 C184 1.315 . S
H186 C180 0.929 . S
H187 C184 0.930 . S
H188 C176 0.929 . S
H189 C178 0.929 . S
O190 Co165 2.351 . S
O190 C193 1.244 . S
O191 Co165 2.155 . S
O191 C193 1.240 . S
O192 Co165 2.096 . S
O192 C173 1.247 1_554 S
C193 O190 1.244 . S
C193 O191 1.240 . S
H194 C168 0.931 . S
H195 C177 0.931 . S
H196 C181 0.929 . S
H197 C183 0.930 . S
Co198 N202 2.148 1_554 S
Co198 N208 2.128 . S
Co198 N218 2.194 . S
Co198 O223 2.351 . S
Co198 O224 2.155 . S
Co198 O225 2.096 . S
C199 N202 1.301 . S
C199 N203 1.328 . S
C199 H204 0.930 . S
C200 C201 1.333 . S
C200 N202 1.317 . S
C200 H205 0.930 . S
C201 C200 1.333 . S
C201 N203 1.350 . S
C201 H227 0.931 . S
N202 Co198 2.148 1_556 S
N202 C199 1.301 . S
N202 C200 1.317 . S
N203 C199 1.328 . S
N203 C201 1.350 . S
H204 C199 0.930 . S
H205 C200 0.930 . S
C206 O207 1.224 . S
C206 O225 1.247 . S
O207 C206 1.224 . S
N208 Co198 2.128 . S
N208 C209 1.355 . S
N208 C211 1.311 . S
C209 N208 1.355 . S
C209 C210 1.363 . S
C209 H221 0.929 . S
C210 C209 1.363 . S
C210 N212 1.375 . S
C210 H228 0.931 . S
C211 N208 1.311 . S
C211 N212 1.347 . S
C211 H222 0.929 . S
N212 C210 1.375 . S
N212 C211 1.347 . S
C213 C216 1.365 . S
C213 N218 1.328 1_556 S
C213 H219 0.929 . S
C214 C215 1.362 . S
C214 C217 1.378 . S
C214 H229 0.929 . S
C215 C214 1.362 . S
C215 C216 1.366 1_554 S
C216 C213 1.365 . S
C216 C215 1.366 1_556 S
C216 H230 0.930 . S
C217 C214 1.378 . S
C217 N218 1.315 . S
C217 H220 0.930 . S
N218 Co198 2.194 . S
N218 C213 1.328 1_554 S
N218 C217 1.315 . S
H219 C213 0.929 . S
H220 C217 0.930 . S
H221 C209 0.929 . S
H222 C211 0.929 . S
O223 Co198 2.351 . S
O223 C226 1.244 . S
O224 Co198 2.155 . S
O224 C226 1.240 . S
O225 Co198 2.096 . S
O225 C206 1.247 . S
C226 O223 1.244 . S
C226 O224 1.240 . S
H227 C201 0.931 . S
H228 C210 0.931 . S
H229 C214 0.929 . S
H230 C216 0.930 . S
Co231 N235 2.148 1_554 S
Co231 N241 2.128 . S
Co231 N251 2.194 . S
Co231 O256 2.351 . S
Co231 O257 2.155 . S
Co231 O258 2.096 . S
C232 N235 1.301 . S
C232 N236 1.328 . S
C232 H237 0.930 . S
C233 C234 1.333 . S
C233 N235 1.317 . S
C233 H238 0.930 . S
C234 C233 1.333 . S
C234 N236 1.350 . S
C234 H260 0.931 . S
N235 Co231 2.148 1_556 S
N235 C232 1.301 . S
N235 C233 1.317 . S
N236 C232 1.328 . S
N236 C234 1.350 . S
H237 C232 0.930 . S
H238 C233 0.930 . S
C239 O240 1.224 . S
C239 O258 1.247 . S
O240 C239 1.224 . S
N241 Co231 2.128 . S
N241 C242 1.355 . S
N241 C244 1.311 . S
C242 N241 1.355 . S
C242 C243 1.363 . S
C242 H254 0.929 . S
C243 C242 1.363 . S
C243 N245 1.375 . S
C243 H261 0.931 . S
C244 N241 1.311 . S
C244 N245 1.347 . S
C244 H255 0.929 . S
N245 C243 1.375 . S
N245 C244 1.347 . S
C246 C249 1.365 . S
C246 N251 1.328 1_556 S
C246 H252 0.929 . S
C247 C248 1.362 . S
C247 C250 1.378 . S
C247 H262 0.929 . S
C248 C247 1.362 . S
C248 C249 1.366 1_554 S
C249 C246 1.365 . S
C249 C248 1.366 1_556 S
C249 H263 0.930 . S
C250 C247 1.378 . S
C250 N251 1.315 . S
C250 H253 0.930 . S
N251 Co231 2.194 . S
N251 C246 1.328 1_554 S
N251 C250 1.315 . S
H252 C246 0.929 . S
H253 C250 0.930 . S
H254 C242 0.929 . S
H255 C244 0.929 . S
O256 Co231 2.351 . S
O256 C259 1.244 . S
O257 Co231 2.155 . S
O257 C259 1.240 . S
O258 Co231 2.096 . S
O258 C239 1.247 . S
C259 O256 1.244 . S
C259 O257 1.240 . S
H260 C234 0.931 . S
H261 C243 0.931 . S
H262 C247 0.929 . S
H263 C249 0.930 . S
Co264 N268 2.148 1_554 S
Co264 N274 2.128 . S
Co264 N284 2.194 . S
Co264 O289 2.351 . S
Co264 O290 2.155 . S
Co264 O291 2.096 . S
C265 N268 1.301 . S
C265 N269 1.328 . S
C265 H270 0.930 . S
C266 C267 1.333 . S
C266 N268 1.317 . S
C266 H271 0.930 . S
C267 C266 1.333 . S
C267 N269 1.350 . S
C267 H293 0.931 . S
N268 Co264 2.148 1_556 S
N268 C265 1.301 . S
N268 C266 1.317 . S
N269 C265 1.328 . S
N269 C267 1.350 . S
H270 C265 0.930 . S
H271 C266 0.930 . S
C272 O273 1.224 . S
C272 O291 1.247 . S
O273 C272 1.224 . S
N274 Co264 2.128 . S
N274 C275 1.355 . S
N274 C277 1.311 . S
C275 N274 1.355 . S
C275 C276 1.363 . S
C275 H287 0.929 . S
C276 C275 1.363 . S
C276 N278 1.375 . S
C276 H294 0.931 . S
C277 N274 1.311 . S
C277 N278 1.347 . S
C277 H288 0.929 . S
N278 C276 1.375 . S
N278 C277 1.347 . S
C279 C282 1.365 . S
C279 N284 1.328 1_556 S
C279 H285 0.929 . S
C280 C281 1.362 . S
C280 C283 1.378 . S
C280 H295 0.929 . S
C281 C280 1.362 . S
C281 C282 1.366 1_554 S
C282 C279 1.365 . S
C282 C281 1.366 1_556 S
C282 H296 0.930 . S
C283 C280 1.378 . S
C283 N284 1.315 . S
C283 H286 0.930 . S
N284 Co264 2.194 . S
N284 C279 1.328 1_554 S
N284 C283 1.315 . S
H285 C279 0.929 . S
H286 C283 0.930 . S
H287 C275 0.929 . S
H288 C277 0.929 . S
O289 Co264 2.351 . S
O289 C292 1.245 . S
O290 Co264 2.155 . S
O290 C292 1.240 . S
O291 Co264 2.096 . S
O291 C272 1.247 . S
C292 O289 1.245 . S
C292 O290 1.240 . S
H293 C267 0.931 . S
H294 C276 0.931 . S
H295 C280 0.929 . S
H296 C282 0.930 . S
Co297 N301 2.148 1_554 S
Co297 N307 2.128 . S
Co297 N317 2.194 . S
Co297 O322 2.351 . S
Co297 O323 2.155 . S
Co297 O324 2.096 . S
C298 N301 1.301 . S
C298 N302 1.328 . S
C298 H303 0.930 . S
C299 C300 1.333 . S
C299 N301 1.317 . S
C299 H304 0.930 . S
C300 C299 1.333 . S
C300 N302 1.350 . S
C300 H326 0.931 . S
N301 Co297 2.148 1_556 S
N301 C298 1.301 . S
N301 C299 1.317 . S
N302 C298 1.328 . S
N302 C300 1.350 . S
H303 C298 0.930 . S
H304 C299 0.930 . S
C305 O306 1.224 . S
C305 O324 1.247 . S
O306 C305 1.224 . S
N307 Co297 2.128 . S
N307 C308 1.355 . S
N307 C310 1.311 . S
C308 N307 1.355 . S
C308 C309 1.363 . S
C308 H320 0.929 . S
C309 C308 1.363 . S
C309 N311 1.375 . S
C309 H327 0.931 . S
C310 N307 1.311 . S
C310 N311 1.347 . S
C310 H321 0.929 . S
N311 C309 1.375 . S
N311 C310 1.347 . S
C312 C315 1.365 . S
C312 N317 1.328 1_556 S
C312 H318 0.929 . S
C313 C314 1.362 . S
C313 C316 1.378 . S
C313 H328 0.929 . S
C314 C313 1.362 . S
C314 C315 1.366 1_554 S
C315 C312 1.365 . S
C315 C314 1.366 1_556 S
C315 H329 0.930 . S
C316 C313 1.378 . S
C316 N317 1.315 . S
C316 H319 0.930 . S
N317 Co297 2.194 . S
N317 C312 1.328 1_554 S
N317 C316 1.315 . S
H318 C312 0.929 . S
H319 C316 0.930 . S
H320 C308 0.929 . S
H321 C310 0.929 . S
O322 Co297 2.351 . S
O322 C325 1.244 . S
O323 Co297 2.155 . S
O323 C325 1.240 . S
O324 Co297 2.096 . S
O324 C305 1.247 . S
C325 O322 1.244 . S
C325 O323 1.240 . S
H326 C300 0.931 . S
H327 C309 0.931 . S
H328 C313 0.929 . S
H329 C315 0.930 . S
Co330 N334 2.148 1_554 S
Co330 N340 2.128 . S
Co330 N350 2.194 . S
Co330 O355 2.351 . S
Co330 O356 2.155 . S
Co330 O357 2.096 . S
C331 N334 1.301 . S
C331 N335 1.328 . S
C331 H336 0.930 . S
C332 C333 1.333 . S
C332 N334 1.317 . S
C332 H337 0.930 . S
C333 C332 1.333 . S
C333 N335 1.350 . S
C333 H359 0.931 . S
N334 Co330 2.148 1_556 S
N334 C331 1.301 . S
N334 C332 1.317 . S
N335 C331 1.328 . S
N335 C333 1.350 . S
H336 C331 0.930 . S
H337 C332 0.930 . S
C338 O339 1.224 . S
C338 O357 1.247 . S
O339 C338 1.224 . S
N340 Co330 2.128 . S
N340 C341 1.355 . S
N340 C343 1.311 . S
C341 N340 1.355 . S
C341 C342 1.363 . S
C341 H353 0.929 . S
C342 C341 1.363 . S
C342 N344 1.375 . S
C342 H360 0.931 . S
C343 N340 1.311 . S
C343 N344 1.347 . S
C343 H354 0.929 . S
N344 C342 1.375 . S
N344 C343 1.347 . S
C345 C348 1.365 . S
C345 N350 1.328 1_556 S
C345 H351 0.929 . S
C346 C347 1.362 . S
C346 C349 1.378 . S
C346 H361 0.929 . S
C347 C346 1.362 . S
C347 C348 1.366 1_554 S
C348 C345 1.365 . S
C348 C347 1.366 1_556 S
C348 H362 0.930 . S
C349 C346 1.378 . S
C349 N350 1.315 . S
C349 H352 0.930 . S
N350 Co330 2.194 . S
N350 C345 1.328 1_554 S
N350 C349 1.315 . S
H351 C345 0.929 . S
H352 C349 0.930 . S
H353 C341 0.929 . S
H354 C343 0.929 . S
O355 Co330 2.351 . S
O355 C358 1.244 . S
O356 Co330 2.155 . S
O356 C358 1.240 . S
O357 Co330 2.096 . S
O357 C338 1.247 . S
C358 O355 1.244 . S
C358 O356 1.240 . S
H359 C333 0.931 . S
H360 C342 0.931 . S
H361 C346 0.929 . S
H362 C348 0.930 . S
Co363 N367 2.148 1_554 S
Co363 N373 2.128 . S
Co363 N383 2.194 . S
Co363 O388 2.351 . S
Co363 O389 2.155 . S
Co363 O390 2.096 . S
C364 N367 1.301 . S
C364 N368 1.328 . S
C364 H369 0.930 . S
C365 C366 1.333 . S
C365 N367 1.317 . S
C365 H370 0.930 . S
C366 C365 1.333 . S
C366 N368 1.350 . S
C366 H392 0.931 . S
N367 Co363 2.148 1_556 S
N367 C364 1.301 . S
N367 C365 1.317 . S
N368 C364 1.328 . S
N368 C366 1.350 . S
H369 C364 0.930 . S
H370 C365 0.930 . S
C371 O372 1.224 . S
C371 O390 1.247 . S
O372 C371 1.224 . S
N373 Co363 2.128 . S
N373 C374 1.355 . S
N373 C376 1.311 . S
C374 N373 1.355 . S
C374 C375 1.363 . S
C374 H386 0.929 . S
C375 C374 1.363 . S
C375 N377 1.375 . S
C375 H393 0.931 . S
C376 N373 1.311 . S
C376 N377 1.347 . S
C376 H387 0.929 . S
N377 C375 1.375 . S
N377 C376 1.347 . S
C378 C381 1.365 . S
C378 N383 1.328 1_556 S
C378 H384 0.929 . S
C379 C380 1.362 . S
C379 C382 1.378 . S
C379 H394 0.929 . S
C380 C379 1.362 . S
C380 C381 1.366 1_554 S
C381 C378 1.365 . S
C381 C380 1.366 1_556 S
C381 H395 0.930 . S
C382 C379 1.378 . S
C382 N383 1.315 . S
C382 H385 0.930 . S
N383 Co363 2.194 . S
N383 C378 1.328 1_554 S
N383 C382 1.315 . S
H384 C378 0.929 . S
H385 C382 0.930 . S
H386 C374 0.929 . S
H387 C376 0.929 . S
O388 Co363 2.351 . S
O388 C391 1.245 . S
O389 Co363 2.155 . S
O389 C391 1.240 . S
O390 Co363 2.096 . S
O390 C371 1.247 . S
C391 O388 1.245 . S
C391 O389 1.240 . S
H392 C366 0.931 . S
H393 C375 0.931 . S
H394 C379 0.929 . S
H395 C381 0.930 . S
H396 C404 0.950 . S
H397 C409 0.950 . S
H398 C406 0.950 . S
H399 C408 0.950 . S
H400 C410 0.950 . S
H401 C412 0.950 . S
H402 C414 0.950 . S
H403 C415 0.950 . S
C404 H396 0.950 . S
C404 C405 1.386 1_556 S
C404 C406 1.391 . S
C405 C404 1.386 1_554 S
C405 C409 1.393 . S
C406 H398 0.950 . S
C406 C404 1.391 . S
C406 C407 1.400 1_556 S
C407 C406 1.400 1_554 S
C407 C408 1.398 . S
C407 C413 1.491 . S
C408 H399 0.950 . S
C408 C407 1.398 . S
C408 C409 1.391 . S
C409 H397 0.950 . S
C409 C405 1.393 . S
C409 C408 1.391 . S
C410 H400 0.950 . S
C410 C411 1.386 . S
C410 C412 1.391 . S
C411 C410 1.386 . S
C411 C415 1.393 1_554 S
C412 H401 0.950 . S
C412 C410 1.391 . S
C412 C413 1.400 . S
C413 C407 1.491 . S
C413 C412 1.400 . S
C413 C414 1.398 1_554 S
C414 H402 0.950 . S
C414 C413 1.398 1_556 S
C414 C415 1.391 . S
C415 H403 0.950 . S
C415 C411 1.393 1_556 S
C415 C414 1.391 . S
H416 C424 0.950 . S
H417 C429 0.950 . S
H418 C426 0.950 . S
H419 C428 0.950 . S
H420 C430 0.950 . S
H421 C432 0.950 . S
H422 C434 0.950 . S
H423 C435 0.950 . S
C424 H416 0.950 . S
C424 C425 1.386 . S
C424 C426 1.391 . S
C425 C424 1.386 . S
C425 C429 1.393 1_554 S
C426 H418 0.950 . S
C426 C424 1.391 . S
C426 C427 1.400 . S
C427 C426 1.400 . S
C427 C428 1.398 1_554 S
C427 C433 1.491 . S
C428 H419 0.950 . S
C428 C427 1.398 1_556 S
C428 C429 1.391 . S
C429 H417 0.950 . S
C429 C425 1.393 1_556 S
C429 C428 1.391 . S
C430 H420 0.950 . S
C430 C431 1.386 1_556 S
C430 C432 1.391 . S
C431 C430 1.386 1_554 S
C431 C435 1.393 . S
C432 H421 0.950 . S
C432 C430 1.391 . S
C432 C433 1.400 1_556 S
C433 C427 1.491 . S
C433 C432 1.400 1_554 S
C433 C434 1.398 . S
C434 H422 0.950 . S
C434 C433 1.398 . S
C434 C435 1.391 . S
C435 H423 0.950 . S
C435 C431 1.393 . S
C435 C434 1.391 . S
H436 C444 0.950 . S
H437 C449 0.950 . S
H438 C446 0.952 . S
H439 C448 0.950 . S
H440 C450 0.950 . S
H441 C452 0.950 . S
H442 C454 0.950 . S
H443 C455 0.950 1_556 S
C444 H436 0.950 . S
C444 C445 1.386 1_556 S
C444 C446 1.391 . S
C445 C444 1.386 1_554 S
C445 C449 1.393 . S
C446 H438 0.952 . S
C446 C444 1.391 . S
C446 C447 1.398 1_556 S
C447 C446 1.398 1_554 S
C447 C448 1.398 . S
C447 C453 1.491 . S
C448 H439 0.950 . S
C448 C447 1.398 . S
C448 C449 1.391 . S
C449 H437 0.950 . S
C449 C445 1.393 . S
C449 C448 1.391 . S
C450 H440 0.950 . S
C450 C451 1.386 . S
C450 C452 1.391 . S
C451 C450 1.386 . S
C451 C455 1.393 . S
C452 H441 0.950 . S
C452 C450 1.391 . S
C452 C453 1.400 . S
C453 C447 1.491 . S
C453 C452 1.400 . S
C453 C454 1.398 1_554 S
C454 H442 0.950 . S
C454 C453 1.398 1_556 S
C454 C455 1.391 1_556 S
C455 H443 0.950 1_554 S
C455 C451 1.393 . S
C455 C454 1.391 1_554 S
H456 C464 0.950 . S
H457 C469 0.950 . S
H458 C466 0.950 . S
H459 C468 0.950 . S
H460 C470 0.950 . S
H461 C472 0.950 . S
H462 C474 0.950 . S
H463 C475 0.950 . S
C464 H456 0.950 . S
C464 C465 1.386 1_556 S
C464 C466 1.391 . S
C465 C464 1.386 1_554 S
C465 C469 1.393 . S
C466 H458 0.950 . S
C466 C464 1.391 . S
C466 C467 1.400 1_556 S
C467 C466 1.400 1_554 S
C467 C468 1.398 . S
C467 C473 1.491 . S
C468 H459 0.950 . S
C468 C467 1.398 . S
C468 C469 1.391 . S
C469 H457 0.950 . S
C469 C465 1.393 . S
C469 C468 1.391 . S
C470 H460 0.950 . S
C470 C471 1.386 . S
C470 C472 1.391 . S
C471 C470 1.386 . S
C471 C475 1.393 1_554 S
C472 H461 0.950 . S
C472 C470 1.391 . S
C472 C473 1.400 . S
C473 C467 1.491 . S
C473 C472 1.400 . S
C473 C474 1.398 1_554 S
C474 H462 0.950 . S
C474 C473 1.398 1_556 S
C474 C475 1.391 . S
C475 H463 0.950 . S
C475 C471 1.393 1_556 S
C475 C474 1.391 . S
H476 C484 0.950 . S
H477 C489 0.950 . S
H478 C486 0.950 . S
H479 C488 0.950 . S
H480 C490 0.950 . S
H481 C492 0.950 . S
H482 C494 0.950 . S
H483 C495 0.950 . S
C484 H476 0.950 . S
C484 C485 1.386 1_556 S
C484 C486 1.391 . S
C485 C484 1.386 1_554 S
C485 C489 1.393 . S
C486 H478 0.950 . S
C486 C484 1.391 . S
C486 C487 1.400 1_556 S
C487 C486 1.400 1_554 S
C487 C488 1.398 . S
C487 C493 1.491 . S
C488 H479 0.950 . S
C488 C487 1.398 . S
C488 C489 1.391 . S
C489 H477 0.950 . S
C489 C485 1.393 . S
C489 C488 1.391 . S
C490 H480 0.950 . S
C490 C491 1.386 . S
C490 C492 1.391 . S
C491 C490 1.386 . S
C491 C495 1.393 1_554 S
C492 H481 0.950 . S
C492 C490 1.391 . S
C492 C493 1.400 . S
C493 C487 1.491 . S
C493 C492 1.400 . S
C493 C494 1.398 1_554 S
C494 H482 0.950 . S
C494 C493 1.398 1_556 S
C494 C495 1.391 . S
C495 H483 0.950 . S
C495 C491 1.393 1_556 S
C495 C494 1.391 . S
H496 C504 0.950 . S
H497 C509 0.950 . S
H498 C506 0.950 . S
H499 C508 0.950 . S
H500 C510 0.950 . S
H501 C512 0.950 . S
H502 C514 0.950 . S
H503 C515 0.950 . S
C504 H496 0.950 . S
C504 C505 1.386 . S
C504 C506 1.391 . S
C505 C504 1.386 . S
C505 C509 1.393 1_554 S
C506 H498 0.950 . S
C506 C504 1.391 . S
C506 C507 1.400 . S
C507 C506 1.400 . S
C507 C508 1.398 1_554 S
C507 C513 1.491 . S
C508 H499 0.950 . S
C508 C507 1.398 1_556 S
C508 C509 1.391 . S
C509 H497 0.950 . S
C509 C505 1.393 1_556 S
C509 C508 1.391 . S
C510 H500 0.950 . S
C510 C511 1.386 1_556 S
C510 C512 1.391 . S
C511 C510 1.386 1_554 S
C511 C515 1.393 . S
C512 H501 0.950 . S
C512 C510 1.391 . S
C512 C513 1.400 1_556 S
C513 C507 1.491 . S
C513 C512 1.400 1_554 S
C513 C514 1.398 . S
C514 H502 0.950 . S
C514 C513 1.398 . S
C514 C515 1.391 . S
C515 H503 0.950 . S
C515 C511 1.393 . S
C515 C514 1.391 . S
H516 C524 0.950 . S
H517 C529 0.950 . S
H518 C526 0.950 . S
H519 C528 0.950 . S
H520 C530 0.951 . S
H521 C532 0.950 . S
H522 C534 0.950 . S
H523 C535 0.950 . S
C524 H516 0.950 . S
C524 C525 1.386 . S
C524 C526 1.391 . S
C525 C524 1.386 . S
C525 C529 1.393 1_554 S
C526 H518 0.950 . S
C526 C524 1.391 . S
C526 C527 1.400 . S
C527 C526 1.400 . S
C527 C528 1.398 1_554 S
C527 C533 1.491 . S
C528 H519 0.950 . S
C528 C527 1.398 1_556 S
C528 C529 1.391 . S
C529 H517 0.950 . S
C529 C525 1.393 1_556 S
C529 C528 1.391 . S
C530 H520 0.951 . S
C530 C531 1.383 1_556 S
C530 C532 1.392 . S
C531 C530 1.383 1_554 S
C531 C535 1.393 . S
C532 H521 0.950 . S
C532 C530 1.392 . S
C532 C533 1.400 1_556 S
C533 C527 1.491 . S
C533 C532 1.400 1_554 S
C533 C534 1.398 . S
C534 H522 0.950 . S
C534 C533 1.398 . S
C534 C535 1.391 . S
C535 H523 0.950 . S
C535 C531 1.393 . S
C535 C534 1.391 . S
H536 C544 0.950 . S
H537 C549 0.950 . S
H538 C546 0.950 . S
H539 C548 0.950 . S
H540 C550 0.950 . S
H541 C552 0.950 . S
H542 C554 0.950 . S
H543 C555 0.950 . S
C544 H536 0.950 . S
C544 C545 1.386 . S
C544 C546 1.391 . S
C545 C544 1.386 . S
C545 C549 1.393 1_556 S
C546 H538 0.950 . S
C546 C544 1.391 . S
C546 C547 1.400 1_556 S
C547 C546 1.400 1_554 S
C547 C548 1.398 . S
C547 C553 1.491 . S
C548 H539 0.950 . S
C548 C547 1.398 . S
C548 C549 1.391 . S
C549 H537 0.950 . S
C549 C545 1.393 1_554 S
C549 C548 1.391 . S
C550 H540 0.950 . S
C550 C551 1.386 . S
C550 C552 1.391 . S
C551 C550 1.386 . S
C551 C555 1.393 1_554 S
C552 H541 0.950 . S
C552 C550 1.391 . S
C552 C553 1.400 . S
C553 C547 1.491 . S
C553 C552 1.400 . S
C553 C554 1.398 1_554 S
C554 H542 0.950 . S
C554 C553 1.398 1_556 S
C554 C555 1.391 . S
C555 H543 0.950 . S
C555 C551 1.393 1_556 S
C555 C554 1.391 . S
H556 C564 0.950 . S
H557 C569 0.950 1_556 S
H558 C566 0.950 . S
H559 C568 0.950 . S
H560 C570 0.950 . S
H561 C572 0.950 . S
H562 C574 0.950 . S
H563 C575 0.950 . S
C564 H556 0.950 . S
C564 C565 1.386 . S
C564 C566 1.391 . S
C565 C564 1.386 . S
C565 C569 1.393 . S
C566 H558 0.950 . S
C566 C564 1.391 . S
C566 C567 1.400 . S
C567 C566 1.400 . S
C567 C568 1.398 1_554 S
C567 C573 1.491 . S
C568 H559 0.950 . S
C568 C567 1.398 1_556 S
C568 C569 1.391 1_556 S
C569 H557 0.950 1_554 S
C569 C565 1.393 . S
C569 C568 1.391 1_554 S
C570 H560 0.950 . S
C570 C571 1.386 . S
C570 C572 1.391 . S
C571 C570 1.386 . S
C571 C575 1.393 1_556 S
C572 H561 0.950 . S
C572 C570 1.391 . S
C572 C573 1.400 1_556 S
C573 C567 1.491 . S
C573 C572 1.400 1_554 S
C573 C574 1.398 . S
C574 H562 0.950 . S
C574 C573 1.398 . S
C574 C575 1.391 . S
C575 H563 0.950 . S
C575 C571 1.393 1_554 S
C575 C574 1.391 . S
H576 C584 0.950 . S
H577 C589 0.950 . S
H578 C586 0.950 . S
H579 C588 0.950 . S
H580 C590 0.950 . S
H581 C592 0.950 . S
H582 C594 0.950 . S
H583 C595 0.950 . S
C584 H576 0.950 . S
C584 C585 1.386 1_554 S
C584 C586 1.391 . S
C585 C584 1.386 1_556 S
C585 C589 1.393 . S
C586 H578 0.950 . S
C586 C584 1.391 . S
C586 C587 1.400 . S
C587 C586 1.400 . S
C587 C588 1.398 1_554 S
C587 C593 1.491 . S
C588 H579 0.950 . S
C588 C587 1.398 1_556 S
C588 C589 1.391 . S
C589 H577 0.950 . S
C589 C585 1.393 . S
C589 C588 1.391 . S
C590 H580 0.950 . S
C590 C591 1.386 1_556 S
C590 C592 1.391 . S
C591 C590 1.386 1_554 S
C591 C595 1.393 . S
C592 H581 0.950 . S
C592 C590 1.391 . S
C592 C593 1.400 1_556 S
C593 C587 1.491 . S
C593 C592 1.400 1_554 S
C593 C594 1.398 . S
C594 H582 0.950 . S
C594 C593 1.398 . S
C594 C595 1.391 . S
C595 H583 0.950 . S
C595 C591 1.393 . S
C595 C594 1.391 . S
H596 C604 0.950 . S
H597 C609 0.950 . S
H598 C606 0.950 . S
H599 C608 0.950 . S
H600 C610 0.950 . S
H601 C612 0.950 . S
H602 C614 0.950 . S
H603 C615 0.950 . S
C604 H596 0.950 . S
C604 C605 1.396 . S
C604 C606 1.391 . S
C605 C604 1.396 . S
C605 C609 1.384 1_554 S
C606 H598 0.950 . S
C606 C604 1.391 . S
C606 C607 1.400 . S
C607 C606 1.400 . S
C607 C608 1.398 1_554 S
C607 C613 1.491 . S
C608 H599 0.950 . S
C608 C607 1.398 1_556 S
C608 C609 1.391 . S
C609 H597 0.950 . S
C609 C605 1.384 1_556 S
C609 C608 1.391 . S
C610 H600 0.950 . S
C610 C611 1.386 1_556 S
C610 C612 1.391 . S
C611 C610 1.386 1_554 S
C611 C615 1.393 . S
C612 H601 0.950 . S
C612 C610 1.391 . S
C612 C613 1.400 1_556 S
C613 C607 1.491 . S
C613 C612 1.400 1_554 S
C613 C614 1.398 . S
C614 H602 0.950 . S
C614 C613 1.398 . S
C614 C615 1.391 . S
C615 H603 0.950 . S
C615 C611 1.393 . S
C615 C614 1.391 . S
H616 C624 0.950 . S
H617 C629 0.950 . S
H618 C626 0.950 . S
H619 C628 0.950 . S
H620 C630 0.950 . S
H621 C632 0.950 . S
H622 C634 0.950 . S
H623 C635 0.950 . S
C624 H616 0.950 . S
C624 C625 1.379 1_554 S
C624 C626 1.391 . S
C625 C624 1.379 1_556 S
C625 C629 1.398 . S
C626 H618 0.950 . S
C626 C624 1.391 . S
C626 C627 1.400 . S
C627 C626 1.400 . S
C627 C628 1.398 1_554 S
C627 C633 1.491 . S
C628 H619 0.950 . S
C628 C627 1.398 1_556 S
C628 C629 1.391 . S
C629 H617 0.950 . S
C629 C625 1.398 . S
C629 C628 1.391 . S
C630 H620 0.950 . S
C630 C631 1.386 1_556 S
C630 C632 1.391 . S
C631 C630 1.386 1_554 S
C631 C635 1.393 . S
C632 H621 0.950 . S
C632 C630 1.391 . S
C632 C633 1.400 1_556 S
C633 C627 1.491 . S
C633 C632 1.400 1_554 S
C633 C634 1.398 . S
C634 H622 0.950 . S
C634 C633 1.398 . S
C634 C635 1.391 . S
C635 H623 0.950 . S
C635 C631 1.393 . S
C635 C634 1.391 . S
H636 C644 0.950 . S
H637 C649 0.950 . S
H638 C646 0.950 . S
H639 C648 0.950 . S
H640 C650 0.950 . S
H641 C652 0.950 . S
H642 C654 0.950 . S
H643 C655 0.950 . S
C644 H636 0.950 . S
C644 C645 1.386 . S
C644 C646 1.391 . S
C645 C644 1.386 . S
C645 C649 1.393 . S
C646 H638 0.950 . S
C646 C644 1.391 . S
C646 C647 1.400 . S
C647 C646 1.400 . S
C647 C648 1.398 . S
C647 C653 1.491 . S
C648 H639 0.950 . S
C648 C647 1.398 . S
C648 C649 1.391 . S
C649 H637 0.950 . S
C649 C645 1.393 . S
C649 C648 1.391 . S
C650 H640 0.950 . S
C650 C651 1.386 . S
C650 C652 1.391 . S
C651 C650 1.386 . S
C651 C655 1.393 . S
C652 H641 0.950 . S
C652 C650 1.391 . S
C652 C653 1.400 . S
C653 C647 1.491 . S
C653 C652 1.400 . S
C653 C654 1.398 . S
C654 H642 0.950 . S
C654 C653 1.398 . S
C654 C655 1.391 . S
C655 H643 0.950 . S
C655 C651 1.393 . S
C655 C654 1.391 . S
H656 C664 0.950 . S
H657 C669 0.950 . S
H658 C666 0.950 . S
H659 C668 0.950 . S
H660 C670 0.950 . S
H661 C672 0.950 . S
H662 C674 0.950 . S
H663 C675 0.950 . S
C664 H656 0.950 . S
C664 C665 1.386 . S
C664 C666 1.391 . S
C665 C664 1.386 . S
C665 C669 1.393 . S
C666 H658 0.950 . S
C666 C664 1.391 . S
C666 C667 1.400 . S
C667 C666 1.400 . S
C667 C668 1.398 . S
C667 C673 1.491 . S
C668 H659 0.950 . S
C668 C667 1.398 . S
C668 C669 1.391 . S
C669 H657 0.950 . S
C669 C665 1.393 . S
C669 C668 1.391 . S
C670 H660 0.950 . S
C670 C671 1.386 . S
C670 C672 1.391 . S
C671 C670 1.386 . S
C671 C675 1.393 . S
C672 H661 0.950 . S
C672 C670 1.391 . S
C672 C673 1.400 . S
C673 C667 1.491 . S
C673 C672 1.400 . S
C673 C674 1.398 . S
C674 H662 0.950 . S
C674 C673 1.398 . S
C674 C675 1.391 . S
C675 H663 0.950 . S
C675 C671 1.393 . S
C675 C674 1.391 . S
H676 C684 0.950 . S
H677 C689 0.950 . S
H678 C686 0.950 . S
H679 C688 0.950 . S
H680 C690 0.950 . S
H681 C692 0.950 . S
H682 C694 0.950 . S
H683 C695 0.950 . S
C684 H676 0.950 . S
C684 C685 1.386 . S
C684 C686 1.391 . S
C685 C684 1.386 . S
C685 C689 1.393 . S
C686 H678 0.950 . S
C686 C684 1.391 . S
C686 C687 1.400 . S
C687 C686 1.400 . S
C687 C688 1.398 . S
C687 C693 1.491 . S
C688 H679 0.950 . S
C688 C687 1.398 . S
C688 C689 1.391 . S
C689 H677 0.950 . S
C689 C685 1.393 . S
C689 C688 1.391 . S
C690 H680 0.950 . S
C690 C691 1.386 . S
C690 C692 1.391 . S
C691 C690 1.386 . S
C691 C695 1.393 . S
C692 H681 0.950 . S
C692 C690 1.391 . S
C692 C693 1.400 . S
C693 C687 1.491 . S
C693 C692 1.400 . S
C693 C694 1.398 . S
C694 H682 0.950 . S
C694 C693 1.398 . S
C694 C695 1.391 . S
C695 H683 0.950 . S
C695 C691 1.393 . S
C695 C694 1.391 . S
H696 C704 0.950 . S
H697 C709 0.950 . S
H698 C706 0.950 . S
H699 C708 0.950 . S
H700 C710 0.950 . S
H701 C712 0.950 . S
H702 C714 0.950 . S
H703 C715 0.950 . S
C704 H696 0.950 . S
C704 C705 1.386 . S
C704 C706 1.391 . S
C705 C704 1.386 . S
C705 C709 1.393 . S
C706 H698 0.950 . S
C706 C704 1.391 . S
C706 C707 1.400 . S
C707 C706 1.400 . S
C707 C708 1.398 . S
C707 C713 1.491 . S
C708 H699 0.950 . S
C708 C707 1.398 . S
C708 C709 1.391 . S
C709 H697 0.950 . S
C709 C705 1.393 . S
C709 C708 1.391 . S
C710 H700 0.950 . S
C710 C711 1.386 . S
C710 C712 1.391 . S
C711 C710 1.386 . S
C711 C715 1.393 . S
C712 H701 0.950 . S
C712 C710 1.391 . S
C712 C713 1.400 . S
C713 C707 1.491 . S
C713 C712 1.400 . S
C713 C714 1.398 . S
C714 H702 0.950 . S
C714 C713 1.398 . S
C714 C715 1.391 . S
C715 H703 0.950 . S
C715 C711 1.393 . S
C715 C714 1.391 . S
H716 C724 0.950 . S
H717 C729 0.950 . S
H718 C726 0.950 . S
H719 C728 0.950 . S
H720 C730 0.950 . S
H721 C732 0.950 . S
H722 C734 0.950 . S
H723 C735 0.950 . S
C724 H716 0.950 . S
C724 C725 1.386 . S
C724 C726 1.391 . S
C725 C724 1.386 . S
C725 C729 1.393 . S
C726 H718 0.950 . S
C726 C724 1.391 . S
C726 C727 1.400 . S
C727 C726 1.400 . S
C727 C728 1.398 . S
C727 C733 1.491 . S
C728 H719 0.950 . S
C728 C727 1.398 . S
C728 C729 1.391 . S
C729 H717 0.950 . S
C729 C725 1.393 . S
C729 C728 1.391 . S
C730 H720 0.950 . S
C730 C731 1.386 . S
C730 C732 1.391 . S
C731 C730 1.386 . S
C731 C735 1.393 . S
C732 H721 0.950 . S
C732 C730 1.391 . S
C732 C733 1.400 . S
C733 C727 1.491 . S
C733 C732 1.400 . S
C733 C734 1.398 . S
C734 H722 0.950 . S
C734 C733 1.398 . S
C734 C735 1.391 . S
C735 H723 0.950 . S
C735 C731 1.393 . S
C735 C734 1.391 . S
H736 C744 0.950 . S
H737 C749 0.950 . S
H738 C746 0.950 . S
H739 C748 0.950 . S
H740 C750 0.950 . S
H741 C752 0.950 . S
H742 C754 0.950 . S
H743 C755 0.950 . S
C744 H736 0.950 . S
C744 C745 1.386 . S
C744 C746 1.391 . S
C745 C744 1.386 . S
C745 C749 1.393 . S
C746 H738 0.950 . S
C746 C744 1.391 . S
C746 C747 1.400 . S
C747 C746 1.400 . S
C747 C748 1.398 . S
C747 C753 1.491 . S
C748 H739 0.950 . S
C748 C747 1.398 . S
C748 C749 1.391 . S
C749 H737 0.950 . S
C749 C745 1.393 . S
C749 C748 1.391 . S
C750 H740 0.950 . S
C750 C751 1.386 . S
C750 C752 1.391 . S
C751 C750 1.386 . S
C751 C755 1.393 . S
C752 H741 0.950 . S
C752 C750 1.391 . S
C752 C753 1.400 . S
C753 C747 1.491 . S
C753 C752 1.400 . S
C753 C754 1.398 . S
C754 H742 0.950 . S
C754 C753 1.398 . S
C754 C755 1.391 . S
C755 H743 0.950 . S
C755 C751 1.393 . S
C755 C754 1.391 . S
H756 C764 0.950 . S
H757 C769 0.950 . S
H758 C766 0.950 . S
H759 C768 0.950 . S
H760 C770 0.950 . S
H761 C772 0.950 . S
H762 C774 0.950 . S
H763 C775 0.950 . S
C764 H756 0.950 . S
C764 C765 1.386 . S
C764 C766 1.391 . S
C765 C764 1.386 . S
C765 C769 1.393 . S
C766 H758 0.950 . S
C766 C764 1.391 . S
C766 C767 1.400 . S
C767 C766 1.400 . S
C767 C768 1.398 . S
C767 C773 1.491 . S
C768 H759 0.950 . S
C768 C767 1.398 . S
C768 C769 1.391 . S
C769 H757 0.950 . S
C769 C765 1.393 . S
C769 C768 1.391 . S
C770 H760 0.950 . S
C770 C771 1.386 . S
C770 C772 1.391 . S
C771 C770 1.386 . S
C771 C775 1.393 . S
C772 H761 0.950 . S
C772 C770 1.391 . S
C772 C773 1.400 . S
C773 C767 1.491 . S
C773 C772 1.400 . S
C773 C774 1.398 . S
C774 H762 0.950 . S
C774 C773 1.398 . S
C774 C775 1.391 . S
C775 H763 0.950 . S
C775 C771 1.393 . S
C775 C774 1.391 . S
H776 C784 0.950 . S
H777 C789 0.950 . S
H778 C786 0.950 . S
H779 C788 0.950 . S
H780 C790 0.950 . S
H781 C792 0.950 . S
H782 C794 0.950 . S
H783 C795 0.950 . S
C784 H776 0.950 . S
C784 C785 1.386 . S
C784 C786 1.391 . S
C785 C784 1.386 . S
C785 C789 1.393 . S
C786 H778 0.950 . S
C786 C784 1.391 . S
C786 C787 1.400 . S
C787 C786 1.400 . S
C787 C788 1.398 . S
C787 C793 1.491 . S
C788 H779 0.950 . S
C788 C787 1.398 . S
C788 C789 1.391 . S
C789 H777 0.950 . S
C789 C785 1.393 . S
C789 C788 1.391 . S
C790 H780 0.950 . S
C790 C791 1.386 . S
C790 C792 1.391 . S
C791 C790 1.386 . S
C791 C795 1.393 . S
C792 H781 0.950 . S
C792 C790 1.391 . S
C792 C793 1.400 . S
C793 C787 1.491 . S
C793 C792 1.400 . S
C793 C794 1.398 . S
C794 H782 0.950 . S
C794 C793 1.398 . S
C794 C795 1.391 . S
C795 H783 0.950 . S
C795 C791 1.393 . S
C795 C794 1.391 . S
H796 C804 0.950 . S
H797 C809 0.950 . S
H798 C806 0.950 . S
H799 C808 0.950 . S
H800 C810 0.950 . S
H801 C812 0.950 . S
H802 C814 0.950 . S
H803 C815 0.950 . S
C804 H796 0.950 . S
C804 C805 1.386 . S
C804 C806 1.391 . S
C805 C804 1.386 . S
C805 C809 1.393 . S
C806 H798 0.950 . S
C806 C804 1.391 . S
C806 C807 1.400 . S
C807 C806 1.400 . S
C807 C808 1.398 . S
C807 C813 1.491 . S
C808 H799 0.950 . S
C808 C807 1.398 . S
C808 C809 1.391 . S
C809 H797 0.950 . S
C809 C805 1.393 . S
C809 C808 1.391 . S
C810 H800 0.950 . S
C810 C811 1.386 . S
C810 C812 1.391 . S
C811 C810 1.386 . S
C811 C815 1.393 . S
C812 H801 0.950 . S
C812 C810 1.391 . S
C812 C813 1.400 . S
C813 C807 1.491 . S
C813 C812 1.400 . S
C813 C814 1.398 . S
C814 H802 0.950 . S
C814 C813 1.398 . S
C814 C815 1.391 . S
C815 H803 0.950 . S
C815 C811 1.393 . S
C815 C814 1.391 . S
H816 C824 0.950 . S
H817 C829 0.950 . S
H818 C826 0.950 . S
H819 C828 0.950 . S
H820 C830 0.950 . S
H821 C832 0.950 . S
H822 C834 0.950 . S
H823 C835 0.950 . S
C824 H816 0.950 . S
C824 C825 1.386 . S
C824 C826 1.391 . S
C825 C824 1.386 . S
C825 C829 1.393 . S
C826 H818 0.950 . S
C826 C824 1.391 . S
C826 C827 1.400 . S
C827 C826 1.400 . S
C827 C828 1.398 . S
C827 C833 1.491 . S
C828 H819 0.950 . S
C828 C827 1.398 . S
C828 C829 1.391 . S
C829 H817 0.950 . S
C829 C825 1.393 . S
C829 C828 1.391 . S
C830 H820 0.950 . S
C830 C831 1.386 . S
C830 C832 1.391 . S
C831 C830 1.386 . S
C831 C835 1.393 . S
C832 H821 0.950 . S
C832 C830 1.391 . S
C832 C833 1.400 . S
C833 C827 1.491 . S
C833 C832 1.400 . S
C833 C834 1.398 . S
C834 H822 0.950 . S
C834 C833 1.398 . S
C834 C835 1.391 . S
C835 H823 0.950 . S
C835 C831 1.393 . S
C835 C834 1.391 . S
H836 C844 0.950 . S
H837 C849 0.950 . S
H838 C846 0.950 . S
H839 C848 0.950 . S
H840 C850 0.950 . S
H841 C852 0.950 . S
H842 C854 0.950 . S
H843 C855 0.950 . S
C844 H836 0.950 . S
C844 C845 1.386 . S
C844 C846 1.391 . S
C845 C844 1.386 . S
C845 C849 1.393 . S
C846 H838 0.950 . S
C846 C844 1.391 . S
C846 C847 1.400 . S
C847 C846 1.400 . S
C847 C848 1.398 . S
C847 C853 1.491 . S
C848 H839 0.950 . S
C848 C847 1.398 . S
C848 C849 1.391 . S
C849 H837 0.950 . S
C849 C845 1.393 . S
C849 C848 1.391 . S
C850 H840 0.950 . S
C850 C851 1.386 . S
C850 C852 1.391 . S
C851 C850 1.386 . S
C851 C855 1.393 . S
C852 H841 0.950 . S
C852 C850 1.391 . S
C852 C853 1.400 . S
C853 C847 1.491 . S
C853 C852 1.400 . S
C853 C854 1.398 . S
C854 H842 0.950 . S
C854 C853 1.398 . S
C854 C855 1.391 . S
C855 H843 0.950 . S
C855 C851 1.393 . S
C855 C854 1.391 . S
H856 C864 0.950 . S
H857 C869 0.950 . S
H858 C866 0.950 . S
H859 C868 0.950 . S
H860 C870 0.950 . S
H861 C872 0.950 . S
H862 C874 0.950 . S
H863 C875 0.950 . S
C864 H856 0.950 . S
C864 C865 1.386 . S
C864 C866 1.391 . S
C865 C864 1.386 . S
C865 C869 1.393 . S
C866 H858 0.950 . S
C866 C864 1.391 . S
C866 C867 1.400 . S
C867 C866 1.400 . S
C867 C868 1.398 . S
C867 C873 1.491 . S
C868 H859 0.950 . S
C868 C867 1.398 . S
C868 C869 1.391 . S
C869 H857 0.950 . S
C869 C865 1.393 . S
C869 C868 1.391 . S
C870 H860 0.950 . S
C870 C871 1.386 . S
C870 C872 1.391 . S
C871 C870 1.386 . S
C871 C875 1.393 . S
C872 H861 0.950 . S
C872 C870 1.391 . S
C872 C873 1.400 . S
C873 C867 1.491 . S
C873 C872 1.400 . S
C873 C874 1.398 . S
C874 H862 0.950 . S
C874 C873 1.398 . S
C874 C875 1.391 . S
C875 H863 0.950 . S
C875 C871 1.393 . S
C875 C874 1.391 . S
H876 C884 0.950 . S
H877 C889 0.950 . S
H878 C886 0.950 . S
H879 C888 0.950 . S
H880 C890 0.950 . S
H881 C892 0.950 . S
H882 C894 0.950 . S
H883 C895 0.950 . S
C884 H876 0.950 . S
C884 C885 1.386 . S
C884 C886 1.391 . S
C885 C884 1.386 . S
C885 C889 1.393 1_556 S
C886 H878 0.950 . S
C886 C884 1.391 . S
C886 C887 1.400 1_556 S
C887 C886 1.400 1_554 S
C887 C888 1.398 . S
C887 C893 1.491 1_455 S
C888 H879 0.950 . S
C888 C887 1.398 . S
C888 C889 1.391 . S
C889 H877 0.950 . S
C889 C885 1.393 1_554 S
C889 C888 1.391 . S
C890 H880 0.950 . S
C890 C891 1.386 . S
C890 C892 1.391 . S
C891 C890 1.386 . S
C891 C895 1.393 1_554 S
C892 H881 0.950 . S
C892 C890 1.391 . S
C892 C893 1.400 . S
C893 C887 1.491 1_655 S
C893 C892 1.400 . S
C893 C894 1.398 1_554 S
C894 H882 0.950 . S
C894 C893 1.398 1_556 S
C894 C895 1.391 . S
C895 H883 0.950 . S
C895 C891 1.393 1_556 S
C895 C894 1.391 . S
H896 C904 0.950 . S
H897 C909 0.950 . S
H898 C906 0.950 . S
H899 C908 0.950 . S
H900 C910 0.950 . S
H901 C912 0.950 . S
H902 C914 0.950 . S
H903 C915 0.950 . S
C904 H896 0.950 . S
C904 C905 1.386 . S
C904 C906 1.391 . S
C905 C904 1.386 . S
C905 C909 1.393 . S
C906 H898 0.950 . S
C906 C904 1.391 . S
C906 C907 1.400 . S
C907 C906 1.400 . S
C907 C908 1.398 . S
C907 C913 1.491 1_565 S
C908 H899 0.950 . S
C908 C907 1.398 . S
C908 C909 1.391 . S
C909 H897 0.950 . S
C909 C905 1.393 . S
C909 C908 1.391 . S
C910 H900 0.950 . S
C910 C911 1.386 . S
C910 C912 1.391 . S
C911 C910 1.386 . S
C911 C915 1.393 1_556 S
C912 H901 0.950 . S
C912 C910 1.391 . S
C912 C913 1.400 1_556 S
C913 C907 1.491 1_545 S
C913 C912 1.400 1_554 S
C913 C914 1.398 . S
C914 H902 0.950 . S
C914 C913 1.398 . S
C914 C915 1.391 . S
C915 H903 0.950 . S
C915 C911 1.393 1_554 S
C915 C914 1.391 . S
H916 C924 0.950 1_556 S
H917 C929 0.950 . S
H918 C926 0.950 1_556 S
H919 C928 0.950 . S
H920 C930 0.950 . S
H921 C932 0.950 . S
H922 C934 0.950 . S
H923 C935 0.950 . S
C924 H916 0.950 1_554 S
C924 C925 1.386 . S
C924 C926 1.391 . S
C925 C924 1.386 . S
C925 C929 1.393 . S
C926 H918 0.950 1_554 S
C926 C924 1.391 . S
C926 C927 1.400 . S
C927 C926 1.400 . S
C927 C928 1.398 . S
C927 C933 1.491 . S
C928 H919 0.950 . S
C928 C927 1.398 . S
C928 C929 1.391 . S
C929 H917 0.950 . S
C929 C925 1.393 . S
C929 C928 1.391 . S
C930 H920 0.950 . S
C930 C931 1.386 1_554 S
C930 C932 1.391 . S
C931 C930 1.386 1_556 S
C931 C935 1.393 . S
C932 H921 0.950 . S
C932 C930 1.391 . S
C932 C933 1.400 . S
C933 C927 1.491 . S
C933 C932 1.400 . S
C933 C934 1.398 1_554 S
C934 H922 0.950 . S
C934 C933 1.398 1_556 S
C934 C935 1.391 . S
C935 H923 0.950 . S
C935 C931 1.393 . S
C935 C934 1.391 . S
H936 C944 0.950 . S
H937 C949 0.950 . S
H938 C946 0.950 . S
H939 C948 0.950 1_556 S
H940 C950 0.950 . S
H941 C952 0.950 . S
H942 C954 0.950 . S
H943 C955 0.950 . S
C944 H936 0.950 . S
C944 C945 1.386 . S
C944 C946 1.391 . S
C945 C944 1.386 . S
C945 C949 1.393 . S
C946 H938 0.950 . S
C946 C944 1.391 . S
C946 C947 1.400 . S
C947 C946 1.400 . S
C947 C948 1.398 . S
C947 C953 1.491 1_455 S
C948 H939 0.950 1_554 S
C948 C947 1.398 . S
C948 C949 1.391 . S
C949 H937 0.950 . S
C949 C945 1.393 . S
C949 C948 1.391 . S
C950 H940 0.950 . S
C950 C951 1.386 . S
C950 C952 1.391 . S
C951 C950 1.386 . S
C951 C955 1.393 1_556 S
C952 H941 0.950 . S
C952 C950 1.391 . S
C952 C953 1.400 1_556 S
C953 C947 1.491 1_655 S
C953 C952 1.400 1_554 S
C953 C954 1.398 . S
C954 H942 0.950 . S
C954 C953 1.398 . S
C954 C955 1.391 . S
C955 H943 0.950 . S
C955 C951 1.393 1_554 S
C955 C954 1.391 . S
H956 C964 0.950 . S
H957 C969 0.950 . S
H958 C966 0.950 . S
H959 C968 0.950 . S
H960 C970 0.950 . S
H961 C972 0.950 . S
H962 C974 0.950 . S
H963 C975 0.950 . S
C964 H956 0.950 . S
C964 C965 1.386 1_554 S
C964 C966 1.391 . S
C965 C964 1.386 1_556 S
C965 C969 1.393 . S
C966 H958 0.950 . S
C966 C964 1.391 . S
C966 C967 1.400 . S
C967 C966 1.400 . S
C967 C968 1.398 1_554 S
C967 C973 1.491 1_565 S
C968 H959 0.950 . S
C968 C967 1.398 1_556 S
C968 C969 1.391 . S
C969 H957 0.950 . S
C969 C965 1.393 . S
C969 C968 1.391 . S
C970 H960 0.950 . S
C970 C971 1.386 1_556 S
C970 C972 1.391 . S
C971 C970 1.386 1_554 S
C971 C975 1.393 . S
C972 H961 0.950 . S
C972 C970 1.391 . S
C972 C973 1.400 1_556 S
C973 C967 1.491 1_545 S
C973 C972 1.400 1_554 S
C973 C974 1.398 . S
C974 H962 0.950 . S
C974 C973 1.398 . S
C974 C975 1.391 . S
C975 H963 0.950 . S
C975 C971 1.393 . S
C975 C974 1.391 . S
H976 C984 0.950 . S
H977 C989 0.950 . S
H978 C986 0.950 . S
H979 C988 0.950 . S
H980 C990 0.950 . S
H981 C992 0.950 . S
H982 C994 0.950 . S
H983 C995 0.950 . S
C984 H976 0.950 . S
C984 C985 1.386 . S
C984 C986 1.391 . S
C985 C984 1.386 . S
C985 C989 1.393 1_554 S
C986 H978 0.950 . S
C986 C984 1.391 . S
C986 C987 1.400 . S
C987 C986 1.400 . S
C987 C988 1.398 1_554 S
C987 C993 1.491 . S
C988 H979 0.950 . S
C988 C987 1.398 1_556 S
C988 C989 1.391 . S
C989 H977 0.950 . S
C989 C985 1.393 1_556 S
C989 C988 1.391 . S
C990 H980 0.950 . S
C990 C991 1.386 . S
C990 C992 1.391 . S
C991 C990 1.386 . S
C991 C995 1.393 1_556 S
C992 H981 0.950 . S
C992 C990 1.391 . S
C992 C993 1.400 1_556 S
C993 C987 1.491 . S
C993 C992 1.400 1_554 S
C993 C994 1.398 . S
C994 H982 0.950 . S
C994 C993 1.398 . S
C994 C995 1.391 . S
C995 H983 0.950 . S
C995 C991 1.393 1_554 S
C995 C994 1.391 . S
C405 C281 1.611 . S
C411 C17 1.607 . S
C425 C50 1.611 . S
C431 C314 1.607 . S
C445 C347 1.610 . S
C451 C83 1.609 . S
C465 C380 1.608 . S
C471 C116 1.604 . S
C485 C149 1.605 . S
C491 C215 1.610 . S
C505 C248 1.608 . S
C511 C182 1.610 . S
C525 C358 1.142 . S
C531 C28 1.146 . S
C545 C391 1.157 1_556 S
C551 C61 1.151 . S
C565 C94 1.157 . S
C571 C226 1.154 1_556 S
C585 C259 1.152 1_556 S
C591 C127 1.157 . S
C605 C292 1.144 . S
C611 C160 1.149 . S
C625 C325 1.147 1_556 S
C631 C193 1.154 . S
C645 N5 1.467 . S
C651 N14 1.459 . S
C665 N38 1.474 . S
C671 N47 1.466 . S
C685 N71 1.486 . S
C691 N80 1.480 . S
C705 N104 1.483 . S
C711 N113 1.477 . S
C725 N146 1.486 . S
C731 N137 1.493 . S
C745 N170 1.488 . S
C751 N179 1.480 . S
C765 N212 1.458 . S
C771 N203 1.465 . S
C785 N236 1.492 . S
C791 N245 1.485 . S
C805 N278 1.473 . S
C811 N269 1.482 . S
C825 N311 1.485 . S
C831 N302 1.492 . S
C845 N335 1.493 . S
C851 N344 1.486 . S
C865 N368 1.467 . S
C871 N377 1.458 . S
C885 C8 1.230 . S
C891 C371 1.208 . S
C905 C206 1.225 . S
C911 C41 1.219 . S
C925 C239 1.218 . S
C931 C74 1.226 . S
C945 C272 1.227 . S
C951 C107 1.216 . S
C965 C140 1.212 . S
C971 C305 1.229 . S
C985 C338 1.228 . S
C991 C173 1.205 . S
