# Generated by pormake.
# Topology umq, (4)-cn, num edge types: 1
# Building blocks:
#     Node 0, Type 0, BuildingBlock: QUQFOY_clean_sbu_3, # of connection points: 4
#     Node 1, Type 0, BuildingBlock: QUQFOY_clean_sbu_3, # of connection points: 4
#     Node 2, Type 0, BuildingBlock: QUQFOY_clean_sbu_3, # of connection points: 4
#     Node 3, Type 0, BuildingBlock: QUQFOY_clean_sbu_3, # of connection points: 4
#     Node 4, Type 0, BuildingBlock: QUQFOY_clean_sbu_3, # of connection points: 4
#     Node 5, Type 0, BuildingBlock: QUQFOY_clean_sbu_3, # of connection points: 4
#     Node 6, Type 0, BuildingBlock: QUQFOY_clean_sbu_3, # of connection points: 4
#     Node 7, Type 0, BuildingBlock: QUQFOY_clean_sbu_3, # of connection points: 4
#     Node 8, Type 0, BuildingBlock: QUQFOY_clean_sbu_3, # of connection points: 4
#     Node 9, Type 0, BuildingBlock: QUQFOY_clean_sbu_3, # of connection points: 4
#     Node 10, Type 0, BuildingBlock: QUQFOY_clean_sbu_3, # of connection points: 4
#     Node 11, Type 0, BuildingBlock: QUQFOY_clean_sbu_3, # of connection points: 4
#     Node 12, Type 0, BuildingBlock: QUQFOY_clean_sbu_3, # of connection points: 4
#     Node 13, Type 0, BuildingBlock: QUQFOY_clean_sbu_3, # of connection points: 4
#     Node 14, Type 0, BuildingBlock: QUQFOY_clean_sbu_3, # of connection points: 4
#     Node 15, Type 0, BuildingBlock: QUQFOY_clean_sbu_3, # of connection points: 4
#     Node 16, Type 0, BuildingBlock: QUQFOY_clean_sbu_3, # of connection points: 4
#     Node 17, Type 0, BuildingBlock: QUQFOY_clean_sbu_3, # of connection points: 4
#     Node 18, Type 0, BuildingBlock: QUQFOY_clean_sbu_3, # of connection points: 4
#     Node 19, Type 0, BuildingBlock: QUQFOY_clean_sbu_3, # of connection points: 4
#     Node 20, Type 0, BuildingBlock: QUQFOY_clean_sbu_3, # of connection points: 4
#     Node 21, Type 0, BuildingBlock: QUQFOY_clean_sbu_3, # of connection points: 4
#     Node 22, Type 0, BuildingBlock: QUQFOY_clean_sbu_3, # of connection points: 4
#     Node 23, Type 0, BuildingBlock: QUQFOY_clean_sbu_3, # of connection points: 4
#     Node 24, Type 0, BuildingBlock: QUQFOY_clean_sbu_3, # of connection points: 4
#     Node 25, Type 0, BuildingBlock: QUQFOY_clean_sbu_3, # of connection points: 4
#     Node 26, Type 0, BuildingBlock: QUQFOY_clean_sbu_3, # of connection points: 4
#     Node 27, Type 0, BuildingBlock: QUQFOY_clean_sbu_3, # of connection points: 4
#     Node 28, Type 0, BuildingBlock: QUQFOY_clean_sbu_3, # of connection points: 4
#     Node 29, Type 0, BuildingBlock: QUQFOY_clean_sbu_3, # of connection points: 4
#     Node 30, Type 0, BuildingBlock: QUQFOY_clean_sbu_3, # of connection points: 4
#     Node 31, Type 0, BuildingBlock: QUQFOY_clean_sbu_3, # of connection points: 4
#     Edge 32, Type (0, 0), BuildingBlock: XUDNAN_clean_linker_2, # of connection points: 2
#     Edge 33, Type (0, 0), BuildingBlock: XUDNAN_clean_linker_2, # of connection points: 2
#     Edge 34, Type (0, 0), BuildingBlock: XUDNAN_clean_linker_2, # of connection points: 2
#     Edge 35, Type (0, 0), BuildingBlock: XUDNAN_clean_linker_2, # of connection points: 2
#     Edge 36, Type (0, 0), BuildingBlock: XUDNAN_clean_linker_2, # of connection points: 2
#     Edge 37, Type (0, 0), BuildingBlock: XUDNAN_clean_linker_2, # of connection points: 2
#     Edge 38, Type (0, 0), BuildingBlock: XUDNAN_clean_linker_2, # of connection points: 2
#     Edge 39, Type (0, 0), BuildingBlock: XUDNAN_clean_linker_2, # of connection points: 2
#     Edge 40, Type (0, 0), BuildingBlock: XUDNAN_clean_linker_2, # of connection points: 2
#     Edge 41, Type (0, 0), BuildingBlock: XUDNAN_clean_linker_2, # of connection points: 2
#     Edge 42, Type (0, 0), BuildingBlock: XUDNAN_clean_linker_2, # of connection points: 2
#     Edge 43, Type (0, 0), BuildingBlock: XUDNAN_clean_linker_2, # of connection points: 2
#     Edge 44, Type (0, 0), BuildingBlock: XUDNAN_clean_linker_2, # of connection points: 2
#     Edge 45, Type (0, 0), BuildingBlock: XUDNAN_clean_linker_2, # of connection points: 2
#     Edge 46, Type (0, 0), BuildingBlock: XUDNAN_clean_linker_2, # of connection points: 2
#     Edge 47, Type (0, 0), BuildingBlock: XUDNAN_clean_linker_2, # of connection points: 2
#     Edge 48, Type (0, 0), BuildingBlock: XUDNAN_clean_linker_2, # of connection points: 2
#     Edge 49, Type (0, 0), BuildingBlock: XUDNAN_clean_linker_2, # of connection points: 2
#     Edge 50, Type (0, 0), BuildingBlock: XUDNAN_clean_linker_2, # of connection points: 2
#     Edge 51, Type (0, 0), BuildingBlock: XUDNAN_clean_linker_2, # of connection points: 2
#     Edge 52, Type (0, 0), BuildingBlock: XUDNAN_clean_linker_2, # of connection points: 2
#     Edge 53, Type (0, 0), BuildingBlock: XUDNAN_clean_linker_2, # of connection points: 2
#     Edge 54, Type (0, 0), BuildingBlock: XUDNAN_clean_linker_2, # of connection points: 2
#     Edge 55, Type (0, 0), BuildingBlock: XUDNAN_clean_linker_2, # of connection points: 2
#     Edge 56, Type (0, 0), BuildingBlock: XUDNAN_clean_linker_2, # of connection points: 2
#     Edge 57, Type (0, 0), BuildingBlock: XUDNAN_clean_linker_2, # of connection points: 2
#     Edge 58, Type (0, 0), BuildingBlock: XUDNAN_clean_linker_2, # of connection points: 2
#     Edge 59, Type (0, 0), BuildingBlock: XUDNAN_clean_linker_2, # of connection points: 2
#     Edge 60, Type (0, 0), BuildingBlock: XUDNAN_clean_linker_2, # of connection points: 2
#     Edge 61, Type (0, 0), BuildingBlock: XUDNAN_clean_linker_2, # of connection points: 2
#     Edge 62, Type (0, 0), BuildingBlock: XUDNAN_clean_linker_2, # of connection points: 2
#     Edge 63, Type (0, 0), BuildingBlock: XUDNAN_clean_linker_2, # of connection points: 2
#     Edge 64, Type (0, 0), BuildingBlock: XUDNAN_clean_linker_2, # of connection points: 2
#     Edge 65, Type (0, 0), BuildingBlock: XUDNAN_clean_linker_2, # of connection points: 2
#     Edge 66, Type (0, 0), BuildingBlock: XUDNAN_clean_linker_2, # of connection points: 2
#     Edge 67, Type (0, 0), BuildingBlock: XUDNAN_clean_linker_2, # of connection points: 2
#     Edge 68, Type (0, 0), BuildingBlock: XUDNAN_clean_linker_2, # of connection points: 2
#     Edge 69, Type (0, 0), BuildingBlock: XUDNAN_clean_linker_2, # of connection points: 2
#     Edge 70, Type (0, 0), BuildingBlock: XUDNAN_clean_linker_2, # of connection points: 2
#     Edge 71, Type (0, 0), BuildingBlock: XUDNAN_clean_linker_2, # of connection points: 2
#     Edge 72, Type (0, 0), BuildingBlock: XUDNAN_clean_linker_2, # of connection points: 2
#     Edge 73, Type (0, 0), BuildingBlock: XUDNAN_clean_linker_2, # of connection points: 2
#     Edge 74, Type (0, 0), BuildingBlock: XUDNAN_clean_linker_2, # of connection points: 2
#     Edge 75, Type (0, 0), BuildingBlock: XUDNAN_clean_linker_2, # of connection points: 2
#     Edge 76, Type (0, 0), BuildingBlock: XUDNAN_clean_linker_2, # of connection points: 2
#     Edge 77, Type (0, 0), BuildingBlock: XUDNAN_clean_linker_2, # of connection points: 2
#     Edge 78, Type (0, 0), BuildingBlock: XUDNAN_clean_linker_2, # of connection points: 2
#     Edge 79, Type (0, 0), BuildingBlock: XUDNAN_clean_linker_2, # of connection points: 2
#     Edge 80, Type (0, 0), BuildingBlock: XUDNAN_clean_linker_2, # of connection points: 2
#     Edge 81, Type (0, 0), BuildingBlock: XUDNAN_clean_linker_2, # of connection points: 2
#     Edge 82, Type (0, 0), BuildingBlock: XUDNAN_clean_linker_2, # of connection points: 2
#     Edge 83, Type (0, 0), BuildingBlock: XUDNAN_clean_linker_2, # of connection points: 2
#     Edge 84, Type (0, 0), BuildingBlock: XUDNAN_clean_linker_2, # of connection points: 2
#     Edge 85, Type (0, 0), BuildingBlock: XUDNAN_clean_linker_2, # of connection points: 2
#     Edge 86, Type (0, 0), BuildingBlock: XUDNAN_clean_linker_2, # of connection points: 2
#     Edge 87, Type (0, 0), BuildingBlock: XUDNAN_clean_linker_2, # of connection points: 2
#     Edge 88, Type (0, 0), BuildingBlock: XUDNAN_clean_linker_2, # of connection points: 2
#     Edge 89, Type (0, 0), BuildingBlock: XUDNAN_clean_linker_2, # of connection points: 2
#     Edge 90, Type (0, 0), BuildingBlock: XUDNAN_clean_linker_2, # of connection points: 2
#     Edge 91, Type (0, 0), BuildingBlock: XUDNAN_clean_linker_2, # of connection points: 2
#     Edge 92, Type (0, 0), BuildingBlock: XUDNAN_clean_linker_2, # of connection points: 2
#     Edge 93, Type (0, 0), BuildingBlock: XUDNAN_clean_linker_2, # of connection points: 2
#     Edge 94, Type (0, 0), BuildingBlock: XUDNAN_clean_linker_2, # of connection points: 2
#     Edge 95, Type (0, 0), BuildingBlock: XUDNAN_clean_linker_2, # of connection points: 2
# Relax obj value: 0.064
# Max RMSD: 0.052
# Mean RMSD: 0.052
data_MOF--net-umq--node1-QUQFOY_clean_sbu_3--edge1-XUDNAN_clean_linker_2
_symmetry_space_group_name_H-M    P1
_symmetry_Int_Tables_number       1
_symmetry_cell_setting            triclinic
loop_
_symmetry_equiv_pos_as_xyz
'x, y, z'
_cell_length_a     68.795273
_cell_length_b     68.549018
_cell_length_c     46.508651
_cell_angle_alpha  90.04038
_cell_angle_beta   89.942036
_cell_angle_gamma 90.179961
loop_
_atom_site_label
_atom_site_type_symbol
_atom_site_fract_x
_atom_site_fract_y
_atom_site_fract_z
_atom_type_partial_charge
C0 C 0.22132 0.09711 0.09533 0.0
O1 O 0.2088 0.11023 0.10076 0.0
Cd2 Cd 0.20064 0.12497 0.14559 0.0
O3 O 0.23178 0.08988 0.11531 0.0
Cd4 Cd 0.23457 0.09376 0.16885 0.0
C5 C 0.24616 0.14202 0.16612 0.0
O6 O 0.19977 0.09753 0.17564 0.0
O7 O 0.21661 0.09867 0.21432 0.0
O8 O 0.24254 0.05914 0.16632 0.0
C9 C 0.20009 0.09984 0.20258 0.0
O10 O 0.22842 0.14478 0.15942 0.0
C11 C 0.25364 0.05936 0.18809 0.0
O12 O 0.25297 0.12482 0.16885 0.0
O13 O 0.25663 0.07569 0.20016 0.0
C14 C 0.88022 0.21525 0.09594 0.0
O15 O 0.8648 0.20643 0.10368 0.0
Cd16 Cd 0.85249 0.20158 0.15112 0.0
O17 O 0.89155 0.22288 0.11457 0.0
Cd18 Cd 0.89188 0.22555 0.16826 0.0
C19 C 0.84849 0.24963 0.17141 0.0
O20 O 0.88039 0.19267 0.1776 0.0
O21 O 0.88334 0.21074 0.21519 0.0
O22 O 0.92672 0.22014 0.17195 0.0
C23 C 0.87924 0.19418 0.20463 0.0
O24 O 0.84039 0.23334 0.16581 0.0
C25 C 0.93057 0.23653 0.18337 0.0
O26 O 0.86696 0.25116 0.17219 0.0
O27 O 0.9165 0.24825 0.1868 0.0
C28 C 0.77916 0.90449 0.08272 0.0
O29 O 0.79145 0.89079 0.08064 0.0
Cd30 Cd 0.79626 0.86532 0.11442 0.0
O31 O 0.76907 0.90696 0.10548 0.0
Cd32 Cd 0.76754 0.89309 0.15544 0.0
C33 C 0.74767 0.85238 0.12569 0.0
O34 O 0.80072 0.88274 0.15739 0.0
O35 O 0.78337 0.87218 0.19254 0.0
O36 O 0.77148 0.92483 0.17771 0.0
C37 C 0.79984 0.87285 0.18026 0.0
O38 O 0.76453 0.8491 0.11538 0.0
C39 C 0.75511 0.92503 0.19028 0.0
O40 O 0.7444 0.86747 0.14102 0.0
O41 O 0.74408 0.91034 0.18647 0.0
C42 C 0.08841 0.76779 0.08657 0.0
O43 O 0.10146 0.78095 0.08643 0.0
Cd44 Cd 0.12358 0.78916 0.12338 0.0
O45 O 0.0851 0.75755 0.10901 0.0
Cd46 Cd 0.09681 0.75721 0.16044 0.0
C47 C 0.14112 0.74234 0.13733 0.0
O48 O 0.10187 0.79195 0.16202 0.0
O49 O 0.11181 0.77714 0.19966 0.0
O50 O 0.06262 0.75175 0.17138 0.0
C51 C 0.10981 0.79313 0.18638 0.0
O52 O 0.14323 0.75972 0.12805 0.0
C53 C 0.0656 0.74046 0.19253 0.0
O54 O 0.12535 0.73696 0.14943 0.0
O55 O 0.08316 0.73635 0.19826 0.0
C56 C 0.22031 0.88903 0.37674 0.0
O57 O 0.21197 0.87332 0.36886 0.0
Cd58 Cd 0.20783 0.85909 0.32257 0.0
O59 O 0.22843 0.90034 0.35841 0.0
Cd60 Cd 0.23289 0.8994 0.30475 0.0
C61 C 0.25635 0.85507 0.30791 0.0
O62 O 0.20041 0.88756 0.29628 0.0
O63 O 0.21682 0.8921 0.25774 0.0
O64 O 0.23489 0.93523 0.30155 0.0
C65 C 0.20101 0.88676 0.26923 0.0
O66 O 0.24019 0.84641 0.31212 0.0
C67 C 0.24955 0.93501 0.28481 0.0
O68 O 0.25721 0.87357 0.30585 0.0
O69 O 0.25666 0.91845 0.27874 0.0
C70 C 0.0921 0.22188 0.38376 0.0
O71 O 0.10852 0.21344 0.38298 0.0
Cd72 Cd 0.12864 0.20699 0.3426 0.0
O73 O 0.08409 0.22837 0.36093 0.0
Cd74 Cd 0.09243 0.22777 0.30819 0.0
C75 C 0.13524 0.25319 0.31521 0.0
O76 O 0.10442 0.19517 0.31102 0.0
O77 O 0.10769 0.20761 0.26904 0.0
O78 O 0.05891 0.22172 0.2938 0.0
C79 C 0.1097 0.1929 0.28529 0.0
O80 O 0.14254 0.23814 0.32701 0.0
C81 C 0.05709 0.23726 0.27927 0.0
O82 O 0.11746 0.25341 0.30761 0.0
O83 O 0.07162 0.24871 0.27854 0.0
C84 C 0.75652 0.09794 0.392 0.0
O85 O 0.76636 0.11326 0.38678 0.0
Cd86 Cd 0.78071 0.12396 0.34289 0.0
O87 O 0.75234 0.08592 0.37191 0.0
Cd88 Cd 0.75804 0.08522 0.31856 0.0
C89 C 0.73877 0.12989 0.30411 0.0
O90 O 0.79168 0.09499 0.32124 0.0
O91 O 0.78013 0.09503 0.2785 0.0
O92 O 0.76291 0.0501 0.31403 0.0
C93 C 0.79468 0.09776 0.29476 0.0
O94 O 0.75445 0.13715 0.31404 0.0
C95 C 0.74807 0.04703 0.29847 0.0
O96 O 0.73533 0.11162 0.30555 0.0
O97 O 0.73738 0.06162 0.29297 0.0
C98 C 0.89018 0.76096 0.37302 0.0
O99 O 0.87473 0.76943 0.36484 0.0
Cd100 Cd 0.8614 0.77109 0.3179 0.0
O101 O 0.90117 0.7522 0.35503 0.0
Cd102 Cd 0.90202 0.74659 0.30164 0.0
C103 C 0.85955 0.72111 0.30599 0.0
O104 O 0.88974 0.7788 0.29191 0.0
O105 O 0.89461 0.76169 0.25404 0.0
O106 O 0.93723 0.74732 0.30916 0.0
C107 C 0.889 0.77766 0.26487 0.0
O108 O 0.85119 0.73745 0.31002 0.0
C109 C 0.94097 0.73542 0.28897 0.0
O110 O 0.87794 0.7201 0.30308 0.0
O111 O 0.92663 0.72837 0.27527 0.0
C112 C 0.7627 0.89849 0.88785 0.0
O113 O 0.77504 0.88488 0.88521 0.0
Cd114 Cd 0.77559 0.86145 0.84744 0.0
O115 O 0.74983 0.90158 0.86869 0.0
Cd116 Cd 0.74218 0.88873 0.8195 0.0
C117 C 0.72756 0.84558 0.84745 0.0
O118 O 0.77577 0.88124 0.80588 0.0
O119 O 0.75363 0.87251 0.77569 0.0
O120 O 0.73903 0.92333 0.80913 0.0
C121 C 0.7715 0.87368 0.78189 0.0
O122 O 0.74558 0.84277 0.8521 0.0
C123 C 0.72521 0.9215 0.79129 0.0
O124 O 0.72165 0.86152 0.83639 0.0
O125 O 0.71839 0.90444 0.78762 0.0
C126 C 0.08207 0.76342 0.88553 0.0
O127 O 0.09792 0.77296 0.88433 0.0
Cd128 Cd 0.11831 0.77882 0.84405 0.0
O129 O 0.07446 0.75591 0.86305 0.0
Cd130 Cd 0.08228 0.7562 0.81024 0.0
C131 C 0.12465 0.73134 0.82072 0.0
O132 O 0.09498 0.7887 0.81012 0.0
O133 O 0.0991 0.77382 0.77003 0.0
O134 O 0.04893 0.76274 0.79605 0.0
C135 C 0.10127 0.7893 0.78466 0.0
O136 O 0.13177 0.74697 0.83127 0.0
C137 C 0.04662 0.74704 0.78197 0.0
O138 O 0.10698 0.73056 0.81259 0.0
O139 O 0.06083 0.73526 0.78139 0.0
C140 C 0.21711 0.09167 0.88783 0.0
O141 O 0.20745 0.10717 0.88395 0.0
Cd142 Cd 0.20294 0.12401 0.84027 0.0
O143 O 0.22498 0.08285 0.86663 0.0
Cd144 Cd 0.22425 0.08898 0.8131 0.0
C145 C 0.25048 0.12992 0.81806 0.0
O146 O 0.19105 0.10042 0.80747 0.0
O147 O 0.21083 0.11002 0.77455 0.0
O148 O 0.21457 0.05664 0.79738 0.0
C149 C 0.19342 0.10816 0.78308 0.0
O150 O 0.23453 0.13746 0.82639 0.0
C151 C 0.22951 0.05339 0.7822 0.0
O152 O 0.25163 0.11169 0.8132 0.0
O153 O 0.24284 0.06622 0.78247 0.0
C154 C 0.87706 0.21311 0.8853 0.0
O155 O 0.86124 0.20437 0.8794 0.0
Cd156 Cd 0.84814 0.19648 0.83384 0.0
O157 O 0.8882 0.21933 0.86526 0.0
Cd158 Cd 0.88668 0.21868 0.81104 0.0
C159 C 0.84328 0.24278 0.80755 0.0
O160 O 0.87638 0.18531 0.80964 0.0
O161 O 0.87502 0.19906 0.76842 0.0
O162 O 0.92176 0.2151 0.80386 0.0
C163 C 0.87318 0.18357 0.78309 0.0
O164 O 0.83494 0.22707 0.81548 0.0
C165 C 0.92388 0.23098 0.79013 0.0
O166 O 0.86172 0.24374 0.8057 0.0
O167 O 0.9088 0.2413 0.78655 0.0
C168 C 0.74677 0.09769 0.6014 0.0
O169 O 0.75528 0.11341 0.60881 0.0
Cd170 Cd 0.76514 0.12416 0.65544 0.0
O171 O 0.74159 0.0851 0.62019 0.0
Cd172 Cd 0.74291 0.08293 0.67405 0.0
C173 C 0.71947 0.12647 0.68484 0.0
O174 O 0.77631 0.09441 0.67484 0.0
O175 O 0.7649 0.08674 0.71617 0.0
O176 O 0.73968 0.04745 0.66674 0.0
C177 C 0.77906 0.09315 0.70158 0.0
O178 O 0.73511 0.13519 0.67764 0.0
C179 C 0.73 0.04478 0.68971 0.0
O180 O 0.71821 0.10794 0.68372 0.0
O181 O 0.72605 0.05975 0.70463 0.0
C182 C 0.88032 0.76715 0.58161 0.0
O183 O 0.86391 0.77528 0.58518 0.0
Cd184 Cd 0.84611 0.78107 0.62801 0.0
O185 O 0.88994 0.76055 0.60297 0.0
Cd186 Cd 0.88511 0.75939 0.65654 0.0
C187 C 0.84248 0.7334 0.65072 0.0
O188 O 0.87172 0.79128 0.6581 0.0
O189 O 0.87104 0.77713 0.69912 0.0
O190 O 0.91927 0.76539 0.66754 0.0
C191 C 0.86726 0.79219 0.68435 0.0
O192 O 0.83417 0.74882 0.64176 0.0
C193 C 0.9219 0.7493 0.68047 0.0
O194 O 0.86061 0.73331 0.65636 0.0
O195 O 0.9075 0.73771 0.68187 0.0
C196 C 0.21858 0.88105 0.58669 0.0
O197 O 0.20977 0.86523 0.59262 0.0
Cd198 Cd 0.20629 0.85124 0.63936 0.0
O199 O 0.22594 0.89152 0.6066 0.0
Cd200 Cd 0.22772 0.89139 0.66016 0.0
C201 C 0.25477 0.85014 0.65941 0.0
O202 O 0.19564 0.87742 0.66842 0.0
O203 O 0.21336 0.88106 0.70621 0.0
O204 O 0.21952 0.92544 0.656 0.0
C205 C 0.19727 0.87582 0.6954 0.0
O206 O 0.23898 0.84153 0.65271 0.0
C207 C 0.23229 0.9318 0.67332 0.0
O208 O 0.2554 0.86865 0.66229 0.0
O209 O 0.24383 0.91931 0.68402 0.0
C210 C 0.0796 0.21305 0.58693 0.0
O211 O 0.09205 0.19969 0.59086 0.0
Cd212 Cd 0.11209 0.19745 0.63197 0.0
O213 O 0.07527 0.22478 0.60726 0.0
Cd214 Cd 0.08338 0.22754 0.65989 0.0
C215 C 0.12568 0.2464 0.63903 0.0
O216 O 0.0915 0.19417 0.67229 0.0
O217 O 0.10469 0.21621 0.69907 0.0
O218 O 0.05049 0.22201 0.67559 0.0
C219 C 0.10119 0.19828 0.69459 0.0
O220 O 0.12934 0.22871 0.63256 0.0
C221 C 0.04826 0.23814 0.68849 0.0
O222 O 0.10922 0.25118 0.64941 0.0
O223 O 0.06232 0.25022 0.68737 0.0
C224 C 0.70996 0.58561 0.59007 0.0
O225 O 0.70023 0.60112 0.59363 0.0
Cd226 Cd 0.69738 0.61915 0.63675 0.0
O227 O 0.71903 0.5779 0.61112 0.0
Cd228 Cd 0.72125 0.58623 0.66395 0.0
C229 C 0.74554 0.62778 0.65146 0.0
O230 O 0.68741 0.59578 0.67183 0.0
O231 O 0.70775 0.60667 0.7029 0.0
O232 O 0.721 0.55121 0.67539 0.0
C233 C 0.69019 0.6041 0.69571 0.0
O234 O 0.72894 0.63494 0.64564 0.0
C235 C 0.73316 0.55266 0.69581 0.0
O236 O 0.74732 0.60966 0.65667 0.0
O237 O 0.74025 0.56944 0.70057 0.0
C238 C 0.39062 0.71544 0.58782 0.0
O239 O 0.37437 0.70696 0.59171 0.0
Cd240 Cd 0.35799 0.70076 0.63548 0.0
O241 O 0.40044 0.7221 0.60903 0.0
Cd242 Cd 0.39698 0.72265 0.66315 0.0
C243 C 0.35476 0.74842 0.65981 0.0
O244 O 0.38495 0.68987 0.66221 0.0
O245 O 0.38515 0.70193 0.70449 0.0
O246 O 0.43261 0.72444 0.66137 0.0
C247 C 0.38128 0.68747 0.68849 0.0
O248 O 0.34654 0.73284 0.651 0.0
C249 C 0.43425 0.7337 0.6849 0.0
O250 O 0.37299 0.74894 0.66449 0.0
O251 O 0.41868 0.73781 0.69819 0.0
C252 C 0.2618 0.39309 0.59175 0.0
O253 O 0.2739 0.37977 0.5979 0.0
Cd254 Cd 0.27451 0.3609 0.64073 0.0
O255 O 0.24956 0.39905 0.61042 0.0
Cd256 Cd 0.24245 0.39319 0.66267 0.0
C257 C 0.22511 0.34911 0.64284 0.0
O258 O 0.27462 0.38379 0.67826 0.0
O259 O 0.25165 0.37826 0.7088 0.0
O260 O 0.24729 0.42729 0.67243 0.0
C261 C 0.26964 0.37778 0.70291 0.0
O262 O 0.24297 0.34503 0.63891 0.0
C263 C 0.2311 0.43021 0.68474 0.0
O264 O 0.21991 0.36602 0.6514 0.0
O265 O 0.21914 0.416 0.68528 0.0
C266 C 0.59745 0.24702 0.58612 0.0
O267 O 0.61347 0.25547 0.59166 0.0
Cd268 Cd 0.62383 0.26938 0.63579 0.0
O269 O 0.58445 0.24507 0.60555 0.0
Cd270 Cd 0.58255 0.25394 0.65793 0.0
C271 C 0.62225 0.22718 0.67518 0.0
O272 O 0.59638 0.28631 0.65327 0.0
O273 O 0.59423 0.276 0.6967 0.0
O274 O 0.54882 0.26358 0.65364 0.0
C275 C 0.59819 0.28994 0.67976 0.0
O276 O 0.63206 0.24137 0.66505 0.0
C277 C 0.54254 0.25314 0.67418 0.0
O278 O 0.60374 0.22707 0.67367 0.0
O279 O 0.5547 0.2419 0.68624 0.0
C280 C 0.71087 0.37487 0.87955 0.0
O281 O 0.70169 0.35976 0.87125 0.0
Cd282 Cd 0.69637 0.3493 0.82296 0.0
O283 O 0.71849 0.38656 0.86134 0.0
Cd284 Cd 0.72104 0.38894 0.80773 0.0
C285 C 0.74439 0.34519 0.80304 0.0
O286 O 0.68762 0.37877 0.79966 0.0
O287 O 0.7044 0.38363 0.7614 0.0
O288 O 0.72187 0.42428 0.81601 0.0
C289 C 0.68823 0.37904 0.77252 0.0
O290 O 0.72803 0.3371 0.80794 0.0
C291 C 0.73326 0.42779 0.79513 0.0
O292 O 0.74611 0.36371 0.80313 0.0
O293 O 0.73954 0.41325 0.78105 0.0
C294 C 0.57811 0.70915 0.89684 0.0
O295 O 0.59011 0.69539 0.89307 0.0
Cd296 Cd 0.61193 0.6945 0.85389 0.0
O297 O 0.57554 0.72213 0.87758 0.0
Cd298 Cd 0.58621 0.72612 0.826 0.0
C299 C 0.62826 0.74272 0.85111 0.0
O300 O 0.59194 0.69215 0.81253 0.0
O301 O 0.60768 0.7135 0.78786 0.0
O302 O 0.55191 0.7282 0.81363 0.0
C303 C 0.60251 0.69588 0.79096 0.0
O304 O 0.63125 0.72473 0.85646 0.0
C305 C 0.55393 0.74143 0.7948 0.0
O306 O 0.61215 0.74827 0.8405 0.0
O307 O 0.57092 0.74836 0.79136 0.0
C308 C 0.26626 0.59459 0.88792 0.0
O309 O 0.27439 0.61084 0.88237 0.0
Cd310 Cd 0.27586 0.62753 0.8374 0.0
O311 O 0.25764 0.58487 0.86825 0.0
Cd312 Cd 0.25248 0.58918 0.81527 0.0
C313 C 0.22742 0.63205 0.8219 0.0
O314 O 0.28477 0.6022 0.8052 0.0
O315 O 0.26545 0.60123 0.76888 0.0
O316 O 0.25664 0.55469 0.80378 0.0
C317 C 0.28222 0.60506 0.77864 0.0
O318 O 0.24342 0.64041 0.8282 0.0
C319 C 0.23965 0.55229 0.79365 0.0
O320 O 0.22673 0.61373 0.81748 0.0
O321 O 0.22834 0.56686 0.79456 0.0
C322 C 0.38231 0.26288 0.89528 0.0
O323 O 0.36541 0.27004 0.8924 0.0
Cd324 Cd 0.34792 0.28036 0.85145 0.0
O325 O 0.39322 0.25987 0.87347 0.0
Cd326 Cd 0.38792 0.26367 0.82011 0.0
C327 C 0.34706 0.23512 0.81934 0.0
O328 O 0.37212 0.29484 0.82311 0.0
O329 O 0.3708 0.28175 0.78126 0.0
O330 O 0.41978 0.27606 0.8071 0.0
C331 C 0.36688 0.29623 0.7972 0.0
O332 O 0.33819 0.2496 0.83035 0.0
C333 C 0.4244 0.2618 0.79113 0.0
O334 O 0.36535 0.23576 0.8148 0.0
O335 O 0.41257 0.24757 0.78989 0.0
C336 C 0.26592 0.39186 0.38407 0.0
O337 O 0.2755 0.37627 0.38011 0.0
Cd338 Cd 0.28292 0.36132 0.33574 0.0
O339 O 0.25898 0.40145 0.36287 0.0
Cd340 Cd 0.25969 0.39891 0.30856 0.0
C341 C 0.23609 0.35504 0.31008 0.0
O342 O 0.29322 0.38982 0.31121 0.0
O343 O 0.2823 0.38913 0.26829 0.0
O344 O 0.25524 0.43428 0.31337 0.0
C345 C 0.29667 0.38694 0.28496 0.0
O346 O 0.2518 0.3477 0.31963 0.0
C347 C 0.24778 0.43657 0.28867 0.0
O348 O 0.23485 0.37328 0.30513 0.0
O349 O 0.24571 0.42143 0.27327 0.0
C350 C 0.6016 0.23913 0.37898 0.0
O351 O 0.61615 0.25014 0.37428 0.0
Cd352 Cd 0.62512 0.2652 0.33012 0.0
O353 O 0.59033 0.23396 0.35854 0.0
Cd354 Cd 0.58962 0.23895 0.30516 0.0
C355 C 0.63561 0.2232 0.29332 0.0
O356 O 0.59479 0.27373 0.31009 0.0
O357 O 0.59506 0.2636 0.26663 0.0
O358 O 0.55498 0.23228 0.31186 0.0
C359 C 0.59633 0.27791 0.28377 0.0
O360 O 0.64105 0.23991 0.30225 0.0
C361 C 0.55249 0.2248 0.28716 0.0
O362 O 0.61785 0.21793 0.29469 0.0
O363 O 0.56735 0.22336 0.27112 0.0
C364 C 0.71319 0.58572 0.38461 0.0
O365 O 0.706 0.60263 0.38177 0.0
Cd366 Cd 0.70824 0.62353 0.34119 0.0
O367 O 0.72161 0.57731 0.36355 0.0
Cd368 Cd 0.72637 0.58567 0.31137 0.0
C369 C 0.75781 0.62157 0.32576 0.0
O370 O 0.69822 0.60601 0.30036 0.0
O371 O 0.72357 0.61026 0.27377 0.0
O372 O 0.71017 0.55861 0.28849 0.0
C373 C 0.70589 0.61423 0.27872 0.0
O374 O 0.74259 0.63077 0.33349 0.0
C375 C 0.72525 0.55081 0.27792 0.0
O376 O 0.75686 0.60367 0.31829 0.0
O377 O 0.74152 0.55862 0.28405 0.0
C378 C 0.39731 0.71841 0.37948 0.0
O379 O 0.38203 0.7091 0.37247 0.0
Cd380 Cd 0.36608 0.70849 0.32703 0.0
O381 O 0.4067 0.72832 0.36085 0.0
Cd382 Cd 0.40371 0.7346 0.30807 0.0
C383 C 0.36095 0.75816 0.31703 0.0
O384 O 0.39058 0.70348 0.29219 0.0
O385 O 0.38726 0.7271 0.26244 0.0
O386 O 0.43784 0.72939 0.29718 0.0
C387 C 0.3844 0.70923 0.26804 0.0
O388 O 0.35318 0.74141 0.32049 0.0
C389 C 0.44113 0.74659 0.28824 0.0
O390 O 0.37929 0.76 0.31412 0.0
O391 O 0.42699 0.75846 0.28894 0.0
C392 C 0.27592 0.59404 0.09493 0.0
O393 O 0.28904 0.60667 0.09989 0.0
Cd394 Cd 0.29062 0.62725 0.14088 0.0
O395 O 0.2635 0.5896 0.11428 0.0
Cd396 Cd 0.25746 0.59753 0.16633 0.0
C397 C 0.24148 0.64069 0.14214 0.0
O398 O 0.2898 0.6074 0.18202 0.0
O399 O 0.26609 0.61783 0.20771 0.0
O400 O 0.2583 0.56274 0.17653 0.0
C401 C 0.28428 0.61736 0.20345 0.0
O402 O 0.25952 0.64421 0.1383 0.0
C403 C 0.2434 0.56257 0.19265 0.0
O404 O 0.23569 0.62411 0.15136 0.0
O405 O 0.23444 0.57862 0.19582 0.0
C406 C 0.38845 0.26459 0.10217 0.0
O407 O 0.37474 0.27662 0.10659 0.0
Cd408 Cd 0.362 0.28932 0.15057 0.0
O409 O 0.39746 0.25654 0.12296 0.0
Cd410 Cd 0.39362 0.25702 0.17637 0.0
C411 C 0.34509 0.24516 0.17455 0.0
O412 O 0.38967 0.29216 0.18002 0.0
O413 O 0.38838 0.27685 0.22017 0.0
O414 O 0.4283 0.24972 0.17951 0.0
C415 C 0.38737 0.29294 0.20695 0.0
O416 O 0.34177 0.26279 0.16755 0.0
C417 C 0.42636 0.23664 0.19868 0.0
O418 O 0.36244 0.23884 0.177 0.0
O419 O 0.40914 0.23258 0.20657 0.0
C420 C 0.7092 0.37195 0.09061 0.0
O421 O 0.70115 0.35599 0.09785 0.0
Cd422 Cd 0.69619 0.34464 0.14588 0.0
O423 O 0.71521 0.38394 0.10965 0.0
Cd424 Cd 0.71566 0.38637 0.16323 0.0
C425 C 0.74387 0.34591 0.1689 0.0
O426 O 0.68362 0.37222 0.17028 0.0
O427 O 0.69958 0.3779 0.20914 0.0
O428 O 0.70772 0.4205 0.15715 0.0
C429 C 0.68401 0.37199 0.19745 0.0
O430 O 0.72858 0.33628 0.16268 0.0
C431 C 0.72058 0.42704 0.17421 0.0
O432 O 0.74371 0.36451 0.16926 0.0
O433 O 0.73191 0.41461 0.18551 0.0
C434 C 0.59069 0.71777 0.0948 0.0
O435 O 0.6039 0.70516 0.09848 0.0
Cd436 Cd 0.62907 0.70886 0.13311 0.0
O437 O 0.58851 0.73188 0.11235 0.0
Cd438 Cd 0.60142 0.74092 0.16092 0.0
C439 C 0.64076 0.75847 0.12782 0.0
O440 O 0.61394 0.71007 0.17866 0.0
O441 O 0.62571 0.73597 0.1986 0.0
O442 O 0.57048 0.73468 0.18261 0.0
C443 C 0.62485 0.71749 0.19772 0.0
O444 O 0.64451 0.74048 0.12366 0.0
C445 C 0.5673 0.75183 0.19162 0.0
O446 O 0.62524 0.76372 0.14066 0.0
O447 O 0.58013 0.7647 0.18597 0.0
H448 H 0.34452 0.20484 0.17357 0.0
H449 H 0.3075 0.25562 0.18376 0.0
H450 H 0.27873 0.23433 0.18572 0.0
H451 H 0.31334 0.17908 0.1272 0.0
H452 H 0.31815 0.15526 0.14192 0.0
H453 H 0.33634 0.17413 0.14421 0.0
H454 H 0.33775 0.16994 0.19951 0.0
H455 H 0.31963 0.15095 0.19739 0.0
H456 H 0.31569 0.17178 0.2203 0.0
H457 H 0.25394 0.20856 0.18251 0.0
H458 H 0.23402 0.17916 0.17565 0.0
H459 H 0.28636 0.14422 0.16776 0.0
C460 C 0.3304 0.21141 0.17682 0.0
C461 C 0.32828 0.23191 0.17856 0.0
C462 C 0.30951 0.23998 0.1823 0.0
C463 C 0.29305 0.22801 0.18353 0.0
C464 C 0.29556 0.20796 0.18109 0.0
C465 C 0.3137 0.19962 0.17799 0.0
C466 C 0.31204 0.17766 0.17428 0.0
C467 C 0.32047 0.17116 0.14517 0.0
C468 C 0.32186 0.16695 0.19937 0.0
C469 C 0.29013 0.17511 0.17517 0.0
C470 C 0.281 0.19282 0.17929 0.0
C471 C 0.26088 0.19456 0.17958 0.0
C472 C 0.24969 0.17774 0.17551 0.0
C473 C 0.2586 0.15934 0.17119 0.0
C474 C 0.27913 0.15803 0.17129 0.0
H475 H 0.80884 0.25077 0.17281 0.0
H476 H 0.8599 0.28788 0.17938 0.0
H477 H 0.83863 0.31685 0.18316 0.0
H478 H 0.78189 0.28151 0.1285 0.0
H479 H 0.75882 0.27587 0.14498 0.0
H480 H 0.77806 0.25818 0.14551 0.0
H481 H 0.77578 0.25632 0.20111 0.0
H482 H 0.75646 0.27401 0.20074 0.0
H483 H 0.77791 0.27836 0.22206 0.0
H484 H 0.81129 0.34202 0.18264 0.0
H485 H 0.78074 0.36075 0.1777 0.0
H486 H 0.74839 0.30642 0.17157 0.0
C487 C 0.81564 0.26493 0.17542 0.0
C488 C 0.83607 0.26702 0.17582 0.0
C489 C 0.84429 0.28588 0.17911 0.0
C490 C 0.83232 0.30242 0.18131 0.0
C491 C 0.81221 0.2998 0.18036 0.0
C492 C 0.80399 0.28147 0.17764 0.0
C493 C 0.7821 0.28248 0.17568 0.0
C494 C 0.7748 0.27402 0.14696 0.0
C495 C 0.7725 0.27218 0.20144 0.0
C496 C 0.77922 0.30429 0.1771 0.0
C497 C 0.79668 0.31411 0.18004 0.0
C498 C 0.79754 0.33445 0.18061 0.0
C499 C 0.78011 0.34496 0.17779 0.0
C500 C 0.76214 0.33509 0.17426 0.0
C501 C 0.76182 0.31448 0.17433 0.0
H502 H 0.64834 0.79424 0.15232 0.0
H503 H 0.66694 0.75506 0.08439 0.0
H504 H 0.69463 0.77677 0.07372 0.0
H505 H 0.66435 0.84072 0.1169 0.0
H506 H 0.67242 0.85111 0.15046 0.0
H507 H 0.65234 0.83414 0.14999 0.0
H508 H 0.67025 0.81243 0.18697 0.0
H509 H 0.69043 0.82919 0.18735 0.0
H510 H 0.69439 0.80384 0.17891 0.0
H511 H 0.72207 0.80001 0.07404 0.0
H512 H 0.74757 0.82423 0.0843 0.0
H513 H 0.71193 0.84879 0.15238 0.0
C514 C 0.65791 0.7906 0.13461 0.0
C515 C 0.65543 0.77307 0.11899 0.0
C516 C 0.66856 0.76845 0.09655 0.0
C517 C 0.68429 0.78071 0.09027 0.0
C518 C 0.68673 0.79755 0.10665 0.0
C519 C 0.67387 0.80263 0.12823 0.0
C520 C 0.68089 0.82066 0.14417 0.0
C521 C 0.66665 0.83767 0.14013 0.0
C522 C 0.68418 0.81625 0.17624 0.0
C523 C 0.69995 0.8245 0.12871 0.0
C524 C 0.70286 0.81107 0.10696 0.0
C525 C 0.71985 0.81079 0.09072 0.0
C526 C 0.73431 0.82456 0.09686 0.0
C527 C 0.73177 0.83846 0.11912 0.0
C528 C 0.71422 0.83851 0.13503 0.0
H529 H 0.20379 0.64513 0.16209 0.0
H530 H 0.2477 0.67205 0.10773 0.0
H531 H 0.22602 0.69982 0.09907 0.0
H532 H 0.16126 0.66184 0.12045 0.0
H533 H 0.14678 0.66628 0.15209 0.0
H534 H 0.16506 0.6475 0.15242 0.0
H535 H 0.18098 0.66352 0.19705 0.0
H536 H 0.16284 0.6824 0.19677 0.0
H537 H 0.18826 0.68879 0.1955 0.0
H538 H 0.2012 0.72547 0.09847 0.0
H539 H 0.17382 0.74787 0.10525 0.0
H540 H 0.14519 0.70522 0.1601 0.0
C541 C 0.20866 0.65672 0.14798 0.0
C542 C 0.22745 0.65639 0.13557 0.0
C543 C 0.23343 0.67198 0.11759 0.0
C544 C 0.2212 0.68782 0.11243 0.0
C545 C 0.20298 0.68792 0.12538 0.0
C546 C 0.19661 0.67282 0.14269 0.0
C547 C 0.17664 0.67724 0.155 0.0
C548 C 0.16154 0.66233 0.14435 0.0
C549 C 0.17723 0.67804 0.18804 0.0
C550 C 0.17302 0.69728 0.14221 0.0
C551 C 0.18842 0.70302 0.12509 0.0
C552 C 0.18895 0.72112 0.11163 0.0
C553 C 0.17332 0.73378 0.11574 0.0
C554 C 0.15728 0.72835 0.1332 0.0
C555 C 0.15714 0.70976 0.14648 0.0
H556 H 0.26042 0.81551 0.31437 0.0
H557 H 0.29346 0.86865 0.29935 0.0
H558 H 0.32388 0.84969 0.30016 0.0
H559 H 0.29369 0.79388 0.36331 0.0
H560 H 0.29001 0.76941 0.35014 0.0
H561 H 0.27076 0.78704 0.34744 0.0
H562 H 0.26874 0.78118 0.29245 0.0
H563 H 0.2879 0.76342 0.29501 0.0
H564 H 0.29034 0.7838 0.27079 0.0
H565 H 0.3508 0.825 0.30384 0.0
H566 H 0.37208 0.79624 0.30856 0.0
H567 H 0.32123 0.75948 0.3213 0.0
C568 C 0.27401 0.82318 0.31103 0.0
C569 C 0.27452 0.84358 0.30678 0.0
C570 C 0.29267 0.85303 0.30262 0.0
C571 C 0.31005 0.8424 0.30308 0.0
C572 C 0.30902 0.82235 0.30768 0.0
C573 C 0.29147 0.81282 0.31144 0.0
C574 C 0.29435 0.79121 0.3163 0.0
C575 C 0.28675 0.78503 0.34607 0.0
C576 C 0.28477 0.7792 0.2922 0.0
C577 C 0.31628 0.79007 0.3148 0.0
C578 C 0.32449 0.80817 0.30982 0.0
C579 C 0.34453 0.81074 0.30768 0.0
C580 C 0.3565 0.79431 0.31045 0.0
C581 C 0.34836 0.77558 0.31532 0.0
C582 C 0.32796 0.77357 0.31763 0.0
H583 H 0.23258 0.31629 0.3238 0.0
H584 H 0.20042 0.36491 0.28784 0.0
H585 H 0.17129 0.3439 0.28376 0.0
H586 H 0.21045 0.27824 0.28029 0.0
H587 H 0.21025 0.26085 0.30933 0.0
H588 H 0.22874 0.27949 0.30797 0.0
H589 H 0.21911 0.29086 0.35919 0.0
H590 H 0.20056 0.27232 0.36068 0.0
H591 H 0.19426 0.29752 0.36647 0.0
H592 H 0.14526 0.31769 0.28529 0.0
H593 H 0.12459 0.28853 0.29224 0.0
H594 H 0.17401 0.25746 0.32764 0.0
C595 C 0.2195 0.32253 0.31476 0.0
C596 C 0.21885 0.34228 0.30605 0.0
C597 C 0.20133 0.34983 0.29461 0.0
C598 C 0.18469 0.33801 0.29219 0.0
C599 C 0.18582 0.31867 0.3013 0.0
C600 C 0.2028 0.31099 0.3123 0.0
C601 C 0.20008 0.28997 0.32142 0.0
C602 C 0.21316 0.27634 0.30369 0.0
C603 C 0.20371 0.28754 0.35386 0.0
C604 C 0.17885 0.28704 0.31408 0.0
C605 C 0.17088 0.30371 0.30238 0.0
C606 C 0.15139 0.30453 0.29433 0.0
C607 C 0.13975 0.28788 0.29839 0.0
C608 C 0.14764 0.27066 0.31049 0.0
C609 C 0.16749 0.27034 0.31831 0.0
H610 H 0.69904 0.12812 0.30867 0.0
H611 H 0.74627 0.16237 0.27285 0.0
H612 H 0.723 0.18762 0.25779 0.0
H613 H 0.66006 0.14383 0.25553 0.0
H614 H 0.6419 0.1448 0.28346 0.0
H615 H 0.6614 0.12733 0.28562 0.0
H616 H 0.67063 0.14064 0.33595 0.0
H617 H 0.65128 0.15811 0.33391 0.0
H618 H 0.67585 0.16628 0.34019 0.0
H619 H 0.69651 0.21131 0.25441 0.0
H620 H 0.6683 0.23246 0.26373 0.0
H621 H 0.63743 0.18366 0.30184 0.0
C622 C 0.70429 0.1406 0.29666 0.0
C623 C 0.72436 0.14326 0.29156 0.0
C624 C 0.73091 0.16007 0.27678 0.0
C625 C 0.71779 0.17441 0.26799 0.0
C626 C 0.69815 0.17175 0.27417 0.0
C627 C 0.69134 0.15526 0.28808 0.0
C628 C 0.66999 0.15733 0.2957 0.0
C629 C 0.65761 0.14244 0.27908 0.0
C630 C 0.66676 0.15549 0.32837 0.0
C631 C 0.66618 0.17793 0.28526 0.0
C632 C 0.68255 0.18577 0.27234 0.0
C633 C 0.68344 0.20522 0.26381 0.0
C634 C 0.66739 0.21714 0.26929 0.0
C635 C 0.65067 0.20959 0.28314 0.0
C636 C 0.64984 0.18961 0.29045 0.0
H637 H 0.76304 0.66058 0.33354 0.0
H638 H 0.79429 0.60766 0.3117 0.0
H639 H 0.82427 0.62719 0.30427 0.0
H640 H 0.78498 0.69055 0.2811 0.0
H641 H 0.78532 0.71195 0.30363 0.0
H642 H 0.7669 0.69359 0.30883 0.0
H643 H 0.77693 0.6901 0.36232 0.0
H644 H 0.79526 0.7086 0.35737 0.0
H645 H 0.8019 0.68498 0.37116 0.0
H646 H 0.85079 0.65338 0.29828 0.0
H647 H 0.87101 0.68328 0.29481 0.0
H648 H 0.82105 0.71815 0.31919 0.0
C649 C 0.7762 0.65294 0.32754 0.0
C650 C 0.77632 0.63254 0.32337 0.0
C651 C 0.79386 0.62327 0.31517 0.0
C652 C 0.81094 0.63425 0.31085 0.0
C653 C 0.81015 0.65443 0.31472 0.0
C654 C 0.79317 0.66361 0.32294 0.0
C655 C 0.79572 0.68545 0.32487 0.0
C656 C 0.78245 0.696 0.30332 0.0
C657 C 0.79225 0.6927 0.35577 0.0
C658 C 0.81683 0.68724 0.31643 0.0
C659 C 0.82502 0.66927 0.31072 0.0
C660 C 0.84448 0.66751 0.3027 0.0
C661 C 0.85584 0.68457 0.30073 0.0
C662 C 0.84762 0.70309 0.30661 0.0
C663 C 0.82782 0.70429 0.31436 0.0
H664 H 0.68966 0.84088 0.82895 0.0
H665 H 0.7343 0.81415 0.88173 0.0
H666 H 0.71267 0.78624 0.89106 0.0
H667 H 0.64759 0.82376 0.87188 0.0
H668 H 0.6328 0.81942 0.84054 0.0
H669 H 0.65104 0.83836 0.84004 0.0
H670 H 0.66656 0.8228 0.79477 0.0
H671 H 0.64844 0.8038 0.79518 0.0
H672 H 0.67388 0.79757 0.79574 0.0
H673 H 0.6878 0.76012 0.89164 0.0
H674 H 0.66063 0.73726 0.88391 0.0
H675 H 0.63155 0.78044 0.83102 0.0
C676 C 0.69472 0.82933 0.8429 0.0
C677 C 0.71369 0.82975 0.85463 0.0
C678 C 0.71988 0.81417 0.87241 0.0
C679 C 0.70767 0.79826 0.87796 0.0
C680 C 0.68926 0.79809 0.86565 0.0
C681 C 0.68271 0.81321 0.84859 0.0
C682 C 0.66264 0.80874 0.83672 0.0
C683 C 0.64763 0.82345 0.84798 0.0
C684 C 0.66291 0.80819 0.80364 0.0
C685 C 0.6592 0.7886 0.84928 0.0
C686 C 0.67471 0.78285 0.86605 0.0
C687 C 0.67544 0.76451 0.87883 0.0
C688 C 0.65996 0.7516 0.8742 0.0
C689 C 0.64391 0.75706 0.85694 0.0
C690 C 0.64348 0.77592 0.84461 0.0
H691 H 0.1635 0.7285 0.83301 0.0
H692 H 0.11411 0.69452 0.80304 0.0
H693 H 0.13499 0.66532 0.79995 0.0
H694 H 0.19933 0.70573 0.78787 0.0
H695 H 0.21805 0.70663 0.81492 0.0
H696 H 0.19918 0.72477 0.81463 0.0
H697 H 0.19051 0.71623 0.86741 0.0
H698 H 0.20933 0.69804 0.86785 0.0
H699 H 0.18468 0.69136 0.8767 0.0
H700 H 0.16134 0.63967 0.80092 0.0
H701 H 0.19113 0.61984 0.8049 0.0
H702 H 0.22304 0.67099 0.83378 0.0
C703 C 0.15701 0.71495 0.82575 0.0
C704 C 0.13713 0.71383 0.8183 0.0
C705 C 0.1293 0.69577 0.80885 0.0
C706 C 0.14104 0.6791 0.80705 0.0
C707 C 0.16056 0.68074 0.81468 0.0
C708 C 0.16849 0.69823 0.82375 0.0
C709 C 0.18987 0.69617 0.83069 0.0
C710 C 0.20234 0.70909 0.81084 0.0
C711 C 0.19382 0.70071 0.86256 0.0
C712 C 0.19275 0.67476 0.82418 0.0
C713 C 0.17569 0.66608 0.81502 0.0
C714 C 0.17479 0.64633 0.80801 0.0
C715 C 0.19179 0.63518 0.81037 0.0
C716 C 0.20947 0.64383 0.81961 0.0
C717 C 0.20983 0.6639 0.82657 0.0
H718 H 0.30793 0.23017 0.82473 0.0
H719 H 0.36063 0.19915 0.80165 0.0
H720 H 0.34148 0.16866 0.79649 0.0
H721 H 0.2878 0.19347 0.86768 0.0
H722 H 0.26308 0.19811 0.85692 0.0
H723 H 0.28071 0.21755 0.85631 0.0
H724 H 0.27328 0.22385 0.80246 0.0
H725 H 0.25551 0.2045 0.80293 0.0
H726 H 0.27505 0.20403 0.7771 0.0
H727 H 0.31629 0.14106 0.79698 0.0
H728 H 0.28764 0.11937 0.80219 0.0
H729 H 0.25235 0.16938 0.82542 0.0
C730 C 0.31553 0.21707 0.81823 0.0
C731 C 0.33582 0.21708 0.81358 0.0
C732 C 0.34508 0.19953 0.80522 0.0
C733 C 0.33433 0.18214 0.80227 0.0
C734 C 0.31437 0.18264 0.80763 0.0
C735 C 0.3051 0.19973 0.81527 0.0
C736 C 0.28374 0.19648 0.82108 0.0
C737 C 0.27854 0.20171 0.85235 0.0
C738 C 0.27115 0.20789 0.7996 0.0
C739 C 0.28237 0.17478 0.81592 0.0
C740 C 0.3001 0.16699 0.80804 0.0
C741 C 0.30232 0.14707 0.80294 0.0
C742 C 0.28598 0.13486 0.806 0.0
C743 C 0.26772 0.14265 0.81422 0.0
C744 C 0.26604 0.1629 0.81906 0.0
H745 H 0.80359 0.24595 0.80942 0.0
H746 H 0.85611 0.2795 0.79312 0.0
H747 H 0.83633 0.30922 0.78695 0.0
H748 H 0.77231 0.27206 0.75875 0.0
H749 H 0.75147 0.27053 0.78217 0.0
H750 H 0.76969 0.25172 0.78302 0.0
H751 H 0.77411 0.25719 0.83779 0.0
H752 H 0.75597 0.27603 0.8371 0.0
H753 H 0.77989 0.28127 0.85092 0.0
H754 H 0.81084 0.33577 0.78617 0.0
H755 H 0.78177 0.35672 0.79024 0.0
H756 H 0.74629 0.3054 0.80659 0.0
C757 C 0.81097 0.25947 0.80417 0.0
C758 C 0.83143 0.26035 0.80174 0.0
C759 C 0.84045 0.27842 0.79503 0.0
C760 C 0.82934 0.29538 0.79145 0.0
C761 C 0.80923 0.29402 0.79445 0.0
C762 C 0.80013 0.27649 0.80049 0.0
C763 C 0.77842 0.27903 0.8039 0.0
C764 C 0.76732 0.26766 0.78056 0.0
C765 C 0.77172 0.27303 0.83423 0.0
C766 C 0.77675 0.3008 0.79944 0.0
C767 C 0.79462 0.30922 0.79384 0.0
C768 C 0.79673 0.32931 0.79024 0.0
C769 C 0.78014 0.34109 0.79263 0.0
C770 C 0.76171 0.33273 0.79864 0.0
C771 C 0.76009 0.31228 0.80174 0.0
H772 H 0.66097 0.22481 0.68663 0.0
H773 H 0.60785 0.19051 0.68727 0.0
H774 H 0.62706 0.16084 0.69737 0.0
H775 H 0.68802 0.19291 0.6484 0.0
H776 H 0.71059 0.19716 0.66706 0.0
H777 H 0.69253 0.21598 0.66587 0.0
H778 H 0.69224 0.21775 0.72155 0.0
H779 H 0.7105 0.19897 0.72294 0.0
H780 H 0.68793 0.1959 0.74217 0.0
H781 H 0.65265 0.13436 0.69952 0.0
H782 H 0.68192 0.11384 0.69391 0.0
H783 H 0.71783 0.16599 0.69158 0.0
C784 C 0.65325 0.21118 0.68969 0.0
C785 C 0.6329 0.20999 0.68617 0.0
C786 C 0.62343 0.19181 0.69009 0.0
C787 C 0.63423 0.17488 0.69585 0.0
C788 C 0.65441 0.17647 0.69801 0.0
C789 C 0.66377 0.19426 0.69539 0.0
C790 C 0.68561 0.19198 0.69547 0.0
C791 C 0.6947 0.19997 0.66754 0.0
C792 C 0.6946 0.20172 0.72213 0.0
C793 C 0.68716 0.17003 0.69712 0.0
C794 C 0.66906 0.1613 0.69912 0.0
C795 C 0.6669 0.14106 0.69853 0.0
C796 C 0.68361 0.12952 0.69528 0.0
C797 C 0.7022 0.13829 0.69231 0.0
C798 C 0.70389 0.15879 0.69399 0.0
H799 H 0.74726 0.66714 0.64091 0.0
H800 H 0.78295 0.61768 0.66525 0.0
H801 H 0.81157 0.63937 0.66856 0.0
H802 H 0.7831 0.69104 0.59708 0.0
H803 H 0.776 0.71521 0.60805 0.0
H804 H 0.75835 0.69576 0.60777 0.0
H805 H 0.75059 0.70244 0.66143 0.0
H806 H 0.76826 0.72187 0.66191 0.0
H807 H 0.77 0.70218 0.68743 0.0
H808 H 0.83632 0.66658 0.66942 0.0
H809 H 0.85545 0.69707 0.66643 0.0
H810 H 0.8034 0.72849 0.6414 0.0
C811 C 0.76108 0.66082 0.6469 0.0
C812 C 0.76282 0.64068 0.65282 0.0
C813 C 0.78122 0.63305 0.66058 0.0
C814 C 0.79757 0.64526 0.66257 0.0
C815 C 0.79529 0.66505 0.65673 0.0
C816 C 0.77753 0.67276 0.64897 0.0
C817 C 0.77898 0.69449 0.6436 0.0
C818 C 0.77381 0.69941 0.61226 0.0
C819 C 0.7662 0.70591 0.66487 0.0
C820 C 0.80037 0.69779 0.64949 0.0
C821 C 0.80952 0.68065 0.65712 0.0
C822 C 0.82931 0.68009 0.66346 0.0
C823 C 0.84004 0.6975 0.66174 0.0
C824 C 0.83096 0.71521 0.65367 0.0
C825 C 0.81082 0.71524 0.64764 0.0
H826 H 0.25788 0.81073 0.65305 0.0
H827 H 0.29185 0.86236 0.67369 0.0
H828 H 0.32129 0.84183 0.67807 0.0
H829 H 0.28238 0.77751 0.70089 0.0
H830 H 0.28073 0.75741 0.676 0.0
H831 H 0.26246 0.77617 0.67581 0.0
H832 H 0.2689 0.78227 0.6216 0.0
H833 H 0.28718 0.76355 0.62162 0.0
H834 H 0.29324 0.78783 0.60966 0.0
H835 H 0.34726 0.81519 0.67861 0.0
H836 H 0.36721 0.78533 0.67462 0.0
H837 H 0.31543 0.75195 0.65334 0.0
C838 C 0.27144 0.81782 0.6587 0.0
C839 C 0.27252 0.83819 0.66308 0.0
C840 C 0.29064 0.84678 0.67028 0.0
C841 C 0.30743 0.83523 0.67285 0.0
C842 C 0.30579 0.81517 0.66818 0.0
C843 C 0.2882 0.8066 0.66128 0.0
C844 C 0.29021 0.7849 0.65645 0.0
C845 C 0.27824 0.77332 0.67861 0.0
C846 C 0.28455 0.77932 0.62549 0.0
C847 C 0.31175 0.78252 0.66144 0.0
C848 C 0.32054 0.80007 0.66833 0.0
C849 C 0.34048 0.80138 0.67334 0.0
C850 C 0.35169 0.78434 0.67104 0.0
C851 C 0.34291 0.76626 0.66366 0.0
C852 C 0.32265 0.76547 0.65905 0.0
H853 H 0.12959 0.28311 0.66333 0.0
H854 H 0.1563 0.24314 0.60258 0.0
H855 H 0.18283 0.26653 0.59451 0.0
H856 H 0.14362 0.32867 0.62575 0.0
H857 H 0.14858 0.34163 0.65869 0.0
H858 H 0.13042 0.32261 0.65806 0.0
H859 H 0.14815 0.30487 0.69956 0.0
H860 H 0.16634 0.3238 0.7003 0.0
H861 H 0.17347 0.29872 0.69557 0.0
H862 H 0.20742 0.29228 0.5952 0.0
H863 H 0.22965 0.31953 0.60501 0.0
H864 H 0.18807 0.34392 0.66539 0.0
C865 C 0.14088 0.27948 0.648 0.0
C866 C 0.14085 0.26129 0.63355 0.0
C867 C 0.15602 0.25691 0.614 0.0
C868 C 0.17113 0.27016 0.60912 0.0
C869 C 0.17092 0.28777 0.62394 0.0
C870 C 0.15627 0.29256 0.64299 0.0
C871 C 0.16043 0.31206 0.65735 0.0
C872 C 0.14483 0.32714 0.64949 0.0
C873 C 0.16221 0.30971 0.69014 0.0
C874 C 0.17989 0.31717 0.64378 0.0
C875 C 0.18546 0.30295 0.62441 0.0
C876 C 0.20318 0.30363 0.6101 0.0
C877 C 0.21575 0.31914 0.61596 0.0
C878 C 0.2106 0.33385 0.63596 0.0
C879 C 0.19226 0.33302 0.64973 0.0
H880 H 0.19524 0.10197 0.05227 0.0
H881 H 0.25175 0.07696 0.07037 0.0
H882 H 0.2553 0.06826 0.0188 0.0
H883 H 0.18069 0.06674 -0.00409 0.0
H884 H 0.16861 0.08548 0.97554 0.0
H885 H 0.16974 0.08714 0.01417 0.0
H886 H 0.18555 0.12144 0.01009 0.0
H887 H 0.18441 0.11991 0.9716 0.0
H888 H 0.20738 0.12442 -0.01097 0.0
H889 H 0.25379 0.06597 0.9635 0.0
H890 H 0.2478 0.0713 0.91141 0.0
H891 H 0.1922 0.09745 0.93182 0.0
C892 C 0.20829 0.09441 0.04558 0.0
C893 C 0.22327 0.09023 0.06529 0.0
C894 C 0.24006 0.08026 0.0556 0.0
C895 C 0.24216 0.07522 0.02638 0.0
C896 C 0.22718 0.07996 0.00738 0.0
C897 C 0.21051 0.0892 0.01682 0.0
C898 C 0.19708 0.09414 -0.00772 0.0
C899 C 0.1779 0.08268 -0.00538 0.0
C900 C 0.19342 0.11628 -0.00934 0.0
C901 C 0.20913 0.08708 0.96727 0.0
C902 C 0.2263 0.07859 0.97618 0.0
C903 C 0.24024 0.0723 0.95637 0.0
C904 C 0.23671 0.07531 0.92685 0.0
C905 C 0.21955 0.08478 0.91769 0.0
C906 C 0.20544 0.09012 0.9382 0.0
H907 H 0.85825 0.19745 0.93119 0.0
H908 H 0.90748 0.23428 0.90908 0.0
H909 H 0.91481 0.23834 0.96105 0.0
H910 H 0.84254 0.22403 -0.0083 0.0
H911 H 0.83544 0.2026 0.01159 0.0
H912 H 0.83489 0.20231 0.97292 0.0
H913 H 0.8574 0.17201 0.9725 0.0
H914 H 0.85802 0.1722 0.0112 0.0
H915 H 0.88039 0.17302 -0.00899 0.0
H916 H 0.91565 0.2388 0.01672 0.0
H917 H 0.90992 0.23567 0.06921 0.0
H918 H 0.86016 0.19837 0.05206 0.0
C919 C 0.87064 0.20638 0.93705 0.0
C920 C 0.88226 0.2156 0.916 0.0
C921 C 0.89837 0.22706 0.92484 0.0
C922 C 0.90263 0.22943 0.95428 0.0
C923 C 0.8907 0.22016 0.97444 0.0
C924 C 0.87508 0.20882 0.966 0.0
C925 C 0.86417 0.20054 -0.00863 0.0
C926 C 0.84302 0.20781 -0.00808 0.0
C927 C 0.86506 0.17811 -0.00848 0.0
C928 C 0.87588 0.20915 0.01565 0.0
C929 C 0.8912 0.22037 0.0057 0.0
C930 C 0.90373 0.22998 0.02465 0.0
C931 C 0.90037 0.22811 0.0544 0.0
C932 C 0.88458 0.21679 0.06481 0.0
C933 C 0.87237 0.20715 0.04498 0.0
H934 H 0.73648 0.89928 0.93135 0.0
H935 H 0.79179 0.92271 0.90358 0.0
H936 H 0.79747 0.93613 0.95208 0.0
H937 H 0.7259 0.93815 -0.00893 0.0
H938 H 0.71601 0.91935 0.01393 0.0
H939 H 0.71293 0.91786 0.97547 0.0
H940 H 0.72843 0.88347 0.97567 0.0
H941 H 0.73157 0.88488 0.01383 0.0
H942 H 0.75228 0.88032 -0.00897 0.0
H943 H 0.80169 0.93819 0.00386 0.0
H944 H 0.80429 0.92821 0.05464 0.0
H945 H 0.7463 0.90388 0.0512 0.0
C946 C 0.74919 0.90824 0.9353 0.0
C947 C 0.76349 0.91052 0.91388 0.0
C948 C 0.78053 0.9213 0.91976 0.0
C949 C 0.7838 0.92902 0.9472 0.0
C950 C 0.76991 0.92572 0.96853 0.0
C951 C 0.75278 0.91574 0.96286 0.0
C952 C 0.74217 0.91069 -0.00951 0.0
C953 C 0.72312 0.92221 -0.00712 0.0
C954 C 0.73843 0.88854 -0.00712 0.0
C955 C 0.75685 0.9177 0.01252 0.0
C956 C 0.77241 0.92698 -0.0006 0.0
C957 C 0.78928 0.93171 0.01456 0.0
C958 C 0.79067 0.92603 0.04339 0.0
C959 C 0.77523 0.91592 0.05677 0.0
C960 C 0.75784 0.91246 0.04159 0.0
H961 H 0.07753 0.79149 0.92515 0.0
H962 H 0.06751 0.73001 0.91008 0.0
H963 H 0.06051 0.72535 0.96199 0.0
H964 H 0.10397 0.78721 0.98305 0.0
H965 H 0.09505 0.80815 0.00241 0.0
H966 H 0.09354 0.80755 0.96399 0.0
H967 H 0.05634 0.81318 0.96651 0.0
H968 H 0.05774 0.81401 0.00521 0.0
H969 H 0.04137 0.79713 -0.01213 0.0
H970 H 0.06269 0.72639 0.01646 0.0
H971 H 0.07316 0.73311 0.06652 0.0
H972 H 0.08106 0.79407 0.04493 0.0
C973 C 0.07299 0.77723 0.93267 0.0
C974 C 0.0729 0.76114 0.9139 0.0
C975 C 0.0673 0.74256 0.92424 0.0
C976 C 0.06333 0.73982 0.95366 0.0
C977 C 0.06459 0.75592 0.97206 0.0
C978 C 0.06886 0.77438 0.96171 0.0
C979 C 0.07212 0.7888 0.98579 0.0
C980 C 0.09236 0.79846 0.98367 0.0
C981 C 0.05592 0.80418 0.98638 0.0
C982 C 0.07065 0.77533 0.01134 0.0
C983 C 0.06575 0.75651 0.00328 0.0
C984 C 0.06596 0.74117 0.02309 0.0
C985 C 0.07191 0.74509 0.05147 0.0
C986 C 0.07789 0.76411 0.05945 0.0
C987 C 0.07644 0.77942 0.03939 0.0
H988 H 0.20131 0.86964 0.41935 0.0
H989 H 0.24101 0.918 0.40484 0.0
H990 H 0.24368 0.92278 0.45758 0.0
H991 H 0.17662 0.88977 0.48195 0.0
H992 H 0.17462 0.86621 0.49891 0.0
H993 H 0.17473 0.86804 0.46027 0.0
H994 H 0.2038 0.84408 0.45796 0.0
H995 H 0.20387 0.84227 0.49653 0.0
H996 H 0.22565 0.84959 0.47779 0.0
H997 H 0.24337 0.92047 0.51272 0.0
H998 H 0.24003 0.91148 0.56409 0.0
H999 H 0.20089 0.86437 0.54032 0.0
C1000 C 0.21043 0.88143 0.42707 0.0
C1001 C 0.22097 0.89344 0.40791 0.0
C1002 C 0.23273 0.90866 0.41911 0.0
C1003 C 0.23434 0.91146 0.44901 0.0
C1004 C 0.224 0.89901 0.46726 0.0
C1005 C 0.21219 0.88438 0.45657 0.0
C1006 C 0.20326 0.87228 0.48028 0.0
C1007 C 0.18099 0.8742 0.48035 0.0
C1008 C 0.20953 0.85079 0.478 0.0
C1009 C 0.21216 0.88209 0.50617 0.0
C1010 C 0.22395 0.89759 0.49843 0.0
C1011 C 0.23406 0.90844 0.51897 0.0
C1012 C 0.23209 0.90321 0.54808 0.0
C1013 C 0.22023 0.88719 0.55626 0.0
C1014 C 0.21009 0.87668 0.53489 0.0
H1015 H 0.08132 0.18745 0.54256 0.0
H1016 H 0.06227 0.24586 0.56427 0.0
H1017 H 0.05732 0.25287 0.51257 0.0
H1018 H 0.11017 0.20035 0.48862 0.0
H1019 H 0.10559 0.17958 0.4658 0.0
H1020 H 0.10245 0.17744 0.50394 0.0
H1021 H 0.06685 0.16593 0.49673 0.0
H1022 H 0.06995 0.1678 0.45833 0.0
H1023 H 0.05039 0.18061 0.47585 0.0
H1024 H 0.06054 0.25527 0.45795 0.0
H1025 H 0.07207 0.25277 0.40739 0.0
H1026 H 0.09033 0.19336 0.42323 0.0
C1027 C 0.07543 0.20151 0.53659 0.0
C1028 C 0.07216 0.21609 0.55742 0.0
C1029 C 0.06467 0.23437 0.54868 0.0
C1030 C 0.06183 0.23848 0.51933 0.0
C1031 C 0.06629 0.22406 0.49916 0.0
C1032 C 0.07269 0.20582 0.5076 0.0
C1033 C 0.07921 0.19371 0.48225 0.0
C1034 C 0.10061 0.18743 0.48535 0.0
C1035 C 0.06579 0.17596 0.47804 0.0
C1036 C 0.07665 0.20833 0.45835 0.0
C1037 C 0.06864 0.22558 0.46815 0.0
C1038 C 0.06645 0.24168 0.44999 0.0
C1039 C 0.07301 0.24018 0.42137 0.0
C1040 C 0.08207 0.22289 0.41169 0.0
C1041 C 0.08339 0.20672 0.43021 0.0
H1042 H 0.75256 0.1233 0.55753 0.0
H1043 H 0.7343 0.06378 0.57481 0.0
H1044 H 0.73203 0.05765 0.52235 0.0
H1045 H 0.72245 0.13118 0.49385 0.0
H1046 H 0.74108 0.14546 0.47643 0.0
H1047 H 0.73925 0.14535 0.51508 0.0
H1048 H 0.77525 0.13449 0.5187 0.0
H1049 H 0.77717 0.13449 0.48015 0.0
H1050 H 0.78298 0.11276 0.50012 0.0
H1051 H 0.73449 0.05773 0.46705 0.0
H1052 H 0.74159 0.06399 0.41554 0.0
H1053 H 0.75821 0.12341 0.43676 0.0
C1054 C 0.74782 0.109 0.55045 0.0
C1055 C 0.74362 0.09402 0.57033 0.0
C1056 C 0.73752 0.07553 0.55998 0.0
C1057 C 0.73618 0.07192 0.53023 0.0
C1058 C 0.74083 0.087 0.51124 0.0
C1059 C 0.7464 0.10521 0.5211 0.0
C1060 C 0.75173 0.11874 0.49674 0.0
C1061 C 0.73779 0.13621 0.49545 0.0
C1062 C 0.77305 0.1255 0.49908 0.0
C1063 C 0.74877 0.10522 0.4715 0.0
C1064 C 0.7423 0.08703 0.48004 0.0
C1065 C 0.73938 0.072 0.46018 0.0
C1066 C 0.74344 0.07568 0.43098 0.0
C1067 C 0.7505 0.09417 0.42209 0.0
C1068 C 0.75285 0.10909 0.44273 0.0
H1069 H 0.86733 0.78649 0.53464 0.0
H1070 H 0.90993 0.74361 0.56126 0.0
H1071 H 0.91969 0.7391 0.51026 0.0
H1072 H 0.85118 0.76208 0.47419 0.0
H1073 H 0.84763 0.78378 0.45302 0.0
H1074 H 0.84589 0.78499 0.49153 0.0
H1075 H 0.87226 0.81212 0.49253 0.0
H1076 H 0.87404 0.81105 0.45391 0.0
H1077 H 0.89546 0.80784 0.47565 0.0
H1078 H 0.92226 0.73746 0.45495 0.0
H1079 H 0.9174 0.73889 0.40212 0.0
H1080 H 0.87303 0.783 0.41432 0.0
C1081 C 0.87891 0.7763 0.52995 0.0
C1082 C 0.88783 0.76535 0.55192 0.0
C1083 C 0.90294 0.75221 0.54474 0.0
C1084 C 0.90856 0.74958 0.51586 0.0
C1085 C 0.89907 0.76036 0.49465 0.0
C1086 C 0.88466 0.77357 0.50156 0.0
C1087 C 0.87574 0.78262 0.47517 0.0
C1088 C 0.85382 0.77808 0.47338 0.0
C1089 C 0.87962 0.80472 0.47427 0.0
C1090 C 0.88697 0.77209 0.45209 0.0
C1091 C 0.90052 0.75944 0.4635 0.0
C1092 C 0.91184 0.7475 0.44586 0.0
C1093 C 0.90899 0.74841 0.41591 0.0
C1094 C 0.89481 0.76103 0.40408 0.0
C1095 C 0.88399 0.77318 0.42256 0.0
H1096 H 0.68466 0.59192 0.54658 0.0
H1097 H 0.73789 0.56124 0.567 0.0
H1098 H 0.74167 0.55242 0.51553 0.0
H1099 H 0.66831 0.55936 0.48613 0.0
H1100 H 0.65913 0.58002 0.46647 0.0
H1101 H 0.65872 0.58011 0.50523 0.0
H1102 H 0.67797 0.6127 0.50548 0.0
H1103 H 0.67849 0.61268 0.46693 0.0
H1104 H 0.70092 0.61411 0.48683 0.0
H1105 H 0.74214 0.55194 0.46045 0.0
H1106 H 0.7397 0.56055 0.40877 0.0
H1107 H 0.6863 0.59178 0.42606 0.0
C1108 C 0.69687 0.58289 0.54042 0.0
C1109 C 0.711 0.57728 0.56074 0.0
C1110 C 0.7268 0.56555 0.55179 0.0
C1111 C 0.72903 0.56047 0.52261 0.0
C1112 C 0.71515 0.56696 0.5029 0.0
C1113 C 0.69924 0.57773 0.51165 0.0
C1114 C 0.68751 0.58498 0.48643 0.0
C1115 C 0.66722 0.57555 0.48605 0.0
C1116 C 0.68617 0.60743 0.48643 0.0
C1117 C 0.69985 0.5776 0.46191 0.0
C1118 C 0.71549 0.56681 0.4716 0.0
C1119 C 0.72973 0.56002 0.45266 0.0
C1120 C 0.72822 0.56492 0.42334 0.0
C1121 C 0.71279 0.57679 0.41352 0.0
C1122 C 0.69818 0.58258 0.43297 0.0
H1123 H 0.384 0.69447 0.4217 0.0
H1124 H 0.42329 0.74303 0.40669 0.0
H1125 H 0.42904 0.74564 0.45917 0.0
H1126 H 0.36104 0.71372 0.48029 0.0
H1127 H 0.35821 0.69096 0.49923 0.0
H1128 H 0.3598 0.69106 0.46068 0.0
H1129 H 0.38894 0.66719 0.46272 0.0
H1130 H 0.38735 0.66688 0.5014 0.0
H1131 H 0.40993 0.67335 0.48411 0.0
H1132 H 0.42719 0.74502 0.51446 0.0
H1133 H 0.41791 0.74116 0.5658 0.0
H1134 H 0.37959 0.69338 0.54234 0.0
C1135 C 0.39416 0.70542 0.42928 0.0
C1136 C 0.40319 0.71855 0.41009 0.0
C1137 C 0.4163 0.73271 0.421 0.0
C1138 C 0.41965 0.7343 0.45077 0.0
C1139 C 0.40994 0.72147 0.46919 0.0
C1140 C 0.39762 0.70717 0.45867 0.0
C1141 C 0.38762 0.69615 0.48257 0.0
C1142 C 0.36536 0.69811 0.48056 0.0
C1143 C 0.39384 0.67462 0.4827 0.0
C1144 C 0.39562 0.7069 0.50828 0.0
C1145 C 0.40872 0.72127 0.5004 0.0
C1146 C 0.41714 0.73364 0.52082 0.0
C1147 C 0.41179 0.73137 0.54989 0.0
C1148 C 0.39795 0.71706 0.55801 0.0
C1149 C 0.39014 0.70454 0.53686 0.0
H1150 H 0.28988 0.38453 0.42871 0.0
H1151 H 0.23647 0.41445 0.40691 0.0
H1152 H 0.23138 0.42225 0.45856 0.0
H1153 H 0.27343 0.36168 0.48917 0.0
H1154 H 0.29579 0.36392 0.50909 0.0
H1155 H 0.29635 0.36347 0.4705 0.0
H1156 H 0.31481 0.39653 0.47002 0.0
H1157 H 0.31434 0.39706 0.50876 0.0
H1158 H 0.30465 0.41724 0.48855 0.0
H1159 H 0.23033 0.42252 0.51381 0.0
H1160 H 0.23348 0.41551 0.56586 0.0
H1161 H 0.28815 0.38612 0.54941 0.0
C1162 C 0.27725 0.39303 0.43467 0.0
C1163 C 0.2635 0.39881 0.41393 0.0
C1164 C 0.24722 0.40997 0.42254 0.0
C1165 C 0.24425 0.41446 0.45179 0.0
C1166 C 0.25792 0.40801 0.47184 0.0
C1167 C 0.27423 0.39775 0.46344 0.0
C1168 C 0.28611 0.39113 0.48886 0.0
C1169 C 0.28801 0.36873 0.48943 0.0
C1170 C 0.30616 0.40109 0.48905 0.0
C1171 C 0.27353 0.39845 0.51312 0.0
C1172 C 0.25745 0.40841 0.5031 0.0
C1173 C 0.24305 0.41506 0.52184 0.0
C1174 C 0.24497 0.41103 0.55138 0.0
C1175 C 0.26108 0.40028 0.56174 0.0
C1176 C 0.27571 0.39447 0.5423 0.0
H1177 H 0.62447 0.24325 0.54395 0.0
H1178 H 0.5629 0.23548 0.56085 0.0
H1179 H 0.55764 0.22758 0.50937 0.0
H1180 H 0.61966 0.26808 0.48101 0.0
H1181 H 0.64055 0.2575 0.46363 0.0
H1182 H 0.63968 0.25911 0.50214 0.0
H1183 H 0.64522 0.22179 0.50599 0.0
H1184 H 0.64614 0.22006 0.46734 0.0
H1185 H 0.62914 0.20528 0.48733 0.0
H1186 H 0.55893 0.22473 0.45447 0.0
H1187 H 0.56643 0.22827 0.40256 0.0
H1188 H 0.62706 0.23825 0.42342 0.0
C1189 C 0.60989 0.23952 0.53707 0.0
C1190 C 0.59408 0.24002 0.55641 0.0
C1191 C 0.57526 0.23509 0.54641 0.0
C1192 C 0.57215 0.23054 0.51724 0.0
C1193 C 0.58808 0.23075 0.49857 0.0
C1194 C 0.6066 0.23497 0.50829 0.0
C1195 C 0.62107 0.23614 0.48392 0.0
C1196 C 0.63079 0.25641 0.48261 0.0
C1197 C 0.63629 0.21984 0.48629 0.0
C1198 C 0.60771 0.23279 0.45869 0.0
C1199 C 0.58879 0.22929 0.4674 0.0
C1200 C 0.57375 0.22714 0.44749 0.0
C1201 C 0.57814 0.22913 0.41806 0.0
C1202 C 0.59732 0.23355 0.40903 0.0
C1203 C 0.61227 0.23483 0.42966 0.0
H1204 H 0.6975 0.35195 0.92333 0.0
H1205 H 0.72844 0.4061 0.90666 0.0
H1206 H 0.73135 0.41167 0.95912 0.0
H1207 H 0.67036 0.36862 0.98424 0.0
H1208 H 0.67206 0.34563 0.00284 0.0
H1209 H 0.67242 0.34621 0.96415 0.0
H1210 H 0.70515 0.32755 0.964 0.0
H1211 H 0.70491 0.32692 0.00269 0.0
H1212 H 0.72546 0.33722 0.98398 0.0
H1213 H 0.73077 0.41097 0.01408 0.0
H1214 H 0.72699 0.40395 0.066 0.0
H1215 H 0.69661 0.35018 0.04503 0.0
C1216 C 0.70488 0.36504 0.93056 0.0
C1217 C 0.71272 0.3786 0.91082 0.0
C1218 C 0.7223 0.39549 0.92137 0.0
C1219 C 0.72402 0.39878 0.95111 0.0
C1220 C 0.7161 0.38504 0.96993 0.0
C1221 C 0.70673 0.36851 0.95997 0.0
C1222 C 0.69958 0.35585 0.98437 0.0
C1223 C 0.67728 0.35398 0.98386 0.0
C1224 C 0.70937 0.3357 0.98371 0.0
C1225 C 0.70638 0.36778 0.00975 0.0
C1226 C 0.71585 0.3846 0.00113 0.0
C1227 C 0.72337 0.39784 0.02103 0.0
C1228 C 0.72115 0.39373 0.05047 0.0
C1229 C 0.71152 0.3765 0.05965 0.0
C1230 C 0.70407 0.36346 0.03885 0.0
H1231 H 0.58596 0.74537 0.05358 0.0
H1232 H 0.5702 0.68631 0.07684 0.0
H1233 H 0.55618 0.68115 0.02864 0.0
H1234 H 0.54474 0.75405 -0.0021 0.0
H1235 H 0.56142 0.76697 0.97479 0.0
H1236 H 0.56406 0.76846 0.01332 0.0
H1237 H 0.5997 0.75675 0.00884 0.0
H1238 H 0.59716 0.75519 0.97055 0.0
H1239 H 0.60473 0.73406 -0.00934 0.0
H1240 H 0.55198 0.67928 0.97682 0.0
H1241 H 0.55917 0.68033 0.92494 0.0
H1242 H 0.57791 0.7404 0.93287 0.0
C1243 C 0.57857 0.73178 0.04881 0.0
C1244 C 0.57863 0.71637 0.06886 0.0
C1245 C 0.56988 0.69835 0.06176 0.0
C1246 C 0.56181 0.69536 0.0345 0.0
C1247 C 0.56275 0.71051 0.01453 0.0
C1248 C 0.57084 0.72845 0.02134 0.0
C1249 C 0.57364 0.74082 -0.0054 0.0
C1250 C 0.56016 0.75863 -0.00481 0.0
C1251 C 0.59507 0.74704 -0.00904 0.0
C1252 C 0.56741 0.72645 0.97154 0.0
C1253 C 0.56051 0.70932 0.98364 0.0
C1254 C 0.55669 0.69281 0.96704 0.0
C1255 C 0.56082 0.6935 0.9376 0.0
C1256 C 0.56862 0.71058 0.92506 0.0
C1257 C 0.57117 0.72749 0.94193 0.0
H1258 H 0.2994 0.602 0.04925 0.0
H1259 H 0.24754 0.5696 0.07305 0.0
H1260 H 0.24173 0.56195 0.02173 0.0
H1261 H 0.27958 0.62516 -0.0078 0.0
H1262 H 0.30108 0.62498 0.97001 0.0
H1263 H 0.30335 0.6243 0.00845 0.0
H1264 H 0.32351 0.59249 0.005 0.0
H1265 H 0.32147 0.59315 0.96637 0.0
H1266 H 0.31376 0.57177 0.98589 0.0
H1267 H 0.23939 0.56178 0.96687 0.0
H1268 H 0.24036 0.5699 0.9149 0.0
H1269 H 0.29299 0.60357 0.92871 0.0
C1270 C 0.28711 0.59279 0.04391 0.0
C1271 C 0.27397 0.58634 0.06526 0.0
C1272 C 0.25791 0.57459 0.05712 0.0
C1273 C 0.2545 0.57015 0.028 0.0
C1274 C 0.26737 0.57747 0.00739 0.0
C1275 C 0.28344 0.58843 0.01513 0.0
C1276 C 0.29384 0.59661 -0.01083 0.0
C1277 C 0.29448 0.61908 -0.00998 0.0
C1278 C 0.31436 0.58798 0.98645 0.0
C1279 C 0.2807 0.58926 0.96554 0.0
C1280 C 0.26574 0.57786 0.97623 0.0
C1281 C 0.25121 0.57045 0.95828 0.0
C1282 C 0.25187 0.57512 0.92882 0.0
C1283 C 0.26671 0.58741 0.91787 0.0
C1284 C 0.28145 0.59416 0.93647 0.0
H1285 H 0.35896 0.25527 0.94043 0.0
H1286 H 0.41977 0.25995 0.91686 0.0
H1287 H 0.42889 0.25626 0.96831 0.0
H1288 H 0.36097 0.2843 -0.00077 0.0
H1289 H 0.34359 0.27065 0.02021 0.0
H1290 H 0.34247 0.26991 0.98168 0.0
H1291 H 0.34493 0.23216 0.98268 0.0
H1292 H 0.34593 0.23275 0.0214 0.0
H1293 H 0.36485 0.22075 0.0013 0.0
H1294 H 0.43048 0.25608 0.02396 0.0
H1295 H 0.4243 0.26047 0.07632 0.0
H1296 H 0.36235 0.25725 0.06072 0.0
C1297 C 0.37426 0.25515 0.9459 0.0
C1298 C 0.38867 0.25799 0.92474 0.0
C1299 C 0.40851 0.25768 0.93279 0.0
C1300 C 0.41378 0.25558 0.96193 0.0
C1301 C 0.39902 0.25353 0.98243 0.0
C1302 C 0.37966 0.25312 0.97451 0.0
C1303 C 0.36628 0.25273 0.0002 0.0
C1304 C 0.35254 0.27045 0.00032 0.0
C1305 C 0.35483 0.23345 0.00146 0.0
C1306 C 0.38101 0.25394 0.02405 0.0
C1307 C 0.39988 0.25389 0.0137 0.0
C1308 C 0.41577 0.25587 0.0322 0.0
C1309 C 0.41217 0.25833 0.06183 0.0
C1310 C 0.39286 0.25925 0.07224 0.0
C1311 C 0.37724 0.25662 0.05317 0.0
H1312 H 0.24592 0.04692 0.2419 0.0
H1313 H 0.27444 0.03028 0.16263 0.0
H1314 H 0.28125 -0.00242 0.18296 0.0
H1315 H 0.27509 0.01655 0.2932 0.0
H1316 H 0.25379 0.01028 0.31387 0.0
H1317 H 0.25521 0.03353 0.29588 0.0
H1318 H 0.22282 0.02604 0.26966 0.0
H1319 H 0.22134 0.00279 0.28738 0.0
H1320 H 0.22065 0.00401 0.24868 0.0
H1321 H 0.28205 0.9661 0.20988 0.0
H1322 H 0.27365 0.93701 0.23841 0.0
H1323 H 0.24145 0.97321 0.2983 0.0
C1324 C 0.25428 0.03658 0.22937 0.0
C1325 C 0.26026 0.0411 0.20115 0.0
C1326 C 0.27021 0.02705 0.18456 0.0
C1327 C 0.27416 0.00854 0.19598 0.0
C1328 C 0.26768 0.00431 0.22375 0.0
C1329 C 0.25777 0.01788 0.24013 0.0
C1330 C 0.24959 0.00877 0.26728 0.0
C1331 C 0.25899 0.01782 0.29415 0.0
C1332 C 0.22729 0.0105 0.26828 0.0
C1333 C 0.25593 0.98783 0.26322 0.0
C1334 C 0.26685 0.98571 0.23843 0.0
C1335 C 0.27367 0.96761 0.22946 0.0
C1336 C 0.26882 0.95116 0.24585 0.0
C1337 C 0.25687 0.95286 0.27057 0.0
C1338 C 0.25068 0.9715 0.2796 0.0
H1339 H 0.95793 0.21057 0.20069 0.0
H1340 H 0.94701 0.27254 0.19194 0.0
H1341 H 0.97917 0.27971 0.21355 0.0
H1342 H 0.97919 0.21388 0.26946 0.0
H1343 H -0.00343 0.19469 0.26338 0.0
H1344 H 0.97377 0.19451 0.24444 0.0
H1345 H -0.00793 0.19314 0.19573 0.0
H1346 H 0.01495 0.19318 0.21454 0.0
H1347 H 0.01015 0.21142 0.18759 0.0
H1348 H 0.01259 0.27982 0.23679 0.0
H1349 H 0.04325 0.27297 0.2628 0.0
H1350 H 0.03042 0.21102 0.25968 0.0
C1351 C 0.96247 0.22565 0.2028 0.0
C1352 C 0.95019 0.24103 0.19427 0.0
C1353 C 0.95634 0.26058 0.19815 0.0
C1354 C 0.97456 0.26476 0.21034 0.0
C1355 C 0.98624 0.24921 0.2189 0.0
C1356 C 0.98034 0.23005 0.21548 0.0
C1357 C -0.00519 0.21601 0.22841 0.0
C1358 C 0.98552 0.20408 0.25288 0.0
C1359 C 0.00351 0.20265 0.20518 0.0
C1360 C 0.00977 0.23024 0.23978 0.0
C1361 C 0.00477 0.24931 0.23371 0.0
C1362 C 0.0166 0.26494 0.24174 0.0
C1363 C 0.03396 0.26094 0.25647 0.0
C1364 C 0.03903 0.24151 0.26343 0.0
C1365 C 0.02676 0.22604 0.25493 0.0
H1366 H 0.77484 0.0194 0.28518 0.0
H1367 H 0.71313 0.03166 0.28122 0.0
H1368 H 0.70763 0.00018 0.25617 0.0
H1369 H 0.77806 0.00068 0.21518 0.0
H1370 H 0.79611 0.98258 0.22369 0.0
H1371 H 0.79472 0.00465 0.24452 0.0
H1372 H 0.79093 0.98433 0.2912 0.0
H1373 H 0.79238 0.96215 0.27049 0.0
H1374 H 0.77181 0.96636 0.29368 0.0
H1375 H 0.7093 0.96746 0.23025 0.0
H1376 H 0.71829 0.93813 0.20198 0.0
H1377 H 0.77917 0.94942 0.21968 0.0
C1378 C 0.76011 0.01525 0.27962 0.0
C1379 C 0.74434 0.02773 0.28552 0.0
C1380 C 0.72536 0.02215 0.27708 0.0
C1381 C 0.72211 0.00431 0.26295 0.0
C1382 C 0.73806 -0.00758 0.25707 0.0
C1383 C 0.75671 -0.00222 0.26494 0.0
C1384 C 0.7716 0.98345 0.25382 0.0
C1385 C 0.78596 -0.00656 0.23307 0.0
C1386 C 0.78231 0.97348 0.27879 0.0
C1387 C 0.75848 0.96926 0.23818 0.0
C1388 C 0.73914 0.97441 0.24075 0.0
C1389 C 0.7244 0.96333 0.22809 0.0
C1390 C 0.72961 0.94671 0.21214 0.0
C1391 C 0.7494 0.94167 0.20853 0.0
C1392 C 0.76393 0.95305 0.2219 0.0
H1393 H 0.02753 0.73593 0.17753 0.0
H1394 H 0.06719 0.73131 0.24957 0.0
H1395 H 0.03934 0.72598 0.28235 0.0
H1396 H -0.00822 0.762 0.21108 0.0
H1397 H 0.97145 0.74979 0.19446 0.0
H1398 H -0.0055 0.7507 0.17629 0.0
H1399 H -0.00517 0.71298 0.17252 0.0
H1400 H 0.97162 0.71194 0.1905 0.0
H1401 H -0.00804 0.69848 0.20458 0.0
H1402 H 0.00706 0.72751 0.3079 0.0
H1403 H 0.97282 0.73138 0.32351 0.0
H1404 H 0.9544 0.7316 0.23446 0.0
C1405 C 0.03035 0.73328 0.20009 0.0
C1406 C 0.04943 0.73402 0.2111 0.0
C1407 C 0.05264 0.73061 0.24073 0.0
C1408 C 0.03693 0.72763 0.25949 0.0
C1409 C 0.01819 0.72757 0.24809 0.0
C1410 C 0.01488 0.72981 0.21895 0.0
C1411 C -0.00664 0.73003 0.21228 0.0
C1412 C 0.98744 0.74928 0.19768 0.0
C1413 C 0.98761 0.7123 0.19388 0.0
C1414 C 0.98506 0.7285 0.24233 0.0
C1415 C -0.0004 0.72713 0.26274 0.0
C1416 C -0.00447 0.72793 0.29211 0.0
C1417 C 0.97611 0.73022 0.30079 0.0
C1418 C 0.96108 0.73132 0.28015 0.0
C1419 C 0.96562 0.73013 0.25064 0.0
H1420 H 0.72663 0.96015 0.805 0.0
H1421 H 0.71147 0.92016 0.73629 0.0
H1422 H 0.70815 0.94798 0.7028 0.0
H1423 H 0.69334 0.00045 0.7811 0.0
H1424 H 0.71052 0.01888 0.79219 0.0
H1425 H 0.70919 -0.00398 0.81123 0.0
H1426 H 0.74601 0.9908 0.80243 0.0
H1427 H 0.74742 0.01343 0.78304 0.0
H1428 H 0.75526 0.99113 0.76615 0.0
H1429 H 0.71284 0.97947 0.67522 0.0
H1430 H 0.72012 0.01281 0.65737 0.0
H1431 H 0.72903 0.03239 0.745 0.0
C1432 C 0.72203 0.95733 0.78312 0.0
C1433 C 0.71926 0.93809 0.77317 0.0
C1434 C 0.71342 0.93486 0.74438 0.0
C1435 C 0.7116 0.95056 0.72519 0.0
C1436 C 0.71515 0.96936 0.73541 0.0
C1437 C 0.71969 0.97284 0.76393 0.0
C1438 C 0.72358 -0.00573 0.7693 0.0
C1439 C 0.70824 0.00292 0.78966 0.0
C1440 C 0.74429 -0.00241 0.7809 0.0
C1441 C 0.72139 0.00219 0.73914 0.0
C1442 C 0.71661 0.98762 0.71981 0.0
C1443 C 0.71599 0.99111 0.69025 0.0
C1444 C 0.72024 0.01 0.68029 0.0
C1445 C 0.72472 0.02513 0.6999 0.0
C1446 C 0.72508 0.02117 0.72965 0.0
H1447 H 0.94909 0.775 0.70015 0.0
H1448 H 0.93664 0.71317 0.69237 0.0
H1449 H 0.9678 0.70558 0.7165 0.0
H1450 H 0.00106 0.77273 0.68971 0.0
H1451 H 0.0061 0.79121 0.71628 0.0
H1452 H 0.98347 0.79157 0.69685 0.0
H1453 H 0.96449 0.79126 0.74504 0.0
H1454 H 0.98705 0.79086 0.7646 0.0
H1455 H 0.96905 0.77216 0.77076 0.0
H1456 H 0.00082 0.705 0.74076 0.0
H1457 H 0.03164 0.71145 0.76668 0.0
H1458 H 0.02071 0.77364 0.76174 0.0
C1459 C 0.95304 0.75986 0.70323 0.0
C1460 C 0.94064 0.74464 0.69415 0.0
C1461 C 0.94604 0.72502 0.69911 0.0
C1462 C 0.96369 0.72059 0.71271 0.0
C1463 C 0.97557 0.73598 0.72157 0.0
C1464 C 0.97035 0.75522 0.71729 0.0
C1465 C 0.98509 0.76908 0.73022 0.0
C1466 C -0.00551 0.7819 0.70686 0.0
C1467 C 0.97586 0.78157 0.75407 0.0
C1468 C -0.00053 0.75465 0.74241 0.0
C1469 C -0.00611 0.73563 0.73689 0.0
C1470 C 0.00525 0.71983 0.74539 0.0
C1471 C 0.0227 0.72362 0.76003 0.0
C1472 C 0.02838 0.74301 0.76641 0.0
C1473 C 0.01657 0.75865 0.75748 0.0
H1474 H 0.2554 0.94971 0.71412 0.0
H1475 H 0.20867 0.96052 0.65348 0.0
H1476 H 0.20494 -0.00631 0.67274 0.0
H1477 H 0.23484 0.97343 0.77243 0.0
H1478 H 0.25695 0.98411 0.78612 0.0
H1479 H 0.2579 0.96191 0.7655 0.0
H1480 H 0.28198 0.97794 0.72972 0.0
H1481 H 0.28129 0.00017 0.75042 0.0
H1482 H 0.27559 0.00062 0.71261 0.0
H1483 H 0.2027 0.02325 0.7025 0.0
H1484 H 0.20448 0.04965 0.73855 0.0
H1485 H 0.25382 0.02153 0.77871 0.0
C1486 C 0.24474 0.95925 0.70443 0.0
C1487 C 0.23232 0.95251 0.68229 0.0
C1488 C 0.21837 0.96534 0.67041 0.0
C1489 C 0.21613 0.98423 0.68119 0.0
C1490 C 0.22812 0.99022 0.7036 0.0
C1491 C 0.2424 0.97832 0.71481 0.0
C1492 C 0.25265 0.98819 0.73984 0.0
C1493 C 0.25044 0.97619 0.76761 0.0
C1494 C 0.27415 -0.00804 0.73271 0.0
C1495 C 0.24136 0.00714 0.74155 0.0
C1496 C 0.22731 0.00793 0.72034 0.0
C1497 C 0.21392 0.02307 0.71879 0.0
C1498 C 0.21495 0.03788 0.73939 0.0
C1499 C 0.22938 0.03757 0.76096 0.0
C1500 C 0.2429 0.02215 0.76199 0.0
H1501 H 0.95352 0.20691 0.77471 0.0
H1502 H 0.93645 0.26773 0.77617 0.0
H1503 H 0.9675 0.27682 0.75258 0.0
H1504 H 0.00549 0.21388 0.78586 0.0
H1505 H 0.01192 0.19469 0.76114 0.0
H1506 H 0.98932 0.19344 0.78066 0.0
H1507 H 0.97052 0.19004 0.73261 0.0
H1508 H -0.00697 0.19135 0.71296 0.0
H1509 H 0.97374 0.20826 0.70506 0.0
H1510 H 0.0007 0.27894 0.72809 0.0
H1511 H 0.03156 0.27352 0.7015 0.0
H1512 H 0.02481 0.21112 0.71315 0.0
C1513 C 0.95647 0.22218 0.77054 0.0
C1514 C 0.94277 0.23667 0.77757 0.0
C1515 C 0.94688 0.25644 0.77107 0.0
C1516 C 0.96447 0.26173 0.75777 0.0
C1517 C 0.97761 0.24702 0.75078 0.0
C1518 C 0.9737 0.22763 0.75675 0.0
C1519 C -0.01059 0.21443 0.74515 0.0
C1520 C -0.00036 0.20347 0.76967 0.0
C1521 C 0.98118 0.20019 0.7226 0.0
C1522 C 0.00274 0.22936 0.73154 0.0
C1523 C -0.00406 0.24813 0.73538 0.0
C1524 C 0.00611 0.26429 0.72487 0.0
C1525 C 0.02358 0.26111 0.70985 0.0
C1526 C 0.03037 0.24192 0.70505 0.0
C1527 C 0.01981 0.22595 0.71618 0.0
H1528 H 0.7338 0.51389 0.6817 0.0
H1529 H 0.74188 0.55406 0.75277 0.0
H1530 H 0.74537 0.52623 0.78614 0.0
H1531 H 0.70621 0.47898 0.71714 0.0
H1532 H 0.71739 0.45808 0.70046 0.0
H1533 H 0.71701 0.48109 0.68193 0.0
H1534 H 0.75452 0.48017 0.67684 0.0
H1535 H 0.75501 0.45706 0.69528 0.0
H1536 H 0.76935 0.47721 0.70847 0.0
H1537 H 0.7428 0.49421 0.81245 0.0
H1538 H 0.73859 0.46004 0.8289 0.0
H1539 H 0.73599 0.44075 0.74023 0.0
C1540 C 0.73665 0.51676 0.70421 0.0
C1541 C 0.73754 0.53603 0.71477 0.0
C1542 C 0.7413 0.53935 0.7443 0.0
C1543 C 0.74324 0.52366 0.76339 0.0
C1544 C 0.74194 0.50478 0.75243 0.0
C1545 C 0.7392 0.50127 0.72341 0.0
C1546 C 0.73811 0.47962 0.7172 0.0
C1547 C 0.71851 0.47413 0.70338 0.0
C1548 C 0.75527 0.47314 0.69833 0.0
C1549 C 0.73981 0.47155 0.74737 0.0
C1550 C 0.74193 0.48628 0.76744 0.0
C1551 C 0.74172 0.48249 0.79692 0.0
C1552 C 0.73927 0.46312 0.80607 0.0
C1553 C 0.73744 0.44786 0.78578 0.0
C1554 C 0.738 0.45214 0.75613 0.0
H1555 H 0.51508 0.73834 0.80598 0.0
H1556 H 0.55631 0.75529 0.73993 0.0
H1557 H 0.52949 0.7578 0.70479 0.0
H1558 H 0.48628 0.70873 0.7648 0.0
H1559 H 0.46333 0.71577 0.78035 0.0
H1560 H 0.48525 0.71778 0.80119 0.0
H1561 H 0.47861 0.75448 0.81008 0.0
H1562 H 0.45646 0.75254 0.78959 0.0
H1563 H 0.47456 0.77043 0.77989 0.0
H1564 H 0.49923 0.75242 0.67531 0.0
H1565 H 0.4668 0.74449 0.65519 0.0
H1566 H 0.44487 0.73406 0.74122 0.0
C1567 C 0.51836 0.74312 0.78432 0.0
C1568 C 0.53771 0.74664 0.7756 0.0
C1569 C 0.54153 0.75273 0.74707 0.0
C1570 C 0.52641 0.75411 0.72695 0.0
C1571 C 0.50754 0.74984 0.73597 0.0
C1572 C 0.5034 0.745 0.76418 0.0
C1573 C 0.48203 0.74037 0.76813 0.0
C1574 C 0.47906 0.71942 0.77926 0.0
C1575 C 0.47234 0.75536 0.7881 0.0
C1576 C 0.47495 0.74251 0.73751 0.0
C1577 C 0.48989 0.74791 0.71923 0.0
C1578 C 0.48729 0.74875 0.68951 0.0
C1579 C 0.46892 0.7441 0.67826 0.0
C1580 C 0.45339 0.73901 0.69676 0.0
C1581 C 0.45643 0.73841 0.72672 0.0
H1582 H 0.25829 0.45584 0.70361 0.0
H1583 H 0.19601 0.44585 0.70174 0.0
H1584 H 0.19104 0.4762 0.72999 0.0
H1585 H 0.26004 0.47245 0.7761 0.0
H1586 H 0.27909 0.48999 0.7694 0.0
H1587 H 0.27743 0.46826 0.74775 0.0
H1588 H 0.27601 0.48932 0.7015 0.0
H1589 H 0.27783 0.5111 0.72298 0.0
H1590 H 0.2578 0.50806 0.69841 0.0
H1591 H 0.19337 0.50846 0.75769 0.0
H1592 H 0.20273 0.5385 0.78407 0.0
H1593 H 0.26357 0.52496 0.7704 0.0
C1594 C 0.24355 0.46013 0.70877 0.0
C1595 C 0.22749 0.4487 0.70015 0.0
C1596 C 0.20849 0.45455 0.70797 0.0
C1597 C 0.20556 0.47171 0.724 0.0
C1598 C 0.22181 0.48257 0.73239 0.0
C1599 C 0.24043 0.47687 0.72517 0.0
C1600 C 0.25558 0.49044 0.73767 0.0
C1601 C 0.26881 0.47964 0.759 0.0
C1602 C 0.2675 0.50031 0.71371 0.0
C1603 C 0.24262 0.50487 0.75292 0.0
C1604 C 0.22318 0.50025 0.74948 0.0
C1605 C 0.20855 0.51207 0.76073 0.0
C1606 C 0.21399 0.52907 0.77567 0.0
C1607 C 0.23386 0.53386 0.77956 0.0
C1608 C 0.24827 0.52147 0.76823 0.0
H1609 H 0.452 0.23386 0.77905 0.0
H1610 H 0.43431 0.29301 0.75923 0.0
H1611 H 0.46088 0.29573 0.72376 0.0
H1612 H 0.50335 0.24469 0.77674 0.0
H1613 H 0.51006 0.2214 0.76179 0.0
H1614 H 0.48865 0.22342 0.78388 0.0
H1615 H 0.46798 0.20844 0.74283 0.0
H1616 H 0.48931 0.20659 0.72049 0.0
H1617 H 0.46831 0.21963 0.70777 0.0
H1618 H 0.48832 0.29192 0.68979 0.0
H1619 H 0.51903 0.28425 0.66515 0.0
H1620 H 0.52168 0.22883 0.71014 0.0
C1621 C 0.45379 0.24731 0.76712 0.0
C1622 C 0.44115 0.26322 0.77158 0.0
C1623 C 0.44397 0.28073 0.75607 0.0
C1624 C 0.45887 0.28234 0.73573 0.0
C1625 C 0.47107 0.26642 0.73163 0.0
C1626 C 0.46906 0.2494 0.74731 0.0
C1627 C 0.48532 0.23524 0.7404 0.0
C1628 C 0.49757 0.23094 0.7673 0.0
C1629 C 0.47724 0.21636 0.72708 0.0
C1630 C 0.49673 0.24701 0.71847 0.0
C1631 C 0.48791 0.26474 0.71328 0.0
C1632 C 0.49546 0.27814 0.69375 0.0
C1633 C 0.51286 0.27358 0.67974 0.0
C1634 C 0.52276 0.25597 0.68578 0.0
C1635 C 0.51441 0.24239 0.70511 0.0
H1636 H 0.25089 0.52468 0.17831 0.0
H1637 H 0.22449 0.5607 0.24423 0.0
H1638 H 0.22034 0.53161 0.27513 0.0
H1639 H 0.21939 0.48099 0.19134 0.0
H1640 H 0.23907 0.46444 0.18386 0.0
H1641 H 0.2381 0.48776 0.16605 0.0
H1642 H 0.27275 0.49574 0.18455 0.0
H1643 H 0.27375 0.47259 0.20265 0.0
H1644 H 0.27762 0.49481 0.22261 0.0
H1645 H 0.22431 0.49977 0.30161 0.0
H1646 H 0.23182 0.46652 0.31919 0.0
H1647 H 0.25261 0.45064 0.23439 0.0
C1648 C 0.24382 0.52634 0.19897 0.0
C1649 C 0.23801 0.54488 0.20895 0.0
C1650 C 0.22888 0.54656 0.23612 0.0
C1651 C 0.22653 0.53015 0.25384 0.0
C1652 C 0.23295 0.51213 0.24371 0.0
C1653 C 0.24095 0.51005 0.2166 0.0
C1654 C 0.24717 0.4892 0.21112 0.0
C1655 C 0.23522 0.48006 0.18664 0.0
C1656 C 0.26912 0.48803 0.20488 0.0
C1657 C 0.24217 0.48003 0.23979 0.0
C1658 C 0.23406 0.49351 0.25837 0.0
C1659 C 0.23012 0.48895 0.28703 0.0
C1660 C 0.23453 0.47011 0.29686 0.0
C1661 C 0.24243 0.45604 0.27796 0.0
C1662 C 0.24607 0.46102 0.24903 0.0
H1663 H 0.53871 0.2293 0.2329 0.0
H1664 H 0.52203 0.21046 0.31835 0.0
H1665 H 0.48808 0.20614 0.30188 0.0
H1666 H 0.4993 0.25891 0.2233 0.0
H1667 H 0.49643 0.25456 0.1853 0.0
H1668 H 0.51991 0.25189 0.2017 0.0
H1669 H 0.52212 0.21646 0.18252 0.0
H1670 H 0.4986 0.21905 0.16593 0.0
H1671 H 0.50297 0.19932 0.19068 0.0
H1672 H 0.45565 0.20725 0.27769 0.0
H1673 H 0.42683 0.21686 0.24959 0.0
H1674 H 0.46435 0.23766 0.18104 0.0
C1675 C 0.52801 0.22358 0.24779 0.0
C1676 C 0.53293 0.21978 0.27668 0.0
C1677 C 0.51848 0.21317 0.29602 0.0
C1678 C 0.49923 0.21059 0.28681 0.0
C1679 C 0.4947 0.21495 0.25831 0.0
C1680 C 0.50866 0.22145 0.23912 0.0
C1681 C 0.49959 0.22797 0.21109 0.0
C1682 C 0.50407 0.24961 0.20502 0.0
C1683 C 0.50621 0.21491 0.18607 0.0
C1684 C 0.47829 0.2248 0.21785 0.0
C1685 C 0.47582 0.21673 0.24484 0.0
C1686 C 0.45742 0.21337 0.2564 0.0
C1687 C 0.44113 0.21886 0.24026 0.0
C1688 C 0.44338 0.22801 0.21316 0.0
C1689 C 0.4622 0.2306 0.20162 0.0
H1690 H 0.74894 0.51867 0.27206 0.0
H1691 H 0.69716 0.54625 0.23812 0.0
H1692 H 0.69288 0.51913 0.20386 0.0
H1693 H 0.7661 0.49619 0.20438 0.0
H1694 H 0.7735 0.47393 0.22176 0.0
H1695 H 0.77417 0.49666 0.24125 0.0
H1696 H 0.75228 0.48172 0.28097 0.0
H1697 H 0.75164 0.45896 0.26168 0.0
H1698 H 0.72926 0.47097 0.27121 0.0
H1699 H 0.69313 0.48894 0.17502 0.0
H1700 H 0.69564 0.45538 0.15665 0.0
H1701 H 0.746 0.44565 0.211 0.0
C1702 C 0.73693 0.51906 0.25704 0.0
C1703 C 0.72346 0.53455 0.25743 0.0
C1704 C 0.70761 0.53446 0.23806 0.0
C1705 C 0.70515 0.51922 0.2184 0.0
C1706 C 0.71852 0.50405 0.21863 0.0
C1707 C 0.73397 0.50365 0.23764 0.0
C1708 C 0.74495 0.48455 0.23529 0.0
C1709 C 0.76592 0.48805 0.22506 0.0
C1710 C 0.74449 0.47339 0.26399 0.0
C1711 C 0.73303 0.47423 0.21242 0.0
C1712 C 0.71813 0.48597 0.20272 0.0
C1713 C 0.70478 0.4796 0.1823 0.0
C1714 C 0.70635 0.4605 0.17198 0.0
C1715 C 0.721 0.44787 0.18239 0.0
C1716 C 0.73472 0.45499 0.2025 0.0
H1717 H 0.47096 0.72233 0.27441 0.0
H1718 H 0.45435 0.78333 0.27458 0.0
H1719 H 0.48595 0.79202 0.25233 0.0
H1720 H 0.52247 0.7293 0.28896 0.0
H1721 H 0.52953 0.70979 0.26518 0.0
H1722 H 0.50638 0.70885 0.28325 0.0
H1723 H 0.48897 0.70495 0.23413 0.0
H1724 H 0.51204 0.70591 0.21592 0.0
H1725 H 0.4931 0.72281 0.20633 0.0
H1726 H 0.51942 0.79359 0.22827 0.0
H1727 H 0.5506 0.78759 0.20282 0.0
H1728 H 0.54365 0.72547 0.21747 0.0
C1729 C 0.47404 0.73756 0.27019 0.0
C1730 C 0.46029 0.75217 0.27642 0.0
C1731 C 0.46475 0.7719 0.27007 0.0
C1732 C 0.48266 0.77698 0.2575 0.0
C1733 C 0.49584 0.76213 0.25134 0.0
C1734 C 0.49166 0.74282 0.25744 0.0
C1735 C 0.50761 0.72941 0.24723 0.0
C1736 C 0.51706 0.71871 0.27268 0.0
C1737 C 0.49997 0.71493 0.22456 0.0
C1738 C 0.52137 0.74412 0.23412 0.0
C1739 C 0.51455 0.76296 0.23693 0.0
C1740 C 0.5249 0.77889 0.22602 0.0
C1741 C 0.54257 0.77537 0.21165 0.0
C1742 C 0.54944 0.75608 0.20806 0.0
C1743 C 0.53872 0.74038 0.21971 0.0
H1744 H 0.17362 0.12596 0.18219 0.0
H1745 H 0.19051 0.09412 0.25864 0.0
H1746 H 0.16589 0.11209 0.28687 0.0
H1747 H 0.17071 0.17061 0.21608 0.0
H1748 H 0.15047 0.17978 0.19559 0.0
H1749 H 0.16639 0.16185 0.18008 0.0
H1750 H 0.13702 0.13903 0.17039 0.0
H1751 H 0.12094 0.15699 0.18567 0.0
H1752 H 0.12106 0.13246 0.1996 0.0
H1753 H 0.14205 0.13534 0.30745 0.0
H1754 H 0.12188 0.1636 0.32021 0.0
H1755 H 0.12225 0.18245 0.23108 0.0
C1756 C 0.17166 0.12233 0.20465 0.0
C1757 C 0.18363 0.10843 0.21825 0.0
C1758 C 0.18123 0.10456 0.24788 0.0
C1759 C 0.16729 0.11465 0.264 0.0
C1760 C 0.15609 0.12872 0.25016 0.0
C1761 C 0.15817 0.13265 0.22118 0.0
C1762 C 0.1462 0.15019 0.21238 0.0
C1763 C 0.15922 0.16657 0.20034 0.0
C1764 C 0.13036 0.14431 0.19073 0.0
C1765 C 0.13745 0.15581 0.24109 0.0
C1766 C 0.14303 0.14295 0.26241 0.0
C1767 C 0.13743 0.14541 0.29092 0.0
C1768 C 0.126 0.16156 0.29793 0.0
C1769 C 0.12052 0.17526 0.27662 0.0
C1770 C 0.12617 0.1722 0.24778 0.0
H1771 H 0.85353 0.16619 0.18739 0.0
H1772 H 0.88533 0.18724 0.2617 0.0
H1773 H 0.86985 0.16171 0.2917 0.0
H1774 H 0.80967 0.15882 0.22406 0.0
H1775 H 0.80255 0.13747 0.20397 0.0
H1776 H 0.81813 0.15547 0.1877 0.0
H1777 H 0.84375 0.12878 0.17698 0.0
H1778 H 0.82824 0.11068 0.19335 0.0
H1779 H 0.85281 0.11392 0.20596 0.0
H1780 H 0.84971 0.13526 0.31388 0.0
H1781 H 0.82398 0.11216 0.32816 0.0
H1782 H 0.80374 0.10961 0.23983 0.0
C1783 C 0.85754 0.16513 0.20985 0.0
C1784 C 0.8708 0.17843 0.22226 0.0
C1785 C 0.87527 0.17705 0.25186 0.0
C1786 C 0.86665 0.16256 0.26895 0.0
C1787 C 0.85347 0.14975 0.25612 0.0
C1788 C 0.84877 0.15102 0.2273 0.0
C1789 C 0.83264 0.13689 0.21946 0.0
C1790 C 0.81469 0.14782 0.20815 0.0
C1791 C 0.83979 0.12166 0.19764 0.0
C1792 C 0.82873 0.12771 0.24849 0.0
C1793 C 0.84118 0.13505 0.26919 0.0
C1794 C 0.83995 0.12933 0.29784 0.0
C1795 C 0.82528 0.11617 0.30572 0.0
C1796 C 0.81181 0.1091 0.28511 0.0
C1797 C 0.81387 0.11466 0.25603 0.0
H1798 H 0.85976 0.8016 0.28256 0.0
H1799 H 0.89489 0.78665 0.20831 0.0
H1800 H 0.87701 0.81098 0.17924 0.0
H1801 H 0.81542 0.80546 0.24388 0.0
H1802 H 0.80605 0.82519 0.26539 0.0
H1803 H 0.8228 0.80804 0.28088 0.0
H1804 H 0.84576 0.83645 0.29526 0.0
H1805 H 0.82907 0.85371 0.27981 0.0
H1806 H 0.85406 0.85331 0.26813 0.0
H1807 H 0.85538 0.83692 0.15863 0.0
H1808 H 0.82947 0.86021 0.14618 0.0
H1809 H 0.8065 0.85603 0.23292 0.0
C1810 C 0.86386 0.80365 0.26028 0.0
C1811 C 0.87885 0.7925 0.24766 0.0
C1812 C 0.88351 0.79518 0.21831 0.0
C1813 C 0.87348 0.80898 0.20173 0.0
C1814 C 0.85867 0.81966 0.21479 0.0
C1815 C 0.8537 0.81697 0.2433 0.0
C1816 C 0.83626 0.82919 0.25159 0.0
C1817 C 0.81912 0.81619 0.26098 0.0
C1818 C 0.84161 0.84405 0.27509 0.0
C1819 C 0.83214 0.83919 0.22325 0.0
C1820 C 0.84546 0.83374 0.20246 0.0
C1821 C 0.84483 0.84123 0.17468 0.0
C1822 C 0.83008 0.85448 0.16786 0.0
C1823 C 0.81593 0.85982 0.18857 0.0
C1824 C 0.81706 0.8521 0.21664 0.0
H1825 H 0.17721 0.85763 0.288 0.0
H1826 H 0.19098 0.89267 0.21307 0.0
H1827 H 0.16628 0.87449 0.18493 0.0
H1828 H 0.17375 0.81342 0.25029 0.0
H1829 H 0.15447 0.80348 0.27216 0.0
H1830 H 0.17115 0.82097 0.28723 0.0
H1831 H 0.14227 0.84313 0.30164 0.0
H1832 H 0.12547 0.82569 0.28655 0.0
H1833 H 0.12512 0.8507 0.27461 0.0
H1834 H 0.14092 0.85181 0.16488 0.0
H1835 H 0.11964 0.82407 0.15241 0.0
H1836 H 0.12466 0.80202 0.23954 0.0
C1837 C 0.17475 0.86173 0.26582 0.0
C1838 C 0.18572 0.87671 0.2527 0.0
C1839 C 0.18256 0.88131 0.22345 0.0
C1840 C 0.16853 0.87114 0.20742 0.0
C1841 C 0.15806 0.85627 0.22094 0.0
C1842 C 0.16119 0.85142 0.24938 0.0
C1843 C 0.14956 0.83356 0.25801 0.0
C1844 C 0.16304 0.81688 0.26747 0.0
C1845 C 0.13472 0.83858 0.2816 0.0
C1846 C 0.13958 0.82893 0.22984 0.0
C1847 C 0.14434 0.84247 0.20893 0.0
C1848 C 0.13708 0.84114 0.18107 0.0
C1849 C 0.12497 0.82534 0.17423 0.0
C1850 C 0.12058 0.81085 0.19501 0.0
C1851 C 0.12779 0.81287 0.22325 0.0
H1852 H 0.85682 0.80069 0.74029 0.0
H1853 H 0.84817 0.81884 0.65177 0.0
H1854 H 0.82417 0.84304 0.66765 0.0
H1855 H 0.80828 0.80441 0.76278 0.0
H1856 H 0.81351 0.81421 0.79791 0.0
H1857 H 0.83108 0.799 0.78008 0.0
H1858 H 0.85706 0.82625 0.78504 0.0
H1859 H 0.83957 0.84153 0.80302 0.0
H1860 H 0.85197 0.85031 0.77139 0.0
H1861 H 0.79825 0.86202 0.69176 0.0
H1862 H 0.77424 0.87761 0.72406 0.0
H1863 H 0.80141 0.84996 0.79749 0.0
C1864 C 0.85006 0.80996 0.72436 0.0
C1865 C 0.8543 0.8078 0.69481 0.0
C1866 C 0.84518 0.82021 0.67455 0.0
C1867 C 0.8315 0.83402 0.68332 0.0
C1868 C 0.82736 0.83556 0.71249 0.0
C1869 C 0.83659 0.82417 0.73282 0.0
C1870 C 0.82914 0.82868 0.76278 0.0
C1871 C 0.81996 0.81049 0.77669 0.0
C1872 C 0.84541 0.8372 0.78167 0.0
C1873 C 0.81393 0.84393 0.75589 0.0
C1874 C 0.81309 0.84757 0.72671 0.0
C1875 C 0.79904 0.85971 0.71474 0.0
C1876 C 0.78547 0.8684 0.73315 0.0
C1877 C 0.78636 0.86519 0.7631 0.0
C1878 C 0.80086 0.85299 0.77468 0.0
H1879 H 0.17125 0.84804 0.67808 0.0
H1880 H 0.18978 0.88167 0.75224 0.0
H1881 H 0.16524 0.86475 0.78219 0.0
H1882 H 0.11949 0.84476 0.69575 0.0
H1883 H 0.11741 0.81987 0.68357 0.0
H1884 H 0.135 0.83599 0.6673 0.0
H1885 H 0.16244 0.81149 0.67919 0.0
H1886 H 0.14497 0.79531 0.69547 0.0
H1887 H 0.16572 0.80354 0.71581 0.0
H1888 H 0.13949 0.84389 0.80407 0.0
H1889 H 0.11607 0.81839 0.81801 0.0
H1890 H 0.11567 0.79649 0.73035 0.0
C1891 C 0.16987 0.85205 0.70052 0.0
C1892 C 0.18215 0.8663 0.71289 0.0
C1893 C 0.18038 0.87084 0.74244 0.0
C1894 C 0.16647 0.86138 0.75953 0.0
C1895 C 0.15467 0.84727 0.74675 0.0
C1896 C 0.15635 0.84245 0.71801 0.0
C1897 C 0.14301 0.82562 0.7102 0.0
C1898 C 0.12782 0.83194 0.68788 0.0
C1899 C 0.15474 0.80795 0.69955 0.0
C1900 C 0.13369 0.82162 0.73913 0.0
C1901 C 0.14041 0.83452 0.75975 0.0
C1902 C 0.1341 0.83372 0.78814 0.0
C1903 C 0.12076 0.81918 0.7958 0.0
C1904 C 0.11408 0.80541 0.77526 0.0
C1905 C 0.12053 0.8068 0.74649 0.0
H1906 H 0.13905 0.19857 0.71201 0.0
H1907 H 0.08688 0.16298 0.71047 0.0
H1908 H 0.10486 0.13584 0.73329 0.0
H1909 H 0.17107 0.15998 0.69221 0.0
H1910 H 0.19096 0.16838 0.71421 0.0
H1911 H 0.17366 0.1856 0.70022 0.0
H1912 H 0.16648 0.19798 0.7518 0.0
H1913 H 0.18391 0.18095 0.76592 0.0
H1914 H 0.15928 0.18079 0.77916 0.0
H1915 H 0.12834 0.11305 0.75716 0.0
H1916 H 0.15634 0.09521 0.77762 0.0
H1917 H 0.19398 0.14437 0.75859 0.0
C1918 C 0.13138 0.18517 0.71703 0.0
C1919 C 0.11155 0.18285 0.71014 0.0
C1920 C 0.10205 0.16497 0.71601 0.0
C1921 C 0.11213 0.14954 0.72888 0.0
C1922 C 0.13178 0.15215 0.73508 0.0
C1923 C 0.14137 0.16944 0.72912 0.0
C1924 C 0.1628 0.16803 0.73621 0.0
C1925 C 0.17536 0.17065 0.70909 0.0
C1926 C 0.16844 0.18281 0.75967 0.0
C1927 C 0.16373 0.1473 0.74729 0.0
C1928 C 0.14563 0.13849 0.74681 0.0
C1929 C 0.14263 0.11969 0.75732 0.0
C1930 C 0.15855 0.10968 0.76883 0.0
C1931 C 0.17723 0.11834 0.76909 0.0
C1932 C 0.17989 0.13729 0.75794 0.0
H1933 H 0.85574 0.17782 0.73024 0.0
H1934 H 0.86803 0.14938 0.81158 0.0
H1935 H 0.84783 0.1214 0.79718 0.0
H1936 H 0.80729 0.16492 0.72642 0.0
H1937 H 0.80654 0.16053 0.68822 0.0
H1938 H 0.82413 0.17726 0.70286 0.0
H1939 H 0.85202 0.15766 0.67918 0.0
H1940 H 0.83448 0.1409 0.66423 0.0
H1941 H 0.85409 0.13187 0.68613 0.0
H1942 H 0.82245 0.0992 0.77792 0.0
H1943 H 0.79537 0.08273 0.75261 0.0
H1944 H 0.80067 0.12403 0.68244 0.0
C1945 C 0.8546 0.16546 0.74463 0.0
C1946 C 0.86344 0.16581 0.77204 0.0
C1947 C 0.86138 0.14948 0.79048 0.0
C1948 C 0.84996 0.13346 0.78249 0.0
C1949 C 0.84089 0.13381 0.75579 0.0
C1950 C 0.84331 0.14921 0.73689 0.0
C1951 C 0.83088 0.14641 0.71028 0.0
C1952 C 0.81635 0.16328 0.70676 0.0
C1953 C 0.84363 0.14407 0.68336 0.0
C1954 C 0.82061 0.12748 0.71777 0.0
C1955 C 0.82666 0.12044 0.74409 0.0
C1956 C 0.81792 0.10425 0.75693 0.0
C1957 C 0.80253 0.09505 0.74252 0.0
C1958 C 0.79622 0.10194 0.71547 0.0
C1959 C 0.80558 0.11817 0.70278 0.0
H1960 H 0.6919 0.63999 0.72074 0.0
H1961 H 0.65265 0.59207 0.70196 0.0
H1962 H 0.62554 0.61038 0.72436 0.0
H1963 H 0.67123 0.65489 0.78846 0.0
H1964 H 0.67444 0.68055 0.78138 0.0
H1965 H 0.69076 0.66308 0.76554 0.0
H1966 H 0.68283 0.67668 0.71491 0.0
H1967 H 0.66636 0.69409 0.73057 0.0
H1968 H 0.65789 0.67757 0.7031 0.0
H1969 H 0.60319 0.6336 0.75064 0.0
H1970 H 0.58666 0.66101 0.77531 0.0
H1971 H 0.63993 0.69487 0.77183 0.0
C1972 C 0.67765 0.63327 0.72174 0.0
C1973 C 0.6743 0.61453 0.71018 0.0
C1974 C 0.65541 0.60637 0.71102 0.0
C1975 C 0.63999 0.61665 0.72365 0.0
C1976 C 0.64371 0.6352 0.73468 0.0
C1977 C 0.66203 0.64353 0.73351 0.0
C1978 C 0.66199 0.66407 0.74542 0.0
C1979 C 0.6754 0.66573 0.77177 0.0
C1980 C 0.6676 0.67898 0.7221 0.0
C1981 C 0.64084 0.66595 0.75381 0.0
C1982 C 0.63057 0.64907 0.74778 0.0
C1983 C 0.61101 0.64699 0.75509 0.0
C1984 C 0.60176 0.66256 0.76905 0.0
C1985 C 0.61198 0.68005 0.7749 0.0
C1986 C 0.63169 0.68179 0.76695 0.0
H1987 H 0.31085 0.63013 0.7959 0.0
H1988 H 0.28745 0.60073 0.72088 0.0
H1989 H 0.31261 0.61639 0.69053 0.0
H1990 H 0.31925 0.67516 0.76084 0.0
H1991 H 0.34113 0.6809 0.78042 0.0
H1992 H 0.32275 0.66575 0.79664 0.0
H1993 H 0.3483 0.63866 0.80515 0.0
H1994 H 0.36677 0.65372 0.78883 0.0
H1995 H 0.36221 0.62952 0.77519 0.0
H1996 H 0.33958 0.63564 0.66843 0.0
H1997 H 0.36422 0.65996 0.65455 0.0
H1998 H 0.36882 0.67882 0.74347 0.0
C1999 C 0.31126 0.62677 0.77315 0.0
C2000 C 0.29744 0.61405 0.76066 0.0
C2001 C 0.29801 0.61038 0.73076 0.0
C2002 C 0.31229 0.6191 0.71345 0.0
C2003 C 0.32567 0.63165 0.72638 0.0
C2004 C 0.32514 0.63569 0.75548 0.0
C2005 C 0.34008 0.65106 0.76353 0.0
C2006 C 0.33021 0.66929 0.77609 0.0
C2007 C 0.35524 0.64273 0.78441 0.0
C2008 C 0.34896 0.65519 0.73433 0.0
C2009 C 0.34067 0.64354 0.71335 0.0
C2010 C 0.3462 0.64483 0.68465 0.0
C2011 C 0.36025 0.6587 0.67701 0.0
C2012 C 0.36841 0.67136 0.69792 0.0
C2013 C 0.36288 0.66933 0.72703 0.0
H2014 H 0.35749 0.30747 0.74235 0.0
H2015 H 0.3444 0.31873 0.83215 0.0
H2016 H 0.31882 0.34185 0.81779 0.0
H2017 H 0.34994 0.35806 0.71829 0.0
H2018 H 0.33954 0.35062 0.68444 0.0
H2019 H 0.35736 0.33546 0.70181 0.0
H2020 H 0.33332 0.30628 0.7004 0.0
H2021 H 0.3154 0.32136 0.6832 0.0
H2022 H 0.30953 0.30889 0.7162 0.0
H2023 H 0.2924 0.36084 0.79384 0.0
H2024 H 0.26918 0.37748 0.76147 0.0
H2025 H 0.3012 0.35625 0.68749 0.0
C2026 C 0.34937 0.31498 0.75893 0.0
C2027 C 0.35284 0.31127 0.78832 0.0
C2028 C 0.342 0.3214 0.80948 0.0
C2029 C 0.32741 0.33453 0.80156 0.0
C2030 C 0.32413 0.33765 0.77242 0.0
C2031 C 0.33501 0.32846 0.75141 0.0
C2032 C 0.32848 0.33443 0.72162 0.0
C2033 C 0.34481 0.34529 0.7056 0.0
C2034 C 0.32125 0.31668 0.70435 0.0
C2035 C 0.31194 0.34801 0.7292 0.0
C2036 C 0.30957 0.34955 0.75862 0.0
C2037 C 0.29432 0.36009 0.77077 0.0
C2038 C 0.2812 0.36939 0.7523 0.0
C2039 C 0.28366 0.36832 0.72217 0.0
C2040 C 0.29929 0.35762 0.71052 0.0
H2041 H 0.60799 0.30007 0.73502 0.0
H2042 H 0.61209 0.31961 0.64645 0.0
H2043 H 0.63275 0.34715 0.66167 0.0
H2044 H 0.60826 0.34981 0.76828 0.0
H2045 H 0.62273 0.34171 0.79825 0.0
H2046 H 0.60608 0.32506 0.78099 0.0
H2047 H 0.63431 0.30079 0.77233 0.0
H2048 H 0.65102 0.31736 0.78938 0.0
H2049 H 0.65571 0.30892 0.75333 0.0
H2050 H 0.65675 0.36933 0.68503 0.0
H2051 H 0.6811 0.38581 0.71575 0.0
H2052 H 0.66041 0.35301 0.78945 0.0
C2053 C 0.61285 0.31042 0.71895 0.0
C2054 C 0.60845 0.3077 0.68957 0.0
C2055 C 0.61526 0.32142 0.6691 0.0
C2056 C 0.62697 0.33715 0.67753 0.0
C2057 C 0.63151 0.33912 0.70655 0.0
C2058 C 0.62447 0.32629 0.72703 0.0
C2059 C 0.63266 0.33089 0.75648 0.0
C2060 C 0.61646 0.33725 0.77723 0.0
C2061 C 0.6441 0.31346 0.76857 0.0
C2062 C 0.64598 0.34778 0.74912 0.0
C2063 C 0.645 0.35239 0.72024 0.0
C2064 C 0.65732 0.36621 0.70782 0.0
C2065 C 0.67114 0.37542 0.72536 0.0
C2066 C 0.6724 0.37084 0.75494 0.0
C2067 C 0.65941 0.35712 0.76702 0.0
H2068 H 0.36109 0.31869 0.18506 0.0
H2069 H 0.39449 0.30534 0.26147 0.0
H2070 H 0.37785 0.33196 0.28757 0.0
H2071 H 0.35593 0.37249 0.19642 0.0
H2072 H 0.33113 0.37229 0.18398 0.0
H2073 H 0.34834 0.35505 0.16962 0.0
H2074 H 0.32552 0.32657 0.18411 0.0
H2075 H 0.30831 0.34366 0.19858 0.0
H2076 H 0.31767 0.32441 0.22098 0.0
H2077 H 0.35559 0.3573 0.30658 0.0
H2078 H 0.32748 0.37777 0.31891 0.0
H2079 H 0.30654 0.37316 0.23111 0.0
C2080 C 0.36534 0.32184 0.20698 0.0
C2081 C 0.37933 0.31032 0.2212 0.0
C2082 C 0.38399 0.31426 0.25022 0.0
C2083 C 0.37467 0.32937 0.26511 0.0
C2084 C 0.36057 0.34018 0.25073 0.0
C2085 C 0.3558 0.33654 0.22236 0.0
C2086 C 0.33826 0.34835 0.21318 0.0
C2087 C 0.34375 0.36291 0.18939 0.0
C2088 C 0.32145 0.33494 0.20367 0.0
C2089 C 0.33357 0.35877 0.24106 0.0
C2090 C 0.34692 0.35419 0.26219 0.0
C2091 C 0.34515 0.36116 0.29016 0.0
C2092 C 0.32909 0.37276 0.29694 0.0
C2093 C 0.31478 0.37705 0.27598 0.0
C2094 C 0.31731 0.37028 0.24752 0.0
H2095 H 0.6063 0.28934 0.22916 0.0
H2096 H 0.60677 0.30849 0.31814 0.0
H2097 H 0.62651 0.3371 0.30457 0.0
H2098 H 0.65373 0.30008 0.21415 0.0
H2099 H 0.65002 0.30865 0.17794 0.0
H2100 H 0.63328 0.29144 0.19349 0.0
H2101 H 0.60458 0.31483 0.18334 0.0
H2102 H 0.62123 0.33208 0.1674 0.0
H2103 H 0.60557 0.33957 0.19645 0.0
H2104 H 0.65075 0.36009 0.28315 0.0
H2105 H 0.67541 0.37763 0.2542 0.0
H2106 H 0.65804 0.34465 0.17883 0.0
C2107 C 0.61005 0.29987 0.24563 0.0
C2108 C 0.60501 0.29668 0.27469 0.0
C2109 C 0.61042 0.31066 0.2957 0.0
C2110 C 0.62163 0.32697 0.28822 0.0
C2111 C 0.62705 0.32928 0.25957 0.0
C2112 C 0.62114 0.31633 0.23848 0.0
C2113 C 0.63014 0.32135 0.20969 0.0
C2114 C 0.64253 0.30437 0.19817 0.0
C2115 C 0.61444 0.32732 0.18794 0.0
C2116 C 0.64267 0.33861 0.21816 0.0
C2117 C 0.6406 0.34303 0.24699 0.0
C2118 C 0.65213 0.35713 0.26038 0.0
C2119 C 0.66615 0.36692 0.24386 0.0
C2120 C 0.66839 0.36265 0.21429 0.0
C2121 C 0.65629 0.34852 0.20126 0.0
H2122 H 0.66793 0.61921 0.26329 0.0
H2123 H 0.72382 0.64855 0.26635 0.0
H2124 H 0.7086 0.67889 0.24873 0.0
H2125 H 0.65267 0.64179 0.19671 0.0
H2126 H 0.62748 0.64317 0.20723 0.0
H2127 H 0.64267 0.62411 0.22135 0.0
H2128 H 0.63379 0.63478 0.2732 0.0
H2129 H 0.61876 0.65404 0.25922 0.0
H2130 H 0.63803 0.65967 0.28414 0.0
H2131 H 0.68706 0.70633 0.23319 0.0
H2132 H 0.66167 0.7278 0.2131 0.0
H2133 H 0.62043 0.67982 0.21563 0.0
C2134 C 0.67689 0.63205 0.26013 0.0
C2135 C 0.69696 0.63169 0.26615 0.0
C2136 C 0.70841 0.6486 0.2616 0.0
C2137 C 0.69988 0.6659 0.25185 0.0
C2138 C 0.67999 0.66587 0.2463 0.0
C2139 C 0.66871 0.6493 0.24965 0.0
C2140 C 0.64792 0.65289 0.24041 0.0
C2141 C 0.64237 0.63971 0.21491 0.0
C2142 C 0.6338 0.65018 0.26576 0.0
C2143 C 0.64929 0.67408 0.23149 0.0
C2144 C 0.66782 0.6814 0.23562 0.0
C2145 C 0.67253 0.70075 0.22963 0.0
C2146 C 0.65801 0.71285 0.21843 0.0
C2147 C 0.63919 0.70538 0.21281 0.0
C2148 C 0.63476 0.68582 0.21966 0.0
H2149 H 0.3228 0.61588 0.21874 0.0
H2150 H 0.27351 0.65491 0.21173 0.0
H2151 H 0.29454 0.68282 0.2244 0.0
H2152 H 0.34362 0.64023 0.28148 0.0
H2153 H 0.36837 0.63606 0.27033 0.0
H2154 H 0.34952 0.61921 0.25989 0.0
H2155 H 0.35912 0.62395 0.20645 0.0
H2156 H 0.37779 0.64107 0.2167 0.0
H2157 H 0.35933 0.64815 0.19132 0.0
H2158 H 0.32101 0.70664 0.2343 0.0
H2159 H 0.35023 0.72457 0.25022 0.0
H2160 H 0.38194 0.67011 0.25612 0.0
C2161 C 0.31649 0.6303 0.22019 0.0
C2162 C 0.29659 0.63331 0.21435 0.0
C2163 C 0.2887 0.65231 0.21646 0.0
C2164 C 0.30055 0.66826 0.22335 0.0
C2165 C 0.32017 0.6649 0.22859 0.0
C2166 C 0.32802 0.64637 0.22788 0.0
C2167 C 0.34935 0.64677 0.23608 0.0
C2168 C 0.35292 0.63487 0.26358 0.0
C2169 C 0.36215 0.63956 0.21115 0.0
C2170 C 0.35222 0.66843 0.24131 0.0
C2171 C 0.33528 0.67862 0.23617 0.0
C2172 C 0.33434 0.69884 0.23862 0.0
C2173 C 0.35105 0.7089 0.24739 0.0
C2174 C 0.36828 0.69868 0.25418 0.0
C2175 C 0.36892 0.67821 0.25091 0.0
loop_
_geom_bond_atom_site_label_1
_geom_bond_atom_site_label_2
_geom_bond_distance
_geom_bond_site_symmetry_2
_ccdc_geom_bond_type
C0 O1 1.306 . S
C0 O3 1.160 . S
O1 C0 1.306 . S
O1 Cd2 2.228 . S
Cd2 O1 2.228 . S
Cd2 O6 2.273 . S
Cd2 O10 2.277 . S
O3 C0 1.160 . S
O3 Cd4 2.203 . S
Cd4 O3 2.203 . S
Cd4 O6 2.411 . S
Cd4 O7 2.333 . S
Cd4 O8 2.352 . S
Cd4 O12 2.277 . S
Cd4 O13 2.356 . S
C5 O10 1.209 . S
C5 O12 1.226 . S
O6 Cd2 2.273 . S
O6 Cd4 2.411 . S
O6 C9 1.320 . S
O7 Cd4 2.333 . S
O7 C9 1.214 . S
O8 Cd4 2.352 . S
O8 C11 1.258 . S
C9 O6 1.320 . S
C9 O7 1.214 . S
O10 Cd2 2.277 . S
O10 C5 1.209 . S
C11 O8 1.258 . S
C11 O13 1.282 . S
O12 Cd4 2.277 . S
O12 C5 1.226 . S
O13 Cd4 2.356 . S
O13 C11 1.282 . S
C14 O15 1.306 . S
C14 O17 1.160 . S
O15 C14 1.306 . S
O15 Cd16 2.228 . S
Cd16 O15 2.228 . S
Cd16 O20 2.273 . S
Cd16 O24 2.277 . S
O17 C14 1.160 . S
O17 Cd18 2.203 . S
Cd18 O17 2.203 . S
Cd18 O20 2.411 . S
Cd18 O21 2.333 . S
Cd18 O22 2.352 . S
Cd18 O26 2.277 . S
Cd18 O27 2.356 . S
C19 O24 1.209 . S
C19 O26 1.226 . S
O20 Cd16 2.273 . S
O20 Cd18 2.411 . S
O20 C23 1.320 . S
O21 Cd18 2.333 . S
O21 C23 1.214 . S
O22 Cd18 2.352 . S
O22 C25 1.258 . S
C23 O20 1.320 . S
C23 O21 1.214 . S
O24 Cd16 2.277 . S
O24 C19 1.209 . S
C25 O22 1.258 . S
C25 O27 1.282 . S
O26 Cd18 2.277 . S
O26 C19 1.226 . S
O27 Cd18 2.356 . S
O27 C25 1.282 . S
C28 O29 1.306 . S
C28 O31 1.160 . S
O29 C28 1.306 . S
O29 Cd30 2.228 . S
Cd30 O29 2.228 . S
Cd30 O34 2.273 . S
Cd30 O38 2.277 . S
O31 C28 1.160 . S
O31 Cd32 2.203 . S
Cd32 O31 2.203 . S
Cd32 O34 2.411 . S
Cd32 O35 2.333 . S
Cd32 O36 2.352 . S
Cd32 O40 2.277 . S
Cd32 O41 2.356 . S
C33 O38 1.209 . S
C33 O40 1.226 . S
O34 Cd30 2.273 . S
O34 Cd32 2.411 . S
O34 C37 1.320 . S
O35 Cd32 2.333 . S
O35 C37 1.214 . S
O36 Cd32 2.352 . S
O36 C39 1.258 . S
C37 O34 1.320 . S
C37 O35 1.214 . S
O38 Cd30 2.277 . S
O38 C33 1.209 . S
C39 O36 1.258 . S
C39 O41 1.282 . S
O40 Cd32 2.277 . S
O40 C33 1.226 . S
O41 Cd32 2.356 . S
O41 C39 1.282 . S
C42 O43 1.306 . S
C42 O45 1.160 . S
O43 C42 1.306 . S
O43 Cd44 2.228 . S
Cd44 O43 2.228 . S
Cd44 O48 2.273 . S
Cd44 O52 2.277 . S
O45 C42 1.160 . S
O45 Cd46 2.203 . S
Cd46 O45 2.203 . S
Cd46 O48 2.411 . S
Cd46 O49 2.333 . S
Cd46 O50 2.352 . S
Cd46 O54 2.277 . S
Cd46 O55 2.356 . S
C47 O52 1.209 . S
C47 O54 1.226 . S
O48 Cd44 2.273 . S
O48 Cd46 2.411 . S
O48 C51 1.320 . S
O49 Cd46 2.333 . S
O49 C51 1.214 . S
O50 Cd46 2.352 . S
O50 C53 1.258 . S
C51 O48 1.320 . S
C51 O49 1.214 . S
O52 Cd44 2.277 . S
O52 C47 1.209 . S
C53 O50 1.258 . S
C53 O55 1.282 . S
O54 Cd46 2.277 . S
O54 C47 1.226 . S
O55 Cd46 2.356 . S
O55 C53 1.282 . S
C56 O57 1.306 . S
C56 O59 1.160 . S
O57 C56 1.306 . S
O57 Cd58 2.228 . S
Cd58 O57 2.228 . S
Cd58 O62 2.273 . S
Cd58 O66 2.277 . S
O59 C56 1.160 . S
O59 Cd60 2.203 . S
Cd60 O59 2.203 . S
Cd60 O62 2.411 . S
Cd60 O63 2.333 . S
Cd60 O64 2.352 . S
Cd60 O68 2.277 . S
Cd60 O69 2.356 . S
C61 O66 1.209 . S
C61 O68 1.226 . S
O62 Cd58 2.273 . S
O62 Cd60 2.411 . S
O62 C65 1.320 . S
O63 Cd60 2.333 . S
O63 C65 1.214 . S
O64 Cd60 2.352 . S
O64 C67 1.258 . S
C65 O62 1.320 . S
C65 O63 1.214 . S
O66 Cd58 2.277 . S
O66 C61 1.209 . S
C67 O64 1.258 . S
C67 O69 1.282 . S
O68 Cd60 2.277 . S
O68 C61 1.226 . S
O69 Cd60 2.356 . S
O69 C67 1.282 . S
C70 O71 1.306 . S
C70 O73 1.160 . S
O71 C70 1.306 . S
O71 Cd72 2.228 . S
Cd72 O71 2.228 . S
Cd72 O76 2.273 . S
Cd72 O80 2.277 . S
O73 C70 1.160 . S
O73 Cd74 2.203 . S
Cd74 O73 2.203 . S
Cd74 O76 2.411 . S
Cd74 O77 2.333 . S
Cd74 O78 2.352 . S
Cd74 O82 2.277 . S
Cd74 O83 2.356 . S
C75 O80 1.209 . S
C75 O82 1.226 . S
O76 Cd72 2.273 . S
O76 Cd74 2.411 . S
O76 C79 1.320 . S
O77 Cd74 2.333 . S
O77 C79 1.214 . S
O78 Cd74 2.352 . S
O78 C81 1.258 . S
C79 O76 1.320 . S
C79 O77 1.214 . S
O80 Cd72 2.277 . S
O80 C75 1.209 . S
C81 O78 1.258 . S
C81 O83 1.282 . S
O82 Cd74 2.277 . S
O82 C75 1.226 . S
O83 Cd74 2.356 . S
O83 C81 1.282 . S
C84 O85 1.306 . S
C84 O87 1.160 . S
O85 C84 1.306 . S
O85 Cd86 2.228 . S
Cd86 O85 2.228 . S
Cd86 O90 2.273 . S
Cd86 O94 2.277 . S
O87 C84 1.160 . S
O87 Cd88 2.203 . S
Cd88 O87 2.203 . S
Cd88 O90 2.411 . S
Cd88 O91 2.333 . S
Cd88 O92 2.352 . S
Cd88 O96 2.277 . S
Cd88 O97 2.356 . S
C89 O94 1.209 . S
C89 O96 1.226 . S
O90 Cd86 2.273 . S
O90 Cd88 2.411 . S
O90 C93 1.320 . S
O91 Cd88 2.333 . S
O91 C93 1.214 . S
O92 Cd88 2.352 . S
O92 C95 1.258 . S
C93 O90 1.320 . S
C93 O91 1.214 . S
O94 Cd86 2.277 . S
O94 C89 1.209 . S
C95 O92 1.258 . S
C95 O97 1.282 . S
O96 Cd88 2.277 . S
O96 C89 1.226 . S
O97 Cd88 2.356 . S
O97 C95 1.282 . S
C98 O99 1.306 . S
C98 O101 1.160 . S
O99 C98 1.306 . S
O99 Cd100 2.228 . S
Cd100 O99 2.228 . S
Cd100 O104 2.273 . S
Cd100 O108 2.277 . S
O101 C98 1.160 . S
O101 Cd102 2.203 . S
Cd102 O101 2.203 . S
Cd102 O104 2.411 . S
Cd102 O105 2.333 . S
Cd102 O106 2.352 . S
Cd102 O110 2.277 . S
Cd102 O111 2.356 . S
C103 O108 1.209 . S
C103 O110 1.226 . S
O104 Cd100 2.273 . S
O104 Cd102 2.411 . S
O104 C107 1.320 . S
O105 Cd102 2.333 . S
O105 C107 1.214 . S
O106 Cd102 2.352 . S
O106 C109 1.258 . S
C107 O104 1.320 . S
C107 O105 1.214 . S
O108 Cd100 2.277 . S
O108 C103 1.209 . S
C109 O106 1.258 . S
C109 O111 1.282 . S
O110 Cd102 2.277 . S
O110 C103 1.226 . S
O111 Cd102 2.356 . S
O111 C109 1.282 . S
C112 O113 1.306 . S
C112 O115 1.160 . S
O113 C112 1.306 . S
O113 Cd114 2.228 . S
Cd114 O113 2.228 . S
Cd114 O118 2.273 . S
Cd114 O122 2.277 . S
O115 C112 1.160 . S
O115 Cd116 2.203 . S
Cd116 O115 2.203 . S
Cd116 O118 2.411 . S
Cd116 O119 2.333 . S
Cd116 O120 2.352 . S
Cd116 O124 2.277 . S
Cd116 O125 2.356 . S
C117 O122 1.209 . S
C117 O124 1.226 . S
O118 Cd114 2.273 . S
O118 Cd116 2.411 . S
O118 C121 1.320 . S
O119 Cd116 2.333 . S
O119 C121 1.214 . S
O120 Cd116 2.352 . S
O120 C123 1.258 . S
C121 O118 1.320 . S
C121 O119 1.214 . S
O122 Cd114 2.277 . S
O122 C117 1.209 . S
C123 O120 1.258 . S
C123 O125 1.282 . S
O124 Cd116 2.277 . S
O124 C117 1.226 . S
O125 Cd116 2.356 . S
O125 C123 1.282 . S
C126 O127 1.306 . S
C126 O129 1.160 . S
O127 C126 1.306 . S
O127 Cd128 2.228 . S
Cd128 O127 2.228 . S
Cd128 O132 2.273 . S
Cd128 O136 2.277 . S
O129 C126 1.160 . S
O129 Cd130 2.203 . S
Cd130 O129 2.203 . S
Cd130 O132 2.411 . S
Cd130 O133 2.333 . S
Cd130 O134 2.352 . S
Cd130 O138 2.277 . S
Cd130 O139 2.356 . S
C131 O136 1.209 . S
C131 O138 1.226 . S
O132 Cd128 2.273 . S
O132 Cd130 2.411 . S
O132 C135 1.320 . S
O133 Cd130 2.333 . S
O133 C135 1.214 . S
O134 Cd130 2.352 . S
O134 C137 1.258 . S
C135 O132 1.320 . S
C135 O133 1.214 . S
O136 Cd128 2.277 . S
O136 C131 1.209 . S
C137 O134 1.258 . S
C137 O139 1.282 . S
O138 Cd130 2.277 . S
O138 C131 1.226 . S
O139 Cd130 2.356 . S
O139 C137 1.282 . S
C140 O141 1.306 . S
C140 O143 1.160 . S
O141 C140 1.306 . S
O141 Cd142 2.228 . S
Cd142 O141 2.228 . S
Cd142 O146 2.273 . S
Cd142 O150 2.277 . S
O143 C140 1.160 . S
O143 Cd144 2.203 . S
Cd144 O143 2.203 . S
Cd144 O146 2.411 . S
Cd144 O147 2.333 . S
Cd144 O148 2.352 . S
Cd144 O152 2.277 . S
Cd144 O153 2.356 . S
C145 O150 1.209 . S
C145 O152 1.226 . S
O146 Cd142 2.273 . S
O146 Cd144 2.411 . S
O146 C149 1.320 . S
O147 Cd144 2.333 . S
O147 C149 1.214 . S
O148 Cd144 2.352 . S
O148 C151 1.258 . S
C149 O146 1.320 . S
C149 O147 1.214 . S
O150 Cd142 2.277 . S
O150 C145 1.209 . S
C151 O148 1.258 . S
C151 O153 1.282 . S
O152 Cd144 2.277 . S
O152 C145 1.226 . S
O153 Cd144 2.356 . S
O153 C151 1.282 . S
C154 O155 1.306 . S
C154 O157 1.160 . S
O155 C154 1.306 . S
O155 Cd156 2.228 . S
Cd156 O155 2.228 . S
Cd156 O160 2.273 . S
Cd156 O164 2.277 . S
O157 C154 1.160 . S
O157 Cd158 2.203 . S
Cd158 O157 2.203 . S
Cd158 O160 2.411 . S
Cd158 O161 2.333 . S
Cd158 O162 2.352 . S
Cd158 O166 2.277 . S
Cd158 O167 2.356 . S
C159 O164 1.209 . S
C159 O166 1.226 . S
O160 Cd156 2.273 . S
O160 Cd158 2.411 . S
O160 C163 1.320 . S
O161 Cd158 2.333 . S
O161 C163 1.214 . S
O162 Cd158 2.352 . S
O162 C165 1.258 . S
C163 O160 1.320 . S
C163 O161 1.214 . S
O164 Cd156 2.277 . S
O164 C159 1.209 . S
C165 O162 1.258 . S
C165 O167 1.282 . S
O166 Cd158 2.277 . S
O166 C159 1.226 . S
O167 Cd158 2.356 . S
O167 C165 1.282 . S
C168 O169 1.306 . S
C168 O171 1.160 . S
O169 C168 1.306 . S
O169 Cd170 2.228 . S
Cd170 O169 2.228 . S
Cd170 O174 2.273 . S
Cd170 O178 2.277 . S
O171 C168 1.160 . S
O171 Cd172 2.203 . S
Cd172 O171 2.203 . S
Cd172 O174 2.411 . S
Cd172 O175 2.333 . S
Cd172 O176 2.352 . S
Cd172 O180 2.277 . S
Cd172 O181 2.356 . S
C173 O178 1.209 . S
C173 O180 1.226 . S
O174 Cd170 2.273 . S
O174 Cd172 2.411 . S
O174 C177 1.320 . S
O175 Cd172 2.333 . S
O175 C177 1.214 . S
O176 Cd172 2.352 . S
O176 C179 1.258 . S
C177 O174 1.320 . S
C177 O175 1.214 . S
O178 Cd170 2.277 . S
O178 C173 1.209 . S
C179 O176 1.258 . S
C179 O181 1.282 . S
O180 Cd172 2.277 . S
O180 C173 1.226 . S
O181 Cd172 2.356 . S
O181 C179 1.282 . S
C182 O183 1.306 . S
C182 O185 1.160 . S
O183 C182 1.306 . S
O183 Cd184 2.228 . S
Cd184 O183 2.228 . S
Cd184 O188 2.273 . S
Cd184 O192 2.277 . S
O185 C182 1.160 . S
O185 Cd186 2.203 . S
Cd186 O185 2.203 . S
Cd186 O188 2.411 . S
Cd186 O189 2.333 . S
Cd186 O190 2.352 . S
Cd186 O194 2.277 . S
Cd186 O195 2.356 . S
C187 O192 1.209 . S
C187 O194 1.226 . S
O188 Cd184 2.273 . S
O188 Cd186 2.411 . S
O188 C191 1.320 . S
O189 Cd186 2.333 . S
O189 C191 1.214 . S
O190 Cd186 2.352 . S
O190 C193 1.258 . S
C191 O188 1.320 . S
C191 O189 1.214 . S
O192 Cd184 2.277 . S
O192 C187 1.209 . S
C193 O190 1.258 . S
C193 O195 1.282 . S
O194 Cd186 2.277 . S
O194 C187 1.226 . S
O195 Cd186 2.356 . S
O195 C193 1.282 . S
C196 O197 1.306 . S
C196 O199 1.160 . S
O197 C196 1.306 . S
O197 Cd198 2.228 . S
Cd198 O197 2.228 . S
Cd198 O202 2.273 . S
Cd198 O206 2.277 . S
O199 C196 1.160 . S
O199 Cd200 2.203 . S
Cd200 O199 2.203 . S
Cd200 O202 2.411 . S
Cd200 O203 2.333 . S
Cd200 O204 2.352 . S
Cd200 O208 2.277 . S
Cd200 O209 2.356 . S
C201 O206 1.209 . S
C201 O208 1.226 . S
O202 Cd198 2.273 . S
O202 Cd200 2.411 . S
O202 C205 1.320 . S
O203 Cd200 2.333 . S
O203 C205 1.214 . S
O204 Cd200 2.352 . S
O204 C207 1.258 . S
C205 O202 1.320 . S
C205 O203 1.214 . S
O206 Cd198 2.277 . S
O206 C201 1.209 . S
C207 O204 1.258 . S
C207 O209 1.282 . S
O208 Cd200 2.277 . S
O208 C201 1.226 . S
O209 Cd200 2.356 . S
O209 C207 1.282 . S
C210 O211 1.306 . S
C210 O213 1.160 . S
O211 C210 1.306 . S
O211 Cd212 2.228 . S
Cd212 O211 2.228 . S
Cd212 O216 2.273 . S
Cd212 O220 2.277 . S
O213 C210 1.160 . S
O213 Cd214 2.203 . S
Cd214 O213 2.203 . S
Cd214 O216 2.411 . S
Cd214 O217 2.333 . S
Cd214 O218 2.352 . S
Cd214 O222 2.277 . S
Cd214 O223 2.356 . S
C215 O220 1.209 . S
C215 O222 1.226 . S
O216 Cd212 2.273 . S
O216 Cd214 2.411 . S
O216 C219 1.320 . S
O217 Cd214 2.333 . S
O217 C219 1.214 . S
O218 Cd214 2.352 . S
O218 C221 1.258 . S
C219 O216 1.320 . S
C219 O217 1.214 . S
O220 Cd212 2.277 . S
O220 C215 1.209 . S
C221 O218 1.258 . S
C221 O223 1.282 . S
O222 Cd214 2.277 . S
O222 C215 1.226 . S
O223 Cd214 2.356 . S
O223 C221 1.282 . S
C224 O225 1.306 . S
C224 O227 1.160 . S
O225 C224 1.306 . S
O225 Cd226 2.228 . S
Cd226 O225 2.228 . S
Cd226 O230 2.273 . S
Cd226 O234 2.277 . S
O227 C224 1.160 . S
O227 Cd228 2.203 . S
Cd228 O227 2.203 . S
Cd228 O230 2.411 . S
Cd228 O231 2.333 . S
Cd228 O232 2.352 . S
Cd228 O236 2.277 . S
Cd228 O237 2.356 . S
C229 O234 1.209 . S
C229 O236 1.226 . S
O230 Cd226 2.273 . S
O230 Cd228 2.411 . S
O230 C233 1.320 . S
O231 Cd228 2.333 . S
O231 C233 1.214 . S
O232 Cd228 2.352 . S
O232 C235 1.258 . S
C233 O230 1.320 . S
C233 O231 1.214 . S
O234 Cd226 2.277 . S
O234 C229 1.209 . S
C235 O232 1.258 . S
C235 O237 1.282 . S
O236 Cd228 2.277 . S
O236 C229 1.226 . S
O237 Cd228 2.356 . S
O237 C235 1.282 . S
C238 O239 1.306 . S
C238 O241 1.160 . S
O239 C238 1.306 . S
O239 Cd240 2.228 . S
Cd240 O239 2.228 . S
Cd240 O244 2.273 . S
Cd240 O248 2.277 . S
O241 C238 1.160 . S
O241 Cd242 2.203 . S
Cd242 O241 2.203 . S
Cd242 O244 2.411 . S
Cd242 O245 2.333 . S
Cd242 O246 2.352 . S
Cd242 O250 2.277 . S
Cd242 O251 2.356 . S
C243 O248 1.209 . S
C243 O250 1.226 . S
O244 Cd240 2.273 . S
O244 Cd242 2.411 . S
O244 C247 1.320 . S
O245 Cd242 2.333 . S
O245 C247 1.214 . S
O246 Cd242 2.352 . S
O246 C249 1.258 . S
C247 O244 1.320 . S
C247 O245 1.214 . S
O248 Cd240 2.277 . S
O248 C243 1.209 . S
C249 O246 1.258 . S
C249 O251 1.282 . S
O250 Cd242 2.277 . S
O250 C243 1.226 . S
O251 Cd242 2.356 . S
O251 C249 1.282 . S
C252 O253 1.306 . S
C252 O255 1.160 . S
O253 C252 1.306 . S
O253 Cd254 2.228 . S
Cd254 O253 2.228 . S
Cd254 O258 2.273 . S
Cd254 O262 2.277 . S
O255 C252 1.160 . S
O255 Cd256 2.203 . S
Cd256 O255 2.203 . S
Cd256 O258 2.411 . S
Cd256 O259 2.333 . S
Cd256 O260 2.352 . S
Cd256 O264 2.277 . S
Cd256 O265 2.356 . S
C257 O262 1.209 . S
C257 O264 1.226 . S
O258 Cd254 2.273 . S
O258 Cd256 2.411 . S
O258 C261 1.320 . S
O259 Cd256 2.333 . S
O259 C261 1.214 . S
O260 Cd256 2.352 . S
O260 C263 1.258 . S
C261 O258 1.320 . S
C261 O259 1.214 . S
O262 Cd254 2.277 . S
O262 C257 1.209 . S
C263 O260 1.258 . S
C263 O265 1.282 . S
O264 Cd256 2.277 . S
O264 C257 1.226 . S
O265 Cd256 2.356 . S
O265 C263 1.282 . S
C266 O267 1.306 . S
C266 O269 1.160 . S
O267 C266 1.306 . S
O267 Cd268 2.228 . S
Cd268 O267 2.228 . S
Cd268 O272 2.273 . S
Cd268 O276 2.277 . S
O269 C266 1.160 . S
O269 Cd270 2.203 . S
Cd270 O269 2.203 . S
Cd270 O272 2.411 . S
Cd270 O273 2.333 . S
Cd270 O274 2.352 . S
Cd270 O278 2.277 . S
Cd270 O279 2.356 . S
C271 O276 1.209 . S
C271 O278 1.226 . S
O272 Cd268 2.273 . S
O272 Cd270 2.411 . S
O272 C275 1.320 . S
O273 Cd270 2.333 . S
O273 C275 1.214 . S
O274 Cd270 2.352 . S
O274 C277 1.258 . S
C275 O272 1.320 . S
C275 O273 1.214 . S
O276 Cd268 2.277 . S
O276 C271 1.209 . S
C277 O274 1.258 . S
C277 O279 1.282 . S
O278 Cd270 2.277 . S
O278 C271 1.226 . S
O279 Cd270 2.356 . S
O279 C277 1.282 . S
C280 O281 1.306 . S
C280 O283 1.160 . S
O281 C280 1.306 . S
O281 Cd282 2.228 . S
Cd282 O281 2.228 . S
Cd282 O286 2.273 . S
Cd282 O290 2.277 . S
O283 C280 1.160 . S
O283 Cd284 2.203 . S
Cd284 O283 2.203 . S
Cd284 O286 2.411 . S
Cd284 O287 2.333 . S
Cd284 O288 2.352 . S
Cd284 O292 2.277 . S
Cd284 O293 2.356 . S
C285 O290 1.209 . S
C285 O292 1.226 . S
O286 Cd282 2.273 . S
O286 Cd284 2.411 . S
O286 C289 1.320 . S
O287 Cd284 2.333 . S
O287 C289 1.214 . S
O288 Cd284 2.352 . S
O288 C291 1.258 . S
C289 O286 1.320 . S
C289 O287 1.214 . S
O290 Cd282 2.277 . S
O290 C285 1.209 . S
C291 O288 1.258 . S
C291 O293 1.282 . S
O292 Cd284 2.277 . S
O292 C285 1.226 . S
O293 Cd284 2.356 . S
O293 C291 1.282 . S
C294 O295 1.306 . S
C294 O297 1.160 . S
O295 C294 1.306 . S
O295 Cd296 2.228 . S
Cd296 O295 2.228 . S
Cd296 O300 2.273 . S
Cd296 O304 2.277 . S
O297 C294 1.160 . S
O297 Cd298 2.203 . S
Cd298 O297 2.203 . S
Cd298 O300 2.411 . S
Cd298 O301 2.333 . S
Cd298 O302 2.352 . S
Cd298 O306 2.277 . S
Cd298 O307 2.356 . S
C299 O304 1.209 . S
C299 O306 1.226 . S
O300 Cd296 2.273 . S
O300 Cd298 2.411 . S
O300 C303 1.320 . S
O301 Cd298 2.333 . S
O301 C303 1.214 . S
O302 Cd298 2.352 . S
O302 C305 1.258 . S
C303 O300 1.320 . S
C303 O301 1.214 . S
O304 Cd296 2.277 . S
O304 C299 1.209 . S
C305 O302 1.258 . S
C305 O307 1.282 . S
O306 Cd298 2.277 . S
O306 C299 1.226 . S
O307 Cd298 2.356 . S
O307 C305 1.282 . S
C308 O309 1.306 . S
C308 O311 1.160 . S
O309 C308 1.306 . S
O309 Cd310 2.228 . S
Cd310 O309 2.228 . S
Cd310 O314 2.273 . S
Cd310 O318 2.277 . S
O311 C308 1.160 . S
O311 Cd312 2.203 . S
Cd312 O311 2.203 . S
Cd312 O314 2.411 . S
Cd312 O315 2.333 . S
Cd312 O316 2.352 . S
Cd312 O320 2.277 . S
Cd312 O321 2.356 . S
C313 O318 1.209 . S
C313 O320 1.226 . S
O314 Cd310 2.273 . S
O314 Cd312 2.411 . S
O314 C317 1.320 . S
O315 Cd312 2.333 . S
O315 C317 1.214 . S
O316 Cd312 2.352 . S
O316 C319 1.258 . S
C317 O314 1.320 . S
C317 O315 1.214 . S
O318 Cd310 2.277 . S
O318 C313 1.209 . S
C319 O316 1.258 . S
C319 O321 1.282 . S
O320 Cd312 2.277 . S
O320 C313 1.226 . S
O321 Cd312 2.356 . S
O321 C319 1.282 . S
C322 O323 1.306 . S
C322 O325 1.160 . S
O323 C322 1.306 . S
O323 Cd324 2.228 . S
Cd324 O323 2.228 . S
Cd324 O328 2.273 . S
Cd324 O332 2.277 . S
O325 C322 1.160 . S
O325 Cd326 2.203 . S
Cd326 O325 2.203 . S
Cd326 O328 2.411 . S
Cd326 O329 2.333 . S
Cd326 O330 2.352 . S
Cd326 O334 2.277 . S
Cd326 O335 2.356 . S
C327 O332 1.209 . S
C327 O334 1.226 . S
O328 Cd324 2.273 . S
O328 Cd326 2.411 . S
O328 C331 1.320 . S
O329 Cd326 2.333 . S
O329 C331 1.214 . S
O330 Cd326 2.352 . S
O330 C333 1.258 . S
C331 O328 1.320 . S
C331 O329 1.214 . S
O332 Cd324 2.277 . S
O332 C327 1.209 . S
C333 O330 1.258 . S
C333 O335 1.282 . S
O334 Cd326 2.277 . S
O334 C327 1.226 . S
O335 Cd326 2.356 . S
O335 C333 1.282 . S
C336 O337 1.306 . S
C336 O339 1.160 . S
O337 C336 1.306 . S
O337 Cd338 2.228 . S
Cd338 O337 2.228 . S
Cd338 O342 2.273 . S
Cd338 O346 2.277 . S
O339 C336 1.160 . S
O339 Cd340 2.203 . S
Cd340 O339 2.203 . S
Cd340 O342 2.411 . S
Cd340 O343 2.333 . S
Cd340 O344 2.352 . S
Cd340 O348 2.277 . S
Cd340 O349 2.356 . S
C341 O346 1.209 . S
C341 O348 1.226 . S
O342 Cd338 2.273 . S
O342 Cd340 2.411 . S
O342 C345 1.320 . S
O343 Cd340 2.333 . S
O343 C345 1.214 . S
O344 Cd340 2.352 . S
O344 C347 1.258 . S
C345 O342 1.320 . S
C345 O343 1.214 . S
O346 Cd338 2.277 . S
O346 C341 1.209 . S
C347 O344 1.258 . S
C347 O349 1.282 . S
O348 Cd340 2.277 . S
O348 C341 1.226 . S
O349 Cd340 2.356 . S
O349 C347 1.282 . S
C350 O351 1.306 . S
C350 O353 1.160 . S
O351 C350 1.306 . S
O351 Cd352 2.228 . S
Cd352 O351 2.228 . S
Cd352 O356 2.273 . S
Cd352 O360 2.277 . S
O353 C350 1.160 . S
O353 Cd354 2.203 . S
Cd354 O353 2.203 . S
Cd354 O356 2.411 . S
Cd354 O357 2.333 . S
Cd354 O358 2.352 . S
Cd354 O362 2.277 . S
Cd354 O363 2.356 . S
C355 O360 1.209 . S
C355 O362 1.226 . S
O356 Cd352 2.273 . S
O356 Cd354 2.411 . S
O356 C359 1.320 . S
O357 Cd354 2.333 . S
O357 C359 1.214 . S
O358 Cd354 2.352 . S
O358 C361 1.258 . S
C359 O356 1.320 . S
C359 O357 1.214 . S
O360 Cd352 2.277 . S
O360 C355 1.209 . S
C361 O358 1.258 . S
C361 O363 1.282 . S
O362 Cd354 2.277 . S
O362 C355 1.226 . S
O363 Cd354 2.356 . S
O363 C361 1.282 . S
C364 O365 1.306 . S
C364 O367 1.160 . S
O365 C364 1.306 . S
O365 Cd366 2.228 . S
Cd366 O365 2.228 . S
Cd366 O370 2.273 . S
Cd366 O374 2.277 . S
O367 C364 1.160 . S
O367 Cd368 2.203 . S
Cd368 O367 2.203 . S
Cd368 O370 2.411 . S
Cd368 O371 2.333 . S
Cd368 O372 2.352 . S
Cd368 O376 2.277 . S
Cd368 O377 2.356 . S
C369 O374 1.209 . S
C369 O376 1.226 . S
O370 Cd366 2.273 . S
O370 Cd368 2.411 . S
O370 C373 1.320 . S
O371 Cd368 2.333 . S
O371 C373 1.214 . S
O372 Cd368 2.352 . S
O372 C375 1.258 . S
C373 O370 1.320 . S
C373 O371 1.214 . S
O374 Cd366 2.277 . S
O374 C369 1.209 . S
C375 O372 1.258 . S
C375 O377 1.282 . S
O376 Cd368 2.277 . S
O376 C369 1.226 . S
O377 Cd368 2.356 . S
O377 C375 1.282 . S
C378 O379 1.306 . S
C378 O381 1.160 . S
O379 C378 1.306 . S
O379 Cd380 2.228 . S
Cd380 O379 2.228 . S
Cd380 O384 2.273 . S
Cd380 O388 2.277 . S
O381 C378 1.160 . S
O381 Cd382 2.203 . S
Cd382 O381 2.203 . S
Cd382 O384 2.411 . S
Cd382 O385 2.333 . S
Cd382 O386 2.352 . S
Cd382 O390 2.277 . S
Cd382 O391 2.356 . S
C383 O388 1.209 . S
C383 O390 1.226 . S
O384 Cd380 2.273 . S
O384 Cd382 2.411 . S
O384 C387 1.320 . S
O385 Cd382 2.333 . S
O385 C387 1.214 . S
O386 Cd382 2.352 . S
O386 C389 1.258 . S
C387 O384 1.320 . S
C387 O385 1.214 . S
O388 Cd380 2.277 . S
O388 C383 1.209 . S
C389 O386 1.258 . S
C389 O391 1.282 . S
O390 Cd382 2.277 . S
O390 C383 1.226 . S
O391 Cd382 2.356 . S
O391 C389 1.282 . S
C392 O393 1.306 . S
C392 O395 1.160 . S
O393 C392 1.306 . S
O393 Cd394 2.228 . S
Cd394 O393 2.228 . S
Cd394 O398 2.273 . S
Cd394 O402 2.277 . S
O395 C392 1.160 . S
O395 Cd396 2.203 . S
Cd396 O395 2.203 . S
Cd396 O398 2.411 . S
Cd396 O399 2.333 . S
Cd396 O400 2.352 . S
Cd396 O404 2.277 . S
Cd396 O405 2.356 . S
C397 O402 1.209 . S
C397 O404 1.226 . S
O398 Cd394 2.273 . S
O398 Cd396 2.411 . S
O398 C401 1.320 . S
O399 Cd396 2.333 . S
O399 C401 1.214 . S
O400 Cd396 2.352 . S
O400 C403 1.258 . S
C401 O398 1.320 . S
C401 O399 1.214 . S
O402 Cd394 2.277 . S
O402 C397 1.209 . S
C403 O400 1.258 . S
C403 O405 1.282 . S
O404 Cd396 2.277 . S
O404 C397 1.226 . S
O405 Cd396 2.356 . S
O405 C403 1.282 . S
C406 O407 1.306 . S
C406 O409 1.160 . S
O407 C406 1.306 . S
O407 Cd408 2.228 . S
Cd408 O407 2.228 . S
Cd408 O412 2.273 . S
Cd408 O416 2.277 . S
O409 C406 1.160 . S
O409 Cd410 2.203 . S
Cd410 O409 2.203 . S
Cd410 O412 2.411 . S
Cd410 O413 2.333 . S
Cd410 O414 2.352 . S
Cd410 O418 2.277 . S
Cd410 O419 2.356 . S
C411 O416 1.209 . S
C411 O418 1.226 . S
O412 Cd408 2.273 . S
O412 Cd410 2.411 . S
O412 C415 1.320 . S
O413 Cd410 2.333 . S
O413 C415 1.214 . S
O414 Cd410 2.352 . S
O414 C417 1.258 . S
C415 O412 1.320 . S
C415 O413 1.214 . S
O416 Cd408 2.277 . S
O416 C411 1.209 . S
C417 O414 1.258 . S
C417 O419 1.282 . S
O418 Cd410 2.277 . S
O418 C411 1.226 . S
O419 Cd410 2.356 . S
O419 C417 1.282 . S
C420 O421 1.306 . S
C420 O423 1.160 . S
O421 C420 1.306 . S
O421 Cd422 2.228 . S
Cd422 O421 2.228 . S
Cd422 O426 2.273 . S
Cd422 O430 2.277 . S
O423 C420 1.160 . S
O423 Cd424 2.203 . S
Cd424 O423 2.203 . S
Cd424 O426 2.411 . S
Cd424 O427 2.333 . S
Cd424 O428 2.352 . S
Cd424 O432 2.277 . S
Cd424 O433 2.356 . S
C425 O430 1.209 . S
C425 O432 1.226 . S
O426 Cd422 2.273 . S
O426 Cd424 2.411 . S
O426 C429 1.320 . S
O427 Cd424 2.333 . S
O427 C429 1.214 . S
O428 Cd424 2.352 . S
O428 C431 1.258 . S
C429 O426 1.320 . S
C429 O427 1.214 . S
O430 Cd422 2.277 . S
O430 C425 1.209 . S
C431 O428 1.258 . S
C431 O433 1.282 . S
O432 Cd424 2.277 . S
O432 C425 1.226 . S
O433 Cd424 2.356 . S
O433 C431 1.282 . S
C434 O435 1.306 . S
C434 O437 1.160 . S
O435 C434 1.306 . S
O435 Cd436 2.228 . S
Cd436 O435 2.228 . S
Cd436 O440 2.273 . S
Cd436 O444 2.277 . S
O437 C434 1.160 . S
O437 Cd438 2.203 . S
Cd438 O437 2.203 . S
Cd438 O440 2.411 . S
Cd438 O441 2.333 . S
Cd438 O442 2.352 . S
Cd438 O446 2.277 . S
Cd438 O447 2.356 . S
C439 O444 1.209 . S
C439 O446 1.226 . S
O440 Cd436 2.273 . S
O440 Cd438 2.411 . S
O440 C443 1.320 . S
O441 Cd438 2.333 . S
O441 C443 1.214 . S
O442 Cd438 2.352 . S
O442 C445 1.258 . S
C443 O440 1.320 . S
C443 O441 1.214 . S
O444 Cd436 2.277 . S
O444 C439 1.209 . S
C445 O442 1.258 . S
C445 O447 1.282 . S
O446 Cd438 2.277 . S
O446 C439 1.226 . S
O447 Cd438 2.356 . S
O447 C445 1.282 . S
H448 C460 0.930 . S
H449 C462 0.930 . S
H450 C463 0.930 . S
H451 C467 0.959 . S
H452 C467 0.959 . S
H453 C467 0.961 . S
H454 C468 0.960 . S
H455 C468 0.961 . S
H456 C468 0.959 . S
H457 C471 0.929 . S
H458 C472 0.931 . S
H459 C474 0.930 . S
C460 H448 0.930 . S
C460 C461 1.399 . S
C460 C465 1.399 . S
C461 C460 1.399 . S
C461 C462 1.376 . S
C462 H449 0.930 . S
C462 C461 1.376 . S
C462 C463 1.388 . S
C463 H450 0.930 . S
C463 C462 1.388 . S
C463 C464 1.390 . S
C464 C463 1.390 . S
C464 C465 1.394 . S
C464 C470 1.465 . S
C465 C460 1.399 . S
C465 C464 1.394 . S
C465 C466 1.516 . S
C466 C465 1.516 . S
C466 C467 1.502 . S
C466 C468 1.561 . S
C466 C469 1.526 . S
C467 H451 0.959 . S
C467 H452 0.959 . S
C467 H453 0.961 . S
C467 C466 1.502 . S
C468 H454 0.960 . S
C468 H455 0.961 . S
C468 H456 0.959 . S
C468 C466 1.561 . S
C469 C466 1.526 . S
C469 C470 1.396 . S
C469 C474 1.390 . S
C470 C464 1.465 . S
C470 C469 1.396 . S
C470 C471 1.399 . S
C471 H457 0.929 . S
C471 C470 1.399 . S
C471 C472 1.385 . S
C472 H458 0.931 . S
C472 C471 1.385 . S
C472 C473 1.389 . S
C473 C472 1.389 . S
C473 C474 1.387 . S
C474 H459 0.930 . S
C474 C469 1.390 . S
C474 C473 1.387 . S
H475 C487 0.930 . S
H476 C489 0.930 . S
H477 C490 0.930 . S
H478 C494 0.959 . S
H479 C494 0.959 . S
H480 C494 0.961 . S
H481 C495 0.960 . S
H482 C495 0.961 . S
H483 C495 0.959 . S
H484 C498 0.929 . S
H485 C499 0.931 . S
H486 C501 0.930 . S
C487 H475 0.930 . S
C487 C488 1.399 . S
C487 C492 1.399 . S
C488 C487 1.399 . S
C488 C489 1.376 . S
C489 H476 0.930 . S
C489 C488 1.376 . S
C489 C490 1.388 . S
C490 H477 0.930 . S
C490 C489 1.388 . S
C490 C491 1.390 . S
C491 C490 1.390 . S
C491 C492 1.394 . S
C491 C497 1.465 . S
C492 C487 1.399 . S
C492 C491 1.394 . S
C492 C493 1.516 . S
C493 C492 1.516 . S
C493 C494 1.502 . S
C493 C495 1.561 . S
C493 C496 1.526 . S
C494 H478 0.959 . S
C494 H479 0.959 . S
C494 H480 0.961 . S
C494 C493 1.502 . S
C495 H481 0.960 . S
C495 H482 0.961 . S
C495 H483 0.959 . S
C495 C493 1.561 . S
C496 C493 1.526 . S
C496 C497 1.396 . S
C496 C501 1.390 . S
C497 C491 1.465 . S
C497 C496 1.396 . S
C497 C498 1.399 . S
C498 H484 0.929 . S
C498 C497 1.399 . S
C498 C499 1.385 . S
C499 H485 0.931 . S
C499 C498 1.385 . S
C499 C500 1.389 . S
C500 C499 1.389 . S
C500 C501 1.387 . S
C501 H486 0.930 . S
C501 C496 1.390 . S
C501 C500 1.387 . S
H502 C514 0.930 . S
H503 C516 0.930 . S
H504 C517 0.930 . S
H505 C521 0.959 . S
H506 C521 0.959 . S
H507 C521 0.961 . S
H508 C522 0.960 . S
H509 C522 0.961 . S
H510 C522 0.959 . S
H511 C525 0.929 . S
H512 C526 0.931 . S
H513 C528 0.930 . S
C514 H502 0.930 . S
C514 C515 1.399 . S
C514 C519 1.399 . S
C515 C514 1.399 . S
C515 C516 1.376 . S
C516 H503 0.930 . S
C516 C515 1.376 . S
C516 C517 1.388 . S
C517 H504 0.930 . S
C517 C516 1.388 . S
C517 C518 1.390 . S
C518 C517 1.390 . S
C518 C519 1.394 . S
C518 C524 1.465 . S
C519 C514 1.399 . S
C519 C518 1.394 . S
C519 C520 1.516 . S
C520 C519 1.516 . S
C520 C521 1.502 . S
C520 C522 1.561 . S
C520 C523 1.526 . S
C521 H505 0.959 . S
C521 H506 0.959 . S
C521 H507 0.961 . S
C521 C520 1.502 . S
C522 H508 0.960 . S
C522 H509 0.961 . S
C522 H510 0.959 . S
C522 C520 1.561 . S
C523 C520 1.526 . S
C523 C524 1.396 . S
C523 C528 1.390 . S
C524 C518 1.465 . S
C524 C523 1.396 . S
C524 C525 1.399 . S
C525 H511 0.929 . S
C525 C524 1.399 . S
C525 C526 1.385 . S
C526 H512 0.931 . S
C526 C525 1.385 . S
C526 C527 1.389 . S
C527 C526 1.389 . S
C527 C528 1.387 . S
C528 H513 0.930 . S
C528 C523 1.390 . S
C528 C527 1.387 . S
H529 C541 0.930 . S
H530 C543 0.930 . S
H531 C544 0.930 . S
H532 C548 0.959 . S
H533 C548 0.959 . S
H534 C548 0.961 . S
H535 C549 0.960 . S
H536 C549 0.961 . S
H537 C549 0.959 . S
H538 C552 0.929 . S
H539 C553 0.931 . S
H540 C555 0.930 . S
C541 H529 0.930 . S
C541 C542 1.399 . S
C541 C546 1.399 . S
C542 C541 1.399 . S
C542 C543 1.376 . S
C543 H530 0.930 . S
C543 C542 1.376 . S
C543 C544 1.388 . S
C544 H531 0.930 . S
C544 C543 1.388 . S
C544 C545 1.390 . S
C545 C544 1.390 . S
C545 C546 1.394 . S
C545 C551 1.465 . S
C546 C541 1.399 . S
C546 C545 1.394 . S
C546 C547 1.516 . S
C547 C546 1.516 . S
C547 C548 1.502 . S
C547 C549 1.561 . S
C547 C550 1.526 . S
C548 H532 0.959 . S
C548 H533 0.959 . S
C548 H534 0.961 . S
C548 C547 1.502 . S
C549 H535 0.960 . S
C549 H536 0.961 . S
C549 H537 0.959 . S
C549 C547 1.561 . S
C550 C547 1.526 . S
C550 C551 1.396 . S
C550 C555 1.390 . S
C551 C545 1.465 . S
C551 C550 1.396 . S
C551 C552 1.399 . S
C552 H538 0.929 . S
C552 C551 1.399 . S
C552 C553 1.385 . S
C553 H539 0.931 . S
C553 C552 1.385 . S
C553 C554 1.389 . S
C554 C553 1.389 . S
C554 C555 1.387 . S
C555 H540 0.930 . S
C555 C550 1.390 . S
C555 C554 1.387 . S
H556 C568 0.930 . S
H557 C570 0.930 . S
H558 C571 0.930 . S
H559 C575 0.959 . S
H560 C575 0.959 . S
H561 C575 0.961 . S
H562 C576 0.960 . S
H563 C576 0.961 . S
H564 C576 0.959 . S
H565 C579 0.929 . S
H566 C580 0.931 . S
H567 C582 0.930 . S
C568 H556 0.930 . S
C568 C569 1.399 . S
C568 C573 1.399 . S
C569 C568 1.399 . S
C569 C570 1.376 . S
C570 H557 0.930 . S
C570 C569 1.376 . S
C570 C571 1.388 . S
C571 H558 0.930 . S
C571 C570 1.388 . S
C571 C572 1.390 . S
C572 C571 1.390 . S
C572 C573 1.394 . S
C572 C578 1.465 . S
C573 C568 1.399 . S
C573 C572 1.394 . S
C573 C574 1.516 . S
C574 C573 1.516 . S
C574 C575 1.502 . S
C574 C576 1.561 . S
C574 C577 1.526 . S
C575 H559 0.959 . S
C575 H560 0.959 . S
C575 H561 0.961 . S
C575 C574 1.502 . S
C576 H562 0.960 . S
C576 H563 0.961 . S
C576 H564 0.959 . S
C576 C574 1.561 . S
C577 C574 1.526 . S
C577 C578 1.396 . S
C577 C582 1.390 . S
C578 C572 1.465 . S
C578 C577 1.396 . S
C578 C579 1.399 . S
C579 H565 0.929 . S
C579 C578 1.399 . S
C579 C580 1.385 . S
C580 H566 0.931 . S
C580 C579 1.385 . S
C580 C581 1.389 . S
C581 C580 1.389 . S
C581 C582 1.387 . S
C582 H567 0.930 . S
C582 C577 1.390 . S
C582 C581 1.387 . S
H583 C595 0.930 . S
H584 C597 0.930 . S
H585 C598 0.930 . S
H586 C602 0.959 . S
H587 C602 0.959 . S
H588 C602 0.961 . S
H589 C603 0.960 . S
H590 C603 0.961 . S
H591 C603 0.959 . S
H592 C606 0.929 . S
H593 C607 0.931 . S
H594 C609 0.930 . S
C595 H583 0.930 . S
C595 C596 1.399 . S
C595 C600 1.399 . S
C596 C595 1.399 . S
C596 C597 1.376 . S
C597 H584 0.930 . S
C597 C596 1.376 . S
C597 C598 1.388 . S
C598 H585 0.930 . S
C598 C597 1.388 . S
C598 C599 1.390 . S
C599 C598 1.390 . S
C599 C600 1.394 . S
C599 C605 1.465 . S
C600 C595 1.399 . S
C600 C599 1.394 . S
C600 C601 1.516 . S
C601 C600 1.516 . S
C601 C602 1.502 . S
C601 C603 1.561 . S
C601 C604 1.526 . S
C602 H586 0.959 . S
C602 H587 0.959 . S
C602 H588 0.961 . S
C602 C601 1.502 . S
C603 H589 0.960 . S
C603 H590 0.961 . S
C603 H591 0.959 . S
C603 C601 1.561 . S
C604 C601 1.526 . S
C604 C605 1.396 . S
C604 C609 1.390 . S
C605 C599 1.465 . S
C605 C604 1.396 . S
C605 C606 1.399 . S
C606 H592 0.929 . S
C606 C605 1.399 . S
C606 C607 1.385 . S
C607 H593 0.931 . S
C607 C606 1.385 . S
C607 C608 1.389 . S
C608 C607 1.389 . S
C608 C609 1.387 . S
C609 H594 0.930 . S
C609 C604 1.390 . S
C609 C608 1.387 . S
H610 C622 0.930 . S
H611 C624 0.930 . S
H612 C625 0.930 . S
H613 C629 0.959 . S
H614 C629 0.959 . S
H615 C629 0.961 . S
H616 C630 0.960 . S
H617 C630 0.961 . S
H618 C630 0.959 . S
H619 C633 0.929 . S
H620 C634 0.931 . S
H621 C636 0.930 . S
C622 H610 0.930 . S
C622 C623 1.399 . S
C622 C627 1.399 . S
C623 C622 1.399 . S
C623 C624 1.376 . S
C624 H611 0.930 . S
C624 C623 1.376 . S
C624 C625 1.388 . S
C625 H612 0.930 . S
C625 C624 1.388 . S
C625 C626 1.390 . S
C626 C625 1.390 . S
C626 C627 1.394 . S
C626 C632 1.465 . S
C627 C622 1.399 . S
C627 C626 1.394 . S
C627 C628 1.516 . S
C628 C627 1.516 . S
C628 C629 1.502 . S
C628 C630 1.561 . S
C628 C631 1.526 . S
C629 H613 0.959 . S
C629 H614 0.959 . S
C629 H615 0.961 . S
C629 C628 1.502 . S
C630 H616 0.960 . S
C630 H617 0.961 . S
C630 H618 0.959 . S
C630 C628 1.561 . S
C631 C628 1.526 . S
C631 C632 1.396 . S
C631 C636 1.390 . S
C632 C626 1.465 . S
C632 C631 1.396 . S
C632 C633 1.399 . S
C633 H619 0.929 . S
C633 C632 1.399 . S
C633 C634 1.385 . S
C634 H620 0.931 . S
C634 C633 1.385 . S
C634 C635 1.389 . S
C635 C634 1.389 . S
C635 C636 1.387 . S
C636 H621 0.930 . S
C636 C631 1.390 . S
C636 C635 1.387 . S
H637 C649 0.930 . S
H638 C651 0.930 . S
H639 C652 0.930 . S
H640 C656 0.959 . S
H641 C656 0.959 . S
H642 C656 0.961 . S
H643 C657 0.960 . S
H644 C657 0.961 . S
H645 C657 0.959 . S
H646 C660 0.929 . S
H647 C661 0.931 . S
H648 C663 0.930 . S
C649 H637 0.930 . S
C649 C650 1.399 . S
C649 C654 1.399 . S
C650 C649 1.399 . S
C650 C651 1.376 . S
C651 H638 0.930 . S
C651 C650 1.376 . S
C651 C652 1.388 . S
C652 H639 0.930 . S
C652 C651 1.388 . S
C652 C653 1.390 . S
C653 C652 1.390 . S
C653 C654 1.394 . S
C653 C659 1.465 . S
C654 C649 1.399 . S
C654 C653 1.394 . S
C654 C655 1.516 . S
C655 C654 1.516 . S
C655 C656 1.502 . S
C655 C657 1.561 . S
C655 C658 1.526 . S
C656 H640 0.959 . S
C656 H641 0.959 . S
C656 H642 0.961 . S
C656 C655 1.502 . S
C657 H643 0.960 . S
C657 H644 0.961 . S
C657 H645 0.959 . S
C657 C655 1.561 . S
C658 C655 1.526 . S
C658 C659 1.396 . S
C658 C663 1.390 . S
C659 C653 1.465 . S
C659 C658 1.396 . S
C659 C660 1.399 . S
C660 H646 0.929 . S
C660 C659 1.399 . S
C660 C661 1.385 . S
C661 H647 0.931 . S
C661 C660 1.385 . S
C661 C662 1.389 . S
C662 C661 1.389 . S
C662 C663 1.387 . S
C663 H648 0.930 . S
C663 C658 1.390 . S
C663 C662 1.387 . S
H664 C676 0.930 . S
H665 C678 0.930 . S
H666 C679 0.930 . S
H667 C683 0.959 . S
H668 C683 0.959 . S
H669 C683 0.961 . S
H670 C684 0.960 . S
H671 C684 0.961 . S
H672 C684 0.959 . S
H673 C687 0.929 . S
H674 C688 0.931 . S
H675 C690 0.930 . S
C676 H664 0.930 . S
C676 C677 1.399 . S
C676 C681 1.399 . S
C677 C676 1.399 . S
C677 C678 1.376 . S
C678 H665 0.930 . S
C678 C677 1.376 . S
C678 C679 1.388 . S
C679 H666 0.930 . S
C679 C678 1.388 . S
C679 C680 1.390 . S
C680 C679 1.390 . S
C680 C681 1.394 . S
C680 C686 1.465 . S
C681 C676 1.399 . S
C681 C680 1.394 . S
C681 C682 1.516 . S
C682 C681 1.516 . S
C682 C683 1.502 . S
C682 C684 1.561 . S
C682 C685 1.526 . S
C683 H667 0.959 . S
C683 H668 0.959 . S
C683 H669 0.961 . S
C683 C682 1.502 . S
C684 H670 0.960 . S
C684 H671 0.961 . S
C684 H672 0.959 . S
C684 C682 1.561 . S
C685 C682 1.526 . S
C685 C686 1.396 . S
C685 C690 1.390 . S
C686 C680 1.465 . S
C686 C685 1.396 . S
C686 C687 1.399 . S
C687 H673 0.929 . S
C687 C686 1.399 . S
C687 C688 1.385 . S
C688 H674 0.931 . S
C688 C687 1.385 . S
C688 C689 1.389 . S
C689 C688 1.389 . S
C689 C690 1.387 . S
C690 H675 0.930 . S
C690 C685 1.390 . S
C690 C689 1.387 . S
H691 C703 0.930 . S
H692 C705 0.930 . S
H693 C706 0.930 . S
H694 C710 0.959 . S
H695 C710 0.959 . S
H696 C710 0.961 . S
H697 C711 0.960 . S
H698 C711 0.961 . S
H699 C711 0.959 . S
H700 C714 0.929 . S
H701 C715 0.931 . S
H702 C717 0.930 . S
C703 H691 0.930 . S
C703 C704 1.399 . S
C703 C708 1.399 . S
C704 C703 1.399 . S
C704 C705 1.376 . S
C705 H692 0.930 . S
C705 C704 1.376 . S
C705 C706 1.388 . S
C706 H693 0.930 . S
C706 C705 1.388 . S
C706 C707 1.390 . S
C707 C706 1.390 . S
C707 C708 1.394 . S
C707 C713 1.465 . S
C708 C703 1.399 . S
C708 C707 1.394 . S
C708 C709 1.516 . S
C709 C708 1.516 . S
C709 C710 1.502 . S
C709 C711 1.561 . S
C709 C712 1.526 . S
C710 H694 0.959 . S
C710 H695 0.959 . S
C710 H696 0.961 . S
C710 C709 1.502 . S
C711 H697 0.960 . S
C711 H698 0.961 . S
C711 H699 0.959 . S
C711 C709 1.561 . S
C712 C709 1.526 . S
C712 C713 1.396 . S
C712 C717 1.390 . S
C713 C707 1.465 . S
C713 C712 1.396 . S
C713 C714 1.399 . S
C714 H700 0.929 . S
C714 C713 1.399 . S
C714 C715 1.385 . S
C715 H701 0.931 . S
C715 C714 1.385 . S
C715 C716 1.389 . S
C716 C715 1.389 . S
C716 C717 1.387 . S
C717 H702 0.930 . S
C717 C712 1.390 . S
C717 C716 1.387 . S
H718 C730 0.930 . S
H719 C732 0.930 . S
H720 C733 0.930 . S
H721 C737 0.959 . S
H722 C737 0.959 . S
H723 C737 0.961 . S
H724 C738 0.960 . S
H725 C738 0.961 . S
H726 C738 0.959 . S
H727 C741 0.929 . S
H728 C742 0.931 . S
H729 C744 0.930 . S
C730 H718 0.930 . S
C730 C731 1.399 . S
C730 C735 1.399 . S
C731 C730 1.399 . S
C731 C732 1.376 . S
C732 H719 0.930 . S
C732 C731 1.376 . S
C732 C733 1.388 . S
C733 H720 0.930 . S
C733 C732 1.388 . S
C733 C734 1.390 . S
C734 C733 1.390 . S
C734 C735 1.394 . S
C734 C740 1.465 . S
C735 C730 1.399 . S
C735 C734 1.394 . S
C735 C736 1.516 . S
C736 C735 1.516 . S
C736 C737 1.502 . S
C736 C738 1.561 . S
C736 C739 1.526 . S
C737 H721 0.959 . S
C737 H722 0.959 . S
C737 H723 0.961 . S
C737 C736 1.502 . S
C738 H724 0.960 . S
C738 H725 0.961 . S
C738 H726 0.959 . S
C738 C736 1.561 . S
C739 C736 1.526 . S
C739 C740 1.396 . S
C739 C744 1.390 . S
C740 C734 1.465 . S
C740 C739 1.396 . S
C740 C741 1.399 . S
C741 H727 0.929 . S
C741 C740 1.399 . S
C741 C742 1.385 . S
C742 H728 0.931 . S
C742 C741 1.385 . S
C742 C743 1.389 . S
C743 C742 1.389 . S
C743 C744 1.387 . S
C744 H729 0.930 . S
C744 C739 1.390 . S
C744 C743 1.387 . S
H745 C757 0.930 . S
H746 C759 0.930 . S
H747 C760 0.930 . S
H748 C764 0.959 . S
H749 C764 0.959 . S
H750 C764 0.961 . S
H751 C765 0.960 . S
H752 C765 0.961 . S
H753 C765 0.959 . S
H754 C768 0.929 . S
H755 C769 0.931 . S
H756 C771 0.930 . S
C757 H745 0.930 . S
C757 C758 1.399 . S
C757 C762 1.399 . S
C758 C757 1.399 . S
C758 C759 1.376 . S
C759 H746 0.930 . S
C759 C758 1.376 . S
C759 C760 1.388 . S
C760 H747 0.930 . S
C760 C759 1.388 . S
C760 C761 1.390 . S
C761 C760 1.390 . S
C761 C762 1.394 . S
C761 C767 1.465 . S
C762 C757 1.399 . S
C762 C761 1.394 . S
C762 C763 1.516 . S
C763 C762 1.516 . S
C763 C764 1.502 . S
C763 C765 1.561 . S
C763 C766 1.526 . S
C764 H748 0.959 . S
C764 H749 0.959 . S
C764 H750 0.961 . S
C764 C763 1.502 . S
C765 H751 0.960 . S
C765 H752 0.961 . S
C765 H753 0.959 . S
C765 C763 1.561 . S
C766 C763 1.526 . S
C766 C767 1.396 . S
C766 C771 1.390 . S
C767 C761 1.465 . S
C767 C766 1.396 . S
C767 C768 1.399 . S
C768 H754 0.929 . S
C768 C767 1.399 . S
C768 C769 1.385 . S
C769 H755 0.931 . S
C769 C768 1.385 . S
C769 C770 1.389 . S
C770 C769 1.389 . S
C770 C771 1.387 . S
C771 H756 0.930 . S
C771 C766 1.390 . S
C771 C770 1.387 . S
H772 C784 0.930 . S
H773 C786 0.930 . S
H774 C787 0.930 . S
H775 C791 0.959 . S
H776 C791 0.959 . S
H777 C791 0.961 . S
H778 C792 0.960 . S
H779 C792 0.961 . S
H780 C792 0.959 . S
H781 C795 0.929 . S
H782 C796 0.931 . S
H783 C798 0.930 . S
C784 H772 0.930 . S
C784 C785 1.399 . S
C784 C789 1.399 . S
C785 C784 1.399 . S
C785 C786 1.376 . S
C786 H773 0.930 . S
C786 C785 1.376 . S
C786 C787 1.388 . S
C787 H774 0.930 . S
C787 C786 1.388 . S
C787 C788 1.390 . S
C788 C787 1.390 . S
C788 C789 1.394 . S
C788 C794 1.465 . S
C789 C784 1.399 . S
C789 C788 1.394 . S
C789 C790 1.516 . S
C790 C789 1.516 . S
C790 C791 1.502 . S
C790 C792 1.561 . S
C790 C793 1.526 . S
C791 H775 0.959 . S
C791 H776 0.959 . S
C791 H777 0.961 . S
C791 C790 1.502 . S
C792 H778 0.960 . S
C792 H779 0.961 . S
C792 H780 0.959 . S
C792 C790 1.561 . S
C793 C790 1.526 . S
C793 C794 1.396 . S
C793 C798 1.390 . S
C794 C788 1.465 . S
C794 C793 1.396 . S
C794 C795 1.399 . S
C795 H781 0.929 . S
C795 C794 1.399 . S
C795 C796 1.385 . S
C796 H782 0.931 . S
C796 C795 1.385 . S
C796 C797 1.389 . S
C797 C796 1.389 . S
C797 C798 1.387 . S
C798 H783 0.930 . S
C798 C793 1.390 . S
C798 C797 1.387 . S
H799 C811 0.930 . S
H800 C813 0.930 . S
H801 C814 0.930 . S
H802 C818 0.959 . S
H803 C818 0.959 . S
H804 C818 0.961 . S
H805 C819 0.960 . S
H806 C819 0.961 . S
H807 C819 0.959 . S
H808 C822 0.929 . S
H809 C823 0.931 . S
H810 C825 0.930 . S
C811 H799 0.930 . S
C811 C812 1.399 . S
C811 C816 1.399 . S
C812 C811 1.399 . S
C812 C813 1.376 . S
C813 H800 0.930 . S
C813 C812 1.376 . S
C813 C814 1.388 . S
C814 H801 0.930 . S
C814 C813 1.388 . S
C814 C815 1.390 . S
C815 C814 1.390 . S
C815 C816 1.394 . S
C815 C821 1.465 . S
C816 C811 1.399 . S
C816 C815 1.394 . S
C816 C817 1.516 . S
C817 C816 1.516 . S
C817 C818 1.502 . S
C817 C819 1.561 . S
C817 C820 1.526 . S
C818 H802 0.959 . S
C818 H803 0.959 . S
C818 H804 0.961 . S
C818 C817 1.502 . S
C819 H805 0.960 . S
C819 H806 0.961 . S
C819 H807 0.959 . S
C819 C817 1.561 . S
C820 C817 1.526 . S
C820 C821 1.396 . S
C820 C825 1.390 . S
C821 C815 1.465 . S
C821 C820 1.396 . S
C821 C822 1.399 . S
C822 H808 0.929 . S
C822 C821 1.399 . S
C822 C823 1.385 . S
C823 H809 0.931 . S
C823 C822 1.385 . S
C823 C824 1.389 . S
C824 C823 1.389 . S
C824 C825 1.387 . S
C825 H810 0.930 . S
C825 C820 1.390 . S
C825 C824 1.387 . S
H826 C838 0.930 . S
H827 C840 0.930 . S
H828 C841 0.930 . S
H829 C845 0.959 . S
H830 C845 0.959 . S
H831 C845 0.961 . S
H832 C846 0.960 . S
H833 C846 0.961 . S
H834 C846 0.959 . S
H835 C849 0.929 . S
H836 C850 0.931 . S
H837 C852 0.930 . S
C838 H826 0.930 . S
C838 C839 1.399 . S
C838 C843 1.399 . S
C839 C838 1.399 . S
C839 C840 1.376 . S
C840 H827 0.930 . S
C840 C839 1.376 . S
C840 C841 1.388 . S
C841 H828 0.930 . S
C841 C840 1.388 . S
C841 C842 1.390 . S
C842 C841 1.390 . S
C842 C843 1.394 . S
C842 C848 1.465 . S
C843 C838 1.399 . S
C843 C842 1.394 . S
C843 C844 1.516 . S
C844 C843 1.516 . S
C844 C845 1.502 . S
C844 C846 1.561 . S
C844 C847 1.526 . S
C845 H829 0.959 . S
C845 H830 0.959 . S
C845 H831 0.961 . S
C845 C844 1.502 . S
C846 H832 0.960 . S
C846 H833 0.961 . S
C846 H834 0.959 . S
C846 C844 1.561 . S
C847 C844 1.526 . S
C847 C848 1.396 . S
C847 C852 1.390 . S
C848 C842 1.465 . S
C848 C847 1.396 . S
C848 C849 1.399 . S
C849 H835 0.929 . S
C849 C848 1.399 . S
C849 C850 1.385 . S
C850 H836 0.931 . S
C850 C849 1.385 . S
C850 C851 1.389 . S
C851 C850 1.389 . S
C851 C852 1.387 . S
C852 H837 0.930 . S
C852 C847 1.390 . S
C852 C851 1.387 . S
H853 C865 0.930 . S
H854 C867 0.930 . S
H855 C868 0.930 . S
H856 C872 0.959 . S
H857 C872 0.959 . S
H858 C872 0.961 . S
H859 C873 0.960 . S
H860 C873 0.961 . S
H861 C873 0.959 . S
H862 C876 0.929 . S
H863 C877 0.931 . S
H864 C879 0.930 . S
C865 H853 0.930 . S
C865 C866 1.399 . S
C865 C870 1.399 . S
C866 C865 1.399 . S
C866 C867 1.376 . S
C867 H854 0.930 . S
C867 C866 1.376 . S
C867 C868 1.388 . S
C868 H855 0.930 . S
C868 C867 1.388 . S
C868 C869 1.390 . S
C869 C868 1.390 . S
C869 C870 1.394 . S
C869 C875 1.465 . S
C870 C865 1.399 . S
C870 C869 1.394 . S
C870 C871 1.516 . S
C871 C870 1.516 . S
C871 C872 1.502 . S
C871 C873 1.561 . S
C871 C874 1.526 . S
C872 H856 0.959 . S
C872 H857 0.959 . S
C872 H858 0.961 . S
C872 C871 1.502 . S
C873 H859 0.960 . S
C873 H860 0.961 . S
C873 H861 0.959 . S
C873 C871 1.561 . S
C874 C871 1.526 . S
C874 C875 1.396 . S
C874 C879 1.390 . S
C875 C869 1.465 . S
C875 C874 1.396 . S
C875 C876 1.399 . S
C876 H862 0.929 . S
C876 C875 1.399 . S
C876 C877 1.385 . S
C877 H863 0.931 . S
C877 C876 1.385 . S
C877 C878 1.389 . S
C878 C877 1.389 . S
C878 C879 1.387 . S
C879 H864 0.930 . S
C879 C874 1.390 . S
C879 C878 1.387 . S
H880 C892 0.930 . S
H881 C894 0.930 . S
H882 C895 0.930 . S
H883 C899 0.962 . S
H884 C899 0.980 . S
H885 C899 0.938 1_554 S
H886 C900 0.957 1_554 S
H887 C900 0.964 . S
H888 C900 0.959 . S
H889 C903 0.929 . S
H890 C904 0.931 . S
H891 C906 0.930 . S
C892 H880 0.930 . S
C892 C893 1.399 . S
C892 C897 1.399 . S
C893 C892 1.399 . S
C893 C894 1.376 . S
C894 H881 0.930 . S
C894 C893 1.376 . S
C894 C895 1.388 . S
C895 H882 0.930 . S
C895 C894 1.388 . S
C895 C896 1.390 . S
C896 C895 1.390 . S
C896 C897 1.394 . S
C896 C902 1.465 1_554 S
C897 C892 1.399 . S
C897 C896 1.394 . S
C897 C898 1.516 1_554 S
C898 C897 1.516 1_556 S
C898 C899 1.502 . S
C898 C900 1.561 . S
C898 C901 1.526 . S
C899 H883 0.962 . S
C899 H884 0.980 . S
C899 H885 0.938 1_556 S
C899 C898 1.502 . S
C900 H886 0.957 1_556 S
C900 H887 0.964 . S
C900 H888 0.959 . S
C900 C898 1.561 . S
C901 C898 1.526 . S
C901 C902 1.396 . S
C901 C906 1.390 . S
C902 C896 1.465 1_556 S
C902 C901 1.396 . S
C902 C903 1.399 . S
C903 H889 0.929 . S
C903 C902 1.399 . S
C903 C904 1.385 . S
C904 H890 0.931 . S
C904 C903 1.385 . S
C904 C905 1.389 . S
C905 C904 1.389 . S
C905 C906 1.387 . S
C906 H891 0.930 . S
C906 C901 1.390 . S
C906 C905 1.387 . S
H907 C919 0.930 . S
H908 C921 0.930 . S
H909 C922 0.930 . S
H910 C926 0.962 . S
H911 C926 0.980 . S
H912 C926 0.938 1_556 S
H913 C927 0.957 1_556 S
H914 C927 0.964 . S
H915 C927 0.959 . S
H916 C930 0.929 . S
H917 C931 0.931 . S
H918 C933 0.930 . S
C919 H907 0.930 . S
C919 C920 1.399 . S
C919 C924 1.399 . S
C920 C919 1.399 . S
C920 C921 1.376 . S
C921 H908 0.930 . S
C921 C920 1.376 . S
C921 C922 1.388 . S
C922 H909 0.930 . S
C922 C921 1.388 . S
C922 C923 1.390 . S
C923 C922 1.390 . S
C923 C924 1.394 . S
C923 C929 1.465 1_556 S
C924 C919 1.399 . S
C924 C923 1.394 . S
C924 C925 1.516 1_556 S
C925 C924 1.516 1_554 S
C925 C926 1.502 . S
C925 C927 1.561 . S
C925 C928 1.526 . S
C926 H910 0.962 . S
C926 H911 0.980 . S
C926 H912 0.938 1_554 S
C926 C925 1.502 . S
C927 H913 0.957 1_554 S
C927 H914 0.964 . S
C927 H915 0.959 . S
C927 C925 1.561 . S
C928 C925 1.526 . S
C928 C929 1.396 . S
C928 C933 1.390 . S
C929 C923 1.465 1_554 S
C929 C928 1.396 . S
C929 C930 1.399 . S
C930 H916 0.929 . S
C930 C929 1.399 . S
C930 C931 1.385 . S
C931 H917 0.931 . S
C931 C930 1.385 . S
C931 C932 1.389 . S
C932 C931 1.389 . S
C932 C933 1.387 . S
C933 H918 0.930 . S
C933 C928 1.390 . S
C933 C932 1.387 . S
H934 C946 0.930 . S
H935 C948 0.930 . S
H936 C949 0.930 . S
H937 C953 0.962 . S
H938 C953 0.980 . S
H939 C953 0.938 1_556 S
H940 C954 0.957 1_556 S
H941 C954 0.964 . S
H942 C954 0.959 . S
H943 C957 0.929 . S
H944 C958 0.931 . S
H945 C960 0.930 . S
C946 H934 0.930 . S
C946 C947 1.399 . S
C946 C951 1.399 . S
C947 C946 1.399 . S
C947 C948 1.376 . S
C948 H935 0.930 . S
C948 C947 1.376 . S
C948 C949 1.388 . S
C949 H936 0.930 . S
C949 C948 1.388 . S
C949 C950 1.390 . S
C950 C949 1.390 . S
C950 C951 1.394 . S
C950 C956 1.465 1_556 S
C951 C946 1.399 . S
C951 C950 1.394 . S
C951 C952 1.516 1_556 S
C952 C951 1.516 1_554 S
C952 C953 1.502 . S
C952 C954 1.561 . S
C952 C955 1.526 . S
C953 H937 0.962 . S
C953 H938 0.980 . S
C953 H939 0.938 1_554 S
C953 C952 1.502 . S
C954 H940 0.957 1_554 S
C954 H941 0.964 . S
C954 H942 0.959 . S
C954 C952 1.561 . S
C955 C952 1.526 . S
C955 C956 1.396 . S
C955 C960 1.390 . S
C956 C950 1.465 1_554 S
C956 C955 1.396 . S
C956 C957 1.399 . S
C957 H943 0.929 . S
C957 C956 1.399 . S
C957 C958 1.385 . S
C958 H944 0.931 . S
C958 C957 1.385 . S
C958 C959 1.389 . S
C959 C958 1.389 . S
C959 C960 1.387 . S
C960 H945 0.930 . S
C960 C955 1.390 . S
C960 C959 1.387 . S
H961 C973 0.930 . S
H962 C975 0.930 . S
H963 C976 0.930 . S
H964 C980 0.962 . S
H965 C980 0.980 . S
H966 C980 0.938 1_556 S
H967 C981 0.957 1_556 S
H968 C981 0.964 . S
H969 C981 0.959 . S
H970 C984 0.929 . S
H971 C985 0.931 . S
H972 C987 0.930 . S
C973 H961 0.930 . S
C973 C974 1.399 . S
C973 C978 1.399 . S
C974 C973 1.399 . S
C974 C975 1.376 . S
C975 H962 0.930 . S
C975 C974 1.376 . S
C975 C976 1.388 . S
C976 H963 0.930 . S
C976 C975 1.388 . S
C976 C977 1.390 . S
C977 C976 1.390 . S
C977 C978 1.394 . S
C977 C983 1.465 1_556 S
C978 C973 1.399 . S
C978 C977 1.394 . S
C978 C979 1.516 1_556 S
C979 C978 1.516 1_554 S
C979 C980 1.502 . S
C979 C981 1.561 . S
C979 C982 1.526 . S
C980 H964 0.962 . S
C980 H965 0.980 . S
C980 H966 0.938 1_554 S
C980 C979 1.502 . S
C981 H967 0.957 1_554 S
C981 H968 0.964 . S
C981 H969 0.959 . S
C981 C979 1.561 . S
C982 C979 1.526 . S
C982 C983 1.396 . S
C982 C987 1.390 . S
C983 C977 1.465 1_554 S
C983 C982 1.396 . S
C983 C984 1.399 . S
C984 H970 0.929 . S
C984 C983 1.399 . S
C984 C985 1.385 . S
C985 H971 0.931 . S
C985 C984 1.385 . S
C985 C986 1.389 . S
C986 C985 1.389 . S
C986 C987 1.387 . S
C987 H972 0.930 . S
C987 C982 1.390 . S
C987 C986 1.387 . S
H988 C1000 0.930 . S
H989 C1002 0.930 . S
H990 C1003 0.930 . S
H991 C1007 0.959 . S
H992 C1007 0.959 . S
H993 C1007 0.961 . S
H994 C1008 0.960 . S
H995 C1008 0.961 . S
H996 C1008 0.959 . S
H997 C1011 0.929 . S
H998 C1012 0.931 . S
H999 C1014 0.930 . S
C1000 H988 0.930 . S
C1000 C1001 1.399 . S
C1000 C1005 1.399 . S
C1001 C1000 1.399 . S
C1001 C1002 1.376 . S
C1002 H989 0.930 . S
C1002 C1001 1.376 . S
C1002 C1003 1.388 . S
C1003 H990 0.930 . S
C1003 C1002 1.388 . S
C1003 C1004 1.390 . S
C1004 C1003 1.390 . S
C1004 C1005 1.394 . S
C1004 C1010 1.465 . S
C1005 C1000 1.399 . S
C1005 C1004 1.394 . S
C1005 C1006 1.516 . S
C1006 C1005 1.516 . S
C1006 C1007 1.502 . S
C1006 C1008 1.561 . S
C1006 C1009 1.526 . S
C1007 H991 0.959 . S
C1007 H992 0.959 . S
C1007 H993 0.961 . S
C1007 C1006 1.502 . S
C1008 H994 0.960 . S
C1008 H995 0.961 . S
C1008 H996 0.959 . S
C1008 C1006 1.561 . S
C1009 C1006 1.526 . S
C1009 C1010 1.396 . S
C1009 C1014 1.390 . S
C1010 C1004 1.465 . S
C1010 C1009 1.396 . S
C1010 C1011 1.399 . S
C1011 H997 0.929 . S
C1011 C1010 1.399 . S
C1011 C1012 1.385 . S
C1012 H998 0.931 . S
C1012 C1011 1.385 . S
C1012 C1013 1.389 . S
C1013 C1012 1.389 . S
C1013 C1014 1.387 . S
C1014 H999 0.930 . S
C1014 C1009 1.390 . S
C1014 C1013 1.387 . S
H1015 C1027 0.930 . S
H1016 C1029 0.930 . S
H1017 C1030 0.930 . S
H1018 C1034 0.959 . S
H1019 C1034 0.959 . S
H1020 C1034 0.961 . S
H1021 C1035 0.960 . S
H1022 C1035 0.961 . S
H1023 C1035 0.959 . S
H1024 C1038 0.929 . S
H1025 C1039 0.931 . S
H1026 C1041 0.930 . S
C1027 H1015 0.930 . S
C1027 C1028 1.399 . S
C1027 C1032 1.399 . S
C1028 C1027 1.399 . S
C1028 C1029 1.376 . S
C1029 H1016 0.930 . S
C1029 C1028 1.376 . S
C1029 C1030 1.388 . S
C1030 H1017 0.930 . S
C1030 C1029 1.388 . S
C1030 C1031 1.390 . S
C1031 C1030 1.390 . S
C1031 C1032 1.394 . S
C1031 C1037 1.465 . S
C1032 C1027 1.399 . S
C1032 C1031 1.394 . S
C1032 C1033 1.516 . S
C1033 C1032 1.516 . S
C1033 C1034 1.502 . S
C1033 C1035 1.561 . S
C1033 C1036 1.526 . S
C1034 H1018 0.959 . S
C1034 H1019 0.959 . S
C1034 H1020 0.961 . S
C1034 C1033 1.502 . S
C1035 H1021 0.960 . S
C1035 H1022 0.961 . S
C1035 H1023 0.959 . S
C1035 C1033 1.561 . S
C1036 C1033 1.526 . S
C1036 C1037 1.396 . S
C1036 C1041 1.390 . S
C1037 C1031 1.465 . S
C1037 C1036 1.396 . S
C1037 C1038 1.399 . S
C1038 H1024 0.929 . S
C1038 C1037 1.399 . S
C1038 C1039 1.385 . S
C1039 H1025 0.931 . S
C1039 C1038 1.385 . S
C1039 C1040 1.389 . S
C1040 C1039 1.389 . S
C1040 C1041 1.387 . S
C1041 H1026 0.930 . S
C1041 C1036 1.390 . S
C1041 C1040 1.387 . S
H1042 C1054 0.930 . S
H1043 C1056 0.930 . S
H1044 C1057 0.930 . S
H1045 C1061 0.959 . S
H1046 C1061 0.959 . S
H1047 C1061 0.961 . S
H1048 C1062 0.960 . S
H1049 C1062 0.961 . S
H1050 C1062 0.959 . S
H1051 C1065 0.929 . S
H1052 C1066 0.931 . S
H1053 C1068 0.930 . S
C1054 H1042 0.930 . S
C1054 C1055 1.399 . S
C1054 C1059 1.399 . S
C1055 C1054 1.399 . S
C1055 C1056 1.376 . S
C1056 H1043 0.930 . S
C1056 C1055 1.376 . S
C1056 C1057 1.388 . S
C1057 H1044 0.930 . S
C1057 C1056 1.388 . S
C1057 C1058 1.390 . S
C1058 C1057 1.390 . S
C1058 C1059 1.394 . S
C1058 C1064 1.465 . S
C1059 C1054 1.399 . S
C1059 C1058 1.394 . S
C1059 C1060 1.516 . S
C1060 C1059 1.516 . S
C1060 C1061 1.502 . S
C1060 C1062 1.561 . S
C1060 C1063 1.526 . S
C1061 H1045 0.959 . S
C1061 H1046 0.959 . S
C1061 H1047 0.961 . S
C1061 C1060 1.502 . S
C1062 H1048 0.960 . S
C1062 H1049 0.961 . S
C1062 H1050 0.959 . S
C1062 C1060 1.561 . S
C1063 C1060 1.526 . S
C1063 C1064 1.396 . S
C1063 C1068 1.390 . S
C1064 C1058 1.465 . S
C1064 C1063 1.396 . S
C1064 C1065 1.399 . S
C1065 H1051 0.929 . S
C1065 C1064 1.399 . S
C1065 C1066 1.385 . S
C1066 H1052 0.931 . S
C1066 C1065 1.385 . S
C1066 C1067 1.389 . S
C1067 C1066 1.389 . S
C1067 C1068 1.387 . S
C1068 H1053 0.930 . S
C1068 C1063 1.390 . S
C1068 C1067 1.387 . S
H1069 C1081 0.930 . S
H1070 C1083 0.930 . S
H1071 C1084 0.930 . S
H1072 C1088 0.959 . S
H1073 C1088 0.959 . S
H1074 C1088 0.961 . S
H1075 C1089 0.960 . S
H1076 C1089 0.961 . S
H1077 C1089 0.959 . S
H1078 C1092 0.929 . S
H1079 C1093 0.931 . S
H1080 C1095 0.930 . S
C1081 H1069 0.930 . S
C1081 C1082 1.399 . S
C1081 C1086 1.399 . S
C1082 C1081 1.399 . S
C1082 C1083 1.376 . S
C1083 H1070 0.930 . S
C1083 C1082 1.376 . S
C1083 C1084 1.388 . S
C1084 H1071 0.930 . S
C1084 C1083 1.388 . S
C1084 C1085 1.390 . S
C1085 C1084 1.390 . S
C1085 C1086 1.394 . S
C1085 C1091 1.465 . S
C1086 C1081 1.399 . S
C1086 C1085 1.394 . S
C1086 C1087 1.516 . S
C1087 C1086 1.516 . S
C1087 C1088 1.502 . S
C1087 C1089 1.561 . S
C1087 C1090 1.526 . S
C1088 H1072 0.959 . S
C1088 H1073 0.959 . S
C1088 H1074 0.961 . S
C1088 C1087 1.502 . S
C1089 H1075 0.960 . S
C1089 H1076 0.961 . S
C1089 H1077 0.959 . S
C1089 C1087 1.561 . S
C1090 C1087 1.526 . S
C1090 C1091 1.396 . S
C1090 C1095 1.390 . S
C1091 C1085 1.465 . S
C1091 C1090 1.396 . S
C1091 C1092 1.399 . S
C1092 H1078 0.929 . S
C1092 C1091 1.399 . S
C1092 C1093 1.385 . S
C1093 H1079 0.931 . S
C1093 C1092 1.385 . S
C1093 C1094 1.389 . S
C1094 C1093 1.389 . S
C1094 C1095 1.387 . S
C1095 H1080 0.930 . S
C1095 C1090 1.390 . S
C1095 C1094 1.387 . S
H1096 C1108 0.930 . S
H1097 C1110 0.930 . S
H1098 C1111 0.930 . S
H1099 C1115 0.959 . S
H1100 C1115 0.959 . S
H1101 C1115 0.961 . S
H1102 C1116 0.960 . S
H1103 C1116 0.961 . S
H1104 C1116 0.959 . S
H1105 C1119 0.929 . S
H1106 C1120 0.931 . S
H1107 C1122 0.930 . S
C1108 H1096 0.930 . S
C1108 C1109 1.399 . S
C1108 C1113 1.399 . S
C1109 C1108 1.399 . S
C1109 C1110 1.376 . S
C1110 H1097 0.930 . S
C1110 C1109 1.376 . S
C1110 C1111 1.388 . S
C1111 H1098 0.930 . S
C1111 C1110 1.388 . S
C1111 C1112 1.390 . S
C1112 C1111 1.390 . S
C1112 C1113 1.394 . S
C1112 C1118 1.465 . S
C1113 C1108 1.399 . S
C1113 C1112 1.394 . S
C1113 C1114 1.516 . S
C1114 C1113 1.516 . S
C1114 C1115 1.502 . S
C1114 C1116 1.561 . S
C1114 C1117 1.526 . S
C1115 H1099 0.959 . S
C1115 H1100 0.959 . S
C1115 H1101 0.961 . S
C1115 C1114 1.502 . S
C1116 H1102 0.960 . S
C1116 H1103 0.961 . S
C1116 H1104 0.959 . S
C1116 C1114 1.561 . S
C1117 C1114 1.526 . S
C1117 C1118 1.396 . S
C1117 C1122 1.390 . S
C1118 C1112 1.465 . S
C1118 C1117 1.396 . S
C1118 C1119 1.399 . S
C1119 H1105 0.929 . S
C1119 C1118 1.399 . S
C1119 C1120 1.385 . S
C1120 H1106 0.931 . S
C1120 C1119 1.385 . S
C1120 C1121 1.389 . S
C1121 C1120 1.389 . S
C1121 C1122 1.387 . S
C1122 H1107 0.930 . S
C1122 C1117 1.390 . S
C1122 C1121 1.387 . S
H1123 C1135 0.930 . S
H1124 C1137 0.930 . S
H1125 C1138 0.930 . S
H1126 C1142 0.959 . S
H1127 C1142 0.959 . S
H1128 C1142 0.961 . S
H1129 C1143 0.960 . S
H1130 C1143 0.961 . S
H1131 C1143 0.959 . S
H1132 C1146 0.929 . S
H1133 C1147 0.931 . S
H1134 C1149 0.930 . S
C1135 H1123 0.930 . S
C1135 C1136 1.399 . S
C1135 C1140 1.399 . S
C1136 C1135 1.399 . S
C1136 C1137 1.376 . S
C1137 H1124 0.930 . S
C1137 C1136 1.376 . S
C1137 C1138 1.388 . S
C1138 H1125 0.930 . S
C1138 C1137 1.388 . S
C1138 C1139 1.390 . S
C1139 C1138 1.390 . S
C1139 C1140 1.394 . S
C1139 C1145 1.465 . S
C1140 C1135 1.399 . S
C1140 C1139 1.394 . S
C1140 C1141 1.516 . S
C1141 C1140 1.516 . S
C1141 C1142 1.502 . S
C1141 C1143 1.561 . S
C1141 C1144 1.526 . S
C1142 H1126 0.959 . S
C1142 H1127 0.959 . S
C1142 H1128 0.961 . S
C1142 C1141 1.502 . S
C1143 H1129 0.960 . S
C1143 H1130 0.961 . S
C1143 H1131 0.959 . S
C1143 C1141 1.561 . S
C1144 C1141 1.526 . S
C1144 C1145 1.396 . S
C1144 C1149 1.390 . S
C1145 C1139 1.465 . S
C1145 C1144 1.396 . S
C1145 C1146 1.399 . S
C1146 H1132 0.929 . S
C1146 C1145 1.399 . S
C1146 C1147 1.385 . S
C1147 H1133 0.931 . S
C1147 C1146 1.385 . S
C1147 C1148 1.389 . S
C1148 C1147 1.389 . S
C1148 C1149 1.387 . S
C1149 H1134 0.930 . S
C1149 C1144 1.390 . S
C1149 C1148 1.387 . S
H1150 C1162 0.930 . S
H1151 C1164 0.930 . S
H1152 C1165 0.930 . S
H1153 C1169 0.959 . S
H1154 C1169 0.959 . S
H1155 C1169 0.961 . S
H1156 C1170 0.960 . S
H1157 C1170 0.961 . S
H1158 C1170 0.959 . S
H1159 C1173 0.929 . S
H1160 C1174 0.931 . S
H1161 C1176 0.930 . S
C1162 H1150 0.930 . S
C1162 C1163 1.399 . S
C1162 C1167 1.399 . S
C1163 C1162 1.399 . S
C1163 C1164 1.376 . S
C1164 H1151 0.930 . S
C1164 C1163 1.376 . S
C1164 C1165 1.388 . S
C1165 H1152 0.930 . S
C1165 C1164 1.388 . S
C1165 C1166 1.390 . S
C1166 C1165 1.390 . S
C1166 C1167 1.394 . S
C1166 C1172 1.465 . S
C1167 C1162 1.399 . S
C1167 C1166 1.394 . S
C1167 C1168 1.516 . S
C1168 C1167 1.516 . S
C1168 C1169 1.502 . S
C1168 C1170 1.561 . S
C1168 C1171 1.526 . S
C1169 H1153 0.959 . S
C1169 H1154 0.959 . S
C1169 H1155 0.961 . S
C1169 C1168 1.502 . S
C1170 H1156 0.960 . S
C1170 H1157 0.961 . S
C1170 H1158 0.959 . S
C1170 C1168 1.561 . S
C1171 C1168 1.526 . S
C1171 C1172 1.396 . S
C1171 C1176 1.390 . S
C1172 C1166 1.465 . S
C1172 C1171 1.396 . S
C1172 C1173 1.399 . S
C1173 H1159 0.929 . S
C1173 C1172 1.399 . S
C1173 C1174 1.385 . S
C1174 H1160 0.931 . S
C1174 C1173 1.385 . S
C1174 C1175 1.389 . S
C1175 C1174 1.389 . S
C1175 C1176 1.387 . S
C1176 H1161 0.930 . S
C1176 C1171 1.390 . S
C1176 C1175 1.387 . S
H1177 C1189 0.930 . S
H1178 C1191 0.930 . S
H1179 C1192 0.930 . S
H1180 C1196 0.959 . S
H1181 C1196 0.959 . S
H1182 C1196 0.961 . S
H1183 C1197 0.960 . S
H1184 C1197 0.961 . S
H1185 C1197 0.959 . S
H1186 C1200 0.929 . S
H1187 C1201 0.931 . S
H1188 C1203 0.930 . S
C1189 H1177 0.930 . S
C1189 C1190 1.399 . S
C1189 C1194 1.399 . S
C1190 C1189 1.399 . S
C1190 C1191 1.376 . S
C1191 H1178 0.930 . S
C1191 C1190 1.376 . S
C1191 C1192 1.388 . S
C1192 H1179 0.930 . S
C1192 C1191 1.388 . S
C1192 C1193 1.390 . S
C1193 C1192 1.390 . S
C1193 C1194 1.394 . S
C1193 C1199 1.465 . S
C1194 C1189 1.399 . S
C1194 C1193 1.394 . S
C1194 C1195 1.516 . S
C1195 C1194 1.516 . S
C1195 C1196 1.502 . S
C1195 C1197 1.561 . S
C1195 C1198 1.526 . S
C1196 H1180 0.959 . S
C1196 H1181 0.959 . S
C1196 H1182 0.961 . S
C1196 C1195 1.502 . S
C1197 H1183 0.960 . S
C1197 H1184 0.961 . S
C1197 H1185 0.959 . S
C1197 C1195 1.561 . S
C1198 C1195 1.526 . S
C1198 C1199 1.396 . S
C1198 C1203 1.390 . S
C1199 C1193 1.465 . S
C1199 C1198 1.396 . S
C1199 C1200 1.399 . S
C1200 H1186 0.929 . S
C1200 C1199 1.399 . S
C1200 C1201 1.385 . S
C1201 H1187 0.931 . S
C1201 C1200 1.385 . S
C1201 C1202 1.389 . S
C1202 C1201 1.389 . S
C1202 C1203 1.387 . S
C1203 H1188 0.930 . S
C1203 C1198 1.390 . S
C1203 C1202 1.387 . S
H1204 C1216 0.930 . S
H1205 C1218 0.930 . S
H1206 C1219 0.930 . S
H1207 C1223 0.962 . S
H1208 C1223 0.980 . S
H1209 C1223 0.938 1_556 S
H1210 C1224 0.957 1_556 S
H1211 C1224 0.964 . S
H1212 C1224 0.959 . S
H1213 C1227 0.929 . S
H1214 C1228 0.931 . S
H1215 C1230 0.930 . S
C1216 H1204 0.930 . S
C1216 C1217 1.399 . S
C1216 C1221 1.399 . S
C1217 C1216 1.399 . S
C1217 C1218 1.376 . S
C1218 H1205 0.930 . S
C1218 C1217 1.376 . S
C1218 C1219 1.388 . S
C1219 H1206 0.930 . S
C1219 C1218 1.388 . S
C1219 C1220 1.390 . S
C1220 C1219 1.390 . S
C1220 C1221 1.394 . S
C1220 C1226 1.465 1_556 S
C1221 C1216 1.399 . S
C1221 C1220 1.394 . S
C1221 C1222 1.516 1_556 S
C1222 C1221 1.516 1_554 S
C1222 C1223 1.502 . S
C1222 C1224 1.561 . S
C1222 C1225 1.526 . S
C1223 H1207 0.962 . S
C1223 H1208 0.980 . S
C1223 H1209 0.938 1_554 S
C1223 C1222 1.502 . S
C1224 H1210 0.957 1_554 S
C1224 H1211 0.964 . S
C1224 H1212 0.959 . S
C1224 C1222 1.561 . S
C1225 C1222 1.526 . S
C1225 C1226 1.396 . S
C1225 C1230 1.390 . S
C1226 C1220 1.465 1_554 S
C1226 C1225 1.396 . S
C1226 C1227 1.399 . S
C1227 H1213 0.929 . S
C1227 C1226 1.399 . S
C1227 C1228 1.385 . S
C1228 H1214 0.931 . S
C1228 C1227 1.385 . S
C1228 C1229 1.389 . S
C1229 C1228 1.389 . S
C1229 C1230 1.387 . S
C1230 H1215 0.930 . S
C1230 C1225 1.390 . S
C1230 C1229 1.387 . S
H1231 C1243 0.930 . S
H1232 C1245 0.930 . S
H1233 C1246 0.930 . S
H1234 C1250 0.962 . S
H1235 C1250 0.980 . S
H1236 C1250 0.938 1_554 S
H1237 C1251 0.957 1_554 S
H1238 C1251 0.964 . S
H1239 C1251 0.959 . S
H1240 C1254 0.929 . S
H1241 C1255 0.931 . S
H1242 C1257 0.930 . S
C1243 H1231 0.930 . S
C1243 C1244 1.399 . S
C1243 C1248 1.399 . S
C1244 C1243 1.399 . S
C1244 C1245 1.376 . S
C1245 H1232 0.930 . S
C1245 C1244 1.376 . S
C1245 C1246 1.388 . S
C1246 H1233 0.930 . S
C1246 C1245 1.388 . S
C1246 C1247 1.390 . S
C1247 C1246 1.390 . S
C1247 C1248 1.394 . S
C1247 C1253 1.465 1_554 S
C1248 C1243 1.399 . S
C1248 C1247 1.394 . S
C1248 C1249 1.516 1_554 S
C1249 C1248 1.516 1_556 S
C1249 C1250 1.502 . S
C1249 C1251 1.561 . S
C1249 C1252 1.526 . S
C1250 H1234 0.962 . S
C1250 H1235 0.980 . S
C1250 H1236 0.938 1_556 S
C1250 C1249 1.502 . S
C1251 H1237 0.957 1_556 S
C1251 H1238 0.964 . S
C1251 H1239 0.959 . S
C1251 C1249 1.561 . S
C1252 C1249 1.526 . S
C1252 C1253 1.396 . S
C1252 C1257 1.390 . S
C1253 C1247 1.465 1_556 S
C1253 C1252 1.396 . S
C1253 C1254 1.399 . S
C1254 H1240 0.929 . S
C1254 C1253 1.399 . S
C1254 C1255 1.385 . S
C1255 H1241 0.931 . S
C1255 C1254 1.385 . S
C1255 C1256 1.389 . S
C1256 C1255 1.389 . S
C1256 C1257 1.387 . S
C1257 H1242 0.930 . S
C1257 C1252 1.390 . S
C1257 C1256 1.387 . S
H1258 C1270 0.930 . S
H1259 C1272 0.930 . S
H1260 C1273 0.930 . S
H1261 C1277 0.962 . S
H1262 C1277 0.980 . S
H1263 C1277 0.938 1_554 S
H1264 C1278 0.957 1_554 S
H1265 C1278 0.964 . S
H1266 C1278 0.959 . S
H1267 C1281 0.929 . S
H1268 C1282 0.931 . S
H1269 C1284 0.930 . S
C1270 H1258 0.930 . S
C1270 C1271 1.399 . S
C1270 C1275 1.399 . S
C1271 C1270 1.399 . S
C1271 C1272 1.376 . S
C1272 H1259 0.930 . S
C1272 C1271 1.376 . S
C1272 C1273 1.388 . S
C1273 H1260 0.930 . S
C1273 C1272 1.388 . S
C1273 C1274 1.390 . S
C1274 C1273 1.390 . S
C1274 C1275 1.394 . S
C1274 C1280 1.465 1_554 S
C1275 C1270 1.399 . S
C1275 C1274 1.394 . S
C1275 C1276 1.516 1_554 S
C1276 C1275 1.516 1_556 S
C1276 C1277 1.502 . S
C1276 C1278 1.561 . S
C1276 C1279 1.526 . S
C1277 H1261 0.962 . S
C1277 H1262 0.980 . S
C1277 H1263 0.938 1_556 S
C1277 C1276 1.502 . S
C1278 H1264 0.957 1_556 S
C1278 H1265 0.964 . S
C1278 H1266 0.959 . S
C1278 C1276 1.561 . S
C1279 C1276 1.526 . S
C1279 C1280 1.396 . S
C1279 C1284 1.390 . S
C1280 C1274 1.465 1_556 S
C1280 C1279 1.396 . S
C1280 C1281 1.399 . S
C1281 H1267 0.929 . S
C1281 C1280 1.399 . S
C1281 C1282 1.385 . S
C1282 H1268 0.931 . S
C1282 C1281 1.385 . S
C1282 C1283 1.389 . S
C1283 C1282 1.389 . S
C1283 C1284 1.387 . S
C1284 H1269 0.930 . S
C1284 C1279 1.390 . S
C1284 C1283 1.387 . S
H1285 C1297 0.930 . S
H1286 C1299 0.930 . S
H1287 C1300 0.930 . S
H1288 C1304 0.962 . S
H1289 C1304 0.980 . S
H1290 C1304 0.938 1_556 S
H1291 C1305 0.957 1_556 S
H1292 C1305 0.964 . S
H1293 C1305 0.959 . S
H1294 C1308 0.929 . S
H1295 C1309 0.931 . S
H1296 C1311 0.930 . S
C1297 H1285 0.930 . S
C1297 C1298 1.399 . S
C1297 C1302 1.399 . S
C1298 C1297 1.399 . S
C1298 C1299 1.376 . S
C1299 H1286 0.930 . S
C1299 C1298 1.376 . S
C1299 C1300 1.388 . S
C1300 H1287 0.930 . S
C1300 C1299 1.388 . S
C1300 C1301 1.390 . S
C1301 C1300 1.390 . S
C1301 C1302 1.394 . S
C1301 C1307 1.465 1_556 S
C1302 C1297 1.399 . S
C1302 C1301 1.394 . S
C1302 C1303 1.516 1_556 S
C1303 C1302 1.516 1_554 S
C1303 C1304 1.502 . S
C1303 C1305 1.561 . S
C1303 C1306 1.526 . S
C1304 H1288 0.962 . S
C1304 H1289 0.980 . S
C1304 H1290 0.938 1_554 S
C1304 C1303 1.502 . S
C1305 H1291 0.957 1_554 S
C1305 H1292 0.964 . S
C1305 H1293 0.959 . S
C1305 C1303 1.561 . S
C1306 C1303 1.526 . S
C1306 C1307 1.396 . S
C1306 C1311 1.390 . S
C1307 C1301 1.465 1_554 S
C1307 C1306 1.396 . S
C1307 C1308 1.399 . S
C1308 H1294 0.929 . S
C1308 C1307 1.399 . S
C1308 C1309 1.385 . S
C1309 H1295 0.931 . S
C1309 C1308 1.385 . S
C1309 C1310 1.389 . S
C1310 C1309 1.389 . S
C1310 C1311 1.387 . S
C1311 H1296 0.930 . S
C1311 C1306 1.390 . S
C1311 C1310 1.387 . S
H1312 C1324 0.930 . S
H1313 C1326 0.930 . S
H1314 C1327 0.930 1_565 S
H1315 C1331 0.959 . S
H1316 C1331 0.959 . S
H1317 C1331 0.961 . S
H1318 C1332 0.960 . S
H1319 C1332 0.961 . S
H1320 C1332 0.959 . S
H1321 C1335 0.929 . S
H1322 C1336 0.931 . S
H1323 C1338 0.930 . S
C1324 H1312 0.930 . S
C1324 C1325 1.399 . S
C1324 C1329 1.399 . S
C1325 C1324 1.399 . S
C1325 C1326 1.376 . S
C1326 H1313 0.930 . S
C1326 C1325 1.376 . S
C1326 C1327 1.388 . S
C1327 H1314 0.930 1_545 S
C1327 C1326 1.388 . S
C1327 C1328 1.390 . S
C1328 C1327 1.390 . S
C1328 C1329 1.394 . S
C1328 C1334 1.465 1_545 S
C1329 C1324 1.399 . S
C1329 C1328 1.394 . S
C1329 C1330 1.516 . S
C1330 C1329 1.516 . S
C1330 C1331 1.502 . S
C1330 C1332 1.561 . S
C1330 C1333 1.526 1_545 S
C1331 H1315 0.959 . S
C1331 H1316 0.959 . S
C1331 H1317 0.961 . S
C1331 C1330 1.502 . S
C1332 H1318 0.960 . S
C1332 H1319 0.961 . S
C1332 H1320 0.959 . S
C1332 C1330 1.561 . S
C1333 C1330 1.526 1_565 S
C1333 C1334 1.396 . S
C1333 C1338 1.390 . S
C1334 C1328 1.465 1_565 S
C1334 C1333 1.396 . S
C1334 C1335 1.399 . S
C1335 H1321 0.929 . S
C1335 C1334 1.399 . S
C1335 C1336 1.385 . S
C1336 H1322 0.931 . S
C1336 C1335 1.385 . S
C1336 C1337 1.389 . S
C1337 C1336 1.389 . S
C1337 C1338 1.387 . S
C1338 H1323 0.930 . S
C1338 C1333 1.390 . S
C1338 C1337 1.387 . S
H1339 C1351 0.930 . S
H1340 C1353 0.930 . S
H1341 C1354 0.930 . S
H1342 C1358 0.959 . S
H1343 C1358 0.959 . S
H1344 C1358 0.961 . S
H1345 C1359 0.960 1_655 S
H1346 C1359 0.961 . S
H1347 C1359 0.959 . S
H1348 C1362 0.929 . S
H1349 C1363 0.931 . S
H1350 C1365 0.930 . S
C1351 H1339 0.930 . S
C1351 C1352 1.399 . S
C1351 C1356 1.399 . S
C1352 C1351 1.399 . S
C1352 C1353 1.376 . S
C1353 H1340 0.930 . S
C1353 C1352 1.376 . S
C1353 C1354 1.388 . S
C1354 H1341 0.930 . S
C1354 C1353 1.388 . S
C1354 C1355 1.390 . S
C1355 C1354 1.390 . S
C1355 C1356 1.394 . S
C1355 C1361 1.465 1_655 S
C1356 C1351 1.399 . S
C1356 C1355 1.394 . S
C1356 C1357 1.516 . S
C1357 C1356 1.516 . S
C1357 C1358 1.502 . S
C1357 C1359 1.561 1_655 S
C1357 C1360 1.526 1_655 S
C1358 H1342 0.959 . S
C1358 H1343 0.959 . S
C1358 H1344 0.961 . S
C1358 C1357 1.502 . S
C1359 H1345 0.960 1_455 S
C1359 H1346 0.961 . S
C1359 H1347 0.959 . S
C1359 C1357 1.561 1_455 S
C1360 C1357 1.526 1_455 S
C1360 C1361 1.396 . S
C1360 C1365 1.390 . S
C1361 C1355 1.465 1_455 S
C1361 C1360 1.396 . S
C1361 C1362 1.399 . S
C1362 H1348 0.929 . S
C1362 C1361 1.399 . S
C1362 C1363 1.385 . S
C1363 H1349 0.931 . S
C1363 C1362 1.385 . S
C1363 C1364 1.389 . S
C1364 C1363 1.389 . S
C1364 C1365 1.387 . S
C1365 H1350 0.930 . S
C1365 C1360 1.390 . S
C1365 C1364 1.387 . S
H1366 C1378 0.930 . S
H1367 C1380 0.930 . S
H1368 C1381 0.930 . S
H1369 C1385 0.988 . S
H1370 C1385 0.959 . S
H1371 C1385 0.971 . S
H1372 C1386 0.960 . S
H1373 C1386 0.961 . S
H1374 C1386 0.959 . S
H1375 C1389 0.929 . S
H1376 C1390 0.931 . S
H1377 C1392 0.930 . S
C1378 H1366 0.930 . S
C1378 C1379 1.399 . S
C1378 C1383 1.399 . S
C1379 C1378 1.399 . S
C1379 C1380 1.376 . S
C1380 H1367 0.930 . S
C1380 C1379 1.376 . S
C1380 C1381 1.388 . S
C1381 H1368 0.930 . S
C1381 C1380 1.388 . S
C1381 C1382 1.390 . S
C1382 C1381 1.390 . S
C1382 C1383 1.394 . S
C1382 C1388 1.465 1_545 S
C1383 C1378 1.399 . S
C1383 C1382 1.394 . S
C1383 C1384 1.516 1_545 S
C1384 C1383 1.516 1_565 S
C1384 C1385 1.502 . S
C1384 C1386 1.561 . S
C1384 C1387 1.526 . S
C1385 H1369 0.988 . S
C1385 H1370 0.959 . S
C1385 H1371 0.971 . S
C1385 C1384 1.502 . S
C1386 H1372 0.960 . S
C1386 H1373 0.961 . S
C1386 H1374 0.959 . S
C1386 C1384 1.561 . S
C1387 C1384 1.526 . S
C1387 C1388 1.396 . S
C1387 C1392 1.390 . S
C1388 C1382 1.465 1_565 S
C1388 C1387 1.396 . S
C1388 C1389 1.399 . S
C1389 H1375 0.929 . S
C1389 C1388 1.399 . S
C1389 C1390 1.385 . S
C1390 H1376 0.931 . S
C1390 C1389 1.385 . S
C1390 C1391 1.389 . S
C1391 C1390 1.389 . S
C1391 C1392 1.387 . S
C1392 H1377 0.930 . S
C1392 C1387 1.390 . S
C1392 C1391 1.387 . S
H1393 C1405 0.930 . S
H1394 C1407 0.930 . S
H1395 C1408 0.930 . S
H1396 C1412 0.959 . S
H1397 C1412 0.959 . S
H1398 C1412 0.961 . S
H1399 C1413 0.960 . S
H1400 C1413 0.961 1_655 S
H1401 C1413 0.959 . S
H1402 C1416 0.929 . S
H1403 C1417 0.931 . S
H1404 C1419 0.930 . S
C1405 H1393 0.930 . S
C1405 C1406 1.399 . S
C1405 C1410 1.399 . S
C1406 C1405 1.399 . S
C1406 C1407 1.376 . S
C1407 H1394 0.930 . S
C1407 C1406 1.376 . S
C1407 C1408 1.388 . S
C1408 H1395 0.930 . S
C1408 C1407 1.388 . S
C1408 C1409 1.390 . S
C1409 C1408 1.390 . S
C1409 C1410 1.394 . S
C1409 C1415 1.465 1_455 S
C1410 C1405 1.399 . S
C1410 C1409 1.394 . S
C1410 C1411 1.516 1_455 S
C1411 C1410 1.516 1_655 S
C1411 C1412 1.502 . S
C1411 C1413 1.561 1_655 S
C1411 C1414 1.526 . S
C1412 H1396 0.959 . S
C1412 H1397 0.959 . S
C1412 H1398 0.961 . S
C1412 C1411 1.502 . S
C1413 H1399 0.960 . S
C1413 H1400 0.961 1_455 S
C1413 H1401 0.959 . S
C1413 C1411 1.561 1_455 S
C1414 C1411 1.526 . S
C1414 C1415 1.396 . S
C1414 C1419 1.390 . S
C1415 C1409 1.465 1_655 S
C1415 C1414 1.396 . S
C1415 C1416 1.399 . S
C1416 H1402 0.929 . S
C1416 C1415 1.399 . S
C1416 C1417 1.385 . S
C1417 H1403 0.931 . S
C1417 C1416 1.385 . S
C1417 C1418 1.389 . S
C1418 C1417 1.389 . S
C1418 C1419 1.387 . S
C1419 H1404 0.930 . S
C1419 C1414 1.390 . S
C1419 C1418 1.387 . S
H1420 C1432 0.930 . S
H1421 C1434 0.930 . S
H1422 C1435 0.930 . S
H1423 C1439 0.959 . S
H1424 C1439 0.959 . S
H1425 C1439 0.961 . S
H1426 C1440 0.960 . S
H1427 C1440 0.961 . S
H1428 C1440 0.959 . S
H1429 C1443 0.929 1_565 S
H1430 C1444 0.931 . S
H1431 C1446 0.930 . S
C1432 H1420 0.930 . S
C1432 C1433 1.399 . S
C1432 C1437 1.399 . S
C1433 C1432 1.399 . S
C1433 C1434 1.376 . S
C1434 H1421 0.930 . S
C1434 C1433 1.376 . S
C1434 C1435 1.388 . S
C1435 H1422 0.930 . S
C1435 C1434 1.388 . S
C1435 C1436 1.390 . S
C1436 C1435 1.390 . S
C1436 C1437 1.394 . S
C1436 C1442 1.465 1_565 S
C1437 C1432 1.399 . S
C1437 C1436 1.394 . S
C1437 C1438 1.516 1_565 S
C1438 C1437 1.516 1_545 S
C1438 C1439 1.502 . S
C1438 C1440 1.561 . S
C1438 C1441 1.526 . S
C1439 H1423 0.959 . S
C1439 H1424 0.959 . S
C1439 H1425 0.961 . S
C1439 C1438 1.502 . S
C1440 H1426 0.960 . S
C1440 H1427 0.961 . S
C1440 H1428 0.959 . S
C1440 C1438 1.561 . S
C1441 C1438 1.526 . S
C1441 C1442 1.396 . S
C1441 C1446 1.390 . S
C1442 C1436 1.465 1_545 S
C1442 C1441 1.396 . S
C1442 C1443 1.399 . S
C1443 H1429 0.929 1_545 S
C1443 C1442 1.399 . S
C1443 C1444 1.385 . S
C1444 H1430 0.931 . S
C1444 C1443 1.385 . S
C1444 C1445 1.389 . S
C1445 C1444 1.389 . S
C1445 C1446 1.387 . S
C1446 H1431 0.930 . S
C1446 C1441 1.390 . S
C1446 C1445 1.387 . S
H1447 C1459 0.930 . S
H1448 C1461 0.930 . S
H1449 C1462 0.930 . S
H1450 C1466 0.959 . S
H1451 C1466 0.959 . S
H1452 C1466 0.961 . S
H1453 C1467 0.960 . S
H1454 C1467 0.961 1_455 S
H1455 C1467 0.959 . S
H1456 C1470 0.929 . S
H1457 C1471 0.931 . S
H1458 C1473 0.930 . S
C1459 H1447 0.930 . S
C1459 C1460 1.399 . S
C1459 C1464 1.399 . S
C1460 C1459 1.399 . S
C1460 C1461 1.376 . S
C1461 H1448 0.930 . S
C1461 C1460 1.376 . S
C1461 C1462 1.388 . S
C1462 H1449 0.930 . S
C1462 C1461 1.388 . S
C1462 C1463 1.390 . S
C1463 C1462 1.390 . S
C1463 C1464 1.394 . S
C1463 C1469 1.465 1_655 S
C1464 C1459 1.399 . S
C1464 C1463 1.394 . S
C1464 C1465 1.516 1_655 S
C1465 C1464 1.516 1_455 S
C1465 C1466 1.502 . S
C1465 C1467 1.561 1_455 S
C1465 C1468 1.526 . S
C1466 H1450 0.959 . S
C1466 H1451 0.959 . S
C1466 H1452 0.961 . S
C1466 C1465 1.502 . S
C1467 H1453 0.960 . S
C1467 H1454 0.961 1_655 S
C1467 H1455 0.959 . S
C1467 C1465 1.561 1_655 S
C1468 C1465 1.526 . S
C1468 C1469 1.396 . S
C1468 C1473 1.390 . S
C1469 C1463 1.465 1_455 S
C1469 C1468 1.396 . S
C1469 C1470 1.399 . S
C1470 H1456 0.929 . S
C1470 C1469 1.399 . S
C1470 C1471 1.385 . S
C1471 H1457 0.931 . S
C1471 C1470 1.385 . S
C1471 C1472 1.389 . S
C1472 C1471 1.389 . S
C1472 C1473 1.387 . S
C1473 H1458 0.930 . S
C1473 C1468 1.390 . S
C1473 C1472 1.387 . S
H1474 C1486 0.930 . S
H1475 C1488 0.930 . S
H1476 C1489 0.930 . S
H1477 C1493 0.985 . S
H1478 C1493 0.959 . S
H1479 C1493 0.968 . S
H1480 C1494 0.960 . S
H1481 C1494 0.961 . S
H1482 C1494 0.959 . S
H1483 C1497 0.929 . S
H1484 C1498 0.931 . S
H1485 C1500 0.930 . S
C1486 H1474 0.930 . S
C1486 C1487 1.399 . S
C1486 C1491 1.399 . S
C1487 C1486 1.399 . S
C1487 C1488 1.376 . S
C1488 H1475 0.930 . S
C1488 C1487 1.376 . S
C1488 C1489 1.388 . S
C1489 H1476 0.930 . S
C1489 C1488 1.388 . S
C1489 C1490 1.390 . S
C1490 C1489 1.390 . S
C1490 C1491 1.394 . S
C1490 C1496 1.465 1_565 S
C1491 C1486 1.399 . S
C1491 C1490 1.394 . S
C1491 C1492 1.516 1_565 S
C1492 C1491 1.516 1_545 S
C1492 C1493 1.502 . S
C1492 C1494 1.561 . S
C1492 C1495 1.526 . S
C1493 H1477 0.985 . S
C1493 H1478 0.959 . S
C1493 H1479 0.968 . S
C1493 C1492 1.502 . S
C1494 H1480 0.960 . S
C1494 H1481 0.961 . S
C1494 H1482 0.959 . S
C1494 C1492 1.561 . S
C1495 C1492 1.526 . S
C1495 C1496 1.396 . S
C1495 C1500 1.390 . S
C1496 C1490 1.465 1_545 S
C1496 C1495 1.396 . S
C1496 C1497 1.399 . S
C1497 H1483 0.929 . S
C1497 C1496 1.399 . S
C1497 C1498 1.385 . S
C1498 H1484 0.931 . S
C1498 C1497 1.385 . S
C1498 C1499 1.389 . S
C1499 C1498 1.389 . S
C1499 C1500 1.387 . S
C1500 H1485 0.930 . S
C1500 C1495 1.390 . S
C1500 C1499 1.387 . S
H1501 C1513 0.930 . S
H1502 C1515 0.930 . S
H1503 C1516 0.930 . S
H1504 C1520 0.959 . S
H1505 C1520 0.959 . S
H1506 C1520 0.961 . S
H1507 C1521 0.960 . S
H1508 C1521 0.961 1_455 S
H1509 C1521 0.959 . S
H1510 C1524 0.929 . S
H1511 C1525 0.931 . S
H1512 C1527 0.930 . S
C1513 H1501 0.930 . S
C1513 C1514 1.399 . S
C1513 C1518 1.399 . S
C1514 C1513 1.399 . S
C1514 C1515 1.376 . S
C1515 H1502 0.930 . S
C1515 C1514 1.376 . S
C1515 C1516 1.388 . S
C1516 H1503 0.930 . S
C1516 C1515 1.388 . S
C1516 C1517 1.390 . S
C1517 C1516 1.390 . S
C1517 C1518 1.394 . S
C1517 C1523 1.465 1_655 S
C1518 C1513 1.399 . S
C1518 C1517 1.394 . S
C1518 C1519 1.516 1_655 S
C1519 C1518 1.516 1_455 S
C1519 C1520 1.502 . S
C1519 C1521 1.561 1_455 S
C1519 C1522 1.526 . S
C1520 H1504 0.959 . S
C1520 H1505 0.959 . S
C1520 H1506 0.961 . S
C1520 C1519 1.502 . S
C1521 H1507 0.960 . S
C1521 H1508 0.961 1_655 S
C1521 H1509 0.959 . S
C1521 C1519 1.561 1_655 S
C1522 C1519 1.526 . S
C1522 C1523 1.396 . S
C1522 C1527 1.390 . S
C1523 C1517 1.465 1_455 S
C1523 C1522 1.396 . S
C1523 C1524 1.399 . S
C1524 H1510 0.929 . S
C1524 C1523 1.399 . S
C1524 C1525 1.385 . S
C1525 H1511 0.931 . S
C1525 C1524 1.385 . S
C1525 C1526 1.389 . S
C1526 C1525 1.389 . S
C1526 C1527 1.387 . S
C1527 H1512 0.930 . S
C1527 C1522 1.390 . S
C1527 C1526 1.387 . S
H1528 C1540 0.930 . S
H1529 C1542 0.930 . S
H1530 C1543 0.930 . S
H1531 C1547 0.959 . S
H1532 C1547 0.959 . S
H1533 C1547 0.961 . S
H1534 C1548 0.960 . S
H1535 C1548 0.961 . S
H1536 C1548 0.959 . S
H1537 C1551 0.929 . S
H1538 C1552 0.931 . S
H1539 C1554 0.930 . S
C1540 H1528 0.930 . S
C1540 C1541 1.399 . S
C1540 C1545 1.399 . S
C1541 C1540 1.399 . S
C1541 C1542 1.376 . S
C1542 H1529 0.930 . S
C1542 C1541 1.376 . S
C1542 C1543 1.388 . S
C1543 H1530 0.930 . S
C1543 C1542 1.388 . S
C1543 C1544 1.390 . S
C1544 C1543 1.390 . S
C1544 C1545 1.394 . S
C1544 C1550 1.465 . S
C1545 C1540 1.399 . S
C1545 C1544 1.394 . S
C1545 C1546 1.516 . S
C1546 C1545 1.516 . S
C1546 C1547 1.502 . S
C1546 C1548 1.561 . S
C1546 C1549 1.526 . S
C1547 H1531 0.959 . S
C1547 H1532 0.959 . S
C1547 H1533 0.961 . S
C1547 C1546 1.502 . S
C1548 H1534 0.960 . S
C1548 H1535 0.961 . S
C1548 H1536 0.959 . S
C1548 C1546 1.561 . S
C1549 C1546 1.526 . S
C1549 C1550 1.396 . S
C1549 C1554 1.390 . S
C1550 C1544 1.465 . S
C1550 C1549 1.396 . S
C1550 C1551 1.399 . S
C1551 H1537 0.929 . S
C1551 C1550 1.399 . S
C1551 C1552 1.385 . S
C1552 H1538 0.931 . S
C1552 C1551 1.385 . S
C1552 C1553 1.389 . S
C1553 C1552 1.389 . S
C1553 C1554 1.387 . S
C1554 H1539 0.930 . S
C1554 C1549 1.390 . S
C1554 C1553 1.387 . S
H1555 C1567 0.930 . S
H1556 C1569 0.930 . S
H1557 C1570 0.930 . S
H1558 C1574 0.959 . S
H1559 C1574 0.959 . S
H1560 C1574 0.961 . S
H1561 C1575 0.960 . S
H1562 C1575 0.961 . S
H1563 C1575 0.959 . S
H1564 C1578 0.929 . S
H1565 C1579 0.931 . S
H1566 C1581 0.930 . S
C1567 H1555 0.930 . S
C1567 C1568 1.399 . S
C1567 C1572 1.399 . S
C1568 C1567 1.399 . S
C1568 C1569 1.376 . S
C1569 H1556 0.930 . S
C1569 C1568 1.376 . S
C1569 C1570 1.388 . S
C1570 H1557 0.930 . S
C1570 C1569 1.388 . S
C1570 C1571 1.390 . S
C1571 C1570 1.390 . S
C1571 C1572 1.394 . S
C1571 C1577 1.465 . S
C1572 C1567 1.399 . S
C1572 C1571 1.394 . S
C1572 C1573 1.516 . S
C1573 C1572 1.516 . S
C1573 C1574 1.502 . S
C1573 C1575 1.561 . S
C1573 C1576 1.526 . S
C1574 H1558 0.959 . S
C1574 H1559 0.959 . S
C1574 H1560 0.961 . S
C1574 C1573 1.502 . S
C1575 H1561 0.960 . S
C1575 H1562 0.961 . S
C1575 H1563 0.959 . S
C1575 C1573 1.561 . S
C1576 C1573 1.526 . S
C1576 C1577 1.396 . S
C1576 C1581 1.390 . S
C1577 C1571 1.465 . S
C1577 C1576 1.396 . S
C1577 C1578 1.399 . S
C1578 H1564 0.929 . S
C1578 C1577 1.399 . S
C1578 C1579 1.385 . S
C1579 H1565 0.931 . S
C1579 C1578 1.385 . S
C1579 C1580 1.389 . S
C1580 C1579 1.389 . S
C1580 C1581 1.387 . S
C1581 H1566 0.930 . S
C1581 C1576 1.390 . S
C1581 C1580 1.387 . S
H1582 C1594 0.930 . S
H1583 C1596 0.930 . S
H1584 C1597 0.930 . S
H1585 C1601 0.959 . S
H1586 C1601 0.959 . S
H1587 C1601 0.961 . S
H1588 C1602 0.960 . S
H1589 C1602 0.961 . S
H1590 C1602 0.959 . S
H1591 C1605 0.929 . S
H1592 C1606 0.931 . S
H1593 C1608 0.930 . S
C1594 H1582 0.930 . S
C1594 C1595 1.399 . S
C1594 C1599 1.399 . S
C1595 C1594 1.399 . S
C1595 C1596 1.376 . S
C1596 H1583 0.930 . S
C1596 C1595 1.376 . S
C1596 C1597 1.388 . S
C1597 H1584 0.930 . S
C1597 C1596 1.388 . S
C1597 C1598 1.390 . S
C1598 C1597 1.390 . S
C1598 C1599 1.394 . S
C1598 C1604 1.465 . S
C1599 C1594 1.399 . S
C1599 C1598 1.394 . S
C1599 C1600 1.516 . S
C1600 C1599 1.516 . S
C1600 C1601 1.502 . S
C1600 C1602 1.561 . S
C1600 C1603 1.526 . S
C1601 H1585 0.959 . S
C1601 H1586 0.959 . S
C1601 H1587 0.961 . S
C1601 C1600 1.502 . S
C1602 H1588 0.960 . S
C1602 H1589 0.961 . S
C1602 H1590 0.959 . S
C1602 C1600 1.561 . S
C1603 C1600 1.526 . S
C1603 C1604 1.396 . S
C1603 C1608 1.390 . S
C1604 C1598 1.465 . S
C1604 C1603 1.396 . S
C1604 C1605 1.399 . S
C1605 H1591 0.929 . S
C1605 C1604 1.399 . S
C1605 C1606 1.385 . S
C1606 H1592 0.931 . S
C1606 C1605 1.385 . S
C1606 C1607 1.389 . S
C1607 C1606 1.389 . S
C1607 C1608 1.387 . S
C1608 H1593 0.930 . S
C1608 C1603 1.390 . S
C1608 C1607 1.387 . S
H1609 C1621 0.930 . S
H1610 C1623 0.930 . S
H1611 C1624 0.930 . S
H1612 C1628 0.959 . S
H1613 C1628 0.959 . S
H1614 C1628 0.961 . S
H1615 C1629 0.960 . S
H1616 C1629 0.961 . S
H1617 C1629 0.959 . S
H1618 C1632 0.929 . S
H1619 C1633 0.931 . S
H1620 C1635 0.930 . S
C1621 H1609 0.930 . S
C1621 C1622 1.399 . S
C1621 C1626 1.399 . S
C1622 C1621 1.399 . S
C1622 C1623 1.376 . S
C1623 H1610 0.930 . S
C1623 C1622 1.376 . S
C1623 C1624 1.388 . S
C1624 H1611 0.930 . S
C1624 C1623 1.388 . S
C1624 C1625 1.390 . S
C1625 C1624 1.390 . S
C1625 C1626 1.394 . S
C1625 C1631 1.465 . S
C1626 C1621 1.399 . S
C1626 C1625 1.394 . S
C1626 C1627 1.516 . S
C1627 C1626 1.516 . S
C1627 C1628 1.502 . S
C1627 C1629 1.561 . S
C1627 C1630 1.526 . S
C1628 H1612 0.959 . S
C1628 H1613 0.959 . S
C1628 H1614 0.961 . S
C1628 C1627 1.502 . S
C1629 H1615 0.960 . S
C1629 H1616 0.961 . S
C1629 H1617 0.959 . S
C1629 C1627 1.561 . S
C1630 C1627 1.526 . S
C1630 C1631 1.396 . S
C1630 C1635 1.390 . S
C1631 C1625 1.465 . S
C1631 C1630 1.396 . S
C1631 C1632 1.399 . S
C1632 H1618 0.929 . S
C1632 C1631 1.399 . S
C1632 C1633 1.385 . S
C1633 H1619 0.931 . S
C1633 C1632 1.385 . S
C1633 C1634 1.389 . S
C1634 C1633 1.389 . S
C1634 C1635 1.387 . S
C1635 H1620 0.930 . S
C1635 C1630 1.390 . S
C1635 C1634 1.387 . S
H1636 C1648 0.930 . S
H1637 C1650 0.930 . S
H1638 C1651 0.930 . S
H1639 C1655 0.959 . S
H1640 C1655 0.959 . S
H1641 C1655 0.961 . S
H1642 C1656 0.960 . S
H1643 C1656 0.961 . S
H1644 C1656 0.959 . S
H1645 C1659 0.929 . S
H1646 C1660 0.931 . S
H1647 C1662 0.930 . S
C1648 H1636 0.930 . S
C1648 C1649 1.399 . S
C1648 C1653 1.399 . S
C1649 C1648 1.399 . S
C1649 C1650 1.376 . S
C1650 H1637 0.930 . S
C1650 C1649 1.376 . S
C1650 C1651 1.388 . S
C1651 H1638 0.930 . S
C1651 C1650 1.388 . S
C1651 C1652 1.390 . S
C1652 C1651 1.390 . S
C1652 C1653 1.394 . S
C1652 C1658 1.465 . S
C1653 C1648 1.399 . S
C1653 C1652 1.394 . S
C1653 C1654 1.516 . S
C1654 C1653 1.516 . S
C1654 C1655 1.502 . S
C1654 C1656 1.561 . S
C1654 C1657 1.526 . S
C1655 H1639 0.959 . S
C1655 H1640 0.959 . S
C1655 H1641 0.961 . S
C1655 C1654 1.502 . S
C1656 H1642 0.960 . S
C1656 H1643 0.961 . S
C1656 H1644 0.959 . S
C1656 C1654 1.561 . S
C1657 C1654 1.526 . S
C1657 C1658 1.396 . S
C1657 C1662 1.390 . S
C1658 C1652 1.465 . S
C1658 C1657 1.396 . S
C1658 C1659 1.399 . S
C1659 H1645 0.929 . S
C1659 C1658 1.399 . S
C1659 C1660 1.385 . S
C1660 H1646 0.931 . S
C1660 C1659 1.385 . S
C1660 C1661 1.389 . S
C1661 C1660 1.389 . S
C1661 C1662 1.387 . S
C1662 H1647 0.930 . S
C1662 C1657 1.390 . S
C1662 C1661 1.387 . S
H1663 C1675 0.930 . S
H1664 C1677 0.930 . S
H1665 C1678 0.930 . S
H1666 C1682 0.959 . S
H1667 C1682 0.959 . S
H1668 C1682 0.961 . S
H1669 C1683 0.960 . S
H1670 C1683 0.961 . S
H1671 C1683 0.959 . S
H1672 C1686 0.929 . S
H1673 C1687 0.931 . S
H1674 C1689 0.930 . S
C1675 H1663 0.930 . S
C1675 C1676 1.399 . S
C1675 C1680 1.399 . S
C1676 C1675 1.399 . S
C1676 C1677 1.376 . S
C1677 H1664 0.930 . S
C1677 C1676 1.376 . S
C1677 C1678 1.388 . S
C1678 H1665 0.930 . S
C1678 C1677 1.388 . S
C1678 C1679 1.390 . S
C1679 C1678 1.390 . S
C1679 C1680 1.394 . S
C1679 C1685 1.465 . S
C1680 C1675 1.399 . S
C1680 C1679 1.394 . S
C1680 C1681 1.516 . S
C1681 C1680 1.516 . S
C1681 C1682 1.502 . S
C1681 C1683 1.561 . S
C1681 C1684 1.526 . S
C1682 H1666 0.959 . S
C1682 H1667 0.959 . S
C1682 H1668 0.961 . S
C1682 C1681 1.502 . S
C1683 H1669 0.960 . S
C1683 H1670 0.961 . S
C1683 H1671 0.959 . S
C1683 C1681 1.561 . S
C1684 C1681 1.526 . S
C1684 C1685 1.396 . S
C1684 C1689 1.390 . S
C1685 C1679 1.465 . S
C1685 C1684 1.396 . S
C1685 C1686 1.399 . S
C1686 H1672 0.929 . S
C1686 C1685 1.399 . S
C1686 C1687 1.385 . S
C1687 H1673 0.931 . S
C1687 C1686 1.385 . S
C1687 C1688 1.389 . S
C1688 C1687 1.389 . S
C1688 C1689 1.387 . S
C1689 H1674 0.930 . S
C1689 C1684 1.390 . S
C1689 C1688 1.387 . S
H1690 C1702 0.930 . S
H1691 C1704 0.930 . S
H1692 C1705 0.930 . S
H1693 C1709 0.959 . S
H1694 C1709 0.959 . S
H1695 C1709 0.961 . S
H1696 C1710 0.960 . S
H1697 C1710 0.961 . S
H1698 C1710 0.959 . S
H1699 C1713 0.929 . S
H1700 C1714 0.931 . S
H1701 C1716 0.930 . S
C1702 H1690 0.930 . S
C1702 C1703 1.399 . S
C1702 C1707 1.399 . S
C1703 C1702 1.399 . S
C1703 C1704 1.376 . S
C1704 H1691 0.930 . S
C1704 C1703 1.376 . S
C1704 C1705 1.388 . S
C1705 H1692 0.930 . S
C1705 C1704 1.388 . S
C1705 C1706 1.390 . S
C1706 C1705 1.390 . S
C1706 C1707 1.394 . S
C1706 C1712 1.465 . S
C1707 C1702 1.399 . S
C1707 C1706 1.394 . S
C1707 C1708 1.516 . S
C1708 C1707 1.516 . S
C1708 C1709 1.502 . S
C1708 C1710 1.561 . S
C1708 C1711 1.526 . S
C1709 H1693 0.959 . S
C1709 H1694 0.959 . S
C1709 H1695 0.961 . S
C1709 C1708 1.502 . S
C1710 H1696 0.960 . S
C1710 H1697 0.961 . S
C1710 H1698 0.959 . S
C1710 C1708 1.561 . S
C1711 C1708 1.526 . S
C1711 C1712 1.396 . S
C1711 C1716 1.390 . S
C1712 C1706 1.465 . S
C1712 C1711 1.396 . S
C1712 C1713 1.399 . S
C1713 H1699 0.929 . S
C1713 C1712 1.399 . S
C1713 C1714 1.385 . S
C1714 H1700 0.931 . S
C1714 C1713 1.385 . S
C1714 C1715 1.389 . S
C1715 C1714 1.389 . S
C1715 C1716 1.387 . S
C1716 H1701 0.930 . S
C1716 C1711 1.390 . S
C1716 C1715 1.387 . S
H1717 C1729 0.930 . S
H1718 C1731 0.930 . S
H1719 C1732 0.930 . S
H1720 C1736 0.959 . S
H1721 C1736 0.959 . S
H1722 C1736 0.961 . S
H1723 C1737 0.960 . S
H1724 C1737 0.961 . S
H1725 C1737 0.959 . S
H1726 C1740 0.929 . S
H1727 C1741 0.931 . S
H1728 C1743 0.930 . S
C1729 H1717 0.930 . S
C1729 C1730 1.399 . S
C1729 C1734 1.399 . S
C1730 C1729 1.399 . S
C1730 C1731 1.376 . S
C1731 H1718 0.930 . S
C1731 C1730 1.376 . S
C1731 C1732 1.388 . S
C1732 H1719 0.930 . S
C1732 C1731 1.388 . S
C1732 C1733 1.390 . S
C1733 C1732 1.390 . S
C1733 C1734 1.394 . S
C1733 C1739 1.465 . S
C1734 C1729 1.399 . S
C1734 C1733 1.394 . S
C1734 C1735 1.516 . S
C1735 C1734 1.516 . S
C1735 C1736 1.502 . S
C1735 C1737 1.561 . S
C1735 C1738 1.526 . S
C1736 H1720 0.959 . S
C1736 H1721 0.959 . S
C1736 H1722 0.961 . S
C1736 C1735 1.502 . S
C1737 H1723 0.960 . S
C1737 H1724 0.961 . S
C1737 H1725 0.959 . S
C1737 C1735 1.561 . S
C1738 C1735 1.526 . S
C1738 C1739 1.396 . S
C1738 C1743 1.390 . S
C1739 C1733 1.465 . S
C1739 C1738 1.396 . S
C1739 C1740 1.399 . S
C1740 H1726 0.929 . S
C1740 C1739 1.399 . S
C1740 C1741 1.385 . S
C1741 H1727 0.931 . S
C1741 C1740 1.385 . S
C1741 C1742 1.389 . S
C1742 C1741 1.389 . S
C1742 C1743 1.387 . S
C1743 H1728 0.930 . S
C1743 C1738 1.390 . S
C1743 C1742 1.387 . S
H1744 C1756 0.930 . S
H1745 C1758 0.930 . S
H1746 C1759 0.930 . S
H1747 C1763 0.959 . S
H1748 C1763 0.959 . S
H1749 C1763 0.961 . S
H1750 C1764 0.960 . S
H1751 C1764 0.961 . S
H1752 C1764 0.959 . S
H1753 C1767 0.929 . S
H1754 C1768 0.931 . S
H1755 C1770 0.930 . S
C1756 H1744 0.930 . S
C1756 C1757 1.399 . S
C1756 C1761 1.399 . S
C1757 C1756 1.399 . S
C1757 C1758 1.376 . S
C1758 H1745 0.930 . S
C1758 C1757 1.376 . S
C1758 C1759 1.388 . S
C1759 H1746 0.930 . S
C1759 C1758 1.388 . S
C1759 C1760 1.390 . S
C1760 C1759 1.390 . S
C1760 C1761 1.394 . S
C1760 C1766 1.465 . S
C1761 C1756 1.399 . S
C1761 C1760 1.394 . S
C1761 C1762 1.516 . S
C1762 C1761 1.516 . S
C1762 C1763 1.502 . S
C1762 C1764 1.561 . S
C1762 C1765 1.526 . S
C1763 H1747 0.959 . S
C1763 H1748 0.959 . S
C1763 H1749 0.961 . S
C1763 C1762 1.502 . S
C1764 H1750 0.960 . S
C1764 H1751 0.961 . S
C1764 H1752 0.959 . S
C1764 C1762 1.561 . S
C1765 C1762 1.526 . S
C1765 C1766 1.396 . S
C1765 C1770 1.390 . S
C1766 C1760 1.465 . S
C1766 C1765 1.396 . S
C1766 C1767 1.399 . S
C1767 H1753 0.929 . S
C1767 C1766 1.399 . S
C1767 C1768 1.385 . S
C1768 H1754 0.931 . S
C1768 C1767 1.385 . S
C1768 C1769 1.389 . S
C1769 C1768 1.389 . S
C1769 C1770 1.387 . S
C1770 H1755 0.930 . S
C1770 C1765 1.390 . S
C1770 C1769 1.387 . S
H1771 C1783 0.930 . S
H1772 C1785 0.930 . S
H1773 C1786 0.930 . S
H1774 C1790 0.959 . S
H1775 C1790 0.959 . S
H1776 C1790 0.961 . S
H1777 C1791 0.960 . S
H1778 C1791 0.961 . S
H1779 C1791 0.959 . S
H1780 C1794 0.929 . S
H1781 C1795 0.931 . S
H1782 C1797 0.930 . S
C1783 H1771 0.930 . S
C1783 C1784 1.399 . S
C1783 C1788 1.399 . S
C1784 C1783 1.399 . S
C1784 C1785 1.376 . S
C1785 H1772 0.930 . S
C1785 C1784 1.376 . S
C1785 C1786 1.388 . S
C1786 H1773 0.930 . S
C1786 C1785 1.388 . S
C1786 C1787 1.390 . S
C1787 C1786 1.390 . S
C1787 C1788 1.394 . S
C1787 C1793 1.465 . S
C1788 C1783 1.399 . S
C1788 C1787 1.394 . S
C1788 C1789 1.516 . S
C1789 C1788 1.516 . S
C1789 C1790 1.502 . S
C1789 C1791 1.561 . S
C1789 C1792 1.526 . S
C1790 H1774 0.959 . S
C1790 H1775 0.959 . S
C1790 H1776 0.961 . S
C1790 C1789 1.502 . S
C1791 H1777 0.960 . S
C1791 H1778 0.961 . S
C1791 H1779 0.959 . S
C1791 C1789 1.561 . S
C1792 C1789 1.526 . S
C1792 C1793 1.396 . S
C1792 C1797 1.390 . S
C1793 C1787 1.465 . S
C1793 C1792 1.396 . S
C1793 C1794 1.399 . S
C1794 H1780 0.929 . S
C1794 C1793 1.399 . S
C1794 C1795 1.385 . S
C1795 H1781 0.931 . S
C1795 C1794 1.385 . S
C1795 C1796 1.389 . S
C1796 C1795 1.389 . S
C1796 C1797 1.387 . S
C1797 H1782 0.930 . S
C1797 C1792 1.390 . S
C1797 C1796 1.387 . S
H1798 C1810 0.930 . S
H1799 C1812 0.930 . S
H1800 C1813 0.930 . S
H1801 C1817 0.959 . S
H1802 C1817 0.959 . S
H1803 C1817 0.961 . S
H1804 C1818 0.960 . S
H1805 C1818 0.961 . S
H1806 C1818 0.959 . S
H1807 C1821 0.929 . S
H1808 C1822 0.931 . S
H1809 C1824 0.930 . S
C1810 H1798 0.930 . S
C1810 C1811 1.399 . S
C1810 C1815 1.399 . S
C1811 C1810 1.399 . S
C1811 C1812 1.376 . S
C1812 H1799 0.930 . S
C1812 C1811 1.376 . S
C1812 C1813 1.388 . S
C1813 H1800 0.930 . S
C1813 C1812 1.388 . S
C1813 C1814 1.390 . S
C1814 C1813 1.390 . S
C1814 C1815 1.394 . S
C1814 C1820 1.465 . S
C1815 C1810 1.399 . S
C1815 C1814 1.394 . S
C1815 C1816 1.516 . S
C1816 C1815 1.516 . S
C1816 C1817 1.502 . S
C1816 C1818 1.561 . S
C1816 C1819 1.526 . S
C1817 H1801 0.959 . S
C1817 H1802 0.959 . S
C1817 H1803 0.961 . S
C1817 C1816 1.502 . S
C1818 H1804 0.960 . S
C1818 H1805 0.961 . S
C1818 H1806 0.959 . S
C1818 C1816 1.561 . S
C1819 C1816 1.526 . S
C1819 C1820 1.396 . S
C1819 C1824 1.390 . S
C1820 C1814 1.465 . S
C1820 C1819 1.396 . S
C1820 C1821 1.399 . S
C1821 H1807 0.929 . S
C1821 C1820 1.399 . S
C1821 C1822 1.385 . S
C1822 H1808 0.931 . S
C1822 C1821 1.385 . S
C1822 C1823 1.389 . S
C1823 C1822 1.389 . S
C1823 C1824 1.387 . S
C1824 H1809 0.930 . S
C1824 C1819 1.390 . S
C1824 C1823 1.387 . S
H1825 C1837 0.930 . S
H1826 C1839 0.930 . S
H1827 C1840 0.930 . S
H1828 C1844 0.959 . S
H1829 C1844 0.959 . S
H1830 C1844 0.961 . S
H1831 C1845 0.960 . S
H1832 C1845 0.961 . S
H1833 C1845 0.959 . S
H1834 C1848 0.929 . S
H1835 C1849 0.931 . S
H1836 C1851 0.930 . S
C1837 H1825 0.930 . S
C1837 C1838 1.399 . S
C1837 C1842 1.399 . S
C1838 C1837 1.399 . S
C1838 C1839 1.376 . S
C1839 H1826 0.930 . S
C1839 C1838 1.376 . S
C1839 C1840 1.388 . S
C1840 H1827 0.930 . S
C1840 C1839 1.388 . S
C1840 C1841 1.390 . S
C1841 C1840 1.390 . S
C1841 C1842 1.394 . S
C1841 C1847 1.465 . S
C1842 C1837 1.399 . S
C1842 C1841 1.394 . S
C1842 C1843 1.516 . S
C1843 C1842 1.516 . S
C1843 C1844 1.502 . S
C1843 C1845 1.561 . S
C1843 C1846 1.526 . S
C1844 H1828 0.959 . S
C1844 H1829 0.959 . S
C1844 H1830 0.961 . S
C1844 C1843 1.502 . S
C1845 H1831 0.960 . S
C1845 H1832 0.961 . S
C1845 H1833 0.959 . S
C1845 C1843 1.561 . S
C1846 C1843 1.526 . S
C1846 C1847 1.396 . S
C1846 C1851 1.390 . S
C1847 C1841 1.465 . S
C1847 C1846 1.396 . S
C1847 C1848 1.399 . S
C1848 H1834 0.929 . S
C1848 C1847 1.399 . S
C1848 C1849 1.385 . S
C1849 H1835 0.931 . S
C1849 C1848 1.385 . S
C1849 C1850 1.389 . S
C1850 C1849 1.389 . S
C1850 C1851 1.387 . S
C1851 H1836 0.930 . S
C1851 C1846 1.390 . S
C1851 C1850 1.387 . S
H1852 C1864 0.930 . S
H1853 C1866 0.930 . S
H1854 C1867 0.930 . S
H1855 C1871 0.959 . S
H1856 C1871 0.959 . S
H1857 C1871 0.961 . S
H1858 C1872 0.960 . S
H1859 C1872 0.961 . S
H1860 C1872 0.959 . S
H1861 C1875 0.929 . S
H1862 C1876 0.931 . S
H1863 C1878 0.930 . S
C1864 H1852 0.930 . S
C1864 C1865 1.399 . S
C1864 C1869 1.399 . S
C1865 C1864 1.399 . S
C1865 C1866 1.376 . S
C1866 H1853 0.930 . S
C1866 C1865 1.376 . S
C1866 C1867 1.388 . S
C1867 H1854 0.930 . S
C1867 C1866 1.388 . S
C1867 C1868 1.390 . S
C1868 C1867 1.390 . S
C1868 C1869 1.394 . S
C1868 C1874 1.465 . S
C1869 C1864 1.399 . S
C1869 C1868 1.394 . S
C1869 C1870 1.516 . S
C1870 C1869 1.516 . S
C1870 C1871 1.502 . S
C1870 C1872 1.561 . S
C1870 C1873 1.526 . S
C1871 H1855 0.959 . S
C1871 H1856 0.959 . S
C1871 H1857 0.961 . S
C1871 C1870 1.502 . S
C1872 H1858 0.960 . S
C1872 H1859 0.961 . S
C1872 H1860 0.959 . S
C1872 C1870 1.561 . S
C1873 C1870 1.526 . S
C1873 C1874 1.396 . S
C1873 C1878 1.390 . S
C1874 C1868 1.465 . S
C1874 C1873 1.396 . S
C1874 C1875 1.399 . S
C1875 H1861 0.929 . S
C1875 C1874 1.399 . S
C1875 C1876 1.385 . S
C1876 H1862 0.931 . S
C1876 C1875 1.385 . S
C1876 C1877 1.389 . S
C1877 C1876 1.389 . S
C1877 C1878 1.387 . S
C1878 H1863 0.930 . S
C1878 C1873 1.390 . S
C1878 C1877 1.387 . S
H1879 C1891 0.930 . S
H1880 C1893 0.930 . S
H1881 C1894 0.930 . S
H1882 C1898 0.959 . S
H1883 C1898 0.959 . S
H1884 C1898 0.961 . S
H1885 C1899 0.960 . S
H1886 C1899 0.961 . S
H1887 C1899 0.959 . S
H1888 C1902 0.929 . S
H1889 C1903 0.931 . S
H1890 C1905 0.930 . S
C1891 H1879 0.930 . S
C1891 C1892 1.399 . S
C1891 C1896 1.399 . S
C1892 C1891 1.399 . S
C1892 C1893 1.376 . S
C1893 H1880 0.930 . S
C1893 C1892 1.376 . S
C1893 C1894 1.388 . S
C1894 H1881 0.930 . S
C1894 C1893 1.388 . S
C1894 C1895 1.390 . S
C1895 C1894 1.390 . S
C1895 C1896 1.394 . S
C1895 C1901 1.465 . S
C1896 C1891 1.399 . S
C1896 C1895 1.394 . S
C1896 C1897 1.516 . S
C1897 C1896 1.516 . S
C1897 C1898 1.502 . S
C1897 C1899 1.561 . S
C1897 C1900 1.526 . S
C1898 H1882 0.959 . S
C1898 H1883 0.959 . S
C1898 H1884 0.961 . S
C1898 C1897 1.502 . S
C1899 H1885 0.960 . S
C1899 H1886 0.961 . S
C1899 H1887 0.959 . S
C1899 C1897 1.561 . S
C1900 C1897 1.526 . S
C1900 C1901 1.396 . S
C1900 C1905 1.390 . S
C1901 C1895 1.465 . S
C1901 C1900 1.396 . S
C1901 C1902 1.399 . S
C1902 H1888 0.929 . S
C1902 C1901 1.399 . S
C1902 C1903 1.385 . S
C1903 H1889 0.931 . S
C1903 C1902 1.385 . S
C1903 C1904 1.389 . S
C1904 C1903 1.389 . S
C1904 C1905 1.387 . S
C1905 H1890 0.930 . S
C1905 C1900 1.390 . S
C1905 C1904 1.387 . S
H1906 C1918 0.930 . S
H1907 C1920 0.930 . S
H1908 C1921 0.930 . S
H1909 C1925 0.959 . S
H1910 C1925 0.959 . S
H1911 C1925 0.961 . S
H1912 C1926 0.960 . S
H1913 C1926 0.961 . S
H1914 C1926 0.959 . S
H1915 C1929 0.929 . S
H1916 C1930 0.931 . S
H1917 C1932 0.930 . S
C1918 H1906 0.930 . S
C1918 C1919 1.399 . S
C1918 C1923 1.399 . S
C1919 C1918 1.399 . S
C1919 C1920 1.376 . S
C1920 H1907 0.930 . S
C1920 C1919 1.376 . S
C1920 C1921 1.388 . S
C1921 H1908 0.930 . S
C1921 C1920 1.388 . S
C1921 C1922 1.390 . S
C1922 C1921 1.390 . S
C1922 C1923 1.394 . S
C1922 C1928 1.465 . S
C1923 C1918 1.399 . S
C1923 C1922 1.394 . S
C1923 C1924 1.516 . S
C1924 C1923 1.516 . S
C1924 C1925 1.502 . S
C1924 C1926 1.561 . S
C1924 C1927 1.526 . S
C1925 H1909 0.959 . S
C1925 H1910 0.959 . S
C1925 H1911 0.961 . S
C1925 C1924 1.502 . S
C1926 H1912 0.960 . S
C1926 H1913 0.961 . S
C1926 H1914 0.959 . S
C1926 C1924 1.561 . S
C1927 C1924 1.526 . S
C1927 C1928 1.396 . S
C1927 C1932 1.390 . S
C1928 C1922 1.465 . S
C1928 C1927 1.396 . S
C1928 C1929 1.399 . S
C1929 H1915 0.929 . S
C1929 C1928 1.399 . S
C1929 C1930 1.385 . S
C1930 H1916 0.931 . S
C1930 C1929 1.385 . S
C1930 C1931 1.389 . S
C1931 C1930 1.389 . S
C1931 C1932 1.387 . S
C1932 H1917 0.930 . S
C1932 C1927 1.390 . S
C1932 C1931 1.387 . S
H1933 C1945 0.930 . S
H1934 C1947 0.930 . S
H1935 C1948 0.930 . S
H1936 C1952 0.959 . S
H1937 C1952 0.959 . S
H1938 C1952 0.961 . S
H1939 C1953 0.960 . S
H1940 C1953 0.961 . S
H1941 C1953 0.959 . S
H1942 C1956 0.929 . S
H1943 C1957 0.931 . S
H1944 C1959 0.930 . S
C1945 H1933 0.930 . S
C1945 C1946 1.399 . S
C1945 C1950 1.399 . S
C1946 C1945 1.399 . S
C1946 C1947 1.376 . S
C1947 H1934 0.930 . S
C1947 C1946 1.376 . S
C1947 C1948 1.388 . S
C1948 H1935 0.930 . S
C1948 C1947 1.388 . S
C1948 C1949 1.390 . S
C1949 C1948 1.390 . S
C1949 C1950 1.394 . S
C1949 C1955 1.465 . S
C1950 C1945 1.399 . S
C1950 C1949 1.394 . S
C1950 C1951 1.516 . S
C1951 C1950 1.516 . S
C1951 C1952 1.502 . S
C1951 C1953 1.561 . S
C1951 C1954 1.526 . S
C1952 H1936 0.959 . S
C1952 H1937 0.959 . S
C1952 H1938 0.961 . S
C1952 C1951 1.502 . S
C1953 H1939 0.960 . S
C1953 H1940 0.961 . S
C1953 H1941 0.959 . S
C1953 C1951 1.561 . S
C1954 C1951 1.526 . S
C1954 C1955 1.396 . S
C1954 C1959 1.390 . S
C1955 C1949 1.465 . S
C1955 C1954 1.396 . S
C1955 C1956 1.399 . S
C1956 H1942 0.929 . S
C1956 C1955 1.399 . S
C1956 C1957 1.385 . S
C1957 H1943 0.931 . S
C1957 C1956 1.385 . S
C1957 C1958 1.389 . S
C1958 C1957 1.389 . S
C1958 C1959 1.387 . S
C1959 H1944 0.930 . S
C1959 C1954 1.390 . S
C1959 C1958 1.387 . S
H1960 C1972 0.930 . S
H1961 C1974 0.930 . S
H1962 C1975 0.930 . S
H1963 C1979 0.959 . S
H1964 C1979 0.959 . S
H1965 C1979 0.961 . S
H1966 C1980 0.960 . S
H1967 C1980 0.961 . S
H1968 C1980 0.959 . S
H1969 C1983 0.929 . S
H1970 C1984 0.931 . S
H1971 C1986 0.930 . S
C1972 H1960 0.930 . S
C1972 C1973 1.399 . S
C1972 C1977 1.399 . S
C1973 C1972 1.399 . S
C1973 C1974 1.376 . S
C1974 H1961 0.930 . S
C1974 C1973 1.376 . S
C1974 C1975 1.388 . S
C1975 H1962 0.930 . S
C1975 C1974 1.388 . S
C1975 C1976 1.390 . S
C1976 C1975 1.390 . S
C1976 C1977 1.394 . S
C1976 C1982 1.465 . S
C1977 C1972 1.399 . S
C1977 C1976 1.394 . S
C1977 C1978 1.516 . S
C1978 C1977 1.516 . S
C1978 C1979 1.502 . S
C1978 C1980 1.561 . S
C1978 C1981 1.526 . S
C1979 H1963 0.959 . S
C1979 H1964 0.959 . S
C1979 H1965 0.961 . S
C1979 C1978 1.502 . S
C1980 H1966 0.960 . S
C1980 H1967 0.961 . S
C1980 H1968 0.959 . S
C1980 C1978 1.561 . S
C1981 C1978 1.526 . S
C1981 C1982 1.396 . S
C1981 C1986 1.390 . S
C1982 C1976 1.465 . S
C1982 C1981 1.396 . S
C1982 C1983 1.399 . S
C1983 H1969 0.929 . S
C1983 C1982 1.399 . S
C1983 C1984 1.385 . S
C1984 H1970 0.931 . S
C1984 C1983 1.385 . S
C1984 C1985 1.389 . S
C1985 C1984 1.389 . S
C1985 C1986 1.387 . S
C1986 H1971 0.930 . S
C1986 C1981 1.390 . S
C1986 C1985 1.387 . S
H1987 C1999 0.930 . S
H1988 C2001 0.930 . S
H1989 C2002 0.930 . S
H1990 C2006 0.959 . S
H1991 C2006 0.959 . S
H1992 C2006 0.961 . S
H1993 C2007 0.960 . S
H1994 C2007 0.961 . S
H1995 C2007 0.959 . S
H1996 C2010 0.929 . S
H1997 C2011 0.931 . S
H1998 C2013 0.930 . S
C1999 H1987 0.930 . S
C1999 C2000 1.399 . S
C1999 C2004 1.399 . S
C2000 C1999 1.399 . S
C2000 C2001 1.376 . S
C2001 H1988 0.930 . S
C2001 C2000 1.376 . S
C2001 C2002 1.388 . S
C2002 H1989 0.930 . S
C2002 C2001 1.388 . S
C2002 C2003 1.390 . S
C2003 C2002 1.390 . S
C2003 C2004 1.394 . S
C2003 C2009 1.465 . S
C2004 C1999 1.399 . S
C2004 C2003 1.394 . S
C2004 C2005 1.516 . S
C2005 C2004 1.516 . S
C2005 C2006 1.502 . S
C2005 C2007 1.561 . S
C2005 C2008 1.526 . S
C2006 H1990 0.959 . S
C2006 H1991 0.959 . S
C2006 H1992 0.961 . S
C2006 C2005 1.502 . S
C2007 H1993 0.960 . S
C2007 H1994 0.961 . S
C2007 H1995 0.959 . S
C2007 C2005 1.561 . S
C2008 C2005 1.526 . S
C2008 C2009 1.396 . S
C2008 C2013 1.390 . S
C2009 C2003 1.465 . S
C2009 C2008 1.396 . S
C2009 C2010 1.399 . S
C2010 H1996 0.929 . S
C2010 C2009 1.399 . S
C2010 C2011 1.385 . S
C2011 H1997 0.931 . S
C2011 C2010 1.385 . S
C2011 C2012 1.389 . S
C2012 C2011 1.389 . S
C2012 C2013 1.387 . S
C2013 H1998 0.930 . S
C2013 C2008 1.390 . S
C2013 C2012 1.387 . S
H2014 C2026 0.930 . S
H2015 C2028 0.930 . S
H2016 C2029 0.930 . S
H2017 C2033 0.959 . S
H2018 C2033 0.959 . S
H2019 C2033 0.961 . S
H2020 C2034 0.960 . S
H2021 C2034 0.961 . S
H2022 C2034 0.959 . S
H2023 C2037 0.929 . S
H2024 C2038 0.931 . S
H2025 C2040 0.930 . S
C2026 H2014 0.930 . S
C2026 C2027 1.399 . S
C2026 C2031 1.399 . S
C2027 C2026 1.399 . S
C2027 C2028 1.376 . S
C2028 H2015 0.930 . S
C2028 C2027 1.376 . S
C2028 C2029 1.388 . S
C2029 H2016 0.930 . S
C2029 C2028 1.388 . S
C2029 C2030 1.390 . S
C2030 C2029 1.390 . S
C2030 C2031 1.394 . S
C2030 C2036 1.465 . S
C2031 C2026 1.399 . S
C2031 C2030 1.394 . S
C2031 C2032 1.516 . S
C2032 C2031 1.516 . S
C2032 C2033 1.502 . S
C2032 C2034 1.561 . S
C2032 C2035 1.526 . S
C2033 H2017 0.959 . S
C2033 H2018 0.959 . S
C2033 H2019 0.961 . S
C2033 C2032 1.502 . S
C2034 H2020 0.960 . S
C2034 H2021 0.961 . S
C2034 H2022 0.959 . S
C2034 C2032 1.561 . S
C2035 C2032 1.526 . S
C2035 C2036 1.396 . S
C2035 C2040 1.390 . S
C2036 C2030 1.465 . S
C2036 C2035 1.396 . S
C2036 C2037 1.399 . S
C2037 H2023 0.929 . S
C2037 C2036 1.399 . S
C2037 C2038 1.385 . S
C2038 H2024 0.931 . S
C2038 C2037 1.385 . S
C2038 C2039 1.389 . S
C2039 C2038 1.389 . S
C2039 C2040 1.387 . S
C2040 H2025 0.930 . S
C2040 C2035 1.390 . S
C2040 C2039 1.387 . S
H2041 C2053 0.930 . S
H2042 C2055 0.930 . S
H2043 C2056 0.930 . S
H2044 C2060 0.959 . S
H2045 C2060 0.959 . S
H2046 C2060 0.961 . S
H2047 C2061 0.960 . S
H2048 C2061 0.961 . S
H2049 C2061 0.959 . S
H2050 C2064 0.929 . S
H2051 C2065 0.931 . S
H2052 C2067 0.930 . S
C2053 H2041 0.930 . S
C2053 C2054 1.399 . S
C2053 C2058 1.399 . S
C2054 C2053 1.399 . S
C2054 C2055 1.376 . S
C2055 H2042 0.930 . S
C2055 C2054 1.376 . S
C2055 C2056 1.388 . S
C2056 H2043 0.930 . S
C2056 C2055 1.388 . S
C2056 C2057 1.390 . S
C2057 C2056 1.390 . S
C2057 C2058 1.394 . S
C2057 C2063 1.465 . S
C2058 C2053 1.399 . S
C2058 C2057 1.394 . S
C2058 C2059 1.516 . S
C2059 C2058 1.516 . S
C2059 C2060 1.502 . S
C2059 C2061 1.561 . S
C2059 C2062 1.526 . S
C2060 H2044 0.959 . S
C2060 H2045 0.959 . S
C2060 H2046 0.961 . S
C2060 C2059 1.502 . S
C2061 H2047 0.960 . S
C2061 H2048 0.961 . S
C2061 H2049 0.959 . S
C2061 C2059 1.561 . S
C2062 C2059 1.526 . S
C2062 C2063 1.396 . S
C2062 C2067 1.390 . S
C2063 C2057 1.465 . S
C2063 C2062 1.396 . S
C2063 C2064 1.399 . S
C2064 H2050 0.929 . S
C2064 C2063 1.399 . S
C2064 C2065 1.385 . S
C2065 H2051 0.931 . S
C2065 C2064 1.385 . S
C2065 C2066 1.389 . S
C2066 C2065 1.389 . S
C2066 C2067 1.387 . S
C2067 H2052 0.930 . S
C2067 C2062 1.390 . S
C2067 C2066 1.387 . S
H2068 C2080 0.930 . S
H2069 C2082 0.930 . S
H2070 C2083 0.930 . S
H2071 C2087 0.959 . S
H2072 C2087 0.959 . S
H2073 C2087 0.961 . S
H2074 C2088 0.960 . S
H2075 C2088 0.961 . S
H2076 C2088 0.959 . S
H2077 C2091 0.929 . S
H2078 C2092 0.931 . S
H2079 C2094 0.930 . S
C2080 H2068 0.930 . S
C2080 C2081 1.399 . S
C2080 C2085 1.399 . S
C2081 C2080 1.399 . S
C2081 C2082 1.376 . S
C2082 H2069 0.930 . S
C2082 C2081 1.376 . S
C2082 C2083 1.388 . S
C2083 H2070 0.930 . S
C2083 C2082 1.388 . S
C2083 C2084 1.390 . S
C2084 C2083 1.390 . S
C2084 C2085 1.394 . S
C2084 C2090 1.465 . S
C2085 C2080 1.399 . S
C2085 C2084 1.394 . S
C2085 C2086 1.516 . S
C2086 C2085 1.516 . S
C2086 C2087 1.502 . S
C2086 C2088 1.561 . S
C2086 C2089 1.526 . S
C2087 H2071 0.959 . S
C2087 H2072 0.959 . S
C2087 H2073 0.961 . S
C2087 C2086 1.502 . S
C2088 H2074 0.960 . S
C2088 H2075 0.961 . S
C2088 H2076 0.959 . S
C2088 C2086 1.561 . S
C2089 C2086 1.526 . S
C2089 C2090 1.396 . S
C2089 C2094 1.390 . S
C2090 C2084 1.465 . S
C2090 C2089 1.396 . S
C2090 C2091 1.399 . S
C2091 H2077 0.929 . S
C2091 C2090 1.399 . S
C2091 C2092 1.385 . S
C2092 H2078 0.931 . S
C2092 C2091 1.385 . S
C2092 C2093 1.389 . S
C2093 C2092 1.389 . S
C2093 C2094 1.387 . S
C2094 H2079 0.930 . S
C2094 C2089 1.390 . S
C2094 C2093 1.387 . S
H2095 C2107 0.930 . S
H2096 C2109 0.930 . S
H2097 C2110 0.930 . S
H2098 C2114 0.959 . S
H2099 C2114 0.959 . S
H2100 C2114 0.961 . S
H2101 C2115 0.960 . S
H2102 C2115 0.961 . S
H2103 C2115 0.959 . S
H2104 C2118 0.929 . S
H2105 C2119 0.931 . S
H2106 C2121 0.930 . S
C2107 H2095 0.930 . S
C2107 C2108 1.399 . S
C2107 C2112 1.399 . S
C2108 C2107 1.399 . S
C2108 C2109 1.376 . S
C2109 H2096 0.930 . S
C2109 C2108 1.376 . S
C2109 C2110 1.388 . S
C2110 H2097 0.930 . S
C2110 C2109 1.388 . S
C2110 C2111 1.390 . S
C2111 C2110 1.390 . S
C2111 C2112 1.394 . S
C2111 C2117 1.465 . S
C2112 C2107 1.399 . S
C2112 C2111 1.394 . S
C2112 C2113 1.516 . S
C2113 C2112 1.516 . S
C2113 C2114 1.502 . S
C2113 C2115 1.561 . S
C2113 C2116 1.526 . S
C2114 H2098 0.959 . S
C2114 H2099 0.959 . S
C2114 H2100 0.961 . S
C2114 C2113 1.502 . S
C2115 H2101 0.960 . S
C2115 H2102 0.961 . S
C2115 H2103 0.959 . S
C2115 C2113 1.561 . S
C2116 C2113 1.526 . S
C2116 C2117 1.396 . S
C2116 C2121 1.390 . S
C2117 C2111 1.465 . S
C2117 C2116 1.396 . S
C2117 C2118 1.399 . S
C2118 H2104 0.929 . S
C2118 C2117 1.399 . S
C2118 C2119 1.385 . S
C2119 H2105 0.931 . S
C2119 C2118 1.385 . S
C2119 C2120 1.389 . S
C2120 C2119 1.389 . S
C2120 C2121 1.387 . S
C2121 H2106 0.930 . S
C2121 C2116 1.390 . S
C2121 C2120 1.387 . S
H2122 C2134 0.930 . S
H2123 C2136 0.930 . S
H2124 C2137 0.930 . S
H2125 C2141 0.959 . S
H2126 C2141 0.959 . S
H2127 C2141 0.961 . S
H2128 C2142 0.960 . S
H2129 C2142 0.961 . S
H2130 C2142 0.959 . S
H2131 C2145 0.929 . S
H2132 C2146 0.931 . S
H2133 C2148 0.930 . S
C2134 H2122 0.930 . S
C2134 C2135 1.399 . S
C2134 C2139 1.399 . S
C2135 C2134 1.399 . S
C2135 C2136 1.376 . S
C2136 H2123 0.930 . S
C2136 C2135 1.376 . S
C2136 C2137 1.388 . S
C2137 H2124 0.930 . S
C2137 C2136 1.388 . S
C2137 C2138 1.390 . S
C2138 C2137 1.390 . S
C2138 C2139 1.394 . S
C2138 C2144 1.465 . S
C2139 C2134 1.399 . S
C2139 C2138 1.394 . S
C2139 C2140 1.516 . S
C2140 C2139 1.516 . S
C2140 C2141 1.502 . S
C2140 C2142 1.561 . S
C2140 C2143 1.526 . S
C2141 H2125 0.959 . S
C2141 H2126 0.959 . S
C2141 H2127 0.961 . S
C2141 C2140 1.502 . S
C2142 H2128 0.960 . S
C2142 H2129 0.961 . S
C2142 H2130 0.959 . S
C2142 C2140 1.561 . S
C2143 C2140 1.526 . S
C2143 C2144 1.396 . S
C2143 C2148 1.390 . S
C2144 C2138 1.465 . S
C2144 C2143 1.396 . S
C2144 C2145 1.399 . S
C2145 H2131 0.929 . S
C2145 C2144 1.399 . S
C2145 C2146 1.385 . S
C2146 H2132 0.931 . S
C2146 C2145 1.385 . S
C2146 C2147 1.389 . S
C2147 C2146 1.389 . S
C2147 C2148 1.387 . S
C2148 H2133 0.930 . S
C2148 C2143 1.390 . S
C2148 C2147 1.387 . S
H2149 C2161 0.930 . S
H2150 C2163 0.930 . S
H2151 C2164 0.930 . S
H2152 C2168 0.959 . S
H2153 C2168 0.959 . S
H2154 C2168 0.961 . S
H2155 C2169 0.960 . S
H2156 C2169 0.961 . S
H2157 C2169 0.959 . S
H2158 C2172 0.929 . S
H2159 C2173 0.931 . S
H2160 C2175 0.930 . S
C2161 H2149 0.930 . S
C2161 C2162 1.399 . S
C2161 C2166 1.399 . S
C2162 C2161 1.399 . S
C2162 C2163 1.376 . S
C2163 H2150 0.930 . S
C2163 C2162 1.376 . S
C2163 C2164 1.388 . S
C2164 H2151 0.930 . S
C2164 C2163 1.388 . S
C2164 C2165 1.390 . S
C2165 C2164 1.390 . S
C2165 C2166 1.394 . S
C2165 C2171 1.465 . S
C2166 C2161 1.399 . S
C2166 C2165 1.394 . S
C2166 C2167 1.516 . S
C2167 C2166 1.516 . S
C2167 C2168 1.502 . S
C2167 C2169 1.561 . S
C2167 C2170 1.526 . S
C2168 H2152 0.959 . S
C2168 H2153 0.959 . S
C2168 H2154 0.961 . S
C2168 C2167 1.502 . S
C2169 H2155 0.960 . S
C2169 H2156 0.961 . S
C2169 H2157 0.959 . S
C2169 C2167 1.561 . S
C2170 C2167 1.526 . S
C2170 C2171 1.396 . S
C2170 C2175 1.390 . S
C2171 C2165 1.465 . S
C2171 C2170 1.396 . S
C2171 C2172 1.399 . S
C2172 H2158 0.929 . S
C2172 C2171 1.399 . S
C2172 C2173 1.385 . S
C2173 H2159 0.931 . S
C2173 C2172 1.385 . S
C2173 C2174 1.389 . S
C2174 C2173 1.389 . S
C2174 C2175 1.387 . S
C2175 H2160 0.930 . S
C2175 C2170 1.390 . S
C2175 C2174 1.387 . S
C461 C411 1.550 . S
C473 C5 1.551 . S
C488 C19 1.554 . S
C500 C425 1.556 . S
C515 C439 1.551 . S
C527 C33 1.553 . S
C542 C397 1.550 . S
C554 C47 1.550 . S
C569 C61 1.552 . S
C581 C383 1.554 . S
C596 C341 1.561 . S
C608 C75 1.560 . S
C623 C89 1.551 . S
C635 C355 1.553 . S
C650 C369 1.560 . S
C662 C103 1.559 . S
C677 C117 1.551 . S
C689 C299 1.552 . S
C704 C131 1.560 . S
C716 C313 1.559 . S
C731 C327 1.554 . S
C743 C145 1.556 . S
C758 C159 1.561 . S
C770 C285 1.561 . S
C785 C271 1.552 . S
C797 C173 1.554 . S
C812 C229 1.552 . S
C824 C187 1.554 . S
C839 C201 1.560 . S
C851 C243 1.559 . S
C866 C215 1.551 . S
C878 C257 1.553 . S
C893 C0 1.375 . S
C905 C140 1.370 . S
C920 C154 1.412 . S
C932 C14 1.406 . S
C947 C112 1.411 . S
C959 C28 1.416 . S
C974 C126 1.409 . S
C986 C42 1.402 . S
C1001 C56 1.373 . S
C1013 C196 1.368 . S
C1028 C210 1.404 . S
C1040 C70 1.396 . S
C1055 C168 1.367 . S
C1067 C84 1.365 . S
C1082 C182 1.395 . S
C1094 C98 1.403 . S
C1109 C224 1.400 . S
C1121 C364 1.408 . S
C1136 C378 1.410 . S
C1148 C238 1.403 . S
C1163 C336 1.373 . S
C1175 C252 1.368 . S
C1190 C266 1.412 . S
C1202 C350 1.406 . S
C1217 C280 1.406 . S
C1229 C420 1.412 . S
C1244 C434 1.379 . S
C1256 C294 1.387 . S
C1271 C392 1.419 . S
C1283 C308 1.417 . S
C1298 C322 1.418 . S
C1310 C406 1.415 . S
C1325 C11 1.506 . S
C1337 C67 1.470 . S
C1352 C25 1.495 . S
C1364 C81 1.466 . S
C1379 C95 1.471 . S
C1391 C39 1.487 . S
C1406 C53 1.480 . S
C1418 C109 1.501 . S
C1433 C123 1.481 . S
C1445 C179 1.506 . S
C1460 C193 1.465 . S
C1472 C137 1.484 . S
C1487 C207 1.490 . S
C1499 C151 1.503 . S
C1514 C165 1.465 . S
C1526 C221 1.483 . S
C1541 C235 1.501 . S
C1553 C291 1.480 . S
C1568 C305 1.475 . S
C1580 C249 1.503 . S
C1595 C263 1.505 . S
C1607 C319 1.472 . S
C1622 C333 1.475 . S
C1634 C277 1.504 . S
C1649 C403 1.467 . S
C1661 C347 1.502 . S
C1676 C361 1.506 . S
C1688 C417 1.476 . S
C1703 C375 1.491 . S
C1715 C431 1.502 . S
C1730 C389 1.463 . S
C1742 C445 1.490 . S
C1757 C9 1.394 . S
C1769 C79 1.398 . S
C1784 C23 1.395 . S
C1796 C93 1.398 . S
C1811 C107 1.388 . S
C1823 C37 1.394 . S
C1838 C65 1.389 . S
C1850 C51 1.395 . S
C1865 C191 1.395 . S
C1877 C121 1.386 . S
C1892 C205 1.384 . S
C1904 C135 1.392 . S
C1919 C219 1.397 . S
C1931 C149 1.397 . S
C1946 C163 1.395 . S
C1958 C177 1.386 . S
C1973 C233 1.398 . S
C1985 C303 1.396 . S
C2000 C317 1.384 . S
C2012 C247 1.389 . S
C2027 C331 1.392 . S
C2039 C261 1.387 . S
C2054 C275 1.388 . S
C2066 C289 1.384 . S
C2081 C415 1.384 . S
C2093 C345 1.388 . S
C2108 C359 1.396 . S
C2120 C429 1.397 . S
C2135 C373 1.384 . S
C2147 C443 1.389 . S
C2162 C401 1.385 . S
C2174 C387 1.386 . S
