# Generated by pormake.
# Topology una, (4)-cn, num edge types: 1
# Building blocks:
#     Node 0, Type 0, BuildingBlock: QUQFOY_clean_sbu_1, # of connection points: 4
#     Node 1, Type 0, BuildingBlock: QUQFOY_clean_sbu_1, # of connection points: 4
#     Node 2, Type 0, BuildingBlock: QUQFOY_clean_sbu_1, # of connection points: 4
#     Node 3, Type 0, BuildingBlock: QUQFOY_clean_sbu_1, # of connection points: 4
#     Node 4, Type 0, BuildingBlock: QUQFOY_clean_sbu_1, # of connection points: 4
#     Node 5, Type 0, BuildingBlock: QUQFOY_clean_sbu_1, # of connection points: 4
#     Node 6, Type 0, BuildingBlock: QUQFOY_clean_sbu_1, # of connection points: 4
#     Node 7, Type 0, BuildingBlock: QUQFOY_clean_sbu_1, # of connection points: 4
#     Node 8, Type 0, BuildingBlock: QUQFOY_clean_sbu_1, # of connection points: 4
#     Node 9, Type 0, BuildingBlock: QUQFOY_clean_sbu_1, # of connection points: 4
#     Node 10, Type 0, BuildingBlock: QUQFOY_clean_sbu_1, # of connection points: 4
#     Node 11, Type 0, BuildingBlock: QUQFOY_clean_sbu_1, # of connection points: 4
#     Edge 12, Type (0, 0), BuildingBlock: UVAHIK_clean_linker_0, # of connection points: 2
#     Edge 13, Type (0, 0), BuildingBlock: UVAHIK_clean_linker_0, # of connection points: 2
#     Edge 14, Type (0, 0), BuildingBlock: UVAHIK_clean_linker_0, # of connection points: 2
#     Edge 15, Type (0, 0), BuildingBlock: UVAHIK_clean_linker_0, # of connection points: 2
#     Edge 16, Type (0, 0), BuildingBlock: UVAHIK_clean_linker_0, # of connection points: 2
#     Edge 17, Type (0, 0), BuildingBlock: UVAHIK_clean_linker_0, # of connection points: 2
#     Edge 18, Type (0, 0), BuildingBlock: UVAHIK_clean_linker_0, # of connection points: 2
#     Edge 19, Type (0, 0), BuildingBlock: UVAHIK_clean_linker_0, # of connection points: 2
#     Edge 20, Type (0, 0), BuildingBlock: UVAHIK_clean_linker_0, # of connection points: 2
#     Edge 21, Type (0, 0), BuildingBlock: UVAHIK_clean_linker_0, # of connection points: 2
#     Edge 22, Type (0, 0), BuildingBlock: UVAHIK_clean_linker_0, # of connection points: 2
#     Edge 23, Type (0, 0), BuildingBlock: UVAHIK_clean_linker_0, # of connection points: 2
#     Edge 24, Type (0, 0), BuildingBlock: UVAHIK_clean_linker_0, # of connection points: 2
#     Edge 25, Type (0, 0), BuildingBlock: UVAHIK_clean_linker_0, # of connection points: 2
#     Edge 26, Type (0, 0), BuildingBlock: UVAHIK_clean_linker_0, # of connection points: 2
#     Edge 27, Type (0, 0), BuildingBlock: UVAHIK_clean_linker_0, # of connection points: 2
#     Edge 28, Type (0, 0), BuildingBlock: UVAHIK_clean_linker_0, # of connection points: 2
#     Edge 29, Type (0, 0), BuildingBlock: UVAHIK_clean_linker_0, # of connection points: 2
#     Edge 30, Type (0, 0), BuildingBlock: UVAHIK_clean_linker_0, # of connection points: 2
#     Edge 31, Type (0, 0), BuildingBlock: UVAHIK_clean_linker_0, # of connection points: 2
#     Edge 32, Type (0, 0), BuildingBlock: UVAHIK_clean_linker_0, # of connection points: 2
#     Edge 33, Type (0, 0), BuildingBlock: UVAHIK_clean_linker_0, # of connection points: 2
#     Edge 34, Type (0, 0), BuildingBlock: UVAHIK_clean_linker_0, # of connection points: 2
#     Edge 35, Type (0, 0), BuildingBlock: UVAHIK_clean_linker_0, # of connection points: 2
# Relax obj value: 0.086
# Max RMSD: 0.102
# Mean RMSD: 0.102
data_MOF--net-una--node1-QUQFOY_clean_sbu_1--edge1-UVAHIK_clean_linker_0
_symmetry_space_group_name_H-M    P1
_symmetry_Int_Tables_number       1
_symmetry_cell_setting            triclinic
loop_
_symmetry_equiv_pos_as_xyz
'x, y, z'
_cell_length_a     77.617704
_cell_length_b     77.731942
_cell_length_c     28.407406
_cell_angle_alpha  89.988869
_cell_angle_beta   90.010392
_cell_angle_gamma 120.0311
loop_
_atom_site_label
_atom_site_type_symbol
_atom_site_fract_x
_atom_site_fract_y
_atom_site_fract_z
_atom_type_partial_charge
O0 O 0.12512 0.46284 0.11832 0.0
Cd1 Cd 0.12566 0.4372 0.10045 0.0
Cd2 Cd 0.15906 0.46294 0.05926 0.0
O3 O 0.14675 0.48108 0.06375 0.0
O4 O 0.09752 0.41485 0.09554 0.0
O5 O 0.1176 0.42747 0.03416 0.0
C6 C 0.10011 0.41523 0.05053 0.0
C7 C 0.17557 0.46236 0.99106 0.0
C8 C 0.13401 0.47889 0.09477 0.0
C9 C 0.162 0.44229 0.14582 0.0
O10 O 0.1704 0.45767 0.1199 0.0
O11 O 0.14356 0.42986 0.14054 0.0
O12 O 0.18292 0.47765 0.01834 0.0
O13 O 0.15827 0.44754 1.00139 0.0
O14 O 0.67226 0.11954 0.28423 0.0
Cd15 Cd 0.69779 0.11824 0.27161 0.0
Cd16 Cd 0.70982 0.15295 0.22454 0.0
O17 O 0.68045 0.14504 0.23713 0.0
O18 O 0.69048 0.08971 0.26566 0.0
O19 O 0.70094 0.11081 0.20581 0.0
C20 C 0.6942 0.0929 0.22115 0.0
C21 C 0.72472 0.16879 0.15387 0.0
C22 C 0.66791 0.1315 0.26416 0.0
C23 C 0.73327 0.15362 0.31127 0.0
O24 O 0.73001 0.16302 0.27918 0.0
O25 O 0.72234 0.13484 0.31484 0.0
O26 O 0.71961 0.1773 0.18531 0.0
O27 O 0.72051 0.15072 0.1614 0.0
O28 O 0.56316 0.66722 0.44943 0.0
Cd29 Cd 0.58936 0.69329 0.43483 0.0
Cd30 Cd 0.56482 0.70315 0.39075 0.0
O31 O 0.54477 0.67326 0.40054 0.0
O32 O 0.61122 0.68682 0.42926 0.0
O33 O 0.59967 0.69601 0.36881 0.0
C34 C 0.61135 0.68994 0.38453 0.0
C35 C 0.56433 0.71874 0.32084 0.0
C36 C 0.54666 0.66157 0.42862 0.0
C37 C 0.58685 0.72689 0.47725 0.0
O38 O 0.57285 0.72202 0.44773 0.0
O39 O 0.59689 0.71801 0.4771 0.0
O40 O 0.54997 0.71239 0.35075 0.0
O41 O 0.57873 0.71541 0.32944 0.0
O42 O 0.90452 0.5555 0.61254 0.0
Cd43 Cd 0.90492 0.58202 0.59917 0.0
Cd44 Cd 0.87031 0.55789 0.55774 0.0
O45 O 0.88025 0.53788 0.56267 0.0
O46 O 0.93342 0.60365 0.59425 0.0
O47 O 0.91275 0.59288 0.53358 0.0
C48 C 0.93054 0.60424 0.54961 0.0
C49 C 0.85413 0.5589 0.48928 0.0
C50 C 0.8937 0.53931 0.59056 0.0
C51 C 0.86926 0.57846 0.64664 0.0
O52 O 0.85989 0.56405 0.61834 0.0
O53 O 0.88804 0.58962 0.6428 0.0
O54 O 0.84609 0.54399 0.51763 0.0
O55 O 0.87182 0.57319 0.49895 0.0
O56 O 0.35883 0.8998 0.78316 0.0
Cd57 Cd 0.33278 0.89988 0.76683 0.0
Cd58 Cd 0.32473 0.86715 0.7211 0.0
O59 O 0.35521 0.87929 0.72555 0.0
O60 O 0.33883 0.9281 0.76183 0.0
O61 O 0.33087 0.90786 0.70067 0.0
C62 C 0.33639 0.92542 0.71686 0.0
C63 C 0.3078 0.85089 0.65241 0.0
C64 C 0.36585 0.8913 0.75769 0.0
C65 C 0.30118 0.86301 0.80913 0.0
O66 O 0.30793 0.85504 0.78116 0.0
O67 O 0.30749 0.88158 0.8065 0.0
O68 O 0.31584 0.84357 0.67945 0.0
O69 O 0.31009 0.86804 0.66322 0.0
O70 O 0.46749 0.35334 0.95336 0.0
Cd71 Cd 0.44147 0.3272 0.93679 0.0
Cd72 Cd 0.46659 0.31884 0.89474 0.0
O73 O 0.48492 0.34929 0.89777 0.0
O74 O 0.41935 0.33332 0.93105 0.0
O75 O 0.43169 0.32511 0.87043 0.0
C76 C 0.41965 0.33073 0.88617 0.0
C77 C 0.46583 0.30137 0.82712 0.0
C78 C 0.48325 0.36017 0.9287 0.0
C79 C 0.44633 0.29591 0.9824 0.0
O80 O 0.46154 0.30261 0.95592 0.0
O81 O 0.43402 0.30209 0.97746 0.0
O82 O 0.48119 0.30945 0.85424 0.0
O83 O 0.45102 0.30387 0.8373 0.0
O84 O 0.56305 0.89994 0.83604 0.0
Cd85 Cd 0.58918 0.90042 0.85356 0.0
Cd86 Cd 0.56461 0.86699 0.89945 0.0
O87 O 0.54516 0.87765 0.88987 0.0
O88 O 0.61111 0.92874 0.85844 0.0
O89 O 0.59884 0.90862 0.91981 0.0
C90 C 0.61082 0.92617 0.90345 0.0
C91 C 0.56461 0.85182 0.97045 0.0
C92 C 0.54689 0.89024 0.85891 0.0
C93 C 0.58635 0.86387 0.81412 0.0
O94 O 0.57193 0.85519 0.84282 0.0
O95 O 0.59694 0.88274 0.81425 0.0
O96 O 0.54987 0.84357 0.94158 0.0
O97 O 0.57914 0.86927 0.9601 0.0
O98 O 0.67207 0.55754 1.00314 0.0
Cd99 Cd 0.69824 0.58328 0.0209 0.0
Cd100 Cd 0.70543 0.55791 0.0659 0.0
O101 O 0.67497 0.53983 0.05987 0.0
O102 O 0.69263 0.60574 0.02513 0.0
O103 O 0.69965 0.59304 0.08702 0.0
C104 C 0.6946 0.60535 0.07024 0.0
C105 C 0.72179 0.55847 0.13542 0.0
C106 C 0.66467 0.54173 0.02767 0.0
C107 C 0.72999 0.57787 0.97966 0.0
O108 O 0.72279 0.56285 0.00678 0.0
O109 O 0.7238 0.59023 0.98243 0.0
O110 O 0.7139 0.54311 0.10838 0.0
O111 O 0.71961 0.57336 0.12415 0.0
O112 O 0.12525 0.66686 0.17204 0.0
Cd113 Cd 0.12539 0.69295 0.18873 0.0
Cd114 Cd 0.15868 0.70117 0.2319 0.0
O115 O 0.14658 0.67073 0.2279 0.0
O116 O 0.09712 0.68688 0.19271 0.0
O117 O 0.11697 0.6947 0.25464 0.0
C118 C 0.09949 0.6892 0.23776 0.0
C119 C 0.17466 0.71814 0.30068 0.0
C120 C 0.1341 0.65996 0.19666 0.0
C121 C 0.16192 0.72438 0.14426 0.0
O122 O 0.1703 0.71773 0.1713 0.0
O123 O 0.14337 0.71811 0.14843 0.0
O124 O 0.18229 0.71038 0.27372 0.0
O125 O 0.15743 0.71565 0.28953 0.0
O126 O 0.46995 0.12131 0.34442 0.0
Cd127 Cd 0.44341 0.12084 0.35834 0.0
Cd128 Cd 0.46729 0.15429 0.40415 0.0
O129 O 0.48722 0.14428 0.39735 0.0
O130 O 0.42152 0.09243 0.36147 0.0
O131 O 0.43247 0.11222 0.42363 0.0
C132 C 0.42097 0.09471 0.4064 0.0
C133 C 0.46612 0.16941 0.47426 0.0
C134 C 0.48597 0.13149 0.36761 0.0
C135 C 0.4475 0.1575 0.3158 0.0
O136 O 0.4616 0.16606 0.3453 0.0
O137 O 0.43626 0.13869 0.31696 0.0
O138 O 0.48124 0.17773 0.44651 0.0
O139 O 0.45176 0.15198 0.46313 0.0
O140 O 0.35922 0.46389 0.50965 0.0
Cd141 Cd 0.33279 0.43789 0.52444 0.0
Cd142 Cd 0.32426 0.46274 0.56888 0.0
O143 O 0.35444 0.48188 0.5623 0.0
O144 O 0.33868 0.4156 0.52797 0.0
O145 O 0.33041 0.42717 0.58995 0.0
C146 C 0.336 0.41531 0.57293 0.0
C147 C 0.30794 0.46191 0.63871 0.0
C148 C 0.36564 0.48003 0.53256 0.0
C149 C 0.30085 0.44282 0.48113 0.0
O150 O 0.30692 0.45726 0.50976 0.0
O151 O 0.30784 0.4311 0.48325 0.0
O152 O 0.31514 0.47707 0.61108 0.0
O153 O 0.31067 0.44733 0.62767 0.0
O154 O 0.90586 0.3532 0.67186 0.0
Cd155 Cd 0.90713 0.32768 0.68451 0.0
Cd156 Cd 0.87221 0.31555 0.73028 0.0
O157 O 0.88012 0.3449 0.7183 0.0
O158 O 0.93574 0.33505 0.68996 0.0
O159 O 0.91478 0.32454 0.75012 0.0
C160 C 0.93268 0.33132 0.73448 0.0
C161 C 0.857 0.30069 0.80148 0.0
C162 C 0.89381 0.3575 0.69165 0.0
C163 C 0.87175 0.29241 0.64355 0.0
O164 O 0.86211 0.29563 0.67513 0.0
O165 O 0.89061 0.30322 0.64106 0.0
O166 O 0.84811 0.30561 0.77062 0.0
O167 O 0.87505 0.30494 0.79291 0.0
C168 C 0.16868 0.42041 0.19962 0.0
C169 C 0.17396 0.4394 0.18242 0.0
C170 C 0.18071 0.41807 0.23303 0.0
C171 C 0.21538 0.44405 0.32806 0.0
H172 H 0.24076 0.41297 0.30161 0.0
C173 C 0.28287 0.45622 0.43481 0.0
C174 C 0.28564 0.44012 0.44565 0.0
C175 C 0.26805 0.45399 0.40354 0.0
C176 C 0.23353 0.42142 0.31005 0.0
H177 H 0.19576 0.4708 0.18741 0.0
H178 H 0.21621 0.46675 0.24651 0.0
H179 H 0.21613 0.41234 0.24647 0.0
H180 H 0.27512 0.40905 0.43129 0.0
H181 H 0.24866 0.40495 0.37722 0.0
H182 H 0.23231 0.45303 0.39156 0.0
C183 C 0.20298 0.45368 0.23375 0.0
C184 C 0.21946 0.42107 0.27838 0.0
C185 C 0.19128 0.45597 0.1998 0.0
C186 C 0.27338 0.42175 0.4236 0.0
C187 C 0.25825 0.41943 0.39253 0.0
C188 C 0.22913 0.44416 0.35995 0.0
C189 C 0.19789 0.43474 0.25058 0.0
C190 C 0.21067 0.4328 0.28658 0.0
C191 C 0.25523 0.4355 0.38259 0.0
C192 C 0.2389 0.43337 0.35078 0.0
H193 H 0.15547 0.40737 0.18669 0.0
H194 H 0.17647 0.40332 0.2456 0.0
H195 H 0.20862 0.45302 0.33548 0.0
H196 H 0.29224 0.47068 0.45052 0.0
H197 H 0.26673 0.46692 0.39573 0.0
C198 C 0.86751 0.27694 0.56341 0.0
C199 C 0.86051 0.2761 0.60946 0.0
C200 C 0.85567 0.26238 0.53029 0.0
C201 C 0.81386 0.21139 0.51621 0.0
H202 H 0.8021 0.23099 0.40236 0.0
C203 C 0.7486 0.16 0.39206 0.0
C204 C 0.74994 0.1651 0.34427 0.0
C205 C 0.76355 0.1725 0.42372 0.0
C206 C 0.80548 0.22509 0.43328 0.0
H207 H 0.83612 0.25886 0.65753 0.0
H208 H 0.81582 0.23327 0.60018 0.0
H209 H 0.82629 0.25435 0.4579 0.0
H210 H 0.76851 0.1865 0.29151 0.0
H211 H 0.79498 0.20753 0.34557 0.0
H212 H 0.79335 0.18211 0.49153 0.0
C213 C 0.83029 0.24525 0.58952 0.0
C214 C 0.81934 0.2386 0.46528 0.0
C215 C 0.84188 0.25998 0.62224 0.0
C216 C 0.76695 0.18233 0.32833 0.0
C217 C 0.78206 0.19452 0.35959 0.0
C218 C 0.80024 0.19781 0.48374 0.0
C219 C 0.83687 0.24649 0.54297 0.0
C220 C 0.82351 0.23192 0.50732 0.0
C221 C 0.78038 0.19017 0.40805 0.0
C222 C 0.79565 0.20446 0.44195 0.0
H223 H 0.88176 0.28921 0.55251 0.0
H224 H 0.86111 0.26364 0.49462 0.0
H225 H 0.81686 0.20585 0.54834 0.0
H226 H 0.73558 0.14686 0.40532 0.0
H227 H 0.76149 0.16863 0.4607 0.0
C228 C 0.58159 0.75429 0.50652 0.0
C229 C 0.59109 0.743 0.51156 0.0
C230 C 0.58477 0.76906 0.53899 0.0
C231 C 0.59926 0.78403 0.66173 0.0
H232 H 0.60119 0.83256 0.62054 0.0
C233 C 0.57978 0.83078 0.78433 0.0
C234 C 0.59048 0.85163 0.7807 0.0
C235 C 0.58303 0.81897 0.75262 0.0
C236 C 0.60095 0.81923 0.63273 0.0
H237 H 0.61167 0.7387 0.55472 0.0
H238 H 0.61719 0.76462 0.6119 0.0
H239 H 0.60176 0.80977 0.56238 0.0
H240 H 0.61328 0.87639 0.74094 0.0
H241 H 0.61895 0.85567 0.68525 0.0
H242 H 0.59824 0.7934 0.73208 0.0
C243 C 0.6072 0.76187 0.58264 0.0
C244 C 0.60107 0.80605 0.59934 0.0
C245 C 0.6041 0.74709 0.54979 0.0
C246 C 0.60474 0.86038 0.74472 0.0
C247 C 0.60793 0.84851 0.7127 0.0
C248 C 0.59908 0.79718 0.69513 0.0
C249 C 0.5975 0.773 0.57765 0.0
C250 C 0.59979 0.78807 0.61335 0.0
C251 C 0.59705 0.82763 0.71619 0.0
C252 C 0.5995 0.81476 0.68102 0.0
H253 H 0.57149 0.75163 0.47753 0.0
H254 H 0.5768 0.77708 0.53438 0.0
H255 H 0.59817 0.7703 0.67379 0.0
H256 H 0.56868 0.82346 0.81156 0.0
H257 H 0.57415 0.80297 0.75598 0.0
C258 C 0.86394 0.60041 0.70342 0.0
C259 C 0.85791 0.58149 0.68453 0.0
C260 C 0.85221 0.60287 0.73749 0.0
C261 C 0.81664 0.57669 0.83089 0.0
H262 H 0.79237 0.60884 0.80513 0.0
C263 C 0.7483 0.56449 0.93445 0.0
C264 C 0.74566 0.58064 0.94546 0.0
C265 C 0.76348 0.5668 0.90419 0.0
C266 C 0.79928 0.60008 0.81343 0.0
H267 H 0.83519 0.55034 0.6874 0.0
H268 H 0.81529 0.55457 0.74765 0.0
H269 H 0.81728 0.6096 0.7508 0.0
H270 H 0.75684 0.61195 0.93262 0.0
H271 H 0.78385 0.61619 0.88042 0.0
H272 H 0.79905 0.56721 0.8934 0.0
C273 C 0.82884 0.5675 0.73569 0.0
C274 C 0.81353 0.60053 0.78223 0.0
C275 C 0.84023 0.56512 0.70109 0.0
C276 C 0.75846 0.59919 0.92475 0.0
C277 C 0.7739 0.60159 0.89473 0.0
C278 C 0.80271 0.57647 0.86235 0.0
C279 C 0.8346 0.58638 0.75402 0.0
C280 C 0.82192 0.58841 0.79011 0.0
C281 C 0.77675 0.58544 0.88447 0.0
C282 C 0.79332 0.58766 0.85339 0.0
H283 H 0.87744 0.6133 0.69112 0.0
H284 H 0.85695 0.61758 0.75121 0.0
H285 H 0.82305 0.56737 0.838 0.0
H286 H 0.73857 0.5499 0.94919 0.0
H287 H 0.76468 0.55383 0.89612 0.0
C288 C 0.27314 0.85589 0.86547 0.0
C289 C 0.28595 0.85025 0.84433 0.0
C290 C 0.25807 0.84292 0.89639 0.0
C291 C 0.23029 0.78919 0.93091 0.0
H292 H 0.21543 0.80803 0.04147 0.0
C293 C 0.19164 0.74009 0.09157 0.0
C294 C 0.17403 0.73911 0.10758 0.0
C295 C 0.20345 0.75395 0.05752 0.0
C296 C 0.2193 0.80262 0.01038 0.0
H297 H 0.29351 0.82694 0.84084 0.0
H298 H 0.2681 0.80491 0.89552 0.0
H299 H 0.24009 0.83203 0.9865 0.0
H300 H 0.15515 0.75214 0.1007 0.0
H301 H 0.17634 0.77698 0.04166 0.0
H302 H 0.21025 0.75981 0.95613 0.0
C303 C 0.26896 0.81891 0.88707 0.0
C304 C 0.23339 0.81634 0.97878 0.0
C305 C 0.28374 0.83167 0.85588 0.0
C306 C 0.16858 0.75248 0.08888 0.0
C307 C 0.18072 0.76672 0.05537 0.0
C308 C 0.21653 0.77556 0.96278 0.0
C309 C 0.25563 0.82411 0.90719 0.0
C310 C 0.2394 0.80979 0.93906 0.0
C311 C 0.1982 0.76746 0.03921 0.0
C312 C 0.21113 0.7821 1.0032 0.0
H313 H 0.27443 0.87009 0.85719 0.0
H314 H 0.24807 0.84746 0.91094 0.0
H315 H 0.23397 0.78348 0.90008 0.0
H316 H 0.19625 0.72999 0.10511 0.0
H317 H 0.21691 0.75428 0.04587 0.0
C318 C 0.46065 0.18901 0.27022 0.0
C319 C 0.4447 0.16995 0.28036 0.0
C320 C 0.45833 0.20158 0.23913 0.0
C321 C 0.42586 0.20336 0.14507 0.0
H322 H 0.4567 0.25978 0.17226 0.0
C323 C 0.42443 0.2673 0.03613 0.0
C324 C 0.44346 0.28112 0.01911 0.0
C325 C 0.42211 0.25287 0.06932 0.0
C326 C 0.44792 0.24406 0.16436 0.0
H327 H 0.41378 0.14901 0.26488 0.0
H328 H 0.40948 0.17131 0.21112 0.0
H329 H 0.45681 0.23602 0.22785 0.0
H330 H 0.47492 0.29089 0.02426 0.0
H331 H 0.47089 0.26631 0.08308 0.0
H332 H 0.41686 0.21178 0.08151 0.0
C333 C 0.42394 0.17639 0.22685 0.0
C334 C 0.44811 0.23039 0.19596 0.0
C335 C 0.42637 0.16361 0.25774 0.0
C336 C 0.46006 0.28044 0.03653 0.0
C337 C 0.45778 0.26641 0.0703 0.0
C338 C 0.42542 0.21711 0.11369 0.0
C339 C 0.43986 0.19569 0.21767 0.0
C340 C 0.4376 0.20987 0.18614 0.0
C341 C 0.43882 0.25242 0.08686 0.0
C342 C 0.43689 0.23761 0.12255 0.0
H343 H 0.47509 0.19429 0.28636 0.0
H344 H 0.47117 0.21599 0.23189 0.0
H345 H 0.41763 0.18773 0.13612 0.0
H346 H 0.41136 0.26739 0.02313 0.0
H347 H 0.40733 0.24225 0.08169 0.0
C348 C 0.12433 0.49775 0.15004 0.0
C349 C 0.13041 0.49551 0.10495 0.0
C350 C 0.12264 0.51441 0.16081 0.0
C351 C 0.11369 0.55237 0.11325 0.0
H352 H 0.14873 0.58704 0.21092 0.0
C353 C 0.12545 0.63124 0.14274 0.0
C354 C 0.13066 0.63972 0.18781 0.0
C355 C 0.12384 0.6128 0.13356 0.0
C356 C 0.13846 0.57741 0.18429 0.0
H357 H 0.1387 0.50852 0.03529 0.0
H358 H 0.13501 0.5373 0.05378 0.0
H359 H 0.14786 0.55596 0.19374 0.0
H360 H 0.13734 0.63515 0.25918 0.0
H361 H 0.13338 0.60257 0.24419 0.0
H362 H 0.10369 0.57327 0.10454 0.0
C363 C 0.13187 0.52628 0.08083 0.0
C364 C 0.13812 0.55963 0.17429 0.0
C365 C 0.13404 0.50988 0.07037 0.0
C366 C 0.13351 0.62907 0.22394 0.0
C367 C 0.13142 0.61042 0.2151 0.0
C368 C 0.11365 0.56994 0.12398 0.0
C369 C 0.12649 0.52885 0.12635 0.0
C370 C 0.1259 0.54708 0.1384 0.0
C371 C 0.12696 0.60214 0.16953 0.0
C372 C 0.12621 0.58287 0.15936 0.0
H373 H 0.12154 0.48697 0.17747 0.0
H374 H 0.11845 0.51611 0.19615 0.0
H375 H 0.10407 0.54283 0.08554 0.0
H376 H 0.12333 0.6392 0.1141 0.0
H377 H 0.12074 0.60725 0.09782 0.0
C378 C 0.64375 0.14364 0.25213 0.0
C379 C 0.64833 0.12999 0.27287 0.0
C380 C 0.62562 0.14272 0.26143 0.0
C381 C 0.57451 0.10971 0.30556 0.0
H382 H 0.57575 0.15943 0.32937 0.0
C383 C 0.52136 0.14096 0.38384 0.0
C384 C 0.50362 0.1293 0.35868 0.0
C385 C 0.53847 0.14003 0.37366 0.0
C386 C 0.57514 0.14539 0.32312 0.0
H387 H 0.63718 0.10439 0.3191 0.0
H388 H 0.60557 0.10287 0.33553 0.0
H389 H 0.60649 0.1597 0.31085 0.0
H390 H 0.4899 0.10707 0.30383 0.0
H391 H 0.5199 0.1055 0.28595 0.0
H392 H 0.54311 0.09541 0.31858 0.0
C393 C 0.61598 0.1142 0.31176 0.0
C394 C 0.59275 0.14557 0.31194 0.0
C395 C 0.63416 0.11516 0.30254 0.0
C396 C 0.5033 0.11626 0.32389 0.0
C397 C 0.52047 0.1153 0.31376 0.0
C398 C 0.55684 0.10954 0.31658 0.0
C399 C 0.61158 0.1281 0.29166 0.0
C400 C 0.59268 0.12774 0.30309 0.0
C401 C 0.53834 0.1274 0.33809 0.0
C402 C 0.55697 0.12739 0.32572 0.0
H403 H 0.65423 0.15521 0.22891 0.0
H404 H 0.62258 0.15346 0.24481 0.0
H405 H 0.57393 0.09573 0.29856 0.0
H406 H 0.52216 0.15108 0.41109 0.0
H407 H 0.55187 0.14928 0.39367 0.0
C408 C 0.39321 0.51453 0.55042 0.0
C409 C 0.38586 0.49707 0.52348 0.0
C410 C 0.41177 0.53105 0.54051 0.0
C411 C 0.44779 0.55448 0.44422 0.0
H412 H 0.48266 0.58738 0.54445 0.0
C413 C 0.51137 0.63493 0.41358 0.0
C414 C 0.52941 0.64149 0.43778 0.0
C415 C 0.49486 0.61632 0.42319 0.0
C416 C 0.47321 0.57826 0.516 0.0
H417 H 0.39256 0.48322 0.46546 0.0
H418 H 0.42504 0.51211 0.44825 0.0
H419 H 0.45239 0.55643 0.56375 0.0
H420 H 0.54425 0.63339 0.49068 0.0
H421 H 0.51542 0.60086 0.50734 0.0
H422 H 0.4686 0.57634 0.39648 0.0
C423 C 0.4163 0.51302 0.47682 0.0
C424 C 0.45575 0.56062 0.52709 0.0
C425 C 0.39773 0.49643 0.48688 0.0
C426 C 0.53059 0.62885 0.47145 0.0
C427 C 0.51403 0.61024 0.48119 0.0
C428 C 0.46522 0.57217 0.43313 0.0
C429 C 0.42347 0.53058 0.50332 0.0
C430 C 0.44271 0.54863 0.49137 0.0
C431 C 0.49593 0.6038 0.45734 0.0
C432 C 0.47803 0.58438 0.46891 0.0
H433 H 0.38449 0.51559 0.57887 0.0
H434 H 0.41671 0.54441 0.56124 0.0
H435 H 0.43801 0.54569 0.41587 0.0
H436 H 0.50989 0.64426 0.38745 0.0
H437 H 0.48109 0.61195 0.40461 0.0
C438 C 0.88383 0.50386 0.57457 0.0
C439 C 0.89596 0.52168 0.59891 0.0
C440 C 0.88482 0.48677 0.58437 0.0
C441 C 0.87995 0.45032 0.63467 0.0
H442 H 0.9298 0.45133 0.65572 0.0
C443 C 0.88195 0.38181 0.70457 0.0
C444 C 0.89538 0.37709 0.6831 0.0
C445 C 0.88291 0.39994 0.69543 0.0
C446 C 0.91576 0.45079 0.64969 0.0
H447 H 0.91907 0.53558 0.65185 0.0
H448 H 0.92071 0.50561 0.66914 0.0
H449 H 0.93008 0.48209 0.6359 0.0
H450 H 0.92064 0.38799 0.63573 0.0
H451 H 0.9222 0.41958 0.6195 0.0
H452 H 0.86561 0.41906 0.64763 0.0
C453 C 0.91051 0.50495 0.64223 0.0
C454 C 0.91591 0.46845 0.63879 0.0
C455 C 0.90951 0.52211 0.63244 0.0
C456 C 0.91004 0.39112 0.65287 0.0
C457 C 0.91102 0.4093 0.64376 0.0
C458 C 0.87979 0.43273 0.64568 0.0
C459 C 0.89795 0.487 0.61878 0.0
C460 C 0.89799 0.46839 0.63093 0.0
C461 C 0.89733 0.41384 0.66459 0.0
C462 C 0.89768 0.43272 0.65329 0.0
H463 H 0.87331 0.50297 0.54827 0.0
H464 H 0.8752 0.4733 0.56501 0.0
H465 H 0.86585 0.44977 0.62945 0.0
H466 H 0.87054 0.37144 0.72827 0.0
H467 H 0.87234 0.40309 0.71266 0.0
C468 C 0.39423 0.89899 0.81211 0.0
C469 C 0.38602 0.89449 0.76667 0.0
C470 C 0.41254 0.90024 0.82136 0.0
C471 C 0.4479 0.88582 0.7694 0.0
H472 H 0.48214 0.91864 0.87052 0.0
C473 C 0.52759 0.89952 0.80391 0.0
C474 C 0.52979 0.89311 0.84864 0.0
C475 C 0.51078 0.90104 0.79336 0.0
C476 C 0.47268 0.90944 0.84218 0.0
H477 H 0.39096 0.88874 0.69479 0.0
H478 H 0.42334 0.89211 0.70999 0.0
H479 H 0.45193 0.91959 0.85179 0.0
H480 H 0.51648 0.88392 0.91783 0.0
H481 H 0.48744 0.88729 0.89974 0.0
H482 H 0.46924 0.8763 0.75905 0.0
C483 C 0.41536 0.89376 0.73924 0.0
C484 C 0.45525 0.90981 0.83158 0.0
C485 C 0.39683 0.89202 0.7303 0.0
C486 C 0.51515 0.88883 0.88301 0.0
C487 C 0.4986 0.89083 0.8728 0.0
C488 C 0.46555 0.88583 0.77931 0.0
C489 C 0.42334 0.89748 0.78512 0.0
C490 C 0.44245 0.89784 0.7953 0.0
C491 C 0.49615 0.89668 0.8277 0.0
C492 C 0.47798 0.89748 0.81604 0.0
H493 H 0.38613 0.90079 0.84094 0.0
H494 H 0.41786 0.90278 0.85731 0.0
H495 H 0.43836 0.87599 0.74203 0.0
H496 H 0.53858 0.90284 0.77666 0.0
H497 H 0.50919 0.9056 0.75836 0.0
C498 C 0.51359 0.39095 0.90084 0.0
C499 C 0.50009 0.38047 0.93712 0.0
C500 C 0.5302 0.40964 0.90928 0.0
C501 C 0.55305 0.45057 0.99926 0.0
H502 H 0.60126 0.46414 0.92994 0.0
C503 C 0.63346 0.51102 0.05252 0.0
C504 C 0.64444 0.52506 0.01747 0.0
C505 C 0.61485 0.49458 0.04219 0.0
C506 C 0.58784 0.46059 0.94925 0.0
H507 H 0.49331 0.38134 0.01071 0.0
H508 H 0.52275 0.41338 0.02632 0.0
H509 H 0.57095 0.43299 0.91338 0.0
H510 H 0.64448 0.53296 0.94424 0.0
H511 H 0.6122 0.50375 0.92586 0.0
H512 H 0.57065 0.47789 0.03695 0.0
C513 C 0.52027 0.40766 0.99075 0.0
C514 C 0.57035 0.44277 0.9396 0.0
C515 C 0.50339 0.38916 0.98194 0.0
C516 C 0.63632 0.52245 0.97202 0.0
C517 C 0.61793 0.50573 0.96143 0.0
C518 C 0.5707 0.46819 0.00963 0.0
C519 C 0.53406 0.41814 0.95462 0.0
C520 C 0.55263 0.43745 0.9644 0.0
C521 C 0.6071 0.49162 0.99638 0.0
C522 C 0.58822 0.47334 0.98464 0.0
H523 H 0.51131 0.3847 0.86577 0.0
H524 H 0.54001 0.41735 0.88008 0.0
H525 H 0.53975 0.44735 0.01856 0.0
H526 H 0.63931 0.51268 0.08788 0.0
H527 H 0.6068 0.48383 0.06964 0.0
C528 C 0.29676 0.47836 0.6968 0.0
C529 C 0.29586 0.46095 0.67989 0.0
C530 C 0.28399 0.47745 0.73253 0.0
C531 C 0.23495 0.44487 0.78184 0.0
H532 H 0.25396 0.48196 0.88623 0.0
C533 C 0.18313 0.44319 0.93163 0.0
C534 C 0.18744 0.46149 0.95141 0.0
C535 C 0.19597 0.44228 0.89838 0.0
C536 C 0.24832 0.47167 0.85695 0.0
H537 H 0.28114 0.42894 0.68772 0.0
H538 H 0.25852 0.42733 0.75004 0.0
H539 H 0.27769 0.48175 0.83055 0.0
H540 H 0.20791 0.49326 0.95 0.0
H541 H 0.2298 0.4918 0.89093 0.0
H542 H 0.20553 0.43518 0.80727 0.0
C543 C 0.2692 0.44167 0.73557 0.0
C544 C 0.26197 0.47148 0.82527 0.0
C545 C 0.28223 0.44261 0.70023 0.0
C546 C 0.20429 0.47891 0.93574 0.0
C547 C 0.21696 0.47804 0.90218 0.0
C548 C 0.22124 0.4452 0.81328 0.0
C549 C 0.26985 0.45907 0.75172 0.0
C550 C 0.25543 0.45821 0.78718 0.0
C551 C 0.21326 0.45968 0.8839 0.0
C552 C 0.22774 0.45877 0.85098 0.0
H553 H 0.30711 0.49271 0.68182 0.0
H554 H 0.28473 0.49109 0.74406 0.0
H555 H 0.2295 0.43462 0.75245 0.0
H556 H 0.17029 0.42949 0.94325 0.0
H557 H 0.19269 0.42786 0.88536 0.0
C558 C 0.73628 0.19738 0.09871 0.0
C559 C 0.73661 0.18026 0.11289 0.0
C560 C 0.74958 0.21002 0.06476 0.0
C561 C 0.78639 0.21444 0.97416 0.0
H562 H 0.80681 0.27076 0.9941 0.0
C563 C 0.85116 0.27609 0.86522 0.0
C564 C 0.84608 0.28916 0.84338 0.0
C565 C 0.83898 0.2631 0.90046 0.0
C566 C 0.80123 0.25508 0.98818 0.0
H567 H 0.75067 0.16255 0.10171 0.0
H568 H 0.7744 0.18494 0.04339 0.0
H569 H 0.7826 0.24676 0.04891 0.0
H570 H 0.82492 0.29963 0.84271 0.0
H571 H 0.80404 0.27743 0.90522 0.0
H572 H 0.80554 0.22306 0.91378 0.0
C573 C 0.76358 0.18844 0.05765 0.0
C574 C 0.7872 0.24127 0.01926 0.0
C575 C 0.74999 0.17558 0.09111 0.0
C576 C 0.82918 0.2897 0.85893 0.0
C577 C 0.81726 0.27704 0.89473 0.0
C578 C 0.80069 0.22832 0.94345 0.0
C579 C 0.76385 0.20609 0.04483 0.0
C580 C 0.77932 0.22073 0.01228 0.0
C581 C 0.8218 0.26332 0.91508 0.0
C582 C 0.80802 0.24874 0.94986 0.0
H583 H 0.72598 0.20125 0.11462 0.0
H584 H 0.74886 0.22309 0.05476 0.0
H585 H 0.78056 0.19879 0.96728 0.0
H586 H 0.86404 0.27528 0.85365 0.0
H587 H 0.84283 0.25272 0.91589 0.0
C588 C 0.58298 0.74455 0.25919 0.0
C589 C 0.56484 0.73094 0.28039 0.0
C590 C 0.58371 0.75819 0.2259 0.0
C591 C 0.55436 0.78158 0.1872 0.0
H592 H 0.59092 0.79992 0.08165 0.0
C593 C 0.5478 0.82419 0.02845 0.0
C594 C 0.56532 0.84075 0.01196 0.0
C595 C 0.54858 0.81216 0.06391 0.0
C596 C 0.58081 0.79509 0.11134 0.0
H597 H 0.53311 0.72004 0.28128 0.0
H598 H 0.5342 0.74309 0.22192 0.0
H599 H 0.59029 0.77503 0.13522 0.0
H600 H 0.59736 0.85797 0.02033 0.0
H601 H 0.59873 0.83665 0.08208 0.0
H602 H 0.54445 0.80118 0.1622 0.0
C603 C 0.54802 0.74389 0.23218 0.0
C604 C 0.58043 0.78083 0.14207 0.0
C605 C 0.54734 0.7305 0.26587 0.0
C606 C 0.58361 0.84537 0.03257 0.0
C607 C 0.58442 0.8331 0.06756 0.0
C608 C 0.55456 0.79561 0.15616 0.0
C609 C 0.56627 0.75831 0.21273 0.0
C610 C 0.56707 0.77375 0.18021 0.0
C611 C 0.56692 0.81626 0.08312 0.0
C612 C 0.56769 0.80241 0.11778 0.0
H613 H 0.59673 0.74532 0.26997 0.0
H614 H 0.59806 0.76913 0.21198 0.0
H615 H 0.54425 0.77695 0.21685 0.0
H616 H 0.5335 0.82026 0.01322 0.0
H617 H 0.53488 0.7992 0.07507 0.0
C618 C 0.84781 0.57811 0.42735 0.0
C619 C 0.84279 0.55985 0.44855 0.0
C620 C 0.83569 0.57905 0.39209 0.0
C621 C 0.79803 0.54898 0.30377 0.0
H622 H 0.77894 0.58617 0.31962 0.0
C623 C 0.73329 0.54191 0.19239 0.0
C624 C 0.73427 0.55937 0.17572 0.0
C625 C 0.7467 0.54277 0.22635 0.0
C626 C 0.78433 0.57589 0.31421 0.0
H627 H 0.82163 0.5282 0.44836 0.0
H628 H 0.8008 0.52981 0.38626 0.0
H629 H 0.80338 0.5867 0.37472 0.0
H630 H 0.74967 0.59144 0.18254 0.0
H631 H 0.77345 0.59304 0.24111 0.0
H632 H 0.77935 0.53828 0.24312 0.0
C633 C 0.81398 0.54339 0.39706 0.0
C634 C 0.79833 0.57621 0.34581 0.0
C635 C 0.82587 0.54249 0.43271 0.0
C636 C 0.74849 0.57771 0.19495 0.0
C637 C 0.76211 0.57861 0.22858 0.0
C638 C 0.78424 0.5488 0.27193 0.0
C639 C 0.81858 0.5617 0.37689 0.0
C640 C 0.80508 0.56256 0.34125 0.0
C641 C 0.76163 0.56116 0.244 0.0
C642 C 0.77694 0.56202 0.27714 0.0
H643 H 0.86072 0.59173 0.43903 0.0
H644 H 0.83963 0.59333 0.37686 0.0
H645 H 0.80319 0.53847 0.29911 0.0
H646 H 0.72237 0.52753 0.17856 0.0
H647 H 0.74548 0.52898 0.23833 0.0
C648 C 0.20261 0.72963 0.35817 0.0
C649 C 0.18604 0.73049 0.34132 0.0
C650 C 0.21459 0.74251 0.39359 0.0
C651 C 0.23108 0.7916 0.44267 0.0
H652 H 0.2494 0.77273 0.54691 0.0
C653 C 0.28105 0.84332 0.59289 0.0
C654 C 0.29514 0.83911 0.61254 0.0
C655 C 0.26735 0.83051 0.55949 0.0
C656 C 0.24468 0.77833 0.51767 0.0
H657 H 0.16882 0.74531 0.34891 0.0
H658 H 0.19002 0.76809 0.41071 0.0
H659 H 0.22547 0.74899 0.49125 0.0
H660 H 0.3067 0.81886 0.61074 0.0
H661 H 0.28344 0.79703 0.55147 0.0
H662 H 0.25071 0.821 0.46821 0.0
C663 C 0.19364 0.75737 0.39641 0.0
C664 C 0.23085 0.76468 0.48599 0.0
C665 C 0.18144 0.74425 0.36135 0.0
C666 C 0.29588 0.8224 0.59658 0.0
C667 C 0.28239 0.80976 0.5629 0.0
C668 C 0.24511 0.80532 0.47414 0.0
C669 C 0.21042 0.75672 0.41256 0.0
C670 C 0.22403 0.77117 0.44795 0.0
C671 C 0.26761 0.81335 0.54477 0.0
C672 C 0.25226 0.79887 0.51178 0.0
H673 H 0.20654 0.7192 0.34344 0.0
H674 H 0.22751 0.74177 0.40511 0.0
H675 H 0.22622 0.79702 0.41333 0.0
H676 H 0.28005 0.85604 0.60472 0.0
H677 H 0.25612 0.83371 0.54656 0.0
C678 C 0.44657 0.27443 0.76814 0.0
C679 C 0.4649 0.28849 0.78776 0.0
C680 C 0.44563 0.26063 0.73506 0.0
C681 C 0.47508 0.23777 0.69376 0.0
H682 H 0.43809 0.21955 0.58901 0.0
C683 C 0.48232 0.19683 0.53292 0.0
C684 C 0.46498 0.18026 0.51573 0.0
C685 C 0.48124 0.20846 0.56893 0.0
C686 C 0.44832 0.22433 0.61849 0.0
H687 H 0.49673 0.29986 0.78627 0.0
H688 H 0.49523 0.27643 0.72752 0.0
H689 H 0.43852 0.24393 0.64399 0.0
H690 H 0.43293 0.16264 0.52332 0.0
H691 H 0.43102 0.18326 0.58613 0.0
H692 H 0.48529 0.21864 0.66725 0.0
C693 C 0.48145 0.27548 0.73876 0.0
C694 C 0.44857 0.23829 0.65001 0.0
C695 C 0.48234 0.28907 0.77214 0.0
C696 C 0.44655 0.17527 0.53606 0.0
C697 C 0.44543 0.18713 0.57168 0.0
C698 C 0.47496 0.22401 0.662 0.0
C699 C 0.46304 0.26076 0.72061 0.0
C700 C 0.46214 0.24538 0.68776 0.0
C701 C 0.46277 0.20394 0.58811 0.0
C702 C 0.46173 0.2173 0.6238 0.0
H703 H 0.43286 0.27356 0.77972 0.0
H704 H 0.43118 0.24945 0.72212 0.0
H705 H 0.48536 0.24243 0.72309 0.0
H706 H 0.49674 0.20105 0.51795 0.0
H707 H 0.49482 0.22141 0.58068 0.0
C708 C 0.0639 0.39093 0.03676 0.0
C709 C 0.08314 0.40302 0.01853 0.0
C710 C 0.04754 0.38095 0.00665 0.0
C711 C 0.03297 0.36436 0.88297 0.0
H712 H 0.98555 0.36643 0.91572 0.0
C713 C 0.96914 0.34527 0.75015 0.0
C714 C 0.94948 0.33603 0.76702 0.0
C715 C 0.98518 0.35151 0.78126 0.0
C716 C 0.99851 0.36538 0.9063 0.0
H717 H 0.1003 0.41358 0.95411 0.0
H718 H 0.07177 0.39621 0.9016 0.0
H719 H 1.01394 0.38065 0.96887 0.0
H720 H 0.93126 0.32548 0.82989 0.0
H721 H 0.95916 0.33602 0.88405 0.0
H722 H 0.01756 0.34921 0.82015 0.0
C723 C 0.06933 0.39433 0.93924 0.0
C724 C 1.01485 0.37359 0.93686 0.0
C725 C 0.0857 0.40436 0.96939 0.0
C726 C 0.94621 0.33261 0.81567 0.0
C727 C 0.96225 0.33881 0.84679 0.0
C728 C 0.01659 0.35609 0.85242 0.0
C729 C 0.04998 0.38276 0.95749 0.0
C730 C 0.03235 0.37329 0.92552 0.0
C731 C 0.98198 0.34864 0.83011 0.0
C732 C 0.99916 0.3566 0.86352 0.0
H733 H 0.06136 0.3895 0.07441 0.0
H734 H 0.03291 0.37192 0.02196 0.0
H735 H 0.04609 0.36363 0.87338 0.0
H736 H 0.97223 0.34822 0.71293 0.0
H737 H 1.00013 0.35921 0.76706 0.0
C738 C 0.62167 0.94054 0.98461 0.0
C739 C 0.62287 0.94316 0.93548 0.0
C740 C 0.6316 0.95687 0.01483 0.0
C741 C 0.65187 0.01122 0.01787 0.0
H742 H 0.67672 1.00856 0.13393 0.0
C743 C 0.6928 0.0796 0.13967 0.0
C744 C 0.6895 0.07622 0.18832 0.0
C745 C 0.68661 0.06366 0.10831 0.0
C746 C 0.6697 1.00951 0.10185 0.0
H747 H 0.636 0.96503 0.8797 0.0
H748 H 0.65343 0.99342 0.9323 0.0
H749 H 0.66237 0.98017 0.08042 0.0
H750 H 0.67753 0.05338 0.24216 0.0
H751 H 0.66657 0.02566 0.18764 0.0
H752 H 0.65885 0.04036 0.03948 0.0
C753 C 0.64458 0.97877 0.94753 0.0
C754 C 0.66148 0.99321 0.07113 0.0
C755 C 0.63469 0.96244 0.91734 0.0
C756 C 0.68039 0.05655 0.20494 0.0
C757 C 0.67416 0.04062 0.1736 0.0
C758 C 0.66004 0.02747 0.04859 0.0
C759 C 0.64294 0.97625 0.9967 0.0
C760 C 0.65237 0.99381 0.02882 0.0
C761 C 0.67692 0.04392 0.12477 0.0
C762 C 0.66899 0.02684 0.09115 0.0
H763 H 0.61265 0.9259 0.99982 0.0
H764 H 0.62984 0.95437 0.05247 0.0
H765 H 0.64468 0.01211 0.98605 0.0
H766 H 0.69982 0.09455 0.12562 0.0
H767 H 0.6893 0.06683 0.07106 0.0
C768 C 0.68252 0.62952 0.08332 0.0
C769 C 0.68982 0.61762 0.10189 0.0
C770 C 0.67613 0.63955 0.11316 0.0
C771 C 0.67854 0.65685 0.23624 0.0
H772 H 0.62864 0.65404 0.20411 0.0
C773 C 0.63422 0.67643 0.36899 0.0
C774 C 0.62343 0.68524 0.35195 0.0
C775 C 0.64395 0.67011 0.33795 0.0
C776 C 0.64277 0.6553 0.21334 0.0
H777 H 0.69666 0.60747 0.1666 0.0
H778 H 0.68551 0.62496 0.21863 0.0
H779 H 0.64275 0.63969 0.15126 0.0
H780 H 0.61507 0.69497 0.28882 0.0
H781 H 0.63236 0.68434 0.23477 0.0
H782 H 0.67848 0.67237 0.29851 0.0
C783 C 0.68483 0.62663 0.18094 0.0
C784 C 0.65086 0.64702 0.18296 0.0
C785 C 0.69116 0.61653 0.15107 0.0
C786 C 0.62317 0.68818 0.30318 0.0
C787 C 0.63296 0.68192 0.27212 0.0
C788 C 0.67047 0.66521 0.26659 0.0
C789 C 0.67692 0.63801 0.16237 0.0
C790 C 0.66879 0.64757 0.1941 0.0
C791 C 0.64322 0.67249 0.28899 0.0
C792 C 0.65239 0.66444 0.25572 0.0
H793 H 0.6813 0.63074 0.04563 0.0
H794 H 0.67042 0.64842 0.09762 0.0
H795 H 0.6925 0.65777 0.24566 0.0
H796 H 0.63467 0.67385 0.40632 0.0
H797 H 0.65147 0.66273 0.35234 0.0
C798 C 0.06311 0.67683 0.2505 0.0
C799 C 0.08232 0.68427 0.26926 0.0
C800 C 0.04659 0.67028 0.28017 0.0
C801 C 0.03133 0.67223 0.4033 0.0
H802 H 0.98442 0.62243 0.36996 0.0
C803 C 0.96701 0.62713 0.53479 0.0
C804 C 0.94744 0.61646 0.51741 0.0
C805 C 0.98317 0.63704 0.50406 0.0
C806 C 0.99723 0.63652 0.37954 0.0
H807 H 0.09923 0.6912 0.33414 0.0
H808 H 0.07042 0.67974 0.38588 0.0
H809 H 1.01305 0.63682 0.31754 0.0
H810 H 0.92951 0.60847 0.454 0.0
H811 H 0.95763 0.62603 0.4005 0.0
H812 H 1.01553 0.67182 0.46553 0.0
C813 C 0.06813 0.67909 0.34817 0.0
C814 C 1.01371 0.64479 0.3494 0.0
C815 C 0.08467 0.6856 0.31846 0.0
C816 C 0.94439 0.61648 0.46862 0.0
C817 C 0.96055 0.62643 0.43788 0.0
C818 C 1.0148 0.66398 0.43343 0.0
C819 C 0.04882 0.67103 0.32941 0.0
C820 C 0.03103 0.6627 0.36095 0.0
C821 C 0.98021 0.63658 0.45509 0.0
C822 C 0.99755 0.64594 0.42211 0.0
H823 H 0.06073 0.67563 0.21279 0.0
H824 H 0.03201 0.66448 0.26446 0.0
H825 H 0.0443 0.68616 0.41306 0.0
H826 H 0.96994 0.62738 0.57214 0.0
H827 H 0.99805 0.64448 0.51869 0.0
C828 C 0.409 0.07973 0.48669 0.0
C829 C 0.40863 0.07744 0.43751 0.0
C830 C 0.39895 0.06314 0.51618 0.0
C831 C 0.38015 1.00903 0.51784 0.0
H832 H 0.35302 1.00989 0.63161 0.0
C833 C 0.33891 0.93938 0.63563 0.0
C834 C 0.34119 0.94231 0.68459 0.0
C835 C 0.34522 0.95556 0.60496 0.0
C836 C 0.36068 1.00944 0.60019 0.0
H837 H 0.39679 0.05588 0.38083 0.0
H838 H 0.37918 0.02706 0.4321 0.0
H839 H 0.36749 0.0387 0.57936 0.0
H840 H 0.35147 0.9646 0.73965 0.0
H841 H 0.36267 0.99276 0.68633 0.0
H842 H 0.37372 0.97998 0.53887 0.0
C843 C 0.38747 0.04165 0.44798 0.0
C844 C 0.36898 0.02598 0.57018 0.0
C845 C 0.39746 0.05822 0.41852 0.0
C846 C 0.34941 0.96177 0.70216 0.0
C847 C 0.35577 0.97795 0.6715 0.0
C848 C 0.37192 0.99253 0.54786 0.0
C849 C 0.38833 0.04384 0.49724 0.0
C850 C 0.37888 0.02603 0.52866 0.0
C851 C 0.35405 0.97512 0.6224 0.0
C852 C 0.36213 0.9925 0.58959 0.0
H853 H 0.41749 0.0943 0.50255 0.0
H854 H 0.40009 0.0654 0.55392 0.0
H855 H 0.38797 1.00864 0.48666 0.0
H856 H 0.33258 0.9246 0.62085 0.0
H857 H 0.3433 0.95272 0.56747 0.0
C858 C 0.33885 0.40343 0.65343 0.0
C859 C 0.3407 0.40288 0.60427 0.0
C860 C 0.34523 0.39331 0.68313 0.0
C861 C 0.38014 0.37403 0.68535 0.0
H862 H 0.352 0.34737 0.79937 0.0
C863 C 0.40828 0.33299 0.80466 0.0
C864 C 0.40761 0.33545 0.85353 0.0
C865 C 0.39846 0.33924 0.77364 0.0
C866 C 0.36015 0.3549 0.76789 0.0
H867 H 0.35011 0.39064 0.54783 0.0
H868 H 0.36104 0.37291 0.59949 0.0
H869 H 0.33782 0.36185 0.74667 0.0
H870 H 0.3956 0.34598 0.90809 0.0
H871 H 0.37874 0.35707 0.85417 0.0
H872 H 0.40265 0.36748 0.70679 0.0
C873 C 0.35492 0.38139 0.61518 0.0
C874 C 0.35199 0.3632 0.73762 0.0
C875 C 0.3485 0.39145 0.58551 0.0
C876 C 0.39639 0.34378 0.87067 0.0
C877 C 0.38662 0.35007 0.83966 0.0
C878 C 0.38832 0.36581 0.71564 0.0
C879 C 0.35367 0.38244 0.66441 0.0
C880 C 0.36191 0.37294 0.69602 0.0
C881 C 0.38775 0.34817 0.79065 0.0
C882 C 0.37851 0.35619 0.75747 0.0
H883 H 0.33297 0.41213 0.66911 0.0
H884 H 0.34418 0.39459 0.72084 0.0
H885 H 0.38839 0.38173 0.6541 0.0
H886 H 0.41672 0.32658 0.79021 0.0
H887 H 0.39939 0.33718 0.73622 0.0
loop_
_geom_bond_atom_site_label_1
_geom_bond_atom_site_label_2
_geom_bond_distance
_geom_bond_site_symmetry_2
_ccdc_geom_bond_type
O0 Cd1 2.223 . S
O0 C8 1.315 . S
Cd1 O0 2.223 . S
Cd1 O4 2.297 . S
Cd1 O5 2.439 . S
Cd1 O11 2.240 . S
Cd2 O3 2.240 . S
Cd2 O10 2.223 . S
Cd2 O12 2.297 1_554 S
Cd2 O13 2.439 1_554 S
O3 Cd2 2.240 . S
O3 C8 1.279 . S
O4 Cd1 2.297 . S
O4 C6 1.247 . S
O5 Cd1 2.439 . S
O5 C6 1.208 . S
C6 O4 1.247 . S
C6 O5 1.208 . S
C7 O12 1.247 . S
C7 O13 1.208 . S
C8 O0 1.315 . S
C8 O3 1.279 . S
C9 O10 1.315 . S
C9 O11 1.279 . S
O10 Cd2 2.223 . S
O10 C9 1.315 . S
O11 Cd1 2.240 . S
O11 C9 1.279 . S
O12 Cd2 2.297 1_556 S
O12 C7 1.247 . S
O13 Cd2 2.439 1_556 S
O13 C7 1.208 . S
O14 Cd15 2.223 . S
O14 C22 1.315 . S
Cd15 O14 2.223 . S
Cd15 O18 2.297 . S
Cd15 O19 2.439 . S
Cd15 O25 2.240 . S
Cd16 O17 2.240 . S
Cd16 O24 2.223 . S
Cd16 O26 2.297 . S
Cd16 O27 2.439 . S
O17 Cd16 2.240 . S
O17 C22 1.279 . S
O18 Cd15 2.297 . S
O18 C20 1.247 . S
O19 Cd15 2.439 . S
O19 C20 1.208 . S
C20 O18 1.247 . S
C20 O19 1.208 . S
C21 O26 1.247 . S
C21 O27 1.208 . S
C22 O14 1.315 . S
C22 O17 1.279 . S
C23 O24 1.315 . S
C23 O25 1.279 . S
O24 Cd16 2.223 . S
O24 C23 1.315 . S
O25 Cd15 2.240 . S
O25 C23 1.279 . S
O26 Cd16 2.297 . S
O26 C21 1.247 . S
O27 Cd16 2.439 . S
O27 C21 1.208 . S
O28 Cd29 2.223 . S
O28 C36 1.315 . S
Cd29 O28 2.223 . S
Cd29 O32 2.297 . S
Cd29 O33 2.439 . S
Cd29 O39 2.240 . S
Cd30 O31 2.240 . S
Cd30 O38 2.223 . S
Cd30 O40 2.297 . S
Cd30 O41 2.439 . S
O31 Cd30 2.240 . S
O31 C36 1.279 . S
O32 Cd29 2.297 . S
O32 C34 1.247 . S
O33 Cd29 2.439 . S
O33 C34 1.208 . S
C34 O32 1.247 . S
C34 O33 1.208 . S
C35 O40 1.247 . S
C35 O41 1.208 . S
C36 O28 1.315 . S
C36 O31 1.279 . S
C37 O38 1.315 . S
C37 O39 1.279 . S
O38 Cd30 2.223 . S
O38 C37 1.315 . S
O39 Cd29 2.240 . S
O39 C37 1.279 . S
O40 Cd30 2.297 . S
O40 C35 1.247 . S
O41 Cd30 2.439 . S
O41 C35 1.208 . S
O42 Cd43 2.223 . S
O42 C50 1.315 . S
Cd43 O42 2.223 . S
Cd43 O46 2.297 . S
Cd43 O47 2.439 . S
Cd43 O53 2.240 . S
Cd44 O45 2.240 . S
Cd44 O52 2.223 . S
Cd44 O54 2.297 . S
Cd44 O55 2.439 . S
O45 Cd44 2.240 . S
O45 C50 1.279 . S
O46 Cd43 2.297 . S
O46 C48 1.247 . S
O47 Cd43 2.439 . S
O47 C48 1.208 . S
C48 O46 1.247 . S
C48 O47 1.208 . S
C49 O54 1.247 . S
C49 O55 1.208 . S
C50 O42 1.315 . S
C50 O45 1.279 . S
C51 O52 1.315 . S
C51 O53 1.279 . S
O52 Cd44 2.223 . S
O52 C51 1.315 . S
O53 Cd43 2.240 . S
O53 C51 1.279 . S
O54 Cd44 2.297 . S
O54 C49 1.247 . S
O55 Cd44 2.439 . S
O55 C49 1.208 . S
O56 Cd57 2.223 . S
O56 C64 1.315 . S
Cd57 O56 2.223 . S
Cd57 O60 2.297 . S
Cd57 O61 2.439 . S
Cd57 O67 2.240 . S
Cd58 O59 2.240 . S
Cd58 O66 2.223 . S
Cd58 O68 2.297 . S
Cd58 O69 2.439 . S
O59 Cd58 2.240 . S
O59 C64 1.279 . S
O60 Cd57 2.297 . S
O60 C62 1.247 . S
O61 Cd57 2.439 . S
O61 C62 1.208 . S
C62 O60 1.247 . S
C62 O61 1.208 . S
C63 O68 1.247 . S
C63 O69 1.208 . S
C64 O56 1.315 . S
C64 O59 1.279 . S
C65 O66 1.315 . S
C65 O67 1.279 . S
O66 Cd58 2.223 . S
O66 C65 1.315 . S
O67 Cd57 2.240 . S
O67 C65 1.279 . S
O68 Cd58 2.297 . S
O68 C63 1.247 . S
O69 Cd58 2.439 . S
O69 C63 1.208 . S
O70 Cd71 2.223 . S
O70 C78 1.315 . S
Cd71 O70 2.223 . S
Cd71 O74 2.297 . S
Cd71 O75 2.439 . S
Cd71 O81 2.240 . S
Cd72 O73 2.240 . S
Cd72 O80 2.223 . S
Cd72 O82 2.297 . S
Cd72 O83 2.439 . S
O73 Cd72 2.240 . S
O73 C78 1.279 . S
O74 Cd71 2.297 . S
O74 C76 1.247 . S
O75 Cd71 2.439 . S
O75 C76 1.208 . S
C76 O74 1.247 . S
C76 O75 1.208 . S
C77 O82 1.247 . S
C77 O83 1.208 . S
C78 O70 1.315 . S
C78 O73 1.279 . S
C79 O80 1.315 . S
C79 O81 1.279 . S
O80 Cd72 2.223 . S
O80 C79 1.315 . S
O81 Cd71 2.240 . S
O81 C79 1.279 . S
O82 Cd72 2.297 . S
O82 C77 1.247 . S
O83 Cd72 2.439 . S
O83 C77 1.208 . S
O84 Cd85 2.223 . S
O84 C92 1.315 . S
Cd85 O84 2.223 . S
Cd85 O88 2.297 . S
Cd85 O89 2.439 . S
Cd85 O95 2.240 . S
Cd86 O87 2.240 . S
Cd86 O94 2.223 . S
Cd86 O96 2.297 . S
Cd86 O97 2.439 . S
O87 Cd86 2.240 . S
O87 C92 1.279 . S
O88 Cd85 2.297 . S
O88 C90 1.247 . S
O89 Cd85 2.439 . S
O89 C90 1.208 . S
C90 O88 1.247 . S
C90 O89 1.208 . S
C91 O96 1.247 . S
C91 O97 1.208 . S
C92 O84 1.315 . S
C92 O87 1.279 . S
C93 O94 1.315 . S
C93 O95 1.279 . S
O94 Cd86 2.223 . S
O94 C93 1.315 . S
O95 Cd85 2.240 . S
O95 C93 1.279 . S
O96 Cd86 2.297 . S
O96 C91 1.247 . S
O97 Cd86 2.439 . S
O97 C91 1.208 . S
O98 Cd99 2.222 1_556 S
O98 C106 1.314 1_556 S
Cd99 O98 2.222 1_554 S
Cd99 O102 2.297 . S
Cd99 O103 2.439 . S
Cd99 O109 2.240 . S
Cd100 O101 2.240 . S
Cd100 O108 2.223 . S
Cd100 O110 2.297 . S
Cd100 O111 2.439 . S
O101 Cd100 2.240 . S
O101 C106 1.279 . S
O102 Cd99 2.297 . S
O102 C104 1.247 . S
O103 Cd99 2.439 . S
O103 C104 1.208 . S
C104 O102 1.247 . S
C104 O103 1.208 . S
C105 O110 1.247 . S
C105 O111 1.208 . S
C106 O98 1.314 1_554 S
C106 O101 1.279 . S
C107 O108 1.315 . S
C107 O109 1.279 . S
O108 Cd100 2.223 . S
O108 C107 1.315 . S
O109 Cd99 2.240 . S
O109 C107 1.279 . S
O110 Cd100 2.297 . S
O110 C105 1.247 . S
O111 Cd100 2.439 . S
O111 C105 1.208 . S
O112 Cd113 2.223 . S
O112 C120 1.315 . S
Cd113 O112 2.223 . S
Cd113 O116 2.297 . S
Cd113 O117 2.439 . S
Cd113 O123 2.240 . S
Cd114 O115 2.240 . S
Cd114 O122 2.223 . S
Cd114 O124 2.297 . S
Cd114 O125 2.439 . S
O115 Cd114 2.240 . S
O115 C120 1.279 . S
O116 Cd113 2.297 . S
O116 C118 1.247 . S
O117 Cd113 2.439 . S
O117 C118 1.208 . S
C118 O116 1.247 . S
C118 O117 1.208 . S
C119 O124 1.247 . S
C119 O125 1.208 . S
C120 O112 1.315 . S
C120 O115 1.279 . S
C121 O122 1.315 . S
C121 O123 1.279 . S
O122 Cd114 2.223 . S
O122 C121 1.315 . S
O123 Cd113 2.240 . S
O123 C121 1.279 . S
O124 Cd114 2.297 . S
O124 C119 1.247 . S
O125 Cd114 2.439 . S
O125 C119 1.208 . S
O126 Cd127 2.223 . S
O126 C134 1.315 . S
Cd127 O126 2.223 . S
Cd127 O130 2.297 . S
Cd127 O131 2.439 . S
Cd127 O137 2.240 . S
Cd128 O129 2.240 . S
Cd128 O136 2.223 . S
Cd128 O138 2.297 . S
Cd128 O139 2.439 . S
O129 Cd128 2.240 . S
O129 C134 1.279 . S
O130 Cd127 2.297 . S
O130 C132 1.247 . S
O131 Cd127 2.439 . S
O131 C132 1.208 . S
C132 O130 1.247 . S
C132 O131 1.208 . S
C133 O138 1.247 . S
C133 O139 1.208 . S
C134 O126 1.315 . S
C134 O129 1.279 . S
C135 O136 1.315 . S
C135 O137 1.279 . S
O136 Cd128 2.223 . S
O136 C135 1.315 . S
O137 Cd127 2.240 . S
O137 C135 1.279 . S
O138 Cd128 2.297 . S
O138 C133 1.247 . S
O139 Cd128 2.439 . S
O139 C133 1.208 . S
O140 Cd141 2.223 . S
O140 C148 1.315 . S
Cd141 O140 2.223 . S
Cd141 O144 2.297 . S
Cd141 O145 2.439 . S
Cd141 O151 2.240 . S
Cd142 O143 2.240 . S
Cd142 O150 2.223 . S
Cd142 O152 2.297 . S
Cd142 O153 2.439 . S
O143 Cd142 2.240 . S
O143 C148 1.279 . S
O144 Cd141 2.297 . S
O144 C146 1.247 . S
O145 Cd141 2.439 . S
O145 C146 1.208 . S
C146 O144 1.247 . S
C146 O145 1.208 . S
C147 O152 1.247 . S
C147 O153 1.208 . S
C148 O140 1.315 . S
C148 O143 1.279 . S
C149 O150 1.315 . S
C149 O151 1.279 . S
O150 Cd142 2.223 . S
O150 C149 1.315 . S
O151 Cd141 2.240 . S
O151 C149 1.279 . S
O152 Cd142 2.297 . S
O152 C147 1.247 . S
O153 Cd142 2.439 . S
O153 C147 1.208 . S
O154 Cd155 2.223 . S
O154 C162 1.315 . S
Cd155 O154 2.223 . S
Cd155 O158 2.297 . S
Cd155 O159 2.439 . S
Cd155 O165 2.240 . S
Cd156 O157 2.240 . S
Cd156 O164 2.223 . S
Cd156 O166 2.297 . S
Cd156 O167 2.439 . S
O157 Cd156 2.240 . S
O157 C162 1.279 . S
O158 Cd155 2.297 . S
O158 C160 1.247 . S
O159 Cd155 2.439 . S
O159 C160 1.208 . S
C160 O158 1.247 . S
C160 O159 1.208 . S
C161 O166 1.247 . S
C161 O167 1.208 . S
C162 O154 1.315 . S
C162 O157 1.279 . S
C163 O164 1.315 . S
C163 O165 1.279 . S
O164 Cd156 2.223 . S
O164 C163 1.315 . S
O165 Cd155 2.240 . S
O165 C163 1.279 . S
O166 Cd156 2.297 . S
O166 C161 1.247 . S
O167 Cd156 2.439 . S
O167 C161 1.208 . S
C168 C169 1.349 . S
C168 C170 1.327 . S
C168 H193 0.950 . S
C169 C168 1.349 . S
C169 C185 1.349 . S
C170 C168 1.327 . S
C170 C189 1.429 . S
C170 H194 0.950 . S
C171 C188 1.574 . S
C171 C190 1.368 . S
C171 H195 0.949 . S
H172 C176 0.949 . S
C173 C174 1.349 . S
C173 C175 1.327 . S
C173 H196 0.950 . S
C174 C173 1.349 . S
C174 C186 1.349 . S
C175 C173 1.327 . S
C175 C191 1.429 . S
C175 H197 0.950 . S
C176 H172 0.949 . S
C176 C184 1.574 . S
C176 C192 1.368 . S
H177 C185 0.950 . S
H178 C183 0.950 . S
H179 C184 0.949 . S
H180 C186 0.950 . S
H181 C187 0.950 . S
H182 C188 0.949 . S
C183 H178 0.950 . S
C183 C185 1.327 . S
C183 C189 1.429 . S
C184 C176 1.574 . S
C184 H179 0.949 . S
C184 C190 1.368 . S
C185 C169 1.349 . S
C185 H177 0.950 . S
C185 C183 1.327 . S
C186 C174 1.349 . S
C186 H180 0.950 . S
C186 C187 1.327 . S
C187 H181 0.950 . S
C187 C186 1.327 . S
C187 C191 1.429 . S
C188 C171 1.574 . S
C188 H182 0.949 . S
C188 C192 1.368 . S
C189 C170 1.429 . S
C189 C183 1.429 . S
C189 C190 1.523 . S
C190 C171 1.368 . S
C190 C184 1.368 . S
C190 C189 1.523 . S
C191 C175 1.429 . S
C191 C187 1.429 . S
C191 C192 1.523 . S
C192 C176 1.368 . S
C192 C188 1.368 . S
C192 C191 1.523 . S
H193 C168 0.950 . S
H194 C170 0.950 . S
H195 C171 0.949 . S
H196 C173 0.950 . S
H197 C175 0.950 . S
C198 C199 1.349 . S
C198 C200 1.327 . S
C198 H223 0.950 . S
C199 C198 1.349 . S
C199 C215 1.349 . S
C200 C198 1.327 . S
C200 C219 1.429 . S
C200 H224 0.950 . S
C201 C218 1.574 . S
C201 C220 1.368 . S
C201 H225 0.949 . S
H202 C206 0.949 . S
C203 C204 1.349 . S
C203 C205 1.327 . S
C203 H226 0.950 . S
C204 C203 1.349 . S
C204 C216 1.349 . S
C205 C203 1.327 . S
C205 C221 1.429 . S
C205 H227 0.950 . S
C206 H202 0.949 . S
C206 C214 1.574 . S
C206 C222 1.368 . S
H207 C215 0.950 . S
H208 C213 0.950 . S
H209 C214 0.949 . S
H210 C216 0.950 . S
H211 C217 0.950 . S
H212 C218 0.949 . S
C213 H208 0.950 . S
C213 C215 1.327 . S
C213 C219 1.429 . S
C214 C206 1.574 . S
C214 H209 0.949 . S
C214 C220 1.368 . S
C215 C199 1.349 . S
C215 H207 0.950 . S
C215 C213 1.327 . S
C216 C204 1.349 . S
C216 H210 0.950 . S
C216 C217 1.327 . S
C217 H211 0.950 . S
C217 C216 1.327 . S
C217 C221 1.429 . S
C218 C201 1.574 . S
C218 H212 0.949 . S
C218 C222 1.368 . S
C219 C200 1.429 . S
C219 C213 1.429 . S
C219 C220 1.523 . S
C220 C201 1.368 . S
C220 C214 1.368 . S
C220 C219 1.523 . S
C221 C205 1.429 . S
C221 C217 1.429 . S
C221 C222 1.523 . S
C222 C206 1.368 . S
C222 C218 1.368 . S
C222 C221 1.523 . S
H223 C198 0.950 . S
H224 C200 0.950 . S
H225 C201 0.949 . S
H226 C203 0.950 . S
H227 C205 0.950 . S
C228 C229 1.349 . S
C228 C230 1.327 . S
C228 H253 0.950 . S
C229 C228 1.349 . S
C229 C245 1.349 . S
C230 C228 1.327 . S
C230 C249 1.429 . S
C230 H254 0.950 . S
C231 C248 1.574 . S
C231 C250 1.368 . S
C231 H255 0.949 . S
H232 C236 0.949 . S
C233 C234 1.349 . S
C233 C235 1.327 . S
C233 H256 0.950 . S
C234 C233 1.349 . S
C234 C246 1.349 . S
C235 C233 1.327 . S
C235 C251 1.429 . S
C235 H257 0.950 . S
C236 H232 0.949 . S
C236 C244 1.574 . S
C236 C252 1.368 . S
H237 C245 0.950 . S
H238 C243 0.950 . S
H239 C244 0.949 . S
H240 C246 0.950 . S
H241 C247 0.950 . S
H242 C248 0.949 . S
C243 H238 0.950 . S
C243 C245 1.327 . S
C243 C249 1.429 . S
C244 C236 1.574 . S
C244 H239 0.949 . S
C244 C250 1.368 . S
C245 C229 1.349 . S
C245 H237 0.950 . S
C245 C243 1.327 . S
C246 C234 1.349 . S
C246 H240 0.950 . S
C246 C247 1.327 . S
C247 H241 0.950 . S
C247 C246 1.327 . S
C247 C251 1.429 . S
C248 C231 1.574 . S
C248 H242 0.949 . S
C248 C252 1.368 . S
C249 C230 1.429 . S
C249 C243 1.429 . S
C249 C250 1.523 . S
C250 C231 1.368 . S
C250 C244 1.368 . S
C250 C249 1.523 . S
C251 C235 1.429 . S
C251 C247 1.429 . S
C251 C252 1.523 . S
C252 C236 1.368 . S
C252 C248 1.368 . S
C252 C251 1.523 . S
H253 C228 0.950 . S
H254 C230 0.950 . S
H255 C231 0.949 . S
H256 C233 0.950 . S
H257 C235 0.950 . S
C258 C259 1.349 . S
C258 C260 1.327 . S
C258 H283 0.950 . S
C259 C258 1.349 . S
C259 C275 1.349 . S
C260 C258 1.327 . S
C260 C279 1.429 . S
C260 H284 0.950 . S
C261 C278 1.574 . S
C261 C280 1.368 . S
C261 H285 0.949 . S
H262 C266 0.949 . S
C263 C264 1.349 . S
C263 C265 1.327 . S
C263 H286 0.950 . S
C264 C263 1.349 . S
C264 C276 1.349 . S
C265 C263 1.327 . S
C265 C281 1.429 . S
C265 H287 0.950 . S
C266 H262 0.949 . S
C266 C274 1.574 . S
C266 C282 1.368 . S
H267 C275 0.950 . S
H268 C273 0.950 . S
H269 C274 0.949 . S
H270 C276 0.950 . S
H271 C277 0.950 . S
H272 C278 0.949 . S
C273 H268 0.950 . S
C273 C275 1.327 . S
C273 C279 1.429 . S
C274 C266 1.574 . S
C274 H269 0.949 . S
C274 C280 1.368 . S
C275 C259 1.349 . S
C275 H267 0.950 . S
C275 C273 1.327 . S
C276 C264 1.349 . S
C276 H270 0.950 . S
C276 C277 1.327 . S
C277 H271 0.950 . S
C277 C276 1.327 . S
C277 C281 1.429 . S
C278 C261 1.574 . S
C278 H272 0.949 . S
C278 C282 1.368 . S
C279 C260 1.429 . S
C279 C273 1.429 . S
C279 C280 1.523 . S
C280 C261 1.368 . S
C280 C274 1.368 . S
C280 C279 1.523 . S
C281 C265 1.429 . S
C281 C277 1.429 . S
C281 C282 1.523 . S
C282 C266 1.368 . S
C282 C278 1.368 . S
C282 C281 1.523 . S
H283 C258 0.950 . S
H284 C260 0.950 . S
H285 C261 0.949 . S
H286 C263 0.950 . S
H287 C265 0.950 . S
C288 C289 1.349 . S
C288 C290 1.327 . S
C288 H313 0.950 . S
C289 C288 1.349 . S
C289 C305 1.349 . S
C290 C288 1.327 . S
C290 C309 1.429 . S
C290 H314 0.950 . S
C291 C308 1.574 . S
C291 C310 1.368 . S
C291 H315 0.949 . S
H292 C296 0.949 . S
C293 C294 1.349 . S
C293 C295 1.327 . S
C293 H316 0.950 . S
C294 C293 1.349 . S
C294 C306 1.349 . S
C295 C293 1.327 . S
C295 C311 1.429 . S
C295 H317 0.950 . S
C296 H292 0.949 . S
C296 C304 1.574 1_554 S
C296 C312 1.368 . S
H297 C305 0.950 . S
H298 C303 0.950 . S
H299 C304 0.949 . S
H300 C306 0.950 . S
H301 C307 0.950 . S
H302 C308 0.949 . S
C303 H298 0.950 . S
C303 C305 1.327 . S
C303 C309 1.429 . S
C304 C296 1.574 1_556 S
C304 H299 0.949 . S
C304 C310 1.368 . S
C305 C289 1.349 . S
C305 H297 0.950 . S
C305 C303 1.327 . S
C306 C294 1.349 . S
C306 H300 0.950 . S
C306 C307 1.327 . S
C307 H301 0.950 . S
C307 C306 1.327 . S
C307 C311 1.429 . S
C308 C291 1.574 . S
C308 H302 0.949 . S
C308 C312 1.368 1_556 S
C309 C290 1.429 . S
C309 C303 1.429 . S
C309 C310 1.523 . S
C310 C291 1.368 . S
C310 C304 1.368 . S
C310 C309 1.523 . S
C311 C295 1.429 . S
C311 C307 1.429 . S
C311 C312 1.523 . S
C312 C296 1.368 . S
C312 C308 1.368 1_554 S
C312 C311 1.523 . S
H313 C288 0.950 . S
H314 C290 0.950 . S
H315 C291 0.949 . S
H316 C293 0.950 . S
H317 C295 0.950 . S
C318 C319 1.349 . S
C318 C320 1.327 . S
C318 H343 0.950 . S
C319 C318 1.349 . S
C319 C335 1.349 . S
C320 C318 1.327 . S
C320 C339 1.429 . S
C320 H344 0.950 . S
C321 C338 1.574 . S
C321 C340 1.368 . S
C321 H345 0.949 . S
H322 C326 0.949 . S
C323 C324 1.349 1_556 S
C323 C325 1.327 1_556 S
C323 H346 0.950 . S
C324 C323 1.349 1_554 S
C324 C336 1.349 . S
C325 C323 1.327 1_554 S
C325 C341 1.429 . S
C325 H347 0.950 . S
C326 H322 0.949 . S
C326 C334 1.574 . S
C326 C342 1.368 . S
H327 C335 0.950 . S
H328 C333 0.950 . S
H329 C334 0.949 . S
H330 C336 0.950 . S
H331 C337 0.950 . S
H332 C338 0.949 . S
C333 H328 0.950 . S
C333 C335 1.327 . S
C333 C339 1.429 . S
C334 C326 1.574 . S
C334 H329 0.949 . S
C334 C340 1.368 . S
C335 C319 1.349 . S
C335 H327 0.950 . S
C335 C333 1.327 . S
C336 C324 1.349 . S
C336 H330 0.950 . S
C336 C337 1.327 . S
C337 H331 0.950 . S
C337 C336 1.327 . S
C337 C341 1.429 . S
C338 C321 1.574 . S
C338 H332 0.949 . S
C338 C342 1.368 . S
C339 C320 1.429 . S
C339 C333 1.429 . S
C339 C340 1.523 . S
C340 C321 1.368 . S
C340 C334 1.368 . S
C340 C339 1.523 . S
C341 C325 1.429 . S
C341 C337 1.429 . S
C341 C342 1.523 . S
C342 C326 1.368 . S
C342 C338 1.368 . S
C342 C341 1.523 . S
H343 C318 0.950 . S
H344 C320 0.950 . S
H345 C321 0.949 . S
H346 C323 0.950 . S
H347 C325 0.950 . S
C348 C349 1.349 . S
C348 C350 1.327 . S
C348 H373 0.950 . S
C349 C348 1.349 . S
C349 C365 1.349 . S
C350 C348 1.327 . S
C350 C369 1.429 . S
C350 H374 0.950 . S
C351 C368 1.574 . S
C351 C370 1.368 . S
C351 H375 0.949 . S
H352 C356 0.949 . S
C353 C354 1.349 . S
C353 C355 1.327 . S
C353 H376 0.950 . S
C354 C353 1.349 . S
C354 C366 1.349 . S
C355 C353 1.327 . S
C355 C371 1.429 . S
C355 H377 0.950 . S
C356 H352 0.949 . S
C356 C364 1.574 . S
C356 C372 1.368 . S
H357 C365 0.950 . S
H358 C363 0.950 . S
H359 C364 0.949 . S
H360 C366 0.950 . S
H361 C367 0.950 . S
H362 C368 0.949 . S
C363 H358 0.950 . S
C363 C365 1.327 . S
C363 C369 1.429 . S
C364 C356 1.574 . S
C364 H359 0.949 . S
C364 C370 1.368 . S
C365 C349 1.349 . S
C365 H357 0.950 . S
C365 C363 1.327 . S
C366 C354 1.349 . S
C366 H360 0.950 . S
C366 C367 1.327 . S
C367 H361 0.950 . S
C367 C366 1.327 . S
C367 C371 1.429 . S
C368 C351 1.574 . S
C368 H362 0.949 . S
C368 C372 1.368 . S
C369 C350 1.429 . S
C369 C363 1.429 . S
C369 C370 1.523 . S
C370 C351 1.368 . S
C370 C364 1.368 . S
C370 C369 1.523 . S
C371 C355 1.429 . S
C371 C367 1.429 . S
C371 C372 1.523 . S
C372 C356 1.368 . S
C372 C368 1.368 . S
C372 C371 1.523 . S
H373 C348 0.950 . S
H374 C350 0.950 . S
H375 C351 0.949 . S
H376 C353 0.950 . S
H377 C355 0.950 . S
C378 C379 1.349 . S
C378 C380 1.327 . S
C378 H403 0.950 . S
C379 C378 1.349 . S
C379 C395 1.349 . S
C380 C378 1.327 . S
C380 C399 1.429 . S
C380 H404 0.950 . S
C381 C398 1.574 . S
C381 C400 1.368 . S
C381 H405 0.949 . S
H382 C386 0.949 . S
C383 C384 1.349 . S
C383 C385 1.327 . S
C383 H406 0.950 . S
C384 C383 1.349 . S
C384 C396 1.349 . S
C385 C383 1.327 . S
C385 C401 1.429 . S
C385 H407 0.950 . S
C386 H382 0.949 . S
C386 C394 1.574 . S
C386 C402 1.368 . S
H387 C395 0.950 . S
H388 C393 0.950 . S
H389 C394 0.949 . S
H390 C396 0.950 . S
H391 C397 0.950 . S
H392 C398 0.949 . S
C393 H388 0.950 . S
C393 C395 1.327 . S
C393 C399 1.429 . S
C394 C386 1.574 . S
C394 H389 0.949 . S
C394 C400 1.368 . S
C395 C379 1.349 . S
C395 H387 0.950 . S
C395 C393 1.327 . S
C396 C384 1.349 . S
C396 H390 0.950 . S
C396 C397 1.327 . S
C397 H391 0.950 . S
C397 C396 1.327 . S
C397 C401 1.429 . S
C398 C381 1.574 . S
C398 H392 0.949 . S
C398 C402 1.368 . S
C399 C380 1.429 . S
C399 C393 1.429 . S
C399 C400 1.523 . S
C400 C381 1.368 . S
C400 C394 1.368 . S
C400 C399 1.523 . S
C401 C385 1.429 . S
C401 C397 1.429 . S
C401 C402 1.523 . S
C402 C386 1.368 . S
C402 C398 1.368 . S
C402 C401 1.523 . S
H403 C378 0.950 . S
H404 C380 0.950 . S
H405 C381 0.949 . S
H406 C383 0.950 . S
H407 C385 0.950 . S
C408 C409 1.349 . S
C408 C410 1.327 . S
C408 H433 0.950 . S
C409 C408 1.349 . S
C409 C425 1.349 . S
C410 C408 1.327 . S
C410 C429 1.429 . S
C410 H434 0.950 . S
C411 C428 1.574 . S
C411 C430 1.368 . S
C411 H435 0.949 . S
H412 C416 0.949 . S
C413 C414 1.349 . S
C413 C415 1.327 . S
C413 H436 0.950 . S
C414 C413 1.349 . S
C414 C426 1.349 . S
C415 C413 1.327 . S
C415 C431 1.429 . S
C415 H437 0.950 . S
C416 H412 0.949 . S
C416 C424 1.574 . S
C416 C432 1.368 . S
H417 C425 0.950 . S
H418 C423 0.950 . S
H419 C424 0.949 . S
H420 C426 0.950 . S
H421 C427 0.950 . S
H422 C428 0.949 . S
C423 H418 0.950 . S
C423 C425 1.327 . S
C423 C429 1.429 . S
C424 C416 1.574 . S
C424 H419 0.949 . S
C424 C430 1.368 . S
C425 C409 1.349 . S
C425 H417 0.950 . S
C425 C423 1.327 . S
C426 C414 1.349 . S
C426 H420 0.950 . S
C426 C427 1.327 . S
C427 H421 0.950 . S
C427 C426 1.327 . S
C427 C431 1.429 . S
C428 C411 1.574 . S
C428 H422 0.949 . S
C428 C432 1.368 . S
C429 C410 1.429 . S
C429 C423 1.429 . S
C429 C430 1.523 . S
C430 C411 1.368 . S
C430 C424 1.368 . S
C430 C429 1.523 . S
C431 C415 1.429 . S
C431 C427 1.429 . S
C431 C432 1.523 . S
C432 C416 1.368 . S
C432 C428 1.368 . S
C432 C431 1.523 . S
H433 C408 0.950 . S
H434 C410 0.950 . S
H435 C411 0.949 . S
H436 C413 0.950 . S
H437 C415 0.950 . S
C438 C439 1.349 . S
C438 C440 1.327 . S
C438 H463 0.950 . S
C439 C438 1.349 . S
C439 C455 1.349 . S
C440 C438 1.327 . S
C440 C459 1.429 . S
C440 H464 0.950 . S
C441 C458 1.574 . S
C441 C460 1.368 . S
C441 H465 0.949 . S
H442 C446 0.949 . S
C443 C444 1.349 . S
C443 C445 1.327 . S
C443 H466 0.950 . S
C444 C443 1.349 . S
C444 C456 1.349 . S
C445 C443 1.327 . S
C445 C461 1.429 . S
C445 H467 0.950 . S
C446 H442 0.949 . S
C446 C454 1.574 . S
C446 C462 1.368 . S
H447 C455 0.950 . S
H448 C453 0.950 . S
H449 C454 0.949 . S
H450 C456 0.950 . S
H451 C457 0.950 . S
H452 C458 0.949 . S
C453 H448 0.950 . S
C453 C455 1.327 . S
C453 C459 1.429 . S
C454 C446 1.574 . S
C454 H449 0.949 . S
C454 C460 1.368 . S
C455 C439 1.349 . S
C455 H447 0.950 . S
C455 C453 1.327 . S
C456 C444 1.349 . S
C456 H450 0.950 . S
C456 C457 1.327 . S
C457 H451 0.950 . S
C457 C456 1.327 . S
C457 C461 1.429 . S
C458 C441 1.574 . S
C458 H452 0.949 . S
C458 C462 1.368 . S
C459 C440 1.429 . S
C459 C453 1.429 . S
C459 C460 1.523 . S
C460 C441 1.368 . S
C460 C454 1.368 . S
C460 C459 1.523 . S
C461 C445 1.429 . S
C461 C457 1.429 . S
C461 C462 1.523 . S
C462 C446 1.368 . S
C462 C458 1.368 . S
C462 C461 1.523 . S
H463 C438 0.950 . S
H464 C440 0.950 . S
H465 C441 0.949 . S
H466 C443 0.950 . S
H467 C445 0.950 . S
C468 C469 1.349 . S
C468 C470 1.327 . S
C468 H493 0.950 . S
C469 C468 1.349 . S
C469 C485 1.349 . S
C470 C468 1.327 . S
C470 C489 1.429 . S
C470 H494 0.950 . S
C471 C488 1.574 . S
C471 C490 1.368 . S
C471 H495 0.949 . S
H472 C476 0.949 . S
C473 C474 1.349 . S
C473 C475 1.327 . S
C473 H496 0.950 . S
C474 C473 1.349 . S
C474 C486 1.349 . S
C475 C473 1.327 . S
C475 C491 1.429 . S
C475 H497 0.950 . S
C476 H472 0.949 . S
C476 C484 1.574 . S
C476 C492 1.368 . S
H477 C485 0.950 . S
H478 C483 0.950 . S
H479 C484 0.949 . S
H480 C486 0.950 . S
H481 C487 0.950 . S
H482 C488 0.949 . S
C483 H478 0.950 . S
C483 C485 1.327 . S
C483 C489 1.429 . S
C484 C476 1.574 . S
C484 H479 0.949 . S
C484 C490 1.368 . S
C485 C469 1.349 . S
C485 H477 0.950 . S
C485 C483 1.327 . S
C486 C474 1.349 . S
C486 H480 0.950 . S
C486 C487 1.327 . S
C487 H481 0.950 . S
C487 C486 1.327 . S
C487 C491 1.429 . S
C488 C471 1.574 . S
C488 H482 0.949 . S
C488 C492 1.368 . S
C489 C470 1.429 . S
C489 C483 1.429 . S
C489 C490 1.523 . S
C490 C471 1.368 . S
C490 C484 1.368 . S
C490 C489 1.523 . S
C491 C475 1.429 . S
C491 C487 1.429 . S
C491 C492 1.523 . S
C492 C476 1.368 . S
C492 C488 1.368 . S
C492 C491 1.523 . S
H493 C468 0.950 . S
H494 C470 0.950 . S
H495 C471 0.949 . S
H496 C473 0.950 . S
H497 C475 0.950 . S
C498 C499 1.349 . S
C498 C500 1.327 . S
C498 H523 0.950 . S
C499 C498 1.349 . S
C499 C515 1.349 . S
C500 C498 1.327 . S
C500 C519 1.429 . S
C500 H524 0.950 . S
C501 C518 1.574 . S
C501 C520 1.368 1_554 S
C501 H525 0.949 . S
H502 C506 0.949 . S
C503 C504 1.349 . S
C503 C505 1.327 . S
C503 H526 0.950 . S
C504 C503 1.349 . S
C504 C516 1.349 1_554 S
C505 C503 1.327 . S
C505 C521 1.429 1_554 S
C505 H527 0.950 . S
C506 H502 0.949 . S
C506 C514 1.574 . S
C506 C522 1.368 . S
H507 C515 0.950 . S
H508 C513 0.950 1_554 S
H509 C514 0.949 . S
H510 C516 0.950 . S
H511 C517 0.950 . S
H512 C518 0.949 . S
C513 H508 0.950 1_556 S
C513 C515 1.327 . S
C513 C519 1.429 . S
C514 C506 1.574 . S
C514 H509 0.949 . S
C514 C520 1.368 . S
C515 C499 1.349 . S
C515 H507 0.950 . S
C515 C513 1.327 . S
C516 C504 1.349 1_556 S
C516 H510 0.950 . S
C516 C517 1.327 . S
C517 H511 0.950 . S
C517 C516 1.327 . S
C517 C521 1.429 . S
C518 C501 1.574 . S
C518 H512 0.949 . S
C518 C522 1.368 1_554 S
C519 C500 1.429 . S
C519 C513 1.429 . S
C519 C520 1.523 . S
C520 C501 1.368 1_556 S
C520 C514 1.368 . S
C520 C519 1.523 . S
C521 C505 1.429 1_556 S
C521 C517 1.429 . S
C521 C522 1.523 . S
C522 C506 1.368 . S
C522 C518 1.368 1_556 S
C522 C521 1.523 . S
H523 C498 0.950 . S
H524 C500 0.950 . S
H525 C501 0.949 . S
H526 C503 0.950 . S
H527 C505 0.950 . S
C528 C529 1.349 . S
C528 C530 1.327 . S
C528 H553 0.950 . S
C529 C528 1.349 . S
C529 C545 1.349 . S
C530 C528 1.327 . S
C530 C549 1.429 . S
C530 H554 0.950 . S
C531 C548 1.574 . S
C531 C550 1.368 . S
C531 H555 0.949 . S
H532 C536 0.949 . S
C533 C534 1.349 . S
C533 C535 1.327 . S
C533 H556 0.950 . S
C534 C533 1.349 . S
C534 C546 1.349 . S
C535 C533 1.327 . S
C535 C551 1.429 . S
C535 H557 0.950 . S
C536 H532 0.949 . S
C536 C544 1.574 . S
C536 C552 1.368 . S
H537 C545 0.950 . S
H538 C543 0.950 . S
H539 C544 0.949 . S
H540 C546 0.950 . S
H541 C547 0.950 . S
H542 C548 0.949 . S
C543 H538 0.950 . S
C543 C545 1.327 . S
C543 C549 1.429 . S
C544 C536 1.574 . S
C544 H539 0.949 . S
C544 C550 1.368 . S
C545 C529 1.349 . S
C545 H537 0.950 . S
C545 C543 1.327 . S
C546 C534 1.349 . S
C546 H540 0.950 . S
C546 C547 1.327 . S
C547 H541 0.950 . S
C547 C546 1.327 . S
C547 C551 1.429 . S
C548 C531 1.574 . S
C548 H542 0.949 . S
C548 C552 1.368 . S
C549 C530 1.429 . S
C549 C543 1.429 . S
C549 C550 1.523 . S
C550 C531 1.368 . S
C550 C544 1.368 . S
C550 C549 1.523 . S
C551 C535 1.429 . S
C551 C547 1.429 . S
C551 C552 1.523 . S
C552 C536 1.368 . S
C552 C548 1.368 . S
C552 C551 1.523 . S
H553 C528 0.950 . S
H554 C530 0.950 . S
H555 C531 0.949 . S
H556 C533 0.950 . S
H557 C535 0.950 . S
C558 C559 1.349 . S
C558 C560 1.327 . S
C558 H583 0.950 . S
C559 C558 1.349 . S
C559 C575 1.349 . S
C560 C558 1.327 . S
C560 C579 1.429 . S
C560 H584 0.950 . S
C561 C578 1.574 1_554 S
C561 C580 1.368 . S
C561 H585 0.949 . S
H562 C566 0.949 . S
C563 C564 1.349 . S
C563 C565 1.327 . S
C563 H586 0.950 . S
C564 C563 1.349 . S
C564 C576 1.349 . S
C565 C563 1.327 . S
C565 C581 1.429 . S
C565 H587 0.950 . S
C566 H562 0.949 . S
C566 C574 1.574 . S
C566 C582 1.368 . S
H567 C575 0.950 . S
H568 C573 0.950 . S
H569 C574 0.949 . S
H570 C576 0.950 . S
H571 C577 0.950 . S
H572 C578 0.949 . S
C573 H568 0.950 . S
C573 C575 1.327 . S
C573 C579 1.429 . S
C574 C566 1.574 . S
C574 H569 0.949 . S
C574 C580 1.368 1_556 S
C575 C559 1.349 . S
C575 H567 0.950 . S
C575 C573 1.327 . S
C576 C564 1.349 . S
C576 H570 0.950 . S
C576 C577 1.327 . S
C577 H571 0.950 . S
C577 C576 1.327 . S
C577 C581 1.429 . S
C578 C561 1.574 1_556 S
C578 H572 0.949 . S
C578 C582 1.368 . S
C579 C560 1.429 . S
C579 C573 1.429 . S
C579 C580 1.523 . S
C580 C561 1.368 . S
C580 C574 1.368 1_554 S
C580 C579 1.523 . S
C581 C565 1.429 . S
C581 C577 1.429 . S
C581 C582 1.523 . S
C582 C566 1.368 . S
C582 C578 1.368 . S
C582 C581 1.523 . S
H583 C558 0.950 . S
H584 C560 0.950 . S
H585 C561 0.949 . S
H586 C563 0.950 . S
H587 C565 0.950 . S
C588 C589 1.349 . S
C588 C590 1.327 . S
C588 H613 0.950 . S
C589 C588 1.349 . S
C589 C605 1.349 . S
C590 C588 1.327 . S
C590 C609 1.429 . S
C590 H614 0.950 . S
C591 C608 1.574 . S
C591 C610 1.368 . S
C591 H615 0.949 . S
H592 C596 0.949 . S
C593 C594 1.349 . S
C593 C595 1.327 1_556 S
C593 H616 0.950 . S
C594 C593 1.349 . S
C594 C606 1.349 1_556 S
C595 C593 1.327 1_554 S
C595 C611 1.429 . S
C595 H617 0.950 . S
C596 H592 0.949 . S
C596 C604 1.574 . S
C596 C612 1.368 . S
H597 C605 0.950 . S
H598 C603 0.950 . S
H599 C604 0.949 . S
H600 C606 0.950 . S
H601 C607 0.950 . S
H602 C608 0.949 . S
C603 H598 0.950 . S
C603 C605 1.327 . S
C603 C609 1.429 . S
C604 C596 1.574 . S
C604 H599 0.949 . S
C604 C610 1.368 . S
C605 C589 1.349 . S
C605 H597 0.950 . S
C605 C603 1.327 . S
C606 C594 1.349 1_554 S
C606 H600 0.950 . S
C606 C607 1.327 . S
C607 H601 0.950 . S
C607 C606 1.327 . S
C607 C611 1.429 . S
C608 C591 1.574 . S
C608 H602 0.949 . S
C608 C612 1.368 . S
C609 C590 1.429 . S
C609 C603 1.429 . S
C609 C610 1.523 . S
C610 C591 1.368 . S
C610 C604 1.368 . S
C610 C609 1.523 . S
C611 C595 1.429 . S
C611 C607 1.429 . S
C611 C612 1.523 . S
C612 C596 1.368 . S
C612 C608 1.368 . S
C612 C611 1.523 . S
H613 C588 0.950 . S
H614 C590 0.950 . S
H615 C591 0.949 . S
H616 C593 0.950 . S
H617 C595 0.950 . S
C618 C619 1.349 . S
C618 C620 1.327 . S
C618 H643 0.950 . S
C619 C618 1.349 . S
C619 C635 1.349 . S
C620 C618 1.327 . S
C620 C639 1.429 . S
C620 H644 0.950 . S
C621 C638 1.574 . S
C621 C640 1.368 . S
C621 H645 0.949 . S
H622 C626 0.949 . S
C623 C624 1.349 . S
C623 C625 1.327 . S
C623 H646 0.950 . S
C624 C623 1.349 . S
C624 C636 1.349 . S
C625 C623 1.327 . S
C625 C641 1.429 . S
C625 H647 0.950 . S
C626 H622 0.949 . S
C626 C634 1.574 . S
C626 C642 1.368 . S
H627 C635 0.950 . S
H628 C633 0.950 . S
H629 C634 0.949 . S
H630 C636 0.950 . S
H631 C637 0.950 . S
H632 C638 0.949 . S
C633 H628 0.950 . S
C633 C635 1.327 . S
C633 C639 1.429 . S
C634 C626 1.574 . S
C634 H629 0.949 . S
C634 C640 1.368 . S
C635 C619 1.349 . S
C635 H627 0.950 . S
C635 C633 1.327 . S
C636 C624 1.349 . S
C636 H630 0.950 . S
C636 C637 1.327 . S
C637 H631 0.950 . S
C637 C636 1.327 . S
C637 C641 1.429 . S
C638 C621 1.574 . S
C638 H632 0.949 . S
C638 C642 1.368 . S
C639 C620 1.429 . S
C639 C633 1.429 . S
C639 C640 1.523 . S
C640 C621 1.368 . S
C640 C634 1.368 . S
C640 C639 1.523 . S
C641 C625 1.429 . S
C641 C637 1.429 . S
C641 C642 1.523 . S
C642 C626 1.368 . S
C642 C638 1.368 . S
C642 C641 1.523 . S
H643 C618 0.950 . S
H644 C620 0.950 . S
H645 C621 0.949 . S
H646 C623 0.950 . S
H647 C625 0.950 . S
C648 C649 1.349 . S
C648 C650 1.327 . S
C648 H673 0.950 . S
C649 C648 1.349 . S
C649 C665 1.349 . S
C650 C648 1.327 . S
C650 C669 1.429 . S
C650 H674 0.950 . S
C651 C668 1.574 . S
C651 C670 1.368 . S
C651 H675 0.949 . S
H652 C656 0.949 . S
C653 C654 1.349 . S
C653 C655 1.327 . S
C653 H676 0.950 . S
C654 C653 1.349 . S
C654 C666 1.349 . S
C655 C653 1.327 . S
C655 C671 1.429 . S
C655 H677 0.950 . S
C656 H652 0.949 . S
C656 C664 1.574 . S
C656 C672 1.368 . S
H657 C665 0.950 . S
H658 C663 0.950 . S
H659 C664 0.949 . S
H660 C666 0.950 . S
H661 C667 0.950 . S
H662 C668 0.949 . S
C663 H658 0.950 . S
C663 C665 1.327 . S
C663 C669 1.429 . S
C664 C656 1.574 . S
C664 H659 0.949 . S
C664 C670 1.368 . S
C665 C649 1.349 . S
C665 H657 0.950 . S
C665 C663 1.327 . S
C666 C654 1.349 . S
C666 H660 0.950 . S
C666 C667 1.327 . S
C667 H661 0.950 . S
C667 C666 1.327 . S
C667 C671 1.429 . S
C668 C651 1.574 . S
C668 H662 0.949 . S
C668 C672 1.368 . S
C669 C650 1.429 . S
C669 C663 1.429 . S
C669 C670 1.523 . S
C670 C651 1.368 . S
C670 C664 1.368 . S
C670 C669 1.523 . S
C671 C655 1.429 . S
C671 C667 1.429 . S
C671 C672 1.523 . S
C672 C656 1.368 . S
C672 C668 1.368 . S
C672 C671 1.523 . S
H673 C648 0.950 . S
H674 C650 0.950 . S
H675 C651 0.949 . S
H676 C653 0.950 . S
H677 C655 0.950 . S
C678 C679 1.349 . S
C678 C680 1.327 . S
C678 H703 0.950 . S
C679 C678 1.349 . S
C679 C695 1.349 . S
C680 C678 1.327 . S
C680 C699 1.429 . S
C680 H704 0.950 . S
C681 C698 1.574 . S
C681 C700 1.368 . S
C681 H705 0.949 . S
H682 C686 0.949 . S
C683 C684 1.349 . S
C683 C685 1.327 . S
C683 H706 0.950 . S
C684 C683 1.349 . S
C684 C696 1.349 . S
C685 C683 1.327 . S
C685 C701 1.429 . S
C685 H707 0.950 . S
C686 H682 0.949 . S
C686 C694 1.574 . S
C686 C702 1.368 . S
H687 C695 0.950 . S
H688 C693 0.950 . S
H689 C694 0.949 . S
H690 C696 0.950 . S
H691 C697 0.950 . S
H692 C698 0.949 . S
C693 H688 0.950 . S
C693 C695 1.327 . S
C693 C699 1.429 . S
C694 C686 1.574 . S
C694 H689 0.949 . S
C694 C700 1.368 . S
C695 C679 1.349 . S
C695 H687 0.950 . S
C695 C693 1.327 . S
C696 C684 1.349 . S
C696 H690 0.950 . S
C696 C697 1.327 . S
C697 H691 0.950 . S
C697 C696 1.327 . S
C697 C701 1.429 . S
C698 C681 1.574 . S
C698 H692 0.949 . S
C698 C702 1.368 . S
C699 C680 1.429 . S
C699 C693 1.429 . S
C699 C700 1.523 . S
C700 C681 1.368 . S
C700 C694 1.368 . S
C700 C699 1.523 . S
C701 C685 1.429 . S
C701 C697 1.429 . S
C701 C702 1.523 . S
C702 C686 1.368 . S
C702 C698 1.368 . S
C702 C701 1.523 . S
H703 C678 0.950 . S
H704 C680 0.950 . S
H705 C681 0.949 . S
H706 C683 0.950 . S
H707 C685 0.950 . S
C708 C709 1.349 1_554 S
C708 C710 1.327 1_554 S
C708 H733 0.950 . S
C709 C708 1.349 1_556 S
C709 C725 1.349 . S
C710 C708 1.327 1_556 S
C710 C729 1.429 . S
C710 H734 0.950 1_556 S
C711 C728 1.574 1_455 S
C711 C730 1.368 . S
C711 H735 0.949 . S
H712 C716 0.949 . S
C713 C714 1.349 . S
C713 C715 1.327 . S
C713 H736 0.950 . S
C714 C713 1.349 . S
C714 C726 1.349 . S
C715 C713 1.327 . S
C715 C731 1.429 . S
C715 H737 0.950 . S
C716 H712 0.949 . S
C716 C724 1.574 1_655 S
C716 C732 1.368 . S
H717 C725 0.950 . S
H718 C723 0.950 . S
H719 C724 0.949 . S
H720 C726 0.950 . S
H721 C727 0.950 . S
H722 C728 0.949 . S
C723 H718 0.950 . S
C723 C725 1.327 . S
C723 C729 1.429 . S
C724 C716 1.574 1_455 S
C724 H719 0.949 . S
C724 C730 1.368 . S
C725 C709 1.349 . S
C725 H717 0.950 . S
C725 C723 1.327 . S
C726 C714 1.349 . S
C726 H720 0.950 . S
C726 C727 1.327 . S
C727 H721 0.950 . S
C727 C726 1.327 . S
C727 C731 1.429 . S
C728 C711 1.574 1_655 S
C728 H722 0.949 . S
C728 C732 1.368 . S
C729 C710 1.429 . S
C729 C723 1.429 . S
C729 C730 1.523 . S
C730 C711 1.368 . S
C730 C724 1.368 . S
C730 C729 1.523 . S
C731 C715 1.429 . S
C731 C727 1.429 . S
C731 C732 1.523 . S
C732 C716 1.368 . S
C732 C728 1.368 . S
C732 C731 1.523 . S
H733 C708 0.950 . S
H734 C710 0.950 1_554 S
H735 C711 0.949 . S
H736 C713 0.950 . S
H737 C715 0.950 . S
C738 C739 1.349 1_554 S
C738 C740 1.327 . S
C738 H763 0.950 . S
C739 C738 1.349 1_556 S
C739 C755 1.349 . S
C740 C738 1.327 . S
C740 C759 1.429 . S
C740 H764 0.950 . S
C741 C758 1.574 1_565 S
C741 C760 1.368 . S
C741 H765 0.949 1_554 S
H742 C746 0.949 . S
C743 C744 1.349 . S
C743 C745 1.327 . S
C743 H766 0.950 . S
C744 C743 1.349 . S
C744 C756 1.349 . S
C745 C743 1.327 . S
C745 C761 1.429 . S
C745 H767 0.950 . S
C746 H742 0.949 . S
C746 C754 1.574 1_545 S
C746 C762 1.368 . S
H747 C755 0.950 . S
H748 C753 0.950 . S
H749 C754 0.949 . S
H750 C756 0.950 . S
H751 C757 0.950 . S
H752 C758 0.949 . S
C753 H748 0.950 . S
C753 C755 1.327 . S
C753 C759 1.429 1_556 S
C754 C746 1.574 1_565 S
C754 H749 0.949 . S
C754 C760 1.368 . S
C755 C739 1.349 . S
C755 H747 0.950 . S
C755 C753 1.327 . S
C756 C744 1.349 . S
C756 H750 0.950 . S
C756 C757 1.327 . S
C757 H751 0.950 . S
C757 C756 1.327 . S
C757 C761 1.429 . S
C758 C741 1.574 1_545 S
C758 H752 0.949 . S
C758 C762 1.368 . S
C759 C740 1.429 . S
C759 C753 1.429 1_554 S
C759 C760 1.523 . S
C760 C741 1.368 . S
C760 C754 1.368 . S
C760 C759 1.523 . S
C761 C745 1.429 . S
C761 C757 1.429 . S
C761 C762 1.523 . S
C762 C746 1.368 . S
C762 C758 1.368 . S
C762 C761 1.523 . S
H763 C738 0.950 . S
H764 C740 0.950 . S
H765 C741 0.949 1_556 S
H766 C743 0.950 . S
H767 C745 0.950 . S
C768 C769 1.349 . S
C768 C770 1.327 . S
C768 H793 0.950 . S
C769 C768 1.349 . S
C769 C785 1.349 . S
C770 C768 1.327 . S
C770 C789 1.429 . S
C770 H794 0.950 . S
C771 C788 1.574 . S
C771 C790 1.368 . S
C771 H795 0.949 . S
H772 C776 0.949 . S
C773 C774 1.349 . S
C773 C775 1.327 . S
C773 H796 0.950 . S
C774 C773 1.349 . S
C774 C786 1.349 . S
C775 C773 1.327 . S
C775 C791 1.429 . S
C775 H797 0.950 . S
C776 H772 0.949 . S
C776 C784 1.574 . S
C776 C792 1.368 . S
H777 C785 0.950 . S
H778 C783 0.950 . S
H779 C784 0.949 . S
H780 C786 0.950 . S
H781 C787 0.950 . S
H782 C788 0.949 . S
C783 H778 0.950 . S
C783 C785 1.327 . S
C783 C789 1.429 . S
C784 C776 1.574 . S
C784 H779 0.949 . S
C784 C790 1.368 . S
C785 C769 1.349 . S
C785 H777 0.950 . S
C785 C783 1.327 . S
C786 C774 1.349 . S
C786 H780 0.950 . S
C786 C787 1.327 . S
C787 H781 0.950 . S
C787 C786 1.327 . S
C787 C791 1.429 . S
C788 C771 1.574 . S
C788 H782 0.949 . S
C788 C792 1.368 . S
C789 C770 1.429 . S
C789 C783 1.429 . S
C789 C790 1.523 . S
C790 C771 1.368 . S
C790 C784 1.368 . S
C790 C789 1.523 . S
C791 C775 1.429 . S
C791 C787 1.429 . S
C791 C792 1.523 . S
C792 C776 1.368 . S
C792 C788 1.368 . S
C792 C791 1.523 . S
H793 C768 0.950 . S
H794 C770 0.950 . S
H795 C771 0.949 . S
H796 C773 0.950 . S
H797 C775 0.950 . S
C798 C799 1.349 . S
C798 C800 1.327 . S
C798 H823 0.950 . S
C799 C798 1.349 . S
C799 C815 1.349 . S
C800 C798 1.327 . S
C800 C819 1.429 . S
C800 H824 0.950 . S
C801 C818 1.574 1_455 S
C801 C820 1.368 . S
C801 H825 0.949 . S
H802 C806 0.949 . S
C803 C804 1.349 . S
C803 C805 1.327 . S
C803 H826 0.950 . S
C804 C803 1.349 . S
C804 C816 1.349 . S
C805 C803 1.327 . S
C805 C821 1.429 . S
C805 H827 0.950 . S
C806 H802 0.949 . S
C806 C814 1.574 1_655 S
C806 C822 1.368 . S
H807 C815 0.950 . S
H808 C813 0.950 . S
H809 C814 0.949 . S
H810 C816 0.950 . S
H811 C817 0.950 . S
H812 C818 0.949 . S
C813 H808 0.950 . S
C813 C815 1.327 . S
C813 C819 1.429 . S
C814 C806 1.574 1_455 S
C814 H809 0.949 . S
C814 C820 1.368 . S
C815 C799 1.349 . S
C815 H807 0.950 . S
C815 C813 1.327 . S
C816 C804 1.349 . S
C816 H810 0.950 . S
C816 C817 1.327 . S
C817 H811 0.950 . S
C817 C816 1.327 . S
C817 C821 1.429 . S
C818 C801 1.574 1_655 S
C818 H812 0.949 . S
C818 C822 1.368 . S
C819 C800 1.429 . S
C819 C813 1.429 . S
C819 C820 1.523 . S
C820 C801 1.368 . S
C820 C814 1.368 . S
C820 C819 1.523 . S
C821 C805 1.429 . S
C821 C817 1.429 . S
C821 C822 1.523 . S
C822 C806 1.368 . S
C822 C818 1.368 . S
C822 C821 1.523 . S
H823 C798 0.950 . S
H824 C800 0.950 . S
H825 C801 0.949 . S
H826 C803 0.950 . S
H827 C805 0.950 . S
C828 C829 1.349 . S
C828 C830 1.327 . S
C828 H853 0.950 . S
C829 C828 1.349 . S
C829 C845 1.349 . S
C830 C828 1.327 . S
C830 C849 1.429 . S
C830 H854 0.950 . S
C831 C848 1.574 1_545 S
C831 C850 1.368 . S
C831 H855 0.949 . S
H832 C836 0.949 . S
C833 C834 1.349 . S
C833 C835 1.327 . S
C833 H856 0.950 . S
C834 C833 1.349 . S
C834 C846 1.349 . S
C835 C833 1.327 . S
C835 C851 1.429 . S
C835 H857 0.950 . S
C836 H832 0.949 . S
C836 C844 1.574 1_565 S
C836 C852 1.368 . S
H837 C845 0.950 . S
H838 C843 0.950 . S
H839 C844 0.949 . S
H840 C846 0.950 . S
H841 C847 0.950 . S
H842 C848 0.949 . S
C843 H838 0.950 . S
C843 C845 1.327 . S
C843 C849 1.429 . S
C844 C836 1.574 1_545 S
C844 H839 0.949 . S
C844 C850 1.368 . S
C845 C829 1.349 . S
C845 H837 0.950 . S
C845 C843 1.327 . S
C846 C834 1.349 . S
C846 H840 0.950 . S
C846 C847 1.327 . S
C847 H841 0.950 . S
C847 C846 1.327 . S
C847 C851 1.429 . S
C848 C831 1.574 1_565 S
C848 H842 0.949 . S
C848 C852 1.368 . S
C849 C830 1.429 . S
C849 C843 1.429 . S
C849 C850 1.523 . S
C850 C831 1.368 . S
C850 C844 1.368 . S
C850 C849 1.523 . S
C851 C835 1.429 . S
C851 C847 1.429 . S
C851 C852 1.523 . S
C852 C836 1.368 . S
C852 C848 1.368 . S
C852 C851 1.523 . S
H853 C828 0.950 . S
H854 C830 0.950 . S
H855 C831 0.949 . S
H856 C833 0.950 . S
H857 C835 0.950 . S
C858 C859 1.349 . S
C858 C860 1.327 . S
C858 H883 0.950 . S
C859 C858 1.349 . S
C859 C875 1.349 . S
C860 C858 1.327 . S
C860 C879 1.429 . S
C860 H884 0.950 . S
C861 C878 1.574 . S
C861 C880 1.368 . S
C861 H885 0.949 . S
H862 C866 0.949 . S
C863 C864 1.349 . S
C863 C865 1.327 . S
C863 H886 0.950 . S
C864 C863 1.349 . S
C864 C876 1.349 . S
C865 C863 1.327 . S
C865 C881 1.429 . S
C865 H887 0.950 . S
C866 H862 0.949 . S
C866 C874 1.574 . S
C866 C882 1.368 . S
H867 C875 0.950 . S
H868 C873 0.950 . S
H869 C874 0.949 . S
H870 C876 0.950 . S
H871 C877 0.950 . S
H872 C878 0.949 . S
C873 H868 0.950 . S
C873 C875 1.327 . S
C873 C879 1.429 . S
C874 C866 1.574 . S
C874 H869 0.949 . S
C874 C880 1.368 . S
C875 C859 1.349 . S
C875 H867 0.950 . S
C875 C873 1.327 . S
C876 C864 1.349 . S
C876 H870 0.950 . S
C876 C877 1.327 . S
C877 H871 0.950 . S
C877 C876 1.327 . S
C877 C881 1.429 . S
C878 C861 1.574 . S
C878 H872 0.949 . S
C878 C882 1.368 . S
C879 C860 1.429 . S
C879 C873 1.429 . S
C879 C880 1.523 . S
C880 C861 1.368 . S
C880 C874 1.368 . S
C880 C879 1.523 . S
C881 C865 1.429 . S
C881 C877 1.429 . S
C881 C882 1.523 . S
C882 C866 1.368 . S
C882 C878 1.368 . S
C882 C881 1.523 . S
H883 C858 0.950 . S
H884 C860 0.950 . S
H885 C861 0.949 . S
H886 C863 0.950 . S
H887 C865 0.950 . S
C169 C9 2.171 . S
C174 C149 2.171 . S
C199 C163 2.170 . S
C204 C23 2.170 . S
C229 C37 2.170 . S
C234 C93 2.170 . S
C259 C51 2.170 . S
C264 C107 2.170 1_556 S
C289 C65 2.170 . S
C294 C121 2.170 . S
C319 C135 2.170 . S
C324 C79 2.170 1_554 S
C349 C8 1.618 . S
C354 C120 1.618 . S
C379 C22 1.619 . S
C384 C134 1.619 . S
C409 C148 1.618 . S
C414 C36 1.618 . S
C439 C50 1.618 . S
C444 C162 1.618 . S
C469 C64 1.618 . S
C474 C92 1.618 . S
C499 C78 1.619 . S
C504 C106 1.619 . S
C529 C147 0.664 . S
C534 C7 0.664 . S
C559 C21 0.664 . S
C564 C161 0.664 . S
C589 C35 0.664 . S
C594 C91 0.664 . S
C619 C49 0.664 . S
C624 C105 0.664 . S
C649 C119 0.664 . S
C654 C63 0.664 . S
C679 C77 0.664 . S
C684 C133 0.664 . S
C709 C6 1.511 1_556 S
C714 C160 1.511 . S
C739 C90 1.511 . S
C744 C20 1.511 . S
C769 C104 1.511 . S
C774 C34 1.511 . S
C799 C118 1.511 . S
C804 C48 1.511 . S
C829 C132 1.511 . S
C834 C62 1.511 . S
C859 C146 1.511 . S
C864 C76 1.511 . S
