# Generated by pormake.
# Topology kfi, (4)-cn, num edge types: 1
# Building blocks:
#     Node 0, Type 0, BuildingBlock: QUQFOY_clean_sbu_3, # of connection points: 4
#     Node 1, Type 0, BuildingBlock: QUQFOY_clean_sbu_3, # of connection points: 4
#     Node 2, Type 0, BuildingBlock: QUQFOY_clean_sbu_3, # of connection points: 4
#     Node 3, Type 0, BuildingBlock: QUQFOY_clean_sbu_3, # of connection points: 4
#     Node 4, Type 0, BuildingBlock: QUQFOY_clean_sbu_3, # of connection points: 4
#     Node 5, Type 0, BuildingBlock: QUQFOY_clean_sbu_3, # of connection points: 4
#     Node 6, Type 0, BuildingBlock: QUQFOY_clean_sbu_3, # of connection points: 4
#     Node 7, Type 0, BuildingBlock: QUQFOY_clean_sbu_3, # of connection points: 4
#     Node 8, Type 0, BuildingBlock: QUQFOY_clean_sbu_3, # of connection points: 4
#     Node 9, Type 0, BuildingBlock: QUQFOY_clean_sbu_3, # of connection points: 4
#     Node 10, Type 0, BuildingBlock: QUQFOY_clean_sbu_3, # of connection points: 4
#     Node 11, Type 0, BuildingBlock: QUQFOY_clean_sbu_3, # of connection points: 4
#     Node 12, Type 0, BuildingBlock: QUQFOY_clean_sbu_3, # of connection points: 4
#     Node 13, Type 0, BuildingBlock: QUQFOY_clean_sbu_3, # of connection points: 4
#     Node 14, Type 0, BuildingBlock: QUQFOY_clean_sbu_3, # of connection points: 4
#     Node 15, Type 0, BuildingBlock: QUQFOY_clean_sbu_3, # of connection points: 4
#     Node 16, Type 0, BuildingBlock: QUQFOY_clean_sbu_3, # of connection points: 4
#     Node 17, Type 0, BuildingBlock: QUQFOY_clean_sbu_3, # of connection points: 4
#     Node 18, Type 0, BuildingBlock: QUQFOY_clean_sbu_3, # of connection points: 4
#     Node 19, Type 0, BuildingBlock: QUQFOY_clean_sbu_3, # of connection points: 4
#     Node 20, Type 0, BuildingBlock: QUQFOY_clean_sbu_3, # of connection points: 4
#     Node 21, Type 0, BuildingBlock: QUQFOY_clean_sbu_3, # of connection points: 4
#     Node 22, Type 0, BuildingBlock: QUQFOY_clean_sbu_3, # of connection points: 4
#     Node 23, Type 0, BuildingBlock: QUQFOY_clean_sbu_3, # of connection points: 4
#     Node 24, Type 0, BuildingBlock: QUQFOY_clean_sbu_3, # of connection points: 4
#     Node 25, Type 0, BuildingBlock: QUQFOY_clean_sbu_3, # of connection points: 4
#     Node 26, Type 0, BuildingBlock: QUQFOY_clean_sbu_3, # of connection points: 4
#     Node 27, Type 0, BuildingBlock: QUQFOY_clean_sbu_3, # of connection points: 4
#     Node 28, Type 0, BuildingBlock: QUQFOY_clean_sbu_3, # of connection points: 4
#     Node 29, Type 0, BuildingBlock: QUQFOY_clean_sbu_3, # of connection points: 4
#     Node 30, Type 0, BuildingBlock: QUQFOY_clean_sbu_3, # of connection points: 4
#     Node 31, Type 0, BuildingBlock: QUQFOY_clean_sbu_3, # of connection points: 4
#     Node 32, Type 0, BuildingBlock: QUQFOY_clean_sbu_3, # of connection points: 4
#     Node 33, Type 0, BuildingBlock: QUQFOY_clean_sbu_3, # of connection points: 4
#     Node 34, Type 0, BuildingBlock: QUQFOY_clean_sbu_3, # of connection points: 4
#     Node 35, Type 0, BuildingBlock: QUQFOY_clean_sbu_3, # of connection points: 4
#     Node 36, Type 0, BuildingBlock: QUQFOY_clean_sbu_3, # of connection points: 4
#     Node 37, Type 0, BuildingBlock: QUQFOY_clean_sbu_3, # of connection points: 4
#     Node 38, Type 0, BuildingBlock: QUQFOY_clean_sbu_3, # of connection points: 4
#     Node 39, Type 0, BuildingBlock: QUQFOY_clean_sbu_3, # of connection points: 4
#     Node 40, Type 0, BuildingBlock: QUQFOY_clean_sbu_3, # of connection points: 4
#     Node 41, Type 0, BuildingBlock: QUQFOY_clean_sbu_3, # of connection points: 4
#     Node 42, Type 0, BuildingBlock: QUQFOY_clean_sbu_3, # of connection points: 4
#     Node 43, Type 0, BuildingBlock: QUQFOY_clean_sbu_3, # of connection points: 4
#     Node 44, Type 0, BuildingBlock: QUQFOY_clean_sbu_3, # of connection points: 4
#     Node 45, Type 0, BuildingBlock: QUQFOY_clean_sbu_3, # of connection points: 4
#     Node 46, Type 0, BuildingBlock: QUQFOY_clean_sbu_3, # of connection points: 4
#     Node 47, Type 0, BuildingBlock: QUQFOY_clean_sbu_3, # of connection points: 4
#     Node 48, Type 0, BuildingBlock: QUQFOY_clean_sbu_3, # of connection points: 4
#     Node 49, Type 0, BuildingBlock: QUQFOY_clean_sbu_3, # of connection points: 4
#     Node 50, Type 0, BuildingBlock: QUQFOY_clean_sbu_3, # of connection points: 4
#     Node 51, Type 0, BuildingBlock: QUQFOY_clean_sbu_3, # of connection points: 4
#     Node 52, Type 0, BuildingBlock: QUQFOY_clean_sbu_3, # of connection points: 4
#     Node 53, Type 0, BuildingBlock: QUQFOY_clean_sbu_3, # of connection points: 4
#     Node 54, Type 0, BuildingBlock: QUQFOY_clean_sbu_3, # of connection points: 4
#     Node 55, Type 0, BuildingBlock: QUQFOY_clean_sbu_3, # of connection points: 4
#     Node 56, Type 0, BuildingBlock: QUQFOY_clean_sbu_3, # of connection points: 4
#     Node 57, Type 0, BuildingBlock: QUQFOY_clean_sbu_3, # of connection points: 4
#     Node 58, Type 0, BuildingBlock: QUQFOY_clean_sbu_3, # of connection points: 4
#     Node 59, Type 0, BuildingBlock: QUQFOY_clean_sbu_3, # of connection points: 4
#     Node 60, Type 0, BuildingBlock: QUQFOY_clean_sbu_3, # of connection points: 4
#     Node 61, Type 0, BuildingBlock: QUQFOY_clean_sbu_3, # of connection points: 4
#     Node 62, Type 0, BuildingBlock: QUQFOY_clean_sbu_3, # of connection points: 4
#     Node 63, Type 0, BuildingBlock: QUQFOY_clean_sbu_3, # of connection points: 4
#     Node 64, Type 0, BuildingBlock: QUQFOY_clean_sbu_3, # of connection points: 4
#     Node 65, Type 0, BuildingBlock: QUQFOY_clean_sbu_3, # of connection points: 4
#     Node 66, Type 0, BuildingBlock: QUQFOY_clean_sbu_3, # of connection points: 4
#     Node 67, Type 0, BuildingBlock: QUQFOY_clean_sbu_3, # of connection points: 4
#     Node 68, Type 0, BuildingBlock: QUQFOY_clean_sbu_3, # of connection points: 4
#     Node 69, Type 0, BuildingBlock: QUQFOY_clean_sbu_3, # of connection points: 4
#     Node 70, Type 0, BuildingBlock: QUQFOY_clean_sbu_3, # of connection points: 4
#     Node 71, Type 0, BuildingBlock: QUQFOY_clean_sbu_3, # of connection points: 4
#     Node 72, Type 0, BuildingBlock: QUQFOY_clean_sbu_3, # of connection points: 4
#     Node 73, Type 0, BuildingBlock: QUQFOY_clean_sbu_3, # of connection points: 4
#     Node 74, Type 0, BuildingBlock: QUQFOY_clean_sbu_3, # of connection points: 4
#     Node 75, Type 0, BuildingBlock: QUQFOY_clean_sbu_3, # of connection points: 4
#     Node 76, Type 0, BuildingBlock: QUQFOY_clean_sbu_3, # of connection points: 4
#     Node 77, Type 0, BuildingBlock: QUQFOY_clean_sbu_3, # of connection points: 4
#     Node 78, Type 0, BuildingBlock: QUQFOY_clean_sbu_3, # of connection points: 4
#     Node 79, Type 0, BuildingBlock: QUQFOY_clean_sbu_3, # of connection points: 4
#     Node 80, Type 0, BuildingBlock: QUQFOY_clean_sbu_3, # of connection points: 4
#     Node 81, Type 0, BuildingBlock: QUQFOY_clean_sbu_3, # of connection points: 4
#     Node 82, Type 0, BuildingBlock: QUQFOY_clean_sbu_3, # of connection points: 4
#     Node 83, Type 0, BuildingBlock: QUQFOY_clean_sbu_3, # of connection points: 4
#     Node 84, Type 0, BuildingBlock: QUQFOY_clean_sbu_3, # of connection points: 4
#     Node 85, Type 0, BuildingBlock: QUQFOY_clean_sbu_3, # of connection points: 4
#     Node 86, Type 0, BuildingBlock: QUQFOY_clean_sbu_3, # of connection points: 4
#     Node 87, Type 0, BuildingBlock: QUQFOY_clean_sbu_3, # of connection points: 4
#     Node 88, Type 0, BuildingBlock: QUQFOY_clean_sbu_3, # of connection points: 4
#     Node 89, Type 0, BuildingBlock: QUQFOY_clean_sbu_3, # of connection points: 4
#     Node 90, Type 0, BuildingBlock: QUQFOY_clean_sbu_3, # of connection points: 4
#     Node 91, Type 0, BuildingBlock: QUQFOY_clean_sbu_3, # of connection points: 4
#     Node 92, Type 0, BuildingBlock: QUQFOY_clean_sbu_3, # of connection points: 4
#     Node 93, Type 0, BuildingBlock: QUQFOY_clean_sbu_3, # of connection points: 4
#     Node 94, Type 0, BuildingBlock: QUQFOY_clean_sbu_3, # of connection points: 4
#     Node 95, Type 0, BuildingBlock: QUQFOY_clean_sbu_3, # of connection points: 4
#     Edge 96, Type (0, 0), BuildingBlock: MIFKUJ_clean_linker_0, # of connection points: 2
#     Edge 97, Type (0, 0), BuildingBlock: MIFKUJ_clean_linker_0, # of connection points: 2
#     Edge 98, Type (0, 0), BuildingBlock: MIFKUJ_clean_linker_0, # of connection points: 2
#     Edge 99, Type (0, 0), BuildingBlock: MIFKUJ_clean_linker_0, # of connection points: 2
#     Edge 100, Type (0, 0), BuildingBlock: MIFKUJ_clean_linker_0, # of connection points: 2
#     Edge 101, Type (0, 0), BuildingBlock: MIFKUJ_clean_linker_0, # of connection points: 2
#     Edge 102, Type (0, 0), BuildingBlock: MIFKUJ_clean_linker_0, # of connection points: 2
#     Edge 103, Type (0, 0), BuildingBlock: MIFKUJ_clean_linker_0, # of connection points: 2
#     Edge 104, Type (0, 0), BuildingBlock: MIFKUJ_clean_linker_0, # of connection points: 2
#     Edge 105, Type (0, 0), BuildingBlock: MIFKUJ_clean_linker_0, # of connection points: 2
#     Edge 106, Type (0, 0), BuildingBlock: MIFKUJ_clean_linker_0, # of connection points: 2
#     Edge 107, Type (0, 0), BuildingBlock: MIFKUJ_clean_linker_0, # of connection points: 2
#     Edge 108, Type (0, 0), BuildingBlock: MIFKUJ_clean_linker_0, # of connection points: 2
#     Edge 109, Type (0, 0), BuildingBlock: MIFKUJ_clean_linker_0, # of connection points: 2
#     Edge 110, Type (0, 0), BuildingBlock: MIFKUJ_clean_linker_0, # of connection points: 2
#     Edge 111, Type (0, 0), BuildingBlock: MIFKUJ_clean_linker_0, # of connection points: 2
#     Edge 112, Type (0, 0), BuildingBlock: MIFKUJ_clean_linker_0, # of connection points: 2
#     Edge 113, Type (0, 0), BuildingBlock: MIFKUJ_clean_linker_0, # of connection points: 2
#     Edge 114, Type (0, 0), BuildingBlock: MIFKUJ_clean_linker_0, # of connection points: 2
#     Edge 115, Type (0, 0), BuildingBlock: MIFKUJ_clean_linker_0, # of connection points: 2
#     Edge 116, Type (0, 0), BuildingBlock: MIFKUJ_clean_linker_0, # of connection points: 2
#     Edge 117, Type (0, 0), BuildingBlock: MIFKUJ_clean_linker_0, # of connection points: 2
#     Edge 118, Type (0, 0), BuildingBlock: MIFKUJ_clean_linker_0, # of connection points: 2
#     Edge 119, Type (0, 0), BuildingBlock: MIFKUJ_clean_linker_0, # of connection points: 2
#     Edge 120, Type (0, 0), BuildingBlock: MIFKUJ_clean_linker_0, # of connection points: 2
#     Edge 121, Type (0, 0), BuildingBlock: MIFKUJ_clean_linker_0, # of connection points: 2
#     Edge 122, Type (0, 0), BuildingBlock: MIFKUJ_clean_linker_0, # of connection points: 2
#     Edge 123, Type (0, 0), BuildingBlock: MIFKUJ_clean_linker_0, # of connection points: 2
#     Edge 124, Type (0, 0), BuildingBlock: MIFKUJ_clean_linker_0, # of connection points: 2
#     Edge 125, Type (0, 0), BuildingBlock: MIFKUJ_clean_linker_0, # of connection points: 2
#     Edge 126, Type (0, 0), BuildingBlock: MIFKUJ_clean_linker_0, # of connection points: 2
#     Edge 127, Type (0, 0), BuildingBlock: MIFKUJ_clean_linker_0, # of connection points: 2
#     Edge 128, Type (0, 0), BuildingBlock: MIFKUJ_clean_linker_0, # of connection points: 2
#     Edge 129, Type (0, 0), BuildingBlock: MIFKUJ_clean_linker_0, # of connection points: 2
#     Edge 130, Type (0, 0), BuildingBlock: MIFKUJ_clean_linker_0, # of connection points: 2
#     Edge 131, Type (0, 0), BuildingBlock: MIFKUJ_clean_linker_0, # of connection points: 2
#     Edge 132, Type (0, 0), BuildingBlock: MIFKUJ_clean_linker_0, # of connection points: 2
#     Edge 133, Type (0, 0), BuildingBlock: MIFKUJ_clean_linker_0, # of connection points: 2
#     Edge 134, Type (0, 0), BuildingBlock: MIFKUJ_clean_linker_0, # of connection points: 2
#     Edge 135, Type (0, 0), BuildingBlock: MIFKUJ_clean_linker_0, # of connection points: 2
#     Edge 136, Type (0, 0), BuildingBlock: MIFKUJ_clean_linker_0, # of connection points: 2
#     Edge 137, Type (0, 0), BuildingBlock: MIFKUJ_clean_linker_0, # of connection points: 2
#     Edge 138, Type (0, 0), BuildingBlock: MIFKUJ_clean_linker_0, # of connection points: 2
#     Edge 139, Type (0, 0), BuildingBlock: MIFKUJ_clean_linker_0, # of connection points: 2
#     Edge 140, Type (0, 0), BuildingBlock: MIFKUJ_clean_linker_0, # of connection points: 2
#     Edge 141, Type (0, 0), BuildingBlock: MIFKUJ_clean_linker_0, # of connection points: 2
#     Edge 142, Type (0, 0), BuildingBlock: MIFKUJ_clean_linker_0, # of connection points: 2
#     Edge 143, Type (0, 0), BuildingBlock: MIFKUJ_clean_linker_0, # of connection points: 2
#     Edge 144, Type (0, 0), BuildingBlock: MIFKUJ_clean_linker_0, # of connection points: 2
#     Edge 145, Type (0, 0), BuildingBlock: MIFKUJ_clean_linker_0, # of connection points: 2
#     Edge 146, Type (0, 0), BuildingBlock: MIFKUJ_clean_linker_0, # of connection points: 2
#     Edge 147, Type (0, 0), BuildingBlock: MIFKUJ_clean_linker_0, # of connection points: 2
#     Edge 148, Type (0, 0), BuildingBlock: MIFKUJ_clean_linker_0, # of connection points: 2
#     Edge 149, Type (0, 0), BuildingBlock: MIFKUJ_clean_linker_0, # of connection points: 2
#     Edge 150, Type (0, 0), BuildingBlock: MIFKUJ_clean_linker_0, # of connection points: 2
#     Edge 151, Type (0, 0), BuildingBlock: MIFKUJ_clean_linker_0, # of connection points: 2
#     Edge 152, Type (0, 0), BuildingBlock: MIFKUJ_clean_linker_0, # of connection points: 2
#     Edge 153, Type (0, 0), BuildingBlock: MIFKUJ_clean_linker_0, # of connection points: 2
#     Edge 154, Type (0, 0), BuildingBlock: MIFKUJ_clean_linker_0, # of connection points: 2
#     Edge 155, Type (0, 0), BuildingBlock: MIFKUJ_clean_linker_0, # of connection points: 2
#     Edge 156, Type (0, 0), BuildingBlock: MIFKUJ_clean_linker_0, # of connection points: 2
#     Edge 157, Type (0, 0), BuildingBlock: MIFKUJ_clean_linker_0, # of connection points: 2
#     Edge 158, Type (0, 0), BuildingBlock: MIFKUJ_clean_linker_0, # of connection points: 2
#     Edge 159, Type (0, 0), BuildingBlock: MIFKUJ_clean_linker_0, # of connection points: 2
#     Edge 160, Type (0, 0), BuildingBlock: MIFKUJ_clean_linker_0, # of connection points: 2
#     Edge 161, Type (0, 0), BuildingBlock: MIFKUJ_clean_linker_0, # of connection points: 2
#     Edge 162, Type (0, 0), BuildingBlock: MIFKUJ_clean_linker_0, # of connection points: 2
#     Edge 163, Type (0, 0), BuildingBlock: MIFKUJ_clean_linker_0, # of connection points: 2
#     Edge 164, Type (0, 0), BuildingBlock: MIFKUJ_clean_linker_0, # of connection points: 2
#     Edge 165, Type (0, 0), BuildingBlock: MIFKUJ_clean_linker_0, # of connection points: 2
#     Edge 166, Type (0, 0), BuildingBlock: MIFKUJ_clean_linker_0, # of connection points: 2
#     Edge 167, Type (0, 0), BuildingBlock: MIFKUJ_clean_linker_0, # of connection points: 2
#     Edge 168, Type (0, 0), BuildingBlock: MIFKUJ_clean_linker_0, # of connection points: 2
#     Edge 169, Type (0, 0), BuildingBlock: MIFKUJ_clean_linker_0, # of connection points: 2
#     Edge 170, Type (0, 0), BuildingBlock: MIFKUJ_clean_linker_0, # of connection points: 2
#     Edge 171, Type (0, 0), BuildingBlock: MIFKUJ_clean_linker_0, # of connection points: 2
#     Edge 172, Type (0, 0), BuildingBlock: MIFKUJ_clean_linker_0, # of connection points: 2
#     Edge 173, Type (0, 0), BuildingBlock: MIFKUJ_clean_linker_0, # of connection points: 2
#     Edge 174, Type (0, 0), BuildingBlock: MIFKUJ_clean_linker_0, # of connection points: 2
#     Edge 175, Type (0, 0), BuildingBlock: MIFKUJ_clean_linker_0, # of connection points: 2
#     Edge 176, Type (0, 0), BuildingBlock: MIFKUJ_clean_linker_0, # of connection points: 2
#     Edge 177, Type (0, 0), BuildingBlock: MIFKUJ_clean_linker_0, # of connection points: 2
#     Edge 178, Type (0, 0), BuildingBlock: MIFKUJ_clean_linker_0, # of connection points: 2
#     Edge 179, Type (0, 0), BuildingBlock: MIFKUJ_clean_linker_0, # of connection points: 2
#     Edge 180, Type (0, 0), BuildingBlock: MIFKUJ_clean_linker_0, # of connection points: 2
#     Edge 181, Type (0, 0), BuildingBlock: MIFKUJ_clean_linker_0, # of connection points: 2
#     Edge 182, Type (0, 0), BuildingBlock: MIFKUJ_clean_linker_0, # of connection points: 2
#     Edge 183, Type (0, 0), BuildingBlock: MIFKUJ_clean_linker_0, # of connection points: 2
#     Edge 184, Type (0, 0), BuildingBlock: MIFKUJ_clean_linker_0, # of connection points: 2
#     Edge 185, Type (0, 0), BuildingBlock: MIFKUJ_clean_linker_0, # of connection points: 2
#     Edge 186, Type (0, 0), BuildingBlock: MIFKUJ_clean_linker_0, # of connection points: 2
#     Edge 187, Type (0, 0), BuildingBlock: MIFKUJ_clean_linker_0, # of connection points: 2
#     Edge 188, Type (0, 0), BuildingBlock: MIFKUJ_clean_linker_0, # of connection points: 2
#     Edge 189, Type (0, 0), BuildingBlock: MIFKUJ_clean_linker_0, # of connection points: 2
#     Edge 190, Type (0, 0), BuildingBlock: MIFKUJ_clean_linker_0, # of connection points: 2
#     Edge 191, Type (0, 0), BuildingBlock: MIFKUJ_clean_linker_0, # of connection points: 2
#     Edge 192, Type (0, 0), BuildingBlock: MIFKUJ_clean_linker_0, # of connection points: 2
#     Edge 193, Type (0, 0), BuildingBlock: MIFKUJ_clean_linker_0, # of connection points: 2
#     Edge 194, Type (0, 0), BuildingBlock: MIFKUJ_clean_linker_0, # of connection points: 2
#     Edge 195, Type (0, 0), BuildingBlock: MIFKUJ_clean_linker_0, # of connection points: 2
#     Edge 196, Type (0, 0), BuildingBlock: MIFKUJ_clean_linker_0, # of connection points: 2
#     Edge 197, Type (0, 0), BuildingBlock: MIFKUJ_clean_linker_0, # of connection points: 2
#     Edge 198, Type (0, 0), BuildingBlock: MIFKUJ_clean_linker_0, # of connection points: 2
#     Edge 199, Type (0, 0), BuildingBlock: MIFKUJ_clean_linker_0, # of connection points: 2
#     Edge 200, Type (0, 0), BuildingBlock: MIFKUJ_clean_linker_0, # of connection points: 2
#     Edge 201, Type (0, 0), BuildingBlock: MIFKUJ_clean_linker_0, # of connection points: 2
#     Edge 202, Type (0, 0), BuildingBlock: MIFKUJ_clean_linker_0, # of connection points: 2
#     Edge 203, Type (0, 0), BuildingBlock: MIFKUJ_clean_linker_0, # of connection points: 2
#     Edge 204, Type (0, 0), BuildingBlock: MIFKUJ_clean_linker_0, # of connection points: 2
#     Edge 205, Type (0, 0), BuildingBlock: MIFKUJ_clean_linker_0, # of connection points: 2
#     Edge 206, Type (0, 0), BuildingBlock: MIFKUJ_clean_linker_0, # of connection points: 2
#     Edge 207, Type (0, 0), BuildingBlock: MIFKUJ_clean_linker_0, # of connection points: 2
#     Edge 208, Type (0, 0), BuildingBlock: MIFKUJ_clean_linker_0, # of connection points: 2
#     Edge 209, Type (0, 0), BuildingBlock: MIFKUJ_clean_linker_0, # of connection points: 2
#     Edge 210, Type (0, 0), BuildingBlock: MIFKUJ_clean_linker_0, # of connection points: 2
#     Edge 211, Type (0, 0), BuildingBlock: MIFKUJ_clean_linker_0, # of connection points: 2
#     Edge 212, Type (0, 0), BuildingBlock: MIFKUJ_clean_linker_0, # of connection points: 2
#     Edge 213, Type (0, 0), BuildingBlock: MIFKUJ_clean_linker_0, # of connection points: 2
#     Edge 214, Type (0, 0), BuildingBlock: MIFKUJ_clean_linker_0, # of connection points: 2
#     Edge 215, Type (0, 0), BuildingBlock: MIFKUJ_clean_linker_0, # of connection points: 2
#     Edge 216, Type (0, 0), BuildingBlock: MIFKUJ_clean_linker_0, # of connection points: 2
#     Edge 217, Type (0, 0), BuildingBlock: MIFKUJ_clean_linker_0, # of connection points: 2
#     Edge 218, Type (0, 0), BuildingBlock: MIFKUJ_clean_linker_0, # of connection points: 2
#     Edge 219, Type (0, 0), BuildingBlock: MIFKUJ_clean_linker_0, # of connection points: 2
#     Edge 220, Type (0, 0), BuildingBlock: MIFKUJ_clean_linker_0, # of connection points: 2
#     Edge 221, Type (0, 0), BuildingBlock: MIFKUJ_clean_linker_0, # of connection points: 2
#     Edge 222, Type (0, 0), BuildingBlock: MIFKUJ_clean_linker_0, # of connection points: 2
#     Edge 223, Type (0, 0), BuildingBlock: MIFKUJ_clean_linker_0, # of connection points: 2
#     Edge 224, Type (0, 0), BuildingBlock: MIFKUJ_clean_linker_0, # of connection points: 2
#     Edge 225, Type (0, 0), BuildingBlock: MIFKUJ_clean_linker_0, # of connection points: 2
#     Edge 226, Type (0, 0), BuildingBlock: MIFKUJ_clean_linker_0, # of connection points: 2
#     Edge 227, Type (0, 0), BuildingBlock: MIFKUJ_clean_linker_0, # of connection points: 2
#     Edge 228, Type (0, 0), BuildingBlock: MIFKUJ_clean_linker_0, # of connection points: 2
#     Edge 229, Type (0, 0), BuildingBlock: MIFKUJ_clean_linker_0, # of connection points: 2
#     Edge 230, Type (0, 0), BuildingBlock: MIFKUJ_clean_linker_0, # of connection points: 2
#     Edge 231, Type (0, 0), BuildingBlock: MIFKUJ_clean_linker_0, # of connection points: 2
#     Edge 232, Type (0, 0), BuildingBlock: MIFKUJ_clean_linker_0, # of connection points: 2
#     Edge 233, Type (0, 0), BuildingBlock: MIFKUJ_clean_linker_0, # of connection points: 2
#     Edge 234, Type (0, 0), BuildingBlock: MIFKUJ_clean_linker_0, # of connection points: 2
#     Edge 235, Type (0, 0), BuildingBlock: MIFKUJ_clean_linker_0, # of connection points: 2
#     Edge 236, Type (0, 0), BuildingBlock: MIFKUJ_clean_linker_0, # of connection points: 2
#     Edge 237, Type (0, 0), BuildingBlock: MIFKUJ_clean_linker_0, # of connection points: 2
#     Edge 238, Type (0, 0), BuildingBlock: MIFKUJ_clean_linker_0, # of connection points: 2
#     Edge 239, Type (0, 0), BuildingBlock: MIFKUJ_clean_linker_0, # of connection points: 2
#     Edge 240, Type (0, 0), BuildingBlock: MIFKUJ_clean_linker_0, # of connection points: 2
#     Edge 241, Type (0, 0), BuildingBlock: MIFKUJ_clean_linker_0, # of connection points: 2
#     Edge 242, Type (0, 0), BuildingBlock: MIFKUJ_clean_linker_0, # of connection points: 2
#     Edge 243, Type (0, 0), BuildingBlock: MIFKUJ_clean_linker_0, # of connection points: 2
#     Edge 244, Type (0, 0), BuildingBlock: MIFKUJ_clean_linker_0, # of connection points: 2
#     Edge 245, Type (0, 0), BuildingBlock: MIFKUJ_clean_linker_0, # of connection points: 2
#     Edge 246, Type (0, 0), BuildingBlock: MIFKUJ_clean_linker_0, # of connection points: 2
#     Edge 247, Type (0, 0), BuildingBlock: MIFKUJ_clean_linker_0, # of connection points: 2
#     Edge 248, Type (0, 0), BuildingBlock: MIFKUJ_clean_linker_0, # of connection points: 2
#     Edge 249, Type (0, 0), BuildingBlock: MIFKUJ_clean_linker_0, # of connection points: 2
#     Edge 250, Type (0, 0), BuildingBlock: MIFKUJ_clean_linker_0, # of connection points: 2
#     Edge 251, Type (0, 0), BuildingBlock: MIFKUJ_clean_linker_0, # of connection points: 2
#     Edge 252, Type (0, 0), BuildingBlock: MIFKUJ_clean_linker_0, # of connection points: 2
#     Edge 253, Type (0, 0), BuildingBlock: MIFKUJ_clean_linker_0, # of connection points: 2
#     Edge 254, Type (0, 0), BuildingBlock: MIFKUJ_clean_linker_0, # of connection points: 2
#     Edge 255, Type (0, 0), BuildingBlock: MIFKUJ_clean_linker_0, # of connection points: 2
#     Edge 256, Type (0, 0), BuildingBlock: MIFKUJ_clean_linker_0, # of connection points: 2
#     Edge 257, Type (0, 0), BuildingBlock: MIFKUJ_clean_linker_0, # of connection points: 2
#     Edge 258, Type (0, 0), BuildingBlock: MIFKUJ_clean_linker_0, # of connection points: 2
#     Edge 259, Type (0, 0), BuildingBlock: MIFKUJ_clean_linker_0, # of connection points: 2
#     Edge 260, Type (0, 0), BuildingBlock: MIFKUJ_clean_linker_0, # of connection points: 2
#     Edge 261, Type (0, 0), BuildingBlock: MIFKUJ_clean_linker_0, # of connection points: 2
#     Edge 262, Type (0, 0), BuildingBlock: MIFKUJ_clean_linker_0, # of connection points: 2
#     Edge 263, Type (0, 0), BuildingBlock: MIFKUJ_clean_linker_0, # of connection points: 2
#     Edge 264, Type (0, 0), BuildingBlock: MIFKUJ_clean_linker_0, # of connection points: 2
#     Edge 265, Type (0, 0), BuildingBlock: MIFKUJ_clean_linker_0, # of connection points: 2
#     Edge 266, Type (0, 0), BuildingBlock: MIFKUJ_clean_linker_0, # of connection points: 2
#     Edge 267, Type (0, 0), BuildingBlock: MIFKUJ_clean_linker_0, # of connection points: 2
#     Edge 268, Type (0, 0), BuildingBlock: MIFKUJ_clean_linker_0, # of connection points: 2
#     Edge 269, Type (0, 0), BuildingBlock: MIFKUJ_clean_linker_0, # of connection points: 2
#     Edge 270, Type (0, 0), BuildingBlock: MIFKUJ_clean_linker_0, # of connection points: 2
#     Edge 271, Type (0, 0), BuildingBlock: MIFKUJ_clean_linker_0, # of connection points: 2
#     Edge 272, Type (0, 0), BuildingBlock: MIFKUJ_clean_linker_0, # of connection points: 2
#     Edge 273, Type (0, 0), BuildingBlock: MIFKUJ_clean_linker_0, # of connection points: 2
#     Edge 274, Type (0, 0), BuildingBlock: MIFKUJ_clean_linker_0, # of connection points: 2
#     Edge 275, Type (0, 0), BuildingBlock: MIFKUJ_clean_linker_0, # of connection points: 2
#     Edge 276, Type (0, 0), BuildingBlock: MIFKUJ_clean_linker_0, # of connection points: 2
#     Edge 277, Type (0, 0), BuildingBlock: MIFKUJ_clean_linker_0, # of connection points: 2
#     Edge 278, Type (0, 0), BuildingBlock: MIFKUJ_clean_linker_0, # of connection points: 2
#     Edge 279, Type (0, 0), BuildingBlock: MIFKUJ_clean_linker_0, # of connection points: 2
#     Edge 280, Type (0, 0), BuildingBlock: MIFKUJ_clean_linker_0, # of connection points: 2
#     Edge 281, Type (0, 0), BuildingBlock: MIFKUJ_clean_linker_0, # of connection points: 2
#     Edge 282, Type (0, 0), BuildingBlock: MIFKUJ_clean_linker_0, # of connection points: 2
#     Edge 283, Type (0, 0), BuildingBlock: MIFKUJ_clean_linker_0, # of connection points: 2
#     Edge 284, Type (0, 0), BuildingBlock: MIFKUJ_clean_linker_0, # of connection points: 2
#     Edge 285, Type (0, 0), BuildingBlock: MIFKUJ_clean_linker_0, # of connection points: 2
#     Edge 286, Type (0, 0), BuildingBlock: MIFKUJ_clean_linker_0, # of connection points: 2
#     Edge 287, Type (0, 0), BuildingBlock: MIFKUJ_clean_linker_0, # of connection points: 2
# Relax obj value: 0.151
# Max RMSD: 0.094
# Mean RMSD: 0.094
data_MOF--net-kfi--node1-QUQFOY_clean_sbu_3--edge1-MIFKUJ_clean_linker_0
_symmetry_space_group_name_H-M    P1
_symmetry_Int_Tables_number       1
_symmetry_cell_setting            triclinic
loop_
_symmetry_equiv_pos_as_xyz
'x, y, z'
_cell_length_a     116.65008
_cell_length_b     116.63797
_cell_length_c     116.64461
_cell_angle_alpha  89.99936
_cell_angle_beta   89.999071
_cell_angle_gamma 90.001287
loop_
_atom_site_label
_atom_site_type_symbol
_atom_site_fract_x
_atom_site_fract_y
_atom_site_fract_z
_atom_type_partial_charge
C0 C 0.09316 0.17939 0.30402 0.0
O1 O 0.09672 0.18626 0.29635 0.0
Cd2 Cd 0.0901 0.20564 0.29468 0.0
O3 O 0.08539 0.18246 0.31104 0.0
Cd4 Cd 0.07275 0.19896 0.31503 0.0
C5 C 0.09558 0.2153 0.32215 0.0
O6 O 0.06966 0.20438 0.29515 0.0
O7 O 0.06327 0.21628 0.30775 0.0
O8 O 0.05847 0.18423 0.31798 0.0
C9 C 0.06428 0.21358 0.29727 0.0
O10 O 0.09783 0.21567 0.31146 0.0
C11 C 0.05445 0.18838 0.32719 0.0
O12 O 0.08724 0.20934 0.3259 0.0
O13 O 0.05909 0.19751 0.33094 0.0
C14 C 0.8184 0.09314 0.30414 0.0
O15 O 0.81165 0.09755 0.29683 0.0
Cd16 Cd 0.79171 0.09301 0.29576 0.0
O17 O 0.81488 0.08538 0.31097 0.0
Cd18 Cd 0.79729 0.074 0.31452 0.0
C19 C 0.78315 0.09741 0.32375 0.0
O20 O 0.79052 0.07255 0.29482 0.0
O21 O 0.77856 0.0672 0.30786 0.0
O22 O 0.80907 0.05693 0.31537 0.0
C23 C 0.78086 0.06824 0.29729 0.0
O24 O 0.78312 0.1007 0.31333 0.0
C25 C 0.80604 0.05399 0.32539 0.0
O26 O 0.78805 0.08813 0.32671 0.0
O27 O 0.79888 0.06044 0.33047 0.0
C28 C 0.89831 0.81612 0.30615 0.0
O29 O 0.89464 0.80939 0.2984 0.0
Cd30 Cd 0.90079 0.79004 0.29579 0.0
O31 O 0.90631 0.81303 0.31293 0.0
Cd32 Cd 0.91941 0.79656 0.31597 0.0
C33 C 0.89681 0.77986 0.3234 0.0
O34 O 0.92109 0.79157 0.29593 0.0
O35 O 0.9295 0.77997 0.30753 0.0
O36 O 0.93394 0.81115 0.31873 0.0
C37 C 0.92699 0.78258 0.29729 0.0
O38 O 0.89383 0.78016 0.3129 0.0
C39 C 0.93813 0.80681 0.32779 0.0
O40 O 0.9056 0.78529 0.32694 0.0
O41 O 0.93342 0.79773 0.33155 0.0
C42 C 0.17587 0.8973 0.30816 0.0
O43 O 0.18301 0.8927 0.30134 0.0
Cd44 Cd 0.2027 0.89795 0.29977 0.0
O45 O 0.17882 0.90568 0.31452 0.0
Cd46 Cd 0.19604 0.91783 0.31755 0.0
C47 C 0.21133 0.89542 0.32787 0.0
O48 O 0.20223 0.9183 0.29767 0.0
O49 O 0.21397 0.92579 0.3098 0.0
O50 O 0.18316 0.9342 0.31863 0.0
C51 C 0.21154 0.9236 0.29944 0.0
O52 O 0.21163 0.89158 0.31765 0.0
C53 C 0.1871 0.93794 0.32806 0.0
O54 O 0.20593 0.90459 0.33027 0.0
O55 O 0.19509 0.93218 0.3327 0.0
C56 C 0.09214 0.81695 0.68624 0.0
O57 O 0.096 0.8107 0.69427 0.0
Cd58 Cd 0.09087 0.79097 0.69642 0.0
O59 O 0.0845 0.81317 0.67942 0.0
Cd60 Cd 0.0722 0.7961 0.67681 0.0
C61 C 0.09552 0.78116 0.66875 0.0
O62 O 0.0704 0.79062 0.6969 0.0
O63 O 0.0644 0.77827 0.68454 0.0
O64 O 0.05705 0.81005 0.6745 0.0
C65 C 0.06573 0.781 0.69497 0.0
O66 O 0.09855 0.78153 0.67924 0.0
C67 C 0.05284 0.80563 0.6655 0.0
O68 O 0.0864 0.78609 0.66534 0.0
O69 O 0.0577 0.79667 0.66164 0.0
C70 C 0.17833 0.09282 0.68703 0.0
O71 O 0.18577 0.09665 0.694 0.0
Cd72 Cd 0.20491 0.08953 0.69563 0.0
O73 O 0.18068 0.08444 0.68043 0.0
Cd74 Cd 0.19673 0.0711 0.67663 0.0
C75 C 0.21398 0.09259 0.66762 0.0
O76 O 0.20262 0.06927 0.69649 0.0
O77 O 0.2138 0.06117 0.68429 0.0
O78 O 0.18166 0.05692 0.67482 0.0
C79 C 0.21152 0.06336 0.69469 0.0
O80 O 0.21473 0.0955 0.67812 0.0
C81 C 0.18544 0.05249 0.66564 0.0
O82 O 0.2075 0.08435 0.66455 0.0
O83 O 0.19449 0.05684 0.66141 0.0
C84 C 0.89736 0.17907 0.68633 0.0
O85 O 0.89353 0.18679 0.69299 0.0
Cd86 Cd 0.9004 0.20594 0.69356 0.0
O87 O 0.90566 0.18118 0.67955 0.0
Cd88 Cd 0.91888 0.19731 0.67513 0.0
C89 C 0.89723 0.21356 0.66509 0.0
O90 O 0.92069 0.20394 0.69472 0.0
O91 O 0.92801 0.21514 0.68205 0.0
O92 O 0.93347 0.1826 0.67461 0.0
C93 C 0.92627 0.21298 0.69255 0.0
O94 O 0.89413 0.21445 0.67552 0.0
C95 C 0.93816 0.18597 0.66539 0.0
O96 O 0.90583 0.20745 0.66228 0.0
O97 O 0.93366 0.19456 0.66043 0.0
C98 C 0.81199 0.8961 0.68217 0.0
O99 O 0.80396 0.89137 0.6878 0.0
Cd100 Cd 0.78573 0.90007 0.69191 0.0
O101 O 0.81066 0.90597 0.67773 0.0
Cd102 Cd 0.79521 0.92019 0.67584 0.0
C103 C 0.77577 0.90169 0.66454 0.0
O104 O 0.78944 0.91976 0.69582 0.0
O105 O 0.77868 0.92992 0.6848 0.0
O106 O 0.80957 0.93526 0.67624 0.0
C107 C 0.78091 0.92639 0.69484 0.0
O108 O 0.77424 0.89797 0.67468 0.0
C109 C 0.80693 0.93947 0.66656 0.0
O110 O 0.78359 0.90899 0.66232 0.0
O111 O 0.79882 0.93465 0.66111 0.0
C112 C 0.30473 0.09449 0.17636 0.0
O113 O 0.29793 0.09891 0.18363 0.0
Cd114 Cd 0.29645 0.0931 0.20321 0.0
O115 O 0.31118 0.08613 0.17915 0.0
Cd116 Cd 0.31476 0.07385 0.1961 0.0
C117 C 0.3245 0.09611 0.21196 0.0
O118 O 0.29502 0.07269 0.20264 0.0
O119 O 0.30757 0.06566 0.2142 0.0
O120 O 0.31524 0.05735 0.1835 0.0
C121 C 0.2971 0.06752 0.21195 0.0
O122 O 0.31413 0.09949 0.21242 0.0
C123 C 0.32521 0.05406 0.18633 0.0
O124 O 0.32726 0.08727 0.2062 0.0
O125 O 0.33048 0.06009 0.19371 0.0
C126 C 0.8999 0.30469 0.17794 0.0
O127 O 0.89648 0.29717 0.18503 0.0
Cd128 Cd 0.90275 0.29597 0.20445 0.0
O129 O 0.90754 0.31197 0.18078 0.0
Cd130 Cd 0.91999 0.31621 0.19752 0.0
C131 C 0.89697 0.32362 0.21338 0.0
O132 O 0.92318 0.29645 0.20333 0.0
O133 O 0.92868 0.30918 0.21547 0.0
O134 O 0.9349 0.31921 0.18332 0.0
C135 C 0.92805 0.29867 0.21276 0.0
O136 O 0.89478 0.31293 0.21395 0.0
C137 C 0.93876 0.3284 0.18768 0.0
O138 O 0.90536 0.3273 0.20745 0.0
O139 O 0.93374 0.33211 0.1966 0.0
C140 C 0.68566 0.90019 0.17727 0.0
O141 O 0.69336 0.89681 0.18419 0.0
Cd142 Cd 0.69531 0.9035 0.20347 0.0
O143 O 0.67859 0.90798 0.18017 0.0
Cd144 Cd 0.675 0.92086 0.19673 0.0
C145 C 0.66793 0.89836 0.21351 0.0
O146 O 0.695 0.92385 0.202 0.0
O147 O 0.68257 0.93023 0.21402 0.0
O148 O 0.67152 0.93529 0.18218 0.0
C149 C 0.69302 0.92912 0.21128 0.0
O150 O 0.67862 0.89613 0.21387 0.0
C151 C 0.66249 0.93927 0.18676 0.0
O152 O 0.66413 0.90653 0.20734 0.0
O153 O 0.65912 0.93453 0.19597 0.0
C154 C 0.09424 0.6865 0.17798 0.0
O155 O 0.09769 0.69425 0.1848 0.0
Cd156 Cd 0.09128 0.69562 0.20422 0.0
O157 O 0.08643 0.67949 0.18103 0.0
Cd158 Cd 0.07334 0.67598 0.19737 0.0
C159 C 0.09603 0.66769 0.21316 0.0
O160 O 0.07082 0.69583 0.20327 0.0
O161 O 0.06471 0.68309 0.21517 0.0
O162 O 0.05878 0.67392 0.18273 0.0
C163 C 0.06574 0.6936 0.21261 0.0
O164 O 0.09872 0.67828 0.21355 0.0
C165 C 0.05445 0.66479 0.18675 0.0
O166 O 0.08737 0.66431 0.20744 0.0
O167 O 0.05903 0.66069 0.19575 0.0
C168 C 0.30609 0.89928 0.81408 0.0
O169 O 0.29889 0.89558 0.80678 0.0
Cd170 Cd 0.296 0.90291 0.78789 0.0
O171 O 0.31259 0.90774 0.81173 0.0
Cd172 Cd 0.31597 0.92131 0.79568 0.0
C173 C 0.32357 0.8997 0.77759 0.0
O174 O 0.2959 0.923 0.79105 0.0
O175 O 0.30708 0.9322 0.77969 0.0
O176 O 0.31933 0.93518 0.81083 0.0
C177 C 0.29693 0.92941 0.78238 0.0
O178 O 0.31302 0.89688 0.7773 0.0
C179 C 0.32824 0.93952 0.80633 0.0
O180 O 0.32701 0.90789 0.78395 0.0
O181 O 0.33159 0.93521 0.7969 0.0
C182 C 0.09197 0.31026 0.81646 0.0
O183 O 0.09567 0.30212 0.81025 0.0
Cd184 Cd 0.09043 0.29913 0.79071 0.0
O185 O 0.08453 0.31729 0.81263 0.0
Cd186 Cd 0.07283 0.31988 0.79503 0.0
C187 C 0.09645 0.32584 0.77941 0.0
O188 O 0.07002 0.29956 0.79099 0.0
O189 O 0.06439 0.31112 0.77781 0.0
O190 O 0.0579 0.32533 0.8086 0.0
C191 C 0.0653 0.30088 0.78131 0.0
O192 O 0.09874 0.31517 0.77995 0.0
C193 C 0.05378 0.33322 0.80235 0.0
O194 O 0.0878 0.32997 0.78464 0.0
O195 O 0.05871 0.33512 0.79284 0.0
C196 C 0.68805 0.09257 0.81817 0.0
O197 O 0.69498 0.09689 0.81096 0.0
Cd198 Cd 0.69628 0.0913 0.79126 0.0
O199 O 0.68125 0.08456 0.81522 0.0
Cd200 Cd 0.67698 0.07288 0.79801 0.0
C201 C 0.66846 0.0958 0.78239 0.0
O202 O 0.69665 0.07087 0.79148 0.0
O203 O 0.68374 0.0648 0.77975 0.0
O204 O 0.67541 0.0565 0.81069 0.0
C205 C 0.69428 0.06604 0.78204 0.0
O206 O 0.67903 0.09848 0.78177 0.0
C207 C 0.66552 0.05345 0.80734 0.0
O208 O 0.66521 0.08725 0.78836 0.0
O209 O 0.66081 0.05959 0.79967 0.0
C210 C 0.89608 0.68303 0.81085 0.0
O211 O 0.89233 0.68936 0.80282 0.0
Cd212 Cd 0.90182 0.69369 0.78523 0.0
O213 O 0.90561 0.67776 0.80994 0.0
Cd214 Cd 0.92044 0.6753 0.79482 0.0
C215 C 0.90128 0.66639 0.7746 0.0
O216 O 0.92141 0.69554 0.79059 0.0
O217 O 0.93177 0.68501 0.77964 0.0
O218 O 0.93403 0.67224 0.8104 0.0
C219 C 0.9285 0.69498 0.78243 0.0
O220 O 0.89819 0.67681 0.77362 0.0
C221 C 0.93884 0.66362 0.80579 0.0
O222 O 0.90863 0.66343 0.78211 0.0
O223 O 0.93484 0.66027 0.79624 0.0
C224 C 0.18061 0.30656 0.09627 0.0
O225 O 0.18856 0.29998 0.09975 0.0
Cd226 Cd 0.20684 0.29785 0.09067 0.0
O227 O 0.18196 0.31266 0.08732 0.0
Cd228 Cd 0.19707 0.31593 0.07277 0.0
C229 C 0.21614 0.32564 0.09224 0.0
O230 O 0.20265 0.29597 0.0708 0.0
O231 O 0.21386 0.30797 0.06247 0.0
O232 O 0.18155 0.31744 0.05896 0.0
C233 C 0.21131 0.2976 0.06449 0.0
O234 O 0.21784 0.31517 0.09482 0.0
C235 C 0.18527 0.32647 0.05417 0.0
O236 O 0.2083 0.32851 0.0852 0.0
O237 O 0.19439 0.3308 0.05825 0.0
C238 C 0.17747 0.68585 0.89826 0.0
O239 O 0.18455 0.69287 0.8939 0.0
Cd240 Cd 0.2041 0.6946 0.89958 0.0
O241 O 0.18044 0.67932 0.9065 0.0
Cd242 Cd 0.19748 0.67595 0.91886 0.0
C243 C 0.21309 0.66664 0.89622 0.0
O244 O 0.20303 0.69596 0.91998 0.0
O245 O 0.21486 0.68417 0.92776 0.0
O246 O 0.1832 0.67377 0.93384 0.0
C247 C 0.21223 0.69447 0.92552 0.0
O248 O 0.21326 0.67701 0.89281 0.0
C249 C 0.18765 0.66489 0.93827 0.0
O250 O 0.20768 0.66378 0.90526 0.0
O251 O 0.19668 0.66102 0.93357 0.0
C252 C 0.30753 0.17604 0.89921 0.0
O253 O 0.29979 0.18263 0.89532 0.0
Cd254 Cd 0.29767 0.20237 0.90016 0.0
O255 O 0.31458 0.17957 0.90678 0.0
Cd256 Cd 0.31769 0.19721 0.91839 0.0
C257 C 0.32509 0.21209 0.89465 0.0
O258 O 0.29768 0.20276 0.92055 0.0
O259 O 0.31006 0.21535 0.92587 0.0
O260 O 0.32041 0.1849 0.93497 0.0
C261 C 0.29963 0.21248 0.92497 0.0
O262 O 0.31449 0.2119 0.892 0.0
C263 C 0.32982 0.1894 0.93809 0.0
O264 O 0.32872 0.207 0.90359 0.0
O265 O 0.33376 0.19741 0.93184 0.0
C266 C 0.81571 0.30738 0.90105 0.0
O267 O 0.80863 0.30015 0.89703 0.0
Cd268 Cd 0.78927 0.29832 0.9036 0.0
O269 O 0.81287 0.31399 0.90925 0.0
Cd270 Cd 0.79631 0.31741 0.92198 0.0
C271 C 0.77977 0.32604 0.89991 0.0
O272 O 0.79083 0.29744 0.92395 0.0
O273 O 0.77879 0.30952 0.93091 0.0
O274 O 0.81093 0.31969 0.93653 0.0
C275 C 0.78154 0.29914 0.92928 0.0
O276 O 0.77895 0.31548 0.89723 0.0
C277 C 0.80673 0.32872 0.9409 0.0
O278 O 0.78622 0.32926 0.9081 0.0
O279 O 0.79762 0.33262 0.93638 0.0
C280 C 0.68594 0.81496 0.90131 0.0
O281 O 0.69373 0.80835 0.89757 0.0
Cd282 Cd 0.69567 0.78867 0.90279 0.0
O283 O 0.67887 0.81149 0.90888 0.0
Cd284 Cd 0.67569 0.79395 0.92056 0.0
C285 C 0.66828 0.77927 0.89679 0.0
O286 O 0.69557 0.78805 0.92325 0.0
O287 O 0.68277 0.77547 0.92764 0.0
O288 O 0.67322 0.80618 0.9372 0.0
C289 C 0.69326 0.77829 0.92742 0.0
O290 O 0.67892 0.77925 0.89434 0.0
C291 C 0.66369 0.80192 0.94026 0.0
O292 O 0.66458 0.78444 0.90566 0.0
O293 O 0.65954 0.79407 0.93395 0.0
C294 C 0.81338 0.68464 0.09422 0.0
O295 O 0.80611 0.69212 0.09736 0.0
Cd296 Cd 0.78745 0.69415 0.08898 0.0
O297 O 0.81122 0.67792 0.0859 0.0
Cd298 Cd 0.79593 0.67465 0.07168 0.0
C299 C 0.77765 0.6665 0.09242 0.0
O300 O 0.79065 0.69458 0.0688 0.0
O301 O 0.77888 0.68228 0.06176 0.0
O302 O 0.81148 0.67241 0.05812 0.0
C303 C 0.78166 0.69271 0.06304 0.0
O304 O 0.77649 0.67713 0.09465 0.0
C305 C 0.80765 0.66333 0.05352 0.0
O306 O 0.78489 0.66305 0.08502 0.0
O307 O 0.79833 0.65933 0.05751 0.0
C308 C 0.30334 0.81763 0.09252 0.0
O309 O 0.29589 0.81078 0.09655 0.0
Cd310 Cd 0.29411 0.79106 0.09123 0.0
O311 O 0.31029 0.81435 0.08477 0.0
Cd312 Cd 0.31404 0.79702 0.07308 0.0
C313 C 0.32163 0.78167 0.09656 0.0
O314 O 0.2942 0.79102 0.0708 0.0
O315 O 0.3069 0.77906 0.06477 0.0
O316 O 0.31617 0.80966 0.05675 0.0
C317 C 0.29638 0.78155 0.06596 0.0
O318 O 0.31102 0.78154 0.09916 0.0
C319 C 0.32601 0.80604 0.05383 0.0
O320 O 0.32517 0.78711 0.08778 0.0
O321 O 0.33045 0.79825 0.06002 0.0
C322 C 0.68701 0.17709 0.09352 0.0
O323 O 0.69448 0.18405 0.09729 0.0
Cd324 Cd 0.6955 0.20374 0.09193 0.0
O325 O 0.67965 0.18032 0.08611 0.0
Cd326 Cd 0.67525 0.19786 0.07484 0.0
C327 C 0.66804 0.2124 0.09867 0.0
O328 O 0.69507 0.20369 0.07144 0.0
O329 O 0.68224 0.21627 0.06731 0.0
O330 O 0.67101 0.18419 0.05964 0.0
C331 C 0.69271 0.2134 0.06721 0.0
O332 O 0.67877 0.21304 0.10064 0.0
C333 C 0.66244 0.18964 0.05575 0.0
O334 O 0.66427 0.20673 0.09015 0.0
O335 O 0.65965 0.19881 0.06089 0.0
C336 C 0.89785 0.81447 0.68789 0.0
O337 O 0.89421 0.80759 0.69551 0.0
Cd338 Cd 0.90143 0.78859 0.69832 0.0
O339 O 0.90615 0.8117 0.68135 0.0
Cd340 Cd 0.9198 0.79573 0.67847 0.0
C341 C 0.89812 0.77792 0.67089 0.0
O342 O 0.9217 0.7911 0.69858 0.0
O343 O 0.93036 0.77955 0.68712 0.0
O344 O 0.9338 0.81078 0.67536 0.0
C345 C 0.92791 0.7823 0.69735 0.0
O346 O 0.8951 0.77795 0.68139 0.0
C347 C 0.93806 0.8064 0.66636 0.0
O348 O 0.90654 0.78395 0.66745 0.0
O349 O 0.93366 0.79708 0.66283 0.0
C350 C 0.17793 0.89647 0.68471 0.0
O351 O 0.18489 0.89208 0.69185 0.0
Cd352 Cd 0.20367 0.89945 0.69567 0.0
O353 O 0.1806 0.90542 0.67908 0.0
Cd354 Cd 0.1968 0.9189 0.67713 0.0
C355 C 0.21459 0.89762 0.66834 0.0
O356 O 0.20154 0.91975 0.69746 0.0
O357 O 0.21292 0.92888 0.6861 0.0
O358 O 0.18182 0.93312 0.67484 0.0
C359 C 0.21031 0.92606 0.69627 0.0
O360 O 0.21452 0.8941 0.67868 0.0
C361 C 0.18615 0.9378 0.66602 0.0
O362 O 0.20856 0.9062 0.66529 0.0
O363 O 0.19545 0.93357 0.66224 0.0
C364 C 0.09621 0.17701 0.6887 0.0
O365 O 0.10077 0.18429 0.69539 0.0
Cd366 Cd 0.09536 0.20392 0.69615 0.0
O367 O 0.08781 0.17982 0.6823 0.0
Cd368 Cd 0.07525 0.19669 0.67885 0.0
C369 C 0.09755 0.21112 0.66747 0.0
O370 O 0.07504 0.20341 0.69855 0.0
O371 O 0.06735 0.21482 0.68623 0.0
O372 O 0.05971 0.18295 0.67925 0.0
C373 C 0.06966 0.21263 0.69662 0.0
O374 O 0.1015 0.21159 0.67764 0.0
C375 C 0.05508 0.18623 0.66997 0.0
O376 O 0.08814 0.20604 0.6653 0.0
O377 O 0.05995 0.19439 0.66464 0.0
C378 C 0.81492 0.09403 0.68931 0.0
O379 O 0.80715 0.09791 0.69587 0.0
Cd380 Cd 0.78809 0.09044 0.69683 0.0
O381 O 0.81294 0.08551 0.68278 0.0
Cd382 Cd 0.79705 0.07217 0.67853 0.0
C383 C 0.77973 0.09321 0.66866 0.0
O384 O 0.79019 0.07014 0.69802 0.0
O385 O 0.77914 0.06297 0.68511 0.0
O386 O 0.81085 0.05665 0.67834 0.0
C387 C 0.78118 0.06458 0.69567 0.0
O388 O 0.77849 0.09611 0.67911 0.0
C389 C 0.80854 0.05325 0.66827 0.0
O390 O 0.7866 0.08519 0.66587 0.0
O391 O 0.80089 0.05877 0.66283 0.0
C392 C 0.89896 0.17717 0.30761 0.0
O393 O 0.89454 0.18441 0.30079 0.0
Cd394 Cd 0.90134 0.20361 0.29832 0.0
O395 O 0.90757 0.17984 0.31376 0.0
Cd396 Cd 0.91996 0.19673 0.31704 0.0
C397 C 0.89798 0.21322 0.32598 0.0
O398 O 0.92178 0.20262 0.29703 0.0
O399 O 0.92818 0.21455 0.30958 0.0
O400 O 0.9352 0.18274 0.31914 0.0
C401 C 0.92689 0.21198 0.29911 0.0
O402 O 0.89518 0.21389 0.31544 0.0
C403 C 0.93936 0.18705 0.32822 0.0
O404 O 0.90625 0.20684 0.32915 0.0
O405 O 0.93439 0.19587 0.33223 0.0
C406 C 0.81417 0.89916 0.30636 0.0
O407 O 0.80726 0.89524 0.29891 0.0
Cd408 Cd 0.7879 0.90184 0.29648 0.0
O409 O 0.81127 0.90744 0.31284 0.0
Cd410 Cd 0.7948 0.9204 0.31553 0.0
C411 C 0.77784 0.89853 0.32405 0.0
O412 O 0.78903 0.92221 0.29553 0.0
O413 O 0.77721 0.92905 0.30798 0.0
O414 O 0.8082 0.93618 0.31697 0.0
C415 C 0.77976 0.92751 0.29753 0.0
O416 O 0.77728 0.89567 0.31352 0.0
C417 C 0.80479 0.9396 0.32672 0.0
O418 O 0.78423 0.90677 0.32729 0.0
O419 O 0.79674 0.93396 0.33141 0.0
C420 C 0.09313 0.81444 0.30735 0.0
O421 O 0.09723 0.8074 0.30012 0.0
Cd422 Cd 0.09153 0.78779 0.29893 0.0
O423 O 0.08516 0.81138 0.31417 0.0
Cd424 Cd 0.07295 0.79442 0.31797 0.0
C425 C 0.09601 0.77954 0.32702 0.0
O426 O 0.07107 0.78843 0.2981 0.0
O427 O 0.06483 0.77638 0.31062 0.0
O428 O 0.05795 0.80863 0.31998 0.0
C429 C 0.06606 0.77902 0.30015 0.0
O430 O 0.09889 0.77892 0.3165 0.0
C431 C 0.05362 0.80439 0.32901 0.0
O432 O 0.08714 0.78513 0.33006 0.0
O433 O 0.05835 0.79545 0.33305 0.0
C434 C 0.17722 0.09671 0.30841 0.0
O435 O 0.18487 0.10115 0.30206 0.0
Cd436 Cd 0.20374 0.09374 0.29895 0.0
O437 O 0.17923 0.08759 0.31407 0.0
Cd438 Cd 0.19577 0.07461 0.31699 0.0
C439 C 0.21355 0.09557 0.32654 0.0
O440 O 0.20176 0.07347 0.29697 0.0
O441 O 0.21316 0.06574 0.30925 0.0
O442 O 0.18249 0.05857 0.31878 0.0
C443 C 0.21081 0.06777 0.29884 0.0
O444 O 0.21445 0.09877 0.31614 0.0
C445 C 0.18654 0.05504 0.32825 0.0
O446 O 0.20672 0.08753 0.32934 0.0
O447 O 0.19467 0.06082 0.3326 0.0
C448 C 0.68531 0.89683 0.81541 0.0
O449 O 0.69239 0.89293 0.80811 0.0
Cd450 Cd 0.69644 0.90089 0.78961 0.0
O451 O 0.67952 0.90585 0.81331 0.0
Cd452 Cd 0.6774 0.91979 0.79744 0.0
C453 C 0.66928 0.89924 0.77837 0.0
O454 O 0.69752 0.92106 0.79233 0.0
O455 O 0.68595 0.9299 0.78101 0.0
O456 O 0.67542 0.93529 0.81122 0.0
C457 C 0.69618 0.92722 0.78349 0.0
O458 O 0.67972 0.89606 0.77811 0.0
C459 C 0.66575 0.93868 0.80756 0.0
O460 O 0.666 0.90719 0.78511 0.0
O461 O 0.66135 0.93308 0.79932 0.0
C462 C 0.09419 0.686 0.81627 0.0
O463 O 0.09834 0.69321 0.80925 0.0
Cd464 Cd 0.09285 0.69449 0.78961 0.0
O465 O 0.0862 0.6792 0.81319 0.0
Cd466 Cd 0.07401 0.6756 0.79611 0.0
C467 C 0.09696 0.66638 0.78113 0.0
O468 O 0.0724 0.6955 0.79 0.0
O469 O 0.06615 0.68294 0.778 0.0
O470 O 0.0587 0.674 0.81005 0.0
C471 C 0.06749 0.69341 0.78055 0.0
O472 O 0.10005 0.67685 0.78078 0.0
C473 C 0.05438 0.66491 0.80593 0.0
O474 O 0.08797 0.66336 0.78654 0.0
O475 O 0.0593 0.66063 0.7972 0.0
C476 C 0.30641 0.09339 0.81513 0.0
O477 O 0.29893 0.09721 0.8082 0.0
Cd478 Cd 0.29698 0.09076 0.78878 0.0
O479 O 0.31314 0.08533 0.81216 0.0
Cd480 Cd 0.31654 0.07261 0.79558 0.0
C481 C 0.3246 0.09522 0.77937 0.0
O482 O 0.29656 0.07035 0.78998 0.0
O483 O 0.30891 0.06338 0.7782 0.0
O484 O 0.31946 0.05805 0.81014 0.0
C485 C 0.29847 0.06495 0.78077 0.0
O486 O 0.314 0.09777 0.77871 0.0
C487 C 0.32846 0.05387 0.80567 0.0
O488 O 0.32798 0.08685 0.78551 0.0
O489 O 0.33204 0.05852 0.79649 0.0
C490 C 0.89756 0.30464 0.81764 0.0
O491 O 0.8931 0.29763 0.81061 0.0
Cd492 Cd 0.89862 0.29559 0.79099 0.0
O493 O 0.90586 0.31105 0.8146 0.0
Cd494 Cd 0.91767 0.31452 0.79735 0.0
C495 C 0.8948 0.32348 0.78196 0.0
O496 O 0.91904 0.29491 0.79038 0.0
O497 O 0.92477 0.30814 0.77876 0.0
O498 O 0.93528 0.31428 0.80816 0.0
C499 C 0.92357 0.29753 0.78084 0.0
O500 O 0.89168 0.31301 0.78182 0.0
C501 C 0.93801 0.32462 0.80619 0.0
O502 O 0.90376 0.32662 0.78737 0.0
O503 O 0.93107 0.33054 0.80023 0.0
C504 C 0.68805 0.09261 0.17576 0.0
O505 O 0.69556 0.09612 0.18282 0.0
Cd506 Cd 0.69674 0.08995 0.20229 0.0
O507 O 0.68079 0.085 0.17869 0.0
Cd508 Cd 0.67645 0.0727 0.19549 0.0
C509 C 0.66911 0.09576 0.21128 0.0
O510 O 0.69615 0.06951 0.20151 0.0
O511 O 0.68329 0.06409 0.21354 0.0
O512 O 0.67351 0.05771 0.1814 0.0
C513 C 0.69382 0.06476 0.21098 0.0
O514 O 0.67981 0.09795 0.21176 0.0
C515 C 0.66419 0.05402 0.18563 0.0
O516 O 0.66538 0.08735 0.20541 0.0
O517 O 0.66042 0.05915 0.19446 0.0
C518 C 0.89863 0.68717 0.17811 0.0
O519 O 0.89506 0.69471 0.18513 0.0
Cd520 Cd 0.90178 0.69694 0.2043 0.0
O521 O 0.90689 0.68051 0.18074 0.0
Cd522 Cd 0.92077 0.6774 0.19662 0.0
C523 C 0.89879 0.66883 0.21355 0.0
O524 O 0.92199 0.69732 0.20193 0.0
O525 O 0.93113 0.68587 0.2131 0.0
O526 O 0.93494 0.67526 0.18155 0.0
C527 C 0.92821 0.69606 0.21072 0.0
O528 O 0.89547 0.67924 0.2136 0.0
C529 C 0.93939 0.66618 0.18558 0.0
O530 O 0.90763 0.66573 0.20795 0.0
O531 O 0.935 0.66215 0.1947 0.0
C532 C 0.30532 0.89901 0.1765 0.0
O533 O 0.29838 0.89464 0.18365 0.0
Cd534 Cd 0.29693 0.90019 0.20329 0.0
O535 O 0.31191 0.90722 0.17942 0.0
Cd536 Cd 0.31546 0.9194 0.19648 0.0
C537 C 0.32496 0.89685 0.21207 0.0
O538 O 0.29573 0.92058 0.20283 0.0
O539 O 0.30812 0.92752 0.2146 0.0
O540 O 0.31597 0.93574 0.18372 0.0
C541 C 0.29768 0.92566 0.21221 0.0
O542 O 0.31456 0.89356 0.21244 0.0
C543 C 0.32584 0.93921 0.18671 0.0
O544 O 0.32783 0.90576 0.20645 0.0
O545 O 0.33106 0.93333 0.19425 0.0
C546 C 0.094 0.30661 0.18022 0.0
O547 O 0.09701 0.29966 0.18804 0.0
Cd548 Cd 0.08833 0.29805 0.2065 0.0
O549 O 0.08567 0.31351 0.18182 0.0
Cd550 Cd 0.07188 0.31783 0.1975 0.0
C551 C 0.09306 0.32549 0.21574 0.0
O552 O 0.06829 0.298 0.20271 0.0
O553 O 0.06158 0.31043 0.21452 0.0
O554 O 0.05792 0.32154 0.18243 0.0
C555 C 0.06244 0.3 0.21161 0.0
O556 O 0.09475 0.31482 0.21734 0.0
C557 C 0.05387 0.33055 0.18702 0.0
O558 O 0.08588 0.32898 0.2083 0.0
O559 O 0.05847 0.33384 0.19631 0.0
C560 C 0.81438 0.68917 0.90007 0.0
O561 O 0.80724 0.69704 0.89774 0.0
Cd562 Cd 0.78817 0.69721 0.90531 0.0
O563 O 0.81209 0.6815 0.9075 0.0
Cd564 Cd 0.79698 0.67707 0.92172 0.0
C565 C 0.78007 0.66909 0.89987 0.0
O566 O 0.79049 0.69646 0.92556 0.0
O567 O 0.77913 0.68307 0.93124 0.0
O568 O 0.81235 0.67529 0.93555 0.0
C569 C 0.78138 0.6937 0.93077 0.0
O570 O 0.7788 0.67978 0.89793 0.0
C571 C 0.80908 0.66574 0.93961 0.0
O572 O 0.7868 0.66558 0.90772 0.0
O573 O 0.80018 0.66128 0.93518 0.0
C574 C 0.81543 0.30374 0.0944 0.0
O575 O 0.80818 0.29639 0.09785 0.0
Cd576 Cd 0.78888 0.29537 0.09094 0.0
O577 O 0.81281 0.31083 0.08653 0.0
Cd578 Cd 0.79645 0.3151 0.07374 0.0
C579 C 0.78008 0.32312 0.09609 0.0
O580 O 0.79016 0.29542 0.07048 0.0
O581 O 0.77846 0.3086 0.065 0.0
O582 O 0.81093 0.31788 0.0591 0.0
C583 C 0.78086 0.29802 0.06552 0.0
O584 O 0.77908 0.31247 0.0983 0.0
C585 C 0.80684 0.32722 0.05531 0.0
O586 O 0.78657 0.32655 0.08801 0.0
O587 O 0.79789 0.33104 0.0602 0.0
C588 C 0.6889 0.8159 0.09425 0.0
O589 O 0.69686 0.80942 0.09786 0.0
Cd590 Cd 0.69908 0.78973 0.09258 0.0
O591 O 0.6817 0.81229 0.08687 0.0
Cd592 Cd 0.67837 0.79468 0.07542 0.0
C593 C 0.6722 0.77954 0.09935 0.0
O594 O 0.6983 0.78923 0.07213 0.0
O595 O 0.68562 0.77653 0.06774 0.0
O596 O 0.67486 0.80691 0.05895 0.0
C597 C 0.69607 0.7795 0.06784 0.0
O598 O 0.68293 0.77962 0.10141 0.0
C599 C 0.66534 0.80239 0.05625 0.0
O600 O 0.66812 0.78489 0.09075 0.0
O601 O 0.66168 0.7944 0.0627 0.0
C602 C 0.18 0.6836 0.09543 0.0
O603 O 0.18775 0.69012 0.09943 0.0
Cd604 Cd 0.20609 0.69358 0.09079 0.0
O605 O 0.18163 0.67794 0.08624 0.0
Cd606 Cd 0.19739 0.67506 0.07239 0.0
C607 C 0.21606 0.66613 0.09277 0.0
O608 O 0.20259 0.69521 0.07073 0.0
O609 O 0.21402 0.68333 0.06246 0.0
O610 O 0.18242 0.67228 0.05811 0.0
C611 C 0.21139 0.69366 0.06457 0.0
O612 O 0.21749 0.67665 0.09532 0.0
C613 C 0.18699 0.66348 0.05361 0.0
O614 O 0.20853 0.66307 0.08549 0.0
O615 O 0.19628 0.65993 0.05804 0.0
C616 C 0.30671 0.17748 0.09407 0.0
O617 O 0.29962 0.18466 0.09817 0.0
Cd618 Cd 0.29706 0.20395 0.09181 0.0
O619 O 0.31328 0.18025 0.0858 0.0
Cd620 Cd 0.31674 0.19744 0.07378 0.0
C621 C 0.32428 0.21416 0.09636 0.0
O622 O 0.29672 0.20277 0.0714 0.0
O623 O 0.30891 0.215 0.06496 0.0
O624 O 0.31963 0.18459 0.05762 0.0
C625 C 0.29851 0.21212 0.0662 0.0
O626 O 0.31365 0.21451 0.09885 0.0
C627 C 0.3291 0.18895 0.0545 0.0
O628 O 0.32786 0.20801 0.08808 0.0
O629 O 0.333 0.19709 0.06058 0.0
C630 C 0.17737 0.30756 0.89688 0.0
O631 O 0.18441 0.30047 0.89254 0.0
Cd632 Cd 0.20337 0.29703 0.89973 0.0
O633 O 0.18002 0.31331 0.90576 0.0
Cd634 Cd 0.19623 0.31552 0.91914 0.0
C635 C 0.21355 0.32467 0.89771 0.0
O636 O 0.20191 0.29542 0.92009 0.0
O637 O 0.21341 0.30755 0.92798 0.0
O638 O 0.18172 0.31683 0.93393 0.0
C639 C 0.21104 0.29719 0.92571 0.0
O640 O 0.21394 0.31426 0.89442 0.0
C641 C 0.18569 0.32584 0.93855 0.0
O642 O 0.20723 0.32767 0.9061 0.0
O643 O 0.19458 0.33021 0.93401 0.0
C644 C 0.68561 0.17639 0.89764 0.0
O645 O 0.69186 0.1836 0.8924 0.0
Cd646 Cd 0.69455 0.20316 0.89789 0.0
O647 O 0.67998 0.1793 0.90652 0.0
Cd648 Cd 0.67701 0.19697 0.91793 0.0
C649 C 0.66684 0.213 0.89594 0.0
O650 O 0.69684 0.20343 0.91819 0.0
O651 O 0.68432 0.21547 0.92459 0.0
O652 O 0.67846 0.18704 0.93596 0.0
C653 C 0.69478 0.21297 0.92298 0.0
O654 O 0.67714 0.21312 0.89233 0.0
C655 C 0.66817 0.1886 0.93907 0.0
O656 O 0.6641 0.20723 0.9048 0.0
O657 O 0.66163 0.19389 0.93216 0.0
C658 C 0.30611 0.81587 0.89842 0.0
O659 O 0.29913 0.80848 0.89451 0.0
Cd660 Cd 0.29671 0.78936 0.9013 0.0
O661 O 0.31259 0.81348 0.9069 0.0
Cd662 Cd 0.31589 0.79696 0.91996 0.0
C663 C 0.32436 0.77948 0.89826 0.0
O664 O 0.29595 0.79146 0.92156 0.0
O665 O 0.30779 0.77976 0.92943 0.0
O666 O 0.31797 0.81036 0.93579 0.0
C667 C 0.29747 0.78237 0.92727 0.0
O668 O 0.31388 0.77909 0.8952 0.0
C669 C 0.32765 0.8066 0.93906 0.0
O670 O 0.32752 0.78574 0.90663 0.0
O671 O 0.332 0.79848 0.93326 0.0
C672 C 0.59361 0.67734 0.80417 0.0
O673 O 0.59698 0.68459 0.79677 0.0
Cd674 Cd 0.59014 0.7038 0.79498 0.0
O675 O 0.5857 0.67989 0.81127 0.0
Cd676 Cd 0.5729 0.69637 0.81544 0.0
C677 C 0.59546 0.71338 0.82242 0.0
O678 O 0.56982 0.70217 0.79576 0.0
O679 O 0.56338 0.71393 0.8084 0.0
O680 O 0.55731 0.68287 0.81815 0.0
C681 C 0.56454 0.7114 0.79789 0.0
O682 O 0.5977 0.71383 0.81174 0.0
C683 C 0.55441 0.68652 0.82798 0.0
O684 O 0.58725 0.70722 0.82617 0.0
O685 O 0.56035 0.69465 0.83216 0.0
C686 C 0.31603 0.5945 0.80416 0.0
O687 O 0.3084 0.59818 0.79732 0.0
Cd688 Cd 0.28937 0.5908 0.79572 0.0
O689 O 0.31392 0.58613 0.81086 0.0
Cd690 Cd 0.29758 0.57306 0.81486 0.0
C691 C 0.28002 0.59456 0.82339 0.0
O692 O 0.29147 0.57049 0.7951 0.0
O693 O 0.27994 0.56367 0.80776 0.0
O694 O 0.31112 0.55732 0.81692 0.0
C695 C 0.28236 0.565 0.79725 0.0
O696 O 0.27908 0.59713 0.81282 0.0
C697 C 0.30763 0.55423 0.82675 0.0
O698 O 0.28678 0.58662 0.82662 0.0
O699 O 0.2996 0.5601 0.83119 0.0
C700 C 0.39977 0.31468 0.80393 0.0
O701 O 0.39684 0.30822 0.79567 0.0
Cd702 Cd 0.40351 0.28886 0.79369 0.0
O703 O 0.40733 0.31147 0.81112 0.0
Cd704 Cd 0.42069 0.29536 0.81424 0.0
C705 C 0.39811 0.2786 0.82101 0.0
O706 O 0.42392 0.28966 0.79442 0.0
O707 O 0.4298 0.27782 0.80735 0.0
O708 O 0.4361 0.30903 0.8166 0.0
C709 C 0.42899 0.28034 0.7968 0.0
O710 O 0.39575 0.27857 0.81033 0.0
C711 C 0.43908 0.30563 0.8265 0.0
O712 O 0.40649 0.28443 0.82488 0.0
O713 O 0.43334 0.29746 0.83085 0.0
C714 C 0.6774 0.39832 0.80895 0.0
O715 O 0.6844 0.39357 0.8021 0.0
Cd716 Cd 0.70342 0.40028 0.79827 0.0
O717 O 0.68023 0.40726 0.81454 0.0
Cd718 Cd 0.69721 0.41977 0.81666 0.0
C719 C 0.71415 0.39784 0.82552 0.0
O720 O 0.70196 0.42065 0.79632 0.0
O721 O 0.71424 0.42829 0.8078 0.0
O722 O 0.68318 0.43495 0.81923 0.0
C723 C 0.71121 0.4262 0.79758 0.0
O724 O 0.71445 0.39462 0.8151 0.0
C725 C 0.68803 0.4394 0.8279 0.0
O726 O 0.70796 0.4063 0.82859 0.0
O727 O 0.69714 0.43461 0.83146 0.0
C728 C 0.59262 0.31881 0.18592 0.0
O729 O 0.59661 0.31247 0.19384 0.0
Cd730 Cd 0.59126 0.29297 0.19737 0.0
O731 O 0.58475 0.31518 0.17927 0.0
Cd732 Cd 0.5725 0.29805 0.17671 0.0
C733 C 0.59567 0.28146 0.1704 0.0
O734 O 0.57092 0.29355 0.19684 0.0
O735 O 0.56282 0.28145 0.18553 0.0
O736 O 0.55668 0.3111 0.17346 0.0
C737 C 0.56533 0.28433 0.1957 0.0
O738 O 0.59861 0.28232 0.18089 0.0
C739 C 0.55357 0.30667 0.16401 0.0
O740 O 0.5868 0.28657 0.16658 0.0
O741 O 0.55948 0.29831 0.1603 0.0
C742 C 0.68001 0.5956 0.18837 0.0
O743 O 0.68802 0.59953 0.19462 0.0
Cd744 Cd 0.7065 0.59105 0.19734 0.0
O745 O 0.68144 0.58652 0.18248 0.0
Cd746 Cd 0.69735 0.57301 0.17873 0.0
C747 C 0.71598 0.59363 0.16982 0.0
O748 O 0.7032 0.57093 0.19859 0.0
O749 O 0.7142 0.5627 0.18631 0.0
O750 O 0.68334 0.55768 0.1766 0.0
C751 C 0.7119 0.56473 0.19674 0.0
O752 O 0.71741 0.59616 0.18034 0.0
C753 C 0.68688 0.55444 0.16683 0.0
O754 O 0.70858 0.58619 0.1668 0.0
O755 O 0.69513 0.56005 0.16247 0.0
C756 C 0.40018 0.67882 0.1854 0.0
O757 O 0.39709 0.68502 0.19379 0.0
Cd758 Cd 0.40246 0.70471 0.19568 0.0
O759 O 0.4073 0.68256 0.17802 0.0
Cd760 Cd 0.41952 0.69975 0.17518 0.0
C761 C 0.39592 0.71492 0.16863 0.0
O762 O 0.42291 0.70536 0.19506 0.0
O763 O 0.42685 0.71809 0.18225 0.0
O764 O 0.43592 0.68732 0.1722 0.0
C765 C 0.42699 0.71516 0.19272 0.0
O766 O 0.39368 0.71468 0.17932 0.0
C767 C 0.43872 0.69152 0.16256 0.0
O768 O 0.40463 0.70971 0.16463 0.0
O769 O 0.4324 0.69947 0.15862 0.0
C770 C 0.31339 0.39803 0.18682 0.0
O771 O 0.30576 0.39405 0.19349 0.0
Cd772 Cd 0.2871 0.40229 0.19618 0.0
O773 O 0.31147 0.40696 0.18084 0.0
Cd774 Cd 0.29558 0.42051 0.17751 0.0
C775 C 0.27751 0.39958 0.16855 0.0
O776 O 0.28975 0.42257 0.19742 0.0
O777 O 0.27842 0.43015 0.18498 0.0
O778 O 0.30993 0.43553 0.17576 0.0
C779 C 0.28086 0.42848 0.19543 0.0
O780 O 0.27633 0.39692 0.17908 0.0
C781 C 0.30632 0.43926 0.16619 0.0
O782 O 0.28462 0.40728 0.16548 0.0
O783 O 0.29781 0.43408 0.16178 0.0
C784 C 0.80595 0.59535 0.67754 0.0
O785 O 0.7992 0.59948 0.68502 0.0
Cd786 Cd 0.79671 0.59226 0.70401 0.0
O787 O 0.81185 0.58641 0.67968 0.0
Cd788 Cd 0.8146 0.57273 0.69569 0.0
C789 C 0.82477 0.59373 0.71304 0.0
O790 O 0.79485 0.57202 0.70205 0.0
O791 O 0.80695 0.56334 0.71297 0.0
O792 O 0.81445 0.55647 0.68283 0.0
C793 C 0.79661 0.56599 0.7109 0.0
O794 O 0.81454 0.59752 0.71348 0.0
C795 C 0.82463 0.55329 0.68499 0.0
O796 O 0.82729 0.58499 0.707 0.0
O797 O 0.83034 0.55934 0.69201 0.0
C798 C 0.39901 0.80499 0.67946 0.0
O799 O 0.39605 0.79771 0.687 0.0
Cd800 Cd 0.40298 0.79706 0.70616 0.0
O801 O 0.40678 0.81239 0.68157 0.0
Cd802 Cd 0.42034 0.81703 0.69742 0.0
C803 C 0.39809 0.82522 0.71414 0.0
O804 O 0.42321 0.79764 0.70399 0.0
O805 O 0.43018 0.81054 0.71512 0.0
O806 O 0.43571 0.81865 0.68351 0.0
C807 C 0.42874 0.79998 0.71301 0.0
O808 O 0.39552 0.81463 0.71489 0.0
C809 C 0.4388 0.82866 0.68648 0.0
O810 O 0.40655 0.82856 0.70809 0.0
O811 O 0.43307 0.83344 0.69441 0.0
C812 C 0.18856 0.40074 0.67621 0.0
O813 O 0.19651 0.3971 0.6827 0.0
Cd814 Cd 0.19827 0.40261 0.7024 0.0
O815 O 0.18155 0.40833 0.67974 0.0
Cd816 Cd 0.17834 0.4206 0.69674 0.0
C817 C 0.1707 0.39714 0.71183 0.0
O818 O 0.19813 0.42308 0.70288 0.0
O819 O 0.1852 0.4283 0.71502 0.0
O820 O 0.17667 0.43688 0.684 0.0
C821 C 0.19574 0.42758 0.71248 0.0
O822 O 0.18131 0.39453 0.71184 0.0
C823 C 0.16682 0.43998 0.68741 0.0
O824 O 0.16712 0.40601 0.70657 0.0
O825 O 0.16215 0.43392 0.69517 0.0
C826 C 0.5958 0.18423 0.6779 0.0
O827 O 0.60038 0.19128 0.68481 0.0
Cd828 Cd 0.59388 0.1951 0.70386 0.0
O829 O 0.58692 0.17855 0.68076 0.0
Cd830 Cd 0.5742 0.17666 0.69764 0.0
C831 C 0.59622 0.16772 0.71446 0.0
O832 O 0.5735 0.19692 0.7026 0.0
O833 O 0.56562 0.18542 0.71471 0.0
O834 O 0.55827 0.17447 0.68432 0.0
C835 C 0.56793 0.19564 0.71184 0.0
O836 O 0.59977 0.17804 0.71441 0.0
C837 C 0.55459 0.16522 0.68872 0.0
O838 O 0.58741 0.16478 0.70872 0.0
O839 O 0.56016 0.16124 0.6972 0.0
C840 C 0.80745 0.40113 0.31677 0.0
O841 O 0.79957 0.39727 0.31033 0.0
Cd842 Cd 0.79736 0.40264 0.29073 0.0
O843 O 0.81438 0.40875 0.31314 0.0
Cd844 Cd 0.81747 0.42089 0.29597 0.0
C845 C 0.82475 0.39755 0.28046 0.0
O846 O 0.79738 0.42307 0.29112 0.0
O847 O 0.80921 0.42955 0.27855 0.0
O848 O 0.82028 0.43573 0.31017 0.0
C849 C 0.79889 0.42808 0.28161 0.0
O850 O 0.81417 0.39483 0.28087 0.0
C851 C 0.82924 0.43995 0.30567 0.0
O852 O 0.82846 0.40645 0.28558 0.0
O853 O 0.8329 0.4352 0.29657 0.0
C854 C 0.59583 0.80423 0.31497 0.0
O855 O 0.59961 0.79686 0.3079 0.0
Cd856 Cd 0.59334 0.79522 0.28844 0.0
O857 O 0.58762 0.81091 0.31225 0.0
Cd858 Cd 0.57403 0.81444 0.2963 0.0
C859 C 0.59623 0.8236 0.27993 0.0
O860 O 0.57305 0.79479 0.28989 0.0
O861 O 0.56383 0.80686 0.27941 0.0
O862 O 0.5595 0.81519 0.31108 0.0
C863 C 0.5669 0.79658 0.28114 0.0
O864 O 0.59962 0.81322 0.27977 0.0
C865 C 0.55511 0.82461 0.30786 0.0
O866 O 0.58725 0.82656 0.28542 0.0
O867 O 0.55972 0.82953 0.29929 0.0
C868 C 0.18583 0.5942 0.31502 0.0
O869 O 0.19348 0.5974 0.30796 0.0
Cd870 Cd 0.19667 0.58967 0.28929 0.0
O871 O 0.17917 0.58586 0.31265 0.0
Cd872 Cd 0.17634 0.57205 0.29668 0.0
C873 C 0.16951 0.59373 0.27842 0.0
O874 O 0.19637 0.56945 0.29183 0.0
O875 O 0.18445 0.56177 0.28006 0.0
O876 O 0.1733 0.55689 0.31065 0.0
C877 C 0.1948 0.56357 0.28285 0.0
O878 O 0.18013 0.59632 0.27835 0.0
C879 C 0.16368 0.5537 0.30666 0.0
O880 O 0.16576 0.5856 0.28467 0.0
O881 O 0.15979 0.55929 0.29815 0.0
C882 C 0.39891 0.18542 0.31705 0.0
O883 O 0.39475 0.19244 0.30984 0.0
Cd884 Cd 0.40082 0.19463 0.29045 0.0
O885 O 0.4072 0.17886 0.31428 0.0
Cd886 Cd 0.41933 0.17552 0.29708 0.0
C887 C 0.39689 0.16699 0.28084 0.0
O888 O 0.42121 0.19548 0.29128 0.0
O889 O 0.42723 0.18304 0.27905 0.0
O890 O 0.43576 0.17362 0.30976 0.0
C891 C 0.42611 0.19349 0.2818 0.0
O892 O 0.39407 0.17753 0.28045 0.0
C893 C 0.43912 0.16411 0.30569 0.0
O894 O 0.40539 0.16371 0.28684 0.0
O895 O 0.43306 0.15972 0.29778 0.0
C896 C 0.67996 0.80567 0.59569 0.0
O897 O 0.68769 0.79916 0.59974 0.0
Cd898 Cd 0.70624 0.79636 0.59117 0.0
O899 O 0.68166 0.81126 0.58648 0.0
Cd900 Cd 0.69698 0.81403 0.57227 0.0
C901 C 0.71557 0.82421 0.59211 0.0
O902 O 0.70349 0.79423 0.57099 0.0
O903 O 0.71419 0.80682 0.5627 0.0
O904 O 0.68283 0.81431 0.55701 0.0
C905 C 0.71224 0.79635 0.56491 0.0
O906 O 0.71693 0.81386 0.59531 0.0
C907 C 0.68537 0.82428 0.55344 0.0
O908 O 0.7082 0.82681 0.58449 0.0
O909 O 0.69329 0.82955 0.55873 0.0
C910 C 0.67804 0.18611 0.39818 0.0
O911 O 0.68512 0.19354 0.39455 0.0
Cd912 Cd 0.70424 0.19556 0.40163 0.0
O913 O 0.68079 0.1793 0.40625 0.0
Cd914 Cd 0.69716 0.17564 0.41919 0.0
C915 C 0.71426 0.16806 0.39718 0.0
O916 O 0.7026 0.19557 0.42198 0.0
O917 O 0.71454 0.18314 0.42853 0.0
O918 O 0.68235 0.17344 0.43347 0.0
C919 C 0.71186 0.1936 0.42728 0.0
O920 O 0.71464 0.17873 0.39487 0.0
C921 C 0.68627 0.16427 0.4378 0.0
O922 O 0.70791 0.16431 0.40523 0.0
O923 O 0.69531 0.16016 0.43331 0.0
C924 C 0.80643 0.6773 0.40012 0.0
O925 O 0.79819 0.6838 0.39728 0.0
Cd926 Cd 0.79706 0.70335 0.4033 0.0
O927 O 0.81403 0.68056 0.40725 0.0
Cd928 Cd 0.81762 0.69699 0.42029 0.0
C929 C 0.82459 0.71288 0.39729 0.0
O930 O 0.79779 0.70246 0.42365 0.0
O931 O 0.81041 0.71468 0.4293 0.0
O932 O 0.82061 0.68241 0.43474 0.0
C933 C 0.79993 0.71188 0.4286 0.0
O934 O 0.81388 0.71306 0.39509 0.0
C935 C 0.82985 0.68661 0.43865 0.0
O936 O 0.82845 0.7072 0.40577 0.0
O937 O 0.83357 0.69567 0.43387 0.0
C938 C 0.31193 0.80491 0.39599 0.0
O939 O 0.30409 0.79798 0.39297 0.0
Cd940 Cd 0.28613 0.79559 0.40253 0.0
O941 O 0.31076 0.81109 0.40492 0.0
Cd942 Cd 0.29633 0.81394 0.42026 0.0
C943 C 0.27662 0.82349 0.40126 0.0
O944 O 0.29051 0.79402 0.42238 0.0
O945 O 0.27994 0.80627 0.43121 0.0
O946 O 0.31198 0.81489 0.43396 0.0
C947 C 0.2821 0.79586 0.42899 0.0
O948 O 0.2754 0.81304 0.39835 0.0
C949 C 0.30887 0.8243 0.43847 0.0
O950 O 0.28418 0.82641 0.40858 0.0
O951 O 0.30005 0.8291 0.43426 0.0
C952 C 0.18708 0.31464 0.39961 0.0
O953 O 0.195 0.30774 0.39676 0.0
Cd954 Cd 0.19654 0.28863 0.40364 0.0
O955 O 0.17973 0.31184 0.4072 0.0
Cd956 Cd 0.17599 0.29555 0.42049 0.0
C957 C 0.16896 0.27936 0.39768 0.0
O958 O 0.19581 0.29013 0.42403 0.0
O959 O 0.18314 0.27775 0.4292 0.0
O960 O 0.17281 0.31023 0.43488 0.0
C961 C 0.1936 0.28067 0.42886 0.0
O962 O 0.17966 0.27915 0.39545 0.0
C963 C 0.16371 0.30584 0.43892 0.0
O964 O 0.16509 0.28503 0.40617 0.0
O965 O 0.16016 0.29666 0.43426 0.0
C966 C 0.31121 0.18749 0.5969 0.0
O967 O 0.30369 0.19447 0.60056 0.0
Cd968 Cd 0.28489 0.19642 0.59287 0.0
O969 O 0.30922 0.18122 0.58817 0.0
Cd970 Cd 0.29383 0.17823 0.57378 0.0
C971 C 0.27655 0.16806 0.59478 0.0
O972 O 0.2881 0.19814 0.57278 0.0
O973 O 0.27726 0.18652 0.56344 0.0
O974 O 0.30944 0.17699 0.5601 0.0
C975 C 0.27951 0.19676 0.56631 0.0
O976 O 0.27579 0.17836 0.59833 0.0
C977 C 0.30578 0.16803 0.55514 0.0
O978 O 0.28274 0.16552 0.58615 0.0
O979 O 0.29658 0.16366 0.55899 0.0
C980 C 0.80663 0.31674 0.59401 0.0
O981 O 0.79983 0.30946 0.59839 0.0
Cd982 Cd 0.79677 0.29051 0.59113 0.0
O983 O 0.81239 0.31432 0.58506 0.0
Cd984 Cd 0.81494 0.29798 0.57185 0.0
C985 C 0.82447 0.28068 0.59314 0.0
O986 O 0.795 0.29206 0.5708 0.0
O987 O 0.80715 0.28042 0.56319 0.0
O988 O 0.81562 0.31137 0.55598 0.0
C989 C 0.79678 0.28287 0.56529 0.0
O990 O 0.81408 0.28014 0.59644 0.0
C991 C 0.82543 0.3083 0.55241 0.0
O992 O 0.82735 0.28707 0.58476 0.0
O993 O 0.83048 0.30043 0.558 0.0
C994 C 0.1882 0.68222 0.59545 0.0
O995 O 0.19542 0.68971 0.59869 0.0
Cd996 Cd 0.19771 0.70818 0.58999 0.0
O997 O 0.18162 0.68413 0.58695 0.0
Cd998 Cd 0.17775 0.69951 0.57291 0.0
C999 C 0.17016 0.71783 0.59415 0.0
O1000 O 0.1976 0.70517 0.56971 0.0
O1001 O 0.18483 0.71618 0.56221 0.0
O1002 O 0.17487 0.68404 0.55927 0.0
C1003 C 0.19536 0.7139 0.56365 0.0
O1004 O 0.18082 0.71871 0.59635 0.0
C1005 C 0.16562 0.68799 0.55511 0.0
O1006 O 0.16659 0.71094 0.58645 0.0
O1007 O 0.16184 0.69726 0.5594 0.0
C1008 C 0.39953 0.31648 0.18847 0.0
O1009 O 0.39576 0.30973 0.19614 0.0
Cd1010 Cd 0.40131 0.29009 0.19781 0.0
O1011 O 0.40728 0.31322 0.18149 0.0
Cd1012 Cd 0.41958 0.29618 0.1782 0.0
C1013 C 0.39647 0.2807 0.17015 0.0
O1014 O 0.4218 0.29028 0.19807 0.0
O1015 O 0.42753 0.2781 0.18543 0.0
O1016 O 0.43594 0.30885 0.17591 0.0
C1017 C 0.42654 0.28075 0.19592 0.0
O1018 O 0.39354 0.28063 0.18068 0.0
C1019 C 0.43884 0.30505 0.16613 0.0
O1020 O 0.40537 0.28607 0.16684 0.0
O1021 O 0.43265 0.29717 0.16187 0.0
C1022 C 0.67777 0.3984 0.18465 0.0
O1023 O 0.68459 0.39385 0.1918 0.0
Cd1024 Cd 0.70377 0.40018 0.19527 0.0
O1025 O 0.68077 0.40712 0.17881 0.0
Cd1026 Cd 0.69767 0.41973 0.17662 0.0
C1027 C 0.71404 0.39741 0.16774 0.0
O1028 O 0.70297 0.42061 0.19675 0.0
O1029 O 0.71512 0.42793 0.18489 0.0
O1030 O 0.68465 0.43587 0.17542 0.0
C1031 C 0.71232 0.42593 0.1952 0.0
O1032 O 0.71391 0.39396 0.1781 0.0
C1033 C 0.68827 0.43947 0.16581 0.0
O1034 O 0.70852 0.40633 0.1647 0.0
O1035 O 0.69627 0.43377 0.1611 0.0
C1036 C 0.59016 0.67538 0.18654 0.0
O1037 O 0.59257 0.68141 0.19526 0.0
Cd1038 Cd 0.58862 0.70145 0.19595 0.0
O1039 O 0.58427 0.67949 0.17832 0.0
Cd1040 Cd 0.57295 0.69718 0.17471 0.0
C1041 C 0.59745 0.71085 0.16913 0.0
O1042 O 0.56836 0.70344 0.19414 0.0
O1043 O 0.56745 0.71644 0.18104 0.0
O1044 O 0.55614 0.68546 0.17144 0.0
C1045 C 0.5657 0.71359 0.19138 0.0
O1046 O 0.59902 0.71061 0.17995 0.0
C1047 C 0.55368 0.68969 0.16172 0.0
O1048 O 0.58875 0.70603 0.16465 0.0
O1049 O 0.56038 0.69736 0.15785 0.0
C1050 C 0.31356 0.59652 0.18777 0.0
O1051 O 0.30598 0.60025 0.19465 0.0
Cd1052 Cd 0.28754 0.59169 0.19794 0.0
O1053 O 0.31179 0.5875 0.18188 0.0
Cd1054 Cd 0.29627 0.57337 0.17921 0.0
C1055 C 0.27736 0.5937 0.17049 0.0
O1056 O 0.29074 0.57155 0.19928 0.0
O1057 O 0.27967 0.56317 0.18711 0.0
O1058 O 0.31061 0.55834 0.17677 0.0
C1059 C 0.28203 0.56531 0.1975 0.0
O1060 O 0.27623 0.59649 0.18099 0.0
C1061 C 0.30663 0.55478 0.16728 0.0
O1062 O 0.28466 0.58619 0.16743 0.0
O1063 O 0.29801 0.56008 0.16325 0.0
C1064 C 0.39995 0.67905 0.80552 0.0
O1065 O 0.39612 0.68673 0.79881 0.0
Cd1066 Cd 0.40258 0.70608 0.79786 0.0
O1067 O 0.40817 0.68124 0.81239 0.0
Cd1068 Cd 0.42089 0.6978 0.81699 0.0
C1069 C 0.39844 0.71399 0.826 0.0
O1070 O 0.42292 0.70439 0.79743 0.0
O1071 O 0.43025 0.71559 0.81007 0.0
O1072 O 0.43671 0.68433 0.81905 0.0
C1073 C 0.42845 0.71346 0.79957 0.0
O1074 O 0.39556 0.71492 0.8155 0.0
C1075 C 0.4398 0.6879 0.82886 0.0
O1076 O 0.40701 0.70791 0.82894 0.0
O1077 O 0.43392 0.69593 0.83326 0.0
C1078 C 0.31329 0.39817 0.80658 0.0
O1079 O 0.30542 0.3949 0.7998 0.0
Cd1080 Cd 0.2869 0.40346 0.79813 0.0
O1081 O 0.31176 0.40677 0.81315 0.0
Cd1082 Cd 0.29623 0.42068 0.81719 0.0
C1083 C 0.27831 0.39963 0.82595 0.0
O1084 O 0.29015 0.42365 0.79753 0.0
O1085 O 0.27862 0.43024 0.81031 0.0
O1086 O 0.31042 0.43585 0.81935 0.0
C1087 C 0.28116 0.42928 0.7998 0.0
O1088 O 0.27661 0.39746 0.81538 0.0
C1089 C 0.30679 0.43927 0.82903 0.0
O1090 O 0.28565 0.4071 0.82902 0.0
O1091 O 0.29844 0.43379 0.83336 0.0
C1092 C 0.5926 0.31868 0.80695 0.0
O1093 O 0.59712 0.31185 0.79978 0.0
Cd1094 Cd 0.59179 0.29217 0.79775 0.0
O1095 O 0.58438 0.31539 0.81335 0.0
Cd1096 Cd 0.57233 0.29813 0.81616 0.0
C1097 C 0.59491 0.28249 0.82549 0.0
O1098 O 0.57139 0.29241 0.79617 0.0
O1099 O 0.56437 0.28025 0.80813 0.0
O1100 O 0.55576 0.31061 0.81745 0.0
C1101 C 0.56633 0.28295 0.79779 0.0
O1102 O 0.59843 0.28248 0.81515 0.0
C1103 C 0.55259 0.30718 0.82728 0.0
O1104 O 0.58587 0.28791 0.82831 0.0
O1105 O 0.55868 0.2995 0.83202 0.0
C1106 C 0.68016 0.59565 0.80752 0.0
O1107 O 0.68776 0.59935 0.80064 0.0
Cd1108 Cd 0.70652 0.59147 0.79795 0.0
O1109 O 0.68216 0.58705 0.81395 0.0
Cd1110 Cd 0.69815 0.57354 0.81755 0.0
C1111 C 0.71675 0.59447 0.82537 0.0
O1112 O 0.70307 0.57146 0.7975 0.0
O1113 O 0.71448 0.56286 0.8091 0.0
O1114 O 0.6831 0.55948 0.82073 0.0
C1115 C 0.71179 0.56518 0.79883 0.0
O1116 O 0.71778 0.59679 0.81475 0.0
C1117 C 0.68764 0.55507 0.82958 0.0
O1118 O 0.70951 0.58709 0.82887 0.0
O1119 O 0.69696 0.55951 0.83307 0.0
C1120 C 0.18664 0.39908 0.31355 0.0
O1121 O 0.19391 0.39601 0.30605 0.0
Cd1122 Cd 0.19631 0.40445 0.28754 0.0
O1123 O 0.17993 0.40749 0.31166 0.0
Cd1124 Cd 0.17646 0.42136 0.29593 0.0
C1125 C 0.16902 0.40016 0.27753 0.0
O1126 O 0.19629 0.42461 0.29058 0.0
O1127 O 0.18389 0.43127 0.27871 0.0
O1128 O 0.17375 0.43647 0.31002 0.0
C1129 C 0.19434 0.43023 0.28152 0.0
O1130 O 0.1797 0.39814 0.27646 0.0
C1131 C 0.16401 0.43963 0.30631 0.0
O1132 O 0.16542 0.40761 0.28465 0.0
O1133 O 0.15991 0.43406 0.2979 0.0
C1134 C 0.59535 0.18737 0.31541 0.0
O1135 O 0.59974 0.19446 0.30839 0.0
Cd1136 Cd 0.59426 0.19725 0.28886 0.0
O1137 O 0.58706 0.18091 0.31242 0.0
Cd1138 Cd 0.57494 0.17767 0.29524 0.0
C1139 C 0.59779 0.16967 0.27886 0.0
O1140 O 0.57395 0.1977 0.29012 0.0
O1141 O 0.56539 0.18635 0.2784 0.0
O1142 O 0.55902 0.17484 0.3084 0.0
C1143 C 0.56815 0.19651 0.28105 0.0
O1144 O 0.60097 0.18012 0.27891 0.0
C1145 C 0.55566 0.1655 0.30393 0.0
O1146 O 0.58896 0.16646 0.28442 0.0
O1147 O 0.56148 0.16167 0.29556 0.0
C1148 C 0.80713 0.59546 0.3128 0.0
O1149 O 0.80035 0.59894 0.30501 0.0
Cd1150 Cd 0.79758 0.59025 0.28667 0.0
O1151 O 0.81345 0.58669 0.31122 0.0
Cd1152 Cd 0.81726 0.57276 0.29559 0.0
C1153 C 0.825 0.5935 0.2766 0.0
O1154 O 0.79724 0.57024 0.29065 0.0
O1155 O 0.80907 0.56151 0.27958 0.0
O1156 O 0.82086 0.55899 0.31085 0.0
C1157 C 0.79875 0.5637 0.28214 0.0
O1158 O 0.8144 0.59592 0.27569 0.0
C1159 C 0.82986 0.55483 0.30635 0.0
O1160 O 0.82842 0.58595 0.28371 0.0
O1161 O 0.83317 0.55926 0.29697 0.0
C1162 C 0.39908 0.80574 0.31111 0.0
O1163 O 0.39675 0.79834 0.30347 0.0
Cd1164 Cd 0.40575 0.79743 0.28519 0.0
O1165 O 0.40715 0.81295 0.30959 0.0
Cd1166 Cd 0.42197 0.81729 0.2949 0.0
C1167 C 0.40109 0.82549 0.27677 0.0
O1168 O 0.42587 0.79778 0.28879 0.0
O1169 O 0.43226 0.81089 0.27754 0.0
O1170 O 0.43545 0.81907 0.31059 0.0
C1171 C 0.43157 0.80031 0.27992 0.0
O1172 O 0.399 0.81482 0.27561 0.0
C1173 C 0.43978 0.82849 0.3073 0.0
O1174 O 0.40878 0.82897 0.28368 0.0
O1175 O 0.43559 0.83295 0.29829 0.0
C1176 C 0.18807 0.59461 0.67759 0.0
O1177 O 0.19584 0.59769 0.68458 0.0
Cd1178 Cd 0.19771 0.59038 0.70365 0.0
O1179 O 0.18106 0.58666 0.68019 0.0
Cd1180 Cd 0.17786 0.57296 0.69616 0.0
C1181 C 0.17022 0.59463 0.71378 0.0
O1182 O 0.19767 0.57004 0.7019 0.0
O1183 O 0.18504 0.56367 0.71372 0.0
O1184 O 0.17595 0.55737 0.68254 0.0
C1185 C 0.19554 0.56473 0.71113 0.0
O1186 O 0.18084 0.59718 0.71414 0.0
C1187 C 0.16608 0.55421 0.68586 0.0
O1188 O 0.16665 0.5865 0.70742 0.0
O1189 O 0.16149 0.55999 0.69387 0.0
C1190 C 0.39858 0.18649 0.68014 0.0
O1191 O 0.39577 0.19368 0.68782 0.0
Cd1192 Cd 0.40471 0.19615 0.70613 0.0
O1193 O 0.40696 0.17966 0.6817 0.0
Cd1194 Cd 0.42089 0.17581 0.69718 0.0
C1195 C 0.40001 0.16899 0.7161 0.0
O1196 O 0.42476 0.19558 0.70262 0.0
O1197 O 0.43114 0.18277 0.71423 0.0
O1198 O 0.43561 0.1722 0.68282 0.0
C1199 C 0.43043 0.19328 0.71158 0.0
O1200 O 0.39859 0.17971 0.7176 0.0
C1201 C 0.43878 0.16268 0.68706 0.0
O1202 O 0.40682 0.1652 0.70846 0.0
O1203 O 0.43331 0.1591 0.69577 0.0
C1204 C 0.8071 0.40023 0.67627 0.0
O1205 O 0.79931 0.39616 0.68271 0.0
Cd1206 Cd 0.79654 0.40146 0.70229 0.0
O1207 O 0.81389 0.40797 0.67992 0.0
Cd1208 Cd 0.81669 0.41962 0.69749 0.0
C1209 C 0.82365 0.39618 0.71293 0.0
O1210 O 0.79632 0.4219 0.70171 0.0
O1211 O 0.80789 0.42802 0.71468 0.0
O1212 O 0.82206 0.43437 0.68367 0.0
C1213 C 0.79765 0.42684 0.71128 0.0
O1214 O 0.81303 0.39364 0.71277 0.0
C1215 C 0.82986 0.43867 0.68992 0.0
O1216 O 0.82739 0.40488 0.70751 0.0
O1217 O 0.83164 0.43401 0.69958 0.0
C1218 C 0.59357 0.80803 0.67734 0.0
O1219 O 0.59747 0.80036 0.684 0.0
Cd1220 Cd 0.59218 0.79885 0.70369 0.0
O1221 O 0.58569 0.81484 0.68063 0.0
Cd1222 Cd 0.57306 0.81757 0.69753 0.0
C1223 C 0.59596 0.82688 0.71253 0.0
O1224 O 0.57175 0.79767 0.70347 0.0
O1225 O 0.56511 0.80992 0.71558 0.0
O1226 O 0.55683 0.81874 0.68458 0.0
C1227 C 0.56676 0.7995 0.71294 0.0
O1228 O 0.59937 0.8165 0.71258 0.0
C1229 C 0.55333 0.82842 0.68811 0.0
O1230 O 0.58674 0.82973 0.70744 0.0
O1231 O 0.55912 0.83318 0.69602 0.0
C1232 C 0.31552 0.18679 0.39884 0.0
O1233 O 0.30811 0.1932 0.39405 0.0
Cd1234 Cd 0.28845 0.19501 0.39978 0.0
O1235 O 0.31295 0.18087 0.40765 0.0
Cd1236 Cd 0.2967 0.17742 0.42084 0.0
C1237 C 0.28056 0.16639 0.39914 0.0
O1238 O 0.29006 0.19693 0.41996 0.0
O1239 O 0.28032 0.18605 0.43126 0.0
O1240 O 0.31168 0.17703 0.43521 0.0
C1241 C 0.28166 0.19582 0.42673 0.0
O1242 O 0.2801 0.17647 0.39495 0.0
C1243 C 0.30822 0.16794 0.4401 0.0
O1244 O 0.28615 0.16431 0.40829 0.0
O1245 O 0.2994 0.16312 0.43589 0.0
C1246 C 0.31284 0.80512 0.59369 0.0
O1247 O 0.30516 0.79784 0.59624 0.0
Cd1248 Cd 0.28652 0.79744 0.58794 0.0
O1249 O 0.31117 0.81245 0.58575 0.0
Cd1250 Cd 0.29619 0.81709 0.5713 0.0
C1251 C 0.27863 0.82565 0.59258 0.0
O1252 O 0.28986 0.7976 0.56782 0.0
O1253 O 0.27896 0.81064 0.56072 0.0
O1254 O 0.31185 0.81878 0.55781 0.0
C1255 C 0.28111 0.80005 0.56189 0.0
O1256 O 0.27742 0.81503 0.59484 0.0
C1257 C 0.3086 0.82823 0.55349 0.0
O1258 O 0.28536 0.82894 0.58464 0.0
O1259 O 0.29962 0.83273 0.55769 0.0
C1260 C 0.18348 0.31468 0.59468 0.0
O1261 O 0.19059 0.30734 0.59844 0.0
Cd1262 Cd 0.19472 0.28916 0.58977 0.0
O1263 O 0.1776 0.31271 0.58569 0.0
Cd1264 Cd 0.17509 0.29706 0.5716 0.0
C1265 C 0.16778 0.27747 0.59192 0.0
O1266 O 0.19537 0.29274 0.56971 0.0
O1267 O 0.18406 0.2814 0.56062 0.0
O1268 O 0.17175 0.31226 0.55773 0.0
C1269 C 0.19425 0.28414 0.5632 0.0
O1270 O 0.17836 0.27719 0.5946 0.0
C1271 C 0.16288 0.30772 0.55334 0.0
O1272 O 0.16408 0.2845 0.58441 0.0
O1273 O 0.15951 0.29831 0.55766 0.0
C1274 C 0.6778 0.18326 0.59502 0.0
O1275 O 0.68457 0.19049 0.59951 0.0
Cd1276 Cd 0.70413 0.1925 0.59381 0.0
O1277 O 0.68099 0.17714 0.58655 0.0
Cd1278 Cd 0.69769 0.17514 0.57358 0.0
C1279 C 0.71338 0.16434 0.59526 0.0
O1280 O 0.70339 0.1952 0.57352 0.0
O1281 O 0.7153 0.18349 0.56561 0.0
O1282 O 0.68353 0.17505 0.55842 0.0
C1283 C 0.71266 0.19374 0.56805 0.0
O1284 O 0.71337 0.17446 0.59936 0.0
C1285 C 0.68717 0.16603 0.55356 0.0
O1286 O 0.70804 0.162 0.58604 0.0
O1287 O 0.69578 0.16111 0.55808 0.0
C1288 C 0.80816 0.67836 0.59238 0.0
O1289 O 0.80065 0.68545 0.59585 0.0
Cd1290 Cd 0.79886 0.70463 0.58906 0.0
O1291 O 0.81512 0.68109 0.58442 0.0
Cd1292 Cd 0.81893 0.69759 0.57155 0.0
C1293 C 0.82649 0.71372 0.59441 0.0
O1294 O 0.79905 0.70306 0.56868 0.0
O1295 O 0.81145 0.71505 0.56223 0.0
O1296 O 0.82207 0.68294 0.55716 0.0
C1297 C 0.801 0.71233 0.5634 0.0
O1298 O 0.81583 0.7142 0.59676 0.0
C1299 C 0.83115 0.68734 0.5531 0.0
O1300 O 0.83009 0.70786 0.58593 0.0
O1301 O 0.8347 0.69653 0.55775 0.0
C1302 C 0.6812 0.80671 0.39798 0.0
O1303 O 0.68918 0.80048 0.39396 0.0
Cd1304 Cd 0.70755 0.79773 0.4029 0.0
O1305 O 0.68261 0.81231 0.40724 0.0
Cd1306 Cd 0.69794 0.81565 0.42134 0.0
C1307 C 0.71663 0.82555 0.40147 0.0
O1308 O 0.70424 0.7959 0.42298 0.0
O1309 O 0.71523 0.80839 0.43102 0.0
O1310 O 0.68355 0.81586 0.4363 0.0
C1311 C 0.71302 0.79793 0.42905 0.0
O1312 O 0.71839 0.81511 0.39881 0.0
C1313 C 0.68603 0.82576 0.44007 0.0
O1314 O 0.70888 0.82833 0.40865 0.0
O1315 O 0.69405 0.83112 0.43499 0.0
C1316 C 0.18582 0.67948 0.39978 0.0
O1317 O 0.19351 0.68659 0.39678 0.0
Cd1318 Cd 0.19675 0.70492 0.40526 0.0
O1319 O 0.17927 0.68159 0.40827 0.0
Cd1320 Cd 0.1766 0.69685 0.42289 0.0
C1321 C 0.16938 0.71574 0.40199 0.0
O1322 O 0.19668 0.70159 0.42536 0.0
O1323 O 0.18489 0.71298 0.43375 0.0
O1324 O 0.17381 0.68142 0.43658 0.0
C1325 C 0.19521 0.71032 0.43162 0.0
O1326 O 0.17997 0.71586 0.3993 0.0
C1327 C 0.16473 0.68552 0.44097 0.0
O1328 O 0.16568 0.70928 0.40999 0.0
O1329 O 0.16096 0.69481 0.43672 0.0
C1330 C 0.80634 0.31679 0.3969 0.0
O1331 O 0.79964 0.30967 0.39211 0.0
Cd1332 Cd 0.79701 0.2903 0.39841 0.0
O1333 O 0.81207 0.31397 0.40574 0.0
Cd1334 Cd 0.81475 0.29719 0.41829 0.0
C1335 C 0.82494 0.28112 0.39637 0.0
O1336 O 0.79491 0.29072 0.41884 0.0
O1337 O 0.80743 0.27928 0.42623 0.0
O1338 O 0.81491 0.30992 0.43468 0.0
C1339 C 0.79699 0.28146 0.42414 0.0
O1340 O 0.81469 0.28076 0.39262 0.0
C1341 C 0.82486 0.30714 0.4381 0.0
O1342 O 0.82747 0.28686 0.40531 0.0
O1343 O 0.8302 0.29967 0.43224 0.0
H1344 H 0.11445 0.22833 0.31726 0.0
H1345 H 0.12643 0.23903 0.33065 0.0
H1346 H 0.10517 0.22791 0.35878 0.0
H1347 H 0.09303 0.21722 0.34543 0.0
H1348 H 0.11031 0.25097 0.35982 0.0
H1349 H 0.13067 0.21543 0.35454 0.0
H1350 H 0.13978 0.20007 0.34322 0.0
H1351 H 0.16319 0.22445 0.32863 0.0
H1352 H 0.15412 0.23998 0.33975 0.0
H1353 H 0.14836 0.26993 0.40353 0.0
H1354 H 0.13552 0.25877 0.39127 0.0
H1355 H 0.1585 0.26377 0.36267 0.0
H1356 H 0.17164 0.27433 0.37508 0.0
H1357 H 0.15202 0.24311 0.36246 0.0
H1358 H 0.13167 0.27881 0.36656 0.0
H1359 H 0.12252 0.29469 0.3771 0.0
H1360 H 0.09916 0.27102 0.39289 0.0
H1361 H 0.10827 0.25497 0.38255 0.0
C1362 C 0.1123 0.22814 0.32629 0.0
C1363 C 0.1028 0.22186 0.33027 0.0
C1364 C 0.11919 0.23424 0.33393 0.0
C1365 C 0.11675 0.23415 0.34571 0.0
C1366 C 0.1072 0.22806 0.34972 0.0
C1367 C 0.1003 0.22192 0.34207 0.0
C1368 C 0.12422 0.24043 0.35383 0.0
C1369 C 0.11941 0.24918 0.36053 0.0
C1370 C 0.13612 0.23824 0.35453 0.0
C1371 C 0.14165 0.22888 0.34791 0.0
C1372 C 0.13771 0.21753 0.34886 0.0
C1373 C 0.14287 0.20879 0.34249 0.0
C1374 C 0.15204 0.21129 0.33519 0.0
C1375 C 0.15608 0.22253 0.33427 0.0
C1376 C 0.15094 0.2313 0.34062 0.0
C1377 C 0.15063 0.26866 0.39461 0.0
C1378 C 0.16098 0.27298 0.39024 0.0
C1379 C 0.14326 0.26234 0.38759 0.0
C1380 C 0.14593 0.26057 0.37597 0.0
C1381 C 0.15625 0.26498 0.3716 0.0
C1382 C 0.16374 0.27104 0.37869 0.0
C1383 C 0.13818 0.25386 0.36838 0.0
C1384 C 0.14293 0.24497 0.36179 0.0
C1385 C 0.12624 0.25603 0.36769 0.0
C1386 C 0.12073 0.26568 0.37387 0.0
C1387 C 0.12463 0.27698 0.37234 0.0
C1388 C 0.11944 0.28602 0.37827 0.0
C1389 C 0.11028 0.28386 0.38568 0.0
C1390 C 0.10627 0.27267 0.38716 0.0
C1391 C 0.11143 0.26361 0.38126 0.0
H1392 H 0.10628 0.29087 0.39026 0.0
H1393 H 0.15603 0.20451 0.33026 0.0
H1394 H 0.71537 0.14458 0.39885 0.0
H1395 H 0.72703 0.13152 0.38724 0.0
H1396 H 0.74083 0.16034 0.36862 0.0
H1397 H 0.72918 0.17339 0.38 0.0
H1398 H 0.7339 0.14345 0.35444 0.0
H1399 H 0.75633 0.14648 0.38948 0.0
H1400 H 0.75924 0.14471 0.41036 0.0
H1401 H 0.75131 0.1088 0.40863 0.0
H1402 H 0.74821 0.11039 0.38776 0.0
H1403 H 0.77974 0.12048 0.32384 0.0
H1404 H 0.76835 0.13163 0.3374 0.0
H1405 H 0.76055 0.10077 0.3563 0.0
H1406 H 0.77253 0.08969 0.3431 0.0
H1407 H 0.76311 0.11717 0.37071 0.0
H1408 H 0.74129 0.11325 0.33626 0.0
H1409 H 0.73757 0.11426 0.31547 0.0
H1410 H 0.74289 0.15068 0.31609 0.0
H1411 H 0.74679 0.14987 0.33686 0.0
C1412 C 0.72091 0.14813 0.3923 0.0
C1413 C 0.72133 0.16003 0.39035 0.0
C1414 C 0.72759 0.14066 0.38571 0.0
C1415 C 0.73485 0.14498 0.37713 0.0
C1416 C 0.73528 0.15683 0.37519 0.0
C1417 C 0.72861 0.16428 0.38173 0.0
C1418 C 0.74185 0.13725 0.3699 0.0
C1419 C 0.74037 0.13778 0.35798 0.0
C1420 C 0.74996 0.12953 0.37456 0.0
C1421 C 0.75192 0.12858 0.38709 0.0
C1422 C 0.75512 0.13822 0.39357 0.0
C1423 C 0.75683 0.13725 0.4054 0.0
C1424 C 0.75543 0.12666 0.41082 0.0
C1425 C 0.75237 0.11701 0.40442 0.0
C1426 C 0.75065 0.11793 0.39259 0.0
C1427 C 0.77567 0.11611 0.33095 0.0
C1428 C 0.77692 0.10423 0.33238 0.0
C1429 C 0.7691 0.12246 0.33865 0.0
C1430 C 0.76329 0.11699 0.34769 0.0
C1431 C 0.76487 0.10517 0.34936 0.0
C1432 C 0.7717 0.09885 0.34181 0.0
C1433 C 0.75538 0.12358 0.35519 0.0
C1434 C 0.75662 0.12278 0.36714 0.0
C1435 C 0.74689 0.13095 0.35057 0.0
C1436 C 0.74442 0.13148 0.3381 0.0
C1437 C 0.74173 0.12146 0.33195 0.0
C1438 C 0.73958 0.122 0.32017 0.0
C1439 C 0.74001 0.13252 0.31446 0.0
C1440 C 0.74256 0.14254 0.32052 0.0
C1441 C 0.74473 0.14204 0.3323 0.0
H1442 H 0.73835 0.13292 0.30534 0.0
H1443 H 0.75675 0.12593 0.41997 0.0
H1444 H 0.8478 0.71538 0.39991 0.0
H1445 H 0.86093 0.72633 0.38777 0.0
H1446 H 0.83272 0.73611 0.36596 0.0
H1447 H 0.81954 0.72514 0.37796 0.0
H1448 H 0.85147 0.72898 0.35375 0.0
H1449 H 0.84347 0.75472 0.38541 0.0
H1450 H 0.8427 0.76007 0.40586 0.0
H1451 H 0.87899 0.75464 0.40883 0.0
H1452 H 0.87994 0.74911 0.38843 0.0
H1453 H 0.87436 0.77391 0.32137 0.0
H1454 H 0.86297 0.76228 0.33447 0.0
H1455 H 0.89232 0.75839 0.35668 0.0
H1456 H 0.90364 0.77054 0.34381 0.0
H1457 H 0.8743 0.76141 0.36914 0.0
H1458 H 0.88304 0.73654 0.33787 0.0
H1459 H 0.88445 0.73058 0.31763 0.0
H1460 H 0.84791 0.73322 0.31411 0.0
H1461 H 0.84629 0.73934 0.33429 0.0
C1462 C 0.84438 0.71985 0.39253 0.0
C1463 C 0.8326 0.71941 0.38992 0.0
C1464 C 0.85189 0.72613 0.38563 0.0
C1465 C 0.84777 0.7321 0.37604 0.0
C1466 C 0.83606 0.73156 0.37334 0.0
C1467 C 0.82854 0.72531 0.38023 0.0
C1468 C 0.85561 0.7389 0.36874 0.0
C1469 C 0.85639 0.73614 0.35707 0.0
C1470 C 0.86232 0.74797 0.3732 0.0
C1471 C 0.86175 0.75139 0.38543 0.0
C1472 C 0.85127 0.75458 0.39045 0.0
C1473 C 0.8508 0.75766 0.40202 0.0
C1474 C 0.86079 0.75767 0.40864 0.0
C1475 C 0.87126 0.75462 0.40369 0.0
C1476 C 0.87177 0.75152 0.39213 0.0
C1477 C 0.87839 0.77059 0.32905 0.0
C1478 C 0.88991 0.77305 0.33153 0.0
C1479 C 0.87189 0.76388 0.33651 0.0
C1480 C 0.87686 0.7592 0.34643 0.0
C1481 C 0.88831 0.76185 0.34905 0.0
C1482 C 0.89477 0.76877 0.34169 0.0
C1483 C 0.87004 0.75162 0.35405 0.0
C1484 C 0.86947 0.7542 0.36579 0.0
C1485 C 0.86363 0.74226 0.34969 0.0
C1486 C 0.86456 0.73848 0.33757 0.0
C1487 C 0.87531 0.73592 0.33276 0.0
C1488 C 0.87615 0.7325 0.3213 0.0
C1489 C 0.86628 0.73155 0.31458 0.0
C1490 C 0.85554 0.73397 0.31932 0.0
C1491 C 0.85466 0.7374 0.33077 0.0
H1492 H 0.86694 0.72891 0.30571 0.0
H1493 H 0.86041 0.76005 0.4176 0.0
H1494 H 0.22032 0.90416 0.34764 0.0
H1495 H 0.23109 0.89377 0.36245 0.0
H1496 H 0.22654 0.86225 0.3437 0.0
H1497 H 0.2161 0.87259 0.3287 0.0
H1498 H 0.22124 0.86337 0.37016 0.0
H1499 H 0.24968 0.87073 0.33995 0.0
H1500 H 0.26035 0.88364 0.32704 0.0
H1501 H 0.27256 0.9028 0.35601 0.0
H1502 H 0.2618 0.89008 0.36908 0.0
H1503 H 0.25869 0.81999 0.3867 0.0
H1504 H 0.24705 0.83432 0.37702 0.0
H1505 H 0.26609 0.8613 0.39369 0.0
H1506 H 0.27795 0.84692 0.4034 0.0
H1507 H 0.26374 0.86548 0.37114 0.0
H1508 H 0.23885 0.85644 0.40164 0.0
H1509 H 0.22812 0.84438 0.41527 0.0
H1510 H 0.20885 0.82979 0.38752 0.0
H1511 H 0.21959 0.84163 0.37368 0.0
C1512 C 0.22159 0.89501 0.34671 0.0
C1513 C 0.21742 0.88917 0.33702 0.0
C1514 C 0.22773 0.88912 0.35515 0.0
C1515 C 0.22956 0.87729 0.35411 0.0
C1516 C 0.22517 0.87139 0.34461 0.0
C1517 C 0.21927 0.87731 0.33605 0.0
C1518 C 0.23629 0.87102 0.36276 0.0
C1519 C 0.23053 0.86376 0.37039 0.0
C1520 C 0.24835 0.87196 0.3633 0.0
C1521 C 0.25481 0.87958 0.35546 0.0
C1522 C 0.25453 0.87778 0.34355 0.0
C1523 C 0.26062 0.88504 0.33621 0.0
C1524 C 0.26709 0.89406 0.3407 0.0
C1525 C 0.26752 0.89582 0.35254 0.0
C1526 C 0.26143 0.88859 0.35992 0.0
C1527 C 0.26039 0.82896 0.38839 0.0
C1528 C 0.26927 0.8323 0.39583 0.0
C1529 C 0.25366 0.83715 0.3829 0.0
C1530 C 0.2556 0.84888 0.38475 0.0
C1531 C 0.26442 0.85229 0.39219 0.0
C1532 C 0.27117 0.84406 0.39774 0.0
C1533 C 0.24873 0.85744 0.37837 0.0
C1534 C 0.25444 0.86518 0.37114 0.0
C1535 C 0.23659 0.85706 0.37833 0.0
C1536 C 0.23009 0.84988 0.3866 0.0
C1537 C 0.23239 0.85059 0.39842 0.0
C1538 C 0.2263 0.84381 0.4062 0.0
C1539 C 0.21782 0.83631 0.40226 0.0
C1540 C 0.21542 0.8356 0.39055 0.0
C1541 C 0.2215 0.84236 0.38274 0.0
H1542 H 0.21311 0.83107 0.4083 0.0
H1543 H 0.27181 0.89967 0.335 0.0
H1544 H 0.1748 0.73246 0.61182 0.0
H1545 H 0.16116 0.74295 0.62366 0.0
H1546 H 0.13313 0.72918 0.60387 0.0
H1547 H 0.14675 0.71861 0.59187 0.0
H1548 H 0.13093 0.75268 0.6086 0.0
H1549 H 0.13838 0.7177 0.629 0.0
H1550 H 0.15062 0.70279 0.63767 0.0
H1551 H 0.16536 0.72781 0.6603 0.0
H1552 H 0.15332 0.7429 0.65165 0.0
H1553 H 0.08872 0.77104 0.64878 0.0
H1554 H 0.1005 0.75992 0.63546 0.0
H1555 H 0.13029 0.76634 0.65648 0.0
H1556 H 0.11842 0.7769 0.6701 0.0
H1557 H 0.13053 0.7454 0.6505 0.0
H1558 H 0.12424 0.78064 0.62966 0.0
H1559 H 0.11262 0.79591 0.62078 0.0
H1560 H 0.09638 0.77113 0.59893 0.0
H1561 H 0.10782 0.75568 0.60777 0.0
C1562 C 0.16575 0.73166 0.60992 0.0
C1563 C 0.16187 0.72461 0.60093 0.0
C1564 C 0.15796 0.73766 0.61672 0.0
C1565 C 0.14615 0.73671 0.61472 0.0
C1566 C 0.14223 0.72997 0.60556 0.0
C1567 C 0.15002 0.72392 0.59875 0.0
C1568 C 0.13795 0.74262 0.62237 0.0
C1569 C 0.13069 0.751 0.61774 0.0
C1570 C 0.13784 0.74053 0.63431 0.0
C1571 C 0.145 0.73144 0.63961 0.0
C1572 C 0.14429 0.72003 0.63577 0.0
C1573 C 0.15118 0.71155 0.64069 0.0
C1574 C 0.15878 0.71436 0.64951 0.0
C1575 C 0.15947 0.72565 0.65346 0.0
C1576 C 0.15261 0.73417 0.64856 0.0
C1577 C 0.0978 0.7701 0.65051 0.0
C1578 C 0.10267 0.77483 0.66046 0.0
C1579 C 0.10454 0.7638 0.64286 0.0
C1580 C 0.11634 0.76243 0.64484 0.0
C1581 C 0.12121 0.76725 0.65475 0.0
C1582 C 0.11443 0.77331 0.66253 0.0
C1583 C 0.12363 0.75574 0.63681 0.0
C1584 C 0.1307 0.74712 0.64136 0.0
C1585 C 0.12363 0.7577 0.62482 0.0
C1586 C 0.1168 0.76699 0.61946 0.0
C1587 C 0.11813 0.77844 0.62301 0.0
C1588 C 0.11159 0.78713 0.61798 0.0
C1589 C 0.10374 0.78449 0.60932 0.0
C1590 C 0.10245 0.77316 0.60565 0.0
C1591 C 0.10897 0.76444 0.61066 0.0
H1592 H 0.09869 0.79123 0.60543 0.0
H1593 H 0.16411 0.70778 0.65331 0.0
H1594 H 0.26985 0.14699 0.58684 0.0
H1595 H 0.25977 0.13193 0.5976 0.0
H1596 H 0.25995 0.15332 0.62774 0.0
H1597 H 0.26972 0.16845 0.61705 0.0
H1598 H 0.2676 0.12914 0.63062 0.0
H1599 H 0.23688 0.1528 0.61481 0.0
H1600 H 0.22638 0.16189 0.59887 0.0
H1601 H 0.22064 0.12889 0.5836 0.0
H1602 H 0.23126 0.11962 0.59939 0.0
H1603 H 0.22778 0.11114 0.6711 0.0
H1604 H 0.23908 0.12153 0.65698 0.0
H1605 H 0.22715 0.09874 0.6304 0.0
H1606 H 0.21558 0.08834 0.64451 0.0
H1607 H 0.22658 0.12054 0.6233 0.0
H1608 H 0.25429 0.09636 0.64027 0.0
H1609 H 0.26477 0.08672 0.65589 0.0
H1610 H 0.27681 0.11926 0.66817 0.0
H1611 H 0.26624 0.12913 0.65275 0.0
C1612 C 0.26772 0.14846 0.59576 0.0
C1613 C 0.27051 0.15891 0.6011 0.0
C1614 C 0.26199 0.13987 0.60187 0.0
C1615 C 0.25917 0.14156 0.61343 0.0
C1616 C 0.2621 0.15189 0.61882 0.0
C1617 C 0.26761 0.16054 0.61268 0.0
C1618 C 0.25295 0.1327 0.62 0.0
C1619 C 0.25863 0.12725 0.62907 0.0
C1620 C 0.24139 0.12998 0.61764 0.0
C1621 C 0.23499 0.13554 0.60818 0.0
C1622 C 0.23348 0.1475 0.60799 0.0
C1623 C 0.22749 0.15268 0.599 0.0
C1624 C 0.22288 0.14598 0.5902 0.0
C1625 C 0.22424 0.13407 0.5904 0.0
C1626 C 0.23024 0.12885 0.59937 0.0
C1627 C 0.22755 0.10829 0.66226 0.0
C1628 C 0.2208 0.09887 0.65895 0.0
C1629 C 0.23408 0.11421 0.6542 0.0
C1630 C 0.23412 0.11079 0.64267 0.0
C1631 C 0.22729 0.10148 0.63927 0.0
C1632 C 0.2207 0.09555 0.64735 0.0
C1633 C 0.24111 0.1172 0.63422 0.0
C1634 C 0.23561 0.1222 0.62476 0.0
C1635 C 0.2529 0.11939 0.63614 0.0
C1636 C 0.2594 0.1135 0.64538 0.0
C1637 C 0.25911 0.10147 0.64634 0.0
C1638 C 0.26507 0.09596 0.65516 0.0
C1639 C 0.27143 0.10237 0.66303 0.0
C1640 C 0.27187 0.1143 0.66207 0.0
C1641 C 0.26591 0.11986 0.65328 0.0
H1642 H 0.27603 0.09809 0.66986 0.0
H1643 H 0.21824 0.15 0.58325 0.0
H1644 H 0.84745 0.27866 0.58824 0.0
H1645 H 0.86186 0.26777 0.59902 0.0
H1646 H 0.83575 0.25667 0.62273 0.0
H1647 H 0.82138 0.26746 0.61214 0.0
H1648 H 0.85506 0.26526 0.63343 0.0
H1649 H 0.84568 0.23888 0.60223 0.0
H1650 H 0.84437 0.23353 0.58181 0.0
H1651 H 0.88049 0.23936 0.57777 0.0
H1652 H 0.88198 0.24488 0.59814 0.0
H1653 H 0.87491 0.22 0.66588 0.0
H1654 H 0.8645 0.23174 0.6521 0.0
H1655 H 0.8947 0.23378 0.63081 0.0
H1656 H 0.90506 0.2215 0.64442 0.0
H1657 H 0.87649 0.23202 0.61775 0.0
H1658 H 0.88687 0.25628 0.64871 0.0
H1659 H 0.88902 0.26228 0.66886 0.0
H1660 H 0.85246 0.26194 0.67307 0.0
H1661 H 0.85009 0.25579 0.65298 0.0
C1662 C 0.84478 0.27387 0.59573 0.0
C1663 C 0.83326 0.27394 0.59933 0.0
C1664 C 0.85302 0.26764 0.60185 0.0
C1665 C 0.84984 0.26142 0.61164 0.0
C1666 C 0.83837 0.26145 0.61521 0.0
C1667 C 0.83016 0.26761 0.60911 0.0
C1668 C 0.85839 0.255 0.61847 0.0
C1669 C 0.85971 0.25795 0.63004 0.0
C1670 C 0.86483 0.24582 0.61387 0.0
C1671 C 0.86392 0.24241 0.60166 0.0
C1672 C 0.85332 0.2391 0.59696 0.0
C1673 C 0.85255 0.23603 0.5854 0.0
C1674 C 0.86233 0.23614 0.57848 0.0
C1675 C 0.87292 0.2393 0.58313 0.0
C1676 C 0.87373 0.24239 0.59468 0.0
C1677 C 0.87932 0.22289 0.65823 0.0
C1678 C 0.89082 0.21996 0.65627 0.0
C1679 C 0.87338 0.22965 0.65039 0.0
C1680 C 0.87892 0.23393 0.64059 0.0
C1681 C 0.89029 0.23066 0.63837 0.0
C1682 C 0.89619 0.22366 0.64613 0.0
C1683 C 0.87278 0.24198 0.63288 0.0
C1684 C 0.87198 0.23941 0.62114 0.0
C1685 C 0.86694 0.25168 0.63727 0.0
C1686 C 0.86831 0.25551 0.64934 0.0
C1687 C 0.87929 0.25743 0.65394 0.0
C1688 C 0.88055 0.26086 0.66536 0.0
C1689 C 0.87088 0.26247 0.67225 0.0
C1690 C 0.85994 0.26069 0.66773 0.0
C1691 C 0.85863 0.25725 0.65632 0.0
H1692 H 0.87188 0.26512 0.68108 0.0
H1693 H 0.86172 0.23376 0.56954 0.0
H1694 H 0.75361 0.89474 0.66566 0.0
H1695 H 0.74302 0.88381 0.65128 0.0
H1696 H 0.77193 0.88596 0.62829 0.0
H1697 H 0.78234 0.89745 0.64248 0.0
H1698 H 0.75275 0.8858 0.61624 0.0
H1699 H 0.76854 0.86287 0.64652 0.0
H1700 H 0.77201 0.8573 0.66663 0.0
H1701 H 0.73593 0.85195 0.67158 0.0
H1702 H 0.73223 0.85763 0.65154 0.0
H1703 H 0.73529 0.82166 0.60435 0.0
H1704 H 0.74605 0.83644 0.61448 0.0
H1705 H 0.72199 0.86205 0.60288 0.0
H1706 H 0.71137 0.84732 0.59238 0.0
H1707 H 0.73961 0.84838 0.63163 0.0
H1708 H 0.73484 0.88843 0.60237 0.0
H1709 H 0.73358 0.89305 0.58177 0.0
H1710 H 0.75158 0.86201 0.57352 0.0
H1711 H 0.75307 0.85729 0.59407 0.0
C1712 C 0.7576 0.89308 0.65744 0.0
C1713 C 0.76883 0.89677 0.65521 0.0
C1714 C 0.75156 0.88682 0.64925 0.0
C1715 C 0.75681 0.88378 0.63885 0.0
C1716 C 0.76774 0.88815 0.63628 0.0
C1717 C 0.77369 0.89468 0.64439 0.0
C1718 C 0.7514 0.87514 0.63126 0.0
C1719 C 0.74984 0.87763 0.61959 0.0
C1720 C 0.74789 0.86433 0.63556 0.0
C1721 C 0.7501 0.86076 0.64757 0.0
C1722 C 0.76134 0.86055 0.65192 0.0
C1723 C 0.76335 0.85738 0.6633 0.0
C1724 C 0.7542 0.8543 0.67038 0.0
C1725 C 0.74301 0.85435 0.66609 0.0
C1726 C 0.74095 0.85754 0.65472 0.0
C1727 C 0.73234 0.83046 0.60386 0.0
C1728 C 0.72244 0.83332 0.59762 0.0
C1729 C 0.7385 0.8389 0.60965 0.0
C1730 C 0.73486 0.85037 0.60943 0.0
C1731 C 0.72509 0.8533 0.60303 0.0
C1732 C 0.71899 0.84486 0.59708 0.0
C1733 C 0.74084 0.85903 0.61657 0.0
C1734 C 0.74248 0.85655 0.62822 0.0
C1735 C 0.74473 0.86964 0.61214 0.0
C1736 C 0.74395 0.87245 0.59976 0.0
C1737 C 0.73856 0.88261 0.59616 0.0
C1738 C 0.7378 0.88525 0.58449 0.0
C1739 C 0.74246 0.87781 0.57634 0.0
C1740 C 0.74792 0.86774 0.57984 0.0
C1741 C 0.74871 0.86507 0.5915 0.0
H1742 H 0.74186 0.87986 0.56731 0.0
H1743 H 0.75577 0.85185 0.67919 0.0
H1744 H 0.32286 0.11771 0.2207 0.0
H1745 H 0.33727 0.12827 0.23158 0.0
H1746 H 0.36057 0.09971 0.22875 0.0
H1747 H 0.34618 0.08904 0.2177 0.0
H1748 H 0.35833 0.10909 0.25145 0.0
H1749 H 0.36663 0.12131 0.21335 0.0
H1750 H 0.36227 0.12856 0.19398 0.0
H1751 H 0.34906 0.15974 0.2084 0.0
H1752 H 0.35318 0.15262 0.22788 0.0
H1753 H 0.40233 0.14454 0.27634 0.0
H1754 H 0.39185 0.1311 0.26408 0.0
H1755 H 0.36616 0.15694 0.25769 0.0
H1756 H 0.37666 0.17045 0.26966 0.0
H1757 H 0.3723 0.14707 0.23833 0.0
H1758 H 0.36179 0.13399 0.27632 0.0
H1759 H 0.36557 0.12673 0.29582 0.0
H1760 H 0.38254 0.09724 0.28176 0.0
H1761 H 0.37898 0.10441 0.26217 0.0
C1762 C 0.33105 0.11366 0.22235 0.0
C1763 C 0.33339 0.10255 0.21833 0.0
C1764 C 0.33929 0.11972 0.22854 0.0
C1765 C 0.34999 0.11477 0.23089 0.0
C1766 C 0.35236 0.10366 0.22698 0.0
C1767 C 0.34415 0.09762 0.22064 0.0
C1768 C 0.35854 0.12129 0.2376 0.0
C1769 C 0.3616 0.11729 0.24852 0.0
C1770 C 0.36262 0.13204 0.23379 0.0
C1771 C 0.36014 0.13639 0.22209 0.0
C1772 C 0.36271 0.12968 0.2124 0.0
C1773 C 0.3603 0.13377 0.2014 0.0
C1774 C 0.35538 0.14459 0.19996 0.0
C1775 C 0.35287 0.15136 0.20953 0.0
C1776 C 0.35526 0.1473 0.22055 0.0
C1777 C 0.39441 0.14733 0.27237 0.0
C1778 C 0.39034 0.15857 0.27396 0.0
C1779 C 0.38842 0.13963 0.26539 0.0
C1780 C 0.3782 0.143 0.26001 0.0
C1781 C 0.37407 0.15417 0.26171 0.0
C1782 C 0.38007 0.16187 0.26859 0.0
C1783 C 0.37181 0.13507 0.25238 0.0
C1784 C 0.36919 0.1388 0.24124 0.0
C1785 C 0.3681 0.1241 0.25602 0.0
C1786 C 0.37024 0.1198 0.26779 0.0
C1787 C 0.36641 0.12601 0.27739 0.0
C1788 C 0.36849 0.1219 0.28846 0.0
C1789 C 0.37432 0.11155 0.29003 0.0
C1790 C 0.37805 0.10527 0.28053 0.0
C1791 C 0.37599 0.10934 0.26944 0.0
H1792 H 0.37592 0.10838 0.2986 0.0
H1793 H 0.35352 0.14775 0.19144 0.0
H1794 H 0.87705 0.31912 0.22488 0.0
H1795 H 0.86522 0.33254 0.23573 0.0
H1796 H 0.88849 0.36003 0.22736 0.0
H1797 H 0.90044 0.34665 0.21648 0.0
H1798 H 0.88256 0.35949 0.25043 0.0
H1799 H 0.86353 0.35875 0.21394 0.0
H1800 H 0.85442 0.34964 0.19718 0.0
H1801 H 0.82896 0.33447 0.21901 0.0
H1802 H 0.83801 0.34337 0.23593 0.0
H1803 H 0.84584 0.40335 0.27197 0.0
H1804 H 0.85851 0.39155 0.26016 0.0
H1805 H 0.83448 0.36348 0.26238 0.0
H1806 H 0.82159 0.37539 0.27376 0.0
H1807 H 0.84137 0.36528 0.24154 0.0
H1808 H 0.86059 0.36468 0.27806 0.0
H1809 H 0.8697 0.37303 0.29522 0.0
H1810 H 0.89468 0.3898 0.27401 0.0
H1811 H 0.88563 0.38166 0.25671 0.0
C1812 C 0.87966 0.32802 0.22531 0.0
C1813 C 0.88969 0.33181 0.21979 0.0
C1814 C 0.87286 0.33569 0.23148 0.0
C1815 C 0.87594 0.34729 0.23226 0.0
C1816 C 0.88597 0.35111 0.22684 0.0
C1817 C 0.89276 0.34346 0.22059 0.0
C1818 C 0.86875 0.35536 0.23891 0.0
C1819 C 0.87359 0.36092 0.2484 0.0
C1820 C 0.857 0.35697 0.23639 0.0
C1821 C 0.85151 0.35165 0.22621 0.0
C1822 C 0.85604 0.3534 0.21518 0.0
C1823 C 0.85088 0.34829 0.20565 0.0
C1824 C 0.84113 0.34146 0.20703 0.0
C1825 C 0.83651 0.33975 0.21795 0.0
C1826 C 0.84165 0.34484 0.22751 0.0
C1827 C 0.84329 0.39464 0.26998 0.0
C1828 C 0.83272 0.3903 0.27379 0.0
C1829 C 0.85057 0.38788 0.26327 0.0
C1830 C 0.84753 0.37656 0.26047 0.0
C1831 C 0.83701 0.3722 0.26438 0.0
C1832 C 0.82966 0.379 0.27091 0.0
C1833 C 0.8551 0.36931 0.25324 0.0
C1834 C 0.85034 0.36391 0.24359 0.0
C1835 C 0.8669 0.36776 0.2557 0.0
C1836 C 0.87235 0.37266 0.26609 0.0
C1837 C 0.86797 0.37022 0.27705 0.0
C1838 C 0.87314 0.3749 0.2868 0.0
C1839 C 0.88275 0.38197 0.2857 0.0
C1840 C 0.88723 0.38434 0.27485 0.0
C1841 C 0.88209 0.37969 0.26507 0.0
H1842 H 0.88673 0.38559 0.29326 0.0
H1843 H 0.83715 0.33751 0.19964 0.0
H1844 H 0.67312 0.8808 0.22812 0.0
H1845 H 0.65988 0.86901 0.23917 0.0
H1846 H 0.63127 0.88801 0.22549 0.0
H1847 H 0.64448 0.90002 0.21445 0.0
H1848 H 0.62916 0.88414 0.24863 0.0
H1849 H 0.63732 0.86194 0.2149 0.0
H1850 H 0.64983 0.85269 0.20057 0.0
H1851 H 0.665 0.83194 0.22692 0.0
H1852 H 0.65269 0.84117 0.24143 0.0
H1853 H 0.58842 0.84315 0.26957 0.0
H1854 H 0.59955 0.85665 0.25795 0.0
H1855 H 0.63031 0.83727 0.26497 0.0
H1856 H 0.61913 0.82347 0.27598 0.0
H1857 H 0.62997 0.8419 0.24382 0.0
H1858 H 0.62313 0.86468 0.2778 0.0
H1859 H 0.61125 0.87414 0.29253 0.0
H1860 H 0.59427 0.89382 0.26646 0.0
H1861 H 0.60596 0.88438 0.25157 0.0
C1862 C 0.66402 0.8825 0.22743 0.0
C1863 C 0.65986 0.89131 0.22033 0.0
C1864 C 0.65646 0.87573 0.23375 0.0
C1865 C 0.64459 0.87754 0.23302 0.0
C1866 C 0.6404 0.88646 0.22613 0.0
C1867 C 0.64797 0.89328 0.21981 0.0
C1868 C 0.63661 0.87 0.23939 0.0
C1869 C 0.6292 0.87491 0.24749 0.0
C1870 C 0.63682 0.85796 0.238 0.0
C1871 C 0.64414 0.85231 0.22926 0.0
C1872 C 0.64337 0.85545 0.21765 0.0
C1873 C 0.65042 0.85021 0.20949 0.0
C1874 C 0.65822 0.84175 0.21284 0.0
C1875 C 0.65896 0.8385 0.22434 0.0
C1876 C 0.65194 0.84372 0.23253 0.0
C1877 C 0.59757 0.84185 0.26867 0.0
C1878 C 0.60293 0.83227 0.27362 0.0
C1879 C 0.60394 0.8496 0.26208 0.0
C1880 C 0.61582 0.84807 0.26066 0.0
C1881 C 0.62116 0.83862 0.26586 0.0
C1882 C 0.61477 0.83075 0.27218 0.0
C1883 C 0.6227 0.85596 0.25339 0.0
C1884 C 0.62987 0.85112 0.24501 0.0
C1885 C 0.62233 0.86804 0.25462 0.0
C1886 C 0.61534 0.87374 0.26357 0.0
C1887 C 0.61681 0.87097 0.27521 0.0
C1888 C 0.61012 0.87633 0.28358 0.0
C1889 C 0.60199 0.88455 0.28043 0.0
C1890 C 0.60056 0.88744 0.26889 0.0
C1891 C 0.60722 0.8821 0.26048 0.0
H1892 H 0.59682 0.88869 0.28693 0.0
H1893 H 0.66367 0.8377 0.20651 0.0
H1894 H 0.11731 0.67092 0.22236 0.0
H1895 H 0.12906 0.65698 0.23266 0.0
H1896 H 0.10264 0.63145 0.22853 0.0
H1897 H 0.09081 0.64534 0.21811 0.0
H1898 H 0.1117 0.6332 0.25121 0.0
H1899 H 0.12489 0.62893 0.21247 0.0
H1900 H 0.13214 0.63569 0.1938 0.0
H1901 H 0.16201 0.64961 0.2102 0.0
H1902 H 0.15486 0.64308 0.229 0.0
H1903 H 0.14738 0.5884 0.27259 0.0
H1904 H 0.13423 0.59971 0.26078 0.0
H1905 H 0.16023 0.62572 0.25668 0.0
H1906 H 0.1735 0.61432 0.2681 0.0
H1907 H 0.15033 0.62225 0.23716 0.0
H1908 H 0.137 0.62846 0.27573 0.0
H1909 H 0.12995 0.6228 0.29485 0.0
H1910 H 0.10075 0.60649 0.27946 0.0
H1911 H 0.10771 0.61194 0.26023 0.0
C1912 C 0.11398 0.66235 0.22363 0.0
C1913 C 0.10313 0.65923 0.2194 0.0
C1914 C 0.12072 0.65438 0.22948 0.0
C1915 C 0.11673 0.64319 0.23127 0.0
C1916 C 0.10586 0.64006 0.2272 0.0
C1917 C 0.09915 0.64799 0.22122 0.0
C1918 C 0.12393 0.63482 0.23749 0.0
C1919 C 0.12007 0.63063 0.24807 0.0
C1920 C 0.13493 0.63171 0.23347 0.0
C1921 C 0.13929 0.6356 0.22216 0.0
C1922 C 0.13296 0.63351 0.21211 0.0
C1923 C 0.13706 0.63729 0.2015 0.0
C1924 C 0.14751 0.6431 0.20081 0.0
C1925 C 0.1539 0.64512 0.21074 0.0
C1926 C 0.14984 0.64137 0.22138 0.0
C1927 C 0.15029 0.59653 0.26916 0.0
C1928 C 0.16148 0.60047 0.2713 0.0
C1929 C 0.14275 0.603 0.26245 0.0
C1930 C 0.14619 0.61364 0.25795 0.0
C1931 C 0.15738 0.61753 0.26003 0.0
C1932 C 0.16495 0.61101 0.26659 0.0
C1933 C 0.13822 0.62076 0.25105 0.0
C1934 C 0.14193 0.62472 0.2403 0.0
C1935 C 0.12713 0.62377 0.25499 0.0
C1936 C 0.12294 0.62049 0.26654 0.0
C1937 C 0.12912 0.62359 0.27642 0.0
C1938 C 0.12514 0.62043 0.28728 0.0
C1939 C 0.11493 0.61426 0.28836 0.0
C1940 C 0.10867 0.61126 0.2786 0.0
C1941 C 0.11262 0.61438 0.26772 0.0
H1942 H 0.11185 0.61182 0.29677 0.0
H1943 H 0.15067 0.64601 0.19259 0.0
H1944 H 0.31946 0.88063 0.76467 0.0
H1945 H 0.33329 0.86916 0.754 0.0
H1946 H 0.36041 0.89219 0.76405 0.0
H1947 H 0.34659 0.90381 0.77481 0.0
H1948 H 0.36109 0.88554 0.74054 0.0
H1949 H 0.35856 0.86819 0.77781 0.0
H1950 H 0.34844 0.8601 0.79452 0.0
H1951 H 0.33369 0.83398 0.77317 0.0
H1952 H 0.34359 0.84202 0.7563 0.0
H1953 H 0.40447 0.84656 0.7215 0.0
H1954 H 0.39293 0.86023 0.73247 0.0
H1955 H 0.36422 0.83688 0.73129 0.0
H1956 H 0.37588 0.82301 0.72086 0.0
H1957 H 0.36583 0.84472 0.75154 0.0
H1958 H 0.36681 0.86242 0.7141 0.0
H1959 H 0.37605 0.87061 0.69693 0.0
H1960 H 0.39278 0.89592 0.71777 0.0
H1961 H 0.38374 0.88779 0.73509 0.0
C1962 C 0.32835 0.88332 0.7646 0.0
C1963 C 0.33193 0.8931 0.77068 0.0
C1964 C 0.33624 0.87674 0.7585 0.0
C1965 C 0.34787 0.87978 0.75836 0.0
C1966 C 0.35146 0.88971 0.7641 0.0
C1967 C 0.34356 0.8963 0.77027 0.0
C1968 C 0.35625 0.87232 0.75246 0.0
C1969 C 0.36229 0.87665 0.74302 0.0
C1970 C 0.35762 0.8607 0.75561 0.0
C1971 C 0.35176 0.85576 0.76578 0.0
C1972 C 0.3531 0.86077 0.77667 0.0
C1973 C 0.34741 0.85619 0.78617 0.0
C1974 C 0.34041 0.84655 0.7849 0.0
C1975 C 0.33911 0.84145 0.77414 0.0
C1976 C 0.34477 0.84601 0.76461 0.0
C1977 C 0.39568 0.84439 0.72356 0.0
C1978 C 0.39107 0.83372 0.72035 0.0
C1979 C 0.38907 0.85223 0.72978 0.0
C1980 C 0.37763 0.84966 0.7326 0.0
C1981 C 0.37302 0.83905 0.72927 0.0
C1982 C 0.37969 0.83113 0.72329 0.0
C1983 C 0.3705 0.8578 0.73933 0.0
C1984 C 0.36472 0.85361 0.74902 0.0
C1985 C 0.36929 0.86951 0.7363 0.0
C1986 C 0.3747 0.87442 0.7259 0.0
C1987 C 0.37253 0.86968 0.71503 0.0
C1988 C 0.37771 0.87432 0.70527 0.0
C1989 C 0.38502 0.88376 0.70626 0.0
C1990 C 0.38713 0.8886 0.71701 0.0
C1991 C 0.38197 0.88399 0.7268 0.0
H1992 H 0.38903 0.88734 0.6987 0.0
H1993 H 0.336 0.84302 0.79227 0.0
H1994 H 0.14858 0.40218 0.71781 0.0
H1995 H 0.13531 0.39027 0.72888 0.0
H1996 H 0.16092 0.36371 0.73116 0.0
H1997 H 0.17427 0.37555 0.72018 0.0
H1998 H 0.13874 0.35566 0.72537 0.0
H1999 H 0.15722 0.38009 0.75331 0.0
H2000 H 0.16319 0.39869 0.76139 0.0
H2001 H 0.12799 0.40916 0.76384 0.0
H2002 H 0.12181 0.39066 0.75562 0.0
H2003 H 0.1171 0.32077 0.76957 0.0
H2004 H 0.12901 0.33323 0.75772 0.0
H2005 H 0.10428 0.3605 0.76134 0.0
H2006 H 0.09244 0.34818 0.77347 0.0
H2007 H 0.12512 0.36874 0.7635 0.0
H2008 H 0.1062 0.34459 0.73649 0.0
H2009 H 0.09963 0.32636 0.72805 0.0
H2010 H 0.13455 0.31584 0.72311 0.0
H2011 H 0.14134 0.33395 0.73168 0.0
C2012 C 0.15137 0.39379 0.72062 0.0
C2013 C 0.1625 0.38983 0.71816 0.0
C2014 C 0.14379 0.38702 0.72696 0.0
C2015 C 0.14719 0.37616 0.73088 0.0
C2016 C 0.15817 0.37208 0.72821 0.0
C2017 C 0.16579 0.37888 0.72198 0.0
C2018 C 0.13938 0.36913 0.73797 0.0
C2019 C 0.13583 0.35844 0.73376 0.0
C2020 C 0.13536 0.37296 0.74874 0.0
C2021 C 0.13906 0.38405 0.75374 0.0
C2022 C 0.15076 0.3864 0.75548 0.0
C2023 C 0.15418 0.39691 0.7601 0.0
C2024 C 0.14598 0.40512 0.7631 0.0
C2025 C 0.13433 0.4028 0.7615 0.0
C2026 C 0.13086 0.39231 0.75687 0.0
C2027 C 0.11419 0.32942 0.76786 0.0
C2028 C 0.10379 0.33347 0.77242 0.0
C2029 C 0.12098 0.33652 0.76103 0.0
C2030 C 0.11744 0.34774 0.75847 0.0
C2031 C 0.10716 0.35186 0.76317 0.0
C2032 C 0.1004 0.3448 0.77009 0.0
C2033 C 0.12452 0.35517 0.75097 0.0
C2034 C 0.12794 0.36595 0.75509 0.0
C2035 C 0.12832 0.35147 0.74004 0.0
C2036 C 0.12427 0.34059 0.73482 0.0
C2037 C 0.11248 0.33836 0.73368 0.0
C2038 C 0.10872 0.32805 0.72886 0.0
C2039 C 0.11667 0.31993 0.72507 0.0
C2040 C 0.1284 0.32213 0.72606 0.0
C2041 C 0.13221 0.33242 0.73089 0.0
H2042 H 0.11374 0.31195 0.72135 0.0
H2043 H 0.14865 0.41325 0.76667 0.0
H2044 H 0.61843 0.16876 0.72148 0.0
H2045 H 0.62906 0.1545 0.73253 0.0
H2046 H 0.59906 0.13294 0.73387 0.0
H2047 H 0.58836 0.14711 0.72255 0.0
H2048 H 0.61133 0.1372 0.75587 0.0
H2049 H 0.6174 0.12367 0.71775 0.0
H2050 H 0.62219 0.12537 0.69723 0.0
H2051 H 0.65604 0.13695 0.7059 0.0
H2052 H 0.65139 0.1355 0.72648 0.0
H2053 H 0.64528 0.09212 0.78063 0.0
H2054 H 0.63153 0.10274 0.76887 0.0
H2055 H 0.65861 0.12517 0.7574 0.0
H2056 H 0.6724 0.11457 0.76896 0.0
H2057 H 0.64575 0.11809 0.73974 0.0
H2058 H 0.63916 0.13375 0.77749 0.0
H2059 H 0.63444 0.13297 0.79808 0.0
H2060 H 0.60174 0.11802 0.79022 0.0
H2061 H 0.60633 0.11857 0.76957 0.0
C2062 C 0.61408 0.16099 0.72411 0.0
C2063 C 0.60256 0.15904 0.72115 0.0
C2064 C 0.62017 0.15285 0.73039 0.0
C2065 C 0.61483 0.14269 0.73395 0.0
C2066 C 0.6033 0.14074 0.73116 0.0
C2067 C 0.59724 0.14881 0.72467 0.0
C2068 C 0.62141 0.13424 0.7407 0.0
C2069 C 0.61872 0.1328 0.75232 0.0
C2070 C 0.63113 0.12873 0.73605 0.0
C2071 C 0.63401 0.12957 0.72367 0.0
C2072 C 0.62583 0.12668 0.71528 0.0
C2073 C 0.62853 0.12758 0.70364 0.0
C2074 C 0.6394 0.13129 0.70026 0.0
C2075 C 0.64761 0.13408 0.70853 0.0
C2076 C 0.64496 0.13321 0.72019 0.0
C2077 C 0.6483 0.09935 0.77564 0.0
C2078 C 0.65995 0.10249 0.77574 0.0
C2079 C 0.64042 0.10542 0.76894 0.0
C2080 C 0.64405 0.11477 0.76229 0.0
C2081 C 0.65564 0.11795 0.76243 0.0
C2082 C 0.66351 0.1119 0.7691 0.0
C2083 C 0.63586 0.12123 0.75503 0.0
C2084 C 0.63826 0.12231 0.74329 0.0
C2085 C 0.6259 0.12645 0.7596 0.0
C2086 C 0.62315 0.12606 0.772 0.0
C2087 C 0.63101 0.1302 0.78016 0.0
C2088 C 0.62835 0.12982 0.79184 0.0
C2089 C 0.61781 0.12541 0.79546 0.0
C2090 C 0.6099 0.1214 0.7874 0.0
C2091 C 0.61253 0.12175 0.77571 0.0
H2092 H 0.61576 0.12513 0.8045 0.0
H2093 H 0.64147 0.13199 0.69124 0.0
H2094 H 0.88472 0.6698 0.75847 0.0
H2095 H 0.87367 0.65531 0.7483 0.0
H2096 H 0.89363 0.62858 0.7642 0.0
H2097 H 0.90483 0.64308 0.77455 0.0
H2098 H 0.88797 0.62549 0.73941 0.0
H2099 H 0.87021 0.63276 0.776 0.0
H2100 H 0.86278 0.64523 0.79138 0.0
H2101 H 0.83844 0.65989 0.76798 0.0
H2102 H 0.84585 0.64764 0.75242 0.0
H2103 H 0.84495 0.58509 0.7214 0.0
H2104 H 0.85958 0.59539 0.73243 0.0
H2105 H 0.83981 0.62655 0.72939 0.0
H2106 H 0.825 0.6162 0.71897 0.0
H2107 H 0.84674 0.6249 0.74988 0.0
H2108 H 0.86526 0.61993 0.71295 0.0
H2109 H 0.87291 0.60872 0.69673 0.0
H2110 H 0.89569 0.59092 0.71953 0.0
H2111 H 0.88806 0.60194 0.73591 0.0
C2112 C 0.8869 0.66086 0.75973 0.0
C2113 C 0.89558 0.6576 0.76744 0.0
C2114 C 0.88057 0.6526 0.75389 0.0
C2115 C 0.88278 0.64092 0.75562 0.0
C2116 C 0.89182 0.63759 0.7628 0.0
C2117 C 0.89817 0.64588 0.76872 0.0
C2118 C 0.87497 0.63234 0.75056 0.0
C2119 C 0.87899 0.62517 0.7418 0.0
C2120 C 0.86326 0.6321 0.75363 0.0
C2121 C 0.85864 0.63933 0.76303 0.0
C2122 C 0.86332 0.6387 0.77412 0.0
C2123 C 0.85911 0.64572 0.78287 0.0
C2124 C 0.85016 0.65336 0.78065 0.0
C2125 C 0.84538 0.65397 0.76968 0.0
C2126 C 0.84957 0.64698 0.7609 0.0
C2127 C 0.84378 0.59414 0.7231 0.0
C2128 C 0.83384 0.59984 0.71938 0.0
C2129 C 0.85216 0.60004 0.72934 0.0
C2130 C 0.85087 0.6118 0.73166 0.0
C2131 C 0.84099 0.61748 0.72779 0.0
C2132 C 0.83252 0.61155 0.72182 0.0
C2133 C 0.85957 0.61829 0.73832 0.0
C2134 C 0.85574 0.62505 0.74751 0.0
C2135 C 0.8714 0.61824 0.73551 0.0
C2136 C 0.876 0.61166 0.72566 0.0
C2137 C 0.87184 0.61356 0.71451 0.0
C2138 C 0.87618 0.60726 0.70529 0.0
C2139 C 0.88475 0.59908 0.70711 0.0
C2140 C 0.88903 0.59723 0.71814 0.0
C2141 C 0.88471 0.60351 0.7274 0.0
H2142 H 0.8881 0.59421 0.69996 0.0
H2143 H 0.84691 0.6588 0.78744 0.0
H2144 H 0.23833 0.32407 0.09917 0.0
H2145 H 0.24921 0.33807 0.11032 0.0
H2146 H 0.22012 0.36097 0.11 0.0
H2147 H 0.20947 0.34724 0.09822 0.0
H2148 H 0.23848 0.37317 0.10927 0.0
H2149 H 0.2259 0.34189 0.13299 0.0
H2150 H 0.22384 0.3216 0.1386 0.0
H2151 H 0.26043 0.31835 0.14099 0.0
H2152 H 0.26271 0.33859 0.13525 0.0
H2153 H 0.25896 0.38581 0.17211 0.0
H2154 H 0.24829 0.37479 0.15793 0.0
H2155 H 0.27019 0.38787 0.13113 0.0
H2156 H 0.28073 0.39922 0.14527 0.0
H2157 H 0.25509 0.35803 0.14538 0.0
H2158 H 0.2556 0.38797 0.10562 0.0
H2159 H 0.2554 0.40866 0.10123 0.0
H2160 H 0.23896 0.41554 0.13344 0.0
H2161 H 0.23892 0.39489 0.13795 0.0
C2162 C 0.23433 0.33217 0.10135 0.0
C2163 C 0.22303 0.33454 0.09797 0.0
C2164 C 0.24053 0.34014 0.10777 0.0
C2165 C 0.23538 0.35044 0.1113 0.0
C2166 C 0.22427 0.35306 0.10744 0.0
C2167 C 0.21817 0.34521 0.10074 0.0
C2168 C 0.24126 0.3581 0.1196 0.0
C2169 C 0.24214 0.36986 0.11716 0.0
C2170 C 0.24583 0.35385 0.13002 0.0
C2171 C 0.24447 0.34172 0.13359 0.0
C2172 C 0.2335 0.33683 0.13466 0.0
C2173 C 0.2323 0.32534 0.13786 0.0
C2174 C 0.242 0.31869 0.14012 0.0
C2175 C 0.25293 0.32351 0.13922 0.0
C2176 C 0.25418 0.33499 0.136 0.0
C2177 C 0.26147 0.38643 0.16319 0.0
C2178 C 0.27072 0.39337 0.15982 0.0
C2179 C 0.25536 0.3801 0.15509 0.0
C2180 C 0.25841 0.38051 0.14345 0.0
C2181 C 0.26756 0.38755 0.14003 0.0
C2182 C 0.27362 0.39399 0.14813 0.0
C2183 C 0.25233 0.37311 0.13508 0.0
C2184 C 0.25147 0.36136 0.13749 0.0
C2185 C 0.24747 0.37746 0.12484 0.0
C2186 C 0.24739 0.38989 0.12217 0.0
C2187 C 0.25192 0.3939 0.11175 0.0
C2188 C 0.25185 0.40562 0.10924 0.0
C2189 C 0.24721 0.41342 0.11707 0.0
C2190 C 0.2426 0.4095 0.1274 0.0
C2191 C 0.24264 0.39779 0.12995 0.0
H2192 H 0.24717 0.42249 0.11511 0.0
H2193 H 0.24105 0.30979 0.1426 0.0
H2194 H 0.22211 0.64646 0.90402 0.0
H2195 H 0.23321 0.63235 0.89299 0.0
H2196 H 0.22894 0.65278 0.86249 0.0
H2197 H 0.21815 0.66704 0.87346 0.0
H2198 H 0.22426 0.62721 0.86095 0.0
H2199 H 0.25227 0.65578 0.87328 0.0
H2200 H 0.26225 0.66724 0.88797 0.0
H2201 H 0.27339 0.6364 0.90471 0.0
H2202 H 0.2633 0.62476 0.8902 0.0
H2203 H 0.26416 0.61128 0.81935 0.0
H2204 H 0.25238 0.62141 0.83329 0.0
H2205 H 0.26799 0.60215 0.86073 0.0
H2206 H 0.27997 0.59198 0.84679 0.0
H2207 H 0.26643 0.62463 0.86606 0.0
H2208 H 0.24119 0.59584 0.85286 0.0
H2209 H 0.23102 0.58365 0.83892 0.0
H2210 H 0.21421 0.61327 0.82497 0.0
H2211 H 0.22442 0.62569 0.83871 0.0
C2212 C 0.2235 0.6479 0.89495 0.0
C2213 C 0.21932 0.65785 0.88959 0.0
C2214 C 0.22983 0.63986 0.88869 0.0
C2215 C 0.23185 0.64158 0.87697 0.0
C2216 C 0.22743 0.65134 0.87154 0.0
C2217 C 0.22133 0.65949 0.87782 0.0
C2218 C 0.23887 0.6334 0.87034 0.0
C2219 C 0.23348 0.62665 0.86199 0.0
C2220 C 0.25081 0.63242 0.87207 0.0
C2221 C 0.2569 0.63941 0.88075 0.0
C2222 C 0.25674 0.65145 0.88017 0.0
C2223 C 0.26244 0.65798 0.88844 0.0
C2224 C 0.26842 0.65256 0.8973 0.0
C2225 C 0.26873 0.64059 0.89787 0.0
C2226 C 0.26303 0.63402 0.88962 0.0
C2227 C 0.26511 0.60917 0.82834 0.0
C2228 C 0.273 0.60079 0.83194 0.0
C2229 C 0.25831 0.61493 0.8363 0.0
C2230 C 0.25918 0.6124 0.84803 0.0
C2231 C 0.26715 0.60417 0.85171 0.0
C2232 C 0.27397 0.59837 0.84373 0.0
C2233 C 0.25188 0.61861 0.85637 0.0
C2234 C 0.25719 0.625 0.86508 0.0
C2235 C 0.23982 0.61912 0.85508 0.0
C2236 C 0.23365 0.61171 0.84677 0.0
C2237 C 0.2354 0.59978 0.84676 0.0
C2238 C 0.22961 0.59282 0.8389 0.0
C2239 C 0.22199 0.59768 0.83105 0.0
C2240 C 0.22012 0.60952 0.83105 0.0
C2241 C 0.2259 0.61652 0.83889 0.0
H2242 H 0.21751 0.59228 0.82498 0.0
H2243 H 0.27283 0.65762 0.90369 0.0
H2244 H 0.37829 0.26704 0.81623 0.0
H2245 H 0.36646 0.25591 0.82943 0.0
H2246 H 0.38987 0.26351 0.85702 0.0
H2247 H 0.4018 0.27468 0.84387 0.0
H2248 H 0.38347 0.24052 0.85621 0.0
H2249 H 0.36538 0.27747 0.85598 0.0
H2250 H 0.3567 0.29459 0.84711 0.0
H2251 H 0.33065 0.27364 0.8317 0.0
H2252 H 0.33927 0.25636 0.84035 0.0
H2253 H 0.34642 0.22002 0.90029 0.0
H2254 H 0.35935 0.23143 0.88837 0.0
H2255 H 0.33514 0.22971 0.86043 0.0
H2256 H 0.322 0.21873 0.87245 0.0
H2257 H 0.34255 0.25042 0.86225 0.0
H2258 H 0.36085 0.21339 0.86154 0.0
H2259 H 0.36957 0.19605 0.86991 0.0
H2260 H 0.39516 0.21668 0.88649 0.0
H2261 H 0.38649 0.23417 0.87833 0.0
C2262 C 0.38094 0.26636 0.8251 0.0
C2263 C 0.39097 0.27179 0.829 0.0
C2264 C 0.37415 0.26002 0.83263 0.0
C2265 C 0.37725 0.25898 0.84421 0.0
C2266 C 0.38733 0.26424 0.84811 0.0
C2267 C 0.39411 0.27065 0.84059 0.0
C2268 C 0.36992 0.2524 0.8522 0.0
C2269 C 0.37456 0.24276 0.85768 0.0
C2270 C 0.35826 0.25522 0.8539 0.0
C2271 C 0.35303 0.26561 0.84873 0.0
C2272 C 0.35785 0.2765 0.85063 0.0
C2273 C 0.35294 0.28623 0.84565 0.0
C2274 C 0.34315 0.2852 0.83882 0.0
C2275 C 0.33824 0.27443 0.83698 0.0
C2276 C 0.34313 0.26466 0.84193 0.0
C2277 C 0.34389 0.22203 0.89158 0.0
C2278 C 0.3332 0.21849 0.88731 0.0
C2279 C 0.35131 0.2285 0.88476 0.0
C2280 C 0.34829 0.23132 0.87344 0.0
C2281 C 0.33766 0.22768 0.86914 0.0
C2282 C 0.33016 0.22138 0.87601 0.0
C2283 C 0.356 0.23835 0.86615 0.0
C2284 C 0.35145 0.24815 0.86082 0.0
C2285 C 0.36772 0.23561 0.86453 0.0
C2286 C 0.37295 0.2251 0.86942 0.0
C2287 C 0.36828 0.21424 0.86704 0.0
C2288 C 0.37323 0.20438 0.87173 0.0
C2289 C 0.38289 0.20526 0.87876 0.0
C2290 C 0.38766 0.21601 0.88107 0.0
C2291 C 0.38274 0.2259 0.8764 0.0
H2292 H 0.38671 0.19762 0.88238 0.0
H2293 H 0.33936 0.29274 0.83498 0.0
H2294 H 0.7159 0.40217 0.84858 0.0
H2295 H 0.72754 0.39184 0.86266 0.0
H2296 H 0.73952 0.36905 0.83612 0.0
H2297 H 0.72809 0.37936 0.82199 0.0
H2298 H 0.72696 0.36968 0.86953 0.0
H2299 H 0.76699 0.36185 0.84116 0.0
H2300 H 0.77732 0.37128 0.8253 0.0
H2301 H 0.76461 0.40405 0.83623 0.0
H2302 H 0.75434 0.39484 0.85226 0.0
H2303 H 0.76111 0.32232 0.88631 0.0
H2304 H 0.75015 0.33651 0.87545 0.0
H2305 H 0.77242 0.36332 0.88777 0.0
H2306 H 0.78337 0.34919 0.89882 0.0
H2307 H 0.76864 0.36346 0.86362 0.0
H2308 H 0.7476 0.36292 0.89865 0.0
H2309 H 0.73742 0.35408 0.91493 0.0
H2310 H 0.71263 0.33966 0.89185 0.0
H2311 H 0.72277 0.34827 0.8754 0.0
C2312 C 0.72104 0.39498 0.84573 0.0
C2313 C 0.7211 0.39163 0.83414 0.0
C2314 C 0.72766 0.38908 0.85379 0.0
C2315 C 0.73449 0.37978 0.8504 0.0
C2316 C 0.73446 0.37634 0.83888 0.0
C2317 C 0.72787 0.38222 0.83082 0.0
C2318 C 0.74156 0.37351 0.85888 0.0
C2319 C 0.73608 0.36837 0.86828 0.0
C2320 C 0.7535 0.37198 0.85734 0.0
C2321 C 0.75983 0.37764 0.84786 0.0
C2322 C 0.76646 0.37107 0.84022 0.0
C2323 C 0.77229 0.37638 0.83119 0.0
C2324 C 0.7716 0.38825 0.82974 0.0
C2325 C 0.76511 0.39485 0.83734 0.0
C2326 C 0.75927 0.38959 0.8464 0.0
C2327 C 0.76367 0.33123 0.88673 0.0
C2328 C 0.77311 0.33464 0.89341 0.0
C2329 C 0.75737 0.33932 0.88057 0.0
C2330 C 0.76046 0.35094 0.88089 0.0
C2331 C 0.76991 0.35438 0.88747 0.0
C2332 C 0.77612 0.34631 0.89378 0.0
C2333 C 0.75396 0.35938 0.87404 0.0
C2334 C 0.75954 0.36489 0.86494 0.0
C2335 C 0.74215 0.36135 0.87592 0.0
C2336 C 0.736 0.35616 0.88578 0.0
C2337 C 0.74004 0.35778 0.89703 0.0
C2338 C 0.73426 0.35283 0.90629 0.0
C2339 C 0.7244 0.34629 0.90442 0.0
C2340 C 0.72028 0.34472 0.89329 0.0
C2341 C 0.72603 0.34964 0.88399 0.0
H2342 H 0.71994 0.34247 0.91161 0.0
H2343 H 0.77611 0.39234 0.82274 0.0
H2344 H 0.61537 0.72483 0.81789 0.0
H2345 H 0.62708 0.73593 0.83119 0.0
H2346 H 0.60336 0.72846 0.85855 0.0
H2347 H 0.59153 0.71726 0.84527 0.0
H2348 H 0.61006 0.75176 0.85736 0.0
H2349 H 0.62746 0.71438 0.85811 0.0
H2350 H 0.63596 0.69701 0.84958 0.0
H2351 H 0.66257 0.71732 0.83426 0.0
H2352 H 0.65413 0.73484 0.84258 0.0
H2353 H 0.64658 0.77202 0.90196 0.0
H2354 H 0.63363 0.76087 0.88982 0.0
H2355 H 0.65859 0.76156 0.86251 0.0
H2356 H 0.67172 0.77231 0.87474 0.0
H2357 H 0.65062 0.74108 0.86442 0.0
H2358 H 0.63341 0.77842 0.86253 0.0
H2359 H 0.62502 0.79624 0.87021 0.0
H2360 H 0.59834 0.77685 0.88657 0.0
H2361 H 0.60666 0.75889 0.87911 0.0
C2362 C 0.61261 0.72553 0.82672 0.0
C2363 C 0.60253 0.72012 0.83053 0.0
C2364 C 0.61934 0.73186 0.83432 0.0
C2365 C 0.61612 0.73293 0.84585 0.0
C2366 C 0.60598 0.7277 0.84967 0.0
C2367 C 0.59928 0.72128 0.84209 0.0
C2368 C 0.6234 0.73949 0.85389 0.0
C2369 C 0.61889 0.74936 0.85906 0.0
C2370 C 0.63497 0.73647 0.85584 0.0
C2371 C 0.6401 0.72594 0.85089 0.0
C2372 C 0.63507 0.71515 0.85285 0.0
C2373 C 0.63989 0.70528 0.84807 0.0
C2374 C 0.64978 0.70606 0.84136 0.0
C2375 C 0.6549 0.71672 0.83945 0.0
C2376 C 0.65011 0.72663 0.84421 0.0
C2377 C 0.64927 0.76985 0.89334 0.0
C2378 C 0.66018 0.77303 0.88931 0.0
C2379 C 0.64184 0.76352 0.88639 0.0
C2380 C 0.64508 0.76047 0.87519 0.0
C2381 C 0.65591 0.76377 0.87112 0.0
C2382 C 0.66341 0.76994 0.87812 0.0
C2383 C 0.63738 0.75352 0.86782 0.0
C2384 C 0.6418 0.74352 0.86277 0.0
C2385 C 0.62576 0.75651 0.86588 0.0
C2386 C 0.62073 0.7673 0.87036 0.0
C2387 C 0.6258 0.77795 0.86784 0.0
C2388 C 0.62105 0.78808 0.87214 0.0
C2389 C 0.61117 0.78768 0.8789 0.0
C2390 C 0.606 0.77715 0.88135 0.0
C2391 C 0.61073 0.76699 0.87708 0.0
H2392 H 0.6075 0.79552 0.88223 0.0
H2393 H 0.6535 0.6984 0.83767 0.0
H2394 H 0.75634 0.66948 0.10145 0.0
H2395 H 0.74545 0.65594 0.11316 0.0
H2396 H 0.77285 0.63123 0.11012 0.0
H2397 H 0.78346 0.64452 0.09784 0.0
H2398 H 0.75386 0.6203 0.10993 0.0
H2399 H 0.76954 0.6496 0.13424 0.0
H2400 H 0.77317 0.66941 0.14071 0.0
H2401 H 0.73704 0.67472 0.14535 0.0
H2402 H 0.73319 0.65498 0.13878 0.0
H2403 H 0.73547 0.60607 0.17312 0.0
H2404 H 0.7462 0.61705 0.15895 0.0
H2405 H 0.72249 0.60639 0.13261 0.0
H2406 H 0.7119 0.59505 0.14672 0.0
H2407 H 0.74001 0.63467 0.14748 0.0
H2408 H 0.73577 0.60673 0.10649 0.0
H2409 H 0.73454 0.58629 0.10115 0.0
H2410 H 0.75202 0.57694 0.13217 0.0
H2411 H 0.75349 0.59731 0.13761 0.0
C2412 C 0.75998 0.66111 0.10321 0.0
C2413 C 0.77078 0.65807 0.09886 0.0
C2414 C 0.75378 0.6534 0.10993 0.0
C2415 C 0.75845 0.64266 0.11278 0.0
C2416 C 0.76907 0.63947 0.10808 0.0
C2417 C 0.77515 0.64708 0.1011 0.0
C2418 C 0.75255 0.635 0.12106 0.0
C2419 C 0.75082 0.62344 0.11814 0.0
C2420 C 0.74878 0.63902 0.13188 0.0
C2421 C 0.75107 0.65086 0.13592 0.0
C2422 C 0.76237 0.65502 0.13658 0.0
C2423 C 0.76446 0.66623 0.14027 0.0
C2424 C 0.75534 0.67333 0.14341 0.0
C2425 C 0.7441 0.66922 0.1429 0.0
C2426 C 0.74195 0.65802 0.13921 0.0
C2427 C 0.73258 0.60597 0.16429 0.0
C2428 C 0.72281 0.59972 0.16105 0.0
C2429 C 0.73872 0.61227 0.1562 0.0
C2430 C 0.73518 0.61254 0.1447 0.0
C2431 C 0.7255 0.60618 0.14139 0.0
C2432 C 0.71943 0.59974 0.14947 0.0
C2433 C 0.74132 0.61996 0.13639 0.0
C2434 C 0.74304 0.63151 0.13928 0.0
C2435 C 0.74541 0.61582 0.12574 0.0
C2436 C 0.74462 0.60354 0.12251 0.0
C2437 C 0.73937 0.60031 0.11215 0.0
C2438 C 0.73863 0.58874 0.10911 0.0
C2439 C 0.74316 0.58032 0.11634 0.0
C2440 C 0.74847 0.58346 0.1266 0.0
C2441 C 0.74925 0.59502 0.12968 0.0
H2442 H 0.74258 0.57137 0.11397 0.0
H2443 H 0.75698 0.682 0.14626 0.0
H2444 H 0.31786 0.77242 0.11773 0.0
H2445 H 0.33128 0.76151 0.12952 0.0
H2446 H 0.35738 0.76539 0.10362 0.0
H2447 H 0.344 0.77639 0.09173 0.0
H2448 H 0.355 0.7428 0.11182 0.0
H2449 H 0.35971 0.78082 0.12675 0.0
H2450 H 0.35329 0.79932 0.1347 0.0
H2451 H 0.33846 0.78199 0.16359 0.0
H2452 H 0.34465 0.76336 0.15573 0.0
H2453 H 0.40032 0.72125 0.14649 0.0
H2454 H 0.38825 0.73279 0.13386 0.0
H2455 H 0.36247 0.73487 0.16032 0.0
H2456 H 0.37465 0.72365 0.17312 0.0
H2457 H 0.36547 0.75502 0.1512 0.0
H2458 H 0.35971 0.71707 0.13625 0.0
H2459 H 0.36551 0.69832 0.1284 0.0
H2460 H 0.38152 0.71503 0.09977 0.0
H2461 H 0.37594 0.73391 0.10753 0.0
C2462 C 0.32646 0.77099 0.11453 0.0
C2463 C 0.32987 0.77529 0.10379 0.0
C2464 C 0.33413 0.76479 0.1213 0.0
C2465 C 0.34533 0.76272 0.11745 0.0
C2466 C 0.34876 0.76693 0.10673 0.0
C2467 C 0.34113 0.77324 0.09998 0.0
C2468 C 0.35335 0.756 0.12461 0.0
C2469 C 0.35746 0.74553 0.12037 0.0
C2470 C 0.35628 0.75948 0.13584 0.0
C2471 C 0.35256 0.77068 0.1406 0.0
C2472 C 0.355 0.78094 0.13475 0.0
C2473 C 0.35142 0.79146 0.13925 0.0
C2474 C 0.34545 0.79183 0.14963 0.0
C2475 C 0.34307 0.78169 0.15555 0.0
C2476 C 0.34662 0.77115 0.15108 0.0
C2477 C 0.39205 0.72412 0.1496 0.0
C2478 C 0.38844 0.72153 0.16081 0.0
C2479 C 0.38514 0.73068 0.14235 0.0
C2480 C 0.37439 0.73459 0.14609 0.0
C2481 C 0.37074 0.73196 0.15725 0.0
C2482 C 0.3777 0.72552 0.16455 0.0
C2483 C 0.36705 0.74169 0.1385 0.0
C2484 C 0.36307 0.75226 0.14265 0.0
C2485 C 0.36416 0.73825 0.12722 0.0
C2486 C 0.36751 0.72691 0.12253 0.0
C2487 C 0.36455 0.71675 0.12832 0.0
C2488 C 0.36778 0.7061 0.12388 0.0
C2489 C 0.37391 0.70549 0.11361 0.0
C2490 C 0.37679 0.71552 0.10773 0.0
C2491 C 0.37359 0.7262 0.11215 0.0
H2492 H 0.3764 0.69723 0.11018 0.0
H2493 H 0.34269 0.79998 0.1531 0.0
H2494 H 0.64476 0.21435 0.09625 0.0
H2495 H 0.63152 0.22523 0.10833 0.0
H2496 H 0.65961 0.23535 0.13013 0.0
H2497 H 0.6729 0.22445 0.11818 0.0
H2498 H 0.64053 0.22869 0.14237 0.0
H2499 H 0.64942 0.25353 0.11018 0.0
H2500 H 0.65058 0.25826 0.0896 0.0
H2501 H 0.61428 0.25315 0.08619 0.0
H2502 H 0.61294 0.24824 0.10673 0.0
H2503 H 0.61798 0.27512 0.17305 0.0
H2504 H 0.62934 0.26278 0.16058 0.0
H2505 H 0.6003 0.25872 0.138 0.0
H2506 H 0.58902 0.27153 0.15023 0.0
H2507 H 0.61854 0.2611 0.12577 0.0
H2508 H 0.60885 0.23735 0.15759 0.0
H2509 H 0.60702 0.232 0.17796 0.0
H2510 H 0.64356 0.23389 0.18195 0.0
H2511 H 0.64561 0.23941 0.16164 0.0
C2512 C 0.64812 0.21884 0.10364 0.0
C2513 C 0.65991 0.21858 0.10621 0.0
C2514 C 0.64055 0.22508 0.11051 0.0
C2515 C 0.64462 0.23118 0.12004 0.0
C2516 C 0.65631 0.2307 0.1228 0.0
C2517 C 0.6639 0.2245 0.11593 0.0
C2518 C 0.63677 0.23826 0.12706 0.0
C2519 C 0.63579 0.23584 0.13879 0.0
C2520 C 0.6303 0.24733 0.12227 0.0
C2521 C 0.6311 0.25041 0.10996 0.0
C2522 C 0.6417 0.25334 0.10502 0.0
C2523 C 0.64239 0.25607 0.09337 0.0
C2524 C 0.63251 0.25598 0.08659 0.0
C2525 C 0.62193 0.2532 0.09145 0.0
C2526 C 0.6212 0.25045 0.1031 0.0
C2527 C 0.61402 0.27161 0.16542 0.0
C2528 C 0.60259 0.27423 0.16265 0.0
C2529 C 0.6205 0.26449 0.15833 0.0
C2530 C 0.6156 0.25958 0.14848 0.0
C2531 C 0.60425 0.26236 0.14558 0.0
C2532 C 0.59781 0.26967 0.15257 0.0
C2533 C 0.6224 0.25166 0.14119 0.0
C2534 C 0.62318 0.2539 0.12939 0.0
C2535 C 0.62856 0.2423 0.1459 0.0
C2536 C 0.62737 0.23888 0.1581 0.0
C2537 C 0.61649 0.23669 0.16282 0.0
C2538 C 0.61542 0.23362 0.17436 0.0
C2539 C 0.62517 0.23262 0.18125 0.0
C2540 C 0.63602 0.23467 0.1766 0.0
C2541 C 0.63714 0.23776 0.16508 0.0
H2542 H 0.62431 0.23025 0.19018 0.0
H2543 H 0.63306 0.25809 0.07757 0.0
H2544 H 0.87705 0.76819 0.6738 0.0
H2545 H 0.86632 0.7566 0.66013 0.0
H2546 H 0.89391 0.75967 0.63567 0.0
H2547 H 0.90456 0.77167 0.64919 0.0
H2548 H 0.87445 0.76227 0.62515 0.0
H2549 H 0.88915 0.7345 0.6511 0.0
H2550 H 0.8934 0.72577 0.66988 0.0
H2551 H 0.85739 0.72268 0.67683 0.0
H2552 H 0.85291 0.73154 0.65816 0.0
H2553 H 0.84919 0.7181 0.59019 0.0
H2554 H 0.86274 0.72832 0.60259 0.0
H2555 H 0.83607 0.7333 0.62771 0.0
H2556 H 0.82248 0.7232 0.6154 0.0
H2557 H 0.85696 0.72533 0.63695 0.0
H2558 H 0.84294 0.75476 0.61105 0.0
H2559 H 0.83933 0.76311 0.59196 0.0
H2560 H 0.87537 0.76212 0.58451 0.0
H2561 H 0.87917 0.75361 0.60351 0.0
C2562 C 0.88087 0.76638 0.66553 0.0
C2563 C 0.89168 0.77081 0.6626 0.0
C2564 C 0.87474 0.75969 0.65774 0.0
C2565 C 0.8794 0.75706 0.64695 0.0
C2566 C 0.89016 0.76155 0.64396 0.0
C2567 C 0.89624 0.76839 0.6517 0.0
C2568 C 0.87288 0.74985 0.63875 0.0
C2569 C 0.87082 0.75409 0.62768 0.0
C2570 C 0.86805 0.7392 0.64205 0.0
C2571 C 0.8707 0.73377 0.65326 0.0
C2572 C 0.88213 0.73202 0.65667 0.0
C2573 C 0.88459 0.72705 0.66729 0.0
C2574 C 0.87567 0.7237 0.67455 0.0
C2575 C 0.86429 0.72529 0.67119 0.0
C2576 C 0.86179 0.73028 0.66058 0.0
C2577 C 0.84622 0.72137 0.59835 0.0
C2578 C 0.83475 0.71988 0.60179 0.0
C2579 C 0.85395 0.72721 0.6054 0.0
C2580 C 0.85037 0.73157 0.61602 0.0
C2581 C 0.83899 0.72997 0.61954 0.0
C2582 C 0.83123 0.72425 0.61246 0.0
C2583 C 0.85839 0.73789 0.62352 0.0
C2584 C 0.86074 0.73345 0.63443 0.0
C2585 C 0.86361 0.74826 0.62002 0.0
C2586 C 0.86132 0.75343 0.60864 0.0
C2587 C 0.85008 0.75623 0.6053 0.0
C2588 C 0.84801 0.76101 0.5945 0.0
C2589 C 0.85711 0.76311 0.58701 0.0
C2590 C 0.86832 0.76047 0.59031 0.0
C2591 C 0.87044 0.75568 0.60109 0.0
H2592 H 0.85549 0.76681 0.57866 0.0
H2593 H 0.87759 0.71985 0.68278 0.0
H2594 H 0.22291 0.87591 0.66994 0.0
H2595 H 0.2346 0.86562 0.65608 0.0
H2596 H 0.2343 0.89511 0.63372 0.0
H2597 H 0.22212 0.90536 0.64746 0.0
H2598 H 0.23164 0.87663 0.62154 0.0
H2599 H 0.25843 0.88789 0.65001 0.0
H2600 H 0.26622 0.8905 0.66948 0.0
H2601 H 0.26672 0.85403 0.6744 0.0
H2602 H 0.25878 0.85119 0.65501 0.0
H2603 H 0.27623 0.84869 0.58849 0.0
H2604 H 0.26614 0.86278 0.60039 0.0
H2605 H 0.25697 0.83608 0.62426 0.0
H2606 H 0.26692 0.82198 0.61247 0.0
H2607 H 0.26637 0.85582 0.63458 0.0
H2608 H 0.23753 0.84546 0.60622 0.0
H2609 H 0.23022 0.84353 0.58647 0.0
H2610 H 0.23481 0.87965 0.58103 0.0
H2611 H 0.2423 0.88177 0.60071 0.0
C2612 C 0.22535 0.88024 0.6621 0.0
C2613 C 0.22167 0.89148 0.65983 0.0
C2614 C 0.2321 0.87436 0.6542 0.0
C2615 C 0.23558 0.87969 0.64398 0.0
C2616 C 0.23178 0.89086 0.64159 0.0
C2617 C 0.22484 0.8967 0.64944 0.0
C2618 C 0.24299 0.87339 0.63577 0.0
C2619 C 0.23937 0.87228 0.62434 0.0
C2620 C 0.25307 0.86768 0.63941 0.0
C2621 C 0.25794 0.86933 0.65107 0.0
C2622 C 0.26013 0.88042 0.65526 0.0
C2623 C 0.26458 0.88195 0.66629 0.0
C2624 C 0.26694 0.87244 0.67318 0.0
C2625 C 0.26489 0.86138 0.66905 0.0
C2626 C 0.26043 0.85981 0.65804 0.0
C2627 C 0.27204 0.84582 0.59626 0.0
C2628 C 0.27237 0.83421 0.59953 0.0
C2629 C 0.26627 0.85387 0.60302 0.0
C2630 C 0.26082 0.85043 0.61317 0.0
C2631 C 0.26116 0.83888 0.61646 0.0
C2632 C 0.26681 0.83083 0.60967 0.0
C2633 C 0.2548 0.85881 0.62054 0.0
C2634 C 0.25874 0.86034 0.63178 0.0
C2635 C 0.24514 0.86503 0.61668 0.0
C2636 C 0.2406 0.86375 0.60488 0.0
C2637 C 0.23708 0.85297 0.60077 0.0
C2638 C 0.23288 0.85185 0.5896 0.0
C2639 C 0.23208 0.86145 0.58249 0.0
C2640 C 0.23545 0.87221 0.58654 0.0
C2641 C 0.23967 0.87338 0.59771 0.0
H2642 H 0.22883 0.86057 0.57385 0.0
H2643 H 0.27039 0.87364 0.68171 0.0
H2644 H 0.1206 0.2117 0.66482 0.0
H2645 H 0.13153 0.22204 0.65027 0.0
H2646 H 0.09999 0.23406 0.63505 0.0
H2647 H 0.08902 0.22301 0.64921 0.0
H2648 H 0.11458 0.23047 0.61885 0.0
H2649 H 0.11656 0.25089 0.65437 0.0
H2650 H 0.11999 0.25339 0.67509 0.0
H2651 H 0.15528 0.24391 0.67057 0.0
H2652 H 0.15201 0.24122 0.64985 0.0
H2653 H 0.14422 0.27759 0.59129 0.0
H2654 H 0.13115 0.26568 0.60265 0.0
H2655 H 0.16007 0.24802 0.61745 0.0
H2656 H 0.17313 0.2599 0.60633 0.0
H2657 H 0.14546 0.25573 0.63357 0.0
H2658 H 0.14268 0.23524 0.59746 0.0
H2659 H 0.13863 0.23367 0.57676 0.0
H2660 H 0.10403 0.24487 0.58248 0.0
H2661 H 0.10792 0.24664 0.60319 0.0
C2662 C 0.11602 0.21646 0.65829 0.0
C2663 C 0.104 0.2167 0.65818 0.0
C2664 C 0.12225 0.22242 0.65002 0.0
C2665 C 0.1166 0.22915 0.64178 0.0
C2666 C 0.10456 0.22901 0.64138 0.0
C2667 C 0.0983 0.22273 0.64946 0.0
C2668 C 0.12329 0.23664 0.63395 0.0
C2669 C 0.12123 0.2361 0.62209 0.0
C2670 C 0.13199 0.24401 0.63813 0.0
C2671 C 0.13402 0.24578 0.65057 0.0
C2672 C 0.12503 0.24929 0.65781 0.0
C2673 C 0.12695 0.25074 0.66955 0.0
C2674 C 0.13784 0.24879 0.67414 0.0
C2675 C 0.14684 0.24542 0.667 0.0
C2676 C 0.14497 0.24394 0.65526 0.0
C2677 C 0.14778 0.27109 0.59688 0.0
C2678 C 0.15972 0.26976 0.59798 0.0
C2679 C 0.1403 0.26427 0.60333 0.0
C2680 C 0.14465 0.25596 0.61087 0.0
C2681 C 0.15654 0.25441 0.61171 0.0
C2682 C 0.164 0.26123 0.60534 0.0
C2683 C 0.13697 0.24931 0.61849 0.0
C2684 C 0.13879 0.2501 0.63035 0.0
C2685 C 0.12797 0.24235 0.61429 0.0
C2686 C 0.12562 0.24118 0.60186 0.0
C2687 C 0.13423 0.23745 0.59429 0.0
C2688 C 0.13196 0.23651 0.58256 0.0
C2689 C 0.12109 0.2392 0.5783 0.0
C2690 C 0.11246 0.2428 0.58578 0.0
C2691 C 0.11468 0.24377 0.59752 0.0
H2692 H 0.11936 0.23847 0.56922 0.0
H2693 H 0.1393 0.24991 0.68324 0.0
H2694 H 0.78072 0.0903 0.6453 0.0
H2695 H 0.76919 0.1001 0.63073 0.0
H2696 H 0.75192 0.11926 0.65723 0.0
H2697 H 0.76327 0.10952 0.6718 0.0
H2698 H 0.73692 0.11082 0.64164 0.0
H2699 H 0.77302 0.13132 0.64153 0.0
H2700 H 0.79398 0.1332 0.63957 0.0
H2701 H 0.7921 0.12039 0.60511 0.0
H2702 H 0.77112 0.1183 0.60692 0.0
H2703 H 0.71831 0.16336 0.61802 0.0
H2704 H 0.72907 0.14851 0.62817 0.0
H2705 H 0.73382 0.13007 0.59649 0.0
H2706 H 0.72273 0.14479 0.58625 0.0
H2707 H 0.75479 0.13518 0.61169 0.0
H2708 H 0.71804 0.11728 0.61125 0.0
H2709 H 0.69705 0.11622 0.61344 0.0
H2710 H 0.70015 0.12466 0.64913 0.0
H2711 H 0.72117 0.12596 0.64712 0.0
C2712 C 0.77447 0.0966 0.64802 0.0
C2713 C 0.77294 0.09914 0.65972 0.0
C2714 C 0.7679 0.1022 0.63968 0.0
C2715 C 0.75973 0.11042 0.64291 0.0
C2716 C 0.75815 0.1129 0.65456 0.0
C2717 C 0.7647 0.10736 0.66288 0.0
C2718 C 0.75282 0.1166 0.63424 0.0
C2719 C 0.74083 0.11615 0.6351 0.0
C2720 C 0.75793 0.12329 0.62549 0.0
C2721 C 0.77053 0.1245 0.62441 0.0
C2722 C 0.77709 0.1288 0.63357 0.0
C2723 C 0.78897 0.12993 0.63248 0.0
C2724 C 0.79438 0.12688 0.62223 0.0
C2725 C 0.78791 0.12272 0.61305 0.0
C2726 C 0.77602 0.12157 0.6141 0.0
C2727 C 0.7216 0.15613 0.61321 0.0
C2728 C 0.71969 0.15522 0.60135 0.0
C2729 C 0.72771 0.14765 0.61902 0.0
C2730 C 0.73218 0.13823 0.61305 0.0
C2731 C 0.73039 0.1373 0.6012 0.0
C2732 C 0.72404 0.14567 0.59541 0.0
C2733 C 0.73895 0.12959 0.61933 0.0
C2734 C 0.7509 0.12962 0.61805 0.0
C2735 C 0.73382 0.12254 0.62773 0.0
C2736 C 0.72118 0.12182 0.629 0.0
C2737 C 0.71424 0.11903 0.61954 0.0
C2738 C 0.70234 0.11836 0.62075 0.0
C2739 C 0.69727 0.1204 0.63141 0.0
C2740 C 0.70409 0.12309 0.64088 0.0
C2741 C 0.716 0.12379 0.63971 0.0
H2742 H 0.68805 0.11987 0.63234 0.0
H2743 H 0.80358 0.12776 0.6214 0.0
H2744 H 0.87982 0.22741 0.32211 0.0
H2745 H 0.86975 0.23938 0.33592 0.0
H2746 H 0.8917 0.22696 0.36297 0.0
H2747 H 0.90182 0.21477 0.34916 0.0
H2748 H 0.86939 0.22778 0.36969 0.0
H2749 H 0.89602 0.25332 0.35288 0.0
H2750 H 0.9068 0.26284 0.33739 0.0
H2751 H 0.87553 0.27687 0.32397 0.0
H2752 H 0.86453 0.2673 0.33928 0.0
H2753 H 0.84536 0.27325 0.40483 0.0
H2754 H 0.85994 0.26207 0.39455 0.0
H2755 H 0.83956 0.26375 0.36376 0.0
H2756 H 0.82487 0.27466 0.37398 0.0
H2757 H 0.86417 0.26921 0.36142 0.0
H2758 H 0.83781 0.24081 0.3772 0.0
H2759 H 0.82753 0.23141 0.3931 0.0
H2760 H 0.8596 0.22326 0.40925 0.0
H2761 H 0.87006 0.23278 0.39351 0.0
C2762 C 0.88253 0.22718 0.33099 0.0
C2763 C 0.89168 0.22017 0.33451 0.0
C2764 C 0.8768 0.23408 0.33887 0.0
C2765 C 0.88012 0.23421 0.35042 0.0
C2766 C 0.88907 0.22704 0.35407 0.0
C2767 C 0.89483 0.22009 0.34616 0.0
C2768 C 0.87408 0.24181 0.3586 0.0
C2769 C 0.86846 0.23689 0.36803 0.0
C2770 C 0.87286 0.25368 0.35641 0.0
C2771 C 0.87943 0.25952 0.3472 0.0
C2772 C 0.89142 0.25837 0.34658 0.0
C2773 C 0.89758 0.26379 0.33784 0.0
C2774 C 0.89185 0.27044 0.32969 0.0
C2775 C 0.87996 0.27171 0.33029 0.0
C2776 C 0.87376 0.26631 0.33901 0.0
C2777 C 0.84403 0.27127 0.39586 0.0
C2778 C 0.83397 0.27478 0.3902 0.0
C2779 C 0.85233 0.26489 0.39003 0.0
C2780 C 0.85077 0.26212 0.37843 0.0
C2781 C 0.84089 0.26584 0.37271 0.0
C2782 C 0.8325 0.27202 0.37857 0.0
C2783 C 0.85924 0.25509 0.37221 0.0
C2784 C 0.86532 0.26015 0.36318 0.0
C2785 C 0.86099 0.2434 0.37485 0.0
C2786 C 0.85471 0.23764 0.38427 0.0
C2787 C 0.84267 0.23712 0.3842 0.0
C2788 C 0.83681 0.23174 0.39317 0.0
C2789 C 0.84291 0.22678 0.40221 0.0
C2790 C 0.85488 0.22714 0.40226 0.0
C2791 C 0.86078 0.23252 0.39332 0.0
H2792 H 0.83836 0.22262 0.40914 0.0
H2793 H 0.89663 0.27463 0.32293 0.0
H2794 H 0.75978 0.88422 0.32006 0.0
H2795 H 0.74871 0.87336 0.33409 0.0
H2796 H 0.76964 0.88711 0.36134 0.0
H2797 H 0.78049 0.89833 0.34736 0.0
H2798 H 0.7546 0.85698 0.34722 0.0
H2799 H 0.75472 0.88801 0.3863 0.0
H2800 H 0.75447 0.90882 0.39009 0.0
H2801 H 0.73863 0.91477 0.3574 0.0
H2802 H 0.73865 0.894 0.35348 0.0
H2803 H 0.73875 0.82426 0.39438 0.0
H2804 H 0.74919 0.83814 0.38267 0.0
H2805 H 0.71973 0.86054 0.3829 0.0
H2806 H 0.7095 0.84694 0.39521 0.0
H2807 H 0.73793 0.87305 0.3829 0.0
H2808 H 0.72525 0.84126 0.3603 0.0
H2809 H 0.72302 0.82086 0.35519 0.0
H2810 H 0.75955 0.81742 0.35222 0.0
H2811 H 0.762 0.83777 0.35746 0.0
C2812 C 0.76199 0.88499 0.32904 0.0
C2813 C 0.77102 0.89212 0.3326 0.0
C2814 C 0.75566 0.87876 0.33706 0.0
C2815 C 0.75827 0.87947 0.34879 0.0
C2816 C 0.7673 0.8866 0.35237 0.0
C2817 C 0.77354 0.89296 0.34436 0.0
C2818 C 0.75189 0.87232 0.35716 0.0
C2819 C 0.75095 0.86052 0.35501 0.0
C2820 C 0.74693 0.87694 0.36724 0.0
C2821 C 0.74681 0.88945 0.36956 0.0
C2822 C 0.75115 0.89375 0.37994 0.0
C2823 C 0.75105 0.90554 0.38211 0.0
C2824 C 0.74657 0.91311 0.37397 0.0
C2825 C 0.74214 0.9089 0.36367 0.0
C2826 C 0.74221 0.89712 0.36147 0.0
C2827 C 0.73458 0.83224 0.39207 0.0
C2828 C 0.7233 0.8345 0.39556 0.0
C2829 C 0.74052 0.84013 0.38534 0.0
C2830 C 0.73513 0.85023 0.38161 0.0
C2831 C 0.72405 0.85278 0.3856 0.0
C2832 C 0.71821 0.84501 0.39261 0.0
C2833 C 0.74076 0.85773 0.37299 0.0
C2834 C 0.74159 0.86955 0.37511 0.0
C2835 C 0.74526 0.85322 0.36265 0.0
C2836 C 0.74381 0.84101 0.35936 0.0
C2837 C 0.73281 0.83613 0.35862 0.0
C2838 C 0.73151 0.82458 0.3557 0.0
C2839 C 0.74114 0.81784 0.35341 0.0
C2840 C 0.7521 0.82265 0.35401 0.0
C2841 C 0.75345 0.83419 0.35694 0.0
H2842 H 0.74012 0.8089 0.35116 0.0
H2843 H 0.74651 0.92224 0.37567 0.0
H2844 H 0.14773 0.72255 0.40815 0.0
H2845 H 0.13455 0.73459 0.3971 0.0
H2846 H 0.15953 0.73697 0.3699 0.0
H2847 H 0.17285 0.7254 0.38105 0.0
H2848 H 0.15052 0.75682 0.37291 0.0
H2849 H 0.13528 0.71844 0.36918 0.0
H2850 H 0.1276 0.70003 0.37622 0.0
H2851 H 0.09996 0.71773 0.39289 0.0
H2852 H 0.10756 0.73626 0.38606 0.0
H2853 H 0.11713 0.76986 0.32421 0.0
H2854 H 0.12882 0.76022 0.33865 0.0
H2855 H 0.10269 0.76631 0.36408 0.0
H2856 H 0.09089 0.77603 0.34968 0.0
H2857 H 0.11108 0.74368 0.36391 0.0
H2858 H 0.12572 0.78204 0.36521 0.0
H2859 H 0.13341 0.79995 0.35703 0.0
H2860 H 0.16246 0.78164 0.34376 0.0
H2861 H 0.15485 0.76358 0.35171 0.0
C2862 C 0.1504 0.72567 0.39982 0.0
C2863 C 0.16132 0.72302 0.39546 0.0
C2864 C 0.14285 0.73251 0.39349 0.0
C2865 C 0.14598 0.73658 0.38259 0.0
C2866 C 0.15692 0.73398 0.37829 0.0
C2867 C 0.16452 0.72733 0.38468 0.0
C2868 C 0.13796 0.74351 0.37554 0.0
C2869 C 0.14193 0.75388 0.37088 0.0
C2870 C 0.12663 0.73986 0.37312 0.0
C2871 C 0.12206 0.72874 0.37723 0.0
C2872 C 0.12761 0.71841 0.37442 0.0
C2873 C 0.12327 0.70796 0.37836 0.0
C2874 C 0.11332 0.70772 0.38503 0.0
C2875 C 0.10767 0.71793 0.38775 0.0
C2876 C 0.11199 0.72841 0.38384 0.0
C2877 C 0.11385 0.76917 0.33287 0.0
C2878 C 0.10308 0.77373 0.33579 0.0
C2879 C 0.12056 0.7637 0.34112 0.0
C2880 C 0.11664 0.76266 0.35243 0.0
C2881 C 0.10586 0.76707 0.35539 0.0
C2882 C 0.09916 0.77264 0.34715 0.0
C2883 C 0.12379 0.75677 0.36109 0.0
C2884 C 0.11964 0.74664 0.36606 0.0
C2885 C 0.135 0.76056 0.36368 0.0
C2886 C 0.13966 0.77144 0.35899 0.0
C2887 C 0.1337 0.78182 0.36048 0.0
C2888 C 0.13806 0.792 0.35589 0.0
C2889 C 0.14841 0.79193 0.34986 0.0
C2890 C 0.15444 0.78168 0.34843 0.0
C2891 C 0.15012 0.77147 0.35298 0.0
H2892 H 0.15176 0.79983 0.34632 0.0
H2893 H 0.10997 0.69962 0.38807 0.0
H2894 H 0.21482 0.09058 0.34953 0.0
H2895 H 0.22696 0.09986 0.36394 0.0
H2896 H 0.24043 0.12254 0.33801 0.0
H2897 H 0.22853 0.11328 0.32359 0.0
H2898 H 0.25726 0.11421 0.35118 0.0
H2899 H 0.21976 0.13123 0.35697 0.0
H2900 H 0.19904 0.13087 0.36119 0.0
H2901 H 0.20575 0.115 0.39372 0.0
H2902 H 0.22651 0.11514 0.38963 0.0
H2903 H 0.27451 0.1657 0.37666 0.0
H2904 H 0.26419 0.15054 0.36662 0.0
H2905 H 0.26242 0.13081 0.39783 0.0
H2906 H 0.27301 0.14595 0.40799 0.0
H2907 H 0.2407 0.13404 0.38498 0.0
H2908 H 0.27882 0.12036 0.38003 0.0
H2909 H 0.29943 0.12168 0.37556 0.0
H2910 H 0.29149 0.132 0.34112 0.0
H2911 H 0.27082 0.13092 0.34544 0.0
C2912 C 0.22036 0.09755 0.3469 0.0
C2913 C 0.22069 0.1012 0.3354 0.0
C2914 C 0.22728 0.10285 0.35515 0.0
C2915 C 0.23456 0.11191 0.35204 0.0
C2916 C 0.23492 0.11552 0.34058 0.0
C2917 C 0.22805 0.11024 0.33235 0.0
C2918 C 0.24181 0.11781 0.36064 0.0
C2919 C 0.25364 0.11855 0.35856 0.0
C2920 C 0.23713 0.12315 0.37048 0.0
C2921 C 0.22466 0.12305 0.37293 0.0
C2922 C 0.21681 0.12757 0.36498 0.0
C2923 C 0.20506 0.12742 0.36736 0.0
C2924 C 0.20108 0.12287 0.3777 0.0
C2925 C 0.20884 0.11849 0.3857 0.0
C2926 C 0.2206 0.1186 0.38336 0.0
C2927 C 0.27197 0.15813 0.38141 0.0
C2928 C 0.27455 0.15701 0.39312 0.0
C2929 C 0.26612 0.14946 0.37564 0.0
C2930 C 0.26261 0.13957 0.38149 0.0
C2931 C 0.26511 0.13839 0.39319 0.0
C2932 C 0.27117 0.14701 0.39895 0.0
C2933 C 0.25604 0.13073 0.37526 0.0
C2934 C 0.24436 0.12944 0.37776 0.0
C2935 C 0.26083 0.12495 0.36575 0.0
C2936 C 0.27326 0.12562 0.36309 0.0
C2937 C 0.28146 0.12301 0.37153 0.0
C2938 C 0.29316 0.1237 0.36902 0.0
C2939 C 0.29677 0.12694 0.35807 0.0
C2940 C 0.28868 0.12949 0.3496 0.0
C2941 C 0.27697 0.12882 0.35208 0.0
H2942 H 0.30583 0.12747 0.35614 0.0
H2943 H 0.19198 0.12277 0.37953 0.0
H2944 H 0.67336 0.88184 0.76329 0.0
H2945 H 0.6596 0.87193 0.75114 0.0
H2946 H 0.63248 0.8936 0.76389 0.0
H2947 H 0.64622 0.90351 0.77631 0.0
H2948 H 0.62598 0.87165 0.76365 0.0
H2949 H 0.64252 0.89727 0.73691 0.0
H2950 H 0.65802 0.90753 0.72687 0.0
H2951 H 0.67072 0.87568 0.71349 0.0
H2952 H 0.65541 0.86518 0.72361 0.0
H2953 H 0.58876 0.84773 0.72045 0.0
H2954 H 0.60013 0.86211 0.73075 0.0
H2955 H 0.63001 0.84052 0.72799 0.0
H2956 H 0.61868 0.82601 0.71792 0.0
H2957 H 0.6332 0.86501 0.72223 0.0
H2958 H 0.61775 0.83975 0.75163 0.0
H2959 H 0.60205 0.82994 0.76184 0.0
H2960 H 0.58668 0.86243 0.76981 0.0
H2961 H 0.60222 0.87243 0.75949 0.0
C2962 C 0.66448 0.88457 0.7635 0.0
C2963 C 0.6609 0.89348 0.77078 0.0
C2964 C 0.65663 0.87893 0.75648 0.0
C2965 C 0.64505 0.88214 0.75648 0.0
C2966 C 0.6414 0.89103 0.76373 0.0
C2967 C 0.64926 0.89668 0.7708 0.0
C2968 C 0.63676 0.87583 0.74922 0.0
C2969 C 0.62742 0.87042 0.75454 0.0
C2970 C 0.63869 0.87414 0.73735 0.0
C2971 C 0.64785 0.88042 0.7311 0.0
C2972 C 0.64866 0.89243 0.73189 0.0
C2973 C 0.65741 0.8983 0.72617 0.0
C2974 C 0.66537 0.89226 0.71956 0.0
C2975 C 0.66456 0.88035 0.71862 0.0
C2976 C 0.65583 0.87443 0.72434 0.0
C2977 C 0.59776 0.84607 0.722 0.0
C2978 C 0.60283 0.83572 0.71844 0.0
C2979 C 0.60423 0.85428 0.72787 0.0
C2980 C 0.61588 0.85234 0.73009 0.0
C2981 C 0.62102 0.84216 0.72631 0.0
C2982 C 0.61453 0.83386 0.72063 0.0
C2983 C 0.62267 0.86069 0.73675 0.0
C2984 C 0.63169 0.86646 0.7313 0.0
C2985 C 0.62037 0.86282 0.74845 0.0
C2986 C 0.61105 0.85682 0.75466 0.0
C2987 C 0.61096 0.84479 0.75546 0.0
C2988 C 0.60211 0.8392 0.76129 0.0
C2989 C 0.59335 0.84555 0.76643 0.0
C2990 C 0.59345 0.85752 0.76579 0.0
C2991 C 0.60228 0.86315 0.75996 0.0
H2992 H 0.58651 0.84121 0.77095 0.0
H2993 H 0.67215 0.89682 0.71516 0.0
H2994 H 0.14711 0.591 0.71617 0.0
H2995 H 0.13369 0.60172 0.72819 0.0
H2996 H 0.16121 0.62373 0.73942 0.0
H2997 H 0.17471 0.61298 0.72762 0.0
H2998 H 0.1483 0.6174 0.7571 0.0
H2999 H 0.14173 0.63251 0.71926 0.0
H3000 H 0.13708 0.63154 0.69866 0.0
H3001 H 0.10428 0.61681 0.70655 0.0
H3002 H 0.1088 0.61755 0.72721 0.0
H3003 H 0.11946 0.66783 0.77508 0.0
H3004 H 0.1308 0.65375 0.76448 0.0
H3005 H 0.10143 0.63139 0.76249 0.0
H3006 H 0.09003 0.64536 0.77334 0.0
H3007 H 0.11371 0.63606 0.74082 0.0
H3008 H 0.12007 0.62282 0.77909 0.0
H3009 H 0.12497 0.62466 0.79957 0.0
H3010 H 0.15856 0.63678 0.79064 0.0
H3011 H 0.15379 0.63519 0.77009 0.0
C3012 C 0.15031 0.59813 0.72119 0.0
C3013 C 0.16199 0.60115 0.72091 0.0
C3014 C 0.14262 0.60427 0.72803 0.0
C3015 C 0.14643 0.61358 0.73463 0.0
C3016 C 0.15808 0.61656 0.73441 0.0
C3017 C 0.16578 0.61042 0.72762 0.0
C3018 C 0.13835 0.62026 0.7418 0.0
C3019 C 0.14079 0.62154 0.75352 0.0
C3020 C 0.12838 0.62543 0.73718 0.0
C3021 C 0.12566 0.62495 0.72477 0.0
C3022 C 0.13357 0.62896 0.7166 0.0
C3023 C 0.13095 0.62848 0.70491 0.0
C3024 C 0.12041 0.62408 0.7013 0.0
C3025 C 0.11245 0.62019 0.70936 0.0
C3026 C 0.11503 0.62064 0.72106 0.0
C3027 C 0.11542 0.6599 0.77244 0.0
C3028 C 0.10386 0.65769 0.77503 0.0
C3029 C 0.12191 0.65186 0.76642 0.0
C3030 C 0.11693 0.64155 0.76276 0.0
C3031 C 0.1054 0.63931 0.76528 0.0
C3032 C 0.09894 0.64726 0.77151 0.0
C3033 C 0.12381 0.63332 0.75602 0.0
C3034 C 0.12115 0.63177 0.7444 0.0
C3035 C 0.13363 0.628 0.7607 0.0
C3036 C 0.13653 0.62899 0.77305 0.0
C3037 C 0.12846 0.62599 0.78149 0.0
C3038 C 0.13122 0.62696 0.79311 0.0
C3039 C 0.14206 0.63086 0.7964 0.0
C3040 C 0.15016 0.63377 0.78808 0.0
C3041 C 0.14744 0.63283 0.77644 0.0
H3042 H 0.14418 0.6316 0.8054 0.0
H3043 H 0.1184 0.62372 0.69225 0.0
H3044 H 0.34794 0.09517 0.78179 0.0
H3045 H 0.36182 0.1074 0.77193 0.0
H3046 H 0.3344 0.123 0.75261 0.0
H3047 H 0.32047 0.11107 0.76264 0.0
H3048 H 0.36829 0.10993 0.7507 0.0
H3049 H 0.33963 0.15076 0.74798 0.0
H3050 H 0.32437 0.16018 0.7592 0.0
H3051 H 0.33634 0.1436 0.7898 0.0
H3052 H 0.35176 0.13421 0.77881 0.0
H3053 H 0.39172 0.14807 0.70988 0.0
H3054 H 0.37987 0.13515 0.72135 0.0
H3055 H 0.3823 0.15844 0.75005 0.0
H3056 H 0.39347 0.17171 0.7383 0.0
H3057 H 0.36215 0.15198 0.74913 0.0
H3058 H 0.39737 0.1313 0.748 0.0
H3059 H 0.41427 0.12212 0.73922 0.0
H3060 H 0.39238 0.09897 0.72078 0.0
H3061 H 0.37533 0.10811 0.72933 0.0
C3062 C 0.34487 0.1012 0.77543 0.0
C3063 C 0.33309 0.10222 0.77307 0.0
C3064 C 0.35282 0.10816 0.76979 0.0
C3065 C 0.34914 0.11623 0.76166 0.0
C3066 C 0.33742 0.11701 0.75904 0.0
C3067 C 0.32946 0.11015 0.76475 0.0
C3068 C 0.3575 0.12395 0.75599 0.0
C3069 C 0.36699 0.11913 0.75037 0.0
C3070 C 0.35598 0.13598 0.75584 0.0
C3071 C 0.34678 0.14169 0.76254 0.0
C3072 C 0.33903 0.14916 0.75711 0.0
C3073 C 0.33035 0.15449 0.76343 0.0
C3074 C 0.32937 0.15246 0.7752 0.0
C3075 C 0.33709 0.14513 0.78068 0.0
C3076 C 0.34579 0.13979 0.77441 0.0
C3077 C 0.38976 0.15037 0.71866 0.0
C3078 C 0.39348 0.16086 0.72323 0.0
C3079 C 0.38306 0.14294 0.72525 0.0
C3080 C 0.38032 0.14569 0.73667 0.0
C3081 C 0.38424 0.15611 0.74127 0.0
C3082 C 0.39065 0.16368 0.73458 0.0
C3083 C 0.37293 0.13799 0.74365 0.0
C3084 C 0.36356 0.1428 0.74949 0.0
C3085 C 0.37484 0.12601 0.74437 0.0
C3086 C 0.38507 0.12045 0.73924 0.0
C3087 C 0.39616 0.1243 0.74202 0.0
C3088 C 0.40577 0.11909 0.73709 0.0
C3089 C 0.4044 0.10998 0.72943 0.0
C3090 C 0.39342 0.10604 0.7267 0.0
C3091 C 0.38379 0.11122 0.7316 0.0
H3092 H 0.41185 0.10597 0.72562 0.0
H3093 H 0.32263 0.15659 0.78007 0.0
H3094 H 0.87246 0.32176 0.77559 0.0
H3095 H 0.86151 0.33498 0.76369 0.0
H3096 H 0.89091 0.35731 0.76124 0.0
H3097 H 0.90183 0.34427 0.77359 0.0
H3098 H 0.87227 0.36966 0.76331 0.0
H3099 H 0.88357 0.33896 0.73906 0.0
H3100 H 0.88623 0.31884 0.73319 0.0
H3101 H 0.84978 0.31373 0.73345 0.0
H3102 H 0.8469 0.3338 0.73948 0.0
H3103 H 0.84666 0.39961 0.71616 0.0
H3104 H 0.85986 0.38791 0.72748 0.0
H3105 H 0.8322 0.36497 0.73617 0.0
H3106 H 0.81895 0.37653 0.72482 0.0
H3107 H 0.85179 0.35357 0.72965 0.0
H3108 H 0.8414 0.38495 0.75511 0.0
H3109 H 0.83974 0.40538 0.76032 0.0
H3110 H 0.87611 0.40952 0.75643 0.0
H3111 H 0.87796 0.38914 0.75106 0.0
C3112 C 0.87659 0.32952 0.77257 0.0
C3113 C 0.88803 0.33193 0.77542 0.0
C3114 C 0.87033 0.33704 0.76572 0.0
C3115 C 0.87548 0.34699 0.76132 0.0
C3116 C 0.88679 0.34964 0.76447 0.0
C3117 C 0.89301 0.34219 0.77152 0.0
C3118 C 0.86903 0.35446 0.75331 0.0
C3119 C 0.86795 0.36617 0.75584 0.0
C3120 C 0.86336 0.34992 0.74357 0.0
C3121 C 0.86503 0.33787 0.7398 0.0
C3122 C 0.87612 0.33353 0.73793 0.0
C3123 C 0.87767 0.32213 0.73457 0.0
C3124 C 0.86818 0.315 0.73297 0.0
C3125 C 0.85712 0.31926 0.7347 0.0
C3126 C 0.85553 0.33066 0.73807 0.0
C3127 C 0.84338 0.39207 0.72046 0.0
C3128 C 0.83173 0.38903 0.71961 0.0
C3129 C 0.85093 0.38542 0.72695 0.0
C3130 C 0.84697 0.37565 0.73274 0.0
C3131 C 0.83541 0.3725 0.73177 0.0
C3132 C 0.82784 0.37914 0.7253 0.0
C3133 C 0.85482 0.36866 0.73984 0.0
C3134 C 0.85619 0.35705 0.73708 0.0
C3135 C 0.86091 0.37334 0.74923 0.0
C3136 C 0.8598 0.38555 0.75257 0.0
C3137 C 0.84903 0.39024 0.75529 0.0
C3138 C 0.84806 0.4018 0.75828 0.0
C3139 C 0.85781 0.40875 0.75867 0.0
C3140 C 0.86856 0.40413 0.75611 0.0
C3141 C 0.86958 0.39257 0.7531 0.0
H3142 H 0.85704 0.4177 0.76099 0.0
H3143 H 0.8694 0.30617 0.73038 0.0
H3144 H 0.64647 0.0915 0.21586 0.0
H3145 H 0.63344 0.10303 0.22755 0.0
H3146 H 0.6603 0.12785 0.23308 0.0
H3147 H 0.67345 0.11625 0.22171 0.0
H3148 H 0.65005 0.12328 0.25249 0.0
H3149 H 0.63753 0.13253 0.21422 0.0
H3150 H 0.63049 0.12835 0.19473 0.0
H3151 H 0.60038 0.11252 0.2088 0.0
H3152 H 0.60732 0.11648 0.22839 0.0
H3153 H 0.61932 0.17227 0.27012 0.0
H3154 H 0.63042 0.15841 0.25905 0.0
H3155 H 0.60265 0.13412 0.26133 0.0
H3156 H 0.59145 0.14794 0.27254 0.0
H3157 H 0.61212 0.13685 0.23882 0.0
H3158 H 0.62439 0.12913 0.27722 0.0
H3159 H 0.63156 0.13399 0.2965 0.0
H3160 H 0.6624 0.14767 0.28179 0.0
H3161 H 0.65534 0.14305 0.2624 0.0
C3162 C 0.64958 0.09945 0.21951 0.0
C3163 C 0.661 0.10295 0.21786 0.0
C3164 C 0.64211 0.10604 0.22616 0.0
C3165 C 0.64586 0.11635 0.23112 0.0
C3166 C 0.65722 0.11991 0.22938 0.0
C3167 C 0.66472 0.11328 0.22284 0.0
C3168 C 0.63811 0.12335 0.23838 0.0
C3169 C 0.64181 0.12634 0.24944 0.0
C3170 C 0.6272 0.12706 0.23454 0.0
C3171 C 0.62301 0.12468 0.22277 0.0
C3172 C 0.62946 0.12808 0.21316 0.0
C3173 C 0.62548 0.12577 0.2021 0.0
C3174 C 0.61501 0.12015 0.20053 0.0
C3175 C 0.60849 0.11686 0.21003 0.0
C3176 C 0.61245 0.11914 0.22111 0.0
C3177 C 0.61555 0.16399 0.26829 0.0
C3178 C 0.6045 0.1612 0.27223 0.0
C3179 C 0.62192 0.15607 0.26199 0.0
C3180 C 0.61736 0.14524 0.25945 0.0
C3181 C 0.6063 0.14244 0.26324 0.0
C3182 C 0.59995 0.15032 0.26967 0.0
C3183 C 0.62421 0.13694 0.25276 0.0
C3184 C 0.62033 0.1337 0.24186 0.0
C3185 C 0.63499 0.13307 0.25669 0.0
C3186 C 0.63929 0.13583 0.26834 0.0
C3187 C 0.63266 0.13327 0.27808 0.0
C3188 C 0.63671 0.13596 0.28904 0.0
C3189 C 0.64742 0.14116 0.29037 0.0
C3190 C 0.65411 0.14365 0.28075 0.0
C3191 C 0.65009 0.14099 0.26977 0.0
H3192 H 0.65054 0.14323 0.29885 0.0
H3193 H 0.61194 0.11837 0.19196 0.0
H3194 H 0.90649 0.64918 0.22376 0.0
H3195 H 0.89521 0.63537 0.23486 0.0
H3196 H 0.86458 0.65506 0.22814 0.0
H3197 H 0.87592 0.66916 0.21768 0.0
H3198 H 0.86437 0.64942 0.24895 0.0
H3199 H 0.87214 0.62827 0.21413 0.0
H3200 H 0.88441 0.61954 0.19928 0.0
H3201 H 0.90081 0.59868 0.2248 0.0
H3202 H 0.88872 0.60738 0.23983 0.0
H3203 H 0.82062 0.61022 0.26083 0.0
H3204 H 0.83445 0.62178 0.25028 0.0
H3205 H 0.86226 0.60309 0.26589 0.0
H3206 H 0.84845 0.59135 0.27652 0.0
H3207 H 0.86538 0.60744 0.24214 0.0
H3208 H 0.85596 0.62812 0.27661 0.0
H3209 H 0.84276 0.6366 0.29078 0.0
H3210 H 0.82847 0.65836 0.26475 0.0
H3211 H 0.84148 0.64989 0.25038 0.0
C3212 C 0.89734 0.65051 0.22466 0.0
C3213 C 0.89206 0.66023 0.21991 0.0
C3214 C 0.89089 0.64258 0.23094 0.0
C3215 C 0.87899 0.64407 0.23223 0.0
C3216 C 0.87374 0.65373 0.22733 0.0
C3217 C 0.88022 0.66178 0.22133 0.0
C3218 C 0.87196 0.63583 0.23895 0.0
C3219 C 0.86453 0.64026 0.24733 0.0
C3220 C 0.87238 0.62382 0.23715 0.0
C3221 C 0.87962 0.61856 0.22811 0.0
C3222 C 0.87842 0.62188 0.21658 0.0
C3223 C 0.88533 0.61693 0.20813 0.0
C3224 C 0.89341 0.60859 0.2111 0.0
C3225 C 0.89457 0.60516 0.22252 0.0
C3226 C 0.88768 0.61009 0.231 0.0
C3227 C 0.82967 0.60848 0.26199 0.0
C3228 C 0.83343 0.59993 0.26962 0.0
C3229 C 0.83756 0.61512 0.25595 0.0
C3230 C 0.84936 0.61338 0.25744 0.0
C3231 C 0.85318 0.60457 0.26468 0.0
C3232 C 0.84527 0.59791 0.27076 0.0
C3233 C 0.85763 0.62114 0.25177 0.0
C3234 C 0.86531 0.61661 0.24372 0.0
C3235 C 0.85735 0.63309 0.25373 0.0
C3236 C 0.84964 0.63831 0.2624 0.0
C3237 C 0.84995 0.63467 0.27389 0.0
C3238 C 0.84251 0.63948 0.28196 0.0
C3239 C 0.83477 0.648 0.27866 0.0
C3240 C 0.83447 0.65176 0.26729 0.0
C3241 C 0.84189 0.64696 0.25918 0.0
H3242 H 0.82901 0.65171 0.28493 0.0
H3243 H 0.89876 0.60477 0.20454 0.0
H3244 H 0.34673 0.90359 0.21783 0.0
H3245 H 0.36078 0.89295 0.22922 0.0
H3246 H 0.33714 0.8646 0.23189 0.0
H3247 H 0.32298 0.8753 0.22087 0.0
H3248 H 0.34601 0.86871 0.25185 0.0
H3249 H 0.36114 0.86458 0.21354 0.0
H3250 H 0.36842 0.87138 0.1949 0.0
H3251 H 0.39561 0.88946 0.2119 0.0
H3252 H 0.38839 0.88287 0.23067 0.0
H3253 H 0.38099 0.82161 0.26551 0.0
H3254 H 0.36926 0.83545 0.2551 0.0
H3255 H 0.39374 0.86212 0.26259 0.0
H3256 H 0.40556 0.84831 0.2732 0.0
H3257 H 0.38576 0.86096 0.23885 0.0
H3258 H 0.37119 0.86313 0.27718 0.0
H3259 H 0.3639 0.85538 0.29544 0.0
H3260 H 0.33547 0.84003 0.27781 0.0
H3261 H 0.34268 0.84755 0.25941 0.0
C3262 C 0.34456 0.89506 0.22079 0.0
C3263 C 0.33374 0.89029 0.21846 0.0
C3264 C 0.35261 0.88898 0.22728 0.0
C3265 C 0.35005 0.87793 0.23134 0.0
C3266 C 0.33929 0.87313 0.22889 0.0
C3267 C 0.33121 0.87925 0.22256 0.0
C3268 C 0.35839 0.87139 0.23839 0.0
C3269 C 0.35467 0.86695 0.24894 0.0
C3270 C 0.36981 0.86938 0.23478 0.0
C3271 C 0.37415 0.87335 0.22351 0.0
C3272 C 0.36861 0.87008 0.21331 0.0
C3273 C 0.37274 0.87388 0.20272 0.0
C3274 C 0.38245 0.88088 0.20221 0.0
C3275 C 0.38808 0.88406 0.2123 0.0
C3276 C 0.38397 0.88029 0.22292 0.0
C3277 C 0.38393 0.83041 0.26493 0.0
C3278 C 0.3942 0.83387 0.27021 0.0
C3279 C 0.3772 0.8383 0.259 0.0
C3280 C 0.38062 0.84978 0.25816 0.0
C3281 C 0.39097 0.85327 0.26319 0.0
C3282 C 0.39767 0.84539 0.26927 0.0
C3283 C 0.37323 0.85808 0.25208 0.0
C3284 C 0.37714 0.86286 0.24177 0.0
C3285 C 0.36193 0.86032 0.25583 0.0
C3286 C 0.35753 0.85583 0.2669 0.0
C3287 C 0.36343 0.85802 0.27718 0.0
C3288 C 0.35931 0.85368 0.28756 0.0
C3289 C 0.34924 0.84719 0.28779 0.0
C3290 C 0.34327 0.84505 0.27763 0.0
C3291 C 0.34737 0.84936 0.26722 0.0
H3292 H 0.34606 0.84384 0.29583 0.0
H3293 H 0.38564 0.88381 0.19401 0.0
H3294 H 0.17331 0.38792 0.25808 0.0
H3295 H 0.15984 0.37639 0.24699 0.0
H3296 H 0.13272 0.38536 0.27052 0.0
H3297 H 0.14607 0.39729 0.28139 0.0
H3298 H 0.14894 0.35823 0.2521 0.0
H3299 H 0.10691 0.38448 0.25743 0.0
H3300 H 0.10086 0.40466 0.25932 0.0
H3301 H 0.13144 0.41565 0.24202 0.0
H3302 H 0.13759 0.39553 0.2399 0.0
H3303 H 0.10327 0.32242 0.23654 0.0
H3304 H 0.11535 0.33599 0.24695 0.0
H3305 H 0.11075 0.36088 0.21995 0.0
H3306 H 0.09819 0.34753 0.20978 0.0
H3307 H 0.1107 0.37153 0.23909 0.0
H3308 H 0.13551 0.34355 0.22229 0.0
H3309 H 0.14269 0.32414 0.21794 0.0
H3310 H 0.14875 0.31816 0.25376 0.0
H3311 H 0.14146 0.33749 0.25833 0.0
C3312 C 0.16445 0.38752 0.26084 0.0
C3313 C 0.16075 0.39352 0.2706 0.0
C3314 C 0.15676 0.3809 0.2545 0.0
C3315 C 0.14523 0.38005 0.25785 0.0
C3316 C 0.14151 0.38605 0.26761 0.0
C3317 C 0.14916 0.39283 0.27386 0.0
C3318 C 0.13726 0.37253 0.25138 0.0
C3319 C 0.14059 0.36116 0.24925 0.0
C3320 C 0.12643 0.37638 0.24746 0.0
C3321 C 0.12276 0.3885 0.24862 0.0
C3322 C 0.11232 0.3912 0.254 0.0
C3323 C 0.10888 0.40263 0.25512 0.0
C3324 C 0.11578 0.41143 0.25083 0.0
C3325 C 0.12612 0.40882 0.24538 0.0
C3326 C 0.1296 0.39741 0.24423 0.0
C3327 C 0.10479 0.33081 0.23287 0.0
C3328 C 0.09987 0.33389 0.22231 0.0
C3329 C 0.11173 0.33855 0.23879 0.0
C3330 C 0.11419 0.34937 0.23412 0.0
C3331 C 0.10901 0.35257 0.22372 0.0
C3332 C 0.10186 0.34493 0.21791 0.0
C3333 C 0.12237 0.35723 0.23989 0.0
C3334 C 0.11907 0.36862 0.24194 0.0
C3335 C 0.13341 0.35354 0.24337 0.0
C3336 C 0.13784 0.34193 0.24065 0.0
C3337 C 0.1383 0.33807 0.22924 0.0
C3338 C 0.1424 0.32709 0.22674 0.0
C3339 C 0.14614 0.31991 0.23557 0.0
C3340 C 0.14583 0.32372 0.24692 0.0
C3341 C 0.14173 0.33469 0.24948 0.0
H3342 H 0.14931 0.31141 0.23361 0.0
H3343 H 0.1131 0.42027 0.25171 0.0
H3344 H 0.7839 0.646 0.89822 0.0
H3345 H 0.77397 0.63225 0.88591 0.0
H3346 H 0.75183 0.65923 0.87361 0.0
H3347 H 0.76195 0.67307 0.88559 0.0
H3348 H 0.75319 0.62443 0.88448 0.0
H3349 H 0.74516 0.65532 0.84609 0.0
H3350 H 0.75443 0.67196 0.83687 0.0
H3351 H 0.78708 0.66135 0.85016 0.0
H3352 H 0.77803 0.64458 0.85931 0.0
H3353 H 0.71142 0.60046 0.84736 0.0
H3354 H 0.72294 0.61204 0.86051 0.0
H3355 H 0.75015 0.61342 0.83542 0.0
H3356 H 0.73835 0.60248 0.82204 0.0
H3357 H 0.74793 0.63305 0.84318 0.0
H3358 H 0.75116 0.59665 0.86139 0.0
H3359 H 0.74453 0.5785 0.86999 0.0
H3360 H 0.72623 0.59723 0.89586 0.0
H3361 H 0.73263 0.61549 0.88733 0.0
C3362 C 0.77691 0.64901 0.8929 0.0
C3363 C 0.77378 0.66065 0.8928 0.0
C3364 C 0.77122 0.64113 0.88589 0.0
C3365 C 0.76227 0.64473 0.87871 0.0
C3366 C 0.75889 0.65629 0.87889 0.0
C3367 C 0.76466 0.66419 0.88577 0.0
C3368 C 0.75656 0.63647 0.87089 0.0
C3369 C 0.75205 0.62628 0.87544 0.0
C3370 C 0.75536 0.63873 0.85904 0.0
C3371 C 0.76089 0.64876 0.85348 0.0
C3372 C 0.75432 0.65652 0.847 0.0
C3373 C 0.75954 0.66598 0.8418 0.0
C3374 C 0.77133 0.66773 0.84296 0.0
C3375 C 0.77794 0.66001 0.8493 0.0
C3376 C 0.77277 0.65054 0.85451 0.0
C3377 C 0.7199 0.60318 0.84472 0.0
C3378 C 0.724 0.60063 0.83369 0.0
C3379 C 0.72652 0.60974 0.85226 0.0
C3380 C 0.73751 0.61353 0.84904 0.0
C3381 C 0.74169 0.61068 0.83811 0.0
C3382 C 0.73496 0.6044 0.83047 0.0
C3383 C 0.7444 0.62099 0.85675 0.0
C3384 C 0.7491 0.6311 0.8522 0.0
C3385 C 0.74616 0.61841 0.86849 0.0
C3386 C 0.7423 0.60744 0.87366 0.0
C3387 C 0.74566 0.5969 0.86887 0.0
C3388 C 0.74195 0.58659 0.87373 0.0
C3389 C 0.73494 0.58671 0.88345 0.0
C3390 C 0.73165 0.59714 0.88833 0.0
C3391 C 0.73533 0.60748 0.88349 0.0
H3392 H 0.73208 0.57872 0.8872 0.0
H3393 H 0.77535 0.67506 0.83893 0.0
H3394 H 0.78024 0.34651 0.094 0.0
H3395 H 0.76888 0.36039 0.10484 0.0
H3396 H 0.7536 0.33283 0.1242 0.0
H3397 H 0.7648 0.31889 0.11335 0.0
H3398 H 0.73765 0.348 0.11715 0.0
H3399 H 0.77441 0.34924 0.13575 0.0
H3400 H 0.7954 0.35151 0.13681 0.0
H3401 H 0.79249 0.38595 0.12413 0.0
H3402 H 0.77148 0.38381 0.12283 0.0
H3403 H 0.71946 0.37478 0.16858 0.0
H3404 H 0.73035 0.36368 0.15454 0.0
H3405 H 0.73454 0.3939 0.13367 0.0
H3406 H 0.72333 0.40508 0.14759 0.0
H3407 H 0.75573 0.37926 0.13966 0.0
H3408 H 0.7183 0.37802 0.12269 0.0
H3409 H 0.69734 0.37532 0.12271 0.0
H3410 H 0.70166 0.34035 0.13336 0.0
H3411 H 0.72266 0.3429 0.13359 0.0
C3412 C 0.77448 0.34339 0.10058 0.0
C3413 C 0.77345 0.33158 0.10282 0.0
C3414 C 0.76802 0.35134 0.10678 0.0
C3415 C 0.76045 0.34763 0.11536 0.0
C3416 C 0.75937 0.33587 0.11759 0.0
C3417 C 0.76583 0.32791 0.11141 0.0
C3418 C 0.75359 0.35598 0.12202 0.0
C3419 C 0.74162 0.35479 0.12212 0.0
C3420 C 0.75876 0.36501 0.12828 0.0
C3421 C 0.77139 0.36632 0.12906 0.0
C3422 C 0.77825 0.35726 0.13309 0.0
C3423 C 0.79015 0.35853 0.13375 0.0
C3424 C 0.79528 0.36886 0.1305 0.0
C3425 C 0.78851 0.37795 0.12661 0.0
C3426 C 0.77661 0.37671 0.12592 0.0
C3427 C 0.72268 0.37907 0.161 0.0
C3428 C 0.72056 0.39079 0.15917 0.0
C3429 C 0.72886 0.37272 0.15299 0.0
C3430 C 0.73319 0.378 0.14312 0.0
C3431 C 0.73122 0.38971 0.14127 0.0
C3432 C 0.7248 0.39605 0.14918 0.0
C3433 C 0.73987 0.37115 0.13486 0.0
C3434 C 0.75179 0.37258 0.13452 0.0
C3435 C 0.73468 0.36228 0.12845 0.0
C3436 C 0.72206 0.36069 0.12827 0.0
C3437 C 0.71478 0.36979 0.12515 0.0
C3438 C 0.70289 0.36828 0.12509 0.0
C3439 C 0.69817 0.35768 0.12806 0.0
C3440 C 0.70533 0.34856 0.13107 0.0
C3441 C 0.71723 0.35003 0.13116 0.0
H3442 H 0.68896 0.35653 0.12802 0.0
H3443 H 0.80449 0.36983 0.13103 0.0
H3444 H 0.64941 0.77498 0.09614 0.0
H3445 H 0.63687 0.76338 0.10823 0.0
H3446 H 0.66479 0.75763 0.13181 0.0
H3447 H 0.67746 0.76899 0.11963 0.0
H3448 H 0.65401 0.73826 0.1278 0.0
H3449 H 0.64268 0.77624 0.13811 0.0
H3450 H 0.63621 0.7961 0.13488 0.0
H3451 H 0.60517 0.78369 0.11948 0.0
H3452 H 0.61153 0.76374 0.12246 0.0
H3453 H 0.61922 0.71791 0.17431 0.0
H3454 H 0.6321 0.7294 0.16234 0.0
H3455 H 0.60669 0.73008 0.1355 0.0
H3456 H 0.59382 0.71848 0.14731 0.0
H3457 H 0.61618 0.75203 0.14152 0.0
H3458 H 0.62815 0.71384 0.13138 0.0
H3459 H 0.63489 0.69419 0.13524 0.0
H3460 H 0.66515 0.70754 0.1514 0.0
H3461 H 0.6585 0.72729 0.14777 0.0
C3462 C 0.65288 0.7713 0.10393 0.0
C3463 C 0.66444 0.77292 0.10691 0.0
C3464 C 0.64568 0.76471 0.11086 0.0
C3465 C 0.64986 0.75973 0.121 0.0
C3466 C 0.66138 0.76138 0.12403 0.0
C3467 C 0.66861 0.76791 0.11706 0.0
C3468 C 0.6423 0.75255 0.12828 0.0
C3469 C 0.64582 0.74135 0.13094 0.0
C3470 C 0.63151 0.75649 0.13221 0.0
C3471 C 0.62764 0.76849 0.13041 0.0
C3472 C 0.63452 0.77774 0.13395 0.0
C3473 C 0.63086 0.78902 0.13218 0.0
C3474 C 0.6203 0.79116 0.12695 0.0
C3475 C 0.61336 0.78202 0.12351 0.0
C3476 C 0.61698 0.77072 0.12525 0.0
C3477 C 0.6164 0.72045 0.16583 0.0
C3478 C 0.60551 0.71728 0.16175 0.0
C3479 C 0.62377 0.72698 0.15901 0.0
C3480 C 0.62032 0.73056 0.14806 0.0
C3481 C 0.60948 0.7274 0.14394 0.0
C3482 C 0.60218 0.72072 0.15068 0.0
C3483 C 0.62793 0.73781 0.14098 0.0
C3484 C 0.6244 0.74901 0.13838 0.0
C3485 C 0.63876 0.73392 0.13721 0.0
C3486 C 0.64276 0.72205 0.13942 0.0
C3487 C 0.63618 0.71259 0.13586 0.0
C3488 C 0.64 0.70143 0.13798 0.0
C3489 C 0.65042 0.69961 0.14359 0.0
C3490 C 0.65707 0.70896 0.14707 0.0
C3491 C 0.65328 0.72014 0.14497 0.0
H3492 H 0.65337 0.69097 0.14522 0.0
H3493 H 0.61748 0.79989 0.12559 0.0
H3494 H 0.25753 0.6056 0.17384 0.0
H3495 H 0.24639 0.61613 0.15961 0.0
H3496 H 0.27036 0.60604 0.13328 0.0
H3497 H 0.2813 0.59511 0.14742 0.0
H3498 H 0.25187 0.63379 0.14818 0.0
H3499 H 0.25761 0.60608 0.10711 0.0
H3500 H 0.25942 0.5857 0.10177 0.0
H3501 H 0.2417 0.57586 0.13249 0.0
H3502 H 0.23965 0.59618 0.13795 0.0
H3503 H 0.23738 0.66856 0.10191 0.0
H3504 H 0.24782 0.65476 0.11369 0.0
H3505 H 0.22022 0.63042 0.10975 0.0
H3506 H 0.21 0.64402 0.09745 0.0
H3507 H 0.23941 0.61931 0.11018 0.0
H3508 H 0.2225 0.64829 0.13382 0.0
H3509 H 0.21829 0.66801 0.14019 0.0
H3510 H 0.25409 0.67384 0.14645 0.0
H3511 H 0.25853 0.65419 0.13998 0.0
C3512 C 0.26037 0.60553 0.16499 0.0
C3513 C 0.27031 0.59955 0.16175 0.0
C3514 C 0.254 0.61156 0.15687 0.0
C3515 C 0.25749 0.61185 0.14535 0.0
C3516 C 0.26735 0.60578 0.14206 0.0
C3517 C 0.27364 0.59958 0.15016 0.0
C3518 C 0.2512 0.61909 0.137 0.0
C3519 C 0.24913 0.63059 0.13989 0.0
C3520 C 0.24746 0.61491 0.12623 0.0
C3521 C 0.24859 0.60266 0.12299 0.0
C3522 C 0.25407 0.59957 0.11271 0.0
C3523 C 0.25514 0.58803 0.10966 0.0
C3524 C 0.25071 0.57949 0.1168 0.0
C3525 C 0.24517 0.58248 0.12699 0.0
C3526 C 0.24407 0.59401 0.13007 0.0
C3527 C 0.23361 0.66021 0.10345 0.0
C3528 C 0.22283 0.65739 0.0989 0.0
C3529 C 0.23956 0.65234 0.11021 0.0
C3530 C 0.23466 0.64167 0.11287 0.0
C3531 C 0.22414 0.63863 0.10787 0.0
C3532 C 0.2183 0.6464 0.10087 0.0
C3533 C 0.2402 0.63399 0.12137 0.0
C3534 C 0.24215 0.62246 0.11849 0.0
C3535 C 0.2435 0.63802 0.13234 0.0
C3536 C 0.24085 0.64981 0.13632 0.0
C3537 C 0.22948 0.6538 0.13649 0.0
C3538 C 0.22705 0.66496 0.14013 0.0
C3539 C 0.23592 0.67218 0.1437 0.0
C3540 C 0.24723 0.66824 0.14367 0.0
C3541 C 0.24971 0.65709 0.14003 0.0
H3542 H 0.23402 0.68082 0.1465 0.0
H3543 H 0.25156 0.57056 0.11443 0.0
H3544 H 0.31955 0.22792 0.11469 0.0
H3545 H 0.33288 0.23959 0.12573 0.0
H3546 H 0.36086 0.228 0.10451 0.0
H3547 H 0.34756 0.2161 0.09344 0.0
H3548 H 0.3668 0.22787 0.12673 0.0
H3549 H 0.35042 0.25467 0.10103 0.0
H3550 H 0.33516 0.26478 0.09049 0.0
H3551 H 0.32137 0.27742 0.1222 0.0
H3552 H 0.33646 0.26723 0.13295 0.0
H3553 H 0.40327 0.27255 0.14928 0.0
H3554 H 0.39185 0.26147 0.13554 0.0
H3555 H 0.3626 0.2636 0.15804 0.0
H3556 H 0.374 0.27444 0.17195 0.0
H3557 H 0.35882 0.26915 0.13336 0.0
H3558 H 0.37513 0.24034 0.15869 0.0
H3559 H 0.39116 0.23057 0.1684 0.0
H3560 H 0.40616 0.2224 0.13578 0.0
H3561 H 0.39029 0.23229 0.12589 0.0
C3562 C 0.32853 0.22783 0.11233 0.0
C3563 C 0.33247 0.2211 0.10313 0.0
C3564 C 0.33614 0.23456 0.11863 0.0
C3565 C 0.34783 0.2348 0.11583 0.0
C3566 C 0.35185 0.22797 0.10678 0.0
C3567 C 0.34423 0.2212 0.10045 0.0
C3568 C 0.35579 0.24211 0.12252 0.0
C3569 C 0.36517 0.23694 0.12801 0.0
C3570 C 0.35363 0.25393 0.12423 0.0
C3571 C 0.34453 0.2601 0.11781 0.0
C3572 C 0.34408 0.25953 0.10577 0.0
C3573 C 0.33547 0.26529 0.09975 0.0
C3574 C 0.32729 0.27172 0.10567 0.0
C3575 C 0.32771 0.27243 0.11762 0.0
C3576 C 0.3363 0.26667 0.12369 0.0
C3577 C 0.3944 0.27069 0.15128 0.0
C3578 C 0.38952 0.27433 0.1617 0.0
C3579 C 0.38791 0.26436 0.14345 0.0
C3580 C 0.37643 0.26174 0.14583 0.0
C3581 C 0.37147 0.26557 0.15609 0.0
C3582 C 0.378 0.2717 0.16402 0.0
C3583 C 0.36959 0.25483 0.13772 0.0
C3584 C 0.36047 0.2601 0.13196 0.0
C3585 C 0.37209 0.24317 0.13562 0.0
C3586 C 0.3816 0.23718 0.14156 0.0
C3587 C 0.3819 0.23657 0.15359 0.0
C3588 C 0.39095 0.23098 0.15913 0.0
C3589 C 0.3997 0.2259 0.15271 0.0
C3590 C 0.39939 0.22636 0.14074 0.0
C3591 C 0.39037 0.23195 0.13517 0.0
H3592 H 0.40669 0.22158 0.15701 0.0
H3593 H 0.32062 0.27618 0.101 0.0
H3594 H 0.25856 0.38746 0.82303 0.0
H3595 H 0.2481 0.37641 0.83744 0.0
H3596 H 0.273 0.38597 0.86304 0.0
H3597 H 0.28347 0.3972 0.84869 0.0
H3598 H 0.26786 0.36212 0.86231 0.0
H3599 H 0.24878 0.39812 0.86518 0.0
H3600 H 0.23895 0.4154 0.858 0.0
H3601 H 0.21202 0.39451 0.84408 0.0
H3602 H 0.22178 0.37709 0.85103 0.0
H3603 H 0.21644 0.34738 0.90313 0.0
H3604 H 0.22826 0.3615 0.89305 0.0
H3605 H 0.23801 0.33575 0.86836 0.0
H3606 H 0.22647 0.32158 0.87845 0.0
H3607 H 0.22705 0.36973 0.87168 0.0
H3608 H 0.26501 0.33996 0.85958 0.0
H3609 H 0.2748 0.32289 0.86733 0.0
H3610 H 0.26458 0.33225 0.90143 0.0
H3611 H 0.25487 0.34947 0.89391 0.0
C3612 C 0.2618 0.38725 0.83173 0.0
C3613 C 0.27184 0.3932 0.83473 0.0
C3614 C 0.25579 0.38097 0.83995 0.0
C3615 C 0.25977 0.38044 0.85129 0.0
C3616 C 0.2698 0.38632 0.85433 0.0
C3617 C 0.27573 0.39275 0.84614 0.0
C3618 C 0.25353 0.37348 0.85984 0.0
C3619 C 0.25897 0.3638 0.86444 0.0
C3620 C 0.242 0.37583 0.86273 0.0
C3621 C 0.23607 0.38629 0.85855 0.0
C3622 C 0.24081 0.3972 0.8605 0.0
C3623 C 0.23524 0.40702 0.85649 0.0
C3624 C 0.22488 0.40605 0.85057 0.0
C3625 C 0.22005 0.39525 0.84867 0.0
C3626 C 0.2256 0.3854 0.85265 0.0
C3627 C 0.22113 0.34472 0.89558 0.0
C3628 C 0.22056 0.33333 0.89164 0.0
C3629 C 0.22786 0.3528 0.88982 0.0
C3630 C 0.23414 0.34963 0.88006 0.0
C3631 C 0.23343 0.33832 0.87602 0.0
C3632 C 0.22678 0.33024 0.88178 0.0
C3633 C 0.24127 0.35814 0.8739 0.0
C3634 C 0.236 0.3681 0.8697 0.0
C3635 C 0.253 0.3561 0.8715 0.0
C3636 C 0.25915 0.34597 0.87616 0.0
C3637 C 0.26493 0.33843 0.86874 0.0
C3638 C 0.27044 0.32871 0.87309 0.0
C3639 C 0.27029 0.32647 0.88486 0.0
C3640 C 0.26467 0.33398 0.89231 0.0
C3641 C 0.25915 0.34371 0.88801 0.0
H3642 H 0.27453 0.31893 0.88821 0.0
H3643 H 0.22057 0.41367 0.84747 0.0
H3644 H 0.64444 0.21713 0.90209 0.0
H3645 H 0.63061 0.22951 0.8922 0.0
H3646 H 0.65579 0.2368 0.86611 0.0
H3647 H 0.66961 0.22468 0.87592 0.0
H3648 H 0.64579 0.25602 0.87334 0.0
H3649 H 0.63349 0.21809 0.86154 0.0
H3650 H 0.6266 0.19836 0.86474 0.0
H3651 H 0.59685 0.21136 0.8821 0.0
H3652 H 0.60366 0.23118 0.87913 0.0
H3653 H 0.61676 0.27431 0.82395 0.0
H3654 H 0.62736 0.26334 0.83828 0.0
H3655 H 0.59835 0.26484 0.86114 0.0
H3656 H 0.58766 0.27596 0.84686 0.0
H3657 H 0.60825 0.24251 0.85861 0.0
H3658 H 0.61953 0.28062 0.86793 0.0
H3659 H 0.62641 0.30025 0.86419 0.0
H3660 H 0.65814 0.28686 0.85119 0.0
H3661 H 0.65137 0.26713 0.85469 0.0
C3662 C 0.647 0.22133 0.89421 0.0
C3663 C 0.65815 0.21994 0.88982 0.0
C3664 C 0.63908 0.22838 0.88857 0.0
C3665 C 0.64218 0.23407 0.87841 0.0
C3666 C 0.65324 0.23256 0.87397 0.0
C3667 C 0.66113 0.22558 0.87959 0.0
C3668 C 0.63408 0.24177 0.87236 0.0
C3669 C 0.6376 0.25305 0.87008 0.0
C3670 C 0.62323 0.23801 0.86845 0.0
C3671 C 0.61916 0.2261 0.87025 0.0
C3672 C 0.62554 0.21674 0.86613 0.0
C3673 C 0.62163 0.20554 0.86788 0.0
C3674 C 0.61131 0.20361 0.87365 0.0
C3675 C 0.60486 0.21287 0.87766 0.0
C3676 C 0.60873 0.22409 0.87594 0.0
C3677 C 0.61262 0.27234 0.83203 0.0
C3678 C 0.60137 0.27602 0.83428 0.0
C3679 C 0.61871 0.26611 0.84022 0.0
C3680 C 0.61365 0.26336 0.85077 0.0
C3681 C 0.60239 0.26692 0.85304 0.0
C3682 C 0.59633 0.2733 0.8449 0.0
C3683 C 0.62017 0.25659 0.85928 0.0
C3684 C 0.61635 0.24553 0.86204 0.0
C3685 C 0.63078 0.26052 0.86362 0.0
C3686 C 0.6349 0.27238 0.8615 0.0
C3687 C 0.62793 0.28185 0.86418 0.0
C3688 C 0.63182 0.293 0.86213 0.0
C3689 C 0.6427 0.2948 0.85744 0.0
C3690 C 0.64971 0.28545 0.85482 0.0
C3691 C 0.64586 0.27428 0.85685 0.0
H3692 H 0.64569 0.30344 0.85586 0.0
H3693 H 0.6083 0.19493 0.875 0.0
H3694 H 0.34666 0.77503 0.90427 0.0
H3695 H 0.3605 0.76306 0.89398 0.0
H3696 H 0.33525 0.75638 0.86778 0.0
H3697 H 0.32134 0.76802 0.87811 0.0
H3698 H 0.34569 0.73729 0.87336 0.0
H3699 H 0.35771 0.77598 0.86425 0.0
H3700 H 0.36421 0.79559 0.86874 0.0
H3701 H 0.39377 0.78204 0.886 0.0
H3702 H 0.38736 0.76233 0.88173 0.0
H3703 H 0.37685 0.72263 0.82388 0.0
H3704 H 0.36561 0.73271 0.83838 0.0
H3705 H 0.39339 0.72931 0.86253 0.0
H3706 H 0.40471 0.71903 0.84807 0.0
H3707 H 0.38348 0.7521 0.86063 0.0
H3708 H 0.37231 0.71334 0.86737 0.0
H3709 H 0.36579 0.69393 0.86212 0.0
H3710 H 0.3345 0.70787 0.84867 0.0
H3711 H 0.3409 0.72739 0.85368 0.0
C3712 C 0.34408 0.77103 0.8963 0.0
C3713 C 0.3329 0.77249 0.892 0.0
C3714 C 0.352 0.76421 0.89042 0.0
C3715 C 0.34894 0.75889 0.88006 0.0
C3716 C 0.3378 0.76036 0.87578 0.0
C3717 C 0.32986 0.76706 0.88168 0.0
C3718 C 0.35723 0.75172 0.87361 0.0
C3719 C 0.35392 0.74057 0.87052 0.0
C3720 C 0.36814 0.75585 0.87022 0.0
C3721 C 0.37199 0.76769 0.87279 0.0
C3722 C 0.36555 0.77718 0.86908 0.0
C3723 C 0.36922 0.78832 0.87157 0.0
C3724 C 0.37938 0.79006 0.87768 0.0
C3725 C 0.38589 0.78068 0.88129 0.0
C3726 C 0.38225 0.76953 0.87883 0.0
C3727 C 0.38058 0.72401 0.83227 0.0
C3728 C 0.39166 0.72003 0.83484 0.0
C3729 C 0.37413 0.72973 0.84055 0.0
C3730 C 0.37867 0.73168 0.85151 0.0
C3731 C 0.38976 0.72784 0.8541 0.0
C3732 C 0.39618 0.72195 0.84586 0.0
C3733 C 0.37175 0.73787 0.86012 0.0
C3734 C 0.37532 0.7488 0.86363 0.0
C3735 C 0.36105 0.73358 0.86384 0.0
C3736 C 0.35713 0.72184 0.86083 0.0
C3737 C 0.36408 0.71228 0.86321 0.0
C3738 C 0.3604 0.70125 0.86029 0.0
C3739 C 0.34975 0.69967 0.85505 0.0
C3740 C 0.34275 0.70911 0.85273 0.0
C3741 C 0.3464 0.72016 0.85562 0.0
H3742 H 0.34691 0.69113 0.8528 0.0
H3743 H 0.38221 0.79869 0.8796 0.0
H3744 H 0.0653 0.20983 0.27422 0.0
H3745 H 0.06196 0.22372 0.2589 0.0
H3746 H 0.05293 0.24935 0.284 0.0
H3747 H 0.05602 0.23542 0.29937 0.0
H3748 H 0.03949 0.25099 0.26497 0.0
H3749 H 0.07977 0.24822 0.2735 0.0
H3750 H 0.09815 0.23816 0.27628 0.0
H3751 H 0.09708 0.22617 0.24149 0.0
H3752 H 0.07859 0.23604 0.23855 0.0
H3753 H 0.05389 0.30165 0.23343 0.0
H3754 H 0.05119 0.28604 0.24717 0.0
H3755 H 0.06095 0.26149 0.22127 0.0
H3756 H 0.06384 0.27705 0.20756 0.0
H3757 H 0.07321 0.25874 0.24023 0.0
H3758 H 0.03336 0.26297 0.23134 0.0
H3759 H 0.01512 0.27335 0.22881 0.0
H3760 H 0.0155 0.28309 0.2643 0.0
H3761 H 0.03383 0.27291 0.26702 0.0
C3762 C 0.06246 0.21838 0.27647 0.0
C3763 C 0.06106 0.22158 0.288 0.0
C3764 C 0.06057 0.22631 0.26772 0.0
C3765 C 0.0574 0.23762 0.27034 0.0
C3766 C 0.05541 0.24067 0.2818 0.0
C3767 C 0.05722 0.23271 0.29057 0.0
C3768 C 0.05699 0.24645 0.26122 0.0
C3769 C 0.04687 0.25277 0.2596 0.0
C3770 C 0.06658 0.24862 0.25412 0.0
C3771 C 0.07774 0.24277 0.25584 0.0
C3772 C 0.08341 0.24337 0.26647 0.0
C3773 C 0.09386 0.23771 0.26807 0.0
C3774 C 0.09876 0.2315 0.25908 0.0
C3775 C 0.09326 0.23097 0.24845 0.0
C3776 C 0.0828 0.2366 0.24681 0.0
C3777 C 0.05526 0.29291 0.23061 0.0
C3778 C 0.05918 0.29059 0.21945 0.0
C3779 C 0.05367 0.28399 0.23846 0.0
C3780 C 0.05585 0.27259 0.23523 0.0
C3781 C 0.05925 0.27023 0.22394 0.0
C3782 C 0.06088 0.27913 0.21612 0.0
C3783 C 0.05567 0.26328 0.24387 0.0
C3784 C 0.06575 0.25691 0.24547 0.0
C3785 C 0.04606 0.26113 0.25096 0.0
C3786 C 0.03503 0.26726 0.24936 0.0
C3787 C 0.02961 0.26741 0.23859 0.0
C3788 C 0.01924 0.27324 0.23712 0.0
C3789 C 0.01417 0.2789 0.24638 0.0
C3790 C 0.01944 0.27871 0.25713 0.0
C3791 C 0.02982 0.2729 0.25865 0.0
H3792 H 0.00614 0.28341 0.24523 0.0
H3793 H 0.10685 0.22712 0.26034 0.0
H3794 H 0.75801 0.06399 0.30022 0.0
H3795 H 0.74349 0.06158 0.28533 0.0
H3796 H 0.7696 0.06471 0.25929 0.0
H3797 H 0.78411 0.06751 0.27416 0.0
H3798 H 0.75205 0.07761 0.25412 0.0
H3799 H 0.75645 0.0384 0.26635 0.0
H3800 H 0.757 0.02266 0.28046 0.0
H3801 H 0.72207 0.02958 0.28982 0.0
H3802 H 0.72137 0.04546 0.27587 0.0
H3803 H 0.71688 0.06371 0.20735 0.0
H3804 H 0.73197 0.0621 0.22179 0.0
H3805 H 0.70636 0.05949 0.24836 0.0
H3806 H 0.69122 0.0607 0.23391 0.0
H3807 H 0.72385 0.04578 0.25304 0.0
H3808 H 0.71949 0.08523 0.24188 0.0
H3809 H 0.71858 0.10135 0.22822 0.0
H3810 H 0.75311 0.09444 0.21748 0.0
H3811 H 0.75416 0.07817 0.23096 0.0
C3812 C 0.76067 0.06406 0.29132 0.0
C3813 C 0.77219 0.06594 0.28835 0.0
C3814 C 0.75237 0.06262 0.28281 0.0
C3815 C 0.75547 0.06282 0.27118 0.0
C3816 C 0.76701 0.06452 0.26821 0.0
C3817 C 0.77529 0.06609 0.27671 0.0
C3818 C 0.74662 0.06184 0.26208 0.0
C3819 C 0.74602 0.07053 0.25378 0.0
C3820 C 0.73851 0.05281 0.26183 0.0
C3821 C 0.73889 0.04317 0.27012 0.0
C3822 C 0.74891 0.03661 0.27147 0.0
C3823 C 0.74925 0.02766 0.27943 0.0
C3824 C 0.73958 0.02514 0.28605 0.0
C3825 C 0.72955 0.03154 0.28469 0.0
C3826 C 0.72918 0.04051 0.27675 0.0
C3827 C 0.71447 0.06264 0.21625 0.0
C3828 C 0.70288 0.06246 0.21952 0.0
C3829 C 0.7231 0.06177 0.2245 0.0
C3830 C 0.72029 0.06094 0.23618 0.0
C3831 C 0.70872 0.06018 0.2394 0.0
C3832 C 0.70008 0.0609 0.23114 0.0
C3833 C 0.72937 0.06149 0.24506 0.0
C3834 C 0.72997 0.05278 0.25335 0.0
C3835 C 0.73744 0.07056 0.24537 0.0
C3836 C 0.73686 0.08041 0.23734 0.0
C3837 C 0.72686 0.0871 0.23655 0.0
C3838 C 0.72632 0.09627 0.22884 0.0
C3839 C 0.73577 0.0989 0.22196 0.0
C3840 C 0.74579 0.09239 0.2228 0.0
C3841 C 0.74637 0.08319 0.23047 0.0
H3842 H 0.73534 0.106 0.216 0.0
H3843 H 0.73986 0.01821 0.29222 0.0
H3844 H 0.94348 0.69687 0.22847 0.0
H3845 H 0.94586 0.7123 0.24251 0.0
H3846 H 0.91963 0.73197 0.22535 0.0
H3847 H 0.91756 0.71683 0.21107 0.0
H3848 H 0.93585 0.7457 0.23198 0.0
H3849 H 0.9143 0.71524 0.25 0.0
H3850 H 0.91094 0.69542 0.25659 0.0
H3851 H 0.94107 0.6971 0.27766 0.0
H3852 H 0.94469 0.71689 0.27109 0.0
H3853 H 0.91659 0.78222 0.27639 0.0
H3854 H 0.91908 0.76812 0.26116 0.0
H3855 H 0.94516 0.75107 0.28113 0.0
H3856 H 0.94231 0.76491 0.29665 0.0
H3857 H 0.93104 0.73604 0.27311 0.0
H3858 H 0.95121 0.76777 0.25616 0.0
H3859 H 0.95362 0.78775 0.24969 0.0
H3860 H 0.92517 0.78395 0.22665 0.0
H3861 H 0.92249 0.76399 0.23308 0.0
C3862 C 0.93831 0.70455 0.22765 0.0
C3863 C 0.93028 0.70562 0.21874 0.0
C3864 C 0.93964 0.71333 0.2357 0.0
C3865 C 0.93276 0.72321 0.23512 0.0
C3866 C 0.92502 0.72443 0.22599 0.0
C3867 C 0.92382 0.71575 0.21785 0.0
C3868 C 0.93327 0.7321 0.2442 0.0
C3869 C 0.93473 0.74361 0.24097 0.0
C3870 C 0.93204 0.72935 0.25596 0.0
C3871 C 0.92983 0.71749 0.25996 0.0
C3872 C 0.92025 0.71135 0.25598 0.0
C3873 C 0.91829 0.70013 0.25972 0.0
C3874 C 0.9258 0.69499 0.26751 0.0
C3875 C 0.93527 0.70108 0.27161 0.0
C3876 C 0.93728 0.7123 0.26789 0.0
C3877 C 0.92295 0.77555 0.27748 0.0
C3878 C 0.92927 0.77466 0.28769 0.0
C3879 C 0.92442 0.76752 0.26873 0.0
C3880 C 0.93245 0.75862 0.2699 0.0
C3881 C 0.93894 0.75787 0.28002 0.0
C3882 C 0.93732 0.76578 0.28886 0.0
C3883 C 0.93354 0.74968 0.2609 0.0
C3884 C 0.93233 0.73815 0.26414 0.0
C3885 C 0.93491 0.75243 0.24915 0.0
C3886 C 0.93661 0.7644 0.24516 0.0
C3887 C 0.94543 0.77121 0.24976 0.0
C3888 C 0.94685 0.78254 0.24609 0.0
C3889 C 0.93954 0.78712 0.23778 0.0
C3890 C 0.93082 0.78039 0.23309 0.0
C3891 C 0.92936 0.76906 0.23673 0.0
H3892 H 0.94065 0.79589 0.23496 0.0
H3893 H 0.92428 0.68631 0.27039 0.0
H3894 H 0.23277 0.93346 0.30089 0.0
H3895 H 0.24691 0.93555 0.28555 0.0
H3896 H 0.22314 0.92054 0.26151 0.0
H3897 H 0.20902 0.9183 0.27681 0.0
H3898 H 0.2438 0.91064 0.26015 0.0
H3899 H 0.22919 0.94902 0.2607 0.0
H3900 H 0.22378 0.96747 0.26948 0.0
H3901 H 0.25867 0.97301 0.27981 0.0
H3902 H 0.26427 0.95451 0.27123 0.0
H3903 H 0.27494 0.92098 0.20966 0.0
H3904 H 0.25992 0.92239 0.22417 0.0
H3905 H 0.28441 0.93586 0.24838 0.0
H3906 H 0.29952 0.93458 0.23384 0.0
H3907 H 0.26339 0.9469 0.24958 0.0
H3908 H 0.27782 0.90831 0.24945 0.0
H3909 H 0.28322 0.88984 0.24069 0.0
H3910 H 0.24848 0.8847 0.22966 0.0
H3911 H 0.24291 0.90323 0.23821 0.0
C3912 C 0.23052 0.9307 0.29231 0.0
C3913 C 0.2198 0.92568 0.29006 0.0
C3914 C 0.23859 0.93195 0.28355 0.0
C3915 C 0.23605 0.92825 0.27238 0.0
C3916 C 0.22527 0.92343 0.27007 0.0
C3917 C 0.21721 0.92219 0.27882 0.0
C3918 C 0.24483 0.92883 0.26323 0.0
C3919 C 0.24795 0.9186 0.25771 0.0
C3920 C 0.25045 0.93917 0.26028 0.0
C3921 C 0.24712 0.95032 0.26542 0.0
C3922 C 0.23569 0.95413 0.26493 0.0
C3923 C 0.23259 0.9646 0.26985 0.0
C3924 C 0.24087 0.9714 0.27523 0.0
C3925 C 0.25227 0.96774 0.27566 0.0
C3926 C 0.25541 0.95726 0.27075 0.0
C3927 C 0.27712 0.92435 0.21803 0.0
C3928 C 0.28844 0.92756 0.22065 0.0
C3929 C 0.26853 0.92513 0.22632 0.0
C3930 C 0.27111 0.92907 0.23738 0.0
C3931 C 0.28228 0.93277 0.23989 0.0
C3932 C 0.29089 0.93199 0.23159 0.0
C3933 C 0.26227 0.92874 0.24648 0.0
C3934 C 0.25919 0.93897 0.252 0.0
C3935 C 0.25666 0.9184 0.24945 0.0
C3936 C 0.25997 0.90722 0.24437 0.0
C3937 C 0.27135 0.90329 0.24507 0.0
C3938 C 0.27444 0.8928 0.24016 0.0
C3939 C 0.2662 0.88612 0.2346 0.0
C3940 C 0.25485 0.88989 0.23396 0.0
C3941 C 0.25172 0.90038 0.23885 0.0
H3942 H 0.26861 0.878 0.2308 0.0
H3943 H 0.23845 0.9795 0.27904 0.0
H3944 H 0.06705 0.71647 0.78447 0.0
H3945 H 0.06484 0.73179 0.77029 0.0
H3946 H 0.06092 0.70655 0.74355 0.0
H3947 H 0.06297 0.69118 0.75769 0.0
H3948 H 0.07776 0.72347 0.73911 0.0
H3949 H 0.03842 0.72073 0.75092 0.0
H3950 H 0.02243 0.7204 0.76473 0.0
H3951 H 0.03099 0.75447 0.77575 0.0
H3952 H 0.04715 0.75494 0.7621 0.0
H3953 H 0.06111 0.7582 0.69277 0.0
H3954 H 0.05996 0.74391 0.70804 0.0
H3955 H 0.06488 0.77037 0.73338 0.0
H3956 H 0.0662 0.78478 0.71811 0.0
H3957 H 0.04749 0.75339 0.73901 0.0
H3958 H 0.08675 0.75629 0.7277 0.0
H3959 H 0.10291 0.75694 0.7141 0.0
H3960 H 0.09492 0.72287 0.70268 0.0
H3961 H 0.07857 0.72209 0.71609 0.0
C3962 C 0.06558 0.71419 0.77559 0.0
C3963 C 0.06521 0.70263 0.77218 0.0
C3964 C 0.06429 0.72294 0.76752 0.0
C3965 C 0.06271 0.72028 0.7559 0.0
C3966 C 0.06214 0.70876 0.7525 0.0
C3967 C 0.06327 0.7 0.76058 0.0
C3968 C 0.0623 0.72949 0.74721 0.0
C3969 C 0.07105 0.72992 0.73898 0.0
C3970 C 0.05375 0.73809 0.74732 0.0
C3971 C 0.04408 0.73782 0.75558 0.0
C3972 C 0.03697 0.7281 0.75637 0.0
C3973 C 0.02786 0.7279 0.76415 0.0
C3974 C 0.02572 0.73739 0.77114 0.0
C3975 C 0.03267 0.74711 0.77034 0.0
C3976 C 0.0418 0.74736 0.76258 0.0
C3977 C 0.06182 0.76102 0.70159 0.0
C3978 C 0.06383 0.7726 0.70425 0.0
C3979 C 0.06118 0.75284 0.71029 0.0
C3980 C 0.06243 0.7561 0.72179 0.0
C3981 C 0.0639 0.76772 0.72453 0.0
C3982 C 0.06469 0.77591 0.71581 0.0
C3983 C 0.06286 0.74725 0.73084 0.0
C3984 C 0.05417 0.74693 0.73915 0.0
C3985 C 0.07152 0.73877 0.73088 0.0
C3986 C 0.08135 0.73918 0.7228 0.0
C3987 C 0.08836 0.74898 0.7222 0.0
C3988 C 0.09757 0.74937 0.71455 0.0
C3989 C 0.09992 0.73997 0.7075 0.0
C3990 C 0.09308 0.73015 0.70813 0.0
C3991 C 0.08384 0.72973 0.71576 0.0
H3992 H 0.10706 0.74028 0.70159 0.0
H3993 H 0.01865 0.73722 0.77715 0.0
H3994 H 0.27587 0.0708 0.78248 0.0
H3995 H 0.26089 0.06808 0.76813 0.0
H3996 H 0.28496 0.05051 0.74621 0.0
H3997 H 0.30008 0.05343 0.76044 0.0
H3998 H 0.27358 0.06639 0.73459 0.0
H3999 H 0.26314 0.03604 0.76039 0.0
H4000 H 0.25831 0.02749 0.77911 0.0
H4001 H 0.22919 0.04983 0.78201 0.0
H4002 H 0.23394 0.05862 0.76337 0.0
H4003 H 0.23185 0.05177 0.69319 0.0
H4004 H 0.24636 0.04956 0.70819 0.0
H4005 H 0.22457 0.06763 0.732 0.0
H4006 H 0.20997 0.06969 0.71714 0.0
H4007 H 0.23509 0.05003 0.74236 0.0
H4008 H 0.24603 0.08143 0.71799 0.0
H4009 H 0.25063 0.0908 0.69961 0.0
H4010 H 0.2786 0.06742 0.69447 0.0
H4011 H 0.27406 0.0578 0.71277 0.0
C4012 C 0.27795 0.06624 0.77466 0.0
C4013 C 0.28916 0.06235 0.77257 0.0
C4014 C 0.26936 0.06464 0.76648 0.0
C4015 C 0.27177 0.05899 0.75613 0.0
C4016 C 0.2829 0.05488 0.75414 0.0
C4017 C 0.29152 0.05653 0.76229 0.0
C4018 C 0.26286 0.05801 0.7471 0.0
C4019 C 0.26524 0.0626 0.73623 0.0
C4020 C 0.25187 0.05338 0.74934 0.0
C4021 C 0.24895 0.04804 0.76051 0.0
C4022 C 0.25575 0.03918 0.76505 0.0
C4023 C 0.25302 0.03428 0.77565 0.0
C4024 C 0.24346 0.03813 0.78176 0.0
C4025 C 0.23659 0.04686 0.77727 0.0
C4026 C 0.23929 0.05179 0.76668 0.0
C4027 C 0.2301 0.05516 0.70166 0.0
C4028 C 0.21982 0.06099 0.70396 0.0
C4029 C 0.23841 0.05392 0.7102 0.0
C4030 C 0.23661 0.0586 0.72115 0.0
C4031 C 0.22614 0.06398 0.7236 0.0
C4032 C 0.21782 0.06518 0.71509 0.0
C4033 C 0.24583 0.05841 0.7299 0.0
C4034 C 0.24349 0.05367 0.74071 0.0
C4035 C 0.25684 0.063 0.72765 0.0
C4036 C 0.25962 0.06881 0.71668 0.0
C4037 C 0.25311 0.07823 0.7129 0.0
C4038 C 0.25571 0.0836 0.7025 0.0
C4039 C 0.26488 0.07969 0.69586 0.0
C4040 C 0.27148 0.07043 0.69962 0.0
C4041 C 0.2689 0.06502 0.71 0.0
H4042 H 0.26688 0.08386 0.68781 0.0
H4043 H 0.24136 0.03433 0.78996 0.0
H4044 H 0.93091 0.30101 0.7589 0.0
H4045 H 0.93345 0.28663 0.74388 0.0
H4046 H 0.92396 0.25996 0.76767 0.0
H4047 H 0.92144 0.27429 0.78279 0.0
H4048 H 0.94222 0.25372 0.75414 0.0
H4049 H 0.90463 0.26951 0.74944 0.0
H4050 H 0.89015 0.28473 0.74707 0.0
H4051 H 0.90617 0.29533 0.71567 0.0
H4052 H 0.92086 0.28027 0.71795 0.0
H4053 H 0.92392 0.21015 0.7156 0.0
H4054 H 0.92594 0.22472 0.7305 0.0
H4055 H 0.93589 0.24958 0.70498 0.0
H4056 H 0.93386 0.23502 0.68998 0.0
H4057 H 0.9185 0.25718 0.71899 0.0
H4058 H 0.95545 0.23979 0.72341 0.0
H4059 H 0.96898 0.22375 0.72597 0.0
H4060 H 0.95322 0.21532 0.75815 0.0
H4061 H 0.93948 0.23121 0.75571 0.0
C4062 C 0.92945 0.29208 0.76097 0.0
C4063 C 0.92589 0.28878 0.772 0.0
C4064 C 0.93088 0.28389 0.75237 0.0
C4065 C 0.92877 0.27226 0.75465 0.0
C4066 C 0.92562 0.26889 0.76575 0.0
C4067 C 0.92415 0.27709 0.77436 0.0
C4068 C 0.92941 0.26368 0.74533 0.0
C4069 C 0.93698 0.25441 0.74648 0.0
C4070 C 0.92269 0.26472 0.73529 0.0
C4071 C 0.91392 0.27385 0.73394 0.0
C4072 C 0.90513 0.27516 0.74209 0.0
C4073 C 0.89688 0.28375 0.74075 0.0
C4074 C 0.89726 0.29101 0.73124 0.0
C4075 C 0.9059 0.28971 0.72304 0.0
C4076 C 0.91419 0.28115 0.72435 0.0
C4077 C 0.92668 0.21868 0.71317 0.0
C4078 C 0.92869 0.22147 0.70162 0.0
C4079 C 0.92788 0.22698 0.7217 0.0
C4080 C 0.93112 0.2382 0.71884 0.0
C4081 C 0.9334 0.24095 0.70735 0.0
C4082 C 0.93227 0.23262 0.6988 0.0
C4083 C 0.93134 0.24721 0.72775 0.0
C4084 C 0.92386 0.25655 0.72656 0.0
C4085 C 0.93806 0.24615 0.73779 0.0
C4086 C 0.94637 0.23664 0.73933 0.0
C4087 C 0.95481 0.23446 0.73099 0.0
C4088 C 0.96253 0.22541 0.73243 0.0
C4089 C 0.96194 0.21851 0.7422 0.0
C4090 C 0.95366 0.22067 0.75058 0.0
C4091 C 0.94591 0.22971 0.74918 0.0
H4092 H 0.96793 0.2115 0.7433 0.0
H4093 H 0.89083 0.29762 0.7302 0.0
H4094 H 0.69629 0.94145 0.76491 0.0
H4095 H 0.71133 0.94334 0.75042 0.0
H4096 H 0.73225 0.91907 0.76891 0.0
H4097 H 0.71742 0.91743 0.7836 0.0
H4098 H 0.74523 0.93546 0.7607 0.0
H4099 H 0.71579 0.91108 0.74546 0.0
H4100 H 0.69611 0.90575 0.73984 0.0
H4101 H 0.69502 0.93398 0.71624 0.0
H4102 H 0.71464 0.93957 0.72183 0.0
H4103 H 0.78133 0.91613 0.71583 0.0
H4104 H 0.76745 0.91817 0.73132 0.0
H4105 H 0.74874 0.94311 0.7114 0.0
H4106 H 0.76247 0.94085 0.69567 0.0
H4107 H 0.73465 0.92766 0.72026 0.0
H4108 H 0.76553 0.95077 0.73513 0.0
H4109 H 0.78554 0.95466 0.74075 0.0
H4110 H 0.78426 0.92709 0.76512 0.0
H4111 H 0.76429 0.92294 0.75954 0.0
C4112 C 0.70415 0.93662 0.76594 0.0
C4113 C 0.70565 0.92922 0.77533 0.0
C4114 C 0.71271 0.93766 0.75763 0.0
C4115 C 0.72282 0.93117 0.75846 0.0
C4116 C 0.72451 0.92414 0.76807 0.0
C4117 C 0.71602 0.92319 0.77646 0.0
C4118 C 0.73145 0.93135 0.74911 0.0
C4119 C 0.74294 0.93367 0.75187 0.0
C4120 C 0.72843 0.92917 0.73756 0.0
C4121 C 0.71664 0.92581 0.73416 0.0
C4122 C 0.71132 0.9162 0.73914 0.0
C4123 C 0.70018 0.91312 0.73594 0.0
C4124 C 0.69431 0.91954 0.72771 0.0
C4125 C 0.69957 0.92903 0.72263 0.0
C4126 C 0.7107 0.93215 0.7258 0.0
C4127 C 0.77433 0.92214 0.71478 0.0
C4128 C 0.77299 0.92834 0.70453 0.0
C4129 C 0.76643 0.92334 0.72368 0.0
C4130 C 0.75713 0.93091 0.72259 0.0
C4131 C 0.75587 0.93724 0.71243 0.0
C4132 C 0.76372 0.93596 0.70347 0.0
C4133 C 0.74843 0.93177 0.73184 0.0
C4134 C 0.73693 0.92959 0.72906 0.0
C4135 C 0.75147 0.93391 0.74339 0.0
C4136 C 0.76344 0.9365 0.74686 0.0
C4137 C 0.76954 0.9455 0.74164 0.0
C4138 C 0.78087 0.94775 0.74483 0.0
C4139 C 0.78617 0.94111 0.75327 0.0
C4140 C 0.78015 0.93223 0.75858 0.0
C4141 C 0.76881 0.92993 0.75542 0.0
H4142 H 0.79495 0.94287 0.75572 0.0
H4143 H 0.68569 0.91714 0.72525 0.0
H4144 H 0.20836 0.07188 0.27592 0.0
H4145 H 0.22285 0.06956 0.26094 0.0
H4146 H 0.24661 0.05614 0.28591 0.0
H4147 H 0.23218 0.05846 0.30094 0.0
H4148 H 0.25589 0.07334 0.27304 0.0
H4149 H 0.23496 0.03856 0.26633 0.0
H4150 H 0.21774 0.02685 0.26272 0.0
H4151 H 0.21162 0.04517 0.23138 0.0
H4152 H 0.22873 0.0571 0.23488 0.0
H4153 H 0.29938 0.05873 0.23355 0.0
H4154 H 0.28442 0.05672 0.24811 0.0
H4155 H 0.2593 0.06956 0.22419 0.0
H4156 H 0.27418 0.0715 0.20956 0.0
H4157 H 0.25088 0.05175 0.23672 0.0
H4158 H 0.2705 0.08718 0.24362 0.0
H4159 H 0.28723 0.09966 0.24697 0.0
H4160 H 0.29518 0.08105 0.27772 0.0
H4161 H 0.27858 0.06834 0.27446 0.0
C4162 C 0.21662 0.0683 0.27819 0.0
C4163 C 0.21915 0.06539 0.28961 0.0
C4164 C 0.22488 0.06695 0.26962 0.0
C4165 C 0.23578 0.06263 0.27232 0.0
C4166 C 0.23824 0.05948 0.28366 0.0
C4167 C 0.22998 0.06079 0.29223 0.0
C4168 C 0.24484 0.06207 0.26345 0.0
C4169 C 0.25489 0.06844 0.26519 0.0
C4170 C 0.24335 0.05598 0.25307 0.0
C4171 C 0.23308 0.04879 0.25092 0.0
C4172 C 0.2299 0.04015 0.25871 0.0
C4173 C 0.22016 0.03346 0.25668 0.0
C4174 C 0.21357 0.03528 0.24684 0.0
C4175 C 0.21673 0.04378 0.239 0.0
C4176 C 0.22645 0.05049 0.241 0.0
C4177 C 0.29065 0.06102 0.23136 0.0
C4178 C 0.28797 0.06537 0.22044 0.0
C4179 C 0.28213 0.05989 0.23969 0.0
C4180 C 0.27079 0.06313 0.23726 0.0
C4181 C 0.268 0.06703 0.22623 0.0
C4182 C 0.27652 0.06817 0.2179 0.0
C4183 C 0.26194 0.06297 0.24636 0.0
C4184 C 0.25192 0.05654 0.24463 0.0
C4185 C 0.26339 0.0691 0.25673 0.0
C4186 C 0.27338 0.07672 0.25872 0.0
C4187 C 0.27588 0.08568 0.25104 0.0
C4188 C 0.28532 0.09281 0.25293 0.0
C4189 C 0.29229 0.09112 0.26253 0.0
C4190 C 0.28979 0.08233 0.27028 0.0
C4191 C 0.28036 0.07516 0.26841 0.0
H4192 H 0.2996 0.09665 0.26399 0.0
H4193 H 0.20604 0.03009 0.24528 0.0
H4194 H 0.92967 0.27575 0.20858 0.0
H4195 H 0.93204 0.26039 0.22264 0.0
H4196 H 0.93432 0.28547 0.24974 0.0
H4197 H 0.93236 0.30088 0.23567 0.0
H4198 H 0.94871 0.2684 0.25374 0.0
H4199 H 0.90882 0.27148 0.24316 0.0
H4200 H 0.89257 0.27187 0.22963 0.0
H4201 H 0.90084 0.23779 0.21843 0.0
H4202 H 0.91724 0.23726 0.23178 0.0
H4203 H 0.93159 0.23477 0.30138 0.0
H4204 H 0.93398 0.24887 0.28611 0.0
H4205 H 0.93047 0.22211 0.26078 0.0
H4206 H 0.9276 0.20803 0.27606 0.0
H4207 H 0.9177 0.23933 0.25515 0.0
H4208 H 0.95695 0.23584 0.26708 0.0
H4209 H 0.97292 0.23568 0.28093 0.0
H4210 H 0.96565 0.27061 0.29001 0.0
H4211 H 0.94954 0.27093 0.27631 0.0
C4212 C 0.93083 0.27799 0.21753 0.0
C4213 C 0.93071 0.2895 0.22106 0.0
C4214 C 0.93213 0.2692 0.22555 0.0
C4215 C 0.9331 0.27177 0.23727 0.0
C4216 C 0.93353 0.28329 0.24075 0.0
C4217 C 0.93239 0.29209 0.2327 0.0
C4218 C 0.93304 0.26249 0.24597 0.0
C4219 C 0.9419 0.26208 0.25411 0.0
C4220 C 0.92426 0.25411 0.24632 0.0
C4221 C 0.91432 0.25438 0.23838 0.0
C4222 C 0.90722 0.2641 0.23776 0.0
C4223 C 0.89798 0.26434 0.23013 0.0
C4224 C 0.8957 0.25487 0.22315 0.0
C4225 C 0.90263 0.24512 0.22382 0.0
C4226 C 0.91189 0.24485 0.23142 0.0
C4227 C 0.93146 0.23187 0.29256 0.0
C4228 C 0.92941 0.2203 0.2899 0.0
C4229 C 0.9329 0.23993 0.28382 0.0
C4230 C 0.93257 0.23654 0.27227 0.0
C4231 C 0.93077 0.22493 0.26962 0.0
C4232 C 0.92916 0.21689 0.27836 0.0
C4233 C 0.93338 0.2452 0.26296 0.0
C4234 C 0.92462 0.24553 0.25473 0.0
C4235 C 0.94222 0.25352 0.26257 0.0
C4236 C 0.95199 0.25338 0.27072 0.0
C4237 C 0.95872 0.24347 0.27207 0.0
C4238 C 0.9678 0.24335 0.27989 0.0
C4239 C 0.97029 0.25313 0.28636 0.0
C4240 C 0.96371 0.26305 0.285 0.0
C4241 C 0.95462 0.2632 0.27719 0.0
H4242 H 0.97732 0.25302 0.29241 0.0
H4243 H 0.88854 0.25508 0.21725 0.0
H4244 H 0.75825 0.93652 0.2996 0.0
H4245 H 0.74396 0.93899 0.28447 0.0
H4246 H 0.76819 0.92662 0.25943 0.0
H4247 H 0.78258 0.92418 0.27451 0.0
H4248 H 0.75547 0.94485 0.2513 0.0
H4249 H 0.749 0.9087 0.26961 0.0
H4250 H 0.74588 0.89563 0.28593 0.0
H4251 H 0.71492 0.91356 0.29461 0.0
H4252 H 0.71796 0.92686 0.27844 0.0
H4253 H 0.71604 0.92612 0.20824 0.0
H4254 H 0.73117 0.92828 0.22257 0.0
H4255 H 0.70622 0.93998 0.24723 0.0
H4256 H 0.69102 0.93776 0.23297 0.0
H4257 H 0.71936 0.92278 0.2556 0.0
H4258 H 0.72569 0.95843 0.23603 0.0
H4259 H 0.72914 0.97085 0.21928 0.0
H4260 H 0.76061 0.95306 0.21232 0.0
H4261 H 0.75726 0.94042 0.22894 0.0
C4262 C 0.76059 0.93444 0.29086 0.0
C4263 C 0.7715 0.93006 0.28826 0.0
C4264 C 0.75241 0.93584 0.28223 0.0
C4265 C 0.75499 0.93285 0.27086 0.0
C4266 C 0.76604 0.92896 0.26815 0.0
C4267 C 0.77422 0.92754 0.27678 0.0
C4268 C 0.74596 0.93315 0.26195 0.0
C4269 C 0.74761 0.93996 0.25217 0.0
C4270 C 0.73566 0.92686 0.26318 0.0
C4271 C 0.73378 0.91886 0.27289 0.0
C4272 C 0.74158 0.90992 0.27506 0.0
C4273 C 0.73982 0.90245 0.28427 0.0
C4274 C 0.73023 0.90378 0.29132 0.0
C4275 C 0.72236 0.91255 0.28915 0.0
C4276 C 0.7241 0.92006 0.27996 0.0
C4277 C 0.71379 0.92931 0.21666 0.0
C4278 C 0.70232 0.93171 0.21949 0.0
C4279 C 0.72246 0.93058 0.22483 0.0
C4280 C 0.71982 0.93433 0.23596 0.0
C4281 C 0.70843 0.93707 0.2387 0.0
C4282 C 0.69976 0.93582 0.23053 0.0
C4283 C 0.72878 0.93458 0.24496 0.0
C4284 C 0.72715 0.92778 0.25476 0.0
C4285 C 0.73912 0.94079 0.24366 0.0
C4286 C 0.74117 0.94841 0.23368 0.0
C4287 C 0.7333 0.9571 0.23087 0.0
C4288 C 0.73525 0.96419 0.22141 0.0
C4289 C 0.74507 0.96273 0.21472 0.0
C4290 C 0.75299 0.95418 0.2175 0.0
C4291 C 0.75108 0.94705 0.22695 0.0
H4292 H 0.74657 0.96823 0.2074 0.0
H4293 H 0.72887 0.89799 0.29845 0.0
H4294 H 0.06507 0.71667 0.20879 0.0
H4295 H 0.06249 0.73186 0.223 0.0
H4296 H 0.05822 0.70641 0.24951 0.0
H4297 H 0.06038 0.69118 0.23528 0.0
H4298 H 0.04415 0.72384 0.25316 0.0
H4299 H 0.08438 0.71968 0.24439 0.0
H4300 H 0.10124 0.71902 0.23164 0.0
H4301 H 0.09456 0.75352 0.22067 0.0
H4302 H 0.07756 0.75433 0.23324 0.0
H4303 H 0.06062 0.75631 0.30209 0.0
H4304 H 0.05823 0.74245 0.28657 0.0
H4305 H 0.06311 0.76939 0.26168 0.0
H4306 H 0.06589 0.78322 0.27718 0.0
H4307 H 0.07595 0.75189 0.25653 0.0
H4308 H 0.03634 0.75644 0.26668 0.0
H4309 H 0.01975 0.7569 0.27977 0.0
H4310 H 0.02545 0.72162 0.28859 0.0
H4311 H 0.04218 0.72098 0.27566 0.0
C4312 C 0.06344 0.71432 0.21762 0.0
C4313 C 0.06305 0.70274 0.22095 0.0
C4314 C 0.06201 0.723 0.22574 0.0
C4315 C 0.06041 0.72027 0.23736 0.0
C4316 C 0.05949 0.70872 0.2406 0.0
C4317 C 0.06076 0.70003 0.23246 0.0
C4318 C 0.06034 0.72939 0.24623 0.0
C4319 C 0.05114 0.72993 0.25396 0.0
C4320 C 0.06935 0.73747 0.24714 0.0
C4321 C 0.07964 0.73702 0.23966 0.0
C4322 C 0.08647 0.7271 0.2392 0.0
C4323 C 0.09605 0.7267 0.23202 0.0
C4324 C 0.09895 0.73621 0.22533 0.0
C4325 C 0.09229 0.74615 0.22584 0.0
C4326 C 0.08269 0.74659 0.233 0.0
C4327 C 0.06105 0.7593 0.29331 0.0
C4328 C 0.06348 0.77084 0.29084 0.0
C4329 C 0.05962 0.75138 0.28444 0.0
C4330 C 0.06038 0.75489 0.27294 0.0
C4331 C 0.0625 0.76648 0.27048 0.0
C4332 C 0.06406 0.77437 0.27934 0.0
C4333 C 0.05975 0.74638 0.2635 0.0
C4334 C 0.06887 0.74591 0.25567 0.0
C4335 C 0.05069 0.73835 0.26256 0.0
C4336 C 0.04056 0.73869 0.27026 0.0
C4337 C 0.0341 0.7488 0.27146 0.0
C4338 C 0.02466 0.74909 0.27885 0.0
C4339 C 0.02156 0.73931 0.28502 0.0
C4340 C 0.02787 0.7292 0.2838 0.0
C4341 C 0.03732 0.72886 0.27644 0.0
H4342 H 0.01425 0.73955 0.29074 0.0
H4343 H 0.10638 0.73588 0.21977 0.0
H4344 H 0.20989 0.91681 0.71778 0.0
H4345 H 0.22376 0.91982 0.73319 0.0
H4346 H 0.24182 0.94437 0.7122 0.0
H4347 H 0.22817 0.94113 0.69664 0.0
H4348 H 0.2562 0.92949 0.7209 0.0
H4349 H 0.22548 0.95237 0.73623 0.0
H4350 H 0.20564 0.9562 0.74246 0.0
H4351 H 0.20813 0.92937 0.76754 0.0
H4352 H 0.22793 0.92527 0.76135 0.0
H4353 H 0.2961 0.94385 0.76393 0.0
H4354 H 0.28042 0.94594 0.75013 0.0
H4355 H 0.26023 0.9216 0.76935 0.0
H4356 H 0.27567 0.91979 0.78334 0.0
H4357 H 0.24685 0.93791 0.76153 0.0
H4358 H 0.27612 0.91362 0.74546 0.0
H4359 H 0.29572 0.90865 0.73927 0.0
H4360 H 0.29559 0.93684 0.71559 0.0
H4361 H 0.27604 0.94207 0.72176 0.0
C4362 C 0.21673 0.92296 0.71651 0.0
C4363 C 0.21797 0.92871 0.70599 0.0
C4364 C 0.22463 0.92472 0.72535 0.0
C4365 C 0.23378 0.93241 0.7239 0.0
C4366 C 0.23483 0.93839 0.71351 0.0
C4367 C 0.22701 0.93655 0.70463 0.0
C4368 C 0.24272 0.9336 0.73286 0.0
C4369 C 0.25417 0.93157 0.72974 0.0
C4370 C 0.24004 0.93594 0.74447 0.0
C4371 C 0.22817 0.93847 0.74827 0.0
C4372 C 0.22177 0.94724 0.74302 0.0
C4373 C 0.21054 0.94946 0.74655 0.0
C4374 C 0.20562 0.94302 0.75537 0.0
C4375 C 0.21195 0.93435 0.7607 0.0
C4376 C 0.22318 0.93209 0.7572 0.0
C4377 C 0.28826 0.93906 0.76527 0.0
C4378 C 0.28715 0.93157 0.77464 0.0
C4379 C 0.27932 0.94022 0.75737 0.0
C4380 C 0.26924 0.93375 0.75858 0.0
C4381 C 0.26794 0.92666 0.76822 0.0
C4382 C 0.27679 0.92561 0.77619 0.0
C4383 C 0.26029 0.93382 0.74954 0.0
C4384 C 0.24887 0.93601 0.75265 0.0
C4385 C 0.26295 0.93149 0.73793 0.0
C4386 C 0.27467 0.92831 0.73416 0.0
C4387 C 0.28031 0.91881 0.73899 0.0
C4388 C 0.2914 0.91594 0.73548 0.0
C4389 C 0.29691 0.92245 0.72707 0.0
C4390 C 0.29132 0.93182 0.72212 0.0
C4391 C 0.28023 0.93474 0.72562 0.0
H4392 H 0.3055 0.92021 0.72436 0.0
H4393 H 0.19692 0.94475 0.75809 0.0
H4394 H 0.07402 0.21004 0.71943 0.0
H4395 H 0.07118 0.22411 0.73468 0.0
H4396 H 0.05755 0.24813 0.71007 0.0
H4397 H 0.06019 0.23401 0.69478 0.0
H4398 H 0.08101 0.24451 0.73694 0.0
H4399 H 0.03825 0.26575 0.72319 0.0
H4400 H 0.02019 0.26047 0.71353 0.0
H4401 H 0.02453 0.22548 0.72412 0.0
H4402 H 0.04252 0.23057 0.73398 0.0
H4403 H 0.05691 0.30144 0.75947 0.0
H4404 H 0.05578 0.28551 0.74589 0.0
H4405 H 0.06779 0.26228 0.77204 0.0
H4406 H 0.06907 0.27818 0.78564 0.0
H4407 H 0.04457 0.26488 0.74509 0.0
H4408 H 0.08692 0.24385 0.7596 0.0
H4409 H 0.10504 0.24921 0.76911 0.0
H4410 H 0.10155 0.2837 0.75672 0.0
H4411 H 0.08352 0.2785 0.74699 0.0
C4412 C 0.07031 0.21828 0.71727 0.0
C4413 C 0.06733 0.22093 0.7059 0.0
C4414 C 0.06871 0.22631 0.726 0.0
C4415 C 0.06408 0.23713 0.72353 0.0
C4416 C 0.06097 0.23976 0.7122 0.0
C4417 C 0.06253 0.23171 0.70346 0.0
C4418 C 0.06308 0.24586 0.73271 0.0
C4419 C 0.07299 0.24881 0.73886 0.0
C4420 C 0.05268 0.25167 0.73502 0.0
C4421 C 0.04179 0.24853 0.72922 0.0
C4422 C 0.03533 0.25694 0.72349 0.0
C4423 C 0.0251 0.25397 0.71798 0.0
C4424 C 0.02123 0.24264 0.71818 0.0
C4425 C 0.02756 0.23425 0.72393 0.0
C4426 C 0.03778 0.23716 0.72947 0.0
C4427 C 0.05918 0.29291 0.76237 0.0
C4428 C 0.06321 0.29108 0.77358 0.0
C4429 C 0.05849 0.28382 0.75461 0.0
C4430 C 0.06187 0.27276 0.75792 0.0
C4431 C 0.06531 0.27079 0.76928 0.0
C4432 C 0.066 0.27988 0.77704 0.0
C4433 C 0.06248 0.26348 0.74929 0.0
C4434 C 0.05254 0.26048 0.74323 0.0
C4435 C 0.07286 0.25761 0.74703 0.0
C4436 C 0.0838 0.26081 0.75269 0.0
C4437 C 0.09004 0.25256 0.75888 0.0
C4438 C 0.1003 0.25558 0.76431 0.0
C4439 C 0.10442 0.2668 0.76356 0.0
C4440 C 0.09833 0.27502 0.75733 0.0
C4441 C 0.08808 0.27205 0.75187 0.0
H4442 H 0.11235 0.26912 0.76778 0.0
H4443 H 0.01332 0.24036 0.7139 0.0
H4444 H 0.69151 0.0588 0.7599 0.0
H4445 H 0.70638 0.05667 0.74526 0.0
H4446 H 0.73221 0.06583 0.77011 0.0
H4447 H 0.71739 0.06818 0.78471 0.0
H4448 H 0.73461 0.07791 0.7509 0.0
H4449 H 0.72915 0.0381 0.76036 0.0
H4450 H 0.71791 0.02042 0.76321 0.0
H4451 H 0.70726 0.02129 0.72798 0.0
H4452 H 0.71831 0.03907 0.72497 0.0
H4453 H 0.78383 0.06637 0.71877 0.0
H4454 H 0.76904 0.06459 0.73347 0.0
H4455 H 0.74415 0.05594 0.70752 0.0
H4456 H 0.759 0.05747 0.69274 0.0
H4457 H 0.74094 0.04338 0.72687 0.0
H4458 H 0.74594 0.08302 0.7173 0.0
H4459 H 0.75685 0.10085 0.71413 0.0
H4460 H 0.76778 0.10062 0.74929 0.0
H4461 H 0.75708 0.08268 0.75261 0.0
C4462 C 0.70037 0.06024 0.76227 0.0
C4463 C 0.70328 0.0637 0.77344 0.0
C4464 C 0.70886 0.05897 0.75391 0.0
C4465 C 0.72041 0.06103 0.75662 0.0
C4466 C 0.72335 0.06422 0.76784 0.0
C4467 C 0.71487 0.06553 0.77618 0.0
C4468 C 0.72939 0.0605 0.74764 0.0
C4469 C 0.73611 0.0703 0.74578 0.0
C4470 C 0.73107 0.0507 0.74069 0.0
C4471 C 0.72447 0.03997 0.74247 0.0
C4472 C 0.72434 0.03457 0.75325 0.0
C4473 C 0.71801 0.02452 0.75489 0.0
C4474 C 0.71185 0.01975 0.74579 0.0
C4475 C 0.71202 0.025 0.73503 0.0
C4476 C 0.71833 0.03506 0.73334 0.0
C4477 C 0.77524 0.06395 0.7162 0.0
C4478 C 0.77253 0.06219 0.70459 0.0
C4479 C 0.7668 0.06297 0.7246 0.0
C4480 C 0.75546 0.06037 0.72155 0.0
C4481 C 0.75284 0.05801 0.71004 0.0
C4482 C 0.76132 0.05891 0.70162 0.0
C4483 C 0.74626 0.06073 0.73029 0.0
C4484 C 0.73945 0.05097 0.73205 0.0
C4485 C 0.74443 0.07059 0.73712 0.0
C4486 C 0.7508 0.08144 0.73517 0.0
C4487 C 0.75074 0.08672 0.72433 0.0
C4488 C 0.75688 0.09686 0.72251 0.0
C4489 C 0.76303 0.10185 0.7315 0.0
C4490 C 0.76303 0.09674 0.74233 0.0
C4491 C 0.75692 0.08659 0.74419 0.0
H4492 H 0.76778 0.10969 0.73007 0.0
H4493 H 0.70696 0.01197 0.74708 0.0
H4494 H 0.94315 0.69646 0.76415 0.0
H4495 H 0.94527 0.71261 0.75087 0.0
H4496 H 0.92117 0.73227 0.77087 0.0
H4497 H 0.91904 0.71625 0.78417 0.0
H4498 H 0.91547 0.73112 0.74804 0.0
H4499 H 0.94825 0.73994 0.77098 0.0
H4500 H 0.9666 0.73621 0.78075 0.0
H4501 H 0.98258 0.72892 0.74841 0.0
H4502 H 0.96426 0.73243 0.73844 0.0
H4503 H 0.91956 0.78373 0.71911 0.0
H4504 H 0.92185 0.76977 0.73456 0.0
H4505 H 0.94405 0.74946 0.71309 0.0
H4506 H 0.94175 0.76338 0.6975 0.0
H4507 H 0.95126 0.75119 0.73677 0.0
H4508 H 0.91826 0.74149 0.71405 0.0
H4509 H 0.89992 0.74532 0.70426 0.0
H4510 H 0.88439 0.75419 0.73644 0.0
H4511 H 0.9027 0.75059 0.7464 0.0
C4512 C 0.93844 0.70429 0.7658 0.0
C4513 C 0.93087 0.70506 0.77514 0.0
C4514 C 0.93969 0.71351 0.75824 0.0
C4515 C 0.93336 0.72361 0.75991 0.0
C4516 C 0.9261 0.72453 0.76944 0.0
C4517 C 0.92492 0.71537 0.77704 0.0
C4518 C 0.93358 0.73286 0.75124 0.0
C4519 C 0.92327 0.73563 0.74571 0.0
C4520 C 0.94382 0.7385 0.748 0.0
C4521 C 0.95484 0.73632 0.75397 0.0
C4522 C 0.95564 0.73742 0.76595 0.0
C4523 C 0.96605 0.73538 0.77153 0.0
C4524 C 0.97575 0.7323 0.76521 0.0
C4525 C 0.97506 0.73128 0.75329 0.0
C4526 C 0.96466 0.73331 0.74767 0.0
C4527 C 0.92506 0.77639 0.71772 0.0
C4528 C 0.93039 0.77458 0.70706 0.0
C4529 C 0.92635 0.76843 0.72655 0.0
C4530 C 0.93304 0.75857 0.7249 0.0
C4531 C 0.93887 0.75703 0.7145 0.0
C4532 C 0.9375 0.76495 0.7056 0.0
C4533 C 0.93314 0.74946 0.73369 0.0
C4534 C 0.94348 0.74669 0.73917 0.0
C4535 C 0.92293 0.74377 0.7369 0.0
C4536 C 0.91189 0.7459 0.73095 0.0
C4537 C 0.91096 0.74436 0.71903 0.0
C4538 C 0.90057 0.74647 0.71345 0.0
C4539 C 0.891 0.75003 0.71972 0.0
C4540 C 0.89181 0.75145 0.73159 0.0
C4541 C 0.90219 0.74937 0.73721 0.0
H4542 H 0.88296 0.75165 0.71539 0.0
H4543 H 0.9838 0.73073 0.76954 0.0
H4544 H 0.23229 0.29886 0.05402 0.0
H4545 H 0.24634 0.28343 0.05191 0.0
H4546 H 0.22241 0.25952 0.06688 0.0
H4547 H 0.2084 0.2749 0.06914 0.0
H4548 H 0.24273 0.25868 0.07738 0.0
H4549 H 0.22936 0.25801 0.0386 0.0
H4550 H 0.22446 0.26608 0.01968 0.0
H4551 H 0.25942 0.27657 0.01488 0.0
H4552 H 0.2645 0.2687 0.03384 0.0
H4553 H 0.27568 0.20882 0.06996 0.0
H4554 H 0.26021 0.22268 0.06734 0.0
H4555 H 0.28437 0.24728 0.05397 0.0
H4556 H 0.29992 0.2334 0.05646 0.0
H4557 H 0.26373 0.24745 0.04213 0.0
H4558 H 0.27682 0.24896 0.08119 0.0
H4559 H 0.28179 0.24097 0.10012 0.0
H4560 H 0.24721 0.22909 0.10441 0.0
H4561 H 0.24207 0.23687 0.08541 0.0
C4562 C 0.22996 0.29028 0.05669 0.0
C4563 C 0.21927 0.28811 0.06182 0.0
C4564 C 0.23798 0.28146 0.05544 0.0
C4565 C 0.23541 0.27032 0.05922 0.0
C4566 C 0.22458 0.26806 0.06394 0.0
C4567 C 0.21658 0.27686 0.0652 0.0
C4568 C 0.24429 0.26124 0.05915 0.0
C4569 C 0.24717 0.25608 0.06963 0.0
C4570 C 0.25032 0.25811 0.0491 0.0
C4571 C 0.24729 0.26286 0.0377 0.0
C4572 C 0.23599 0.26213 0.03355 0.0
C4573 C 0.23318 0.26665 0.02281 0.0
C4574 C 0.24162 0.27186 0.0161 0.0
C4575 C 0.25289 0.27254 0.0201 0.0
C4576 C 0.25574 0.26804 0.03084 0.0
C4577 C 0.27769 0.21713 0.06634 0.0
C4578 C 0.28903 0.22007 0.06353 0.0
C4579 C 0.26884 0.22504 0.06487 0.0
C4580 C 0.27119 0.23605 0.06062 0.0
C4581 C 0.2824 0.23883 0.05729 0.0
C4582 C 0.29127 0.23091 0.05876 0.0
C4583 C 0.26206 0.24486 0.06033 0.0
C4584 C 0.2592 0.25 0.04984 0.0
C4585 C 0.25604 0.24802 0.07038 0.0
C4586 C 0.25909 0.24339 0.08183 0.0
C4587 C 0.2703 0.24456 0.08613 0.0
C4588 C 0.27314 0.24009 0.09688 0.0
C4589 C 0.26483 0.2345 0.10345 0.0
C4590 C 0.25365 0.23341 0.0993 0.0
C4591 C 0.25076 0.23785 0.08855 0.0
H4592 H 0.26705 0.23104 0.11177 0.0
H4593 H 0.23943 0.27535 0.00778 0.0
H4594 H 0.20964 0.71685 0.9193 0.0
H4595 H 0.22355 0.73236 0.92141 0.0
H4596 H 0.2468 0.70934 0.93863 0.0
H4597 H 0.23288 0.69373 0.93661 0.0
H4598 H 0.24605 0.73103 0.94869 0.0
H4599 H 0.25085 0.71449 0.91128 0.0
H4600 H 0.24451 0.70779 0.89226 0.0
H4601 H 0.23326 0.7418 0.88381 0.0
H4602 H 0.23937 0.74868 0.90286 0.0
H4603 H 0.29825 0.76181 0.93856 0.0
H4604 H 0.28287 0.74761 0.94015 0.0
H4605 H 0.25996 0.77029 0.92204 0.0
H4606 H 0.27525 0.7845 0.92039 0.0
H4607 H 0.26032 0.74891 0.91282 0.0
H4608 H 0.2561 0.76565 0.95001 0.0
H4609 H 0.26244 0.77236 0.96902 0.0
H4610 H 0.27272 0.73815 0.97789 0.0
H4611 H 0.26659 0.73125 0.95885 0.0
C4612 C 0.21766 0.7151 0.92364 0.0
C4613 C 0.22022 0.70404 0.92771 0.0
C4614 C 0.2256 0.72397 0.92482 0.0
C4615 C 0.23624 0.72195 0.93005 0.0
C4616 C 0.23863 0.71105 0.93455 0.0
C4617 C 0.2307 0.70215 0.93335 0.0
C4618 C 0.24507 0.73105 0.93026 0.0
C4619 C 0.24928 0.73487 0.94086 0.0
C4620 C 0.2491 0.73617 0.92003 0.0
C4621 C 0.24545 0.73207 0.90854 0.0
C4622 C 0.24693 0.72052 0.9054 0.0
C4623 C 0.24339 0.71669 0.89461 0.0
C4624 C 0.23845 0.72436 0.88684 0.0
C4625 C 0.23707 0.73587 0.88984 0.0
C4626 C 0.24057 0.73974 0.90063 0.0
C4627 C 0.28989 0.76383 0.93504 0.0
C4628 C 0.28797 0.77425 0.9293 0.0
C4629 C 0.28111 0.75572 0.93599 0.0
C4630 C 0.27028 0.75792 0.93123 0.0
C4631 C 0.26826 0.76844 0.92576 0.0
C4632 C 0.277 0.77655 0.92486 0.0
C4633 C 0.26128 0.74897 0.93126 0.0
C4634 C 0.25706 0.74513 0.92067 0.0
C4635 C 0.25728 0.74384 0.9415 0.0
C4636 C 0.26099 0.74796 0.95295 0.0
C4637 C 0.25981 0.75958 0.95597 0.0
C4638 C 0.26334 0.76341 0.96676 0.0
C4639 C 0.268 0.75569 0.97464 0.0
C4640 C 0.26912 0.74412 0.97176 0.0
C4641 C 0.26561 0.74024 0.96098 0.0
H4642 H 0.27073 0.75868 0.983 0.0
H4643 H 0.23572 0.72138 0.87849 0.0
H4644 H 0.23266 0.29932 0.93434 0.0
H4645 H 0.24731 0.28444 0.93581 0.0
H4646 H 0.22331 0.25938 0.92304 0.0
H4647 H 0.20856 0.27426 0.9215 0.0
H4648 H 0.23694 0.25135 0.94141 0.0
H4649 H 0.24137 0.27006 0.90501 0.0
H4650 H 0.24353 0.28666 0.89211 0.0
H4651 H 0.27501 0.29582 0.90884 0.0
H4652 H 0.27294 0.27936 0.92198 0.0
H4653 H 0.27664 0.209 0.92236 0.0
H4654 H 0.2613 0.22313 0.92431 0.0
H4655 H 0.28605 0.24874 0.93428 0.0
H4656 H 0.30147 0.23468 0.93223 0.0
H4657 H 0.27193 0.25654 0.91776 0.0
H4658 H 0.2678 0.23745 0.95386 0.0
H4659 H 0.26553 0.2209 0.96682 0.0
H4660 H 0.23356 0.21241 0.95066 0.0
H4661 H 0.23573 0.22882 0.9375 0.0
C4662 C 0.23045 0.29063 0.93196 0.0
C4663 C 0.21948 0.28797 0.92771 0.0
C4664 C 0.23884 0.28214 0.93278 0.0
C4665 C 0.23641 0.27086 0.92941 0.0
C4666 C 0.22533 0.26806 0.92566 0.0
C4667 C 0.21694 0.27656 0.92476 0.0
C4668 C 0.24562 0.26216 0.92923 0.0
C4669 C 0.24455 0.25239 0.93615 0.0
C4670 C 0.25561 0.26369 0.92252 0.0
C4671 C 0.25693 0.27354 0.91457 0.0
C4672 C 0.24871 0.27566 0.90601 0.0
C4673 C 0.24992 0.28504 0.89864 0.0
C4674 C 0.25938 0.29231 0.89968 0.0
C4675 C 0.26767 0.29019 0.90806 0.0
C4676 C 0.26649 0.28083 0.91547 0.0
C4677 C 0.27881 0.21761 0.92509 0.0
C4678 C 0.29027 0.22074 0.92712 0.0
C4679 C 0.27002 0.22566 0.92624 0.0
C4680 C 0.27253 0.23697 0.9295 0.0
C4681 C 0.28394 0.24006 0.93175 0.0
C4682 C 0.29273 0.23201 0.93061 0.0
C4683 C 0.26332 0.24571 0.93 0.0
C4684 C 0.26437 0.25549 0.92308 0.0
C4685 C 0.25332 0.24417 0.93671 0.0
C4686 C 0.25198 0.2343 0.94462 0.0
C4687 C 0.26034 0.232 0.95301 0.0
C4688 C 0.25906 0.22265 0.9604 0.0
C4689 C 0.24942 0.21559 0.95955 0.0
C4690 C 0.24103 0.21788 0.95131 0.0
C4691 C 0.24227 0.2272 0.94388 0.0
H4692 H 0.24844 0.20836 0.96528 0.0
H4693 H 0.26031 0.29957 0.89397 0.0
H4694 H 0.69272 0.23493 0.9309 0.0
H4695 H 0.70806 0.24896 0.93371 0.0
H4696 H 0.73309 0.22366 0.92362 0.0
H4697 H 0.71781 0.20968 0.92058 0.0
H4698 H 0.72684 0.24983 0.94729 0.0
H4699 H 0.75395 0.23663 0.90802 0.0
H4700 H 0.75136 0.22766 0.88904 0.0
H4701 H 0.7166 0.23972 0.88788 0.0
H4702 H 0.71904 0.24889 0.90677 0.0
H4703 H 0.78515 0.2763 0.92595 0.0
H4704 H 0.77106 0.26086 0.92716 0.0
H4705 H 0.74531 0.28513 0.93794 0.0
H4706 H 0.75942 0.3006 0.93694 0.0
H4707 H 0.75233 0.25894 0.91448 0.0
H4708 H 0.72501 0.2715 0.95405 0.0
H4709 H 0.72754 0.28059 0.97297 0.0
H4710 H 0.76282 0.27012 0.9735 0.0
H4711 H 0.76046 0.26083 0.95466 0.0
C4712 C 0.7015 0.23234 0.92933 0.0
C4713 C 0.70405 0.22124 0.92541 0.0
C4714 C 0.71025 0.24035 0.93098 0.0
C4715 C 0.72169 0.23739 0.92873 0.0
C4716 C 0.7243 0.22618 0.92522 0.0
C4717 C 0.71556 0.21819 0.92351 0.0
C4718 C 0.73085 0.24615 0.92965 0.0
C4719 C 0.73235 0.25192 0.94009 0.0
C4720 C 0.73817 0.24868 0.92032 0.0
C4721 C 0.73665 0.24333 0.90887 0.0
C4722 C 0.74577 0.2374 0.90369 0.0
C4723 C 0.74433 0.23228 0.89295 0.0
C4724 C 0.73381 0.23309 0.88727 0.0
C4725 C 0.72473 0.23906 0.89231 0.0
C4726 C 0.72613 0.24421 0.90304 0.0
C4727 C 0.77654 0.27832 0.92875 0.0
C4728 C 0.77338 0.28967 0.9313 0.0
C4729 C 0.76849 0.26949 0.92941 0.0
C4730 C 0.75715 0.27183 0.93266 0.0
C4731 C 0.75406 0.28309 0.93557 0.0
C4732 C 0.76212 0.29194 0.93495 0.0
C4733 C 0.74838 0.26264 0.93214 0.0
C4734 C 0.7469 0.25681 0.92173 0.0
C4735 C 0.74108 0.26009 0.9415 0.0
C4736 C 0.74258 0.26557 0.95288 0.0
C4737 C 0.73329 0.2711 0.95822 0.0
C4738 C 0.7347 0.2763 0.96893 0.0
C4739 C 0.74534 0.27597 0.97442 0.0
C4740 C 0.75459 0.27041 0.96922 0.0
C4741 C 0.75323 0.26519 0.95851 0.0
H4742 H 0.74642 0.28 0.9827 0.0
H4743 H 0.73271 0.22911 0.87897 0.0
H4744 H 0.69101 0.75535 0.93158 0.0
H4745 H 0.70632 0.7414 0.93459 0.0
H4746 H 0.73145 0.76851 0.93281 0.0
H4747 H 0.71618 0.78246 0.92941 0.0
H4748 H 0.73767 0.75141 0.9198 0.0
H4749 H 0.72416 0.7546 0.9586 0.0
H4750 H 0.70962 0.75445 0.97395 0.0
H4751 H 0.70153 0.71938 0.96621 0.0
H4752 H 0.71592 0.71936 0.95071 0.0
H4753 H 0.78471 0.71666 0.93327 0.0
H4754 H 0.77005 0.73146 0.93557 0.0
H4755 H 0.74383 0.70538 0.93666 0.0
H4756 H 0.7585 0.69052 0.93478 0.0
H4757 H 0.73856 0.7224 0.9509 0.0
H4758 H 0.75074 0.71944 0.91154 0.0
H4759 H 0.76487 0.71927 0.89581 0.0
H4760 H 0.77488 0.7537 0.90418 0.0
H4761 H 0.76092 0.75401 0.92008 0.0
C4762 C 0.69979 0.75836 0.93195 0.0
C4763 C 0.70241 0.76999 0.93023 0.0
C4764 C 0.70854 0.75038 0.93374 0.0
C4765 C 0.72004 0.75391 0.93406 0.0
C4766 C 0.72264 0.76558 0.9326 0.0
C4767 C 0.71391 0.77354 0.93068 0.0
C4768 C 0.72942 0.74538 0.93518 0.0
C4769 C 0.73798 0.74521 0.92673 0.0
C4770 C 0.72963 0.73706 0.94403 0.0
C4771 C 0.72106 0.73701 0.95344 0.0
C4772 C 0.71923 0.74688 0.96013 0.0
C4773 C 0.71102 0.74682 0.96886 0.0
C4774 C 0.70464 0.73692 0.97104 0.0
C4775 C 0.70648 0.72704 0.96451 0.0
C4776 C 0.71467 0.72706 0.95576 0.0
C4777 C 0.77583 0.71408 0.93418 0.0
C4778 C 0.77272 0.70245 0.9337 0.0
C4779 C 0.76746 0.72254 0.93545 0.0
C4780 C 0.75582 0.71954 0.936 0.0
C4781 C 0.75275 0.7079 0.93619 0.0
C4782 C 0.76115 0.69941 0.93509 0.0
C4783 C 0.74681 0.72851 0.93555 0.0
C4784 C 0.7383 0.7287 0.94406 0.0
C4785 C 0.74658 0.73683 0.92671 0.0
C4786 C 0.75487 0.73671 0.91707 0.0
C4787 C 0.756 0.72695 0.91007 0.0
C4788 C 0.76398 0.72683 0.90112 0.0
C4789 C 0.77079 0.73646 0.89902 0.0
C4790 C 0.76961 0.74624 0.90583 0.0
C4791 C 0.76167 0.7464 0.91481 0.0
H4792 H 0.77696 0.73635 0.89209 0.0
H4793 H 0.69828 0.73689 0.9778 0.0
H4794 H 0.7862 0.7156 0.06268 0.0
H4795 H 0.77243 0.73126 0.0606 0.0
H4796 H 0.7452 0.7067 0.05567 0.0
H4797 H 0.75901 0.69102 0.05734 0.0
H4798 H 0.74179 0.72484 0.04242 0.0
H4799 H 0.75101 0.71865 0.08224 0.0
H4800 H 0.76391 0.71686 0.0989 0.0
H4801 H 0.77571 0.75134 0.09369 0.0
H4802 H 0.763 0.75327 0.0769 0.0
H4803 H 0.69385 0.75698 0.06183 0.0
H4804 H 0.70917 0.74315 0.05837 0.0
H4805 H 0.7344 0.76977 0.06327 0.0
H4806 H 0.7191 0.7836 0.06702 0.0
H4807 H 0.73964 0.75151 0.07548 0.0
H4808 H 0.72874 0.75807 0.03639 0.0
H4809 H 0.71536 0.75953 0.02009 0.0
H4810 H 0.70606 0.72416 0.02429 0.0
H4811 H 0.71928 0.72252 0.04071 0.0
C4812 C 0.7773 0.71355 0.06098 0.0
C4813 C 0.77364 0.7021 0.06031 0.0
C4814 C 0.76944 0.7225 0.05983 0.0
C4815 C 0.75774 0.72014 0.05825 0.0
C4816 C 0.75417 0.70872 0.05694 0.0
C4817 C 0.76207 0.69977 0.05792 0.0
C4818 C 0.74912 0.72949 0.05871 0.0
C4819 C 0.74126 0.73063 0.04967 0.0
C4820 C 0.74856 0.73718 0.06809 0.0
C4821 C 0.75615 0.73606 0.07824 0.0
C4822 C 0.75641 0.72582 0.08461 0.0
C4823 C 0.76369 0.72478 0.09408 0.0
C4824 C 0.77065 0.73397 0.09734 0.0
C4825 C 0.77033 0.74423 0.09115 0.0
C4826 C 0.76309 0.7453 0.08166 0.0
C4827 C 0.70266 0.75992 0.06205 0.0
C4828 C 0.70527 0.77137 0.06474 0.0
C4829 C 0.71141 0.75201 0.06 0.0
C4830 C 0.72294 0.75544 0.06044 0.0
C4831 C 0.72556 0.76694 0.06287 0.0
C4832 C 0.71681 0.77483 0.065 0.0
C4833 C 0.73226 0.74688 0.05919 0.0
C4834 C 0.74024 0.74584 0.06813 0.0
C4835 C 0.73285 0.73925 0.04976 0.0
C4836 C 0.72494 0.7402 0.03984 0.0
C4837 C 0.72378 0.75062 0.03389 0.0
C4838 C 0.71624 0.75148 0.02462 0.0
C4839 C 0.70985 0.74195 0.02117 0.0
C4840 C 0.71101 0.73153 0.02697 0.0
C4841 C 0.71854 0.73063 0.03625 0.0
H4842 H 0.70401 0.74263 0.01399 0.0
H4843 H 0.77628 0.73315 0.10467 0.0
H4844 H 0.20861 0.71638 0.06949 0.0
H4845 H 0.22271 0.7317 0.06719 0.0
H4846 H 0.24628 0.7078 0.05167 0.0
H4847 H 0.23226 0.69239 0.05401 0.0
H4848 H 0.25602 0.71978 0.06909 0.0
H4849 H 0.23354 0.72844 0.03566 0.0
H4850 H 0.21577 0.73262 0.02501 0.0
H4851 H 0.21028 0.76266 0.04556 0.0
H4852 H 0.22794 0.75858 0.05645 0.0
H4853 H 0.29866 0.76045 0.05604 0.0
H4854 H 0.28376 0.74593 0.05348 0.0
H4855 H 0.25868 0.769 0.06786 0.0
H4856 H 0.27348 0.78364 0.07027 0.0
H4857 H 0.24981 0.75732 0.05006 0.0
H4858 H 0.27068 0.7485 0.08428 0.0
H4859 H 0.28784 0.74462 0.096 0.0
H4860 H 0.29556 0.71518 0.07529 0.0
H4861 H 0.27853 0.71899 0.06333 0.0
C4862 C 0.21674 0.71441 0.06544 0.0
C4863 C 0.21935 0.70316 0.06199 0.0
C4864 C 0.22476 0.72319 0.06409 0.0
C4865 C 0.23552 0.72089 0.05922 0.0
C4866 C 0.23802 0.70974 0.05545 0.0
C4867 C 0.22999 0.70096 0.05677 0.0
C4868 C 0.24446 0.72991 0.05885 0.0
C4869 C 0.25475 0.7279 0.06473 0.0
C4870 C 0.24262 0.74064 0.05351 0.0
C4871 C 0.23202 0.74315 0.04694 0.0
C4872 C 0.2285 0.73589 0.03797 0.0
C4873 C 0.21845 0.73825 0.03188 0.0
C4874 C 0.21189 0.74789 0.03462 0.0
C4875 C 0.21537 0.7552 0.04345 0.0
C4876 C 0.2254 0.75287 0.04958 0.0
C4877 C 0.28995 0.76247 0.05855 0.0
C4878 C 0.28726 0.77315 0.06346 0.0
C4879 C 0.28146 0.75416 0.05711 0.0
C4880 C 0.27015 0.75633 0.06065 0.0
C4881 C 0.26735 0.76714 0.0651 0.0
C4882 C 0.27583 0.77548 0.0665 0.0
C4883 C 0.26139 0.74714 0.06023 0.0
C4884 C 0.25111 0.74914 0.05429 0.0
C4885 C 0.26316 0.73643 0.06565 0.0
C4886 C 0.27341 0.7341 0.07283 0.0
C4887 C 0.2761 0.74125 0.08216 0.0
C4888 C 0.28579 0.73906 0.08886 0.0
C4889 C 0.29281 0.72968 0.08637 0.0
C4890 C 0.29013 0.72245 0.07719 0.0
C4891 C 0.28046 0.72462 0.07045 0.0
H4892 H 0.3003 0.72799 0.09157 0.0
H4893 H 0.20411 0.7497 0.0299 0.0
H4894 H 0.69077 0.23661 0.06497 0.0
H4895 H 0.70621 0.25044 0.0621 0.0
H4896 H 0.73065 0.22274 0.05975 0.0
H4897 H 0.71527 0.20889 0.06312 0.0
H4898 H 0.7384 0.2382 0.0735 0.0
H4899 H 0.72185 0.23966 0.03576 0.0
H4900 H 0.7062 0.24183 0.02171 0.0
H4901 H 0.69964 0.27591 0.03397 0.0
H4902 H 0.71515 0.2739 0.04819 0.0
H4903 H 0.78456 0.27527 0.06164 0.0
H4904 H 0.77011 0.26031 0.05888 0.0
H4905 H 0.74334 0.28578 0.061 0.0
H4906 H 0.75777 0.3008 0.06317 0.0
H4907 H 0.73751 0.27059 0.04596 0.0
H4908 H 0.75229 0.26869 0.08466 0.0
H4909 H 0.76742 0.26683 0.09932 0.0
H4910 H 0.77668 0.23385 0.08584 0.0
H4911 H 0.76169 0.23558 0.071 0.0
C4912 C 0.69942 0.23346 0.06369 0.0
C4913 C 0.70183 0.22167 0.06428 0.0
C4914 C 0.70824 0.24138 0.06198 0.0
C4915 C 0.7196 0.23764 0.06055 0.0
C4916 C 0.72196 0.22583 0.06082 0.0
C4917 C 0.71317 0.21793 0.06273 0.0
C4918 C 0.72912 0.24606 0.05959 0.0
C4919 C 0.7383 0.24515 0.06731 0.0
C4920 C 0.72886 0.25532 0.05174 0.0
C4921 C 0.71962 0.25659 0.04309 0.0
C4922 C 0.71703 0.24759 0.0355 0.0
C4923 C 0.70818 0.2488 0.0275 0.0
C4924 C 0.70191 0.25899 0.02696 0.0
C4925 C 0.7045 0.26802 0.0344 0.0
C4926 C 0.71333 0.26686 0.04242 0.0
C4927 C 0.77559 0.27767 0.06136 0.0
C4928 C 0.77227 0.28917 0.06272 0.0
C4929 C 0.76734 0.26912 0.05984 0.0
C4930 C 0.75561 0.27188 0.06002 0.0
C4931 C 0.75232 0.28343 0.06088 0.0
C4932 C 0.76058 0.29201 0.06214 0.0
C4933 C 0.74673 0.26274 0.05991 0.0
C4934 C 0.73766 0.26354 0.05203 0.0
C4935 C 0.74702 0.25341 0.06767 0.0
C4936 C 0.75595 0.25232 0.07666 0.0
C4937 C 0.7576 0.26107 0.08479 0.0
C4938 C 0.76614 0.26004 0.09313 0.0
C4939 C 0.77303 0.25024 0.09349 0.0
C4940 C 0.77136 0.24144 0.08553 0.0
C4941 C 0.76284 0.24244 0.07716 0.0
H4942 H 0.77964 0.24945 0.09995 0.0
H4943 H 0.69506 0.2599 0.02077 0.0
H4944 H 0.5713 0.77676 0.71003 0.0
H4945 H 0.56876 0.76134 0.72396 0.0
H4946 H 0.55475 0.78547 0.74824 0.0
H4947 H 0.55717 0.80096 0.7343 0.0
H4948 H 0.57891 0.75952 0.74459 0.0
H4949 H 0.53543 0.77115 0.76555 0.0
H4950 H 0.51704 0.78017 0.76027 0.0
H4951 H 0.52212 0.77043 0.72514 0.0
H4952 H 0.54045 0.76121 0.73023 0.0
H4953 H 0.5555 0.73295 0.80012 0.0
H4954 H 0.55386 0.7476 0.78516 0.0
H4955 H 0.56638 0.72348 0.76009 0.0
H4956 H 0.56814 0.70884 0.77495 0.0
H4957 H 0.54254 0.74938 0.7642 0.0
H4958 H 0.58585 0.73739 0.74331 0.0
H4959 H 0.60417 0.72829 0.74869 0.0
H4960 H 0.59941 0.73891 0.78362 0.0
H4961 H 0.58117 0.74823 0.77841 0.0
C4962 C 0.56757 0.77878 0.71829 0.0
C4963 C 0.56446 0.79008 0.72108 0.0
C4964 C 0.56615 0.76996 0.72625 0.0
C4965 C 0.56153 0.77225 0.73711 0.0
C4966 C 0.5582 0.78349 0.73985 0.0
C4967 C 0.55963 0.79233 0.73189 0.0
C4968 C 0.56081 0.76298 0.74577 0.0
C4969 C 0.57092 0.75719 0.74874 0.0
C4970 C 0.55044 0.76016 0.75141 0.0
C4971 C 0.53938 0.76561 0.74826 0.0
C4972 C 0.53261 0.77091 0.75671 0.0
C4973 C 0.52219 0.77605 0.75375 0.0
C4974 C 0.51844 0.77591 0.74237 0.0
C4975 C 0.52507 0.77058 0.73394 0.0
C4976 C 0.53548 0.76541 0.73685 0.0
C4977 C 0.55776 0.73072 0.79139 0.0
C4978 C 0.56209 0.71979 0.78873 0.0
C4979 C 0.55678 0.73909 0.78286 0.0
C4980 C 0.56017 0.73666 0.77158 0.0
C4981 C 0.56388 0.72556 0.76879 0.0
C4982 C 0.56486 0.71721 0.77729 0.0
C4983 C 0.56062 0.7459 0.76289 0.0
C4984 C 0.5505 0.7517 0.75998 0.0
C4985 C 0.57099 0.74877 0.7573 0.0
C4986 C 0.58208 0.7434 0.76048 0.0
C4987 C 0.58874 0.73783 0.75213 0.0
C4988 C 0.59911 0.73262 0.75515 0.0
C4989 C 0.60293 0.73298 0.7665 0.0
C4990 C 0.59642 0.7386 0.77484 0.0
C4991 C 0.58606 0.74383 0.77186 0.0
H4992 H 0.61095 0.72893 0.76882 0.0
H4993 H 0.51038 0.7799 0.7401 0.0
H4994 H 0.1933 0.55614 0.73285 0.0
H4995 H 0.20842 0.55397 0.74725 0.0
H4996 H 0.23362 0.56491 0.7225 0.0
H4997 H 0.21858 0.56725 0.70812 0.0
H4998 H 0.2285 0.5417 0.74911 0.0
H4999 H 0.25199 0.58328 0.73556 0.0
H5000 H 0.2476 0.60178 0.72627 0.0
H5001 H 0.2127 0.59949 0.73776 0.0
H5002 H 0.21692 0.58109 0.74727 0.0
H5003 H 0.28506 0.5681 0.77426 0.0
H5004 H 0.27069 0.56554 0.75926 0.0
H5005 H 0.24639 0.5536 0.78446 0.0
H5006 H 0.2608 0.556 0.79953 0.0
H5007 H 0.25083 0.57687 0.75776 0.0
H5008 H 0.22707 0.5355 0.77119 0.0
H5009 H 0.23113 0.51711 0.78082 0.0
H5010 H 0.26632 0.51911 0.77021 0.0
H5011 H 0.26244 0.53742 0.76039 0.0
C5012 C 0.20208 0.55795 0.73044 0.0
C5013 C 0.20474 0.56202 0.7194 0.0
C5014 C 0.21071 0.55667 0.73866 0.0
C5015 C 0.2221 0.55945 0.73598 0.0
C5016 C 0.22485 0.56289 0.72478 0.0
C5017 C 0.21624 0.5642 0.71658 0.0
C5018 C 0.23099 0.55954 0.74505 0.0
C5019 C 0.23332 0.5494 0.7511 0.0
C5020 C 0.23734 0.56957 0.74754 0.0
C5021 C 0.23475 0.58074 0.74201 0.0
C5022 C 0.24339 0.58675 0.73614 0.0
C5023 C 0.24093 0.59722 0.73084 0.0
C5024 C 0.22987 0.60179 0.73139 0.0
C5025 C 0.22126 0.59592 0.7373 0.0
C5026 C 0.22368 0.58547 0.74264 0.0
C5027 C 0.27671 0.56477 0.7766 0.0
C5028 C 0.27404 0.5623 0.78809 0.0
C5029 C 0.2685 0.56334 0.76802 0.0
C5030 C 0.25748 0.55936 0.77073 0.0
C5031 C 0.25489 0.55655 0.78215 0.0
C5032 C 0.26311 0.55796 0.79075 0.0
C5033 C 0.24851 0.55897 0.76174 0.0
C5034 C 0.24609 0.56912 0.75574 0.0
C5035 C 0.24206 0.54897 0.75938 0.0
C5036 C 0.24448 0.5379 0.76516 0.0
C5037 C 0.23566 0.53199 0.77088 0.0
C5038 C 0.23794 0.52159 0.77638 0.0
C5039 C 0.24899 0.51697 0.77616 0.0
C5040 C 0.25778 0.52272 0.77042 0.0
C5041 C 0.25555 0.53313 0.7649 0.0
H5042 H 0.25073 0.50891 0.78043 0.0
H5043 H 0.22798 0.60988 0.72726 0.0
H5044 H 0.42903 0.21643 0.7085 0.0
H5045 H 0.43191 0.23137 0.7229 0.0
H5046 H 0.44173 0.20571 0.74766 0.0
H5047 H 0.43882 0.1907 0.73331 0.0
H5048 H 0.42484 0.21972 0.75556 0.0
H5049 H 0.46143 0.22418 0.73754 0.0
H5050 H 0.4748 0.22686 0.72139 0.0
H5051 H 0.45906 0.25918 0.71347 0.0
H5052 H 0.44549 0.25662 0.72949 0.0
H5053 H 0.43767 0.25879 0.79966 0.0
H5054 H 0.44072 0.24424 0.7849 0.0
H5055 H 0.43014 0.26828 0.75887 0.0
H5056 H 0.4271 0.28293 0.77358 0.0
H5057 H 0.44858 0.25484 0.75194 0.0
H5058 H 0.41126 0.24994 0.76853 0.0
H5059 H 0.39735 0.24751 0.78425 0.0
H5060 H 0.41384 0.21614 0.79425 0.0
H5061 H 0.42797 0.21849 0.77868 0.0
C5062 C 0.43198 0.21398 0.71695 0.0
C5063 C 0.43363 0.20238 0.7198 0.0
C5064 C 0.43367 0.22253 0.72516 0.0
C5065 C 0.43706 0.21964 0.73633 0.0
C5066 C 0.43911 0.20811 0.73908 0.0
C5067 C 0.43747 0.19955 0.73086 0.0
C5068 C 0.43748 0.22854 0.74538 0.0
C5069 C 0.43022 0.22728 0.75488 0.0
C5070 C 0.44422 0.23858 0.74429 0.0
C5071 C 0.45238 0.24016 0.73466 0.0
C5072 C 0.46076 0.23181 0.7323 0.0
C5073 C 0.46839 0.23332 0.72318 0.0
C5074 C 0.46777 0.24317 0.7164 0.0
C5075 C 0.45953 0.25155 0.71873 0.0
C5076 C 0.45188 0.25008 0.72784 0.0
C5077 C 0.43612 0.26104 0.79078 0.0
C5078 C 0.43203 0.27197 0.78779 0.0
C5079 C 0.43786 0.25271 0.78237 0.0
C5080 C 0.43552 0.25516 0.77082 0.0
C5081 C 0.43198 0.26623 0.76774 0.0
C5082 C 0.43021 0.27457 0.77616 0.0
C5083 C 0.436 0.24595 0.76211 0.0
C5084 C 0.44334 0.24719 0.75266 0.0
C5085 C 0.42927 0.23591 0.76317 0.0
C5086 C 0.42076 0.23446 0.77252 0.0
C5087 C 0.41199 0.24257 0.77414 0.0
C5088 C 0.40405 0.24121 0.78302 0.0
C5089 C 0.40473 0.23169 0.79027 0.0
C5090 C 0.41334 0.22352 0.78864 0.0
C5091 C 0.42131 0.22486 0.77979 0.0
H5092 H 0.39858 0.23065 0.79713 0.0
H5093 H 0.47368 0.24432 0.70934 0.0
H5094 H 0.70682 0.42297 0.7748 0.0
H5095 H 0.72018 0.42529 0.75879 0.0
H5096 H 0.74643 0.43659 0.78228 0.0
H5097 H 0.73305 0.43458 0.79826 0.0
H5098 H 0.74717 0.44887 0.76307 0.0
H5099 H 0.74508 0.40866 0.77267 0.0
H5100 H 0.73531 0.39019 0.77595 0.0
H5101 H 0.72282 0.39044 0.74132 0.0
H5102 H 0.7324 0.40899 0.73789 0.0
H5103 H 0.79824 0.43505 0.7332 0.0
H5104 H 0.78217 0.4371 0.74645 0.0
H5105 H 0.75881 0.42606 0.71999 0.0
H5106 H 0.77489 0.42378 0.70672 0.0
H5107 H 0.75526 0.41453 0.73931 0.0
H5108 H 0.75928 0.45408 0.72927 0.0
H5109 H 0.76956 0.4723 0.72624 0.0
H5110 H 0.77895 0.47315 0.76182 0.0
H5111 H 0.76886 0.45485 0.76504 0.0
C5112 C 0.71541 0.42606 0.77653 0.0
C5113 C 0.71893 0.42849 0.7878 0.0
C5114 C 0.72304 0.42734 0.76739 0.0
C5115 C 0.73436 0.43092 0.76937 0.0
C5116 C 0.73774 0.43379 0.78055 0.0
C5117 C 0.73009 0.4326 0.78969 0.0
C5118 C 0.74286 0.43119 0.75992 0.0
C5119 C 0.749 0.44135 0.75792 0.0
C5120 C 0.74507 0.42145 0.75302 0.0
C5121 C 0.73935 0.41027 0.75507 0.0
C5122 C 0.74018 0.40481 0.76579 0.0
C5123 C 0.73469 0.39433 0.76767 0.0
C5124 C 0.72842 0.38917 0.75886 0.0
C5125 C 0.72766 0.39446 0.74814 0.0
C5126 C 0.73312 0.40496 0.74622 0.0
C5127 C 0.78967 0.4332 0.73015 0.0
C5128 C 0.78783 0.42922 0.71893 0.0
C5129 C 0.78048 0.43443 0.73772 0.0
C5130 C 0.76927 0.43182 0.73418 0.0
C5131 C 0.76738 0.42813 0.72289 0.0
C5132 C 0.77658 0.42686 0.71532 0.0
C5133 C 0.75967 0.43219 0.74251 0.0
C5134 C 0.75334 0.42212 0.74434 0.0
C5135 C 0.75735 0.442 0.74927 0.0
C5136 C 0.76337 0.45304 0.74738 0.0
C5137 C 0.7636 0.45811 0.73643 0.0
C5138 C 0.76938 0.46846 0.73468 0.0
C5139 C 0.77492 0.47387 0.74383 0.0
C5140 C 0.77466 0.46895 0.75475 0.0
C5141 C 0.7689 0.4586 0.75654 0.0
H5142 H 0.77939 0.48188 0.74245 0.0
H5143 H 0.72417 0.38105 0.76034 0.0
H5144 H 0.57955 0.21685 0.28049 0.0
H5145 H 0.57724 0.23238 0.26669 0.0
H5146 H 0.54973 0.21379 0.25031 0.0
H5147 H 0.55242 0.19794 0.26381 0.0
H5148 H 0.56352 0.22163 0.2349 0.0
H5149 H 0.54552 0.23864 0.26806 0.0
H5150 H 0.54453 0.24476 0.28828 0.0
H5151 H 0.57363 0.26674 0.28327 0.0
H5152 H 0.57488 0.26066 0.26306 0.0
H5153 H 0.54994 0.26682 0.1972 0.0
H5154 H 0.54818 0.25272 0.21263 0.0
H5155 H 0.5755 0.26953 0.2311 0.0
H5156 H 0.57686 0.28395 0.21598 0.0
H5157 H 0.56032 0.26266 0.24562 0.0
H5158 H 0.57977 0.24484 0.21374 0.0
H5159 H 0.582 0.2386 0.19365 0.0
H5160 H 0.55156 0.21807 0.19646 0.0
H5161 H 0.54909 0.2243 0.21653 0.0
C5162 C 0.57293 0.21613 0.27401 0.0
C5163 C 0.56614 0.20622 0.27321 0.0
C5164 C 0.57156 0.22505 0.26616 0.0
C5165 C 0.56316 0.22437 0.25757 0.0
C5166 C 0.55625 0.21453 0.25688 0.0
C5167 C 0.55777 0.20549 0.2646 0.0
C5168 C 0.56204 0.23362 0.24889 0.0
C5169 C 0.56259 0.23059 0.23726 0.0
C5170 C 0.56119 0.24534 0.25195 0.0
C5171 C 0.56033 0.24914 0.26406 0.0
C5172 C 0.55174 0.24474 0.27129 0.0
C5173 C 0.55113 0.24821 0.28275 0.0
C5174 C 0.55902 0.25612 0.28706 0.0
C5175 C 0.56752 0.26061 0.27992 0.0
C5176 C 0.56817 0.25717 0.26845 0.0
C5177 C 0.55546 0.26756 0.20463 0.0
C5178 C 0.56359 0.27641 0.20538 0.0
C5179 C 0.55451 0.25947 0.2134 0.0
C5180 C 0.5619 0.2599 0.22291 0.0
C5181 C 0.56973 0.26899 0.22385 0.0
C5182 C 0.57051 0.27722 0.21519 0.0
C5183 C 0.56183 0.25066 0.23166 0.0
C5184 C 0.5611 0.25369 0.24329 0.0
C5185 C 0.56265 0.23893 0.22862 0.0
C5186 C 0.56418 0.23512 0.21659 0.0
C5187 C 0.57352 0.23905 0.21004 0.0
C5188 C 0.57483 0.23551 0.19867 0.0
C5189 C 0.56691 0.22797 0.19377 0.0
C5190 C 0.55768 0.22393 0.20025 0.0
C5191 C 0.55632 0.22745 0.21163 0.0
H5192 H 0.56794 0.22524 0.18496 0.0
H5193 H 0.55854 0.25878 0.29594 0.0
H5194 H 0.79938 0.54987 0.26322 0.0
H5195 H 0.78404 0.54681 0.24923 0.0
H5196 H 0.76142 0.56813 0.26929 0.0
H5197 H 0.77658 0.57098 0.28343 0.0
H5198 H 0.74991 0.55053 0.2605 0.0
H5199 H 0.77637 0.57896 0.24642 0.0
H5200 H 0.79534 0.58643 0.24084 0.0
H5201 H 0.79847 0.56001 0.21539 0.0
H5202 H 0.77957 0.55228 0.22094 0.0
H5203 H 0.71119 0.57188 0.21897 0.0
H5204 H 0.72548 0.56861 0.23386 0.0
H5205 H 0.74511 0.54763 0.21056 0.0
H5206 H 0.73096 0.55114 0.19546 0.0
H5207 H 0.7584 0.56283 0.22067 0.0
H5208 H 0.7301 0.53599 0.23382 0.0
H5209 H 0.71073 0.52971 0.23952 0.0
H5210 H 0.71056 0.55439 0.26683 0.0
H5211 H 0.72986 0.56093 0.2612 0.0
C5212 C 0.79108 0.55378 0.26472 0.0
C5213 C 0.78921 0.56077 0.27435 0.0
C5214 C 0.78235 0.55205 0.2567 0.0
C5215 C 0.77166 0.55742 0.25811 0.0
C5216 C 0.76961 0.56393 0.26801 0.0
C5217 C 0.7783 0.56558 0.27607 0.0
C5218 C 0.76285 0.5569 0.24897 0.0
C5219 C 0.75174 0.55326 0.25179 0.0
C5220 C 0.76529 0.56029 0.23757 0.0
C5221 C 0.77662 0.56496 0.23419 0.0
C5222 C 0.78114 0.57469 0.2397 0.0
C5223 C 0.79188 0.57898 0.23653 0.0
C5224 C 0.79812 0.57368 0.22779 0.0
C5225 C 0.79363 0.56409 0.22218 0.0
C5226 C 0.78291 0.55976 0.22533 0.0
C5227 C 0.71847 0.56645 0.21704 0.0
C5228 C 0.71997 0.56179 0.20603 0.0
C5229 C 0.72661 0.56453 0.2256 0.0
C5230 C 0.73631 0.55776 0.22338 0.0
C5231 C 0.73768 0.55286 0.21246 0.0
C5232 C 0.72959 0.55486 0.20386 0.0
C5233 C 0.7454 0.55651 0.23218 0.0
C5234 C 0.75658 0.55988 0.22931 0.0
C5235 C 0.74297 0.553 0.24355 0.0
C5236 C 0.73141 0.54899 0.24704 0.0
C5237 C 0.72591 0.54012 0.241 0.0
C5238 C 0.71494 0.53651 0.24423 0.0
C5239 C 0.70941 0.54166 0.25352 0.0
C5240 C 0.71485 0.55041 0.25963 0.0
C5241 C 0.72581 0.55406 0.25644 0.0
H5242 H 0.70092 0.53886 0.256 0.0
H5243 H 0.80643 0.57701 0.22535 0.0
H5244 H 0.43069 0.73816 0.19056 0.0
H5245 H 0.43413 0.752 0.20587 0.0
H5246 H 0.43388 0.72463 0.23077 0.0
H5247 H 0.43002 0.71077 0.2155 0.0
H5248 H 0.42099 0.74146 0.2378 0.0
H5249 H 0.45917 0.73914 0.22243 0.0
H5250 H 0.47375 0.73966 0.20713 0.0
H5251 H 0.46487 0.77458 0.19959 0.0
H5252 H 0.45013 0.77423 0.21475 0.0
H5253 H 0.43466 0.77753 0.28384 0.0
H5254 H 0.43709 0.7624 0.26953 0.0
H5255 H 0.43726 0.78784 0.24265 0.0
H5256 H 0.43535 0.80301 0.25698 0.0
H5257 H 0.45141 0.77118 0.23727 0.0
H5258 H 0.4124 0.77321 0.25086 0.0
H5259 H 0.39722 0.7731 0.26558 0.0
H5260 H 0.40703 0.7391 0.27573 0.0
H5261 H 0.42238 0.73907 0.26117 0.0
C5262 C 0.43149 0.73507 0.19928 0.0
C5263 C 0.43007 0.72338 0.20184 0.0
C5264 C 0.43353 0.74299 0.20803 0.0
C5265 C 0.43443 0.73935 0.21947 0.0
C5266 C 0.43324 0.72764 0.222 0.0
C5267 C 0.43106 0.71973 0.21328 0.0
C5268 C 0.43585 0.74783 0.22886 0.0
C5269 C 0.42779 0.74781 0.2378 0.0
C5270 C 0.44451 0.75634 0.22869 0.0
C5271 C 0.45349 0.75662 0.21968 0.0
C5272 C 0.46028 0.74691 0.21747 0.0
C5273 C 0.46858 0.74718 0.20882 0.0
C5274 C 0.47022 0.75714 0.20238 0.0
C5275 C 0.46359 0.76687 0.20459 0.0
C5276 C 0.45528 0.76664 0.21322 0.0
C5277 C 0.43543 0.77989 0.27489 0.0
C5278 C 0.43467 0.79141 0.2715 0.0
C5279 C 0.43676 0.77125 0.26672 0.0
C5280 C 0.43705 0.77396 0.25499 0.0
C5281 C 0.437 0.78553 0.25164 0.0
C5282 C 0.43588 0.79419 0.25984 0.0
C5283 C 0.43656 0.76478 0.24618 0.0
C5284 C 0.44473 0.76472 0.23734 0.0
C5285 C 0.42793 0.75623 0.24636 0.0
C5286 C 0.41861 0.75618 0.25501 0.0
C5287 C 0.41136 0.76573 0.25627 0.0
C5288 C 0.40272 0.7657 0.26459 0.0
C5289 C 0.40118 0.75611 0.27161 0.0
C5290 C 0.40825 0.74653 0.2703 0.0
C5291 C 0.41691 0.74653 0.26202 0.0
H5292 H 0.3945 0.75611 0.27804 0.0
H5293 H 0.47664 0.75733 0.19568 0.0
H5294 H 0.28414 0.42623 0.21847 0.0
H5295 H 0.27007 0.4292 0.23369 0.0
H5296 H 0.24515 0.44014 0.20864 0.0
H5297 H 0.25928 0.43743 0.19337 0.0
H5298 H 0.24345 0.45268 0.2281 0.0
H5299 H 0.24528 0.41278 0.21813 0.0
H5300 H 0.25481 0.39423 0.21468 0.0
H5301 H 0.26646 0.39351 0.2496 0.0
H5302 H 0.25714 0.41216 0.2532 0.0
H5303 H 0.19259 0.43893 0.25978 0.0
H5304 H 0.20804 0.44126 0.24578 0.0
H5305 H 0.23268 0.43031 0.27111 0.0
H5306 H 0.21729 0.42782 0.28507 0.0
H5307 H 0.23478 0.41837 0.2517 0.0
H5308 H 0.23172 0.45814 0.26181 0.0
H5309 H 0.22172 0.47651 0.2649 0.0
H5310 H 0.21168 0.47723 0.22949 0.0
H5311 H 0.22148 0.45878 0.22622 0.0
C5312 C 0.27571 0.4294 0.21621 0.0
C5313 C 0.27277 0.43146 0.20471 0.0
C5314 C 0.26768 0.43108 0.22491 0.0
C5315 C 0.2565 0.43468 0.22226 0.0
C5316 C 0.25371 0.43731 0.21086 0.0
C5317 C 0.26179 0.43572 0.20215 0.0
C5318 C 0.24754 0.43496 0.23128 0.0
C5319 C 0.24147 0.44517 0.23321 0.0
C5320 C 0.24507 0.42518 0.23802 0.0
C5321 C 0.25061 0.41392 0.2359 0.0
C5322 C 0.24995 0.40871 0.22505 0.0
C5323 C 0.2553 0.39817 0.22307 0.0
C5324 C 0.26126 0.39271 0.23191 0.0
C5325 C 0.26185 0.39776 0.24275 0.0
C5326 C 0.25653 0.40831 0.24477 0.0
C5327 C 0.20132 0.4372 0.26241 0.0
C5328 C 0.20372 0.43311 0.2735 0.0
C5329 C 0.21015 0.43857 0.25442 0.0
C5330 C 0.22152 0.43598 0.25741 0.0
C5331 C 0.22397 0.43233 0.26861 0.0
C5332 C 0.21516 0.43093 0.27658 0.0
C5333 C 0.23073 0.43613 0.24866 0.0
C5334 C 0.23681 0.42594 0.2467 0.0
C5335 C 0.23311 0.4459 0.24186 0.0
C5336 C 0.22725 0.45702 0.2438 0.0
C5337 C 0.2273 0.46217 0.2547 0.0
C5338 C 0.22168 0.47261 0.25648 0.0
C5339 C 0.21605 0.47802 0.24741 0.0
C5340 C 0.21604 0.47302 0.23652 0.0
C5341 C 0.22163 0.46258 0.23469 0.0
H5342 H 0.2117 0.4861 0.2488 0.0
H5343 H 0.2654 0.38455 0.23036 0.0
H5344 H 0.71133 0.57454 0.77747 0.0
H5345 H 0.72524 0.57195 0.76212 0.0
H5346 H 0.74371 0.54748 0.78285 0.0
H5347 H 0.72999 0.55041 0.79849 0.0
H5348 H 0.75794 0.56219 0.77405 0.0
H5349 H 0.72733 0.53955 0.75842 0.0
H5350 H 0.70745 0.53559 0.7524 0.0
H5351 H 0.70905 0.56328 0.7282 0.0
H5352 H 0.72889 0.56751 0.73418 0.0
H5353 H 0.79706 0.55112 0.729 0.0
H5354 H 0.78207 0.54808 0.74336 0.0
H5355 H 0.7605 0.57268 0.72606 0.0
H5356 H 0.77526 0.57542 0.71148 0.0
H5357 H 0.74798 0.55552 0.73325 0.0
H5358 H 0.77708 0.57969 0.75013 0.0
H5359 H 0.79671 0.58465 0.75623 0.0
H5360 H 0.79759 0.55506 0.77812 0.0
H5361 H 0.77801 0.54984 0.77204 0.0
C5362 C 0.71827 0.56849 0.77872 0.0
C5363 C 0.71959 0.56267 0.78918 0.0
C5364 C 0.72619 0.56696 0.76989 0.0
C5365 C 0.73544 0.55938 0.77124 0.0
C5366 C 0.73662 0.55335 0.7816 0.0
C5367 C 0.72878 0.55501 0.79051 0.0
C5368 C 0.74431 0.55842 0.76216 0.0
C5369 C 0.75578 0.56048 0.76517 0.0
C5370 C 0.74147 0.5565 0.75051 0.0
C5371 C 0.72958 0.55388 0.7468 0.0
C5372 C 0.72342 0.54483 0.75186 0.0
C5373 C 0.71216 0.54254 0.74845 0.0
C5374 C 0.70699 0.54919 0.73994 0.0
C5375 C 0.71307 0.55814 0.73479 0.0
C5376 C 0.72433 0.56047 0.73817 0.0
C5377 C 0.78908 0.5558 0.72822 0.0
C5378 C 0.78735 0.56357 0.71918 0.0
C5379 C 0.78054 0.55409 0.73645 0.0
C5380 C 0.77023 0.56031 0.73591 0.0
C5381 C 0.76837 0.56779 0.72667 0.0
C5382 C 0.77683 0.56938 0.71836 0.0
C5383 C 0.76155 0.55941 0.74516 0.0
C5384 C 0.75013 0.55704 0.74217 0.0
C5385 C 0.7644 0.56114 0.75683 0.0
C5386 C 0.77614 0.56431 0.76054 0.0
C5387 C 0.78149 0.5742 0.75619 0.0
C5388 C 0.79261 0.57706 0.75965 0.0
C5389 C 0.79841 0.57015 0.76753 0.0
C5390 C 0.7931 0.56039 0.772 0.0
C5391 C 0.78199 0.55748 0.76855 0.0
H5392 H 0.80701 0.57238 0.7702 0.0
H5393 H 0.69827 0.54741 0.73732 0.0
H5394 H 0.42387 0.77721 0.71155 0.0
H5395 H 0.42595 0.76274 0.7265 0.0
H5396 H 0.44126 0.78785 0.7489 0.0
H5397 H 0.43921 0.80249 0.73392 0.0
H5398 H 0.45189 0.76573 0.74984 0.0
H5399 H 0.41464 0.78278 0.75273 0.0
H5400 H 0.39598 0.78952 0.74546 0.0
H5401 H 0.38732 0.75521 0.73531 0.0
H5402 H 0.40603 0.74829 0.74234 0.0
H5403 H 0.43961 0.73404 0.80159 0.0
H5404 H 0.44183 0.7488 0.7868 0.0
H5405 H 0.42469 0.72695 0.76238 0.0
H5406 H 0.42244 0.7122 0.77705 0.0
H5407 H 0.41542 0.74842 0.76329 0.0
H5408 H 0.45276 0.73138 0.76014 0.0
H5409 H 0.47154 0.72465 0.76712 0.0
H5410 H 0.48003 0.75883 0.77783 0.0
H5411 H 0.46121 0.76574 0.77107 0.0
C5412 C 0.42781 0.77965 0.7196 0.0
C5413 C 0.43126 0.79102 0.72161 0.0
C5414 C 0.42898 0.77137 0.72813 0.0
C5415 C 0.43362 0.77428 0.73883 0.0
C5416 C 0.43764 0.78547 0.74069 0.0
C5417 C 0.43642 0.79381 0.73215 0.0
C5418 C 0.4335 0.7658 0.74825 0.0
C5419 C 0.44393 0.76205 0.75292 0.0
C5420 C 0.4231 0.76092 0.75212 0.0
C5421 C 0.41179 0.76503 0.74796 0.0
C5422 C 0.4088 0.77668 0.74886 0.0
C5423 C 0.3982 0.78054 0.74479 0.0
C5424 C 0.39048 0.7728 0.7399 0.0
C5425 C 0.39332 0.76119 0.73909 0.0
C5426 C 0.40392 0.7573 0.74312 0.0
C5427 C 0.43643 0.73234 0.79303 0.0
C5428 C 0.4308 0.72199 0.7905 0.0
C5429 C 0.43774 0.74076 0.78459 0.0
C5430 C 0.43342 0.73895 0.7735 0.0
C5431 C 0.42806 0.72851 0.7709 0.0
C5432 C 0.4268 0.72009 0.77929 0.0
C5433 C 0.43382 0.74816 0.76477 0.0
C5434 C 0.4234 0.7521 0.76026 0.0
C5435 C 0.44423 0.7532 0.7611 0.0
C5436 C 0.45552 0.74905 0.76522 0.0
C5437 C 0.45858 0.73744 0.76409 0.0
C5438 C 0.46924 0.7336 0.76799 0.0
C5439 C 0.47696 0.7413 0.77295 0.0
C5440 C 0.47403 0.75287 0.77401 0.0
C5441 C 0.46337 0.75676 0.77014 0.0
H5442 H 0.48521 0.73831 0.77595 0.0
H5443 H 0.38228 0.7758 0.73676 0.0
H5444 H 0.2586 0.4353 0.8021 0.0
H5445 H 0.24446 0.43744 0.78674 0.0
H5446 H 0.27105 0.43235 0.76152 0.0
H5447 H 0.28514 0.42988 0.77681 0.0
H5448 H 0.24114 0.4511 0.76836 0.0
H5449 H 0.26107 0.41555 0.74024 0.0
H5450 H 0.27325 0.39838 0.74242 0.0
H5451 H 0.26137 0.39412 0.77701 0.0
H5452 H 0.249 0.41114 0.77497 0.0
H5453 H 0.2189 0.42736 0.70917 0.0
H5454 H 0.23387 0.43042 0.72351 0.0
H5455 H 0.20803 0.43651 0.74927 0.0
H5456 H 0.19303 0.43374 0.73492 0.0
H5457 H 0.23792 0.41798 0.74186 0.0
H5458 H 0.21856 0.45366 0.77036 0.0
H5459 H 0.2061 0.47065 0.76846 0.0
H5460 H 0.21626 0.47441 0.73328 0.0
H5461 H 0.22889 0.45755 0.73501 0.0
C5462 C 0.26145 0.43479 0.79328 0.0
C5463 C 0.27293 0.43225 0.79064 0.0
C5464 C 0.25337 0.43604 0.78451 0.0
C5465 C 0.25667 0.43482 0.773 0.0
C5466 C 0.26828 0.43307 0.77036 0.0
C5467 C 0.27632 0.43169 0.7791 0.0
C5468 C 0.24789 0.43453 0.76382 0.0
C5469 C 0.24036 0.44383 0.76262 0.0
C5470 C 0.24699 0.4251 0.75623 0.0
C5471 C 0.25421 0.41469 0.75748 0.0
C5472 C 0.26102 0.41091 0.74829 0.0
C5473 C 0.26796 0.40121 0.7495 0.0
C5474 C 0.26811 0.39519 0.75986 0.0
C5475 C 0.26128 0.39882 0.769 0.0
C5476 C 0.2543 0.40849 0.76782 0.0
C5477 C 0.21641 0.4295 0.71786 0.0
C5478 C 0.20479 0.43029 0.72092 0.0
C5479 C 0.22497 0.43123 0.72604 0.0
C5480 C 0.22209 0.43378 0.73744 0.0
C5481 C 0.21048 0.43476 0.74048 0.0
C5482 C 0.20191 0.43312 0.73228 0.0
C5483 C 0.23119 0.4346 0.74629 0.0
C5484 C 0.23875 0.42533 0.74751 0.0
C5485 C 0.23204 0.44402 0.7539 0.0
C5486 C 0.22459 0.45427 0.7528 0.0
C5487 C 0.21817 0.45814 0.76223 0.0
C5488 C 0.21107 0.46775 0.76118 0.0
C5489 C 0.21036 0.47358 0.75075 0.0
C5490 C 0.21678 0.46985 0.74135 0.0
C5491 C 0.2239 0.46026 0.74235 0.0
H5492 H 0.20486 0.48101 0.74995 0.0
H5493 H 0.27351 0.3877 0.76079 0.0
H5494 H 0.55728 0.26133 0.79893 0.0
H5495 H 0.55593 0.24727 0.78341 0.0
H5496 H 0.56971 0.27207 0.75968 0.0
H5497 H 0.57121 0.28611 0.77514 0.0
H5498 H 0.54488 0.24672 0.76259 0.0
H5499 H 0.58828 0.25819 0.74175 0.0
H5500 H 0.60693 0.26659 0.74716 0.0
H5501 H 0.60231 0.25506 0.78181 0.0
H5502 H 0.58372 0.24644 0.77657 0.0
H5503 H 0.57339 0.21816 0.70851 0.0
H5504 H 0.57117 0.23397 0.72211 0.0
H5505 H 0.55577 0.21085 0.74654 0.0
H5506 H 0.55778 0.19506 0.73293 0.0
H5507 H 0.58091 0.23607 0.74263 0.0
H5508 H 0.53708 0.22536 0.76355 0.0
H5509 H 0.5185 0.21683 0.75813 0.0
H5510 H 0.524 0.22665 0.72308 0.0
H5511 H 0.54252 0.23538 0.72832 0.0
C5512 C 0.55993 0.26382 0.79039 0.0
C5513 C 0.56446 0.27479 0.78828 0.0
C5514 C 0.55912 0.25579 0.78153 0.0
C5515 C 0.56287 0.25859 0.77044 0.0
C5516 C 0.56693 0.26969 0.76822 0.0
C5517 C 0.56775 0.27771 0.77706 0.0
C5518 C 0.56305 0.24974 0.76134 0.0
C5519 C 0.55276 0.2443 0.75829 0.0
C5520 C 0.57331 0.24679 0.75557 0.0
C5521 C 0.58455 0.2518 0.75879 0.0
C5522 C 0.59127 0.25742 0.75051 0.0
C5523 C 0.60182 0.26222 0.75355 0.0
C5524 C 0.60578 0.2614 0.76483 0.0
C5525 C 0.59921 0.25573 0.77308 0.0
C5526 C 0.58866 0.2509 0.77009 0.0
C5527 C 0.5694 0.21648 0.71672 0.0
C5528 C 0.56578 0.20536 0.71967 0.0
C5529 C 0.56816 0.22551 0.72449 0.0
C5530 C 0.56324 0.22361 0.7353 0.0
C5531 C 0.55942 0.21256 0.73817 0.0
C5532 C 0.56063 0.20353 0.73041 0.0
C5533 C 0.56273 0.23302 0.74384 0.0
C5534 C 0.57299 0.23854 0.74684 0.0
C5535 C 0.55245 0.23603 0.74954 0.0
C5536 C 0.54125 0.23093 0.74632 0.0
C5537 C 0.5343 0.22574 0.7547 0.0
C5538 C 0.52379 0.22086 0.75165 0.0
C5539 C 0.52009 0.22116 0.74026 0.0
C5540 C 0.52689 0.22638 0.73189 0.0
C5541 C 0.53741 0.23128 0.73489 0.0
H5542 H 0.51195 0.21737 0.73792 0.0
H5543 H 0.61395 0.26513 0.76716 0.0
H5544 H 0.79983 0.43624 0.25967 0.0
H5545 H 0.784 0.43787 0.24603 0.0
H5546 H 0.76032 0.42641 0.27203 0.0
H5547 H 0.77613 0.42457 0.28566 0.0
H5548 H 0.75759 0.41464 0.25266 0.0
H5549 H 0.76037 0.4543 0.26281 0.0
H5550 H 0.77011 0.47279 0.26596 0.0
H5551 H 0.7799 0.47391 0.23049 0.0
H5552 H 0.77034 0.45534 0.22715 0.0
H5553 H 0.70853 0.42253 0.21805 0.0
H5554 H 0.72223 0.42489 0.23373 0.0
H5555 H 0.74785 0.43647 0.20968 0.0
H5556 H 0.73412 0.43438 0.19399 0.0
H5557 H 0.74866 0.44884 0.229 0.0
H5558 H 0.74732 0.40872 0.21919 0.0
H5559 H 0.73797 0.39005 0.21587 0.0
H5560 H 0.72593 0.38967 0.25066 0.0
H5561 H 0.73508 0.40843 0.25414 0.0
C5562 C 0.79123 0.43421 0.26252 0.0
C5563 C 0.78922 0.43023 0.27372 0.0
C5564 C 0.78218 0.43519 0.25474 0.0
C5565 C 0.77097 0.43233 0.25804 0.0
C5566 C 0.76891 0.42866 0.26931 0.0
C5567 C 0.77795 0.42764 0.27709 0.0
C5568 C 0.76153 0.43242 0.24954 0.0
C5569 C 0.75549 0.42219 0.24765 0.0
C5570 C 0.759 0.44218 0.24279 0.0
C5571 C 0.76472 0.45338 0.24476 0.0
C5572 C 0.76467 0.45844 0.2557 0.0
C5573 C 0.77015 0.46895 0.25751 0.0
C5574 C 0.77564 0.47451 0.24843 0.0
C5575 C 0.77565 0.46959 0.23751 0.0
C5576 C 0.77019 0.45908 0.23565 0.0
C5577 C 0.71705 0.42568 0.21611 0.0
C5578 C 0.72029 0.42817 0.20478 0.0
C5579 C 0.72488 0.42698 0.22507 0.0
C5580 C 0.73612 0.43067 0.22284 0.0
C5581 C 0.73923 0.43358 0.21159 0.0
C5582 C 0.73138 0.43235 0.20263 0.0
C5583 C 0.74478 0.43106 0.23212 0.0
C5584 C 0.75069 0.44135 0.23412 0.0
C5585 C 0.74724 0.42134 0.23896 0.0
C5586 C 0.74177 0.41004 0.23689 0.0
C5587 C 0.7426 0.4047 0.22611 0.0
C5588 C 0.73735 0.3941 0.2242 0.0
C5589 C 0.73133 0.38869 0.23304 0.0
C5590 C 0.73058 0.39388 0.24381 0.0
C5591 C 0.7358 0.40449 0.24576 0.0
H5592 H 0.72728 0.38048 0.23154 0.0
H5593 H 0.77988 0.48264 0.24986 0.0
H5594 H 0.54923 0.79527 0.26593 0.0
H5595 H 0.54603 0.78053 0.25133 0.0
H5596 H 0.5771 0.7634 0.26196 0.0
H5597 H 0.57984 0.77766 0.277 0.0
H5598 H 0.55645 0.7752 0.2336 0.0
H5599 H 0.57744 0.73579 0.25631 0.0
H5600 H 0.5791 0.72779 0.27581 0.0
H5601 H 0.54848 0.74554 0.28592 0.0
H5602 H 0.54654 0.75353 0.26644 0.0
H5603 H 0.57385 0.73533 0.19228 0.0
H5604 H 0.57165 0.74909 0.20786 0.0
H5605 H 0.54959 0.7253 0.22575 0.0
H5606 H 0.55265 0.71114 0.21053 0.0
H5607 H 0.56218 0.73362 0.24032 0.0
H5608 H 0.53986 0.7516 0.21145 0.0
H5609 H 0.53523 0.75928 0.19231 0.0
H5610 H 0.56263 0.78368 0.19524 0.0
H5611 H 0.56752 0.77605 0.21435 0.0
C5612 C 0.55526 0.78824 0.26522 0.0
C5613 C 0.56472 0.78752 0.27262 0.0
C5614 C 0.55346 0.77985 0.25686 0.0
C5615 C 0.56122 0.77071 0.25561 0.0
C5616 C 0.57076 0.77011 0.26295 0.0
C5617 C 0.57238 0.77831 0.27151 0.0
C5618 C 0.55969 0.76215 0.24628 0.0
C5619 C 0.5576 0.76609 0.2351 0.0
C5620 C 0.56087 0.75021 0.24821 0.0
C5621 C 0.5619 0.74533 0.25993 0.0
C5622 C 0.57103 0.73794 0.26267 0.0
C5623 C 0.57202 0.73342 0.27373 0.0
C5624 C 0.56392 0.73617 0.2821 0.0
C5625 C 0.55477 0.74344 0.27943 0.0
C5626 C 0.55373 0.74798 0.26839 0.0
C5627 C 0.56843 0.73312 0.19949 0.0
C5628 C 0.56334 0.72225 0.20022 0.0
C5629 C 0.5671 0.74102 0.20837 0.0
C5630 C 0.56023 0.7384 0.21793 0.0
C5631 C 0.55494 0.72757 0.21851 0.0
C5632 C 0.55661 0.71951 0.2098 0.0
C5633 C 0.55913 0.74668 0.22759 0.0
C5634 C 0.56081 0.74269 0.23883 0.0
C5635 C 0.55706 0.75852 0.22577 0.0
C5636 C 0.5541 0.7632 0.21431 0.0
C5637 C 0.54494 0.75856 0.20799 0.0
C5638 C 0.54226 0.76291 0.19715 0.0
C5639 C 0.54864 0.77195 0.19255 0.0
C5640 C 0.5577 0.77668 0.19881 0.0
C5641 C 0.56041 0.77236 0.20966 0.0
H5642 H 0.54656 0.77529 0.18415 0.0
H5643 H 0.56471 0.73267 0.29066 0.0
H5644 H 0.28303 0.57205 0.21989 0.0
H5645 H 0.26869 0.56886 0.2348 0.0
H5646 H 0.24848 0.54879 0.21118 0.0
H5647 H 0.2627 0.55216 0.19614 0.0
H5648 H 0.23567 0.56442 0.22152 0.0
H5649 H 0.26292 0.53627 0.23398 0.0
H5650 H 0.28198 0.52906 0.23959 0.0
H5651 H 0.28297 0.5529 0.26762 0.0
H5652 H 0.26398 0.56036 0.26209 0.0
H5653 H 0.19408 0.55076 0.26324 0.0
H5654 H 0.20945 0.54811 0.24922 0.0
H5655 H 0.23228 0.56809 0.27039 0.0
H5656 H 0.21706 0.57051 0.28457 0.0
H5657 H 0.24353 0.55066 0.26099 0.0
H5658 H 0.2178 0.58011 0.24771 0.0
H5659 H 0.19905 0.5882 0.2422 0.0
H5660 H 0.19567 0.5628 0.21576 0.0
H5661 H 0.21433 0.55447 0.22123 0.0
C5662 C 0.27561 0.56683 0.21791 0.0
C5663 C 0.27397 0.56239 0.20683 0.0
C5664 C 0.26744 0.56496 0.22646 0.0
C5665 C 0.25755 0.5585 0.22414 0.0
C5666 C 0.25605 0.5538 0.21317 0.0
C5667 C 0.26419 0.55571 0.20459 0.0
C5668 C 0.2484 0.55737 0.2329 0.0
C5669 C 0.23735 0.56118 0.23008 0.0
C5670 C 0.25066 0.55346 0.24417 0.0
C5671 C 0.26205 0.54893 0.24756 0.0
C5672 C 0.26723 0.54003 0.24129 0.0
C5673 C 0.27802 0.53589 0.24447 0.0
C5674 C 0.28369 0.54053 0.25394 0.0
C5675 C 0.27857 0.54931 0.26028 0.0
C5676 C 0.26779 0.55349 0.25714 0.0
C5677 C 0.20242 0.55447 0.26497 0.0
C5678 C 0.20434 0.56094 0.27495 0.0
C5679 C 0.21118 0.55298 0.25694 0.0
C5680 C 0.22195 0.55808 0.25866 0.0
C5681 C 0.22403 0.5641 0.26887 0.0
C5682 C 0.21531 0.5655 0.27695 0.0
C5683 C 0.23085 0.55774 0.24959 0.0
C5684 C 0.24185 0.55372 0.25237 0.0
C5685 C 0.22859 0.56156 0.23829 0.0
C5686 C 0.2174 0.56659 0.23496 0.0
C5687 C 0.21301 0.5762 0.24078 0.0
C5688 C 0.20241 0.58084 0.23766 0.0
C5689 C 0.19616 0.57599 0.22866 0.0
C5690 C 0.20051 0.56653 0.22274 0.0
C5691 C 0.2111 0.56185 0.22585 0.0
H5692 H 0.18795 0.57959 0.22625 0.0
H5693 H 0.29205 0.53732 0.25638 0.0
H5694 H 0.4317 0.19156 0.25914 0.0
H5695 H 0.43386 0.20705 0.24522 0.0
H5696 H 0.42828 0.23198 0.27199 0.0
H5697 H 0.42575 0.2165 0.28589 0.0
H5698 H 0.41551 0.23679 0.25419 0.0
H5699 H 0.45521 0.22746 0.25953 0.0
H5700 H 0.47199 0.21463 0.26045 0.0
H5701 H 0.4671 0.20539 0.22515 0.0
H5702 H 0.45019 0.21805 0.22407 0.0
H5703 H 0.42662 0.28458 0.21899 0.0
H5704 H 0.42888 0.27041 0.23426 0.0
H5705 H 0.4338 0.24386 0.20896 0.0
H5706 H 0.43189 0.25806 0.19366 0.0
H5707 H 0.44774 0.24055 0.22669 0.0
H5708 H 0.40748 0.2486 0.2217 0.0
H5709 H 0.39039 0.26099 0.22063 0.0
H5710 H 0.39612 0.27222 0.25522 0.0
H5711 H 0.41335 0.26 0.25644 0.0
C5712 C 0.43107 0.20034 0.26208 0.0
C5713 C 0.42853 0.20282 0.27359 0.0
C5714 C 0.43236 0.2092 0.25412 0.0
C5715 C 0.43135 0.22069 0.25757 0.0
C5716 C 0.42909 0.22318 0.26913 0.0
C5717 C 0.42768 0.21433 0.27707 0.0
C5718 C 0.43194 0.23009 0.24902 0.0
C5719 C 0.42267 0.23774 0.24833 0.0
C5720 C 0.44112 0.23115 0.24116 0.0
C5721 C 0.45138 0.22364 0.24175 0.0
C5722 C 0.45767 0.22264 0.25199 0.0
C5723 C 0.46721 0.21541 0.25253 0.0
C5724 C 0.4706 0.20918 0.24287 0.0
C5725 C 0.46447 0.21021 0.23263 0.0
C5726 C 0.45491 0.21743 0.23204 0.0
C5727 C 0.4283 0.27574 0.21669 0.0
C5728 C 0.42896 0.2724 0.20513 0.0
C5729 C 0.42956 0.26765 0.22541 0.0
C5730 C 0.43128 0.25604 0.22274 0.0
C5731 C 0.43244 0.25277 0.21122 0.0
C5732 C 0.43131 0.26089 0.20248 0.0
C5733 C 0.43132 0.24721 0.23189 0.0
C5734 C 0.44066 0.23966 0.23266 0.0
C5735 C 0.42218 0.2462 0.23982 0.0
C5736 C 0.41177 0.25348 0.23912 0.0
C5737 C 0.40514 0.25377 0.22905 0.0
C5738 C 0.39542 0.26075 0.22842 0.0
C5739 C 0.39219 0.26741 0.23784 0.0
C5740 C 0.39865 0.26707 0.24793 0.0
C5741 C 0.40839 0.26011 0.24859 0.0
H5742 H 0.38466 0.27281 0.23734 0.0
H5743 H 0.47798 0.20358 0.24331 0.0
H5744 H 0.778 0.70899 0.566 0.0
H5745 H 0.76273 0.72312 0.56367 0.0
H5746 H 0.78755 0.74825 0.55268 0.0
H5747 H 0.80291 0.73416 0.55508 0.0
H5748 H 0.77387 0.75637 0.56954 0.0
H5749 H 0.76868 0.73704 0.53371 0.0
H5750 H 0.76595 0.7204 0.52096 0.0
H5751 H 0.73433 0.71229 0.53798 0.0
H5752 H 0.73695 0.7288 0.55094 0.0
H5753 H 0.73348 0.79912 0.55546 0.0
H5754 H 0.74828 0.7845 0.55291 0.0
H5755 H 0.72519 0.7587 0.56588 0.0
H5756 H 0.71031 0.77328 0.56849 0.0
H5757 H 0.73814 0.7512 0.54702 0.0
H5758 H 0.74379 0.76938 0.58348 0.0
H5759 H 0.74631 0.78573 0.59664 0.0
H5760 H 0.77701 0.79555 0.57884 0.0
H5761 H 0.77456 0.77935 0.56545 0.0
C5762 C 0.7802 0.71747 0.56294 0.0
C5763 C 0.79167 0.72048 0.56077 0.0
C5764 C 0.77145 0.72553 0.56156 0.0
C5765 C 0.774 0.73672 0.55795 0.0
C5766 C 0.78541 0.73965 0.55548 0.0
C5767 C 0.79416 0.73159 0.55682 0.0
C5768 C 0.76488 0.74556 0.55755 0.0
C5769 C 0.76616 0.75534 0.56443 0.0
C5770 C 0.75468 0.74403 0.55116 0.0
C5771 C 0.75306 0.73411 0.54336 0.0
C5772 C 0.76119 0.73166 0.53479 0.0
C5773 C 0.75965 0.72226 0.52752 0.0
C5774 C 0.74999 0.71528 0.52868 0.0
C5775 C 0.74182 0.7177 0.5371 0.0
C5776 C 0.74332 0.72709 0.5444 0.0
C5777 C 0.73149 0.79031 0.55765 0.0
C5778 C 0.72076 0.78736 0.56227 0.0
C5779 C 0.73997 0.78198 0.5562 0.0
C5780 C 0.73785 0.77056 0.55932 0.0
C5781 C 0.72698 0.76748 0.56344 0.0
C5782 C 0.71851 0.77582 0.56496 0.0
C5783 C 0.74719 0.76199 0.55895 0.0
C5784 C 0.74592 0.75225 0.552 0.0
C5785 C 0.75739 0.7635 0.56532 0.0
C5786 C 0.75891 0.77323 0.57338 0.0
C5787 C 0.75102 0.77509 0.58231 0.0
C5788 C 0.75244 0.78432 0.58982 0.0
C5789 C 0.76179 0.7917 0.58855 0.0
C5790 C 0.76976 0.78984 0.57979 0.0
C5791 C 0.76835 0.78063 0.57224 0.0
H5792 H 0.76289 0.79884 0.59438 0.0
H5793 H 0.74882 0.70801 0.52304 0.0
H5794 H 0.79961 0.25944 0.43157 0.0
H5795 H 0.78472 0.24489 0.43386 0.0
H5796 H 0.75896 0.26954 0.42408 0.0
H5797 H 0.77384 0.28418 0.42169 0.0
H5798 H 0.75248 0.2556 0.44287 0.0
H5799 H 0.76721 0.25186 0.40473 0.0
H5800 H 0.7822 0.24986 0.38997 0.0
H5801 H 0.7928 0.21788 0.4048 0.0
H5802 H 0.77798 0.21978 0.41978 0.0
H5803 H 0.70831 0.21666 0.4256 0.0
H5804 H 0.72261 0.23189 0.42729 0.0
H5805 H 0.74843 0.2068 0.43575 0.0
H5806 H 0.73417 0.19151 0.4341 0.0
H5807 H 0.75488 0.22107 0.41812 0.0
H5808 H 0.73924 0.22463 0.45592 0.0
H5809 H 0.72395 0.22685 0.47033 0.0
H5810 H 0.71459 0.25931 0.4557 0.0
H5811 H 0.72973 0.25721 0.44108 0.0
C5812 C 0.79077 0.26181 0.43 0.0
C5813 C 0.7879 0.27293 0.42637 0.0
C5814 C 0.78228 0.25348 0.43129 0.0
C5815 C 0.77078 0.25614 0.42904 0.0
C5816 C 0.76781 0.26734 0.42585 0.0
C5817 C 0.77631 0.27567 0.42445 0.0
C5818 C 0.76194 0.24706 0.42951 0.0
C5819 C 0.75291 0.2481 0.43738 0.0
C5820 C 0.76265 0.23722 0.42246 0.0
C5821 C 0.77157 0.23603 0.41346 0.0
C5822 C 0.77281 0.24445 0.40491 0.0
C5823 C 0.78126 0.24332 0.3965 0.0
C5824 C 0.78847 0.23376 0.39647 0.0
C5825 C 0.78722 0.22529 0.40485 0.0
C5826 C 0.77879 0.22638 0.4133 0.0
C5827 C 0.71699 0.2144 0.42799 0.0
C5828 C 0.72013 0.20288 0.42966 0.0
C5829 C 0.72514 0.22311 0.42899 0.0
C5830 C 0.73656 0.22046 0.43166 0.0
C5831 C 0.73965 0.20901 0.43367 0.0
C5832 C 0.73149 0.20029 0.43276 0.0
C5833 C 0.74544 0.22953 0.43155 0.0
C5834 C 0.75447 0.22852 0.42367 0.0
C5835 C 0.74466 0.23941 0.43854 0.0
C5836 C 0.73555 0.24071 0.44733 0.0
C5837 C 0.73386 0.2322 0.45571 0.0
C5838 C 0.72523 0.23344 0.46393 0.0
C5839 C 0.71828 0.2432 0.46391 0.0
C5840 C 0.71997 0.25175 0.45569 0.0
C5841 C 0.72858 0.25054 0.44744 0.0
H5842 H 0.71161 0.24415 0.47029 0.0
H5843 H 0.79502 0.23291 0.38995 0.0
H5844 H 0.80199 0.73388 0.43654 0.0
H5845 H 0.78666 0.74798 0.439 0.0
H5846 H 0.76162 0.72252 0.42937 0.0
H5847 H 0.77689 0.70844 0.42673 0.0
H5848 H 0.75901 0.7418 0.41728 0.0
H5849 H 0.7637 0.73218 0.45704 0.0
H5850 H 0.77442 0.72933 0.47503 0.0
H5851 H 0.78453 0.76473 0.47484 0.0
H5852 H 0.77399 0.76776 0.45676 0.0
H5853 H 0.70988 0.77489 0.42692 0.0
H5854 H 0.7242 0.7598 0.42929 0.0
H5855 H 0.74931 0.78507 0.43923 0.0
H5856 H 0.73492 0.80021 0.43716 0.0
H5857 H 0.75174 0.76577 0.45166 0.0
H5858 H 0.7481 0.77532 0.4118 0.0
H5859 H 0.73778 0.77852 0.39363 0.0
H5860 H 0.72639 0.74351 0.39372 0.0
H5861 H 0.7365 0.74015 0.41199 0.0
C5862 C 0.7932 0.73124 0.4351 0.0
C5863 C 0.79065 0.72006 0.43138 0.0
C5864 C 0.78444 0.7393 0.43656 0.0
C5865 C 0.77299 0.73629 0.43441 0.0
C5866 C 0.7704 0.72503 0.43105 0.0
C5867 C 0.77914 0.71698 0.42957 0.0
C5868 C 0.76379 0.74505 0.43482 0.0
C5869 C 0.75729 0.74689 0.42487 0.0
C5870 C 0.76181 0.75196 0.4446 0.0
C5871 C 0.76814 0.75017 0.45549 0.0
C5872 C 0.76828 0.73933 0.46079 0.0
C5873 C 0.77432 0.73769 0.47101 0.0
C5874 C 0.78018 0.74683 0.47606 0.0
C5875 C 0.78 0.75765 0.47091 0.0
C5876 C 0.77398 0.75934 0.46068 0.0
C5877 C 0.71841 0.77722 0.42975 0.0
C5878 C 0.72132 0.78875 0.43172 0.0
C5879 C 0.72659 0.7686 0.43106 0.0
C5880 C 0.73788 0.77134 0.4342 0.0
C5881 C 0.74066 0.78277 0.43675 0.0
C5882 C 0.73244 0.79141 0.43553 0.0
C5883 C 0.74691 0.76239 0.43416 0.0
C5884 C 0.75342 0.76059 0.44412 0.0
C5885 C 0.74898 0.75554 0.42436 0.0
C5886 C 0.74296 0.75752 0.41332 0.0
C5887 C 0.74332 0.76833 0.40799 0.0
C5888 C 0.73752 0.77017 0.39766 0.0
C5889 C 0.73141 0.76123 0.39254 0.0
C5890 C 0.73111 0.75043 0.39771 0.0
C5891 C 0.73688 0.74855 0.40804 0.0
H5892 H 0.72692 0.76267 0.38454 0.0
H5893 H 0.78485 0.74554 0.48398 0.0
H5894 H 0.19448 0.72988 0.44451 0.0
H5895 H 0.20978 0.74399 0.44707 0.0
H5896 H 0.23264 0.72292 0.42703 0.0
H5897 H 0.21748 0.70867 0.42464 0.0
H5898 H 0.24384 0.73252 0.44463 0.0
H5899 H 0.21815 0.74522 0.41491 0.0
H5900 H 0.19941 0.75047 0.40666 0.0
H5901 H 0.1957 0.77724 0.43166 0.0
H5902 H 0.21436 0.77203 0.44017 0.0
H5903 H 0.28307 0.77338 0.42261 0.0
H5904 H 0.26876 0.75852 0.42607 0.0
H5905 H 0.2486 0.78242 0.44585 0.0
H5906 H 0.26281 0.79743 0.44222 0.0
H5907 H 0.23576 0.77176 0.43035 0.0
H5908 H 0.26299 0.7599 0.45873 0.0
H5909 H 0.28207 0.75454 0.46608 0.0
H5910 H 0.28333 0.72615 0.44267 0.0
H5911 H 0.26432 0.73143 0.43507 0.0
C5912 C 0.20281 0.72818 0.44078 0.0
C5913 C 0.20475 0.71823 0.43428 0.0
C5914 C 0.21153 0.73627 0.44222 0.0
C5915 C 0.22228 0.7346 0.43707 0.0
C5916 C 0.2244 0.7244 0.43105 0.0
C5917 C 0.21571 0.71628 0.42967 0.0
C5918 C 0.23111 0.74374 0.43735 0.0
C5919 C 0.24211 0.74109 0.44145 0.0
C5920 C 0.22878 0.75497 0.43339 0.0
C5921 C 0.21758 0.75815 0.42826 0.0
C5922 C 0.2133 0.75216 0.4187 0.0
C5923 C 0.2027 0.75515 0.41397 0.0
C5924 C 0.19635 0.76416 0.41865 0.0
C5925 C 0.20061 0.77024 0.42806 0.0
C5926 C 0.2112 0.76728 0.43283 0.0
C5927 C 0.27567 0.77544 0.42782 0.0
C5928 C 0.27405 0.78659 0.43211 0.0
C5929 C 0.26752 0.76692 0.42984 0.0
C5930 C 0.25765 0.76933 0.43631 0.0
C5931 C 0.25616 0.78037 0.44085 0.0
C5932 C 0.26429 0.78893 0.43879 0.0
C5933 C 0.24853 0.76056 0.43759 0.0
C5934 C 0.23747 0.76326 0.43371 0.0
C5935 C 0.25085 0.74936 0.44166 0.0
C5936 C 0.26225 0.74611 0.44628 0.0
C5937 C 0.26736 0.75256 0.4551 0.0
C5938 C 0.27816 0.74953 0.45931 0.0
C5939 C 0.28392 0.74003 0.45483 0.0
C5940 C 0.27887 0.73351 0.44614 0.0
C5941 C 0.26807 0.73651 0.44188 0.0
H5942 H 0.29228 0.7377 0.45811 0.0
H5943 H 0.18815 0.76646 0.41497 0.0
H5944 H 0.27215 0.20918 0.41033 0.0
H5945 H 0.25766 0.22407 0.41283 0.0
H5946 H 0.25851 0.2187 0.44949 0.0
H5947 H 0.27223 0.20302 0.44678 0.0
H5948 H 0.23846 0.22213 0.44478 0.0
H5949 H 0.27175 0.24311 0.43434 0.0
H5950 H 0.28881 0.24827 0.42296 0.0
H5951 H 0.2675 0.25516 0.39375 0.0
H5952 H 0.25032 0.24991 0.4049 0.0
H5953 H 0.21582 0.2855 0.43409 0.0
H5954 H 0.23154 0.27188 0.4368 0.0
H5955 H 0.20803 0.24379 0.4313 0.0
H5956 H 0.19226 0.25736 0.42931 0.0
H5957 H 0.24093 0.25863 0.42314 0.0
H5958 H 0.21658 0.21936 0.44269 0.0
H5959 H 0.2011 0.2157 0.45663 0.0
H5960 H 0.20749 0.24826 0.47257 0.0
H5961 H 0.22311 0.25205 0.45884 0.0
C5962 C 0.26922 0.21123 0.41891 0.0
C5963 C 0.27329 0.20508 0.42838 0.0
C5964 C 0.26102 0.21982 0.42036 0.0
C5965 C 0.25716 0.22281 0.4314 0.0
C5966 C 0.26131 0.21662 0.44088 0.0
C5967 C 0.26918 0.2077 0.43936 0.0
C5968 C 0.24857 0.23214 0.43297 0.0
C5969 C 0.23907 0.23014 0.44011 0.0
C5970 C 0.24945 0.24279 0.42718 0.0
C5971 C 0.25975 0.24605 0.42045 0.0
C5972 C 0.27071 0.24567 0.42547 0.0
C5973 C 0.2804 0.24861 0.41906 0.0
C5974 C 0.27924 0.25202 0.40763 0.0
C5975 C 0.26838 0.25252 0.4026 0.0
C5976 C 0.25867 0.24958 0.40897 0.0
C5977 C 0.21401 0.2764 0.4337 0.0
C5978 C 0.20284 0.27247 0.43154 0.0
C5979 C 0.22299 0.26862 0.43519 0.0
C5980 C 0.22101 0.25676 0.43436 0.0
C5981 C 0.20979 0.25285 0.43231 0.0
C5982 C 0.20076 0.26062 0.43111 0.0
C5983 C 0.23074 0.24852 0.43479 0.0
C5984 C 0.24042 0.2507 0.42797 0.0
C5985 C 0.23029 0.23829 0.44131 0.0
C5986 C 0.22096 0.23602 0.44966 0.0
C5987 C 0.21472 0.22572 0.44921 0.0
C5988 C 0.20591 0.22363 0.45706 0.0
C5989 C 0.2033 0.23176 0.46546 0.0
C5990 C 0.2095 0.24199 0.46604 0.0
C5991 C 0.21832 0.24412 0.45821 0.0
H5992 H 0.19647 0.23013 0.47153 0.0
H5993 H 0.28676 0.25428 0.40269 0.0
H5994 H 0.19458 0.26571 0.54877 0.0
H5995 H 0.20992 0.25159 0.54655 0.0
H5996 H 0.23098 0.27067 0.57023 0.0
H5997 H 0.21581 0.28498 0.57224 0.0
H5998 H 0.2438 0.26207 0.55343 0.0
H5999 H 0.21489 0.24773 0.57914 0.0
H6000 H 0.19526 0.24241 0.58491 0.0
H6001 H 0.19366 0.21787 0.55751 0.0
H6002 H 0.21324 0.22317 0.55148 0.0
H6003 H 0.28015 0.21845 0.57497 0.0
H6004 H 0.26636 0.23384 0.57185 0.0
H6005 H 0.2474 0.21226 0.54853 0.0
H6006 H 0.26103 0.19665 0.55188 0.0
H6007 H 0.23348 0.22202 0.56341 0.0
H6008 H 0.26386 0.23555 0.5391 0.0
H6009 H 0.28375 0.24095 0.53441 0.0
H6010 H 0.28299 0.26706 0.56035 0.0
H6011 H 0.26314 0.26171 0.5653 0.0
C6012 C 0.20254 0.26698 0.55338 0.0
C6013 C 0.20395 0.27638 0.56078 0.0
C6014 C 0.21128 0.25889 0.55213 0.0
C6015 C 0.2215 0.25996 0.5584 0.0
C6016 C 0.22315 0.26966 0.56533 0.0
C6017 C 0.21446 0.27781 0.5665 0.0
C6018 C 0.23016 0.25065 0.55835 0.0
C6019 C 0.24158 0.25332 0.55567 0.0
C6020 C 0.22721 0.2392 0.56111 0.0
C6021 C 0.21548 0.23594 0.56478 0.0
C6022 C 0.21032 0.24126 0.5743 0.0
C6023 C 0.19921 0.23824 0.57762 0.0
C6024 C 0.1932 0.22983 0.57156 0.0
C6025 C 0.19832 0.2244 0.56218 0.0
C6026 C 0.20942 0.2274 0.55881 0.0
C6027 C 0.27311 0.21701 0.56908 0.0
C6028 C 0.27166 0.20633 0.56367 0.0
C6029 C 0.26526 0.22585 0.56725 0.0
C6030 C 0.25592 0.22427 0.55984 0.0
C6031 C 0.25456 0.21368 0.55427 0.0
C6032 C 0.26236 0.20478 0.55617 0.0
C6033 C 0.24717 0.23341 0.5585 0.0
C6034 C 0.23572 0.23072 0.56099 0.0
C6035 C 0.25013 0.24485 0.55568 0.0
C6036 C 0.26203 0.24817 0.55262 0.0
C6037 C 0.26795 0.2424 0.54385 0.0
C6038 C 0.27922 0.24546 0.54114 0.0
C6039 C 0.28464 0.25433 0.54709 0.0
C6040 C 0.27878 0.26019 0.55575 0.0
C6041 C 0.26752 0.25715 0.5585 0.0
H6042 H 0.29336 0.25668 0.54498 0.0
H6043 H 0.1846 0.22751 0.57414 0.0
H6044 H 0.7986 0.26108 0.55687 0.0
H6045 H 0.78346 0.24667 0.55548 0.0
H6046 H 0.75878 0.27133 0.56778 0.0
H6047 H 0.77392 0.28572 0.56942 0.0
H6048 H 0.75717 0.2519 0.57935 0.0
H6049 H 0.75894 0.26216 0.53959 0.0
H6050 H 0.7683 0.26566 0.52097 0.0
H6051 H 0.77952 0.23062 0.5198 0.0
H6052 H 0.77036 0.22695 0.53851 0.0
H6053 H 0.70879 0.21651 0.57172 0.0
H6054 H 0.72234 0.23231 0.5694 0.0
H6055 H 0.74808 0.20857 0.55748 0.0
H6056 H 0.73447 0.19274 0.55953 0.0
H6057 H 0.7486 0.22802 0.54521 0.0
H6058 H 0.74789 0.21802 0.58522 0.0
H6059 H 0.73886 0.21436 0.60399 0.0
H6060 H 0.72604 0.24886 0.60477 0.0
H6061 H 0.73487 0.25268 0.58592 0.0
C6062 C 0.78992 0.26348 0.55914 0.0
C6063 C 0.78746 0.27452 0.5633 0.0
C6064 C 0.78126 0.25525 0.55829 0.0
C6065 C 0.76997 0.25795 0.56146 0.0
C6066 C 0.76744 0.26906 0.56531 0.0
C6067 C 0.7761 0.27728 0.56621 0.0
C6068 C 0.76095 0.24898 0.56151 0.0
C6069 C 0.75515 0.24682 0.57182 0.0
C6070 C 0.75856 0.24213 0.55178 0.0
C6071 C 0.76404 0.24431 0.5405 0.0
C6072 C 0.76348 0.25522 0.53541 0.0
C6073 C 0.76873 0.25723 0.52483 0.0
C6074 C 0.77453 0.24837 0.51922 0.0
C6075 C 0.77504 0.23748 0.52417 0.0
C6076 C 0.76981 0.23542 0.53475 0.0
C6077 C 0.71731 0.21466 0.56853 0.0
C6078 C 0.7206 0.20337 0.5659 0.0
C6079 C 0.72505 0.22369 0.56724 0.0
C6080 C 0.73628 0.22159 0.56346 0.0
C6081 C 0.73947 0.21038 0.56045 0.0
C6082 C 0.7317 0.20134 0.56166 0.0
C6083 C 0.74482 0.23099 0.56304 0.0
C6084 C 0.75056 0.23318 0.55269 0.0
C6085 C 0.74721 0.23786 0.57275 0.0
C6086 C 0.74194 0.23559 0.58411 0.0
C6087 C 0.74307 0.2248 0.58936 0.0
C6088 C 0.738 0.2227 0.60001 0.0
C6089 C 0.73185 0.23136 0.60555 0.0
C6090 C 0.73079 0.24215 0.60046 0.0
C6091 C 0.73583 0.24429 0.58979 0.0
H6092 H 0.72794 0.22972 0.6138 0.0
H6093 H 0.77859 0.24995 0.51103 0.0
H6094 H 0.28333 0.77692 0.56432 0.0
H6095 H 0.26871 0.76231 0.56111 0.0
H6096 H 0.24531 0.78826 0.54899 0.0
H6097 H 0.2599 0.80299 0.55229 0.0
H6098 H 0.23573 0.77507 0.56529 0.0
H6099 H 0.25636 0.76855 0.53058 0.0
H6100 H 0.27341 0.76509 0.51857 0.0
H6101 H 0.2797 0.73343 0.53627 0.0
H6102 H 0.26279 0.73678 0.54851 0.0
H6103 H 0.19262 0.73453 0.55293 0.0
H6104 H 0.2073 0.74904 0.54934 0.0
H6105 H 0.23312 0.72646 0.56317 0.0
H6106 H 0.21849 0.71186 0.56676 0.0
H6107 H 0.24079 0.73853 0.54408 0.0
H6108 H 0.22187 0.74602 0.57999 0.0
H6109 H 0.20518 0.74933 0.59254 0.0
H6110 H 0.19614 0.77916 0.57296 0.0
H6111 H 0.21269 0.77592 0.56018 0.0
C6112 C 0.27513 0.77951 0.56081 0.0
C6113 C 0.27274 0.79112 0.55862 0.0
C6114 C 0.2668 0.77114 0.55892 0.0
C6115 C 0.25594 0.77419 0.55475 0.0
C6116 C 0.25364 0.78573 0.55221 0.0
C6117 C 0.26199 0.79412 0.55407 0.0
C6118 C 0.24674 0.76546 0.55398 0.0
C6119 C 0.23673 0.7672 0.56043 0.0
C6120 C 0.24819 0.75505 0.54791 0.0
C6121 C 0.25834 0.75296 0.54052 0.0
C6122 C 0.26143 0.76089 0.53197 0.0
C6123 C 0.27106 0.75894 0.52511 0.0
C6124 C 0.27765 0.74906 0.52667 0.0
C6125 C 0.2746 0.74109 0.53507 0.0
C6126 C 0.26498 0.743 0.54196 0.0
C6127 C 0.20144 0.73259 0.55507 0.0
C6128 C 0.20439 0.72211 0.56025 0.0
C6129 C 0.20981 0.74089 0.55302 0.0
C6130 C 0.22126 0.73887 0.55612 0.0
C6131 C 0.22433 0.72819 0.56073 0.0
C6132 C 0.21595 0.71988 0.56281 0.0
C6133 C 0.22986 0.74817 0.55539 0.0
C6134 C 0.23975 0.7465 0.54875 0.0
C6135 C 0.22835 0.75864 0.56133 0.0
C6136 C 0.21843 0.76065 0.56905 0.0
C6137 C 0.21627 0.75323 0.5783 0.0
C6138 C 0.20684 0.7551 0.58547 0.0
C6139 C 0.19959 0.76443 0.58353 0.0
C6140 C 0.20176 0.77193 0.57444 0.0
C6141 C 0.21116 0.77008 0.56723 0.0
H6142 H 0.1923 0.76587 0.58909 0.0
H6143 H 0.2851 0.74757 0.52135 0.0
H6144 H 0.04074 0.19803 0.34355 0.0
H6145 H 0.02142 0.1919 0.34876 0.0
H6146 H 0.02543 0.16148 0.32808 0.0
H6147 H 0.04466 0.16769 0.32265 0.0
H6148 H 0.00828 0.17411 0.32085 0.0
H6149 H 0.01977 0.15944 0.35695 0.0
H6150 H 0.02954 0.15922 0.37569 0.0
H6151 H 0.00953 0.18809 0.38669 0.0
H6152 H -0.00024 0.18861 0.36796 0.0
H6153 H 0.94965 0.16653 0.32389 0.0
H6154 H 0.96926 0.16106 0.32885 0.0
H6155 H 0.97314 0.19234 0.34821 0.0
H6156 H 0.95342 0.1977 0.34358 0.0
H6157 H 0.9863 0.1749 0.35724 0.0
H6158 H 0.97904 0.19239 0.32015 0.0
H6159 H 0.96965 0.19382 0.30125 0.0
H6160 H 0.98253 0.16054 0.29215 0.0
H6161 H 0.99187 0.15887 0.31108 0.0
C6162 C 0.03764 0.18987 0.3404 0.0
C6163 C 0.04409 0.18346 0.33251 0.0
C6164 C 0.02662 0.18632 0.34346 0.0
C6165 C 0.02197 0.17624 0.33878 0.0
C6166 C 0.02884 0.1693 0.33176 0.0
C6167 C 0.03981 0.17289 0.32863 0.0
C6168 C 0.00945 0.17423 0.3393 0.0
C6169 C 0.00352 0.1739 0.32884 0.0
C6170 C 0.00321 0.17435 0.34971 0.0
C6171 C 0.00907 0.1741 0.361 0.0
C6172 C 0.01751 0.1658 0.36333 0.0
C6173 C 0.02304 0.16561 0.37396 0.0
C6174 C 0.02017 0.17364 0.38237 0.0
C6175 C 0.01175 0.18187 0.38017 0.0
C6176 C 0.00619 0.1821 0.36955 0.0
C6177 C 0.95458 0.17209 0.32947 0.0
C6178 C 0.95013 0.18266 0.33315 0.0
C6179 C 0.96575 0.16893 0.33232 0.0
C6180 C 0.97271 0.17642 0.33868 0.0
C6181 C 0.96792 0.18645 0.34327 0.0
C6182 C 0.95667 0.18954 0.34056 0.0
C6183 C 0.98529 0.17489 0.33881 0.0
C6184 C 0.99116 0.1747 0.34932 0.0
C6185 C 0.99158 0.17443 0.32845 0.0
C6186 C 0.98602 0.17544 0.31706 0.0
C6187 C 0.9798 0.18535 0.31414 0.0
C6188 C 0.9745 0.1862 0.30343 0.0
C6189 C 0.97546 0.17726 0.29552 0.0
C6190 C 0.98176 0.16745 0.2983 0.0
C6191 C 0.98706 0.16654 0.30901 0.0
H6192 H 0.97136 0.17794 0.28722 0.0
H6193 H 0.02445 0.17348 0.3906 0.0
H6194 H 0.81944 0.95487 0.31695 0.0
H6195 H 0.8241 0.97398 0.32375 0.0
H6196 H 0.80531 0.96758 0.355 0.0
H6197 H 0.80022 0.94847 0.34797 0.0
H6198 H 0.79771 0.98577 0.34555 0.0
H6199 H 0.8352 0.97385 0.35502 0.0
H6200 H 0.85374 0.96399 0.35267 0.0
H6201 H 0.86133 0.98477 0.32326 0.0
H6202 H 0.84277 0.99465 0.3253 0.0
H6203 H 0.80202 0.04586 0.34707 0.0
H6204 H 0.80645 0.02667 0.35435 0.0
H6205 H 0.82318 0.01843 0.32239 0.0
H6206 H 0.81914 0.0376 0.31525 0.0
H6207 H 0.83365 0.00773 0.33975 0.0
H6208 H 0.79388 0.01353 0.3268 0.0
H6209 H 0.77491 0.02285 0.32785 0.0
H6210 H 0.77177 0.01285 0.36315 0.0
H6211 H 0.79078 0.00357 0.36231 0.0
C6212 C 0.81651 0.95741 0.32539 0.0
C6213 C 0.80932 0.95024 0.33185 0.0
C6214 C 0.81931 0.96833 0.32935 0.0
C6215 C 0.81516 0.97222 0.33996 0.0
C6216 C 0.80863 0.96475 0.3468 0.0
C6217 C 0.8057 0.95386 0.34276 0.0
C6218 C 0.81597 0.98459 0.34282 0.0
C6219 C 0.80567 0.99052 0.3447 0.0
C6220 C 0.8263 0.99085 0.34155 0.0
C6221 C 0.83756 0.98501 0.34033 0.0
C6222 C 0.84079 0.97629 0.34801 0.0
C6223 C 0.85131 0.9707 0.34674 0.0
C6224 C 0.85871 0.97375 0.33783 0.0
C6225 C 0.8556 0.98243 0.33018 0.0
C6226 C 0.84509 0.98805 0.33141 0.0
C6227 C 0.80685 0.04002 0.3417 0.0
C6228 C 0.81005 0.04314 0.33051 0.0
C6229 C 0.80939 0.02908 0.34588 0.0
C6230 C 0.81496 0.02105 0.33883 0.0
C6231 C 0.81887 0.02447 0.32798 0.0
C6232 C 0.81647 0.03542 0.32387 0.0
C6233 C 0.81535 0.00873 0.34188 0.0
C6234 C 0.82584 0.00287 0.34111 0.0
C6235 C 0.8052 0.00248 0.34406 0.0
C6236 C 0.79378 0.008 0.34454 0.0
C6237 C 0.78916 0.01338 0.3348 0.0
C6238 C 0.77841 0.01865 0.33535 0.0
C6239 C 0.77216 0.01848 0.34557 0.0
C6240 C 0.77663 0.013 0.35525 0.0
C6241 C 0.78739 0.00774 0.35474 0.0
H6242 H 0.76383 0.02255 0.34599 0.0
H6243 H 0.86685 0.9694 0.33685 0.0
H6244 H 0.95149 0.79706 0.34437 0.0
H6245 H 0.97107 0.80248 0.34936 0.0
H6246 H 0.9684 0.83236 0.32772 0.0
H6247 H 0.94889 0.82687 0.32251 0.0
H6248 H 0.98512 0.81891 0.32101 0.0
H6249 H 0.97398 0.83508 0.35653 0.0
H6250 H 0.96413 0.83635 0.37518 0.0
H6251 H 0.98288 0.80708 0.38729 0.0
H6252 H 0.99272 0.80552 0.36865 0.0
H6253 H 0.04388 0.82513 0.32454 0.0
H6254 H 0.02438 0.83112 0.32929 0.0
H6255 H 0.01953 0.80006 0.34878 0.0
H6256 H 0.03915 0.79415 0.34431 0.0
H6257 H 0.0068 0.81832 0.3576 0.0
H6258 H 0.0138 0.79968 0.32098 0.0
H6259 H 0.0234 0.79759 0.30225 0.0
H6260 H 0.01166 0.83104 0.2923 0.0
H6261 H 0.00213 0.83338 0.31106 0.0
C6262 C 0.95495 0.80496 0.34094 0.0
C6263 C 0.94876 0.81142 0.33288 0.0
C6264 C 0.96613 0.80811 0.34387 0.0
C6265 C 0.97122 0.81782 0.33889 0.0
C6266 C 0.96465 0.82482 0.33164 0.0
C6267 C 0.95351 0.82165 0.32865 0.0
C6268 C 0.98381 0.81934 0.33945 0.0
C6269 C 0.98982 0.81915 0.32903 0.0
C6270 C 0.98997 0.81929 0.3499 0.0
C6271 C 0.98405 0.82015 0.36114 0.0
C6272 C 0.97594 0.82885 0.36313 0.0
C6273 C 0.97037 0.82963 0.37371 0.0
C6274 C 0.97287 0.82179 0.38241 0.0
C6275 C 0.98095 0.81315 0.38054 0.0
C6276 C 0.98654 0.81233 0.36997 0.0
C6277 C 0.03877 0.81973 0.3301 0.0
C6278 C 0.04291 0.80906 0.33385 0.0
C6279 C 0.02765 0.82318 0.33284 0.0
C6280 C 0.02047 0.81592 0.33918 0.0
C6281 C 0.02495 0.80578 0.34386 0.0
C6282 C 0.03613 0.80238 0.34123 0.0
C6283 C 0.00793 0.81779 0.33919 0.0
C6284 C 0.002 0.81847 0.34963 0.0
C6285 C 0.00174 0.8182 0.32876 0.0
C6286 C 0.00738 0.81676 0.31746 0.0
C6287 C 0.01334 0.80662 0.31482 0.0
C6288 C 0.01876 0.80538 0.30421 0.0
C6289 C 0.01817 0.81419 0.29611 0.0
C6290 C 0.01213 0.82423 0.2986 0.0
C6291 C 0.00672 0.82552 0.30922 0.0
H6292 H 0.02237 0.81322 0.28789 0.0
H6293 H 0.96855 0.82241 0.3906 0.0
H6294 H 0.1693 0.04096 0.32094 0.0
H6295 H 0.16605 0.02111 0.32675 0.0
H6296 H 0.19233 0.02427 0.35257 0.0
H6297 H 0.19565 0.04413 0.34682 0.0
H6298 H 0.19679 0.00769 0.33666 0.0
H6299 H 0.16566 0.01836 0.36079 0.0
H6300 H 0.14758 0.02795 0.36603 0.0
H6301 H 0.12968 0.00876 0.34022 0.0
H6302 H 0.14769 -0.00083 0.33469 0.0
H6303 H 0.19562 0.94907 0.3468 0.0
H6304 H 0.1921 0.969 0.35223 0.0
H6305 H 0.16681 0.97195 0.32541 0.0
H6306 H 0.17024 0.95201 0.31994 0.0
H6307 H 0.16159 0.98536 0.34521 0.0
H6308 H 0.19234 0.97838 0.31845 0.0
H6309 H 0.21008 0.96907 0.31169 0.0
H6310 H 0.22824 0.98204 0.34097 0.0
H6311 H 0.21053 0.99128 0.34799 0.0
C6312 C 0.17417 0.03753 0.32807 0.0
C6313 C 0.18286 0.04403 0.3333 0.0
C6314 C 0.17224 0.02621 0.33143 0.0
C6315 C 0.17896 0.02123 0.34007 0.0
C6316 C 0.18704 0.02798 0.34589 0.0
C6317 C 0.18894 0.03931 0.34257 0.0
C6318 C 0.17899 0.00865 0.34155 0.0
C6319 C 0.18916 0.00283 0.33887 0.0
C6320 C 0.16893 0.00233 0.344 0.0
C6321 C 0.15806 0.0081 0.34727 0.0
C6322 C 0.15789 0.01625 0.35615 0.0
C6323 C 0.14765 0.02167 0.3592 0.0
C6324 C 0.13749 0.01898 0.35345 0.0
C6325 C 0.13755 0.01084 0.34466 0.0
C6326 C 0.14778 0.0054 0.34158 0.0
C6327 C 0.1891 0.95386 0.34224 0.0
C6328 C 0.18337 0.94907 0.33279 0.0
C6329 C 0.18707 0.96522 0.34539 0.0
C6330 C 0.17931 0.97194 0.33911 0.0
C6331 C 0.17283 0.96688 0.33035 0.0
C6332 C 0.17487 0.95552 0.32718 0.0
C6333 C 0.17938 0.98454 0.34036 0.0
C6334 C 0.16925 0.9903 0.34336 0.0
C6335 C 0.18943 0.9909 0.33803 0.0
C6336 C 0.20009 0.98538 0.33382 0.0
C6337 C 0.2001 0.97915 0.3235 0.0
C6338 C 0.21014 0.97391 0.31961 0.0
C6339 C 0.22027 0.97493 0.32592 0.0
C6340 C 0.22038 0.98123 0.33611 0.0
C6341 C 0.21034 0.98647 0.34005 0.0
H6342 H 0.22805 0.97087 0.32289 0.0
H6343 H 0.12957 0.02319 0.35582 0.0
H6344 H 0.0432 0.82656 0.66919 0.0
H6345 H 0.02377 0.8325 0.66409 0.0
H6346 H 0.01883 0.80077 0.64574 0.0
H6347 H 0.03838 0.79491 0.65053 0.0
H6348 H 0.00626 0.81859 0.63618 0.0
H6349 H 0.01304 0.80165 0.6737 0.0
H6350 H 0.02248 0.80044 0.69259 0.0
H6351 H 0.01068 0.83433 0.70084 0.0
H6352 H 0.0013 0.83578 0.68191 0.0
H6353 H 0.95168 0.79667 0.65001 0.0
H6354 H 0.97101 0.80262 0.64477 0.0
H6355 H 0.9673 0.83311 0.66541 0.0
H6356 H 0.94803 0.82705 0.6709 0.0
H6357 H 0.98438 0.82065 0.67259 0.0
H6358 H 0.9731 0.83492 0.63636 0.0
H6359 H 0.96329 0.83513 0.61765 0.0
H6360 H 0.98267 0.80574 0.60691 0.0
H6361 H 0.99249 0.80523 0.62562 0.0
C6362 C 0.03808 0.82098 0.6638 0.0
C6363 C 0.04218 0.81016 0.66046 0.0
C6364 C 0.02701 0.82441 0.66086 0.0
C6365 C 0.01981 0.81696 0.65475 0.0
C6366 C 0.02426 0.80663 0.65048 0.0
C6367 C 0.0354 0.80326 0.65329 0.0
C6368 C 0.00729 0.8189 0.6546 0.0
C6369 C 0.00141 0.81908 0.6441 0.0
C6370 C 0.00104 0.81977 0.66496 0.0
C6371 C 0.00661 0.81888 0.67636 0.0
C6372 C 0.01254 0.80887 0.67952 0.0
C6373 C 0.01787 0.80814 0.69023 0.0
C6374 C 0.01721 0.81732 0.6979 0.0
C6375 C 0.0112 0.82724 0.69488 0.0
C6376 C 0.00588 0.82802 0.68416 0.0
C6377 C 0.95484 0.80481 0.65316 0.0
C6378 C 0.94845 0.81128 0.66105 0.0
C6379 C 0.96588 0.80826 0.65007 0.0
C6380 C 0.97062 0.81831 0.65472 0.0
C6381 C 0.96381 0.82531 0.66175 0.0
C6382 C 0.95282 0.82182 0.66491 0.0
C6383 C 0.98316 0.82019 0.65415 0.0
C6384 C 0.98911 0.82059 0.66459 0.0
C6385 C 0.98938 0.81976 0.64373 0.0
C6386 C 0.9835 0.82001 0.63244 0.0
C6387 C 0.97522 0.82844 0.63004 0.0
C6388 C 0.96966 0.82862 0.61943 0.0
C6389 C 0.97235 0.82045 0.6111 0.0
C6390 C 0.98061 0.81207 0.61337 0.0
C6391 C 0.98618 0.81185 0.62397 0.0
H6392 H 0.96804 0.8206 0.60288 0.0
H6393 H 0.02134 0.81674 0.70619 0.0
H6394 H 0.19408 0.03851 0.64896 0.0
H6395 H 0.18767 0.01915 0.64439 0.0
H6396 H 0.1586 0.02337 0.66688 0.0
H6397 H 0.16512 0.04267 0.6717 0.0
H6398 H 0.17128 0.00621 0.67343 0.0
H6399 H 0.15485 0.01729 0.6381 0.0
H6400 H 0.15347 0.02694 0.61936 0.0
H6401 H 0.18195 0.00724 0.60689 0.0
H6402 H 0.18363 -0.00241 0.62561 0.0
H6403 H 0.1653 0.94724 0.67079 0.0
H6404 H 0.1589 0.96658 0.66593 0.0
H6405 H 0.18948 0.9717 0.64577 0.0
H6406 H 0.19581 0.95227 0.65037 0.0
H6407 H 0.17095 0.98401 0.63715 0.0
H6408 H 0.19023 0.97759 0.67365 0.0
H6409 H 0.19259 0.96831 0.69251 0.0
H6410 H 0.15921 0.98008 0.70266 0.0
H6411 H 0.15661 0.9893 0.68377 0.0
C6412 C 0.18614 0.03545 0.65268 0.0
C6413 C 0.18023 0.042 0.66086 0.0
C6414 C 0.18242 0.02439 0.64998 0.0
C6415 C 0.17266 0.01979 0.65531 0.0
C6416 C 0.16617 0.02674 0.66269 0.0
C6417 C 0.16993 0.03775 0.66546 0.0
C6418 C 0.17062 0.00726 0.65498 0.0
C6419 C 0.17081 0.0014 0.66548 0.0
C6420 C 0.17033 0.00096 0.64461 0.0
C6421 C 0.16939 0.00674 0.63331 0.0
C6422 C 0.16088 0.01507 0.6314 0.0
C6423 C 0.16003 0.02054 0.62076 0.0
C6424 C 0.16762 0.01772 0.61194 0.0
C6425 C 0.17607 0.00941 0.61373 0.0
C6426 C 0.17696 0.00393 0.62435 0.0
C6427 C 0.17051 0.95237 0.66507 0.0
C6428 C 0.18118 0.94836 0.66117 0.0
C6429 C 0.16681 0.9634 0.66226 0.0
C6430 C 0.17383 0.97062 0.65569 0.0
C6431 C 0.18395 0.96625 0.65088 0.0
C6432 C 0.1876 0.95517 0.65358 0.0
C6433 C 0.1718 0.98314 0.65556 0.0
C6434 C 0.17097 0.98892 0.64504 0.0
C6435 C 0.17159 0.98947 0.6659 0.0
C6436 C 0.17317 0.98399 0.67727 0.0
C6437 C 0.18337 0.97812 0.67988 0.0
C6438 C 0.18475 0.97288 0.69057 0.0
C6439 C 0.17604 0.97357 0.69876 0.0
C6440 C 0.16594 0.97953 0.69629 0.0
C6441 C 0.1645 0.98475 0.6856 0.0
H6442 H 0.17713 0.96952 0.70704 0.0
H6443 H 0.16695 0.02196 0.60372 0.0
H6444 H 0.94892 0.16708 0.67391 0.0
H6445 H 0.96893 0.16179 0.67097 0.0
H6446 H 0.97234 0.18832 0.64546 0.0
H6447 H 0.95225 0.19367 0.64829 0.0
H6448 H 0.98686 0.16814 0.64169 0.0
H6449 H 0.97703 0.19637 0.67068 0.0
H6450 H 0.96619 0.20335 0.68744 0.0
H6451 H 0.97869 0.17512 0.7075 0.0
H6452 H 0.98945 0.16786 0.69078 0.0
H6453 H 0.04222 0.19263 0.65142 0.0
H6454 H 0.02245 0.18699 0.6473 0.0
H6455 H 0.02315 0.16346 0.67583 0.0
H6456 H 0.04286 0.16907 0.68003 0.0
H6457 H 0.00648 0.17929 0.67777 0.0
H6458 H 0.01944 0.15322 0.64936 0.0
H6459 H 0.03033 0.14661 0.63251 0.0
H6460 H 0.01256 0.17087 0.61127 0.0
H6461 H 0.00168 0.17776 0.62804 0.0
C6462 C 0.95381 0.17157 0.66741 0.0
C6463 C 0.94911 0.18097 0.66152 0.0
C6464 C 0.96522 0.16848 0.66571 0.0
C6465 C 0.97211 0.17479 0.65814 0.0
C6466 C 0.96713 0.18336 0.65134 0.0
C6467 C 0.95567 0.18645 0.65302 0.0
C6468 C 0.9847 0.17404 0.65904 0.0
C6469 C 0.99121 0.17058 0.64953 0.0
C6470 C 0.99029 0.17709 0.66936 0.0
C6471 C 0.98392 0.18149 0.67945 0.0
C6472 C 0.97738 0.1916 0.67864 0.0
C6473 C 0.97127 0.19561 0.68813 0.0
C6474 C 0.97172 0.18967 0.69852 0.0
C6475 C 0.97832 0.17971 0.69944 0.0
C6476 C 0.98443 0.17563 0.68996 0.0
C6477 C 0.03826 0.18605 0.65664 0.0
C6478 C 0.04401 0.18142 0.66616 0.0
C6479 C 0.02699 0.18278 0.65423 0.0
C6480 C 0.02135 0.17482 0.66127 0.0
C6481 C 0.02736 0.16962 0.6703 0.0
C6482 C 0.03861 0.17287 0.6727 0.0
C6483 C 0.00879 0.17336 0.66042 0.0
C6484 C 0.00222 0.17656 0.66996 0.0
C6485 C 0.00325 0.17013 0.65012 0.0
C6486 C 0.00981 0.16608 0.64 0.0
C6487 C 0.01793 0.15723 0.64113 0.0
C6488 C 0.02408 0.15341 0.63158 0.0
C6489 C 0.02216 0.15833 0.62083 0.0
C6490 C 0.01405 0.16707 0.61961 0.0
C6491 C 0.00788 0.17093 0.62913 0.0
H6492 H 0.02693 0.15536 0.61345 0.0
H6493 H 0.96699 0.19279 0.70586 0.0
H6494 H 0.8215 0.03762 0.6797 0.0
H6495 H 0.82703 0.01867 0.67316 0.0
H6496 H 0.81331 0.02612 0.63959 0.0
H6497 H 0.80726 0.04506 0.64632 0.0
H6498 H 0.80415 0.00795 0.64712 0.0
H6499 H 0.84292 0.01924 0.64425 0.0
H6500 H 0.861 0.0286 0.6499 0.0
H6501 H 0.86327 0.00681 0.67948 0.0
H6502 H 0.84512 -0.00257 0.67412 0.0
H6503 H 0.80649 0.94816 0.64478 0.0
H6504 H 0.8129 0.96721 0.6387 0.0
H6505 H 0.82545 0.97385 0.67288 0.0
H6506 H 0.81961 0.95471 0.6788 0.0
H6507 H 0.83825 0.985 0.65796 0.0
H6508 H 0.79675 0.97991 0.66419 0.0
H6509 H 0.778 0.97112 0.65982 0.0
H6510 H 0.78087 0.98201 0.62476 0.0
H6511 H 0.79969 0.99077 0.62893 0.0
C6512 C 0.8199 0.03535 0.67084 0.0
C6513 C 0.81379 0.04275 0.66357 0.0
C6514 C 0.8232 0.02452 0.66705 0.0
C6515 C 0.8207 0.02095 0.65582 0.0
C6516 C 0.81535 0.02868 0.64828 0.0
C6517 C 0.81187 0.03948 0.65214 0.0
C6518 C 0.82174 0.00863 0.6528 0.0
C6519 C 0.81177 0.003 0.6491 0.0
C6520 C 0.8316 0.00209 0.65553 0.0
C6521 C 0.84262 0.00762 0.65876 0.0
C6522 C 0.84724 0.01647 0.65199 0.0
C6523 C 0.85751 0.02178 0.65514 0.0
C6524 C 0.86328 0.0183 0.66504 0.0
C6525 C 0.8588 0.00948 0.6718 0.0
C6526 C 0.84853 0.00415 0.66869 0.0
C6527 C 0.81086 0.95361 0.6509 0.0
C6528 C 0.81235 0.95007 0.66232 0.0
C6529 C 0.81453 0.96448 0.64742 0.0
C6530 C 0.81939 0.97207 0.65541 0.0
C6531 C 0.82169 0.96817 0.66656 0.0
C6532 C 0.81826 0.95724 0.66997 0.0
C6533 C 0.82052 0.98447 0.65288 0.0
C6534 C 0.83085 0.99007 0.65552 0.0
C6535 C 0.81097 0.99105 0.64929 0.0
C6536 C 0.79965 0.98585 0.64682 0.0
C6537 C 0.79339 0.98037 0.65554 0.0
C6538 C 0.78276 0.9754 0.65311 0.0
C6539 C 0.77827 0.97597 0.64201 0.0
C6540 C 0.78438 0.98155 0.63334 0.0
C6541 C 0.79502 0.98651 0.63573 0.0
H6542 H 0.77004 0.97212 0.64014 0.0
H6543 H 0.87123 0.02243 0.66748 0.0
H6544 H 0.31485 0.955 0.17358 0.0
H6545 H 0.32131 0.97419 0.16882 0.0
H6546 H 0.35403 0.96727 0.1847 0.0
H6547 H 0.34736 0.94806 0.18994 0.0
H6548 H 0.34578 0.98564 0.19306 0.0
H6549 H 0.35128 0.9736 0.15481 0.0
H6550 H 0.34691 0.96376 0.13662 0.0
H6551 H 0.31721 0.985 0.13202 0.0
H6552 H 0.32128 0.99486 0.15025 0.0
H6553 H 0.34708 0.0458 0.1888 0.0
H6554 H 0.35392 0.02657 0.18384 0.0
H6555 H 0.32078 0.01854 0.16947 0.0
H6556 H 0.3141 0.03777 0.17392 0.0
H6557 H 0.33681 0.00769 0.15784 0.0
H6558 H 0.32806 0.01363 0.19888 0.0
H6559 H 0.33133 0.02294 0.21761 0.0
H6560 H 0.36663 0.01252 0.21681 0.0
H6561 H 0.36357 0.00324 0.19802 0.0
C6562 C 0.32351 0.95745 0.17586 0.0
C6563 C 0.33055 0.95007 0.18225 0.0
C6564 C 0.32727 0.96842 0.173 0.0
C6565 C 0.33824 0.97217 0.17625 0.0
C6566 C 0.34555 0.96456 0.18206 0.0
C6567 C 0.34172 0.9536 0.18507 0.0
C6568 C 0.34119 0.9845 0.17518 0.0
C6569 C 0.3442 0.9904 0.18522 0.0
C6570 C 0.33905 0.99079 0.16501 0.0
C6571 C 0.33661 0.98498 0.15393 0.0
C6572 C 0.34379 0.97615 0.14995 0.0
C6573 C 0.34136 0.97056 0.13962 0.0
C6574 C 0.33179 0.97375 0.13317 0.0
C6575 C 0.32463 0.98255 0.13702 0.0
C6576 C 0.32702 0.98816 0.14733 0.0
C6577 C 0.34135 0.03999 0.18436 0.0
C6578 C 0.32999 0.0432 0.18193 0.0
C6579 C 0.34527 0.02902 0.18154 0.0
C6580 C 0.33779 0.02103 0.17651 0.0
C6581 C 0.32672 0.02453 0.17335 0.0
C6582 C 0.32287 0.03553 0.17599 0.0
C6583 C 0.34071 0.00867 0.17584 0.0
C6584 C 0.33885 0.00282 0.16549 0.0
C6585 C 0.34383 0.00238 0.18573 0.0
C6586 C 0.34563 0.00789 0.19702 0.0
C6587 C 0.33652 0.01338 0.20269 0.0
C6588 C 0.33834 0.01865 0.21331 0.0
C6589 C 0.34919 0.01836 0.21838 0.0
C6590 C 0.35824 0.01277 0.21286 0.0
C6591 C 0.35647 0.00751 0.20223 0.0
H6592 H 0.35058 0.02244 0.22659 0.0
H6593 H 0.32992 0.96941 0.12519 0.0
H6594 H 0.95243 0.34415 0.1983 0.0
H6595 H 0.9718 0.34971 0.19266 0.0
H6596 H 0.96822 0.33049 0.16124 0.0
H6597 H 0.94898 0.32462 0.16702 0.0
H6598 H 0.98564 0.32317 0.17279 0.0
H6599 H 0.97307 0.36016 0.16131 0.0
H6600 H 0.96284 0.37859 0.16287 0.0
H6601 H 0.98296 0.3875 0.19237 0.0
H6602 H 0.9932 0.36905 0.19111 0.0
H6603 H 0.04415 0.32772 0.16591 0.0
H6604 H 0.02459 0.33289 0.16043 0.0
H6605 H 0.02008 0.35023 0.19279 0.0
H6606 H 0.03973 0.34547 0.19813 0.0
H6607 H 0.00671 0.35994 0.17632 0.0
H6608 H 0.01492 0.32165 0.19071 0.0
H6609 H 0.02484 0.30297 0.19045 0.0
H6610 H 0.01216 0.29651 0.15649 0.0
H6611 H 0.00228 0.31524 0.15651 0.0
C6612 C 0.95566 0.34138 0.19005 0.0
C6613 C 0.94929 0.33379 0.18319 0.0
C6614 C 0.96671 0.34464 0.18678 0.0
C6615 C 0.97148 0.34052 0.17651 0.0
C6616 C 0.96473 0.33374 0.16921 0.0
C6617 C 0.95375 0.33037 0.17254 0.0
C6618 C 0.984 0.34152 0.17446 0.0
C6619 C 0.99018 0.33128 0.17319 0.0
C6620 C 0.98999 0.35204 0.17534 0.0
C6621 C 0.98387 0.36318 0.17614 0.0
C6622 C 0.97526 0.36601 0.16818 0.0
C6623 C 0.96947 0.37647 0.16901 0.0
C6624 C 0.97224 0.3842 0.17772 0.0
C6625 C 0.98082 0.3815 0.18562 0.0
C6626 C 0.98664 0.37105 0.18484 0.0
C6627 C 0.03911 0.33295 0.1717 0.0
C6628 C 0.04335 0.33597 0.18256 0.0
C6629 C 0.02795 0.33592 0.16855 0.0
C6630 C 0.0208 0.34167 0.17634 0.0
C6631 C 0.02543 0.34574 0.18667 0.0
C6632 C 0.03665 0.34294 0.18974 0.0
C6633 C 0.00819 0.34162 0.17477 0.0
C6634 C 0.00205 0.35194 0.1755 0.0
C6635 C 0.00215 0.33117 0.17353 0.0
C6636 C 0.00799 0.31988 0.17355 0.0
C6637 C 0.01431 0.31626 0.18316 0.0
C6638 C 0.01992 0.30567 0.18306 0.0
C6639 C 0.01916 0.29857 0.17344 0.0
C6640 C 0.01276 0.30203 0.16392 0.0
C6641 C 0.00716 0.31263 0.16397 0.0
H6642 H 0.02351 0.29037 0.17338 0.0
H6643 H 0.96774 0.3923 0.17834 0.0
H6644 H 0.66506 0.94865 0.16552 0.0
H6645 H 0.6597 0.96805 0.15972 0.0
H6646 H 0.64267 0.97309 0.19216 0.0
H6647 H 0.64769 0.95357 0.19787 0.0
H6648 H 0.63267 0.98604 0.17492 0.0
H6649 H 0.67078 0.9784 0.19022 0.0
H6650 H 0.68948 0.96851 0.19048 0.0
H6651 H 0.69639 0.98032 0.1563 0.0
H6652 H 0.67765 0.99015 0.15579 0.0
H6653 H 0.64803 0.04069 0.19606 0.0
H6654 H 0.64242 0.02131 0.19055 0.0
H6655 H 0.66227 0.02433 0.15947 0.0
H6656 H 0.6682 0.0436 0.16512 0.0
H6657 H 0.66941 0.0072 0.17155 0.0
H6658 H 0.63277 0.01928 0.15887 0.0
H6659 H 0.61427 0.02945 0.15955 0.0
H6660 H 0.60451 0.01011 0.18931 0.0
H6661 H 0.62302 -7e-05 0.18892 0.0
C6662 C 0.65987 0.95377 0.17127 0.0
C6663 C 0.65702 0.94973 0.18225 0.0
C6664 C 0.65677 0.96483 0.16793 0.0
C6665 C 0.65103 0.97208 0.17563 0.0
C6666 C 0.64714 0.96764 0.18611 0.0
C6667 C 0.65008 0.95651 0.18939 0.0
C6668 C 0.65103 0.98463 0.17379 0.0
C6669 C 0.64066 0.99073 0.17414 0.0
C6670 C 0.66147 0.99068 0.17257 0.0
C6671 C 0.67278 0.98488 0.17291 0.0
C6672 C 0.67627 0.97882 0.18273 0.0
C6673 C 0.68687 0.97324 0.18293 0.0
C6674 C 0.6941 0.97376 0.1734 0.0
C6675 C 0.69077 0.9799 0.16366 0.0
C6676 C 0.68016 0.98548 0.16341 0.0
C6677 C 0.65094 0.03735 0.1879 0.0
C6678 C 0.65873 0.04355 0.18113 0.0
C6679 C 0.64764 0.02629 0.1847 0.0
C6680 C 0.65193 0.02135 0.17459 0.0
C6681 C 0.65889 0.02796 0.16732 0.0
C6682 C 0.6623 0.03895 0.17058 0.0
C6683 C 0.65103 0.0088 0.17279 0.0
C6684 C 0.66131 0.00263 0.1719 0.0
C6685 C 0.64051 0.00278 0.17361 0.0
C6686 C 0.62934 0.00887 0.17389 0.0
C6687 C 0.62672 0.01725 0.16562 0.0
C6688 C 0.61622 0.02301 0.16594 0.0
C6689 C 0.60822 0.02044 0.17448 0.0
C6690 C 0.61071 0.01209 0.1827 0.0
C6691 C 0.6212 0.00631 0.18242 0.0
H6692 H 0.60009 0.02491 0.17472 0.0
H6693 H 0.70231 0.96943 0.17356 0.0
H6694 H 0.04492 0.66965 0.16599 0.0
H6695 H 0.02546 0.66505 0.15978 0.0
H6696 H 0.02043 0.64479 0.1903 0.0
H6697 H 0.03999 0.64912 0.19645 0.0
H6698 H 0.00764 0.63655 0.17172 0.0
H6699 H 0.01497 0.67259 0.19148 0.0
H6700 H 0.02473 0.69117 0.19405 0.0
H6701 H 0.01298 0.70212 0.16092 0.0
H6702 H 0.00328 0.68351 0.1581 0.0
H6703 H 0.95296 0.64924 0.19438 0.0
H6704 H 0.97238 0.64441 0.18833 0.0
H6705 H 0.96913 0.66723 0.15939 0.0
H6706 H 0.94977 0.67228 0.16553 0.0
H6707 H 0.98623 0.6733 0.17255 0.0
H6708 H 0.97455 0.63847 0.15543 0.0
H6709 H 0.96453 0.61995 0.15367 0.0
H6710 H 0.98366 0.60664 0.18216 0.0
H6711 H 0.99369 0.62514 0.18422 0.0
C6712 C 0.03978 0.66394 0.17122 0.0
C6713 C 0.04385 0.65995 0.18183 0.0
C6714 C 0.02869 0.66129 0.16763 0.0
C6715 C 0.02145 0.65478 0.1747 0.0
C6716 C 0.02588 0.64984 0.18474 0.0
C6717 C 0.03704 0.65239 0.18827 0.0
C6718 C 0.00891 0.65493 0.17283 0.0
C6719 C 0.0029 0.64455 0.17187 0.0
C6720 C 0.0028 0.66541 0.1728 0.0
C6721 C 0.00854 0.67662 0.17452 0.0
C6722 C 0.01454 0.67893 0.18472 0.0
C6723 C 0.02005 0.68947 0.18622 0.0
C6724 C 0.01951 0.69781 0.17764 0.0
C6725 C 0.01342 0.69564 0.16755 0.0
C6726 C 0.00792 0.6851 0.16599 0.0
C6727 C 0.95625 0.65299 0.18655 0.0
C6728 C 0.94994 0.66131 0.18055 0.0
C6729 C 0.96734 0.65014 0.18303 0.0
C6730 C 0.97222 0.65548 0.17341 0.0
C6731 C 0.96554 0.66303 0.16686 0.0
C6732 C 0.95449 0.66594 0.1704 0.0
C6733 C 0.98478 0.65489 0.17157 0.0
C6734 C 0.99086 0.66525 0.17199 0.0
C6735 C 0.99086 0.64439 0.17118 0.0
C6736 C 0.98484 0.63324 0.17002 0.0
C6737 C 0.97656 0.63163 0.16139 0.0
C6738 C 0.97089 0.62113 0.16032 0.0
C6739 C 0.97344 0.61213 0.16781 0.0
C6740 C 0.98169 0.61362 0.17636 0.0
C6741 C 0.98739 0.62411 0.17747 0.0
H6742 H 0.96904 0.60401 0.16697 0.0
H6743 H 0.02378 0.70596 0.17882 0.0
H6744 H 0.34411 0.95344 0.79626 0.0
H6745 H 0.34943 0.9727 0.80236 0.0
H6746 H 0.32993 0.96833 0.8335 0.0
H6747 H 0.32431 0.94914 0.82728 0.0
H6748 H 0.32231 0.98565 0.82197 0.0
H6749 H 0.35925 0.97428 0.83415 0.0
H6750 H 0.37798 0.96456 0.83328 0.0
H6751 H 0.38717 0.98445 0.8037 0.0
H6752 H 0.36843 0.99419 0.80428 0.0
H6753 H 0.32544 0.04463 0.82692 0.0
H6754 H 0.33089 0.02536 0.8331 0.0
H6755 H 0.3484 0.01999 0.80096 0.0
H6756 H 0.34333 0.03938 0.79491 0.0
H6757 H 0.35849 0.00769 0.81824 0.0
H6758 H 0.32002 0.01419 0.80319 0.0
H6759 H 0.30104 0.02354 0.80301 0.0
H6760 H 0.29482 0.01195 0.8374 0.0
H6761 H 0.31384 0.00266 0.83781 0.0
C6762 C 0.34123 0.95645 0.80456 0.0
C6763 C 0.33361 0.94989 0.81119 0.0
C6764 C 0.34437 0.96745 0.8081 0.0
C6765 C 0.34008 0.97198 0.8184 0.0
C6766 C 0.33332 0.96501 0.82551 0.0
C6767 C 0.33009 0.95406 0.82193 0.0
C6768 C 0.34071 0.9845 0.82051 0.0
C6769 C 0.33029 0.99042 0.82155 0.0
C6770 C 0.35107 0.99077 0.81964 0.0
C6771 C 0.36238 0.98494 0.81923 0.0
C6772 C 0.36522 0.97653 0.8274 0.0
C6773 C 0.37586 0.97102 0.82697 0.0
C6774 C 0.38376 0.97388 0.81843 0.0
C6775 C 0.38105 0.98226 0.81032 0.0
C6776 C 0.37042 0.98779 0.81071 0.0
C6777 C 0.33073 0.03946 0.82131 0.0
C6778 C 0.33375 0.04338 0.81033 0.0
C6779 C 0.33387 0.02847 0.82487 0.0
C6780 C 0.33981 0.02117 0.81737 0.0
C6781 C 0.34378 0.02548 0.80686 0.0
C6782 C 0.34081 0.03654 0.80338 0.0
C6783 C 0.34011 0.00866 0.81947 0.0
C6784 C 0.35062 0.00281 0.81911 0.0
C6785 C 0.32983 0.00236 0.82086 0.0
C6786 C 0.31838 0.00787 0.82058 0.0
C6787 C 0.31462 0.01371 0.81073 0.0
C6788 C 0.30387 0.01899 0.81058 0.0
C6789 C 0.29675 0.01838 0.8202 0.0
C6790 C 0.30036 0.01245 0.82997 0.0
C6791 C 0.31112 0.00717 0.83016 0.0
H6792 H 0.28842 0.02247 0.82007 0.0
H6793 H 0.39199 0.9696 0.81811 0.0
H6794 H 0.04603 0.33969 0.82349 0.0
H6795 H 0.02637 0.34529 0.82841 0.0
H6796 H 0.01703 0.34313 0.79261 0.0
H6797 H 0.03677 0.33871 0.78769 0.0
H6798 H 0.00378 0.35708 0.80098 0.0
H6799 H 0.01596 0.31904 0.81397 0.0
H6800 H 0.02768 0.30561 0.82538 0.0
H6801 H 0.01698 0.32233 0.85639 0.0
H6802 H 0.00527 0.33592 0.84513 0.0
H6803 H 0.95708 0.31227 0.81048 0.0
H6804 H 0.9763 0.31933 0.81398 0.0
H6805 H 0.9636 0.35414 0.81428 0.0
H6806 H 0.94429 0.34701 0.80985 0.0
H6807 H 0.98735 0.32948 0.82881 0.0
H6808 H 0.98442 0.37226 0.80521 0.0
H6809 H 0.97284 0.38197 0.79038 0.0
H6810 H 0.96522 0.34948 0.77482 0.0
H6811 H 0.97684 0.33961 0.78949 0.0
C6812 C 0.0398 0.34081 0.81669 0.0
C6813 C 0.04281 0.33868 0.80524 0.0
C6814 C 0.02856 0.3439 0.8195 0.0
C6815 C 0.02005 0.34423 0.81095 0.0
C6816 C 0.02334 0.34293 0.79942 0.0
C6817 C 0.03465 0.34034 0.79659 0.0
C6818 C 0.00762 0.34438 0.81386 0.0
C6819 C 0.00021 0.35112 0.80716 0.0
C6820 C 0.00284 0.33668 0.82196 0.0
C6821 C 0.0099 0.32857 0.82872 0.0
C6822 C 0.01617 0.31987 0.82322 0.0
C6823 C 0.0228 0.31224 0.82965 0.0
C6824 C 0.02311 0.31314 0.84159 0.0
C6825 C 0.01676 0.32166 0.84713 0.0
C6826 C 0.01013 0.32934 0.84074 0.0
C6827 C 0.95835 0.32143 0.81138 0.0
C6828 C 0.94925 0.32911 0.80977 0.0
C6829 C 0.96936 0.32549 0.81346 0.0
C6830 C 0.97151 0.33731 0.81427 0.0
C6831 C 0.96225 0.345 0.81341 0.0
C6832 C 0.95122 0.34093 0.81095 0.0
C6833 C 0.98359 0.34131 0.81512 0.0
C6834 C 0.99092 0.33562 0.82279 0.0
C6835 C 0.98831 0.34938 0.80738 0.0
C6836 C 0.98133 0.35521 0.79853 0.0
C6837 C 0.98026 0.36721 0.79862 0.0
C6838 C 0.9737 0.37273 0.79024 0.0
C6839 C 0.96825 0.36634 0.78169 0.0
C6840 C 0.9694 0.35442 0.78147 0.0
C6841 C 0.97596 0.34886 0.78981 0.0
H6842 H 0.96317 0.37063 0.77523 0.0
H6843 H 0.02824 0.30722 0.84656 0.0
H6844 H 0.64469 0.0444 0.80142 0.0
H6845 H 0.63761 0.02515 0.80586 0.0
H6846 H 0.66765 0.01892 0.82656 0.0
H6847 H 0.67456 0.03814 0.82243 0.0
H6848 H 0.64823 0.00702 0.79874 0.0
H6849 H 0.66437 -0.00183 0.84536 0.0
H6850 H 0.66486 0.00808 0.864 0.0
H6851 H 0.63622 0.02889 0.85393 0.0
H6852 H 0.63543 0.01899 0.83528 0.0
H6853 H 0.67507 0.95415 0.82236 0.0
H6854 H 0.66821 0.97348 0.82625 0.0
H6855 H 0.63754 0.96667 0.80673 0.0
H6856 H 0.64455 0.94736 0.80245 0.0
H6857 H 0.65048 0.98509 0.83511 0.0
H6858 H 0.63226 0.98976 0.79002 0.0
H6859 H 0.63322 0.98046 0.77102 0.0
H6860 H 0.66761 0.96933 0.77801 0.0
H6861 H 0.66688 0.97867 0.79698 0.0
C6862 C 0.64961 0.03902 0.80717 0.0
C6863 C 0.66025 0.04271 0.81147 0.0
C6864 C 0.64555 0.02804 0.80972 0.0
C6865 C 0.65204 0.0206 0.8166 0.0
C6866 C 0.66233 0.02456 0.82144 0.0
C6867 C 0.66635 0.03553 0.81896 0.0
C6868 C 0.64925 0.00821 0.81716 0.0
C6869 C 0.64831 0.00227 0.80675 0.0
C6870 C 0.64958 0.00197 0.82757 0.0
C6871 C 0.64987 0.00784 0.83888 0.0
C6872 C 0.65811 0.00479 0.84714 0.0
C6873 C 0.65846 0.01043 0.85771 0.0
C6874 C 0.65059 0.01912 0.86015 0.0
C6875 C 0.64233 0.02217 0.85202 0.0
C6876 C 0.64194 0.01656 0.84144 0.0
C6877 C 0.66675 0.95666 0.81909 0.0
C6878 C 0.66047 0.94934 0.81188 0.0
C6879 C 0.6628 0.96771 0.82139 0.0
C6880 C 0.65247 0.97159 0.81659 0.0
C6881 C 0.64563 0.9639 0.81034 0.0
C6882 C 0.64965 0.95288 0.80791 0.0
C6883 C 0.64993 0.98404 0.81669 0.0
C6884 C 0.64991 0.98993 0.82719 0.0
C6885 C 0.64885 0.9903 0.80636 0.0
C6886 C 0.64944 0.98476 0.79495 0.0
C6887 C 0.64002 0.98533 0.78747 0.0
C6888 C 0.64053 0.98006 0.77672 0.0
C6889 C 0.65045 0.97426 0.77333 0.0
C6890 C 0.65991 0.97378 0.78066 0.0
C6891 C 0.65946 0.97905 0.79141 0.0
H6892 H 0.65082 0.97018 0.76501 0.0
H6893 H 0.65088 0.02348 0.86833 0.0
H6894 H 0.94838 0.66774 0.82679 0.0
H6895 H 0.96792 0.66306 0.83274 0.0
H6896 H 0.97297 0.64412 0.80138 0.0
H6897 H 0.95336 0.64845 0.79555 0.0
H6898 H 0.98591 0.63517 0.81864 0.0
H6899 H 0.97808 0.67275 0.80211 0.0
H6900 H 0.96829 0.69149 0.80133 0.0
H6901 H 0.98068 0.69957 0.83505 0.0
H6902 H 0.99043 0.6808 0.83607 0.0
H6903 H 0.04028 0.64909 0.79598 0.0
H6904 H 0.02077 0.64428 0.80181 0.0
H6905 H 0.02462 0.66513 0.83213 0.0
H6906 H 0.04402 0.67024 0.82616 0.0
H6907 H 0.00719 0.67196 0.82023 0.0
H6908 H 0.0195 0.63567 0.83383 0.0
H6909 H 0.02965 0.61714 0.83341 0.0
H6910 H 0.0096 0.60658 0.8044 0.0
H6911 H -0.00057 0.62511 0.80454 0.0
C6912 C 0.95354 0.66229 0.82133 0.0
C6913 C 0.94945 0.65868 0.81059 0.0
C6914 C 0.96469 0.6596 0.82475 0.0
C6915 C 0.97197 0.65348 0.81737 0.0
C6916 C 0.96751 0.64889 0.80718 0.0
C6917 C 0.95632 0.65145 0.80383 0.0
C6918 C 0.98454 0.65357 0.81914 0.0
C6919 C 0.99062 0.64318 0.81904 0.0
C6920 C 0.99063 0.66404 0.81987 0.0
C6921 C 0.98485 0.67534 0.81923 0.0
C6922 C 0.97865 0.6785 0.80938 0.0
C6923 C 0.97312 0.68912 0.8089 0.0
C6924 C 0.97383 0.6967 0.81815 0.0
C6925 C 0.98011 0.69368 0.8279 0.0
C6926 C 0.98564 0.68305 0.82844 0.0
C6927 C 0.03707 0.65241 0.80403 0.0
C6928 C 0.04359 0.66019 0.81052 0.0
C6929 C 0.02594 0.64958 0.80742 0.0
C6930 C 0.02123 0.65432 0.81743 0.0
C6931 C 0.02807 0.66139 0.82437 0.0
C6932 C 0.03914 0.66432 0.82093 0.0
C6933 C 0.00872 0.65355 0.81956 0.0
C6934 C 0.00259 0.66387 0.82026 0.0
C6935 C 0.00267 0.64302 0.81928 0.0
C6936 C 0.00873 0.63183 0.81917 0.0
C6937 C 0.0173 0.62943 0.82731 0.0
C6938 C 0.02305 0.61892 0.82713 0.0
C6939 C 0.02028 0.6107 0.81888 0.0
C6940 C 0.01173 0.61296 0.8108 0.0
C6941 C 0.00596 0.62346 0.81094 0.0
H6942 H 0.02474 0.60256 0.81875 0.0
H6943 H 0.96954 0.70492 0.81776 0.0
H6944 H 0.19334 0.34339 0.04015 0.0
H6945 H 0.1871 0.34741 0.02061 0.0
H6946 H 0.1591 0.32355 0.02454 0.0
H6947 H 0.16544 0.31932 0.04404 0.0
H6948 H 0.1725 0.31755 0.00757 0.0
H6949 H 0.15401 0.35201 0.01834 0.0
H6950 H 0.15156 0.37071 0.02787 0.0
H6951 H 0.17953 0.38455 0.00836 0.0
H6952 H 0.18227 0.36589 -0.00118 0.0
H6953 H 0.16548 0.31981 0.94861 0.0
H6954 H 0.15939 0.32419 0.96817 0.0
H6955 H 0.18894 0.34599 0.97256 0.0
H6956 H 0.19496 0.34185 0.95291 0.0
H6957 H 0.17017 0.35366 0.9852 0.0
H6958 H 0.19132 0.31833 0.97867 0.0
H6959 H 0.19467 0.2996 0.96943 0.0
H6960 H 0.16214 0.28752 0.98174 0.0
H6961 H 0.15854 0.30626 0.99091 0.0
C6962 C 0.18566 0.33925 0.03698 0.0
C6963 C 0.18001 0.33088 0.04354 0.0
C6964 C 0.18204 0.34163 0.02582 0.0
C6965 C 0.17264 0.33577 0.0211 0.0
C6966 C 0.16639 0.32815 0.02801 0.0
C6967 C 0.17004 0.32572 0.03914 0.0
C6968 C 0.17078 0.33594 0.00853 0.0
C6969 C 0.17161 0.32544 0.00272 0.0
C6970 C 0.16996 0.34624 0.00218 0.0
C6971 C 0.16838 0.35751 0.0079 0.0
C6972 C 0.1597 0.35901 0.01614 0.0
C6973 C 0.15825 0.36961 0.02154 0.0
C6974 C 0.1654 0.37881 0.01874 0.0
C6975 C 0.174 0.37742 0.01052 0.0
C6976 C 0.17549 0.36684 0.0051 0.0
C6977 C 0.17053 0.32577 0.95364 0.0
C6978 C 0.18083 0.3303 0.94934 0.0
C6979 C 0.16701 0.32829 0.96479 0.0
C6980 C 0.17384 0.33523 0.97185 0.0
C6981 C 0.18356 0.3406 0.96723 0.0
C6982 C 0.18703 0.33817 0.95603 0.0
C6983 C 0.17203 0.33531 0.9844 0.0
C6984 C 0.17064 0.3458 0.99015 0.0
C6985 C 0.17242 0.32501 0.99078 0.0
C6986 C 0.1746 0.31373 0.98534 0.0
C6987 C 0.18485 0.3117 0.97933 0.0
C6988 C 0.1868 0.30109 0.97411 0.0
C6989 C 0.17861 0.29239 0.97497 0.0
C6990 C 0.16846 0.29428 0.98106 0.0
C6991 C 0.16647 0.30489 0.98627 0.0
H6992 H 0.18013 0.28417 0.97093 0.0
H6993 H 0.16426 0.38701 0.02292 0.0
H6994 H 0.19823 0.64984 0.95271 0.0
H6995 H 0.19227 0.64477 0.97208 0.0
H6996 H 0.16074 0.66358 0.96739 0.0
H6997 H 0.16686 0.66901 0.94812 0.0
H6998 H 0.17135 0.67112 0.98511 0.0
H6999 H 0.16108 0.63381 0.97273 0.0
H7000 H 0.1632 0.61537 0.96264 0.0
H7001 H 0.19265 0.60728 0.98319 0.0
H7002 H 0.19081 0.62575 0.9933 0.0
H7003 H 0.16581 0.66671 0.04416 0.0
H7004 H 0.15994 0.66176 0.02464 0.0
H7005 H 0.19227 0.64459 0.01927 0.0
H7006 H 0.19797 0.64909 0.03887 0.0
H7007 H 0.17588 0.63468 0.00656 0.0
H7008 H 0.18915 0.67372 0.01416 0.0
H7009 H 0.1882 0.69251 0.02384 0.0
H7010 H 0.15385 0.69733 0.01149 0.0
H7011 H 0.15457 0.67849 0.00186 0.0
C7012 C 0.1899 0.65265 0.9557 0.0
C7013 C 0.18309 0.65997 0.94898 0.0
C7014 C 0.18644 0.64966 0.96676 0.0
C7015 C 0.17601 0.65375 0.9712 0.0
C7016 C 0.16882 0.66034 0.96415 0.0
C7017 C 0.17234 0.66346 0.95316 0.0
C7018 C 0.17364 0.65283 0.98366 0.0
C7019 C 0.17197 0.66307 0.98974 0.0
C7020 C 0.17471 0.64238 0.98976 0.0
C7021 C 0.17582 0.63121 0.98376 0.0
C7022 C 0.16805 0.62814 0.97506 0.0
C7023 C 0.1692 0.61767 0.96934 0.0
C7024 C 0.17806 0.61016 0.97227 0.0
C7025 C 0.18578 0.6131 0.98094 0.0
C7026 C 0.18468 0.62356 0.98669 0.0
C7027 C 0.17152 0.66159 0.03891 0.0
C7028 C 0.18244 0.65849 0.04292 0.0
C7029 C 0.16816 0.65877 0.02777 0.0
C7030 C 0.1758 0.65308 0.02041 0.0
C7031 C 0.18625 0.64903 0.02478 0.0
C7032 C 0.18953 0.65167 0.03598 0.0
C7033 C 0.17388 0.65298 0.00785 0.0
C7034 C 0.17483 0.64261 0.00182 0.0
C7035 C 0.17225 0.66332 0.00171 0.0
C7036 C 0.17186 0.67466 0.00742 0.0
C7037 C 0.18138 0.67877 0.01357 0.0
C7038 C 0.18089 0.68942 0.01904 0.0
C7039 C 0.17096 0.69609 0.01831 0.0
C7040 C 0.16152 0.69214 0.01208 0.0
C7041 C 0.16196 0.68148 0.00661 0.0
H7042 H 0.17059 0.70434 0.02255 0.0
H7043 H 0.17894 0.60206 0.96783 0.0
H7044 H 0.34831 0.19811 0.04468 0.0
H7045 H 0.35483 0.19531 0.02496 0.0
H7046 H 0.32872 0.16962 0.01989 0.0
H7047 H 0.32223 0.17226 0.03961 0.0
H7048 H 0.34845 0.165 0.00726 0.0
H7049 H 0.32223 0.19645 0.01443 0.0
H7050 H 0.31599 0.21423 0.02403 0.0
H7051 H 0.34617 0.23153 0.01197 0.0
H7052 H 0.35267 0.21378 0.00243 0.0
H7053 H 0.32348 0.17231 0.95272 0.0
H7054 H 0.32998 0.16951 0.97238 0.0
H7055 H 0.35481 0.1966 0.96812 0.0
H7056 H 0.34826 0.19953 0.94842 0.0
H7057 H 0.34058 0.20071 0.98552 0.0
H7058 H 0.36371 0.16932 0.97397 0.0
H7059 H 0.36851 0.15128 0.96406 0.0
H7060 H 0.34293 0.13348 0.98366 0.0
H7061 H 0.33785 0.15144 0.99357 0.0
C7062 C 0.34416 0.19164 0.03947 0.0
C7063 C 0.3346 0.18557 0.04361 0.0
C7064 C 0.34791 0.19004 0.02822 0.0
C7065 C 0.34213 0.1824 0.02094 0.0
C7066 C 0.33329 0.17557 0.02538 0.0
C7067 C 0.32954 0.17715 0.03663 0.0
C7068 C 0.34392 0.18285 0.00839 0.0
C7069 C 0.34678 0.17278 0.00245 0.0
C7070 C 0.34191 0.19308 0.00219 0.0
C7071 C 0.33801 0.20377 0.00786 0.0
C7072 C 0.32758 0.20403 0.01391 0.0
C7073 C 0.32399 0.2141 0.01932 0.0
C7074 C 0.3307 0.224 0.01864 0.0
C7075 C 0.341 0.22385 0.01252 0.0
C7076 C 0.34464 0.21379 0.00711 0.0
C7077 C 0.33052 0.17749 0.95586 0.0
C7078 C 0.33525 0.18625 0.94908 0.0
C7079 C 0.3343 0.17581 0.96709 0.0
C7080 C 0.34291 0.18283 0.97171 0.0
C7081 C 0.34818 0.19108 0.9647 0.0
C7082 C 0.34441 0.19274 0.95345 0.0
C7083 C 0.34496 0.1828 0.98424 0.0
C7084 C 0.34268 0.19297 0.99024 0.0
C7085 C 0.34735 0.17262 0.99041 0.0
C7086 C 0.35036 0.16177 0.98448 0.0
C7087 C 0.35905 0.16158 0.97611 0.0
C7088 C 0.36183 0.15136 0.9705 0.0
C7089 C 0.35602 0.14125 0.97322 0.0
C7090 C 0.34743 0.14132 0.98156 0.0
C7091 C 0.34461 0.15152 0.9872 0.0
H7092 H 0.35819 0.13334 0.96887 0.0
H7093 H 0.32791 0.23179 0.02284 0.0
H7094 H 0.79706 0.34467 0.95505 0.0
H7095 H 0.80329 0.34956 0.97442 0.0
H7096 H 0.83373 0.32902 0.96988 0.0
H7097 H 0.82741 0.32388 0.9506 0.0
H7098 H 0.82157 0.32159 0.98708 0.0
H7099 H 0.8356 0.35801 0.97594 0.0
H7100 H 0.83554 0.37683 0.96635 0.0
H7101 H 0.80658 0.38725 0.98654 0.0
H7102 H 0.80635 0.36843 0.99614 0.0
H7103 H 0.82786 0.32367 0.04576 0.0
H7104 H 0.83394 0.32931 0.02652 0.0
H7105 H 0.8025 0.34826 0.02208 0.0
H7106 H 0.79653 0.34298 0.04145 0.0
H7107 H 0.82007 0.35772 0.00947 0.0
H7108 H 0.80304 0.32015 0.0159 0.0
H7109 H 0.80188 0.30114 0.02512 0.0
H7110 H 0.83564 0.29298 0.0129 0.0
H7111 H 0.83704 0.31202 0.00374 0.0
C7112 C 0.80524 0.34146 0.95806 0.0
C7113 C 0.81164 0.33371 0.95143 0.0
C7114 C 0.80885 0.34435 0.96911 0.0
C7115 C 0.81899 0.33964 0.97361 0.0
C7116 C 0.82588 0.33272 0.96658 0.0
C7117 C 0.82223 0.32976 0.95559 0.0
C7118 C 0.82111 0.34005 0.98612 0.0
C7119 C 0.82163 0.32954 0.99192 0.0
C7120 C 0.82084 0.35039 0.99247 0.0
C7121 C 0.82093 0.36176 0.98673 0.0
C7122 C 0.82916 0.36427 0.97828 0.0
C7123 C 0.82919 0.37496 0.97285 0.0
C7124 C 0.82106 0.38323 0.97583 0.0
C7125 C 0.81289 0.38084 0.98425 0.0
C7126 C 0.81282 0.37016 0.98971 0.0
C7127 C 0.8224 0.32932 0.04081 0.0
C7128 C 0.8116 0.33267 0.04496 0.0
C7129 C 0.82591 0.33257 0.02985 0.0
C7130 C 0.81854 0.33897 0.0228 0.0
C7131 C 0.80829 0.34329 0.02738 0.0
C7132 C 0.80486 0.3402 0.03842 0.0
C7133 C 0.82037 0.33929 0.01026 0.0
C7134 C 0.82045 0.34986 0.00451 0.0
C7135 C 0.82107 0.32901 0.00386 0.0
C7136 C 0.8202 0.31754 0.00928 0.0
C7137 C 0.81024 0.31432 0.01525 0.0
C7138 C 0.80954 0.30355 0.02045 0.0
C7139 C 0.8187 0.29587 0.01963 0.0
C7140 C 0.82857 0.29895 0.01356 0.0
C7141 C 0.82932 0.30972 0.00837 0.0
H7142 H 0.81814 0.28753 0.02366 0.0
H7143 H 0.82109 0.39149 0.97161 0.0
H7144 H 0.67125 0.81918 0.04113 0.0
H7145 H 0.66401 0.82174 0.02172 0.0
H7146 H 0.63895 0.79513 0.02744 0.0
H7147 H 0.64629 0.79241 0.0469 0.0
H7148 H 0.65215 0.79043 0.00962 0.0
H7149 H 0.63037 0.8227 0.02121 0.0
H7150 H 0.62638 0.84104 0.03091 0.0
H7151 H 0.65189 0.85774 0.01029 0.0
H7152 H 0.65616 0.83947 0.00057 0.0
H7153 H 0.64452 0.79272 0.95018 0.0
H7154 H 0.63805 0.79553 0.96994 0.0
H7155 H 0.66443 0.82095 0.97501 0.0
H7156 H 0.67084 0.81832 0.95529 0.0
H7157 H 0.64501 0.82601 0.98744 0.0
H7158 H 0.67025 0.79358 0.98059 0.0
H7159 H 0.67585 0.77543 0.9713 0.0
H7160 H 0.64511 0.7594 0.98369 0.0
H7161 H 0.63926 0.77753 0.99293 0.0
C7162 C 0.66401 0.81407 0.03837 0.0
C7163 C 0.65945 0.80548 0.04548 0.0
C7164 C 0.6598 0.81562 0.02729 0.0
C7165 C 0.6509 0.80866 0.02313 0.0
C7166 C 0.6458 0.80061 0.03049 0.0
C7167 C 0.65001 0.79906 0.0416 0.0
C7168 C 0.64839 0.80849 0.01068 0.0
C7169 C 0.6502 0.79815 0.00481 0.0
C7170 C 0.64616 0.81863 0.00438 0.0
C7171 C 0.64361 0.82968 0.01018 0.0
C7172 C 0.63519 0.83026 0.01879 0.0
C7173 C 0.63286 0.84066 0.02429 0.0
C7174 C 0.63888 0.85055 0.02123 0.0
C7175 C 0.64723 0.85007 0.01265 0.0
C7176 C 0.64959 0.8397 0.00713 0.0
C7177 C 0.64875 0.79912 0.95542 0.0
C7178 C 0.65833 0.80515 0.95127 0.0
C7179 C 0.64503 0.80072 0.96669 0.0
C7180 C 0.65089 0.80831 0.97397 0.0
C7181 C 0.6598 0.81505 0.96953 0.0
C7182 C 0.66351 0.81347 0.95827 0.0
C7183 C 0.64901 0.80802 0.98652 0.0
C7184 C 0.6465 0.81825 0.99234 0.0
C7185 C 0.65075 0.79782 0.99284 0.0
C7186 C 0.65425 0.78693 0.98731 0.0
C7187 C 0.66465 0.78621 0.98125 0.0
C7188 C 0.66787 0.77592 0.97601 0.0
C7189 C 0.66082 0.76628 0.97687 0.0
C7190 C 0.65054 0.76689 0.983 0.0
C7191 C 0.64727 0.77716 0.98824 0.0
H7192 H 0.66333 0.75832 0.97281 0.0
H7193 H 0.63708 0.85859 0.0255 0.0
H7194 H 0.8285 0.66888 0.04456 0.0
H7195 H 0.83532 0.66449 0.02526 0.0
H7196 H 0.8059 0.6428 0.0197 0.0
H7197 H 0.7991 0.64699 0.03908 0.0
H7198 H 0.82556 0.63571 0.00705 0.0
H7199 H 0.80276 0.66993 0.01445 0.0
H7200 H 0.79857 0.68809 0.02444 0.0
H7201 H 0.83091 0.70181 0.01344 0.0
H7202 H 0.83536 0.68363 0.00353 0.0
H7203 H 0.80169 0.64776 0.95269 0.0
H7204 H 0.80834 0.64282 0.9719 0.0
H7205 H 0.83564 0.6676 0.96892 0.0
H7206 H 0.82892 0.67273 0.94978 0.0
H7207 H 0.82185 0.67253 0.98606 0.0
H7208 H 0.8418 0.63941 0.97403 0.0
H7209 H 0.84517 0.62124 0.9638 0.0
H7210 H 0.81786 0.60531 0.98266 0.0
H7211 H 0.81419 0.62344 0.99289 0.0
C7212 C 0.82366 0.66289 0.03936 0.0
C7213 C 0.81311 0.6585 0.04319 0.0
C7214 C 0.82761 0.66035 0.02837 0.0
C7215 C 0.821 0.6535 0.02102 0.0
C7216 C 0.81112 0.64811 0.02526 0.0
C7217 C 0.8072 0.65058 0.0363 0.0
C7218 C 0.82295 0.65392 0.00851 0.0
C7219 C 0.8248 0.64372 0.00239 0.0
C7220 C 0.82216 0.66444 0.00253 0.0
C7221 C 0.81946 0.67539 0.00839 0.0
C7222 C 0.80901 0.67679 0.01424 0.0
C7223 C 0.80658 0.68708 0.01988 0.0
C7224 C 0.81449 0.69608 0.01961 0.0
C7225 C 0.82482 0.69482 0.01367 0.0
C7226 C 0.8273 0.68453 0.00804 0.0
C7227 C 0.80932 0.65191 0.95598 0.0
C7228 C 0.81464 0.66081 0.94985 0.0
C7229 C 0.81318 0.649 0.96694 0.0
C7230 C 0.82247 0.65487 0.97186 0.0
C7231 C 0.82844 0.66299 0.96529 0.0
C7232 C 0.82455 0.66594 0.95437 0.0
C7233 C 0.82434 0.65428 0.9844 0.0
C7234 C 0.82305 0.6645 0.9906 0.0
C7235 C 0.82556 0.64377 0.99035 0.0
C7236 C 0.82768 0.63283 0.9842 0.0
C7237 C 0.83644 0.63207 0.97594 0.0
C7238 C 0.83842 0.62176 0.97015 0.0
C7239 C 0.83172 0.61213 0.97257 0.0
C7240 C 0.82304 0.61278 0.9808 0.0
C7241 C 0.82102 0.62307 0.98661 0.0
H7242 H 0.83327 0.60416 0.96808 0.0
H7243 H 0.81259 0.70405 0.02398 0.0
H7244 H 0.31727 0.82092 0.03813 0.0
H7245 H 0.3245 0.82466 0.01893 0.0
H7246 H 0.35447 0.80417 0.02608 0.0
H7247 H 0.34707 0.80008 0.0453 0.0
H7248 H 0.34271 0.83322 0.00789 0.0
H7249 H 0.35977 0.78777 0.00268 0.0
H7250 H 0.35818 0.76864 0.01163 0.0
H7251 H 0.32381 0.77632 0.02235 0.0
H7252 H 0.32516 0.79542 0.01336 0.0
H7253 H 0.3483 0.80023 0.94818 0.0
H7254 H 0.35531 0.80433 0.96752 0.0
H7255 H 0.32581 0.82583 0.9736 0.0
H7256 H 0.31897 0.82205 0.95428 0.0
H7257 H 0.34424 0.79721 0.98533 0.0
H7258 H 0.32931 0.84412 0.99483 0.0
H7259 H 0.32954 0.86297 0.9853 0.0
H7260 H 0.35816 0.85245 0.96469 0.0
H7261 H 0.35823 0.83358 0.97421 0.0
C7262 C 0.32551 0.81737 0.03572 0.0
C7263 C 0.33149 0.81 0.04313 0.0
C7264 C 0.32968 0.81959 0.02475 0.0
C7265 C 0.33992 0.81453 0.021 0.0
C7266 C 0.34644 0.80801 0.02875 0.0
C7267 C 0.34221 0.80568 0.03971 0.0
C7268 C 0.34272 0.81478 0.00861 0.0
C7269 C 0.34313 0.82538 0.00291 0.0
C7270 C 0.3436 0.80454 0.00217 0.0
C7271 C 0.34263 0.79305 0.0075 0.0
C7272 C 0.35188 0.78535 0.00694 0.0
C7273 C 0.35102 0.77452 0.01201 0.0
C7274 C 0.34092 0.77129 0.0176 0.0
C7275 C 0.33164 0.77885 0.01807 0.0
C7276 C 0.33245 0.78968 0.01299 0.0
C7277 C 0.34349 0.80609 0.95354 0.0
C7278 C 0.33301 0.8107 0.94978 0.0
C7279 C 0.34752 0.80844 0.96458 0.0
C7280 C 0.34113 0.81542 0.97202 0.0
C7281 C 0.33104 0.82062 0.96798 0.0
C7282 C 0.32707 0.81834 0.95693 0.0
C7283 C 0.34375 0.81568 0.98446 0.0
C7284 C 0.34431 0.80513 0.99022 0.0
C7285 C 0.34363 0.82598 0.99089 0.0
C7286 C 0.34375 0.83739 0.98523 0.0
C7287 C 0.33572 0.84584 0.98834 0.0
C7288 C 0.33578 0.85653 0.98291 0.0
C7289 C 0.34385 0.8589 0.97439 0.0
C7290 C 0.35189 0.85059 0.97128 0.0
C7291 C 0.35188 0.83989 0.97668 0.0
H7292 H 0.34387 0.86718 0.97019 0.0
H7293 H 0.34027 0.76291 0.02153 0.0
H7294 H 0.64694 0.18116 0.94609 0.0
H7295 H 0.64121 0.1761 0.96574 0.0
H7296 H 0.67524 0.1847 0.97763 0.0
H7297 H 0.6811 0.18876 0.95812 0.0
H7298 H 0.66936 0.16775 0.98856 0.0
H7299 H 0.64908 0.2034 0.97881 0.0
H7300 H 0.63521 0.21488 0.96768 0.0
H7301 H 0.60834 0.19132 0.97652 0.0
H7302 H 0.62209 0.17966 0.98763 0.0
H7303 H 0.65324 0.20369 0.03973 0.0
H7304 H 0.64892 0.19879 0.01992 0.0
H7305 H 0.65441 0.16296 0.02751 0.0
H7306 H 0.65969 0.16802 0.0472 0.0
H7307 H 0.63637 0.18771 0.00643 0.0
H7308 H 0.66792 0.15005 0.00598 0.0
H7309 H 0.68422 0.14232 0.01707 0.0
H7310 H 0.6927 0.17625 0.02859 0.0
H7311 H 0.67653 0.18417 0.01748 0.0
C7312 C 0.65316 0.18182 0.95295 0.0
C7313 C 0.66445 0.18531 0.95065 0.0
C7314 C 0.64988 0.179 0.96417 0.0
C7315 C 0.65774 0.18012 0.97326 0.0
C7316 C 0.66901 0.18359 0.97083 0.0
C7317 C 0.67237 0.18598 0.95965 0.0
C7318 C 0.65443 0.1782 0.98544 0.0
C7319 C 0.66206 0.17203 0.99242 0.0
C7320 C 0.64484 0.18361 0.99056 0.0
C7321 C 0.63662 0.1906 0.9839 0.0
C7322 C 0.64022 0.20065 0.97832 0.0
C7323 C 0.63239 0.20719 0.97203 0.0
C7324 C 0.62091 0.20381 0.97136 0.0
C7325 C 0.61724 0.1939 0.97702 0.0
C7326 C 0.62504 0.18733 0.98331 0.0
C7327 C 0.65328 0.19475 0.03723 0.0
C7328 C 0.65703 0.18626 0.04487 0.0
C7329 C 0.65075 0.19192 0.0259 0.0
C7330 C 0.65166 0.18052 0.02209 0.0
C7331 C 0.65402 0.17186 0.03013 0.0
C7332 C 0.65697 0.17474 0.04138 0.0
C7333 C 0.65189 0.17817 0.00956 0.0
C7334 C 0.64353 0.18324 0.00252 0.0
C7335 C 0.6612 0.17233 0.00438 0.0
C7336 C 0.67093 0.16765 0.01106 0.0
C7337 C 0.67327 0.15584 0.01089 0.0
C7338 C 0.68248 0.15143 0.01716 0.0
C7339 C 0.68945 0.15878 0.02357 0.0
C7340 C 0.68727 0.17056 0.02367 0.0
C7341 C 0.67808 0.17501 0.01738 0.0
H7342 H 0.69657 0.15535 0.02844 0.0
H7343 H 0.61486 0.20888 0.96649 0.0
H7344 H 0.45449 0.67157 0.82084 0.0
H7345 H 0.47374 0.66749 0.82781 0.0
H7346 H 0.46849 0.69061 0.85622 0.0
H7347 H 0.44922 0.69489 0.84916 0.0
H7348 H 0.48638 0.69668 0.84398 0.0
H7349 H 0.47424 0.66193 0.86099 0.0
H7350 H 0.46418 0.64341 0.86244 0.0
H7351 H 0.48443 0.62999 0.83479 0.0
H7352 H 0.4945 0.64849 0.83304 0.0
H7353 H 0.54573 0.69304 0.84879 0.0
H7354 H 0.5264 0.68925 0.85601 0.0
H7355 H 0.51987 0.66724 0.82701 0.0
H7356 H 0.5392 0.67074 0.81991 0.0
H7357 H 0.50792 0.66005 0.8457 0.0
H7358 H 0.51477 0.69579 0.8251 0.0
H7359 H 0.52438 0.71439 0.82205 0.0
H7360 H 0.51329 0.72576 0.85527 0.0
H7361 H 0.50373 0.70715 0.85856 0.0
C7362 C 0.45731 0.67557 0.82873 0.0
C7363 C 0.45042 0.6837 0.83435 0.0
C7364 C 0.4683 0.67314 0.83279 0.0
C7365 C 0.47255 0.67871 0.84257 0.0
C7366 C 0.46536 0.68619 0.84866 0.0
C7367 C 0.45437 0.68865 0.8446 0.0
C7368 C 0.485 0.67828 0.8451 0.0
C7369 C 0.49105 0.68867 0.84477 0.0
C7370 C 0.49112 0.66783 0.84584 0.0
C7371 C 0.48511 0.65664 0.84686 0.0
C7372 C 0.4765 0.65506 0.85516 0.0
C7373 C 0.4708 0.64456 0.85605 0.0
C7374 C 0.47366 0.63553 0.84871 0.0
C7375 C 0.48224 0.63699 0.84048 0.0
C7376 C 0.48796 0.64748 0.83955 0.0
C7377 C 0.54028 0.68714 0.84413 0.0
C7378 C 0.54387 0.6824 0.83365 0.0
C7379 C 0.52926 0.68496 0.84828 0.0
C7380 C 0.52163 0.67816 0.84191 0.0
C7381 C 0.5256 0.67254 0.83204 0.0
C7382 C 0.53663 0.67463 0.82795 0.0
C7383 C 0.50916 0.6784 0.84427 0.0
C7384 C 0.50316 0.66803 0.84541 0.0
C7385 C 0.50301 0.68886 0.84412 0.0
C7386 C 0.50869 0.70005 0.84214 0.0
C7387 C 0.51446 0.70224 0.83178 0.0
C7388 C 0.51988 0.71277 0.83001 0.0
C7389 C 0.51948 0.72123 0.83848 0.0
C7390 C 0.51362 0.71918 0.84873 0.0
C7391 C 0.5082 0.70865 0.85055 0.0
H7392 H 0.52368 0.72939 0.83709 0.0
H7393 H 0.46923 0.6274 0.84941 0.0
H7394 H 0.32321 0.53905 0.81817 0.0
H7395 H 0.32698 0.51969 0.82512 0.0
H7396 H 0.30557 0.526 0.85461 0.0
H7397 H 0.30155 0.54535 0.84758 0.0
H7398 H 0.33466 0.50785 0.84404 0.0
H7399 H 0.28758 0.50334 0.85705 0.0
H7400 H 0.2689 0.51271 0.85367 0.0
H7401 H 0.2802 0.52361 0.82036 0.0
H7402 H 0.29887 0.51419 0.82351 0.0
H7403 H 0.29999 0.44915 0.84916 0.0
H7404 H 0.30436 0.46858 0.8557 0.0
H7405 H 0.32755 0.47294 0.82721 0.0
H7406 H 0.32339 0.45352 0.82077 0.0
H7407 H 0.29821 0.48597 0.8429 0.0
H7408 H 0.34632 0.49417 0.83167 0.0
H7409 H 0.36491 0.48433 0.83371 0.0
H7410 H 0.35171 0.46478 0.86197 0.0
H7411 H 0.33309 0.47462 0.86023 0.0
C7412 C 0.31951 0.53643 0.82628 0.0
C7413 C 0.31187 0.54362 0.8322 0.0
C7414 C 0.32175 0.52538 0.83028 0.0
C7415 C 0.31639 0.52136 0.84027 0.0
C7416 C 0.30967 0.52891 0.8468 0.0
C7417 C 0.30736 0.53995 0.84276 0.0
C7418 C 0.31629 0.5089 0.84265 0.0
C7419 C 0.32672 0.50302 0.84386 0.0
C7420 C 0.30589 0.50265 0.84264 0.0
C7421 C 0.29465 0.50821 0.84059 0.0
C7422 C 0.28605 0.50773 0.84901 0.0
C7423 C 0.27547 0.51304 0.84713 0.0
C7424 C 0.27338 0.51879 0.83683 0.0
C7425 C 0.28184 0.5192 0.82836 0.0
C7426 C 0.29242 0.51388 0.83019 0.0
C7427 C 0.30628 0.45413 0.84449 0.0
C7428 C 0.31121 0.44989 0.83435 0.0
C7429 C 0.30878 0.46522 0.84825 0.0
C7430 C 0.31628 0.47223 0.84195 0.0
C7431 C 0.32188 0.46766 0.83233 0.0
C7432 C 0.31941 0.45657 0.82859 0.0
C7433 C 0.31662 0.48476 0.84406 0.0
C7434 C 0.30619 0.49071 0.84356 0.0
C7435 C 0.32703 0.49098 0.84459 0.0
C7436 C 0.33827 0.48511 0.84577 0.0
C7437 C 0.3474 0.48783 0.83837 0.0
C7438 C 0.35794 0.48223 0.83946 0.0
C7439 C 0.35948 0.47392 0.84795 0.0
C7440 C 0.35049 0.4712 0.85538 0.0
C7441 C 0.33993 0.47677 0.85433 0.0
H7442 H 0.36765 0.4696 0.84878 0.0
H7443 H 0.26519 0.52291 0.8354 0.0
H7444 H 0.54446 0.30293 0.8489 0.0
H7445 H 0.52532 0.3074 0.85627 0.0
H7446 H 0.51726 0.32484 0.82464 0.0
H7447 H 0.53641 0.32078 0.81743 0.0
H7448 H 0.50639 0.33489 0.84208 0.0
H7449 H 0.5124 0.29525 0.82851 0.0
H7450 H 0.52182 0.27632 0.82944 0.0
H7451 H 0.5116 0.27278 0.86464 0.0
H7452 H 0.50222 0.29176 0.86392 0.0
H7453 H 0.45442 0.32078 0.81764 0.0
H7454 H 0.47319 0.32555 0.82522 0.0
H7455 H 0.46597 0.30599 0.85581 0.0
H7456 H 0.4472 0.30079 0.848 0.0
H7457 H 0.4845 0.29876 0.84686 0.0
H7458 H 0.47216 0.33593 0.85673 0.0
H7459 H 0.46225 0.35447 0.8546 0.0
H7460 H 0.48366 0.36286 0.82586 0.0
H7461 H 0.49359 0.34431 0.82769 0.0
C7462 C 0.53868 0.30793 0.84363 0.0
C7463 C 0.54183 0.31131 0.8325 0.0
C7464 C 0.52776 0.3105 0.84786 0.0
C7465 C 0.51978 0.31625 0.84091 0.0
C7466 C 0.52326 0.32038 0.83016 0.0
C7467 C 0.53419 0.31796 0.826 0.0
C7468 C 0.50744 0.31656 0.84388 0.0
C7469 C 0.50155 0.32704 0.84323 0.0
C7470 C 0.50119 0.30635 0.84581 0.0
C7471 C 0.50675 0.29494 0.84621 0.0
C7472 C 0.51222 0.29044 0.83646 0.0
C7473 C 0.51754 0.27972 0.83695 0.0
C7474 C 0.51734 0.27337 0.84711 0.0
C7475 C 0.51178 0.27772 0.85679 0.0
C7476 C 0.50646 0.28846 0.85635 0.0
C7477 C 0.45669 0.31771 0.82611 0.0
C7478 C 0.44941 0.31026 0.83215 0.0
C7479 C 0.46742 0.32057 0.83051 0.0
C7480 C 0.47101 0.31623 0.84116 0.0
C7481 C 0.46339 0.30946 0.84759 0.0
C7482 C 0.45268 0.30648 0.84311 0.0
C7483 C 0.48328 0.31705 0.8444 0.0
C7484 C 0.48922 0.30675 0.84623 0.0
C7485 C 0.48951 0.32744 0.84347 0.0
C7486 C 0.48364 0.33869 0.84237 0.0
C7487 C 0.47473 0.3417 0.84992 0.0
C7488 C 0.4691 0.35222 0.84876 0.0
C7489 C 0.47232 0.35984 0.8401 0.0
C7490 C 0.48119 0.35696 0.83258 0.0
C7491 C 0.48684 0.34645 0.8337 0.0
H7492 H 0.46795 0.36797 0.83922 0.0
H7493 H 0.52146 0.26507 0.84747 0.0
H7494 H 0.66716 0.44943 0.82466 0.0
H7495 H 0.6616 0.46892 0.83001 0.0
H7496 H 0.69398 0.47345 0.84732 0.0
H7497 H 0.69943 0.45385 0.84233 0.0
H7498 H 0.67716 0.48575 0.85782 0.0
H7499 H 0.69128 0.47991 0.81895 0.0
H7500 H 0.69098 0.47105 0.79975 0.0
H7501 H 0.6567 0.48338 0.7944 0.0
H7502 H 0.65676 0.49219 0.81365 0.0
H7503 H 0.69815 0.54085 0.84488 0.0
H7504 H 0.69256 0.52127 0.84954 0.0
H7505 H 0.66112 0.52563 0.83052 0.0
H7506 H 0.66685 0.54515 0.82553 0.0
H7507 H 0.6727 0.5087 0.8223 0.0
H7508 H 0.66117 0.51896 0.85987 0.0
H7509 H 0.66245 0.52818 0.87884 0.0
H7510 H 0.69242 0.50831 0.88671 0.0
H7511 H 0.69143 0.49908 0.86772 0.0
C7512 C 0.67298 0.45449 0.82985 0.0
C7513 C 0.68382 0.45023 0.83289 0.0
C7514 C 0.66978 0.46561 0.83292 0.0
C7515 C 0.67749 0.4727 0.83884 0.0
C7516 C 0.68791 0.46813 0.84272 0.0
C7517 C 0.69105 0.45694 0.8398 0.0
C7518 C 0.67556 0.48524 0.83944 0.0
C7519 C 0.67615 0.49082 0.85009 0.0
C7520 C 0.67398 0.4918 0.82936 0.0
C7521 C 0.67397 0.48657 0.81777 0.0
C7522 C 0.68365 0.48066 0.8137 0.0
C7523 C 0.68353 0.47566 0.80281 0.0
C7524 C 0.67381 0.47662 0.79587 0.0
C7525 C 0.66421 0.48261 0.7998 0.0
C7526 C 0.66428 0.48761 0.81069 0.0
C7527 C 0.68988 0.53776 0.84198 0.0
C7528 C 0.68303 0.54444 0.83467 0.0
C7529 C 0.68664 0.52657 0.84473 0.0
C7530 C 0.67641 0.52195 0.84038 0.0
C7531 C 0.66907 0.529 0.83394 0.0
C7532 C 0.67237 0.54014 0.83108 0.0
C7533 C 0.67451 0.50938 0.8407 0.0
C7534 C 0.6733 0.50373 0.83014 0.0
C7535 C 0.67561 0.50284 0.85086 0.0
C7536 C 0.67625 0.50836 0.86232 0.0
C7537 C 0.66809 0.51661 0.8656 0.0
C7538 C 0.66875 0.52183 0.87637 0.0
C7539 C 0.67752 0.51884 0.88397 0.0
C7540 C 0.68563 0.51061 0.88082 0.0
C7541 C 0.68501 0.50536 0.87006 0.0
H7542 H 0.67802 0.52289 0.8923 0.0
H7543 H 0.67373 0.47274 0.78744 0.0
H7544 H 0.44756 0.29802 0.14552 0.0
H7545 H 0.46677 0.30187 0.13803 0.0
H7546 H 0.47345 0.32436 0.16662 0.0
H7547 H 0.45424 0.32075 0.17403 0.0
H7548 H 0.48455 0.33166 0.14718 0.0
H7549 H 0.47938 0.29622 0.16885 0.0
H7550 H 0.47046 0.2774 0.17255 0.0
H7551 H 0.48109 0.26564 0.13931 0.0
H7552 H 0.48996 0.28447 0.13538 0.0
H7553 H 0.53862 0.32313 0.17109 0.0
H7554 H 0.51923 0.32628 0.16414 0.0
H7555 H 0.52483 0.30173 0.13703 0.0
H7556 H 0.54425 0.29829 0.14418 0.0
H7557 H 0.50732 0.29581 0.14931 0.0
H7558 H 0.51793 0.33039 0.13106 0.0
H7559 H 0.52734 0.34917 0.12879 0.0
H7560 H 0.50725 0.36281 0.15645 0.0
H7561 H 0.49783 0.34407 0.15901 0.0
C7562 C 0.45302 0.30401 0.15006 0.0
C7563 C 0.44949 0.3089 0.16049 0.0
C7564 C 0.46397 0.30622 0.14575 0.0
C7565 C 0.47158 0.31325 0.15187 0.0
C7566 C 0.46771 0.31891 0.16176 0.0
C7567 C 0.45676 0.31675 0.16604 0.0
C7568 C 0.48397 0.31333 0.14917 0.0
C7569 C 0.48958 0.32385 0.14756 0.0
C7570 C 0.49045 0.30309 0.14939 0.0
C7571 C 0.48518 0.29177 0.15176 0.0
C7572 C 0.47974 0.28964 0.16231 0.0
C7573 C 0.47471 0.27898 0.16445 0.0
C7574 C 0.47517 0.27034 0.15615 0.0
C7575 C 0.48071 0.27235 0.14572 0.0
C7576 C 0.48574 0.28301 0.14353 0.0
C7577 C 0.53585 0.31861 0.16347 0.0
C7578 C 0.54288 0.31032 0.1583 0.0
C7579 C 0.52477 0.32052 0.15941 0.0
C7580 C 0.52057 0.31428 0.15001 0.0
C7581 C 0.5279 0.30664 0.14428 0.0
C7582 C 0.53899 0.30468 0.14839 0.0
C7583 C 0.50808 0.31421 0.14765 0.0
C7584 C 0.50238 0.30364 0.14842 0.0
C7585 C 0.50159 0.32444 0.14677 0.0
C7586 C 0.50718 0.33578 0.14524 0.0
C7587 C 0.51556 0.33737 0.13671 0.0
C7588 C 0.52089 0.34802 0.13536 0.0
C7589 C 0.5179 0.35718 0.14248 0.0
C7590 C 0.50955 0.35571 0.15094 0.0
C7591 C 0.50419 0.34508 0.15232 0.0
H7592 H 0.52205 0.36541 0.14143 0.0
H7593 H 0.47128 0.26209 0.15782 0.0
H7594 H 0.69357 0.44891 0.14498 0.0
H7595 H 0.68899 0.46832 0.13843 0.0
H7596 H 0.6692 0.47403 0.16915 0.0
H7597 H 0.67342 0.45461 0.17556 0.0
H7598 H 0.66005 0.48567 0.15151 0.0
H7599 H 0.6981 0.48013 0.16819 0.0
H7600 H 0.71729 0.47129 0.16907 0.0
H7601 H 0.72446 0.48303 0.13491 0.0
H7602 H 0.70523 0.49184 0.1338 0.0
H7603 H 0.67148 0.53925 0.17567 0.0
H7604 H 0.66747 0.52 0.16872 0.0
H7605 H 0.68821 0.52639 0.13874 0.0
H7606 H 0.69253 0.54564 0.14585 0.0
H7607 H 0.69578 0.50865 0.14968 0.0
H7608 H 0.65899 0.51953 0.13651 0.0
H7609 H 0.64002 0.52882 0.1371 0.0
H7610 H 0.63036 0.50776 0.1657 0.0
H7611 H 0.64932 0.49845 0.16541 0.0
C7612 C 0.68803 0.45422 0.1502 0.0
C7613 C 0.68404 0.45034 0.16089 0.0
C7614 C 0.6854 0.46529 0.14644 0.0
C7615 C 0.67894 0.47268 0.15341 0.0
C7616 C 0.67421 0.46848 0.16364 0.0
C7617 C 0.67671 0.45739 0.16733 0.0
C7618 C 0.67849 0.48516 0.15108 0.0
C7619 C 0.66783 0.49074 0.15103 0.0
C7620 C 0.68865 0.49173 0.15017 0.0
C7621 C 0.7002 0.4865 0.15086 0.0
C7622 C 0.70375 0.48076 0.16085 0.0
C7623 C 0.71463 0.47577 0.16139 0.0
C7624 C 0.72208 0.47656 0.15204 0.0
C7625 C 0.71867 0.48239 0.14214 0.0
C7626 C 0.70778 0.48739 0.14155 0.0
C7627 C 0.67494 0.53669 0.16745 0.0
C7628 C 0.68247 0.54388 0.1614 0.0
C7629 C 0.67255 0.52569 0.16341 0.0
C7630 C 0.67751 0.52174 0.15317 0.0
C7631 C 0.68429 0.52926 0.14666 0.0
C7632 C 0.68677 0.54024 0.15075 0.0
C7633 C 0.67731 0.50931 0.15049 0.0
C7634 C 0.68791 0.50368 0.14967 0.0
C7635 C 0.66709 0.50277 0.15075 0.0
C7636 C 0.65562 0.5083 0.15094 0.0
C7637 C 0.65285 0.51692 0.14297 0.0
C7638 C 0.64209 0.52218 0.14325 0.0
C7639 C 0.63399 0.51888 0.15143 0.0
C7640 C 0.63663 0.5103 0.15935 0.0
C7641 C 0.64738 0.505 0.15912 0.0
H7642 H 0.62566 0.52298 0.15164 0.0
H7643 H 0.7305 0.47269 0.15247 0.0
H7644 H 0.53822 0.67344 0.16813 0.0
H7645 H 0.51889 0.67087 0.16078 0.0
H7646 H 0.52532 0.69625 0.13463 0.0
H7647 H 0.54473 0.69904 0.14213 0.0
H7648 H 0.50748 0.70186 0.14705 0.0
H7649 H 0.51836 0.66815 0.12733 0.0
H7650 H 0.52778 0.64946 0.12438 0.0
H7651 H 0.50714 0.63462 0.151 0.0
H7652 H 0.49771 0.65325 0.15424 0.0
H7653 H 0.44765 0.69988 0.14252 0.0
H7654 H 0.46699 0.69659 0.13506 0.0
H7655 H 0.47337 0.67233 0.16224 0.0
H7656 H 0.45406 0.67539 0.1696 0.0
H7657 H 0.48468 0.66622 0.14272 0.0
H7658 H 0.47929 0.70045 0.16617 0.0
H7659 H 0.47041 0.71908 0.17081 0.0
H7660 H 0.48149 0.73262 0.13841 0.0
H7661 H 0.49032 0.714 0.13354 0.0
C7662 C 0.53564 0.67828 0.16064 0.0
C7663 C 0.54293 0.68657 0.15581 0.0
C7664 C 0.5246 0.67671 0.15635 0.0
C7665 C 0.52066 0.68332 0.1471 0.0
C7666 C 0.5282 0.69104 0.14176 0.0
C7667 C 0.53928 0.69263 0.14606 0.0
C7668 C 0.50822 0.68357 0.14449 0.0
C7669 C 0.50254 0.6941 0.14568 0.0
C7670 C 0.50174 0.67342 0.14298 0.0
C7671 C 0.50733 0.66214 0.14104 0.0
C7672 C 0.51587 0.66092 0.1326 0.0
C7673 C 0.52121 0.65033 0.13088 0.0
C7674 C 0.51806 0.64086 0.1375 0.0
C7675 C 0.50956 0.64196 0.14587 0.0
C7676 C 0.50419 0.65254 0.14763 0.0
C7677 C 0.45308 0.69363 0.14673 0.0
C7678 C 0.44943 0.68805 0.15678 0.0
C7679 C 0.46411 0.69175 0.14245 0.0
C7680 C 0.47166 0.68437 0.14822 0.0
C7681 C 0.46769 0.67808 0.15766 0.0
C7682 C 0.45666 0.6799 0.16191 0.0
C7683 C 0.48409 0.68443 0.14566 0.0
C7684 C 0.48971 0.67399 0.14358 0.0
C7685 C 0.49059 0.69463 0.1465 0.0
C7686 C 0.48531 0.70581 0.14942 0.0
C7687 C 0.47975 0.70738 0.16 0.0
C7688 C 0.47474 0.71793 0.16268 0.0
C7689 C 0.47535 0.72701 0.15489 0.0
C7690 C 0.481 0.72557 0.14442 0.0
C7691 C 0.486 0.71502 0.1417 0.0
H7692 H 0.47147 0.73518 0.15698 0.0
H7693 H 0.52221 0.63267 0.13616 0.0
H7694 H 0.32369 0.45266 0.17438 0.0
H7695 H 0.32798 0.47235 0.16867 0.0
H7696 H 0.30366 0.46966 0.14095 0.0
H7697 H 0.29925 0.45 0.14664 0.0
H7698 H 0.33378 0.48619 0.14906 0.0
H7699 H 0.28488 0.49133 0.14522 0.0
H7700 H 0.2672 0.48166 0.15173 0.0
H7701 H 0.28487 0.46897 0.18143 0.0
H7702 H 0.30256 0.47872 0.17519 0.0
H7703 H 0.29852 0.54431 0.14801 0.0
H7704 H 0.30269 0.5248 0.14167 0.0
H7705 H 0.32841 0.52165 0.16806 0.0
H7706 H 0.32431 0.54117 0.17444 0.0
H7707 H 0.29814 0.50797 0.1572 0.0
H7708 H 0.34726 0.49992 0.1602 0.0
H7709 H 0.3653 0.50981 0.15534 0.0
H7710 H 0.34786 0.52939 0.12951 0.0
H7711 H 0.32975 0.5195 0.13407 0.0
C7712 C 0.31951 0.45614 0.16686 0.0
C7713 C 0.31092 0.4499 0.16113 0.0
C7714 C 0.32205 0.46736 0.16355 0.0
C7715 C 0.316 0.47247 0.15451 0.0
C7716 C 0.30835 0.46585 0.14801 0.0
C7717 C 0.3058 0.45464 0.15131 0.0
C7718 C 0.31589 0.48509 0.15346 0.0
C7719 C 0.32602 0.49101 0.15081 0.0
C7720 C 0.30573 0.4913 0.15571 0.0
C7721 C 0.29506 0.4856 0.15964 0.0
C7722 C 0.28496 0.4865 0.15315 0.0
C7723 C 0.27495 0.48101 0.1568 0.0
C7724 C 0.27493 0.47466 0.16696 0.0
C7725 C 0.2849 0.47384 0.17354 0.0
C7726 C 0.29493 0.47934 0.16994 0.0
C7727 C 0.3053 0.5396 0.15226 0.0
C7728 C 0.31094 0.54418 0.16187 0.0
C7729 C 0.3077 0.52847 0.14859 0.0
C7730 C 0.31583 0.52179 0.15442 0.0
C7731 C 0.32218 0.5267 0.16337 0.0
C7732 C 0.31977 0.53783 0.16707 0.0
C7733 C 0.31603 0.50923 0.15272 0.0
C7734 C 0.30588 0.50325 0.15507 0.0
C7735 C 0.32623 0.50307 0.15042 0.0
C7736 C 0.33711 0.50902 0.14756 0.0
C7737 C 0.34728 0.50629 0.15344 0.0
C7738 C 0.35752 0.51191 0.15075 0.0
C7739 C 0.35772 0.52024 0.14214 0.0
C7740 C 0.34768 0.52296 0.1362 0.0
C7741 C 0.33742 0.51737 0.13886 0.0
H7742 H 0.36566 0.52458 0.14007 0.0
H7743 H 0.26717 0.47041 0.16976 0.0
H7744 H 0.81221 0.53491 0.67838 0.0
H7745 H 0.81918 0.51575 0.67437 0.0
H7746 H 0.85413 0.52785 0.67671 0.0
H7747 H 0.84704 0.54701 0.68171 0.0
H7748 H 0.8302 0.5044 0.66042 0.0
H7749 H 0.87114 0.50693 0.68689 0.0
H7750 H 0.88001 0.51846 0.70229 0.0
H7751 H 0.84668 0.52644 0.71575 0.0
H7752 H 0.83765 0.51488 0.7005 0.0
H7753 H 0.83746 0.44532 0.66878 0.0
H7754 H 0.84402 0.46454 0.66329 0.0
H7755 H 0.83995 0.47569 0.69841 0.0
H7756 H 0.83462 0.45635 0.70397 0.0
H7757 H 0.85508 0.48772 0.69056 0.0
H7758 H 0.81743 0.47684 0.6749 0.0
H7759 H 0.80453 0.46529 0.66271 0.0
H7760 H 0.82448 0.47405 0.63303 0.0
H7761 H 0.83754 0.48557 0.64508 0.0
C7762 C 0.82138 0.53353 0.6779 0.0
C7763 C 0.82909 0.54236 0.68054 0.0
C7764 C 0.82539 0.52256 0.67552 0.0
C7765 C 0.83722 0.52022 0.67544 0.0
C7766 C 0.84497 0.52932 0.67705 0.0
C7767 C 0.84093 0.54027 0.67984 0.0
C7768 C 0.84106 0.50808 0.6749 0.0
C7769 C 0.83575 0.50077 0.66694 0.0
C7770 C 0.84841 0.50327 0.68329 0.0
C7771 C 0.85374 0.51021 0.69248 0.0
C7772 C 0.86572 0.51116 0.69315 0.0
C7773 C 0.87077 0.51769 0.70184 0.0
C7774 C 0.86391 0.52322 0.70996 0.0
C7775 C 0.85199 0.52219 0.70943 0.0
C7776 C 0.8469 0.51566 0.70077 0.0
C7777 C 0.83833 0.45186 0.67531 0.0
C7778 C 0.83547 0.44947 0.68675 0.0
C7779 C 0.84197 0.46285 0.67218 0.0
C7780 C 0.84213 0.47174 0.68033 0.0
C7781 C 0.83994 0.46907 0.69189 0.0
C7782 C 0.83682 0.458 0.69509 0.0
C7783 C 0.84316 0.484 0.67693 0.0
C7784 C 0.84972 0.49134 0.68387 0.0
C7785 C 0.83631 0.48884 0.66812 0.0
C7786 C 0.82853 0.4819 0.66089 0.0
C7787 C 0.81908 0.47624 0.66578 0.0
C7788 C 0.81175 0.46971 0.6589 0.0
C7789 C 0.81372 0.4689 0.64711 0.0
C7790 C 0.823 0.47465 0.64217 0.0
C7791 C 0.83037 0.48117 0.64901 0.0
H7792 H 0.80803 0.46384 0.6418 0.0
H7793 H 0.86783 0.52828 0.71668 0.0
H7794 H 0.53802 0.8187 0.67344 0.0
H7795 H 0.51889 0.82552 0.66879 0.0
H7796 H 0.52507 0.85645 0.68816 0.0
H7797 H 0.5442 0.84944 0.69318 0.0
H7798 H 0.50663 0.84673 0.69529 0.0
H7799 H 0.51967 0.85706 0.65833 0.0
H7800 H 0.52998 0.85495 0.64 0.0
H7801 H 0.50888 0.8261 0.63121 0.0
H7802 H 0.49855 0.82792 0.64954 0.0
H7803 H 0.44714 0.85028 0.69032 0.0
H7804 H 0.46643 0.85722 0.68583 0.0
H7805 H 0.4737 0.82553 0.66817 0.0
H7806 H 0.4544 0.81876 0.67223 0.0
H7807 H 0.4855 0.84262 0.65861 0.0
H7808 H 0.47818 0.82866 0.69769 0.0
H7809 H 0.46834 0.82934 0.71641 0.0
H7810 H 0.47941 0.86414 0.72115 0.0
H7811 H 0.48921 0.86368 0.70239 0.0
C7812 C 0.53542 0.82707 0.67652 0.0
C7813 C 0.54255 0.83347 0.6838 0.0
C7814 C 0.52449 0.83103 0.67374 0.0
C7815 C 0.52055 0.84158 0.67801 0.0
C7816 C 0.52794 0.84831 0.68473 0.0
C7817 C 0.53885 0.84428 0.68762 0.0
C7818 C 0.50823 0.84454 0.677 0.0
C7819 C 0.50207 0.84624 0.68719 0.0
C7820 C 0.50222 0.84371 0.66648 0.0
C7821 C 0.50833 0.84263 0.65535 0.0
C7822 C 0.51726 0.85023 0.65252 0.0
C7823 C 0.52311 0.84909 0.64212 0.0
C7824 C 0.52009 0.8404 0.63445 0.0
C7825 C 0.5112 0.83284 0.63715 0.0
C7826 C 0.50532 0.83394 0.64754 0.0
C7827 C 0.45275 0.84494 0.6852 0.0
C7828 C 0.44936 0.83387 0.68184 0.0
C7829 C 0.46376 0.84892 0.68264 0.0
C7830 C 0.47159 0.84178 0.67691 0.0
C7831 C 0.46783 0.83118 0.67264 0.0
C7832 C 0.4568 0.82727 0.67505 0.0
C7833 C 0.48404 0.84431 0.67693 0.0
C7834 C 0.49017 0.84361 0.66659 0.0
C7835 C 0.49009 0.84594 0.68732 0.0
C7836 C 0.48428 0.84618 0.69861 0.0
C7837 C 0.47845 0.83647 0.70271 0.0
C7838 C 0.47289 0.83681 0.71332 0.0
C7839 C 0.47322 0.84679 0.71995 0.0
C7840 C 0.47914 0.85643 0.716 0.0
C7841 C 0.48469 0.85613 0.70538 0.0
H7842 H 0.46891 0.84704 0.72816 0.0
H7843 H 0.52464 0.83952 0.62641 0.0
H7844 H 0.14445 0.54599 0.69001 0.0
H7845 H 0.13729 0.52675 0.6856 0.0
H7846 H 0.16884 0.5191 0.66786 0.0
H7847 H 0.17581 0.53836 0.6718 0.0
H7848 H 0.15178 0.50764 0.65824 0.0
H7849 H 0.16524 0.51454 0.69774 0.0
H7850 H 0.16419 0.52422 0.71653 0.0
H7851 H 0.12919 0.51341 0.72033 0.0
H7852 H 0.13003 0.50376 0.7015 0.0
H7853 H 0.17618 0.45556 0.67282 0.0
H7854 H 0.16897 0.47454 0.66825 0.0
H7855 H 0.13814 0.46761 0.68753 0.0
H7856 H 0.14556 0.44861 0.69249 0.0
H7857 H 0.14726 0.48625 0.69471 0.0
H7858 H 0.13751 0.47333 0.65762 0.0
H7859 H 0.13986 0.46314 0.63925 0.0
H7860 H 0.16856 0.48458 0.63079 0.0
H7861 H 0.16651 0.49479 0.64917 0.0
C7862 C 0.14972 0.5403 0.68491 0.0
C7863 C 0.16079 0.54359 0.68145 0.0
C7864 C 0.14562 0.52931 0.6824 0.0
C7865 C 0.15265 0.52139 0.67665 0.0
C7866 C 0.16327 0.52503 0.67234 0.0
C7867 C 0.16729 0.53604 0.67468 0.0
C7868 C 0.14992 0.50897 0.67655 0.0
C7869 C 0.1507 0.50291 0.66617 0.0
C7870 C 0.14811 0.50284 0.68687 0.0
C7871 C 0.14765 0.50857 0.69819 0.0
C7872 C 0.15731 0.51428 0.70257 0.0
C7873 C 0.15675 0.51976 0.71322 0.0
C7874 C 0.14662 0.51946 0.7196 0.0
C7875 C 0.13703 0.51366 0.71536 0.0
C7876 C 0.13754 0.50819 0.70471 0.0
C7877 C 0.16775 0.45796 0.6759 0.0
C7878 C 0.1615 0.45065 0.68314 0.0
C7879 C 0.16356 0.4688 0.67316 0.0
C7880 C 0.15292 0.4725 0.67742 0.0
C7881 C 0.14634 0.46494 0.6841 0.0
C7882 C 0.1506 0.45409 0.68695 0.0
C7883 C 0.14973 0.48478 0.67644 0.0
C7884 C 0.14784 0.49086 0.68665 0.0
C7885 C 0.15062 0.49087 0.66597 0.0
C7886 C 0.15184 0.48484 0.65481 0.0
C7887 C 0.14436 0.47585 0.65187 0.0
C7888 C 0.14563 0.47006 0.64145 0.0
C7889 C 0.15435 0.47321 0.63386 0.0
C7890 C 0.1618 0.48216 0.63667 0.0
C7891 C 0.16056 0.48797 0.64708 0.0
H7892 H 0.15533 0.46872 0.6258 0.0
H7893 H 0.1462 0.52371 0.72784 0.0
H7894 H 0.45213 0.16828 0.66864 0.0
H7895 H 0.4719 0.16221 0.66538 0.0
H7896 H 0.46928 0.13835 0.6935 0.0
H7897 H 0.44949 0.14432 0.6968 0.0
H7898 H 0.48508 0.15579 0.69673 0.0
H7899 H 0.47593 0.12807 0.66823 0.0
H7900 H 0.46692 0.12054 0.65067 0.0
H7901 H 0.48553 0.14498 0.63039 0.0
H7902 H 0.49453 0.15279 0.64786 0.0
H7903 H 0.54363 0.14681 0.69808 0.0
H7904 H 0.52402 0.14059 0.69421 0.0
H7905 H 0.52137 0.16544 0.66698 0.0
H7906 H 0.541 0.17176 0.67079 0.0
H7907 H 0.50844 0.14437 0.66306 0.0
H7908 H 0.51369 0.17462 0.69072 0.0
H7909 H 0.52239 0.1837 0.70771 0.0
H7910 H 0.51027 0.15611 0.72886 0.0
H7911 H 0.50165 0.14677 0.71193 0.0
C7912 C 0.45563 0.16146 0.67388 0.0
C7913 C 0.44935 0.15695 0.68313 0.0
C7914 C 0.46691 0.15794 0.67195 0.0
C7915 C 0.47205 0.14988 0.67925 0.0
C7916 C 0.46544 0.14457 0.68778 0.0
C7917 C 0.45414 0.14802 0.68966 0.0
C7918 C 0.48467 0.14892 0.67958 0.0
C7919 C 0.49017 0.15296 0.68947 0.0
C7920 C 0.49127 0.14571 0.66993 0.0
C7921 C 0.48584 0.14108 0.65939 0.0
C7922 C 0.47802 0.13192 0.66005 0.0
C7923 C 0.47293 0.12758 0.6501 0.0
C7924 C 0.47563 0.13229 0.63942 0.0
C7925 C 0.48344 0.14134 0.63867 0.0
C7926 C 0.48855 0.14572 0.64859 0.0
C7927 C 0.539 0.15076 0.69107 0.0
C7928 C 0.54375 0.15994 0.68489 0.0
C7929 C 0.52782 0.14714 0.68883 0.0
C7930 C 0.52126 0.15264 0.68039 0.0
C7931 C 0.52633 0.16108 0.6735 0.0
C7932 C 0.53751 0.16474 0.67576 0.0
C7933 C 0.50869 0.15113 0.68023 0.0
C7934 C 0.50327 0.14685 0.67038 0.0
C7935 C 0.50205 0.15433 0.68984 0.0
C7936 C 0.50718 0.15992 0.70004 0.0
C7937 C 0.51299 0.17043 0.69897 0.0
C7938 C 0.51788 0.17563 0.70859 0.0
C7939 C 0.51692 0.17046 0.71935 0.0
C7940 C 0.51103 0.16009 0.72052 0.0
C7941 C 0.50614 0.15483 0.71091 0.0
H7942 H 0.52071 0.17451 0.7268 0.0
H7943 H 0.47169 0.12892 0.63173 0.0
H7944 H 0.84493 0.45397 0.29536 0.0
H7945 H 0.85016 0.47335 0.30131 0.0
H7946 H 0.83051 0.46919 0.33238 0.0
H7947 H 0.82504 0.44992 0.32635 0.0
H7948 H 0.82305 0.4866 0.32042 0.0
H7949 H 0.85962 0.4745 0.33335 0.0
H7950 H 0.87821 0.46449 0.33259 0.0
H7951 H 0.88818 0.48477 0.30354 0.0
H7952 H 0.86957 0.4948 0.304 0.0
H7953 H 0.82655 0.54518 0.32742 0.0
H7954 H 0.83186 0.52573 0.33316 0.0
H7955 H 0.85023 0.52132 0.30137 0.0
H7956 H 0.8453 0.54085 0.29575 0.0
H7957 H 0.85964 0.50819 0.31834 0.0
H7958 H 0.8218 0.51582 0.30245 0.0
H7959 H 0.80299 0.52549 0.30196 0.0
H7960 H 0.79541 0.51279 0.33568 0.0
H7961 H 0.81426 0.50318 0.33641 0.0
C7962 C 0.84199 0.45707 0.3036 0.0
C7963 C 0.83441 0.45053 0.31029 0.0
C7964 C 0.84506 0.46813 0.30705 0.0
C7965 C 0.84072 0.47273 0.3173 0.0
C7966 C 0.83393 0.46582 0.32443 0.0
C7967 C 0.83078 0.45482 0.32095 0.0
C7968 C 0.84146 0.48523 0.31945 0.0
C7969 C 0.8311 0.49127 0.32034 0.0
C7970 C 0.85193 0.49135 0.31901 0.0
C7971 C 0.86315 0.48536 0.31868 0.0
C7972 C 0.86573 0.47677 0.32674 0.0
C7973 C 0.87629 0.4711 0.32637 0.0
C7974 C 0.88437 0.47398 0.31801 0.0
C7975 C 0.88191 0.48255 0.31001 0.0
C7976 C 0.87137 0.48825 0.31034 0.0
C7977 C 0.83203 0.54019 0.32182 0.0
C7978 C 0.83529 0.54441 0.31102 0.0
C7979 C 0.83508 0.5291 0.32513 0.0
C7980 C 0.84118 0.522 0.31755 0.0
C7981 C 0.84547 0.52663 0.30732 0.0
C7982 C 0.84258 0.53779 0.30408 0.0
C7983 C 0.84124 0.50941 0.31917 0.0
C7984 C 0.85167 0.50341 0.31885 0.0
C7985 C 0.83083 0.50323 0.32001 0.0
C7986 C 0.81948 0.50892 0.31955 0.0
C7987 C 0.81615 0.51516 0.30978 0.0
C7988 C 0.80548 0.52062 0.30946 0.0
C7989 C 0.79803 0.51978 0.3188 0.0
C7990 C 0.80121 0.51345 0.32847 0.0
C7991 C 0.81188 0.508 0.32884 0.0
H7992 H 0.78977 0.52401 0.31854 0.0
H7993 H 0.89253 0.46959 0.31774 0.0
H7994 H 0.5426 0.84348 0.30165 0.0
H7995 H 0.52306 0.84807 0.30771 0.0
H7996 H 0.52387 0.82002 0.3318 0.0
H7997 H 0.54336 0.81536 0.3258 0.0
H7998 H 0.50718 0.81783 0.31578 0.0
H7999 H 0.52008 0.84635 0.3417 0.0
H8000 H 0.53094 0.86323 0.34829 0.0
H8001 H 0.51317 0.88439 0.32397 0.0
H8002 H 0.50232 0.8676 0.3171 0.0
H8003 H 0.44979 0.82116 0.32709 0.0
H8004 H 0.46946 0.82493 0.33312 0.0
H8005 H 0.47317 0.84971 0.30595 0.0
H8006 H 0.45344 0.84605 0.29987 0.0
H8007 H 0.48748 0.85397 0.32662 0.0
H8008 H 0.4783 0.82481 0.2982 0.0
H8009 H 0.46733 0.80812 0.29123 0.0
H8010 H 0.47876 0.78834 0.32011 0.0
H8011 H 0.48963 0.80501 0.32735 0.0
C8012 C 0.53874 0.83849 0.30847 0.0
C8013 C 0.54442 0.82893 0.3131 0.0
C8014 C 0.5276 0.84118 0.31198 0.0
C8015 C 0.52202 0.83435 0.32018 0.0
C8016 C 0.52803 0.82538 0.32545 0.0
C8017 C 0.53916 0.82271 0.32198 0.0
C8018 C 0.50946 0.83522 0.32165 0.0
C8019 C 0.50291 0.82566 0.31845 0.0
C8020 C 0.5039 0.84554 0.32478 0.0
C8021 C 0.51045 0.85567 0.32881 0.0
C8022 C 0.51856 0.85458 0.33767 0.0
C8023 C 0.5247 0.86414 0.34148 0.0
C8024 C 0.52276 0.87488 0.33653 0.0
C8025 C 0.51467 0.87607 0.32778 0.0
C8026 C 0.50851 0.86653 0.32394 0.0
C8027 C 0.45464 0.82771 0.32264 0.0
C8028 C 0.4502 0.83309 0.31282 0.0
C8029 C 0.46585 0.8299 0.32615 0.0
C8030 C 0.47278 0.83745 0.31985 0.0
C8031 C 0.46793 0.84386 0.31091 0.0
C8032 C 0.45668 0.84169 0.3074 0.0
C8033 C 0.48537 0.83659 0.32079 0.0
C8034 C 0.49185 0.84612 0.32425 0.0
C8035 C 0.49098 0.82627 0.31783 0.0
C8036 C 0.48464 0.81618 0.31338 0.0
C8037 C 0.47839 0.81692 0.3031 0.0
C8038 C 0.4722 0.80748 0.2991 0.0
C8039 C 0.47232 0.79719 0.30524 0.0
C8040 C 0.47865 0.79633 0.31537 0.0
C8041 C 0.48483 0.80577 0.31943 0.0
H8042 H 0.46752 0.78988 0.30213 0.0
H8043 H 0.52752 0.88227 0.33949 0.0
H8044 H 0.14296 0.4482 0.30051 0.0
H8045 H 0.13563 0.46738 0.30482 0.0
H8046 H 0.16523 0.47393 0.32601 0.0
H8047 H 0.17241 0.45473 0.32203 0.0
H8048 H 0.14678 0.48553 0.33399 0.0
H8049 H 0.16588 0.47944 0.29713 0.0
H8050 H 0.16802 0.47016 0.27824 0.0
H8051 H 0.13418 0.48118 0.26881 0.0
H8052 H 0.13181 0.49041 0.28772 0.0
H8053 H 0.17144 0.53887 0.32295 0.0
H8054 H 0.16421 0.51973 0.32693 0.0
H8055 H 0.13571 0.52561 0.30407 0.0
H8056 H 0.14312 0.54476 0.29979 0.0
H8057 H 0.14703 0.5077 0.29769 0.0
H8058 H 0.13151 0.51933 0.33326 0.0
H8059 H 0.13078 0.52906 0.352 0.0
H8060 H 0.15876 0.5084 0.36405 0.0
H8061 H 0.15978 0.49865 0.34533 0.0
C8062 C 0.14773 0.45362 0.30634 0.0
C8063 C 0.15838 0.45007 0.31073 0.0
C8064 C 0.14353 0.46456 0.30881 0.0
C8065 C 0.15002 0.47216 0.31553 0.0
C8066 C 0.16009 0.46823 0.32078 0.0
C8067 C 0.16423 0.45726 0.31842 0.0
C8068 C 0.1475 0.48461 0.31557 0.0
C8069 C 0.14674 0.49043 0.32608 0.0
C8070 C 0.14717 0.49095 0.30523 0.0
C8071 C 0.14861 0.48547 0.29386 0.0
C8072 C 0.15888 0.47982 0.29105 0.0
C8073 C 0.16014 0.47458 0.28034 0.0
C8074 C 0.15123 0.47505 0.27234 0.0
C8075 C 0.14106 0.4808 0.27503 0.0
C8076 C 0.13975 0.48603 0.28573 0.0
C8077 C 0.16346 0.53622 0.319 0.0
C8078 C 0.15795 0.54324 0.31091 0.0
C8079 C 0.15926 0.52529 0.32138 0.0
C8080 C 0.14937 0.52122 0.31584 0.0
C8081 C 0.14335 0.52857 0.30845 0.0
C8082 C 0.14761 0.5395 0.30599 0.0
C8083 C 0.14668 0.50878 0.31615 0.0
C8084 C 0.14655 0.50291 0.30566 0.0
C8085 C 0.14632 0.50247 0.32652 0.0
C8086 C 0.14573 0.50827 0.33785 0.0
C8087 C 0.13755 0.5169 0.33988 0.0
C8088 C 0.13709 0.52242 0.35051 0.0
C8089 C 0.14472 0.51935 0.35921 0.0
C8090 C 0.15284 0.51075 0.35731 0.0
C8091 C 0.15334 0.50521 0.34669 0.0
H8092 H 0.14435 0.52364 0.36743 0.0
H8093 H 0.15221 0.47099 0.26406 0.0
H8094 H 0.54133 0.17216 0.32118 0.0
H8095 H 0.52179 0.16556 0.32452 0.0
H8096 H 0.52582 0.13995 0.29813 0.0
H8097 H 0.54539 0.14661 0.29464 0.0
H8098 H 0.50837 0.15396 0.29379 0.0
H8099 H 0.52045 0.13193 0.32584 0.0
H8100 H 0.53057 0.12789 0.34394 0.0
H8101 H 0.5108 0.15383 0.36102 0.0
H8102 H 0.50068 0.15816 0.34298 0.0
H8103 H 0.44945 0.14494 0.29704 0.0
H8104 H 0.46937 0.13907 0.2999 0.0
H8105 H 0.47385 0.16614 0.32469 0.0
H8106 H 0.45394 0.17199 0.32198 0.0
H8107 H 0.48701 0.14686 0.32989 0.0
H8108 H 0.47913 0.17195 0.29777 0.0
H8109 H 0.46938 0.17757 0.27987 0.0
H8110 H 0.48196 0.1472 0.26329 0.0
H8111 H 0.49166 0.14133 0.28117 0.0
C8112 C 0.53817 0.16493 0.31628 0.0
C8113 C 0.54483 0.16002 0.30752 0.0
C8114 C 0.52702 0.16109 0.31827 0.0
C8115 C 0.52235 0.15224 0.31159 0.0
C8116 C 0.52927 0.14678 0.30339 0.0
C8117 C 0.54044 0.15061 0.3014 0.0
C8118 C 0.50984 0.15012 0.31182 0.0
C8119 C 0.50374 0.15203 0.30163 0.0
C8120 C 0.50378 0.14798 0.32211 0.0
C8121 C 0.50984 0.14541 0.33301 0.0
C8122 C 0.51832 0.13684 0.33343 0.0
C8123 C 0.52404 0.13448 0.34369 0.0
C8124 C 0.52134 0.14061 0.35362 0.0
C8125 C 0.51289 0.14909 0.35332 0.0
C8126 C 0.50713 0.15148 0.34308 0.0
C8127 C 0.45458 0.14944 0.30333 0.0
C8128 C 0.45021 0.15907 0.30912 0.0
C8129 C 0.46595 0.14606 0.30497 0.0
C8130 C 0.4731 0.15229 0.31237 0.0
C8131 C 0.46846 0.16123 0.31894 0.0
C8132 C 0.4571 0.16461 0.31731 0.0
C8133 C 0.48568 0.15079 0.31192 0.0
C8134 C 0.49173 0.14836 0.32203 0.0
C8135 C 0.49177 0.15261 0.30159 0.0
C8136 C 0.48597 0.15612 0.29084 0.0
C8137 C 0.47973 0.16643 0.29033 0.0
C8138 C 0.47423 0.16967 0.28019 0.0
C8139 C 0.47502 0.16273 0.27046 0.0
C8140 C 0.48134 0.15255 0.27084 0.0
C8141 C 0.48683 0.14926 0.28098 0.0
H8142 H 0.47076 0.16525 0.26261 0.0
H8143 H 0.52578 0.13877 0.36155 0.0
H8144 H 0.68685 0.84769 0.44846 0.0
H8145 H 0.6806 0.8541 0.46745 0.0
H8146 H 0.66728 0.82028 0.47443 0.0
H8147 H 0.67296 0.81404 0.45536 0.0
H8148 H 0.65496 0.83548 0.48561 0.0
H8149 H 0.69631 0.82834 0.48014 0.0
H8150 H 0.71505 0.83232 0.47115 0.0
H8151 H 0.71295 0.86747 0.48193 0.0
H8152 H 0.69414 0.86369 0.49089 0.0
H8153 H 0.67204 0.81308 0.53792 0.0
H8154 H 0.66637 0.81981 0.51905 0.0
H8155 H 0.6807 0.85312 0.52649 0.0
H8156 H 0.68686 0.84622 0.54532 0.0
H8157 H 0.68956 0.84547 0.50818 0.0
H8158 H 0.65101 0.84906 0.51999 0.0
H8159 H 0.63294 0.84369 0.52956 0.0
H8160 H 0.62981 0.8143 0.50762 0.0
H8161 H 0.64793 0.81937 0.49803 0.0
C8162 C 0.68232 0.84172 0.45395 0.0
C8163 C 0.6806 0.8303 0.45055 0.0
C8164 C 0.67875 0.84539 0.46479 0.0
C8165 C 0.67374 0.83758 0.47248 0.0
C8166 C 0.67116 0.82646 0.46868 0.0
C8167 C 0.6745 0.82287 0.45779 0.0
C8168 C 0.67279 0.84019 0.48488 0.0
C8169 C 0.66247 0.83775 0.49059 0.0
C8170 C 0.68249 0.84354 0.49136 0.0
C8171 C 0.69379 0.84578 0.48604 0.0
C8172 C 0.69984 0.83692 0.48054 0.0
C8173 C 0.71046 0.83914 0.47545 0.0
C8174 C 0.71517 0.85015 0.47593 0.0
C8175 C 0.70928 0.85895 0.48153 0.0
C8176 C 0.69864 0.85678 0.48661 0.0
C8177 C 0.67374 0.82192 0.53566 0.0
C8178 C 0.68005 0.82907 0.54301 0.0
C8179 C 0.67036 0.82583 0.52488 0.0
C8180 C 0.673 0.83703 0.52134 0.0
C8181 C 0.67856 0.84445 0.52904 0.0
C8182 C 0.6821 0.84049 0.53977 0.0
C8183 C 0.67187 0.84014 0.50905 0.0
C8184 C 0.68184 0.84367 0.50332 0.0
C8185 C 0.66187 0.83766 0.50263 0.0
C8186 C 0.65087 0.83461 0.50829 0.0
C8187 C 0.6465 0.84142 0.51724 0.0
C8188 C 0.63624 0.83843 0.52266 0.0
C8189 C 0.63023 0.82866 0.5192 0.0
C8190 C 0.63446 0.82187 0.51029 0.0
C8191 C 0.64472 0.82482 0.50483 0.0
H8192 H 0.6223 0.82636 0.52342 0.0
H8193 H 0.7234 0.85185 0.47199 0.0
H8194 H 0.66609 0.17024 0.44789 0.0
H8195 H 0.66037 0.16617 0.46759 0.0
H8196 H 0.68951 0.14377 0.47154 0.0
H8197 H 0.69526 0.14771 0.45176 0.0
H8198 H 0.66967 0.13753 0.48546 0.0
H8199 H 0.69433 0.1701 0.47645 0.0
H8200 H 0.6991 0.18778 0.46586 0.0
H8201 H 0.66823 0.20365 0.47813 0.0
H8202 H 0.66319 0.18597 0.48864 0.0
H8203 H 0.69448 0.14838 0.53997 0.0
H8204 H 0.68825 0.14418 0.52042 0.0
H8205 H 0.66234 0.17045 0.52295 0.0
H8206 H 0.66859 0.17478 0.54245 0.0
H8207 H 0.67663 0.17432 0.5057 0.0
H8208 H 0.65448 0.14294 0.51858 0.0
H8209 H 0.64997 0.12526 0.52922 0.0
H8210 H 0.67585 0.10708 0.51039 0.0
H8211 H 0.68065 0.12471 0.49974 0.0
C8212 C 0.67108 0.16416 0.45282 0.0
C8213 C 0.68129 0.15951 0.4484 0.0
C8214 C 0.66775 0.16179 0.46405 0.0
C8215 C 0.67463 0.15484 0.47103 0.0
C8216 C 0.6841 0.14917 0.46625 0.0
C8217 C 0.68742 0.15149 0.45498 0.0
C8218 C 0.67347 0.15549 0.48361 0.0
C8219 C 0.67118 0.14553 0.48995 0.0
C8220 C 0.67523 0.16601 0.48938 0.0
C8221 C 0.67832 0.17668 0.48319 0.0
C8222 C 0.68852 0.17733 0.47681 0.0
C8223 C 0.69128 0.18735 0.47083 0.0
C8224 C 0.68396 0.19682 0.47129 0.0
C8225 C 0.67388 0.1963 0.47776 0.0
C8226 C 0.67107 0.18629 0.48372 0.0
C8227 C 0.68728 0.15307 0.53646 0.0
C8228 C 0.68216 0.16204 0.54265 0.0
C8229 C 0.68366 0.15059 0.52532 0.0
C8230 C 0.67483 0.15701 0.52024 0.0
C8231 C 0.66917 0.16541 0.52672 0.0
C8232 C 0.67279 0.1679 0.53784 0.0
C8233 C 0.67291 0.15632 0.50773 0.0
C8234 C 0.67477 0.16631 0.50133 0.0
C8235 C 0.67078 0.14583 0.50201 0.0
C8236 C 0.66798 0.13519 0.50841 0.0
C8237 C 0.65929 0.13521 0.51677 0.0
C8238 C 0.65666 0.12518 0.52279 0.0
C8239 C 0.66264 0.11506 0.5205 0.0
C8240 C 0.67123 0.11494 0.51216 0.0
C8241 C 0.6739 0.12494 0.50611 0.0
H8242 H 0.66059 0.10731 0.52517 0.0
H8243 H 0.68611 0.20457 0.46667 0.0
H8244 H 0.84646 0.6979 0.5389 0.0
H8245 H 0.85143 0.69199 0.51942 0.0
H8246 H 0.83312 0.66023 0.52432 0.0
H8247 H 0.82784 0.66622 0.54368 0.0
H8248 H 0.86085 0.67421 0.50656 0.0
H8249 H 0.81499 0.65728 0.50212 0.0
H8250 H 0.79621 0.65876 0.51178 0.0
H8251 H 0.80475 0.69256 0.52361 0.0
H8252 H 0.8235 0.69134 0.51389 0.0
H8253 H 0.82539 0.66605 0.44877 0.0
H8254 H 0.83111 0.66003 0.46798 0.0
H8255 H 0.85182 0.69051 0.47138 0.0
H8256 H 0.84634 0.69643 0.45207 0.0
H8257 H 0.82415 0.67257 0.48513 0.0
H8258 H 0.87129 0.68769 0.49275 0.0
H8259 H 0.88987 0.68717 0.48269 0.0
H8260 H 0.87876 0.65796 0.46324 0.0
H8261 H 0.86018 0.65819 0.47329 0.0
C8262 C 0.84377 0.68952 0.53594 0.0
C8263 C 0.83652 0.68264 0.54267 0.0
C8264 C 0.84669 0.68611 0.52484 0.0
C8265 C 0.84244 0.67578 0.52037 0.0
C8266 C 0.83634 0.66831 0.52757 0.0
C8267 C 0.83329 0.67177 0.5386 0.0
C8268 C 0.84244 0.67396 0.50783 0.0
C8269 C 0.85287 0.6738 0.50181 0.0
C8270 C 0.832 0.67323 0.5017 0.0
C8271 C 0.82068 0.67414 0.50742 0.0
C8272 C 0.81283 0.66503 0.50677 0.0
C8273 C 0.8022 0.66583 0.51225 0.0
C8274 C 0.79931 0.67573 0.51835 0.0
C8275 C 0.80702 0.68488 0.51893 0.0
C8276 C 0.81765 0.68414 0.51344 0.0
C8277 C 0.83144 0.6713 0.45348 0.0
C8278 C 0.83526 0.68182 0.44902 0.0
C8279 C 0.83473 0.66782 0.46444 0.0
C8280 C 0.84185 0.67483 0.47114 0.0
C8281 C 0.84644 0.68487 0.46632 0.0
C8282 C 0.84323 0.6883 0.45531 0.0
C8283 C 0.84258 0.67294 0.48368 0.0
C8284 C 0.83222 0.67254 0.48976 0.0
C8285 C 0.85308 0.67326 0.48976 0.0
C8286 C 0.86429 0.67301 0.48374 0.0
C8287 C 0.87282 0.68111 0.48637 0.0
C8288 C 0.88336 0.68088 0.48066 0.0
C8289 C 0.88548 0.67256 0.47231 0.0
C8290 C 0.87709 0.66443 0.46967 0.0
C8291 C 0.86654 0.66462 0.47536 0.0
H8292 H 0.89364 0.67239 0.4679 0.0
H8293 H 0.79108 0.67632 0.5226 0.0
H8294 H 0.30348 0.84361 0.45065 0.0
H8295 H 0.30973 0.84823 0.47011 0.0
H8296 H 0.33288 0.81941 0.46959 0.0
H8297 H 0.32671 0.81473 0.45015 0.0
H8298 H 0.31632 0.81791 0.48611 0.0
H8299 H 0.34371 0.8452 0.47341 0.0
H8300 H 0.35113 0.86177 0.4626 0.0
H8301 H 0.32758 0.88399 0.48011 0.0
H8302 H 0.31989 0.86752 0.49092 0.0
H8303 H 0.32819 0.82062 0.54332 0.0
H8304 H 0.33419 0.82443 0.52366 0.0
H8305 H 0.30753 0.84979 0.52029 0.0
H8306 H 0.30144 0.84606 0.54002 0.0
H8307 H 0.32873 0.85351 0.50587 0.0
H8308 H 0.29874 0.82587 0.51471 0.0
H8309 H 0.29078 0.80961 0.52565 0.0
H8310 H 0.31878 0.78834 0.51474 0.0
H8311 H 0.32701 0.80457 0.5039 0.0
C8312 C 0.31015 0.83846 0.45455 0.0
C8313 C 0.31444 0.82867 0.44897 0.0
C8314 C 0.31377 0.84116 0.46564 0.0
C8315 C 0.32173 0.83413 0.47129 0.0
C8316 C 0.32673 0.82494 0.46536 0.0
C8317 C 0.32316 0.82226 0.45427 0.0
C8318 C 0.32308 0.83497 0.48386 0.0
C8319 C 0.31932 0.82561 0.49039 0.0
C8320 C 0.32662 0.84515 0.48944 0.0
C8321 C 0.33115 0.85509 0.48291 0.0
C8322 C 0.34003 0.8536 0.47488 0.0
C8323 C 0.3443 0.86298 0.46877 0.0
C8324 C 0.33981 0.87392 0.47065 0.0
C8325 C 0.33105 0.87551 0.47866 0.0
C8326 C 0.32673 0.86615 0.48479 0.0
C8327 C 0.32385 0.8273 0.53855 0.0
C8328 C 0.31415 0.83283 0.54309 0.0
C8329 C 0.32736 0.82953 0.52735 0.0
C8330 C 0.32119 0.83727 0.52053 0.0
C8331 C 0.3124 0.84381 0.52546 0.0
C8332 C 0.30887 0.84159 0.5367 0.0
C8333 C 0.32204 0.83644 0.50793 0.0
C8334 C 0.32601 0.84578 0.50148 0.0
C8335 C 0.31859 0.82627 0.50231 0.0
C8336 C 0.31356 0.81645 0.50863 0.0
C8337 C 0.30324 0.81775 0.51473 0.0
C8338 C 0.29868 0.80854 0.5209 0.0
C8339 C 0.30429 0.79796 0.52092 0.0
C8340 C 0.31446 0.79655 0.51473 0.0
C8341 C 0.31908 0.80575 0.50858 0.0
H8342 H 0.30074 0.79084 0.52569 0.0
H8343 H 0.34314 0.88118 0.46592 0.0
H8344 H 0.16652 0.32721 0.44795 0.0
H8345 H 0.16092 0.33354 0.46713 0.0
H8346 H 0.14354 0.30137 0.4727 0.0
H8347 H 0.14877 0.29515 0.45339 0.0
H8348 H 0.13328 0.31873 0.48476 0.0
H8349 H 0.17192 0.30387 0.47868 0.0
H8350 H 0.19095 0.30375 0.46945 0.0
H8351 H 0.19683 0.3383 0.48076 0.0
H8352 H 0.17774 0.33865 0.48993 0.0
H8353 H 0.14711 0.29754 0.5394 0.0
H8354 H 0.14202 0.30339 0.52001 0.0
H8355 H 0.16156 0.33453 0.52417 0.0
H8356 H 0.16697 0.32855 0.5435 0.0
H8357 H 0.16927 0.32292 0.50702 0.0
H8358 H 0.13221 0.33508 0.51794 0.0
H8359 H 0.11341 0.33425 0.52757 0.0
H8360 H 0.10448 0.30438 0.508 0.0
H8361 H 0.12329 0.30491 0.49838 0.0
C8362 C 0.16123 0.32162 0.45315 0.0
C8363 C 0.15829 0.31059 0.44931 0.0
C8364 C 0.15801 0.32526 0.46408 0.0
C8365 C 0.15206 0.31781 0.47142 0.0
C8366 C 0.14817 0.30724 0.46719 0.0
C8367 C 0.15122 0.30367 0.45617 0.0
C8368 C 0.15166 0.32005 0.48391 0.0
C8369 C 0.14111 0.3197 0.48968 0.0
C8370 C 0.16188 0.32157 0.49027 0.0
C8371 C 0.17337 0.32133 0.48485 0.0
C8372 C 0.17725 0.31146 0.47913 0.0
C8373 C 0.18804 0.31135 0.47392 0.0
C8374 C 0.19508 0.32103 0.47449 0.0
C8375 C 0.19135 0.33082 0.4803 0.0
C8376 C 0.18055 0.33098 0.4855 0.0
C8377 C 0.15005 0.3058 0.53632 0.0
C8378 C 0.15762 0.31249 0.54287 0.0
C8379 C 0.14704 0.30919 0.52524 0.0
C8380 C 0.15141 0.31941 0.5206 0.0
C8381 C 0.15812 0.3266 0.52755 0.0
C8382 C 0.16122 0.32316 0.53859 0.0
C8383 C 0.15087 0.32137 0.50805 0.0
C8384 C 0.16133 0.3224 0.5022 0.0
C8385 C 0.14056 0.32039 0.50171 0.0
C8386 C 0.1292 0.32002 0.50746 0.0
C8387 C 0.12627 0.32828 0.51574 0.0
C8388 C 0.11561 0.32787 0.52119 0.0
C8389 C 0.10777 0.31926 0.51841 0.0
C8390 C 0.11057 0.31105 0.51015 0.0
C8391 C 0.12122 0.31141 0.50467 0.0
H8392 H 0.09951 0.31896 0.52264 0.0
H8393 H 0.20343 0.32093 0.47046 0.0
H8394 H 0.32618 0.17481 0.54592 0.0
H8395 H 0.33315 0.17073 0.5266 0.0
H8396 H 0.3048 0.14761 0.52118 0.0
H8397 H 0.29788 0.15149 0.54057 0.0
H8398 H 0.32454 0.14108 0.50891 0.0
H8399 H 0.30088 0.17488 0.51543 0.0
H8400 H 0.29618 0.1932 0.5249 0.0
H8401 H 0.32818 0.20746 0.51358 0.0
H8402 H 0.33314 0.18915 0.50418 0.0
H8403 H 0.30093 0.15061 0.45406 0.0
H8404 H 0.30733 0.14678 0.4736 0.0
H8405 H 0.33391 0.17225 0.46998 0.0
H8406 H 0.32745 0.17626 0.45048 0.0
H8407 H 0.32001 0.17726 0.48699 0.0
H8408 H 0.34084 0.14435 0.4759 0.0
H8409 H 0.34467 0.12603 0.4661 0.0
H8410 H 0.31765 0.10993 0.48522 0.0
H8411 H 0.31353 0.1282 0.49502 0.0
C8412 C 0.32161 0.16861 0.54073 0.0
C8413 C 0.31133 0.16367 0.54463 0.0
C8414 C 0.32563 0.16625 0.52972 0.0
C8415 C 0.31936 0.15904 0.52242 0.0
C8416 C 0.30975 0.15321 0.52669 0.0
C8417 C 0.30576 0.15551 0.53775 0.0
C8418 C 0.32145 0.15925 0.50992 0.0
C8419 C 0.3236 0.14896 0.50406 0.0
C8420 C 0.32044 0.16959 0.50368 0.0
C8421 C 0.31744 0.18062 0.50925 0.0
C8422 C 0.30695 0.1819 0.51504 0.0
C8423 C 0.30423 0.19228 0.52038 0.0
C8424 C 0.3119 0.20148 0.51987 0.0
C8425 C 0.32227 0.20032 0.51399 0.0
C8426 C 0.32504 0.18995 0.50866 0.0
C8427 C 0.30834 0.15517 0.45731 0.0
C8428 C 0.31355 0.16389 0.45083 0.0
C8429 C 0.31206 0.1529 0.46846 0.0
C8430 C 0.3211 0.15924 0.47326 0.0
C8431 C 0.32691 0.16727 0.46645 0.0
C8432 C 0.32318 0.16958 0.45532 0.0
C8433 C 0.32295 0.15904 0.48581 0.0
C8434 C 0.32139 0.16938 0.49175 0.0
C8435 C 0.32442 0.14873 0.49203 0.0
C8436 C 0.32684 0.13769 0.48616 0.0
C8437 C 0.33565 0.13694 0.47796 0.0
C8438 C 0.33788 0.12655 0.47241 0.0
C8439 C 0.3314 0.11683 0.47503 0.0
C8440 C 0.32267 0.11747 0.4832 0.0
C8441 C 0.32039 0.12784 0.48877 0.0
H8442 H 0.33314 0.10879 0.47072 0.0
H8443 H 0.30978 0.20951 0.52401 0.0
H8444 H 0.84667 0.30479 0.44647 0.0
H8445 H 0.8535 0.31023 0.46557 0.0
H8446 H 0.82043 0.32501 0.47315 0.0
H8447 H 0.81374 0.32002 0.45403 0.0
H8448 H 0.83677 0.33678 0.48381 0.0
H8449 H 0.82695 0.29599 0.47875 0.0
H8450 H 0.82956 0.27698 0.46983 0.0
H8451 H 0.86491 0.27682 0.48012 0.0
H8452 H 0.86251 0.29589 0.48901 0.0
H8453 H 0.81471 0.32195 0.53686 0.0
H8454 H 0.82128 0.32678 0.51771 0.0
H8455 H 0.85376 0.31041 0.52458 0.0
H8456 H 0.84699 0.30511 0.54372 0.0
H8457 H 0.84509 0.30183 0.50654 0.0
H8458 H 0.85155 0.34018 0.51775 0.0
H8459 H 0.84771 0.3587 0.52718 0.0
H8460 H 0.818 0.36358 0.50602 0.0
H8461 H 0.82153 0.34502 0.49657 0.0
C8462 C 0.84095 0.30941 0.45214 0.0
C8463 C 0.82961 0.31179 0.44886 0.0
C8464 C 0.84487 0.31253 0.46303 0.0
C8465 C 0.8374 0.31781 0.47086 0.0
C8466 C 0.82635 0.32093 0.46726 0.0
C8467 C 0.8225 0.31798 0.45635 0.0
C8468 C 0.84029 0.31868 0.48319 0.0
C8469 C 0.83867 0.32919 0.48883 0.0
C8470 C 0.84318 0.30885 0.48968 0.0
C8471 C 0.8446 0.29739 0.4844 0.0
C8472 C 0.83529 0.29191 0.47905 0.0
C8473 C 0.83673 0.28113 0.47401 0.0
C8474 C 0.84741 0.27571 0.47438 0.0
C8475 C 0.85666 0.28104 0.47982 0.0
C8476 C 0.85526 0.29183 0.48486 0.0
C8477 C 0.82336 0.3196 0.53441 0.0
C8478 C 0.83027 0.313 0.54172 0.0
C8479 C 0.82718 0.3225 0.52347 0.0
C8480 C 0.83809 0.31907 0.5197 0.0
C8481 C 0.84532 0.31317 0.5273 0.0
C8482 C 0.84143 0.31012 0.53822 0.0
C8483 C 0.84095 0.31985 0.50733 0.0
C8484 C 0.84367 0.30961 0.50163 0.0
C8485 C 0.83896 0.32992 0.50085 0.0
C8486 C 0.83682 0.34118 0.50644 0.0
C8487 C 0.84416 0.34517 0.51514 0.0
C8488 C 0.84204 0.35569 0.52049 0.0
C8489 C 0.83262 0.36231 0.5172 0.0
C8490 C 0.82531 0.35845 0.50854 0.0
C8491 C 0.82739 0.34794 0.50316 0.0
H8492 H 0.83099 0.37045 0.52136 0.0
H8493 H 0.84851 0.26737 0.47047 0.0
H8494 H 0.16983 0.66679 0.54617 0.0
H8495 H 0.16452 0.66002 0.52707 0.0
H8496 H 0.14457 0.69069 0.52169 0.0
H8497 H 0.14956 0.69736 0.5409 0.0
H8498 H 0.13575 0.67229 0.50954 0.0
H8499 H 0.17257 0.69105 0.5156 0.0
H8500 H 0.19146 0.6932 0.52487 0.0
H8501 H 0.20101 0.65947 0.51362 0.0
H8502 H 0.18209 0.65707 0.50442 0.0
H8503 H 0.14808 0.69457 0.45472 0.0
H8504 H 0.14329 0.68846 0.47412 0.0
H8505 H 0.16515 0.65886 0.47029 0.0
H8506 H 0.17017 0.66507 0.45094 0.0
H8507 H 0.17198 0.6717 0.48728 0.0
H8508 H 0.13632 0.6558 0.47645 0.0
H8509 H 0.11753 0.65467 0.46685 0.0
H8510 H 0.10567 0.68363 0.48624 0.0
H8511 H 0.12444 0.68505 0.49583 0.0
C8512 C 0.16403 0.67193 0.54105 0.0
C8513 C 0.16032 0.68273 0.5449 0.0
C8514 C 0.16097 0.66803 0.53016 0.0
C8515 C 0.15437 0.67498 0.52289 0.0
C8516 C 0.1497 0.68521 0.52716 0.0
C8517 C 0.15262 0.68905 0.53812 0.0
C8518 C 0.15417 0.6728 0.51039 0.0
C8519 C 0.14363 0.67211 0.50462 0.0
C8520 C 0.16449 0.67235 0.50403 0.0
C8521 C 0.17589 0.67382 0.50946 0.0
C8522 C 0.17868 0.68406 0.51517 0.0
C8523 C 0.18938 0.68533 0.52041 0.0
C8524 C 0.19741 0.67646 0.51987 0.0
C8525 C 0.19477 0.66632 0.51406 0.0
C8526 C 0.18406 0.665 0.50884 0.0
C8527 C 0.15159 0.68658 0.45787 0.0
C8528 C 0.15968 0.68042 0.4514 0.0
C8529 C 0.14877 0.68303 0.46896 0.0
C8530 C 0.15389 0.67321 0.47369 0.0
C8531 C 0.16113 0.66648 0.46682 0.0
C8532 C 0.16402 0.67006 0.45577 0.0
C8533 C 0.15352 0.67135 0.48625 0.0
C8534 C 0.16403 0.67143 0.4921 0.0
C8535 C 0.14317 0.67135 0.49258 0.0
C8536 C 0.13184 0.67056 0.48683 0.0
C8537 C 0.12974 0.66199 0.47861 0.0
C8538 C 0.11908 0.66128 0.47318 0.0
C8539 C 0.11042 0.66908 0.47592 0.0
C8540 C 0.11239 0.67759 0.48412 0.0
C8541 C 0.12304 0.67833 0.48958 0.0
H8542 H 0.10217 0.66852 0.47171 0.0
H8543 H 0.2057 0.67746 0.52392 0.0
H8544 H 0.17252 0.11918 0.3047 0.0
H8545 H 0.15404 0.12885 0.30638 0.0
H8546 H 0.13795 0.09693 0.31577 0.0
H8547 H 0.1566 0.08714 0.31442 0.0
H8548 H 0.12802 0.11329 0.29564 0.0
H8549 H 0.13621 0.10981 0.33553 0.0
H8550 H 0.1485 0.11017 0.35272 0.0
H8551 H 0.1554 0.14592 0.34726 0.0
H8552 H 0.14329 0.14573 0.32993 0.0
H8553 H 0.08943 0.16335 0.32076 0.0
H8554 H 0.09909 0.14488 0.32309 0.0
H8555 H 0.11816 0.15091 0.29198 0.0
H8556 H 0.10855 0.1693 0.28954 0.0
H8557 H 0.12163 0.14205 0.32634 0.0
H8558 H 0.12429 0.12638 0.27877 0.0
H8559 H 0.11189 0.12584 0.26167 0.0
H8560 H 0.08198 0.12743 0.28306 0.0
H8561 H 0.09418 0.1278 0.3003 0.0
C8562 C 0.16507 0.11419 0.30713 0.0
C8563 C 0.16598 0.10241 0.30942 0.0
C8564 C 0.15454 0.11973 0.30812 0.0
C8565 C 0.14472 0.11357 0.31122 0.0
C8566 C 0.1455 0.10178 0.3134 0.0
C8567 C 0.15613 0.09624 0.31265 0.0
C8568 C 0.13372 0.11972 0.31195 0.0
C8569 C 0.12642 0.11945 0.30242 0.0
C8570 C 0.13162 0.12752 0.32095 0.0
C8571 C 0.1389 0.12773 0.33138 0.0
C8572 C 0.14043 0.11772 0.33793 0.0
C8573 C 0.14735 0.1179 0.34772 0.0
C8574 C 0.15274 0.12806 0.35107 0.0
C8575 C 0.15121 0.13806 0.34466 0.0
C8576 C 0.14431 0.13792 0.33486 0.0
C8577 C 0.09557 0.16067 0.31432 0.0
C8578 C 0.09829 0.16784 0.305 0.0
C8579 C 0.10106 0.15011 0.31567 0.0
C8580 C 0.10924 0.14647 0.30765 0.0
C8581 C 0.11171 0.15345 0.29816 0.0
C8582 C 0.10628 0.16402 0.29683 0.0
C8583 C 0.11617 0.13606 0.30972 0.0
C8584 C 0.12283 0.13562 0.31973 0.0
C8585 C 0.11758 0.12753 0.3012 0.0
C8586 C 0.11018 0.12716 0.29085 0.0
C8587 C 0.11507 0.12652 0.27984 0.0
C8588 C 0.10807 0.12627 0.27011 0.0
C8589 C 0.09615 0.12661 0.27128 0.0
C8590 C 0.09121 0.12719 0.28217 0.0
C8591 C 0.09817 0.12744 0.29192 0.0
H8592 H 0.09075 0.12642 0.26373 0.0
H8593 H 0.1581 0.12818 0.35865 0.0
H8594 H 0.87742 0.17069 0.30153 0.0
H8595 H 0.86872 0.15175 0.3035 0.0
H8596 H 0.90021 0.13849 0.31756 0.0
H8597 H 0.90899 0.1576 0.31591 0.0
H8598 H 0.88522 0.12635 0.29602 0.0
H8599 H 0.88718 0.13606 0.33597 0.0
H8600 H 0.88591 0.14922 0.35247 0.0
H8601 H 0.85045 0.15559 0.34489 0.0
H8602 H 0.85157 0.14261 0.32822 0.0
H8603 H 0.83402 0.08897 0.32119 0.0
H8604 H 0.85284 0.09796 0.32363 0.0
H8605 H 0.84831 0.11607 0.2917 0.0
H8606 H 0.82962 0.10714 0.28917 0.0
H8607 H 0.85583 0.12055 0.32622 0.0
H8608 H 0.87305 0.12143 0.27901 0.0
H8609 H 0.87436 0.10826 0.26255 0.0
H8610 H 0.87226 0.07935 0.28523 0.0
H8611 H 0.87112 0.09233 0.30187 0.0
C8612 C 0.88253 0.16376 0.30503 0.0
C8613 C 0.89387 0.16562 0.30859 0.0
C8614 C 0.87754 0.15297 0.30616 0.0
C8615 C 0.88385 0.14382 0.3107 0.0
C8616 C 0.89525 0.14552 0.31408 0.0
C8617 C 0.9002 0.15641 0.31315 0.0
C8618 C 0.8782 0.1326 0.31187 0.0
C8619 C 0.87894 0.12487 0.30271 0.0
C8620 C 0.87026 0.13064 0.32078 0.0
C8621 C 0.86949 0.13844 0.3308 0.0
C8622 C 0.87914 0.14036 0.33775 0.0
C8623 C 0.87844 0.14776 0.34715 0.0
C8624 C 0.86811 0.15325 0.34971 0.0
C8625 C 0.85845 0.15133 0.34289 0.0
C8626 C 0.85911 0.14394 0.33347 0.0
C8627 C 0.83714 0.0947 0.31459 0.0
C8628 C 0.83028 0.09744 0.30504 0.0
C8629 C 0.84789 0.09981 0.31599 0.0
C8630 C 0.85202 0.10759 0.3078 0.0
C8631 C 0.8454 0.10992 0.29803 0.0
C8632 C 0.83465 0.10489 0.29665 0.0
C8633 C 0.86241 0.11452 0.31003 0.0
C8634 C 0.86244 0.12159 0.31976 0.0
C8635 C 0.87114 0.11575 0.3017 0.0
C8636 C 0.87197 0.10788 0.29171 0.0
C8637 C 0.87296 0.11227 0.28052 0.0
C8638 C 0.87365 0.10483 0.27114 0.0
C8639 C 0.87339 0.09298 0.27284 0.0
C8640 C 0.87244 0.08853 0.28393 0.0
C8641 C 0.87176 0.09593 0.29333 0.0
H8642 H 0.87391 0.08723 0.26557 0.0
H8643 H 0.86758 0.15898 0.357 0.0
H8644 H 0.8998 0.8308 0.32444 0.0
H8645 H 0.88957 0.84901 0.32697 0.0
H8646 H 0.87479 0.84538 0.29327 0.0
H8647 H 0.88488 0.82728 0.29068 0.0
H8648 H 0.88169 0.86793 0.29826 0.0
H8649 H 0.86033 0.83613 0.31592 0.0
H8650 H 0.85831 0.8203 0.32981 0.0
H8651 H 0.86468 0.84361 0.35758 0.0
H8652 H 0.86688 0.85956 0.34382 0.0
H8653 H 0.82554 0.88585 0.29091 0.0
H8654 H 0.84393 0.87622 0.29347 0.0
H8655 H 0.847 0.8907 0.32736 0.0
H8656 H 0.82859 0.90053 0.32481 0.0
H8657 H 0.85 0.8669 0.32662 0.0
H8658 H 0.86557 0.89954 0.309 0.0
H8659 H 0.86732 0.91544 0.2952 0.0
H8660 H 0.87215 0.89137 0.26778 0.0
H8661 H 0.87025 0.8753 0.28137 0.0
C8662 C 0.89449 0.83398 0.31752 0.0
C8663 C 0.89303 0.82755 0.30741 0.0
C8664 C 0.88867 0.84436 0.31898 0.0
C8665 C 0.88142 0.84848 0.31032 0.0
C8666 C 0.8804 0.84235 0.30003 0.0
C8667 C 0.88609 0.83196 0.29861 0.0
C8668 C 0.87399 0.85856 0.31217 0.0
C8669 C 0.8748 0.86778 0.30449 0.0
C8670 C 0.86529 0.85854 0.32062 0.0
C8671 C 0.86392 0.84898 0.32886 0.0
C8672 C 0.86139 0.83785 0.32499 0.0
C8673 C 0.8602 0.82886 0.33283 0.0
C8674 C 0.86141 0.83094 0.34457 0.0
C8675 C 0.86378 0.84201 0.34849 0.0
C8676 C 0.865 0.85102 0.34067 0.0
C8677 C 0.83017 0.88709 0.29886 0.0
C8678 C 0.82561 0.8939 0.30767 0.0
C8679 C 0.84071 0.88166 0.30028 0.0
C8680 C 0.84685 0.88285 0.31056 0.0
C8681 C 0.84241 0.88976 0.31934 0.0
C8682 C 0.83192 0.89535 0.31786 0.0
C8683 C 0.85735 0.87599 0.31231 0.0
C8684 C 0.85713 0.86734 0.32066 0.0
C8685 C 0.8666 0.87658 0.30451 0.0
C8686 C 0.86772 0.88619 0.29623 0.0
C8687 C 0.86691 0.89762 0.30002 0.0
C8688 C 0.86795 0.90667 0.29223 0.0
C8689 C 0.86984 0.90442 0.28062 0.0
C8690 C 0.8707 0.8931 0.27678 0.0
C8691 C 0.86966 0.88402 0.28453 0.0
H8692 H 0.87064 0.91144 0.2746 0.0
H8693 H 0.86048 0.82397 0.35063 0.0
H8694 H 0.1081 0.82454 0.29255 0.0
H8695 H 0.11718 0.84324 0.29439 0.0
H8696 H 0.098 0.84974 0.32533 0.0
H8697 H 0.08885 0.8309 0.3236 0.0
H8698 H 0.10937 0.86563 0.29567 0.0
H8699 H 0.11715 0.86374 0.34351 0.0
H8700 H 0.11751 0.84984 0.35948 0.0
H8701 H 0.12881 0.82342 0.33646 0.0
H8702 H 0.12862 0.8372 0.3204 0.0
H8703 H 0.15961 0.90119 0.32472 0.0
H8704 H 0.14062 0.89224 0.32621 0.0
H8705 H 0.14671 0.87415 0.29453 0.0
H8706 H 0.16553 0.88297 0.29297 0.0
H8707 H 0.13666 0.86926 0.3281 0.0
H8708 H 0.12291 0.87074 0.27975 0.0
H8709 H 0.12318 0.8846 0.26381 0.0
H8710 H 0.12448 0.91249 0.28779 0.0
H8711 H 0.12403 0.89883 0.30389 0.0
C8712 C 0.10571 0.82996 0.2997 0.0
C8713 C 0.09786 0.82617 0.30801 0.0
C8714 C 0.11084 0.8407 0.30068 0.0
C8715 C 0.10829 0.84783 0.31002 0.0
C8716 C 0.10011 0.84431 0.3181 0.0
C8717 C 0.09491 0.83355 0.31709 0.0
C8718 C 0.11509 0.8584 0.31165 0.0
C8719 C 0.11529 0.86652 0.30278 0.0
C8720 C 0.12244 0.85979 0.32119 0.0
C8721 C 0.12272 0.85145 0.33076 0.0
C8722 C 0.11972 0.85497 0.34188 0.0
C8723 C 0.11989 0.84711 0.35094 0.0
C8724 C 0.12313 0.83574 0.34898 0.0
C8725 C 0.12626 0.83222 0.33796 0.0
C8726 C 0.12611 0.84004 0.32888 0.0
C8727 C 0.15681 0.89543 0.318 0.0
C8728 C 0.16409 0.89272 0.30876 0.0
C8729 C 0.14597 0.89034 0.31887 0.0
C8730 C 0.14221 0.88266 0.31041 0.0
C8731 C 0.14935 0.88023 0.30104 0.0
C8732 C 0.16016 0.8852 0.30022 0.0
C8733 C 0.13143 0.87613 0.31176 0.0
C8734 C 0.13045 0.86874 0.32119 0.0
C8735 C 0.12335 0.87545 0.30274 0.0
C8736 C 0.12346 0.88373 0.29305 0.0
C8737 C 0.12316 0.87983 0.28164 0.0
C8738 C 0.12337 0.88766 0.27257 0.0
C8739 C 0.12386 0.89942 0.27478 0.0
C8740 C 0.12412 0.90338 0.28608 0.0
C8741 C 0.12391 0.89559 0.29519 0.0
H8742 H 0.12403 0.90546 0.26774 0.0
H8743 H 0.12325 0.82967 0.35599 0.0
H8744 H 0.17206 0.87437 0.68925 0.0
H8745 H 0.15369 0.86503 0.68563 0.0
H8746 H 0.14 0.89666 0.67225 0.0
H8747 H 0.15854 0.90609 0.67562 0.0
H8748 H 0.12601 0.88389 0.68987 0.0
H8749 H 0.14296 0.87985 0.65325 0.0
H8750 H 0.15844 0.87598 0.63939 0.0
H8751 H 0.16071 0.84123 0.65134 0.0
H8752 H 0.14538 0.84495 0.66541 0.0
H8753 H 0.09082 0.8303 0.66699 0.0
H8754 H 0.10084 0.84842 0.66342 0.0
H8755 H 0.11428 0.84778 0.69786 0.0
H8756 H 0.10442 0.82971 0.70147 0.0
H8757 H 0.12413 0.8501 0.66408 0.0
H8758 H 0.11782 0.87465 0.70752 0.0
H8759 H 0.10211 0.87883 0.72101 0.0
H8760 H 0.07742 0.87349 0.69424 0.0
H8761 H 0.09297 0.86945 0.68053 0.0
C8762 C 0.16516 0.87936 0.68555 0.0
C8763 C 0.16673 0.89095 0.68272 0.0
C8764 C 0.1547 0.87401 0.68344 0.0
C8765 C 0.14558 0.88017 0.67862 0.0
C8766 C 0.147 0.89179 0.67593 0.0
C8767 C 0.15757 0.89713 0.67785 0.0
C8768 C 0.13458 0.87427 0.67668 0.0
C8769 C 0.12545 0.8766 0.68412 0.0
C8770 C 0.13382 0.86504 0.66889 0.0
C8771 C 0.14304 0.8627 0.66042 0.0
C8772 C 0.14682 0.87141 0.65298 0.0
C8773 C 0.15556 0.86924 0.64508 0.0
C8774 C 0.16056 0.85837 0.64449 0.0
C8775 C 0.15682 0.84965 0.6518 0.0
C8776 C 0.14809 0.85178 0.65973 0.0
C8777 C 0.09574 0.83414 0.67387 0.0
C8778 C 0.09695 0.82853 0.68448 0.0
C8779 C 0.10143 0.84448 0.67181 0.0
C8780 C 0.10821 0.84946 0.6804 0.0
C8781 C 0.10894 0.84416 0.69117 0.0
C8782 C 0.10339 0.83378 0.69319 0.0
C8783 C 0.11582 0.85925 0.67781 0.0
C8784 C 0.12441 0.85761 0.66955 0.0
C8785 C 0.11599 0.86918 0.68477 0.0
C8786 C 0.10659 0.8717 0.69299 0.0
C8787 C 0.10905 0.87444 0.70447 0.0
C8788 C 0.10016 0.87677 0.71217 0.0
C8789 C 0.08877 0.87641 0.70849 0.0
C8790 C 0.08624 0.87374 0.69709 0.0
C8791 C 0.0951 0.87141 0.68936 0.0
H8792 H 0.08191 0.87821 0.71446 0.0
H8793 H 0.16733 0.8567 0.63836 0.0
H8794 H 0.16971 0.10903 0.70146 0.0
H8795 H 0.15109 0.11835 0.70054 0.0
H8796 H 0.14216 0.09807 0.67092 0.0
H8797 H 0.16094 0.08866 0.67173 0.0
H8798 H 0.13789 0.1207 0.66765 0.0
H8799 H 0.12782 0.09318 0.69528 0.0
H8800 H 0.12992 0.0809 0.71236 0.0
H8801 H 0.13067 0.1107 0.73394 0.0
H8802 H 0.12875 0.12318 0.717 0.0
H8803 H 0.09058 0.15966 0.67378 0.0
H8804 H 0.09957 0.14071 0.67237 0.0
H8805 H 0.1214 0.14897 0.70107 0.0
H8806 H 0.11247 0.16773 0.70261 0.0
H8807 H 0.11365 0.12684 0.70206 0.0
H8808 H 0.13015 0.15323 0.67323 0.0
H8809 H 0.12855 0.16552 0.65608 0.0
H8810 H 0.11541 0.1371 0.63672 0.0
H8811 H 0.11683 0.12468 0.65381 0.0
C8812 C 0.16379 0.10646 0.69478 0.0
C8813 C 0.16683 0.09813 0.68665 0.0
C8814 C 0.15309 0.11173 0.69434 0.0
C8815 C 0.14518 0.10876 0.68578 0.0
C8816 C 0.14812 0.10039 0.67766 0.0
C8817 C 0.15885 0.09505 0.67813 0.0
C8818 C 0.1343 0.11521 0.68493 0.0
C8819 C 0.13235 0.12178 0.67504 0.0
C8820 C 0.12705 0.11657 0.69455 0.0
C8821 C 0.12815 0.10913 0.70484 0.0
C8822 C 0.1285 0.09713 0.70366 0.0
C8823 C 0.12965 0.09013 0.71332 0.0
C8824 C 0.13043 0.09502 0.72423 0.0
C8825 C 0.13004 0.10692 0.72549 0.0
C8826 C 0.1289 0.11397 0.71586 0.0
C8827 C 0.0972 0.15737 0.67987 0.0
C8828 C 0.10091 0.16525 0.68823 0.0
C8829 C 0.10231 0.14655 0.67905 0.0
C8830 C 0.11118 0.14348 0.68658 0.0
C8831 C 0.11453 0.15115 0.69521 0.0
C8832 C 0.10947 0.16192 0.69602 0.0
C8833 C 0.11779 0.13278 0.68509 0.0
C8834 C 0.1189 0.1254 0.69452 0.0
C8835 C 0.12424 0.13063 0.67504 0.0
C8836 C 0.12346 0.13809 0.6648 0.0
C8837 C 0.12686 0.14964 0.66532 0.0
C8838 C 0.12599 0.15662 0.65562 0.0
C8839 C 0.12184 0.1521 0.64532 0.0
C8840 C 0.11859 0.14059 0.6447 0.0
C8841 C 0.11942 0.13358 0.65439 0.0
H8842 H 0.12118 0.15752 0.63782 0.0
H8843 H 0.13132 0.08959 0.7317 0.0
H8844 H 0.90315 0.16012 0.67356 0.0
H8845 H 0.89376 0.1413 0.67377 0.0
H8846 H 0.87028 0.15334 0.69969 0.0
H8847 H 0.8796 0.17195 0.69967 0.0
H8848 H 0.87767 0.13178 0.70426 0.0
H8849 H 0.86348 0.15342 0.67066 0.0
H8850 H 0.86636 0.16299 0.652 0.0
H8851 H 0.88067 0.13202 0.63814 0.0
H8852 H 0.87798 0.12233 0.65677 0.0
H8853 H 0.82218 0.11197 0.70241 0.0
H8854 H 0.84057 0.12174 0.70161 0.0
H8855 H 0.85203 0.09845 0.67526 0.0
H8856 H 0.83347 0.08864 0.67588 0.0
H8857 H 0.85618 0.12019 0.66945 0.0
H8858 H 0.86451 0.09723 0.70155 0.0
H8859 H 0.86129 0.08755 0.72006 0.0
H8860 H 0.85842 0.12018 0.73685 0.0
H8861 H 0.86144 0.13007 0.71842 0.0
C8862 C 0.89602 0.15872 0.67935 0.0
C8863 C 0.89206 0.16756 0.68654 0.0
C8864 C 0.8907 0.14796 0.67946 0.0
C8865 C 0.88131 0.14595 0.68672 0.0
C8866 C 0.87756 0.15468 0.69407 0.0
C8867 C 0.88286 0.16536 0.69399 0.0
C8868 C 0.87477 0.1351 0.68634 0.0
C8869 C 0.87301 0.12917 0.69665 0.0
C8870 C 0.86912 0.13138 0.67628 0.0
C8871 C 0.87067 0.13721 0.66511 0.0
C8872 C 0.86731 0.14869 0.66364 0.0
C8873 C 0.8689 0.15413 0.65308 0.0
C8874 C 0.87373 0.14813 0.6439 0.0
C8875 C 0.87696 0.13667 0.64526 0.0
C8876 C 0.8754 0.1312 0.65581 0.0
C8877 C 0.82861 0.10883 0.6965 0.0
C8878 C 0.82633 0.09955 0.68918 0.0
C8879 C 0.83918 0.11436 0.69613 0.0
C8880 C 0.84774 0.11069 0.68851 0.0
C8881 C 0.84557 0.10135 0.68126 0.0
C8882 C 0.83496 0.09578 0.68163 0.0
C8883 C 0.85849 0.11736 0.68757 0.0
C8884 C 0.86111 0.12246 0.677 0.0
C8885 C 0.86496 0.12028 0.6974 0.0
C8886 C 0.8632 0.1144 0.70857 0.0
C8887 C 0.86313 0.10235 0.70917 0.0
C8888 C 0.86135 0.09683 0.71966 0.0
C8889 C 0.85965 0.10325 0.72962 0.0
C8890 C 0.85975 0.11522 0.72912 0.0
C8891 C 0.86153 0.12079 0.71866 0.0
H8892 H 0.85826 0.09896 0.73773 0.0
H8893 H 0.87495 0.15235 0.63573 0.0
H8894 H 0.90095 0.83004 0.67057 0.0
H8895 H 0.89046 0.84798 0.66755 0.0
H8896 H 0.87146 0.84213 0.69873 0.0
H8897 H 0.88187 0.8243 0.70185 0.0
H8898 H 0.86767 0.84987 0.66423 0.0
H8899 H 0.86484 0.8669 0.71132 0.0
H8900 H 0.87735 0.86838 0.72829 0.0
H8901 H 0.90713 0.8671 0.7067 0.0
H8902 H 0.89481 0.86579 0.68958 0.0
H8903 H 0.81572 0.8731 0.68288 0.0
H8904 H 0.83401 0.86306 0.68087 0.0
H8905 H 0.85145 0.89537 0.6765 0.0
H8906 H 0.83307 0.90551 0.67821 0.0
H8907 H 0.86067 0.87941 0.69405 0.0
H8908 H 0.8519 0.88174 0.65462 0.0
H8909 H 0.83991 0.88077 0.63726 0.0
H8910 H 0.83476 0.84471 0.64259 0.0
H8911 H 0.84658 0.84549 0.66011 0.0
C8912 C 0.89464 0.83266 0.67686 0.0
C8913 C 0.89218 0.82571 0.68642 0.0
C8914 C 0.88868 0.8429 0.67512 0.0
C8915 C 0.88029 0.84643 0.68297 0.0
C8916 C 0.87805 0.83967 0.69267 0.0
C8917 C 0.88394 0.82942 0.69438 0.0
C8918 C 0.873 0.85653 0.68062 0.0
C8919 C 0.86626 0.85644 0.67066 0.0
C8920 C 0.87141 0.86527 0.68888 0.0
C8921 C 0.87888 0.8662 0.69915 0.0
C8922 C 0.87405 0.86702 0.71017 0.0
C8923 C 0.88111 0.8678 0.71983 0.0
C8924 C 0.89302 0.86781 0.71858 0.0
C8925 C 0.8979 0.86706 0.70766 0.0
C8926 C 0.89088 0.86628 0.69798 0.0
C8927 C 0.82343 0.87806 0.68143 0.0
C8928 C 0.823 0.89007 0.68073 0.0
C8929 C 0.83384 0.87233 0.68022 0.0
C8930 C 0.844 0.87851 0.67847 0.0
C8931 C 0.84365 0.8905 0.67778 0.0
C8932 C 0.83318 0.89624 0.67875 0.0
C8933 C 0.85498 0.87227 0.67802 0.0
C8934 C 0.86235 0.87305 0.68747 0.0
C8935 C 0.85725 0.86426 0.66924 0.0
C8936 C 0.85009 0.8637 0.65873 0.0
C8937 C 0.84813 0.87362 0.65216 0.0
C8938 C 0.84138 0.8731 0.64227 0.0
C8939 C 0.83656 0.86269 0.63883 0.0
C8940 C 0.8385 0.85277 0.64527 0.0
C8941 C 0.84524 0.85325 0.65517 0.0
H8942 H 0.83134 0.8623 0.63117 0.0
H8943 H 0.89847 0.86842 0.72606 0.0
H8944 H 0.29538 0.16959 0.11288 0.0
H8945 H 0.29649 0.15064 0.1215 0.0
H8946 H 0.32019 0.13984 0.09526 0.0
H8947 H 0.31932 0.159 0.08659 0.0
H8948 H 0.29172 0.12844 0.11115 0.0
H8949 H 0.33581 0.12661 0.10524 0.0
H8950 H 0.35386 0.13755 0.10333 0.0
H8951 H 0.34481 0.15785 0.13269 0.0
H8952 H 0.32668 0.14706 0.13467 0.0
H8953 H 0.31947 0.08866 0.15895 0.0
H8954 H 0.32077 0.09745 0.13989 0.0
H8955 H 0.29263 0.1199 0.14838 0.0
H8956 H 0.29118 0.11117 0.16723 0.0
H8957 H 0.32577 0.11936 0.13496 0.0
H8958 H 0.27673 0.12617 0.12628 0.0
H8959 H 0.25875 0.11533 0.12855 0.0
H8960 H 0.27751 0.08367 0.12803 0.0
H8961 H 0.29561 0.0943 0.12557 0.0
C8962 C 0.30083 0.16322 0.10889 0.0
C8963 C 0.3073 0.16584 0.09907 0.0
C8964 C 0.30142 0.15237 0.11381 0.0
C8965 C 0.30846 0.14388 0.10904 0.0
C8966 C 0.31482 0.14634 0.09914 0.0
C8967 C 0.31428 0.15727 0.0942 0.0
C8968 C 0.30925 0.13271 0.11495 0.0
C8969 C 0.2992 0.12624 0.11622 0.0
C8970 C 0.31914 0.12964 0.12118 0.0
C8971 C 0.32995 0.13611 0.12005 0.0
C8972 C 0.3377 0.13343 0.11126 0.0
C8973 C 0.34792 0.1396 0.11016 0.0
C8974 C 0.35047 0.1484 0.11788 0.0
C8975 C 0.34281 0.15105 0.12671 0.0
C8976 C 0.33257 0.14492 0.12782 0.0
C8977 C 0.31347 0.09538 0.15668 0.0
C8978 C 0.30524 0.09924 0.16462 0.0
C8979 C 0.31423 0.10037 0.1458 0.0
C8980 C 0.30668 0.10919 0.14265 0.0
C8981 C 0.29837 0.11291 0.15051 0.0
C8982 C 0.29762 0.10798 0.16135 0.0
C8983 C 0.308 0.11539 0.13165 0.0
C8984 C 0.31842 0.12101 0.12951 0.0
C8985 C 0.29847 0.11751 0.12445 0.0
C8986 C 0.28756 0.11105 0.12575 0.0
C8987 C 0.27703 0.11689 0.12654 0.0
C8988 C 0.26681 0.11078 0.12789 0.0
C8989 C 0.26699 0.09882 0.12844 0.0
C8990 C 0.27739 0.09294 0.12762 0.0
C8991 C 0.28763 0.099 0.12627 0.0
H8992 H 0.25906 0.0941 0.12949 0.0
H8993 H 0.35839 0.15316 0.11703 0.0
H8994 H 0.88611 0.28868 0.168 0.0
H8995 H 0.87623 0.28995 0.14969 0.0
H8996 H 0.89189 0.32284 0.14329 0.0
H8997 H 0.90186 0.32167 0.16177 0.0
H8998 H 0.86901 0.32355 0.14038 0.0
H8999 H 0.89903 0.30068 0.12629 0.0
H9000 H 0.91326 0.28507 0.12584 0.0
H9001 H 0.88621 0.26013 0.12496 0.0
H9002 H 0.87179 0.27557 0.12558 0.0
H9003 H 0.832 0.32015 0.09152 0.0
H9004 H 0.85036 0.32161 0.10161 0.0
H9005 H 0.8431 0.29003 0.11943 0.0
H9006 H 0.82482 0.28847 0.10942 0.0
H9007 H 0.86589 0.2917 0.11235 0.0
H9008 H 0.83682 0.31521 0.13168 0.0
H9009 H 0.82271 0.33096 0.13229 0.0
H9010 H 0.84892 0.35503 0.12284 0.0
H9011 H 0.86315 0.33937 0.12205 0.0
C9012 C 0.88759 0.29614 0.16267 0.0
C9013 C 0.89471 0.30512 0.16638 0.0
C9014 C 0.882 0.2968 0.15214 0.0
C9015 C 0.88343 0.30643 0.14507 0.0
C9016 C 0.89075 0.31531 0.1486 0.0
C9017 C 0.89642 0.31462 0.15914 0.0
C9018 C 0.8763 0.30756 0.13463 0.0
C9019 C 0.86857 0.31676 0.13403 0.0
C9020 C 0.87569 0.29868 0.12639 0.0
C9021 C 0.88431 0.28931 0.12603 0.0
C9022 C 0.8961 0.29186 0.12609 0.0
C9023 C 0.90421 0.28304 0.12578 0.0
C9024 C 0.90064 0.27162 0.12538 0.0
C9025 C 0.88896 0.26899 0.12526 0.0
C9026 C 0.88081 0.27777 0.12557 0.0
C9027 C 0.83437 0.31345 0.0975 0.0
C9028 C 0.8269 0.30425 0.09977 0.0
C9029 C 0.84486 0.3143 0.10323 0.0
C9030 C 0.84803 0.30596 0.11129 0.0
C9031 C 0.84081 0.29653 0.11321 0.0
C9032 C 0.83032 0.2957 0.10754 0.0
C9033 C 0.85835 0.30737 0.1185 0.0
C9034 C 0.86664 0.29866 0.11847 0.0
C9035 C 0.85954 0.31673 0.12612 0.0
C9036 C 0.851 0.32612 0.12666 0.0
C9037 C 0.83954 0.32385 0.12965 0.0
C9038 C 0.83153 0.33276 0.13004 0.0
C9039 C 0.83491 0.34398 0.12757 0.0
C9040 C 0.84631 0.34633 0.12473 0.0
C9041 C 0.85435 0.33744 0.12431 0.0
H9042 H 0.82869 0.35087 0.12787 0.0
H9043 H 0.90694 0.2648 0.12515 0.0
H9044 H 0.70186 0.88732 0.16645 0.0
H9045 H 0.70018 0.87743 0.14813 0.0
H9046 H 0.66602 0.8909 0.14378 0.0
H9047 H 0.66765 0.90095 0.16219 0.0
H9048 H 0.66716 0.8675 0.14091 0.0
H9049 H 0.68569 0.89991 0.12573 0.0
H9050 H 0.6997 0.91568 0.12449 0.0
H9051 H 0.72711 0.89132 0.12129 0.0
H9052 H 0.7133 0.8754 0.12269 0.0
H9053 H 0.67076 0.83071 0.09206 0.0
H9054 H 0.66813 0.8491 0.10188 0.0
H9055 H 0.70162 0.84572 0.11718 0.0
H9056 H 0.70435 0.82746 0.10742 0.0
H9057 H 0.69689 0.86806 0.11049 0.0
H9058 H 0.6783 0.83655 0.1313 0.0
H9059 H 0.66434 0.82074 0.13299 0.0
H9060 H 0.63683 0.84403 0.12551 0.0
H9061 H 0.65067 0.85995 0.12365 0.0
C9062 C 0.69402 0.88829 0.16156 0.0
C9063 C 0.68486 0.89486 0.1658 0.0
C9064 C 0.69311 0.88271 0.15104 0.0
C9065 C 0.68302 0.88355 0.14455 0.0
C9066 C 0.6739 0.89024 0.14864 0.0
C9067 C 0.67486 0.89595 0.15914 0.0
C9068 C 0.6818 0.87648 0.1341 0.0
C9069 C 0.67344 0.86784 0.13405 0.0
C9070 C 0.69002 0.87691 0.1252 0.0
C9071 C 0.69843 0.88644 0.12435 0.0
C9072 C 0.69471 0.89791 0.12484 0.0
C9073 C 0.70262 0.90688 0.1241 0.0
C9074 C 0.71429 0.9045 0.12282 0.0
C9075 C 0.71807 0.89315 0.12227 0.0
C9076 C 0.71019 0.88414 0.12302 0.0
C9077 C 0.67763 0.83398 0.09737 0.0
C9078 C 0.68771 0.82756 0.09908 0.0
C9079 C 0.67611 0.84447 0.10297 0.0
C9080 C 0.68465 0.8487 0.11031 0.0
C9081 C 0.69494 0.84261 0.11152 0.0
C9082 C 0.69644 0.83213 0.10601 0.0
C9083 C 0.68262 0.85883 0.11766 0.0
C9084 C 0.69037 0.86801 0.11711 0.0
C9085 C 0.67382 0.85893 0.12601 0.0
C9086 C 0.66552 0.84939 0.12719 0.0
C9087 C 0.66928 0.83827 0.12993 0.0
C9088 C 0.6614 0.8293 0.13093 0.0
C9089 C 0.64971 0.83137 0.12931 0.0
C9090 C 0.64588 0.84243 0.12673 0.0
C9091 C 0.65374 0.85143 0.1257 0.0
H9092 H 0.64361 0.82442 0.13009 0.0
H9093 H 0.7204 0.91146 0.12225 0.0
H9094 H 0.1761 0.68796 0.11799 0.0
H9095 H 0.15817 0.68567 0.12855 0.0
H9096 H 0.14123 0.67436 0.09771 0.0
H9097 H 0.15929 0.67638 0.08705 0.0
H9098 H 0.12974 0.69279 0.11183 0.0
H9099 H 0.1443 0.65475 0.11384 0.0
H9100 H 0.15901 0.63984 0.11666 0.0
H9101 H 0.16355 0.65064 0.15156 0.0
H9102 H 0.14899 0.66575 0.14889 0.0
H9103 H 0.0931 0.66818 0.16337 0.0
H9104 H 0.10382 0.66549 0.14551 0.0
H9105 H 0.11838 0.69928 0.14913 0.0
H9106 H 0.1078 0.70203 0.16696 0.0
H9107 H 0.12728 0.66554 0.14442 0.0
H9108 H 0.12309 0.7105 0.12277 0.0
H9109 H 0.10822 0.72521 0.11975 0.0
H9110 H 0.08194 0.6997 0.12336 0.0
H9111 H 0.09665 0.68479 0.12623 0.0
C9112 C 0.16857 0.685 0.11344 0.0
C9113 C 0.16908 0.68236 0.1017 0.0
C9114 C 0.15836 0.68365 0.11949 0.0
C9115 C 0.14846 0.6798 0.11388 0.0
C9116 C 0.14884 0.67731 0.10214 0.0
C9117 C 0.15914 0.67844 0.0961 0.0
C9118 C 0.13775 0.6786 0.12048 0.0
C9119 C 0.12907 0.68675 0.11887 0.0
C9120 C 0.13684 0.67052 0.12945 0.0
C9121 C 0.14559 0.66143 0.13114 0.0
C9122 C 0.1485 0.65401 0.12209 0.0
C9123 C 0.1568 0.64551 0.12366 0.0
C9124 C 0.16222 0.6443 0.13428 0.0
C9125 C 0.15934 0.65159 0.14334 0.0
C9126 C 0.15105 0.66011 0.1418 0.0
C9127 C 0.09844 0.67511 0.16026 0.0
C9128 C 0.09969 0.68529 0.16662 0.0
C9129 C 0.10454 0.67355 0.15007 0.0
C9130 C 0.11181 0.68221 0.14598 0.0
C9131 C 0.11269 0.69256 0.15206 0.0
C9132 C 0.10671 0.69408 0.1623 0.0
C9133 C 0.1195 0.6801 0.13614 0.0
C9134 C 0.1277 0.67137 0.13719 0.0
C9135 C 0.11989 0.6876 0.12661 0.0
C9136 C 0.11099 0.69652 0.12478 0.0
C9137 C 0.11415 0.708 0.12285 0.0
C9138 C 0.10574 0.71639 0.12118 0.0
C9139 C 0.09415 0.7134 0.12139 0.0
C9140 C 0.09093 0.70201 0.12324 0.0
C9141 C 0.0993 0.69359 0.12491 0.0
H9142 H 0.08766 0.7199 0.1201 0.0
H9143 H 0.16865 0.63772 0.13548 0.0
H9144 H 0.32075 0.90424 0.83187 0.0
H9145 H 0.32199 0.89445 0.85045 0.0
H9146 H 0.29443 0.87192 0.84039 0.0
H9147 H 0.29304 0.88162 0.82201 0.0
H9148 H 0.29193 0.87955 0.86239 0.0
H9149 H 0.32286 0.86409 0.83787 0.0
H9150 H 0.34073 0.86624 0.82675 0.0
H9151 H 0.35785 0.87953 0.85651 0.0
H9152 H 0.34003 0.87756 0.86777 0.0
H9153 H 0.29255 0.82402 0.88129 0.0
H9154 H 0.29382 0.84239 0.8716 0.0
H9155 H 0.32213 0.85216 0.89331 0.0
H9156 H 0.32101 0.83355 0.90308 0.0
H9157 H 0.32657 0.85639 0.87092 0.0
H9158 H 0.29695 0.86601 0.89656 0.0
H9159 H 0.2792 0.86352 0.90774 0.0
H9160 H 0.25961 0.86169 0.87663 0.0
H9161 H 0.27726 0.864 0.86524 0.0
C9162 C 0.31492 0.89723 0.83365 0.0
C9163 C 0.30683 0.89366 0.82543 0.0
C9164 C 0.31565 0.89167 0.84426 0.0
C9165 C 0.30832 0.88247 0.84677 0.0
C9166 C 0.30012 0.87906 0.83866 0.0
C9167 C 0.29939 0.88458 0.8281 0.0
C9168 C 0.30934 0.87583 0.85752 0.0
C9169 C 0.29951 0.87452 0.86433 0.0
C9170 C 0.31942 0.86972 0.86036 0.0
C9171 C 0.3301 0.87082 0.8536 0.0
C9172 C 0.33042 0.86754 0.84201 0.0
C9173 C 0.34054 0.86871 0.83569 0.0
C9174 C 0.35041 0.87306 0.84091 0.0
C9175 C 0.35019 0.8762 0.85247 0.0
C9176 C 0.34009 0.87505 0.85882 0.0
C9177 C 0.29901 0.83007 0.88411 0.0
C9178 C 0.30669 0.8273 0.89296 0.0
C9179 C 0.29966 0.84063 0.87861 0.0
C9180 C 0.30793 0.84872 0.88188 0.0
C9181 C 0.31561 0.84606 0.89074 0.0
C9182 C 0.31496 0.83544 0.8963 0.0
C9183 C 0.3089 0.85953 0.8753 0.0
C9184 C 0.3191 0.86169 0.86931 0.0
C9185 C 0.29917 0.86648 0.87325 0.0
C9186 C 0.28847 0.86518 0.88004 0.0
C9187 C 0.28887 0.86502 0.89209 0.0
C9188 C 0.27882 0.86365 0.89847 0.0
C9189 C 0.26828 0.86245 0.8929 0.0
C9190 C 0.26778 0.86264 0.88094 0.0
C9191 C 0.27781 0.86401 0.87451 0.0
H9192 H 0.26051 0.86138 0.89786 0.0
H9193 H 0.35824 0.87396 0.83601 0.0
H9194 H 0.17132 0.30208 0.87502 0.0
H9195 H 0.15321 0.3062 0.86538 0.0
H9196 H 0.13996 0.32147 0.89633 0.0
H9197 H 0.15822 0.31757 0.90606 0.0
H9198 H 0.12487 0.30459 0.88375 0.0
H9199 H 0.14496 0.33968 0.87907 0.0
H9200 H 0.16172 0.35192 0.87502 0.0
H9201 H 0.1633 0.33872 0.8407 0.0
H9202 H 0.14667 0.32626 0.84459 0.0
H9203 H 0.09212 0.32974 0.82956 0.0
H9204 H 0.10228 0.33267 0.84775 0.0
H9205 H 0.11266 0.29717 0.84765 0.0
H9206 H 0.10268 0.29421 0.82954 0.0
H9207 H 0.12548 0.32988 0.84953 0.0
H9208 H 0.11526 0.28757 0.87464 0.0
H9209 H 0.09843 0.27553 0.8789 0.0
H9210 H 0.07615 0.30425 0.87309 0.0
H9211 H 0.09285 0.31653 0.86897 0.0
C9212 C 0.16455 0.30626 0.87982 0.0
C9213 C 0.1662 0.30953 0.89129 0.0
C9214 C 0.15424 0.30864 0.87429 0.0
C9215 C 0.14534 0.3142 0.88016 0.0
C9216 C 0.14678 0.31721 0.89169 0.0
C9217 C 0.1572 0.315 0.8972 0.0
C9218 C 0.13463 0.31682 0.87399 0.0
C9219 C 0.12487 0.31024 0.87636 0.0
C9220 C 0.13462 0.32446 0.8646 0.0
C9221 C 0.14459 0.332 0.86215 0.0
C9222 C 0.14893 0.33933 0.87068 0.0
C9223 C 0.1584 0.34631 0.86841 0.0
C9224 C 0.16358 0.34609 0.85761 0.0
C9225 C 0.15928 0.33889 0.84906 0.0
C9226 C 0.14982 0.33187 0.85129 0.0
C9227 C 0.09638 0.32252 0.83355 0.0
C9228 C 0.09673 0.31178 0.82808 0.0
C9229 C 0.10215 0.32421 0.84393 0.0
C9230 C 0.10812 0.31512 0.84907 0.0
C9231 C 0.10795 0.30426 0.84392 0.0
C9232 C 0.10234 0.30261 0.8335 0.0
C9233 C 0.11591 0.31714 0.85886 0.0
C9234 C 0.12522 0.32454 0.85714 0.0
C9235 C 0.11543 0.31032 0.86888 0.0
C9236 C 0.10534 0.30297 0.87146 0.0
C9237 C 0.10679 0.29135 0.87435 0.0
C9238 C 0.09726 0.28448 0.87672 0.0
C9239 C 0.08623 0.28912 0.87625 0.0
C9240 C 0.0847 0.30066 0.87342 0.0
C9241 C 0.0942 0.30757 0.87105 0.0
H9242 H 0.07886 0.28378 0.87808 0.0
H9243 H 0.17091 0.3515 0.85587 0.0
H9244 H 0.69029 0.16917 0.87603 0.0
H9245 H 0.68899 0.14973 0.86845 0.0
H9246 H 0.67813 0.13731 0.90152 0.0
H9247 H 0.67908 0.15695 0.90919 0.0
H9248 H 0.70057 0.12718 0.88331 0.0
H9249 H 0.66031 0.12926 0.89261 0.0
H9250 H 0.64181 0.13929 0.89471 0.0
H9251 H 0.64216 0.14781 0.8589 0.0
H9252 H 0.66077 0.13799 0.85664 0.0
H9253 H 0.67372 0.08627 0.83575 0.0
H9254 H 0.67253 0.09482 0.85489 0.0
H9255 H 0.70029 0.11772 0.84635 0.0
H9256 H 0.70167 0.10918 0.8274 0.0
H9257 H 0.66696 0.11619 0.85968 0.0
H9258 H 0.71566 0.12519 0.86837 0.0
H9259 H 0.73408 0.11507 0.86631 0.0
H9260 H 0.71663 0.08268 0.86717 0.0
H9261 H 0.6981 0.09259 0.86942 0.0
C9262 C 0.6876 0.16233 0.88171 0.0
C9263 C 0.68478 0.16457 0.8932 0.0
C9264 C 0.68685 0.15125 0.87737 0.0
C9265 C 0.68341 0.14217 0.88443 0.0
C9266 C 0.68069 0.14427 0.89595 0.0
C9267 C 0.68124 0.15546 0.90028 0.0
C9268 C 0.68289 0.1306 0.87942 0.0
C9269 C 0.69318 0.12451 0.87833 0.0
C9270 C 0.67313 0.12706 0.87323 0.0
C9271 C 0.66198 0.13301 0.8745 0.0
C9272 C 0.6565 0.13339 0.88522 0.0
C9273 C 0.64598 0.13901 0.88643 0.0
C9274 C 0.64083 0.14421 0.87695 0.0
C9275 C 0.64617 0.14379 0.86624 0.0
C9276 C 0.6567 0.13819 0.86499 0.0
C9277 C 0.67968 0.09301 0.83802 0.0
C9278 C 0.68775 0.09709 0.83002 0.0
C9279 C 0.679 0.09786 0.84897 0.0
C9280 C 0.68643 0.10678 0.85212 0.0
C9281 C 0.69465 0.11065 0.84423 0.0
C9282 C 0.69535 0.10583 0.83333 0.0
C9283 C 0.68487 0.11307 0.86304 0.0
C9284 C 0.67423 0.11831 0.86507 0.0
C9285 C 0.69429 0.11567 0.87024 0.0
C9286 C 0.70546 0.10966 0.86907 0.0
C9287 C 0.71574 0.11591 0.86823 0.0
C9288 C 0.72621 0.1102 0.867 0.0
C9289 C 0.72652 0.09824 0.8666 0.0
C9290 C 0.71637 0.09195 0.86746 0.0
C9291 C 0.70588 0.09761 0.8687 0.0
H9292 H 0.73464 0.09384 0.86564 0.0
H9293 H 0.63268 0.14854 0.8779 0.0
H9294 H 0.87298 0.68239 0.81261 0.0
H9295 H 0.86152 0.68295 0.83009 0.0
H9296 H 0.89243 0.68287 0.85045 0.0
H9297 H 0.90395 0.68161 0.83287 0.0
H9298 H 0.87684 0.67149 0.86134 0.0
H9299 H 0.87804 0.70824 0.84445 0.0
H9300 H 0.87679 0.72272 0.82909 0.0
H9301 H 0.84106 0.71513 0.82458 0.0
H9302 H 0.84213 0.70049 0.8398 0.0
H9303 H 0.82799 0.70695 0.89364 0.0
H9304 H 0.84519 0.7061 0.88169 0.0
H9305 H 0.8416 0.66929 0.87932 0.0
H9306 H 0.825 0.67011 0.89202 0.0
H9307 H 0.8467 0.70149 0.8615 0.0
H9308 H 0.86514 0.65572 0.87125 0.0
H9309 H 0.86851 0.64331 0.88803 0.0
H9310 H 0.86874 0.67281 0.91005 0.0
H9311 H 0.86554 0.68542 0.89339 0.0
C9312 C 0.87731 0.68234 0.82083 0.0
C9313 C 0.88931 0.68211 0.82144 0.0
C9314 C 0.87078 0.68272 0.8308 0.0
C9315 C 0.87613 0.68333 0.84157 0.0
C9316 C 0.88813 0.6825 0.84223 0.0
C9317 C 0.89469 0.6818 0.83221 0.0
C9318 C 0.86913 0.68541 0.85198 0.0
C9319 C 0.87028 0.67808 0.86145 0.0
C9320 C 0.86093 0.69434 0.85233 0.0
C9321 C 0.86019 0.70322 0.84323 0.0
C9322 C 0.86993 0.70962 0.84014 0.0
C9323 C 0.86925 0.71786 0.83146 0.0
C9324 C 0.85886 0.71983 0.82585 0.0
C9325 C 0.84911 0.71359 0.82893 0.0
C9326 C 0.84974 0.70533 0.8376 0.0
C9327 C 0.83107 0.69868 0.89075 0.0
C9328 C 0.82523 0.6886 0.8937 0.0
C9329 C 0.84087 0.69818 0.8839 0.0
C9330 C 0.8448 0.68762 0.8796 0.0
C9331 C 0.83902 0.67752 0.88275 0.0
C9332 C 0.82945 0.67799 0.88992 0.0
C9333 C 0.85406 0.6873 0.87083 0.0
C9334 C 0.85335 0.69499 0.8616 0.0
C9335 C 0.86298 0.67904 0.87099 0.0
C9336 C 0.86502 0.67151 0.88106 0.0
C9337 C 0.86598 0.65957 0.87966 0.0
C9338 C 0.86784 0.6525 0.88915 0.0
C9339 C 0.86881 0.65727 0.9001 0.0
C9340 C 0.86795 0.66912 0.90157 0.0
C9341 C 0.86609 0.67624 0.8921 0.0
H9342 H 0.87025 0.65178 0.90744 0.0
H9343 H 0.85835 0.72621 0.81914 0.0
H9344 H 0.17422 0.29338 0.11449 0.0
H9345 H 0.15634 0.29418 0.12521 0.0
H9346 H 0.14422 0.32145 0.10337 0.0
H9347 H 0.16223 0.32078 0.09255 0.0
H9348 H 0.14083 0.32605 0.12615 0.0
H9349 H 0.13221 0.2958 0.10058 0.0
H9350 H 0.13546 0.27798 0.08969 0.0
H9351 H 0.13796 0.25899 0.12113 0.0
H9352 H 0.13489 0.27672 0.13222 0.0
H9353 H 0.0907 0.32069 0.16162 0.0
H9354 H 0.10212 0.32137 0.14399 0.0
H9355 H 0.12326 0.29378 0.15663 0.0
H9356 H 0.11188 0.29291 0.17407 0.0
H9357 H 0.11824 0.29092 0.13425 0.0
H9358 H 0.13126 0.32215 0.15918 0.0
H9359 H 0.12839 0.34005 0.17008 0.0
H9360 H 0.11748 0.35719 0.13937 0.0
H9361 H 0.12017 0.33934 0.12833 0.0
C9362 C 0.16776 0.29954 0.11191 0.0
C9363 C 0.16966 0.30701 0.10265 0.0
C9364 C 0.1575 0.29992 0.118 0.0
C9365 C 0.14889 0.30775 0.11496 0.0
C9366 C 0.15074 0.31529 0.10578 0.0
C9367 C 0.16102 0.31489 0.09962 0.0
C9368 C 0.13824 0.30827 0.12183 0.0
C9369 C 0.13569 0.31845 0.12771 0.0
C9370 C 0.13158 0.29835 0.12386 0.0
C9371 C 0.13336 0.28762 0.11724 0.0
C9372 C 0.13352 0.28784 0.10518 0.0
C9373 C 0.13533 0.27774 0.09897 0.0
C9374 C 0.13693 0.26736 0.10472 0.0
C9375 C 0.13671 0.26704 0.11669 0.0
C9376 C 0.13492 0.27711 0.12294 0.0
C9377 C 0.09773 0.31472 0.16059 0.0
C9378 C 0.10043 0.3068 0.16929 0.0
C9379 C 0.10424 0.31513 0.15053 0.0
C9380 C 0.11358 0.30768 0.14905 0.0
C9381 C 0.11607 0.29958 0.15758 0.0
C9382 C 0.10958 0.29915 0.16759 0.0
C9383 C 0.12123 0.30851 0.13896 0.0
C9384 C 0.12318 0.29859 0.13245 0.0
C9385 C 0.12732 0.31867 0.13634 0.0
C9386 C 0.12577 0.32939 0.14297 0.0
C9387 C 0.12817 0.32972 0.15478 0.0
C9388 C 0.12659 0.33985 0.16097 0.0
C9389 C 0.12271 0.34974 0.15543 0.0
C9390 C 0.12045 0.34952 0.14366 0.0
C9391 C 0.122 0.3394 0.13743 0.0
H9392 H 0.12149 0.35758 0.16024 0.0
H9393 H 0.13832 0.25956 0.09989 0.0
H9394 H 0.16051 0.67033 0.90348 0.0
H9395 H 0.14143 0.66892 0.89472 0.0
H9396 H 0.14886 0.69854 0.87385 0.0
H9397 H 0.16774 0.70007 0.88253 0.0
H9398 H 0.12678 0.69885 0.88221 0.0
H9399 H 0.15337 0.67119 0.86392 0.0
H9400 H 0.16591 0.65416 0.8646 0.0
H9401 H 0.13799 0.63389 0.87745 0.0
H9402 H 0.12532 0.65085 0.87695 0.0
H9403 H 0.10918 0.7008 0.8263 0.0
H9404 H 0.11793 0.69929 0.84513 0.0
H9405 H 0.09857 0.66851 0.85192 0.0
H9406 H 0.08975 0.6699 0.83288 0.0
H9407 H 0.12092 0.66555 0.85641 0.0
H9408 H 0.09304 0.69209 0.86792 0.0
H9409 H 0.08039 0.70898 0.86685 0.0
H9410 H 0.10971 0.73123 0.86728 0.0
H9411 H 0.12256 0.71448 0.86817 0.0
C9412 C 0.15802 0.67661 0.89711 0.0
C9413 C 0.16569 0.68525 0.89361 0.0
C9414 C 0.14712 0.67579 0.89214 0.0
C9415 C 0.14377 0.68361 0.88362 0.0
C9416 C 0.15126 0.69246 0.88046 0.0
C9417 C 0.1621 0.69326 0.88537 0.0
C9418 C 0.13296 0.68222 0.87716 0.0
C9419 C 0.12539 0.69155 0.87662 0.0
C9420 C 0.13087 0.67245 0.8703 0.0
C9421 C 0.13846 0.66229 0.87053 0.0
C9422 C 0.14994 0.66311 0.86695 0.0
C9423 C 0.15706 0.65347 0.8673 0.0
C9424 C 0.15276 0.64296 0.87111 0.0
C9425 C 0.14132 0.64205 0.87454 0.0
C9426 C 0.13417 0.65166 0.87422 0.0
C9427 C 0.10666 0.69376 0.83181 0.0
C9428 C 0.09881 0.68543 0.82805 0.0
C9429 C 0.11159 0.69298 0.84264 0.0
C9430 C 0.10877 0.68389 0.85001 0.0
C9431 C 0.10078 0.67565 0.8464 0.0
C9432 C 0.09577 0.67645 0.83552 0.0
C9433 C 0.11518 0.68255 0.86087 0.0
C9434 C 0.12192 0.67269 0.86229 0.0
C9435 C 0.11645 0.69182 0.86859 0.0
C9436 C 0.10878 0.70199 0.86811 0.0
C9437 C 0.09681 0.70058 0.86773 0.0
C9438 C 0.08959 0.71013 0.86716 0.0
C9439 C 0.09424 0.72117 0.867 0.0
C9440 C 0.10612 0.72267 0.86742 0.0
C9441 C 0.11337 0.71315 0.86799 0.0
H9442 H 0.08865 0.72855 0.86655 0.0
H9443 H 0.15829 0.63551 0.87137 0.0
H9444 H 0.29137 0.1642 0.8873 0.0
H9445 H 0.29353 0.14582 0.87771 0.0
H9446 H 0.32804 0.14288 0.8907 0.0
H9447 H 0.32594 0.16144 0.90041 0.0
H9448 H 0.32706 0.13995 0.86768 0.0
H9449 H 0.30872 0.12362 0.8995 0.0
H9450 H 0.29474 0.12155 0.9152 0.0
H9451 H 0.26744 0.1182 0.89074 0.0
H9452 H 0.28122 0.12042 0.87488 0.0
H9453 H 0.32421 0.09117 0.83027 0.0
H9454 H 0.32655 0.10098 0.84869 0.0
H9455 H 0.29348 0.11696 0.84441 0.0
H9456 H 0.29109 0.10728 0.82601 0.0
H9457 H 0.29783 0.10904 0.8671 0.0
H9458 H 0.31637 0.1311 0.83637 0.0
H9459 H 0.33047 0.13339 0.82076 0.0
H9460 H 0.35783 0.12554 0.84411 0.0
H9461 H 0.34386 0.12307 0.85982 0.0
C9462 C 0.29938 0.15959 0.88827 0.0
C9463 C 0.30852 0.16431 0.89453 0.0
C9464 C 0.30056 0.14902 0.88287 0.0
C9465 C 0.31091 0.14293 0.8836 0.0
C9466 C 0.31996 0.14742 0.89012 0.0
C9467 C 0.31874 0.15801 0.89565 0.0
C9468 C 0.31248 0.13262 0.87637 0.0
C9469 C 0.3209 0.13297 0.86779 0.0
C9470 C 0.30442 0.12355 0.87648 0.0
C9471 C 0.29603 0.12222 0.88598 0.0
C9472 C 0.29972 0.12252 0.89746 0.0
C9473 C 0.29183 0.12131 0.9064 0.0
C9474 C 0.28021 0.11975 0.90397 0.0
C9475 C 0.27645 0.11939 0.8926 0.0
C9476 C 0.28431 0.1206 0.88363 0.0
C9477 C 0.31738 0.09666 0.83332 0.0
C9478 C 0.3075 0.09855 0.82664 0.0
C9479 C 0.31874 0.10224 0.84384 0.0
C9480 C 0.3102 0.10969 0.84786 0.0
C9481 C 0.30014 0.11119 0.84145 0.0
C9482 C 0.29883 0.10573 0.8309 0.0
C9483 C 0.31201 0.11677 0.8582 0.0
C9484 C 0.30423 0.11578 0.86731 0.0
C9485 C 0.3207 0.12521 0.85863 0.0
C9486 C 0.32908 0.12675 0.84921 0.0
C9487 C 0.32539 0.12977 0.83814 0.0
C9488 C 0.33335 0.13112 0.82929 0.0
C9489 C 0.34504 0.12957 0.83143 0.0
C9490 C 0.34878 0.12671 0.84245 0.0
C9491 C 0.34084 0.12533 0.85133 0.0
H9492 H 0.35119 0.13062 0.82457 0.0
H9493 H 0.27411 0.11881 0.9109 0.0
H9494 H 0.87722 0.29616 0.82526 0.0
H9495 H 0.86825 0.29928 0.84388 0.0
H9496 H 0.89763 0.31872 0.85504 0.0
H9497 H 0.90667 0.31587 0.83622 0.0
H9498 H 0.88286 0.29643 0.86962 0.0
H9499 H 0.88464 0.33618 0.85652 0.0
H9500 H 0.88367 0.35099 0.84145 0.0
H9501 H 0.84942 0.34043 0.83304 0.0
H9502 H 0.85027 0.32543 0.84795 0.0
H9503 H 0.83133 0.3247 0.90368 0.0
H9504 H 0.85011 0.32643 0.89441 0.0
H9505 H 0.84508 0.29361 0.87813 0.0
H9506 H 0.82636 0.29184 0.88724 0.0
H9507 H 0.8533 0.32701 0.87101 0.0
H9508 H 0.87024 0.28002 0.87567 0.0
H9509 H 0.87091 0.26496 0.89048 0.0
H9510 H 0.86799 0.29046 0.91685 0.0
H9511 H 0.86749 0.3057 0.90223 0.0
C9512 C 0.88185 0.30102 0.83167 0.0
C9513 C 0.89263 0.30581 0.82924 0.0
C9514 C 0.87671 0.3028 0.84229 0.0
C9515 C 0.88228 0.30927 0.85072 0.0
C9516 C 0.89321 0.31375 0.84855 0.0
C9517 C 0.89833 0.31211 0.83783 0.0
C9518 C 0.87619 0.31158 0.86151 0.0
C9519 C 0.87655 0.30324 0.87014 0.0
C9520 C 0.86816 0.32061 0.86218 0.0
C9521 C 0.86757 0.32963 0.85326 0.0
C9522 C 0.87695 0.33694 0.85137 0.0
C9523 C 0.87641 0.34539 0.84288 0.0
C9524 C 0.8665 0.34663 0.83627 0.0
C9525 C 0.85709 0.33945 0.83816 0.0
C9526 C 0.8576 0.33098 0.84663 0.0
C9527 C 0.8343 0.31779 0.89823 0.0
C9528 C 0.82734 0.30817 0.89611 0.0
C9529 C 0.84502 0.31879 0.89298 0.0
C9530 C 0.84902 0.31009 0.88572 0.0
C9531 C 0.84223 0.30033 0.88387 0.0
C9532 C 0.83148 0.29939 0.88899 0.0
C9533 C 0.85964 0.31159 0.87898 0.0
C9534 C 0.85996 0.32052 0.87095 0.0
C9535 C 0.86837 0.30317 0.87897 0.0
C9536 C 0.8688 0.29402 0.88782 0.0
C9537 C 0.86983 0.28243 0.88463 0.0
C9538 C 0.87016 0.27386 0.89299 0.0
C9539 C 0.86948 0.27675 0.9046 0.0
C9540 C 0.86849 0.28823 0.90786 0.0
C9541 C 0.86817 0.29684 0.89953 0.0
H9542 H 0.86973 0.27009 0.91106 0.0
H9543 H 0.86609 0.35318 0.82971 0.0
H9544 H 0.67415 0.90421 0.83479 0.0
H9545 H 0.67104 0.89341 0.8526 0.0
H9546 H 0.68912 0.86454 0.83823 0.0
H9547 H 0.69235 0.8752 0.82057 0.0
H9548 H 0.66787 0.85886 0.84849 0.0
H9549 H 0.70263 0.88122 0.85606 0.0
H9550 H 0.71326 0.89938 0.85826 0.0
H9551 H 0.68996 0.91002 0.8847 0.0
H9552 H 0.67911 0.89196 0.88255 0.0
H9553 H 0.69997 0.82519 0.88569 0.0
H9554 H 0.6964 0.84278 0.87503 0.0
H9555 H 0.66549 0.84856 0.89441 0.0
H9556 H 0.66888 0.83078 0.90515 0.0
H9557 H 0.68794 0.8687 0.8847 0.0
H9558 H 0.65275 0.84577 0.87685 0.0
H9559 H 0.6433 0.82696 0.87462 0.0
H9560 H 0.66787 0.81749 0.84889 0.0
H9561 H 0.67753 0.83621 0.85108 0.0
C9562 C 0.67746 0.89557 0.83545 0.0
C9563 C 0.68352 0.89056 0.82628 0.0
C9564 C 0.67568 0.88943 0.84561 0.0
C9565 C 0.67982 0.87819 0.84666 0.0
C9566 C 0.68581 0.8732 0.83752 0.0
C9567 C 0.68771 0.87933 0.82746 0.0
C9568 C 0.67813 0.87147 0.85726 0.0
C9569 C 0.67204 0.86114 0.85648 0.0
C9570 C 0.68343 0.87454 0.86773 0.0
C9571 C 0.68998 0.88533 0.86903 0.0
C9572 C 0.69972 0.88748 0.86226 0.0
C9573 C 0.70579 0.89774 0.86352 0.0
C9574 C 0.70226 0.90587 0.87159 0.0
C9575 C 0.69267 0.90373 0.87844 0.0
C9576 C 0.68656 0.89349 0.87721 0.0
C9577 C 0.6925 0.83026 0.88786 0.0
C9578 C 0.68462 0.82648 0.89616 0.0
C9579 C 0.69052 0.84035 0.8818 0.0
C9580 C 0.68068 0.84688 0.88394 0.0
C9581 C 0.67314 0.84359 0.89268 0.0
C9582 C 0.67509 0.83342 0.89877 0.0
C9583 C 0.67777 0.85611 0.87583 0.0
C9584 C 0.68319 0.86678 0.87694 0.0
C9585 C 0.67174 0.85347 0.86568 0.0
C9586 C 0.66588 0.84231 0.86419 0.0
C9587 C 0.65616 0.83963 0.87077 0.0
C9588 C 0.65077 0.829 0.86951 0.0
C9589 C 0.655 0.82102 0.86164 0.0
C9590 C 0.66461 0.82367 0.85499 0.0
C9591 C 0.67004 0.83429 0.85623 0.0
H9592 H 0.65082 0.81279 0.86068 0.0
H9593 H 0.70697 0.9138 0.87255 0.0
H9594 H 0.8233 0.70051 0.10819 0.0
H9595 H 0.84128 0.69877 0.11874 0.0
H9596 H 0.84639 0.66491 0.10479 0.0
H9597 H 0.82841 0.66662 0.09404 0.0
H9598 H 0.84873 0.66617 0.12878 0.0
H9599 H 0.86387 0.6841 0.0959 0.0
H9600 H 0.86506 0.69793 0.07997 0.0
H9601 H 0.8686 0.7256 0.10398 0.0
H9602 H 0.86725 0.71196 0.12008 0.0
H9603 H 0.89962 0.66903 0.16321 0.0
H9604 H 0.88854 0.66654 0.1455 0.0
H9605 H 0.87365 0.70007 0.15009 0.0
H9606 H 0.88457 0.70262 0.16772 0.0
H9607 H 0.87964 0.69538 0.12727 0.0
H9608 H 0.85965 0.67741 0.15951 0.0
H9609 H 0.85817 0.6636 0.17545 0.0
H9610 H 0.86391 0.63574 0.15208 0.0
H9611 H 0.86557 0.64943 0.13601 0.0
C9612 C 0.82827 0.69272 0.1073 0.0
C9613 C 0.82443 0.6837 0.10031 0.0
C9614 C 0.83858 0.69177 0.11327 0.0
C9615 C 0.84519 0.68175 0.11244 0.0
C9616 C 0.84142 0.67272 0.10546 0.0
C9617 C 0.83117 0.67373 0.09934 0.0
C9618 C 0.85562 0.6806 0.11953 0.0
C9619 C 0.85567 0.67234 0.12826 0.0
C9620 C 0.8646 0.6887 0.11885 0.0
C9621 C 0.86539 0.69699 0.10921 0.0
C9622 C 0.86481 0.69314 0.09779 0.0
C9623 C 0.86553 0.70095 0.08873 0.0
C9624 C 0.86689 0.71263 0.09096 0.0
C9625 C 0.86755 0.71654 0.10226 0.0
C9626 C 0.86682 0.70877 0.11137 0.0
C9627 C 0.89409 0.67593 0.16035 0.0
C9628 C 0.89286 0.68598 0.16691 0.0
C9629 C 0.88779 0.67448 0.15026 0.0
C9630 C 0.88027 0.68311 0.14656 0.0
C9631 C 0.87945 0.69334 0.1528 0.0
C9632 C 0.88563 0.69474 0.16292 0.0
C9633 C 0.87247 0.68127 0.13676 0.0
C9634 C 0.8729 0.68898 0.12754 0.0
C9635 C 0.86394 0.67265 0.13697 0.0
C9636 C 0.86289 0.66444 0.1466 0.0
C9637 C 0.86069 0.66835 0.15779 0.0
C9638 C 0.8598 0.66054 0.16684 0.0
C9639 C 0.86099 0.6488 0.16479 0.0
C9640 C 0.86302 0.64484 0.15366 0.0
C9641 C 0.86394 0.65261 0.14458 0.0
H9642 H 0.86029 0.64277 0.1718 0.0
H9643 H 0.86745 0.71866 0.08393 0.0
H9644 H 0.28832 0.82821 0.10694 0.0
H9645 H 0.2903 0.84691 0.11592 0.0
H9646 H 0.32198 0.85256 0.09769 0.0
H9647 H 0.32011 0.83367 0.08865 0.0
H9648 H 0.32445 0.85648 0.12014 0.0
H9649 H 0.29938 0.86973 0.09172 0.0
H9650 H 0.28286 0.86976 0.07855 0.0
H9651 H 0.25977 0.8709 0.10719 0.0
H9652 H 0.27613 0.87069 0.12056 0.0
H9653 H 0.32116 0.90367 0.15971 0.0
H9654 H 0.32242 0.89489 0.14064 0.0
H9655 H 0.29187 0.87527 0.14767 0.0
H9656 H 0.29051 0.88395 0.16659 0.0
H9657 H 0.29234 0.88386 0.12546 0.0
H9658 H 0.3183 0.86404 0.15258 0.0
H9659 H 0.33499 0.86373 0.16557 0.0
H9660 H 0.35668 0.87557 0.13828 0.0
H9661 H 0.34007 0.87606 0.12516 0.0
C9662 C 0.29565 0.83346 0.10471 0.0
C9663 C 0.3041 0.82941 0.09714 0.0
C9664 C 0.29671 0.84422 0.10976 0.0
C9665 C 0.30621 0.8512 0.10735 0.0
C9666 C 0.31454 0.84733 0.09959 0.0
C9667 C 0.31346 0.83655 0.09445 0.0
C9668 C 0.30786 0.86187 0.114 0.0
C9669 C 0.31759 0.86271 0.12103 0.0
C9670 C 0.29896 0.87003 0.11513 0.0
C9671 C 0.28902 0.87018 0.10716 0.0
C9672 C 0.29078 0.86992 0.09523 0.0
C9673 C 0.28143 0.86998 0.08772 0.0
C9674 C 0.27027 0.87033 0.09203 0.0
C9675 C 0.26842 0.87064 0.10386 0.0
C9676 C 0.27774 0.87058 0.11141 0.0
C9677 C 0.31465 0.89757 0.15713 0.0
C9678 C 0.3058 0.8944 0.1647 0.0
C9679 C 0.31538 0.89259 0.14624 0.0
C9680 C 0.30726 0.88442 0.14278 0.0
C9681 C 0.29819 0.88161 0.15016 0.0
C9682 C 0.29749 0.88651 0.16102 0.0
C9683 C 0.30853 0.87792 0.13198 0.0
C9684 C 0.29938 0.87792 0.12419 0.0
C9685 C 0.318 0.87059 0.13008 0.0
C9686 C 0.32795 0.87023 0.13795 0.0
C9687 C 0.32662 0.86665 0.14938 0.0
C9688 C 0.33606 0.86643 0.15676 0.0
C9689 C 0.34688 0.86967 0.15277 0.0
C9690 C 0.34829 0.87309 0.14137 0.0
C9691 C 0.33887 0.87334 0.13396 0.0
H9692 H 0.35418 0.86949 0.15849 0.0
H9693 H 0.26305 0.87037 0.08621 0.0
H9694 H 0.70293 0.1667 0.10707 0.0
H9695 H 0.70176 0.14793 0.11604 0.0
H9696 H 0.66932 0.14178 0.09937 0.0
H9697 H 0.67037 0.16074 0.09036 0.0
H9698 H 0.66806 0.13787 0.12195 0.0
H9699 H 0.69213 0.12528 0.09219 0.0
H9700 H 0.70819 0.12568 0.07846 0.0
H9701 H 0.73227 0.12432 0.10627 0.0
H9702 H 0.71637 0.1241 0.12018 0.0
H9703 H 0.67176 0.08924 0.1591 0.0
H9704 H 0.67034 0.09902 0.14056 0.0
H9705 H 0.70173 0.11721 0.14773 0.0
H9706 H 0.70329 0.10747 0.16612 0.0
H9707 H 0.7004 0.11043 0.12518 0.0
H9708 H 0.67582 0.12899 0.154 0.0
H9709 H 0.65976 0.12903 0.16778 0.0
H9710 H 0.63655 0.119 0.14101 0.0
H9711 H 0.65252 0.11878 0.12711 0.0
C9712 C 0.6956 0.16133 0.10517 0.0
C9713 C 0.6867 0.16526 0.09807 0.0
C9714 C 0.695 0.15053 0.11023 0.0
C9715 C 0.68552 0.14339 0.10826 0.0
C9716 C 0.67674 0.14713 0.10093 0.0
C9717 C 0.67736 0.15796 0.0958 0.0
C9718 C 0.68436 0.13267 0.11495 0.0
C9719 C 0.67496 0.13165 0.12239 0.0
C9720 C 0.69337 0.12458 0.11557 0.0
C9721 C 0.70303 0.12469 0.10725 0.0
C9722 C 0.70085 0.12514 0.09539 0.0
C9723 C 0.70993 0.12532 0.08757 0.0
C9724 C 0.72124 0.12503 0.09149 0.0
C9725 C 0.7235 0.12454 0.10324 0.0
C9726 C 0.71445 0.12435 0.1111 0.0
C9727 C 0.67844 0.09522 0.15666 0.0
C9728 C 0.68757 0.09769 0.16415 0.0
C9729 C 0.67761 0.10078 0.14607 0.0
C9730 C 0.68589 0.10888 0.14283 0.0
C9731 C 0.69527 0.11095 0.15006 0.0
C9732 C 0.69609 0.10544 0.16062 0.0
C9733 C 0.68443 0.11608 0.13249 0.0
C9734 C 0.69331 0.1164 0.12439 0.0
C9735 C 0.67494 0.12352 0.13124 0.0
C9736 C 0.66536 0.12373 0.13957 0.0
C9737 C 0.6673 0.12672 0.15109 0.0
C9738 C 0.65822 0.12678 0.15891 0.0
C9739 C 0.64715 0.12398 0.15528 0.0
C9740 C 0.64513 0.12114 0.14382 0.0
C9741 C 0.65419 0.12104 0.13597 0.0
H9742 H 0.64013 0.12403 0.16135 0.0
H9743 H 0.72826 0.12518 0.08542 0.0
H9744 H 0.61024 0.66906 0.79002 0.0
H9745 H 0.62058 0.65108 0.79162 0.0
H9746 H 0.60018 0.64171 0.82103 0.0
H9747 H 0.58982 0.65994 0.8196 0.0
H9748 H 0.6223 0.6386 0.82527 0.0
H9749 H 0.5973 0.62658 0.79607 0.0
H9750 H 0.58604 0.62761 0.77822 0.0
H9751 H 0.61706 0.62988 0.75854 0.0
H9752 H 0.62852 0.62904 0.77627 0.0
H9753 H 0.66208 0.59113 0.82193 0.0
H9754 H 0.64344 0.60085 0.82242 0.0
H9755 H 0.65406 0.6226 0.79445 0.0
H9756 H 0.67255 0.61298 0.79384 0.0
H9757 H 0.63203 0.61435 0.79171 0.0
H9758 H 0.65573 0.63159 0.82221 0.0
H9759 H 0.66664 0.63054 0.8403 0.0
H9760 H 0.63691 0.61755 0.8577 0.0
H9761 H 0.62586 0.61841 0.83966 0.0
C9762 C 0.60783 0.66316 0.79676 0.0
C9763 C 0.59922 0.66598 0.80471 0.0
C9764 C 0.61369 0.6528 0.79761 0.0
C9765 C 0.61103 0.64496 0.80633 0.0
C9766 C 0.60231 0.64762 0.81418 0.0
C9767 C 0.5964 0.65803 0.81334 0.0
C9768 C 0.61818 0.63455 0.8077 0.0
C9769 C 0.62418 0.63307 0.81803 0.0
C9770 C 0.6206 0.62729 0.79829 0.0
C9771 C 0.61377 0.62776 0.78754 0.0
C9772 C 0.60173 0.62736 0.78795 0.0
C9773 C 0.59531 0.62791 0.77784 0.0
C9774 C 0.60083 0.62881 0.76725 0.0
C9775 C 0.61279 0.62916 0.76675 0.0
C9776 C 0.61926 0.62863 0.77683 0.0
C9777 C 0.66042 0.59796 0.81586 0.0
C9778 C 0.66883 0.60133 0.80788 0.0
C9779 C 0.64977 0.60348 0.81616 0.0
C9780 C 0.6474 0.61243 0.80848 0.0
C9781 C 0.6557 0.61566 0.80041 0.0
C9782 C 0.66631 0.61019 0.80013 0.0
C9783 C 0.63654 0.61895 0.80899 0.0
C9784 C 0.62983 0.61963 0.79904 0.0
C9785 C 0.63339 0.62538 0.81877 0.0
C9786 C 0.64003 0.62493 0.82958 0.0
C9787 C 0.65155 0.62843 0.82988 0.0
C9788 C 0.65776 0.62788 0.84012 0.0
C9789 C 0.65249 0.62394 0.85013 0.0
C9790 C 0.64099 0.62057 0.84993 0.0
C9791 C 0.63475 0.62109 0.83971 0.0
H9792 H 0.6573 0.62352 0.85805 0.0
H9793 H 0.59584 0.62924 0.75944 0.0
H9794 H 0.33439 0.58974 0.81816 0.0
H9795 H 0.35276 0.59992 0.81895 0.0
H9796 H 0.34157 0.62223 0.79165 0.0
H9797 H 0.32338 0.6121 0.79069 0.0
H9798 H 0.36371 0.61575 0.7888 0.0
H9799 H 0.33929 0.62987 0.82021 0.0
H9800 H 0.32833 0.62725 0.83812 0.0
H9801 H 0.35847 0.6144 0.85491 0.0
H9802 H 0.36957 0.61683 0.83705 0.0
H9803 H 0.38318 0.67141 0.7912 0.0
H9804 H 0.3734 0.65305 0.79159 0.0
H9805 H 0.3946 0.64211 0.81985 0.0
H9806 H 0.40444 0.6607 0.81964 0.0
H9807 H 0.37239 0.63799 0.824 0.0
H9808 H 0.3978 0.62926 0.79382 0.0
H9809 H 0.40877 0.63231 0.77602 0.0
H9810 H 0.37744 0.63477 0.75687 0.0
H9811 H 0.36625 0.63192 0.77457 0.0
C9812 C 0.33589 0.59676 0.81227 0.0
C9813 C 0.32738 0.60017 0.80442 0.0
C9814 C 0.34638 0.60256 0.81274 0.0
C9815 C 0.34849 0.61186 0.8054 0.0
C9816 C 0.34014 0.61503 0.79736 0.0
C9817 C 0.3297 0.60927 0.79687 0.0
C9818 C 0.35903 0.61887 0.80637 0.0
C9819 C 0.36567 0.62059 0.7965 0.0
C9820 C 0.36188 0.62479 0.81657 0.0
C9821 C 0.35521 0.62339 0.82728 0.0
C9822 C 0.34355 0.62641 0.82771 0.0
C9823 C 0.33732 0.62498 0.83785 0.0
C9824 C 0.34269 0.62063 0.84763 0.0
C9825 C 0.35432 0.61774 0.84731 0.0
C9826 C 0.36058 0.61915 0.83719 0.0
C9827 C 0.38588 0.6651 0.79745 0.0
C9828 C 0.39458 0.66756 0.80541 0.0
C9829 C 0.38033 0.65454 0.79759 0.0
C9830 C 0.3834 0.64613 0.80562 0.0
C9831 C 0.39217 0.64846 0.81352 0.0
C9832 C 0.39777 0.65907 0.81338 0.0
C9833 C 0.37666 0.63538 0.80621 0.0
C9834 C 0.37075 0.6329 0.81639 0.0
C9835 C 0.37451 0.62874 0.79629 0.0
C9836 C 0.38118 0.63039 0.78556 0.0
C9837 C 0.39324 0.63051 0.78582 0.0
C9838 C 0.3995 0.6322 0.77574 0.0
C9839 C 0.3938 0.63373 0.76532 0.0
C9840 C 0.38184 0.63357 0.76495 0.0
C9841 C 0.37553 0.63189 0.775 0.0
H9842 H 0.39867 0.63505 0.75753 0.0
H9843 H 0.33785 0.61952 0.85547 0.0
H9844 H 0.38949 0.32799 0.7877 0.0
H9845 H 0.37789 0.34521 0.79089 0.0
H9846 H 0.3846 0.34314 0.82718 0.0
H9847 H 0.39652 0.32612 0.82404 0.0
H9848 H 0.36015 0.34276 0.819 0.0
H9849 H 0.39458 0.36439 0.81784 0.0
H9850 H 0.4133 0.37067 0.81031 0.0
H9851 H 0.39714 0.38249 0.77943 0.0
H9852 H 0.37833 0.37611 0.78669 0.0
H9853 H 0.33266 0.40315 0.819 0.0
H9854 H 0.34989 0.39126 0.82098 0.0
H9855 H 0.33545 0.36641 0.79774 0.0
H9856 H 0.31831 0.37814 0.79565 0.0
H9857 H 0.36568 0.38221 0.80401 0.0
H9858 H 0.33979 0.34031 0.80985 0.0
H9859 H 0.32109 0.33414 0.81756 0.0
H9860 H 0.32071 0.36307 0.84033 0.0
H9861 H 0.33949 0.36931 0.83288 0.0
C9862 C 0.38866 0.33133 0.79633 0.0
C9863 C 0.39384 0.32571 0.80563 0.0
C9864 C 0.38211 0.34118 0.79812 0.0
C9865 C 0.38048 0.34541 0.80925 0.0
C9866 C 0.38587 0.34001 0.81853 0.0
C9867 C 0.39266 0.33032 0.81671 0.0
C9868 C 0.37201 0.35457 0.81122 0.0
C9869 C 0.36139 0.35143 0.81586 0.0
C9870 C 0.37376 0.36587 0.80724 0.0
C9871 C 0.38505 0.36967 0.80277 0.0
C9872 C 0.39503 0.36821 0.80939 0.0
C9873 C 0.40565 0.37182 0.80518 0.0
C9874 C 0.40641 0.37695 0.79439 0.0
C9875 C 0.39654 0.37851 0.78779 0.0
C9876 C 0.38589 0.37491 0.79195 0.0
C9877 C 0.3332 0.39519 0.81424 0.0
C9878 C 0.32407 0.39155 0.80723 0.0
C9879 C 0.34305 0.38845 0.81537 0.0
C9880 C 0.34383 0.37794 0.8096 0.0
C9881 C 0.33492 0.37446 0.80234 0.0
C9882 C 0.32514 0.3812 0.80115 0.0
C9883 C 0.35372 0.37025 0.8114 0.0
C9884 C 0.36454 0.37362 0.80739 0.0
C9885 C 0.3522 0.35915 0.81603 0.0
C9886 C 0.34102 0.35532 0.82075 0.0
C9887 C 0.33575 0.34532 0.81655 0.0
C9888 C 0.32513 0.34181 0.82086 0.0
C9889 C 0.3197 0.34822 0.82941 0.0
C9890 C 0.32491 0.35813 0.83368 0.0
C9891 C 0.33553 0.36166 0.82941 0.0
H9892 H 0.31148 0.3455 0.83272 0.0
H9893 H 0.41465 0.37975 0.79115 0.0
H9894 H 0.58875 0.33406 0.82429 0.0
H9895 H 0.59804 0.35272 0.82701 0.0
H9896 H 0.61612 0.34834 0.79504 0.0
H9897 H 0.60694 0.3298 0.79227 0.0
H9898 H 0.62087 0.35543 0.82948 0.0
H9899 H 0.62115 0.37329 0.7825 0.0
H9900 H 0.60772 0.37492 0.76628 0.0
H9901 H 0.57917 0.37273 0.78941 0.0
H9902 H 0.59242 0.37127 0.80581 0.0
H9903 H 0.67113 0.37622 0.80522 0.0
H9904 H 0.65227 0.36761 0.80808 0.0
H9905 H 0.6388 0.40024 0.81904 0.0
H9906 H 0.65785 0.40894 0.8165 0.0
H9907 H 0.62645 0.38517 0.79957 0.0
H9908 H 0.63763 0.38679 0.8387 0.0
H9909 H 0.65098 0.38526 0.85501 0.0
H9910 H 0.65546 0.34935 0.84821 0.0
H9911 H 0.64228 0.35071 0.83173 0.0
C9912 C 0.59455 0.33718 0.81775 0.0
C9913 C 0.5972 0.33042 0.80811 0.0
C9914 C 0.59983 0.34784 0.81931 0.0
C9915 C 0.60766 0.35196 0.81117 0.0
C9916 C 0.60994 0.34542 0.80133 0.0
C9917 C 0.60477 0.33476 0.79982 0.0
C9918 C 0.61466 0.36227 0.81348 0.0
C9919 C 0.6219 0.3621 0.82308 0.0
C9920 C 0.61582 0.37112 0.80525 0.0
C9921 C 0.6078 0.37214 0.79541 0.0
C9922 C 0.61201 0.37325 0.78415 0.0
C9923 C 0.60442 0.37412 0.77492 0.0
C9924 C 0.5926 0.37392 0.77681 0.0
C9925 C 0.58833 0.37286 0.78795 0.0
C9926 C 0.59588 0.37199 0.79722 0.0
C9927 C 0.66418 0.38158 0.80825 0.0
C9928 C 0.66595 0.39324 0.81063 0.0
C9929 C 0.65344 0.37665 0.80991 0.0
C9930 C 0.64424 0.38332 0.8138 0.0
C9931 C 0.64586 0.395 0.81607 0.0
C9932 C 0.65672 0.39991 0.81464 0.0
C9933 C 0.63296 0.37782 0.81517 0.0
C9934 C 0.62503 0.37881 0.8062 0.0
C9935 C 0.63107 0.36979 0.82403 0.0
C9936 C 0.63901 0.36888 0.83393 0.0
C9937 C 0.64154 0.37859 0.84061 0.0
C9938 C 0.64906 0.37775 0.84991 0.0
C9939 C 0.65408 0.36722 0.85264 0.0
C9940 C 0.65157 0.35751 0.84609 0.0
C9941 C 0.64406 0.3583 0.83678 0.0
H9942 H 0.6599 0.36658 0.85984 0.0
H9943 H 0.58674 0.37459 0.76964 0.0
H9944 H 0.67135 0.37653 0.18938 0.0
H9945 H 0.65279 0.36759 0.18577 0.0
H9946 H 0.63982 0.39943 0.17222 0.0
H9947 H 0.65858 0.40848 0.17555 0.0
H9948 H 0.62593 0.38578 0.19088 0.0
H9949 H 0.64125 0.38405 0.1532 0.0
H9950 H 0.65634 0.38118 0.13869 0.0
H9951 H 0.65975 0.34598 0.1489 0.0
H9952 H 0.6448 0.34869 0.16361 0.0
H9953 H 0.59045 0.33275 0.16714 0.0
H9954 H 0.60014 0.35109 0.16376 0.0
H9955 H 0.61536 0.34923 0.19741 0.0
H9956 H 0.6058 0.331 0.20084 0.0
H9957 H 0.62335 0.35349 0.16327 0.0
H9958 H 0.61904 0.37524 0.20831 0.0
H9959 H 0.60411 0.37806 0.22299 0.0
H9960 H 0.57792 0.37383 0.19749 0.0
H9961 H 0.59268 0.37115 0.1826 0.0
C9962 C 0.66456 0.38166 0.18566 0.0
C9963 C 0.6664 0.3932 0.18275 0.0
C9964 C 0.654 0.37653 0.18356 0.0
C9965 C 0.64504 0.38287 0.17868 0.0
C9966 C 0.6467 0.39444 0.17595 0.0
C9967 C 0.65739 0.39956 0.17784 0.0
C9968 C 0.63397 0.37714 0.17671 0.0
C9969 C 0.62518 0.37885 0.18471 0.0
C9970 C 0.63299 0.36834 0.16845 0.0
C9971 C 0.64192 0.3666 0.15955 0.0
C9972 C 0.64527 0.37572 0.15241 0.0
C9973 C 0.65379 0.37412 0.14414 0.0
C9974 C 0.65901 0.36341 0.14288 0.0
C9975 C 0.65569 0.35427 0.14988 0.0
C9976 C 0.64718 0.35583 0.15817 0.0
C9977 C 0.59571 0.33636 0.17389 0.0
C9978 C 0.59745 0.33039 0.18422 0.0
C9979 C 0.60121 0.34683 0.17194 0.0
C9980 C 0.60835 0.35156 0.18038 0.0
C9981 C 0.60972 0.34583 0.19086 0.0
C9982 C 0.60434 0.33534 0.19277 0.0
C9983 C 0.61558 0.36168 0.1779 0.0
C9984 C 0.62374 0.36071 0.16913 0.0
C9985 C 0.61592 0.3712 0.18541 0.0
C9986 C 0.60699 0.37297 0.19433 0.0
C9987 C 0.6101 0.375 0.2058 0.0
C9988 C 0.60166 0.37655 0.21417 0.0
C9989 C 0.59008 0.37612 0.21118 0.0
C9990 C 0.5869 0.37414 0.1998 0.0
C9991 C 0.5953 0.37259 0.19139 0.0
H9992 H 0.58356 0.37731 0.21767 0.0
H9993 H 0.66562 0.36219 0.13648 0.0
H9994 H 0.5899 0.6584 0.20246 0.0
H9995 H 0.60133 0.64078 0.20218 0.0
H9996 H 0.61411 0.64973 0.16859 0.0
H9997 H 0.60194 0.66678 0.16851 0.0
H9998 H 0.61447 0.628 0.17005 0.0
H9999 H 0.62749 0.65861 0.19508 0.0
H10000 H 0.62569 0.67232 0.2111 0.0
H10001 H 0.62037 0.64446 0.23458 0.0
H10002 H 0.62202 0.6306 0.21866 0.0
H10003 H 0.6765 0.61822 0.1924 0.0
H10004 H 0.65851 0.62874 0.19147 0.0
H10005 H 0.64059 0.59755 0.18268 0.0
H10006 H 0.6588 0.58705 0.18303 0.0
H10007 H 0.64066 0.62768 0.20355 0.0
H10008 H 0.61605 0.60436 0.1677 0.0
H10009 H 0.61984 0.59301 0.15025 0.0
H10010 H 0.65213 0.61014 0.1459 0.0
H10011 H 0.64846 0.62168 0.16324 0.0
C10012 C 0.59489 0.65636 0.1949 0.0
C10013 C 0.5952 0.66391 0.18556 0.0
C10014 C 0.60146 0.64635 0.19476 0.0
C10015 C 0.6089 0.64412 0.18554 0.0
C10016 C 0.6085 0.65126 0.17584 0.0
C10017 C 0.60159 0.66103 0.1758 0.0
C10018 C 0.61815 0.63543 0.18657 0.0
C10019 C 0.62015 0.62785 0.17741 0.0
C10020 C 0.62567 0.6353 0.19611 0.0
C10021 C 0.62474 0.6436 0.20568 0.0
C10022 C 0.62588 0.65543 0.20366 0.0
C10023 C 0.62489 0.66322 0.21271 0.0
C10024 C 0.62288 0.65926 0.22384 0.0
C10025 C 0.6219 0.64751 0.22595 0.0
C10026 C 0.62286 0.63968 0.21692 0.0
C10027 C 0.66873 0.6136 0.19024 0.0
C10028 C 0.66903 0.60183 0.1878 0.0
C10029 C 0.65844 0.61961 0.18973 0.0
C10030 C 0.64817 0.61396 0.18698 0.0
C10031 C 0.64841 0.60215 0.18463 0.0
C10032 C 0.6588 0.59615 0.18488 0.0
C10033 C 0.63731 0.62059 0.18682 0.0
C10034 C 0.63491 0.62767 0.19623 0.0
C10035 C 0.62976 0.6206 0.17731 0.0
C10036 C 0.63204 0.61376 0.16685 0.0
C10037 C 0.62395 0.60571 0.16301 0.0
C10038 C 0.62608 0.59924 0.15314 0.0
C10039 C 0.63624 0.60082 0.147 0.0
C10040 C 0.64428 0.60889 0.15069 0.0
C10041 C 0.64219 0.61539 0.16055 0.0
H10042 H 0.63788 0.5958 0.13937 0.0
H10043 H 0.62212 0.66531 0.23084 0.0
H10044 H 0.39138 0.66482 0.20186 0.0
H10045 H 0.38001 0.64743 0.19897 0.0
H10046 H 0.38492 0.65017 0.16243 0.0
H10047 H 0.39659 0.66744 0.16527 0.0
H10048 H 0.36152 0.65006 0.17032 0.0
H10049 H 0.39535 0.62804 0.17278 0.0
H10050 H 0.41394 0.62157 0.18046 0.0
H10051 H 0.39762 0.61112 0.21174 0.0
H10052 H 0.37894 0.61769 0.20433 0.0
H10053 H 0.33262 0.59022 0.17552 0.0
H10054 H 0.34994 0.60163 0.17212 0.0
H10055 H 0.33612 0.62887 0.19294 0.0
H10056 H 0.31886 0.6176 0.19643 0.0
H10057 H 0.36598 0.61147 0.18772 0.0
H10058 H 0.34135 0.65379 0.17907 0.0
H10059 H 0.32284 0.65997 0.17093 0.0
H10060 H 0.3214 0.62939 0.15049 0.0
H10061 H 0.33998 0.6231 0.15837 0.0
C10062 C 0.39025 0.66157 0.19323 0.0
C10063 C 0.39478 0.6675 0.18378 0.0
C10064 C 0.38383 0.65161 0.1916 0.0
C10065 C 0.38169 0.64754 0.18049 0.0
C10066 C 0.38658 0.65317 0.17106 0.0
C10067 C 0.39322 0.66301 0.17271 0.0
C10068 C 0.37307 0.63843 0.17881 0.0
C10069 C 0.36253 0.64156 0.17397 0.0
C10070 C 0.37452 0.62732 0.18344 0.0
C10071 C 0.38574 0.62344 0.18802 0.0
C10072 C 0.39573 0.62447 0.18134 0.0
C10073 C 0.40629 0.62076 0.18564 0.0
C10074 C 0.40696 0.61595 0.19659 0.0
C10075 C 0.39708 0.61484 0.20326 0.0
C10076 C 0.3865 0.61854 0.19901 0.0
C10077 C 0.33329 0.59862 0.17942 0.0
C10078 C 0.32433 0.60303 0.1862 0.0
C10079 C 0.3432 0.60509 0.17749 0.0
C10080 C 0.34421 0.61611 0.18217 0.0
C10081 C 0.33541 0.62042 0.18915 0.0
C10082 C 0.32557 0.61394 0.19116 0.0
C10083 C 0.35431 0.62332 0.17971 0.0
C10084 C 0.36507 0.61987 0.18382 0.0
C10085 C 0.35311 0.63413 0.17434 0.0
C10086 C 0.34203 0.63795 0.16937 0.0
C10087 C 0.33712 0.64842 0.17278 0.0
C10088 C 0.32661 0.65193 0.16822 0.0
C10089 C 0.32094 0.64506 0.16021 0.0
C10090 C 0.32578 0.63468 0.15672 0.0
C10091 C 0.3363 0.63114 0.16124 0.0
H10092 H 0.31279 0.64779 0.15671 0.0
H10093 H 0.41514 0.61308 0.19989 0.0
H10094 H 0.40031 0.33075 0.16987 0.0
H10095 H 0.38969 0.3487 0.16722 0.0
H10096 H 0.37659 0.34605 0.20169 0.0
H10097 H 0.38704 0.32814 0.20438 0.0
H10098 H 0.36621 0.34969 0.16831 0.0
H10099 H 0.37238 0.37264 0.21243 0.0
H10100 H 0.38795 0.37624 0.22626 0.0
H10101 H 0.41292 0.37215 0.19953 0.0
H10102 H 0.39751 0.36869 0.18549 0.0
H10103 H 0.31808 0.37585 0.19232 0.0
H10104 H 0.33618 0.36562 0.18981 0.0
H10105 H 0.3519 0.3963 0.17646 0.0
H10106 H 0.33367 0.40661 0.17871 0.0
H10107 H 0.36462 0.38291 0.19485 0.0
H10108 H 0.34818 0.37966 0.15761 0.0
H10109 H 0.3327 0.37623 0.14364 0.0
H10110 H 0.3292 0.34164 0.15573 0.0
H10111 H 0.34454 0.34492 0.16991 0.0
C10112 C 0.39534 0.33412 0.17695 0.0
C10113 C 0.39441 0.32799 0.1873 0.0
C10114 C 0.38929 0.34436 0.17542 0.0
C10115 C 0.38244 0.34872 0.18428 0.0
C10116 C 0.38197 0.34291 0.1948 0.0
C10117 C 0.38787 0.33262 0.19629 0.0
C10118 C 0.3746 0.35846 0.18223 0.0
C10119 C 0.36598 0.35707 0.17397 0.0
C10120 C 0.37444 0.36816 0.18951 0.0
C10121 C 0.38376 0.37035 0.19791 0.0
C10122 C 0.38118 0.37258 0.20947 0.0
C10123 C 0.38999 0.37458 0.21736 0.0
C10124 C 0.40142 0.37441 0.21378 0.0
C10125 C 0.40407 0.37225 0.2023 0.0
C10126 C 0.3953 0.37025 0.19438 0.0
C10127 C 0.32538 0.38045 0.18889 0.0
C10128 C 0.32447 0.39202 0.1857 0.0
C10129 C 0.33569 0.37459 0.18743 0.0
C10130 C 0.34529 0.38023 0.18291 0.0
C10131 C 0.34453 0.39184 0.17994 0.0
C10132 C 0.33413 0.39768 0.18121 0.0
C10133 C 0.35603 0.37378 0.18133 0.0
C10134 C 0.3651 0.37573 0.18896 0.0
C10135 C 0.35667 0.36463 0.17342 0.0
C10136 C 0.34748 0.36257 0.16487 0.0
C10137 C 0.34405 0.37135 0.15735 0.0
C10138 C 0.33531 0.36943 0.14938 0.0
C10139 C 0.32996 0.35873 0.1488 0.0
C10140 C 0.33335 0.34992 0.15619 0.0
C10141 C 0.34208 0.35181 0.16418 0.0
H10142 H 0.3232 0.35725 0.14263 0.0
H10143 H 0.40822 0.37596 0.21989 0.0
H10144 H 0.79635 0.67093 0.61108 0.0
H10145 H 0.79942 0.65338 0.62193 0.0
H10146 H 0.82525 0.64263 0.5978 0.0
H10147 H 0.82238 0.66039 0.58683 0.0
H10148 H 0.80516 0.62514 0.60845 0.0
H10149 H 0.83849 0.64818 0.61617 0.0
H10150 H 0.84861 0.66644 0.6195 0.0
H10151 H 0.82802 0.67262 0.64938 0.0
H10152 H 0.81763 0.65448 0.64611 0.0
H10153 H 0.81734 0.58798 0.65827 0.0
H10154 H 0.82077 0.5989 0.64058 0.0
H10155 H 0.80167 0.62734 0.65446 0.0
H10156 H 0.7981 0.61658 0.67197 0.0
H10157 H 0.82419 0.63278 0.64574 0.0
H10158 H 0.78915 0.61158 0.63584 0.0
H10159 H 0.77833 0.59375 0.63237 0.0
H10160 H 0.80254 0.58387 0.60646 0.0
H10161 H 0.81359 0.6016 0.60988 0.0
C10162 C 0.80259 0.66481 0.60794 0.0
C10163 C 0.80921 0.66712 0.59814 0.0
C10164 C 0.8043 0.65478 0.61415 0.0
C10165 C 0.81257 0.64681 0.61064 0.0
C10166 C 0.81882 0.64873 0.60058 0.0
C10167 C 0.81719 0.65888 0.59438 0.0
C10168 C 0.81515 0.63713 0.61831 0.0
C10169 C 0.80966 0.6266 0.61645 0.0
C10170 C 0.82095 0.63915 0.62874 0.0
C10171 C 0.82724 0.65001 0.63084 0.0
C10172 C 0.83605 0.65348 0.62339 0.0
C10173 C 0.84185 0.6638 0.62528 0.0
C10174 C 0.83895 0.67069 0.63463 0.0
C10175 C 0.83025 0.66727 0.64213 0.0
C10176 C 0.82442 0.65696 0.64027 0.0
C10177 C 0.81381 0.59653 0.6575 0.0
C10178 C 0.80747 0.60144 0.66654 0.0
C10179 C 0.81578 0.60273 0.64741 0.0
C10180 C 0.81153 0.61391 0.64631 0.0
C10181 C 0.80507 0.61873 0.65522 0.0
C10182 C 0.80299 0.61254 0.6652 0.0
C10183 C 0.81387 0.62092 0.63605 0.0
C10184 C 0.82019 0.63103 0.63752 0.0
C10185 C 0.80893 0.61843 0.62527 0.0
C10186 C 0.80228 0.60782 0.62323 0.0
C10187 C 0.79223 0.60555 0.62948 0.0
C10188 C 0.78604 0.59548 0.62751 0.0
C10189 C 0.78977 0.58766 0.61923 0.0
C10190 C 0.79968 0.58992 0.61289 0.0
C10191 C 0.80591 0.59997 0.61484 0.0
H10192 H 0.78497 0.57987 0.61771 0.0
H10193 H 0.84344 0.67868 0.63608 0.0
H10194 H 0.32937 0.82187 0.59412 0.0
H10195 H 0.34612 0.82283 0.60676 0.0
H10196 H 0.33743 0.78971 0.62077 0.0
H10197 H 0.32065 0.78878 0.60839 0.0
H10198 H 0.34038 0.8053 0.63721 0.0
H10199 H 0.36055 0.79372 0.60275 0.0
H10200 H 0.3666 0.79577 0.58259 0.0
H10201 H 0.38196 0.82832 0.5903 0.0
H10202 H 0.37586 0.82654 0.61048 0.0
H10203 H 0.38578 0.78807 0.67042 0.0
H10204 H 0.37336 0.78923 0.65368 0.0
H10205 H 0.38551 0.82347 0.6468 0.0
H10206 H 0.3982 0.82232 0.66355 0.0
H10207 H 0.38128 0.81022 0.62658 0.0
H10208 H 0.362 0.82159 0.66095 0.0
H10209 H 0.3561 0.81979 0.68117 0.0
H10210 H 0.3388 0.78821 0.67351 0.0
H10211 H 0.34475 0.78973 0.65327 0.0
C10212 C 0.33112 0.81473 0.59979 0.0
C10213 C 0.32362 0.8053 0.60035 0.0
C10214 C 0.34071 0.81528 0.60697 0.0
C10215 C 0.343 0.80634 0.6147 0.0
C10216 C 0.33577 0.79673 0.61491 0.0
C10217 C 0.32618 0.79622 0.60783 0.0
C10218 C 0.35232 0.80725 0.62326 0.0
C10219 C 0.34932 0.80626 0.63485 0.0
C10220 C 0.36394 0.80901 0.62021 0.0
C10221 C 0.36763 0.81005 0.60809 0.0
C10222 C 0.36513 0.80136 0.60012 0.0
C10223 C 0.36858 0.80246 0.5887 0.0
C10224 C 0.37462 0.81218 0.58516 0.0
C10225 C 0.37726 0.82081 0.59305 0.0
C10226 C 0.37381 0.81975 0.60448 0.0
C10227 C 0.38596 0.7958 0.66527 0.0
C10228 C 0.39282 0.80519 0.66842 0.0
C10229 C 0.37888 0.79643 0.65569 0.0
C10230 C 0.37838 0.80651 0.64916 0.0
C10231 C 0.38577 0.81563 0.65178 0.0
C10232 C 0.39297 0.81497 0.66136 0.0
C10233 C 0.3693 0.80779 0.64042 0.0
C10234 C 0.37231 0.80932 0.62888 0.0
C10235 C 0.35763 0.8066 0.64347 0.0
C10236 C 0.35389 0.80574 0.65561 0.0
C10237 C 0.357 0.81422 0.66359 0.0
C10238 C 0.35364 0.81326 0.67506 0.0
C10239 C 0.3471 0.80388 0.67863 0.0
C10240 C 0.34387 0.79547 0.67074 0.0
C10241 C 0.34723 0.79638 0.65926 0.0
H10242 H 0.34451 0.80315 0.68751 0.0
H10243 H 0.37729 0.81302 0.57631 0.0
H10244 H 0.18831 0.31895 0.61708 0.0
H10245 H 0.186 0.337 0.62745 0.0
H10246 H 0.17325 0.35322 0.59678 0.0
H10247 H 0.17529 0.33503 0.58632 0.0
H10248 H 0.19205 0.36519 0.60983 0.0
H10249 H 0.15435 0.3503 0.61389 0.0
H10250 H 0.13972 0.33552 0.61765 0.0
H10251 H 0.15215 0.33169 0.65208 0.0
H10252 H 0.16698 0.34633 0.64848 0.0
H10253 H 0.1697 0.40201 0.66234 0.0
H10254 H 0.16626 0.39135 0.64459 0.0
H10255 H 0.20033 0.3771 0.64653 0.0
H10256 H 0.20381 0.38762 0.66426 0.0
H10257 H 0.16642 0.36792 0.64368 0.0
H10258 H 0.2102 0.3722 0.61969 0.0
H10259 H 0.22458 0.38717 0.61572 0.0
H10260 H 0.19902 0.41325 0.62035 0.0
H10261 H 0.18444 0.39844 0.62418 0.0
C10262 C 0.18499 0.32634 0.61253 0.0
C10263 C 0.18198 0.3256 0.6009 0.0
C10264 C 0.18364 0.33661 0.61847 0.0
C10265 C 0.17942 0.34636 0.61286 0.0
C10266 C 0.17649 0.34573 0.60122 0.0
C10267 C 0.17763 0.33536 0.5953 0.0
C10268 C 0.17839 0.35719 0.61929 0.0
C10269 C 0.18636 0.36593 0.61715 0.0
C10270 C 0.17075 0.35817 0.62863 0.0
C10271 C 0.16183 0.34938 0.63088 0.0
C10272 C 0.15403 0.34624 0.62223 0.0
C10273 C 0.14569 0.3379 0.62434 0.0
C10274 C 0.14502 0.33266 0.63509 0.0
C10275 C 0.15268 0.33576 0.64376 0.0
C10276 C 0.16105 0.3441 0.64169 0.0
C10277 C 0.17653 0.39677 0.65887 0.0
C10278 C 0.18699 0.39556 0.66476 0.0
C10279 C 0.17455 0.3907 0.64873 0.0
C10280 C 0.18306 0.38351 0.64423 0.0
C10281 C 0.1937 0.38274 0.64978 0.0
C10282 C 0.19565 0.38869 0.65997 0.0
C10283 C 0.18049 0.3757 0.63458 0.0
C10284 C 0.17189 0.36745 0.63617 0.0
C10285 C 0.18751 0.37523 0.6247 0.0
C10286 C 0.19623 0.38419 0.62228 0.0
C10287 C 0.20762 0.38112 0.61979 0.0
C10288 C 0.21582 0.38959 0.61758 0.0
C10289 C 0.21272 0.40116 0.6178 0.0
C10290 C 0.20142 0.40429 0.62021 0.0
C10291 C 0.19319 0.39586 0.62243 0.0
H10292 H 0.21908 0.40769 0.61609 0.0
H10293 H 0.13855 0.3262 0.63671 0.0
H10294 H 0.66308 0.16521 0.592 0.0
H10295 H 0.64439 0.16236 0.60123 0.0
H10296 H 0.64761 0.19525 0.61783 0.0
H10297 H 0.66623 0.19811 0.6088 0.0
H10298 H 0.64132 0.16146 0.62475 0.0
H10299 H 0.62181 0.20746 0.62019 0.0
H10300 H 0.62026 0.22244 0.60537 0.0
H10301 H 0.62435 0.19708 0.57901 0.0
H10302 H 0.62575 0.18191 0.59365 0.0
H10303 H 0.61776 0.1889 0.67179 0.0
H10304 H 0.62702 0.18511 0.65344 0.0
H10305 H 0.59541 0.17145 0.64002 0.0
H10306 H 0.58603 0.17498 0.65859 0.0
H10307 H 0.61019 0.19043 0.62641 0.0
H10308 H 0.60978 0.15236 0.64123 0.0
H10309 H 0.61148 0.1377 0.65637 0.0
H10310 H 0.64677 0.1468 0.6615 0.0
H10311 H 0.64524 0.16165 0.64652 0.0
C10312 C 0.65971 0.17189 0.5975 0.0
C10313 C 0.66615 0.18184 0.59976 0.0
C10314 C 0.64905 0.17025 0.60273 0.0
C10315 C 0.64458 0.17865 0.61008 0.0
C10316 C 0.65082 0.18875 0.61203 0.0
C10317 C 0.66151 0.19032 0.60695 0.0
C10318 C 0.63409 0.17652 0.61685 0.0
C10319 C 0.63435 0.16761 0.62493 0.0
C10320 C 0.6249 0.18443 0.61691 0.0
C10321 C 0.62391 0.19353 0.60805 0.0
C10322 C 0.62228 0.20505 0.61124 0.0
C10323 C 0.62146 0.21359 0.60286 0.0
C10324 C 0.62221 0.21072 0.59126 0.0
C10325 C 0.62379 0.1993 0.588 0.0
C10326 C 0.62462 0.19073 0.59634 0.0
C10327 C 0.61273 0.18512 0.66495 0.0
C10328 C 0.60117 0.18224 0.66662 0.0
C10329 C 0.61805 0.18293 0.6545 0.0
C10330 C 0.61188 0.17796 0.64548 0.0
C10331 C 0.60027 0.17525 0.64696 0.0
C10332 C 0.59497 0.17725 0.65754 0.0
C10333 C 0.61786 0.17579 0.63458 0.0
C10334 C 0.61686 0.18397 0.62584 0.0
C10335 C 0.62632 0.16717 0.63385 0.0
C10336 C 0.62737 0.15816 0.64278 0.0
C10337 C 0.61788 0.15129 0.64564 0.0
C10338 C 0.61882 0.14294 0.65419 0.0
C10339 C 0.62922 0.14133 0.6599 0.0
C10340 C 0.63872 0.14805 0.65706 0.0
C10341 C 0.63782 0.15643 0.64853 0.0
H10342 H 0.62993 0.13486 0.66652 0.0
H10343 H 0.62158 0.21734 0.58479 0.0
H10344 H 0.80159 0.32333 0.37505 0.0
H10345 H 0.80517 0.34197 0.36624 0.0
H10346 H 0.81814 0.35492 0.39833 0.0
H10347 H 0.81483 0.33609 0.40724 0.0
H10348 H 0.79974 0.36891 0.38399 0.0
H10349 H 0.83749 0.35364 0.38388 0.0
H10350 H 0.85219 0.33861 0.38171 0.0
H10351 H 0.8433 0.33476 0.3462 0.0
H10352 H 0.8284 0.34963 0.3482 0.0
H10353 H 0.82581 0.40336 0.33126 0.0
H10354 H 0.82842 0.39411 0.34995 0.0
H10355 H 0.7946 0.37936 0.34735 0.0
H10356 H 0.79193 0.3885 0.32878 0.0
H10357 H 0.82864 0.37117 0.35283 0.0
H10358 H 0.7828 0.37604 0.37297 0.0
H10359 H 0.76825 0.39118 0.3753 0.0
H10360 H 0.79423 0.417 0.37163 0.0
H10361 H 0.80897 0.40203 0.36945 0.0
C10362 C 0.80515 0.33013 0.38027 0.0
C10363 C 0.80794 0.32826 0.39183 0.0
C10364 C 0.80722 0.34075 0.37522 0.0
C10365 C 0.81197 0.34971 0.38166 0.0
C10366 C 0.81451 0.34803 0.39327 0.0
C10367 C 0.81263 0.33731 0.3983 0.0
C10368 C 0.81418 0.36074 0.37595 0.0
C10369 C 0.80617 0.36958 0.3773 0.0
C10370 C 0.82282 0.36165 0.36752 0.0
C10371 C 0.83178 0.35272 0.36621 0.0
C10372 C 0.8386 0.34952 0.37563 0.0
C10373 C 0.84698 0.34104 0.37443 0.0
C10374 C 0.84867 0.33573 0.36383 0.0
C10375 C 0.84199 0.33889 0.35441 0.0
C10376 C 0.83358 0.34735 0.35557 0.0
C10377 C 0.81886 0.3983 0.33478 0.0
C10378 C 0.8087 0.39655 0.3285 0.0
C10379 C 0.82036 0.39306 0.34545 0.0
C10380 C 0.81166 0.38617 0.35008 0.0
C10381 C 0.80135 0.38482 0.34404 0.0
C10382 C 0.79988 0.38994 0.33335 0.0
C10383 C 0.81373 0.37906 0.36037 0.0
C10384 C 0.82249 0.37085 0.35981 0.0
C10385 C 0.80586 0.37882 0.3696 0.0
C10386 C 0.79701 0.38788 0.37103 0.0
C10387 C 0.78544 0.38494 0.37275 0.0
C10388 C 0.77715 0.3935 0.37402 0.0
C10389 C 0.78031 0.40504 0.37361 0.0
C10390 C 0.79178 0.40805 0.37193 0.0
C10391 C 0.80011 0.39953 0.37066 0.0
H10392 H 0.77388 0.41166 0.37459 0.0
H10393 H 0.85517 0.32917 0.36292 0.0
H10394 H 0.67755 0.80287 0.37526 0.0
H10395 H 0.65962 0.80511 0.36466 0.0
H10396 H 0.64224 0.81496 0.39576 0.0
H10397 H 0.66027 0.81301 0.40646 0.0
H10398 H 0.63132 0.79672 0.38087 0.0
H10399 H 0.64472 0.83517 0.38062 0.0
H10400 H 0.65893 0.85067 0.37862 0.0
H10401 H 0.66409 0.84164 0.34331 0.0
H10402 H 0.65003 0.82595 0.34515 0.0
H10403 H 0.59416 0.8221 0.3301 0.0
H10404 H 0.6048 0.82459 0.34805 0.0
H10405 H 0.62047 0.79143 0.34338 0.0
H10406 H 0.60999 0.78889 0.32547 0.0
H10407 H 0.62828 0.82524 0.34943 0.0
H10408 H 0.62511 0.77932 0.36925 0.0
H10409 H 0.61057 0.76416 0.37161 0.0
H10410 H 0.58372 0.78919 0.36881 0.0
H10411 H 0.59809 0.80453 0.36662 0.0
C10412 C 0.66992 0.80549 0.37986 0.0
C10413 C 0.67029 0.80776 0.39168 0.0
C10414 C 0.65971 0.80682 0.37379 0.0
C10415 C 0.64969 0.81026 0.37946 0.0
C10416 C 0.64994 0.81234 0.39128 0.0
C10417 C 0.66022 0.81124 0.39734 0.0
C10418 C 0.63899 0.81145 0.37285 0.0
C10419 C 0.63052 0.80303 0.37408 0.0
C10420 C 0.6379 0.8199 0.36424 0.0
C10421 C 0.64637 0.82933 0.36305 0.0
C10422 C 0.64895 0.83642 0.37246 0.0
C10423 C 0.65697 0.84526 0.37134 0.0
C10424 C 0.66242 0.84713 0.36084 0.0
C10425 C 0.65986 0.84018 0.35143 0.0
C10426 C 0.65185 0.83132 0.3525 0.0
C10427 C 0.59975 0.81526 0.33299 0.0
C10428 C 0.60131 0.80533 0.32633 0.0
C10429 C 0.6058 0.81671 0.34323 0.0
C10430 C 0.61333 0.80816 0.34706 0.0
C10431 C 0.61457 0.79806 0.34065 0.0
C10432 C 0.60864 0.79666 0.33037 0.0
C10433 C 0.62086 0.81013 0.35705 0.0
C10434 C 0.62882 0.81912 0.35641 0.0
C10435 C 0.6214 0.80227 0.36627 0.0
C10436 C 0.6127 0.79308 0.36771 0.0
C10437 C 0.61611 0.78161 0.36921 0.0
C10438 C 0.60789 0.77298 0.37051 0.0
C10439 C 0.59623 0.77571 0.37034 0.0
C10440 C 0.59276 0.78708 0.36891 0.0
C10441 C 0.60094 0.79575 0.36762 0.0
H10442 H 0.58988 0.76901 0.37134 0.0
H10443 H 0.66863 0.85398 0.36 0.0
H10444 H 0.17176 0.66112 0.40445 0.0
H10445 H 0.16846 0.64422 0.39232 0.0
H10446 H 0.1927 0.65723 0.36763 0.0
H10447 H 0.1961 0.67398 0.37958 0.0
H10448 H 0.17113 0.65085 0.35834 0.0
H10449 H 0.20056 0.63654 0.38478 0.0
H10450 H 0.20772 0.6314 0.404 0.0
H10451 H 0.17959 0.60806 0.40843 0.0
H10452 H 0.17219 0.61318 0.38928 0.0
H10453 H 0.19717 0.61349 0.3216 0.0
H10454 H 0.19351 0.62538 0.33832 0.0
H10455 H 0.16738 0.60185 0.34969 0.0
H10456 H 0.17091 0.58977 0.33278 0.0
H10457 H 0.18391 0.61133 0.36761 0.0
H10458 H 0.15657 0.62282 0.33974 0.0
H10459 H 0.14958 0.62762 0.32038 0.0
H10460 H 0.17288 0.65608 0.31883 0.0
H10461 H 0.18015 0.65133 0.33811 0.0
C10462 C 0.17643 0.66033 0.39646 0.0
C10463 C 0.18417 0.66892 0.39296 0.0
C10464 C 0.17454 0.65068 0.38957 0.0
C10465 C 0.18031 0.64955 0.37909 0.0
C10466 C 0.18813 0.65801 0.37568 0.0
C10467 C 0.19009 0.66756 0.38255 0.0
C10468 C 0.17817 0.63978 0.37133 0.0
C10469 C 0.17384 0.64218 0.36038 0.0
C10470 C 0.18127 0.62841 0.37419 0.0
C10471 C 0.18574 0.62536 0.38568 0.0
C10472 C 0.19584 0.6304 0.3899 0.0
C10473 C 0.19996 0.62747 0.40077 0.0
C10474 C 0.19409 0.61944 0.40745 0.0
C10475 C 0.18411 0.6143 0.40326 0.0
C10476 C 0.17996 0.61721 0.3924 0.0
C10477 C 0.19071 0.61072 0.32767 0.0
C10478 C 0.18426 0.60072 0.32579 0.0
C10479 C 0.18864 0.61754 0.33723 0.0
C10480 C 0.18012 0.61451 0.34513 0.0
C10481 C 0.17398 0.60429 0.34363 0.0
C10482 C 0.17599 0.59746 0.33397 0.0
C10483 C 0.1774 0.62257 0.35449 0.0
C10484 C 0.1808 0.61988 0.36571 0.0
C10485 C 0.17333 0.63369 0.35194 0.0
C10486 C 0.16894 0.63668 0.34036 0.0
C10487 C 0.16026 0.63005 0.33524 0.0
C10488 C 0.15624 0.63277 0.32428 0.0
C10489 C 0.16079 0.64214 0.31837 0.0
C10490 C 0.16936 0.64882 0.32342 0.0
C10491 C 0.17342 0.64613 0.33437 0.0
H10492 H 0.15767 0.64423 0.30989 0.0
H10493 H 0.19729 0.61718 0.41586 0.0
H10494 H 0.33284 0.17204 0.40485 0.0
H10495 H 0.352 0.17072 0.39632 0.0
H10496 H 0.34379 0.19875 0.37362 0.0
H10497 H 0.32477 0.20016 0.38205 0.0
H10498 H 0.35725 0.16583 0.37415 0.0
H10499 H 0.36622 0.21501 0.36861 0.0
H10500 H 0.3638 0.23274 0.37983 0.0
H10501 H 0.36353 0.21323 0.41104 0.0
H10502 H 0.36613 0.19537 0.40004 0.0
H10503 H 0.38088 0.19771 0.32528 0.0
H10504 H 0.37207 0.19649 0.3441 0.0
H10505 H 0.39678 0.17093 0.35427 0.0
H10506 H 0.40565 0.17195 0.33521 0.0
H10507 H 0.38134 0.20001 0.36633 0.0
H10508 H 0.38571 0.15491 0.3684 0.0
H10509 H 0.38779 0.13717 0.35698 0.0
H10510 H 0.36153 0.14877 0.33391 0.0
H10511 H 0.3594 0.1666 0.34518 0.0
C10512 C 0.33517 0.178 0.39812 0.0
C10513 C 0.32726 0.18619 0.3941 0.0
C10514 C 0.34612 0.17723 0.39328 0.0
C10515 C 0.34937 0.18475 0.38448 0.0
C10516 C 0.34154 0.19301 0.38058 0.0
C10517 C 0.33062 0.19374 0.38534 0.0
C10518 C 0.36051 0.1835 0.37855 0.0
C10519 C 0.36276 0.1732 0.37277 0.0
C10520 C 0.36777 0.19306 0.3768 0.0
C10521 C 0.36636 0.20382 0.38348 0.0
C10522 C 0.36575 0.21449 0.37787 0.0
C10523 C 0.36431 0.22457 0.3842 0.0
C10524 C 0.36351 0.22411 0.39614 0.0
C10525 C 0.36414 0.21357 0.40179 0.0
C10526 C 0.36558 0.20346 0.39551 0.0
C10527 C 0.38452 0.19184 0.33149 0.0
C10528 C 0.39394 0.18487 0.3287 0.0
C10529 C 0.37949 0.1912 0.34228 0.0
C10530 C 0.38376 0.1836 0.35055 0.0
C10531 C 0.39331 0.17677 0.34795 0.0
C10532 C 0.39836 0.17738 0.33708 0.0
C10533 C 0.37756 0.1826 0.36155 0.0
C10534 C 0.37619 0.1925 0.36823 0.0
C10535 C 0.37124 0.17265 0.36429 0.0
C10536 C 0.37242 0.16201 0.35757 0.0
C10537 C 0.38039 0.15363 0.36089 0.0
C10538 C 0.38159 0.14359 0.35444 0.0
C10539 C 0.3748 0.14185 0.34473 0.0
C10540 C 0.36679 0.15014 0.34143 0.0
C10541 C 0.3656 0.16021 0.34783 0.0
H10542 H 0.37573 0.13407 0.33975 0.0
H10543 H 0.36239 0.23193 0.40102 0.0
H10544 H 0.66025 0.81588 0.58804 0.0
H10545 H 0.6426 0.81932 0.59893 0.0
H10546 H 0.65748 0.80262 0.62836 0.0
H10547 H 0.67507 0.79906 0.61759 0.0
H10548 H 0.62771 0.80345 0.61035 0.0
H10549 H 0.65102 0.81922 0.65145 0.0
H10550 H 0.66855 0.82985 0.65659 0.0
H10551 H 0.66831 0.84652 0.62378 0.0
H10552 H 0.65068 0.83613 0.6185 0.0
H10553 H 0.60384 0.79163 0.66438 0.0
H10554 H 0.61475 0.79441 0.64671 0.0
H10555 H 0.60637 0.83042 0.64706 0.0
H10556 H 0.59516 0.82765 0.66466 0.0
H10557 H 0.63018 0.82524 0.64682 0.0
H10558 H 0.59686 0.81709 0.6256 0.0
H10559 H 0.57913 0.80697 0.62017 0.0
H10560 H 0.59853 0.77662 0.61257 0.0
H10561 H 0.61637 0.78649 0.61813 0.0
C10562 C 0.65974 0.81289 0.59682 0.0
C10563 C 0.66907 0.80722 0.60198 0.0
C10564 C 0.64966 0.81485 0.60299 0.0
C10565 C 0.64884 0.81133 0.61445 0.0
C10566 C 0.65804 0.8055 0.61954 0.0
C10567 C 0.66805 0.80343 0.61336 0.0
C10568 C 0.63845 0.81376 0.62125 0.0
C10569 C 0.62816 0.80831 0.61827 0.0
C10570 C 0.63904 0.8204 0.63137 0.0
C10571 C 0.64955 0.82684 0.63456 0.0
C10572 C 0.65466 0.82521 0.64536 0.0
C10573 C 0.66463 0.83118 0.64829 0.0
C10574 C 0.66956 0.83884 0.64051 0.0
C10575 C 0.66451 0.84056 0.62979 0.0
C10576 C 0.65453 0.83462 0.62681 0.0
C10577 C 0.60412 0.80009 0.66056 0.0
C10578 C 0.59874 0.80944 0.66591 0.0
C10579 C 0.61028 0.80165 0.65044 0.0
C10580 C 0.6113 0.81261 0.6456 0.0
C10581 C 0.60558 0.82189 0.65066 0.0
C10582 C 0.5992 0.82029 0.66068 0.0
C10583 C 0.61961 0.81443 0.63624 0.0
C10584 C 0.62958 0.82064 0.63876 0.0
C10585 C 0.61867 0.80857 0.62567 0.0
C10586 C 0.60797 0.80253 0.62234 0.0
C10587 C 0.59735 0.80822 0.62286 0.0
C10588 C 0.58727 0.80254 0.61974 0.0
C10589 C 0.5877 0.79116 0.61604 0.0
C10590 C 0.59821 0.78544 0.61544 0.0
C10591 C 0.60831 0.79109 0.61856 0.0
H10592 H 0.57989 0.78677 0.61362 0.0
H10593 H 0.67728 0.84345 0.64279 0.0
H10594 H 0.5901 0.17174 0.33225 0.0
H10595 H 0.59882 0.17019 0.35134 0.0
H10596 H 0.61997 0.19964 0.34398 0.0
H10597 H 0.61132 0.20131 0.32514 0.0
H10598 H 0.62096 0.1661 0.35625 0.0
H10599 H 0.6251 0.21525 0.36649 0.0
H10600 H 0.61317 0.23262 0.36499 0.0
H10601 H 0.58272 0.21194 0.36499 0.0
H10602 H 0.59444 0.19445 0.36668 0.0
H10603 H 0.66948 0.1991 0.38075 0.0
H10604 H 0.65069 0.19769 0.3718 0.0
H10605 H 0.64151 0.1703 0.39488 0.0
H10606 H 0.66045 0.17154 0.40388 0.0
H10607 H 0.6285 0.19992 0.38094 0.0
H10608 H 0.62662 0.15354 0.38203 0.0
H10609 H 0.6387 0.13618 0.38335 0.0
H10610 H 0.66346 0.15154 0.36083 0.0
H10611 H 0.65153 0.16901 0.35949 0.0
C10612 C 0.59651 0.17796 0.33478 0.0
C10613 C 0.60005 0.18663 0.32716 0.0
C10614 C 0.60146 0.17706 0.34568 0.0
C10615 C 0.60989 0.18491 0.34915 0.0
C10616 C 0.61327 0.19365 0.34161 0.0
C10617 C 0.60839 0.19453 0.33076 0.0
C10618 C 0.6161 0.18353 0.36012 0.0
C10619 C 0.62229 0.17337 0.3619 0.0
C10620 C 0.61779 0.19296 0.36756 0.0
C10621 C 0.61068 0.20351 0.36671 0.0
C10622 C 0.61586 0.2144 0.36628 0.0
C10623 C 0.60912 0.22427 0.36537 0.0
C10624 C 0.59719 0.22338 0.36489 0.0
C10625 C 0.59196 0.21262 0.36534 0.0
C10626 C 0.59865 0.20272 0.36626 0.0
C10627 C 0.66349 0.19279 0.38398 0.0
C10628 C 0.6665 0.18539 0.39299 0.0
C10629 C 0.65272 0.19204 0.37889 0.0
C10630 C 0.64474 0.18389 0.38268 0.0
C10631 C 0.64759 0.17659 0.39179 0.0
C10632 C 0.65841 0.17733 0.39691 0.0
C10633 C 0.63375 0.18281 0.37648 0.0
C10634 C 0.6267 0.1925 0.37562 0.0
C10635 C 0.63112 0.17293 0.37002 0.0
C10636 C 0.63823 0.16249 0.37067 0.0
C10637 C 0.63463 0.15316 0.37736 0.0
C10638 C 0.64146 0.14334 0.37813 0.0
C10639 C 0.65184 0.14276 0.37218 0.0
C10640 C 0.65543 0.152 0.36544 0.0
C10641 C 0.64865 0.16187 0.36469 0.0
H10642 H 0.65711 0.13514 0.37278 0.0
H10643 H 0.592 0.23104 0.36418 0.0
H10644 H 0.81514 0.58776 0.33352 0.0
H10645 H 0.81489 0.59806 0.35187 0.0
H10646 H 0.80044 0.62765 0.33497 0.0
H10647 H 0.80025 0.61733 0.31686 0.0
H10648 H 0.82456 0.61629 0.35997 0.0
H10649 H 0.78192 0.64135 0.35055 0.0
H10650 H 0.76334 0.63766 0.34117 0.0
H10651 H 0.76783 0.60145 0.34605 0.0
H10652 H 0.78636 0.60492 0.35561 0.0
H10653 H 0.82371 0.66969 0.38672 0.0
H10654 H 0.82409 0.65205 0.37546 0.0
H10655 H 0.79199 0.64162 0.39079 0.0
H10656 H 0.7912 0.65981 0.40125 0.0
H10657 H 0.78976 0.63829 0.37058 0.0
H10658 H 0.81939 0.62688 0.39506 0.0
H10659 H 0.83709 0.62801 0.40655 0.0
H10660 H 0.85697 0.63239 0.37589 0.0
H10661 H 0.83938 0.63146 0.36421 0.0
C10662 C 0.8119 0.59646 0.33376 0.0
C10663 C 0.80758 0.6017 0.32379 0.0
C10664 C 0.81177 0.60233 0.34423 0.0
C10665 C 0.8074 0.61353 0.34485 0.0
C10666 C 0.80351 0.61888 0.33479 0.0
C10667 C 0.80347 0.61299 0.32441 0.0
C10668 C 0.80691 0.61982 0.35588 0.0
C10669 C 0.81694 0.62104 0.3624 0.0
C10670 C 0.7968 0.62553 0.35939 0.0
C10671 C 0.78557 0.6234 0.35376 0.0
C10672 C 0.77891 0.6326 0.34969 0.0
C10673 C 0.7684 0.63055 0.34433 0.0
C10674 C 0.76442 0.61932 0.343 0.0
C10675 C 0.77094 0.61013 0.34706 0.0
C10676 C 0.78145 0.61214 0.35244 0.0
C10677 C 0.81685 0.66351 0.38776 0.0
C10678 C 0.80741 0.66601 0.39474 0.0
C10679 C 0.81712 0.65336 0.38144 0.0
C10680 C 0.80815 0.64533 0.38235 0.0
C10681 C 0.799 0.64764 0.38986 0.0
C10682 C 0.79854 0.65799 0.39586 0.0
C10683 C 0.80763 0.63536 0.37441 0.0
C10684 C 0.79736 0.6334 0.36843 0.0
C10685 C 0.81738 0.62858 0.37179 0.0
C10686 C 0.82803 0.62914 0.37875 0.0
C10687 C 0.82753 0.62815 0.39076 0.0
C10688 C 0.83755 0.62875 0.39731 0.0
C10689 C 0.84815 0.63028 0.39195 0.0
C10690 C 0.84875 0.6312 0.38003 0.0
C10691 C 0.83876 0.63061 0.37343 0.0
H10692 H 0.85589 0.63074 0.39704 0.0
H10693 H 0.75628 0.61775 0.33883 0.0
H10694 H 0.40163 0.81987 0.32981 0.0
H10695 H 0.38853 0.82176 0.34618 0.0
H10696 H 0.36718 0.79502 0.33218 0.0
H10697 H 0.38011 0.79302 0.31594 0.0
H10698 H 0.35548 0.81553 0.33751 0.0
H10699 H 0.38346 0.78933 0.35434 0.0
H10700 H 0.40286 0.78393 0.36076 0.0
H10701 H 0.40369 0.81301 0.38333 0.0
H10702 H 0.38434 0.81867 0.37691 0.0
H10703 H 0.3168 0.79344 0.37623 0.0
H10704 H 0.33327 0.796 0.36369 0.0
H10705 H 0.34711 0.82145 0.38666 0.0
H10706 H 0.33057 0.81891 0.39942 0.0
H10707 H 0.36377 0.80612 0.37816 0.0
H10708 H 0.33518 0.83101 0.36366 0.0
H10709 H 0.31587 0.83698 0.3575 0.0
H10710 H 0.31643 0.81179 0.33066 0.0
H10711 H 0.33568 0.80554 0.33677 0.0
C10712 C 0.3942 0.81432 0.33029 0.0
C10713 C 0.39187 0.80634 0.32153 0.0
C10714 C 0.38676 0.8154 0.33964 0.0
C10715 C 0.3769 0.80856 0.34032 0.0
C10716 C 0.37474 0.80041 0.33176 0.0
C10717 C 0.38217 0.79927 0.32249 0.0
C10718 C 0.36838 0.81014 0.34955 0.0
C10719 C 0.35728 0.81345 0.3464 0.0
C10720 C 0.37091 0.80792 0.3612 0.0
C10721 C 0.38253 0.80451 0.36503 0.0
C10722 C 0.38783 0.79464 0.36058 0.0
C10723 C 0.3988 0.79151 0.36424 0.0
C10724 C 0.40453 0.79814 0.37242 0.0
C10725 C 0.39926 0.80789 0.37698 0.0
C10726 C 0.38829 0.81106 0.37333 0.0
C10727 C 0.32334 0.79955 0.37869 0.0
C10728 C 0.32231 0.80604 0.38879 0.0
C10729 C 0.33274 0.80102 0.37149 0.0
C10730 C 0.34129 0.80903 0.37418 0.0
C10731 C 0.34055 0.81526 0.38444 0.0
C10732 C 0.33109 0.81381 0.39168 0.0
C10733 C 0.35076 0.81097 0.36599 0.0
C10734 C 0.36203 0.80842 0.36932 0.0
C10735 C 0.34844 0.81402 0.35449 0.0
C10736 C 0.33686 0.81776 0.35073 0.0
C10737 C 0.33116 0.82668 0.3565 0.0
C10738 C 0.32022 0.83013 0.35301 0.0
C10739 C 0.31492 0.82476 0.3437 0.0
C10740 C 0.32055 0.81595 0.33786 0.0
C10741 C 0.33148 0.81246 0.34133 0.0
H10742 H 0.30646 0.82744 0.34101 0.0
H10743 H 0.41302 0.79571 0.37524 0.0
H10744 H 0.17202 0.40278 0.33167 0.0
H10745 H 0.16957 0.39066 0.34871 0.0
H10746 H 0.19644 0.36831 0.33664 0.0
H10747 H 0.19895 0.38023 0.31972 0.0
H10748 H 0.17639 0.35685 0.34228 0.0
H10749 H 0.20139 0.38648 0.35807 0.0
H10750 H 0.20619 0.40638 0.36335 0.0
H10751 H 0.17634 0.40808 0.38483 0.0
H10752 H 0.17129 0.38821 0.37956 0.0
H10753 H 0.20122 0.32298 0.38303 0.0
H10754 H 0.19827 0.33979 0.37107 0.0
H10755 H 0.16774 0.34829 0.39006 0.0
H10756 H 0.17055 0.33128 0.40218 0.0
H10757 H 0.18446 0.36797 0.38256 0.0
H10758 H 0.16076 0.33746 0.36864 0.0
H10759 H 0.15646 0.31735 0.36374 0.0
H10760 H 0.18351 0.31747 0.33877 0.0
H10761 H 0.1881 0.33753 0.34367 0.0
C10762 C 0.17747 0.39533 0.33271 0.0
C10763 C 0.18563 0.39243 0.3243 0.0
C10764 C 0.17606 0.38845 0.34244 0.0
C10765 C 0.1828 0.37859 0.34387 0.0
C10766 C 0.19112 0.37586 0.33564 0.0
C10767 C 0.19255 0.38271 0.32598 0.0
C10768 C 0.18101 0.37069 0.35361 0.0
C10769 C 0.1781 0.35931 0.35109 0.0
C10770 C 0.18282 0.37401 0.36514 0.0
C10771 C 0.18588 0.38593 0.3683 0.0
C10772 C 0.19579 0.39113 0.36384 0.0
C10773 C 0.19857 0.4024 0.36685 0.0
C10774 C 0.19155 0.40851 0.37439 0.0
C10775 C 0.18175 0.40335 0.37897 0.0
C10776 C 0.17893 0.39209 0.37598 0.0
C10777 C 0.19395 0.32846 0.38483 0.0
C10778 C 0.18603 0.32568 0.39347 0.0
C10779 C 0.19231 0.3381 0.37799 0.0
C10780 C 0.18276 0.34517 0.37967 0.0
C10781 C 0.17517 0.34289 0.3887 0.0
C10782 C 0.17677 0.33316 0.39555 0.0
C10783 C 0.18029 0.35412 0.3711 0.0
C10784 C 0.18239 0.36564 0.3738 0.0
C10785 C 0.17765 0.35099 0.3597 0.0
C10786 C 0.17481 0.33898 0.35658 0.0
C10787 C 0.16585 0.33317 0.36216 0.0
C10788 C 0.16335 0.32179 0.35938 0.0
C10789 C 0.16972 0.31613 0.35096 0.0
C10790 C 0.17858 0.32186 0.34529 0.0
C10791 C 0.18113 0.33325 0.34806 0.0
H10792 H 0.16778 0.30731 0.34881 0.0
H10793 H 0.19372 0.41722 0.37672 0.0
H10794 H 0.40202 0.17248 0.6615 0.0
H10795 H 0.3893 0.17006 0.64491 0.0
H10796 H 0.36668 0.19595 0.65852 0.0
H10797 H 0.37922 0.19846 0.67498 0.0
H10798 H 0.3559 0.17495 0.65298 0.0
H10799 H 0.38343 0.20225 0.63677 0.0
H10800 H 0.40282 0.20808 0.63068 0.0
H10801 H 0.40457 0.17918 0.60794 0.0
H10802 H 0.38524 0.1731 0.61403 0.0
H10803 H 0.31795 0.19937 0.61581 0.0
H10804 H 0.33499 0.19629 0.6274 0.0
H10805 H 0.34635 0.16989 0.60416 0.0
H10806 H 0.32917 0.1729 0.59236 0.0
H10807 H 0.36431 0.18567 0.61266 0.0
H10808 H 0.33583 0.16004 0.62626 0.0
H10809 H 0.3164 0.154 0.63198 0.0
H10810 H 0.31667 0.17849 0.65946 0.0
H10811 H 0.33604 0.18482 0.65379 0.0
C10812 C 0.39439 0.17773 0.66089 0.0
C10813 C 0.39159 0.18561 0.66961 0.0
C10814 C 0.38716 0.17634 0.65141 0.0
C10815 C 0.37706 0.18279 0.65057 0.0
C10816 C 0.37443 0.19085 0.65908 0.0
C10817 C 0.38163 0.19229 0.66847 0.0
C10818 C 0.36879 0.18093 0.64118 0.0
C10819 C 0.35774 0.17726 0.64415 0.0
C10820 C 0.37137 0.18345 0.62961 0.0
C10821 C 0.38296 0.18714 0.62596 0.0
C10822 C 0.388 0.19708 0.63056 0.0
C10823 C 0.39897 0.20045 0.62709 0.0
C10824 C 0.40494 0.19398 0.61896 0.0
C10825 C 0.39995 0.18416 0.61426 0.0
C10826 C 0.38898 0.18076 0.61771 0.0
C10827 C 0.32408 0.19297 0.61305 0.0
C10828 C 0.32212 0.18629 0.60323 0.0
C10829 C 0.33383 0.19123 0.61969 0.0
C10830 C 0.34181 0.18277 0.61668 0.0
C10831 C 0.34023 0.17643 0.6066 0.0
C10832 C 0.33041 0.17815 0.59992 0.0
C10833 C 0.35132 0.18027 0.62463 0.0
C10834 C 0.36256 0.18305 0.62141 0.0
C10835 C 0.34898 0.17679 0.63599 0.0
C10836 C 0.33738 0.17294 0.63955 0.0
C10837 C 0.33172 0.16419 0.63347 0.0
C10838 C 0.32072 0.16071 0.63672 0.0
C10839 C 0.3153 0.16586 0.64607 0.0
C10840 C 0.32089 0.1745 0.65222 0.0
C10841 C 0.33188 0.17802 0.649 0.0
H10842 H 0.30679 0.16316 0.64857 0.0
H10843 H 0.41343 0.1966 0.61628 0.0
H10844 H 0.82578 0.40201 0.66215 0.0
H10845 H 0.82859 0.39252 0.64359 0.0
H10846 H 0.79435 0.37867 0.6455 0.0
H10847 H 0.7915 0.388 0.66396 0.0
H10848 H 0.82804 0.3693 0.641 0.0
H10849 H 0.78325 0.37581 0.61929 0.0
H10850 H 0.76922 0.39138 0.61664 0.0
H10851 H 0.79579 0.41641 0.62131 0.0
H10852 H 0.81003 0.401 0.62382 0.0
H10853 H 0.80169 0.32223 0.6161 0.0
H10854 H 0.80515 0.34043 0.62583 0.0
H10855 H 0.8186 0.35484 0.59456 0.0
H10856 H 0.8154 0.33647 0.58473 0.0
H10857 H 0.80046 0.3684 0.60861 0.0
H10858 H 0.83769 0.35187 0.61017 0.0
H10859 H 0.85174 0.3363 0.61277 0.0
H10860 H 0.84106 0.33225 0.64777 0.0
H10861 H 0.82681 0.34767 0.64532 0.0
C10862 C 0.81879 0.3971 0.6585 0.0
C10863 C 0.80846 0.39564 0.66456 0.0
C10864 C 0.82041 0.39172 0.64791 0.0
C10865 C 0.81164 0.385 0.64314 0.0
C10866 C 0.80116 0.38397 0.64894 0.0
C10867 C 0.79959 0.38922 0.65955 0.0
C10868 C 0.81376 0.37779 0.63294 0.0
C10869 C 0.82218 0.36926 0.63378 0.0
C10870 C 0.80624 0.3779 0.62341 0.0
C10871 C 0.79772 0.38722 0.62177 0.0
C10872 C 0.78613 0.38463 0.61966 0.0
C10873 C 0.77813 0.39343 0.61821 0.0
C10874 C 0.78161 0.40488 0.61882 0.0
C10875 C 0.7931 0.40754 0.62087 0.0
C10876 C 0.80114 0.39877 0.62233 0.0
C10877 C 0.80533 0.32927 0.61126 0.0
C10878 C 0.80828 0.32793 0.59966 0.0
C10879 C 0.80734 0.33963 0.61683 0.0
C10880 C 0.81218 0.34888 0.61089 0.0
C10881 C 0.8149 0.34773 0.59925 0.0
C10882 C 0.81308 0.33726 0.59369 0.0
C10883 C 0.81429 0.35967 0.61711 0.0
C10884 C 0.80661 0.36876 0.61558 0.0
C10885 C 0.82254 0.36015 0.62596 0.0
C10886 C 0.83114 0.3509 0.62753 0.0
C10887 C 0.83827 0.3476 0.61839 0.0
C10888 C 0.84629 0.33881 0.61985 0.0
C10889 C 0.84729 0.33328 0.63042 0.0
C10890 C 0.84028 0.33655 0.63958 0.0
C10891 C 0.83225 0.34533 0.63817 0.0
H10892 H 0.8535 0.32647 0.63153 0.0
H10893 H 0.7754 0.41168 0.6177 0.0
H10894 H 0.16904 0.59621 0.66401 0.0
H10895 H 0.16666 0.6081 0.64682 0.0
H10896 H 0.20204 0.61858 0.64915 0.0
H10897 H 0.20444 0.60692 0.66638 0.0
H10898 H 0.17024 0.63217 0.64689 0.0
H10899 H 0.21188 0.62165 0.62145 0.0
H10900 H 0.22395 0.60485 0.61713 0.0
H10901 H 0.19517 0.58254 0.62247 0.0
H10902 H 0.18288 0.59921 0.62666 0.0
H10903 H 0.19547 0.6779 0.6172 0.0
H10904 H 0.19282 0.66035 0.62831 0.0
H10905 H 0.17594 0.64445 0.59953 0.0
H10906 H 0.17835 0.66213 0.58835 0.0
H10907 H 0.19431 0.63089 0.61181 0.0
H10908 H 0.15894 0.65084 0.61772 0.0
H10909 H 0.14705 0.6678 0.62192 0.0
H10910 H 0.16257 0.67068 0.65518 0.0
H10911 H 0.17469 0.65383 0.6511 0.0
C10912 C 0.17635 0.60092 0.66074 0.0
C10913 C 0.18691 0.60071 0.66657 0.0
C10914 C 0.17497 0.6077 0.65095 0.0
C10915 C 0.18419 0.61414 0.64671 0.0
C10916 C 0.19485 0.61357 0.65224 0.0
C10917 C 0.19619 0.60696 0.66211 0.0
C10918 C 0.18254 0.62235 0.63722 0.0
C10919 C 0.17536 0.6318 0.63913 0.0
C10920 C 0.18915 0.62178 0.62707 0.0
C10921 C 0.19647 0.6117 0.62444 0.0
C10922 C 0.20811 0.61317 0.62164 0.0
C10923 C 0.21499 0.60366 0.61923 0.0
C10924 C 0.21034 0.59263 0.61955 0.0
C10925 C 0.19877 0.59108 0.62226 0.0
C10926 C 0.19185 0.60056 0.62468 0.0
C10927 C 0.19125 0.67067 0.61319 0.0
C10928 C 0.1871 0.6714 0.60191 0.0
C10929 C 0.18972 0.66067 0.61956 0.0
C10930 C 0.18415 0.65119 0.61472 0.0
C10931 C 0.18024 0.65173 0.60337 0.0
C10932 C 0.1816 0.66182 0.59704 0.0
C10933 C 0.18235 0.64082 0.62173 0.0
C10934 C 0.18895 0.63106 0.61941 0.0
C10935 C 0.17518 0.64107 0.63149 0.0
C10936 C 0.16778 0.65111 0.63407 0.0
C10937 C 0.15988 0.65513 0.6259 0.0
C10938 C 0.15309 0.66472 0.62826 0.0
C10939 C 0.15407 0.67033 0.6388 0.0
C10940 C 0.16182 0.66633 0.64701 0.0
C10941 C 0.16864 0.65675 0.64469 0.0
H10942 H 0.14882 0.67776 0.64061 0.0
H10943 H 0.21568 0.58528 0.61768 0.0
loop_
_geom_bond_atom_site_label_1
_geom_bond_atom_site_label_2
_geom_bond_distance
_geom_bond_site_symmetry_2
_ccdc_geom_bond_type
C0 O1 1.306 . S
C0 O3 1.160 . S
O1 C0 1.306 . S
O1 Cd2 2.228 . S
Cd2 O1 2.228 . S
Cd2 O6 2.273 . S
Cd2 O10 2.277 . S
O3 C0 1.160 . S
O3 Cd4 2.203 . S
Cd4 O3 2.203 . S
Cd4 O6 2.411 . S
Cd4 O7 2.333 . S
Cd4 O8 2.352 . S
Cd4 O12 2.277 . S
Cd4 O13 2.356 . S
C5 O10 1.209 . S
C5 O12 1.226 . S
O6 Cd2 2.273 . S
O6 Cd4 2.411 . S
O6 C9 1.320 . S
O7 Cd4 2.333 . S
O7 C9 1.214 . S
O8 Cd4 2.352 . S
O8 C11 1.258 . S
C9 O6 1.320 . S
C9 O7 1.214 . S
O10 Cd2 2.277 . S
O10 C5 1.209 . S
C11 O8 1.258 . S
C11 O13 1.282 . S
O12 Cd4 2.277 . S
O12 C5 1.226 . S
O13 Cd4 2.356 . S
O13 C11 1.282 . S
C14 O15 1.306 . S
C14 O17 1.160 . S
O15 C14 1.306 . S
O15 Cd16 2.228 . S
Cd16 O15 2.228 . S
Cd16 O20 2.273 . S
Cd16 O24 2.277 . S
O17 C14 1.160 . S
O17 Cd18 2.203 . S
Cd18 O17 2.203 . S
Cd18 O20 2.411 . S
Cd18 O21 2.333 . S
Cd18 O22 2.352 . S
Cd18 O26 2.277 . S
Cd18 O27 2.356 . S
C19 O24 1.209 . S
C19 O26 1.226 . S
O20 Cd16 2.273 . S
O20 Cd18 2.411 . S
O20 C23 1.320 . S
O21 Cd18 2.333 . S
O21 C23 1.214 . S
O22 Cd18 2.352 . S
O22 C25 1.258 . S
C23 O20 1.320 . S
C23 O21 1.214 . S
O24 Cd16 2.277 . S
O24 C19 1.209 . S
C25 O22 1.258 . S
C25 O27 1.282 . S
O26 Cd18 2.277 . S
O26 C19 1.226 . S
O27 Cd18 2.356 . S
O27 C25 1.282 . S
C28 O29 1.306 . S
C28 O31 1.160 . S
O29 C28 1.306 . S
O29 Cd30 2.228 . S
Cd30 O29 2.228 . S
Cd30 O34 2.273 . S
Cd30 O38 2.277 . S
O31 C28 1.160 . S
O31 Cd32 2.203 . S
Cd32 O31 2.203 . S
Cd32 O34 2.411 . S
Cd32 O35 2.333 . S
Cd32 O36 2.352 . S
Cd32 O40 2.277 . S
Cd32 O41 2.356 . S
C33 O38 1.209 . S
C33 O40 1.226 . S
O34 Cd30 2.273 . S
O34 Cd32 2.411 . S
O34 C37 1.320 . S
O35 Cd32 2.333 . S
O35 C37 1.214 . S
O36 Cd32 2.352 . S
O36 C39 1.258 . S
C37 O34 1.320 . S
C37 O35 1.214 . S
O38 Cd30 2.277 . S
O38 C33 1.209 . S
C39 O36 1.258 . S
C39 O41 1.282 . S
O40 Cd32 2.277 . S
O40 C33 1.226 . S
O41 Cd32 2.356 . S
O41 C39 1.282 . S
C42 O43 1.306 . S
C42 O45 1.160 . S
O43 C42 1.306 . S
O43 Cd44 2.228 . S
Cd44 O43 2.228 . S
Cd44 O48 2.273 . S
Cd44 O52 2.277 . S
O45 C42 1.160 . S
O45 Cd46 2.203 . S
Cd46 O45 2.203 . S
Cd46 O48 2.411 . S
Cd46 O49 2.333 . S
Cd46 O50 2.352 . S
Cd46 O54 2.277 . S
Cd46 O55 2.356 . S
C47 O52 1.209 . S
C47 O54 1.226 . S
O48 Cd44 2.273 . S
O48 Cd46 2.411 . S
O48 C51 1.320 . S
O49 Cd46 2.333 . S
O49 C51 1.214 . S
O50 Cd46 2.352 . S
O50 C53 1.258 . S
C51 O48 1.320 . S
C51 O49 1.214 . S
O52 Cd44 2.277 . S
O52 C47 1.209 . S
C53 O50 1.258 . S
C53 O55 1.282 . S
O54 Cd46 2.277 . S
O54 C47 1.226 . S
O55 Cd46 2.356 . S
O55 C53 1.282 . S
C56 O57 1.306 . S
C56 O59 1.160 . S
O57 C56 1.306 . S
O57 Cd58 2.228 . S
Cd58 O57 2.228 . S
Cd58 O62 2.273 . S
Cd58 O66 2.277 . S
O59 C56 1.160 . S
O59 Cd60 2.203 . S
Cd60 O59 2.203 . S
Cd60 O62 2.411 . S
Cd60 O63 2.333 . S
Cd60 O64 2.352 . S
Cd60 O68 2.277 . S
Cd60 O69 2.356 . S
C61 O66 1.209 . S
C61 O68 1.226 . S
O62 Cd58 2.273 . S
O62 Cd60 2.411 . S
O62 C65 1.320 . S
O63 Cd60 2.333 . S
O63 C65 1.214 . S
O64 Cd60 2.352 . S
O64 C67 1.258 . S
C65 O62 1.320 . S
C65 O63 1.214 . S
O66 Cd58 2.277 . S
O66 C61 1.209 . S
C67 O64 1.258 . S
C67 O69 1.282 . S
O68 Cd60 2.277 . S
O68 C61 1.226 . S
O69 Cd60 2.356 . S
O69 C67 1.282 . S
C70 O71 1.306 . S
C70 O73 1.160 . S
O71 C70 1.306 . S
O71 Cd72 2.228 . S
Cd72 O71 2.228 . S
Cd72 O76 2.273 . S
Cd72 O80 2.277 . S
O73 C70 1.160 . S
O73 Cd74 2.203 . S
Cd74 O73 2.203 . S
Cd74 O76 2.411 . S
Cd74 O77 2.333 . S
Cd74 O78 2.352 . S
Cd74 O82 2.277 . S
Cd74 O83 2.356 . S
C75 O80 1.209 . S
C75 O82 1.226 . S
O76 Cd72 2.273 . S
O76 Cd74 2.411 . S
O76 C79 1.320 . S
O77 Cd74 2.333 . S
O77 C79 1.214 . S
O78 Cd74 2.352 . S
O78 C81 1.258 . S
C79 O76 1.320 . S
C79 O77 1.214 . S
O80 Cd72 2.277 . S
O80 C75 1.209 . S
C81 O78 1.258 . S
C81 O83 1.282 . S
O82 Cd74 2.277 . S
O82 C75 1.226 . S
O83 Cd74 2.356 . S
O83 C81 1.282 . S
C84 O85 1.306 . S
C84 O87 1.160 . S
O85 C84 1.306 . S
O85 Cd86 2.228 . S
Cd86 O85 2.228 . S
Cd86 O90 2.273 . S
Cd86 O94 2.277 . S
O87 C84 1.160 . S
O87 Cd88 2.203 . S
Cd88 O87 2.203 . S
Cd88 O90 2.411 . S
Cd88 O91 2.333 . S
Cd88 O92 2.352 . S
Cd88 O96 2.277 . S
Cd88 O97 2.356 . S
C89 O94 1.209 . S
C89 O96 1.226 . S
O90 Cd86 2.273 . S
O90 Cd88 2.411 . S
O90 C93 1.320 . S
O91 Cd88 2.333 . S
O91 C93 1.214 . S
O92 Cd88 2.352 . S
O92 C95 1.258 . S
C93 O90 1.320 . S
C93 O91 1.214 . S
O94 Cd86 2.277 . S
O94 C89 1.209 . S
C95 O92 1.258 . S
C95 O97 1.282 . S
O96 Cd88 2.277 . S
O96 C89 1.226 . S
O97 Cd88 2.356 . S
O97 C95 1.282 . S
C98 O99 1.306 . S
C98 O101 1.160 . S
O99 C98 1.306 . S
O99 Cd100 2.228 . S
Cd100 O99 2.228 . S
Cd100 O104 2.273 . S
Cd100 O108 2.277 . S
O101 C98 1.160 . S
O101 Cd102 2.203 . S
Cd102 O101 2.203 . S
Cd102 O104 2.411 . S
Cd102 O105 2.333 . S
Cd102 O106 2.352 . S
Cd102 O110 2.277 . S
Cd102 O111 2.356 . S
C103 O108 1.209 . S
C103 O110 1.226 . S
O104 Cd100 2.273 . S
O104 Cd102 2.411 . S
O104 C107 1.320 . S
O105 Cd102 2.333 . S
O105 C107 1.214 . S
O106 Cd102 2.352 . S
O106 C109 1.258 . S
C107 O104 1.320 . S
C107 O105 1.214 . S
O108 Cd100 2.277 . S
O108 C103 1.209 . S
C109 O106 1.258 . S
C109 O111 1.282 . S
O110 Cd102 2.277 . S
O110 C103 1.226 . S
O111 Cd102 2.356 . S
O111 C109 1.282 . S
C112 O113 1.306 . S
C112 O115 1.160 . S
O113 C112 1.306 . S
O113 Cd114 2.228 . S
Cd114 O113 2.228 . S
Cd114 O118 2.273 . S
Cd114 O122 2.277 . S
O115 C112 1.160 . S
O115 Cd116 2.203 . S
Cd116 O115 2.203 . S
Cd116 O118 2.411 . S
Cd116 O119 2.333 . S
Cd116 O120 2.352 . S
Cd116 O124 2.277 . S
Cd116 O125 2.356 . S
C117 O122 1.209 . S
C117 O124 1.226 . S
O118 Cd114 2.273 . S
O118 Cd116 2.411 . S
O118 C121 1.320 . S
O119 Cd116 2.333 . S
O119 C121 1.214 . S
O120 Cd116 2.352 . S
O120 C123 1.258 . S
C121 O118 1.320 . S
C121 O119 1.214 . S
O122 Cd114 2.277 . S
O122 C117 1.209 . S
C123 O120 1.258 . S
C123 O125 1.282 . S
O124 Cd116 2.277 . S
O124 C117 1.226 . S
O125 Cd116 2.356 . S
O125 C123 1.282 . S
C126 O127 1.306 . S
C126 O129 1.160 . S
O127 C126 1.306 . S
O127 Cd128 2.228 . S
Cd128 O127 2.228 . S
Cd128 O132 2.273 . S
Cd128 O136 2.277 . S
O129 C126 1.160 . S
O129 Cd130 2.203 . S
Cd130 O129 2.203 . S
Cd130 O132 2.411 . S
Cd130 O133 2.333 . S
Cd130 O134 2.352 . S
Cd130 O138 2.277 . S
Cd130 O139 2.356 . S
C131 O136 1.209 . S
C131 O138 1.226 . S
O132 Cd128 2.273 . S
O132 Cd130 2.411 . S
O132 C135 1.320 . S
O133 Cd130 2.333 . S
O133 C135 1.214 . S
O134 Cd130 2.352 . S
O134 C137 1.258 . S
C135 O132 1.320 . S
C135 O133 1.214 . S
O136 Cd128 2.277 . S
O136 C131 1.209 . S
C137 O134 1.258 . S
C137 O139 1.282 . S
O138 Cd130 2.277 . S
O138 C131 1.226 . S
O139 Cd130 2.356 . S
O139 C137 1.282 . S
C140 O141 1.306 . S
C140 O143 1.160 . S
O141 C140 1.306 . S
O141 Cd142 2.228 . S
Cd142 O141 2.228 . S
Cd142 O146 2.273 . S
Cd142 O150 2.277 . S
O143 C140 1.160 . S
O143 Cd144 2.203 . S
Cd144 O143 2.203 . S
Cd144 O146 2.411 . S
Cd144 O147 2.333 . S
Cd144 O148 2.352 . S
Cd144 O152 2.277 . S
Cd144 O153 2.356 . S
C145 O150 1.209 . S
C145 O152 1.226 . S
O146 Cd142 2.273 . S
O146 Cd144 2.411 . S
O146 C149 1.320 . S
O147 Cd144 2.333 . S
O147 C149 1.214 . S
O148 Cd144 2.352 . S
O148 C151 1.258 . S
C149 O146 1.320 . S
C149 O147 1.214 . S
O150 Cd142 2.277 . S
O150 C145 1.209 . S
C151 O148 1.258 . S
C151 O153 1.282 . S
O152 Cd144 2.277 . S
O152 C145 1.226 . S
O153 Cd144 2.356 . S
O153 C151 1.282 . S
C154 O155 1.306 . S
C154 O157 1.160 . S
O155 C154 1.306 . S
O155 Cd156 2.228 . S
Cd156 O155 2.228 . S
Cd156 O160 2.273 . S
Cd156 O164 2.277 . S
O157 C154 1.160 . S
O157 Cd158 2.203 . S
Cd158 O157 2.203 . S
Cd158 O160 2.411 . S
Cd158 O161 2.333 . S
Cd158 O162 2.352 . S
Cd158 O166 2.277 . S
Cd158 O167 2.356 . S
C159 O164 1.209 . S
C159 O166 1.226 . S
O160 Cd156 2.273 . S
O160 Cd158 2.411 . S
O160 C163 1.320 . S
O161 Cd158 2.333 . S
O161 C163 1.214 . S
O162 Cd158 2.352 . S
O162 C165 1.258 . S
C163 O160 1.320 . S
C163 O161 1.214 . S
O164 Cd156 2.277 . S
O164 C159 1.209 . S
C165 O162 1.258 . S
C165 O167 1.282 . S
O166 Cd158 2.277 . S
O166 C159 1.226 . S
O167 Cd158 2.356 . S
O167 C165 1.282 . S
C168 O169 1.306 . S
C168 O171 1.160 . S
O169 C168 1.306 . S
O169 Cd170 2.228 . S
Cd170 O169 2.228 . S
Cd170 O174 2.273 . S
Cd170 O178 2.277 . S
O171 C168 1.160 . S
O171 Cd172 2.203 . S
Cd172 O171 2.203 . S
Cd172 O174 2.411 . S
Cd172 O175 2.333 . S
Cd172 O176 2.352 . S
Cd172 O180 2.277 . S
Cd172 O181 2.356 . S
C173 O178 1.209 . S
C173 O180 1.226 . S
O174 Cd170 2.273 . S
O174 Cd172 2.411 . S
O174 C177 1.320 . S
O175 Cd172 2.333 . S
O175 C177 1.214 . S
O176 Cd172 2.352 . S
O176 C179 1.258 . S
C177 O174 1.320 . S
C177 O175 1.214 . S
O178 Cd170 2.277 . S
O178 C173 1.209 . S
C179 O176 1.258 . S
C179 O181 1.282 . S
O180 Cd172 2.277 . S
O180 C173 1.226 . S
O181 Cd172 2.356 . S
O181 C179 1.282 . S
C182 O183 1.306 . S
C182 O185 1.160 . S
O183 C182 1.306 . S
O183 Cd184 2.228 . S
Cd184 O183 2.228 . S
Cd184 O188 2.273 . S
Cd184 O192 2.277 . S
O185 C182 1.160 . S
O185 Cd186 2.203 . S
Cd186 O185 2.203 . S
Cd186 O188 2.411 . S
Cd186 O189 2.333 . S
Cd186 O190 2.352 . S
Cd186 O194 2.277 . S
Cd186 O195 2.356 . S
C187 O192 1.209 . S
C187 O194 1.226 . S
O188 Cd184 2.273 . S
O188 Cd186 2.411 . S
O188 C191 1.320 . S
O189 Cd186 2.333 . S
O189 C191 1.214 . S
O190 Cd186 2.352 . S
O190 C193 1.258 . S
C191 O188 1.320 . S
C191 O189 1.214 . S
O192 Cd184 2.277 . S
O192 C187 1.209 . S
C193 O190 1.258 . S
C193 O195 1.282 . S
O194 Cd186 2.277 . S
O194 C187 1.226 . S
O195 Cd186 2.356 . S
O195 C193 1.282 . S
C196 O197 1.306 . S
C196 O199 1.160 . S
O197 C196 1.306 . S
O197 Cd198 2.228 . S
Cd198 O197 2.228 . S
Cd198 O202 2.273 . S
Cd198 O206 2.277 . S
O199 C196 1.160 . S
O199 Cd200 2.203 . S
Cd200 O199 2.203 . S
Cd200 O202 2.411 . S
Cd200 O203 2.333 . S
Cd200 O204 2.352 . S
Cd200 O208 2.277 . S
Cd200 O209 2.356 . S
C201 O206 1.209 . S
C201 O208 1.226 . S
O202 Cd198 2.273 . S
O202 Cd200 2.411 . S
O202 C205 1.320 . S
O203 Cd200 2.333 . S
O203 C205 1.214 . S
O204 Cd200 2.352 . S
O204 C207 1.258 . S
C205 O202 1.320 . S
C205 O203 1.214 . S
O206 Cd198 2.277 . S
O206 C201 1.209 . S
C207 O204 1.258 . S
C207 O209 1.282 . S
O208 Cd200 2.277 . S
O208 C201 1.226 . S
O209 Cd200 2.356 . S
O209 C207 1.282 . S
C210 O211 1.306 . S
C210 O213 1.160 . S
O211 C210 1.306 . S
O211 Cd212 2.228 . S
Cd212 O211 2.228 . S
Cd212 O216 2.273 . S
Cd212 O220 2.277 . S
O213 C210 1.160 . S
O213 Cd214 2.203 . S
Cd214 O213 2.203 . S
Cd214 O216 2.411 . S
Cd214 O217 2.333 . S
Cd214 O218 2.352 . S
Cd214 O222 2.277 . S
Cd214 O223 2.356 . S
C215 O220 1.209 . S
C215 O222 1.226 . S
O216 Cd212 2.273 . S
O216 Cd214 2.411 . S
O216 C219 1.320 . S
O217 Cd214 2.333 . S
O217 C219 1.214 . S
O218 Cd214 2.352 . S
O218 C221 1.258 . S
C219 O216 1.320 . S
C219 O217 1.214 . S
O220 Cd212 2.277 . S
O220 C215 1.209 . S
C221 O218 1.258 . S
C221 O223 1.282 . S
O222 Cd214 2.277 . S
O222 C215 1.226 . S
O223 Cd214 2.356 . S
O223 C221 1.282 . S
C224 O225 1.306 . S
C224 O227 1.160 . S
O225 C224 1.306 . S
O225 Cd226 2.228 . S
Cd226 O225 2.228 . S
Cd226 O230 2.273 . S
Cd226 O234 2.277 . S
O227 C224 1.160 . S
O227 Cd228 2.203 . S
Cd228 O227 2.203 . S
Cd228 O230 2.411 . S
Cd228 O231 2.333 . S
Cd228 O232 2.352 . S
Cd228 O236 2.277 . S
Cd228 O237 2.356 . S
C229 O234 1.209 . S
C229 O236 1.226 . S
O230 Cd226 2.273 . S
O230 Cd228 2.411 . S
O230 C233 1.320 . S
O231 Cd228 2.333 . S
O231 C233 1.214 . S
O232 Cd228 2.352 . S
O232 C235 1.258 . S
C233 O230 1.320 . S
C233 O231 1.214 . S
O234 Cd226 2.277 . S
O234 C229 1.209 . S
C235 O232 1.258 . S
C235 O237 1.282 . S
O236 Cd228 2.277 . S
O236 C229 1.226 . S
O237 Cd228 2.356 . S
O237 C235 1.282 . S
C238 O239 1.306 . S
C238 O241 1.160 . S
O239 C238 1.306 . S
O239 Cd240 2.228 . S
Cd240 O239 2.228 . S
Cd240 O244 2.273 . S
Cd240 O248 2.277 . S
O241 C238 1.160 . S
O241 Cd242 2.203 . S
Cd242 O241 2.203 . S
Cd242 O244 2.411 . S
Cd242 O245 2.333 . S
Cd242 O246 2.352 . S
Cd242 O250 2.277 . S
Cd242 O251 2.356 . S
C243 O248 1.209 . S
C243 O250 1.226 . S
O244 Cd240 2.273 . S
O244 Cd242 2.411 . S
O244 C247 1.320 . S
O245 Cd242 2.333 . S
O245 C247 1.214 . S
O246 Cd242 2.352 . S
O246 C249 1.258 . S
C247 O244 1.320 . S
C247 O245 1.214 . S
O248 Cd240 2.277 . S
O248 C243 1.209 . S
C249 O246 1.258 . S
C249 O251 1.282 . S
O250 Cd242 2.277 . S
O250 C243 1.226 . S
O251 Cd242 2.356 . S
O251 C249 1.282 . S
C252 O253 1.306 . S
C252 O255 1.160 . S
O253 C252 1.306 . S
O253 Cd254 2.228 . S
Cd254 O253 2.228 . S
Cd254 O258 2.273 . S
Cd254 O262 2.277 . S
O255 C252 1.160 . S
O255 Cd256 2.203 . S
Cd256 O255 2.203 . S
Cd256 O258 2.411 . S
Cd256 O259 2.333 . S
Cd256 O260 2.352 . S
Cd256 O264 2.277 . S
Cd256 O265 2.356 . S
C257 O262 1.209 . S
C257 O264 1.226 . S
O258 Cd254 2.273 . S
O258 Cd256 2.411 . S
O258 C261 1.320 . S
O259 Cd256 2.333 . S
O259 C261 1.214 . S
O260 Cd256 2.352 . S
O260 C263 1.258 . S
C261 O258 1.320 . S
C261 O259 1.214 . S
O262 Cd254 2.277 . S
O262 C257 1.209 . S
C263 O260 1.258 . S
C263 O265 1.282 . S
O264 Cd256 2.277 . S
O264 C257 1.226 . S
O265 Cd256 2.356 . S
O265 C263 1.282 . S
C266 O267 1.306 . S
C266 O269 1.160 . S
O267 C266 1.306 . S
O267 Cd268 2.228 . S
Cd268 O267 2.228 . S
Cd268 O272 2.273 . S
Cd268 O276 2.277 . S
O269 C266 1.160 . S
O269 Cd270 2.203 . S
Cd270 O269 2.203 . S
Cd270 O272 2.411 . S
Cd270 O273 2.333 . S
Cd270 O274 2.352 . S
Cd270 O278 2.277 . S
Cd270 O279 2.356 . S
C271 O276 1.209 . S
C271 O278 1.226 . S
O272 Cd268 2.273 . S
O272 Cd270 2.411 . S
O272 C275 1.320 . S
O273 Cd270 2.333 . S
O273 C275 1.214 . S
O274 Cd270 2.352 . S
O274 C277 1.258 . S
C275 O272 1.320 . S
C275 O273 1.214 . S
O276 Cd268 2.277 . S
O276 C271 1.209 . S
C277 O274 1.258 . S
C277 O279 1.282 . S
O278 Cd270 2.277 . S
O278 C271 1.226 . S
O279 Cd270 2.356 . S
O279 C277 1.282 . S
C280 O281 1.306 . S
C280 O283 1.160 . S
O281 C280 1.306 . S
O281 Cd282 2.228 . S
Cd282 O281 2.228 . S
Cd282 O286 2.273 . S
Cd282 O290 2.277 . S
O283 C280 1.160 . S
O283 Cd284 2.203 . S
Cd284 O283 2.203 . S
Cd284 O286 2.411 . S
Cd284 O287 2.333 . S
Cd284 O288 2.352 . S
Cd284 O292 2.277 . S
Cd284 O293 2.356 . S
C285 O290 1.209 . S
C285 O292 1.226 . S
O286 Cd282 2.273 . S
O286 Cd284 2.411 . S
O286 C289 1.320 . S
O287 Cd284 2.333 . S
O287 C289 1.214 . S
O288 Cd284 2.352 . S
O288 C291 1.258 . S
C289 O286 1.320 . S
C289 O287 1.214 . S
O290 Cd282 2.277 . S
O290 C285 1.209 . S
C291 O288 1.258 . S
C291 O293 1.282 . S
O292 Cd284 2.277 . S
O292 C285 1.226 . S
O293 Cd284 2.356 . S
O293 C291 1.282 . S
C294 O295 1.306 . S
C294 O297 1.160 . S
O295 C294 1.306 . S
O295 Cd296 2.228 . S
Cd296 O295 2.228 . S
Cd296 O300 2.273 . S
Cd296 O304 2.277 . S
O297 C294 1.160 . S
O297 Cd298 2.203 . S
Cd298 O297 2.203 . S
Cd298 O300 2.411 . S
Cd298 O301 2.333 . S
Cd298 O302 2.352 . S
Cd298 O306 2.277 . S
Cd298 O307 2.356 . S
C299 O304 1.209 . S
C299 O306 1.226 . S
O300 Cd296 2.273 . S
O300 Cd298 2.411 . S
O300 C303 1.320 . S
O301 Cd298 2.333 . S
O301 C303 1.214 . S
O302 Cd298 2.352 . S
O302 C305 1.258 . S
C303 O300 1.320 . S
C303 O301 1.214 . S
O304 Cd296 2.277 . S
O304 C299 1.209 . S
C305 O302 1.258 . S
C305 O307 1.282 . S
O306 Cd298 2.277 . S
O306 C299 1.226 . S
O307 Cd298 2.356 . S
O307 C305 1.282 . S
C308 O309 1.306 . S
C308 O311 1.160 . S
O309 C308 1.306 . S
O309 Cd310 2.228 . S
Cd310 O309 2.228 . S
Cd310 O314 2.273 . S
Cd310 O318 2.277 . S
O311 C308 1.160 . S
O311 Cd312 2.203 . S
Cd312 O311 2.203 . S
Cd312 O314 2.411 . S
Cd312 O315 2.333 . S
Cd312 O316 2.352 . S
Cd312 O320 2.277 . S
Cd312 O321 2.356 . S
C313 O318 1.209 . S
C313 O320 1.226 . S
O314 Cd310 2.273 . S
O314 Cd312 2.411 . S
O314 C317 1.320 . S
O315 Cd312 2.333 . S
O315 C317 1.214 . S
O316 Cd312 2.352 . S
O316 C319 1.258 . S
C317 O314 1.320 . S
C317 O315 1.214 . S
O318 Cd310 2.277 . S
O318 C313 1.209 . S
C319 O316 1.258 . S
C319 O321 1.282 . S
O320 Cd312 2.277 . S
O320 C313 1.226 . S
O321 Cd312 2.356 . S
O321 C319 1.282 . S
C322 O323 1.306 . S
C322 O325 1.160 . S
O323 C322 1.306 . S
O323 Cd324 2.228 . S
Cd324 O323 2.228 . S
Cd324 O328 2.273 . S
Cd324 O332 2.277 . S
O325 C322 1.160 . S
O325 Cd326 2.203 . S
Cd326 O325 2.203 . S
Cd326 O328 2.411 . S
Cd326 O329 2.333 . S
Cd326 O330 2.352 . S
Cd326 O334 2.277 . S
Cd326 O335 2.356 . S
C327 O332 1.209 . S
C327 O334 1.226 . S
O328 Cd324 2.273 . S
O328 Cd326 2.411 . S
O328 C331 1.320 . S
O329 Cd326 2.333 . S
O329 C331 1.214 . S
O330 Cd326 2.352 . S
O330 C333 1.258 . S
C331 O328 1.320 . S
C331 O329 1.214 . S
O332 Cd324 2.277 . S
O332 C327 1.209 . S
C333 O330 1.258 . S
C333 O335 1.282 . S
O334 Cd326 2.277 . S
O334 C327 1.226 . S
O335 Cd326 2.356 . S
O335 C333 1.282 . S
C336 O337 1.306 . S
C336 O339 1.160 . S
O337 C336 1.306 . S
O337 Cd338 2.228 . S
Cd338 O337 2.228 . S
Cd338 O342 2.273 . S
Cd338 O346 2.277 . S
O339 C336 1.160 . S
O339 Cd340 2.203 . S
Cd340 O339 2.203 . S
Cd340 O342 2.411 . S
Cd340 O343 2.333 . S
Cd340 O344 2.352 . S
Cd340 O348 2.277 . S
Cd340 O349 2.356 . S
C341 O346 1.209 . S
C341 O348 1.226 . S
O342 Cd338 2.273 . S
O342 Cd340 2.411 . S
O342 C345 1.320 . S
O343 Cd340 2.333 . S
O343 C345 1.214 . S
O344 Cd340 2.352 . S
O344 C347 1.258 . S
C345 O342 1.320 . S
C345 O343 1.214 . S
O346 Cd338 2.277 . S
O346 C341 1.209 . S
C347 O344 1.258 . S
C347 O349 1.282 . S
O348 Cd340 2.277 . S
O348 C341 1.226 . S
O349 Cd340 2.356 . S
O349 C347 1.282 . S
C350 O351 1.306 . S
C350 O353 1.160 . S
O351 C350 1.306 . S
O351 Cd352 2.228 . S
Cd352 O351 2.228 . S
Cd352 O356 2.273 . S
Cd352 O360 2.277 . S
O353 C350 1.160 . S
O353 Cd354 2.203 . S
Cd354 O353 2.203 . S
Cd354 O356 2.411 . S
Cd354 O357 2.333 . S
Cd354 O358 2.352 . S
Cd354 O362 2.277 . S
Cd354 O363 2.356 . S
C355 O360 1.209 . S
C355 O362 1.226 . S
O356 Cd352 2.273 . S
O356 Cd354 2.411 . S
O356 C359 1.320 . S
O357 Cd354 2.333 . S
O357 C359 1.214 . S
O358 Cd354 2.352 . S
O358 C361 1.258 . S
C359 O356 1.320 . S
C359 O357 1.214 . S
O360 Cd352 2.277 . S
O360 C355 1.209 . S
C361 O358 1.258 . S
C361 O363 1.282 . S
O362 Cd354 2.277 . S
O362 C355 1.226 . S
O363 Cd354 2.356 . S
O363 C361 1.282 . S
C364 O365 1.306 . S
C364 O367 1.160 . S
O365 C364 1.306 . S
O365 Cd366 2.228 . S
Cd366 O365 2.228 . S
Cd366 O370 2.273 . S
Cd366 O374 2.277 . S
O367 C364 1.160 . S
O367 Cd368 2.203 . S
Cd368 O367 2.203 . S
Cd368 O370 2.411 . S
Cd368 O371 2.333 . S
Cd368 O372 2.352 . S
Cd368 O376 2.277 . S
Cd368 O377 2.356 . S
C369 O374 1.209 . S
C369 O376 1.226 . S
O370 Cd366 2.273 . S
O370 Cd368 2.411 . S
O370 C373 1.320 . S
O371 Cd368 2.333 . S
O371 C373 1.214 . S
O372 Cd368 2.352 . S
O372 C375 1.258 . S
C373 O370 1.320 . S
C373 O371 1.214 . S
O374 Cd366 2.277 . S
O374 C369 1.209 . S
C375 O372 1.258 . S
C375 O377 1.282 . S
O376 Cd368 2.277 . S
O376 C369 1.226 . S
O377 Cd368 2.356 . S
O377 C375 1.282 . S
C378 O379 1.306 . S
C378 O381 1.160 . S
O379 C378 1.306 . S
O379 Cd380 2.228 . S
Cd380 O379 2.228 . S
Cd380 O384 2.273 . S
Cd380 O388 2.277 . S
O381 C378 1.160 . S
O381 Cd382 2.203 . S
Cd382 O381 2.203 . S
Cd382 O384 2.411 . S
Cd382 O385 2.333 . S
Cd382 O386 2.352 . S
Cd382 O390 2.277 . S
Cd382 O391 2.356 . S
C383 O388 1.209 . S
C383 O390 1.226 . S
O384 Cd380 2.273 . S
O384 Cd382 2.411 . S
O384 C387 1.320 . S
O385 Cd382 2.333 . S
O385 C387 1.214 . S
O386 Cd382 2.352 . S
O386 C389 1.258 . S
C387 O384 1.320 . S
C387 O385 1.214 . S
O388 Cd380 2.277 . S
O388 C383 1.209 . S
C389 O386 1.258 . S
C389 O391 1.282 . S
O390 Cd382 2.277 . S
O390 C383 1.226 . S
O391 Cd382 2.356 . S
O391 C389 1.282 . S
C392 O393 1.306 . S
C392 O395 1.160 . S
O393 C392 1.306 . S
O393 Cd394 2.228 . S
Cd394 O393 2.228 . S
Cd394 O398 2.273 . S
Cd394 O402 2.277 . S
O395 C392 1.160 . S
O395 Cd396 2.203 . S
Cd396 O395 2.203 . S
Cd396 O398 2.411 . S
Cd396 O399 2.333 . S
Cd396 O400 2.352 . S
Cd396 O404 2.277 . S
Cd396 O405 2.356 . S
C397 O402 1.209 . S
C397 O404 1.226 . S
O398 Cd394 2.273 . S
O398 Cd396 2.411 . S
O398 C401 1.320 . S
O399 Cd396 2.333 . S
O399 C401 1.214 . S
O400 Cd396 2.352 . S
O400 C403 1.258 . S
C401 O398 1.320 . S
C401 O399 1.214 . S
O402 Cd394 2.277 . S
O402 C397 1.209 . S
C403 O400 1.258 . S
C403 O405 1.282 . S
O404 Cd396 2.277 . S
O404 C397 1.226 . S
O405 Cd396 2.356 . S
O405 C403 1.282 . S
C406 O407 1.306 . S
C406 O409 1.160 . S
O407 C406 1.306 . S
O407 Cd408 2.228 . S
Cd408 O407 2.228 . S
Cd408 O412 2.273 . S
Cd408 O416 2.277 . S
O409 C406 1.160 . S
O409 Cd410 2.203 . S
Cd410 O409 2.203 . S
Cd410 O412 2.411 . S
Cd410 O413 2.333 . S
Cd410 O414 2.352 . S
Cd410 O418 2.277 . S
Cd410 O419 2.356 . S
C411 O416 1.209 . S
C411 O418 1.226 . S
O412 Cd408 2.273 . S
O412 Cd410 2.411 . S
O412 C415 1.320 . S
O413 Cd410 2.333 . S
O413 C415 1.214 . S
O414 Cd410 2.352 . S
O414 C417 1.258 . S
C415 O412 1.320 . S
C415 O413 1.214 . S
O416 Cd408 2.277 . S
O416 C411 1.209 . S
C417 O414 1.258 . S
C417 O419 1.282 . S
O418 Cd410 2.277 . S
O418 C411 1.226 . S
O419 Cd410 2.356 . S
O419 C417 1.282 . S
C420 O421 1.306 . S
C420 O423 1.160 . S
O421 C420 1.306 . S
O421 Cd422 2.228 . S
Cd422 O421 2.228 . S
Cd422 O426 2.273 . S
Cd422 O430 2.277 . S
O423 C420 1.160 . S
O423 Cd424 2.203 . S
Cd424 O423 2.203 . S
Cd424 O426 2.411 . S
Cd424 O427 2.333 . S
Cd424 O428 2.352 . S
Cd424 O432 2.277 . S
Cd424 O433 2.356 . S
C425 O430 1.209 . S
C425 O432 1.226 . S
O426 Cd422 2.273 . S
O426 Cd424 2.411 . S
O426 C429 1.320 . S
O427 Cd424 2.333 . S
O427 C429 1.214 . S
O428 Cd424 2.352 . S
O428 C431 1.258 . S
C429 O426 1.320 . S
C429 O427 1.214 . S
O430 Cd422 2.277 . S
O430 C425 1.209 . S
C431 O428 1.258 . S
C431 O433 1.282 . S
O432 Cd424 2.277 . S
O432 C425 1.226 . S
O433 Cd424 2.356 . S
O433 C431 1.282 . S
C434 O435 1.306 . S
C434 O437 1.160 . S
O435 C434 1.306 . S
O435 Cd436 2.228 . S
Cd436 O435 2.228 . S
Cd436 O440 2.273 . S
Cd436 O444 2.277 . S
O437 C434 1.160 . S
O437 Cd438 2.203 . S
Cd438 O437 2.203 . S
Cd438 O440 2.411 . S
Cd438 O441 2.333 . S
Cd438 O442 2.352 . S
Cd438 O446 2.277 . S
Cd438 O447 2.356 . S
C439 O444 1.209 . S
C439 O446 1.226 . S
O440 Cd436 2.273 . S
O440 Cd438 2.411 . S
O440 C443 1.320 . S
O441 Cd438 2.333 . S
O441 C443 1.214 . S
O442 Cd438 2.352 . S
O442 C445 1.258 . S
C443 O440 1.320 . S
C443 O441 1.214 . S
O444 Cd436 2.277 . S
O444 C439 1.209 . S
C445 O442 1.258 . S
C445 O447 1.282 . S
O446 Cd438 2.277 . S
O446 C439 1.226 . S
O447 Cd438 2.356 . S
O447 C445 1.282 . S
C448 O449 1.306 . S
C448 O451 1.160 . S
O449 C448 1.306 . S
O449 Cd450 2.228 . S
Cd450 O449 2.228 . S
Cd450 O454 2.273 . S
Cd450 O458 2.277 . S
O451 C448 1.160 . S
O451 Cd452 2.203 . S
Cd452 O451 2.203 . S
Cd452 O454 2.411 . S
Cd452 O455 2.333 . S
Cd452 O456 2.352 . S
Cd452 O460 2.277 . S
Cd452 O461 2.356 . S
C453 O458 1.209 . S
C453 O460 1.226 . S
O454 Cd450 2.273 . S
O454 Cd452 2.411 . S
O454 C457 1.320 . S
O455 Cd452 2.333 . S
O455 C457 1.214 . S
O456 Cd452 2.352 . S
O456 C459 1.258 . S
C457 O454 1.320 . S
C457 O455 1.214 . S
O458 Cd450 2.277 . S
O458 C453 1.209 . S
C459 O456 1.258 . S
C459 O461 1.282 . S
O460 Cd452 2.277 . S
O460 C453 1.226 . S
O461 Cd452 2.356 . S
O461 C459 1.282 . S
C462 O463 1.306 . S
C462 O465 1.160 . S
O463 C462 1.306 . S
O463 Cd464 2.228 . S
Cd464 O463 2.228 . S
Cd464 O468 2.273 . S
Cd464 O472 2.277 . S
O465 C462 1.160 . S
O465 Cd466 2.203 . S
Cd466 O465 2.203 . S
Cd466 O468 2.411 . S
Cd466 O469 2.333 . S
Cd466 O470 2.352 . S
Cd466 O474 2.277 . S
Cd466 O475 2.356 . S
C467 O472 1.209 . S
C467 O474 1.226 . S
O468 Cd464 2.273 . S
O468 Cd466 2.411 . S
O468 C471 1.320 . S
O469 Cd466 2.333 . S
O469 C471 1.214 . S
O470 Cd466 2.352 . S
O470 C473 1.258 . S
C471 O468 1.320 . S
C471 O469 1.214 . S
O472 Cd464 2.277 . S
O472 C467 1.209 . S
C473 O470 1.258 . S
C473 O475 1.282 . S
O474 Cd466 2.277 . S
O474 C467 1.226 . S
O475 Cd466 2.356 . S
O475 C473 1.282 . S
C476 O477 1.306 . S
C476 O479 1.160 . S
O477 C476 1.306 . S
O477 Cd478 2.228 . S
Cd478 O477 2.228 . S
Cd478 O482 2.273 . S
Cd478 O486 2.277 . S
O479 C476 1.160 . S
O479 Cd480 2.203 . S
Cd480 O479 2.203 . S
Cd480 O482 2.411 . S
Cd480 O483 2.333 . S
Cd480 O484 2.352 . S
Cd480 O488 2.277 . S
Cd480 O489 2.356 . S
C481 O486 1.209 . S
C481 O488 1.226 . S
O482 Cd478 2.273 . S
O482 Cd480 2.411 . S
O482 C485 1.320 . S
O483 Cd480 2.333 . S
O483 C485 1.214 . S
O484 Cd480 2.352 . S
O484 C487 1.258 . S
C485 O482 1.320 . S
C485 O483 1.214 . S
O486 Cd478 2.277 . S
O486 C481 1.209 . S
C487 O484 1.258 . S
C487 O489 1.282 . S
O488 Cd480 2.277 . S
O488 C481 1.226 . S
O489 Cd480 2.356 . S
O489 C487 1.282 . S
C490 O491 1.306 . S
C490 O493 1.160 . S
O491 C490 1.306 . S
O491 Cd492 2.228 . S
Cd492 O491 2.228 . S
Cd492 O496 2.273 . S
Cd492 O500 2.277 . S
O493 C490 1.160 . S
O493 Cd494 2.203 . S
Cd494 O493 2.203 . S
Cd494 O496 2.411 . S
Cd494 O497 2.333 . S
Cd494 O498 2.352 . S
Cd494 O502 2.277 . S
Cd494 O503 2.356 . S
C495 O500 1.209 . S
C495 O502 1.226 . S
O496 Cd492 2.273 . S
O496 Cd494 2.411 . S
O496 C499 1.320 . S
O497 Cd494 2.333 . S
O497 C499 1.214 . S
O498 Cd494 2.352 . S
O498 C501 1.258 . S
C499 O496 1.320 . S
C499 O497 1.214 . S
O500 Cd492 2.277 . S
O500 C495 1.209 . S
C501 O498 1.258 . S
C501 O503 1.282 . S
O502 Cd494 2.277 . S
O502 C495 1.226 . S
O503 Cd494 2.356 . S
O503 C501 1.282 . S
C504 O505 1.306 . S
C504 O507 1.160 . S
O505 C504 1.306 . S
O505 Cd506 2.228 . S
Cd506 O505 2.228 . S
Cd506 O510 2.273 . S
Cd506 O514 2.277 . S
O507 C504 1.160 . S
O507 Cd508 2.203 . S
Cd508 O507 2.203 . S
Cd508 O510 2.411 . S
Cd508 O511 2.333 . S
Cd508 O512 2.352 . S
Cd508 O516 2.277 . S
Cd508 O517 2.356 . S
C509 O514 1.209 . S
C509 O516 1.226 . S
O510 Cd506 2.273 . S
O510 Cd508 2.411 . S
O510 C513 1.320 . S
O511 Cd508 2.333 . S
O511 C513 1.214 . S
O512 Cd508 2.352 . S
O512 C515 1.258 . S
C513 O510 1.320 . S
C513 O511 1.214 . S
O514 Cd506 2.277 . S
O514 C509 1.209 . S
C515 O512 1.258 . S
C515 O517 1.282 . S
O516 Cd508 2.277 . S
O516 C509 1.226 . S
O517 Cd508 2.356 . S
O517 C515 1.282 . S
C518 O519 1.306 . S
C518 O521 1.160 . S
O519 C518 1.306 . S
O519 Cd520 2.228 . S
Cd520 O519 2.228 . S
Cd520 O524 2.273 . S
Cd520 O528 2.277 . S
O521 C518 1.160 . S
O521 Cd522 2.203 . S
Cd522 O521 2.203 . S
Cd522 O524 2.411 . S
Cd522 O525 2.333 . S
Cd522 O526 2.352 . S
Cd522 O530 2.277 . S
Cd522 O531 2.356 . S
C523 O528 1.209 . S
C523 O530 1.226 . S
O524 Cd520 2.273 . S
O524 Cd522 2.411 . S
O524 C527 1.320 . S
O525 Cd522 2.333 . S
O525 C527 1.214 . S
O526 Cd522 2.352 . S
O526 C529 1.258 . S
C527 O524 1.320 . S
C527 O525 1.214 . S
O528 Cd520 2.277 . S
O528 C523 1.209 . S
C529 O526 1.258 . S
C529 O531 1.282 . S
O530 Cd522 2.277 . S
O530 C523 1.226 . S
O531 Cd522 2.356 . S
O531 C529 1.282 . S
C532 O533 1.306 . S
C532 O535 1.160 . S
O533 C532 1.306 . S
O533 Cd534 2.228 . S
Cd534 O533 2.228 . S
Cd534 O538 2.273 . S
Cd534 O542 2.277 . S
O535 C532 1.160 . S
O535 Cd536 2.203 . S
Cd536 O535 2.203 . S
Cd536 O538 2.411 . S
Cd536 O539 2.333 . S
Cd536 O540 2.352 . S
Cd536 O544 2.277 . S
Cd536 O545 2.356 . S
C537 O542 1.209 . S
C537 O544 1.226 . S
O538 Cd534 2.273 . S
O538 Cd536 2.411 . S
O538 C541 1.320 . S
O539 Cd536 2.333 . S
O539 C541 1.214 . S
O540 Cd536 2.352 . S
O540 C543 1.258 . S
C541 O538 1.320 . S
C541 O539 1.214 . S
O542 Cd534 2.277 . S
O542 C537 1.209 . S
C543 O540 1.258 . S
C543 O545 1.282 . S
O544 Cd536 2.277 . S
O544 C537 1.226 . S
O545 Cd536 2.356 . S
O545 C543 1.282 . S
C546 O547 1.306 . S
C546 O549 1.160 . S
O547 C546 1.306 . S
O547 Cd548 2.228 . S
Cd548 O547 2.228 . S
Cd548 O552 2.273 . S
Cd548 O556 2.277 . S
O549 C546 1.160 . S
O549 Cd550 2.203 . S
Cd550 O549 2.203 . S
Cd550 O552 2.411 . S
Cd550 O553 2.333 . S
Cd550 O554 2.352 . S
Cd550 O558 2.277 . S
Cd550 O559 2.356 . S
C551 O556 1.209 . S
C551 O558 1.226 . S
O552 Cd548 2.273 . S
O552 Cd550 2.411 . S
O552 C555 1.320 . S
O553 Cd550 2.333 . S
O553 C555 1.214 . S
O554 Cd550 2.352 . S
O554 C557 1.258 . S
C555 O552 1.320 . S
C555 O553 1.214 . S
O556 Cd548 2.277 . S
O556 C551 1.209 . S
C557 O554 1.258 . S
C557 O559 1.282 . S
O558 Cd550 2.277 . S
O558 C551 1.226 . S
O559 Cd550 2.356 . S
O559 C557 1.282 . S
C560 O561 1.306 . S
C560 O563 1.160 . S
O561 C560 1.306 . S
O561 Cd562 2.228 . S
Cd562 O561 2.228 . S
Cd562 O566 2.273 . S
Cd562 O570 2.277 . S
O563 C560 1.160 . S
O563 Cd564 2.203 . S
Cd564 O563 2.203 . S
Cd564 O566 2.411 . S
Cd564 O567 2.333 . S
Cd564 O568 2.352 . S
Cd564 O572 2.277 . S
Cd564 O573 2.356 . S
C565 O570 1.209 . S
C565 O572 1.226 . S
O566 Cd562 2.273 . S
O566 Cd564 2.411 . S
O566 C569 1.320 . S
O567 Cd564 2.333 . S
O567 C569 1.214 . S
O568 Cd564 2.352 . S
O568 C571 1.258 . S
C569 O566 1.320 . S
C569 O567 1.214 . S
O570 Cd562 2.277 . S
O570 C565 1.209 . S
C571 O568 1.258 . S
C571 O573 1.282 . S
O572 Cd564 2.277 . S
O572 C565 1.226 . S
O573 Cd564 2.356 . S
O573 C571 1.282 . S
C574 O575 1.306 . S
C574 O577 1.160 . S
O575 C574 1.306 . S
O575 Cd576 2.228 . S
Cd576 O575 2.228 . S
Cd576 O580 2.273 . S
Cd576 O584 2.277 . S
O577 C574 1.160 . S
O577 Cd578 2.203 . S
Cd578 O577 2.203 . S
Cd578 O580 2.411 . S
Cd578 O581 2.333 . S
Cd578 O582 2.352 . S
Cd578 O586 2.277 . S
Cd578 O587 2.356 . S
C579 O584 1.209 . S
C579 O586 1.226 . S
O580 Cd576 2.273 . S
O580 Cd578 2.411 . S
O580 C583 1.320 . S
O581 Cd578 2.333 . S
O581 C583 1.214 . S
O582 Cd578 2.352 . S
O582 C585 1.258 . S
C583 O580 1.320 . S
C583 O581 1.214 . S
O584 Cd576 2.277 . S
O584 C579 1.209 . S
C585 O582 1.258 . S
C585 O587 1.282 . S
O586 Cd578 2.277 . S
O586 C579 1.226 . S
O587 Cd578 2.356 . S
O587 C585 1.282 . S
C588 O589 1.306 . S
C588 O591 1.160 . S
O589 C588 1.306 . S
O589 Cd590 2.228 . S
Cd590 O589 2.228 . S
Cd590 O594 2.273 . S
Cd590 O598 2.277 . S
O591 C588 1.160 . S
O591 Cd592 2.203 . S
Cd592 O591 2.203 . S
Cd592 O594 2.411 . S
Cd592 O595 2.333 . S
Cd592 O596 2.352 . S
Cd592 O600 2.277 . S
Cd592 O601 2.356 . S
C593 O598 1.209 . S
C593 O600 1.226 . S
O594 Cd590 2.273 . S
O594 Cd592 2.411 . S
O594 C597 1.320 . S
O595 Cd592 2.333 . S
O595 C597 1.214 . S
O596 Cd592 2.352 . S
O596 C599 1.258 . S
C597 O594 1.320 . S
C597 O595 1.214 . S
O598 Cd590 2.277 . S
O598 C593 1.209 . S
C599 O596 1.258 . S
C599 O601 1.282 . S
O600 Cd592 2.277 . S
O600 C593 1.226 . S
O601 Cd592 2.356 . S
O601 C599 1.282 . S
C602 O603 1.306 . S
C602 O605 1.160 . S
O603 C602 1.306 . S
O603 Cd604 2.228 . S
Cd604 O603 2.228 . S
Cd604 O608 2.273 . S
Cd604 O612 2.277 . S
O605 C602 1.160 . S
O605 Cd606 2.203 . S
Cd606 O605 2.203 . S
Cd606 O608 2.411 . S
Cd606 O609 2.333 . S
Cd606 O610 2.352 . S
Cd606 O614 2.277 . S
Cd606 O615 2.356 . S
C607 O612 1.209 . S
C607 O614 1.226 . S
O608 Cd604 2.273 . S
O608 Cd606 2.411 . S
O608 C611 1.320 . S
O609 Cd606 2.333 . S
O609 C611 1.214 . S
O610 Cd606 2.352 . S
O610 C613 1.258 . S
C611 O608 1.320 . S
C611 O609 1.214 . S
O612 Cd604 2.277 . S
O612 C607 1.209 . S
C613 O610 1.258 . S
C613 O615 1.282 . S
O614 Cd606 2.277 . S
O614 C607 1.226 . S
O615 Cd606 2.356 . S
O615 C613 1.282 . S
C616 O617 1.306 . S
C616 O619 1.160 . S
O617 C616 1.306 . S
O617 Cd618 2.228 . S
Cd618 O617 2.228 . S
Cd618 O622 2.273 . S
Cd618 O626 2.277 . S
O619 C616 1.160 . S
O619 Cd620 2.203 . S
Cd620 O619 2.203 . S
Cd620 O622 2.411 . S
Cd620 O623 2.333 . S
Cd620 O624 2.352 . S
Cd620 O628 2.277 . S
Cd620 O629 2.356 . S
C621 O626 1.209 . S
C621 O628 1.226 . S
O622 Cd618 2.273 . S
O622 Cd620 2.411 . S
O622 C625 1.320 . S
O623 Cd620 2.333 . S
O623 C625 1.214 . S
O624 Cd620 2.352 . S
O624 C627 1.258 . S
C625 O622 1.320 . S
C625 O623 1.214 . S
O626 Cd618 2.277 . S
O626 C621 1.209 . S
C627 O624 1.258 . S
C627 O629 1.282 . S
O628 Cd620 2.277 . S
O628 C621 1.226 . S
O629 Cd620 2.356 . S
O629 C627 1.282 . S
C630 O631 1.306 . S
C630 O633 1.160 . S
O631 C630 1.306 . S
O631 Cd632 2.228 . S
Cd632 O631 2.228 . S
Cd632 O636 2.273 . S
Cd632 O640 2.277 . S
O633 C630 1.160 . S
O633 Cd634 2.203 . S
Cd634 O633 2.203 . S
Cd634 O636 2.411 . S
Cd634 O637 2.333 . S
Cd634 O638 2.352 . S
Cd634 O642 2.277 . S
Cd634 O643 2.356 . S
C635 O640 1.209 . S
C635 O642 1.226 . S
O636 Cd632 2.273 . S
O636 Cd634 2.411 . S
O636 C639 1.320 . S
O637 Cd634 2.333 . S
O637 C639 1.214 . S
O638 Cd634 2.352 . S
O638 C641 1.258 . S
C639 O636 1.320 . S
C639 O637 1.214 . S
O640 Cd632 2.277 . S
O640 C635 1.209 . S
C641 O638 1.258 . S
C641 O643 1.282 . S
O642 Cd634 2.277 . S
O642 C635 1.226 . S
O643 Cd634 2.356 . S
O643 C641 1.282 . S
C644 O645 1.306 . S
C644 O647 1.160 . S
O645 C644 1.306 . S
O645 Cd646 2.228 . S
Cd646 O645 2.228 . S
Cd646 O650 2.273 . S
Cd646 O654 2.277 . S
O647 C644 1.160 . S
O647 Cd648 2.203 . S
Cd648 O647 2.203 . S
Cd648 O650 2.411 . S
Cd648 O651 2.333 . S
Cd648 O652 2.352 . S
Cd648 O656 2.277 . S
Cd648 O657 2.356 . S
C649 O654 1.209 . S
C649 O656 1.226 . S
O650 Cd646 2.273 . S
O650 Cd648 2.411 . S
O650 C653 1.320 . S
O651 Cd648 2.333 . S
O651 C653 1.214 . S
O652 Cd648 2.352 . S
O652 C655 1.258 . S
C653 O650 1.320 . S
C653 O651 1.214 . S
O654 Cd646 2.277 . S
O654 C649 1.209 . S
C655 O652 1.258 . S
C655 O657 1.282 . S
O656 Cd648 2.277 . S
O656 C649 1.226 . S
O657 Cd648 2.356 . S
O657 C655 1.282 . S
C658 O659 1.306 . S
C658 O661 1.160 . S
O659 C658 1.306 . S
O659 Cd660 2.228 . S
Cd660 O659 2.228 . S
Cd660 O664 2.273 . S
Cd660 O668 2.277 . S
O661 C658 1.160 . S
O661 Cd662 2.203 . S
Cd662 O661 2.203 . S
Cd662 O664 2.411 . S
Cd662 O665 2.333 . S
Cd662 O666 2.352 . S
Cd662 O670 2.277 . S
Cd662 O671 2.356 . S
C663 O668 1.209 . S
C663 O670 1.226 . S
O664 Cd660 2.273 . S
O664 Cd662 2.411 . S
O664 C667 1.320 . S
O665 Cd662 2.333 . S
O665 C667 1.214 . S
O666 Cd662 2.352 . S
O666 C669 1.258 . S
C667 O664 1.320 . S
C667 O665 1.214 . S
O668 Cd660 2.277 . S
O668 C663 1.209 . S
C669 O666 1.258 . S
C669 O671 1.282 . S
O670 Cd662 2.277 . S
O670 C663 1.226 . S
O671 Cd662 2.356 . S
O671 C669 1.282 . S
C672 O673 1.306 . S
C672 O675 1.160 . S
O673 C672 1.306 . S
O673 Cd674 2.228 . S
Cd674 O673 2.228 . S
Cd674 O678 2.273 . S
Cd674 O682 2.277 . S
O675 C672 1.160 . S
O675 Cd676 2.203 . S
Cd676 O675 2.203 . S
Cd676 O678 2.411 . S
Cd676 O679 2.333 . S
Cd676 O680 2.352 . S
Cd676 O684 2.277 . S
Cd676 O685 2.356 . S
C677 O682 1.209 . S
C677 O684 1.226 . S
O678 Cd674 2.273 . S
O678 Cd676 2.411 . S
O678 C681 1.320 . S
O679 Cd676 2.333 . S
O679 C681 1.214 . S
O680 Cd676 2.352 . S
O680 C683 1.258 . S
C681 O678 1.320 . S
C681 O679 1.214 . S
O682 Cd674 2.277 . S
O682 C677 1.209 . S
C683 O680 1.258 . S
C683 O685 1.282 . S
O684 Cd676 2.277 . S
O684 C677 1.226 . S
O685 Cd676 2.356 . S
O685 C683 1.282 . S
C686 O687 1.306 . S
C686 O689 1.160 . S
O687 C686 1.306 . S
O687 Cd688 2.228 . S
Cd688 O687 2.228 . S
Cd688 O692 2.273 . S
Cd688 O696 2.277 . S
O689 C686 1.160 . S
O689 Cd690 2.203 . S
Cd690 O689 2.203 . S
Cd690 O692 2.411 . S
Cd690 O693 2.333 . S
Cd690 O694 2.352 . S
Cd690 O698 2.277 . S
Cd690 O699 2.356 . S
C691 O696 1.209 . S
C691 O698 1.226 . S
O692 Cd688 2.273 . S
O692 Cd690 2.411 . S
O692 C695 1.320 . S
O693 Cd690 2.333 . S
O693 C695 1.214 . S
O694 Cd690 2.352 . S
O694 C697 1.258 . S
C695 O692 1.320 . S
C695 O693 1.214 . S
O696 Cd688 2.277 . S
O696 C691 1.209 . S
C697 O694 1.258 . S
C697 O699 1.282 . S
O698 Cd690 2.277 . S
O698 C691 1.226 . S
O699 Cd690 2.356 . S
O699 C697 1.282 . S
C700 O701 1.306 . S
C700 O703 1.160 . S
O701 C700 1.306 . S
O701 Cd702 2.228 . S
Cd702 O701 2.228 . S
Cd702 O706 2.273 . S
Cd702 O710 2.277 . S
O703 C700 1.160 . S
O703 Cd704 2.203 . S
Cd704 O703 2.203 . S
Cd704 O706 2.411 . S
Cd704 O707 2.333 . S
Cd704 O708 2.352 . S
Cd704 O712 2.277 . S
Cd704 O713 2.356 . S
C705 O710 1.209 . S
C705 O712 1.226 . S
O706 Cd702 2.273 . S
O706 Cd704 2.411 . S
O706 C709 1.320 . S
O707 Cd704 2.333 . S
O707 C709 1.214 . S
O708 Cd704 2.352 . S
O708 C711 1.258 . S
C709 O706 1.320 . S
C709 O707 1.214 . S
O710 Cd702 2.277 . S
O710 C705 1.209 . S
C711 O708 1.258 . S
C711 O713 1.282 . S
O712 Cd704 2.277 . S
O712 C705 1.226 . S
O713 Cd704 2.356 . S
O713 C711 1.282 . S
C714 O715 1.306 . S
C714 O717 1.160 . S
O715 C714 1.306 . S
O715 Cd716 2.228 . S
Cd716 O715 2.228 . S
Cd716 O720 2.273 . S
Cd716 O724 2.277 . S
O717 C714 1.160 . S
O717 Cd718 2.203 . S
Cd718 O717 2.203 . S
Cd718 O720 2.411 . S
Cd718 O721 2.333 . S
Cd718 O722 2.352 . S
Cd718 O726 2.277 . S
Cd718 O727 2.356 . S
C719 O724 1.209 . S
C719 O726 1.226 . S
O720 Cd716 2.273 . S
O720 Cd718 2.411 . S
O720 C723 1.320 . S
O721 Cd718 2.333 . S
O721 C723 1.214 . S
O722 Cd718 2.352 . S
O722 C725 1.258 . S
C723 O720 1.320 . S
C723 O721 1.214 . S
O724 Cd716 2.277 . S
O724 C719 1.209 . S
C725 O722 1.258 . S
C725 O727 1.282 . S
O726 Cd718 2.277 . S
O726 C719 1.226 . S
O727 Cd718 2.356 . S
O727 C725 1.282 . S
C728 O729 1.306 . S
C728 O731 1.160 . S
O729 C728 1.306 . S
O729 Cd730 2.228 . S
Cd730 O729 2.228 . S
Cd730 O734 2.273 . S
Cd730 O738 2.277 . S
O731 C728 1.160 . S
O731 Cd732 2.203 . S
Cd732 O731 2.203 . S
Cd732 O734 2.411 . S
Cd732 O735 2.333 . S
Cd732 O736 2.352 . S
Cd732 O740 2.277 . S
Cd732 O741 2.356 . S
C733 O738 1.209 . S
C733 O740 1.226 . S
O734 Cd730 2.273 . S
O734 Cd732 2.411 . S
O734 C737 1.320 . S
O735 Cd732 2.333 . S
O735 C737 1.214 . S
O736 Cd732 2.352 . S
O736 C739 1.258 . S
C737 O734 1.320 . S
C737 O735 1.214 . S
O738 Cd730 2.277 . S
O738 C733 1.209 . S
C739 O736 1.258 . S
C739 O741 1.282 . S
O740 Cd732 2.277 . S
O740 C733 1.226 . S
O741 Cd732 2.356 . S
O741 C739 1.282 . S
C742 O743 1.306 . S
C742 O745 1.160 . S
O743 C742 1.306 . S
O743 Cd744 2.228 . S
Cd744 O743 2.228 . S
Cd744 O748 2.273 . S
Cd744 O752 2.277 . S
O745 C742 1.160 . S
O745 Cd746 2.203 . S
Cd746 O745 2.203 . S
Cd746 O748 2.411 . S
Cd746 O749 2.333 . S
Cd746 O750 2.352 . S
Cd746 O754 2.277 . S
Cd746 O755 2.356 . S
C747 O752 1.209 . S
C747 O754 1.226 . S
O748 Cd744 2.273 . S
O748 Cd746 2.411 . S
O748 C751 1.320 . S
O749 Cd746 2.333 . S
O749 C751 1.214 . S
O750 Cd746 2.352 . S
O750 C753 1.258 . S
C751 O748 1.320 . S
C751 O749 1.214 . S
O752 Cd744 2.277 . S
O752 C747 1.209 . S
C753 O750 1.258 . S
C753 O755 1.282 . S
O754 Cd746 2.277 . S
O754 C747 1.226 . S
O755 Cd746 2.356 . S
O755 C753 1.282 . S
C756 O757 1.306 . S
C756 O759 1.160 . S
O757 C756 1.306 . S
O757 Cd758 2.228 . S
Cd758 O757 2.228 . S
Cd758 O762 2.273 . S
Cd758 O766 2.277 . S
O759 C756 1.160 . S
O759 Cd760 2.203 . S
Cd760 O759 2.203 . S
Cd760 O762 2.411 . S
Cd760 O763 2.333 . S
Cd760 O764 2.352 . S
Cd760 O768 2.277 . S
Cd760 O769 2.356 . S
C761 O766 1.209 . S
C761 O768 1.226 . S
O762 Cd758 2.273 . S
O762 Cd760 2.411 . S
O762 C765 1.320 . S
O763 Cd760 2.333 . S
O763 C765 1.214 . S
O764 Cd760 2.352 . S
O764 C767 1.258 . S
C765 O762 1.320 . S
C765 O763 1.214 . S
O766 Cd758 2.277 . S
O766 C761 1.209 . S
C767 O764 1.258 . S
C767 O769 1.282 . S
O768 Cd760 2.277 . S
O768 C761 1.226 . S
O769 Cd760 2.356 . S
O769 C767 1.282 . S
C770 O771 1.306 . S
C770 O773 1.160 . S
O771 C770 1.306 . S
O771 Cd772 2.228 . S
Cd772 O771 2.228 . S
Cd772 O776 2.273 . S
Cd772 O780 2.277 . S
O773 C770 1.160 . S
O773 Cd774 2.203 . S
Cd774 O773 2.203 . S
Cd774 O776 2.411 . S
Cd774 O777 2.333 . S
Cd774 O778 2.352 . S
Cd774 O782 2.277 . S
Cd774 O783 2.356 . S
C775 O780 1.209 . S
C775 O782 1.226 . S
O776 Cd772 2.273 . S
O776 Cd774 2.411 . S
O776 C779 1.320 . S
O777 Cd774 2.333 . S
O777 C779 1.214 . S
O778 Cd774 2.352 . S
O778 C781 1.258 . S
C779 O776 1.320 . S
C779 O777 1.214 . S
O780 Cd772 2.277 . S
O780 C775 1.209 . S
C781 O778 1.258 . S
C781 O783 1.282 . S
O782 Cd774 2.277 . S
O782 C775 1.226 . S
O783 Cd774 2.356 . S
O783 C781 1.282 . S
C784 O785 1.306 . S
C784 O787 1.160 . S
O785 C784 1.306 . S
O785 Cd786 2.228 . S
Cd786 O785 2.228 . S
Cd786 O790 2.273 . S
Cd786 O794 2.277 . S
O787 C784 1.160 . S
O787 Cd788 2.203 . S
Cd788 O787 2.203 . S
Cd788 O790 2.411 . S
Cd788 O791 2.333 . S
Cd788 O792 2.352 . S
Cd788 O796 2.277 . S
Cd788 O797 2.356 . S
C789 O794 1.209 . S
C789 O796 1.226 . S
O790 Cd786 2.273 . S
O790 Cd788 2.411 . S
O790 C793 1.320 . S
O791 Cd788 2.333 . S
O791 C793 1.214 . S
O792 Cd788 2.352 . S
O792 C795 1.258 . S
C793 O790 1.320 . S
C793 O791 1.214 . S
O794 Cd786 2.277 . S
O794 C789 1.209 . S
C795 O792 1.258 . S
C795 O797 1.282 . S
O796 Cd788 2.277 . S
O796 C789 1.226 . S
O797 Cd788 2.356 . S
O797 C795 1.282 . S
C798 O799 1.306 . S
C798 O801 1.160 . S
O799 C798 1.306 . S
O799 Cd800 2.228 . S
Cd800 O799 2.228 . S
Cd800 O804 2.273 . S
Cd800 O808 2.277 . S
O801 C798 1.160 . S
O801 Cd802 2.203 . S
Cd802 O801 2.203 . S
Cd802 O804 2.411 . S
Cd802 O805 2.333 . S
Cd802 O806 2.352 . S
Cd802 O810 2.277 . S
Cd802 O811 2.356 . S
C803 O808 1.209 . S
C803 O810 1.226 . S
O804 Cd800 2.273 . S
O804 Cd802 2.411 . S
O804 C807 1.320 . S
O805 Cd802 2.333 . S
O805 C807 1.214 . S
O806 Cd802 2.352 . S
O806 C809 1.258 . S
C807 O804 1.320 . S
C807 O805 1.214 . S
O808 Cd800 2.277 . S
O808 C803 1.209 . S
C809 O806 1.258 . S
C809 O811 1.282 . S
O810 Cd802 2.277 . S
O810 C803 1.226 . S
O811 Cd802 2.356 . S
O811 C809 1.282 . S
C812 O813 1.306 . S
C812 O815 1.160 . S
O813 C812 1.306 . S
O813 Cd814 2.228 . S
Cd814 O813 2.228 . S
Cd814 O818 2.273 . S
Cd814 O822 2.277 . S
O815 C812 1.160 . S
O815 Cd816 2.203 . S
Cd816 O815 2.203 . S
Cd816 O818 2.411 . S
Cd816 O819 2.333 . S
Cd816 O820 2.352 . S
Cd816 O824 2.277 . S
Cd816 O825 2.356 . S
C817 O822 1.209 . S
C817 O824 1.226 . S
O818 Cd814 2.273 . S
O818 Cd816 2.411 . S
O818 C821 1.320 . S
O819 Cd816 2.333 . S
O819 C821 1.214 . S
O820 Cd816 2.352 . S
O820 C823 1.258 . S
C821 O818 1.320 . S
C821 O819 1.214 . S
O822 Cd814 2.277 . S
O822 C817 1.209 . S
C823 O820 1.258 . S
C823 O825 1.282 . S
O824 Cd816 2.277 . S
O824 C817 1.226 . S
O825 Cd816 2.356 . S
O825 C823 1.282 . S
C826 O827 1.306 . S
C826 O829 1.160 . S
O827 C826 1.306 . S
O827 Cd828 2.228 . S
Cd828 O827 2.228 . S
Cd828 O832 2.273 . S
Cd828 O836 2.277 . S
O829 C826 1.160 . S
O829 Cd830 2.203 . S
Cd830 O829 2.203 . S
Cd830 O832 2.411 . S
Cd830 O833 2.333 . S
Cd830 O834 2.352 . S
Cd830 O838 2.277 . S
Cd830 O839 2.356 . S
C831 O836 1.209 . S
C831 O838 1.226 . S
O832 Cd828 2.273 . S
O832 Cd830 2.411 . S
O832 C835 1.320 . S
O833 Cd830 2.333 . S
O833 C835 1.214 . S
O834 Cd830 2.352 . S
O834 C837 1.258 . S
C835 O832 1.320 . S
C835 O833 1.214 . S
O836 Cd828 2.277 . S
O836 C831 1.209 . S
C837 O834 1.258 . S
C837 O839 1.282 . S
O838 Cd830 2.277 . S
O838 C831 1.226 . S
O839 Cd830 2.356 . S
O839 C837 1.282 . S
C840 O841 1.306 . S
C840 O843 1.160 . S
O841 C840 1.306 . S
O841 Cd842 2.228 . S
Cd842 O841 2.228 . S
Cd842 O846 2.273 . S
Cd842 O850 2.277 . S
O843 C840 1.160 . S
O843 Cd844 2.203 . S
Cd844 O843 2.203 . S
Cd844 O846 2.411 . S
Cd844 O847 2.333 . S
Cd844 O848 2.352 . S
Cd844 O852 2.277 . S
Cd844 O853 2.356 . S
C845 O850 1.209 . S
C845 O852 1.226 . S
O846 Cd842 2.273 . S
O846 Cd844 2.411 . S
O846 C849 1.320 . S
O847 Cd844 2.333 . S
O847 C849 1.214 . S
O848 Cd844 2.352 . S
O848 C851 1.258 . S
C849 O846 1.320 . S
C849 O847 1.214 . S
O850 Cd842 2.277 . S
O850 C845 1.209 . S
C851 O848 1.258 . S
C851 O853 1.282 . S
O852 Cd844 2.277 . S
O852 C845 1.226 . S
O853 Cd844 2.356 . S
O853 C851 1.282 . S
C854 O855 1.306 . S
C854 O857 1.160 . S
O855 C854 1.306 . S
O855 Cd856 2.228 . S
Cd856 O855 2.228 . S
Cd856 O860 2.273 . S
Cd856 O864 2.277 . S
O857 C854 1.160 . S
O857 Cd858 2.203 . S
Cd858 O857 2.203 . S
Cd858 O860 2.411 . S
Cd858 O861 2.333 . S
Cd858 O862 2.352 . S
Cd858 O866 2.277 . S
Cd858 O867 2.356 . S
C859 O864 1.209 . S
C859 O866 1.226 . S
O860 Cd856 2.273 . S
O860 Cd858 2.411 . S
O860 C863 1.320 . S
O861 Cd858 2.333 . S
O861 C863 1.214 . S
O862 Cd858 2.352 . S
O862 C865 1.258 . S
C863 O860 1.320 . S
C863 O861 1.214 . S
O864 Cd856 2.277 . S
O864 C859 1.209 . S
C865 O862 1.258 . S
C865 O867 1.282 . S
O866 Cd858 2.277 . S
O866 C859 1.226 . S
O867 Cd858 2.356 . S
O867 C865 1.282 . S
C868 O869 1.306 . S
C868 O871 1.160 . S
O869 C868 1.306 . S
O869 Cd870 2.228 . S
Cd870 O869 2.228 . S
Cd870 O874 2.273 . S
Cd870 O878 2.277 . S
O871 C868 1.160 . S
O871 Cd872 2.203 . S
Cd872 O871 2.203 . S
Cd872 O874 2.411 . S
Cd872 O875 2.333 . S
Cd872 O876 2.352 . S
Cd872 O880 2.277 . S
Cd872 O881 2.356 . S
C873 O878 1.209 . S
C873 O880 1.226 . S
O874 Cd870 2.273 . S
O874 Cd872 2.411 . S
O874 C877 1.320 . S
O875 Cd872 2.333 . S
O875 C877 1.214 . S
O876 Cd872 2.352 . S
O876 C879 1.258 . S
C877 O874 1.320 . S
C877 O875 1.214 . S
O878 Cd870 2.277 . S
O878 C873 1.209 . S
C879 O876 1.258 . S
C879 O881 1.282 . S
O880 Cd872 2.277 . S
O880 C873 1.226 . S
O881 Cd872 2.356 . S
O881 C879 1.282 . S
C882 O883 1.306 . S
C882 O885 1.160 . S
O883 C882 1.306 . S
O883 Cd884 2.228 . S
Cd884 O883 2.228 . S
Cd884 O888 2.273 . S
Cd884 O892 2.277 . S
O885 C882 1.160 . S
O885 Cd886 2.203 . S
Cd886 O885 2.203 . S
Cd886 O888 2.411 . S
Cd886 O889 2.333 . S
Cd886 O890 2.352 . S
Cd886 O894 2.277 . S
Cd886 O895 2.356 . S
C887 O892 1.209 . S
C887 O894 1.226 . S
O888 Cd884 2.273 . S
O888 Cd886 2.411 . S
O888 C891 1.320 . S
O889 Cd886 2.333 . S
O889 C891 1.214 . S
O890 Cd886 2.352 . S
O890 C893 1.258 . S
C891 O888 1.320 . S
C891 O889 1.214 . S
O892 Cd884 2.277 . S
O892 C887 1.209 . S
C893 O890 1.258 . S
C893 O895 1.282 . S
O894 Cd886 2.277 . S
O894 C887 1.226 . S
O895 Cd886 2.356 . S
O895 C893 1.282 . S
C896 O897 1.306 . S
C896 O899 1.160 . S
O897 C896 1.306 . S
O897 Cd898 2.228 . S
Cd898 O897 2.228 . S
Cd898 O902 2.273 . S
Cd898 O906 2.277 . S
O899 C896 1.160 . S
O899 Cd900 2.203 . S
Cd900 O899 2.203 . S
Cd900 O902 2.411 . S
Cd900 O903 2.333 . S
Cd900 O904 2.352 . S
Cd900 O908 2.277 . S
Cd900 O909 2.356 . S
C901 O906 1.209 . S
C901 O908 1.226 . S
O902 Cd898 2.273 . S
O902 Cd900 2.411 . S
O902 C905 1.320 . S
O903 Cd900 2.333 . S
O903 C905 1.214 . S
O904 Cd900 2.352 . S
O904 C907 1.258 . S
C905 O902 1.320 . S
C905 O903 1.214 . S
O906 Cd898 2.277 . S
O906 C901 1.209 . S
C907 O904 1.258 . S
C907 O909 1.282 . S
O908 Cd900 2.277 . S
O908 C901 1.226 . S
O909 Cd900 2.356 . S
O909 C907 1.282 . S
C910 O911 1.306 . S
C910 O913 1.160 . S
O911 C910 1.306 . S
O911 Cd912 2.228 . S
Cd912 O911 2.228 . S
Cd912 O916 2.273 . S
Cd912 O920 2.277 . S
O913 C910 1.160 . S
O913 Cd914 2.203 . S
Cd914 O913 2.203 . S
Cd914 O916 2.411 . S
Cd914 O917 2.333 . S
Cd914 O918 2.352 . S
Cd914 O922 2.277 . S
Cd914 O923 2.356 . S
C915 O920 1.209 . S
C915 O922 1.226 . S
O916 Cd912 2.273 . S
O916 Cd914 2.411 . S
O916 C919 1.320 . S
O917 Cd914 2.333 . S
O917 C919 1.214 . S
O918 Cd914 2.352 . S
O918 C921 1.258 . S
C919 O916 1.320 . S
C919 O917 1.214 . S
O920 Cd912 2.277 . S
O920 C915 1.209 . S
C921 O918 1.258 . S
C921 O923 1.282 . S
O922 Cd914 2.277 . S
O922 C915 1.226 . S
O923 Cd914 2.356 . S
O923 C921 1.282 . S
C924 O925 1.306 . S
C924 O927 1.160 . S
O925 C924 1.306 . S
O925 Cd926 2.228 . S
Cd926 O925 2.228 . S
Cd926 O930 2.273 . S
Cd926 O934 2.277 . S
O927 C924 1.160 . S
O927 Cd928 2.203 . S
Cd928 O927 2.203 . S
Cd928 O930 2.411 . S
Cd928 O931 2.333 . S
Cd928 O932 2.352 . S
Cd928 O936 2.277 . S
Cd928 O937 2.356 . S
C929 O934 1.209 . S
C929 O936 1.226 . S
O930 Cd926 2.273 . S
O930 Cd928 2.411 . S
O930 C933 1.320 . S
O931 Cd928 2.333 . S
O931 C933 1.214 . S
O932 Cd928 2.352 . S
O932 C935 1.258 . S
C933 O930 1.320 . S
C933 O931 1.214 . S
O934 Cd926 2.277 . S
O934 C929 1.209 . S
C935 O932 1.258 . S
C935 O937 1.282 . S
O936 Cd928 2.277 . S
O936 C929 1.226 . S
O937 Cd928 2.356 . S
O937 C935 1.282 . S
C938 O939 1.306 . S
C938 O941 1.160 . S
O939 C938 1.306 . S
O939 Cd940 2.228 . S
Cd940 O939 2.228 . S
Cd940 O944 2.273 . S
Cd940 O948 2.277 . S
O941 C938 1.160 . S
O941 Cd942 2.203 . S
Cd942 O941 2.203 . S
Cd942 O944 2.411 . S
Cd942 O945 2.333 . S
Cd942 O946 2.352 . S
Cd942 O950 2.277 . S
Cd942 O951 2.356 . S
C943 O948 1.209 . S
C943 O950 1.226 . S
O944 Cd940 2.273 . S
O944 Cd942 2.411 . S
O944 C947 1.320 . S
O945 Cd942 2.333 . S
O945 C947 1.214 . S
O946 Cd942 2.352 . S
O946 C949 1.258 . S
C947 O944 1.320 . S
C947 O945 1.214 . S
O948 Cd940 2.277 . S
O948 C943 1.209 . S
C949 O946 1.258 . S
C949 O951 1.282 . S
O950 Cd942 2.277 . S
O950 C943 1.226 . S
O951 Cd942 2.356 . S
O951 C949 1.282 . S
C952 O953 1.306 . S
C952 O955 1.160 . S
O953 C952 1.306 . S
O953 Cd954 2.228 . S
Cd954 O953 2.228 . S
Cd954 O958 2.273 . S
Cd954 O962 2.277 . S
O955 C952 1.160 . S
O955 Cd956 2.203 . S
Cd956 O955 2.203 . S
Cd956 O958 2.411 . S
Cd956 O959 2.333 . S
Cd956 O960 2.352 . S
Cd956 O964 2.277 . S
Cd956 O965 2.356 . S
C957 O962 1.209 . S
C957 O964 1.226 . S
O958 Cd954 2.273 . S
O958 Cd956 2.411 . S
O958 C961 1.320 . S
O959 Cd956 2.333 . S
O959 C961 1.214 . S
O960 Cd956 2.352 . S
O960 C963 1.258 . S
C961 O958 1.320 . S
C961 O959 1.214 . S
O962 Cd954 2.277 . S
O962 C957 1.209 . S
C963 O960 1.258 . S
C963 O965 1.282 . S
O964 Cd956 2.277 . S
O964 C957 1.226 . S
O965 Cd956 2.356 . S
O965 C963 1.282 . S
C966 O967 1.306 . S
C966 O969 1.160 . S
O967 C966 1.306 . S
O967 Cd968 2.228 . S
Cd968 O967 2.228 . S
Cd968 O972 2.273 . S
Cd968 O976 2.277 . S
O969 C966 1.160 . S
O969 Cd970 2.203 . S
Cd970 O969 2.203 . S
Cd970 O972 2.411 . S
Cd970 O973 2.333 . S
Cd970 O974 2.352 . S
Cd970 O978 2.277 . S
Cd970 O979 2.356 . S
C971 O976 1.209 . S
C971 O978 1.226 . S
O972 Cd968 2.273 . S
O972 Cd970 2.411 . S
O972 C975 1.320 . S
O973 Cd970 2.333 . S
O973 C975 1.214 . S
O974 Cd970 2.352 . S
O974 C977 1.258 . S
C975 O972 1.320 . S
C975 O973 1.214 . S
O976 Cd968 2.277 . S
O976 C971 1.209 . S
C977 O974 1.258 . S
C977 O979 1.282 . S
O978 Cd970 2.277 . S
O978 C971 1.226 . S
O979 Cd970 2.356 . S
O979 C977 1.282 . S
C980 O981 1.306 . S
C980 O983 1.160 . S
O981 C980 1.306 . S
O981 Cd982 2.228 . S
Cd982 O981 2.228 . S
Cd982 O986 2.273 . S
Cd982 O990 2.277 . S
O983 C980 1.160 . S
O983 Cd984 2.203 . S
Cd984 O983 2.203 . S
Cd984 O986 2.411 . S
Cd984 O987 2.333 . S
Cd984 O988 2.352 . S
Cd984 O992 2.277 . S
Cd984 O993 2.356 . S
C985 O990 1.209 . S
C985 O992 1.226 . S
O986 Cd982 2.273 . S
O986 Cd984 2.411 . S
O986 C989 1.320 . S
O987 Cd984 2.333 . S
O987 C989 1.214 . S
O988 Cd984 2.352 . S
O988 C991 1.258 . S
C989 O986 1.320 . S
C989 O987 1.214 . S
O990 Cd982 2.277 . S
O990 C985 1.209 . S
C991 O988 1.258 . S
C991 O993 1.282 . S
O992 Cd984 2.277 . S
O992 C985 1.226 . S
O993 Cd984 2.356 . S
O993 C991 1.282 . S
C994 O995 1.306 . S
C994 O997 1.160 . S
O995 C994 1.306 . S
O995 Cd996 2.228 . S
Cd996 O995 2.228 . S
Cd996 O1000 2.273 . S
Cd996 O1004 2.277 . S
O997 C994 1.160 . S
O997 Cd998 2.203 . S
Cd998 O997 2.203 . S
Cd998 O1000 2.411 . S
Cd998 O1001 2.333 . S
Cd998 O1002 2.352 . S
Cd998 O1006 2.277 . S
Cd998 O1007 2.356 . S
C999 O1004 1.209 . S
C999 O1006 1.226 . S
O1000 Cd996 2.273 . S
O1000 Cd998 2.411 . S
O1000 C1003 1.320 . S
O1001 Cd998 2.333 . S
O1001 C1003 1.214 . S
O1002 Cd998 2.352 . S
O1002 C1005 1.258 . S
C1003 O1000 1.320 . S
C1003 O1001 1.214 . S
O1004 Cd996 2.277 . S
O1004 C999 1.209 . S
C1005 O1002 1.258 . S
C1005 O1007 1.282 . S
O1006 Cd998 2.277 . S
O1006 C999 1.226 . S
O1007 Cd998 2.356 . S
O1007 C1005 1.282 . S
C1008 O1009 1.306 . S
C1008 O1011 1.160 . S
O1009 C1008 1.306 . S
O1009 Cd1010 2.228 . S
Cd1010 O1009 2.228 . S
Cd1010 O1014 2.273 . S
Cd1010 O1018 2.277 . S
O1011 C1008 1.160 . S
O1011 Cd1012 2.203 . S
Cd1012 O1011 2.203 . S
Cd1012 O1014 2.411 . S
Cd1012 O1015 2.333 . S
Cd1012 O1016 2.352 . S
Cd1012 O1020 2.277 . S
Cd1012 O1021 2.356 . S
C1013 O1018 1.209 . S
C1013 O1020 1.226 . S
O1014 Cd1010 2.273 . S
O1014 Cd1012 2.411 . S
O1014 C1017 1.320 . S
O1015 Cd1012 2.333 . S
O1015 C1017 1.214 . S
O1016 Cd1012 2.352 . S
O1016 C1019 1.258 . S
C1017 O1014 1.320 . S
C1017 O1015 1.214 . S
O1018 Cd1010 2.277 . S
O1018 C1013 1.209 . S
C1019 O1016 1.258 . S
C1019 O1021 1.282 . S
O1020 Cd1012 2.277 . S
O1020 C1013 1.226 . S
O1021 Cd1012 2.356 . S
O1021 C1019 1.282 . S
C1022 O1023 1.306 . S
C1022 O1025 1.160 . S
O1023 C1022 1.306 . S
O1023 Cd1024 2.228 . S
Cd1024 O1023 2.228 . S
Cd1024 O1028 2.273 . S
Cd1024 O1032 2.277 . S
O1025 C1022 1.160 . S
O1025 Cd1026 2.203 . S
Cd1026 O1025 2.203 . S
Cd1026 O1028 2.411 . S
Cd1026 O1029 2.333 . S
Cd1026 O1030 2.352 . S
Cd1026 O1034 2.277 . S
Cd1026 O1035 2.356 . S
C1027 O1032 1.209 . S
C1027 O1034 1.226 . S
O1028 Cd1024 2.273 . S
O1028 Cd1026 2.411 . S
O1028 C1031 1.320 . S
O1029 Cd1026 2.333 . S
O1029 C1031 1.214 . S
O1030 Cd1026 2.352 . S
O1030 C1033 1.258 . S
C1031 O1028 1.320 . S
C1031 O1029 1.214 . S
O1032 Cd1024 2.277 . S
O1032 C1027 1.209 . S
C1033 O1030 1.258 . S
C1033 O1035 1.282 . S
O1034 Cd1026 2.277 . S
O1034 C1027 1.226 . S
O1035 Cd1026 2.356 . S
O1035 C1033 1.282 . S
C1036 O1037 1.306 . S
C1036 O1039 1.160 . S
O1037 C1036 1.306 . S
O1037 Cd1038 2.228 . S
Cd1038 O1037 2.228 . S
Cd1038 O1042 2.273 . S
Cd1038 O1046 2.277 . S
O1039 C1036 1.160 . S
O1039 Cd1040 2.203 . S
Cd1040 O1039 2.203 . S
Cd1040 O1042 2.411 . S
Cd1040 O1043 2.333 . S
Cd1040 O1044 2.352 . S
Cd1040 O1048 2.277 . S
Cd1040 O1049 2.356 . S
C1041 O1046 1.209 . S
C1041 O1048 1.226 . S
O1042 Cd1038 2.273 . S
O1042 Cd1040 2.411 . S
O1042 C1045 1.320 . S
O1043 Cd1040 2.333 . S
O1043 C1045 1.214 . S
O1044 Cd1040 2.352 . S
O1044 C1047 1.258 . S
C1045 O1042 1.320 . S
C1045 O1043 1.214 . S
O1046 Cd1038 2.277 . S
O1046 C1041 1.209 . S
C1047 O1044 1.258 . S
C1047 O1049 1.282 . S
O1048 Cd1040 2.277 . S
O1048 C1041 1.226 . S
O1049 Cd1040 2.356 . S
O1049 C1047 1.282 . S
C1050 O1051 1.306 . S
C1050 O1053 1.160 . S
O1051 C1050 1.306 . S
O1051 Cd1052 2.228 . S
Cd1052 O1051 2.228 . S
Cd1052 O1056 2.273 . S
Cd1052 O1060 2.277 . S
O1053 C1050 1.160 . S
O1053 Cd1054 2.203 . S
Cd1054 O1053 2.203 . S
Cd1054 O1056 2.411 . S
Cd1054 O1057 2.333 . S
Cd1054 O1058 2.352 . S
Cd1054 O1062 2.277 . S
Cd1054 O1063 2.356 . S
C1055 O1060 1.209 . S
C1055 O1062 1.226 . S
O1056 Cd1052 2.273 . S
O1056 Cd1054 2.411 . S
O1056 C1059 1.320 . S
O1057 Cd1054 2.333 . S
O1057 C1059 1.214 . S
O1058 Cd1054 2.352 . S
O1058 C1061 1.258 . S
C1059 O1056 1.320 . S
C1059 O1057 1.214 . S
O1060 Cd1052 2.277 . S
O1060 C1055 1.209 . S
C1061 O1058 1.258 . S
C1061 O1063 1.282 . S
O1062 Cd1054 2.277 . S
O1062 C1055 1.226 . S
O1063 Cd1054 2.356 . S
O1063 C1061 1.282 . S
C1064 O1065 1.306 . S
C1064 O1067 1.160 . S
O1065 C1064 1.306 . S
O1065 Cd1066 2.228 . S
Cd1066 O1065 2.228 . S
Cd1066 O1070 2.273 . S
Cd1066 O1074 2.277 . S
O1067 C1064 1.160 . S
O1067 Cd1068 2.203 . S
Cd1068 O1067 2.203 . S
Cd1068 O1070 2.411 . S
Cd1068 O1071 2.333 . S
Cd1068 O1072 2.352 . S
Cd1068 O1076 2.277 . S
Cd1068 O1077 2.356 . S
C1069 O1074 1.209 . S
C1069 O1076 1.226 . S
O1070 Cd1066 2.273 . S
O1070 Cd1068 2.411 . S
O1070 C1073 1.320 . S
O1071 Cd1068 2.333 . S
O1071 C1073 1.214 . S
O1072 Cd1068 2.352 . S
O1072 C1075 1.258 . S
C1073 O1070 1.320 . S
C1073 O1071 1.214 . S
O1074 Cd1066 2.277 . S
O1074 C1069 1.209 . S
C1075 O1072 1.258 . S
C1075 O1077 1.282 . S
O1076 Cd1068 2.277 . S
O1076 C1069 1.226 . S
O1077 Cd1068 2.356 . S
O1077 C1075 1.282 . S
C1078 O1079 1.306 . S
C1078 O1081 1.160 . S
O1079 C1078 1.306 . S
O1079 Cd1080 2.228 . S
Cd1080 O1079 2.228 . S
Cd1080 O1084 2.273 . S
Cd1080 O1088 2.277 . S
O1081 C1078 1.160 . S
O1081 Cd1082 2.203 . S
Cd1082 O1081 2.203 . S
Cd1082 O1084 2.411 . S
Cd1082 O1085 2.333 . S
Cd1082 O1086 2.352 . S
Cd1082 O1090 2.277 . S
Cd1082 O1091 2.356 . S
C1083 O1088 1.209 . S
C1083 O1090 1.226 . S
O1084 Cd1080 2.273 . S
O1084 Cd1082 2.411 . S
O1084 C1087 1.320 . S
O1085 Cd1082 2.333 . S
O1085 C1087 1.214 . S
O1086 Cd1082 2.352 . S
O1086 C1089 1.258 . S
C1087 O1084 1.320 . S
C1087 O1085 1.214 . S
O1088 Cd1080 2.277 . S
O1088 C1083 1.209 . S
C1089 O1086 1.258 . S
C1089 O1091 1.282 . S
O1090 Cd1082 2.277 . S
O1090 C1083 1.226 . S
O1091 Cd1082 2.356 . S
O1091 C1089 1.282 . S
C1092 O1093 1.306 . S
C1092 O1095 1.160 . S
O1093 C1092 1.306 . S
O1093 Cd1094 2.228 . S
Cd1094 O1093 2.228 . S
Cd1094 O1098 2.273 . S
Cd1094 O1102 2.277 . S
O1095 C1092 1.160 . S
O1095 Cd1096 2.203 . S
Cd1096 O1095 2.203 . S
Cd1096 O1098 2.411 . S
Cd1096 O1099 2.333 . S
Cd1096 O1100 2.352 . S
Cd1096 O1104 2.277 . S
Cd1096 O1105 2.356 . S
C1097 O1102 1.209 . S
C1097 O1104 1.226 . S
O1098 Cd1094 2.273 . S
O1098 Cd1096 2.411 . S
O1098 C1101 1.320 . S
O1099 Cd1096 2.333 . S
O1099 C1101 1.214 . S
O1100 Cd1096 2.352 . S
O1100 C1103 1.258 . S
C1101 O1098 1.320 . S
C1101 O1099 1.214 . S
O1102 Cd1094 2.277 . S
O1102 C1097 1.209 . S
C1103 O1100 1.258 . S
C1103 O1105 1.282 . S
O1104 Cd1096 2.277 . S
O1104 C1097 1.226 . S
O1105 Cd1096 2.356 . S
O1105 C1103 1.282 . S
C1106 O1107 1.306 . S
C1106 O1109 1.160 . S
O1107 C1106 1.306 . S
O1107 Cd1108 2.228 . S
Cd1108 O1107 2.228 . S
Cd1108 O1112 2.273 . S
Cd1108 O1116 2.277 . S
O1109 C1106 1.160 . S
O1109 Cd1110 2.203 . S
Cd1110 O1109 2.203 . S
Cd1110 O1112 2.411 . S
Cd1110 O1113 2.333 . S
Cd1110 O1114 2.352 . S
Cd1110 O1118 2.277 . S
Cd1110 O1119 2.356 . S
C1111 O1116 1.209 . S
C1111 O1118 1.226 . S
O1112 Cd1108 2.273 . S
O1112 Cd1110 2.411 . S
O1112 C1115 1.320 . S
O1113 Cd1110 2.333 . S
O1113 C1115 1.214 . S
O1114 Cd1110 2.352 . S
O1114 C1117 1.258 . S
C1115 O1112 1.320 . S
C1115 O1113 1.214 . S
O1116 Cd1108 2.277 . S
O1116 C1111 1.209 . S
C1117 O1114 1.258 . S
C1117 O1119 1.282 . S
O1118 Cd1110 2.277 . S
O1118 C1111 1.226 . S
O1119 Cd1110 2.356 . S
O1119 C1117 1.282 . S
C1120 O1121 1.306 . S
C1120 O1123 1.160 . S
O1121 C1120 1.306 . S
O1121 Cd1122 2.228 . S
Cd1122 O1121 2.228 . S
Cd1122 O1126 2.273 . S
Cd1122 O1130 2.277 . S
O1123 C1120 1.160 . S
O1123 Cd1124 2.203 . S
Cd1124 O1123 2.203 . S
Cd1124 O1126 2.411 . S
Cd1124 O1127 2.333 . S
Cd1124 O1128 2.352 . S
Cd1124 O1132 2.277 . S
Cd1124 O1133 2.356 . S
C1125 O1130 1.209 . S
C1125 O1132 1.226 . S
O1126 Cd1122 2.273 . S
O1126 Cd1124 2.411 . S
O1126 C1129 1.320 . S
O1127 Cd1124 2.333 . S
O1127 C1129 1.214 . S
O1128 Cd1124 2.352 . S
O1128 C1131 1.258 . S
C1129 O1126 1.320 . S
C1129 O1127 1.214 . S
O1130 Cd1122 2.277 . S
O1130 C1125 1.209 . S
C1131 O1128 1.258 . S
C1131 O1133 1.282 . S
O1132 Cd1124 2.277 . S
O1132 C1125 1.226 . S
O1133 Cd1124 2.356 . S
O1133 C1131 1.282 . S
C1134 O1135 1.306 . S
C1134 O1137 1.160 . S
O1135 C1134 1.306 . S
O1135 Cd1136 2.228 . S
Cd1136 O1135 2.228 . S
Cd1136 O1140 2.273 . S
Cd1136 O1144 2.277 . S
O1137 C1134 1.160 . S
O1137 Cd1138 2.203 . S
Cd1138 O1137 2.203 . S
Cd1138 O1140 2.411 . S
Cd1138 O1141 2.333 . S
Cd1138 O1142 2.352 . S
Cd1138 O1146 2.277 . S
Cd1138 O1147 2.356 . S
C1139 O1144 1.209 . S
C1139 O1146 1.226 . S
O1140 Cd1136 2.273 . S
O1140 Cd1138 2.411 . S
O1140 C1143 1.320 . S
O1141 Cd1138 2.333 . S
O1141 C1143 1.214 . S
O1142 Cd1138 2.352 . S
O1142 C1145 1.258 . S
C1143 O1140 1.320 . S
C1143 O1141 1.214 . S
O1144 Cd1136 2.277 . S
O1144 C1139 1.209 . S
C1145 O1142 1.258 . S
C1145 O1147 1.282 . S
O1146 Cd1138 2.277 . S
O1146 C1139 1.226 . S
O1147 Cd1138 2.356 . S
O1147 C1145 1.282 . S
C1148 O1149 1.306 . S
C1148 O1151 1.160 . S
O1149 C1148 1.306 . S
O1149 Cd1150 2.228 . S
Cd1150 O1149 2.228 . S
Cd1150 O1154 2.273 . S
Cd1150 O1158 2.277 . S
O1151 C1148 1.160 . S
O1151 Cd1152 2.203 . S
Cd1152 O1151 2.203 . S
Cd1152 O1154 2.411 . S
Cd1152 O1155 2.333 . S
Cd1152 O1156 2.352 . S
Cd1152 O1160 2.277 . S
Cd1152 O1161 2.356 . S
C1153 O1158 1.209 . S
C1153 O1160 1.226 . S
O1154 Cd1150 2.273 . S
O1154 Cd1152 2.411 . S
O1154 C1157 1.320 . S
O1155 Cd1152 2.333 . S
O1155 C1157 1.214 . S
O1156 Cd1152 2.352 . S
O1156 C1159 1.258 . S
C1157 O1154 1.320 . S
C1157 O1155 1.214 . S
O1158 Cd1150 2.277 . S
O1158 C1153 1.209 . S
C1159 O1156 1.258 . S
C1159 O1161 1.282 . S
O1160 Cd1152 2.277 . S
O1160 C1153 1.226 . S
O1161 Cd1152 2.356 . S
O1161 C1159 1.282 . S
C1162 O1163 1.306 . S
C1162 O1165 1.160 . S
O1163 C1162 1.306 . S
O1163 Cd1164 2.228 . S
Cd1164 O1163 2.228 . S
Cd1164 O1168 2.273 . S
Cd1164 O1172 2.277 . S
O1165 C1162 1.160 . S
O1165 Cd1166 2.203 . S
Cd1166 O1165 2.203 . S
Cd1166 O1168 2.411 . S
Cd1166 O1169 2.333 . S
Cd1166 O1170 2.352 . S
Cd1166 O1174 2.277 . S
Cd1166 O1175 2.356 . S
C1167 O1172 1.209 . S
C1167 O1174 1.226 . S
O1168 Cd1164 2.273 . S
O1168 Cd1166 2.411 . S
O1168 C1171 1.320 . S
O1169 Cd1166 2.333 . S
O1169 C1171 1.214 . S
O1170 Cd1166 2.352 . S
O1170 C1173 1.258 . S
C1171 O1168 1.320 . S
C1171 O1169 1.214 . S
O1172 Cd1164 2.277 . S
O1172 C1167 1.209 . S
C1173 O1170 1.258 . S
C1173 O1175 1.282 . S
O1174 Cd1166 2.277 . S
O1174 C1167 1.226 . S
O1175 Cd1166 2.356 . S
O1175 C1173 1.282 . S
C1176 O1177 1.306 . S
C1176 O1179 1.160 . S
O1177 C1176 1.306 . S
O1177 Cd1178 2.228 . S
Cd1178 O1177 2.228 . S
Cd1178 O1182 2.273 . S
Cd1178 O1186 2.277 . S
O1179 C1176 1.160 . S
O1179 Cd1180 2.203 . S
Cd1180 O1179 2.203 . S
Cd1180 O1182 2.411 . S
Cd1180 O1183 2.333 . S
Cd1180 O1184 2.352 . S
Cd1180 O1188 2.277 . S
Cd1180 O1189 2.356 . S
C1181 O1186 1.209 . S
C1181 O1188 1.226 . S
O1182 Cd1178 2.273 . S
O1182 Cd1180 2.411 . S
O1182 C1185 1.320 . S
O1183 Cd1180 2.333 . S
O1183 C1185 1.214 . S
O1184 Cd1180 2.352 . S
O1184 C1187 1.258 . S
C1185 O1182 1.320 . S
C1185 O1183 1.214 . S
O1186 Cd1178 2.277 . S
O1186 C1181 1.209 . S
C1187 O1184 1.258 . S
C1187 O1189 1.282 . S
O1188 Cd1180 2.277 . S
O1188 C1181 1.226 . S
O1189 Cd1180 2.356 . S
O1189 C1187 1.282 . S
C1190 O1191 1.306 . S
C1190 O1193 1.160 . S
O1191 C1190 1.306 . S
O1191 Cd1192 2.228 . S
Cd1192 O1191 2.228 . S
Cd1192 O1196 2.273 . S
Cd1192 O1200 2.277 . S
O1193 C1190 1.160 . S
O1193 Cd1194 2.203 . S
Cd1194 O1193 2.203 . S
Cd1194 O1196 2.411 . S
Cd1194 O1197 2.333 . S
Cd1194 O1198 2.352 . S
Cd1194 O1202 2.277 . S
Cd1194 O1203 2.356 . S
C1195 O1200 1.209 . S
C1195 O1202 1.226 . S
O1196 Cd1192 2.273 . S
O1196 Cd1194 2.411 . S
O1196 C1199 1.320 . S
O1197 Cd1194 2.333 . S
O1197 C1199 1.214 . S
O1198 Cd1194 2.352 . S
O1198 C1201 1.258 . S
C1199 O1196 1.320 . S
C1199 O1197 1.214 . S
O1200 Cd1192 2.277 . S
O1200 C1195 1.209 . S
C1201 O1198 1.258 . S
C1201 O1203 1.282 . S
O1202 Cd1194 2.277 . S
O1202 C1195 1.226 . S
O1203 Cd1194 2.356 . S
O1203 C1201 1.282 . S
C1204 O1205 1.306 . S
C1204 O1207 1.160 . S
O1205 C1204 1.306 . S
O1205 Cd1206 2.228 . S
Cd1206 O1205 2.228 . S
Cd1206 O1210 2.273 . S
Cd1206 O1214 2.277 . S
O1207 C1204 1.160 . S
O1207 Cd1208 2.203 . S
Cd1208 O1207 2.203 . S
Cd1208 O1210 2.411 . S
Cd1208 O1211 2.333 . S
Cd1208 O1212 2.352 . S
Cd1208 O1216 2.277 . S
Cd1208 O1217 2.356 . S
C1209 O1214 1.209 . S
C1209 O1216 1.226 . S
O1210 Cd1206 2.273 . S
O1210 Cd1208 2.411 . S
O1210 C1213 1.320 . S
O1211 Cd1208 2.333 . S
O1211 C1213 1.214 . S
O1212 Cd1208 2.352 . S
O1212 C1215 1.258 . S
C1213 O1210 1.320 . S
C1213 O1211 1.214 . S
O1214 Cd1206 2.277 . S
O1214 C1209 1.209 . S
C1215 O1212 1.258 . S
C1215 O1217 1.282 . S
O1216 Cd1208 2.277 . S
O1216 C1209 1.226 . S
O1217 Cd1208 2.356 . S
O1217 C1215 1.282 . S
C1218 O1219 1.306 . S
C1218 O1221 1.160 . S
O1219 C1218 1.306 . S
O1219 Cd1220 2.228 . S
Cd1220 O1219 2.228 . S
Cd1220 O1224 2.273 . S
Cd1220 O1228 2.277 . S
O1221 C1218 1.160 . S
O1221 Cd1222 2.203 . S
Cd1222 O1221 2.203 . S
Cd1222 O1224 2.411 . S
Cd1222 O1225 2.333 . S
Cd1222 O1226 2.352 . S
Cd1222 O1230 2.277 . S
Cd1222 O1231 2.356 . S
C1223 O1228 1.209 . S
C1223 O1230 1.226 . S
O1224 Cd1220 2.273 . S
O1224 Cd1222 2.411 . S
O1224 C1227 1.320 . S
O1225 Cd1222 2.333 . S
O1225 C1227 1.214 . S
O1226 Cd1222 2.352 . S
O1226 C1229 1.258 . S
C1227 O1224 1.320 . S
C1227 O1225 1.214 . S
O1228 Cd1220 2.277 . S
O1228 C1223 1.209 . S
C1229 O1226 1.258 . S
C1229 O1231 1.282 . S
O1230 Cd1222 2.277 . S
O1230 C1223 1.226 . S
O1231 Cd1222 2.356 . S
O1231 C1229 1.282 . S
C1232 O1233 1.306 . S
C1232 O1235 1.160 . S
O1233 C1232 1.306 . S
O1233 Cd1234 2.228 . S
Cd1234 O1233 2.228 . S
Cd1234 O1238 2.273 . S
Cd1234 O1242 2.277 . S
O1235 C1232 1.160 . S
O1235 Cd1236 2.203 . S
Cd1236 O1235 2.203 . S
Cd1236 O1238 2.411 . S
Cd1236 O1239 2.333 . S
Cd1236 O1240 2.352 . S
Cd1236 O1244 2.277 . S
Cd1236 O1245 2.356 . S
C1237 O1242 1.209 . S
C1237 O1244 1.226 . S
O1238 Cd1234 2.273 . S
O1238 Cd1236 2.411 . S
O1238 C1241 1.320 . S
O1239 Cd1236 2.333 . S
O1239 C1241 1.214 . S
O1240 Cd1236 2.352 . S
O1240 C1243 1.258 . S
C1241 O1238 1.320 . S
C1241 O1239 1.214 . S
O1242 Cd1234 2.277 . S
O1242 C1237 1.209 . S
C1243 O1240 1.258 . S
C1243 O1245 1.282 . S
O1244 Cd1236 2.277 . S
O1244 C1237 1.226 . S
O1245 Cd1236 2.356 . S
O1245 C1243 1.282 . S
C1246 O1247 1.306 . S
C1246 O1249 1.160 . S
O1247 C1246 1.306 . S
O1247 Cd1248 2.228 . S
Cd1248 O1247 2.228 . S
Cd1248 O1252 2.273 . S
Cd1248 O1256 2.277 . S
O1249 C1246 1.160 . S
O1249 Cd1250 2.203 . S
Cd1250 O1249 2.203 . S
Cd1250 O1252 2.411 . S
Cd1250 O1253 2.333 . S
Cd1250 O1254 2.352 . S
Cd1250 O1258 2.277 . S
Cd1250 O1259 2.356 . S
C1251 O1256 1.209 . S
C1251 O1258 1.226 . S
O1252 Cd1248 2.273 . S
O1252 Cd1250 2.411 . S
O1252 C1255 1.320 . S
O1253 Cd1250 2.333 . S
O1253 C1255 1.214 . S
O1254 Cd1250 2.352 . S
O1254 C1257 1.258 . S
C1255 O1252 1.320 . S
C1255 O1253 1.214 . S
O1256 Cd1248 2.277 . S
O1256 C1251 1.209 . S
C1257 O1254 1.258 . S
C1257 O1259 1.282 . S
O1258 Cd1250 2.277 . S
O1258 C1251 1.226 . S
O1259 Cd1250 2.356 . S
O1259 C1257 1.282 . S
C1260 O1261 1.306 . S
C1260 O1263 1.160 . S
O1261 C1260 1.306 . S
O1261 Cd1262 2.228 . S
Cd1262 O1261 2.228 . S
Cd1262 O1266 2.273 . S
Cd1262 O1270 2.277 . S
O1263 C1260 1.160 . S
O1263 Cd1264 2.203 . S
Cd1264 O1263 2.203 . S
Cd1264 O1266 2.411 . S
Cd1264 O1267 2.333 . S
Cd1264 O1268 2.352 . S
Cd1264 O1272 2.277 . S
Cd1264 O1273 2.356 . S
C1265 O1270 1.209 . S
C1265 O1272 1.226 . S
O1266 Cd1262 2.273 . S
O1266 Cd1264 2.411 . S
O1266 C1269 1.320 . S
O1267 Cd1264 2.333 . S
O1267 C1269 1.214 . S
O1268 Cd1264 2.352 . S
O1268 C1271 1.258 . S
C1269 O1266 1.320 . S
C1269 O1267 1.214 . S
O1270 Cd1262 2.277 . S
O1270 C1265 1.209 . S
C1271 O1268 1.258 . S
C1271 O1273 1.282 . S
O1272 Cd1264 2.277 . S
O1272 C1265 1.226 . S
O1273 Cd1264 2.356 . S
O1273 C1271 1.282 . S
C1274 O1275 1.306 . S
C1274 O1277 1.160 . S
O1275 C1274 1.306 . S
O1275 Cd1276 2.228 . S
Cd1276 O1275 2.228 . S
Cd1276 O1280 2.273 . S
Cd1276 O1284 2.277 . S
O1277 C1274 1.160 . S
O1277 Cd1278 2.203 . S
Cd1278 O1277 2.203 . S
Cd1278 O1280 2.411 . S
Cd1278 O1281 2.333 . S
Cd1278 O1282 2.352 . S
Cd1278 O1286 2.277 . S
Cd1278 O1287 2.356 . S
C1279 O1284 1.209 . S
C1279 O1286 1.226 . S
O1280 Cd1276 2.273 . S
O1280 Cd1278 2.411 . S
O1280 C1283 1.320 . S
O1281 Cd1278 2.333 . S
O1281 C1283 1.214 . S
O1282 Cd1278 2.352 . S
O1282 C1285 1.258 . S
C1283 O1280 1.320 . S
C1283 O1281 1.214 . S
O1284 Cd1276 2.277 . S
O1284 C1279 1.209 . S
C1285 O1282 1.258 . S
C1285 O1287 1.282 . S
O1286 Cd1278 2.277 . S
O1286 C1279 1.226 . S
O1287 Cd1278 2.356 . S
O1287 C1285 1.282 . S
C1288 O1289 1.306 . S
C1288 O1291 1.160 . S
O1289 C1288 1.306 . S
O1289 Cd1290 2.228 . S
Cd1290 O1289 2.228 . S
Cd1290 O1294 2.273 . S
Cd1290 O1298 2.277 . S
O1291 C1288 1.160 . S
O1291 Cd1292 2.203 . S
Cd1292 O1291 2.203 . S
Cd1292 O1294 2.411 . S
Cd1292 O1295 2.333 . S
Cd1292 O1296 2.352 . S
Cd1292 O1300 2.277 . S
Cd1292 O1301 2.356 . S
C1293 O1298 1.209 . S
C1293 O1300 1.226 . S
O1294 Cd1290 2.273 . S
O1294 Cd1292 2.411 . S
O1294 C1297 1.320 . S
O1295 Cd1292 2.333 . S
O1295 C1297 1.214 . S
O1296 Cd1292 2.352 . S
O1296 C1299 1.258 . S
C1297 O1294 1.320 . S
C1297 O1295 1.214 . S
O1298 Cd1290 2.277 . S
O1298 C1293 1.209 . S
C1299 O1296 1.258 . S
C1299 O1301 1.282 . S
O1300 Cd1292 2.277 . S
O1300 C1293 1.226 . S
O1301 Cd1292 2.356 . S
O1301 C1299 1.282 . S
C1302 O1303 1.306 . S
C1302 O1305 1.160 . S
O1303 C1302 1.306 . S
O1303 Cd1304 2.228 . S
Cd1304 O1303 2.228 . S
Cd1304 O1308 2.273 . S
Cd1304 O1312 2.277 . S
O1305 C1302 1.160 . S
O1305 Cd1306 2.203 . S
Cd1306 O1305 2.203 . S
Cd1306 O1308 2.411 . S
Cd1306 O1309 2.333 . S
Cd1306 O1310 2.352 . S
Cd1306 O1314 2.277 . S
Cd1306 O1315 2.356 . S
C1307 O1312 1.209 . S
C1307 O1314 1.226 . S
O1308 Cd1304 2.273 . S
O1308 Cd1306 2.411 . S
O1308 C1311 1.320 . S
O1309 Cd1306 2.333 . S
O1309 C1311 1.214 . S
O1310 Cd1306 2.352 . S
O1310 C1313 1.258 . S
C1311 O1308 1.320 . S
C1311 O1309 1.214 . S
O1312 Cd1304 2.277 . S
O1312 C1307 1.209 . S
C1313 O1310 1.258 . S
C1313 O1315 1.282 . S
O1314 Cd1306 2.277 . S
O1314 C1307 1.226 . S
O1315 Cd1306 2.356 . S
O1315 C1313 1.282 . S
C1316 O1317 1.306 . S
C1316 O1319 1.160 . S
O1317 C1316 1.306 . S
O1317 Cd1318 2.228 . S
Cd1318 O1317 2.228 . S
Cd1318 O1322 2.273 . S
Cd1318 O1326 2.277 . S
O1319 C1316 1.160 . S
O1319 Cd1320 2.203 . S
Cd1320 O1319 2.203 . S
Cd1320 O1322 2.411 . S
Cd1320 O1323 2.333 . S
Cd1320 O1324 2.352 . S
Cd1320 O1328 2.277 . S
Cd1320 O1329 2.356 . S
C1321 O1326 1.209 . S
C1321 O1328 1.226 . S
O1322 Cd1318 2.273 . S
O1322 Cd1320 2.411 . S
O1322 C1325 1.320 . S
O1323 Cd1320 2.333 . S
O1323 C1325 1.214 . S
O1324 Cd1320 2.352 . S
O1324 C1327 1.258 . S
C1325 O1322 1.320 . S
C1325 O1323 1.214 . S
O1326 Cd1318 2.277 . S
O1326 C1321 1.209 . S
C1327 O1324 1.258 . S
C1327 O1329 1.282 . S
O1328 Cd1320 2.277 . S
O1328 C1321 1.226 . S
O1329 Cd1320 2.356 . S
O1329 C1327 1.282 . S
C1330 O1331 1.306 . S
C1330 O1333 1.160 . S
O1331 C1330 1.306 . S
O1331 Cd1332 2.228 . S
Cd1332 O1331 2.228 . S
Cd1332 O1336 2.273 . S
Cd1332 O1340 2.277 . S
O1333 C1330 1.160 . S
O1333 Cd1334 2.203 . S
Cd1334 O1333 2.203 . S
Cd1334 O1336 2.411 . S
Cd1334 O1337 2.333 . S
Cd1334 O1338 2.352 . S
Cd1334 O1342 2.277 . S
Cd1334 O1343 2.356 . S
C1335 O1340 1.209 . S
C1335 O1342 1.226 . S
O1336 Cd1332 2.273 . S
O1336 Cd1334 2.411 . S
O1336 C1339 1.320 . S
O1337 Cd1334 2.333 . S
O1337 C1339 1.214 . S
O1338 Cd1334 2.352 . S
O1338 C1341 1.258 . S
C1339 O1336 1.320 . S
C1339 O1337 1.214 . S
O1340 Cd1332 2.277 . S
O1340 C1335 1.209 . S
C1341 O1338 1.258 . S
C1341 O1343 1.282 . S
O1342 Cd1334 2.277 . S
O1342 C1335 1.226 . S
O1343 Cd1334 2.356 . S
O1343 C1341 1.282 . S
H1344 C1362 0.951 . S
H1345 C1364 0.951 . S
H1346 C1366 0.950 . S
H1347 C1367 0.950 . S
H1348 C1369 0.950 . S
H1349 C1372 0.950 . S
H1350 C1373 0.950 . S
H1351 C1375 0.950 . S
H1352 C1376 0.950 . S
H1353 C1377 0.951 . S
H1354 C1379 0.951 . S
H1355 C1381 0.950 . S
H1356 C1382 0.950 . S
H1357 C1384 0.950 . S
H1358 C1387 0.950 . S
H1359 C1388 0.950 . S
H1360 C1390 0.950 . S
H1361 C1391 0.950 . S
C1362 H1344 0.951 . S
C1362 C1363 1.366 . S
C1362 C1364 1.388 . S
C1363 C1362 1.366 . S
C1363 C1367 1.385 . S
C1364 H1345 0.951 . S
C1364 C1362 1.388 . S
C1364 C1365 1.366 . S
C1365 C1364 1.366 . S
C1365 C1366 1.414 . S
C1365 C1368 1.499 . S
C1366 H1346 0.950 . S
C1366 C1365 1.414 . S
C1366 C1367 1.374 . S
C1367 H1347 0.950 . S
C1367 C1363 1.385 . S
C1367 C1366 1.374 . S
C1368 C1365 1.499 . S
C1368 C1369 1.373 . S
C1368 C1370 1.389 . S
C1369 H1348 0.950 . S
C1369 C1368 1.373 . S
C1369 C1385 1.377 . S
C1370 C1368 1.389 . S
C1370 C1371 1.524 . S
C1370 C1384 1.377 . S
C1371 C1370 1.524 . S
C1371 C1372 1.397 . S
C1371 C1376 1.363 . S
C1372 H1349 0.950 . S
C1372 C1371 1.397 . S
C1372 C1373 1.334 . S
C1373 H1350 0.950 . S
C1373 C1372 1.334 . S
C1373 C1374 1.287 . S
C1374 C1373 1.287 . S
C1374 C1375 1.524 . S
C1374 H1393 0.913 . S
C1375 H1351 0.950 . S
C1375 C1374 1.524 . S
C1375 C1376 1.415 . S
C1376 H1352 0.950 . S
C1376 C1371 1.363 . S
C1376 C1375 1.415 . S
C1377 H1353 0.951 . S
C1377 C1378 1.366 . S
C1377 C1379 1.388 . S
C1378 C1377 1.366 . S
C1378 C1382 1.385 . S
C1379 H1354 0.951 . S
C1379 C1377 1.388 . S
C1379 C1380 1.366 . S
C1380 C1379 1.366 . S
C1380 C1381 1.414 . S
C1380 C1383 1.499 . S
C1381 H1355 0.950 . S
C1381 C1380 1.414 . S
C1381 C1382 1.374 . S
C1382 H1356 0.950 . S
C1382 C1378 1.385 . S
C1382 C1381 1.374 . S
C1383 C1380 1.499 . S
C1383 C1384 1.373 . S
C1383 C1385 1.389 . S
C1384 H1357 0.950 . S
C1384 C1370 1.377 . S
C1384 C1383 1.373 . S
C1385 C1369 1.377 . S
C1385 C1383 1.389 . S
C1385 C1386 1.524 . S
C1386 C1385 1.524 . S
C1386 C1387 1.397 . S
C1386 C1391 1.363 . S
C1387 H1358 0.950 . S
C1387 C1386 1.397 . S
C1387 C1388 1.334 . S
C1388 H1359 0.950 . S
C1388 C1387 1.334 . S
C1388 C1389 1.287 . S
C1389 C1388 1.287 . S
C1389 C1390 1.524 . S
C1389 H1392 0.999 . S
C1390 H1360 0.950 . S
C1390 C1389 1.524 . S
C1390 C1391 1.415 . S
C1391 H1361 0.950 . S
C1391 C1386 1.363 . S
C1391 C1390 1.415 . S
H1392 C1389 0.999 . S
H1393 C1374 0.913 . S
H1394 C1412 0.951 . S
H1395 C1414 0.951 . S
H1396 C1416 0.950 . S
H1397 C1417 0.950 . S
H1398 C1419 0.950 . S
H1399 C1422 0.950 . S
H1400 C1423 0.950 . S
H1401 C1425 0.950 . S
H1402 C1426 0.950 . S
H1403 C1427 0.951 . S
H1404 C1429 0.951 . S
H1405 C1431 0.950 . S
H1406 C1432 0.950 . S
H1407 C1434 0.950 . S
H1408 C1437 0.950 . S
H1409 C1438 0.950 . S
H1410 C1440 0.950 . S
H1411 C1441 0.950 . S
C1412 H1394 0.951 . S
C1412 C1413 1.366 . S
C1412 C1414 1.388 . S
C1413 C1412 1.366 . S
C1413 C1417 1.385 . S
C1414 H1395 0.951 . S
C1414 C1412 1.388 . S
C1414 C1415 1.366 . S
C1415 C1414 1.366 . S
C1415 C1416 1.414 . S
C1415 C1418 1.499 . S
C1416 H1396 0.950 . S
C1416 C1415 1.414 . S
C1416 C1417 1.374 . S
C1417 H1397 0.950 . S
C1417 C1413 1.385 . S
C1417 C1416 1.374 . S
C1418 C1415 1.499 . S
C1418 C1419 1.373 . S
C1418 C1420 1.389 . S
C1419 H1398 0.950 . S
C1419 C1418 1.373 . S
C1419 C1435 1.377 . S
C1420 C1418 1.389 . S
C1420 C1421 1.524 . S
C1420 C1434 1.377 . S
C1421 C1420 1.524 . S
C1421 C1422 1.397 . S
C1421 C1426 1.363 . S
C1422 H1399 0.950 . S
C1422 C1421 1.397 . S
C1422 C1423 1.334 . S
C1423 H1400 0.950 . S
C1423 C1422 1.334 . S
C1423 C1424 1.287 . S
C1424 C1423 1.287 . S
C1424 C1425 1.524 . S
C1424 H1443 0.913 . S
C1425 H1401 0.950 . S
C1425 C1424 1.524 . S
C1425 C1426 1.415 . S
C1426 H1402 0.950 . S
C1426 C1421 1.363 . S
C1426 C1425 1.415 . S
C1427 H1403 0.951 . S
C1427 C1428 1.366 . S
C1427 C1429 1.388 . S
C1428 C1427 1.366 . S
C1428 C1432 1.385 . S
C1429 H1404 0.951 . S
C1429 C1427 1.388 . S
C1429 C1430 1.366 . S
C1430 C1429 1.366 . S
C1430 C1431 1.414 . S
C1430 C1433 1.499 . S
C1431 H1405 0.950 . S
C1431 C1430 1.414 . S
C1431 C1432 1.374 . S
C1432 H1406 0.950 . S
C1432 C1428 1.385 . S
C1432 C1431 1.374 . S
C1433 C1430 1.499 . S
C1433 C1434 1.373 . S
C1433 C1435 1.389 . S
C1434 H1407 0.950 . S
C1434 C1420 1.377 . S
C1434 C1433 1.373 . S
C1435 C1419 1.377 . S
C1435 C1433 1.389 . S
C1435 C1436 1.524 . S
C1436 C1435 1.524 . S
C1436 C1437 1.397 . S
C1436 C1441 1.363 . S
C1437 H1408 0.950 . S
C1437 C1436 1.397 . S
C1437 C1438 1.334 . S
C1438 H1409 0.950 . S
C1438 C1437 1.334 . S
C1438 C1439 1.287 . S
C1439 C1438 1.287 . S
C1439 C1440 1.524 . S
C1439 H1442 0.999 . S
C1440 H1410 0.950 . S
C1440 C1439 1.524 . S
C1440 C1441 1.415 . S
C1441 H1411 0.950 . S
C1441 C1436 1.363 . S
C1441 C1440 1.415 . S
H1442 C1439 0.999 . S
H1443 C1424 0.913 . S
H1444 C1462 0.951 . S
H1445 C1464 0.951 . S
H1446 C1466 0.950 . S
H1447 C1467 0.950 . S
H1448 C1469 0.950 . S
H1449 C1472 0.950 . S
H1450 C1473 0.950 . S
H1451 C1475 0.950 . S
H1452 C1476 0.950 . S
H1453 C1477 0.951 . S
H1454 C1479 0.951 . S
H1455 C1481 0.950 . S
H1456 C1482 0.950 . S
H1457 C1484 0.950 . S
H1458 C1487 0.950 . S
H1459 C1488 0.950 . S
H1460 C1490 0.950 . S
H1461 C1491 0.950 . S
C1462 H1444 0.951 . S
C1462 C1463 1.366 . S
C1462 C1464 1.388 . S
C1463 C1462 1.366 . S
C1463 C1467 1.385 . S
C1464 H1445 0.951 . S
C1464 C1462 1.388 . S
C1464 C1465 1.366 . S
C1465 C1464 1.366 . S
C1465 C1466 1.414 . S
C1465 C1468 1.499 . S
C1466 H1446 0.950 . S
C1466 C1465 1.414 . S
C1466 C1467 1.374 . S
C1467 H1447 0.950 . S
C1467 C1463 1.385 . S
C1467 C1466 1.374 . S
C1468 C1465 1.499 . S
C1468 C1469 1.373 . S
C1468 C1470 1.389 . S
C1469 H1448 0.950 . S
C1469 C1468 1.373 . S
C1469 C1485 1.377 . S
C1470 C1468 1.389 . S
C1470 C1471 1.524 . S
C1470 C1484 1.377 . S
C1471 C1470 1.524 . S
C1471 C1472 1.397 . S
C1471 C1476 1.363 . S
C1472 H1449 0.950 . S
C1472 C1471 1.397 . S
C1472 C1473 1.334 . S
C1473 H1450 0.950 . S
C1473 C1472 1.334 . S
C1473 C1474 1.287 . S
C1474 C1473 1.287 . S
C1474 C1475 1.524 . S
C1474 H1493 0.913 . S
C1475 H1451 0.950 . S
C1475 C1474 1.524 . S
C1475 C1476 1.415 . S
C1476 H1452 0.950 . S
C1476 C1471 1.363 . S
C1476 C1475 1.415 . S
C1477 H1453 0.951 . S
C1477 C1478 1.366 . S
C1477 C1479 1.388 . S
C1478 C1477 1.366 . S
C1478 C1482 1.385 . S
C1479 H1454 0.951 . S
C1479 C1477 1.388 . S
C1479 C1480 1.366 . S
C1480 C1479 1.366 . S
C1480 C1481 1.414 . S
C1480 C1483 1.499 . S
C1481 H1455 0.950 . S
C1481 C1480 1.414 . S
C1481 C1482 1.374 . S
C1482 H1456 0.950 . S
C1482 C1478 1.385 . S
C1482 C1481 1.374 . S
C1483 C1480 1.499 . S
C1483 C1484 1.373 . S
C1483 C1485 1.389 . S
C1484 H1457 0.950 . S
C1484 C1470 1.377 . S
C1484 C1483 1.373 . S
C1485 C1469 1.377 . S
C1485 C1483 1.389 . S
C1485 C1486 1.524 . S
C1486 C1485 1.524 . S
C1486 C1487 1.397 . S
C1486 C1491 1.363 . S
C1487 H1458 0.950 . S
C1487 C1486 1.397 . S
C1487 C1488 1.334 . S
C1488 H1459 0.950 . S
C1488 C1487 1.334 . S
C1488 C1489 1.287 . S
C1489 C1488 1.287 . S
C1489 C1490 1.524 . S
C1489 H1492 0.999 . S
C1490 H1460 0.950 . S
C1490 C1489 1.524 . S
C1490 C1491 1.415 . S
C1491 H1461 0.950 . S
C1491 C1486 1.363 . S
C1491 C1490 1.415 . S
H1492 C1489 0.999 . S
H1493 C1474 0.913 . S
H1494 C1512 0.951 . S
H1495 C1514 0.951 . S
H1496 C1516 0.950 . S
H1497 C1517 0.950 . S
H1498 C1519 0.950 . S
H1499 C1522 0.950 . S
H1500 C1523 0.950 . S
H1501 C1525 0.950 . S
H1502 C1526 0.950 . S
H1503 C1527 0.951 . S
H1504 C1529 0.951 . S
H1505 C1531 0.950 . S
H1506 C1532 0.950 . S
H1507 C1534 0.950 . S
H1508 C1537 0.950 . S
H1509 C1538 0.950 . S
H1510 C1540 0.950 . S
H1511 C1541 0.950 . S
C1512 H1494 0.951 . S
C1512 C1513 1.366 . S
C1512 C1514 1.388 . S
C1513 C1512 1.366 . S
C1513 C1517 1.385 . S
C1514 H1495 0.951 . S
C1514 C1512 1.388 . S
C1514 C1515 1.366 . S
C1515 C1514 1.366 . S
C1515 C1516 1.414 . S
C1515 C1518 1.499 . S
C1516 H1496 0.950 . S
C1516 C1515 1.414 . S
C1516 C1517 1.374 . S
C1517 H1497 0.950 . S
C1517 C1513 1.385 . S
C1517 C1516 1.374 . S
C1518 C1515 1.499 . S
C1518 C1519 1.373 . S
C1518 C1520 1.389 . S
C1519 H1498 0.950 . S
C1519 C1518 1.373 . S
C1519 C1535 1.377 . S
C1520 C1518 1.389 . S
C1520 C1521 1.524 . S
C1520 C1534 1.377 . S
C1521 C1520 1.524 . S
C1521 C1522 1.397 . S
C1521 C1526 1.363 . S
C1522 H1499 0.950 . S
C1522 C1521 1.397 . S
C1522 C1523 1.334 . S
C1523 H1500 0.950 . S
C1523 C1522 1.334 . S
C1523 C1524 1.287 . S
C1524 C1523 1.287 . S
C1524 C1525 1.524 . S
C1524 H1543 0.913 . S
C1525 H1501 0.950 . S
C1525 C1524 1.524 . S
C1525 C1526 1.415 . S
C1526 H1502 0.950 . S
C1526 C1521 1.363 . S
C1526 C1525 1.415 . S
C1527 H1503 0.951 . S
C1527 C1528 1.366 . S
C1527 C1529 1.388 . S
C1528 C1527 1.366 . S
C1528 C1532 1.385 . S
C1529 H1504 0.951 . S
C1529 C1527 1.388 . S
C1529 C1530 1.366 . S
C1530 C1529 1.366 . S
C1530 C1531 1.414 . S
C1530 C1533 1.499 . S
C1531 H1505 0.950 . S
C1531 C1530 1.414 . S
C1531 C1532 1.374 . S
C1532 H1506 0.950 . S
C1532 C1528 1.385 . S
C1532 C1531 1.374 . S
C1533 C1530 1.499 . S
C1533 C1534 1.373 . S
C1533 C1535 1.389 . S
C1534 H1507 0.950 . S
C1534 C1520 1.377 . S
C1534 C1533 1.373 . S
C1535 C1519 1.377 . S
C1535 C1533 1.389 . S
C1535 C1536 1.524 . S
C1536 C1535 1.524 . S
C1536 C1537 1.397 . S
C1536 C1541 1.363 . S
C1537 H1508 0.950 . S
C1537 C1536 1.397 . S
C1537 C1538 1.334 . S
C1538 H1509 0.950 . S
C1538 C1537 1.334 . S
C1538 C1539 1.287 . S
C1539 C1538 1.287 . S
C1539 C1540 1.524 . S
C1539 H1542 0.999 . S
C1540 H1510 0.950 . S
C1540 C1539 1.524 . S
C1540 C1541 1.415 . S
C1541 H1511 0.950 . S
C1541 C1536 1.363 . S
C1541 C1540 1.415 . S
H1542 C1539 0.999 . S
H1543 C1524 0.913 . S
H1544 C1562 0.951 . S
H1545 C1564 0.951 . S
H1546 C1566 0.950 . S
H1547 C1567 0.950 . S
H1548 C1569 0.950 . S
H1549 C1572 0.950 . S
H1550 C1573 0.950 . S
H1551 C1575 0.950 . S
H1552 C1576 0.950 . S
H1553 C1577 0.951 . S
H1554 C1579 0.951 . S
H1555 C1581 0.950 . S
H1556 C1582 0.950 . S
H1557 C1584 0.950 . S
H1558 C1587 0.950 . S
H1559 C1588 0.950 . S
H1560 C1590 0.950 . S
H1561 C1591 0.950 . S
C1562 H1544 0.951 . S
C1562 C1563 1.366 . S
C1562 C1564 1.388 . S
C1563 C1562 1.366 . S
C1563 C1567 1.385 . S
C1564 H1545 0.951 . S
C1564 C1562 1.388 . S
C1564 C1565 1.366 . S
C1565 C1564 1.366 . S
C1565 C1566 1.414 . S
C1565 C1568 1.499 . S
C1566 H1546 0.950 . S
C1566 C1565 1.414 . S
C1566 C1567 1.374 . S
C1567 H1547 0.950 . S
C1567 C1563 1.385 . S
C1567 C1566 1.374 . S
C1568 C1565 1.499 . S
C1568 C1569 1.373 . S
C1568 C1570 1.389 . S
C1569 H1548 0.950 . S
C1569 C1568 1.373 . S
C1569 C1585 1.377 . S
C1570 C1568 1.389 . S
C1570 C1571 1.524 . S
C1570 C1584 1.377 . S
C1571 C1570 1.524 . S
C1571 C1572 1.397 . S
C1571 C1576 1.363 . S
C1572 H1549 0.950 . S
C1572 C1571 1.397 . S
C1572 C1573 1.334 . S
C1573 H1550 0.950 . S
C1573 C1572 1.334 . S
C1573 C1574 1.287 . S
C1574 C1573 1.287 . S
C1574 C1575 1.524 . S
C1574 H1593 0.913 . S
C1575 H1551 0.950 . S
C1575 C1574 1.524 . S
C1575 C1576 1.415 . S
C1576 H1552 0.950 . S
C1576 C1571 1.363 . S
C1576 C1575 1.415 . S
C1577 H1553 0.951 . S
C1577 C1578 1.366 . S
C1577 C1579 1.388 . S
C1578 C1577 1.366 . S
C1578 C1582 1.385 . S
C1579 H1554 0.951 . S
C1579 C1577 1.388 . S
C1579 C1580 1.366 . S
C1580 C1579 1.366 . S
C1580 C1581 1.414 . S
C1580 C1583 1.499 . S
C1581 H1555 0.950 . S
C1581 C1580 1.414 . S
C1581 C1582 1.374 . S
C1582 H1556 0.950 . S
C1582 C1578 1.385 . S
C1582 C1581 1.374 . S
C1583 C1580 1.499 . S
C1583 C1584 1.373 . S
C1583 C1585 1.389 . S
C1584 H1557 0.950 . S
C1584 C1570 1.377 . S
C1584 C1583 1.373 . S
C1585 C1569 1.377 . S
C1585 C1583 1.389 . S
C1585 C1586 1.524 . S
C1586 C1585 1.524 . S
C1586 C1587 1.397 . S
C1586 C1591 1.363 . S
C1587 H1558 0.950 . S
C1587 C1586 1.397 . S
C1587 C1588 1.334 . S
C1588 H1559 0.950 . S
C1588 C1587 1.334 . S
C1588 C1589 1.287 . S
C1589 C1588 1.287 . S
C1589 C1590 1.524 . S
C1589 H1592 0.999 . S
C1590 H1560 0.950 . S
C1590 C1589 1.524 . S
C1590 C1591 1.415 . S
C1591 H1561 0.950 . S
C1591 C1586 1.363 . S
C1591 C1590 1.415 . S
H1592 C1589 0.999 . S
H1593 C1574 0.913 . S
H1594 C1612 0.951 . S
H1595 C1614 0.951 . S
H1596 C1616 0.950 . S
H1597 C1617 0.950 . S
H1598 C1619 0.950 . S
H1599 C1622 0.950 . S
H1600 C1623 0.950 . S
H1601 C1625 0.950 . S
H1602 C1626 0.950 . S
H1603 C1627 0.951 . S
H1604 C1629 0.951 . S
H1605 C1631 0.950 . S
H1606 C1632 0.950 . S
H1607 C1634 0.950 . S
H1608 C1637 0.950 . S
H1609 C1638 0.950 . S
H1610 C1640 0.950 . S
H1611 C1641 0.950 . S
C1612 H1594 0.951 . S
C1612 C1613 1.366 . S
C1612 C1614 1.388 . S
C1613 C1612 1.366 . S
C1613 C1617 1.385 . S
C1614 H1595 0.951 . S
C1614 C1612 1.388 . S
C1614 C1615 1.366 . S
C1615 C1614 1.366 . S
C1615 C1616 1.414 . S
C1615 C1618 1.499 . S
C1616 H1596 0.950 . S
C1616 C1615 1.414 . S
C1616 C1617 1.374 . S
C1617 H1597 0.950 . S
C1617 C1613 1.385 . S
C1617 C1616 1.374 . S
C1618 C1615 1.499 . S
C1618 C1619 1.373 . S
C1618 C1620 1.389 . S
C1619 H1598 0.950 . S
C1619 C1618 1.373 . S
C1619 C1635 1.377 . S
C1620 C1618 1.389 . S
C1620 C1621 1.524 . S
C1620 C1634 1.377 . S
C1621 C1620 1.524 . S
C1621 C1622 1.397 . S
C1621 C1626 1.363 . S
C1622 H1599 0.950 . S
C1622 C1621 1.397 . S
C1622 C1623 1.334 . S
C1623 H1600 0.950 . S
C1623 C1622 1.334 . S
C1623 C1624 1.287 . S
C1624 C1623 1.287 . S
C1624 C1625 1.524 . S
C1624 H1643 0.913 . S
C1625 H1601 0.950 . S
C1625 C1624 1.524 . S
C1625 C1626 1.415 . S
C1626 H1602 0.950 . S
C1626 C1621 1.363 . S
C1626 C1625 1.415 . S
C1627 H1603 0.951 . S
C1627 C1628 1.366 . S
C1627 C1629 1.388 . S
C1628 C1627 1.366 . S
C1628 C1632 1.385 . S
C1629 H1604 0.951 . S
C1629 C1627 1.388 . S
C1629 C1630 1.366 . S
C1630 C1629 1.366 . S
C1630 C1631 1.414 . S
C1630 C1633 1.499 . S
C1631 H1605 0.950 . S
C1631 C1630 1.414 . S
C1631 C1632 1.374 . S
C1632 H1606 0.950 . S
C1632 C1628 1.385 . S
C1632 C1631 1.374 . S
C1633 C1630 1.499 . S
C1633 C1634 1.373 . S
C1633 C1635 1.389 . S
C1634 H1607 0.950 . S
C1634 C1620 1.377 . S
C1634 C1633 1.373 . S
C1635 C1619 1.377 . S
C1635 C1633 1.389 . S
C1635 C1636 1.524 . S
C1636 C1635 1.524 . S
C1636 C1637 1.397 . S
C1636 C1641 1.363 . S
C1637 H1608 0.950 . S
C1637 C1636 1.397 . S
C1637 C1638 1.334 . S
C1638 H1609 0.950 . S
C1638 C1637 1.334 . S
C1638 C1639 1.287 . S
C1639 C1638 1.287 . S
C1639 C1640 1.524 . S
C1639 H1642 0.999 . S
C1640 H1610 0.950 . S
C1640 C1639 1.524 . S
C1640 C1641 1.415 . S
C1641 H1611 0.950 . S
C1641 C1636 1.363 . S
C1641 C1640 1.415 . S
H1642 C1639 0.999 . S
H1643 C1624 0.913 . S
H1644 C1662 0.951 . S
H1645 C1664 0.951 . S
H1646 C1666 0.950 . S
H1647 C1667 0.950 . S
H1648 C1669 0.950 . S
H1649 C1672 0.950 . S
H1650 C1673 0.950 . S
H1651 C1675 0.950 . S
H1652 C1676 0.950 . S
H1653 C1677 0.951 . S
H1654 C1679 0.951 . S
H1655 C1681 0.950 . S
H1656 C1682 0.950 . S
H1657 C1684 0.950 . S
H1658 C1687 0.950 . S
H1659 C1688 0.950 . S
H1660 C1690 0.950 . S
H1661 C1691 0.950 . S
C1662 H1644 0.951 . S
C1662 C1663 1.366 . S
C1662 C1664 1.388 . S
C1663 C1662 1.366 . S
C1663 C1667 1.385 . S
C1664 H1645 0.951 . S
C1664 C1662 1.388 . S
C1664 C1665 1.366 . S
C1665 C1664 1.366 . S
C1665 C1666 1.414 . S
C1665 C1668 1.499 . S
C1666 H1646 0.950 . S
C1666 C1665 1.414 . S
C1666 C1667 1.374 . S
C1667 H1647 0.950 . S
C1667 C1663 1.385 . S
C1667 C1666 1.374 . S
C1668 C1665 1.499 . S
C1668 C1669 1.373 . S
C1668 C1670 1.389 . S
C1669 H1648 0.950 . S
C1669 C1668 1.373 . S
C1669 C1685 1.377 . S
C1670 C1668 1.389 . S
C1670 C1671 1.524 . S
C1670 C1684 1.377 . S
C1671 C1670 1.524 . S
C1671 C1672 1.397 . S
C1671 C1676 1.363 . S
C1672 H1649 0.950 . S
C1672 C1671 1.397 . S
C1672 C1673 1.334 . S
C1673 H1650 0.950 . S
C1673 C1672 1.334 . S
C1673 C1674 1.287 . S
C1674 C1673 1.287 . S
C1674 C1675 1.524 . S
C1674 H1693 0.913 . S
C1675 H1651 0.950 . S
C1675 C1674 1.524 . S
C1675 C1676 1.415 . S
C1676 H1652 0.950 . S
C1676 C1671 1.363 . S
C1676 C1675 1.415 . S
C1677 H1653 0.951 . S
C1677 C1678 1.366 . S
C1677 C1679 1.388 . S
C1678 C1677 1.366 . S
C1678 C1682 1.385 . S
C1679 H1654 0.951 . S
C1679 C1677 1.388 . S
C1679 C1680 1.366 . S
C1680 C1679 1.366 . S
C1680 C1681 1.414 . S
C1680 C1683 1.499 . S
C1681 H1655 0.950 . S
C1681 C1680 1.414 . S
C1681 C1682 1.374 . S
C1682 H1656 0.950 . S
C1682 C1678 1.385 . S
C1682 C1681 1.374 . S
C1683 C1680 1.499 . S
C1683 C1684 1.373 . S
C1683 C1685 1.389 . S
C1684 H1657 0.950 . S
C1684 C1670 1.377 . S
C1684 C1683 1.373 . S
C1685 C1669 1.377 . S
C1685 C1683 1.389 . S
C1685 C1686 1.524 . S
C1686 C1685 1.524 . S
C1686 C1687 1.397 . S
C1686 C1691 1.363 . S
C1687 H1658 0.950 . S
C1687 C1686 1.397 . S
C1687 C1688 1.334 . S
C1688 H1659 0.950 . S
C1688 C1687 1.334 . S
C1688 C1689 1.287 . S
C1689 C1688 1.287 . S
C1689 C1690 1.524 . S
C1689 H1692 0.999 . S
C1690 H1660 0.950 . S
C1690 C1689 1.524 . S
C1690 C1691 1.415 . S
C1691 H1661 0.950 . S
C1691 C1686 1.363 . S
C1691 C1690 1.415 . S
H1692 C1689 0.999 . S
H1693 C1674 0.913 . S
H1694 C1712 0.951 . S
H1695 C1714 0.951 . S
H1696 C1716 0.950 . S
H1697 C1717 0.950 . S
H1698 C1719 0.950 . S
H1699 C1722 0.950 . S
H1700 C1723 0.950 . S
H1701 C1725 0.950 . S
H1702 C1726 0.950 . S
H1703 C1727 0.951 . S
H1704 C1729 0.951 . S
H1705 C1731 0.950 . S
H1706 C1732 0.950 . S
H1707 C1734 0.950 . S
H1708 C1737 0.950 . S
H1709 C1738 0.950 . S
H1710 C1740 0.950 . S
H1711 C1741 0.950 . S
C1712 H1694 0.951 . S
C1712 C1713 1.366 . S
C1712 C1714 1.388 . S
C1713 C1712 1.366 . S
C1713 C1717 1.385 . S
C1714 H1695 0.951 . S
C1714 C1712 1.388 . S
C1714 C1715 1.366 . S
C1715 C1714 1.366 . S
C1715 C1716 1.414 . S
C1715 C1718 1.499 . S
C1716 H1696 0.950 . S
C1716 C1715 1.414 . S
C1716 C1717 1.374 . S
C1717 H1697 0.950 . S
C1717 C1713 1.385 . S
C1717 C1716 1.374 . S
C1718 C1715 1.499 . S
C1718 C1719 1.373 . S
C1718 C1720 1.389 . S
C1719 H1698 0.950 . S
C1719 C1718 1.373 . S
C1719 C1735 1.377 . S
C1720 C1718 1.389 . S
C1720 C1721 1.524 . S
C1720 C1734 1.377 . S
C1721 C1720 1.524 . S
C1721 C1722 1.397 . S
C1721 C1726 1.363 . S
C1722 H1699 0.950 . S
C1722 C1721 1.397 . S
C1722 C1723 1.334 . S
C1723 H1700 0.950 . S
C1723 C1722 1.334 . S
C1723 C1724 1.287 . S
C1724 C1723 1.287 . S
C1724 C1725 1.524 . S
C1724 H1743 0.913 . S
C1725 H1701 0.950 . S
C1725 C1724 1.524 . S
C1725 C1726 1.415 . S
C1726 H1702 0.950 . S
C1726 C1721 1.363 . S
C1726 C1725 1.415 . S
C1727 H1703 0.951 . S
C1727 C1728 1.366 . S
C1727 C1729 1.388 . S
C1728 C1727 1.366 . S
C1728 C1732 1.385 . S
C1729 H1704 0.951 . S
C1729 C1727 1.388 . S
C1729 C1730 1.366 . S
C1730 C1729 1.366 . S
C1730 C1731 1.414 . S
C1730 C1733 1.499 . S
C1731 H1705 0.950 . S
C1731 C1730 1.414 . S
C1731 C1732 1.374 . S
C1732 H1706 0.950 . S
C1732 C1728 1.385 . S
C1732 C1731 1.374 . S
C1733 C1730 1.499 . S
C1733 C1734 1.373 . S
C1733 C1735 1.389 . S
C1734 H1707 0.950 . S
C1734 C1720 1.377 . S
C1734 C1733 1.373 . S
C1735 C1719 1.377 . S
C1735 C1733 1.389 . S
C1735 C1736 1.524 . S
C1736 C1735 1.524 . S
C1736 C1737 1.397 . S
C1736 C1741 1.363 . S
C1737 H1708 0.950 . S
C1737 C1736 1.397 . S
C1737 C1738 1.334 . S
C1738 H1709 0.950 . S
C1738 C1737 1.334 . S
C1738 C1739 1.287 . S
C1739 C1738 1.287 . S
C1739 C1740 1.524 . S
C1739 H1742 0.999 . S
C1740 H1710 0.950 . S
C1740 C1739 1.524 . S
C1740 C1741 1.415 . S
C1741 H1711 0.950 . S
C1741 C1736 1.363 . S
C1741 C1740 1.415 . S
H1742 C1739 0.999 . S
H1743 C1724 0.913 . S
H1744 C1762 0.951 . S
H1745 C1764 0.951 . S
H1746 C1766 0.950 . S
H1747 C1767 0.950 . S
H1748 C1769 0.950 . S
H1749 C1772 0.950 . S
H1750 C1773 0.950 . S
H1751 C1775 0.950 . S
H1752 C1776 0.950 . S
H1753 C1777 0.951 . S
H1754 C1779 0.951 . S
H1755 C1781 0.950 . S
H1756 C1782 0.950 . S
H1757 C1784 0.950 . S
H1758 C1787 0.950 . S
H1759 C1788 0.950 . S
H1760 C1790 0.950 . S
H1761 C1791 0.950 . S
C1762 H1744 0.951 . S
C1762 C1763 1.366 . S
C1762 C1764 1.388 . S
C1763 C1762 1.366 . S
C1763 C1767 1.385 . S
C1764 H1745 0.951 . S
C1764 C1762 1.388 . S
C1764 C1765 1.366 . S
C1765 C1764 1.366 . S
C1765 C1766 1.414 . S
C1765 C1768 1.499 . S
C1766 H1746 0.950 . S
C1766 C1765 1.414 . S
C1766 C1767 1.374 . S
C1767 H1747 0.950 . S
C1767 C1763 1.385 . S
C1767 C1766 1.374 . S
C1768 C1765 1.499 . S
C1768 C1769 1.373 . S
C1768 C1770 1.389 . S
C1769 H1748 0.950 . S
C1769 C1768 1.373 . S
C1769 C1785 1.377 . S
C1770 C1768 1.389 . S
C1770 C1771 1.524 . S
C1770 C1784 1.377 . S
C1771 C1770 1.524 . S
C1771 C1772 1.397 . S
C1771 C1776 1.363 . S
C1772 H1749 0.950 . S
C1772 C1771 1.397 . S
C1772 C1773 1.334 . S
C1773 H1750 0.950 . S
C1773 C1772 1.334 . S
C1773 C1774 1.287 . S
C1774 C1773 1.287 . S
C1774 C1775 1.524 . S
C1774 H1793 0.913 . S
C1775 H1751 0.950 . S
C1775 C1774 1.524 . S
C1775 C1776 1.415 . S
C1776 H1752 0.950 . S
C1776 C1771 1.363 . S
C1776 C1775 1.415 . S
C1777 H1753 0.951 . S
C1777 C1778 1.366 . S
C1777 C1779 1.388 . S
C1778 C1777 1.366 . S
C1778 C1782 1.385 . S
C1779 H1754 0.951 . S
C1779 C1777 1.388 . S
C1779 C1780 1.366 . S
C1780 C1779 1.366 . S
C1780 C1781 1.414 . S
C1780 C1783 1.499 . S
C1781 H1755 0.950 . S
C1781 C1780 1.414 . S
C1781 C1782 1.374 . S
C1782 H1756 0.950 . S
C1782 C1778 1.385 . S
C1782 C1781 1.374 . S
C1783 C1780 1.499 . S
C1783 C1784 1.373 . S
C1783 C1785 1.389 . S
C1784 H1757 0.950 . S
C1784 C1770 1.377 . S
C1784 C1783 1.373 . S
C1785 C1769 1.377 . S
C1785 C1783 1.389 . S
C1785 C1786 1.524 . S
C1786 C1785 1.524 . S
C1786 C1787 1.397 . S
C1786 C1791 1.363 . S
C1787 H1758 0.950 . S
C1787 C1786 1.397 . S
C1787 C1788 1.334 . S
C1788 H1759 0.950 . S
C1788 C1787 1.334 . S
C1788 C1789 1.287 . S
C1789 C1788 1.287 . S
C1789 C1790 1.524 . S
C1789 H1792 0.999 . S
C1790 H1760 0.950 . S
C1790 C1789 1.524 . S
C1790 C1791 1.415 . S
C1791 H1761 0.950 . S
C1791 C1786 1.363 . S
C1791 C1790 1.415 . S
H1792 C1789 0.999 . S
H1793 C1774 0.913 . S
H1794 C1812 0.951 . S
H1795 C1814 0.951 . S
H1796 C1816 0.950 . S
H1797 C1817 0.950 . S
H1798 C1819 0.950 . S
H1799 C1822 0.950 . S
H1800 C1823 0.950 . S
H1801 C1825 0.950 . S
H1802 C1826 0.950 . S
H1803 C1827 0.951 . S
H1804 C1829 0.951 . S
H1805 C1831 0.950 . S
H1806 C1832 0.950 . S
H1807 C1834 0.950 . S
H1808 C1837 0.950 . S
H1809 C1838 0.950 . S
H1810 C1840 0.950 . S
H1811 C1841 0.950 . S
C1812 H1794 0.951 . S
C1812 C1813 1.366 . S
C1812 C1814 1.388 . S
C1813 C1812 1.366 . S
C1813 C1817 1.385 . S
C1814 H1795 0.951 . S
C1814 C1812 1.388 . S
C1814 C1815 1.366 . S
C1815 C1814 1.366 . S
C1815 C1816 1.414 . S
C1815 C1818 1.499 . S
C1816 H1796 0.950 . S
C1816 C1815 1.414 . S
C1816 C1817 1.374 . S
C1817 H1797 0.950 . S
C1817 C1813 1.385 . S
C1817 C1816 1.374 . S
C1818 C1815 1.499 . S
C1818 C1819 1.373 . S
C1818 C1820 1.389 . S
C1819 H1798 0.950 . S
C1819 C1818 1.373 . S
C1819 C1835 1.377 . S
C1820 C1818 1.389 . S
C1820 C1821 1.524 . S
C1820 C1834 1.377 . S
C1821 C1820 1.524 . S
C1821 C1822 1.397 . S
C1821 C1826 1.363 . S
C1822 H1799 0.950 . S
C1822 C1821 1.397 . S
C1822 C1823 1.334 . S
C1823 H1800 0.950 . S
C1823 C1822 1.334 . S
C1823 C1824 1.287 . S
C1824 C1823 1.287 . S
C1824 C1825 1.524 . S
C1824 H1843 0.913 . S
C1825 H1801 0.950 . S
C1825 C1824 1.524 . S
C1825 C1826 1.415 . S
C1826 H1802 0.950 . S
C1826 C1821 1.363 . S
C1826 C1825 1.415 . S
C1827 H1803 0.951 . S
C1827 C1828 1.366 . S
C1827 C1829 1.388 . S
C1828 C1827 1.366 . S
C1828 C1832 1.385 . S
C1829 H1804 0.951 . S
C1829 C1827 1.388 . S
C1829 C1830 1.366 . S
C1830 C1829 1.366 . S
C1830 C1831 1.414 . S
C1830 C1833 1.499 . S
C1831 H1805 0.950 . S
C1831 C1830 1.414 . S
C1831 C1832 1.374 . S
C1832 H1806 0.950 . S
C1832 C1828 1.385 . S
C1832 C1831 1.374 . S
C1833 C1830 1.499 . S
C1833 C1834 1.373 . S
C1833 C1835 1.389 . S
C1834 H1807 0.950 . S
C1834 C1820 1.377 . S
C1834 C1833 1.373 . S
C1835 C1819 1.377 . S
C1835 C1833 1.389 . S
C1835 C1836 1.524 . S
C1836 C1835 1.524 . S
C1836 C1837 1.397 . S
C1836 C1841 1.363 . S
C1837 H1808 0.950 . S
C1837 C1836 1.397 . S
C1837 C1838 1.334 . S
C1838 H1809 0.950 . S
C1838 C1837 1.334 . S
C1838 C1839 1.287 . S
C1839 C1838 1.287 . S
C1839 C1840 1.524 . S
C1839 H1842 0.999 . S
C1840 H1810 0.950 . S
C1840 C1839 1.524 . S
C1840 C1841 1.415 . S
C1841 H1811 0.950 . S
C1841 C1836 1.363 . S
C1841 C1840 1.415 . S
H1842 C1839 0.999 . S
H1843 C1824 0.913 . S
H1844 C1862 0.951 . S
H1845 C1864 0.951 . S
H1846 C1866 0.950 . S
H1847 C1867 0.950 . S
H1848 C1869 0.950 . S
H1849 C1872 0.950 . S
H1850 C1873 0.950 . S
H1851 C1875 0.950 . S
H1852 C1876 0.950 . S
H1853 C1877 0.951 . S
H1854 C1879 0.951 . S
H1855 C1881 0.950 . S
H1856 C1882 0.950 . S
H1857 C1884 0.950 . S
H1858 C1887 0.950 . S
H1859 C1888 0.950 . S
H1860 C1890 0.950 . S
H1861 C1891 0.950 . S
C1862 H1844 0.951 . S
C1862 C1863 1.366 . S
C1862 C1864 1.388 . S
C1863 C1862 1.366 . S
C1863 C1867 1.385 . S
C1864 H1845 0.951 . S
C1864 C1862 1.388 . S
C1864 C1865 1.366 . S
C1865 C1864 1.366 . S
C1865 C1866 1.414 . S
C1865 C1868 1.499 . S
C1866 H1846 0.950 . S
C1866 C1865 1.414 . S
C1866 C1867 1.374 . S
C1867 H1847 0.950 . S
C1867 C1863 1.385 . S
C1867 C1866 1.374 . S
C1868 C1865 1.499 . S
C1868 C1869 1.373 . S
C1868 C1870 1.389 . S
C1869 H1848 0.950 . S
C1869 C1868 1.373 . S
C1869 C1885 1.377 . S
C1870 C1868 1.389 . S
C1870 C1871 1.524 . S
C1870 C1884 1.377 . S
C1871 C1870 1.524 . S
C1871 C1872 1.397 . S
C1871 C1876 1.363 . S
C1872 H1849 0.950 . S
C1872 C1871 1.397 . S
C1872 C1873 1.334 . S
C1873 H1850 0.950 . S
C1873 C1872 1.334 . S
C1873 C1874 1.287 . S
C1874 C1873 1.287 . S
C1874 C1875 1.524 . S
C1874 H1893 0.913 . S
C1875 H1851 0.950 . S
C1875 C1874 1.524 . S
C1875 C1876 1.415 . S
C1876 H1852 0.950 . S
C1876 C1871 1.363 . S
C1876 C1875 1.415 . S
C1877 H1853 0.951 . S
C1877 C1878 1.366 . S
C1877 C1879 1.388 . S
C1878 C1877 1.366 . S
C1878 C1882 1.385 . S
C1879 H1854 0.951 . S
C1879 C1877 1.388 . S
C1879 C1880 1.366 . S
C1880 C1879 1.366 . S
C1880 C1881 1.414 . S
C1880 C1883 1.499 . S
C1881 H1855 0.950 . S
C1881 C1880 1.414 . S
C1881 C1882 1.374 . S
C1882 H1856 0.950 . S
C1882 C1878 1.385 . S
C1882 C1881 1.374 . S
C1883 C1880 1.499 . S
C1883 C1884 1.373 . S
C1883 C1885 1.389 . S
C1884 H1857 0.950 . S
C1884 C1870 1.377 . S
C1884 C1883 1.373 . S
C1885 C1869 1.377 . S
C1885 C1883 1.389 . S
C1885 C1886 1.524 . S
C1886 C1885 1.524 . S
C1886 C1887 1.397 . S
C1886 C1891 1.363 . S
C1887 H1858 0.950 . S
C1887 C1886 1.397 . S
C1887 C1888 1.334 . S
C1888 H1859 0.950 . S
C1888 C1887 1.334 . S
C1888 C1889 1.287 . S
C1889 C1888 1.287 . S
C1889 C1890 1.524 . S
C1889 H1892 0.999 . S
C1890 H1860 0.950 . S
C1890 C1889 1.524 . S
C1890 C1891 1.415 . S
C1891 H1861 0.950 . S
C1891 C1886 1.363 . S
C1891 C1890 1.415 . S
H1892 C1889 0.999 . S
H1893 C1874 0.913 . S
H1894 C1912 0.951 . S
H1895 C1914 0.951 . S
H1896 C1916 0.950 . S
H1897 C1917 0.950 . S
H1898 C1919 0.950 . S
H1899 C1922 0.950 . S
H1900 C1923 0.950 . S
H1901 C1925 0.950 . S
H1902 C1926 0.950 . S
H1903 C1927 0.951 . S
H1904 C1929 0.951 . S
H1905 C1931 0.950 . S
H1906 C1932 0.950 . S
H1907 C1934 0.950 . S
H1908 C1937 0.950 . S
H1909 C1938 0.950 . S
H1910 C1940 0.950 . S
H1911 C1941 0.950 . S
C1912 H1894 0.951 . S
C1912 C1913 1.366 . S
C1912 C1914 1.388 . S
C1913 C1912 1.366 . S
C1913 C1917 1.385 . S
C1914 H1895 0.951 . S
C1914 C1912 1.388 . S
C1914 C1915 1.366 . S
C1915 C1914 1.366 . S
C1915 C1916 1.414 . S
C1915 C1918 1.499 . S
C1916 H1896 0.950 . S
C1916 C1915 1.414 . S
C1916 C1917 1.374 . S
C1917 H1897 0.950 . S
C1917 C1913 1.385 . S
C1917 C1916 1.374 . S
C1918 C1915 1.499 . S
C1918 C1919 1.373 . S
C1918 C1920 1.389 . S
C1919 H1898 0.950 . S
C1919 C1918 1.373 . S
C1919 C1935 1.377 . S
C1920 C1918 1.389 . S
C1920 C1921 1.524 . S
C1920 C1934 1.377 . S
C1921 C1920 1.524 . S
C1921 C1922 1.397 . S
C1921 C1926 1.363 . S
C1922 H1899 0.950 . S
C1922 C1921 1.397 . S
C1922 C1923 1.334 . S
C1923 H1900 0.950 . S
C1923 C1922 1.334 . S
C1923 C1924 1.287 . S
C1924 C1923 1.287 . S
C1924 C1925 1.524 . S
C1924 H1943 0.913 . S
C1925 H1901 0.950 . S
C1925 C1924 1.524 . S
C1925 C1926 1.415 . S
C1926 H1902 0.950 . S
C1926 C1921 1.363 . S
C1926 C1925 1.415 . S
C1927 H1903 0.951 . S
C1927 C1928 1.366 . S
C1927 C1929 1.388 . S
C1928 C1927 1.366 . S
C1928 C1932 1.385 . S
C1929 H1904 0.951 . S
C1929 C1927 1.388 . S
C1929 C1930 1.366 . S
C1930 C1929 1.366 . S
C1930 C1931 1.414 . S
C1930 C1933 1.499 . S
C1931 H1905 0.950 . S
C1931 C1930 1.414 . S
C1931 C1932 1.374 . S
C1932 H1906 0.950 . S
C1932 C1928 1.385 . S
C1932 C1931 1.374 . S
C1933 C1930 1.499 . S
C1933 C1934 1.373 . S
C1933 C1935 1.389 . S
C1934 H1907 0.950 . S
C1934 C1920 1.377 . S
C1934 C1933 1.373 . S
C1935 C1919 1.377 . S
C1935 C1933 1.389 . S
C1935 C1936 1.524 . S
C1936 C1935 1.524 . S
C1936 C1937 1.397 . S
C1936 C1941 1.363 . S
C1937 H1908 0.950 . S
C1937 C1936 1.397 . S
C1937 C1938 1.334 . S
C1938 H1909 0.950 . S
C1938 C1937 1.334 . S
C1938 C1939 1.287 . S
C1939 C1938 1.287 . S
C1939 C1940 1.524 . S
C1939 H1942 0.999 . S
C1940 H1910 0.950 . S
C1940 C1939 1.524 . S
C1940 C1941 1.415 . S
C1941 H1911 0.950 . S
C1941 C1936 1.363 . S
C1941 C1940 1.415 . S
H1942 C1939 0.999 . S
H1943 C1924 0.913 . S
H1944 C1962 0.951 . S
H1945 C1964 0.951 . S
H1946 C1966 0.950 . S
H1947 C1967 0.950 . S
H1948 C1969 0.950 . S
H1949 C1972 0.950 . S
H1950 C1973 0.950 . S
H1951 C1975 0.950 . S
H1952 C1976 0.950 . S
H1953 C1977 0.951 . S
H1954 C1979 0.951 . S
H1955 C1981 0.950 . S
H1956 C1982 0.950 . S
H1957 C1984 0.950 . S
H1958 C1987 0.950 . S
H1959 C1988 0.950 . S
H1960 C1990 0.950 . S
H1961 C1991 0.950 . S
C1962 H1944 0.951 . S
C1962 C1963 1.366 . S
C1962 C1964 1.388 . S
C1963 C1962 1.366 . S
C1963 C1967 1.385 . S
C1964 H1945 0.951 . S
C1964 C1962 1.388 . S
C1964 C1965 1.366 . S
C1965 C1964 1.366 . S
C1965 C1966 1.414 . S
C1965 C1968 1.499 . S
C1966 H1946 0.950 . S
C1966 C1965 1.414 . S
C1966 C1967 1.374 . S
C1967 H1947 0.950 . S
C1967 C1963 1.385 . S
C1967 C1966 1.374 . S
C1968 C1965 1.499 . S
C1968 C1969 1.373 . S
C1968 C1970 1.389 . S
C1969 H1948 0.950 . S
C1969 C1968 1.373 . S
C1969 C1985 1.377 . S
C1970 C1968 1.389 . S
C1970 C1971 1.524 . S
C1970 C1984 1.377 . S
C1971 C1970 1.524 . S
C1971 C1972 1.397 . S
C1971 C1976 1.363 . S
C1972 H1949 0.950 . S
C1972 C1971 1.397 . S
C1972 C1973 1.334 . S
C1973 H1950 0.950 . S
C1973 C1972 1.334 . S
C1973 C1974 1.287 . S
C1974 C1973 1.287 . S
C1974 C1975 1.524 . S
C1974 H1993 0.913 . S
C1975 H1951 0.950 . S
C1975 C1974 1.524 . S
C1975 C1976 1.415 . S
C1976 H1952 0.950 . S
C1976 C1971 1.363 . S
C1976 C1975 1.415 . S
C1977 H1953 0.951 . S
C1977 C1978 1.366 . S
C1977 C1979 1.388 . S
C1978 C1977 1.366 . S
C1978 C1982 1.385 . S
C1979 H1954 0.951 . S
C1979 C1977 1.388 . S
C1979 C1980 1.366 . S
C1980 C1979 1.366 . S
C1980 C1981 1.414 . S
C1980 C1983 1.499 . S
C1981 H1955 0.950 . S
C1981 C1980 1.414 . S
C1981 C1982 1.374 . S
C1982 H1956 0.950 . S
C1982 C1978 1.385 . S
C1982 C1981 1.374 . S
C1983 C1980 1.499 . S
C1983 C1984 1.373 . S
C1983 C1985 1.389 . S
C1984 H1957 0.950 . S
C1984 C1970 1.377 . S
C1984 C1983 1.373 . S
C1985 C1969 1.377 . S
C1985 C1983 1.389 . S
C1985 C1986 1.524 . S
C1986 C1985 1.524 . S
C1986 C1987 1.397 . S
C1986 C1991 1.363 . S
C1987 H1958 0.950 . S
C1987 C1986 1.397 . S
C1987 C1988 1.334 . S
C1988 H1959 0.950 . S
C1988 C1987 1.334 . S
C1988 C1989 1.287 . S
C1989 C1988 1.287 . S
C1989 C1990 1.524 . S
C1989 H1992 0.999 . S
C1990 H1960 0.950 . S
C1990 C1989 1.524 . S
C1990 C1991 1.415 . S
C1991 H1961 0.950 . S
C1991 C1986 1.363 . S
C1991 C1990 1.415 . S
H1992 C1989 0.999 . S
H1993 C1974 0.913 . S
H1994 C2012 0.951 . S
H1995 C2014 0.951 . S
H1996 C2016 0.950 . S
H1997 C2017 0.950 . S
H1998 C2019 0.950 . S
H1999 C2022 0.950 . S
H2000 C2023 0.950 . S
H2001 C2025 0.950 . S
H2002 C2026 0.950 . S
H2003 C2027 0.951 . S
H2004 C2029 0.951 . S
H2005 C2031 0.950 . S
H2006 C2032 0.950 . S
H2007 C2034 0.950 . S
H2008 C2037 0.950 . S
H2009 C2038 0.950 . S
H2010 C2040 0.950 . S
H2011 C2041 0.950 . S
C2012 H1994 0.951 . S
C2012 C2013 1.366 . S
C2012 C2014 1.388 . S
C2013 C2012 1.366 . S
C2013 C2017 1.385 . S
C2014 H1995 0.951 . S
C2014 C2012 1.388 . S
C2014 C2015 1.366 . S
C2015 C2014 1.366 . S
C2015 C2016 1.414 . S
C2015 C2018 1.499 . S
C2016 H1996 0.950 . S
C2016 C2015 1.414 . S
C2016 C2017 1.374 . S
C2017 H1997 0.950 . S
C2017 C2013 1.385 . S
C2017 C2016 1.374 . S
C2018 C2015 1.499 . S
C2018 C2019 1.373 . S
C2018 C2020 1.389 . S
C2019 H1998 0.950 . S
C2019 C2018 1.373 . S
C2019 C2035 1.377 . S
C2020 C2018 1.389 . S
C2020 C2021 1.524 . S
C2020 C2034 1.377 . S
C2021 C2020 1.524 . S
C2021 C2022 1.397 . S
C2021 C2026 1.363 . S
C2022 H1999 0.950 . S
C2022 C2021 1.397 . S
C2022 C2023 1.334 . S
C2023 H2000 0.950 . S
C2023 C2022 1.334 . S
C2023 C2024 1.287 . S
C2024 C2023 1.287 . S
C2024 C2025 1.524 . S
C2024 H2043 0.913 . S
C2025 H2001 0.950 . S
C2025 C2024 1.524 . S
C2025 C2026 1.415 . S
C2026 H2002 0.950 . S
C2026 C2021 1.363 . S
C2026 C2025 1.415 . S
C2027 H2003 0.951 . S
C2027 C2028 1.366 . S
C2027 C2029 1.388 . S
C2028 C2027 1.366 . S
C2028 C2032 1.385 . S
C2029 H2004 0.951 . S
C2029 C2027 1.388 . S
C2029 C2030 1.366 . S
C2030 C2029 1.366 . S
C2030 C2031 1.414 . S
C2030 C2033 1.499 . S
C2031 H2005 0.950 . S
C2031 C2030 1.414 . S
C2031 C2032 1.374 . S
C2032 H2006 0.950 . S
C2032 C2028 1.385 . S
C2032 C2031 1.374 . S
C2033 C2030 1.499 . S
C2033 C2034 1.373 . S
C2033 C2035 1.389 . S
C2034 H2007 0.950 . S
C2034 C2020 1.377 . S
C2034 C2033 1.373 . S
C2035 C2019 1.377 . S
C2035 C2033 1.389 . S
C2035 C2036 1.524 . S
C2036 C2035 1.524 . S
C2036 C2037 1.397 . S
C2036 C2041 1.363 . S
C2037 H2008 0.950 . S
C2037 C2036 1.397 . S
C2037 C2038 1.334 . S
C2038 H2009 0.950 . S
C2038 C2037 1.334 . S
C2038 C2039 1.287 . S
C2039 C2038 1.287 . S
C2039 C2040 1.524 . S
C2039 H2042 0.999 . S
C2040 H2010 0.950 . S
C2040 C2039 1.524 . S
C2040 C2041 1.415 . S
C2041 H2011 0.950 . S
C2041 C2036 1.363 . S
C2041 C2040 1.415 . S
H2042 C2039 0.999 . S
H2043 C2024 0.913 . S
H2044 C2062 0.951 . S
H2045 C2064 0.951 . S
H2046 C2066 0.950 . S
H2047 C2067 0.950 . S
H2048 C2069 0.950 . S
H2049 C2072 0.950 . S
H2050 C2073 0.950 . S
H2051 C2075 0.950 . S
H2052 C2076 0.950 . S
H2053 C2077 0.951 . S
H2054 C2079 0.951 . S
H2055 C2081 0.950 . S
H2056 C2082 0.950 . S
H2057 C2084 0.950 . S
H2058 C2087 0.950 . S
H2059 C2088 0.950 . S
H2060 C2090 0.950 . S
H2061 C2091 0.950 . S
C2062 H2044 0.951 . S
C2062 C2063 1.366 . S
C2062 C2064 1.388 . S
C2063 C2062 1.366 . S
C2063 C2067 1.385 . S
C2064 H2045 0.951 . S
C2064 C2062 1.388 . S
C2064 C2065 1.366 . S
C2065 C2064 1.366 . S
C2065 C2066 1.414 . S
C2065 C2068 1.499 . S
C2066 H2046 0.950 . S
C2066 C2065 1.414 . S
C2066 C2067 1.374 . S
C2067 H2047 0.950 . S
C2067 C2063 1.385 . S
C2067 C2066 1.374 . S
C2068 C2065 1.499 . S
C2068 C2069 1.373 . S
C2068 C2070 1.389 . S
C2069 H2048 0.950 . S
C2069 C2068 1.373 . S
C2069 C2085 1.377 . S
C2070 C2068 1.389 . S
C2070 C2071 1.524 . S
C2070 C2084 1.377 . S
C2071 C2070 1.524 . S
C2071 C2072 1.397 . S
C2071 C2076 1.363 . S
C2072 H2049 0.950 . S
C2072 C2071 1.397 . S
C2072 C2073 1.334 . S
C2073 H2050 0.950 . S
C2073 C2072 1.334 . S
C2073 C2074 1.287 . S
C2074 C2073 1.287 . S
C2074 C2075 1.524 . S
C2074 H2093 0.913 . S
C2075 H2051 0.950 . S
C2075 C2074 1.524 . S
C2075 C2076 1.415 . S
C2076 H2052 0.950 . S
C2076 C2071 1.363 . S
C2076 C2075 1.415 . S
C2077 H2053 0.951 . S
C2077 C2078 1.366 . S
C2077 C2079 1.388 . S
C2078 C2077 1.366 . S
C2078 C2082 1.385 . S
C2079 H2054 0.951 . S
C2079 C2077 1.388 . S
C2079 C2080 1.366 . S
C2080 C2079 1.366 . S
C2080 C2081 1.414 . S
C2080 C2083 1.499 . S
C2081 H2055 0.950 . S
C2081 C2080 1.414 . S
C2081 C2082 1.374 . S
C2082 H2056 0.950 . S
C2082 C2078 1.385 . S
C2082 C2081 1.374 . S
C2083 C2080 1.499 . S
C2083 C2084 1.373 . S
C2083 C2085 1.389 . S
C2084 H2057 0.950 . S
C2084 C2070 1.377 . S
C2084 C2083 1.373 . S
C2085 C2069 1.377 . S
C2085 C2083 1.389 . S
C2085 C2086 1.524 . S
C2086 C2085 1.524 . S
C2086 C2087 1.397 . S
C2086 C2091 1.363 . S
C2087 H2058 0.950 . S
C2087 C2086 1.397 . S
C2087 C2088 1.334 . S
C2088 H2059 0.950 . S
C2088 C2087 1.334 . S
C2088 C2089 1.287 . S
C2089 C2088 1.287 . S
C2089 C2090 1.524 . S
C2089 H2092 0.999 . S
C2090 H2060 0.950 . S
C2090 C2089 1.524 . S
C2090 C2091 1.415 . S
C2091 H2061 0.950 . S
C2091 C2086 1.363 . S
C2091 C2090 1.415 . S
H2092 C2089 0.999 . S
H2093 C2074 0.913 . S
H2094 C2112 0.951 . S
H2095 C2114 0.951 . S
H2096 C2116 0.950 . S
H2097 C2117 0.950 . S
H2098 C2119 0.950 . S
H2099 C2122 0.950 . S
H2100 C2123 0.950 . S
H2101 C2125 0.950 . S
H2102 C2126 0.950 . S
H2103 C2127 0.951 . S
H2104 C2129 0.951 . S
H2105 C2131 0.950 . S
H2106 C2132 0.950 . S
H2107 C2134 0.950 . S
H2108 C2137 0.950 . S
H2109 C2138 0.950 . S
H2110 C2140 0.950 . S
H2111 C2141 0.950 . S
C2112 H2094 0.951 . S
C2112 C2113 1.366 . S
C2112 C2114 1.388 . S
C2113 C2112 1.366 . S
C2113 C2117 1.385 . S
C2114 H2095 0.951 . S
C2114 C2112 1.388 . S
C2114 C2115 1.366 . S
C2115 C2114 1.366 . S
C2115 C2116 1.414 . S
C2115 C2118 1.499 . S
C2116 H2096 0.950 . S
C2116 C2115 1.414 . S
C2116 C2117 1.374 . S
C2117 H2097 0.950 . S
C2117 C2113 1.385 . S
C2117 C2116 1.374 . S
C2118 C2115 1.499 . S
C2118 C2119 1.373 . S
C2118 C2120 1.389 . S
C2119 H2098 0.950 . S
C2119 C2118 1.373 . S
C2119 C2135 1.377 . S
C2120 C2118 1.389 . S
C2120 C2121 1.524 . S
C2120 C2134 1.377 . S
C2121 C2120 1.524 . S
C2121 C2122 1.397 . S
C2121 C2126 1.363 . S
C2122 H2099 0.950 . S
C2122 C2121 1.397 . S
C2122 C2123 1.334 . S
C2123 H2100 0.950 . S
C2123 C2122 1.334 . S
C2123 C2124 1.287 . S
C2124 C2123 1.287 . S
C2124 C2125 1.524 . S
C2124 H2143 0.913 . S
C2125 H2101 0.950 . S
C2125 C2124 1.524 . S
C2125 C2126 1.415 . S
C2126 H2102 0.950 . S
C2126 C2121 1.363 . S
C2126 C2125 1.415 . S
C2127 H2103 0.951 . S
C2127 C2128 1.366 . S
C2127 C2129 1.388 . S
C2128 C2127 1.366 . S
C2128 C2132 1.385 . S
C2129 H2104 0.951 . S
C2129 C2127 1.388 . S
C2129 C2130 1.366 . S
C2130 C2129 1.366 . S
C2130 C2131 1.414 . S
C2130 C2133 1.499 . S
C2131 H2105 0.950 . S
C2131 C2130 1.414 . S
C2131 C2132 1.374 . S
C2132 H2106 0.950 . S
C2132 C2128 1.385 . S
C2132 C2131 1.374 . S
C2133 C2130 1.499 . S
C2133 C2134 1.373 . S
C2133 C2135 1.389 . S
C2134 H2107 0.950 . S
C2134 C2120 1.377 . S
C2134 C2133 1.373 . S
C2135 C2119 1.377 . S
C2135 C2133 1.389 . S
C2135 C2136 1.524 . S
C2136 C2135 1.524 . S
C2136 C2137 1.397 . S
C2136 C2141 1.363 . S
C2137 H2108 0.950 . S
C2137 C2136 1.397 . S
C2137 C2138 1.334 . S
C2138 H2109 0.950 . S
C2138 C2137 1.334 . S
C2138 C2139 1.287 . S
C2139 C2138 1.287 . S
C2139 C2140 1.524 . S
C2139 H2142 0.999 . S
C2140 H2110 0.950 . S
C2140 C2139 1.524 . S
C2140 C2141 1.415 . S
C2141 H2111 0.950 . S
C2141 C2136 1.363 . S
C2141 C2140 1.415 . S
H2142 C2139 0.999 . S
H2143 C2124 0.913 . S
H2144 C2162 0.951 . S
H2145 C2164 0.951 . S
H2146 C2166 0.950 . S
H2147 C2167 0.950 . S
H2148 C2169 0.950 . S
H2149 C2172 0.950 . S
H2150 C2173 0.950 . S
H2151 C2175 0.950 . S
H2152 C2176 0.950 . S
H2153 C2177 0.951 . S
H2154 C2179 0.951 . S
H2155 C2181 0.950 . S
H2156 C2182 0.950 . S
H2157 C2184 0.950 . S
H2158 C2187 0.950 . S
H2159 C2188 0.950 . S
H2160 C2190 0.950 . S
H2161 C2191 0.950 . S
C2162 H2144 0.951 . S
C2162 C2163 1.366 . S
C2162 C2164 1.388 . S
C2163 C2162 1.366 . S
C2163 C2167 1.385 . S
C2164 H2145 0.951 . S
C2164 C2162 1.388 . S
C2164 C2165 1.366 . S
C2165 C2164 1.366 . S
C2165 C2166 1.414 . S
C2165 C2168 1.499 . S
C2166 H2146 0.950 . S
C2166 C2165 1.414 . S
C2166 C2167 1.374 . S
C2167 H2147 0.950 . S
C2167 C2163 1.385 . S
C2167 C2166 1.374 . S
C2168 C2165 1.499 . S
C2168 C2169 1.373 . S
C2168 C2170 1.389 . S
C2169 H2148 0.950 . S
C2169 C2168 1.373 . S
C2169 C2185 1.377 . S
C2170 C2168 1.389 . S
C2170 C2171 1.524 . S
C2170 C2184 1.377 . S
C2171 C2170 1.524 . S
C2171 C2172 1.397 . S
C2171 C2176 1.363 . S
C2172 H2149 0.950 . S
C2172 C2171 1.397 . S
C2172 C2173 1.334 . S
C2173 H2150 0.950 . S
C2173 C2172 1.334 . S
C2173 C2174 1.287 . S
C2174 C2173 1.287 . S
C2174 C2175 1.524 . S
C2174 H2193 0.913 . S
C2175 H2151 0.950 . S
C2175 C2174 1.524 . S
C2175 C2176 1.415 . S
C2176 H2152 0.950 . S
C2176 C2171 1.363 . S
C2176 C2175 1.415 . S
C2177 H2153 0.951 . S
C2177 C2178 1.366 . S
C2177 C2179 1.388 . S
C2178 C2177 1.366 . S
C2178 C2182 1.385 . S
C2179 H2154 0.951 . S
C2179 C2177 1.388 . S
C2179 C2180 1.366 . S
C2180 C2179 1.366 . S
C2180 C2181 1.414 . S
C2180 C2183 1.499 . S
C2181 H2155 0.950 . S
C2181 C2180 1.414 . S
C2181 C2182 1.374 . S
C2182 H2156 0.950 . S
C2182 C2178 1.385 . S
C2182 C2181 1.374 . S
C2183 C2180 1.499 . S
C2183 C2184 1.373 . S
C2183 C2185 1.389 . S
C2184 H2157 0.950 . S
C2184 C2170 1.377 . S
C2184 C2183 1.373 . S
C2185 C2169 1.377 . S
C2185 C2183 1.389 . S
C2185 C2186 1.524 . S
C2186 C2185 1.524 . S
C2186 C2187 1.397 . S
C2186 C2191 1.363 . S
C2187 H2158 0.950 . S
C2187 C2186 1.397 . S
C2187 C2188 1.334 . S
C2188 H2159 0.950 . S
C2188 C2187 1.334 . S
C2188 C2189 1.287 . S
C2189 C2188 1.287 . S
C2189 C2190 1.524 . S
C2189 H2192 0.999 . S
C2190 H2160 0.950 . S
C2190 C2189 1.524 . S
C2190 C2191 1.415 . S
C2191 H2161 0.950 . S
C2191 C2186 1.363 . S
C2191 C2190 1.415 . S
H2192 C2189 0.999 . S
H2193 C2174 0.913 . S
H2194 C2212 0.951 . S
H2195 C2214 0.951 . S
H2196 C2216 0.950 . S
H2197 C2217 0.950 . S
H2198 C2219 0.950 . S
H2199 C2222 0.950 . S
H2200 C2223 0.950 . S
H2201 C2225 0.950 . S
H2202 C2226 0.950 . S
H2203 C2227 0.951 . S
H2204 C2229 0.951 . S
H2205 C2231 0.950 . S
H2206 C2232 0.950 . S
H2207 C2234 0.950 . S
H2208 C2237 0.950 . S
H2209 C2238 0.950 . S
H2210 C2240 0.950 . S
H2211 C2241 0.950 . S
C2212 H2194 0.951 . S
C2212 C2213 1.366 . S
C2212 C2214 1.388 . S
C2213 C2212 1.366 . S
C2213 C2217 1.385 . S
C2214 H2195 0.951 . S
C2214 C2212 1.388 . S
C2214 C2215 1.366 . S
C2215 C2214 1.366 . S
C2215 C2216 1.414 . S
C2215 C2218 1.499 . S
C2216 H2196 0.950 . S
C2216 C2215 1.414 . S
C2216 C2217 1.374 . S
C2217 H2197 0.950 . S
C2217 C2213 1.385 . S
C2217 C2216 1.374 . S
C2218 C2215 1.499 . S
C2218 C2219 1.373 . S
C2218 C2220 1.389 . S
C2219 H2198 0.950 . S
C2219 C2218 1.373 . S
C2219 C2235 1.377 . S
C2220 C2218 1.389 . S
C2220 C2221 1.524 . S
C2220 C2234 1.377 . S
C2221 C2220 1.524 . S
C2221 C2222 1.397 . S
C2221 C2226 1.363 . S
C2222 H2199 0.950 . S
C2222 C2221 1.397 . S
C2222 C2223 1.334 . S
C2223 H2200 0.950 . S
C2223 C2222 1.334 . S
C2223 C2224 1.287 . S
C2224 C2223 1.287 . S
C2224 C2225 1.524 . S
C2224 H2243 0.913 . S
C2225 H2201 0.950 . S
C2225 C2224 1.524 . S
C2225 C2226 1.415 . S
C2226 H2202 0.950 . S
C2226 C2221 1.363 . S
C2226 C2225 1.415 . S
C2227 H2203 0.951 . S
C2227 C2228 1.366 . S
C2227 C2229 1.388 . S
C2228 C2227 1.366 . S
C2228 C2232 1.385 . S
C2229 H2204 0.951 . S
C2229 C2227 1.388 . S
C2229 C2230 1.366 . S
C2230 C2229 1.366 . S
C2230 C2231 1.414 . S
C2230 C2233 1.499 . S
C2231 H2205 0.950 . S
C2231 C2230 1.414 . S
C2231 C2232 1.374 . S
C2232 H2206 0.950 . S
C2232 C2228 1.385 . S
C2232 C2231 1.374 . S
C2233 C2230 1.499 . S
C2233 C2234 1.373 . S
C2233 C2235 1.389 . S
C2234 H2207 0.950 . S
C2234 C2220 1.377 . S
C2234 C2233 1.373 . S
C2235 C2219 1.377 . S
C2235 C2233 1.389 . S
C2235 C2236 1.524 . S
C2236 C2235 1.524 . S
C2236 C2237 1.397 . S
C2236 C2241 1.363 . S
C2237 H2208 0.950 . S
C2237 C2236 1.397 . S
C2237 C2238 1.334 . S
C2238 H2209 0.950 . S
C2238 C2237 1.334 . S
C2238 C2239 1.287 . S
C2239 C2238 1.287 . S
C2239 C2240 1.524 . S
C2239 H2242 0.999 . S
C2240 H2210 0.950 . S
C2240 C2239 1.524 . S
C2240 C2241 1.415 . S
C2241 H2211 0.950 . S
C2241 C2236 1.363 . S
C2241 C2240 1.415 . S
H2242 C2239 0.999 . S
H2243 C2224 0.913 . S
H2244 C2262 0.951 . S
H2245 C2264 0.951 . S
H2246 C2266 0.950 . S
H2247 C2267 0.950 . S
H2248 C2269 0.950 . S
H2249 C2272 0.950 . S
H2250 C2273 0.950 . S
H2251 C2275 0.950 . S
H2252 C2276 0.950 . S
H2253 C2277 0.951 . S
H2254 C2279 0.951 . S
H2255 C2281 0.950 . S
H2256 C2282 0.950 . S
H2257 C2284 0.950 . S
H2258 C2287 0.950 . S
H2259 C2288 0.950 . S
H2260 C2290 0.950 . S
H2261 C2291 0.950 . S
C2262 H2244 0.951 . S
C2262 C2263 1.366 . S
C2262 C2264 1.388 . S
C2263 C2262 1.366 . S
C2263 C2267 1.385 . S
C2264 H2245 0.951 . S
C2264 C2262 1.388 . S
C2264 C2265 1.366 . S
C2265 C2264 1.366 . S
C2265 C2266 1.414 . S
C2265 C2268 1.499 . S
C2266 H2246 0.950 . S
C2266 C2265 1.414 . S
C2266 C2267 1.374 . S
C2267 H2247 0.950 . S
C2267 C2263 1.385 . S
C2267 C2266 1.374 . S
C2268 C2265 1.499 . S
C2268 C2269 1.373 . S
C2268 C2270 1.389 . S
C2269 H2248 0.950 . S
C2269 C2268 1.373 . S
C2269 C2285 1.377 . S
C2270 C2268 1.389 . S
C2270 C2271 1.524 . S
C2270 C2284 1.377 . S
C2271 C2270 1.524 . S
C2271 C2272 1.397 . S
C2271 C2276 1.363 . S
C2272 H2249 0.950 . S
C2272 C2271 1.397 . S
C2272 C2273 1.334 . S
C2273 H2250 0.950 . S
C2273 C2272 1.334 . S
C2273 C2274 1.287 . S
C2274 C2273 1.287 . S
C2274 C2275 1.524 . S
C2274 H2293 0.913 . S
C2275 H2251 0.950 . S
C2275 C2274 1.524 . S
C2275 C2276 1.415 . S
C2276 H2252 0.950 . S
C2276 C2271 1.363 . S
C2276 C2275 1.415 . S
C2277 H2253 0.951 . S
C2277 C2278 1.366 . S
C2277 C2279 1.388 . S
C2278 C2277 1.366 . S
C2278 C2282 1.385 . S
C2279 H2254 0.951 . S
C2279 C2277 1.388 . S
C2279 C2280 1.366 . S
C2280 C2279 1.366 . S
C2280 C2281 1.414 . S
C2280 C2283 1.499 . S
C2281 H2255 0.950 . S
C2281 C2280 1.414 . S
C2281 C2282 1.374 . S
C2282 H2256 0.950 . S
C2282 C2278 1.385 . S
C2282 C2281 1.374 . S
C2283 C2280 1.499 . S
C2283 C2284 1.373 . S
C2283 C2285 1.389 . S
C2284 H2257 0.950 . S
C2284 C2270 1.377 . S
C2284 C2283 1.373 . S
C2285 C2269 1.377 . S
C2285 C2283 1.389 . S
C2285 C2286 1.524 . S
C2286 C2285 1.524 . S
C2286 C2287 1.397 . S
C2286 C2291 1.363 . S
C2287 H2258 0.950 . S
C2287 C2286 1.397 . S
C2287 C2288 1.334 . S
C2288 H2259 0.950 . S
C2288 C2287 1.334 . S
C2288 C2289 1.287 . S
C2289 C2288 1.287 . S
C2289 C2290 1.524 . S
C2289 H2292 0.999 . S
C2290 H2260 0.950 . S
C2290 C2289 1.524 . S
C2290 C2291 1.415 . S
C2291 H2261 0.950 . S
C2291 C2286 1.363 . S
C2291 C2290 1.415 . S
H2292 C2289 0.999 . S
H2293 C2274 0.913 . S
H2294 C2312 0.951 . S
H2295 C2314 0.951 . S
H2296 C2316 0.950 . S
H2297 C2317 0.950 . S
H2298 C2319 0.950 . S
H2299 C2322 0.950 . S
H2300 C2323 0.950 . S
H2301 C2325 0.950 . S
H2302 C2326 0.950 . S
H2303 C2327 0.951 . S
H2304 C2329 0.951 . S
H2305 C2331 0.950 . S
H2306 C2332 0.950 . S
H2307 C2334 0.950 . S
H2308 C2337 0.950 . S
H2309 C2338 0.950 . S
H2310 C2340 0.950 . S
H2311 C2341 0.950 . S
C2312 H2294 0.951 . S
C2312 C2313 1.366 . S
C2312 C2314 1.388 . S
C2313 C2312 1.366 . S
C2313 C2317 1.385 . S
C2314 H2295 0.951 . S
C2314 C2312 1.388 . S
C2314 C2315 1.366 . S
C2315 C2314 1.366 . S
C2315 C2316 1.414 . S
C2315 C2318 1.499 . S
C2316 H2296 0.950 . S
C2316 C2315 1.414 . S
C2316 C2317 1.374 . S
C2317 H2297 0.950 . S
C2317 C2313 1.385 . S
C2317 C2316 1.374 . S
C2318 C2315 1.499 . S
C2318 C2319 1.373 . S
C2318 C2320 1.389 . S
C2319 H2298 0.950 . S
C2319 C2318 1.373 . S
C2319 C2335 1.377 . S
C2320 C2318 1.389 . S
C2320 C2321 1.524 . S
C2320 C2334 1.377 . S
C2321 C2320 1.524 . S
C2321 C2322 1.397 . S
C2321 C2326 1.363 . S
C2322 H2299 0.950 . S
C2322 C2321 1.397 . S
C2322 C2323 1.334 . S
C2323 H2300 0.950 . S
C2323 C2322 1.334 . S
C2323 C2324 1.287 . S
C2324 C2323 1.287 . S
C2324 C2325 1.524 . S
C2324 H2343 0.913 . S
C2325 H2301 0.950 . S
C2325 C2324 1.524 . S
C2325 C2326 1.415 . S
C2326 H2302 0.950 . S
C2326 C2321 1.363 . S
C2326 C2325 1.415 . S
C2327 H2303 0.951 . S
C2327 C2328 1.366 . S
C2327 C2329 1.388 . S
C2328 C2327 1.366 . S
C2328 C2332 1.385 . S
C2329 H2304 0.951 . S
C2329 C2327 1.388 . S
C2329 C2330 1.366 . S
C2330 C2329 1.366 . S
C2330 C2331 1.414 . S
C2330 C2333 1.499 . S
C2331 H2305 0.950 . S
C2331 C2330 1.414 . S
C2331 C2332 1.374 . S
C2332 H2306 0.950 . S
C2332 C2328 1.385 . S
C2332 C2331 1.374 . S
C2333 C2330 1.499 . S
C2333 C2334 1.373 . S
C2333 C2335 1.389 . S
C2334 H2307 0.950 . S
C2334 C2320 1.377 . S
C2334 C2333 1.373 . S
C2335 C2319 1.377 . S
C2335 C2333 1.389 . S
C2335 C2336 1.524 . S
C2336 C2335 1.524 . S
C2336 C2337 1.397 . S
C2336 C2341 1.363 . S
C2337 H2308 0.950 . S
C2337 C2336 1.397 . S
C2337 C2338 1.334 . S
C2338 H2309 0.950 . S
C2338 C2337 1.334 . S
C2338 C2339 1.287 . S
C2339 C2338 1.287 . S
C2339 C2340 1.524 . S
C2339 H2342 0.999 . S
C2340 H2310 0.950 . S
C2340 C2339 1.524 . S
C2340 C2341 1.415 . S
C2341 H2311 0.950 . S
C2341 C2336 1.363 . S
C2341 C2340 1.415 . S
H2342 C2339 0.999 . S
H2343 C2324 0.913 . S
H2344 C2362 0.951 . S
H2345 C2364 0.951 . S
H2346 C2366 0.950 . S
H2347 C2367 0.950 . S
H2348 C2369 0.950 . S
H2349 C2372 0.950 . S
H2350 C2373 0.950 . S
H2351 C2375 0.950 . S
H2352 C2376 0.950 . S
H2353 C2377 0.951 . S
H2354 C2379 0.951 . S
H2355 C2381 0.950 . S
H2356 C2382 0.950 . S
H2357 C2384 0.950 . S
H2358 C2387 0.950 . S
H2359 C2388 0.950 . S
H2360 C2390 0.950 . S
H2361 C2391 0.950 . S
C2362 H2344 0.951 . S
C2362 C2363 1.366 . S
C2362 C2364 1.388 . S
C2363 C2362 1.366 . S
C2363 C2367 1.385 . S
C2364 H2345 0.951 . S
C2364 C2362 1.388 . S
C2364 C2365 1.366 . S
C2365 C2364 1.366 . S
C2365 C2366 1.414 . S
C2365 C2368 1.499 . S
C2366 H2346 0.950 . S
C2366 C2365 1.414 . S
C2366 C2367 1.374 . S
C2367 H2347 0.950 . S
C2367 C2363 1.385 . S
C2367 C2366 1.374 . S
C2368 C2365 1.499 . S
C2368 C2369 1.373 . S
C2368 C2370 1.389 . S
C2369 H2348 0.950 . S
C2369 C2368 1.373 . S
C2369 C2385 1.377 . S
C2370 C2368 1.389 . S
C2370 C2371 1.524 . S
C2370 C2384 1.377 . S
C2371 C2370 1.524 . S
C2371 C2372 1.397 . S
C2371 C2376 1.363 . S
C2372 H2349 0.950 . S
C2372 C2371 1.397 . S
C2372 C2373 1.334 . S
C2373 H2350 0.950 . S
C2373 C2372 1.334 . S
C2373 C2374 1.287 . S
C2374 C2373 1.287 . S
C2374 C2375 1.524 . S
C2374 H2393 0.913 . S
C2375 H2351 0.950 . S
C2375 C2374 1.524 . S
C2375 C2376 1.415 . S
C2376 H2352 0.950 . S
C2376 C2371 1.363 . S
C2376 C2375 1.415 . S
C2377 H2353 0.951 . S
C2377 C2378 1.366 . S
C2377 C2379 1.388 . S
C2378 C2377 1.366 . S
C2378 C2382 1.385 . S
C2379 H2354 0.951 . S
C2379 C2377 1.388 . S
C2379 C2380 1.366 . S
C2380 C2379 1.366 . S
C2380 C2381 1.414 . S
C2380 C2383 1.499 . S
C2381 H2355 0.950 . S
C2381 C2380 1.414 . S
C2381 C2382 1.374 . S
C2382 H2356 0.950 . S
C2382 C2378 1.385 . S
C2382 C2381 1.374 . S
C2383 C2380 1.499 . S
C2383 C2384 1.373 . S
C2383 C2385 1.389 . S
C2384 H2357 0.950 . S
C2384 C2370 1.377 . S
C2384 C2383 1.373 . S
C2385 C2369 1.377 . S
C2385 C2383 1.389 . S
C2385 C2386 1.524 . S
C2386 C2385 1.524 . S
C2386 C2387 1.397 . S
C2386 C2391 1.363 . S
C2387 H2358 0.950 . S
C2387 C2386 1.397 . S
C2387 C2388 1.334 . S
C2388 H2359 0.950 . S
C2388 C2387 1.334 . S
C2388 C2389 1.287 . S
C2389 C2388 1.287 . S
C2389 C2390 1.524 . S
C2389 H2392 0.999 . S
C2390 H2360 0.950 . S
C2390 C2389 1.524 . S
C2390 C2391 1.415 . S
C2391 H2361 0.950 . S
C2391 C2386 1.363 . S
C2391 C2390 1.415 . S
H2392 C2389 0.999 . S
H2393 C2374 0.913 . S
H2394 C2412 0.951 . S
H2395 C2414 0.951 . S
H2396 C2416 0.950 . S
H2397 C2417 0.950 . S
H2398 C2419 0.950 . S
H2399 C2422 0.950 . S
H2400 C2423 0.950 . S
H2401 C2425 0.950 . S
H2402 C2426 0.950 . S
H2403 C2427 0.951 . S
H2404 C2429 0.951 . S
H2405 C2431 0.950 . S
H2406 C2432 0.950 . S
H2407 C2434 0.950 . S
H2408 C2437 0.950 . S
H2409 C2438 0.950 . S
H2410 C2440 0.950 . S
H2411 C2441 0.950 . S
C2412 H2394 0.951 . S
C2412 C2413 1.366 . S
C2412 C2414 1.388 . S
C2413 C2412 1.366 . S
C2413 C2417 1.385 . S
C2414 H2395 0.951 . S
C2414 C2412 1.388 . S
C2414 C2415 1.366 . S
C2415 C2414 1.366 . S
C2415 C2416 1.414 . S
C2415 C2418 1.499 . S
C2416 H2396 0.950 . S
C2416 C2415 1.414 . S
C2416 C2417 1.374 . S
C2417 H2397 0.950 . S
C2417 C2413 1.385 . S
C2417 C2416 1.374 . S
C2418 C2415 1.499 . S
C2418 C2419 1.373 . S
C2418 C2420 1.389 . S
C2419 H2398 0.950 . S
C2419 C2418 1.373 . S
C2419 C2435 1.377 . S
C2420 C2418 1.389 . S
C2420 C2421 1.524 . S
C2420 C2434 1.377 . S
C2421 C2420 1.524 . S
C2421 C2422 1.397 . S
C2421 C2426 1.363 . S
C2422 H2399 0.950 . S
C2422 C2421 1.397 . S
C2422 C2423 1.334 . S
C2423 H2400 0.950 . S
C2423 C2422 1.334 . S
C2423 C2424 1.287 . S
C2424 C2423 1.287 . S
C2424 C2425 1.524 . S
C2424 H2443 0.913 . S
C2425 H2401 0.950 . S
C2425 C2424 1.524 . S
C2425 C2426 1.415 . S
C2426 H2402 0.950 . S
C2426 C2421 1.363 . S
C2426 C2425 1.415 . S
C2427 H2403 0.951 . S
C2427 C2428 1.366 . S
C2427 C2429 1.388 . S
C2428 C2427 1.366 . S
C2428 C2432 1.385 . S
C2429 H2404 0.951 . S
C2429 C2427 1.388 . S
C2429 C2430 1.366 . S
C2430 C2429 1.366 . S
C2430 C2431 1.414 . S
C2430 C2433 1.499 . S
C2431 H2405 0.950 . S
C2431 C2430 1.414 . S
C2431 C2432 1.374 . S
C2432 H2406 0.950 . S
C2432 C2428 1.385 . S
C2432 C2431 1.374 . S
C2433 C2430 1.499 . S
C2433 C2434 1.373 . S
C2433 C2435 1.389 . S
C2434 H2407 0.950 . S
C2434 C2420 1.377 . S
C2434 C2433 1.373 . S
C2435 C2419 1.377 . S
C2435 C2433 1.389 . S
C2435 C2436 1.524 . S
C2436 C2435 1.524 . S
C2436 C2437 1.397 . S
C2436 C2441 1.363 . S
C2437 H2408 0.950 . S
C2437 C2436 1.397 . S
C2437 C2438 1.334 . S
C2438 H2409 0.950 . S
C2438 C2437 1.334 . S
C2438 C2439 1.287 . S
C2439 C2438 1.287 . S
C2439 C2440 1.524 . S
C2439 H2442 0.999 . S
C2440 H2410 0.950 . S
C2440 C2439 1.524 . S
C2440 C2441 1.415 . S
C2441 H2411 0.950 . S
C2441 C2436 1.363 . S
C2441 C2440 1.415 . S
H2442 C2439 0.999 . S
H2443 C2424 0.913 . S
H2444 C2462 0.951 . S
H2445 C2464 0.951 . S
H2446 C2466 0.950 . S
H2447 C2467 0.950 . S
H2448 C2469 0.950 . S
H2449 C2472 0.950 . S
H2450 C2473 0.950 . S
H2451 C2475 0.950 . S
H2452 C2476 0.950 . S
H2453 C2477 0.951 . S
H2454 C2479 0.951 . S
H2455 C2481 0.950 . S
H2456 C2482 0.950 . S
H2457 C2484 0.950 . S
H2458 C2487 0.950 . S
H2459 C2488 0.950 . S
H2460 C2490 0.950 . S
H2461 C2491 0.950 . S
C2462 H2444 0.951 . S
C2462 C2463 1.366 . S
C2462 C2464 1.388 . S
C2463 C2462 1.366 . S
C2463 C2467 1.385 . S
C2464 H2445 0.951 . S
C2464 C2462 1.388 . S
C2464 C2465 1.366 . S
C2465 C2464 1.366 . S
C2465 C2466 1.414 . S
C2465 C2468 1.499 . S
C2466 H2446 0.950 . S
C2466 C2465 1.414 . S
C2466 C2467 1.374 . S
C2467 H2447 0.950 . S
C2467 C2463 1.385 . S
C2467 C2466 1.374 . S
C2468 C2465 1.499 . S
C2468 C2469 1.373 . S
C2468 C2470 1.389 . S
C2469 H2448 0.950 . S
C2469 C2468 1.373 . S
C2469 C2485 1.377 . S
C2470 C2468 1.389 . S
C2470 C2471 1.524 . S
C2470 C2484 1.377 . S
C2471 C2470 1.524 . S
C2471 C2472 1.397 . S
C2471 C2476 1.363 . S
C2472 H2449 0.950 . S
C2472 C2471 1.397 . S
C2472 C2473 1.334 . S
C2473 H2450 0.950 . S
C2473 C2472 1.334 . S
C2473 C2474 1.287 . S
C2474 C2473 1.287 . S
C2474 C2475 1.524 . S
C2474 H2493 0.913 . S
C2475 H2451 0.950 . S
C2475 C2474 1.524 . S
C2475 C2476 1.415 . S
C2476 H2452 0.950 . S
C2476 C2471 1.363 . S
C2476 C2475 1.415 . S
C2477 H2453 0.951 . S
C2477 C2478 1.366 . S
C2477 C2479 1.388 . S
C2478 C2477 1.366 . S
C2478 C2482 1.385 . S
C2479 H2454 0.951 . S
C2479 C2477 1.388 . S
C2479 C2480 1.366 . S
C2480 C2479 1.366 . S
C2480 C2481 1.414 . S
C2480 C2483 1.499 . S
C2481 H2455 0.950 . S
C2481 C2480 1.414 . S
C2481 C2482 1.374 . S
C2482 H2456 0.950 . S
C2482 C2478 1.385 . S
C2482 C2481 1.374 . S
C2483 C2480 1.499 . S
C2483 C2484 1.373 . S
C2483 C2485 1.389 . S
C2484 H2457 0.950 . S
C2484 C2470 1.377 . S
C2484 C2483 1.373 . S
C2485 C2469 1.377 . S
C2485 C2483 1.389 . S
C2485 C2486 1.524 . S
C2486 C2485 1.524 . S
C2486 C2487 1.397 . S
C2486 C2491 1.363 . S
C2487 H2458 0.950 . S
C2487 C2486 1.397 . S
C2487 C2488 1.334 . S
C2488 H2459 0.950 . S
C2488 C2487 1.334 . S
C2488 C2489 1.287 . S
C2489 C2488 1.287 . S
C2489 C2490 1.524 . S
C2489 H2492 0.999 . S
C2490 H2460 0.950 . S
C2490 C2489 1.524 . S
C2490 C2491 1.415 . S
C2491 H2461 0.950 . S
C2491 C2486 1.363 . S
C2491 C2490 1.415 . S
H2492 C2489 0.999 . S
H2493 C2474 0.913 . S
H2494 C2512 0.951 . S
H2495 C2514 0.951 . S
H2496 C2516 0.950 . S
H2497 C2517 0.950 . S
H2498 C2519 0.950 . S
H2499 C2522 0.950 . S
H2500 C2523 0.950 . S
H2501 C2525 0.950 . S
H2502 C2526 0.950 . S
H2503 C2527 0.951 . S
H2504 C2529 0.951 . S
H2505 C2531 0.950 . S
H2506 C2532 0.950 . S
H2507 C2534 0.950 . S
H2508 C2537 0.950 . S
H2509 C2538 0.950 . S
H2510 C2540 0.950 . S
H2511 C2541 0.950 . S
C2512 H2494 0.951 . S
C2512 C2513 1.366 . S
C2512 C2514 1.388 . S
C2513 C2512 1.366 . S
C2513 C2517 1.385 . S
C2514 H2495 0.951 . S
C2514 C2512 1.388 . S
C2514 C2515 1.366 . S
C2515 C2514 1.366 . S
C2515 C2516 1.414 . S
C2515 C2518 1.499 . S
C2516 H2496 0.950 . S
C2516 C2515 1.414 . S
C2516 C2517 1.374 . S
C2517 H2497 0.950 . S
C2517 C2513 1.385 . S
C2517 C2516 1.374 . S
C2518 C2515 1.499 . S
C2518 C2519 1.373 . S
C2518 C2520 1.389 . S
C2519 H2498 0.950 . S
C2519 C2518 1.373 . S
C2519 C2535 1.377 . S
C2520 C2518 1.389 . S
C2520 C2521 1.524 . S
C2520 C2534 1.377 . S
C2521 C2520 1.524 . S
C2521 C2522 1.397 . S
C2521 C2526 1.363 . S
C2522 H2499 0.950 . S
C2522 C2521 1.397 . S
C2522 C2523 1.334 . S
C2523 H2500 0.950 . S
C2523 C2522 1.334 . S
C2523 C2524 1.287 . S
C2524 C2523 1.287 . S
C2524 C2525 1.524 . S
C2524 H2543 0.913 . S
C2525 H2501 0.950 . S
C2525 C2524 1.524 . S
C2525 C2526 1.415 . S
C2526 H2502 0.950 . S
C2526 C2521 1.363 . S
C2526 C2525 1.415 . S
C2527 H2503 0.951 . S
C2527 C2528 1.366 . S
C2527 C2529 1.388 . S
C2528 C2527 1.366 . S
C2528 C2532 1.385 . S
C2529 H2504 0.951 . S
C2529 C2527 1.388 . S
C2529 C2530 1.366 . S
C2530 C2529 1.366 . S
C2530 C2531 1.414 . S
C2530 C2533 1.499 . S
C2531 H2505 0.950 . S
C2531 C2530 1.414 . S
C2531 C2532 1.374 . S
C2532 H2506 0.950 . S
C2532 C2528 1.385 . S
C2532 C2531 1.374 . S
C2533 C2530 1.499 . S
C2533 C2534 1.373 . S
C2533 C2535 1.389 . S
C2534 H2507 0.950 . S
C2534 C2520 1.377 . S
C2534 C2533 1.373 . S
C2535 C2519 1.377 . S
C2535 C2533 1.389 . S
C2535 C2536 1.524 . S
C2536 C2535 1.524 . S
C2536 C2537 1.397 . S
C2536 C2541 1.363 . S
C2537 H2508 0.950 . S
C2537 C2536 1.397 . S
C2537 C2538 1.334 . S
C2538 H2509 0.950 . S
C2538 C2537 1.334 . S
C2538 C2539 1.287 . S
C2539 C2538 1.287 . S
C2539 C2540 1.524 . S
C2539 H2542 0.999 . S
C2540 H2510 0.950 . S
C2540 C2539 1.524 . S
C2540 C2541 1.415 . S
C2541 H2511 0.950 . S
C2541 C2536 1.363 . S
C2541 C2540 1.415 . S
H2542 C2539 0.999 . S
H2543 C2524 0.913 . S
H2544 C2562 0.951 . S
H2545 C2564 0.951 . S
H2546 C2566 0.950 . S
H2547 C2567 0.950 . S
H2548 C2569 0.950 . S
H2549 C2572 0.950 . S
H2550 C2573 0.950 . S
H2551 C2575 0.950 . S
H2552 C2576 0.950 . S
H2553 C2577 0.951 . S
H2554 C2579 0.951 . S
H2555 C2581 0.950 . S
H2556 C2582 0.950 . S
H2557 C2584 0.950 . S
H2558 C2587 0.950 . S
H2559 C2588 0.950 . S
H2560 C2590 0.950 . S
H2561 C2591 0.950 . S
C2562 H2544 0.951 . S
C2562 C2563 1.366 . S
C2562 C2564 1.388 . S
C2563 C2562 1.366 . S
C2563 C2567 1.385 . S
C2564 H2545 0.951 . S
C2564 C2562 1.388 . S
C2564 C2565 1.366 . S
C2565 C2564 1.366 . S
C2565 C2566 1.414 . S
C2565 C2568 1.499 . S
C2566 H2546 0.950 . S
C2566 C2565 1.414 . S
C2566 C2567 1.374 . S
C2567 H2547 0.950 . S
C2567 C2563 1.385 . S
C2567 C2566 1.374 . S
C2568 C2565 1.499 . S
C2568 C2569 1.373 . S
C2568 C2570 1.389 . S
C2569 H2548 0.950 . S
C2569 C2568 1.373 . S
C2569 C2585 1.377 . S
C2570 C2568 1.389 . S
C2570 C2571 1.524 . S
C2570 C2584 1.377 . S
C2571 C2570 1.524 . S
C2571 C2572 1.397 . S
C2571 C2576 1.363 . S
C2572 H2549 0.950 . S
C2572 C2571 1.397 . S
C2572 C2573 1.334 . S
C2573 H2550 0.950 . S
C2573 C2572 1.334 . S
C2573 C2574 1.287 . S
C2574 C2573 1.287 . S
C2574 C2575 1.524 . S
C2574 H2593 0.913 . S
C2575 H2551 0.950 . S
C2575 C2574 1.524 . S
C2575 C2576 1.415 . S
C2576 H2552 0.950 . S
C2576 C2571 1.363 . S
C2576 C2575 1.415 . S
C2577 H2553 0.951 . S
C2577 C2578 1.366 . S
C2577 C2579 1.388 . S
C2578 C2577 1.366 . S
C2578 C2582 1.385 . S
C2579 H2554 0.951 . S
C2579 C2577 1.388 . S
C2579 C2580 1.366 . S
C2580 C2579 1.366 . S
C2580 C2581 1.414 . S
C2580 C2583 1.499 . S
C2581 H2555 0.950 . S
C2581 C2580 1.414 . S
C2581 C2582 1.374 . S
C2582 H2556 0.950 . S
C2582 C2578 1.385 . S
C2582 C2581 1.374 . S
C2583 C2580 1.499 . S
C2583 C2584 1.373 . S
C2583 C2585 1.389 . S
C2584 H2557 0.950 . S
C2584 C2570 1.377 . S
C2584 C2583 1.373 . S
C2585 C2569 1.377 . S
C2585 C2583 1.389 . S
C2585 C2586 1.524 . S
C2586 C2585 1.524 . S
C2586 C2587 1.397 . S
C2586 C2591 1.363 . S
C2587 H2558 0.950 . S
C2587 C2586 1.397 . S
C2587 C2588 1.334 . S
C2588 H2559 0.950 . S
C2588 C2587 1.334 . S
C2588 C2589 1.287 . S
C2589 C2588 1.287 . S
C2589 C2590 1.524 . S
C2589 H2592 0.999 . S
C2590 H2560 0.950 . S
C2590 C2589 1.524 . S
C2590 C2591 1.415 . S
C2591 H2561 0.950 . S
C2591 C2586 1.363 . S
C2591 C2590 1.415 . S
H2592 C2589 0.999 . S
H2593 C2574 0.913 . S
H2594 C2612 0.951 . S
H2595 C2614 0.951 . S
H2596 C2616 0.950 . S
H2597 C2617 0.950 . S
H2598 C2619 0.950 . S
H2599 C2622 0.950 . S
H2600 C2623 0.950 . S
H2601 C2625 0.950 . S
H2602 C2626 0.950 . S
H2603 C2627 0.951 . S
H2604 C2629 0.951 . S
H2605 C2631 0.950 . S
H2606 C2632 0.950 . S
H2607 C2634 0.950 . S
H2608 C2637 0.950 . S
H2609 C2638 0.950 . S
H2610 C2640 0.950 . S
H2611 C2641 0.950 . S
C2612 H2594 0.951 . S
C2612 C2613 1.366 . S
C2612 C2614 1.388 . S
C2613 C2612 1.366 . S
C2613 C2617 1.385 . S
C2614 H2595 0.951 . S
C2614 C2612 1.388 . S
C2614 C2615 1.366 . S
C2615 C2614 1.366 . S
C2615 C2616 1.414 . S
C2615 C2618 1.499 . S
C2616 H2596 0.950 . S
C2616 C2615 1.414 . S
C2616 C2617 1.374 . S
C2617 H2597 0.950 . S
C2617 C2613 1.385 . S
C2617 C2616 1.374 . S
C2618 C2615 1.499 . S
C2618 C2619 1.373 . S
C2618 C2620 1.389 . S
C2619 H2598 0.950 . S
C2619 C2618 1.373 . S
C2619 C2635 1.377 . S
C2620 C2618 1.389 . S
C2620 C2621 1.524 . S
C2620 C2634 1.377 . S
C2621 C2620 1.524 . S
C2621 C2622 1.397 . S
C2621 C2626 1.363 . S
C2622 H2599 0.950 . S
C2622 C2621 1.397 . S
C2622 C2623 1.334 . S
C2623 H2600 0.950 . S
C2623 C2622 1.334 . S
C2623 C2624 1.287 . S
C2624 C2623 1.287 . S
C2624 C2625 1.524 . S
C2624 H2643 0.913 . S
C2625 H2601 0.950 . S
C2625 C2624 1.524 . S
C2625 C2626 1.415 . S
C2626 H2602 0.950 . S
C2626 C2621 1.363 . S
C2626 C2625 1.415 . S
C2627 H2603 0.951 . S
C2627 C2628 1.366 . S
C2627 C2629 1.388 . S
C2628 C2627 1.366 . S
C2628 C2632 1.385 . S
C2629 H2604 0.951 . S
C2629 C2627 1.388 . S
C2629 C2630 1.366 . S
C2630 C2629 1.366 . S
C2630 C2631 1.414 . S
C2630 C2633 1.499 . S
C2631 H2605 0.950 . S
C2631 C2630 1.414 . S
C2631 C2632 1.374 . S
C2632 H2606 0.950 . S
C2632 C2628 1.385 . S
C2632 C2631 1.374 . S
C2633 C2630 1.499 . S
C2633 C2634 1.373 . S
C2633 C2635 1.389 . S
C2634 H2607 0.950 . S
C2634 C2620 1.377 . S
C2634 C2633 1.373 . S
C2635 C2619 1.377 . S
C2635 C2633 1.389 . S
C2635 C2636 1.524 . S
C2636 C2635 1.524 . S
C2636 C2637 1.397 . S
C2636 C2641 1.363 . S
C2637 H2608 0.950 . S
C2637 C2636 1.397 . S
C2637 C2638 1.334 . S
C2638 H2609 0.950 . S
C2638 C2637 1.334 . S
C2638 C2639 1.287 . S
C2639 C2638 1.287 . S
C2639 C2640 1.524 . S
C2639 H2642 0.999 . S
C2640 H2610 0.950 . S
C2640 C2639 1.524 . S
C2640 C2641 1.415 . S
C2641 H2611 0.950 . S
C2641 C2636 1.363 . S
C2641 C2640 1.415 . S
H2642 C2639 0.999 . S
H2643 C2624 0.913 . S
H2644 C2662 0.951 . S
H2645 C2664 0.951 . S
H2646 C2666 0.950 . S
H2647 C2667 0.950 . S
H2648 C2669 0.950 . S
H2649 C2672 0.950 . S
H2650 C2673 0.950 . S
H2651 C2675 0.950 . S
H2652 C2676 0.950 . S
H2653 C2677 0.951 . S
H2654 C2679 0.951 . S
H2655 C2681 0.950 . S
H2656 C2682 0.950 . S
H2657 C2684 0.950 . S
H2658 C2687 0.950 . S
H2659 C2688 0.950 . S
H2660 C2690 0.950 . S
H2661 C2691 0.950 . S
C2662 H2644 0.951 . S
C2662 C2663 1.366 . S
C2662 C2664 1.388 . S
C2663 C2662 1.366 . S
C2663 C2667 1.385 . S
C2664 H2645 0.951 . S
C2664 C2662 1.388 . S
C2664 C2665 1.366 . S
C2665 C2664 1.366 . S
C2665 C2666 1.414 . S
C2665 C2668 1.499 . S
C2666 H2646 0.950 . S
C2666 C2665 1.414 . S
C2666 C2667 1.374 . S
C2667 H2647 0.950 . S
C2667 C2663 1.385 . S
C2667 C2666 1.374 . S
C2668 C2665 1.499 . S
C2668 C2669 1.373 . S
C2668 C2670 1.389 . S
C2669 H2648 0.950 . S
C2669 C2668 1.373 . S
C2669 C2685 1.377 . S
C2670 C2668 1.389 . S
C2670 C2671 1.524 . S
C2670 C2684 1.377 . S
C2671 C2670 1.524 . S
C2671 C2672 1.397 . S
C2671 C2676 1.363 . S
C2672 H2649 0.950 . S
C2672 C2671 1.397 . S
C2672 C2673 1.334 . S
C2673 H2650 0.950 . S
C2673 C2672 1.334 . S
C2673 C2674 1.287 . S
C2674 C2673 1.287 . S
C2674 C2675 1.524 . S
C2674 H2693 0.913 . S
C2675 H2651 0.950 . S
C2675 C2674 1.524 . S
C2675 C2676 1.415 . S
C2676 H2652 0.950 . S
C2676 C2671 1.363 . S
C2676 C2675 1.415 . S
C2677 H2653 0.951 . S
C2677 C2678 1.366 . S
C2677 C2679 1.388 . S
C2678 C2677 1.366 . S
C2678 C2682 1.385 . S
C2679 H2654 0.951 . S
C2679 C2677 1.388 . S
C2679 C2680 1.366 . S
C2680 C2679 1.366 . S
C2680 C2681 1.414 . S
C2680 C2683 1.499 . S
C2681 H2655 0.950 . S
C2681 C2680 1.414 . S
C2681 C2682 1.374 . S
C2682 H2656 0.950 . S
C2682 C2678 1.385 . S
C2682 C2681 1.374 . S
C2683 C2680 1.499 . S
C2683 C2684 1.373 . S
C2683 C2685 1.389 . S
C2684 H2657 0.950 . S
C2684 C2670 1.377 . S
C2684 C2683 1.373 . S
C2685 C2669 1.377 . S
C2685 C2683 1.389 . S
C2685 C2686 1.524 . S
C2686 C2685 1.524 . S
C2686 C2687 1.397 . S
C2686 C2691 1.363 . S
C2687 H2658 0.950 . S
C2687 C2686 1.397 . S
C2687 C2688 1.334 . S
C2688 H2659 0.950 . S
C2688 C2687 1.334 . S
C2688 C2689 1.287 . S
C2689 C2688 1.287 . S
C2689 C2690 1.524 . S
C2689 H2692 0.999 . S
C2690 H2660 0.950 . S
C2690 C2689 1.524 . S
C2690 C2691 1.415 . S
C2691 H2661 0.950 . S
C2691 C2686 1.363 . S
C2691 C2690 1.415 . S
H2692 C2689 0.999 . S
H2693 C2674 0.913 . S
H2694 C2712 0.951 . S
H2695 C2714 0.951 . S
H2696 C2716 0.950 . S
H2697 C2717 0.950 . S
H2698 C2719 0.950 . S
H2699 C2722 0.950 . S
H2700 C2723 0.950 . S
H2701 C2725 0.950 . S
H2702 C2726 0.950 . S
H2703 C2727 0.951 . S
H2704 C2729 0.951 . S
H2705 C2731 0.950 . S
H2706 C2732 0.950 . S
H2707 C2734 0.950 . S
H2708 C2737 0.950 . S
H2709 C2738 0.950 . S
H2710 C2740 0.950 . S
H2711 C2741 0.950 . S
C2712 H2694 0.951 . S
C2712 C2713 1.366 . S
C2712 C2714 1.388 . S
C2713 C2712 1.366 . S
C2713 C2717 1.385 . S
C2714 H2695 0.951 . S
C2714 C2712 1.388 . S
C2714 C2715 1.366 . S
C2715 C2714 1.366 . S
C2715 C2716 1.414 . S
C2715 C2718 1.499 . S
C2716 H2696 0.950 . S
C2716 C2715 1.414 . S
C2716 C2717 1.374 . S
C2717 H2697 0.950 . S
C2717 C2713 1.385 . S
C2717 C2716 1.374 . S
C2718 C2715 1.499 . S
C2718 C2719 1.373 . S
C2718 C2720 1.389 . S
C2719 H2698 0.950 . S
C2719 C2718 1.373 . S
C2719 C2735 1.377 . S
C2720 C2718 1.389 . S
C2720 C2721 1.524 . S
C2720 C2734 1.377 . S
C2721 C2720 1.524 . S
C2721 C2722 1.397 . S
C2721 C2726 1.363 . S
C2722 H2699 0.950 . S
C2722 C2721 1.397 . S
C2722 C2723 1.334 . S
C2723 H2700 0.950 . S
C2723 C2722 1.334 . S
C2723 C2724 1.287 . S
C2724 C2723 1.287 . S
C2724 C2725 1.524 . S
C2724 H2743 0.913 . S
C2725 H2701 0.950 . S
C2725 C2724 1.524 . S
C2725 C2726 1.415 . S
C2726 H2702 0.950 . S
C2726 C2721 1.363 . S
C2726 C2725 1.415 . S
C2727 H2703 0.951 . S
C2727 C2728 1.366 . S
C2727 C2729 1.388 . S
C2728 C2727 1.366 . S
C2728 C2732 1.385 . S
C2729 H2704 0.951 . S
C2729 C2727 1.388 . S
C2729 C2730 1.366 . S
C2730 C2729 1.366 . S
C2730 C2731 1.414 . S
C2730 C2733 1.499 . S
C2731 H2705 0.950 . S
C2731 C2730 1.414 . S
C2731 C2732 1.374 . S
C2732 H2706 0.950 . S
C2732 C2728 1.385 . S
C2732 C2731 1.374 . S
C2733 C2730 1.499 . S
C2733 C2734 1.373 . S
C2733 C2735 1.389 . S
C2734 H2707 0.950 . S
C2734 C2720 1.377 . S
C2734 C2733 1.373 . S
C2735 C2719 1.377 . S
C2735 C2733 1.389 . S
C2735 C2736 1.524 . S
C2736 C2735 1.524 . S
C2736 C2737 1.397 . S
C2736 C2741 1.363 . S
C2737 H2708 0.950 . S
C2737 C2736 1.397 . S
C2737 C2738 1.334 . S
C2738 H2709 0.950 . S
C2738 C2737 1.334 . S
C2738 C2739 1.287 . S
C2739 C2738 1.287 . S
C2739 C2740 1.524 . S
C2739 H2742 0.999 . S
C2740 H2710 0.950 . S
C2740 C2739 1.524 . S
C2740 C2741 1.415 . S
C2741 H2711 0.950 . S
C2741 C2736 1.363 . S
C2741 C2740 1.415 . S
H2742 C2739 0.999 . S
H2743 C2724 0.913 . S
H2744 C2762 0.951 . S
H2745 C2764 0.951 . S
H2746 C2766 0.950 . S
H2747 C2767 0.950 . S
H2748 C2769 0.950 . S
H2749 C2772 0.950 . S
H2750 C2773 0.950 . S
H2751 C2775 0.950 . S
H2752 C2776 0.950 . S
H2753 C2777 0.951 . S
H2754 C2779 0.951 . S
H2755 C2781 0.950 . S
H2756 C2782 0.950 . S
H2757 C2784 0.950 . S
H2758 C2787 0.950 . S
H2759 C2788 0.950 . S
H2760 C2790 0.950 . S
H2761 C2791 0.950 . S
C2762 H2744 0.951 . S
C2762 C2763 1.366 . S
C2762 C2764 1.388 . S
C2763 C2762 1.366 . S
C2763 C2767 1.385 . S
C2764 H2745 0.951 . S
C2764 C2762 1.388 . S
C2764 C2765 1.366 . S
C2765 C2764 1.366 . S
C2765 C2766 1.414 . S
C2765 C2768 1.499 . S
C2766 H2746 0.950 . S
C2766 C2765 1.414 . S
C2766 C2767 1.374 . S
C2767 H2747 0.950 . S
C2767 C2763 1.385 . S
C2767 C2766 1.374 . S
C2768 C2765 1.499 . S
C2768 C2769 1.373 . S
C2768 C2770 1.389 . S
C2769 H2748 0.950 . S
C2769 C2768 1.373 . S
C2769 C2785 1.377 . S
C2770 C2768 1.389 . S
C2770 C2771 1.524 . S
C2770 C2784 1.377 . S
C2771 C2770 1.524 . S
C2771 C2772 1.397 . S
C2771 C2776 1.363 . S
C2772 H2749 0.950 . S
C2772 C2771 1.397 . S
C2772 C2773 1.334 . S
C2773 H2750 0.950 . S
C2773 C2772 1.334 . S
C2773 C2774 1.287 . S
C2774 C2773 1.287 . S
C2774 C2775 1.524 . S
C2774 H2793 0.913 . S
C2775 H2751 0.950 . S
C2775 C2774 1.524 . S
C2775 C2776 1.415 . S
C2776 H2752 0.950 . S
C2776 C2771 1.363 . S
C2776 C2775 1.415 . S
C2777 H2753 0.951 . S
C2777 C2778 1.366 . S
C2777 C2779 1.388 . S
C2778 C2777 1.366 . S
C2778 C2782 1.385 . S
C2779 H2754 0.951 . S
C2779 C2777 1.388 . S
C2779 C2780 1.366 . S
C2780 C2779 1.366 . S
C2780 C2781 1.414 . S
C2780 C2783 1.499 . S
C2781 H2755 0.950 . S
C2781 C2780 1.414 . S
C2781 C2782 1.374 . S
C2782 H2756 0.950 . S
C2782 C2778 1.385 . S
C2782 C2781 1.374 . S
C2783 C2780 1.499 . S
C2783 C2784 1.373 . S
C2783 C2785 1.389 . S
C2784 H2757 0.950 . S
C2784 C2770 1.377 . S
C2784 C2783 1.373 . S
C2785 C2769 1.377 . S
C2785 C2783 1.389 . S
C2785 C2786 1.524 . S
C2786 C2785 1.524 . S
C2786 C2787 1.397 . S
C2786 C2791 1.363 . S
C2787 H2758 0.950 . S
C2787 C2786 1.397 . S
C2787 C2788 1.334 . S
C2788 H2759 0.950 . S
C2788 C2787 1.334 . S
C2788 C2789 1.287 . S
C2789 C2788 1.287 . S
C2789 C2790 1.524 . S
C2789 H2792 0.999 . S
C2790 H2760 0.950 . S
C2790 C2789 1.524 . S
C2790 C2791 1.415 . S
C2791 H2761 0.950 . S
C2791 C2786 1.363 . S
C2791 C2790 1.415 . S
H2792 C2789 0.999 . S
H2793 C2774 0.913 . S
H2794 C2812 0.951 . S
H2795 C2814 0.951 . S
H2796 C2816 0.950 . S
H2797 C2817 0.950 . S
H2798 C2819 0.950 . S
H2799 C2822 0.950 . S
H2800 C2823 0.950 . S
H2801 C2825 0.950 . S
H2802 C2826 0.950 . S
H2803 C2827 0.951 . S
H2804 C2829 0.951 . S
H2805 C2831 0.950 . S
H2806 C2832 0.950 . S
H2807 C2834 0.950 . S
H2808 C2837 0.950 . S
H2809 C2838 0.950 . S
H2810 C2840 0.950 . S
H2811 C2841 0.950 . S
C2812 H2794 0.951 . S
C2812 C2813 1.366 . S
C2812 C2814 1.388 . S
C2813 C2812 1.366 . S
C2813 C2817 1.385 . S
C2814 H2795 0.951 . S
C2814 C2812 1.388 . S
C2814 C2815 1.366 . S
C2815 C2814 1.366 . S
C2815 C2816 1.414 . S
C2815 C2818 1.499 . S
C2816 H2796 0.950 . S
C2816 C2815 1.414 . S
C2816 C2817 1.374 . S
C2817 H2797 0.950 . S
C2817 C2813 1.385 . S
C2817 C2816 1.374 . S
C2818 C2815 1.499 . S
C2818 C2819 1.373 . S
C2818 C2820 1.389 . S
C2819 H2798 0.950 . S
C2819 C2818 1.373 . S
C2819 C2835 1.377 . S
C2820 C2818 1.389 . S
C2820 C2821 1.524 . S
C2820 C2834 1.377 . S
C2821 C2820 1.524 . S
C2821 C2822 1.397 . S
C2821 C2826 1.363 . S
C2822 H2799 0.950 . S
C2822 C2821 1.397 . S
C2822 C2823 1.334 . S
C2823 H2800 0.950 . S
C2823 C2822 1.334 . S
C2823 C2824 1.287 . S
C2824 C2823 1.287 . S
C2824 C2825 1.524 . S
C2824 H2843 0.913 . S
C2825 H2801 0.950 . S
C2825 C2824 1.524 . S
C2825 C2826 1.415 . S
C2826 H2802 0.950 . S
C2826 C2821 1.363 . S
C2826 C2825 1.415 . S
C2827 H2803 0.951 . S
C2827 C2828 1.366 . S
C2827 C2829 1.388 . S
C2828 C2827 1.366 . S
C2828 C2832 1.385 . S
C2829 H2804 0.951 . S
C2829 C2827 1.388 . S
C2829 C2830 1.366 . S
C2830 C2829 1.366 . S
C2830 C2831 1.414 . S
C2830 C2833 1.499 . S
C2831 H2805 0.950 . S
C2831 C2830 1.414 . S
C2831 C2832 1.374 . S
C2832 H2806 0.950 . S
C2832 C2828 1.385 . S
C2832 C2831 1.374 . S
C2833 C2830 1.499 . S
C2833 C2834 1.373 . S
C2833 C2835 1.389 . S
C2834 H2807 0.950 . S
C2834 C2820 1.377 . S
C2834 C2833 1.373 . S
C2835 C2819 1.377 . S
C2835 C2833 1.389 . S
C2835 C2836 1.524 . S
C2836 C2835 1.524 . S
C2836 C2837 1.397 . S
C2836 C2841 1.363 . S
C2837 H2808 0.950 . S
C2837 C2836 1.397 . S
C2837 C2838 1.334 . S
C2838 H2809 0.950 . S
C2838 C2837 1.334 . S
C2838 C2839 1.287 . S
C2839 C2838 1.287 . S
C2839 C2840 1.524 . S
C2839 H2842 0.999 . S
C2840 H2810 0.950 . S
C2840 C2839 1.524 . S
C2840 C2841 1.415 . S
C2841 H2811 0.950 . S
C2841 C2836 1.363 . S
C2841 C2840 1.415 . S
H2842 C2839 0.999 . S
H2843 C2824 0.913 . S
H2844 C2862 0.951 . S
H2845 C2864 0.951 . S
H2846 C2866 0.950 . S
H2847 C2867 0.950 . S
H2848 C2869 0.950 . S
H2849 C2872 0.950 . S
H2850 C2873 0.950 . S
H2851 C2875 0.950 . S
H2852 C2876 0.950 . S
H2853 C2877 0.951 . S
H2854 C2879 0.951 . S
H2855 C2881 0.950 . S
H2856 C2882 0.950 . S
H2857 C2884 0.950 . S
H2858 C2887 0.950 . S
H2859 C2888 0.950 . S
H2860 C2890 0.950 . S
H2861 C2891 0.950 . S
C2862 H2844 0.951 . S
C2862 C2863 1.366 . S
C2862 C2864 1.388 . S
C2863 C2862 1.366 . S
C2863 C2867 1.385 . S
C2864 H2845 0.951 . S
C2864 C2862 1.388 . S
C2864 C2865 1.366 . S
C2865 C2864 1.366 . S
C2865 C2866 1.414 . S
C2865 C2868 1.499 . S
C2866 H2846 0.950 . S
C2866 C2865 1.414 . S
C2866 C2867 1.374 . S
C2867 H2847 0.950 . S
C2867 C2863 1.385 . S
C2867 C2866 1.374 . S
C2868 C2865 1.499 . S
C2868 C2869 1.373 . S
C2868 C2870 1.389 . S
C2869 H2848 0.950 . S
C2869 C2868 1.373 . S
C2869 C2885 1.377 . S
C2870 C2868 1.389 . S
C2870 C2871 1.524 . S
C2870 C2884 1.377 . S
C2871 C2870 1.524 . S
C2871 C2872 1.397 . S
C2871 C2876 1.363 . S
C2872 H2849 0.950 . S
C2872 C2871 1.397 . S
C2872 C2873 1.334 . S
C2873 H2850 0.950 . S
C2873 C2872 1.334 . S
C2873 C2874 1.287 . S
C2874 C2873 1.287 . S
C2874 C2875 1.524 . S
C2874 H2893 0.913 . S
C2875 H2851 0.950 . S
C2875 C2874 1.524 . S
C2875 C2876 1.415 . S
C2876 H2852 0.950 . S
C2876 C2871 1.363 . S
C2876 C2875 1.415 . S
C2877 H2853 0.951 . S
C2877 C2878 1.366 . S
C2877 C2879 1.388 . S
C2878 C2877 1.366 . S
C2878 C2882 1.385 . S
C2879 H2854 0.951 . S
C2879 C2877 1.388 . S
C2879 C2880 1.366 . S
C2880 C2879 1.366 . S
C2880 C2881 1.414 . S
C2880 C2883 1.499 . S
C2881 H2855 0.950 . S
C2881 C2880 1.414 . S
C2881 C2882 1.374 . S
C2882 H2856 0.950 . S
C2882 C2878 1.385 . S
C2882 C2881 1.374 . S
C2883 C2880 1.499 . S
C2883 C2884 1.373 . S
C2883 C2885 1.389 . S
C2884 H2857 0.950 . S
C2884 C2870 1.377 . S
C2884 C2883 1.373 . S
C2885 C2869 1.377 . S
C2885 C2883 1.389 . S
C2885 C2886 1.524 . S
C2886 C2885 1.524 . S
C2886 C2887 1.397 . S
C2886 C2891 1.363 . S
C2887 H2858 0.950 . S
C2887 C2886 1.397 . S
C2887 C2888 1.334 . S
C2888 H2859 0.950 . S
C2888 C2887 1.334 . S
C2888 C2889 1.287 . S
C2889 C2888 1.287 . S
C2889 C2890 1.524 . S
C2889 H2892 0.999 . S
C2890 H2860 0.950 . S
C2890 C2889 1.524 . S
C2890 C2891 1.415 . S
C2891 H2861 0.950 . S
C2891 C2886 1.363 . S
C2891 C2890 1.415 . S
H2892 C2889 0.999 . S
H2893 C2874 0.913 . S
H2894 C2912 0.951 . S
H2895 C2914 0.951 . S
H2896 C2916 0.950 . S
H2897 C2917 0.950 . S
H2898 C2919 0.950 . S
H2899 C2922 0.950 . S
H2900 C2923 0.950 . S
H2901 C2925 0.950 . S
H2902 C2926 0.950 . S
H2903 C2927 0.951 . S
H2904 C2929 0.951 . S
H2905 C2931 0.950 . S
H2906 C2932 0.950 . S
H2907 C2934 0.950 . S
H2908 C2937 0.950 . S
H2909 C2938 0.950 . S
H2910 C2940 0.950 . S
H2911 C2941 0.950 . S
C2912 H2894 0.951 . S
C2912 C2913 1.366 . S
C2912 C2914 1.388 . S
C2913 C2912 1.366 . S
C2913 C2917 1.385 . S
C2914 H2895 0.951 . S
C2914 C2912 1.388 . S
C2914 C2915 1.366 . S
C2915 C2914 1.366 . S
C2915 C2916 1.414 . S
C2915 C2918 1.499 . S
C2916 H2896 0.950 . S
C2916 C2915 1.414 . S
C2916 C2917 1.374 . S
C2917 H2897 0.950 . S
C2917 C2913 1.385 . S
C2917 C2916 1.374 . S
C2918 C2915 1.499 . S
C2918 C2919 1.373 . S
C2918 C2920 1.389 . S
C2919 H2898 0.950 . S
C2919 C2918 1.373 . S
C2919 C2935 1.377 . S
C2920 C2918 1.389 . S
C2920 C2921 1.524 . S
C2920 C2934 1.377 . S
C2921 C2920 1.524 . S
C2921 C2922 1.397 . S
C2921 C2926 1.363 . S
C2922 H2899 0.950 . S
C2922 C2921 1.397 . S
C2922 C2923 1.334 . S
C2923 H2900 0.950 . S
C2923 C2922 1.334 . S
C2923 C2924 1.287 . S
C2924 C2923 1.287 . S
C2924 C2925 1.524 . S
C2924 H2943 0.913 . S
C2925 H2901 0.950 . S
C2925 C2924 1.524 . S
C2925 C2926 1.415 . S
C2926 H2902 0.950 . S
C2926 C2921 1.363 . S
C2926 C2925 1.415 . S
C2927 H2903 0.951 . S
C2927 C2928 1.366 . S
C2927 C2929 1.388 . S
C2928 C2927 1.366 . S
C2928 C2932 1.385 . S
C2929 H2904 0.951 . S
C2929 C2927 1.388 . S
C2929 C2930 1.366 . S
C2930 C2929 1.366 . S
C2930 C2931 1.414 . S
C2930 C2933 1.499 . S
C2931 H2905 0.950 . S
C2931 C2930 1.414 . S
C2931 C2932 1.374 . S
C2932 H2906 0.950 . S
C2932 C2928 1.385 . S
C2932 C2931 1.374 . S
C2933 C2930 1.499 . S
C2933 C2934 1.373 . S
C2933 C2935 1.389 . S
C2934 H2907 0.950 . S
C2934 C2920 1.377 . S
C2934 C2933 1.373 . S
C2935 C2919 1.377 . S
C2935 C2933 1.389 . S
C2935 C2936 1.524 . S
C2936 C2935 1.524 . S
C2936 C2937 1.397 . S
C2936 C2941 1.363 . S
C2937 H2908 0.950 . S
C2937 C2936 1.397 . S
C2937 C2938 1.334 . S
C2938 H2909 0.950 . S
C2938 C2937 1.334 . S
C2938 C2939 1.287 . S
C2939 C2938 1.287 . S
C2939 C2940 1.524 . S
C2939 H2942 0.999 . S
C2940 H2910 0.950 . S
C2940 C2939 1.524 . S
C2940 C2941 1.415 . S
C2941 H2911 0.950 . S
C2941 C2936 1.363 . S
C2941 C2940 1.415 . S
H2942 C2939 0.999 . S
H2943 C2924 0.913 . S
H2944 C2962 0.951 . S
H2945 C2964 0.951 . S
H2946 C2966 0.950 . S
H2947 C2967 0.950 . S
H2948 C2969 0.950 . S
H2949 C2972 0.950 . S
H2950 C2973 0.950 . S
H2951 C2975 0.950 . S
H2952 C2976 0.950 . S
H2953 C2977 0.951 . S
H2954 C2979 0.951 . S
H2955 C2981 0.950 . S
H2956 C2982 0.950 . S
H2957 C2984 0.950 . S
H2958 C2987 0.950 . S
H2959 C2988 0.950 . S
H2960 C2990 0.950 . S
H2961 C2991 0.950 . S
C2962 H2944 0.951 . S
C2962 C2963 1.366 . S
C2962 C2964 1.388 . S
C2963 C2962 1.366 . S
C2963 C2967 1.385 . S
C2964 H2945 0.951 . S
C2964 C2962 1.388 . S
C2964 C2965 1.366 . S
C2965 C2964 1.366 . S
C2965 C2966 1.414 . S
C2965 C2968 1.499 . S
C2966 H2946 0.950 . S
C2966 C2965 1.414 . S
C2966 C2967 1.374 . S
C2967 H2947 0.950 . S
C2967 C2963 1.385 . S
C2967 C2966 1.374 . S
C2968 C2965 1.499 . S
C2968 C2969 1.373 . S
C2968 C2970 1.389 . S
C2969 H2948 0.950 . S
C2969 C2968 1.373 . S
C2969 C2985 1.377 . S
C2970 C2968 1.389 . S
C2970 C2971 1.524 . S
C2970 C2984 1.377 . S
C2971 C2970 1.524 . S
C2971 C2972 1.397 . S
C2971 C2976 1.363 . S
C2972 H2949 0.950 . S
C2972 C2971 1.397 . S
C2972 C2973 1.334 . S
C2973 H2950 0.950 . S
C2973 C2972 1.334 . S
C2973 C2974 1.287 . S
C2974 C2973 1.287 . S
C2974 C2975 1.524 . S
C2974 H2993 0.913 . S
C2975 H2951 0.950 . S
C2975 C2974 1.524 . S
C2975 C2976 1.415 . S
C2976 H2952 0.950 . S
C2976 C2971 1.363 . S
C2976 C2975 1.415 . S
C2977 H2953 0.951 . S
C2977 C2978 1.366 . S
C2977 C2979 1.388 . S
C2978 C2977 1.366 . S
C2978 C2982 1.385 . S
C2979 H2954 0.951 . S
C2979 C2977 1.388 . S
C2979 C2980 1.366 . S
C2980 C2979 1.366 . S
C2980 C2981 1.414 . S
C2980 C2983 1.499 . S
C2981 H2955 0.950 . S
C2981 C2980 1.414 . S
C2981 C2982 1.374 . S
C2982 H2956 0.950 . S
C2982 C2978 1.385 . S
C2982 C2981 1.374 . S
C2983 C2980 1.499 . S
C2983 C2984 1.373 . S
C2983 C2985 1.389 . S
C2984 H2957 0.950 . S
C2984 C2970 1.377 . S
C2984 C2983 1.373 . S
C2985 C2969 1.377 . S
C2985 C2983 1.389 . S
C2985 C2986 1.524 . S
C2986 C2985 1.524 . S
C2986 C2987 1.397 . S
C2986 C2991 1.363 . S
C2987 H2958 0.950 . S
C2987 C2986 1.397 . S
C2987 C2988 1.334 . S
C2988 H2959 0.950 . S
C2988 C2987 1.334 . S
C2988 C2989 1.287 . S
C2989 C2988 1.287 . S
C2989 C2990 1.524 . S
C2989 H2992 0.999 . S
C2990 H2960 0.950 . S
C2990 C2989 1.524 . S
C2990 C2991 1.415 . S
C2991 H2961 0.950 . S
C2991 C2986 1.363 . S
C2991 C2990 1.415 . S
H2992 C2989 0.999 . S
H2993 C2974 0.913 . S
H2994 C3012 0.951 . S
H2995 C3014 0.951 . S
H2996 C3016 0.950 . S
H2997 C3017 0.950 . S
H2998 C3019 0.950 . S
H2999 C3022 0.950 . S
H3000 C3023 0.950 . S
H3001 C3025 0.950 . S
H3002 C3026 0.950 . S
H3003 C3027 0.951 . S
H3004 C3029 0.951 . S
H3005 C3031 0.950 . S
H3006 C3032 0.950 . S
H3007 C3034 0.950 . S
H3008 C3037 0.950 . S
H3009 C3038 0.950 . S
H3010 C3040 0.950 . S
H3011 C3041 0.950 . S
C3012 H2994 0.951 . S
C3012 C3013 1.366 . S
C3012 C3014 1.388 . S
C3013 C3012 1.366 . S
C3013 C3017 1.385 . S
C3014 H2995 0.951 . S
C3014 C3012 1.388 . S
C3014 C3015 1.366 . S
C3015 C3014 1.366 . S
C3015 C3016 1.414 . S
C3015 C3018 1.499 . S
C3016 H2996 0.950 . S
C3016 C3015 1.414 . S
C3016 C3017 1.374 . S
C3017 H2997 0.950 . S
C3017 C3013 1.385 . S
C3017 C3016 1.374 . S
C3018 C3015 1.499 . S
C3018 C3019 1.373 . S
C3018 C3020 1.389 . S
C3019 H2998 0.950 . S
C3019 C3018 1.373 . S
C3019 C3035 1.377 . S
C3020 C3018 1.389 . S
C3020 C3021 1.524 . S
C3020 C3034 1.377 . S
C3021 C3020 1.524 . S
C3021 C3022 1.397 . S
C3021 C3026 1.363 . S
C3022 H2999 0.950 . S
C3022 C3021 1.397 . S
C3022 C3023 1.334 . S
C3023 H3000 0.950 . S
C3023 C3022 1.334 . S
C3023 C3024 1.287 . S
C3024 C3023 1.287 . S
C3024 C3025 1.524 . S
C3024 H3043 0.913 . S
C3025 H3001 0.950 . S
C3025 C3024 1.524 . S
C3025 C3026 1.415 . S
C3026 H3002 0.950 . S
C3026 C3021 1.363 . S
C3026 C3025 1.415 . S
C3027 H3003 0.951 . S
C3027 C3028 1.366 . S
C3027 C3029 1.388 . S
C3028 C3027 1.366 . S
C3028 C3032 1.385 . S
C3029 H3004 0.951 . S
C3029 C3027 1.388 . S
C3029 C3030 1.366 . S
C3030 C3029 1.366 . S
C3030 C3031 1.414 . S
C3030 C3033 1.499 . S
C3031 H3005 0.950 . S
C3031 C3030 1.414 . S
C3031 C3032 1.374 . S
C3032 H3006 0.950 . S
C3032 C3028 1.385 . S
C3032 C3031 1.374 . S
C3033 C3030 1.499 . S
C3033 C3034 1.373 . S
C3033 C3035 1.389 . S
C3034 H3007 0.950 . S
C3034 C3020 1.377 . S
C3034 C3033 1.373 . S
C3035 C3019 1.377 . S
C3035 C3033 1.389 . S
C3035 C3036 1.524 . S
C3036 C3035 1.524 . S
C3036 C3037 1.397 . S
C3036 C3041 1.363 . S
C3037 H3008 0.950 . S
C3037 C3036 1.397 . S
C3037 C3038 1.334 . S
C3038 H3009 0.950 . S
C3038 C3037 1.334 . S
C3038 C3039 1.287 . S
C3039 C3038 1.287 . S
C3039 C3040 1.524 . S
C3039 H3042 0.999 . S
C3040 H3010 0.950 . S
C3040 C3039 1.524 . S
C3040 C3041 1.415 . S
C3041 H3011 0.950 . S
C3041 C3036 1.363 . S
C3041 C3040 1.415 . S
H3042 C3039 0.999 . S
H3043 C3024 0.913 . S
H3044 C3062 0.951 . S
H3045 C3064 0.951 . S
H3046 C3066 0.950 . S
H3047 C3067 0.950 . S
H3048 C3069 0.950 . S
H3049 C3072 0.950 . S
H3050 C3073 0.950 . S
H3051 C3075 0.950 . S
H3052 C3076 0.950 . S
H3053 C3077 0.951 . S
H3054 C3079 0.951 . S
H3055 C3081 0.950 . S
H3056 C3082 0.950 . S
H3057 C3084 0.950 . S
H3058 C3087 0.950 . S
H3059 C3088 0.950 . S
H3060 C3090 0.950 . S
H3061 C3091 0.950 . S
C3062 H3044 0.951 . S
C3062 C3063 1.366 . S
C3062 C3064 1.388 . S
C3063 C3062 1.366 . S
C3063 C3067 1.385 . S
C3064 H3045 0.951 . S
C3064 C3062 1.388 . S
C3064 C3065 1.366 . S
C3065 C3064 1.366 . S
C3065 C3066 1.414 . S
C3065 C3068 1.499 . S
C3066 H3046 0.950 . S
C3066 C3065 1.414 . S
C3066 C3067 1.374 . S
C3067 H3047 0.950 . S
C3067 C3063 1.385 . S
C3067 C3066 1.374 . S
C3068 C3065 1.499 . S
C3068 C3069 1.373 . S
C3068 C3070 1.389 . S
C3069 H3048 0.950 . S
C3069 C3068 1.373 . S
C3069 C3085 1.377 . S
C3070 C3068 1.389 . S
C3070 C3071 1.524 . S
C3070 C3084 1.377 . S
C3071 C3070 1.524 . S
C3071 C3072 1.397 . S
C3071 C3076 1.363 . S
C3072 H3049 0.950 . S
C3072 C3071 1.397 . S
C3072 C3073 1.334 . S
C3073 H3050 0.950 . S
C3073 C3072 1.334 . S
C3073 C3074 1.287 . S
C3074 C3073 1.287 . S
C3074 C3075 1.524 . S
C3074 H3093 0.913 . S
C3075 H3051 0.950 . S
C3075 C3074 1.524 . S
C3075 C3076 1.415 . S
C3076 H3052 0.950 . S
C3076 C3071 1.363 . S
C3076 C3075 1.415 . S
C3077 H3053 0.951 . S
C3077 C3078 1.366 . S
C3077 C3079 1.388 . S
C3078 C3077 1.366 . S
C3078 C3082 1.385 . S
C3079 H3054 0.951 . S
C3079 C3077 1.388 . S
C3079 C3080 1.366 . S
C3080 C3079 1.366 . S
C3080 C3081 1.414 . S
C3080 C3083 1.499 . S
C3081 H3055 0.950 . S
C3081 C3080 1.414 . S
C3081 C3082 1.374 . S
C3082 H3056 0.950 . S
C3082 C3078 1.385 . S
C3082 C3081 1.374 . S
C3083 C3080 1.499 . S
C3083 C3084 1.373 . S
C3083 C3085 1.389 . S
C3084 H3057 0.950 . S
C3084 C3070 1.377 . S
C3084 C3083 1.373 . S
C3085 C3069 1.377 . S
C3085 C3083 1.389 . S
C3085 C3086 1.524 . S
C3086 C3085 1.524 . S
C3086 C3087 1.397 . S
C3086 C3091 1.363 . S
C3087 H3058 0.950 . S
C3087 C3086 1.397 . S
C3087 C3088 1.334 . S
C3088 H3059 0.950 . S
C3088 C3087 1.334 . S
C3088 C3089 1.287 . S
C3089 C3088 1.287 . S
C3089 C3090 1.524 . S
C3089 H3092 0.999 . S
C3090 H3060 0.950 . S
C3090 C3089 1.524 . S
C3090 C3091 1.415 . S
C3091 H3061 0.950 . S
C3091 C3086 1.363 . S
C3091 C3090 1.415 . S
H3092 C3089 0.999 . S
H3093 C3074 0.913 . S
H3094 C3112 0.951 . S
H3095 C3114 0.951 . S
H3096 C3116 0.950 . S
H3097 C3117 0.950 . S
H3098 C3119 0.950 . S
H3099 C3122 0.950 . S
H3100 C3123 0.950 . S
H3101 C3125 0.950 . S
H3102 C3126 0.950 . S
H3103 C3127 0.951 . S
H3104 C3129 0.951 . S
H3105 C3131 0.950 . S
H3106 C3132 0.950 . S
H3107 C3134 0.950 . S
H3108 C3137 0.950 . S
H3109 C3138 0.950 . S
H3110 C3140 0.950 . S
H3111 C3141 0.950 . S
C3112 H3094 0.951 . S
C3112 C3113 1.366 . S
C3112 C3114 1.388 . S
C3113 C3112 1.366 . S
C3113 C3117 1.385 . S
C3114 H3095 0.951 . S
C3114 C3112 1.388 . S
C3114 C3115 1.366 . S
C3115 C3114 1.366 . S
C3115 C3116 1.414 . S
C3115 C3118 1.499 . S
C3116 H3096 0.950 . S
C3116 C3115 1.414 . S
C3116 C3117 1.374 . S
C3117 H3097 0.950 . S
C3117 C3113 1.385 . S
C3117 C3116 1.374 . S
C3118 C3115 1.499 . S
C3118 C3119 1.373 . S
C3118 C3120 1.389 . S
C3119 H3098 0.950 . S
C3119 C3118 1.373 . S
C3119 C3135 1.377 . S
C3120 C3118 1.389 . S
C3120 C3121 1.524 . S
C3120 C3134 1.377 . S
C3121 C3120 1.524 . S
C3121 C3122 1.397 . S
C3121 C3126 1.363 . S
C3122 H3099 0.950 . S
C3122 C3121 1.397 . S
C3122 C3123 1.334 . S
C3123 H3100 0.950 . S
C3123 C3122 1.334 . S
C3123 C3124 1.287 . S
C3124 C3123 1.287 . S
C3124 C3125 1.524 . S
C3124 H3143 0.913 . S
C3125 H3101 0.950 . S
C3125 C3124 1.524 . S
C3125 C3126 1.415 . S
C3126 H3102 0.950 . S
C3126 C3121 1.363 . S
C3126 C3125 1.415 . S
C3127 H3103 0.951 . S
C3127 C3128 1.366 . S
C3127 C3129 1.388 . S
C3128 C3127 1.366 . S
C3128 C3132 1.385 . S
C3129 H3104 0.951 . S
C3129 C3127 1.388 . S
C3129 C3130 1.366 . S
C3130 C3129 1.366 . S
C3130 C3131 1.414 . S
C3130 C3133 1.499 . S
C3131 H3105 0.950 . S
C3131 C3130 1.414 . S
C3131 C3132 1.374 . S
C3132 H3106 0.950 . S
C3132 C3128 1.385 . S
C3132 C3131 1.374 . S
C3133 C3130 1.499 . S
C3133 C3134 1.373 . S
C3133 C3135 1.389 . S
C3134 H3107 0.950 . S
C3134 C3120 1.377 . S
C3134 C3133 1.373 . S
C3135 C3119 1.377 . S
C3135 C3133 1.389 . S
C3135 C3136 1.524 . S
C3136 C3135 1.524 . S
C3136 C3137 1.397 . S
C3136 C3141 1.363 . S
C3137 H3108 0.950 . S
C3137 C3136 1.397 . S
C3137 C3138 1.334 . S
C3138 H3109 0.950 . S
C3138 C3137 1.334 . S
C3138 C3139 1.287 . S
C3139 C3138 1.287 . S
C3139 C3140 1.524 . S
C3139 H3142 0.999 . S
C3140 H3110 0.950 . S
C3140 C3139 1.524 . S
C3140 C3141 1.415 . S
C3141 H3111 0.950 . S
C3141 C3136 1.363 . S
C3141 C3140 1.415 . S
H3142 C3139 0.999 . S
H3143 C3124 0.913 . S
H3144 C3162 0.951 . S
H3145 C3164 0.951 . S
H3146 C3166 0.950 . S
H3147 C3167 0.950 . S
H3148 C3169 0.950 . S
H3149 C3172 0.950 . S
H3150 C3173 0.950 . S
H3151 C3175 0.950 . S
H3152 C3176 0.950 . S
H3153 C3177 0.951 . S
H3154 C3179 0.951 . S
H3155 C3181 0.950 . S
H3156 C3182 0.950 . S
H3157 C3184 0.950 . S
H3158 C3187 0.950 . S
H3159 C3188 0.950 . S
H3160 C3190 0.950 . S
H3161 C3191 0.950 . S
C3162 H3144 0.951 . S
C3162 C3163 1.366 . S
C3162 C3164 1.388 . S
C3163 C3162 1.366 . S
C3163 C3167 1.385 . S
C3164 H3145 0.951 . S
C3164 C3162 1.388 . S
C3164 C3165 1.366 . S
C3165 C3164 1.366 . S
C3165 C3166 1.414 . S
C3165 C3168 1.499 . S
C3166 H3146 0.950 . S
C3166 C3165 1.414 . S
C3166 C3167 1.374 . S
C3167 H3147 0.950 . S
C3167 C3163 1.385 . S
C3167 C3166 1.374 . S
C3168 C3165 1.499 . S
C3168 C3169 1.373 . S
C3168 C3170 1.389 . S
C3169 H3148 0.950 . S
C3169 C3168 1.373 . S
C3169 C3185 1.377 . S
C3170 C3168 1.389 . S
C3170 C3171 1.524 . S
C3170 C3184 1.377 . S
C3171 C3170 1.524 . S
C3171 C3172 1.397 . S
C3171 C3176 1.363 . S
C3172 H3149 0.950 . S
C3172 C3171 1.397 . S
C3172 C3173 1.334 . S
C3173 H3150 0.950 . S
C3173 C3172 1.334 . S
C3173 C3174 1.287 . S
C3174 C3173 1.287 . S
C3174 C3175 1.524 . S
C3174 H3193 0.913 . S
C3175 H3151 0.950 . S
C3175 C3174 1.524 . S
C3175 C3176 1.415 . S
C3176 H3152 0.950 . S
C3176 C3171 1.363 . S
C3176 C3175 1.415 . S
C3177 H3153 0.951 . S
C3177 C3178 1.366 . S
C3177 C3179 1.388 . S
C3178 C3177 1.366 . S
C3178 C3182 1.385 . S
C3179 H3154 0.951 . S
C3179 C3177 1.388 . S
C3179 C3180 1.366 . S
C3180 C3179 1.366 . S
C3180 C3181 1.414 . S
C3180 C3183 1.499 . S
C3181 H3155 0.950 . S
C3181 C3180 1.414 . S
C3181 C3182 1.374 . S
C3182 H3156 0.950 . S
C3182 C3178 1.385 . S
C3182 C3181 1.374 . S
C3183 C3180 1.499 . S
C3183 C3184 1.373 . S
C3183 C3185 1.389 . S
C3184 H3157 0.950 . S
C3184 C3170 1.377 . S
C3184 C3183 1.373 . S
C3185 C3169 1.377 . S
C3185 C3183 1.389 . S
C3185 C3186 1.524 . S
C3186 C3185 1.524 . S
C3186 C3187 1.397 . S
C3186 C3191 1.363 . S
C3187 H3158 0.950 . S
C3187 C3186 1.397 . S
C3187 C3188 1.334 . S
C3188 H3159 0.950 . S
C3188 C3187 1.334 . S
C3188 C3189 1.287 . S
C3189 C3188 1.287 . S
C3189 C3190 1.524 . S
C3189 H3192 0.999 . S
C3190 H3160 0.950 . S
C3190 C3189 1.524 . S
C3190 C3191 1.415 . S
C3191 H3161 0.950 . S
C3191 C3186 1.363 . S
C3191 C3190 1.415 . S
H3192 C3189 0.999 . S
H3193 C3174 0.913 . S
H3194 C3212 0.951 . S
H3195 C3214 0.951 . S
H3196 C3216 0.950 . S
H3197 C3217 0.950 . S
H3198 C3219 0.950 . S
H3199 C3222 0.950 . S
H3200 C3223 0.950 . S
H3201 C3225 0.950 . S
H3202 C3226 0.950 . S
H3203 C3227 0.951 . S
H3204 C3229 0.951 . S
H3205 C3231 0.950 . S
H3206 C3232 0.950 . S
H3207 C3234 0.950 . S
H3208 C3237 0.950 . S
H3209 C3238 0.950 . S
H3210 C3240 0.950 . S
H3211 C3241 0.950 . S
C3212 H3194 0.951 . S
C3212 C3213 1.366 . S
C3212 C3214 1.388 . S
C3213 C3212 1.366 . S
C3213 C3217 1.385 . S
C3214 H3195 0.951 . S
C3214 C3212 1.388 . S
C3214 C3215 1.366 . S
C3215 C3214 1.366 . S
C3215 C3216 1.414 . S
C3215 C3218 1.499 . S
C3216 H3196 0.950 . S
C3216 C3215 1.414 . S
C3216 C3217 1.374 . S
C3217 H3197 0.950 . S
C3217 C3213 1.385 . S
C3217 C3216 1.374 . S
C3218 C3215 1.499 . S
C3218 C3219 1.373 . S
C3218 C3220 1.389 . S
C3219 H3198 0.950 . S
C3219 C3218 1.373 . S
C3219 C3235 1.377 . S
C3220 C3218 1.389 . S
C3220 C3221 1.524 . S
C3220 C3234 1.377 . S
C3221 C3220 1.524 . S
C3221 C3222 1.397 . S
C3221 C3226 1.363 . S
C3222 H3199 0.950 . S
C3222 C3221 1.397 . S
C3222 C3223 1.334 . S
C3223 H3200 0.950 . S
C3223 C3222 1.334 . S
C3223 C3224 1.287 . S
C3224 C3223 1.287 . S
C3224 C3225 1.524 . S
C3224 H3243 0.913 . S
C3225 H3201 0.950 . S
C3225 C3224 1.524 . S
C3225 C3226 1.415 . S
C3226 H3202 0.950 . S
C3226 C3221 1.363 . S
C3226 C3225 1.415 . S
C3227 H3203 0.951 . S
C3227 C3228 1.366 . S
C3227 C3229 1.388 . S
C3228 C3227 1.366 . S
C3228 C3232 1.385 . S
C3229 H3204 0.951 . S
C3229 C3227 1.388 . S
C3229 C3230 1.366 . S
C3230 C3229 1.366 . S
C3230 C3231 1.414 . S
C3230 C3233 1.499 . S
C3231 H3205 0.950 . S
C3231 C3230 1.414 . S
C3231 C3232 1.374 . S
C3232 H3206 0.950 . S
C3232 C3228 1.385 . S
C3232 C3231 1.374 . S
C3233 C3230 1.499 . S
C3233 C3234 1.373 . S
C3233 C3235 1.389 . S
C3234 H3207 0.950 . S
C3234 C3220 1.377 . S
C3234 C3233 1.373 . S
C3235 C3219 1.377 . S
C3235 C3233 1.389 . S
C3235 C3236 1.524 . S
C3236 C3235 1.524 . S
C3236 C3237 1.397 . S
C3236 C3241 1.363 . S
C3237 H3208 0.950 . S
C3237 C3236 1.397 . S
C3237 C3238 1.334 . S
C3238 H3209 0.950 . S
C3238 C3237 1.334 . S
C3238 C3239 1.287 . S
C3239 C3238 1.287 . S
C3239 C3240 1.524 . S
C3239 H3242 0.999 . S
C3240 H3210 0.950 . S
C3240 C3239 1.524 . S
C3240 C3241 1.415 . S
C3241 H3211 0.950 . S
C3241 C3236 1.363 . S
C3241 C3240 1.415 . S
H3242 C3239 0.999 . S
H3243 C3224 0.913 . S
H3244 C3262 0.951 . S
H3245 C3264 0.951 . S
H3246 C3266 0.950 . S
H3247 C3267 0.950 . S
H3248 C3269 0.950 . S
H3249 C3272 0.950 . S
H3250 C3273 0.950 . S
H3251 C3275 0.950 . S
H3252 C3276 0.950 . S
H3253 C3277 0.951 . S
H3254 C3279 0.951 . S
H3255 C3281 0.950 . S
H3256 C3282 0.950 . S
H3257 C3284 0.950 . S
H3258 C3287 0.950 . S
H3259 C3288 0.950 . S
H3260 C3290 0.950 . S
H3261 C3291 0.950 . S
C3262 H3244 0.951 . S
C3262 C3263 1.366 . S
C3262 C3264 1.388 . S
C3263 C3262 1.366 . S
C3263 C3267 1.385 . S
C3264 H3245 0.951 . S
C3264 C3262 1.388 . S
C3264 C3265 1.366 . S
C3265 C3264 1.366 . S
C3265 C3266 1.414 . S
C3265 C3268 1.499 . S
C3266 H3246 0.950 . S
C3266 C3265 1.414 . S
C3266 C3267 1.374 . S
C3267 H3247 0.950 . S
C3267 C3263 1.385 . S
C3267 C3266 1.374 . S
C3268 C3265 1.499 . S
C3268 C3269 1.373 . S
C3268 C3270 1.389 . S
C3269 H3248 0.950 . S
C3269 C3268 1.373 . S
C3269 C3285 1.377 . S
C3270 C3268 1.389 . S
C3270 C3271 1.524 . S
C3270 C3284 1.377 . S
C3271 C3270 1.524 . S
C3271 C3272 1.397 . S
C3271 C3276 1.363 . S
C3272 H3249 0.950 . S
C3272 C3271 1.397 . S
C3272 C3273 1.334 . S
C3273 H3250 0.950 . S
C3273 C3272 1.334 . S
C3273 C3274 1.287 . S
C3274 C3273 1.287 . S
C3274 C3275 1.524 . S
C3274 H3293 0.913 . S
C3275 H3251 0.950 . S
C3275 C3274 1.524 . S
C3275 C3276 1.415 . S
C3276 H3252 0.950 . S
C3276 C3271 1.363 . S
C3276 C3275 1.415 . S
C3277 H3253 0.951 . S
C3277 C3278 1.366 . S
C3277 C3279 1.388 . S
C3278 C3277 1.366 . S
C3278 C3282 1.385 . S
C3279 H3254 0.951 . S
C3279 C3277 1.388 . S
C3279 C3280 1.366 . S
C3280 C3279 1.366 . S
C3280 C3281 1.414 . S
C3280 C3283 1.499 . S
C3281 H3255 0.950 . S
C3281 C3280 1.414 . S
C3281 C3282 1.374 . S
C3282 H3256 0.950 . S
C3282 C3278 1.385 . S
C3282 C3281 1.374 . S
C3283 C3280 1.499 . S
C3283 C3284 1.373 . S
C3283 C3285 1.389 . S
C3284 H3257 0.950 . S
C3284 C3270 1.377 . S
C3284 C3283 1.373 . S
C3285 C3269 1.377 . S
C3285 C3283 1.389 . S
C3285 C3286 1.524 . S
C3286 C3285 1.524 . S
C3286 C3287 1.397 . S
C3286 C3291 1.363 . S
C3287 H3258 0.950 . S
C3287 C3286 1.397 . S
C3287 C3288 1.334 . S
C3288 H3259 0.950 . S
C3288 C3287 1.334 . S
C3288 C3289 1.287 . S
C3289 C3288 1.287 . S
C3289 C3290 1.524 . S
C3289 H3292 0.999 . S
C3290 H3260 0.950 . S
C3290 C3289 1.524 . S
C3290 C3291 1.415 . S
C3291 H3261 0.950 . S
C3291 C3286 1.363 . S
C3291 C3290 1.415 . S
H3292 C3289 0.999 . S
H3293 C3274 0.913 . S
H3294 C3312 0.951 . S
H3295 C3314 0.951 . S
H3296 C3316 0.950 . S
H3297 C3317 0.950 . S
H3298 C3319 0.950 . S
H3299 C3322 0.950 . S
H3300 C3323 0.950 . S
H3301 C3325 0.950 . S
H3302 C3326 0.950 . S
H3303 C3327 0.951 . S
H3304 C3329 0.951 . S
H3305 C3331 0.950 . S
H3306 C3332 0.950 . S
H3307 C3334 0.950 . S
H3308 C3337 0.950 . S
H3309 C3338 0.950 . S
H3310 C3340 0.950 . S
H3311 C3341 0.950 . S
C3312 H3294 0.951 . S
C3312 C3313 1.366 . S
C3312 C3314 1.388 . S
C3313 C3312 1.366 . S
C3313 C3317 1.385 . S
C3314 H3295 0.951 . S
C3314 C3312 1.388 . S
C3314 C3315 1.366 . S
C3315 C3314 1.366 . S
C3315 C3316 1.414 . S
C3315 C3318 1.499 . S
C3316 H3296 0.950 . S
C3316 C3315 1.414 . S
C3316 C3317 1.374 . S
C3317 H3297 0.950 . S
C3317 C3313 1.385 . S
C3317 C3316 1.374 . S
C3318 C3315 1.499 . S
C3318 C3319 1.373 . S
C3318 C3320 1.389 . S
C3319 H3298 0.950 . S
C3319 C3318 1.373 . S
C3319 C3335 1.377 . S
C3320 C3318 1.389 . S
C3320 C3321 1.524 . S
C3320 C3334 1.377 . S
C3321 C3320 1.524 . S
C3321 C3322 1.397 . S
C3321 C3326 1.363 . S
C3322 H3299 0.950 . S
C3322 C3321 1.397 . S
C3322 C3323 1.334 . S
C3323 H3300 0.950 . S
C3323 C3322 1.334 . S
C3323 C3324 1.287 . S
C3324 C3323 1.287 . S
C3324 C3325 1.524 . S
C3324 H3343 0.913 . S
C3325 H3301 0.950 . S
C3325 C3324 1.524 . S
C3325 C3326 1.415 . S
C3326 H3302 0.950 . S
C3326 C3321 1.363 . S
C3326 C3325 1.415 . S
C3327 H3303 0.951 . S
C3327 C3328 1.366 . S
C3327 C3329 1.388 . S
C3328 C3327 1.366 . S
C3328 C3332 1.385 . S
C3329 H3304 0.951 . S
C3329 C3327 1.388 . S
C3329 C3330 1.366 . S
C3330 C3329 1.366 . S
C3330 C3331 1.414 . S
C3330 C3333 1.499 . S
C3331 H3305 0.950 . S
C3331 C3330 1.414 . S
C3331 C3332 1.374 . S
C3332 H3306 0.950 . S
C3332 C3328 1.385 . S
C3332 C3331 1.374 . S
C3333 C3330 1.499 . S
C3333 C3334 1.373 . S
C3333 C3335 1.389 . S
C3334 H3307 0.950 . S
C3334 C3320 1.377 . S
C3334 C3333 1.373 . S
C3335 C3319 1.377 . S
C3335 C3333 1.389 . S
C3335 C3336 1.524 . S
C3336 C3335 1.524 . S
C3336 C3337 1.397 . S
C3336 C3341 1.363 . S
C3337 H3308 0.950 . S
C3337 C3336 1.397 . S
C3337 C3338 1.334 . S
C3338 H3309 0.950 . S
C3338 C3337 1.334 . S
C3338 C3339 1.287 . S
C3339 C3338 1.287 . S
C3339 C3340 1.524 . S
C3339 H3342 0.999 . S
C3340 H3310 0.950 . S
C3340 C3339 1.524 . S
C3340 C3341 1.415 . S
C3341 H3311 0.950 . S
C3341 C3336 1.363 . S
C3341 C3340 1.415 . S
H3342 C3339 0.999 . S
H3343 C3324 0.913 . S
H3344 C3362 0.951 . S
H3345 C3364 0.951 . S
H3346 C3366 0.950 . S
H3347 C3367 0.950 . S
H3348 C3369 0.950 . S
H3349 C3372 0.950 . S
H3350 C3373 0.950 . S
H3351 C3375 0.950 . S
H3352 C3376 0.950 . S
H3353 C3377 0.951 . S
H3354 C3379 0.951 . S
H3355 C3381 0.950 . S
H3356 C3382 0.950 . S
H3357 C3384 0.950 . S
H3358 C3387 0.950 . S
H3359 C3388 0.950 . S
H3360 C3390 0.950 . S
H3361 C3391 0.950 . S
C3362 H3344 0.951 . S
C3362 C3363 1.366 . S
C3362 C3364 1.388 . S
C3363 C3362 1.366 . S
C3363 C3367 1.385 . S
C3364 H3345 0.951 . S
C3364 C3362 1.388 . S
C3364 C3365 1.366 . S
C3365 C3364 1.366 . S
C3365 C3366 1.414 . S
C3365 C3368 1.499 . S
C3366 H3346 0.950 . S
C3366 C3365 1.414 . S
C3366 C3367 1.374 . S
C3367 H3347 0.950 . S
C3367 C3363 1.385 . S
C3367 C3366 1.374 . S
C3368 C3365 1.499 . S
C3368 C3369 1.373 . S
C3368 C3370 1.389 . S
C3369 H3348 0.950 . S
C3369 C3368 1.373 . S
C3369 C3385 1.377 . S
C3370 C3368 1.389 . S
C3370 C3371 1.524 . S
C3370 C3384 1.377 . S
C3371 C3370 1.524 . S
C3371 C3372 1.397 . S
C3371 C3376 1.363 . S
C3372 H3349 0.950 . S
C3372 C3371 1.397 . S
C3372 C3373 1.334 . S
C3373 H3350 0.950 . S
C3373 C3372 1.334 . S
C3373 C3374 1.287 . S
C3374 C3373 1.287 . S
C3374 C3375 1.524 . S
C3374 H3393 0.913 . S
C3375 H3351 0.950 . S
C3375 C3374 1.524 . S
C3375 C3376 1.415 . S
C3376 H3352 0.950 . S
C3376 C3371 1.363 . S
C3376 C3375 1.415 . S
C3377 H3353 0.951 . S
C3377 C3378 1.366 . S
C3377 C3379 1.388 . S
C3378 C3377 1.366 . S
C3378 C3382 1.385 . S
C3379 H3354 0.951 . S
C3379 C3377 1.388 . S
C3379 C3380 1.366 . S
C3380 C3379 1.366 . S
C3380 C3381 1.414 . S
C3380 C3383 1.499 . S
C3381 H3355 0.950 . S
C3381 C3380 1.414 . S
C3381 C3382 1.374 . S
C3382 H3356 0.950 . S
C3382 C3378 1.385 . S
C3382 C3381 1.374 . S
C3383 C3380 1.499 . S
C3383 C3384 1.373 . S
C3383 C3385 1.389 . S
C3384 H3357 0.950 . S
C3384 C3370 1.377 . S
C3384 C3383 1.373 . S
C3385 C3369 1.377 . S
C3385 C3383 1.389 . S
C3385 C3386 1.524 . S
C3386 C3385 1.524 . S
C3386 C3387 1.397 . S
C3386 C3391 1.363 . S
C3387 H3358 0.950 . S
C3387 C3386 1.397 . S
C3387 C3388 1.334 . S
C3388 H3359 0.950 . S
C3388 C3387 1.334 . S
C3388 C3389 1.287 . S
C3389 C3388 1.287 . S
C3389 C3390 1.524 . S
C3389 H3392 0.999 . S
C3390 H3360 0.950 . S
C3390 C3389 1.524 . S
C3390 C3391 1.415 . S
C3391 H3361 0.950 . S
C3391 C3386 1.363 . S
C3391 C3390 1.415 . S
H3392 C3389 0.999 . S
H3393 C3374 0.913 . S
H3394 C3412 0.951 . S
H3395 C3414 0.951 . S
H3396 C3416 0.950 . S
H3397 C3417 0.950 . S
H3398 C3419 0.950 . S
H3399 C3422 0.950 . S
H3400 C3423 0.950 . S
H3401 C3425 0.950 . S
H3402 C3426 0.950 . S
H3403 C3427 0.951 . S
H3404 C3429 0.951 . S
H3405 C3431 0.950 . S
H3406 C3432 0.950 . S
H3407 C3434 0.950 . S
H3408 C3437 0.950 . S
H3409 C3438 0.950 . S
H3410 C3440 0.950 . S
H3411 C3441 0.950 . S
C3412 H3394 0.951 . S
C3412 C3413 1.366 . S
C3412 C3414 1.388 . S
C3413 C3412 1.366 . S
C3413 C3417 1.385 . S
C3414 H3395 0.951 . S
C3414 C3412 1.388 . S
C3414 C3415 1.366 . S
C3415 C3414 1.366 . S
C3415 C3416 1.414 . S
C3415 C3418 1.499 . S
C3416 H3396 0.950 . S
C3416 C3415 1.414 . S
C3416 C3417 1.374 . S
C3417 H3397 0.950 . S
C3417 C3413 1.385 . S
C3417 C3416 1.374 . S
C3418 C3415 1.499 . S
C3418 C3419 1.373 . S
C3418 C3420 1.389 . S
C3419 H3398 0.950 . S
C3419 C3418 1.373 . S
C3419 C3435 1.377 . S
C3420 C3418 1.389 . S
C3420 C3421 1.524 . S
C3420 C3434 1.377 . S
C3421 C3420 1.524 . S
C3421 C3422 1.397 . S
C3421 C3426 1.363 . S
C3422 H3399 0.950 . S
C3422 C3421 1.397 . S
C3422 C3423 1.334 . S
C3423 H3400 0.950 . S
C3423 C3422 1.334 . S
C3423 C3424 1.287 . S
C3424 C3423 1.287 . S
C3424 C3425 1.524 . S
C3424 H3443 0.913 . S
C3425 H3401 0.950 . S
C3425 C3424 1.524 . S
C3425 C3426 1.415 . S
C3426 H3402 0.950 . S
C3426 C3421 1.363 . S
C3426 C3425 1.415 . S
C3427 H3403 0.951 . S
C3427 C3428 1.366 . S
C3427 C3429 1.388 . S
C3428 C3427 1.366 . S
C3428 C3432 1.385 . S
C3429 H3404 0.951 . S
C3429 C3427 1.388 . S
C3429 C3430 1.366 . S
C3430 C3429 1.366 . S
C3430 C3431 1.414 . S
C3430 C3433 1.499 . S
C3431 H3405 0.950 . S
C3431 C3430 1.414 . S
C3431 C3432 1.374 . S
C3432 H3406 0.950 . S
C3432 C3428 1.385 . S
C3432 C3431 1.374 . S
C3433 C3430 1.499 . S
C3433 C3434 1.373 . S
C3433 C3435 1.389 . S
C3434 H3407 0.950 . S
C3434 C3420 1.377 . S
C3434 C3433 1.373 . S
C3435 C3419 1.377 . S
C3435 C3433 1.389 . S
C3435 C3436 1.524 . S
C3436 C3435 1.524 . S
C3436 C3437 1.397 . S
C3436 C3441 1.363 . S
C3437 H3408 0.950 . S
C3437 C3436 1.397 . S
C3437 C3438 1.334 . S
C3438 H3409 0.950 . S
C3438 C3437 1.334 . S
C3438 C3439 1.287 . S
C3439 C3438 1.287 . S
C3439 C3440 1.524 . S
C3439 H3442 0.999 . S
C3440 H3410 0.950 . S
C3440 C3439 1.524 . S
C3440 C3441 1.415 . S
C3441 H3411 0.950 . S
C3441 C3436 1.363 . S
C3441 C3440 1.415 . S
H3442 C3439 0.999 . S
H3443 C3424 0.913 . S
H3444 C3462 0.951 . S
H3445 C3464 0.951 . S
H3446 C3466 0.950 . S
H3447 C3467 0.950 . S
H3448 C3469 0.950 . S
H3449 C3472 0.950 . S
H3450 C3473 0.950 . S
H3451 C3475 0.950 . S
H3452 C3476 0.950 . S
H3453 C3477 0.951 . S
H3454 C3479 0.951 . S
H3455 C3481 0.950 . S
H3456 C3482 0.950 . S
H3457 C3484 0.950 . S
H3458 C3487 0.950 . S
H3459 C3488 0.950 . S
H3460 C3490 0.950 . S
H3461 C3491 0.950 . S
C3462 H3444 0.951 . S
C3462 C3463 1.366 . S
C3462 C3464 1.388 . S
C3463 C3462 1.366 . S
C3463 C3467 1.385 . S
C3464 H3445 0.951 . S
C3464 C3462 1.388 . S
C3464 C3465 1.366 . S
C3465 C3464 1.366 . S
C3465 C3466 1.414 . S
C3465 C3468 1.499 . S
C3466 H3446 0.950 . S
C3466 C3465 1.414 . S
C3466 C3467 1.374 . S
C3467 H3447 0.950 . S
C3467 C3463 1.385 . S
C3467 C3466 1.374 . S
C3468 C3465 1.499 . S
C3468 C3469 1.373 . S
C3468 C3470 1.389 . S
C3469 H3448 0.950 . S
C3469 C3468 1.373 . S
C3469 C3485 1.377 . S
C3470 C3468 1.389 . S
C3470 C3471 1.524 . S
C3470 C3484 1.377 . S
C3471 C3470 1.524 . S
C3471 C3472 1.397 . S
C3471 C3476 1.363 . S
C3472 H3449 0.950 . S
C3472 C3471 1.397 . S
C3472 C3473 1.334 . S
C3473 H3450 0.950 . S
C3473 C3472 1.334 . S
C3473 C3474 1.287 . S
C3474 C3473 1.287 . S
C3474 C3475 1.524 . S
C3474 H3493 0.913 . S
C3475 H3451 0.950 . S
C3475 C3474 1.524 . S
C3475 C3476 1.415 . S
C3476 H3452 0.950 . S
C3476 C3471 1.363 . S
C3476 C3475 1.415 . S
C3477 H3453 0.951 . S
C3477 C3478 1.366 . S
C3477 C3479 1.388 . S
C3478 C3477 1.366 . S
C3478 C3482 1.385 . S
C3479 H3454 0.951 . S
C3479 C3477 1.388 . S
C3479 C3480 1.366 . S
C3480 C3479 1.366 . S
C3480 C3481 1.414 . S
C3480 C3483 1.499 . S
C3481 H3455 0.950 . S
C3481 C3480 1.414 . S
C3481 C3482 1.374 . S
C3482 H3456 0.950 . S
C3482 C3478 1.385 . S
C3482 C3481 1.374 . S
C3483 C3480 1.499 . S
C3483 C3484 1.373 . S
C3483 C3485 1.389 . S
C3484 H3457 0.950 . S
C3484 C3470 1.377 . S
C3484 C3483 1.373 . S
C3485 C3469 1.377 . S
C3485 C3483 1.389 . S
C3485 C3486 1.524 . S
C3486 C3485 1.524 . S
C3486 C3487 1.397 . S
C3486 C3491 1.363 . S
C3487 H3458 0.950 . S
C3487 C3486 1.397 . S
C3487 C3488 1.334 . S
C3488 H3459 0.950 . S
C3488 C3487 1.334 . S
C3488 C3489 1.287 . S
C3489 C3488 1.287 . S
C3489 C3490 1.524 . S
C3489 H3492 0.999 . S
C3490 H3460 0.950 . S
C3490 C3489 1.524 . S
C3490 C3491 1.415 . S
C3491 H3461 0.950 . S
C3491 C3486 1.363 . S
C3491 C3490 1.415 . S
H3492 C3489 0.999 . S
H3493 C3474 0.913 . S
H3494 C3512 0.951 . S
H3495 C3514 0.951 . S
H3496 C3516 0.950 . S
H3497 C3517 0.950 . S
H3498 C3519 0.950 . S
H3499 C3522 0.950 . S
H3500 C3523 0.950 . S
H3501 C3525 0.950 . S
H3502 C3526 0.950 . S
H3503 C3527 0.951 . S
H3504 C3529 0.951 . S
H3505 C3531 0.950 . S
H3506 C3532 0.950 . S
H3507 C3534 0.950 . S
H3508 C3537 0.950 . S
H3509 C3538 0.950 . S
H3510 C3540 0.950 . S
H3511 C3541 0.950 . S
C3512 H3494 0.951 . S
C3512 C3513 1.366 . S
C3512 C3514 1.388 . S
C3513 C3512 1.366 . S
C3513 C3517 1.385 . S
C3514 H3495 0.951 . S
C3514 C3512 1.388 . S
C3514 C3515 1.366 . S
C3515 C3514 1.366 . S
C3515 C3516 1.414 . S
C3515 C3518 1.499 . S
C3516 H3496 0.950 . S
C3516 C3515 1.414 . S
C3516 C3517 1.374 . S
C3517 H3497 0.950 . S
C3517 C3513 1.385 . S
C3517 C3516 1.374 . S
C3518 C3515 1.499 . S
C3518 C3519 1.373 . S
C3518 C3520 1.389 . S
C3519 H3498 0.950 . S
C3519 C3518 1.373 . S
C3519 C3535 1.377 . S
C3520 C3518 1.389 . S
C3520 C3521 1.524 . S
C3520 C3534 1.377 . S
C3521 C3520 1.524 . S
C3521 C3522 1.397 . S
C3521 C3526 1.363 . S
C3522 H3499 0.950 . S
C3522 C3521 1.397 . S
C3522 C3523 1.334 . S
C3523 H3500 0.950 . S
C3523 C3522 1.334 . S
C3523 C3524 1.287 . S
C3524 C3523 1.287 . S
C3524 C3525 1.524 . S
C3524 H3543 0.913 . S
C3525 H3501 0.950 . S
C3525 C3524 1.524 . S
C3525 C3526 1.415 . S
C3526 H3502 0.950 . S
C3526 C3521 1.363 . S
C3526 C3525 1.415 . S
C3527 H3503 0.951 . S
C3527 C3528 1.366 . S
C3527 C3529 1.388 . S
C3528 C3527 1.366 . S
C3528 C3532 1.385 . S
C3529 H3504 0.951 . S
C3529 C3527 1.388 . S
C3529 C3530 1.366 . S
C3530 C3529 1.366 . S
C3530 C3531 1.414 . S
C3530 C3533 1.499 . S
C3531 H3505 0.950 . S
C3531 C3530 1.414 . S
C3531 C3532 1.374 . S
C3532 H3506 0.950 . S
C3532 C3528 1.385 . S
C3532 C3531 1.374 . S
C3533 C3530 1.499 . S
C3533 C3534 1.373 . S
C3533 C3535 1.389 . S
C3534 H3507 0.950 . S
C3534 C3520 1.377 . S
C3534 C3533 1.373 . S
C3535 C3519 1.377 . S
C3535 C3533 1.389 . S
C3535 C3536 1.524 . S
C3536 C3535 1.524 . S
C3536 C3537 1.397 . S
C3536 C3541 1.363 . S
C3537 H3508 0.950 . S
C3537 C3536 1.397 . S
C3537 C3538 1.334 . S
C3538 H3509 0.950 . S
C3538 C3537 1.334 . S
C3538 C3539 1.287 . S
C3539 C3538 1.287 . S
C3539 C3540 1.524 . S
C3539 H3542 0.999 . S
C3540 H3510 0.950 . S
C3540 C3539 1.524 . S
C3540 C3541 1.415 . S
C3541 H3511 0.950 . S
C3541 C3536 1.363 . S
C3541 C3540 1.415 . S
H3542 C3539 0.999 . S
H3543 C3524 0.913 . S
H3544 C3562 0.951 . S
H3545 C3564 0.951 . S
H3546 C3566 0.950 . S
H3547 C3567 0.950 . S
H3548 C3569 0.950 . S
H3549 C3572 0.950 . S
H3550 C3573 0.950 . S
H3551 C3575 0.950 . S
H3552 C3576 0.950 . S
H3553 C3577 0.951 . S
H3554 C3579 0.951 . S
H3555 C3581 0.950 . S
H3556 C3582 0.950 . S
H3557 C3584 0.950 . S
H3558 C3587 0.950 . S
H3559 C3588 0.950 . S
H3560 C3590 0.950 . S
H3561 C3591 0.950 . S
C3562 H3544 0.951 . S
C3562 C3563 1.366 . S
C3562 C3564 1.388 . S
C3563 C3562 1.366 . S
C3563 C3567 1.385 . S
C3564 H3545 0.951 . S
C3564 C3562 1.388 . S
C3564 C3565 1.366 . S
C3565 C3564 1.366 . S
C3565 C3566 1.414 . S
C3565 C3568 1.499 . S
C3566 H3546 0.950 . S
C3566 C3565 1.414 . S
C3566 C3567 1.374 . S
C3567 H3547 0.950 . S
C3567 C3563 1.385 . S
C3567 C3566 1.374 . S
C3568 C3565 1.499 . S
C3568 C3569 1.373 . S
C3568 C3570 1.389 . S
C3569 H3548 0.950 . S
C3569 C3568 1.373 . S
C3569 C3585 1.377 . S
C3570 C3568 1.389 . S
C3570 C3571 1.524 . S
C3570 C3584 1.377 . S
C3571 C3570 1.524 . S
C3571 C3572 1.397 . S
C3571 C3576 1.363 . S
C3572 H3549 0.950 . S
C3572 C3571 1.397 . S
C3572 C3573 1.334 . S
C3573 H3550 0.950 . S
C3573 C3572 1.334 . S
C3573 C3574 1.287 . S
C3574 C3573 1.287 . S
C3574 C3575 1.524 . S
C3574 H3593 0.913 . S
C3575 H3551 0.950 . S
C3575 C3574 1.524 . S
C3575 C3576 1.415 . S
C3576 H3552 0.950 . S
C3576 C3571 1.363 . S
C3576 C3575 1.415 . S
C3577 H3553 0.951 . S
C3577 C3578 1.366 . S
C3577 C3579 1.388 . S
C3578 C3577 1.366 . S
C3578 C3582 1.385 . S
C3579 H3554 0.951 . S
C3579 C3577 1.388 . S
C3579 C3580 1.366 . S
C3580 C3579 1.366 . S
C3580 C3581 1.414 . S
C3580 C3583 1.499 . S
C3581 H3555 0.950 . S
C3581 C3580 1.414 . S
C3581 C3582 1.374 . S
C3582 H3556 0.950 . S
C3582 C3578 1.385 . S
C3582 C3581 1.374 . S
C3583 C3580 1.499 . S
C3583 C3584 1.373 . S
C3583 C3585 1.389 . S
C3584 H3557 0.950 . S
C3584 C3570 1.377 . S
C3584 C3583 1.373 . S
C3585 C3569 1.377 . S
C3585 C3583 1.389 . S
C3585 C3586 1.524 . S
C3586 C3585 1.524 . S
C3586 C3587 1.397 . S
C3586 C3591 1.363 . S
C3587 H3558 0.950 . S
C3587 C3586 1.397 . S
C3587 C3588 1.334 . S
C3588 H3559 0.950 . S
C3588 C3587 1.334 . S
C3588 C3589 1.287 . S
C3589 C3588 1.287 . S
C3589 C3590 1.524 . S
C3589 H3592 0.999 . S
C3590 H3560 0.950 . S
C3590 C3589 1.524 . S
C3590 C3591 1.415 . S
C3591 H3561 0.950 . S
C3591 C3586 1.363 . S
C3591 C3590 1.415 . S
H3592 C3589 0.999 . S
H3593 C3574 0.913 . S
H3594 C3612 0.951 . S
H3595 C3614 0.951 . S
H3596 C3616 0.950 . S
H3597 C3617 0.950 . S
H3598 C3619 0.950 . S
H3599 C3622 0.950 . S
H3600 C3623 0.950 . S
H3601 C3625 0.950 . S
H3602 C3626 0.950 . S
H3603 C3627 0.951 . S
H3604 C3629 0.951 . S
H3605 C3631 0.950 . S
H3606 C3632 0.950 . S
H3607 C3634 0.950 . S
H3608 C3637 0.950 . S
H3609 C3638 0.950 . S
H3610 C3640 0.950 . S
H3611 C3641 0.950 . S
C3612 H3594 0.951 . S
C3612 C3613 1.366 . S
C3612 C3614 1.388 . S
C3613 C3612 1.366 . S
C3613 C3617 1.385 . S
C3614 H3595 0.951 . S
C3614 C3612 1.388 . S
C3614 C3615 1.366 . S
C3615 C3614 1.366 . S
C3615 C3616 1.414 . S
C3615 C3618 1.499 . S
C3616 H3596 0.950 . S
C3616 C3615 1.414 . S
C3616 C3617 1.374 . S
C3617 H3597 0.950 . S
C3617 C3613 1.385 . S
C3617 C3616 1.374 . S
C3618 C3615 1.499 . S
C3618 C3619 1.373 . S
C3618 C3620 1.389 . S
C3619 H3598 0.950 . S
C3619 C3618 1.373 . S
C3619 C3635 1.377 . S
C3620 C3618 1.389 . S
C3620 C3621 1.524 . S
C3620 C3634 1.377 . S
C3621 C3620 1.524 . S
C3621 C3622 1.397 . S
C3621 C3626 1.363 . S
C3622 H3599 0.950 . S
C3622 C3621 1.397 . S
C3622 C3623 1.334 . S
C3623 H3600 0.950 . S
C3623 C3622 1.334 . S
C3623 C3624 1.287 . S
C3624 C3623 1.287 . S
C3624 C3625 1.524 . S
C3624 H3643 0.913 . S
C3625 H3601 0.950 . S
C3625 C3624 1.524 . S
C3625 C3626 1.415 . S
C3626 H3602 0.950 . S
C3626 C3621 1.363 . S
C3626 C3625 1.415 . S
C3627 H3603 0.951 . S
C3627 C3628 1.366 . S
C3627 C3629 1.388 . S
C3628 C3627 1.366 . S
C3628 C3632 1.385 . S
C3629 H3604 0.951 . S
C3629 C3627 1.388 . S
C3629 C3630 1.366 . S
C3630 C3629 1.366 . S
C3630 C3631 1.414 . S
C3630 C3633 1.499 . S
C3631 H3605 0.950 . S
C3631 C3630 1.414 . S
C3631 C3632 1.374 . S
C3632 H3606 0.950 . S
C3632 C3628 1.385 . S
C3632 C3631 1.374 . S
C3633 C3630 1.499 . S
C3633 C3634 1.373 . S
C3633 C3635 1.389 . S
C3634 H3607 0.950 . S
C3634 C3620 1.377 . S
C3634 C3633 1.373 . S
C3635 C3619 1.377 . S
C3635 C3633 1.389 . S
C3635 C3636 1.524 . S
C3636 C3635 1.524 . S
C3636 C3637 1.397 . S
C3636 C3641 1.363 . S
C3637 H3608 0.950 . S
C3637 C3636 1.397 . S
C3637 C3638 1.334 . S
C3638 H3609 0.950 . S
C3638 C3637 1.334 . S
C3638 C3639 1.287 . S
C3639 C3638 1.287 . S
C3639 C3640 1.524 . S
C3639 H3642 0.999 . S
C3640 H3610 0.950 . S
C3640 C3639 1.524 . S
C3640 C3641 1.415 . S
C3641 H3611 0.950 . S
C3641 C3636 1.363 . S
C3641 C3640 1.415 . S
H3642 C3639 0.999 . S
H3643 C3624 0.913 . S
H3644 C3662 0.951 . S
H3645 C3664 0.951 . S
H3646 C3666 0.950 . S
H3647 C3667 0.950 . S
H3648 C3669 0.950 . S
H3649 C3672 0.950 . S
H3650 C3673 0.950 . S
H3651 C3675 0.950 . S
H3652 C3676 0.950 . S
H3653 C3677 0.951 . S
H3654 C3679 0.951 . S
H3655 C3681 0.950 . S
H3656 C3682 0.950 . S
H3657 C3684 0.950 . S
H3658 C3687 0.950 . S
H3659 C3688 0.950 . S
H3660 C3690 0.950 . S
H3661 C3691 0.950 . S
C3662 H3644 0.951 . S
C3662 C3663 1.366 . S
C3662 C3664 1.388 . S
C3663 C3662 1.366 . S
C3663 C3667 1.385 . S
C3664 H3645 0.951 . S
C3664 C3662 1.388 . S
C3664 C3665 1.366 . S
C3665 C3664 1.366 . S
C3665 C3666 1.414 . S
C3665 C3668 1.499 . S
C3666 H3646 0.950 . S
C3666 C3665 1.414 . S
C3666 C3667 1.374 . S
C3667 H3647 0.950 . S
C3667 C3663 1.385 . S
C3667 C3666 1.374 . S
C3668 C3665 1.499 . S
C3668 C3669 1.373 . S
C3668 C3670 1.389 . S
C3669 H3648 0.950 . S
C3669 C3668 1.373 . S
C3669 C3685 1.377 . S
C3670 C3668 1.389 . S
C3670 C3671 1.524 . S
C3670 C3684 1.377 . S
C3671 C3670 1.524 . S
C3671 C3672 1.397 . S
C3671 C3676 1.363 . S
C3672 H3649 0.950 . S
C3672 C3671 1.397 . S
C3672 C3673 1.334 . S
C3673 H3650 0.950 . S
C3673 C3672 1.334 . S
C3673 C3674 1.287 . S
C3674 C3673 1.287 . S
C3674 C3675 1.524 . S
C3674 H3693 0.913 . S
C3675 H3651 0.950 . S
C3675 C3674 1.524 . S
C3675 C3676 1.415 . S
C3676 H3652 0.950 . S
C3676 C3671 1.363 . S
C3676 C3675 1.415 . S
C3677 H3653 0.951 . S
C3677 C3678 1.366 . S
C3677 C3679 1.388 . S
C3678 C3677 1.366 . S
C3678 C3682 1.385 . S
C3679 H3654 0.951 . S
C3679 C3677 1.388 . S
C3679 C3680 1.366 . S
C3680 C3679 1.366 . S
C3680 C3681 1.414 . S
C3680 C3683 1.499 . S
C3681 H3655 0.950 . S
C3681 C3680 1.414 . S
C3681 C3682 1.374 . S
C3682 H3656 0.950 . S
C3682 C3678 1.385 . S
C3682 C3681 1.374 . S
C3683 C3680 1.499 . S
C3683 C3684 1.373 . S
C3683 C3685 1.389 . S
C3684 H3657 0.950 . S
C3684 C3670 1.377 . S
C3684 C3683 1.373 . S
C3685 C3669 1.377 . S
C3685 C3683 1.389 . S
C3685 C3686 1.524 . S
C3686 C3685 1.524 . S
C3686 C3687 1.397 . S
C3686 C3691 1.363 . S
C3687 H3658 0.950 . S
C3687 C3686 1.397 . S
C3687 C3688 1.334 . S
C3688 H3659 0.950 . S
C3688 C3687 1.334 . S
C3688 C3689 1.287 . S
C3689 C3688 1.287 . S
C3689 C3690 1.524 . S
C3689 H3692 0.999 . S
C3690 H3660 0.950 . S
C3690 C3689 1.524 . S
C3690 C3691 1.415 . S
C3691 H3661 0.950 . S
C3691 C3686 1.363 . S
C3691 C3690 1.415 . S
H3692 C3689 0.999 . S
H3693 C3674 0.913 . S
H3694 C3712 0.951 . S
H3695 C3714 0.951 . S
H3696 C3716 0.950 . S
H3697 C3717 0.950 . S
H3698 C3719 0.950 . S
H3699 C3722 0.950 . S
H3700 C3723 0.950 . S
H3701 C3725 0.950 . S
H3702 C3726 0.950 . S
H3703 C3727 0.951 . S
H3704 C3729 0.951 . S
H3705 C3731 0.950 . S
H3706 C3732 0.950 . S
H3707 C3734 0.950 . S
H3708 C3737 0.950 . S
H3709 C3738 0.950 . S
H3710 C3740 0.950 . S
H3711 C3741 0.950 . S
C3712 H3694 0.951 . S
C3712 C3713 1.366 . S
C3712 C3714 1.388 . S
C3713 C3712 1.366 . S
C3713 C3717 1.385 . S
C3714 H3695 0.951 . S
C3714 C3712 1.388 . S
C3714 C3715 1.366 . S
C3715 C3714 1.366 . S
C3715 C3716 1.414 . S
C3715 C3718 1.499 . S
C3716 H3696 0.950 . S
C3716 C3715 1.414 . S
C3716 C3717 1.374 . S
C3717 H3697 0.950 . S
C3717 C3713 1.385 . S
C3717 C3716 1.374 . S
C3718 C3715 1.499 . S
C3718 C3719 1.373 . S
C3718 C3720 1.389 . S
C3719 H3698 0.950 . S
C3719 C3718 1.373 . S
C3719 C3735 1.377 . S
C3720 C3718 1.389 . S
C3720 C3721 1.524 . S
C3720 C3734 1.377 . S
C3721 C3720 1.524 . S
C3721 C3722 1.397 . S
C3721 C3726 1.363 . S
C3722 H3699 0.950 . S
C3722 C3721 1.397 . S
C3722 C3723 1.334 . S
C3723 H3700 0.950 . S
C3723 C3722 1.334 . S
C3723 C3724 1.287 . S
C3724 C3723 1.287 . S
C3724 C3725 1.524 . S
C3724 H3743 0.913 . S
C3725 H3701 0.950 . S
C3725 C3724 1.524 . S
C3725 C3726 1.415 . S
C3726 H3702 0.950 . S
C3726 C3721 1.363 . S
C3726 C3725 1.415 . S
C3727 H3703 0.951 . S
C3727 C3728 1.366 . S
C3727 C3729 1.388 . S
C3728 C3727 1.366 . S
C3728 C3732 1.385 . S
C3729 H3704 0.951 . S
C3729 C3727 1.388 . S
C3729 C3730 1.366 . S
C3730 C3729 1.366 . S
C3730 C3731 1.414 . S
C3730 C3733 1.499 . S
C3731 H3705 0.950 . S
C3731 C3730 1.414 . S
C3731 C3732 1.374 . S
C3732 H3706 0.950 . S
C3732 C3728 1.385 . S
C3732 C3731 1.374 . S
C3733 C3730 1.499 . S
C3733 C3734 1.373 . S
C3733 C3735 1.389 . S
C3734 H3707 0.950 . S
C3734 C3720 1.377 . S
C3734 C3733 1.373 . S
C3735 C3719 1.377 . S
C3735 C3733 1.389 . S
C3735 C3736 1.524 . S
C3736 C3735 1.524 . S
C3736 C3737 1.397 . S
C3736 C3741 1.363 . S
C3737 H3708 0.950 . S
C3737 C3736 1.397 . S
C3737 C3738 1.334 . S
C3738 H3709 0.950 . S
C3738 C3737 1.334 . S
C3738 C3739 1.287 . S
C3739 C3738 1.287 . S
C3739 C3740 1.524 . S
C3739 H3742 0.999 . S
C3740 H3710 0.950 . S
C3740 C3739 1.524 . S
C3740 C3741 1.415 . S
C3741 H3711 0.950 . S
C3741 C3736 1.363 . S
C3741 C3740 1.415 . S
H3742 C3739 0.999 . S
H3743 C3724 0.913 . S
H3744 C3762 0.951 . S
H3745 C3764 0.951 . S
H3746 C3766 0.950 . S
H3747 C3767 0.950 . S
H3748 C3769 0.950 . S
H3749 C3772 0.950 . S
H3750 C3773 0.950 . S
H3751 C3775 0.950 . S
H3752 C3776 0.950 . S
H3753 C3777 0.951 . S
H3754 C3779 0.951 . S
H3755 C3781 0.950 . S
H3756 C3782 0.950 . S
H3757 C3784 0.950 . S
H3758 C3787 0.950 . S
H3759 C3788 0.950 . S
H3760 C3790 0.950 . S
H3761 C3791 0.950 . S
C3762 H3744 0.951 . S
C3762 C3763 1.366 . S
C3762 C3764 1.388 . S
C3763 C3762 1.366 . S
C3763 C3767 1.385 . S
C3764 H3745 0.951 . S
C3764 C3762 1.388 . S
C3764 C3765 1.366 . S
C3765 C3764 1.366 . S
C3765 C3766 1.414 . S
C3765 C3768 1.499 . S
C3766 H3746 0.950 . S
C3766 C3765 1.414 . S
C3766 C3767 1.374 . S
C3767 H3747 0.950 . S
C3767 C3763 1.385 . S
C3767 C3766 1.374 . S
C3768 C3765 1.499 . S
C3768 C3769 1.373 . S
C3768 C3770 1.389 . S
C3769 H3748 0.950 . S
C3769 C3768 1.373 . S
C3769 C3785 1.377 . S
C3770 C3768 1.389 . S
C3770 C3771 1.524 . S
C3770 C3784 1.377 . S
C3771 C3770 1.524 . S
C3771 C3772 1.397 . S
C3771 C3776 1.363 . S
C3772 H3749 0.950 . S
C3772 C3771 1.397 . S
C3772 C3773 1.334 . S
C3773 H3750 0.950 . S
C3773 C3772 1.334 . S
C3773 C3774 1.287 . S
C3774 C3773 1.287 . S
C3774 C3775 1.524 . S
C3774 H3793 0.913 . S
C3775 H3751 0.950 . S
C3775 C3774 1.524 . S
C3775 C3776 1.415 . S
C3776 H3752 0.950 . S
C3776 C3771 1.363 . S
C3776 C3775 1.415 . S
C3777 H3753 0.951 . S
C3777 C3778 1.366 . S
C3777 C3779 1.388 . S
C3778 C3777 1.366 . S
C3778 C3782 1.385 . S
C3779 H3754 0.951 . S
C3779 C3777 1.388 . S
C3779 C3780 1.366 . S
C3780 C3779 1.366 . S
C3780 C3781 1.414 . S
C3780 C3783 1.499 . S
C3781 H3755 0.950 . S
C3781 C3780 1.414 . S
C3781 C3782 1.374 . S
C3782 H3756 0.950 . S
C3782 C3778 1.385 . S
C3782 C3781 1.374 . S
C3783 C3780 1.499 . S
C3783 C3784 1.373 . S
C3783 C3785 1.389 . S
C3784 H3757 0.950 . S
C3784 C3770 1.377 . S
C3784 C3783 1.373 . S
C3785 C3769 1.377 . S
C3785 C3783 1.389 . S
C3785 C3786 1.524 . S
C3786 C3785 1.524 . S
C3786 C3787 1.397 . S
C3786 C3791 1.363 . S
C3787 H3758 0.950 . S
C3787 C3786 1.397 . S
C3787 C3788 1.334 . S
C3788 H3759 0.950 . S
C3788 C3787 1.334 . S
C3788 C3789 1.287 . S
C3789 C3788 1.287 . S
C3789 C3790 1.524 . S
C3789 H3792 0.999 . S
C3790 H3760 0.950 . S
C3790 C3789 1.524 . S
C3790 C3791 1.415 . S
C3791 H3761 0.950 . S
C3791 C3786 1.363 . S
C3791 C3790 1.415 . S
H3792 C3789 0.999 . S
H3793 C3774 0.913 . S
H3794 C3812 0.951 . S
H3795 C3814 0.951 . S
H3796 C3816 0.950 . S
H3797 C3817 0.950 . S
H3798 C3819 0.950 . S
H3799 C3822 0.950 . S
H3800 C3823 0.950 . S
H3801 C3825 0.950 . S
H3802 C3826 0.950 . S
H3803 C3827 0.951 . S
H3804 C3829 0.951 . S
H3805 C3831 0.950 . S
H3806 C3832 0.950 . S
H3807 C3834 0.950 . S
H3808 C3837 0.950 . S
H3809 C3838 0.950 . S
H3810 C3840 0.950 . S
H3811 C3841 0.950 . S
C3812 H3794 0.951 . S
C3812 C3813 1.366 . S
C3812 C3814 1.388 . S
C3813 C3812 1.366 . S
C3813 C3817 1.385 . S
C3814 H3795 0.951 . S
C3814 C3812 1.388 . S
C3814 C3815 1.366 . S
C3815 C3814 1.366 . S
C3815 C3816 1.414 . S
C3815 C3818 1.499 . S
C3816 H3796 0.950 . S
C3816 C3815 1.414 . S
C3816 C3817 1.374 . S
C3817 H3797 0.950 . S
C3817 C3813 1.385 . S
C3817 C3816 1.374 . S
C3818 C3815 1.499 . S
C3818 C3819 1.373 . S
C3818 C3820 1.389 . S
C3819 H3798 0.950 . S
C3819 C3818 1.373 . S
C3819 C3835 1.377 . S
C3820 C3818 1.389 . S
C3820 C3821 1.524 . S
C3820 C3834 1.377 . S
C3821 C3820 1.524 . S
C3821 C3822 1.397 . S
C3821 C3826 1.363 . S
C3822 H3799 0.950 . S
C3822 C3821 1.397 . S
C3822 C3823 1.334 . S
C3823 H3800 0.950 . S
C3823 C3822 1.334 . S
C3823 C3824 1.287 . S
C3824 C3823 1.287 . S
C3824 C3825 1.524 . S
C3824 H3843 0.913 . S
C3825 H3801 0.950 . S
C3825 C3824 1.524 . S
C3825 C3826 1.415 . S
C3826 H3802 0.950 . S
C3826 C3821 1.363 . S
C3826 C3825 1.415 . S
C3827 H3803 0.951 . S
C3827 C3828 1.366 . S
C3827 C3829 1.388 . S
C3828 C3827 1.366 . S
C3828 C3832 1.385 . S
C3829 H3804 0.951 . S
C3829 C3827 1.388 . S
C3829 C3830 1.366 . S
C3830 C3829 1.366 . S
C3830 C3831 1.414 . S
C3830 C3833 1.499 . S
C3831 H3805 0.950 . S
C3831 C3830 1.414 . S
C3831 C3832 1.374 . S
C3832 H3806 0.950 . S
C3832 C3828 1.385 . S
C3832 C3831 1.374 . S
C3833 C3830 1.499 . S
C3833 C3834 1.373 . S
C3833 C3835 1.389 . S
C3834 H3807 0.950 . S
C3834 C3820 1.377 . S
C3834 C3833 1.373 . S
C3835 C3819 1.377 . S
C3835 C3833 1.389 . S
C3835 C3836 1.524 . S
C3836 C3835 1.524 . S
C3836 C3837 1.397 . S
C3836 C3841 1.363 . S
C3837 H3808 0.950 . S
C3837 C3836 1.397 . S
C3837 C3838 1.334 . S
C3838 H3809 0.950 . S
C3838 C3837 1.334 . S
C3838 C3839 1.287 . S
C3839 C3838 1.287 . S
C3839 C3840 1.524 . S
C3839 H3842 0.999 . S
C3840 H3810 0.950 . S
C3840 C3839 1.524 . S
C3840 C3841 1.415 . S
C3841 H3811 0.950 . S
C3841 C3836 1.363 . S
C3841 C3840 1.415 . S
H3842 C3839 0.999 . S
H3843 C3824 0.913 . S
H3844 C3862 0.951 . S
H3845 C3864 0.951 . S
H3846 C3866 0.950 . S
H3847 C3867 0.950 . S
H3848 C3869 0.950 . S
H3849 C3872 0.950 . S
H3850 C3873 0.950 . S
H3851 C3875 0.950 . S
H3852 C3876 0.950 . S
H3853 C3877 0.951 . S
H3854 C3879 0.951 . S
H3855 C3881 0.950 . S
H3856 C3882 0.950 . S
H3857 C3884 0.950 . S
H3858 C3887 0.950 . S
H3859 C3888 0.950 . S
H3860 C3890 0.950 . S
H3861 C3891 0.950 . S
C3862 H3844 0.951 . S
C3862 C3863 1.366 . S
C3862 C3864 1.388 . S
C3863 C3862 1.366 . S
C3863 C3867 1.385 . S
C3864 H3845 0.951 . S
C3864 C3862 1.388 . S
C3864 C3865 1.366 . S
C3865 C3864 1.366 . S
C3865 C3866 1.414 . S
C3865 C3868 1.499 . S
C3866 H3846 0.950 . S
C3866 C3865 1.414 . S
C3866 C3867 1.374 . S
C3867 H3847 0.950 . S
C3867 C3863 1.385 . S
C3867 C3866 1.374 . S
C3868 C3865 1.499 . S
C3868 C3869 1.373 . S
C3868 C3870 1.389 . S
C3869 H3848 0.950 . S
C3869 C3868 1.373 . S
C3869 C3885 1.377 . S
C3870 C3868 1.389 . S
C3870 C3871 1.524 . S
C3870 C3884 1.377 . S
C3871 C3870 1.524 . S
C3871 C3872 1.397 . S
C3871 C3876 1.363 . S
C3872 H3849 0.950 . S
C3872 C3871 1.397 . S
C3872 C3873 1.334 . S
C3873 H3850 0.950 . S
C3873 C3872 1.334 . S
C3873 C3874 1.287 . S
C3874 C3873 1.287 . S
C3874 C3875 1.524 . S
C3874 H3893 0.913 . S
C3875 H3851 0.950 . S
C3875 C3874 1.524 . S
C3875 C3876 1.415 . S
C3876 H3852 0.950 . S
C3876 C3871 1.363 . S
C3876 C3875 1.415 . S
C3877 H3853 0.951 . S
C3877 C3878 1.366 . S
C3877 C3879 1.388 . S
C3878 C3877 1.366 . S
C3878 C3882 1.385 . S
C3879 H3854 0.951 . S
C3879 C3877 1.388 . S
C3879 C3880 1.366 . S
C3880 C3879 1.366 . S
C3880 C3881 1.414 . S
C3880 C3883 1.499 . S
C3881 H3855 0.950 . S
C3881 C3880 1.414 . S
C3881 C3882 1.374 . S
C3882 H3856 0.950 . S
C3882 C3878 1.385 . S
C3882 C3881 1.374 . S
C3883 C3880 1.499 . S
C3883 C3884 1.373 . S
C3883 C3885 1.389 . S
C3884 H3857 0.950 . S
C3884 C3870 1.377 . S
C3884 C3883 1.373 . S
C3885 C3869 1.377 . S
C3885 C3883 1.389 . S
C3885 C3886 1.524 . S
C3886 C3885 1.524 . S
C3886 C3887 1.397 . S
C3886 C3891 1.363 . S
C3887 H3858 0.950 . S
C3887 C3886 1.397 . S
C3887 C3888 1.334 . S
C3888 H3859 0.950 . S
C3888 C3887 1.334 . S
C3888 C3889 1.287 . S
C3889 C3888 1.287 . S
C3889 C3890 1.524 . S
C3889 H3892 0.999 . S
C3890 H3860 0.950 . S
C3890 C3889 1.524 . S
C3890 C3891 1.415 . S
C3891 H3861 0.950 . S
C3891 C3886 1.363 . S
C3891 C3890 1.415 . S
H3892 C3889 0.999 . S
H3893 C3874 0.913 . S
H3894 C3912 0.951 . S
H3895 C3914 0.951 . S
H3896 C3916 0.950 . S
H3897 C3917 0.950 . S
H3898 C3919 0.950 . S
H3899 C3922 0.950 . S
H3900 C3923 0.950 . S
H3901 C3925 0.950 . S
H3902 C3926 0.950 . S
H3903 C3927 0.951 . S
H3904 C3929 0.951 . S
H3905 C3931 0.950 . S
H3906 C3932 0.950 . S
H3907 C3934 0.950 . S
H3908 C3937 0.950 . S
H3909 C3938 0.950 . S
H3910 C3940 0.950 . S
H3911 C3941 0.950 . S
C3912 H3894 0.951 . S
C3912 C3913 1.366 . S
C3912 C3914 1.388 . S
C3913 C3912 1.366 . S
C3913 C3917 1.385 . S
C3914 H3895 0.951 . S
C3914 C3912 1.388 . S
C3914 C3915 1.366 . S
C3915 C3914 1.366 . S
C3915 C3916 1.414 . S
C3915 C3918 1.499 . S
C3916 H3896 0.950 . S
C3916 C3915 1.414 . S
C3916 C3917 1.374 . S
C3917 H3897 0.950 . S
C3917 C3913 1.385 . S
C3917 C3916 1.374 . S
C3918 C3915 1.499 . S
C3918 C3919 1.373 . S
C3918 C3920 1.389 . S
C3919 H3898 0.950 . S
C3919 C3918 1.373 . S
C3919 C3935 1.377 . S
C3920 C3918 1.389 . S
C3920 C3921 1.524 . S
C3920 C3934 1.377 . S
C3921 C3920 1.524 . S
C3921 C3922 1.397 . S
C3921 C3926 1.363 . S
C3922 H3899 0.950 . S
C3922 C3921 1.397 . S
C3922 C3923 1.334 . S
C3923 H3900 0.950 . S
C3923 C3922 1.334 . S
C3923 C3924 1.287 . S
C3924 C3923 1.287 . S
C3924 C3925 1.524 . S
C3924 H3943 0.913 . S
C3925 H3901 0.950 . S
C3925 C3924 1.524 . S
C3925 C3926 1.415 . S
C3926 H3902 0.950 . S
C3926 C3921 1.363 . S
C3926 C3925 1.415 . S
C3927 H3903 0.951 . S
C3927 C3928 1.366 . S
C3927 C3929 1.388 . S
C3928 C3927 1.366 . S
C3928 C3932 1.385 . S
C3929 H3904 0.951 . S
C3929 C3927 1.388 . S
C3929 C3930 1.366 . S
C3930 C3929 1.366 . S
C3930 C3931 1.414 . S
C3930 C3933 1.499 . S
C3931 H3905 0.950 . S
C3931 C3930 1.414 . S
C3931 C3932 1.374 . S
C3932 H3906 0.950 . S
C3932 C3928 1.385 . S
C3932 C3931 1.374 . S
C3933 C3930 1.499 . S
C3933 C3934 1.373 . S
C3933 C3935 1.389 . S
C3934 H3907 0.950 . S
C3934 C3920 1.377 . S
C3934 C3933 1.373 . S
C3935 C3919 1.377 . S
C3935 C3933 1.389 . S
C3935 C3936 1.524 . S
C3936 C3935 1.524 . S
C3936 C3937 1.397 . S
C3936 C3941 1.363 . S
C3937 H3908 0.950 . S
C3937 C3936 1.397 . S
C3937 C3938 1.334 . S
C3938 H3909 0.950 . S
C3938 C3937 1.334 . S
C3938 C3939 1.287 . S
C3939 C3938 1.287 . S
C3939 C3940 1.524 . S
C3939 H3942 0.999 . S
C3940 H3910 0.950 . S
C3940 C3939 1.524 . S
C3940 C3941 1.415 . S
C3941 H3911 0.950 . S
C3941 C3936 1.363 . S
C3941 C3940 1.415 . S
H3942 C3939 0.999 . S
H3943 C3924 0.913 . S
H3944 C3962 0.951 . S
H3945 C3964 0.951 . S
H3946 C3966 0.950 . S
H3947 C3967 0.950 . S
H3948 C3969 0.950 . S
H3949 C3972 0.950 . S
H3950 C3973 0.950 . S
H3951 C3975 0.950 . S
H3952 C3976 0.950 . S
H3953 C3977 0.951 . S
H3954 C3979 0.951 . S
H3955 C3981 0.950 . S
H3956 C3982 0.950 . S
H3957 C3984 0.950 . S
H3958 C3987 0.950 . S
H3959 C3988 0.950 . S
H3960 C3990 0.950 . S
H3961 C3991 0.950 . S
C3962 H3944 0.951 . S
C3962 C3963 1.366 . S
C3962 C3964 1.388 . S
C3963 C3962 1.366 . S
C3963 C3967 1.385 . S
C3964 H3945 0.951 . S
C3964 C3962 1.388 . S
C3964 C3965 1.366 . S
C3965 C3964 1.366 . S
C3965 C3966 1.414 . S
C3965 C3968 1.499 . S
C3966 H3946 0.950 . S
C3966 C3965 1.414 . S
C3966 C3967 1.374 . S
C3967 H3947 0.950 . S
C3967 C3963 1.385 . S
C3967 C3966 1.374 . S
C3968 C3965 1.499 . S
C3968 C3969 1.373 . S
C3968 C3970 1.389 . S
C3969 H3948 0.950 . S
C3969 C3968 1.373 . S
C3969 C3985 1.377 . S
C3970 C3968 1.389 . S
C3970 C3971 1.524 . S
C3970 C3984 1.377 . S
C3971 C3970 1.524 . S
C3971 C3972 1.397 . S
C3971 C3976 1.363 . S
C3972 H3949 0.950 . S
C3972 C3971 1.397 . S
C3972 C3973 1.334 . S
C3973 H3950 0.950 . S
C3973 C3972 1.334 . S
C3973 C3974 1.287 . S
C3974 C3973 1.287 . S
C3974 C3975 1.524 . S
C3974 H3993 0.913 . S
C3975 H3951 0.950 . S
C3975 C3974 1.524 . S
C3975 C3976 1.415 . S
C3976 H3952 0.950 . S
C3976 C3971 1.363 . S
C3976 C3975 1.415 . S
C3977 H3953 0.951 . S
C3977 C3978 1.366 . S
C3977 C3979 1.388 . S
C3978 C3977 1.366 . S
C3978 C3982 1.385 . S
C3979 H3954 0.951 . S
C3979 C3977 1.388 . S
C3979 C3980 1.366 . S
C3980 C3979 1.366 . S
C3980 C3981 1.414 . S
C3980 C3983 1.499 . S
C3981 H3955 0.950 . S
C3981 C3980 1.414 . S
C3981 C3982 1.374 . S
C3982 H3956 0.950 . S
C3982 C3978 1.385 . S
C3982 C3981 1.374 . S
C3983 C3980 1.499 . S
C3983 C3984 1.373 . S
C3983 C3985 1.389 . S
C3984 H3957 0.950 . S
C3984 C3970 1.377 . S
C3984 C3983 1.373 . S
C3985 C3969 1.377 . S
C3985 C3983 1.389 . S
C3985 C3986 1.524 . S
C3986 C3985 1.524 . S
C3986 C3987 1.397 . S
C3986 C3991 1.363 . S
C3987 H3958 0.950 . S
C3987 C3986 1.397 . S
C3987 C3988 1.334 . S
C3988 H3959 0.950 . S
C3988 C3987 1.334 . S
C3988 C3989 1.287 . S
C3989 C3988 1.287 . S
C3989 C3990 1.524 . S
C3989 H3992 0.999 . S
C3990 H3960 0.950 . S
C3990 C3989 1.524 . S
C3990 C3991 1.415 . S
C3991 H3961 0.950 . S
C3991 C3986 1.363 . S
C3991 C3990 1.415 . S
H3992 C3989 0.999 . S
H3993 C3974 0.913 . S
H3994 C4012 0.951 . S
H3995 C4014 0.951 . S
H3996 C4016 0.950 . S
H3997 C4017 0.950 . S
H3998 C4019 0.950 . S
H3999 C4022 0.950 . S
H4000 C4023 0.950 . S
H4001 C4025 0.950 . S
H4002 C4026 0.950 . S
H4003 C4027 0.951 . S
H4004 C4029 0.951 . S
H4005 C4031 0.950 . S
H4006 C4032 0.950 . S
H4007 C4034 0.950 . S
H4008 C4037 0.950 . S
H4009 C4038 0.950 . S
H4010 C4040 0.950 . S
H4011 C4041 0.950 . S
C4012 H3994 0.951 . S
C4012 C4013 1.366 . S
C4012 C4014 1.388 . S
C4013 C4012 1.366 . S
C4013 C4017 1.385 . S
C4014 H3995 0.951 . S
C4014 C4012 1.388 . S
C4014 C4015 1.366 . S
C4015 C4014 1.366 . S
C4015 C4016 1.414 . S
C4015 C4018 1.499 . S
C4016 H3996 0.950 . S
C4016 C4015 1.414 . S
C4016 C4017 1.374 . S
C4017 H3997 0.950 . S
C4017 C4013 1.385 . S
C4017 C4016 1.374 . S
C4018 C4015 1.499 . S
C4018 C4019 1.373 . S
C4018 C4020 1.389 . S
C4019 H3998 0.950 . S
C4019 C4018 1.373 . S
C4019 C4035 1.377 . S
C4020 C4018 1.389 . S
C4020 C4021 1.524 . S
C4020 C4034 1.377 . S
C4021 C4020 1.524 . S
C4021 C4022 1.397 . S
C4021 C4026 1.363 . S
C4022 H3999 0.950 . S
C4022 C4021 1.397 . S
C4022 C4023 1.334 . S
C4023 H4000 0.950 . S
C4023 C4022 1.334 . S
C4023 C4024 1.287 . S
C4024 C4023 1.287 . S
C4024 C4025 1.524 . S
C4024 H4043 0.913 . S
C4025 H4001 0.950 . S
C4025 C4024 1.524 . S
C4025 C4026 1.415 . S
C4026 H4002 0.950 . S
C4026 C4021 1.363 . S
C4026 C4025 1.415 . S
C4027 H4003 0.951 . S
C4027 C4028 1.366 . S
C4027 C4029 1.388 . S
C4028 C4027 1.366 . S
C4028 C4032 1.385 . S
C4029 H4004 0.951 . S
C4029 C4027 1.388 . S
C4029 C4030 1.366 . S
C4030 C4029 1.366 . S
C4030 C4031 1.414 . S
C4030 C4033 1.499 . S
C4031 H4005 0.950 . S
C4031 C4030 1.414 . S
C4031 C4032 1.374 . S
C4032 H4006 0.950 . S
C4032 C4028 1.385 . S
C4032 C4031 1.374 . S
C4033 C4030 1.499 . S
C4033 C4034 1.373 . S
C4033 C4035 1.389 . S
C4034 H4007 0.950 . S
C4034 C4020 1.377 . S
C4034 C4033 1.373 . S
C4035 C4019 1.377 . S
C4035 C4033 1.389 . S
C4035 C4036 1.524 . S
C4036 C4035 1.524 . S
C4036 C4037 1.397 . S
C4036 C4041 1.363 . S
C4037 H4008 0.950 . S
C4037 C4036 1.397 . S
C4037 C4038 1.334 . S
C4038 H4009 0.950 . S
C4038 C4037 1.334 . S
C4038 C4039 1.287 . S
C4039 C4038 1.287 . S
C4039 C4040 1.524 . S
C4039 H4042 0.999 . S
C4040 H4010 0.950 . S
C4040 C4039 1.524 . S
C4040 C4041 1.415 . S
C4041 H4011 0.950 . S
C4041 C4036 1.363 . S
C4041 C4040 1.415 . S
H4042 C4039 0.999 . S
H4043 C4024 0.913 . S
H4044 C4062 0.951 . S
H4045 C4064 0.951 . S
H4046 C4066 0.950 . S
H4047 C4067 0.950 . S
H4048 C4069 0.950 . S
H4049 C4072 0.950 . S
H4050 C4073 0.950 . S
H4051 C4075 0.950 . S
H4052 C4076 0.950 . S
H4053 C4077 0.951 . S
H4054 C4079 0.951 . S
H4055 C4081 0.950 . S
H4056 C4082 0.950 . S
H4057 C4084 0.950 . S
H4058 C4087 0.950 . S
H4059 C4088 0.950 . S
H4060 C4090 0.950 . S
H4061 C4091 0.950 . S
C4062 H4044 0.951 . S
C4062 C4063 1.366 . S
C4062 C4064 1.388 . S
C4063 C4062 1.366 . S
C4063 C4067 1.385 . S
C4064 H4045 0.951 . S
C4064 C4062 1.388 . S
C4064 C4065 1.366 . S
C4065 C4064 1.366 . S
C4065 C4066 1.414 . S
C4065 C4068 1.499 . S
C4066 H4046 0.950 . S
C4066 C4065 1.414 . S
C4066 C4067 1.374 . S
C4067 H4047 0.950 . S
C4067 C4063 1.385 . S
C4067 C4066 1.374 . S
C4068 C4065 1.499 . S
C4068 C4069 1.373 . S
C4068 C4070 1.389 . S
C4069 H4048 0.950 . S
C4069 C4068 1.373 . S
C4069 C4085 1.377 . S
C4070 C4068 1.389 . S
C4070 C4071 1.524 . S
C4070 C4084 1.377 . S
C4071 C4070 1.524 . S
C4071 C4072 1.397 . S
C4071 C4076 1.363 . S
C4072 H4049 0.950 . S
C4072 C4071 1.397 . S
C4072 C4073 1.334 . S
C4073 H4050 0.950 . S
C4073 C4072 1.334 . S
C4073 C4074 1.287 . S
C4074 C4073 1.287 . S
C4074 C4075 1.524 . S
C4074 H4093 0.913 . S
C4075 H4051 0.950 . S
C4075 C4074 1.524 . S
C4075 C4076 1.415 . S
C4076 H4052 0.950 . S
C4076 C4071 1.363 . S
C4076 C4075 1.415 . S
C4077 H4053 0.951 . S
C4077 C4078 1.366 . S
C4077 C4079 1.388 . S
C4078 C4077 1.366 . S
C4078 C4082 1.385 . S
C4079 H4054 0.951 . S
C4079 C4077 1.388 . S
C4079 C4080 1.366 . S
C4080 C4079 1.366 . S
C4080 C4081 1.414 . S
C4080 C4083 1.499 . S
C4081 H4055 0.950 . S
C4081 C4080 1.414 . S
C4081 C4082 1.374 . S
C4082 H4056 0.950 . S
C4082 C4078 1.385 . S
C4082 C4081 1.374 . S
C4083 C4080 1.499 . S
C4083 C4084 1.373 . S
C4083 C4085 1.389 . S
C4084 H4057 0.950 . S
C4084 C4070 1.377 . S
C4084 C4083 1.373 . S
C4085 C4069 1.377 . S
C4085 C4083 1.389 . S
C4085 C4086 1.524 . S
C4086 C4085 1.524 . S
C4086 C4087 1.397 . S
C4086 C4091 1.363 . S
C4087 H4058 0.950 . S
C4087 C4086 1.397 . S
C4087 C4088 1.334 . S
C4088 H4059 0.950 . S
C4088 C4087 1.334 . S
C4088 C4089 1.287 . S
C4089 C4088 1.287 . S
C4089 C4090 1.524 . S
C4089 H4092 0.999 . S
C4090 H4060 0.950 . S
C4090 C4089 1.524 . S
C4090 C4091 1.415 . S
C4091 H4061 0.950 . S
C4091 C4086 1.363 . S
C4091 C4090 1.415 . S
H4092 C4089 0.999 . S
H4093 C4074 0.913 . S
H4094 C4112 0.951 . S
H4095 C4114 0.951 . S
H4096 C4116 0.950 . S
H4097 C4117 0.950 . S
H4098 C4119 0.950 . S
H4099 C4122 0.950 . S
H4100 C4123 0.950 . S
H4101 C4125 0.950 . S
H4102 C4126 0.950 . S
H4103 C4127 0.951 . S
H4104 C4129 0.951 . S
H4105 C4131 0.950 . S
H4106 C4132 0.950 . S
H4107 C4134 0.950 . S
H4108 C4137 0.950 . S
H4109 C4138 0.950 . S
H4110 C4140 0.950 . S
H4111 C4141 0.950 . S
C4112 H4094 0.951 . S
C4112 C4113 1.366 . S
C4112 C4114 1.388 . S
C4113 C4112 1.366 . S
C4113 C4117 1.385 . S
C4114 H4095 0.951 . S
C4114 C4112 1.388 . S
C4114 C4115 1.366 . S
C4115 C4114 1.366 . S
C4115 C4116 1.414 . S
C4115 C4118 1.499 . S
C4116 H4096 0.950 . S
C4116 C4115 1.414 . S
C4116 C4117 1.374 . S
C4117 H4097 0.950 . S
C4117 C4113 1.385 . S
C4117 C4116 1.374 . S
C4118 C4115 1.499 . S
C4118 C4119 1.373 . S
C4118 C4120 1.389 . S
C4119 H4098 0.950 . S
C4119 C4118 1.373 . S
C4119 C4135 1.377 . S
C4120 C4118 1.389 . S
C4120 C4121 1.524 . S
C4120 C4134 1.377 . S
C4121 C4120 1.524 . S
C4121 C4122 1.397 . S
C4121 C4126 1.363 . S
C4122 H4099 0.950 . S
C4122 C4121 1.397 . S
C4122 C4123 1.334 . S
C4123 H4100 0.950 . S
C4123 C4122 1.334 . S
C4123 C4124 1.287 . S
C4124 C4123 1.287 . S
C4124 C4125 1.524 . S
C4124 H4143 0.913 . S
C4125 H4101 0.950 . S
C4125 C4124 1.524 . S
C4125 C4126 1.415 . S
C4126 H4102 0.950 . S
C4126 C4121 1.363 . S
C4126 C4125 1.415 . S
C4127 H4103 0.951 . S
C4127 C4128 1.366 . S
C4127 C4129 1.388 . S
C4128 C4127 1.366 . S
C4128 C4132 1.385 . S
C4129 H4104 0.951 . S
C4129 C4127 1.388 . S
C4129 C4130 1.366 . S
C4130 C4129 1.366 . S
C4130 C4131 1.414 . S
C4130 C4133 1.499 . S
C4131 H4105 0.950 . S
C4131 C4130 1.414 . S
C4131 C4132 1.374 . S
C4132 H4106 0.950 . S
C4132 C4128 1.385 . S
C4132 C4131 1.374 . S
C4133 C4130 1.499 . S
C4133 C4134 1.373 . S
C4133 C4135 1.389 . S
C4134 H4107 0.950 . S
C4134 C4120 1.377 . S
C4134 C4133 1.373 . S
C4135 C4119 1.377 . S
C4135 C4133 1.389 . S
C4135 C4136 1.524 . S
C4136 C4135 1.524 . S
C4136 C4137 1.397 . S
C4136 C4141 1.363 . S
C4137 H4108 0.950 . S
C4137 C4136 1.397 . S
C4137 C4138 1.334 . S
C4138 H4109 0.950 . S
C4138 C4137 1.334 . S
C4138 C4139 1.287 . S
C4139 C4138 1.287 . S
C4139 C4140 1.524 . S
C4139 H4142 0.999 . S
C4140 H4110 0.950 . S
C4140 C4139 1.524 . S
C4140 C4141 1.415 . S
C4141 H4111 0.950 . S
C4141 C4136 1.363 . S
C4141 C4140 1.415 . S
H4142 C4139 0.999 . S
H4143 C4124 0.913 . S
H4144 C4162 0.951 . S
H4145 C4164 0.951 . S
H4146 C4166 0.950 . S
H4147 C4167 0.950 . S
H4148 C4169 0.950 . S
H4149 C4172 0.950 . S
H4150 C4173 0.950 . S
H4151 C4175 0.950 . S
H4152 C4176 0.950 . S
H4153 C4177 0.951 . S
H4154 C4179 0.951 . S
H4155 C4181 0.950 . S
H4156 C4182 0.950 . S
H4157 C4184 0.950 . S
H4158 C4187 0.950 . S
H4159 C4188 0.950 . S
H4160 C4190 0.950 . S
H4161 C4191 0.950 . S
C4162 H4144 0.951 . S
C4162 C4163 1.366 . S
C4162 C4164 1.388 . S
C4163 C4162 1.366 . S
C4163 C4167 1.385 . S
C4164 H4145 0.951 . S
C4164 C4162 1.388 . S
C4164 C4165 1.366 . S
C4165 C4164 1.366 . S
C4165 C4166 1.414 . S
C4165 C4168 1.499 . S
C4166 H4146 0.950 . S
C4166 C4165 1.414 . S
C4166 C4167 1.374 . S
C4167 H4147 0.950 . S
C4167 C4163 1.385 . S
C4167 C4166 1.374 . S
C4168 C4165 1.499 . S
C4168 C4169 1.373 . S
C4168 C4170 1.389 . S
C4169 H4148 0.950 . S
C4169 C4168 1.373 . S
C4169 C4185 1.377 . S
C4170 C4168 1.389 . S
C4170 C4171 1.524 . S
C4170 C4184 1.377 . S
C4171 C4170 1.524 . S
C4171 C4172 1.397 . S
C4171 C4176 1.363 . S
C4172 H4149 0.950 . S
C4172 C4171 1.397 . S
C4172 C4173 1.334 . S
C4173 H4150 0.950 . S
C4173 C4172 1.334 . S
C4173 C4174 1.287 . S
C4174 C4173 1.287 . S
C4174 C4175 1.524 . S
C4174 H4193 0.913 . S
C4175 H4151 0.950 . S
C4175 C4174 1.524 . S
C4175 C4176 1.415 . S
C4176 H4152 0.950 . S
C4176 C4171 1.363 . S
C4176 C4175 1.415 . S
C4177 H4153 0.951 . S
C4177 C4178 1.366 . S
C4177 C4179 1.388 . S
C4178 C4177 1.366 . S
C4178 C4182 1.385 . S
C4179 H4154 0.951 . S
C4179 C4177 1.388 . S
C4179 C4180 1.366 . S
C4180 C4179 1.366 . S
C4180 C4181 1.414 . S
C4180 C4183 1.499 . S
C4181 H4155 0.950 . S
C4181 C4180 1.414 . S
C4181 C4182 1.374 . S
C4182 H4156 0.950 . S
C4182 C4178 1.385 . S
C4182 C4181 1.374 . S
C4183 C4180 1.499 . S
C4183 C4184 1.373 . S
C4183 C4185 1.389 . S
C4184 H4157 0.950 . S
C4184 C4170 1.377 . S
C4184 C4183 1.373 . S
C4185 C4169 1.377 . S
C4185 C4183 1.389 . S
C4185 C4186 1.524 . S
C4186 C4185 1.524 . S
C4186 C4187 1.397 . S
C4186 C4191 1.363 . S
C4187 H4158 0.950 . S
C4187 C4186 1.397 . S
C4187 C4188 1.334 . S
C4188 H4159 0.950 . S
C4188 C4187 1.334 . S
C4188 C4189 1.287 . S
C4189 C4188 1.287 . S
C4189 C4190 1.524 . S
C4189 H4192 0.999 . S
C4190 H4160 0.950 . S
C4190 C4189 1.524 . S
C4190 C4191 1.415 . S
C4191 H4161 0.950 . S
C4191 C4186 1.363 . S
C4191 C4190 1.415 . S
H4192 C4189 0.999 . S
H4193 C4174 0.913 . S
H4194 C4212 0.951 . S
H4195 C4214 0.951 . S
H4196 C4216 0.950 . S
H4197 C4217 0.950 . S
H4198 C4219 0.950 . S
H4199 C4222 0.950 . S
H4200 C4223 0.950 . S
H4201 C4225 0.950 . S
H4202 C4226 0.950 . S
H4203 C4227 0.951 . S
H4204 C4229 0.951 . S
H4205 C4231 0.950 . S
H4206 C4232 0.950 . S
H4207 C4234 0.950 . S
H4208 C4237 0.950 . S
H4209 C4238 0.950 . S
H4210 C4240 0.950 . S
H4211 C4241 0.950 . S
C4212 H4194 0.951 . S
C4212 C4213 1.366 . S
C4212 C4214 1.388 . S
C4213 C4212 1.366 . S
C4213 C4217 1.385 . S
C4214 H4195 0.951 . S
C4214 C4212 1.388 . S
C4214 C4215 1.366 . S
C4215 C4214 1.366 . S
C4215 C4216 1.414 . S
C4215 C4218 1.499 . S
C4216 H4196 0.950 . S
C4216 C4215 1.414 . S
C4216 C4217 1.374 . S
C4217 H4197 0.950 . S
C4217 C4213 1.385 . S
C4217 C4216 1.374 . S
C4218 C4215 1.499 . S
C4218 C4219 1.373 . S
C4218 C4220 1.389 . S
C4219 H4198 0.950 . S
C4219 C4218 1.373 . S
C4219 C4235 1.377 . S
C4220 C4218 1.389 . S
C4220 C4221 1.524 . S
C4220 C4234 1.377 . S
C4221 C4220 1.524 . S
C4221 C4222 1.397 . S
C4221 C4226 1.363 . S
C4222 H4199 0.950 . S
C4222 C4221 1.397 . S
C4222 C4223 1.334 . S
C4223 H4200 0.950 . S
C4223 C4222 1.334 . S
C4223 C4224 1.287 . S
C4224 C4223 1.287 . S
C4224 C4225 1.524 . S
C4224 H4243 0.913 . S
C4225 H4201 0.950 . S
C4225 C4224 1.524 . S
C4225 C4226 1.415 . S
C4226 H4202 0.950 . S
C4226 C4221 1.363 . S
C4226 C4225 1.415 . S
C4227 H4203 0.951 . S
C4227 C4228 1.366 . S
C4227 C4229 1.388 . S
C4228 C4227 1.366 . S
C4228 C4232 1.385 . S
C4229 H4204 0.951 . S
C4229 C4227 1.388 . S
C4229 C4230 1.366 . S
C4230 C4229 1.366 . S
C4230 C4231 1.414 . S
C4230 C4233 1.499 . S
C4231 H4205 0.950 . S
C4231 C4230 1.414 . S
C4231 C4232 1.374 . S
C4232 H4206 0.950 . S
C4232 C4228 1.385 . S
C4232 C4231 1.374 . S
C4233 C4230 1.499 . S
C4233 C4234 1.373 . S
C4233 C4235 1.389 . S
C4234 H4207 0.950 . S
C4234 C4220 1.377 . S
C4234 C4233 1.373 . S
C4235 C4219 1.377 . S
C4235 C4233 1.389 . S
C4235 C4236 1.524 . S
C4236 C4235 1.524 . S
C4236 C4237 1.397 . S
C4236 C4241 1.363 . S
C4237 H4208 0.950 . S
C4237 C4236 1.397 . S
C4237 C4238 1.334 . S
C4238 H4209 0.950 . S
C4238 C4237 1.334 . S
C4238 C4239 1.287 . S
C4239 C4238 1.287 . S
C4239 C4240 1.524 . S
C4239 H4242 0.999 . S
C4240 H4210 0.950 . S
C4240 C4239 1.524 . S
C4240 C4241 1.415 . S
C4241 H4211 0.950 . S
C4241 C4236 1.363 . S
C4241 C4240 1.415 . S
H4242 C4239 0.999 . S
H4243 C4224 0.913 . S
H4244 C4262 0.951 . S
H4245 C4264 0.951 . S
H4246 C4266 0.950 . S
H4247 C4267 0.950 . S
H4248 C4269 0.950 . S
H4249 C4272 0.950 . S
H4250 C4273 0.950 . S
H4251 C4275 0.950 . S
H4252 C4276 0.950 . S
H4253 C4277 0.951 . S
H4254 C4279 0.951 . S
H4255 C4281 0.950 . S
H4256 C4282 0.950 . S
H4257 C4284 0.950 . S
H4258 C4287 0.950 . S
H4259 C4288 0.950 . S
H4260 C4290 0.950 . S
H4261 C4291 0.950 . S
C4262 H4244 0.951 . S
C4262 C4263 1.366 . S
C4262 C4264 1.388 . S
C4263 C4262 1.366 . S
C4263 C4267 1.385 . S
C4264 H4245 0.951 . S
C4264 C4262 1.388 . S
C4264 C4265 1.366 . S
C4265 C4264 1.366 . S
C4265 C4266 1.414 . S
C4265 C4268 1.499 . S
C4266 H4246 0.950 . S
C4266 C4265 1.414 . S
C4266 C4267 1.374 . S
C4267 H4247 0.950 . S
C4267 C4263 1.385 . S
C4267 C4266 1.374 . S
C4268 C4265 1.499 . S
C4268 C4269 1.373 . S
C4268 C4270 1.389 . S
C4269 H4248 0.950 . S
C4269 C4268 1.373 . S
C4269 C4285 1.377 . S
C4270 C4268 1.389 . S
C4270 C4271 1.524 . S
C4270 C4284 1.377 . S
C4271 C4270 1.524 . S
C4271 C4272 1.397 . S
C4271 C4276 1.363 . S
C4272 H4249 0.950 . S
C4272 C4271 1.397 . S
C4272 C4273 1.334 . S
C4273 H4250 0.950 . S
C4273 C4272 1.334 . S
C4273 C4274 1.287 . S
C4274 C4273 1.287 . S
C4274 C4275 1.524 . S
C4274 H4293 0.913 . S
C4275 H4251 0.950 . S
C4275 C4274 1.524 . S
C4275 C4276 1.415 . S
C4276 H4252 0.950 . S
C4276 C4271 1.363 . S
C4276 C4275 1.415 . S
C4277 H4253 0.951 . S
C4277 C4278 1.366 . S
C4277 C4279 1.388 . S
C4278 C4277 1.366 . S
C4278 C4282 1.385 . S
C4279 H4254 0.951 . S
C4279 C4277 1.388 . S
C4279 C4280 1.366 . S
C4280 C4279 1.366 . S
C4280 C4281 1.414 . S
C4280 C4283 1.499 . S
C4281 H4255 0.950 . S
C4281 C4280 1.414 . S
C4281 C4282 1.374 . S
C4282 H4256 0.950 . S
C4282 C4278 1.385 . S
C4282 C4281 1.374 . S
C4283 C4280 1.499 . S
C4283 C4284 1.373 . S
C4283 C4285 1.389 . S
C4284 H4257 0.950 . S
C4284 C4270 1.377 . S
C4284 C4283 1.373 . S
C4285 C4269 1.377 . S
C4285 C4283 1.389 . S
C4285 C4286 1.524 . S
C4286 C4285 1.524 . S
C4286 C4287 1.397 . S
C4286 C4291 1.363 . S
C4287 H4258 0.950 . S
C4287 C4286 1.397 . S
C4287 C4288 1.334 . S
C4288 H4259 0.950 . S
C4288 C4287 1.334 . S
C4288 C4289 1.287 . S
C4289 C4288 1.287 . S
C4289 C4290 1.524 . S
C4289 H4292 0.999 . S
C4290 H4260 0.950 . S
C4290 C4289 1.524 . S
C4290 C4291 1.415 . S
C4291 H4261 0.950 . S
C4291 C4286 1.363 . S
C4291 C4290 1.415 . S
H4292 C4289 0.999 . S
H4293 C4274 0.913 . S
H4294 C4312 0.951 . S
H4295 C4314 0.951 . S
H4296 C4316 0.950 . S
H4297 C4317 0.950 . S
H4298 C4319 0.950 . S
H4299 C4322 0.950 . S
H4300 C4323 0.950 . S
H4301 C4325 0.950 . S
H4302 C4326 0.950 . S
H4303 C4327 0.951 . S
H4304 C4329 0.951 . S
H4305 C4331 0.950 . S
H4306 C4332 0.950 . S
H4307 C4334 0.950 . S
H4308 C4337 0.950 . S
H4309 C4338 0.950 . S
H4310 C4340 0.950 . S
H4311 C4341 0.950 . S
C4312 H4294 0.951 . S
C4312 C4313 1.366 . S
C4312 C4314 1.388 . S
C4313 C4312 1.366 . S
C4313 C4317 1.385 . S
C4314 H4295 0.951 . S
C4314 C4312 1.388 . S
C4314 C4315 1.366 . S
C4315 C4314 1.366 . S
C4315 C4316 1.414 . S
C4315 C4318 1.499 . S
C4316 H4296 0.950 . S
C4316 C4315 1.414 . S
C4316 C4317 1.374 . S
C4317 H4297 0.950 . S
C4317 C4313 1.385 . S
C4317 C4316 1.374 . S
C4318 C4315 1.499 . S
C4318 C4319 1.373 . S
C4318 C4320 1.389 . S
C4319 H4298 0.950 . S
C4319 C4318 1.373 . S
C4319 C4335 1.377 . S
C4320 C4318 1.389 . S
C4320 C4321 1.524 . S
C4320 C4334 1.377 . S
C4321 C4320 1.524 . S
C4321 C4322 1.397 . S
C4321 C4326 1.363 . S
C4322 H4299 0.950 . S
C4322 C4321 1.397 . S
C4322 C4323 1.334 . S
C4323 H4300 0.950 . S
C4323 C4322 1.334 . S
C4323 C4324 1.287 . S
C4324 C4323 1.287 . S
C4324 C4325 1.524 . S
C4324 H4343 0.913 . S
C4325 H4301 0.950 . S
C4325 C4324 1.524 . S
C4325 C4326 1.415 . S
C4326 H4302 0.950 . S
C4326 C4321 1.363 . S
C4326 C4325 1.415 . S
C4327 H4303 0.951 . S
C4327 C4328 1.366 . S
C4327 C4329 1.388 . S
C4328 C4327 1.366 . S
C4328 C4332 1.385 . S
C4329 H4304 0.951 . S
C4329 C4327 1.388 . S
C4329 C4330 1.366 . S
C4330 C4329 1.366 . S
C4330 C4331 1.414 . S
C4330 C4333 1.499 . S
C4331 H4305 0.950 . S
C4331 C4330 1.414 . S
C4331 C4332 1.374 . S
C4332 H4306 0.950 . S
C4332 C4328 1.385 . S
C4332 C4331 1.374 . S
C4333 C4330 1.499 . S
C4333 C4334 1.373 . S
C4333 C4335 1.389 . S
C4334 H4307 0.950 . S
C4334 C4320 1.377 . S
C4334 C4333 1.373 . S
C4335 C4319 1.377 . S
C4335 C4333 1.389 . S
C4335 C4336 1.524 . S
C4336 C4335 1.524 . S
C4336 C4337 1.397 . S
C4336 C4341 1.363 . S
C4337 H4308 0.950 . S
C4337 C4336 1.397 . S
C4337 C4338 1.334 . S
C4338 H4309 0.950 . S
C4338 C4337 1.334 . S
C4338 C4339 1.287 . S
C4339 C4338 1.287 . S
C4339 C4340 1.524 . S
C4339 H4342 0.999 . S
C4340 H4310 0.950 . S
C4340 C4339 1.524 . S
C4340 C4341 1.415 . S
C4341 H4311 0.950 . S
C4341 C4336 1.363 . S
C4341 C4340 1.415 . S
H4342 C4339 0.999 . S
H4343 C4324 0.913 . S
H4344 C4362 0.951 . S
H4345 C4364 0.951 . S
H4346 C4366 0.950 . S
H4347 C4367 0.950 . S
H4348 C4369 0.950 . S
H4349 C4372 0.950 . S
H4350 C4373 0.950 . S
H4351 C4375 0.950 . S
H4352 C4376 0.950 . S
H4353 C4377 0.951 . S
H4354 C4379 0.951 . S
H4355 C4381 0.950 . S
H4356 C4382 0.950 . S
H4357 C4384 0.950 . S
H4358 C4387 0.950 . S
H4359 C4388 0.950 . S
H4360 C4390 0.950 . S
H4361 C4391 0.950 . S
C4362 H4344 0.951 . S
C4362 C4363 1.366 . S
C4362 C4364 1.388 . S
C4363 C4362 1.366 . S
C4363 C4367 1.385 . S
C4364 H4345 0.951 . S
C4364 C4362 1.388 . S
C4364 C4365 1.366 . S
C4365 C4364 1.366 . S
C4365 C4366 1.414 . S
C4365 C4368 1.499 . S
C4366 H4346 0.950 . S
C4366 C4365 1.414 . S
C4366 C4367 1.374 . S
C4367 H4347 0.950 . S
C4367 C4363 1.385 . S
C4367 C4366 1.374 . S
C4368 C4365 1.499 . S
C4368 C4369 1.373 . S
C4368 C4370 1.389 . S
C4369 H4348 0.950 . S
C4369 C4368 1.373 . S
C4369 C4385 1.377 . S
C4370 C4368 1.389 . S
C4370 C4371 1.524 . S
C4370 C4384 1.377 . S
C4371 C4370 1.524 . S
C4371 C4372 1.397 . S
C4371 C4376 1.363 . S
C4372 H4349 0.950 . S
C4372 C4371 1.397 . S
C4372 C4373 1.334 . S
C4373 H4350 0.950 . S
C4373 C4372 1.334 . S
C4373 C4374 1.287 . S
C4374 C4373 1.287 . S
C4374 C4375 1.524 . S
C4374 H4393 0.913 . S
C4375 H4351 0.950 . S
C4375 C4374 1.524 . S
C4375 C4376 1.415 . S
C4376 H4352 0.950 . S
C4376 C4371 1.363 . S
C4376 C4375 1.415 . S
C4377 H4353 0.951 . S
C4377 C4378 1.366 . S
C4377 C4379 1.388 . S
C4378 C4377 1.366 . S
C4378 C4382 1.385 . S
C4379 H4354 0.951 . S
C4379 C4377 1.388 . S
C4379 C4380 1.366 . S
C4380 C4379 1.366 . S
C4380 C4381 1.414 . S
C4380 C4383 1.499 . S
C4381 H4355 0.950 . S
C4381 C4380 1.414 . S
C4381 C4382 1.374 . S
C4382 H4356 0.950 . S
C4382 C4378 1.385 . S
C4382 C4381 1.374 . S
C4383 C4380 1.499 . S
C4383 C4384 1.373 . S
C4383 C4385 1.389 . S
C4384 H4357 0.950 . S
C4384 C4370 1.377 . S
C4384 C4383 1.373 . S
C4385 C4369 1.377 . S
C4385 C4383 1.389 . S
C4385 C4386 1.524 . S
C4386 C4385 1.524 . S
C4386 C4387 1.397 . S
C4386 C4391 1.363 . S
C4387 H4358 0.950 . S
C4387 C4386 1.397 . S
C4387 C4388 1.334 . S
C4388 H4359 0.950 . S
C4388 C4387 1.334 . S
C4388 C4389 1.287 . S
C4389 C4388 1.287 . S
C4389 C4390 1.524 . S
C4389 H4392 0.999 . S
C4390 H4360 0.950 . S
C4390 C4389 1.524 . S
C4390 C4391 1.415 . S
C4391 H4361 0.950 . S
C4391 C4386 1.363 . S
C4391 C4390 1.415 . S
H4392 C4389 0.999 . S
H4393 C4374 0.913 . S
H4394 C4412 0.951 . S
H4395 C4414 0.951 . S
H4396 C4416 0.950 . S
H4397 C4417 0.950 . S
H4398 C4419 0.950 . S
H4399 C4422 0.950 . S
H4400 C4423 0.950 . S
H4401 C4425 0.950 . S
H4402 C4426 0.950 . S
H4403 C4427 0.951 . S
H4404 C4429 0.951 . S
H4405 C4431 0.950 . S
H4406 C4432 0.950 . S
H4407 C4434 0.950 . S
H4408 C4437 0.950 . S
H4409 C4438 0.950 . S
H4410 C4440 0.950 . S
H4411 C4441 0.950 . S
C4412 H4394 0.951 . S
C4412 C4413 1.366 . S
C4412 C4414 1.388 . S
C4413 C4412 1.366 . S
C4413 C4417 1.385 . S
C4414 H4395 0.951 . S
C4414 C4412 1.388 . S
C4414 C4415 1.366 . S
C4415 C4414 1.366 . S
C4415 C4416 1.414 . S
C4415 C4418 1.499 . S
C4416 H4396 0.950 . S
C4416 C4415 1.414 . S
C4416 C4417 1.374 . S
C4417 H4397 0.950 . S
C4417 C4413 1.385 . S
C4417 C4416 1.374 . S
C4418 C4415 1.499 . S
C4418 C4419 1.373 . S
C4418 C4420 1.389 . S
C4419 H4398 0.950 . S
C4419 C4418 1.373 . S
C4419 C4435 1.377 . S
C4420 C4418 1.389 . S
C4420 C4421 1.524 . S
C4420 C4434 1.377 . S
C4421 C4420 1.524 . S
C4421 C4422 1.397 . S
C4421 C4426 1.363 . S
C4422 H4399 0.950 . S
C4422 C4421 1.397 . S
C4422 C4423 1.334 . S
C4423 H4400 0.950 . S
C4423 C4422 1.334 . S
C4423 C4424 1.287 . S
C4424 C4423 1.287 . S
C4424 C4425 1.524 . S
C4424 H4443 0.913 . S
C4425 H4401 0.950 . S
C4425 C4424 1.524 . S
C4425 C4426 1.415 . S
C4426 H4402 0.950 . S
C4426 C4421 1.363 . S
C4426 C4425 1.415 . S
C4427 H4403 0.951 . S
C4427 C4428 1.366 . S
C4427 C4429 1.388 . S
C4428 C4427 1.366 . S
C4428 C4432 1.385 . S
C4429 H4404 0.951 . S
C4429 C4427 1.388 . S
C4429 C4430 1.366 . S
C4430 C4429 1.366 . S
C4430 C4431 1.414 . S
C4430 C4433 1.499 . S
C4431 H4405 0.950 . S
C4431 C4430 1.414 . S
C4431 C4432 1.374 . S
C4432 H4406 0.950 . S
C4432 C4428 1.385 . S
C4432 C4431 1.374 . S
C4433 C4430 1.499 . S
C4433 C4434 1.373 . S
C4433 C4435 1.389 . S
C4434 H4407 0.950 . S
C4434 C4420 1.377 . S
C4434 C4433 1.373 . S
C4435 C4419 1.377 . S
C4435 C4433 1.389 . S
C4435 C4436 1.524 . S
C4436 C4435 1.524 . S
C4436 C4437 1.397 . S
C4436 C4441 1.363 . S
C4437 H4408 0.950 . S
C4437 C4436 1.397 . S
C4437 C4438 1.334 . S
C4438 H4409 0.950 . S
C4438 C4437 1.334 . S
C4438 C4439 1.287 . S
C4439 C4438 1.287 . S
C4439 C4440 1.524 . S
C4439 H4442 0.999 . S
C4440 H4410 0.950 . S
C4440 C4439 1.524 . S
C4440 C4441 1.415 . S
C4441 H4411 0.950 . S
C4441 C4436 1.363 . S
C4441 C4440 1.415 . S
H4442 C4439 0.999 . S
H4443 C4424 0.913 . S
H4444 C4462 0.951 . S
H4445 C4464 0.951 . S
H4446 C4466 0.950 . S
H4447 C4467 0.950 . S
H4448 C4469 0.950 . S
H4449 C4472 0.950 . S
H4450 C4473 0.950 . S
H4451 C4475 0.950 . S
H4452 C4476 0.950 . S
H4453 C4477 0.951 . S
H4454 C4479 0.951 . S
H4455 C4481 0.950 . S
H4456 C4482 0.950 . S
H4457 C4484 0.950 . S
H4458 C4487 0.950 . S
H4459 C4488 0.950 . S
H4460 C4490 0.950 . S
H4461 C4491 0.950 . S
C4462 H4444 0.951 . S
C4462 C4463 1.366 . S
C4462 C4464 1.388 . S
C4463 C4462 1.366 . S
C4463 C4467 1.385 . S
C4464 H4445 0.951 . S
C4464 C4462 1.388 . S
C4464 C4465 1.366 . S
C4465 C4464 1.366 . S
C4465 C4466 1.414 . S
C4465 C4468 1.499 . S
C4466 H4446 0.950 . S
C4466 C4465 1.414 . S
C4466 C4467 1.374 . S
C4467 H4447 0.950 . S
C4467 C4463 1.385 . S
C4467 C4466 1.374 . S
C4468 C4465 1.499 . S
C4468 C4469 1.373 . S
C4468 C4470 1.389 . S
C4469 H4448 0.950 . S
C4469 C4468 1.373 . S
C4469 C4485 1.377 . S
C4470 C4468 1.389 . S
C4470 C4471 1.524 . S
C4470 C4484 1.377 . S
C4471 C4470 1.524 . S
C4471 C4472 1.397 . S
C4471 C4476 1.363 . S
C4472 H4449 0.950 . S
C4472 C4471 1.397 . S
C4472 C4473 1.334 . S
C4473 H4450 0.950 . S
C4473 C4472 1.334 . S
C4473 C4474 1.287 . S
C4474 C4473 1.287 . S
C4474 C4475 1.524 . S
C4474 H4493 0.913 . S
C4475 H4451 0.950 . S
C4475 C4474 1.524 . S
C4475 C4476 1.415 . S
C4476 H4452 0.950 . S
C4476 C4471 1.363 . S
C4476 C4475 1.415 . S
C4477 H4453 0.951 . S
C4477 C4478 1.366 . S
C4477 C4479 1.388 . S
C4478 C4477 1.366 . S
C4478 C4482 1.385 . S
C4479 H4454 0.951 . S
C4479 C4477 1.388 . S
C4479 C4480 1.366 . S
C4480 C4479 1.366 . S
C4480 C4481 1.414 . S
C4480 C4483 1.499 . S
C4481 H4455 0.950 . S
C4481 C4480 1.414 . S
C4481 C4482 1.374 . S
C4482 H4456 0.950 . S
C4482 C4478 1.385 . S
C4482 C4481 1.374 . S
C4483 C4480 1.499 . S
C4483 C4484 1.373 . S
C4483 C4485 1.389 . S
C4484 H4457 0.950 . S
C4484 C4470 1.377 . S
C4484 C4483 1.373 . S
C4485 C4469 1.377 . S
C4485 C4483 1.389 . S
C4485 C4486 1.524 . S
C4486 C4485 1.524 . S
C4486 C4487 1.397 . S
C4486 C4491 1.363 . S
C4487 H4458 0.950 . S
C4487 C4486 1.397 . S
C4487 C4488 1.334 . S
C4488 H4459 0.950 . S
C4488 C4487 1.334 . S
C4488 C4489 1.287 . S
C4489 C4488 1.287 . S
C4489 C4490 1.524 . S
C4489 H4492 0.999 . S
C4490 H4460 0.950 . S
C4490 C4489 1.524 . S
C4490 C4491 1.415 . S
C4491 H4461 0.950 . S
C4491 C4486 1.363 . S
C4491 C4490 1.415 . S
H4492 C4489 0.999 . S
H4493 C4474 0.913 . S
H4494 C4512 0.951 . S
H4495 C4514 0.951 . S
H4496 C4516 0.950 . S
H4497 C4517 0.950 . S
H4498 C4519 0.950 . S
H4499 C4522 0.950 . S
H4500 C4523 0.950 . S
H4501 C4525 0.950 . S
H4502 C4526 0.950 . S
H4503 C4527 0.951 . S
H4504 C4529 0.951 . S
H4505 C4531 0.950 . S
H4506 C4532 0.950 . S
H4507 C4534 0.950 . S
H4508 C4537 0.950 . S
H4509 C4538 0.950 . S
H4510 C4540 0.950 . S
H4511 C4541 0.950 . S
C4512 H4494 0.951 . S
C4512 C4513 1.366 . S
C4512 C4514 1.388 . S
C4513 C4512 1.366 . S
C4513 C4517 1.385 . S
C4514 H4495 0.951 . S
C4514 C4512 1.388 . S
C4514 C4515 1.366 . S
C4515 C4514 1.366 . S
C4515 C4516 1.414 . S
C4515 C4518 1.499 . S
C4516 H4496 0.950 . S
C4516 C4515 1.414 . S
C4516 C4517 1.374 . S
C4517 H4497 0.950 . S
C4517 C4513 1.385 . S
C4517 C4516 1.374 . S
C4518 C4515 1.499 . S
C4518 C4519 1.373 . S
C4518 C4520 1.389 . S
C4519 H4498 0.950 . S
C4519 C4518 1.373 . S
C4519 C4535 1.377 . S
C4520 C4518 1.389 . S
C4520 C4521 1.524 . S
C4520 C4534 1.377 . S
C4521 C4520 1.524 . S
C4521 C4522 1.397 . S
C4521 C4526 1.363 . S
C4522 H4499 0.950 . S
C4522 C4521 1.397 . S
C4522 C4523 1.334 . S
C4523 H4500 0.950 . S
C4523 C4522 1.334 . S
C4523 C4524 1.287 . S
C4524 C4523 1.287 . S
C4524 C4525 1.524 . S
C4524 H4543 0.913 . S
C4525 H4501 0.950 . S
C4525 C4524 1.524 . S
C4525 C4526 1.415 . S
C4526 H4502 0.950 . S
C4526 C4521 1.363 . S
C4526 C4525 1.415 . S
C4527 H4503 0.951 . S
C4527 C4528 1.366 . S
C4527 C4529 1.388 . S
C4528 C4527 1.366 . S
C4528 C4532 1.385 . S
C4529 H4504 0.951 . S
C4529 C4527 1.388 . S
C4529 C4530 1.366 . S
C4530 C4529 1.366 . S
C4530 C4531 1.414 . S
C4530 C4533 1.499 . S
C4531 H4505 0.950 . S
C4531 C4530 1.414 . S
C4531 C4532 1.374 . S
C4532 H4506 0.950 . S
C4532 C4528 1.385 . S
C4532 C4531 1.374 . S
C4533 C4530 1.499 . S
C4533 C4534 1.373 . S
C4533 C4535 1.389 . S
C4534 H4507 0.950 . S
C4534 C4520 1.377 . S
C4534 C4533 1.373 . S
C4535 C4519 1.377 . S
C4535 C4533 1.389 . S
C4535 C4536 1.524 . S
C4536 C4535 1.524 . S
C4536 C4537 1.397 . S
C4536 C4541 1.363 . S
C4537 H4508 0.950 . S
C4537 C4536 1.397 . S
C4537 C4538 1.334 . S
C4538 H4509 0.950 . S
C4538 C4537 1.334 . S
C4538 C4539 1.287 . S
C4539 C4538 1.287 . S
C4539 C4540 1.524 . S
C4539 H4542 0.999 . S
C4540 H4510 0.950 . S
C4540 C4539 1.524 . S
C4540 C4541 1.415 . S
C4541 H4511 0.950 . S
C4541 C4536 1.363 . S
C4541 C4540 1.415 . S
H4542 C4539 0.999 . S
H4543 C4524 0.913 . S
H4544 C4562 0.951 . S
H4545 C4564 0.951 . S
H4546 C4566 0.950 . S
H4547 C4567 0.950 . S
H4548 C4569 0.950 . S
H4549 C4572 0.950 . S
H4550 C4573 0.950 . S
H4551 C4575 0.950 . S
H4552 C4576 0.950 . S
H4553 C4577 0.951 . S
H4554 C4579 0.951 . S
H4555 C4581 0.950 . S
H4556 C4582 0.950 . S
H4557 C4584 0.950 . S
H4558 C4587 0.950 . S
H4559 C4588 0.950 . S
H4560 C4590 0.950 . S
H4561 C4591 0.950 . S
C4562 H4544 0.951 . S
C4562 C4563 1.366 . S
C4562 C4564 1.388 . S
C4563 C4562 1.366 . S
C4563 C4567 1.385 . S
C4564 H4545 0.951 . S
C4564 C4562 1.388 . S
C4564 C4565 1.366 . S
C4565 C4564 1.366 . S
C4565 C4566 1.414 . S
C4565 C4568 1.499 . S
C4566 H4546 0.950 . S
C4566 C4565 1.414 . S
C4566 C4567 1.374 . S
C4567 H4547 0.950 . S
C4567 C4563 1.385 . S
C4567 C4566 1.374 . S
C4568 C4565 1.499 . S
C4568 C4569 1.373 . S
C4568 C4570 1.389 . S
C4569 H4548 0.950 . S
C4569 C4568 1.373 . S
C4569 C4585 1.377 . S
C4570 C4568 1.389 . S
C4570 C4571 1.524 . S
C4570 C4584 1.377 . S
C4571 C4570 1.524 . S
C4571 C4572 1.397 . S
C4571 C4576 1.363 . S
C4572 H4549 0.950 . S
C4572 C4571 1.397 . S
C4572 C4573 1.334 . S
C4573 H4550 0.950 . S
C4573 C4572 1.334 . S
C4573 C4574 1.287 . S
C4574 C4573 1.287 . S
C4574 C4575 1.524 . S
C4574 H4593 0.913 . S
C4575 H4551 0.950 . S
C4575 C4574 1.524 . S
C4575 C4576 1.415 . S
C4576 H4552 0.950 . S
C4576 C4571 1.363 . S
C4576 C4575 1.415 . S
C4577 H4553 0.951 . S
C4577 C4578 1.366 . S
C4577 C4579 1.388 . S
C4578 C4577 1.366 . S
C4578 C4582 1.385 . S
C4579 H4554 0.951 . S
C4579 C4577 1.388 . S
C4579 C4580 1.366 . S
C4580 C4579 1.366 . S
C4580 C4581 1.414 . S
C4580 C4583 1.499 . S
C4581 H4555 0.950 . S
C4581 C4580 1.414 . S
C4581 C4582 1.374 . S
C4582 H4556 0.950 . S
C4582 C4578 1.385 . S
C4582 C4581 1.374 . S
C4583 C4580 1.499 . S
C4583 C4584 1.373 . S
C4583 C4585 1.389 . S
C4584 H4557 0.950 . S
C4584 C4570 1.377 . S
C4584 C4583 1.373 . S
C4585 C4569 1.377 . S
C4585 C4583 1.389 . S
C4585 C4586 1.524 . S
C4586 C4585 1.524 . S
C4586 C4587 1.397 . S
C4586 C4591 1.363 . S
C4587 H4558 0.950 . S
C4587 C4586 1.397 . S
C4587 C4588 1.334 . S
C4588 H4559 0.950 . S
C4588 C4587 1.334 . S
C4588 C4589 1.287 . S
C4589 C4588 1.287 . S
C4589 C4590 1.524 . S
C4589 H4592 0.999 . S
C4590 H4560 0.950 . S
C4590 C4589 1.524 . S
C4590 C4591 1.415 . S
C4591 H4561 0.950 . S
C4591 C4586 1.363 . S
C4591 C4590 1.415 . S
H4592 C4589 0.999 . S
H4593 C4574 0.913 . S
H4594 C4612 0.951 . S
H4595 C4614 0.951 . S
H4596 C4616 0.950 . S
H4597 C4617 0.950 . S
H4598 C4619 0.950 . S
H4599 C4622 0.950 . S
H4600 C4623 0.950 . S
H4601 C4625 0.950 . S
H4602 C4626 0.950 . S
H4603 C4627 0.951 . S
H4604 C4629 0.951 . S
H4605 C4631 0.950 . S
H4606 C4632 0.950 . S
H4607 C4634 0.950 . S
H4608 C4637 0.950 . S
H4609 C4638 0.950 . S
H4610 C4640 0.950 . S
H4611 C4641 0.950 . S
C4612 H4594 0.951 . S
C4612 C4613 1.366 . S
C4612 C4614 1.388 . S
C4613 C4612 1.366 . S
C4613 C4617 1.385 . S
C4614 H4595 0.951 . S
C4614 C4612 1.388 . S
C4614 C4615 1.366 . S
C4615 C4614 1.366 . S
C4615 C4616 1.414 . S
C4615 C4618 1.499 . S
C4616 H4596 0.950 . S
C4616 C4615 1.414 . S
C4616 C4617 1.374 . S
C4617 H4597 0.950 . S
C4617 C4613 1.385 . S
C4617 C4616 1.374 . S
C4618 C4615 1.499 . S
C4618 C4619 1.373 . S
C4618 C4620 1.389 . S
C4619 H4598 0.950 . S
C4619 C4618 1.373 . S
C4619 C4635 1.377 . S
C4620 C4618 1.389 . S
C4620 C4621 1.524 . S
C4620 C4634 1.377 . S
C4621 C4620 1.524 . S
C4621 C4622 1.397 . S
C4621 C4626 1.363 . S
C4622 H4599 0.950 . S
C4622 C4621 1.397 . S
C4622 C4623 1.334 . S
C4623 H4600 0.950 . S
C4623 C4622 1.334 . S
C4623 C4624 1.287 . S
C4624 C4623 1.287 . S
C4624 C4625 1.524 . S
C4624 H4643 0.913 . S
C4625 H4601 0.950 . S
C4625 C4624 1.524 . S
C4625 C4626 1.415 . S
C4626 H4602 0.950 . S
C4626 C4621 1.363 . S
C4626 C4625 1.415 . S
C4627 H4603 0.951 . S
C4627 C4628 1.366 . S
C4627 C4629 1.388 . S
C4628 C4627 1.366 . S
C4628 C4632 1.385 . S
C4629 H4604 0.951 . S
C4629 C4627 1.388 . S
C4629 C4630 1.366 . S
C4630 C4629 1.366 . S
C4630 C4631 1.414 . S
C4630 C4633 1.499 . S
C4631 H4605 0.950 . S
C4631 C4630 1.414 . S
C4631 C4632 1.374 . S
C4632 H4606 0.950 . S
C4632 C4628 1.385 . S
C4632 C4631 1.374 . S
C4633 C4630 1.499 . S
C4633 C4634 1.373 . S
C4633 C4635 1.389 . S
C4634 H4607 0.950 . S
C4634 C4620 1.377 . S
C4634 C4633 1.373 . S
C4635 C4619 1.377 . S
C4635 C4633 1.389 . S
C4635 C4636 1.524 . S
C4636 C4635 1.524 . S
C4636 C4637 1.397 . S
C4636 C4641 1.363 . S
C4637 H4608 0.950 . S
C4637 C4636 1.397 . S
C4637 C4638 1.334 . S
C4638 H4609 0.950 . S
C4638 C4637 1.334 . S
C4638 C4639 1.287 . S
C4639 C4638 1.287 . S
C4639 C4640 1.524 . S
C4639 H4642 0.999 . S
C4640 H4610 0.950 . S
C4640 C4639 1.524 . S
C4640 C4641 1.415 . S
C4641 H4611 0.950 . S
C4641 C4636 1.363 . S
C4641 C4640 1.415 . S
H4642 C4639 0.999 . S
H4643 C4624 0.913 . S
H4644 C4662 0.951 . S
H4645 C4664 0.951 . S
H4646 C4666 0.950 . S
H4647 C4667 0.950 . S
H4648 C4669 0.950 . S
H4649 C4672 0.950 . S
H4650 C4673 0.950 . S
H4651 C4675 0.950 . S
H4652 C4676 0.950 . S
H4653 C4677 0.951 . S
H4654 C4679 0.951 . S
H4655 C4681 0.950 . S
H4656 C4682 0.950 . S
H4657 C4684 0.950 . S
H4658 C4687 0.950 . S
H4659 C4688 0.950 . S
H4660 C4690 0.950 . S
H4661 C4691 0.950 . S
C4662 H4644 0.951 . S
C4662 C4663 1.366 . S
C4662 C4664 1.388 . S
C4663 C4662 1.366 . S
C4663 C4667 1.385 . S
C4664 H4645 0.951 . S
C4664 C4662 1.388 . S
C4664 C4665 1.366 . S
C4665 C4664 1.366 . S
C4665 C4666 1.414 . S
C4665 C4668 1.499 . S
C4666 H4646 0.950 . S
C4666 C4665 1.414 . S
C4666 C4667 1.374 . S
C4667 H4647 0.950 . S
C4667 C4663 1.385 . S
C4667 C4666 1.374 . S
C4668 C4665 1.499 . S
C4668 C4669 1.373 . S
C4668 C4670 1.389 . S
C4669 H4648 0.950 . S
C4669 C4668 1.373 . S
C4669 C4685 1.377 . S
C4670 C4668 1.389 . S
C4670 C4671 1.524 . S
C4670 C4684 1.377 . S
C4671 C4670 1.524 . S
C4671 C4672 1.397 . S
C4671 C4676 1.363 . S
C4672 H4649 0.950 . S
C4672 C4671 1.397 . S
C4672 C4673 1.334 . S
C4673 H4650 0.950 . S
C4673 C4672 1.334 . S
C4673 C4674 1.287 . S
C4674 C4673 1.287 . S
C4674 C4675 1.524 . S
C4674 H4693 0.913 . S
C4675 H4651 0.950 . S
C4675 C4674 1.524 . S
C4675 C4676 1.415 . S
C4676 H4652 0.950 . S
C4676 C4671 1.363 . S
C4676 C4675 1.415 . S
C4677 H4653 0.951 . S
C4677 C4678 1.366 . S
C4677 C4679 1.388 . S
C4678 C4677 1.366 . S
C4678 C4682 1.385 . S
C4679 H4654 0.951 . S
C4679 C4677 1.388 . S
C4679 C4680 1.366 . S
C4680 C4679 1.366 . S
C4680 C4681 1.414 . S
C4680 C4683 1.499 . S
C4681 H4655 0.950 . S
C4681 C4680 1.414 . S
C4681 C4682 1.374 . S
C4682 H4656 0.950 . S
C4682 C4678 1.385 . S
C4682 C4681 1.374 . S
C4683 C4680 1.499 . S
C4683 C4684 1.373 . S
C4683 C4685 1.389 . S
C4684 H4657 0.950 . S
C4684 C4670 1.377 . S
C4684 C4683 1.373 . S
C4685 C4669 1.377 . S
C4685 C4683 1.389 . S
C4685 C4686 1.524 . S
C4686 C4685 1.524 . S
C4686 C4687 1.397 . S
C4686 C4691 1.363 . S
C4687 H4658 0.950 . S
C4687 C4686 1.397 . S
C4687 C4688 1.334 . S
C4688 H4659 0.950 . S
C4688 C4687 1.334 . S
C4688 C4689 1.287 . S
C4689 C4688 1.287 . S
C4689 C4690 1.524 . S
C4689 H4692 0.999 . S
C4690 H4660 0.950 . S
C4690 C4689 1.524 . S
C4690 C4691 1.415 . S
C4691 H4661 0.950 . S
C4691 C4686 1.363 . S
C4691 C4690 1.415 . S
H4692 C4689 0.999 . S
H4693 C4674 0.913 . S
H4694 C4712 0.951 . S
H4695 C4714 0.951 . S
H4696 C4716 0.950 . S
H4697 C4717 0.950 . S
H4698 C4719 0.950 . S
H4699 C4722 0.950 . S
H4700 C4723 0.950 . S
H4701 C4725 0.950 . S
H4702 C4726 0.950 . S
H4703 C4727 0.951 . S
H4704 C4729 0.951 . S
H4705 C4731 0.950 . S
H4706 C4732 0.950 . S
H4707 C4734 0.950 . S
H4708 C4737 0.950 . S
H4709 C4738 0.950 . S
H4710 C4740 0.950 . S
H4711 C4741 0.950 . S
C4712 H4694 0.951 . S
C4712 C4713 1.366 . S
C4712 C4714 1.388 . S
C4713 C4712 1.366 . S
C4713 C4717 1.385 . S
C4714 H4695 0.951 . S
C4714 C4712 1.388 . S
C4714 C4715 1.366 . S
C4715 C4714 1.366 . S
C4715 C4716 1.414 . S
C4715 C4718 1.499 . S
C4716 H4696 0.950 . S
C4716 C4715 1.414 . S
C4716 C4717 1.374 . S
C4717 H4697 0.950 . S
C4717 C4713 1.385 . S
C4717 C4716 1.374 . S
C4718 C4715 1.499 . S
C4718 C4719 1.373 . S
C4718 C4720 1.389 . S
C4719 H4698 0.950 . S
C4719 C4718 1.373 . S
C4719 C4735 1.377 . S
C4720 C4718 1.389 . S
C4720 C4721 1.524 . S
C4720 C4734 1.377 . S
C4721 C4720 1.524 . S
C4721 C4722 1.397 . S
C4721 C4726 1.363 . S
C4722 H4699 0.950 . S
C4722 C4721 1.397 . S
C4722 C4723 1.334 . S
C4723 H4700 0.950 . S
C4723 C4722 1.334 . S
C4723 C4724 1.287 . S
C4724 C4723 1.287 . S
C4724 C4725 1.524 . S
C4724 H4743 0.913 . S
C4725 H4701 0.950 . S
C4725 C4724 1.524 . S
C4725 C4726 1.415 . S
C4726 H4702 0.950 . S
C4726 C4721 1.363 . S
C4726 C4725 1.415 . S
C4727 H4703 0.951 . S
C4727 C4728 1.366 . S
C4727 C4729 1.388 . S
C4728 C4727 1.366 . S
C4728 C4732 1.385 . S
C4729 H4704 0.951 . S
C4729 C4727 1.388 . S
C4729 C4730 1.366 . S
C4730 C4729 1.366 . S
C4730 C4731 1.414 . S
C4730 C4733 1.499 . S
C4731 H4705 0.950 . S
C4731 C4730 1.414 . S
C4731 C4732 1.374 . S
C4732 H4706 0.950 . S
C4732 C4728 1.385 . S
C4732 C4731 1.374 . S
C4733 C4730 1.499 . S
C4733 C4734 1.373 . S
C4733 C4735 1.389 . S
C4734 H4707 0.950 . S
C4734 C4720 1.377 . S
C4734 C4733 1.373 . S
C4735 C4719 1.377 . S
C4735 C4733 1.389 . S
C4735 C4736 1.524 . S
C4736 C4735 1.524 . S
C4736 C4737 1.397 . S
C4736 C4741 1.363 . S
C4737 H4708 0.950 . S
C4737 C4736 1.397 . S
C4737 C4738 1.334 . S
C4738 H4709 0.950 . S
C4738 C4737 1.334 . S
C4738 C4739 1.287 . S
C4739 C4738 1.287 . S
C4739 C4740 1.524 . S
C4739 H4742 0.999 . S
C4740 H4710 0.950 . S
C4740 C4739 1.524 . S
C4740 C4741 1.415 . S
C4741 H4711 0.950 . S
C4741 C4736 1.363 . S
C4741 C4740 1.415 . S
H4742 C4739 0.999 . S
H4743 C4724 0.913 . S
H4744 C4762 0.951 . S
H4745 C4764 0.951 . S
H4746 C4766 0.950 . S
H4747 C4767 0.950 . S
H4748 C4769 0.950 . S
H4749 C4772 0.950 . S
H4750 C4773 0.950 . S
H4751 C4775 0.950 . S
H4752 C4776 0.950 . S
H4753 C4777 0.951 . S
H4754 C4779 0.951 . S
H4755 C4781 0.950 . S
H4756 C4782 0.950 . S
H4757 C4784 0.950 . S
H4758 C4787 0.950 . S
H4759 C4788 0.950 . S
H4760 C4790 0.950 . S
H4761 C4791 0.950 . S
C4762 H4744 0.951 . S
C4762 C4763 1.366 . S
C4762 C4764 1.388 . S
C4763 C4762 1.366 . S
C4763 C4767 1.385 . S
C4764 H4745 0.951 . S
C4764 C4762 1.388 . S
C4764 C4765 1.366 . S
C4765 C4764 1.366 . S
C4765 C4766 1.414 . S
C4765 C4768 1.499 . S
C4766 H4746 0.950 . S
C4766 C4765 1.414 . S
C4766 C4767 1.374 . S
C4767 H4747 0.950 . S
C4767 C4763 1.385 . S
C4767 C4766 1.374 . S
C4768 C4765 1.499 . S
C4768 C4769 1.373 . S
C4768 C4770 1.389 . S
C4769 H4748 0.950 . S
C4769 C4768 1.373 . S
C4769 C4785 1.377 . S
C4770 C4768 1.389 . S
C4770 C4771 1.524 . S
C4770 C4784 1.377 . S
C4771 C4770 1.524 . S
C4771 C4772 1.397 . S
C4771 C4776 1.363 . S
C4772 H4749 0.950 . S
C4772 C4771 1.397 . S
C4772 C4773 1.334 . S
C4773 H4750 0.950 . S
C4773 C4772 1.334 . S
C4773 C4774 1.287 . S
C4774 C4773 1.287 . S
C4774 C4775 1.524 . S
C4774 H4793 0.913 . S
C4775 H4751 0.950 . S
C4775 C4774 1.524 . S
C4775 C4776 1.415 . S
C4776 H4752 0.950 . S
C4776 C4771 1.363 . S
C4776 C4775 1.415 . S
C4777 H4753 0.951 . S
C4777 C4778 1.366 . S
C4777 C4779 1.388 . S
C4778 C4777 1.366 . S
C4778 C4782 1.385 . S
C4779 H4754 0.951 . S
C4779 C4777 1.388 . S
C4779 C4780 1.366 . S
C4780 C4779 1.366 . S
C4780 C4781 1.414 . S
C4780 C4783 1.499 . S
C4781 H4755 0.950 . S
C4781 C4780 1.414 . S
C4781 C4782 1.374 . S
C4782 H4756 0.950 . S
C4782 C4778 1.385 . S
C4782 C4781 1.374 . S
C4783 C4780 1.499 . S
C4783 C4784 1.373 . S
C4783 C4785 1.389 . S
C4784 H4757 0.950 . S
C4784 C4770 1.377 . S
C4784 C4783 1.373 . S
C4785 C4769 1.377 . S
C4785 C4783 1.389 . S
C4785 C4786 1.524 . S
C4786 C4785 1.524 . S
C4786 C4787 1.397 . S
C4786 C4791 1.363 . S
C4787 H4758 0.950 . S
C4787 C4786 1.397 . S
C4787 C4788 1.334 . S
C4788 H4759 0.950 . S
C4788 C4787 1.334 . S
C4788 C4789 1.287 . S
C4789 C4788 1.287 . S
C4789 C4790 1.524 . S
C4789 H4792 0.999 . S
C4790 H4760 0.950 . S
C4790 C4789 1.524 . S
C4790 C4791 1.415 . S
C4791 H4761 0.950 . S
C4791 C4786 1.363 . S
C4791 C4790 1.415 . S
H4792 C4789 0.999 . S
H4793 C4774 0.913 . S
H4794 C4812 0.951 . S
H4795 C4814 0.951 . S
H4796 C4816 0.950 . S
H4797 C4817 0.950 . S
H4798 C4819 0.950 . S
H4799 C4822 0.950 . S
H4800 C4823 0.950 . S
H4801 C4825 0.950 . S
H4802 C4826 0.950 . S
H4803 C4827 0.951 . S
H4804 C4829 0.951 . S
H4805 C4831 0.950 . S
H4806 C4832 0.950 . S
H4807 C4834 0.950 . S
H4808 C4837 0.950 . S
H4809 C4838 0.950 . S
H4810 C4840 0.950 . S
H4811 C4841 0.950 . S
C4812 H4794 0.951 . S
C4812 C4813 1.366 . S
C4812 C4814 1.388 . S
C4813 C4812 1.366 . S
C4813 C4817 1.385 . S
C4814 H4795 0.951 . S
C4814 C4812 1.388 . S
C4814 C4815 1.366 . S
C4815 C4814 1.366 . S
C4815 C4816 1.414 . S
C4815 C4818 1.499 . S
C4816 H4796 0.950 . S
C4816 C4815 1.414 . S
C4816 C4817 1.374 . S
C4817 H4797 0.950 . S
C4817 C4813 1.385 . S
C4817 C4816 1.374 . S
C4818 C4815 1.499 . S
C4818 C4819 1.373 . S
C4818 C4820 1.389 . S
C4819 H4798 0.950 . S
C4819 C4818 1.373 . S
C4819 C4835 1.377 . S
C4820 C4818 1.389 . S
C4820 C4821 1.524 . S
C4820 C4834 1.377 . S
C4821 C4820 1.524 . S
C4821 C4822 1.397 . S
C4821 C4826 1.363 . S
C4822 H4799 0.950 . S
C4822 C4821 1.397 . S
C4822 C4823 1.334 . S
C4823 H4800 0.950 . S
C4823 C4822 1.334 . S
C4823 C4824 1.287 . S
C4824 C4823 1.287 . S
C4824 C4825 1.524 . S
C4824 H4843 0.913 . S
C4825 H4801 0.950 . S
C4825 C4824 1.524 . S
C4825 C4826 1.415 . S
C4826 H4802 0.950 . S
C4826 C4821 1.363 . S
C4826 C4825 1.415 . S
C4827 H4803 0.951 . S
C4827 C4828 1.366 . S
C4827 C4829 1.388 . S
C4828 C4827 1.366 . S
C4828 C4832 1.385 . S
C4829 H4804 0.951 . S
C4829 C4827 1.388 . S
C4829 C4830 1.366 . S
C4830 C4829 1.366 . S
C4830 C4831 1.414 . S
C4830 C4833 1.499 . S
C4831 H4805 0.950 . S
C4831 C4830 1.414 . S
C4831 C4832 1.374 . S
C4832 H4806 0.950 . S
C4832 C4828 1.385 . S
C4832 C4831 1.374 . S
C4833 C4830 1.499 . S
C4833 C4834 1.373 . S
C4833 C4835 1.389 . S
C4834 H4807 0.950 . S
C4834 C4820 1.377 . S
C4834 C4833 1.373 . S
C4835 C4819 1.377 . S
C4835 C4833 1.389 . S
C4835 C4836 1.524 . S
C4836 C4835 1.524 . S
C4836 C4837 1.397 . S
C4836 C4841 1.363 . S
C4837 H4808 0.950 . S
C4837 C4836 1.397 . S
C4837 C4838 1.334 . S
C4838 H4809 0.950 . S
C4838 C4837 1.334 . S
C4838 C4839 1.287 . S
C4839 C4838 1.287 . S
C4839 C4840 1.524 . S
C4839 H4842 0.999 . S
C4840 H4810 0.950 . S
C4840 C4839 1.524 . S
C4840 C4841 1.415 . S
C4841 H4811 0.950 . S
C4841 C4836 1.363 . S
C4841 C4840 1.415 . S
H4842 C4839 0.999 . S
H4843 C4824 0.913 . S
H4844 C4862 0.951 . S
H4845 C4864 0.951 . S
H4846 C4866 0.950 . S
H4847 C4867 0.950 . S
H4848 C4869 0.950 . S
H4849 C4872 0.950 . S
H4850 C4873 0.950 . S
H4851 C4875 0.950 . S
H4852 C4876 0.950 . S
H4853 C4877 0.951 . S
H4854 C4879 0.951 . S
H4855 C4881 0.950 . S
H4856 C4882 0.950 . S
H4857 C4884 0.950 . S
H4858 C4887 0.950 . S
H4859 C4888 0.950 . S
H4860 C4890 0.950 . S
H4861 C4891 0.950 . S
C4862 H4844 0.951 . S
C4862 C4863 1.366 . S
C4862 C4864 1.388 . S
C4863 C4862 1.366 . S
C4863 C4867 1.385 . S
C4864 H4845 0.951 . S
C4864 C4862 1.388 . S
C4864 C4865 1.366 . S
C4865 C4864 1.366 . S
C4865 C4866 1.414 . S
C4865 C4868 1.499 . S
C4866 H4846 0.950 . S
C4866 C4865 1.414 . S
C4866 C4867 1.374 . S
C4867 H4847 0.950 . S
C4867 C4863 1.385 . S
C4867 C4866 1.374 . S
C4868 C4865 1.499 . S
C4868 C4869 1.373 . S
C4868 C4870 1.389 . S
C4869 H4848 0.950 . S
C4869 C4868 1.373 . S
C4869 C4885 1.377 . S
C4870 C4868 1.389 . S
C4870 C4871 1.524 . S
C4870 C4884 1.377 . S
C4871 C4870 1.524 . S
C4871 C4872 1.397 . S
C4871 C4876 1.363 . S
C4872 H4849 0.950 . S
C4872 C4871 1.397 . S
C4872 C4873 1.334 . S
C4873 H4850 0.950 . S
C4873 C4872 1.334 . S
C4873 C4874 1.287 . S
C4874 C4873 1.287 . S
C4874 C4875 1.524 . S
C4874 H4893 0.913 . S
C4875 H4851 0.950 . S
C4875 C4874 1.524 . S
C4875 C4876 1.415 . S
C4876 H4852 0.950 . S
C4876 C4871 1.363 . S
C4876 C4875 1.415 . S
C4877 H4853 0.951 . S
C4877 C4878 1.366 . S
C4877 C4879 1.388 . S
C4878 C4877 1.366 . S
C4878 C4882 1.385 . S
C4879 H4854 0.951 . S
C4879 C4877 1.388 . S
C4879 C4880 1.366 . S
C4880 C4879 1.366 . S
C4880 C4881 1.414 . S
C4880 C4883 1.499 . S
C4881 H4855 0.950 . S
C4881 C4880 1.414 . S
C4881 C4882 1.374 . S
C4882 H4856 0.950 . S
C4882 C4878 1.385 . S
C4882 C4881 1.374 . S
C4883 C4880 1.499 . S
C4883 C4884 1.373 . S
C4883 C4885 1.389 . S
C4884 H4857 0.950 . S
C4884 C4870 1.377 . S
C4884 C4883 1.373 . S
C4885 C4869 1.377 . S
C4885 C4883 1.389 . S
C4885 C4886 1.524 . S
C4886 C4885 1.524 . S
C4886 C4887 1.397 . S
C4886 C4891 1.363 . S
C4887 H4858 0.950 . S
C4887 C4886 1.397 . S
C4887 C4888 1.334 . S
C4888 H4859 0.950 . S
C4888 C4887 1.334 . S
C4888 C4889 1.287 . S
C4889 C4888 1.287 . S
C4889 C4890 1.524 . S
C4889 H4892 0.999 . S
C4890 H4860 0.950 . S
C4890 C4889 1.524 . S
C4890 C4891 1.415 . S
C4891 H4861 0.950 . S
C4891 C4886 1.363 . S
C4891 C4890 1.415 . S
H4892 C4889 0.999 . S
H4893 C4874 0.913 . S
H4894 C4912 0.951 . S
H4895 C4914 0.951 . S
H4896 C4916 0.950 . S
H4897 C4917 0.950 . S
H4898 C4919 0.950 . S
H4899 C4922 0.950 . S
H4900 C4923 0.950 . S
H4901 C4925 0.950 . S
H4902 C4926 0.950 . S
H4903 C4927 0.951 . S
H4904 C4929 0.951 . S
H4905 C4931 0.950 . S
H4906 C4932 0.950 . S
H4907 C4934 0.950 . S
H4908 C4937 0.950 . S
H4909 C4938 0.950 . S
H4910 C4940 0.950 . S
H4911 C4941 0.950 . S
C4912 H4894 0.951 . S
C4912 C4913 1.366 . S
C4912 C4914 1.388 . S
C4913 C4912 1.366 . S
C4913 C4917 1.385 . S
C4914 H4895 0.951 . S
C4914 C4912 1.388 . S
C4914 C4915 1.366 . S
C4915 C4914 1.366 . S
C4915 C4916 1.414 . S
C4915 C4918 1.499 . S
C4916 H4896 0.950 . S
C4916 C4915 1.414 . S
C4916 C4917 1.374 . S
C4917 H4897 0.950 . S
C4917 C4913 1.385 . S
C4917 C4916 1.374 . S
C4918 C4915 1.499 . S
C4918 C4919 1.373 . S
C4918 C4920 1.389 . S
C4919 H4898 0.950 . S
C4919 C4918 1.373 . S
C4919 C4935 1.377 . S
C4920 C4918 1.389 . S
C4920 C4921 1.524 . S
C4920 C4934 1.377 . S
C4921 C4920 1.524 . S
C4921 C4922 1.397 . S
C4921 C4926 1.363 . S
C4922 H4899 0.950 . S
C4922 C4921 1.397 . S
C4922 C4923 1.334 . S
C4923 H4900 0.950 . S
C4923 C4922 1.334 . S
C4923 C4924 1.287 . S
C4924 C4923 1.287 . S
C4924 C4925 1.524 . S
C4924 H4943 0.913 . S
C4925 H4901 0.950 . S
C4925 C4924 1.524 . S
C4925 C4926 1.415 . S
C4926 H4902 0.950 . S
C4926 C4921 1.363 . S
C4926 C4925 1.415 . S
C4927 H4903 0.951 . S
C4927 C4928 1.366 . S
C4927 C4929 1.388 . S
C4928 C4927 1.366 . S
C4928 C4932 1.385 . S
C4929 H4904 0.951 . S
C4929 C4927 1.388 . S
C4929 C4930 1.366 . S
C4930 C4929 1.366 . S
C4930 C4931 1.414 . S
C4930 C4933 1.499 . S
C4931 H4905 0.950 . S
C4931 C4930 1.414 . S
C4931 C4932 1.374 . S
C4932 H4906 0.950 . S
C4932 C4928 1.385 . S
C4932 C4931 1.374 . S
C4933 C4930 1.499 . S
C4933 C4934 1.373 . S
C4933 C4935 1.389 . S
C4934 H4907 0.950 . S
C4934 C4920 1.377 . S
C4934 C4933 1.373 . S
C4935 C4919 1.377 . S
C4935 C4933 1.389 . S
C4935 C4936 1.524 . S
C4936 C4935 1.524 . S
C4936 C4937 1.397 . S
C4936 C4941 1.363 . S
C4937 H4908 0.950 . S
C4937 C4936 1.397 . S
C4937 C4938 1.334 . S
C4938 H4909 0.950 . S
C4938 C4937 1.334 . S
C4938 C4939 1.287 . S
C4939 C4938 1.287 . S
C4939 C4940 1.524 . S
C4939 H4942 0.999 . S
C4940 H4910 0.950 . S
C4940 C4939 1.524 . S
C4940 C4941 1.415 . S
C4941 H4911 0.950 . S
C4941 C4936 1.363 . S
C4941 C4940 1.415 . S
H4942 C4939 0.999 . S
H4943 C4924 0.913 . S
H4944 C4962 0.951 . S
H4945 C4964 0.951 . S
H4946 C4966 0.950 . S
H4947 C4967 0.950 . S
H4948 C4969 0.950 . S
H4949 C4972 0.950 . S
H4950 C4973 0.950 . S
H4951 C4975 0.950 . S
H4952 C4976 0.950 . S
H4953 C4977 0.951 . S
H4954 C4979 0.951 . S
H4955 C4981 0.950 . S
H4956 C4982 0.950 . S
H4957 C4984 0.950 . S
H4958 C4987 0.950 . S
H4959 C4988 0.950 . S
H4960 C4990 0.950 . S
H4961 C4991 0.950 . S
C4962 H4944 0.951 . S
C4962 C4963 1.366 . S
C4962 C4964 1.388 . S
C4963 C4962 1.366 . S
C4963 C4967 1.385 . S
C4964 H4945 0.951 . S
C4964 C4962 1.388 . S
C4964 C4965 1.366 . S
C4965 C4964 1.366 . S
C4965 C4966 1.414 . S
C4965 C4968 1.499 . S
C4966 H4946 0.950 . S
C4966 C4965 1.414 . S
C4966 C4967 1.374 . S
C4967 H4947 0.950 . S
C4967 C4963 1.385 . S
C4967 C4966 1.374 . S
C4968 C4965 1.499 . S
C4968 C4969 1.373 . S
C4968 C4970 1.389 . S
C4969 H4948 0.950 . S
C4969 C4968 1.373 . S
C4969 C4985 1.377 . S
C4970 C4968 1.389 . S
C4970 C4971 1.524 . S
C4970 C4984 1.377 . S
C4971 C4970 1.524 . S
C4971 C4972 1.397 . S
C4971 C4976 1.363 . S
C4972 H4949 0.950 . S
C4972 C4971 1.397 . S
C4972 C4973 1.334 . S
C4973 H4950 0.950 . S
C4973 C4972 1.334 . S
C4973 C4974 1.287 . S
C4974 C4973 1.287 . S
C4974 C4975 1.524 . S
C4974 H4993 0.913 . S
C4975 H4951 0.950 . S
C4975 C4974 1.524 . S
C4975 C4976 1.415 . S
C4976 H4952 0.950 . S
C4976 C4971 1.363 . S
C4976 C4975 1.415 . S
C4977 H4953 0.951 . S
C4977 C4978 1.366 . S
C4977 C4979 1.388 . S
C4978 C4977 1.366 . S
C4978 C4982 1.385 . S
C4979 H4954 0.951 . S
C4979 C4977 1.388 . S
C4979 C4980 1.366 . S
C4980 C4979 1.366 . S
C4980 C4981 1.414 . S
C4980 C4983 1.499 . S
C4981 H4955 0.950 . S
C4981 C4980 1.414 . S
C4981 C4982 1.374 . S
C4982 H4956 0.950 . S
C4982 C4978 1.385 . S
C4982 C4981 1.374 . S
C4983 C4980 1.499 . S
C4983 C4984 1.373 . S
C4983 C4985 1.389 . S
C4984 H4957 0.950 . S
C4984 C4970 1.377 . S
C4984 C4983 1.373 . S
C4985 C4969 1.377 . S
C4985 C4983 1.389 . S
C4985 C4986 1.524 . S
C4986 C4985 1.524 . S
C4986 C4987 1.397 . S
C4986 C4991 1.363 . S
C4987 H4958 0.950 . S
C4987 C4986 1.397 . S
C4987 C4988 1.334 . S
C4988 H4959 0.950 . S
C4988 C4987 1.334 . S
C4988 C4989 1.287 . S
C4989 C4988 1.287 . S
C4989 C4990 1.524 . S
C4989 H4992 0.999 . S
C4990 H4960 0.950 . S
C4990 C4989 1.524 . S
C4990 C4991 1.415 . S
C4991 H4961 0.950 . S
C4991 C4986 1.363 . S
C4991 C4990 1.415 . S
H4992 C4989 0.999 . S
H4993 C4974 0.913 . S
H4994 C5012 0.951 . S
H4995 C5014 0.951 . S
H4996 C5016 0.950 . S
H4997 C5017 0.950 . S
H4998 C5019 0.950 . S
H4999 C5022 0.950 . S
H5000 C5023 0.950 . S
H5001 C5025 0.950 . S
H5002 C5026 0.950 . S
H5003 C5027 0.951 . S
H5004 C5029 0.951 . S
H5005 C5031 0.950 . S
H5006 C5032 0.950 . S
H5007 C5034 0.950 . S
H5008 C5037 0.950 . S
H5009 C5038 0.950 . S
H5010 C5040 0.950 . S
H5011 C5041 0.950 . S
C5012 H4994 0.951 . S
C5012 C5013 1.366 . S
C5012 C5014 1.388 . S
C5013 C5012 1.366 . S
C5013 C5017 1.385 . S
C5014 H4995 0.951 . S
C5014 C5012 1.388 . S
C5014 C5015 1.366 . S
C5015 C5014 1.366 . S
C5015 C5016 1.414 . S
C5015 C5018 1.499 . S
C5016 H4996 0.950 . S
C5016 C5015 1.414 . S
C5016 C5017 1.374 . S
C5017 H4997 0.950 . S
C5017 C5013 1.385 . S
C5017 C5016 1.374 . S
C5018 C5015 1.499 . S
C5018 C5019 1.373 . S
C5018 C5020 1.389 . S
C5019 H4998 0.950 . S
C5019 C5018 1.373 . S
C5019 C5035 1.377 . S
C5020 C5018 1.389 . S
C5020 C5021 1.524 . S
C5020 C5034 1.377 . S
C5021 C5020 1.524 . S
C5021 C5022 1.397 . S
C5021 C5026 1.363 . S
C5022 H4999 0.950 . S
C5022 C5021 1.397 . S
C5022 C5023 1.334 . S
C5023 H5000 0.950 . S
C5023 C5022 1.334 . S
C5023 C5024 1.287 . S
C5024 C5023 1.287 . S
C5024 C5025 1.524 . S
C5024 H5043 0.913 . S
C5025 H5001 0.950 . S
C5025 C5024 1.524 . S
C5025 C5026 1.415 . S
C5026 H5002 0.950 . S
C5026 C5021 1.363 . S
C5026 C5025 1.415 . S
C5027 H5003 0.951 . S
C5027 C5028 1.366 . S
C5027 C5029 1.388 . S
C5028 C5027 1.366 . S
C5028 C5032 1.385 . S
C5029 H5004 0.951 . S
C5029 C5027 1.388 . S
C5029 C5030 1.366 . S
C5030 C5029 1.366 . S
C5030 C5031 1.414 . S
C5030 C5033 1.499 . S
C5031 H5005 0.950 . S
C5031 C5030 1.414 . S
C5031 C5032 1.374 . S
C5032 H5006 0.950 . S
C5032 C5028 1.385 . S
C5032 C5031 1.374 . S
C5033 C5030 1.499 . S
C5033 C5034 1.373 . S
C5033 C5035 1.389 . S
C5034 H5007 0.950 . S
C5034 C5020 1.377 . S
C5034 C5033 1.373 . S
C5035 C5019 1.377 . S
C5035 C5033 1.389 . S
C5035 C5036 1.524 . S
C5036 C5035 1.524 . S
C5036 C5037 1.397 . S
C5036 C5041 1.363 . S
C5037 H5008 0.950 . S
C5037 C5036 1.397 . S
C5037 C5038 1.334 . S
C5038 H5009 0.950 . S
C5038 C5037 1.334 . S
C5038 C5039 1.287 . S
C5039 C5038 1.287 . S
C5039 C5040 1.524 . S
C5039 H5042 0.999 . S
C5040 H5010 0.950 . S
C5040 C5039 1.524 . S
C5040 C5041 1.415 . S
C5041 H5011 0.950 . S
C5041 C5036 1.363 . S
C5041 C5040 1.415 . S
H5042 C5039 0.999 . S
H5043 C5024 0.913 . S
H5044 C5062 0.951 . S
H5045 C5064 0.951 . S
H5046 C5066 0.950 . S
H5047 C5067 0.950 . S
H5048 C5069 0.950 . S
H5049 C5072 0.950 . S
H5050 C5073 0.950 . S
H5051 C5075 0.950 . S
H5052 C5076 0.950 . S
H5053 C5077 0.951 . S
H5054 C5079 0.951 . S
H5055 C5081 0.950 . S
H5056 C5082 0.950 . S
H5057 C5084 0.950 . S
H5058 C5087 0.950 . S
H5059 C5088 0.950 . S
H5060 C5090 0.950 . S
H5061 C5091 0.950 . S
C5062 H5044 0.951 . S
C5062 C5063 1.366 . S
C5062 C5064 1.388 . S
C5063 C5062 1.366 . S
C5063 C5067 1.385 . S
C5064 H5045 0.951 . S
C5064 C5062 1.388 . S
C5064 C5065 1.366 . S
C5065 C5064 1.366 . S
C5065 C5066 1.414 . S
C5065 C5068 1.499 . S
C5066 H5046 0.950 . S
C5066 C5065 1.414 . S
C5066 C5067 1.374 . S
C5067 H5047 0.950 . S
C5067 C5063 1.385 . S
C5067 C5066 1.374 . S
C5068 C5065 1.499 . S
C5068 C5069 1.373 . S
C5068 C5070 1.389 . S
C5069 H5048 0.950 . S
C5069 C5068 1.373 . S
C5069 C5085 1.377 . S
C5070 C5068 1.389 . S
C5070 C5071 1.524 . S
C5070 C5084 1.377 . S
C5071 C5070 1.524 . S
C5071 C5072 1.397 . S
C5071 C5076 1.363 . S
C5072 H5049 0.950 . S
C5072 C5071 1.397 . S
C5072 C5073 1.334 . S
C5073 H5050 0.950 . S
C5073 C5072 1.334 . S
C5073 C5074 1.287 . S
C5074 C5073 1.287 . S
C5074 C5075 1.524 . S
C5074 H5093 0.913 . S
C5075 H5051 0.950 . S
C5075 C5074 1.524 . S
C5075 C5076 1.415 . S
C5076 H5052 0.950 . S
C5076 C5071 1.363 . S
C5076 C5075 1.415 . S
C5077 H5053 0.951 . S
C5077 C5078 1.366 . S
C5077 C5079 1.388 . S
C5078 C5077 1.366 . S
C5078 C5082 1.385 . S
C5079 H5054 0.951 . S
C5079 C5077 1.388 . S
C5079 C5080 1.366 . S
C5080 C5079 1.366 . S
C5080 C5081 1.414 . S
C5080 C5083 1.499 . S
C5081 H5055 0.950 . S
C5081 C5080 1.414 . S
C5081 C5082 1.374 . S
C5082 H5056 0.950 . S
C5082 C5078 1.385 . S
C5082 C5081 1.374 . S
C5083 C5080 1.499 . S
C5083 C5084 1.373 . S
C5083 C5085 1.389 . S
C5084 H5057 0.950 . S
C5084 C5070 1.377 . S
C5084 C5083 1.373 . S
C5085 C5069 1.377 . S
C5085 C5083 1.389 . S
C5085 C5086 1.524 . S
C5086 C5085 1.524 . S
C5086 C5087 1.397 . S
C5086 C5091 1.363 . S
C5087 H5058 0.950 . S
C5087 C5086 1.397 . S
C5087 C5088 1.334 . S
C5088 H5059 0.950 . S
C5088 C5087 1.334 . S
C5088 C5089 1.287 . S
C5089 C5088 1.287 . S
C5089 C5090 1.524 . S
C5089 H5092 0.999 . S
C5090 H5060 0.950 . S
C5090 C5089 1.524 . S
C5090 C5091 1.415 . S
C5091 H5061 0.950 . S
C5091 C5086 1.363 . S
C5091 C5090 1.415 . S
H5092 C5089 0.999 . S
H5093 C5074 0.913 . S
H5094 C5112 0.951 . S
H5095 C5114 0.951 . S
H5096 C5116 0.950 . S
H5097 C5117 0.950 . S
H5098 C5119 0.950 . S
H5099 C5122 0.950 . S
H5100 C5123 0.950 . S
H5101 C5125 0.950 . S
H5102 C5126 0.950 . S
H5103 C5127 0.951 . S
H5104 C5129 0.951 . S
H5105 C5131 0.950 . S
H5106 C5132 0.950 . S
H5107 C5134 0.950 . S
H5108 C5137 0.950 . S
H5109 C5138 0.950 . S
H5110 C5140 0.950 . S
H5111 C5141 0.950 . S
C5112 H5094 0.951 . S
C5112 C5113 1.366 . S
C5112 C5114 1.388 . S
C5113 C5112 1.366 . S
C5113 C5117 1.385 . S
C5114 H5095 0.951 . S
C5114 C5112 1.388 . S
C5114 C5115 1.366 . S
C5115 C5114 1.366 . S
C5115 C5116 1.414 . S
C5115 C5118 1.499 . S
C5116 H5096 0.950 . S
C5116 C5115 1.414 . S
C5116 C5117 1.374 . S
C5117 H5097 0.950 . S
C5117 C5113 1.385 . S
C5117 C5116 1.374 . S
C5118 C5115 1.499 . S
C5118 C5119 1.373 . S
C5118 C5120 1.389 . S
C5119 H5098 0.950 . S
C5119 C5118 1.373 . S
C5119 C5135 1.377 . S
C5120 C5118 1.389 . S
C5120 C5121 1.524 . S
C5120 C5134 1.377 . S
C5121 C5120 1.524 . S
C5121 C5122 1.397 . S
C5121 C5126 1.363 . S
C5122 H5099 0.950 . S
C5122 C5121 1.397 . S
C5122 C5123 1.334 . S
C5123 H5100 0.950 . S
C5123 C5122 1.334 . S
C5123 C5124 1.287 . S
C5124 C5123 1.287 . S
C5124 C5125 1.524 . S
C5124 H5143 0.913 . S
C5125 H5101 0.950 . S
C5125 C5124 1.524 . S
C5125 C5126 1.415 . S
C5126 H5102 0.950 . S
C5126 C5121 1.363 . S
C5126 C5125 1.415 . S
C5127 H5103 0.951 . S
C5127 C5128 1.366 . S
C5127 C5129 1.388 . S
C5128 C5127 1.366 . S
C5128 C5132 1.385 . S
C5129 H5104 0.951 . S
C5129 C5127 1.388 . S
C5129 C5130 1.366 . S
C5130 C5129 1.366 . S
C5130 C5131 1.414 . S
C5130 C5133 1.499 . S
C5131 H5105 0.950 . S
C5131 C5130 1.414 . S
C5131 C5132 1.374 . S
C5132 H5106 0.950 . S
C5132 C5128 1.385 . S
C5132 C5131 1.374 . S
C5133 C5130 1.499 . S
C5133 C5134 1.373 . S
C5133 C5135 1.389 . S
C5134 H5107 0.950 . S
C5134 C5120 1.377 . S
C5134 C5133 1.373 . S
C5135 C5119 1.377 . S
C5135 C5133 1.389 . S
C5135 C5136 1.524 . S
C5136 C5135 1.524 . S
C5136 C5137 1.397 . S
C5136 C5141 1.363 . S
C5137 H5108 0.950 . S
C5137 C5136 1.397 . S
C5137 C5138 1.334 . S
C5138 H5109 0.950 . S
C5138 C5137 1.334 . S
C5138 C5139 1.287 . S
C5139 C5138 1.287 . S
C5139 C5140 1.524 . S
C5139 H5142 0.999 . S
C5140 H5110 0.950 . S
C5140 C5139 1.524 . S
C5140 C5141 1.415 . S
C5141 H5111 0.950 . S
C5141 C5136 1.363 . S
C5141 C5140 1.415 . S
H5142 C5139 0.999 . S
H5143 C5124 0.913 . S
H5144 C5162 0.951 . S
H5145 C5164 0.951 . S
H5146 C5166 0.950 . S
H5147 C5167 0.950 . S
H5148 C5169 0.950 . S
H5149 C5172 0.950 . S
H5150 C5173 0.950 . S
H5151 C5175 0.950 . S
H5152 C5176 0.950 . S
H5153 C5177 0.951 . S
H5154 C5179 0.951 . S
H5155 C5181 0.950 . S
H5156 C5182 0.950 . S
H5157 C5184 0.950 . S
H5158 C5187 0.950 . S
H5159 C5188 0.950 . S
H5160 C5190 0.950 . S
H5161 C5191 0.950 . S
C5162 H5144 0.951 . S
C5162 C5163 1.366 . S
C5162 C5164 1.388 . S
C5163 C5162 1.366 . S
C5163 C5167 1.385 . S
C5164 H5145 0.951 . S
C5164 C5162 1.388 . S
C5164 C5165 1.366 . S
C5165 C5164 1.366 . S
C5165 C5166 1.414 . S
C5165 C5168 1.499 . S
C5166 H5146 0.950 . S
C5166 C5165 1.414 . S
C5166 C5167 1.374 . S
C5167 H5147 0.950 . S
C5167 C5163 1.385 . S
C5167 C5166 1.374 . S
C5168 C5165 1.499 . S
C5168 C5169 1.373 . S
C5168 C5170 1.389 . S
C5169 H5148 0.950 . S
C5169 C5168 1.373 . S
C5169 C5185 1.377 . S
C5170 C5168 1.389 . S
C5170 C5171 1.524 . S
C5170 C5184 1.377 . S
C5171 C5170 1.524 . S
C5171 C5172 1.397 . S
C5171 C5176 1.363 . S
C5172 H5149 0.950 . S
C5172 C5171 1.397 . S
C5172 C5173 1.334 . S
C5173 H5150 0.950 . S
C5173 C5172 1.334 . S
C5173 C5174 1.287 . S
C5174 C5173 1.287 . S
C5174 C5175 1.524 . S
C5174 H5193 0.913 . S
C5175 H5151 0.950 . S
C5175 C5174 1.524 . S
C5175 C5176 1.415 . S
C5176 H5152 0.950 . S
C5176 C5171 1.363 . S
C5176 C5175 1.415 . S
C5177 H5153 0.951 . S
C5177 C5178 1.366 . S
C5177 C5179 1.388 . S
C5178 C5177 1.366 . S
C5178 C5182 1.385 . S
C5179 H5154 0.951 . S
C5179 C5177 1.388 . S
C5179 C5180 1.366 . S
C5180 C5179 1.366 . S
C5180 C5181 1.414 . S
C5180 C5183 1.499 . S
C5181 H5155 0.950 . S
C5181 C5180 1.414 . S
C5181 C5182 1.374 . S
C5182 H5156 0.950 . S
C5182 C5178 1.385 . S
C5182 C5181 1.374 . S
C5183 C5180 1.499 . S
C5183 C5184 1.373 . S
C5183 C5185 1.389 . S
C5184 H5157 0.950 . S
C5184 C5170 1.377 . S
C5184 C5183 1.373 . S
C5185 C5169 1.377 . S
C5185 C5183 1.389 . S
C5185 C5186 1.524 . S
C5186 C5185 1.524 . S
C5186 C5187 1.397 . S
C5186 C5191 1.363 . S
C5187 H5158 0.950 . S
C5187 C5186 1.397 . S
C5187 C5188 1.334 . S
C5188 H5159 0.950 . S
C5188 C5187 1.334 . S
C5188 C5189 1.287 . S
C5189 C5188 1.287 . S
C5189 C5190 1.524 . S
C5189 H5192 0.999 . S
C5190 H5160 0.950 . S
C5190 C5189 1.524 . S
C5190 C5191 1.415 . S
C5191 H5161 0.950 . S
C5191 C5186 1.363 . S
C5191 C5190 1.415 . S
H5192 C5189 0.999 . S
H5193 C5174 0.913 . S
H5194 C5212 0.951 . S
H5195 C5214 0.951 . S
H5196 C5216 0.950 . S
H5197 C5217 0.950 . S
H5198 C5219 0.950 . S
H5199 C5222 0.950 . S
H5200 C5223 0.950 . S
H5201 C5225 0.950 . S
H5202 C5226 0.950 . S
H5203 C5227 0.951 . S
H5204 C5229 0.951 . S
H5205 C5231 0.950 . S
H5206 C5232 0.950 . S
H5207 C5234 0.950 . S
H5208 C5237 0.950 . S
H5209 C5238 0.950 . S
H5210 C5240 0.950 . S
H5211 C5241 0.950 . S
C5212 H5194 0.951 . S
C5212 C5213 1.366 . S
C5212 C5214 1.388 . S
C5213 C5212 1.366 . S
C5213 C5217 1.385 . S
C5214 H5195 0.951 . S
C5214 C5212 1.388 . S
C5214 C5215 1.366 . S
C5215 C5214 1.366 . S
C5215 C5216 1.414 . S
C5215 C5218 1.499 . S
C5216 H5196 0.950 . S
C5216 C5215 1.414 . S
C5216 C5217 1.374 . S
C5217 H5197 0.950 . S
C5217 C5213 1.385 . S
C5217 C5216 1.374 . S
C5218 C5215 1.499 . S
C5218 C5219 1.373 . S
C5218 C5220 1.389 . S
C5219 H5198 0.950 . S
C5219 C5218 1.373 . S
C5219 C5235 1.377 . S
C5220 C5218 1.389 . S
C5220 C5221 1.524 . S
C5220 C5234 1.377 . S
C5221 C5220 1.524 . S
C5221 C5222 1.397 . S
C5221 C5226 1.363 . S
C5222 H5199 0.950 . S
C5222 C5221 1.397 . S
C5222 C5223 1.334 . S
C5223 H5200 0.950 . S
C5223 C5222 1.334 . S
C5223 C5224 1.287 . S
C5224 C5223 1.287 . S
C5224 C5225 1.524 . S
C5224 H5243 0.913 . S
C5225 H5201 0.950 . S
C5225 C5224 1.524 . S
C5225 C5226 1.415 . S
C5226 H5202 0.950 . S
C5226 C5221 1.363 . S
C5226 C5225 1.415 . S
C5227 H5203 0.951 . S
C5227 C5228 1.366 . S
C5227 C5229 1.388 . S
C5228 C5227 1.366 . S
C5228 C5232 1.385 . S
C5229 H5204 0.951 . S
C5229 C5227 1.388 . S
C5229 C5230 1.366 . S
C5230 C5229 1.366 . S
C5230 C5231 1.414 . S
C5230 C5233 1.499 . S
C5231 H5205 0.950 . S
C5231 C5230 1.414 . S
C5231 C5232 1.374 . S
C5232 H5206 0.950 . S
C5232 C5228 1.385 . S
C5232 C5231 1.374 . S
C5233 C5230 1.499 . S
C5233 C5234 1.373 . S
C5233 C5235 1.389 . S
C5234 H5207 0.950 . S
C5234 C5220 1.377 . S
C5234 C5233 1.373 . S
C5235 C5219 1.377 . S
C5235 C5233 1.389 . S
C5235 C5236 1.524 . S
C5236 C5235 1.524 . S
C5236 C5237 1.397 . S
C5236 C5241 1.363 . S
C5237 H5208 0.950 . S
C5237 C5236 1.397 . S
C5237 C5238 1.334 . S
C5238 H5209 0.950 . S
C5238 C5237 1.334 . S
C5238 C5239 1.287 . S
C5239 C5238 1.287 . S
C5239 C5240 1.524 . S
C5239 H5242 0.999 . S
C5240 H5210 0.950 . S
C5240 C5239 1.524 . S
C5240 C5241 1.415 . S
C5241 H5211 0.950 . S
C5241 C5236 1.363 . S
C5241 C5240 1.415 . S
H5242 C5239 0.999 . S
H5243 C5224 0.913 . S
H5244 C5262 0.951 . S
H5245 C5264 0.951 . S
H5246 C5266 0.950 . S
H5247 C5267 0.950 . S
H5248 C5269 0.950 . S
H5249 C5272 0.950 . S
H5250 C5273 0.950 . S
H5251 C5275 0.950 . S
H5252 C5276 0.950 . S
H5253 C5277 0.951 . S
H5254 C5279 0.951 . S
H5255 C5281 0.950 . S
H5256 C5282 0.950 . S
H5257 C5284 0.950 . S
H5258 C5287 0.950 . S
H5259 C5288 0.950 . S
H5260 C5290 0.950 . S
H5261 C5291 0.950 . S
C5262 H5244 0.951 . S
C5262 C5263 1.366 . S
C5262 C5264 1.388 . S
C5263 C5262 1.366 . S
C5263 C5267 1.385 . S
C5264 H5245 0.951 . S
C5264 C5262 1.388 . S
C5264 C5265 1.366 . S
C5265 C5264 1.366 . S
C5265 C5266 1.414 . S
C5265 C5268 1.499 . S
C5266 H5246 0.950 . S
C5266 C5265 1.414 . S
C5266 C5267 1.374 . S
C5267 H5247 0.950 . S
C5267 C5263 1.385 . S
C5267 C5266 1.374 . S
C5268 C5265 1.499 . S
C5268 C5269 1.373 . S
C5268 C5270 1.389 . S
C5269 H5248 0.950 . S
C5269 C5268 1.373 . S
C5269 C5285 1.377 . S
C5270 C5268 1.389 . S
C5270 C5271 1.524 . S
C5270 C5284 1.377 . S
C5271 C5270 1.524 . S
C5271 C5272 1.397 . S
C5271 C5276 1.363 . S
C5272 H5249 0.950 . S
C5272 C5271 1.397 . S
C5272 C5273 1.334 . S
C5273 H5250 0.950 . S
C5273 C5272 1.334 . S
C5273 C5274 1.287 . S
C5274 C5273 1.287 . S
C5274 C5275 1.524 . S
C5274 H5293 0.913 . S
C5275 H5251 0.950 . S
C5275 C5274 1.524 . S
C5275 C5276 1.415 . S
C5276 H5252 0.950 . S
C5276 C5271 1.363 . S
C5276 C5275 1.415 . S
C5277 H5253 0.951 . S
C5277 C5278 1.366 . S
C5277 C5279 1.388 . S
C5278 C5277 1.366 . S
C5278 C5282 1.385 . S
C5279 H5254 0.951 . S
C5279 C5277 1.388 . S
C5279 C5280 1.366 . S
C5280 C5279 1.366 . S
C5280 C5281 1.414 . S
C5280 C5283 1.499 . S
C5281 H5255 0.950 . S
C5281 C5280 1.414 . S
C5281 C5282 1.374 . S
C5282 H5256 0.950 . S
C5282 C5278 1.385 . S
C5282 C5281 1.374 . S
C5283 C5280 1.499 . S
C5283 C5284 1.373 . S
C5283 C5285 1.389 . S
C5284 H5257 0.950 . S
C5284 C5270 1.377 . S
C5284 C5283 1.373 . S
C5285 C5269 1.377 . S
C5285 C5283 1.389 . S
C5285 C5286 1.524 . S
C5286 C5285 1.524 . S
C5286 C5287 1.397 . S
C5286 C5291 1.363 . S
C5287 H5258 0.950 . S
C5287 C5286 1.397 . S
C5287 C5288 1.334 . S
C5288 H5259 0.950 . S
C5288 C5287 1.334 . S
C5288 C5289 1.287 . S
C5289 C5288 1.287 . S
C5289 C5290 1.524 . S
C5289 H5292 0.999 . S
C5290 H5260 0.950 . S
C5290 C5289 1.524 . S
C5290 C5291 1.415 . S
C5291 H5261 0.950 . S
C5291 C5286 1.363 . S
C5291 C5290 1.415 . S
H5292 C5289 0.999 . S
H5293 C5274 0.913 . S
H5294 C5312 0.951 . S
H5295 C5314 0.951 . S
H5296 C5316 0.950 . S
H5297 C5317 0.950 . S
H5298 C5319 0.950 . S
H5299 C5322 0.950 . S
H5300 C5323 0.950 . S
H5301 C5325 0.950 . S
H5302 C5326 0.950 . S
H5303 C5327 0.951 . S
H5304 C5329 0.951 . S
H5305 C5331 0.950 . S
H5306 C5332 0.950 . S
H5307 C5334 0.950 . S
H5308 C5337 0.950 . S
H5309 C5338 0.950 . S
H5310 C5340 0.950 . S
H5311 C5341 0.950 . S
C5312 H5294 0.951 . S
C5312 C5313 1.366 . S
C5312 C5314 1.388 . S
C5313 C5312 1.366 . S
C5313 C5317 1.385 . S
C5314 H5295 0.951 . S
C5314 C5312 1.388 . S
C5314 C5315 1.366 . S
C5315 C5314 1.366 . S
C5315 C5316 1.414 . S
C5315 C5318 1.499 . S
C5316 H5296 0.950 . S
C5316 C5315 1.414 . S
C5316 C5317 1.374 . S
C5317 H5297 0.950 . S
C5317 C5313 1.385 . S
C5317 C5316 1.374 . S
C5318 C5315 1.499 . S
C5318 C5319 1.373 . S
C5318 C5320 1.389 . S
C5319 H5298 0.950 . S
C5319 C5318 1.373 . S
C5319 C5335 1.377 . S
C5320 C5318 1.389 . S
C5320 C5321 1.524 . S
C5320 C5334 1.377 . S
C5321 C5320 1.524 . S
C5321 C5322 1.397 . S
C5321 C5326 1.363 . S
C5322 H5299 0.950 . S
C5322 C5321 1.397 . S
C5322 C5323 1.334 . S
C5323 H5300 0.950 . S
C5323 C5322 1.334 . S
C5323 C5324 1.287 . S
C5324 C5323 1.287 . S
C5324 C5325 1.524 . S
C5324 H5343 0.913 . S
C5325 H5301 0.950 . S
C5325 C5324 1.524 . S
C5325 C5326 1.415 . S
C5326 H5302 0.950 . S
C5326 C5321 1.363 . S
C5326 C5325 1.415 . S
C5327 H5303 0.951 . S
C5327 C5328 1.366 . S
C5327 C5329 1.388 . S
C5328 C5327 1.366 . S
C5328 C5332 1.385 . S
C5329 H5304 0.951 . S
C5329 C5327 1.388 . S
C5329 C5330 1.366 . S
C5330 C5329 1.366 . S
C5330 C5331 1.414 . S
C5330 C5333 1.499 . S
C5331 H5305 0.950 . S
C5331 C5330 1.414 . S
C5331 C5332 1.374 . S
C5332 H5306 0.950 . S
C5332 C5328 1.385 . S
C5332 C5331 1.374 . S
C5333 C5330 1.499 . S
C5333 C5334 1.373 . S
C5333 C5335 1.389 . S
C5334 H5307 0.950 . S
C5334 C5320 1.377 . S
C5334 C5333 1.373 . S
C5335 C5319 1.377 . S
C5335 C5333 1.389 . S
C5335 C5336 1.524 . S
C5336 C5335 1.524 . S
C5336 C5337 1.397 . S
C5336 C5341 1.363 . S
C5337 H5308 0.950 . S
C5337 C5336 1.397 . S
C5337 C5338 1.334 . S
C5338 H5309 0.950 . S
C5338 C5337 1.334 . S
C5338 C5339 1.287 . S
C5339 C5338 1.287 . S
C5339 C5340 1.524 . S
C5339 H5342 0.999 . S
C5340 H5310 0.950 . S
C5340 C5339 1.524 . S
C5340 C5341 1.415 . S
C5341 H5311 0.950 . S
C5341 C5336 1.363 . S
C5341 C5340 1.415 . S
H5342 C5339 0.999 . S
H5343 C5324 0.913 . S
H5344 C5362 0.951 . S
H5345 C5364 0.951 . S
H5346 C5366 0.950 . S
H5347 C5367 0.950 . S
H5348 C5369 0.950 . S
H5349 C5372 0.950 . S
H5350 C5373 0.950 . S
H5351 C5375 0.950 . S
H5352 C5376 0.950 . S
H5353 C5377 0.951 . S
H5354 C5379 0.951 . S
H5355 C5381 0.950 . S
H5356 C5382 0.950 . S
H5357 C5384 0.950 . S
H5358 C5387 0.950 . S
H5359 C5388 0.950 . S
H5360 C5390 0.950 . S
H5361 C5391 0.950 . S
C5362 H5344 0.951 . S
C5362 C5363 1.366 . S
C5362 C5364 1.388 . S
C5363 C5362 1.366 . S
C5363 C5367 1.385 . S
C5364 H5345 0.951 . S
C5364 C5362 1.388 . S
C5364 C5365 1.366 . S
C5365 C5364 1.366 . S
C5365 C5366 1.414 . S
C5365 C5368 1.499 . S
C5366 H5346 0.950 . S
C5366 C5365 1.414 . S
C5366 C5367 1.374 . S
C5367 H5347 0.950 . S
C5367 C5363 1.385 . S
C5367 C5366 1.374 . S
C5368 C5365 1.499 . S
C5368 C5369 1.373 . S
C5368 C5370 1.389 . S
C5369 H5348 0.950 . S
C5369 C5368 1.373 . S
C5369 C5385 1.377 . S
C5370 C5368 1.389 . S
C5370 C5371 1.524 . S
C5370 C5384 1.377 . S
C5371 C5370 1.524 . S
C5371 C5372 1.397 . S
C5371 C5376 1.363 . S
C5372 H5349 0.950 . S
C5372 C5371 1.397 . S
C5372 C5373 1.334 . S
C5373 H5350 0.950 . S
C5373 C5372 1.334 . S
C5373 C5374 1.287 . S
C5374 C5373 1.287 . S
C5374 C5375 1.524 . S
C5374 H5393 0.913 . S
C5375 H5351 0.950 . S
C5375 C5374 1.524 . S
C5375 C5376 1.415 . S
C5376 H5352 0.950 . S
C5376 C5371 1.363 . S
C5376 C5375 1.415 . S
C5377 H5353 0.951 . S
C5377 C5378 1.366 . S
C5377 C5379 1.388 . S
C5378 C5377 1.366 . S
C5378 C5382 1.385 . S
C5379 H5354 0.951 . S
C5379 C5377 1.388 . S
C5379 C5380 1.366 . S
C5380 C5379 1.366 . S
C5380 C5381 1.414 . S
C5380 C5383 1.499 . S
C5381 H5355 0.950 . S
C5381 C5380 1.414 . S
C5381 C5382 1.374 . S
C5382 H5356 0.950 . S
C5382 C5378 1.385 . S
C5382 C5381 1.374 . S
C5383 C5380 1.499 . S
C5383 C5384 1.373 . S
C5383 C5385 1.389 . S
C5384 H5357 0.950 . S
C5384 C5370 1.377 . S
C5384 C5383 1.373 . S
C5385 C5369 1.377 . S
C5385 C5383 1.389 . S
C5385 C5386 1.524 . S
C5386 C5385 1.524 . S
C5386 C5387 1.397 . S
C5386 C5391 1.363 . S
C5387 H5358 0.950 . S
C5387 C5386 1.397 . S
C5387 C5388 1.334 . S
C5388 H5359 0.950 . S
C5388 C5387 1.334 . S
C5388 C5389 1.287 . S
C5389 C5388 1.287 . S
C5389 C5390 1.524 . S
C5389 H5392 0.999 . S
C5390 H5360 0.950 . S
C5390 C5389 1.524 . S
C5390 C5391 1.415 . S
C5391 H5361 0.950 . S
C5391 C5386 1.363 . S
C5391 C5390 1.415 . S
H5392 C5389 0.999 . S
H5393 C5374 0.913 . S
H5394 C5412 0.951 . S
H5395 C5414 0.951 . S
H5396 C5416 0.950 . S
H5397 C5417 0.950 . S
H5398 C5419 0.950 . S
H5399 C5422 0.950 . S
H5400 C5423 0.950 . S
H5401 C5425 0.950 . S
H5402 C5426 0.950 . S
H5403 C5427 0.951 . S
H5404 C5429 0.951 . S
H5405 C5431 0.950 . S
H5406 C5432 0.950 . S
H5407 C5434 0.950 . S
H5408 C5437 0.950 . S
H5409 C5438 0.950 . S
H5410 C5440 0.950 . S
H5411 C5441 0.950 . S
C5412 H5394 0.951 . S
C5412 C5413 1.366 . S
C5412 C5414 1.388 . S
C5413 C5412 1.366 . S
C5413 C5417 1.385 . S
C5414 H5395 0.951 . S
C5414 C5412 1.388 . S
C5414 C5415 1.366 . S
C5415 C5414 1.366 . S
C5415 C5416 1.414 . S
C5415 C5418 1.499 . S
C5416 H5396 0.950 . S
C5416 C5415 1.414 . S
C5416 C5417 1.374 . S
C5417 H5397 0.950 . S
C5417 C5413 1.385 . S
C5417 C5416 1.374 . S
C5418 C5415 1.499 . S
C5418 C5419 1.373 . S
C5418 C5420 1.389 . S
C5419 H5398 0.950 . S
C5419 C5418 1.373 . S
C5419 C5435 1.377 . S
C5420 C5418 1.389 . S
C5420 C5421 1.524 . S
C5420 C5434 1.377 . S
C5421 C5420 1.524 . S
C5421 C5422 1.397 . S
C5421 C5426 1.363 . S
C5422 H5399 0.950 . S
C5422 C5421 1.397 . S
C5422 C5423 1.334 . S
C5423 H5400 0.950 . S
C5423 C5422 1.334 . S
C5423 C5424 1.287 . S
C5424 C5423 1.287 . S
C5424 C5425 1.524 . S
C5424 H5443 0.913 . S
C5425 H5401 0.950 . S
C5425 C5424 1.524 . S
C5425 C5426 1.415 . S
C5426 H5402 0.950 . S
C5426 C5421 1.363 . S
C5426 C5425 1.415 . S
C5427 H5403 0.951 . S
C5427 C5428 1.366 . S
C5427 C5429 1.388 . S
C5428 C5427 1.366 . S
C5428 C5432 1.385 . S
C5429 H5404 0.951 . S
C5429 C5427 1.388 . S
C5429 C5430 1.366 . S
C5430 C5429 1.366 . S
C5430 C5431 1.414 . S
C5430 C5433 1.499 . S
C5431 H5405 0.950 . S
C5431 C5430 1.414 . S
C5431 C5432 1.374 . S
C5432 H5406 0.950 . S
C5432 C5428 1.385 . S
C5432 C5431 1.374 . S
C5433 C5430 1.499 . S
C5433 C5434 1.373 . S
C5433 C5435 1.389 . S
C5434 H5407 0.950 . S
C5434 C5420 1.377 . S
C5434 C5433 1.373 . S
C5435 C5419 1.377 . S
C5435 C5433 1.389 . S
C5435 C5436 1.524 . S
C5436 C5435 1.524 . S
C5436 C5437 1.397 . S
C5436 C5441 1.363 . S
C5437 H5408 0.950 . S
C5437 C5436 1.397 . S
C5437 C5438 1.334 . S
C5438 H5409 0.950 . S
C5438 C5437 1.334 . S
C5438 C5439 1.287 . S
C5439 C5438 1.287 . S
C5439 C5440 1.524 . S
C5439 H5442 0.999 . S
C5440 H5410 0.950 . S
C5440 C5439 1.524 . S
C5440 C5441 1.415 . S
C5441 H5411 0.950 . S
C5441 C5436 1.363 . S
C5441 C5440 1.415 . S
H5442 C5439 0.999 . S
H5443 C5424 0.913 . S
H5444 C5462 0.951 . S
H5445 C5464 0.951 . S
H5446 C5466 0.950 . S
H5447 C5467 0.950 . S
H5448 C5469 0.950 . S
H5449 C5472 0.950 . S
H5450 C5473 0.950 . S
H5451 C5475 0.950 . S
H5452 C5476 0.950 . S
H5453 C5477 0.951 . S
H5454 C5479 0.951 . S
H5455 C5481 0.950 . S
H5456 C5482 0.950 . S
H5457 C5484 0.950 . S
H5458 C5487 0.950 . S
H5459 C5488 0.950 . S
H5460 C5490 0.950 . S
H5461 C5491 0.950 . S
C5462 H5444 0.951 . S
C5462 C5463 1.366 . S
C5462 C5464 1.388 . S
C5463 C5462 1.366 . S
C5463 C5467 1.385 . S
C5464 H5445 0.951 . S
C5464 C5462 1.388 . S
C5464 C5465 1.366 . S
C5465 C5464 1.366 . S
C5465 C5466 1.414 . S
C5465 C5468 1.499 . S
C5466 H5446 0.950 . S
C5466 C5465 1.414 . S
C5466 C5467 1.374 . S
C5467 H5447 0.950 . S
C5467 C5463 1.385 . S
C5467 C5466 1.374 . S
C5468 C5465 1.499 . S
C5468 C5469 1.373 . S
C5468 C5470 1.389 . S
C5469 H5448 0.950 . S
C5469 C5468 1.373 . S
C5469 C5485 1.377 . S
C5470 C5468 1.389 . S
C5470 C5471 1.524 . S
C5470 C5484 1.377 . S
C5471 C5470 1.524 . S
C5471 C5472 1.397 . S
C5471 C5476 1.363 . S
C5472 H5449 0.950 . S
C5472 C5471 1.397 . S
C5472 C5473 1.334 . S
C5473 H5450 0.950 . S
C5473 C5472 1.334 . S
C5473 C5474 1.287 . S
C5474 C5473 1.287 . S
C5474 C5475 1.524 . S
C5474 H5493 0.913 . S
C5475 H5451 0.950 . S
C5475 C5474 1.524 . S
C5475 C5476 1.415 . S
C5476 H5452 0.950 . S
C5476 C5471 1.363 . S
C5476 C5475 1.415 . S
C5477 H5453 0.951 . S
C5477 C5478 1.366 . S
C5477 C5479 1.388 . S
C5478 C5477 1.366 . S
C5478 C5482 1.385 . S
C5479 H5454 0.951 . S
C5479 C5477 1.388 . S
C5479 C5480 1.366 . S
C5480 C5479 1.366 . S
C5480 C5481 1.414 . S
C5480 C5483 1.499 . S
C5481 H5455 0.950 . S
C5481 C5480 1.414 . S
C5481 C5482 1.374 . S
C5482 H5456 0.950 . S
C5482 C5478 1.385 . S
C5482 C5481 1.374 . S
C5483 C5480 1.499 . S
C5483 C5484 1.373 . S
C5483 C5485 1.389 . S
C5484 H5457 0.950 . S
C5484 C5470 1.377 . S
C5484 C5483 1.373 . S
C5485 C5469 1.377 . S
C5485 C5483 1.389 . S
C5485 C5486 1.524 . S
C5486 C5485 1.524 . S
C5486 C5487 1.397 . S
C5486 C5491 1.363 . S
C5487 H5458 0.950 . S
C5487 C5486 1.397 . S
C5487 C5488 1.334 . S
C5488 H5459 0.950 . S
C5488 C5487 1.334 . S
C5488 C5489 1.287 . S
C5489 C5488 1.287 . S
C5489 C5490 1.524 . S
C5489 H5492 0.999 . S
C5490 H5460 0.950 . S
C5490 C5489 1.524 . S
C5490 C5491 1.415 . S
C5491 H5461 0.950 . S
C5491 C5486 1.363 . S
C5491 C5490 1.415 . S
H5492 C5489 0.999 . S
H5493 C5474 0.913 . S
H5494 C5512 0.951 . S
H5495 C5514 0.951 . S
H5496 C5516 0.950 . S
H5497 C5517 0.950 . S
H5498 C5519 0.950 . S
H5499 C5522 0.950 . S
H5500 C5523 0.950 . S
H5501 C5525 0.950 . S
H5502 C5526 0.950 . S
H5503 C5527 0.951 . S
H5504 C5529 0.951 . S
H5505 C5531 0.950 . S
H5506 C5532 0.950 . S
H5507 C5534 0.950 . S
H5508 C5537 0.950 . S
H5509 C5538 0.950 . S
H5510 C5540 0.950 . S
H5511 C5541 0.950 . S
C5512 H5494 0.951 . S
C5512 C5513 1.366 . S
C5512 C5514 1.388 . S
C5513 C5512 1.366 . S
C5513 C5517 1.385 . S
C5514 H5495 0.951 . S
C5514 C5512 1.388 . S
C5514 C5515 1.366 . S
C5515 C5514 1.366 . S
C5515 C5516 1.414 . S
C5515 C5518 1.499 . S
C5516 H5496 0.950 . S
C5516 C5515 1.414 . S
C5516 C5517 1.374 . S
C5517 H5497 0.950 . S
C5517 C5513 1.385 . S
C5517 C5516 1.374 . S
C5518 C5515 1.499 . S
C5518 C5519 1.373 . S
C5518 C5520 1.389 . S
C5519 H5498 0.950 . S
C5519 C5518 1.373 . S
C5519 C5535 1.377 . S
C5520 C5518 1.389 . S
C5520 C5521 1.524 . S
C5520 C5534 1.377 . S
C5521 C5520 1.524 . S
C5521 C5522 1.397 . S
C5521 C5526 1.363 . S
C5522 H5499 0.950 . S
C5522 C5521 1.397 . S
C5522 C5523 1.334 . S
C5523 H5500 0.950 . S
C5523 C5522 1.334 . S
C5523 C5524 1.287 . S
C5524 C5523 1.287 . S
C5524 C5525 1.524 . S
C5524 H5543 0.913 . S
C5525 H5501 0.950 . S
C5525 C5524 1.524 . S
C5525 C5526 1.415 . S
C5526 H5502 0.950 . S
C5526 C5521 1.363 . S
C5526 C5525 1.415 . S
C5527 H5503 0.951 . S
C5527 C5528 1.366 . S
C5527 C5529 1.388 . S
C5528 C5527 1.366 . S
C5528 C5532 1.385 . S
C5529 H5504 0.951 . S
C5529 C5527 1.388 . S
C5529 C5530 1.366 . S
C5530 C5529 1.366 . S
C5530 C5531 1.414 . S
C5530 C5533 1.499 . S
C5531 H5505 0.950 . S
C5531 C5530 1.414 . S
C5531 C5532 1.374 . S
C5532 H5506 0.950 . S
C5532 C5528 1.385 . S
C5532 C5531 1.374 . S
C5533 C5530 1.499 . S
C5533 C5534 1.373 . S
C5533 C5535 1.389 . S
C5534 H5507 0.950 . S
C5534 C5520 1.377 . S
C5534 C5533 1.373 . S
C5535 C5519 1.377 . S
C5535 C5533 1.389 . S
C5535 C5536 1.524 . S
C5536 C5535 1.524 . S
C5536 C5537 1.397 . S
C5536 C5541 1.363 . S
C5537 H5508 0.950 . S
C5537 C5536 1.397 . S
C5537 C5538 1.334 . S
C5538 H5509 0.950 . S
C5538 C5537 1.334 . S
C5538 C5539 1.287 . S
C5539 C5538 1.287 . S
C5539 C5540 1.524 . S
C5539 H5542 0.999 . S
C5540 H5510 0.950 . S
C5540 C5539 1.524 . S
C5540 C5541 1.415 . S
C5541 H5511 0.950 . S
C5541 C5536 1.363 . S
C5541 C5540 1.415 . S
H5542 C5539 0.999 . S
H5543 C5524 0.913 . S
H5544 C5562 0.951 . S
H5545 C5564 0.951 . S
H5546 C5566 0.950 . S
H5547 C5567 0.950 . S
H5548 C5569 0.950 . S
H5549 C5572 0.950 . S
H5550 C5573 0.950 . S
H5551 C5575 0.950 . S
H5552 C5576 0.950 . S
H5553 C5577 0.951 . S
H5554 C5579 0.951 . S
H5555 C5581 0.950 . S
H5556 C5582 0.950 . S
H5557 C5584 0.950 . S
H5558 C5587 0.950 . S
H5559 C5588 0.950 . S
H5560 C5590 0.950 . S
H5561 C5591 0.950 . S
C5562 H5544 0.951 . S
C5562 C5563 1.366 . S
C5562 C5564 1.388 . S
C5563 C5562 1.366 . S
C5563 C5567 1.385 . S
C5564 H5545 0.951 . S
C5564 C5562 1.388 . S
C5564 C5565 1.366 . S
C5565 C5564 1.366 . S
C5565 C5566 1.414 . S
C5565 C5568 1.499 . S
C5566 H5546 0.950 . S
C5566 C5565 1.414 . S
C5566 C5567 1.374 . S
C5567 H5547 0.950 . S
C5567 C5563 1.385 . S
C5567 C5566 1.374 . S
C5568 C5565 1.499 . S
C5568 C5569 1.373 . S
C5568 C5570 1.389 . S
C5569 H5548 0.950 . S
C5569 C5568 1.373 . S
C5569 C5585 1.377 . S
C5570 C5568 1.389 . S
C5570 C5571 1.524 . S
C5570 C5584 1.377 . S
C5571 C5570 1.524 . S
C5571 C5572 1.397 . S
C5571 C5576 1.363 . S
C5572 H5549 0.950 . S
C5572 C5571 1.397 . S
C5572 C5573 1.334 . S
C5573 H5550 0.950 . S
C5573 C5572 1.334 . S
C5573 C5574 1.287 . S
C5574 C5573 1.287 . S
C5574 C5575 1.524 . S
C5574 H5593 0.913 . S
C5575 H5551 0.950 . S
C5575 C5574 1.524 . S
C5575 C5576 1.415 . S
C5576 H5552 0.950 . S
C5576 C5571 1.363 . S
C5576 C5575 1.415 . S
C5577 H5553 0.951 . S
C5577 C5578 1.366 . S
C5577 C5579 1.388 . S
C5578 C5577 1.366 . S
C5578 C5582 1.385 . S
C5579 H5554 0.951 . S
C5579 C5577 1.388 . S
C5579 C5580 1.366 . S
C5580 C5579 1.366 . S
C5580 C5581 1.414 . S
C5580 C5583 1.499 . S
C5581 H5555 0.950 . S
C5581 C5580 1.414 . S
C5581 C5582 1.374 . S
C5582 H5556 0.950 . S
C5582 C5578 1.385 . S
C5582 C5581 1.374 . S
C5583 C5580 1.499 . S
C5583 C5584 1.373 . S
C5583 C5585 1.389 . S
C5584 H5557 0.950 . S
C5584 C5570 1.377 . S
C5584 C5583 1.373 . S
C5585 C5569 1.377 . S
C5585 C5583 1.389 . S
C5585 C5586 1.524 . S
C5586 C5585 1.524 . S
C5586 C5587 1.397 . S
C5586 C5591 1.363 . S
C5587 H5558 0.950 . S
C5587 C5586 1.397 . S
C5587 C5588 1.334 . S
C5588 H5559 0.950 . S
C5588 C5587 1.334 . S
C5588 C5589 1.287 . S
C5589 C5588 1.287 . S
C5589 C5590 1.524 . S
C5589 H5592 0.999 . S
C5590 H5560 0.950 . S
C5590 C5589 1.524 . S
C5590 C5591 1.415 . S
C5591 H5561 0.950 . S
C5591 C5586 1.363 . S
C5591 C5590 1.415 . S
H5592 C5589 0.999 . S
H5593 C5574 0.913 . S
H5594 C5612 0.951 . S
H5595 C5614 0.951 . S
H5596 C5616 0.950 . S
H5597 C5617 0.950 . S
H5598 C5619 0.950 . S
H5599 C5622 0.950 . S
H5600 C5623 0.950 . S
H5601 C5625 0.950 . S
H5602 C5626 0.950 . S
H5603 C5627 0.951 . S
H5604 C5629 0.951 . S
H5605 C5631 0.950 . S
H5606 C5632 0.950 . S
H5607 C5634 0.950 . S
H5608 C5637 0.950 . S
H5609 C5638 0.950 . S
H5610 C5640 0.950 . S
H5611 C5641 0.950 . S
C5612 H5594 0.951 . S
C5612 C5613 1.366 . S
C5612 C5614 1.388 . S
C5613 C5612 1.366 . S
C5613 C5617 1.385 . S
C5614 H5595 0.951 . S
C5614 C5612 1.388 . S
C5614 C5615 1.366 . S
C5615 C5614 1.366 . S
C5615 C5616 1.414 . S
C5615 C5618 1.499 . S
C5616 H5596 0.950 . S
C5616 C5615 1.414 . S
C5616 C5617 1.374 . S
C5617 H5597 0.950 . S
C5617 C5613 1.385 . S
C5617 C5616 1.374 . S
C5618 C5615 1.499 . S
C5618 C5619 1.373 . S
C5618 C5620 1.389 . S
C5619 H5598 0.950 . S
C5619 C5618 1.373 . S
C5619 C5635 1.377 . S
C5620 C5618 1.389 . S
C5620 C5621 1.524 . S
C5620 C5634 1.377 . S
C5621 C5620 1.524 . S
C5621 C5622 1.397 . S
C5621 C5626 1.363 . S
C5622 H5599 0.950 . S
C5622 C5621 1.397 . S
C5622 C5623 1.334 . S
C5623 H5600 0.950 . S
C5623 C5622 1.334 . S
C5623 C5624 1.287 . S
C5624 C5623 1.287 . S
C5624 C5625 1.524 . S
C5624 H5643 0.913 . S
C5625 H5601 0.950 . S
C5625 C5624 1.524 . S
C5625 C5626 1.415 . S
C5626 H5602 0.950 . S
C5626 C5621 1.363 . S
C5626 C5625 1.415 . S
C5627 H5603 0.951 . S
C5627 C5628 1.366 . S
C5627 C5629 1.388 . S
C5628 C5627 1.366 . S
C5628 C5632 1.385 . S
C5629 H5604 0.951 . S
C5629 C5627 1.388 . S
C5629 C5630 1.366 . S
C5630 C5629 1.366 . S
C5630 C5631 1.414 . S
C5630 C5633 1.499 . S
C5631 H5605 0.950 . S
C5631 C5630 1.414 . S
C5631 C5632 1.374 . S
C5632 H5606 0.950 . S
C5632 C5628 1.385 . S
C5632 C5631 1.374 . S
C5633 C5630 1.499 . S
C5633 C5634 1.373 . S
C5633 C5635 1.389 . S
C5634 H5607 0.950 . S
C5634 C5620 1.377 . S
C5634 C5633 1.373 . S
C5635 C5619 1.377 . S
C5635 C5633 1.389 . S
C5635 C5636 1.524 . S
C5636 C5635 1.524 . S
C5636 C5637 1.397 . S
C5636 C5641 1.363 . S
C5637 H5608 0.950 . S
C5637 C5636 1.397 . S
C5637 C5638 1.334 . S
C5638 H5609 0.950 . S
C5638 C5637 1.334 . S
C5638 C5639 1.287 . S
C5639 C5638 1.287 . S
C5639 C5640 1.524 . S
C5639 H5642 0.999 . S
C5640 H5610 0.950 . S
C5640 C5639 1.524 . S
C5640 C5641 1.415 . S
C5641 H5611 0.950 . S
C5641 C5636 1.363 . S
C5641 C5640 1.415 . S
H5642 C5639 0.999 . S
H5643 C5624 0.913 . S
H5644 C5662 0.951 . S
H5645 C5664 0.951 . S
H5646 C5666 0.950 . S
H5647 C5667 0.950 . S
H5648 C5669 0.950 . S
H5649 C5672 0.950 . S
H5650 C5673 0.950 . S
H5651 C5675 0.950 . S
H5652 C5676 0.950 . S
H5653 C5677 0.951 . S
H5654 C5679 0.951 . S
H5655 C5681 0.950 . S
H5656 C5682 0.950 . S
H5657 C5684 0.950 . S
H5658 C5687 0.950 . S
H5659 C5688 0.950 . S
H5660 C5690 0.950 . S
H5661 C5691 0.950 . S
C5662 H5644 0.951 . S
C5662 C5663 1.366 . S
C5662 C5664 1.388 . S
C5663 C5662 1.366 . S
C5663 C5667 1.385 . S
C5664 H5645 0.951 . S
C5664 C5662 1.388 . S
C5664 C5665 1.366 . S
C5665 C5664 1.366 . S
C5665 C5666 1.414 . S
C5665 C5668 1.499 . S
C5666 H5646 0.950 . S
C5666 C5665 1.414 . S
C5666 C5667 1.374 . S
C5667 H5647 0.950 . S
C5667 C5663 1.385 . S
C5667 C5666 1.374 . S
C5668 C5665 1.499 . S
C5668 C5669 1.373 . S
C5668 C5670 1.389 . S
C5669 H5648 0.950 . S
C5669 C5668 1.373 . S
C5669 C5685 1.377 . S
C5670 C5668 1.389 . S
C5670 C5671 1.524 . S
C5670 C5684 1.377 . S
C5671 C5670 1.524 . S
C5671 C5672 1.397 . S
C5671 C5676 1.363 . S
C5672 H5649 0.950 . S
C5672 C5671 1.397 . S
C5672 C5673 1.334 . S
C5673 H5650 0.950 . S
C5673 C5672 1.334 . S
C5673 C5674 1.287 . S
C5674 C5673 1.287 . S
C5674 C5675 1.524 . S
C5674 H5693 0.913 . S
C5675 H5651 0.950 . S
C5675 C5674 1.524 . S
C5675 C5676 1.415 . S
C5676 H5652 0.950 . S
C5676 C5671 1.363 . S
C5676 C5675 1.415 . S
C5677 H5653 0.951 . S
C5677 C5678 1.366 . S
C5677 C5679 1.388 . S
C5678 C5677 1.366 . S
C5678 C5682 1.385 . S
C5679 H5654 0.951 . S
C5679 C5677 1.388 . S
C5679 C5680 1.366 . S
C5680 C5679 1.366 . S
C5680 C5681 1.414 . S
C5680 C5683 1.499 . S
C5681 H5655 0.950 . S
C5681 C5680 1.414 . S
C5681 C5682 1.374 . S
C5682 H5656 0.950 . S
C5682 C5678 1.385 . S
C5682 C5681 1.374 . S
C5683 C5680 1.499 . S
C5683 C5684 1.373 . S
C5683 C5685 1.389 . S
C5684 H5657 0.950 . S
C5684 C5670 1.377 . S
C5684 C5683 1.373 . S
C5685 C5669 1.377 . S
C5685 C5683 1.389 . S
C5685 C5686 1.524 . S
C5686 C5685 1.524 . S
C5686 C5687 1.397 . S
C5686 C5691 1.363 . S
C5687 H5658 0.950 . S
C5687 C5686 1.397 . S
C5687 C5688 1.334 . S
C5688 H5659 0.950 . S
C5688 C5687 1.334 . S
C5688 C5689 1.287 . S
C5689 C5688 1.287 . S
C5689 C5690 1.524 . S
C5689 H5692 0.999 . S
C5690 H5660 0.950 . S
C5690 C5689 1.524 . S
C5690 C5691 1.415 . S
C5691 H5661 0.950 . S
C5691 C5686 1.363 . S
C5691 C5690 1.415 . S
H5692 C5689 0.999 . S
H5693 C5674 0.913 . S
H5694 C5712 0.951 . S
H5695 C5714 0.951 . S
H5696 C5716 0.950 . S
H5697 C5717 0.950 . S
H5698 C5719 0.950 . S
H5699 C5722 0.950 . S
H5700 C5723 0.950 . S
H5701 C5725 0.950 . S
H5702 C5726 0.950 . S
H5703 C5727 0.951 . S
H5704 C5729 0.951 . S
H5705 C5731 0.950 . S
H5706 C5732 0.950 . S
H5707 C5734 0.950 . S
H5708 C5737 0.950 . S
H5709 C5738 0.950 . S
H5710 C5740 0.950 . S
H5711 C5741 0.950 . S
C5712 H5694 0.951 . S
C5712 C5713 1.366 . S
C5712 C5714 1.388 . S
C5713 C5712 1.366 . S
C5713 C5717 1.385 . S
C5714 H5695 0.951 . S
C5714 C5712 1.388 . S
C5714 C5715 1.366 . S
C5715 C5714 1.366 . S
C5715 C5716 1.414 . S
C5715 C5718 1.499 . S
C5716 H5696 0.950 . S
C5716 C5715 1.414 . S
C5716 C5717 1.374 . S
C5717 H5697 0.950 . S
C5717 C5713 1.385 . S
C5717 C5716 1.374 . S
C5718 C5715 1.499 . S
C5718 C5719 1.373 . S
C5718 C5720 1.389 . S
C5719 H5698 0.950 . S
C5719 C5718 1.373 . S
C5719 C5735 1.377 . S
C5720 C5718 1.389 . S
C5720 C5721 1.524 . S
C5720 C5734 1.377 . S
C5721 C5720 1.524 . S
C5721 C5722 1.397 . S
C5721 C5726 1.363 . S
C5722 H5699 0.950 . S
C5722 C5721 1.397 . S
C5722 C5723 1.334 . S
C5723 H5700 0.950 . S
C5723 C5722 1.334 . S
C5723 C5724 1.287 . S
C5724 C5723 1.287 . S
C5724 C5725 1.524 . S
C5724 H5743 0.913 . S
C5725 H5701 0.950 . S
C5725 C5724 1.524 . S
C5725 C5726 1.415 . S
C5726 H5702 0.950 . S
C5726 C5721 1.363 . S
C5726 C5725 1.415 . S
C5727 H5703 0.951 . S
C5727 C5728 1.366 . S
C5727 C5729 1.388 . S
C5728 C5727 1.366 . S
C5728 C5732 1.385 . S
C5729 H5704 0.951 . S
C5729 C5727 1.388 . S
C5729 C5730 1.366 . S
C5730 C5729 1.366 . S
C5730 C5731 1.414 . S
C5730 C5733 1.499 . S
C5731 H5705 0.950 . S
C5731 C5730 1.414 . S
C5731 C5732 1.374 . S
C5732 H5706 0.950 . S
C5732 C5728 1.385 . S
C5732 C5731 1.374 . S
C5733 C5730 1.499 . S
C5733 C5734 1.373 . S
C5733 C5735 1.389 . S
C5734 H5707 0.950 . S
C5734 C5720 1.377 . S
C5734 C5733 1.373 . S
C5735 C5719 1.377 . S
C5735 C5733 1.389 . S
C5735 C5736 1.524 . S
C5736 C5735 1.524 . S
C5736 C5737 1.397 . S
C5736 C5741 1.363 . S
C5737 H5708 0.950 . S
C5737 C5736 1.397 . S
C5737 C5738 1.334 . S
C5738 H5709 0.950 . S
C5738 C5737 1.334 . S
C5738 C5739 1.287 . S
C5739 C5738 1.287 . S
C5739 C5740 1.524 . S
C5739 H5742 0.999 . S
C5740 H5710 0.950 . S
C5740 C5739 1.524 . S
C5740 C5741 1.415 . S
C5741 H5711 0.950 . S
C5741 C5736 1.363 . S
C5741 C5740 1.415 . S
H5742 C5739 0.999 . S
H5743 C5724 0.913 . S
H5744 C5762 0.951 . S
H5745 C5764 0.951 . S
H5746 C5766 0.950 . S
H5747 C5767 0.950 . S
H5748 C5769 0.950 . S
H5749 C5772 0.950 . S
H5750 C5773 0.950 . S
H5751 C5775 0.950 . S
H5752 C5776 0.950 . S
H5753 C5777 0.951 . S
H5754 C5779 0.951 . S
H5755 C5781 0.950 . S
H5756 C5782 0.950 . S
H5757 C5784 0.950 . S
H5758 C5787 0.950 . S
H5759 C5788 0.950 . S
H5760 C5790 0.950 . S
H5761 C5791 0.950 . S
C5762 H5744 0.951 . S
C5762 C5763 1.366 . S
C5762 C5764 1.388 . S
C5763 C5762 1.366 . S
C5763 C5767 1.385 . S
C5764 H5745 0.951 . S
C5764 C5762 1.388 . S
C5764 C5765 1.366 . S
C5765 C5764 1.366 . S
C5765 C5766 1.414 . S
C5765 C5768 1.499 . S
C5766 H5746 0.950 . S
C5766 C5765 1.414 . S
C5766 C5767 1.374 . S
C5767 H5747 0.950 . S
C5767 C5763 1.385 . S
C5767 C5766 1.374 . S
C5768 C5765 1.499 . S
C5768 C5769 1.373 . S
C5768 C5770 1.389 . S
C5769 H5748 0.950 . S
C5769 C5768 1.373 . S
C5769 C5785 1.377 . S
C5770 C5768 1.389 . S
C5770 C5771 1.524 . S
C5770 C5784 1.377 . S
C5771 C5770 1.524 . S
C5771 C5772 1.397 . S
C5771 C5776 1.363 . S
C5772 H5749 0.950 . S
C5772 C5771 1.397 . S
C5772 C5773 1.334 . S
C5773 H5750 0.950 . S
C5773 C5772 1.334 . S
C5773 C5774 1.287 . S
C5774 C5773 1.287 . S
C5774 C5775 1.524 . S
C5774 H5793 0.913 . S
C5775 H5751 0.950 . S
C5775 C5774 1.524 . S
C5775 C5776 1.415 . S
C5776 H5752 0.950 . S
C5776 C5771 1.363 . S
C5776 C5775 1.415 . S
C5777 H5753 0.951 . S
C5777 C5778 1.366 . S
C5777 C5779 1.388 . S
C5778 C5777 1.366 . S
C5778 C5782 1.385 . S
C5779 H5754 0.951 . S
C5779 C5777 1.388 . S
C5779 C5780 1.366 . S
C5780 C5779 1.366 . S
C5780 C5781 1.414 . S
C5780 C5783 1.499 . S
C5781 H5755 0.950 . S
C5781 C5780 1.414 . S
C5781 C5782 1.374 . S
C5782 H5756 0.950 . S
C5782 C5778 1.385 . S
C5782 C5781 1.374 . S
C5783 C5780 1.499 . S
C5783 C5784 1.373 . S
C5783 C5785 1.389 . S
C5784 H5757 0.950 . S
C5784 C5770 1.377 . S
C5784 C5783 1.373 . S
C5785 C5769 1.377 . S
C5785 C5783 1.389 . S
C5785 C5786 1.524 . S
C5786 C5785 1.524 . S
C5786 C5787 1.397 . S
C5786 C5791 1.363 . S
C5787 H5758 0.950 . S
C5787 C5786 1.397 . S
C5787 C5788 1.334 . S
C5788 H5759 0.950 . S
C5788 C5787 1.334 . S
C5788 C5789 1.287 . S
C5789 C5788 1.287 . S
C5789 C5790 1.524 . S
C5789 H5792 0.999 . S
C5790 H5760 0.950 . S
C5790 C5789 1.524 . S
C5790 C5791 1.415 . S
C5791 H5761 0.950 . S
C5791 C5786 1.363 . S
C5791 C5790 1.415 . S
H5792 C5789 0.999 . S
H5793 C5774 0.913 . S
H5794 C5812 0.951 . S
H5795 C5814 0.951 . S
H5796 C5816 0.950 . S
H5797 C5817 0.950 . S
H5798 C5819 0.950 . S
H5799 C5822 0.950 . S
H5800 C5823 0.950 . S
H5801 C5825 0.950 . S
H5802 C5826 0.950 . S
H5803 C5827 0.951 . S
H5804 C5829 0.951 . S
H5805 C5831 0.950 . S
H5806 C5832 0.950 . S
H5807 C5834 0.950 . S
H5808 C5837 0.950 . S
H5809 C5838 0.950 . S
H5810 C5840 0.950 . S
H5811 C5841 0.950 . S
C5812 H5794 0.951 . S
C5812 C5813 1.366 . S
C5812 C5814 1.388 . S
C5813 C5812 1.366 . S
C5813 C5817 1.385 . S
C5814 H5795 0.951 . S
C5814 C5812 1.388 . S
C5814 C5815 1.366 . S
C5815 C5814 1.366 . S
C5815 C5816 1.414 . S
C5815 C5818 1.499 . S
C5816 H5796 0.950 . S
C5816 C5815 1.414 . S
C5816 C5817 1.374 . S
C5817 H5797 0.950 . S
C5817 C5813 1.385 . S
C5817 C5816 1.374 . S
C5818 C5815 1.499 . S
C5818 C5819 1.373 . S
C5818 C5820 1.389 . S
C5819 H5798 0.950 . S
C5819 C5818 1.373 . S
C5819 C5835 1.377 . S
C5820 C5818 1.389 . S
C5820 C5821 1.524 . S
C5820 C5834 1.377 . S
C5821 C5820 1.524 . S
C5821 C5822 1.397 . S
C5821 C5826 1.363 . S
C5822 H5799 0.950 . S
C5822 C5821 1.397 . S
C5822 C5823 1.334 . S
C5823 H5800 0.950 . S
C5823 C5822 1.334 . S
C5823 C5824 1.287 . S
C5824 C5823 1.287 . S
C5824 C5825 1.524 . S
C5824 H5843 0.913 . S
C5825 H5801 0.950 . S
C5825 C5824 1.524 . S
C5825 C5826 1.415 . S
C5826 H5802 0.950 . S
C5826 C5821 1.363 . S
C5826 C5825 1.415 . S
C5827 H5803 0.951 . S
C5827 C5828 1.366 . S
C5827 C5829 1.388 . S
C5828 C5827 1.366 . S
C5828 C5832 1.385 . S
C5829 H5804 0.951 . S
C5829 C5827 1.388 . S
C5829 C5830 1.366 . S
C5830 C5829 1.366 . S
C5830 C5831 1.414 . S
C5830 C5833 1.499 . S
C5831 H5805 0.950 . S
C5831 C5830 1.414 . S
C5831 C5832 1.374 . S
C5832 H5806 0.950 . S
C5832 C5828 1.385 . S
C5832 C5831 1.374 . S
C5833 C5830 1.499 . S
C5833 C5834 1.373 . S
C5833 C5835 1.389 . S
C5834 H5807 0.950 . S
C5834 C5820 1.377 . S
C5834 C5833 1.373 . S
C5835 C5819 1.377 . S
C5835 C5833 1.389 . S
C5835 C5836 1.524 . S
C5836 C5835 1.524 . S
C5836 C5837 1.397 . S
C5836 C5841 1.363 . S
C5837 H5808 0.950 . S
C5837 C5836 1.397 . S
C5837 C5838 1.334 . S
C5838 H5809 0.950 . S
C5838 C5837 1.334 . S
C5838 C5839 1.287 . S
C5839 C5838 1.287 . S
C5839 C5840 1.524 . S
C5839 H5842 0.999 . S
C5840 H5810 0.950 . S
C5840 C5839 1.524 . S
C5840 C5841 1.415 . S
C5841 H5811 0.950 . S
C5841 C5836 1.363 . S
C5841 C5840 1.415 . S
H5842 C5839 0.999 . S
H5843 C5824 0.913 . S
H5844 C5862 0.951 . S
H5845 C5864 0.951 . S
H5846 C5866 0.950 . S
H5847 C5867 0.950 . S
H5848 C5869 0.950 . S
H5849 C5872 0.950 . S
H5850 C5873 0.950 . S
H5851 C5875 0.950 . S
H5852 C5876 0.950 . S
H5853 C5877 0.951 . S
H5854 C5879 0.951 . S
H5855 C5881 0.950 . S
H5856 C5882 0.950 . S
H5857 C5884 0.950 . S
H5858 C5887 0.950 . S
H5859 C5888 0.950 . S
H5860 C5890 0.950 . S
H5861 C5891 0.950 . S
C5862 H5844 0.951 . S
C5862 C5863 1.366 . S
C5862 C5864 1.388 . S
C5863 C5862 1.366 . S
C5863 C5867 1.385 . S
C5864 H5845 0.951 . S
C5864 C5862 1.388 . S
C5864 C5865 1.366 . S
C5865 C5864 1.366 . S
C5865 C5866 1.414 . S
C5865 C5868 1.499 . S
C5866 H5846 0.950 . S
C5866 C5865 1.414 . S
C5866 C5867 1.374 . S
C5867 H5847 0.950 . S
C5867 C5863 1.385 . S
C5867 C5866 1.374 . S
C5868 C5865 1.499 . S
C5868 C5869 1.373 . S
C5868 C5870 1.389 . S
C5869 H5848 0.950 . S
C5869 C5868 1.373 . S
C5869 C5885 1.377 . S
C5870 C5868 1.389 . S
C5870 C5871 1.524 . S
C5870 C5884 1.377 . S
C5871 C5870 1.524 . S
C5871 C5872 1.397 . S
C5871 C5876 1.363 . S
C5872 H5849 0.950 . S
C5872 C5871 1.397 . S
C5872 C5873 1.334 . S
C5873 H5850 0.950 . S
C5873 C5872 1.334 . S
C5873 C5874 1.287 . S
C5874 C5873 1.287 . S
C5874 C5875 1.524 . S
C5874 H5893 0.913 . S
C5875 H5851 0.950 . S
C5875 C5874 1.524 . S
C5875 C5876 1.415 . S
C5876 H5852 0.950 . S
C5876 C5871 1.363 . S
C5876 C5875 1.415 . S
C5877 H5853 0.951 . S
C5877 C5878 1.366 . S
C5877 C5879 1.388 . S
C5878 C5877 1.366 . S
C5878 C5882 1.385 . S
C5879 H5854 0.951 . S
C5879 C5877 1.388 . S
C5879 C5880 1.366 . S
C5880 C5879 1.366 . S
C5880 C5881 1.414 . S
C5880 C5883 1.499 . S
C5881 H5855 0.950 . S
C5881 C5880 1.414 . S
C5881 C5882 1.374 . S
C5882 H5856 0.950 . S
C5882 C5878 1.385 . S
C5882 C5881 1.374 . S
C5883 C5880 1.499 . S
C5883 C5884 1.373 . S
C5883 C5885 1.389 . S
C5884 H5857 0.950 . S
C5884 C5870 1.377 . S
C5884 C5883 1.373 . S
C5885 C5869 1.377 . S
C5885 C5883 1.389 . S
C5885 C5886 1.524 . S
C5886 C5885 1.524 . S
C5886 C5887 1.397 . S
C5886 C5891 1.363 . S
C5887 H5858 0.950 . S
C5887 C5886 1.397 . S
C5887 C5888 1.334 . S
C5888 H5859 0.950 . S
C5888 C5887 1.334 . S
C5888 C5889 1.287 . S
C5889 C5888 1.287 . S
C5889 C5890 1.524 . S
C5889 H5892 0.999 . S
C5890 H5860 0.950 . S
C5890 C5889 1.524 . S
C5890 C5891 1.415 . S
C5891 H5861 0.950 . S
C5891 C5886 1.363 . S
C5891 C5890 1.415 . S
H5892 C5889 0.999 . S
H5893 C5874 0.913 . S
H5894 C5912 0.951 . S
H5895 C5914 0.951 . S
H5896 C5916 0.950 . S
H5897 C5917 0.950 . S
H5898 C5919 0.950 . S
H5899 C5922 0.950 . S
H5900 C5923 0.950 . S
H5901 C5925 0.950 . S
H5902 C5926 0.950 . S
H5903 C5927 0.951 . S
H5904 C5929 0.951 . S
H5905 C5931 0.950 . S
H5906 C5932 0.950 . S
H5907 C5934 0.950 . S
H5908 C5937 0.950 . S
H5909 C5938 0.950 . S
H5910 C5940 0.950 . S
H5911 C5941 0.950 . S
C5912 H5894 0.951 . S
C5912 C5913 1.366 . S
C5912 C5914 1.388 . S
C5913 C5912 1.366 . S
C5913 C5917 1.385 . S
C5914 H5895 0.951 . S
C5914 C5912 1.388 . S
C5914 C5915 1.366 . S
C5915 C5914 1.366 . S
C5915 C5916 1.414 . S
C5915 C5918 1.499 . S
C5916 H5896 0.950 . S
C5916 C5915 1.414 . S
C5916 C5917 1.374 . S
C5917 H5897 0.950 . S
C5917 C5913 1.385 . S
C5917 C5916 1.374 . S
C5918 C5915 1.499 . S
C5918 C5919 1.373 . S
C5918 C5920 1.389 . S
C5919 H5898 0.950 . S
C5919 C5918 1.373 . S
C5919 C5935 1.377 . S
C5920 C5918 1.389 . S
C5920 C5921 1.524 . S
C5920 C5934 1.377 . S
C5921 C5920 1.524 . S
C5921 C5922 1.397 . S
C5921 C5926 1.363 . S
C5922 H5899 0.950 . S
C5922 C5921 1.397 . S
C5922 C5923 1.334 . S
C5923 H5900 0.950 . S
C5923 C5922 1.334 . S
C5923 C5924 1.287 . S
C5924 C5923 1.287 . S
C5924 C5925 1.524 . S
C5924 H5943 0.913 . S
C5925 H5901 0.950 . S
C5925 C5924 1.524 . S
C5925 C5926 1.415 . S
C5926 H5902 0.950 . S
C5926 C5921 1.363 . S
C5926 C5925 1.415 . S
C5927 H5903 0.951 . S
C5927 C5928 1.366 . S
C5927 C5929 1.388 . S
C5928 C5927 1.366 . S
C5928 C5932 1.385 . S
C5929 H5904 0.951 . S
C5929 C5927 1.388 . S
C5929 C5930 1.366 . S
C5930 C5929 1.366 . S
C5930 C5931 1.414 . S
C5930 C5933 1.499 . S
C5931 H5905 0.950 . S
C5931 C5930 1.414 . S
C5931 C5932 1.374 . S
C5932 H5906 0.950 . S
C5932 C5928 1.385 . S
C5932 C5931 1.374 . S
C5933 C5930 1.499 . S
C5933 C5934 1.373 . S
C5933 C5935 1.389 . S
C5934 H5907 0.950 . S
C5934 C5920 1.377 . S
C5934 C5933 1.373 . S
C5935 C5919 1.377 . S
C5935 C5933 1.389 . S
C5935 C5936 1.524 . S
C5936 C5935 1.524 . S
C5936 C5937 1.397 . S
C5936 C5941 1.363 . S
C5937 H5908 0.950 . S
C5937 C5936 1.397 . S
C5937 C5938 1.334 . S
C5938 H5909 0.950 . S
C5938 C5937 1.334 . S
C5938 C5939 1.287 . S
C5939 C5938 1.287 . S
C5939 C5940 1.524 . S
C5939 H5942 0.999 . S
C5940 H5910 0.950 . S
C5940 C5939 1.524 . S
C5940 C5941 1.415 . S
C5941 H5911 0.950 . S
C5941 C5936 1.363 . S
C5941 C5940 1.415 . S
H5942 C5939 0.999 . S
H5943 C5924 0.913 . S
H5944 C5962 0.951 . S
H5945 C5964 0.951 . S
H5946 C5966 0.950 . S
H5947 C5967 0.950 . S
H5948 C5969 0.950 . S
H5949 C5972 0.950 . S
H5950 C5973 0.950 . S
H5951 C5975 0.950 . S
H5952 C5976 0.950 . S
H5953 C5977 0.951 . S
H5954 C5979 0.951 . S
H5955 C5981 0.950 . S
H5956 C5982 0.950 . S
H5957 C5984 0.950 . S
H5958 C5987 0.950 . S
H5959 C5988 0.950 . S
H5960 C5990 0.950 . S
H5961 C5991 0.950 . S
C5962 H5944 0.951 . S
C5962 C5963 1.366 . S
C5962 C5964 1.388 . S
C5963 C5962 1.366 . S
C5963 C5967 1.385 . S
C5964 H5945 0.951 . S
C5964 C5962 1.388 . S
C5964 C5965 1.366 . S
C5965 C5964 1.366 . S
C5965 C5966 1.414 . S
C5965 C5968 1.499 . S
C5966 H5946 0.950 . S
C5966 C5965 1.414 . S
C5966 C5967 1.374 . S
C5967 H5947 0.950 . S
C5967 C5963 1.385 . S
C5967 C5966 1.374 . S
C5968 C5965 1.499 . S
C5968 C5969 1.373 . S
C5968 C5970 1.389 . S
C5969 H5948 0.950 . S
C5969 C5968 1.373 . S
C5969 C5985 1.377 . S
C5970 C5968 1.389 . S
C5970 C5971 1.524 . S
C5970 C5984 1.377 . S
C5971 C5970 1.524 . S
C5971 C5972 1.397 . S
C5971 C5976 1.363 . S
C5972 H5949 0.950 . S
C5972 C5971 1.397 . S
C5972 C5973 1.334 . S
C5973 H5950 0.950 . S
C5973 C5972 1.334 . S
C5973 C5974 1.287 . S
C5974 C5973 1.287 . S
C5974 C5975 1.524 . S
C5974 H5993 0.913 . S
C5975 H5951 0.950 . S
C5975 C5974 1.524 . S
C5975 C5976 1.415 . S
C5976 H5952 0.950 . S
C5976 C5971 1.363 . S
C5976 C5975 1.415 . S
C5977 H5953 0.951 . S
C5977 C5978 1.366 . S
C5977 C5979 1.388 . S
C5978 C5977 1.366 . S
C5978 C5982 1.385 . S
C5979 H5954 0.951 . S
C5979 C5977 1.388 . S
C5979 C5980 1.366 . S
C5980 C5979 1.366 . S
C5980 C5981 1.414 . S
C5980 C5983 1.499 . S
C5981 H5955 0.950 . S
C5981 C5980 1.414 . S
C5981 C5982 1.374 . S
C5982 H5956 0.950 . S
C5982 C5978 1.385 . S
C5982 C5981 1.374 . S
C5983 C5980 1.499 . S
C5983 C5984 1.373 . S
C5983 C5985 1.389 . S
C5984 H5957 0.950 . S
C5984 C5970 1.377 . S
C5984 C5983 1.373 . S
C5985 C5969 1.377 . S
C5985 C5983 1.389 . S
C5985 C5986 1.524 . S
C5986 C5985 1.524 . S
C5986 C5987 1.397 . S
C5986 C5991 1.363 . S
C5987 H5958 0.950 . S
C5987 C5986 1.397 . S
C5987 C5988 1.334 . S
C5988 H5959 0.950 . S
C5988 C5987 1.334 . S
C5988 C5989 1.287 . S
C5989 C5988 1.287 . S
C5989 C5990 1.524 . S
C5989 H5992 0.999 . S
C5990 H5960 0.950 . S
C5990 C5989 1.524 . S
C5990 C5991 1.415 . S
C5991 H5961 0.950 . S
C5991 C5986 1.363 . S
C5991 C5990 1.415 . S
H5992 C5989 0.999 . S
H5993 C5974 0.913 . S
H5994 C6012 0.951 . S
H5995 C6014 0.951 . S
H5996 C6016 0.950 . S
H5997 C6017 0.950 . S
H5998 C6019 0.950 . S
H5999 C6022 0.950 . S
H6000 C6023 0.950 . S
H6001 C6025 0.950 . S
H6002 C6026 0.950 . S
H6003 C6027 0.951 . S
H6004 C6029 0.951 . S
H6005 C6031 0.950 . S
H6006 C6032 0.950 . S
H6007 C6034 0.950 . S
H6008 C6037 0.950 . S
H6009 C6038 0.950 . S
H6010 C6040 0.950 . S
H6011 C6041 0.950 . S
C6012 H5994 0.951 . S
C6012 C6013 1.366 . S
C6012 C6014 1.388 . S
C6013 C6012 1.366 . S
C6013 C6017 1.385 . S
C6014 H5995 0.951 . S
C6014 C6012 1.388 . S
C6014 C6015 1.366 . S
C6015 C6014 1.366 . S
C6015 C6016 1.414 . S
C6015 C6018 1.499 . S
C6016 H5996 0.950 . S
C6016 C6015 1.414 . S
C6016 C6017 1.374 . S
C6017 H5997 0.950 . S
C6017 C6013 1.385 . S
C6017 C6016 1.374 . S
C6018 C6015 1.499 . S
C6018 C6019 1.373 . S
C6018 C6020 1.389 . S
C6019 H5998 0.950 . S
C6019 C6018 1.373 . S
C6019 C6035 1.377 . S
C6020 C6018 1.389 . S
C6020 C6021 1.524 . S
C6020 C6034 1.377 . S
C6021 C6020 1.524 . S
C6021 C6022 1.397 . S
C6021 C6026 1.363 . S
C6022 H5999 0.950 . S
C6022 C6021 1.397 . S
C6022 C6023 1.334 . S
C6023 H6000 0.950 . S
C6023 C6022 1.334 . S
C6023 C6024 1.287 . S
C6024 C6023 1.287 . S
C6024 C6025 1.524 . S
C6024 H6043 0.913 . S
C6025 H6001 0.950 . S
C6025 C6024 1.524 . S
C6025 C6026 1.415 . S
C6026 H6002 0.950 . S
C6026 C6021 1.363 . S
C6026 C6025 1.415 . S
C6027 H6003 0.951 . S
C6027 C6028 1.366 . S
C6027 C6029 1.388 . S
C6028 C6027 1.366 . S
C6028 C6032 1.385 . S
C6029 H6004 0.951 . S
C6029 C6027 1.388 . S
C6029 C6030 1.366 . S
C6030 C6029 1.366 . S
C6030 C6031 1.414 . S
C6030 C6033 1.499 . S
C6031 H6005 0.950 . S
C6031 C6030 1.414 . S
C6031 C6032 1.374 . S
C6032 H6006 0.950 . S
C6032 C6028 1.385 . S
C6032 C6031 1.374 . S
C6033 C6030 1.499 . S
C6033 C6034 1.373 . S
C6033 C6035 1.389 . S
C6034 H6007 0.950 . S
C6034 C6020 1.377 . S
C6034 C6033 1.373 . S
C6035 C6019 1.377 . S
C6035 C6033 1.389 . S
C6035 C6036 1.524 . S
C6036 C6035 1.524 . S
C6036 C6037 1.397 . S
C6036 C6041 1.363 . S
C6037 H6008 0.950 . S
C6037 C6036 1.397 . S
C6037 C6038 1.334 . S
C6038 H6009 0.950 . S
C6038 C6037 1.334 . S
C6038 C6039 1.287 . S
C6039 C6038 1.287 . S
C6039 C6040 1.524 . S
C6039 H6042 0.999 . S
C6040 H6010 0.950 . S
C6040 C6039 1.524 . S
C6040 C6041 1.415 . S
C6041 H6011 0.950 . S
C6041 C6036 1.363 . S
C6041 C6040 1.415 . S
H6042 C6039 0.999 . S
H6043 C6024 0.913 . S
H6044 C6062 0.951 . S
H6045 C6064 0.951 . S
H6046 C6066 0.950 . S
H6047 C6067 0.950 . S
H6048 C6069 0.950 . S
H6049 C6072 0.950 . S
H6050 C6073 0.950 . S
H6051 C6075 0.950 . S
H6052 C6076 0.950 . S
H6053 C6077 0.951 . S
H6054 C6079 0.951 . S
H6055 C6081 0.950 . S
H6056 C6082 0.950 . S
H6057 C6084 0.950 . S
H6058 C6087 0.950 . S
H6059 C6088 0.950 . S
H6060 C6090 0.950 . S
H6061 C6091 0.950 . S
C6062 H6044 0.951 . S
C6062 C6063 1.366 . S
C6062 C6064 1.388 . S
C6063 C6062 1.366 . S
C6063 C6067 1.385 . S
C6064 H6045 0.951 . S
C6064 C6062 1.388 . S
C6064 C6065 1.366 . S
C6065 C6064 1.366 . S
C6065 C6066 1.414 . S
C6065 C6068 1.499 . S
C6066 H6046 0.950 . S
C6066 C6065 1.414 . S
C6066 C6067 1.374 . S
C6067 H6047 0.950 . S
C6067 C6063 1.385 . S
C6067 C6066 1.374 . S
C6068 C6065 1.499 . S
C6068 C6069 1.373 . S
C6068 C6070 1.389 . S
C6069 H6048 0.950 . S
C6069 C6068 1.373 . S
C6069 C6085 1.377 . S
C6070 C6068 1.389 . S
C6070 C6071 1.524 . S
C6070 C6084 1.377 . S
C6071 C6070 1.524 . S
C6071 C6072 1.397 . S
C6071 C6076 1.363 . S
C6072 H6049 0.950 . S
C6072 C6071 1.397 . S
C6072 C6073 1.334 . S
C6073 H6050 0.950 . S
C6073 C6072 1.334 . S
C6073 C6074 1.287 . S
C6074 C6073 1.287 . S
C6074 C6075 1.524 . S
C6074 H6093 0.913 . S
C6075 H6051 0.950 . S
C6075 C6074 1.524 . S
C6075 C6076 1.415 . S
C6076 H6052 0.950 . S
C6076 C6071 1.363 . S
C6076 C6075 1.415 . S
C6077 H6053 0.951 . S
C6077 C6078 1.366 . S
C6077 C6079 1.388 . S
C6078 C6077 1.366 . S
C6078 C6082 1.385 . S
C6079 H6054 0.951 . S
C6079 C6077 1.388 . S
C6079 C6080 1.366 . S
C6080 C6079 1.366 . S
C6080 C6081 1.414 . S
C6080 C6083 1.499 . S
C6081 H6055 0.950 . S
C6081 C6080 1.414 . S
C6081 C6082 1.374 . S
C6082 H6056 0.950 . S
C6082 C6078 1.385 . S
C6082 C6081 1.374 . S
C6083 C6080 1.499 . S
C6083 C6084 1.373 . S
C6083 C6085 1.389 . S
C6084 H6057 0.950 . S
C6084 C6070 1.377 . S
C6084 C6083 1.373 . S
C6085 C6069 1.377 . S
C6085 C6083 1.389 . S
C6085 C6086 1.524 . S
C6086 C6085 1.524 . S
C6086 C6087 1.397 . S
C6086 C6091 1.363 . S
C6087 H6058 0.950 . S
C6087 C6086 1.397 . S
C6087 C6088 1.334 . S
C6088 H6059 0.950 . S
C6088 C6087 1.334 . S
C6088 C6089 1.287 . S
C6089 C6088 1.287 . S
C6089 C6090 1.524 . S
C6089 H6092 0.999 . S
C6090 H6060 0.950 . S
C6090 C6089 1.524 . S
C6090 C6091 1.415 . S
C6091 H6061 0.950 . S
C6091 C6086 1.363 . S
C6091 C6090 1.415 . S
H6092 C6089 0.999 . S
H6093 C6074 0.913 . S
H6094 C6112 0.951 . S
H6095 C6114 0.951 . S
H6096 C6116 0.950 . S
H6097 C6117 0.950 . S
H6098 C6119 0.950 . S
H6099 C6122 0.950 . S
H6100 C6123 0.950 . S
H6101 C6125 0.950 . S
H6102 C6126 0.950 . S
H6103 C6127 0.951 . S
H6104 C6129 0.951 . S
H6105 C6131 0.950 . S
H6106 C6132 0.950 . S
H6107 C6134 0.950 . S
H6108 C6137 0.950 . S
H6109 C6138 0.950 . S
H6110 C6140 0.950 . S
H6111 C6141 0.950 . S
C6112 H6094 0.951 . S
C6112 C6113 1.366 . S
C6112 C6114 1.388 . S
C6113 C6112 1.366 . S
C6113 C6117 1.385 . S
C6114 H6095 0.951 . S
C6114 C6112 1.388 . S
C6114 C6115 1.366 . S
C6115 C6114 1.366 . S
C6115 C6116 1.414 . S
C6115 C6118 1.499 . S
C6116 H6096 0.950 . S
C6116 C6115 1.414 . S
C6116 C6117 1.374 . S
C6117 H6097 0.950 . S
C6117 C6113 1.385 . S
C6117 C6116 1.374 . S
C6118 C6115 1.499 . S
C6118 C6119 1.373 . S
C6118 C6120 1.389 . S
C6119 H6098 0.950 . S
C6119 C6118 1.373 . S
C6119 C6135 1.377 . S
C6120 C6118 1.389 . S
C6120 C6121 1.524 . S
C6120 C6134 1.377 . S
C6121 C6120 1.524 . S
C6121 C6122 1.397 . S
C6121 C6126 1.363 . S
C6122 H6099 0.950 . S
C6122 C6121 1.397 . S
C6122 C6123 1.334 . S
C6123 H6100 0.950 . S
C6123 C6122 1.334 . S
C6123 C6124 1.287 . S
C6124 C6123 1.287 . S
C6124 C6125 1.524 . S
C6124 H6143 0.913 . S
C6125 H6101 0.950 . S
C6125 C6124 1.524 . S
C6125 C6126 1.415 . S
C6126 H6102 0.950 . S
C6126 C6121 1.363 . S
C6126 C6125 1.415 . S
C6127 H6103 0.951 . S
C6127 C6128 1.366 . S
C6127 C6129 1.388 . S
C6128 C6127 1.366 . S
C6128 C6132 1.385 . S
C6129 H6104 0.951 . S
C6129 C6127 1.388 . S
C6129 C6130 1.366 . S
C6130 C6129 1.366 . S
C6130 C6131 1.414 . S
C6130 C6133 1.499 . S
C6131 H6105 0.950 . S
C6131 C6130 1.414 . S
C6131 C6132 1.374 . S
C6132 H6106 0.950 . S
C6132 C6128 1.385 . S
C6132 C6131 1.374 . S
C6133 C6130 1.499 . S
C6133 C6134 1.373 . S
C6133 C6135 1.389 . S
C6134 H6107 0.950 . S
C6134 C6120 1.377 . S
C6134 C6133 1.373 . S
C6135 C6119 1.377 . S
C6135 C6133 1.389 . S
C6135 C6136 1.524 . S
C6136 C6135 1.524 . S
C6136 C6137 1.397 . S
C6136 C6141 1.363 . S
C6137 H6108 0.950 . S
C6137 C6136 1.397 . S
C6137 C6138 1.334 . S
C6138 H6109 0.950 . S
C6138 C6137 1.334 . S
C6138 C6139 1.287 . S
C6139 C6138 1.287 . S
C6139 C6140 1.524 . S
C6139 H6142 0.999 . S
C6140 H6110 0.950 . S
C6140 C6139 1.524 . S
C6140 C6141 1.415 . S
C6141 H6111 0.950 . S
C6141 C6136 1.363 . S
C6141 C6140 1.415 . S
H6142 C6139 0.999 . S
H6143 C6124 0.913 . S
H6144 C6162 0.951 . S
H6145 C6164 0.951 . S
H6146 C6166 0.950 . S
H6147 C6167 0.950 . S
H6148 C6169 0.950 . S
H6149 C6172 0.950 . S
H6150 C6173 0.950 . S
H6151 C6175 0.950 . S
H6152 C6176 0.950 . S
H6153 C6177 0.951 . S
H6154 C6179 0.951 . S
H6155 C6181 0.950 . S
H6156 C6182 0.950 . S
H6157 C6184 0.950 . S
H6158 C6187 0.950 . S
H6159 C6188 0.950 . S
H6160 C6190 0.950 . S
H6161 C6191 0.950 . S
C6162 H6144 0.951 . S
C6162 C6163 1.366 . S
C6162 C6164 1.388 . S
C6163 C6162 1.366 . S
C6163 C6167 1.385 . S
C6164 H6145 0.951 . S
C6164 C6162 1.388 . S
C6164 C6165 1.366 . S
C6165 C6164 1.366 . S
C6165 C6166 1.414 . S
C6165 C6168 1.499 . S
C6166 H6146 0.950 . S
C6166 C6165 1.414 . S
C6166 C6167 1.374 . S
C6167 H6147 0.950 . S
C6167 C6163 1.385 . S
C6167 C6166 1.374 . S
C6168 C6165 1.499 . S
C6168 C6169 1.373 . S
C6168 C6170 1.389 . S
C6169 H6148 0.950 . S
C6169 C6168 1.373 . S
C6169 C6185 1.377 1_455 S
C6170 C6168 1.389 . S
C6170 C6171 1.524 . S
C6170 C6184 1.377 1_455 S
C6171 C6170 1.524 . S
C6171 C6172 1.397 . S
C6171 C6176 1.363 . S
C6172 H6149 0.950 . S
C6172 C6171 1.397 . S
C6172 C6173 1.334 . S
C6173 H6150 0.950 . S
C6173 C6172 1.334 . S
C6173 C6174 1.287 . S
C6174 C6173 1.287 . S
C6174 C6175 1.524 . S
C6174 H6193 0.913 . S
C6175 H6151 0.950 . S
C6175 C6174 1.524 . S
C6175 C6176 1.415 . S
C6176 H6152 0.950 . S
C6176 C6171 1.363 . S
C6176 C6175 1.415 . S
C6177 H6153 0.951 . S
C6177 C6178 1.366 . S
C6177 C6179 1.388 . S
C6178 C6177 1.366 . S
C6178 C6182 1.385 . S
C6179 H6154 0.951 . S
C6179 C6177 1.388 . S
C6179 C6180 1.366 . S
C6180 C6179 1.366 . S
C6180 C6181 1.414 . S
C6180 C6183 1.499 . S
C6181 H6155 0.950 . S
C6181 C6180 1.414 . S
C6181 C6182 1.374 . S
C6182 H6156 0.950 . S
C6182 C6178 1.385 . S
C6182 C6181 1.374 . S
C6183 C6180 1.499 . S
C6183 C6184 1.373 . S
C6183 C6185 1.389 . S
C6184 H6157 0.950 . S
C6184 C6170 1.377 1_655 S
C6184 C6183 1.373 . S
C6185 C6169 1.377 1_655 S
C6185 C6183 1.389 . S
C6185 C6186 1.524 . S
C6186 C6185 1.524 . S
C6186 C6187 1.397 . S
C6186 C6191 1.363 . S
C6187 H6158 0.950 . S
C6187 C6186 1.397 . S
C6187 C6188 1.334 . S
C6188 H6159 0.950 . S
C6188 C6187 1.334 . S
C6188 C6189 1.287 . S
C6189 C6188 1.287 . S
C6189 C6190 1.524 . S
C6189 H6192 0.999 . S
C6190 H6160 0.950 . S
C6190 C6189 1.524 . S
C6190 C6191 1.415 . S
C6191 H6161 0.950 . S
C6191 C6186 1.363 . S
C6191 C6190 1.415 . S
H6192 C6189 0.999 . S
H6193 C6174 0.913 . S
H6194 C6212 0.951 . S
H6195 C6214 0.951 . S
H6196 C6216 0.950 . S
H6197 C6217 0.950 . S
H6198 C6219 0.950 . S
H6199 C6222 0.950 . S
H6200 C6223 0.950 . S
H6201 C6225 0.950 . S
H6202 C6226 0.950 . S
H6203 C6227 0.951 . S
H6204 C6229 0.951 . S
H6205 C6231 0.950 . S
H6206 C6232 0.950 . S
H6207 C6234 0.950 . S
H6208 C6237 0.950 . S
H6209 C6238 0.950 . S
H6210 C6240 0.950 . S
H6211 C6241 0.950 . S
C6212 H6194 0.951 . S
C6212 C6213 1.366 . S
C6212 C6214 1.388 . S
C6213 C6212 1.366 . S
C6213 C6217 1.385 . S
C6214 H6195 0.951 . S
C6214 C6212 1.388 . S
C6214 C6215 1.366 . S
C6215 C6214 1.366 . S
C6215 C6216 1.414 . S
C6215 C6218 1.499 . S
C6216 H6196 0.950 . S
C6216 C6215 1.414 . S
C6216 C6217 1.374 . S
C6217 H6197 0.950 . S
C6217 C6213 1.385 . S
C6217 C6216 1.374 . S
C6218 C6215 1.499 . S
C6218 C6219 1.373 . S
C6218 C6220 1.389 . S
C6219 H6198 0.950 . S
C6219 C6218 1.373 . S
C6219 C6235 1.377 1_565 S
C6220 C6218 1.389 . S
C6220 C6221 1.524 . S
C6220 C6234 1.377 1_565 S
C6221 C6220 1.524 . S
C6221 C6222 1.397 . S
C6221 C6226 1.363 . S
C6222 H6199 0.950 . S
C6222 C6221 1.397 . S
C6222 C6223 1.334 . S
C6223 H6200 0.950 . S
C6223 C6222 1.334 . S
C6223 C6224 1.287 . S
C6224 C6223 1.287 . S
C6224 C6225 1.524 . S
C6224 H6243 0.913 . S
C6225 H6201 0.950 . S
C6225 C6224 1.524 . S
C6225 C6226 1.415 . S
C6226 H6202 0.950 . S
C6226 C6221 1.363 . S
C6226 C6225 1.415 . S
C6227 H6203 0.951 . S
C6227 C6228 1.366 . S
C6227 C6229 1.388 . S
C6228 C6227 1.366 . S
C6228 C6232 1.385 . S
C6229 H6204 0.951 . S
C6229 C6227 1.388 . S
C6229 C6230 1.366 . S
C6230 C6229 1.366 . S
C6230 C6231 1.414 . S
C6230 C6233 1.499 . S
C6231 H6205 0.950 . S
C6231 C6230 1.414 . S
C6231 C6232 1.374 . S
C6232 H6206 0.950 . S
C6232 C6228 1.385 . S
C6232 C6231 1.374 . S
C6233 C6230 1.499 . S
C6233 C6234 1.373 . S
C6233 C6235 1.389 . S
C6234 H6207 0.950 . S
C6234 C6220 1.377 1_545 S
C6234 C6233 1.373 . S
C6235 C6219 1.377 1_545 S
C6235 C6233 1.389 . S
C6235 C6236 1.524 . S
C6236 C6235 1.524 . S
C6236 C6237 1.397 . S
C6236 C6241 1.363 . S
C6237 H6208 0.950 . S
C6237 C6236 1.397 . S
C6237 C6238 1.334 . S
C6238 H6209 0.950 . S
C6238 C6237 1.334 . S
C6238 C6239 1.287 . S
C6239 C6238 1.287 . S
C6239 C6240 1.524 . S
C6239 H6242 0.999 . S
C6240 H6210 0.950 . S
C6240 C6239 1.524 . S
C6240 C6241 1.415 . S
C6241 H6211 0.950 . S
C6241 C6236 1.363 . S
C6241 C6240 1.415 . S
H6242 C6239 0.999 . S
H6243 C6224 0.913 . S
H6244 C6262 0.951 . S
H6245 C6264 0.951 . S
H6246 C6266 0.950 . S
H6247 C6267 0.950 . S
H6248 C6269 0.950 . S
H6249 C6272 0.950 . S
H6250 C6273 0.950 . S
H6251 C6275 0.950 . S
H6252 C6276 0.950 . S
H6253 C6277 0.951 . S
H6254 C6279 0.951 . S
H6255 C6281 0.950 . S
H6256 C6282 0.950 . S
H6257 C6284 0.950 . S
H6258 C6287 0.950 . S
H6259 C6288 0.950 . S
H6260 C6290 0.950 . S
H6261 C6291 0.950 . S
C6262 H6244 0.951 . S
C6262 C6263 1.366 . S
C6262 C6264 1.388 . S
C6263 C6262 1.366 . S
C6263 C6267 1.385 . S
C6264 H6245 0.951 . S
C6264 C6262 1.388 . S
C6264 C6265 1.366 . S
C6265 C6264 1.366 . S
C6265 C6266 1.414 . S
C6265 C6268 1.499 . S
C6266 H6246 0.950 . S
C6266 C6265 1.414 . S
C6266 C6267 1.374 . S
C6267 H6247 0.950 . S
C6267 C6263 1.385 . S
C6267 C6266 1.374 . S
C6268 C6265 1.499 . S
C6268 C6269 1.373 . S
C6268 C6270 1.389 . S
C6269 H6248 0.950 . S
C6269 C6268 1.373 . S
C6269 C6285 1.377 1_655 S
C6270 C6268 1.389 . S
C6270 C6271 1.524 . S
C6270 C6284 1.377 1_655 S
C6271 C6270 1.524 . S
C6271 C6272 1.397 . S
C6271 C6276 1.363 . S
C6272 H6249 0.950 . S
C6272 C6271 1.397 . S
C6272 C6273 1.334 . S
C6273 H6250 0.950 . S
C6273 C6272 1.334 . S
C6273 C6274 1.287 . S
C6274 C6273 1.287 . S
C6274 C6275 1.524 . S
C6274 H6293 0.913 . S
C6275 H6251 0.950 . S
C6275 C6274 1.524 . S
C6275 C6276 1.415 . S
C6276 H6252 0.950 . S
C6276 C6271 1.363 . S
C6276 C6275 1.415 . S
C6277 H6253 0.951 . S
C6277 C6278 1.366 . S
C6277 C6279 1.388 . S
C6278 C6277 1.366 . S
C6278 C6282 1.385 . S
C6279 H6254 0.951 . S
C6279 C6277 1.388 . S
C6279 C6280 1.366 . S
C6280 C6279 1.366 . S
C6280 C6281 1.414 . S
C6280 C6283 1.499 . S
C6281 H6255 0.950 . S
C6281 C6280 1.414 . S
C6281 C6282 1.374 . S
C6282 H6256 0.950 . S
C6282 C6278 1.385 . S
C6282 C6281 1.374 . S
C6283 C6280 1.499 . S
C6283 C6284 1.373 . S
C6283 C6285 1.389 . S
C6284 H6257 0.950 . S
C6284 C6270 1.377 1_455 S
C6284 C6283 1.373 . S
C6285 C6269 1.377 1_455 S
C6285 C6283 1.389 . S
C6285 C6286 1.524 . S
C6286 C6285 1.524 . S
C6286 C6287 1.397 . S
C6286 C6291 1.363 . S
C6287 H6258 0.950 . S
C6287 C6286 1.397 . S
C6287 C6288 1.334 . S
C6288 H6259 0.950 . S
C6288 C6287 1.334 . S
C6288 C6289 1.287 . S
C6289 C6288 1.287 . S
C6289 C6290 1.524 . S
C6289 H6292 0.999 . S
C6290 H6260 0.950 . S
C6290 C6289 1.524 . S
C6290 C6291 1.415 . S
C6291 H6261 0.950 . S
C6291 C6286 1.363 . S
C6291 C6290 1.415 . S
H6292 C6289 0.999 . S
H6293 C6274 0.913 . S
H6294 C6312 0.951 . S
H6295 C6314 0.951 . S
H6296 C6316 0.950 . S
H6297 C6317 0.950 . S
H6298 C6319 0.950 . S
H6299 C6322 0.950 . S
H6300 C6323 0.950 . S
H6301 C6325 0.950 . S
H6302 C6326 0.950 . S
H6303 C6327 0.951 . S
H6304 C6329 0.951 . S
H6305 C6331 0.950 . S
H6306 C6332 0.950 . S
H6307 C6334 0.950 . S
H6308 C6337 0.950 . S
H6309 C6338 0.950 . S
H6310 C6340 0.950 . S
H6311 C6341 0.950 . S
C6312 H6294 0.951 . S
C6312 C6313 1.366 . S
C6312 C6314 1.388 . S
C6313 C6312 1.366 . S
C6313 C6317 1.385 . S
C6314 H6295 0.951 . S
C6314 C6312 1.388 . S
C6314 C6315 1.366 . S
C6315 C6314 1.366 . S
C6315 C6316 1.414 . S
C6315 C6318 1.499 . S
C6316 H6296 0.950 . S
C6316 C6315 1.414 . S
C6316 C6317 1.374 . S
C6317 H6297 0.950 . S
C6317 C6313 1.385 . S
C6317 C6316 1.374 . S
C6318 C6315 1.499 . S
C6318 C6319 1.373 . S
C6318 C6320 1.389 . S
C6319 H6298 0.950 . S
C6319 C6318 1.373 . S
C6319 C6335 1.377 1_545 S
C6320 C6318 1.389 . S
C6320 C6321 1.524 . S
C6320 C6334 1.377 1_545 S
C6321 C6320 1.524 . S
C6321 C6322 1.397 . S
C6321 C6326 1.363 . S
C6322 H6299 0.950 . S
C6322 C6321 1.397 . S
C6322 C6323 1.334 . S
C6323 H6300 0.950 . S
C6323 C6322 1.334 . S
C6323 C6324 1.287 . S
C6324 C6323 1.287 . S
C6324 C6325 1.524 . S
C6324 H6343 0.913 . S
C6325 H6301 0.950 . S
C6325 C6324 1.524 . S
C6325 C6326 1.415 . S
C6326 H6302 0.950 . S
C6326 C6321 1.363 . S
C6326 C6325 1.415 . S
C6327 H6303 0.951 . S
C6327 C6328 1.366 . S
C6327 C6329 1.388 . S
C6328 C6327 1.366 . S
C6328 C6332 1.385 . S
C6329 H6304 0.951 . S
C6329 C6327 1.388 . S
C6329 C6330 1.366 . S
C6330 C6329 1.366 . S
C6330 C6331 1.414 . S
C6330 C6333 1.499 . S
C6331 H6305 0.950 . S
C6331 C6330 1.414 . S
C6331 C6332 1.374 . S
C6332 H6306 0.950 . S
C6332 C6328 1.385 . S
C6332 C6331 1.374 . S
C6333 C6330 1.499 . S
C6333 C6334 1.373 . S
C6333 C6335 1.389 . S
C6334 H6307 0.950 . S
C6334 C6320 1.377 1_565 S
C6334 C6333 1.373 . S
C6335 C6319 1.377 1_565 S
C6335 C6333 1.389 . S
C6335 C6336 1.524 . S
C6336 C6335 1.524 . S
C6336 C6337 1.397 . S
C6336 C6341 1.363 . S
C6337 H6308 0.950 . S
C6337 C6336 1.397 . S
C6337 C6338 1.334 . S
C6338 H6309 0.950 . S
C6338 C6337 1.334 . S
C6338 C6339 1.287 . S
C6339 C6338 1.287 . S
C6339 C6340 1.524 . S
C6339 H6342 0.999 . S
C6340 H6310 0.950 . S
C6340 C6339 1.524 . S
C6340 C6341 1.415 . S
C6341 H6311 0.950 . S
C6341 C6336 1.363 . S
C6341 C6340 1.415 . S
H6342 C6339 0.999 . S
H6343 C6324 0.913 . S
H6344 C6362 0.951 . S
H6345 C6364 0.951 . S
H6346 C6366 0.950 . S
H6347 C6367 0.950 . S
H6348 C6369 0.950 . S
H6349 C6372 0.950 . S
H6350 C6373 0.950 . S
H6351 C6375 0.950 . S
H6352 C6376 0.950 . S
H6353 C6377 0.951 . S
H6354 C6379 0.951 . S
H6355 C6381 0.950 . S
H6356 C6382 0.950 . S
H6357 C6384 0.950 . S
H6358 C6387 0.950 . S
H6359 C6388 0.950 . S
H6360 C6390 0.950 . S
H6361 C6391 0.950 . S
C6362 H6344 0.951 . S
C6362 C6363 1.366 . S
C6362 C6364 1.388 . S
C6363 C6362 1.366 . S
C6363 C6367 1.385 . S
C6364 H6345 0.951 . S
C6364 C6362 1.388 . S
C6364 C6365 1.366 . S
C6365 C6364 1.366 . S
C6365 C6366 1.414 . S
C6365 C6368 1.499 . S
C6366 H6346 0.950 . S
C6366 C6365 1.414 . S
C6366 C6367 1.374 . S
C6367 H6347 0.950 . S
C6367 C6363 1.385 . S
C6367 C6366 1.374 . S
C6368 C6365 1.499 . S
C6368 C6369 1.373 . S
C6368 C6370 1.389 . S
C6369 H6348 0.950 . S
C6369 C6368 1.373 . S
C6369 C6385 1.377 1_455 S
C6370 C6368 1.389 . S
C6370 C6371 1.524 . S
C6370 C6384 1.377 1_455 S
C6371 C6370 1.524 . S
C6371 C6372 1.397 . S
C6371 C6376 1.363 . S
C6372 H6349 0.950 . S
C6372 C6371 1.397 . S
C6372 C6373 1.334 . S
C6373 H6350 0.950 . S
C6373 C6372 1.334 . S
C6373 C6374 1.287 . S
C6374 C6373 1.287 . S
C6374 C6375 1.524 . S
C6374 H6393 0.913 . S
C6375 H6351 0.950 . S
C6375 C6374 1.524 . S
C6375 C6376 1.415 . S
C6376 H6352 0.950 . S
C6376 C6371 1.363 . S
C6376 C6375 1.415 . S
C6377 H6353 0.951 . S
C6377 C6378 1.366 . S
C6377 C6379 1.388 . S
C6378 C6377 1.366 . S
C6378 C6382 1.385 . S
C6379 H6354 0.951 . S
C6379 C6377 1.388 . S
C6379 C6380 1.366 . S
C6380 C6379 1.366 . S
C6380 C6381 1.414 . S
C6380 C6383 1.499 . S
C6381 H6355 0.950 . S
C6381 C6380 1.414 . S
C6381 C6382 1.374 . S
C6382 H6356 0.950 . S
C6382 C6378 1.385 . S
C6382 C6381 1.374 . S
C6383 C6380 1.499 . S
C6383 C6384 1.373 . S
C6383 C6385 1.389 . S
C6384 H6357 0.950 . S
C6384 C6370 1.377 1_655 S
C6384 C6383 1.373 . S
C6385 C6369 1.377 1_655 S
C6385 C6383 1.389 . S
C6385 C6386 1.524 . S
C6386 C6385 1.524 . S
C6386 C6387 1.397 . S
C6386 C6391 1.363 . S
C6387 H6358 0.950 . S
C6387 C6386 1.397 . S
C6387 C6388 1.334 . S
C6388 H6359 0.950 . S
C6388 C6387 1.334 . S
C6388 C6389 1.287 . S
C6389 C6388 1.287 . S
C6389 C6390 1.524 . S
C6389 H6392 0.999 . S
C6390 H6360 0.950 . S
C6390 C6389 1.524 . S
C6390 C6391 1.415 . S
C6391 H6361 0.950 . S
C6391 C6386 1.363 . S
C6391 C6390 1.415 . S
H6392 C6389 0.999 . S
H6393 C6374 0.913 . S
H6394 C6412 0.951 . S
H6395 C6414 0.951 . S
H6396 C6416 0.950 . S
H6397 C6417 0.950 . S
H6398 C6419 0.950 . S
H6399 C6422 0.950 . S
H6400 C6423 0.950 . S
H6401 C6425 0.950 . S
H6402 C6426 0.950 . S
H6403 C6427 0.951 . S
H6404 C6429 0.951 . S
H6405 C6431 0.950 . S
H6406 C6432 0.950 . S
H6407 C6434 0.950 . S
H6408 C6437 0.950 . S
H6409 C6438 0.950 . S
H6410 C6440 0.950 . S
H6411 C6441 0.950 . S
C6412 H6394 0.951 . S
C6412 C6413 1.366 . S
C6412 C6414 1.388 . S
C6413 C6412 1.366 . S
C6413 C6417 1.385 . S
C6414 H6395 0.951 . S
C6414 C6412 1.388 . S
C6414 C6415 1.366 . S
C6415 C6414 1.366 . S
C6415 C6416 1.414 . S
C6415 C6418 1.499 . S
C6416 H6396 0.950 . S
C6416 C6415 1.414 . S
C6416 C6417 1.374 . S
C6417 H6397 0.950 . S
C6417 C6413 1.385 . S
C6417 C6416 1.374 . S
C6418 C6415 1.499 . S
C6418 C6419 1.373 . S
C6418 C6420 1.389 . S
C6419 H6398 0.950 . S
C6419 C6418 1.373 . S
C6419 C6435 1.377 1_545 S
C6420 C6418 1.389 . S
C6420 C6421 1.524 . S
C6420 C6434 1.377 1_545 S
C6421 C6420 1.524 . S
C6421 C6422 1.397 . S
C6421 C6426 1.363 . S
C6422 H6399 0.950 . S
C6422 C6421 1.397 . S
C6422 C6423 1.334 . S
C6423 H6400 0.950 . S
C6423 C6422 1.334 . S
C6423 C6424 1.287 . S
C6424 C6423 1.287 . S
C6424 C6425 1.524 . S
C6424 H6443 0.913 . S
C6425 H6401 0.950 . S
C6425 C6424 1.524 . S
C6425 C6426 1.415 . S
C6426 H6402 0.950 . S
C6426 C6421 1.363 . S
C6426 C6425 1.415 . S
C6427 H6403 0.951 . S
C6427 C6428 1.366 . S
C6427 C6429 1.388 . S
C6428 C6427 1.366 . S
C6428 C6432 1.385 . S
C6429 H6404 0.951 . S
C6429 C6427 1.388 . S
C6429 C6430 1.366 . S
C6430 C6429 1.366 . S
C6430 C6431 1.414 . S
C6430 C6433 1.499 . S
C6431 H6405 0.950 . S
C6431 C6430 1.414 . S
C6431 C6432 1.374 . S
C6432 H6406 0.950 . S
C6432 C6428 1.385 . S
C6432 C6431 1.374 . S
C6433 C6430 1.499 . S
C6433 C6434 1.373 . S
C6433 C6435 1.389 . S
C6434 H6407 0.950 . S
C6434 C6420 1.377 1_565 S
C6434 C6433 1.373 . S
C6435 C6419 1.377 1_565 S
C6435 C6433 1.389 . S
C6435 C6436 1.524 . S
C6436 C6435 1.524 . S
C6436 C6437 1.397 . S
C6436 C6441 1.363 . S
C6437 H6408 0.950 . S
C6437 C6436 1.397 . S
C6437 C6438 1.334 . S
C6438 H6409 0.950 . S
C6438 C6437 1.334 . S
C6438 C6439 1.287 . S
C6439 C6438 1.287 . S
C6439 C6440 1.524 . S
C6439 H6442 0.999 . S
C6440 H6410 0.950 . S
C6440 C6439 1.524 . S
C6440 C6441 1.415 . S
C6441 H6411 0.950 . S
C6441 C6436 1.363 . S
C6441 C6440 1.415 . S
H6442 C6439 0.999 . S
H6443 C6424 0.913 . S
H6444 C6462 0.951 . S
H6445 C6464 0.951 . S
H6446 C6466 0.950 . S
H6447 C6467 0.950 . S
H6448 C6469 0.950 . S
H6449 C6472 0.950 . S
H6450 C6473 0.950 . S
H6451 C6475 0.950 . S
H6452 C6476 0.950 . S
H6453 C6477 0.951 . S
H6454 C6479 0.951 . S
H6455 C6481 0.950 . S
H6456 C6482 0.950 . S
H6457 C6484 0.950 . S
H6458 C6487 0.950 . S
H6459 C6488 0.950 . S
H6460 C6490 0.950 . S
H6461 C6491 0.950 . S
C6462 H6444 0.951 . S
C6462 C6463 1.366 . S
C6462 C6464 1.388 . S
C6463 C6462 1.366 . S
C6463 C6467 1.385 . S
C6464 H6445 0.951 . S
C6464 C6462 1.388 . S
C6464 C6465 1.366 . S
C6465 C6464 1.366 . S
C6465 C6466 1.414 . S
C6465 C6468 1.499 . S
C6466 H6446 0.950 . S
C6466 C6465 1.414 . S
C6466 C6467 1.374 . S
C6467 H6447 0.950 . S
C6467 C6463 1.385 . S
C6467 C6466 1.374 . S
C6468 C6465 1.499 . S
C6468 C6469 1.373 . S
C6468 C6470 1.389 . S
C6469 H6448 0.950 . S
C6469 C6468 1.373 . S
C6469 C6485 1.377 1_655 S
C6470 C6468 1.389 . S
C6470 C6471 1.524 . S
C6470 C6484 1.377 1_655 S
C6471 C6470 1.524 . S
C6471 C6472 1.397 . S
C6471 C6476 1.363 . S
C6472 H6449 0.950 . S
C6472 C6471 1.397 . S
C6472 C6473 1.334 . S
C6473 H6450 0.950 . S
C6473 C6472 1.334 . S
C6473 C6474 1.287 . S
C6474 C6473 1.287 . S
C6474 C6475 1.524 . S
C6474 H6493 0.913 . S
C6475 H6451 0.950 . S
C6475 C6474 1.524 . S
C6475 C6476 1.415 . S
C6476 H6452 0.950 . S
C6476 C6471 1.363 . S
C6476 C6475 1.415 . S
C6477 H6453 0.951 . S
C6477 C6478 1.366 . S
C6477 C6479 1.388 . S
C6478 C6477 1.366 . S
C6478 C6482 1.385 . S
C6479 H6454 0.951 . S
C6479 C6477 1.388 . S
C6479 C6480 1.366 . S
C6480 C6479 1.366 . S
C6480 C6481 1.414 . S
C6480 C6483 1.499 . S
C6481 H6455 0.950 . S
C6481 C6480 1.414 . S
C6481 C6482 1.374 . S
C6482 H6456 0.950 . S
C6482 C6478 1.385 . S
C6482 C6481 1.374 . S
C6483 C6480 1.499 . S
C6483 C6484 1.373 . S
C6483 C6485 1.389 . S
C6484 H6457 0.950 . S
C6484 C6470 1.377 1_455 S
C6484 C6483 1.373 . S
C6485 C6469 1.377 1_455 S
C6485 C6483 1.389 . S
C6485 C6486 1.524 . S
C6486 C6485 1.524 . S
C6486 C6487 1.397 . S
C6486 C6491 1.363 . S
C6487 H6458 0.950 . S
C6487 C6486 1.397 . S
C6487 C6488 1.334 . S
C6488 H6459 0.950 . S
C6488 C6487 1.334 . S
C6488 C6489 1.287 . S
C6489 C6488 1.287 . S
C6489 C6490 1.524 . S
C6489 H6492 0.999 . S
C6490 H6460 0.950 . S
C6490 C6489 1.524 . S
C6490 C6491 1.415 . S
C6491 H6461 0.950 . S
C6491 C6486 1.363 . S
C6491 C6490 1.415 . S
H6492 C6489 0.999 . S
H6493 C6474 0.913 . S
H6494 C6512 0.951 . S
H6495 C6514 0.951 . S
H6496 C6516 0.950 . S
H6497 C6517 0.950 . S
H6498 C6519 0.950 . S
H6499 C6522 0.950 . S
H6500 C6523 0.950 . S
H6501 C6525 0.950 . S
H6502 C6526 0.950 . S
H6503 C6527 0.951 . S
H6504 C6529 0.951 . S
H6505 C6531 0.950 . S
H6506 C6532 0.950 . S
H6507 C6534 0.950 . S
H6508 C6537 0.950 . S
H6509 C6538 0.950 . S
H6510 C6540 0.950 . S
H6511 C6541 0.950 . S
C6512 H6494 0.951 . S
C6512 C6513 1.366 . S
C6512 C6514 1.388 . S
C6513 C6512 1.366 . S
C6513 C6517 1.385 . S
C6514 H6495 0.951 . S
C6514 C6512 1.388 . S
C6514 C6515 1.366 . S
C6515 C6514 1.366 . S
C6515 C6516 1.414 . S
C6515 C6518 1.499 . S
C6516 H6496 0.950 . S
C6516 C6515 1.414 . S
C6516 C6517 1.374 . S
C6517 H6497 0.950 . S
C6517 C6513 1.385 . S
C6517 C6516 1.374 . S
C6518 C6515 1.499 . S
C6518 C6519 1.373 . S
C6518 C6520 1.389 . S
C6519 H6498 0.950 . S
C6519 C6518 1.373 . S
C6519 C6535 1.377 1_545 S
C6520 C6518 1.389 . S
C6520 C6521 1.524 . S
C6520 C6534 1.377 1_545 S
C6521 C6520 1.524 . S
C6521 C6522 1.397 . S
C6521 C6526 1.363 . S
C6522 H6499 0.950 . S
C6522 C6521 1.397 . S
C6522 C6523 1.334 . S
C6523 H6500 0.950 . S
C6523 C6522 1.334 . S
C6523 C6524 1.287 . S
C6524 C6523 1.287 . S
C6524 C6525 1.524 . S
C6524 H6543 0.913 . S
C6525 H6501 0.950 . S
C6525 C6524 1.524 . S
C6525 C6526 1.415 . S
C6526 H6502 0.950 . S
C6526 C6521 1.363 . S
C6526 C6525 1.415 . S
C6527 H6503 0.951 . S
C6527 C6528 1.366 . S
C6527 C6529 1.388 . S
C6528 C6527 1.366 . S
C6528 C6532 1.385 . S
C6529 H6504 0.951 . S
C6529 C6527 1.388 . S
C6529 C6530 1.366 . S
C6530 C6529 1.366 . S
C6530 C6531 1.414 . S
C6530 C6533 1.499 . S
C6531 H6505 0.950 . S
C6531 C6530 1.414 . S
C6531 C6532 1.374 . S
C6532 H6506 0.950 . S
C6532 C6528 1.385 . S
C6532 C6531 1.374 . S
C6533 C6530 1.499 . S
C6533 C6534 1.373 . S
C6533 C6535 1.389 . S
C6534 H6507 0.950 . S
C6534 C6520 1.377 1_565 S
C6534 C6533 1.373 . S
C6535 C6519 1.377 1_565 S
C6535 C6533 1.389 . S
C6535 C6536 1.524 . S
C6536 C6535 1.524 . S
C6536 C6537 1.397 . S
C6536 C6541 1.363 . S
C6537 H6508 0.950 . S
C6537 C6536 1.397 . S
C6537 C6538 1.334 . S
C6538 H6509 0.950 . S
C6538 C6537 1.334 . S
C6538 C6539 1.287 . S
C6539 C6538 1.287 . S
C6539 C6540 1.524 . S
C6539 H6542 0.999 . S
C6540 H6510 0.950 . S
C6540 C6539 1.524 . S
C6540 C6541 1.415 . S
C6541 H6511 0.950 . S
C6541 C6536 1.363 . S
C6541 C6540 1.415 . S
H6542 C6539 0.999 . S
H6543 C6524 0.913 . S
H6544 C6562 0.951 . S
H6545 C6564 0.951 . S
H6546 C6566 0.950 . S
H6547 C6567 0.950 . S
H6548 C6569 0.950 . S
H6549 C6572 0.950 . S
H6550 C6573 0.950 . S
H6551 C6575 0.950 . S
H6552 C6576 0.950 . S
H6553 C6577 0.951 . S
H6554 C6579 0.951 . S
H6555 C6581 0.950 . S
H6556 C6582 0.950 . S
H6557 C6584 0.950 . S
H6558 C6587 0.950 . S
H6559 C6588 0.950 . S
H6560 C6590 0.950 . S
H6561 C6591 0.950 . S
C6562 H6544 0.951 . S
C6562 C6563 1.366 . S
C6562 C6564 1.388 . S
C6563 C6562 1.366 . S
C6563 C6567 1.385 . S
C6564 H6545 0.951 . S
C6564 C6562 1.388 . S
C6564 C6565 1.366 . S
C6565 C6564 1.366 . S
C6565 C6566 1.414 . S
C6565 C6568 1.499 . S
C6566 H6546 0.950 . S
C6566 C6565 1.414 . S
C6566 C6567 1.374 . S
C6567 H6547 0.950 . S
C6567 C6563 1.385 . S
C6567 C6566 1.374 . S
C6568 C6565 1.499 . S
C6568 C6569 1.373 . S
C6568 C6570 1.389 . S
C6569 H6548 0.950 . S
C6569 C6568 1.373 . S
C6569 C6585 1.377 1_565 S
C6570 C6568 1.389 . S
C6570 C6571 1.524 . S
C6570 C6584 1.377 1_565 S
C6571 C6570 1.524 . S
C6571 C6572 1.397 . S
C6571 C6576 1.363 . S
C6572 H6549 0.950 . S
C6572 C6571 1.397 . S
C6572 C6573 1.334 . S
C6573 H6550 0.950 . S
C6573 C6572 1.334 . S
C6573 C6574 1.287 . S
C6574 C6573 1.287 . S
C6574 C6575 1.524 . S
C6574 H6593 0.913 . S
C6575 H6551 0.950 . S
C6575 C6574 1.524 . S
C6575 C6576 1.415 . S
C6576 H6552 0.950 . S
C6576 C6571 1.363 . S
C6576 C6575 1.415 . S
C6577 H6553 0.951 . S
C6577 C6578 1.366 . S
C6577 C6579 1.388 . S
C6578 C6577 1.366 . S
C6578 C6582 1.385 . S
C6579 H6554 0.951 . S
C6579 C6577 1.388 . S
C6579 C6580 1.366 . S
C6580 C6579 1.366 . S
C6580 C6581 1.414 . S
C6580 C6583 1.499 . S
C6581 H6555 0.950 . S
C6581 C6580 1.414 . S
C6581 C6582 1.374 . S
C6582 H6556 0.950 . S
C6582 C6578 1.385 . S
C6582 C6581 1.374 . S
C6583 C6580 1.499 . S
C6583 C6584 1.373 . S
C6583 C6585 1.389 . S
C6584 H6557 0.950 . S
C6584 C6570 1.377 1_545 S
C6584 C6583 1.373 . S
C6585 C6569 1.377 1_545 S
C6585 C6583 1.389 . S
C6585 C6586 1.524 . S
C6586 C6585 1.524 . S
C6586 C6587 1.397 . S
C6586 C6591 1.363 . S
C6587 H6558 0.950 . S
C6587 C6586 1.397 . S
C6587 C6588 1.334 . S
C6588 H6559 0.950 . S
C6588 C6587 1.334 . S
C6588 C6589 1.287 . S
C6589 C6588 1.287 . S
C6589 C6590 1.524 . S
C6589 H6592 0.999 . S
C6590 H6560 0.950 . S
C6590 C6589 1.524 . S
C6590 C6591 1.415 . S
C6591 H6561 0.950 . S
C6591 C6586 1.363 . S
C6591 C6590 1.415 . S
H6592 C6589 0.999 . S
H6593 C6574 0.913 . S
H6594 C6612 0.951 . S
H6595 C6614 0.951 . S
H6596 C6616 0.950 . S
H6597 C6617 0.950 . S
H6598 C6619 0.950 . S
H6599 C6622 0.950 . S
H6600 C6623 0.950 . S
H6601 C6625 0.950 . S
H6602 C6626 0.950 . S
H6603 C6627 0.951 . S
H6604 C6629 0.951 . S
H6605 C6631 0.950 . S
H6606 C6632 0.950 . S
H6607 C6634 0.950 . S
H6608 C6637 0.950 . S
H6609 C6638 0.950 . S
H6610 C6640 0.950 . S
H6611 C6641 0.950 . S
C6612 H6594 0.951 . S
C6612 C6613 1.366 . S
C6612 C6614 1.388 . S
C6613 C6612 1.366 . S
C6613 C6617 1.385 . S
C6614 H6595 0.951 . S
C6614 C6612 1.388 . S
C6614 C6615 1.366 . S
C6615 C6614 1.366 . S
C6615 C6616 1.414 . S
C6615 C6618 1.499 . S
C6616 H6596 0.950 . S
C6616 C6615 1.414 . S
C6616 C6617 1.374 . S
C6617 H6597 0.950 . S
C6617 C6613 1.385 . S
C6617 C6616 1.374 . S
C6618 C6615 1.499 . S
C6618 C6619 1.373 . S
C6618 C6620 1.389 . S
C6619 H6598 0.950 . S
C6619 C6618 1.373 . S
C6619 C6635 1.377 1_655 S
C6620 C6618 1.389 . S
C6620 C6621 1.524 . S
C6620 C6634 1.377 1_655 S
C6621 C6620 1.524 . S
C6621 C6622 1.397 . S
C6621 C6626 1.363 . S
C6622 H6599 0.950 . S
C6622 C6621 1.397 . S
C6622 C6623 1.334 . S
C6623 H6600 0.950 . S
C6623 C6622 1.334 . S
C6623 C6624 1.287 . S
C6624 C6623 1.287 . S
C6624 C6625 1.524 . S
C6624 H6643 0.913 . S
C6625 H6601 0.950 . S
C6625 C6624 1.524 . S
C6625 C6626 1.415 . S
C6626 H6602 0.950 . S
C6626 C6621 1.363 . S
C6626 C6625 1.415 . S
C6627 H6603 0.951 . S
C6627 C6628 1.366 . S
C6627 C6629 1.388 . S
C6628 C6627 1.366 . S
C6628 C6632 1.385 . S
C6629 H6604 0.951 . S
C6629 C6627 1.388 . S
C6629 C6630 1.366 . S
C6630 C6629 1.366 . S
C6630 C6631 1.414 . S
C6630 C6633 1.499 . S
C6631 H6605 0.950 . S
C6631 C6630 1.414 . S
C6631 C6632 1.374 . S
C6632 H6606 0.950 . S
C6632 C6628 1.385 . S
C6632 C6631 1.374 . S
C6633 C6630 1.499 . S
C6633 C6634 1.373 . S
C6633 C6635 1.389 . S
C6634 H6607 0.950 . S
C6634 C6620 1.377 1_455 S
C6634 C6633 1.373 . S
C6635 C6619 1.377 1_455 S
C6635 C6633 1.389 . S
C6635 C6636 1.524 . S
C6636 C6635 1.524 . S
C6636 C6637 1.397 . S
C6636 C6641 1.363 . S
C6637 H6608 0.950 . S
C6637 C6636 1.397 . S
C6637 C6638 1.334 . S
C6638 H6609 0.950 . S
C6638 C6637 1.334 . S
C6638 C6639 1.287 . S
C6639 C6638 1.287 . S
C6639 C6640 1.524 . S
C6639 H6642 0.999 . S
C6640 H6610 0.950 . S
C6640 C6639 1.524 . S
C6640 C6641 1.415 . S
C6641 H6611 0.950 . S
C6641 C6636 1.363 . S
C6641 C6640 1.415 . S
H6642 C6639 0.999 . S
H6643 C6624 0.913 . S
H6644 C6662 0.951 . S
H6645 C6664 0.951 . S
H6646 C6666 0.950 . S
H6647 C6667 0.950 . S
H6648 C6669 0.950 . S
H6649 C6672 0.950 . S
H6650 C6673 0.950 . S
H6651 C6675 0.950 . S
H6652 C6676 0.950 . S
H6653 C6677 0.951 . S
H6654 C6679 0.951 . S
H6655 C6681 0.950 . S
H6656 C6682 0.950 . S
H6657 C6684 0.950 . S
H6658 C6687 0.950 . S
H6659 C6688 0.950 . S
H6660 C6690 0.950 . S
H6661 C6691 0.950 . S
C6662 H6644 0.951 . S
C6662 C6663 1.366 . S
C6662 C6664 1.388 . S
C6663 C6662 1.366 . S
C6663 C6667 1.385 . S
C6664 H6645 0.951 . S
C6664 C6662 1.388 . S
C6664 C6665 1.366 . S
C6665 C6664 1.366 . S
C6665 C6666 1.414 . S
C6665 C6668 1.499 . S
C6666 H6646 0.950 . S
C6666 C6665 1.414 . S
C6666 C6667 1.374 . S
C6667 H6647 0.950 . S
C6667 C6663 1.385 . S
C6667 C6666 1.374 . S
C6668 C6665 1.499 . S
C6668 C6669 1.373 . S
C6668 C6670 1.389 . S
C6669 H6648 0.950 . S
C6669 C6668 1.373 . S
C6669 C6685 1.377 1_565 S
C6670 C6668 1.389 . S
C6670 C6671 1.524 . S
C6670 C6684 1.377 1_565 S
C6671 C6670 1.524 . S
C6671 C6672 1.397 . S
C6671 C6676 1.363 . S
C6672 H6649 0.950 . S
C6672 C6671 1.397 . S
C6672 C6673 1.334 . S
C6673 H6650 0.950 . S
C6673 C6672 1.334 . S
C6673 C6674 1.287 . S
C6674 C6673 1.287 . S
C6674 C6675 1.524 . S
C6674 H6693 0.913 . S
C6675 H6651 0.950 . S
C6675 C6674 1.524 . S
C6675 C6676 1.415 . S
C6676 H6652 0.950 . S
C6676 C6671 1.363 . S
C6676 C6675 1.415 . S
C6677 H6653 0.951 . S
C6677 C6678 1.366 . S
C6677 C6679 1.388 . S
C6678 C6677 1.366 . S
C6678 C6682 1.385 . S
C6679 H6654 0.951 . S
C6679 C6677 1.388 . S
C6679 C6680 1.366 . S
C6680 C6679 1.366 . S
C6680 C6681 1.414 . S
C6680 C6683 1.499 . S
C6681 H6655 0.950 . S
C6681 C6680 1.414 . S
C6681 C6682 1.374 . S
C6682 H6656 0.950 . S
C6682 C6678 1.385 . S
C6682 C6681 1.374 . S
C6683 C6680 1.499 . S
C6683 C6684 1.373 . S
C6683 C6685 1.389 . S
C6684 H6657 0.950 . S
C6684 C6670 1.377 1_545 S
C6684 C6683 1.373 . S
C6685 C6669 1.377 1_545 S
C6685 C6683 1.389 . S
C6685 C6686 1.524 . S
C6686 C6685 1.524 . S
C6686 C6687 1.397 . S
C6686 C6691 1.363 . S
C6687 H6658 0.950 . S
C6687 C6686 1.397 . S
C6687 C6688 1.334 . S
C6688 H6659 0.950 . S
C6688 C6687 1.334 . S
C6688 C6689 1.287 . S
C6689 C6688 1.287 . S
C6689 C6690 1.524 . S
C6689 H6692 0.999 . S
C6690 H6660 0.950 . S
C6690 C6689 1.524 . S
C6690 C6691 1.415 . S
C6691 H6661 0.950 . S
C6691 C6686 1.363 . S
C6691 C6690 1.415 . S
H6692 C6689 0.999 . S
H6693 C6674 0.913 . S
H6694 C6712 0.951 . S
H6695 C6714 0.951 . S
H6696 C6716 0.950 . S
H6697 C6717 0.950 . S
H6698 C6719 0.950 . S
H6699 C6722 0.950 . S
H6700 C6723 0.950 . S
H6701 C6725 0.950 . S
H6702 C6726 0.950 . S
H6703 C6727 0.951 . S
H6704 C6729 0.951 . S
H6705 C6731 0.950 . S
H6706 C6732 0.950 . S
H6707 C6734 0.950 . S
H6708 C6737 0.950 . S
H6709 C6738 0.950 . S
H6710 C6740 0.950 . S
H6711 C6741 0.950 . S
C6712 H6694 0.951 . S
C6712 C6713 1.366 . S
C6712 C6714 1.388 . S
C6713 C6712 1.366 . S
C6713 C6717 1.385 . S
C6714 H6695 0.951 . S
C6714 C6712 1.388 . S
C6714 C6715 1.366 . S
C6715 C6714 1.366 . S
C6715 C6716 1.414 . S
C6715 C6718 1.499 . S
C6716 H6696 0.950 . S
C6716 C6715 1.414 . S
C6716 C6717 1.374 . S
C6717 H6697 0.950 . S
C6717 C6713 1.385 . S
C6717 C6716 1.374 . S
C6718 C6715 1.499 . S
C6718 C6719 1.373 . S
C6718 C6720 1.389 . S
C6719 H6698 0.950 . S
C6719 C6718 1.373 . S
C6719 C6735 1.377 1_455 S
C6720 C6718 1.389 . S
C6720 C6721 1.524 . S
C6720 C6734 1.377 1_455 S
C6721 C6720 1.524 . S
C6721 C6722 1.397 . S
C6721 C6726 1.363 . S
C6722 H6699 0.950 . S
C6722 C6721 1.397 . S
C6722 C6723 1.334 . S
C6723 H6700 0.950 . S
C6723 C6722 1.334 . S
C6723 C6724 1.287 . S
C6724 C6723 1.287 . S
C6724 C6725 1.524 . S
C6724 H6743 0.913 . S
C6725 H6701 0.950 . S
C6725 C6724 1.524 . S
C6725 C6726 1.415 . S
C6726 H6702 0.950 . S
C6726 C6721 1.363 . S
C6726 C6725 1.415 . S
C6727 H6703 0.951 . S
C6727 C6728 1.366 . S
C6727 C6729 1.388 . S
C6728 C6727 1.366 . S
C6728 C6732 1.385 . S
C6729 H6704 0.951 . S
C6729 C6727 1.388 . S
C6729 C6730 1.366 . S
C6730 C6729 1.366 . S
C6730 C6731 1.414 . S
C6730 C6733 1.499 . S
C6731 H6705 0.950 . S
C6731 C6730 1.414 . S
C6731 C6732 1.374 . S
C6732 H6706 0.950 . S
C6732 C6728 1.385 . S
C6732 C6731 1.374 . S
C6733 C6730 1.499 . S
C6733 C6734 1.373 . S
C6733 C6735 1.389 . S
C6734 H6707 0.950 . S
C6734 C6720 1.377 1_655 S
C6734 C6733 1.373 . S
C6735 C6719 1.377 1_655 S
C6735 C6733 1.389 . S
C6735 C6736 1.524 . S
C6736 C6735 1.524 . S
C6736 C6737 1.397 . S
C6736 C6741 1.363 . S
C6737 H6708 0.950 . S
C6737 C6736 1.397 . S
C6737 C6738 1.334 . S
C6738 H6709 0.950 . S
C6738 C6737 1.334 . S
C6738 C6739 1.287 . S
C6739 C6738 1.287 . S
C6739 C6740 1.524 . S
C6739 H6742 0.999 . S
C6740 H6710 0.950 . S
C6740 C6739 1.524 . S
C6740 C6741 1.415 . S
C6741 H6711 0.950 . S
C6741 C6736 1.363 . S
C6741 C6740 1.415 . S
H6742 C6739 0.999 . S
H6743 C6724 0.913 . S
H6744 C6762 0.951 . S
H6745 C6764 0.951 . S
H6746 C6766 0.950 . S
H6747 C6767 0.950 . S
H6748 C6769 0.950 . S
H6749 C6772 0.950 . S
H6750 C6773 0.950 . S
H6751 C6775 0.950 . S
H6752 C6776 0.950 . S
H6753 C6777 0.951 . S
H6754 C6779 0.951 . S
H6755 C6781 0.950 . S
H6756 C6782 0.950 . S
H6757 C6784 0.950 . S
H6758 C6787 0.950 . S
H6759 C6788 0.950 . S
H6760 C6790 0.950 . S
H6761 C6791 0.950 . S
C6762 H6744 0.951 . S
C6762 C6763 1.366 . S
C6762 C6764 1.388 . S
C6763 C6762 1.366 . S
C6763 C6767 1.385 . S
C6764 H6745 0.951 . S
C6764 C6762 1.388 . S
C6764 C6765 1.366 . S
C6765 C6764 1.366 . S
C6765 C6766 1.414 . S
C6765 C6768 1.499 . S
C6766 H6746 0.950 . S
C6766 C6765 1.414 . S
C6766 C6767 1.374 . S
C6767 H6747 0.950 . S
C6767 C6763 1.385 . S
C6767 C6766 1.374 . S
C6768 C6765 1.499 . S
C6768 C6769 1.373 . S
C6768 C6770 1.389 . S
C6769 H6748 0.950 . S
C6769 C6768 1.373 . S
C6769 C6785 1.377 1_565 S
C6770 C6768 1.389 . S
C6770 C6771 1.524 . S
C6770 C6784 1.377 1_565 S
C6771 C6770 1.524 . S
C6771 C6772 1.397 . S
C6771 C6776 1.363 . S
C6772 H6749 0.950 . S
C6772 C6771 1.397 . S
C6772 C6773 1.334 . S
C6773 H6750 0.950 . S
C6773 C6772 1.334 . S
C6773 C6774 1.287 . S
C6774 C6773 1.287 . S
C6774 C6775 1.524 . S
C6774 H6793 0.913 . S
C6775 H6751 0.950 . S
C6775 C6774 1.524 . S
C6775 C6776 1.415 . S
C6776 H6752 0.950 . S
C6776 C6771 1.363 . S
C6776 C6775 1.415 . S
C6777 H6753 0.951 . S
C6777 C6778 1.366 . S
C6777 C6779 1.388 . S
C6778 C6777 1.366 . S
C6778 C6782 1.385 . S
C6779 H6754 0.951 . S
C6779 C6777 1.388 . S
C6779 C6780 1.366 . S
C6780 C6779 1.366 . S
C6780 C6781 1.414 . S
C6780 C6783 1.499 . S
C6781 H6755 0.950 . S
C6781 C6780 1.414 . S
C6781 C6782 1.374 . S
C6782 H6756 0.950 . S
C6782 C6778 1.385 . S
C6782 C6781 1.374 . S
C6783 C6780 1.499 . S
C6783 C6784 1.373 . S
C6783 C6785 1.389 . S
C6784 H6757 0.950 . S
C6784 C6770 1.377 1_545 S
C6784 C6783 1.373 . S
C6785 C6769 1.377 1_545 S
C6785 C6783 1.389 . S
C6785 C6786 1.524 . S
C6786 C6785 1.524 . S
C6786 C6787 1.397 . S
C6786 C6791 1.363 . S
C6787 H6758 0.950 . S
C6787 C6786 1.397 . S
C6787 C6788 1.334 . S
C6788 H6759 0.950 . S
C6788 C6787 1.334 . S
C6788 C6789 1.287 . S
C6789 C6788 1.287 . S
C6789 C6790 1.524 . S
C6789 H6792 0.999 . S
C6790 H6760 0.950 . S
C6790 C6789 1.524 . S
C6790 C6791 1.415 . S
C6791 H6761 0.950 . S
C6791 C6786 1.363 . S
C6791 C6790 1.415 . S
H6792 C6789 0.999 . S
H6793 C6774 0.913 . S
H6794 C6812 0.951 . S
H6795 C6814 0.951 . S
H6796 C6816 0.950 . S
H6797 C6817 0.950 . S
H6798 C6819 0.950 . S
H6799 C6822 0.950 . S
H6800 C6823 0.950 . S
H6801 C6825 0.950 . S
H6802 C6826 0.950 . S
H6803 C6827 0.951 . S
H6804 C6829 0.951 . S
H6805 C6831 0.950 . S
H6806 C6832 0.950 . S
H6807 C6834 0.950 . S
H6808 C6837 0.950 . S
H6809 C6838 0.950 . S
H6810 C6840 0.950 . S
H6811 C6841 0.950 . S
C6812 H6794 0.951 . S
C6812 C6813 1.366 . S
C6812 C6814 1.388 . S
C6813 C6812 1.366 . S
C6813 C6817 1.385 . S
C6814 H6795 0.951 . S
C6814 C6812 1.388 . S
C6814 C6815 1.366 . S
C6815 C6814 1.366 . S
C6815 C6816 1.414 . S
C6815 C6818 1.499 . S
C6816 H6796 0.950 . S
C6816 C6815 1.414 . S
C6816 C6817 1.374 . S
C6817 H6797 0.950 . S
C6817 C6813 1.385 . S
C6817 C6816 1.374 . S
C6818 C6815 1.499 . S
C6818 C6819 1.373 . S
C6818 C6820 1.389 . S
C6819 H6798 0.950 . S
C6819 C6818 1.373 . S
C6819 C6835 1.377 1_455 S
C6820 C6818 1.389 . S
C6820 C6821 1.524 . S
C6820 C6834 1.377 1_455 S
C6821 C6820 1.524 . S
C6821 C6822 1.397 . S
C6821 C6826 1.363 . S
C6822 H6799 0.950 . S
C6822 C6821 1.397 . S
C6822 C6823 1.334 . S
C6823 H6800 0.950 . S
C6823 C6822 1.334 . S
C6823 C6824 1.287 . S
C6824 C6823 1.287 . S
C6824 C6825 1.524 . S
C6824 H6843 0.913 . S
C6825 H6801 0.950 . S
C6825 C6824 1.524 . S
C6825 C6826 1.415 . S
C6826 H6802 0.950 . S
C6826 C6821 1.363 . S
C6826 C6825 1.415 . S
C6827 H6803 0.951 . S
C6827 C6828 1.366 . S
C6827 C6829 1.388 . S
C6828 C6827 1.366 . S
C6828 C6832 1.385 . S
C6829 H6804 0.951 . S
C6829 C6827 1.388 . S
C6829 C6830 1.366 . S
C6830 C6829 1.366 . S
C6830 C6831 1.414 . S
C6830 C6833 1.499 . S
C6831 H6805 0.950 . S
C6831 C6830 1.414 . S
C6831 C6832 1.374 . S
C6832 H6806 0.950 . S
C6832 C6828 1.385 . S
C6832 C6831 1.374 . S
C6833 C6830 1.499 . S
C6833 C6834 1.373 . S
C6833 C6835 1.389 . S
C6834 H6807 0.950 . S
C6834 C6820 1.377 1_655 S
C6834 C6833 1.373 . S
C6835 C6819 1.377 1_655 S
C6835 C6833 1.389 . S
C6835 C6836 1.524 . S
C6836 C6835 1.524 . S
C6836 C6837 1.397 . S
C6836 C6841 1.363 . S
C6837 H6808 0.950 . S
C6837 C6836 1.397 . S
C6837 C6838 1.334 . S
C6838 H6809 0.950 . S
C6838 C6837 1.334 . S
C6838 C6839 1.287 . S
C6839 C6838 1.287 . S
C6839 C6840 1.524 . S
C6839 H6842 0.999 . S
C6840 H6810 0.950 . S
C6840 C6839 1.524 . S
C6840 C6841 1.415 . S
C6841 H6811 0.950 . S
C6841 C6836 1.363 . S
C6841 C6840 1.415 . S
H6842 C6839 0.999 . S
H6843 C6824 0.913 . S
H6844 C6862 0.951 . S
H6845 C6864 0.951 . S
H6846 C6866 0.950 . S
H6847 C6867 0.950 . S
H6848 C6869 0.950 . S
H6849 C6872 0.950 . S
H6850 C6873 0.950 . S
H6851 C6875 0.950 . S
H6852 C6876 0.950 . S
H6853 C6877 0.951 . S
H6854 C6879 0.951 . S
H6855 C6881 0.950 . S
H6856 C6882 0.950 . S
H6857 C6884 0.950 . S
H6858 C6887 0.950 . S
H6859 C6888 0.950 . S
H6860 C6890 0.950 . S
H6861 C6891 0.950 . S
C6862 H6844 0.951 . S
C6862 C6863 1.366 . S
C6862 C6864 1.388 . S
C6863 C6862 1.366 . S
C6863 C6867 1.385 . S
C6864 H6845 0.951 . S
C6864 C6862 1.388 . S
C6864 C6865 1.366 . S
C6865 C6864 1.366 . S
C6865 C6866 1.414 . S
C6865 C6868 1.499 . S
C6866 H6846 0.950 . S
C6866 C6865 1.414 . S
C6866 C6867 1.374 . S
C6867 H6847 0.950 . S
C6867 C6863 1.385 . S
C6867 C6866 1.374 . S
C6868 C6865 1.499 . S
C6868 C6869 1.373 . S
C6868 C6870 1.389 . S
C6869 H6848 0.950 . S
C6869 C6868 1.373 . S
C6869 C6885 1.377 1_545 S
C6870 C6868 1.389 . S
C6870 C6871 1.524 . S
C6870 C6884 1.377 1_545 S
C6871 C6870 1.524 . S
C6871 C6872 1.397 . S
C6871 C6876 1.363 . S
C6872 H6849 0.950 . S
C6872 C6871 1.397 . S
C6872 C6873 1.334 . S
C6873 H6850 0.950 . S
C6873 C6872 1.334 . S
C6873 C6874 1.287 . S
C6874 C6873 1.287 . S
C6874 C6875 1.524 . S
C6874 H6893 0.913 . S
C6875 H6851 0.950 . S
C6875 C6874 1.524 . S
C6875 C6876 1.415 . S
C6876 H6852 0.950 . S
C6876 C6871 1.363 . S
C6876 C6875 1.415 . S
C6877 H6853 0.951 . S
C6877 C6878 1.366 . S
C6877 C6879 1.388 . S
C6878 C6877 1.366 . S
C6878 C6882 1.385 . S
C6879 H6854 0.951 . S
C6879 C6877 1.388 . S
C6879 C6880 1.366 . S
C6880 C6879 1.366 . S
C6880 C6881 1.414 . S
C6880 C6883 1.499 . S
C6881 H6855 0.950 . S
C6881 C6880 1.414 . S
C6881 C6882 1.374 . S
C6882 H6856 0.950 . S
C6882 C6878 1.385 . S
C6882 C6881 1.374 . S
C6883 C6880 1.499 . S
C6883 C6884 1.373 . S
C6883 C6885 1.389 . S
C6884 H6857 0.950 . S
C6884 C6870 1.377 1_565 S
C6884 C6883 1.373 . S
C6885 C6869 1.377 1_565 S
C6885 C6883 1.389 . S
C6885 C6886 1.524 . S
C6886 C6885 1.524 . S
C6886 C6887 1.397 . S
C6886 C6891 1.363 . S
C6887 H6858 0.950 . S
C6887 C6886 1.397 . S
C6887 C6888 1.334 . S
C6888 H6859 0.950 . S
C6888 C6887 1.334 . S
C6888 C6889 1.287 . S
C6889 C6888 1.287 . S
C6889 C6890 1.524 . S
C6889 H6892 0.999 . S
C6890 H6860 0.950 . S
C6890 C6889 1.524 . S
C6890 C6891 1.415 . S
C6891 H6861 0.950 . S
C6891 C6886 1.363 . S
C6891 C6890 1.415 . S
H6892 C6889 0.999 . S
H6893 C6874 0.913 . S
H6894 C6912 0.951 . S
H6895 C6914 0.951 . S
H6896 C6916 0.950 . S
H6897 C6917 0.950 . S
H6898 C6919 0.950 . S
H6899 C6922 0.950 . S
H6900 C6923 0.950 . S
H6901 C6925 0.950 . S
H6902 C6926 0.950 . S
H6903 C6927 0.951 . S
H6904 C6929 0.951 . S
H6905 C6931 0.950 . S
H6906 C6932 0.950 . S
H6907 C6934 0.950 . S
H6908 C6937 0.950 . S
H6909 C6938 0.950 . S
H6910 C6940 0.950 . S
H6911 C6941 0.950 . S
C6912 H6894 0.951 . S
C6912 C6913 1.366 . S
C6912 C6914 1.388 . S
C6913 C6912 1.366 . S
C6913 C6917 1.385 . S
C6914 H6895 0.951 . S
C6914 C6912 1.388 . S
C6914 C6915 1.366 . S
C6915 C6914 1.366 . S
C6915 C6916 1.414 . S
C6915 C6918 1.499 . S
C6916 H6896 0.950 . S
C6916 C6915 1.414 . S
C6916 C6917 1.374 . S
C6917 H6897 0.950 . S
C6917 C6913 1.385 . S
C6917 C6916 1.374 . S
C6918 C6915 1.499 . S
C6918 C6919 1.373 . S
C6918 C6920 1.389 . S
C6919 H6898 0.950 . S
C6919 C6918 1.373 . S
C6919 C6935 1.377 1_655 S
C6920 C6918 1.389 . S
C6920 C6921 1.524 . S
C6920 C6934 1.377 1_655 S
C6921 C6920 1.524 . S
C6921 C6922 1.397 . S
C6921 C6926 1.363 . S
C6922 H6899 0.950 . S
C6922 C6921 1.397 . S
C6922 C6923 1.334 . S
C6923 H6900 0.950 . S
C6923 C6922 1.334 . S
C6923 C6924 1.287 . S
C6924 C6923 1.287 . S
C6924 C6925 1.524 . S
C6924 H6943 0.913 . S
C6925 H6901 0.950 . S
C6925 C6924 1.524 . S
C6925 C6926 1.415 . S
C6926 H6902 0.950 . S
C6926 C6921 1.363 . S
C6926 C6925 1.415 . S
C6927 H6903 0.951 . S
C6927 C6928 1.366 . S
C6927 C6929 1.388 . S
C6928 C6927 1.366 . S
C6928 C6932 1.385 . S
C6929 H6904 0.951 . S
C6929 C6927 1.388 . S
C6929 C6930 1.366 . S
C6930 C6929 1.366 . S
C6930 C6931 1.414 . S
C6930 C6933 1.499 . S
C6931 H6905 0.950 . S
C6931 C6930 1.414 . S
C6931 C6932 1.374 . S
C6932 H6906 0.950 . S
C6932 C6928 1.385 . S
C6932 C6931 1.374 . S
C6933 C6930 1.499 . S
C6933 C6934 1.373 . S
C6933 C6935 1.389 . S
C6934 H6907 0.950 . S
C6934 C6920 1.377 1_455 S
C6934 C6933 1.373 . S
C6935 C6919 1.377 1_455 S
C6935 C6933 1.389 . S
C6935 C6936 1.524 . S
C6936 C6935 1.524 . S
C6936 C6937 1.397 . S
C6936 C6941 1.363 . S
C6937 H6908 0.950 . S
C6937 C6936 1.397 . S
C6937 C6938 1.334 . S
C6938 H6909 0.950 . S
C6938 C6937 1.334 . S
C6938 C6939 1.287 . S
C6939 C6938 1.287 . S
C6939 C6940 1.524 . S
C6939 H6942 0.999 . S
C6940 H6910 0.950 . S
C6940 C6939 1.524 . S
C6940 C6941 1.415 . S
C6941 H6911 0.950 . S
C6941 C6936 1.363 . S
C6941 C6940 1.415 . S
H6942 C6939 0.999 . S
H6943 C6924 0.913 . S
H6944 C6962 0.951 . S
H6945 C6964 0.951 . S
H6946 C6966 0.950 . S
H6947 C6967 0.950 . S
H6948 C6969 0.950 . S
H6949 C6972 0.950 . S
H6950 C6973 0.950 . S
H6951 C6975 0.950 . S
H6952 C6976 0.950 . S
H6953 C6977 0.951 . S
H6954 C6979 0.951 . S
H6955 C6981 0.950 . S
H6956 C6982 0.950 . S
H6957 C6984 0.950 . S
H6958 C6987 0.950 . S
H6959 C6988 0.950 . S
H6960 C6990 0.950 . S
H6961 C6991 0.950 . S
C6962 H6944 0.951 . S
C6962 C6963 1.366 . S
C6962 C6964 1.388 . S
C6963 C6962 1.366 . S
C6963 C6967 1.385 . S
C6964 H6945 0.951 . S
C6964 C6962 1.388 . S
C6964 C6965 1.366 . S
C6965 C6964 1.366 . S
C6965 C6966 1.414 . S
C6965 C6968 1.499 . S
C6966 H6946 0.950 . S
C6966 C6965 1.414 . S
C6966 C6967 1.374 . S
C6967 H6947 0.950 . S
C6967 C6963 1.385 . S
C6967 C6966 1.374 . S
C6968 C6965 1.499 . S
C6968 C6969 1.373 . S
C6968 C6970 1.389 . S
C6969 H6948 0.950 . S
C6969 C6968 1.373 . S
C6969 C6985 1.377 1_554 S
C6970 C6968 1.389 . S
C6970 C6971 1.524 . S
C6970 C6984 1.377 1_554 S
C6971 C6970 1.524 . S
C6971 C6972 1.397 . S
C6971 C6976 1.363 . S
C6972 H6949 0.950 . S
C6972 C6971 1.397 . S
C6972 C6973 1.334 . S
C6973 H6950 0.950 . S
C6973 C6972 1.334 . S
C6973 C6974 1.287 . S
C6974 C6973 1.287 . S
C6974 C6975 1.524 . S
C6974 H6993 0.913 . S
C6975 H6951 0.950 . S
C6975 C6974 1.524 . S
C6975 C6976 1.415 . S
C6976 H6952 0.950 . S
C6976 C6971 1.363 . S
C6976 C6975 1.415 . S
C6977 H6953 0.951 . S
C6977 C6978 1.366 . S
C6977 C6979 1.388 . S
C6978 C6977 1.366 . S
C6978 C6982 1.385 . S
C6979 H6954 0.951 . S
C6979 C6977 1.388 . S
C6979 C6980 1.366 . S
C6980 C6979 1.366 . S
C6980 C6981 1.414 . S
C6980 C6983 1.499 . S
C6981 H6955 0.950 . S
C6981 C6980 1.414 . S
C6981 C6982 1.374 . S
C6982 H6956 0.950 . S
C6982 C6978 1.385 . S
C6982 C6981 1.374 . S
C6983 C6980 1.499 . S
C6983 C6984 1.373 . S
C6983 C6985 1.389 . S
C6984 H6957 0.950 . S
C6984 C6970 1.377 1_556 S
C6984 C6983 1.373 . S
C6985 C6969 1.377 1_556 S
C6985 C6983 1.389 . S
C6985 C6986 1.524 . S
C6986 C6985 1.524 . S
C6986 C6987 1.397 . S
C6986 C6991 1.363 . S
C6987 H6958 0.950 . S
C6987 C6986 1.397 . S
C6987 C6988 1.334 . S
C6988 H6959 0.950 . S
C6988 C6987 1.334 . S
C6988 C6989 1.287 . S
C6989 C6988 1.287 . S
C6989 C6990 1.524 . S
C6989 H6992 0.999 . S
C6990 H6960 0.950 . S
C6990 C6989 1.524 . S
C6990 C6991 1.415 . S
C6991 H6961 0.950 . S
C6991 C6986 1.363 . S
C6991 C6990 1.415 . S
H6992 C6989 0.999 . S
H6993 C6974 0.913 . S
H6994 C7012 0.951 . S
H6995 C7014 0.951 . S
H6996 C7016 0.950 . S
H6997 C7017 0.950 . S
H6998 C7019 0.950 . S
H6999 C7022 0.950 . S
H7000 C7023 0.950 . S
H7001 C7025 0.950 . S
H7002 C7026 0.950 . S
H7003 C7027 0.951 . S
H7004 C7029 0.951 . S
H7005 C7031 0.950 . S
H7006 C7032 0.950 . S
H7007 C7034 0.950 . S
H7008 C7037 0.950 . S
H7009 C7038 0.950 . S
H7010 C7040 0.950 . S
H7011 C7041 0.950 . S
C7012 H6994 0.951 . S
C7012 C7013 1.366 . S
C7012 C7014 1.388 . S
C7013 C7012 1.366 . S
C7013 C7017 1.385 . S
C7014 H6995 0.951 . S
C7014 C7012 1.388 . S
C7014 C7015 1.366 . S
C7015 C7014 1.366 . S
C7015 C7016 1.414 . S
C7015 C7018 1.499 . S
C7016 H6996 0.950 . S
C7016 C7015 1.414 . S
C7016 C7017 1.374 . S
C7017 H6997 0.950 . S
C7017 C7013 1.385 . S
C7017 C7016 1.374 . S
C7018 C7015 1.499 . S
C7018 C7019 1.373 . S
C7018 C7020 1.389 . S
C7019 H6998 0.950 . S
C7019 C7018 1.373 . S
C7019 C7035 1.377 1_556 S
C7020 C7018 1.389 . S
C7020 C7021 1.524 . S
C7020 C7034 1.377 1_556 S
C7021 C7020 1.524 . S
C7021 C7022 1.397 . S
C7021 C7026 1.363 . S
C7022 H6999 0.950 . S
C7022 C7021 1.397 . S
C7022 C7023 1.334 . S
C7023 H7000 0.950 . S
C7023 C7022 1.334 . S
C7023 C7024 1.287 . S
C7024 C7023 1.287 . S
C7024 C7025 1.524 . S
C7024 H7043 0.913 . S
C7025 H7001 0.950 . S
C7025 C7024 1.524 . S
C7025 C7026 1.415 . S
C7026 H7002 0.950 . S
C7026 C7021 1.363 . S
C7026 C7025 1.415 . S
C7027 H7003 0.951 . S
C7027 C7028 1.366 . S
C7027 C7029 1.388 . S
C7028 C7027 1.366 . S
C7028 C7032 1.385 . S
C7029 H7004 0.951 . S
C7029 C7027 1.388 . S
C7029 C7030 1.366 . S
C7030 C7029 1.366 . S
C7030 C7031 1.414 . S
C7030 C7033 1.499 . S
C7031 H7005 0.950 . S
C7031 C7030 1.414 . S
C7031 C7032 1.374 . S
C7032 H7006 0.950 . S
C7032 C7028 1.385 . S
C7032 C7031 1.374 . S
C7033 C7030 1.499 . S
C7033 C7034 1.373 . S
C7033 C7035 1.389 . S
C7034 H7007 0.950 . S
C7034 C7020 1.377 1_554 S
C7034 C7033 1.373 . S
C7035 C7019 1.377 1_554 S
C7035 C7033 1.389 . S
C7035 C7036 1.524 . S
C7036 C7035 1.524 . S
C7036 C7037 1.397 . S
C7036 C7041 1.363 . S
C7037 H7008 0.950 . S
C7037 C7036 1.397 . S
C7037 C7038 1.334 . S
C7038 H7009 0.950 . S
C7038 C7037 1.334 . S
C7038 C7039 1.287 . S
C7039 C7038 1.287 . S
C7039 C7040 1.524 . S
C7039 H7042 0.999 . S
C7040 H7010 0.950 . S
C7040 C7039 1.524 . S
C7040 C7041 1.415 . S
C7041 H7011 0.950 . S
C7041 C7036 1.363 . S
C7041 C7040 1.415 . S
H7042 C7039 0.999 . S
H7043 C7024 0.913 . S
H7044 C7062 0.951 . S
H7045 C7064 0.951 . S
H7046 C7066 0.950 . S
H7047 C7067 0.950 . S
H7048 C7069 0.950 . S
H7049 C7072 0.950 . S
H7050 C7073 0.950 . S
H7051 C7075 0.950 . S
H7052 C7076 0.950 . S
H7053 C7077 0.951 . S
H7054 C7079 0.951 . S
H7055 C7081 0.950 . S
H7056 C7082 0.950 . S
H7057 C7084 0.950 . S
H7058 C7087 0.950 . S
H7059 C7088 0.950 . S
H7060 C7090 0.950 . S
H7061 C7091 0.950 . S
C7062 H7044 0.951 . S
C7062 C7063 1.366 . S
C7062 C7064 1.388 . S
C7063 C7062 1.366 . S
C7063 C7067 1.385 . S
C7064 H7045 0.951 . S
C7064 C7062 1.388 . S
C7064 C7065 1.366 . S
C7065 C7064 1.366 . S
C7065 C7066 1.414 . S
C7065 C7068 1.499 . S
C7066 H7046 0.950 . S
C7066 C7065 1.414 . S
C7066 C7067 1.374 . S
C7067 H7047 0.950 . S
C7067 C7063 1.385 . S
C7067 C7066 1.374 . S
C7068 C7065 1.499 . S
C7068 C7069 1.373 . S
C7068 C7070 1.389 . S
C7069 H7048 0.950 . S
C7069 C7068 1.373 . S
C7069 C7085 1.377 1_554 S
C7070 C7068 1.389 . S
C7070 C7071 1.524 . S
C7070 C7084 1.377 1_554 S
C7071 C7070 1.524 . S
C7071 C7072 1.397 . S
C7071 C7076 1.363 . S
C7072 H7049 0.950 . S
C7072 C7071 1.397 . S
C7072 C7073 1.334 . S
C7073 H7050 0.950 . S
C7073 C7072 1.334 . S
C7073 C7074 1.287 . S
C7074 C7073 1.287 . S
C7074 C7075 1.524 . S
C7074 H7093 0.913 . S
C7075 H7051 0.950 . S
C7075 C7074 1.524 . S
C7075 C7076 1.415 . S
C7076 H7052 0.950 . S
C7076 C7071 1.363 . S
C7076 C7075 1.415 . S
C7077 H7053 0.951 . S
C7077 C7078 1.366 . S
C7077 C7079 1.388 . S
C7078 C7077 1.366 . S
C7078 C7082 1.385 . S
C7079 H7054 0.951 . S
C7079 C7077 1.388 . S
C7079 C7080 1.366 . S
C7080 C7079 1.366 . S
C7080 C7081 1.414 . S
C7080 C7083 1.499 . S
C7081 H7055 0.950 . S
C7081 C7080 1.414 . S
C7081 C7082 1.374 . S
C7082 H7056 0.950 . S
C7082 C7078 1.385 . S
C7082 C7081 1.374 . S
C7083 C7080 1.499 . S
C7083 C7084 1.373 . S
C7083 C7085 1.389 . S
C7084 H7057 0.950 . S
C7084 C7070 1.377 1_556 S
C7084 C7083 1.373 . S
C7085 C7069 1.377 1_556 S
C7085 C7083 1.389 . S
C7085 C7086 1.524 . S
C7086 C7085 1.524 . S
C7086 C7087 1.397 . S
C7086 C7091 1.363 . S
C7087 H7058 0.950 . S
C7087 C7086 1.397 . S
C7087 C7088 1.334 . S
C7088 H7059 0.950 . S
C7088 C7087 1.334 . S
C7088 C7089 1.287 . S
C7089 C7088 1.287 . S
C7089 C7090 1.524 . S
C7089 H7092 0.999 . S
C7090 H7060 0.950 . S
C7090 C7089 1.524 . S
C7090 C7091 1.415 . S
C7091 H7061 0.950 . S
C7091 C7086 1.363 . S
C7091 C7090 1.415 . S
H7092 C7089 0.999 . S
H7093 C7074 0.913 . S
H7094 C7112 0.951 . S
H7095 C7114 0.951 . S
H7096 C7116 0.950 . S
H7097 C7117 0.950 . S
H7098 C7119 0.950 . S
H7099 C7122 0.950 . S
H7100 C7123 0.950 . S
H7101 C7125 0.950 . S
H7102 C7126 0.950 . S
H7103 C7127 0.951 . S
H7104 C7129 0.951 . S
H7105 C7131 0.950 . S
H7106 C7132 0.950 . S
H7107 C7134 0.950 . S
H7108 C7137 0.950 . S
H7109 C7138 0.950 . S
H7110 C7140 0.950 . S
H7111 C7141 0.950 . S
C7112 H7094 0.951 . S
C7112 C7113 1.366 . S
C7112 C7114 1.388 . S
C7113 C7112 1.366 . S
C7113 C7117 1.385 . S
C7114 H7095 0.951 . S
C7114 C7112 1.388 . S
C7114 C7115 1.366 . S
C7115 C7114 1.366 . S
C7115 C7116 1.414 . S
C7115 C7118 1.499 . S
C7116 H7096 0.950 . S
C7116 C7115 1.414 . S
C7116 C7117 1.374 . S
C7117 H7097 0.950 . S
C7117 C7113 1.385 . S
C7117 C7116 1.374 . S
C7118 C7115 1.499 . S
C7118 C7119 1.373 . S
C7118 C7120 1.389 . S
C7119 H7098 0.950 . S
C7119 C7118 1.373 . S
C7119 C7135 1.377 1_556 S
C7120 C7118 1.389 . S
C7120 C7121 1.524 . S
C7120 C7134 1.377 1_556 S
C7121 C7120 1.524 . S
C7121 C7122 1.397 . S
C7121 C7126 1.363 . S
C7122 H7099 0.950 . S
C7122 C7121 1.397 . S
C7122 C7123 1.334 . S
C7123 H7100 0.950 . S
C7123 C7122 1.334 . S
C7123 C7124 1.287 . S
C7124 C7123 1.287 . S
C7124 C7125 1.524 . S
C7124 H7143 0.913 . S
C7125 H7101 0.950 . S
C7125 C7124 1.524 . S
C7125 C7126 1.415 . S
C7126 H7102 0.950 . S
C7126 C7121 1.363 . S
C7126 C7125 1.415 . S
C7127 H7103 0.951 . S
C7127 C7128 1.366 . S
C7127 C7129 1.388 . S
C7128 C7127 1.366 . S
C7128 C7132 1.385 . S
C7129 H7104 0.951 . S
C7129 C7127 1.388 . S
C7129 C7130 1.366 . S
C7130 C7129 1.366 . S
C7130 C7131 1.414 . S
C7130 C7133 1.499 . S
C7131 H7105 0.950 . S
C7131 C7130 1.414 . S
C7131 C7132 1.374 . S
C7132 H7106 0.950 . S
C7132 C7128 1.385 . S
C7132 C7131 1.374 . S
C7133 C7130 1.499 . S
C7133 C7134 1.373 . S
C7133 C7135 1.389 . S
C7134 H7107 0.950 . S
C7134 C7120 1.377 1_554 S
C7134 C7133 1.373 . S
C7135 C7119 1.377 1_554 S
C7135 C7133 1.389 . S
C7135 C7136 1.524 . S
C7136 C7135 1.524 . S
C7136 C7137 1.397 . S
C7136 C7141 1.363 . S
C7137 H7108 0.950 . S
C7137 C7136 1.397 . S
C7137 C7138 1.334 . S
C7138 H7109 0.950 . S
C7138 C7137 1.334 . S
C7138 C7139 1.287 . S
C7139 C7138 1.287 . S
C7139 C7140 1.524 . S
C7139 H7142 0.999 . S
C7140 H7110 0.950 . S
C7140 C7139 1.524 . S
C7140 C7141 1.415 . S
C7141 H7111 0.950 . S
C7141 C7136 1.363 . S
C7141 C7140 1.415 . S
H7142 C7139 0.999 . S
H7143 C7124 0.913 . S
H7144 C7162 0.951 . S
H7145 C7164 0.951 . S
H7146 C7166 0.950 . S
H7147 C7167 0.950 . S
H7148 C7169 0.950 . S
H7149 C7172 0.950 . S
H7150 C7173 0.950 . S
H7151 C7175 0.950 . S
H7152 C7176 0.950 . S
H7153 C7177 0.951 . S
H7154 C7179 0.951 . S
H7155 C7181 0.950 . S
H7156 C7182 0.950 . S
H7157 C7184 0.950 . S
H7158 C7187 0.950 . S
H7159 C7188 0.950 . S
H7160 C7190 0.950 . S
H7161 C7191 0.950 . S
C7162 H7144 0.951 . S
C7162 C7163 1.366 . S
C7162 C7164 1.388 . S
C7163 C7162 1.366 . S
C7163 C7167 1.385 . S
C7164 H7145 0.951 . S
C7164 C7162 1.388 . S
C7164 C7165 1.366 . S
C7165 C7164 1.366 . S
C7165 C7166 1.414 . S
C7165 C7168 1.499 . S
C7166 H7146 0.950 . S
C7166 C7165 1.414 . S
C7166 C7167 1.374 . S
C7167 H7147 0.950 . S
C7167 C7163 1.385 . S
C7167 C7166 1.374 . S
C7168 C7165 1.499 . S
C7168 C7169 1.373 . S
C7168 C7170 1.389 . S
C7169 H7148 0.950 . S
C7169 C7168 1.373 . S
C7169 C7185 1.377 1_554 S
C7170 C7168 1.389 . S
C7170 C7171 1.524 . S
C7170 C7184 1.377 1_554 S
C7171 C7170 1.524 . S
C7171 C7172 1.397 . S
C7171 C7176 1.363 . S
C7172 H7149 0.950 . S
C7172 C7171 1.397 . S
C7172 C7173 1.334 . S
C7173 H7150 0.950 . S
C7173 C7172 1.334 . S
C7173 C7174 1.287 . S
C7174 C7173 1.287 . S
C7174 C7175 1.524 . S
C7174 H7193 0.913 . S
C7175 H7151 0.950 . S
C7175 C7174 1.524 . S
C7175 C7176 1.415 . S
C7176 H7152 0.950 . S
C7176 C7171 1.363 . S
C7176 C7175 1.415 . S
C7177 H7153 0.951 . S
C7177 C7178 1.366 . S
C7177 C7179 1.388 . S
C7178 C7177 1.366 . S
C7178 C7182 1.385 . S
C7179 H7154 0.951 . S
C7179 C7177 1.388 . S
C7179 C7180 1.366 . S
C7180 C7179 1.366 . S
C7180 C7181 1.414 . S
C7180 C7183 1.499 . S
C7181 H7155 0.950 . S
C7181 C7180 1.414 . S
C7181 C7182 1.374 . S
C7182 H7156 0.950 . S
C7182 C7178 1.385 . S
C7182 C7181 1.374 . S
C7183 C7180 1.499 . S
C7183 C7184 1.373 . S
C7183 C7185 1.389 . S
C7184 H7157 0.950 . S
C7184 C7170 1.377 1_556 S
C7184 C7183 1.373 . S
C7185 C7169 1.377 1_556 S
C7185 C7183 1.389 . S
C7185 C7186 1.524 . S
C7186 C7185 1.524 . S
C7186 C7187 1.397 . S
C7186 C7191 1.363 . S
C7187 H7158 0.950 . S
C7187 C7186 1.397 . S
C7187 C7188 1.334 . S
C7188 H7159 0.950 . S
C7188 C7187 1.334 . S
C7188 C7189 1.287 . S
C7189 C7188 1.287 . S
C7189 C7190 1.524 . S
C7189 H7192 0.999 . S
C7190 H7160 0.950 . S
C7190 C7189 1.524 . S
C7190 C7191 1.415 . S
C7191 H7161 0.950 . S
C7191 C7186 1.363 . S
C7191 C7190 1.415 . S
H7192 C7189 0.999 . S
H7193 C7174 0.913 . S
H7194 C7212 0.951 . S
H7195 C7214 0.951 . S
H7196 C7216 0.950 . S
H7197 C7217 0.950 . S
H7198 C7219 0.950 . S
H7199 C7222 0.950 . S
H7200 C7223 0.950 . S
H7201 C7225 0.950 . S
H7202 C7226 0.950 . S
H7203 C7227 0.951 . S
H7204 C7229 0.951 . S
H7205 C7231 0.950 . S
H7206 C7232 0.950 . S
H7207 C7234 0.950 . S
H7208 C7237 0.950 . S
H7209 C7238 0.950 . S
H7210 C7240 0.950 . S
H7211 C7241 0.950 . S
C7212 H7194 0.951 . S
C7212 C7213 1.366 . S
C7212 C7214 1.388 . S
C7213 C7212 1.366 . S
C7213 C7217 1.385 . S
C7214 H7195 0.951 . S
C7214 C7212 1.388 . S
C7214 C7215 1.366 . S
C7215 C7214 1.366 . S
C7215 C7216 1.414 . S
C7215 C7218 1.499 . S
C7216 H7196 0.950 . S
C7216 C7215 1.414 . S
C7216 C7217 1.374 . S
C7217 H7197 0.950 . S
C7217 C7213 1.385 . S
C7217 C7216 1.374 . S
C7218 C7215 1.499 . S
C7218 C7219 1.373 . S
C7218 C7220 1.389 . S
C7219 H7198 0.950 . S
C7219 C7218 1.373 . S
C7219 C7235 1.377 1_554 S
C7220 C7218 1.389 . S
C7220 C7221 1.524 . S
C7220 C7234 1.377 1_554 S
C7221 C7220 1.524 . S
C7221 C7222 1.397 . S
C7221 C7226 1.363 . S
C7222 H7199 0.950 . S
C7222 C7221 1.397 . S
C7222 C7223 1.334 . S
C7223 H7200 0.950 . S
C7223 C7222 1.334 . S
C7223 C7224 1.287 . S
C7224 C7223 1.287 . S
C7224 C7225 1.524 . S
C7224 H7243 0.913 . S
C7225 H7201 0.950 . S
C7225 C7224 1.524 . S
C7225 C7226 1.415 . S
C7226 H7202 0.950 . S
C7226 C7221 1.363 . S
C7226 C7225 1.415 . S
C7227 H7203 0.951 . S
C7227 C7228 1.366 . S
C7227 C7229 1.388 . S
C7228 C7227 1.366 . S
C7228 C7232 1.385 . S
C7229 H7204 0.951 . S
C7229 C7227 1.388 . S
C7229 C7230 1.366 . S
C7230 C7229 1.366 . S
C7230 C7231 1.414 . S
C7230 C7233 1.499 . S
C7231 H7205 0.950 . S
C7231 C7230 1.414 . S
C7231 C7232 1.374 . S
C7232 H7206 0.950 . S
C7232 C7228 1.385 . S
C7232 C7231 1.374 . S
C7233 C7230 1.499 . S
C7233 C7234 1.373 . S
C7233 C7235 1.389 . S
C7234 H7207 0.950 . S
C7234 C7220 1.377 1_556 S
C7234 C7233 1.373 . S
C7235 C7219 1.377 1_556 S
C7235 C7233 1.389 . S
C7235 C7236 1.524 . S
C7236 C7235 1.524 . S
C7236 C7237 1.397 . S
C7236 C7241 1.363 . S
C7237 H7208 0.950 . S
C7237 C7236 1.397 . S
C7237 C7238 1.334 . S
C7238 H7209 0.950 . S
C7238 C7237 1.334 . S
C7238 C7239 1.287 . S
C7239 C7238 1.287 . S
C7239 C7240 1.524 . S
C7239 H7242 0.999 . S
C7240 H7210 0.950 . S
C7240 C7239 1.524 . S
C7240 C7241 1.415 . S
C7241 H7211 0.950 . S
C7241 C7236 1.363 . S
C7241 C7240 1.415 . S
H7242 C7239 0.999 . S
H7243 C7224 0.913 . S
H7244 C7262 0.951 . S
H7245 C7264 0.951 . S
H7246 C7266 0.950 . S
H7247 C7267 0.950 . S
H7248 C7269 0.950 . S
H7249 C7272 0.950 . S
H7250 C7273 0.950 . S
H7251 C7275 0.950 . S
H7252 C7276 0.950 . S
H7253 C7277 0.951 . S
H7254 C7279 0.951 . S
H7255 C7281 0.950 . S
H7256 C7282 0.950 . S
H7257 C7284 0.950 . S
H7258 C7287 0.950 . S
H7259 C7288 0.950 . S
H7260 C7290 0.950 . S
H7261 C7291 0.950 . S
C7262 H7244 0.951 . S
C7262 C7263 1.366 . S
C7262 C7264 1.388 . S
C7263 C7262 1.366 . S
C7263 C7267 1.385 . S
C7264 H7245 0.951 . S
C7264 C7262 1.388 . S
C7264 C7265 1.366 . S
C7265 C7264 1.366 . S
C7265 C7266 1.414 . S
C7265 C7268 1.499 . S
C7266 H7246 0.950 . S
C7266 C7265 1.414 . S
C7266 C7267 1.374 . S
C7267 H7247 0.950 . S
C7267 C7263 1.385 . S
C7267 C7266 1.374 . S
C7268 C7265 1.499 . S
C7268 C7269 1.373 . S
C7268 C7270 1.389 . S
C7269 H7248 0.950 . S
C7269 C7268 1.373 . S
C7269 C7285 1.377 1_554 S
C7270 C7268 1.389 . S
C7270 C7271 1.524 . S
C7270 C7284 1.377 1_554 S
C7271 C7270 1.524 . S
C7271 C7272 1.397 . S
C7271 C7276 1.363 . S
C7272 H7249 0.950 . S
C7272 C7271 1.397 . S
C7272 C7273 1.334 . S
C7273 H7250 0.950 . S
C7273 C7272 1.334 . S
C7273 C7274 1.287 . S
C7274 C7273 1.287 . S
C7274 C7275 1.524 . S
C7274 H7293 0.913 . S
C7275 H7251 0.950 . S
C7275 C7274 1.524 . S
C7275 C7276 1.415 . S
C7276 H7252 0.950 . S
C7276 C7271 1.363 . S
C7276 C7275 1.415 . S
C7277 H7253 0.951 . S
C7277 C7278 1.366 . S
C7277 C7279 1.388 . S
C7278 C7277 1.366 . S
C7278 C7282 1.385 . S
C7279 H7254 0.951 . S
C7279 C7277 1.388 . S
C7279 C7280 1.366 . S
C7280 C7279 1.366 . S
C7280 C7281 1.414 . S
C7280 C7283 1.499 . S
C7281 H7255 0.950 . S
C7281 C7280 1.414 . S
C7281 C7282 1.374 . S
C7282 H7256 0.950 . S
C7282 C7278 1.385 . S
C7282 C7281 1.374 . S
C7283 C7280 1.499 . S
C7283 C7284 1.373 . S
C7283 C7285 1.389 . S
C7284 H7257 0.950 . S
C7284 C7270 1.377 1_556 S
C7284 C7283 1.373 . S
C7285 C7269 1.377 1_556 S
C7285 C7283 1.389 . S
C7285 C7286 1.524 . S
C7286 C7285 1.524 . S
C7286 C7287 1.397 . S
C7286 C7291 1.363 . S
C7287 H7258 0.950 . S
C7287 C7286 1.397 . S
C7287 C7288 1.334 . S
C7288 H7259 0.950 . S
C7288 C7287 1.334 . S
C7288 C7289 1.287 . S
C7289 C7288 1.287 . S
C7289 C7290 1.524 . S
C7289 H7292 0.999 . S
C7290 H7260 0.950 . S
C7290 C7289 1.524 . S
C7290 C7291 1.415 . S
C7291 H7261 0.950 . S
C7291 C7286 1.363 . S
C7291 C7290 1.415 . S
H7292 C7289 0.999 . S
H7293 C7274 0.913 . S
H7294 C7312 0.951 . S
H7295 C7314 0.951 . S
H7296 C7316 0.950 . S
H7297 C7317 0.950 . S
H7298 C7319 0.950 . S
H7299 C7322 0.950 . S
H7300 C7323 0.950 . S
H7301 C7325 0.950 . S
H7302 C7326 0.950 . S
H7303 C7327 0.951 . S
H7304 C7329 0.951 . S
H7305 C7331 0.950 . S
H7306 C7332 0.950 . S
H7307 C7334 0.950 . S
H7308 C7337 0.950 . S
H7309 C7338 0.950 . S
H7310 C7340 0.950 . S
H7311 C7341 0.950 . S
C7312 H7294 0.951 . S
C7312 C7313 1.366 . S
C7312 C7314 1.388 . S
C7313 C7312 1.366 . S
C7313 C7317 1.385 . S
C7314 H7295 0.951 . S
C7314 C7312 1.388 . S
C7314 C7315 1.366 . S
C7315 C7314 1.366 . S
C7315 C7316 1.414 . S
C7315 C7318 1.499 . S
C7316 H7296 0.950 . S
C7316 C7315 1.414 . S
C7316 C7317 1.374 . S
C7317 H7297 0.950 . S
C7317 C7313 1.385 . S
C7317 C7316 1.374 . S
C7318 C7315 1.499 . S
C7318 C7319 1.373 . S
C7318 C7320 1.389 . S
C7319 H7298 0.950 . S
C7319 C7318 1.373 . S
C7319 C7335 1.377 1_556 S
C7320 C7318 1.389 . S
C7320 C7321 1.524 . S
C7320 C7334 1.377 1_556 S
C7321 C7320 1.524 . S
C7321 C7322 1.397 . S
C7321 C7326 1.363 . S
C7322 H7299 0.950 . S
C7322 C7321 1.397 . S
C7322 C7323 1.334 . S
C7323 H7300 0.950 . S
C7323 C7322 1.334 . S
C7323 C7324 1.287 . S
C7324 C7323 1.287 . S
C7324 C7325 1.524 . S
C7324 H7343 0.913 . S
C7325 H7301 0.950 . S
C7325 C7324 1.524 . S
C7325 C7326 1.415 . S
C7326 H7302 0.950 . S
C7326 C7321 1.363 . S
C7326 C7325 1.415 . S
C7327 H7303 0.951 . S
C7327 C7328 1.366 . S
C7327 C7329 1.388 . S
C7328 C7327 1.366 . S
C7328 C7332 1.385 . S
C7329 H7304 0.951 . S
C7329 C7327 1.388 . S
C7329 C7330 1.366 . S
C7330 C7329 1.366 . S
C7330 C7331 1.414 . S
C7330 C7333 1.499 . S
C7331 H7305 0.950 . S
C7331 C7330 1.414 . S
C7331 C7332 1.374 . S
C7332 H7306 0.950 . S
C7332 C7328 1.385 . S
C7332 C7331 1.374 . S
C7333 C7330 1.499 . S
C7333 C7334 1.373 . S
C7333 C7335 1.389 . S
C7334 H7307 0.950 . S
C7334 C7320 1.377 1_554 S
C7334 C7333 1.373 . S
C7335 C7319 1.377 1_554 S
C7335 C7333 1.389 . S
C7335 C7336 1.524 . S
C7336 C7335 1.524 . S
C7336 C7337 1.397 . S
C7336 C7341 1.363 . S
C7337 H7308 0.950 . S
C7337 C7336 1.397 . S
C7337 C7338 1.334 . S
C7338 H7309 0.950 . S
C7338 C7337 1.334 . S
C7338 C7339 1.287 . S
C7339 C7338 1.287 . S
C7339 C7340 1.524 . S
C7339 H7342 0.999 . S
C7340 H7310 0.950 . S
C7340 C7339 1.524 . S
C7340 C7341 1.415 . S
C7341 H7311 0.950 . S
C7341 C7336 1.363 . S
C7341 C7340 1.415 . S
H7342 C7339 0.999 . S
H7343 C7324 0.913 . S
H7344 C7362 0.951 . S
H7345 C7364 0.951 . S
H7346 C7366 0.950 . S
H7347 C7367 0.950 . S
H7348 C7369 0.950 . S
H7349 C7372 0.950 . S
H7350 C7373 0.950 . S
H7351 C7375 0.950 . S
H7352 C7376 0.950 . S
H7353 C7377 0.951 . S
H7354 C7379 0.951 . S
H7355 C7381 0.950 . S
H7356 C7382 0.950 . S
H7357 C7384 0.950 . S
H7358 C7387 0.950 . S
H7359 C7388 0.950 . S
H7360 C7390 0.950 . S
H7361 C7391 0.950 . S
C7362 H7344 0.951 . S
C7362 C7363 1.366 . S
C7362 C7364 1.388 . S
C7363 C7362 1.366 . S
C7363 C7367 1.385 . S
C7364 H7345 0.951 . S
C7364 C7362 1.388 . S
C7364 C7365 1.366 . S
C7365 C7364 1.366 . S
C7365 C7366 1.414 . S
C7365 C7368 1.499 . S
C7366 H7346 0.950 . S
C7366 C7365 1.414 . S
C7366 C7367 1.374 . S
C7367 H7347 0.950 . S
C7367 C7363 1.385 . S
C7367 C7366 1.374 . S
C7368 C7365 1.499 . S
C7368 C7369 1.373 . S
C7368 C7370 1.389 . S
C7369 H7348 0.950 . S
C7369 C7368 1.373 . S
C7369 C7385 1.377 . S
C7370 C7368 1.389 . S
C7370 C7371 1.524 . S
C7370 C7384 1.377 . S
C7371 C7370 1.524 . S
C7371 C7372 1.397 . S
C7371 C7376 1.363 . S
C7372 H7349 0.950 . S
C7372 C7371 1.397 . S
C7372 C7373 1.334 . S
C7373 H7350 0.950 . S
C7373 C7372 1.334 . S
C7373 C7374 1.287 . S
C7374 C7373 1.287 . S
C7374 C7375 1.524 . S
C7374 H7393 0.913 . S
C7375 H7351 0.950 . S
C7375 C7374 1.524 . S
C7375 C7376 1.415 . S
C7376 H7352 0.950 . S
C7376 C7371 1.363 . S
C7376 C7375 1.415 . S
C7377 H7353 0.951 . S
C7377 C7378 1.366 . S
C7377 C7379 1.388 . S
C7378 C7377 1.366 . S
C7378 C7382 1.385 . S
C7379 H7354 0.951 . S
C7379 C7377 1.388 . S
C7379 C7380 1.366 . S
C7380 C7379 1.366 . S
C7380 C7381 1.414 . S
C7380 C7383 1.499 . S
C7381 H7355 0.950 . S
C7381 C7380 1.414 . S
C7381 C7382 1.374 . S
C7382 H7356 0.950 . S
C7382 C7378 1.385 . S
C7382 C7381 1.374 . S
C7383 C7380 1.499 . S
C7383 C7384 1.373 . S
C7383 C7385 1.389 . S
C7384 H7357 0.950 . S
C7384 C7370 1.377 . S
C7384 C7383 1.373 . S
C7385 C7369 1.377 . S
C7385 C7383 1.389 . S
C7385 C7386 1.524 . S
C7386 C7385 1.524 . S
C7386 C7387 1.397 . S
C7386 C7391 1.363 . S
C7387 H7358 0.950 . S
C7387 C7386 1.397 . S
C7387 C7388 1.334 . S
C7388 H7359 0.950 . S
C7388 C7387 1.334 . S
C7388 C7389 1.287 . S
C7389 C7388 1.287 . S
C7389 C7390 1.524 . S
C7389 H7392 0.999 . S
C7390 H7360 0.950 . S
C7390 C7389 1.524 . S
C7390 C7391 1.415 . S
C7391 H7361 0.950 . S
C7391 C7386 1.363 . S
C7391 C7390 1.415 . S
H7392 C7389 0.999 . S
H7393 C7374 0.913 . S
H7394 C7412 0.951 . S
H7395 C7414 0.951 . S
H7396 C7416 0.950 . S
H7397 C7417 0.950 . S
H7398 C7419 0.950 . S
H7399 C7422 0.950 . S
H7400 C7423 0.950 . S
H7401 C7425 0.950 . S
H7402 C7426 0.950 . S
H7403 C7427 0.951 . S
H7404 C7429 0.951 . S
H7405 C7431 0.950 . S
H7406 C7432 0.950 . S
H7407 C7434 0.950 . S
H7408 C7437 0.950 . S
H7409 C7438 0.950 . S
H7410 C7440 0.950 . S
H7411 C7441 0.950 . S
C7412 H7394 0.951 . S
C7412 C7413 1.366 . S
C7412 C7414 1.388 . S
C7413 C7412 1.366 . S
C7413 C7417 1.385 . S
C7414 H7395 0.951 . S
C7414 C7412 1.388 . S
C7414 C7415 1.366 . S
C7415 C7414 1.366 . S
C7415 C7416 1.414 . S
C7415 C7418 1.499 . S
C7416 H7396 0.950 . S
C7416 C7415 1.414 . S
C7416 C7417 1.374 . S
C7417 H7397 0.950 . S
C7417 C7413 1.385 . S
C7417 C7416 1.374 . S
C7418 C7415 1.499 . S
C7418 C7419 1.373 . S
C7418 C7420 1.389 . S
C7419 H7398 0.950 . S
C7419 C7418 1.373 . S
C7419 C7435 1.377 . S
C7420 C7418 1.389 . S
C7420 C7421 1.524 . S
C7420 C7434 1.377 . S
C7421 C7420 1.524 . S
C7421 C7422 1.397 . S
C7421 C7426 1.363 . S
C7422 H7399 0.950 . S
C7422 C7421 1.397 . S
C7422 C7423 1.334 . S
C7423 H7400 0.950 . S
C7423 C7422 1.334 . S
C7423 C7424 1.287 . S
C7424 C7423 1.287 . S
C7424 C7425 1.524 . S
C7424 H7443 0.913 . S
C7425 H7401 0.950 . S
C7425 C7424 1.524 . S
C7425 C7426 1.415 . S
C7426 H7402 0.950 . S
C7426 C7421 1.363 . S
C7426 C7425 1.415 . S
C7427 H7403 0.951 . S
C7427 C7428 1.366 . S
C7427 C7429 1.388 . S
C7428 C7427 1.366 . S
C7428 C7432 1.385 . S
C7429 H7404 0.951 . S
C7429 C7427 1.388 . S
C7429 C7430 1.366 . S
C7430 C7429 1.366 . S
C7430 C7431 1.414 . S
C7430 C7433 1.499 . S
C7431 H7405 0.950 . S
C7431 C7430 1.414 . S
C7431 C7432 1.374 . S
C7432 H7406 0.950 . S
C7432 C7428 1.385 . S
C7432 C7431 1.374 . S
C7433 C7430 1.499 . S
C7433 C7434 1.373 . S
C7433 C7435 1.389 . S
C7434 H7407 0.950 . S
C7434 C7420 1.377 . S
C7434 C7433 1.373 . S
C7435 C7419 1.377 . S
C7435 C7433 1.389 . S
C7435 C7436 1.524 . S
C7436 C7435 1.524 . S
C7436 C7437 1.397 . S
C7436 C7441 1.363 . S
C7437 H7408 0.950 . S
C7437 C7436 1.397 . S
C7437 C7438 1.334 . S
C7438 H7409 0.950 . S
C7438 C7437 1.334 . S
C7438 C7439 1.287 . S
C7439 C7438 1.287 . S
C7439 C7440 1.524 . S
C7439 H7442 0.999 . S
C7440 H7410 0.950 . S
C7440 C7439 1.524 . S
C7440 C7441 1.415 . S
C7441 H7411 0.950 . S
C7441 C7436 1.363 . S
C7441 C7440 1.415 . S
H7442 C7439 0.999 . S
H7443 C7424 0.913 . S
H7444 C7462 0.951 . S
H7445 C7464 0.951 . S
H7446 C7466 0.950 . S
H7447 C7467 0.950 . S
H7448 C7469 0.950 . S
H7449 C7472 0.950 . S
H7450 C7473 0.950 . S
H7451 C7475 0.950 . S
H7452 C7476 0.950 . S
H7453 C7477 0.951 . S
H7454 C7479 0.951 . S
H7455 C7481 0.950 . S
H7456 C7482 0.950 . S
H7457 C7484 0.950 . S
H7458 C7487 0.950 . S
H7459 C7488 0.950 . S
H7460 C7490 0.950 . S
H7461 C7491 0.950 . S
C7462 H7444 0.951 . S
C7462 C7463 1.366 . S
C7462 C7464 1.388 . S
C7463 C7462 1.366 . S
C7463 C7467 1.385 . S
C7464 H7445 0.951 . S
C7464 C7462 1.388 . S
C7464 C7465 1.366 . S
C7465 C7464 1.366 . S
C7465 C7466 1.414 . S
C7465 C7468 1.499 . S
C7466 H7446 0.950 . S
C7466 C7465 1.414 . S
C7466 C7467 1.374 . S
C7467 H7447 0.950 . S
C7467 C7463 1.385 . S
C7467 C7466 1.374 . S
C7468 C7465 1.499 . S
C7468 C7469 1.373 . S
C7468 C7470 1.389 . S
C7469 H7448 0.950 . S
C7469 C7468 1.373 . S
C7469 C7485 1.377 . S
C7470 C7468 1.389 . S
C7470 C7471 1.524 . S
C7470 C7484 1.377 . S
C7471 C7470 1.524 . S
C7471 C7472 1.397 . S
C7471 C7476 1.363 . S
C7472 H7449 0.950 . S
C7472 C7471 1.397 . S
C7472 C7473 1.334 . S
C7473 H7450 0.950 . S
C7473 C7472 1.334 . S
C7473 C7474 1.287 . S
C7474 C7473 1.287 . S
C7474 C7475 1.524 . S
C7474 H7493 0.913 . S
C7475 H7451 0.950 . S
C7475 C7474 1.524 . S
C7475 C7476 1.415 . S
C7476 H7452 0.950 . S
C7476 C7471 1.363 . S
C7476 C7475 1.415 . S
C7477 H7453 0.951 . S
C7477 C7478 1.366 . S
C7477 C7479 1.388 . S
C7478 C7477 1.366 . S
C7478 C7482 1.385 . S
C7479 H7454 0.951 . S
C7479 C7477 1.388 . S
C7479 C7480 1.366 . S
C7480 C7479 1.366 . S
C7480 C7481 1.414 . S
C7480 C7483 1.499 . S
C7481 H7455 0.950 . S
C7481 C7480 1.414 . S
C7481 C7482 1.374 . S
C7482 H7456 0.950 . S
C7482 C7478 1.385 . S
C7482 C7481 1.374 . S
C7483 C7480 1.499 . S
C7483 C7484 1.373 . S
C7483 C7485 1.389 . S
C7484 H7457 0.950 . S
C7484 C7470 1.377 . S
C7484 C7483 1.373 . S
C7485 C7469 1.377 . S
C7485 C7483 1.389 . S
C7485 C7486 1.524 . S
C7486 C7485 1.524 . S
C7486 C7487 1.397 . S
C7486 C7491 1.363 . S
C7487 H7458 0.950 . S
C7487 C7486 1.397 . S
C7487 C7488 1.334 . S
C7488 H7459 0.950 . S
C7488 C7487 1.334 . S
C7488 C7489 1.287 . S
C7489 C7488 1.287 . S
C7489 C7490 1.524 . S
C7489 H7492 0.999 . S
C7490 H7460 0.950 . S
C7490 C7489 1.524 . S
C7490 C7491 1.415 . S
C7491 H7461 0.950 . S
C7491 C7486 1.363 . S
C7491 C7490 1.415 . S
H7492 C7489 0.999 . S
H7493 C7474 0.913 . S
H7494 C7512 0.951 . S
H7495 C7514 0.951 . S
H7496 C7516 0.950 . S
H7497 C7517 0.950 . S
H7498 C7519 0.950 . S
H7499 C7522 0.950 . S
H7500 C7523 0.950 . S
H7501 C7525 0.950 . S
H7502 C7526 0.950 . S
H7503 C7527 0.951 . S
H7504 C7529 0.951 . S
H7505 C7531 0.950 . S
H7506 C7532 0.950 . S
H7507 C7534 0.950 . S
H7508 C7537 0.950 . S
H7509 C7538 0.950 . S
H7510 C7540 0.950 . S
H7511 C7541 0.950 . S
C7512 H7494 0.951 . S
C7512 C7513 1.366 . S
C7512 C7514 1.388 . S
C7513 C7512 1.366 . S
C7513 C7517 1.385 . S
C7514 H7495 0.951 . S
C7514 C7512 1.388 . S
C7514 C7515 1.366 . S
C7515 C7514 1.366 . S
C7515 C7516 1.414 . S
C7515 C7518 1.499 . S
C7516 H7496 0.950 . S
C7516 C7515 1.414 . S
C7516 C7517 1.374 . S
C7517 H7497 0.950 . S
C7517 C7513 1.385 . S
C7517 C7516 1.374 . S
C7518 C7515 1.499 . S
C7518 C7519 1.373 . S
C7518 C7520 1.389 . S
C7519 H7498 0.950 . S
C7519 C7518 1.373 . S
C7519 C7535 1.377 . S
C7520 C7518 1.389 . S
C7520 C7521 1.524 . S
C7520 C7534 1.377 . S
C7521 C7520 1.524 . S
C7521 C7522 1.397 . S
C7521 C7526 1.363 . S
C7522 H7499 0.950 . S
C7522 C7521 1.397 . S
C7522 C7523 1.334 . S
C7523 H7500 0.950 . S
C7523 C7522 1.334 . S
C7523 C7524 1.287 . S
C7524 C7523 1.287 . S
C7524 C7525 1.524 . S
C7524 H7543 0.913 . S
C7525 H7501 0.950 . S
C7525 C7524 1.524 . S
C7525 C7526 1.415 . S
C7526 H7502 0.950 . S
C7526 C7521 1.363 . S
C7526 C7525 1.415 . S
C7527 H7503 0.951 . S
C7527 C7528 1.366 . S
C7527 C7529 1.388 . S
C7528 C7527 1.366 . S
C7528 C7532 1.385 . S
C7529 H7504 0.951 . S
C7529 C7527 1.388 . S
C7529 C7530 1.366 . S
C7530 C7529 1.366 . S
C7530 C7531 1.414 . S
C7530 C7533 1.499 . S
C7531 H7505 0.950 . S
C7531 C7530 1.414 . S
C7531 C7532 1.374 . S
C7532 H7506 0.950 . S
C7532 C7528 1.385 . S
C7532 C7531 1.374 . S
C7533 C7530 1.499 . S
C7533 C7534 1.373 . S
C7533 C7535 1.389 . S
C7534 H7507 0.950 . S
C7534 C7520 1.377 . S
C7534 C7533 1.373 . S
C7535 C7519 1.377 . S
C7535 C7533 1.389 . S
C7535 C7536 1.524 . S
C7536 C7535 1.524 . S
C7536 C7537 1.397 . S
C7536 C7541 1.363 . S
C7537 H7508 0.950 . S
C7537 C7536 1.397 . S
C7537 C7538 1.334 . S
C7538 H7509 0.950 . S
C7538 C7537 1.334 . S
C7538 C7539 1.287 . S
C7539 C7538 1.287 . S
C7539 C7540 1.524 . S
C7539 H7542 0.999 . S
C7540 H7510 0.950 . S
C7540 C7539 1.524 . S
C7540 C7541 1.415 . S
C7541 H7511 0.950 . S
C7541 C7536 1.363 . S
C7541 C7540 1.415 . S
H7542 C7539 0.999 . S
H7543 C7524 0.913 . S
H7544 C7562 0.951 . S
H7545 C7564 0.951 . S
H7546 C7566 0.950 . S
H7547 C7567 0.950 . S
H7548 C7569 0.950 . S
H7549 C7572 0.950 . S
H7550 C7573 0.950 . S
H7551 C7575 0.950 . S
H7552 C7576 0.950 . S
H7553 C7577 0.951 . S
H7554 C7579 0.951 . S
H7555 C7581 0.950 . S
H7556 C7582 0.950 . S
H7557 C7584 0.950 . S
H7558 C7587 0.950 . S
H7559 C7588 0.950 . S
H7560 C7590 0.950 . S
H7561 C7591 0.950 . S
C7562 H7544 0.951 . S
C7562 C7563 1.366 . S
C7562 C7564 1.388 . S
C7563 C7562 1.366 . S
C7563 C7567 1.385 . S
C7564 H7545 0.951 . S
C7564 C7562 1.388 . S
C7564 C7565 1.366 . S
C7565 C7564 1.366 . S
C7565 C7566 1.414 . S
C7565 C7568 1.499 . S
C7566 H7546 0.950 . S
C7566 C7565 1.414 . S
C7566 C7567 1.374 . S
C7567 H7547 0.950 . S
C7567 C7563 1.385 . S
C7567 C7566 1.374 . S
C7568 C7565 1.499 . S
C7568 C7569 1.373 . S
C7568 C7570 1.389 . S
C7569 H7548 0.950 . S
C7569 C7568 1.373 . S
C7569 C7585 1.377 . S
C7570 C7568 1.389 . S
C7570 C7571 1.524 . S
C7570 C7584 1.377 . S
C7571 C7570 1.524 . S
C7571 C7572 1.397 . S
C7571 C7576 1.363 . S
C7572 H7549 0.950 . S
C7572 C7571 1.397 . S
C7572 C7573 1.334 . S
C7573 H7550 0.950 . S
C7573 C7572 1.334 . S
C7573 C7574 1.287 . S
C7574 C7573 1.287 . S
C7574 C7575 1.524 . S
C7574 H7593 0.913 . S
C7575 H7551 0.950 . S
C7575 C7574 1.524 . S
C7575 C7576 1.415 . S
C7576 H7552 0.950 . S
C7576 C7571 1.363 . S
C7576 C7575 1.415 . S
C7577 H7553 0.951 . S
C7577 C7578 1.366 . S
C7577 C7579 1.388 . S
C7578 C7577 1.366 . S
C7578 C7582 1.385 . S
C7579 H7554 0.951 . S
C7579 C7577 1.388 . S
C7579 C7580 1.366 . S
C7580 C7579 1.366 . S
C7580 C7581 1.414 . S
C7580 C7583 1.499 . S
C7581 H7555 0.950 . S
C7581 C7580 1.414 . S
C7581 C7582 1.374 . S
C7582 H7556 0.950 . S
C7582 C7578 1.385 . S
C7582 C7581 1.374 . S
C7583 C7580 1.499 . S
C7583 C7584 1.373 . S
C7583 C7585 1.389 . S
C7584 H7557 0.950 . S
C7584 C7570 1.377 . S
C7584 C7583 1.373 . S
C7585 C7569 1.377 . S
C7585 C7583 1.389 . S
C7585 C7586 1.524 . S
C7586 C7585 1.524 . S
C7586 C7587 1.397 . S
C7586 C7591 1.363 . S
C7587 H7558 0.950 . S
C7587 C7586 1.397 . S
C7587 C7588 1.334 . S
C7588 H7559 0.950 . S
C7588 C7587 1.334 . S
C7588 C7589 1.287 . S
C7589 C7588 1.287 . S
C7589 C7590 1.524 . S
C7589 H7592 0.999 . S
C7590 H7560 0.950 . S
C7590 C7589 1.524 . S
C7590 C7591 1.415 . S
C7591 H7561 0.950 . S
C7591 C7586 1.363 . S
C7591 C7590 1.415 . S
H7592 C7589 0.999 . S
H7593 C7574 0.913 . S
H7594 C7612 0.951 . S
H7595 C7614 0.951 . S
H7596 C7616 0.950 . S
H7597 C7617 0.950 . S
H7598 C7619 0.950 . S
H7599 C7622 0.950 . S
H7600 C7623 0.950 . S
H7601 C7625 0.950 . S
H7602 C7626 0.950 . S
H7603 C7627 0.951 . S
H7604 C7629 0.951 . S
H7605 C7631 0.950 . S
H7606 C7632 0.950 . S
H7607 C7634 0.950 . S
H7608 C7637 0.950 . S
H7609 C7638 0.950 . S
H7610 C7640 0.950 . S
H7611 C7641 0.950 . S
C7612 H7594 0.951 . S
C7612 C7613 1.366 . S
C7612 C7614 1.388 . S
C7613 C7612 1.366 . S
C7613 C7617 1.385 . S
C7614 H7595 0.951 . S
C7614 C7612 1.388 . S
C7614 C7615 1.366 . S
C7615 C7614 1.366 . S
C7615 C7616 1.414 . S
C7615 C7618 1.499 . S
C7616 H7596 0.950 . S
C7616 C7615 1.414 . S
C7616 C7617 1.374 . S
C7617 H7597 0.950 . S
C7617 C7613 1.385 . S
C7617 C7616 1.374 . S
C7618 C7615 1.499 . S
C7618 C7619 1.373 . S
C7618 C7620 1.389 . S
C7619 H7598 0.950 . S
C7619 C7618 1.373 . S
C7619 C7635 1.377 . S
C7620 C7618 1.389 . S
C7620 C7621 1.524 . S
C7620 C7634 1.377 . S
C7621 C7620 1.524 . S
C7621 C7622 1.397 . S
C7621 C7626 1.363 . S
C7622 H7599 0.950 . S
C7622 C7621 1.397 . S
C7622 C7623 1.334 . S
C7623 H7600 0.950 . S
C7623 C7622 1.334 . S
C7623 C7624 1.287 . S
C7624 C7623 1.287 . S
C7624 C7625 1.524 . S
C7624 H7643 0.913 . S
C7625 H7601 0.950 . S
C7625 C7624 1.524 . S
C7625 C7626 1.415 . S
C7626 H7602 0.950 . S
C7626 C7621 1.363 . S
C7626 C7625 1.415 . S
C7627 H7603 0.951 . S
C7627 C7628 1.366 . S
C7627 C7629 1.388 . S
C7628 C7627 1.366 . S
C7628 C7632 1.385 . S
C7629 H7604 0.951 . S
C7629 C7627 1.388 . S
C7629 C7630 1.366 . S
C7630 C7629 1.366 . S
C7630 C7631 1.414 . S
C7630 C7633 1.499 . S
C7631 H7605 0.950 . S
C7631 C7630 1.414 . S
C7631 C7632 1.374 . S
C7632 H7606 0.950 . S
C7632 C7628 1.385 . S
C7632 C7631 1.374 . S
C7633 C7630 1.499 . S
C7633 C7634 1.373 . S
C7633 C7635 1.389 . S
C7634 H7607 0.950 . S
C7634 C7620 1.377 . S
C7634 C7633 1.373 . S
C7635 C7619 1.377 . S
C7635 C7633 1.389 . S
C7635 C7636 1.524 . S
C7636 C7635 1.524 . S
C7636 C7637 1.397 . S
C7636 C7641 1.363 . S
C7637 H7608 0.950 . S
C7637 C7636 1.397 . S
C7637 C7638 1.334 . S
C7638 H7609 0.950 . S
C7638 C7637 1.334 . S
C7638 C7639 1.287 . S
C7639 C7638 1.287 . S
C7639 C7640 1.524 . S
C7639 H7642 0.999 . S
C7640 H7610 0.950 . S
C7640 C7639 1.524 . S
C7640 C7641 1.415 . S
C7641 H7611 0.950 . S
C7641 C7636 1.363 . S
C7641 C7640 1.415 . S
H7642 C7639 0.999 . S
H7643 C7624 0.913 . S
H7644 C7662 0.951 . S
H7645 C7664 0.951 . S
H7646 C7666 0.950 . S
H7647 C7667 0.950 . S
H7648 C7669 0.950 . S
H7649 C7672 0.950 . S
H7650 C7673 0.950 . S
H7651 C7675 0.950 . S
H7652 C7676 0.950 . S
H7653 C7677 0.951 . S
H7654 C7679 0.951 . S
H7655 C7681 0.950 . S
H7656 C7682 0.950 . S
H7657 C7684 0.950 . S
H7658 C7687 0.950 . S
H7659 C7688 0.950 . S
H7660 C7690 0.950 . S
H7661 C7691 0.950 . S
C7662 H7644 0.951 . S
C7662 C7663 1.366 . S
C7662 C7664 1.388 . S
C7663 C7662 1.366 . S
C7663 C7667 1.385 . S
C7664 H7645 0.951 . S
C7664 C7662 1.388 . S
C7664 C7665 1.366 . S
C7665 C7664 1.366 . S
C7665 C7666 1.414 . S
C7665 C7668 1.499 . S
C7666 H7646 0.950 . S
C7666 C7665 1.414 . S
C7666 C7667 1.374 . S
C7667 H7647 0.950 . S
C7667 C7663 1.385 . S
C7667 C7666 1.374 . S
C7668 C7665 1.499 . S
C7668 C7669 1.373 . S
C7668 C7670 1.389 . S
C7669 H7648 0.950 . S
C7669 C7668 1.373 . S
C7669 C7685 1.377 . S
C7670 C7668 1.389 . S
C7670 C7671 1.524 . S
C7670 C7684 1.377 . S
C7671 C7670 1.524 . S
C7671 C7672 1.397 . S
C7671 C7676 1.363 . S
C7672 H7649 0.950 . S
C7672 C7671 1.397 . S
C7672 C7673 1.334 . S
C7673 H7650 0.950 . S
C7673 C7672 1.334 . S
C7673 C7674 1.287 . S
C7674 C7673 1.287 . S
C7674 C7675 1.524 . S
C7674 H7693 0.913 . S
C7675 H7651 0.950 . S
C7675 C7674 1.524 . S
C7675 C7676 1.415 . S
C7676 H7652 0.950 . S
C7676 C7671 1.363 . S
C7676 C7675 1.415 . S
C7677 H7653 0.951 . S
C7677 C7678 1.366 . S
C7677 C7679 1.388 . S
C7678 C7677 1.366 . S
C7678 C7682 1.385 . S
C7679 H7654 0.951 . S
C7679 C7677 1.388 . S
C7679 C7680 1.366 . S
C7680 C7679 1.366 . S
C7680 C7681 1.414 . S
C7680 C7683 1.499 . S
C7681 H7655 0.950 . S
C7681 C7680 1.414 . S
C7681 C7682 1.374 . S
C7682 H7656 0.950 . S
C7682 C7678 1.385 . S
C7682 C7681 1.374 . S
C7683 C7680 1.499 . S
C7683 C7684 1.373 . S
C7683 C7685 1.389 . S
C7684 H7657 0.950 . S
C7684 C7670 1.377 . S
C7684 C7683 1.373 . S
C7685 C7669 1.377 . S
C7685 C7683 1.389 . S
C7685 C7686 1.524 . S
C7686 C7685 1.524 . S
C7686 C7687 1.397 . S
C7686 C7691 1.363 . S
C7687 H7658 0.950 . S
C7687 C7686 1.397 . S
C7687 C7688 1.334 . S
C7688 H7659 0.950 . S
C7688 C7687 1.334 . S
C7688 C7689 1.287 . S
C7689 C7688 1.287 . S
C7689 C7690 1.524 . S
C7689 H7692 0.999 . S
C7690 H7660 0.950 . S
C7690 C7689 1.524 . S
C7690 C7691 1.415 . S
C7691 H7661 0.950 . S
C7691 C7686 1.363 . S
C7691 C7690 1.415 . S
H7692 C7689 0.999 . S
H7693 C7674 0.913 . S
H7694 C7712 0.951 . S
H7695 C7714 0.951 . S
H7696 C7716 0.950 . S
H7697 C7717 0.950 . S
H7698 C7719 0.950 . S
H7699 C7722 0.950 . S
H7700 C7723 0.950 . S
H7701 C7725 0.950 . S
H7702 C7726 0.950 . S
H7703 C7727 0.951 . S
H7704 C7729 0.951 . S
H7705 C7731 0.950 . S
H7706 C7732 0.950 . S
H7707 C7734 0.950 . S
H7708 C7737 0.950 . S
H7709 C7738 0.950 . S
H7710 C7740 0.950 . S
H7711 C7741 0.950 . S
C7712 H7694 0.951 . S
C7712 C7713 1.366 . S
C7712 C7714 1.388 . S
C7713 C7712 1.366 . S
C7713 C7717 1.385 . S
C7714 H7695 0.951 . S
C7714 C7712 1.388 . S
C7714 C7715 1.366 . S
C7715 C7714 1.366 . S
C7715 C7716 1.414 . S
C7715 C7718 1.499 . S
C7716 H7696 0.950 . S
C7716 C7715 1.414 . S
C7716 C7717 1.374 . S
C7717 H7697 0.950 . S
C7717 C7713 1.385 . S
C7717 C7716 1.374 . S
C7718 C7715 1.499 . S
C7718 C7719 1.373 . S
C7718 C7720 1.389 . S
C7719 H7698 0.950 . S
C7719 C7718 1.373 . S
C7719 C7735 1.377 . S
C7720 C7718 1.389 . S
C7720 C7721 1.524 . S
C7720 C7734 1.377 . S
C7721 C7720 1.524 . S
C7721 C7722 1.397 . S
C7721 C7726 1.363 . S
C7722 H7699 0.950 . S
C7722 C7721 1.397 . S
C7722 C7723 1.334 . S
C7723 H7700 0.950 . S
C7723 C7722 1.334 . S
C7723 C7724 1.287 . S
C7724 C7723 1.287 . S
C7724 C7725 1.524 . S
C7724 H7743 0.913 . S
C7725 H7701 0.950 . S
C7725 C7724 1.524 . S
C7725 C7726 1.415 . S
C7726 H7702 0.950 . S
C7726 C7721 1.363 . S
C7726 C7725 1.415 . S
C7727 H7703 0.951 . S
C7727 C7728 1.366 . S
C7727 C7729 1.388 . S
C7728 C7727 1.366 . S
C7728 C7732 1.385 . S
C7729 H7704 0.951 . S
C7729 C7727 1.388 . S
C7729 C7730 1.366 . S
C7730 C7729 1.366 . S
C7730 C7731 1.414 . S
C7730 C7733 1.499 . S
C7731 H7705 0.950 . S
C7731 C7730 1.414 . S
C7731 C7732 1.374 . S
C7732 H7706 0.950 . S
C7732 C7728 1.385 . S
C7732 C7731 1.374 . S
C7733 C7730 1.499 . S
C7733 C7734 1.373 . S
C7733 C7735 1.389 . S
C7734 H7707 0.950 . S
C7734 C7720 1.377 . S
C7734 C7733 1.373 . S
C7735 C7719 1.377 . S
C7735 C7733 1.389 . S
C7735 C7736 1.524 . S
C7736 C7735 1.524 . S
C7736 C7737 1.397 . S
C7736 C7741 1.363 . S
C7737 H7708 0.950 . S
C7737 C7736 1.397 . S
C7737 C7738 1.334 . S
C7738 H7709 0.950 . S
C7738 C7737 1.334 . S
C7738 C7739 1.287 . S
C7739 C7738 1.287 . S
C7739 C7740 1.524 . S
C7739 H7742 0.999 . S
C7740 H7710 0.950 . S
C7740 C7739 1.524 . S
C7740 C7741 1.415 . S
C7741 H7711 0.950 . S
C7741 C7736 1.363 . S
C7741 C7740 1.415 . S
H7742 C7739 0.999 . S
H7743 C7724 0.913 . S
H7744 C7762 0.951 . S
H7745 C7764 0.951 . S
H7746 C7766 0.950 . S
H7747 C7767 0.950 . S
H7748 C7769 0.950 . S
H7749 C7772 0.950 . S
H7750 C7773 0.950 . S
H7751 C7775 0.950 . S
H7752 C7776 0.950 . S
H7753 C7777 0.951 . S
H7754 C7779 0.951 . S
H7755 C7781 0.950 . S
H7756 C7782 0.950 . S
H7757 C7784 0.950 . S
H7758 C7787 0.950 . S
H7759 C7788 0.950 . S
H7760 C7790 0.950 . S
H7761 C7791 0.950 . S
C7762 H7744 0.951 . S
C7762 C7763 1.366 . S
C7762 C7764 1.388 . S
C7763 C7762 1.366 . S
C7763 C7767 1.385 . S
C7764 H7745 0.951 . S
C7764 C7762 1.388 . S
C7764 C7765 1.366 . S
C7765 C7764 1.366 . S
C7765 C7766 1.414 . S
C7765 C7768 1.499 . S
C7766 H7746 0.950 . S
C7766 C7765 1.414 . S
C7766 C7767 1.374 . S
C7767 H7747 0.950 . S
C7767 C7763 1.385 . S
C7767 C7766 1.374 . S
C7768 C7765 1.499 . S
C7768 C7769 1.373 . S
C7768 C7770 1.389 . S
C7769 H7748 0.950 . S
C7769 C7768 1.373 . S
C7769 C7785 1.377 . S
C7770 C7768 1.389 . S
C7770 C7771 1.524 . S
C7770 C7784 1.377 . S
C7771 C7770 1.524 . S
C7771 C7772 1.397 . S
C7771 C7776 1.363 . S
C7772 H7749 0.950 . S
C7772 C7771 1.397 . S
C7772 C7773 1.334 . S
C7773 H7750 0.950 . S
C7773 C7772 1.334 . S
C7773 C7774 1.287 . S
C7774 C7773 1.287 . S
C7774 C7775 1.524 . S
C7774 H7793 0.913 . S
C7775 H7751 0.950 . S
C7775 C7774 1.524 . S
C7775 C7776 1.415 . S
C7776 H7752 0.950 . S
C7776 C7771 1.363 . S
C7776 C7775 1.415 . S
C7777 H7753 0.951 . S
C7777 C7778 1.366 . S
C7777 C7779 1.388 . S
C7778 C7777 1.366 . S
C7778 C7782 1.385 . S
C7779 H7754 0.951 . S
C7779 C7777 1.388 . S
C7779 C7780 1.366 . S
C7780 C7779 1.366 . S
C7780 C7781 1.414 . S
C7780 C7783 1.499 . S
C7781 H7755 0.950 . S
C7781 C7780 1.414 . S
C7781 C7782 1.374 . S
C7782 H7756 0.950 . S
C7782 C7778 1.385 . S
C7782 C7781 1.374 . S
C7783 C7780 1.499 . S
C7783 C7784 1.373 . S
C7783 C7785 1.389 . S
C7784 H7757 0.950 . S
C7784 C7770 1.377 . S
C7784 C7783 1.373 . S
C7785 C7769 1.377 . S
C7785 C7783 1.389 . S
C7785 C7786 1.524 . S
C7786 C7785 1.524 . S
C7786 C7787 1.397 . S
C7786 C7791 1.363 . S
C7787 H7758 0.950 . S
C7787 C7786 1.397 . S
C7787 C7788 1.334 . S
C7788 H7759 0.950 . S
C7788 C7787 1.334 . S
C7788 C7789 1.287 . S
C7789 C7788 1.287 . S
C7789 C7790 1.524 . S
C7789 H7792 0.999 . S
C7790 H7760 0.950 . S
C7790 C7789 1.524 . S
C7790 C7791 1.415 . S
C7791 H7761 0.950 . S
C7791 C7786 1.363 . S
C7791 C7790 1.415 . S
H7792 C7789 0.999 . S
H7793 C7774 0.913 . S
H7794 C7812 0.951 . S
H7795 C7814 0.951 . S
H7796 C7816 0.950 . S
H7797 C7817 0.950 . S
H7798 C7819 0.950 . S
H7799 C7822 0.950 . S
H7800 C7823 0.950 . S
H7801 C7825 0.950 . S
H7802 C7826 0.950 . S
H7803 C7827 0.951 . S
H7804 C7829 0.951 . S
H7805 C7831 0.950 . S
H7806 C7832 0.950 . S
H7807 C7834 0.950 . S
H7808 C7837 0.950 . S
H7809 C7838 0.950 . S
H7810 C7840 0.950 . S
H7811 C7841 0.950 . S
C7812 H7794 0.951 . S
C7812 C7813 1.366 . S
C7812 C7814 1.388 . S
C7813 C7812 1.366 . S
C7813 C7817 1.385 . S
C7814 H7795 0.951 . S
C7814 C7812 1.388 . S
C7814 C7815 1.366 . S
C7815 C7814 1.366 . S
C7815 C7816 1.414 . S
C7815 C7818 1.499 . S
C7816 H7796 0.950 . S
C7816 C7815 1.414 . S
C7816 C7817 1.374 . S
C7817 H7797 0.950 . S
C7817 C7813 1.385 . S
C7817 C7816 1.374 . S
C7818 C7815 1.499 . S
C7818 C7819 1.373 . S
C7818 C7820 1.389 . S
C7819 H7798 0.950 . S
C7819 C7818 1.373 . S
C7819 C7835 1.377 . S
C7820 C7818 1.389 . S
C7820 C7821 1.524 . S
C7820 C7834 1.377 . S
C7821 C7820 1.524 . S
C7821 C7822 1.397 . S
C7821 C7826 1.363 . S
C7822 H7799 0.950 . S
C7822 C7821 1.397 . S
C7822 C7823 1.334 . S
C7823 H7800 0.950 . S
C7823 C7822 1.334 . S
C7823 C7824 1.287 . S
C7824 C7823 1.287 . S
C7824 C7825 1.524 . S
C7824 H7843 0.913 . S
C7825 H7801 0.950 . S
C7825 C7824 1.524 . S
C7825 C7826 1.415 . S
C7826 H7802 0.950 . S
C7826 C7821 1.363 . S
C7826 C7825 1.415 . S
C7827 H7803 0.951 . S
C7827 C7828 1.366 . S
C7827 C7829 1.388 . S
C7828 C7827 1.366 . S
C7828 C7832 1.385 . S
C7829 H7804 0.951 . S
C7829 C7827 1.388 . S
C7829 C7830 1.366 . S
C7830 C7829 1.366 . S
C7830 C7831 1.414 . S
C7830 C7833 1.499 . S
C7831 H7805 0.950 . S
C7831 C7830 1.414 . S
C7831 C7832 1.374 . S
C7832 H7806 0.950 . S
C7832 C7828 1.385 . S
C7832 C7831 1.374 . S
C7833 C7830 1.499 . S
C7833 C7834 1.373 . S
C7833 C7835 1.389 . S
C7834 H7807 0.950 . S
C7834 C7820 1.377 . S
C7834 C7833 1.373 . S
C7835 C7819 1.377 . S
C7835 C7833 1.389 . S
C7835 C7836 1.524 . S
C7836 C7835 1.524 . S
C7836 C7837 1.397 . S
C7836 C7841 1.363 . S
C7837 H7808 0.950 . S
C7837 C7836 1.397 . S
C7837 C7838 1.334 . S
C7838 H7809 0.950 . S
C7838 C7837 1.334 . S
C7838 C7839 1.287 . S
C7839 C7838 1.287 . S
C7839 C7840 1.524 . S
C7839 H7842 0.999 . S
C7840 H7810 0.950 . S
C7840 C7839 1.524 . S
C7840 C7841 1.415 . S
C7841 H7811 0.950 . S
C7841 C7836 1.363 . S
C7841 C7840 1.415 . S
H7842 C7839 0.999 . S
H7843 C7824 0.913 . S
H7844 C7862 0.951 . S
H7845 C7864 0.951 . S
H7846 C7866 0.950 . S
H7847 C7867 0.950 . S
H7848 C7869 0.950 . S
H7849 C7872 0.950 . S
H7850 C7873 0.950 . S
H7851 C7875 0.950 . S
H7852 C7876 0.950 . S
H7853 C7877 0.951 . S
H7854 C7879 0.951 . S
H7855 C7881 0.950 . S
H7856 C7882 0.950 . S
H7857 C7884 0.950 . S
H7858 C7887 0.950 . S
H7859 C7888 0.950 . S
H7860 C7890 0.950 . S
H7861 C7891 0.950 . S
C7862 H7844 0.951 . S
C7862 C7863 1.366 . S
C7862 C7864 1.388 . S
C7863 C7862 1.366 . S
C7863 C7867 1.385 . S
C7864 H7845 0.951 . S
C7864 C7862 1.388 . S
C7864 C7865 1.366 . S
C7865 C7864 1.366 . S
C7865 C7866 1.414 . S
C7865 C7868 1.499 . S
C7866 H7846 0.950 . S
C7866 C7865 1.414 . S
C7866 C7867 1.374 . S
C7867 H7847 0.950 . S
C7867 C7863 1.385 . S
C7867 C7866 1.374 . S
C7868 C7865 1.499 . S
C7868 C7869 1.373 . S
C7868 C7870 1.389 . S
C7869 H7848 0.950 . S
C7869 C7868 1.373 . S
C7869 C7885 1.377 . S
C7870 C7868 1.389 . S
C7870 C7871 1.524 . S
C7870 C7884 1.377 . S
C7871 C7870 1.524 . S
C7871 C7872 1.397 . S
C7871 C7876 1.363 . S
C7872 H7849 0.950 . S
C7872 C7871 1.397 . S
C7872 C7873 1.334 . S
C7873 H7850 0.950 . S
C7873 C7872 1.334 . S
C7873 C7874 1.287 . S
C7874 C7873 1.287 . S
C7874 C7875 1.524 . S
C7874 H7893 0.913 . S
C7875 H7851 0.950 . S
C7875 C7874 1.524 . S
C7875 C7876 1.415 . S
C7876 H7852 0.950 . S
C7876 C7871 1.363 . S
C7876 C7875 1.415 . S
C7877 H7853 0.951 . S
C7877 C7878 1.366 . S
C7877 C7879 1.388 . S
C7878 C7877 1.366 . S
C7878 C7882 1.385 . S
C7879 H7854 0.951 . S
C7879 C7877 1.388 . S
C7879 C7880 1.366 . S
C7880 C7879 1.366 . S
C7880 C7881 1.414 . S
C7880 C7883 1.499 . S
C7881 H7855 0.950 . S
C7881 C7880 1.414 . S
C7881 C7882 1.374 . S
C7882 H7856 0.950 . S
C7882 C7878 1.385 . S
C7882 C7881 1.374 . S
C7883 C7880 1.499 . S
C7883 C7884 1.373 . S
C7883 C7885 1.389 . S
C7884 H7857 0.950 . S
C7884 C7870 1.377 . S
C7884 C7883 1.373 . S
C7885 C7869 1.377 . S
C7885 C7883 1.389 . S
C7885 C7886 1.524 . S
C7886 C7885 1.524 . S
C7886 C7887 1.397 . S
C7886 C7891 1.363 . S
C7887 H7858 0.950 . S
C7887 C7886 1.397 . S
C7887 C7888 1.334 . S
C7888 H7859 0.950 . S
C7888 C7887 1.334 . S
C7888 C7889 1.287 . S
C7889 C7888 1.287 . S
C7889 C7890 1.524 . S
C7889 H7892 0.999 . S
C7890 H7860 0.950 . S
C7890 C7889 1.524 . S
C7890 C7891 1.415 . S
C7891 H7861 0.950 . S
C7891 C7886 1.363 . S
C7891 C7890 1.415 . S
H7892 C7889 0.999 . S
H7893 C7874 0.913 . S
H7894 C7912 0.951 . S
H7895 C7914 0.951 . S
H7896 C7916 0.950 . S
H7897 C7917 0.950 . S
H7898 C7919 0.950 . S
H7899 C7922 0.950 . S
H7900 C7923 0.950 . S
H7901 C7925 0.950 . S
H7902 C7926 0.950 . S
H7903 C7927 0.951 . S
H7904 C7929 0.951 . S
H7905 C7931 0.950 . S
H7906 C7932 0.950 . S
H7907 C7934 0.950 . S
H7908 C7937 0.950 . S
H7909 C7938 0.950 . S
H7910 C7940 0.950 . S
H7911 C7941 0.950 . S
C7912 H7894 0.951 . S
C7912 C7913 1.366 . S
C7912 C7914 1.388 . S
C7913 C7912 1.366 . S
C7913 C7917 1.385 . S
C7914 H7895 0.951 . S
C7914 C7912 1.388 . S
C7914 C7915 1.366 . S
C7915 C7914 1.366 . S
C7915 C7916 1.414 . S
C7915 C7918 1.499 . S
C7916 H7896 0.950 . S
C7916 C7915 1.414 . S
C7916 C7917 1.374 . S
C7917 H7897 0.950 . S
C7917 C7913 1.385 . S
C7917 C7916 1.374 . S
C7918 C7915 1.499 . S
C7918 C7919 1.373 . S
C7918 C7920 1.389 . S
C7919 H7898 0.950 . S
C7919 C7918 1.373 . S
C7919 C7935 1.377 . S
C7920 C7918 1.389 . S
C7920 C7921 1.524 . S
C7920 C7934 1.377 . S
C7921 C7920 1.524 . S
C7921 C7922 1.397 . S
C7921 C7926 1.363 . S
C7922 H7899 0.950 . S
C7922 C7921 1.397 . S
C7922 C7923 1.334 . S
C7923 H7900 0.950 . S
C7923 C7922 1.334 . S
C7923 C7924 1.287 . S
C7924 C7923 1.287 . S
C7924 C7925 1.524 . S
C7924 H7943 0.913 . S
C7925 H7901 0.950 . S
C7925 C7924 1.524 . S
C7925 C7926 1.415 . S
C7926 H7902 0.950 . S
C7926 C7921 1.363 . S
C7926 C7925 1.415 . S
C7927 H7903 0.951 . S
C7927 C7928 1.366 . S
C7927 C7929 1.388 . S
C7928 C7927 1.366 . S
C7928 C7932 1.385 . S
C7929 H7904 0.951 . S
C7929 C7927 1.388 . S
C7929 C7930 1.366 . S
C7930 C7929 1.366 . S
C7930 C7931 1.414 . S
C7930 C7933 1.499 . S
C7931 H7905 0.950 . S
C7931 C7930 1.414 . S
C7931 C7932 1.374 . S
C7932 H7906 0.950 . S
C7932 C7928 1.385 . S
C7932 C7931 1.374 . S
C7933 C7930 1.499 . S
C7933 C7934 1.373 . S
C7933 C7935 1.389 . S
C7934 H7907 0.950 . S
C7934 C7920 1.377 . S
C7934 C7933 1.373 . S
C7935 C7919 1.377 . S
C7935 C7933 1.389 . S
C7935 C7936 1.524 . S
C7936 C7935 1.524 . S
C7936 C7937 1.397 . S
C7936 C7941 1.363 . S
C7937 H7908 0.950 . S
C7937 C7936 1.397 . S
C7937 C7938 1.334 . S
C7938 H7909 0.950 . S
C7938 C7937 1.334 . S
C7938 C7939 1.287 . S
C7939 C7938 1.287 . S
C7939 C7940 1.524 . S
C7939 H7942 0.999 . S
C7940 H7910 0.950 . S
C7940 C7939 1.524 . S
C7940 C7941 1.415 . S
C7941 H7911 0.950 . S
C7941 C7936 1.363 . S
C7941 C7940 1.415 . S
H7942 C7939 0.999 . S
H7943 C7924 0.913 . S
H7944 C7962 0.951 . S
H7945 C7964 0.951 . S
H7946 C7966 0.950 . S
H7947 C7967 0.950 . S
H7948 C7969 0.950 . S
H7949 C7972 0.950 . S
H7950 C7973 0.950 . S
H7951 C7975 0.950 . S
H7952 C7976 0.950 . S
H7953 C7977 0.951 . S
H7954 C7979 0.951 . S
H7955 C7981 0.950 . S
H7956 C7982 0.950 . S
H7957 C7984 0.950 . S
H7958 C7987 0.950 . S
H7959 C7988 0.950 . S
H7960 C7990 0.950 . S
H7961 C7991 0.950 . S
C7962 H7944 0.951 . S
C7962 C7963 1.366 . S
C7962 C7964 1.388 . S
C7963 C7962 1.366 . S
C7963 C7967 1.385 . S
C7964 H7945 0.951 . S
C7964 C7962 1.388 . S
C7964 C7965 1.366 . S
C7965 C7964 1.366 . S
C7965 C7966 1.414 . S
C7965 C7968 1.499 . S
C7966 H7946 0.950 . S
C7966 C7965 1.414 . S
C7966 C7967 1.374 . S
C7967 H7947 0.950 . S
C7967 C7963 1.385 . S
C7967 C7966 1.374 . S
C7968 C7965 1.499 . S
C7968 C7969 1.373 . S
C7968 C7970 1.389 . S
C7969 H7948 0.950 . S
C7969 C7968 1.373 . S
C7969 C7985 1.377 . S
C7970 C7968 1.389 . S
C7970 C7971 1.524 . S
C7970 C7984 1.377 . S
C7971 C7970 1.524 . S
C7971 C7972 1.397 . S
C7971 C7976 1.363 . S
C7972 H7949 0.950 . S
C7972 C7971 1.397 . S
C7972 C7973 1.334 . S
C7973 H7950 0.950 . S
C7973 C7972 1.334 . S
C7973 C7974 1.287 . S
C7974 C7973 1.287 . S
C7974 C7975 1.524 . S
C7974 H7993 0.913 . S
C7975 H7951 0.950 . S
C7975 C7974 1.524 . S
C7975 C7976 1.415 . S
C7976 H7952 0.950 . S
C7976 C7971 1.363 . S
C7976 C7975 1.415 . S
C7977 H7953 0.951 . S
C7977 C7978 1.366 . S
C7977 C7979 1.388 . S
C7978 C7977 1.366 . S
C7978 C7982 1.385 . S
C7979 H7954 0.951 . S
C7979 C7977 1.388 . S
C7979 C7980 1.366 . S
C7980 C7979 1.366 . S
C7980 C7981 1.414 . S
C7980 C7983 1.499 . S
C7981 H7955 0.950 . S
C7981 C7980 1.414 . S
C7981 C7982 1.374 . S
C7982 H7956 0.950 . S
C7982 C7978 1.385 . S
C7982 C7981 1.374 . S
C7983 C7980 1.499 . S
C7983 C7984 1.373 . S
C7983 C7985 1.389 . S
C7984 H7957 0.950 . S
C7984 C7970 1.377 . S
C7984 C7983 1.373 . S
C7985 C7969 1.377 . S
C7985 C7983 1.389 . S
C7985 C7986 1.524 . S
C7986 C7985 1.524 . S
C7986 C7987 1.397 . S
C7986 C7991 1.363 . S
C7987 H7958 0.950 . S
C7987 C7986 1.397 . S
C7987 C7988 1.334 . S
C7988 H7959 0.950 . S
C7988 C7987 1.334 . S
C7988 C7989 1.287 . S
C7989 C7988 1.287 . S
C7989 C7990 1.524 . S
C7989 H7992 0.999 . S
C7990 H7960 0.950 . S
C7990 C7989 1.524 . S
C7990 C7991 1.415 . S
C7991 H7961 0.950 . S
C7991 C7986 1.363 . S
C7991 C7990 1.415 . S
H7992 C7989 0.999 . S
H7993 C7974 0.913 . S
H7994 C8012 0.951 . S
H7995 C8014 0.951 . S
H7996 C8016 0.950 . S
H7997 C8017 0.950 . S
H7998 C8019 0.950 . S
H7999 C8022 0.950 . S
H8000 C8023 0.950 . S
H8001 C8025 0.950 . S
H8002 C8026 0.950 . S
H8003 C8027 0.951 . S
H8004 C8029 0.951 . S
H8005 C8031 0.950 . S
H8006 C8032 0.950 . S
H8007 C8034 0.950 . S
H8008 C8037 0.950 . S
H8009 C8038 0.950 . S
H8010 C8040 0.950 . S
H8011 C8041 0.950 . S
C8012 H7994 0.951 . S
C8012 C8013 1.366 . S
C8012 C8014 1.388 . S
C8013 C8012 1.366 . S
C8013 C8017 1.385 . S
C8014 H7995 0.951 . S
C8014 C8012 1.388 . S
C8014 C8015 1.366 . S
C8015 C8014 1.366 . S
C8015 C8016 1.414 . S
C8015 C8018 1.499 . S
C8016 H7996 0.950 . S
C8016 C8015 1.414 . S
C8016 C8017 1.374 . S
C8017 H7997 0.950 . S
C8017 C8013 1.385 . S
C8017 C8016 1.374 . S
C8018 C8015 1.499 . S
C8018 C8019 1.373 . S
C8018 C8020 1.389 . S
C8019 H7998 0.950 . S
C8019 C8018 1.373 . S
C8019 C8035 1.377 . S
C8020 C8018 1.389 . S
C8020 C8021 1.524 . S
C8020 C8034 1.377 . S
C8021 C8020 1.524 . S
C8021 C8022 1.397 . S
C8021 C8026 1.363 . S
C8022 H7999 0.950 . S
C8022 C8021 1.397 . S
C8022 C8023 1.334 . S
C8023 H8000 0.950 . S
C8023 C8022 1.334 . S
C8023 C8024 1.287 . S
C8024 C8023 1.287 . S
C8024 C8025 1.524 . S
C8024 H8043 0.913 . S
C8025 H8001 0.950 . S
C8025 C8024 1.524 . S
C8025 C8026 1.415 . S
C8026 H8002 0.950 . S
C8026 C8021 1.363 . S
C8026 C8025 1.415 . S
C8027 H8003 0.951 . S
C8027 C8028 1.366 . S
C8027 C8029 1.388 . S
C8028 C8027 1.366 . S
C8028 C8032 1.385 . S
C8029 H8004 0.951 . S
C8029 C8027 1.388 . S
C8029 C8030 1.366 . S
C8030 C8029 1.366 . S
C8030 C8031 1.414 . S
C8030 C8033 1.499 . S
C8031 H8005 0.950 . S
C8031 C8030 1.414 . S
C8031 C8032 1.374 . S
C8032 H8006 0.950 . S
C8032 C8028 1.385 . S
C8032 C8031 1.374 . S
C8033 C8030 1.499 . S
C8033 C8034 1.373 . S
C8033 C8035 1.389 . S
C8034 H8007 0.950 . S
C8034 C8020 1.377 . S
C8034 C8033 1.373 . S
C8035 C8019 1.377 . S
C8035 C8033 1.389 . S
C8035 C8036 1.524 . S
C8036 C8035 1.524 . S
C8036 C8037 1.397 . S
C8036 C8041 1.363 . S
C8037 H8008 0.950 . S
C8037 C8036 1.397 . S
C8037 C8038 1.334 . S
C8038 H8009 0.950 . S
C8038 C8037 1.334 . S
C8038 C8039 1.287 . S
C8039 C8038 1.287 . S
C8039 C8040 1.524 . S
C8039 H8042 0.999 . S
C8040 H8010 0.950 . S
C8040 C8039 1.524 . S
C8040 C8041 1.415 . S
C8041 H8011 0.950 . S
C8041 C8036 1.363 . S
C8041 C8040 1.415 . S
H8042 C8039 0.999 . S
H8043 C8024 0.913 . S
H8044 C8062 0.951 . S
H8045 C8064 0.951 . S
H8046 C8066 0.950 . S
H8047 C8067 0.950 . S
H8048 C8069 0.950 . S
H8049 C8072 0.950 . S
H8050 C8073 0.950 . S
H8051 C8075 0.950 . S
H8052 C8076 0.950 . S
H8053 C8077 0.951 . S
H8054 C8079 0.951 . S
H8055 C8081 0.950 . S
H8056 C8082 0.950 . S
H8057 C8084 0.950 . S
H8058 C8087 0.950 . S
H8059 C8088 0.950 . S
H8060 C8090 0.950 . S
H8061 C8091 0.950 . S
C8062 H8044 0.951 . S
C8062 C8063 1.366 . S
C8062 C8064 1.388 . S
C8063 C8062 1.366 . S
C8063 C8067 1.385 . S
C8064 H8045 0.951 . S
C8064 C8062 1.388 . S
C8064 C8065 1.366 . S
C8065 C8064 1.366 . S
C8065 C8066 1.414 . S
C8065 C8068 1.499 . S
C8066 H8046 0.950 . S
C8066 C8065 1.414 . S
C8066 C8067 1.374 . S
C8067 H8047 0.950 . S
C8067 C8063 1.385 . S
C8067 C8066 1.374 . S
C8068 C8065 1.499 . S
C8068 C8069 1.373 . S
C8068 C8070 1.389 . S
C8069 H8048 0.950 . S
C8069 C8068 1.373 . S
C8069 C8085 1.377 . S
C8070 C8068 1.389 . S
C8070 C8071 1.524 . S
C8070 C8084 1.377 . S
C8071 C8070 1.524 . S
C8071 C8072 1.397 . S
C8071 C8076 1.363 . S
C8072 H8049 0.950 . S
C8072 C8071 1.397 . S
C8072 C8073 1.334 . S
C8073 H8050 0.950 . S
C8073 C8072 1.334 . S
C8073 C8074 1.287 . S
C8074 C8073 1.287 . S
C8074 C8075 1.524 . S
C8074 H8093 0.913 . S
C8075 H8051 0.950 . S
C8075 C8074 1.524 . S
C8075 C8076 1.415 . S
C8076 H8052 0.950 . S
C8076 C8071 1.363 . S
C8076 C8075 1.415 . S
C8077 H8053 0.951 . S
C8077 C8078 1.366 . S
C8077 C8079 1.388 . S
C8078 C8077 1.366 . S
C8078 C8082 1.385 . S
C8079 H8054 0.951 . S
C8079 C8077 1.388 . S
C8079 C8080 1.366 . S
C8080 C8079 1.366 . S
C8080 C8081 1.414 . S
C8080 C8083 1.499 . S
C8081 H8055 0.950 . S
C8081 C8080 1.414 . S
C8081 C8082 1.374 . S
C8082 H8056 0.950 . S
C8082 C8078 1.385 . S
C8082 C8081 1.374 . S
C8083 C8080 1.499 . S
C8083 C8084 1.373 . S
C8083 C8085 1.389 . S
C8084 H8057 0.950 . S
C8084 C8070 1.377 . S
C8084 C8083 1.373 . S
C8085 C8069 1.377 . S
C8085 C8083 1.389 . S
C8085 C8086 1.524 . S
C8086 C8085 1.524 . S
C8086 C8087 1.397 . S
C8086 C8091 1.363 . S
C8087 H8058 0.950 . S
C8087 C8086 1.397 . S
C8087 C8088 1.334 . S
C8088 H8059 0.950 . S
C8088 C8087 1.334 . S
C8088 C8089 1.287 . S
C8089 C8088 1.287 . S
C8089 C8090 1.524 . S
C8089 H8092 0.999 . S
C8090 H8060 0.950 . S
C8090 C8089 1.524 . S
C8090 C8091 1.415 . S
C8091 H8061 0.950 . S
C8091 C8086 1.363 . S
C8091 C8090 1.415 . S
H8092 C8089 0.999 . S
H8093 C8074 0.913 . S
H8094 C8112 0.951 . S
H8095 C8114 0.951 . S
H8096 C8116 0.950 . S
H8097 C8117 0.950 . S
H8098 C8119 0.950 . S
H8099 C8122 0.950 . S
H8100 C8123 0.950 . S
H8101 C8125 0.950 . S
H8102 C8126 0.950 . S
H8103 C8127 0.951 . S
H8104 C8129 0.951 . S
H8105 C8131 0.950 . S
H8106 C8132 0.950 . S
H8107 C8134 0.950 . S
H8108 C8137 0.950 . S
H8109 C8138 0.950 . S
H8110 C8140 0.950 . S
H8111 C8141 0.950 . S
C8112 H8094 0.951 . S
C8112 C8113 1.366 . S
C8112 C8114 1.388 . S
C8113 C8112 1.366 . S
C8113 C8117 1.385 . S
C8114 H8095 0.951 . S
C8114 C8112 1.388 . S
C8114 C8115 1.366 . S
C8115 C8114 1.366 . S
C8115 C8116 1.414 . S
C8115 C8118 1.499 . S
C8116 H8096 0.950 . S
C8116 C8115 1.414 . S
C8116 C8117 1.374 . S
C8117 H8097 0.950 . S
C8117 C8113 1.385 . S
C8117 C8116 1.374 . S
C8118 C8115 1.499 . S
C8118 C8119 1.373 . S
C8118 C8120 1.389 . S
C8119 H8098 0.950 . S
C8119 C8118 1.373 . S
C8119 C8135 1.377 . S
C8120 C8118 1.389 . S
C8120 C8121 1.524 . S
C8120 C8134 1.377 . S
C8121 C8120 1.524 . S
C8121 C8122 1.397 . S
C8121 C8126 1.363 . S
C8122 H8099 0.950 . S
C8122 C8121 1.397 . S
C8122 C8123 1.334 . S
C8123 H8100 0.950 . S
C8123 C8122 1.334 . S
C8123 C8124 1.287 . S
C8124 C8123 1.287 . S
C8124 C8125 1.524 . S
C8124 H8143 0.913 . S
C8125 H8101 0.950 . S
C8125 C8124 1.524 . S
C8125 C8126 1.415 . S
C8126 H8102 0.950 . S
C8126 C8121 1.363 . S
C8126 C8125 1.415 . S
C8127 H8103 0.951 . S
C8127 C8128 1.366 . S
C8127 C8129 1.388 . S
C8128 C8127 1.366 . S
C8128 C8132 1.385 . S
C8129 H8104 0.951 . S
C8129 C8127 1.388 . S
C8129 C8130 1.366 . S
C8130 C8129 1.366 . S
C8130 C8131 1.414 . S
C8130 C8133 1.499 . S
C8131 H8105 0.950 . S
C8131 C8130 1.414 . S
C8131 C8132 1.374 . S
C8132 H8106 0.950 . S
C8132 C8128 1.385 . S
C8132 C8131 1.374 . S
C8133 C8130 1.499 . S
C8133 C8134 1.373 . S
C8133 C8135 1.389 . S
C8134 H8107 0.950 . S
C8134 C8120 1.377 . S
C8134 C8133 1.373 . S
C8135 C8119 1.377 . S
C8135 C8133 1.389 . S
C8135 C8136 1.524 . S
C8136 C8135 1.524 . S
C8136 C8137 1.397 . S
C8136 C8141 1.363 . S
C8137 H8108 0.950 . S
C8137 C8136 1.397 . S
C8137 C8138 1.334 . S
C8138 H8109 0.950 . S
C8138 C8137 1.334 . S
C8138 C8139 1.287 . S
C8139 C8138 1.287 . S
C8139 C8140 1.524 . S
C8139 H8142 0.999 . S
C8140 H8110 0.950 . S
C8140 C8139 1.524 . S
C8140 C8141 1.415 . S
C8141 H8111 0.950 . S
C8141 C8136 1.363 . S
C8141 C8140 1.415 . S
H8142 C8139 0.999 . S
H8143 C8124 0.913 . S
H8144 C8162 0.951 . S
H8145 C8164 0.951 . S
H8146 C8166 0.950 . S
H8147 C8167 0.950 . S
H8148 C8169 0.950 . S
H8149 C8172 0.950 . S
H8150 C8173 0.950 . S
H8151 C8175 0.950 . S
H8152 C8176 0.950 . S
H8153 C8177 0.951 . S
H8154 C8179 0.951 . S
H8155 C8181 0.950 . S
H8156 C8182 0.950 . S
H8157 C8184 0.950 . S
H8158 C8187 0.950 . S
H8159 C8188 0.950 . S
H8160 C8190 0.950 . S
H8161 C8191 0.950 . S
C8162 H8144 0.951 . S
C8162 C8163 1.366 . S
C8162 C8164 1.388 . S
C8163 C8162 1.366 . S
C8163 C8167 1.385 . S
C8164 H8145 0.951 . S
C8164 C8162 1.388 . S
C8164 C8165 1.366 . S
C8165 C8164 1.366 . S
C8165 C8166 1.414 . S
C8165 C8168 1.499 . S
C8166 H8146 0.950 . S
C8166 C8165 1.414 . S
C8166 C8167 1.374 . S
C8167 H8147 0.950 . S
C8167 C8163 1.385 . S
C8167 C8166 1.374 . S
C8168 C8165 1.499 . S
C8168 C8169 1.373 . S
C8168 C8170 1.389 . S
C8169 H8148 0.950 . S
C8169 C8168 1.373 . S
C8169 C8185 1.377 . S
C8170 C8168 1.389 . S
C8170 C8171 1.524 . S
C8170 C8184 1.377 . S
C8171 C8170 1.524 . S
C8171 C8172 1.397 . S
C8171 C8176 1.363 . S
C8172 H8149 0.950 . S
C8172 C8171 1.397 . S
C8172 C8173 1.334 . S
C8173 H8150 0.950 . S
C8173 C8172 1.334 . S
C8173 C8174 1.287 . S
C8174 C8173 1.287 . S
C8174 C8175 1.524 . S
C8174 H8193 0.913 . S
C8175 H8151 0.950 . S
C8175 C8174 1.524 . S
C8175 C8176 1.415 . S
C8176 H8152 0.950 . S
C8176 C8171 1.363 . S
C8176 C8175 1.415 . S
C8177 H8153 0.951 . S
C8177 C8178 1.366 . S
C8177 C8179 1.388 . S
C8178 C8177 1.366 . S
C8178 C8182 1.385 . S
C8179 H8154 0.951 . S
C8179 C8177 1.388 . S
C8179 C8180 1.366 . S
C8180 C8179 1.366 . S
C8180 C8181 1.414 . S
C8180 C8183 1.499 . S
C8181 H8155 0.950 . S
C8181 C8180 1.414 . S
C8181 C8182 1.374 . S
C8182 H8156 0.950 . S
C8182 C8178 1.385 . S
C8182 C8181 1.374 . S
C8183 C8180 1.499 . S
C8183 C8184 1.373 . S
C8183 C8185 1.389 . S
C8184 H8157 0.950 . S
C8184 C8170 1.377 . S
C8184 C8183 1.373 . S
C8185 C8169 1.377 . S
C8185 C8183 1.389 . S
C8185 C8186 1.524 . S
C8186 C8185 1.524 . S
C8186 C8187 1.397 . S
C8186 C8191 1.363 . S
C8187 H8158 0.950 . S
C8187 C8186 1.397 . S
C8187 C8188 1.334 . S
C8188 H8159 0.950 . S
C8188 C8187 1.334 . S
C8188 C8189 1.287 . S
C8189 C8188 1.287 . S
C8189 C8190 1.524 . S
C8189 H8192 0.999 . S
C8190 H8160 0.950 . S
C8190 C8189 1.524 . S
C8190 C8191 1.415 . S
C8191 H8161 0.950 . S
C8191 C8186 1.363 . S
C8191 C8190 1.415 . S
H8192 C8189 0.999 . S
H8193 C8174 0.913 . S
H8194 C8212 0.951 . S
H8195 C8214 0.951 . S
H8196 C8216 0.950 . S
H8197 C8217 0.950 . S
H8198 C8219 0.950 . S
H8199 C8222 0.950 . S
H8200 C8223 0.950 . S
H8201 C8225 0.950 . S
H8202 C8226 0.950 . S
H8203 C8227 0.951 . S
H8204 C8229 0.951 . S
H8205 C8231 0.950 . S
H8206 C8232 0.950 . S
H8207 C8234 0.950 . S
H8208 C8237 0.950 . S
H8209 C8238 0.950 . S
H8210 C8240 0.950 . S
H8211 C8241 0.950 . S
C8212 H8194 0.951 . S
C8212 C8213 1.366 . S
C8212 C8214 1.388 . S
C8213 C8212 1.366 . S
C8213 C8217 1.385 . S
C8214 H8195 0.951 . S
C8214 C8212 1.388 . S
C8214 C8215 1.366 . S
C8215 C8214 1.366 . S
C8215 C8216 1.414 . S
C8215 C8218 1.499 . S
C8216 H8196 0.950 . S
C8216 C8215 1.414 . S
C8216 C8217 1.374 . S
C8217 H8197 0.950 . S
C8217 C8213 1.385 . S
C8217 C8216 1.374 . S
C8218 C8215 1.499 . S
C8218 C8219 1.373 . S
C8218 C8220 1.389 . S
C8219 H8198 0.950 . S
C8219 C8218 1.373 . S
C8219 C8235 1.377 . S
C8220 C8218 1.389 . S
C8220 C8221 1.524 . S
C8220 C8234 1.377 . S
C8221 C8220 1.524 . S
C8221 C8222 1.397 . S
C8221 C8226 1.363 . S
C8222 H8199 0.950 . S
C8222 C8221 1.397 . S
C8222 C8223 1.334 . S
C8223 H8200 0.950 . S
C8223 C8222 1.334 . S
C8223 C8224 1.287 . S
C8224 C8223 1.287 . S
C8224 C8225 1.524 . S
C8224 H8243 0.913 . S
C8225 H8201 0.950 . S
C8225 C8224 1.524 . S
C8225 C8226 1.415 . S
C8226 H8202 0.950 . S
C8226 C8221 1.363 . S
C8226 C8225 1.415 . S
C8227 H8203 0.951 . S
C8227 C8228 1.366 . S
C8227 C8229 1.388 . S
C8228 C8227 1.366 . S
C8228 C8232 1.385 . S
C8229 H8204 0.951 . S
C8229 C8227 1.388 . S
C8229 C8230 1.366 . S
C8230 C8229 1.366 . S
C8230 C8231 1.414 . S
C8230 C8233 1.499 . S
C8231 H8205 0.950 . S
C8231 C8230 1.414 . S
C8231 C8232 1.374 . S
C8232 H8206 0.950 . S
C8232 C8228 1.385 . S
C8232 C8231 1.374 . S
C8233 C8230 1.499 . S
C8233 C8234 1.373 . S
C8233 C8235 1.389 . S
C8234 H8207 0.950 . S
C8234 C8220 1.377 . S
C8234 C8233 1.373 . S
C8235 C8219 1.377 . S
C8235 C8233 1.389 . S
C8235 C8236 1.524 . S
C8236 C8235 1.524 . S
C8236 C8237 1.397 . S
C8236 C8241 1.363 . S
C8237 H8208 0.950 . S
C8237 C8236 1.397 . S
C8237 C8238 1.334 . S
C8238 H8209 0.950 . S
C8238 C8237 1.334 . S
C8238 C8239 1.287 . S
C8239 C8238 1.287 . S
C8239 C8240 1.524 . S
C8239 H8242 0.999 . S
C8240 H8210 0.950 . S
C8240 C8239 1.524 . S
C8240 C8241 1.415 . S
C8241 H8211 0.950 . S
C8241 C8236 1.363 . S
C8241 C8240 1.415 . S
H8242 C8239 0.999 . S
H8243 C8224 0.913 . S
H8244 C8262 0.951 . S
H8245 C8264 0.951 . S
H8246 C8266 0.950 . S
H8247 C8267 0.950 . S
H8248 C8269 0.950 . S
H8249 C8272 0.950 . S
H8250 C8273 0.950 . S
H8251 C8275 0.950 . S
H8252 C8276 0.950 . S
H8253 C8277 0.951 . S
H8254 C8279 0.951 . S
H8255 C8281 0.950 . S
H8256 C8282 0.950 . S
H8257 C8284 0.950 . S
H8258 C8287 0.950 . S
H8259 C8288 0.950 . S
H8260 C8290 0.950 . S
H8261 C8291 0.950 . S
C8262 H8244 0.951 . S
C8262 C8263 1.366 . S
C8262 C8264 1.388 . S
C8263 C8262 1.366 . S
C8263 C8267 1.385 . S
C8264 H8245 0.951 . S
C8264 C8262 1.388 . S
C8264 C8265 1.366 . S
C8265 C8264 1.366 . S
C8265 C8266 1.414 . S
C8265 C8268 1.499 . S
C8266 H8246 0.950 . S
C8266 C8265 1.414 . S
C8266 C8267 1.374 . S
C8267 H8247 0.950 . S
C8267 C8263 1.385 . S
C8267 C8266 1.374 . S
C8268 C8265 1.499 . S
C8268 C8269 1.373 . S
C8268 C8270 1.389 . S
C8269 H8248 0.950 . S
C8269 C8268 1.373 . S
C8269 C8285 1.377 . S
C8270 C8268 1.389 . S
C8270 C8271 1.524 . S
C8270 C8284 1.377 . S
C8271 C8270 1.524 . S
C8271 C8272 1.397 . S
C8271 C8276 1.363 . S
C8272 H8249 0.950 . S
C8272 C8271 1.397 . S
C8272 C8273 1.334 . S
C8273 H8250 0.950 . S
C8273 C8272 1.334 . S
C8273 C8274 1.287 . S
C8274 C8273 1.287 . S
C8274 C8275 1.524 . S
C8274 H8293 0.913 . S
C8275 H8251 0.950 . S
C8275 C8274 1.524 . S
C8275 C8276 1.415 . S
C8276 H8252 0.950 . S
C8276 C8271 1.363 . S
C8276 C8275 1.415 . S
C8277 H8253 0.951 . S
C8277 C8278 1.366 . S
C8277 C8279 1.388 . S
C8278 C8277 1.366 . S
C8278 C8282 1.385 . S
C8279 H8254 0.951 . S
C8279 C8277 1.388 . S
C8279 C8280 1.366 . S
C8280 C8279 1.366 . S
C8280 C8281 1.414 . S
C8280 C8283 1.499 . S
C8281 H8255 0.950 . S
C8281 C8280 1.414 . S
C8281 C8282 1.374 . S
C8282 H8256 0.950 . S
C8282 C8278 1.385 . S
C8282 C8281 1.374 . S
C8283 C8280 1.499 . S
C8283 C8284 1.373 . S
C8283 C8285 1.389 . S
C8284 H8257 0.950 . S
C8284 C8270 1.377 . S
C8284 C8283 1.373 . S
C8285 C8269 1.377 . S
C8285 C8283 1.389 . S
C8285 C8286 1.524 . S
C8286 C8285 1.524 . S
C8286 C8287 1.397 . S
C8286 C8291 1.363 . S
C8287 H8258 0.950 . S
C8287 C8286 1.397 . S
C8287 C8288 1.334 . S
C8288 H8259 0.950 . S
C8288 C8287 1.334 . S
C8288 C8289 1.287 . S
C8289 C8288 1.287 . S
C8289 C8290 1.524 . S
C8289 H8292 0.999 . S
C8290 H8260 0.950 . S
C8290 C8289 1.524 . S
C8290 C8291 1.415 . S
C8291 H8261 0.950 . S
C8291 C8286 1.363 . S
C8291 C8290 1.415 . S
H8292 C8289 0.999 . S
H8293 C8274 0.913 . S
H8294 C8312 0.951 . S
H8295 C8314 0.951 . S
H8296 C8316 0.950 . S
H8297 C8317 0.950 . S
H8298 C8319 0.950 . S
H8299 C8322 0.950 . S
H8300 C8323 0.950 . S
H8301 C8325 0.950 . S
H8302 C8326 0.950 . S
H8303 C8327 0.951 . S
H8304 C8329 0.951 . S
H8305 C8331 0.950 . S
H8306 C8332 0.950 . S
H8307 C8334 0.950 . S
H8308 C8337 0.950 . S
H8309 C8338 0.950 . S
H8310 C8340 0.950 . S
H8311 C8341 0.950 . S
C8312 H8294 0.951 . S
C8312 C8313 1.366 . S
C8312 C8314 1.388 . S
C8313 C8312 1.366 . S
C8313 C8317 1.385 . S
C8314 H8295 0.951 . S
C8314 C8312 1.388 . S
C8314 C8315 1.366 . S
C8315 C8314 1.366 . S
C8315 C8316 1.414 . S
C8315 C8318 1.499 . S
C8316 H8296 0.950 . S
C8316 C8315 1.414 . S
C8316 C8317 1.374 . S
C8317 H8297 0.950 . S
C8317 C8313 1.385 . S
C8317 C8316 1.374 . S
C8318 C8315 1.499 . S
C8318 C8319 1.373 . S
C8318 C8320 1.389 . S
C8319 H8298 0.950 . S
C8319 C8318 1.373 . S
C8319 C8335 1.377 . S
C8320 C8318 1.389 . S
C8320 C8321 1.524 . S
C8320 C8334 1.377 . S
C8321 C8320 1.524 . S
C8321 C8322 1.397 . S
C8321 C8326 1.363 . S
C8322 H8299 0.950 . S
C8322 C8321 1.397 . S
C8322 C8323 1.334 . S
C8323 H8300 0.950 . S
C8323 C8322 1.334 . S
C8323 C8324 1.287 . S
C8324 C8323 1.287 . S
C8324 C8325 1.524 . S
C8324 H8343 0.913 . S
C8325 H8301 0.950 . S
C8325 C8324 1.524 . S
C8325 C8326 1.415 . S
C8326 H8302 0.950 . S
C8326 C8321 1.363 . S
C8326 C8325 1.415 . S
C8327 H8303 0.951 . S
C8327 C8328 1.366 . S
C8327 C8329 1.388 . S
C8328 C8327 1.366 . S
C8328 C8332 1.385 . S
C8329 H8304 0.951 . S
C8329 C8327 1.388 . S
C8329 C8330 1.366 . S
C8330 C8329 1.366 . S
C8330 C8331 1.414 . S
C8330 C8333 1.499 . S
C8331 H8305 0.950 . S
C8331 C8330 1.414 . S
C8331 C8332 1.374 . S
C8332 H8306 0.950 . S
C8332 C8328 1.385 . S
C8332 C8331 1.374 . S
C8333 C8330 1.499 . S
C8333 C8334 1.373 . S
C8333 C8335 1.389 . S
C8334 H8307 0.950 . S
C8334 C8320 1.377 . S
C8334 C8333 1.373 . S
C8335 C8319 1.377 . S
C8335 C8333 1.389 . S
C8335 C8336 1.524 . S
C8336 C8335 1.524 . S
C8336 C8337 1.397 . S
C8336 C8341 1.363 . S
C8337 H8308 0.950 . S
C8337 C8336 1.397 . S
C8337 C8338 1.334 . S
C8338 H8309 0.950 . S
C8338 C8337 1.334 . S
C8338 C8339 1.287 . S
C8339 C8338 1.287 . S
C8339 C8340 1.524 . S
C8339 H8342 0.999 . S
C8340 H8310 0.950 . S
C8340 C8339 1.524 . S
C8340 C8341 1.415 . S
C8341 H8311 0.950 . S
C8341 C8336 1.363 . S
C8341 C8340 1.415 . S
H8342 C8339 0.999 . S
H8343 C8324 0.913 . S
H8344 C8362 0.951 . S
H8345 C8364 0.951 . S
H8346 C8366 0.950 . S
H8347 C8367 0.950 . S
H8348 C8369 0.950 . S
H8349 C8372 0.950 . S
H8350 C8373 0.950 . S
H8351 C8375 0.950 . S
H8352 C8376 0.950 . S
H8353 C8377 0.951 . S
H8354 C8379 0.951 . S
H8355 C8381 0.950 . S
H8356 C8382 0.950 . S
H8357 C8384 0.950 . S
H8358 C8387 0.950 . S
H8359 C8388 0.950 . S
H8360 C8390 0.950 . S
H8361 C8391 0.950 . S
C8362 H8344 0.951 . S
C8362 C8363 1.366 . S
C8362 C8364 1.388 . S
C8363 C8362 1.366 . S
C8363 C8367 1.385 . S
C8364 H8345 0.951 . S
C8364 C8362 1.388 . S
C8364 C8365 1.366 . S
C8365 C8364 1.366 . S
C8365 C8366 1.414 . S
C8365 C8368 1.499 . S
C8366 H8346 0.950 . S
C8366 C8365 1.414 . S
C8366 C8367 1.374 . S
C8367 H8347 0.950 . S
C8367 C8363 1.385 . S
C8367 C8366 1.374 . S
C8368 C8365 1.499 . S
C8368 C8369 1.373 . S
C8368 C8370 1.389 . S
C8369 H8348 0.950 . S
C8369 C8368 1.373 . S
C8369 C8385 1.377 . S
C8370 C8368 1.389 . S
C8370 C8371 1.524 . S
C8370 C8384 1.377 . S
C8371 C8370 1.524 . S
C8371 C8372 1.397 . S
C8371 C8376 1.363 . S
C8372 H8349 0.950 . S
C8372 C8371 1.397 . S
C8372 C8373 1.334 . S
C8373 H8350 0.950 . S
C8373 C8372 1.334 . S
C8373 C8374 1.287 . S
C8374 C8373 1.287 . S
C8374 C8375 1.524 . S
C8374 H8393 0.913 . S
C8375 H8351 0.950 . S
C8375 C8374 1.524 . S
C8375 C8376 1.415 . S
C8376 H8352 0.950 . S
C8376 C8371 1.363 . S
C8376 C8375 1.415 . S
C8377 H8353 0.951 . S
C8377 C8378 1.366 . S
C8377 C8379 1.388 . S
C8378 C8377 1.366 . S
C8378 C8382 1.385 . S
C8379 H8354 0.951 . S
C8379 C8377 1.388 . S
C8379 C8380 1.366 . S
C8380 C8379 1.366 . S
C8380 C8381 1.414 . S
C8380 C8383 1.499 . S
C8381 H8355 0.950 . S
C8381 C8380 1.414 . S
C8381 C8382 1.374 . S
C8382 H8356 0.950 . S
C8382 C8378 1.385 . S
C8382 C8381 1.374 . S
C8383 C8380 1.499 . S
C8383 C8384 1.373 . S
C8383 C8385 1.389 . S
C8384 H8357 0.950 . S
C8384 C8370 1.377 . S
C8384 C8383 1.373 . S
C8385 C8369 1.377 . S
C8385 C8383 1.389 . S
C8385 C8386 1.524 . S
C8386 C8385 1.524 . S
C8386 C8387 1.397 . S
C8386 C8391 1.363 . S
C8387 H8358 0.950 . S
C8387 C8386 1.397 . S
C8387 C8388 1.334 . S
C8388 H8359 0.950 . S
C8388 C8387 1.334 . S
C8388 C8389 1.287 . S
C8389 C8388 1.287 . S
C8389 C8390 1.524 . S
C8389 H8392 0.999 . S
C8390 H8360 0.950 . S
C8390 C8389 1.524 . S
C8390 C8391 1.415 . S
C8391 H8361 0.950 . S
C8391 C8386 1.363 . S
C8391 C8390 1.415 . S
H8392 C8389 0.999 . S
H8393 C8374 0.913 . S
H8394 C8412 0.951 . S
H8395 C8414 0.951 . S
H8396 C8416 0.950 . S
H8397 C8417 0.950 . S
H8398 C8419 0.950 . S
H8399 C8422 0.950 . S
H8400 C8423 0.950 . S
H8401 C8425 0.950 . S
H8402 C8426 0.950 . S
H8403 C8427 0.951 . S
H8404 C8429 0.951 . S
H8405 C8431 0.950 . S
H8406 C8432 0.950 . S
H8407 C8434 0.950 . S
H8408 C8437 0.950 . S
H8409 C8438 0.950 . S
H8410 C8440 0.950 . S
H8411 C8441 0.950 . S
C8412 H8394 0.951 . S
C8412 C8413 1.366 . S
C8412 C8414 1.388 . S
C8413 C8412 1.366 . S
C8413 C8417 1.385 . S
C8414 H8395 0.951 . S
C8414 C8412 1.388 . S
C8414 C8415 1.366 . S
C8415 C8414 1.366 . S
C8415 C8416 1.414 . S
C8415 C8418 1.499 . S
C8416 H8396 0.950 . S
C8416 C8415 1.414 . S
C8416 C8417 1.374 . S
C8417 H8397 0.950 . S
C8417 C8413 1.385 . S
C8417 C8416 1.374 . S
C8418 C8415 1.499 . S
C8418 C8419 1.373 . S
C8418 C8420 1.389 . S
C8419 H8398 0.950 . S
C8419 C8418 1.373 . S
C8419 C8435 1.377 . S
C8420 C8418 1.389 . S
C8420 C8421 1.524 . S
C8420 C8434 1.377 . S
C8421 C8420 1.524 . S
C8421 C8422 1.397 . S
C8421 C8426 1.363 . S
C8422 H8399 0.950 . S
C8422 C8421 1.397 . S
C8422 C8423 1.334 . S
C8423 H8400 0.950 . S
C8423 C8422 1.334 . S
C8423 C8424 1.287 . S
C8424 C8423 1.287 . S
C8424 C8425 1.524 . S
C8424 H8443 0.913 . S
C8425 H8401 0.950 . S
C8425 C8424 1.524 . S
C8425 C8426 1.415 . S
C8426 H8402 0.950 . S
C8426 C8421 1.363 . S
C8426 C8425 1.415 . S
C8427 H8403 0.951 . S
C8427 C8428 1.366 . S
C8427 C8429 1.388 . S
C8428 C8427 1.366 . S
C8428 C8432 1.385 . S
C8429 H8404 0.951 . S
C8429 C8427 1.388 . S
C8429 C8430 1.366 . S
C8430 C8429 1.366 . S
C8430 C8431 1.414 . S
C8430 C8433 1.499 . S
C8431 H8405 0.950 . S
C8431 C8430 1.414 . S
C8431 C8432 1.374 . S
C8432 H8406 0.950 . S
C8432 C8428 1.385 . S
C8432 C8431 1.374 . S
C8433 C8430 1.499 . S
C8433 C8434 1.373 . S
C8433 C8435 1.389 . S
C8434 H8407 0.950 . S
C8434 C8420 1.377 . S
C8434 C8433 1.373 . S
C8435 C8419 1.377 . S
C8435 C8433 1.389 . S
C8435 C8436 1.524 . S
C8436 C8435 1.524 . S
C8436 C8437 1.397 . S
C8436 C8441 1.363 . S
C8437 H8408 0.950 . S
C8437 C8436 1.397 . S
C8437 C8438 1.334 . S
C8438 H8409 0.950 . S
C8438 C8437 1.334 . S
C8438 C8439 1.287 . S
C8439 C8438 1.287 . S
C8439 C8440 1.524 . S
C8439 H8442 0.999 . S
C8440 H8410 0.950 . S
C8440 C8439 1.524 . S
C8440 C8441 1.415 . S
C8441 H8411 0.950 . S
C8441 C8436 1.363 . S
C8441 C8440 1.415 . S
H8442 C8439 0.999 . S
H8443 C8424 0.913 . S
H8444 C8462 0.951 . S
H8445 C8464 0.951 . S
H8446 C8466 0.950 . S
H8447 C8467 0.950 . S
H8448 C8469 0.950 . S
H8449 C8472 0.950 . S
H8450 C8473 0.950 . S
H8451 C8475 0.950 . S
H8452 C8476 0.950 . S
H8453 C8477 0.951 . S
H8454 C8479 0.951 . S
H8455 C8481 0.950 . S
H8456 C8482 0.950 . S
H8457 C8484 0.950 . S
H8458 C8487 0.950 . S
H8459 C8488 0.950 . S
H8460 C8490 0.950 . S
H8461 C8491 0.950 . S
C8462 H8444 0.951 . S
C8462 C8463 1.366 . S
C8462 C8464 1.388 . S
C8463 C8462 1.366 . S
C8463 C8467 1.385 . S
C8464 H8445 0.951 . S
C8464 C8462 1.388 . S
C8464 C8465 1.366 . S
C8465 C8464 1.366 . S
C8465 C8466 1.414 . S
C8465 C8468 1.499 . S
C8466 H8446 0.950 . S
C8466 C8465 1.414 . S
C8466 C8467 1.374 . S
C8467 H8447 0.950 . S
C8467 C8463 1.385 . S
C8467 C8466 1.374 . S
C8468 C8465 1.499 . S
C8468 C8469 1.373 . S
C8468 C8470 1.389 . S
C8469 H8448 0.950 . S
C8469 C8468 1.373 . S
C8469 C8485 1.377 . S
C8470 C8468 1.389 . S
C8470 C8471 1.524 . S
C8470 C8484 1.377 . S
C8471 C8470 1.524 . S
C8471 C8472 1.397 . S
C8471 C8476 1.363 . S
C8472 H8449 0.950 . S
C8472 C8471 1.397 . S
C8472 C8473 1.334 . S
C8473 H8450 0.950 . S
C8473 C8472 1.334 . S
C8473 C8474 1.287 . S
C8474 C8473 1.287 . S
C8474 C8475 1.524 . S
C8474 H8493 0.913 . S
C8475 H8451 0.950 . S
C8475 C8474 1.524 . S
C8475 C8476 1.415 . S
C8476 H8452 0.950 . S
C8476 C8471 1.363 . S
C8476 C8475 1.415 . S
C8477 H8453 0.951 . S
C8477 C8478 1.366 . S
C8477 C8479 1.388 . S
C8478 C8477 1.366 . S
C8478 C8482 1.385 . S
C8479 H8454 0.951 . S
C8479 C8477 1.388 . S
C8479 C8480 1.366 . S
C8480 C8479 1.366 . S
C8480 C8481 1.414 . S
C8480 C8483 1.499 . S
C8481 H8455 0.950 . S
C8481 C8480 1.414 . S
C8481 C8482 1.374 . S
C8482 H8456 0.950 . S
C8482 C8478 1.385 . S
C8482 C8481 1.374 . S
C8483 C8480 1.499 . S
C8483 C8484 1.373 . S
C8483 C8485 1.389 . S
C8484 H8457 0.950 . S
C8484 C8470 1.377 . S
C8484 C8483 1.373 . S
C8485 C8469 1.377 . S
C8485 C8483 1.389 . S
C8485 C8486 1.524 . S
C8486 C8485 1.524 . S
C8486 C8487 1.397 . S
C8486 C8491 1.363 . S
C8487 H8458 0.950 . S
C8487 C8486 1.397 . S
C8487 C8488 1.334 . S
C8488 H8459 0.950 . S
C8488 C8487 1.334 . S
C8488 C8489 1.287 . S
C8489 C8488 1.287 . S
C8489 C8490 1.524 . S
C8489 H8492 0.999 . S
C8490 H8460 0.950 . S
C8490 C8489 1.524 . S
C8490 C8491 1.415 . S
C8491 H8461 0.950 . S
C8491 C8486 1.363 . S
C8491 C8490 1.415 . S
H8492 C8489 0.999 . S
H8493 C8474 0.913 . S
H8494 C8512 0.951 . S
H8495 C8514 0.951 . S
H8496 C8516 0.950 . S
H8497 C8517 0.950 . S
H8498 C8519 0.950 . S
H8499 C8522 0.950 . S
H8500 C8523 0.950 . S
H8501 C8525 0.950 . S
H8502 C8526 0.950 . S
H8503 C8527 0.951 . S
H8504 C8529 0.951 . S
H8505 C8531 0.950 . S
H8506 C8532 0.950 . S
H8507 C8534 0.950 . S
H8508 C8537 0.950 . S
H8509 C8538 0.950 . S
H8510 C8540 0.950 . S
H8511 C8541 0.950 . S
C8512 H8494 0.951 . S
C8512 C8513 1.366 . S
C8512 C8514 1.388 . S
C8513 C8512 1.366 . S
C8513 C8517 1.385 . S
C8514 H8495 0.951 . S
C8514 C8512 1.388 . S
C8514 C8515 1.366 . S
C8515 C8514 1.366 . S
C8515 C8516 1.414 . S
C8515 C8518 1.499 . S
C8516 H8496 0.950 . S
C8516 C8515 1.414 . S
C8516 C8517 1.374 . S
C8517 H8497 0.950 . S
C8517 C8513 1.385 . S
C8517 C8516 1.374 . S
C8518 C8515 1.499 . S
C8518 C8519 1.373 . S
C8518 C8520 1.389 . S
C8519 H8498 0.950 . S
C8519 C8518 1.373 . S
C8519 C8535 1.377 . S
C8520 C8518 1.389 . S
C8520 C8521 1.524 . S
C8520 C8534 1.377 . S
C8521 C8520 1.524 . S
C8521 C8522 1.397 . S
C8521 C8526 1.363 . S
C8522 H8499 0.950 . S
C8522 C8521 1.397 . S
C8522 C8523 1.334 . S
C8523 H8500 0.950 . S
C8523 C8522 1.334 . S
C8523 C8524 1.287 . S
C8524 C8523 1.287 . S
C8524 C8525 1.524 . S
C8524 H8543 0.913 . S
C8525 H8501 0.950 . S
C8525 C8524 1.524 . S
C8525 C8526 1.415 . S
C8526 H8502 0.950 . S
C8526 C8521 1.363 . S
C8526 C8525 1.415 . S
C8527 H8503 0.951 . S
C8527 C8528 1.366 . S
C8527 C8529 1.388 . S
C8528 C8527 1.366 . S
C8528 C8532 1.385 . S
C8529 H8504 0.951 . S
C8529 C8527 1.388 . S
C8529 C8530 1.366 . S
C8530 C8529 1.366 . S
C8530 C8531 1.414 . S
C8530 C8533 1.499 . S
C8531 H8505 0.950 . S
C8531 C8530 1.414 . S
C8531 C8532 1.374 . S
C8532 H8506 0.950 . S
C8532 C8528 1.385 . S
C8532 C8531 1.374 . S
C8533 C8530 1.499 . S
C8533 C8534 1.373 . S
C8533 C8535 1.389 . S
C8534 H8507 0.950 . S
C8534 C8520 1.377 . S
C8534 C8533 1.373 . S
C8535 C8519 1.377 . S
C8535 C8533 1.389 . S
C8535 C8536 1.524 . S
C8536 C8535 1.524 . S
C8536 C8537 1.397 . S
C8536 C8541 1.363 . S
C8537 H8508 0.950 . S
C8537 C8536 1.397 . S
C8537 C8538 1.334 . S
C8538 H8509 0.950 . S
C8538 C8537 1.334 . S
C8538 C8539 1.287 . S
C8539 C8538 1.287 . S
C8539 C8540 1.524 . S
C8539 H8542 0.999 . S
C8540 H8510 0.950 . S
C8540 C8539 1.524 . S
C8540 C8541 1.415 . S
C8541 H8511 0.950 . S
C8541 C8536 1.363 . S
C8541 C8540 1.415 . S
H8542 C8539 0.999 . S
H8543 C8524 0.913 . S
H8544 C8562 0.951 . S
H8545 C8564 0.951 . S
H8546 C8566 0.950 . S
H8547 C8567 0.950 . S
H8548 C8569 0.950 . S
H8549 C8572 0.950 . S
H8550 C8573 0.950 . S
H8551 C8575 0.950 . S
H8552 C8576 0.950 . S
H8553 C8577 0.951 . S
H8554 C8579 0.951 . S
H8555 C8581 0.950 . S
H8556 C8582 0.950 . S
H8557 C8584 0.950 . S
H8558 C8587 0.950 . S
H8559 C8588 0.950 . S
H8560 C8590 0.950 . S
H8561 C8591 0.950 . S
C8562 H8544 0.951 . S
C8562 C8563 1.366 . S
C8562 C8564 1.388 . S
C8563 C8562 1.366 . S
C8563 C8567 1.385 . S
C8564 H8545 0.951 . S
C8564 C8562 1.388 . S
C8564 C8565 1.366 . S
C8565 C8564 1.366 . S
C8565 C8566 1.414 . S
C8565 C8568 1.499 . S
C8566 H8546 0.950 . S
C8566 C8565 1.414 . S
C8566 C8567 1.374 . S
C8567 H8547 0.950 . S
C8567 C8563 1.385 . S
C8567 C8566 1.374 . S
C8568 C8565 1.499 . S
C8568 C8569 1.373 . S
C8568 C8570 1.389 . S
C8569 H8548 0.950 . S
C8569 C8568 1.373 . S
C8569 C8585 1.377 . S
C8570 C8568 1.389 . S
C8570 C8571 1.524 . S
C8570 C8584 1.377 . S
C8571 C8570 1.524 . S
C8571 C8572 1.397 . S
C8571 C8576 1.363 . S
C8572 H8549 0.950 . S
C8572 C8571 1.397 . S
C8572 C8573 1.334 . S
C8573 H8550 0.950 . S
C8573 C8572 1.334 . S
C8573 C8574 1.287 . S
C8574 C8573 1.287 . S
C8574 C8575 1.524 . S
C8574 H8593 0.913 . S
C8575 H8551 0.950 . S
C8575 C8574 1.524 . S
C8575 C8576 1.415 . S
C8576 H8552 0.950 . S
C8576 C8571 1.363 . S
C8576 C8575 1.415 . S
C8577 H8553 0.951 . S
C8577 C8578 1.366 . S
C8577 C8579 1.388 . S
C8578 C8577 1.366 . S
C8578 C8582 1.385 . S
C8579 H8554 0.951 . S
C8579 C8577 1.388 . S
C8579 C8580 1.366 . S
C8580 C8579 1.366 . S
C8580 C8581 1.414 . S
C8580 C8583 1.499 . S
C8581 H8555 0.950 . S
C8581 C8580 1.414 . S
C8581 C8582 1.374 . S
C8582 H8556 0.950 . S
C8582 C8578 1.385 . S
C8582 C8581 1.374 . S
C8583 C8580 1.499 . S
C8583 C8584 1.373 . S
C8583 C8585 1.389 . S
C8584 H8557 0.950 . S
C8584 C8570 1.377 . S
C8584 C8583 1.373 . S
C8585 C8569 1.377 . S
C8585 C8583 1.389 . S
C8585 C8586 1.524 . S
C8586 C8585 1.524 . S
C8586 C8587 1.397 . S
C8586 C8591 1.363 . S
C8587 H8558 0.950 . S
C8587 C8586 1.397 . S
C8587 C8588 1.334 . S
C8588 H8559 0.950 . S
C8588 C8587 1.334 . S
C8588 C8589 1.287 . S
C8589 C8588 1.287 . S
C8589 C8590 1.524 . S
C8589 H8592 0.999 . S
C8590 H8560 0.950 . S
C8590 C8589 1.524 . S
C8590 C8591 1.415 . S
C8591 H8561 0.950 . S
C8591 C8586 1.363 . S
C8591 C8590 1.415 . S
H8592 C8589 0.999 . S
H8593 C8574 0.913 . S
H8594 C8612 0.951 . S
H8595 C8614 0.951 . S
H8596 C8616 0.950 . S
H8597 C8617 0.950 . S
H8598 C8619 0.950 . S
H8599 C8622 0.950 . S
H8600 C8623 0.950 . S
H8601 C8625 0.950 . S
H8602 C8626 0.950 . S
H8603 C8627 0.951 . S
H8604 C8629 0.951 . S
H8605 C8631 0.950 . S
H8606 C8632 0.950 . S
H8607 C8634 0.950 . S
H8608 C8637 0.950 . S
H8609 C8638 0.950 . S
H8610 C8640 0.950 . S
H8611 C8641 0.950 . S
C8612 H8594 0.951 . S
C8612 C8613 1.366 . S
C8612 C8614 1.388 . S
C8613 C8612 1.366 . S
C8613 C8617 1.385 . S
C8614 H8595 0.951 . S
C8614 C8612 1.388 . S
C8614 C8615 1.366 . S
C8615 C8614 1.366 . S
C8615 C8616 1.414 . S
C8615 C8618 1.499 . S
C8616 H8596 0.950 . S
C8616 C8615 1.414 . S
C8616 C8617 1.374 . S
C8617 H8597 0.950 . S
C8617 C8613 1.385 . S
C8617 C8616 1.374 . S
C8618 C8615 1.499 . S
C8618 C8619 1.373 . S
C8618 C8620 1.389 . S
C8619 H8598 0.950 . S
C8619 C8618 1.373 . S
C8619 C8635 1.377 . S
C8620 C8618 1.389 . S
C8620 C8621 1.524 . S
C8620 C8634 1.377 . S
C8621 C8620 1.524 . S
C8621 C8622 1.397 . S
C8621 C8626 1.363 . S
C8622 H8599 0.950 . S
C8622 C8621 1.397 . S
C8622 C8623 1.334 . S
C8623 H8600 0.950 . S
C8623 C8622 1.334 . S
C8623 C8624 1.287 . S
C8624 C8623 1.287 . S
C8624 C8625 1.524 . S
C8624 H8643 0.913 . S
C8625 H8601 0.950 . S
C8625 C8624 1.524 . S
C8625 C8626 1.415 . S
C8626 H8602 0.950 . S
C8626 C8621 1.363 . S
C8626 C8625 1.415 . S
C8627 H8603 0.951 . S
C8627 C8628 1.366 . S
C8627 C8629 1.388 . S
C8628 C8627 1.366 . S
C8628 C8632 1.385 . S
C8629 H8604 0.951 . S
C8629 C8627 1.388 . S
C8629 C8630 1.366 . S
C8630 C8629 1.366 . S
C8630 C8631 1.414 . S
C8630 C8633 1.499 . S
C8631 H8605 0.950 . S
C8631 C8630 1.414 . S
C8631 C8632 1.374 . S
C8632 H8606 0.950 . S
C8632 C8628 1.385 . S
C8632 C8631 1.374 . S
C8633 C8630 1.499 . S
C8633 C8634 1.373 . S
C8633 C8635 1.389 . S
C8634 H8607 0.950 . S
C8634 C8620 1.377 . S
C8634 C8633 1.373 . S
C8635 C8619 1.377 . S
C8635 C8633 1.389 . S
C8635 C8636 1.524 . S
C8636 C8635 1.524 . S
C8636 C8637 1.397 . S
C8636 C8641 1.363 . S
C8637 H8608 0.950 . S
C8637 C8636 1.397 . S
C8637 C8638 1.334 . S
C8638 H8609 0.950 . S
C8638 C8637 1.334 . S
C8638 C8639 1.287 . S
C8639 C8638 1.287 . S
C8639 C8640 1.524 . S
C8639 H8642 0.999 . S
C8640 H8610 0.950 . S
C8640 C8639 1.524 . S
C8640 C8641 1.415 . S
C8641 H8611 0.950 . S
C8641 C8636 1.363 . S
C8641 C8640 1.415 . S
H8642 C8639 0.999 . S
H8643 C8624 0.913 . S
H8644 C8662 0.951 . S
H8645 C8664 0.951 . S
H8646 C8666 0.950 . S
H8647 C8667 0.950 . S
H8648 C8669 0.950 . S
H8649 C8672 0.950 . S
H8650 C8673 0.950 . S
H8651 C8675 0.950 . S
H8652 C8676 0.950 . S
H8653 C8677 0.951 . S
H8654 C8679 0.951 . S
H8655 C8681 0.950 . S
H8656 C8682 0.950 . S
H8657 C8684 0.950 . S
H8658 C8687 0.950 . S
H8659 C8688 0.950 . S
H8660 C8690 0.950 . S
H8661 C8691 0.950 . S
C8662 H8644 0.951 . S
C8662 C8663 1.366 . S
C8662 C8664 1.388 . S
C8663 C8662 1.366 . S
C8663 C8667 1.385 . S
C8664 H8645 0.951 . S
C8664 C8662 1.388 . S
C8664 C8665 1.366 . S
C8665 C8664 1.366 . S
C8665 C8666 1.414 . S
C8665 C8668 1.499 . S
C8666 H8646 0.950 . S
C8666 C8665 1.414 . S
C8666 C8667 1.374 . S
C8667 H8647 0.950 . S
C8667 C8663 1.385 . S
C8667 C8666 1.374 . S
C8668 C8665 1.499 . S
C8668 C8669 1.373 . S
C8668 C8670 1.389 . S
C8669 H8648 0.950 . S
C8669 C8668 1.373 . S
C8669 C8685 1.377 . S
C8670 C8668 1.389 . S
C8670 C8671 1.524 . S
C8670 C8684 1.377 . S
C8671 C8670 1.524 . S
C8671 C8672 1.397 . S
C8671 C8676 1.363 . S
C8672 H8649 0.950 . S
C8672 C8671 1.397 . S
C8672 C8673 1.334 . S
C8673 H8650 0.950 . S
C8673 C8672 1.334 . S
C8673 C8674 1.287 . S
C8674 C8673 1.287 . S
C8674 C8675 1.524 . S
C8674 H8693 0.913 . S
C8675 H8651 0.950 . S
C8675 C8674 1.524 . S
C8675 C8676 1.415 . S
C8676 H8652 0.950 . S
C8676 C8671 1.363 . S
C8676 C8675 1.415 . S
C8677 H8653 0.951 . S
C8677 C8678 1.366 . S
C8677 C8679 1.388 . S
C8678 C8677 1.366 . S
C8678 C8682 1.385 . S
C8679 H8654 0.951 . S
C8679 C8677 1.388 . S
C8679 C8680 1.366 . S
C8680 C8679 1.366 . S
C8680 C8681 1.414 . S
C8680 C8683 1.499 . S
C8681 H8655 0.950 . S
C8681 C8680 1.414 . S
C8681 C8682 1.374 . S
C8682 H8656 0.950 . S
C8682 C8678 1.385 . S
C8682 C8681 1.374 . S
C8683 C8680 1.499 . S
C8683 C8684 1.373 . S
C8683 C8685 1.389 . S
C8684 H8657 0.950 . S
C8684 C8670 1.377 . S
C8684 C8683 1.373 . S
C8685 C8669 1.377 . S
C8685 C8683 1.389 . S
C8685 C8686 1.524 . S
C8686 C8685 1.524 . S
C8686 C8687 1.397 . S
C8686 C8691 1.363 . S
C8687 H8658 0.950 . S
C8687 C8686 1.397 . S
C8687 C8688 1.334 . S
C8688 H8659 0.950 . S
C8688 C8687 1.334 . S
C8688 C8689 1.287 . S
C8689 C8688 1.287 . S
C8689 C8690 1.524 . S
C8689 H8692 0.999 . S
C8690 H8660 0.950 . S
C8690 C8689 1.524 . S
C8690 C8691 1.415 . S
C8691 H8661 0.950 . S
C8691 C8686 1.363 . S
C8691 C8690 1.415 . S
H8692 C8689 0.999 . S
H8693 C8674 0.913 . S
H8694 C8712 0.951 . S
H8695 C8714 0.951 . S
H8696 C8716 0.950 . S
H8697 C8717 0.950 . S
H8698 C8719 0.950 . S
H8699 C8722 0.950 . S
H8700 C8723 0.950 . S
H8701 C8725 0.950 . S
H8702 C8726 0.950 . S
H8703 C8727 0.951 . S
H8704 C8729 0.951 . S
H8705 C8731 0.950 . S
H8706 C8732 0.950 . S
H8707 C8734 0.950 . S
H8708 C8737 0.950 . S
H8709 C8738 0.950 . S
H8710 C8740 0.950 . S
H8711 C8741 0.950 . S
C8712 H8694 0.951 . S
C8712 C8713 1.366 . S
C8712 C8714 1.388 . S
C8713 C8712 1.366 . S
C8713 C8717 1.385 . S
C8714 H8695 0.951 . S
C8714 C8712 1.388 . S
C8714 C8715 1.366 . S
C8715 C8714 1.366 . S
C8715 C8716 1.414 . S
C8715 C8718 1.499 . S
C8716 H8696 0.950 . S
C8716 C8715 1.414 . S
C8716 C8717 1.374 . S
C8717 H8697 0.950 . S
C8717 C8713 1.385 . S
C8717 C8716 1.374 . S
C8718 C8715 1.499 . S
C8718 C8719 1.373 . S
C8718 C8720 1.389 . S
C8719 H8698 0.950 . S
C8719 C8718 1.373 . S
C8719 C8735 1.377 . S
C8720 C8718 1.389 . S
C8720 C8721 1.524 . S
C8720 C8734 1.377 . S
C8721 C8720 1.524 . S
C8721 C8722 1.397 . S
C8721 C8726 1.363 . S
C8722 H8699 0.950 . S
C8722 C8721 1.397 . S
C8722 C8723 1.334 . S
C8723 H8700 0.950 . S
C8723 C8722 1.334 . S
C8723 C8724 1.287 . S
C8724 C8723 1.287 . S
C8724 C8725 1.524 . S
C8724 H8743 0.913 . S
C8725 H8701 0.950 . S
C8725 C8724 1.524 . S
C8725 C8726 1.415 . S
C8726 H8702 0.950 . S
C8726 C8721 1.363 . S
C8726 C8725 1.415 . S
C8727 H8703 0.951 . S
C8727 C8728 1.366 . S
C8727 C8729 1.388 . S
C8728 C8727 1.366 . S
C8728 C8732 1.385 . S
C8729 H8704 0.951 . S
C8729 C8727 1.388 . S
C8729 C8730 1.366 . S
C8730 C8729 1.366 . S
C8730 C8731 1.414 . S
C8730 C8733 1.499 . S
C8731 H8705 0.950 . S
C8731 C8730 1.414 . S
C8731 C8732 1.374 . S
C8732 H8706 0.950 . S
C8732 C8728 1.385 . S
C8732 C8731 1.374 . S
C8733 C8730 1.499 . S
C8733 C8734 1.373 . S
C8733 C8735 1.389 . S
C8734 H8707 0.950 . S
C8734 C8720 1.377 . S
C8734 C8733 1.373 . S
C8735 C8719 1.377 . S
C8735 C8733 1.389 . S
C8735 C8736 1.524 . S
C8736 C8735 1.524 . S
C8736 C8737 1.397 . S
C8736 C8741 1.363 . S
C8737 H8708 0.950 . S
C8737 C8736 1.397 . S
C8737 C8738 1.334 . S
C8738 H8709 0.950 . S
C8738 C8737 1.334 . S
C8738 C8739 1.287 . S
C8739 C8738 1.287 . S
C8739 C8740 1.524 . S
C8739 H8742 0.999 . S
C8740 H8710 0.950 . S
C8740 C8739 1.524 . S
C8740 C8741 1.415 . S
C8741 H8711 0.950 . S
C8741 C8736 1.363 . S
C8741 C8740 1.415 . S
H8742 C8739 0.999 . S
H8743 C8724 0.913 . S
H8744 C8762 0.951 . S
H8745 C8764 0.951 . S
H8746 C8766 0.950 . S
H8747 C8767 0.950 . S
H8748 C8769 0.950 . S
H8749 C8772 0.950 . S
H8750 C8773 0.950 . S
H8751 C8775 0.950 . S
H8752 C8776 0.950 . S
H8753 C8777 0.951 . S
H8754 C8779 0.951 . S
H8755 C8781 0.950 . S
H8756 C8782 0.950 . S
H8757 C8784 0.950 . S
H8758 C8787 0.950 . S
H8759 C8788 0.950 . S
H8760 C8790 0.950 . S
H8761 C8791 0.950 . S
C8762 H8744 0.951 . S
C8762 C8763 1.366 . S
C8762 C8764 1.388 . S
C8763 C8762 1.366 . S
C8763 C8767 1.385 . S
C8764 H8745 0.951 . S
C8764 C8762 1.388 . S
C8764 C8765 1.366 . S
C8765 C8764 1.366 . S
C8765 C8766 1.414 . S
C8765 C8768 1.499 . S
C8766 H8746 0.950 . S
C8766 C8765 1.414 . S
C8766 C8767 1.374 . S
C8767 H8747 0.950 . S
C8767 C8763 1.385 . S
C8767 C8766 1.374 . S
C8768 C8765 1.499 . S
C8768 C8769 1.373 . S
C8768 C8770 1.389 . S
C8769 H8748 0.950 . S
C8769 C8768 1.373 . S
C8769 C8785 1.377 . S
C8770 C8768 1.389 . S
C8770 C8771 1.524 . S
C8770 C8784 1.377 . S
C8771 C8770 1.524 . S
C8771 C8772 1.397 . S
C8771 C8776 1.363 . S
C8772 H8749 0.950 . S
C8772 C8771 1.397 . S
C8772 C8773 1.334 . S
C8773 H8750 0.950 . S
C8773 C8772 1.334 . S
C8773 C8774 1.287 . S
C8774 C8773 1.287 . S
C8774 C8775 1.524 . S
C8774 H8793 0.913 . S
C8775 H8751 0.950 . S
C8775 C8774 1.524 . S
C8775 C8776 1.415 . S
C8776 H8752 0.950 . S
C8776 C8771 1.363 . S
C8776 C8775 1.415 . S
C8777 H8753 0.951 . S
C8777 C8778 1.366 . S
C8777 C8779 1.388 . S
C8778 C8777 1.366 . S
C8778 C8782 1.385 . S
C8779 H8754 0.951 . S
C8779 C8777 1.388 . S
C8779 C8780 1.366 . S
C8780 C8779 1.366 . S
C8780 C8781 1.414 . S
C8780 C8783 1.499 . S
C8781 H8755 0.950 . S
C8781 C8780 1.414 . S
C8781 C8782 1.374 . S
C8782 H8756 0.950 . S
C8782 C8778 1.385 . S
C8782 C8781 1.374 . S
C8783 C8780 1.499 . S
C8783 C8784 1.373 . S
C8783 C8785 1.389 . S
C8784 H8757 0.950 . S
C8784 C8770 1.377 . S
C8784 C8783 1.373 . S
C8785 C8769 1.377 . S
C8785 C8783 1.389 . S
C8785 C8786 1.524 . S
C8786 C8785 1.524 . S
C8786 C8787 1.397 . S
C8786 C8791 1.363 . S
C8787 H8758 0.950 . S
C8787 C8786 1.397 . S
C8787 C8788 1.334 . S
C8788 H8759 0.950 . S
C8788 C8787 1.334 . S
C8788 C8789 1.287 . S
C8789 C8788 1.287 . S
C8789 C8790 1.524 . S
C8789 H8792 0.999 . S
C8790 H8760 0.950 . S
C8790 C8789 1.524 . S
C8790 C8791 1.415 . S
C8791 H8761 0.950 . S
C8791 C8786 1.363 . S
C8791 C8790 1.415 . S
H8792 C8789 0.999 . S
H8793 C8774 0.913 . S
H8794 C8812 0.951 . S
H8795 C8814 0.951 . S
H8796 C8816 0.950 . S
H8797 C8817 0.950 . S
H8798 C8819 0.950 . S
H8799 C8822 0.950 . S
H8800 C8823 0.950 . S
H8801 C8825 0.950 . S
H8802 C8826 0.950 . S
H8803 C8827 0.951 . S
H8804 C8829 0.951 . S
H8805 C8831 0.950 . S
H8806 C8832 0.950 . S
H8807 C8834 0.950 . S
H8808 C8837 0.950 . S
H8809 C8838 0.950 . S
H8810 C8840 0.950 . S
H8811 C8841 0.950 . S
C8812 H8794 0.951 . S
C8812 C8813 1.366 . S
C8812 C8814 1.388 . S
C8813 C8812 1.366 . S
C8813 C8817 1.385 . S
C8814 H8795 0.951 . S
C8814 C8812 1.388 . S
C8814 C8815 1.366 . S
C8815 C8814 1.366 . S
C8815 C8816 1.414 . S
C8815 C8818 1.499 . S
C8816 H8796 0.950 . S
C8816 C8815 1.414 . S
C8816 C8817 1.374 . S
C8817 H8797 0.950 . S
C8817 C8813 1.385 . S
C8817 C8816 1.374 . S
C8818 C8815 1.499 . S
C8818 C8819 1.373 . S
C8818 C8820 1.389 . S
C8819 H8798 0.950 . S
C8819 C8818 1.373 . S
C8819 C8835 1.377 . S
C8820 C8818 1.389 . S
C8820 C8821 1.524 . S
C8820 C8834 1.377 . S
C8821 C8820 1.524 . S
C8821 C8822 1.397 . S
C8821 C8826 1.363 . S
C8822 H8799 0.950 . S
C8822 C8821 1.397 . S
C8822 C8823 1.334 . S
C8823 H8800 0.950 . S
C8823 C8822 1.334 . S
C8823 C8824 1.287 . S
C8824 C8823 1.287 . S
C8824 C8825 1.524 . S
C8824 H8843 0.913 . S
C8825 H8801 0.950 . S
C8825 C8824 1.524 . S
C8825 C8826 1.415 . S
C8826 H8802 0.950 . S
C8826 C8821 1.363 . S
C8826 C8825 1.415 . S
C8827 H8803 0.951 . S
C8827 C8828 1.366 . S
C8827 C8829 1.388 . S
C8828 C8827 1.366 . S
C8828 C8832 1.385 . S
C8829 H8804 0.951 . S
C8829 C8827 1.388 . S
C8829 C8830 1.366 . S
C8830 C8829 1.366 . S
C8830 C8831 1.414 . S
C8830 C8833 1.499 . S
C8831 H8805 0.950 . S
C8831 C8830 1.414 . S
C8831 C8832 1.374 . S
C8832 H8806 0.950 . S
C8832 C8828 1.385 . S
C8832 C8831 1.374 . S
C8833 C8830 1.499 . S
C8833 C8834 1.373 . S
C8833 C8835 1.389 . S
C8834 H8807 0.950 . S
C8834 C8820 1.377 . S
C8834 C8833 1.373 . S
C8835 C8819 1.377 . S
C8835 C8833 1.389 . S
C8835 C8836 1.524 . S
C8836 C8835 1.524 . S
C8836 C8837 1.397 . S
C8836 C8841 1.363 . S
C8837 H8808 0.950 . S
C8837 C8836 1.397 . S
C8837 C8838 1.334 . S
C8838 H8809 0.950 . S
C8838 C8837 1.334 . S
C8838 C8839 1.287 . S
C8839 C8838 1.287 . S
C8839 C8840 1.524 . S
C8839 H8842 0.999 . S
C8840 H8810 0.950 . S
C8840 C8839 1.524 . S
C8840 C8841 1.415 . S
C8841 H8811 0.950 . S
C8841 C8836 1.363 . S
C8841 C8840 1.415 . S
H8842 C8839 0.999 . S
H8843 C8824 0.913 . S
H8844 C8862 0.951 . S
H8845 C8864 0.951 . S
H8846 C8866 0.950 . S
H8847 C8867 0.950 . S
H8848 C8869 0.950 . S
H8849 C8872 0.950 . S
H8850 C8873 0.950 . S
H8851 C8875 0.950 . S
H8852 C8876 0.950 . S
H8853 C8877 0.951 . S
H8854 C8879 0.951 . S
H8855 C8881 0.950 . S
H8856 C8882 0.950 . S
H8857 C8884 0.950 . S
H8858 C8887 0.950 . S
H8859 C8888 0.950 . S
H8860 C8890 0.950 . S
H8861 C8891 0.950 . S
C8862 H8844 0.951 . S
C8862 C8863 1.366 . S
C8862 C8864 1.388 . S
C8863 C8862 1.366 . S
C8863 C8867 1.385 . S
C8864 H8845 0.951 . S
C8864 C8862 1.388 . S
C8864 C8865 1.366 . S
C8865 C8864 1.366 . S
C8865 C8866 1.414 . S
C8865 C8868 1.499 . S
C8866 H8846 0.950 . S
C8866 C8865 1.414 . S
C8866 C8867 1.374 . S
C8867 H8847 0.950 . S
C8867 C8863 1.385 . S
C8867 C8866 1.374 . S
C8868 C8865 1.499 . S
C8868 C8869 1.373 . S
C8868 C8870 1.389 . S
C8869 H8848 0.950 . S
C8869 C8868 1.373 . S
C8869 C8885 1.377 . S
C8870 C8868 1.389 . S
C8870 C8871 1.524 . S
C8870 C8884 1.377 . S
C8871 C8870 1.524 . S
C8871 C8872 1.397 . S
C8871 C8876 1.363 . S
C8872 H8849 0.950 . S
C8872 C8871 1.397 . S
C8872 C8873 1.334 . S
C8873 H8850 0.950 . S
C8873 C8872 1.334 . S
C8873 C8874 1.287 . S
C8874 C8873 1.287 . S
C8874 C8875 1.524 . S
C8874 H8893 0.913 . S
C8875 H8851 0.950 . S
C8875 C8874 1.524 . S
C8875 C8876 1.415 . S
C8876 H8852 0.950 . S
C8876 C8871 1.363 . S
C8876 C8875 1.415 . S
C8877 H8853 0.951 . S
C8877 C8878 1.366 . S
C8877 C8879 1.388 . S
C8878 C8877 1.366 . S
C8878 C8882 1.385 . S
C8879 H8854 0.951 . S
C8879 C8877 1.388 . S
C8879 C8880 1.366 . S
C8880 C8879 1.366 . S
C8880 C8881 1.414 . S
C8880 C8883 1.499 . S
C8881 H8855 0.950 . S
C8881 C8880 1.414 . S
C8881 C8882 1.374 . S
C8882 H8856 0.950 . S
C8882 C8878 1.385 . S
C8882 C8881 1.374 . S
C8883 C8880 1.499 . S
C8883 C8884 1.373 . S
C8883 C8885 1.389 . S
C8884 H8857 0.950 . S
C8884 C8870 1.377 . S
C8884 C8883 1.373 . S
C8885 C8869 1.377 . S
C8885 C8883 1.389 . S
C8885 C8886 1.524 . S
C8886 C8885 1.524 . S
C8886 C8887 1.397 . S
C8886 C8891 1.363 . S
C8887 H8858 0.950 . S
C8887 C8886 1.397 . S
C8887 C8888 1.334 . S
C8888 H8859 0.950 . S
C8888 C8887 1.334 . S
C8888 C8889 1.287 . S
C8889 C8888 1.287 . S
C8889 C8890 1.524 . S
C8889 H8892 0.999 . S
C8890 H8860 0.950 . S
C8890 C8889 1.524 . S
C8890 C8891 1.415 . S
C8891 H8861 0.950 . S
C8891 C8886 1.363 . S
C8891 C8890 1.415 . S
H8892 C8889 0.999 . S
H8893 C8874 0.913 . S
H8894 C8912 0.951 . S
H8895 C8914 0.951 . S
H8896 C8916 0.950 . S
H8897 C8917 0.950 . S
H8898 C8919 0.950 . S
H8899 C8922 0.950 . S
H8900 C8923 0.950 . S
H8901 C8925 0.950 . S
H8902 C8926 0.950 . S
H8903 C8927 0.951 . S
H8904 C8929 0.951 . S
H8905 C8931 0.950 . S
H8906 C8932 0.950 . S
H8907 C8934 0.950 . S
H8908 C8937 0.950 . S
H8909 C8938 0.950 . S
H8910 C8940 0.950 . S
H8911 C8941 0.950 . S
C8912 H8894 0.951 . S
C8912 C8913 1.366 . S
C8912 C8914 1.388 . S
C8913 C8912 1.366 . S
C8913 C8917 1.385 . S
C8914 H8895 0.951 . S
C8914 C8912 1.388 . S
C8914 C8915 1.366 . S
C8915 C8914 1.366 . S
C8915 C8916 1.414 . S
C8915 C8918 1.499 . S
C8916 H8896 0.950 . S
C8916 C8915 1.414 . S
C8916 C8917 1.374 . S
C8917 H8897 0.950 . S
C8917 C8913 1.385 . S
C8917 C8916 1.374 . S
C8918 C8915 1.499 . S
C8918 C8919 1.373 . S
C8918 C8920 1.389 . S
C8919 H8898 0.950 . S
C8919 C8918 1.373 . S
C8919 C8935 1.377 . S
C8920 C8918 1.389 . S
C8920 C8921 1.524 . S
C8920 C8934 1.377 . S
C8921 C8920 1.524 . S
C8921 C8922 1.397 . S
C8921 C8926 1.363 . S
C8922 H8899 0.950 . S
C8922 C8921 1.397 . S
C8922 C8923 1.334 . S
C8923 H8900 0.950 . S
C8923 C8922 1.334 . S
C8923 C8924 1.287 . S
C8924 C8923 1.287 . S
C8924 C8925 1.524 . S
C8924 H8943 0.913 . S
C8925 H8901 0.950 . S
C8925 C8924 1.524 . S
C8925 C8926 1.415 . S
C8926 H8902 0.950 . S
C8926 C8921 1.363 . S
C8926 C8925 1.415 . S
C8927 H8903 0.951 . S
C8927 C8928 1.366 . S
C8927 C8929 1.388 . S
C8928 C8927 1.366 . S
C8928 C8932 1.385 . S
C8929 H8904 0.951 . S
C8929 C8927 1.388 . S
C8929 C8930 1.366 . S
C8930 C8929 1.366 . S
C8930 C8931 1.414 . S
C8930 C8933 1.499 . S
C8931 H8905 0.950 . S
C8931 C8930 1.414 . S
C8931 C8932 1.374 . S
C8932 H8906 0.950 . S
C8932 C8928 1.385 . S
C8932 C8931 1.374 . S
C8933 C8930 1.499 . S
C8933 C8934 1.373 . S
C8933 C8935 1.389 . S
C8934 H8907 0.950 . S
C8934 C8920 1.377 . S
C8934 C8933 1.373 . S
C8935 C8919 1.377 . S
C8935 C8933 1.389 . S
C8935 C8936 1.524 . S
C8936 C8935 1.524 . S
C8936 C8937 1.397 . S
C8936 C8941 1.363 . S
C8937 H8908 0.950 . S
C8937 C8936 1.397 . S
C8937 C8938 1.334 . S
C8938 H8909 0.950 . S
C8938 C8937 1.334 . S
C8938 C8939 1.287 . S
C8939 C8938 1.287 . S
C8939 C8940 1.524 . S
C8939 H8942 0.999 . S
C8940 H8910 0.950 . S
C8940 C8939 1.524 . S
C8940 C8941 1.415 . S
C8941 H8911 0.950 . S
C8941 C8936 1.363 . S
C8941 C8940 1.415 . S
H8942 C8939 0.999 . S
H8943 C8924 0.913 . S
H8944 C8962 0.951 . S
H8945 C8964 0.951 . S
H8946 C8966 0.950 . S
H8947 C8967 0.950 . S
H8948 C8969 0.950 . S
H8949 C8972 0.950 . S
H8950 C8973 0.950 . S
H8951 C8975 0.950 . S
H8952 C8976 0.950 . S
H8953 C8977 0.951 . S
H8954 C8979 0.951 . S
H8955 C8981 0.950 . S
H8956 C8982 0.950 . S
H8957 C8984 0.950 . S
H8958 C8987 0.950 . S
H8959 C8988 0.950 . S
H8960 C8990 0.950 . S
H8961 C8991 0.950 . S
C8962 H8944 0.951 . S
C8962 C8963 1.366 . S
C8962 C8964 1.388 . S
C8963 C8962 1.366 . S
C8963 C8967 1.385 . S
C8964 H8945 0.951 . S
C8964 C8962 1.388 . S
C8964 C8965 1.366 . S
C8965 C8964 1.366 . S
C8965 C8966 1.414 . S
C8965 C8968 1.499 . S
C8966 H8946 0.950 . S
C8966 C8965 1.414 . S
C8966 C8967 1.374 . S
C8967 H8947 0.950 . S
C8967 C8963 1.385 . S
C8967 C8966 1.374 . S
C8968 C8965 1.499 . S
C8968 C8969 1.373 . S
C8968 C8970 1.389 . S
C8969 H8948 0.950 . S
C8969 C8968 1.373 . S
C8969 C8985 1.377 . S
C8970 C8968 1.389 . S
C8970 C8971 1.524 . S
C8970 C8984 1.377 . S
C8971 C8970 1.524 . S
C8971 C8972 1.397 . S
C8971 C8976 1.363 . S
C8972 H8949 0.950 . S
C8972 C8971 1.397 . S
C8972 C8973 1.334 . S
C8973 H8950 0.950 . S
C8973 C8972 1.334 . S
C8973 C8974 1.287 . S
C8974 C8973 1.287 . S
C8974 C8975 1.524 . S
C8974 H8993 0.913 . S
C8975 H8951 0.950 . S
C8975 C8974 1.524 . S
C8975 C8976 1.415 . S
C8976 H8952 0.950 . S
C8976 C8971 1.363 . S
C8976 C8975 1.415 . S
C8977 H8953 0.951 . S
C8977 C8978 1.366 . S
C8977 C8979 1.388 . S
C8978 C8977 1.366 . S
C8978 C8982 1.385 . S
C8979 H8954 0.951 . S
C8979 C8977 1.388 . S
C8979 C8980 1.366 . S
C8980 C8979 1.366 . S
C8980 C8981 1.414 . S
C8980 C8983 1.499 . S
C8981 H8955 0.950 . S
C8981 C8980 1.414 . S
C8981 C8982 1.374 . S
C8982 H8956 0.950 . S
C8982 C8978 1.385 . S
C8982 C8981 1.374 . S
C8983 C8980 1.499 . S
C8983 C8984 1.373 . S
C8983 C8985 1.389 . S
C8984 H8957 0.950 . S
C8984 C8970 1.377 . S
C8984 C8983 1.373 . S
C8985 C8969 1.377 . S
C8985 C8983 1.389 . S
C8985 C8986 1.524 . S
C8986 C8985 1.524 . S
C8986 C8987 1.397 . S
C8986 C8991 1.363 . S
C8987 H8958 0.950 . S
C8987 C8986 1.397 . S
C8987 C8988 1.334 . S
C8988 H8959 0.950 . S
C8988 C8987 1.334 . S
C8988 C8989 1.287 . S
C8989 C8988 1.287 . S
C8989 C8990 1.524 . S
C8989 H8992 0.999 . S
C8990 H8960 0.950 . S
C8990 C8989 1.524 . S
C8990 C8991 1.415 . S
C8991 H8961 0.950 . S
C8991 C8986 1.363 . S
C8991 C8990 1.415 . S
H8992 C8989 0.999 . S
H8993 C8974 0.913 . S
H8994 C9012 0.951 . S
H8995 C9014 0.951 . S
H8996 C9016 0.950 . S
H8997 C9017 0.950 . S
H8998 C9019 0.950 . S
H8999 C9022 0.950 . S
H9000 C9023 0.950 . S
H9001 C9025 0.950 . S
H9002 C9026 0.950 . S
H9003 C9027 0.951 . S
H9004 C9029 0.951 . S
H9005 C9031 0.950 . S
H9006 C9032 0.950 . S
H9007 C9034 0.950 . S
H9008 C9037 0.950 . S
H9009 C9038 0.950 . S
H9010 C9040 0.950 . S
H9011 C9041 0.950 . S
C9012 H8994 0.951 . S
C9012 C9013 1.366 . S
C9012 C9014 1.388 . S
C9013 C9012 1.366 . S
C9013 C9017 1.385 . S
C9014 H8995 0.951 . S
C9014 C9012 1.388 . S
C9014 C9015 1.366 . S
C9015 C9014 1.366 . S
C9015 C9016 1.414 . S
C9015 C9018 1.499 . S
C9016 H8996 0.950 . S
C9016 C9015 1.414 . S
C9016 C9017 1.374 . S
C9017 H8997 0.950 . S
C9017 C9013 1.385 . S
C9017 C9016 1.374 . S
C9018 C9015 1.499 . S
C9018 C9019 1.373 . S
C9018 C9020 1.389 . S
C9019 H8998 0.950 . S
C9019 C9018 1.373 . S
C9019 C9035 1.377 . S
C9020 C9018 1.389 . S
C9020 C9021 1.524 . S
C9020 C9034 1.377 . S
C9021 C9020 1.524 . S
C9021 C9022 1.397 . S
C9021 C9026 1.363 . S
C9022 H8999 0.950 . S
C9022 C9021 1.397 . S
C9022 C9023 1.334 . S
C9023 H9000 0.950 . S
C9023 C9022 1.334 . S
C9023 C9024 1.287 . S
C9024 C9023 1.287 . S
C9024 C9025 1.524 . S
C9024 H9043 0.913 . S
C9025 H9001 0.950 . S
C9025 C9024 1.524 . S
C9025 C9026 1.415 . S
C9026 H9002 0.950 . S
C9026 C9021 1.363 . S
C9026 C9025 1.415 . S
C9027 H9003 0.951 . S
C9027 C9028 1.366 . S
C9027 C9029 1.388 . S
C9028 C9027 1.366 . S
C9028 C9032 1.385 . S
C9029 H9004 0.951 . S
C9029 C9027 1.388 . S
C9029 C9030 1.366 . S
C9030 C9029 1.366 . S
C9030 C9031 1.414 . S
C9030 C9033 1.499 . S
C9031 H9005 0.950 . S
C9031 C9030 1.414 . S
C9031 C9032 1.374 . S
C9032 H9006 0.950 . S
C9032 C9028 1.385 . S
C9032 C9031 1.374 . S
C9033 C9030 1.499 . S
C9033 C9034 1.373 . S
C9033 C9035 1.389 . S
C9034 H9007 0.950 . S
C9034 C9020 1.377 . S
C9034 C9033 1.373 . S
C9035 C9019 1.377 . S
C9035 C9033 1.389 . S
C9035 C9036 1.524 . S
C9036 C9035 1.524 . S
C9036 C9037 1.397 . S
C9036 C9041 1.363 . S
C9037 H9008 0.950 . S
C9037 C9036 1.397 . S
C9037 C9038 1.334 . S
C9038 H9009 0.950 . S
C9038 C9037 1.334 . S
C9038 C9039 1.287 . S
C9039 C9038 1.287 . S
C9039 C9040 1.524 . S
C9039 H9042 0.999 . S
C9040 H9010 0.950 . S
C9040 C9039 1.524 . S
C9040 C9041 1.415 . S
C9041 H9011 0.950 . S
C9041 C9036 1.363 . S
C9041 C9040 1.415 . S
H9042 C9039 0.999 . S
H9043 C9024 0.913 . S
H9044 C9062 0.951 . S
H9045 C9064 0.951 . S
H9046 C9066 0.950 . S
H9047 C9067 0.950 . S
H9048 C9069 0.950 . S
H9049 C9072 0.950 . S
H9050 C9073 0.950 . S
H9051 C9075 0.950 . S
H9052 C9076 0.950 . S
H9053 C9077 0.951 . S
H9054 C9079 0.951 . S
H9055 C9081 0.950 . S
H9056 C9082 0.950 . S
H9057 C9084 0.950 . S
H9058 C9087 0.950 . S
H9059 C9088 0.950 . S
H9060 C9090 0.950 . S
H9061 C9091 0.950 . S
C9062 H9044 0.951 . S
C9062 C9063 1.366 . S
C9062 C9064 1.388 . S
C9063 C9062 1.366 . S
C9063 C9067 1.385 . S
C9064 H9045 0.951 . S
C9064 C9062 1.388 . S
C9064 C9065 1.366 . S
C9065 C9064 1.366 . S
C9065 C9066 1.414 . S
C9065 C9068 1.499 . S
C9066 H9046 0.950 . S
C9066 C9065 1.414 . S
C9066 C9067 1.374 . S
C9067 H9047 0.950 . S
C9067 C9063 1.385 . S
C9067 C9066 1.374 . S
C9068 C9065 1.499 . S
C9068 C9069 1.373 . S
C9068 C9070 1.389 . S
C9069 H9048 0.950 . S
C9069 C9068 1.373 . S
C9069 C9085 1.377 . S
C9070 C9068 1.389 . S
C9070 C9071 1.524 . S
C9070 C9084 1.377 . S
C9071 C9070 1.524 . S
C9071 C9072 1.397 . S
C9071 C9076 1.363 . S
C9072 H9049 0.950 . S
C9072 C9071 1.397 . S
C9072 C9073 1.334 . S
C9073 H9050 0.950 . S
C9073 C9072 1.334 . S
C9073 C9074 1.287 . S
C9074 C9073 1.287 . S
C9074 C9075 1.524 . S
C9074 H9093 0.913 . S
C9075 H9051 0.950 . S
C9075 C9074 1.524 . S
C9075 C9076 1.415 . S
C9076 H9052 0.950 . S
C9076 C9071 1.363 . S
C9076 C9075 1.415 . S
C9077 H9053 0.951 . S
C9077 C9078 1.366 . S
C9077 C9079 1.388 . S
C9078 C9077 1.366 . S
C9078 C9082 1.385 . S
C9079 H9054 0.951 . S
C9079 C9077 1.388 . S
C9079 C9080 1.366 . S
C9080 C9079 1.366 . S
C9080 C9081 1.414 . S
C9080 C9083 1.499 . S
C9081 H9055 0.950 . S
C9081 C9080 1.414 . S
C9081 C9082 1.374 . S
C9082 H9056 0.950 . S
C9082 C9078 1.385 . S
C9082 C9081 1.374 . S
C9083 C9080 1.499 . S
C9083 C9084 1.373 . S
C9083 C9085 1.389 . S
C9084 H9057 0.950 . S
C9084 C9070 1.377 . S
C9084 C9083 1.373 . S
C9085 C9069 1.377 . S
C9085 C9083 1.389 . S
C9085 C9086 1.524 . S
C9086 C9085 1.524 . S
C9086 C9087 1.397 . S
C9086 C9091 1.363 . S
C9087 H9058 0.950 . S
C9087 C9086 1.397 . S
C9087 C9088 1.334 . S
C9088 H9059 0.950 . S
C9088 C9087 1.334 . S
C9088 C9089 1.287 . S
C9089 C9088 1.287 . S
C9089 C9090 1.524 . S
C9089 H9092 0.999 . S
C9090 H9060 0.950 . S
C9090 C9089 1.524 . S
C9090 C9091 1.415 . S
C9091 H9061 0.950 . S
C9091 C9086 1.363 . S
C9091 C9090 1.415 . S
H9092 C9089 0.999 . S
H9093 C9074 0.913 . S
H9094 C9112 0.951 . S
H9095 C9114 0.951 . S
H9096 C9116 0.950 . S
H9097 C9117 0.950 . S
H9098 C9119 0.950 . S
H9099 C9122 0.950 . S
H9100 C9123 0.950 . S
H9101 C9125 0.950 . S
H9102 C9126 0.950 . S
H9103 C9127 0.951 . S
H9104 C9129 0.951 . S
H9105 C9131 0.950 . S
H9106 C9132 0.950 . S
H9107 C9134 0.950 . S
H9108 C9137 0.950 . S
H9109 C9138 0.950 . S
H9110 C9140 0.950 . S
H9111 C9141 0.950 . S
C9112 H9094 0.951 . S
C9112 C9113 1.366 . S
C9112 C9114 1.388 . S
C9113 C9112 1.366 . S
C9113 C9117 1.385 . S
C9114 H9095 0.951 . S
C9114 C9112 1.388 . S
C9114 C9115 1.366 . S
C9115 C9114 1.366 . S
C9115 C9116 1.414 . S
C9115 C9118 1.499 . S
C9116 H9096 0.950 . S
C9116 C9115 1.414 . S
C9116 C9117 1.374 . S
C9117 H9097 0.950 . S
C9117 C9113 1.385 . S
C9117 C9116 1.374 . S
C9118 C9115 1.499 . S
C9118 C9119 1.373 . S
C9118 C9120 1.389 . S
C9119 H9098 0.950 . S
C9119 C9118 1.373 . S
C9119 C9135 1.377 . S
C9120 C9118 1.389 . S
C9120 C9121 1.524 . S
C9120 C9134 1.377 . S
C9121 C9120 1.524 . S
C9121 C9122 1.397 . S
C9121 C9126 1.363 . S
C9122 H9099 0.950 . S
C9122 C9121 1.397 . S
C9122 C9123 1.334 . S
C9123 H9100 0.950 . S
C9123 C9122 1.334 . S
C9123 C9124 1.287 . S
C9124 C9123 1.287 . S
C9124 C9125 1.524 . S
C9124 H9143 0.913 . S
C9125 H9101 0.950 . S
C9125 C9124 1.524 . S
C9125 C9126 1.415 . S
C9126 H9102 0.950 . S
C9126 C9121 1.363 . S
C9126 C9125 1.415 . S
C9127 H9103 0.951 . S
C9127 C9128 1.366 . S
C9127 C9129 1.388 . S
C9128 C9127 1.366 . S
C9128 C9132 1.385 . S
C9129 H9104 0.951 . S
C9129 C9127 1.388 . S
C9129 C9130 1.366 . S
C9130 C9129 1.366 . S
C9130 C9131 1.414 . S
C9130 C9133 1.499 . S
C9131 H9105 0.950 . S
C9131 C9130 1.414 . S
C9131 C9132 1.374 . S
C9132 H9106 0.950 . S
C9132 C9128 1.385 . S
C9132 C9131 1.374 . S
C9133 C9130 1.499 . S
C9133 C9134 1.373 . S
C9133 C9135 1.389 . S
C9134 H9107 0.950 . S
C9134 C9120 1.377 . S
C9134 C9133 1.373 . S
C9135 C9119 1.377 . S
C9135 C9133 1.389 . S
C9135 C9136 1.524 . S
C9136 C9135 1.524 . S
C9136 C9137 1.397 . S
C9136 C9141 1.363 . S
C9137 H9108 0.950 . S
C9137 C9136 1.397 . S
C9137 C9138 1.334 . S
C9138 H9109 0.950 . S
C9138 C9137 1.334 . S
C9138 C9139 1.287 . S
C9139 C9138 1.287 . S
C9139 C9140 1.524 . S
C9139 H9142 0.999 . S
C9140 H9110 0.950 . S
C9140 C9139 1.524 . S
C9140 C9141 1.415 . S
C9141 H9111 0.950 . S
C9141 C9136 1.363 . S
C9141 C9140 1.415 . S
H9142 C9139 0.999 . S
H9143 C9124 0.913 . S
H9144 C9162 0.951 . S
H9145 C9164 0.951 . S
H9146 C9166 0.950 . S
H9147 C9167 0.950 . S
H9148 C9169 0.950 . S
H9149 C9172 0.950 . S
H9150 C9173 0.950 . S
H9151 C9175 0.950 . S
H9152 C9176 0.950 . S
H9153 C9177 0.951 . S
H9154 C9179 0.951 . S
H9155 C9181 0.950 . S
H9156 C9182 0.950 . S
H9157 C9184 0.950 . S
H9158 C9187 0.950 . S
H9159 C9188 0.950 . S
H9160 C9190 0.950 . S
H9161 C9191 0.950 . S
C9162 H9144 0.951 . S
C9162 C9163 1.366 . S
C9162 C9164 1.388 . S
C9163 C9162 1.366 . S
C9163 C9167 1.385 . S
C9164 H9145 0.951 . S
C9164 C9162 1.388 . S
C9164 C9165 1.366 . S
C9165 C9164 1.366 . S
C9165 C9166 1.414 . S
C9165 C9168 1.499 . S
C9166 H9146 0.950 . S
C9166 C9165 1.414 . S
C9166 C9167 1.374 . S
C9167 H9147 0.950 . S
C9167 C9163 1.385 . S
C9167 C9166 1.374 . S
C9168 C9165 1.499 . S
C9168 C9169 1.373 . S
C9168 C9170 1.389 . S
C9169 H9148 0.950 . S
C9169 C9168 1.373 . S
C9169 C9185 1.377 . S
C9170 C9168 1.389 . S
C9170 C9171 1.524 . S
C9170 C9184 1.377 . S
C9171 C9170 1.524 . S
C9171 C9172 1.397 . S
C9171 C9176 1.363 . S
C9172 H9149 0.950 . S
C9172 C9171 1.397 . S
C9172 C9173 1.334 . S
C9173 H9150 0.950 . S
C9173 C9172 1.334 . S
C9173 C9174 1.287 . S
C9174 C9173 1.287 . S
C9174 C9175 1.524 . S
C9174 H9193 0.913 . S
C9175 H9151 0.950 . S
C9175 C9174 1.524 . S
C9175 C9176 1.415 . S
C9176 H9152 0.950 . S
C9176 C9171 1.363 . S
C9176 C9175 1.415 . S
C9177 H9153 0.951 . S
C9177 C9178 1.366 . S
C9177 C9179 1.388 . S
C9178 C9177 1.366 . S
C9178 C9182 1.385 . S
C9179 H9154 0.951 . S
C9179 C9177 1.388 . S
C9179 C9180 1.366 . S
C9180 C9179 1.366 . S
C9180 C9181 1.414 . S
C9180 C9183 1.499 . S
C9181 H9155 0.950 . S
C9181 C9180 1.414 . S
C9181 C9182 1.374 . S
C9182 H9156 0.950 . S
C9182 C9178 1.385 . S
C9182 C9181 1.374 . S
C9183 C9180 1.499 . S
C9183 C9184 1.373 . S
C9183 C9185 1.389 . S
C9184 H9157 0.950 . S
C9184 C9170 1.377 . S
C9184 C9183 1.373 . S
C9185 C9169 1.377 . S
C9185 C9183 1.389 . S
C9185 C9186 1.524 . S
C9186 C9185 1.524 . S
C9186 C9187 1.397 . S
C9186 C9191 1.363 . S
C9187 H9158 0.950 . S
C9187 C9186 1.397 . S
C9187 C9188 1.334 . S
C9188 H9159 0.950 . S
C9188 C9187 1.334 . S
C9188 C9189 1.287 . S
C9189 C9188 1.287 . S
C9189 C9190 1.524 . S
C9189 H9192 0.999 . S
C9190 H9160 0.950 . S
C9190 C9189 1.524 . S
C9190 C9191 1.415 . S
C9191 H9161 0.950 . S
C9191 C9186 1.363 . S
C9191 C9190 1.415 . S
H9192 C9189 0.999 . S
H9193 C9174 0.913 . S
H9194 C9212 0.951 . S
H9195 C9214 0.951 . S
H9196 C9216 0.950 . S
H9197 C9217 0.950 . S
H9198 C9219 0.950 . S
H9199 C9222 0.950 . S
H9200 C9223 0.950 . S
H9201 C9225 0.950 . S
H9202 C9226 0.950 . S
H9203 C9227 0.951 . S
H9204 C9229 0.951 . S
H9205 C9231 0.950 . S
H9206 C9232 0.950 . S
H9207 C9234 0.950 . S
H9208 C9237 0.950 . S
H9209 C9238 0.950 . S
H9210 C9240 0.950 . S
H9211 C9241 0.950 . S
C9212 H9194 0.951 . S
C9212 C9213 1.366 . S
C9212 C9214 1.388 . S
C9213 C9212 1.366 . S
C9213 C9217 1.385 . S
C9214 H9195 0.951 . S
C9214 C9212 1.388 . S
C9214 C9215 1.366 . S
C9215 C9214 1.366 . S
C9215 C9216 1.414 . S
C9215 C9218 1.499 . S
C9216 H9196 0.950 . S
C9216 C9215 1.414 . S
C9216 C9217 1.374 . S
C9217 H9197 0.950 . S
C9217 C9213 1.385 . S
C9217 C9216 1.374 . S
C9218 C9215 1.499 . S
C9218 C9219 1.373 . S
C9218 C9220 1.389 . S
C9219 H9198 0.950 . S
C9219 C9218 1.373 . S
C9219 C9235 1.377 . S
C9220 C9218 1.389 . S
C9220 C9221 1.524 . S
C9220 C9234 1.377 . S
C9221 C9220 1.524 . S
C9221 C9222 1.397 . S
C9221 C9226 1.363 . S
C9222 H9199 0.950 . S
C9222 C9221 1.397 . S
C9222 C9223 1.334 . S
C9223 H9200 0.950 . S
C9223 C9222 1.334 . S
C9223 C9224 1.287 . S
C9224 C9223 1.287 . S
C9224 C9225 1.524 . S
C9224 H9243 0.913 . S
C9225 H9201 0.950 . S
C9225 C9224 1.524 . S
C9225 C9226 1.415 . S
C9226 H9202 0.950 . S
C9226 C9221 1.363 . S
C9226 C9225 1.415 . S
C9227 H9203 0.951 . S
C9227 C9228 1.366 . S
C9227 C9229 1.388 . S
C9228 C9227 1.366 . S
C9228 C9232 1.385 . S
C9229 H9204 0.951 . S
C9229 C9227 1.388 . S
C9229 C9230 1.366 . S
C9230 C9229 1.366 . S
C9230 C9231 1.414 . S
C9230 C9233 1.499 . S
C9231 H9205 0.950 . S
C9231 C9230 1.414 . S
C9231 C9232 1.374 . S
C9232 H9206 0.950 . S
C9232 C9228 1.385 . S
C9232 C9231 1.374 . S
C9233 C9230 1.499 . S
C9233 C9234 1.373 . S
C9233 C9235 1.389 . S
C9234 H9207 0.950 . S
C9234 C9220 1.377 . S
C9234 C9233 1.373 . S
C9235 C9219 1.377 . S
C9235 C9233 1.389 . S
C9235 C9236 1.524 . S
C9236 C9235 1.524 . S
C9236 C9237 1.397 . S
C9236 C9241 1.363 . S
C9237 H9208 0.950 . S
C9237 C9236 1.397 . S
C9237 C9238 1.334 . S
C9238 H9209 0.950 . S
C9238 C9237 1.334 . S
C9238 C9239 1.287 . S
C9239 C9238 1.287 . S
C9239 C9240 1.524 . S
C9239 H9242 0.999 . S
C9240 H9210 0.950 . S
C9240 C9239 1.524 . S
C9240 C9241 1.415 . S
C9241 H9211 0.950 . S
C9241 C9236 1.363 . S
C9241 C9240 1.415 . S
H9242 C9239 0.999 . S
H9243 C9224 0.913 . S
H9244 C9262 0.951 . S
H9245 C9264 0.951 . S
H9246 C9266 0.950 . S
H9247 C9267 0.950 . S
H9248 C9269 0.950 . S
H9249 C9272 0.950 . S
H9250 C9273 0.950 . S
H9251 C9275 0.950 . S
H9252 C9276 0.950 . S
H9253 C9277 0.951 . S
H9254 C9279 0.951 . S
H9255 C9281 0.950 . S
H9256 C9282 0.950 . S
H9257 C9284 0.950 . S
H9258 C9287 0.950 . S
H9259 C9288 0.950 . S
H9260 C9290 0.950 . S
H9261 C9291 0.950 . S
C9262 H9244 0.951 . S
C9262 C9263 1.366 . S
C9262 C9264 1.388 . S
C9263 C9262 1.366 . S
C9263 C9267 1.385 . S
C9264 H9245 0.951 . S
C9264 C9262 1.388 . S
C9264 C9265 1.366 . S
C9265 C9264 1.366 . S
C9265 C9266 1.414 . S
C9265 C9268 1.499 . S
C9266 H9246 0.950 . S
C9266 C9265 1.414 . S
C9266 C9267 1.374 . S
C9267 H9247 0.950 . S
C9267 C9263 1.385 . S
C9267 C9266 1.374 . S
C9268 C9265 1.499 . S
C9268 C9269 1.373 . S
C9268 C9270 1.389 . S
C9269 H9248 0.950 . S
C9269 C9268 1.373 . S
C9269 C9285 1.377 . S
C9270 C9268 1.389 . S
C9270 C9271 1.524 . S
C9270 C9284 1.377 . S
C9271 C9270 1.524 . S
C9271 C9272 1.397 . S
C9271 C9276 1.363 . S
C9272 H9249 0.950 . S
C9272 C9271 1.397 . S
C9272 C9273 1.334 . S
C9273 H9250 0.950 . S
C9273 C9272 1.334 . S
C9273 C9274 1.287 . S
C9274 C9273 1.287 . S
C9274 C9275 1.524 . S
C9274 H9293 0.913 . S
C9275 H9251 0.950 . S
C9275 C9274 1.524 . S
C9275 C9276 1.415 . S
C9276 H9252 0.950 . S
C9276 C9271 1.363 . S
C9276 C9275 1.415 . S
C9277 H9253 0.951 . S
C9277 C9278 1.366 . S
C9277 C9279 1.388 . S
C9278 C9277 1.366 . S
C9278 C9282 1.385 . S
C9279 H9254 0.951 . S
C9279 C9277 1.388 . S
C9279 C9280 1.366 . S
C9280 C9279 1.366 . S
C9280 C9281 1.414 . S
C9280 C9283 1.499 . S
C9281 H9255 0.950 . S
C9281 C9280 1.414 . S
C9281 C9282 1.374 . S
C9282 H9256 0.950 . S
C9282 C9278 1.385 . S
C9282 C9281 1.374 . S
C9283 C9280 1.499 . S
C9283 C9284 1.373 . S
C9283 C9285 1.389 . S
C9284 H9257 0.950 . S
C9284 C9270 1.377 . S
C9284 C9283 1.373 . S
C9285 C9269 1.377 . S
C9285 C9283 1.389 . S
C9285 C9286 1.524 . S
C9286 C9285 1.524 . S
C9286 C9287 1.397 . S
C9286 C9291 1.363 . S
C9287 H9258 0.950 . S
C9287 C9286 1.397 . S
C9287 C9288 1.334 . S
C9288 H9259 0.950 . S
C9288 C9287 1.334 . S
C9288 C9289 1.287 . S
C9289 C9288 1.287 . S
C9289 C9290 1.524 . S
C9289 H9292 0.999 . S
C9290 H9260 0.950 . S
C9290 C9289 1.524 . S
C9290 C9291 1.415 . S
C9291 H9261 0.950 . S
C9291 C9286 1.363 . S
C9291 C9290 1.415 . S
H9292 C9289 0.999 . S
H9293 C9274 0.913 . S
H9294 C9312 0.951 . S
H9295 C9314 0.951 . S
H9296 C9316 0.950 . S
H9297 C9317 0.950 . S
H9298 C9319 0.950 . S
H9299 C9322 0.950 . S
H9300 C9323 0.950 . S
H9301 C9325 0.950 . S
H9302 C9326 0.950 . S
H9303 C9327 0.951 . S
H9304 C9329 0.951 . S
H9305 C9331 0.950 . S
H9306 C9332 0.950 . S
H9307 C9334 0.950 . S
H9308 C9337 0.950 . S
H9309 C9338 0.950 . S
H9310 C9340 0.950 . S
H9311 C9341 0.950 . S
C9312 H9294 0.951 . S
C9312 C9313 1.366 . S
C9312 C9314 1.388 . S
C9313 C9312 1.366 . S
C9313 C9317 1.385 . S
C9314 H9295 0.951 . S
C9314 C9312 1.388 . S
C9314 C9315 1.366 . S
C9315 C9314 1.366 . S
C9315 C9316 1.414 . S
C9315 C9318 1.499 . S
C9316 H9296 0.950 . S
C9316 C9315 1.414 . S
C9316 C9317 1.374 . S
C9317 H9297 0.950 . S
C9317 C9313 1.385 . S
C9317 C9316 1.374 . S
C9318 C9315 1.499 . S
C9318 C9319 1.373 . S
C9318 C9320 1.389 . S
C9319 H9298 0.950 . S
C9319 C9318 1.373 . S
C9319 C9335 1.377 . S
C9320 C9318 1.389 . S
C9320 C9321 1.524 . S
C9320 C9334 1.377 . S
C9321 C9320 1.524 . S
C9321 C9322 1.397 . S
C9321 C9326 1.363 . S
C9322 H9299 0.950 . S
C9322 C9321 1.397 . S
C9322 C9323 1.334 . S
C9323 H9300 0.950 . S
C9323 C9322 1.334 . S
C9323 C9324 1.287 . S
C9324 C9323 1.287 . S
C9324 C9325 1.524 . S
C9324 H9343 0.913 . S
C9325 H9301 0.950 . S
C9325 C9324 1.524 . S
C9325 C9326 1.415 . S
C9326 H9302 0.950 . S
C9326 C9321 1.363 . S
C9326 C9325 1.415 . S
C9327 H9303 0.951 . S
C9327 C9328 1.366 . S
C9327 C9329 1.388 . S
C9328 C9327 1.366 . S
C9328 C9332 1.385 . S
C9329 H9304 0.951 . S
C9329 C9327 1.388 . S
C9329 C9330 1.366 . S
C9330 C9329 1.366 . S
C9330 C9331 1.414 . S
C9330 C9333 1.499 . S
C9331 H9305 0.950 . S
C9331 C9330 1.414 . S
C9331 C9332 1.374 . S
C9332 H9306 0.950 . S
C9332 C9328 1.385 . S
C9332 C9331 1.374 . S
C9333 C9330 1.499 . S
C9333 C9334 1.373 . S
C9333 C9335 1.389 . S
C9334 H9307 0.950 . S
C9334 C9320 1.377 . S
C9334 C9333 1.373 . S
C9335 C9319 1.377 . S
C9335 C9333 1.389 . S
C9335 C9336 1.524 . S
C9336 C9335 1.524 . S
C9336 C9337 1.397 . S
C9336 C9341 1.363 . S
C9337 H9308 0.950 . S
C9337 C9336 1.397 . S
C9337 C9338 1.334 . S
C9338 H9309 0.950 . S
C9338 C9337 1.334 . S
C9338 C9339 1.287 . S
C9339 C9338 1.287 . S
C9339 C9340 1.524 . S
C9339 H9342 0.999 . S
C9340 H9310 0.950 . S
C9340 C9339 1.524 . S
C9340 C9341 1.415 . S
C9341 H9311 0.950 . S
C9341 C9336 1.363 . S
C9341 C9340 1.415 . S
H9342 C9339 0.999 . S
H9343 C9324 0.913 . S
H9344 C9362 0.951 . S
H9345 C9364 0.951 . S
H9346 C9366 0.950 . S
H9347 C9367 0.950 . S
H9348 C9369 0.950 . S
H9349 C9372 0.950 . S
H9350 C9373 0.950 . S
H9351 C9375 0.950 . S
H9352 C9376 0.950 . S
H9353 C9377 0.951 . S
H9354 C9379 0.951 . S
H9355 C9381 0.950 . S
H9356 C9382 0.950 . S
H9357 C9384 0.950 . S
H9358 C9387 0.950 . S
H9359 C9388 0.950 . S
H9360 C9390 0.950 . S
H9361 C9391 0.950 . S
C9362 H9344 0.951 . S
C9362 C9363 1.366 . S
C9362 C9364 1.388 . S
C9363 C9362 1.366 . S
C9363 C9367 1.385 . S
C9364 H9345 0.951 . S
C9364 C9362 1.388 . S
C9364 C9365 1.366 . S
C9365 C9364 1.366 . S
C9365 C9366 1.414 . S
C9365 C9368 1.499 . S
C9366 H9346 0.950 . S
C9366 C9365 1.414 . S
C9366 C9367 1.374 . S
C9367 H9347 0.950 . S
C9367 C9363 1.385 . S
C9367 C9366 1.374 . S
C9368 C9365 1.499 . S
C9368 C9369 1.373 . S
C9368 C9370 1.389 . S
C9369 H9348 0.950 . S
C9369 C9368 1.373 . S
C9369 C9385 1.377 . S
C9370 C9368 1.389 . S
C9370 C9371 1.524 . S
C9370 C9384 1.377 . S
C9371 C9370 1.524 . S
C9371 C9372 1.397 . S
C9371 C9376 1.363 . S
C9372 H9349 0.950 . S
C9372 C9371 1.397 . S
C9372 C9373 1.334 . S
C9373 H9350 0.950 . S
C9373 C9372 1.334 . S
C9373 C9374 1.287 . S
C9374 C9373 1.287 . S
C9374 C9375 1.524 . S
C9374 H9393 0.913 . S
C9375 H9351 0.950 . S
C9375 C9374 1.524 . S
C9375 C9376 1.415 . S
C9376 H9352 0.950 . S
C9376 C9371 1.363 . S
C9376 C9375 1.415 . S
C9377 H9353 0.951 . S
C9377 C9378 1.366 . S
C9377 C9379 1.388 . S
C9378 C9377 1.366 . S
C9378 C9382 1.385 . S
C9379 H9354 0.951 . S
C9379 C9377 1.388 . S
C9379 C9380 1.366 . S
C9380 C9379 1.366 . S
C9380 C9381 1.414 . S
C9380 C9383 1.499 . S
C9381 H9355 0.950 . S
C9381 C9380 1.414 . S
C9381 C9382 1.374 . S
C9382 H9356 0.950 . S
C9382 C9378 1.385 . S
C9382 C9381 1.374 . S
C9383 C9380 1.499 . S
C9383 C9384 1.373 . S
C9383 C9385 1.389 . S
C9384 H9357 0.950 . S
C9384 C9370 1.377 . S
C9384 C9383 1.373 . S
C9385 C9369 1.377 . S
C9385 C9383 1.389 . S
C9385 C9386 1.524 . S
C9386 C9385 1.524 . S
C9386 C9387 1.397 . S
C9386 C9391 1.363 . S
C9387 H9358 0.950 . S
C9387 C9386 1.397 . S
C9387 C9388 1.334 . S
C9388 H9359 0.950 . S
C9388 C9387 1.334 . S
C9388 C9389 1.287 . S
C9389 C9388 1.287 . S
C9389 C9390 1.524 . S
C9389 H9392 0.999 . S
C9390 H9360 0.950 . S
C9390 C9389 1.524 . S
C9390 C9391 1.415 . S
C9391 H9361 0.950 . S
C9391 C9386 1.363 . S
C9391 C9390 1.415 . S
H9392 C9389 0.999 . S
H9393 C9374 0.913 . S
H9394 C9412 0.951 . S
H9395 C9414 0.951 . S
H9396 C9416 0.950 . S
H9397 C9417 0.950 . S
H9398 C9419 0.950 . S
H9399 C9422 0.950 . S
H9400 C9423 0.950 . S
H9401 C9425 0.950 . S
H9402 C9426 0.950 . S
H9403 C9427 0.951 . S
H9404 C9429 0.951 . S
H9405 C9431 0.950 . S
H9406 C9432 0.950 . S
H9407 C9434 0.950 . S
H9408 C9437 0.950 . S
H9409 C9438 0.950 . S
H9410 C9440 0.950 . S
H9411 C9441 0.950 . S
C9412 H9394 0.951 . S
C9412 C9413 1.366 . S
C9412 C9414 1.388 . S
C9413 C9412 1.366 . S
C9413 C9417 1.385 . S
C9414 H9395 0.951 . S
C9414 C9412 1.388 . S
C9414 C9415 1.366 . S
C9415 C9414 1.366 . S
C9415 C9416 1.414 . S
C9415 C9418 1.499 . S
C9416 H9396 0.950 . S
C9416 C9415 1.414 . S
C9416 C9417 1.374 . S
C9417 H9397 0.950 . S
C9417 C9413 1.385 . S
C9417 C9416 1.374 . S
C9418 C9415 1.499 . S
C9418 C9419 1.373 . S
C9418 C9420 1.389 . S
C9419 H9398 0.950 . S
C9419 C9418 1.373 . S
C9419 C9435 1.377 . S
C9420 C9418 1.389 . S
C9420 C9421 1.524 . S
C9420 C9434 1.377 . S
C9421 C9420 1.524 . S
C9421 C9422 1.397 . S
C9421 C9426 1.363 . S
C9422 H9399 0.950 . S
C9422 C9421 1.397 . S
C9422 C9423 1.334 . S
C9423 H9400 0.950 . S
C9423 C9422 1.334 . S
C9423 C9424 1.287 . S
C9424 C9423 1.287 . S
C9424 C9425 1.524 . S
C9424 H9443 0.913 . S
C9425 H9401 0.950 . S
C9425 C9424 1.524 . S
C9425 C9426 1.415 . S
C9426 H9402 0.950 . S
C9426 C9421 1.363 . S
C9426 C9425 1.415 . S
C9427 H9403 0.951 . S
C9427 C9428 1.366 . S
C9427 C9429 1.388 . S
C9428 C9427 1.366 . S
C9428 C9432 1.385 . S
C9429 H9404 0.951 . S
C9429 C9427 1.388 . S
C9429 C9430 1.366 . S
C9430 C9429 1.366 . S
C9430 C9431 1.414 . S
C9430 C9433 1.499 . S
C9431 H9405 0.950 . S
C9431 C9430 1.414 . S
C9431 C9432 1.374 . S
C9432 H9406 0.950 . S
C9432 C9428 1.385 . S
C9432 C9431 1.374 . S
C9433 C9430 1.499 . S
C9433 C9434 1.373 . S
C9433 C9435 1.389 . S
C9434 H9407 0.950 . S
C9434 C9420 1.377 . S
C9434 C9433 1.373 . S
C9435 C9419 1.377 . S
C9435 C9433 1.389 . S
C9435 C9436 1.524 . S
C9436 C9435 1.524 . S
C9436 C9437 1.397 . S
C9436 C9441 1.363 . S
C9437 H9408 0.950 . S
C9437 C9436 1.397 . S
C9437 C9438 1.334 . S
C9438 H9409 0.950 . S
C9438 C9437 1.334 . S
C9438 C9439 1.287 . S
C9439 C9438 1.287 . S
C9439 C9440 1.524 . S
C9439 H9442 0.999 . S
C9440 H9410 0.950 . S
C9440 C9439 1.524 . S
C9440 C9441 1.415 . S
C9441 H9411 0.950 . S
C9441 C9436 1.363 . S
C9441 C9440 1.415 . S
H9442 C9439 0.999 . S
H9443 C9424 0.913 . S
H9444 C9462 0.951 . S
H9445 C9464 0.951 . S
H9446 C9466 0.950 . S
H9447 C9467 0.950 . S
H9448 C9469 0.950 . S
H9449 C9472 0.950 . S
H9450 C9473 0.950 . S
H9451 C9475 0.950 . S
H9452 C9476 0.950 . S
H9453 C9477 0.951 . S
H9454 C9479 0.951 . S
H9455 C9481 0.950 . S
H9456 C9482 0.950 . S
H9457 C9484 0.950 . S
H9458 C9487 0.950 . S
H9459 C9488 0.950 . S
H9460 C9490 0.950 . S
H9461 C9491 0.950 . S
C9462 H9444 0.951 . S
C9462 C9463 1.366 . S
C9462 C9464 1.388 . S
C9463 C9462 1.366 . S
C9463 C9467 1.385 . S
C9464 H9445 0.951 . S
C9464 C9462 1.388 . S
C9464 C9465 1.366 . S
C9465 C9464 1.366 . S
C9465 C9466 1.414 . S
C9465 C9468 1.499 . S
C9466 H9446 0.950 . S
C9466 C9465 1.414 . S
C9466 C9467 1.374 . S
C9467 H9447 0.950 . S
C9467 C9463 1.385 . S
C9467 C9466 1.374 . S
C9468 C9465 1.499 . S
C9468 C9469 1.373 . S
C9468 C9470 1.389 . S
C9469 H9448 0.950 . S
C9469 C9468 1.373 . S
C9469 C9485 1.377 . S
C9470 C9468 1.389 . S
C9470 C9471 1.524 . S
C9470 C9484 1.377 . S
C9471 C9470 1.524 . S
C9471 C9472 1.397 . S
C9471 C9476 1.363 . S
C9472 H9449 0.950 . S
C9472 C9471 1.397 . S
C9472 C9473 1.334 . S
C9473 H9450 0.950 . S
C9473 C9472 1.334 . S
C9473 C9474 1.287 . S
C9474 C9473 1.287 . S
C9474 C9475 1.524 . S
C9474 H9493 0.913 . S
C9475 H9451 0.950 . S
C9475 C9474 1.524 . S
C9475 C9476 1.415 . S
C9476 H9452 0.950 . S
C9476 C9471 1.363 . S
C9476 C9475 1.415 . S
C9477 H9453 0.951 . S
C9477 C9478 1.366 . S
C9477 C9479 1.388 . S
C9478 C9477 1.366 . S
C9478 C9482 1.385 . S
C9479 H9454 0.951 . S
C9479 C9477 1.388 . S
C9479 C9480 1.366 . S
C9480 C9479 1.366 . S
C9480 C9481 1.414 . S
C9480 C9483 1.499 . S
C9481 H9455 0.950 . S
C9481 C9480 1.414 . S
C9481 C9482 1.374 . S
C9482 H9456 0.950 . S
C9482 C9478 1.385 . S
C9482 C9481 1.374 . S
C9483 C9480 1.499 . S
C9483 C9484 1.373 . S
C9483 C9485 1.389 . S
C9484 H9457 0.950 . S
C9484 C9470 1.377 . S
C9484 C9483 1.373 . S
C9485 C9469 1.377 . S
C9485 C9483 1.389 . S
C9485 C9486 1.524 . S
C9486 C9485 1.524 . S
C9486 C9487 1.397 . S
C9486 C9491 1.363 . S
C9487 H9458 0.950 . S
C9487 C9486 1.397 . S
C9487 C9488 1.334 . S
C9488 H9459 0.950 . S
C9488 C9487 1.334 . S
C9488 C9489 1.287 . S
C9489 C9488 1.287 . S
C9489 C9490 1.524 . S
C9489 H9492 0.999 . S
C9490 H9460 0.950 . S
C9490 C9489 1.524 . S
C9490 C9491 1.415 . S
C9491 H9461 0.950 . S
C9491 C9486 1.363 . S
C9491 C9490 1.415 . S
H9492 C9489 0.999 . S
H9493 C9474 0.913 . S
H9494 C9512 0.951 . S
H9495 C9514 0.951 . S
H9496 C9516 0.950 . S
H9497 C9517 0.950 . S
H9498 C9519 0.950 . S
H9499 C9522 0.950 . S
H9500 C9523 0.950 . S
H9501 C9525 0.950 . S
H9502 C9526 0.950 . S
H9503 C9527 0.951 . S
H9504 C9529 0.951 . S
H9505 C9531 0.950 . S
H9506 C9532 0.950 . S
H9507 C9534 0.950 . S
H9508 C9537 0.950 . S
H9509 C9538 0.950 . S
H9510 C9540 0.950 . S
H9511 C9541 0.950 . S
C9512 H9494 0.951 . S
C9512 C9513 1.366 . S
C9512 C9514 1.388 . S
C9513 C9512 1.366 . S
C9513 C9517 1.385 . S
C9514 H9495 0.951 . S
C9514 C9512 1.388 . S
C9514 C9515 1.366 . S
C9515 C9514 1.366 . S
C9515 C9516 1.414 . S
C9515 C9518 1.499 . S
C9516 H9496 0.950 . S
C9516 C9515 1.414 . S
C9516 C9517 1.374 . S
C9517 H9497 0.950 . S
C9517 C9513 1.385 . S
C9517 C9516 1.374 . S
C9518 C9515 1.499 . S
C9518 C9519 1.373 . S
C9518 C9520 1.389 . S
C9519 H9498 0.950 . S
C9519 C9518 1.373 . S
C9519 C9535 1.377 . S
C9520 C9518 1.389 . S
C9520 C9521 1.524 . S
C9520 C9534 1.377 . S
C9521 C9520 1.524 . S
C9521 C9522 1.397 . S
C9521 C9526 1.363 . S
C9522 H9499 0.950 . S
C9522 C9521 1.397 . S
C9522 C9523 1.334 . S
C9523 H9500 0.950 . S
C9523 C9522 1.334 . S
C9523 C9524 1.287 . S
C9524 C9523 1.287 . S
C9524 C9525 1.524 . S
C9524 H9543 0.913 . S
C9525 H9501 0.950 . S
C9525 C9524 1.524 . S
C9525 C9526 1.415 . S
C9526 H9502 0.950 . S
C9526 C9521 1.363 . S
C9526 C9525 1.415 . S
C9527 H9503 0.951 . S
C9527 C9528 1.366 . S
C9527 C9529 1.388 . S
C9528 C9527 1.366 . S
C9528 C9532 1.385 . S
C9529 H9504 0.951 . S
C9529 C9527 1.388 . S
C9529 C9530 1.366 . S
C9530 C9529 1.366 . S
C9530 C9531 1.414 . S
C9530 C9533 1.499 . S
C9531 H9505 0.950 . S
C9531 C9530 1.414 . S
C9531 C9532 1.374 . S
C9532 H9506 0.950 . S
C9532 C9528 1.385 . S
C9532 C9531 1.374 . S
C9533 C9530 1.499 . S
C9533 C9534 1.373 . S
C9533 C9535 1.389 . S
C9534 H9507 0.950 . S
C9534 C9520 1.377 . S
C9534 C9533 1.373 . S
C9535 C9519 1.377 . S
C9535 C9533 1.389 . S
C9535 C9536 1.524 . S
C9536 C9535 1.524 . S
C9536 C9537 1.397 . S
C9536 C9541 1.363 . S
C9537 H9508 0.950 . S
C9537 C9536 1.397 . S
C9537 C9538 1.334 . S
C9538 H9509 0.950 . S
C9538 C9537 1.334 . S
C9538 C9539 1.287 . S
C9539 C9538 1.287 . S
C9539 C9540 1.524 . S
C9539 H9542 0.999 . S
C9540 H9510 0.950 . S
C9540 C9539 1.524 . S
C9540 C9541 1.415 . S
C9541 H9511 0.950 . S
C9541 C9536 1.363 . S
C9541 C9540 1.415 . S
H9542 C9539 0.999 . S
H9543 C9524 0.913 . S
H9544 C9562 0.951 . S
H9545 C9564 0.951 . S
H9546 C9566 0.950 . S
H9547 C9567 0.950 . S
H9548 C9569 0.950 . S
H9549 C9572 0.950 . S
H9550 C9573 0.950 . S
H9551 C9575 0.950 . S
H9552 C9576 0.950 . S
H9553 C9577 0.951 . S
H9554 C9579 0.951 . S
H9555 C9581 0.950 . S
H9556 C9582 0.950 . S
H9557 C9584 0.950 . S
H9558 C9587 0.950 . S
H9559 C9588 0.950 . S
H9560 C9590 0.950 . S
H9561 C9591 0.950 . S
C9562 H9544 0.951 . S
C9562 C9563 1.366 . S
C9562 C9564 1.388 . S
C9563 C9562 1.366 . S
C9563 C9567 1.385 . S
C9564 H9545 0.951 . S
C9564 C9562 1.388 . S
C9564 C9565 1.366 . S
C9565 C9564 1.366 . S
C9565 C9566 1.414 . S
C9565 C9568 1.499 . S
C9566 H9546 0.950 . S
C9566 C9565 1.414 . S
C9566 C9567 1.374 . S
C9567 H9547 0.950 . S
C9567 C9563 1.385 . S
C9567 C9566 1.374 . S
C9568 C9565 1.499 . S
C9568 C9569 1.373 . S
C9568 C9570 1.389 . S
C9569 H9548 0.950 . S
C9569 C9568 1.373 . S
C9569 C9585 1.377 . S
C9570 C9568 1.389 . S
C9570 C9571 1.524 . S
C9570 C9584 1.377 . S
C9571 C9570 1.524 . S
C9571 C9572 1.397 . S
C9571 C9576 1.363 . S
C9572 H9549 0.950 . S
C9572 C9571 1.397 . S
C9572 C9573 1.334 . S
C9573 H9550 0.950 . S
C9573 C9572 1.334 . S
C9573 C9574 1.287 . S
C9574 C9573 1.287 . S
C9574 C9575 1.524 . S
C9574 H9593 0.913 . S
C9575 H9551 0.950 . S
C9575 C9574 1.524 . S
C9575 C9576 1.415 . S
C9576 H9552 0.950 . S
C9576 C9571 1.363 . S
C9576 C9575 1.415 . S
C9577 H9553 0.951 . S
C9577 C9578 1.366 . S
C9577 C9579 1.388 . S
C9578 C9577 1.366 . S
C9578 C9582 1.385 . S
C9579 H9554 0.951 . S
C9579 C9577 1.388 . S
C9579 C9580 1.366 . S
C9580 C9579 1.366 . S
C9580 C9581 1.414 . S
C9580 C9583 1.499 . S
C9581 H9555 0.950 . S
C9581 C9580 1.414 . S
C9581 C9582 1.374 . S
C9582 H9556 0.950 . S
C9582 C9578 1.385 . S
C9582 C9581 1.374 . S
C9583 C9580 1.499 . S
C9583 C9584 1.373 . S
C9583 C9585 1.389 . S
C9584 H9557 0.950 . S
C9584 C9570 1.377 . S
C9584 C9583 1.373 . S
C9585 C9569 1.377 . S
C9585 C9583 1.389 . S
C9585 C9586 1.524 . S
C9586 C9585 1.524 . S
C9586 C9587 1.397 . S
C9586 C9591 1.363 . S
C9587 H9558 0.950 . S
C9587 C9586 1.397 . S
C9587 C9588 1.334 . S
C9588 H9559 0.950 . S
C9588 C9587 1.334 . S
C9588 C9589 1.287 . S
C9589 C9588 1.287 . S
C9589 C9590 1.524 . S
C9589 H9592 0.999 . S
C9590 H9560 0.950 . S
C9590 C9589 1.524 . S
C9590 C9591 1.415 . S
C9591 H9561 0.950 . S
C9591 C9586 1.363 . S
C9591 C9590 1.415 . S
H9592 C9589 0.999 . S
H9593 C9574 0.913 . S
H9594 C9612 0.951 . S
H9595 C9614 0.951 . S
H9596 C9616 0.950 . S
H9597 C9617 0.950 . S
H9598 C9619 0.950 . S
H9599 C9622 0.950 . S
H9600 C9623 0.950 . S
H9601 C9625 0.950 . S
H9602 C9626 0.950 . S
H9603 C9627 0.951 . S
H9604 C9629 0.951 . S
H9605 C9631 0.950 . S
H9606 C9632 0.950 . S
H9607 C9634 0.950 . S
H9608 C9637 0.950 . S
H9609 C9638 0.950 . S
H9610 C9640 0.950 . S
H9611 C9641 0.950 . S
C9612 H9594 0.951 . S
C9612 C9613 1.366 . S
C9612 C9614 1.388 . S
C9613 C9612 1.366 . S
C9613 C9617 1.385 . S
C9614 H9595 0.951 . S
C9614 C9612 1.388 . S
C9614 C9615 1.366 . S
C9615 C9614 1.366 . S
C9615 C9616 1.414 . S
C9615 C9618 1.499 . S
C9616 H9596 0.950 . S
C9616 C9615 1.414 . S
C9616 C9617 1.374 . S
C9617 H9597 0.950 . S
C9617 C9613 1.385 . S
C9617 C9616 1.374 . S
C9618 C9615 1.499 . S
C9618 C9619 1.373 . S
C9618 C9620 1.389 . S
C9619 H9598 0.950 . S
C9619 C9618 1.373 . S
C9619 C9635 1.377 . S
C9620 C9618 1.389 . S
C9620 C9621 1.524 . S
C9620 C9634 1.377 . S
C9621 C9620 1.524 . S
C9621 C9622 1.397 . S
C9621 C9626 1.363 . S
C9622 H9599 0.950 . S
C9622 C9621 1.397 . S
C9622 C9623 1.334 . S
C9623 H9600 0.950 . S
C9623 C9622 1.334 . S
C9623 C9624 1.287 . S
C9624 C9623 1.287 . S
C9624 C9625 1.524 . S
C9624 H9643 0.913 . S
C9625 H9601 0.950 . S
C9625 C9624 1.524 . S
C9625 C9626 1.415 . S
C9626 H9602 0.950 . S
C9626 C9621 1.363 . S
C9626 C9625 1.415 . S
C9627 H9603 0.951 . S
C9627 C9628 1.366 . S
C9627 C9629 1.388 . S
C9628 C9627 1.366 . S
C9628 C9632 1.385 . S
C9629 H9604 0.951 . S
C9629 C9627 1.388 . S
C9629 C9630 1.366 . S
C9630 C9629 1.366 . S
C9630 C9631 1.414 . S
C9630 C9633 1.499 . S
C9631 H9605 0.950 . S
C9631 C9630 1.414 . S
C9631 C9632 1.374 . S
C9632 H9606 0.950 . S
C9632 C9628 1.385 . S
C9632 C9631 1.374 . S
C9633 C9630 1.499 . S
C9633 C9634 1.373 . S
C9633 C9635 1.389 . S
C9634 H9607 0.950 . S
C9634 C9620 1.377 . S
C9634 C9633 1.373 . S
C9635 C9619 1.377 . S
C9635 C9633 1.389 . S
C9635 C9636 1.524 . S
C9636 C9635 1.524 . S
C9636 C9637 1.397 . S
C9636 C9641 1.363 . S
C9637 H9608 0.950 . S
C9637 C9636 1.397 . S
C9637 C9638 1.334 . S
C9638 H9609 0.950 . S
C9638 C9637 1.334 . S
C9638 C9639 1.287 . S
C9639 C9638 1.287 . S
C9639 C9640 1.524 . S
C9639 H9642 0.999 . S
C9640 H9610 0.950 . S
C9640 C9639 1.524 . S
C9640 C9641 1.415 . S
C9641 H9611 0.950 . S
C9641 C9636 1.363 . S
C9641 C9640 1.415 . S
H9642 C9639 0.999 . S
H9643 C9624 0.913 . S
H9644 C9662 0.951 . S
H9645 C9664 0.951 . S
H9646 C9666 0.950 . S
H9647 C9667 0.950 . S
H9648 C9669 0.950 . S
H9649 C9672 0.950 . S
H9650 C9673 0.950 . S
H9651 C9675 0.950 . S
H9652 C9676 0.950 . S
H9653 C9677 0.951 . S
H9654 C9679 0.951 . S
H9655 C9681 0.950 . S
H9656 C9682 0.950 . S
H9657 C9684 0.950 . S
H9658 C9687 0.950 . S
H9659 C9688 0.950 . S
H9660 C9690 0.950 . S
H9661 C9691 0.950 . S
C9662 H9644 0.951 . S
C9662 C9663 1.366 . S
C9662 C9664 1.388 . S
C9663 C9662 1.366 . S
C9663 C9667 1.385 . S
C9664 H9645 0.951 . S
C9664 C9662 1.388 . S
C9664 C9665 1.366 . S
C9665 C9664 1.366 . S
C9665 C9666 1.414 . S
C9665 C9668 1.499 . S
C9666 H9646 0.950 . S
C9666 C9665 1.414 . S
C9666 C9667 1.374 . S
C9667 H9647 0.950 . S
C9667 C9663 1.385 . S
C9667 C9666 1.374 . S
C9668 C9665 1.499 . S
C9668 C9669 1.373 . S
C9668 C9670 1.389 . S
C9669 H9648 0.950 . S
C9669 C9668 1.373 . S
C9669 C9685 1.377 . S
C9670 C9668 1.389 . S
C9670 C9671 1.524 . S
C9670 C9684 1.377 . S
C9671 C9670 1.524 . S
C9671 C9672 1.397 . S
C9671 C9676 1.363 . S
C9672 H9649 0.950 . S
C9672 C9671 1.397 . S
C9672 C9673 1.334 . S
C9673 H9650 0.950 . S
C9673 C9672 1.334 . S
C9673 C9674 1.287 . S
C9674 C9673 1.287 . S
C9674 C9675 1.524 . S
C9674 H9693 0.913 . S
C9675 H9651 0.950 . S
C9675 C9674 1.524 . S
C9675 C9676 1.415 . S
C9676 H9652 0.950 . S
C9676 C9671 1.363 . S
C9676 C9675 1.415 . S
C9677 H9653 0.951 . S
C9677 C9678 1.366 . S
C9677 C9679 1.388 . S
C9678 C9677 1.366 . S
C9678 C9682 1.385 . S
C9679 H9654 0.951 . S
C9679 C9677 1.388 . S
C9679 C9680 1.366 . S
C9680 C9679 1.366 . S
C9680 C9681 1.414 . S
C9680 C9683 1.499 . S
C9681 H9655 0.950 . S
C9681 C9680 1.414 . S
C9681 C9682 1.374 . S
C9682 H9656 0.950 . S
C9682 C9678 1.385 . S
C9682 C9681 1.374 . S
C9683 C9680 1.499 . S
C9683 C9684 1.373 . S
C9683 C9685 1.389 . S
C9684 H9657 0.950 . S
C9684 C9670 1.377 . S
C9684 C9683 1.373 . S
C9685 C9669 1.377 . S
C9685 C9683 1.389 . S
C9685 C9686 1.524 . S
C9686 C9685 1.524 . S
C9686 C9687 1.397 . S
C9686 C9691 1.363 . S
C9687 H9658 0.950 . S
C9687 C9686 1.397 . S
C9687 C9688 1.334 . S
C9688 H9659 0.950 . S
C9688 C9687 1.334 . S
C9688 C9689 1.287 . S
C9689 C9688 1.287 . S
C9689 C9690 1.524 . S
C9689 H9692 0.999 . S
C9690 H9660 0.950 . S
C9690 C9689 1.524 . S
C9690 C9691 1.415 . S
C9691 H9661 0.950 . S
C9691 C9686 1.363 . S
C9691 C9690 1.415 . S
H9692 C9689 0.999 . S
H9693 C9674 0.913 . S
H9694 C9712 0.951 . S
H9695 C9714 0.951 . S
H9696 C9716 0.950 . S
H9697 C9717 0.950 . S
H9698 C9719 0.950 . S
H9699 C9722 0.950 . S
H9700 C9723 0.950 . S
H9701 C9725 0.950 . S
H9702 C9726 0.950 . S
H9703 C9727 0.951 . S
H9704 C9729 0.951 . S
H9705 C9731 0.950 . S
H9706 C9732 0.950 . S
H9707 C9734 0.950 . S
H9708 C9737 0.950 . S
H9709 C9738 0.950 . S
H9710 C9740 0.950 . S
H9711 C9741 0.950 . S
C9712 H9694 0.951 . S
C9712 C9713 1.366 . S
C9712 C9714 1.388 . S
C9713 C9712 1.366 . S
C9713 C9717 1.385 . S
C9714 H9695 0.951 . S
C9714 C9712 1.388 . S
C9714 C9715 1.366 . S
C9715 C9714 1.366 . S
C9715 C9716 1.414 . S
C9715 C9718 1.499 . S
C9716 H9696 0.950 . S
C9716 C9715 1.414 . S
C9716 C9717 1.374 . S
C9717 H9697 0.950 . S
C9717 C9713 1.385 . S
C9717 C9716 1.374 . S
C9718 C9715 1.499 . S
C9718 C9719 1.373 . S
C9718 C9720 1.389 . S
C9719 H9698 0.950 . S
C9719 C9718 1.373 . S
C9719 C9735 1.377 . S
C9720 C9718 1.389 . S
C9720 C9721 1.524 . S
C9720 C9734 1.377 . S
C9721 C9720 1.524 . S
C9721 C9722 1.397 . S
C9721 C9726 1.363 . S
C9722 H9699 0.950 . S
C9722 C9721 1.397 . S
C9722 C9723 1.334 . S
C9723 H9700 0.950 . S
C9723 C9722 1.334 . S
C9723 C9724 1.287 . S
C9724 C9723 1.287 . S
C9724 C9725 1.524 . S
C9724 H9743 0.913 . S
C9725 H9701 0.950 . S
C9725 C9724 1.524 . S
C9725 C9726 1.415 . S
C9726 H9702 0.950 . S
C9726 C9721 1.363 . S
C9726 C9725 1.415 . S
C9727 H9703 0.951 . S
C9727 C9728 1.366 . S
C9727 C9729 1.388 . S
C9728 C9727 1.366 . S
C9728 C9732 1.385 . S
C9729 H9704 0.951 . S
C9729 C9727 1.388 . S
C9729 C9730 1.366 . S
C9730 C9729 1.366 . S
C9730 C9731 1.414 . S
C9730 C9733 1.499 . S
C9731 H9705 0.950 . S
C9731 C9730 1.414 . S
C9731 C9732 1.374 . S
C9732 H9706 0.950 . S
C9732 C9728 1.385 . S
C9732 C9731 1.374 . S
C9733 C9730 1.499 . S
C9733 C9734 1.373 . S
C9733 C9735 1.389 . S
C9734 H9707 0.950 . S
C9734 C9720 1.377 . S
C9734 C9733 1.373 . S
C9735 C9719 1.377 . S
C9735 C9733 1.389 . S
C9735 C9736 1.524 . S
C9736 C9735 1.524 . S
C9736 C9737 1.397 . S
C9736 C9741 1.363 . S
C9737 H9708 0.950 . S
C9737 C9736 1.397 . S
C9737 C9738 1.334 . S
C9738 H9709 0.950 . S
C9738 C9737 1.334 . S
C9738 C9739 1.287 . S
C9739 C9738 1.287 . S
C9739 C9740 1.524 . S
C9739 H9742 0.999 . S
C9740 H9710 0.950 . S
C9740 C9739 1.524 . S
C9740 C9741 1.415 . S
C9741 H9711 0.950 . S
C9741 C9736 1.363 . S
C9741 C9740 1.415 . S
H9742 C9739 0.999 . S
H9743 C9724 0.913 . S
H9744 C9762 0.951 . S
H9745 C9764 0.951 . S
H9746 C9766 0.950 . S
H9747 C9767 0.950 . S
H9748 C9769 0.950 . S
H9749 C9772 0.950 . S
H9750 C9773 0.950 . S
H9751 C9775 0.950 . S
H9752 C9776 0.950 . S
H9753 C9777 0.951 . S
H9754 C9779 0.951 . S
H9755 C9781 0.950 . S
H9756 C9782 0.950 . S
H9757 C9784 0.950 . S
H9758 C9787 0.950 . S
H9759 C9788 0.950 . S
H9760 C9790 0.950 . S
H9761 C9791 0.950 . S
C9762 H9744 0.951 . S
C9762 C9763 1.366 . S
C9762 C9764 1.388 . S
C9763 C9762 1.366 . S
C9763 C9767 1.385 . S
C9764 H9745 0.951 . S
C9764 C9762 1.388 . S
C9764 C9765 1.366 . S
C9765 C9764 1.366 . S
C9765 C9766 1.414 . S
C9765 C9768 1.499 . S
C9766 H9746 0.950 . S
C9766 C9765 1.414 . S
C9766 C9767 1.374 . S
C9767 H9747 0.950 . S
C9767 C9763 1.385 . S
C9767 C9766 1.374 . S
C9768 C9765 1.499 . S
C9768 C9769 1.373 . S
C9768 C9770 1.389 . S
C9769 H9748 0.950 . S
C9769 C9768 1.373 . S
C9769 C9785 1.377 . S
C9770 C9768 1.389 . S
C9770 C9771 1.524 . S
C9770 C9784 1.377 . S
C9771 C9770 1.524 . S
C9771 C9772 1.397 . S
C9771 C9776 1.363 . S
C9772 H9749 0.950 . S
C9772 C9771 1.397 . S
C9772 C9773 1.334 . S
C9773 H9750 0.950 . S
C9773 C9772 1.334 . S
C9773 C9774 1.287 . S
C9774 C9773 1.287 . S
C9774 C9775 1.524 . S
C9774 H9793 0.913 . S
C9775 H9751 0.950 . S
C9775 C9774 1.524 . S
C9775 C9776 1.415 . S
C9776 H9752 0.950 . S
C9776 C9771 1.363 . S
C9776 C9775 1.415 . S
C9777 H9753 0.951 . S
C9777 C9778 1.366 . S
C9777 C9779 1.388 . S
C9778 C9777 1.366 . S
C9778 C9782 1.385 . S
C9779 H9754 0.951 . S
C9779 C9777 1.388 . S
C9779 C9780 1.366 . S
C9780 C9779 1.366 . S
C9780 C9781 1.414 . S
C9780 C9783 1.499 . S
C9781 H9755 0.950 . S
C9781 C9780 1.414 . S
C9781 C9782 1.374 . S
C9782 H9756 0.950 . S
C9782 C9778 1.385 . S
C9782 C9781 1.374 . S
C9783 C9780 1.499 . S
C9783 C9784 1.373 . S
C9783 C9785 1.389 . S
C9784 H9757 0.950 . S
C9784 C9770 1.377 . S
C9784 C9783 1.373 . S
C9785 C9769 1.377 . S
C9785 C9783 1.389 . S
C9785 C9786 1.524 . S
C9786 C9785 1.524 . S
C9786 C9787 1.397 . S
C9786 C9791 1.363 . S
C9787 H9758 0.950 . S
C9787 C9786 1.397 . S
C9787 C9788 1.334 . S
C9788 H9759 0.950 . S
C9788 C9787 1.334 . S
C9788 C9789 1.287 . S
C9789 C9788 1.287 . S
C9789 C9790 1.524 . S
C9789 H9792 0.999 . S
C9790 H9760 0.950 . S
C9790 C9789 1.524 . S
C9790 C9791 1.415 . S
C9791 H9761 0.950 . S
C9791 C9786 1.363 . S
C9791 C9790 1.415 . S
H9792 C9789 0.999 . S
H9793 C9774 0.913 . S
H9794 C9812 0.951 . S
H9795 C9814 0.951 . S
H9796 C9816 0.950 . S
H9797 C9817 0.950 . S
H9798 C9819 0.950 . S
H9799 C9822 0.950 . S
H9800 C9823 0.950 . S
H9801 C9825 0.950 . S
H9802 C9826 0.950 . S
H9803 C9827 0.951 . S
H9804 C9829 0.951 . S
H9805 C9831 0.950 . S
H9806 C9832 0.950 . S
H9807 C9834 0.950 . S
H9808 C9837 0.950 . S
H9809 C9838 0.950 . S
H9810 C9840 0.950 . S
H9811 C9841 0.950 . S
C9812 H9794 0.951 . S
C9812 C9813 1.366 . S
C9812 C9814 1.388 . S
C9813 C9812 1.366 . S
C9813 C9817 1.385 . S
C9814 H9795 0.951 . S
C9814 C9812 1.388 . S
C9814 C9815 1.366 . S
C9815 C9814 1.366 . S
C9815 C9816 1.414 . S
C9815 C9818 1.499 . S
C9816 H9796 0.950 . S
C9816 C9815 1.414 . S
C9816 C9817 1.374 . S
C9817 H9797 0.950 . S
C9817 C9813 1.385 . S
C9817 C9816 1.374 . S
C9818 C9815 1.499 . S
C9818 C9819 1.373 . S
C9818 C9820 1.389 . S
C9819 H9798 0.950 . S
C9819 C9818 1.373 . S
C9819 C9835 1.377 . S
C9820 C9818 1.389 . S
C9820 C9821 1.524 . S
C9820 C9834 1.377 . S
C9821 C9820 1.524 . S
C9821 C9822 1.397 . S
C9821 C9826 1.363 . S
C9822 H9799 0.950 . S
C9822 C9821 1.397 . S
C9822 C9823 1.334 . S
C9823 H9800 0.950 . S
C9823 C9822 1.334 . S
C9823 C9824 1.287 . S
C9824 C9823 1.287 . S
C9824 C9825 1.524 . S
C9824 H9843 0.913 . S
C9825 H9801 0.950 . S
C9825 C9824 1.524 . S
C9825 C9826 1.415 . S
C9826 H9802 0.950 . S
C9826 C9821 1.363 . S
C9826 C9825 1.415 . S
C9827 H9803 0.951 . S
C9827 C9828 1.366 . S
C9827 C9829 1.388 . S
C9828 C9827 1.366 . S
C9828 C9832 1.385 . S
C9829 H9804 0.951 . S
C9829 C9827 1.388 . S
C9829 C9830 1.366 . S
C9830 C9829 1.366 . S
C9830 C9831 1.414 . S
C9830 C9833 1.499 . S
C9831 H9805 0.950 . S
C9831 C9830 1.414 . S
C9831 C9832 1.374 . S
C9832 H9806 0.950 . S
C9832 C9828 1.385 . S
C9832 C9831 1.374 . S
C9833 C9830 1.499 . S
C9833 C9834 1.373 . S
C9833 C9835 1.389 . S
C9834 H9807 0.950 . S
C9834 C9820 1.377 . S
C9834 C9833 1.373 . S
C9835 C9819 1.377 . S
C9835 C9833 1.389 . S
C9835 C9836 1.524 . S
C9836 C9835 1.524 . S
C9836 C9837 1.397 . S
C9836 C9841 1.363 . S
C9837 H9808 0.950 . S
C9837 C9836 1.397 . S
C9837 C9838 1.334 . S
C9838 H9809 0.950 . S
C9838 C9837 1.334 . S
C9838 C9839 1.287 . S
C9839 C9838 1.287 . S
C9839 C9840 1.524 . S
C9839 H9842 0.999 . S
C9840 H9810 0.950 . S
C9840 C9839 1.524 . S
C9840 C9841 1.415 . S
C9841 H9811 0.950 . S
C9841 C9836 1.363 . S
C9841 C9840 1.415 . S
H9842 C9839 0.999 . S
H9843 C9824 0.913 . S
H9844 C9862 0.951 . S
H9845 C9864 0.951 . S
H9846 C9866 0.950 . S
H9847 C9867 0.950 . S
H9848 C9869 0.950 . S
H9849 C9872 0.950 . S
H9850 C9873 0.950 . S
H9851 C9875 0.950 . S
H9852 C9876 0.950 . S
H9853 C9877 0.951 . S
H9854 C9879 0.951 . S
H9855 C9881 0.950 . S
H9856 C9882 0.950 . S
H9857 C9884 0.950 . S
H9858 C9887 0.950 . S
H9859 C9888 0.950 . S
H9860 C9890 0.950 . S
H9861 C9891 0.950 . S
C9862 H9844 0.951 . S
C9862 C9863 1.366 . S
C9862 C9864 1.388 . S
C9863 C9862 1.366 . S
C9863 C9867 1.385 . S
C9864 H9845 0.951 . S
C9864 C9862 1.388 . S
C9864 C9865 1.366 . S
C9865 C9864 1.366 . S
C9865 C9866 1.414 . S
C9865 C9868 1.499 . S
C9866 H9846 0.950 . S
C9866 C9865 1.414 . S
C9866 C9867 1.374 . S
C9867 H9847 0.950 . S
C9867 C9863 1.385 . S
C9867 C9866 1.374 . S
C9868 C9865 1.499 . S
C9868 C9869 1.373 . S
C9868 C9870 1.389 . S
C9869 H9848 0.950 . S
C9869 C9868 1.373 . S
C9869 C9885 1.377 . S
C9870 C9868 1.389 . S
C9870 C9871 1.524 . S
C9870 C9884 1.377 . S
C9871 C9870 1.524 . S
C9871 C9872 1.397 . S
C9871 C9876 1.363 . S
C9872 H9849 0.950 . S
C9872 C9871 1.397 . S
C9872 C9873 1.334 . S
C9873 H9850 0.950 . S
C9873 C9872 1.334 . S
C9873 C9874 1.287 . S
C9874 C9873 1.287 . S
C9874 C9875 1.524 . S
C9874 H9893 0.913 . S
C9875 H9851 0.950 . S
C9875 C9874 1.524 . S
C9875 C9876 1.415 . S
C9876 H9852 0.950 . S
C9876 C9871 1.363 . S
C9876 C9875 1.415 . S
C9877 H9853 0.951 . S
C9877 C9878 1.366 . S
C9877 C9879 1.388 . S
C9878 C9877 1.366 . S
C9878 C9882 1.385 . S
C9879 H9854 0.951 . S
C9879 C9877 1.388 . S
C9879 C9880 1.366 . S
C9880 C9879 1.366 . S
C9880 C9881 1.414 . S
C9880 C9883 1.499 . S
C9881 H9855 0.950 . S
C9881 C9880 1.414 . S
C9881 C9882 1.374 . S
C9882 H9856 0.950 . S
C9882 C9878 1.385 . S
C9882 C9881 1.374 . S
C9883 C9880 1.499 . S
C9883 C9884 1.373 . S
C9883 C9885 1.389 . S
C9884 H9857 0.950 . S
C9884 C9870 1.377 . S
C9884 C9883 1.373 . S
C9885 C9869 1.377 . S
C9885 C9883 1.389 . S
C9885 C9886 1.524 . S
C9886 C9885 1.524 . S
C9886 C9887 1.397 . S
C9886 C9891 1.363 . S
C9887 H9858 0.950 . S
C9887 C9886 1.397 . S
C9887 C9888 1.334 . S
C9888 H9859 0.950 . S
C9888 C9887 1.334 . S
C9888 C9889 1.287 . S
C9889 C9888 1.287 . S
C9889 C9890 1.524 . S
C9889 H9892 0.999 . S
C9890 H9860 0.950 . S
C9890 C9889 1.524 . S
C9890 C9891 1.415 . S
C9891 H9861 0.950 . S
C9891 C9886 1.363 . S
C9891 C9890 1.415 . S
H9892 C9889 0.999 . S
H9893 C9874 0.913 . S
H9894 C9912 0.951 . S
H9895 C9914 0.951 . S
H9896 C9916 0.950 . S
H9897 C9917 0.950 . S
H9898 C9919 0.950 . S
H9899 C9922 0.950 . S
H9900 C9923 0.950 . S
H9901 C9925 0.950 . S
H9902 C9926 0.950 . S
H9903 C9927 0.951 . S
H9904 C9929 0.951 . S
H9905 C9931 0.950 . S
H9906 C9932 0.950 . S
H9907 C9934 0.950 . S
H9908 C9937 0.950 . S
H9909 C9938 0.950 . S
H9910 C9940 0.950 . S
H9911 C9941 0.950 . S
C9912 H9894 0.951 . S
C9912 C9913 1.366 . S
C9912 C9914 1.388 . S
C9913 C9912 1.366 . S
C9913 C9917 1.385 . S
C9914 H9895 0.951 . S
C9914 C9912 1.388 . S
C9914 C9915 1.366 . S
C9915 C9914 1.366 . S
C9915 C9916 1.414 . S
C9915 C9918 1.499 . S
C9916 H9896 0.950 . S
C9916 C9915 1.414 . S
C9916 C9917 1.374 . S
C9917 H9897 0.950 . S
C9917 C9913 1.385 . S
C9917 C9916 1.374 . S
C9918 C9915 1.499 . S
C9918 C9919 1.373 . S
C9918 C9920 1.389 . S
C9919 H9898 0.950 . S
C9919 C9918 1.373 . S
C9919 C9935 1.377 . S
C9920 C9918 1.389 . S
C9920 C9921 1.524 . S
C9920 C9934 1.377 . S
C9921 C9920 1.524 . S
C9921 C9922 1.397 . S
C9921 C9926 1.363 . S
C9922 H9899 0.950 . S
C9922 C9921 1.397 . S
C9922 C9923 1.334 . S
C9923 H9900 0.950 . S
C9923 C9922 1.334 . S
C9923 C9924 1.287 . S
C9924 C9923 1.287 . S
C9924 C9925 1.524 . S
C9924 H9943 0.913 . S
C9925 H9901 0.950 . S
C9925 C9924 1.524 . S
C9925 C9926 1.415 . S
C9926 H9902 0.950 . S
C9926 C9921 1.363 . S
C9926 C9925 1.415 . S
C9927 H9903 0.951 . S
C9927 C9928 1.366 . S
C9927 C9929 1.388 . S
C9928 C9927 1.366 . S
C9928 C9932 1.385 . S
C9929 H9904 0.951 . S
C9929 C9927 1.388 . S
C9929 C9930 1.366 . S
C9930 C9929 1.366 . S
C9930 C9931 1.414 . S
C9930 C9933 1.499 . S
C9931 H9905 0.950 . S
C9931 C9930 1.414 . S
C9931 C9932 1.374 . S
C9932 H9906 0.950 . S
C9932 C9928 1.385 . S
C9932 C9931 1.374 . S
C9933 C9930 1.499 . S
C9933 C9934 1.373 . S
C9933 C9935 1.389 . S
C9934 H9907 0.950 . S
C9934 C9920 1.377 . S
C9934 C9933 1.373 . S
C9935 C9919 1.377 . S
C9935 C9933 1.389 . S
C9935 C9936 1.524 . S
C9936 C9935 1.524 . S
C9936 C9937 1.397 . S
C9936 C9941 1.363 . S
C9937 H9908 0.950 . S
C9937 C9936 1.397 . S
C9937 C9938 1.334 . S
C9938 H9909 0.950 . S
C9938 C9937 1.334 . S
C9938 C9939 1.287 . S
C9939 C9938 1.287 . S
C9939 C9940 1.524 . S
C9939 H9942 0.999 . S
C9940 H9910 0.950 . S
C9940 C9939 1.524 . S
C9940 C9941 1.415 . S
C9941 H9911 0.950 . S
C9941 C9936 1.363 . S
C9941 C9940 1.415 . S
H9942 C9939 0.999 . S
H9943 C9924 0.913 . S
H9944 C9962 0.951 . S
H9945 C9964 0.951 . S
H9946 C9966 0.950 . S
H9947 C9967 0.950 . S
H9948 C9969 0.950 . S
H9949 C9972 0.950 . S
H9950 C9973 0.950 . S
H9951 C9975 0.950 . S
H9952 C9976 0.950 . S
H9953 C9977 0.951 . S
H9954 C9979 0.951 . S
H9955 C9981 0.950 . S
H9956 C9982 0.950 . S
H9957 C9984 0.950 . S
H9958 C9987 0.950 . S
H9959 C9988 0.950 . S
H9960 C9990 0.950 . S
H9961 C9991 0.950 . S
C9962 H9944 0.951 . S
C9962 C9963 1.366 . S
C9962 C9964 1.388 . S
C9963 C9962 1.366 . S
C9963 C9967 1.385 . S
C9964 H9945 0.951 . S
C9964 C9962 1.388 . S
C9964 C9965 1.366 . S
C9965 C9964 1.366 . S
C9965 C9966 1.414 . S
C9965 C9968 1.499 . S
C9966 H9946 0.950 . S
C9966 C9965 1.414 . S
C9966 C9967 1.374 . S
C9967 H9947 0.950 . S
C9967 C9963 1.385 . S
C9967 C9966 1.374 . S
C9968 C9965 1.499 . S
C9968 C9969 1.373 . S
C9968 C9970 1.389 . S
C9969 H9948 0.950 . S
C9969 C9968 1.373 . S
C9969 C9985 1.377 . S
C9970 C9968 1.389 . S
C9970 C9971 1.524 . S
C9970 C9984 1.377 . S
C9971 C9970 1.524 . S
C9971 C9972 1.397 . S
C9971 C9976 1.363 . S
C9972 H9949 0.950 . S
C9972 C9971 1.397 . S
C9972 C9973 1.334 . S
C9973 H9950 0.950 . S
C9973 C9972 1.334 . S
C9973 C9974 1.287 . S
C9974 C9973 1.287 . S
C9974 C9975 1.524 . S
C9974 H9993 0.913 . S
C9975 H9951 0.950 . S
C9975 C9974 1.524 . S
C9975 C9976 1.415 . S
C9976 H9952 0.950 . S
C9976 C9971 1.363 . S
C9976 C9975 1.415 . S
C9977 H9953 0.951 . S
C9977 C9978 1.366 . S
C9977 C9979 1.388 . S
C9978 C9977 1.366 . S
C9978 C9982 1.385 . S
C9979 H9954 0.951 . S
C9979 C9977 1.388 . S
C9979 C9980 1.366 . S
C9980 C9979 1.366 . S
C9980 C9981 1.414 . S
C9980 C9983 1.499 . S
C9981 H9955 0.950 . S
C9981 C9980 1.414 . S
C9981 C9982 1.374 . S
C9982 H9956 0.950 . S
C9982 C9978 1.385 . S
C9982 C9981 1.374 . S
C9983 C9980 1.499 . S
C9983 C9984 1.373 . S
C9983 C9985 1.389 . S
C9984 H9957 0.950 . S
C9984 C9970 1.377 . S
C9984 C9983 1.373 . S
C9985 C9969 1.377 . S
C9985 C9983 1.389 . S
C9985 C9986 1.524 . S
C9986 C9985 1.524 . S
C9986 C9987 1.397 . S
C9986 C9991 1.363 . S
C9987 H9958 0.950 . S
C9987 C9986 1.397 . S
C9987 C9988 1.334 . S
C9988 H9959 0.950 . S
C9988 C9987 1.334 . S
C9988 C9989 1.287 . S
C9989 C9988 1.287 . S
C9989 C9990 1.524 . S
C9989 H9992 0.999 . S
C9990 H9960 0.950 . S
C9990 C9989 1.524 . S
C9990 C9991 1.415 . S
C9991 H9961 0.950 . S
C9991 C9986 1.363 . S
C9991 C9990 1.415 . S
H9992 C9989 0.999 . S
H9993 C9974 0.913 . S
H9994 C10012 0.951 . S
H9995 C10014 0.951 . S
H9996 C10016 0.950 . S
H9997 C10017 0.950 . S
H9998 C10019 0.950 . S
H9999 C10022 0.950 . S
H10000 C10023 0.950 . S
H10001 C10025 0.950 . S
H10002 C10026 0.950 . S
H10003 C10027 0.951 . S
H10004 C10029 0.951 . S
H10005 C10031 0.950 . S
H10006 C10032 0.950 . S
H10007 C10034 0.950 . S
H10008 C10037 0.950 . S
H10009 C10038 0.950 . S
H10010 C10040 0.950 . S
H10011 C10041 0.950 . S
C10012 H9994 0.951 . S
C10012 C10013 1.366 . S
C10012 C10014 1.388 . S
C10013 C10012 1.366 . S
C10013 C10017 1.385 . S
C10014 H9995 0.951 . S
C10014 C10012 1.388 . S
C10014 C10015 1.366 . S
C10015 C10014 1.366 . S
C10015 C10016 1.414 . S
C10015 C10018 1.499 . S
C10016 H9996 0.950 . S
C10016 C10015 1.414 . S
C10016 C10017 1.374 . S
C10017 H9997 0.950 . S
C10017 C10013 1.385 . S
C10017 C10016 1.374 . S
C10018 C10015 1.499 . S
C10018 C10019 1.373 . S
C10018 C10020 1.389 . S
C10019 H9998 0.950 . S
C10019 C10018 1.373 . S
C10019 C10035 1.377 . S
C10020 C10018 1.389 . S
C10020 C10021 1.524 . S
C10020 C10034 1.377 . S
C10021 C10020 1.524 . S
C10021 C10022 1.397 . S
C10021 C10026 1.363 . S
C10022 H9999 0.950 . S
C10022 C10021 1.397 . S
C10022 C10023 1.334 . S
C10023 H10000 0.950 . S
C10023 C10022 1.334 . S
C10023 C10024 1.287 . S
C10024 C10023 1.287 . S
C10024 C10025 1.524 . S
C10024 H10043 0.913 . S
C10025 H10001 0.950 . S
C10025 C10024 1.524 . S
C10025 C10026 1.415 . S
C10026 H10002 0.950 . S
C10026 C10021 1.363 . S
C10026 C10025 1.415 . S
C10027 H10003 0.951 . S
C10027 C10028 1.366 . S
C10027 C10029 1.388 . S
C10028 C10027 1.366 . S
C10028 C10032 1.385 . S
C10029 H10004 0.951 . S
C10029 C10027 1.388 . S
C10029 C10030 1.366 . S
C10030 C10029 1.366 . S
C10030 C10031 1.414 . S
C10030 C10033 1.499 . S
C10031 H10005 0.950 . S
C10031 C10030 1.414 . S
C10031 C10032 1.374 . S
C10032 H10006 0.950 . S
C10032 C10028 1.385 . S
C10032 C10031 1.374 . S
C10033 C10030 1.499 . S
C10033 C10034 1.373 . S
C10033 C10035 1.389 . S
C10034 H10007 0.950 . S
C10034 C10020 1.377 . S
C10034 C10033 1.373 . S
C10035 C10019 1.377 . S
C10035 C10033 1.389 . S
C10035 C10036 1.524 . S
C10036 C10035 1.524 . S
C10036 C10037 1.397 . S
C10036 C10041 1.363 . S
C10037 H10008 0.950 . S
C10037 C10036 1.397 . S
C10037 C10038 1.334 . S
C10038 H10009 0.950 . S
C10038 C10037 1.334 . S
C10038 C10039 1.287 . S
C10039 C10038 1.287 . S
C10039 C10040 1.524 . S
C10039 H10042 0.999 . S
C10040 H10010 0.950 . S
C10040 C10039 1.524 . S
C10040 C10041 1.415 . S
C10041 H10011 0.950 . S
C10041 C10036 1.363 . S
C10041 C10040 1.415 . S
H10042 C10039 0.999 . S
H10043 C10024 0.913 . S
H10044 C10062 0.951 . S
H10045 C10064 0.951 . S
H10046 C10066 0.950 . S
H10047 C10067 0.950 . S
H10048 C10069 0.950 . S
H10049 C10072 0.950 . S
H10050 C10073 0.950 . S
H10051 C10075 0.950 . S
H10052 C10076 0.950 . S
H10053 C10077 0.951 . S
H10054 C10079 0.951 . S
H10055 C10081 0.950 . S
H10056 C10082 0.950 . S
H10057 C10084 0.950 . S
H10058 C10087 0.950 . S
H10059 C10088 0.950 . S
H10060 C10090 0.950 . S
H10061 C10091 0.950 . S
C10062 H10044 0.951 . S
C10062 C10063 1.366 . S
C10062 C10064 1.388 . S
C10063 C10062 1.366 . S
C10063 C10067 1.385 . S
C10064 H10045 0.951 . S
C10064 C10062 1.388 . S
C10064 C10065 1.366 . S
C10065 C10064 1.366 . S
C10065 C10066 1.414 . S
C10065 C10068 1.499 . S
C10066 H10046 0.950 . S
C10066 C10065 1.414 . S
C10066 C10067 1.374 . S
C10067 H10047 0.950 . S
C10067 C10063 1.385 . S
C10067 C10066 1.374 . S
C10068 C10065 1.499 . S
C10068 C10069 1.373 . S
C10068 C10070 1.389 . S
C10069 H10048 0.950 . S
C10069 C10068 1.373 . S
C10069 C10085 1.377 . S
C10070 C10068 1.389 . S
C10070 C10071 1.524 . S
C10070 C10084 1.377 . S
C10071 C10070 1.524 . S
C10071 C10072 1.397 . S
C10071 C10076 1.363 . S
C10072 H10049 0.950 . S
C10072 C10071 1.397 . S
C10072 C10073 1.334 . S
C10073 H10050 0.950 . S
C10073 C10072 1.334 . S
C10073 C10074 1.287 . S
C10074 C10073 1.287 . S
C10074 C10075 1.524 . S
C10074 H10093 0.913 . S
C10075 H10051 0.950 . S
C10075 C10074 1.524 . S
C10075 C10076 1.415 . S
C10076 H10052 0.950 . S
C10076 C10071 1.363 . S
C10076 C10075 1.415 . S
C10077 H10053 0.951 . S
C10077 C10078 1.366 . S
C10077 C10079 1.388 . S
C10078 C10077 1.366 . S
C10078 C10082 1.385 . S
C10079 H10054 0.951 . S
C10079 C10077 1.388 . S
C10079 C10080 1.366 . S
C10080 C10079 1.366 . S
C10080 C10081 1.414 . S
C10080 C10083 1.499 . S
C10081 H10055 0.950 . S
C10081 C10080 1.414 . S
C10081 C10082 1.374 . S
C10082 H10056 0.950 . S
C10082 C10078 1.385 . S
C10082 C10081 1.374 . S
C10083 C10080 1.499 . S
C10083 C10084 1.373 . S
C10083 C10085 1.389 . S
C10084 H10057 0.950 . S
C10084 C10070 1.377 . S
C10084 C10083 1.373 . S
C10085 C10069 1.377 . S
C10085 C10083 1.389 . S
C10085 C10086 1.524 . S
C10086 C10085 1.524 . S
C10086 C10087 1.397 . S
C10086 C10091 1.363 . S
C10087 H10058 0.950 . S
C10087 C10086 1.397 . S
C10087 C10088 1.334 . S
C10088 H10059 0.950 . S
C10088 C10087 1.334 . S
C10088 C10089 1.287 . S
C10089 C10088 1.287 . S
C10089 C10090 1.524 . S
C10089 H10092 0.999 . S
C10090 H10060 0.950 . S
C10090 C10089 1.524 . S
C10090 C10091 1.415 . S
C10091 H10061 0.950 . S
C10091 C10086 1.363 . S
C10091 C10090 1.415 . S
H10092 C10089 0.999 . S
H10093 C10074 0.913 . S
H10094 C10112 0.951 . S
H10095 C10114 0.951 . S
H10096 C10116 0.950 . S
H10097 C10117 0.950 . S
H10098 C10119 0.950 . S
H10099 C10122 0.950 . S
H10100 C10123 0.950 . S
H10101 C10125 0.950 . S
H10102 C10126 0.950 . S
H10103 C10127 0.951 . S
H10104 C10129 0.951 . S
H10105 C10131 0.950 . S
H10106 C10132 0.950 . S
H10107 C10134 0.950 . S
H10108 C10137 0.950 . S
H10109 C10138 0.950 . S
H10110 C10140 0.950 . S
H10111 C10141 0.950 . S
C10112 H10094 0.951 . S
C10112 C10113 1.366 . S
C10112 C10114 1.388 . S
C10113 C10112 1.366 . S
C10113 C10117 1.385 . S
C10114 H10095 0.951 . S
C10114 C10112 1.388 . S
C10114 C10115 1.366 . S
C10115 C10114 1.366 . S
C10115 C10116 1.414 . S
C10115 C10118 1.499 . S
C10116 H10096 0.950 . S
C10116 C10115 1.414 . S
C10116 C10117 1.374 . S
C10117 H10097 0.950 . S
C10117 C10113 1.385 . S
C10117 C10116 1.374 . S
C10118 C10115 1.499 . S
C10118 C10119 1.373 . S
C10118 C10120 1.389 . S
C10119 H10098 0.950 . S
C10119 C10118 1.373 . S
C10119 C10135 1.377 . S
C10120 C10118 1.389 . S
C10120 C10121 1.524 . S
C10120 C10134 1.377 . S
C10121 C10120 1.524 . S
C10121 C10122 1.397 . S
C10121 C10126 1.363 . S
C10122 H10099 0.950 . S
C10122 C10121 1.397 . S
C10122 C10123 1.334 . S
C10123 H10100 0.950 . S
C10123 C10122 1.334 . S
C10123 C10124 1.287 . S
C10124 C10123 1.287 . S
C10124 C10125 1.524 . S
C10124 H10143 0.913 . S
C10125 H10101 0.950 . S
C10125 C10124 1.524 . S
C10125 C10126 1.415 . S
C10126 H10102 0.950 . S
C10126 C10121 1.363 . S
C10126 C10125 1.415 . S
C10127 H10103 0.951 . S
C10127 C10128 1.366 . S
C10127 C10129 1.388 . S
C10128 C10127 1.366 . S
C10128 C10132 1.385 . S
C10129 H10104 0.951 . S
C10129 C10127 1.388 . S
C10129 C10130 1.366 . S
C10130 C10129 1.366 . S
C10130 C10131 1.414 . S
C10130 C10133 1.499 . S
C10131 H10105 0.950 . S
C10131 C10130 1.414 . S
C10131 C10132 1.374 . S
C10132 H10106 0.950 . S
C10132 C10128 1.385 . S
C10132 C10131 1.374 . S
C10133 C10130 1.499 . S
C10133 C10134 1.373 . S
C10133 C10135 1.389 . S
C10134 H10107 0.950 . S
C10134 C10120 1.377 . S
C10134 C10133 1.373 . S
C10135 C10119 1.377 . S
C10135 C10133 1.389 . S
C10135 C10136 1.524 . S
C10136 C10135 1.524 . S
C10136 C10137 1.397 . S
C10136 C10141 1.363 . S
C10137 H10108 0.950 . S
C10137 C10136 1.397 . S
C10137 C10138 1.334 . S
C10138 H10109 0.950 . S
C10138 C10137 1.334 . S
C10138 C10139 1.287 . S
C10139 C10138 1.287 . S
C10139 C10140 1.524 . S
C10139 H10142 0.999 . S
C10140 H10110 0.950 . S
C10140 C10139 1.524 . S
C10140 C10141 1.415 . S
C10141 H10111 0.950 . S
C10141 C10136 1.363 . S
C10141 C10140 1.415 . S
H10142 C10139 0.999 . S
H10143 C10124 0.913 . S
H10144 C10162 0.951 . S
H10145 C10164 0.951 . S
H10146 C10166 0.950 . S
H10147 C10167 0.950 . S
H10148 C10169 0.950 . S
H10149 C10172 0.950 . S
H10150 C10173 0.950 . S
H10151 C10175 0.950 . S
H10152 C10176 0.950 . S
H10153 C10177 0.951 . S
H10154 C10179 0.951 . S
H10155 C10181 0.950 . S
H10156 C10182 0.950 . S
H10157 C10184 0.950 . S
H10158 C10187 0.950 . S
H10159 C10188 0.950 . S
H10160 C10190 0.950 . S
H10161 C10191 0.950 . S
C10162 H10144 0.951 . S
C10162 C10163 1.366 . S
C10162 C10164 1.388 . S
C10163 C10162 1.366 . S
C10163 C10167 1.385 . S
C10164 H10145 0.951 . S
C10164 C10162 1.388 . S
C10164 C10165 1.366 . S
C10165 C10164 1.366 . S
C10165 C10166 1.414 . S
C10165 C10168 1.499 . S
C10166 H10146 0.950 . S
C10166 C10165 1.414 . S
C10166 C10167 1.374 . S
C10167 H10147 0.950 . S
C10167 C10163 1.385 . S
C10167 C10166 1.374 . S
C10168 C10165 1.499 . S
C10168 C10169 1.373 . S
C10168 C10170 1.389 . S
C10169 H10148 0.950 . S
C10169 C10168 1.373 . S
C10169 C10185 1.377 . S
C10170 C10168 1.389 . S
C10170 C10171 1.524 . S
C10170 C10184 1.377 . S
C10171 C10170 1.524 . S
C10171 C10172 1.397 . S
C10171 C10176 1.363 . S
C10172 H10149 0.950 . S
C10172 C10171 1.397 . S
C10172 C10173 1.334 . S
C10173 H10150 0.950 . S
C10173 C10172 1.334 . S
C10173 C10174 1.287 . S
C10174 C10173 1.287 . S
C10174 C10175 1.524 . S
C10174 H10193 0.913 . S
C10175 H10151 0.950 . S
C10175 C10174 1.524 . S
C10175 C10176 1.415 . S
C10176 H10152 0.950 . S
C10176 C10171 1.363 . S
C10176 C10175 1.415 . S
C10177 H10153 0.951 . S
C10177 C10178 1.366 . S
C10177 C10179 1.388 . S
C10178 C10177 1.366 . S
C10178 C10182 1.385 . S
C10179 H10154 0.951 . S
C10179 C10177 1.388 . S
C10179 C10180 1.366 . S
C10180 C10179 1.366 . S
C10180 C10181 1.414 . S
C10180 C10183 1.499 . S
C10181 H10155 0.950 . S
C10181 C10180 1.414 . S
C10181 C10182 1.374 . S
C10182 H10156 0.950 . S
C10182 C10178 1.385 . S
C10182 C10181 1.374 . S
C10183 C10180 1.499 . S
C10183 C10184 1.373 . S
C10183 C10185 1.389 . S
C10184 H10157 0.950 . S
C10184 C10170 1.377 . S
C10184 C10183 1.373 . S
C10185 C10169 1.377 . S
C10185 C10183 1.389 . S
C10185 C10186 1.524 . S
C10186 C10185 1.524 . S
C10186 C10187 1.397 . S
C10186 C10191 1.363 . S
C10187 H10158 0.950 . S
C10187 C10186 1.397 . S
C10187 C10188 1.334 . S
C10188 H10159 0.950 . S
C10188 C10187 1.334 . S
C10188 C10189 1.287 . S
C10189 C10188 1.287 . S
C10189 C10190 1.524 . S
C10189 H10192 0.999 . S
C10190 H10160 0.950 . S
C10190 C10189 1.524 . S
C10190 C10191 1.415 . S
C10191 H10161 0.950 . S
C10191 C10186 1.363 . S
C10191 C10190 1.415 . S
H10192 C10189 0.999 . S
H10193 C10174 0.913 . S
H10194 C10212 0.951 . S
H10195 C10214 0.951 . S
H10196 C10216 0.950 . S
H10197 C10217 0.950 . S
H10198 C10219 0.950 . S
H10199 C10222 0.950 . S
H10200 C10223 0.950 . S
H10201 C10225 0.950 . S
H10202 C10226 0.950 . S
H10203 C10227 0.951 . S
H10204 C10229 0.951 . S
H10205 C10231 0.950 . S
H10206 C10232 0.950 . S
H10207 C10234 0.950 . S
H10208 C10237 0.950 . S
H10209 C10238 0.950 . S
H10210 C10240 0.950 . S
H10211 C10241 0.950 . S
C10212 H10194 0.951 . S
C10212 C10213 1.366 . S
C10212 C10214 1.388 . S
C10213 C10212 1.366 . S
C10213 C10217 1.385 . S
C10214 H10195 0.951 . S
C10214 C10212 1.388 . S
C10214 C10215 1.366 . S
C10215 C10214 1.366 . S
C10215 C10216 1.414 . S
C10215 C10218 1.499 . S
C10216 H10196 0.950 . S
C10216 C10215 1.414 . S
C10216 C10217 1.374 . S
C10217 H10197 0.950 . S
C10217 C10213 1.385 . S
C10217 C10216 1.374 . S
C10218 C10215 1.499 . S
C10218 C10219 1.373 . S
C10218 C10220 1.389 . S
C10219 H10198 0.950 . S
C10219 C10218 1.373 . S
C10219 C10235 1.377 . S
C10220 C10218 1.389 . S
C10220 C10221 1.524 . S
C10220 C10234 1.377 . S
C10221 C10220 1.524 . S
C10221 C10222 1.397 . S
C10221 C10226 1.363 . S
C10222 H10199 0.950 . S
C10222 C10221 1.397 . S
C10222 C10223 1.334 . S
C10223 H10200 0.950 . S
C10223 C10222 1.334 . S
C10223 C10224 1.287 . S
C10224 C10223 1.287 . S
C10224 C10225 1.524 . S
C10224 H10243 0.913 . S
C10225 H10201 0.950 . S
C10225 C10224 1.524 . S
C10225 C10226 1.415 . S
C10226 H10202 0.950 . S
C10226 C10221 1.363 . S
C10226 C10225 1.415 . S
C10227 H10203 0.951 . S
C10227 C10228 1.366 . S
C10227 C10229 1.388 . S
C10228 C10227 1.366 . S
C10228 C10232 1.385 . S
C10229 H10204 0.951 . S
C10229 C10227 1.388 . S
C10229 C10230 1.366 . S
C10230 C10229 1.366 . S
C10230 C10231 1.414 . S
C10230 C10233 1.499 . S
C10231 H10205 0.950 . S
C10231 C10230 1.414 . S
C10231 C10232 1.374 . S
C10232 H10206 0.950 . S
C10232 C10228 1.385 . S
C10232 C10231 1.374 . S
C10233 C10230 1.499 . S
C10233 C10234 1.373 . S
C10233 C10235 1.389 . S
C10234 H10207 0.950 . S
C10234 C10220 1.377 . S
C10234 C10233 1.373 . S
C10235 C10219 1.377 . S
C10235 C10233 1.389 . S
C10235 C10236 1.524 . S
C10236 C10235 1.524 . S
C10236 C10237 1.397 . S
C10236 C10241 1.363 . S
C10237 H10208 0.950 . S
C10237 C10236 1.397 . S
C10237 C10238 1.334 . S
C10238 H10209 0.950 . S
C10238 C10237 1.334 . S
C10238 C10239 1.287 . S
C10239 C10238 1.287 . S
C10239 C10240 1.524 . S
C10239 H10242 0.999 . S
C10240 H10210 0.950 . S
C10240 C10239 1.524 . S
C10240 C10241 1.415 . S
C10241 H10211 0.950 . S
C10241 C10236 1.363 . S
C10241 C10240 1.415 . S
H10242 C10239 0.999 . S
H10243 C10224 0.913 . S
H10244 C10262 0.951 . S
H10245 C10264 0.951 . S
H10246 C10266 0.950 . S
H10247 C10267 0.950 . S
H10248 C10269 0.950 . S
H10249 C10272 0.950 . S
H10250 C10273 0.950 . S
H10251 C10275 0.950 . S
H10252 C10276 0.950 . S
H10253 C10277 0.951 . S
H10254 C10279 0.951 . S
H10255 C10281 0.950 . S
H10256 C10282 0.950 . S
H10257 C10284 0.950 . S
H10258 C10287 0.950 . S
H10259 C10288 0.950 . S
H10260 C10290 0.950 . S
H10261 C10291 0.950 . S
C10262 H10244 0.951 . S
C10262 C10263 1.366 . S
C10262 C10264 1.388 . S
C10263 C10262 1.366 . S
C10263 C10267 1.385 . S
C10264 H10245 0.951 . S
C10264 C10262 1.388 . S
C10264 C10265 1.366 . S
C10265 C10264 1.366 . S
C10265 C10266 1.414 . S
C10265 C10268 1.499 . S
C10266 H10246 0.950 . S
C10266 C10265 1.414 . S
C10266 C10267 1.374 . S
C10267 H10247 0.950 . S
C10267 C10263 1.385 . S
C10267 C10266 1.374 . S
C10268 C10265 1.499 . S
C10268 C10269 1.373 . S
C10268 C10270 1.389 . S
C10269 H10248 0.950 . S
C10269 C10268 1.373 . S
C10269 C10285 1.377 . S
C10270 C10268 1.389 . S
C10270 C10271 1.524 . S
C10270 C10284 1.377 . S
C10271 C10270 1.524 . S
C10271 C10272 1.397 . S
C10271 C10276 1.363 . S
C10272 H10249 0.950 . S
C10272 C10271 1.397 . S
C10272 C10273 1.334 . S
C10273 H10250 0.950 . S
C10273 C10272 1.334 . S
C10273 C10274 1.287 . S
C10274 C10273 1.287 . S
C10274 C10275 1.524 . S
C10274 H10293 0.913 . S
C10275 H10251 0.950 . S
C10275 C10274 1.524 . S
C10275 C10276 1.415 . S
C10276 H10252 0.950 . S
C10276 C10271 1.363 . S
C10276 C10275 1.415 . S
C10277 H10253 0.951 . S
C10277 C10278 1.366 . S
C10277 C10279 1.388 . S
C10278 C10277 1.366 . S
C10278 C10282 1.385 . S
C10279 H10254 0.951 . S
C10279 C10277 1.388 . S
C10279 C10280 1.366 . S
C10280 C10279 1.366 . S
C10280 C10281 1.414 . S
C10280 C10283 1.499 . S
C10281 H10255 0.950 . S
C10281 C10280 1.414 . S
C10281 C10282 1.374 . S
C10282 H10256 0.950 . S
C10282 C10278 1.385 . S
C10282 C10281 1.374 . S
C10283 C10280 1.499 . S
C10283 C10284 1.373 . S
C10283 C10285 1.389 . S
C10284 H10257 0.950 . S
C10284 C10270 1.377 . S
C10284 C10283 1.373 . S
C10285 C10269 1.377 . S
C10285 C10283 1.389 . S
C10285 C10286 1.524 . S
C10286 C10285 1.524 . S
C10286 C10287 1.397 . S
C10286 C10291 1.363 . S
C10287 H10258 0.950 . S
C10287 C10286 1.397 . S
C10287 C10288 1.334 . S
C10288 H10259 0.950 . S
C10288 C10287 1.334 . S
C10288 C10289 1.287 . S
C10289 C10288 1.287 . S
C10289 C10290 1.524 . S
C10289 H10292 0.999 . S
C10290 H10260 0.950 . S
C10290 C10289 1.524 . S
C10290 C10291 1.415 . S
C10291 H10261 0.950 . S
C10291 C10286 1.363 . S
C10291 C10290 1.415 . S
H10292 C10289 0.999 . S
H10293 C10274 0.913 . S
H10294 C10312 0.951 . S
H10295 C10314 0.951 . S
H10296 C10316 0.950 . S
H10297 C10317 0.950 . S
H10298 C10319 0.950 . S
H10299 C10322 0.950 . S
H10300 C10323 0.950 . S
H10301 C10325 0.950 . S
H10302 C10326 0.950 . S
H10303 C10327 0.951 . S
H10304 C10329 0.951 . S
H10305 C10331 0.950 . S
H10306 C10332 0.950 . S
H10307 C10334 0.950 . S
H10308 C10337 0.950 . S
H10309 C10338 0.950 . S
H10310 C10340 0.950 . S
H10311 C10341 0.950 . S
C10312 H10294 0.951 . S
C10312 C10313 1.366 . S
C10312 C10314 1.388 . S
C10313 C10312 1.366 . S
C10313 C10317 1.385 . S
C10314 H10295 0.951 . S
C10314 C10312 1.388 . S
C10314 C10315 1.366 . S
C10315 C10314 1.366 . S
C10315 C10316 1.414 . S
C10315 C10318 1.499 . S
C10316 H10296 0.950 . S
C10316 C10315 1.414 . S
C10316 C10317 1.374 . S
C10317 H10297 0.950 . S
C10317 C10313 1.385 . S
C10317 C10316 1.374 . S
C10318 C10315 1.499 . S
C10318 C10319 1.373 . S
C10318 C10320 1.389 . S
C10319 H10298 0.950 . S
C10319 C10318 1.373 . S
C10319 C10335 1.377 . S
C10320 C10318 1.389 . S
C10320 C10321 1.524 . S
C10320 C10334 1.377 . S
C10321 C10320 1.524 . S
C10321 C10322 1.397 . S
C10321 C10326 1.363 . S
C10322 H10299 0.950 . S
C10322 C10321 1.397 . S
C10322 C10323 1.334 . S
C10323 H10300 0.950 . S
C10323 C10322 1.334 . S
C10323 C10324 1.287 . S
C10324 C10323 1.287 . S
C10324 C10325 1.524 . S
C10324 H10343 0.913 . S
C10325 H10301 0.950 . S
C10325 C10324 1.524 . S
C10325 C10326 1.415 . S
C10326 H10302 0.950 . S
C10326 C10321 1.363 . S
C10326 C10325 1.415 . S
C10327 H10303 0.951 . S
C10327 C10328 1.366 . S
C10327 C10329 1.388 . S
C10328 C10327 1.366 . S
C10328 C10332 1.385 . S
C10329 H10304 0.951 . S
C10329 C10327 1.388 . S
C10329 C10330 1.366 . S
C10330 C10329 1.366 . S
C10330 C10331 1.414 . S
C10330 C10333 1.499 . S
C10331 H10305 0.950 . S
C10331 C10330 1.414 . S
C10331 C10332 1.374 . S
C10332 H10306 0.950 . S
C10332 C10328 1.385 . S
C10332 C10331 1.374 . S
C10333 C10330 1.499 . S
C10333 C10334 1.373 . S
C10333 C10335 1.389 . S
C10334 H10307 0.950 . S
C10334 C10320 1.377 . S
C10334 C10333 1.373 . S
C10335 C10319 1.377 . S
C10335 C10333 1.389 . S
C10335 C10336 1.524 . S
C10336 C10335 1.524 . S
C10336 C10337 1.397 . S
C10336 C10341 1.363 . S
C10337 H10308 0.950 . S
C10337 C10336 1.397 . S
C10337 C10338 1.334 . S
C10338 H10309 0.950 . S
C10338 C10337 1.334 . S
C10338 C10339 1.287 . S
C10339 C10338 1.287 . S
C10339 C10340 1.524 . S
C10339 H10342 0.999 . S
C10340 H10310 0.950 . S
C10340 C10339 1.524 . S
C10340 C10341 1.415 . S
C10341 H10311 0.950 . S
C10341 C10336 1.363 . S
C10341 C10340 1.415 . S
H10342 C10339 0.999 . S
H10343 C10324 0.913 . S
H10344 C10362 0.951 . S
H10345 C10364 0.951 . S
H10346 C10366 0.950 . S
H10347 C10367 0.950 . S
H10348 C10369 0.950 . S
H10349 C10372 0.950 . S
H10350 C10373 0.950 . S
H10351 C10375 0.950 . S
H10352 C10376 0.950 . S
H10353 C10377 0.951 . S
H10354 C10379 0.951 . S
H10355 C10381 0.950 . S
H10356 C10382 0.950 . S
H10357 C10384 0.950 . S
H10358 C10387 0.950 . S
H10359 C10388 0.950 . S
H10360 C10390 0.950 . S
H10361 C10391 0.950 . S
C10362 H10344 0.951 . S
C10362 C10363 1.366 . S
C10362 C10364 1.388 . S
C10363 C10362 1.366 . S
C10363 C10367 1.385 . S
C10364 H10345 0.951 . S
C10364 C10362 1.388 . S
C10364 C10365 1.366 . S
C10365 C10364 1.366 . S
C10365 C10366 1.414 . S
C10365 C10368 1.499 . S
C10366 H10346 0.950 . S
C10366 C10365 1.414 . S
C10366 C10367 1.374 . S
C10367 H10347 0.950 . S
C10367 C10363 1.385 . S
C10367 C10366 1.374 . S
C10368 C10365 1.499 . S
C10368 C10369 1.373 . S
C10368 C10370 1.389 . S
C10369 H10348 0.950 . S
C10369 C10368 1.373 . S
C10369 C10385 1.377 . S
C10370 C10368 1.389 . S
C10370 C10371 1.524 . S
C10370 C10384 1.377 . S
C10371 C10370 1.524 . S
C10371 C10372 1.397 . S
C10371 C10376 1.363 . S
C10372 H10349 0.950 . S
C10372 C10371 1.397 . S
C10372 C10373 1.334 . S
C10373 H10350 0.950 . S
C10373 C10372 1.334 . S
C10373 C10374 1.287 . S
C10374 C10373 1.287 . S
C10374 C10375 1.524 . S
C10374 H10393 0.913 . S
C10375 H10351 0.950 . S
C10375 C10374 1.524 . S
C10375 C10376 1.415 . S
C10376 H10352 0.950 . S
C10376 C10371 1.363 . S
C10376 C10375 1.415 . S
C10377 H10353 0.951 . S
C10377 C10378 1.366 . S
C10377 C10379 1.388 . S
C10378 C10377 1.366 . S
C10378 C10382 1.385 . S
C10379 H10354 0.951 . S
C10379 C10377 1.388 . S
C10379 C10380 1.366 . S
C10380 C10379 1.366 . S
C10380 C10381 1.414 . S
C10380 C10383 1.499 . S
C10381 H10355 0.950 . S
C10381 C10380 1.414 . S
C10381 C10382 1.374 . S
C10382 H10356 0.950 . S
C10382 C10378 1.385 . S
C10382 C10381 1.374 . S
C10383 C10380 1.499 . S
C10383 C10384 1.373 . S
C10383 C10385 1.389 . S
C10384 H10357 0.950 . S
C10384 C10370 1.377 . S
C10384 C10383 1.373 . S
C10385 C10369 1.377 . S
C10385 C10383 1.389 . S
C10385 C10386 1.524 . S
C10386 C10385 1.524 . S
C10386 C10387 1.397 . S
C10386 C10391 1.363 . S
C10387 H10358 0.950 . S
C10387 C10386 1.397 . S
C10387 C10388 1.334 . S
C10388 H10359 0.950 . S
C10388 C10387 1.334 . S
C10388 C10389 1.287 . S
C10389 C10388 1.287 . S
C10389 C10390 1.524 . S
C10389 H10392 0.999 . S
C10390 H10360 0.950 . S
C10390 C10389 1.524 . S
C10390 C10391 1.415 . S
C10391 H10361 0.950 . S
C10391 C10386 1.363 . S
C10391 C10390 1.415 . S
H10392 C10389 0.999 . S
H10393 C10374 0.913 . S
H10394 C10412 0.951 . S
H10395 C10414 0.951 . S
H10396 C10416 0.950 . S
H10397 C10417 0.950 . S
H10398 C10419 0.950 . S
H10399 C10422 0.950 . S
H10400 C10423 0.950 . S
H10401 C10425 0.950 . S
H10402 C10426 0.950 . S
H10403 C10427 0.951 . S
H10404 C10429 0.951 . S
H10405 C10431 0.950 . S
H10406 C10432 0.950 . S
H10407 C10434 0.950 . S
H10408 C10437 0.950 . S
H10409 C10438 0.950 . S
H10410 C10440 0.950 . S
H10411 C10441 0.950 . S
C10412 H10394 0.951 . S
C10412 C10413 1.366 . S
C10412 C10414 1.388 . S
C10413 C10412 1.366 . S
C10413 C10417 1.385 . S
C10414 H10395 0.951 . S
C10414 C10412 1.388 . S
C10414 C10415 1.366 . S
C10415 C10414 1.366 . S
C10415 C10416 1.414 . S
C10415 C10418 1.499 . S
C10416 H10396 0.950 . S
C10416 C10415 1.414 . S
C10416 C10417 1.374 . S
C10417 H10397 0.950 . S
C10417 C10413 1.385 . S
C10417 C10416 1.374 . S
C10418 C10415 1.499 . S
C10418 C10419 1.373 . S
C10418 C10420 1.389 . S
C10419 H10398 0.950 . S
C10419 C10418 1.373 . S
C10419 C10435 1.377 . S
C10420 C10418 1.389 . S
C10420 C10421 1.524 . S
C10420 C10434 1.377 . S
C10421 C10420 1.524 . S
C10421 C10422 1.397 . S
C10421 C10426 1.363 . S
C10422 H10399 0.950 . S
C10422 C10421 1.397 . S
C10422 C10423 1.334 . S
C10423 H10400 0.950 . S
C10423 C10422 1.334 . S
C10423 C10424 1.287 . S
C10424 C10423 1.287 . S
C10424 C10425 1.524 . S
C10424 H10443 0.913 . S
C10425 H10401 0.950 . S
C10425 C10424 1.524 . S
C10425 C10426 1.415 . S
C10426 H10402 0.950 . S
C10426 C10421 1.363 . S
C10426 C10425 1.415 . S
C10427 H10403 0.951 . S
C10427 C10428 1.366 . S
C10427 C10429 1.388 . S
C10428 C10427 1.366 . S
C10428 C10432 1.385 . S
C10429 H10404 0.951 . S
C10429 C10427 1.388 . S
C10429 C10430 1.366 . S
C10430 C10429 1.366 . S
C10430 C10431 1.414 . S
C10430 C10433 1.499 . S
C10431 H10405 0.950 . S
C10431 C10430 1.414 . S
C10431 C10432 1.374 . S
C10432 H10406 0.950 . S
C10432 C10428 1.385 . S
C10432 C10431 1.374 . S
C10433 C10430 1.499 . S
C10433 C10434 1.373 . S
C10433 C10435 1.389 . S
C10434 H10407 0.950 . S
C10434 C10420 1.377 . S
C10434 C10433 1.373 . S
C10435 C10419 1.377 . S
C10435 C10433 1.389 . S
C10435 C10436 1.524 . S
C10436 C10435 1.524 . S
C10436 C10437 1.397 . S
C10436 C10441 1.363 . S
C10437 H10408 0.950 . S
C10437 C10436 1.397 . S
C10437 C10438 1.334 . S
C10438 H10409 0.950 . S
C10438 C10437 1.334 . S
C10438 C10439 1.287 . S
C10439 C10438 1.287 . S
C10439 C10440 1.524 . S
C10439 H10442 0.999 . S
C10440 H10410 0.950 . S
C10440 C10439 1.524 . S
C10440 C10441 1.415 . S
C10441 H10411 0.950 . S
C10441 C10436 1.363 . S
C10441 C10440 1.415 . S
H10442 C10439 0.999 . S
H10443 C10424 0.913 . S
H10444 C10462 0.951 . S
H10445 C10464 0.951 . S
H10446 C10466 0.950 . S
H10447 C10467 0.950 . S
H10448 C10469 0.950 . S
H10449 C10472 0.950 . S
H10450 C10473 0.950 . S
H10451 C10475 0.950 . S
H10452 C10476 0.950 . S
H10453 C10477 0.951 . S
H10454 C10479 0.951 . S
H10455 C10481 0.950 . S
H10456 C10482 0.950 . S
H10457 C10484 0.950 . S
H10458 C10487 0.950 . S
H10459 C10488 0.950 . S
H10460 C10490 0.950 . S
H10461 C10491 0.950 . S
C10462 H10444 0.951 . S
C10462 C10463 1.366 . S
C10462 C10464 1.388 . S
C10463 C10462 1.366 . S
C10463 C10467 1.385 . S
C10464 H10445 0.951 . S
C10464 C10462 1.388 . S
C10464 C10465 1.366 . S
C10465 C10464 1.366 . S
C10465 C10466 1.414 . S
C10465 C10468 1.499 . S
C10466 H10446 0.950 . S
C10466 C10465 1.414 . S
C10466 C10467 1.374 . S
C10467 H10447 0.950 . S
C10467 C10463 1.385 . S
C10467 C10466 1.374 . S
C10468 C10465 1.499 . S
C10468 C10469 1.373 . S
C10468 C10470 1.389 . S
C10469 H10448 0.950 . S
C10469 C10468 1.373 . S
C10469 C10485 1.377 . S
C10470 C10468 1.389 . S
C10470 C10471 1.524 . S
C10470 C10484 1.377 . S
C10471 C10470 1.524 . S
C10471 C10472 1.397 . S
C10471 C10476 1.363 . S
C10472 H10449 0.950 . S
C10472 C10471 1.397 . S
C10472 C10473 1.334 . S
C10473 H10450 0.950 . S
C10473 C10472 1.334 . S
C10473 C10474 1.287 . S
C10474 C10473 1.287 . S
C10474 C10475 1.524 . S
C10474 H10493 0.913 . S
C10475 H10451 0.950 . S
C10475 C10474 1.524 . S
C10475 C10476 1.415 . S
C10476 H10452 0.950 . S
C10476 C10471 1.363 . S
C10476 C10475 1.415 . S
C10477 H10453 0.951 . S
C10477 C10478 1.366 . S
C10477 C10479 1.388 . S
C10478 C10477 1.366 . S
C10478 C10482 1.385 . S
C10479 H10454 0.951 . S
C10479 C10477 1.388 . S
C10479 C10480 1.366 . S
C10480 C10479 1.366 . S
C10480 C10481 1.414 . S
C10480 C10483 1.499 . S
C10481 H10455 0.950 . S
C10481 C10480 1.414 . S
C10481 C10482 1.374 . S
C10482 H10456 0.950 . S
C10482 C10478 1.385 . S
C10482 C10481 1.374 . S
C10483 C10480 1.499 . S
C10483 C10484 1.373 . S
C10483 C10485 1.389 . S
C10484 H10457 0.950 . S
C10484 C10470 1.377 . S
C10484 C10483 1.373 . S
C10485 C10469 1.377 . S
C10485 C10483 1.389 . S
C10485 C10486 1.524 . S
C10486 C10485 1.524 . S
C10486 C10487 1.397 . S
C10486 C10491 1.363 . S
C10487 H10458 0.950 . S
C10487 C10486 1.397 . S
C10487 C10488 1.334 . S
C10488 H10459 0.950 . S
C10488 C10487 1.334 . S
C10488 C10489 1.287 . S
C10489 C10488 1.287 . S
C10489 C10490 1.524 . S
C10489 H10492 0.999 . S
C10490 H10460 0.950 . S
C10490 C10489 1.524 . S
C10490 C10491 1.415 . S
C10491 H10461 0.950 . S
C10491 C10486 1.363 . S
C10491 C10490 1.415 . S
H10492 C10489 0.999 . S
H10493 C10474 0.913 . S
H10494 C10512 0.951 . S
H10495 C10514 0.951 . S
H10496 C10516 0.950 . S
H10497 C10517 0.950 . S
H10498 C10519 0.950 . S
H10499 C10522 0.950 . S
H10500 C10523 0.950 . S
H10501 C10525 0.950 . S
H10502 C10526 0.950 . S
H10503 C10527 0.951 . S
H10504 C10529 0.951 . S
H10505 C10531 0.950 . S
H10506 C10532 0.950 . S
H10507 C10534 0.950 . S
H10508 C10537 0.950 . S
H10509 C10538 0.950 . S
H10510 C10540 0.950 . S
H10511 C10541 0.950 . S
C10512 H10494 0.951 . S
C10512 C10513 1.366 . S
C10512 C10514 1.388 . S
C10513 C10512 1.366 . S
C10513 C10517 1.385 . S
C10514 H10495 0.951 . S
C10514 C10512 1.388 . S
C10514 C10515 1.366 . S
C10515 C10514 1.366 . S
C10515 C10516 1.414 . S
C10515 C10518 1.499 . S
C10516 H10496 0.950 . S
C10516 C10515 1.414 . S
C10516 C10517 1.374 . S
C10517 H10497 0.950 . S
C10517 C10513 1.385 . S
C10517 C10516 1.374 . S
C10518 C10515 1.499 . S
C10518 C10519 1.373 . S
C10518 C10520 1.389 . S
C10519 H10498 0.950 . S
C10519 C10518 1.373 . S
C10519 C10535 1.377 . S
C10520 C10518 1.389 . S
C10520 C10521 1.524 . S
C10520 C10534 1.377 . S
C10521 C10520 1.524 . S
C10521 C10522 1.397 . S
C10521 C10526 1.363 . S
C10522 H10499 0.950 . S
C10522 C10521 1.397 . S
C10522 C10523 1.334 . S
C10523 H10500 0.950 . S
C10523 C10522 1.334 . S
C10523 C10524 1.287 . S
C10524 C10523 1.287 . S
C10524 C10525 1.524 . S
C10524 H10543 0.913 . S
C10525 H10501 0.950 . S
C10525 C10524 1.524 . S
C10525 C10526 1.415 . S
C10526 H10502 0.950 . S
C10526 C10521 1.363 . S
C10526 C10525 1.415 . S
C10527 H10503 0.951 . S
C10527 C10528 1.366 . S
C10527 C10529 1.388 . S
C10528 C10527 1.366 . S
C10528 C10532 1.385 . S
C10529 H10504 0.951 . S
C10529 C10527 1.388 . S
C10529 C10530 1.366 . S
C10530 C10529 1.366 . S
C10530 C10531 1.414 . S
C10530 C10533 1.499 . S
C10531 H10505 0.950 . S
C10531 C10530 1.414 . S
C10531 C10532 1.374 . S
C10532 H10506 0.950 . S
C10532 C10528 1.385 . S
C10532 C10531 1.374 . S
C10533 C10530 1.499 . S
C10533 C10534 1.373 . S
C10533 C10535 1.389 . S
C10534 H10507 0.950 . S
C10534 C10520 1.377 . S
C10534 C10533 1.373 . S
C10535 C10519 1.377 . S
C10535 C10533 1.389 . S
C10535 C10536 1.524 . S
C10536 C10535 1.524 . S
C10536 C10537 1.397 . S
C10536 C10541 1.363 . S
C10537 H10508 0.950 . S
C10537 C10536 1.397 . S
C10537 C10538 1.334 . S
C10538 H10509 0.950 . S
C10538 C10537 1.334 . S
C10538 C10539 1.287 . S
C10539 C10538 1.287 . S
C10539 C10540 1.524 . S
C10539 H10542 0.999 . S
C10540 H10510 0.950 . S
C10540 C10539 1.524 . S
C10540 C10541 1.415 . S
C10541 H10511 0.950 . S
C10541 C10536 1.363 . S
C10541 C10540 1.415 . S
H10542 C10539 0.999 . S
H10543 C10524 0.913 . S
H10544 C10562 0.951 . S
H10545 C10564 0.951 . S
H10546 C10566 0.950 . S
H10547 C10567 0.950 . S
H10548 C10569 0.950 . S
H10549 C10572 0.950 . S
H10550 C10573 0.950 . S
H10551 C10575 0.950 . S
H10552 C10576 0.950 . S
H10553 C10577 0.951 . S
H10554 C10579 0.951 . S
H10555 C10581 0.950 . S
H10556 C10582 0.950 . S
H10557 C10584 0.950 . S
H10558 C10587 0.950 . S
H10559 C10588 0.950 . S
H10560 C10590 0.950 . S
H10561 C10591 0.950 . S
C10562 H10544 0.951 . S
C10562 C10563 1.366 . S
C10562 C10564 1.388 . S
C10563 C10562 1.366 . S
C10563 C10567 1.385 . S
C10564 H10545 0.951 . S
C10564 C10562 1.388 . S
C10564 C10565 1.366 . S
C10565 C10564 1.366 . S
C10565 C10566 1.414 . S
C10565 C10568 1.499 . S
C10566 H10546 0.950 . S
C10566 C10565 1.414 . S
C10566 C10567 1.374 . S
C10567 H10547 0.950 . S
C10567 C10563 1.385 . S
C10567 C10566 1.374 . S
C10568 C10565 1.499 . S
C10568 C10569 1.373 . S
C10568 C10570 1.389 . S
C10569 H10548 0.950 . S
C10569 C10568 1.373 . S
C10569 C10585 1.377 . S
C10570 C10568 1.389 . S
C10570 C10571 1.524 . S
C10570 C10584 1.377 . S
C10571 C10570 1.524 . S
C10571 C10572 1.397 . S
C10571 C10576 1.363 . S
C10572 H10549 0.950 . S
C10572 C10571 1.397 . S
C10572 C10573 1.334 . S
C10573 H10550 0.950 . S
C10573 C10572 1.334 . S
C10573 C10574 1.287 . S
C10574 C10573 1.287 . S
C10574 C10575 1.524 . S
C10574 H10593 0.913 . S
C10575 H10551 0.950 . S
C10575 C10574 1.524 . S
C10575 C10576 1.415 . S
C10576 H10552 0.950 . S
C10576 C10571 1.363 . S
C10576 C10575 1.415 . S
C10577 H10553 0.951 . S
C10577 C10578 1.366 . S
C10577 C10579 1.388 . S
C10578 C10577 1.366 . S
C10578 C10582 1.385 . S
C10579 H10554 0.951 . S
C10579 C10577 1.388 . S
C10579 C10580 1.366 . S
C10580 C10579 1.366 . S
C10580 C10581 1.414 . S
C10580 C10583 1.499 . S
C10581 H10555 0.950 . S
C10581 C10580 1.414 . S
C10581 C10582 1.374 . S
C10582 H10556 0.950 . S
C10582 C10578 1.385 . S
C10582 C10581 1.374 . S
C10583 C10580 1.499 . S
C10583 C10584 1.373 . S
C10583 C10585 1.389 . S
C10584 H10557 0.950 . S
C10584 C10570 1.377 . S
C10584 C10583 1.373 . S
C10585 C10569 1.377 . S
C10585 C10583 1.389 . S
C10585 C10586 1.524 . S
C10586 C10585 1.524 . S
C10586 C10587 1.397 . S
C10586 C10591 1.363 . S
C10587 H10558 0.950 . S
C10587 C10586 1.397 . S
C10587 C10588 1.334 . S
C10588 H10559 0.950 . S
C10588 C10587 1.334 . S
C10588 C10589 1.287 . S
C10589 C10588 1.287 . S
C10589 C10590 1.524 . S
C10589 H10592 0.999 . S
C10590 H10560 0.950 . S
C10590 C10589 1.524 . S
C10590 C10591 1.415 . S
C10591 H10561 0.950 . S
C10591 C10586 1.363 . S
C10591 C10590 1.415 . S
H10592 C10589 0.999 . S
H10593 C10574 0.913 . S
H10594 C10612 0.951 . S
H10595 C10614 0.951 . S
H10596 C10616 0.950 . S
H10597 C10617 0.950 . S
H10598 C10619 0.950 . S
H10599 C10622 0.950 . S
H10600 C10623 0.950 . S
H10601 C10625 0.950 . S
H10602 C10626 0.950 . S
H10603 C10627 0.951 . S
H10604 C10629 0.951 . S
H10605 C10631 0.950 . S
H10606 C10632 0.950 . S
H10607 C10634 0.950 . S
H10608 C10637 0.950 . S
H10609 C10638 0.950 . S
H10610 C10640 0.950 . S
H10611 C10641 0.950 . S
C10612 H10594 0.951 . S
C10612 C10613 1.366 . S
C10612 C10614 1.388 . S
C10613 C10612 1.366 . S
C10613 C10617 1.385 . S
C10614 H10595 0.951 . S
C10614 C10612 1.388 . S
C10614 C10615 1.366 . S
C10615 C10614 1.366 . S
C10615 C10616 1.414 . S
C10615 C10618 1.499 . S
C10616 H10596 0.950 . S
C10616 C10615 1.414 . S
C10616 C10617 1.374 . S
C10617 H10597 0.950 . S
C10617 C10613 1.385 . S
C10617 C10616 1.374 . S
C10618 C10615 1.499 . S
C10618 C10619 1.373 . S
C10618 C10620 1.389 . S
C10619 H10598 0.950 . S
C10619 C10618 1.373 . S
C10619 C10635 1.377 . S
C10620 C10618 1.389 . S
C10620 C10621 1.524 . S
C10620 C10634 1.377 . S
C10621 C10620 1.524 . S
C10621 C10622 1.397 . S
C10621 C10626 1.363 . S
C10622 H10599 0.950 . S
C10622 C10621 1.397 . S
C10622 C10623 1.334 . S
C10623 H10600 0.950 . S
C10623 C10622 1.334 . S
C10623 C10624 1.287 . S
C10624 C10623 1.287 . S
C10624 C10625 1.524 . S
C10624 H10643 0.913 . S
C10625 H10601 0.950 . S
C10625 C10624 1.524 . S
C10625 C10626 1.415 . S
C10626 H10602 0.950 . S
C10626 C10621 1.363 . S
C10626 C10625 1.415 . S
C10627 H10603 0.951 . S
C10627 C10628 1.366 . S
C10627 C10629 1.388 . S
C10628 C10627 1.366 . S
C10628 C10632 1.385 . S
C10629 H10604 0.951 . S
C10629 C10627 1.388 . S
C10629 C10630 1.366 . S
C10630 C10629 1.366 . S
C10630 C10631 1.414 . S
C10630 C10633 1.499 . S
C10631 H10605 0.950 . S
C10631 C10630 1.414 . S
C10631 C10632 1.374 . S
C10632 H10606 0.950 . S
C10632 C10628 1.385 . S
C10632 C10631 1.374 . S
C10633 C10630 1.499 . S
C10633 C10634 1.373 . S
C10633 C10635 1.389 . S
C10634 H10607 0.950 . S
C10634 C10620 1.377 . S
C10634 C10633 1.373 . S
C10635 C10619 1.377 . S
C10635 C10633 1.389 . S
C10635 C10636 1.524 . S
C10636 C10635 1.524 . S
C10636 C10637 1.397 . S
C10636 C10641 1.363 . S
C10637 H10608 0.950 . S
C10637 C10636 1.397 . S
C10637 C10638 1.334 . S
C10638 H10609 0.950 . S
C10638 C10637 1.334 . S
C10638 C10639 1.287 . S
C10639 C10638 1.287 . S
C10639 C10640 1.524 . S
C10639 H10642 0.999 . S
C10640 H10610 0.950 . S
C10640 C10639 1.524 . S
C10640 C10641 1.415 . S
C10641 H10611 0.950 . S
C10641 C10636 1.363 . S
C10641 C10640 1.415 . S
H10642 C10639 0.999 . S
H10643 C10624 0.913 . S
H10644 C10662 0.951 . S
H10645 C10664 0.951 . S
H10646 C10666 0.950 . S
H10647 C10667 0.950 . S
H10648 C10669 0.950 . S
H10649 C10672 0.950 . S
H10650 C10673 0.950 . S
H10651 C10675 0.950 . S
H10652 C10676 0.950 . S
H10653 C10677 0.951 . S
H10654 C10679 0.951 . S
H10655 C10681 0.950 . S
H10656 C10682 0.950 . S
H10657 C10684 0.950 . S
H10658 C10687 0.950 . S
H10659 C10688 0.950 . S
H10660 C10690 0.950 . S
H10661 C10691 0.950 . S
C10662 H10644 0.951 . S
C10662 C10663 1.366 . S
C10662 C10664 1.388 . S
C10663 C10662 1.366 . S
C10663 C10667 1.385 . S
C10664 H10645 0.951 . S
C10664 C10662 1.388 . S
C10664 C10665 1.366 . S
C10665 C10664 1.366 . S
C10665 C10666 1.414 . S
C10665 C10668 1.499 . S
C10666 H10646 0.950 . S
C10666 C10665 1.414 . S
C10666 C10667 1.374 . S
C10667 H10647 0.950 . S
C10667 C10663 1.385 . S
C10667 C10666 1.374 . S
C10668 C10665 1.499 . S
C10668 C10669 1.373 . S
C10668 C10670 1.389 . S
C10669 H10648 0.950 . S
C10669 C10668 1.373 . S
C10669 C10685 1.377 . S
C10670 C10668 1.389 . S
C10670 C10671 1.524 . S
C10670 C10684 1.377 . S
C10671 C10670 1.524 . S
C10671 C10672 1.397 . S
C10671 C10676 1.363 . S
C10672 H10649 0.950 . S
C10672 C10671 1.397 . S
C10672 C10673 1.334 . S
C10673 H10650 0.950 . S
C10673 C10672 1.334 . S
C10673 C10674 1.287 . S
C10674 C10673 1.287 . S
C10674 C10675 1.524 . S
C10674 H10693 0.913 . S
C10675 H10651 0.950 . S
C10675 C10674 1.524 . S
C10675 C10676 1.415 . S
C10676 H10652 0.950 . S
C10676 C10671 1.363 . S
C10676 C10675 1.415 . S
C10677 H10653 0.951 . S
C10677 C10678 1.366 . S
C10677 C10679 1.388 . S
C10678 C10677 1.366 . S
C10678 C10682 1.385 . S
C10679 H10654 0.951 . S
C10679 C10677 1.388 . S
C10679 C10680 1.366 . S
C10680 C10679 1.366 . S
C10680 C10681 1.414 . S
C10680 C10683 1.499 . S
C10681 H10655 0.950 . S
C10681 C10680 1.414 . S
C10681 C10682 1.374 . S
C10682 H10656 0.950 . S
C10682 C10678 1.385 . S
C10682 C10681 1.374 . S
C10683 C10680 1.499 . S
C10683 C10684 1.373 . S
C10683 C10685 1.389 . S
C10684 H10657 0.950 . S
C10684 C10670 1.377 . S
C10684 C10683 1.373 . S
C10685 C10669 1.377 . S
C10685 C10683 1.389 . S
C10685 C10686 1.524 . S
C10686 C10685 1.524 . S
C10686 C10687 1.397 . S
C10686 C10691 1.363 . S
C10687 H10658 0.950 . S
C10687 C10686 1.397 . S
C10687 C10688 1.334 . S
C10688 H10659 0.950 . S
C10688 C10687 1.334 . S
C10688 C10689 1.287 . S
C10689 C10688 1.287 . S
C10689 C10690 1.524 . S
C10689 H10692 0.999 . S
C10690 H10660 0.950 . S
C10690 C10689 1.524 . S
C10690 C10691 1.415 . S
C10691 H10661 0.950 . S
C10691 C10686 1.363 . S
C10691 C10690 1.415 . S
H10692 C10689 0.999 . S
H10693 C10674 0.913 . S
H10694 C10712 0.951 . S
H10695 C10714 0.951 . S
H10696 C10716 0.950 . S
H10697 C10717 0.950 . S
H10698 C10719 0.950 . S
H10699 C10722 0.950 . S
H10700 C10723 0.950 . S
H10701 C10725 0.950 . S
H10702 C10726 0.950 . S
H10703 C10727 0.951 . S
H10704 C10729 0.951 . S
H10705 C10731 0.950 . S
H10706 C10732 0.950 . S
H10707 C10734 0.950 . S
H10708 C10737 0.950 . S
H10709 C10738 0.950 . S
H10710 C10740 0.950 . S
H10711 C10741 0.950 . S
C10712 H10694 0.951 . S
C10712 C10713 1.366 . S
C10712 C10714 1.388 . S
C10713 C10712 1.366 . S
C10713 C10717 1.385 . S
C10714 H10695 0.951 . S
C10714 C10712 1.388 . S
C10714 C10715 1.366 . S
C10715 C10714 1.366 . S
C10715 C10716 1.414 . S
C10715 C10718 1.499 . S
C10716 H10696 0.950 . S
C10716 C10715 1.414 . S
C10716 C10717 1.374 . S
C10717 H10697 0.950 . S
C10717 C10713 1.385 . S
C10717 C10716 1.374 . S
C10718 C10715 1.499 . S
C10718 C10719 1.373 . S
C10718 C10720 1.389 . S
C10719 H10698 0.950 . S
C10719 C10718 1.373 . S
C10719 C10735 1.377 . S
C10720 C10718 1.389 . S
C10720 C10721 1.524 . S
C10720 C10734 1.377 . S
C10721 C10720 1.524 . S
C10721 C10722 1.397 . S
C10721 C10726 1.363 . S
C10722 H10699 0.950 . S
C10722 C10721 1.397 . S
C10722 C10723 1.334 . S
C10723 H10700 0.950 . S
C10723 C10722 1.334 . S
C10723 C10724 1.287 . S
C10724 C10723 1.287 . S
C10724 C10725 1.524 . S
C10724 H10743 0.913 . S
C10725 H10701 0.950 . S
C10725 C10724 1.524 . S
C10725 C10726 1.415 . S
C10726 H10702 0.950 . S
C10726 C10721 1.363 . S
C10726 C10725 1.415 . S
C10727 H10703 0.951 . S
C10727 C10728 1.366 . S
C10727 C10729 1.388 . S
C10728 C10727 1.366 . S
C10728 C10732 1.385 . S
C10729 H10704 0.951 . S
C10729 C10727 1.388 . S
C10729 C10730 1.366 . S
C10730 C10729 1.366 . S
C10730 C10731 1.414 . S
C10730 C10733 1.499 . S
C10731 H10705 0.950 . S
C10731 C10730 1.414 . S
C10731 C10732 1.374 . S
C10732 H10706 0.950 . S
C10732 C10728 1.385 . S
C10732 C10731 1.374 . S
C10733 C10730 1.499 . S
C10733 C10734 1.373 . S
C10733 C10735 1.389 . S
C10734 H10707 0.950 . S
C10734 C10720 1.377 . S
C10734 C10733 1.373 . S
C10735 C10719 1.377 . S
C10735 C10733 1.389 . S
C10735 C10736 1.524 . S
C10736 C10735 1.524 . S
C10736 C10737 1.397 . S
C10736 C10741 1.363 . S
C10737 H10708 0.950 . S
C10737 C10736 1.397 . S
C10737 C10738 1.334 . S
C10738 H10709 0.950 . S
C10738 C10737 1.334 . S
C10738 C10739 1.287 . S
C10739 C10738 1.287 . S
C10739 C10740 1.524 . S
C10739 H10742 0.999 . S
C10740 H10710 0.950 . S
C10740 C10739 1.524 . S
C10740 C10741 1.415 . S
C10741 H10711 0.950 . S
C10741 C10736 1.363 . S
C10741 C10740 1.415 . S
H10742 C10739 0.999 . S
H10743 C10724 0.913 . S
H10744 C10762 0.951 . S
H10745 C10764 0.951 . S
H10746 C10766 0.950 . S
H10747 C10767 0.950 . S
H10748 C10769 0.950 . S
H10749 C10772 0.950 . S
H10750 C10773 0.950 . S
H10751 C10775 0.950 . S
H10752 C10776 0.950 . S
H10753 C10777 0.951 . S
H10754 C10779 0.951 . S
H10755 C10781 0.950 . S
H10756 C10782 0.950 . S
H10757 C10784 0.950 . S
H10758 C10787 0.950 . S
H10759 C10788 0.950 . S
H10760 C10790 0.950 . S
H10761 C10791 0.950 . S
C10762 H10744 0.951 . S
C10762 C10763 1.366 . S
C10762 C10764 1.388 . S
C10763 C10762 1.366 . S
C10763 C10767 1.385 . S
C10764 H10745 0.951 . S
C10764 C10762 1.388 . S
C10764 C10765 1.366 . S
C10765 C10764 1.366 . S
C10765 C10766 1.414 . S
C10765 C10768 1.499 . S
C10766 H10746 0.950 . S
C10766 C10765 1.414 . S
C10766 C10767 1.374 . S
C10767 H10747 0.950 . S
C10767 C10763 1.385 . S
C10767 C10766 1.374 . S
C10768 C10765 1.499 . S
C10768 C10769 1.373 . S
C10768 C10770 1.389 . S
C10769 H10748 0.950 . S
C10769 C10768 1.373 . S
C10769 C10785 1.377 . S
C10770 C10768 1.389 . S
C10770 C10771 1.524 . S
C10770 C10784 1.377 . S
C10771 C10770 1.524 . S
C10771 C10772 1.397 . S
C10771 C10776 1.363 . S
C10772 H10749 0.950 . S
C10772 C10771 1.397 . S
C10772 C10773 1.334 . S
C10773 H10750 0.950 . S
C10773 C10772 1.334 . S
C10773 C10774 1.287 . S
C10774 C10773 1.287 . S
C10774 C10775 1.524 . S
C10774 H10793 0.913 . S
C10775 H10751 0.950 . S
C10775 C10774 1.524 . S
C10775 C10776 1.415 . S
C10776 H10752 0.950 . S
C10776 C10771 1.363 . S
C10776 C10775 1.415 . S
C10777 H10753 0.951 . S
C10777 C10778 1.366 . S
C10777 C10779 1.388 . S
C10778 C10777 1.366 . S
C10778 C10782 1.385 . S
C10779 H10754 0.951 . S
C10779 C10777 1.388 . S
C10779 C10780 1.366 . S
C10780 C10779 1.366 . S
C10780 C10781 1.414 . S
C10780 C10783 1.499 . S
C10781 H10755 0.950 . S
C10781 C10780 1.414 . S
C10781 C10782 1.374 . S
C10782 H10756 0.950 . S
C10782 C10778 1.385 . S
C10782 C10781 1.374 . S
C10783 C10780 1.499 . S
C10783 C10784 1.373 . S
C10783 C10785 1.389 . S
C10784 H10757 0.950 . S
C10784 C10770 1.377 . S
C10784 C10783 1.373 . S
C10785 C10769 1.377 . S
C10785 C10783 1.389 . S
C10785 C10786 1.524 . S
C10786 C10785 1.524 . S
C10786 C10787 1.397 . S
C10786 C10791 1.363 . S
C10787 H10758 0.950 . S
C10787 C10786 1.397 . S
C10787 C10788 1.334 . S
C10788 H10759 0.950 . S
C10788 C10787 1.334 . S
C10788 C10789 1.287 . S
C10789 C10788 1.287 . S
C10789 C10790 1.524 . S
C10789 H10792 0.999 . S
C10790 H10760 0.950 . S
C10790 C10789 1.524 . S
C10790 C10791 1.415 . S
C10791 H10761 0.950 . S
C10791 C10786 1.363 . S
C10791 C10790 1.415 . S
H10792 C10789 0.999 . S
H10793 C10774 0.913 . S
H10794 C10812 0.951 . S
H10795 C10814 0.951 . S
H10796 C10816 0.950 . S
H10797 C10817 0.950 . S
H10798 C10819 0.950 . S
H10799 C10822 0.950 . S
H10800 C10823 0.950 . S
H10801 C10825 0.950 . S
H10802 C10826 0.950 . S
H10803 C10827 0.951 . S
H10804 C10829 0.951 . S
H10805 C10831 0.950 . S
H10806 C10832 0.950 . S
H10807 C10834 0.950 . S
H10808 C10837 0.950 . S
H10809 C10838 0.950 . S
H10810 C10840 0.950 . S
H10811 C10841 0.950 . S
C10812 H10794 0.951 . S
C10812 C10813 1.366 . S
C10812 C10814 1.388 . S
C10813 C10812 1.366 . S
C10813 C10817 1.385 . S
C10814 H10795 0.951 . S
C10814 C10812 1.388 . S
C10814 C10815 1.366 . S
C10815 C10814 1.366 . S
C10815 C10816 1.414 . S
C10815 C10818 1.499 . S
C10816 H10796 0.950 . S
C10816 C10815 1.414 . S
C10816 C10817 1.374 . S
C10817 H10797 0.950 . S
C10817 C10813 1.385 . S
C10817 C10816 1.374 . S
C10818 C10815 1.499 . S
C10818 C10819 1.373 . S
C10818 C10820 1.389 . S
C10819 H10798 0.950 . S
C10819 C10818 1.373 . S
C10819 C10835 1.377 . S
C10820 C10818 1.389 . S
C10820 C10821 1.524 . S
C10820 C10834 1.377 . S
C10821 C10820 1.524 . S
C10821 C10822 1.397 . S
C10821 C10826 1.363 . S
C10822 H10799 0.950 . S
C10822 C10821 1.397 . S
C10822 C10823 1.334 . S
C10823 H10800 0.950 . S
C10823 C10822 1.334 . S
C10823 C10824 1.287 . S
C10824 C10823 1.287 . S
C10824 C10825 1.524 . S
C10824 H10843 0.913 . S
C10825 H10801 0.950 . S
C10825 C10824 1.524 . S
C10825 C10826 1.415 . S
C10826 H10802 0.950 . S
C10826 C10821 1.363 . S
C10826 C10825 1.415 . S
C10827 H10803 0.951 . S
C10827 C10828 1.366 . S
C10827 C10829 1.388 . S
C10828 C10827 1.366 . S
C10828 C10832 1.385 . S
C10829 H10804 0.951 . S
C10829 C10827 1.388 . S
C10829 C10830 1.366 . S
C10830 C10829 1.366 . S
C10830 C10831 1.414 . S
C10830 C10833 1.499 . S
C10831 H10805 0.950 . S
C10831 C10830 1.414 . S
C10831 C10832 1.374 . S
C10832 H10806 0.950 . S
C10832 C10828 1.385 . S
C10832 C10831 1.374 . S
C10833 C10830 1.499 . S
C10833 C10834 1.373 . S
C10833 C10835 1.389 . S
C10834 H10807 0.950 . S
C10834 C10820 1.377 . S
C10834 C10833 1.373 . S
C10835 C10819 1.377 . S
C10835 C10833 1.389 . S
C10835 C10836 1.524 . S
C10836 C10835 1.524 . S
C10836 C10837 1.397 . S
C10836 C10841 1.363 . S
C10837 H10808 0.950 . S
C10837 C10836 1.397 . S
C10837 C10838 1.334 . S
C10838 H10809 0.950 . S
C10838 C10837 1.334 . S
C10838 C10839 1.287 . S
C10839 C10838 1.287 . S
C10839 C10840 1.524 . S
C10839 H10842 0.999 . S
C10840 H10810 0.950 . S
C10840 C10839 1.524 . S
C10840 C10841 1.415 . S
C10841 H10811 0.950 . S
C10841 C10836 1.363 . S
C10841 C10840 1.415 . S
H10842 C10839 0.999 . S
H10843 C10824 0.913 . S
H10844 C10862 0.951 . S
H10845 C10864 0.951 . S
H10846 C10866 0.950 . S
H10847 C10867 0.950 . S
H10848 C10869 0.950 . S
H10849 C10872 0.950 . S
H10850 C10873 0.950 . S
H10851 C10875 0.950 . S
H10852 C10876 0.950 . S
H10853 C10877 0.951 . S
H10854 C10879 0.951 . S
H10855 C10881 0.950 . S
H10856 C10882 0.950 . S
H10857 C10884 0.950 . S
H10858 C10887 0.950 . S
H10859 C10888 0.950 . S
H10860 C10890 0.950 . S
H10861 C10891 0.950 . S
C10862 H10844 0.951 . S
C10862 C10863 1.366 . S
C10862 C10864 1.388 . S
C10863 C10862 1.366 . S
C10863 C10867 1.385 . S
C10864 H10845 0.951 . S
C10864 C10862 1.388 . S
C10864 C10865 1.366 . S
C10865 C10864 1.366 . S
C10865 C10866 1.414 . S
C10865 C10868 1.499 . S
C10866 H10846 0.950 . S
C10866 C10865 1.414 . S
C10866 C10867 1.374 . S
C10867 H10847 0.950 . S
C10867 C10863 1.385 . S
C10867 C10866 1.374 . S
C10868 C10865 1.499 . S
C10868 C10869 1.373 . S
C10868 C10870 1.389 . S
C10869 H10848 0.950 . S
C10869 C10868 1.373 . S
C10869 C10885 1.377 . S
C10870 C10868 1.389 . S
C10870 C10871 1.524 . S
C10870 C10884 1.377 . S
C10871 C10870 1.524 . S
C10871 C10872 1.397 . S
C10871 C10876 1.363 . S
C10872 H10849 0.950 . S
C10872 C10871 1.397 . S
C10872 C10873 1.334 . S
C10873 H10850 0.950 . S
C10873 C10872 1.334 . S
C10873 C10874 1.287 . S
C10874 C10873 1.287 . S
C10874 C10875 1.524 . S
C10874 H10893 0.913 . S
C10875 H10851 0.950 . S
C10875 C10874 1.524 . S
C10875 C10876 1.415 . S
C10876 H10852 0.950 . S
C10876 C10871 1.363 . S
C10876 C10875 1.415 . S
C10877 H10853 0.951 . S
C10877 C10878 1.366 . S
C10877 C10879 1.388 . S
C10878 C10877 1.366 . S
C10878 C10882 1.385 . S
C10879 H10854 0.951 . S
C10879 C10877 1.388 . S
C10879 C10880 1.366 . S
C10880 C10879 1.366 . S
C10880 C10881 1.414 . S
C10880 C10883 1.499 . S
C10881 H10855 0.950 . S
C10881 C10880 1.414 . S
C10881 C10882 1.374 . S
C10882 H10856 0.950 . S
C10882 C10878 1.385 . S
C10882 C10881 1.374 . S
C10883 C10880 1.499 . S
C10883 C10884 1.373 . S
C10883 C10885 1.389 . S
C10884 H10857 0.950 . S
C10884 C10870 1.377 . S
C10884 C10883 1.373 . S
C10885 C10869 1.377 . S
C10885 C10883 1.389 . S
C10885 C10886 1.524 . S
C10886 C10885 1.524 . S
C10886 C10887 1.397 . S
C10886 C10891 1.363 . S
C10887 H10858 0.950 . S
C10887 C10886 1.397 . S
C10887 C10888 1.334 . S
C10888 H10859 0.950 . S
C10888 C10887 1.334 . S
C10888 C10889 1.287 . S
C10889 C10888 1.287 . S
C10889 C10890 1.524 . S
C10889 H10892 0.999 . S
C10890 H10860 0.950 . S
C10890 C10889 1.524 . S
C10890 C10891 1.415 . S
C10891 H10861 0.950 . S
C10891 C10886 1.363 . S
C10891 C10890 1.415 . S
H10892 C10889 0.999 . S
H10893 C10874 0.913 . S
H10894 C10912 0.951 . S
H10895 C10914 0.951 . S
H10896 C10916 0.950 . S
H10897 C10917 0.950 . S
H10898 C10919 0.950 . S
H10899 C10922 0.950 . S
H10900 C10923 0.950 . S
H10901 C10925 0.950 . S
H10902 C10926 0.950 . S
H10903 C10927 0.951 . S
H10904 C10929 0.951 . S
H10905 C10931 0.950 . S
H10906 C10932 0.950 . S
H10907 C10934 0.950 . S
H10908 C10937 0.950 . S
H10909 C10938 0.950 . S
H10910 C10940 0.950 . S
H10911 C10941 0.950 . S
C10912 H10894 0.951 . S
C10912 C10913 1.366 . S
C10912 C10914 1.388 . S
C10913 C10912 1.366 . S
C10913 C10917 1.385 . S
C10914 H10895 0.951 . S
C10914 C10912 1.388 . S
C10914 C10915 1.366 . S
C10915 C10914 1.366 . S
C10915 C10916 1.414 . S
C10915 C10918 1.499 . S
C10916 H10896 0.950 . S
C10916 C10915 1.414 . S
C10916 C10917 1.374 . S
C10917 H10897 0.950 . S
C10917 C10913 1.385 . S
C10917 C10916 1.374 . S
C10918 C10915 1.499 . S
C10918 C10919 1.373 . S
C10918 C10920 1.389 . S
C10919 H10898 0.950 . S
C10919 C10918 1.373 . S
C10919 C10935 1.377 . S
C10920 C10918 1.389 . S
C10920 C10921 1.524 . S
C10920 C10934 1.377 . S
C10921 C10920 1.524 . S
C10921 C10922 1.397 . S
C10921 C10926 1.363 . S
C10922 H10899 0.950 . S
C10922 C10921 1.397 . S
C10922 C10923 1.334 . S
C10923 H10900 0.950 . S
C10923 C10922 1.334 . S
C10923 C10924 1.287 . S
C10924 C10923 1.287 . S
C10924 C10925 1.524 . S
C10924 H10943 0.913 . S
C10925 H10901 0.950 . S
C10925 C10924 1.524 . S
C10925 C10926 1.415 . S
C10926 H10902 0.950 . S
C10926 C10921 1.363 . S
C10926 C10925 1.415 . S
C10927 H10903 0.951 . S
C10927 C10928 1.366 . S
C10927 C10929 1.388 . S
C10928 C10927 1.366 . S
C10928 C10932 1.385 . S
C10929 H10904 0.951 . S
C10929 C10927 1.388 . S
C10929 C10930 1.366 . S
C10930 C10929 1.366 . S
C10930 C10931 1.414 . S
C10930 C10933 1.499 . S
C10931 H10905 0.950 . S
C10931 C10930 1.414 . S
C10931 C10932 1.374 . S
C10932 H10906 0.950 . S
C10932 C10928 1.385 . S
C10932 C10931 1.374 . S
C10933 C10930 1.499 . S
C10933 C10934 1.373 . S
C10933 C10935 1.389 . S
C10934 H10907 0.950 . S
C10934 C10920 1.377 . S
C10934 C10933 1.373 . S
C10935 C10919 1.377 . S
C10935 C10933 1.389 . S
C10935 C10936 1.524 . S
C10936 C10935 1.524 . S
C10936 C10937 1.397 . S
C10936 C10941 1.363 . S
C10937 H10908 0.950 . S
C10937 C10936 1.397 . S
C10937 C10938 1.334 . S
C10938 H10909 0.950 . S
C10938 C10937 1.334 . S
C10938 C10939 1.287 . S
C10939 C10938 1.287 . S
C10939 C10940 1.524 . S
C10939 H10942 0.999 . S
C10940 H10910 0.950 . S
C10940 C10939 1.524 . S
C10940 C10941 1.415 . S
C10941 H10911 0.950 . S
C10941 C10936 1.363 . S
C10941 C10940 1.415 . S
H10942 C10939 0.999 . S
H10943 C10924 0.913 . S
C1363 C5 1.689 . S
C1378 C957 1.689 . S
C1413 C915 1.689 . S
C1428 C19 1.689 . S
C1463 C929 1.689 . S
C1478 C33 1.689 . S
C1513 C47 1.689 . S
C1528 C943 1.689 . S
C1563 C999 1.689 . S
C1578 C61 1.689 . S
C1613 C971 1.689 . S
C1628 C75 1.689 . S
C1663 C985 1.689 . S
C1678 C89 1.689 . S
C1713 C103 1.689 . S
C1728 C901 1.689 . S
C1763 C117 1.689 . S
C1778 C887 1.688 . S
C1813 C131 1.689 . S
C1828 C845 1.688 . S
C1863 C145 1.689 . S
C1878 C859 1.689 . S
C1913 C159 1.689 . S
C1928 C873 1.688 . S
C1963 C173 1.689 . S
C1978 C803 1.688 . S
C2013 C817 1.689 . S
C2028 C187 1.689 . S
C2063 C831 1.688 . S
C2078 C201 1.689 . S
C2113 C215 1.689 . S
C2128 C789 1.688 . S
C2163 C229 1.689 . S
C2178 C775 1.689 . S
C2213 C243 1.689 . S
C2228 C691 1.689 . S
C2263 C705 1.689 . S
C2278 C257 1.688 . S
C2313 C719 1.689 . S
C2328 C271 1.689 . S
C2363 C677 1.689 . S
C2378 C285 1.688 . S
C2413 C299 1.689 . S
C2428 C747 1.689 . S
C2463 C313 1.689 . S
C2478 C761 1.688 . S
C2513 C327 1.689 . S
C2528 C733 1.689 . S
C2563 C341 1.689 . S
C2578 C1293 1.689 . S
C2613 C355 1.689 . S
C2628 C1251 1.689 . S
C2663 C369 1.689 . S
C2678 C1265 1.689 . S
C2713 C383 1.689 . S
C2728 C1279 1.688 . S
C2763 C397 1.689 . S
C2778 C1335 1.689 . S
C2813 C411 1.689 . S
C2828 C1307 1.689 . S
C2863 C1321 1.688 . S
C2878 C425 1.689 . S
C2913 C439 1.689 . S
C2928 C1237 1.688 . S
C2963 C453 1.689 . S
C2978 C1223 1.689 . S
C3013 C1181 1.689 . S
C3028 C467 1.688 . S
C3063 C481 1.689 . S
C3078 C1195 1.689 . S
C3113 C495 1.689 . S
C3128 C1209 1.689 . S
C3163 C509 1.688 . S
C3178 C1139 1.689 . S
C3213 C523 1.689 . S
C3228 C1153 1.689 . S
C3263 C537 1.688 . S
C3278 C1167 1.689 . S
C3313 C1125 1.689 . S
C3328 C551 1.689 . S
C3363 C565 1.689 . S
C3378 C1111 1.689 . S
C3413 C579 1.689 . S
C3428 C1027 1.688 . S
C3463 C593 1.689 . S
C3478 C1041 1.688 . S
C3513 C1055 1.689 . S
C3528 C607 1.689 . S
C3563 C621 1.689 . S
C3578 C1013 1.689 . S
C3613 C1083 1.689 . S
C3628 C635 1.689 . S
C3663 C649 1.688 . S
C3678 C1097 1.688 . S
C3713 C663 1.688 . S
C3728 C1069 1.689 . S
C3763 C9 1.518 . S
C3778 C555 1.518 . S
C3813 C23 1.518 . S
C3828 C513 1.518 . S
C3863 C527 1.518 . S
C3878 C37 1.518 . S
C3913 C51 1.518 . S
C3928 C541 1.518 . S
C3963 C471 1.518 . S
C3978 C65 1.518 . S
C4013 C485 1.518 . S
C4028 C79 1.518 . S
C4063 C499 1.518 . S
C4078 C93 1.518 . S
C4113 C457 1.518 . S
C4128 C107 1.518 . S
C4163 C443 1.518 . S
C4178 C121 1.518 . S
C4213 C135 1.518 . S
C4228 C401 1.518 . S
C4263 C415 1.518 . S
C4278 C149 1.518 . S
C4313 C163 1.518 . S
C4328 C429 1.518 . S
C4363 C359 1.518 . S
C4378 C177 1.518 . S
C4413 C373 1.518 . S
C4428 C191 1.518 . S
C4463 C205 1.518 . S
C4478 C387 1.518 . S
C4513 C219 1.518 . S
C4528 C345 1.518 . S
C4563 C233 1.518 . S
C4578 C625 1.518 . S
C4613 C247 1.518 . S
C4628 C667 1.518 . S
C4663 C639 1.518 . S
C4678 C261 1.518 . S
C4713 C653 1.518 . S
C4728 C275 1.518 . S
C4763 C289 1.518 . S
C4778 C569 1.518 . S
C4813 C303 1.518 . S
C4828 C597 1.518 . S
C4863 C611 1.518 . S
C4878 C317 1.518 . S
C4913 C331 1.518 . S
C4928 C583 1.518 . S
C4963 C1227 1.518 . S
C4978 C681 1.518 . S
C5013 C1185 1.518 . S
C5028 C695 1.518 . S
C5063 C1199 1.518 . S
C5078 C709 1.518 . S
C5113 C723 1.518 . S
C5128 C1213 1.518 . S
C5163 C1143 1.518 . S
C5178 C737 1.518 . S
C5213 C1157 1.518 . S
C5228 C751 1.518 . S
C5263 C765 1.518 . S
C5278 C1171 1.518 . S
C5313 C779 1.518 . S
C5328 C1129 1.518 . S
C5363 C1115 1.518 . S
C5378 C793 1.518 . S
C5413 C807 1.518 . S
C5428 C1073 1.518 . S
C5463 C1087 1.518 . S
C5478 C821 1.518 . S
C5513 C1101 1.518 . S
C5528 C835 1.518 . S
C5563 C849 1.518 . S
C5578 C1031 1.518 . S
C5613 C863 1.518 . S
C5628 C1045 1.518 . S
C5663 C1059 1.518 . S
C5678 C877 1.518 . S
C5713 C891 1.518 . S
C5728 C1017 1.518 . S
C5763 C1297 1.518 . S
C5778 C905 1.518 . S
C5813 C1339 1.518 . S
C5828 C919 1.518 . S
C5863 C933 1.518 . S
C5878 C1311 1.518 . S
C5913 C1325 1.518 . S
C5928 C947 1.518 . S
C5963 C1241 1.518 . S
C5978 C961 1.518 . S
C6013 C1269 1.518 . S
C6028 C975 1.518 . S
C6063 C989 1.518 . S
C6078 C1283 1.518 . S
C6113 C1255 1.518 . S
C6128 C1003 1.518 . S
C6163 C11 1.104 . S
C6178 C403 1.105 . S
C6213 C417 1.104 . S
C6228 C25 1.105 . S
C6263 C39 1.104 . S
C6278 C431 1.105 . S
C6313 C445 1.104 . S
C6328 C53 1.105 . S
C6363 C67 1.105 . S
C6378 C347 1.104 . S
C6413 C81 1.104 . S
C6428 C361 1.105 . S
C6463 C95 1.105 . S
C6478 C375 1.104 . S
C6513 C389 1.104 . S
C6528 C109 1.105 . S
C6563 C543 1.104 . S
C6578 C123 1.105 . S
C6613 C137 1.105 . S
C6628 C557 1.104 . S
C6663 C151 1.105 . S
C6678 C515 1.105 . S
C6713 C165 1.105 . S
C6728 C529 1.104 . S
C6763 C179 1.105 . S
C6778 C487 1.105 . S
C6813 C193 1.104 . S
C6828 C501 1.105 . S
C6863 C207 1.104 . S
C6878 C459 1.105 . S
C6913 C221 1.104 . S
C6928 C473 1.105 . S
C6963 C235 1.104 . S
C6978 C641 1.105 . S
C7013 C249 1.105 . S
C7028 C613 1.104 . S
C7063 C627 1.105 . S
C7078 C263 1.104 . S
C7113 C277 1.104 . S
C7128 C585 1.105 . S
C7163 C599 1.104 . S
C7178 C291 1.105 . S
C7213 C305 1.105 . S
C7228 C571 1.104 . S
C7263 C319 1.105 . S
C7278 C669 1.104 . S
C7313 C655 1.105 . S
C7328 C333 1.104 . S
C7363 C1075 1.104 . S
C7378 C683 1.105 . S
C7413 C697 1.105 . S
C7428 C1089 1.104 . S
C7463 C1103 1.105 . S
C7478 C711 1.104 . S
C7513 C725 1.104 . S
C7528 C1117 1.105 . S
C7563 C1019 1.105 . S
C7578 C739 1.104 . S
C7613 C1033 1.105 . S
C7628 C753 1.104 . S
C7663 C1047 1.104 . S
C7678 C767 1.105 . S
C7713 C781 1.105 . S
C7728 C1061 1.104 . S
C7763 C795 1.105 . S
C7778 C1215 1.104 . S
C7813 C1229 1.104 . S
C7828 C809 1.105 . S
C7863 C1187 1.105 . S
C7878 C823 1.104 . S
C7913 C1201 1.104 . S
C7928 C837 1.105 . S
C7963 C851 1.105 . S
C7978 C1159 1.105 . S
C8013 C865 1.104 . S
C8028 C1173 1.105 . S
C8063 C1131 1.105 . S
C8078 C879 1.104 . S
C8113 C1145 1.104 . S
C8128 C893 1.105 . S
C8163 C1313 1.105 . S
C8178 C907 1.104 . S
C8213 C921 1.105 . S
C8228 C1285 1.104 . S
C8263 C1299 1.104 . S
C8278 C935 1.105 . S
C8313 C949 1.104 . S
C8328 C1257 1.105 . S
C8363 C963 1.105 . S
C8378 C1271 1.105 . S
C8413 C977 1.105 . S
C8428 C1243 1.104 . S
C8463 C1341 1.105 . S
C8478 C991 1.104 . S
C8513 C1005 1.105 . S
C8528 C1327 1.104 . S
C8563 C434 1.168 . S
C8578 C0 1.168 . S
C8613 C392 1.168 . S
C8628 C14 1.168 . S
C8663 C28 1.169 . S
C8678 C406 1.167 . S
C8713 C420 1.168 . S
C8728 C42 1.168 . S
C8763 C350 1.168 . S
C8778 C56 1.168 . S
C8813 C70 1.168 . S
C8828 C364 1.168 . S
C8863 C84 1.168 . S
C8878 C378 1.168 . S
C8913 C336 1.168 . S
C8928 C98 1.168 . S
C8963 C616 1.168 . S
C8978 C112 1.169 . S
C9013 C126 1.168 . S
C9028 C574 1.168 . S
C9063 C140 1.167 . S
C9078 C588 1.169 . S
C9113 C602 1.168 . S
C9128 C154 1.168 . S
C9163 C168 1.168 . S
C9178 C658 1.168 . S
C9213 C630 1.169 . S
C9228 C182 1.168 . S
C9263 C644 1.168 . S
C9278 C196 1.169 . S
C9313 C210 1.169 . S
C9328 C560 1.168 . S
C9363 C224 1.168 . S
C9378 C546 1.168 . S
C9413 C238 1.168 . S
C9428 C462 1.168 . S
C9463 C252 1.168 . S
C9478 C476 1.169 . S
C9513 C490 1.168 . S
C9528 C266 1.168 . S
C9563 C448 1.168 . S
C9578 C280 1.168 . S
C9613 C294 1.167 . S
C9628 C518 1.169 . S
C9663 C308 1.168 . S
C9678 C532 1.168 . S
C9713 C322 1.168 . S
C9728 C504 1.168 . S
C9763 C672 1.168 . S
C9778 C1106 1.168 . S
C9813 C686 1.168 . S
C9828 C1064 1.168 . S
C9863 C700 1.168 . S
C9878 C1078 1.169 . S
C9913 C1092 1.168 . S
C9928 C714 1.168 . S
C9963 C1022 1.168 . S
C9978 C728 1.168 . S
C10013 C1036 1.169 . S
C10028 C742 1.168 . S
C10063 C756 1.168 . S
C10078 C1050 1.169 . S
C10113 C1008 1.168 . S
C10128 C770 1.168 . S
C10163 C1288 1.168 . S
C10178 C784 1.168 . S
C10213 C1246 1.167 . S
C10228 C798 1.169 . S
C10263 C1260 1.168 . S
C10278 C812 1.168 . S
C10313 C1274 1.168 . S
C10328 C826 1.168 . S
C10363 C1330 1.168 . S
C10378 C840 1.168 . S
C10413 C1302 1.168 . S
C10428 C854 1.168 . S
C10463 C1316 1.168 . S
C10478 C868 1.169 . S
C10513 C1232 1.168 . S
C10528 C882 1.168 . S
C10563 C896 1.169 . S
C10578 C1218 1.167 . S
C10613 C1134 1.168 . S
C10628 C910 1.168 . S
C10663 C1148 1.169 . S
C10678 C924 1.168 . S
C10713 C1162 1.168 . S
C10728 C938 1.169 . S
C10763 C1120 1.168 . S
C10778 C952 1.169 . S
C10813 C1190 1.168 . S
C10828 C966 1.169 . S
C10863 C1204 1.168 . S
C10878 C980 1.168 . S
C10913 C1176 1.168 . S
C10928 C994 1.168 . S
