# Generated by pormake.
# Topology unw, (4)-cn, num edge types: 1
# Building blocks:
#     Node 0, Type 0, BuildingBlock: ESEHIV_clean_sbu_0, # of connection points: 4
#     Node 1, Type 0, BuildingBlock: ESEHIV_clean_sbu_0, # of connection points: 4
#     Node 2, Type 0, BuildingBlock: ESEHIV_clean_sbu_0, # of connection points: 4
#     Node 3, Type 0, BuildingBlock: ESEHIV_clean_sbu_0, # of connection points: 4
#     Node 4, Type 0, BuildingBlock: ESEHIV_clean_sbu_0, # of connection points: 4
#     Node 5, Type 0, BuildingBlock: ESEHIV_clean_sbu_0, # of connection points: 4
#     Node 6, Type 0, BuildingBlock: ESEHIV_clean_sbu_0, # of connection points: 4
#     Node 7, Type 0, BuildingBlock: ESEHIV_clean_sbu_0, # of connection points: 4
#     Node 8, Type 0, BuildingBlock: ESEHIV_clean_sbu_0, # of connection points: 4
#     Node 9, Type 0, BuildingBlock: ESEHIV_clean_sbu_0, # of connection points: 4
#     Node 10, Type 0, BuildingBlock: ESEHIV_clean_sbu_0, # of connection points: 4
#     Node 11, Type 0, BuildingBlock: ESEHIV_clean_sbu_0, # of connection points: 4
#     Node 12, Type 0, BuildingBlock: ESEHIV_clean_sbu_0, # of connection points: 4
#     Node 13, Type 0, BuildingBlock: ESEHIV_clean_sbu_0, # of connection points: 4
#     Node 14, Type 0, BuildingBlock: ESEHIV_clean_sbu_0, # of connection points: 4
#     Node 15, Type 0, BuildingBlock: ESEHIV_clean_sbu_0, # of connection points: 4
#     Node 16, Type 0, BuildingBlock: ESEHIV_clean_sbu_0, # of connection points: 4
#     Node 17, Type 0, BuildingBlock: ESEHIV_clean_sbu_0, # of connection points: 4
#     Node 18, Type 0, BuildingBlock: ESEHIV_clean_sbu_0, # of connection points: 4
#     Node 19, Type 0, BuildingBlock: ESEHIV_clean_sbu_0, # of connection points: 4
#     Node 20, Type 0, BuildingBlock: ESEHIV_clean_sbu_0, # of connection points: 4
#     Node 21, Type 0, BuildingBlock: ESEHIV_clean_sbu_0, # of connection points: 4
#     Node 22, Type 0, BuildingBlock: ESEHIV_clean_sbu_0, # of connection points: 4
#     Node 23, Type 0, BuildingBlock: ESEHIV_clean_sbu_0, # of connection points: 4
#     Edge 24, Type (0, 0), BuildingBlock: XIVTED_clean_linker_0, # of connection points: 2
#     Edge 25, Type (0, 0), BuildingBlock: XIVTED_clean_linker_0, # of connection points: 2
#     Edge 26, Type (0, 0), BuildingBlock: XIVTED_clean_linker_0, # of connection points: 2
#     Edge 27, Type (0, 0), BuildingBlock: XIVTED_clean_linker_0, # of connection points: 2
#     Edge 28, Type (0, 0), BuildingBlock: XIVTED_clean_linker_0, # of connection points: 2
#     Edge 29, Type (0, 0), BuildingBlock: XIVTED_clean_linker_0, # of connection points: 2
#     Edge 30, Type (0, 0), BuildingBlock: XIVTED_clean_linker_0, # of connection points: 2
#     Edge 31, Type (0, 0), BuildingBlock: XIVTED_clean_linker_0, # of connection points: 2
#     Edge 32, Type (0, 0), BuildingBlock: XIVTED_clean_linker_0, # of connection points: 2
#     Edge 33, Type (0, 0), BuildingBlock: XIVTED_clean_linker_0, # of connection points: 2
#     Edge 34, Type (0, 0), BuildingBlock: XIVTED_clean_linker_0, # of connection points: 2
#     Edge 35, Type (0, 0), BuildingBlock: XIVTED_clean_linker_0, # of connection points: 2
#     Edge 36, Type (0, 0), BuildingBlock: XIVTED_clean_linker_0, # of connection points: 2
#     Edge 37, Type (0, 0), BuildingBlock: XIVTED_clean_linker_0, # of connection points: 2
#     Edge 38, Type (0, 0), BuildingBlock: XIVTED_clean_linker_0, # of connection points: 2
#     Edge 39, Type (0, 0), BuildingBlock: XIVTED_clean_linker_0, # of connection points: 2
#     Edge 40, Type (0, 0), BuildingBlock: XIVTED_clean_linker_0, # of connection points: 2
#     Edge 41, Type (0, 0), BuildingBlock: XIVTED_clean_linker_0, # of connection points: 2
#     Edge 42, Type (0, 0), BuildingBlock: XIVTED_clean_linker_0, # of connection points: 2
#     Edge 43, Type (0, 0), BuildingBlock: XIVTED_clean_linker_0, # of connection points: 2
#     Edge 44, Type (0, 0), BuildingBlock: XIVTED_clean_linker_0, # of connection points: 2
#     Edge 45, Type (0, 0), BuildingBlock: XIVTED_clean_linker_0, # of connection points: 2
#     Edge 46, Type (0, 0), BuildingBlock: XIVTED_clean_linker_0, # of connection points: 2
#     Edge 47, Type (0, 0), BuildingBlock: XIVTED_clean_linker_0, # of connection points: 2
#     Edge 48, Type (0, 0), BuildingBlock: XIVTED_clean_linker_0, # of connection points: 2
#     Edge 49, Type (0, 0), BuildingBlock: XIVTED_clean_linker_0, # of connection points: 2
#     Edge 50, Type (0, 0), BuildingBlock: XIVTED_clean_linker_0, # of connection points: 2
#     Edge 51, Type (0, 0), BuildingBlock: XIVTED_clean_linker_0, # of connection points: 2
#     Edge 52, Type (0, 0), BuildingBlock: XIVTED_clean_linker_0, # of connection points: 2
#     Edge 53, Type (0, 0), BuildingBlock: XIVTED_clean_linker_0, # of connection points: 2
#     Edge 54, Type (0, 0), BuildingBlock: XIVTED_clean_linker_0, # of connection points: 2
#     Edge 55, Type (0, 0), BuildingBlock: XIVTED_clean_linker_0, # of connection points: 2
#     Edge 56, Type (0, 0), BuildingBlock: XIVTED_clean_linker_0, # of connection points: 2
#     Edge 57, Type (0, 0), BuildingBlock: XIVTED_clean_linker_0, # of connection points: 2
#     Edge 58, Type (0, 0), BuildingBlock: XIVTED_clean_linker_0, # of connection points: 2
#     Edge 59, Type (0, 0), BuildingBlock: XIVTED_clean_linker_0, # of connection points: 2
#     Edge 60, Type (0, 0), BuildingBlock: XIVTED_clean_linker_0, # of connection points: 2
#     Edge 61, Type (0, 0), BuildingBlock: XIVTED_clean_linker_0, # of connection points: 2
#     Edge 62, Type (0, 0), BuildingBlock: XIVTED_clean_linker_0, # of connection points: 2
#     Edge 63, Type (0, 0), BuildingBlock: XIVTED_clean_linker_0, # of connection points: 2
#     Edge 64, Type (0, 0), BuildingBlock: XIVTED_clean_linker_0, # of connection points: 2
#     Edge 65, Type (0, 0), BuildingBlock: XIVTED_clean_linker_0, # of connection points: 2
#     Edge 66, Type (0, 0), BuildingBlock: XIVTED_clean_linker_0, # of connection points: 2
#     Edge 67, Type (0, 0), BuildingBlock: XIVTED_clean_linker_0, # of connection points: 2
#     Edge 68, Type (0, 0), BuildingBlock: XIVTED_clean_linker_0, # of connection points: 2
#     Edge 69, Type (0, 0), BuildingBlock: XIVTED_clean_linker_0, # of connection points: 2
#     Edge 70, Type (0, 0), BuildingBlock: XIVTED_clean_linker_0, # of connection points: 2
#     Edge 71, Type (0, 0), BuildingBlock: XIVTED_clean_linker_0, # of connection points: 2
# Relax obj value: 0.335
# Max RMSD: 0.211
# Mean RMSD: 0.205
data_MOF--net-unw--node1-ESEHIV_clean_sbu_0--edge1-XIVTED_clean_linker_0
_symmetry_space_group_name_H-M    P1
_symmetry_Int_Tables_number       1
_symmetry_cell_setting            triclinic
loop_
_symmetry_equiv_pos_as_xyz
'x, y, z'
_cell_length_a     50.407897
_cell_length_b     51.582341
_cell_length_c     50.941
_cell_angle_alpha  90.629356
_cell_angle_beta   90.260304
_cell_angle_gamma 92.084689
loop_
_atom_site_label
_atom_site_type_symbol
_atom_site_fract_x
_atom_site_fract_y
_atom_site_fract_z
_atom_type_partial_charge
Cu0 Cu 0.11803 0.40443 0.26851 0.0
N1 N 0.12781 0.39208 0.30124 0.0
N2 N 0.13619 0.36158 0.33064 0.0
C3 C 0.12562 0.36677 0.30706 0.0
C4 C 0.14557 0.3847 0.34017 0.0
C5 C 0.14022 0.4036 0.32196 0.0
O6 O 0.08258 0.38915 0.26267 0.0
C7 C 0.16861 0.40013 0.24907 0.0
O8 O 0.17321 0.41586 0.26917 0.0
H9 H 0.11778 0.35216 0.29347 0.0
H10 H 0.14586 0.42401 0.32327 0.0
N11 N 0.11779 0.44063 0.26756 0.0
N12 N 0.12607 0.48115 0.25378 0.0
C13 C 0.13056 0.45575 0.24992 0.0
C14 C 0.10464 0.45698 0.28313 0.0
C15 C 0.10966 0.48202 0.27463 0.0
C16 C 0.07954 0.36591 0.25427 0.0
O17 O 0.10016 0.35439 0.24446 0.0
H18 H 0.1425 0.44819 0.23418 0.0
H19 H 0.09219 0.45106 0.2994 0.0
O20 O 0.14474 0.39253 0.24412 0.0
H21 H 0.15608 0.38766 0.35859 0.0
H22 H 0.10203 0.4995 0.28326 0.0
Cu23 Cu 0.63204 0.14009 0.25605 0.0
N24 N 0.65109 0.14214 0.22506 0.0
N25 N 0.67691 0.16075 0.19468 0.0
C26 C 0.66011 0.1646 0.21473 0.0
C27 C 0.67844 0.13476 0.19222 0.0
C28 C 0.66238 0.12328 0.21103 0.0
O29 O 0.59603 0.15049 0.24788 0.0
C30 C 0.65768 0.15954 0.30323 0.0
O31 O 0.64652 0.13948 0.31507 0.0
H32 H 0.65585 0.1834 0.22303 0.0
H33 H 0.66016 0.10277 0.21507 0.0
N34 N 0.63264 0.106 0.26846 0.0
N35 N 0.64717 0.06882 0.28466 0.0
C36 C 0.65374 0.09348 0.27773 0.0
C37 C 0.61208 0.0887 0.26943 0.0
C38 C 0.62095 0.06579 0.27938 0.0
C39 C 0.58862 0.17379 0.24992 0.0
O40 O 0.605 0.19154 0.26022 0.0
H41 H 0.67353 0.10226 0.27915 0.0
H42 H 0.59202 0.09252 0.26335 0.0
O43 O 0.65167 0.16392 0.27946 0.0
H44 H 0.69093 0.1248 0.17845 0.0
H45 H 0.60886 0.04841 0.28289 0.0
Cu46 Cu 0.88764 0.59463 0.28359 0.0
N47 N 0.88364 0.61121 0.31588 0.0
N48 N 0.8827 0.64553 0.34292 0.0
C49 C 0.88419 0.63719 0.31788 0.0
C50 C 0.88072 0.62379 0.35744 0.0
C51 C 0.88152 0.60252 0.34062 0.0
O52 O 0.92026 0.6103 0.27034 0.0
C53 C 0.8342 0.60034 0.27212 0.0
O54 O 0.83182 0.59271 0.29655 0.0
H55 H 0.88544 0.64979 0.30108 0.0
H56 H 0.88094 0.58229 0.34605 0.0
N57 N 0.88989 0.55882 0.28577 0.0
N58 N 0.88449 0.5173 0.27333 0.0
C59 C 0.87713 0.54186 0.26949 0.0
C60 C 0.90592 0.54461 0.30059 0.0
C61 C 0.90265 0.5189 0.2929 0.0
C62 C 0.91962 0.63226 0.25932 0.0
O63 O 0.89672 0.6402 0.25073 0.0
H64 H 0.8637 0.54767 0.25417 0.0
H65 H 0.91962 0.5525 0.31528 0.0
O66 O 0.8572 0.60225 0.26198 0.0
H67 H 0.87928 0.62329 0.37862 0.0
H68 H 0.91316 0.50276 0.30077 0.0
Cu69 Cu 0.36676 0.86131 0.26528 0.0
N70 N 0.36226 0.83591 0.29063 0.0
N71 N 0.33608 0.81269 0.31756 0.0
C72 C 0.34225 0.83639 0.30792 0.0
C73 C 0.35326 0.79663 0.30612 0.0
C74 C 0.3694 0.81103 0.28946 0.0
O75 O 0.35185 0.89258 0.28007 0.0
C76 C 0.35437 0.83491 0.2169 0.0
O77 O 0.38012 0.83295 0.21461 0.0
H78 H 0.33001 0.85305 0.31046 0.0
H79 H 0.38301 0.80332 0.27529 0.0
N80 N 0.40261 0.86693 0.25653 0.0
N81 N 0.4436 0.86009 0.24187 0.0
C82 C 0.42095 0.84913 0.25149 0.0
C83 C 0.41438 0.88995 0.25063 0.0
C84 C 0.43957 0.8858 0.24151 0.0
C85 C 0.34626 0.91285 0.26747 0.0
O86 O 0.35133 0.91404 0.24223 0.0
H87 H 0.41709 0.82844 0.25294 0.0
H88 H 0.40489 0.90838 0.25178 0.0
O89 O 0.34522 0.84823 0.23577 0.0
H90 H 0.35255 0.77571 0.30773 0.0
H91 H 0.45351 0.9005 0.23433 0.0
Cu92 Cu 0.14741 0.64498 0.74943 0.0
N93 N 0.15735 0.65241 0.71514 0.0
N94 N 0.16948 0.67811 0.68196 0.0
C95 C 0.15574 0.67603 0.7045 0.0
C96 C 0.18005 0.65469 0.67811 0.0
C97 C 0.17247 0.63882 0.69865 0.0
O98 O 0.11254 0.6595 0.75393 0.0
C99 C 0.18188 0.65634 0.79406 0.0
O100 O 0.1668 0.64022 0.80773 0.0
H101 H 0.14674 0.69215 0.71432 0.0
H102 H 0.17906 0.61945 0.70228 0.0
N103 N 0.14632 0.60907 0.75458 0.0
N104 N 0.15736 0.56936 0.76704 0.0
C105 C 0.16487 0.59477 0.76614 0.0
C106 C 0.12652 0.59215 0.74771 0.0
C107 C 0.13325 0.56766 0.75534 0.0
C108 C 0.11001 0.68376 0.75745 0.0
O109 O 0.13131 0.69848 0.76243 0.0
H110 H 0.18357 0.60282 0.77362 0.0
H111 H 0.10832 0.59734 0.7381 0.0
O112 O 0.17539 0.66154 0.77061 0.0
H113 H 0.19346 0.64985 0.66241 0.0
H114 H 0.12102 0.55009 0.75306 0.0
Cu115 Cu 0.34163 0.11111 0.78085 0.0
N116 N 0.30792 0.10843 0.79549 0.0
N117 N 0.26367 0.10424 0.79592 0.0
C118 C 0.28602 0.10078 0.78203 0.0
C119 C 0.27204 0.1141 0.81935 0.0
C120 C 0.29941 0.11662 0.81903 0.0
O121 O 0.3451 0.08214 0.75687 0.0
C122 C 0.32783 0.15609 0.75126 0.0
O123 O 0.30487 0.1442 0.74626 0.0
H124 H 0.28647 0.09487 0.76159 0.0
H125 H 0.31205 0.12515 0.83427 0.0
N126 N 0.36761 0.11277 0.80688 0.0
N127 N 0.39964 0.13371 0.83002 0.0
C128 C 0.38727 0.13101 0.80659 0.0
C129 C 0.3677 0.10301 0.83127 0.0
C130 C 0.38766 0.11582 0.8456 0.0
C131 C 0.34094 0.05938 0.76564 0.0
O132 O 0.3373 0.05639 0.79097 0.0
H133 H 0.39125 0.1432 0.78982 0.0
H134 H 0.35303 0.08917 0.83869 0.0
O135 O 0.34569 0.1442 0.76343 0.0
H136 H 0.25931 0.12029 0.8351 0.0
H137 H 0.39165 0.1135 0.86632 0.0
Cu138 Cu 0.84484 0.38201 0.73315 0.0
N139 N 0.8173 0.35974 0.74407 0.0
N140 N 0.7781 0.34606 0.75986 0.0
C141 C 0.79298 0.36663 0.75162 0.0
C142 C 0.79372 0.32547 0.75755 0.0
C143 C 0.81804 0.33404 0.74807 0.0
O144 O 0.84236 0.41369 0.75396 0.0
C145 C 0.83741 0.37429 0.67687 0.0
O146 O 0.8381 0.3831 0.65279 0.0
H147 H 0.78642 0.38637 0.75136 0.0
H148 H 0.83512 0.32242 0.74447 0.0
N149 N 0.87713 0.36664 0.7394 0.0
N150 N 0.91514 0.34664 0.73239 0.0
C151 C 0.89475 0.35898 0.72137 0.0
C152 C 0.8867 0.35912 0.76267 0.0
C153 C 0.91013 0.34679 0.75843 0.0
C154 C 0.82668 0.43119 0.74698 0.0
O155 O 0.81361 0.42827 0.72471 0.0
H156 H 0.8922 0.36179 0.70053 0.0
H157 H 0.877 0.36197 0.78132 0.0
O158 O 0.84228 0.38997 0.69593 0.0
H159 H 0.78826 0.30581 0.76312 0.0
H160 H 0.92241 0.33851 0.77342 0.0
Cu161 Cu 0.62664 0.90142 0.78906 0.0
N162 N 0.63297 0.89111 0.82321 0.0
N163 N 0.63957 0.86234 0.85477 0.0
C164 C 0.62976 0.8663 0.83057 0.0
C165 C 0.64931 0.88579 0.86307 0.0
C166 C 0.64513 0.9036 0.84349 0.0
O167 O 0.59206 0.88605 0.77984 0.0
C168 C 0.663 0.8954 0.74635 0.0
O169 O 0.65064 0.91411 0.73471 0.0
H170 H 0.62234 0.85103 0.81748 0.0
H171 H 0.65183 0.92376 0.84343 0.0
N172 N 0.62771 0.93742 0.78602 0.0
N173 N 0.64309 0.97683 0.77458 0.0
C174 C 0.64946 0.9526 0.78132 0.0
C175 C 0.60691 0.95266 0.78261 0.0
C176 C 0.61634 0.97699 0.77546 0.0
C177 C 0.58994 0.863 0.77071 0.0
O178 O 0.61154 0.85115 0.76391 0.0
H179 H 0.66936 0.9454 0.78059 0.0
H180 H 0.58633 0.94605 0.78354 0.0
O181 O 0.65489 0.8872 0.76846 0.0
H182 H 0.65977 0.88958 0.88139 0.0
H183 H 0.60442 0.99315 0.77003 0.0
Cu184 Cu 0.24086 0.13267 0.37514 0.0
N185 N 0.20953 0.14719 0.36388 0.0
N186 N 0.1816 0.17931 0.35794 0.0
C187 C 0.20103 0.16995 0.37304 0.0
C188 C 0.1772 0.16119 0.33888 0.0
C189 C 0.19458 0.14142 0.34255 0.0
O190 O 0.24443 0.14261 0.4123 0.0
C191 C 0.27015 0.17011 0.34537 0.0
O192 O 0.25539 0.18696 0.3574 0.0
H193 H 0.21032 0.18026 0.38946 0.0
H194 H 0.19746 0.12506 0.32954 0.0
N195 N 0.23967 0.09661 0.36969 0.0
N196 N 0.25172 0.05751 0.35552 0.0
C197 C 0.2589 0.08289 0.35835 0.0
C198 C 0.21949 0.07935 0.37387 0.0
C199 C 0.22695 0.0552 0.36539 0.0
C200 C 0.22544 0.13506 0.42718 0.0
O201 O 0.20677 0.11945 0.41725 0.0
H202 H 0.27771 0.09145 0.35206 0.0
H203 H 0.20034 0.08405 0.3817 0.0
O204 O 0.26876 0.1465 0.35236 0.0
H205 H 0.16395 0.16304 0.32229 0.0
H206 H 0.21472 0.03752 0.36556 0.0
Cu207 Cu 0.89674 0.22026 0.34465 0.0
N208 N 0.90598 0.19942 0.31623 0.0
N209 N 0.91965 0.19086 0.27554 0.0
C210 C 0.91666 0.20917 0.2942 0.0
C211 C 0.91016 0.16853 0.28609 0.0
C212 C 0.90191 0.17385 0.31142 0.0
O213 O 0.91765 0.25255 0.33982 0.0
C214 C 0.84398 0.20424 0.3496 0.0
O215 O 0.85565 0.18316 0.35704 0.0
H216 H 0.92071 0.22969 0.29133 0.0
H217 H 0.89279 0.16025 0.32496 0.0
N218 N 0.90539 0.20457 0.37635 0.0
N219 N 0.90002 0.18913 0.4169 0.0
C220 C 0.89187 0.20631 0.39901 0.0
C221 C 0.92295 0.18593 0.3801 0.0
C222 C 0.91974 0.17641 0.4051 0.0
C223 C 0.9427 0.24991 0.33947 0.0
O224 O 0.95188 0.22739 0.34614 0.0
H225 H 0.87497 0.21844 0.40151 0.0
H226 H 0.93613 0.17877 0.36521 0.0
O227 O 0.85832 0.22396 0.34303 0.0
H228 H 0.90866 0.14994 0.27601 0.0
H229 H 0.93037 0.16062 0.4135 0.0
Cu230 Cu 0.77317 0.86442 0.39368 0.0
N231 N 0.80642 0.85471 0.38234 0.0
N232 N 0.83863 0.82682 0.37556 0.0
C233 C 0.81518 0.83095 0.38714 0.0
C234 C 0.84488 0.849 0.36272 0.0
C235 C 0.82491 0.8663 0.36704 0.0
O236 O 0.7714 0.85224 0.43001 0.0
C237 C 0.72677 0.85221 0.36118 0.0
O238 O 0.7155 0.87242 0.3716 0.0
H239 H 0.80373 0.81651 0.39795 0.0
H240 H 0.82356 0.88552 0.35897 0.0
N241 N 0.76887 0.9004 0.39109 0.0
N242 N 0.75543 0.93872 0.37653 0.0
C243 C 0.75881 0.91339 0.37064 0.0
C244 C 0.77234 0.91822 0.4104 0.0
C245 C 0.76418 0.9418 0.40149 0.0
C246 C 0.7919 0.85745 0.44419 0.0
O247 O 0.81055 0.87316 0.43477 0.0
H248 H 0.75337 0.90427 0.35207 0.0
H249 H 0.77918 0.91415 0.43001 0.0
O250 O 0.74916 0.84539 0.36981 0.0
H251 H 0.86227 0.8523 0.35067 0.0
H252 H 0.76341 0.9595 0.41303 0.0
Cu253 Cu 0.09117 0.79928 0.33616 0.0
N254 N 0.08726 0.81622 0.30441 0.0
N255 N 0.08199 0.81929 0.26106 0.0
C256 C 0.08121 0.80351 0.28194 0.0
C257 C 0.08898 0.84304 0.27077 0.0
C258 C 0.09207 0.84111 0.29769 0.0
O259 O 0.06804 0.76851 0.33386 0.0
C260 C 0.14476 0.80959 0.34426 0.0
O261 O 0.13603 0.83324 0.34591 0.0
H262 H 0.07792 0.78268 0.28079 0.0
H263 H 0.09836 0.85649 0.31118 0.0
N264 N 0.08233 0.82026 0.36457 0.0
N265 N 0.08928 0.8411 0.40277 0.0
C266 C 0.09508 0.82037 0.38778 0.0
C267 C 0.06738 0.84133 0.36496 0.0
C268 C 0.07165 0.85428 0.38856 0.0
C269 C 0.04374 0.77219 0.32881 0.0
O270 O 0.03556 0.79609 0.3287 0.0
H271 H 0.11037 0.80692 0.39238 0.0
H272 H 0.05576 0.84782 0.34855 0.0
O273 O 0.12826 0.79081 0.33967 0.0
H274 H 0.0924 0.86032 0.25921 0.0
H275 H 0.06359 0.8727 0.39412 0.0
Cu276 Cu 0.27128 0.88637 0.59886 0.0
N277 N 0.30267 0.87169 0.58869 0.0
N278 N 0.33189 0.8424 0.60056 0.0
C279 C 0.31986 0.86441 0.60719 0.0
C280 C 0.32263 0.83609 0.57635 0.0
C281 C 0.30468 0.85428 0.56901 0.0
O282 O 0.2794 0.91491 0.62298 0.0
C283 C 0.22808 0.85349 0.61943 0.0
O284 O 0.21122 0.87134 0.61341 0.0
H285 H 0.31942 0.87189 0.62712 0.0
H286 H 0.29082 0.85225 0.55278 0.0
N287 N 0.25223 0.89738 0.56998 0.0
N288 N 0.22229 0.89764 0.53753 0.0
C289 C 0.23355 0.8835 0.55647 0.0
C290 C 0.25309 0.92106 0.55922 0.0
C291 C 0.23464 0.9213 0.53916 0.0
C292 C 0.2824 0.91126 0.64745 0.0
O293 O 0.27854 0.8878 0.65681 0.0
H294 H 0.2279 0.86363 0.56101 0.0
H295 H 0.26599 0.93709 0.56575 0.0
O296 O 0.25274 0.8576 0.61563 0.0
H297 H 0.32557 0.81774 0.56645 0.0
H298 H 0.23073 0.93765 0.52678 0.0
Cu299 Cu 0.12915 0.22015 0.63882 0.0
N300 N 0.1182 0.19082 0.65736 0.0
N301 N 0.12264 0.15758 0.68441 0.0
C302 C 0.13484 0.17361 0.66719 0.0
C303 C 0.09727 0.1649 0.68548 0.0
C304 C 0.09451 0.18535 0.66854 0.0
O305 O 0.14607 0.20812 0.60674 0.0
C306 C 0.15173 0.2637 0.66738 0.0
O307 O 0.13707 0.27772 0.65204 0.0
H308 H 0.15602 0.1744 0.66365 0.0
H309 H 0.07695 0.1965 0.66599 0.0
N310 N 0.09939 0.23942 0.63151 0.0
N311 N 0.06297 0.2621 0.63815 0.0
C312 C 0.08272 0.24906 0.64941 0.0
C313 C 0.09 0.2466 0.60804 0.0
C314 C 0.06754 0.26063 0.61206 0.0
C315 C 0.16627 0.21824 0.59527 0.0
O316 O 0.17756 0.2397 0.60482 0.0
H317 H 0.08538 0.24681 0.67034 0.0
H318 H 0.09883 0.24187 0.58935 0.0
O319 O 0.15281 0.23941 0.66302 0.0
H320 H 0.0823 0.15702 0.69863 0.0
H321 H 0.05533 0.26874 0.59691 0.0
Cu322 Cu 0.76308 0.14489 0.64596 0.0
N323 N 0.72907 0.15756 0.64481 0.0
N324 N 0.69228 0.17142 0.66378 0.0
C325 C 0.71159 0.15404 0.66436 0.0
C326 C 0.69736 0.18589 0.64229 0.0
C327 C 0.72013 0.17726 0.6306 0.0
O328 O 0.75963 0.11334 0.66636 0.0
C329 C 0.77846 0.18766 0.67835 0.0
O330 O 0.75622 0.1816 0.69049 0.0
H331 H 0.71518 0.14153 0.68081 0.0
H332 H 0.73087 0.18644 0.61466 0.0
N333 N 0.77377 0.13616 0.61219 0.0
N334 N 0.79453 0.1366 0.57356 0.0
C335 C 0.79028 0.14965 0.59623 0.0
C336 C 0.76723 0.114 0.59922 0.0
C337 C 0.78002 0.11418 0.57539 0.0
C338 C 0.76152 0.11112 0.69114 0.0
O339 O 0.77105 0.13071 0.70538 0.0
H340 H 0.79949 0.1683 0.60142 0.0
H341 H 0.75427 0.09867 0.60674 0.0
O342 O 0.7864 0.17273 0.66012 0.0
H343 H 0.68687 0.20296 0.63678 0.0
H344 H 0.77863 0.09902 0.56054 0.0
Cu345 Cu 0.87597 0.77327 0.65656 0.0
N346 N 0.86561 0.8057 0.66782 0.0
N347 N 0.83755 0.83506 0.68227 0.0
C348 C 0.84318 0.80972 0.68114 0.0
C349 C 0.8574 0.84752 0.66924 0.0
C350 C 0.87474 0.82928 0.66031 0.0
O351 O 0.86423 0.77059 0.62005 0.0
C352 C 0.86595 0.72621 0.68593 0.0
O353 O 0.88516 0.71584 0.67251 0.0
H354 H 0.83016 0.79412 0.68803 0.0
H355 H 0.89185 0.83278 0.64794 0.0
N356 N 0.91294 0.77164 0.65927 0.0
N357 N 0.95368 0.76322 0.67379 0.0
C358 C 0.92732 0.76041 0.67816 0.0
C359 C 0.93083 0.78207 0.64256 0.0
C360 C 0.95596 0.77695 0.65146 0.0
C361 C 0.83994 0.7735 0.61401 0.0
O362 O 0.82227 0.77411 0.63287 0.0
H363 H 0.91869 0.7507 0.69497 0.0
H364 H 0.92587 0.79261 0.62507 0.0
O365 O 0.85859 0.74881 0.68026 0.0
H366 H 0.85878 0.86815 0.66558 0.0
H367 H 0.97445 0.78246 0.64195 0.0
Cu368 Cu 0.35764 0.25939 0.1354 0.0
N369 N 0.35134 0.29234 0.14863 0.0
N370 N 0.32695 0.3241 0.16474 0.0
C371 C 0.32744 0.2989 0.15758 0.0
C372 C 0.3518 0.33378 0.16039 0.0
C373 C 0.36683 0.31409 0.15029 0.0
O374 O 0.34467 0.2592 0.09908 0.0
C375 C 0.34501 0.21556 0.16871 0.0
O376 O 0.36635 0.20474 0.15965 0.0
H377 H 0.31069 0.28526 0.15887 0.0
H378 H 0.38735 0.31561 0.14422 0.0
N379 N 0.39385 0.25205 0.13649 0.0
N380 N 0.43316 0.23817 0.15013 0.0
C381 C 0.40923 0.24682 0.15747 0.0
C382 C 0.40874 0.24698 0.11534 0.0
C383 C 0.4329 0.2384 0.12365 0.0
C384 C 0.32005 0.2607 0.09369 0.0
O385 O 0.30279 0.25917 0.1129 0.0
H386 H 0.40241 0.24771 0.17757 0.0
H387 H 0.40201 0.24833 0.09523 0.0
O388 O 0.33747 0.2366 0.15875 0.0
H389 H 0.35848 0.35374 0.16367 0.0
H390 H 0.44882 0.23217 0.11114 0.0
Cu391 Cu 0.38301 0.73306 0.83435 0.0
N392 N 0.35883 0.7425 0.80882 0.0
N393 N 0.34441 0.7557 0.7699 0.0
C394 C 0.36538 0.74804 0.78391 0.0
C395 C 0.32373 0.75499 0.78666 0.0
C396 C 0.33279 0.74709 0.81083 0.0
O397 O 0.41521 0.75385 0.828 0.0
C398 C 0.37559 0.6765 0.8312 0.0
O399 O 0.38559 0.6534 0.83249 0.0
H400 H 0.38526 0.74668 0.77625 0.0
H401 H 0.32129 0.74503 0.82861 0.0
N402 N 0.37113 0.74035 0.8681 0.0
N403 N 0.35 0.73559 0.90623 0.0
C404 C 0.34948 0.73027 0.88023 0.0
C405 C 0.38557 0.75274 0.88698 0.0
C406 C 0.37263 0.74976 0.91056 0.0
C407 C 0.43204 0.74682 0.81104 0.0
O408 O 0.42816 0.72444 0.79879 0.0
H409 H 0.3346 0.71786 0.87061 0.0
H410 H 0.40495 0.76192 0.88404 0.0
O411 O 0.39127 0.69644 0.83236 0.0
H412 H 0.30379 0.76061 0.78202 0.0
H413 H 0.37981 0.75652 0.92959 0.0
Cu414 Cu 0.26471 0.35083 0.86836 0.0
N415 N 0.29351 0.34844 0.8459 0.0
N416 N 0.31755 0.3308 0.81406 0.0
C417 C 0.2933 0.33258 0.82482 0.0
C418 C 0.33375 0.34642 0.82897 0.0
C419 C 0.31878 0.35741 0.8486 0.0
O420 O 0.27495 0.33658 0.90223 0.0
C421 C 0.2161 0.33818 0.84026 0.0
O422 O 0.20844 0.36142 0.8468 0.0
H423 H 0.27608 0.3208 0.81885 0.0
H424 H 0.32606 0.36974 0.86457 0.0
N425 N 0.25557 0.38559 0.87157 0.0
N426 N 0.24245 0.42528 0.86139 0.0
C427 C 0.24971 0.40195 0.85206 0.0
C428 C 0.25235 0.39913 0.89396 0.0
C429 C 0.2443 0.42361 0.88777 0.0
C430 C 0.2586 0.32731 0.91899 0.0
O431 O 0.23305 0.32746 0.9138 0.0
H432 H 0.25019 0.39658 0.83148 0.0
H433 H 0.25506 0.3915 0.91345 0.0
O434 O 0.23708 0.32963 0.85053 0.0
H435 H 0.35504 0.34871 0.82672 0.0
H436 H 0.23919 0.43862 0.90167 0.0
Cu437 Cu 0.59614 0.27621 0.88626 0.0
N438 N 0.6144 0.24902 0.87183 0.0
N439 N 0.63104 0.22516 0.83951 0.0
C440 C 0.61853 0.24693 0.84592 0.0
C441 C 0.63482 0.21285 0.86243 0.0
C442 C 0.6245 0.22773 0.88247 0.0
O443 O 0.55933 0.26458 0.88713 0.0
C444 C 0.61773 0.32436 0.86696 0.0
O445 O 0.62213 0.33114 0.89156 0.0
H446 H 0.61166 0.26084 0.83194 0.0
H447 H 0.62411 0.22324 0.90315 0.0
N448 N 0.60873 0.28464 0.91974 0.0
N449 N 0.63668 0.29698 0.95193 0.0
C450 C 0.63428 0.28678 0.92749 0.0
C451 C 0.59446 0.29339 0.94001 0.0
C452 C 0.61168 0.30108 0.95993 0.0
C453 C 0.54565 0.26403 0.86613 0.0
O454 O 0.55583 0.27442 0.84482 0.0
H455 H 0.65079 0.28256 0.91482 0.0
H456 H 0.57314 0.2951 0.93983 0.0
O457 O 0.60328 0.30421 0.8618 0.0
H458 H 0.64437 0.19454 0.86457 0.0
H459 H 0.60627 0.30964 0.97856 0.0
Cu460 Cu 0.7649 0.64554 0.89478 0.0
N461 N 0.73134 0.65666 0.88624 0.0
N462 N 0.70002 0.68608 0.88269 0.0
C463 C 0.72166 0.67867 0.89596 0.0
C464 C 0.69564 0.66744 0.86411 0.0
C465 C 0.7151 0.64936 0.86629 0.0
O466 O 0.76966 0.65506 0.93165 0.0
C467 C 0.80973 0.6548 0.86067 0.0
O468 O 0.81946 0.63349 0.87003 0.0
H469 H 0.73142 0.68981 0.91148 0.0
H470 H 0.71832 0.63321 0.8531 0.0
N471 N 0.76665 0.6096 0.89043 0.0
N472 N 0.7751 0.57069 0.87316 0.0
C473 C 0.7721 0.59616 0.86836 0.0
C474 C 0.76569 0.59202 0.90972 0.0
C475 C 0.77089 0.56804 0.89917 0.0
C476 C 0.77708 0.67754 0.94 0.0
O477 O 0.78653 0.69473 0.92331 0.0
H478 H 0.77518 0.60513 0.84946 0.0
H479 H 0.76231 0.59653 0.9302 0.0
O480 O 0.78862 0.66353 0.87047 0.0
H481 H 0.68078 0.6678 0.84875 0.0
H482 H 0.77194 0.55014 0.90994 0.0
Cu483 Cu 0.66289 0.74146 0.14765 0.0
N484 N 0.66434 0.70708 0.1577 0.0
N485 N 0.6824 0.67271 0.17579 0.0
C486 C 0.67957 0.69856 0.1773 0.0
C487 C 0.66831 0.66459 0.15448 0.0
C488 C 0.65708 0.68591 0.14337 0.0
O489 O 0.68093 0.74312 0.11398 0.0
C490 C 0.67416 0.78518 0.18178 0.0
O491 O 0.65802 0.79785 0.16668 0.0
H492 H 0.69052 0.71135 0.19079 0.0
H493 H 0.64629 0.68628 0.12499 0.0
N494 N 0.62764 0.75071 0.14356 0.0
N495 N 0.5882 0.76755 0.15157 0.0
C496 C 0.61103 0.75938 0.16212 0.0
C497 C 0.61471 0.75302 0.12061 0.0
C498 C 0.59041 0.76345 0.12546 0.0
C499 C 0.70598 0.74183 0.11158 0.0
O500 O 0.72106 0.74287 0.13269 0.0
H501 H 0.61625 0.76112 0.18272 0.0
H502 H 0.62284 0.74837 0.1016 0.0
O503 O 0.67991 0.76209 0.1756 0.0
H504 H 0.66753 0.64498 0.14665 0.0
H505 H 0.57578 0.76822 0.11084 0.0
Cu506 Cu 0.19169 0.67248 0.1109 0.0
N507 N 0.16273 0.69215 0.1024 0.0
N508 N 0.13041 0.71955 0.11018 0.0
C509 C 0.14538 0.70083 0.12008 0.0
C510 C 0.13856 0.72277 0.08522 0.0
C511 C 0.15844 0.70566 0.0804 0.0
O512 O 0.17955 0.6439 0.13296 0.0
C513 C 0.24123 0.69601 0.12787 0.0
O514 O 0.25218 0.67838 0.11309 0.0
H515 H 0.14556 0.69538 0.14055 0.0
H516 H 0.17022 0.70461 0.06278 0.0
N517 N 0.20779 0.66058 0.08036 0.0
N518 N 0.23155 0.66123 0.04352 0.0
C519 C 0.2186 0.67546 0.06136 0.0
C520 C 0.21398 0.63609 0.07421 0.0
C521 C 0.22884 0.63646 0.05152 0.0
C522 C 0.19527 0.62834 0.14363 0.0
O523 O 0.22091 0.63131 0.13954 0.0
H524 H 0.21836 0.69644 0.06148 0.0
H525 H 0.20891 0.61929 0.08592 0.0
O526 O 0.2161 0.69583 0.13013 0.0
H527 H 0.13179 0.7375 0.07205 0.0
H528 H 0.23744 0.61993 0.04196 0.0
Cu529 Cu 0.84303 0.32933 0.11478 0.0
N530 N 0.87266 0.31032 0.10721 0.0
N531 N 0.90344 0.28181 0.11661 0.0
C532 C 0.88922 0.30167 0.12559 0.0
C533 C 0.89562 0.27788 0.09149 0.0
C534 C 0.87668 0.29566 0.08567 0.0
O535 O 0.85225 0.35632 0.14052 0.0
C536 C 0.7923 0.30711 0.12921 0.0
O537 O 0.78233 0.32839 0.12006 0.0
H538 H 0.88836 0.30753 0.14605 0.0
H539 H 0.86471 0.29601 0.068 0.0
N540 N 0.82921 0.34302 0.08419 0.0
N541 N 0.80191 0.34638 0.04993 0.0
C542 C 0.8122 0.33036 0.06772 0.0
C543 C 0.8302 0.36783 0.07628 0.0
C544 C 0.81321 0.37 0.05517 0.0
C545 C 0.83576 0.37314 0.14748 0.0
O546 O 0.81207 0.37259 0.13664 0.0
H547 H 0.8059 0.31023 0.0701 0.0
H548 H 0.84128 0.38348 0.08612 0.0
O549 O 0.81731 0.30458 0.12924 0.0
H550 H 0.90144 0.26193 0.07906 0.0
H551 H 0.80867 0.38774 0.04519 0.0
H552 H 0.14471 0.62082 0.16256 0.0
H553 H 0.17313 0.48437 0.22821 0.0
H554 H 0.22184 0.58713 0.16287 0.0
H555 H 0.10294 0.52699 0.24452 0.0
H556 H 0.19011 0.52042 0.2016 0.0
H557 H 0.12787 0.58528 0.19005 0.0
C558 C 0.15811 0.60595 0.16837 0.0
C559 C 0.18475 0.60698 0.16036 0.0
C560 C 0.17102 0.52194 0.21105 0.0
C561 C 0.16553 0.56616 0.19175 0.0
C562 C 0.16124 0.50128 0.22611 0.0
C563 C 0.13652 0.50261 0.23856 0.0
C564 C 0.15589 0.54407 0.20812 0.0
C565 C 0.12216 0.52522 0.23546 0.0
C566 C 0.14849 0.58571 0.18414 0.0
C567 C 0.20119 0.58719 0.16859 0.0
N568 N 0.13197 0.54498 0.22043 0.0
N569 N 0.19129 0.56756 0.18371 0.0
H570 H 0.55646 0.14603 0.21533 0.0
H571 H 0.44904 0.25561 0.19849 0.0
H572 H 0.56275 0.21932 0.25697 0.0
H573 H 0.46402 0.19752 0.13949 0.0
H574 H 0.4854 0.23889 0.22523 0.0
H575 H 0.51696 0.16083 0.19264 0.0
C576 C 0.54938 0.16511 0.21997 0.0
C577 C 0.56309 0.18149 0.23803 0.0
C578 C 0.48063 0.22981 0.20644 0.0
C579 C 0.51773 0.19854 0.21207 0.0
C580 C 0.45986 0.23925 0.19128 0.0
C581 C 0.45369 0.2281 0.16664 0.0
C582 C 0.49494 0.20871 0.19711 0.0
C583 C 0.46838 0.20697 0.15816 0.0
C584 C 0.52689 0.1736 0.20688 0.0
C585 C 0.55293 0.20608 0.2431 0.0
N586 N 0.4882 0.19793 0.17336 0.0
N587 N 0.5309 0.21386 0.23021 0.0
H588 H 0.88248 0.37957 0.17527 0.0
H589 H 0.8373 0.50869 0.24859 0.0
H590 H 0.80557 0.41248 0.16551 0.0
H591 H 0.91299 0.47473 0.26228 0.0
H592 H 0.82502 0.47262 0.21913 0.0
H593 H 0.89387 0.41337 0.20797 0.0
C594 C 0.86798 0.39387 0.18 0.0
C595 C 0.84305 0.39322 0.16752 0.0
C596 C 0.84429 0.47292 0.22864 0.0
C597 C 0.85596 0.43192 0.20496 0.0
C598 C 0.85134 0.4936 0.24542 0.0
C599 C 0.8763 0.49487 0.25776 0.0
C600 C 0.86236 0.45332 0.22398 0.0
C601 C 0.8935 0.47447 0.25329 0.0
C602 C 0.87448 0.41313 0.19871 0.0
C603 C 0.82504 0.41221 0.17453 0.0
N604 N 0.88629 0.45464 0.2366 0.0
N605 N 0.83187 0.43078 0.19268 0.0
H606 H 0.55857 0.80585 0.13238 0.0
H607 H 0.46357 0.81426 0.25681 0.0
H608 H 0.5703 0.75963 0.2012 0.0
H609 H 0.47328 0.87537 0.20021 0.0
H610 H 0.49948 0.79114 0.23529 0.0
H611 H 0.52367 0.82854 0.15525 0.0
C612 C 0.55364 0.80032 0.15226 0.0
C613 C 0.56729 0.78073 0.16487 0.0
C614 C 0.49381 0.8097 0.22774 0.0
C615 C 0.52735 0.80677 0.19128 0.0
C616 C 0.4733 0.82282 0.23993 0.0
C617 C 0.4655 0.84683 0.23037 0.0
C618 C 0.50626 0.82046 0.20555 0.0
C619 C 0.47885 0.85712 0.20849 0.0
C620 C 0.53386 0.81345 0.16539 0.0
C621 C 0.56035 0.77471 0.19084 0.0
N622 N 0.49839 0.84381 0.19672 0.0
N623 N 0.54073 0.78757 0.20316 0.0
H624 H 0.2451 0.47644 0.87476 0.0
H625 H 0.15418 0.51807 0.75417 0.0
H626 H 0.21654 0.42303 0.81439 0.0
H627 H 0.19249 0.57305 0.80775 0.0
H628 H 0.17645 0.48297 0.7762 0.0
H629 H 0.2257 0.51203 0.85079 0.0
C630 C 0.23478 0.47219 0.85645 0.0
C631 C 0.23244 0.44665 0.84664 0.0
C632 C 0.1801 0.50272 0.78307 0.0
C633 C 0.21011 0.48738 0.81901 0.0
C634 C 0.16725 0.52278 0.77057 0.0
C635 C 0.17136 0.5486 0.77913 0.0
C636 C 0.19706 0.5084 0.8045 0.0
C637 C 0.18888 0.55352 0.80029 0.0
C638 C 0.2238 0.49255 0.84269 0.0
C639 C 0.21911 0.44239 0.8226 0.0
N640 N 0.20092 0.53362 0.81233 0.0
N641 N 0.20831 0.46249 0.80973 0.0
H642 H 0.52646 0.22808 0.90121 0.0
H643 H 0.40594 0.18124 0.80787 0.0
H644 H 0.50866 0.26284 0.82677 0.0
H645 H 0.4361 0.13366 0.86969 0.0
H646 H 0.43904 0.21486 0.81912 0.0
H647 H 0.48871 0.19739 0.89467 0.0
C648 C 0.51437 0.22955 0.8837 0.0
C649 C 0.52081 0.24796 0.8644 0.0
C650 C 0.43847 0.19708 0.83025 0.0
C651 C 0.47777 0.21288 0.85682 0.0
C652 C 0.41967 0.17766 0.82368 0.0
C653 C 0.41856 0.15418 0.83746 0.0
C654 C 0.45633 0.19325 0.85088 0.0
C655 C 0.43631 0.15135 0.85848 0.0
C656 C 0.49296 0.21191 0.87992 0.0
C657 C 0.50453 0.24888 0.84207 0.0
N658 N 0.4546 0.17062 0.86447 0.0
N659 N 0.48385 0.23152 0.83885 0.0
H660 H 0.80251 0.52769 0.88421 0.0
H661 H 0.7974 0.47355 0.73646 0.0
H662 H 0.76707 0.56861 0.82032 0.0
H663 H 0.84289 0.43912 0.79812 0.0
H664 H 0.78566 0.50823 0.76684 0.0
H665 H 0.81647 0.49456 0.85317 0.0
C666 C 0.79748 0.52965 0.86368 0.0
C667 C 0.78341 0.55096 0.85493 0.0
C668 C 0.79833 0.49318 0.7737 0.0
C669 C 0.79966 0.51307 0.8191 0.0
C670 C 0.80507 0.47334 0.75635 0.0
C671 C 0.82114 0.45332 0.76473 0.0
C672 C 0.80752 0.49295 0.79976 0.0
C673 C 0.83049 0.45415 0.79075 0.0
C674 C 0.80568 0.5108 0.8459 0.0
C675 C 0.77799 0.55265 0.82794 0.0
N676 N 0.82341 0.47353 0.80737 0.0
N677 N 0.786 0.53391 0.81103 0.0
H678 H 0.54371 0.87753 0.79412 0.0
H679 H 0.47255 0.73683 0.77725 0.0
H680 H 0.57828 0.81376 0.75255 0.0
H681 H 0.44323 0.79676 0.82809 0.0
H682 H 0.50934 0.76613 0.76472 0.0
H683 H 0.50431 0.84988 0.80269 0.0
C684 C 0.54288 0.85785 0.78645 0.0
C685 C 0.56444 0.84793 0.7727 0.0
C686 C 0.49487 0.77289 0.77862 0.0
C687 C 0.51947 0.81609 0.7827 0.0
C688 C 0.47385 0.75614 0.78583 0.0
C689 C 0.4548 0.76427 0.80386 0.0
C690 C 0.49688 0.79807 0.7894 0.0
C691 C 0.45752 0.78959 0.81423 0.0
C692 C 0.52044 0.84201 0.79152 0.0
C693 C 0.56223 0.82223 0.76334 0.0
N694 N 0.47816 0.80558 0.80685 0.0
N695 N 0.54024 0.80718 0.76863 0.0
H696 H 0.15006 0.17175 0.5732 0.0
H697 H 0.24864 0.17939 0.45002 0.0
H698 H 0.20716 0.23519 0.56305 0.0
H699 H 0.19288 0.11595 0.4652 0.0
H700 H 0.23625 0.19946 0.49211 0.0
H701 H 0.16735 0.15072 0.53423 0.0
C702 C 0.16626 0.18132 0.56278 0.0
C703 C 0.17705 0.2054 0.57147 0.0
C704 C 0.22696 0.18102 0.48628 0.0
C705 C 0.19715 0.1812 0.52641 0.0
C706 C 0.23417 0.16947 0.46235 0.0
C707 C 0.2217 0.14599 0.45397 0.0
C708 C 0.2072 0.16895 0.50186 0.0
C709 C 0.2029 0.13415 0.47068 0.0
C710 C 0.17623 0.16922 0.54046 0.0
C711 C 0.19817 0.21668 0.55707 0.0
N712 N 0.19616 0.14578 0.4936 0.0
N713 N 0.20746 0.20455 0.5352 0.0
H714 H 0.82093 0.10539 0.54036 0.0
H715 H 0.87285 0.22121 0.44881 0.0
H716 H 0.80692 0.18574 0.55776 0.0
H717 H 0.89737 0.14226 0.44076 0.0
H718 H 0.84822 0.209 0.48842 0.0
H719 H 0.84842 0.11878 0.50328 0.0
C720 C 0.82357 0.12587 0.53632 0.0
C721 C 0.81146 0.14446 0.55211 0.0
C722 C 0.85918 0.19441 0.47808 0.0
C723 C 0.84313 0.16002 0.50966 0.0
C724 C 0.87315 0.20135 0.45542 0.0
C725 C 0.88719 0.18275 0.44137 0.0
C726 C 0.85902 0.16861 0.48664 0.0
C727 C 0.88712 0.15735 0.45103 0.0
C728 C 0.83944 0.13354 0.51524 0.0
C729 C 0.816 0.17078 0.54621 0.0
N730 N 0.87311 0.15101 0.4729 0.0
N731 N 0.83133 0.17778 0.52534 0.0
H732 H 0.75737 0.82709 0.47423 0.0
H733 H 0.87271 0.78603 0.57285 0.0
H734 H 0.83882 0.85561 0.4705 0.0
H735 H 0.78988 0.77903 0.59365 0.0
H736 H 0.86011 0.80456 0.53087 0.0
H737 H 0.76838 0.80347 0.51446 0.0
C738 C 0.77747 0.82845 0.48184 0.0
C739 C 0.79711 0.84356 0.46902 0.0
C740 C 0.84466 0.79879 0.54454 0.0
C741 C 0.80992 0.81623 0.51452 0.0
C742 C 0.85184 0.788 0.56847 0.0
C743 C 0.83237 0.78108 0.58697 0.0
C744 C 0.81776 0.80257 0.53883 0.0
C745 C 0.8056 0.78422 0.58008 0.0
C746 C 0.78374 0.81496 0.50474 0.0
C747 C 0.82289 0.84447 0.47973 0.0
N748 N 0.79908 0.79482 0.55662 0.0
N749 N 0.82852 0.83096 0.50166 0.0
H750 H 0.09942 0.89093 0.41924 0.0
H751 H 0.20751 0.84813 0.52349 0.0
H752 H 0.11299 0.8113 0.4388 0.0
H753 H 0.18824 0.92798 0.51107 0.0
H754 H 0.17169 0.83446 0.49375 0.0
H755 H 0.12982 0.90508 0.45447 0.0
C756 C 0.10838 0.8764 0.43122 0.0
C757 C 0.10383 0.84984 0.42584 0.0
C758 C 0.1752 0.85498 0.49761 0.0
C759 C 0.13912 0.86593 0.46588 0.0
C760 C 0.19568 0.86284 0.51472 0.0
C761 C 0.20108 0.88932 0.51988 0.0
C762 C 0.15998 0.87368 0.48535 0.0
C763 C 0.18517 0.90741 0.50746 0.0
C764 C 0.12594 0.88451 0.45122 0.0
C765 C 0.11629 0.83195 0.44191 0.0
N766 N 0.16543 0.89926 0.49071 0.0
N767 N 0.13353 0.8403 0.46101 0.0
H768 H 0.63329 0.00724 0.73308 0.0
H769 H 0.76495 0.09521 0.74251 0.0
H770 H 0.69317 0.99049 0.79047 0.0
H771 H 0.72533 0.07681 0.66896 0.0
H772 H 0.73691 0.06155 0.76379 0.0
H773 H 0.66415 0.03874 0.71289 0.0
C774 C 0.65285 0.01046 0.74161 0.0
C775 C 0.6607 0.99638 0.76352 0.0
C776 C 0.73468 0.0648 0.74294 0.0
C777 C 0.69612 0.03231 0.74053 0.0
C778 C 0.75064 0.08393 0.73079 0.0
C779 C 0.74754 0.08884 0.7039 0.0
C780 C 0.71511 0.05104 0.72819 0.0
C781 C 0.72858 0.07369 0.68969 0.0
C782 C 0.67053 0.02821 0.72995 0.0
C783 C 0.68648 1.00097 0.77354 0.0
N784 N 0.71288 0.05578 0.70207 0.0
N785 N 0.70328 0.01874 0.76209 0.0
H786 H 0.00301 0.78474 0.68114 0.0
H787 H 0.06111 0.65994 0.74779 0.0
H788 H 0.95317 0.71828 0.70118 0.0
H789 H 0.10133 0.73525 0.75018 0.0
H790 H 0.02154 0.68007 0.73017 0.0
H791 H 0.03977 0.7661 0.70511 0.0
C792 C 0.99981 0.76622 0.69063 0.0
C793 C 0.97502 0.75301 0.68909 0.0
C794 C 0.03894 0.6922 0.73487 0.0
C795 C 0.01708 0.73143 0.71654 0.0
C796 C 0.06153 0.68074 0.74497 0.0
C797 C 0.08467 0.69589 0.75043 0.0
C798 C 0.03961 0.71895 0.7298 0.0
C799 C 0.08401 0.72275 0.74631 0.0
C800 C 0.02075 0.75565 0.70446 0.0
C801 C 0.9719 0.72918 0.70204 0.0
N802 N 0.06202 0.73333 0.73596 0.0
N803 N 0.99276 0.71901 0.71499 0.0
H804 H 0.33902 0.05961 0.71175 0.0
H805 H 0.29158 0.90993 0.7004 0.0
H806 H 0.33127 0.00849 0.77804 0.0
H807 H 0.29508 0.96165 0.63433 0.0
H808 H 0.30832 0.94536 0.72875 0.0
H809 H 0.32597 0.02332 0.68259 0.0
C810 C 0.33488 0.0407 0.72016 0.0
C811 C 0.33613 0.03713 0.74742 0.0
C812 C 0.30543 0.94898 0.70805 0.0
C813 C 0.32092 0.99558 0.71417 0.0
C814 C 0.2958 0.92876 0.69184 0.0
C815 C 0.29181 0.93282 0.66494 0.0
C816 C 0.31119 0.97352 0.69733 0.0
C817 C 0.29775 0.95764 0.65497 0.0
C818 C 0.32729 0.02002 0.70351 0.0
C819 C 0.33047 0.0122 0.75718 0.0
N820 N 0.30712 0.97704 0.67117 0.0
N821 N 0.32299 0.99244 0.7406 0.0
H822 H 0.03374 0.30165 0.62011 0.0
H823 H 0.94511 0.30754 0.75008 0.0
H824 H 0.04285 0.25132 0.68644 0.0
H825 H 0.93494 0.35795 0.68397 0.0
H826 H 0.98133 0.28721 0.72712 0.0
H827 H 0.99756 0.32255 0.64295 0.0
C828 C 0.02811 0.29488 0.63939 0.0
C829 C 0.04151 0.27467 0.65132 0.0
C830 C 0.9712 0.30274 0.71762 0.0
C831 C 1.00015 0.29874 0.67774 0.0
C832 C 0.95056 0.31453 0.73083 0.0
C833 C 0.93685 0.33462 0.71905 0.0
C834 C 0.97834 0.31104 0.69236 0.0
C835 C 0.94466 0.34239 0.69378 0.0
C836 C 0.00751 0.30694 0.6525 0.0
C837 C 0.03347 0.26703 0.67655 0.0
N838 N 0.96486 0.33061 0.68131 0.0
N839 N 0.01336 0.27904 0.68886 0.0
H840 H 0.76253 0.99118 0.37891 0.0
H841 H 0.64137 0.01627 0.28122 0.0
H842 H 0.71752 0.92989 0.33884 0.0
H843 H 0.69199 0.07773 0.314 0.0
H844 H 0.66918 0.98444 0.30197 0.0
H845 H 0.73734 0.02315 0.35508 0.0
C846 C 0.74741 0.98442 0.36506 0.0
C847 C 0.74214 0.95773 0.361 0.0
C848 C 0.6743 0.00488 0.30455 0.0
C849 C 0.71309 0.99435 0.33356 0.0
C850 C 0.65831 0.02311 0.29281 0.0
C851 C 0.6642 0.04981 0.29592 0.0
C852 C 0.69636 0.01328 0.31976 0.0
C853 C 0.68675 0.05741 0.31085 0.0
C854 C 0.73308 1.00271 0.35136 0.0
C855 C 0.7225 0.95018 0.34249 0.0
N856 N 0.70186 0.03928 0.32233 0.0
N857 N 0.7086 0.96836 0.32964 0.0
H858 H 0.96843 0.62459 0.28176 0.0
H859 H 0.99327 0.77555 0.3101 0.0
H860 H 0.92047 0.68419 0.24929 0.0
H861 H 0.0538 0.72017 0.3242 0.0
H862 H 0.96536 0.74123 0.29015 0.0
H863 H 0.99992 0.65832 0.29816 0.0
C864 C 0.96476 0.6447 0.27761 0.0
C865 C 0.94162 0.65154 0.26426 0.0
C866 C 0.98476 0.73653 0.29755 0.0
C867 C 0.97725 0.69015 0.2835 0.0
C868 C 1.00067 0.75611 0.30918 0.0
C869 C 0.02596 0.75077 0.31888 0.0
C870 C 0.99403 0.71125 0.2957 0.0
C871 C 0.03442 0.72516 0.31702 0.0
C872 C 0.98268 0.66393 0.28712 0.0
C873 C 0.93793 0.67793 0.25953 0.0
N874 N 0.01845 0.7063 0.30568 0.0
N875 N 0.95534 0.69624 0.26944 0.0
H876 H 0.3235 0.91274 0.31619 0.0
H877 H 0.28701 0.06243 0.31552 0.0
H878 H 0.33943 0.96246 0.25008 0.0
H879 H 0.25039 0.00636 0.36742 0.0
H880 H 0.31108 0.02751 0.29427 0.0
H881 H 0.3013 0.94828 0.33813 0.0
C882 C 0.32245 0.93117 0.30631 0.0
C883 C 0.33333 0.93457 0.28118 0.0
C884 C 0.29779 0.02287 0.31033 0.0
C885 C 0.30797 0.97546 0.30636 0.0
C886 C 0.2842 0.04282 0.32258 0.0
C887 C 0.26662 0.0373 0.34327 0.0
C888 C 0.2941 0.99725 0.31905 0.0
C889 C 0.26351 0.01144 0.35139 0.0
C890 C 0.30966 0.95143 0.31883 0.0
C891 C 0.33124 0.95891 0.26937 0.0
N892 N 0.27717 0.99243 0.33935 0.0
N893 N 0.3189 0.97844 0.28209 0.0
H894 H 0.07054 0.31379 0.2472 0.0
H895 H 0.93417 0.30106 0.32633 0.0
H896 H 0.03416 0.38168 0.27914 0.0
H897 H 0.99277 0.24216 0.32253 0.0
H898 H 0.96502 0.33062 0.30248 0.0
H899 H 0.03536 0.28672 0.26655 0.0
C900 C 0.05493 0.3231 0.2579 0.0
C901 C 0.05556 0.3501 0.26174 0.0
C902 C 0.97097 0.3112 0.30701 0.0
C903 C 0.01514 0.31899 0.28422 0.0
C904 C 0.95346 0.29439 0.32063 0.0
C905 C 0.96093 0.26913 0.32665 0.0
C906 C 0.99573 0.30239 0.29887 0.0
C907 C 0.98612 0.26146 0.31861 0.0
C908 C 0.03492 0.30757 0.26913 0.0
C909 C 0.03459 0.36094 0.2758 0.0
N910 N 1.00242 0.27788 0.30506 0.0
N911 N 0.01529 0.34533 0.28671 0.0
H912 H 0.73938 0.65511 0.97162 0.0
H913 H 0.75739 0.74949 0.0947 0.0
H914 H 0.79638 0.71951 0.96908 0.0
H915 H 0.68093 0.7174 0.07008 0.0
H916 H 0.77646 0.73392 0.05324 0.0
H917 H 0.72267 0.67197 0.01315 0.0
C918 C 0.74872 0.67256 0.98 0.0
C919 C 0.76938 0.6859 0.96681 0.0
C920 C 0.75549 0.73051 0.05695 0.0
C921 C 0.75022 0.70527 0.01445 0.0
C922 C 0.7446 0.73936 0.08053 0.0
C923 C 0.71749 0.73486 0.0858 0.0
C924 C 0.7393 0.71641 0.03894 0.0
C925 C 0.70185 0.72153 0.06677 0.0
C926 C 0.73897 0.68229 1.00358 0.0
C927 C 0.78043 0.70863 0.97857 0.0
N928 N 0.71304 0.7125 0.04439 0.0
N929 N 0.7708 0.71757 1.00182 0.0
H930 H 0.21928 0.69906 0.00976 0.0
H931 H 0.36407 0.71567 0.95279 0.0
H932 H 0.28017 0.64596 0.0293 0.0
H933 H 0.2964 0.73037 0.90392 0.0
H934 H 0.33425 0.69631 0.98567 0.0
H935 H 0.24783 0.71696 0.97475 0.0
C936 C 0.23864 0.69118 0.00656 0.0
C937 C 0.24746 0.67101 0.02223 0.0
C938 C 0.32595 0.70379 0.96775 0.0
C939 C 0.28017 0.69156 0.98295 0.0
C940 C 0.34288 0.715 0.94915 0.0
C941 C 0.33256 0.72471 0.92578 0.0
C942 C 0.29847 0.70284 0.9632 0.0
C943 C 0.305 0.72304 0.92174 0.0
C944 C 0.25479 0.70127 0.98662 0.0
C945 C 0.27263 0.66134 0.01741 0.0
N946 N 0.28879 0.71254 0.94044 0.0
N947 N 0.28828 0.67193 0.99839 0.0
H948 H 0.31019 0.32212 0.93561 0.0
H949 H 0.26902 0.26353 0.07554 0.0
H950 H 0.22915 0.3072 0.95968 0.0
H951 H 0.35036 0.2737 0.0505 0.0
H952 H 0.25428 0.27847 0.03276 0.0
H953 H 0.32543 0.30401 0.97706 0.0
C954 C 0.29557 0.31505 0.94957 0.0
C955 C 0.26829 0.31629 0.94406 0.0
C956 C 0.27536 0.27731 0.0365 0.0
C957 C 0.28569 0.29543 0.99171 0.0
C958 C 0.28383 0.2687 0.06098 0.0
C959 C 0.31103 0.26735 0.06677 0.0
C960 C 0.29416 0.28485 0.01751 0.0
C961 C 0.3292 0.27435 0.04698 0.0
C962 C 0.30431 0.30464 0.97325 0.0
C963 C 0.25035 0.30672 0.96298 0.0
N964 N 0.32046 0.28293 0.02335 0.0
N965 N 0.25935 0.2968 0.98589 0.0
H966 H 0.79168 0.30106 0.02402 0.0
H967 H 0.64507 0.33831 0.98455 0.0
H968 H 0.76155 0.37725 0.03712 0.0
H969 H 0.68373 0.27332 0.94955 0.0
H970 H 0.68668 0.35138 0.00663 0.0
H971 H 0.75159 0.28914 0.99859 0.0
C972 C 0.77669 0.31531 0.02133 0.0
C973 C 0.77989 0.34015 0.03265 0.0
C974 C 0.68609 0.33429 0.99406 0.0
C975 C 0.73395 0.32664 1.00396 0.0
C976 C 0.66229 0.32669 0.98167 0.0
C977 C 0.66096 0.30462 0.96533 0.0
C978 C 0.70865 0.31953 0.99036 0.0
C979 C 0.684 0.29052 0.9619 0.0
C980 C 0.75389 0.30855 0.0068 0.0
C981 C 0.75998 0.35799 0.0285 0.0
N982 N 0.70689 0.2981 0.97447 0.0
N983 N 0.73772 0.3508 0.01472 0.0
H984 H 0.17633 0.34551 0.3617 0.0
H985 H 0.13495 0.19582 0.33835 0.0
H986 H 0.10401 0.31899 0.32278 0.0
H987 H 0.20627 0.22263 0.37902 0.0
H988 H 0.12098 0.2407 0.33633 0.0
H989 H 0.18501 0.30058 0.37295 0.0
C990 C 0.16205 0.33031 0.35592 0.0
C991 C 0.13963 0.33598 0.34093 0.0
C992 C 0.13956 0.23669 0.34595 0.0
C993 C 0.1496 0.28447 0.35333 0.0
C994 C 0.14758 0.21106 0.347 0.0
C995 C 0.17187 0.20531 0.35876 0.0
C996 C 0.15602 0.25679 0.35659 0.0
C997 C 0.18727 0.2259 0.36998 0.0
C998 C 0.16709 0.30462 0.36217 0.0
C999 C 0.12186 0.31543 0.33384 0.0
N1000 N 0.1792 0.25067 0.3684 0.0
N1001 N 0.12736 0.29061 0.33985 0.0
H1002 H 0.8092 0.17356 0.37673 0.0
H1003 H 0.68724 0.20043 0.28316 0.0
H1004 H 0.81204 0.23345 0.31829 0.0
H1005 H 0.68271 0.14937 0.3497 0.0
H1006 H 0.73092 0.21657 0.29837 0.0
H1007 H 0.76149 0.16807 0.36987 0.0
C1008 C 0.79969 0.18577 0.36259 0.0
C1009 C 0.81465 0.20379 0.34784 0.0
C1010 C 0.72018 0.20216 0.30989 0.0
C1011 C 0.75983 0.19735 0.33957 0.0
C1012 C 0.69517 0.19295 0.30125 0.0
C1013 C 0.68136 0.17321 0.31498 0.0
C1014 C 0.7316 0.19143 0.3323 0.0
C1015 C 0.69264 0.1644 0.33833 0.0
C1016 C 0.77237 0.18266 0.35872 0.0
C1017 C 0.80123 0.21928 0.33002 0.0
N1018 N 0.71722 0.17329 0.34601 0.0
N1019 N 0.7746 0.21542 0.32607 0.0
H1020 H 0.90664 0.68691 0.31919 0.0
H1021 H 0.83707 0.78939 0.41252 0.0
H1022 H 0.85881 0.66545 0.38608 0.0
H1023 H 0.86997 0.80822 0.33676 0.0
H1024 H 0.85287 0.74542 0.40777 0.0
H1025 H 0.90123 0.73255 0.33013 0.0
C1026 C 0.89502 0.69179 0.33625 0.0
C1027 C 0.88261 0.67229 0.35142 0.0
C1028 C 0.85686 0.75923 0.39229 0.0
C1029 C 0.87662 0.72465 0.36422 0.0
C1030 C 0.84778 0.78433 0.39494 0.0
C1031 C 0.85169 0.8024 0.37474 0.0
C1032 C 0.87007 0.75207 0.36931 0.0
C1033 C 0.86641 0.79496 0.35277 0.0
C1034 C 0.89206 0.71789 0.34254 0.0
C1035 C 0.86859 0.67981 0.3738 0.0
N1036 N 0.8748 0.77026 0.3505 0.0
N1037 N 0.86571 0.70542 0.37936 0.0
H1038 H 0.30409 0.77001 0.30785 0.0
H1039 H 0.18149 0.84191 0.36791 0.0
H1040 H 0.3107 0.84033 0.35427 0.0
H1041 H 0.17336 0.76817 0.32733 0.0
H1042 H 0.22942 0.83792 0.36859 0.0
H1043 H 0.25748 0.76476 0.32067 0.0
C1044 C 0.29596 0.78392 0.32139 0.0
C1045 C 0.31116 0.80584 0.3298 0.0
C1046 C 0.21725 0.82242 0.35975 0.0
C1047 C 0.25776 0.80029 0.34403 0.0
C1048 C 0.18983 0.82475 0.35926 0.0
C1049 C 0.17347 0.80554 0.34716 0.0
C1050 C 0.22857 0.8009 0.34766 0.0
C1051 C 0.18532 0.78352 0.33669 0.0
C1052 C 0.26926 0.78104 0.32852 0.0
C1053 C 0.29951 0.82339 0.34708 0.0
N1054 N 0.21224 0.78198 0.33679 0.0
N1055 N 0.27344 0.82045 0.3533 0.0
H1056 H 0.13796 0.71905 0.67617 0.0
H1057 H 0.25805 0.81145 0.62843 0.0
H1058 H 0.21597 0.69221 0.6585 0.0
H1059 H 0.177 0.83586 0.63003 0.0
H1060 H 0.24281 0.76805 0.64076 0.0
H1061 H 0.15139 0.76197 0.65973 0.0
C1062 C 0.15783 0.72215 0.66855 0.0
C1063 C 0.17592 0.70208 0.6688 0.0
C1064 C 0.2283 0.78283 0.63837 0.0
C1065 C 0.19151 0.75114 0.65023 0.0
C1066 C 0.237 0.80775 0.63147 0.0
C1067 C 0.21876 0.82745 0.62821 0.0
C1068 C 0.20114 0.77743 0.64229 0.0
C1069 C 0.19175 0.82132 0.63237 0.0
C1070 C 0.16547 0.74662 0.65918 0.0
C1071 C 0.20133 0.70703 0.6585 0.0
N1072 N 0.18375 0.79684 0.63928 0.0
N1073 N 0.20846 0.73114 0.64991 0.0
H1074 H 0.22165 0.13225 0.81182 0.0
H1075 H 0.15937 0.12303 0.67216 0.0
H1076 H 0.24479 0.07462 0.75513 0.0
H1077 H 0.11711 0.15566 0.73714 0.0
H1078 H 0.18862 0.10188 0.70315 0.0
H1079 H 0.18079 0.13776 0.78702 0.0
C1080 C 0.21793 0.12027 0.79454 0.0
C1081 C 0.23713 0.10346 0.78516 0.0
C1082 C 0.17257 0.11314 0.71072 0.0
C1083 C 0.19058 0.11011 0.75638 0.0
C1084 C 0.15597 0.12517 0.69303 0.0
C1085 C 0.13602 0.14106 0.70222 0.0
C1086 C 0.16964 0.11769 0.73779 0.0
C1087 C 0.13226 0.14341 0.72939 0.0
C1088 C 0.19456 0.12351 0.7803 0.0
C1089 C 0.23102 0.08847 0.7626 0.0
N1090 N 0.14933 0.13232 0.74629 0.0
N1091 N 0.20857 0.09256 0.74866 0.0
H1092 H 0.82485 0.20798 0.65722 0.0
H1093 H 0.78988 0.35324 0.69165 0.0
H1094 H 0.75997 0.22752 0.70794 0.0
H1095 H 0.86867 0.33302 0.66877 0.0
H1096 H 0.77746 0.30697 0.695 0.0
H1097 H 0.84105 0.25341 0.65937 0.0
C1098 C 0.81423 0.22169 0.66908 0.0
C1099 C 0.79094 0.2139 0.68231 0.0
C1100 C 0.7976 0.31261 0.68963 0.0
C1101 C 0.80903 0.26588 0.68439 0.0
C1102 C 0.80466 0.33895 0.68782 0.0
C1103 C 0.83056 0.34673 0.68099 0.0
C1104 C 0.81645 0.29397 0.68385 0.0
C1105 C 0.84876 0.32764 0.67506 0.0
C1106 C 0.82346 0.2476 0.67026 0.0
C1107 C 0.77797 0.23256 0.69735 0.0
N1108 N 0.84137 0.30206 0.67662 0.0
N1109 N 0.78698 0.25769 0.6977 0.0
H1110 H 0.81224 0.87735 0.66477 0.0
H1111 H 0.69073 0.85439 0.76353 0.0
H1112 H 0.80734 0.81633 0.72197 0.0
H1113 H 0.69243 0.9143 0.70495 0.0
H1114 H 0.73363 0.84049 0.74823 0.0
H1115 H 0.76915 0.89222 0.67964 0.0
C1116 C 0.80227 0.86727 0.68065 0.0
C1117 C 0.81336 0.84549 0.6921 0.0
C1118 C 0.72465 0.85663 0.73861 0.0
C1119 C 0.76395 0.86214 0.70891 0.0
C1120 C 0.70006 0.86456 0.74731 0.0
C1121 C 0.68795 0.8856 0.73554 0.0
C1122 C 0.73741 0.86985 0.718 0.0
C1123 C 0.70101 0.89795 0.71456 0.0
C1124 C 0.77756 0.87562 0.68896 0.0
C1125 C 0.79937 0.83297 0.71236 0.0
N1126 N 0.72513 0.88996 0.70652 0.0
N1127 N 0.77543 0.84143 0.72006 0.0
H1128 H 0.26969 0.21656 0.32006 0.0
H1129 H 0.35621 0.17226 0.19732 0.0
H1130 H 0.30141 0.14011 0.31395 0.0
H1131 H 0.30633 0.23857 0.19729 0.0
H1132 H 0.33941 0.16103 0.24103 0.0
H1133 H 0.28741 0.22656 0.27674 0.0
C1134 C 0.28067 0.20195 0.30978 0.0
C1135 C 0.28397 0.17741 0.32072 0.0
C1136 C 0.33205 0.17792 0.23132 0.0
C1137 C 0.30415 0.18871 0.27076 0.0
C1138 C 0.34153 0.18429 0.20632 0.0
C1139 C 0.33271 0.20641 0.19353 0.0
C1140 C 0.31386 0.19396 0.24375 0.0
C1141 C 0.31373 0.22131 0.20627 0.0
C1142 C 0.2906 0.20762 0.28489 0.0
C1143 C 0.29835 0.15928 0.3063 0.0
N1144 N 0.30515 0.21494 0.23068 0.0
N1145 N 0.30786 0.16527 0.28204 0.0
H1146 H 0.89909 0.16835 0.2311 0.0
H1147 H 0.93993 0.29378 0.1538 0.0
H1148 H 0.95693 0.22576 0.25925 0.0
H1149 H 0.89555 0.22969 0.11815 0.0
H1150 H 0.95331 0.26541 0.18923 0.0
H1151 H 0.90413 0.1857 0.18672 0.0
C1152 C 0.91343 0.18409 0.22776 0.0
C1153 C 0.92717 0.19608 0.24887 0.0
C1154 C 0.94118 0.25726 0.17337 0.0
C1155 C 0.9327 0.21631 0.19849 0.0
C1156 C 0.93367 0.27348 0.15316 0.0
C1157 C 0.91659 0.26402 0.13327 0.0
C1158 C 0.93087 0.23157 0.17405 0.0
C1159 C 0.90883 0.23762 0.13318 0.0
C1160 C 0.91622 0.1941 0.20247 0.0
C1161 C 0.94548 0.21644 0.24354 0.0
N1162 N 0.91552 0.22241 0.15365 0.0
N1163 N 0.94733 0.22624 0.219 0.0
H1164 H 0.65926 0.8305 0.20536 0.0
H1165 H 0.74254 0.80782 0.33691 0.0
H1166 H 0.70771 0.76436 0.21771 0.0
H1167 H 0.68807 0.86988 0.32839 0.0
H1168 H 0.72983 0.79169 0.29328 0.0
H1169 H 0.67033 0.84595 0.2498 0.0
C1170 C 0.67242 0.81934 0.21729 0.0
C1171 C 0.68259 0.79609 0.2077 0.0
C1172 C 0.72048 0.80872 0.30099 0.0
C1173 C 0.69512 0.81356 0.25877 0.0
C1174 C 0.72765 0.81791 0.32599 0.0
C1175 C 0.71637 0.84028 0.33639 0.0
C1176 C 0.702 0.82207 0.28605 0.0
C1177 C 0.6972 0.85251 0.32125 0.0
C1178 C 0.67858 0.82809 0.24275 0.0
C1179 C 0.6994 0.78239 0.22419 0.0
N1180 N 0.69078 0.84336 0.29678 0.0
N1181 N 0.7051 0.79131 0.24886 0.0
H1182 H 0.09379 0.70543 0.14591 0.0
H1183 H 0.10905 0.83914 0.21932 0.0
H1184 H 0.13197 0.77204 0.11008 0.0
H1185 H 0.05145 0.77956 0.24133 0.0
H1186 H 0.11346 0.81774 0.17648 0.0
H1187 H 0.07381 0.73398 0.17832 0.0
C1188 C 0.09741 0.7262 0.14463 0.0
C1189 C 0.11452 0.73648 0.12553 0.0
C1190 C 0.09941 0.80967 0.19047 0.0
C1191 C 0.09251 0.76927 0.1628 0.0
C1192 C 0.09681 0.82196 0.21488 0.0
C1193 C 0.08034 0.81072 0.2341 0.0
C1194 C 0.0856 0.78593 0.18547 0.0
C1195 C 0.06495 0.78842 0.22732 0.0
C1196 C 0.08606 0.74252 0.16306 0.0
C1197 C 0.11875 0.76347 0.12452 0.0
N1198 N 0.06833 0.77648 0.20378 0.0
N1199 N 0.10827 0.77895 0.1433 0.0
H1200 H 0.3051 0.75025 0.73358 0.0
H1201 H 0.37135 0.85033 0.63573 0.0
H1202 H 0.38465 0.78182 0.74561 0.0
H1203 H 0.30974 0.79531 0.61107 0.0
H1204 H 0.37734 0.82542 0.67598 0.0
H1205 H 0.30586 0.76721 0.68874 0.0
C1206 C 0.3227 0.76069 0.72672 0.0
C1207 C 0.34479 0.76471 0.74327 0.0
C1208 C 0.36298 0.8184 0.66145 0.0
C1209 C 0.34588 0.78411 0.69225 0.0
C1210 C 0.35978 0.83248 0.63848 0.0
C1211 C 0.34038 0.82457 0.62004 0.0
C1212 C 0.34608 0.79672 0.66627 0.0
C1213 C 0.32527 0.80169 0.62464 0.0
C1214 C 0.32326 0.77014 0.70112 0.0
C1215 C 0.36728 0.77812 0.7334 0.0
N1216 N 0.32809 0.78881 0.64755 0.0
N1217 N 0.36714 0.78761 0.70864 0.0
H1218 H 0.22865 0.29099 0.81892 0.0
H1219 H 0.14573 0.31269 0.68716 0.0
H1220 H 0.17737 0.35519 0.80741 0.0
H1221 H 0.18274 0.2406 0.70436 0.0
H1222 H 0.16006 0.32965 0.73004 0.0
H1223 H 0.21375 0.27267 0.77661 0.0
C1224 C 0.21397 0.30106 0.80772 0.0
C1225 C 0.20427 0.32472 0.81683 0.0
C1226 C 0.16513 0.31014 0.72443 0.0
C1227 C 0.18754 0.30405 0.76807 0.0
C1228 C 0.15712 0.30049 0.69981 0.0
C1229 C 0.16301 0.27514 0.69206 0.0
C1230 C 0.1793 0.29445 0.74149 0.0
C1231 C 0.17775 0.26025 0.70946 0.0
C1232 C 0.20559 0.29064 0.78348 0.0
C1233 C 0.18539 0.33691 0.80131 0.0
N1234 N 0.18536 0.27012 0.73335 0.0
N1235 N 0.17784 0.32657 0.77765 0.0
H1236 H 0.67132 0.13886 0.70018 0.0
H1237 H 0.6421 0.25621 0.79817 0.0
H1238 H 0.67839 0.21964 0.67935 0.0
H1239 H 0.63599 0.17589 0.82092 0.0
H1240 H 0.65189 0.24269 0.75351 0.0
H1241 H 0.65379 0.15147 0.74299 0.0
C1242 C 0.66874 0.15922 0.70445 0.0
C1243 C 0.67658 0.17821 0.68622 0.0
C1244 C 0.64831 0.22795 0.76818 0.0
C1245 C 0.6568 0.19281 0.73521 0.0
C1246 C 0.64263 0.23567 0.79374 0.0
C1247 C 0.63805 0.21714 0.81334 0.0
C1248 C 0.64955 0.20145 0.76202 0.0
C1249 C 0.63961 0.19081 0.8065 0.0
C1250 C 0.65883 0.16641 0.72891 0.0
C1251 C 0.67253 0.20429 0.69264 0.0
N1252 N 0.64524 0.18373 0.78137 0.0
N1253 N 0.66323 0.21082 0.71671 0.0
H1254 H 0.82589 0.7422 0.71757 0.0
H1255 H 0.84965 0.63711 0.82927 0.0
H1256 H 0.88376 0.68287 0.7106 0.0
H1257 H 0.79328 0.69792 0.83528 0.0
H1258 H 0.86285 0.65341 0.78609 0.0
H1259 H 0.81319 0.72527 0.76034 0.0
C1260 C 0.83578 0.72543 0.7249 0.0
C1261 C 0.85598 0.71398 0.71039 0.0
C1262 C 0.84769 0.66325 0.79694 0.0
C1263 C 0.84168 0.6946 0.75979 0.0
C1264 C 0.84026 0.65406 0.82169 0.0
C1265 C 0.82029 0.66613 0.836 0.0
C1266 C 0.83506 0.68466 0.78637 0.0
C1267 C 0.80874 0.68793 0.82503 0.0
C1268 C 0.82859 0.71583 0.74946 0.0
C1269 C 0.86804 0.69228 0.72102 0.0
N1270 N 0.81621 0.69638 0.80091 0.0
N1271 N 0.8608 0.68338 0.74512 0.0
H1272 H 0.16823 0.36307 0.20971 0.0
H1273 H 0.32699 0.3666 0.19683 0.0
H1274 H 0.22075 0.4157 0.25345 0.0
H1275 H 0.27489 0.31215 0.15497 0.0
H1276 H 0.28804 0.38712 0.21518 0.0
H1277 H 0.20682 0.3462 0.18693 0.0
C1278 C 0.18782 0.3712 0.21439 0.0
C1279 C 0.19124 0.39071 0.23364 0.0
C1280 C 0.28514 0.37071 0.20191 0.0
C1281 C 0.23549 0.37148 0.20775 0.0
C1282 C 0.3074 0.35909 0.19133 0.0
C1283 C 0.30428 0.33742 0.17458 0.0
C1284 C 0.25954 0.36066 0.19563 0.0
C1285 C 0.27833 0.32842 0.16826 0.0
C1286 C 0.20986 0.36154 0.20142 0.0
C1287 C 0.21712 0.40053 0.23889 0.0
N1288 N 0.25702 0.34 0.17885 0.0
N1289 N 0.2382 0.39075 0.22613 0.0
H1290 H 0.34896 0.69239 0.78831 0.0
H1291 H 0.20702 0.64298 0.83981 0.0
H1292 H 0.33708 0.66206 0.86589 0.0
H1293 H 0.21855 0.68787 0.76947 0.0
H1294 H 0.25391 0.65121 0.85104 0.0
H1295 H 0.3008 0.69178 0.7817 0.0
C1296 C 0.33606 0.68627 0.8042 0.0
C1297 C 0.34673 0.67841 0.82806 0.0
C1298 C 0.24606 0.65951 0.83332 0.0
C1299 C 0.29174 0.67636 0.82038 0.0
C1300 C 0.21925 0.65489 0.82694 0.0
C1301 C 0.20882 0.66451 0.80352 0.0
C1302 C 0.26258 0.67365 0.81604 0.0
C1303 C 0.22569 0.67983 0.78761 0.0
C1304 C 0.3086 0.68567 0.80039 0.0
C1305 C 0.3294 0.66901 0.84748 0.0
N1306 N 0.25173 0.68365 0.794 0.0
N1307 N 0.3027 0.66828 0.84326 0.0
H1308 H 0.36404 0.30576 0.81074 0.0
H1309 H 0.29136 0.19013 0.73341 0.0
H1310 H 0.28706 0.31092 0.77428 0.0
H1311 H 0.37118 0.1873 0.76411 0.0
H1312 H 0.29321 0.23715 0.73977 0.0
H1313 H 0.37105 0.26603 0.78562 0.0
C1314 C 0.34889 0.29895 0.79694 0.0
C1315 C 0.32465 0.31134 0.79509 0.0
C1316 C 0.31053 0.22631 0.74465 0.0
C1317 C 0.33226 0.26553 0.76667 0.0
C1318 C 0.30949 0.19942 0.74094 0.0
C1319 C 0.33089 0.18464 0.74881 0.0
C1320 C 0.33301 0.23845 0.75656 0.0
C1321 C 0.35398 0.19783 0.75821 0.0
C1322 C 0.35281 0.27611 0.7827 0.0
C1323 C 0.30573 0.30155 0.77686 0.0
N1324 N 0.35422 0.22389 0.76231 0.0
N1325 N 0.30971 0.27897 0.76375 0.0
H1326 H 0.65422 0.36509 0.8705 0.0
H1327 H 0.73937 0.30858 0.75546 0.0
H1328 H 0.62322 0.30623 0.81654 0.0
H1329 H 0.75725 0.38402 0.78968 0.0
H1330 H 0.69618 0.30782 0.77732 0.0
H1331 H 0.691 0.37399 0.84037 0.0
C1332 C 0.65479 0.35443 0.85209 0.0
C1333 C 0.63581 0.33455 0.84633 0.0
C1334 C 0.70939 0.32471 0.77978 0.0
C1335 C 0.67817 0.34424 0.81207 0.0
C1336 C 0.73408 0.32502 0.76748 0.0
C1337 C 0.7519 0.3463 0.77093 0.0
C1338 C 0.70268 0.34561 0.79608 0.0
C1339 C 0.74401 0.36731 0.78644 0.0
C1340 C 0.67585 0.35947 0.83493 0.0
C1341 C 0.63754 0.32148 0.82206 0.0
N1342 N 0.72013 0.36628 0.79877 0.0
N1343 N 0.65865 0.32618 0.8061 0.0
H1344 H 0.72 0.73025 0.90691 0.0
H1345 H 0.60855 0.81873 0.84817 0.0
H1346 H 0.65208 0.69962 0.86296 0.0
H1347 H 0.67991 0.8484 0.8867 0.0
H1348 H 0.62006 0.77475 0.86002 0.0
H1349 H 0.70142 0.77276 0.90629 0.0
C1350 C 0.70099 0.73215 0.89741 0.0
C1351 C 0.68782 0.71098 0.88467 0.0
C1352 C 0.63303 0.7909 0.86619 0.0
C1353 C 0.66655 0.76044 0.88358 0.0
C1354 C 0.62649 0.81601 0.8594 0.0
C1355 C 0.64354 0.83725 0.86604 0.0
C1356 C 0.65683 0.78695 0.87969 0.0
C1357 C 0.6662 0.83266 0.88112 0.0
C1358 C 0.69043 0.75672 0.89696 0.0
C1359 C 0.66328 0.71531 0.87257 0.0
N1360 N 0.67237 0.80798 0.88713 0.0
N1361 N 0.65357 0.73958 0.87211 0.0
H1362 H 0.69234 0.67641 0.22772 0.0
H1363 H 0.8287 0.60593 0.21892 0.0
H1364 H 0.71616 0.63747 0.15687 0.0
H1365 H 0.78589 0.61238 0.29175 0.0
H1366 H 0.7895 0.6205 0.19532 0.0
H1367 H 0.72829 0.65595 0.25157 0.0
C1368 C 0.705 0.66328 0.21734 0.0
C1369 C 0.70132 0.65846 0.19043 0.0
C1370 C 0.78868 0.61849 0.21644 0.0
C1371 C 0.74266 0.63553 0.21722 0.0
C1372 C 0.81104 0.61033 0.22991 0.0
C1373 C 0.81054 0.60801 0.25732 0.0
C1374 C 0.76593 0.62487 0.23057 0.0
C1375 C 0.78712 0.61385 0.2706 0.0
C1376 C 0.72543 0.65162 0.23088 0.0
C1377 C 0.71822 0.64139 0.1777 0.0
N1378 N 0.76585 0.6223 0.25714 0.0
N1379 N 0.73845 0.63079 0.19114 0.0
H1380 H 0.30011 0.82837 0.22034 0.0
H1381 H 0.29486 0.70511 0.12331 0.0
H1382 H 0.36764 0.80188 0.17711 0.0
H1383 H 0.22543 0.73516 0.16055 0.0
H1384 H 0.32165 0.7408 0.14272 0.0
H1385 H 0.27203 0.79542 0.19773 0.0
C1386 C 0.30899 0.81589 0.20584 0.0
C1387 C 0.33634 0.81784 0.20075 0.0
C1388 C 0.30055 0.73963 0.14665 0.0
C1389 C 0.30435 0.77981 0.17507 0.0
C1390 C 0.28524 0.71915 0.13565 0.0
C1391 C 0.25784 0.71705 0.14036 0.0
C1392 C 0.28845 0.75816 0.16259 0.0
C1393 C 0.24649 0.73595 0.15642 0.0
C1394 C 0.29295 0.79698 0.19303 0.0
C1395 C 0.3467 0.80106 0.18179 0.0
N1396 N 0.26184 0.75566 0.167 0.0
N1397 N 0.33076 0.78266 0.16983 0.0
H1398 H 0.73832 0.30672 0.13543 0.0
H1399 H 0.72706 0.15717 0.17607 0.0
H1400 H 0.8058 0.258 0.14247 0.0
H1401 H 0.66295 0.20974 0.18428 0.0
H1402 H 0.75499 0.19261 0.15845 0.0
H1403 H 0.70934 0.27026 0.14893 0.0
C1404 C 0.74706 0.28838 0.13984 0.0
C1405 C 0.77455 0.28546 0.13793 0.0
C1406 C 0.73476 0.19635 0.16398 0.0
C1407 C 0.74148 0.2436 0.15315 0.0
C1408 C 0.71874 0.17607 0.1738 0.0
C1409 C 0.6927 0.18058 0.18177 0.0
C1410 C 0.72458 0.22126 0.16195 0.0
C1411 C 0.68304 0.20555 0.17869 0.0
C1412 C 0.7305 0.26757 0.14753 0.0
C1413 C 0.78474 0.2612 0.14382 0.0
N1414 N 0.69899 0.22497 0.16909 0.0
N1415 N 0.7682 0.24121 0.15112 0.0
loop_
_geom_bond_atom_site_label_1
_geom_bond_atom_site_label_2
_geom_bond_distance
_geom_bond_site_symmetry_2
_ccdc_geom_bond_type
Cu0 N1 1.999 . S
Cu0 O6 1.974 . S
Cu0 N11 1.985 . S
Cu0 O20 1.959 . S
N1 Cu0 1.999 . S
N1 C3 1.263 . S
N1 C5 1.389 . S
N2 C3 1.358 . S
N2 C4 1.400 . S
C3 N1 1.263 . S
C3 N2 1.358 . S
C3 H9 0.930 . S
C4 N2 1.400 . S
C4 C5 1.351 . S
C4 H21 0.930 . S
C5 N1 1.389 . S
C5 C4 1.351 . S
C5 H10 0.930 . S
O6 Cu0 1.974 . S
O6 C16 1.282 . S
C7 O8 1.261 . S
C7 O20 1.251 . S
O8 C7 1.261 . S
H9 C3 0.930 . S
H10 C5 0.930 . S
N11 Cu0 1.985 . S
N11 C13 1.335 . S
N11 C14 1.390 . S
N12 C13 1.345 . S
N12 C15 1.336 . S
C13 N11 1.335 . S
C13 N12 1.345 . S
C13 H18 0.930 . S
C14 N11 1.390 . S
C14 C15 1.346 . S
C14 H19 0.930 . S
C15 N12 1.336 . S
C15 C14 1.346 . S
C15 H22 0.929 . S
C16 O6 1.282 . S
C16 O17 1.216 . S
O17 C16 1.216 . S
H18 C13 0.930 . S
H19 C14 0.930 . S
O20 Cu0 1.959 . S
O20 C7 1.251 . S
H21 C4 0.930 . S
H22 C15 0.929 . S
Cu23 N24 1.999 . S
Cu23 O29 1.974 . S
Cu23 N34 1.985 . S
Cu23 O43 1.959 . S
N24 Cu23 1.999 . S
N24 C26 1.263 . S
N24 C28 1.389 . S
N25 C26 1.358 . S
N25 C27 1.400 . S
C26 N24 1.263 . S
C26 N25 1.358 . S
C26 H32 0.930 . S
C27 N25 1.400 . S
C27 C28 1.351 . S
C27 H44 0.930 . S
C28 N24 1.389 . S
C28 C27 1.351 . S
C28 H33 0.930 . S
O29 Cu23 1.974 . S
O29 C39 1.282 . S
C30 O31 1.261 . S
C30 O43 1.251 . S
O31 C30 1.261 . S
H32 C26 0.930 . S
H33 C28 0.930 . S
N34 Cu23 1.985 . S
N34 C36 1.335 . S
N34 C37 1.390 . S
N35 C36 1.345 . S
N35 C38 1.336 . S
C36 N34 1.335 . S
C36 N35 1.345 . S
C36 H41 0.930 . S
C37 N34 1.390 . S
C37 C38 1.346 . S
C37 H42 0.930 . S
C38 N35 1.336 . S
C38 C37 1.346 . S
C38 H45 0.929 . S
C39 O29 1.282 . S
C39 O40 1.216 . S
O40 C39 1.216 . S
H41 C36 0.930 . S
H42 C37 0.930 . S
O43 Cu23 1.959 . S
O43 C30 1.251 . S
H44 C27 0.930 . S
H45 C38 0.929 . S
Cu46 N47 1.999 . S
Cu46 O52 1.974 . S
Cu46 N57 1.985 . S
Cu46 O66 1.959 . S
N47 Cu46 1.999 . S
N47 C49 1.263 . S
N47 C51 1.389 . S
N48 C49 1.358 . S
N48 C50 1.400 . S
C49 N47 1.263 . S
C49 N48 1.358 . S
C49 H55 0.930 . S
C50 N48 1.400 . S
C50 C51 1.351 . S
C50 H67 0.930 . S
C51 N47 1.389 . S
C51 C50 1.351 . S
C51 H56 0.930 . S
O52 Cu46 1.974 . S
O52 C62 1.282 . S
C53 O54 1.261 . S
C53 O66 1.251 . S
O54 C53 1.261 . S
H55 C49 0.930 . S
H56 C51 0.930 . S
N57 Cu46 1.985 . S
N57 C59 1.335 . S
N57 C60 1.390 . S
N58 C59 1.345 . S
N58 C61 1.336 . S
C59 N57 1.335 . S
C59 N58 1.345 . S
C59 H64 0.930 . S
C60 N57 1.390 . S
C60 C61 1.346 . S
C60 H65 0.930 . S
C61 N58 1.336 . S
C61 C60 1.346 . S
C61 H68 0.929 . S
C62 O52 1.282 . S
C62 O63 1.216 . S
O63 C62 1.216 . S
H64 C59 0.930 . S
H65 C60 0.930 . S
O66 Cu46 1.959 . S
O66 C53 1.251 . S
H67 C50 0.930 . S
H68 C61 0.929 . S
Cu69 N70 1.999 . S
Cu69 O75 1.974 . S
Cu69 N80 1.985 . S
Cu69 O89 1.959 . S
N70 Cu69 1.999 . S
N70 C72 1.263 . S
N70 C74 1.389 . S
N71 C72 1.358 . S
N71 C73 1.400 . S
C72 N70 1.263 . S
C72 N71 1.358 . S
C72 H78 0.930 . S
C73 N71 1.400 . S
C73 C74 1.351 . S
C73 H90 0.930 . S
C74 N70 1.389 . S
C74 C73 1.351 . S
C74 H79 0.930 . S
O75 Cu69 1.974 . S
O75 C85 1.282 . S
C76 O77 1.261 . S
C76 O89 1.251 . S
O77 C76 1.261 . S
H78 C72 0.930 . S
H79 C74 0.930 . S
N80 Cu69 1.985 . S
N80 C82 1.335 . S
N80 C83 1.390 . S
N81 C82 1.345 . S
N81 C84 1.336 . S
C82 N80 1.335 . S
C82 N81 1.345 . S
C82 H87 0.930 . S
C83 N80 1.390 . S
C83 C84 1.346 . S
C83 H88 0.930 . S
C84 N81 1.336 . S
C84 C83 1.346 . S
C84 H91 0.929 . S
C85 O75 1.282 . S
C85 O86 1.216 . S
O86 C85 1.216 . S
H87 C82 0.930 . S
H88 C83 0.930 . S
O89 Cu69 1.959 . S
O89 C76 1.251 . S
H90 C73 0.930 . S
H91 C84 0.929 . S
Cu92 N93 1.999 . S
Cu92 O98 1.974 . S
Cu92 N103 1.985 . S
Cu92 O112 1.959 . S
N93 Cu92 1.999 . S
N93 C95 1.263 . S
N93 C97 1.389 . S
N94 C95 1.358 . S
N94 C96 1.400 . S
C95 N93 1.263 . S
C95 N94 1.358 . S
C95 H101 0.930 . S
C96 N94 1.400 . S
C96 C97 1.351 . S
C96 H113 0.930 . S
C97 N93 1.389 . S
C97 C96 1.351 . S
C97 H102 0.930 . S
O98 Cu92 1.974 . S
O98 C108 1.282 . S
C99 O100 1.261 . S
C99 O112 1.251 . S
O100 C99 1.261 . S
H101 C95 0.930 . S
H102 C97 0.930 . S
N103 Cu92 1.985 . S
N103 C105 1.335 . S
N103 C106 1.390 . S
N104 C105 1.345 . S
N104 C107 1.336 . S
C105 N103 1.335 . S
C105 N104 1.345 . S
C105 H110 0.930 . S
C106 N103 1.390 . S
C106 C107 1.346 . S
C106 H111 0.930 . S
C107 N104 1.336 . S
C107 C106 1.346 . S
C107 H114 0.929 . S
C108 O98 1.282 . S
C108 O109 1.216 . S
O109 C108 1.216 . S
H110 C105 0.930 . S
H111 C106 0.930 . S
O112 Cu92 1.959 . S
O112 C99 1.251 . S
H113 C96 0.930 . S
H114 C107 0.929 . S
Cu115 N116 1.999 . S
Cu115 O121 1.974 . S
Cu115 N126 1.985 . S
Cu115 O135 1.959 . S
N116 Cu115 1.999 . S
N116 C118 1.263 . S
N116 C120 1.389 . S
N117 C118 1.358 . S
N117 C119 1.400 . S
C118 N116 1.263 . S
C118 N117 1.358 . S
C118 H124 0.930 . S
C119 N117 1.400 . S
C119 C120 1.351 . S
C119 H136 0.930 . S
C120 N116 1.389 . S
C120 C119 1.351 . S
C120 H125 0.930 . S
O121 Cu115 1.974 . S
O121 C131 1.282 . S
C122 O123 1.261 . S
C122 O135 1.251 . S
O123 C122 1.261 . S
H124 C118 0.930 . S
H125 C120 0.930 . S
N126 Cu115 1.985 . S
N126 C128 1.335 . S
N126 C129 1.390 . S
N127 C128 1.345 . S
N127 C130 1.336 . S
C128 N126 1.335 . S
C128 N127 1.345 . S
C128 H133 0.930 . S
C129 N126 1.390 . S
C129 C130 1.346 . S
C129 H134 0.930 . S
C130 N127 1.336 . S
C130 C129 1.346 . S
C130 H137 0.929 . S
C131 O121 1.282 . S
C131 O132 1.216 . S
O132 C131 1.216 . S
H133 C128 0.930 . S
H134 C129 0.930 . S
O135 Cu115 1.959 . S
O135 C122 1.251 . S
H136 C119 0.930 . S
H137 C130 0.929 . S
Cu138 N139 1.999 . S
Cu138 O144 1.974 . S
Cu138 N149 1.985 . S
Cu138 O158 1.959 . S
N139 Cu138 1.999 . S
N139 C141 1.263 . S
N139 C143 1.389 . S
N140 C141 1.358 . S
N140 C142 1.400 . S
C141 N139 1.263 . S
C141 N140 1.358 . S
C141 H147 0.930 . S
C142 N140 1.400 . S
C142 C143 1.351 . S
C142 H159 0.930 . S
C143 N139 1.389 . S
C143 C142 1.351 . S
C143 H148 0.930 . S
O144 Cu138 1.974 . S
O144 C154 1.282 . S
C145 O146 1.261 . S
C145 O158 1.251 . S
O146 C145 1.261 . S
H147 C141 0.930 . S
H148 C143 0.930 . S
N149 Cu138 1.985 . S
N149 C151 1.335 . S
N149 C152 1.390 . S
N150 C151 1.345 . S
N150 C153 1.336 . S
C151 N149 1.335 . S
C151 N150 1.345 . S
C151 H156 0.930 . S
C152 N149 1.390 . S
C152 C153 1.346 . S
C152 H157 0.930 . S
C153 N150 1.336 . S
C153 C152 1.346 . S
C153 H160 0.929 . S
C154 O144 1.282 . S
C154 O155 1.216 . S
O155 C154 1.216 . S
H156 C151 0.930 . S
H157 C152 0.930 . S
O158 Cu138 1.959 . S
O158 C145 1.251 . S
H159 C142 0.930 . S
H160 C153 0.929 . S
Cu161 N162 1.999 . S
Cu161 O167 1.974 . S
Cu161 N172 1.985 . S
Cu161 O181 1.959 . S
N162 Cu161 1.999 . S
N162 C164 1.263 . S
N162 C166 1.389 . S
N163 C164 1.358 . S
N163 C165 1.400 . S
C164 N162 1.263 . S
C164 N163 1.358 . S
C164 H170 0.930 . S
C165 N163 1.400 . S
C165 C166 1.351 . S
C165 H182 0.930 . S
C166 N162 1.389 . S
C166 C165 1.351 . S
C166 H171 0.930 . S
O167 Cu161 1.974 . S
O167 C177 1.282 . S
C168 O169 1.261 . S
C168 O181 1.251 . S
O169 C168 1.261 . S
H170 C164 0.930 . S
H171 C166 0.930 . S
N172 Cu161 1.985 . S
N172 C174 1.335 . S
N172 C175 1.390 . S
N173 C174 1.345 . S
N173 C176 1.336 . S
C174 N172 1.335 . S
C174 N173 1.345 . S
C174 H179 0.930 . S
C175 N172 1.390 . S
C175 C176 1.346 . S
C175 H180 0.930 . S
C176 N173 1.336 . S
C176 C175 1.346 . S
C176 H183 0.929 . S
C177 O167 1.282 . S
C177 O178 1.216 . S
O178 C177 1.216 . S
H179 C174 0.930 . S
H180 C175 0.930 . S
O181 Cu161 1.959 . S
O181 C168 1.251 . S
H182 C165 0.930 . S
H183 C176 0.929 . S
Cu184 N185 1.999 . S
Cu184 O190 1.974 . S
Cu184 N195 1.985 . S
Cu184 O204 1.959 . S
N185 Cu184 1.999 . S
N185 C187 1.263 . S
N185 C189 1.389 . S
N186 C187 1.358 . S
N186 C188 1.400 . S
C187 N185 1.263 . S
C187 N186 1.358 . S
C187 H193 0.930 . S
C188 N186 1.400 . S
C188 C189 1.351 . S
C188 H205 0.930 . S
C189 N185 1.389 . S
C189 C188 1.351 . S
C189 H194 0.930 . S
O190 Cu184 1.974 . S
O190 C200 1.282 . S
C191 O192 1.261 . S
C191 O204 1.251 . S
O192 C191 1.261 . S
H193 C187 0.930 . S
H194 C189 0.930 . S
N195 Cu184 1.985 . S
N195 C197 1.335 . S
N195 C198 1.390 . S
N196 C197 1.345 . S
N196 C199 1.336 . S
C197 N195 1.335 . S
C197 N196 1.345 . S
C197 H202 0.930 . S
C198 N195 1.390 . S
C198 C199 1.346 . S
C198 H203 0.930 . S
C199 N196 1.336 . S
C199 C198 1.346 . S
C199 H206 0.929 . S
C200 O190 1.282 . S
C200 O201 1.216 . S
O201 C200 1.216 . S
H202 C197 0.930 . S
H203 C198 0.930 . S
O204 Cu184 1.959 . S
O204 C191 1.251 . S
H205 C188 0.930 . S
H206 C199 0.929 . S
Cu207 N208 1.999 . S
Cu207 O213 1.974 . S
Cu207 N218 1.985 . S
Cu207 O227 1.959 . S
N208 Cu207 1.999 . S
N208 C210 1.263 . S
N208 C212 1.389 . S
N209 C210 1.358 . S
N209 C211 1.400 . S
C210 N208 1.263 . S
C210 N209 1.358 . S
C210 H216 0.930 . S
C211 N209 1.400 . S
C211 C212 1.351 . S
C211 H228 0.930 . S
C212 N208 1.389 . S
C212 C211 1.351 . S
C212 H217 0.930 . S
O213 Cu207 1.974 . S
O213 C223 1.282 . S
C214 O215 1.261 . S
C214 O227 1.251 . S
O215 C214 1.261 . S
H216 C210 0.930 . S
H217 C212 0.930 . S
N218 Cu207 1.985 . S
N218 C220 1.335 . S
N218 C221 1.390 . S
N219 C220 1.345 . S
N219 C222 1.336 . S
C220 N218 1.335 . S
C220 N219 1.345 . S
C220 H225 0.930 . S
C221 N218 1.390 . S
C221 C222 1.346 . S
C221 H226 0.930 . S
C222 N219 1.336 . S
C222 C221 1.346 . S
C222 H229 0.929 . S
C223 O213 1.282 . S
C223 O224 1.216 . S
O224 C223 1.216 . S
H225 C220 0.930 . S
H226 C221 0.930 . S
O227 Cu207 1.959 . S
O227 C214 1.251 . S
H228 C211 0.930 . S
H229 C222 0.929 . S
Cu230 N231 1.999 . S
Cu230 O236 1.974 . S
Cu230 N241 1.985 . S
Cu230 O250 1.959 . S
N231 Cu230 1.999 . S
N231 C233 1.263 . S
N231 C235 1.389 . S
N232 C233 1.358 . S
N232 C234 1.400 . S
C233 N231 1.263 . S
C233 N232 1.358 . S
C233 H239 0.930 . S
C234 N232 1.400 . S
C234 C235 1.351 . S
C234 H251 0.930 . S
C235 N231 1.389 . S
C235 C234 1.351 . S
C235 H240 0.930 . S
O236 Cu230 1.974 . S
O236 C246 1.282 . S
C237 O238 1.261 . S
C237 O250 1.251 . S
O238 C237 1.261 . S
H239 C233 0.930 . S
H240 C235 0.930 . S
N241 Cu230 1.985 . S
N241 C243 1.335 . S
N241 C244 1.390 . S
N242 C243 1.345 . S
N242 C245 1.336 . S
C243 N241 1.335 . S
C243 N242 1.345 . S
C243 H248 0.930 . S
C244 N241 1.390 . S
C244 C245 1.346 . S
C244 H249 0.930 . S
C245 N242 1.336 . S
C245 C244 1.346 . S
C245 H252 0.929 . S
C246 O236 1.282 . S
C246 O247 1.216 . S
O247 C246 1.216 . S
H248 C243 0.930 . S
H249 C244 0.930 . S
O250 Cu230 1.959 . S
O250 C237 1.251 . S
H251 C234 0.930 . S
H252 C245 0.929 . S
Cu253 N254 1.999 . S
Cu253 O259 1.974 . S
Cu253 N264 1.985 . S
Cu253 O273 1.959 . S
N254 Cu253 1.999 . S
N254 C256 1.263 . S
N254 C258 1.389 . S
N255 C256 1.358 . S
N255 C257 1.400 . S
C256 N254 1.263 . S
C256 N255 1.358 . S
C256 H262 0.930 . S
C257 N255 1.400 . S
C257 C258 1.351 . S
C257 H274 0.930 . S
C258 N254 1.389 . S
C258 C257 1.351 . S
C258 H263 0.930 . S
O259 Cu253 1.974 . S
O259 C269 1.282 . S
C260 O261 1.261 . S
C260 O273 1.251 . S
O261 C260 1.261 . S
H262 C256 0.930 . S
H263 C258 0.930 . S
N264 Cu253 1.985 . S
N264 C266 1.335 . S
N264 C267 1.390 . S
N265 C266 1.345 . S
N265 C268 1.336 . S
C266 N264 1.335 . S
C266 N265 1.345 . S
C266 H271 0.930 . S
C267 N264 1.390 . S
C267 C268 1.346 . S
C267 H272 0.930 . S
C268 N265 1.336 . S
C268 C267 1.346 . S
C268 H275 0.929 . S
C269 O259 1.282 . S
C269 O270 1.216 . S
O270 C269 1.216 . S
H271 C266 0.930 . S
H272 C267 0.930 . S
O273 Cu253 1.959 . S
O273 C260 1.251 . S
H274 C257 0.930 . S
H275 C268 0.929 . S
Cu276 N277 1.999 . S
Cu276 O282 1.974 . S
Cu276 N287 1.985 . S
Cu276 O296 1.959 . S
N277 Cu276 1.999 . S
N277 C279 1.263 . S
N277 C281 1.389 . S
N278 C279 1.358 . S
N278 C280 1.400 . S
C279 N277 1.263 . S
C279 N278 1.358 . S
C279 H285 0.930 . S
C280 N278 1.400 . S
C280 C281 1.351 . S
C280 H297 0.930 . S
C281 N277 1.389 . S
C281 C280 1.351 . S
C281 H286 0.930 . S
O282 Cu276 1.974 . S
O282 C292 1.282 . S
C283 O284 1.261 . S
C283 O296 1.251 . S
O284 C283 1.261 . S
H285 C279 0.930 . S
H286 C281 0.930 . S
N287 Cu276 1.985 . S
N287 C289 1.335 . S
N287 C290 1.390 . S
N288 C289 1.345 . S
N288 C291 1.336 . S
C289 N287 1.335 . S
C289 N288 1.345 . S
C289 H294 0.930 . S
C290 N287 1.390 . S
C290 C291 1.346 . S
C290 H295 0.930 . S
C291 N288 1.336 . S
C291 C290 1.346 . S
C291 H298 0.929 . S
C292 O282 1.282 . S
C292 O293 1.216 . S
O293 C292 1.216 . S
H294 C289 0.930 . S
H295 C290 0.930 . S
O296 Cu276 1.959 . S
O296 C283 1.251 . S
H297 C280 0.930 . S
H298 C291 0.929 . S
Cu299 N300 1.999 . S
Cu299 O305 1.974 . S
Cu299 N310 1.985 . S
Cu299 O319 1.959 . S
N300 Cu299 1.999 . S
N300 C302 1.263 . S
N300 C304 1.389 . S
N301 C302 1.358 . S
N301 C303 1.400 . S
C302 N300 1.263 . S
C302 N301 1.358 . S
C302 H308 0.930 . S
C303 N301 1.400 . S
C303 C304 1.351 . S
C303 H320 0.930 . S
C304 N300 1.389 . S
C304 C303 1.351 . S
C304 H309 0.930 . S
O305 Cu299 1.974 . S
O305 C315 1.282 . S
C306 O307 1.261 . S
C306 O319 1.251 . S
O307 C306 1.261 . S
H308 C302 0.930 . S
H309 C304 0.930 . S
N310 Cu299 1.985 . S
N310 C312 1.335 . S
N310 C313 1.390 . S
N311 C312 1.345 . S
N311 C314 1.336 . S
C312 N310 1.335 . S
C312 N311 1.345 . S
C312 H317 0.930 . S
C313 N310 1.390 . S
C313 C314 1.346 . S
C313 H318 0.930 . S
C314 N311 1.336 . S
C314 C313 1.346 . S
C314 H321 0.929 . S
C315 O305 1.282 . S
C315 O316 1.216 . S
O316 C315 1.216 . S
H317 C312 0.930 . S
H318 C313 0.930 . S
O319 Cu299 1.959 . S
O319 C306 1.251 . S
H320 C303 0.930 . S
H321 C314 0.929 . S
Cu322 N323 1.999 . S
Cu322 O328 1.974 . S
Cu322 N333 1.985 . S
Cu322 O342 1.959 . S
N323 Cu322 1.999 . S
N323 C325 1.263 . S
N323 C327 1.389 . S
N324 C325 1.358 . S
N324 C326 1.400 . S
C325 N323 1.263 . S
C325 N324 1.358 . S
C325 H331 0.930 . S
C326 N324 1.400 . S
C326 C327 1.351 . S
C326 H343 0.930 . S
C327 N323 1.389 . S
C327 C326 1.351 . S
C327 H332 0.930 . S
O328 Cu322 1.974 . S
O328 C338 1.282 . S
C329 O330 1.261 . S
C329 O342 1.251 . S
O330 C329 1.261 . S
H331 C325 0.930 . S
H332 C327 0.930 . S
N333 Cu322 1.985 . S
N333 C335 1.335 . S
N333 C336 1.390 . S
N334 C335 1.345 . S
N334 C337 1.336 . S
C335 N333 1.335 . S
C335 N334 1.345 . S
C335 H340 0.930 . S
C336 N333 1.390 . S
C336 C337 1.346 . S
C336 H341 0.930 . S
C337 N334 1.336 . S
C337 C336 1.346 . S
C337 H344 0.929 . S
C338 O328 1.282 . S
C338 O339 1.216 . S
O339 C338 1.216 . S
H340 C335 0.930 . S
H341 C336 0.930 . S
O342 Cu322 1.959 . S
O342 C329 1.251 . S
H343 C326 0.930 . S
H344 C337 0.929 . S
Cu345 N346 1.999 . S
Cu345 O351 1.974 . S
Cu345 N356 1.985 . S
Cu345 O365 1.959 . S
N346 Cu345 1.999 . S
N346 C348 1.263 . S
N346 C350 1.389 . S
N347 C348 1.358 . S
N347 C349 1.400 . S
C348 N346 1.263 . S
C348 N347 1.358 . S
C348 H354 0.930 . S
C349 N347 1.400 . S
C349 C350 1.351 . S
C349 H366 0.930 . S
C350 N346 1.389 . S
C350 C349 1.351 . S
C350 H355 0.930 . S
O351 Cu345 1.974 . S
O351 C361 1.282 . S
C352 O353 1.261 . S
C352 O365 1.251 . S
O353 C352 1.261 . S
H354 C348 0.930 . S
H355 C350 0.930 . S
N356 Cu345 1.985 . S
N356 C358 1.335 . S
N356 C359 1.390 . S
N357 C358 1.345 . S
N357 C360 1.336 . S
C358 N356 1.335 . S
C358 N357 1.345 . S
C358 H363 0.930 . S
C359 N356 1.390 . S
C359 C360 1.346 . S
C359 H364 0.930 . S
C360 N357 1.336 . S
C360 C359 1.346 . S
C360 H367 0.929 . S
C361 O351 1.282 . S
C361 O362 1.216 . S
O362 C361 1.216 . S
H363 C358 0.930 . S
H364 C359 0.930 . S
O365 Cu345 1.959 . S
O365 C352 1.251 . S
H366 C349 0.930 . S
H367 C360 0.929 . S
Cu368 N369 1.999 . S
Cu368 O374 1.974 . S
Cu368 N379 1.985 . S
Cu368 O388 1.959 . S
N369 Cu368 1.999 . S
N369 C371 1.263 . S
N369 C373 1.389 . S
N370 C371 1.358 . S
N370 C372 1.400 . S
C371 N369 1.263 . S
C371 N370 1.358 . S
C371 H377 0.930 . S
C372 N370 1.400 . S
C372 C373 1.351 . S
C372 H389 0.930 . S
C373 N369 1.389 . S
C373 C372 1.351 . S
C373 H378 0.930 . S
O374 Cu368 1.974 . S
O374 C384 1.282 . S
C375 O376 1.261 . S
C375 O388 1.251 . S
O376 C375 1.261 . S
H377 C371 0.930 . S
H378 C373 0.930 . S
N379 Cu368 1.985 . S
N379 C381 1.335 . S
N379 C382 1.390 . S
N380 C381 1.345 . S
N380 C383 1.336 . S
C381 N379 1.335 . S
C381 N380 1.345 . S
C381 H386 0.930 . S
C382 N379 1.390 . S
C382 C383 1.346 . S
C382 H387 0.930 . S
C383 N380 1.336 . S
C383 C382 1.346 . S
C383 H390 0.929 . S
C384 O374 1.282 . S
C384 O385 1.216 . S
O385 C384 1.216 . S
H386 C381 0.930 . S
H387 C382 0.930 . S
O388 Cu368 1.959 . S
O388 C375 1.251 . S
H389 C372 0.930 . S
H390 C383 0.929 . S
Cu391 N392 1.999 . S
Cu391 O397 1.974 . S
Cu391 N402 1.985 . S
Cu391 O411 1.959 . S
N392 Cu391 1.999 . S
N392 C394 1.263 . S
N392 C396 1.389 . S
N393 C394 1.358 . S
N393 C395 1.400 . S
C394 N392 1.263 . S
C394 N393 1.358 . S
C394 H400 0.930 . S
C395 N393 1.400 . S
C395 C396 1.351 . S
C395 H412 0.930 . S
C396 N392 1.389 . S
C396 C395 1.351 . S
C396 H401 0.930 . S
O397 Cu391 1.974 . S
O397 C407 1.282 . S
C398 O399 1.261 . S
C398 O411 1.251 . S
O399 C398 1.261 . S
H400 C394 0.930 . S
H401 C396 0.930 . S
N402 Cu391 1.985 . S
N402 C404 1.335 . S
N402 C405 1.390 . S
N403 C404 1.345 . S
N403 C406 1.336 . S
C404 N402 1.335 . S
C404 N403 1.345 . S
C404 H409 0.930 . S
C405 N402 1.390 . S
C405 C406 1.346 . S
C405 H410 0.930 . S
C406 N403 1.336 . S
C406 C405 1.346 . S
C406 H413 0.929 . S
C407 O397 1.282 . S
C407 O408 1.216 . S
O408 C407 1.216 . S
H409 C404 0.930 . S
H410 C405 0.930 . S
O411 Cu391 1.959 . S
O411 C398 1.251 . S
H412 C395 0.930 . S
H413 C406 0.929 . S
Cu414 N415 1.999 . S
Cu414 O420 1.974 . S
Cu414 N425 1.985 . S
Cu414 O434 1.959 . S
N415 Cu414 1.999 . S
N415 C417 1.263 . S
N415 C419 1.389 . S
N416 C417 1.358 . S
N416 C418 1.400 . S
C417 N415 1.263 . S
C417 N416 1.358 . S
C417 H423 0.930 . S
C418 N416 1.400 . S
C418 C419 1.351 . S
C418 H435 0.930 . S
C419 N415 1.389 . S
C419 C418 1.351 . S
C419 H424 0.930 . S
O420 Cu414 1.974 . S
O420 C430 1.282 . S
C421 O422 1.261 . S
C421 O434 1.251 . S
O422 C421 1.261 . S
H423 C417 0.930 . S
H424 C419 0.930 . S
N425 Cu414 1.985 . S
N425 C427 1.335 . S
N425 C428 1.390 . S
N426 C427 1.345 . S
N426 C429 1.336 . S
C427 N425 1.335 . S
C427 N426 1.345 . S
C427 H432 0.930 . S
C428 N425 1.390 . S
C428 C429 1.346 . S
C428 H433 0.930 . S
C429 N426 1.336 . S
C429 C428 1.346 . S
C429 H436 0.929 . S
C430 O420 1.282 . S
C430 O431 1.216 . S
O431 C430 1.216 . S
H432 C427 0.930 . S
H433 C428 0.930 . S
O434 Cu414 1.959 . S
O434 C421 1.251 . S
H435 C418 0.930 . S
H436 C429 0.929 . S
Cu437 N438 1.999 . S
Cu437 O443 1.974 . S
Cu437 N448 1.985 . S
Cu437 O457 1.959 . S
N438 Cu437 1.999 . S
N438 C440 1.263 . S
N438 C442 1.389 . S
N439 C440 1.358 . S
N439 C441 1.400 . S
C440 N438 1.263 . S
C440 N439 1.358 . S
C440 H446 0.930 . S
C441 N439 1.400 . S
C441 C442 1.351 . S
C441 H458 0.930 . S
C442 N438 1.389 . S
C442 C441 1.351 . S
C442 H447 0.930 . S
O443 Cu437 1.974 . S
O443 C453 1.282 . S
C444 O445 1.261 . S
C444 O457 1.251 . S
O445 C444 1.261 . S
H446 C440 0.930 . S
H447 C442 0.930 . S
N448 Cu437 1.985 . S
N448 C450 1.335 . S
N448 C451 1.390 . S
N449 C450 1.345 . S
N449 C452 1.336 . S
C450 N448 1.335 . S
C450 N449 1.345 . S
C450 H455 0.930 . S
C451 N448 1.390 . S
C451 C452 1.346 . S
C451 H456 0.930 . S
C452 N449 1.336 . S
C452 C451 1.346 . S
C452 H459 0.929 . S
C453 O443 1.282 . S
C453 O454 1.216 . S
O454 C453 1.216 . S
H455 C450 0.930 . S
H456 C451 0.930 . S
O457 Cu437 1.959 . S
O457 C444 1.251 . S
H458 C441 0.930 . S
H459 C452 0.929 . S
Cu460 N461 1.999 . S
Cu460 O466 1.974 . S
Cu460 N471 1.985 . S
Cu460 O480 1.959 . S
N461 Cu460 1.999 . S
N461 C463 1.263 . S
N461 C465 1.389 . S
N462 C463 1.358 . S
N462 C464 1.400 . S
C463 N461 1.263 . S
C463 N462 1.358 . S
C463 H469 0.930 . S
C464 N462 1.400 . S
C464 C465 1.351 . S
C464 H481 0.930 . S
C465 N461 1.389 . S
C465 C464 1.351 . S
C465 H470 0.930 . S
O466 Cu460 1.974 . S
O466 C476 1.282 . S
C467 O468 1.261 . S
C467 O480 1.251 . S
O468 C467 1.261 . S
H469 C463 0.930 . S
H470 C465 0.930 . S
N471 Cu460 1.985 . S
N471 C473 1.335 . S
N471 C474 1.390 . S
N472 C473 1.345 . S
N472 C475 1.336 . S
C473 N471 1.335 . S
C473 N472 1.345 . S
C473 H478 0.930 . S
C474 N471 1.390 . S
C474 C475 1.346 . S
C474 H479 0.930 . S
C475 N472 1.336 . S
C475 C474 1.346 . S
C475 H482 0.929 . S
C476 O466 1.282 . S
C476 O477 1.216 . S
O477 C476 1.216 . S
H478 C473 0.930 . S
H479 C474 0.930 . S
O480 Cu460 1.959 . S
O480 C467 1.251 . S
H481 C464 0.930 . S
H482 C475 0.929 . S
Cu483 N484 1.999 . S
Cu483 O489 1.974 . S
Cu483 N494 1.985 . S
Cu483 O503 1.959 . S
N484 Cu483 1.999 . S
N484 C486 1.263 . S
N484 C488 1.389 . S
N485 C486 1.358 . S
N485 C487 1.400 . S
C486 N484 1.263 . S
C486 N485 1.358 . S
C486 H492 0.930 . S
C487 N485 1.400 . S
C487 C488 1.351 . S
C487 H504 0.930 . S
C488 N484 1.389 . S
C488 C487 1.351 . S
C488 H493 0.930 . S
O489 Cu483 1.974 . S
O489 C499 1.282 . S
C490 O491 1.261 . S
C490 O503 1.251 . S
O491 C490 1.261 . S
H492 C486 0.930 . S
H493 C488 0.930 . S
N494 Cu483 1.985 . S
N494 C496 1.335 . S
N494 C497 1.390 . S
N495 C496 1.345 . S
N495 C498 1.336 . S
C496 N494 1.335 . S
C496 N495 1.345 . S
C496 H501 0.930 . S
C497 N494 1.390 . S
C497 C498 1.346 . S
C497 H502 0.930 . S
C498 N495 1.336 . S
C498 C497 1.346 . S
C498 H505 0.929 . S
C499 O489 1.282 . S
C499 O500 1.216 . S
O500 C499 1.216 . S
H501 C496 0.930 . S
H502 C497 0.930 . S
O503 Cu483 1.959 . S
O503 C490 1.251 . S
H504 C487 0.930 . S
H505 C498 0.929 . S
Cu506 N507 1.999 . S
Cu506 O512 1.974 . S
Cu506 N517 1.985 . S
Cu506 O526 1.959 . S
N507 Cu506 1.999 . S
N507 C509 1.263 . S
N507 C511 1.389 . S
N508 C509 1.358 . S
N508 C510 1.400 . S
C509 N507 1.263 . S
C509 N508 1.358 . S
C509 H515 0.930 . S
C510 N508 1.400 . S
C510 C511 1.351 . S
C510 H527 0.930 . S
C511 N507 1.389 . S
C511 C510 1.351 . S
C511 H516 0.930 . S
O512 Cu506 1.974 . S
O512 C522 1.282 . S
C513 O514 1.261 . S
C513 O526 1.251 . S
O514 C513 1.261 . S
H515 C509 0.930 . S
H516 C511 0.930 . S
N517 Cu506 1.985 . S
N517 C519 1.335 . S
N517 C520 1.390 . S
N518 C519 1.345 . S
N518 C521 1.336 . S
C519 N517 1.335 . S
C519 N518 1.345 . S
C519 H524 0.930 . S
C520 N517 1.390 . S
C520 C521 1.346 . S
C520 H525 0.930 . S
C521 N518 1.336 . S
C521 C520 1.346 . S
C521 H528 0.929 . S
C522 O512 1.282 . S
C522 O523 1.216 . S
O523 C522 1.216 . S
H524 C519 0.930 . S
H525 C520 0.930 . S
O526 Cu506 1.959 . S
O526 C513 1.251 . S
H527 C510 0.930 . S
H528 C521 0.929 . S
Cu529 N530 1.999 . S
Cu529 O535 1.974 . S
Cu529 N540 1.985 . S
Cu529 O549 1.959 . S
N530 Cu529 1.999 . S
N530 C532 1.263 . S
N530 C534 1.389 . S
N531 C532 1.358 . S
N531 C533 1.400 . S
C532 N530 1.263 . S
C532 N531 1.358 . S
C532 H538 0.930 . S
C533 N531 1.400 . S
C533 C534 1.351 . S
C533 H550 0.930 . S
C534 N530 1.389 . S
C534 C533 1.351 . S
C534 H539 0.930 . S
O535 Cu529 1.974 . S
O535 C545 1.282 . S
C536 O537 1.261 . S
C536 O549 1.251 . S
O537 C536 1.261 . S
H538 C532 0.930 . S
H539 C534 0.930 . S
N540 Cu529 1.985 . S
N540 C542 1.335 . S
N540 C543 1.390 . S
N541 C542 1.345 . S
N541 C544 1.336 . S
C542 N540 1.335 . S
C542 N541 1.345 . S
C542 H547 0.930 . S
C543 N540 1.390 . S
C543 C544 1.346 . S
C543 H548 0.930 . S
C544 N541 1.336 . S
C544 C543 1.346 . S
C544 H551 0.929 . S
C545 O535 1.282 . S
C545 O546 1.216 . S
O546 C545 1.216 . S
H547 C542 0.930 . S
H548 C543 0.930 . S
O549 Cu529 1.959 . S
O549 C536 1.251 . S
H550 C533 0.930 . S
H551 C544 0.929 . S
H552 C558 0.930 . S
H553 C562 0.930 . S
H554 C567 0.929 . S
H555 C565 0.929 . S
H556 C560 0.929 . S
H557 C566 0.929 . S
C558 H552 0.930 . S
C558 C559 1.367 . S
C558 C566 1.378 . S
C559 C558 1.367 . S
C559 C567 1.433 . S
C560 H556 0.929 . S
C560 C562 1.378 . S
C560 C564 1.350 . S
C561 C564 1.463 . S
C561 C566 1.350 . S
C561 N569 1.427 . S
C562 H553 0.930 . S
C562 C560 1.378 . S
C562 C563 1.367 . S
C563 C562 1.367 . S
C563 C565 1.433 . S
C564 C560 1.350 . S
C564 C561 1.463 . S
C564 N568 1.427 . S
C565 H555 0.929 . S
C565 C563 1.433 . S
C565 N568 1.384 . S
C566 H557 0.929 . S
C566 C558 1.378 . S
C566 C561 1.350 . S
C567 H554 0.929 . S
C567 C559 1.433 . S
C567 N569 1.384 . S
N568 C564 1.427 . S
N568 C565 1.384 . S
N569 C561 1.427 . S
N569 C567 1.384 . S
H570 C576 0.930 . S
H571 C580 0.930 . S
H572 C585 0.929 . S
H573 C583 0.929 . S
H574 C578 0.929 . S
H575 C584 0.929 . S
C576 H570 0.930 . S
C576 C577 1.367 . S
C576 C584 1.378 . S
C577 C576 1.367 . S
C577 C585 1.433 . S
C578 H574 0.929 . S
C578 C580 1.378 . S
C578 C582 1.350 . S
C579 C582 1.463 . S
C579 C584 1.350 . S
C579 N587 1.427 . S
C580 H571 0.930 . S
C580 C578 1.378 . S
C580 C581 1.367 . S
C581 C580 1.367 . S
C581 C583 1.433 . S
C582 C578 1.350 . S
C582 C579 1.463 . S
C582 N586 1.427 . S
C583 H573 0.929 . S
C583 C581 1.433 . S
C583 N586 1.384 . S
C584 H575 0.929 . S
C584 C576 1.378 . S
C584 C579 1.350 . S
C585 H572 0.929 . S
C585 C577 1.433 . S
C585 N587 1.384 . S
N586 C582 1.427 . S
N586 C583 1.384 . S
N587 C579 1.427 . S
N587 C585 1.384 . S
H588 C594 0.930 . S
H589 C598 0.930 . S
H590 C603 0.929 . S
H591 C601 0.929 . S
H592 C596 0.929 . S
H593 C602 0.929 . S
C594 H588 0.930 . S
C594 C595 1.367 . S
C594 C602 1.378 . S
C595 C594 1.367 . S
C595 C603 1.433 . S
C596 H592 0.929 . S
C596 C598 1.378 . S
C596 C600 1.350 . S
C597 C600 1.463 . S
C597 C602 1.350 . S
C597 N605 1.427 . S
C598 H589 0.930 . S
C598 C596 1.378 . S
C598 C599 1.367 . S
C599 C598 1.367 . S
C599 C601 1.433 . S
C600 C596 1.350 . S
C600 C597 1.463 . S
C600 N604 1.427 . S
C601 H591 0.929 . S
C601 C599 1.433 . S
C601 N604 1.384 . S
C602 H593 0.929 . S
C602 C594 1.378 . S
C602 C597 1.350 . S
C603 H590 0.929 . S
C603 C595 1.433 . S
C603 N605 1.384 . S
N604 C600 1.427 . S
N604 C601 1.384 . S
N605 C597 1.427 . S
N605 C603 1.384 . S
H606 C612 0.930 . S
H607 C616 0.930 . S
H608 C621 0.929 . S
H609 C619 0.929 . S
H610 C614 0.929 . S
H611 C620 0.929 . S
C612 H606 0.930 . S
C612 C613 1.367 . S
C612 C620 1.378 . S
C613 C612 1.367 . S
C613 C621 1.433 . S
C614 H610 0.929 . S
C614 C616 1.378 . S
C614 C618 1.350 . S
C615 C618 1.463 . S
C615 C620 1.350 . S
C615 N623 1.427 . S
C616 H607 0.930 . S
C616 C614 1.378 . S
C616 C617 1.367 . S
C617 C616 1.367 . S
C617 C619 1.433 . S
C618 C614 1.350 . S
C618 C615 1.463 . S
C618 N622 1.427 . S
C619 H609 0.929 . S
C619 C617 1.433 . S
C619 N622 1.384 . S
C620 H611 0.929 . S
C620 C612 1.378 . S
C620 C615 1.350 . S
C621 H608 0.929 . S
C621 C613 1.433 . S
C621 N623 1.384 . S
N622 C618 1.427 . S
N622 C619 1.384 . S
N623 C615 1.427 . S
N623 C621 1.384 . S
H624 C630 0.930 . S
H625 C634 0.930 . S
H626 C639 0.929 . S
H627 C637 0.929 . S
H628 C632 0.929 . S
H629 C638 0.929 . S
C630 H624 0.930 . S
C630 C631 1.367 . S
C630 C638 1.378 . S
C631 C630 1.367 . S
C631 C639 1.433 . S
C632 H628 0.929 . S
C632 C634 1.378 . S
C632 C636 1.350 . S
C633 C636 1.463 . S
C633 C638 1.350 . S
C633 N641 1.427 . S
C634 H625 0.930 . S
C634 C632 1.378 . S
C634 C635 1.367 . S
C635 C634 1.367 . S
C635 C637 1.433 . S
C636 C632 1.350 . S
C636 C633 1.463 . S
C636 N640 1.427 . S
C637 H627 0.929 . S
C637 C635 1.433 . S
C637 N640 1.384 . S
C638 H629 0.929 . S
C638 C630 1.378 . S
C638 C633 1.350 . S
C639 H626 0.929 . S
C639 C631 1.433 . S
C639 N641 1.384 . S
N640 C636 1.427 . S
N640 C637 1.384 . S
N641 C633 1.427 . S
N641 C639 1.384 . S
H642 C648 0.930 . S
H643 C652 0.930 . S
H644 C657 0.929 . S
H645 C655 0.929 . S
H646 C650 0.929 . S
H647 C656 0.929 . S
C648 H642 0.930 . S
C648 C649 1.367 . S
C648 C656 1.378 . S
C649 C648 1.367 . S
C649 C657 1.433 . S
C650 H646 0.929 . S
C650 C652 1.378 . S
C650 C654 1.350 . S
C651 C654 1.463 . S
C651 C656 1.350 . S
C651 N659 1.427 . S
C652 H643 0.930 . S
C652 C650 1.378 . S
C652 C653 1.367 . S
C653 C652 1.367 . S
C653 C655 1.433 . S
C654 C650 1.350 . S
C654 C651 1.463 . S
C654 N658 1.427 . S
C655 H645 0.929 . S
C655 C653 1.433 . S
C655 N658 1.384 . S
C656 H647 0.929 . S
C656 C648 1.378 . S
C656 C651 1.350 . S
C657 H644 0.929 . S
C657 C649 1.433 . S
C657 N659 1.384 . S
N658 C654 1.427 . S
N658 C655 1.384 . S
N659 C651 1.427 . S
N659 C657 1.384 . S
H660 C666 0.930 . S
H661 C670 0.930 . S
H662 C675 0.929 . S
H663 C673 0.929 . S
H664 C668 0.929 . S
H665 C674 0.929 . S
C666 H660 0.930 . S
C666 C667 1.367 . S
C666 C674 1.378 . S
C667 C666 1.367 . S
C667 C675 1.433 . S
C668 H664 0.929 . S
C668 C670 1.378 . S
C668 C672 1.350 . S
C669 C672 1.463 . S
C669 C674 1.350 . S
C669 N677 1.427 . S
C670 H661 0.930 . S
C670 C668 1.378 . S
C670 C671 1.367 . S
C671 C670 1.367 . S
C671 C673 1.433 . S
C672 C668 1.350 . S
C672 C669 1.463 . S
C672 N676 1.427 . S
C673 H663 0.929 . S
C673 C671 1.433 . S
C673 N676 1.384 . S
C674 H665 0.929 . S
C674 C666 1.378 . S
C674 C669 1.350 . S
C675 H662 0.929 . S
C675 C667 1.433 . S
C675 N677 1.384 . S
N676 C672 1.427 . S
N676 C673 1.384 . S
N677 C669 1.427 . S
N677 C675 1.384 . S
H678 C684 0.930 . S
H679 C688 0.930 . S
H680 C693 0.929 . S
H681 C691 0.929 . S
H682 C686 0.929 . S
H683 C692 0.929 . S
C684 H678 0.930 . S
C684 C685 1.367 . S
C684 C692 1.378 . S
C685 C684 1.367 . S
C685 C693 1.433 . S
C686 H682 0.929 . S
C686 C688 1.378 . S
C686 C690 1.350 . S
C687 C690 1.463 . S
C687 C692 1.350 . S
C687 N695 1.427 . S
C688 H679 0.930 . S
C688 C686 1.378 . S
C688 C689 1.367 . S
C689 C688 1.367 . S
C689 C691 1.433 . S
C690 C686 1.350 . S
C690 C687 1.463 . S
C690 N694 1.427 . S
C691 H681 0.929 . S
C691 C689 1.433 . S
C691 N694 1.384 . S
C692 H683 0.929 . S
C692 C684 1.378 . S
C692 C687 1.350 . S
C693 H680 0.929 . S
C693 C685 1.433 . S
C693 N695 1.384 . S
N694 C690 1.427 . S
N694 C691 1.384 . S
N695 C687 1.427 . S
N695 C693 1.384 . S
H696 C702 0.930 . S
H697 C706 0.930 . S
H698 C711 0.929 . S
H699 C709 0.929 . S
H700 C704 0.929 . S
H701 C710 0.929 . S
C702 H696 0.930 . S
C702 C703 1.367 . S
C702 C710 1.378 . S
C703 C702 1.367 . S
C703 C711 1.433 . S
C704 H700 0.929 . S
C704 C706 1.378 . S
C704 C708 1.350 . S
C705 C708 1.463 . S
C705 C710 1.350 . S
C705 N713 1.427 . S
C706 H697 0.930 . S
C706 C704 1.378 . S
C706 C707 1.367 . S
C707 C706 1.367 . S
C707 C709 1.433 . S
C708 C704 1.350 . S
C708 C705 1.463 . S
C708 N712 1.427 . S
C709 H699 0.929 . S
C709 C707 1.433 . S
C709 N712 1.384 . S
C710 H701 0.929 . S
C710 C702 1.378 . S
C710 C705 1.350 . S
C711 H698 0.929 . S
C711 C703 1.433 . S
C711 N713 1.384 . S
N712 C708 1.427 . S
N712 C709 1.384 . S
N713 C705 1.427 . S
N713 C711 1.384 . S
H714 C720 0.930 . S
H715 C724 0.930 . S
H716 C729 0.929 . S
H717 C727 0.929 . S
H718 C722 0.929 . S
H719 C728 0.929 . S
C720 H714 0.930 . S
C720 C721 1.367 . S
C720 C728 1.378 . S
C721 C720 1.367 . S
C721 C729 1.433 . S
C722 H718 0.929 . S
C722 C724 1.378 . S
C722 C726 1.350 . S
C723 C726 1.463 . S
C723 C728 1.350 . S
C723 N731 1.427 . S
C724 H715 0.930 . S
C724 C722 1.378 . S
C724 C725 1.367 . S
C725 C724 1.367 . S
C725 C727 1.433 . S
C726 C722 1.350 . S
C726 C723 1.463 . S
C726 N730 1.427 . S
C727 H717 0.929 . S
C727 C725 1.433 . S
C727 N730 1.384 . S
C728 H719 0.929 . S
C728 C720 1.378 . S
C728 C723 1.350 . S
C729 H716 0.929 . S
C729 C721 1.433 . S
C729 N731 1.384 . S
N730 C726 1.427 . S
N730 C727 1.384 . S
N731 C723 1.427 . S
N731 C729 1.384 . S
H732 C738 0.930 . S
H733 C742 0.930 . S
H734 C747 0.929 . S
H735 C745 0.929 . S
H736 C740 0.929 . S
H737 C746 0.929 . S
C738 H732 0.930 . S
C738 C739 1.367 . S
C738 C746 1.378 . S
C739 C738 1.367 . S
C739 C747 1.433 . S
C740 H736 0.929 . S
C740 C742 1.378 . S
C740 C744 1.350 . S
C741 C744 1.463 . S
C741 C746 1.350 . S
C741 N749 1.427 . S
C742 H733 0.930 . S
C742 C740 1.378 . S
C742 C743 1.367 . S
C743 C742 1.367 . S
C743 C745 1.433 . S
C744 C740 1.350 . S
C744 C741 1.463 . S
C744 N748 1.427 . S
C745 H735 0.929 . S
C745 C743 1.433 . S
C745 N748 1.384 . S
C746 H737 0.929 . S
C746 C738 1.378 . S
C746 C741 1.350 . S
C747 H734 0.929 . S
C747 C739 1.433 . S
C747 N749 1.384 . S
N748 C744 1.427 . S
N748 C745 1.384 . S
N749 C741 1.427 . S
N749 C747 1.384 . S
H750 C756 0.930 . S
H751 C760 0.930 . S
H752 C765 0.929 . S
H753 C763 0.929 . S
H754 C758 0.929 . S
H755 C764 0.929 . S
C756 H750 0.930 . S
C756 C757 1.367 . S
C756 C764 1.378 . S
C757 C756 1.367 . S
C757 C765 1.433 . S
C758 H754 0.929 . S
C758 C760 1.378 . S
C758 C762 1.350 . S
C759 C762 1.463 . S
C759 C764 1.350 . S
C759 N767 1.427 . S
C760 H751 0.930 . S
C760 C758 1.378 . S
C760 C761 1.367 . S
C761 C760 1.367 . S
C761 C763 1.433 . S
C762 C758 1.350 . S
C762 C759 1.463 . S
C762 N766 1.427 . S
C763 H753 0.929 . S
C763 C761 1.433 . S
C763 N766 1.384 . S
C764 H755 0.929 . S
C764 C756 1.378 . S
C764 C759 1.350 . S
C765 H752 0.929 . S
C765 C757 1.433 . S
C765 N767 1.384 . S
N766 C762 1.427 . S
N766 C763 1.384 . S
N767 C759 1.427 . S
N767 C765 1.384 . S
H768 C774 0.930 . S
H769 C778 0.930 . S
H770 C783 0.929 . S
H771 C781 0.929 . S
H772 C776 0.929 . S
H773 C782 0.929 . S
C774 H768 0.930 . S
C774 C775 1.367 . S
C774 C782 1.378 1_565 S
C775 C774 1.367 . S
C775 C783 1.433 1_565 S
C776 H772 0.929 . S
C776 C778 1.378 . S
C776 C780 1.350 . S
C777 C780 1.463 . S
C777 C782 1.350 . S
C777 N785 1.427 . S
C778 H769 0.930 . S
C778 C776 1.378 . S
C778 C779 1.367 . S
C779 C778 1.367 . S
C779 C781 1.433 . S
C780 C776 1.350 . S
C780 C777 1.463 . S
C780 N784 1.427 . S
C781 H771 0.929 . S
C781 C779 1.433 . S
C781 N784 1.384 . S
C782 H773 0.929 . S
C782 C774 1.378 1_545 S
C782 C777 1.350 . S
C783 H770 0.929 . S
C783 C775 1.433 1_545 S
C783 N785 1.384 . S
N784 C780 1.427 . S
N784 C781 1.384 . S
N785 C777 1.427 . S
N785 C783 1.384 . S
H786 C792 0.930 . S
H787 C796 0.930 . S
H788 C801 0.929 . S
H789 C799 0.929 . S
H790 C794 0.929 . S
H791 C800 0.929 . S
C792 H786 0.930 . S
C792 C793 1.367 1_455 S
C792 C800 1.378 . S
C793 C792 1.367 1_655 S
C793 C801 1.433 . S
C794 H790 0.929 . S
C794 C796 1.378 . S
C794 C798 1.350 . S
C795 C798 1.463 . S
C795 C800 1.350 . S
C795 N803 1.413 1_455 S
C796 H787 0.930 . S
C796 C794 1.378 . S
C796 C797 1.367 . S
C797 C796 1.367 . S
C797 C799 1.433 . S
C798 C794 1.350 . S
C798 C795 1.463 . S
C798 N802 1.427 . S
C799 H789 0.929 . S
C799 C797 1.433 . S
C799 N802 1.384 . S
C800 H791 0.929 . S
C800 C792 1.378 . S
C800 C795 1.350 . S
C801 H788 0.929 . S
C801 C793 1.433 . S
C801 N803 1.396 . S
N802 C798 1.427 . S
N802 C799 1.384 . S
N803 C795 1.413 1_655 S
N803 C801 1.396 . S
H804 C810 0.930 . S
H805 C814 0.930 . S
H806 C819 0.933 . S
H807 C817 0.929 . S
H808 C812 0.929 . S
H809 C818 0.929 . S
C810 H804 0.930 . S
C810 C811 1.367 . S
C810 C818 1.378 . S
C811 C810 1.367 . S
C811 C819 1.433 . S
C812 H808 0.929 . S
C812 C814 1.378 . S
C812 C816 1.350 . S
C813 C816 1.463 . S
C813 C818 1.350 1_565 S
C813 N821 1.427 . S
C814 H805 0.930 . S
C814 C812 1.378 . S
C814 C815 1.367 . S
C815 C814 1.367 . S
C815 C817 1.433 . S
C816 C812 1.350 . S
C816 C813 1.463 . S
C816 N820 1.427 . S
C817 H807 0.929 . S
C817 C815 1.433 . S
C817 N820 1.384 . S
C818 H809 0.929 . S
C818 C810 1.378 . S
C818 C813 1.350 1_545 S
C819 H806 0.933 . S
C819 C811 1.433 . S
C819 N821 1.384 1_545 S
N820 C816 1.427 . S
N820 C817 1.384 . S
N821 C813 1.427 . S
N821 C819 1.384 1_565 S
H822 C828 0.930 . S
H823 C832 0.930 . S
H824 C837 0.929 . S
H825 C835 0.929 . S
H826 C830 0.929 . S
H827 C836 0.929 . S
C828 H822 0.930 . S
C828 C829 1.367 . S
C828 C836 1.378 1_455 S
C829 C828 1.367 . S
C829 C837 1.433 . S
C830 H826 0.929 . S
C830 C832 1.378 . S
C830 C834 1.350 . S
C831 C834 1.463 . S
C831 C836 1.350 . S
C831 N839 1.427 . S
C832 H823 0.930 . S
C832 C830 1.378 . S
C832 C833 1.367 . S
C833 C832 1.367 . S
C833 C835 1.433 . S
C834 C830 1.350 . S
C834 C831 1.463 . S
C834 N838 1.427 . S
C835 H825 0.929 . S
C835 C833 1.433 . S
C835 N838 1.384 . S
C836 H827 0.929 . S
C836 C828 1.378 1_655 S
C836 C831 1.350 . S
C837 H824 0.929 . S
C837 C829 1.433 . S
C837 N839 1.384 1_455 S
N838 C834 1.427 . S
N838 C835 1.384 . S
N839 C831 1.427 . S
N839 C837 1.384 1_655 S
H840 C846 0.930 . S
H841 C850 0.924 1_565 S
H842 C855 0.929 . S
H843 C853 0.929 . S
H844 C848 0.929 . S
H845 C854 0.929 . S
C846 H840 0.930 . S
C846 C847 1.367 . S
C846 C854 1.378 . S
C847 C846 1.367 . S
C847 C855 1.433 . S
C848 H844 0.929 . S
C848 C850 1.350 1_565 S
C848 C852 1.350 . S
C849 C852 1.463 . S
C849 C854 1.350 . S
C849 N857 1.427 . S
C850 H841 0.924 1_545 S
C850 C848 1.350 1_545 S
C850 C851 1.403 . S
C851 C850 1.403 . S
C851 C853 1.433 . S
C852 C848 1.350 . S
C852 C849 1.463 . S
C852 N856 1.427 1_565 S
C853 H843 0.929 . S
C853 C851 1.433 . S
C853 N856 1.384 . S
C854 H845 0.929 . S
C854 C846 1.378 . S
C854 C849 1.350 . S
C855 H842 0.929 . S
C855 C847 1.433 . S
C855 N857 1.384 . S
N856 C852 1.427 1_545 S
N856 C853 1.384 . S
N857 C849 1.427 . S
N857 C855 1.384 . S
H858 C864 0.930 . S
H859 C868 0.930 . S
H860 C873 0.929 . S
H861 C871 0.929 . S
H862 C866 0.929 . S
H863 C872 0.929 . S
C864 H858 0.930 . S
C864 C865 1.367 . S
C864 C872 1.378 . S
C865 C864 1.367 . S
C865 C873 1.433 . S
C866 H862 0.929 . S
C866 C868 1.378 1_655 S
C866 C870 1.350 . S
C867 C870 1.463 . S
C867 C872 1.350 . S
C867 N875 1.427 . S
C868 H859 0.930 . S
C868 C866 1.378 1_455 S
C868 C869 1.367 . S
C869 C868 1.367 . S
C869 C871 1.433 . S
C870 C866 1.350 . S
C870 C867 1.463 . S
C870 N874 1.427 . S
C871 H861 0.929 . S
C871 C869 1.433 . S
C871 N874 1.384 1_455 S
C872 H863 0.929 . S
C872 C864 1.378 . S
C872 C867 1.350 . S
C873 H860 0.929 . S
C873 C865 1.433 . S
C873 N875 1.384 . S
N874 C870 1.427 . S
N874 C871 1.384 1_655 S
N875 C867 1.427 . S
N875 C873 1.384 . S
H876 C882 0.930 . S
H877 C886 0.930 . S
H878 C891 0.929 . S
H879 C889 0.929 . S
H880 C884 0.929 . S
H881 C890 0.929 . S
C882 H876 0.930 . S
C882 C883 1.367 . S
C882 C890 1.378 . S
C883 C882 1.367 . S
C883 C891 1.433 . S
C884 H880 0.929 . S
C884 C886 1.378 . S
C884 C888 1.350 . S
C885 C888 1.463 1_565 S
C885 C890 1.350 . S
C885 N893 1.427 . S
C886 H877 0.930 . S
C886 C884 1.378 . S
C886 C887 1.367 . S
C887 C886 1.367 . S
C887 C889 1.433 . S
C888 C884 1.350 . S
C888 C885 1.463 1_545 S
C888 N892 1.427 . S
C889 H879 0.929 . S
C889 C887 1.433 . S
C889 N892 1.384 . S
C890 H881 0.929 . S
C890 C882 1.378 . S
C890 C885 1.350 . S
C891 H878 0.929 . S
C891 C883 1.433 . S
C891 N893 1.384 . S
N892 C888 1.427 . S
N892 C889 1.384 . S
N893 C885 1.427 . S
N893 C891 1.384 . S
H894 C900 0.930 . S
H895 C904 0.930 . S
H896 C909 0.929 . S
H897 C907 0.929 . S
H898 C902 0.929 . S
H899 C908 0.929 . S
C900 H894 0.930 . S
C900 C901 1.367 . S
C900 C908 1.378 . S
C901 C900 1.367 . S
C901 C909 1.433 . S
C902 H898 0.929 . S
C902 C904 1.378 . S
C902 C906 1.350 1_655 S
C903 C906 1.463 . S
C903 C908 1.350 . S
C903 N911 1.427 . S
C904 H895 0.930 . S
C904 C902 1.378 . S
C904 C905 1.367 . S
C905 C904 1.367 . S
C905 C907 1.433 1_655 S
C906 C902 1.350 1_455 S
C906 C903 1.463 . S
C906 N910 1.427 . S
C907 H897 0.929 . S
C907 C905 1.433 1_455 S
C907 N910 1.384 . S
C908 H899 0.929 . S
C908 C900 1.378 . S
C908 C903 1.350 . S
C909 H896 0.929 . S
C909 C901 1.433 . S
C909 N911 1.384 . S
N910 C906 1.427 . S
N910 C907 1.384 . S
N911 C903 1.427 . S
N911 C909 1.384 . S
H912 C918 0.930 . S
H913 C922 0.930 . S
H914 C927 0.929 1_554 S
H915 C925 0.929 . S
H916 C920 0.929 . S
H917 C926 0.929 . S
C918 H912 0.930 . S
C918 C919 1.367 . S
C918 C926 1.378 . S
C919 C918 1.367 . S
C919 C927 1.433 . S
C920 H916 0.929 . S
C920 C922 1.378 . S
C920 C924 1.350 . S
C921 C924 1.463 . S
C921 C926 1.350 1_554 S
C921 N929 1.427 . S
C922 H913 0.930 . S
C922 C920 1.378 . S
C922 C923 1.367 . S
C923 C922 1.367 . S
C923 C925 1.433 . S
C924 C920 1.350 . S
C924 C921 1.463 . S
C924 N928 1.427 . S
C925 H915 0.929 . S
C925 C923 1.433 . S
C925 N928 1.384 . S
C926 H917 0.929 . S
C926 C918 1.378 . S
C926 C921 1.350 1_556 S
C927 H914 0.929 1_556 S
C927 C919 1.433 . S
C927 N929 1.384 1_556 S
N928 C924 1.427 . S
N928 C925 1.384 . S
N929 C921 1.427 . S
N929 C927 1.384 1_554 S
H930 C936 0.930 1_554 S
H931 C940 0.930 . S
H932 C945 0.929 . S
H933 C943 0.929 . S
H934 C938 0.929 . S
H935 C944 0.929 . S
C936 H930 0.930 1_556 S
C936 C937 1.367 1_556 S
C936 C944 1.378 . S
C937 C936 1.367 1_554 S
C937 C945 1.433 . S
C938 H934 0.929 . S
C938 C940 1.378 . S
C938 C942 1.350 . S
C939 C942 1.463 . S
C939 C944 1.350 . S
C939 N947 1.427 . S
C940 H931 0.930 . S
C940 C938 1.378 . S
C940 C941 1.367 . S
C941 C940 1.367 . S
C941 C943 1.433 . S
C942 C938 1.350 . S
C942 C939 1.463 . S
C942 N946 1.427 . S
C943 H933 0.929 . S
C943 C941 1.433 . S
C943 N946 1.384 . S
C944 H935 0.929 . S
C944 C936 1.378 . S
C944 C939 1.350 . S
C945 H932 0.929 . S
C945 C937 1.433 . S
C945 N947 1.384 1_554 S
N946 C942 1.427 . S
N946 C943 1.384 . S
N947 C939 1.427 . S
N947 C945 1.384 1_556 S
H948 C954 0.930 . S
H949 C958 0.930 . S
H950 C963 0.929 . S
H951 C961 0.929 . S
H952 C956 0.929 . S
H953 C962 0.929 . S
C954 H948 0.930 . S
C954 C955 1.367 . S
C954 C962 1.378 1_556 S
C955 C954 1.367 . S
C955 C963 1.433 . S
C956 H952 0.929 . S
C956 C958 1.378 . S
C956 C960 1.350 . S
C957 C960 1.463 . S
C957 C962 1.350 . S
C957 N965 1.427 1_554 S
C958 H949 0.930 . S
C958 C956 1.378 . S
C958 C959 1.367 . S
C959 C958 1.367 . S
C959 C961 1.433 . S
C960 C956 1.350 . S
C960 C957 1.463 . S
C960 N964 1.427 . S
C961 H951 0.929 . S
C961 C959 1.433 . S
C961 N964 1.384 . S
C962 H953 0.929 . S
C962 C954 1.378 1_554 S
C962 C957 1.350 . S
C963 H950 0.929 . S
C963 C955 1.433 . S
C963 N965 1.384 . S
N964 C960 1.427 . S
N964 C961 1.384 . S
N965 C957 1.427 1_556 S
N965 C963 1.384 . S
H966 C972 0.930 . S
H967 C976 0.930 . S
H968 C981 0.929 . S
H969 C979 0.929 . S
H970 C974 0.929 . S
H971 C980 0.929 . S
C972 H966 0.930 . S
C972 C973 1.367 1_556 S
C972 C980 1.378 . S
C973 C972 1.367 1_554 S
C973 C981 1.433 . S
C974 H970 0.929 . S
C974 C976 1.378 . S
C974 C978 1.350 . S
C975 C978 1.463 . S
C975 C980 1.350 . S
C975 N983 1.426 . S
C976 H967 0.930 . S
C976 C974 1.378 . S
C976 C977 1.367 . S
C977 C976 1.367 . S
C977 C979 1.433 . S
C978 C974 1.350 . S
C978 C975 1.463 . S
C978 N982 1.427 . S
C979 H969 0.929 . S
C979 C977 1.433 . S
C979 N982 1.384 . S
C980 H971 0.929 . S
C980 C972 1.378 . S
C980 C975 1.350 . S
C981 H968 0.929 . S
C981 C973 1.433 . S
C981 N983 1.385 1_554 S
N982 C978 1.427 . S
N982 C979 1.384 . S
N983 C975 1.426 . S
N983 C981 1.385 1_556 S
H984 C990 0.930 . S
H985 C994 0.930 . S
H986 C999 0.929 . S
H987 C997 0.929 . S
H988 C992 0.929 . S
H989 C998 0.929 . S
C990 H984 0.930 . S
C990 C991 1.367 . S
C990 C998 1.378 . S
C991 C990 1.367 . S
C991 C999 1.433 . S
C992 H988 0.929 . S
C992 C994 1.378 . S
C992 C996 1.350 . S
C993 C996 1.463 . S
C993 C998 1.350 . S
C993 N1001 1.427 . S
C994 H985 0.930 . S
C994 C992 1.378 . S
C994 C995 1.367 . S
C995 C994 1.367 . S
C995 C997 1.433 . S
C996 C992 1.350 . S
C996 C993 1.463 . S
C996 N1000 1.427 . S
C997 H987 0.929 . S
C997 C995 1.433 . S
C997 N1000 1.384 . S
C998 H989 0.929 . S
C998 C990 1.378 . S
C998 C993 1.350 . S
C999 H986 0.929 . S
C999 C991 1.433 . S
C999 N1001 1.384 . S
N1000 C996 1.427 . S
N1000 C997 1.384 . S
N1001 C993 1.427 . S
N1001 C999 1.384 . S
H1002 C1008 0.930 . S
H1003 C1012 0.930 . S
H1004 C1017 0.929 . S
H1005 C1015 0.929 . S
H1006 C1010 0.929 . S
H1007 C1016 0.929 . S
C1008 H1002 0.930 . S
C1008 C1009 1.367 . S
C1008 C1016 1.378 . S
C1009 C1008 1.367 . S
C1009 C1017 1.433 . S
C1010 H1006 0.929 . S
C1010 C1012 1.378 . S
C1010 C1014 1.350 . S
C1011 C1014 1.463 . S
C1011 C1016 1.350 . S
C1011 N1019 1.427 . S
C1012 H1003 0.930 . S
C1012 C1010 1.378 . S
C1012 C1013 1.367 . S
C1013 C1012 1.367 . S
C1013 C1015 1.433 . S
C1014 C1010 1.350 . S
C1014 C1011 1.463 . S
C1014 N1018 1.427 . S
C1015 H1005 0.929 . S
C1015 C1013 1.433 . S
C1015 N1018 1.384 . S
C1016 H1007 0.929 . S
C1016 C1008 1.378 . S
C1016 C1011 1.350 . S
C1017 H1004 0.929 . S
C1017 C1009 1.433 . S
C1017 N1019 1.384 . S
N1018 C1014 1.427 . S
N1018 C1015 1.384 . S
N1019 C1011 1.427 . S
N1019 C1017 1.384 . S
H1020 C1026 0.930 . S
H1021 C1030 0.930 . S
H1022 C1035 0.929 . S
H1023 C1033 0.929 . S
H1024 C1028 0.929 . S
H1025 C1034 0.929 . S
C1026 H1020 0.930 . S
C1026 C1027 1.367 . S
C1026 C1034 1.378 . S
C1027 C1026 1.367 . S
C1027 C1035 1.433 . S
C1028 H1024 0.929 . S
C1028 C1030 1.378 . S
C1028 C1032 1.350 . S
C1029 C1032 1.463 . S
C1029 C1034 1.350 . S
C1029 N1037 1.427 . S
C1030 H1021 0.930 . S
C1030 C1028 1.378 . S
C1030 C1031 1.367 . S
C1031 C1030 1.367 . S
C1031 C1033 1.433 . S
C1032 C1028 1.350 . S
C1032 C1029 1.463 . S
C1032 N1036 1.427 . S
C1033 H1023 0.929 . S
C1033 C1031 1.433 . S
C1033 N1036 1.384 . S
C1034 H1025 0.929 . S
C1034 C1026 1.378 . S
C1034 C1029 1.350 . S
C1035 H1022 0.929 . S
C1035 C1027 1.433 . S
C1035 N1037 1.384 . S
N1036 C1032 1.427 . S
N1036 C1033 1.384 . S
N1037 C1029 1.427 . S
N1037 C1035 1.384 . S
H1038 C1044 0.930 . S
H1039 C1048 0.930 . S
H1040 C1053 0.929 . S
H1041 C1051 0.929 . S
H1042 C1046 0.929 . S
H1043 C1052 0.929 . S
C1044 H1038 0.930 . S
C1044 C1045 1.367 . S
C1044 C1052 1.378 . S
C1045 C1044 1.367 . S
C1045 C1053 1.433 . S
C1046 H1042 0.929 . S
C1046 C1048 1.378 . S
C1046 C1050 1.350 . S
C1047 C1050 1.463 . S
C1047 C1052 1.350 . S
C1047 N1055 1.427 . S
C1048 H1039 0.930 . S
C1048 C1046 1.378 . S
C1048 C1049 1.367 . S
C1049 C1048 1.367 . S
C1049 C1051 1.433 . S
C1050 C1046 1.350 . S
C1050 C1047 1.463 . S
C1050 N1054 1.427 . S
C1051 H1041 0.929 . S
C1051 C1049 1.433 . S
C1051 N1054 1.384 . S
C1052 H1043 0.929 . S
C1052 C1044 1.378 . S
C1052 C1047 1.350 . S
C1053 H1040 0.929 . S
C1053 C1045 1.433 . S
C1053 N1055 1.384 . S
N1054 C1050 1.427 . S
N1054 C1051 1.384 . S
N1055 C1047 1.427 . S
N1055 C1053 1.384 . S
H1056 C1062 0.930 . S
H1057 C1066 0.930 . S
H1058 C1071 0.929 . S
H1059 C1069 0.929 . S
H1060 C1064 0.929 . S
H1061 C1070 0.929 . S
C1062 H1056 0.930 . S
C1062 C1063 1.367 . S
C1062 C1070 1.378 . S
C1063 C1062 1.367 . S
C1063 C1071 1.433 . S
C1064 H1060 0.929 . S
C1064 C1066 1.378 . S
C1064 C1068 1.350 . S
C1065 C1068 1.463 . S
C1065 C1070 1.350 . S
C1065 N1073 1.427 . S
C1066 H1057 0.930 . S
C1066 C1064 1.378 . S
C1066 C1067 1.367 . S
C1067 C1066 1.367 . S
C1067 C1069 1.433 . S
C1068 C1064 1.350 . S
C1068 C1065 1.463 . S
C1068 N1072 1.427 . S
C1069 H1059 0.929 . S
C1069 C1067 1.433 . S
C1069 N1072 1.384 . S
C1070 H1061 0.929 . S
C1070 C1062 1.378 . S
C1070 C1065 1.350 . S
C1071 H1058 0.929 . S
C1071 C1063 1.433 . S
C1071 N1073 1.384 . S
N1072 C1068 1.427 . S
N1072 C1069 1.384 . S
N1073 C1065 1.427 . S
N1073 C1071 1.384 . S
H1074 C1080 0.930 . S
H1075 C1084 0.930 . S
H1076 C1089 0.929 . S
H1077 C1087 0.929 . S
H1078 C1082 0.929 . S
H1079 C1088 0.929 . S
C1080 H1074 0.930 . S
C1080 C1081 1.367 . S
C1080 C1088 1.378 . S
C1081 C1080 1.367 . S
C1081 C1089 1.433 . S
C1082 H1078 0.929 . S
C1082 C1084 1.378 . S
C1082 C1086 1.350 . S
C1083 C1086 1.463 . S
C1083 C1088 1.350 . S
C1083 N1091 1.427 . S
C1084 H1075 0.930 . S
C1084 C1082 1.378 . S
C1084 C1085 1.367 . S
C1085 C1084 1.367 . S
C1085 C1087 1.433 . S
C1086 C1082 1.350 . S
C1086 C1083 1.463 . S
C1086 N1090 1.427 . S
C1087 H1077 0.929 . S
C1087 C1085 1.433 . S
C1087 N1090 1.384 . S
C1088 H1079 0.929 . S
C1088 C1080 1.378 . S
C1088 C1083 1.350 . S
C1089 H1076 0.929 . S
C1089 C1081 1.433 . S
C1089 N1091 1.384 . S
N1090 C1086 1.427 . S
N1090 C1087 1.384 . S
N1091 C1083 1.427 . S
N1091 C1089 1.384 . S
H1092 C1098 0.930 . S
H1093 C1102 0.930 . S
H1094 C1107 0.929 . S
H1095 C1105 0.929 . S
H1096 C1100 0.929 . S
H1097 C1106 0.929 . S
C1098 H1092 0.930 . S
C1098 C1099 1.367 . S
C1098 C1106 1.378 . S
C1099 C1098 1.367 . S
C1099 C1107 1.433 . S
C1100 H1096 0.929 . S
C1100 C1102 1.378 . S
C1100 C1104 1.350 . S
C1101 C1104 1.463 . S
C1101 C1106 1.350 . S
C1101 N1109 1.427 . S
C1102 H1093 0.930 . S
C1102 C1100 1.378 . S
C1102 C1103 1.367 . S
C1103 C1102 1.367 . S
C1103 C1105 1.433 . S
C1104 C1100 1.350 . S
C1104 C1101 1.463 . S
C1104 N1108 1.427 . S
C1105 H1095 0.929 . S
C1105 C1103 1.433 . S
C1105 N1108 1.384 . S
C1106 H1097 0.929 . S
C1106 C1098 1.378 . S
C1106 C1101 1.350 . S
C1107 H1094 0.929 . S
C1107 C1099 1.433 . S
C1107 N1109 1.384 . S
N1108 C1104 1.427 . S
N1108 C1105 1.384 . S
N1109 C1101 1.427 . S
N1109 C1107 1.384 . S
H1110 C1116 0.930 . S
H1111 C1120 0.930 . S
H1112 C1125 0.929 . S
H1113 C1123 0.929 . S
H1114 C1118 0.929 . S
H1115 C1124 0.929 . S
C1116 H1110 0.930 . S
C1116 C1117 1.367 . S
C1116 C1124 1.378 . S
C1117 C1116 1.367 . S
C1117 C1125 1.433 . S
C1118 H1114 0.929 . S
C1118 C1120 1.378 . S
C1118 C1122 1.350 . S
C1119 C1122 1.463 . S
C1119 C1124 1.350 . S
C1119 N1127 1.427 . S
C1120 H1111 0.930 . S
C1120 C1118 1.378 . S
C1120 C1121 1.367 . S
C1121 C1120 1.367 . S
C1121 C1123 1.433 . S
C1122 C1118 1.350 . S
C1122 C1119 1.463 . S
C1122 N1126 1.427 . S
C1123 H1113 0.929 . S
C1123 C1121 1.433 . S
C1123 N1126 1.384 . S
C1124 H1115 0.929 . S
C1124 C1116 1.378 . S
C1124 C1119 1.350 . S
C1125 H1112 0.929 . S
C1125 C1117 1.433 . S
C1125 N1127 1.384 . S
N1126 C1122 1.427 . S
N1126 C1123 1.384 . S
N1127 C1119 1.427 . S
N1127 C1125 1.384 . S
H1128 C1134 0.930 . S
H1129 C1138 0.930 . S
H1130 C1143 0.929 . S
H1131 C1141 0.929 . S
H1132 C1136 0.929 . S
H1133 C1142 0.929 . S
C1134 H1128 0.930 . S
C1134 C1135 1.367 . S
C1134 C1142 1.378 . S
C1135 C1134 1.367 . S
C1135 C1143 1.433 . S
C1136 H1132 0.929 . S
C1136 C1138 1.378 . S
C1136 C1140 1.350 . S
C1137 C1140 1.463 . S
C1137 C1142 1.350 . S
C1137 N1145 1.427 . S
C1138 H1129 0.930 . S
C1138 C1136 1.378 . S
C1138 C1139 1.367 . S
C1139 C1138 1.367 . S
C1139 C1141 1.433 . S
C1140 C1136 1.350 . S
C1140 C1137 1.463 . S
C1140 N1144 1.427 . S
C1141 H1131 0.929 . S
C1141 C1139 1.433 . S
C1141 N1144 1.384 . S
C1142 H1133 0.929 . S
C1142 C1134 1.378 . S
C1142 C1137 1.350 . S
C1143 H1130 0.929 . S
C1143 C1135 1.433 . S
C1143 N1145 1.384 . S
N1144 C1140 1.427 . S
N1144 C1141 1.384 . S
N1145 C1137 1.427 . S
N1145 C1143 1.384 . S
H1146 C1152 0.930 . S
H1147 C1156 0.930 . S
H1148 C1161 0.929 . S
H1149 C1159 0.929 . S
H1150 C1154 0.929 . S
H1151 C1160 0.929 . S
C1152 H1146 0.930 . S
C1152 C1153 1.367 . S
C1152 C1160 1.378 . S
C1153 C1152 1.367 . S
C1153 C1161 1.433 . S
C1154 H1150 0.929 . S
C1154 C1156 1.378 . S
C1154 C1158 1.350 . S
C1155 C1158 1.463 . S
C1155 C1160 1.350 . S
C1155 N1163 1.427 . S
C1156 H1147 0.930 . S
C1156 C1154 1.378 . S
C1156 C1157 1.367 . S
C1157 C1156 1.367 . S
C1157 C1159 1.433 . S
C1158 C1154 1.350 . S
C1158 C1155 1.463 . S
C1158 N1162 1.427 . S
C1159 H1149 0.929 . S
C1159 C1157 1.433 . S
C1159 N1162 1.384 . S
C1160 H1151 0.929 . S
C1160 C1152 1.378 . S
C1160 C1155 1.350 . S
C1161 H1148 0.929 . S
C1161 C1153 1.433 . S
C1161 N1163 1.384 . S
N1162 C1158 1.427 . S
N1162 C1159 1.384 . S
N1163 C1155 1.427 . S
N1163 C1161 1.384 . S
H1164 C1170 0.930 . S
H1165 C1174 0.930 . S
H1166 C1179 0.929 . S
H1167 C1177 0.929 . S
H1168 C1172 0.929 . S
H1169 C1178 0.929 . S
C1170 H1164 0.930 . S
C1170 C1171 1.367 . S
C1170 C1178 1.378 . S
C1171 C1170 1.367 . S
C1171 C1179 1.433 . S
C1172 H1168 0.929 . S
C1172 C1174 1.378 . S
C1172 C1176 1.350 . S
C1173 C1176 1.463 . S
C1173 C1178 1.350 . S
C1173 N1181 1.427 . S
C1174 H1165 0.930 . S
C1174 C1172 1.378 . S
C1174 C1175 1.367 . S
C1175 C1174 1.367 . S
C1175 C1177 1.433 . S
C1176 C1172 1.350 . S
C1176 C1173 1.463 . S
C1176 N1180 1.427 . S
C1177 H1167 0.929 . S
C1177 C1175 1.433 . S
C1177 N1180 1.384 . S
C1178 H1169 0.929 . S
C1178 C1170 1.378 . S
C1178 C1173 1.350 . S
C1179 H1166 0.929 . S
C1179 C1171 1.433 . S
C1179 N1181 1.384 . S
N1180 C1176 1.427 . S
N1180 C1177 1.384 . S
N1181 C1173 1.427 . S
N1181 C1179 1.384 . S
H1182 C1188 0.930 . S
H1183 C1192 0.930 . S
H1184 C1197 0.929 . S
H1185 C1195 0.929 . S
H1186 C1190 0.929 . S
H1187 C1196 0.929 . S
C1188 H1182 0.930 . S
C1188 C1189 1.367 . S
C1188 C1196 1.378 . S
C1189 C1188 1.367 . S
C1189 C1197 1.433 . S
C1190 H1186 0.929 . S
C1190 C1192 1.378 . S
C1190 C1194 1.350 . S
C1191 C1194 1.463 . S
C1191 C1196 1.350 . S
C1191 N1199 1.427 . S
C1192 H1183 0.930 . S
C1192 C1190 1.378 . S
C1192 C1193 1.367 . S
C1193 C1192 1.367 . S
C1193 C1195 1.433 . S
C1194 C1190 1.350 . S
C1194 C1191 1.463 . S
C1194 N1198 1.427 . S
C1195 H1185 0.929 . S
C1195 C1193 1.433 . S
C1195 N1198 1.384 . S
C1196 H1187 0.929 . S
C1196 C1188 1.378 . S
C1196 C1191 1.350 . S
C1197 H1184 0.929 . S
C1197 C1189 1.433 . S
C1197 N1199 1.384 . S
N1198 C1194 1.427 . S
N1198 C1195 1.384 . S
N1199 C1191 1.427 . S
N1199 C1197 1.384 . S
H1200 C1206 0.930 . S
H1201 C1210 0.930 . S
H1202 C1215 0.929 . S
H1203 C1213 0.929 . S
H1204 C1208 0.929 . S
H1205 C1214 0.929 . S
C1206 H1200 0.930 . S
C1206 C1207 1.367 . S
C1206 C1214 1.378 . S
C1207 C1206 1.367 . S
C1207 C1215 1.433 . S
C1208 H1204 0.929 . S
C1208 C1210 1.378 . S
C1208 C1212 1.350 . S
C1209 C1212 1.463 . S
C1209 C1214 1.350 . S
C1209 N1217 1.427 . S
C1210 H1201 0.930 . S
C1210 C1208 1.378 . S
C1210 C1211 1.367 . S
C1211 C1210 1.367 . S
C1211 C1213 1.433 . S
C1212 C1208 1.350 . S
C1212 C1209 1.463 . S
C1212 N1216 1.427 . S
C1213 H1203 0.929 . S
C1213 C1211 1.433 . S
C1213 N1216 1.384 . S
C1214 H1205 0.929 . S
C1214 C1206 1.378 . S
C1214 C1209 1.350 . S
C1215 H1202 0.929 . S
C1215 C1207 1.433 . S
C1215 N1217 1.384 . S
N1216 C1212 1.427 . S
N1216 C1213 1.384 . S
N1217 C1209 1.427 . S
N1217 C1215 1.384 . S
H1218 C1224 0.930 . S
H1219 C1228 0.930 . S
H1220 C1233 0.929 . S
H1221 C1231 0.929 . S
H1222 C1226 0.929 . S
H1223 C1232 0.929 . S
C1224 H1218 0.930 . S
C1224 C1225 1.367 . S
C1224 C1232 1.378 . S
C1225 C1224 1.367 . S
C1225 C1233 1.433 . S
C1226 H1222 0.929 . S
C1226 C1228 1.378 . S
C1226 C1230 1.350 . S
C1227 C1230 1.463 . S
C1227 C1232 1.350 . S
C1227 N1235 1.427 . S
C1228 H1219 0.930 . S
C1228 C1226 1.378 . S
C1228 C1229 1.367 . S
C1229 C1228 1.367 . S
C1229 C1231 1.433 . S
C1230 C1226 1.350 . S
C1230 C1227 1.463 . S
C1230 N1234 1.427 . S
C1231 H1221 0.929 . S
C1231 C1229 1.433 . S
C1231 N1234 1.384 . S
C1232 H1223 0.929 . S
C1232 C1224 1.378 . S
C1232 C1227 1.350 . S
C1233 H1220 0.929 . S
C1233 C1225 1.433 . S
C1233 N1235 1.384 . S
N1234 C1230 1.427 . S
N1234 C1231 1.384 . S
N1235 C1227 1.427 . S
N1235 C1233 1.384 . S
H1236 C1242 0.930 . S
H1237 C1246 0.930 . S
H1238 C1251 0.929 . S
H1239 C1249 0.929 . S
H1240 C1244 0.929 . S
H1241 C1250 0.929 . S
C1242 H1236 0.930 . S
C1242 C1243 1.367 . S
C1242 C1250 1.378 . S
C1243 C1242 1.367 . S
C1243 C1251 1.433 . S
C1244 H1240 0.929 . S
C1244 C1246 1.378 . S
C1244 C1248 1.350 . S
C1245 C1248 1.463 . S
C1245 C1250 1.350 . S
C1245 N1253 1.427 . S
C1246 H1237 0.930 . S
C1246 C1244 1.378 . S
C1246 C1247 1.367 . S
C1247 C1246 1.367 . S
C1247 C1249 1.433 . S
C1248 C1244 1.350 . S
C1248 C1245 1.463 . S
C1248 N1252 1.427 . S
C1249 H1239 0.929 . S
C1249 C1247 1.433 . S
C1249 N1252 1.384 . S
C1250 H1241 0.929 . S
C1250 C1242 1.378 . S
C1250 C1245 1.350 . S
C1251 H1238 0.929 . S
C1251 C1243 1.433 . S
C1251 N1253 1.384 . S
N1252 C1248 1.427 . S
N1252 C1249 1.384 . S
N1253 C1245 1.427 . S
N1253 C1251 1.384 . S
H1254 C1260 0.930 . S
H1255 C1264 0.930 . S
H1256 C1269 0.929 . S
H1257 C1267 0.929 . S
H1258 C1262 0.929 . S
H1259 C1268 0.929 . S
C1260 H1254 0.930 . S
C1260 C1261 1.367 . S
C1260 C1268 1.378 . S
C1261 C1260 1.367 . S
C1261 C1269 1.433 . S
C1262 H1258 0.929 . S
C1262 C1264 1.378 . S
C1262 C1266 1.350 . S
C1263 C1266 1.463 . S
C1263 C1268 1.350 . S
C1263 N1271 1.427 . S
C1264 H1255 0.930 . S
C1264 C1262 1.378 . S
C1264 C1265 1.367 . S
C1265 C1264 1.367 . S
C1265 C1267 1.433 . S
C1266 C1262 1.350 . S
C1266 C1263 1.463 . S
C1266 N1270 1.427 . S
C1267 H1257 0.929 . S
C1267 C1265 1.433 . S
C1267 N1270 1.384 . S
C1268 H1259 0.929 . S
C1268 C1260 1.378 . S
C1268 C1263 1.350 . S
C1269 H1256 0.929 . S
C1269 C1261 1.433 . S
C1269 N1271 1.384 . S
N1270 C1266 1.427 . S
N1270 C1267 1.384 . S
N1271 C1263 1.427 . S
N1271 C1269 1.384 . S
H1272 C1278 0.930 . S
H1273 C1282 0.930 . S
H1274 C1287 0.929 . S
H1275 C1285 0.929 . S
H1276 C1280 0.929 . S
H1277 C1286 0.929 . S
C1278 H1272 0.930 . S
C1278 C1279 1.367 . S
C1278 C1286 1.378 . S
C1279 C1278 1.367 . S
C1279 C1287 1.433 . S
C1280 H1276 0.929 . S
C1280 C1282 1.378 . S
C1280 C1284 1.350 . S
C1281 C1284 1.463 . S
C1281 C1286 1.350 . S
C1281 N1289 1.427 . S
C1282 H1273 0.930 . S
C1282 C1280 1.378 . S
C1282 C1283 1.367 . S
C1283 C1282 1.367 . S
C1283 C1285 1.433 . S
C1284 C1280 1.350 . S
C1284 C1281 1.463 . S
C1284 N1288 1.427 . S
C1285 H1275 0.929 . S
C1285 C1283 1.433 . S
C1285 N1288 1.384 . S
C1286 H1277 0.929 . S
C1286 C1278 1.378 . S
C1286 C1281 1.350 . S
C1287 H1274 0.929 . S
C1287 C1279 1.433 . S
C1287 N1289 1.384 . S
N1288 C1284 1.427 . S
N1288 C1285 1.384 . S
N1289 C1281 1.427 . S
N1289 C1287 1.384 . S
H1290 C1296 0.930 . S
H1291 C1300 0.930 . S
H1292 C1305 0.929 . S
H1293 C1303 0.929 . S
H1294 C1298 0.929 . S
H1295 C1304 0.929 . S
C1296 H1290 0.930 . S
C1296 C1297 1.367 . S
C1296 C1304 1.378 . S
C1297 C1296 1.367 . S
C1297 C1305 1.433 . S
C1298 H1294 0.929 . S
C1298 C1300 1.378 . S
C1298 C1302 1.350 . S
C1299 C1302 1.463 . S
C1299 C1304 1.350 . S
C1299 N1307 1.427 . S
C1300 H1291 0.930 . S
C1300 C1298 1.378 . S
C1300 C1301 1.367 . S
C1301 C1300 1.367 . S
C1301 C1303 1.433 . S
C1302 C1298 1.350 . S
C1302 C1299 1.463 . S
C1302 N1306 1.427 . S
C1303 H1293 0.929 . S
C1303 C1301 1.433 . S
C1303 N1306 1.384 . S
C1304 H1295 0.929 . S
C1304 C1296 1.378 . S
C1304 C1299 1.350 . S
C1305 H1292 0.929 . S
C1305 C1297 1.433 . S
C1305 N1307 1.384 . S
N1306 C1302 1.427 . S
N1306 C1303 1.384 . S
N1307 C1299 1.427 . S
N1307 C1305 1.384 . S
H1308 C1314 0.930 . S
H1309 C1318 0.930 . S
H1310 C1323 0.929 . S
H1311 C1321 0.929 . S
H1312 C1316 0.929 . S
H1313 C1322 0.929 . S
C1314 H1308 0.930 . S
C1314 C1315 1.367 . S
C1314 C1322 1.378 . S
C1315 C1314 1.367 . S
C1315 C1323 1.433 . S
C1316 H1312 0.929 . S
C1316 C1318 1.378 . S
C1316 C1320 1.350 . S
C1317 C1320 1.463 . S
C1317 C1322 1.350 . S
C1317 N1325 1.427 . S
C1318 H1309 0.930 . S
C1318 C1316 1.378 . S
C1318 C1319 1.367 . S
C1319 C1318 1.367 . S
C1319 C1321 1.433 . S
C1320 C1316 1.350 . S
C1320 C1317 1.463 . S
C1320 N1324 1.427 . S
C1321 H1311 0.929 . S
C1321 C1319 1.433 . S
C1321 N1324 1.384 . S
C1322 H1313 0.929 . S
C1322 C1314 1.378 . S
C1322 C1317 1.350 . S
C1323 H1310 0.929 . S
C1323 C1315 1.433 . S
C1323 N1325 1.384 . S
N1324 C1320 1.427 . S
N1324 C1321 1.384 . S
N1325 C1317 1.427 . S
N1325 C1323 1.384 . S
H1326 C1332 0.930 . S
H1327 C1336 0.930 . S
H1328 C1341 0.929 . S
H1329 C1339 0.929 . S
H1330 C1334 0.929 . S
H1331 C1340 0.929 . S
C1332 H1326 0.930 . S
C1332 C1333 1.367 . S
C1332 C1340 1.378 . S
C1333 C1332 1.367 . S
C1333 C1341 1.433 . S
C1334 H1330 0.929 . S
C1334 C1336 1.378 . S
C1334 C1338 1.350 . S
C1335 C1338 1.463 . S
C1335 C1340 1.350 . S
C1335 N1343 1.427 . S
C1336 H1327 0.930 . S
C1336 C1334 1.378 . S
C1336 C1337 1.367 . S
C1337 C1336 1.367 . S
C1337 C1339 1.433 . S
C1338 C1334 1.350 . S
C1338 C1335 1.463 . S
C1338 N1342 1.427 . S
C1339 H1329 0.929 . S
C1339 C1337 1.433 . S
C1339 N1342 1.384 . S
C1340 H1331 0.929 . S
C1340 C1332 1.378 . S
C1340 C1335 1.350 . S
C1341 H1328 0.929 . S
C1341 C1333 1.433 . S
C1341 N1343 1.384 . S
N1342 C1338 1.427 . S
N1342 C1339 1.384 . S
N1343 C1335 1.427 . S
N1343 C1341 1.384 . S
H1344 C1350 0.930 . S
H1345 C1354 0.930 . S
H1346 C1359 0.929 . S
H1347 C1357 0.929 . S
H1348 C1352 0.929 . S
H1349 C1358 0.929 . S
C1350 H1344 0.930 . S
C1350 C1351 1.367 . S
C1350 C1358 1.378 . S
C1351 C1350 1.367 . S
C1351 C1359 1.433 . S
C1352 H1348 0.929 . S
C1352 C1354 1.378 . S
C1352 C1356 1.350 . S
C1353 C1356 1.463 . S
C1353 C1358 1.350 . S
C1353 N1361 1.427 . S
C1354 H1345 0.930 . S
C1354 C1352 1.378 . S
C1354 C1355 1.367 . S
C1355 C1354 1.367 . S
C1355 C1357 1.433 . S
C1356 C1352 1.350 . S
C1356 C1353 1.463 . S
C1356 N1360 1.427 . S
C1357 H1347 0.929 . S
C1357 C1355 1.433 . S
C1357 N1360 1.384 . S
C1358 H1349 0.929 . S
C1358 C1350 1.378 . S
C1358 C1353 1.350 . S
C1359 H1346 0.929 . S
C1359 C1351 1.433 . S
C1359 N1361 1.384 . S
N1360 C1356 1.427 . S
N1360 C1357 1.384 . S
N1361 C1353 1.427 . S
N1361 C1359 1.384 . S
H1362 C1368 0.930 . S
H1363 C1372 0.930 . S
H1364 C1377 0.929 . S
H1365 C1375 0.929 . S
H1366 C1370 0.929 . S
H1367 C1376 0.929 . S
C1368 H1362 0.930 . S
C1368 C1369 1.367 . S
C1368 C1376 1.378 . S
C1369 C1368 1.367 . S
C1369 C1377 1.433 . S
C1370 H1366 0.929 . S
C1370 C1372 1.378 . S
C1370 C1374 1.350 . S
C1371 C1374 1.463 . S
C1371 C1376 1.350 . S
C1371 N1379 1.427 . S
C1372 H1363 0.930 . S
C1372 C1370 1.378 . S
C1372 C1373 1.367 . S
C1373 C1372 1.367 . S
C1373 C1375 1.433 . S
C1374 C1370 1.350 . S
C1374 C1371 1.463 . S
C1374 N1378 1.427 . S
C1375 H1365 0.929 . S
C1375 C1373 1.433 . S
C1375 N1378 1.384 . S
C1376 H1367 0.929 . S
C1376 C1368 1.378 . S
C1376 C1371 1.350 . S
C1377 H1364 0.929 . S
C1377 C1369 1.433 . S
C1377 N1379 1.384 . S
N1378 C1374 1.427 . S
N1378 C1375 1.384 . S
N1379 C1371 1.427 . S
N1379 C1377 1.384 . S
H1380 C1386 0.930 . S
H1381 C1390 0.930 . S
H1382 C1395 0.929 . S
H1383 C1393 0.929 . S
H1384 C1388 0.929 . S
H1385 C1394 0.929 . S
C1386 H1380 0.930 . S
C1386 C1387 1.367 . S
C1386 C1394 1.378 . S
C1387 C1386 1.367 . S
C1387 C1395 1.433 . S
C1388 H1384 0.929 . S
C1388 C1390 1.378 . S
C1388 C1392 1.350 . S
C1389 C1392 1.463 . S
C1389 C1394 1.350 . S
C1389 N1397 1.427 . S
C1390 H1381 0.930 . S
C1390 C1388 1.378 . S
C1390 C1391 1.367 . S
C1391 C1390 1.367 . S
C1391 C1393 1.433 . S
C1392 C1388 1.350 . S
C1392 C1389 1.463 . S
C1392 N1396 1.427 . S
C1393 H1383 0.929 . S
C1393 C1391 1.433 . S
C1393 N1396 1.384 . S
C1394 H1385 0.929 . S
C1394 C1386 1.378 . S
C1394 C1389 1.350 . S
C1395 H1382 0.929 . S
C1395 C1387 1.433 . S
C1395 N1397 1.384 . S
N1396 C1392 1.427 . S
N1396 C1393 1.384 . S
N1397 C1389 1.427 . S
N1397 C1395 1.384 . S
H1398 C1404 0.930 . S
H1399 C1408 0.930 . S
H1400 C1413 0.929 . S
H1401 C1411 0.929 . S
H1402 C1406 0.929 . S
H1403 C1412 0.929 . S
C1404 H1398 0.930 . S
C1404 C1405 1.367 . S
C1404 C1412 1.378 . S
C1405 C1404 1.367 . S
C1405 C1413 1.433 . S
C1406 H1402 0.929 . S
C1406 C1408 1.378 . S
C1406 C1410 1.350 . S
C1407 C1410 1.463 . S
C1407 C1412 1.350 . S
C1407 N1415 1.427 . S
C1408 H1399 0.930 . S
C1408 C1406 1.378 . S
C1408 C1409 1.367 . S
C1409 C1408 1.367 . S
C1409 C1411 1.433 . S
C1410 C1406 1.350 . S
C1410 C1407 1.463 . S
C1410 N1414 1.427 . S
C1411 H1401 0.929 . S
C1411 C1409 1.433 . S
C1411 N1414 1.384 . S
C1412 H1403 0.929 . S
C1412 C1404 1.378 . S
C1412 C1407 1.350 . S
C1413 H1400 0.929 . S
C1413 C1405 1.433 . S
C1413 N1415 1.384 . S
N1414 C1410 1.427 . S
N1414 C1411 1.384 . S
N1415 C1407 1.427 . S
N1415 C1413 1.384 . S
C559 C522 1.961 . S
C563 N12 2.065 . S
C577 C39 2.094 . S
C581 N380 2.180 . S
C595 C545 1.866 . S
C599 N58 1.976 . S
C613 N495 2.108 . S
C617 N81 2.099 . S
C631 N426 2.190 . S
C635 N104 2.195 . S
C649 C453 2.142 . S
C653 N127 2.103 . S
C667 N472 2.242 . S
C671 C154 2.284 . S
C685 C177 2.038 . S
C689 C407 2.173 . S
C703 C315 2.284 . S
C707 C200 2.397 . S
C721 N334 1.978 . S
C725 N219 1.989 . S
C739 C246 2.394 . S
C743 C361 2.282 . S
C757 N265 2.034 . S
C761 N288 2.028 . S
C775 N173 2.165 . S
C779 C338 2.053 . S
C793 N357 2.207 . S
C797 C108 2.118 . S
C811 C131 2.101 . S
C815 C292 1.946 . S
C829 N311 2.086 . S
C833 N150 2.080 . S
C847 N242 2.121 . S
C851 N35 2.126 . S
C865 C62 1.942 . S
C869 C269 2.098 . S
C883 C85 2.216 . S
C887 N196 2.183 . S
C901 C16 2.011 . S
C905 C223 2.155 . S
C919 C476 2.356 . S
C923 C499 2.252 . S
C937 N518 1.958 . S
C941 N403 1.960 . S
C955 C430 2.433 . S
C959 C384 2.304 . S
C973 N541 1.939 . S
C977 N449 1.946 . S
C991 N2 1.038 . S
C995 N186 1.028 . S
C1009 C214 1.608 . S
C1013 C30 1.621 . S
C1027 N48 1.032 . S
C1031 N232 1.015 . S
C1045 N71 1.210 . S
C1049 C260 1.325 . S
C1063 N94 1.299 . S
C1067 C283 1.395 . S
C1081 N117 1.080 . S
C1085 N301 1.112 . S
C1099 C329 1.648 . S
C1103 C145 1.663 . S
C1117 N347 1.349 . S
C1121 C168 1.426 . S
C1135 C191 1.772 . S
C1139 C375 1.789 . S
C1153 N209 1.001 . S
C1157 N531 0.994 . S
C1171 C490 1.769 . S
C1175 C237 1.732 . S
C1189 N508 1.056 . S
C1193 N255 1.039 . S
C1207 N393 1.039 . S
C1211 N278 1.064 . S
C1225 C421 1.772 . S
C1229 C306 1.776 . S
C1243 N324 1.048 . S
C1247 N439 1.016 . S
C1261 C352 1.740 . S
C1265 C467 1.733 . S
C1279 C7 1.452 . S
C1283 N370 1.349 . S
C1297 C398 1.607 . S
C1301 C99 1.614 . S
C1315 N416 1.196 . S
C1319 C122 1.335 . S
C1333 C444 1.314 . S
C1337 N140 1.192 . S
C1351 N462 1.117 . S
C1355 N163 1.120 . S
C1369 N485 1.326 . S
C1373 C53 1.438 . S
C1387 C76 1.624 . S
C1391 C513 1.630 . S
C1405 C536 1.424 . S
C1409 N25 1.332 . S
