# Generated by pormake.
# Topology yft, (5)-cn, num edge types: 1
# Building blocks:
#     Node 0, Type 0, BuildingBlock: BEQFEK_clean_sbu_0, # of connection points: 5
#     Node 1, Type 0, BuildingBlock: BEQFEK_clean_sbu_0, # of connection points: 5
#     Node 2, Type 0, BuildingBlock: BEQFEK_clean_sbu_0, # of connection points: 5
#     Node 3, Type 0, BuildingBlock: BEQFEK_clean_sbu_0, # of connection points: 5
#     Node 4, Type 0, BuildingBlock: BEQFEK_clean_sbu_0, # of connection points: 5
#     Node 5, Type 0, BuildingBlock: BEQFEK_clean_sbu_0, # of connection points: 5
#     Node 6, Type 0, BuildingBlock: BEQFEK_clean_sbu_0, # of connection points: 5
#     Node 7, Type 0, BuildingBlock: BEQFEK_clean_sbu_0, # of connection points: 5
#     Node 8, Type 0, BuildingBlock: BEQFEK_clean_sbu_0, # of connection points: 5
#     Node 9, Type 0, BuildingBlock: BEQFEK_clean_sbu_0, # of connection points: 5
#     Node 10, Type 0, BuildingBlock: BEQFEK_clean_sbu_0, # of connection points: 5
#     Node 11, Type 0, BuildingBlock: BEQFEK_clean_sbu_0, # of connection points: 5
#     Node 12, Type 0, BuildingBlock: BEQFEK_clean_sbu_0, # of connection points: 5
#     Node 13, Type 0, BuildingBlock: BEQFEK_clean_sbu_0, # of connection points: 5
#     Node 14, Type 0, BuildingBlock: BEQFEK_clean_sbu_0, # of connection points: 5
#     Node 15, Type 0, BuildingBlock: BEQFEK_clean_sbu_0, # of connection points: 5
#     Node 16, Type 0, BuildingBlock: BEQFEK_clean_sbu_0, # of connection points: 5
#     Node 17, Type 0, BuildingBlock: BEQFEK_clean_sbu_0, # of connection points: 5
#     Node 18, Type 0, BuildingBlock: BEQFEK_clean_sbu_0, # of connection points: 5
#     Node 19, Type 0, BuildingBlock: BEQFEK_clean_sbu_0, # of connection points: 5
#     Node 20, Type 0, BuildingBlock: BEQFEK_clean_sbu_0, # of connection points: 5
#     Node 21, Type 0, BuildingBlock: BEQFEK_clean_sbu_0, # of connection points: 5
#     Node 22, Type 0, BuildingBlock: BEQFEK_clean_sbu_0, # of connection points: 5
#     Node 23, Type 0, BuildingBlock: BEQFEK_clean_sbu_0, # of connection points: 5
#     Node 24, Type 0, BuildingBlock: BEQFEK_clean_sbu_0, # of connection points: 5
#     Node 25, Type 0, BuildingBlock: BEQFEK_clean_sbu_0, # of connection points: 5
#     Node 26, Type 0, BuildingBlock: BEQFEK_clean_sbu_0, # of connection points: 5
#     Node 27, Type 0, BuildingBlock: BEQFEK_clean_sbu_0, # of connection points: 5
#     Node 28, Type 0, BuildingBlock: BEQFEK_clean_sbu_0, # of connection points: 5
#     Node 29, Type 0, BuildingBlock: BEQFEK_clean_sbu_0, # of connection points: 5
#     Node 30, Type 0, BuildingBlock: BEQFEK_clean_sbu_0, # of connection points: 5
#     Node 31, Type 0, BuildingBlock: BEQFEK_clean_sbu_0, # of connection points: 5
#     Edge 32, Type (0, 0), BuildingBlock: CIFDUS_clean_linker_0, # of connection points: 2
#     Edge 33, Type (0, 0), BuildingBlock: CIFDUS_clean_linker_0, # of connection points: 2
#     Edge 34, Type (0, 0), BuildingBlock: CIFDUS_clean_linker_0, # of connection points: 2
#     Edge 35, Type (0, 0), BuildingBlock: CIFDUS_clean_linker_0, # of connection points: 2
#     Edge 36, Type (0, 0), BuildingBlock: CIFDUS_clean_linker_0, # of connection points: 2
#     Edge 37, Type (0, 0), BuildingBlock: CIFDUS_clean_linker_0, # of connection points: 2
#     Edge 38, Type (0, 0), BuildingBlock: CIFDUS_clean_linker_0, # of connection points: 2
#     Edge 39, Type (0, 0), BuildingBlock: CIFDUS_clean_linker_0, # of connection points: 2
#     Edge 40, Type (0, 0), BuildingBlock: CIFDUS_clean_linker_0, # of connection points: 2
#     Edge 41, Type (0, 0), BuildingBlock: CIFDUS_clean_linker_0, # of connection points: 2
#     Edge 42, Type (0, 0), BuildingBlock: CIFDUS_clean_linker_0, # of connection points: 2
#     Edge 43, Type (0, 0), BuildingBlock: CIFDUS_clean_linker_0, # of connection points: 2
#     Edge 44, Type (0, 0), BuildingBlock: CIFDUS_clean_linker_0, # of connection points: 2
#     Edge 45, Type (0, 0), BuildingBlock: CIFDUS_clean_linker_0, # of connection points: 2
#     Edge 46, Type (0, 0), BuildingBlock: CIFDUS_clean_linker_0, # of connection points: 2
#     Edge 47, Type (0, 0), BuildingBlock: CIFDUS_clean_linker_0, # of connection points: 2
#     Edge 48, Type (0, 0), BuildingBlock: CIFDUS_clean_linker_0, # of connection points: 2
#     Edge 49, Type (0, 0), BuildingBlock: CIFDUS_clean_linker_0, # of connection points: 2
#     Edge 50, Type (0, 0), BuildingBlock: CIFDUS_clean_linker_0, # of connection points: 2
#     Edge 51, Type (0, 0), BuildingBlock: CIFDUS_clean_linker_0, # of connection points: 2
#     Edge 52, Type (0, 0), BuildingBlock: CIFDUS_clean_linker_0, # of connection points: 2
#     Edge 53, Type (0, 0), BuildingBlock: CIFDUS_clean_linker_0, # of connection points: 2
#     Edge 54, Type (0, 0), BuildingBlock: CIFDUS_clean_linker_0, # of connection points: 2
#     Edge 55, Type (0, 0), BuildingBlock: CIFDUS_clean_linker_0, # of connection points: 2
#     Edge 56, Type (0, 0), BuildingBlock: CIFDUS_clean_linker_0, # of connection points: 2
#     Edge 57, Type (0, 0), BuildingBlock: CIFDUS_clean_linker_0, # of connection points: 2
#     Edge 58, Type (0, 0), BuildingBlock: CIFDUS_clean_linker_0, # of connection points: 2
#     Edge 59, Type (0, 0), BuildingBlock: CIFDUS_clean_linker_0, # of connection points: 2
#     Edge 60, Type (0, 0), BuildingBlock: CIFDUS_clean_linker_0, # of connection points: 2
#     Edge 61, Type (0, 0), BuildingBlock: CIFDUS_clean_linker_0, # of connection points: 2
#     Edge 62, Type (0, 0), BuildingBlock: CIFDUS_clean_linker_0, # of connection points: 2
#     Edge 63, Type (0, 0), BuildingBlock: CIFDUS_clean_linker_0, # of connection points: 2
#     Edge 64, Type (0, 0), BuildingBlock: CIFDUS_clean_linker_0, # of connection points: 2
#     Edge 65, Type (0, 0), BuildingBlock: CIFDUS_clean_linker_0, # of connection points: 2
#     Edge 66, Type (0, 0), BuildingBlock: CIFDUS_clean_linker_0, # of connection points: 2
#     Edge 67, Type (0, 0), BuildingBlock: CIFDUS_clean_linker_0, # of connection points: 2
#     Edge 68, Type (0, 0), BuildingBlock: CIFDUS_clean_linker_0, # of connection points: 2
#     Edge 69, Type (0, 0), BuildingBlock: CIFDUS_clean_linker_0, # of connection points: 2
#     Edge 70, Type (0, 0), BuildingBlock: CIFDUS_clean_linker_0, # of connection points: 2
#     Edge 71, Type (0, 0), BuildingBlock: CIFDUS_clean_linker_0, # of connection points: 2
#     Edge 72, Type (0, 0), BuildingBlock: CIFDUS_clean_linker_0, # of connection points: 2
#     Edge 73, Type (0, 0), BuildingBlock: CIFDUS_clean_linker_0, # of connection points: 2
#     Edge 74, Type (0, 0), BuildingBlock: CIFDUS_clean_linker_0, # of connection points: 2
#     Edge 75, Type (0, 0), BuildingBlock: CIFDUS_clean_linker_0, # of connection points: 2
#     Edge 76, Type (0, 0), BuildingBlock: CIFDUS_clean_linker_0, # of connection points: 2
#     Edge 77, Type (0, 0), BuildingBlock: CIFDUS_clean_linker_0, # of connection points: 2
#     Edge 78, Type (0, 0), BuildingBlock: CIFDUS_clean_linker_0, # of connection points: 2
#     Edge 79, Type (0, 0), BuildingBlock: CIFDUS_clean_linker_0, # of connection points: 2
#     Edge 80, Type (0, 0), BuildingBlock: CIFDUS_clean_linker_0, # of connection points: 2
#     Edge 81, Type (0, 0), BuildingBlock: CIFDUS_clean_linker_0, # of connection points: 2
#     Edge 82, Type (0, 0), BuildingBlock: CIFDUS_clean_linker_0, # of connection points: 2
#     Edge 83, Type (0, 0), BuildingBlock: CIFDUS_clean_linker_0, # of connection points: 2
#     Edge 84, Type (0, 0), BuildingBlock: CIFDUS_clean_linker_0, # of connection points: 2
#     Edge 85, Type (0, 0), BuildingBlock: CIFDUS_clean_linker_0, # of connection points: 2
#     Edge 86, Type (0, 0), BuildingBlock: CIFDUS_clean_linker_0, # of connection points: 2
#     Edge 87, Type (0, 0), BuildingBlock: CIFDUS_clean_linker_0, # of connection points: 2
#     Edge 88, Type (0, 0), BuildingBlock: CIFDUS_clean_linker_0, # of connection points: 2
#     Edge 89, Type (0, 0), BuildingBlock: CIFDUS_clean_linker_0, # of connection points: 2
#     Edge 90, Type (0, 0), BuildingBlock: CIFDUS_clean_linker_0, # of connection points: 2
#     Edge 91, Type (0, 0), BuildingBlock: CIFDUS_clean_linker_0, # of connection points: 2
#     Edge 92, Type (0, 0), BuildingBlock: CIFDUS_clean_linker_0, # of connection points: 2
#     Edge 93, Type (0, 0), BuildingBlock: CIFDUS_clean_linker_0, # of connection points: 2
#     Edge 94, Type (0, 0), BuildingBlock: CIFDUS_clean_linker_0, # of connection points: 2
#     Edge 95, Type (0, 0), BuildingBlock: CIFDUS_clean_linker_0, # of connection points: 2
#     Edge 96, Type (0, 0), BuildingBlock: CIFDUS_clean_linker_0, # of connection points: 2
#     Edge 97, Type (0, 0), BuildingBlock: CIFDUS_clean_linker_0, # of connection points: 2
#     Edge 98, Type (0, 0), BuildingBlock: CIFDUS_clean_linker_0, # of connection points: 2
#     Edge 99, Type (0, 0), BuildingBlock: CIFDUS_clean_linker_0, # of connection points: 2
#     Edge 100, Type (0, 0), BuildingBlock: CIFDUS_clean_linker_0, # of connection points: 2
#     Edge 101, Type (0, 0), BuildingBlock: CIFDUS_clean_linker_0, # of connection points: 2
#     Edge 102, Type (0, 0), BuildingBlock: CIFDUS_clean_linker_0, # of connection points: 2
#     Edge 103, Type (0, 0), BuildingBlock: CIFDUS_clean_linker_0, # of connection points: 2
#     Edge 104, Type (0, 0), BuildingBlock: CIFDUS_clean_linker_0, # of connection points: 2
#     Edge 105, Type (0, 0), BuildingBlock: CIFDUS_clean_linker_0, # of connection points: 2
#     Edge 106, Type (0, 0), BuildingBlock: CIFDUS_clean_linker_0, # of connection points: 2
#     Edge 107, Type (0, 0), BuildingBlock: CIFDUS_clean_linker_0, # of connection points: 2
#     Edge 108, Type (0, 0), BuildingBlock: CIFDUS_clean_linker_0, # of connection points: 2
#     Edge 109, Type (0, 0), BuildingBlock: CIFDUS_clean_linker_0, # of connection points: 2
#     Edge 110, Type (0, 0), BuildingBlock: CIFDUS_clean_linker_0, # of connection points: 2
#     Edge 111, Type (0, 0), BuildingBlock: CIFDUS_clean_linker_0, # of connection points: 2
# Relax obj value: 0.348
# Max RMSD: 0.216
# Mean RMSD: 0.216
data_MOF--net-yft--node1-BEQFEK_clean_sbu_0--edge1-CIFDUS_clean_linker_0
_symmetry_space_group_name_H-M    P1
_symmetry_Int_Tables_number       1
_symmetry_cell_setting            triclinic
loop_
_symmetry_equiv_pos_as_xyz
'x, y, z'
_cell_length_a     44.079835
_cell_length_b     44.065273
_cell_length_c     70.639928
_cell_angle_alpha  89.993119
_cell_angle_beta   90.066025
_cell_angle_gamma 89.976676
loop_
_atom_site_label
_atom_site_type_symbol
_atom_site_fract_x
_atom_site_fract_y
_atom_site_fract_z
_atom_type_partial_charge
Co0 Co 0.36397 0.19892 0.19072 0.0
Co1 Co 0.30912 0.1781 0.16497 0.0
C2 C 0.36967 0.14753 0.16331 0.0
O3 O 0.38032 0.16461 0.1762 0.0
O4 O 0.34255 0.15038 0.1573 0.0
C5 C 0.4204 0.19994 0.21115 0.0
O6 O 0.42229 0.17144 0.20582 0.0
C7 C 0.2602 0.14097 0.1467 0.0
C8 C 0.22847 0.1777 0.13886 0.0
C9 C 0.23242 0.14655 0.13782 0.0
N10 N 0.27172 0.16765 0.15268 0.0
N11 N 0.25256 0.1894 0.1479 0.0
C12 C 0.2763 0.11123 0.14869 0.0
H13 H 0.30077 0.11462 0.15133 0.0
H14 H 0.26674 0.09874 0.16095 0.0
H15 H 0.27324 0.09728 0.13575 0.0
C16 C 0.31799 0.1945 0.22005 0.0
N17 N 0.32754 0.18813 0.20247 0.0
N18 N 0.30429 0.17993 0.19191 0.0
C19 C 0.27906 0.18088 0.20263 0.0
C20 C 0.2868 0.19057 0.22072 0.0
C21 C 0.33735 0.2104 0.23438 0.0
H22 H 0.34291 0.23347 0.22911 0.0
H23 H 0.35896 0.19781 0.23617 0.0
H24 H 0.32586 0.21232 0.24828 0.0
O25 O 0.35632 0.23371 0.17394 0.0
O26 O 0.31884 0.219 0.15511 0.0
H27 H 0.24196 0.19715 0.18601 0.0
H28 H 0.23074 0.17593 0.20671 0.0
C29 C 0.24756 0.17735 0.19506 0.0
H30 H 0.24613 0.1565 0.18633 0.0
H31 H 0.25607 0.21238 0.1507 0.0
O32 O 0.39591 0.21436 0.20807 0.0
C33 C 0.33796 0.23881 0.16044 0.0
Co34 Co 0.04602 0.12418 0.42802 0.0
Co35 Co 0.07048 0.06472 0.40824 0.0
C36 C 0.09837 0.12536 0.40108 0.0
O37 O 0.08043 0.1382 0.41266 0.0
O38 O 0.0969 0.09704 0.39772 0.0
C39 C 0.04689 0.18218 0.44662 0.0
O40 O 0.07624 0.18034 0.44361 0.0
C41 C 0.11394 0.01538 0.39942 0.0
C42 C 0.08285 0.98011 0.38862 0.0
C43 C 0.11329 0.98595 0.3921 0.0
N44 N 0.0853 0.02599 0.40021 0.0
N45 N 0.0669 0.00476 0.39373 0.0
C46 C 0.14102 0.0337 0.40512 0.0
H47 H 0.1352 0.05803 0.40639 0.0
H48 H 0.14908 0.0259 0.41918 0.0
H49 H 0.15961 0.03083 0.39468 0.0
C50 C 0.04981 0.08565 0.46141 0.0
N51 N 0.05715 0.09139 0.44333 0.0
N52 N 0.06706 0.06633 0.43526 0.0
C53 C 0.06636 0.04377 0.44814 0.0
C54 C 0.05514 0.05521 0.46508 0.0
C55 C 0.03334 0.10766 0.47383 0.0
H56 H 0.0459 0.12946 0.47418 0.0
H57 H 0.03093 0.09884 0.48847 0.0
H58 H 0.01052 0.11215 0.46779 0.0
O59 O 0.0127 0.11113 0.41127 0.0
O60 O 0.02989 0.06998 0.39651 0.0
H61 H 0.05357 0.00437 0.43239 0.0
H62 H 0.06777 0.99605 0.45581 0.0
C63 C 0.07048 0.01095 0.44328 0.0
H64 H 0.09346 0.00751 0.4373 0.0
H65 H 0.0434 0.00715 0.39273 0.0
O66 O 0.03015 0.15972 0.44229 0.0
C67 C 0.00921 0.08955 0.3995 0.0
Co68 Co 0.13081 0.8046 0.67641 0.0
Co69 Co 0.1911 0.82553 0.65639 0.0
C70 C 0.13303 0.85969 0.65165 0.0
O71 O 0.11915 0.8415 0.6626 0.0
O72 O 0.16106 0.85631 0.64782 0.0
C73 C 0.07298 0.80676 0.69552 0.0
O74 O 0.07433 0.83599 0.69195 0.0
C75 C 0.24174 0.8658 0.64616 0.0
C76 C 0.27803 0.8328 0.63968 0.0
C77 C 0.27187 0.86356 0.64073 0.0
N78 N 0.23058 0.83761 0.64825 0.0
N79 N 0.25231 0.818 0.64415 0.0
C80 C 0.22433 0.89408 0.6505 0.0
H81 H 0.20791 0.88975 0.6621 0.0
H82 H 0.23981 0.91287 0.65453 0.0
H83 H 0.21138 0.90097 0.63772 0.0
C84 C 0.17041 0.80228 0.7093 0.0
N85 N 0.16494 0.81139 0.69148 0.0
N86 N 0.19054 0.81939 0.68331 0.0
C87 C 0.21325 0.81551 0.69588 0.0
C88 C 0.2013 0.80426 0.71267 0.0
C89 C 0.14746 0.78618 0.72125 0.0
H90 H 0.14042 0.76494 0.71403 0.0
H91 H 0.12708 0.80072 0.72282 0.0
H92 H 0.15653 0.78058 0.73548 0.0
O93 O 0.14002 0.77193 0.65823 0.0
O94 O 0.18158 0.78697 0.64308 0.0
H95 H 0.25251 0.79941 0.68133 0.0
H96 H 0.26052 0.81641 0.70404 0.0
C97 C 0.24621 0.81802 0.69114 0.0
H98 H 0.25063 0.84001 0.68406 0.0
H99 H 0.24971 0.79448 0.64472 0.0
O100 O 0.09528 0.78996 0.69102 0.0
C101 C 0.16043 0.7678 0.64578 0.0
Co102 Co 0.44426 0.87172 0.9178 0.0
Co103 Co 0.4203 0.92893 0.89562 0.0
C104 C 0.3906 0.86851 0.89178 0.0
O105 O 0.40909 0.85672 0.90349 0.0
O106 O 0.39208 0.89646 0.88734 0.0
C107 C 0.44284 0.81666 0.93973 0.0
O108 O 0.41339 0.81872 0.93716 0.0
C109 C 0.37771 0.97626 0.88343 0.0
C110 C 0.40885 0.01348 0.87555 0.0
C111 C 0.37847 0.00586 0.87684 0.0
N112 N 0.4064 0.96678 0.88596 0.0
N113 N 0.42491 0.98901 0.88102 0.0
C114 C 0.35034 0.95792 0.88845 0.0
H115 H 0.35563 0.94242 0.90039 0.0
H116 H 0.33098 0.97283 0.89224 0.0
H117 H 0.34375 0.94393 0.87604 0.0
C118 C 0.44442 0.91438 0.94904 0.0
N119 N 0.43487 0.90658 0.93165 0.0
N120 N 0.42536 0.93089 0.92255 0.0
C121 C 0.42843 0.95504 0.93411 0.0
C122 C 0.44107 0.94549 0.95112 0.0
C123 C 0.46256 0.89357 0.96142 0.0
H124 H 0.48342 0.88653 0.9538 0.0
H125 H 0.44911 0.87285 0.9644 0.0
H126 H 0.46903 0.90438 0.97501 0.0
O127 O 0.47713 0.88185 0.90009 0.0
O128 O 0.4599 0.92108 0.88339 0.0
H129 H 0.44197 0.99384 0.9181 0.0
H130 H 0.42437 0.00284 0.94046 0.0
C131 C 0.42377 0.98726 0.92811 0.0
H132 H 0.40156 0.98957 0.92089 0.0
H133 H 0.44852 0.98764 0.88171 0.0
O134 O 0.45984 0.83779 0.93361 0.0
C135 C 0.48038 0.90164 0.88714 0.0
Co136 Co 0.36512 0.79578 0.32255 0.0
Co137 Co 0.30526 0.81618 0.34331 0.0
C138 C 0.36431 0.84714 0.3504 0.0
O139 O 0.37763 0.82991 0.33859 0.0
O140 O 0.33606 0.84462 0.35387 0.0
C141 C 0.42145 0.80068 0.30214 0.0
O142 O 0.4185 0.82983 0.30558 0.0
C143 C 0.25424 0.85543 0.35452 0.0
C144 C 0.21818 0.82156 0.35962 0.0
C145 C 0.22396 0.85243 0.35948 0.0
N146 N 0.26582 0.82754 0.3518 0.0
N147 N 0.24424 0.80741 0.35511 0.0
C148 C 0.27128 0.88417 0.35089 0.0
H149 H 0.2893 0.88028 0.3402 0.0
H150 H 0.25573 0.90239 0.346 0.0
H151 H 0.2822 0.89166 0.36426 0.0
C152 C 0.32648 0.80127 0.28935 0.0
N153 N 0.33167 0.80633 0.30779 0.0
N154 N 0.30623 0.8143 0.31618 0.0
C155 C 0.28387 0.81451 0.30311 0.0
C156 C 0.29596 0.80596 0.28575 0.0
C157 C 0.34953 0.78829 0.27608 0.0
H158 H 0.37018 0.80264 0.27631 0.0
H159 H 0.34078 0.7871 0.26136 0.0
H160 H 0.35599 0.76521 0.28092 0.0
O161 O 0.35446 0.76086 0.3386 0.0
O162 O 0.31343 0.77564 0.35438 0.0
H163 H 0.24391 0.79839 0.31689 0.0
H164 H 0.23656 0.81772 0.29486 0.0
C165 C 0.2509 0.81762 0.30776 0.0
H166 H 0.24715 0.83904 0.31563 0.0
H167 H 0.24712 0.78399 0.35381 0.0
O168 O 0.40056 0.78264 0.30732 0.0
C169 C 0.33371 0.75596 0.35071 0.0
Co170 Co 0.44683 0.12718 0.55885 0.0
Co171 Co 0.42261 0.07298 0.58375 0.0
C172 C 0.39706 0.13568 0.58708 0.0
O173 O 0.41428 0.14551 0.57404 0.0
O174 O 0.39808 0.10818 0.59255 0.0
C175 C 0.44711 0.18196 0.53687 0.0
O176 O 0.41774 0.18139 0.54002 0.0
C177 C 0.3787 0.02653 0.59684 0.0
C178 C 0.4097 0.99285 0.60957 0.0
C179 C 0.37922 -0.00167 0.60593 0.0
N180 N 0.40742 0.03661 0.59515 0.0
N181 N 0.42575 0.01641 0.60288 0.0
C182 C 0.35181 0.04417 0.59005 0.0
H183 H 0.35801 0.06809 0.58724 0.0
H184 H 0.34354 0.03423 0.57657 0.0
H185 H 0.33331 0.04336 0.60069 0.0
C186 C 0.44025 0.08234 0.52897 0.0
N187 N 0.4334 0.09211 0.54645 0.0
N188 N 0.42364 0.06913 0.5567 0.0
C189 C 0.42393 0.04393 0.54589 0.0
C190 C 0.43484 0.05137 0.52803 0.0
C191 C 0.45747 0.10096 0.51491 0.0
H192 H 0.48059 0.10546 0.52047 0.0
H193 H 0.44594 0.12312 0.51294 0.0
H194 H 0.45921 0.08919 0.50105 0.0
O195 O 0.4813 0.11591 0.57515 0.0
O196 O 0.4646 0.07839 0.59338 0.0
H197 H 0.43806 0.00841 0.56455 0.0
H198 H 0.42258 0.99501 0.54239 0.0
C199 C 0.42045 0.01249 0.55361 0.0
H200 H 0.39785 0.01024 0.56031 0.0
H201 H 0.4493 0.01861 0.60347 0.0
O202 O 0.46309 0.15938 0.54199 0.0
C203 C 0.48555 0.09638 0.58814 0.0
Co204 Co 0.12726 0.19606 0.8112 0.0
Co205 Co 0.18298 0.1773 0.83642 0.0
C206 C 0.1208 0.1508 0.84207 0.0
O207 O 0.10977 0.16567 0.82823 0.0
O208 O 0.1486 0.15321 0.84684 0.0
C209 C 0.0715 0.19843 0.78901 0.0
O210 O 0.06612 0.17086 0.79526 0.0
C211 C 0.23156 0.13719 0.85106 0.0
C212 C 0.26474 0.17125 0.86095 0.0
C213 C 0.26022 0.1402 0.85932 0.0
N214 N 0.22025 0.16511 0.8479 0.0
N215 N 0.24015 0.1853 0.85393 0.0
C216 C 0.21456 0.10871 0.84655 0.0
H217 H 0.19007 0.11346 0.84469 0.0
H218 H 0.22318 0.09918 0.83304 0.0
H219 H 0.21769 0.09169 0.85796 0.0
C220 C 0.1699 0.18427 0.78098 0.0
N221 N 0.16177 0.18101 0.79916 0.0
N222 N 0.18584 0.17477 0.80947 0.0
C223 C 0.21029 0.17459 0.79805 0.0
C224 C 0.20109 0.18113 0.77965 0.0
C225 C 0.14954 0.19768 0.76621 0.0
H226 H 0.1449 0.22178 0.76975 0.0
H227 H 0.12767 0.18526 0.76601 0.0
H228 H 0.16004 0.19652 0.75195 0.0
O229 O 0.13784 0.23265 0.82584 0.0
O230 O 0.1764 0.21978 0.84436 0.0
H231 H 0.24546 0.19484 0.81466 0.0
H232 H 0.25879 0.17651 0.7933 0.0
C233 C 0.2423 0.17508 0.80513 0.0
H234 H 0.24684 0.15412 0.81332 0.0
H235 H 0.23706 0.20874 0.85309 0.0
O236 O 0.09633 0.21127 0.79331 0.0
C237 C 0.15731 0.23922 0.83846 0.0
Co238 Co 0.04777 0.88552 0.06258 0.0
Co239 Co 0.07235 0.94501 0.0818 0.0
C240 C 0.10365 0.88466 0.0861 0.0
O241 O 0.08464 0.8713 0.07542 0.0
O242 O 0.10132 0.91282 0.08991 0.0
C243 C 0.04232 0.8272 0.04396 0.0
O244 O 0.07163 0.82475 0.04697 0.0
C245 C 0.11604 0.99133 0.09441 0.0
C246 C 0.08604 0.03061 0.09966 0.0
C247 C 0.11595 0.02116 0.10069 0.0
N248 N 0.08744 0.98348 0.08993 0.0
N249 N 0.06962 0.00705 0.09318 0.0
C250 C 0.14285 0.97084 0.09215 0.0
H251 H 0.13982 0.95626 0.07948 0.0
H252 H 0.16415 0.98409 0.09079 0.0
H253 H 0.14462 0.95592 0.10476 0.0
C254 C 0.0477 0.92393 0.0292 0.0
N255 N 0.05606 0.91887 0.04718 0.0
N256 N 0.06522 0.94442 0.05497 0.0
C257 C 0.06267 0.96678 0.04201 0.0
C258 C 0.05104 0.95455 0.02533 0.0
C259 C 0.03324 0.90048 0.0168 0.0
H260 H 0.01036 0.89497 0.02236 0.0
H261 H 0.04706 0.87945 0.01708 0.0
H262 H 0.03119 0.90855 0.00196 0.0
O263 O 0.01679 0.89711 0.08131 0.0
O264 O 0.03387 0.93852 0.09573 0.0
H265 H 0.04742 0.00693 0.05593 0.0
H266 H 0.06581 0.01402 0.03362 0.0
C267 C 0.06623 -0.00025 0.04653 0.0
H268 H 0.08798 0.00344 0.05408 0.0
H269 H 0.04616 0.00692 0.09119 0.0
O270 O 0.02884 0.85157 0.04857 0.0
C271 C 0.01379 0.91814 0.09348 0.0
Co272 Co 0.63743 0.78528 0.81964 0.0
Co273 Co 0.69126 0.81021 0.84446 0.0
C274 C 0.63008 0.84023 0.84353 0.0
O275 O 0.61967 0.82156 0.83143 0.0
O276 O 0.65708 0.8381 0.84978 0.0
C277 C 0.58374 0.77992 0.79594 0.0
O278 O 0.57994 0.80899 0.79933 0.0
C279 C 0.73714 0.85499 0.8556 0.0
C280 C 0.76332 0.82953 0.87707 0.0
C281 C 0.7607 0.85772 0.86855 0.0
N282 N 0.72639 0.82648 0.85645 0.0
N283 N 0.74227 0.81133 0.86922 0.0
C284 C 0.72357 0.87946 0.84358 0.0
H285 H 0.7007 0.87286 0.83852 0.0
H286 H 0.73814 0.88315 0.831 0.0
H287 H 0.72233 0.90108 0.85161 0.0
C288 C 0.68427 0.78451 0.79085 0.0
N289 N 0.67432 0.79403 0.80778 0.0
N290 N 0.69737 0.80358 0.81804 0.0
C291 C 0.72298 0.80029 0.80787 0.0
C292 C 0.71558 0.78791 0.79033 0.0
C293 C 0.66486 0.76655 0.77749 0.0
H294 H 0.65676 0.74577 0.78478 0.0
H295 H 0.64467 0.78021 0.77356 0.0
H296 H 0.67699 0.75976 0.76446 0.0
O297 O 0.64479 0.75398 0.839 0.0
O298 O 0.68231 0.7712 0.85709 0.0
H299 H 0.75784 0.78998 0.82795 0.0
H300 H 0.77193 0.80133 0.80488 0.0
C301 C 0.75414 0.80531 0.8157 0.0
H302 H 0.75606 0.82898 0.82083 0.0
H303 H 0.73814 0.78881 0.87298 0.0
O304 O 0.60719 0.76663 0.80236 0.0
C305 C 0.66295 0.75091 0.85288 0.0
Co306 Co 0.96081 0.88468 0.56637 0.0
Co307 Co 0.92929 0.93859 0.58788 0.0
C308 C 0.90557 0.87502 0.59014 0.0
O309 O 0.92616 0.86522 0.57911 0.0
O310 O 0.90402 0.90294 0.59475 0.0
C311 C 0.96999 0.82992 0.54456 0.0
O312 O 0.94051 0.82654 0.54624 0.0
C313 C 0.88129 0.98064 0.60035 0.0
C314 C 0.90827 0.02106 0.60808 0.0
C315 C 0.8789 0.01007 0.6071 0.0
N316 N 0.9108 0.97453 0.59742 0.0
N317 N 0.9268 -0.00132 0.60226 0.0
C318 C 0.85603 0.95921 0.59577 0.0
H319 H 0.86221 0.94505 0.58336 0.0
H320 H 0.83465 0.97169 0.59286 0.0
H321 H 0.85235 0.94391 0.60804 0.0
C322 C 0.95705 0.9271 0.5349 0.0
N323 N 0.94863 0.91856 0.55234 0.0
N324 N 0.936 0.94166 0.56115 0.0
C325 C 0.93597 0.96578 0.54937 0.0
C326 C 0.94973 0.95744 0.53246 0.0
C327 C 0.97579 0.90782 0.52197 0.0
H328 H 0.9649 0.88529 0.52034 0.0
H329 H 0.97836 0.91845 0.50781 0.0
H330 H -0.00146 0.9043 0.52835 0.0
O331 O 0.99083 0.89775 0.58534 0.0
O332 O 0.96848 0.93481 0.60143 0.0
H333 H 0.9455 0.00571 0.5654 0.0
H334 H 0.92711 0.01308 0.54308 0.0
C335 C 0.92807 0.99738 0.55533 0.0
H336 H 0.90575 0.9974 0.56254 0.0
H337 H 0.95039 -1e-05 0.60139 0.0
O338 O 0.98238 0.85379 0.55105 0.0
C339 C 0.99111 0.91759 0.5984 0.0
Co340 Co 0.86046 0.2012 0.32481 0.0
Co341 Co 0.80191 0.17789 0.34606 0.0
C342 C 0.86216 0.14762 0.35086 0.0
O343 O 0.8746 0.16572 0.3392 0.0
O344 O 0.83419 0.14979 0.35511 0.0
C345 C 0.91707 0.20025 0.3043 0.0
O346 O 0.91596 0.17086 0.30737 0.0
C347 C 0.75121 0.13801 0.35903 0.0
C348 C 0.71767 0.17297 0.36702 0.0
C349 C 0.72212 0.14183 0.36652 0.0
N350 N 0.76297 0.16563 0.35535 0.0
N351 N 0.74271 0.18631 0.36016 0.0
C352 C 0.76817 0.10897 0.3561 0.0
H353 H 0.79264 0.11318 0.35406 0.0
H354 H 0.75953 0.09763 0.34315 0.0
H355 H 0.7649 0.09358 0.36837 0.0
C356 C 0.81928 0.20112 0.29278 0.0
N357 N 0.82609 0.19201 0.31042 0.0
N358 N 0.80132 0.18268 0.31905 0.0
C359 C 0.77783 0.18546 0.30695 0.0
C360 C 0.78832 0.19765 0.29001 0.0
C361 C 0.84087 0.21883 0.28071 0.0
H362 H 0.84795 0.23961 0.28842 0.0
H363 H 0.86148 0.20499 0.27813 0.0
H364 H 0.83082 0.22545 0.26694 0.0
O365 O 0.85003 0.23441 0.34225 0.0
O366 O 0.8098 0.21773 0.35809 0.0
H367 H 0.73796 0.19894 0.32191 0.0
H368 H 0.73049 0.18049 0.29956 0.0
C369 C 0.74536 0.18054 0.31226 0.0
H370 H 0.74299 0.15855 0.31974 0.0
H371 H 0.74613 0.20966 0.3589 0.0
O372 O 0.89494 0.21673 0.30955 0.0
C373 C 0.82957 0.23802 0.35473 0.0
Co374 Co 0.53543 0.10797 0.06306 0.0
Co375 Co 0.55088 0.05135 0.08839 0.0
C376 C 0.58831 0.1079 0.08954 0.0
O377 O 0.57207 0.12059 0.07695 0.0
O378 O 0.58254 0.08119 0.09533 0.0
C379 C 0.54202 0.1623 0.04076 0.0
O380 O 0.57095 0.15934 0.04485 0.0
C381 C 0.589 0.00087 0.10048 0.0
C382 C 0.55715 0.97249 0.11687 0.0
C383 C 0.58713 0.97423 0.11099 0.0
N384 N 0.56154 0.01409 0.1003 0.0
N385 N 0.54262 0.99715 0.11019 0.0
C386 C 0.61543 0.0127 0.08946 0.0
H387 H 0.60749 0.02781 0.07789 0.0
H388 H 0.62887 0.99372 0.08343 0.0
H389 H 0.63023 0.02616 0.09899 0.0
C390 C 0.52995 0.06142 0.0342 0.0
N391 N 0.54042 0.07034 0.05117 0.0
N392 N 0.54646 0.04638 0.06166 0.0
C393 C 0.54022 0.02125 0.05153 0.0
C394 C 0.52912 0.0299 0.0339 0.0
C395 C 0.51473 0.08275 0.02067 0.0
H396 H 0.49513 0.09361 0.02783 0.0
H397 H 0.53086 0.10099 0.01671 0.0
H398 H 0.5066 0.07125 0.00769 0.0
O399 O 0.50097 0.10414 0.08055 0.0
O400 O 0.5116 0.06485 0.09919 0.0
H401 H 0.52413 0.9878 0.07103 0.0
H402 H 0.53622 0.97246 0.04846 0.0
C403 C 0.54103 0.98976 0.05947 0.0
H404 H 0.5638 0.98522 0.06548 0.0
H405 H 0.51976 0.00232 0.11229 0.0
O406 O 0.5237 0.14148 0.04572 0.0
C407 C 0.49409 0.08633 0.09405 0.0
Co408 Co 0.6231 0.19505 0.68171 0.0
Co409 Co 0.67737 0.16946 0.65756 0.0
C410 C 0.61562 0.14057 0.65713 0.0
O411 O 0.60529 0.1596 0.66905 0.0
O412 O 0.643 0.14166 0.6513 0.0
C413 C 0.57055 0.20174 0.70674 0.0
O414 O 0.56553 0.17263 0.70425 0.0
C415 C 0.7263 0.1299 0.64128 0.0
C416 C 0.75851 0.16573 0.63268 0.0
C417 C 0.75447 0.13455 0.63271 0.0
N418 N 0.71468 0.15716 0.64607 0.0
N419 N 0.7341 0.17834 0.64081 0.0
C420 C 0.70993 0.10052 0.64409 0.0
H421 H 0.68534 0.1044 0.64606 0.0
H422 H 0.71878 0.08925 0.65701 0.0
H423 H 0.71356 0.08528 0.63179 0.0
C424 C 0.668 0.19242 0.7116 0.0
N425 N 0.65896 0.18462 0.69414 0.0
N426 N 0.68242 0.17515 0.68426 0.0
C427 C 0.7074 0.1771 0.69526 0.0
C428 C 0.69909 0.1886 0.71283 0.0
C429 C 0.64802 0.20778 0.7258 0.0
H430 H 0.62699 0.19434 0.72771 0.0
H431 H 0.65955 0.21016 0.7397 0.0
H432 H 0.64164 0.23061 0.72048 0.0
O433 O 0.63146 0.2274 0.6631 0.0
O434 O 0.66841 0.20873 0.64531 0.0
H435 H 0.74445 0.19256 0.67839 0.0
H436 H 0.75582 0.17343 0.69982 0.0
C437 C 0.7391 0.17349 0.68807 0.0
H438 H 0.74106 0.15194 0.68008 0.0
H439 H 0.73063 0.20156 0.64274 0.0
O440 O 0.59349 0.21397 0.69902 0.0
C441 C 0.64984 0.22978 0.64933 0.0
Co442 Co 0.5432 0.87317 0.43537 0.0
Co443 Co 0.5682 0.93065 0.41405 0.0
C444 C 0.59926 0.87098 0.41115 0.0
O445 O 0.57991 0.85886 0.42213 0.0
O446 O 0.5976 0.89883 0.40652 0.0
C447 C 0.54472 0.81735 0.45616 0.0
O448 O 0.57422 0.82078 0.45467 0.0
C449 C 0.60976 0.97842 0.40074 0.0
C450 C 0.57762 0.01532 0.39383 0.0
C451 C 0.60814 0.0079 0.39394 0.0
N452 N 0.58144 0.96885 0.40448 0.0
N453 N 0.56234 0.99093 0.40016 0.0
C454 C 0.63767 0.96014 0.40462 0.0
H455 H 0.63403 0.94532 0.41711 0.0
H456 H 0.65756 0.97507 0.40709 0.0
H457 H 0.64242 0.94544 0.39221 0.0
C458 C 0.54195 0.91577 0.467 0.0
N459 N 0.55139 0.90807 0.44959 0.0
N460 N 0.56216 0.93224 0.44092 0.0
C461 C 0.56038 0.95606 0.45284 0.0
C462 C 0.54708 0.94652 0.46964 0.0
C463 C 0.52408 0.89511 0.47956 0.0
H464 H 0.50215 0.88964 0.47262 0.0
H465 H 0.53668 0.87355 0.48154 0.0
H466 H 0.51973 0.90562 0.49358 0.0
O467 O 0.511 0.88279 0.41696 0.0
O468 O 0.52922 0.92229 0.40107 0.0
H469 H 0.54744 0.99589 0.43764 0.0
H470 H 0.56688 0.00358 0.45954 0.0
C471 C 0.56602 0.98826 0.4471 0.0
H472 H 0.58781 0.98985 0.43937 0.0
H473 H 0.53884 0.98941 0.40166 0.0
O474 O 0.52741 0.83852 0.4504 0.0
C475 C 0.5085 0.9028 0.40408 0.0
Co476 Co 0.8661 0.80327 0.16913 0.0
Co477 Co 0.80872 0.82567 0.1466 0.0
C478 C 0.86899 0.85706 0.14358 0.0
O479 O 0.88126 0.83891 0.15533 0.0
O480 O 0.84117 0.85458 0.13889 0.0
C481 C 0.92356 0.79948 0.18902 0.0
O482 O 0.92665 0.82817 0.18434 0.0
C483 C 0.75873 0.86748 0.13787 0.0
C484 C 0.72728 0.83756 0.12221 0.0
C485 C 0.73069 0.86705 0.12875 0.0
N486 N 0.77102 0.83963 0.13669 0.0
N487 N 0.7522 0.8219 0.12725 0.0
C488 C 0.7729 0.89285 0.14882 0.0
H489 H 0.78962 0.88378 0.15914 0.0
H490 H 0.75529 0.90617 0.15637 0.0
H491 H 0.78508 0.90809 0.13891 0.0
C492 C 0.82392 0.80595 0.20077 0.0
N493 N 0.83108 0.81268 0.18279 0.0
N494 N 0.80643 0.82052 0.17345 0.0
C495 C 0.78253 0.81842 0.18527 0.0
C496 C 0.79285 0.80919 0.20295 0.0
C497 C 0.84553 0.79116 0.21429 0.0
H498 H 0.85156 0.7683 0.20888 0.0
H499 H 0.86667 0.80476 0.2151 0.0
H500 H 0.8357 0.78886 0.22866 0.0
O501 O 0.85649 0.77046 0.15116 0.0
O502 O 0.81705 0.78625 0.1342 0.0
H503 H 0.7458 0.80599 0.167 0.0
H504 H 0.73419 0.81604 0.19081 0.0
C505 C 0.75015 0.82137 0.17914 0.0
H506 H 0.74592 0.84496 0.17439 0.0
H507 H 0.75623 0.79902 0.1244 0.0
O508 O 0.89896 0.78589 0.18501 0.0
C509 C 0.83699 0.76637 0.13814 0.0
Co510 Co 0.94073 0.12093 0.93029 0.0
Co511 Co 0.91415 0.07018 0.90383 0.0
C512 C 0.88539 0.13195 0.90714 0.0
O513 O 0.90494 0.14084 0.91919 0.0
O514 O 0.88616 0.10523 0.90021 0.0
C515 C 0.94939 0.1723 0.95554 0.0
O516 O 0.92058 0.17822 0.95251 0.0
C517 C 0.87273 0.02098 0.89163 0.0
C518 C 0.89879 0.00191 0.86768 0.0
C519 C 0.87183 -0.00096 0.87752 0.0
N520 N 0.89914 0.03606 0.89016 0.0
N521 N 0.91458 0.02445 0.87585 0.0
C522 C 0.84821 0.02899 0.90536 0.0
H523 H 0.85222 0.05186 0.91146 0.0
H524 H 0.84801 0.01219 0.91705 0.0
H525 H 0.82574 0.02818 0.89826 0.0
C526 C 0.94017 0.07174 0.95751 0.0
N527 N 0.93099 0.08322 0.94089 0.0
N528 N 0.92175 0.06105 0.9298 0.0
C529 C 0.92571 0.03446 0.93895 0.0
C530 C 0.93759 0.04046 0.9568 0.0
C531 C 0.95555 0.09 0.97259 0.0
H532 H 0.97853 0.09656 0.96766 0.0
H533 H 0.94242 0.11104 0.97528 0.0
H534 H 0.95763 0.07695 0.98597 0.0
O535 O 0.97203 0.11505 0.91057 0.0
O536 O 0.95259 0.08035 0.89136 0.0
H537 H 0.93534 0.00516 0.91549 0.0
H538 H 0.93467 0.98607 0.93821 0.0
C539 C 0.92401 0.00411 0.92949 0.0
H540 H 0.89989 -0.00186 0.92712 0.0
H541 H 0.9358 0.03219 0.87147 0.0
O542 O 0.96093 0.14845 0.94847 0.0
C543 C 0.97376 0.09845 0.8959 0.0
Co544 Co 0.87512 0.69721 0.67538 0.0
Co545 Co 0.81899 0.67052 0.65329 0.0
C546 C 0.87795 0.63717 0.65591 0.0
O547 O 0.88957 0.65801 0.666 0.0
O548 O 0.85088 0.639 0.64969 0.0
C549 C 0.92941 0.70082 0.69814 0.0
O550 O 0.92858 0.67103 0.69746 0.0
C551 C 0.76953 0.62755 0.64515 0.0
C552 C 0.73912 0.65556 0.62745 0.0
C553 C 0.74231 0.62674 0.6351 0.0
N554 N 0.78164 0.65542 0.64336 0.0
N555 N 0.76338 0.672 0.63273 0.0
C556 C 0.78307 0.60335 0.65736 0.0
H557 H 0.79832 0.61359 0.66813 0.0
H558 H 0.76502 0.59004 0.66449 0.0
H559 H 0.79675 0.58782 0.64842 0.0
C560 C 0.83021 0.70508 0.70488 0.0
N561 N 0.83865 0.69278 0.68834 0.0
N562 N 0.81466 0.6826 0.67922 0.0
C563 C 0.78989 0.68834 0.6898 0.0
C564 C 0.79894 0.70284 0.70636 0.0
C565 C 0.85114 0.72367 0.71692 0.0
H566 H 0.86063 0.74244 0.7083 0.0
H567 H 0.87036 0.70928 0.72167 0.0
H568 H 0.83968 0.73345 0.72946 0.0
O569 O 0.86839 0.72552 0.65424 0.0
O570 O 0.82991 0.70642 0.63769 0.0
H571 H 0.75344 0.6969 0.67055 0.0
H572 H 0.74131 0.68853 0.69449 0.0
C573 C 0.75804 0.68292 0.6833 0.0
H574 H 0.75535 0.65874 0.67934 0.0
H575 H 0.76746 0.69459 0.62911 0.0
O576 O 0.90785 0.71591 0.69075 0.0
C577 C 0.85009 0.72661 0.64034 0.0
Co578 Co 0.53931 0.60995 0.92817 0.0
Co579 Co 0.5608 0.55014 0.90766 0.0
C580 C 0.59243 0.60914 0.90179 0.0
O581 O 0.57461 0.62249 0.91321 0.0
O582 O 0.58966 0.58105 0.89798 0.0
C583 C 0.54195 0.66809 0.94668 0.0
O584 O 0.57121 0.66576 0.94347 0.0
C585 C 0.60234 0.50101 0.89641 0.0
C586 C 0.57042 0.46338 0.89089 0.0
C587 C 0.60095 0.47075 0.89108 0.0
N588 N 0.57389 0.51107 0.89925 0.0
N589 N 0.55492 0.48854 0.89572 0.0
C590 C 0.63017 0.5195 0.90007 0.0
H591 H 0.62588 0.53595 0.91166 0.0
H592 H 0.64973 0.50477 0.90379 0.0
H593 H 0.63588 0.53246 0.88708 0.0
C594 C 0.54175 0.57075 0.96127 0.0
N595 N 0.54884 0.57638 0.94313 0.0
N596 N 0.55736 0.55105 0.93477 0.0
C597 C 0.556 0.5284 0.94756 0.0
C598 C 0.54573 0.54004 0.96468 0.0
C599 C 0.52563 0.59313 0.97364 0.0
H600 H 0.50356 0.59917 0.96705 0.0
H601 H 0.53933 0.61418 0.97466 0.0
H602 H 0.52158 0.58407 0.98806 0.0
O603 O 0.50539 0.59889 0.91144 0.0
O604 O 0.52045 0.5577 0.89587 0.0
H605 H 0.54134 0.48785 0.93376 0.0
H606 H 0.5608 0.48143 0.95591 0.0
C607 C 0.56029 0.49556 0.94291 0.0
H608 H 0.58187 0.49247 0.93512 0.0
H609 H 0.53139 0.4902 0.89695 0.0
O610 O 0.5248 0.64582 0.94264 0.0
C611 C 0.5007 0.57802 0.89936 0.0
Co612 Co 0.63322 0.28097 0.17171 0.0
Co613 Co 0.68893 0.30654 0.14893 0.0
C614 C 0.62729 0.33641 0.14819 0.0
O615 O 0.61602 0.31757 0.15987 0.0
O616 O 0.65485 0.33453 0.14294 0.0
C617 C 0.57993 0.2749 0.19587 0.0
O618 O 0.57779 0.30458 0.1947 0.0
C619 C 0.73719 0.35129 0.14298 0.0
C620 C 0.7652 0.32913 0.12104 0.0
C621 C 0.76289 0.35519 0.13192 0.0
N622 N 0.72508 0.32405 0.13896 0.0
N623 N 0.7419 0.31094 0.12582 0.0
C624 C 0.72332 0.37362 0.15638 0.0
H625 H 0.69917 0.36798 0.15903 0.0
H626 H 0.73557 0.37281 0.17009 0.0
H627 H 0.72529 0.397 0.15065 0.0
C628 C 0.6779 0.27827 0.20187 0.0
N629 N 0.66924 0.28887 0.18488 0.0
N630 N 0.6932 0.29805 0.17535 0.0
C631 C 0.71812 0.29311 0.186 0.0
C632 C 0.70924 0.28038 0.20315 0.0
C633 C 0.65721 0.26062 0.21459 0.0
H634 H 0.64917 0.24009 0.207 0.0
H635 H 0.63711 0.2747 0.21807 0.0
H636 H 0.66839 0.25344 0.22789 0.0
O637 O 0.64223 0.25073 0.15192 0.0
O638 O 0.68112 0.26827 0.13509 0.0
H639 H 0.75273 0.28402 0.16552 0.0
H640 H 0.76694 0.28907 0.18944 0.0
C641 C 0.74991 0.29682 0.17893 0.0
H642 H 0.7542 0.32108 0.17593 0.0
H643 H 0.73734 0.28966 0.12 0.0
O644 O 0.60193 0.26148 0.18781 0.0
C645 C 0.66126 0.24803 0.13848 0.0
Co646 Co 0.94539 0.38709 0.42522 0.0
Co647 Co 0.92037 0.4459 0.40487 0.0
C648 C 0.88949 0.38582 0.40122 0.0
O649 O 0.90865 0.37332 0.41217 0.0
O650 O 0.89132 0.41379 0.39688 0.0
C651 C 0.94553 0.33013 0.44529 0.0
O652 O 0.91596 0.33198 0.44323 0.0
C653 C 0.8782 0.49642 0.39543 0.0
C654 C 0.91024 0.52932 0.38298 0.0
C655 C 0.87974 0.52511 0.38704 0.0
N656 N 0.90641 0.48467 0.39619 0.0
N657 N 0.92538 0.50453 0.38875 0.0
C658 C 0.85063 0.47974 0.40206 0.0
H659 H 0.85572 0.4555 0.40459 0.0
H660 H 0.84289 0.48962 0.41567 0.0
H661 H 0.83208 0.48177 0.3915 0.0
C662 C 0.94998 0.42839 0.45684 0.0
N663 N 0.9378 0.42149 0.43995 0.0
N664 N 0.92828 0.44645 0.43157 0.0
C665 C 0.93436 0.47017 0.44299 0.0
C666 C 0.94876 0.4596 0.45922 0.0
C667 C 0.96887 0.4065 0.468 0.0
H668 H 0.98907 0.39999 0.45956 0.0
H669 H 0.95549 0.38566 0.47077 0.0
H670 H 0.97645 0.41624 0.48168 0.0
O671 O 0.97687 0.39773 0.40657 0.0
O672 O 0.95889 0.43813 0.39133 0.0
H673 H 0.948 0.50741 0.42561 0.0
H674 H 0.93606 0.51823 0.44914 0.0
C675 C 0.93155 0.50266 0.4371 0.0
H676 H 0.90836 0.50694 0.43164 0.0
H677 H 0.94869 0.50102 0.38745 0.0
O678 O 0.962 0.35206 0.43972 0.0
C679 C 0.97939 0.41826 0.394 0.0
Co680 Co 0.86481 0.29674 0.80716 0.0
Co681 Co 0.81157 0.32304 0.8319 0.0
C682 C 0.87483 0.34932 0.83258 0.0
O683 O 0.88429 0.33073 0.82016 0.0
O684 O 0.84758 0.34868 0.83866 0.0
C685 C 0.9188 0.28734 0.7843 0.0
O686 O 0.92469 0.31614 0.78743 0.0
C687 C 0.76491 0.36745 0.84496 0.0
C688 C 0.73171 0.33604 0.85771 0.0
C689 C 0.73686 0.36659 0.85421 0.0
N690 N 0.77528 0.33882 0.84315 0.0
N691 N 0.7553 0.32026 0.85085 0.0
C692 C 0.78223 0.39463 0.83835 0.0
H693 H 0.80621 0.38872 0.83554 0.0
H694 H 0.77213 0.40301 0.82494 0.0
H695 H 0.78117 0.41298 0.8491 0.0
C696 C 0.82033 0.30228 0.77739 0.0
N697 N 0.8297 0.30945 0.79487 0.0
N698 N 0.80647 0.31867 0.80506 0.0
C699 C 0.78124 0.31694 0.79429 0.0
C700 C 0.78919 0.30606 0.77648 0.0
C701 C 0.83993 0.2868 0.76303 0.0
H702 H 0.86178 0.29909 0.76175 0.0
H703 H 0.82866 0.28598 0.74898 0.0
H704 H 0.84481 0.26331 0.76781 0.0
O705 O 0.85413 0.26443 0.82518 0.0
O706 O 0.81752 0.28247 0.84352 0.0
H707 H 0.74638 0.30213 0.81314 0.0
H708 H 0.73237 0.31648 0.7908 0.0
C709 C 0.74975 0.31955 0.802 0.0
H710 H 0.74677 0.34222 0.80855 0.0
H711 H 0.75771 0.29672 0.85135 0.0
O712 O 0.89403 0.27623 0.79026 0.0
C713 C 0.83544 0.26124 0.83871 0.0
Co714 Co 0.95879 0.61263 0.07236 0.0
Co715 Co 0.93469 0.55697 0.09564 0.0
C716 C 0.90307 0.61773 0.09545 0.0
O717 O 0.92193 0.62913 0.08386 0.0
O718 O 0.90558 0.59046 0.10122 0.0
C719 C 0.96453 0.66724 0.04972 0.0
O720 O 0.93512 0.67007 0.05213 0.0
C721 C 0.89146 0.50732 0.10122 0.0
C722 C 0.91298 0.48116 0.1243 0.0
C723 C 0.88765 0.48204 0.11269 0.0
N724 N 0.91794 0.52057 0.10574 0.0
N725 N 0.9307 0.50483 0.11955 0.0
C726 C 0.8696 0.51986 0.08701 0.0
H727 H 0.8746 0.54409 0.0841 0.0
H728 H 0.87177 0.50709 0.07355 0.0
H729 H 0.84595 0.51731 0.09214 0.0
C730 C 0.96131 0.56815 0.04233 0.0
N731 N 0.95101 0.57661 0.0594 0.0
N732 N 0.94318 0.55249 0.06923 0.0
C733 C 0.9492 0.5276 0.05879 0.0
C734 C 0.96089 0.53675 0.04141 0.0
C735 C 0.97746 0.58931 0.02916 0.0
H736 H -0.00075 0.59637 0.03569 0.0
H737 H 0.96342 0.6099 0.02692 0.0
H738 H 0.98224 0.5787 0.01526 0.0
O739 O 0.98948 0.60418 0.09199 0.0
O740 O 0.9729 0.56556 0.1094 0.0
H741 H 0.96041 0.49496 0.08018 0.0
H742 H 0.95841 0.47934 0.05643 0.0
C743 C 0.94829 0.4959 0.06641 0.0
H744 H 0.9244 0.48929 0.06891 0.0
H745 H 0.95136 0.51043 0.12587 0.0
O746 O 0.97796 0.64401 0.0563 0.0
C747 C 0.9928 0.58553 0.10558 0.0
Co748 Co 0.631 0.71203 0.31124 0.0
Co749 Co 0.69182 0.69386 0.33173 0.0
C750 C 0.63413 0.66016 0.33853 0.0
O751 O 0.61993 0.6769 0.32684 0.0
O752 O 0.66216 0.66417 0.34212 0.0
C753 C 0.57285 0.70693 0.29293 0.0
O754 O 0.57607 0.6778 0.29638 0.0
C755 C 0.74286 0.65531 0.34371 0.0
C756 C 0.77916 0.68919 0.34807 0.0
C757 C 0.77309 0.65839 0.3488 0.0
N758 N 0.73155 0.68307 0.34013 0.0
N759 N 0.75329 0.70323 0.34295 0.0
C760 C 0.72551 0.62648 0.34099 0.0
H761 H 0.7087 0.62923 0.3294 0.0
H762 H 0.74098 0.60731 0.33773 0.0
H763 H 0.71303 0.62119 0.35422 0.0
C764 C 0.66953 0.7091 0.27786 0.0
N765 N 0.66462 0.70313 0.29624 0.0
N766 N 0.69043 0.69614 0.30458 0.0
C767 C 0.71271 0.6975 0.29156 0.0
C768 C 0.70026 0.706 0.27427 0.0
C769 C 0.64625 0.72325 0.26519 0.0
H770 H 0.63949 0.7456 0.27108 0.0
H771 H 0.62576 0.70866 0.26483 0.0
H772 H 0.65484 0.72641 0.25057 0.0
O773 O 0.64076 0.74698 0.32744 0.0
O774 O 0.6827 0.73414 0.34298 0.0
H775 H 0.75289 0.71474 0.30459 0.0
H776 H 0.75963 0.69415 0.2829 0.0
C777 C 0.74579 0.6949 0.29601 0.0
H778 H 0.74998 0.67398 0.30432 0.0
H779 H 0.75058 0.72657 0.34107 0.0
O780 O 0.59464 0.7248 0.29674 0.0
C781 C 0.66153 0.75291 0.33937 0.0
Co782 Co 0.54547 0.38128 0.56974 0.0
Co783 Co 0.56473 0.43776 0.59438 0.0
C784 C 0.59587 0.37781 0.59809 0.0
O785 O 0.57928 0.36624 0.58525 0.0
O786 O 0.59293 0.40542 0.60307 0.0
C787 C 0.54972 0.32662 0.54722 0.0
O788 O 0.57862 0.32766 0.55173 0.0
C789 C 0.6043 0.48807 0.60638 0.0
C790 C 0.57176 0.51797 0.62111 0.0
C791 C 0.60203 0.51559 0.61599 0.0
N792 N 0.57669 0.4751 0.6059 0.0
N793 N 0.55742 0.49298 0.61486 0.0
C794 C 0.6313 0.47524 0.59638 0.0
H795 H 0.62403 0.45868 0.58543 0.0
H796 H 0.6448 0.49363 0.58973 0.0
H797 H 0.64586 0.4632 0.60678 0.0
C798 C 0.54622 0.42613 0.53991 0.0
N799 N 0.55506 0.41748 0.55729 0.0
N800 N 0.56235 0.44152 0.56739 0.0
C801 C 0.55841 0.46642 0.55659 0.0
C802 C 0.54763 0.45757 0.53891 0.0
C803 C 0.52997 0.40521 0.52659 0.0
H804 H 0.50915 0.39655 0.53356 0.0
H805 H 0.54474 0.38546 0.52343 0.0
H806 H 0.52352 0.41637 0.51314 0.0
O807 O 0.51022 0.38926 0.586 0.0
O808 O 0.52382 0.42799 0.60434 0.0
H809 H 0.54336 0.50165 0.57518 0.0
H810 H 0.55701 0.51516 0.55251 0.0
C811 C 0.56054 0.49822 0.56392 0.0
H812 H 0.58329 0.50188 0.57017 0.0
H813 H 0.53436 0.48831 0.61648 0.0
O814 O 0.5324 0.3481 0.55247 0.0
C815 C 0.50452 0.4082 0.59912 0.0
Co816 Co 0.12145 0.30401 0.31768 0.0
Co817 Co 0.18196 0.3281 0.33618 0.0
C818 C 0.12304 0.35938 0.34244 0.0
O819 O 0.10942 0.34029 0.33194 0.0
O820 O 0.15144 0.35766 0.34561 0.0
C821 C 0.0625 0.3043 0.29986 0.0
O822 O 0.06386 0.33376 0.3026 0.0
C823 C 0.23247 0.36839 0.34721 0.0
C824 C 0.26951 0.33522 0.35139 0.0
C825 C 0.26284 0.36588 0.35218 0.0
N826 N 0.22171 0.34044 0.34362 0.0
N827 N 0.24392 0.32072 0.34629 0.0
C828 C 0.21427 0.39682 0.34501 0.0
H829 H 0.1974 0.39403 0.33347 0.0
H830 H 0.22916 0.41653 0.34195 0.0
H831 H 0.2018 0.40126 0.35836 0.0
C832 C 0.15884 0.30382 0.28386 0.0
N833 N 0.15406 0.31266 0.30179 0.0
N834 N 0.17967 0.32234 0.30928 0.0
C835 C 0.2016 0.32001 0.29608 0.0
C836 C 0.18925 0.30781 0.27967 0.0
C837 C 0.13626 0.28601 0.27258 0.0
H838 H 0.13114 0.26447 0.28007 0.0
H839 H 0.11486 0.29912 0.27144 0.0
H840 H 0.14479 0.28083 0.25816 0.0
O841 O 0.1334 0.2716 0.33532 0.0
O842 O 0.17482 0.28921 0.3495 0.0
H843 H 0.24311 0.30543 0.30876 0.0
H844 H 0.24785 0.32496 0.28654 0.0
C845 C 0.23468 0.32445 0.29992 0.0
H846 H 0.23825 0.34604 0.30765 0.0
H847 H 0.24162 0.29731 0.34455 0.0
O848 O 0.08531 0.28803 0.30415 0.0
C849 C 0.1548 0.26877 0.34727 0.0
Co850 Co 0.4472 0.36647 0.06541 0.0
Co851 Co 0.42173 0.42353 0.08732 0.0
C852 C 0.39166 0.36281 0.08955 0.0
O853 O 0.41078 0.35114 0.07823 0.0
O854 O 0.39328 0.39051 0.09456 0.0
C855 C 0.44673 0.31278 0.04234 0.0
O856 O 0.41714 0.31577 0.0436 0.0
C857 C 0.37918 0.47335 0.09745 0.0
C858 C 0.41118 0.50661 0.1096 0.0
C859 C 0.38068 0.50227 0.10554 0.0
N860 N 0.40744 0.46169 0.09676 0.0
N861 N 0.42636 0.48171 0.10409 0.0
C862 C 0.35168 0.45657 0.09077 0.0
H863 H 0.35656 0.43213 0.08901 0.0
H864 H 0.34468 0.46559 0.07676 0.0
H865 H 0.33272 0.45952 0.10092 0.0
C866 C 0.4465 0.40906 0.03389 0.0
N867 N 0.43837 0.40151 0.05158 0.0
N868 N 0.42847 0.42573 0.06058 0.0
C869 C 0.43025 0.44967 0.04875 0.0
C870 C 0.44176 0.4399 0.0315 0.0
C871 C 0.46365 0.38824 0.021 0.0
H872 H 0.48457 0.38037 0.02826 0.0
H873 H 0.44954 0.36799 0.01794 0.0
H874 H 0.4699 0.39937 0.00749 0.0
O875 O 0.4788 0.37597 0.08435 0.0
O876 O 0.46049 0.41512 0.10064 0.0
H877 H 0.44107 0.48841 0.06566 0.0
H878 H 0.42676 0.49762 0.04234 0.0
C879 C 0.42459 0.48185 0.05451 0.0
H880 H 0.40142 0.48386 0.06044 0.0
H881 H 0.44973 0.4784 0.10527 0.0
O882 O 0.46367 0.33298 0.04965 0.0
C883 C 0.4811 0.39552 0.09754 0.0
Co884 Co 0.36992 0.69008 0.8062 0.0
Co885 Co 0.31493 0.66166 0.82836 0.0
C886 C 0.3769 0.63343 0.82897 0.0
O887 O 0.38757 0.65374 0.81805 0.0
O888 O 0.34922 0.63367 0.83417 0.0
C889 C 0.42629 0.69835 0.78601 0.0
O890 O 0.42997 0.66912 0.7889 0.0
C891 C 0.26589 0.61769 0.83626 0.0
C892 C 0.23885 0.64328 0.85721 0.0
C893 C 0.24055 0.61574 0.84786 0.0
N894 N 0.27849 0.64522 0.83864 0.0
N895 N 0.26212 0.6604 0.85113 0.0
C896 C 0.27904 0.59333 0.82401 0.0
H897 H 0.30299 0.59852 0.82046 0.0
H898 H 0.26589 0.59195 0.81064 0.0
H899 H 0.27748 0.571 0.83123 0.0
C900 C 0.32619 0.68983 0.77535 0.0
N901 N 0.33473 0.68043 0.79263 0.0
N902 N 0.31095 0.67021 0.80192 0.0
C903 C 0.28622 0.6736 0.79088 0.0
C904 C 0.2951 0.68604 0.77367 0.0
C905 C 0.34633 0.70781 0.76251 0.0
H906 H 0.35126 0.73009 0.76916 0.0
H907 H 0.36816 0.69566 0.76062 0.0
H908 H 0.33572 0.71165 0.74847 0.0
O909 O 0.35946 0.72035 0.82576 0.0
O910 O 0.32197 0.69977 0.84233 0.0
H911 H 0.25103 0.68266 0.81097 0.0
H912 H 0.23751 0.6768 0.78698 0.0
C913 C 0.25437 0.66951 0.79774 0.0
H914 H 0.25051 0.64524 0.80101 0.0
H915 H 0.2671 0.68232 0.85575 0.0
O916 O 0.40146 0.71075 0.79087 0.0
C917 C 0.34034 0.72138 0.83921 0.0
Co918 Co 0.05171 0.61429 0.56579 0.0
Co919 Co 0.07302 0.55928 0.59059 0.0
C920 C 0.10041 0.6215 0.59451 0.0
O921 O 0.08424 0.63228 0.58122 0.0
O922 O 0.09809 0.59389 0.59957 0.0
C923 C 0.04913 0.67041 0.54456 0.0
O924 O 0.07765 0.67346 0.54962 0.0
C925 C 0.11691 0.51185 0.60004 0.0
C926 C 0.09175 0.48445 0.621 0.0
C927 C 0.11935 0.4867 0.61174 0.0
N928 N 0.08904 0.52371 0.60213 0.0
N929 N 0.07411 0.50727 0.61469 0.0
C930 C 0.14099 0.52547 0.58779 0.0
H931 H 0.1358 0.54963 0.58476 0.0
H932 H 0.14185 0.51307 0.57413 0.0
H933 H 0.16353 0.52346 0.5947 0.0
C934 C 0.05435 0.56951 0.5362 0.0
N935 N 0.06402 0.57885 0.55327 0.0
N936 N 0.07147 0.55515 0.56365 0.0
C937 C 0.06637 0.52982 0.55346 0.0
C938 C 0.0547 0.53799 0.53587 0.0
C939 C 0.03744 0.58988 0.52287 0.0
H940 H 0.01502 0.59554 0.52908 0.0
H941 H 0.05031 0.61127 0.52092 0.0
H942 H 0.03387 0.57923 0.50885 0.0
O943 O 0.01677 0.60314 0.58173 0.0
O944 O 0.03114 0.56466 0.60002 0.0
H945 H 0.05124 0.49762 0.57413 0.0
H946 H 0.0599 0.4811 0.55123 0.0
C947 C 0.06669 0.49852 0.56175 0.0
H948 H 0.08988 0.49307 0.56671 0.0
H949 H 0.05199 0.5118 0.6191 0.0
O950 O 0.03516 0.64614 0.54883 0.0
C951 C 0.01111 0.58339 0.59438 0.0
Co952 Co 0.14154 0.71376 0.17058 0.0
Co953 Co 0.19938 0.6869 0.1504 0.0
C954 C 0.13894 0.65574 0.14881 0.0
O955 O 0.12669 0.67598 0.15913 0.0
O956 O 0.16682 0.65713 0.14409 0.0
C957 C 0.08402 0.72099 0.19004 0.0
O958 O 0.08093 0.69162 0.18745 0.0
C959 C 0.24748 0.6429 0.14098 0.0
C960 C 0.28518 0.67349 0.13316 0.0
C961 C 0.27758 0.64323 0.13532 0.0
N962 N 0.23771 0.67175 0.14216 0.0
N963 N 0.26025 0.68987 0.13723 0.0
C964 C 0.22889 0.61591 0.14641 0.0
H965 H 0.21325 0.62193 0.15813 0.0
H966 H 0.24356 0.59662 0.1507 0.0
H967 H 0.215 0.60884 0.13406 0.0
C968 C 0.18231 0.71477 0.20297 0.0
N969 N 0.17594 0.70634 0.18517 0.0
N970 N 0.20062 0.69583 0.17698 0.0
C971 C 0.2237 0.69737 0.18951 0.0
C972 C 0.21283 0.7097 0.20631 0.0
C973 C 0.16004 0.72988 0.21588 0.0
H974 H 0.13855 0.7168 0.21598 0.0
H975 H 0.16892 0.73155 0.23055 0.0
H976 H 0.15499 0.75298 0.21046 0.0
O977 O 0.1519 0.74317 0.15074 0.0
O978 O 0.19176 0.72437 0.13551 0.0
H979 H 0.26368 0.70814 0.17389 0.0
H980 H 0.27124 0.69319 0.19714 0.0
C981 C 0.25618 0.6914 0.18462 0.0
H982 H 0.25834 0.66836 0.17848 0.0
H983 H 0.2588 0.71351 0.13706 0.0
O984 O 0.10849 0.73383 0.18494 0.0
C985 C 0.17187 0.74494 0.13783 0.0
Co986 Co 0.04621 0.37599 0.9313 0.0
Co987 Co 0.06733 0.4279 0.90401 0.0
C988 C 0.09778 0.36641 0.90542 0.0
O989 O 0.08093 0.35683 0.91873 0.0
O990 O 0.09442 0.39284 0.89845 0.0
C991 C 0.04036 0.32327 0.95577 0.0
O992 O 0.06876 0.31757 0.95141 0.0
C993 C 0.11119 0.47452 0.89327 0.0
C994 C 0.08792 0.49765 0.86959 0.0
C995 C 0.11459 0.49743 0.87998 0.0
N996 N 0.08368 0.46195 0.89095 0.0
N997 N 0.06987 0.47586 0.87677 0.0
C998 C 0.13432 0.46333 0.90714 0.0
H999 H 0.1286 0.44009 0.912 0.0
H1000 H 0.13467 0.47852 0.91965 0.0
H1001 H 0.15726 0.46361 0.90067 0.0
C1002 C 0.04878 0.42431 0.95892 0.0
N1003 N 0.0567 0.4134 0.94191 0.0
N1004 N 0.06351 0.43598 0.93048 0.0
C1005 C 0.0593 0.46229 0.93984 0.0
C1006 C 0.04966 0.45577 0.95816 0.0
C1007 C 0.03385 0.40519 0.97378 0.0
H1008 H 0.01088 0.39859 0.96882 0.0
H1009 H 0.0473 0.38422 0.976 0.0
H1010 H 0.03163 0.41719 0.98747 0.0
O1011 O 0.0127 0.3829 0.91325 0.0
O1012 O 0.02664 0.41939 0.89341 0.0
H1013 H 0.04477 0.49241 0.91781 0.0
H1014 H 0.05226 0.51107 0.94027 0.0
C1015 C 0.05964 0.4928 0.9305 0.0
H1016 H 0.08297 0.49801 0.92573 0.0
H1017 H 0.0483 0.47018 0.87181 0.0
O1018 O 0.0281 0.3475 0.94975 0.0
C1019 C 0.00717 0.40029 0.8993 0.0
Co1020 Co 0.36748 0.29866 0.69224 0.0
Co1021 Co 0.31619 0.3204 0.66469 0.0
C1022 C 0.37748 0.35095 0.66697 0.0
O1023 O 0.38691 0.33358 0.68008 0.0
O1024 O 0.35108 0.34796 0.65984 0.0
C1025 C 0.41992 0.29187 0.71644 0.0
O1026 O 0.42546 0.32038 0.71222 0.0
C1027 C 0.26789 0.36296 0.6546 0.0
C1028 C 0.24588 0.33977 0.63049 0.0
C1029 C 0.24465 0.36578 0.64147 0.0
N1030 N 0.28201 0.33638 0.65162 0.0
N1031 N 0.26878 0.32262 0.63718 0.0
C1032 C 0.27792 0.38584 0.66895 0.0
H1033 H 0.30168 0.3814 0.67337 0.0
H1034 H 0.26323 0.38426 0.68164 0.0
H1035 H 0.27583 0.40914 0.66312 0.0
C1036 C 0.31885 0.30266 0.7197 0.0
N1037 N 0.33003 0.30942 0.70258 0.0
N1038 N 0.30762 0.31592 0.69095 0.0
C1039 C 0.2812 0.31214 0.70021 0.0
C1040 C 0.2875 0.30384 0.71878 0.0
C1041 C 0.33733 0.28872 0.73522 0.0
H1042 H 0.34327 0.26508 0.73126 0.0
H1043 H 0.35867 0.30171 0.73709 0.0
H1044 H 0.32466 0.28837 0.74879 0.0
O1045 O 0.36139 0.26562 0.67362 0.0
O1046 O 0.32553 0.28043 0.65358 0.0
H1047 H 0.25319 0.29839 0.67685 0.0
H1048 H 0.23385 0.29874 0.6995 0.0
C1049 C 0.25095 0.31042 0.69058 0.0
H1050 H 0.24268 0.3337 0.68769 0.0
H1051 H 0.27553 0.30161 0.63181 0.0
O1052 O 0.39534 0.27991 0.71079 0.0
C1053 C 0.3446 0.26079 0.65928 0.0
Co1054 Co 0.4582 0.61189 0.42103 0.0
Co1055 Co 0.43812 0.55346 0.39825 0.0
C1056 C 0.40322 0.61166 0.39629 0.0
O1057 O 0.42099 0.62468 0.40791 0.0
O1058 O 0.40732 0.58428 0.39124 0.0
C1059 C 0.45291 0.66545 0.44413 0.0
O1060 O 0.42368 0.6615 0.44147 0.0
C1061 C 0.39906 0.50487 0.38248 0.0
C1062 C 0.43261 0.46837 0.37773 0.0
C1063 C 0.40198 0.47506 0.37618 0.0
N1064 N 0.4266 0.51486 0.38794 0.0
N1065 N 0.44655 0.49304 0.38481 0.0
C1066 C 0.37161 0.52486 0.38137 0.0
H1067 H 0.37749 0.54598 0.37372 0.0
H1068 H 0.36432 0.53112 0.39589 0.0
H1069 H 0.35262 0.51411 0.37361 0.0
C1070 C 0.46269 0.56825 0.45164 0.0
N1071 N 0.45251 0.57566 0.43432 0.0
N1072 N 0.44437 0.55095 0.42513 0.0
C1073 C 0.4488 0.52691 0.43662 0.0
C1074 C 0.461 0.537 0.45364 0.0
C1075 C 0.47938 0.59008 0.46414 0.0
H1076 H 0.49858 0.6001 0.45614 0.0
H1077 H 0.46388 0.60883 0.46817 0.0
H1078 H 0.48828 0.5792 0.47714 0.0
O1079 O 0.49094 0.60553 0.4025 0.0
O1080 O 0.47668 0.56517 0.38575 0.0
H1081 H 0.46408 0.48748 0.42189 0.0
H1082 H 0.44384 0.47945 0.44344 0.0
C1083 C 0.4447 0.49452 0.43086 0.0
H1084 H 0.42341 0.49198 0.42265 0.0
H1085 H 0.46974 0.49501 0.3875 0.0
O1086 O 0.4714 0.64604 0.43747 0.0
C1087 C 0.49547 0.58636 0.38933 0.0
H1088 H 0.52546 0.29507 0.20923 0.0
H1089 H 0.57771 0.21342 0.20028 0.0
H1090 H 0.53341 0.18255 0.2076 0.0
H1091 H 0.4784 0.17886 0.21169 0.0
H1092 H 0.42557 0.26042 0.21947 0.0
H1093 H 0.47161 0.291 0.21795 0.0
C1094 C 0.52733 0.27053 0.20922 0.0
C1095 C 0.55472 0.25664 0.2038 0.0
C1096 C 0.50157 0.25281 0.21313 0.0
C1097 C 0.55679 0.22478 0.2041 0.0
C1098 C 0.53143 0.20704 0.20828 0.0
C1099 C 0.47697 0.20326 0.2135 0.0
C1100 C 0.44845 0.21731 0.21529 0.0
C1101 C 0.50344 0.22082 0.21208 0.0
C1102 C 0.44715 0.24896 0.21784 0.0
C1103 C 0.47349 0.26654 0.21686 0.0
H1104 H 0.98704 0.1943 0.45269 0.0
H1105 H 0.07517 0.23692 0.45092 0.0
H1106 H 0.05146 0.28685 0.45268 0.0
H1107 H 0.00565 0.31841 0.45059 0.0
H1108 H 0.91749 0.27577 0.45166 0.0
H1109 H 0.94131 0.22601 0.45457 0.0
C1110 C 0.00112 0.21448 0.45301 0.0
C1111 C 0.03284 0.21181 0.45135 0.0
C1112 C 0.98731 0.24321 0.45373 0.0
C1113 C 0.0507 0.23823 0.45201 0.0
C1114 C 0.03715 0.26686 0.45294 0.0
C1115 C 0.99161 0.29829 0.45176 0.0
C1116 C 0.95982 0.30085 0.45058 0.0
C1117 C 0.00545 0.26964 0.45315 0.0
C1118 C 0.94201 0.27453 0.45237 0.0
C1119 C 0.95562 0.24599 0.45396 0.0
H1120 H 0.06301 0.7478 0.70511 0.0
H1121 H 0.01738 0.83385 0.69837 0.0
H1122 H 0.96829 0.80874 0.70133 0.0
H1123 H 0.93853 0.76169 0.70122 0.0
H1124 H 0.98421 0.6755 0.70709 0.0
H1125 H 0.03297 0.70142 0.70941 0.0
C1126 C 0.04235 0.76115 0.7046 0.0
C1127 C 0.04389 0.79258 0.70115 0.0
C1128 C 0.01416 0.74651 0.706 0.0
C1129 C 0.0169 0.80959 0.70084 0.0
C1130 C 0.98877 0.79523 0.70245 0.0
C1131 C 0.95908 0.74858 0.70334 0.0
C1132 C 0.95774 0.71666 0.7036 0.0
C1133 C 0.98714 0.76358 0.70432 0.0
C1134 C 0.98456 0.70007 0.70666 0.0
C1135 C 0.01252 0.71487 0.70789 0.0
H1136 H 0.48226 0.68135 0.95231 0.0
H1137 H 0.571 0.72264 0.95001 0.0
H1138 H 0.54791 0.77296 0.95011 0.0
H1139 H 0.50258 0.80481 0.94637 0.0
H1140 H 0.41385 0.76339 0.94776 0.0
H1141 H 0.43693 0.7137 0.95274 0.0
C1142 C 0.49661 0.70134 0.95218 0.0
C1143 C 0.52832 0.69814 0.9508 0.0
C1144 C 0.48317 0.73025 0.95187 0.0
C1145 C 0.54653 0.72435 0.95089 0.0
C1146 C 0.53333 0.75319 0.95085 0.0
C1147 C 0.48824 0.785 0.94807 0.0
C1148 C 0.45653 0.7878 0.94634 0.0
C1149 C 0.50167 0.75637 0.95063 0.0
C1150 C 0.43832 0.76192 0.94885 0.0
C1151 C 0.45151 0.73342 0.95163 0.0
H1152 H 0.43512 0.74177 0.29427 0.0
H1153 H 0.4737 0.83182 0.29465 0.0
H1154 H 0.52398 0.8106 0.2889 0.0
H1155 H 0.55767 0.76633 0.28822 0.0
H1156 H 0.5193 0.67619 0.2891 0.0
H1157 H 0.46828 0.69767 0.28954 0.0
C1158 C 0.45443 0.75682 0.2928 0.0
C1159 C 0.45068 0.78831 0.29524 0.0
C1160 C 0.4834 0.74444 0.28984 0.0
C1161 C 0.47592 0.80748 0.29303 0.0
C1162 C 0.50475 0.79535 0.2898 0.0
C1163 C 0.53816 0.75133 0.28815 0.0
C1164 C 0.54238 0.71968 0.28898 0.0
C1165 C 0.50888 0.76383 0.28886 0.0
C1166 C 0.51679 0.70064 0.28865 0.0
C1167 C 0.48756 0.71291 0.28899 0.0
H1168 H 0.49107 0.31686 0.53667 0.0
H1169 H 0.57808 0.27234 0.54098 0.0
H1170 H 0.55413 0.22338 0.53497 0.0
H1171 H 0.50777 0.19265 0.53346 0.0
H1172 H 0.42058 0.23708 0.53033 0.0
H1173 H 0.44541 0.28653 0.53052 0.0
C1174 C 0.50491 0.29653 0.53596 0.0
C1175 C 0.53626 0.29825 0.53966 0.0
C1176 C 0.49091 0.26832 0.53286 0.0
C1177 C 0.55386 0.27171 0.53839 0.0
C1178 C 0.54016 0.24363 0.53502 0.0
C1179 C 0.49418 0.21311 0.53241 0.0
C1180 C 0.46229 0.21109 0.53228 0.0
C1181 C 0.50857 0.24155 0.53299 0.0
C1182 C 0.44513 0.23788 0.53067 0.0
C1183 C 0.45931 0.26624 0.53088 0.0
H1184 H 0.01282 0.18177 0.78259 0.0
H1185 H 0.07434 0.25759 0.77764 0.0
H1186 H 0.03178 0.2918 0.7724 0.0
H1187 H 0.97712 0.3014 0.77506 0.0
H1188 H 0.91558 0.22571 0.78056 0.0
H1189 H 0.95804 0.1904 0.77933 0.0
C1190 C 0.01699 0.20564 0.77992 0.0
C1191 C 0.04666 0.21717 0.78106 0.0
C1192 C 0.99234 0.2254 0.77724 0.0
C1193 C 0.05167 0.24812 0.77722 0.0
C1194 C 0.02731 0.2678 0.77427 0.0
C1195 C 0.9729 0.27717 0.77553 0.0
C1196 C 0.94329 0.26633 0.77845 0.0
C1197 C 0.9975 0.25691 0.77518 0.0
C1198 C 0.93821 0.23478 0.77868 0.0
C1199 C 0.96252 0.2145 0.77805 0.0
H1200 H 0.06199 0.76907 0.03943 0.0
H1201 H 0.98123 0.8245 0.03765 0.0
H1202 H 0.94972 0.77911 0.03642 0.0
H1203 H 0.94492 0.72409 0.0408 0.0
H1204 H 0.02568 0.66878 0.04365 0.0
H1205 H 0.05721 0.71363 0.03919 0.0
C1206 C 0.03753 0.77126 0.03838 0.0
C1207 C 0.02401 0.80015 0.03904 0.0
C1208 C 0.01945 0.74504 0.03808 0.0
C1209 C 0.99227 0.80254 0.03745 0.0
C1210 C 0.97418 0.77656 0.0368 0.0
C1211 C 0.96938 0.72173 0.04006 0.0
C1212 C 0.98289 0.6932 0.04297 0.0
C1213 C 0.98748 0.74772 0.03789 0.0
C1214 C 0.01465 0.69054 0.04175 0.0
C1215 C 0.03276 0.71621 0.03925 0.0
H1216 H 0.5266 0.79871 0.78693 0.0
H1217 H 0.58403 0.71931 0.78784 0.0
H1218 H 0.54022 0.68701 0.78174 0.0
H1219 H 0.48497 0.68073 0.78112 0.0
H1220 H 0.42732 0.75996 0.78136 0.0
H1221 H 0.47185 0.79278 0.78164 0.0
C1222 C 0.52966 0.77441 0.7854 0.0
C1223 C 0.55849 0.76145 0.78825 0.0
C1224 C 0.50424 0.75583 0.78227 0.0
C1225 C 0.56204 0.72991 0.78601 0.0
C1226 C 0.53696 0.71136 0.78256 0.0
C1227 C 0.4821 0.70517 0.78082 0.0
C1228 C 0.45281 0.7178 0.78162 0.0
C1229 C 0.50781 0.72396 0.78144 0.0
C1230 C 0.44958 0.74956 0.781 0.0
C1231 C 0.47506 0.7684 0.78124 0.0
H1232 H 0.06906 0.72846 0.54012 0.0
H1233 H 0.98914 0.67248 0.5348 0.0
H1234 H 0.95765 0.71766 0.53146 0.0
H1235 H 0.95196 0.77275 0.53513 0.0
H1236 H 0.03177 0.82863 0.5415 0.0
H1237 H 0.06403 0.78387 0.53904 0.0
C1238 C 0.04485 0.72608 0.53782 0.0
C1239 C 0.03146 0.69711 0.53813 0.0
C1240 C 0.02672 0.7522 0.53633 0.0
C1241 C 5e-05 0.6945 0.5349 0.0
C1242 C 0.98196 0.72036 0.53305 0.0
C1243 C 0.97643 0.77525 0.53559 0.0
C1244 C 0.98934 0.80395 0.53891 0.0
C1245 C 0.9949 0.74931 0.53455 0.0
C1246 C 0.02114 0.80677 0.53924 0.0
C1247 C 0.03966 0.78114 0.53788 0.0
H1248 H 0.92726 0.26022 0.29758 0.0
H1249 H 0.97174 0.17291 0.29774 0.0
H1250 H 0.02086 0.19761 0.29381 0.0
H1251 H 0.05155 0.24405 0.29464 0.0
H1252 H 0.00712 0.33139 0.29551 0.0
H1253 H 0.95768 0.30657 0.29444 0.0
C1254 C 0.94763 0.24653 0.29645 0.0
C1255 C 0.94582 0.21477 0.29829 0.0
C1256 C 0.97589 0.26091 0.29454 0.0
C1257 C 0.97244 0.1974 0.29654 0.0
C1258 C 0.0006 0.21152 0.29436 0.0
C1259 C 0.03108 0.25771 0.29428 0.0
C1260 C 0.03309 0.28955 0.29549 0.0
C1261 C 0.00268 0.24329 0.29402 0.0
C1262 C 0.00631 0.30685 0.29476 0.0
C1263 C 0.97797 0.29267 0.29423 0.0
H1264 H 0.48354 0.17658 0.03203 0.0
H1265 H 0.57299 0.2157 0.03701 0.0
H1266 H 0.55132 0.26655 0.03522 0.0
H1267 H 0.50655 0.29958 0.03733 0.0
H1268 H 0.41705 0.26034 0.03324 0.0
H1269 H 0.43922 0.21002 0.02933 0.0
C1270 C 0.49839 0.1962 0.03234 0.0
C1271 C 0.52979 0.19228 0.03505 0.0
C1272 C 0.48573 0.22544 0.0317 0.0
C1273 C 0.54871 0.21798 0.03512 0.0
C1274 C 0.53631 0.24714 0.03421 0.0
C1275 C 0.49188 0.2801 0.03524 0.0
C1276 C 0.46017 0.28368 0.03599 0.0
C1277 C 0.50477 0.25111 0.03331 0.0
C1278 C 0.44152 0.25826 0.03294 0.0
C1279 C 0.45419 0.2294 0.03078 0.0
H1280 H 0.5134 0.1863 0.71792 0.0
H1281 H 0.5752 0.26211 0.71464 0.0
H1282 H 0.53385 0.29715 0.7213 0.0
H1283 H 0.47916 0.30673 0.72199 0.0
H1284 H 0.417 0.23112 0.7241 0.0
H1285 H 0.45948 0.19571 0.7245 0.0
C1286 C 0.51797 0.21041 0.7191 0.0
C1287 C 0.54717 0.2216 0.71525 0.0
C1288 C 0.49392 0.23059 0.72255 0.0
C1289 C 0.55278 0.2529 0.71714 0.0
C1290 C 0.52912 0.27302 0.72093 0.0
C1291 C 0.47487 0.28255 0.72306 0.0
C1292 C 0.44494 0.27161 0.72246 0.0
C1293 C 0.49939 0.26223 0.72273 0.0
C1294 C 0.43984 0.24019 0.72417 0.0
C1295 C 0.46414 0.21986 0.7243 0.0
H1296 H 0.51101 0.67941 0.45387 0.0
H1297 H 0.4208 0.71731 0.45101 0.0
H1298 H 0.44112 0.76779 0.45735 0.0
H1299 H 0.48506 0.8019 0.45911 0.0
H1300 H 0.57537 0.76407 0.46136 0.0
H1301 H 0.55437 0.71291 0.46024 0.0
C1302 C 0.49573 0.69864 0.45494 0.0
C1303 C 0.46451 0.69465 0.4516 0.0
C1304 C 0.5076 0.72771 0.45836 0.0
C1305 C 0.44497 0.71972 0.45335 0.0
C1306 C 0.45658 0.74867 0.45691 0.0
C1307 C 0.50015 0.78248 0.45973 0.0
C1308 C 0.53178 0.78689 0.45994 0.0
C1309 C 0.48796 0.75307 0.45873 0.0
C1310 C 0.55095 0.76142 0.46101 0.0
C1311 C 0.53896 0.73209 0.46026 0.0
H1312 H 0.02635 0.70216 0.19744 0.0
H1313 H 0.08195 0.78263 0.19407 0.0
H1314 H 0.03687 0.81447 0.19618 0.0
H1315 H 0.98149 0.81929 0.19433 0.0
H1316 H 0.92584 0.73878 0.19691 0.0
H1317 H 0.97106 0.70733 0.20007 0.0
C1318 C 0.02869 0.72665 0.19752 0.0
C1319 C 0.05748 0.73991 0.19521 0.0
C1320 C 0.00259 0.74492 0.19842 0.0
C1321 C 0.06006 0.77174 0.19558 0.0
C1322 C 0.03425 0.79003 0.19673 0.0
C1323 C 0.97918 0.79493 0.19596 0.0
C1324 C 0.9503 0.78143 0.195 0.0
C1325 C 0.00534 0.77685 0.19743 0.0
C1326 C 0.94778 0.74982 0.19735 0.0
C1327 C 0.97367 0.73174 0.1991 0.0
H1328 H 0.0556 0.26451 0.96312 0.0
H1329 H 0.98027 0.32711 0.96489 0.0
H1330 H 0.94502 0.28496 0.96856 0.0
H1331 H 0.93505 0.23048 0.96503 0.0
H1332 H 0.01032 0.16794 0.9621 0.0
H1333 H 0.04595 0.20983 0.96552 0.0
C1334 C 0.03156 0.26902 0.96479 0.0
C1335 C 0.02057 0.29886 0.96319 0.0
C1336 C 0.01126 0.24461 0.96643 0.0
C1337 C 0.98936 0.30429 0.9657 0.0
C1338 C 0.9691 0.28018 0.96773 0.0
C1339 C 0.95921 0.2259 0.96562 0.0
C1340 C 0.96997 0.19621 0.96277 0.0
C1341 C 0.97968 0.2502 0.96713 0.0
C1342 C 0.00138 0.19066 0.96388 0.0
C1343 C 0.02184 0.21464 0.96578 0.0
H1344 H 0.48386 0.08034 0.13166 0.0
H1345 H 0.44078 0.10523 0.07907 0.0
H1346 H 0.39533 0.12127 0.09611 0.0
H1347 H 0.37085 0.1346 0.12605 0.0
H1348 H 0.41652 0.11586 0.17877 0.0
H1349 H 0.45765 0.09051 0.16174 0.0
C1350 C 0.46423 0.08871 0.12398 0.0
C1351 C 0.46554 0.09179 0.10423 0.0
C1352 C 0.43873 0.09912 0.13393 0.0
C1353 C 0.44023 0.10295 0.09434 0.0
C1354 C 0.41429 0.1121 0.10405 0.0
C1355 C 0.38942 0.12421 0.1338 0.0
C1356 C 0.39077 0.12696 0.15356 0.0
C1357 C 0.41367 0.1112 0.12387 0.0
C1358 C 0.41515 0.11396 0.1635 0.0
C1359 C 0.43869 0.09963 0.15378 0.0
H1360 H 0.14555 0.21041 0.33742 0.0
H1361 H 0.1625 0.26854 0.38533 0.0
H1362 H 0.15038 0.22689 0.40699 0.0
H1363 H 0.12713 0.17671 0.41184 0.0
H1364 H 0.11218 0.11792 0.36393 0.0
H1365 H 0.13215 0.15679 0.34264 0.0
C1366 C 0.14726 0.21361 0.35262 0.0
C1367 C 0.15436 0.24236 0.3599 0.0
C1368 C 0.14052 0.18957 0.3649 0.0
C1369 C 0.15699 0.24645 0.37953 0.0
C1370 C 0.1499 0.22275 0.39187 0.0
C1371 C 0.12907 0.17218 0.39679 0.0
C1372 C 0.11783 0.14485 0.38936 0.0
C1373 C 0.1405 0.19461 0.38468 0.0
C1374 C 0.12072 0.13889 0.36992 0.0
C1375 C 0.13185 0.16119 0.35774 0.0
H1376 H 0.08199 0.88839 0.66311 0.0
H1377 H 0.14239 0.87867 0.6155 0.0
H1378 H 0.10407 0.90054 0.59455 0.0
H1379 H 0.05022 0.91257 0.58906 0.0
H1380 H 0.99005 0.92318 0.63666 0.0
H1381 H 0.03155 0.91114 0.65845 0.0
C1382 C 0.08704 0.89196 0.64825 0.0
C1383 C 0.11461 0.88141 0.64074 0.0
C1384 C 0.06479 0.90418 0.63628 0.0
C1385 C 0.12123 0.88653 0.62156 0.0
C1386 C 0.09921 0.89873 0.60954 0.0
C1387 C 0.04651 0.91301 0.60425 0.0
C1388 C 0.01721 0.91812 0.61134 0.0
C1389 C 0.07041 0.9061 0.61661 0.0
C1390 C 0.01251 0.91916 0.63097 0.0
C1391 C 0.03615 0.9121 0.64339 0.0
H1392 H 0.34471 0.78037 0.82947 0.0
H1393 H 0.33736 0.72064 0.87756 0.0
H1394 H 0.34774 0.76307 0.89901 0.0
H1395 H 0.3665 0.81516 0.90336 0.0
H1396 H 0.37212 0.87526 0.85527 0.0
H1397 H 0.35378 0.83492 0.83452 0.0
C1398 C 0.34484 0.77689 0.84468 0.0
C1399 C 0.34093 0.74758 0.85203 0.0
C1400 C 0.35045 0.80138 0.85685 0.0
C1401 C 0.34052 0.74314 0.87169 0.0
C1402 C 0.34654 0.76732 0.88391 0.0
C1403 C 0.36287 0.81962 0.88842 0.0
C1404 C 0.37113 0.84787 0.88077 0.0
C1405 C 0.35261 0.79627 0.87657 0.0
C1406 C 0.36596 0.85364 0.86147 0.0
C1407 C 0.3558 0.83049 0.84956 0.0
H1408 H 0.45041 0.89197 0.41416 0.0
H1409 H 0.5073 0.91118 0.36603 0.0
H1410 H 0.46513 0.90001 0.34457 0.0
H1411 H 0.4148 0.87725 0.33973 0.0
H1412 H 0.35731 0.85961 0.38783 0.0
H1413 H 0.39669 0.87861 0.40916 0.0
C1414 C 0.45329 0.89424 0.39897 0.0
C1415 C 0.48186 0.90176 0.39157 0.0
C1416 C 0.42892 0.8881 0.38679 0.0
C1417 C 0.48543 0.90525 0.37195 0.0
C1418 C 0.4614 0.89876 0.35971 0.0
C1419 C 0.41063 0.87843 0.35485 0.0
C1420 C 0.38351 0.86671 0.36228 0.0
C1421 C 0.43342 0.88911 0.36698 0.0
C1422 C 0.37806 0.86859 0.38183 0.0
C1423 C 0.40069 0.87911 0.39403 0.0
H1424 H 0.38599 0.13644 0.62462 0.0
H1425 H 0.3682 0.18529 0.5729 0.0
H1426 H 0.34598 0.22716 0.59093 0.0
H1427 H 0.33787 0.25246 0.62151 0.0
H1428 H 0.36154 0.20585 0.67315 0.0
H1429 H 0.375 0.16046 0.65515 0.0
C1430 C 0.37651 0.15593 0.61731 0.0
C1431 C 0.37856 0.15786 0.59753 0.0
C1432 C 0.36525 0.18049 0.6278 0.0
C1433 C 0.36679 0.18342 0.58817 0.0
C1434 C 0.35425 0.20738 0.59846 0.0
C1435 C 0.34543 0.23214 0.6288 0.0
C1436 C 0.34885 0.23243 0.64857 0.0
C1437 C 0.3543 0.20659 0.61831 0.0
C1438 C 0.35898 0.20614 0.6579 0.0
C1439 C 0.36666 0.18022 0.64763 0.0
H1440 H 0.03165 0.11086 0.90606 0.0
H1441 H 0.97479 0.09248 0.85766 0.0
H1442 H 0.01704 0.10359 0.83638 0.0
H1443 H 0.0682 0.12409 0.83166 0.0
H1444 H 0.12575 0.14079 0.87999 0.0
H1445 H 0.08539 0.12398 0.90123 0.0
C1446 C 0.0287 0.109 0.89085 0.0
C1447 C 0.00017 0.10147 0.88336 0.0
C1448 C 0.05315 0.11501 0.87874 0.0
C1449 C 0.9966 0.09845 0.86369 0.0
C1450 C 0.02068 0.10484 0.85154 0.0
C1451 C 0.07207 0.12343 0.84683 0.0
C1452 C 0.09964 0.13401 0.8543 0.0
C1453 C 0.04879 0.11392 0.85891 0.0
C1454 C 0.10466 0.1327 0.87392 0.0
C1455 C 0.08151 0.12339 0.88608 0.0
H1456 H 0.16656 0.804 0.1467 0.0
H1457 H 0.17154 0.7424 0.09945 0.0
H1458 H 0.15456 0.78271 0.078 0.0
H1459 H 0.13004 0.83258 0.07408 0.0
H1460 H 0.12651 0.89452 0.12132 0.0
H1461 H 0.15198 0.85723 0.14138 0.0
C1462 C 0.16473 0.79978 0.1316 0.0
C1463 C 0.16981 0.77045 0.12456 0.0
C1464 C 0.15501 0.82297 0.11947 0.0
C1465 C 0.16773 0.76497 0.10506 0.0
C1466 C 0.1578 0.7879 0.09286 0.0
C1467 C 0.13558 0.83814 0.08864 0.0
C1468 C 0.12591 0.8659 0.09636 0.0
C1469 C 0.15013 0.81657 0.10008 0.0
C1470 C 0.13362 0.87319 0.11511 0.0
C1471 C 0.14796 0.8518 0.12663 0.0
H1472 H 0.53797 0.89808 0.89939 0.0
H1473 H 0.48338 0.90104 0.8488 0.0
H1474 H 0.52733 0.8862 0.82971 0.0
H1475 H 0.57872 0.86431 0.82857 0.0
H1476 H 0.63354 0.86296 0.87923 0.0
H1477 H 0.59232 0.88613 0.89712 0.0
C1478 C 0.53604 0.8962 0.88412 0.0
C1479 C 0.50772 0.9001 0.87542 0.0
C1480 C 0.56131 0.88782 0.87333 0.0
C1481 C 0.50517 0.89805 0.85568 0.0
C1482 C 0.53018 0.88939 0.84482 0.0
C1483 C 0.58185 0.86982 0.84341 0.0
C1484 C 0.60879 0.86138 0.85268 0.0
C1485 C 0.55801 0.88301 0.85363 0.0
C1486 C 0.6129 0.86909 0.87181 0.0
C1487 C 0.58926 0.88211 0.8821 0.0
H1488 H 0.8899 0.81872 0.57792 0.0
H1489 H 0.87835 0.88106 0.6245 0.0
H1490 H 0.857 0.84047 0.64383 0.0
H1491 H 0.84886 0.78587 0.64892 0.0
H1492 H 0.8584 0.72367 0.60228 0.0
H1493 H 0.8732 0.76563 0.5814 0.0
C1494 C 0.88209 0.82353 0.59216 0.0
C1495 C 0.88619 0.85266 0.5999 0.0
C1496 C 0.86988 0.80007 0.60322 0.0
C1497 C 0.87554 0.85878 0.61825 0.0
C1498 C 0.86355 0.83554 0.62937 0.0
C1499 C 0.85358 0.78175 0.63407 0.0
C1500 C 0.85299 0.75199 0.62705 0.0
C1501 C 0.86174 0.80591 0.62223 0.0
C1502 C 0.85877 0.74658 0.60784 0.0
C1503 C 0.86736 0.77049 0.59599 0.0
H1504 H 0.91188 0.11795 0.33821 0.0
H1505 H 0.85738 0.13264 0.38803 0.0
H1506 H 0.89771 0.11173 0.4079 0.0
H1507 H 0.95167 0.09812 0.41132 0.0
H1508 H 0.00557 0.08164 0.3615 0.0
H1509 H 0.96214 0.09402 0.34129 0.0
C1510 C 0.90856 0.1157 0.35336 0.0
C1511 C 0.88206 0.12721 0.36174 0.0
C1512 C 0.93185 0.10378 0.36467 0.0
C1513 C 0.87768 0.12392 0.38131 0.0
C1514 C 0.90083 0.11225 0.39269 0.0
C1515 C 0.95355 0.09649 0.39603 0.0
C1516 C 0.98165 0.08951 0.3878 0.0
C1517 C 0.92851 0.10347 0.38458 0.0
C1518 C 0.98402 0.08703 0.36806 0.0
C1519 C 0.9593 0.0943 0.35653 0.0
H1520 H 0.65253 0.19001 0.14884 0.0
H1521 H 0.6622 0.24781 0.10002 0.0
H1522 H 0.64423 0.20679 0.07944 0.0
H1523 H 0.61778 0.15779 0.07648 0.0
H1524 H 0.6092 0.09983 0.12546 0.0
H1525 H 0.63555 0.13732 0.14481 0.0
C1526 C 0.65142 0.19324 0.13362 0.0
C1527 C 0.65812 0.22177 0.12587 0.0
C1528 C 0.6411 0.16968 0.12199 0.0
C1529 C 0.65707 0.2259 0.10619 0.0
C1530 C 0.6466 0.20256 0.09449 0.0
C1531 C 0.62235 0.15308 0.09129 0.0
C1532 C 0.61098 0.12645 0.09964 0.0
C1533 C 0.63734 0.17483 0.10237 0.0
C1534 C 0.61754 0.12029 0.11873 0.0
C1535 C 0.6324 0.14181 0.12985 0.0
H1536 H 0.61418 0.12658 0.62007 0.0
H1537 H 0.56691 0.11199 0.67266 0.0
H1538 H 0.5234 0.09122 0.65548 0.0
H1539 H 0.49572 0.08602 0.6254 0.0
H1540 H 0.54093 0.10755 0.573 0.0
H1541 H 0.58835 0.11653 0.59004 0.0
C1542 C 0.59475 0.11787 0.62776 0.0
C1543 C 0.59363 0.1207 0.64753 0.0
C1544 C 0.56919 0.10779 0.61774 0.0
C1545 C 0.56816 0.10994 0.65739 0.0
C1546 C 0.54322 0.09832 0.64757 0.0
C1547 C 0.51619 0.09194 0.61773 0.0
C1548 C 0.51494 0.09637 0.59806 0.0
C1549 C 0.54296 0.09847 0.62772 0.0
C1550 C 0.54142 0.10434 0.58821 0.0
C1551 C 0.56849 0.10947 0.59793 0.0
H1552 H 0.66665 0.75904 0.3772 0.0
H1553 H 0.64895 0.80909 0.32597 0.0
H1554 H 0.63394 0.85353 0.34448 0.0
H1555 H 0.61772 0.87467 0.37489 0.0
H1556 H 0.62814 0.82168 0.42578 0.0
H1557 H 0.65462 0.7821 0.40799 0.0
C1558 C 0.66034 0.78002 0.37019 0.0
C1559 C 0.65889 0.78105 0.35036 0.0
C1560 C 0.6501 0.80479 0.38092 0.0
C1561 C 0.65015 0.808 0.34127 0.0
C1562 C 0.64147 0.83329 0.35184 0.0
C1563 C 0.62663 0.85486 0.38214 0.0
C1564 C 0.62108 0.85096 0.40155 0.0
C1565 C 0.64017 0.8315 0.37164 0.0
C1566 C 0.63219 0.82502 0.4108 0.0
C1567 C 0.64716 0.80236 0.40062 0.0
H1568 H 0.92066 0.8838 0.15609 0.0
H1569 H 0.86229 0.87627 0.10725 0.0
H1570 H 0.9016 0.89865 0.08734 0.0
H1571 H 0.95542 0.91181 0.08306 0.0
H1572 H 0.01341 0.92107 0.13185 0.0
H1573 H 0.97131 0.90683 0.15268 0.0
C1574 C 0.91631 0.88783 0.14118 0.0
C1575 C 0.88892 0.87793 0.13305 0.0
C1576 C 0.93905 0.90059 0.12982 0.0
C1577 C 0.88326 0.88365 0.11381 0.0
C1578 C 0.90583 0.89618 0.10238 0.0
C1579 C 0.95849 0.91146 0.09831 0.0
C1580 C 0.9873 0.91701 0.10602 0.0
C1581 C 0.93423 0.90344 0.1101 0.0
C1582 C 0.99126 0.91685 0.12572 0.0
C1583 C 0.9673 0.90853 0.13757 0.0
H1584 H 0.86494 0.13294 0.87118 0.0
H1585 H 0.86273 0.18335 0.92348 0.0
H1586 H 0.84142 0.22723 0.90692 0.0
H1587 H 0.8319 0.25378 0.87674 0.0
H1588 H 0.841 0.20474 0.82425 0.0
H1589 H 0.85081 0.15779 0.8416 0.0
C1590 C 0.85889 0.1532 0.87906 0.0
C1591 C 0.86543 0.15498 0.89849 0.0
C1592 C 0.84837 0.17881 0.86928 0.0
C1593 C 0.85793 0.18152 0.90848 0.0
C1594 C 0.84595 0.20667 0.899 0.0
C1595 C 0.8353 0.2326 0.8692 0.0
C1596 C 0.83592 0.23254 0.84933 0.0
C1597 C 0.84238 0.20601 0.87926 0.0
C1598 C 0.84069 0.20519 0.83959 0.0
C1599 C 0.84631 0.17841 0.84948 0.0
H1600 H 0.99739 0.57524 0.63137 0.0
H1601 H 0.95746 0.59275 0.57671 0.0
H1602 H 0.90855 0.60329 0.59153 0.0
H1603 H 0.88059 0.61733 0.62005 0.0
H1604 H 0.92286 0.60744 0.67472 0.0
H1605 H 0.96694 0.58321 0.66011 0.0
C1606 C 0.9777 0.58056 0.62275 0.0
C1607 C 0.98087 0.5836 0.60309 0.0
C1608 C 0.9501 0.5881 0.63145 0.0
C1609 C 0.95544 0.59071 0.59195 0.0
C1610 C 0.92753 0.59672 0.6004 0.0
C1611 C 0.89894 0.60873 0.62879 0.0
C1612 C 0.89867 0.61407 0.64835 0.0
C1613 C 0.92499 0.59688 0.62017 0.0
C1614 C 0.92274 0.60344 0.65959 0.0
C1615 C 0.94803 0.5899 0.65122 0.0
H1616 H 0.62278 0.65825 0.91454 0.0
H1617 H 0.60962 0.60237 0.86509 0.0
H1618 H 0.63427 0.64076 0.8454 0.0
H1619 H 0.65157 0.69353 0.84174 0.0
H1620 H 0.66604 0.74887 0.89126 0.0
H1621 H 0.64917 0.70718 0.91159 0.0
C1622 C 0.62604 0.65422 0.89952 0.0
C1623 C 0.61403 0.62793 0.89114 0.0
C1624 C 0.64005 0.67639 0.88834 0.0
C1625 C 0.61869 0.62255 0.87178 0.0
C1626 C 0.63251 0.64459 0.86051 0.0
C1627 C 0.65163 0.69612 0.85702 0.0
C1628 C 0.65942 0.72418 0.86508 0.0
C1629 C 0.64204 0.6721 0.86854 0.0
C1630 C 0.65998 0.72738 0.88484 0.0
C1631 C 0.65019 0.70366 0.89642 0.0
H1632 H 0.57357 0.35932 0.16058 0.0
H1633 H 0.63401 0.35871 0.11256 0.0
H1634 H 0.59428 0.38033 0.09266 0.0
H1635 H 0.54007 0.39138 0.08785 0.0
H1636 H 0.48006 0.39435 0.1359 0.0
H1637 H 0.52192 0.38002 0.15694 0.0
C1638 C 0.57824 0.36468 0.14588 0.0
C1639 C 0.60646 0.35693 0.13797 0.0
C1640 C 0.55526 0.37707 0.13448 0.0
C1641 C 0.61243 0.36437 0.11899 0.0
C1642 C 0.58964 0.37648 0.10753 0.0
C1643 C 0.53646 0.38955 0.103 0.0
C1644 C 0.50721 0.39342 0.1104 0.0
C1645 C 0.56062 0.38166 0.11495 0.0
C1646 C 0.50255 0.39141 0.13 0.0
C1647 C 0.52639 0.38307 0.14198 0.0
H1648 H 0.83666 0.29553 0.34259 0.0
H1649 H 0.82526 0.24151 0.39294 0.0
H1650 H 0.83835 0.28528 0.41268 0.0
H1651 H 0.86132 0.33604 0.41494 0.0
H1652 H 0.87117 0.39055 0.36461 0.0
H1653 H 0.84944 0.34976 0.34548 0.0
C1654 C 0.83636 0.29369 0.35791 0.0
C1655 C 0.8306 0.2655 0.36641 0.0
C1656 C 0.84367 0.31892 0.36909 0.0
C1657 C 0.82976 0.26314 0.3862 0.0
C1658 C 0.83738 0.28806 0.39745 0.0
C1659 C 0.85781 0.33926 0.39986 0.0
C1660 C 0.86821 0.3659 0.39109 0.0
C1661 C 0.84556 0.31567 0.38898 0.0
C1662 C 0.8633 0.37016 0.37163 0.0
C1663 C 0.8512 0.34674 0.36067 0.0
H1664 H 0.87863 0.36247 0.86974 0.0
H1665 H 0.92258 0.37804 0.81615 0.0
H1666 H 0.96648 0.40001 0.83234 0.0
H1667 H 0.99525 0.40748 0.86186 0.0
H1668 H 0.95327 0.38575 0.91528 0.0
H1669 H 0.90575 0.37371 0.89918 0.0
C1670 C 0.89745 0.37154 0.86163 0.0
C1671 C 0.89748 0.36881 0.84186 0.0
C1672 C 0.92322 0.38252 0.87107 0.0
C1673 C 0.92219 0.38002 0.83144 0.0
C1674 C 0.94733 0.39237 0.84069 0.0
C1675 C 0.97547 0.40069 0.86995 0.0
C1676 C 0.9777 0.39725 0.88965 0.0
C1677 C 0.94859 0.39261 0.86052 0.0
C1678 C 0.95208 0.38821 0.90004 0.0
C1679 C 0.92492 0.38136 0.89086 0.0
H1680 H 0.87667 0.66765 0.08022 0.0
H1681 H 0.88123 0.61427 0.13135 0.0
H1682 H 0.85705 0.65521 0.14907 0.0
H1683 H 0.84313 0.70921 0.15091 0.0
H1684 H 0.83698 0.76223 0.09981 0.0
H1685 H 0.853 0.71829 0.08105 0.0
C1686 C 0.87159 0.66473 0.09514 0.0
C1687 C 0.88117 0.63831 0.10457 0.0
C1688 C 0.85784 0.6884 0.10524 0.0
C1689 C 0.87412 0.63447 0.12381 0.0
C1690 C 0.86056 0.65797 0.13399 0.0
C1691 C 0.8446 0.71079 0.13561 0.0
C1692 C 0.83942 0.73874 0.12667 0.0
C1693 C 0.85363 0.6855 0.125 0.0
C1694 C 0.84094 0.74077 0.10688 0.0
C1695 C 0.85027 0.71576 0.09621 0.0
H1696 H 0.55206 0.60188 0.40021 0.0
H1697 H 0.49793 0.58082 0.35109 0.0
H1698 H 0.53881 0.5983 0.33035 0.0
H1699 H 0.58647 0.62671 0.32667 0.0
H1700 H 0.6414 0.64614 0.37573 0.0
H1701 H 0.604 0.62142 0.39611 0.0
C1702 C 0.54959 0.60055 0.38495 0.0
C1703 C 0.52205 0.59065 0.37709 0.0
C1704 C 0.57319 0.61042 0.37319 0.0
C1705 C 0.51901 0.58849 0.35736 0.0
C1706 C 0.54227 0.59862 0.34554 0.0
C1707 C 0.59055 0.62479 0.34177 0.0
C1708 C 0.61627 0.63855 0.3498 0.0
C1709 C 0.56896 0.61067 0.35334 0.0
C1710 C 0.62169 0.63567 0.3693 0.0
C1711 C 0.6002 0.62181 0.38095 0.0
H1712 H 0.64027 0.28783 0.66018 0.0
H1713 H 0.65533 0.23171 0.61109 0.0
H1714 H 0.64408 0.2747 0.59031 0.0
H1715 H 0.62313 0.32604 0.58641 0.0
H1716 H 0.60984 0.38273 0.63549 0.0
H1717 H 0.62815 0.34201 0.65601 0.0
C1718 C 0.64153 0.28525 0.64493 0.0
C1719 C 0.648 0.2567 0.63709 0.0
C1720 C 0.63543 0.31011 0.63312 0.0
C1721 C 0.65021 0.25355 0.61737 0.0
C1722 C 0.6437 0.27806 0.60551 0.0
C1723 C 0.62502 0.3297 0.60156 0.0
C1724 C 0.61475 0.35709 0.60948 0.0
C1725 C 0.63533 0.30615 0.61325 0.0
C1726 C 0.61763 0.36181 0.62907 0.0
C1727 C 0.62778 0.33842 0.64083 0.0
H1728 H 0.03777 0.4106 0.40429 0.0
H1729 H 0.97983 0.42354 0.35577 0.0
H1730 H 0.02197 0.41105 0.33459 0.0
H1731 H 0.07245 0.38816 0.33054 0.0
H1732 H 0.13088 0.37669 0.37902 0.0
H1733 H 0.0917 0.39787 0.39962 0.0
C1734 C 0.0347 0.41133 0.38905 0.0
C1735 C 0.00588 0.41735 0.38148 0.0
C1736 C 0.05901 0.40438 0.37704 0.0
C1737 C 0.00195 0.4188 0.36179 0.0
C1738 C 0.02594 0.41154 0.34973 0.0
C1739 C 0.07687 0.39123 0.34554 0.0
C1740 C 0.10415 0.38052 0.35337 0.0
C1741 C 0.05419 0.40312 0.35726 0.0
C1742 C 0.10997 0.38482 0.37273 0.0
C1743 C 0.08746 0.39659 0.38453 0.0
H1744 H 0.37752 0.36365 0.12653 0.0
H1745 H 0.36107 0.31481 0.07467 0.0
H1746 H 0.33746 0.27341 0.09243 0.0
H1747 H 0.32964 0.24774 0.12292 0.0
H1748 H 0.35306 0.29395 0.17472 0.0
H1749 H 0.36558 0.33983 0.15692 0.0
C1750 C 0.36783 0.34436 0.11912 0.0
C1751 C 0.37082 0.34216 0.0994 0.0
C1752 C 0.35611 0.31994 0.1295 0.0
C1753 C 0.35886 0.31687 0.08989 0.0
C1754 C 0.34561 0.29315 0.10005 0.0
C1755 C 0.33682 0.26812 0.13029 0.0
C1756 C 0.34065 0.26758 0.15001 0.0
C1757 C 0.34534 0.29387 0.11989 0.0
C1758 C 0.35025 0.2939 0.15947 0.0
C1759 C 0.3574 0.32008 0.14932 0.0
H1760 H 0.37535 0.61362 0.86502 0.0
H1761 H 0.42764 0.60821 0.81361 0.0
H1762 H 0.46953 0.58443 0.83087 0.0
H1763 H 0.49426 0.5736 0.86143 0.0
H1764 H 0.44412 0.5863 0.91315 0.0
H1765 H 0.39832 0.59837 0.89509 0.0
C1766 C 0.39554 0.60632 0.85752 0.0
C1767 C 0.39851 0.61256 0.83813 0.0
C1768 C 0.42011 0.59438 0.86773 0.0
C1769 C 0.42497 0.60358 0.82858 0.0
C1770 C 0.44895 0.59018 0.83846 0.0
C1771 C 0.47302 0.57819 0.86864 0.0
C1772 C 0.47231 0.57909 0.88849 0.0
C1773 C 0.44728 0.58671 0.85817 0.0
C1774 C 0.44498 0.58557 0.89783 0.0
C1775 C 0.41889 0.59255 0.88752 0.0
H1776 H 0.14903 0.71027 0.6565 0.0
H1777 H 0.16543 0.76607 0.60748 0.0
H1778 H 0.15111 0.72394 0.58665 0.0
H1779 H 0.12759 0.67353 0.58284 0.0
H1780 H 0.11372 0.61705 0.63197 0.0
H1781 H 0.13403 0.65691 0.65235 0.0
C1782 C 0.15003 0.71289 0.64124 0.0
C1783 C 0.15783 0.7411 0.63343 0.0
C1784 C 0.14211 0.68857 0.62944 0.0
C1785 C 0.15948 0.7444 0.61371 0.0
C1786 C 0.15112 0.72043 0.60184 0.0
C1787 C 0.12964 0.66977 0.59796 0.0
C1788 C 0.11879 0.64263 0.60594 0.0
C1789 C 0.14147 0.69274 0.60959 0.0
C1790 C 0.12191 0.63777 0.62551 0.0
C1791 C 0.1333 0.66064 0.63719 0.0
H1792 H 0.08842 0.6307 0.16392 0.0
H1793 H 0.14435 0.63054 0.11384 0.0
H1794 H 0.1044 0.60443 0.09623 0.0
H1795 H 0.05055 0.59017 0.09383 0.0
H1796 H 0.99494 0.58897 0.14394 0.0
H1797 H 0.03792 0.60683 0.16297 0.0
C1798 C 0.0921 0.62419 0.14929 0.0
C1799 C 0.11894 0.63296 0.14005 0.0
C1800 C 0.069 0.60936 0.13925 0.0
C1801 C 0.12379 0.62407 0.12121 0.0
C1802 C 0.10087 0.6094 0.11109 0.0
C1803 C 0.0482 0.59309 0.10902 0.0
C1804 C 0.0198 0.58878 0.11755 0.0
C1805 C 0.07293 0.60323 0.11976 0.0
C1806 C 0.01676 0.59222 0.13719 0.0
C1807 C 0.04122 0.6026 0.14799 0.0
H1808 H 0.11344 0.36479 0.86852 0.0
H1809 H 0.12762 0.31899 0.92176 0.0
H1810 H 0.15337 0.27736 0.90545 0.0
H1811 H 0.16408 0.25051 0.87575 0.0
H1812 H 0.14333 0.29349 0.82246 0.0
H1813 H 0.1284 0.33993 0.83897 0.0
C1814 C 0.12292 0.34607 0.87658 0.0
C1815 C 0.11861 0.3448 0.89626 0.0
C1816 C 0.13621 0.32157 0.86702 0.0
C1817 C 0.13059 0.32029 0.90656 0.0
C1818 C 0.14519 0.29648 0.89724 0.0
C1819 C 0.15711 0.27038 0.86778 0.0
C1820 C 0.15473 0.26876 0.84799 0.0
C1821 C 0.14701 0.29632 0.87742 0.0
C1822 C 0.14521 0.29436 0.83775 0.0
C1823 C 0.13657 0.3208 0.84718 0.0
H1824 H 0.49498 0.4135 0.63675 0.0
H1825 H 0.44962 0.39567 0.58382 0.0
H1826 H 0.40321 0.38211 0.6007 0.0
H1827 H 0.37859 0.36774 0.63031 0.0
H1828 H 0.42618 0.3789 0.68323 0.0
H1829 H 0.46844 0.40322 0.66671 0.0
C1830 C 0.47464 0.40736 0.62899 0.0
C1831 C 0.47552 0.40542 0.60917 0.0
C1832 C 0.44858 0.39815 0.63882 0.0
C1833 C 0.44932 0.39708 0.59913 0.0
C1834 C 0.42287 0.3893 0.60876 0.0
C1835 C 0.39783 0.37628 0.63828 0.0
C1836 C 0.39941 0.37151 0.6579 0.0
C1837 C 0.42263 0.38864 0.6286 0.0
C1838 C 0.42462 0.38227 0.66807 0.0
C1839 C 0.44881 0.39601 0.65863 0.0
H1840 H 0.34418 0.69914 0.33813 0.0
H1841 H 0.32849 0.75123 0.38881 0.0
H1842 H 0.34467 0.70821 0.40829 0.0
H1843 H 0.37168 0.65938 0.41026 0.0
H1844 H 0.38559 0.60661 0.35959 0.0
H1845 H 0.36089 0.64594 0.3407 0.0
C1846 C 0.34354 0.70065 0.35346 0.0
C1847 C 0.3357 0.7282 0.36212 0.0
C1848 C 0.35272 0.67585 0.3645 0.0
C1849 C 0.33452 0.7301 0.38193 0.0
C1850 C 0.34396 0.70563 0.39304 0.0
C1851 C 0.36847 0.65617 0.39516 0.0
C1852 C 0.38087 0.63054 0.38623 0.0
C1853 C 0.35435 0.6789 0.38441 0.0
C1854 C 0.37627 0.62626 0.36674 0.0
C1855 C 0.36241 0.64886 0.35591 0.0
H1856 H 0.12897 0.07931 0.09232 0.0
H1857 H 0.15887 0.00395 0.12644 0.0
H1858 H 0.19815 0.03573 0.14086 0.0
H1859 H 0.22153 0.08581 0.1451 0.0
H1860 H 0.19329 0.16041 0.10951 0.0
H1861 H 0.15525 0.12823 0.09471 0.0
C1862 C 0.14433 0.06985 0.10279 0.0
C1863 C 0.14131 0.03939 0.10822 0.0
C1864 C 0.16688 0.08817 0.1109 0.0
C1865 C 0.1612 0.02725 0.1218 0.0
C1866 C 0.18347 0.04548 0.13015 0.0
C1867 C 0.20795 0.09491 0.13369 0.0
C1868 C 0.21087 0.12553 0.12829 0.0
C1869 C 0.18636 0.07608 0.12491 0.0
C1870 C 0.19166 0.13698 0.11404 0.0
C1871 C 0.16989 0.11857 0.10548 0.0
H1872 H 0.22883 0.90125 0.38276 0.0
H1873 H 0.16805 0.85645 0.34397 0.0
H1874 H 0.12908 0.89473 0.35006 0.0
H1875 H 0.11205 0.94004 0.36683 0.0
H1876 H 0.17077 0.98166 0.40835 0.0
H1877 H 0.21084 0.94607 0.40051 0.0
C1878 C 0.20715 0.90019 0.37553 0.0
C1879 C 0.20128 0.87642 0.3628 0.0
C1880 C 0.18456 0.9218 0.3795 0.0
C1881 C 0.17295 0.87469 0.3538 0.0
C1882 C 0.15072 0.89653 0.35727 0.0
C1883 C 0.1336 0.94148 0.37421 0.0
C1884 C 0.13843 0.96446 0.38773 0.0
C1885 C 0.15622 0.92005 0.3702 0.0
C1886 C 0.1665 0.96548 0.39723 0.0
C1887 C 0.18946 0.94466 0.39296 0.0
H1888 H 0.2651 0.9124 0.61769 0.0
H1889 H 0.32813 0.86882 0.65562 0.0
H1890 H 0.36605 0.90796 0.64906 0.0
H1891 H 0.38166 0.95335 0.63187 0.0
H1892 H 0.32069 0.99341 0.59095 0.0
H1893 H 0.28156 0.9575 0.59965 0.0
C1894 C 0.28704 0.91181 0.62464 0.0
C1895 C 0.29386 0.88812 0.63726 0.0
C1896 C 0.30903 0.93386 0.62035 0.0
C1897 C 0.3225 0.88699 0.6459 0.0
C1898 C 0.34412 0.90932 0.64215 0.0
C1899 C 0.35982 0.95444 0.62482 0.0
C1900 C 0.35423 0.97706 0.61114 0.0
C1901 C 0.33771 0.93269 0.62926 0.0
C1902 C 0.32572 0.97757 0.60212 0.0
C1903 C 0.30323 0.95652 0.60689 0.0
H1904 H 0.26742 0.08099 0.84669 0.0
H1905 H 0.30541 0.1474 0.88498 0.0
H1906 H 0.34527 0.11192 0.89371 0.0
H1907 H 0.37017 0.06245 0.89002 0.0
H1908 H 0.32993 0.99458 0.85404 0.0
H1909 H 0.28926 0.02995 0.84534 0.0
C1910 C 0.2835 0.08758 0.85745 0.0
C1911 C 0.28275 0.11693 0.86534 0.0
C1912 C 0.30607 0.06675 0.86281 0.0
C1913 C 0.30523 0.12506 0.87859 0.0
C1914 C 0.32809 0.10475 0.88367 0.0
C1915 C 0.35232 0.05546 0.88037 0.0
C1916 C 0.35286 0.02619 0.87261 0.0
C1917 C 0.32887 0.07565 0.87576 0.0
C1918 C 0.32968 0.01706 0.86024 0.0
C1919 C 0.30658 0.03729 0.85523 0.0
H1920 H 0.84174 0.9626 0.90219 0.0
H1921 H 0.85018 0.98424 0.84293 0.0
H1922 H 0.81505 0.94332 0.83484 0.0
H1923 H 0.78487 0.89929 0.84448 0.0
H1924 H 0.77803 0.87604 0.90359 0.0
H1925 H 0.80979 0.91956 0.91195 0.0
C1926 C 0.83524 0.9588 0.88758 0.0
C1927 C 0.84805 0.97659 0.87318 0.0
C1928 C 0.81567 0.93473 0.88302 0.0
C1929 C 0.84038 0.97082 0.85423 0.0
C1930 C 0.82039 0.94743 0.8496 0.0
C1931 C 0.78969 0.90419 0.8592 0.0
C1932 C 0.77874 0.88486 0.87342 0.0
C1933 C 0.80827 0.92895 0.86385 0.0
C1934 C 0.78622 0.89073 0.89241 0.0
C1935 C 0.80429 0.91561 0.8972 0.0
H1936 H 0.86464 0.0661 0.59527 0.0
H1937 H 0.83239 0.99292 0.63027 0.0
H1938 H 0.78987 0.02447 0.64103 0.0
H1939 H 0.76475 0.07435 0.64226 0.0
H1940 H 0.79575 0.14616 0.60537 0.0
H1941 H 0.83626 0.11376 0.59383 0.0
C1942 C 0.84806 0.05704 0.60511 0.0
C1943 C 0.85147 0.02744 0.61204 0.0
C1944 C 0.82369 0.07511 0.61101 0.0
C1945 C 0.82992 0.01567 0.62467 0.0
C1946 C 0.80578 0.03375 0.63088 0.0
C1947 C 0.77953 0.08272 0.63124 0.0
C1948 C 0.77676 0.11277 0.62465 0.0
C1949 C 0.80268 0.06371 0.62434 0.0
C1950 C 0.79728 0.12325 0.61085 0.0
C1951 C 0.82051 0.10472 0.60417 0.0
H1952 H 0.61576 0.0664 0.40362 0.0
H1953 H 0.65543 0.99465 0.37043 0.0
H1954 H 0.69441 0.0296 0.35877 0.0
H1955 H 0.71512 0.08111 0.35688 0.0
H1956 H 0.67744 0.15188 0.39209 0.0
H1957 H 0.6391 0.11689 0.40363 0.0
C1958 C 0.63312 0.05846 0.39393 0.0
C1959 C 0.63296 0.02812 0.38793 0.0
C1960 C 0.65553 0.07852 0.38751 0.0
C1961 C 0.65547 0.01789 0.37542 0.0
C1962 C 0.67758 0.0379 0.36867 0.0
C1963 C 0.69942 0.08885 0.36754 0.0
C1964 C 0.69989 0.11921 0.37379 0.0
C1965 C 0.67773 0.06835 0.37455 0.0
C1966 C 0.67784 0.12873 0.38694 0.0
C1967 C 0.65587 0.1087 0.39365 0.0
H1968 H 0.67006 0.86015 0.12611 0.0
H1969 H 0.73984 0.92879 0.12517 0.0
H1970 H 0.70156 0.96802 0.1206 0.0
H1971 H 0.64821 0.98276 0.11637 0.0
H1972 H 0.57891 0.91363 0.11514 0.0
H1973 H 0.61706 0.87472 0.12128 0.0
C1974 C 0.67695 0.8837 0.12493 0.0
C1975 C 0.7078 0.89147 0.12645 0.0
C1976 C 0.65487 0.90608 0.12181 0.0
C1977 C 0.71627 0.92211 0.1248 0.0
C1978 C 0.69436 0.9446 0.12191 0.0
C1979 C 0.64148 0.95917 0.11697 0.0
C1980 C 0.61079 0.9511 0.11478 0.0
C1981 C 0.6636 0.93682 0.12029 0.0
C1982 C 0.6024 0.92047 0.11663 0.0
C1983 C 0.6242 0.89818 0.12009 0.0
H1984 H 0.66315 0.50847 0.62277 0.0
H1985 H 0.5929 0.57626 0.61764 0.0
H1986 H 0.62982 0.61621 0.62371 0.0
H1987 H 0.68194 0.63212 0.63003 0.0
H1988 H 0.75296 0.56494 0.63352 0.0
H1989 H 0.71591 0.52463 0.62849 0.0
C1990 C 0.65599 0.53196 0.62256 0.0
C1991 C 0.62532 0.53931 0.61936 0.0
C1992 C 0.67744 0.55498 0.62598 0.0
C1993 C 0.61635 0.56992 0.61998 0.0
C1994 C 0.63746 0.59283 0.62342 0.0
C1995 C 0.68937 0.60865 0.62972 0.0
C1996 C 0.72016 0.60165 0.63262 0.0
C1997 C 0.66805 0.58563 0.6264 0.0
C1998 C 0.72934 0.57109 0.63207 0.0
C1999 C 0.70816 0.54797 0.62891 0.0
H2000 H 0.69317 0.36331 0.88084 0.0
H2001 H 0.7306 0.42524 0.83961 0.0
H2002 H 0.69402 0.46363 0.84885 0.0
H2003 H 0.64893 0.47893 0.86741 0.0
H2004 H 0.60841 0.41472 0.90583 0.0
H2005 H 0.64824 0.37784 0.89869 0.0
C2006 C 0.69355 0.3852 0.87383 0.0
C2007 C 0.7155 0.39128 0.85984 0.0
C2008 C 0.6715 0.40681 0.87862 0.0
C2009 C 0.71517 0.41987 0.85094 0.0
C2010 C 0.69376 0.44189 0.85603 0.0
C2011 C 0.64917 0.45697 0.87435 0.0
C2012 C 0.62609 0.44952 0.88725 0.0
C2013 C 0.67167 0.43554 0.86974 0.0
C2014 C 0.62606 0.42084 0.89587 0.0
C2015 C 0.6488 0.39981 0.8918 0.0
H2016 H 0.86 0.45863 0.14346 0.0
H2017 H 0.85969 0.45538 0.08247 0.0
H2018 H 0.82016 0.41651 0.08307 0.0
H2019 H 0.78725 0.38178 0.10105 0.0
H2020 H 0.78721 0.38542 0.16203 0.0
H2021 H 0.82513 0.42585 0.16139 0.0
C2022 C 0.85106 0.4495 0.13032 0.0
C2023 C 0.86243 0.46001 0.11295 0.0
C2024 C 0.82831 0.42723 0.1308 0.0
C2025 C 0.85078 0.44812 0.096 0.0
C2026 C 0.82839 0.42569 0.09634 0.0
C2027 C 0.79544 0.39165 0.11417 0.0
C2028 C 0.78427 0.38096 0.13155 0.0
C2029 C 0.81719 0.4149 0.11366 0.0
C2030 C 0.79496 0.3938 0.14847 0.0
C2031 C 0.81685 0.4167 0.14811 0.0
H2032 H 0.76669 0.61206 0.37385 0.0
H2033 H 0.82946 0.65203 0.33433 0.0
H2034 H 0.8674 0.61351 0.34223 0.0
H2035 H 0.8828 0.56919 0.36056 0.0
H2036 H 0.82204 0.53247 0.40268 0.0
H2037 H 0.78319 0.56846 0.39332 0.0
C2038 C 0.7886 0.61202 0.36687 0.0
C2039 C 0.79529 0.63445 0.35337 0.0
C2040 C 0.81056 0.59029 0.37185 0.0
C2041 C 0.82391 0.63481 0.34472 0.0
C2042 C 0.84554 0.61283 0.34922 0.0
C2043 C 0.86109 0.5689 0.36776 0.0
C2044 C 0.85534 0.54711 0.38191 0.0
C2045 C 0.83915 0.59057 0.36284 0.0
C2046 C 0.82705 0.54764 0.39114 0.0
C2047 C 0.80477 0.56871 0.38598 0.0
H2048 H 0.32023 0.37278 0.33989 0.0
H2049 H 0.25375 0.41203 0.37727 0.0
H2050 H 0.29099 0.44938 0.3882 0.0
H2051 H 0.34328 0.46882 0.3883 0.0
H2052 H 0.40866 0.43188 0.34915 0.0
H2053 H 0.37136 0.39488 0.33819 0.0
C2054 C 0.31392 0.38972 0.35031 0.0
C2055 C 0.28437 0.38992 0.3577 0.0
C2056 C 0.33531 0.41123 0.35634 0.0
C2057 C 0.27629 0.41185 0.37118 0.0
C2058 C 0.29762 0.43301 0.37753 0.0
C2059 C 0.34907 0.45351 0.37686 0.0
C2060 C 0.37848 0.4538 0.36914 0.0
C2061 C 0.32726 0.4328 0.37027 0.0
C2062 C 0.38609 0.43236 0.3552 0.0
C2063 C 0.36476 0.41123 0.34888 0.0
H2064 H 0.38358 0.54825 0.13072 0.0
H2065 H 0.32357 0.50923 0.0889 0.0
H2066 H 0.28548 0.54716 0.09609 0.0
H2067 H 0.26984 0.59365 0.11308 0.0
H2068 H 0.33243 0.63605 0.15177 0.0
H2069 H 0.36894 0.59497 0.1468 0.0
C2070 C 0.36217 0.54784 0.12315 0.0
C2071 C 0.35643 0.52492 0.1097 0.0
C2072 C 0.34078 0.57069 0.12671 0.0
C2073 C 0.32853 0.52529 0.09997 0.0
C2074 C 0.3067 0.54749 0.10385 0.0
C2075 C 0.29137 0.59356 0.12053 0.0
C2076 C 0.2985 0.61746 0.1329 0.0
C2077 C 0.31263 0.5704 0.11711 0.0
C2078 C 0.3266 0.6177 0.14223 0.0
C2079 C 0.34741 0.59428 0.13938 0.0
H2080 H 0.21862 0.59529 0.88101 0.0
H2081 H 0.21435 0.57983 0.82082 0.0
H2082 H 0.17553 0.54086 0.82554 0.0
H2083 H 0.14069 0.51329 0.84681 0.0
H2084 H 0.14576 0.52851 0.90701 0.0
H2085 H 0.18643 0.56539 0.90235 0.0
C2086 C 0.20934 0.58315 0.86896 0.0
C2087 C 0.21938 0.59019 0.85062 0.0
C2088 C 0.18713 0.56085 0.87181 0.0
C2089 C 0.20736 0.57435 0.8351 0.0
C2090 C 0.18497 0.5523 0.83778 0.0
C2091 C 0.15094 0.52457 0.85887 0.0
C2092 C 0.14053 0.51809 0.87722 0.0
C2093 C 0.1744 0.54566 0.85606 0.0
C2094 C 0.15388 0.5327 0.89279 0.0
C2095 C 0.17693 0.55397 0.89012 0.0
H2096 H 0.22588 0.39136 0.60881 0.0
H2097 H 0.2129 0.39471 0.66925 0.0
H2098 H 0.17356 0.43333 0.66537 0.0
H2099 H 0.14126 0.46449 0.6446 0.0
H2100 H 0.15464 0.46158 0.58419 0.0
H2101 H 0.19549 0.42458 0.58816 0.0
C2102 C 0.21453 0.40077 0.6211 0.0
C2103 C 0.22241 0.39054 0.63928 0.0
C2104 C 0.19202 0.42298 0.61874 0.0
C2105 C 0.20767 0.40278 0.65515 0.0
C2106 C 0.18499 0.42463 0.65292 0.0
C2107 C 0.15332 0.45584 0.63235 0.0
C2108 C 0.14526 0.46588 0.61416 0.0
C2109 C 0.1768 0.43468 0.63477 0.0
C2110 C 0.16094 0.45465 0.59836 0.0
C2111 C 0.18409 0.43331 0.60062 0.0
H2112 H 0.25441 0.24042 0.21269 0.0
H2113 H 0.27594 0.17814 0.25776 0.0
H2114 H 0.24736 0.20956 0.28023 0.0
H2115 H 0.21799 0.25574 0.28699 0.0
H2116 H 0.19654 0.31813 0.242 0.0
H2117 H 0.22348 0.28569 0.21923 0.0
C2118 C 0.25224 0.23354 0.22737 0.0
C2119 C 0.2667 0.20703 0.23371 0.0
C2120 C 0.23629 0.25188 0.24009 0.0
C2121 C 0.26456 0.1984 0.25274 0.0
C2122 C 0.24847 0.2164 0.26551 0.0
C2123 C 0.21948 0.26216 0.27219 0.0
C2124 C 0.20599 0.28923 0.266 0.0
C2125 C 0.23463 0.24337 0.25937 0.0
C2126 C 0.20727 0.29743 0.24688 0.0
C2127 C 0.22248 0.27889 0.23397 0.0
H2128 H 0.00961 0.96629 0.52854 0.0
H2129 H 0.92283 0.99511 0.50693 0.0
H2130 H 0.94816 0.02944 0.48456 0.0
H2131 H 0.99517 0.04967 0.47065 0.0
H2132 H 0.0819 0.01989 0.49182 0.0
H2133 H 0.05653 0.98709 0.51501 0.0
C2134 C 0.99636 0.98003 0.51882 0.0
C2135 C 0.96458 0.9782 0.51906 0.0
C2136 C 0.01106 -0.00063 0.50609 0.0
C2137 C 0.94738 0.99627 0.50677 0.0
C2138 C 0.96183 0.01578 0.49406 0.0
C2139 C 0.00837 0.03624 0.48056 0.0
C2140 C 0.04018 0.03717 0.47986 0.0
C2141 C 0.99364 0.01736 0.49356 0.0
C2142 C 0.05734 0.01947 0.49238 0.0
C2143 C 0.04287 0.00076 0.50551 0.0
H2144 H 0.2622 0.73594 0.78115 0.0
H2145 H 0.28692 0.67446 0.73636 0.0
H2146 H 0.26023 0.70636 0.71323 0.0
H2147 H 0.23127 0.75254 0.70585 0.0
H2148 H 0.20668 0.81432 0.75051 0.0
H2149 H 0.23208 0.78164 0.77385 0.0
C2150 C 0.26116 0.7294 0.76635 0.0
C2151 C 0.27589 0.70289 0.7603 0.0
C2152 C 0.24631 0.74808 0.75324 0.0
C2153 C 0.27523 0.69467 0.74116 0.0
C2154 C 0.26023 0.71296 0.72801 0.0
C2155 C 0.23182 0.75885 0.7207 0.0
C2156 C 0.21779 0.7858 0.72662 0.0
C2157 C 0.24606 0.73988 0.73388 0.0
C2158 C 0.21783 0.79375 0.74581 0.0
C2159 C 0.23214 0.77505 0.75907 0.0
H2160 H 0.43471 0.95005 0.98903 0.0
H2161 H 0.48823 0.98187 0.94208 0.0
H2162 H 0.52122 0.01005 0.96367 0.0
H2163 H 0.53535 0.02483 0.99606 0.0
H2164 H 0.48086 0.99449 0.04298 0.0
H2165 H 0.44817 0.96587 0.02145 0.0
C2166 C 0.45346 0.96345 0.98365 0.0
C2167 C 0.45899 0.96438 0.96415 0.0
C2168 C 0.47242 0.97931 0.99615 0.0
C2169 C 0.4834 0.98142 0.95711 0.0
C2170 C 0.50238 0.99725 0.96942 0.0
C2171 C 0.51635 0.01181 0.00147 0.0
C2172 C 0.51067 0.01126 0.02096 0.0
C2173 C 0.49722 0.99619 0.98897 0.0
C2174 C 0.48596 0.9946 0.02798 0.0
C2175 C 0.46711 0.97854 0.01569 0.0
H2176 H 0.29444 0.74742 0.27547 0.0
H2177 H 0.25935 0.83563 0.26086 0.0
H2178 H 0.23049 0.81333 0.23455 0.0
H2179 H 0.21554 0.76858 0.21595 0.0
H2180 H 0.25025 0.68031 0.23082 0.0
H2181 H 0.27969 0.70275 0.2568 0.0
C2182 C 0.28062 0.76168 0.26637 0.0
C2183 C 0.27897 0.79301 0.26978 0.0
C2184 C 0.26428 0.7487 0.25146 0.0
C2185 C 0.26081 0.81144 0.25827 0.0
C2186 C 0.24443 0.79872 0.24332 0.0
C2187 C 0.22947 0.75435 0.225 0.0
C2188 C 0.23084 0.72296 0.22174 0.0
C2189 C 0.24599 0.76738 0.23983 0.0
C2190 C 0.2491 0.70457 0.23322 0.0
C2191 C 0.26577 0.71736 0.24802 0.0
H2192 H 0.495 0.04339 0.52631 0.0
H2193 H 0.41067 0.01163 0.50271 0.0
H2194 H 0.43829 0.97502 0.48293 0.0
H2195 H 0.48664 0.95293 0.47219 0.0
H2196 H 0.57092 0.98483 0.49584 0.0
H2197 H 0.54322 0.02077 0.51598 0.0
C2198 C 0.48284 0.02856 0.51667 0.0
C2199 C 0.4511 0.03021 0.51557 0.0
C2200 C 0.49881 0.00766 0.50559 0.0
C2201 C 0.43521 0.01073 0.50345 0.0
C2202 C 0.45095 0.98984 0.49228 0.0
C2203 C 0.49878 0.96753 0.48198 0.0
C2204 C 0.53057 0.96631 0.48284 0.0
C2205 C 0.48274 0.98815 0.49325 0.0
C2206 C 0.54637 0.98548 0.4952 0.0
C2207 C 0.53058 0.00599 0.50659 0.0
H2208 H 0.27116 0.24601 0.71364 0.0
H2209 H 0.26211 0.32162 0.75185 0.0
H2210 H 0.23517 0.28931 0.77461 0.0
H2211 H 0.21567 0.23928 0.78372 0.0
H2212 H 0.22467 0.1634 0.74574 0.0
H2213 H 0.25077 0.19591 0.72259 0.0
C2214 C 0.26271 0.25533 0.72685 0.0
C2215 C 0.26781 0.28597 0.73116 0.0
C2216 C 0.24796 0.23653 0.73985 0.0
C2217 C 0.2577 0.2981 0.74832 0.0
C2218 C 0.24265 0.27963 0.7613 0.0
C2219 C 0.22372 0.22997 0.77041 0.0
C2220 C 0.21901 0.1992 0.76632 0.0
C2221 C 0.23803 0.24879 0.75728 0.0
C2222 C 0.22872 0.18705 0.74907 0.0
C2223 C 0.24332 0.20562 0.73589 0.0
H2224 H 0.99136 0.95183 0.01773 0.0
H2225 H 0.07443 0.99465 -0.00011 0.0
H2226 H 0.04642 0.024 0.97605 0.0
H2227 H -0.00203 0.03855 0.96133 0.0
H2228 H 0.91498 0.99563 0.97911 0.0
H2229 H 0.94339 0.96418 0.00175 0.0
C2230 C 0.00332 0.96727 0.00839 0.0
C2231 C 0.03478 0.97123 0.01038 0.0
C2232 C 0.98713 0.98374 0.99479 0.0
C2233 C 0.05015 0.99152 -0.00147 0.0
C2234 C 0.03419 0.00814 0.98494 0.0
C2235 C 0.98627 0.02213 0.97014 0.0
C2236 C 0.95461 0.01934 0.9689 0.0
C2237 C 0.00267 0.0046 0.9831 0.0
C2238 C 0.93941 -0.00205 0.98003 0.0
C2239 C 0.95559 0.9802 0.99295 0.0
H2240 H 0.79814 0.69811 0.74432 0.0
H2241 H 0.75866 0.74727 0.69769 0.0
H2242 H 0.73102 0.77995 0.71978 0.0
H2243 H 0.71851 0.79461 0.75246 0.0
H2244 H 0.7568 0.74431 0.79903 0.0
H2245 H 0.78561 0.71274 0.77699 0.0
C2246 C 0.78323 0.71585 0.73911 0.0
C2247 C 0.77996 0.72023 0.71958 0.0
C2248 C 0.76794 0.73475 0.75186 0.0
C2249 C 0.76092 0.7433 0.71276 0.0
C2250 C 0.74547 0.76215 0.72535 0.0
C2251 C 0.73347 0.77691 0.75768 0.0
C2252 C 0.73596 0.7719 0.77721 0.0
C2253 C 0.74898 0.75819 0.74492 0.0
C2254 C 0.75512 0.74888 0.784 0.0
C2255 C 0.77121 0.73059 0.77142 0.0
H2256 H 0.71063 0.28802 0.24092 0.0
H2257 H 0.74897 0.23469 0.1958 0.0
H2258 H 0.77655 0.20356 0.21881 0.0
H2259 H 0.78854 0.19072 0.25199 0.0
H2260 H 0.74886 0.24332 0.29702 0.0
H2261 H 0.72217 0.27497 0.27397 0.0
C2262 C 0.72529 0.26973 0.23623 0.0
C2263 C 0.72829 0.26382 0.21684 0.0
C2264 C 0.74019 0.25142 0.24952 0.0
C2265 C 0.74697 0.23996 0.21073 0.0
C2266 C 0.76239 0.22196 0.22385 0.0
C2267 C 0.77379 0.20897 0.25663 0.0
C2268 C 0.7702 0.21457 0.27602 0.0
C2269 C 0.75891 0.22729 0.2433 0.0
C2270 C 0.75137 0.23835 0.28209 0.0
C2271 C 0.73642 0.25662 0.26894 0.0
H2272 H 0.70041 0.24904 0.71662 0.0
H2273 H 0.7415 0.16674 0.73734 0.0
H2274 H 0.77286 0.19636 0.75941 0.0
H2275 H 0.78764 0.24561 0.77284 0.0
H2276 H 0.74657 0.32791 0.75211 0.0
H2277 H 0.71512 0.29829 0.7301 0.0
C2278 C 0.71619 0.2377 0.72607 0.0
C2279 C 0.71877 0.20595 0.72565 0.0
C2280 C 0.73369 0.25479 0.73865 0.0
C2281 C 0.73938 0.19123 0.73761 0.0
C2282 C 0.75709 0.20811 0.75018 0.0
C2283 C 0.77184 0.25694 0.7634 0.0
C2284 C 0.76934 0.2887 0.76377 0.0
C2285 C 0.7543 0.23985 0.75084 0.0
C2286 C 0.74867 0.30342 0.75186 0.0
C2287 C 0.7309 0.28654 0.73932 0.0
H2288 H 0.75841 0.75912 0.2 0.0
H2289 H 0.78872 0.82706 0.23955 0.0
H2290 H 0.76308 0.80034 0.26547 0.0
H2291 H 0.73292 0.7571 0.27673 0.0
H2292 H 0.70249 0.68905 0.2373 0.0
H2293 H 0.7274 0.71621 0.21122 0.0
C2294 C 0.75888 0.76819 0.21428 0.0
C2295 C 0.77487 0.79503 0.21804 0.0
C2296 C 0.7445 0.75251 0.229 0.0
C2297 C 0.77611 0.80653 0.23651 0.0
C2298 C 0.76167 0.7912 0.25125 0.0
C2299 C 0.73211 0.74818 0.26242 0.0
C2300 C 0.71651 0.72108 0.25876 0.0
C2301 C 0.74608 0.76405 0.24766 0.0
C2302 C 0.71482 0.70978 0.24026 0.0
C2303 C 0.72887 0.72534 0.22544 0.0
H2304 H 0.48871 0.47792 0.03655 0.0
H2305 H 0.42798 0.4426 0.99414 0.0
H2306 H 0.45552 0.47035 0.96942 0.0
H2307 H 0.4974 0.50388 0.96007 0.0
H2308 H 0.55858 0.53886 0.00234 0.0
H2309 H 0.53041 0.51197 0.0272 0.0
C2310 C 0.48136 0.47678 0.0219 0.0
C2311 C 0.45632 0.45878 0.01699 0.0
C2312 C 0.49755 0.49235 0.00789 0.0
C2313 C 0.4471 0.45672 -0.00194 0.0
C2314 C 0.46289 0.47238 0.98401 0.0
C2315 C 0.50466 0.50524 0.97473 0.0
C2316 C 0.53009 0.52274 0.97954 0.0
C2317 C 0.48829 0.49 0.98877 0.0
C2318 C 0.53916 0.52511 -0.00151 0.0
C2319 C 0.52302 0.50992 0.01261 0.0
H2320 H 0.05642 0.52985 0.49796 0.0
H2321 H 0.00543 0.50661 0.5479 0.0
H2322 H 0.96766 0.48041 0.52859 0.0
H2323 H 0.94826 0.46543 0.49725 0.0
H2324 H -0.00222 0.49096 0.4472 0.0
H2325 H 0.03652 0.51575 0.4666 0.0
C2326 C 0.03715 0.51875 0.50452 0.0
C2327 C 0.03393 0.5195 0.52424 0.0
C2328 C 0.01494 0.50481 0.49328 0.0
C2329 C 0.00874 0.50552 0.53273 0.0
C2330 C 0.98694 0.49092 0.5217 0.0
C2331 C 0.96742 0.47676 0.49071 0.0
C2332 C 0.97016 0.47694 0.47098 0.0
C2333 C 0.98963 0.49071 0.50195 0.0
C2334 C 0.99511 0.49121 0.46245 0.0
C2335 C 0.01736 0.50506 0.47351 0.0
H2336 H 0.05982 0.4656 0.99525 0.0
H2337 H -0.00043 0.48865 0.94939 0.0
H2338 H 0.9659 0.5152 0.97134 0.0
H2339 H 0.95252 0.52979 0.00392 0.0
H2340 H 0.01189 0.50532 0.04992 0.0
H2341 H 0.04653 0.4803 0.02779 0.0
C2342 C 0.0395 0.47687 0.99014 0.0
C2343 C 0.03228 0.47573 0.97084 0.0
C2344 C 0.01973 0.49094 0.00293 0.0
C2345 C 0.00582 0.48995 0.9642 0.0
C2346 C 0.98638 0.50469 0.97676 0.0
C2347 C 0.9729 0.5186 0.009 0.0
C2348 C 0.97957 0.51871 0.02838 0.0
C2349 C 0.99285 0.50485 0.99619 0.0
C2350 C 0.00614 0.50474 0.035 0.0
C2351 C 0.02607 0.49084 0.02237 0.0
H2352 H 0.45462 0.53534 0.49163 0.0
H2353 H 0.50793 0.49944 0.44572 0.0
H2354 H 0.54087 0.47298 0.46819 0.0
H2355 H 0.55488 0.46067 0.50103 0.0
H2356 H 0.50056 0.49518 0.5469 0.0
H2357 H 0.46826 0.52247 0.52449 0.0
C2358 C 0.47332 0.52146 0.48666 0.0
C2359 C 0.47878 0.51889 0.4672 0.0
C2360 C 0.49234 0.50671 0.49965 0.0
C2361 C 0.50309 0.50115 0.46072 0.0
C2362 C 0.52209 0.48634 0.47353 0.0
C2363 C 0.53609 0.47442 0.50602 0.0
C2364 C 0.53028 0.47642 0.52547 0.0
C2365 C 0.51706 0.48914 0.49303 0.0
C2366 C 0.5058 0.49396 0.53194 0.0
C2367 C 0.48711 0.50922 0.51915 0.0
loop_
_geom_bond_atom_site_label_1
_geom_bond_atom_site_label_2
_geom_bond_distance
_geom_bond_site_symmetry_2
_ccdc_geom_bond_type
Co0 O3 1.970 . S
Co0 N17 1.989 . S
Co0 O25 1.967 . S
Co0 O32 1.920 . S
Co1 O4 1.966 . S
Co1 N10 2.022 . S
Co1 N18 1.993 . S
Co1 O26 1.941 . S
C2 O3 1.258 . S
C2 O4 1.263 . S
O3 Co0 1.970 . S
O3 C2 1.258 . S
O4 Co1 1.966 . S
O4 C2 1.263 . S
C5 O6 1.235 . S
C5 O32 1.289 . S
O6 C5 1.235 . S
C7 C9 1.400 . S
C7 N10 1.351 . S
C7 C12 1.501 . S
C8 C9 1.387 . S
C8 N11 1.341 . S
C9 C7 1.400 . S
C9 C8 1.387 . S
N10 Co1 2.022 . S
N10 C7 1.351 . S
N10 N11 1.365 . S
N11 C8 1.341 . S
N11 N10 1.365 . S
N11 H31 0.862 . S
C12 C7 1.501 . S
C12 H13 0.961 . S
C12 H14 0.961 . S
C12 H15 0.960 . S
H13 C12 0.961 . S
H14 C12 0.961 . S
H15 C12 0.960 . S
C16 N17 1.342 . S
C16 C20 1.401 . S
C16 C21 1.499 . S
N17 Co0 1.989 . S
N17 C16 1.342 . S
N17 N18 1.388 . S
N18 Co1 1.993 . S
N18 N17 1.388 . S
N18 C19 1.346 . S
C19 N18 1.346 . S
C19 C20 1.396 . S
C19 C29 1.510 . S
C20 C16 1.401 . S
C20 C19 1.396 . S
C21 C16 1.499 . S
C21 H22 0.959 . S
C21 H23 0.960 . S
C21 H24 0.961 . S
H22 C21 0.959 . S
H23 C21 0.960 . S
H24 C21 0.961 . S
O25 Co0 1.967 . S
O25 C33 1.258 . S
O26 Co1 1.941 . S
O26 C33 1.266 . S
H27 C29 0.959 . S
H28 C29 0.961 . S
C29 C19 1.510 . S
C29 H27 0.959 . S
C29 H28 0.961 . S
C29 H30 0.960 . S
H30 C29 0.960 . S
H31 N11 0.862 . S
O32 Co0 1.920 . S
O32 C5 1.289 . S
C33 O25 1.258 . S
C33 O26 1.266 . S
Co34 O37 1.970 . S
Co34 N51 1.989 . S
Co34 O59 1.967 . S
Co34 O66 1.920 . S
Co35 O38 1.966 . S
Co35 N44 2.022 . S
Co35 N52 1.993 . S
Co35 O60 1.941 . S
C36 O37 1.258 . S
C36 O38 1.263 . S
O37 Co34 1.970 . S
O37 C36 1.258 . S
O38 Co35 1.966 . S
O38 C36 1.263 . S
C39 O40 1.235 . S
C39 O66 1.289 . S
O40 C39 1.235 . S
C41 C43 1.400 . S
C41 N44 1.351 . S
C41 C46 1.501 . S
C42 C43 1.387 1_565 S
C42 N45 1.341 1_565 S
C43 C41 1.400 . S
C43 C42 1.387 1_545 S
N44 Co35 2.022 . S
N44 C41 1.351 . S
N44 N45 1.365 . S
N45 C42 1.341 1_545 S
N45 N44 1.365 . S
N45 H65 0.862 . S
C46 C41 1.501 . S
C46 H47 0.961 . S
C46 H48 0.961 . S
C46 H49 0.960 . S
H47 C46 0.961 . S
H48 C46 0.961 . S
H49 C46 0.960 . S
C50 N51 1.342 . S
C50 C54 1.401 . S
C50 C55 1.499 . S
N51 Co34 1.989 . S
N51 C50 1.342 . S
N51 N52 1.388 . S
N52 Co35 1.993 . S
N52 N51 1.388 . S
N52 C53 1.346 . S
C53 N52 1.346 . S
C53 C54 1.396 . S
C53 C63 1.510 . S
C54 C50 1.401 . S
C54 C53 1.396 . S
C55 C50 1.499 . S
C55 H56 0.959 . S
C55 H57 0.960 . S
C55 H58 0.961 . S
H56 C55 0.959 . S
H57 C55 0.960 . S
H58 C55 0.961 . S
O59 Co34 1.967 . S
O59 C67 1.258 . S
O60 Co35 1.941 . S
O60 C67 1.266 . S
H61 C63 0.959 . S
H62 C63 0.961 . S
C63 C53 1.510 . S
C63 H61 0.959 . S
C63 H62 0.961 . S
C63 H64 0.960 . S
H64 C63 0.960 . S
H65 N45 0.862 . S
O66 Co34 1.920 . S
O66 C39 1.289 . S
C67 O59 1.258 . S
C67 O60 1.266 . S
Co68 O71 1.970 . S
Co68 N85 1.989 . S
Co68 O93 1.967 . S
Co68 O100 1.920 . S
Co69 O72 1.966 . S
Co69 N78 2.022 . S
Co69 N86 1.993 . S
Co69 O94 1.941 . S
C70 O71 1.258 . S
C70 O72 1.263 . S
O71 Co68 1.970 . S
O71 C70 1.258 . S
O72 Co69 1.966 . S
O72 C70 1.263 . S
C73 O74 1.235 . S
C73 O100 1.289 . S
O74 C73 1.235 . S
C75 C77 1.400 . S
C75 N78 1.351 . S
C75 C80 1.501 . S
C76 C77 1.387 . S
C76 N79 1.341 . S
C77 C75 1.400 . S
C77 C76 1.387 . S
N78 Co69 2.022 . S
N78 C75 1.351 . S
N78 N79 1.365 . S
N79 C76 1.341 . S
N79 N78 1.365 . S
N79 H99 0.862 . S
C80 C75 1.501 . S
C80 H81 0.961 . S
C80 H82 0.961 . S
C80 H83 0.960 . S
H81 C80 0.961 . S
H82 C80 0.961 . S
H83 C80 0.960 . S
C84 N85 1.342 . S
C84 C88 1.401 . S
C84 C89 1.499 . S
N85 Co68 1.989 . S
N85 C84 1.342 . S
N85 N86 1.388 . S
N86 Co69 1.993 . S
N86 N85 1.388 . S
N86 C87 1.346 . S
C87 N86 1.346 . S
C87 C88 1.396 . S
C87 C97 1.510 . S
C88 C84 1.401 . S
C88 C87 1.396 . S
C89 C84 1.499 . S
C89 H90 0.959 . S
C89 H91 0.960 . S
C89 H92 0.961 . S
H90 C89 0.959 . S
H91 C89 0.960 . S
H92 C89 0.961 . S
O93 Co68 1.967 . S
O93 C101 1.258 . S
O94 Co69 1.941 . S
O94 C101 1.266 . S
H95 C97 0.959 . S
H96 C97 0.961 . S
C97 C87 1.510 . S
C97 H95 0.959 . S
C97 H96 0.961 . S
C97 H98 0.960 . S
H98 C97 0.960 . S
H99 N79 0.862 . S
O100 Co68 1.920 . S
O100 C73 1.289 . S
C101 O93 1.258 . S
C101 O94 1.266 . S
Co102 O105 1.970 . S
Co102 N119 1.989 . S
Co102 O127 1.967 . S
Co102 O134 1.920 . S
Co103 O106 1.966 . S
Co103 N112 2.022 . S
Co103 N120 1.993 . S
Co103 O128 1.941 . S
C104 O105 1.258 . S
C104 O106 1.263 . S
O105 Co102 1.970 . S
O105 C104 1.258 . S
O106 Co103 1.966 . S
O106 C104 1.263 . S
C107 O108 1.235 . S
C107 O134 1.289 . S
O108 C107 1.235 . S
C109 C111 1.400 . S
C109 N112 1.351 . S
C109 C114 1.501 . S
C110 C111 1.387 1_545 S
C110 N113 1.341 1_545 S
C111 C109 1.400 . S
C111 C110 1.387 1_565 S
N112 Co103 2.022 . S
N112 C109 1.351 . S
N112 N113 1.365 . S
N113 C110 1.341 1_565 S
N113 N112 1.365 . S
N113 H133 0.862 . S
C114 C109 1.501 . S
C114 H115 0.961 . S
C114 H116 0.961 . S
C114 H117 0.960 . S
H115 C114 0.961 . S
H116 C114 0.961 . S
H117 C114 0.960 . S
C118 N119 1.342 . S
C118 C122 1.401 . S
C118 C123 1.499 . S
N119 Co102 1.989 . S
N119 C118 1.342 . S
N119 N120 1.388 . S
N120 Co103 1.993 . S
N120 N119 1.388 . S
N120 C121 1.346 . S
C121 N120 1.346 . S
C121 C122 1.396 . S
C121 C131 1.510 . S
C122 C118 1.401 . S
C122 C121 1.396 . S
C123 C118 1.499 . S
C123 H124 0.959 . S
C123 H125 0.960 . S
C123 H126 0.961 . S
H124 C123 0.959 . S
H125 C123 0.960 . S
H126 C123 0.961 . S
O127 Co102 1.967 . S
O127 C135 1.258 . S
O128 Co103 1.941 . S
O128 C135 1.266 . S
H129 C131 0.959 . S
H130 C131 0.961 . S
C131 C121 1.510 . S
C131 H129 0.959 . S
C131 H130 0.961 . S
C131 H132 0.960 . S
H132 C131 0.960 . S
H133 N113 0.862 . S
O134 Co102 1.920 . S
O134 C107 1.289 . S
C135 O127 1.258 . S
C135 O128 1.266 . S
Co136 O139 1.970 . S
Co136 N153 1.989 . S
Co136 O161 1.967 . S
Co136 O168 1.920 . S
Co137 O140 1.966 . S
Co137 N146 2.022 . S
Co137 N154 1.993 . S
Co137 O162 1.941 . S
C138 O139 1.258 . S
C138 O140 1.263 . S
O139 Co136 1.970 . S
O139 C138 1.258 . S
O140 Co137 1.966 . S
O140 C138 1.263 . S
C141 O142 1.235 . S
C141 O168 1.289 . S
O142 C141 1.235 . S
C143 C145 1.400 . S
C143 N146 1.351 . S
C143 C148 1.501 . S
C144 C145 1.387 . S
C144 N147 1.341 . S
C145 C143 1.400 . S
C145 C144 1.387 . S
N146 Co137 2.022 . S
N146 C143 1.351 . S
N146 N147 1.365 . S
N147 C144 1.341 . S
N147 N146 1.365 . S
N147 H167 0.862 . S
C148 C143 1.501 . S
C148 H149 0.961 . S
C148 H150 0.961 . S
C148 H151 0.960 . S
H149 C148 0.961 . S
H150 C148 0.961 . S
H151 C148 0.960 . S
C152 N153 1.342 . S
C152 C156 1.401 . S
C152 C157 1.499 . S
N153 Co136 1.989 . S
N153 C152 1.342 . S
N153 N154 1.388 . S
N154 Co137 1.993 . S
N154 N153 1.388 . S
N154 C155 1.346 . S
C155 N154 1.346 . S
C155 C156 1.396 . S
C155 C165 1.510 . S
C156 C152 1.401 . S
C156 C155 1.396 . S
C157 C152 1.499 . S
C157 H158 0.959 . S
C157 H159 0.960 . S
C157 H160 0.961 . S
H158 C157 0.959 . S
H159 C157 0.960 . S
H160 C157 0.961 . S
O161 Co136 1.967 . S
O161 C169 1.258 . S
O162 Co137 1.941 . S
O162 C169 1.266 . S
H163 C165 0.959 . S
H164 C165 0.961 . S
C165 C155 1.510 . S
C165 H163 0.959 . S
C165 H164 0.961 . S
C165 H166 0.960 . S
H166 C165 0.960 . S
H167 N147 0.862 . S
O168 Co136 1.920 . S
O168 C141 1.289 . S
C169 O161 1.258 . S
C169 O162 1.266 . S
Co170 O173 1.970 . S
Co170 N187 1.989 . S
Co170 O195 1.967 . S
Co170 O202 1.920 . S
Co171 O174 1.966 . S
Co171 N180 2.022 . S
Co171 N188 1.993 . S
Co171 O196 1.941 . S
C172 O173 1.258 . S
C172 O174 1.263 . S
O173 Co170 1.970 . S
O173 C172 1.258 . S
O174 Co171 1.966 . S
O174 C172 1.263 . S
C175 O176 1.235 . S
C175 O202 1.289 . S
O176 C175 1.235 . S
C177 C179 1.400 . S
C177 N180 1.351 . S
C177 C182 1.501 . S
C178 C179 1.387 1_565 S
C178 N181 1.341 1_565 S
C179 C177 1.400 . S
C179 C178 1.387 1_545 S
N180 Co171 2.022 . S
N180 C177 1.351 . S
N180 N181 1.365 . S
N181 C178 1.341 1_545 S
N181 N180 1.365 . S
N181 H201 0.862 . S
C182 C177 1.501 . S
C182 H183 0.961 . S
C182 H184 0.961 . S
C182 H185 0.960 . S
H183 C182 0.961 . S
H184 C182 0.961 . S
H185 C182 0.960 . S
C186 N187 1.342 . S
C186 C190 1.401 . S
C186 C191 1.499 . S
N187 Co170 1.989 . S
N187 C186 1.342 . S
N187 N188 1.388 . S
N188 Co171 1.993 . S
N188 N187 1.388 . S
N188 C189 1.346 . S
C189 N188 1.346 . S
C189 C190 1.396 . S
C189 C199 1.510 . S
C190 C186 1.401 . S
C190 C189 1.396 . S
C191 C186 1.499 . S
C191 H192 0.959 . S
C191 H193 0.960 . S
C191 H194 0.961 . S
H192 C191 0.959 . S
H193 C191 0.960 . S
H194 C191 0.961 . S
O195 Co170 1.967 . S
O195 C203 1.258 . S
O196 Co171 1.941 . S
O196 C203 1.266 . S
H197 C199 0.959 . S
H198 C199 0.961 . S
C199 C189 1.510 . S
C199 H197 0.959 . S
C199 H198 0.961 . S
C199 H200 0.960 . S
H200 C199 0.960 . S
H201 N181 0.862 . S
O202 Co170 1.920 . S
O202 C175 1.289 . S
C203 O195 1.258 . S
C203 O196 1.266 . S
Co204 O207 1.970 . S
Co204 N221 1.989 . S
Co204 O229 1.967 . S
Co204 O236 1.920 . S
Co205 O208 1.966 . S
Co205 N214 2.022 . S
Co205 N222 1.993 . S
Co205 O230 1.941 . S
C206 O207 1.258 . S
C206 O208 1.263 . S
O207 Co204 1.970 . S
O207 C206 1.258 . S
O208 Co205 1.966 . S
O208 C206 1.263 . S
C209 O210 1.235 . S
C209 O236 1.289 . S
O210 C209 1.235 . S
C211 C213 1.400 . S
C211 N214 1.351 . S
C211 C216 1.501 . S
C212 C213 1.387 . S
C212 N215 1.341 . S
C213 C211 1.400 . S
C213 C212 1.387 . S
N214 Co205 2.022 . S
N214 C211 1.351 . S
N214 N215 1.365 . S
N215 C212 1.341 . S
N215 N214 1.365 . S
N215 H235 0.862 . S
C216 C211 1.501 . S
C216 H217 0.961 . S
C216 H218 0.961 . S
C216 H219 0.960 . S
H217 C216 0.961 . S
H218 C216 0.961 . S
H219 C216 0.960 . S
C220 N221 1.342 . S
C220 C224 1.401 . S
C220 C225 1.499 . S
N221 Co204 1.989 . S
N221 C220 1.342 . S
N221 N222 1.388 . S
N222 Co205 1.993 . S
N222 N221 1.388 . S
N222 C223 1.346 . S
C223 N222 1.346 . S
C223 C224 1.396 . S
C223 C233 1.510 . S
C224 C220 1.401 . S
C224 C223 1.396 . S
C225 C220 1.499 . S
C225 H226 0.959 . S
C225 H227 0.960 . S
C225 H228 0.961 . S
H226 C225 0.959 . S
H227 C225 0.960 . S
H228 C225 0.961 . S
O229 Co204 1.967 . S
O229 C237 1.258 . S
O230 Co205 1.941 . S
O230 C237 1.266 . S
H231 C233 0.959 . S
H232 C233 0.961 . S
C233 C223 1.510 . S
C233 H231 0.959 . S
C233 H232 0.961 . S
C233 H234 0.960 . S
H234 C233 0.960 . S
H235 N215 0.862 . S
O236 Co204 1.920 . S
O236 C209 1.289 . S
C237 O229 1.258 . S
C237 O230 1.266 . S
Co238 O241 1.970 . S
Co238 N255 1.989 . S
Co238 O263 1.967 . S
Co238 O270 1.920 . S
Co239 O242 1.966 . S
Co239 N248 2.022 . S
Co239 N256 1.993 . S
Co239 O264 1.941 . S
C240 O241 1.258 . S
C240 O242 1.263 . S
O241 Co238 1.970 . S
O241 C240 1.258 . S
O242 Co239 1.966 . S
O242 C240 1.263 . S
C243 O244 1.235 . S
C243 O270 1.289 . S
O244 C243 1.235 . S
C245 C247 1.400 . S
C245 N248 1.351 . S
C245 C250 1.501 . S
C246 C247 1.387 1_545 S
C246 N249 1.341 1_545 S
C247 C245 1.400 . S
C247 C246 1.387 1_565 S
N248 Co239 2.022 . S
N248 C245 1.351 . S
N248 N249 1.365 . S
N249 C246 1.341 1_565 S
N249 N248 1.365 . S
N249 H269 0.862 . S
C250 C245 1.501 . S
C250 H251 0.961 . S
C250 H252 0.961 . S
C250 H253 0.960 . S
H251 C250 0.961 . S
H252 C250 0.961 . S
H253 C250 0.960 . S
C254 N255 1.342 . S
C254 C258 1.401 . S
C254 C259 1.499 . S
N255 Co238 1.989 . S
N255 C254 1.342 . S
N255 N256 1.388 . S
N256 Co239 1.993 . S
N256 N255 1.388 . S
N256 C257 1.346 . S
C257 N256 1.346 . S
C257 C258 1.396 . S
C257 C267 1.510 . S
C258 C254 1.401 . S
C258 C257 1.396 . S
C259 C254 1.499 . S
C259 H260 0.959 . S
C259 H261 0.960 . S
C259 H262 0.961 . S
H260 C259 0.959 . S
H261 C259 0.960 . S
H262 C259 0.961 . S
O263 Co238 1.967 . S
O263 C271 1.258 . S
O264 Co239 1.941 . S
O264 C271 1.266 . S
H265 C267 0.959 . S
H266 C267 0.961 . S
C267 C257 1.510 . S
C267 H265 0.959 . S
C267 H266 0.961 . S
C267 H268 0.960 . S
H268 C267 0.960 . S
H269 N249 0.862 . S
O270 Co238 1.920 . S
O270 C243 1.289 . S
C271 O263 1.258 . S
C271 O264 1.266 . S
Co272 O275 1.970 . S
Co272 N289 1.989 . S
Co272 O297 1.967 . S
Co272 O304 1.920 . S
Co273 O276 1.966 . S
Co273 N282 2.022 . S
Co273 N290 1.993 . S
Co273 O298 1.941 . S
C274 O275 1.258 . S
C274 O276 1.263 . S
O275 Co272 1.970 . S
O275 C274 1.258 . S
O276 Co273 1.966 . S
O276 C274 1.263 . S
C277 O278 1.235 . S
C277 O304 1.289 . S
O278 C277 1.235 . S
C279 C281 1.400 . S
C279 N282 1.351 . S
C279 C284 1.501 . S
C280 C281 1.387 . S
C280 N283 1.341 . S
C281 C279 1.400 . S
C281 C280 1.387 . S
N282 Co273 2.022 . S
N282 C279 1.351 . S
N282 N283 1.365 . S
N283 C280 1.341 . S
N283 N282 1.365 . S
N283 H303 0.862 . S
C284 C279 1.501 . S
C284 H285 0.961 . S
C284 H286 0.961 . S
C284 H287 0.960 . S
H285 C284 0.961 . S
H286 C284 0.961 . S
H287 C284 0.960 . S
C288 N289 1.342 . S
C288 C292 1.401 . S
C288 C293 1.499 . S
N289 Co272 1.989 . S
N289 C288 1.342 . S
N289 N290 1.388 . S
N290 Co273 1.993 . S
N290 N289 1.388 . S
N290 C291 1.346 . S
C291 N290 1.346 . S
C291 C292 1.396 . S
C291 C301 1.510 . S
C292 C288 1.401 . S
C292 C291 1.396 . S
C293 C288 1.499 . S
C293 H294 0.959 . S
C293 H295 0.960 . S
C293 H296 0.961 . S
H294 C293 0.959 . S
H295 C293 0.960 . S
H296 C293 0.961 . S
O297 Co272 1.967 . S
O297 C305 1.258 . S
O298 Co273 1.941 . S
O298 C305 1.266 . S
H299 C301 0.959 . S
H300 C301 0.961 . S
C301 C291 1.510 . S
C301 H299 0.959 . S
C301 H300 0.961 . S
C301 H302 0.960 . S
H302 C301 0.960 . S
H303 N283 0.862 . S
O304 Co272 1.920 . S
O304 C277 1.289 . S
C305 O297 1.258 . S
C305 O298 1.266 . S
Co306 O309 1.970 . S
Co306 N323 1.989 . S
Co306 O331 1.967 . S
Co306 O338 1.920 . S
Co307 O310 1.966 . S
Co307 N316 2.022 . S
Co307 N324 1.993 . S
Co307 O332 1.941 . S
C308 O309 1.258 . S
C308 O310 1.263 . S
O309 Co306 1.970 . S
O309 C308 1.258 . S
O310 Co307 1.966 . S
O310 C308 1.263 . S
C311 O312 1.235 . S
C311 O338 1.289 . S
O312 C311 1.235 . S
C313 C315 1.400 . S
C313 N316 1.351 . S
C313 C318 1.501 . S
C314 C315 1.387 1_545 S
C314 N317 1.341 1_545 S
C315 C313 1.400 . S
C315 C314 1.387 1_565 S
N316 Co307 2.022 . S
N316 C313 1.351 . S
N316 N317 1.365 . S
N317 C314 1.341 1_565 S
N317 N316 1.365 . S
N317 H337 0.862 . S
C318 C313 1.501 . S
C318 H319 0.961 . S
C318 H320 0.961 . S
C318 H321 0.960 . S
H319 C318 0.961 . S
H320 C318 0.961 . S
H321 C318 0.960 . S
C322 N323 1.342 . S
C322 C326 1.401 . S
C322 C327 1.499 . S
N323 Co306 1.989 . S
N323 C322 1.342 . S
N323 N324 1.388 . S
N324 Co307 1.993 . S
N324 N323 1.388 . S
N324 C325 1.346 . S
C325 N324 1.346 . S
C325 C326 1.396 . S
C325 C335 1.510 . S
C326 C322 1.401 . S
C326 C325 1.396 . S
C327 C322 1.499 . S
C327 H328 0.959 . S
C327 H329 0.960 . S
C327 H330 0.961 . S
H328 C327 0.959 . S
H329 C327 0.960 . S
H330 C327 0.961 . S
O331 Co306 1.967 . S
O331 C339 1.258 . S
O332 Co307 1.941 . S
O332 C339 1.266 . S
H333 C335 0.959 . S
H334 C335 0.961 . S
C335 C325 1.510 . S
C335 H333 0.959 . S
C335 H334 0.961 . S
C335 H336 0.960 . S
H336 C335 0.960 . S
H337 N317 0.862 . S
O338 Co306 1.920 . S
O338 C311 1.289 . S
C339 O331 1.258 . S
C339 O332 1.266 . S
Co340 O343 1.970 . S
Co340 N357 1.989 . S
Co340 O365 1.967 . S
Co340 O372 1.920 . S
Co341 O344 1.966 . S
Co341 N350 2.022 . S
Co341 N358 1.993 . S
Co341 O366 1.941 . S
C342 O343 1.258 . S
C342 O344 1.263 . S
O343 Co340 1.970 . S
O343 C342 1.258 . S
O344 Co341 1.966 . S
O344 C342 1.263 . S
C345 O346 1.235 . S
C345 O372 1.289 . S
O346 C345 1.235 . S
C347 C349 1.400 . S
C347 N350 1.351 . S
C347 C352 1.501 . S
C348 C349 1.387 . S
C348 N351 1.341 . S
C349 C347 1.400 . S
C349 C348 1.387 . S
N350 Co341 2.022 . S
N350 C347 1.351 . S
N350 N351 1.365 . S
N351 C348 1.341 . S
N351 N350 1.365 . S
N351 H371 0.862 . S
C352 C347 1.501 . S
C352 H353 0.961 . S
C352 H354 0.961 . S
C352 H355 0.960 . S
H353 C352 0.961 . S
H354 C352 0.961 . S
H355 C352 0.960 . S
C356 N357 1.342 . S
C356 C360 1.401 . S
C356 C361 1.499 . S
N357 Co340 1.989 . S
N357 C356 1.342 . S
N357 N358 1.388 . S
N358 Co341 1.993 . S
N358 N357 1.388 . S
N358 C359 1.346 . S
C359 N358 1.346 . S
C359 C360 1.396 . S
C359 C369 1.510 . S
C360 C356 1.401 . S
C360 C359 1.396 . S
C361 C356 1.499 . S
C361 H362 0.959 . S
C361 H363 0.960 . S
C361 H364 0.961 . S
H362 C361 0.959 . S
H363 C361 0.960 . S
H364 C361 0.961 . S
O365 Co340 1.967 . S
O365 C373 1.258 . S
O366 Co341 1.941 . S
O366 C373 1.266 . S
H367 C369 0.959 . S
H368 C369 0.961 . S
C369 C359 1.510 . S
C369 H367 0.959 . S
C369 H368 0.961 . S
C369 H370 0.960 . S
H370 C369 0.960 . S
H371 N351 0.862 . S
O372 Co340 1.920 . S
O372 C345 1.289 . S
C373 O365 1.258 . S
C373 O366 1.266 . S
Co374 O377 1.970 . S
Co374 N391 1.989 . S
Co374 O399 1.967 . S
Co374 O406 1.920 . S
Co375 O378 1.966 . S
Co375 N384 2.022 . S
Co375 N392 1.993 . S
Co375 O400 1.941 . S
C376 O377 1.258 . S
C376 O378 1.263 . S
O377 Co374 1.970 . S
O377 C376 1.258 . S
O378 Co375 1.966 . S
O378 C376 1.263 . S
C379 O380 1.235 . S
C379 O406 1.289 . S
O380 C379 1.235 . S
C381 C383 1.400 . S
C381 N384 1.351 . S
C381 C386 1.501 . S
C382 C383 1.387 1_565 S
C382 N385 1.341 1_565 S
C383 C381 1.400 . S
C383 C382 1.387 1_545 S
N384 Co375 2.022 . S
N384 C381 1.351 . S
N384 N385 1.365 . S
N385 C382 1.341 1_545 S
N385 N384 1.365 . S
N385 H405 0.862 . S
C386 C381 1.501 . S
C386 H387 0.961 . S
C386 H388 0.961 . S
C386 H389 0.960 . S
H387 C386 0.961 . S
H388 C386 0.961 . S
H389 C386 0.960 . S
C390 N391 1.342 . S
C390 C394 1.401 . S
C390 C395 1.499 . S
N391 Co374 1.989 . S
N391 C390 1.342 . S
N391 N392 1.388 . S
N392 Co375 1.993 . S
N392 N391 1.388 . S
N392 C393 1.346 . S
C393 N392 1.346 . S
C393 C394 1.396 . S
C393 C403 1.510 . S
C394 C390 1.401 . S
C394 C393 1.396 . S
C395 C390 1.499 . S
C395 H396 0.959 . S
C395 H397 0.960 . S
C395 H398 0.961 . S
H396 C395 0.959 . S
H397 C395 0.960 . S
H398 C395 0.961 . S
O399 Co374 1.967 . S
O399 C407 1.258 . S
O400 Co375 1.941 . S
O400 C407 1.266 . S
H401 C403 0.959 . S
H402 C403 0.961 . S
C403 C393 1.510 . S
C403 H401 0.959 . S
C403 H402 0.961 . S
C403 H404 0.960 . S
H404 C403 0.960 . S
H405 N385 0.862 . S
O406 Co374 1.920 . S
O406 C379 1.289 . S
C407 O399 1.258 . S
C407 O400 1.266 . S
Co408 O411 1.970 . S
Co408 N425 1.989 . S
Co408 O433 1.967 . S
Co408 O440 1.920 . S
Co409 O412 1.966 . S
Co409 N418 2.022 . S
Co409 N426 1.993 . S
Co409 O434 1.941 . S
C410 O411 1.258 . S
C410 O412 1.263 . S
O411 Co408 1.970 . S
O411 C410 1.258 . S
O412 Co409 1.966 . S
O412 C410 1.263 . S
C413 O414 1.235 . S
C413 O440 1.289 . S
O414 C413 1.235 . S
C415 C417 1.400 . S
C415 N418 1.351 . S
C415 C420 1.501 . S
C416 C417 1.387 . S
C416 N419 1.341 . S
C417 C415 1.400 . S
C417 C416 1.387 . S
N418 Co409 2.022 . S
N418 C415 1.351 . S
N418 N419 1.365 . S
N419 C416 1.341 . S
N419 N418 1.365 . S
N419 H439 0.862 . S
C420 C415 1.501 . S
C420 H421 0.961 . S
C420 H422 0.961 . S
C420 H423 0.960 . S
H421 C420 0.961 . S
H422 C420 0.961 . S
H423 C420 0.960 . S
C424 N425 1.342 . S
C424 C428 1.401 . S
C424 C429 1.499 . S
N425 Co408 1.989 . S
N425 C424 1.342 . S
N425 N426 1.388 . S
N426 Co409 1.993 . S
N426 N425 1.388 . S
N426 C427 1.346 . S
C427 N426 1.346 . S
C427 C428 1.396 . S
C427 C437 1.510 . S
C428 C424 1.401 . S
C428 C427 1.396 . S
C429 C424 1.499 . S
C429 H430 0.959 . S
C429 H431 0.960 . S
C429 H432 0.961 . S
H430 C429 0.959 . S
H431 C429 0.960 . S
H432 C429 0.961 . S
O433 Co408 1.967 . S
O433 C441 1.258 . S
O434 Co409 1.941 . S
O434 C441 1.266 . S
H435 C437 0.959 . S
H436 C437 0.961 . S
C437 C427 1.510 . S
C437 H435 0.959 . S
C437 H436 0.961 . S
C437 H438 0.960 . S
H438 C437 0.960 . S
H439 N419 0.862 . S
O440 Co408 1.920 . S
O440 C413 1.289 . S
C441 O433 1.258 . S
C441 O434 1.266 . S
Co442 O445 1.970 . S
Co442 N459 1.989 . S
Co442 O467 1.967 . S
Co442 O474 1.920 . S
Co443 O446 1.966 . S
Co443 N452 2.022 . S
Co443 N460 1.993 . S
Co443 O468 1.941 . S
C444 O445 1.258 . S
C444 O446 1.263 . S
O445 Co442 1.970 . S
O445 C444 1.258 . S
O446 Co443 1.966 . S
O446 C444 1.263 . S
C447 O448 1.235 . S
C447 O474 1.289 . S
O448 C447 1.235 . S
C449 C451 1.400 . S
C449 N452 1.351 . S
C449 C454 1.501 . S
C450 C451 1.387 1_545 S
C450 N453 1.341 1_545 S
C451 C449 1.400 . S
C451 C450 1.387 1_565 S
N452 Co443 2.022 . S
N452 C449 1.351 . S
N452 N453 1.365 . S
N453 C450 1.341 1_565 S
N453 N452 1.365 . S
N453 H473 0.862 . S
C454 C449 1.501 . S
C454 H455 0.961 . S
C454 H456 0.961 . S
C454 H457 0.960 . S
H455 C454 0.961 . S
H456 C454 0.961 . S
H457 C454 0.960 . S
C458 N459 1.342 . S
C458 C462 1.401 . S
C458 C463 1.499 . S
N459 Co442 1.989 . S
N459 C458 1.342 . S
N459 N460 1.388 . S
N460 Co443 1.993 . S
N460 N459 1.388 . S
N460 C461 1.346 . S
C461 N460 1.346 . S
C461 C462 1.396 . S
C461 C471 1.510 . S
C462 C458 1.401 . S
C462 C461 1.396 . S
C463 C458 1.499 . S
C463 H464 0.959 . S
C463 H465 0.960 . S
C463 H466 0.961 . S
H464 C463 0.959 . S
H465 C463 0.960 . S
H466 C463 0.961 . S
O467 Co442 1.967 . S
O467 C475 1.258 . S
O468 Co443 1.941 . S
O468 C475 1.266 . S
H469 C471 0.959 . S
H470 C471 0.961 . S
C471 C461 1.510 . S
C471 H469 0.959 . S
C471 H470 0.961 . S
C471 H472 0.960 . S
H472 C471 0.960 . S
H473 N453 0.862 . S
O474 Co442 1.920 . S
O474 C447 1.289 . S
C475 O467 1.258 . S
C475 O468 1.266 . S
Co476 O479 1.970 . S
Co476 N493 1.989 . S
Co476 O501 1.967 . S
Co476 O508 1.920 . S
Co477 O480 1.966 . S
Co477 N486 2.022 . S
Co477 N494 1.993 . S
Co477 O502 1.941 . S
C478 O479 1.258 . S
C478 O480 1.263 . S
O479 Co476 1.970 . S
O479 C478 1.258 . S
O480 Co477 1.966 . S
O480 C478 1.263 . S
C481 O482 1.235 . S
C481 O508 1.289 . S
O482 C481 1.235 . S
C483 C485 1.400 . S
C483 N486 1.351 . S
C483 C488 1.501 . S
C484 C485 1.387 . S
C484 N487 1.341 . S
C485 C483 1.400 . S
C485 C484 1.387 . S
N486 Co477 2.022 . S
N486 C483 1.351 . S
N486 N487 1.365 . S
N487 C484 1.341 . S
N487 N486 1.365 . S
N487 H507 0.862 . S
C488 C483 1.501 . S
C488 H489 0.961 . S
C488 H490 0.961 . S
C488 H491 0.960 . S
H489 C488 0.961 . S
H490 C488 0.961 . S
H491 C488 0.960 . S
C492 N493 1.342 . S
C492 C496 1.401 . S
C492 C497 1.499 . S
N493 Co476 1.989 . S
N493 C492 1.342 . S
N493 N494 1.388 . S
N494 Co477 1.993 . S
N494 N493 1.388 . S
N494 C495 1.346 . S
C495 N494 1.346 . S
C495 C496 1.396 . S
C495 C505 1.510 . S
C496 C492 1.401 . S
C496 C495 1.396 . S
C497 C492 1.499 . S
C497 H498 0.959 . S
C497 H499 0.960 . S
C497 H500 0.961 . S
H498 C497 0.959 . S
H499 C497 0.960 . S
H500 C497 0.961 . S
O501 Co476 1.967 . S
O501 C509 1.258 . S
O502 Co477 1.941 . S
O502 C509 1.266 . S
H503 C505 0.959 . S
H504 C505 0.961 . S
C505 C495 1.510 . S
C505 H503 0.959 . S
C505 H504 0.961 . S
C505 H506 0.960 . S
H506 C505 0.960 . S
H507 N487 0.862 . S
O508 Co476 1.920 . S
O508 C481 1.289 . S
C509 O501 1.258 . S
C509 O502 1.266 . S
Co510 O513 1.970 . S
Co510 N527 1.989 . S
Co510 O535 1.967 . S
Co510 O542 1.920 . S
Co511 O514 1.966 . S
Co511 N520 2.022 . S
Co511 N528 1.993 . S
Co511 O536 1.941 . S
C512 O513 1.258 . S
C512 O514 1.263 . S
O513 Co510 1.970 . S
O513 C512 1.258 . S
O514 Co511 1.966 . S
O514 C512 1.263 . S
C515 O516 1.235 . S
C515 O542 1.289 . S
O516 C515 1.235 . S
C517 C519 1.400 . S
C517 N520 1.351 . S
C517 C522 1.501 . S
C518 C519 1.387 1_565 S
C518 N521 1.341 1_565 S
C519 C517 1.400 . S
C519 C518 1.387 1_545 S
N520 Co511 2.022 . S
N520 C517 1.351 . S
N520 N521 1.365 . S
N521 C518 1.341 1_545 S
N521 N520 1.365 . S
N521 H541 0.862 . S
C522 C517 1.501 . S
C522 H523 0.961 . S
C522 H524 0.961 . S
C522 H525 0.960 . S
H523 C522 0.961 . S
H524 C522 0.961 . S
H525 C522 0.960 . S
C526 N527 1.342 . S
C526 C530 1.401 . S
C526 C531 1.499 . S
N527 Co510 1.989 . S
N527 C526 1.342 . S
N527 N528 1.388 . S
N528 Co511 1.993 . S
N528 N527 1.388 . S
N528 C529 1.346 . S
C529 N528 1.346 . S
C529 C530 1.396 . S
C529 C539 1.510 . S
C530 C526 1.401 . S
C530 C529 1.396 . S
C531 C526 1.499 . S
C531 H532 0.959 . S
C531 H533 0.960 . S
C531 H534 0.961 . S
H532 C531 0.959 . S
H533 C531 0.960 . S
H534 C531 0.961 . S
O535 Co510 1.967 . S
O535 C543 1.258 . S
O536 Co511 1.941 . S
O536 C543 1.266 . S
H537 C539 0.959 . S
H538 C539 0.961 . S
C539 C529 1.510 . S
C539 H537 0.959 . S
C539 H538 0.961 . S
C539 H540 0.960 . S
H540 C539 0.960 . S
H541 N521 0.862 . S
O542 Co510 1.920 . S
O542 C515 1.289 . S
C543 O535 1.258 . S
C543 O536 1.266 . S
Co544 O547 1.970 . S
Co544 N561 1.989 . S
Co544 O569 1.967 . S
Co544 O576 1.920 . S
Co545 O548 1.966 . S
Co545 N554 2.022 . S
Co545 N562 1.993 . S
Co545 O570 1.941 . S
C546 O547 1.258 . S
C546 O548 1.263 . S
O547 Co544 1.970 . S
O547 C546 1.258 . S
O548 Co545 1.966 . S
O548 C546 1.263 . S
C549 O550 1.235 . S
C549 O576 1.289 . S
O550 C549 1.235 . S
C551 C553 1.400 . S
C551 N554 1.351 . S
C551 C556 1.501 . S
C552 C553 1.387 . S
C552 N555 1.341 . S
C553 C551 1.400 . S
C553 C552 1.387 . S
N554 Co545 2.022 . S
N554 C551 1.351 . S
N554 N555 1.365 . S
N555 C552 1.341 . S
N555 N554 1.365 . S
N555 H575 0.862 . S
C556 C551 1.501 . S
C556 H557 0.961 . S
C556 H558 0.961 . S
C556 H559 0.960 . S
H557 C556 0.961 . S
H558 C556 0.961 . S
H559 C556 0.960 . S
C560 N561 1.342 . S
C560 C564 1.401 . S
C560 C565 1.499 . S
N561 Co544 1.989 . S
N561 C560 1.342 . S
N561 N562 1.388 . S
N562 Co545 1.993 . S
N562 N561 1.388 . S
N562 C563 1.346 . S
C563 N562 1.346 . S
C563 C564 1.396 . S
C563 C573 1.510 . S
C564 C560 1.401 . S
C564 C563 1.396 . S
C565 C560 1.499 . S
C565 H566 0.959 . S
C565 H567 0.960 . S
C565 H568 0.961 . S
H566 C565 0.959 . S
H567 C565 0.960 . S
H568 C565 0.961 . S
O569 Co544 1.967 . S
O569 C577 1.258 . S
O570 Co545 1.941 . S
O570 C577 1.266 . S
H571 C573 0.959 . S
H572 C573 0.961 . S
C573 C563 1.510 . S
C573 H571 0.959 . S
C573 H572 0.961 . S
C573 H574 0.960 . S
H574 C573 0.960 . S
H575 N555 0.862 . S
O576 Co544 1.920 . S
O576 C549 1.289 . S
C577 O569 1.258 . S
C577 O570 1.266 . S
Co578 O581 1.970 . S
Co578 N595 1.989 . S
Co578 O603 1.967 . S
Co578 O610 1.920 . S
Co579 O582 1.966 . S
Co579 N588 2.022 . S
Co579 N596 1.993 . S
Co579 O604 1.941 . S
C580 O581 1.258 . S
C580 O582 1.263 . S
O581 Co578 1.970 . S
O581 C580 1.258 . S
O582 Co579 1.966 . S
O582 C580 1.263 . S
C583 O584 1.235 . S
C583 O610 1.289 . S
O584 C583 1.235 . S
C585 C587 1.400 . S
C585 N588 1.351 . S
C585 C590 1.501 . S
C586 C587 1.387 . S
C586 N589 1.341 . S
C587 C585 1.400 . S
C587 C586 1.387 . S
N588 Co579 2.022 . S
N588 C585 1.351 . S
N588 N589 1.365 . S
N589 C586 1.341 . S
N589 N588 1.365 . S
N589 H609 0.862 . S
C590 C585 1.501 . S
C590 H591 0.961 . S
C590 H592 0.961 . S
C590 H593 0.960 . S
H591 C590 0.961 . S
H592 C590 0.961 . S
H593 C590 0.960 . S
C594 N595 1.342 . S
C594 C598 1.401 . S
C594 C599 1.499 . S
N595 Co578 1.989 . S
N595 C594 1.342 . S
N595 N596 1.388 . S
N596 Co579 1.993 . S
N596 N595 1.388 . S
N596 C597 1.346 . S
C597 N596 1.346 . S
C597 C598 1.396 . S
C597 C607 1.510 . S
C598 C594 1.401 . S
C598 C597 1.396 . S
C599 C594 1.499 . S
C599 H600 0.959 . S
C599 H601 0.960 . S
C599 H602 0.961 . S
H600 C599 0.959 . S
H601 C599 0.960 . S
H602 C599 0.961 . S
O603 Co578 1.967 . S
O603 C611 1.258 . S
O604 Co579 1.941 . S
O604 C611 1.266 . S
H605 C607 0.959 . S
H606 C607 0.961 . S
C607 C597 1.510 . S
C607 H605 0.959 . S
C607 H606 0.961 . S
C607 H608 0.960 . S
H608 C607 0.960 . S
H609 N589 0.862 . S
O610 Co578 1.920 . S
O610 C583 1.289 . S
C611 O603 1.258 . S
C611 O604 1.266 . S
Co612 O615 1.970 . S
Co612 N629 1.989 . S
Co612 O637 1.967 . S
Co612 O644 1.920 . S
Co613 O616 1.966 . S
Co613 N622 2.022 . S
Co613 N630 1.993 . S
Co613 O638 1.941 . S
C614 O615 1.258 . S
C614 O616 1.263 . S
O615 Co612 1.970 . S
O615 C614 1.258 . S
O616 Co613 1.966 . S
O616 C614 1.263 . S
C617 O618 1.235 . S
C617 O644 1.289 . S
O618 C617 1.235 . S
C619 C621 1.400 . S
C619 N622 1.351 . S
C619 C624 1.501 . S
C620 C621 1.387 . S
C620 N623 1.341 . S
C621 C619 1.400 . S
C621 C620 1.387 . S
N622 Co613 2.022 . S
N622 C619 1.351 . S
N622 N623 1.365 . S
N623 C620 1.341 . S
N623 N622 1.365 . S
N623 H643 0.862 . S
C624 C619 1.501 . S
C624 H625 0.961 . S
C624 H626 0.961 . S
C624 H627 0.960 . S
H625 C624 0.961 . S
H626 C624 0.961 . S
H627 C624 0.960 . S
C628 N629 1.342 . S
C628 C632 1.401 . S
C628 C633 1.499 . S
N629 Co612 1.989 . S
N629 C628 1.342 . S
N629 N630 1.388 . S
N630 Co613 1.993 . S
N630 N629 1.388 . S
N630 C631 1.346 . S
C631 N630 1.346 . S
C631 C632 1.396 . S
C631 C641 1.510 . S
C632 C628 1.401 . S
C632 C631 1.396 . S
C633 C628 1.499 . S
C633 H634 0.959 . S
C633 H635 0.960 . S
C633 H636 0.961 . S
H634 C633 0.959 . S
H635 C633 0.960 . S
H636 C633 0.961 . S
O637 Co612 1.967 . S
O637 C645 1.258 . S
O638 Co613 1.941 . S
O638 C645 1.266 . S
H639 C641 0.959 . S
H640 C641 0.961 . S
C641 C631 1.510 . S
C641 H639 0.959 . S
C641 H640 0.961 . S
C641 H642 0.960 . S
H642 C641 0.960 . S
H643 N623 0.862 . S
O644 Co612 1.920 . S
O644 C617 1.289 . S
C645 O637 1.258 . S
C645 O638 1.266 . S
Co646 O649 1.970 . S
Co646 N663 1.989 . S
Co646 O671 1.967 . S
Co646 O678 1.920 . S
Co647 O650 1.966 . S
Co647 N656 2.022 . S
Co647 N664 1.993 . S
Co647 O672 1.941 . S
C648 O649 1.258 . S
C648 O650 1.263 . S
O649 Co646 1.970 . S
O649 C648 1.258 . S
O650 Co647 1.966 . S
O650 C648 1.263 . S
C651 O652 1.235 . S
C651 O678 1.289 . S
O652 C651 1.235 . S
C653 C655 1.400 . S
C653 N656 1.351 . S
C653 C658 1.501 . S
C654 C655 1.387 . S
C654 N657 1.341 . S
C655 C653 1.400 . S
C655 C654 1.387 . S
N656 Co647 2.022 . S
N656 C653 1.351 . S
N656 N657 1.365 . S
N657 C654 1.341 . S
N657 N656 1.365 . S
N657 H677 0.862 . S
C658 C653 1.501 . S
C658 H659 0.961 . S
C658 H660 0.961 . S
C658 H661 0.960 . S
H659 C658 0.961 . S
H660 C658 0.961 . S
H661 C658 0.960 . S
C662 N663 1.342 . S
C662 C666 1.401 . S
C662 C667 1.499 . S
N663 Co646 1.989 . S
N663 C662 1.342 . S
N663 N664 1.388 . S
N664 Co647 1.993 . S
N664 N663 1.388 . S
N664 C665 1.346 . S
C665 N664 1.346 . S
C665 C666 1.396 . S
C665 C675 1.510 . S
C666 C662 1.401 . S
C666 C665 1.396 . S
C667 C662 1.499 . S
C667 H668 0.959 . S
C667 H669 0.960 . S
C667 H670 0.961 . S
H668 C667 0.959 . S
H669 C667 0.960 . S
H670 C667 0.961 . S
O671 Co646 1.967 . S
O671 C679 1.258 . S
O672 Co647 1.941 . S
O672 C679 1.266 . S
H673 C675 0.959 . S
H674 C675 0.961 . S
C675 C665 1.510 . S
C675 H673 0.959 . S
C675 H674 0.961 . S
C675 H676 0.960 . S
H676 C675 0.960 . S
H677 N657 0.862 . S
O678 Co646 1.920 . S
O678 C651 1.289 . S
C679 O671 1.258 . S
C679 O672 1.266 . S
Co680 O683 1.970 . S
Co680 N697 1.989 . S
Co680 O705 1.967 . S
Co680 O712 1.920 . S
Co681 O684 1.966 . S
Co681 N690 2.022 . S
Co681 N698 1.993 . S
Co681 O706 1.941 . S
C682 O683 1.258 . S
C682 O684 1.263 . S
O683 Co680 1.970 . S
O683 C682 1.258 . S
O684 Co681 1.966 . S
O684 C682 1.263 . S
C685 O686 1.235 . S
C685 O712 1.289 . S
O686 C685 1.235 . S
C687 C689 1.400 . S
C687 N690 1.351 . S
C687 C692 1.501 . S
C688 C689 1.387 . S
C688 N691 1.341 . S
C689 C687 1.400 . S
C689 C688 1.387 . S
N690 Co681 2.022 . S
N690 C687 1.351 . S
N690 N691 1.365 . S
N691 C688 1.341 . S
N691 N690 1.365 . S
N691 H711 0.862 . S
C692 C687 1.501 . S
C692 H693 0.961 . S
C692 H694 0.961 . S
C692 H695 0.960 . S
H693 C692 0.961 . S
H694 C692 0.961 . S
H695 C692 0.960 . S
C696 N697 1.342 . S
C696 C700 1.401 . S
C696 C701 1.499 . S
N697 Co680 1.989 . S
N697 C696 1.342 . S
N697 N698 1.388 . S
N698 Co681 1.993 . S
N698 N697 1.388 . S
N698 C699 1.346 . S
C699 N698 1.346 . S
C699 C700 1.396 . S
C699 C709 1.510 . S
C700 C696 1.401 . S
C700 C699 1.396 . S
C701 C696 1.499 . S
C701 H702 0.959 . S
C701 H703 0.960 . S
C701 H704 0.961 . S
H702 C701 0.959 . S
H703 C701 0.960 . S
H704 C701 0.961 . S
O705 Co680 1.967 . S
O705 C713 1.258 . S
O706 Co681 1.941 . S
O706 C713 1.266 . S
H707 C709 0.959 . S
H708 C709 0.961 . S
C709 C699 1.510 . S
C709 H707 0.959 . S
C709 H708 0.961 . S
C709 H710 0.960 . S
H710 C709 0.960 . S
H711 N691 0.862 . S
O712 Co680 1.920 . S
O712 C685 1.289 . S
C713 O705 1.258 . S
C713 O706 1.266 . S
Co714 O717 1.970 . S
Co714 N731 1.989 . S
Co714 O739 1.967 . S
Co714 O746 1.920 . S
Co715 O718 1.966 . S
Co715 N724 2.022 . S
Co715 N732 1.993 . S
Co715 O740 1.941 . S
C716 O717 1.258 . S
C716 O718 1.263 . S
O717 Co714 1.970 . S
O717 C716 1.258 . S
O718 Co715 1.966 . S
O718 C716 1.263 . S
C719 O720 1.235 . S
C719 O746 1.289 . S
O720 C719 1.235 . S
C721 C723 1.400 . S
C721 N724 1.351 . S
C721 C726 1.501 . S
C722 C723 1.387 . S
C722 N725 1.341 . S
C723 C721 1.400 . S
C723 C722 1.387 . S
N724 Co715 2.022 . S
N724 C721 1.351 . S
N724 N725 1.365 . S
N725 C722 1.341 . S
N725 N724 1.365 . S
N725 H745 0.862 . S
C726 C721 1.501 . S
C726 H727 0.961 . S
C726 H728 0.961 . S
C726 H729 0.960 . S
H727 C726 0.961 . S
H728 C726 0.961 . S
H729 C726 0.960 . S
C730 N731 1.342 . S
C730 C734 1.401 . S
C730 C735 1.499 . S
N731 Co714 1.989 . S
N731 C730 1.342 . S
N731 N732 1.388 . S
N732 Co715 1.993 . S
N732 N731 1.388 . S
N732 C733 1.346 . S
C733 N732 1.346 . S
C733 C734 1.396 . S
C733 C743 1.510 . S
C734 C730 1.401 . S
C734 C733 1.396 . S
C735 C730 1.499 . S
C735 H736 0.959 . S
C735 H737 0.960 . S
C735 H738 0.961 . S
H736 C735 0.959 . S
H737 C735 0.960 . S
H738 C735 0.961 . S
O739 Co714 1.967 . S
O739 C747 1.258 . S
O740 Co715 1.941 . S
O740 C747 1.266 . S
H741 C743 0.959 . S
H742 C743 0.961 . S
C743 C733 1.510 . S
C743 H741 0.959 . S
C743 H742 0.961 . S
C743 H744 0.960 . S
H744 C743 0.960 . S
H745 N725 0.862 . S
O746 Co714 1.920 . S
O746 C719 1.289 . S
C747 O739 1.258 . S
C747 O740 1.266 . S
Co748 O751 1.970 . S
Co748 N765 1.989 . S
Co748 O773 1.967 . S
Co748 O780 1.920 . S
Co749 O752 1.966 . S
Co749 N758 2.022 . S
Co749 N766 1.993 . S
Co749 O774 1.941 . S
C750 O751 1.258 . S
C750 O752 1.263 . S
O751 Co748 1.970 . S
O751 C750 1.258 . S
O752 Co749 1.966 . S
O752 C750 1.263 . S
C753 O754 1.235 . S
C753 O780 1.289 . S
O754 C753 1.235 . S
C755 C757 1.400 . S
C755 N758 1.351 . S
C755 C760 1.501 . S
C756 C757 1.387 . S
C756 N759 1.341 . S
C757 C755 1.400 . S
C757 C756 1.387 . S
N758 Co749 2.022 . S
N758 C755 1.351 . S
N758 N759 1.365 . S
N759 C756 1.341 . S
N759 N758 1.365 . S
N759 H779 0.862 . S
C760 C755 1.501 . S
C760 H761 0.961 . S
C760 H762 0.961 . S
C760 H763 0.960 . S
H761 C760 0.961 . S
H762 C760 0.961 . S
H763 C760 0.960 . S
C764 N765 1.342 . S
C764 C768 1.401 . S
C764 C769 1.499 . S
N765 Co748 1.989 . S
N765 C764 1.342 . S
N765 N766 1.388 . S
N766 Co749 1.993 . S
N766 N765 1.388 . S
N766 C767 1.346 . S
C767 N766 1.346 . S
C767 C768 1.396 . S
C767 C777 1.510 . S
C768 C764 1.401 . S
C768 C767 1.396 . S
C769 C764 1.499 . S
C769 H770 0.959 . S
C769 H771 0.960 . S
C769 H772 0.961 . S
H770 C769 0.959 . S
H771 C769 0.960 . S
H772 C769 0.961 . S
O773 Co748 1.967 . S
O773 C781 1.258 . S
O774 Co749 1.941 . S
O774 C781 1.266 . S
H775 C777 0.959 . S
H776 C777 0.961 . S
C777 C767 1.510 . S
C777 H775 0.959 . S
C777 H776 0.961 . S
C777 H778 0.960 . S
H778 C777 0.960 . S
H779 N759 0.862 . S
O780 Co748 1.920 . S
O780 C753 1.289 . S
C781 O773 1.258 . S
C781 O774 1.266 . S
Co782 O785 1.970 . S
Co782 N799 1.989 . S
Co782 O807 1.967 . S
Co782 O814 1.920 . S
Co783 O786 1.966 . S
Co783 N792 2.022 . S
Co783 N800 1.993 . S
Co783 O808 1.941 . S
C784 O785 1.258 . S
C784 O786 1.263 . S
O785 Co782 1.970 . S
O785 C784 1.258 . S
O786 Co783 1.966 . S
O786 C784 1.263 . S
C787 O788 1.235 . S
C787 O814 1.289 . S
O788 C787 1.235 . S
C789 C791 1.400 . S
C789 N792 1.351 . S
C789 C794 1.501 . S
C790 C791 1.387 . S
C790 N793 1.341 . S
C791 C789 1.400 . S
C791 C790 1.387 . S
N792 Co783 2.022 . S
N792 C789 1.351 . S
N792 N793 1.365 . S
N793 C790 1.341 . S
N793 N792 1.365 . S
N793 H813 0.862 . S
C794 C789 1.501 . S
C794 H795 0.961 . S
C794 H796 0.961 . S
C794 H797 0.960 . S
H795 C794 0.961 . S
H796 C794 0.961 . S
H797 C794 0.960 . S
C798 N799 1.342 . S
C798 C802 1.401 . S
C798 C803 1.499 . S
N799 Co782 1.989 . S
N799 C798 1.342 . S
N799 N800 1.388 . S
N800 Co783 1.993 . S
N800 N799 1.388 . S
N800 C801 1.346 . S
C801 N800 1.346 . S
C801 C802 1.396 . S
C801 C811 1.510 . S
C802 C798 1.401 . S
C802 C801 1.396 . S
C803 C798 1.499 . S
C803 H804 0.959 . S
C803 H805 0.960 . S
C803 H806 0.961 . S
H804 C803 0.959 . S
H805 C803 0.960 . S
H806 C803 0.961 . S
O807 Co782 1.967 . S
O807 C815 1.258 . S
O808 Co783 1.941 . S
O808 C815 1.266 . S
H809 C811 0.959 . S
H810 C811 0.961 . S
C811 C801 1.510 . S
C811 H809 0.959 . S
C811 H810 0.961 . S
C811 H812 0.960 . S
H812 C811 0.960 . S
H813 N793 0.862 . S
O814 Co782 1.920 . S
O814 C787 1.289 . S
C815 O807 1.258 . S
C815 O808 1.266 . S
Co816 O819 1.970 . S
Co816 N833 1.989 . S
Co816 O841 1.967 . S
Co816 O848 1.920 . S
Co817 O820 1.966 . S
Co817 N826 2.022 . S
Co817 N834 1.993 . S
Co817 O842 1.941 . S
C818 O819 1.258 . S
C818 O820 1.263 . S
O819 Co816 1.970 . S
O819 C818 1.258 . S
O820 Co817 1.966 . S
O820 C818 1.263 . S
C821 O822 1.235 . S
C821 O848 1.289 . S
O822 C821 1.235 . S
C823 C825 1.400 . S
C823 N826 1.351 . S
C823 C828 1.501 . S
C824 C825 1.387 . S
C824 N827 1.341 . S
C825 C823 1.400 . S
C825 C824 1.387 . S
N826 Co817 2.022 . S
N826 C823 1.351 . S
N826 N827 1.365 . S
N827 C824 1.341 . S
N827 N826 1.365 . S
N827 H847 0.862 . S
C828 C823 1.501 . S
C828 H829 0.961 . S
C828 H830 0.961 . S
C828 H831 0.960 . S
H829 C828 0.961 . S
H830 C828 0.961 . S
H831 C828 0.960 . S
C832 N833 1.342 . S
C832 C836 1.401 . S
C832 C837 1.499 . S
N833 Co816 1.989 . S
N833 C832 1.342 . S
N833 N834 1.388 . S
N834 Co817 1.993 . S
N834 N833 1.388 . S
N834 C835 1.346 . S
C835 N834 1.346 . S
C835 C836 1.396 . S
C835 C845 1.510 . S
C836 C832 1.401 . S
C836 C835 1.396 . S
C837 C832 1.499 . S
C837 H838 0.959 . S
C837 H839 0.960 . S
C837 H840 0.961 . S
H838 C837 0.959 . S
H839 C837 0.960 . S
H840 C837 0.961 . S
O841 Co816 1.967 . S
O841 C849 1.258 . S
O842 Co817 1.941 . S
O842 C849 1.266 . S
H843 C845 0.959 . S
H844 C845 0.961 . S
C845 C835 1.510 . S
C845 H843 0.959 . S
C845 H844 0.961 . S
C845 H846 0.960 . S
H846 C845 0.960 . S
H847 N827 0.862 . S
O848 Co816 1.920 . S
O848 C821 1.289 . S
C849 O841 1.258 . S
C849 O842 1.266 . S
Co850 O853 1.970 . S
Co850 N867 1.989 . S
Co850 O875 1.967 . S
Co850 O882 1.920 . S
Co851 O854 1.966 . S
Co851 N860 2.022 . S
Co851 N868 1.993 . S
Co851 O876 1.941 . S
C852 O853 1.258 . S
C852 O854 1.263 . S
O853 Co850 1.970 . S
O853 C852 1.258 . S
O854 Co851 1.966 . S
O854 C852 1.263 . S
C855 O856 1.235 . S
C855 O882 1.289 . S
O856 C855 1.235 . S
C857 C859 1.400 . S
C857 N860 1.351 . S
C857 C862 1.501 . S
C858 C859 1.387 . S
C858 N861 1.341 . S
C859 C857 1.400 . S
C859 C858 1.387 . S
N860 Co851 2.022 . S
N860 C857 1.351 . S
N860 N861 1.365 . S
N861 C858 1.341 . S
N861 N860 1.365 . S
N861 H881 0.862 . S
C862 C857 1.501 . S
C862 H863 0.961 . S
C862 H864 0.961 . S
C862 H865 0.960 . S
H863 C862 0.961 . S
H864 C862 0.961 . S
H865 C862 0.960 . S
C866 N867 1.342 . S
C866 C870 1.401 . S
C866 C871 1.499 . S
N867 Co850 1.989 . S
N867 C866 1.342 . S
N867 N868 1.388 . S
N868 Co851 1.993 . S
N868 N867 1.388 . S
N868 C869 1.346 . S
C869 N868 1.346 . S
C869 C870 1.396 . S
C869 C879 1.510 . S
C870 C866 1.401 . S
C870 C869 1.396 . S
C871 C866 1.499 . S
C871 H872 0.959 . S
C871 H873 0.960 . S
C871 H874 0.961 . S
H872 C871 0.959 . S
H873 C871 0.960 . S
H874 C871 0.961 . S
O875 Co850 1.967 . S
O875 C883 1.258 . S
O876 Co851 1.941 . S
O876 C883 1.266 . S
H877 C879 0.959 . S
H878 C879 0.961 . S
C879 C869 1.510 . S
C879 H877 0.959 . S
C879 H878 0.961 . S
C879 H880 0.960 . S
H880 C879 0.960 . S
H881 N861 0.862 . S
O882 Co850 1.920 . S
O882 C855 1.289 . S
C883 O875 1.258 . S
C883 O876 1.266 . S
Co884 O887 1.970 . S
Co884 N901 1.989 . S
Co884 O909 1.967 . S
Co884 O916 1.920 . S
Co885 O888 1.966 . S
Co885 N894 2.022 . S
Co885 N902 1.993 . S
Co885 O910 1.941 . S
C886 O887 1.258 . S
C886 O888 1.263 . S
O887 Co884 1.970 . S
O887 C886 1.258 . S
O888 Co885 1.966 . S
O888 C886 1.263 . S
C889 O890 1.235 . S
C889 O916 1.289 . S
O890 C889 1.235 . S
C891 C893 1.400 . S
C891 N894 1.351 . S
C891 C896 1.501 . S
C892 C893 1.387 . S
C892 N895 1.341 . S
C893 C891 1.400 . S
C893 C892 1.387 . S
N894 Co885 2.022 . S
N894 C891 1.351 . S
N894 N895 1.365 . S
N895 C892 1.341 . S
N895 N894 1.365 . S
N895 H915 0.862 . S
C896 C891 1.501 . S
C896 H897 0.961 . S
C896 H898 0.961 . S
C896 H899 0.960 . S
H897 C896 0.961 . S
H898 C896 0.961 . S
H899 C896 0.960 . S
C900 N901 1.342 . S
C900 C904 1.401 . S
C900 C905 1.499 . S
N901 Co884 1.989 . S
N901 C900 1.342 . S
N901 N902 1.388 . S
N902 Co885 1.993 . S
N902 N901 1.388 . S
N902 C903 1.346 . S
C903 N902 1.346 . S
C903 C904 1.396 . S
C903 C913 1.510 . S
C904 C900 1.401 . S
C904 C903 1.396 . S
C905 C900 1.499 . S
C905 H906 0.959 . S
C905 H907 0.960 . S
C905 H908 0.961 . S
H906 C905 0.959 . S
H907 C905 0.960 . S
H908 C905 0.961 . S
O909 Co884 1.967 . S
O909 C917 1.258 . S
O910 Co885 1.941 . S
O910 C917 1.266 . S
H911 C913 0.959 . S
H912 C913 0.961 . S
C913 C903 1.510 . S
C913 H911 0.959 . S
C913 H912 0.961 . S
C913 H914 0.960 . S
H914 C913 0.960 . S
H915 N895 0.862 . S
O916 Co884 1.920 . S
O916 C889 1.289 . S
C917 O909 1.258 . S
C917 O910 1.266 . S
Co918 O921 1.970 . S
Co918 N935 1.989 . S
Co918 O943 1.967 . S
Co918 O950 1.920 . S
Co919 O922 1.966 . S
Co919 N928 2.022 . S
Co919 N936 1.993 . S
Co919 O944 1.941 . S
C920 O921 1.258 . S
C920 O922 1.263 . S
O921 Co918 1.970 . S
O921 C920 1.258 . S
O922 Co919 1.966 . S
O922 C920 1.263 . S
C923 O924 1.235 . S
C923 O950 1.289 . S
O924 C923 1.235 . S
C925 C927 1.400 . S
C925 N928 1.351 . S
C925 C930 1.501 . S
C926 C927 1.387 . S
C926 N929 1.341 . S
C927 C925 1.400 . S
C927 C926 1.387 . S
N928 Co919 2.022 . S
N928 C925 1.351 . S
N928 N929 1.365 . S
N929 C926 1.341 . S
N929 N928 1.365 . S
N929 H949 0.862 . S
C930 C925 1.501 . S
C930 H931 0.961 . S
C930 H932 0.961 . S
C930 H933 0.960 . S
H931 C930 0.961 . S
H932 C930 0.961 . S
H933 C930 0.960 . S
C934 N935 1.342 . S
C934 C938 1.401 . S
C934 C939 1.499 . S
N935 Co918 1.989 . S
N935 C934 1.342 . S
N935 N936 1.388 . S
N936 Co919 1.993 . S
N936 N935 1.388 . S
N936 C937 1.346 . S
C937 N936 1.346 . S
C937 C938 1.396 . S
C937 C947 1.510 . S
C938 C934 1.401 . S
C938 C937 1.396 . S
C939 C934 1.499 . S
C939 H940 0.959 . S
C939 H941 0.960 . S
C939 H942 0.961 . S
H940 C939 0.959 . S
H941 C939 0.960 . S
H942 C939 0.961 . S
O943 Co918 1.967 . S
O943 C951 1.258 . S
O944 Co919 1.941 . S
O944 C951 1.266 . S
H945 C947 0.959 . S
H946 C947 0.961 . S
C947 C937 1.510 . S
C947 H945 0.959 . S
C947 H946 0.961 . S
C947 H948 0.960 . S
H948 C947 0.960 . S
H949 N929 0.862 . S
O950 Co918 1.920 . S
O950 C923 1.289 . S
C951 O943 1.258 . S
C951 O944 1.266 . S
Co952 O955 1.970 . S
Co952 N969 1.989 . S
Co952 O977 1.967 . S
Co952 O984 1.920 . S
Co953 O956 1.966 . S
Co953 N962 2.022 . S
Co953 N970 1.993 . S
Co953 O978 1.941 . S
C954 O955 1.258 . S
C954 O956 1.263 . S
O955 Co952 1.970 . S
O955 C954 1.258 . S
O956 Co953 1.966 . S
O956 C954 1.263 . S
C957 O958 1.235 . S
C957 O984 1.289 . S
O958 C957 1.235 . S
C959 C961 1.400 . S
C959 N962 1.351 . S
C959 C964 1.501 . S
C960 C961 1.387 . S
C960 N963 1.341 . S
C961 C959 1.400 . S
C961 C960 1.387 . S
N962 Co953 2.022 . S
N962 C959 1.351 . S
N962 N963 1.365 . S
N963 C960 1.341 . S
N963 N962 1.365 . S
N963 H983 0.862 . S
C964 C959 1.501 . S
C964 H965 0.961 . S
C964 H966 0.961 . S
C964 H967 0.960 . S
H965 C964 0.961 . S
H966 C964 0.961 . S
H967 C964 0.960 . S
C968 N969 1.342 . S
C968 C972 1.401 . S
C968 C973 1.499 . S
N969 Co952 1.989 . S
N969 C968 1.342 . S
N969 N970 1.388 . S
N970 Co953 1.993 . S
N970 N969 1.388 . S
N970 C971 1.346 . S
C971 N970 1.346 . S
C971 C972 1.396 . S
C971 C981 1.510 . S
C972 C968 1.401 . S
C972 C971 1.396 . S
C973 C968 1.499 . S
C973 H974 0.959 . S
C973 H975 0.960 . S
C973 H976 0.961 . S
H974 C973 0.959 . S
H975 C973 0.960 . S
H976 C973 0.961 . S
O977 Co952 1.967 . S
O977 C985 1.258 . S
O978 Co953 1.941 . S
O978 C985 1.266 . S
H979 C981 0.959 . S
H980 C981 0.961 . S
C981 C971 1.510 . S
C981 H979 0.959 . S
C981 H980 0.961 . S
C981 H982 0.960 . S
H982 C981 0.960 . S
H983 N963 0.862 . S
O984 Co952 1.920 . S
O984 C957 1.289 . S
C985 O977 1.258 . S
C985 O978 1.266 . S
Co986 O989 1.970 . S
Co986 N1003 1.989 . S
Co986 O1011 1.967 . S
Co986 O1018 1.920 . S
Co987 O990 1.966 . S
Co987 N996 2.022 . S
Co987 N1004 1.993 . S
Co987 O1012 1.941 . S
C988 O989 1.258 . S
C988 O990 1.263 . S
O989 Co986 1.970 . S
O989 C988 1.258 . S
O990 Co987 1.966 . S
O990 C988 1.263 . S
C991 O992 1.235 . S
C991 O1018 1.289 . S
O992 C991 1.235 . S
C993 C995 1.400 . S
C993 N996 1.351 . S
C993 C998 1.501 . S
C994 C995 1.387 . S
C994 N997 1.341 . S
C995 C993 1.400 . S
C995 C994 1.387 . S
N996 Co987 2.022 . S
N996 C993 1.351 . S
N996 N997 1.365 . S
N997 C994 1.341 . S
N997 N996 1.365 . S
N997 H1017 0.862 . S
C998 C993 1.501 . S
C998 H999 0.961 . S
C998 H1000 0.961 . S
C998 H1001 0.960 . S
H999 C998 0.961 . S
H1000 C998 0.961 . S
H1001 C998 0.960 . S
C1002 N1003 1.342 . S
C1002 C1006 1.401 . S
C1002 C1007 1.499 . S
N1003 Co986 1.989 . S
N1003 C1002 1.342 . S
N1003 N1004 1.388 . S
N1004 Co987 1.993 . S
N1004 N1003 1.388 . S
N1004 C1005 1.346 . S
C1005 N1004 1.346 . S
C1005 C1006 1.396 . S
C1005 C1015 1.510 . S
C1006 C1002 1.401 . S
C1006 C1005 1.396 . S
C1007 C1002 1.499 . S
C1007 H1008 0.959 . S
C1007 H1009 0.960 . S
C1007 H1010 0.961 . S
H1008 C1007 0.959 . S
H1009 C1007 0.960 . S
H1010 C1007 0.961 . S
O1011 Co986 1.967 . S
O1011 C1019 1.258 . S
O1012 Co987 1.941 . S
O1012 C1019 1.266 . S
H1013 C1015 0.959 . S
H1014 C1015 0.961 . S
C1015 C1005 1.510 . S
C1015 H1013 0.959 . S
C1015 H1014 0.961 . S
C1015 H1016 0.960 . S
H1016 C1015 0.960 . S
H1017 N997 0.862 . S
O1018 Co986 1.920 . S
O1018 C991 1.289 . S
C1019 O1011 1.258 . S
C1019 O1012 1.266 . S
Co1020 O1023 1.970 . S
Co1020 N1037 1.989 . S
Co1020 O1045 1.967 . S
Co1020 O1052 1.920 . S
Co1021 O1024 1.966 . S
Co1021 N1030 2.022 . S
Co1021 N1038 1.993 . S
Co1021 O1046 1.941 . S
C1022 O1023 1.258 . S
C1022 O1024 1.263 . S
O1023 Co1020 1.970 . S
O1023 C1022 1.258 . S
O1024 Co1021 1.966 . S
O1024 C1022 1.263 . S
C1025 O1026 1.235 . S
C1025 O1052 1.289 . S
O1026 C1025 1.235 . S
C1027 C1029 1.400 . S
C1027 N1030 1.351 . S
C1027 C1032 1.501 . S
C1028 C1029 1.387 . S
C1028 N1031 1.341 . S
C1029 C1027 1.400 . S
C1029 C1028 1.387 . S
N1030 Co1021 2.022 . S
N1030 C1027 1.351 . S
N1030 N1031 1.365 . S
N1031 C1028 1.341 . S
N1031 N1030 1.365 . S
N1031 H1051 0.862 . S
C1032 C1027 1.501 . S
C1032 H1033 0.961 . S
C1032 H1034 0.961 . S
C1032 H1035 0.960 . S
H1033 C1032 0.961 . S
H1034 C1032 0.961 . S
H1035 C1032 0.960 . S
C1036 N1037 1.342 . S
C1036 C1040 1.401 . S
C1036 C1041 1.499 . S
N1037 Co1020 1.989 . S
N1037 C1036 1.342 . S
N1037 N1038 1.388 . S
N1038 Co1021 1.993 . S
N1038 N1037 1.388 . S
N1038 C1039 1.346 . S
C1039 N1038 1.346 . S
C1039 C1040 1.396 . S
C1039 C1049 1.510 . S
C1040 C1036 1.401 . S
C1040 C1039 1.396 . S
C1041 C1036 1.499 . S
C1041 H1042 0.959 . S
C1041 H1043 0.960 . S
C1041 H1044 0.961 . S
H1042 C1041 0.959 . S
H1043 C1041 0.960 . S
H1044 C1041 0.961 . S
O1045 Co1020 1.967 . S
O1045 C1053 1.258 . S
O1046 Co1021 1.941 . S
O1046 C1053 1.266 . S
H1047 C1049 0.959 . S
H1048 C1049 0.961 . S
C1049 C1039 1.510 . S
C1049 H1047 0.959 . S
C1049 H1048 0.961 . S
C1049 H1050 0.960 . S
H1050 C1049 0.960 . S
H1051 N1031 0.862 . S
O1052 Co1020 1.920 . S
O1052 C1025 1.289 . S
C1053 O1045 1.258 . S
C1053 O1046 1.266 . S
Co1054 O1057 1.970 . S
Co1054 N1071 1.989 . S
Co1054 O1079 1.967 . S
Co1054 O1086 1.920 . S
Co1055 O1058 1.966 . S
Co1055 N1064 2.022 . S
Co1055 N1072 1.993 . S
Co1055 O1080 1.941 . S
C1056 O1057 1.258 . S
C1056 O1058 1.263 . S
O1057 Co1054 1.970 . S
O1057 C1056 1.258 . S
O1058 Co1055 1.966 . S
O1058 C1056 1.263 . S
C1059 O1060 1.235 . S
C1059 O1086 1.289 . S
O1060 C1059 1.235 . S
C1061 C1063 1.400 . S
C1061 N1064 1.351 . S
C1061 C1066 1.501 . S
C1062 C1063 1.387 . S
C1062 N1065 1.341 . S
C1063 C1061 1.400 . S
C1063 C1062 1.387 . S
N1064 Co1055 2.022 . S
N1064 C1061 1.351 . S
N1064 N1065 1.365 . S
N1065 C1062 1.341 . S
N1065 N1064 1.365 . S
N1065 H1085 0.862 . S
C1066 C1061 1.501 . S
C1066 H1067 0.961 . S
C1066 H1068 0.961 . S
C1066 H1069 0.960 . S
H1067 C1066 0.961 . S
H1068 C1066 0.961 . S
H1069 C1066 0.960 . S
C1070 N1071 1.342 . S
C1070 C1074 1.401 . S
C1070 C1075 1.499 . S
N1071 Co1054 1.989 . S
N1071 C1070 1.342 . S
N1071 N1072 1.388 . S
N1072 Co1055 1.993 . S
N1072 N1071 1.388 . S
N1072 C1073 1.346 . S
C1073 N1072 1.346 . S
C1073 C1074 1.396 . S
C1073 C1083 1.510 . S
C1074 C1070 1.401 . S
C1074 C1073 1.396 . S
C1075 C1070 1.499 . S
C1075 H1076 0.959 . S
C1075 H1077 0.960 . S
C1075 H1078 0.961 . S
H1076 C1075 0.959 . S
H1077 C1075 0.960 . S
H1078 C1075 0.961 . S
O1079 Co1054 1.967 . S
O1079 C1087 1.258 . S
O1080 Co1055 1.941 . S
O1080 C1087 1.266 . S
H1081 C1083 0.959 . S
H1082 C1083 0.961 . S
C1083 C1073 1.510 . S
C1083 H1081 0.959 . S
C1083 H1082 0.961 . S
C1083 H1084 0.960 . S
H1084 C1083 0.960 . S
H1085 N1065 0.862 . S
O1086 Co1054 1.920 . S
O1086 C1059 1.289 . S
C1087 O1079 1.258 . S
C1087 O1080 1.266 . S
H1088 C1094 0.930 . S
H1089 C1097 0.930 . S
H1090 C1098 0.930 . S
H1091 C1099 0.930 . S
H1092 C1102 0.930 . S
H1093 C1103 0.930 . S
C1094 H1088 0.930 . S
C1094 C1095 1.355 . S
C1094 C1096 1.415 . S
C1095 C1094 1.355 . S
C1095 C1097 1.419 . S
C1096 C1094 1.415 . S
C1096 C1101 1.425 . S
C1096 C1103 1.409 . S
C1097 H1089 0.930 . S
C1097 C1095 1.419 . S
C1097 C1098 1.362 . S
C1098 H1090 0.930 . S
C1098 C1097 1.362 . S
C1098 C1101 1.409 . S
C1099 H1091 0.930 . S
C1099 C1100 1.355 . S
C1099 C1101 1.415 . S
C1100 C1099 1.355 . S
C1100 C1102 1.419 . S
C1101 C1096 1.425 . S
C1101 C1098 1.409 . S
C1101 C1099 1.415 . S
C1102 H1092 0.930 . S
C1102 C1100 1.419 . S
C1102 C1103 1.362 . S
C1103 H1093 0.930 . S
C1103 C1096 1.409 . S
C1103 C1102 1.362 . S
H1104 C1110 0.930 . S
H1105 C1113 0.930 . S
H1106 C1114 0.930 . S
H1107 C1115 0.930 . S
H1108 C1118 0.930 . S
H1109 C1119 0.930 . S
C1110 H1104 0.930 . S
C1110 C1111 1.355 . S
C1110 C1112 1.415 1_455 S
C1111 C1110 1.355 . S
C1111 C1113 1.419 . S
C1112 C1110 1.415 1_655 S
C1112 C1117 1.425 1_655 S
C1112 C1119 1.409 . S
C1113 H1105 0.930 . S
C1113 C1111 1.419 . S
C1113 C1114 1.362 . S
C1114 H1106 0.930 . S
C1114 C1113 1.362 . S
C1114 C1117 1.409 . S
C1115 H1107 0.930 . S
C1115 C1116 1.355 . S
C1115 C1117 1.415 1_655 S
C1116 C1115 1.355 . S
C1116 C1118 1.419 . S
C1117 C1112 1.425 1_455 S
C1117 C1114 1.409 . S
C1117 C1115 1.415 1_455 S
C1118 H1108 0.930 . S
C1118 C1116 1.419 . S
C1118 C1119 1.362 . S
C1119 H1109 0.930 . S
C1119 C1112 1.409 . S
C1119 C1118 1.362 . S
H1120 C1126 0.930 . S
H1121 C1129 0.930 . S
H1122 C1130 0.940 . S
H1123 C1131 0.930 . S
H1124 C1134 0.930 . S
H1125 C1135 0.940 . S
C1126 H1120 0.930 . S
C1126 C1127 1.355 . S
C1126 C1128 1.415 . S
C1127 C1126 1.355 . S
C1127 C1129 1.419 . S
C1128 C1126 1.415 . S
C1128 C1133 1.425 1_455 S
C1128 C1135 1.414 . S
C1129 H1121 0.930 . S
C1129 C1127 1.419 . S
C1129 C1130 1.349 1_455 S
C1130 H1122 0.940 . S
C1130 C1129 1.349 1_655 S
C1130 C1133 1.414 . S
C1131 H1123 0.930 . S
C1131 C1132 1.355 . S
C1131 C1133 1.415 . S
C1132 C1131 1.355 . S
C1132 C1134 1.419 . S
C1133 C1128 1.425 1_655 S
C1133 C1130 1.414 . S
C1133 C1131 1.415 . S
C1134 H1124 0.930 . S
C1134 C1132 1.419 . S
C1134 C1135 1.349 1_655 S
C1135 H1125 0.940 . S
C1135 C1128 1.414 . S
C1135 C1134 1.349 1_455 S
H1136 C1142 0.930 . S
H1137 C1145 0.930 . S
H1138 C1146 0.930 . S
H1139 C1147 0.930 . S
H1140 C1150 0.930 . S
H1141 C1151 0.930 . S
C1142 H1136 0.930 . S
C1142 C1143 1.355 . S
C1142 C1144 1.415 . S
C1143 C1142 1.355 . S
C1143 C1145 1.419 . S
C1144 C1142 1.415 . S
C1144 C1149 1.425 . S
C1144 C1151 1.409 . S
C1145 H1137 0.930 . S
C1145 C1143 1.419 . S
C1145 C1146 1.362 . S
C1146 H1138 0.930 . S
C1146 C1145 1.362 . S
C1146 C1149 1.409 . S
C1147 H1139 0.930 . S
C1147 C1148 1.355 . S
C1147 C1149 1.415 . S
C1148 C1147 1.355 . S
C1148 C1150 1.419 . S
C1149 C1144 1.425 . S
C1149 C1146 1.409 . S
C1149 C1147 1.415 . S
C1150 H1140 0.930 . S
C1150 C1148 1.419 . S
C1150 C1151 1.362 . S
C1151 H1141 0.930 . S
C1151 C1144 1.409 . S
C1151 C1150 1.362 . S
H1152 C1158 0.930 . S
H1153 C1161 0.930 . S
H1154 C1162 0.930 . S
H1155 C1163 0.930 . S
H1156 C1166 0.930 . S
H1157 C1167 0.930 . S
C1158 H1152 0.930 . S
C1158 C1159 1.355 . S
C1158 C1160 1.415 . S
C1159 C1158 1.355 . S
C1159 C1161 1.419 . S
C1160 C1158 1.415 . S
C1160 C1165 1.425 . S
C1160 C1167 1.409 . S
C1161 H1153 0.930 . S
C1161 C1159 1.419 . S
C1161 C1162 1.362 . S
C1162 H1154 0.930 . S
C1162 C1161 1.362 . S
C1162 C1165 1.409 . S
C1163 H1155 0.930 . S
C1163 C1164 1.355 . S
C1163 C1165 1.415 . S
C1164 C1163 1.355 . S
C1164 C1166 1.419 . S
C1165 C1160 1.425 . S
C1165 C1162 1.409 . S
C1165 C1163 1.415 . S
C1166 H1156 0.930 . S
C1166 C1164 1.419 . S
C1166 C1167 1.362 . S
C1167 H1157 0.930 . S
C1167 C1160 1.409 . S
C1167 C1166 1.362 . S
H1168 C1174 0.930 . S
H1169 C1177 0.930 . S
H1170 C1178 0.930 . S
H1171 C1179 0.930 . S
H1172 C1182 0.930 . S
H1173 C1183 0.930 . S
C1174 H1168 0.930 . S
C1174 C1175 1.355 . S
C1174 C1176 1.415 . S
C1175 C1174 1.355 . S
C1175 C1177 1.419 . S
C1176 C1174 1.415 . S
C1176 C1181 1.425 . S
C1176 C1183 1.409 . S
C1177 H1169 0.930 . S
C1177 C1175 1.419 . S
C1177 C1178 1.362 . S
C1178 H1170 0.930 . S
C1178 C1177 1.362 . S
C1178 C1181 1.409 . S
C1179 H1171 0.930 . S
C1179 C1180 1.355 . S
C1179 C1181 1.415 . S
C1180 C1179 1.355 . S
C1180 C1182 1.419 . S
C1181 C1176 1.425 . S
C1181 C1178 1.409 . S
C1181 C1179 1.415 . S
C1182 H1172 0.930 . S
C1182 C1180 1.419 . S
C1182 C1183 1.362 . S
C1183 H1173 0.930 . S
C1183 C1176 1.409 . S
C1183 C1182 1.362 . S
H1184 C1190 0.930 . S
H1185 C1193 0.930 . S
H1186 C1194 0.930 . S
H1187 C1195 0.930 . S
H1188 C1198 0.930 . S
H1189 C1199 0.930 . S
C1190 H1184 0.930 . S
C1190 C1191 1.355 . S
C1190 C1192 1.415 1_455 S
C1191 C1190 1.355 . S
C1191 C1193 1.419 . S
C1192 C1190 1.415 1_655 S
C1192 C1197 1.425 1_655 S
C1192 C1199 1.409 . S
C1193 H1185 0.930 . S
C1193 C1191 1.419 . S
C1193 C1194 1.362 . S
C1194 H1186 0.930 . S
C1194 C1193 1.362 . S
C1194 C1197 1.409 . S
C1195 H1187 0.930 . S
C1195 C1196 1.355 . S
C1195 C1197 1.415 1_655 S
C1196 C1195 1.355 . S
C1196 C1198 1.419 . S
C1197 C1192 1.425 1_455 S
C1197 C1194 1.409 . S
C1197 C1195 1.415 1_455 S
C1198 H1188 0.930 . S
C1198 C1196 1.419 . S
C1198 C1199 1.362 . S
C1199 H1189 0.930 . S
C1199 C1192 1.409 . S
C1199 C1198 1.362 . S
H1200 C1206 0.930 . S
H1201 C1209 0.930 . S
H1202 C1210 0.930 . S
H1203 C1211 0.930 . S
H1204 C1214 0.930 . S
H1205 C1215 0.930 . S
C1206 H1200 0.930 . S
C1206 C1207 1.355 . S
C1206 C1208 1.415 . S
C1207 C1206 1.355 . S
C1207 C1209 1.419 1_455 S
C1208 C1206 1.415 . S
C1208 C1213 1.425 1_455 S
C1208 C1215 1.409 . S
C1209 H1201 0.930 . S
C1209 C1207 1.419 1_655 S
C1209 C1210 1.362 . S
C1210 H1202 0.930 . S
C1210 C1209 1.362 . S
C1210 C1213 1.409 . S
C1211 H1203 0.930 . S
C1211 C1212 1.355 . S
C1211 C1213 1.415 . S
C1212 C1211 1.355 . S
C1212 C1214 1.419 1_655 S
C1213 C1208 1.425 1_655 S
C1213 C1210 1.409 . S
C1213 C1211 1.415 . S
C1214 H1204 0.930 . S
C1214 C1212 1.419 1_455 S
C1214 C1215 1.362 . S
C1215 H1205 0.930 . S
C1215 C1208 1.409 . S
C1215 C1214 1.362 . S
H1216 C1222 0.930 . S
H1217 C1225 0.930 . S
H1218 C1226 0.930 . S
H1219 C1227 0.930 . S
H1220 C1230 0.930 . S
H1221 C1231 0.930 . S
C1222 H1216 0.930 . S
C1222 C1223 1.355 . S
C1222 C1224 1.415 . S
C1223 C1222 1.355 . S
C1223 C1225 1.419 . S
C1224 C1222 1.415 . S
C1224 C1229 1.425 . S
C1224 C1231 1.409 . S
C1225 H1217 0.930 . S
C1225 C1223 1.419 . S
C1225 C1226 1.362 . S
C1226 H1218 0.930 . S
C1226 C1225 1.362 . S
C1226 C1229 1.409 . S
C1227 H1219 0.930 . S
C1227 C1228 1.355 . S
C1227 C1229 1.415 . S
C1228 C1227 1.355 . S
C1228 C1230 1.419 . S
C1229 C1224 1.425 . S
C1229 C1226 1.409 . S
C1229 C1227 1.415 . S
C1230 H1220 0.930 . S
C1230 C1228 1.419 . S
C1230 C1231 1.362 . S
C1231 H1221 0.930 . S
C1231 C1224 1.409 . S
C1231 C1230 1.362 . S
H1232 C1238 0.930 . S
H1233 C1241 0.930 . S
H1234 C1242 0.930 . S
H1235 C1243 0.930 . S
H1236 C1246 0.930 . S
H1237 C1247 0.930 . S
C1238 H1232 0.930 . S
C1238 C1239 1.355 . S
C1238 C1240 1.415 . S
C1239 C1238 1.355 . S
C1239 C1241 1.419 1_455 S
C1240 C1238 1.415 . S
C1240 C1245 1.425 1_455 S
C1240 C1247 1.409 . S
C1241 H1233 0.930 . S
C1241 C1239 1.419 1_655 S
C1241 C1242 1.362 . S
C1242 H1234 0.930 . S
C1242 C1241 1.362 . S
C1242 C1245 1.409 . S
C1243 H1235 0.930 . S
C1243 C1244 1.355 . S
C1243 C1245 1.415 . S
C1244 C1243 1.355 . S
C1244 C1246 1.419 1_655 S
C1245 C1240 1.425 1_655 S
C1245 C1242 1.409 . S
C1245 C1243 1.415 . S
C1246 H1236 0.930 . S
C1246 C1244 1.419 1_455 S
C1246 C1247 1.362 . S
C1247 H1237 0.930 . S
C1247 C1240 1.409 . S
C1247 C1246 1.362 . S
H1248 C1254 0.930 . S
H1249 C1257 0.930 . S
H1250 C1258 0.930 . S
H1251 C1259 0.930 . S
H1252 C1262 0.930 . S
H1253 C1263 0.930 . S
C1254 H1248 0.930 . S
C1254 C1255 1.355 . S
C1254 C1256 1.415 . S
C1255 C1254 1.355 . S
C1255 C1257 1.419 . S
C1256 C1254 1.415 . S
C1256 C1261 1.425 1_655 S
C1256 C1263 1.409 1_655 S
C1257 H1249 0.930 . S
C1257 C1255 1.419 . S
C1257 C1258 1.362 . S
C1258 H1250 0.930 . S
C1258 C1257 1.362 . S
C1258 C1261 1.409 1_655 S
C1259 H1251 0.930 . S
C1259 C1260 1.355 . S
C1259 C1261 1.415 . S
C1260 C1259 1.355 . S
C1260 C1262 1.419 . S
C1261 C1256 1.425 1_455 S
C1261 C1258 1.409 1_455 S
C1261 C1259 1.415 . S
C1262 H1252 0.930 . S
C1262 C1260 1.419 . S
C1262 C1263 1.362 . S
C1263 H1253 0.930 . S
C1263 C1256 1.409 1_455 S
C1263 C1262 1.362 . S
H1264 C1270 0.930 . S
H1265 C1273 0.930 . S
H1266 C1274 0.930 . S
H1267 C1275 0.930 . S
H1268 C1278 0.930 . S
H1269 C1279 0.960 . S
C1270 H1264 0.930 . S
C1270 C1271 1.355 . S
C1270 C1272 1.415 . S
C1271 C1270 1.355 . S
C1271 C1273 1.419 . S
C1272 C1270 1.415 . S
C1272 C1277 1.425 . S
C1272 C1279 1.409 . S
C1273 H1265 0.930 . S
C1273 C1271 1.419 . S
C1273 C1274 1.362 . S
C1274 H1266 0.930 . S
C1274 C1273 1.362 . S
C1274 C1277 1.409 . S
C1275 H1267 0.930 . S
C1275 C1276 1.355 . S
C1275 C1277 1.415 . S
C1276 C1275 1.355 . S
C1276 C1278 1.419 . S
C1277 C1272 1.425 . S
C1277 C1274 1.409 . S
C1277 C1275 1.415 . S
C1278 H1268 0.930 . S
C1278 C1276 1.419 . S
C1278 C1279 1.362 . S
C1279 H1269 0.960 . S
C1279 C1272 1.409 . S
C1279 C1278 1.362 . S
H1280 C1286 0.930 . S
H1281 C1289 0.930 . S
H1282 C1290 0.930 . S
H1283 C1291 0.930 . S
H1284 C1294 0.930 . S
H1285 C1295 0.930 . S
C1286 H1280 0.930 . S
C1286 C1287 1.355 . S
C1286 C1288 1.415 . S
C1287 C1286 1.355 . S
C1287 C1289 1.419 . S
C1288 C1286 1.415 . S
C1288 C1293 1.425 . S
C1288 C1295 1.409 . S
C1289 H1281 0.930 . S
C1289 C1287 1.419 . S
C1289 C1290 1.362 . S
C1290 H1282 0.930 . S
C1290 C1289 1.362 . S
C1290 C1293 1.409 . S
C1291 H1283 0.930 . S
C1291 C1292 1.355 . S
C1291 C1293 1.415 . S
C1292 C1291 1.355 . S
C1292 C1294 1.419 . S
C1293 C1288 1.425 . S
C1293 C1290 1.409 . S
C1293 C1291 1.415 . S
C1294 H1284 0.930 . S
C1294 C1292 1.419 . S
C1294 C1295 1.362 . S
C1295 H1285 0.930 . S
C1295 C1288 1.409 . S
C1295 C1294 1.362 . S
H1296 C1302 0.930 . S
H1297 C1305 0.930 . S
H1298 C1306 0.930 . S
H1299 C1307 0.930 . S
H1300 C1310 0.930 . S
H1301 C1311 0.930 . S
C1302 H1296 0.930 . S
C1302 C1303 1.355 . S
C1302 C1304 1.415 . S
C1303 C1302 1.355 . S
C1303 C1305 1.419 . S
C1304 C1302 1.415 . S
C1304 C1309 1.425 . S
C1304 C1311 1.409 . S
C1305 H1297 0.930 . S
C1305 C1303 1.419 . S
C1305 C1306 1.362 . S
C1306 H1298 0.930 . S
C1306 C1305 1.362 . S
C1306 C1309 1.409 . S
C1307 H1299 0.930 . S
C1307 C1308 1.355 . S
C1307 C1309 1.415 . S
C1308 C1307 1.355 . S
C1308 C1310 1.419 . S
C1309 C1304 1.425 . S
C1309 C1306 1.409 . S
C1309 C1307 1.415 . S
C1310 H1300 0.930 . S
C1310 C1308 1.419 . S
C1310 C1311 1.362 . S
C1311 H1301 0.930 . S
C1311 C1304 1.409 . S
C1311 C1310 1.362 . S
H1312 C1318 0.930 . S
H1313 C1321 0.930 . S
H1314 C1322 0.930 . S
H1315 C1323 0.930 . S
H1316 C1326 0.930 . S
H1317 C1327 0.930 . S
C1318 H1312 0.930 . S
C1318 C1319 1.355 . S
C1318 C1320 1.415 1_455 S
C1319 C1318 1.355 . S
C1319 C1321 1.419 . S
C1320 C1318 1.415 1_655 S
C1320 C1325 1.425 1_655 S
C1320 C1327 1.409 . S
C1321 H1313 0.930 . S
C1321 C1319 1.419 . S
C1321 C1322 1.362 . S
C1322 H1314 0.930 . S
C1322 C1321 1.362 . S
C1322 C1325 1.409 . S
C1323 H1315 0.930 . S
C1323 C1324 1.355 . S
C1323 C1325 1.415 1_655 S
C1324 C1323 1.355 . S
C1324 C1326 1.419 . S
C1325 C1320 1.425 1_455 S
C1325 C1322 1.409 . S
C1325 C1323 1.415 1_455 S
C1326 H1316 0.930 . S
C1326 C1324 1.419 . S
C1326 C1327 1.362 . S
C1327 H1317 0.930 . S
C1327 C1320 1.409 . S
C1327 C1326 1.362 . S
H1328 C1334 0.930 . S
H1329 C1337 0.930 . S
H1330 C1338 0.930 . S
H1331 C1339 0.930 . S
H1332 C1342 0.930 . S
H1333 C1343 0.930 . S
C1334 H1328 0.930 . S
C1334 C1335 1.355 . S
C1334 C1336 1.415 . S
C1335 C1334 1.355 . S
C1335 C1337 1.419 1_455 S
C1336 C1334 1.415 . S
C1336 C1341 1.425 1_455 S
C1336 C1343 1.409 . S
C1337 H1329 0.930 . S
C1337 C1335 1.419 1_655 S
C1337 C1338 1.362 . S
C1338 H1330 0.930 . S
C1338 C1337 1.362 . S
C1338 C1341 1.409 . S
C1339 H1331 0.930 . S
C1339 C1340 1.355 . S
C1339 C1341 1.415 . S
C1340 C1339 1.355 . S
C1340 C1342 1.419 1_655 S
C1341 C1336 1.425 1_655 S
C1341 C1338 1.409 . S
C1341 C1339 1.415 . S
C1342 H1332 0.930 . S
C1342 C1340 1.419 1_455 S
C1342 C1343 1.362 . S
C1343 H1333 0.930 . S
C1343 C1336 1.409 . S
C1343 C1342 1.362 . S
H1344 C1350 0.930 . S
H1345 C1353 0.930 . S
H1346 C1354 0.930 . S
H1347 C1355 0.930 . S
H1348 C1358 0.930 . S
H1349 C1359 0.930 . S
C1350 H1344 0.930 . S
C1350 C1351 1.355 . S
C1350 C1352 1.415 . S
C1351 C1350 1.355 . S
C1351 C1353 1.419 . S
C1352 C1350 1.415 . S
C1352 C1357 1.425 . S
C1352 C1359 1.409 . S
C1353 H1345 0.930 . S
C1353 C1351 1.419 . S
C1353 C1354 1.362 . S
C1354 H1346 0.930 . S
C1354 C1353 1.362 . S
C1354 C1357 1.409 . S
C1355 H1347 0.930 . S
C1355 C1356 1.355 . S
C1355 C1357 1.415 . S
C1356 C1355 1.355 . S
C1356 C1358 1.419 . S
C1357 C1352 1.425 . S
C1357 C1354 1.409 . S
C1357 C1355 1.415 . S
C1358 H1348 0.930 . S
C1358 C1356 1.419 . S
C1358 C1359 1.362 . S
C1359 H1349 0.930 . S
C1359 C1352 1.409 . S
C1359 C1358 1.362 . S
H1360 C1366 0.930 . S
H1361 C1369 0.930 . S
H1362 C1370 0.930 . S
H1363 C1371 0.930 . S
H1364 C1374 0.930 . S
H1365 C1375 0.930 . S
C1366 H1360 0.930 . S
C1366 C1367 1.355 . S
C1366 C1368 1.415 . S
C1367 C1366 1.355 . S
C1367 C1369 1.419 . S
C1368 C1366 1.415 . S
C1368 C1373 1.425 . S
C1368 C1375 1.409 . S
C1369 H1361 0.930 . S
C1369 C1367 1.419 . S
C1369 C1370 1.362 . S
C1370 H1362 0.930 . S
C1370 C1369 1.362 . S
C1370 C1373 1.409 . S
C1371 H1363 0.930 . S
C1371 C1372 1.355 . S
C1371 C1373 1.415 . S
C1372 C1371 1.355 . S
C1372 C1374 1.419 . S
C1373 C1368 1.425 . S
C1373 C1370 1.409 . S
C1373 C1371 1.415 . S
C1374 H1364 0.930 . S
C1374 C1372 1.419 . S
C1374 C1375 1.362 . S
C1375 H1365 0.930 . S
C1375 C1368 1.409 . S
C1375 C1374 1.362 . S
H1376 C1382 0.930 . S
H1377 C1385 0.930 . S
H1378 C1386 0.930 . S
H1379 C1387 0.930 . S
H1380 C1390 0.930 . S
H1381 C1391 0.930 . S
C1382 H1376 0.930 . S
C1382 C1383 1.355 . S
C1382 C1384 1.415 . S
C1383 C1382 1.355 . S
C1383 C1385 1.419 . S
C1384 C1382 1.415 . S
C1384 C1389 1.425 . S
C1384 C1391 1.409 . S
C1385 H1377 0.930 . S
C1385 C1383 1.419 . S
C1385 C1386 1.362 . S
C1386 H1378 0.930 . S
C1386 C1385 1.362 . S
C1386 C1389 1.409 . S
C1387 H1379 0.930 . S
C1387 C1388 1.355 1_455 S
C1387 C1389 1.415 . S
C1388 C1387 1.355 1_655 S
C1388 C1390 1.419 . S
C1389 C1384 1.425 . S
C1389 C1386 1.409 . S
C1389 C1387 1.415 . S
C1390 H1380 0.930 . S
C1390 C1388 1.419 . S
C1390 C1391 1.362 1_655 S
C1391 H1381 0.930 . S
C1391 C1384 1.409 . S
C1391 C1390 1.362 1_455 S
H1392 C1398 0.930 . S
H1393 C1401 0.930 . S
H1394 C1402 0.930 . S
H1395 C1403 0.930 . S
H1396 C1406 0.930 . S
H1397 C1407 0.930 . S
C1398 H1392 0.930 . S
C1398 C1399 1.355 . S
C1398 C1400 1.415 . S
C1399 C1398 1.355 . S
C1399 C1401 1.419 . S
C1400 C1398 1.415 . S
C1400 C1405 1.425 . S
C1400 C1407 1.409 . S
C1401 H1393 0.930 . S
C1401 C1399 1.419 . S
C1401 C1402 1.362 . S
C1402 H1394 0.930 . S
C1402 C1401 1.362 . S
C1402 C1405 1.409 . S
C1403 H1395 0.930 . S
C1403 C1404 1.355 . S
C1403 C1405 1.415 . S
C1404 C1403 1.355 . S
C1404 C1406 1.419 . S
C1405 C1400 1.425 . S
C1405 C1402 1.409 . S
C1405 C1403 1.415 . S
C1406 H1396 0.930 . S
C1406 C1404 1.419 . S
C1406 C1407 1.362 . S
C1407 H1397 0.930 . S
C1407 C1400 1.409 . S
C1407 C1406 1.362 . S
H1408 C1414 0.930 . S
H1409 C1417 0.930 . S
H1410 C1418 0.930 . S
H1411 C1419 0.930 . S
H1412 C1422 0.930 . S
H1413 C1423 0.930 . S
C1414 H1408 0.930 . S
C1414 C1415 1.355 . S
C1414 C1416 1.415 . S
C1415 C1414 1.355 . S
C1415 C1417 1.419 . S
C1416 C1414 1.415 . S
C1416 C1421 1.425 . S
C1416 C1423 1.409 . S
C1417 H1409 0.930 . S
C1417 C1415 1.419 . S
C1417 C1418 1.362 . S
C1418 H1410 0.930 . S
C1418 C1417 1.362 . S
C1418 C1421 1.409 . S
C1419 H1411 0.930 . S
C1419 C1420 1.355 . S
C1419 C1421 1.415 . S
C1420 C1419 1.355 . S
C1420 C1422 1.419 . S
C1421 C1416 1.425 . S
C1421 C1418 1.409 . S
C1421 C1419 1.415 . S
C1422 H1412 0.930 . S
C1422 C1420 1.419 . S
C1422 C1423 1.362 . S
C1423 H1413 0.930 . S
C1423 C1416 1.409 . S
C1423 C1422 1.362 . S
H1424 C1430 0.930 . S
H1425 C1433 0.930 . S
H1426 C1434 0.930 . S
H1427 C1435 0.930 . S
H1428 C1438 0.930 . S
H1429 C1439 0.930 . S
C1430 H1424 0.930 . S
C1430 C1431 1.355 . S
C1430 C1432 1.415 . S
C1431 C1430 1.355 . S
C1431 C1433 1.419 . S
C1432 C1430 1.415 . S
C1432 C1437 1.425 . S
C1432 C1439 1.409 . S
C1433 H1425 0.930 . S
C1433 C1431 1.419 . S
C1433 C1434 1.362 . S
C1434 H1426 0.930 . S
C1434 C1433 1.362 . S
C1434 C1437 1.409 . S
C1435 H1427 0.930 . S
C1435 C1436 1.355 . S
C1435 C1437 1.415 . S
C1436 C1435 1.355 . S
C1436 C1438 1.419 . S
C1437 C1432 1.425 . S
C1437 C1434 1.409 . S
C1437 C1435 1.415 . S
C1438 H1428 0.930 . S
C1438 C1436 1.419 . S
C1438 C1439 1.362 . S
C1439 H1429 0.930 . S
C1439 C1432 1.409 . S
C1439 C1438 1.362 . S
H1440 C1446 0.930 . S
H1441 C1449 0.930 . S
H1442 C1450 0.933 . S
H1443 C1451 0.930 . S
H1444 C1454 0.930 . S
H1445 C1455 0.930 . S
C1446 H1440 0.930 . S
C1446 C1447 1.355 1_455 S
C1446 C1448 1.415 . S
C1447 C1446 1.355 1_655 S
C1447 C1449 1.419 . S
C1448 C1446 1.415 . S
C1448 C1453 1.425 . S
C1448 C1455 1.409 . S
C1449 H1441 0.930 . S
C1449 C1447 1.419 . S
C1449 C1450 1.362 1_655 S
C1450 H1442 0.933 . S
C1450 C1449 1.362 1_455 S
C1450 C1453 1.409 . S
C1451 H1443 0.930 . S
C1451 C1452 1.355 . S
C1451 C1453 1.415 . S
C1452 C1451 1.355 . S
C1452 C1454 1.419 . S
C1453 C1448 1.425 . S
C1453 C1450 1.409 . S
C1453 C1451 1.415 . S
C1454 H1444 0.930 . S
C1454 C1452 1.419 . S
C1454 C1455 1.362 . S
C1455 H1445 0.930 . S
C1455 C1448 1.409 . S
C1455 C1454 1.362 . S
H1456 C1462 0.930 . S
H1457 C1465 0.930 . S
H1458 C1466 0.930 . S
H1459 C1467 0.930 . S
H1460 C1470 0.930 . S
H1461 C1471 0.930 . S
C1462 H1456 0.930 . S
C1462 C1463 1.355 . S
C1462 C1464 1.415 . S
C1463 C1462 1.355 . S
C1463 C1465 1.419 . S
C1464 C1462 1.415 . S
C1464 C1469 1.425 . S
C1464 C1471 1.409 . S
C1465 H1457 0.930 . S
C1465 C1463 1.419 . S
C1465 C1466 1.362 . S
C1466 H1458 0.930 . S
C1466 C1465 1.362 . S
C1466 C1469 1.409 . S
C1467 H1459 0.930 . S
C1467 C1468 1.355 . S
C1467 C1469 1.415 . S
C1468 C1467 1.355 . S
C1468 C1470 1.419 . S
C1469 C1464 1.425 . S
C1469 C1466 1.409 . S
C1469 C1467 1.415 . S
C1470 H1460 0.930 . S
C1470 C1468 1.419 . S
C1470 C1471 1.362 . S
C1471 H1461 0.930 . S
C1471 C1464 1.409 . S
C1471 C1470 1.362 . S
H1472 C1478 0.930 . S
H1473 C1481 0.930 . S
H1474 C1482 0.930 . S
H1475 C1483 0.930 . S
H1476 C1486 0.930 . S
H1477 C1487 0.930 . S
C1478 H1472 0.930 . S
C1478 C1479 1.355 . S
C1478 C1480 1.415 . S
C1479 C1478 1.355 . S
C1479 C1481 1.419 . S
C1480 C1478 1.415 . S
C1480 C1485 1.425 . S
C1480 C1487 1.409 . S
C1481 H1473 0.930 . S
C1481 C1479 1.419 . S
C1481 C1482 1.362 . S
C1482 H1474 0.930 . S
C1482 C1481 1.362 . S
C1482 C1485 1.409 . S
C1483 H1475 0.930 . S
C1483 C1484 1.355 . S
C1483 C1485 1.415 . S
C1484 C1483 1.355 . S
C1484 C1486 1.419 . S
C1485 C1480 1.425 . S
C1485 C1482 1.409 . S
C1485 C1483 1.415 . S
C1486 H1476 0.930 . S
C1486 C1484 1.419 . S
C1486 C1487 1.362 . S
C1487 H1477 0.930 . S
C1487 C1480 1.409 . S
C1487 C1486 1.362 . S
H1488 C1494 0.930 . S
H1489 C1497 0.930 . S
H1490 C1498 0.930 . S
H1491 C1499 0.930 . S
H1492 C1502 0.930 . S
H1493 C1503 0.930 . S
C1494 H1488 0.930 . S
C1494 C1495 1.355 . S
C1494 C1496 1.415 . S
C1495 C1494 1.355 . S
C1495 C1497 1.419 . S
C1496 C1494 1.415 . S
C1496 C1501 1.425 . S
C1496 C1503 1.409 . S
C1497 H1489 0.930 . S
C1497 C1495 1.419 . S
C1497 C1498 1.362 . S
C1498 H1490 0.930 . S
C1498 C1497 1.362 . S
C1498 C1501 1.409 . S
C1499 H1491 0.930 . S
C1499 C1500 1.355 . S
C1499 C1501 1.415 . S
C1500 C1499 1.355 . S
C1500 C1502 1.419 . S
C1501 C1496 1.425 . S
C1501 C1498 1.409 . S
C1501 C1499 1.415 . S
C1502 H1492 0.930 . S
C1502 C1500 1.419 . S
C1502 C1503 1.362 . S
C1503 H1493 0.930 . S
C1503 C1496 1.409 . S
C1503 C1502 1.362 . S
H1504 C1510 0.930 . S
H1505 C1513 0.930 . S
H1506 C1514 0.930 . S
H1507 C1515 0.930 . S
H1508 C1518 0.930 . S
H1509 C1519 0.930 1_455 S
C1510 H1504 0.930 . S
C1510 C1511 1.355 . S
C1510 C1512 1.415 . S
C1511 C1510 1.355 . S
C1511 C1513 1.419 . S
C1512 C1510 1.415 . S
C1512 C1517 1.425 . S
C1512 C1519 1.409 . S
C1513 H1505 0.930 . S
C1513 C1511 1.419 . S
C1513 C1514 1.362 . S
C1514 H1506 0.930 . S
C1514 C1513 1.362 . S
C1514 C1517 1.409 . S
C1515 H1507 0.930 . S
C1515 C1516 1.355 1_655 S
C1515 C1517 1.415 . S
C1516 C1515 1.355 1_455 S
C1516 C1518 1.419 . S
C1517 C1512 1.425 . S
C1517 C1514 1.409 . S
C1517 C1515 1.415 . S
C1518 H1508 0.930 . S
C1518 C1516 1.419 . S
C1518 C1519 1.362 1_455 S
C1519 H1509 0.930 1_655 S
C1519 C1512 1.409 . S
C1519 C1518 1.362 1_655 S
H1520 C1526 0.930 . S
H1521 C1529 0.930 . S
H1522 C1530 0.930 . S
H1523 C1531 0.930 . S
H1524 C1534 0.930 . S
H1525 C1535 0.930 . S
C1526 H1520 0.930 . S
C1526 C1527 1.355 . S
C1526 C1528 1.415 . S
C1527 C1526 1.355 . S
C1527 C1529 1.419 . S
C1528 C1526 1.415 . S
C1528 C1533 1.425 . S
C1528 C1535 1.409 . S
C1529 H1521 0.930 . S
C1529 C1527 1.419 . S
C1529 C1530 1.362 . S
C1530 H1522 0.930 . S
C1530 C1529 1.362 . S
C1530 C1533 1.409 . S
C1531 H1523 0.930 . S
C1531 C1532 1.355 . S
C1531 C1533 1.415 . S
C1532 C1531 1.355 . S
C1532 C1534 1.419 . S
C1533 C1528 1.425 . S
C1533 C1530 1.409 . S
C1533 C1531 1.415 . S
C1534 H1524 0.930 . S
C1534 C1532 1.419 . S
C1534 C1535 1.362 . S
C1535 H1525 0.930 . S
C1535 C1528 1.409 . S
C1535 C1534 1.362 . S
H1536 C1542 0.930 . S
H1537 C1545 0.930 . S
H1538 C1546 0.930 . S
H1539 C1547 0.930 . S
H1540 C1550 0.930 . S
H1541 C1551 0.930 . S
C1542 H1536 0.930 . S
C1542 C1543 1.355 . S
C1542 C1544 1.415 . S
C1543 C1542 1.355 . S
C1543 C1545 1.419 . S
C1544 C1542 1.415 . S
C1544 C1549 1.425 . S
C1544 C1551 1.409 . S
C1545 H1537 0.930 . S
C1545 C1543 1.419 . S
C1545 C1546 1.362 . S
C1546 H1538 0.930 . S
C1546 C1545 1.362 . S
C1546 C1549 1.409 . S
C1547 H1539 0.930 . S
C1547 C1548 1.355 . S
C1547 C1549 1.415 . S
C1548 C1547 1.355 . S
C1548 C1550 1.419 . S
C1549 C1544 1.425 . S
C1549 C1546 1.409 . S
C1549 C1547 1.415 . S
C1550 H1540 0.930 . S
C1550 C1548 1.419 . S
C1550 C1551 1.362 . S
C1551 H1541 0.930 . S
C1551 C1544 1.409 . S
C1551 C1550 1.362 . S
H1552 C1558 0.930 . S
H1553 C1561 0.930 . S
H1554 C1562 0.930 . S
H1555 C1563 0.930 . S
H1556 C1566 0.930 . S
H1557 C1567 0.930 . S
C1558 H1552 0.930 . S
C1558 C1559 1.355 . S
C1558 C1560 1.415 . S
C1559 C1558 1.355 . S
C1559 C1561 1.419 . S
C1560 C1558 1.415 . S
C1560 C1565 1.425 . S
C1560 C1567 1.409 . S
C1561 H1553 0.930 . S
C1561 C1559 1.419 . S
C1561 C1562 1.362 . S
C1562 H1554 0.930 . S
C1562 C1561 1.362 . S
C1562 C1565 1.409 . S
C1563 H1555 0.930 . S
C1563 C1564 1.355 . S
C1563 C1565 1.415 . S
C1564 C1563 1.355 . S
C1564 C1566 1.419 . S
C1565 C1560 1.425 . S
C1565 C1562 1.409 . S
C1565 C1563 1.415 . S
C1566 H1556 0.930 . S
C1566 C1564 1.419 . S
C1566 C1567 1.362 . S
C1567 H1557 0.930 . S
C1567 C1560 1.409 . S
C1567 C1566 1.362 . S
H1568 C1574 0.930 . S
H1569 C1577 0.930 . S
H1570 C1578 0.930 . S
H1571 C1579 0.930 . S
H1572 C1582 0.930 . S
H1573 C1583 0.930 . S
C1574 H1568 0.930 . S
C1574 C1575 1.355 . S
C1574 C1576 1.415 . S
C1575 C1574 1.355 . S
C1575 C1577 1.419 . S
C1576 C1574 1.415 . S
C1576 C1581 1.425 . S
C1576 C1583 1.409 . S
C1577 H1569 0.930 . S
C1577 C1575 1.419 . S
C1577 C1578 1.362 . S
C1578 H1570 0.930 . S
C1578 C1577 1.362 . S
C1578 C1581 1.409 . S
C1579 H1571 0.930 . S
C1579 C1580 1.355 1_655 S
C1579 C1581 1.415 . S
C1580 C1579 1.355 1_455 S
C1580 C1582 1.419 . S
C1581 C1576 1.425 . S
C1581 C1578 1.409 . S
C1581 C1579 1.415 . S
C1582 H1572 0.930 . S
C1582 C1580 1.419 . S
C1582 C1583 1.362 1_455 S
C1583 H1573 0.930 . S
C1583 C1576 1.409 . S
C1583 C1582 1.362 1_655 S
H1584 C1590 0.930 . S
H1585 C1593 0.930 . S
H1586 C1594 0.930 . S
H1587 C1595 0.930 . S
H1588 C1598 0.930 . S
H1589 C1599 0.930 . S
C1590 H1584 0.930 . S
C1590 C1591 1.355 . S
C1590 C1592 1.415 . S
C1591 C1590 1.355 . S
C1591 C1593 1.419 . S
C1592 C1590 1.415 . S
C1592 C1597 1.425 . S
C1592 C1599 1.409 . S
C1593 H1585 0.930 . S
C1593 C1591 1.419 . S
C1593 C1594 1.362 . S
C1594 H1586 0.930 . S
C1594 C1593 1.362 . S
C1594 C1597 1.409 . S
C1595 H1587 0.930 . S
C1595 C1596 1.355 . S
C1595 C1597 1.415 . S
C1596 C1595 1.355 . S
C1596 C1598 1.419 . S
C1597 C1592 1.425 . S
C1597 C1594 1.409 . S
C1597 C1595 1.415 . S
C1598 H1588 0.930 . S
C1598 C1596 1.419 . S
C1598 C1599 1.362 . S
C1599 H1589 0.930 . S
C1599 C1592 1.409 . S
C1599 C1598 1.362 . S
H1600 C1606 0.930 1_455 S
H1601 C1609 0.930 . S
H1602 C1610 0.930 . S
H1603 C1611 0.930 . S
H1604 C1614 0.930 . S
H1605 C1615 0.930 . S
C1606 H1600 0.930 1_655 S
C1606 C1607 1.355 1_655 S
C1606 C1608 1.415 . S
C1607 C1606 1.355 1_455 S
C1607 C1609 1.419 1_455 S
C1608 C1606 1.415 . S
C1608 C1613 1.425 . S
C1608 C1615 1.409 . S
C1609 H1601 0.930 . S
C1609 C1607 1.419 1_655 S
C1609 C1610 1.362 . S
C1610 H1602 0.930 . S
C1610 C1609 1.362 . S
C1610 C1613 1.409 . S
C1611 H1603 0.930 . S
C1611 C1612 1.355 . S
C1611 C1613 1.415 . S
C1612 C1611 1.355 . S
C1612 C1614 1.419 . S
C1613 C1608 1.425 . S
C1613 C1610 1.409 . S
C1613 C1611 1.415 . S
C1614 H1604 0.930 . S
C1614 C1612 1.419 . S
C1614 C1615 1.362 . S
C1615 H1605 0.930 . S
C1615 C1608 1.409 . S
C1615 C1614 1.362 . S
H1616 C1622 0.930 . S
H1617 C1625 0.930 . S
H1618 C1626 0.930 . S
H1619 C1627 0.930 . S
H1620 C1630 0.930 . S
H1621 C1631 0.930 . S
C1622 H1616 0.930 . S
C1622 C1623 1.355 . S
C1622 C1624 1.415 . S
C1623 C1622 1.355 . S
C1623 C1625 1.419 . S
C1624 C1622 1.415 . S
C1624 C1629 1.425 . S
C1624 C1631 1.409 . S
C1625 H1617 0.930 . S
C1625 C1623 1.419 . S
C1625 C1626 1.362 . S
C1626 H1618 0.930 . S
C1626 C1625 1.362 . S
C1626 C1629 1.409 . S
C1627 H1619 0.930 . S
C1627 C1628 1.355 . S
C1627 C1629 1.415 . S
C1628 C1627 1.355 . S
C1628 C1630 1.419 . S
C1629 C1624 1.425 . S
C1629 C1626 1.409 . S
C1629 C1627 1.415 . S
C1630 H1620 0.930 . S
C1630 C1628 1.419 . S
C1630 C1631 1.362 . S
C1631 H1621 0.930 . S
C1631 C1624 1.409 . S
C1631 C1630 1.362 . S
H1632 C1638 0.930 . S
H1633 C1641 0.930 . S
H1634 C1642 0.930 . S
H1635 C1643 0.930 . S
H1636 C1646 0.930 . S
H1637 C1647 0.930 . S
C1638 H1632 0.930 . S
C1638 C1639 1.355 . S
C1638 C1640 1.415 . S
C1639 C1638 1.355 . S
C1639 C1641 1.419 . S
C1640 C1638 1.415 . S
C1640 C1645 1.425 . S
C1640 C1647 1.409 . S
C1641 H1633 0.930 . S
C1641 C1639 1.419 . S
C1641 C1642 1.362 . S
C1642 H1634 0.930 . S
C1642 C1641 1.362 . S
C1642 C1645 1.409 . S
C1643 H1635 0.930 . S
C1643 C1644 1.355 . S
C1643 C1645 1.415 . S
C1644 C1643 1.355 . S
C1644 C1646 1.419 . S
C1645 C1640 1.425 . S
C1645 C1642 1.409 . S
C1645 C1643 1.415 . S
C1646 H1636 0.930 . S
C1646 C1644 1.419 . S
C1646 C1647 1.362 . S
C1647 H1637 0.930 . S
C1647 C1640 1.409 . S
C1647 C1646 1.362 . S
H1648 C1654 0.930 . S
H1649 C1657 0.930 . S
H1650 C1658 0.930 . S
H1651 C1659 0.930 . S
H1652 C1662 0.930 . S
H1653 C1663 0.930 . S
C1654 H1648 0.930 . S
C1654 C1655 1.355 . S
C1654 C1656 1.415 . S
C1655 C1654 1.355 . S
C1655 C1657 1.419 . S
C1656 C1654 1.415 . S
C1656 C1661 1.425 . S
C1656 C1663 1.409 . S
C1657 H1649 0.930 . S
C1657 C1655 1.419 . S
C1657 C1658 1.362 . S
C1658 H1650 0.930 . S
C1658 C1657 1.362 . S
C1658 C1661 1.409 . S
C1659 H1651 0.930 . S
C1659 C1660 1.355 . S
C1659 C1661 1.415 . S
C1660 C1659 1.355 . S
C1660 C1662 1.419 . S
C1661 C1656 1.425 . S
C1661 C1658 1.409 . S
C1661 C1659 1.415 . S
C1662 H1652 0.930 . S
C1662 C1660 1.419 . S
C1662 C1663 1.362 . S
C1663 H1653 0.930 . S
C1663 C1656 1.409 . S
C1663 C1662 1.362 . S
H1664 C1670 0.930 . S
H1665 C1673 0.930 . S
H1666 C1674 0.930 . S
H1667 C1675 0.930 1_455 S
H1668 C1678 0.930 . S
H1669 C1679 0.930 . S
C1670 H1664 0.930 . S
C1670 C1671 1.355 . S
C1670 C1672 1.415 . S
C1671 C1670 1.355 . S
C1671 C1673 1.419 . S
C1672 C1670 1.415 . S
C1672 C1677 1.425 . S
C1672 C1679 1.409 . S
C1673 H1665 0.930 . S
C1673 C1671 1.419 . S
C1673 C1674 1.362 . S
C1674 H1666 0.930 . S
C1674 C1673 1.362 . S
C1674 C1677 1.409 . S
C1675 H1667 0.930 1_655 S
C1675 C1676 1.355 1_655 S
C1675 C1677 1.415 . S
C1676 C1675 1.355 1_455 S
C1676 C1678 1.419 1_455 S
C1677 C1672 1.425 . S
C1677 C1674 1.409 . S
C1677 C1675 1.415 . S
C1678 H1668 0.930 . S
C1678 C1676 1.419 1_655 S
C1678 C1679 1.362 . S
C1679 H1669 0.930 . S
C1679 C1672 1.409 . S
C1679 C1678 1.362 . S
H1680 C1686 0.930 . S
H1681 C1689 0.930 . S
H1682 C1690 0.930 . S
H1683 C1691 0.930 . S
H1684 C1694 0.930 . S
H1685 C1695 0.930 . S
C1686 H1680 0.930 . S
C1686 C1687 1.355 . S
C1686 C1688 1.415 . S
C1687 C1686 1.355 . S
C1687 C1689 1.419 . S
C1688 C1686 1.415 . S
C1688 C1693 1.425 . S
C1688 C1695 1.409 . S
C1689 H1681 0.930 . S
C1689 C1687 1.419 . S
C1689 C1690 1.362 . S
C1690 H1682 0.930 . S
C1690 C1689 1.362 . S
C1690 C1693 1.409 . S
C1691 H1683 0.930 . S
C1691 C1692 1.355 . S
C1691 C1693 1.415 . S
C1692 C1691 1.355 . S
C1692 C1694 1.419 . S
C1693 C1688 1.425 . S
C1693 C1690 1.409 . S
C1693 C1691 1.415 . S
C1694 H1684 0.930 . S
C1694 C1692 1.419 . S
C1694 C1695 1.362 . S
C1695 H1685 0.930 . S
C1695 C1688 1.409 . S
C1695 C1694 1.362 . S
H1696 C1702 0.930 . S
H1697 C1705 0.930 . S
H1698 C1706 0.930 . S
H1699 C1707 0.930 . S
H1700 C1710 0.930 . S
H1701 C1711 0.930 . S
C1702 H1696 0.930 . S
C1702 C1703 1.355 . S
C1702 C1704 1.415 . S
C1703 C1702 1.355 . S
C1703 C1705 1.419 . S
C1704 C1702 1.415 . S
C1704 C1709 1.425 . S
C1704 C1711 1.409 . S
C1705 H1697 0.930 . S
C1705 C1703 1.419 . S
C1705 C1706 1.362 . S
C1706 H1698 0.930 . S
C1706 C1705 1.362 . S
C1706 C1709 1.409 . S
C1707 H1699 0.930 . S
C1707 C1708 1.355 . S
C1707 C1709 1.415 . S
C1708 C1707 1.355 . S
C1708 C1710 1.419 . S
C1709 C1704 1.425 . S
C1709 C1706 1.409 . S
C1709 C1707 1.415 . S
C1710 H1700 0.930 . S
C1710 C1708 1.419 . S
C1710 C1711 1.362 . S
C1711 H1701 0.930 . S
C1711 C1704 1.409 . S
C1711 C1710 1.362 . S
H1712 C1718 0.930 . S
H1713 C1721 0.930 . S
H1714 C1722 0.930 . S
H1715 C1723 0.930 . S
H1716 C1726 0.930 . S
H1717 C1727 0.930 . S
C1718 H1712 0.930 . S
C1718 C1719 1.355 . S
C1718 C1720 1.415 . S
C1719 C1718 1.355 . S
C1719 C1721 1.419 . S
C1720 C1718 1.415 . S
C1720 C1725 1.425 . S
C1720 C1727 1.409 . S
C1721 H1713 0.930 . S
C1721 C1719 1.419 . S
C1721 C1722 1.362 . S
C1722 H1714 0.930 . S
C1722 C1721 1.362 . S
C1722 C1725 1.409 . S
C1723 H1715 0.930 . S
C1723 C1724 1.355 . S
C1723 C1725 1.415 . S
C1724 C1723 1.355 . S
C1724 C1726 1.419 . S
C1725 C1720 1.425 . S
C1725 C1722 1.409 . S
C1725 C1723 1.415 . S
C1726 H1716 0.930 . S
C1726 C1724 1.419 . S
C1726 C1727 1.362 . S
C1727 H1717 0.930 . S
C1727 C1720 1.409 . S
C1727 C1726 1.362 . S
H1728 C1734 0.930 . S
H1729 C1737 0.930 . S
H1730 C1738 0.930 1_655 S
H1731 C1739 0.930 . S
H1732 C1742 0.930 . S
H1733 C1743 0.930 . S
C1734 H1728 0.930 . S
C1734 C1735 1.355 1_455 S
C1734 C1736 1.415 . S
C1735 C1734 1.355 1_655 S
C1735 C1737 1.419 . S
C1736 C1734 1.415 . S
C1736 C1741 1.425 . S
C1736 C1743 1.409 . S
C1737 H1729 0.930 . S
C1737 C1735 1.419 . S
C1737 C1738 1.362 1_655 S
C1738 H1730 0.930 1_455 S
C1738 C1737 1.362 1_455 S
C1738 C1741 1.409 . S
C1739 H1731 0.930 . S
C1739 C1740 1.355 . S
C1739 C1741 1.415 . S
C1740 C1739 1.355 . S
C1740 C1742 1.419 . S
C1741 C1736 1.425 . S
C1741 C1738 1.409 . S
C1741 C1739 1.415 . S
C1742 H1732 0.930 . S
C1742 C1740 1.419 . S
C1742 C1743 1.362 . S
C1743 H1733 0.930 . S
C1743 C1736 1.409 . S
C1743 C1742 1.362 . S
H1744 C1750 0.930 . S
H1745 C1753 0.930 . S
H1746 C1754 0.930 . S
H1747 C1755 0.930 . S
H1748 C1758 0.930 . S
H1749 C1759 0.930 . S
C1750 H1744 0.930 . S
C1750 C1751 1.355 . S
C1750 C1752 1.415 . S
C1751 C1750 1.355 . S
C1751 C1753 1.419 . S
C1752 C1750 1.415 . S
C1752 C1757 1.425 . S
C1752 C1759 1.409 . S
C1753 H1745 0.930 . S
C1753 C1751 1.419 . S
C1753 C1754 1.362 . S
C1754 H1746 0.930 . S
C1754 C1753 1.362 . S
C1754 C1757 1.409 . S
C1755 H1747 0.930 . S
C1755 C1756 1.355 . S
C1755 C1757 1.415 . S
C1756 C1755 1.355 . S
C1756 C1758 1.419 . S
C1757 C1752 1.425 . S
C1757 C1754 1.409 . S
C1757 C1755 1.415 . S
C1758 H1748 0.930 . S
C1758 C1756 1.419 . S
C1758 C1759 1.362 . S
C1759 H1749 0.930 . S
C1759 C1752 1.409 . S
C1759 C1758 1.362 . S
H1760 C1766 0.930 . S
H1761 C1769 0.930 . S
H1762 C1770 0.930 . S
H1763 C1771 0.930 . S
H1764 C1774 0.930 . S
H1765 C1775 0.930 . S
C1766 H1760 0.930 . S
C1766 C1767 1.355 . S
C1766 C1768 1.415 . S
C1767 C1766 1.355 . S
C1767 C1769 1.419 . S
C1768 C1766 1.415 . S
C1768 C1773 1.425 . S
C1768 C1775 1.409 . S
C1769 H1761 0.930 . S
C1769 C1767 1.419 . S
C1769 C1770 1.362 . S
C1770 H1762 0.930 . S
C1770 C1769 1.362 . S
C1770 C1773 1.409 . S
C1771 H1763 0.930 . S
C1771 C1772 1.355 . S
C1771 C1773 1.415 . S
C1772 C1771 1.355 . S
C1772 C1774 1.419 . S
C1773 C1768 1.425 . S
C1773 C1770 1.409 . S
C1773 C1771 1.415 . S
C1774 H1764 0.930 . S
C1774 C1772 1.419 . S
C1774 C1775 1.362 . S
C1775 H1765 0.930 . S
C1775 C1768 1.409 . S
C1775 C1774 1.362 . S
H1776 C1782 0.930 . S
H1777 C1785 0.930 . S
H1778 C1786 0.930 . S
H1779 C1787 0.930 . S
H1780 C1790 0.930 . S
H1781 C1791 0.930 . S
C1782 H1776 0.930 . S
C1782 C1783 1.355 . S
C1782 C1784 1.415 . S
C1783 C1782 1.355 . S
C1783 C1785 1.419 . S
C1784 C1782 1.415 . S
C1784 C1789 1.425 . S
C1784 C1791 1.409 . S
C1785 H1777 0.930 . S
C1785 C1783 1.419 . S
C1785 C1786 1.362 . S
C1786 H1778 0.930 . S
C1786 C1785 1.362 . S
C1786 C1789 1.409 . S
C1787 H1779 0.930 . S
C1787 C1788 1.355 . S
C1787 C1789 1.415 . S
C1788 C1787 1.355 . S
C1788 C1790 1.419 . S
C1789 C1784 1.425 . S
C1789 C1786 1.409 . S
C1789 C1787 1.415 . S
C1790 H1780 0.930 . S
C1790 C1788 1.419 . S
C1790 C1791 1.362 . S
C1791 H1781 0.930 . S
C1791 C1784 1.409 . S
C1791 C1790 1.362 . S
H1792 C1798 0.930 . S
H1793 C1801 0.930 . S
H1794 C1802 0.930 . S
H1795 C1803 0.930 . S
H1796 C1806 0.930 . S
H1797 C1807 0.930 1_655 S
C1798 H1792 0.930 . S
C1798 C1799 1.355 . S
C1798 C1800 1.415 . S
C1799 C1798 1.355 . S
C1799 C1801 1.419 . S
C1800 C1798 1.415 . S
C1800 C1805 1.425 . S
C1800 C1807 1.409 . S
C1801 H1793 0.930 . S
C1801 C1799 1.419 . S
C1801 C1802 1.362 . S
C1802 H1794 0.930 . S
C1802 C1801 1.362 . S
C1802 C1805 1.409 . S
C1803 H1795 0.930 . S
C1803 C1804 1.355 1_455 S
C1803 C1805 1.415 . S
C1804 C1803 1.355 1_655 S
C1804 C1806 1.419 . S
C1805 C1800 1.425 . S
C1805 C1802 1.409 . S
C1805 C1803 1.415 . S
C1806 H1796 0.930 . S
C1806 C1804 1.419 . S
C1806 C1807 1.362 1_655 S
C1807 H1797 0.930 1_455 S
C1807 C1800 1.409 . S
C1807 C1806 1.362 1_455 S
H1808 C1814 0.930 . S
H1809 C1817 0.930 . S
H1810 C1818 0.930 . S
H1811 C1819 0.930 . S
H1812 C1822 0.930 . S
H1813 C1823 0.930 . S
C1814 H1808 0.930 . S
C1814 C1815 1.355 . S
C1814 C1816 1.415 . S
C1815 C1814 1.355 . S
C1815 C1817 1.419 . S
C1816 C1814 1.415 . S
C1816 C1821 1.425 . S
C1816 C1823 1.409 . S
C1817 H1809 0.930 . S
C1817 C1815 1.419 . S
C1817 C1818 1.362 . S
C1818 H1810 0.930 . S
C1818 C1817 1.362 . S
C1818 C1821 1.409 . S
C1819 H1811 0.930 . S
C1819 C1820 1.355 . S
C1819 C1821 1.415 . S
C1820 C1819 1.355 . S
C1820 C1822 1.419 . S
C1821 C1816 1.425 . S
C1821 C1818 1.409 . S
C1821 C1819 1.415 . S
C1822 H1812 0.930 . S
C1822 C1820 1.419 . S
C1822 C1823 1.362 . S
C1823 H1813 0.930 . S
C1823 C1816 1.409 . S
C1823 C1822 1.362 . S
H1824 C1830 0.930 . S
H1825 C1833 0.930 . S
H1826 C1834 0.930 . S
H1827 C1835 0.930 . S
H1828 C1838 0.930 . S
H1829 C1839 0.930 . S
C1830 H1824 0.930 . S
C1830 C1831 1.355 . S
C1830 C1832 1.415 . S
C1831 C1830 1.355 . S
C1831 C1833 1.419 . S
C1832 C1830 1.415 . S
C1832 C1837 1.425 . S
C1832 C1839 1.409 . S
C1833 H1825 0.930 . S
C1833 C1831 1.419 . S
C1833 C1834 1.362 . S
C1834 H1826 0.930 . S
C1834 C1833 1.362 . S
C1834 C1837 1.409 . S
C1835 H1827 0.930 . S
C1835 C1836 1.355 . S
C1835 C1837 1.415 . S
C1836 C1835 1.355 . S
C1836 C1838 1.419 . S
C1837 C1832 1.425 . S
C1837 C1834 1.409 . S
C1837 C1835 1.415 . S
C1838 H1828 0.930 . S
C1838 C1836 1.419 . S
C1838 C1839 1.362 . S
C1839 H1829 0.930 . S
C1839 C1832 1.409 . S
C1839 C1838 1.362 . S
H1840 C1846 0.930 . S
H1841 C1849 0.930 . S
H1842 C1850 0.930 . S
H1843 C1851 0.930 . S
H1844 C1854 0.930 . S
H1845 C1855 0.930 . S
C1846 H1840 0.930 . S
C1846 C1847 1.355 . S
C1846 C1848 1.415 . S
C1847 C1846 1.355 . S
C1847 C1849 1.419 . S
C1848 C1846 1.415 . S
C1848 C1853 1.425 . S
C1848 C1855 1.409 . S
C1849 H1841 0.930 . S
C1849 C1847 1.419 . S
C1849 C1850 1.362 . S
C1850 H1842 0.930 . S
C1850 C1849 1.362 . S
C1850 C1853 1.409 . S
C1851 H1843 0.930 . S
C1851 C1852 1.355 . S
C1851 C1853 1.415 . S
C1852 C1851 1.355 . S
C1852 C1854 1.419 . S
C1853 C1848 1.425 . S
C1853 C1850 1.409 . S
C1853 C1851 1.415 . S
C1854 H1844 0.930 . S
C1854 C1852 1.419 . S
C1854 C1855 1.362 . S
C1855 H1845 0.930 . S
C1855 C1848 1.409 . S
C1855 C1854 1.362 . S
H1856 C1862 0.930 . S
H1857 C1865 0.930 . S
H1858 C1866 0.937 . S
H1859 C1867 0.930 . S
H1860 C1870 0.930 . S
H1861 C1871 0.930 . S
C1862 H1856 0.930 . S
C1862 C1863 1.355 . S
C1862 C1864 1.415 . S
C1863 C1862 1.355 . S
C1863 C1865 1.419 1_545 S
C1864 C1862 1.415 . S
C1864 C1869 1.425 . S
C1864 C1871 1.409 . S
C1865 H1857 0.930 . S
C1865 C1863 1.419 1_565 S
C1865 C1866 1.362 1_565 S
C1866 H1858 0.937 . S
C1866 C1865 1.362 1_545 S
C1866 C1869 1.409 . S
C1867 H1859 0.930 . S
C1867 C1868 1.355 . S
C1867 C1869 1.415 . S
C1868 C1867 1.355 . S
C1868 C1870 1.419 . S
C1869 C1864 1.425 . S
C1869 C1866 1.409 . S
C1869 C1867 1.415 . S
C1870 H1860 0.930 . S
C1870 C1868 1.419 . S
C1870 C1871 1.362 . S
C1871 H1861 0.930 . S
C1871 C1864 1.409 . S
C1871 C1870 1.362 . S
H1872 C1878 0.930 . S
H1873 C1881 0.930 . S
H1874 C1882 0.930 . S
H1875 C1883 0.930 . S
H1876 C1886 0.930 . S
H1877 C1887 0.930 . S
C1878 H1872 0.930 . S
C1878 C1879 1.355 . S
C1878 C1880 1.415 . S
C1879 C1878 1.355 . S
C1879 C1881 1.419 . S
C1880 C1878 1.415 . S
C1880 C1885 1.425 . S
C1880 C1887 1.409 . S
C1881 H1873 0.930 . S
C1881 C1879 1.419 . S
C1881 C1882 1.362 . S
C1882 H1874 0.930 . S
C1882 C1881 1.362 . S
C1882 C1885 1.409 . S
C1883 H1875 0.930 . S
C1883 C1884 1.355 . S
C1883 C1885 1.415 . S
C1884 C1883 1.355 . S
C1884 C1886 1.419 1_565 S
C1885 C1880 1.425 . S
C1885 C1882 1.409 . S
C1885 C1883 1.415 . S
C1886 H1876 0.930 . S
C1886 C1884 1.419 1_545 S
C1886 C1887 1.362 1_545 S
C1887 H1877 0.930 . S
C1887 C1880 1.409 . S
C1887 C1886 1.362 1_565 S
H1888 C1894 0.930 . S
H1889 C1897 0.930 . S
H1890 C1898 0.930 . S
H1891 C1899 0.930 . S
H1892 C1902 0.930 . S
H1893 C1903 0.930 . S
C1894 H1888 0.930 . S
C1894 C1895 1.355 . S
C1894 C1896 1.415 . S
C1895 C1894 1.355 . S
C1895 C1897 1.419 . S
C1896 C1894 1.415 . S
C1896 C1901 1.425 . S
C1896 C1903 1.409 . S
C1897 H1889 0.930 . S
C1897 C1895 1.419 . S
C1897 C1898 1.362 . S
C1898 H1890 0.930 . S
C1898 C1897 1.362 . S
C1898 C1901 1.409 . S
C1899 H1891 0.930 . S
C1899 C1900 1.355 . S
C1899 C1901 1.415 . S
C1900 C1899 1.355 . S
C1900 C1902 1.419 . S
C1901 C1896 1.425 . S
C1901 C1898 1.409 . S
C1901 C1899 1.415 . S
C1902 H1892 0.930 . S
C1902 C1900 1.419 . S
C1902 C1903 1.362 . S
C1903 H1893 0.930 . S
C1903 C1896 1.409 . S
C1903 C1902 1.362 . S
H1904 C1910 0.930 . S
H1905 C1913 0.930 . S
H1906 C1914 0.930 . S
H1907 C1915 0.930 . S
H1908 C1918 0.930 . S
H1909 C1919 0.930 1_565 S
C1910 H1904 0.930 . S
C1910 C1911 1.355 . S
C1910 C1912 1.415 . S
C1911 C1910 1.355 . S
C1911 C1913 1.419 . S
C1912 C1910 1.415 . S
C1912 C1917 1.425 . S
C1912 C1919 1.409 . S
C1913 H1905 0.930 . S
C1913 C1911 1.419 . S
C1913 C1914 1.362 . S
C1914 H1906 0.930 . S
C1914 C1913 1.362 . S
C1914 C1917 1.409 . S
C1915 H1907 0.930 . S
C1915 C1916 1.355 . S
C1915 C1917 1.415 . S
C1916 C1915 1.355 . S
C1916 C1918 1.419 1_545 S
C1917 C1912 1.425 . S
C1917 C1914 1.409 . S
C1917 C1915 1.415 . S
C1918 H1908 0.930 . S
C1918 C1916 1.419 1_565 S
C1918 C1919 1.362 1_565 S
C1919 H1909 0.930 1_545 S
C1919 C1912 1.409 . S
C1919 C1918 1.362 1_545 S
H1920 C1926 0.930 . S
H1921 C1929 0.930 1_545 S
H1922 C1930 0.930 . S
H1923 C1931 0.930 . S
H1924 C1934 0.930 . S
H1925 C1935 0.930 . S
C1926 H1920 0.930 . S
C1926 C1927 1.355 . S
C1926 C1928 1.415 . S
C1927 C1926 1.355 . S
C1927 C1929 1.419 . S
C1928 C1926 1.415 . S
C1928 C1933 1.425 . S
C1928 C1935 1.409 . S
C1929 H1921 0.930 1_565 S
C1929 C1927 1.419 . S
C1929 C1930 1.362 . S
C1930 H1922 0.930 . S
C1930 C1929 1.362 . S
C1930 C1933 1.409 . S
C1931 H1923 0.930 . S
C1931 C1932 1.355 . S
C1931 C1933 1.415 . S
C1932 C1931 1.355 . S
C1932 C1934 1.419 . S
C1933 C1928 1.425 . S
C1933 C1930 1.409 . S
C1933 C1931 1.415 . S
C1934 H1924 0.930 . S
C1934 C1932 1.419 . S
C1934 C1935 1.362 . S
C1935 H1925 0.930 . S
C1935 C1928 1.409 . S
C1935 C1934 1.362 . S
H1936 C1942 0.930 . S
H1937 C1945 0.930 . S
H1938 C1946 0.930 1_565 S
H1939 C1947 0.930 . S
H1940 C1950 0.930 . S
H1941 C1951 0.930 . S
C1942 H1936 0.930 . S
C1942 C1943 1.355 . S
C1942 C1944 1.415 . S
C1943 C1942 1.355 . S
C1943 C1945 1.419 1_545 S
C1944 C1942 1.415 . S
C1944 C1949 1.425 . S
C1944 C1951 1.409 . S
C1945 H1937 0.930 . S
C1945 C1943 1.419 1_565 S
C1945 C1946 1.362 1_565 S
C1946 H1938 0.930 1_545 S
C1946 C1945 1.362 1_545 S
C1946 C1949 1.409 . S
C1947 H1939 0.930 . S
C1947 C1948 1.355 . S
C1947 C1949 1.415 . S
C1948 C1947 1.355 . S
C1948 C1950 1.419 . S
C1949 C1944 1.425 . S
C1949 C1946 1.409 . S
C1949 C1947 1.415 . S
C1950 H1940 0.930 . S
C1950 C1948 1.419 . S
C1950 C1951 1.362 . S
C1951 H1941 0.930 . S
C1951 C1944 1.409 . S
C1951 C1950 1.362 . S
H1952 C1958 0.930 . S
H1953 C1961 0.930 . S
H1954 C1962 0.930 1_565 S
H1955 C1963 0.930 . S
H1956 C1966 0.930 . S
H1957 C1967 0.930 . S
C1958 H1952 0.930 . S
C1958 C1959 1.355 . S
C1958 C1960 1.415 . S
C1959 C1958 1.355 . S
C1959 C1961 1.419 1_545 S
C1960 C1958 1.415 . S
C1960 C1965 1.425 . S
C1960 C1967 1.409 . S
C1961 H1953 0.930 . S
C1961 C1959 1.419 1_565 S
C1961 C1962 1.362 1_565 S
C1962 H1954 0.930 1_545 S
C1962 C1961 1.362 1_545 S
C1962 C1965 1.409 . S
C1963 H1955 0.930 . S
C1963 C1964 1.355 . S
C1963 C1965 1.415 . S
C1964 C1963 1.355 . S
C1964 C1966 1.419 . S
C1965 C1960 1.425 . S
C1965 C1962 1.409 . S
C1965 C1963 1.415 . S
C1966 H1956 0.930 . S
C1966 C1964 1.419 . S
C1966 C1967 1.362 . S
C1967 H1957 0.930 . S
C1967 C1960 1.409 . S
C1967 C1966 1.362 . S
H1968 C1974 0.930 . S
H1969 C1977 0.930 . S
H1970 C1978 0.930 . S
H1971 C1979 0.930 1_545 S
H1972 C1982 0.930 . S
H1973 C1983 0.930 . S
C1974 H1968 0.930 . S
C1974 C1975 1.355 . S
C1974 C1976 1.415 . S
C1975 C1974 1.355 . S
C1975 C1977 1.419 . S
C1976 C1974 1.415 . S
C1976 C1981 1.425 . S
C1976 C1983 1.409 . S
C1977 H1969 0.930 . S
C1977 C1975 1.419 . S
C1977 C1978 1.362 . S
C1978 H1970 0.930 . S
C1978 C1977 1.362 . S
C1978 C1981 1.409 . S
C1979 H1971 0.930 1_565 S
C1979 C1980 1.355 . S
C1979 C1981 1.415 . S
C1980 C1979 1.355 . S
C1980 C1982 1.419 . S
C1981 C1976 1.425 . S
C1981 C1978 1.409 . S
C1981 C1979 1.415 . S
C1982 H1972 0.930 . S
C1982 C1980 1.419 . S
C1982 C1983 1.362 . S
C1983 H1973 0.930 . S
C1983 C1976 1.409 . S
C1983 C1982 1.362 . S
H1984 C1990 0.930 . S
H1985 C1993 0.930 . S
H1986 C1994 0.930 . S
H1987 C1995 0.930 . S
H1988 C1998 0.930 . S
H1989 C1999 0.930 . S
C1990 H1984 0.930 . S
C1990 C1991 1.355 . S
C1990 C1992 1.415 . S
C1991 C1990 1.355 . S
C1991 C1993 1.419 . S
C1992 C1990 1.415 . S
C1992 C1997 1.425 . S
C1992 C1999 1.409 . S
C1993 H1985 0.930 . S
C1993 C1991 1.419 . S
C1993 C1994 1.362 . S
C1994 H1986 0.930 . S
C1994 C1993 1.362 . S
C1994 C1997 1.409 . S
C1995 H1987 0.930 . S
C1995 C1996 1.355 . S
C1995 C1997 1.415 . S
C1996 C1995 1.355 . S
C1996 C1998 1.419 . S
C1997 C1992 1.425 . S
C1997 C1994 1.409 . S
C1997 C1995 1.415 . S
C1998 H1988 0.930 . S
C1998 C1996 1.419 . S
C1998 C1999 1.362 . S
C1999 H1989 0.930 . S
C1999 C1992 1.409 . S
C1999 C1998 1.362 . S
H2000 C2006 0.930 . S
H2001 C2009 0.930 . S
H2002 C2010 0.930 . S
H2003 C2011 0.930 . S
H2004 C2014 0.930 . S
H2005 C2015 0.930 . S
C2006 H2000 0.930 . S
C2006 C2007 1.355 . S
C2006 C2008 1.415 . S
C2007 C2006 1.355 . S
C2007 C2009 1.419 . S
C2008 C2006 1.415 . S
C2008 C2013 1.425 . S
C2008 C2015 1.409 . S
C2009 H2001 0.930 . S
C2009 C2007 1.419 . S
C2009 C2010 1.362 . S
C2010 H2002 0.930 . S
C2010 C2009 1.362 . S
C2010 C2013 1.409 . S
C2011 H2003 0.930 . S
C2011 C2012 1.355 . S
C2011 C2013 1.415 . S
C2012 C2011 1.355 . S
C2012 C2014 1.419 . S
C2013 C2008 1.425 . S
C2013 C2010 1.409 . S
C2013 C2011 1.415 . S
C2014 H2004 0.930 . S
C2014 C2012 1.419 . S
C2014 C2015 1.362 . S
C2015 H2005 0.930 . S
C2015 C2008 1.409 . S
C2015 C2014 1.362 . S
H2016 C2022 0.930 . S
H2017 C2025 0.930 . S
H2018 C2026 0.930 . S
H2019 C2027 0.930 . S
H2020 C2030 0.930 . S
H2021 C2031 0.930 . S
C2022 H2016 0.930 . S
C2022 C2023 1.355 . S
C2022 C2024 1.415 . S
C2023 C2022 1.355 . S
C2023 C2025 1.419 . S
C2024 C2022 1.415 . S
C2024 C2029 1.425 . S
C2024 C2031 1.409 . S
C2025 H2017 0.930 . S
C2025 C2023 1.419 . S
C2025 C2026 1.362 . S
C2026 H2018 0.930 . S
C2026 C2025 1.362 . S
C2026 C2029 1.409 . S
C2027 H2019 0.930 . S
C2027 C2028 1.355 . S
C2027 C2029 1.415 . S
C2028 C2027 1.355 . S
C2028 C2030 1.419 . S
C2029 C2024 1.425 . S
C2029 C2026 1.409 . S
C2029 C2027 1.415 . S
C2030 H2020 0.930 . S
C2030 C2028 1.419 . S
C2030 C2031 1.362 . S
C2031 H2021 0.930 . S
C2031 C2024 1.409 . S
C2031 C2030 1.362 . S
H2032 C2038 0.930 . S
H2033 C2041 0.930 . S
H2034 C2042 0.930 . S
H2035 C2043 0.930 . S
H2036 C2046 0.930 . S
H2037 C2047 0.930 . S
C2038 H2032 0.930 . S
C2038 C2039 1.355 . S
C2038 C2040 1.415 . S
C2039 C2038 1.355 . S
C2039 C2041 1.419 . S
C2040 C2038 1.415 . S
C2040 C2045 1.425 . S
C2040 C2047 1.409 . S
C2041 H2033 0.930 . S
C2041 C2039 1.419 . S
C2041 C2042 1.362 . S
C2042 H2034 0.930 . S
C2042 C2041 1.362 . S
C2042 C2045 1.409 . S
C2043 H2035 0.930 . S
C2043 C2044 1.355 . S
C2043 C2045 1.415 . S
C2044 C2043 1.355 . S
C2044 C2046 1.419 . S
C2045 C2040 1.425 . S
C2045 C2042 1.409 . S
C2045 C2043 1.415 . S
C2046 H2036 0.930 . S
C2046 C2044 1.419 . S
C2046 C2047 1.362 . S
C2047 H2037 0.930 . S
C2047 C2040 1.409 . S
C2047 C2046 1.362 . S
H2048 C2054 0.930 . S
H2049 C2057 0.930 . S
H2050 C2058 0.930 . S
H2051 C2059 0.930 . S
H2052 C2062 0.930 . S
H2053 C2063 0.930 . S
C2054 H2048 0.930 . S
C2054 C2055 1.355 . S
C2054 C2056 1.415 . S
C2055 C2054 1.355 . S
C2055 C2057 1.419 . S
C2056 C2054 1.415 . S
C2056 C2061 1.425 . S
C2056 C2063 1.409 . S
C2057 H2049 0.930 . S
C2057 C2055 1.419 . S
C2057 C2058 1.362 . S
C2058 H2050 0.930 . S
C2058 C2057 1.362 . S
C2058 C2061 1.409 . S
C2059 H2051 0.930 . S
C2059 C2060 1.355 . S
C2059 C2061 1.415 . S
C2060 C2059 1.355 . S
C2060 C2062 1.419 . S
C2061 C2056 1.425 . S
C2061 C2058 1.409 . S
C2061 C2059 1.415 . S
C2062 H2052 0.930 . S
C2062 C2060 1.419 . S
C2062 C2063 1.362 . S
C2063 H2053 0.930 . S
C2063 C2056 1.409 . S
C2063 C2062 1.362 . S
H2064 C2070 0.930 . S
H2065 C2073 0.930 . S
H2066 C2074 0.930 . S
H2067 C2075 0.930 . S
H2068 C2078 0.930 . S
H2069 C2079 0.930 . S
C2070 H2064 0.930 . S
C2070 C2071 1.355 . S
C2070 C2072 1.415 . S
C2071 C2070 1.355 . S
C2071 C2073 1.419 . S
C2072 C2070 1.415 . S
C2072 C2077 1.425 . S
C2072 C2079 1.409 . S
C2073 H2065 0.930 . S
C2073 C2071 1.419 . S
C2073 C2074 1.362 . S
C2074 H2066 0.930 . S
C2074 C2073 1.362 . S
C2074 C2077 1.409 . S
C2075 H2067 0.930 . S
C2075 C2076 1.355 . S
C2075 C2077 1.415 . S
C2076 C2075 1.355 . S
C2076 C2078 1.419 . S
C2077 C2072 1.425 . S
C2077 C2074 1.409 . S
C2077 C2075 1.415 . S
C2078 H2068 0.930 . S
C2078 C2076 1.419 . S
C2078 C2079 1.362 . S
C2079 H2069 0.930 . S
C2079 C2072 1.409 . S
C2079 C2078 1.362 . S
H2080 C2086 0.930 . S
H2081 C2089 0.930 . S
H2082 C2090 0.930 . S
H2083 C2091 0.930 . S
H2084 C2094 0.930 . S
H2085 C2095 0.930 . S
C2086 H2080 0.930 . S
C2086 C2087 1.355 . S
C2086 C2088 1.415 . S
C2087 C2086 1.355 . S
C2087 C2089 1.419 . S
C2088 C2086 1.415 . S
C2088 C2093 1.425 . S
C2088 C2095 1.409 . S
C2089 H2081 0.930 . S
C2089 C2087 1.419 . S
C2089 C2090 1.362 . S
C2090 H2082 0.930 . S
C2090 C2089 1.362 . S
C2090 C2093 1.409 . S
C2091 H2083 0.930 . S
C2091 C2092 1.355 . S
C2091 C2093 1.415 . S
C2092 C2091 1.355 . S
C2092 C2094 1.419 . S
C2093 C2088 1.425 . S
C2093 C2090 1.409 . S
C2093 C2091 1.415 . S
C2094 H2084 0.930 . S
C2094 C2092 1.419 . S
C2094 C2095 1.362 . S
C2095 H2085 0.930 . S
C2095 C2088 1.409 . S
C2095 C2094 1.362 . S
H2096 C2102 0.930 . S
H2097 C2105 0.930 . S
H2098 C2106 0.930 . S
H2099 C2107 0.930 . S
H2100 C2110 0.930 . S
H2101 C2111 0.930 . S
C2102 H2096 0.930 . S
C2102 C2103 1.355 . S
C2102 C2104 1.415 . S
C2103 C2102 1.355 . S
C2103 C2105 1.419 . S
C2104 C2102 1.415 . S
C2104 C2109 1.425 . S
C2104 C2111 1.409 . S
C2105 H2097 0.930 . S
C2105 C2103 1.419 . S
C2105 C2106 1.362 . S
C2106 H2098 0.930 . S
C2106 C2105 1.362 . S
C2106 C2109 1.409 . S
C2107 H2099 0.930 . S
C2107 C2108 1.355 . S
C2107 C2109 1.415 . S
C2108 C2107 1.355 . S
C2108 C2110 1.419 . S
C2109 C2104 1.425 . S
C2109 C2106 1.409 . S
C2109 C2107 1.415 . S
C2110 H2100 0.930 . S
C2110 C2108 1.419 . S
C2110 C2111 1.362 . S
C2111 H2101 0.930 . S
C2111 C2104 1.409 . S
C2111 C2110 1.362 . S
H2112 C2118 0.930 . S
H2113 C2121 0.930 . S
H2114 C2122 0.930 . S
H2115 C2123 0.930 . S
H2116 C2126 0.930 . S
H2117 C2127 0.930 . S
C2118 H2112 0.930 . S
C2118 C2119 1.355 . S
C2118 C2120 1.415 . S
C2119 C2118 1.355 . S
C2119 C2121 1.419 . S
C2120 C2118 1.415 . S
C2120 C2125 1.425 . S
C2120 C2127 1.409 . S
C2121 H2113 0.930 . S
C2121 C2119 1.419 . S
C2121 C2122 1.362 . S
C2122 H2114 0.930 . S
C2122 C2121 1.362 . S
C2122 C2125 1.409 . S
C2123 H2115 0.930 . S
C2123 C2124 1.355 . S
C2123 C2125 1.415 . S
C2124 C2123 1.355 . S
C2124 C2126 1.419 . S
C2125 C2120 1.425 . S
C2125 C2122 1.409 . S
C2125 C2123 1.415 . S
C2126 H2116 0.930 . S
C2126 C2124 1.419 . S
C2126 C2127 1.362 . S
C2127 H2117 0.930 . S
C2127 C2120 1.409 . S
C2127 C2126 1.362 . S
H2128 C2134 0.930 . S
H2129 C2137 0.928 1_545 S
H2130 C2138 0.930 . S
H2131 C2139 0.930 . S
H2132 C2142 0.928 1_565 S
H2133 C2143 0.930 . S
C2134 H2128 0.930 . S
C2134 C2135 1.355 . S
C2134 C2136 1.415 1_655 S
C2135 C2134 1.355 . S
C2135 C2137 1.419 . S
C2136 C2134 1.415 1_455 S
C2136 C2141 1.425 1_465 S
C2136 C2143 1.409 . S
C2137 H2129 0.928 1_565 S
C2137 C2135 1.419 . S
C2137 C2138 1.362 1_565 S
C2138 H2130 0.930 . S
C2138 C2137 1.362 1_545 S
C2138 C2141 1.409 . S
C2139 H2131 0.930 . S
C2139 C2140 1.355 . S
C2139 C2141 1.415 1_455 S
C2140 C2139 1.355 . S
C2140 C2142 1.419 . S
C2141 C2136 1.425 1_645 S
C2141 C2138 1.409 . S
C2141 C2139 1.415 1_655 S
C2142 H2132 0.928 1_545 S
C2142 C2140 1.419 . S
C2142 C2143 1.362 1_545 S
C2143 H2133 0.930 . S
C2143 C2136 1.409 . S
C2143 C2142 1.362 1_565 S
H2144 C2150 0.930 . S
H2145 C2153 0.930 . S
H2146 C2154 0.930 . S
H2147 C2155 0.930 . S
H2148 C2158 0.930 . S
H2149 C2159 0.930 . S
C2150 H2144 0.930 . S
C2150 C2151 1.355 . S
C2150 C2152 1.415 . S
C2151 C2150 1.355 . S
C2151 C2153 1.419 . S
C2152 C2150 1.415 . S
C2152 C2157 1.425 . S
C2152 C2159 1.409 . S
C2153 H2145 0.930 . S
C2153 C2151 1.419 . S
C2153 C2154 1.362 . S
C2154 H2146 0.930 . S
C2154 C2153 1.362 . S
C2154 C2157 1.409 . S
C2155 H2147 0.930 . S
C2155 C2156 1.355 . S
C2155 C2157 1.415 . S
C2156 C2155 1.355 . S
C2156 C2158 1.419 . S
C2157 C2152 1.425 . S
C2157 C2154 1.409 . S
C2157 C2155 1.415 . S
C2158 H2148 0.930 . S
C2158 C2156 1.419 . S
C2158 C2159 1.362 . S
C2159 H2149 0.930 . S
C2159 C2152 1.409 . S
C2159 C2158 1.362 . S
H2160 C2166 0.957 . S
H2161 C2169 0.930 . S
H2162 C2170 0.930 . S
H2163 C2171 0.957 . S
H2164 C2174 0.930 . S
H2165 C2175 0.930 . S
C2166 H2160 0.957 . S
C2166 C2167 1.316 1_554 S
C2166 C2168 1.429 . S
C2167 C2166 1.316 1_556 S
C2167 C2169 1.419 . S
C2168 C2166 1.429 . S
C2168 C2173 1.425 1_564 S
C2168 C2175 1.408 1_565 S
C2169 H2161 0.930 . S
C2169 C2167 1.419 . S
C2169 C2170 1.362 . S
C2170 H2162 0.930 . S
C2170 C2169 1.362 . S
C2170 C2173 1.408 1_565 S
C2171 H2163 0.957 . S
C2171 C2172 1.316 1_556 S
C2171 C2173 1.429 . S
C2172 C2171 1.316 1_554 S
C2172 C2174 1.419 . S
C2173 C2168 1.425 1_546 S
C2173 C2170 1.408 1_545 S
C2173 C2171 1.429 . S
C2174 H2164 0.930 . S
C2174 C2172 1.419 . S
C2174 C2175 1.362 . S
C2175 H2165 0.930 . S
C2175 C2168 1.408 1_545 S
C2175 C2174 1.362 . S
H2176 C2182 0.930 . S
H2177 C2185 0.930 . S
H2178 C2186 0.930 . S
H2179 C2187 0.930 . S
H2180 C2190 0.930 . S
H2181 C2191 0.930 . S
C2182 H2176 0.930 . S
C2182 C2183 1.355 . S
C2182 C2184 1.415 . S
C2183 C2182 1.355 . S
C2183 C2185 1.419 . S
C2184 C2182 1.415 . S
C2184 C2189 1.425 . S
C2184 C2191 1.409 . S
C2185 H2177 0.930 . S
C2185 C2183 1.419 . S
C2185 C2186 1.362 . S
C2186 H2178 0.930 . S
C2186 C2185 1.362 . S
C2186 C2189 1.409 . S
C2187 H2179 0.930 . S
C2187 C2188 1.355 . S
C2187 C2189 1.415 . S
C2188 C2187 1.355 . S
C2188 C2190 1.419 . S
C2189 C2184 1.425 . S
C2189 C2186 1.409 . S
C2189 C2187 1.415 . S
C2190 H2180 0.930 . S
C2190 C2188 1.419 . S
C2190 C2191 1.362 . S
C2191 H2181 0.930 . S
C2191 C2184 1.409 . S
C2191 C2190 1.362 . S
H2192 C2198 0.930 . S
H2193 C2201 0.930 . S
H2194 C2202 0.930 . S
H2195 C2203 0.930 . S
H2196 C2206 0.930 . S
H2197 C2207 0.930 . S
C2198 H2192 0.930 . S
C2198 C2199 1.355 . S
C2198 C2200 1.415 . S
C2199 C2198 1.355 . S
C2199 C2201 1.419 . S
C2200 C2198 1.415 . S
C2200 C2205 1.425 1_545 S
C2200 C2207 1.409 . S
C2201 H2193 0.930 . S
C2201 C2199 1.419 . S
C2201 C2202 1.362 1_545 S
C2202 H2194 0.930 . S
C2202 C2201 1.362 1_565 S
C2202 C2205 1.409 . S
C2203 H2195 0.930 . S
C2203 C2204 1.355 . S
C2203 C2205 1.415 . S
C2204 C2203 1.355 . S
C2204 C2206 1.419 . S
C2205 C2200 1.425 1_565 S
C2205 C2202 1.409 . S
C2205 C2203 1.415 . S
C2206 H2196 0.930 . S
C2206 C2204 1.419 . S
C2206 C2207 1.362 1_565 S
C2207 H2197 0.930 . S
C2207 C2200 1.409 . S
C2207 C2206 1.362 1_545 S
H2208 C2214 0.930 . S
H2209 C2217 0.930 . S
H2210 C2218 0.930 . S
H2211 C2219 0.930 . S
H2212 C2222 0.930 . S
H2213 C2223 0.930 . S
C2214 H2208 0.930 . S
C2214 C2215 1.355 . S
C2214 C2216 1.415 . S
C2215 C2214 1.355 . S
C2215 C2217 1.419 . S
C2216 C2214 1.415 . S
C2216 C2221 1.425 . S
C2216 C2223 1.409 . S
C2217 H2209 0.930 . S
C2217 C2215 1.419 . S
C2217 C2218 1.362 . S
C2218 H2210 0.930 . S
C2218 C2217 1.362 . S
C2218 C2221 1.409 . S
C2219 H2211 0.930 . S
C2219 C2220 1.355 . S
C2219 C2221 1.415 . S
C2220 C2219 1.355 . S
C2220 C2222 1.419 . S
C2221 C2216 1.425 . S
C2221 C2218 1.409 . S
C2221 C2219 1.415 . S
C2222 H2212 0.930 . S
C2222 C2220 1.419 . S
C2222 C2223 1.362 . S
C2223 H2213 0.930 . S
C2223 C2216 1.409 . S
C2223 C2222 1.362 . S
H2224 C2230 0.930 . S
H2225 C2233 0.930 . S
H2226 C2234 0.915 1_545 S
H2227 C2235 0.930 . S
H2228 C2238 0.930 . S
H2229 C2239 0.915 1_565 S
C2230 H2224 0.930 . S
C2230 C2231 1.355 . S
C2230 C2232 1.415 1_455 S
C2231 C2230 1.355 . S
C2231 C2233 1.419 1_554 S
C2232 C2230 1.415 1_655 S
C2232 C2237 1.425 1_664 S
C2232 C2239 1.400 1_565 S
C2233 H2225 0.930 . S
C2233 C2231 1.419 1_556 S
C2233 C2234 1.388 . S
C2234 H2226 0.915 1_565 S
C2234 C2233 1.388 . S
C2234 C2237 1.400 1_565 S
C2235 H2227 0.930 . S
C2235 C2236 1.355 . S
C2235 C2237 1.415 1_655 S
C2236 C2235 1.355 . S
C2236 C2238 1.419 1_556 S
C2237 C2232 1.425 1_446 S
C2237 C2234 1.400 1_545 S
C2237 C2235 1.415 1_455 S
C2238 H2228 0.930 . S
C2238 C2236 1.419 1_554 S
C2238 C2239 1.388 . S
C2239 H2229 0.915 1_545 S
C2239 C2232 1.400 1_545 S
C2239 C2238 1.388 . S
H2240 C2246 0.930 . S
H2241 C2249 0.930 . S
H2242 C2250 0.930 . S
H2243 C2251 0.930 . S
H2244 C2254 0.930 . S
H2245 C2255 0.930 . S
C2246 H2240 0.930 . S
C2246 C2247 1.355 . S
C2246 C2248 1.415 . S
C2247 C2246 1.355 . S
C2247 C2249 1.419 . S
C2248 C2246 1.415 . S
C2248 C2253 1.425 . S
C2248 C2255 1.409 . S
C2249 H2241 0.930 . S
C2249 C2247 1.419 . S
C2249 C2250 1.362 . S
C2250 H2242 0.930 . S
C2250 C2249 1.362 . S
C2250 C2253 1.409 . S
C2251 H2243 0.930 . S
C2251 C2252 1.355 . S
C2251 C2253 1.415 . S
C2252 C2251 1.355 . S
C2252 C2254 1.419 . S
C2253 C2248 1.425 . S
C2253 C2250 1.409 . S
C2253 C2251 1.415 . S
C2254 H2244 0.930 . S
C2254 C2252 1.419 . S
C2254 C2255 1.362 . S
C2255 H2245 0.930 . S
C2255 C2248 1.409 . S
C2255 C2254 1.362 . S
H2256 C2262 0.930 . S
H2257 C2265 0.930 . S
H2258 C2266 0.930 . S
H2259 C2267 0.930 . S
H2260 C2270 0.930 . S
H2261 C2271 0.930 . S
C2262 H2256 0.930 . S
C2262 C2263 1.355 . S
C2262 C2264 1.415 . S
C2263 C2262 1.355 . S
C2263 C2265 1.419 . S
C2264 C2262 1.415 . S
C2264 C2269 1.425 . S
C2264 C2271 1.409 . S
C2265 H2257 0.930 . S
C2265 C2263 1.419 . S
C2265 C2266 1.362 . S
C2266 H2258 0.930 . S
C2266 C2265 1.362 . S
C2266 C2269 1.409 . S
C2267 H2259 0.930 . S
C2267 C2268 1.355 . S
C2267 C2269 1.415 . S
C2268 C2267 1.355 . S
C2268 C2270 1.419 . S
C2269 C2264 1.425 . S
C2269 C2266 1.409 . S
C2269 C2267 1.415 . S
C2270 H2260 0.930 . S
C2270 C2268 1.419 . S
C2270 C2271 1.362 . S
C2271 H2261 0.930 . S
C2271 C2264 1.409 . S
C2271 C2270 1.362 . S
H2272 C2278 0.930 . S
H2273 C2281 0.930 . S
H2274 C2282 0.930 . S
H2275 C2283 0.930 . S
H2276 C2286 0.930 . S
H2277 C2287 0.930 . S
C2278 H2272 0.930 . S
C2278 C2279 1.355 . S
C2278 C2280 1.415 . S
C2279 C2278 1.355 . S
C2279 C2281 1.419 . S
C2280 C2278 1.415 . S
C2280 C2285 1.425 . S
C2280 C2287 1.409 . S
C2281 H2273 0.930 . S
C2281 C2279 1.419 . S
C2281 C2282 1.362 . S
C2282 H2274 0.930 . S
C2282 C2281 1.362 . S
C2282 C2285 1.409 . S
C2283 H2275 0.930 . S
C2283 C2284 1.355 . S
C2283 C2285 1.415 . S
C2284 C2283 1.355 . S
C2284 C2286 1.419 . S
C2285 C2280 1.425 . S
C2285 C2282 1.409 . S
C2285 C2283 1.415 . S
C2286 H2276 0.930 . S
C2286 C2284 1.419 . S
C2286 C2287 1.362 . S
C2287 H2277 0.930 . S
C2287 C2280 1.409 . S
C2287 C2286 1.362 . S
H2288 C2294 0.930 . S
H2289 C2297 0.930 . S
H2290 C2298 0.930 . S
H2291 C2299 0.930 . S
H2292 C2302 0.930 . S
H2293 C2303 0.930 . S
C2294 H2288 0.930 . S
C2294 C2295 1.355 . S
C2294 C2296 1.415 . S
C2295 C2294 1.355 . S
C2295 C2297 1.419 . S
C2296 C2294 1.415 . S
C2296 C2301 1.425 . S
C2296 C2303 1.409 . S
C2297 H2289 0.930 . S
C2297 C2295 1.419 . S
C2297 C2298 1.362 . S
C2298 H2290 0.930 . S
C2298 C2297 1.362 . S
C2298 C2301 1.409 . S
C2299 H2291 0.930 . S
C2299 C2300 1.355 . S
C2299 C2301 1.415 . S
C2300 C2299 1.355 . S
C2300 C2302 1.419 . S
C2301 C2296 1.425 . S
C2301 C2298 1.409 . S
C2301 C2299 1.415 . S
C2302 H2292 0.930 . S
C2302 C2300 1.419 . S
C2302 C2303 1.362 . S
C2303 H2293 0.930 . S
C2303 C2296 1.409 . S
C2303 C2302 1.362 . S
H2304 C2310 0.930 . S
H2305 C2313 0.930 . S
H2306 C2314 0.930 . S
H2307 C2315 0.930 . S
H2308 C2318 0.930 . S
H2309 C2319 0.930 . S
C2310 H2304 0.930 . S
C2310 C2311 1.355 . S
C2310 C2312 1.415 . S
C2311 C2310 1.355 . S
C2311 C2313 1.419 1_554 S
C2312 C2310 1.415 . S
C2312 C2317 1.425 1_554 S
C2312 C2319 1.409 . S
C2313 H2305 0.930 . S
C2313 C2311 1.419 1_556 S
C2313 C2314 1.362 . S
C2314 H2306 0.930 . S
C2314 C2313 1.362 . S
C2314 C2317 1.409 . S
C2315 H2307 0.930 . S
C2315 C2316 1.355 . S
C2315 C2317 1.415 . S
C2316 C2315 1.355 . S
C2316 C2318 1.419 1_556 S
C2317 C2312 1.425 1_556 S
C2317 C2314 1.409 . S
C2317 C2315 1.415 . S
C2318 H2308 0.930 . S
C2318 C2316 1.419 1_554 S
C2318 C2319 1.362 . S
C2319 H2309 0.930 . S
C2319 C2312 1.409 . S
C2319 C2318 1.362 . S
H2320 C2326 0.930 . S
H2321 C2329 0.930 . S
H2322 C2330 0.930 . S
H2323 C2331 0.930 . S
H2324 C2334 0.930 . S
H2325 C2335 0.930 . S
C2326 H2320 0.930 . S
C2326 C2327 1.355 . S
C2326 C2328 1.415 . S
C2327 C2326 1.355 . S
C2327 C2329 1.419 . S
C2328 C2326 1.415 . S
C2328 C2333 1.425 1_455 S
C2328 C2335 1.409 . S
C2329 H2321 0.930 . S
C2329 C2327 1.419 . S
C2329 C2330 1.362 1_455 S
C2330 H2322 0.930 . S
C2330 C2329 1.362 1_655 S
C2330 C2333 1.409 . S
C2331 H2323 0.930 . S
C2331 C2332 1.355 . S
C2331 C2333 1.415 . S
C2332 C2331 1.355 . S
C2332 C2334 1.419 . S
C2333 C2328 1.425 1_655 S
C2333 C2330 1.409 . S
C2333 C2331 1.415 . S
C2334 H2324 0.930 . S
C2334 C2332 1.419 . S
C2334 C2335 1.362 1_655 S
C2335 H2325 0.930 . S
C2335 C2328 1.409 . S
C2335 C2334 1.362 1_455 S
H2336 C2342 0.931 1_554 S
H2337 C2345 0.930 . S
H2338 C2346 0.930 . S
H2339 C2347 0.931 1_556 S
H2340 C2350 0.930 . S
H2341 C2351 0.930 . S
C2342 H2336 0.931 1_556 S
C2342 C2343 1.352 . S
C2342 C2344 1.427 1_556 S
C2343 C2342 1.352 . S
C2343 C2345 1.419 . S
C2344 C2342 1.427 1_554 S
C2344 C2349 1.425 1_454 S
C2344 C2351 1.399 1_455 S
C2345 H2337 0.930 . S
C2345 C2343 1.419 . S
C2345 C2346 1.362 . S
C2346 H2338 0.930 . S
C2346 C2345 1.362 . S
C2346 C2349 1.399 1_455 S
C2347 H2339 0.931 1_554 S
C2347 C2348 1.352 . S
C2347 C2349 1.427 1_554 S
C2348 C2347 1.352 . S
C2348 C2350 1.419 . S
C2349 C2344 1.425 1_656 S
C2349 C2346 1.399 1_655 S
C2349 C2347 1.427 1_556 S
C2350 H2340 0.930 . S
C2350 C2348 1.419 . S
C2350 C2351 1.362 . S
C2351 H2341 0.930 . S
C2351 C2344 1.399 1_655 S
C2351 C2350 1.362 . S
H2352 C2358 0.930 . S
H2353 C2361 0.930 . S
H2354 C2362 0.930 . S
H2355 C2363 0.930 . S
H2356 C2366 0.930 . S
H2357 C2367 0.930 . S
C2358 H2352 0.930 . S
C2358 C2359 1.355 . S
C2358 C2360 1.415 . S
C2359 C2358 1.355 . S
C2359 C2361 1.419 . S
C2360 C2358 1.415 . S
C2360 C2365 1.425 . S
C2360 C2367 1.409 . S
C2361 H2353 0.930 . S
C2361 C2359 1.419 . S
C2361 C2362 1.362 . S
C2362 H2354 0.930 . S
C2362 C2361 1.362 . S
C2362 C2365 1.409 . S
C2363 H2355 0.930 . S
C2363 C2364 1.355 . S
C2363 C2365 1.415 . S
C2364 C2363 1.355 . S
C2364 C2366 1.419 . S
C2365 C2360 1.425 . S
C2365 C2362 1.409 . S
C2365 C2363 1.415 . S
C2366 H2356 0.930 . S
C2366 C2364 1.419 . S
C2366 C2367 1.362 . S
C2367 H2357 0.930 . S
C2367 C2360 1.409 . S
C2367 C2366 1.362 . S
C1095 C617 0.868 . S
C1100 C5 0.846 . S
C1111 C39 0.834 . S
C1116 C651 0.769 . S
C1127 C73 0.796 . S
C1132 C549 0.784 . S
C1143 C583 0.772 . S
C1148 C107 0.816 . S
C1159 C141 0.803 . S
C1164 C753 0.876 . S
C1175 C787 0.838 . S
C1180 C175 0.769 . S
C1191 C209 0.867 . S
C1196 C685 0.848 . S
C1207 C243 0.864 . S
C1212 C719 0.852 . S
C1223 C277 0.847 . S
C1228 C889 0.868 . S
C1239 C923 0.832 . S
C1244 C311 0.875 . S
C1255 C345 0.772 . S
C1260 C821 0.850 . S
C1271 C379 0.769 . S
C1276 C855 0.836 . S
C1287 C413 0.803 . S
C1292 C1025 0.876 . S
C1303 C1059 0.875 . S
C1308 C447 0.802 . S
C1319 C957 0.841 . S
C1324 C481 0.871 . S
C1335 C991 0.846 . S
C1340 C515 0.868 . S
C1351 C407 1.281 . S
C1356 C2 1.261 . S
C1367 C849 1.290 . S
C1372 C36 1.261 . S
C1383 C70 1.223 . S
C1388 C339 1.300 . S
C1399 C917 1.298 . S
C1404 C104 1.229 . S
C1415 C475 1.276 . S
C1420 C138 1.285 . S
C1431 C172 1.281 . S
C1436 C1053 1.277 . S
C1447 C543 1.292 . S
C1452 C206 1.254 . S
C1463 C985 1.279 . S
C1468 C240 1.287 . S
C1479 C135 1.289 . S
C1484 C274 1.263 . S
C1495 C308 1.260 . S
C1500 C577 1.290 . S
C1511 C342 1.268 . S
C1516 C67 1.288 . S
C1527 C645 1.294 . S
C1532 C376 1.246 . S
C1543 C410 1.266 . S
C1548 C203 1.280 . S
C1559 C781 1.289 . S
C1564 C444 1.234 . S
C1575 C478 1.290 . S
C1580 C271 1.277 . S
C1591 C512 1.212 . S
C1596 C713 1.297 . S
C1607 C951 1.281 . S
C1612 C546 1.261 . S
C1623 C580 1.209 . S
C1628 C305 1.300 . S
C1639 C614 1.238 . S
C1644 C883 1.296 . S
C1655 C373 1.279 . S
C1660 C648 1.287 . S
C1671 C682 1.220 . S
C1676 C1019 1.294 . S
C1687 C716 1.275 . S
C1692 C509 1.285 . S
C1703 C1087 1.301 . S
C1708 C750 1.209 . S
C1719 C441 1.281 . S
C1724 C784 1.284 . S
C1735 C679 1.293 . S
C1740 C818 1.250 . S
C1751 C852 1.266 . S
C1756 C33 1.280 . S
C1767 C886 1.224 . S
C1772 C611 1.292 . S
C1783 C101 1.298 . S
C1788 C920 1.232 . S
C1799 C954 1.260 . S
C1804 C747 1.290 . S
C1815 C988 1.244 . S
C1820 C237 1.286 . S
C1831 C815 1.278 . S
C1836 C1022 1.275 . S
C1847 C169 1.298 . S
C1852 C1056 1.230 . S
C1863 C247 1.664 1_545 S
C1868 C9 1.633 . S
C1879 C145 1.646 . S
C1884 C43 1.692 1_565 S
C1895 C77 1.671 . S
C1900 C179 1.708 1_565 S
C1911 C213 1.633 . S
C1916 C111 1.667 1_545 S
C1927 C519 1.634 1_565 S
C1932 C281 1.652 . S
C1943 C315 1.654 1_545 S
C1948 C417 1.633 . S
C1959 C451 1.675 1_545 S
C1964 C349 1.635 . S
C1975 C485 1.666 . S
C1980 C383 1.633 1_565 S
C1991 C791 1.641 . S
C1996 C553 1.686 . S
C2007 C689 1.708 . S
C2012 C587 1.687 . S
C2023 C723 1.691 . S
C2028 C621 1.707 . S
C2039 C757 1.645 . S
C2044 C655 1.691 . S
C2055 C825 1.657 . S
C2060 C1063 1.633 . S
C2071 C859 1.697 . S
C2076 C961 1.651 . S
C2087 C893 1.709 . S
C2092 C995 1.686 . S
C2103 C1029 1.709 . S
C2108 C927 1.686 . S
C2119 C20 1.810 . S
C2124 C836 1.810 . S
C2135 C326 1.838 . S
C2140 C54 1.838 . S
C2151 C904 1.842 . S
C2156 C88 1.842 . S
C2167 C122 1.798 . S
C2172 C394 1.798 . S
C2183 C156 1.856 . S
C2188 C972 1.856 . S
C2199 C190 1.864 . S
C2204 C462 1.864 . S
C2215 C1040 1.834 . S
C2220 C224 1.834 . S
C2231 C258 1.863 . S
C2236 C530 1.863 . S
C2247 C564 1.796 . S
C2252 C292 1.796 . S
C2263 C632 1.827 . S
C2268 C360 1.827 . S
C2279 C428 1.832 . S
C2284 C700 1.832 . S
C2295 C496 1.838 . S
C2300 C768 1.838 . S
C2311 C870 1.846 . S
C2316 C598 1.846 . S
C2327 C938 1.798 . S
C2332 C666 1.798 . S
C2343 C1006 1.810 . S
C2348 C734 1.810 . S
C2359 C1074 1.799 . S
C2364 C802 1.799 . S
