# Generated by pormake.
# Topology wje, (4)-cn, num edge types: 1
# Building blocks:
#     Node 0, Type 0, BuildingBlock: KUFVIS_clean_sbu_0, # of connection points: 4
#     Node 1, Type 0, BuildingBlock: KUFVIS_clean_sbu_0, # of connection points: 4
#     Node 2, Type 0, BuildingBlock: KUFVIS_clean_sbu_0, # of connection points: 4
#     Node 3, Type 0, BuildingBlock: KUFVIS_clean_sbu_0, # of connection points: 4
#     Node 4, Type 0, BuildingBlock: KUFVIS_clean_sbu_0, # of connection points: 4
#     Node 5, Type 0, BuildingBlock: KUFVIS_clean_sbu_0, # of connection points: 4
#     Node 6, Type 0, BuildingBlock: KUFVIS_clean_sbu_0, # of connection points: 4
#     Node 7, Type 0, BuildingBlock: KUFVIS_clean_sbu_0, # of connection points: 4
#     Node 8, Type 0, BuildingBlock: KUFVIS_clean_sbu_0, # of connection points: 4
#     Node 9, Type 0, BuildingBlock: KUFVIS_clean_sbu_0, # of connection points: 4
#     Node 10, Type 0, BuildingBlock: KUFVIS_clean_sbu_0, # of connection points: 4
#     Node 11, Type 0, BuildingBlock: KUFVIS_clean_sbu_0, # of connection points: 4
#     Edge 12, Type (0, 0), BuildingBlock: ZUJKAS_clean_linker_0, # of connection points: 2
#     Edge 13, Type (0, 0), BuildingBlock: ZUJKAS_clean_linker_0, # of connection points: 2
#     Edge 14, Type (0, 0), BuildingBlock: ZUJKAS_clean_linker_0, # of connection points: 2
#     Edge 15, Type (0, 0), BuildingBlock: ZUJKAS_clean_linker_0, # of connection points: 2
#     Edge 16, Type (0, 0), BuildingBlock: ZUJKAS_clean_linker_0, # of connection points: 2
#     Edge 17, Type (0, 0), BuildingBlock: ZUJKAS_clean_linker_0, # of connection points: 2
#     Edge 18, Type (0, 0), BuildingBlock: ZUJKAS_clean_linker_0, # of connection points: 2
#     Edge 19, Type (0, 0), BuildingBlock: ZUJKAS_clean_linker_0, # of connection points: 2
#     Edge 20, Type (0, 0), BuildingBlock: ZUJKAS_clean_linker_0, # of connection points: 2
#     Edge 21, Type (0, 0), BuildingBlock: ZUJKAS_clean_linker_0, # of connection points: 2
#     Edge 22, Type (0, 0), BuildingBlock: ZUJKAS_clean_linker_0, # of connection points: 2
#     Edge 23, Type (0, 0), BuildingBlock: ZUJKAS_clean_linker_0, # of connection points: 2
#     Edge 24, Type (0, 0), BuildingBlock: ZUJKAS_clean_linker_0, # of connection points: 2
#     Edge 25, Type (0, 0), BuildingBlock: ZUJKAS_clean_linker_0, # of connection points: 2
#     Edge 26, Type (0, 0), BuildingBlock: ZUJKAS_clean_linker_0, # of connection points: 2
#     Edge 27, Type (0, 0), BuildingBlock: ZUJKAS_clean_linker_0, # of connection points: 2
#     Edge 28, Type (0, 0), BuildingBlock: ZUJKAS_clean_linker_0, # of connection points: 2
#     Edge 29, Type (0, 0), BuildingBlock: ZUJKAS_clean_linker_0, # of connection points: 2
#     Edge 30, Type (0, 0), BuildingBlock: ZUJKAS_clean_linker_0, # of connection points: 2
#     Edge 31, Type (0, 0), BuildingBlock: ZUJKAS_clean_linker_0, # of connection points: 2
#     Edge 32, Type (0, 0), BuildingBlock: ZUJKAS_clean_linker_0, # of connection points: 2
#     Edge 33, Type (0, 0), BuildingBlock: ZUJKAS_clean_linker_0, # of connection points: 2
#     Edge 34, Type (0, 0), BuildingBlock: ZUJKAS_clean_linker_0, # of connection points: 2
#     Edge 35, Type (0, 0), BuildingBlock: ZUJKAS_clean_linker_0, # of connection points: 2
# Relax obj value: 0.164
# Max RMSD: 0.107
# Mean RMSD: 0.107
data_MOF--net-wje--node1-KUFVIS_clean_sbu_0--edge1-ZUJKAS_clean_linker_0
_symmetry_space_group_name_H-M    P1
_symmetry_Int_Tables_number       1
_symmetry_cell_setting            triclinic
loop_
_symmetry_equiv_pos_as_xyz
'x, y, z'
_cell_length_a     51.228463
_cell_length_b     51.228587
_cell_length_c     49.342211
_cell_angle_alpha  90.016803
_cell_angle_beta   90.017389
_cell_angle_gamma 119.99064
loop_
_atom_site_label
_atom_site_type_symbol
_atom_site_fract_x
_atom_site_fract_y
_atom_site_fract_z
_atom_type_partial_charge
Mn0 Mn 0.32246 0.02031 0.31723 0.0
Mn1 Mn 0.30066 0.98207 0.25847 0.0
C2 C 0.2719 0.99266 0.30663 0.0
C3 C 0.33393 0.0191 0.36297 0.0
C4 C 0.32806 0.05018 0.26235 0.0
O5 O 0.3596 0.01897 0.30506 0.0
O6 O 0.34153 0.98921 0.26816 0.0
C7 C 0.29517 0.92427 0.27596 0.0
N8 N 0.28245 0.93979 0.26525 0.0
C9 C 0.23443 0.89437 0.26074 0.0
C10 C 0.24707 0.87788 0.27155 0.0
C11 C 0.27757 0.89291 0.27921 0.0
C12 C 0.25315 0.92555 0.25772 0.0
H13 H 0.31855 0.93574 0.28207 0.0
C14 C 0.36235 0.00406 0.28563 0.0
O15 O 0.34374 0.04467 0.35039 0.0
O16 O 0.31832 0.99493 0.34885 0.0
N17 N 0.26126 0.97339 0.24747 0.0
C18 C 0.25197 0.99285 0.23929 0.0
C19 C 0.22172 0.98154 0.23193 0.0
C20 C 0.20136 0.9504 0.233 0.0
C21 C 0.21146 0.93081 0.24141 0.0
C22 C 0.24192 0.94334 0.2483 0.0
H23 H 0.26747 0.01682 0.23857 0.0
O24 O 0.28135 0.01413 0.32442 0.0
O25 O 0.29248 0.98832 0.29571 0.0
O26 O 0.33015 0.05241 0.28822 0.0
O27 O 0.31838 0.02523 0.24967 0.0
C28 C 0.19236 0.89941 0.24374 0.0
C29 C 0.20381 0.88121 0.25344 0.0
H30 H 0.23351 0.85372 0.27432 0.0
H31 H 0.28745 0.88035 0.28772 0.0
H32 H 0.21407 0.99682 0.22557 0.0
H33 H 0.17798 0.94179 0.22755 0.0
H34 H 0.16872 0.88907 0.23846 0.0
H35 H 0.18878 0.85716 0.25557 0.0
Mn36 Mn 0.29697 0.318 0.65083 0.0
Mn37 Mn 0.31069 0.30252 0.58788 0.0
C38 C 0.27442 0.26863 0.63624 0.0
C39 C 0.31146 0.32564 0.69645 0.0
C40 C 0.26894 0.32723 0.59979 0.0
O41 O 0.33439 0.35673 0.63958 0.0
O42 O 0.34404 0.34295 0.59911 0.0
C43 C 0.36531 0.29824 0.59851 0.0
N44 N 0.33638 0.28546 0.58942 0.0
C45 C 0.33582 0.23959 0.57767 0.0
C46 C 0.36566 0.25233 0.58676 0.0
C47 C 0.38043 0.28176 0.59728 0.0
C48 C 0.32195 0.25716 0.57926 0.0
H49 H 0.37674 0.32082 0.60668 0.0
C50 C 0.35085 0.36184 0.61862 0.0
O51 O 0.29485 0.33594 0.68646 0.0
O52 O 0.31995 0.3118 0.67985 0.0
N53 N 0.28033 0.26374 0.57523 0.0
C54 C 0.25085 0.25391 0.56938 0.0
C55 C 0.23247 0.2244 0.55981 0.0
C56 C 0.2446 0.20537 0.55622 0.0
C57 C 0.27501 0.21601 0.56234 0.0
C58 C 0.29224 0.24563 0.57179 0.0
H59 H 0.2414 0.26841 0.57212 0.0
O60 O 0.26304 0.27609 0.65625 0.0
O61 O 0.29862 0.29051 0.62541 0.0
O62 O 0.27054 0.32727 0.62565 0.0
O63 O 0.28356 0.31931 0.58409 0.0
C64 C 0.28877 0.19823 0.55982 0.0
C65 C 0.31913 0.20998 0.56755 0.0
H66 H 0.37735 0.23962 0.58598 0.0
H67 H 0.40341 0.29169 0.60446 0.0
H68 H 0.20899 0.21632 0.55523 0.0
H69 H 0.23031 0.18258 0.54895 0.0
H70 H 0.27609 0.17533 0.55232 0.0
H71 H 0.32929 0.19589 0.56598 0.0
Mn72 Mn 0.97271 0.29544 0.9866 0.0
Mn73 Mn 0.01512 0.3148 0.93033 0.0
C74 C 0.00353 0.27523 0.97825 0.0
C75 C 0.97089 0.30764 0.03201 0.0
C76 C 0.9473 0.27121 0.93035 0.0
O77 O 0.97224 0.33286 0.97363 0.0
O78 O 0.00521 0.34681 0.93901 0.0
C79 C 0.06959 0.36746 0.95279 0.0
N80 N 0.05636 0.33991 0.9406 0.0
C81 C 0.10289 0.33903 0.94145 0.0
C82 C 0.11706 0.36749 0.95382 0.0
C83 C 0.10032 0.38173 0.95954 0.0
C84 C 0.07222 0.32592 0.93516 0.0
H85 H 0.05674 0.37835 0.95751 0.0
C86 C 0.98814 0.35131 0.95503 0.0
O87 O 0.94615 0.29055 0.01866 0.0
O88 O 0.99587 0.31757 0.01892 0.0
N89 N 0.02665 0.28592 0.9201 0.0
C90 C 0.00943 0.25815 0.90882 0.0
C91 C 0.02284 0.24099 0.90165 0.0
C92 C 0.05378 0.25255 0.90615 0.0
C93 C 0.0711 0.28129 0.91758 0.0
C94 C 0.05659 0.29754 0.92391 0.0
H95 H 0.98565 0.24914 0.90529 0.0
O96 O 0.98122 0.2621 0.99506 0.0
O97 O 0.00651 0.29942 0.96702 0.0
O98 O 0.94333 0.27034 0.95608 0.0
O99 O 0.97284 0.28793 0.9189 0.0
C100 C 0.10205 0.2942 0.92342 0.0
C101 C 0.1179 0.32299 0.93547 0.0
H102 H 0.14072 0.3785 0.95919 0.0
H103 H 0.11105 0.40361 0.96925 0.0
H104 H 0.00932 0.21884 0.89282 0.0
H105 H 0.06396 0.23909 0.90091 0.0
H106 H 0.1138 0.28203 0.91902 0.0
H107 H 0.14159 0.33251 0.94019 0.0
Mn108 Mn 0.673 0.96816 0.32014 0.0
Mn109 Mn 0.69586 0.01341 0.26562 0.0
C110 C 0.72386 0.00123 0.31316 0.0
C111 C 0.65785 0.96304 0.36539 0.0
C112 C 0.67471 0.94627 0.26289 0.0
O113 O 0.63445 0.96642 0.30716 0.0
O114 O 0.65313 0.0009 0.27365 0.0
C115 C 0.69385 0.06511 0.29016 0.0
N116 N 0.7097 0.05376 0.27758 0.0
C117 C 0.7557 0.10149 0.28073 0.0
C118 C 0.73981 0.11374 0.29353 0.0
C119 C 0.70875 0.09546 0.29827 0.0
C120 C 0.73962 0.07112 0.27306 0.0
H121 H 0.67005 0.05106 0.29414 0.0
C122 C 0.6315 0.98252 0.28899 0.0
O123 O 0.65171 0.93938 0.35093 0.0
O124 O 0.67192 0.98889 0.35351 0.0
N125 N 0.73702 0.02748 0.2561 0.0
C126 C 0.74918 0.01204 0.24409 0.0
C127 C 0.78001 0.02718 0.23765 0.0
C128 C 0.798 0.058 0.2436 0.0
C129 C 0.78493 0.07349 0.25573 0.0
C130 C 0.75399 0.05732 0.26127 0.0
H131 H 0.73547 0.98835 0.23946 0.0
O132 O 0.71521 0.97815 0.32895 0.0
O133 O 0.70228 0.00367 0.30204 0.0
O134 O 0.6709 0.94098 0.28842 0.0
O135 O 0.68286 0.97215 0.25246 0.0
C136 C 0.8015 0.10417 0.26301 0.0
C137 C 0.78692 0.11811 0.27564 0.0
H138 H 0.75125 0.13709 0.29995 0.0
H139 H 0.69637 0.10469 0.30829 0.0
H140 H 0.78992 0.01508 0.22825 0.0
H141 H 0.82185 0.06951 0.23892 0.0
H142 H 0.82553 0.11716 0.25927 0.0
H143 H 0.79997 0.14161 0.28146 0.0
Mn144 Mn 0.70157 0.66875 0.65074 0.0
Mn145 Mn 0.67863 0.6909 0.59608 0.0
C146 C 0.72007 0.71958 0.64272 0.0
C147 C 0.69239 0.65469 0.69629 0.0
C148 C 0.72336 0.66817 0.59327 0.0
O149 O 0.664 0.63026 0.6387 0.0
O150 O 0.64778 0.64882 0.60541 0.0
C151 C 0.62641 0.69151 0.62109 0.0
N152 N 0.65333 0.70626 0.6079 0.0
C153 C 0.653 0.75305 0.60956 0.0
C154 C 0.62516 0.7383 0.62297 0.0
C155 C 0.61184 0.70741 0.62878 0.0
C156 C 0.66644 0.73602 0.60237 0.0
H157 H 0.61623 0.66783 0.62586 0.0
C158 C 0.64449 0.62738 0.62103 0.0
O159 O 0.70924 0.6478 0.6817 0.0
O160 O 0.68076 0.66892 0.68439 0.0
N161 N 0.70636 0.73148 0.58537 0.0
C162 C 0.73366 0.74254 0.57302 0.0
C163 C 0.74989 0.77309 0.56565 0.0
C164 C 0.73789 0.79194 0.57102 0.0
C165 C 0.70963 0.78 0.58354 0.0
C166 C 0.6943 0.74927 0.59005 0.0
H167 H 0.743 0.72817 0.56881 0.0
O168 O 0.73451 0.71099 0.65858 0.0
O169 O 0.69563 0.69799 0.6322 0.0
O170 O 0.72568 0.66534 0.61884 0.0
O171 O 0.70558 0.67629 0.5829 0.0
C172 C 0.69635 0.79749 0.59027 0.0
C173 C 0.66812 0.78405 0.60339 0.0
H174 H 0.61393 0.75052 0.62906 0.0
H175 H 0.59045 0.6959 0.63928 0.0
H176 H 0.77166 0.78213 0.55597 0.0
H177 H 0.75064 0.81557 0.5656 0.0
H178 H 0.70782 0.82137 0.58575 0.0
H179 H 0.65832 0.79781 0.60877 0.0
Mn180 Mn 0.01899 0.6967 0.97473 0.0
Mn181 Mn 0.98477 0.67842 0.91393 0.0
C182 C 0.99028 0.71756 0.96104 0.0
C183 C 0.0155 0.68487 0.02092 0.0
C184 C 0.05196 0.72196 0.92115 0.0
O185 O 0.02028 0.65905 0.96443 0.0
O186 O 0.99367 0.64639 0.92553 0.0
C187 C 0.92755 0.62389 0.92896 0.0
N188 N 0.94238 0.65219 0.91829 0.0
C189 C 0.89568 0.65078 0.90852 0.0
C190 C 0.87989 0.62156 0.91926 0.0
C191 C 0.89591 0.6081 0.92959 0.0
C192 C 0.92721 0.66537 0.90833 0.0
H193 H 0.93976 0.61347 0.93696 0.0
C194 C 0.00763 0.64123 0.9445 0.0
O195 O 0.04164 0.70128 0.00945 0.0
O196 O 0.9921 0.67517 0.0055 0.0
N197 N 0.97449 0.70734 0.90094 0.0
C198 C 0.9931 0.7365 0.89336 0.0
C199 C 0.98062 0.75368 0.88374 0.0
C200 C 0.94918 0.74067 0.88185 0.0
C201 C 0.93049 0.71061 0.88972 0.0
C202 C 0.94421 0.6946 0.89919 0.0
H203 H 0.01728 0.74661 0.89477 0.0
O204 O 0.01063 0.73046 0.97971 0.0
O205 O 0.9876 0.69287 0.95097 0.0
O206 O 0.05255 0.72187 0.94709 0.0
O207 O 0.02806 0.70593 0.90731 0.0
C208 C 0.89879 0.69603 0.88892 0.0
C209 C 0.88139 0.66618 0.89841 0.0
H210 H 0.85548 0.60935 0.9199 0.0
H211 H 0.88388 0.58561 0.93804 0.0
H212 H 0.99519 0.7769 0.8778 0.0
H213 H 0.93963 0.75403 0.87451 0.0
H214 H 0.88755 0.70773 0.88143 0.0
H215 H 0.85704 0.65542 0.89817 0.0
Mn216 Mn 0.97172 0.67746 0.35398 0.0
Mn217 Mn 0.01241 0.70143 0.41132 0.0
C218 C 0.00071 0.72841 0.36264 0.0
C219 C 0.97111 0.66428 0.30843 0.0
C220 C 0.94433 0.67523 0.40956 0.0
O221 O 0.97287 0.6405 0.367 0.0
O222 O 0.00371 0.65966 0.40315 0.0
C223 C 0.0686 0.70417 0.39252 0.0
N224 N 0.05422 0.71821 0.40297 0.0
C225 C 0.10035 0.76597 0.40372 0.0
C226 C 0.11567 0.75198 0.39314 0.0
C227 C 0.09972 0.72094 0.38753 0.0
C228 C 0.06939 0.74803 0.40862 0.0
H229 H 0.05639 0.68038 0.38789 0.0
C230 C 0.98811 0.63822 0.3864 0.0
O231 O 0.94603 0.65526 0.32164 0.0
O232 O 0.99578 0.67993 0.32187 0.0
N233 N 0.02266 0.74174 0.42067 0.0
C234 C 0.0042 0.7522 0.42901 0.0
C235 C 0.01648 0.78303 0.43455 0.0
C236 C 0.04756 0.80279 0.43142 0.0
C237 C 0.06612 0.79151 0.42289 0.0
C238 C 0.05268 0.7605 0.41799 0.0
H239 H 0.98024 0.73717 0.43119 0.0
O240 O 0.97844 0.71859 0.34567 0.0
O241 O 0.00482 0.70792 0.37404 0.0
O242 O 0.941 0.67153 0.38384 0.0
O243 O 0.96978 0.68531 0.42148 0.0
C244 C 0.09732 0.80992 0.41844 0.0
C245 C 0.11442 0.79717 0.40888 0.0
H246 H 0.13961 0.76489 0.38896 0.0
H247 H 0.11135 0.71001 0.3792 0.0
H248 H 0.00198 0.79159 0.44101 0.0
H249 H 0.05688 0.82662 0.43538 0.0
H250 H 0.10831 0.834 0.42195 0.0
H251 H 0.13831 0.81162 0.40518 0.0
Mn252 Mn 0.30086 0.9794 0.69622 0.0
Mn253 Mn 0.31839 0.01958 0.75389 0.0
C254 C 0.27863 0.00793 0.70586 0.0
C255 C 0.31302 0.97928 0.65049 0.0
C256 C 0.27662 0.95151 0.75179 0.0
O257 O 0.33919 0.98056 0.70844 0.0
O258 O 0.35135 0.01098 0.7449 0.0
C259 C 0.37162 0.07596 0.73514 0.0
N260 N 0.34337 0.06148 0.74594 0.0
C261 C 0.34228 0.10782 0.74875 0.0
C262 C 0.37144 0.12326 0.73784 0.0
C263 C 0.38614 0.10724 0.73098 0.0
C264 C 0.32904 0.07668 0.75269 0.0
H265 H 0.38294 0.06373 0.72966 0.0
C266 C 0.35697 0.99558 0.72774 0.0
O267 O 0.2971 0.95405 0.66353 0.0
O268 O 0.32196 0.0038 0.66413 0.0
N269 N 0.28851 0.02976 0.76412 0.0
C270 C 0.25963 0.01121 0.77246 0.0
C271 C 0.24135 0.02355 0.779 0.0
C272 C 0.25296 0.05479 0.77697 0.0
C273 C 0.28277 0.07343 0.7684 0.0
C274 C 0.29997 0.05988 0.76228 0.0
H275 H 0.25053 0.98717 0.77391 0.0
O276 O 0.26617 0.98579 0.68876 0.0
O277 O 0.30361 0.01236 0.71676 0.0
O278 O 0.27659 0.94835 0.72602 0.0
O279 O 0.29205 0.97688 0.7638 0.0
C280 C 0.2959 0.10484 0.76521 0.0
C281 C 0.32561 0.12201 0.75533 0.0
H282 H 0.38263 0.14734 0.73439 0.0
H283 H 0.40858 0.11896 0.7224 0.0
H284 H 0.21832 0.009 0.78549 0.0
H285 H 0.2387 0.06418 0.78181 0.0
H286 H 0.28324 0.11598 0.76999 0.0
H287 H 0.33527 0.14608 0.75255 0.0
Mn288 Mn 0.32906 0.29663 0.02857 0.0
Mn289 Mn 0.30731 0.31723 0.08495 0.0
C290 C 0.27803 0.2758 0.03796 0.0
C291 C 0.34155 0.30716 0.98267 0.0
C292 C 0.33243 0.27439 0.08515 0.0
O293 O 0.36696 0.33493 0.04007 0.0
O294 O 0.34862 0.34939 0.07481 0.0
C295 C 0.30371 0.36871 0.06194 0.0
N296 N 0.29027 0.34157 0.07484 0.0
C297 C 0.24299 0.34084 0.07693 0.0
C298 C 0.25638 0.36889 0.06386 0.0
C299 C 0.28685 0.38282 0.05625 0.0
C300 C 0.26087 0.32778 0.0819 0.0
H301 H 0.3271 0.37945 0.05596 0.0
C302 C 0.36975 0.35384 0.05829 0.0
O303 O 0.35024 0.29115 0.99644 0.0
O304 O 0.32648 0.31713 0.99571 0.0
N305 N 0.26758 0.28845 0.09688 0.0
C306 C 0.25809 0.26148 0.10944 0.0
C307 C 0.22823 0.24484 0.11873 0.0
C308 C 0.2085 0.25615 0.11515 0.0
C309 C 0.2189 0.28417 0.10255 0.0
C310 C 0.24899 0.29989 0.094 0.0
H311 H 0.27318 0.25276 0.11244 0.0
O312 O 0.28736 0.2625 0.02146 0.0
O313 O 0.29921 0.30057 0.04852 0.0
O314 O 0.33491 0.27294 0.05942 0.0
O315 O 0.32366 0.2912 0.09648 0.0
C316 C 0.20054 0.29698 0.09793 0.0
C317 C 0.21253 0.32523 0.08502 0.0
H318 H 0.24344 0.37984 0.05943 0.0
H319 H 0.2973 0.40438 0.04601 0.0
H320 H 0.22043 0.22332 0.12857 0.0
H321 H 0.18542 0.24313 0.12213 0.0
H322 H 0.1771 0.28521 0.10408 0.0
H323 H 0.19812 0.33473 0.08137 0.0
Mn324 Mn 0.02641 0.32755 0.36299 0.0
Mn325 Mn 0.98815 0.30975 0.42157 0.0
C326 C 0.99566 0.27726 0.37455 0.0
C327 C 0.02546 0.33834 0.31702 0.0
C328 C 0.05573 0.33371 0.41799 0.0
O329 O 0.02826 0.36669 0.37426 0.0
O330 O 0.99654 0.35035 0.4099 0.0
C331 C 0.93141 0.30479 0.40144 0.0
N332 N 0.94609 0.29212 0.41393 0.0
C333 C 0.89994 0.24491 0.41909 0.0
C334 C 0.88428 0.25752 0.40648 0.0
C335 C 0.90011 0.28756 0.39754 0.0
C336 C 0.93114 0.26314 0.42232 0.0
H337 H 0.94352 0.32783 0.3944 0.0
C338 C 0.01301 0.37065 0.39262 0.0
O339 O 0.05093 0.34661 0.3293 0.0
O340 O 0.00133 0.32458 0.33148 0.0
N341 N 0.97825 0.27074 0.43481 0.0
C342 C 0.99676 0.26182 0.4462 0.0
C343 C 0.98442 0.2324 0.45641 0.0
C344 C 0.95319 0.2125 0.45488 0.0
C345 C 0.93455 0.22228 0.44332 0.0
C346 C 0.9481 0.25197 0.43378 0.0
H347 H 0.02076 0.27705 0.44758 0.0
O348 O 0.01682 0.28503 0.35668 0.0
O349 O 0.99383 0.29949 0.38502 0.0
O350 O 0.0577 0.33346 0.39212 0.0
O351 O 0.03135 0.32695 0.43069 0.0
C352 C 0.90312 0.20362 0.44056 0.0
C353 C 0.88585 0.21489 0.42835 0.0
H354 H 0.86014 0.24429 0.4034 0.0
H355 H 0.88821 0.2974 0.38763 0.0
H356 H 0.99895 0.22506 0.46537 0.0
H357 H 0.94379 0.18974 0.46255 0.0
H358 H 0.89205 0.18048 0.44753 0.0
H359 H 0.86175 0.20023 0.42609 0.0
Mn360 Mn 0.70172 0.02631 0.69385 0.0
Mn361 Mn 0.68004 0.98426 0.75037 0.0
C362 C 0.71995 0.99384 0.70286 0.0
C363 C 0.69094 0.02888 0.64823 0.0
C364 C 0.72561 0.05159 0.75014 0.0
O365 O 0.66504 0.02871 0.70613 0.0
O366 O 0.64928 0.99548 0.74061 0.0
C367 C 0.62666 0.93039 0.72801 0.0
N368 N 0.65397 0.94305 0.74059 0.0
C369 C 0.65217 0.89526 0.74274 0.0
C370 C 0.62393 0.88166 0.72997 0.0
C371 C 0.61118 0.89933 0.72249 0.0
C372 C 0.66664 0.92634 0.7475 0.0
H373 H 0.61683 0.94392 0.72215 0.0
C374 C 0.64596 0.01321 0.72447 0.0
O375 O 0.70861 0.05331 0.66171 0.0
O376 O 0.67946 0.00372 0.66126 0.0
N377 N 0.70761 0.97154 0.76194 0.0
C378 C 0.73498 0.98811 0.77414 0.0
C379 C 0.75061 0.97373 0.7832 0.0
C380 C 0.73788 0.94248 0.77978 0.0
C381 C 0.70946 0.92582 0.76758 0.0
C382 C 0.69481 0.94134 0.75922 0.0
H383 H 0.74479 0.0121 0.77703 0.0
O384 O 0.7339 0.01603 0.68607 0.0
O385 O 0.69598 0.99181 0.71375 0.0
O386 O 0.72729 0.05538 0.72438 0.0
O387 O 0.70776 0.02639 0.76157 0.0
C388 C 0.69521 0.89448 0.76322 0.0
C389 C 0.66662 0.87922 0.75074 0.0
H390 H 0.61193 0.85771 0.72569 0.0
H391 H 0.58947 0.88904 0.7125 0.0
H392 H 0.77244 0.98672 0.79274 0.0
H393 H 0.75011 0.93151 0.78659 0.0
H394 H 0.7061 0.88191 0.76926 0.0
H395 H 0.65599 0.85516 0.7473 0.0
Mn396 Mn 0.67805 0.70193 0.0254 0.0
Mn397 Mn 0.69981 0.68303 0.08287 0.0
C398 C 0.72868 0.72142 0.03433 0.0
C399 C 0.66452 0.69008 0.97994 0.0
C400 C 0.677 0.72772 0.08094 0.0
O401 O 0.63975 0.66496 0.03825 0.0
O402 O 0.65755 0.65156 0.07428 0.0
C403 C 0.69948 0.62788 0.06443 0.0
N404 N 0.71463 0.65625 0.07493 0.0
C405 C 0.76068 0.65458 0.07745 0.0
C406 C 0.74552 0.62527 0.06683 0.0
C407 C 0.71479 0.61188 0.06027 0.0
C408 C 0.74417 0.66931 0.08142 0.0
H409 H 0.67591 0.61755 0.05919 0.0
C410 C 0.63649 0.64691 0.05749 0.0
O411 O 0.65725 0.70753 0.99312 0.0
O412 O 0.67883 0.67938 0.99318 0.0
N413 N 0.74052 0.71151 0.09263 0.0
C414 C 0.75235 0.7407 0.10073 0.0
C415 C 0.78318 0.75777 0.10694 0.0
C416 C 0.80149 0.74465 0.10484 0.0
C417 C 0.78879 0.71454 0.09654 0.0
C418 C 0.7579 0.69859 0.09075 0.0
H419 H 0.73842 0.75097 0.10222 0.0
O420 O 0.71992 0.73476 0.0173 0.0
O421 O 0.70736 0.69718 0.04556 0.0
O422 O 0.67387 0.72792 0.0552 0.0
O423 O 0.6856 0.71114 0.09288 0.0
C424 C 0.8057 0.69993 0.09328 0.0
C425 C 0.79167 0.66999 0.0837 0.0
H426 H 0.75731 0.61295 0.06337 0.0
H427 H 0.70297 0.58933 0.05193 0.0
H428 H 0.79283 0.78103 0.11323 0.0
H429 H 0.82531 0.75797 0.10943 0.0
H430 H 0.82959 0.71162 0.09778 0.0
H431 H 0.80502 0.65916 0.08087 0.0
H432 H 0.3394 0.05706 0.20811 0.0
H433 H 0.34595 0.09835 0.17916 0.0
H434 H 0.3393 0.14549 0.24885 0.0
H435 H 0.33313 0.10416 0.2783 0.0
H436 H 0.30402 0.1157 0.17239 0.0
H437 H 0.41161 0.21229 0.20885 0.0
H438 H 0.4001 0.1737 0.21719 0.0
H439 H 0.38404 0.193 0.23487 0.0
C440 C 0.33972 0.07636 0.21747 0.0
C441 C 0.33561 0.07719 0.24561 0.0
C442 C 0.34349 0.09999 0.2008 0.0
C443 C 0.34329 0.12514 0.21177 0.0
C444 C 0.34009 0.12658 0.23996 0.0
H445 H 0.33346 0.27413 0.14061 0.0
H446 H 0.3379 0.23863 0.1704 0.0
C447 C 0.33647 0.10289 0.25678 0.0
C448 C 0.34406 0.14843 0.19325 0.0
H449 H 0.38335 0.22338 0.17736 0.0
C450 C 0.32149 0.13921 0.17338 0.0
C451 C 0.36678 0.17912 0.19461 0.0
C452 C 0.39218 0.19018 0.21486 0.0
C453 C 0.32075 0.15983 0.1551 0.0
C454 C 0.34351 0.19051 0.15638 0.0
C455 C 0.36605 0.19981 0.17629 0.0
C456 C 0.34338 0.2134 0.13796 0.0
C457 C 0.29512 0.14872 0.13505 0.0
C458 C 0.34578 0.21154 0.10973 0.0
C459 C 0.3432 0.23188 0.09247 0.0
C460 C 0.33825 0.25452 0.10315 0.0
C461 C 0.33708 0.25694 0.13154 0.0
C462 C 0.33969 0.23668 0.1487 0.0
H463 H 0.27602 0.12628 0.14078 0.0
H464 H 0.28668 0.16484 0.13339 0.0
H465 H 0.30325 0.14662 0.11478 0.0
H466 H 0.34914 0.19404 0.10103 0.0
H467 H 0.34435 0.22937 0.07079 0.0
H468 H 0.28142 0.37829 0.57269 0.0
H469 H 0.24678 0.38605 0.54389 0.0
H470 H 0.17453 0.29745 0.56544 0.0
H471 H 0.20877 0.29065 0.59537 0.0
H472 H 0.22032 0.35847 0.50053 0.0
H473 H 0.12999 0.34136 0.57148 0.0
H474 H 0.16531 0.34572 0.58312 0.0
H475 H 0.13533 0.30939 0.57216 0.0
C476 C 0.25783 0.36106 0.57197 0.0
C477 C 0.24741 0.33426 0.5867 0.0
C478 C 0.23812 0.36532 0.55533 0.0
C479 C 0.20776 0.34256 0.55271 0.0
C480 C 0.19743 0.31584 0.56774 0.0
H481 H 0.0958 0.3139 0.41078 0.0
H482 H 0.13436 0.31839 0.44281 0.0
C483 C 0.217 0.31189 0.58481 0.0
C484 C 0.18765 0.34568 0.53266 0.0
H485 H 0.11679 0.33489 0.52417 0.0
C486 C 0.19783 0.35374 0.50584 0.0
C487 C 0.15842 0.34002 0.53945 0.0
C488 C 0.1468 0.33399 0.5682 0.0
C489 C 0.17944 0.35553 0.4856 0.0
C490 C 0.14945 0.34778 0.492 0.0
C491 C 0.13958 0.34048 0.51898 0.0
C492 C 0.12775 0.34686 0.47126 0.0
C493 C 0.19271 0.36625 0.45777 0.0
C494 C 0.11059 0.36078 0.47658 0.0
C495 C 0.08792 0.35737 0.4587 0.0
C496 C 0.08231 0.34054 0.43476 0.0
C497 C 0.10013 0.32754 0.42881 0.0
C498 C 0.1223 0.33025 0.4471 0.0
H499 H 0.21755 0.38121 0.45881 0.0
H500 H 0.18817 0.34652 0.44512 0.0
H501 H 0.18287 0.3787 0.44763 0.0
H502 H 0.11423 0.37373 0.49496 0.0
H503 H 0.0744 0.36752 0.46381 0.0
H504 H 0.77556 0.10574 0.73629 0.0
H505 H 0.81131 0.14489 0.76722 0.0
H506 H 0.75738 0.09412 0.83552 0.0
H507 H 0.722 0.05494 0.80512 0.0
H508 H 0.80415 0.18064 0.80695 0.0
H509 H 0.84 0.10503 0.85357 0.0
H510 H 0.81854 0.09569 0.82253 0.0
H511 H 0.80005 0.09042 0.8547 0.0
C512 C 0.7712 0.10301 0.75788 0.0
C513 C 0.74604 0.07695 0.76816 0.0
C514 C 0.79167 0.1254 0.77553 0.0
C515 C 0.78735 0.12209 0.80372 0.0
C516 C 0.76159 0.0968 0.81391 0.0
H517 H 0.89156 0.22412 0.94485 0.0
H518 H 0.8512 0.1891 0.91453 0.0
C519 C 0.74128 0.07445 0.79639 0.0
C520 C 0.80993 0.14466 0.82267 0.0
H521 H 0.85732 0.15244 0.87476 0.0
C522 C 0.81588 0.17453 0.82171 0.0
C523 C 0.82518 0.13663 0.84197 0.0
C524 C 0.82089 0.10528 0.84317 0.0
C525 C 0.83632 0.19647 0.83981 0.0
C526 C 0.85147 0.18839 0.85913 0.0
C527 C 0.84547 0.15852 0.86011 0.0
C528 C 0.87483 0.21085 0.87759 0.0
C529 C 0.8412 0.22802 0.83837 0.0
C530 C 0.90147 0.23464 0.86691 0.0
C531 C 0.92454 0.25456 0.8841 0.0
C532 C 0.92159 0.25115 0.91247 0.0
C533 C 0.89459 0.22756 0.92316 0.0
C534 C 0.87152 0.20748 0.90586 0.0
H535 H 0.82229 0.22858 0.82788 0.0
H536 H 0.84376 0.23779 0.85896 0.0
H537 H 0.86216 0.24252 0.82684 0.0
H538 H 0.90479 0.23734 0.84519 0.0
H539 H 0.94495 0.27238 0.87503 0.0
H540 H 0.67342 0.7778 0.06604 0.0
H541 H 0.66995 0.81407 0.09633 0.0
H542 H 0.66485 0.76019 0.16539 0.0
H543 H 0.6687 0.72437 0.13566 0.0
H544 H 0.62683 0.80805 0.13544 0.0
H545 H 0.73711 0.84227 0.18367 0.0
H546 H 0.72516 0.82071 0.15267 0.0
H547 H 0.71147 0.8024 0.18485 0.0
C548 C 0.6713 0.77357 0.08765 0.0
C549 C 0.67175 0.74834 0.09838 0.0
C550 C 0.66938 0.79434 0.10494 0.0
C551 C 0.66787 0.7902 0.13319 0.0
C552 C 0.66682 0.7643 0.14375 0.0
H553 H 0.66602 0.89005 0.27546 0.0
H554 H 0.6622 0.8513 0.24388 0.0
C555 C 0.6689 0.74374 0.12662 0.0
C556 C 0.66801 0.81305 0.15187 0.0
H557 H 0.70669 0.85929 0.20492 0.0
C558 C 0.64437 0.81941 0.15052 0.0
C559 C 0.69093 0.82787 0.17157 0.0
C560 C 0.71776 0.82323 0.17318 0.0
C561 C 0.64268 0.83966 0.16875 0.0
C562 C 0.66542 0.85416 0.18862 0.0
C563 C 0.68912 0.84792 0.18986 0.0
C564 C 0.66576 0.87677 0.20773 0.0
C565 C 0.61628 0.84493 0.16695 0.0
C566 C 0.66914 0.90395 0.1979 0.0
C567 C 0.67144 0.92614 0.21582 0.0
C568 C 0.67048 0.92171 0.24409 0.0
C569 C 0.6667 0.89423 0.25388 0.0
C570 C 0.66456 0.87206 0.23586 0.0
H571 H 0.59717 0.82667 0.15553 0.0
H572 H 0.60829 0.84656 0.18746 0.0
H573 H 0.6234 0.8665 0.15623 0.0
H574 H 0.67071 0.90834 0.17631 0.0
H575 H 0.67438 0.94697 0.20743 0.0
H576 H 0.88702 0.66139 0.3939 0.0
H577 H 0.84549 0.65469 0.42335 0.0
H578 H 0.90073 0.66846 0.49377 0.0
H579 H 0.94195 0.67479 0.46487 0.0
H580 H 0.84111 0.62025 0.49931 0.0
H581 H 0.84496 0.72508 0.4635 0.0
H582 H 0.84021 0.69832 0.43765 0.0
H583 H 0.87478 0.717 0.45653 0.0
C584 C 0.89025 0.66274 0.41565 0.0
C585 C 0.91801 0.66887 0.4269 0.0
C586 C 0.86654 0.65909 0.43246 0.0
C587 C 0.87017 0.66151 0.46076 0.0
C588 C 0.89743 0.6666 0.47201 0.0
H589 H 0.77406 0.66454 0.60481 0.0
H590 H 0.80819 0.66056 0.57248 0.0
C591 C 0.92106 0.67031 0.45534 0.0
C592 C 0.84613 0.65964 0.47891 0.0
H593 H 0.8087 0.69665 0.49654 0.0
C594 C 0.83387 0.63684 0.49864 0.0
C595 C 0.83681 0.68137 0.47807 0.0
C596 C 0.84996 0.70701 0.45798 0.0
C597 C 0.81245 0.63511 0.51748 0.0
C598 C 0.80355 0.65719 0.51697 0.0
C599 C 0.81552 0.67973 0.49698 0.0
C600 C 0.78199 0.65763 0.53697 0.0
C601 C 0.79932 0.60941 0.53749 0.0
C602 C 0.75609 0.65772 0.52787 0.0
C603 C 0.7368 0.66038 0.54623 0.0
C604 C 0.74287 0.663 0.57426 0.0
C605 C 0.76851 0.66228 0.58344 0.0
C606 C 0.78799 0.65985 0.56496 0.0
H607 H 0.80141 0.59003 0.53017 0.0
H608 H 0.81176 0.61716 0.55694 0.0
H609 H 0.77516 0.60154 0.54143 0.0
H610 H 0.75097 0.6561 0.50642 0.0
H611 H 0.71725 0.66074 0.53835 0.0
H612 H 0.23036 0.89547 0.7364 0.0
H613 H 0.1953 0.85451 0.7663 0.0
H614 H 0.24357 0.90694 0.8362 0.0
H615 H 0.27826 0.94778 0.80686 0.0
H616 H 0.20501 0.82107 0.80825 0.0
H617 H 0.15686 0.889 0.84908 0.0
H618 H 0.17965 0.89949 0.8188 0.0
H619 H 0.19715 0.90688 0.85164 0.0
C620 C 0.23367 0.89816 0.75812 0.0
C621 C 0.25697 0.92514 0.76915 0.0
C622 C 0.2136 0.87475 0.77518 0.0
C623 C 0.21648 0.87796 0.80349 0.0
C624 C 0.2405 0.90424 0.81445 0.0
H625 H 0.10418 0.77126 0.93968 0.0
H626 H 0.1467 0.80817 0.91225 0.0
C627 C 0.26041 0.92757 0.79754 0.0
C628 C 0.19404 0.85438 0.82178 0.0
H629 H 0.1417 0.84223 0.87045 0.0
C630 C 0.19109 0.82563 0.8218 0.0
C631 C 0.17602 0.86044 0.83956 0.0
C632 C 0.1773 0.89052 0.8397 0.0
C633 C 0.17081 0.80286 0.83935 0.0
C634 C 0.15267 0.80889 0.85703 0.0
C635 C 0.15581 0.83771 0.8571 0.0
C636 C 0.12873 0.78511 0.87417 0.0
C637 C 0.16923 0.77266 0.83905 0.0
C638 C 0.10465 0.75987 0.86193 0.0
C639 C 0.08046 0.73888 0.87745 0.0
C640 C 0.0796 0.74265 0.90567 0.0
C641 C 0.10418 0.76753 0.91807 0.0
C642 C 0.12843 0.78869 0.90241 0.0
H643 H 0.19032 0.77446 0.83097 0.0
H644 H 0.16511 0.76272 0.85969 0.0
H645 H 0.15039 0.75701 0.82575 0.0
H646 H 0.10402 0.75691 0.84015 0.0
H647 H 0.06199 0.72004 0.86711 0.0
H648 H 0.40979 0.02754 0.32124 0.0
H649 H 0.45487 0.02287 0.3197 0.0
H650 H 0.42425 0.9729 0.24495 0.0
H651 H 0.3787 0.97691 0.2465 0.0
H652 H 0.44378 0.94614 0.28169 0.0
H653 H 0.52815 0.06748 0.27115 0.0
H654 H 0.50374 0.05944 0.29982 0.0
H655 H 0.48833 0.05292 0.26611 0.0
C656 C 0.41268 0.01579 0.30429 0.0
C657 C 0.39059 0.00274 0.28391 0.0
C658 C 0.43858 0.01325 0.30341 0.0
C659 C 0.44313 0.99793 0.28201 0.0
C660 C 0.42123 0.98494 0.2616 0.0
H661 H 0.61357 0.00674 0.24869 0.0
H662 H 0.5668 0.00823 0.24594 0.0
C663 C 0.39524 0.98735 0.26249 0.0
C664 C 0.47026 0.99462 0.2814 0.0
H665 H 0.54714 0.03469 0.2816 0.0
C666 C 0.4664 0.96548 0.2815 0.0
C667 C 0.49972 0.01987 0.28084 0.0
C668 C 0.50532 0.05169 0.2792 0.0
C669 C 0.49125 0.96092 0.28156 0.0
C670 C 0.52071 0.9862 0.28204 0.0
C671 C 0.52453 0.01532 0.28146 0.0
C672 C 0.54799 0.98314 0.28296 0.0
C673 C 0.48571 0.9291 0.2807 0.0
C674 C 0.5529 0.96835 0.30462 0.0
C675 C 0.5796 0.96724 0.30619 0.0
C676 C 0.60207 0.98127 0.28628 0.0
C677 C 0.59683 0.99572 0.26442 0.0
C678 C 0.57009 0.99664 0.26281 0.0
H679 H 0.46291 0.91308 0.2727 0.0
H680 H 0.50276 0.9276 0.26793 0.0
H681 H 0.48726 0.92188 0.30155 0.0
H682 H 0.53645 0.95835 0.32072 0.0
H683 H 0.58298 0.95618 0.32343 0.0
H684 H 0.6229 0.579 0.6557 0.0
H685 H 0.57337 0.53325 0.65454 0.0
H686 H 0.55134 0.56438 0.58154 0.0
H687 H 0.6004 0.61025 0.58266 0.0
H688 H 0.50717 0.54589 0.62025 0.0
H689 H 0.54128 0.45969 0.60504 0.0
H690 H 0.55888 0.48416 0.63351 0.0
H691 H 0.56683 0.49941 0.59977 0.0
C692 C 0.6077 0.57594 0.63917 0.0
C693 C 0.61571 0.59836 0.61927 0.0
C694 C 0.57942 0.54972 0.63851 0.0
C695 C 0.55879 0.5453 0.6178 0.0
C696 C 0.56693 0.56733 0.59768 0.0
H697 H 0.39316 0.38131 0.57817 0.0
H698 H 0.443 0.42645 0.5779 0.0
C699 C 0.59506 0.59355 0.59836 0.0
C700 C 0.52812 0.51851 0.61772 0.0
H701 H 0.4896 0.44165 0.61458 0.0
C702 C 0.50331 0.52309 0.61895 0.0
C703 C 0.52317 0.48883 0.61577 0.0
C704 C 0.54891 0.48262 0.6132 0.0
C705 C 0.47365 0.49877 0.61846 0.0
C706 C 0.4687 0.46906 0.61718 0.0
C707 C 0.49349 0.46447 0.61573 0.0
C708 C 0.43796 0.4424 0.61706 0.0
C709 C 0.4479 0.50515 0.61881 0.0
C710 C 0.41857 0.43644 0.63917 0.0
C711 C 0.38995 0.41073 0.63937 0.0
C712 C 0.38026 0.39031 0.61752 0.0
C713 C 0.39974 0.39654 0.5953 0.0
C714 C 0.42832 0.42229 0.59513 0.0
H715 H 0.45531 0.5287 0.61264 0.0
H716 H 0.42945 0.48955 0.6051 0.0
H717 H 0.43871 0.50187 0.63967 0.0
H718 H 0.42578 0.45139 0.65653 0.0
H719 H 0.37572 0.4066 0.65692 0.0
H720 H 0.98479 0.59742 0.90527 0.0
H721 H 0.98145 0.54817 0.90636 0.0
H722 H 0.02586 0.56944 0.98411 0.0
H723 H 0.02986 0.61895 0.98307 0.0
H724 H 0.04751 0.54266 0.94957 0.0
H725 H 0.92256 0.47757 0.9532 0.0
H726 H 0.93737 0.50284 0.92489 0.0
H727 H 0.94386 0.51775 0.95877 0.0
C728 C 0.99402 0.59176 0.92256 0.0
C729 C 0.00747 0.61218 0.94415 0.0
C730 C 0.99186 0.56347 0.92323 0.0
C731 C 0.00283 0.55493 0.94557 0.0
C732 C 0.01705 0.57553 0.96675 0.0
H733 H 0.9617 0.37391 0.98892 0.0
H734 H 0.96527 0.42327 0.98652 0.0
C735 C 0.01934 0.60386 0.96609 0.0
C736 C -0.00044 0.52453 0.9469 0.0
H737 H 0.94749 0.4494 0.94701 0.0
C738 C 0.02566 0.52226 0.94906 0.0
C739 C 0.97097 0.49798 0.9467 0.0
C740 C 0.94206 0.49904 0.94603 0.0
C741 C 0.02399 0.49411 0.95056 0.0
C742 C 0.99547 0.46754 0.94931 0.0
C743 C 0.96933 0.46981 0.94763 0.0
C744 C 0.99231 0.43718 0.95004 0.0
C745 C 0.05276 0.49311 0.95399 0.0
C746 C 0.00569 0.42837 0.92995 0.0
C747 C 0.0038 0.40024 0.93128 0.0
C748 C 0.9882 0.3802 0.95261 0.0
C749 C 0.97391 0.38873 0.97221 0.0
C750 C 0.97594 0.41695 0.97091 0.0
H751 H 0.07135 0.51477 0.96195 0.0
H752 H 0.04943 0.47471 0.96796 0.0
H753 H 0.05988 0.48889 0.934 0.0
H754 H 0.01781 0.44335 0.91331 0.0
H755 H 0.01487 0.39439 0.91569 0.0
H756 H 0.01547 0.62255 0.4259 0.0
H757 H 0.0201 0.57738 0.4278 0.0
H758 H 0.96895 0.54505 0.35381 0.0
H759 H 0.96362 0.58976 0.35194 0.0
H760 H 0.9514 0.50076 0.39185 0.0
H761 H 0.07576 0.56178 0.38028 0.0
H762 H 0.06288 0.57463 0.40835 0.0
H763 H 0.05343 0.57949 0.37433 0.0
C764 C 0.00505 0.6058 0.41007 0.0
C765 C 0.98928 0.60994 0.38869 0.0
C766 C 0.00794 0.58009 0.4111 0.0
C767 C 0.99543 0.55818 0.39064 0.0
C768 C 0.97897 0.5618 0.36971 0.0
H769 H 0.0365 0.41633 0.35508 0.0
H770 H 0.03242 0.46192 0.35475 0.0
C771 C 0.97593 0.5874 0.36871 0.0
C772 C -0.0007 0.53137 0.39104 0.0
H773 H 0.05235 0.50957 0.39066 0.0
C774 C 0.97346 0.50267 0.39155 0.0
C775 C 0.02811 0.53393 0.39018 0.0
C776 C 0.05664 0.56409 0.38798 0.0
C777 C 0.97563 0.47643 0.39164 0.0
C778 C 0.00446 0.47901 0.39181 0.0
C779 C 0.0303 0.50769 0.39085 0.0
C780 C 0.00819 0.45213 0.39272 0.0
C781 C 0.94702 0.4462 0.39102 0.0
C782 C 0.99663 0.43196 0.41453 0.0
C783 C 0.9988 0.40586 0.41475 0.0
C784 C 0.0129 0.39954 0.39328 0.0
C785 C 0.02549 0.42043 0.37193 0.0
C786 C 0.02315 0.44649 0.37169 0.0
H787 H 0.9276 0.4481 0.38344 0.0
H788 H 0.94964 0.42999 0.37799 0.0
H789 H 0.94159 0.43688 0.41186 0.0
H790 H 0.98566 0.43626 0.4313 0.0
H791 H 0.9891 0.39047 0.43166 0.0
H792 H 0.62356 0.03825 0.68872 0.0
H793 H 0.57513 0.03674 0.69114 0.0
H794 H 0.55623 0.98984 0.76753 0.0
H795 H 0.60416 0.99067 0.76509 0.0
H796 H 0.5095 0.96247 0.73259 0.0
H797 H 0.54863 0.08474 0.73756 0.0
H798 H 0.56336 0.07439 0.70911 0.0
H799 H 0.5736 0.06989 0.74294 0.0
C800 C 0.60929 0.02796 0.70621 0.0
C801 C 0.61781 0.01459 0.72671 0.0
C802 C 0.58166 0.02724 0.70762 0.0
C803 C 0.56223 0.0135 0.72969 0.0
C804 C 0.5709 0.00061 0.75035 0.0
H805 H 0.4012 0.0236 0.76619 0.0
H806 H 0.45051 0.02697 0.76762 0.0
C807 C 0.59836 0.00114 0.7489 0.0
C808 C 0.5321 0.01094 0.73061 0.0
H809 H 0.49615 0.05189 0.72995 0.0
C810 C 0.50659 0.98204 0.73215 0.0
C811 C 0.52836 0.03649 0.73036 0.0
C812 C 0.55494 0.06815 0.73017 0.0
C813 C 0.47741 0.97794 0.73304 0.0
C814 C 0.47361 0.00343 0.73177 0.0
C815 C 0.49912 0.03237 0.7307 0.0
C816 C 0.44334 0.00053 0.73131 0.0
C817 C 0.45096 0.94638 0.73572 0.0
C818 C 0.423 0.98462 0.71037 0.0
C819 C 0.39473 0.98245 0.70957 0.0
C820 C 0.38631 0.99644 0.72956 0.0
C821 C 0.40681 0.01241 0.75053 0.0
C822 C 0.43506 0.01446 0.75134 0.0
H823 H 0.45789 0.93068 0.74423 0.0
H824 H 0.43317 0.94593 0.74889 0.0
H825 H 0.44111 0.9379 0.71537 0.0
H826 H 0.42918 0.97427 0.69436 0.0
H827 H 0.37972 0.97022 0.69296 0.0
H828 H 0.38694 0.39779 0.09694 0.0
H829 H 0.43212 0.4475 0.09743 0.0
H830 H 0.46196 0.42682 0.02293 0.0
H831 H 0.41704 0.3767 0.02245 0.0
H832 H 0.50766 0.45494 0.06003 0.0
H833 H 0.44555 0.5172 0.04876 0.0
H834 H 0.43341 0.49212 0.07729 0.0
H835 H 0.42797 0.47705 0.04351 0.0
C836 C 0.40312 0.40368 0.08067 0.0
C837 C 0.3982 0.38323 0.05955 0.0
C838 C 0.42885 0.43223 0.08091 0.0
C839 C 0.45004 0.44109 0.05991 0.0
C840 C 0.44574 0.42049 0.03923 0.0
H841 H 0.58921 0.62382 0.02167 0.0
H842 H 0.54407 0.57399 0.02258 0.0
C843 C 0.42006 0.39182 0.03903 0.0
C844 C 0.47672 0.47184 0.05953 0.0
H845 H 0.49782 0.5465 0.05899 0.0
C846 C 0.50554 0.47497 0.05973 0.0
C847 C 0.47388 0.49793 0.0587 0.0
C848 C 0.44355 0.496 0.05677 0.0
C849 C 0.53163 0.50352 0.05959 0.0
C850 C 0.52876 0.52961 0.05986 0.0
C851 C 0.49995 0.52647 0.05916 0.0
C852 C 0.55543 0.56037 0.06022 0.0
C853 C 0.56199 0.50543 0.05861 0.0
C854 C 0.57638 0.56958 0.08149 0.0
C855 C 0.6023 0.59802 0.08101 0.0
C856 C 0.60762 0.61798 0.05938 0.0
C857 C 0.58591 0.6091 0.03866 0.0
C858 C 0.56008 0.58058 0.0391 0.0
H859 H 0.56018 0.48414 0.05109 0.0
H860 H 0.57787 0.52422 0.04537 0.0
H861 H 0.57165 0.5096 0.07934 0.0
H862 H 0.57284 0.55462 0.09834 0.0
H863 H 0.61837 0.60414 0.09742 0.0
H864 H 0.99865 0.78055 0.36721 0.0
H865 H 0.0396 0.8318 0.35596 0.0
H866 H 0.09827 0.7962 0.33822 0.0
H867 H 0.0577 0.74548 0.34905 0.0
H868 H 0.1042 0.86513 0.37792 0.0
H869 H 0.09416 0.84095 0.26759 0.0
H870 H 0.06391 0.81937 0.2912 0.0
H871 H 0.0949 0.81244 0.28824 0.0
C872 C 0.02052 0.78398 0.36133 0.0
C873 C 0.02551 0.75947 0.35971 0.0
C874 C 0.04372 0.81305 0.35488 0.0
C875 C 0.07172 0.81754 0.34606 0.0
C876 C 0.07671 0.79306 0.3448 0.0
H877 H 0.25089 0.93389 0.31631 0.0
H878 H 0.19856 0.89454 0.32346 0.0
C879 C 0.05371 0.76423 0.35131 0.0
C880 C 0.09591 0.84745 0.33731 0.0
H881 H 0.14091 0.88277 0.28289 0.0
C882 C 0.11181 0.86946 0.35704 0.0
C883 C 0.10563 0.85286 0.31003 0.0
C884 C 0.08862 0.83027 0.28795 0.0
C885 C 0.1386 0.89596 0.35043 0.0
C886 C 0.14938 0.90032 0.32351 0.0
C887 C 0.13244 0.87924 0.30348 0.0
C888 C 0.18028 0.92401 0.31684 0.0
C889 C 0.15635 0.91825 0.37245 0.0
C890 C 0.18701 0.95337 0.31029 0.0
C891 C 0.21695 0.97582 0.30577 0.0
C892 C 0.24016 0.96886 0.30736 0.0
C893 C 0.23319 0.93942 0.31384 0.0
C894 C 0.20344 0.91708 0.31823 0.0
H895 H 0.14388 0.91267 0.39196 0.0
H896 H 0.17795 0.91854 0.37567 0.0
H897 H 0.16191 0.94128 0.36617 0.0
H898 H 0.16927 0.95899 0.30931 0.0
H899 H 0.22206 0.99863 0.30149 0.0
H900 H 0.31375 0.24828 0.63592 0.0
H901 H 0.30257 0.19658 0.64231 0.0
H902 H 0.20745 0.16629 0.64361 0.0
H903 H 0.21872 0.21841 0.63594 0.0
H904 H 0.23144 0.15159 0.69077 0.0
H905 H 0.26456 0.11892 0.59538 0.0
H906 H 0.29081 0.15664 0.60615 0.0
H907 H 0.25305 0.14699 0.5968 0.0
C908 C 0.29042 0.23042 0.63593 0.0
C909 C 0.26705 0.23706 0.63419 0.0
C910 C 0.28404 0.2009 0.63994 0.0
C911 C 0.25416 0.17758 0.64304 0.0
C912 C 0.23061 0.18397 0.64086 0.0
H913 H 0.22319 0.00313 0.70803 0.0
H914 H 0.21092 0.04189 0.69395 0.0
C915 C 0.23704 0.2136 0.6364 0.0
C916 C 0.24849 0.14767 0.65199 0.0
H917 H 0.26681 0.09413 0.63597 0.0
C918 C 0.23837 0.13846 0.67862 0.0
C919 C 0.25743 0.13064 0.63602 0.0
C920 C 0.26682 0.13859 0.60688 0.0
C921 C 0.23936 0.114 0.6904 0.0
C922 C 0.25062 0.09853 0.67503 0.0
C923 C 0.25859 0.10638 0.64781 0.0
C924 C 0.25737 0.07626 0.68729 0.0
C925 C 0.23018 0.106 0.7196 0.0
C926 C 0.28745 0.08302 0.68857 0.0
C927 C 0.29436 0.06108 0.69639 0.0
C928 C 0.27138 0.03217 0.70364 0.0
C929 C 0.24128 0.0256 0.70324 0.0
C930 C 0.2343 0.04762 0.69522 0.0
H931 H 0.22556 0.12264 0.72974 0.0
H932 H 0.20949 0.08352 0.72059 0.0
H933 H 0.24809 0.10456 0.73098 0.0
H934 H 0.30554 0.10495 0.68234 0.0
H935 H 0.31759 0.06626 0.69533 0.0
H936 H 0.26655 0.30461 0.99901 0.0
H937 H 0.21836 0.29952 0.98642 0.0
H938 H 0.17548 0.23659 0.0522 0.0
H939 H 0.22312 0.23762 0.06119 0.0
H940 H 0.13744 0.22094 0.01858 0.0
H941 H 0.18429 0.34358 0.0175 0.0
H942 H 0.20241 0.33489 0.99096 0.0
H943 H 0.20751 0.32771 0.02589 0.0
C944 C 0.24673 0.2897 0.01073 0.0
C945 C 0.24862 0.27279 0.03215 0.0
C946 C 0.21922 0.28713 1.00381 0.0
C947 C 0.19336 0.26927 0.01942 0.0
C948 C 0.19507 0.25121 0.04013 0.0
H949 H 0.05145 0.31271 0.0074 0.0
H950 H 0.09495 0.30802 0.01906 0.0
C951 C 0.22237 0.25221 0.04577 0.0
C952 C 0.16468 0.26914 0.01369 0.0
H953 H 0.13701 0.3145 0.99443 0.0
C954 C 0.13733 0.24158 0.01399 0.0
C955 C 0.16401 0.29595 0.00794 0.0
C956 C 0.19114 0.32713 0.0109 0.0
C957 C 0.1096 0.2401 0.00899 0.0
C958 C 0.10935 0.26661 1.00113 0.0
C959 C 0.1368 0.29399 1.0003 0.0
C960 C 0.08118 0.26743 0.99532 0.0
C961 C 0.08111 0.21033 0.01338 0.0
C962 C 0.0581 0.24584 0.97867 0.0
C963 C 0.03213 0.2476 0.97344 0.0
C964 C 0.03006 0.27222 0.98303 0.0
C965 C 0.05306 0.2939 0.99929 0.0
C966 C 0.07801 0.29123 0.00581 0.0
H967 H 0.08477 0.19606 0.02811 0.0
H968 H 0.06253 0.2135 0.02109 0.0
H969 H 0.07407 0.19779 0.99394 0.0
H970 H 0.06021 0.22788 0.96935 0.0
H971 H 0.01422 0.23039 0.96124 0.0
H972 H 0.95173 0.26575 0.33957 0.0
H973 H 0.90778 0.21751 0.32886 0.0
H974 H 0.93299 0.17508 0.39131 0.0
H975 H 0.98011 0.22287 0.39829 0.0
H976 H 0.90971 0.13741 0.35758 0.0
H977 H 0.83115 0.18053 0.36306 0.0
H978 H 0.85654 0.20031 0.33599 0.0
H979 H 0.87043 0.20461 0.37037 0.0
C980 C 0.9477 0.24605 0.35105 0.0
C981 C 0.9683 0.24806 0.37074 0.0
C982 C 0.92227 0.21849 0.34524 0.0
C983 C 0.9157 0.19266 0.36033 0.0
C984 C 0.93694 0.19461 0.37962 0.0
H985 H 0.73163 0.04672 0.34467 0.0
H986 H 0.77864 0.09047 0.35852 0.0
C987 C 0.9636 0.22197 0.38408 0.0
C988 C 0.88739 0.16362 0.35501 0.0
H989 H 0.81386 0.13478 0.337 0.0
C990 C 0.88855 0.13677 0.35385 0.0
C991 C 0.85935 0.16218 0.3505 0.0
C992 C 0.85432 0.18846 0.35541 0.0
C993 C 0.86277 0.10888 0.34823 0.0
C994 C 0.83553 0.10805 0.34113 0.0
C995 C 0.83454 0.13497 0.34215 0.0
C996 C 0.80723 0.07974 0.33392 0.0
C997 C 0.86513 0.08079 0.35108 0.0
C998 C 0.8071 0.05823 0.31599 0.0
C999 C 0.78008 0.03201 0.30953 0.0
C1000 C 0.75269 0.02823 0.3191 0.0
C1001 C 0.75261 0.0497 0.33656 0.0
C1002 C 0.77956 0.07482 0.34433 0.0
H1003 H 0.88297 0.08423 0.36585 0.0
H1004 H 0.84358 0.06127 0.35797 0.0
H1005 H 0.87149 0.07535 0.33127 0.0
H1006 H 0.8277 0.06175 0.30666 0.0
H1007 H 0.78047 0.01526 0.29643 0.0
H1008 H 0.76346 0.77529 0.62478 0.0
H1009 H 0.76525 0.82336 0.63336 0.0
H1010 H 0.68731 0.77726 0.6855 0.0
H1011 H 0.68317 0.72936 0.67348 0.0
H1012 H 0.67908 0.81221 0.66164 0.0
H1013 H 0.79863 0.88024 0.6916 0.0
H1014 H 0.79584 0.86759 0.65737 0.0
H1015 H 0.78151 0.84055 0.68475 0.0
C1016 C 0.74657 0.77573 0.63765 0.0
C1017 C 0.72268 0.7489 0.64785 0.0
C1018 C 0.74794 0.80323 0.64312 0.0
C1019 C 0.72678 0.8044 0.66059 0.0
C1020 C 0.70374 0.77732 0.67165 0.0
H1021 H 0.75826 0.97701 0.72546 0.0
H1022 H 0.7584 0.9299 0.71701 0.0
C1023 C 0.70141 0.74989 0.66492 0.0
C1024 C 0.72728 0.83318 0.66671 0.0
H1025 H 0.77279 0.9073 0.68291 0.0
C1026 C 0.69964 0.83277 0.66689 0.0
C1027 C 0.75385 0.86025 0.6738 0.0
C1028 C 0.78401 0.86208 0.67717 0.0
C1029 C 0.69757 0.85793 0.67469 0.0
C1030 C 0.72436 0.88569 0.67967 0.0
C1031 C 0.75213 0.88632 0.67899 0.0
C1032 C 0.7241 0.91415 0.68553 0.0
C1033 C 0.66633 0.85349 0.67856 0.0
C1034 C 0.7054 0.92167 0.67064 0.0
C1035 C 0.70342 0.94701 0.67736 0.0
C1036 C 0.7217 0.96661 0.69778 0.0
C1037 C 0.74275 0.96115 0.71079 0.0
C1038 C 0.74321 0.93454 0.70544 0.0
H1039 H 0.65041 0.83027 0.68573 0.0
H1040 H 0.66603 0.86949 0.69347 0.0
H1041 H 0.65768 0.85635 0.65882 0.0
H1042 H 0.6921 0.90792 0.65381 0.0
H1043 H 0.68808 0.95173 0.6661 0.0
H1044 H 0.74491 0.68 0.0239 0.0
H1045 H 0.7947 0.68912 0.01089 0.0
H1046 H 0.83112 0.78469 0.02191 0.0
H1047 H 0.78109 0.77535 0.03608 0.0
H1048 H 0.82335 0.72541 0.96465 0.0
H1049 H 0.89495 0.76741 0.05727 0.0
H1050 H 0.85429 0.74728 0.05888 0.0
H1051 H 0.87405 0.78563 0.04761 0.0
C1052 C 0.76382 0.7028 0.02482 0.0
C1053 C 0.75956 0.7269 0.03195 0.0
C1054 C 0.79214 0.70804 0.01701 0.0
C1055 C 0.81657 0.73755 0.01557 0.0
C1056 C 0.81263 0.76172 0.02334 0.0
H1057 H 0.99484 0.77282 0.95925 0.0
H1058 H 0.95407 0.78389 0.96828 0.0
C1059 C 0.78417 0.75641 0.03138 0.0
C1060 C 0.84499 0.74265 1.00318 0.0
H1061 H 0.91724 0.76097 0.01792 0.0
C1062 C 0.84403 0.73359 0.97618 0.0
C1063 C 0.872 0.75381 0.01815 0.0
C1064 C 0.87409 0.764 0.04714 0.0
C1065 C 0.86888 0.73377 0.96421 0.0
C1066 C 0.89519 0.74292 0.97971 0.0
C1067 C 0.89692 0.75391 0.00613 0.0
C1068 C 0.91916 0.73704 0.9704 0.0
C1069 C 0.86652 0.7232 0.93535 0.0
C1070 C 0.91284 0.70714 0.96839 0.0
C1071 C 0.93594 0.70088 0.96362 0.0
C1072 C 0.96565 0.72438 0.95999 0.0
C1073 C 0.9719 0.75436 0.96118 0.0
C1074 C 0.94876 0.76067 0.96642 0.0
H1075 H 0.8487 0.72492 0.924 0.0
H1076 H 0.88834 0.73656 0.92464 0.0
H1077 H 0.86063 0.69921 0.93536 0.0
H1078 H 0.89026 0.6886 0.97207 0.0
H1079 H 0.93083 0.67767 0.96443 0.0
H1080 H 0.3583 0.06422 0.40141 0.0
H1081 H 0.36033 0.05789 0.45065 0.0
H1082 H 0.32022 0.96187 0.43975 0.0
H1083 H 0.31869 0.96798 0.39107 0.0
H1084 H 0.31168 0.0254 0.48383 0.0
H1085 H 0.38843 0.97882 0.49077 0.0
H1086 H 0.38537 0.99698 0.46056 0.0
H1087 H 0.35802 0.95823 0.46747 0.0
C1088 C 0.35049 0.04189 0.40953 0.0
C1089 C 0.33838 0.01665 0.39232 0.0
C1090 C 0.35158 0.03826 0.43763 0.0
C1091 C 0.34085 0.00942 0.44887 0.0
C1092 C 0.32934 0.98439 0.43159 0.0
H1093 H 0.28948 0.93394 0.61208 0.0
H1094 H 0.29699 0.94012 0.56263 0.0
C1095 C 0.32826 0.98796 0.40368 0.0
C1096 C 0.3392 0.00489 0.47869 0.0
H1097 H 0.35812 0.97247 0.52996 0.0
C1098 C 0.3221 0.01411 0.49393 0.0
C1099 C 0.35259 0.98989 0.49185 0.0
C1100 C 0.37237 0.98067 0.47685 0.0
C1101 C 0.31758 0.00827 0.52183 0.0
C1102 C 0.33063 0.99297 0.53487 0.0
C1103 C 0.34785 0.98385 0.51977 0.0
C1104 C 0.32809 0.98815 0.56455 0.0
C1105 C 0.29861 0.01822 0.53723 0.0
C1106 C 0.34376 0.01289 0.58179 0.0
C1107 C 0.33963 0.00944 0.60973 0.0
C1108 C 0.31969 0.98113 0.62112 0.0
C1109 C 0.30497 0.95599 0.60391 0.0
C1110 C 0.30919 0.9595 0.57573 0.0
H1111 H 0.28552 0.02456 0.52345 0.0
H1112 H 0.28273 6e-05 0.551 0.0
H1113 H 0.31351 0.03813 0.54985 0.0
H1114 H 0.35865 0.03509 0.57354 0.0
H1115 H 0.35155 0.02928 0.62237 0.0
H1116 H 0.36221 0.28135 0.9455 0.0
H1117 H 0.3644 0.28784 0.89593 0.0
H1118 H 0.33288 0.35133 0.90416 0.0
H1119 H 0.33124 0.34553 0.95303 0.0
H1120 H 0.31636 0.2747 0.86282 0.0
H1121 H 0.40135 0.39533 0.85167 0.0
H1122 H 0.39694 0.37481 0.88267 0.0
H1123 H 0.37251 0.3898 0.87537 0.0
C1124 C 0.35642 0.29716 0.93669 0.0
C1125 C 0.34659 0.31293 0.95319 0.0
C1126 C 0.35757 0.30078 0.90842 0.0
C1127 C 0.34926 0.32046 0.89634 0.0
C1128 C 0.34016 0.33664 0.91294 0.0
H1129 H 0.29578 0.35098 0.73812 0.0
H1130 H 0.30649 0.35041 0.78668 0.0
C1131 C 0.33899 0.33306 0.94098 0.0
C1132 C 0.34734 0.32236 0.86642 0.0
H1133 H 0.36745 0.37244 0.81399 0.0
C1134 C 0.32791 0.296 0.85208 0.0
C1135 C 0.36226 0.35021 0.85241 0.0
C1136 C 0.38466 0.37907 0.8663 0.0
C1137 C 0.32218 0.29689 0.82435 0.0
C1138 C 0.33641 0.32483 0.81059 0.0
C1139 C 0.3563 0.35111 0.82472 0.0
C1140 C 0.33138 0.32691 0.78129 0.0
C1141 C 0.3003 0.26806 0.81008 0.0
C1142 C 0.34242 0.31452 0.76231 0.0
C1143 C 0.3365 0.31493 0.73476 0.0
C1144 C 0.31936 0.32773 0.72557 0.0
C1145 C 0.309 0.34093 0.74456 0.0
C1146 C 0.31508 0.34061 0.77226 0.0
H1147 H 0.28695 0.24949 0.82458 0.0
H1148 H 0.28457 0.2716 0.79719 0.0
H1149 H 0.31299 0.2609 0.79669 0.0
H1150 H 0.35534 0.30417 0.76886 0.0
H1151 H 0.34497 0.30466 0.72072 0.0
H1152 H 0.066 0.34763 0.27629 0.0
H1153 H 0.05697 0.34683 0.22717 0.0
H1154 H 0.96942 0.33633 0.24281 0.0
H1155 H 0.97818 0.33711 0.2914 0.0
H1156 H 0.00671 0.29691 0.19973 0.0
H1157 H 0.00649 0.40428 0.18552 0.0
H1158 H 0.02369 0.39728 0.21449 0.0
H1159 H 0.98352 0.38142 0.21307 0.0
C1160 C 0.04515 0.34583 0.26918 0.0
C1161 C 0.02282 0.34244 0.28766 0.0
C1162 C 0.03994 0.3452 0.24118 0.0
C1163 C 0.01259 0.34173 0.23139 0.0
C1164 C 0.99082 0.33945 0.24988 0.0
H1165 H 0.92977 0.27493 0.07191 0.0
H1166 H 0.93752 0.2832 0.12117 0.0
C1167 C 0.99586 0.33978 0.27768 0.0
C1168 C 0.00556 0.33827 0.20199 0.0
H1169 H 0.98717 0.36911 0.14913 0.0
C1170 C 0.00258 0.31275 0.1886 0.0
C1171 C 9e-05 0.35894 0.18759 0.0
C1172 C 0.00384 0.38718 0.20078 0.0
C1173 C 0.99399 0.30718 0.16122 0.0
C1174 C 0.98793 0.32753 0.14696 0.0
C1175 C 0.99129 0.35326 0.16026 0.0
C1176 C 0.98091 0.32393 0.11756 0.0
C1177 C 0.99204 0.2799 0.14757 0.0
C1178 C 0.00206 0.3447 0.09938 0.0
C1179 C 0.9977 0.34004 0.07152 0.0
C1180 C 0.97191 0.31464 0.06119 0.0
C1181 C 0.94975 0.29474 0.07933 0.0
C1182 C 0.9543 0.2993 0.1074 0.0
H1183 H 0.00237 0.26936 0.16003 0.0
H1184 H 0.96801 0.26287 0.14413 0.0
H1185 H 0.00343 0.28607 0.12753 0.0
H1186 H 0.02264 0.36391 0.10676 0.0
H1187 H 0.01511 0.35587 0.05803 0.0
H1188 H 0.63191 0.99047 0.39158 0.0
H1189 H 0.63395 0.00049 0.44022 0.0
H1190 H 0.67639 0.947 0.4536 0.0
H1191 H 0.67266 0.93553 0.40493 0.0
H1192 H 0.64163 0.94062 0.49465 0.0
H1193 H 0.71062 0.0626 0.47366 0.0
H1194 H 0.67426 0.04687 0.45807 0.0
H1195 H 0.70007 0.03457 0.44747 0.0
C1196 C 0.64076 0.98008 0.40508 0.0
C1197 C 0.65198 0.96211 0.39467 0.0
C1198 C 0.64243 0.98625 0.4328 0.0
C1199 C 0.65646 0.97556 0.4505 0.0
C1200 C 0.66579 0.95584 0.44034 0.0
H1201 H 0.73194 0.05775 0.60785 0.0
H1202 H 0.72385 0.04552 0.5593 0.0
C1203 C 0.66343 0.94904 0.41259 0.0
C1204 C 0.66243 0.98593 0.47923 0.0
H1205 H 0.69284 0.04908 0.51903 0.0
C1206 C 0.65294 0.96434 0.49995 0.0
C1207 C 0.67801 0.01695 0.48627 0.0
C1208 C 0.69163 0.04156 0.46518 0.0
C1209 C 0.65788 0.9728 0.5274 0.0
C1210 C 0.67158 0.00375 0.53446 0.0
C1211 C 0.68176 0.02536 0.51373 0.0
C1212 C 0.67597 0.01405 0.56321 0.0
C1213 C 0.6491 0.94839 0.54842 0.0
C1214 C 0.65158 0.00183 0.58133 0.0
C1215 C 0.65631 0.00842 0.60896 0.0
C1216 C 0.6853 0.02828 0.6189 0.0
C1217 C 0.70931 0.04267 0.60057 0.0
C1218 C 0.7047 0.03547 0.5729 0.0
H1219 H 0.64857 0.92813 0.53969 0.0
H1220 H 0.66496 0.95639 0.56583 0.0
H1221 H 0.62613 0.94136 0.55601 0.0
H1222 H 0.62901 0.98623 0.57428 0.0
H1223 H 0.63744 0.99709 0.62276 0.0
H1224 H 0.64436 0.63644 0.955 0.0
H1225 H 0.64592 0.62748 0.90652 0.0
H1226 H 0.67806 0.72157 0.89057 0.0
H1227 H 0.67465 0.73008 0.93913 0.0
H1228 H 0.64334 0.68984 0.85123 0.0
H1229 H 0.72255 0.64819 0.86981 0.0
H1230 H 0.68748 0.62518 0.88685 0.0
H1231 H 0.71077 0.6642 0.89635 0.0
C1232 C 0.651 0.65501 0.94101 0.0
C1233 C 0.65934 0.68392 0.95067 0.0
C1234 C 0.65238 0.65 0.91336 0.0
C1235 C 0.66331 0.67406 0.89492 0.0
C1236 C 0.66991 0.70266 0.90439 0.0
H1237 H 0.73541 0.67024 0.73525 0.0
H1238 H 0.72853 0.67434 0.78402 0.0
C1239 C 0.66775 0.70752 0.93209 0.0
C1240 C 0.66857 0.66951 0.86601 0.0
H1241 H 0.70165 0.64023 0.82528 0.0
C1242 C 0.65622 0.67913 0.84559 0.0
C1243 C 0.68612 0.65628 0.85846 0.0
C1244 C 0.70277 0.64822 0.87903 0.0
C1245 C 0.66032 0.67533 0.818 0.0
C1246 C 0.67606 0.66017 0.81051 0.0
C1247 C 0.68901 0.6512 0.83091 0.0
C1248 C 0.67996 0.65419 0.78164 0.0
C1249 C 0.64848 0.68851 0.79727 0.0
C1250 C 0.65495 0.63998 0.76428 0.0
C1251 C 0.65896 0.63816 0.73648 0.0
C1252 C 0.68796 0.64934 0.72566 0.0
C1253 C 0.7128 0.66103 0.74323 0.0
C1254 C 0.70885 0.6636 0.77104 0.0
H1255 H 0.64636 0.7074 0.80593 0.0
H1256 H 0.66339 0.69699 0.77924 0.0
H1257 H 0.62569 0.67089 0.79064 0.0
H1258 H 0.63234 0.6314 0.77203 0.0
H1259 H 0.63948 0.62912 0.72325 0.0
H1260 H 0.02126 0.67858 0.27919 0.0
H1261 H 0.02608 0.67694 0.23036 0.0
H1262 H 0.92979 0.63679 0.22162 0.0
H1263 H 0.92479 0.63917 0.27103 0.0
H1264 H 0.00459 0.63252 0.19322 0.0
H1265 H 0.96064 0.71033 0.17332 0.0
H1266 H 0.96978 0.70366 0.20697 0.0
H1267 H 0.93504 0.67654 0.19116 0.0
C1268 C 0.00096 0.6692 0.26701 0.0
C1269 C 0.97261 0.65931 0.27902 0.0
C1270 C 0.00381 0.66822 0.23901 0.0
C1271 C 0.97843 0.65731 0.22223 0.0
C1272 C 0.9498 0.64598 0.23415 0.0
H1273 H 0.96277 0.651 0.04761 0.0
H1274 H 0.95457 0.64297 0.09619 0.0
C1275 C 0.94691 0.64709 0.26237 0.0
C1276 C 0.9826 0.65902 0.19233 0.0
H1277 H 0.97383 0.69156 0.13521 0.0
C1278 C 0.99779 0.64537 0.18053 0.0
C1279 C 0.97405 0.6761 0.17581 0.0
C1280 C 0.95923 0.69275 0.18741 0.0
C1281 C 0.00447 0.64818 0.15269 0.0
C1282 C 0.99588 0.6652 0.13627 0.0
C1283 C 0.98044 0.67858 0.14794 0.0
C1284 C 0.00178 0.66871 0.1067 0.0
C1285 C 0.02037 0.63271 0.14092 0.0
C1286 C 0.03122 0.68576 0.09643 0.0
C1287 C 0.03609 0.69056 0.06842 0.0
C1288 C 0.01156 0.67837 0.05038 0.0
C1289 C 0.98224 0.66078 0.06086 0.0
C1290 C 0.97743 0.65614 0.08868 0.0
H1291 H 0.02078 0.61621 0.15526 0.0
H1292 H 0.00927 0.62085 0.12183 0.0
H1293 H 0.04399 0.64986 0.13601 0.0
H1294 H 0.05031 0.69595 0.1101 0.0
H1295 H 0.0589 0.70429 0.06098 0.0
loop_
_geom_bond_atom_site_label_1
_geom_bond_atom_site_label_2
_geom_bond_distance
_geom_bond_site_symmetry_2
_ccdc_geom_bond_type
Mn0 O5 2.095 . S
Mn0 O15 2.162 . S
Mn0 O16 2.282 1_545 S
Mn0 O24 2.385 1_545 S
Mn0 O25 2.209 1_545 S
Mn0 O26 2.094 . S
Mn1 O6 2.121 . S
Mn1 N8 2.257 . S
Mn1 N17 2.282 . S
Mn1 O25 2.215 . S
Mn1 O27 2.117 1_565 S
C2 O24 1.234 . S
C2 O25 1.283 . S
C3 O15 1.281 . S
C3 O16 1.209 1_545 S
C4 O26 1.240 . S
C4 O27 1.264 . S
O5 Mn0 2.095 . S
O5 C14 1.250 . S
O6 Mn1 2.121 . S
O6 C14 1.258 1_565 S
C7 N8 1.326 . S
C7 C11 1.460 . S
C7 H13 0.929 . S
N8 Mn1 2.257 . S
N8 C7 1.326 . S
N8 C12 1.362 . S
C9 C10 1.258 . S
C9 C12 1.431 . S
C9 C29 1.449 . S
C10 C9 1.258 . S
C10 C11 1.477 . S
C10 H30 0.931 . S
C11 C7 1.460 . S
C11 C10 1.477 . S
C11 H31 0.930 . S
C12 N8 1.362 . S
C12 C9 1.431 . S
C12 C22 1.476 . S
H13 C7 0.929 . S
C14 O5 1.250 . S
C14 O6 1.258 1_545 S
O15 Mn0 2.162 . S
O15 C3 1.281 . S
O16 Mn0 2.282 1_565 S
O16 C3 1.209 1_565 S
N17 Mn1 2.282 . S
N17 C18 1.328 . S
N17 C22 1.318 . S
C18 N17 1.328 . S
C18 C19 1.457 . S
C18 H23 0.929 . S
C19 C18 1.457 . S
C19 C20 1.291 . S
C19 H32 0.931 . S
C20 C19 1.291 . S
C20 C21 1.373 . S
C20 H33 0.929 . S
C21 C20 1.373 . S
C21 C22 1.396 . S
C21 C28 1.403 . S
C22 C12 1.476 . S
C22 N17 1.318 . S
C22 C21 1.396 . S
H23 C18 0.929 . S
O24 Mn0 2.385 1_565 S
O24 C2 1.234 . S
O25 Mn0 2.209 1_565 S
O25 Mn1 2.215 . S
O25 C2 1.283 . S
O26 Mn0 2.094 . S
O26 C4 1.240 . S
O27 Mn1 2.117 1_545 S
O27 C4 1.264 . S
C28 C21 1.403 . S
C28 C29 1.399 . S
C28 H34 0.929 . S
C29 C9 1.449 . S
C29 C28 1.399 . S
C29 H35 0.930 . S
H30 C10 0.931 . S
H31 C11 0.930 . S
H32 C19 0.931 . S
H33 C20 0.929 . S
H34 C28 0.929 . S
H35 C29 0.930 . S
Mn36 O41 2.095 . S
Mn36 O51 2.162 . S
Mn36 O52 2.297 . S
Mn36 O60 2.385 . S
Mn36 O61 2.209 . S
Mn36 O62 2.094 . S
Mn37 O42 2.121 . S
Mn37 N44 2.257 . S
Mn37 N53 2.282 . S
Mn37 O61 2.215 . S
Mn37 O63 2.117 . S
C38 O60 1.234 . S
C38 O61 1.283 . S
C39 O51 1.281 . S
C39 O52 1.236 . S
C40 O62 1.240 . S
C40 O63 1.264 . S
O41 Mn36 2.095 . S
O41 C50 1.250 . S
O42 Mn37 2.121 . S
O42 C50 1.258 . S
C43 N44 1.326 . S
C43 C47 1.460 . S
C43 H49 0.929 . S
N44 Mn37 2.257 . S
N44 C43 1.326 . S
N44 C48 1.362 . S
C45 C46 1.258 . S
C45 C48 1.431 . S
C45 C65 1.449 . S
C46 C45 1.258 . S
C46 C47 1.477 . S
C46 H66 0.931 . S
C47 C43 1.460 . S
C47 C46 1.477 . S
C47 H67 0.930 . S
C48 N44 1.362 . S
C48 C45 1.431 . S
C48 C58 1.476 . S
H49 C43 0.929 . S
C50 O41 1.250 . S
C50 O42 1.258 . S
O51 Mn36 2.162 . S
O51 C39 1.281 . S
O52 Mn36 2.297 . S
O52 C39 1.236 . S
N53 Mn37 2.282 . S
N53 C54 1.328 . S
N53 C58 1.318 . S
C54 N53 1.328 . S
C54 C55 1.457 . S
C54 H59 0.929 . S
C55 C54 1.457 . S
C55 C56 1.291 . S
C55 H68 0.931 . S
C56 C55 1.291 . S
C56 C57 1.373 . S
C56 H69 0.929 . S
C57 C56 1.373 . S
C57 C58 1.396 . S
C57 C64 1.403 . S
C58 C48 1.476 . S
C58 N53 1.318 . S
C58 C57 1.396 . S
H59 C54 0.929 . S
O60 Mn36 2.385 . S
O60 C38 1.234 . S
O61 Mn36 2.209 . S
O61 Mn37 2.215 . S
O61 C38 1.283 . S
O62 Mn36 2.094 . S
O62 C40 1.240 . S
O63 Mn37 2.117 . S
O63 C40 1.264 . S
C64 C57 1.403 . S
C64 C65 1.399 . S
C64 H70 0.929 . S
C65 C45 1.449 . S
C65 C64 1.399 . S
C65 H71 0.930 . S
H66 C46 0.931 . S
H67 C47 0.930 . S
H68 C55 0.931 . S
H69 C56 0.929 . S
H70 C64 0.929 . S
H71 C65 0.930 . S
Mn72 O77 2.095 . S
Mn72 O87 2.162 1_556 S
Mn72 O88 2.289 1_656 S
Mn72 O96 2.385 1_655 S
Mn72 O97 2.209 1_655 S
Mn72 O98 2.094 . S
Mn73 O78 2.121 . S
Mn73 N80 2.257 . S
Mn73 N89 2.282 . S
Mn73 O97 2.215 . S
Mn73 O99 2.117 1_455 S
C74 O96 1.234 . S
C74 O97 1.283 . S
C75 O87 1.281 . S
C75 O88 1.220 1_655 S
C76 O98 1.240 . S
C76 O99 1.264 . S
O77 Mn72 2.095 . S
O77 C86 1.250 . S
O78 Mn73 2.121 . S
O78 C86 1.258 1_455 S
C79 N80 1.326 . S
C79 C83 1.460 . S
C79 H85 0.929 . S
N80 Mn73 2.257 . S
N80 C79 1.326 . S
N80 C84 1.362 . S
C81 C82 1.258 . S
C81 C84 1.431 . S
C81 C101 1.449 . S
C82 C81 1.258 . S
C82 C83 1.477 . S
C82 H102 0.931 . S
C83 C79 1.460 . S
C83 C82 1.477 . S
C83 H103 0.930 . S
C84 N80 1.362 . S
C84 C81 1.431 . S
C84 C94 1.476 . S
H85 C79 0.929 . S
C86 O77 1.250 . S
C86 O78 1.258 1_655 S
O87 Mn72 2.162 1_554 S
O87 C75 1.281 . S
O88 Mn72 2.289 1_454 S
O88 C75 1.220 1_455 S
N89 Mn73 2.282 . S
N89 C90 1.328 . S
N89 C94 1.318 . S
C90 N89 1.328 . S
C90 C91 1.457 . S
C90 H95 0.929 . S
C91 C90 1.457 . S
C91 C92 1.291 . S
C91 H104 0.931 . S
C92 C91 1.291 . S
C92 C93 1.373 . S
C92 H105 0.929 . S
C93 C92 1.373 . S
C93 C94 1.396 . S
C93 C100 1.403 . S
C94 C84 1.476 . S
C94 N89 1.318 . S
C94 C93 1.396 . S
H95 C90 0.929 . S
O96 Mn72 2.385 1_455 S
O96 C74 1.234 . S
O97 Mn72 2.209 1_455 S
O97 Mn73 2.215 . S
O97 C74 1.283 . S
O98 Mn72 2.094 . S
O98 C76 1.240 . S
O99 Mn73 2.117 1_655 S
O99 C76 1.264 . S
C100 C93 1.403 . S
C100 C101 1.399 . S
C100 H106 0.929 . S
C101 C81 1.449 . S
C101 C100 1.399 . S
C101 H107 0.930 . S
H102 C82 0.931 . S
H103 C83 0.930 . S
H104 C91 0.931 . S
H105 C92 0.929 . S
H106 C100 0.929 . S
H107 C101 0.930 . S
Mn108 O113 2.095 . S
Mn108 O123 2.162 . S
Mn108 O124 2.282 1_565 S
Mn108 O132 2.385 1_565 S
Mn108 O133 2.209 1_565 S
Mn108 O134 2.094 . S
Mn109 O114 2.121 . S
Mn109 N116 2.257 . S
Mn109 N125 2.282 . S
Mn109 O133 2.215 . S
Mn109 O135 2.117 1_545 S
C110 O132 1.234 . S
C110 O133 1.283 . S
C111 O123 1.281 . S
C111 O124 1.209 1_565 S
C112 O134 1.240 . S
C112 O135 1.264 . S
O113 Mn108 2.095 . S
O113 C122 1.250 . S
O114 Mn109 2.121 . S
O114 C122 1.258 1_545 S
C115 N116 1.326 . S
C115 C119 1.460 . S
C115 H121 0.929 . S
N116 Mn109 2.257 . S
N116 C115 1.326 . S
N116 C120 1.362 . S
C117 C118 1.258 . S
C117 C120 1.431 . S
C117 C137 1.449 . S
C118 C117 1.258 . S
C118 C119 1.477 . S
C118 H138 0.931 . S
C119 C115 1.460 . S
C119 C118 1.477 . S
C119 H139 0.930 . S
C120 N116 1.362 . S
C120 C117 1.431 . S
C120 C130 1.476 . S
H121 C115 0.929 . S
C122 O113 1.250 . S
C122 O114 1.258 1_565 S
O123 Mn108 2.162 . S
O123 C111 1.281 . S
O124 Mn108 2.282 1_545 S
O124 C111 1.209 1_545 S
N125 Mn109 2.282 . S
N125 C126 1.328 . S
N125 C130 1.318 . S
C126 N125 1.328 . S
C126 C127 1.457 . S
C126 H131 0.929 . S
C127 C126 1.457 . S
C127 C128 1.291 . S
C127 H140 0.931 . S
C128 C127 1.291 . S
C128 C129 1.373 . S
C128 H141 0.929 . S
C129 C128 1.373 . S
C129 C130 1.396 . S
C129 C136 1.403 . S
C130 C120 1.476 . S
C130 N125 1.318 . S
C130 C129 1.396 . S
H131 C126 0.929 . S
O132 Mn108 2.385 1_545 S
O132 C110 1.234 . S
O133 Mn108 2.209 1_545 S
O133 Mn109 2.215 . S
O133 C110 1.283 . S
O134 Mn108 2.094 . S
O134 C112 1.240 . S
O135 Mn109 2.117 1_565 S
O135 C112 1.264 . S
C136 C129 1.403 . S
C136 C137 1.399 . S
C136 H142 0.929 . S
C137 C117 1.449 . S
C137 C136 1.399 . S
C137 H143 0.930 . S
H138 C118 0.931 . S
H139 C119 0.930 . S
H140 C127 0.931 . S
H141 C128 0.929 . S
H142 C136 0.929 . S
H143 C137 0.930 . S
Mn144 O149 2.095 . S
Mn144 O159 2.162 . S
Mn144 O160 2.297 . S
Mn144 O168 2.385 . S
Mn144 O169 2.209 . S
Mn144 O170 2.094 . S
Mn145 O150 2.121 . S
Mn145 N152 2.257 . S
Mn145 N161 2.282 . S
Mn145 O169 2.215 . S
Mn145 O171 2.117 . S
C146 O168 1.234 . S
C146 O169 1.283 . S
C147 O159 1.281 . S
C147 O160 1.236 . S
C148 O170 1.240 . S
C148 O171 1.264 . S
O149 Mn144 2.095 . S
O149 C158 1.250 . S
O150 Mn145 2.121 . S
O150 C158 1.258 . S
C151 N152 1.326 . S
C151 C155 1.460 . S
C151 H157 0.929 . S
N152 Mn145 2.257 . S
N152 C151 1.326 . S
N152 C156 1.362 . S
C153 C154 1.258 . S
C153 C156 1.431 . S
C153 C173 1.449 . S
C154 C153 1.258 . S
C154 C155 1.477 . S
C154 H174 0.931 . S
C155 C151 1.460 . S
C155 C154 1.477 . S
C155 H175 0.930 . S
C156 N152 1.362 . S
C156 C153 1.431 . S
C156 C166 1.476 . S
H157 C151 0.929 . S
C158 O149 1.250 . S
C158 O150 1.258 . S
O159 Mn144 2.162 . S
O159 C147 1.281 . S
O160 Mn144 2.297 . S
O160 C147 1.236 . S
N161 Mn145 2.282 . S
N161 C162 1.328 . S
N161 C166 1.318 . S
C162 N161 1.328 . S
C162 C163 1.457 . S
C162 H167 0.929 . S
C163 C162 1.457 . S
C163 C164 1.291 . S
C163 H176 0.931 . S
C164 C163 1.291 . S
C164 C165 1.373 . S
C164 H177 0.929 . S
C165 C164 1.373 . S
C165 C166 1.396 . S
C165 C172 1.403 . S
C166 C156 1.476 . S
C166 N161 1.318 . S
C166 C165 1.396 . S
H167 C162 0.929 . S
O168 Mn144 2.385 . S
O168 C146 1.234 . S
O169 Mn144 2.209 . S
O169 Mn145 2.215 . S
O169 C146 1.283 . S
O170 Mn144 2.094 . S
O170 C148 1.240 . S
O171 Mn145 2.117 . S
O171 C148 1.264 . S
C172 C165 1.403 . S
C172 C173 1.399 . S
C172 H178 0.929 . S
C173 C153 1.449 . S
C173 C172 1.399 . S
C173 H179 0.930 . S
H174 C154 0.931 . S
H175 C155 0.930 . S
H176 C163 0.931 . S
H177 C164 0.929 . S
H178 C172 0.929 . S
H179 C173 0.930 . S
Mn180 O185 2.095 . S
Mn180 O195 2.162 1_556 S
Mn180 O196 2.289 1_456 S
Mn180 O204 2.385 1_455 S
Mn180 O205 2.209 1_455 S
Mn180 O206 2.094 . S
Mn181 O186 2.121 . S
Mn181 N188 2.257 . S
Mn181 N197 2.282 . S
Mn181 O205 2.215 . S
Mn181 O207 2.117 1_655 S
C182 O204 1.234 . S
C182 O205 1.283 . S
C183 O195 1.281 . S
C183 O196 1.220 1_455 S
C184 O206 1.240 . S
C184 O207 1.264 . S
O185 Mn180 2.095 . S
O185 C194 1.250 . S
O186 Mn181 2.121 . S
O186 C194 1.258 1_655 S
C187 N188 1.326 . S
C187 C191 1.460 . S
C187 H193 0.929 . S
N188 Mn181 2.257 . S
N188 C187 1.326 . S
N188 C192 1.362 . S
C189 C190 1.258 . S
C189 C192 1.431 . S
C189 C209 1.449 . S
C190 C189 1.258 . S
C190 C191 1.477 . S
C190 H210 0.931 . S
C191 C187 1.460 . S
C191 C190 1.477 . S
C191 H211 0.930 . S
C192 N188 1.362 . S
C192 C189 1.431 . S
C192 C202 1.476 . S
H193 C187 0.929 . S
C194 O185 1.250 . S
C194 O186 1.258 1_455 S
O195 Mn180 2.162 1_554 S
O195 C183 1.281 . S
O196 Mn180 2.289 1_654 S
O196 C183 1.220 1_655 S
N197 Mn181 2.282 . S
N197 C198 1.328 . S
N197 C202 1.318 . S
C198 N197 1.328 . S
C198 C199 1.457 . S
C198 H203 0.929 . S
C199 C198 1.457 . S
C199 C200 1.291 . S
C199 H212 0.931 . S
C200 C199 1.291 . S
C200 C201 1.373 . S
C200 H213 0.929 . S
C201 C200 1.373 . S
C201 C202 1.396 . S
C201 C208 1.403 . S
C202 C192 1.476 . S
C202 N197 1.318 . S
C202 C201 1.396 . S
H203 C198 0.929 . S
O204 Mn180 2.385 1_655 S
O204 C182 1.234 . S
O205 Mn180 2.209 1_655 S
O205 Mn181 2.215 . S
O205 C182 1.283 . S
O206 Mn180 2.094 . S
O206 C184 1.240 . S
O207 Mn181 2.117 1_455 S
O207 C184 1.264 . S
C208 C201 1.403 . S
C208 C209 1.399 . S
C208 H214 0.929 . S
C209 C189 1.449 . S
C209 C208 1.399 . S
C209 H215 0.930 . S
H210 C190 0.931 . S
H211 C191 0.930 . S
H212 C199 0.931 . S
H213 C200 0.929 . S
H214 C208 0.929 . S
H215 C209 0.930 . S
Mn216 O221 2.095 . S
Mn216 O231 2.162 . S
Mn216 O232 2.282 1_655 S
Mn216 O240 2.385 1_655 S
Mn216 O241 2.209 1_655 S
Mn216 O242 2.094 . S
Mn217 O222 2.121 . S
Mn217 N224 2.257 . S
Mn217 N233 2.282 . S
Mn217 O241 2.215 . S
Mn217 O243 2.117 1_455 S
C218 O240 1.234 . S
C218 O241 1.283 . S
C219 O231 1.281 . S
C219 O232 1.209 1_655 S
C220 O242 1.240 . S
C220 O243 1.264 . S
O221 Mn216 2.095 . S
O221 C230 1.250 . S
O222 Mn217 2.121 . S
O222 C230 1.258 1_455 S
C223 N224 1.326 . S
C223 C227 1.460 . S
C223 H229 0.929 . S
N224 Mn217 2.257 . S
N224 C223 1.326 . S
N224 C228 1.362 . S
C225 C226 1.258 . S
C225 C228 1.431 . S
C225 C245 1.449 . S
C226 C225 1.258 . S
C226 C227 1.477 . S
C226 H246 0.931 . S
C227 C223 1.460 . S
C227 C226 1.477 . S
C227 H247 0.930 . S
C228 N224 1.362 . S
C228 C225 1.431 . S
C228 C238 1.476 . S
H229 C223 0.929 . S
C230 O221 1.250 . S
C230 O222 1.258 1_655 S
O231 Mn216 2.162 . S
O231 C219 1.281 . S
O232 Mn216 2.282 1_455 S
O232 C219 1.209 1_455 S
N233 Mn217 2.282 . S
N233 C234 1.328 . S
N233 C238 1.318 . S
C234 N233 1.328 . S
C234 C235 1.457 . S
C234 H239 0.929 . S
C235 C234 1.457 . S
C235 C236 1.291 . S
C235 H248 0.931 . S
C236 C235 1.291 . S
C236 C237 1.373 . S
C236 H249 0.929 . S
C237 C236 1.373 . S
C237 C238 1.396 . S
C237 C244 1.403 . S
C238 C228 1.476 . S
C238 N233 1.318 . S
C238 C237 1.396 . S
H239 C234 0.929 . S
O240 Mn216 2.385 1_455 S
O240 C218 1.234 . S
O241 Mn216 2.209 1_455 S
O241 Mn217 2.215 . S
O241 C218 1.283 . S
O242 Mn216 2.094 . S
O242 C220 1.240 . S
O243 Mn217 2.117 1_655 S
O243 C220 1.264 . S
C244 C237 1.403 . S
C244 C245 1.399 . S
C244 H250 0.929 . S
C245 C225 1.449 . S
C245 C244 1.399 . S
C245 H251 0.930 . S
H246 C226 0.931 . S
H247 C227 0.930 . S
H248 C235 0.931 . S
H249 C236 0.929 . S
H250 C244 0.929 . S
H251 C245 0.930 . S
Mn252 O257 2.095 . S
Mn252 O267 2.162 . S
Mn252 O268 2.289 1_565 S
Mn252 O276 2.385 1_565 S
Mn252 O277 2.209 1_565 S
Mn252 O278 2.094 . S
Mn253 O258 2.121 . S
Mn253 N260 2.257 . S
Mn253 N269 2.282 . S
Mn253 O277 2.215 . S
Mn253 O279 2.117 1_545 S
C254 O276 1.234 . S
C254 O277 1.283 . S
C255 O267 1.281 . S
C255 O268 1.220 1_565 S
C256 O278 1.240 . S
C256 O279 1.264 . S
O257 Mn252 2.095 . S
O257 C266 1.250 . S
O258 Mn253 2.121 . S
O258 C266 1.258 1_545 S
C259 N260 1.326 . S
C259 C263 1.460 . S
C259 H265 0.929 . S
N260 Mn253 2.257 . S
N260 C259 1.326 . S
N260 C264 1.362 . S
C261 C262 1.258 . S
C261 C264 1.431 . S
C261 C281 1.449 . S
C262 C261 1.258 . S
C262 C263 1.477 . S
C262 H282 0.931 . S
C263 C259 1.460 . S
C263 C262 1.477 . S
C263 H283 0.930 . S
C264 N260 1.362 . S
C264 C261 1.431 . S
C264 C274 1.476 . S
H265 C259 0.929 . S
C266 O257 1.250 . S
C266 O258 1.258 1_565 S
O267 Mn252 2.162 . S
O267 C255 1.281 . S
O268 Mn252 2.289 1_545 S
O268 C255 1.220 1_545 S
N269 Mn253 2.282 . S
N269 C270 1.328 . S
N269 C274 1.318 . S
C270 N269 1.328 . S
C270 C271 1.457 . S
C270 H275 0.929 . S
C271 C270 1.457 . S
C271 C272 1.291 . S
C271 H284 0.931 . S
C272 C271 1.291 . S
C272 C273 1.373 . S
C272 H285 0.929 . S
C273 C272 1.373 . S
C273 C274 1.396 . S
C273 C280 1.403 . S
C274 C264 1.476 . S
C274 N269 1.318 . S
C274 C273 1.396 . S
H275 C270 0.929 . S
O276 Mn252 2.385 1_545 S
O276 C254 1.234 . S
O277 Mn252 2.209 1_545 S
O277 Mn253 2.215 . S
O277 C254 1.283 . S
O278 Mn252 2.094 . S
O278 C256 1.240 . S
O279 Mn253 2.117 1_565 S
O279 C256 1.264 . S
C280 C273 1.403 . S
C280 C281 1.399 . S
C280 H286 0.929 . S
C281 C261 1.449 . S
C281 C280 1.399 . S
C281 H287 0.930 . S
H282 C262 0.931 . S
H283 C263 0.930 . S
H284 C271 0.931 . S
H285 C272 0.929 . S
H286 C280 0.929 . S
H287 C281 0.930 . S
Mn288 O293 2.095 . S
Mn288 O303 2.162 1_554 S
Mn288 O304 2.297 1_554 S
Mn288 O312 2.385 . S
Mn288 O313 2.209 . S
Mn288 O314 2.094 . S
Mn289 O294 2.121 . S
Mn289 N296 2.257 . S
Mn289 N305 2.282 . S
Mn289 O313 2.215 . S
Mn289 O315 2.117 . S
C290 O312 1.234 . S
C290 O313 1.283 . S
C291 O303 1.281 . S
C291 O304 1.236 . S
C292 O314 1.240 . S
C292 O315 1.264 . S
O293 Mn288 2.095 . S
O293 C302 1.250 . S
O294 Mn289 2.121 . S
O294 C302 1.258 . S
C295 N296 1.326 . S
C295 C299 1.460 . S
C295 H301 0.929 . S
N296 Mn289 2.257 . S
N296 C295 1.326 . S
N296 C300 1.362 . S
C297 C298 1.258 . S
C297 C300 1.431 . S
C297 C317 1.449 . S
C298 C297 1.258 . S
C298 C299 1.477 . S
C298 H318 0.931 . S
C299 C295 1.460 . S
C299 C298 1.477 . S
C299 H319 0.930 . S
C300 N296 1.362 . S
C300 C297 1.431 . S
C300 C310 1.476 . S
H301 C295 0.929 . S
C302 O293 1.250 . S
C302 O294 1.258 . S
O303 Mn288 2.162 1_556 S
O303 C291 1.281 . S
O304 Mn288 2.297 1_556 S
O304 C291 1.236 . S
N305 Mn289 2.282 . S
N305 C306 1.328 . S
N305 C310 1.318 . S
C306 N305 1.328 . S
C306 C307 1.457 . S
C306 H311 0.929 . S
C307 C306 1.457 . S
C307 C308 1.291 . S
C307 H320 0.931 . S
C308 C307 1.291 . S
C308 C309 1.373 . S
C308 H321 0.929 . S
C309 C308 1.373 . S
C309 C310 1.396 . S
C309 C316 1.403 . S
C310 C300 1.476 . S
C310 N305 1.318 . S
C310 C309 1.396 . S
H311 C306 0.929 . S
O312 Mn288 2.385 . S
O312 C290 1.234 . S
O313 Mn288 2.209 . S
O313 Mn289 2.215 . S
O313 C290 1.283 . S
O314 Mn288 2.094 . S
O314 C292 1.240 . S
O315 Mn289 2.117 . S
O315 C292 1.264 . S
C316 C309 1.403 . S
C316 C317 1.399 . S
C316 H322 0.929 . S
C317 C297 1.449 . S
C317 C316 1.399 . S
C317 H323 0.930 . S
H318 C298 0.931 . S
H319 C299 0.930 . S
H320 C307 0.931 . S
H321 C308 0.929 . S
H322 C316 0.929 . S
H323 C317 0.930 . S
Mn324 O329 2.095 . S
Mn324 O339 2.162 . S
Mn324 O340 2.282 1_455 S
Mn324 O348 2.385 1_455 S
Mn324 O349 2.209 1_455 S
Mn324 O350 2.094 . S
Mn325 O330 2.121 . S
Mn325 N332 2.257 . S
Mn325 N341 2.282 . S
Mn325 O349 2.215 . S
Mn325 O351 2.117 1_655 S
C326 O348 1.234 . S
C326 O349 1.283 . S
C327 O339 1.281 . S
C327 O340 1.209 1_455 S
C328 O350 1.240 . S
C328 O351 1.264 . S
O329 Mn324 2.095 . S
O329 C338 1.250 . S
O330 Mn325 2.121 . S
O330 C338 1.258 1_655 S
C331 N332 1.326 . S
C331 C335 1.460 . S
C331 H337 0.929 . S
N332 Mn325 2.257 . S
N332 C331 1.326 . S
N332 C336 1.362 . S
C333 C334 1.258 . S
C333 C336 1.431 . S
C333 C353 1.449 . S
C334 C333 1.258 . S
C334 C335 1.477 . S
C334 H354 0.931 . S
C335 C331 1.460 . S
C335 C334 1.477 . S
C335 H355 0.930 . S
C336 N332 1.362 . S
C336 C333 1.431 . S
C336 C346 1.476 . S
H337 C331 0.929 . S
C338 O329 1.250 . S
C338 O330 1.258 1_455 S
O339 Mn324 2.162 . S
O339 C327 1.281 . S
O340 Mn324 2.282 1_655 S
O340 C327 1.209 1_655 S
N341 Mn325 2.282 . S
N341 C342 1.328 . S
N341 C346 1.318 . S
C342 N341 1.328 . S
C342 C343 1.457 . S
C342 H347 0.929 . S
C343 C342 1.457 . S
C343 C344 1.291 . S
C343 H356 0.931 . S
C344 C343 1.291 . S
C344 C345 1.373 . S
C344 H357 0.929 . S
C345 C344 1.373 . S
C345 C346 1.396 . S
C345 C352 1.403 . S
C346 C336 1.476 . S
C346 N341 1.318 . S
C346 C345 1.396 . S
H347 C342 0.929 . S
O348 Mn324 2.385 1_655 S
O348 C326 1.234 . S
O349 Mn324 2.209 1_655 S
O349 Mn325 2.215 . S
O349 C326 1.283 . S
O350 Mn324 2.094 . S
O350 C328 1.240 . S
O351 Mn325 2.117 1_455 S
O351 C328 1.264 . S
C352 C345 1.403 . S
C352 C353 1.399 . S
C352 H358 0.929 . S
C353 C333 1.449 . S
C353 C352 1.399 . S
C353 H359 0.930 . S
H354 C334 0.931 . S
H355 C335 0.930 . S
H356 C343 0.931 . S
H357 C344 0.929 . S
H358 C352 0.929 . S
H359 C353 0.930 . S
Mn360 O365 2.095 . S
Mn360 O375 2.162 . S
Mn360 O376 2.289 1_545 S
Mn360 O384 2.385 1_545 S
Mn360 O385 2.209 1_545 S
Mn360 O386 2.094 . S
Mn361 O366 2.121 . S
Mn361 N368 2.257 . S
Mn361 N377 2.282 . S
Mn361 O385 2.215 . S
Mn361 O387 2.117 1_565 S
C362 O384 1.234 . S
C362 O385 1.283 . S
C363 O375 1.281 . S
C363 O376 1.220 1_545 S
C364 O386 1.240 . S
C364 O387 1.264 . S
O365 Mn360 2.095 . S
O365 C374 1.250 . S
O366 Mn361 2.121 . S
O366 C374 1.258 1_565 S
C367 N368 1.326 . S
C367 C371 1.460 . S
C367 H373 0.929 . S
N368 Mn361 2.257 . S
N368 C367 1.326 . S
N368 C372 1.362 . S
C369 C370 1.258 . S
C369 C372 1.431 . S
C369 C389 1.449 . S
C370 C369 1.258 . S
C370 C371 1.477 . S
C370 H390 0.931 . S
C371 C367 1.460 . S
C371 C370 1.477 . S
C371 H391 0.930 . S
C372 N368 1.362 . S
C372 C369 1.431 . S
C372 C382 1.476 . S
H373 C367 0.929 . S
C374 O365 1.250 . S
C374 O366 1.258 1_545 S
O375 Mn360 2.162 . S
O375 C363 1.281 . S
O376 Mn360 2.289 1_565 S
O376 C363 1.220 1_565 S
N377 Mn361 2.282 . S
N377 C378 1.328 . S
N377 C382 1.318 . S
C378 N377 1.328 . S
C378 C379 1.457 . S
C378 H383 0.929 . S
C379 C378 1.457 . S
C379 C380 1.291 . S
C379 H392 0.931 . S
C380 C379 1.291 . S
C380 C381 1.373 . S
C380 H393 0.929 . S
C381 C380 1.373 . S
C381 C382 1.396 . S
C381 C388 1.403 . S
C382 C372 1.476 . S
C382 N377 1.318 . S
C382 C381 1.396 . S
H383 C378 0.929 . S
O384 Mn360 2.385 1_565 S
O384 C362 1.234 . S
O385 Mn360 2.209 1_565 S
O385 Mn361 2.215 . S
O385 C362 1.283 . S
O386 Mn360 2.094 . S
O386 C364 1.240 . S
O387 Mn361 2.117 1_545 S
O387 C364 1.264 . S
C388 C381 1.403 . S
C388 C389 1.399 . S
C388 H394 0.929 . S
C389 C369 1.449 . S
C389 C388 1.399 . S
C389 H395 0.930 . S
H390 C370 0.931 . S
H391 C371 0.930 . S
H392 C379 0.931 . S
H393 C380 0.929 . S
H394 C388 0.929 . S
H395 C389 0.930 . S
Mn396 O401 2.095 . S
Mn396 O411 2.162 1_554 S
Mn396 O412 2.297 1_554 S
Mn396 O420 2.385 . S
Mn396 O421 2.209 . S
Mn396 O422 2.094 . S
Mn397 O402 2.121 . S
Mn397 N404 2.257 . S
Mn397 N413 2.282 . S
Mn397 O421 2.215 . S
Mn397 O423 2.117 . S
C398 O420 1.234 . S
C398 O421 1.283 . S
C399 O411 1.281 . S
C399 O412 1.236 . S
C400 O422 1.240 . S
C400 O423 1.264 . S
O401 Mn396 2.095 . S
O401 C410 1.250 . S
O402 Mn397 2.121 . S
O402 C410 1.258 . S
C403 N404 1.326 . S
C403 C407 1.460 . S
C403 H409 0.929 . S
N404 Mn397 2.257 . S
N404 C403 1.326 . S
N404 C408 1.362 . S
C405 C406 1.258 . S
C405 C408 1.431 . S
C405 C425 1.449 . S
C406 C405 1.258 . S
C406 C407 1.477 . S
C406 H426 0.931 . S
C407 C403 1.460 . S
C407 C406 1.477 . S
C407 H427 0.930 . S
C408 N404 1.362 . S
C408 C405 1.431 . S
C408 C418 1.476 . S
H409 C403 0.929 . S
C410 O401 1.250 . S
C410 O402 1.258 . S
O411 Mn396 2.162 1_556 S
O411 C399 1.281 . S
O412 Mn396 2.297 1_556 S
O412 C399 1.236 . S
N413 Mn397 2.282 . S
N413 C414 1.328 . S
N413 C418 1.318 . S
C414 N413 1.328 . S
C414 C415 1.457 . S
C414 H419 0.929 . S
C415 C414 1.457 . S
C415 C416 1.291 . S
C415 H428 0.931 . S
C416 C415 1.291 . S
C416 C417 1.373 . S
C416 H429 0.929 . S
C417 C416 1.373 . S
C417 C418 1.396 . S
C417 C424 1.403 . S
C418 C408 1.476 . S
C418 N413 1.318 . S
C418 C417 1.396 . S
H419 C414 0.929 . S
O420 Mn396 2.385 . S
O420 C398 1.234 . S
O421 Mn396 2.209 . S
O421 Mn397 2.215 . S
O421 C398 1.283 . S
O422 Mn396 2.094 . S
O422 C400 1.240 . S
O423 Mn397 2.117 . S
O423 C400 1.264 . S
C424 C417 1.403 . S
C424 C425 1.399 . S
C424 H430 0.929 . S
C425 C405 1.449 . S
C425 C424 1.399 . S
C425 H431 0.930 . S
H426 C406 0.931 . S
H427 C407 0.930 . S
H428 C415 0.931 . S
H429 C416 0.929 . S
H430 C424 0.929 . S
H431 C425 0.930 . S
H432 C440 0.929 . S
H433 C442 0.930 . S
H434 C444 0.930 . S
H435 C447 0.929 . S
H436 C450 0.930 . S
H437 C452 0.960 . S
H438 C452 0.960 . S
H439 C452 0.960 . S
C440 H432 0.929 . S
C440 C441 1.377 . S
C440 C442 1.384 . S
C441 C440 1.377 . S
C441 C447 1.390 . S
C442 H433 0.930 . S
C442 C440 1.384 . S
C442 C443 1.372 . S
C443 C442 1.372 . S
C443 C444 1.400 . S
C443 C448 1.490 . S
C444 H434 0.930 . S
C444 C443 1.400 . S
C444 C447 1.386 . S
H445 C461 0.930 . S
H446 C462 0.931 . S
C447 H435 0.929 . S
C447 C441 1.390 . S
C447 C444 1.386 . S
C448 C443 1.490 . S
C448 C450 1.395 . S
C448 C451 1.403 . S
H449 C455 0.930 . S
C450 H436 0.930 . S
C450 C448 1.395 . S
C450 C453 1.403 . S
C451 C448 1.403 . S
C451 C452 1.524 . S
C451 C455 1.400 . S
C452 H437 0.960 . S
C452 H438 0.960 . S
C452 H439 0.960 . S
C452 C451 1.524 . S
C453 C450 1.403 . S
C453 C454 1.392 . S
C453 C457 1.495 . S
C454 C453 1.392 . S
C454 C455 1.385 . S
C454 C456 1.478 . S
C455 H449 0.930 . S
C455 C451 1.400 . S
C455 C454 1.385 . S
C456 C454 1.478 . S
C456 C458 1.381 . S
C456 C462 1.383 . S
C457 C453 1.495 . S
C457 H463 0.959 . S
C457 H464 0.961 . S
C457 H465 0.960 . S
C458 C456 1.381 . S
C458 C459 1.394 . S
C458 H466 0.930 . S
C459 C458 1.394 . S
C459 C460 1.383 . S
C459 H467 0.929 . S
C460 C459 1.383 . S
C460 C461 1.377 . S
C461 H445 0.930 . S
C461 C460 1.377 . S
C461 C462 1.379 . S
C462 H446 0.931 . S
C462 C456 1.383 . S
C462 C461 1.379 . S
H463 C457 0.959 . S
H464 C457 0.961 . S
H465 C457 0.960 . S
H466 C458 0.930 . S
H467 C459 0.929 . S
H468 C476 0.929 . S
H469 C478 0.930 . S
H470 C480 0.930 . S
H471 C483 0.929 . S
H472 C486 0.930 . S
H473 C488 0.960 . S
H474 C488 0.960 . S
H475 C488 0.960 . S
C476 H468 0.929 . S
C476 C477 1.377 . S
C476 C478 1.384 . S
C477 C476 1.377 . S
C477 C483 1.390 . S
C478 H469 0.930 . S
C478 C476 1.384 . S
C478 C479 1.372 . S
C479 C478 1.372 . S
C479 C480 1.400 . S
C479 C484 1.490 . S
C480 H470 0.930 . S
C480 C479 1.400 . S
C480 C483 1.386 . S
H481 C497 0.930 . S
H482 C498 0.931 . S
C483 H471 0.929 . S
C483 C477 1.390 . S
C483 C480 1.386 . S
C484 C479 1.490 . S
C484 C486 1.395 . S
C484 C487 1.403 . S
H485 C491 0.930 . S
C486 H472 0.930 . S
C486 C484 1.395 . S
C486 C489 1.403 . S
C487 C484 1.403 . S
C487 C488 1.524 . S
C487 C491 1.400 . S
C488 H473 0.960 . S
C488 H474 0.960 . S
C488 H475 0.960 . S
C488 C487 1.524 . S
C489 C486 1.403 . S
C489 C490 1.392 . S
C489 C493 1.495 . S
C490 C489 1.392 . S
C490 C491 1.385 . S
C490 C492 1.478 . S
C491 H485 0.930 . S
C491 C487 1.400 . S
C491 C490 1.385 . S
C492 C490 1.478 . S
C492 C494 1.381 . S
C492 C498 1.383 . S
C493 C489 1.495 . S
C493 H499 0.959 . S
C493 H500 0.961 . S
C493 H501 0.960 . S
C494 C492 1.381 . S
C494 C495 1.394 . S
C494 H502 0.930 . S
C495 C494 1.394 . S
C495 C496 1.383 . S
C495 H503 0.929 . S
C496 C495 1.383 . S
C496 C497 1.377 . S
C497 H481 0.930 . S
C497 C496 1.377 . S
C497 C498 1.379 . S
C498 H482 0.931 . S
C498 C492 1.383 . S
C498 C497 1.379 . S
H499 C493 0.959 . S
H500 C493 0.961 . S
H501 C493 0.960 . S
H502 C494 0.930 . S
H503 C495 0.929 . S
H504 C512 0.929 . S
H505 C514 0.930 . S
H506 C516 0.930 . S
H507 C519 0.929 . S
H508 C522 0.930 . S
H509 C524 0.960 . S
H510 C524 0.960 . S
H511 C524 0.960 . S
C512 H504 0.929 . S
C512 C513 1.377 . S
C512 C514 1.384 . S
C513 C512 1.377 . S
C513 C519 1.390 . S
C514 H505 0.930 . S
C514 C512 1.384 . S
C514 C515 1.372 . S
C515 C514 1.372 . S
C515 C516 1.400 . S
C515 C520 1.490 . S
C516 H506 0.930 . S
C516 C515 1.400 . S
C516 C519 1.386 . S
H517 C533 0.930 . S
H518 C534 0.931 . S
C519 H507 0.929 . S
C519 C513 1.390 . S
C519 C516 1.386 . S
C520 C515 1.490 . S
C520 C522 1.395 . S
C520 C523 1.403 . S
H521 C527 0.930 . S
C522 H508 0.930 . S
C522 C520 1.395 . S
C522 C525 1.403 . S
C523 C520 1.403 . S
C523 C524 1.524 . S
C523 C527 1.400 . S
C524 H509 0.960 . S
C524 H510 0.960 . S
C524 H511 0.960 . S
C524 C523 1.524 . S
C525 C522 1.403 . S
C525 C526 1.392 . S
C525 C529 1.495 . S
C526 C525 1.392 . S
C526 C527 1.385 . S
C526 C528 1.478 . S
C527 H521 0.930 . S
C527 C523 1.400 . S
C527 C526 1.385 . S
C528 C526 1.478 . S
C528 C530 1.381 . S
C528 C534 1.383 . S
C529 C525 1.495 . S
C529 H535 0.959 . S
C529 H536 0.961 . S
C529 H537 0.960 . S
C530 C528 1.381 . S
C530 C531 1.394 . S
C530 H538 0.930 . S
C531 C530 1.394 . S
C531 C532 1.383 . S
C531 H539 0.929 . S
C532 C531 1.383 . S
C532 C533 1.377 . S
C533 H517 0.930 . S
C533 C532 1.377 . S
C533 C534 1.379 . S
C534 H518 0.931 . S
C534 C528 1.383 . S
C534 C533 1.379 . S
H535 C529 0.959 . S
H536 C529 0.961 . S
H537 C529 0.960 . S
H538 C530 0.930 . S
H539 C531 0.929 . S
H540 C548 0.929 . S
H541 C550 0.930 . S
H542 C552 0.930 . S
H543 C555 0.929 . S
H544 C558 0.930 . S
H545 C560 0.960 . S
H546 C560 0.960 . S
H547 C560 0.960 . S
C548 H540 0.929 . S
C548 C549 1.377 . S
C548 C550 1.384 . S
C549 C548 1.377 . S
C549 C555 1.390 . S
C550 H541 0.930 . S
C550 C548 1.384 . S
C550 C551 1.372 . S
C551 C550 1.372 . S
C551 C552 1.400 . S
C551 C556 1.490 . S
C552 H542 0.930 . S
C552 C551 1.400 . S
C552 C555 1.386 . S
H553 C569 0.930 . S
H554 C570 0.931 . S
C555 H543 0.929 . S
C555 C549 1.390 . S
C555 C552 1.386 . S
C556 C551 1.490 . S
C556 C558 1.395 . S
C556 C559 1.403 . S
H557 C563 0.930 . S
C558 H544 0.930 . S
C558 C556 1.395 . S
C558 C561 1.403 . S
C559 C556 1.403 . S
C559 C560 1.524 . S
C559 C563 1.400 . S
C560 H545 0.960 . S
C560 H546 0.960 . S
C560 H547 0.960 . S
C560 C559 1.524 . S
C561 C558 1.403 . S
C561 C562 1.392 . S
C561 C565 1.495 . S
C562 C561 1.392 . S
C562 C563 1.385 . S
C562 C564 1.478 . S
C563 H557 0.930 . S
C563 C559 1.400 . S
C563 C562 1.385 . S
C564 C562 1.478 . S
C564 C566 1.381 . S
C564 C570 1.383 . S
C565 C561 1.495 . S
C565 H571 0.959 . S
C565 H572 0.961 . S
C565 H573 0.960 . S
C566 C564 1.381 . S
C566 C567 1.394 . S
C566 H574 0.930 . S
C567 C566 1.394 . S
C567 C568 1.383 . S
C567 H575 0.929 . S
C568 C567 1.383 . S
C568 C569 1.377 . S
C569 H553 0.930 . S
C569 C568 1.377 . S
C569 C570 1.379 . S
C570 H554 0.931 . S
C570 C564 1.383 . S
C570 C569 1.379 . S
H571 C565 0.959 . S
H572 C565 0.961 . S
H573 C565 0.960 . S
H574 C566 0.930 . S
H575 C567 0.929 . S
H576 C584 0.929 . S
H577 C586 0.930 . S
H578 C588 0.930 . S
H579 C591 0.929 . S
H580 C594 0.930 . S
H581 C596 0.960 . S
H582 C596 0.960 . S
H583 C596 0.960 . S
C584 H576 0.929 . S
C584 C585 1.377 . S
C584 C586 1.384 . S
C585 C584 1.377 . S
C585 C591 1.390 . S
C586 H577 0.930 . S
C586 C584 1.384 . S
C586 C587 1.372 . S
C587 C586 1.372 . S
C587 C588 1.400 . S
C587 C592 1.490 . S
C588 H578 0.930 . S
C588 C587 1.400 . S
C588 C591 1.386 . S
H589 C605 0.930 . S
H590 C606 0.931 . S
C591 H579 0.929 . S
C591 C585 1.390 . S
C591 C588 1.386 . S
C592 C587 1.490 . S
C592 C594 1.395 . S
C592 C595 1.403 . S
H593 C599 0.930 . S
C594 H580 0.930 . S
C594 C592 1.395 . S
C594 C597 1.403 . S
C595 C592 1.403 . S
C595 C596 1.524 . S
C595 C599 1.400 . S
C596 H581 0.960 . S
C596 H582 0.960 . S
C596 H583 0.960 . S
C596 C595 1.524 . S
C597 C594 1.403 . S
C597 C598 1.392 . S
C597 C601 1.495 . S
C598 C597 1.392 . S
C598 C599 1.385 . S
C598 C600 1.478 . S
C599 H593 0.930 . S
C599 C595 1.400 . S
C599 C598 1.385 . S
C600 C598 1.478 . S
C600 C602 1.381 . S
C600 C606 1.383 . S
C601 C597 1.495 . S
C601 H607 0.959 . S
C601 H608 0.961 . S
C601 H609 0.960 . S
C602 C600 1.381 . S
C602 C603 1.394 . S
C602 H610 0.930 . S
C603 C602 1.394 . S
C603 C604 1.383 . S
C603 H611 0.929 . S
C604 C603 1.383 . S
C604 C605 1.377 . S
C605 H589 0.930 . S
C605 C604 1.377 . S
C605 C606 1.379 . S
C606 H590 0.931 . S
C606 C600 1.383 . S
C606 C605 1.379 . S
H607 C601 0.959 . S
H608 C601 0.961 . S
H609 C601 0.960 . S
H610 C602 0.930 . S
H611 C603 0.929 . S
H612 C620 0.929 . S
H613 C622 0.930 . S
H614 C624 0.930 . S
H615 C627 0.929 . S
H616 C630 0.930 . S
H617 C632 0.960 . S
H618 C632 0.960 . S
H619 C632 0.960 . S
C620 H612 0.929 . S
C620 C621 1.377 . S
C620 C622 1.384 . S
C621 C620 1.377 . S
C621 C627 1.390 . S
C622 H613 0.930 . S
C622 C620 1.384 . S
C622 C623 1.372 . S
C623 C622 1.372 . S
C623 C624 1.400 . S
C623 C628 1.490 . S
C624 H614 0.930 . S
C624 C623 1.400 . S
C624 C627 1.386 . S
H625 C641 0.930 . S
H626 C642 0.931 . S
C627 H615 0.929 . S
C627 C621 1.390 . S
C627 C624 1.386 . S
C628 C623 1.490 . S
C628 C630 1.395 . S
C628 C631 1.403 . S
H629 C635 0.930 . S
C630 H616 0.930 . S
C630 C628 1.395 . S
C630 C633 1.403 . S
C631 C628 1.403 . S
C631 C632 1.524 . S
C631 C635 1.400 . S
C632 H617 0.960 . S
C632 H618 0.960 . S
C632 H619 0.960 . S
C632 C631 1.524 . S
C633 C630 1.403 . S
C633 C634 1.392 . S
C633 C637 1.495 . S
C634 C633 1.392 . S
C634 C635 1.385 . S
C634 C636 1.478 . S
C635 H629 0.930 . S
C635 C631 1.400 . S
C635 C634 1.385 . S
C636 C634 1.478 . S
C636 C638 1.381 . S
C636 C642 1.383 . S
C637 C633 1.495 . S
C637 H643 0.959 . S
C637 H644 0.961 . S
C637 H645 0.960 . S
C638 C636 1.381 . S
C638 C639 1.394 . S
C638 H646 0.930 . S
C639 C638 1.394 . S
C639 C640 1.383 . S
C639 H647 0.929 . S
C640 C639 1.383 . S
C640 C641 1.377 . S
C641 H625 0.930 . S
C641 C640 1.377 . S
C641 C642 1.379 . S
C642 H626 0.931 . S
C642 C636 1.383 . S
C642 C641 1.379 . S
H643 C637 0.959 . S
H644 C637 0.961 . S
H645 C637 0.960 . S
H646 C638 0.930 . S
H647 C639 0.929 . S
H648 C656 0.929 1_565 S
H649 C658 0.942 . S
H650 C660 0.930 . S
H651 C663 0.929 . S
H652 C666 0.930 . S
H653 C668 0.960 . S
H654 C668 0.960 . S
H655 C668 0.960 . S
C656 H648 0.929 1_545 S
C656 C657 1.377 . S
C656 C658 1.370 1_545 S
C657 C656 1.377 . S
C657 C663 1.390 . S
C658 H649 0.942 . S
C658 C656 1.370 1_565 S
C658 C659 1.374 1_565 S
C659 C658 1.374 1_545 S
C659 C660 1.400 . S
C659 C664 1.490 . S
C660 H650 0.930 . S
C660 C659 1.400 . S
C660 C663 1.386 . S
H661 C677 0.930 . S
H662 C678 0.931 . S
C663 H651 0.929 . S
C663 C657 1.390 . S
C663 C660 1.386 . S
C664 C659 1.490 . S
C664 C666 1.395 1_545 S
C664 C667 1.403 . S
H665 C671 0.930 . S
C666 H652 0.930 . S
C666 C664 1.395 1_565 S
C666 C669 1.403 . S
C667 C664 1.403 . S
C667 C668 1.524 . S
C667 C671 1.400 . S
C668 H653 0.960 . S
C668 H654 0.960 . S
C668 H655 0.960 . S
C668 C667 1.524 . S
C669 C666 1.403 . S
C669 C670 1.392 . S
C669 C673 1.495 . S
C670 C669 1.392 . S
C670 C671 1.385 1_565 S
C670 C672 1.478 . S
C671 H665 0.930 . S
C671 C667 1.400 . S
C671 C670 1.385 1_545 S
C672 C670 1.478 . S
C672 C674 1.381 . S
C672 C678 1.383 . S
C673 C669 1.495 . S
C673 H679 0.959 . S
C673 H680 0.961 . S
C673 H681 0.960 . S
C674 C672 1.381 . S
C674 C675 1.394 . S
C674 H682 0.930 . S
C675 C674 1.394 . S
C675 C676 1.383 . S
C675 H683 0.929 . S
C676 C675 1.383 . S
C676 C677 1.377 . S
C677 H661 0.930 . S
C677 C676 1.377 . S
C677 C678 1.379 . S
C678 H662 0.931 . S
C678 C672 1.383 . S
C678 C677 1.379 . S
H679 C673 0.959 . S
H680 C673 0.961 . S
H681 C673 0.960 . S
H682 C674 0.930 . S
H683 C675 0.929 . S
H684 C692 0.929 . S
H685 C694 0.930 . S
H686 C696 0.930 . S
H687 C699 0.929 . S
H688 C702 0.930 . S
H689 C704 0.960 . S
H690 C704 0.960 . S
H691 C704 0.960 . S
C692 H684 0.929 . S
C692 C693 1.377 . S
C692 C694 1.384 . S
C693 C692 1.377 . S
C693 C699 1.390 . S
C694 H685 0.930 . S
C694 C692 1.384 . S
C694 C695 1.372 . S
C695 C694 1.372 . S
C695 C696 1.400 . S
C695 C700 1.490 . S
C696 H686 0.930 . S
C696 C695 1.400 . S
C696 C699 1.386 . S
H697 C713 0.930 . S
H698 C714 0.931 . S
C699 H687 0.929 . S
C699 C693 1.390 . S
C699 C696 1.386 . S
C700 C695 1.490 . S
C700 C702 1.395 . S
C700 C703 1.403 . S
H701 C707 0.930 . S
C702 H688 0.930 . S
C702 C700 1.395 . S
C702 C705 1.403 . S
C703 C700 1.403 . S
C703 C704 1.524 . S
C703 C707 1.400 . S
C704 H689 0.960 . S
C704 H690 0.960 . S
C704 H691 0.960 . S
C704 C703 1.524 . S
C705 C702 1.403 . S
C705 C706 1.392 . S
C705 C709 1.495 . S
C706 C705 1.392 . S
C706 C707 1.385 . S
C706 C708 1.478 . S
C707 H701 0.930 . S
C707 C703 1.400 . S
C707 C706 1.385 . S
C708 C706 1.478 . S
C708 C710 1.381 . S
C708 C714 1.383 . S
C709 C705 1.495 . S
C709 H715 0.959 . S
C709 H716 0.961 . S
C709 H717 0.960 . S
C710 C708 1.381 . S
C710 C711 1.394 . S
C710 H718 0.930 . S
C711 C710 1.394 . S
C711 C712 1.383 . S
C711 H719 0.929 . S
C712 C711 1.383 . S
C712 C713 1.377 . S
C713 H697 0.930 . S
C713 C712 1.377 . S
C713 C714 1.379 . S
C714 H698 0.931 . S
C714 C708 1.383 . S
C714 C713 1.379 . S
H715 C709 0.959 . S
H716 C709 0.961 . S
H717 C709 0.960 . S
H718 C710 0.930 . S
H719 C711 0.929 . S
H720 C728 0.929 . S
H721 C730 0.930 . S
H722 C732 0.930 . S
H723 C735 0.929 . S
H724 C738 0.930 . S
H725 C740 0.960 . S
H726 C740 0.960 . S
H727 C740 0.960 . S
C728 H720 0.929 . S
C728 C729 1.377 . S
C728 C730 1.384 . S
C729 C728 1.377 . S
C729 C735 1.390 1_455 S
C730 H721 0.930 . S
C730 C728 1.384 . S
C730 C731 1.372 . S
C731 C730 1.372 . S
C731 C732 1.400 1_455 S
C731 C736 1.490 . S
C732 H722 0.930 . S
C732 C731 1.400 1_655 S
C732 C735 1.386 . S
H733 C749 0.930 . S
H734 C750 0.931 . S
C735 H723 0.929 . S
C735 C729 1.390 1_655 S
C735 C732 1.386 . S
C736 C731 1.490 . S
C736 C738 1.395 . S
C736 C739 1.403 1_455 S
H737 C743 0.930 . S
C738 H724 0.930 . S
C738 C736 1.395 . S
C738 C741 1.403 . S
C739 C736 1.403 1_655 S
C739 C740 1.524 . S
C739 C743 1.400 . S
C740 H725 0.960 . S
C740 H726 0.960 . S
C740 H727 0.960 . S
C740 C739 1.524 . S
C741 C738 1.403 . S
C741 C742 1.392 . S
C741 C745 1.495 . S
C742 C741 1.392 . S
C742 C743 1.385 1_455 S
C742 C744 1.478 1_455 S
C743 H737 0.930 . S
C743 C739 1.400 . S
C743 C742 1.385 1_655 S
C744 C742 1.478 1_655 S
C744 C746 1.381 1_655 S
C744 C750 1.383 . S
C745 C741 1.495 . S
C745 H751 0.959 1_556 S
C745 H752 0.961 1_556 S
C745 H753 0.960 . S
C746 C744 1.381 1_455 S
C746 C747 1.394 . S
C746 H754 0.930 . S
C747 C746 1.394 . S
C747 C748 1.383 1_455 S
C747 H755 0.929 . S
C748 C747 1.383 1_655 S
C748 C749 1.377 . S
C749 H733 0.930 . S
C749 C748 1.377 . S
C749 C750 1.379 . S
C750 H734 0.931 . S
C750 C744 1.383 . S
C750 C749 1.379 . S
H751 C745 0.959 1_554 S
H752 C745 0.961 1_554 S
H753 C745 0.960 . S
H754 C746 0.930 . S
H755 C747 0.929 . S
H756 C764 0.929 . S
H757 C766 0.930 . S
H758 C768 0.930 . S
H759 C771 0.929 . S
H760 C774 0.930 . S
H761 C776 0.960 . S
H762 C776 0.960 . S
H763 C776 0.960 . S
C764 H756 0.929 . S
C764 C765 1.377 . S
C764 C766 1.384 . S
C765 C764 1.377 . S
C765 C771 1.390 1_655 S
C766 H757 0.930 . S
C766 C764 1.384 . S
C766 C767 1.372 . S
C767 C766 1.372 . S
C767 C768 1.400 1_655 S
C767 C772 1.490 . S
C768 H758 0.930 . S
C768 C767 1.400 1_455 S
C768 C771 1.386 . S
H769 C785 0.930 . S
H770 C786 0.931 . S
C771 H759 0.929 . S
C771 C765 1.390 1_455 S
C771 C768 1.386 . S
C772 C767 1.490 . S
C772 C774 1.395 . S
C772 C775 1.403 1_655 S
H773 C779 0.930 . S
C774 H760 0.930 . S
C774 C772 1.395 . S
C774 C777 1.403 . S
C775 C772 1.403 1_455 S
C775 C776 1.524 . S
C775 C779 1.400 . S
C776 H761 0.960 . S
C776 H762 0.960 . S
C776 H763 0.960 . S
C776 C775 1.524 . S
C777 C774 1.403 . S
C777 C778 1.392 . S
C777 C781 1.495 . S
C778 C777 1.392 . S
C778 C779 1.385 1_655 S
C778 C780 1.462 1_655 S
C779 H773 0.930 . S
C779 C775 1.400 . S
C779 C778 1.385 1_455 S
C780 C778 1.462 1_455 S
C780 C782 1.382 1_455 S
C780 C786 1.399 . S
C781 C777 1.495 . S
C781 H787 0.959 . S
C781 H788 0.961 . S
C781 H789 0.960 . S
C782 C780 1.382 1_655 S
C782 C783 1.394 . S
C782 H790 0.930 . S
C783 C782 1.394 . S
C783 C784 1.383 1_655 S
C783 H791 0.929 . S
C784 C783 1.383 1_455 S
C784 C785 1.377 . S
C785 H769 0.930 . S
C785 C784 1.377 . S
C785 C786 1.379 . S
C786 H770 0.931 . S
C786 C780 1.399 . S
C786 C785 1.379 . S
H787 C781 0.959 . S
H788 C781 0.961 . S
H789 C781 0.960 . S
H790 C782 0.930 . S
H791 C783 0.929 . S
H792 C800 0.929 . S
H793 C802 0.930 . S
H794 C804 0.930 . S
H795 C807 0.929 . S
H796 C810 0.930 . S
H797 C812 0.960 . S
H798 C812 0.960 . S
H799 C812 0.960 . S
C800 H792 0.929 . S
C800 C801 1.377 . S
C800 C802 1.384 . S
C801 C800 1.377 . S
C801 C807 1.390 . S
C802 H793 0.930 . S
C802 C800 1.384 . S
C802 C803 1.372 . S
C803 C802 1.372 . S
C803 C804 1.400 . S
C803 C808 1.490 . S
C804 H794 0.930 . S
C804 C803 1.400 . S
C804 C807 1.386 . S
H805 C821 0.930 . S
H806 C822 0.931 . S
C807 H795 0.929 . S
C807 C801 1.390 . S
C807 C804 1.386 . S
C808 C803 1.490 . S
C808 C810 1.395 1_545 S
C808 C811 1.403 . S
H809 C815 0.930 . S
C810 H796 0.930 . S
C810 C808 1.395 1_565 S
C810 C813 1.403 . S
C811 C808 1.403 . S
C811 C812 1.524 . S
C811 C815 1.400 . S
C812 H797 0.960 . S
C812 H798 0.960 . S
C812 H799 0.960 . S
C812 C811 1.524 . S
C813 C810 1.403 . S
C813 C814 1.392 . S
C813 C817 1.495 . S
C814 C813 1.392 . S
C814 C815 1.385 1_565 S
C814 C816 1.478 . S
C815 H809 0.930 . S
C815 C811 1.400 . S
C815 C814 1.385 1_545 S
C816 C814 1.478 . S
C816 C818 1.381 . S
C816 C822 1.383 . S
C817 C813 1.495 . S
C817 H823 0.959 . S
C817 H824 0.961 . S
C817 H825 0.960 . S
C818 C816 1.381 . S
C818 C819 1.394 . S
C818 H826 0.930 . S
C819 C818 1.394 . S
C819 C820 1.383 . S
C819 H827 0.929 . S
C820 C819 1.383 . S
C820 C821 1.377 . S
C821 H805 0.930 . S
C821 C820 1.377 . S
C821 C822 1.379 . S
C822 H806 0.931 . S
C822 C816 1.383 . S
C822 C821 1.379 . S
H823 C817 0.959 . S
H824 C817 0.961 . S
H825 C817 0.960 . S
H826 C818 0.930 . S
H827 C819 0.929 . S
H828 C836 0.929 . S
H829 C838 0.930 . S
H830 C840 0.930 1_556 S
H831 C843 0.929 1_556 S
H832 C846 0.930 . S
H833 C848 0.960 . S
H834 C848 0.960 1_554 S
H835 C848 0.960 . S
C836 H828 0.929 . S
C836 C837 1.377 . S
C836 C838 1.384 . S
C837 C836 1.377 . S
C837 C843 1.390 . S
C838 H829 0.930 . S
C838 C836 1.384 . S
C838 C839 1.372 . S
C839 C838 1.372 . S
C839 C840 1.400 . S
C839 C844 1.490 . S
C840 H830 0.930 1_554 S
C840 C839 1.400 . S
C840 C843 1.386 . S
H841 C857 0.930 1_556 S
H842 C858 0.933 1_556 S
C843 H831 0.929 1_554 S
C843 C837 1.390 . S
C843 C840 1.386 . S
C844 C839 1.490 . S
C844 C846 1.395 . S
C844 C847 1.403 . S
H845 C851 0.930 . S
C846 H832 0.930 . S
C846 C844 1.395 . S
C846 C849 1.403 . S
C847 C844 1.403 . S
C847 C848 1.524 1_554 S
C847 C851 1.400 . S
C848 H833 0.960 . S
C848 H834 0.960 1_556 S
C848 H835 0.960 . S
C848 C847 1.524 1_556 S
C849 C846 1.403 . S
C849 C850 1.392 . S
C849 C853 1.495 . S
C850 C849 1.392 . S
C850 C851 1.385 . S
C850 C852 1.478 . S
C851 H845 0.930 . S
C851 C847 1.400 . S
C851 C850 1.385 . S
C852 C850 1.478 . S
C852 C854 1.381 . S
C852 C858 1.383 . S
C853 C849 1.495 . S
C853 H859 0.959 . S
C853 H860 0.961 . S
C853 H861 0.960 . S
C854 C852 1.381 . S
C854 C855 1.394 . S
C854 H862 0.930 . S
C855 C854 1.394 . S
C855 C856 1.383 . S
C855 H863 0.929 . S
C856 C855 1.383 . S
C856 C857 1.377 . S
C857 H841 0.930 1_554 S
C857 C856 1.377 . S
C857 C858 1.379 . S
C858 H842 0.933 1_554 S
C858 C852 1.383 . S
C858 C857 1.379 . S
H859 C853 0.959 . S
H860 C853 0.961 . S
H861 C853 0.960 . S
H862 C854 0.930 . S
H863 C855 0.929 . S
H864 C872 0.929 . S
H865 C874 0.930 . S
H866 C876 0.930 . S
H867 C879 0.929 . S
H868 C882 0.930 . S
H869 C884 0.960 . S
H870 C884 0.960 . S
H871 C884 0.960 . S
C872 H864 0.929 . S
C872 C873 1.377 . S
C872 C874 1.384 . S
C873 C872 1.377 . S
C873 C879 1.390 . S
C874 H865 0.930 . S
C874 C872 1.384 . S
C874 C875 1.372 . S
C875 C874 1.372 . S
C875 C876 1.400 . S
C875 C880 1.490 . S
C876 H866 0.930 . S
C876 C875 1.400 . S
C876 C879 1.386 . S
H877 C893 0.930 . S
H878 C894 0.931 . S
C879 H867 0.929 . S
C879 C873 1.390 . S
C879 C876 1.386 . S
C880 C875 1.490 . S
C880 C882 1.395 . S
C880 C883 1.403 . S
H881 C887 0.930 . S
C882 H868 0.930 . S
C882 C880 1.395 . S
C882 C885 1.403 . S
C883 C880 1.403 . S
C883 C884 1.524 . S
C883 C887 1.400 . S
C884 H869 0.960 . S
C884 H870 0.960 . S
C884 H871 0.960 . S
C884 C883 1.524 . S
C885 C882 1.403 . S
C885 C886 1.392 . S
C885 C889 1.495 . S
C886 C885 1.392 . S
C886 C887 1.385 . S
C886 C888 1.478 . S
C887 H881 0.930 . S
C887 C883 1.400 . S
C887 C886 1.385 . S
C888 C886 1.478 . S
C888 C890 1.381 . S
C888 C894 1.383 . S
C889 C885 1.495 . S
C889 H895 0.959 . S
C889 H896 0.961 . S
C889 H897 0.960 . S
C890 C888 1.381 . S
C890 C891 1.394 . S
C890 H898 0.930 . S
C891 C890 1.394 . S
C891 C892 1.383 . S
C891 H899 0.929 . S
C892 C891 1.383 . S
C892 C893 1.377 . S
C893 H877 0.930 . S
C893 C892 1.377 . S
C893 C894 1.379 . S
C894 H878 0.931 . S
C894 C888 1.383 . S
C894 C893 1.379 . S
H895 C889 0.959 . S
H896 C889 0.961 . S
H897 C889 0.960 . S
H898 C890 0.930 . S
H899 C891 0.929 . S
H900 C908 0.929 . S
H901 C910 0.930 . S
H902 C912 0.930 . S
H903 C915 0.929 . S
H904 C918 0.930 . S
H905 C920 0.960 . S
H906 C920 0.960 . S
H907 C920 0.960 . S
C908 H900 0.929 . S
C908 C909 1.377 . S
C908 C910 1.384 . S
C909 C908 1.377 . S
C909 C915 1.390 . S
C910 H901 0.930 . S
C910 C908 1.384 . S
C910 C911 1.372 . S
C911 C910 1.372 . S
C911 C912 1.400 . S
C911 C916 1.490 . S
C912 H902 0.930 . S
C912 C911 1.400 . S
C912 C915 1.386 . S
H913 C929 0.930 . S
H914 C930 0.931 . S
C915 H903 0.929 . S
C915 C909 1.390 . S
C915 C912 1.386 . S
C916 C911 1.490 . S
C916 C918 1.395 . S
C916 C919 1.403 . S
H917 C923 0.930 . S
C918 H904 0.930 . S
C918 C916 1.395 . S
C918 C921 1.403 . S
C919 C916 1.403 . S
C919 C920 1.524 . S
C919 C923 1.400 . S
C920 H905 0.960 . S
C920 H906 0.960 . S
C920 H907 0.960 . S
C920 C919 1.524 . S
C921 C918 1.403 . S
C921 C922 1.392 . S
C921 C925 1.495 . S
C922 C921 1.392 . S
C922 C923 1.385 . S
C922 C924 1.478 . S
C923 H917 0.930 . S
C923 C919 1.400 . S
C923 C922 1.385 . S
C924 C922 1.478 . S
C924 C926 1.381 . S
C924 C930 1.383 . S
C925 C921 1.495 . S
C925 H931 0.959 . S
C925 H932 0.961 . S
C925 H933 0.960 . S
C926 C924 1.381 . S
C926 C927 1.394 . S
C926 H934 0.930 . S
C927 C926 1.394 . S
C927 C928 1.383 . S
C927 H935 0.929 . S
C928 C927 1.383 . S
C928 C929 1.377 . S
C929 H913 0.930 . S
C929 C928 1.377 . S
C929 C930 1.379 . S
C930 H914 0.931 . S
C930 C924 1.383 . S
C930 C929 1.379 . S
H931 C925 0.959 . S
H932 C925 0.961 . S
H933 C925 0.960 . S
H934 C926 0.930 . S
H935 C927 0.929 . S
H936 C944 0.929 1_556 S
H937 C946 0.930 . S
H938 C948 0.930 . S
H939 C951 0.929 . S
H940 C954 0.930 . S
H941 C956 0.960 . S
H942 C956 0.960 1_556 S
H943 C956 0.960 . S
C944 H936 0.929 1_554 S
C944 C945 1.377 . S
C944 C946 1.384 1_554 S
C945 C944 1.377 . S
C945 C951 1.390 . S
C946 H937 0.930 . S
C946 C944 1.384 1_556 S
C946 C947 1.372 1_556 S
C947 C946 1.372 1_554 S
C947 C948 1.400 . S
C947 C952 1.490 . S
C948 H938 0.930 . S
C948 C947 1.400 . S
C948 C951 1.386 . S
H949 C965 0.930 1_554 S
H950 C966 0.931 . S
C951 H939 0.929 . S
C951 C945 1.390 . S
C951 C948 1.386 . S
C952 C947 1.490 . S
C952 C954 1.395 1_554 S
C952 C955 1.403 . S
H953 C959 0.930 . S
C954 H940 0.930 . S
C954 C952 1.395 1_556 S
C954 C957 1.403 . S
C955 C952 1.403 . S
C955 C956 1.524 . S
C955 C959 1.400 1_554 S
C956 H941 0.960 . S
C956 H942 0.960 1_554 S
C956 H943 0.960 . S
C956 C955 1.524 . S
C957 C954 1.403 . S
C957 C958 1.392 . S
C957 C961 1.495 . S
C958 C957 1.392 . S
C958 C959 1.385 . S
C958 C960 1.478 . S
C959 H953 0.930 . S
C959 C955 1.400 1_556 S
C959 C958 1.385 . S
C960 C958 1.478 . S
C960 C962 1.381 . S
C960 C966 1.383 1_556 S
C961 C957 1.495 . S
C961 H967 0.959 . S
C961 H968 0.961 . S
C961 H969 0.960 . S
C962 C960 1.381 . S
C962 C963 1.394 . S
C962 H970 0.930 . S
C963 C962 1.394 . S
C963 C964 1.383 . S
C963 H971 0.929 . S
C964 C963 1.383 . S
C964 C965 1.377 . S
C965 H949 0.930 1_556 S
C965 C964 1.377 . S
C965 C966 1.379 1_556 S
C966 H950 0.931 . S
C966 C960 1.383 1_554 S
C966 C965 1.379 1_554 S
H967 C961 0.959 . S
H968 C961 0.961 . S
H969 C961 0.960 . S
H970 C962 0.930 . S
H971 C963 0.929 . S
H972 C980 0.929 . S
H973 C982 0.930 . S
H974 C984 0.930 . S
H975 C987 0.929 . S
H976 C990 0.930 . S
H977 C992 0.960 . S
H978 C992 0.960 . S
H979 C992 0.960 . S
C980 H972 0.929 . S
C980 C981 1.377 . S
C980 C982 1.384 . S
C981 C980 1.377 . S
C981 C987 1.390 . S
C982 H973 0.930 . S
C982 C980 1.384 . S
C982 C983 1.372 . S
C983 C982 1.372 . S
C983 C984 1.400 . S
C983 C988 1.490 . S
C984 H974 0.930 . S
C984 C983 1.400 . S
C984 C987 1.386 . S
H985 C1001 0.930 . S
H986 C1002 0.931 . S
C987 H975 0.929 . S
C987 C981 1.390 . S
C987 C984 1.386 . S
C988 C983 1.490 . S
C988 C990 1.395 . S
C988 C991 1.403 . S
H989 C995 0.930 . S
C990 H976 0.930 . S
C990 C988 1.395 . S
C990 C993 1.403 . S
C991 C988 1.403 . S
C991 C992 1.524 . S
C991 C995 1.400 . S
C992 H977 0.960 . S
C992 H978 0.960 . S
C992 H979 0.960 . S
C992 C991 1.524 . S
C993 C990 1.403 . S
C993 C994 1.392 . S
C993 C997 1.495 . S
C994 C993 1.392 . S
C994 C995 1.385 . S
C994 C996 1.478 . S
C995 H989 0.930 . S
C995 C991 1.400 . S
C995 C994 1.385 . S
C996 C994 1.478 . S
C996 C998 1.381 . S
C996 C1002 1.383 . S
C997 C993 1.495 . S
C997 H1003 0.959 . S
C997 H1004 0.961 . S
C997 H1005 0.960 . S
C998 C996 1.381 . S
C998 C999 1.394 . S
C998 H1006 0.930 . S
C999 C998 1.394 . S
C999 C1000 1.383 . S
C999 H1007 0.929 . S
C1000 C999 1.383 . S
C1000 C1001 1.377 . S
C1001 H985 0.930 . S
C1001 C1000 1.377 . S
C1001 C1002 1.379 . S
C1002 H986 0.931 . S
C1002 C996 1.383 . S
C1002 C1001 1.379 . S
H1003 C997 0.959 . S
H1004 C997 0.961 . S
H1005 C997 0.960 . S
H1006 C998 0.930 . S
H1007 C999 0.929 . S
H1008 C1016 0.929 . S
H1009 C1018 0.930 . S
H1010 C1020 0.930 . S
H1011 C1023 0.929 . S
H1012 C1026 0.930 . S
H1013 C1028 0.960 . S
H1014 C1028 0.960 . S
H1015 C1028 0.960 . S
C1016 H1008 0.929 . S
C1016 C1017 1.377 . S
C1016 C1018 1.384 . S
C1017 C1016 1.377 . S
C1017 C1023 1.390 . S
C1018 H1009 0.930 . S
C1018 C1016 1.384 . S
C1018 C1019 1.372 . S
C1019 C1018 1.372 . S
C1019 C1020 1.400 . S
C1019 C1024 1.490 . S
C1020 H1010 0.930 . S
C1020 C1019 1.400 . S
C1020 C1023 1.386 . S
H1021 C1037 0.930 . S
H1022 C1038 0.931 . S
C1023 H1011 0.929 . S
C1023 C1017 1.390 . S
C1023 C1020 1.386 . S
C1024 C1019 1.490 . S
C1024 C1026 1.395 . S
C1024 C1027 1.403 . S
H1025 C1031 0.930 . S
C1026 H1012 0.930 . S
C1026 C1024 1.395 . S
C1026 C1029 1.403 . S
C1027 C1024 1.403 . S
C1027 C1028 1.524 . S
C1027 C1031 1.400 . S
C1028 H1013 0.960 . S
C1028 H1014 0.960 . S
C1028 H1015 0.960 . S
C1028 C1027 1.524 . S
C1029 C1026 1.403 . S
C1029 C1030 1.392 . S
C1029 C1033 1.495 . S
C1030 C1029 1.392 . S
C1030 C1031 1.385 . S
C1030 C1032 1.478 . S
C1031 H1025 0.930 . S
C1031 C1027 1.400 . S
C1031 C1030 1.385 . S
C1032 C1030 1.478 . S
C1032 C1034 1.381 . S
C1032 C1038 1.383 . S
C1033 C1029 1.495 . S
C1033 H1039 0.959 . S
C1033 H1040 0.961 . S
C1033 H1041 0.960 . S
C1034 C1032 1.381 . S
C1034 C1035 1.394 . S
C1034 H1042 0.930 . S
C1035 C1034 1.394 . S
C1035 C1036 1.383 . S
C1035 H1043 0.929 . S
C1036 C1035 1.383 . S
C1036 C1037 1.377 . S
C1037 H1021 0.930 . S
C1037 C1036 1.377 . S
C1037 C1038 1.379 . S
C1038 H1022 0.931 . S
C1038 C1032 1.383 . S
C1038 C1037 1.379 . S
H1039 C1033 0.959 . S
H1040 C1033 0.961 . S
H1041 C1033 0.960 . S
H1042 C1034 0.930 . S
H1043 C1035 0.929 . S
H1044 C1052 0.929 . S
H1045 C1054 0.930 . S
H1046 C1056 0.930 . S
H1047 C1059 0.929 . S
H1048 C1062 0.930 . S
H1049 C1064 0.960 . S
H1050 C1064 0.960 . S
H1051 C1064 0.960 . S
C1052 H1044 0.929 . S
C1052 C1053 1.377 . S
C1052 C1054 1.384 . S
C1053 C1052 1.377 . S
C1053 C1059 1.390 . S
C1054 H1045 0.930 . S
C1054 C1052 1.384 . S
C1054 C1055 1.372 . S
C1055 C1054 1.372 . S
C1055 C1056 1.400 . S
C1055 C1060 1.490 . S
C1056 H1046 0.930 . S
C1056 C1055 1.400 . S
C1056 C1059 1.386 . S
H1057 C1073 0.930 . S
H1058 C1074 0.931 . S
C1059 H1047 0.929 . S
C1059 C1053 1.390 . S
C1059 C1056 1.386 . S
C1060 C1055 1.490 . S
C1060 C1062 1.395 1_554 S
C1060 C1063 1.403 . S
H1061 C1067 0.930 . S
C1062 H1048 0.930 . S
C1062 C1060 1.395 1_556 S
C1062 C1065 1.403 . S
C1063 C1060 1.403 . S
C1063 C1064 1.524 . S
C1063 C1067 1.400 . S
C1064 H1049 0.960 . S
C1064 H1050 0.960 . S
C1064 H1051 0.960 . S
C1064 C1063 1.524 . S
C1065 C1062 1.403 . S
C1065 C1066 1.392 . S
C1065 C1069 1.495 . S
C1066 C1065 1.392 . S
C1066 C1067 1.385 1_556 S
C1066 C1068 1.478 . S
C1067 H1061 0.930 . S
C1067 C1063 1.400 . S
C1067 C1066 1.385 1_554 S
C1068 C1066 1.478 . S
C1068 C1070 1.381 . S
C1068 C1074 1.383 . S
C1069 C1065 1.495 . S
C1069 H1075 0.959 . S
C1069 H1076 0.961 . S
C1069 H1077 0.960 . S
C1070 C1068 1.381 . S
C1070 C1071 1.394 . S
C1070 H1078 0.930 . S
C1071 C1070 1.394 . S
C1071 C1072 1.383 . S
C1071 H1079 0.929 . S
C1072 C1071 1.383 . S
C1072 C1073 1.377 . S
C1073 H1057 0.930 . S
C1073 C1072 1.377 . S
C1073 C1074 1.379 . S
C1074 H1058 0.931 . S
C1074 C1068 1.383 . S
C1074 C1073 1.379 . S
H1075 C1069 0.959 . S
H1076 C1069 0.961 . S
H1077 C1069 0.960 . S
H1078 C1070 0.930 . S
H1079 C1071 0.929 . S
H1080 C1088 0.929 . S
H1081 C1090 0.930 . S
H1082 C1092 0.930 . S
H1083 C1095 0.929 . S
H1084 C1098 0.930 . S
H1085 C1100 0.960 . S
H1086 C1100 0.960 . S
H1087 C1100 0.960 . S
C1088 H1080 0.929 . S
C1088 C1089 1.377 . S
C1088 C1090 1.384 . S
C1089 C1088 1.377 . S
C1089 C1095 1.390 1_545 S
C1090 H1081 0.930 . S
C1090 C1088 1.384 . S
C1090 C1091 1.372 . S
C1091 C1090 1.372 . S
C1091 C1092 1.400 1_545 S
C1091 C1096 1.490 . S
C1092 H1082 0.930 . S
C1092 C1091 1.400 1_565 S
C1092 C1095 1.386 . S
H1093 C1109 0.930 . S
H1094 C1110 0.931 . S
C1095 H1083 0.929 . S
C1095 C1089 1.390 1_565 S
C1095 C1092 1.386 . S
C1096 C1091 1.490 . S
C1096 C1098 1.395 . S
C1096 C1099 1.403 1_545 S
H1097 C1103 0.930 . S
C1098 H1084 0.930 . S
C1098 C1096 1.395 . S
C1098 C1101 1.403 . S
C1099 C1096 1.403 1_565 S
C1099 C1100 1.524 . S
C1099 C1103 1.400 . S
C1100 H1085 0.960 . S
C1100 H1086 0.960 . S
C1100 H1087 0.960 . S
C1100 C1099 1.524 . S
C1101 C1098 1.403 . S
C1101 C1102 1.408 . S
C1101 C1105 1.495 . S
C1102 C1101 1.408 . S
C1102 C1103 1.371 1_545 S
C1102 C1104 1.475 1_545 S
C1103 H1097 0.930 . S
C1103 C1099 1.400 . S
C1103 C1102 1.371 1_565 S
C1104 C1102 1.475 1_565 S
C1104 C1106 1.381 1_565 S
C1104 C1110 1.383 . S
C1105 C1101 1.495 . S
C1105 H1111 0.959 . S
C1105 H1112 0.961 . S
C1105 H1113 0.960 . S
C1106 C1104 1.381 1_545 S
C1106 C1107 1.394 . S
C1106 H1114 0.930 . S
C1107 C1106 1.394 . S
C1107 C1108 1.383 1_545 S
C1107 H1115 0.929 . S
C1108 C1107 1.383 1_565 S
C1108 C1109 1.377 . S
C1109 H1093 0.930 . S
C1109 C1108 1.377 . S
C1109 C1110 1.379 . S
C1110 H1094 0.931 . S
C1110 C1104 1.383 . S
C1110 C1109 1.379 . S
H1111 C1105 0.959 . S
H1112 C1105 0.961 . S
H1113 C1105 0.960 . S
H1114 C1106 0.930 . S
H1115 C1107 0.929 . S
H1116 C1124 0.929 . S
H1117 C1126 0.930 . S
H1118 C1128 0.930 . S
H1119 C1131 0.929 . S
H1120 C1134 0.930 . S
H1121 C1136 0.960 . S
H1122 C1136 0.960 . S
H1123 C1136 0.960 . S
C1124 H1116 0.929 . S
C1124 C1125 1.377 . S
C1124 C1126 1.384 . S
C1125 C1124 1.377 . S
C1125 C1131 1.390 . S
C1126 H1117 0.930 . S
C1126 C1124 1.384 . S
C1126 C1127 1.372 . S
C1127 C1126 1.372 . S
C1127 C1128 1.400 . S
C1127 C1132 1.490 . S
C1128 H1118 0.930 . S
C1128 C1127 1.400 . S
C1128 C1131 1.386 . S
H1129 C1145 0.930 . S
H1130 C1146 0.931 . S
C1131 H1119 0.929 . S
C1131 C1125 1.390 . S
C1131 C1128 1.386 . S
C1132 C1127 1.490 . S
C1132 C1134 1.395 . S
C1132 C1135 1.403 . S
H1133 C1139 0.930 . S
C1134 H1120 0.930 . S
C1134 C1132 1.395 . S
C1134 C1137 1.403 . S
C1135 C1132 1.403 . S
C1135 C1136 1.524 . S
C1135 C1139 1.400 . S
C1136 H1121 0.960 . S
C1136 H1122 0.960 . S
C1136 H1123 0.960 . S
C1136 C1135 1.524 . S
C1137 C1134 1.403 . S
C1137 C1138 1.392 . S
C1137 C1141 1.495 . S
C1138 C1137 1.392 . S
C1138 C1139 1.385 . S
C1138 C1140 1.478 . S
C1139 H1133 0.930 . S
C1139 C1135 1.400 . S
C1139 C1138 1.385 . S
C1140 C1138 1.478 . S
C1140 C1142 1.381 . S
C1140 C1146 1.383 . S
C1141 C1137 1.495 . S
C1141 H1147 0.959 . S
C1141 H1148 0.961 . S
C1141 H1149 0.960 . S
C1142 C1140 1.381 . S
C1142 C1143 1.394 . S
C1142 H1150 0.930 . S
C1143 C1142 1.394 . S
C1143 C1144 1.383 . S
C1143 H1151 0.929 . S
C1144 C1143 1.383 . S
C1144 C1145 1.377 . S
C1145 H1129 0.930 . S
C1145 C1144 1.377 . S
C1145 C1146 1.379 . S
C1146 H1130 0.931 . S
C1146 C1140 1.383 . S
C1146 C1145 1.379 . S
H1147 C1141 0.959 . S
H1148 C1141 0.961 . S
H1149 C1141 0.960 . S
H1150 C1142 0.930 . S
H1151 C1143 0.929 . S
H1152 C1160 0.929 . S
H1153 C1162 0.930 . S
H1154 C1164 0.930 . S
H1155 C1167 0.929 . S
H1156 C1170 0.930 . S
H1157 C1172 0.960 . S
H1158 C1172 0.960 1_455 S
H1159 C1172 0.960 . S
C1160 H1152 0.929 . S
C1160 C1161 1.377 . S
C1160 C1162 1.384 . S
C1161 C1160 1.377 . S
C1161 C1167 1.390 1_455 S
C1162 H1153 0.930 . S
C1162 C1160 1.384 . S
C1162 C1163 1.372 . S
C1163 C1162 1.372 . S
C1163 C1164 1.400 1_455 S
C1163 C1168 1.490 . S
C1164 H1154 0.930 . S
C1164 C1163 1.400 1_655 S
C1164 C1167 1.386 . S
H1165 C1181 0.930 . S
H1166 C1182 0.931 . S
C1167 H1155 0.929 . S
C1167 C1161 1.390 1_655 S
C1167 C1164 1.386 . S
C1168 C1163 1.490 . S
C1168 C1170 1.395 . S
C1168 C1171 1.403 1_455 S
H1169 C1175 0.930 . S
C1170 H1156 0.930 . S
C1170 C1168 1.395 . S
C1170 C1173 1.403 . S
C1171 C1168 1.403 1_655 S
C1171 C1172 1.524 . S
C1171 C1175 1.400 . S
C1172 H1157 0.960 . S
C1172 H1158 0.960 1_655 S
C1172 H1159 0.960 . S
C1172 C1171 1.524 . S
C1173 C1170 1.403 . S
C1173 C1174 1.392 1_455 S
C1173 C1177 1.495 . S
C1174 C1173 1.392 1_655 S
C1174 C1175 1.385 . S
C1174 C1176 1.478 . S
C1175 H1169 0.930 . S
C1175 C1171 1.400 . S
C1175 C1174 1.385 . S
C1176 C1174 1.478 . S
C1176 C1178 1.381 1_655 S
C1176 C1182 1.383 . S
C1177 C1173 1.495 . S
C1177 H1183 0.959 . S
C1177 H1184 0.956 1_455 S
C1177 H1185 0.960 . S
C1178 C1176 1.381 1_455 S
C1178 C1179 1.394 . S
C1178 H1186 0.930 . S
C1179 C1178 1.394 . S
C1179 C1180 1.383 1_455 S
C1179 H1187 0.929 . S
C1180 C1179 1.383 1_655 S
C1180 C1181 1.377 . S
C1181 H1165 0.930 . S
C1181 C1180 1.377 . S
C1181 C1182 1.379 . S
C1182 H1166 0.931 . S
C1182 C1176 1.383 . S
C1182 C1181 1.379 . S
H1183 C1177 0.959 . S
H1184 C1177 0.956 1_655 S
H1185 C1177 0.960 . S
H1186 C1178 0.930 . S
H1187 C1179 0.929 . S
H1188 C1196 0.929 . S
H1189 C1198 0.930 . S
H1190 C1200 0.930 . S
H1191 C1203 0.929 . S
H1192 C1206 0.930 . S
H1193 C1208 0.960 . S
H1194 C1208 0.960 . S
H1195 C1208 0.960 . S
C1196 H1188 0.929 . S
C1196 C1197 1.377 . S
C1196 C1198 1.384 . S
C1197 C1196 1.377 . S
C1197 C1203 1.390 . S
C1198 H1189 0.930 . S
C1198 C1196 1.384 . S
C1198 C1199 1.372 . S
C1199 C1198 1.372 . S
C1199 C1200 1.400 . S
C1199 C1204 1.490 . S
C1200 H1190 0.930 . S
C1200 C1199 1.400 . S
C1200 C1203 1.386 . S
H1201 C1217 0.930 . S
H1202 C1218 0.931 . S
C1203 H1191 0.929 . S
C1203 C1197 1.390 . S
C1203 C1200 1.386 . S
C1204 C1199 1.490 . S
C1204 C1206 1.395 . S
C1204 C1207 1.403 1_565 S
H1205 C1211 0.930 . S
C1206 H1192 0.930 . S
C1206 C1204 1.395 . S
C1206 C1209 1.403 . S
C1207 C1204 1.403 1_545 S
C1207 C1208 1.524 . S
C1207 C1211 1.400 . S
C1208 H1193 0.960 . S
C1208 H1194 0.960 . S
C1208 H1195 0.960 . S
C1208 C1207 1.524 . S
C1209 C1206 1.403 . S
C1209 C1210 1.390 1_565 S
C1209 C1213 1.495 . S
C1210 C1209 1.390 1_545 S
C1210 C1211 1.387 . S
C1210 C1212 1.478 . S
C1211 H1205 0.930 . S
C1211 C1207 1.400 . S
C1211 C1210 1.387 . S
C1212 C1210 1.478 . S
C1212 C1214 1.381 . S
C1212 C1218 1.383 . S
C1213 C1209 1.495 . S
C1213 H1219 0.959 . S
C1213 H1220 0.961 . S
C1213 H1221 0.960 . S
C1214 C1212 1.381 . S
C1214 C1215 1.394 . S
C1214 H1222 0.930 . S
C1215 C1214 1.394 . S
C1215 C1216 1.383 . S
C1215 H1223 0.929 . S
C1216 C1215 1.383 . S
C1216 C1217 1.377 . S
C1217 H1201 0.930 . S
C1217 C1216 1.377 . S
C1217 C1218 1.379 . S
C1218 H1202 0.931 . S
C1218 C1212 1.383 . S
C1218 C1217 1.379 . S
H1219 C1213 0.959 . S
H1220 C1213 0.961 . S
H1221 C1213 0.960 . S
H1222 C1214 0.930 . S
H1223 C1215 0.929 . S
H1224 C1232 0.929 . S
H1225 C1234 0.930 . S
H1226 C1236 0.930 . S
H1227 C1239 0.929 . S
H1228 C1242 0.930 . S
H1229 C1244 0.960 . S
H1230 C1244 0.960 . S
H1231 C1244 0.960 . S
C1232 H1224 0.929 . S
C1232 C1233 1.377 . S
C1232 C1234 1.384 . S
C1233 C1232 1.377 . S
C1233 C1239 1.390 . S
C1234 H1225 0.930 . S
C1234 C1232 1.384 . S
C1234 C1235 1.372 . S
C1235 C1234 1.372 . S
C1235 C1236 1.400 . S
C1235 C1240 1.490 . S
C1236 H1226 0.930 . S
C1236 C1235 1.400 . S
C1236 C1239 1.386 . S
H1237 C1253 0.930 . S
H1238 C1254 0.931 . S
C1239 H1227 0.929 . S
C1239 C1233 1.390 . S
C1239 C1236 1.386 . S
C1240 C1235 1.490 . S
C1240 C1242 1.395 . S
C1240 C1243 1.403 . S
H1241 C1247 0.930 . S
C1242 H1228 0.930 . S
C1242 C1240 1.395 . S
C1242 C1245 1.403 . S
C1243 C1240 1.403 . S
C1243 C1244 1.524 . S
C1243 C1247 1.400 . S
C1244 H1229 0.960 . S
C1244 H1230 0.960 . S
C1244 H1231 0.960 . S
C1244 C1243 1.524 . S
C1245 C1242 1.403 . S
C1245 C1246 1.392 . S
C1245 C1249 1.495 . S
C1246 C1245 1.392 . S
C1246 C1247 1.385 . S
C1246 C1248 1.478 . S
C1247 H1241 0.930 . S
C1247 C1243 1.400 . S
C1247 C1246 1.385 . S
C1248 C1246 1.478 . S
C1248 C1250 1.381 . S
C1248 C1254 1.383 . S
C1249 C1245 1.495 . S
C1249 H1255 0.959 . S
C1249 H1256 0.961 . S
C1249 H1257 0.960 . S
C1250 C1248 1.381 . S
C1250 C1251 1.394 . S
C1250 H1258 0.930 . S
C1251 C1250 1.394 . S
C1251 C1252 1.383 . S
C1251 H1259 0.929 . S
C1252 C1251 1.383 . S
C1252 C1253 1.377 . S
C1253 H1237 0.930 . S
C1253 C1252 1.377 . S
C1253 C1254 1.379 . S
C1254 H1238 0.931 . S
C1254 C1248 1.383 . S
C1254 C1253 1.379 . S
H1255 C1249 0.959 . S
H1256 C1249 0.961 . S
H1257 C1249 0.960 . S
H1258 C1250 0.930 . S
H1259 C1251 0.929 . S
H1260 C1268 0.929 . S
H1261 C1270 0.930 . S
H1262 C1272 0.930 . S
H1263 C1275 0.929 . S
H1264 C1278 0.918 . S
H1265 C1280 0.959 . S
H1266 C1280 0.960 1_455 S
H1267 C1280 0.960 . S
C1268 H1260 0.929 . S
C1268 C1269 1.377 1_455 S
C1268 C1270 1.384 . S
C1269 C1268 1.377 1_655 S
C1269 C1275 1.390 . S
C1270 H1261 0.930 . S
C1270 C1268 1.384 . S
C1270 C1271 1.372 1_455 S
C1271 C1270 1.372 1_655 S
C1271 C1272 1.400 . S
C1271 C1276 1.490 . S
C1272 H1262 0.930 . S
C1272 C1271 1.400 . S
C1272 C1275 1.386 . S
H1273 C1289 0.930 . S
H1274 C1290 0.931 . S
C1275 H1263 0.929 . S
C1275 C1269 1.390 . S
C1275 C1272 1.386 . S
C1276 C1271 1.490 . S
C1276 C1278 1.413 . S
C1276 C1279 1.403 . S
H1277 C1283 0.930 . S
C1278 H1264 0.918 . S
C1278 C1276 1.413 . S
C1278 C1281 1.398 1_655 S
C1279 C1276 1.403 . S
C1279 C1280 1.524 . S
C1279 C1283 1.400 1_655 S
C1280 H1265 0.959 . S
C1280 H1266 0.960 1_655 S
C1280 H1267 0.960 . S
C1280 C1279 1.524 . S
C1281 C1278 1.398 1_455 S
C1281 C1282 1.392 . S
C1281 C1285 1.495 . S
C1282 C1281 1.392 . S
C1282 C1283 1.385 . S
C1282 C1284 1.478 . S
C1283 H1277 0.930 . S
C1283 C1279 1.400 1_455 S
C1283 C1282 1.385 . S
C1284 C1282 1.478 . S
C1284 C1286 1.381 . S
C1284 C1290 1.383 1_455 S
C1285 C1281 1.495 . S
C1285 H1291 0.959 . S
C1285 H1292 0.961 1_455 S
C1285 H1293 0.960 . S
C1286 C1284 1.381 . S
C1286 C1287 1.394 . S
C1286 H1294 0.930 . S
C1287 C1286 1.394 . S
C1287 C1288 1.383 . S
C1287 H1295 0.929 . S
C1288 C1287 1.383 . S
C1288 C1289 1.377 1_455 S
C1289 H1273 0.930 . S
C1289 C1288 1.377 1_655 S
C1289 C1290 1.379 . S
C1290 H1274 0.931 . S
C1290 C1284 1.383 1_655 S
C1290 C1289 1.379 . S
H1291 C1285 0.959 . S
H1292 C1285 0.961 1_655 S
H1293 C1285 0.960 . S
H1294 C1286 0.930 . S
H1295 C1287 0.929 . S
C441 C4 1.837 . S
C460 C292 1.835 . S
C477 C40 1.838 . S
C496 C328 1.840 . S
C513 C364 1.837 . S
C532 C76 1.830 . S
C549 C400 1.836 . S
C568 C112 1.828 . S
C585 C220 1.838 . S
C604 C148 1.840 . S
C621 C256 1.838 . S
C640 C184 1.836 . S
C657 C14 1.512 . S
C676 C122 1.516 . S
C693 C158 1.511 . S
C712 C50 1.506 . S
C729 C194 1.505 . S
C748 C86 1.506 . S
C765 C230 1.504 . S
C784 C338 1.498 . S
C801 C374 1.512 . S
C820 C266 1.520 . S
C837 C302 1.505 . S
C856 C410 1.487 . S
C873 C218 0.619 . S
C892 C2 0.614 . S
C909 C38 0.628 . S
C928 C254 0.659 . S
C945 C290 0.619 . S
C964 C74 0.615 . S
C981 C326 0.621 . S
C1000 C110 0.627 . S
C1017 C146 0.631 . S
C1036 C362 0.633 . S
C1053 C398 0.635 . S
C1072 C182 0.677 . S
C1089 C3 0.837 . S
C1108 C255 0.825 . S
C1125 C291 0.840 . S
C1144 C39 0.840 . S
C1161 C327 0.840 . S
C1180 C75 0.840 . S
C1197 C111 0.835 . S
C1216 C363 0.818 . S
C1233 C399 0.834 . S
C1252 C147 0.818 . S
C1269 C219 0.835 . S
C1288 C183 0.829 . S
