# Generated by pormake.
# Topology uko, (4)-cn, num edge types: 1
# Building blocks:
#     Node 0, Type 0, BuildingBlock: QUQFOY_clean_sbu_1, # of connection points: 4
#     Node 1, Type 0, BuildingBlock: QUQFOY_clean_sbu_1, # of connection points: 4
#     Node 2, Type 0, BuildingBlock: QUQFOY_clean_sbu_1, # of connection points: 4
#     Node 3, Type 0, BuildingBlock: QUQFOY_clean_sbu_1, # of connection points: 4
#     Node 4, Type 0, BuildingBlock: QUQFOY_clean_sbu_1, # of connection points: 4
#     Node 5, Type 0, BuildingBlock: QUQFOY_clean_sbu_1, # of connection points: 4
#     Node 6, Type 0, BuildingBlock: QUQFOY_clean_sbu_1, # of connection points: 4
#     Node 7, Type 0, BuildingBlock: QUQFOY_clean_sbu_1, # of connection points: 4
#     Node 8, Type 0, BuildingBlock: QUQFOY_clean_sbu_1, # of connection points: 4
#     Node 9, Type 0, BuildingBlock: QUQFOY_clean_sbu_1, # of connection points: 4
#     Node 10, Type 0, BuildingBlock: QUQFOY_clean_sbu_1, # of connection points: 4
#     Node 11, Type 0, BuildingBlock: QUQFOY_clean_sbu_1, # of connection points: 4
#     Node 12, Type 0, BuildingBlock: QUQFOY_clean_sbu_1, # of connection points: 4
#     Node 13, Type 0, BuildingBlock: QUQFOY_clean_sbu_1, # of connection points: 4
#     Node 14, Type 0, BuildingBlock: QUQFOY_clean_sbu_1, # of connection points: 4
#     Node 15, Type 0, BuildingBlock: QUQFOY_clean_sbu_1, # of connection points: 4
#     Node 16, Type 0, BuildingBlock: QUQFOY_clean_sbu_1, # of connection points: 4
#     Node 17, Type 0, BuildingBlock: QUQFOY_clean_sbu_1, # of connection points: 4
#     Node 18, Type 0, BuildingBlock: QUQFOY_clean_sbu_1, # of connection points: 4
#     Node 19, Type 0, BuildingBlock: QUQFOY_clean_sbu_1, # of connection points: 4
#     Node 20, Type 0, BuildingBlock: QUQFOY_clean_sbu_1, # of connection points: 4
#     Node 21, Type 0, BuildingBlock: QUQFOY_clean_sbu_1, # of connection points: 4
#     Node 22, Type 0, BuildingBlock: QUQFOY_clean_sbu_1, # of connection points: 4
#     Node 23, Type 0, BuildingBlock: QUQFOY_clean_sbu_1, # of connection points: 4
#     Node 24, Type 0, BuildingBlock: QUQFOY_clean_sbu_1, # of connection points: 4
#     Node 25, Type 0, BuildingBlock: QUQFOY_clean_sbu_1, # of connection points: 4
#     Node 26, Type 0, BuildingBlock: QUQFOY_clean_sbu_1, # of connection points: 4
#     Node 27, Type 0, BuildingBlock: QUQFOY_clean_sbu_1, # of connection points: 4
#     Node 28, Type 0, BuildingBlock: QUQFOY_clean_sbu_1, # of connection points: 4
#     Node 29, Type 0, BuildingBlock: QUQFOY_clean_sbu_1, # of connection points: 4
#     Node 30, Type 0, BuildingBlock: QUQFOY_clean_sbu_1, # of connection points: 4
#     Node 31, Type 0, BuildingBlock: QUQFOY_clean_sbu_1, # of connection points: 4
#     Node 32, Type 0, BuildingBlock: QUQFOY_clean_sbu_1, # of connection points: 4
#     Node 33, Type 0, BuildingBlock: QUQFOY_clean_sbu_1, # of connection points: 4
#     Node 34, Type 0, BuildingBlock: QUQFOY_clean_sbu_1, # of connection points: 4
#     Node 35, Type 0, BuildingBlock: QUQFOY_clean_sbu_1, # of connection points: 4
#     Node 36, Type 0, BuildingBlock: QUQFOY_clean_sbu_1, # of connection points: 4
#     Node 37, Type 0, BuildingBlock: QUQFOY_clean_sbu_1, # of connection points: 4
#     Node 38, Type 0, BuildingBlock: QUQFOY_clean_sbu_1, # of connection points: 4
#     Node 39, Type 0, BuildingBlock: QUQFOY_clean_sbu_1, # of connection points: 4
#     Node 40, Type 0, BuildingBlock: QUQFOY_clean_sbu_1, # of connection points: 4
#     Node 41, Type 0, BuildingBlock: QUQFOY_clean_sbu_1, # of connection points: 4
#     Node 42, Type 0, BuildingBlock: QUQFOY_clean_sbu_1, # of connection points: 4
#     Node 43, Type 0, BuildingBlock: QUQFOY_clean_sbu_1, # of connection points: 4
#     Node 44, Type 0, BuildingBlock: QUQFOY_clean_sbu_1, # of connection points: 4
#     Node 45, Type 0, BuildingBlock: QUQFOY_clean_sbu_1, # of connection points: 4
#     Node 46, Type 0, BuildingBlock: QUQFOY_clean_sbu_1, # of connection points: 4
#     Node 47, Type 0, BuildingBlock: QUQFOY_clean_sbu_1, # of connection points: 4
#     Edge 48, Type (0, 0), BuildingBlock: XUDNAN_clean_linker_2, # of connection points: 2
#     Edge 49, Type (0, 0), BuildingBlock: XUDNAN_clean_linker_2, # of connection points: 2
#     Edge 50, Type (0, 0), BuildingBlock: XUDNAN_clean_linker_2, # of connection points: 2
#     Edge 51, Type (0, 0), BuildingBlock: XUDNAN_clean_linker_2, # of connection points: 2
#     Edge 52, Type (0, 0), BuildingBlock: XUDNAN_clean_linker_2, # of connection points: 2
#     Edge 53, Type (0, 0), BuildingBlock: XUDNAN_clean_linker_2, # of connection points: 2
#     Edge 54, Type (0, 0), BuildingBlock: XUDNAN_clean_linker_2, # of connection points: 2
#     Edge 55, Type (0, 0), BuildingBlock: XUDNAN_clean_linker_2, # of connection points: 2
#     Edge 56, Type (0, 0), BuildingBlock: XUDNAN_clean_linker_2, # of connection points: 2
#     Edge 57, Type (0, 0), BuildingBlock: XUDNAN_clean_linker_2, # of connection points: 2
#     Edge 58, Type (0, 0), BuildingBlock: XUDNAN_clean_linker_2, # of connection points: 2
#     Edge 59, Type (0, 0), BuildingBlock: XUDNAN_clean_linker_2, # of connection points: 2
#     Edge 60, Type (0, 0), BuildingBlock: XUDNAN_clean_linker_2, # of connection points: 2
#     Edge 61, Type (0, 0), BuildingBlock: XUDNAN_clean_linker_2, # of connection points: 2
#     Edge 62, Type (0, 0), BuildingBlock: XUDNAN_clean_linker_2, # of connection points: 2
#     Edge 63, Type (0, 0), BuildingBlock: XUDNAN_clean_linker_2, # of connection points: 2
#     Edge 64, Type (0, 0), BuildingBlock: XUDNAN_clean_linker_2, # of connection points: 2
#     Edge 65, Type (0, 0), BuildingBlock: XUDNAN_clean_linker_2, # of connection points: 2
#     Edge 66, Type (0, 0), BuildingBlock: XUDNAN_clean_linker_2, # of connection points: 2
#     Edge 67, Type (0, 0), BuildingBlock: XUDNAN_clean_linker_2, # of connection points: 2
#     Edge 68, Type (0, 0), BuildingBlock: XUDNAN_clean_linker_2, # of connection points: 2
#     Edge 69, Type (0, 0), BuildingBlock: XUDNAN_clean_linker_2, # of connection points: 2
#     Edge 70, Type (0, 0), BuildingBlock: XUDNAN_clean_linker_2, # of connection points: 2
#     Edge 71, Type (0, 0), BuildingBlock: XUDNAN_clean_linker_2, # of connection points: 2
#     Edge 72, Type (0, 0), BuildingBlock: XUDNAN_clean_linker_2, # of connection points: 2
#     Edge 73, Type (0, 0), BuildingBlock: XUDNAN_clean_linker_2, # of connection points: 2
#     Edge 74, Type (0, 0), BuildingBlock: XUDNAN_clean_linker_2, # of connection points: 2
#     Edge 75, Type (0, 0), BuildingBlock: XUDNAN_clean_linker_2, # of connection points: 2
#     Edge 76, Type (0, 0), BuildingBlock: XUDNAN_clean_linker_2, # of connection points: 2
#     Edge 77, Type (0, 0), BuildingBlock: XUDNAN_clean_linker_2, # of connection points: 2
#     Edge 78, Type (0, 0), BuildingBlock: XUDNAN_clean_linker_2, # of connection points: 2
#     Edge 79, Type (0, 0), BuildingBlock: XUDNAN_clean_linker_2, # of connection points: 2
#     Edge 80, Type (0, 0), BuildingBlock: XUDNAN_clean_linker_2, # of connection points: 2
#     Edge 81, Type (0, 0), BuildingBlock: XUDNAN_clean_linker_2, # of connection points: 2
#     Edge 82, Type (0, 0), BuildingBlock: XUDNAN_clean_linker_2, # of connection points: 2
#     Edge 83, Type (0, 0), BuildingBlock: XUDNAN_clean_linker_2, # of connection points: 2
#     Edge 84, Type (0, 0), BuildingBlock: XUDNAN_clean_linker_2, # of connection points: 2
#     Edge 85, Type (0, 0), BuildingBlock: XUDNAN_clean_linker_2, # of connection points: 2
#     Edge 86, Type (0, 0), BuildingBlock: XUDNAN_clean_linker_2, # of connection points: 2
#     Edge 87, Type (0, 0), BuildingBlock: XUDNAN_clean_linker_2, # of connection points: 2
#     Edge 88, Type (0, 0), BuildingBlock: XUDNAN_clean_linker_2, # of connection points: 2
#     Edge 89, Type (0, 0), BuildingBlock: XUDNAN_clean_linker_2, # of connection points: 2
#     Edge 90, Type (0, 0), BuildingBlock: XUDNAN_clean_linker_2, # of connection points: 2
#     Edge 91, Type (0, 0), BuildingBlock: XUDNAN_clean_linker_2, # of connection points: 2
#     Edge 92, Type (0, 0), BuildingBlock: XUDNAN_clean_linker_2, # of connection points: 2
#     Edge 93, Type (0, 0), BuildingBlock: XUDNAN_clean_linker_2, # of connection points: 2
#     Edge 94, Type (0, 0), BuildingBlock: XUDNAN_clean_linker_2, # of connection points: 2
#     Edge 95, Type (0, 0), BuildingBlock: XUDNAN_clean_linker_2, # of connection points: 2
#     Edge 96, Type (0, 0), BuildingBlock: XUDNAN_clean_linker_2, # of connection points: 2
#     Edge 97, Type (0, 0), BuildingBlock: XUDNAN_clean_linker_2, # of connection points: 2
#     Edge 98, Type (0, 0), BuildingBlock: XUDNAN_clean_linker_2, # of connection points: 2
#     Edge 99, Type (0, 0), BuildingBlock: XUDNAN_clean_linker_2, # of connection points: 2
#     Edge 100, Type (0, 0), BuildingBlock: XUDNAN_clean_linker_2, # of connection points: 2
#     Edge 101, Type (0, 0), BuildingBlock: XUDNAN_clean_linker_2, # of connection points: 2
#     Edge 102, Type (0, 0), BuildingBlock: XUDNAN_clean_linker_2, # of connection points: 2
#     Edge 103, Type (0, 0), BuildingBlock: XUDNAN_clean_linker_2, # of connection points: 2
#     Edge 104, Type (0, 0), BuildingBlock: XUDNAN_clean_linker_2, # of connection points: 2
#     Edge 105, Type (0, 0), BuildingBlock: XUDNAN_clean_linker_2, # of connection points: 2
#     Edge 106, Type (0, 0), BuildingBlock: XUDNAN_clean_linker_2, # of connection points: 2
#     Edge 107, Type (0, 0), BuildingBlock: XUDNAN_clean_linker_2, # of connection points: 2
#     Edge 108, Type (0, 0), BuildingBlock: XUDNAN_clean_linker_2, # of connection points: 2
#     Edge 109, Type (0, 0), BuildingBlock: XUDNAN_clean_linker_2, # of connection points: 2
#     Edge 110, Type (0, 0), BuildingBlock: XUDNAN_clean_linker_2, # of connection points: 2
#     Edge 111, Type (0, 0), BuildingBlock: XUDNAN_clean_linker_2, # of connection points: 2
#     Edge 112, Type (0, 0), BuildingBlock: XUDNAN_clean_linker_2, # of connection points: 2
#     Edge 113, Type (0, 0), BuildingBlock: XUDNAN_clean_linker_2, # of connection points: 2
#     Edge 114, Type (0, 0), BuildingBlock: XUDNAN_clean_linker_2, # of connection points: 2
#     Edge 115, Type (0, 0), BuildingBlock: XUDNAN_clean_linker_2, # of connection points: 2
#     Edge 116, Type (0, 0), BuildingBlock: XUDNAN_clean_linker_2, # of connection points: 2
#     Edge 117, Type (0, 0), BuildingBlock: XUDNAN_clean_linker_2, # of connection points: 2
#     Edge 118, Type (0, 0), BuildingBlock: XUDNAN_clean_linker_2, # of connection points: 2
#     Edge 119, Type (0, 0), BuildingBlock: XUDNAN_clean_linker_2, # of connection points: 2
#     Edge 120, Type (0, 0), BuildingBlock: XUDNAN_clean_linker_2, # of connection points: 2
#     Edge 121, Type (0, 0), BuildingBlock: XUDNAN_clean_linker_2, # of connection points: 2
#     Edge 122, Type (0, 0), BuildingBlock: XUDNAN_clean_linker_2, # of connection points: 2
#     Edge 123, Type (0, 0), BuildingBlock: XUDNAN_clean_linker_2, # of connection points: 2
#     Edge 124, Type (0, 0), BuildingBlock: XUDNAN_clean_linker_2, # of connection points: 2
#     Edge 125, Type (0, 0), BuildingBlock: XUDNAN_clean_linker_2, # of connection points: 2
#     Edge 126, Type (0, 0), BuildingBlock: XUDNAN_clean_linker_2, # of connection points: 2
#     Edge 127, Type (0, 0), BuildingBlock: XUDNAN_clean_linker_2, # of connection points: 2
#     Edge 128, Type (0, 0), BuildingBlock: XUDNAN_clean_linker_2, # of connection points: 2
#     Edge 129, Type (0, 0), BuildingBlock: XUDNAN_clean_linker_2, # of connection points: 2
#     Edge 130, Type (0, 0), BuildingBlock: XUDNAN_clean_linker_2, # of connection points: 2
#     Edge 131, Type (0, 0), BuildingBlock: XUDNAN_clean_linker_2, # of connection points: 2
#     Edge 132, Type (0, 0), BuildingBlock: XUDNAN_clean_linker_2, # of connection points: 2
#     Edge 133, Type (0, 0), BuildingBlock: XUDNAN_clean_linker_2, # of connection points: 2
#     Edge 134, Type (0, 0), BuildingBlock: XUDNAN_clean_linker_2, # of connection points: 2
#     Edge 135, Type (0, 0), BuildingBlock: XUDNAN_clean_linker_2, # of connection points: 2
#     Edge 136, Type (0, 0), BuildingBlock: XUDNAN_clean_linker_2, # of connection points: 2
#     Edge 137, Type (0, 0), BuildingBlock: XUDNAN_clean_linker_2, # of connection points: 2
#     Edge 138, Type (0, 0), BuildingBlock: XUDNAN_clean_linker_2, # of connection points: 2
#     Edge 139, Type (0, 0), BuildingBlock: XUDNAN_clean_linker_2, # of connection points: 2
#     Edge 140, Type (0, 0), BuildingBlock: XUDNAN_clean_linker_2, # of connection points: 2
#     Edge 141, Type (0, 0), BuildingBlock: XUDNAN_clean_linker_2, # of connection points: 2
#     Edge 142, Type (0, 0), BuildingBlock: XUDNAN_clean_linker_2, # of connection points: 2
#     Edge 143, Type (0, 0), BuildingBlock: XUDNAN_clean_linker_2, # of connection points: 2
# Relax obj value: 0.232
# Max RMSD: 0.112
# Mean RMSD: 0.112
data_MOF--net-uko--node1-QUQFOY_clean_sbu_1--edge1-XUDNAN_clean_linker_2
_symmetry_space_group_name_H-M    P1
_symmetry_Int_Tables_number       1
_symmetry_cell_setting            triclinic
loop_
_symmetry_equiv_pos_as_xyz
'x, y, z'
_cell_length_a     56.912857
_cell_length_b     56.841874
_cell_length_c     56.852509
_cell_angle_alpha  89.993597
_cell_angle_beta   89.999389
_cell_angle_gamma 89.990821
loop_
_atom_site_label
_atom_site_type_symbol
_atom_site_fract_x
_atom_site_fract_y
_atom_site_fract_z
_atom_type_partial_charge
O0 O 0.01579 0.37206 0.29603 0.0
Cd1 Cd 0.99767 0.37426 0.26489 0.0
Cd2 Cd 0.0369 0.39937 0.25097 0.0
O3 O 0.04795 0.39007 0.28425 0.0
O4 O 0.97872 0.34496 0.26404 0.0
O5 O 0.00805 0.35221 0.2393 0.0
C6 C 0.99248 0.33778 0.24746 0.0
C7 C 0.06773 0.40244 0.22411 0.0
C8 C 0.03661 0.37901 0.29995 0.0
C9 C 0.98813 0.42285 0.25012 0.0
O10 O 0.01013 0.42328 0.24629 0.0
O11 O 0.97833 0.40443 0.25815 0.0
O12 O 0.06404 0.41821 0.2399 0.0
O13 O 0.05357 0.38472 0.22323 0.0
O14 O 0.98094 0.13132 0.29283 0.0
Cd15 Cd 0.99917 0.1292 0.26182 0.0
Cd16 Cd 0.95907 0.09619 0.25228 0.0
O17 O 0.94904 0.11111 0.28383 0.0
O18 O 0.0174 0.15898 0.26209 0.0
O19 O 0.98919 0.15154 0.23619 0.0
C20 C 0.0041 0.16616 0.24517 0.0
C21 C 0.92837 0.07722 0.2325 0.0
C22 C 0.96047 0.12409 0.29794 0.0
C23 C 0.01199 0.08059 0.25037 0.0
O24 O 0.98994 0.07772 0.24852 0.0
O25 O 0.02064 0.10039 0.25604 0.0
O26 O 0.93745 0.06876 0.25137 0.0
O27 O 0.93637 0.09702 0.22482 0.0
O28 O 0.02093 0.64221 0.21586 0.0
Cd29 Cd 0.00347 0.63626 0.24742 0.0
Cd30 Cd 0.04075 0.6075 0.25542 0.0
O31 O 0.05311 0.62278 0.22533 0.0
O32 O 0.98522 0.66527 0.25493 0.0
O33 O 0.01653 0.65383 0.27508 0.0
C34 C 0.00042 0.66944 0.27128 0.0
C35 C 0.06906 0.59891 0.28387 0.0
C36 C 0.0418 0.63573 0.21111 0.0
C37 C 0.99227 0.58569 0.25094 0.0
O38 O 0.01441 0.58328 0.25178 0.0
O39 O 0.98297 0.60603 0.25083 0.0
O40 O 0.06735 0.58692 0.26477 0.0
O41 O 0.05451 0.61604 0.28703 0.0
O42 O 0.99032 0.85601 0.22028 0.0
Cd43 Cd 0.99764 0.86813 0.25385 0.0
Cd44 Cd 0.95917 0.89615 0.24232 0.0
O45 O 0.95448 0.87053 0.21744 0.0
O46 O 0.01852 0.84343 0.26739 0.0
O47 O 0.98166 0.84875 0.27875 0.0
C48 C 0.00074 0.83642 0.27955 0.0
C49 C 0.92602 0.9136 0.2592 0.0
C50 C 0.97054 0.85701 0.2099 0.0
C51 C 0.00694 0.91879 0.24793 0.0
O52 O 0.98676 0.91903 0.23845 0.0
O53 O 0.01422 0.90049 0.25854 0.0
O54 O 0.93208 0.91784 0.23781 0.0
O55 O 0.93837 0.89862 0.27099 0.0
O56 O 0.28318 0.01783 0.36274 0.0
Cd57 Cd 0.25157 0.0012 0.36824 0.0
Cd58 Cd 0.24105 0.04084 0.39484 0.0
O59 O 0.27376 0.05022 0.382 0.0
O60 O 0.24446 0.98088 0.34062 0.0
O61 O 0.2252 0.01393 0.34856 0.0
C62 C 0.22884 0.99627 0.33469 0.0
C63 C 0.2149 0.072 0.40119 0.0
C64 C 0.28821 0.0385 0.36961 0.0
C65 C 0.24119 0.99237 0.41847 0.0
O66 O 0.23802 0.01446 0.41946 0.0
O67 O 0.24705 0.98255 0.39928 0.0
O68 O 0.2328 0.06854 0.41455 0.0
O69 O 0.21186 0.05786 0.38368 0.0
O70 O 0.71424 0.48929 0.35326 0.0
Cd71 Cd 0.7481 0.49648 0.3646 0.0
Cd72 Cd 0.74219 0.45532 0.38569 0.0
O73 O 0.71463 0.45168 0.36278 0.0
O74 O 0.76169 0.51858 0.34094 0.0
O75 O 0.77227 0.48115 0.34398 0.0
C76 C 0.77331 0.50089 0.33273 0.0
C77 C 0.76899 0.42499 0.39146 0.0
C78 C 0.70498 0.46892 0.35237 0.0
C79 C 0.74534 0.49812 0.41634 0.0
O80 O 0.73785 0.47723 0.41396 0.0
O81 O 0.75353 0.50915 0.39868 0.0
O82 O 0.74816 0.42411 0.40033 0.0
O83 O 0.77437 0.44283 0.37844 0.0
O84 O 0.2812 0.00165 0.14235 0.0
Cd85 Cd 0.24666 0.00918 0.13488 0.0
Cd86 Cd 0.24664 0.9646 0.11741 0.0
O87 O 0.27806 0.96356 0.13549 0.0
O88 O 0.23265 0.02634 0.16221 0.0
O89 O 0.22439 0.98931 0.15316 0.0
C90 C 0.22251 0.00671 0.16768 0.0
C91 C 0.22432 0.93032 0.11407 0.0
C92 C 0.28981 0.98101 0.14306 0.0
C93 C 0.23966 0.00674 0.08416 0.0
O94 O 0.24357 0.98505 0.08781 0.0
O95 O 0.23867 0.02109 0.10129 0.0
O96 O 0.2439 0.93284 0.10303 0.0
O97 O 0.21787 0.94686 0.12821 0.0
O98 O 0.71135 0.5293 0.14129 0.0
Cd99 Cd 0.74187 0.51103 0.13323 0.0
Cd100 Cd 0.74738 0.5504 0.1028 0.0
O101 O 0.72076 0.56259 0.12362 0.0
O102 O 0.74933 0.49152 0.16144 0.0
O103 O 0.77062 0.52222 0.15039 0.0
C104 C 0.76638 0.5059 0.16568 0.0
C105 C 0.76888 0.57972 0.08332 0.0
C106 C 0.70717 0.55084 0.13684 0.0
C107 C 0.73948 0.50057 0.08284 0.0
O108 O 0.74004 0.52279 0.08094 0.0
O109 O 0.74239 0.49073 0.1027 0.0
O110 O 0.74747 0.57507 0.078 0.0
O111 O 0.77832 0.56805 0.10034 0.0
O112 O 0.37755 0.29726 0.00772 0.0
Cd113 Cd 0.37812 0.26585 0.98993 0.0
Cd114 Cd 0.39612 0.24641 0.03179 0.0
O115 O 0.38296 0.27899 0.04163 0.0
O116 O 0.34992 0.26163 0.96967 0.0
O117 O 0.35573 0.24222 0.00315 0.0
C118 C 0.34239 0.24699 0.98536 0.0
C119 C 0.40038 0.22056 0.0636 0.0
C120 C 0.37809 0.29747 0.03004 0.0
C121 C 0.42522 0.24637 0.98546 0.0
O122 O 0.42265 0.24207 0.00726 0.0
O123 O 0.4089 0.25608 0.97379 0.0
O124 O 0.41415 0.23822 0.06061 0.0
O125 O 0.38374 0.21747 0.04849 0.0
O126 O 0.36631 0.7138 0.47949 0.0
Cd127 Cd 0.371 0.74714 0.49337 0.0
Cd128 Cd 0.3884 0.75555 0.45074 0.0
O129 O 0.36852 0.72635 0.44282 0.0
O130 O 0.34298 0.75722 0.512 0.0
O131 O 0.35257 0.77222 0.47727 0.0
C132 C 0.33791 0.77099 0.4946 0.0
C133 C 0.39481 0.78328 0.42104 0.0
C134 C 0.36378 0.71025 0.45756 0.0
C135 C 0.42102 0.75264 0.49369 0.0
O136 O 0.41765 0.75124 0.47163 0.0
O137 O 0.40362 0.75434 0.50757 0.0
O138 O 0.40419 0.76271 0.42038 0.0
O139 O 0.38077 0.788 0.43823 0.0
O140 O 0.65324 0.79007 0.49499 0.0
Cd141 Cd 0.64224 0.75691 0.50474 0.0
Cd142 Cd 0.6257 0.75564 0.45984 0.0
O143 O 0.64609 0.78551 0.45707 0.0
O144 O 0.6674 0.74191 0.524 0.0
O145 O 0.65905 0.73169 0.48729 0.0
C146 C 0.67261 0.72983 0.50543 0.0
C147 C 0.62093 0.73053 0.42779 0.0
C148 C 0.65477 0.79741 0.4739 0.0
C149 C 0.5914 0.75306 0.50151 0.0
O150 O 0.59574 0.7558 0.47978 0.0
O151 O 0.60808 0.75185 0.51631 0.0
O152 O 0.61159 0.75115 0.42819 0.0
O153 O 0.63456 0.72466 0.44496 0.0
O154 O 0.14107 0.72542 0.50543 0.0
Cd155 Cd 0.1365 0.76009 0.49534 0.0
Cd156 Cd 0.12102 0.76241 0.54025 0.0
O157 O 0.14636 0.73662 0.5421 0.0
O158 O 0.1622 0.77023 0.47399 0.0
O159 O 0.15875 0.78218 0.51111 0.0
C160 C 0.17067 0.78166 0.49173 0.0
C161 C 0.10648 0.77636 0.57632 0.0
C162 C 0.14811 0.72107 0.52618 0.0
C163 C 0.08722 0.76269 0.49782 0.0
O164 O 0.09217 0.75731 0.51892 0.0
O165 O 0.10338 0.76921 0.48392 0.0
O166 O 0.11895 0.78998 0.56315 0.0
O167 O 0.10399 0.75492 0.56976 0.0
O168 O 0.97003 0.63556 0.71926 0.0
Cd169 Cd 0.98816 0.62857 0.75018 0.0
Cd170 Cd 0.9511 0.59511 0.75358 0.0
O171 O 0.93796 0.6149 0.72657 0.0
O172 O 0.00879 0.6565 0.7553 0.0
O173 O 0.97785 0.64856 0.77759 0.0
C174 C 0.99491 0.66255 0.77216 0.0
C175 C 0.92353 0.57577 0.77723 0.0
C176 C 0.94916 0.62949 0.71393 0.0
C177 C 0.00184 0.57842 0.74781 0.0
O178 O 0.97991 0.5747 0.74655 0.0
O179 O 0.00975 0.59892 0.75192 0.0
O180 O 0.9347 0.59382 0.78526 0.0
O181 O 0.92759 0.56938 0.75595 0.0
O182 O 0.00685 0.85515 0.71455 0.0
Cd183 Cd 0.99508 0.86363 0.74765 0.0
Cd184 Cd 0.03795 0.89279 0.74562 0.0
O185 O 0.04207 0.87149 0.71645 0.0
O186 O 0.97649 0.83585 0.75831 0.0
O187 O 0.01118 0.84542 0.77319 0.0
C188 C 0.99396 0.83061 0.77184 0.0
C189 C 0.07189 0.91016 0.76085 0.0
C190 C 0.02726 0.85837 0.70606 0.0
C191 C 0.98812 0.91461 0.75285 0.0
O192 O 0.01018 0.91552 0.74973 0.0
O193 O 0.97734 0.89504 0.75325 0.0
O194 O 0.06304 0.91665 0.74108 0.0
O195 O 0.06217 0.89271 0.77165 0.0
O196 O 0.99411 0.3661 0.78376 0.0
Cd197 Cd 0.00892 0.36847 0.75088 0.0
Cd198 Cd 0.96878 0.39379 0.74036 0.0
O199 O 0.96037 0.38249 0.77385 0.0
O200 O 0.02542 0.33825 0.74392 0.0
O201 O 0.99218 0.34918 0.72671 0.0
C202 C 0.00801 0.3332 0.73019 0.0
C203 C 0.93706 0.3997 0.71485 0.0
C204 C 0.97325 0.37219 0.78892 0.0
C205 C 0.01716 0.41768 0.73729 0.0
O206 O 0.99491 0.41824 0.73576 0.0
O207 O 0.02772 0.39881 0.74298 0.0
O208 O 0.94104 0.41347 0.73234 0.0
O209 O 0.9509 0.38194 0.71197 0.0
O210 O 0.02207 0.13568 0.78944 0.0
Cd211 Cd 0.00466 0.13002 0.7578 0.0
Cd212 Cd 0.04277 0.10297 0.74864 0.0
O213 O 0.05521 0.11895 0.77825 0.0
O214 O 0.98407 0.15781 0.75178 0.0
O215 O 0.01666 0.15054 0.73163 0.0
C216 C 0.99914 0.16432 0.73611 0.0
C217 C 0.07054 0.09551 0.71941 0.0
C218 C 0.04353 0.13061 0.79323 0.0
C219 C 0.99574 0.07885 0.75361 0.0
O220 O 0.01796 0.0774 0.75313 0.0
O221 O 0.98564 0.09882 0.7533 0.0
O222 O 0.07014 0.08378 0.73874 0.0
O223 O 0.05501 0.11182 0.71652 0.0
O224 O 0.70078 0.98955 0.62939 0.0
Cd225 Cd 0.73269 0.00634 0.6264 0.0
Cd226 Cd 0.74597 0.96674 0.60184 0.0
O227 O 0.71278 0.95675 0.61244 0.0
O228 O 0.74023 0.02289 0.65651 0.0
O229 O 0.75829 0.99047 0.64448 0.0
C230 C 0.75499 0.00609 0.6607 0.0
C231 C 0.77306 0.93613 0.59765 0.0
C232 C 0.69695 0.96848 0.62295 0.0
C233 C 0.74679 0.0148 0.57727 0.0
O234 O 0.75009 0.99271 0.57712 0.0
O235 O 0.73954 0.02511 0.59574 0.0
O236 O 0.756 0.93901 0.58311 0.0
O237 O 0.77467 0.95055 0.61512 0.0
O238 O 0.27402 0.52338 0.64466 0.0
Cd239 Cd 0.24107 0.5104 0.636 0.0
Cd240 Cd 0.23804 0.55032 0.61252 0.0
O241 O 0.2644 0.55963 0.63506 0.0
O242 O 0.22878 0.49216 0.66323 0.0
O243 O 0.21457 0.52682 0.65223 0.0
C244 C 0.21484 0.50968 0.66723 0.0
C245 C 0.21335 0.58038 0.59951 0.0
C246 C 0.2787 0.54526 0.64435 0.0
C247 C 0.24346 0.50495 0.58541 0.0
O248 O 0.2466 0.52704 0.58636 0.0
O249 O 0.23741 0.49364 0.60372 0.0
O250 O 0.23536 0.58018 0.59457 0.0
O251 O 0.20506 0.56367 0.61243 0.0
O252 O 0.70922 0.01497 0.86213 0.0
Cd253 Cd 0.7425 0.00122 0.86508 0.0
Cd254 Cd 0.7527 0.04315 0.88608 0.0
O255 O 0.71901 0.05034 0.87482 0.0
O256 O 0.74899 0.9804 0.83762 0.0
O257 O 0.76538 0.01554 0.84244 0.0
C258 C 0.76212 0.99709 0.82953 0.0
C259 C 0.77868 0.07498 0.88809 0.0
C260 C 0.70386 0.03627 0.86637 0.0
C261 C 0.75616 0.99779 0.91491 0.0
O262 O 0.75715 0.02006 0.91348 0.0
O263 O 0.7512 0.98553 0.89689 0.0
O264 O 0.76126 0.07286 0.90232 0.0
O265 O 0.78113 0.05924 0.87191 0.0
O266 O 0.26864 0.49934 0.85398 0.0
Cd267 Cd 0.23475 0.50687 0.86447 0.0
Cd268 Cd 0.23372 0.4617 0.87528 0.0
O269 O 0.26241 0.46105 0.85327 0.0
O270 O 0.22017 0.52965 0.84208 0.0
O271 O 0.2111 0.49167 0.84358 0.0
C272 C 0.20914 0.51183 0.83323 0.0
C273 C 0.20758 0.43016 0.87738 0.0
C274 C 0.27537 0.47867 0.84866 0.0
C275 C 0.23366 0.49741 0.91478 0.0
O276 O 0.23802 0.47668 0.90772 0.0
O277 O 0.22905 0.51352 0.89996 0.0
O278 O 0.2292 0.42802 0.88366 0.0
O279 O 0.20101 0.4499 0.8683 0.0
O280 O 0.65356 0.72244 0.98545 0.0
Cd281 Cd 0.64291 0.75596 0.99418 0.0
Cd282 Cd 0.62595 0.75575 0.94914 0.0
O283 O 0.64553 0.7251 0.94755 0.0
O284 O 0.66771 0.77009 0.01451 0.0
O285 O 0.66104 0.78109 0.97768 0.0
C286 C 0.67388 0.78242 0.99642 0.0
C287 C 0.62178 0.77887 0.91544 0.0
C288 C 0.65449 0.71397 0.96476 0.0
C289 C 0.59188 0.7606 0.99098 0.0
O290 O 0.59595 0.7575 0.96924 0.0
O291 O 0.60872 0.76151 0.00563 0.0
O292 O 0.6118 0.75864 0.91734 0.0
O293 O 0.63557 0.78552 0.9322 0.0
O294 O 0.64032 0.28183 0.52864 0.0
Cd295 Cd 0.6336 0.2513 0.51039 0.0
Cd296 Cd 0.61289 0.2371 0.55187 0.0
O297 O 0.62801 0.26816 0.56285 0.0
O298 O 0.65934 0.24551 0.48744 0.0
O299 O 0.65428 0.22449 0.52003 0.0
C300 C 0.66663 0.22924 0.50154 0.0
C301 C 0.60675 0.20868 0.58106 0.0
C302 C 0.63745 0.28435 0.55068 0.0
C303 C 0.5829 0.24254 0.50722 0.0
O304 O 0.585 0.23843 0.52906 0.0
O305 O 0.60083 0.24763 0.49493 0.0
O306 O 0.59521 0.22809 0.58056 0.0
O307 O 0.62273 0.20548 0.56528 0.0
O308 O 0.35392 0.22468 0.50438 0.0
Cd309 Cd 0.36316 0.25919 0.49786 0.0
Cd310 Cd 0.37758 0.25764 0.54165 0.0
O311 O 0.35649 0.22839 0.5429 0.0
O312 O 0.33921 0.27334 0.47652 0.0
O313 O 0.34211 0.28167 0.51459 0.0
C314 C 0.33072 0.28353 0.495 0.0
C315 C 0.38029 0.28251 0.57424 0.0
C316 C 0.35051 0.21652 0.52494 0.0
C317 C 0.41387 0.25951 0.50269 0.0
O318 O 0.40864 0.25416 0.52373 0.0
O319 O 0.39784 0.26572 0.48841 0.0
O320 O 0.38901 0.26162 0.57444 0.0
O321 O 0.36895 0.28911 0.55573 0.0
O322 O 0.85819 0.28949 0.47468 0.0
Cd323 Cd 0.86583 0.25791 0.49151 0.0
Cd324 Cd 0.89195 0.25067 0.45316 0.0
O325 O 0.87478 0.27982 0.44097 0.0
O326 O 0.83781 0.24909 0.51061 0.0
O327 O 0.84849 0.23041 0.47809 0.0
C328 C 0.83336 0.23337 0.4948 0.0
C329 C 0.89938 0.22047 0.42636 0.0
C330 C 0.86263 0.29398 0.4532 0.0
C331 C 0.91688 0.25598 0.49981 0.0
O332 O 0.91785 0.25605 0.47752 0.0
O333 O 0.8972 0.25455 0.51031 0.0
O334 O 0.91055 0.24014 0.42559 0.0
O335 O 0.88343 0.21791 0.4423 0.0
O336 O 0.52583 0.85638 0.78374 0.0
Cd337 Cd 0.50354 0.85949 0.75553 0.0
Cd338 Cd 0.53993 0.88961 0.73972 0.0
O339 O 0.55541 0.87757 0.77041 0.0
O340 O 0.485 0.83015 0.75734 0.0
O341 O 0.50963 0.83802 0.72809 0.0
C342 C 0.4957 0.82339 0.7385 0.0
C343 C 0.56639 0.90002 0.71009 0.0
C344 C 0.54655 0.86431 0.78604 0.0
C345 C 0.48903 0.90794 0.74577 0.0
O346 O 0.51046 0.91067 0.74012 0.0
O347 O 0.48155 0.88828 0.75324 0.0
O348 O 0.56357 0.91272 0.72858 0.0
O349 O 0.55426 0.8809 0.70837 0.0
O350 O 0.4771 0.6214 0.78628 0.0
Cd351 Cd 0.49352 0.61597 0.75427 0.0
Cd352 Cd 0.45701 0.58471 0.75098 0.0
O353 O 0.44609 0.59863 0.78226 0.0
O354 O 0.51358 0.64435 0.75274 0.0
O355 O 0.48418 0.63796 0.72801 0.0
C356 C 0.50024 0.65187 0.73604 0.0
C357 C 0.42779 0.58019 0.7229 0.0
C358 C 0.45765 0.61361 0.794 0.0
C359 C 0.50693 0.56595 0.74995 0.0
O360 O 0.485 0.56204 0.75114 0.0
O361 O 0.51495 0.58681 0.74964 0.0
O362 O 0.43001 0.56557 0.74008 0.0
O363 O 0.44276 0.59721 0.72125 0.0
O364 O 0.51901 0.12104 0.71245 0.0
Cd365 Cd 0.49948 0.11699 0.74288 0.0
Cd366 Cd 0.53536 0.08691 0.75242 0.0
O367 O 0.55005 0.10015 0.72228 0.0
O368 O 0.48017 0.14591 0.74235 0.0
O369 O 0.50712 0.13892 0.76965 0.0
C370 C 0.49213 0.15313 0.76019 0.0
C371 C 0.56141 0.08051 0.78329 0.0
C372 C 0.53962 0.11372 0.708 0.0
C373 C 0.4858 0.06741 0.74798 0.0
O374 O 0.50778 0.06388 0.74944 0.0
O375 O 0.47754 0.0881 0.74646 0.0
O376 O 0.56056 0.06672 0.76536 0.0
O377 O 0.54709 0.09814 0.78392 0.0
O378 O 0.4627 0.35848 0.71503 0.0
Cd379 Cd 0.48391 0.36153 0.74403 0.0
Cd380 Cd 0.44772 0.39997 0.75222 0.0
O381 O 0.43579 0.38584 0.72095 0.0
O382 O 0.50253 0.33223 0.7414 0.0
O383 O 0.47802 0.33904 0.77089 0.0
C384 C 0.49204 0.32481 0.76007 0.0
C385 C 0.41854 0.4204 0.77281 0.0
C386 C 0.44414 0.36913 0.70874 0.0
C387 C 0.50175 0.40967 0.75204 0.0
O388 O 0.48038 0.41534 0.75522 0.0
O389 O 0.50757 0.38892 0.74624 0.0
O390 O 0.42818 0.42892 0.75423 0.0
O391 O 0.42542 0.39997 0.77995 0.0
O392 O 0.77847 0.49676 0.86303 0.0
Cd393 Cd 0.74342 0.49057 0.86847 0.0
Cd394 Cd 0.74677 0.53495 0.89309 0.0
O395 O 0.77806 0.53396 0.87434 0.0
O396 O 0.73196 0.47106 0.84177 0.0
O397 O 0.72261 0.50869 0.84652 0.0
C398 C 0.72193 0.48982 0.8338 0.0
C399 C 0.73449 0.57192 0.90681 0.0
C400 C 0.78853 0.51663 0.86478 0.0
C401 C 0.7337 0.48834 0.91888 0.0
O402 O 0.73884 0.51006 0.91826 0.0
O403 O 0.73346 0.47606 0.90025 0.0
O404 O 0.75283 0.56156 0.91497 0.0
O405 O 0.72355 0.56193 0.88962 0.0
O406 O 0.21272 0.99716 0.85013 0.0
Cd407 Cd 0.24591 0.006 0.86191 0.0
Cd408 Cd 0.24528 0.96222 0.87869 0.0
O409 O 0.21693 0.95911 0.85658 0.0
O410 O 0.25993 0.0282 0.83861 0.0
O411 O 0.27089 0.99091 0.84235 0.0
C412 C 0.27199 0.01054 0.83091 0.0
C413 C 0.27161 0.93102 0.88237 0.0
C414 C 0.20537 0.97614 0.84789 0.0
C415 C 0.24488 0.00276 0.9134 0.0
O416 O 0.24108 0.9812 0.90901 0.0
O417 O 0.24991 0.01683 0.89673 0.0
O418 O 0.2509 0.93011 0.89145 0.0
O419 O 0.2772 0.94941 0.87028 0.0
O420 O 0.79286 0.47913 0.63873 0.0
Cd421 Cd 0.76103 0.4957 0.63361 0.0
Cd422 Cd 0.74847 0.45456 0.61125 0.0
O423 O 0.78149 0.44548 0.62307 0.0
O424 O 0.75192 0.51366 0.66242 0.0
O425 O 0.73444 0.48072 0.65098 0.0
C426 C 0.73679 0.49718 0.66651 0.0
C427 C 0.72239 0.42312 0.60674 0.0
C428 C 0.79698 0.45779 0.63342 0.0
C429 C 0.74812 0.50125 0.58388 0.0
O430 O 0.74472 0.47922 0.58516 0.0
O431 O 0.75516 0.51269 0.60176 0.0
O432 O 0.73997 0.42615 0.59288 0.0
O433 O 0.71968 0.43782 0.62382 0.0
O434 O 0.214 0.02197 0.63638 0.0
Cd435 Cd 0.24645 0.00645 0.6304 0.0
Cd436 Cd 0.25001 0.04436 0.59892 0.0
O437 O 0.22089 0.05497 0.61707 0.0
O438 O 0.25488 0.98939 0.65987 0.0
O439 O 0.27329 0.0215 0.64768 0.0
C440 C 0.27023 0.00567 0.66375 0.0
C441 C 0.27097 0.07454 0.58038 0.0
C442 C 0.20787 0.04266 0.63036 0.0
C443 C 0.24778 0.99355 0.58057 0.0
O444 O 0.2465 0.01562 0.57762 0.0
O445 O 0.25022 0.98485 0.60102 0.0
O446 O 0.25053 0.06814 0.57334 0.0
O447 O 0.27966 0.06421 0.59861 0.0
O448 O 0.85914 0.79384 0.52515 0.0
Cd449 Cd 0.86755 0.76239 0.50921 0.0
Cd450 Cd 0.88861 0.75173 0.55098 0.0
O451 O 0.87362 0.78355 0.55967 0.0
O452 O 0.84206 0.75231 0.48755 0.0
O453 O 0.84956 0.73493 0.52178 0.0
C454 C 0.83662 0.73671 0.50317 0.0
C455 C 0.89253 0.72463 0.58167 0.0
C456 C 0.86289 0.79829 0.54674 0.0
C457 C 0.91832 0.75402 0.50611 0.0
O458 O 0.91651 0.75086 0.52814 0.0
O459 O 0.90032 0.75891 0.49388 0.0
O460 O 0.90507 0.74342 0.58063 0.0
O461 O 0.87706 0.72132 0.56541 0.0
O462 O 0.87002 0.21163 0.96342 0.0
Cd463 Cd 0.87676 0.2413 0.98357 0.0
Cd464 Cd 0.90487 0.24961 0.94534 0.0
O465 O 0.8872 0.2221 0.93034 0.0
O466 O 0.8503 0.23981 0.00617 0.0
O467 O 0.854 0.26833 0.9799 0.0
C468 C 0.84163 0.25813 0.996 0.0
C469 C 0.91426 0.28112 0.92085 0.0
C470 C 0.87444 0.20789 0.94182 0.0
C471 C 0.9276 0.24145 0.99297 0.0
O472 O 0.92933 0.24198 0.97071 0.0
O473 O 0.9077 0.24335 0.00291 0.0
O474 O 0.92514 0.26132 0.91953 0.0
O475 O 0.89759 0.28314 0.93612 0.0
O476 O 0.13752 0.2962 0.97822 0.0
Cd477 Cd 0.13795 0.26449 0.9957 0.0
Cd478 Cd 0.11681 0.24701 0.95482 0.0
O479 O 0.12861 0.27968 0.94413 0.0
O480 O 0.16874 0.25923 0.01166 0.0
O481 O 0.15745 0.24031 0.97943 0.0
C482 C 0.17361 0.24474 0.9948 0.0
C483 C 0.1098 0.22037 0.92431 0.0
C484 C 0.13468 0.29752 0.95611 0.0
C485 C 0.09091 0.24617 0.00297 0.0
O486 O 0.09205 0.24303 0.98088 0.0
O487 O 0.10825 0.25468 0.01413 0.0
O488 O 0.09669 0.23847 0.92765 0.0
O489 O 0.12768 0.21758 0.93799 0.0
O490 O 0.64075 0.20997 0.04106 0.0
Cd491 Cd 0.63488 0.23959 0.02057 0.0
Cd492 Cd 0.59829 0.24248 0.05688 0.0
O493 O 0.61694 0.21534 0.07124 0.0
O494 O 0.66337 0.23794 0.00055 0.0
O495 O 0.65694 0.26711 0.0255 0.0
C496 C 0.67078 0.2567 0.01083 0.0
C497 C 0.5775 0.26602 0.08341 0.0
C498 C 0.63308 0.20377 0.06113 0.0
C499 C 0.58544 0.23732 0.00454 0.0
O500 O 0.58039 0.23648 0.02627 0.0
O501 O 0.60641 0.2407 0.99767 0.0
O502 O 0.57106 0.24489 0.07864 0.0
O503 O 0.59627 0.27394 0.07341 0.0
O504 O 0.47014 0.1448 0.21322 0.0
Cd505 Cd 0.48629 0.13876 0.24546 0.0
Cd506 Cd 0.44889 0.1101 0.2513 0.0
O507 O 0.43695 0.12665 0.22162 0.0
O508 O 0.50461 0.16767 0.25331 0.0
O509 O 0.47261 0.15671 0.2726 0.0
C510 C 0.48897 0.17213 0.26917 0.0
C511 C 0.4212 0.10107 0.28029 0.0
C512 C 0.44916 0.13921 0.20781 0.0
C513 C 0.49731 0.08813 0.24775 0.0
O514 O 0.47515 0.08579 0.24689 0.0
O515 O 0.50654 0.10842 0.24958 0.0
O516 O 0.42202 0.08982 0.26067 0.0
O517 O 0.43609 0.1179 0.28351 0.0
O518 O 0.49722 0.36374 0.22193 0.0
Cd519 Cd 0.49198 0.37308 0.25677 0.0
Cd520 Cd 0.53337 0.39611 0.24853 0.0
O521 O 0.53509 0.37188 0.22196 0.0
O522 O 0.47101 0.3484 0.27018 0.0
O523 O 0.50885 0.35146 0.27901 0.0
C524 C 0.48934 0.33986 0.28046 0.0
C525 C 0.56851 0.41041 0.26438 0.0
C526 C 0.51736 0.36235 0.21232 0.0
C527 C 0.48864 0.42426 0.25526 0.0
O528 O 0.50881 0.42236 0.24596 0.0
O529 O 0.47888 0.40644 0.26459 0.0
O530 O 0.562 0.41542 0.24332 0.0
O531 O 0.55561 0.39608 0.27636 0.0
O532 O 0.48391 0.8713 0.28962 0.0
Cd533 Cd 0.50194 0.8757 0.25859 0.0
Cd534 Cd 0.45933 0.90375 0.24658 0.0
O535 O 0.45075 0.88829 0.27833 0.0
O536 O 0.52267 0.84787 0.25385 0.0
O537 O 0.49026 0.85438 0.23305 0.0
C538 C 0.50776 0.84083 0.23824 0.0
C539 C 0.42763 0.92123 0.22697 0.0
C540 C 0.46258 0.87678 0.2934 0.0
C541 C 0.50994 0.92518 0.24573 0.0
O542 O 0.48786 0.92541 0.24281 0.0
O543 O 0.52034 0.9067 0.25273 0.0
O544 O 0.43661 0.90195 0.21905 0.0
O545 O 0.43588 0.92958 0.24623 0.0
O546 O 0.52382 0.64477 0.30099 0.0
Cd547 Cd 0.50519 0.63956 0.27039 0.0
Cd548 Cd 0.5436 0.61296 0.25721 0.0
O549 O 0.55532 0.62545 0.28916 0.0
O550 O 0.48775 0.66901 0.2627 0.0
O551 O 0.51897 0.6566 0.24291 0.0
C552 C 0.50339 0.67276 0.24664 0.0
C553 C 0.573 0.60698 0.22925 0.0
C554 C 0.54478 0.63787 0.30444 0.0
C555 C 0.495 0.58981 0.2597 0.0
O556 O 0.51687 0.5888 0.2554 0.0
O557 O 0.48559 0.60894 0.26645 0.0
O558 O 0.5705 0.59322 0.24702 0.0
O559 O 0.55877 0.62456 0.2273 0.0
O560 O 0.2167 0.46757 0.14458 0.0
Cd561 Cd 0.2478 0.48448 0.1367 0.0
Cd562 Cd 0.25931 0.44316 0.11875 0.0
O563 O 0.23149 0.43217 0.13902 0.0
O564 O 0.25631 0.50577 0.16324 0.0
O565 O 0.27495 0.47242 0.15523 0.0
C566 C 0.27177 0.49015 0.16913 0.0
C567 C 0.29097 0.41781 0.11261 0.0
C568 C 0.21483 0.44531 0.14596 0.0
C569 C 0.25035 0.48418 0.08568 0.0
O570 O 0.25146 0.46213 0.08912 0.0
O571 O 0.2512 0.49825 0.10305 0.0
O572 O 0.27021 0.41279 0.10527 0.0
O573 O 0.29385 0.43692 0.12449 0.0
O574 O 0.78088 0.99948 0.14612 0.0
Cd575 Cd 0.74714 0.99202 0.13498 0.0
Cd576 Cd 0.75003 0.03578 0.11787 0.0
O577 O 0.7788 0.03767 0.13954 0.0
O578 O 0.73195 0.97237 0.15995 0.0
O579 O 0.72245 0.00947 0.15267 0.0
C580 C 0.72036 0.99105 0.16583 0.0
C581 C 0.72478 0.06804 0.11501 0.0
C582 C 0.78957 0.02001 0.14801 0.0
C583 C 0.74861 0.99463 0.08364 0.0
O584 O 0.75329 0.01608 0.0878 0.0
O585 O 0.74268 0.98094 0.10034 0.0
O586 O 0.74531 0.06828 0.10546 0.0
O587 O 0.71872 0.04962 0.12678 0.0
O588 O 0.21217 0.51957 0.36225 0.0
Cd589 Cd 0.24373 0.50302 0.36858 0.0
Cd590 Cd 0.25656 0.54433 0.38922 0.0
O591 O 0.22489 0.55412 0.37459 0.0
O592 O 0.25165 0.48115 0.34244 0.0
O593 O 0.27 0.51513 0.34858 0.0
C594 C 0.267 0.49654 0.33583 0.0
C595 C 0.28508 0.57348 0.39313 0.0
C596 C 0.20892 0.54147 0.36543 0.0
C597 C 0.25372 0.49989 0.41926 0.0
O598 O 0.25663 0.52197 0.41753 0.0
O599 O 0.24877 0.48765 0.40124 0.0
O600 O 0.26562 0.57441 0.40451 0.0
O601 O 0.28837 0.55629 0.37869 0.0
O602 O 0.78178 0.99456 0.34923 0.0
Cd603 Cd 0.74805 0.00051 0.36187 0.0
Cd604 Cd 0.75976 0.96226 0.38816 0.0
O605 O 0.78497 0.95834 0.36275 0.0
O606 O 0.73215 0.01969 0.33723 0.0
O607 O 0.72359 0.98226 0.34405 0.0
C608 C 0.72087 0.00091 0.33131 0.0
C609 C 0.74283 0.92908 0.40542 0.0
C610 C 0.79249 0.9749 0.3498 0.0
C611 C 0.75372 0.00894 0.41259 0.0
O612 O 0.76365 0.98897 0.41205 0.0
O613 O 0.743 0.01658 0.39451 0.0
O614 O 0.76429 0.93493 0.40945 0.0
O615 O 0.73108 0.94136 0.39036 0.0
O616 O 0.13709 0.21485 0.48171 0.0
Cd617 Cd 0.13166 0.24627 0.49903 0.0
Cd618 Cd 0.10872 0.25925 0.45861 0.0
O619 O 0.12177 0.22698 0.44816 0.0
O620 O 0.1605 0.25551 0.51673 0.0
O621 O 0.14836 0.27341 0.48425 0.0
C622 C 0.16413 0.271 0.50045 0.0
C623 C 0.10257 0.28707 0.42898 0.0
C624 C 0.13222 0.21128 0.46018 0.0
C625 C 0.08193 0.25768 0.50566 0.0
O626 O 0.08279 0.26115 0.48363 0.0
O627 O 0.10017 0.25126 0.51684 0.0
O628 O 0.08982 0.2685 0.43083 0.0
O629 O 0.11977 0.28961 0.44354 0.0
O630 O 0.14489 0.79348 0.02564 0.0
Cd631 Cd 0.13846 0.76364 0.00619 0.0
Cd632 Cd 0.11347 0.74926 0.0465 0.0
O633 O 0.12746 0.78073 0.05794 0.0
O634 O 0.16499 0.75857 0.98397 0.0
O635 O 0.15861 0.73621 0.01541 0.0
C636 C 0.17156 0.74154 0.99749 0.0
C637 C 0.1056 0.72202 0.07633 0.0
C638 C 0.13925 0.79629 0.0471 0.0
C639 C 0.08804 0.75363 0.99898 0.0
O640 O 0.08823 0.7486 0.02073 0.0
O641 O 0.10661 0.76055 0.98872 0.0
O642 O 0.09339 0.74086 0.0738 0.0
O643 O 0.12291 0.71864 0.06205 0.0
O644 O 0.85964 0.72506 0.00628 0.0
Cd645 Cd 0.87092 0.75936 0.00097 0.0
Cd646 Cd 0.89361 0.74999 0.04221 0.0
O647 O 0.86904 0.7238 0.04388 0.0
O648 O 0.84728 0.77417 0.97983 0.0
O649 O 0.85095 0.78329 0.01758 0.0
C650 C 0.83961 0.78544 0.99798 0.0
C651 C 0.90787 0.76565 0.07747 0.0
C652 C 0.85867 0.71493 0.02622 0.0
C653 C 0.92196 0.75554 0.99742 0.0
O654 O 0.91988 0.74672 0.01781 0.0
O655 O 0.90442 0.76519 0.98751 0.0
O656 O 0.89404 0.77793 0.06429 0.0
O657 O 0.91244 0.74444 0.0711 0.0
O658 O 0.36267 0.79472 0.96163 0.0
Cd659 Cd 0.37092 0.76395 0.97947 0.0
Cd660 Cd 0.39196 0.75309 0.939 0.0
O661 O 0.37403 0.78184 0.92681 0.0
O662 O 0.34408 0.75623 0.00069 0.0
O663 O 0.3524 0.73632 0.96818 0.0
C664 C 0.33833 0.74018 0.98563 0.0
C665 C 0.39764 0.72135 0.91357 0.0
C666 C 0.36432 0.79745 0.93947 0.0
C667 C 0.42225 0.76104 0.98225 0.0
O668 O 0.42033 0.75949 0.96007 0.0
O669 O 0.40399 0.76083 0.99515 0.0
O670 O 0.40808 0.74118 0.91046 0.0
O671 O 0.38306 0.71962 0.93086 0.0
H672 H 0.00051 0.20171 0.27606 0.0
H673 H 0.00442 0.18716 0.20141 0.0
H674 H 0.00169 0.23009 0.19301 0.0
H675 H 0.9566 0.24657 0.27082 0.0
H676 H 0.96812 0.26375 0.29485 0.0
H677 H 0.97207 0.23232 0.29455 0.0
H678 H 0.01713 0.23778 0.29836 0.0
H679 H 0.01331 0.26921 0.29879 0.0
H680 H 0.03245 0.2559 0.27733 0.0
H681 H 0.00114 0.27566 0.19386 0.0
H682 H 0.99814 0.31829 0.20341 0.0
H683 H 0.98907 0.30094 0.27704 0.0
C684 C 0.0011 0.20762 0.25795 0.0
C685 C 0.00324 0.19139 0.23935 0.0
C686 C 0.00312 0.19952 0.21584 0.0
C687 C 0.00157 0.22379 0.21098 0.0
C688 C 0.99943 0.23944 0.22984 0.0
C689 C 0.99876 0.23151 0.25284 0.0
C690 C 0.99485 0.25143 0.27 0.0
C691 C 0.97152 0.24833 0.28333 0.0
C692 C 0.01568 0.25371 0.28712 0.0
C693 C 0.99376 0.27198 0.25319 0.0
C694 C 0.99683 0.26491 0.23011 0.0
C695 C 0.99824 0.28128 0.21182 0.0
C696 C 0.99651 0.30539 0.21734 0.0
C697 C 0.99274 0.31271 0.24082 0.0
C698 C 0.99118 0.29573 0.25882 0.0
H699 H 0.96698 0.70407 0.26983 0.0
H700 H 0.03571 0.68776 0.29845 0.0
H701 H 0.04016 0.72906 0.31106 0.0
H702 H 0.98112 0.75578 0.24496 0.0
H703 H 0.95412 0.77108 0.25134 0.0
H704 H 0.9542 0.73958 0.24915 0.0
H705 H 0.93639 0.7364 0.29099 0.0
H706 H 0.93621 0.76805 0.29329 0.0
H707 H 0.9509 0.75062 0.31533 0.0
H708 H 0.04105 0.77308 0.31185 0.0
H709 H 0.03693 0.81555 0.30322 0.0
H710 H 0.96653 0.80343 0.27712 0.0
C711 C 0.9826 0.70899 0.27952 0.0
C712 C 0.00096 0.69265 0.28321 0.0
C713 C 0.0213 0.69988 0.29561 0.0
C714 C 0.02398 0.72334 0.30286 0.0
C715 C 0.00596 0.73927 0.29805 0.0
C716 C 0.98542 0.73228 0.2871 0.0
C717 C 0.96976 0.75319 0.28179 0.0
C718 C 0.96452 0.75501 0.25525 0.0
C719 C 0.94696 0.75199 0.29622 0.0
C720 C 0.9853 0.77318 0.2901 0.0
C721 C 0.00602 0.76479 0.29968 0.0
C722 C 0.02456 0.77987 0.30525 0.0
C723 C 0.0221 0.80397 0.30032 0.0
C724 C 0.00114 0.81277 0.29026 0.0
C725 C 0.98229 0.79727 0.28585 0.0
H726 H 0.21986 0.03847 0.20397 0.0
H727 H 0.20382 0.96616 0.18559 0.0
H728 H 0.19645 0.95722 0.22732 0.0
H729 H 0.25211 0.027 0.25171 0.0
H730 H 0.24229 0.05116 0.26975 0.0
H731 H 0.24091 0.05348 0.2383 0.0
H732 H 0.19634 0.06245 0.24054 0.0
H733 H 0.19761 0.06039 0.27217 0.0
H734 H 0.17712 0.04249 0.25592 0.0
H735 H 0.20059 0.95373 0.27077 0.0
H736 H 0.21219 0.95714 0.31257 0.0
H737 H 0.22274 0.03203 0.30358 0.0
C738 C 0.2138 0.02102 0.2086 0.0
C739 C 0.21236 0.00305 0.19145 0.0
C740 C 0.2049 0.98029 0.19832 0.0
C741 C 0.20065 0.97502 0.22205 0.0
C742 C 0.20347 0.9928 0.23869 0.0
C743 C 0.20933 0.01552 0.23223 0.0
C744 C 0.21376 0.03074 0.2537 0.0
C745 C 0.23874 0.04118 0.25333 0.0
C746 C 0.19509 0.05017 0.2557 0.0
C747 C 0.21097 0.0127 0.27314 0.0
C748 C 0.20477 0.99096 0.26413 0.0
C749 C 0.20455 0.97082 0.27817 0.0
C750 C 0.21121 0.97287 0.30185 0.0
C751 C 0.21766 0.99494 0.31133 0.0
C752 C 0.21691 0.01515 0.29694 0.0
H753 H 0.76486 0.47124 0.19912 0.0
H754 H 0.79371 0.54044 0.18515 0.0
H755 H 0.80579 0.54371 0.22671 0.0
H756 H 0.73938 0.48375 0.25073 0.0
H757 H 0.74562 0.45636 0.26543 0.0
H758 H 0.74392 0.45723 0.23393 0.0
H759 H 0.78583 0.43967 0.23089 0.0
H760 H 0.78763 0.43862 0.26254 0.0
H761 H 0.80986 0.45387 0.2459 0.0
H762 H 0.80573 0.54346 0.27079 0.0
H763 H 0.79663 0.53805 0.31302 0.0
H764 H 0.77099 0.46785 0.29849 0.0
C765 C 0.77454 0.48669 0.2046 0.0
C766 C 0.7784 0.50555 0.18885 0.0
C767 C 0.79076 0.52566 0.1968 0.0
C768 C 0.79769 0.52768 0.22043 0.0
C769 C 0.79263 0.50922 0.23578 0.0
C770 C 0.78183 0.48884 0.22805 0.0
C771 C 0.77625 0.47257 0.24844 0.0
C772 C 0.74973 0.46719 0.2497 0.0
C773 C 0.79077 0.44984 0.24684 0.0
C774 C 0.78418 0.4876 0.26897 0.0
C775 C 0.79382 0.5086 0.26132 0.0
C776 C 0.79908 0.52675 0.27701 0.0
C777 C 0.79386 0.52356 0.30096 0.0
C778 C 0.78383 0.50228 0.30903 0.0
C779 C 0.77966 0.48387 0.2929 0.0
H780 H 0.31023 0.24624 0.02054 0.0
H781 H 0.31978 0.22954 0.94686 0.0
H782 H 0.27746 0.21994 0.94352 0.0
H783 H 0.26098 0.20397 0.03381 0.0
H784 H 0.24619 0.2253 0.052 0.0
H785 H 0.27781 0.22536 0.05007 0.0
H786 H 0.27697 0.26911 0.03732 0.0
H787 H 0.24546 0.26919 0.03914 0.0
H788 H 0.25971 0.27761 0.01211 0.0
H789 H 0.23379 0.21655 0.94705 0.0
H790 H 0.19197 0.22402 0.95553 0.0
H791 H 0.21031 0.24651 0.02613 0.0
C792 C 0.3035 0.23963 0.00399 0.0
C793 C 0.3182 0.23793 0.98409 0.0
C794 C 0.30874 0.23046 0.96236 0.0
C795 C 0.2848 0.2249 0.96036 0.0
C796 C 0.27053 0.22732 0.98019 0.0
C797 C 0.2795 0.23471 0.00156 0.0
C798 C 0.26 0.23962 0.01906 0.0
C799 C 0.26133 0.22254 0.03997 0.0
C800 C 0.26058 0.26541 0.02737 0.0
C801 C 0.23864 0.23467 0.00394 0.0
C802 C 0.24511 0.22687 0.98184 0.0
C803 C 0.22851 0.22237 0.96439 0.0
C804 C 0.20475 0.22664 0.9694 0.0
C805 C 0.19785 0.23583 0.99151 0.0
C806 C 0.21501 0.23929 0.00914 0.0
H807 H 0.30281 0.77127 0.52769 0.0
H808 H 0.32015 0.79623 0.45769 0.0
H809 H 0.27908 0.80867 0.45196 0.0
H810 H 0.25127 0.74584 0.514 0.0
H811 H 0.2355 0.75369 0.54035 0.0
H812 H 0.26695 0.75137 0.541 0.0
H813 H 0.27005 0.79408 0.55663 0.0
H814 H 0.23846 0.79651 0.55615 0.0
H815 H 0.2562 0.81769 0.54061 0.0
H816 H 0.23534 0.80977 0.45033 0.0
H817 H 0.19272 0.80218 0.45433 0.0
H818 H 0.2035 0.77936 0.5262 0.0
C819 C 0.29817 0.78015 0.5115 0.0
C820 C 0.31474 0.78281 0.49317 0.0
C821 C 0.30785 0.79412 0.47206 0.0
C822 C 0.28452 0.8013 0.46864 0.0
C823 C 0.26836 0.79749 0.48667 0.0
C824 C 0.27497 0.78761 0.5079 0.0
C825 C 0.25381 0.7832 0.52347 0.0
C826 C 0.25177 0.75698 0.53007 0.0
C827 C 0.25469 0.79881 0.54552 0.0
C828 C 0.23417 0.79077 0.50715 0.0
C829 C 0.24293 0.79921 0.48608 0.0
C830 C 0.22823 0.80403 0.46703 0.0
C831 C 0.20408 0.79965 0.46941 0.0
C832 C 0.19486 0.79085 0.49076 0.0
C833 C 0.21003 0.78704 0.51003 0.0
H834 H 0.80514 0.72837 0.53783 0.0
H835 H 0.81731 0.71808 0.46341 0.0
H836 H 0.77641 0.7043 0.45857 0.0
H837 H 0.75758 0.68083 0.54642 0.0
H838 H 0.7414 0.70007 0.56573 0.0
H839 H 0.77307 0.70129 0.56503 0.0
H840 H 0.77111 0.74594 0.55605 0.0
H841 H 0.73965 0.74485 0.55666 0.0
H842 H 0.75451 0.75599 0.53096 0.0
H843 H 0.73323 0.69969 0.46006 0.0
H844 H 0.69146 0.70885 0.46647 0.0
H845 H 0.70623 0.72503 0.53954 0.0
C846 C 0.79945 0.72198 0.52081 0.0
C847 C 0.81439 0.72361 0.50109 0.0
C848 C 0.80616 0.71645 0.47877 0.0
C849 C 0.783 0.7085 0.47592 0.0
C850 C 0.76824 0.70811 0.49553 0.0
C851 C 0.77616 0.71471 0.5176 0.0
C852 C 0.75589 0.71754 0.53467 0.0
C853 C 0.75706 0.69881 0.55412 0.0
C854 C 0.75526 0.74256 0.54516 0.0
C855 C 0.73527 0.71315 0.5184 0.0
C856 C 0.7428 0.70674 0.49617 0.0
C857 C 0.72711 0.70421 0.47751 0.0
C858 C 0.70334 0.70946 0.48133 0.0
C859 C 0.69556 0.71769 0.50352 0.0
C860 C 0.71159 0.71847 0.52249 0.0
H861 H 0.96051 0.79591 0.77217 0.0
H862 H 0.03192 0.81104 0.79413 0.0
H863 H 0.03791 0.76904 0.80328 0.0
H864 H 0.94953 0.74628 0.81567 0.0
H865 H 0.93271 0.73018 0.79416 0.0
H866 H 0.93254 0.7619 0.79393 0.0
H867 H 0.9459 0.76157 0.75037 0.0
H868 H 0.94631 0.72998 0.75049 0.0
H869 H 0.97237 0.74607 0.74238 0.0
H870 H 0.03909 0.72506 0.801 0.0
H871 H 0.03389 0.68293 0.79113 0.0
H872 H 0.96104 0.69597 0.77368 0.0
C873 C 0.97711 0.79055 0.77978 0.0
C874 C 0.99571 0.80683 0.78252 0.0
C875 C 0.01732 0.799 0.79208 0.0
C876 C 0.0209 0.77512 0.79732 0.0
C877 C 0.00256 0.75933 0.79335 0.0
C878 C 0.98089 0.76681 0.78528 0.0
C879 C 0.96485 0.7461 0.78027 0.0
C880 C 0.94365 0.74612 0.79701 0.0
C881 C 0.95692 0.74593 0.75435 0.0
C882 C 0.98126 0.72578 0.78558 0.0
C883 C 0.00292 0.73377 0.79324 0.0
C884 C 0.02197 0.71852 0.79592 0.0
C885 C 0.0189 0.69466 0.79028 0.0
C886 C 0.99688 0.68622 0.78251 0.0
C887 C 0.97773 0.70188 0.78068 0.0
H888 H 0.03426 0.1965 0.73346 0.0
H889 H 0.96042 0.18634 0.71835 0.0
H890 H 0.95674 0.22848 0.70788 0.0
H891 H 0.02615 0.24766 0.76386 0.0
H892 H 0.05294 0.26188 0.75472 0.0
H893 H 0.05126 0.23032 0.75528 0.0
H894 H 0.06326 0.22869 0.71134 0.0
H895 H 0.06506 0.26036 0.71066 0.0
H896 H 0.04659 0.24508 0.68993 0.0
H897 H 0.95999 0.27232 0.70374 0.0
H898 H 0.96845 0.31436 0.71037 0.0
H899 H 0.0395 0.29657 0.73158 0.0
C900 C 0.01761 0.20302 0.72693 0.0
C901 C 0.99776 0.18816 0.72594 0.0
C902 C 0.97589 0.19743 0.71865 0.0
C903 C 0.97369 0.2213 0.71264 0.0
C904 C 0.99346 0.23574 0.71441 0.0
C905 C 0.01499 0.22696 0.72156 0.0
C906 C 0.03245 0.24667 0.72578 0.0
C907 C 0.04119 0.24662 0.75143 0.0
C908 C 0.05306 0.2451 0.70838 0.0
C909 C 0.0172 0.26794 0.72069 0.0
C910 C 0.99498 0.26124 0.71348 0.0
C911 C 0.97741 0.27776 0.70908 0.0
C912 C 0.98241 0.30165 0.71286 0.0
C913 C 0.00467 0.30882 0.72144 0.0
C914 C 0.02241 0.29171 0.72477 0.0
H915 H 0.76049 0.0323 0.79732 0.0
H916 H 0.7803 0.95929 0.80615 0.0
H917 H 0.7877 0.95612 0.76334 0.0
H918 H 0.72681 0.02259 0.74872 0.0
H919 H 0.73343 0.04981 0.73386 0.0
H920 H 0.73541 0.04818 0.76536 0.0
H921 H 0.77862 0.06241 0.76361 0.0
H922 H 0.77675 0.06419 0.732 0.0
H923 H 0.7995 0.0468 0.74558 0.0
H924 H 0.78819 0.95948 0.71937 0.0
H925 H 0.77796 0.96752 0.67799 0.0
H926 H 0.75446 0.03749 0.69747 0.0
C927 C 0.76739 0.01598 0.7903 0.0
C928 C 0.77054 0.99621 0.805 0.0
C929 C 0.7783 0.97473 0.79516 0.0
C930 C 0.78259 0.97283 0.7709 0.0
C931 C 0.77865 0.99247 0.7567 0.0
C932 C 0.77107 0.01363 0.76604 0.0
C933 C 0.76444 0.03084 0.74675 0.0
C934 C 0.73849 0.03827 0.7488 0.0
C935 C 0.78081 0.05233 0.74701 0.0
C936 C 0.76864 0.0158 0.72514 0.0
C937 C 0.77751 0.99399 0.73122 0.0
C938 C 0.78153 0.97661 0.71439 0.0
C939 C 0.77568 0.98137 0.69088 0.0
C940 C 0.76544 0.00316 0.68443 0.0
C941 C 0.76248 0.02075 0.70177 0.0
H942 H 0.20587 0.47733 0.80048 0.0
H943 H 0.18992 0.55086 0.81246 0.0
H944 H 0.18042 0.55562 0.77029 0.0
H945 H 0.23789 0.48649 0.75256 0.0
H946 H 0.22962 0.46038 0.73658 0.0
H947 H 0.2279 0.46069 0.76808 0.0
H948 H 0.18389 0.44922 0.76613 0.0
H949 H 0.1855 0.44868 0.73445 0.0
H950 H 0.16386 0.46676 0.74892 0.0
H951 H 0.1802 0.55434 0.72639 0.0
H952 H 0.19207 0.54818 0.68514 0.0
H953 H 0.21075 0.47601 0.70141 0.0
C954 C 0.19919 0.49412 0.79443 0.0
C955 C 0.19809 0.51361 0.80977 0.0
C956 C 0.19045 0.53562 0.80104 0.0
C957 C 0.18497 0.53844 0.77711 0.0
C958 C 0.18736 0.51911 0.76214 0.0
C959 C 0.19426 0.49732 0.77051 0.0
C960 C 0.19981 0.48059 0.75051 0.0
C961 C 0.22531 0.47154 0.75203 0.0
C962 C 0.18221 0.4601 0.74997 0.0
C963 C 0.19635 0.49675 0.72961 0.0
C964 C 0.18836 0.51864 0.73661 0.0
C965 C 0.18599 0.53714 0.72067 0.0
C966 C 0.19278 0.53346 0.69721 0.0
C967 C 0.20231 0.51159 0.69001 0.0
C968 C 0.20325 0.49283 0.70629 0.0
H969 H 0.70715 0.78372 0.03117 0.0
H970 H 0.69312 0.8075 0.96005 0.0
H971 H 0.73459 0.81925 0.95585 0.0
H972 H 0.75546 0.82882 0.04507 0.0
H973 H 0.77166 0.80701 0.06141 0.0
H974 H 0.73998 0.80623 0.06104 0.0
H975 H 0.74132 0.76316 0.04619 0.0
H976 H 0.77282 0.76384 0.04636 0.0
H977 H 0.75738 0.75638 0.0197 0.0
H978 H 0.77825 0.81887 0.95571 0.0
H979 H 0.82008 0.80827 0.96055 0.0
H980 H 0.80638 0.78661 0.03226 0.0
C981 C 0.71255 0.79237 0.01508 0.0
C982 C 0.69682 0.79478 0.99598 0.0
C983 C 0.70475 0.80564 0.97501 0.0
C984 C 0.72832 0.81242 0.97247 0.0
C985 C 0.74371 0.80861 0.9912 0.0
C986 C 0.73604 0.79925 0.0123 0.0
C987 C 0.75653 0.79399 0.02852 0.0
C988 C 0.75586 0.80997 0.0503 0.0
C989 C 0.75703 0.7678 0.03558 0.0
C990 C 0.77699 0.80028 0.01265 0.0
C991 C 0.76922 0.8091 0.99134 0.0
C992 C 0.78461 0.81282 0.9726 0.0
C993 C 0.80834 0.80672 0.97547 0.0
C994 C 0.8165 0.7972 0.99695 0.0
C995 C 0.80076 0.79477 0.01599 0.0
H996 H 0.7012 0.22649 0.53398 0.0
H997 H 0.68545 0.2117 0.46102 0.0
H998 H 0.72732 0.20232 0.45382 0.0
H999 H 0.74912 0.25891 0.52206 0.0
H1000 H 0.76628 0.25046 0.54734 0.0
H1001 H 0.7348 0.24905 0.54858 0.0
H1002 H 0.73698 0.20497 0.56004 0.0
H1003 H 0.76862 0.20628 0.55892 0.0
H1004 H 0.75304 0.18476 0.54163 0.0
H1005 H 0.7712 0.20057 0.45311 0.0
H1006 H 0.81303 0.21109 0.45738 0.0
H1007 H 0.8006 0.23083 0.53001 0.0
C1008 C 0.70648 0.2201 0.51682 0.0
C1009 C 0.69015 0.21899 0.4982 0.0
C1010 C 0.69772 0.21202 0.47558 0.0
C1011 C 0.72143 0.20662 0.4714 0.0
C1012 C 0.73737 0.20869 0.48995 0.0
C1013 C 0.7302 0.21542 0.51222 0.0
C1014 C 0.75109 0.22077 0.52789 0.0
C1015 C 0.75026 0.2463 0.53697 0.0
C1016 C 0.75251 0.20314 0.54833 0.0
C1017 C 0.77107 0.21712 0.51067 0.0
C1018 C 0.76287 0.2093 0.48916 0.0
C1019 C 0.77786 0.20632 0.46998 0.0
C1020 C 0.80164 0.21231 0.4726 0.0
C1021 C 0.81009 0.22174 0.49405 0.0
C1022 C 0.7947 0.22342 0.51348 0.0
H1023 H 0.19967 0.27174 0.53298 0.0
H1024 H 0.18071 0.29714 0.46358 0.0
H1025 H 0.22146 0.31048 0.45734 0.0
H1026 H 0.24561 0.31896 0.54569 0.0
H1027 H 0.26393 0.29793 0.56075 0.0
H1028 H 0.23239 0.29498 0.56168 0.0
H1029 H 0.23595 0.25247 0.54557 0.0
H1030 H 0.26733 0.25532 0.54452 0.0
H1031 H 0.25134 0.24746 0.5183 0.0
H1032 H 0.26533 0.31224 0.45504 0.0
H1033 H 0.30807 0.30488 0.45824 0.0
H1034 H 0.29857 0.28133 0.53006 0.0
C1035 C 0.20388 0.28091 0.51682 0.0
C1036 C 0.18697 0.28344 0.4988 0.0
C1037 C 0.19328 0.29517 0.47774 0.0
C1038 C 0.21643 0.30283 0.47404 0.0
C1039 C 0.23297 0.29913 0.49175 0.0
C1040 C 0.22686 0.2889 0.51297 0.0
C1041 C 0.24831 0.28469 0.52818 0.0
C1042 C 0.24751 0.30006 0.55039 0.0
C1043 C 0.25087 0.25844 0.53448 0.0
C1044 C 0.26758 0.29274 0.51164 0.0
C1045 C 0.25838 0.30128 0.4908 0.0
C1046 C 0.27275 0.30643 0.47157 0.0
C1047 C 0.297 0.30219 0.4735 0.0
C1048 C 0.30663 0.29317 0.49459 0.0
C1049 C 0.29179 0.28917 0.51408 0.0
H1050 H 0.50001 0.78689 0.76793 0.0
H1051 H 0.49145 0.8039 0.69418 0.0
H1052 H 0.49193 0.76116 0.68441 0.0
H1053 H 0.54167 0.74088 0.75835 0.0
H1054 H 0.53125 0.72343 0.78268 0.0
H1055 H 0.52848 0.75497 0.78351 0.0
H1056 H 0.48356 0.75113 0.79034 0.0
H1057 H 0.48635 0.71961 0.78983 0.0
H1058 H 0.46616 0.73401 0.7701 0.0
H1059 H 0.49071 0.71539 0.68412 0.0
H1060 H 0.49252 0.67243 0.69261 0.0
H1061 H 0.5074 0.68782 0.76574 0.0
C1062 C 0.4979 0.78159 0.74974 0.0
C1063 C 0.4951 0.79842 0.73181 0.0
C1064 C 0.49327 0.79105 0.70813 0.0
C1065 C 0.49354 0.7669 0.70249 0.0
C1066 C 0.49639 0.75064 0.72073 0.0
C1067 C 0.49895 0.75785 0.74382 0.0
C1068 C 0.5033 0.73742 0.76017 0.0
C1069 C 0.52762 0.73929 0.77185 0.0
C1070 C 0.48366 0.73543 0.77869 0.0
C1071 C 0.50239 0.71736 0.74283 0.0
C1072 C 0.49802 0.7251 0.72019 0.0
C1073 C 0.49463 0.70923 0.7017 0.0
C1074 C 0.4957 0.68494 0.70662 0.0
C1075 C 0.50075 0.67698 0.72965 0.0
C1076 C 0.50431 0.69346 0.74779 0.0
H1077 H 0.49662 0.28856 0.73007 0.0
H1078 H 0.48953 0.30463 0.80422 0.0
H1079 H 0.48982 0.26179 0.81336 0.0
H1080 H 0.45675 0.24112 0.73064 0.0
H1081 H 0.4725 0.22437 0.70881 0.0
H1082 H 0.47428 0.25598 0.7088 0.0
H1083 H 0.51974 0.25364 0.71126 0.0
H1084 H 0.5181 0.22202 0.71107 0.0
H1085 H 0.53325 0.23693 0.73458 0.0
H1086 H 0.49223 0.21614 0.81354 0.0
H1087 H 0.492 0.17324 0.80446 0.0
H1088 H 0.49226 0.18929 0.72999 0.0
C1089 C 0.49562 0.28311 0.7483 0.0
C1090 C 0.49362 0.29976 0.76653 0.0
C1091 C 0.49141 0.29201 0.79008 0.0
C1092 C 0.49157 0.26778 0.79538 0.0
C1093 C 0.49337 0.25175 0.77683 0.0
C1094 C 0.49502 0.25924 0.75374 0.0
C1095 C 0.49478 0.23892 0.73668 0.0
C1096 C 0.4733 0.24018 0.72028 0.0
C1097 C 0.51784 0.23782 0.72258 0.0
C1098 C 0.49284 0.21865 0.75369 0.0
C1099 C 0.49252 0.22617 0.77682 0.0
C1100 C 0.4921 0.21014 0.79547 0.0
C1101 C 0.49196 0.1859 0.79023 0.0
C1102 C 0.49151 0.17819 0.76658 0.0
C1103 C 0.49191 0.19481 0.74823 0.0
H1104 H 0.7274 0.52508 0.80207 0.0
H1105 H 0.69928 0.45478 0.81009 0.0
H1106 H 0.69274 0.45248 0.76715 0.0
H1107 H 0.69169 0.5436 0.74854 0.0
H1108 H 0.71676 0.55837 0.73601 0.0
H1109 H 0.7132 0.55709 0.76751 0.0
H1110 H 0.75459 0.53849 0.77134 0.0
H1111 H 0.7582 0.53952 0.73999 0.0
H1112 H 0.76122 0.51193 0.75532 0.0
H1113 H 0.69526 0.45521 0.72337 0.0
H1114 H 0.70897 0.46137 0.68269 0.0
H1115 H 0.73811 0.52896 0.70286 0.0
C1116 C 0.71877 0.50971 0.79485 0.0
C1117 C 0.7132 0.49035 0.80936 0.0
C1118 C 0.70317 0.46996 0.79926 0.0
C1119 C 0.69938 0.46855 0.7749 0.0
C1120 C 0.70596 0.48759 0.76087 0.0
C1121 C 0.71547 0.50782 0.77049 0.0
C1122 C 0.72479 0.52405 0.75148 0.0
C1123 C 0.71077 0.54715 0.75085 0.0
C1124 C 0.75126 0.52875 0.75473 0.0
C1125 C 0.72006 0.50934 0.72977 0.0
C1126 C 0.70855 0.4887 0.73548 0.0
C1127 C 0.7039 0.47149 0.71863 0.0
C1128 C 0.71178 0.47516 0.69553 0.0
C1129 C 0.72457 0.49568 0.68952 0.0
C1130 C 0.72813 0.51323 0.7068 0.0
H1131 H 0.27095 0.97293 0.69906 0.0
H1132 H 0.29349 0.04375 0.68191 0.0
H1133 H 0.30385 0.05045 0.72353 0.0
H1134 H 0.24264 0.98582 0.74904 0.0
H1135 H 0.2509 0.95999 0.76549 0.0
H1136 H 0.25022 0.95896 0.73395 0.0
H1137 H 0.29367 0.94534 0.73318 0.0
H1138 H 0.29445 0.94621 0.76488 0.0
H1139 H 0.31573 0.96257 0.74803 0.0
H1140 H 0.30249 0.05257 0.76756 0.0
H1141 H 0.29254 0.04864 0.80976 0.0
H1142 H 0.2739 0.97565 0.79849 0.0
C1143 C 0.27892 0.98954 0.7039 0.0
C1144 C 0.28147 0.00779 0.6872 0.0
C1145 C 0.29159 0.02941 0.6943 0.0
C1146 C 0.29753 0.03339 0.71796 0.0
C1147 C 0.29376 0.01539 0.73421 0.0
C1148 C 0.28519 0.99367 0.72737 0.0
C1149 C 0.28045 0.97809 0.74849 0.0
C1150 C 0.25452 0.97028 0.74928 0.0
C1151 C 0.29707 0.95679 0.74865 0.0
C1152 C 0.28622 0.99493 0.76833 0.0
C1153 C 0.29413 0.01629 0.75976 0.0
C1154 C 0.29718 0.03567 0.77454 0.0
C1155 C 0.29148 0.03332 0.79848 0.0
C1156 C 0.28311 0.01167 0.80745 0.0
C1157 C 0.28123 0.9921 0.79228 0.0
H1158 H 0.70744 0.22713 0.01184 0.0
H1159 H 0.6901 0.30108 0.00588 0.0
H1160 H 0.7327 0.31064 0.00239 0.0
H1161 H 0.75819 0.23573 0.04854 0.0
H1162 H 0.77399 0.21144 0.03569 0.0
H1163 H 0.74237 0.21093 0.03672 0.0
H1164 H 0.7408 0.20478 0.99155 0.0
H1165 H 0.77239 0.2051 0.99038 0.0
H1166 H 0.75572 0.22528 0.9725 0.0
H1167 H 0.77799 0.31069 0.99621 0.0
H1168 H 0.82065 0.30186 0.9923 0.0
H1169 H 0.80658 0.22851 0.00755 0.0
C1170 C 0.7126 0.24534 0.0096 0.0
C1171 C 0.69567 0.26337 0.00861 0.0
C1172 C 0.70297 0.28705 0.00641 0.0
C1173 C 0.72705 0.29257 0.00443 0.0
C1174 C 0.7434 0.27422 0.00542 0.0
C1175 C 0.73635 0.25113 0.00839 0.0
C1176 C 0.75699 0.23456 0.00997 0.0
C1177 C 0.75794 0.22246 0.03417 0.0
C1178 C 0.75644 0.21637 0.98991 0.0
C1179 C 0.77694 0.25177 0.00696 0.0
C1180 C 0.76894 0.27456 0.00403 0.0
C1181 C 0.78441 0.29298 0.999 0.0
C1182 C 0.80855 0.28786 0.99682 0.0
C1183 C 0.81689 0.26464 0.00023 0.0
C1184 C 0.80082 0.24657 0.00562 0.0
H1185 H 0.52307 0.30638 0.27623 0.0
H1186 H 0.45309 0.31842 0.30354 0.0
H1187 H 0.44863 0.27575 0.3109 0.0
H1188 H 0.5079 0.25976 0.24314 0.0
H1189 H 0.53464 0.24314 0.24667 0.0
H1190 H 0.53513 0.27457 0.24971 0.0
H1191 H 0.55317 0.27061 0.29137 0.0
H1192 H 0.55295 0.23902 0.28838 0.0
H1193 H 0.53863 0.25271 0.31312 0.0
H1194 H 0.44925 0.2317 0.30921 0.0
H1195 H 0.45367 0.19046 0.29636 0.0
H1196 H 0.52226 0.20697 0.26746 0.0
C1197 C 0.50731 0.30012 0.28489 0.0
C1198 C 0.48867 0.31569 0.28999 0.0
C1199 C 0.46775 0.30678 0.30003 0.0
C1200 C 0.4651 0.28258 0.30427 0.0
C1201 C 0.48344 0.26749 0.29811 0.0
C1202 C 0.50419 0.27594 0.28862 0.0
C1203 C 0.51952 0.25599 0.27978 0.0
C1204 C 0.52457 0.25853 0.25327 0.0
C1205 C 0.54243 0.2545 0.29402 0.0
C1206 C 0.50376 0.2351 0.28478 0.0
C1207 C 0.48333 0.24201 0.29599 0.0
C1208 C 0.46535 0.22604 0.30081 0.0
C1209 C 0.46803 0.20261 0.29344 0.0
C1210 C 0.48834 0.19542 0.28096 0.0
C1211 C 0.50664 0.21182 0.2772 0.0
H1212 H 0.47336 0.8081 0.23978 0.0
H1213 H 0.54581 0.8186 0.21928 0.0
H1214 H 0.54983 0.7759 0.2115 0.0
H1215 H 0.48473 0.7601 0.27335 0.0
H1216 H 0.45782 0.74452 0.26728 0.0
H1217 H 0.45861 0.77602 0.26504 0.0
H1218 H 0.44376 0.77357 0.22202 0.0
H1219 H 0.44283 0.74193 0.22415 0.0
H1220 H 0.45946 0.75578 0.20099 0.0
H1221 H 0.54749 0.73186 0.21106 0.0
H1222 H 0.54083 0.69045 0.22221 0.0
H1223 H 0.47088 0.7084 0.24666 0.0
C1224 C 0.48968 0.80146 0.23257 0.0
C1225 C 0.50906 0.81656 0.22928 0.0
C1226 C 0.53064 0.80727 0.22125 0.0
C1227 C 0.53302 0.78308 0.21677 0.0
C1228 C 0.51375 0.76843 0.22085 0.0
C1229 C 0.49252 0.77728 0.22875 0.0
C1230 C 0.47594 0.75763 0.23582 0.0
C1231 C 0.46888 0.7597 0.26191 0.0
C1232 C 0.45421 0.75721 0.21978 0.0
C1233 C 0.49144 0.73639 0.23153 0.0
C1234 C 0.51289 0.74293 0.22217 0.0
C1235 C 0.53064 0.72651 0.21809 0.0
C1236 C 0.52667 0.70298 0.22443 0.0
C1237 C 0.50531 0.69615 0.23527 0.0
C1238 C 0.48729 0.71302 0.2382 0.0
H1239 H 0.26865 0.52932 0.30141 0.0
H1240 H 0.28861 0.45772 0.31778 0.0
H1241 H 0.30092 0.45167 0.27645 0.0
H1242 H 0.24021 0.51516 0.25154 0.0
H1243 H 0.2475 0.54121 0.23499 0.0
H1244 H 0.24698 0.54228 0.26653 0.0
H1245 H 0.28994 0.55738 0.26694 0.0
H1246 H 0.29058 0.55639 0.23524 0.0
H1247 H 0.31249 0.54082 0.25204 0.0
H1248 H 0.30515 0.45139 0.23284 0.0
H1249 H 0.29638 0.45484 0.19055 0.0
H1250 H 0.27018 0.52563 0.20181 0.0
C1251 C 0.27671 0.51279 0.29643 0.0
C1252 C 0.27846 0.49418 0.31275 0.0
C1253 C 0.28772 0.47229 0.30553 0.0
C1254 C 0.29481 0.46877 0.28214 0.0
C1255 C 0.29214 0.48724 0.26616 0.0
C1256 C 0.28314 0.5088 0.27299 0.0
C1257 C 0.27774 0.52413 0.25184 0.0
C1258 C 0.25157 0.53108 0.25119 0.0
C1259 C 0.29364 0.54597 0.2515 0.0
C1260 C 0.28396 0.50742 0.23203 0.0
C1261 C 0.29308 0.48658 0.24066 0.0
C1262 C 0.29839 0.46777 0.22587 0.0
C1263 C 0.29337 0.46992 0.20181 0.0
C1264 C 0.2826 0.49053 0.19284 0.0
C1265 C 0.27867 0.50978 0.20808 0.0
H1266 H 0.72027 0.95848 0.20135 0.0
H1267 H 0.69469 0.02798 0.18302 0.0
H1268 H 0.6837 0.03478 0.22438 0.0
H1269 H 0.67652 0.94709 0.25171 0.0
H1270 H 0.69902 0.93236 0.2685 0.0
H1271 H 0.69905 0.9305 0.23682 0.0
H1272 H 0.74177 0.94623 0.23605 0.0
H1273 H 0.74182 0.94831 0.26753 0.0
H1274 H 0.74835 0.97394 0.25004 0.0
H1275 H 0.68509 0.03802 0.26793 0.0
H1276 H 0.69678 0.0364 0.30975 0.0
H1277 H 0.7196 0.96431 0.30061 0.0
C1278 C 0.71134 0.97469 0.20583 0.0
C1279 C 0.70823 0.99263 0.18888 0.0
C1280 C 0.6971 0.01388 0.19561 0.0
C1281 C 0.69074 0.0179 0.21912 0.0
C1282 C 0.69527 0.00037 0.23568 0.0
C1283 C 0.7049 0.97896 0.22926 0.0
C1284 C 0.71097 0.96435 0.25075 0.0
C1285 C 0.69546 0.94226 0.25202 0.0
C1286 C 0.73727 0.95786 0.2511 0.0
C1287 C 0.70483 0.9815 0.27022 0.0
C1288 C 0.69538 0.00203 0.26118 0.0
C1289 C 0.69164 0.02175 0.27532 0.0
C1290 C 0.69835 0.02071 0.29905 0.0
C1291 C 0.7085 1.00004 0.30848 0.0
C1292 C 0.71096 0.97998 0.29405 0.0
H1293 H 0.20712 0.74028 0.02893 0.0
H1294 H 0.18872 0.72122 0.95761 0.0
H1295 H 0.23012 0.71025 0.94979 0.0
H1296 H 0.25579 0.7704 0.01349 0.0
H1297 H 0.27338 0.76303 0.03882 0.0
H1298 H 0.24192 0.7628 0.04097 0.0
H1299 H 0.243 0.71953 0.05529 0.0
H1300 H 0.27462 0.71964 0.05323 0.0
H1301 H 0.25783 0.6976 0.03784 0.0
H1302 H 0.27387 0.70696 0.94799 0.0
H1303 H 0.31612 0.71617 0.95041 0.0
H1304 H 0.30656 0.74104 0.0219 0.0
C1305 C 0.21172 0.73269 0.01207 0.0
C1306 C 0.19479 0.73074 0.99407 0.0
C1307 C 0.20147 0.72217 0.97173 0.0
C1308 C 0.22489 0.71587 0.96721 0.0
C1309 C 0.24145 0.71867 0.98512 0.0
C1310 C 0.23516 0.72705 0.00709 0.0
C1311 C 0.25667 0.73268 0.02179 0.0
C1312 C 0.25695 0.75877 0.02918 0.0
C1313 C 0.25811 0.71639 0.04331 0.0
C1314 C 0.27601 0.72721 0.00431 0.0
C1315 C 0.26691 0.71834 0.98359 0.0
C1316 C 0.28122 0.71355 0.96426 0.0
C1317 C 0.30526 0.71881 0.96582 0.0
C1318 C 0.31468 0.7293 0.98637 0.0
C1319 C 0.29994 0.73279 0.00607 0.0
H1320 H 0.06254 0.28968 0.40316 0.0
H1321 H 0.12898 0.32522 0.41494 0.0
H1322 H 0.11816 0.35501 0.38492 0.0
H1323 H 0.06009 0.29737 0.34168 0.0
H1324 H 0.02875 0.30183 0.34102 0.0
H1325 H 0.04168 0.28422 0.36389 0.0
H1326 H 0.0222 0.31086 0.39541 0.0
H1327 H 0.00934 0.32868 0.37258 0.0
H1328 H 0.02746 0.34213 0.39484 0.0
H1329 H 0.10065 0.37923 0.35148 0.0
H1330 H 0.07822 0.39569 0.318 0.0
H1331 H 0.02284 0.34469 0.3304 0.0
C1332 C 0.07487 0.30372 0.3995 0.0
C1333 C 0.09667 0.30509 0.41124 0.0
C1334 C 0.1122 0.32385 0.40607 0.0
C1335 C 0.10617 0.34084 0.38913 0.0
C1336 C 0.08446 0.3389 0.37785 0.0
C1337 C 0.06905 0.32083 0.38296 0.0
C1338 C 0.04702 0.32221 0.36821 0.0
C1339 C 0.04424 0.30011 0.35279 0.0
C1340 C 0.02522 0.32622 0.38369 0.0
C1341 C 0.05255 0.34367 0.35359 0.0
C1342 C 0.07417 0.35314 0.35936 0.0
C1343 C 0.08357 0.37215 0.34705 0.0
C1344 C 0.0707 0.38139 0.32809 0.0
C1345 C 0.04866 0.37164 0.32176 0.0
C1346 C 0.03938 0.35287 0.33506 0.0
H1347 H 0.93764 0.21823 0.39786 0.0
H1348 H 0.87433 0.18016 0.41685 0.0
H1349 H 0.88414 0.14949 0.38741 0.0
H1350 H 0.93537 0.20774 0.33682 0.0
H1351 H 0.96672 0.20462 0.33362 0.0
H1352 H 0.95496 0.22271 0.35675 0.0
H1353 H 0.97827 0.19846 0.38759 0.0
H1354 H 0.99001 0.18023 0.36449 0.0
H1355 H 0.97454 0.16698 0.38878 0.0
H1356 H 0.89988 0.12459 0.35361 0.0
H1357 H 0.92059 0.1072 0.31947 0.0
H1358 H 0.97409 0.16137 0.32474 0.0
C1359 C 0.92583 0.20341 0.39595 0.0
C1360 C 0.90517 0.20158 0.40953 0.0
C1361 C 0.89028 0.18185 0.40659 0.0
C1362 C 0.89571 0.16438 0.38995 0.0
C1363 C 0.91622 0.16685 0.37671 0.0
C1364 C 0.9311 0.18583 0.37971 0.0
C1365 C 0.95183 0.18477 0.36315 0.0
C1366 C 0.95222 0.20622 0.34661 0.0
C1367 C 0.97503 0.18246 0.37683 0.0
C1368 C 0.94613 0.16243 0.34999 0.0
C1369 C 0.92555 0.15228 0.35798 0.0
C1370 C 0.91617 0.13222 0.34744 0.0
C1371 C 0.92803 0.12249 0.32807 0.0
C1372 C 0.94909 0.13278 0.31962 0.0
C1373 C 0.9583 0.15279 0.33103 0.0
H1374 H 0.06688 0.72277 0.10451 0.0
H1375 H 0.13027 0.68278 0.09015 0.0
H1376 H 0.11973 0.65496 0.12198 0.0
H1377 H 0.0682 0.71758 0.16646 0.0
H1378 H 0.03679 0.7149 0.16954 0.0
H1379 H 0.04893 0.7309 0.14509 0.0
H1380 H 0.02591 0.7043 0.1161 0.0
H1381 H 0.01371 0.68817 0.14049 0.0
H1382 H 0.02943 0.67282 0.11764 0.0
H1383 H 0.10316 0.63294 0.15671 0.0
H1384 H 0.08182 0.61795 0.19137 0.0
H1385 H 0.02877 0.67207 0.18208 0.0
C1386 C 0.07856 0.70813 0.10796 0.0
C1387 C 0.09946 0.70495 0.09492 0.0
C1388 C 0.11418 0.68552 0.09994 0.0
C1389 C 0.10831 0.66965 0.11794 0.0
C1390 C 0.0876 0.6734 0.13052 0.0
C1391 C 0.07291 0.69211 0.12567 0.0
C1392 C 0.05191 0.69256 0.142 0.0
C1393 C 0.05145 0.71533 0.15664 0.0
C1394 C 0.02888 0.68926 0.12823 0.0
C1395 C 0.05724 0.67136 0.15714 0.0
C1396 C 0.07787 0.66051 0.1502 0.0
C1397 C 0.0869 0.64116 0.16216 0.0
C1398 C 0.07466 0.63282 0.18185 0.0
C1399 C 0.05356 0.64378 0.18937 0.0
C1400 C 0.04467 0.66313 0.17661 0.0
H1401 H 0.93498 0.86067 0.17754 0.0
H1402 H 0.99458 0.81729 0.19743 0.0
H1403 H 0.98441 0.78903 0.1661 0.0
H1404 H 0.89536 0.81402 0.16423 0.0
H1405 H 0.88229 0.82854 0.13927 0.0
H1406 H 0.89436 0.8457 0.163 0.0
H1407 H 0.92126 0.86784 0.13365 0.0
H1408 H 0.90912 0.85091 0.10979 0.0
H1409 H 0.94043 0.85129 0.11458 0.0
H1410 H 0.96671 0.76459 0.13433 0.0
H1411 H 0.94495 0.74711 0.10126 0.0
H1412 H 0.89764 0.80708 0.10058 0.0
C1413 C 0.94598 0.84531 0.1752 0.0
C1414 C 0.96558 0.84116 0.18992 0.0
C1415 C 0.97959 0.8209 0.18626 0.0
C1416 C 0.97388 0.80469 0.1686 0.0
C1417 C 0.95426 0.80914 0.15464 0.0
C1418 C 0.94071 0.82909 0.15748 0.0
C1419 C 0.92074 0.8298 0.13984 0.0
C1420 C 0.89677 0.82949 0.15234 0.0
C1421 C 0.92304 0.85123 0.12349 0.0
C1422 C 0.92512 0.80703 0.12673 0.0
C1423 C 0.94442 0.79532 0.13574 0.0
C1424 C 0.95168 0.77366 0.127 0.0
C1425 C 0.9391 0.76383 0.10827 0.0
C1426 C 0.91962 0.77576 0.09831 0.0
C1427 C 0.91251 0.79761 0.10777 0.0
H1428 H 0.31657 0.02508 0.33315 0.0
H1429 H 0.30932 0.07782 0.38787 0.0
H1430 H 0.34431 0.0985 0.37252 0.0
H1431 H 0.38099 0.02434 0.33073 0.0
H1432 H 0.38136 0.02105 0.2992 0.0
H1433 H 0.35731 0.00922 0.31607 0.0
H1434 H 0.32788 0.033 0.29064 0.0
H1435 H 0.35181 0.045 0.27381 0.0
H1436 H 0.33129 0.06443 0.28816 0.0
H1437 H 0.37897 0.1146 0.34966 0.0
H1438 H 0.40969 0.12513 0.32065 0.0
H1439 H 0.39286 0.06242 0.28048 0.0
C1440 C 0.32261 0.04069 0.34223 0.0
C1441 C 0.31034 0.04972 0.36183 0.0
C1442 C 0.31851 0.07053 0.37287 0.0
C1443 C 0.33839 0.08237 0.36431 0.0
C1444 C 0.34982 0.07323 0.34466 0.0
C1445 C 0.34221 0.05285 0.33377 0.0
C1446 C 0.35651 0.04754 0.312 0.0
C1447 C 0.36984 0.02415 0.31467 0.0
C1448 C 0.34094 0.0475 0.28985 0.0
C1449 C 0.37316 0.06827 0.31213 0.0
C1450 C 0.36925 0.08278 0.33122 0.0
C1451 C 0.38226 0.10329 0.33471 0.0
C1452 C 0.39965 0.10914 0.31816 0.0
C1453 C 0.40361 0.09464 0.2983 0.0
C1454 C 0.39023 0.07391 0.29545 0.0
H1455 H 0.59453 0.39714 0.30313 0.0
H1456 H 0.58899 0.45066 0.24891 0.0
H1457 H 0.62214 0.47215 0.26659 0.0
H1458 H 0.61027 0.43553 0.35098 0.0
H1459 H 0.63119 0.41541 0.36371 0.0
H1460 H 0.60654 0.40425 0.34725 0.0
H1461 H 0.63486 0.38141 0.31981 0.0
H1462 H 0.65957 0.39236 0.3363 0.0
H1463 H 0.65811 0.39704 0.30498 0.0
H1464 H 0.65487 0.48858 0.29053 0.0
H1465 H 0.68819 0.49681 0.31705 0.0
H1466 H 0.67427 0.43175 0.3546 0.0
C1467 C 0.60034 0.41337 0.29502 0.0
C1468 C 0.58916 0.42227 0.2747 0.0
C1469 C 0.59737 0.44345 0.26443 0.0
C1470 C 0.6161 0.45588 0.2744 0.0
C1471 C 0.62665 0.44676 0.2945 0.0
C1472 C 0.61935 0.42584 0.30454 0.0
C1473 C 0.63447 0.41953 0.32556 0.0
C1474 C 0.61973 0.41864 0.34822 0.0
C1475 C 0.64753 0.39621 0.3214 0.0
C1476 C 0.65127 0.44022 0.32575 0.0
C1477 C 0.64623 0.45585 0.30785 0.0
C1478 C 0.65909 0.47644 0.30458 0.0
C1479 C 0.67789 0.48103 0.3198 0.0
C1480 C 0.68383 0.46492 0.33785 0.0
C1481 C 0.67019 0.44435 0.34091 0.0
H1482 H 0.31452 0.93957 0.14605 0.0
H1483 H 0.31729 0.01341 0.16562 0.0
H1484 H 0.35407 0.00618 0.1873 0.0
H1485 H 0.33409 0.91681 0.19986 0.0
H1486 H 0.35149 0.89344 0.18736 0.0
H1487 H 0.32641 0.90458 0.17162 0.0
H1488 H 0.35267 0.91351 0.13548 0.0
H1489 H 0.37785 0.90223 0.15106 0.0
H1490 H 0.37846 0.93157 0.13903 0.0
H1491 H 0.38792 0.99058 0.20982 0.0
H1492 H 0.41869 0.9679 0.23013 0.0
H1493 H 0.39525 0.90421 0.19513 0.0
C1494 C 0.32304 0.95431 0.15458 0.0
C1495 C 0.313 0.97708 0.15412 0.0
C1496 C 0.32465 0.99584 0.16564 0.0
C1497 C 0.34556 0.99192 0.17801 0.0
C1498 C 0.3547 0.9692 0.17849 0.0
C1499 C 0.34402 0.95074 0.16689 0.0
C1500 C 0.35712 0.92786 0.17095 0.0
C1501 C 0.34133 0.9096 0.18318 0.0
C1502 C 0.36712 0.91823 0.14775 0.0
C1503 C 0.37653 0.93628 0.18712 0.0
C1504 C 0.37474 0.96021 0.19118 0.0
C1505 C 0.38972 0.97191 0.20655 0.0
C1506 C 0.40703 0.95883 0.21811 0.0
C1507 C 0.40933 0.93433 0.21414 0.0
C1508 C 0.39402 0.92296 0.19825 0.0
H1509 H 0.60072 0.56799 0.22608 0.0
H1510 H 0.58763 0.63572 0.19329 0.0
H1511 H 0.62003 0.62821 0.16522 0.0
H1512 H 0.66285 0.56925 0.22232 0.0
H1513 H 0.66573 0.53831 0.216 0.0
H1514 H 0.6411 0.54875 0.23289 0.0
H1515 H 0.61241 0.52934 0.20328 0.0
H1516 H 0.63697 0.51879 0.1863 0.0
H1517 H 0.61461 0.53647 0.17246 0.0
H1518 H 0.65494 0.61396 0.14211 0.0
H1519 H 0.68901 0.59367 0.12465 0.0
H1520 H 0.67845 0.53482 0.17223 0.0
C1521 C 0.60458 0.58125 0.21296 0.0
C1522 C 0.59173 0.6025 0.21187 0.0
C1523 C 0.59726 0.61932 0.19438 0.0
C1524 C 0.61561 0.61521 0.17841 0.0
C1525 C 0.62803 0.59412 0.18011 0.0
C1526 C 0.62264 0.57736 0.19685 0.0
C1527 C 0.63876 0.55625 0.19513 0.0
C1528 C 0.65295 0.55297 0.21794 0.0
C1529 C 0.62485 0.53389 0.18892 0.0
C1530 C 0.65432 0.56386 0.17498 0.0
C1531 C 0.64785 0.58575 0.16656 0.0
C1532 C 0.66007 0.59675 0.14845 0.0
C1533 C 0.67944 0.58509 0.1387 0.0
C1534 C 0.68637 0.56261 0.14703 0.0
C1535 C 0.67349 0.55188 0.16534 0.0
H1536 H 0.29286 0.37016 0.11206 0.0
H1537 H 0.33289 0.43267 0.09503 0.0
H1538 H 0.36199 0.40819 0.07373 0.0
H1539 H 0.34557 0.33057 0.11975 0.0
H1540 H 0.32988 0.30585 0.10762 0.0
H1541 H 0.31426 0.32814 0.12388 0.0
H1542 H 0.2864 0.33411 0.08831 0.0
H1543 H 0.30217 0.31227 0.07177 0.0
H1544 H 0.29865 0.34151 0.06001 0.0
H1545 H 0.38171 0.37765 0.04777 0.0
H1546 H 0.3948 0.34243 0.0254 0.0
H1547 H 0.34426 0.29976 0.0631 0.0
C1548 C 0.30824 0.37852 0.10455 0.0
C1549 C 0.31088 0.40315 0.10521 0.0
C1550 C 0.33091 0.41372 0.09497 0.0
C1551 C 0.34738 0.39998 0.08272 0.0
C1552 C 0.34379 0.37573 0.08157 0.0
C1553 C 0.32512 0.36502 0.0929 0.0
C1554 C 0.32469 0.33881 0.08838 0.0
C1555 C 0.32886 0.32503 0.11127 0.0
C1556 C 0.30161 0.33126 0.0764 0.0
C1557 C 0.34536 0.33657 0.07185 0.0
C1558 C 0.35611 0.35804 0.06795 0.0
C1559 C 0.37393 0.36064 0.05125 0.0
C1560 C 0.38112 0.34069 0.03853 0.0
C1561 C 0.37074 0.31855 0.04297 0.0
C1562 C 0.35281 0.31649 0.0599 0.0
H1563 H 0.33012 0.70119 0.42485 0.0
H1564 H 0.38059 0.66748 0.4709 0.0
H1565 H 0.36947 0.62855 0.45466 0.0
H1566 H 0.28576 0.65811 0.43322 0.0
H1567 H 0.27461 0.66013 0.40361 0.0
H1568 H 0.28864 0.68516 0.41691 0.0
H1569 H 0.31777 0.68713 0.38189 0.0
H1570 H 0.30404 0.66179 0.36869 0.0
H1571 H 0.33515 0.66163 0.3746 0.0
H1572 H 0.35273 0.59349 0.4334 0.0
H1573 H 0.32635 0.56425 0.41475 0.0
H1574 H 0.28413 0.62068 0.38592 0.0
C1575 C 0.33891 0.68557 0.43132 0.0
C1576 C 0.35632 0.68711 0.44887 0.0
C1577 C 0.36718 0.66645 0.45741 0.0
C1578 C 0.36116 0.64438 0.44813 0.0
C1579 C 0.34399 0.6434 0.43065 0.0
C1580 C 0.33262 0.6634 0.42275 0.0
C1581 C 0.31297 0.65735 0.40587 0.0
C1582 C 0.28909 0.66567 0.41548 0.0
C1583 C 0.31778 0.66759 0.38131 0.0
C1584 C 0.31482 0.6308 0.40576 0.0
C1585 C 0.33331 0.62313 0.41957 0.0
C1586 C 0.33827 0.59928 0.42247 0.0
C1587 C 0.32339 0.58283 0.41168 0.0
C1588 C 0.30362 0.59041 0.39872 0.0
C1589 C 0.29949 0.61461 0.39541 0.0
H1590 H 0.70474 0.90154 0.39348 0.0
H1591 H 0.75618 0.91373 0.44853 0.0
H1592 H 0.73757 0.88312 0.47289 0.0
H1593 H 0.65494 0.88909 0.43118 0.0
H1594 H 0.6437 0.86583 0.41281 0.0
H1595 H 0.66022 0.8896 0.39991 0.0
H1596 H 0.68931 0.85968 0.38161 0.0
H1597 H 0.67279 0.83584 0.3943 0.0
H1598 H 0.70376 0.83857 0.40035 0.0
H1599 H 0.71327 0.85196 0.49166 0.0
H1600 H 0.68751 0.81859 0.50186 0.0
H1601 H 0.65322 0.82446 0.43387 0.0
C1602 C 0.71198 0.89777 0.41069 0.0
C1603 C 0.73183 0.91003 0.41918 0.0
C1604 C 0.74104 0.90445 0.44165 0.0
C1605 C 0.7305 0.88722 0.4557 0.0
C1606 C 0.71094 0.87549 0.44691 0.0
C1607 C 0.70194 0.88021 0.42481 0.0
C1608 C 0.6816 0.86396 0.41913 0.0
C1609 C 0.65876 0.87796 0.41555 0.0
C1610 C 0.68721 0.8486 0.39757 0.0
C1611 C 0.68066 0.84942 0.44148 0.0
C1612 C 0.6975 0.85665 0.45739 0.0
C1613 C 0.70003 0.84606 0.47934 0.0
C1614 C 0.68524 0.8272 0.48502 0.0
C1615 C 0.6684 0.81891 0.46866 0.0
C1616 C 0.66597 0.83037 0.44671 0.0
H1617 H 0.18469 0.70948 0.55462 0.0
H1618 H 0.128 0.67951 0.51349 0.0
H1619 H 0.13697 0.64007 0.52982 0.0
H1620 H 0.22474 0.65999 0.54636 0.0
H1621 H 0.23709 0.66291 0.5754 0.0
H1622 H 0.22583 0.68842 0.56037 0.0
H1623 H 0.19858 0.69693 0.59591 0.0
H1624 H 0.20936 0.67114 0.61083 0.0
H1625 H 0.1783 0.6746 0.60568 0.0
H1626 H 0.15017 0.60465 0.55363 0.0
H1627 H 0.1717 0.57442 0.57662 0.0
H1628 H 0.2219 0.62724 0.59881 0.0
C1629 C 0.17441 0.69451 0.54886 0.0
C1630 C 0.1557 0.69732 0.5329 0.0
C1631 C 0.14258 0.6775 0.52557 0.0
C1632 C 0.14739 0.65515 0.53493 0.0
C1633 C 0.16564 0.65302 0.55115 0.0
C1634 C 0.17938 0.67206 0.5575 0.0
C1635 C 0.19866 0.66495 0.57435 0.0
C1636 C 0.22302 0.66932 0.56346 0.0
C1637 C 0.19605 0.67766 0.5981 0.0
C1638 C 0.19351 0.63897 0.5767 0.0
C1639 C 0.17409 0.63248 0.5636 0.0
C1640 C 0.16554 0.60947 0.56373 0.0
C1641 C 0.17768 0.59251 0.57697 0.0
C1642 C 0.1983 0.59869 0.58936 0.0
C1643 C 0.20612 0.6222 0.58942 0.0
H1644 H 0.96207 0.66898 0.68951 0.0
H1645 H 0.90951 0.61367 0.69173 0.0
H1646 H 0.88913 0.63175 0.6579 0.0
H1647 H 0.92224 0.71559 0.67603 0.0
H1648 H 0.94253 0.73078 0.65701 0.0
H1649 H 0.95344 0.71294 0.68079 0.0
H1650 H 0.97859 0.68882 0.65138 0.0
H1651 H 0.96784 0.70665 0.62752 0.0
H1652 H 0.9646 0.67513 0.62644 0.0
H1653 H 0.87448 0.65608 0.6236 0.0
H1654 H 0.86653 0.6852 0.59215 0.0
H1655 H 0.92807 0.72483 0.61375 0.0
C1656 C 0.94641 0.66053 0.68276 0.0
C1657 C 0.93746 0.63986 0.69317 0.0
C1658 C 0.9167 0.62954 0.68402 0.0
C1659 C 0.905 0.63965 0.6648 0.0
C1660 C 0.91419 0.66015 0.65507 0.0
C1661 C 0.93439 0.6705 0.66379 0.0
C1662 C 0.9403 0.69283 0.65062 0.0
C1663 C 0.93957 0.7143 0.6671 0.0
C1664 C 0.96425 0.69072 0.63825 0.0
C1665 C 0.92034 0.69338 0.63308 0.0
C1666 C 0.90549 0.67437 0.63581 0.0
C1667 C 0.88596 0.67108 0.62133 0.0
C1668 C 0.88158 0.68768 0.60355 0.0
C1669 C 0.8966 0.70731 0.60059 0.0
C1670 C 0.91614 0.71011 0.61565 0.0
H1671 H 0.06433 0.86693 0.67602 0.0
H1672 H 0.00759 0.81778 0.69011 0.0
H1673 H 0.0226 0.79154 0.65914 0.0
H1674 H 0.06413 0.85827 0.61197 0.0
H1675 H 0.09558 0.86101 0.60948 0.0
H1676 H 0.08014 0.87634 0.63252 0.0
H1677 H 0.10699 0.85653 0.66353 0.0
H1678 H 0.1223 0.84089 0.64063 0.0
H1679 H 0.10895 0.82489 0.66452 0.0
H1680 H 0.04505 0.76923 0.62956 0.0
H1681 H 0.0705 0.75414 0.59817 0.0
H1682 H 0.11176 0.81842 0.60047 0.0
C1683 C 0.05492 0.85078 0.67236 0.0
C1684 C 0.03478 0.84439 0.68549 0.0
C1685 C 0.02292 0.82315 0.68018 0.0
C1686 C 0.0314 0.80802 0.66273 0.0
C1687 C 0.05154 0.81457 0.6505 0.0
C1688 C 0.06291 0.83562 0.65464 0.0
C1689 C 0.08396 0.83846 0.63847 0.0
C1690 C 0.08075 0.85978 0.62214 0.0
C1691 C 0.1069 0.84029 0.65264 0.0
C1692 C 0.08277 0.81552 0.62487 0.0
C1693 C 0.06406 0.80197 0.63241 0.0
C1694 C 0.0596 0.77975 0.62328 0.0
C1695 C 0.07431 0.77129 0.60554 0.0
C1696 C 0.09311 0.78512 0.5968 0.0
C1697 C 0.09749 0.8075 0.60674 0.0
H1698 H 0.98957 0.33869 0.81915 0.0
H1699 H 0.93346 0.38955 0.8099 0.0
H1700 H 0.91408 0.37456 0.84581 0.0
H1701 H 0.95376 0.29247 0.83453 0.0
H1702 H 0.97362 0.27962 0.85562 0.0
H1703 H 0.985 0.29688 0.83171 0.0
H1704 H 0.00645 0.32417 0.86127 0.0
H1705 H 0.99525 0.30685 0.88534 0.0
H1706 H 0.98999 0.33811 0.88449 0.0
H1707 H 0.89895 0.35131 0.88066 0.0
H1708 H 0.8889 0.32095 0.91031 0.0
H1709 H 0.95432 0.28481 0.89512 0.0
C1710 C 0.97357 0.34716 0.82504 0.0
C1711 C 0.96314 0.36543 0.81188 0.0
C1712 C 0.94182 0.3756 0.81981 0.0
C1713 C 0.93073 0.36726 0.84022 0.0
C1714 C 0.94117 0.34875 0.85245 0.0
C1715 C 0.96215 0.33887 0.84514 0.0
C1716 C 0.96856 0.31764 0.85979 0.0
C1717 C 0.97032 0.29535 0.8445 0.0
C1718 C 0.99142 0.32196 0.87354 0.0
C1719 C 0.94758 0.31668 0.87606 0.0
C1720 C 0.93215 0.33498 0.87191 0.0
C1721 C 0.91103 0.33704 0.88423 0.0
C1722 C 0.90546 0.31975 0.901 0.0
C1723 C 0.92079 0.30054 0.90491 0.0
C1724 C 0.94222 0.29929 0.89249 0.0
H1725 H 0.03043 0.16686 0.82228 0.0
H1726 H 0.08441 0.1139 0.81192 0.0
H1727 H 0.10676 0.1301 0.84538 0.0
H1728 H 0.06914 0.21338 0.83492 0.0
H1729 H 0.0506 0.22691 0.85677 0.0
H1730 H 0.0377 0.20985 0.83344 0.0
H1731 H 0.01671 0.18338 0.86407 0.0
H1732 H 0.0294 0.20049 0.88752 0.0
H1733 H 0.03376 0.16909 0.88667 0.0
H1734 H 0.12424 0.15331 0.8788 0.0
H1735 H 0.13527 0.18191 0.90976 0.0
H1736 H 0.07035 0.22004 0.89719 0.0
C1737 C 0.04671 0.15839 0.82734 0.0
C1738 C 0.05562 0.13906 0.8146 0.0
C1739 C 0.07725 0.12874 0.82147 0.0
C1740 C 0.09006 0.13778 0.84047 0.0
C1741 C 0.08105 0.15717 0.85236 0.0
C1742 C 0.05985 0.16733 0.84612 0.0
C1743 C 0.0547 0.1888 0.86094 0.0
C1744 C 0.05294 0.21104 0.8456 0.0
C1745 C 0.03232 0.18521 0.87567 0.0
C1746 C 0.07641 0.18925 0.87628 0.0
C1747 C 0.09134 0.17079 0.87123 0.0
C1748 C 0.11264 0.1678 0.883 0.0
C1749 C 0.11879 0.18413 0.90049 0.0
C1750 C 0.10373 0.20322 0.9058 0.0
C1751 C 0.08231 0.20569 0.89348 0.0
H1752 H 0.58989 0.94167 0.7076 0.0
H1753 H 0.58118 0.87502 0.67139 0.0
H1754 H 0.61126 0.88709 0.64232 0.0
H1755 H 0.59994 0.97787 0.65497 0.0
H1756 H 0.62132 0.99603 0.6697 0.0
H1757 H 0.59766 0.98293 0.68619 0.0
H1758 H 0.62782 0.96356 0.71436 0.0
H1759 H 0.65152 0.9766 0.69801 0.0
H1760 H 0.6507 0.9452 0.70236 0.0
H1761 H 0.64498 0.90503 0.61972 0.0
H1762 H 0.67937 0.92725 0.6053 0.0
H1763 H 0.66493 0.98247 0.65603 0.0
C1764 C 0.59405 0.92968 0.6934 0.0
C1765 C 0.58323 0.90738 0.69174 0.0
C1766 C 0.58923 0.89221 0.67294 0.0
C1767 C 0.60624 0.89895 0.65634 0.0
C1768 C 0.61679 0.92098 0.6587 0.0
C1769 C 0.61079 0.93616 0.6767 0.0
C1770 C 0.62553 0.9583 0.67619 0.0
C1771 C 0.61019 0.98007 0.67148 0.0
C1772 C 0.63974 0.96106 0.69908 0.0
C1773 C 0.6413 0.95296 0.65548 0.0
C1774 C 0.63588 0.93145 0.64549 0.0
C1775 C 0.64914 0.92205 0.62717 0.0
C1776 C 0.66866 0.93479 0.61914 0.0
C1777 C 0.67472 0.95668 0.62943 0.0
C1778 C 0.66051 0.96601 0.6475 0.0
H1779 H 0.39783 0.54294 0.71817 0.0
H1780 H 0.41206 0.61304 0.69138 0.0
H1781 H 0.3758 0.61117 0.66752 0.0
H1782 H 0.37318 0.51924 0.66332 0.0
H1783 H 0.35168 0.50171 0.67863 0.0
H1784 H 0.37952 0.50806 0.69231 0.0
H1785 H 0.35776 0.5255 0.72834 0.0
H1786 H 0.32987 0.51949 0.71469 0.0
H1787 H 0.33687 0.54896 0.72404 0.0
H1788 H 0.33649 0.60311 0.64962 0.0
H1789 H 0.29832 0.58816 0.63578 0.0
H1790 H 0.31026 0.52264 0.67326 0.0
C1791 C 0.39351 0.55778 0.70703 0.0
C1792 C 0.40772 0.57817 0.70662 0.0
C1793 C 0.40148 0.59721 0.69185 0.0
C1794 C 0.3809 0.59634 0.67832 0.0
C1795 C 0.36699 0.57619 0.67958 0.0
C1796 C 0.3732 0.55711 0.69328 0.0
C1797 C 0.35497 0.53774 0.69186 0.0
C1798 C 0.36547 0.51537 0.68087 0.0
C1799 C 0.34424 0.53264 0.71618 0.0
C1800 C 0.33726 0.54912 0.6756 0.0
C1801 C 0.34454 0.57131 0.66878 0.0
C1802 C 0.33073 0.58567 0.6546 0.0
C1803 C 0.309 0.57704 0.64696 0.0
C1804 C 0.30134 0.55418 0.65339 0.0
C1805 C 0.31572 0.54009 0.6679 0.0
H1806 H 0.6713 0.01538 0.83791 0.0
H1807 H 0.68347 0.07765 0.88037 0.0
H1808 H 0.64552 0.09407 0.86713 0.0
H1809 H 0.64913 0.04482 0.78959 0.0
H1810 H 0.62772 0.02276 0.78191 0.0
H1811 H 0.65396 0.01446 0.79741 0.0
H1812 H 0.62879 0.9956 0.83042 0.0
H1813 H 0.60239 0.00381 0.81495 0.0
H1814 H 0.60664 0.01295 0.84501 0.0
H1815 H 0.60793 0.10523 0.84636 0.0
H1816 H 0.57489 0.11071 0.81855 0.0
H1817 H 0.58837 0.04148 0.78934 0.0
C1818 C 0.66574 0.03221 0.8449 0.0
C1819 C 0.68024 0.04515 0.86029 0.0
C1820 C 0.67258 0.06738 0.86859 0.0
C1821 C 0.65101 0.07681 0.86127 0.0
C1822 C 0.63734 0.06378 0.84567 0.0
C1823 C 0.64442 0.04194 0.83761 0.0
C1824 C 0.62772 0.03246 0.81925 0.0
C1825 C 0.64039 0.0284 0.79566 0.0
C1826 C 0.61567 0.00987 0.82794 0.0
C1827 C 0.61051 0.05265 0.81774 0.0
C1828 C 0.61606 0.0704 0.83338 0.0
C1829 C 0.60325 0.09132 0.83424 0.0
C1830 C 0.58453 0.09428 0.81841 0.0
C1831 C 0.57911 0.07654 0.80181 0.0
C1832 C 0.59205 0.05535 0.80187 0.0
H1833 H 0.29928 0.43714 0.84406 0.0
H1834 H 0.30357 0.51164 0.82769 0.0
H1835 H 0.34181 0.50501 0.80817 0.0
H1836 H 0.36143 0.42899 0.85633 0.0
H1837 H 0.36227 0.40002 0.84346 0.0
H1838 H 0.33554 0.41073 0.85664 0.0
H1839 H 0.31312 0.40298 0.81773 0.0
H1840 H 0.33974 0.3922 0.80445 0.0
H1841 H 0.32373 0.41592 0.79079 0.0
H1842 H 0.37814 0.4899 0.78844 0.0
H1843 H 0.41085 0.46758 0.77075 0.0
H1844 H 0.38379 0.40317 0.80152 0.0
C1845 C 0.30827 0.4521 0.83643 0.0
C1846 C 0.29842 0.47492 0.83731 0.0
C1847 C 0.31081 0.49403 0.82724 0.0
C1848 C 0.33252 0.49044 0.81614 0.0
C1849 C 0.34168 0.4677 0.81554 0.0
C1850 C 0.33004 0.44888 0.82554 0.0
C1851 C 0.34357 0.42617 0.82226 0.0
C1852 C 0.35115 0.41588 0.84609 0.0
C1853 C 0.32918 0.40827 0.80795 0.0
C1854 C 0.36449 0.43508 0.80845 0.0
C1855 C 0.36303 0.45909 0.80477 0.0
C1856 C 0.37962 0.47116 0.79144 0.0
C1857 C 0.39808 0.45832 0.78143 0.0
C1858 C 0.39989 0.43371 0.78494 0.0
C1859 C 0.38303 0.42203 0.79889 0.0
H1860 H 0.65273 0.68526 0.92575 0.0
H1861 H 0.68625 0.693 0.99395 0.0
H1862 H 0.71057 0.65805 0.98591 0.0
H1863 H 0.65093 0.62112 0.92676 0.0
H1864 H 0.65654 0.61833 0.89568 0.0
H1865 H 0.64153 0.64392 0.90682 0.0
H1866 H 0.67265 0.67071 0.88713 0.0
H1867 H 0.68788 0.64521 0.87612 0.0
H1868 H 0.70332 0.66646 0.89386 0.0
H1869 H 0.73271 0.62402 0.96993 0.0
H1870 H 0.74878 0.58997 0.94868 0.0
H1871 H 0.6999 0.60245 0.89133 0.0
C1872 C 0.66508 0.6795 0.93904 0.0
C1873 C 0.66761 0.6919 0.96048 0.0
C1874 C 0.6839 0.68374 0.97747 0.0
C1875 C 0.69789 0.66397 0.97302 0.0
C1876 C 0.6952 0.65237 0.95162 0.0
C1877 C 0.67899 0.65955 0.93503 0.0
C1878 C 0.67942 0.64356 0.91365 0.0
C1879 C 0.6557 0.63098 0.91056 0.0
C1880 C 0.68623 0.65731 0.89138 0.0
C1881 C 0.6986 0.62645 0.92075 0.0
C1882 C 0.70755 0.63206 0.94265 0.0
C1883 C 0.72574 0.61932 0.95285 0.0
C1884 C 0.73483 0.60006 0.94054 0.0
C1885 C 0.72559 0.59351 0.91833 0.0
C1886 C 0.70728 0.60699 0.90828 0.0
H1887 H 0.66886 0.31667 0.53391 0.0
H1888 H 0.62537 0.30035 0.59447 0.0
H1889 H 0.64094 0.33531 0.61507 0.0
H1890 H 0.71877 0.33414 0.56628 0.0
H1891 H 0.72711 0.35721 0.54619 0.0
H1892 H 0.7111 0.33206 0.53558 0.0
H1893 H 0.67889 0.35953 0.51866 0.0
H1894 H 0.69485 0.3848 0.52916 0.0
H1895 H 0.66467 0.38049 0.53774 0.0
H1896 H 0.66225 0.37173 0.62943 0.0
H1897 H 0.68875 0.40557 0.63674 0.0
H1898 H 0.71891 0.39648 0.56721 0.0
C1899 C 0.66233 0.32063 0.55136 0.0
C1900 C 0.64579 0.30591 0.56253 0.0
C1901 C 0.63803 0.31144 0.58557 0.0
C1902 C 0.64671 0.33128 0.59738 0.0
C1903 C 0.66322 0.3453 0.58596 0.0
C1904 C 0.67099 0.34016 0.56349 0.0
C1905 C 0.68975 0.35721 0.55556 0.0
C1906 C 0.71306 0.34438 0.55063 0.0
C1907 C 0.68154 0.37135 0.53401 0.0
C1908 C 0.69149 0.37261 0.57716 0.0
C1909 C 0.6759 0.36569 0.59444 0.0
C1910 C 0.67451 0.37733 0.61601 0.0
C1911 C 0.68959 0.3965 0.62001 0.0
C1912 C 0.70593 0.40352 0.60261 0.0
C1913 C 0.70671 0.39143 0.58093 0.0
H1914 H 0.30307 0.10623 0.5977 0.0
H1915 H 0.26694 0.08472 0.53403 0.0
H1916 H 0.28582 0.11708 0.5122 0.0
H1917 H 0.29554 0.16703 0.58851 0.0
H1918 H 0.32366 0.17554 0.60035 0.0
H1919 H 0.30964 0.14904 0.61049 0.0
H1920 H 0.34662 0.1249 0.59925 0.0
H1921 H 0.3608 0.1514 0.58915 0.0
H1922 H 0.35792 0.12655 0.56966 0.0
H1923 H 0.30678 0.15264 0.49768 0.0
H1924 H 0.3272 0.1905 0.49184 0.0
H1925 H 0.34823 0.19024 0.56528 0.0
C1926 C 0.29957 0.10812 0.57906 0.0
C1927 C 0.28375 0.09296 0.56745 0.0
C1928 C 0.27906 0.0962 0.54321 0.0
C1929 C 0.28976 0.11444 0.53064 0.0
C1930 C 0.30495 0.12939 0.54263 0.0
C1931 C 0.30981 0.12654 0.56631 0.0
C1932 C 0.32526 0.14625 0.57534 0.0
C1933 C 0.31277 0.16029 0.59482 0.0
C1934 C 0.34906 0.1367 0.58385 0.0
C1935 C 0.32799 0.16073 0.55313 0.0
C1936 C 0.31642 0.15049 0.5344 0.0
C1937 C 0.31603 0.1608 0.51217 0.0
C1938 C 0.32767 0.18229 0.50902 0.0
C1939 C 0.33925 0.19333 0.5281 0.0
C1940 C 0.33949 0.18226 0.55036 0.0
H1941 H 0.76716 0.39315 0.42735 0.0
H1942 H 0.81027 0.4155 0.36848 0.0
H1943 H 0.83962 0.385 0.3786 0.0
H1944 H 0.81515 0.38221 0.46721 0.0
H1945 H 0.80128 0.35709 0.48068 0.0
H1946 H 0.78355 0.38038 0.46856 0.0
H1947 H 0.76173 0.35025 0.44222 0.0
H1948 H 0.7793 0.32687 0.45435 0.0
H1949 H 0.77843 0.33138 0.42298 0.0
H1950 H 0.86334 0.35109 0.39431 0.0
H1951 H 0.88049 0.31705 0.41517 0.0
H1952 H 0.82289 0.3185 0.46516 0.0
C1953 C 0.78271 0.39156 0.41649 0.0
C1954 C 0.78639 0.40654 0.397 0.0
C1955 C 0.80711 0.40414 0.38344 0.0
C1956 C 0.82385 0.3869 0.38907 0.0
C1957 C 0.81971 0.37248 0.40848 0.0
C1958 C 0.79972 0.37473 0.42207 0.0
C1959 C 0.7996 0.35729 0.4422 0.0
C1960 C 0.79992 0.37001 0.46607 0.0
C1961 C 0.77852 0.34045 0.44031 0.0
C1962 C 0.82254 0.34463 0.43767 0.0
C1963 C 0.83382 0.3536 0.41808 0.0
C1964 C 0.85479 0.34407 0.4098 0.0
C1965 C 0.86436 0.32475 0.42174 0.0
C1966 C 0.85311 0.31532 0.44188 0.0
C1967 C 0.83208 0.32561 0.45006 0.0
H1968 H 0.53919 0.82559 0.81326 0.0
H1969 H 0.58706 0.88419 0.80347 0.0
H1970 H 0.61226 0.86873 0.83551 0.0
H1971 H 0.54398 0.82105 0.87628 0.0
H1972 H 0.54277 0.78937 0.87601 0.0
H1973 H 0.52827 0.80594 0.85326 0.0
H1974 H 0.55158 0.78281 0.82162 0.0
H1975 H 0.56633 0.76632 0.84427 0.0
H1976 H 0.58323 0.78241 0.82281 0.0
H1977 H 0.6319 0.84651 0.86938 0.0
H1978 H 0.6445 0.81917 0.90099 0.0
H1979 H 0.58459 0.77447 0.88583 0.0
C1980 C 0.55479 0.83541 0.81803 0.0
C1981 C 0.56104 0.85625 0.80607 0.0
C1982 C 0.58189 0.86825 0.81252 0.0
C1983 C 0.5963 0.85959 0.83066 0.0
C1984 C 0.58972 0.83879 0.8419 0.0
C1985 C 0.56948 0.82685 0.83572 0.0
C1986 C 0.56661 0.80447 0.84977 0.0
C1987 C 0.54408 0.80527 0.86472 0.0
C1988 C 0.56697 0.78273 0.83365 0.0
C1989 C 0.58836 0.80566 0.86495 0.0
C1990 C 0.60144 0.82562 0.86037 0.0
C1991 C 0.62187 0.83073 0.87296 0.0
C1992 C 0.62892 0.81512 0.89083 0.0
C1993 C 0.61571 0.79457 0.89564 0.0
C1994 C 0.59532 0.78981 0.88232 0.0
H1995 H 0.47038 0.65462 0.8152 0.0
H1996 H 0.42069 0.59693 0.82027 0.0
H1997 H 0.40059 0.61731 0.85307 0.0
H1998 H 0.47362 0.66887 0.87787 0.0
H1999 H 0.47509 0.70004 0.8722 0.0
H2000 H 0.48686 0.67955 0.8511 0.0
H2001 H 0.46044 0.69771 0.81866 0.0
H2002 H 0.44861 0.71821 0.83966 0.0
H2003 H 0.42914 0.69935 0.82323 0.0
H2004 H 0.38471 0.64548 0.88409 0.0
H2005 H 0.37444 0.67897 0.9101 0.0
H2006 H 0.43377 0.7182 0.8825 0.0
C2007 C 0.45563 0.64594 0.82355 0.0
C2008 C 0.44726 0.62407 0.81538 0.0
C2009 C 0.4275 0.61363 0.8264 0.0
C2010 C 0.41598 0.62506 0.84501 0.0
C2011 C 0.42438 0.64694 0.85224 0.0
C2012 C 0.44379 0.65721 0.84183 0.0
C2013 C 0.44841 0.6815 0.85153 0.0
C2014 C 0.47242 0.68254 0.86392 0.0
C2015 C 0.44652 0.7003 0.83212 0.0
C2016 C 0.42845 0.68344 0.86891 0.0
C2017 C 0.41486 0.66331 0.86931 0.0
C2018 C 0.39529 0.6613 0.88397 0.0
C2019 C 0.38956 0.68038 0.89862 0.0
C2020 C 0.40322 0.70119 0.8982 0.0
C2021 C 0.42286 0.7026 0.88313 0.0
H2022 H 0.52819 0.15195 0.68139 0.0
H2023 H 0.58001 0.09631 0.688 0.0
H2024 H 0.60266 0.11368 0.65513 0.0
H2025 H 0.53042 0.15807 0.61771 0.0
H2026 H 0.52729 0.18961 0.61896 0.0
H2027 H 0.51445 0.17151 0.64157 0.0
H2028 H 0.5371 0.19513 0.67331 0.0
H2029 H 0.55018 0.21316 0.65083 0.0
H2030 H 0.56862 0.19754 0.67133 0.0
H2031 H 0.62023 0.13832 0.62197 0.0
H2032 H 0.63128 0.16835 0.59227 0.0
H2033 H 0.56845 0.20804 0.60954 0.0
C2034 C 0.54406 0.14312 0.67567 0.0
C2035 C 0.55222 0.12265 0.68709 0.0
C2036 C 0.57337 0.11196 0.67939 0.0
C2037 C 0.58634 0.12168 0.66075 0.0
C2038 C 0.57798 0.14215 0.65015 0.0
C2039 C 0.55731 0.15271 0.65738 0.0
C2040 C 0.55268 0.17526 0.64412 0.0
C2041 C 0.52986 0.17349 0.62973 0.0
C2042 C 0.55212 0.19651 0.6609 0.0
C2043 C 0.57404 0.17587 0.62836 0.0
C2044 C 0.58838 0.15657 0.63185 0.0
C2045 C 0.60911 0.1535 0.6191 0.0
C2046 C 0.61527 0.17061 0.60231 0.0
C2047 C 0.60082 0.19057 0.59872 0.0
C2048 C 0.58 0.19309 0.61198 0.0
H2049 H 0.44983 0.32713 0.68642 0.0
H2050 H 0.40922 0.39173 0.68393 0.0
H2051 H 0.38727 0.37638 0.64955 0.0
H2052 H 0.45471 0.31798 0.62452 0.0
H2053 H 0.4518 0.28648 0.62678 0.0
H2054 H 0.46422 0.30296 0.65078 0.0
H2055 H 0.43314 0.28528 0.67902 0.0
H2056 H 0.42046 0.26889 0.65509 0.0
H2057 H 0.40236 0.28845 0.67224 0.0
H2058 H 0.37059 0.35379 0.61445 0.0
H2059 H 0.36039 0.3259 0.58251 0.0
H2060 H 0.41104 0.27602 0.61026 0.0
C2061 C 0.43646 0.3382 0.67859 0.0
C2062 C 0.43137 0.36072 0.68772 0.0
C2063 C 0.41346 0.37444 0.67715 0.0
C2064 C 0.40089 0.36586 0.65766 0.0
C2065 C 0.40631 0.34346 0.64921 0.0
C2066 C 0.42362 0.32983 0.65946 0.0
C2067 C 0.42598 0.30625 0.64745 0.0
C2068 C 0.45064 0.30326 0.63675 0.0
C2069 C 0.42013 0.28603 0.66447 0.0
C2070 C 0.40745 0.30876 0.62861 0.0
C2071 C 0.39628 0.33032 0.62978 0.0
C2072 C 0.3791 0.33679 0.6135 0.0
C2073 C 0.37341 0.32086 0.59546 0.0
C2074 C 0.38477 0.29873 0.59403 0.0
C2075 C 0.40179 0.29265 0.61103 0.0
H2076 H 0.89474 0.59192 0.81261 0.0
H2077 H 0.91431 0.52921 0.77379 0.0
H2078 H 0.88468 0.5063 0.79557 0.0
H2079 H 0.87998 0.56259 0.86916 0.0
H2080 H 0.85504 0.58144 0.87435 0.0
H2081 H 0.88002 0.59236 0.8582 0.0
H2082 H 0.85278 0.60352 0.82341 0.0
H2083 H 0.82778 0.59264 0.83943 0.0
H2084 H 0.83418 0.58131 0.81052 0.0
H2085 H 0.85139 0.49081 0.81892 0.0
H2086 H 0.81468 0.48417 0.8408 0.0
H2087 H 0.81506 0.55713 0.86362 0.0
C2088 C 0.89309 0.57326 0.80917 0.0
C2089 C 0.90689 0.56223 0.79174 0.0
C2090 C 0.90389 0.53794 0.78714 0.0
C2091 C 0.88722 0.52475 0.79951 0.0
C2092 C 0.87356 0.53616 0.8163 0.0
C2093 C 0.87617 0.55987 0.8211 0.0
C2094 C 0.85758 0.56824 0.83828 0.0
C2095 C 0.86883 0.57665 0.86137 0.0
C2096 C 0.84217 0.58756 0.82724 0.0
C2097 C 0.84387 0.54566 0.84189 0.0
C2098 C 0.85368 0.5273 0.82936 0.0
C2099 C 0.84363 0.50498 0.82902 0.0
C2100 C 0.82273 0.50135 0.8415 0.0
C2101 C 0.81195 0.52007 0.85396 0.0
C2102 C 0.82296 0.54237 0.85441 0.0
H2103 H 0.17912 0.93575 0.8478 0.0
H2104 H 0.18365 0.00519 0.81627 0.0
H2105 H 0.14994 0.99566 0.79063 0.0
H2106 H 0.16461 0.90433 0.79599 0.0
H2107 H 0.14425 0.88462 0.81019 0.0
H2108 H 0.16826 0.89706 0.82665 0.0
H2109 H 0.139 0.91385 0.85727 0.0
H2110 H 0.11489 0.90129 0.84103 0.0
H2111 H 0.11516 0.93232 0.84753 0.0
H2112 H 0.11773 0.97774 0.76676 0.0
H2113 H 0.08641 0.95404 0.74855 0.0
H2114 H 0.10148 0.89675 0.79678 0.0
C2115 C 0.17291 0.94903 0.83563 0.0
C2116 C 0.18402 0.97121 0.83398 0.0
C2117 C 0.17532 0.98814 0.81791 0.0
C2118 C 0.15626 0.98285 0.80322 0.0
C2119 C 0.14596 0.96069 0.80505 0.0
C2120 C 0.15373 0.94416 0.82106 0.0
C2121 C 0.13948 0.9217 0.81955 0.0
C2122 C 0.15508 0.90069 0.81268 0.0
C2123 C 0.12635 0.91703 0.84273 0.0
C2124 C 0.12265 0.92807 0.79994 0.0
C2125 C 0.12684 0.95059 0.79174 0.0
C2126 C 0.11414 0.96018 0.77317 0.0
C2127 C 0.09647 0.9465 0.76286 0.0
C2128 C 0.09151 0.92356 0.77128 0.0
C2129 C 0.10481 0.91426 0.79007 0.0
H2130 H 0.90955 0.43894 0.71393 0.0
H2131 H 0.92015 0.37179 0.67916 0.0
H2132 H 0.88664 0.3804 0.65272 0.0
H2133 H 0.84751 0.43845 0.71319 0.0
H2134 H 0.84469 0.46957 0.70781 0.0
H2135 H 0.87003 0.45843 0.72311 0.0
H2136 H 0.8973 0.47834 0.69249 0.0
H2137 H 0.87201 0.48951 0.67704 0.0
H2138 H 0.89346 0.47196 0.66167 0.0
H2139 H 0.85058 0.39559 0.63174 0.0
H2140 H 0.81504 0.41608 0.61758 0.0
H2141 H 0.8291 0.47373 0.66565 0.0
C2142 C 0.90493 0.42604 0.70071 0.0
C2143 C 0.91739 0.40464 0.69863 0.0
C2144 C 0.91082 0.38829 0.68104 0.0
C2145 C 0.89186 0.39305 0.66595 0.0
C2146 C 0.87989 0.41432 0.66858 0.0
C2147 C 0.88626 0.43058 0.68547 0.0
C2148 C 0.8703 0.45188 0.68509 0.0
C2149 C 0.85737 0.45473 0.7087 0.0
C2150 C 0.8841 0.47424 0.67868 0.0
C2151 C 0.85363 0.44491 0.66561 0.0
C2152 C 0.85948 0.42324 0.65624 0.0
C2153 C 0.84597 0.41267 0.63877 0.0
C2154 C 0.8258 0.42444 0.63088 0.0
C2155 C 0.81937 0.44658 0.64041 0.0
C2156 C 0.83372 0.45702 0.65777 0.0
H2157 H 0.10078 0.05836 0.71878 0.0
H2158 H 0.08131 0.12114 0.67989 0.0
H2159 H 0.11332 0.11327 0.65147 0.0
H2160 H 0.16195 0.06441 0.71317 0.0
H2161 H 0.1676 0.03338 0.7099 0.0
H2162 H 0.14233 0.04319 0.72618 0.0
H2163 H 0.11518 0.01841 0.69926 0.0
H2164 H 0.14039 0.00844 0.6829 0.0
H2165 H 0.11634 0.02254 0.66784 0.0
H2166 H 0.14914 0.09996 0.62917 0.0
H2167 H 0.18526 0.08166 0.61369 0.0
H2168 H 0.18046 0.02704 0.66689 0.0
C2169 C 0.10308 0.07039 0.70418 0.0
C2170 C 0.08861 0.09041 0.70152 0.0
C2171 C 0.09218 0.10567 0.68218 0.0
C2172 C 0.1103 0.10134 0.66599 0.0
C2173 C 0.12443 0.08156 0.66933 0.0
C2174 C 0.12089 0.06624 0.68784 0.0
C2175 C 0.13885 0.0466 0.68791 0.0
C2176 C 0.15355 0.04694 0.71063 0.0
C2177 C 0.12697 0.02258 0.68425 0.0
C2178 C 0.1534 0.05351 0.66678 0.0
C2179 C 0.14477 0.07368 0.65627 0.0
C2180 C 0.15591 0.08403 0.63709 0.0
C2181 C 0.17646 0.07353 0.62849 0.0
C2182 C 0.18562 0.05285 0.63903 0.0
C2183 C 0.17375 0.04266 0.65828 0.0
H2184 H 0.77678 0.9077 0.55925 0.0
H2185 H 0.80787 0.92122 0.62766 0.0
H2186 H 0.83571 0.88835 0.62128 0.0
H2187 H 0.77963 0.84557 0.56149 0.0
H2188 H 0.78662 0.84217 0.53075 0.0
H2189 H 0.76989 0.86722 0.54046 0.0
H2190 H 0.80037 0.89518 0.52134 0.0
H2191 H 0.81724 0.8702 0.51158 0.0
H2192 H 0.83094 0.89266 0.52927 0.0
H2193 H 0.85861 0.85271 0.6081 0.0
H2194 H 0.87538 0.8175 0.58904 0.0
H2195 H 0.82974 0.82836 0.52881 0.0
C2196 C 0.78949 0.90384 0.5729 0.0
C2197 C 0.79015 0.91695 0.594 0.0
C2198 C 0.80709 0.91139 0.61136 0.0
C2199 C 0.82296 0.89279 0.60788 0.0
C2200 C 0.82172 0.88016 0.58688 0.0
C2201 C 0.80548 0.88554 0.56964 0.0
C2202 C 0.80747 0.86909 0.54881 0.0
C2203 C 0.78455 0.85519 0.54518 0.0
C2204 C 0.81443 0.8826 0.52643 0.0
C2205 C 0.82717 0.85332 0.55714 0.0
C2206 C 0.83518 0.86 0.57911 0.0
C2207 C 0.85263 0.84746 0.59082 0.0
C2208 C 0.86201 0.82746 0.57985 0.0
C2209 C 0.85396 0.82026 0.55737 0.0
C2210 C 0.83649 0.83358 0.54584 0.0
H2211 H 0.78177 0.10473 0.92542 0.0
H2212 H 0.81402 0.08893 0.85806 0.0
H2213 H 0.84259 0.12125 0.86442 0.0
H2214 H 0.78752 0.16744 0.92292 0.0
H2215 H 0.7939 0.17022 0.95385 0.0
H2216 H 0.77596 0.14627 0.94351 0.0
H2217 H 0.80425 0.11646 0.96329 0.0
H2218 H 0.82232 0.14032 0.9736 0.0
H2219 H 0.83509 0.11717 0.95611 0.0
H2220 H 0.86717 0.156 0.87832 0.0
H2221 H 0.88621 0.18934 0.8988 0.0
H2222 H 0.83821 0.18055 0.95749 0.0
C2223 C 0.79473 0.1081 0.91188 0.0
C2224 C 0.79561 0.09444 0.89115 0.0
C2225 C 0.81303 0.09926 0.87404 0.0
C2226 C 0.82929 0.11755 0.87751 0.0
C2227 C 0.82794 0.13062 0.89825 0.0
C2228 C 0.81113 0.12601 0.91515 0.0
C2229 C 0.81355 0.14219 0.93612 0.0
C2230 C 0.79142 0.15743 0.93927 0.0
C2231 C 0.81914 0.12819 0.9586 0.0
C2232 C 0.83433 0.15678 0.92838 0.0
C2233 C 0.84237 0.14997 0.90646 0.0
C2234 C 0.86109 0.16138 0.89553 0.0
C2235 C 0.87177 0.18029 0.90729 0.0
C2236 C 0.8638 0.18743 0.92981 0.0
C2237 C 0.84491 0.17536 0.94043 0.0
H2238 H 0.17429 0.3065 0.93171 0.0
H2239 H 0.10778 0.33704 0.95252 0.0
H2240 H 0.1172 0.37317 0.92975 0.0
H2241 H 0.20765 0.35852 0.93774 0.0
H2242 H 0.22662 0.35235 0.91311 0.0
H2243 H 0.21332 0.32853 0.92911 0.0
H2244 H 0.19541 0.31269 0.89028 0.0
H2245 H 0.20839 0.33673 0.8742 0.0
H2246 H 0.17717 0.33167 0.87262 0.0
H2247 H 0.13465 0.40613 0.90536 0.0
H2248 H 0.16072 0.43537 0.88642 0.0
H2249 H 0.21652 0.38351 0.88353 0.0
C2250 C 0.16174 0.32083 0.9313 0.0
C2251 C 0.14038 0.3193 0.94365 0.0
C2252 C 0.12428 0.3382 0.94309 0.0
C2253 C 0.12941 0.35858 0.93009 0.0
C2254 C 0.1507 0.35959 0.91791 0.0
C2255 C 0.16672 0.3413 0.91869 0.0
C2256 C 0.18911 0.34741 0.90576 0.0
C2257 C 0.21042 0.34667 0.92243 0.0
C2258 C 0.19272 0.33116 0.88445 0.0
C2259 C 0.18349 0.37225 0.89807 0.0
C2260 C 0.16103 0.37876 0.90468 0.0
C2261 C 0.15222 0.40117 0.9 0.0
C2262 C 0.16707 0.41761 0.88909 0.0
C2263 C 0.19056 0.41161 0.88349 0.0
C2264 C 0.19858 0.38848 0.8875 0.0
H2265 H 0.6745 0.18168 0.05065 0.0
H2266 H 0.6151 0.17923 0.09851 0.0
H2267 H 0.6325 0.14465 0.11828 0.0
H2268 H 0.68211 0.11968 0.04424 0.0
H2269 H 0.71374 0.12118 0.0436 0.0
H2270 H 0.69656 0.14573 0.03338 0.0
H2271 H 0.71818 0.17319 0.0626 0.0
H2272 H 0.7354 0.14872 0.073 0.0
H2273 H 0.71845 0.16598 0.09349 0.0
H2274 H 0.65578 0.10937 0.13181 0.0
H2275 H 0.68386 0.07687 0.13886 0.0
H2276 H 0.72855 0.10376 0.08313 0.0
C2277 C 0.66509 0.17385 0.06525 0.0
C2278 C 0.64338 0.18306 0.07297 0.0
C2279 C 0.63177 0.17246 0.09231 0.0
C2280 C 0.64149 0.15281 0.10364 0.0
C2281 C 0.66294 0.14419 0.09556 0.0
C2282 C 0.67466 0.15445 0.0769 0.0
C2283 C 0.69754 0.14194 0.07174 0.0
C2284 C 0.69746 0.13151 0.04676 0.0
C2285 C 0.71863 0.15844 0.07544 0.0
C2286 C 0.69675 0.12285 0.09026 0.0
C2287 C 0.67664 0.12437 0.10379 0.0
C2288 C 0.67169 0.1081 0.12146 0.0
C2289 C 0.6877 0.08972 0.12532 0.0
C2290 C 0.70843 0.08792 0.11167 0.0
C2291 C 0.713 0.10484 0.09406 0.0
H2292 H 0.43727 0.22035 0.0942 0.0
H2293 H 0.37152 0.18486 0.07878 0.0
H2294 H 0.3774 0.15924 0.11354 0.0
H2295 H 0.46902 0.1688 0.11389 0.0
H2296 H 0.4847 0.18463 0.13643 0.0
H2297 H 0.47547 0.19961 0.11008 0.0
H2298 H 0.45334 0.23046 0.13529 0.0
H2299 H 0.46245 0.21558 0.16171 0.0
H2300 H 0.43168 0.22074 0.15629 0.0
H2301 H 0.38982 0.13885 0.151 0.0
H2302 H 0.40811 0.12438 0.18759 0.0
H2303 H 0.46619 0.17292 0.17765 0.0
C2304 C 0.4241 0.20715 0.09803 0.0
C2305 C 0.40388 0.20461 0.08383 0.0
C2306 C 0.38714 0.18707 0.08943 0.0
C2307 C 0.39034 0.17247 0.10911 0.0
C2308 C 0.41044 0.17558 0.12283 0.0
C2309 C 0.42709 0.19241 0.11743 0.0
C2310 C 0.44704 0.19241 0.13505 0.0
C2311 C 0.47044 0.18597 0.12315 0.0
C2312 C 0.44871 0.21621 0.14784 0.0
C2313 C 0.43889 0.17312 0.15144 0.0
C2314 C 0.41776 0.16363 0.1441 0.0
C2315 C 0.40644 0.14603 0.15682 0.0
C2316 C 0.41697 0.13798 0.17761 0.0
C2317 C 0.43865 0.14746 0.18547 0.0
C2318 C 0.44974 0.16517 0.17204 0.0
H2319 H 0.55673 0.36012 0.18477 0.0
H2320 H 0.48561 0.33311 0.19083 0.0
H2321 H 0.49253 0.3075 0.15643 0.0
H2322 H 0.55958 0.35929 0.12004 0.0
H2323 H 0.59 0.35047 0.1199 0.0
H2324 H 0.57873 0.36812 0.1437 0.0
H2325 H 0.59321 0.33698 0.17367 0.0
H2326 H 0.60441 0.31919 0.15002 0.0
H2327 H 0.58374 0.30686 0.17064 0.0
H2328 H 0.50846 0.28207 0.12431 0.0
H2329 H 0.53164 0.25977 0.09522 0.0
H2330 H 0.59204 0.30424 0.10913 0.0
C2331 C 0.54246 0.3491 0.17867 0.0
C2332 C 0.5206 0.34862 0.19049 0.0
C2333 C 0.50245 0.33386 0.18199 0.0
C2334 C 0.50622 0.31925 0.16248 0.0
C2335 C 0.52813 0.31985 0.15154 0.0
C2336 C 0.54587 0.33456 0.15916 0.0
C2337 C 0.56813 0.3311 0.14497 0.0
C2338 C 0.57447 0.35358 0.13134 0.0
C2339 C 0.58857 0.32305 0.16077 0.0
C2340 C 0.56033 0.31169 0.12853 0.0
C2341 C 0.53717 0.30551 0.13259 0.0
C2342 C 0.52647 0.28699 0.12071 0.0
C2343 C 0.53982 0.27437 0.10431 0.0
C2344 C 0.56356 0.28041 0.09986 0.0
C2345 C 0.57382 0.29951 0.11193 0.0
H2346 H 0.47316 0.83738 0.31868 0.0
H2347 H 0.42431 0.89588 0.31536 0.0
H2348 H 0.40198 0.87906 0.3487 0.0
H2349 H 0.43018 0.79403 0.32907 0.0
H2350 H 0.44826 0.77662 0.34842 0.0
H2351 H 0.4617 0.79444 0.32599 0.0
H2352 H 0.48696 0.81556 0.35753 0.0
H2353 H 0.47376 0.79762 0.38006 0.0
H2354 H 0.47274 0.82923 0.38236 0.0
H2355 H 0.38442 0.85502 0.38192 0.0
H2356 H 0.3726 0.82517 0.41144 0.0
H2357 H 0.43179 0.78168 0.39077 0.0
C2358 C 0.45807 0.84692 0.32532 0.0
C2359 C 0.45061 0.86808 0.31471 0.0
C2360 C 0.43038 0.87971 0.3234 0.0
C2361 C 0.41761 0.8703 0.34231 0.0
C2362 C 0.42517 0.84914 0.35209 0.0
C2363 C 0.44491 0.83758 0.34383 0.0
C2364 C 0.4485 0.81436 0.35629 0.0
C2365 C 0.44706 0.79365 0.3389 0.0
C2366 C 0.47187 0.8142 0.36987 0.0
C2367 C 0.42769 0.81463 0.37282 0.0
C2368 C 0.41454 0.8349 0.37035 0.0
C2369 C 0.39458 0.83905 0.38399 0.0
C2370 C 0.38798 0.82203 0.40066 0.0
C2371 C 0.40116 0.80107 0.40323 0.0
C2372 C 0.42119 0.79742 0.38904 0.0
H2373 H 0.58299 0.73315 0.39889 0.0
H2374 H 0.64283 0.68904 0.41602 0.0
H2375 H 0.62905 0.65938 0.38719 0.0
H2376 H 0.5415 0.68633 0.39384 0.0
H2377 H 0.52554 0.69988 0.37003 0.0
H2378 H 0.54069 0.71793 0.3912 0.0
H2379 H 0.56398 0.73823 0.35765 0.0
H2380 H 0.54867 0.72048 0.33638 0.0
H2381 H 0.58034 0.72046 0.3371 0.0
H2382 H 0.60883 0.63511 0.35568 0.0
H2383 H 0.58394 0.61817 0.32429 0.0
H2384 H 0.53625 0.67742 0.33028 0.0
C2385 C 0.59342 0.7174 0.39638 0.0
C2386 C 0.61415 0.71348 0.40944 0.0
C2387 C 0.62699 0.69243 0.40602 0.0
C2388 C 0.61926 0.67549 0.38977 0.0
C2389 C 0.5985 0.6798 0.37743 0.0
C2390 C 0.58576 0.70024 0.38063 0.0
C2391 C 0.56377 0.70051 0.36569 0.0
C2392 C 0.54157 0.7012 0.38112 0.0
C2393 C 0.56424 0.72114 0.34816 0.0
C2394 C 0.56622 0.67713 0.3533 0.0
C2395 C 0.58638 0.66544 0.36023 0.0
C2396 C 0.59289 0.644 0.3503 0.0
C2397 C 0.57865 0.63451 0.33253 0.0
C2398 C 0.55803 0.64635 0.32508 0.0
C2399 C 0.55162 0.66772 0.33595 0.0
H2400 H 0.17991 0.46663 0.17136 0.0
H2401 H 0.20049 0.39964 0.14103 0.0
H2402 H 0.16372 0.38174 0.15559 0.0
H2403 H 0.1554 0.44281 0.2238 0.0
H2404 H 0.13197 0.46409 0.22544 0.0
H2405 H 0.15929 0.47177 0.21147 0.0
H2406 H 0.13672 0.48317 0.17352 0.0
H2407 H 0.10932 0.47536 0.18734 0.0
H2408 H 0.11756 0.46195 0.15982 0.0
H2409 H 0.12461 0.37111 0.17376 0.0
H2410 H 0.08788 0.36797 0.19694 0.0
H2411 H 0.09403 0.4416 0.21615 0.0
C2412 C 0.17663 0.44824 0.16765 0.0
C2413 C 0.19299 0.43456 0.15498 0.0
C2414 C 0.18819 0.41045 0.15075 0.0
C2415 C 0.16731 0.40015 0.15882 0.0
C2416 C 0.15151 0.41416 0.17121 0.0
C2417 C 0.15603 0.43763 0.17578 0.0
C2418 C 0.13677 0.44855 0.19048 0.0
C2419 C 0.14644 0.45731 0.2142 0.0
C2420 C 0.12436 0.46843 0.17697 0.0
C2421 C 0.12081 0.42752 0.19363 0.0
C2422 C 0.12941 0.40791 0.18215 0.0
C2423 C 0.11769 0.38636 0.1828 0.0
C2424 C 0.09684 0.38475 0.19592 0.0
C2425 C 0.0882 0.4045 0.20836 0.0
C2426 C 0.10024 0.42617 0.20687 0.0
H2427 H 0.81573 0.06044 0.1508 0.0
H2428 H 0.81394 0.98766 0.17408 0.0
H2429 H 0.85026 0.99416 0.19687 0.0
H2430 H 0.87946 0.06462 0.14511 0.0
H2431 H 0.88037 0.09455 0.15556 0.0
H2432 H 0.85479 0.08391 0.14022 0.0
H2433 H 0.82858 0.09612 0.17544 0.0
H2434 H 0.85406 0.10674 0.1909 0.0
H2435 H 0.83527 0.08507 0.2044 0.0
H2436 H 0.88498 0.0091 0.21906 0.0
H2437 H 0.91704 0.03109 0.23813 0.0
H2438 H 0.89711 0.09395 0.19959 0.0
C2439 C 0.82305 0.04579 0.16053 0.0
C2440 C 0.81198 0.02353 0.16067 0.0
C2441 C 0.82215 0.00484 0.17364 0.0
C2442 C 0.84276 0.00836 0.18665 0.0
C2443 C 0.85308 0.03058 0.1863 0.0
C2444 C 0.8437 0.04894 0.17346 0.0
C2445 C 0.85799 0.07122 0.17647 0.0
C2446 C 0.8688 0.07903 0.15294 0.0
C2447 C 0.84308 0.09095 0.18746 0.0
C2448 C 0.87668 0.06261 0.19335 0.0
C2449 C 0.87348 0.03911 0.19877 0.0
C2450 C 0.88783 0.02743 0.21477 0.0
C2451 C 0.90592 0.04012 0.22557 0.0
C2452 C 0.90958 0.0642 0.22026 0.0
C2453 C 0.89487 0.0755 0.20377 0.0
H2454 H 0.0958 0.55919 0.2855 0.0
H2455 H 0.08446 0.62594 0.3208 0.0
H2456 H 0.11786 0.61737 0.34738 0.0
H2457 H 0.11271 0.52581 0.3381 0.0
H2458 H 0.13421 0.50871 0.3223 0.0
H2459 H 0.10847 0.51949 0.30732 0.0
H2460 H 0.13498 0.53989 0.27635 0.0
H2461 H 0.16076 0.52928 0.29127 0.0
H2462 H 0.15719 0.56034 0.28597 0.0
H2463 H 0.15473 0.60307 0.36734 0.0
H2464 H 0.19093 0.58328 0.38081 0.0
H2465 H 0.17697 0.52522 0.33325 0.0
C2466 C 0.10014 0.57192 0.299 0.0
C2467 C 0.08761 0.59327 0.3011 0.0
C2468 C 0.0938 0.60944 0.31898 0.0
C2469 C 0.11273 0.60472 0.33411 0.0
C2470 C 0.12497 0.58365 0.33127 0.0
C2471 C 0.11874 0.56739 0.31433 0.0
C2472 C 0.1351 0.5464 0.31438 0.0
C2473 C 0.12183 0.52377 0.32092 0.0
C2474 C 0.14776 0.54385 0.29058 0.0
C2475 C 0.15193 0.55362 0.33364 0.0
C2476 C 0.14578 0.57514 0.34318 0.0
C2477 C 0.15951 0.58607 0.36025 0.0
C2478 C 0.18008 0.57473 0.3677 0.0
C2479 C 0.18664 0.55264 0.35818 0.0
C2480 C 0.1722 0.5419 0.34111 0.0
H2481 H 0.82428 0.93881 0.35256 0.0
H2482 H 0.80704 0.00133 0.31219 0.0
H2483 H 0.83969 0.9926 0.28491 0.0
H2484 H 0.88779 0.94374 0.34634 0.0
H2485 H 0.89196 0.91237 0.3442 0.0
H2486 H 0.86768 0.92401 0.36089 0.0
H2487 H 0.83874 0.89916 0.33598 0.0
H2488 H 0.86288 0.88757 0.31911 0.0
H2489 H 0.83886 0.9021 0.30441 0.0
H2490 H 0.87245 0.97568 0.26068 0.0
H2491 H 0.90506 0.95345 0.24276 0.0
H2492 H 0.90199 0.90271 0.29977 0.0
C2493 C 0.82746 0.95079 0.33809 0.0
C2494 C 0.81309 0.97076 0.33448 0.0
C2495 C 0.81789 0.98601 0.31537 0.0
C2496 C 0.83634 0.98115 0.29974 0.0
C2497 C 0.84994 0.96113 0.30363 0.0
C2498 C 0.84592 0.94634 0.32249 0.0
C2499 C 0.86306 0.92594 0.32268 0.0
C2500 C 0.87854 0.92657 0.34484 0.0
C2501 C 0.8501 0.9023 0.3204 0.0
C2502 C 0.87719 0.93139 0.30079 0.0
C2503 C 0.86924 0.9517 0.29001 0.0
C2504 C 0.87896 0.95987 0.26908 0.0
C2505 C 0.89741 0.94705 0.25898 0.0
C2506 C 0.90609 0.92638 0.26991 0.0
C2507 C 0.89583 0.91853 0.29111 0.0
H2508 H 0.16486 0.17939 0.47569 0.0
H2509 H 0.11704 0.19374 0.41796 0.0
H2510 H 0.13157 0.15847 0.39717 0.0
H2511 H 0.21259 0.16174 0.44041 0.0
H2512 H 0.22263 0.13918 0.4603 0.0
H2513 H 0.20701 0.16431 0.47153 0.0
H2514 H 0.17644 0.13675 0.49112 0.0
H2515 H 0.19206 0.11151 0.48003 0.0
H2516 H 0.16129 0.11522 0.47346 0.0
H2517 H 0.1526 0.12228 0.38195 0.0
H2518 H 0.1791 0.08878 0.37334 0.0
H2519 H 0.21369 0.09935 0.44056 0.0
C2520 C 0.15714 0.17491 0.45886 0.0
C2521 C 0.1397 0.18923 0.44853 0.0
C2522 C 0.13039 0.18299 0.42625 0.0
C2523 C 0.13849 0.16296 0.41432 0.0
C2524 C 0.15597 0.14942 0.42485 0.0
C2525 C 0.16518 0.15515 0.44662 0.0
C2526 C 0.18473 0.13849 0.45353 0.0
C2527 C 0.20812 0.15173 0.45661 0.0
C2528 C 0.17823 0.12467 0.47585 0.0
C2529 C 0.18525 0.12266 0.43214 0.0
C2530 C 0.1684 0.12905 0.41587 0.0
C2531 C 0.16581 0.11707 0.39461 0.0
C2532 C 0.18092 0.09809 0.38986 0.0
C2533 C 0.19849 0.09152 0.40622 0.0
C2534 C 0.2005 0.10398 0.42763 0.0
H2535 H 0.22768 0.90032 0.07694 0.0
H2536 H 0.18604 0.91493 0.13921 0.0
H2537 H 0.15922 0.88224 0.1287 0.0
H2538 H 0.17942 0.88819 0.03917 0.0
H2539 H 0.19443 0.86535 0.02311 0.0
H2540 H 0.21095 0.88894 0.03626 0.0
H2541 H 0.23626 0.85873 0.05921 0.0
H2542 H 0.21997 0.83504 0.04595 0.0
H2543 H 0.22201 0.83713 0.07752 0.0
H2544 H 0.13723 0.84768 0.11119 0.0
H2545 H 0.12143 0.81451 0.08792 0.0
H2546 H 0.17657 0.82456 0.03615 0.0
C2547 C 0.21311 0.89648 0.08858 0.0
C2548 C 0.20904 0.90997 0.10903 0.0
C2549 C 0.18952 0.90468 0.12353 0.0
C2550 C 0.17421 0.8862 0.11768 0.0
C2551 C 0.17859 0.87345 0.09717 0.0
C2552 C 0.19754 0.87842 0.08284 0.0
C2553 C 0.19802 0.86269 0.06138 0.0
C2554 C 0.19555 0.87716 0.03864 0.0
C2555 C 0.22039 0.8475 0.06101 0.0
C2556 C 0.17638 0.84796 0.06588 0.0
C2557 C 0.16548 0.85431 0.08667 0.0
C2558 C 0.14555 0.84266 0.09482 0.0
C2559 C 0.13671 0.82387 0.08149 0.0
C2560 C 0.14766 0.81712 0.06014 0.0
C2561 C 0.1676 0.82954 0.0522 0.0
H2562 H 0.85847 0.68556 0.06437 0.0
H2563 H 0.82765 0.69503 0.99512 0.0
H2564 H 0.803 0.65983 0.00147 0.0
H2565 H 0.85939 0.62115 0.06331 0.0
H2566 H 0.85225 0.61875 0.09411 0.0
H2567 H 0.86847 0.64383 0.08352 0.0
H2568 H 0.83726 0.67174 0.10149 0.0
H2569 H 0.82092 0.64679 0.11208 0.0
H2570 H 0.80681 0.66821 0.09345 0.0
H2571 H 0.77945 0.626 0.01665 0.0
H2572 H 0.75965 0.59447 0.03887 0.0
H2573 H 0.80682 0.60596 0.09772 0.0
C2574 C 0.84672 0.68013 0.05041 0.0
C2575 C 0.84496 0.69306 0.02924 0.0
C2576 C 0.82936 0.68535 0.01144 0.0
C2577 C 0.81529 0.66539 0.01489 0.0
C2578 C 0.81726 0.65325 0.0361 0.0
C2579 C 0.83273 0.66018 0.05348 0.0
C2580 C 0.83096 0.64447 0.07494 0.0
C2581 C 0.85415 0.63127 0.07921 0.0
C2582 C 0.82354 0.65865 0.09677 0.0
C2583 C 0.8117 0.62787 0.06711 0.0
C2584 C 0.80407 0.63327 0.04464 0.0
C2585 C 0.78548 0.62139 0.0341 0.0
C2586 C 0.7743 0.60359 0.04691 0.0
C2587 C 0.78184 0.59773 0.06993 0.0
C2588 C 0.80097 0.60985 0.08002 0.0
H2589 H 0.27109 0.8997 0.91857 0.0
H2590 H 0.31072 0.91976 0.85654 0.0
H2591 H 0.33933 0.88792 0.86472 0.0
H2592 H 0.32137 0.88724 0.95482 0.0
H2593 H 0.3075 0.86294 0.96973 0.0
H2594 H 0.28991 0.8868 0.95855 0.0
H2595 H 0.26493 0.85726 0.93445 0.0
H2596 H 0.28237 0.83331 0.94562 0.0
H2597 H 0.27933 0.83742 0.91433 0.0
H2598 H 0.36242 0.85275 0.8789 0.0
H2599 H 0.37975 0.81844 0.89924 0.0
H2600 H 0.32646 0.82355 0.95355 0.0
C2601 C 0.2857 0.8973 0.9066 0.0
C2602 C 0.28863 0.91197 0.88677 0.0
C2603 C 0.30818 0.90861 0.87177 0.0
C2604 C 0.32446 0.8906 0.87628 0.0
C2605 C 0.32108 0.87646 0.89605 0.0
C2606 C 0.3023 0.87978 0.91109 0.0
C2607 C 0.30295 0.86266 0.93148 0.0
C2608 C 0.3056 0.8757 0.95503 0.0
C2609 C 0.2811 0.84672 0.93145 0.0
C2610 C 0.32492 0.84897 0.92546 0.0
C2611 C 0.33502 0.85707 0.90486 0.0
C2612 C 0.35483 0.84644 0.89517 0.0
C2613 C 0.3645 0.82697 0.90681 0.0
C2614 C 0.35456 0.81858 0.92806 0.0
C2615 C 0.33465 0.82989 0.93756 0.0
H2616 H 0.99782 0.55343 0.21734 0.0
H2617 H 0.95714 0.56887 0.27964 0.0
H2618 H 0.9429 0.52757 0.28045 0.0
H2619 H 0.957 0.50559 0.19184 0.0
H2620 H 0.9823 0.48924 0.18201 0.0
H2621 H 0.98302 0.52096 0.18233 0.0
H2622 H 0.02063 0.5197 0.20801 0.0
H2623 H 0.01995 0.48822 0.20794 0.0
H2624 H 0.0201 0.50389 0.23551 0.0
H2625 H 0.9414 0.48295 0.2798 0.0
H2626 H 0.95341 0.44106 0.27833 0.0
H2627 H 0.99525 0.45538 0.21644 0.0
C2628 C 0.98494 0.54832 0.23041 0.0
C2629 C 0.97819 0.56418 0.24817 0.0
C2630 C 0.96198 0.55699 0.26556 0.0
C2631 C 0.95389 0.53356 0.26612 0.0
C2632 C 0.96193 0.51786 0.24894 0.0
C2633 C 0.97681 0.52518 0.23112 0.0
C2634 C 0.98617 0.50465 0.21706 0.0
C2635 C 0.97654 0.50514 0.19181 0.0
C2636 C 0.01329 0.50409 0.21718 0.0
C2637 C 0.97584 0.48443 0.23083 0.0
C2638 C 0.96126 0.49223 0.2487 0.0
C2639 C 0.9522 0.47666 0.26545 0.0
C2640 C 0.95901 0.45285 0.26446 0.0
C2641 C 0.97508 0.44509 0.24714 0.0
C2642 C 0.98264 0.46088 0.2296 0.0
H2643 H 0.00536 0.95213 0.21427 0.0
H2644 H 0.0385 0.93552 0.28076 0.0
H2645 H 0.05353 0.97638 0.28328 0.0
H2646 H 0.04975 0.99866 0.19373 0.0
H2647 H 0.02618 0.01579 0.18127 0.0
H2648 H 0.02443 0.98411 0.18142 0.0
H2649 H 0.98434 0.98644 0.20302 0.0
H2650 H 0.98596 0.01786 0.20283 0.0
H2651 H 0.98238 0.00246 0.23032 0.0
H2652 H 0.05604 0.02081 0.28315 0.0
H2653 H 0.04442 0.06277 0.28113 0.0
H2654 H 0.00986 0.04994 0.21468 0.0
C2655 C 0.01659 0.95685 0.22891 0.0
C2656 C 0.02083 0.94076 0.24729 0.0
C2657 C 0.03532 0.94754 0.26633 0.0
C2658 C 0.04393 0.97073 0.26785 0.0
C2659 C 0.03829 0.98664 0.24994 0.0
C2660 C 0.02521 0.97976 0.23061 0.0
C2661 C 0.01808 0.00054 0.21565 0.0
C2662 C 0.03035 0.99972 0.19159 0.0
C2663 C 0.99112 0.0019 0.21284 0.0
C2664 C 0.02748 0.02046 0.2305 0.0
C2665 C 0.03981 0.01223 0.24982 0.0
C2666 C 0.04714 0.02746 0.2677 0.0
C2667 C 0.04064 0.05133 0.26637 0.0
C2668 C 0.02666 0.05947 0.24751 0.0
C2669 C 0.02114 0.04412 0.22888 0.0
H2670 H 0.21219 0.9968 0.55042 0.0
H2671 H 0.27737 0.95972 0.56244 0.0
H2672 H 0.27722 0.94621 0.5209 0.0
H2673 H 0.18718 0.95657 0.50177 0.0
H2674 H 0.17586 0.98208 0.48672 0.0
H2675 H 0.17698 0.98156 0.51842 0.0
H2676 H 0.20088 0.02034 0.51798 0.0
H2677 H 0.20015 0.02087 0.48652 0.0
H2678 H 0.228 0.02163 0.50161 0.0
H2679 H 0.27485 0.94549 0.47634 0.0
H2680 H 0.27142 0.95856 0.43488 0.0
H2681 H 0.20873 0.9978 0.4525 0.0
C2682 C 0.2257 0.98472 0.54456 0.0
C2683 C 0.24452 0.97885 0.55952 0.0
C2684 C 0.26247 0.96379 0.55131 0.0
C2685 C 0.26251 0.95617 0.52772 0.0
C2686 C 0.24435 0.96361 0.51285 0.0
C2687 C 0.22604 0.97731 0.52119 0.0
C2688 C 0.21106 0.98686 0.50141 0.0
C2689 C 0.1863 0.97611 0.50212 0.0
C2690 C 0.21001 0.014 0.50192 0.0
C2691 C 0.22471 0.97795 0.48046 0.0
C2692 C 0.24337 0.96385 0.48723 0.0
C2693 C 0.25992 0.95594 0.47086 0.0
C2694 C 0.25783 0.96337 0.44732 0.0
C2695 C 0.23967 0.97898 0.44063 0.0
C2696 C 0.22251 0.98553 0.45721 0.0
H2697 H 0.71692 0.48891 0.55051 0.0
H2698 H 0.77415 0.53717 0.56423 0.0
H2699 H 0.77558 0.5473 0.52176 0.0
H2700 H 0.73977 0.46441 0.50265 0.0
H2701 H 0.71273 0.46051 0.48661 0.0
H2702 H 0.71223 0.46181 0.51812 0.0
H2703 H 0.68257 0.49639 0.51674 0.0
H2704 H 0.68265 0.495 0.48506 0.0
H2705 H 0.68938 0.52228 0.49974 0.0
H2706 H 0.77552 0.54578 0.47654 0.0
H2707 H 0.77332 0.53348 0.43466 0.0
H2708 H 0.71646 0.48585 0.45203 0.0
C2709 C 0.72913 0.50234 0.54472 0.0
C2710 C 0.74531 0.51239 0.56057 0.0
C2711 C 0.76131 0.52959 0.55237 0.0
C2712 C 0.76229 0.53534 0.52827 0.0
C2713 C 0.74687 0.52402 0.51281 0.0
C2714 C 0.73027 0.50818 0.52093 0.0
C2715 C 0.71765 0.49605 0.50096 0.0
C2716 C 0.72081 0.46913 0.50217 0.0
C2717 C 0.69151 0.50285 0.50061 0.0
C2718 C 0.73054 0.50648 0.48025 0.0
C2719 C 0.74701 0.52296 0.48719 0.0
C2720 C 0.76231 0.53328 0.47094 0.0
C2721 C 0.76097 0.52622 0.44719 0.0
C2722 C 0.74474 0.50871 0.44014 0.0
C2723 C 0.72902 0.49932 0.45686 0.0
H2724 H 0.22767 0.97761 0.95 0.0
H2725 H 0.25774 0.04567 0.93307 0.0
H2726 H 0.25573 0.05671 0.97536 0.0
H2727 H 0.18804 0.99723 0.99629 0.0
H2728 H 0.19287 0.97095 0.01336 0.0
H2729 H 0.1948 0.96987 0.98175 0.0
H2730 H 0.2369 0.95259 0.98476 0.0
H2731 H 0.23502 0.95349 0.01629 0.0
H2732 H 0.25887 0.96816 0.00147 0.0
H2733 H 0.2529 0.05833 0.02112 0.0
H2734 H 0.25124 0.04959 0.06399 0.0
H2735 H 0.22291 0.98057 0.04844 0.0
C2736 C 0.23368 0.99499 0.95497 0.0
C2737 C 0.24293 0.01076 0.93818 0.0
C2738 C 0.25053 0.0333 0.94563 0.0
C2739 C 0.24939 0.03972 0.96959 0.0
C2740 C 0.24038 0.02347 0.98572 0.0
C2741 C 0.23261 0.00159 0.97851 0.0
C2742 C 0.22499 0.98649 0.99894 0.0
C2743 C 0.19861 0.98081 0.99749 0.0
C2744 C 0.23984 0.96387 0.00045 0.0
C2745 C 0.2302 0.00296 0.01904 0.0
C2746 C 0.23879 0.02437 0.01131 0.0
C2747 C 0.24593 0.04171 0.02725 0.0
C2748 C 0.24482 0.03669 0.05154 0.0
C2749 C 0.23694 0.01443 0.05947 0.0
C2750 C 0.22899 0.99777 0.04292 0.0
H2751 H 0.70863 0.5129 0.04962 0.0
H2752 H 0.75965 0.45917 0.0669 0.0
H2753 H 0.75669 0.44353 0.02614 0.0
H2754 H 0.67356 0.47826 0.00451 0.0
H2755 H 0.67006 0.50439 0.98687 0.0
H2756 H 0.67146 0.50666 0.01848 0.0
H2757 H 0.70591 0.5363 0.01474 0.0
H2758 H 0.70469 0.53407 0.98334 0.0
H2759 H 0.73181 0.52791 0.99851 0.0
H2760 H 0.75416 0.43972 0.98132 0.0
H2761 H 0.75353 0.44899 0.93864 0.0
H2762 H 0.70494 0.50597 0.95181 0.0
C2763 C 0.7185 0.49724 0.04507 0.0
C2764 C 0.73425 0.4871 0.06128 0.0
C2765 C 0.74719 0.4669 0.05476 0.0
C2766 C 0.7456 0.45798 0.03165 0.0
C2767 C 0.7307 0.46928 0.01561 0.0
C2768 C 0.71714 0.48835 0.0223 0.0
C2769 C 0.70533 0.49992 0.00152 0.0
C2770 C 0.67851 0.49713 0.00293 0.0
C2771 C 0.71238 0.52606 0.99941 0.0
C2772 C 0.71542 0.48539 0.98175 0.0
C2773 C 0.72949 0.46733 0.99006 0.0
C2774 C 0.74268 0.45338 0.9747 0.0
C2775 C 0.74216 0.45865 0.95048 0.0
C2776 C 0.7289 0.47796 0.94211 0.0
C2777 C 0.71477 0.4908 0.95783 0.0
H2778 H 0.4546 0.21082 0.99635 0.0
H2779 H 0.44837 0.27236 0.95201 0.0
H2780 H 0.49092 0.27025 0.94317 0.0
H2781 H 0.50163 0.22656 0.02432 0.0
H2782 H 0.51556 0.19817 0.02674 0.0
H2783 H 0.48438 0.19997 0.02327 0.0
H2784 H 0.48667 0.17339 0.98628 0.0
H2785 H 0.51812 0.17143 0.98972 0.0
H2786 H 0.50577 0.18142 0.96228 0.0
H2787 H 0.53487 0.26789 0.94833 0.0
H2788 H 0.57431 0.26531 0.96672 0.0
H2789 H 0.55156 0.20484 0.00683 0.0
C2790 C 0.46205 0.22316 0.9839 0.0
C2791 C 0.44836 0.24166 0.97478 0.0
C2792 C 0.45858 0.25782 0.95888 0.0
C2793 C 0.48275 0.25673 0.95379 0.0
C2794 C 0.49619 0.23902 0.96429 0.0
C2795 C 0.48598 0.22217 0.97863 0.0
C2796 C 0.50427 0.20731 0.99088 0.0
C2797 C 0.50128 0.2081 0.01786 0.0
C2798 C 0.50367 0.18188 0.98173 0.0
C2799 C 0.52636 0.21974 0.98299 0.0
C2800 C 0.52157 0.23751 0.96704 0.0
C2801 C 0.53894 0.25352 0.96013 0.0
C2802 C 0.56133 0.25192 0.97056 0.0
C2803 C 0.56584 0.23469 0.98789 0.0
C2804 C 0.54853 0.21783 0.99321 0.0
H2805 H 0.55671 0.73595 0.47447 0.0
H2806 H 0.56989 0.76494 0.54373 0.0
H2807 H 0.52682 0.76509 0.55158 0.0
H2808 H 0.50897 0.77007 0.46099 0.0
H2809 H 0.49349 0.74742 0.44512 0.0
H2810 H 0.525 0.7467 0.44675 0.0
H2811 H 0.52353 0.70463 0.46429 0.0
H2812 H 0.49193 0.70506 0.4625 0.0
H2813 H 0.50613 0.69907 0.49021 0.0
H2814 H 0.48099 0.76562 0.5492 0.0
H2815 H 0.43891 0.76579 0.53724 0.0
H2816 H 0.45858 0.73674 0.4695 0.0
C2817 C 0.55065 0.74201 0.4915 0.0
C2818 C 0.56653 0.75054 0.50847 0.0
C2819 C 0.55793 0.75819 0.53055 0.0
C2820 C 0.53354 0.75838 0.53509 0.0
C2821 C 0.51826 0.75053 0.51747 0.0
C2822 C 0.52671 0.74223 0.49623 0.0
C2823 C 0.50723 0.73612 0.47938 0.0
C2824 C 0.50877 0.75097 0.45675 0.0
C2825 C 0.50721 0.70965 0.47378 0.0
C2826 C 0.48629 0.74291 0.49406 0.0
C2827 C 0.49269 0.75095 0.51609 0.0
C2828 C 0.47587 0.7591 0.53207 0.0
C2829 C 0.45204 0.75916 0.52516 0.0
C2830 C 0.44549 0.75142 0.5024 0.0
C2831 C 0.46293 0.74293 0.48698 0.0
H2832 H 0.05383 0.73666 0.519 0.0
H2833 H 0.06455 0.78396 0.46013 0.0
H2834 H 0.02166 0.78271 0.4517 0.0
H2835 H 0.00588 0.70144 0.49346 0.0
H2836 H 0.99135 0.69917 0.52154 0.0
H2837 H 0.02292 0.7013 0.52019 0.0
H2838 H 0.02172 0.73757 0.54788 0.0
H2839 H 0.99027 0.73555 0.54932 0.0
H2840 H 0.00392 0.76258 0.53993 0.0
H2841 H 0.97628 0.77966 0.45355 0.0
H2842 H 0.93456 0.77602 0.4659 0.0
H2843 H 0.95583 0.73073 0.52342 0.0
C2844 C 0.04734 0.7465 0.50403 0.0
C2845 C 0.06247 0.76049 0.49026 0.0
C2846 C 0.05322 0.77303 0.47084 0.0
C2847 C 0.02892 0.77238 0.46594 0.0
C2848 C 0.01438 0.75883 0.48044 0.0
C2849 C 0.02347 0.74598 0.49898 0.0
C2850 C 0.00449 0.73444 0.51343 0.0
C2851 C 0.00627 0.70749 0.51206 0.0
C2852 C 0.00514 0.74307 0.53914 0.0
C2853 C 0.98306 0.74335 0.5007 0.0
C2854 C 0.98888 0.75712 0.48149 0.0
C2855 C 0.9716 0.76859 0.46831 0.0
C2856 C 0.94796 0.76638 0.47537 0.0
C2857 C 0.94204 0.75309 0.4956 0.0
C2858 C 0.95981 0.74095 0.50784 0.0
H2859 H 0.00861 0.45085 0.70478 0.0
H2860 H 0.05165 0.43593 0.76562 0.0
H2861 H 0.06099 0.47833 0.76934 0.0
H2862 H 0.04296 0.5059 0.68317 0.0
H2863 H 0.01557 0.51944 0.6748 0.0
H2864 H 0.01918 0.48802 0.67226 0.0
H2865 H 0.98196 0.48192 0.69777 0.0
H2866 H 0.97841 0.51305 0.7007 0.0
H2867 H 0.98065 0.49497 0.72666 0.0
H2868 H 0.05621 0.52255 0.77286 0.0
H2869 H 0.03859 0.56247 0.77505 0.0
H2870 H 0.99852 0.54799 0.71208 0.0
C2871 C 0.0211 0.45644 0.71803 0.0
C2872 C 0.02967 0.44026 0.73471 0.0
C2873 C 0.04538 0.44805 0.75233 0.0
C2874 C 0.05066 0.47216 0.7546 0.0
C2875 C 0.04044 0.48803 0.73882 0.0
C2876 C 0.02641 0.4803 0.72047 0.0
C2877 C 0.01419 0.50055 0.70831 0.0
C2878 C 0.02355 0.50366 0.68314 0.0
C2879 C 0.98724 0.49742 0.70841 0.0
C2880 C 0.02183 0.52069 0.72386 0.0
C2881 C 0.03758 0.51344 0.74094 0.0
C2882 C 0.04452 0.52855 0.7591 0.0
C2883 C 0.03451 0.55122 0.76023 0.0
C2884 C 0.01748 0.55821 0.74354 0.0
C2885 C 0.01187 0.54309 0.72475 0.0
H2886 H 0.00474 0.04485 0.7848 0.0
H2887 H 0.95846 0.06258 0.72714 0.0
H2888 H 0.94393 0.02132 0.72633 0.0
H2889 H 0.02422 0.99445 0.7633 0.0
H2890 H 0.0263 0.97873 0.79076 0.0
H2891 H 0.028 0.01018 0.79059 0.0
H2892 H 0.99323 0.01248 0.81999 0.0
H2893 H 0.99144 0.9808 0.82029 0.0
H2894 H 0.96587 0.99807 0.81306 0.0
H2895 H 0.94153 0.97632 0.72648 0.0
H2896 H 0.95187 0.93386 0.72733 0.0
H2897 H 0.99935 0.94671 0.78525 0.0
C2898 C 0.9908 0.04023 0.77267 0.0
C2899 C 0.98247 0.05674 0.75622 0.0
C2900 C 0.96466 0.05017 0.74019 0.0
C2901 C 0.95639 0.02678 0.73963 0.0
C2902 C 0.96581 0.01051 0.75553 0.0
C2903 C 0.98239 0.0172 0.77205 0.0
C2904 C 0.99235 0.9963 0.78507 0.0
C2905 C 0.01928 0.99484 0.78223 0.0
C2906 C 0.98529 0.99696 0.81115 0.0
C2907 C 0.98005 0.97653 0.77233 0.0
C2908 C 0.96432 0.98488 0.75572 0.0
C2909 C 0.95322 0.96963 0.73992 0.0
C2910 C 0.95903 0.94552 0.74058 0.0
C2911 C 0.97599 0.93715 0.75671 0.0
C2912 C 0.98582 0.9527 0.77324 0.0
H2913 H 0.78517 0.00424 0.44784 0.0
H2914 H 0.72155 0.04154 0.42891 0.0
H2915 H 0.71772 0.0555 0.47008 0.0
H2916 H 0.76497 0.98106 0.49734 0.0
H2917 H 0.79194 0.98269 0.51389 0.0
H2918 H 0.79294 0.98136 0.48243 0.0
H2919 H 0.81716 0.01999 0.48136 0.0
H2920 H 0.81624 0.02143 0.51303 0.0
H2921 H 0.80601 0.04596 0.49573 0.0
H2922 H 0.71662 0.05806 0.51488 0.0
H2923 H 0.71755 0.04763 0.55724 0.0
H2924 H 0.78157 0.00818 0.54597 0.0
C2925 C 0.77086 0.01605 0.45214 0.0
C2926 C 0.75368 0.02186 0.43521 0.0
C2927 C 0.73508 0.03712 0.44155 0.0
C2928 C 0.7328 0.04512 0.46491 0.0
C2929 C 0.7495 0.03801 0.48152 0.0
C2930 C 0.76837 0.02403 0.4752 0.0
C2931 C 0.78203 0.01574 0.49643 0.0
C2932 C 0.78299 0.98863 0.49758 0.0
C2933 C 0.80683 0.02643 0.49664 0.0
C2934 C 0.7671 0.0259 0.51589 0.0
C2935 C 0.74878 0.03931 0.50712 0.0
C2936 C 0.73125 0.04815 0.52192 0.0
C2937 C 0.73196 0.04228 0.546 0.0
C2938 C 0.74981 0.02736 0.55477 0.0
C2939 C 0.76802 0.02 0.5397 0.0
H2940 H 0.28156 0.51425 0.4547 0.0
H2941 H 0.22809 0.46294 0.43737 0.0
H2942 H 0.22458 0.45251 0.47964 0.0
H2943 H 0.30772 0.48203 0.50701 0.0
H2944 H 0.31205 0.50956 0.52215 0.0
H2945 H 0.31423 0.50833 0.49053 0.0
H2946 H 0.28289 0.54129 0.48724 0.0
H2947 H 0.28044 0.54247 0.51864 0.0
H2948 H 0.25464 0.53721 0.50102 0.0
H2949 H 0.22149 0.45405 0.52462 0.0
H2950 H 0.21955 0.46717 0.56629 0.0
H2951 H 0.27514 0.51738 0.55272 0.0
C2952 C 0.26974 0.50018 0.45971 0.0
C2953 C 0.25515 0.48933 0.44292 0.0
C2954 C 0.23966 0.47121 0.45003 0.0
C2955 C 0.23756 0.46523 0.474 0.0
C2956 C 0.25143 0.47723 0.49037 0.0
C2957 C 0.26755 0.49406 0.48333 0.0
C2958 C 0.27824 0.50675 0.50404 0.0
C2959 C 0.30463 0.50133 0.50605 0.0
C2960 C 0.27376 0.53348 0.50264 0.0
C2961 C 0.26464 0.49554 0.52385 0.0
C2962 C 0.24961 0.47816 0.5159 0.0
C2963 C 0.23362 0.46722 0.53106 0.0
C2964 C 0.23262 0.47471 0.55469 0.0
C2965 C 0.24722 0.49324 0.56258 0.0
C2966 C 0.26387 0.50308 0.54712 0.0
H2967 H 0.78143 0.01504 0.95118 0.0
H2968 H 0.73523 0.95756 0.93218 0.0
H2969 H 0.73216 0.94631 0.97427 0.0
H2970 H 0.81061 0.98576 0.00297 0.0
H2971 H 0.8113 0.01327 0.01872 0.0
H2972 H 0.81368 0.01305 0.98711 0.0
H2973 H 0.77835 0.04171 0.98448 0.0
H2974 H 0.77556 0.04173 0.01591 0.0
H2975 H 0.7508 0.03361 0.99789 0.0
H2976 H 0.72903 0.94612 0.0196 0.0
H2977 H 0.72731 0.95635 0.06211 0.0
H2978 H 0.77514 0.01436 0.04958 0.0
C2979 C 0.77134 0.99955 0.95576 0.0
C2980 C 0.75867 0.9871 0.93849 0.0
C2981 C 0.74538 0.96711 0.94516 0.0
C2982 C 0.74347 0.96069 0.96903 0.0
C2983 C 0.75527 0.97422 0.98583 0.0
C2984 C 0.7693 0.993 0.9793 0.0
C2985 C 0.77817 0.00647 0.00038 0.0
C2986 C 0.80503 0.0045 0.00241 0.0
C2987 C 0.77023 0.03239 0.9996 0.0
C2988 C 0.76607 0.99313 0.01985 0.0
C2989 C 0.75325 0.9743 0.01139 0.0
C2990 C 0.73937 0.96058 0.02638 0.0
C2991 C 0.73844 0.9665 0.05047 0.0
C2992 C 0.75098 0.98621 0.0591 0.0
C2993 C 0.76526 0.99923 0.04355 0.0
H2994 H 0.23598 0.46463 0.94916 0.0
H2995 H 0.23295 0.54017 0.93856 0.0
H2996 H 0.2364 0.54604 0.9818 0.0
H2997 H 0.20259 0.4626 0.00259 0.0
H2998 H 0.22025 0.43918 0.01461 0.0
H2999 H 0.21658 0.44172 0.98326 0.0
H3000 H 0.26187 0.44285 0.97808 0.0
H3001 H 0.26568 0.44048 0.0094 0.0
H3002 H 0.27877 0.46468 0.99366 0.0
H3003 H 0.24169 0.54253 0.02743 0.0
H3004 H 0.24714 0.53012 0.06904 0.0
H3005 H 0.24688 0.45711 0.04666 0.0
C3006 C 0.23594 0.48251 0.95575 0.0
C3007 C 0.23429 0.50196 0.94043 0.0
C3008 C 0.23416 0.52499 0.94999 0.0
C3009 C 0.23616 0.52846 0.9745 0.0
C3010 C 0.23815 0.50872 0.98904 0.0
C3011 C 0.2379 0.48622 0.97982 0.0
C3012 C 0.24062 0.4677 0.99856 0.0
C3013 C 0.2187 0.45188 0.99983 0.0
C3014 C 0.26307 0.45308 0.99469 0.0
C3015 C 0.24267 0.48314 0.01996 0.0
C3016 C 0.24117 0.50677 0.01443 0.0
C3017 C 0.24281 0.52405 0.03185 0.0
C3018 C 0.24595 0.51687 0.05542 0.0
C3019 C 0.24748 0.49264 0.06118 0.0
C3020 C 0.24582 0.47579 0.04304 0.0
H3021 H 0.45923 0.78049 0.96018 0.0
H3022 H 0.43951 0.74725 0.02588 0.0
H3023 H 0.48147 0.74762 0.03836 0.0
H3024 H 0.50874 0.74824 0.94996 0.0
H3025 H 0.52527 0.77202 0.93709 0.0
H3026 H 0.49377 0.7722 0.93557 0.0
H3027 H 0.49282 0.81321 0.95558 0.0
H3028 H 0.52445 0.81318 0.95709 0.0
H3029 H 0.50735 0.81736 0.98345 0.0
H3030 H 0.52729 0.74781 0.0408 0.0
H3031 H 0.5703 0.74735 0.03268 0.0
H3032 H 0.5575 0.78019 0.96511 0.0
C3033 C 0.46358 0.77364 0.97743 0.0
C3034 C 0.44618 0.76376 0.99205 0.0
C3035 C 0.45261 0.75505 0.01448 0.0
C3036 C 0.47638 0.75519 0.02165 0.0
C3037 C 0.49325 0.76445 0.00631 0.0
C3038 C 0.4869 0.77374 0.98474 0.0
C3039 C 0.50796 0.78103 0.9704 0.0
C3040 C 0.50898 0.76756 0.94689 0.0
C3041 C 0.50815 0.80779 0.96641 0.0
C3042 C 0.52741 0.7736 0.98676 0.0
C3043 C 0.51887 0.76442 0.00761 0.0
C3044 C 0.53407 0.75527 0.02466 0.0
C3045 C 0.55844 0.75512 0.01997 0.0
C3046 C 0.56713 0.76368 0.99826 0.0
C3047 C 0.55136 0.77348 0.98186 0.0
H3048 H 0.44686 0.23278 0.52381 0.0
H3049 H 0.43702 0.28059 0.4652 0.0
H3050 H 0.47969 0.27768 0.45604 0.0
H3051 H 0.49917 0.25559 0.54374 0.0
H3052 H 0.51134 0.22758 0.55229 0.0
H3053 H 0.48005 0.23165 0.55189 0.0
H3054 H 0.47574 0.19594 0.5238 0.0
H3055 H 0.50714 0.19184 0.52402 0.0
H3056 H 0.49185 0.19547 0.49649 0.0
H3057 H 0.525 0.27236 0.45677 0.0
H3058 H 0.56679 0.266 0.46771 0.0
H3059 H 0.54458 0.221 0.52511 0.0
C3060 C 0.45352 0.24251 0.50884 0.0
C3061 C 0.43868 0.25705 0.4953 0.0
C3062 C 0.44812 0.2693 0.47578 0.0
C3063 C 0.47229 0.2677 0.47045 0.0
C3064 C 0.48652 0.25344 0.48458 0.0
C3065 C 0.47725 0.24093 0.50325 0.0
C3066 C 0.49595 0.22799 0.51688 0.0
C3067 C 0.49667 0.23621 0.54271 0.0
C3068 C 0.49246 0.20122 0.51518 0.0
C3069 C 0.51749 0.23574 0.50355 0.0
C3070 C 0.51191 0.25018 0.48478 0.0
C3071 C 0.52945 0.26076 0.47119 0.0
C3072 C 0.55314 0.25699 0.47744 0.0
C3073 C 0.5589 0.24298 0.49723 0.0
C3074 C 0.54077 0.23172 0.50983 0.0
H3075 H 0.9504 0.28763 0.49059 0.0
H3076 H 0.934 0.22921 0.53648 0.0
H3077 H 0.97549 0.22844 0.55017 0.0
H3078 H 0.00049 0.26681 0.4698 0.0
H3079 H 0.01603 0.29437 0.46788 0.0
H3080 H 0.98458 0.29408 0.46673 0.0
H3081 H 0.98269 0.32288 0.50205 0.0
H3082 H 0.01435 0.32338 0.50324 0.0
H3083 H 0.99766 0.31563 0.52905 0.0
H3084 H 0.02051 0.22896 0.55181 0.0
H3085 H 0.06281 0.23067 0.54117 0.0
H3086 H 0.04849 0.28918 0.49461 0.0
C3087 C 0.95538 0.27534 0.50428 0.0
C3088 C 0.93916 0.25866 0.51272 0.0
C3089 C 0.94618 0.24243 0.5302 0.0
C3090 C 0.96971 0.24188 0.53799 0.0
C3091 C 0.98567 0.25799 0.52843 0.0
C3092 C 0.97854 0.27473 0.51223 0.0
C3093 C 0.99912 0.28806 0.50207 0.0
C3094 C 0.0001 0.28565 0.47505 0.0
C3095 C 0.99841 0.31402 0.50956 0.0
C3096 C 0.01918 0.27525 0.51381 0.0
C3097 C 0.01127 0.25833 0.52942 0.0
C3098 C 0.02686 0.24259 0.54014 0.0
C3099 C 0.05087 0.24371 0.5341 0.0
C3100 C 0.05882 0.26017 0.51721 0.0
C3101 C 0.04287 0.27664 0.5078 0.0
H3102 H 0.48483 0.03739 0.71208 0.0
H3103 H 0.4557 0.04985 0.78107 0.0
H3104 H 0.44233 0.00842 0.78293 0.0
H3105 H 0.44159 0.98726 0.69308 0.0
H3106 H 0.46565 0.9724 0.67879 0.0
H3107 H 0.46451 0.00412 0.67913 0.0
H3108 H 0.50615 0.00519 0.69749 0.0
H3109 H 0.50734 0.97377 0.69749 0.0
H3110 H 0.51153 0.98964 0.72463 0.0
H3111 H 0.44284 0.96441 0.78208 0.0
H3112 H 0.45793 0.92365 0.77906 0.0
H3113 H 0.48762 0.93979 0.71094 0.0
C3114 C 0.47428 0.03162 0.72685 0.0
C3115 C 0.47065 0.04666 0.74613 0.0
C3116 C 0.45789 0.03862 0.76584 0.0
C3117 C 0.45032 0.0151 0.767 0.0
C3118 C 0.45553 1.00008 0.74822 0.0
C3119 C 0.46688 0.00825 0.72825 0.0
C3120 C 0.47482 0.98824 0.71263 0.0
C3121 C 0.46079 0.98799 0.68954 0.0
C3122 C 0.50151 0.98928 0.70784 0.0
C3123 C 0.46832 0.96751 0.72794 0.0
C3124 C 0.45631 0.9745 0.74794 0.0
C3125 C 0.4515 0.95866 0.76614 0.0
C3126 C 0.46007 0.93551 0.7643 0.0
C3127 C 0.4737 0.92875 0.74466 0.0
C3128 C 0.47684 0.94459 0.7259 0.0
H3129 H 0.51103 0.53674 0.78622 0.0
H3130 H 0.53522 0.5484 0.71522 0.0
H3131 H 0.54937 0.50725 0.71327 0.0
H3132 H 0.55628 0.48688 0.80283 0.0
H3133 H 0.53333 0.47214 0.81897 0.0
H3134 H 0.53445 0.50386 0.81831 0.0
H3135 H 0.49157 0.50489 0.80307 0.0
H3136 H 0.49037 0.47352 0.80352 0.0
H3137 H 0.48417 0.48907 0.77657 0.0
H3138 H 0.54892 0.46361 0.71449 0.0
H3139 H 0.53246 0.4235 0.71795 0.0
H3140 H 0.50762 0.43966 0.78789 0.0
C3141 C 0.5207 0.53087 0.77089 0.0
C3142 C 0.52262 0.54555 0.7511 0.0
C3143 C 0.5343 0.53744 0.73078 0.0
C3144 C 0.54234 0.51408 0.72959 0.0
C3145 C 0.5387 0.49932 0.74895 0.0
C3146 C 0.5285 0.50764 0.76948 0.0
C3147 C 0.52169 0.48775 0.78578 0.0
C3148 C 0.53738 0.48765 0.80777 0.0
C3149 C 0.49542 0.48888 0.79256 0.0
C3150 C 0.52708 0.46689 0.77021 0.0
C3151 C 0.53798 0.47374 0.74951 0.0
C3152 C 0.54121 0.45793 0.73094 0.0
C3153 C 0.53191 0.43513 0.73304 0.0
C3154 C 0.51917 0.42866 0.75335 0.0
C3155 C 0.51791 0.44423 0.77252 0.0
H3156 H 0.05991 0.21272 0.99061 0.0
H3157 H 0.07015 0.26994 0.03975 0.0
H3158 H 0.02781 0.2686 0.04995 0.0
H3159 H 0.01272 0.2338 0.96582 0.0
H3160 H 0.9975 0.20644 0.96086 0.0
H3161 H 0.02886 0.20661 0.96329 0.0
H3162 H 0.02688 0.17627 0.99726 0.0
H3163 H 0.99529 0.17574 0.99476 0.0
H3164 H 0.00887 0.18224 0.02265 0.0
H3165 H 0.98324 0.2673 0.04723 0.0
H3166 H 0.94244 0.26634 0.03172 0.0
H3167 H 0.96222 0.21091 0.9835 0.0
C3168 C 0.05342 0.22424 0.00434 0.0
C3169 C 0.06818 0.24133 0.01451 0.0
C3170 C 0.05914 0.25644 0.03207 0.0
C3171 C 0.03509 0.2558 0.0379 0.0
C3172 C 0.02058 0.23969 0.02628 0.0
C3173 C 0.02963 0.22387 0.01013 0.0
C3174 C 0.01041 0.21106 0.99702 0.0
C3175 C 0.01251 0.21473 0.97019 0.0
C3176 C 0.01036 0.18477 0.00331 0.0
C3177 C 0.98909 0.22331 0.00697 0.0
C3178 C 0.99506 0.23924 0.02438 0.0
C3179 C 0.97832 0.25441 0.03411 0.0
C3180 C 0.9552 0.25376 0.02528 0.0
C3181 C 0.94937 0.23842 0.00661 0.0
C3182 C 0.9663 0.22254 0.99804 0.0
H3183 H 0.49203 0.0549 0.21484 0.0
H3184 H 0.53333 0.07258 0.27617 0.0
H3185 H 0.54961 0.032 0.27675 0.0
H3186 H 0.47332 0.0032 0.23305 0.0
H3187 H 0.474 0.98827 0.20509 0.0
H3188 H 0.47102 0.01961 0.20599 0.0
H3189 H 0.50784 0.02408 0.17947 0.0
H3190 H 0.51094 0.99252 0.17849 0.0
H3191 H 0.53515 0.01055 0.18814 0.0
H3192 H 0.55347 0.98731 0.27587 0.0
H3193 H 0.54412 0.94473 0.27387 0.0
H3194 H 0.50141 0.95725 0.21219 0.0
C3195 C 0.5053 0.05045 0.22776 0.0
C3196 C 0.51168 0.06671 0.2453 0.0
C3197 C 0.52864 0.06038 0.26232 0.0
C3198 C 0.53791 0.03738 0.26274 0.0
C3199 C 0.53039 0.02128 0.2457 0.0
C3200 C 0.51476 0.02782 0.22822 0.0
C3201 C 0.50669 0.00693 0.21392 0.0
C3202 C 0.47969 0.00436 0.21459 0.0
C3203 C 0.5157 0.00862 0.1885 0.0
C3204 C 0.51879 0.98728 0.22707 0.0
C3205 C 0.5329 0.99575 0.245 0.0
C3206 C 0.5431 0.98053 0.26143 0.0
C3207 C 0.53785 0.95632 0.26011 0.0
C3208 C 0.52229 0.9478 0.24268 0.0
C3209 C 0.51374 0.96334 0.22537 0.0
H3210 H 0.49576 0.45879 0.22365 0.0
H3211 H 0.45818 0.44336 0.28806 0.0
H3212 H 0.44784 0.48564 0.29189 0.0
H3213 H 0.52328 0.50647 0.24309 0.0
H3214 H 0.52252 0.52285 0.21595 0.0
H3215 H 0.52136 0.49136 0.21527 0.0
H3216 H 0.48241 0.49307 0.19165 0.0
H3217 H 0.48349 0.52477 0.1922 0.0
H3218 H 0.45788 0.50959 0.20304 0.0
H3219 H 0.44882 0.53069 0.29245 0.0
H3220 H 0.46199 0.57228 0.29038 0.0
H3221 H 0.49944 0.55701 0.22594 0.0
C3222 C 0.48465 0.46415 0.23816 0.0
C3223 C 0.47772 0.44787 0.25553 0.0
C3224 C 0.46341 0.45554 0.27438 0.0
C3225 C 0.45749 0.47953 0.27666 0.0
C3226 C 0.46568 0.49539 0.25971 0.0
C3227 C 0.47872 0.48781 0.24063 0.0
C3228 C 0.48841 0.50815 0.22656 0.0
C3229 C 0.51547 0.50714 0.22517 0.0
C3230 C 0.47738 0.50894 0.2019 0.0
C3231 C 0.48009 0.5285 0.24143 0.0
C3232 C 0.46643 0.52103 0.26014 0.0
C3233 C 0.45897 0.53674 0.27754 0.0
C3234 C 0.46641 0.56035 0.2762 0.0
C3235 C 0.4815 0.56775 0.25786 0.0
C3236 C 0.48758 0.55181 0.23991 0.0
H3237 H 0.05387 0.72175 0.0061 0.0
H3238 H 0.07047 0.78408 0.96568 0.0
H3239 H 0.02862 0.78749 0.95388 0.0
H3240 H 0.00417 0.69934 0.96717 0.0
H3241 H 0.98824 0.6896 0.99278 0.0
H3242 H 0.01991 0.68895 0.99266 0.0
H3243 H 0.02039 0.71409 0.0307 0.0
H3244 H 0.98891 0.71508 0.03082 0.0
H3245 H 0.00549 0.7421 0.03097 0.0
H3246 H 0.98362 0.7886 0.95408 0.0
H3247 H 0.94152 0.78662 0.96548 0.0
H3248 H 0.95568 0.72328 0.00542 0.0
C3249 C 0.04884 0.73553 0.99394 0.0
C3250 C 0.06527 0.75255 0.98664 0.0
C3251 C 0.05813 0.77063 0.9711 0.0
C3252 C 0.03439 0.77271 0.9644 0.0
C3253 C 0.01827 0.75626 0.97303 0.0
C3254 C 0.02543 0.73771 0.9871 0.0
C3255 C 0.00478 0.72412 0.99675 0.0
C3256 C 0.00425 0.69901 0.98673 0.0
C3257 C 0.00492 0.72387 0.02389 0.0
C3258 C 0.9848 0.73869 0.98719 0.0
C3259 C 0.99269 0.7569 0.97312 0.0
C3260 C 0.97725 0.77404 0.96456 0.0
C3261 C 0.95337 0.7728 0.97108 0.0
C3262 C 0.94542 0.75479 0.9863 0.0
C3263 C 0.96125 0.73719 0.99366 0.0
loop_
_geom_bond_atom_site_label_1
_geom_bond_atom_site_label_2
_geom_bond_distance
_geom_bond_site_symmetry_2
_ccdc_geom_bond_type
O0 Cd1 2.223 . S
O0 C8 1.315 . S
Cd1 O0 2.223 . S
Cd1 O4 2.297 . S
Cd1 O5 2.439 . S
Cd1 O11 2.240 . S
Cd2 O3 2.240 . S
Cd2 O10 2.223 . S
Cd2 O12 2.297 . S
Cd2 O13 2.439 . S
O3 Cd2 2.240 . S
O3 C8 1.279 . S
O4 Cd1 2.297 . S
O4 C6 1.247 . S
O5 Cd1 2.439 . S
O5 C6 1.208 . S
C6 O4 1.247 . S
C6 O5 1.208 . S
C7 O12 1.247 . S
C7 O13 1.208 . S
C8 O0 1.315 . S
C8 O3 1.279 . S
C9 O10 1.315 . S
C9 O11 1.279 . S
O10 Cd2 2.223 . S
O10 C9 1.315 . S
O11 Cd1 2.240 . S
O11 C9 1.279 . S
O12 Cd2 2.297 . S
O12 C7 1.247 . S
O13 Cd2 2.439 . S
O13 C7 1.208 . S
O14 Cd15 2.223 . S
O14 C22 1.315 . S
Cd15 O14 2.223 . S
Cd15 O18 2.297 . S
Cd15 O19 2.439 . S
Cd15 O25 2.240 . S
Cd16 O17 2.240 . S
Cd16 O24 2.223 . S
Cd16 O26 2.297 . S
Cd16 O27 2.439 . S
O17 Cd16 2.240 . S
O17 C22 1.279 . S
O18 Cd15 2.297 . S
O18 C20 1.247 . S
O19 Cd15 2.439 . S
O19 C20 1.208 . S
C20 O18 1.247 . S
C20 O19 1.208 . S
C21 O26 1.247 . S
C21 O27 1.208 . S
C22 O14 1.315 . S
C22 O17 1.279 . S
C23 O24 1.315 . S
C23 O25 1.279 . S
O24 Cd16 2.223 . S
O24 C23 1.315 . S
O25 Cd15 2.240 . S
O25 C23 1.279 . S
O26 Cd16 2.297 . S
O26 C21 1.247 . S
O27 Cd16 2.439 . S
O27 C21 1.208 . S
O28 Cd29 2.223 . S
O28 C36 1.315 . S
Cd29 O28 2.223 . S
Cd29 O32 2.297 . S
Cd29 O33 2.439 . S
Cd29 O39 2.240 . S
Cd30 O31 2.240 . S
Cd30 O38 2.223 . S
Cd30 O40 2.297 . S
Cd30 O41 2.439 . S
O31 Cd30 2.240 . S
O31 C36 1.279 . S
O32 Cd29 2.297 . S
O32 C34 1.247 . S
O33 Cd29 2.439 . S
O33 C34 1.208 . S
C34 O32 1.247 . S
C34 O33 1.208 . S
C35 O40 1.247 . S
C35 O41 1.208 . S
C36 O28 1.315 . S
C36 O31 1.279 . S
C37 O38 1.315 . S
C37 O39 1.279 . S
O38 Cd30 2.223 . S
O38 C37 1.315 . S
O39 Cd29 2.240 . S
O39 C37 1.279 . S
O40 Cd30 2.297 . S
O40 C35 1.247 . S
O41 Cd30 2.439 . S
O41 C35 1.208 . S
O42 Cd43 2.223 . S
O42 C50 1.315 . S
Cd43 O42 2.223 . S
Cd43 O46 2.297 . S
Cd43 O47 2.439 . S
Cd43 O53 2.240 . S
Cd44 O45 2.240 . S
Cd44 O52 2.223 . S
Cd44 O54 2.297 . S
Cd44 O55 2.439 . S
O45 Cd44 2.240 . S
O45 C50 1.279 . S
O46 Cd43 2.297 . S
O46 C48 1.247 . S
O47 Cd43 2.439 . S
O47 C48 1.208 . S
C48 O46 1.247 . S
C48 O47 1.208 . S
C49 O54 1.247 . S
C49 O55 1.208 . S
C50 O42 1.315 . S
C50 O45 1.279 . S
C51 O52 1.315 . S
C51 O53 1.279 . S
O52 Cd44 2.223 . S
O52 C51 1.315 . S
O53 Cd43 2.240 . S
O53 C51 1.279 . S
O54 Cd44 2.297 . S
O54 C49 1.247 . S
O55 Cd44 2.439 . S
O55 C49 1.208 . S
O56 Cd57 2.223 . S
O56 C64 1.315 . S
Cd57 O56 2.223 . S
Cd57 O60 2.297 . S
Cd57 O61 2.439 . S
Cd57 O67 2.240 . S
Cd58 O59 2.240 . S
Cd58 O66 2.223 . S
Cd58 O68 2.297 . S
Cd58 O69 2.439 . S
O59 Cd58 2.240 . S
O59 C64 1.279 . S
O60 Cd57 2.297 . S
O60 C62 1.247 . S
O61 Cd57 2.439 . S
O61 C62 1.208 . S
C62 O60 1.247 . S
C62 O61 1.208 . S
C63 O68 1.247 . S
C63 O69 1.208 . S
C64 O56 1.315 . S
C64 O59 1.279 . S
C65 O66 1.315 . S
C65 O67 1.279 . S
O66 Cd58 2.223 . S
O66 C65 1.315 . S
O67 Cd57 2.240 . S
O67 C65 1.279 . S
O68 Cd58 2.297 . S
O68 C63 1.247 . S
O69 Cd58 2.439 . S
O69 C63 1.208 . S
O70 Cd71 2.223 . S
O70 C78 1.315 . S
Cd71 O70 2.223 . S
Cd71 O74 2.297 . S
Cd71 O75 2.439 . S
Cd71 O81 2.240 . S
Cd72 O73 2.240 . S
Cd72 O80 2.223 . S
Cd72 O82 2.297 . S
Cd72 O83 2.439 . S
O73 Cd72 2.240 . S
O73 C78 1.279 . S
O74 Cd71 2.297 . S
O74 C76 1.247 . S
O75 Cd71 2.439 . S
O75 C76 1.208 . S
C76 O74 1.247 . S
C76 O75 1.208 . S
C77 O82 1.247 . S
C77 O83 1.208 . S
C78 O70 1.315 . S
C78 O73 1.279 . S
C79 O80 1.315 . S
C79 O81 1.279 . S
O80 Cd72 2.223 . S
O80 C79 1.315 . S
O81 Cd71 2.240 . S
O81 C79 1.279 . S
O82 Cd72 2.297 . S
O82 C77 1.247 . S
O83 Cd72 2.439 . S
O83 C77 1.208 . S
O84 Cd85 2.223 . S
O84 C92 1.315 . S
Cd85 O84 2.223 . S
Cd85 O88 2.297 . S
Cd85 O89 2.439 . S
Cd85 O95 2.240 . S
Cd86 O87 2.240 . S
Cd86 O94 2.223 . S
Cd86 O96 2.297 . S
Cd86 O97 2.439 . S
O87 Cd86 2.240 . S
O87 C92 1.279 . S
O88 Cd85 2.297 . S
O88 C90 1.247 . S
O89 Cd85 2.439 . S
O89 C90 1.208 . S
C90 O88 1.247 . S
C90 O89 1.208 . S
C91 O96 1.247 . S
C91 O97 1.208 . S
C92 O84 1.315 . S
C92 O87 1.279 . S
C93 O94 1.315 . S
C93 O95 1.279 . S
O94 Cd86 2.223 . S
O94 C93 1.315 . S
O95 Cd85 2.240 . S
O95 C93 1.279 . S
O96 Cd86 2.297 . S
O96 C91 1.247 . S
O97 Cd86 2.439 . S
O97 C91 1.208 . S
O98 Cd99 2.223 . S
O98 C106 1.315 . S
Cd99 O98 2.223 . S
Cd99 O102 2.297 . S
Cd99 O103 2.439 . S
Cd99 O109 2.240 . S
Cd100 O101 2.240 . S
Cd100 O108 2.223 . S
Cd100 O110 2.297 . S
Cd100 O111 2.439 . S
O101 Cd100 2.240 . S
O101 C106 1.279 . S
O102 Cd99 2.297 . S
O102 C104 1.247 . S
O103 Cd99 2.439 . S
O103 C104 1.208 . S
C104 O102 1.247 . S
C104 O103 1.208 . S
C105 O110 1.247 . S
C105 O111 1.208 . S
C106 O98 1.315 . S
C106 O101 1.279 . S
C107 O108 1.315 . S
C107 O109 1.279 . S
O108 Cd100 2.223 . S
O108 C107 1.315 . S
O109 Cd99 2.240 . S
O109 C107 1.279 . S
O110 Cd100 2.297 . S
O110 C105 1.247 . S
O111 Cd100 2.439 . S
O111 C105 1.208 . S
O112 Cd113 2.223 . S
O112 C120 1.315 . S
Cd113 O112 2.223 . S
Cd113 O116 2.297 . S
Cd113 O117 2.439 . S
Cd113 O123 2.240 . S
Cd114 O115 2.240 . S
Cd114 O122 2.223 . S
Cd114 O124 2.297 . S
Cd114 O125 2.439 . S
O115 Cd114 2.240 . S
O115 C120 1.279 . S
O116 Cd113 2.297 . S
O116 C118 1.247 . S
O117 Cd113 2.439 . S
O117 C118 1.208 . S
C118 O116 1.247 . S
C118 O117 1.208 . S
C119 O124 1.247 . S
C119 O125 1.208 . S
C120 O112 1.315 . S
C120 O115 1.279 . S
C121 O122 1.315 . S
C121 O123 1.279 . S
O122 Cd114 2.223 . S
O122 C121 1.315 . S
O123 Cd113 2.240 . S
O123 C121 1.279 . S
O124 Cd114 2.297 . S
O124 C119 1.247 . S
O125 Cd114 2.439 . S
O125 C119 1.208 . S
O126 Cd127 2.223 . S
O126 C134 1.315 . S
Cd127 O126 2.223 . S
Cd127 O130 2.297 . S
Cd127 O131 2.439 . S
Cd127 O137 2.240 . S
Cd128 O129 2.240 . S
Cd128 O136 2.223 . S
Cd128 O138 2.297 . S
Cd128 O139 2.439 . S
O129 Cd128 2.240 . S
O129 C134 1.279 . S
O130 Cd127 2.297 . S
O130 C132 1.247 . S
O131 Cd127 2.439 . S
O131 C132 1.208 . S
C132 O130 1.247 . S
C132 O131 1.208 . S
C133 O138 1.247 . S
C133 O139 1.208 . S
C134 O126 1.315 . S
C134 O129 1.279 . S
C135 O136 1.315 . S
C135 O137 1.279 . S
O136 Cd128 2.223 . S
O136 C135 1.315 . S
O137 Cd127 2.240 . S
O137 C135 1.279 . S
O138 Cd128 2.297 . S
O138 C133 1.247 . S
O139 Cd128 2.439 . S
O139 C133 1.208 . S
O140 Cd141 2.223 . S
O140 C148 1.315 . S
Cd141 O140 2.223 . S
Cd141 O144 2.297 . S
Cd141 O145 2.439 . S
Cd141 O151 2.240 . S
Cd142 O143 2.240 . S
Cd142 O150 2.223 . S
Cd142 O152 2.297 . S
Cd142 O153 2.439 . S
O143 Cd142 2.240 . S
O143 C148 1.279 . S
O144 Cd141 2.297 . S
O144 C146 1.247 . S
O145 Cd141 2.439 . S
O145 C146 1.208 . S
C146 O144 1.247 . S
C146 O145 1.208 . S
C147 O152 1.247 . S
C147 O153 1.208 . S
C148 O140 1.315 . S
C148 O143 1.279 . S
C149 O150 1.315 . S
C149 O151 1.279 . S
O150 Cd142 2.223 . S
O150 C149 1.315 . S
O151 Cd141 2.240 . S
O151 C149 1.279 . S
O152 Cd142 2.297 . S
O152 C147 1.247 . S
O153 Cd142 2.439 . S
O153 C147 1.208 . S
O154 Cd155 2.223 . S
O154 C162 1.315 . S
Cd155 O154 2.223 . S
Cd155 O158 2.297 . S
Cd155 O159 2.439 . S
Cd155 O165 2.240 . S
Cd156 O157 2.240 . S
Cd156 O164 2.223 . S
Cd156 O166 2.297 . S
Cd156 O167 2.439 . S
O157 Cd156 2.240 . S
O157 C162 1.279 . S
O158 Cd155 2.297 . S
O158 C160 1.247 . S
O159 Cd155 2.439 . S
O159 C160 1.208 . S
C160 O158 1.247 . S
C160 O159 1.208 . S
C161 O166 1.247 . S
C161 O167 1.208 . S
C162 O154 1.315 . S
C162 O157 1.279 . S
C163 O164 1.315 . S
C163 O165 1.279 . S
O164 Cd156 2.223 . S
O164 C163 1.315 . S
O165 Cd155 2.240 . S
O165 C163 1.279 . S
O166 Cd156 2.297 . S
O166 C161 1.247 . S
O167 Cd156 2.439 . S
O167 C161 1.208 . S
O168 Cd169 2.223 . S
O168 C176 1.315 . S
Cd169 O168 2.223 . S
Cd169 O172 2.297 . S
Cd169 O173 2.439 . S
Cd169 O179 2.240 . S
Cd170 O171 2.240 . S
Cd170 O178 2.223 . S
Cd170 O180 2.297 . S
Cd170 O181 2.439 . S
O171 Cd170 2.240 . S
O171 C176 1.279 . S
O172 Cd169 2.297 . S
O172 C174 1.247 . S
O173 Cd169 2.439 . S
O173 C174 1.208 . S
C174 O172 1.247 . S
C174 O173 1.208 . S
C175 O180 1.247 . S
C175 O181 1.208 . S
C176 O168 1.315 . S
C176 O171 1.279 . S
C177 O178 1.315 . S
C177 O179 1.279 . S
O178 Cd170 2.223 . S
O178 C177 1.315 . S
O179 Cd169 2.240 . S
O179 C177 1.279 . S
O180 Cd170 2.297 . S
O180 C175 1.247 . S
O181 Cd170 2.439 . S
O181 C175 1.208 . S
O182 Cd183 2.223 . S
O182 C190 1.315 . S
Cd183 O182 2.223 . S
Cd183 O186 2.297 . S
Cd183 O187 2.439 . S
Cd183 O193 2.240 . S
Cd184 O185 2.240 . S
Cd184 O192 2.223 . S
Cd184 O194 2.297 . S
Cd184 O195 2.439 . S
O185 Cd184 2.240 . S
O185 C190 1.279 . S
O186 Cd183 2.297 . S
O186 C188 1.247 . S
O187 Cd183 2.439 . S
O187 C188 1.208 . S
C188 O186 1.247 . S
C188 O187 1.208 . S
C189 O194 1.247 . S
C189 O195 1.208 . S
C190 O182 1.315 . S
C190 O185 1.279 . S
C191 O192 1.315 . S
C191 O193 1.279 . S
O192 Cd184 2.223 . S
O192 C191 1.315 . S
O193 Cd183 2.240 . S
O193 C191 1.279 . S
O194 Cd184 2.297 . S
O194 C189 1.247 . S
O195 Cd184 2.439 . S
O195 C189 1.208 . S
O196 Cd197 2.223 . S
O196 C204 1.315 . S
Cd197 O196 2.223 . S
Cd197 O200 2.297 . S
Cd197 O201 2.439 . S
Cd197 O207 2.240 . S
Cd198 O199 2.240 . S
Cd198 O206 2.223 . S
Cd198 O208 2.297 . S
Cd198 O209 2.439 . S
O199 Cd198 2.240 . S
O199 C204 1.279 . S
O200 Cd197 2.297 . S
O200 C202 1.247 . S
O201 Cd197 2.439 . S
O201 C202 1.208 . S
C202 O200 1.247 . S
C202 O201 1.208 . S
C203 O208 1.247 . S
C203 O209 1.208 . S
C204 O196 1.315 . S
C204 O199 1.279 . S
C205 O206 1.315 . S
C205 O207 1.279 . S
O206 Cd198 2.223 . S
O206 C205 1.315 . S
O207 Cd197 2.240 . S
O207 C205 1.279 . S
O208 Cd198 2.297 . S
O208 C203 1.247 . S
O209 Cd198 2.439 . S
O209 C203 1.208 . S
O210 Cd211 2.223 . S
O210 C218 1.315 . S
Cd211 O210 2.223 . S
Cd211 O214 2.297 . S
Cd211 O215 2.439 . S
Cd211 O221 2.240 . S
Cd212 O213 2.240 . S
Cd212 O220 2.223 . S
Cd212 O222 2.297 . S
Cd212 O223 2.439 . S
O213 Cd212 2.240 . S
O213 C218 1.279 . S
O214 Cd211 2.297 . S
O214 C216 1.247 . S
O215 Cd211 2.439 . S
O215 C216 1.208 . S
C216 O214 1.247 . S
C216 O215 1.208 . S
C217 O222 1.247 . S
C217 O223 1.208 . S
C218 O210 1.315 . S
C218 O213 1.279 . S
C219 O220 1.315 . S
C219 O221 1.279 . S
O220 Cd212 2.223 . S
O220 C219 1.315 . S
O221 Cd211 2.240 . S
O221 C219 1.279 . S
O222 Cd212 2.297 . S
O222 C217 1.247 . S
O223 Cd212 2.439 . S
O223 C217 1.208 . S
O224 Cd225 2.223 . S
O224 C232 1.315 . S
Cd225 O224 2.223 . S
Cd225 O228 2.297 . S
Cd225 O229 2.439 . S
Cd225 O235 2.240 . S
Cd226 O227 2.240 . S
Cd226 O234 2.223 . S
Cd226 O236 2.297 . S
Cd226 O237 2.439 . S
O227 Cd226 2.240 . S
O227 C232 1.279 . S
O228 Cd225 2.297 . S
O228 C230 1.247 . S
O229 Cd225 2.439 . S
O229 C230 1.208 . S
C230 O228 1.247 . S
C230 O229 1.208 . S
C231 O236 1.247 . S
C231 O237 1.208 . S
C232 O224 1.315 . S
C232 O227 1.279 . S
C233 O234 1.315 . S
C233 O235 1.279 . S
O234 Cd226 2.223 . S
O234 C233 1.315 . S
O235 Cd225 2.240 . S
O235 C233 1.279 . S
O236 Cd226 2.297 . S
O236 C231 1.247 . S
O237 Cd226 2.439 . S
O237 C231 1.208 . S
O238 Cd239 2.223 . S
O238 C246 1.315 . S
Cd239 O238 2.223 . S
Cd239 O242 2.297 . S
Cd239 O243 2.439 . S
Cd239 O249 2.240 . S
Cd240 O241 2.240 . S
Cd240 O248 2.223 . S
Cd240 O250 2.297 . S
Cd240 O251 2.439 . S
O241 Cd240 2.240 . S
O241 C246 1.279 . S
O242 Cd239 2.297 . S
O242 C244 1.247 . S
O243 Cd239 2.439 . S
O243 C244 1.208 . S
C244 O242 1.247 . S
C244 O243 1.208 . S
C245 O250 1.247 . S
C245 O251 1.208 . S
C246 O238 1.315 . S
C246 O241 1.279 . S
C247 O248 1.315 . S
C247 O249 1.279 . S
O248 Cd240 2.223 . S
O248 C247 1.315 . S
O249 Cd239 2.240 . S
O249 C247 1.279 . S
O250 Cd240 2.297 . S
O250 C245 1.247 . S
O251 Cd240 2.439 . S
O251 C245 1.208 . S
O252 Cd253 2.223 . S
O252 C260 1.315 . S
Cd253 O252 2.223 . S
Cd253 O256 2.297 . S
Cd253 O257 2.439 . S
Cd253 O263 2.240 . S
Cd254 O255 2.240 . S
Cd254 O262 2.223 . S
Cd254 O264 2.297 . S
Cd254 O265 2.439 . S
O255 Cd254 2.240 . S
O255 C260 1.279 . S
O256 Cd253 2.297 . S
O256 C258 1.247 . S
O257 Cd253 2.439 . S
O257 C258 1.208 . S
C258 O256 1.247 . S
C258 O257 1.208 . S
C259 O264 1.247 . S
C259 O265 1.208 . S
C260 O252 1.315 . S
C260 O255 1.279 . S
C261 O262 1.315 . S
C261 O263 1.279 . S
O262 Cd254 2.223 . S
O262 C261 1.315 . S
O263 Cd253 2.240 . S
O263 C261 1.279 . S
O264 Cd254 2.297 . S
O264 C259 1.247 . S
O265 Cd254 2.439 . S
O265 C259 1.208 . S
O266 Cd267 2.223 . S
O266 C274 1.315 . S
Cd267 O266 2.223 . S
Cd267 O270 2.297 . S
Cd267 O271 2.439 . S
Cd267 O277 2.240 . S
Cd268 O269 2.240 . S
Cd268 O276 2.223 . S
Cd268 O278 2.297 . S
Cd268 O279 2.439 . S
O269 Cd268 2.240 . S
O269 C274 1.279 . S
O270 Cd267 2.297 . S
O270 C272 1.247 . S
O271 Cd267 2.439 . S
O271 C272 1.208 . S
C272 O270 1.247 . S
C272 O271 1.208 . S
C273 O278 1.247 . S
C273 O279 1.208 . S
C274 O266 1.315 . S
C274 O269 1.279 . S
C275 O276 1.315 . S
C275 O277 1.279 . S
O276 Cd268 2.223 . S
O276 C275 1.315 . S
O277 Cd267 2.240 . S
O277 C275 1.279 . S
O278 Cd268 2.297 . S
O278 C273 1.247 . S
O279 Cd268 2.439 . S
O279 C273 1.208 . S
O280 Cd281 2.223 . S
O280 C288 1.315 . S
Cd281 O280 2.223 . S
Cd281 O284 2.297 . S
Cd281 O285 2.439 . S
Cd281 O291 2.240 . S
Cd282 O283 2.240 . S
Cd282 O290 2.223 . S
Cd282 O292 2.297 . S
Cd282 O293 2.439 . S
O283 Cd282 2.240 . S
O283 C288 1.279 . S
O284 Cd281 2.297 . S
O284 C286 1.247 . S
O285 Cd281 2.439 . S
O285 C286 1.208 . S
C286 O284 1.247 . S
C286 O285 1.208 . S
C287 O292 1.247 . S
C287 O293 1.208 . S
C288 O280 1.315 . S
C288 O283 1.279 . S
C289 O290 1.315 . S
C289 O291 1.279 . S
O290 Cd282 2.223 . S
O290 C289 1.315 . S
O291 Cd281 2.240 . S
O291 C289 1.279 . S
O292 Cd282 2.297 . S
O292 C287 1.247 . S
O293 Cd282 2.439 . S
O293 C287 1.208 . S
O294 Cd295 2.223 . S
O294 C302 1.315 . S
Cd295 O294 2.223 . S
Cd295 O298 2.297 . S
Cd295 O299 2.439 . S
Cd295 O305 2.240 . S
Cd296 O297 2.240 . S
Cd296 O304 2.223 . S
Cd296 O306 2.297 . S
Cd296 O307 2.439 . S
O297 Cd296 2.240 . S
O297 C302 1.279 . S
O298 Cd295 2.297 . S
O298 C300 1.247 . S
O299 Cd295 2.439 . S
O299 C300 1.208 . S
C300 O298 1.247 . S
C300 O299 1.208 . S
C301 O306 1.247 . S
C301 O307 1.208 . S
C302 O294 1.315 . S
C302 O297 1.279 . S
C303 O304 1.315 . S
C303 O305 1.279 . S
O304 Cd296 2.223 . S
O304 C303 1.315 . S
O305 Cd295 2.240 . S
O305 C303 1.279 . S
O306 Cd296 2.297 . S
O306 C301 1.247 . S
O307 Cd296 2.439 . S
O307 C301 1.208 . S
O308 Cd309 2.223 . S
O308 C316 1.315 . S
Cd309 O308 2.223 . S
Cd309 O312 2.297 . S
Cd309 O313 2.439 . S
Cd309 O319 2.240 . S
Cd310 O311 2.240 . S
Cd310 O318 2.223 . S
Cd310 O320 2.297 . S
Cd310 O321 2.439 . S
O311 Cd310 2.240 . S
O311 C316 1.279 . S
O312 Cd309 2.297 . S
O312 C314 1.247 . S
O313 Cd309 2.439 . S
O313 C314 1.208 . S
C314 O312 1.247 . S
C314 O313 1.208 . S
C315 O320 1.247 . S
C315 O321 1.208 . S
C316 O308 1.315 . S
C316 O311 1.279 . S
C317 O318 1.315 . S
C317 O319 1.279 . S
O318 Cd310 2.223 . S
O318 C317 1.315 . S
O319 Cd309 2.240 . S
O319 C317 1.279 . S
O320 Cd310 2.297 . S
O320 C315 1.247 . S
O321 Cd310 2.439 . S
O321 C315 1.208 . S
O322 Cd323 2.223 . S
O322 C330 1.315 . S
Cd323 O322 2.223 . S
Cd323 O326 2.297 . S
Cd323 O327 2.439 . S
Cd323 O333 2.240 . S
Cd324 O325 2.240 . S
Cd324 O332 2.223 . S
Cd324 O334 2.297 . S
Cd324 O335 2.439 . S
O325 Cd324 2.240 . S
O325 C330 1.279 . S
O326 Cd323 2.297 . S
O326 C328 1.247 . S
O327 Cd323 2.439 . S
O327 C328 1.208 . S
C328 O326 1.247 . S
C328 O327 1.208 . S
C329 O334 1.247 . S
C329 O335 1.208 . S
C330 O322 1.315 . S
C330 O325 1.279 . S
C331 O332 1.315 . S
C331 O333 1.279 . S
O332 Cd324 2.223 . S
O332 C331 1.315 . S
O333 Cd323 2.240 . S
O333 C331 1.279 . S
O334 Cd324 2.297 . S
O334 C329 1.247 . S
O335 Cd324 2.439 . S
O335 C329 1.208 . S
O336 Cd337 2.223 . S
O336 C344 1.315 . S
Cd337 O336 2.223 . S
Cd337 O340 2.297 . S
Cd337 O341 2.439 . S
Cd337 O347 2.240 . S
Cd338 O339 2.240 . S
Cd338 O346 2.223 . S
Cd338 O348 2.297 . S
Cd338 O349 2.439 . S
O339 Cd338 2.240 . S
O339 C344 1.279 . S
O340 Cd337 2.297 . S
O340 C342 1.247 . S
O341 Cd337 2.439 . S
O341 C342 1.208 . S
C342 O340 1.247 . S
C342 O341 1.208 . S
C343 O348 1.247 . S
C343 O349 1.208 . S
C344 O336 1.315 . S
C344 O339 1.279 . S
C345 O346 1.315 . S
C345 O347 1.279 . S
O346 Cd338 2.223 . S
O346 C345 1.315 . S
O347 Cd337 2.240 . S
O347 C345 1.279 . S
O348 Cd338 2.297 . S
O348 C343 1.247 . S
O349 Cd338 2.439 . S
O349 C343 1.208 . S
O350 Cd351 2.223 . S
O350 C358 1.315 . S
Cd351 O350 2.223 . S
Cd351 O354 2.297 . S
Cd351 O355 2.439 . S
Cd351 O361 2.240 . S
Cd352 O353 2.240 . S
Cd352 O360 2.223 . S
Cd352 O362 2.297 . S
Cd352 O363 2.439 . S
O353 Cd352 2.240 . S
O353 C358 1.279 . S
O354 Cd351 2.297 . S
O354 C356 1.247 . S
O355 Cd351 2.439 . S
O355 C356 1.208 . S
C356 O354 1.247 . S
C356 O355 1.208 . S
C357 O362 1.247 . S
C357 O363 1.208 . S
C358 O350 1.315 . S
C358 O353 1.279 . S
C359 O360 1.315 . S
C359 O361 1.279 . S
O360 Cd352 2.223 . S
O360 C359 1.315 . S
O361 Cd351 2.240 . S
O361 C359 1.279 . S
O362 Cd352 2.297 . S
O362 C357 1.247 . S
O363 Cd352 2.439 . S
O363 C357 1.208 . S
O364 Cd365 2.223 . S
O364 C372 1.315 . S
Cd365 O364 2.223 . S
Cd365 O368 2.297 . S
Cd365 O369 2.439 . S
Cd365 O375 2.240 . S
Cd366 O367 2.240 . S
Cd366 O374 2.223 . S
Cd366 O376 2.297 . S
Cd366 O377 2.439 . S
O367 Cd366 2.240 . S
O367 C372 1.279 . S
O368 Cd365 2.297 . S
O368 C370 1.247 . S
O369 Cd365 2.439 . S
O369 C370 1.208 . S
C370 O368 1.247 . S
C370 O369 1.208 . S
C371 O376 1.247 . S
C371 O377 1.208 . S
C372 O364 1.315 . S
C372 O367 1.279 . S
C373 O374 1.315 . S
C373 O375 1.279 . S
O374 Cd366 2.223 . S
O374 C373 1.315 . S
O375 Cd365 2.240 . S
O375 C373 1.279 . S
O376 Cd366 2.297 . S
O376 C371 1.247 . S
O377 Cd366 2.439 . S
O377 C371 1.208 . S
O378 Cd379 2.223 . S
O378 C386 1.315 . S
Cd379 O378 2.223 . S
Cd379 O382 2.297 . S
Cd379 O383 2.439 . S
Cd379 O389 2.240 . S
Cd380 O381 2.240 . S
Cd380 O388 2.223 . S
Cd380 O390 2.297 . S
Cd380 O391 2.439 . S
O381 Cd380 2.240 . S
O381 C386 1.279 . S
O382 Cd379 2.297 . S
O382 C384 1.247 . S
O383 Cd379 2.439 . S
O383 C384 1.208 . S
C384 O382 1.247 . S
C384 O383 1.208 . S
C385 O390 1.247 . S
C385 O391 1.208 . S
C386 O378 1.315 . S
C386 O381 1.279 . S
C387 O388 1.315 . S
C387 O389 1.279 . S
O388 Cd380 2.223 . S
O388 C387 1.315 . S
O389 Cd379 2.240 . S
O389 C387 1.279 . S
O390 Cd380 2.297 . S
O390 C385 1.247 . S
O391 Cd380 2.439 . S
O391 C385 1.208 . S
O392 Cd393 2.223 . S
O392 C400 1.315 . S
Cd393 O392 2.223 . S
Cd393 O396 2.297 . S
Cd393 O397 2.439 . S
Cd393 O403 2.240 . S
Cd394 O395 2.240 . S
Cd394 O402 2.223 . S
Cd394 O404 2.297 . S
Cd394 O405 2.439 . S
O395 Cd394 2.240 . S
O395 C400 1.279 . S
O396 Cd393 2.297 . S
O396 C398 1.247 . S
O397 Cd393 2.439 . S
O397 C398 1.208 . S
C398 O396 1.247 . S
C398 O397 1.208 . S
C399 O404 1.247 . S
C399 O405 1.208 . S
C400 O392 1.315 . S
C400 O395 1.279 . S
C401 O402 1.315 . S
C401 O403 1.279 . S
O402 Cd394 2.223 . S
O402 C401 1.315 . S
O403 Cd393 2.240 . S
O403 C401 1.279 . S
O404 Cd394 2.297 . S
O404 C399 1.247 . S
O405 Cd394 2.439 . S
O405 C399 1.208 . S
O406 Cd407 2.223 . S
O406 C414 1.315 . S
Cd407 O406 2.223 . S
Cd407 O410 2.297 . S
Cd407 O411 2.439 . S
Cd407 O417 2.240 . S
Cd408 O409 2.240 . S
Cd408 O416 2.223 . S
Cd408 O418 2.297 . S
Cd408 O419 2.439 . S
O409 Cd408 2.240 . S
O409 C414 1.279 . S
O410 Cd407 2.297 . S
O410 C412 1.247 . S
O411 Cd407 2.439 . S
O411 C412 1.208 . S
C412 O410 1.247 . S
C412 O411 1.208 . S
C413 O418 1.247 . S
C413 O419 1.208 . S
C414 O406 1.315 . S
C414 O409 1.279 . S
C415 O416 1.315 . S
C415 O417 1.279 . S
O416 Cd408 2.223 . S
O416 C415 1.315 . S
O417 Cd407 2.240 . S
O417 C415 1.279 . S
O418 Cd408 2.297 . S
O418 C413 1.247 . S
O419 Cd408 2.439 . S
O419 C413 1.208 . S
O420 Cd421 2.223 . S
O420 C428 1.315 . S
Cd421 O420 2.223 . S
Cd421 O424 2.297 . S
Cd421 O425 2.439 . S
Cd421 O431 2.240 . S
Cd422 O423 2.240 . S
Cd422 O430 2.223 . S
Cd422 O432 2.297 . S
Cd422 O433 2.439 . S
O423 Cd422 2.240 . S
O423 C428 1.279 . S
O424 Cd421 2.297 . S
O424 C426 1.247 . S
O425 Cd421 2.439 . S
O425 C426 1.208 . S
C426 O424 1.247 . S
C426 O425 1.208 . S
C427 O432 1.247 . S
C427 O433 1.208 . S
C428 O420 1.315 . S
C428 O423 1.279 . S
C429 O430 1.315 . S
C429 O431 1.279 . S
O430 Cd422 2.223 . S
O430 C429 1.315 . S
O431 Cd421 2.240 . S
O431 C429 1.279 . S
O432 Cd422 2.297 . S
O432 C427 1.247 . S
O433 Cd422 2.439 . S
O433 C427 1.208 . S
O434 Cd435 2.223 . S
O434 C442 1.315 . S
Cd435 O434 2.223 . S
Cd435 O438 2.297 . S
Cd435 O439 2.439 . S
Cd435 O445 2.240 . S
Cd436 O437 2.240 . S
Cd436 O444 2.223 . S
Cd436 O446 2.297 . S
Cd436 O447 2.439 . S
O437 Cd436 2.240 . S
O437 C442 1.279 . S
O438 Cd435 2.297 . S
O438 C440 1.247 . S
O439 Cd435 2.439 . S
O439 C440 1.208 . S
C440 O438 1.247 . S
C440 O439 1.208 . S
C441 O446 1.247 . S
C441 O447 1.208 . S
C442 O434 1.315 . S
C442 O437 1.279 . S
C443 O444 1.315 . S
C443 O445 1.279 . S
O444 Cd436 2.223 . S
O444 C443 1.315 . S
O445 Cd435 2.240 . S
O445 C443 1.279 . S
O446 Cd436 2.297 . S
O446 C441 1.247 . S
O447 Cd436 2.439 . S
O447 C441 1.208 . S
O448 Cd449 2.223 . S
O448 C456 1.315 . S
Cd449 O448 2.223 . S
Cd449 O452 2.297 . S
Cd449 O453 2.439 . S
Cd449 O459 2.240 . S
Cd450 O451 2.240 . S
Cd450 O458 2.223 . S
Cd450 O460 2.297 . S
Cd450 O461 2.439 . S
O451 Cd450 2.240 . S
O451 C456 1.279 . S
O452 Cd449 2.297 . S
O452 C454 1.247 . S
O453 Cd449 2.439 . S
O453 C454 1.208 . S
C454 O452 1.247 . S
C454 O453 1.208 . S
C455 O460 1.247 . S
C455 O461 1.208 . S
C456 O448 1.315 . S
C456 O451 1.279 . S
C457 O458 1.315 . S
C457 O459 1.279 . S
O458 Cd450 2.223 . S
O458 C457 1.315 . S
O459 Cd449 2.240 . S
O459 C457 1.279 . S
O460 Cd450 2.297 . S
O460 C455 1.247 . S
O461 Cd450 2.439 . S
O461 C455 1.208 . S
O462 Cd463 2.223 . S
O462 C470 1.315 . S
Cd463 O462 2.223 . S
Cd463 O466 2.297 . S
Cd463 O467 2.439 . S
Cd463 O473 2.240 . S
Cd464 O465 2.240 . S
Cd464 O472 2.223 . S
Cd464 O474 2.297 . S
Cd464 O475 2.439 . S
O465 Cd464 2.240 . S
O465 C470 1.279 . S
O466 Cd463 2.297 . S
O466 C468 1.247 . S
O467 Cd463 2.439 . S
O467 C468 1.208 . S
C468 O466 1.247 . S
C468 O467 1.208 . S
C469 O474 1.247 . S
C469 O475 1.208 . S
C470 O462 1.315 . S
C470 O465 1.279 . S
C471 O472 1.315 . S
C471 O473 1.279 . S
O472 Cd464 2.223 . S
O472 C471 1.315 . S
O473 Cd463 2.240 . S
O473 C471 1.279 . S
O474 Cd464 2.297 . S
O474 C469 1.247 . S
O475 Cd464 2.439 . S
O475 C469 1.208 . S
O476 Cd477 2.223 . S
O476 C484 1.315 . S
Cd477 O476 2.223 . S
Cd477 O480 2.297 . S
Cd477 O481 2.439 . S
Cd477 O487 2.240 . S
Cd478 O479 2.240 . S
Cd478 O486 2.223 . S
Cd478 O488 2.297 . S
Cd478 O489 2.439 . S
O479 Cd478 2.240 . S
O479 C484 1.279 . S
O480 Cd477 2.297 . S
O480 C482 1.247 . S
O481 Cd477 2.439 . S
O481 C482 1.208 . S
C482 O480 1.247 . S
C482 O481 1.208 . S
C483 O488 1.247 . S
C483 O489 1.208 . S
C484 O476 1.315 . S
C484 O479 1.279 . S
C485 O486 1.315 . S
C485 O487 1.279 . S
O486 Cd478 2.223 . S
O486 C485 1.315 . S
O487 Cd477 2.240 . S
O487 C485 1.279 . S
O488 Cd478 2.297 . S
O488 C483 1.247 . S
O489 Cd478 2.439 . S
O489 C483 1.208 . S
O490 Cd491 2.223 . S
O490 C498 1.315 . S
Cd491 O490 2.223 . S
Cd491 O494 2.297 . S
Cd491 O495 2.439 . S
Cd491 O501 2.240 . S
Cd492 O493 2.240 . S
Cd492 O500 2.223 . S
Cd492 O502 2.297 . S
Cd492 O503 2.439 . S
O493 Cd492 2.240 . S
O493 C498 1.279 . S
O494 Cd491 2.297 . S
O494 C496 1.247 . S
O495 Cd491 2.439 . S
O495 C496 1.208 . S
C496 O494 1.247 . S
C496 O495 1.208 . S
C497 O502 1.247 . S
C497 O503 1.208 . S
C498 O490 1.315 . S
C498 O493 1.279 . S
C499 O500 1.315 . S
C499 O501 1.279 . S
O500 Cd492 2.223 . S
O500 C499 1.315 . S
O501 Cd491 2.240 . S
O501 C499 1.279 . S
O502 Cd492 2.297 . S
O502 C497 1.247 . S
O503 Cd492 2.439 . S
O503 C497 1.208 . S
O504 Cd505 2.223 . S
O504 C512 1.315 . S
Cd505 O504 2.223 . S
Cd505 O508 2.297 . S
Cd505 O509 2.439 . S
Cd505 O515 2.240 . S
Cd506 O507 2.240 . S
Cd506 O514 2.223 . S
Cd506 O516 2.297 . S
Cd506 O517 2.439 . S
O507 Cd506 2.240 . S
O507 C512 1.279 . S
O508 Cd505 2.297 . S
O508 C510 1.247 . S
O509 Cd505 2.439 . S
O509 C510 1.208 . S
C510 O508 1.247 . S
C510 O509 1.208 . S
C511 O516 1.247 . S
C511 O517 1.208 . S
C512 O504 1.315 . S
C512 O507 1.279 . S
C513 O514 1.315 . S
C513 O515 1.279 . S
O514 Cd506 2.223 . S
O514 C513 1.315 . S
O515 Cd505 2.240 . S
O515 C513 1.279 . S
O516 Cd506 2.297 . S
O516 C511 1.247 . S
O517 Cd506 2.439 . S
O517 C511 1.208 . S
O518 Cd519 2.223 . S
O518 C526 1.315 . S
Cd519 O518 2.223 . S
Cd519 O522 2.297 . S
Cd519 O523 2.439 . S
Cd519 O529 2.240 . S
Cd520 O521 2.240 . S
Cd520 O528 2.223 . S
Cd520 O530 2.297 . S
Cd520 O531 2.439 . S
O521 Cd520 2.240 . S
O521 C526 1.279 . S
O522 Cd519 2.297 . S
O522 C524 1.247 . S
O523 Cd519 2.439 . S
O523 C524 1.208 . S
C524 O522 1.247 . S
C524 O523 1.208 . S
C525 O530 1.247 . S
C525 O531 1.208 . S
C526 O518 1.315 . S
C526 O521 1.279 . S
C527 O528 1.315 . S
C527 O529 1.279 . S
O528 Cd520 2.223 . S
O528 C527 1.315 . S
O529 Cd519 2.240 . S
O529 C527 1.279 . S
O530 Cd520 2.297 . S
O530 C525 1.247 . S
O531 Cd520 2.439 . S
O531 C525 1.208 . S
O532 Cd533 2.223 . S
O532 C540 1.315 . S
Cd533 O532 2.223 . S
Cd533 O536 2.297 . S
Cd533 O537 2.439 . S
Cd533 O543 2.240 . S
Cd534 O535 2.240 . S
Cd534 O542 2.223 . S
Cd534 O544 2.297 . S
Cd534 O545 2.439 . S
O535 Cd534 2.240 . S
O535 C540 1.279 . S
O536 Cd533 2.297 . S
O536 C538 1.247 . S
O537 Cd533 2.439 . S
O537 C538 1.208 . S
C538 O536 1.247 . S
C538 O537 1.208 . S
C539 O544 1.247 . S
C539 O545 1.208 . S
C540 O532 1.315 . S
C540 O535 1.279 . S
C541 O542 1.315 . S
C541 O543 1.279 . S
O542 Cd534 2.223 . S
O542 C541 1.315 . S
O543 Cd533 2.240 . S
O543 C541 1.279 . S
O544 Cd534 2.297 . S
O544 C539 1.247 . S
O545 Cd534 2.439 . S
O545 C539 1.208 . S
O546 Cd547 2.223 . S
O546 C554 1.315 . S
Cd547 O546 2.223 . S
Cd547 O550 2.297 . S
Cd547 O551 2.439 . S
Cd547 O557 2.240 . S
Cd548 O549 2.240 . S
Cd548 O556 2.223 . S
Cd548 O558 2.297 . S
Cd548 O559 2.439 . S
O549 Cd548 2.240 . S
O549 C554 1.279 . S
O550 Cd547 2.297 . S
O550 C552 1.247 . S
O551 Cd547 2.439 . S
O551 C552 1.208 . S
C552 O550 1.247 . S
C552 O551 1.208 . S
C553 O558 1.247 . S
C553 O559 1.208 . S
C554 O546 1.315 . S
C554 O549 1.279 . S
C555 O556 1.315 . S
C555 O557 1.279 . S
O556 Cd548 2.223 . S
O556 C555 1.315 . S
O557 Cd547 2.240 . S
O557 C555 1.279 . S
O558 Cd548 2.297 . S
O558 C553 1.247 . S
O559 Cd548 2.439 . S
O559 C553 1.208 . S
O560 Cd561 2.223 . S
O560 C568 1.315 . S
Cd561 O560 2.223 . S
Cd561 O564 2.297 . S
Cd561 O565 2.439 . S
Cd561 O571 2.240 . S
Cd562 O563 2.240 . S
Cd562 O570 2.223 . S
Cd562 O572 2.297 . S
Cd562 O573 2.439 . S
O563 Cd562 2.240 . S
O563 C568 1.279 . S
O564 Cd561 2.297 . S
O564 C566 1.247 . S
O565 Cd561 2.439 . S
O565 C566 1.208 . S
C566 O564 1.247 . S
C566 O565 1.208 . S
C567 O572 1.247 . S
C567 O573 1.208 . S
C568 O560 1.315 . S
C568 O563 1.279 . S
C569 O570 1.315 . S
C569 O571 1.279 . S
O570 Cd562 2.223 . S
O570 C569 1.315 . S
O571 Cd561 2.240 . S
O571 C569 1.279 . S
O572 Cd562 2.297 . S
O572 C567 1.247 . S
O573 Cd562 2.439 . S
O573 C567 1.208 . S
O574 Cd575 2.223 . S
O574 C582 1.315 . S
Cd575 O574 2.223 . S
Cd575 O578 2.297 . S
Cd575 O579 2.439 . S
Cd575 O585 2.240 . S
Cd576 O577 2.240 . S
Cd576 O584 2.223 . S
Cd576 O586 2.297 . S
Cd576 O587 2.439 . S
O577 Cd576 2.240 . S
O577 C582 1.279 . S
O578 Cd575 2.297 . S
O578 C580 1.247 . S
O579 Cd575 2.439 . S
O579 C580 1.208 . S
C580 O578 1.247 . S
C580 O579 1.208 . S
C581 O586 1.247 . S
C581 O587 1.208 . S
C582 O574 1.315 . S
C582 O577 1.279 . S
C583 O584 1.315 . S
C583 O585 1.279 . S
O584 Cd576 2.223 . S
O584 C583 1.315 . S
O585 Cd575 2.240 . S
O585 C583 1.279 . S
O586 Cd576 2.297 . S
O586 C581 1.247 . S
O587 Cd576 2.439 . S
O587 C581 1.208 . S
O588 Cd589 2.223 . S
O588 C596 1.315 . S
Cd589 O588 2.223 . S
Cd589 O592 2.297 . S
Cd589 O593 2.439 . S
Cd589 O599 2.240 . S
Cd590 O591 2.240 . S
Cd590 O598 2.223 . S
Cd590 O600 2.297 . S
Cd590 O601 2.439 . S
O591 Cd590 2.240 . S
O591 C596 1.279 . S
O592 Cd589 2.297 . S
O592 C594 1.247 . S
O593 Cd589 2.439 . S
O593 C594 1.208 . S
C594 O592 1.247 . S
C594 O593 1.208 . S
C595 O600 1.247 . S
C595 O601 1.208 . S
C596 O588 1.315 . S
C596 O591 1.279 . S
C597 O598 1.315 . S
C597 O599 1.279 . S
O598 Cd590 2.223 . S
O598 C597 1.315 . S
O599 Cd589 2.240 . S
O599 C597 1.279 . S
O600 Cd590 2.297 . S
O600 C595 1.247 . S
O601 Cd590 2.439 . S
O601 C595 1.208 . S
O602 Cd603 2.223 . S
O602 C610 1.315 . S
Cd603 O602 2.223 . S
Cd603 O606 2.297 . S
Cd603 O607 2.439 . S
Cd603 O613 2.240 . S
Cd604 O605 2.240 . S
Cd604 O612 2.223 . S
Cd604 O614 2.297 . S
Cd604 O615 2.439 . S
O605 Cd604 2.240 . S
O605 C610 1.279 . S
O606 Cd603 2.297 . S
O606 C608 1.247 . S
O607 Cd603 2.439 . S
O607 C608 1.208 . S
C608 O606 1.247 . S
C608 O607 1.208 . S
C609 O614 1.247 . S
C609 O615 1.208 . S
C610 O602 1.315 . S
C610 O605 1.279 . S
C611 O612 1.315 . S
C611 O613 1.279 . S
O612 Cd604 2.223 . S
O612 C611 1.315 . S
O613 Cd603 2.240 . S
O613 C611 1.279 . S
O614 Cd604 2.297 . S
O614 C609 1.247 . S
O615 Cd604 2.439 . S
O615 C609 1.208 . S
O616 Cd617 2.223 . S
O616 C624 1.315 . S
Cd617 O616 2.223 . S
Cd617 O620 2.297 . S
Cd617 O621 2.439 . S
Cd617 O627 2.240 . S
Cd618 O619 2.240 . S
Cd618 O626 2.223 . S
Cd618 O628 2.297 . S
Cd618 O629 2.439 . S
O619 Cd618 2.240 . S
O619 C624 1.279 . S
O620 Cd617 2.297 . S
O620 C622 1.247 . S
O621 Cd617 2.439 . S
O621 C622 1.208 . S
C622 O620 1.247 . S
C622 O621 1.208 . S
C623 O628 1.247 . S
C623 O629 1.208 . S
C624 O616 1.315 . S
C624 O619 1.279 . S
C625 O626 1.315 . S
C625 O627 1.279 . S
O626 Cd618 2.223 . S
O626 C625 1.315 . S
O627 Cd617 2.240 . S
O627 C625 1.279 . S
O628 Cd618 2.297 . S
O628 C623 1.247 . S
O629 Cd618 2.439 . S
O629 C623 1.208 . S
O630 Cd631 2.223 . S
O630 C638 1.315 . S
Cd631 O630 2.223 . S
Cd631 O634 2.297 . S
Cd631 O635 2.439 . S
Cd631 O641 2.240 . S
Cd632 O633 2.240 . S
Cd632 O640 2.223 . S
Cd632 O642 2.297 . S
Cd632 O643 2.439 . S
O633 Cd632 2.240 . S
O633 C638 1.279 . S
O634 Cd631 2.297 . S
O634 C636 1.247 . S
O635 Cd631 2.439 . S
O635 C636 1.208 . S
C636 O634 1.247 . S
C636 O635 1.208 . S
C637 O642 1.247 . S
C637 O643 1.208 . S
C638 O630 1.315 . S
C638 O633 1.279 . S
C639 O640 1.315 . S
C639 O641 1.279 . S
O640 Cd632 2.223 . S
O640 C639 1.315 . S
O641 Cd631 2.240 . S
O641 C639 1.279 . S
O642 Cd632 2.297 . S
O642 C637 1.247 . S
O643 Cd632 2.439 . S
O643 C637 1.208 . S
O644 Cd645 2.223 . S
O644 C652 1.315 . S
Cd645 O644 2.223 . S
Cd645 O648 2.297 . S
Cd645 O649 2.439 . S
Cd645 O655 2.240 . S
Cd646 O647 2.240 . S
Cd646 O654 2.223 . S
Cd646 O656 2.297 . S
Cd646 O657 2.439 . S
O647 Cd646 2.240 . S
O647 C652 1.279 . S
O648 Cd645 2.297 . S
O648 C650 1.247 . S
O649 Cd645 2.439 . S
O649 C650 1.208 . S
C650 O648 1.247 . S
C650 O649 1.208 . S
C651 O656 1.247 . S
C651 O657 1.208 . S
C652 O644 1.315 . S
C652 O647 1.279 . S
C653 O654 1.315 . S
C653 O655 1.279 . S
O654 Cd646 2.223 . S
O654 C653 1.315 . S
O655 Cd645 2.240 . S
O655 C653 1.279 . S
O656 Cd646 2.297 . S
O656 C651 1.247 . S
O657 Cd646 2.439 . S
O657 C651 1.208 . S
O658 Cd659 2.223 . S
O658 C666 1.315 . S
Cd659 O658 2.223 . S
Cd659 O662 2.297 . S
Cd659 O663 2.439 . S
Cd659 O669 2.240 . S
Cd660 O661 2.240 . S
Cd660 O668 2.223 . S
Cd660 O670 2.297 . S
Cd660 O671 2.439 . S
O661 Cd660 2.240 . S
O661 C666 1.279 . S
O662 Cd659 2.297 . S
O662 C664 1.247 . S
O663 Cd659 2.439 . S
O663 C664 1.208 . S
C664 O662 1.247 . S
C664 O663 1.208 . S
C665 O670 1.247 . S
C665 O671 1.208 . S
C666 O658 1.315 . S
C666 O661 1.279 . S
C667 O668 1.315 . S
C667 O669 1.279 . S
O668 Cd660 2.223 . S
O668 C667 1.315 . S
O669 Cd659 2.240 . S
O669 C667 1.279 . S
O670 Cd660 2.297 . S
O670 C665 1.247 . S
O671 Cd660 2.439 . S
O671 C665 1.208 . S
H672 C684 0.930 . S
H673 C686 0.928 1_455 S
H674 C687 0.930 . S
H675 C691 0.959 . S
H676 C691 0.959 . S
H677 C691 0.961 . S
H678 C692 0.960 . S
H679 C692 0.961 . S
H680 C692 0.959 . S
H681 C695 0.929 . S
H682 C696 0.931 . S
H683 C698 0.941 . S
C684 H672 0.930 . S
C684 C685 1.399 . S
C684 C689 1.399 . S
C685 C684 1.399 . S
C685 C686 1.383 . S
C686 H673 0.928 1_655 S
C686 C685 1.383 . S
C686 C687 1.384 1_655 S
C687 H674 0.930 . S
C687 C686 1.384 1_455 S
C687 C688 1.390 . S
C688 C687 1.390 . S
C688 C689 1.394 1_455 S
C688 C694 1.465 . S
C689 C684 1.399 . S
C689 C688 1.394 1_655 S
C689 C690 1.516 . S
C690 C689 1.516 . S
C690 C691 1.502 . S
C690 C692 1.561 1_655 S
C690 C693 1.526 1_655 S
C691 H675 0.959 . S
C691 H676 0.959 . S
C691 H677 0.961 . S
C691 C690 1.502 . S
C692 H678 0.960 . S
C692 H679 0.961 . S
C692 H680 0.959 . S
C692 C690 1.561 1_455 S
C693 C690 1.526 1_455 S
C693 C694 1.396 . S
C693 C698 1.390 . S
C694 C688 1.465 . S
C694 C693 1.396 . S
C694 C695 1.399 . S
C695 H681 0.929 . S
C695 C694 1.399 . S
C695 C696 1.385 . S
C696 H682 0.931 . S
C696 C695 1.385 . S
C696 C697 1.389 . S
C697 C696 1.389 . S
C697 C698 1.387 . S
C698 H683 0.941 . S
C698 C693 1.390 . S
C698 C697 1.387 . S
H699 C711 0.942 . S
H700 C713 0.930 . S
H701 C714 0.930 . S
H702 C718 0.959 . S
H703 C718 0.959 . S
H704 C718 0.961 . S
H705 C719 0.960 . S
H706 C719 0.961 . S
H707 C719 0.959 1_455 S
H708 C722 0.929 . S
H709 C723 0.931 . S
H710 C725 0.930 . S
C711 H699 0.942 . S
C711 C712 1.386 1_655 S
C711 C716 1.400 . S
C712 C711 1.386 1_455 S
C712 C713 1.376 . S
C713 H700 0.930 . S
C713 C712 1.376 . S
C713 C714 1.388 . S
C714 H701 0.930 . S
C714 C713 1.388 . S
C714 C715 1.390 . S
C715 C714 1.390 . S
C715 C716 1.394 1_455 S
C715 C721 1.465 . S
C716 C711 1.400 . S
C716 C715 1.394 1_655 S
C716 C717 1.516 . S
C717 C716 1.516 . S
C717 C718 1.502 . S
C717 C719 1.561 . S
C717 C720 1.526 . S
C718 H702 0.959 . S
C718 H703 0.959 . S
C718 H704 0.961 . S
C718 C717 1.502 . S
C719 H705 0.960 . S
C719 H706 0.961 . S
C719 H707 0.959 1_655 S
C719 C717 1.561 . S
C720 C717 1.526 . S
C720 C721 1.396 1_655 S
C720 C725 1.390 . S
C721 C715 1.465 . S
C721 C720 1.396 1_455 S
C721 C722 1.399 . S
C722 H708 0.929 . S
C722 C721 1.399 . S
C722 C723 1.385 . S
C723 H709 0.931 . S
C723 C722 1.385 . S
C723 C724 1.389 1_455 S
C724 C723 1.389 1_655 S
C724 C725 1.387 . S
C725 H710 0.930 . S
C725 C720 1.390 . S
C725 C724 1.387 . S
H726 C738 0.930 . S
H727 C740 0.930 . S
H728 C741 0.930 . S
H729 C745 0.959 . S
H730 C745 0.959 . S
H731 C745 0.961 . S
H732 C746 0.960 . S
H733 C746 0.961 . S
H734 C746 0.959 . S
H735 C749 0.929 . S
H736 C750 0.931 . S
H737 C752 0.930 . S
C738 H726 0.930 . S
C738 C739 1.399 1_545 S
C738 C743 1.399 . S
C739 C738 1.399 1_565 S
C739 C740 1.376 . S
C740 H727 0.930 . S
C740 C739 1.376 . S
C740 C741 1.388 . S
C741 H728 0.930 . S
C741 C740 1.388 . S
C741 C742 1.390 . S
C742 C741 1.390 . S
C742 C743 1.394 1_565 S
C742 C748 1.465 . S
C743 C738 1.399 . S
C743 C742 1.394 1_545 S
C743 C744 1.516 . S
C744 C743 1.516 . S
C744 C745 1.502 . S
C744 C746 1.561 . S
C744 C747 1.526 . S
C745 H729 0.959 . S
C745 H730 0.959 . S
C745 H731 0.961 . S
C745 C744 1.502 . S
C746 H732 0.960 . S
C746 H733 0.961 . S
C746 H734 0.959 . S
C746 C744 1.561 . S
C747 C744 1.526 . S
C747 C748 1.396 1_545 S
C747 C752 1.390 . S
C748 C742 1.465 . S
C748 C747 1.396 1_565 S
C748 C749 1.399 . S
C749 H735 0.929 . S
C749 C748 1.399 . S
C749 C750 1.385 . S
C750 H736 0.931 . S
C750 C749 1.385 . S
C750 C751 1.389 1_565 S
C751 C750 1.389 1_545 S
C751 C752 1.387 . S
C752 H737 0.930 . S
C752 C747 1.390 . S
C752 C751 1.387 . S
H753 C765 0.930 . S
H754 C767 0.930 . S
H755 C768 0.930 . S
H756 C772 0.959 . S
H757 C772 0.959 . S
H758 C772 0.961 . S
H759 C773 0.960 . S
H760 C773 0.961 . S
H761 C773 0.959 . S
H762 C776 0.929 . S
H763 C777 0.931 . S
H764 C779 0.930 . S
C765 H753 0.930 . S
C765 C766 1.399 . S
C765 C770 1.399 . S
C766 C765 1.399 . S
C766 C767 1.376 . S
C767 H754 0.930 . S
C767 C766 1.376 . S
C767 C768 1.388 . S
C768 H755 0.930 . S
C768 C767 1.388 . S
C768 C769 1.390 . S
C769 C768 1.390 . S
C769 C770 1.394 . S
C769 C775 1.465 . S
C770 C765 1.399 . S
C770 C769 1.394 . S
C770 C771 1.516 . S
C771 C770 1.516 . S
C771 C772 1.502 . S
C771 C773 1.561 . S
C771 C774 1.526 . S
C772 H756 0.959 . S
C772 H757 0.959 . S
C772 H758 0.961 . S
C772 C771 1.502 . S
C773 H759 0.960 . S
C773 H760 0.961 . S
C773 H761 0.959 . S
C773 C771 1.561 . S
C774 C771 1.526 . S
C774 C775 1.396 . S
C774 C779 1.390 . S
C775 C769 1.465 . S
C775 C774 1.396 . S
C775 C776 1.399 . S
C776 H762 0.929 . S
C776 C775 1.399 . S
C776 C777 1.385 . S
C777 H763 0.931 . S
C777 C776 1.385 . S
C777 C778 1.389 . S
C778 C777 1.389 . S
C778 C779 1.387 . S
C779 H764 0.930 . S
C779 C774 1.390 . S
C779 C778 1.387 . S
H780 C792 0.930 . S
H781 C794 0.930 . S
H782 C795 0.930 . S
H783 C799 0.959 . S
H784 C799 0.959 . S
H785 C799 0.961 . S
H786 C800 0.960 1_554 S
H787 C800 0.961 . S
H788 C800 0.959 . S
H789 C803 0.929 . S
H790 C804 0.931 . S
H791 C806 0.930 1_554 S
C792 H780 0.930 . S
C792 C793 1.399 . S
C792 C797 1.399 . S
C793 C792 1.399 . S
C793 C794 1.376 1_554 S
C794 H781 0.930 . S
C794 C793 1.376 1_556 S
C794 C795 1.388 . S
C795 H782 0.930 . S
C795 C794 1.388 . S
C795 C796 1.390 . S
C796 C795 1.390 . S
C796 C797 1.394 1_556 S
C796 C802 1.465 . S
C797 C792 1.399 . S
C797 C796 1.394 1_554 S
C797 C798 1.516 . S
C798 C797 1.516 . S
C798 C799 1.502 . S
C798 C800 1.561 1_554 S
C798 C801 1.517 1_554 S
C799 H783 0.959 . S
C799 H784 0.959 . S
C799 H785 0.961 . S
C799 C798 1.502 . S
C800 H786 0.960 1_556 S
C800 H787 0.961 . S
C800 H788 0.959 . S
C800 C798 1.561 1_556 S
C801 C798 1.517 1_556 S
C801 C802 1.405 . S
C801 C806 1.391 . S
C802 C796 1.465 . S
C802 C801 1.405 . S
C802 C803 1.399 . S
C803 H789 0.929 . S
C803 C802 1.399 . S
C803 C804 1.385 . S
C804 H790 0.931 . S
C804 C803 1.385 . S
C804 C805 1.389 . S
C805 C804 1.389 . S
C805 C806 1.387 . S
C806 H791 0.930 1_556 S
C806 C801 1.391 . S
C806 C805 1.387 . S
H807 C819 0.930 . S
H808 C821 0.930 . S
H809 C822 0.930 . S
H810 C826 0.959 . S
H811 C826 0.959 . S
H812 C826 0.961 . S
H813 C827 0.960 . S
H814 C827 0.961 . S
H815 C827 0.959 . S
H816 C830 0.929 . S
H817 C831 0.931 . S
H818 C833 0.930 . S
C819 H807 0.930 . S
C819 C820 1.399 . S
C819 C824 1.399 . S
C820 C819 1.399 . S
C820 C821 1.376 . S
C821 H808 0.930 . S
C821 C820 1.376 . S
C821 C822 1.388 . S
C822 H809 0.930 . S
C822 C821 1.388 . S
C822 C823 1.390 . S
C823 C822 1.390 . S
C823 C824 1.394 . S
C823 C829 1.465 . S
C824 C819 1.399 . S
C824 C823 1.394 . S
C824 C825 1.516 . S
C825 C824 1.516 . S
C825 C826 1.502 . S
C825 C827 1.561 . S
C825 C828 1.526 . S
C826 H810 0.959 . S
C826 H811 0.959 . S
C826 H812 0.961 . S
C826 C825 1.502 . S
C827 H813 0.960 . S
C827 H814 0.961 . S
C827 H815 0.959 . S
C827 C825 1.561 . S
C828 C825 1.526 . S
C828 C829 1.396 . S
C828 C833 1.390 . S
C829 C823 1.465 . S
C829 C828 1.396 . S
C829 C830 1.399 . S
C830 H816 0.929 . S
C830 C829 1.399 . S
C830 C831 1.385 . S
C831 H817 0.931 . S
C831 C830 1.385 . S
C831 C832 1.389 . S
C832 C831 1.389 . S
C832 C833 1.387 . S
C833 H818 0.930 . S
C833 C828 1.390 . S
C833 C832 1.387 . S
H834 C846 0.930 . S
H835 C848 0.930 . S
H836 C849 0.930 . S
H837 C853 0.959 . S
H838 C853 0.959 . S
H839 C853 0.961 . S
H840 C854 0.960 . S
H841 C854 0.961 . S
H842 C854 0.959 . S
H843 C857 0.929 . S
H844 C858 0.931 . S
H845 C860 0.930 . S
C846 H834 0.930 . S
C846 C847 1.399 . S
C846 C851 1.399 . S
C847 C846 1.399 . S
C847 C848 1.376 . S
C848 H835 0.930 . S
C848 C847 1.376 . S
C848 C849 1.388 . S
C849 H836 0.930 . S
C849 C848 1.388 . S
C849 C850 1.390 . S
C850 C849 1.390 . S
C850 C851 1.394 . S
C850 C856 1.465 . S
C851 C846 1.399 . S
C851 C850 1.394 . S
C851 C852 1.516 . S
C852 C851 1.516 . S
C852 C853 1.502 . S
C852 C854 1.561 . S
C852 C855 1.526 . S
C853 H837 0.959 . S
C853 H838 0.959 . S
C853 H839 0.961 . S
C853 C852 1.502 . S
C854 H840 0.960 . S
C854 H841 0.961 . S
C854 H842 0.959 . S
C854 C852 1.561 . S
C855 C852 1.526 . S
C855 C856 1.396 . S
C855 C860 1.390 . S
C856 C850 1.465 . S
C856 C855 1.396 . S
C856 C857 1.399 . S
C857 H843 0.929 . S
C857 C856 1.399 . S
C857 C858 1.385 . S
C858 H844 0.931 . S
C858 C857 1.385 . S
C858 C859 1.389 . S
C859 C858 1.389 . S
C859 C860 1.387 . S
C860 H845 0.930 . S
C860 C855 1.390 . S
C860 C859 1.387 . S
H861 C873 0.930 1_655 S
H862 C875 0.930 . S
H863 C876 0.930 . S
H864 C880 0.959 . S
H865 C880 0.959 . S
H866 C880 0.961 . S
H867 C881 0.960 . S
H868 C881 0.961 1_655 S
H869 C881 0.959 . S
H870 C884 0.929 . S
H871 C885 0.931 . S
H872 C887 0.930 . S
C873 H861 0.930 1_455 S
C873 C874 1.399 . S
C873 C878 1.400 . S
C874 C873 1.399 . S
C874 C875 1.376 . S
C875 H862 0.930 . S
C875 C874 1.376 . S
C875 C876 1.388 . S
C876 H863 0.930 . S
C876 C875 1.388 . S
C876 C877 1.390 . S
C877 C876 1.390 . S
C877 C878 1.398 . S
C877 C883 1.465 . S
C878 C873 1.400 . S
C878 C877 1.398 . S
C878 C879 1.511 1_455 S
C879 C878 1.511 1_655 S
C879 C880 1.502 . S
C879 C881 1.561 1_655 S
C879 C882 1.526 . S
C880 H864 0.959 . S
C880 H865 0.959 . S
C880 H866 0.961 . S
C880 C879 1.502 . S
C881 H867 0.960 . S
C881 H868 0.961 1_455 S
C881 H869 0.959 . S
C881 C879 1.561 1_455 S
C882 C879 1.526 . S
C882 C883 1.396 1_655 S
C882 C887 1.390 . S
C883 C877 1.465 . S
C883 C882 1.396 1_455 S
C883 C884 1.399 . S
C884 H870 0.929 . S
C884 C883 1.399 . S
C884 C885 1.385 . S
C885 H871 0.931 . S
C885 C884 1.385 . S
C885 C886 1.389 1_455 S
C886 C885 1.389 1_655 S
C886 C887 1.387 . S
C887 H872 0.930 . S
C887 C882 1.390 . S
C887 C886 1.387 . S
H888 C900 0.930 . S
H889 C902 0.931 1_655 S
H890 C903 0.930 . S
H891 C907 0.959 . S
H892 C907 0.959 . S
H893 C907 0.961 . S
H894 C908 0.960 . S
H895 C908 0.961 . S
H896 C908 0.959 . S
H897 C911 0.929 . S
H898 C912 0.931 . S
H899 C914 0.934 . S
C900 H888 0.930 . S
C900 C901 1.399 . S
C900 C905 1.399 . S
C901 C900 1.399 . S
C901 C902 1.375 . S
C902 H889 0.931 1_455 S
C902 C901 1.375 . S
C902 C903 1.390 1_455 S
C903 H890 0.930 . S
C903 C902 1.390 1_655 S
C903 C904 1.390 . S
C904 C903 1.390 . S
C904 C905 1.394 1_655 S
C904 C910 1.465 . S
C905 C900 1.399 . S
C905 C904 1.394 1_455 S
C905 C906 1.516 . S
C906 C905 1.516 . S
C906 C907 1.502 . S
C906 C908 1.561 1_455 S
C906 C909 1.526 1_455 S
C907 H891 0.959 . S
C907 H892 0.959 . S
C907 H893 0.961 . S
C907 C906 1.502 . S
C908 H894 0.960 . S
C908 H895 0.961 . S
C908 H896 0.959 . S
C908 C906 1.561 1_655 S
C909 C906 1.526 1_655 S
C909 C910 1.396 . S
C909 C914 1.390 . S
C910 C904 1.465 . S
C910 C909 1.396 . S
C910 C911 1.399 . S
C911 H897 0.929 . S
C911 C910 1.399 . S
C911 C912 1.385 . S
C912 H898 0.931 . S
C912 C911 1.385 . S
C912 C913 1.389 . S
C913 C912 1.389 . S
C913 C914 1.387 . S
C914 H899 0.934 . S
C914 C909 1.390 . S
C914 C913 1.387 . S
H915 C927 0.930 . S
H916 C929 0.930 . S
H917 C930 0.930 . S
H918 C934 0.959 . S
H919 C934 0.959 . S
H920 C934 0.961 . S
H921 C935 0.960 . S
H922 C935 0.961 . S
H923 C935 0.959 . S
H924 C938 0.929 . S
H925 C939 0.931 . S
H926 C941 0.930 . S
C927 H915 0.930 . S
C927 C928 1.399 . S
C927 C932 1.399 . S
C928 C927 1.399 . S
C928 C929 1.376 1_545 S
C929 H916 0.930 . S
C929 C928 1.376 1_565 S
C929 C930 1.388 . S
C930 H917 0.930 . S
C930 C929 1.388 . S
C930 C931 1.390 . S
C931 C930 1.390 . S
C931 C932 1.394 1_565 S
C931 C937 1.465 . S
C932 C927 1.399 . S
C932 C931 1.394 1_545 S
C932 C933 1.516 . S
C933 C932 1.516 . S
C933 C934 1.502 . S
C933 C935 1.561 . S
C933 C936 1.526 . S
C934 H918 0.959 . S
C934 H919 0.959 . S
C934 H920 0.961 . S
C934 C933 1.502 . S
C935 H921 0.960 . S
C935 H922 0.961 . S
C935 H923 0.959 . S
C935 C933 1.561 . S
C936 C933 1.526 . S
C936 C937 1.396 1_545 S
C936 C941 1.390 . S
C937 C931 1.465 . S
C937 C936 1.396 1_565 S
C937 C938 1.399 . S
C938 H924 0.929 . S
C938 C937 1.399 . S
C938 C939 1.385 . S
C939 H925 0.931 . S
C939 C938 1.385 . S
C939 C940 1.389 . S
C940 C939 1.389 . S
C940 C941 1.387 1_565 S
C941 H926 0.930 . S
C941 C936 1.390 . S
C941 C940 1.387 1_545 S
H942 C954 0.930 . S
H943 C956 0.930 . S
H944 C957 0.930 . S
H945 C961 0.959 . S
H946 C961 0.959 . S
H947 C961 0.961 . S
H948 C962 0.960 . S
H949 C962 0.961 . S
H950 C962 0.959 . S
H951 C965 0.929 . S
H952 C966 0.931 . S
H953 C968 0.930 . S
C954 H942 0.930 . S
C954 C955 1.399 . S
C954 C959 1.399 . S
C955 C954 1.399 . S
C955 C956 1.376 . S
C956 H943 0.930 . S
C956 C955 1.376 . S
C956 C957 1.388 . S
C957 H944 0.930 . S
C957 C956 1.388 . S
C957 C958 1.390 . S
C958 C957 1.390 . S
C958 C959 1.394 . S
C958 C964 1.465 . S
C959 C954 1.399 . S
C959 C958 1.394 . S
C959 C960 1.516 . S
C960 C959 1.516 . S
C960 C961 1.502 . S
C960 C962 1.561 . S
C960 C963 1.526 . S
C961 H945 0.959 . S
C961 H946 0.959 . S
C961 H947 0.961 . S
C961 C960 1.502 . S
C962 H948 0.960 . S
C962 H949 0.961 . S
C962 H950 0.959 . S
C962 C960 1.561 . S
C963 C960 1.526 . S
C963 C964 1.396 . S
C963 C968 1.390 . S
C964 C958 1.465 . S
C964 C963 1.396 . S
C964 C965 1.399 . S
C965 H951 0.929 . S
C965 C964 1.399 . S
C965 C966 1.385 . S
C966 H952 0.931 . S
C966 C965 1.385 . S
C966 C967 1.389 . S
C967 C966 1.389 . S
C967 C968 1.387 . S
C968 H953 0.930 . S
C968 C963 1.390 . S
C968 C967 1.387 . S
H969 C981 0.930 . S
H970 C983 0.930 . S
H971 C984 0.930 . S
H972 C988 0.959 . S
H973 C988 0.959 . S
H974 C988 0.961 . S
H975 C989 0.960 . S
H976 C989 0.961 . S
H977 C989 0.959 . S
H978 C992 0.929 . S
H979 C993 0.931 . S
H980 C995 0.930 . S
C981 H969 0.930 . S
C981 C982 1.399 . S
C981 C986 1.399 . S
C982 C981 1.399 . S
C982 C983 1.376 . S
C983 H970 0.930 . S
C983 C982 1.376 . S
C983 C984 1.388 . S
C984 H971 0.930 . S
C984 C983 1.388 . S
C984 C985 1.390 . S
C985 C984 1.390 . S
C985 C986 1.394 . S
C985 C991 1.465 . S
C986 C981 1.399 . S
C986 C985 1.394 . S
C986 C987 1.516 1_556 S
C987 C986 1.516 1_554 S
C987 C988 1.502 . S
C987 C989 1.561 1_554 S
C987 C990 1.526 . S
C988 H972 0.959 . S
C988 H973 0.959 . S
C988 H974 0.961 . S
C988 C987 1.502 . S
C989 H975 0.960 . S
C989 H976 0.961 . S
C989 H977 0.959 . S
C989 C987 1.561 1_556 S
C990 C987 1.526 . S
C990 C991 1.396 1_554 S
C990 C995 1.390 . S
C991 C985 1.465 . S
C991 C990 1.396 1_556 S
C991 C992 1.399 . S
C992 H978 0.929 . S
C992 C991 1.399 . S
C992 C993 1.385 1_556 S
C993 H979 0.931 . S
C993 C992 1.385 1_554 S
C993 C994 1.389 . S
C994 C993 1.389 . S
C994 C995 1.387 . S
C995 H980 0.930 . S
C995 C990 1.390 . S
C995 C994 1.387 . S
H996 C1008 0.930 . S
H997 C1010 0.930 . S
H998 C1011 0.930 . S
H999 C1015 0.959 . S
H1000 C1015 0.959 . S
H1001 C1015 0.961 . S
H1002 C1016 0.960 . S
H1003 C1016 0.961 . S
H1004 C1016 0.959 . S
H1005 C1019 0.929 . S
H1006 C1020 0.931 . S
H1007 C1022 0.930 . S
C1008 H996 0.930 . S
C1008 C1009 1.399 . S
C1008 C1013 1.399 . S
C1009 C1008 1.399 . S
C1009 C1010 1.376 . S
C1010 H997 0.930 . S
C1010 C1009 1.376 . S
C1010 C1011 1.388 . S
C1011 H998 0.930 . S
C1011 C1010 1.388 . S
C1011 C1012 1.390 . S
C1012 C1011 1.390 . S
C1012 C1013 1.394 . S
C1012 C1018 1.465 . S
C1013 C1008 1.399 . S
C1013 C1012 1.394 . S
C1013 C1014 1.516 . S
C1014 C1013 1.516 . S
C1014 C1015 1.502 . S
C1014 C1016 1.561 . S
C1014 C1017 1.526 . S
C1015 H999 0.959 . S
C1015 H1000 0.959 . S
C1015 H1001 0.961 . S
C1015 C1014 1.502 . S
C1016 H1002 0.960 . S
C1016 H1003 0.961 . S
C1016 H1004 0.959 . S
C1016 C1014 1.561 . S
C1017 C1014 1.526 . S
C1017 C1018 1.396 . S
C1017 C1022 1.390 . S
C1018 C1012 1.465 . S
C1018 C1017 1.396 . S
C1018 C1019 1.399 . S
C1019 H1005 0.929 . S
C1019 C1018 1.399 . S
C1019 C1020 1.385 . S
C1020 H1006 0.931 . S
C1020 C1019 1.385 . S
C1020 C1021 1.389 . S
C1021 C1020 1.389 . S
C1021 C1022 1.387 . S
C1022 H1007 0.930 . S
C1022 C1017 1.390 . S
C1022 C1021 1.387 . S
H1023 C1035 0.930 . S
H1024 C1037 0.930 . S
H1025 C1038 0.930 . S
H1026 C1042 0.959 . S
H1027 C1042 0.959 . S
H1028 C1042 0.961 . S
H1029 C1043 0.960 . S
H1030 C1043 0.961 . S
H1031 C1043 0.959 . S
H1032 C1046 0.929 . S
H1033 C1047 0.931 . S
H1034 C1049 0.930 . S
C1035 H1023 0.930 . S
C1035 C1036 1.399 . S
C1035 C1040 1.399 . S
C1036 C1035 1.399 . S
C1036 C1037 1.376 . S
C1037 H1024 0.930 . S
C1037 C1036 1.376 . S
C1037 C1038 1.388 . S
C1038 H1025 0.930 . S
C1038 C1037 1.388 . S
C1038 C1039 1.390 . S
C1039 C1038 1.390 . S
C1039 C1040 1.394 . S
C1039 C1045 1.465 . S
C1040 C1035 1.399 . S
C1040 C1039 1.394 . S
C1040 C1041 1.516 . S
C1041 C1040 1.516 . S
C1041 C1042 1.502 . S
C1041 C1043 1.561 . S
C1041 C1044 1.526 . S
C1042 H1026 0.959 . S
C1042 H1027 0.959 . S
C1042 H1028 0.961 . S
C1042 C1041 1.502 . S
C1043 H1029 0.960 . S
C1043 H1030 0.961 . S
C1043 H1031 0.959 . S
C1043 C1041 1.561 . S
C1044 C1041 1.526 . S
C1044 C1045 1.396 . S
C1044 C1049 1.390 . S
C1045 C1039 1.465 . S
C1045 C1044 1.396 . S
C1045 C1046 1.399 . S
C1046 H1032 0.929 . S
C1046 C1045 1.399 . S
C1046 C1047 1.385 . S
C1047 H1033 0.931 . S
C1047 C1046 1.385 . S
C1047 C1048 1.389 . S
C1048 C1047 1.389 . S
C1048 C1049 1.387 . S
C1049 H1034 0.930 . S
C1049 C1044 1.390 . S
C1049 C1048 1.387 . S
H1050 C1062 0.930 . S
H1051 C1064 0.930 . S
H1052 C1065 0.930 . S
H1053 C1069 0.959 . S
H1054 C1069 0.959 . S
H1055 C1069 0.961 . S
H1056 C1070 0.960 . S
H1057 C1070 0.961 . S
H1058 C1070 0.959 . S
H1059 C1073 0.929 . S
H1060 C1074 0.931 . S
H1061 C1076 0.930 . S
C1062 H1050 0.930 . S
C1062 C1063 1.399 . S
C1062 C1067 1.399 . S
C1063 C1062 1.399 . S
C1063 C1064 1.376 . S
C1064 H1051 0.930 . S
C1064 C1063 1.376 . S
C1064 C1065 1.388 . S
C1065 H1052 0.930 . S
C1065 C1064 1.388 . S
C1065 C1066 1.390 . S
C1066 C1065 1.390 . S
C1066 C1067 1.394 . S
C1066 C1072 1.465 . S
C1067 C1062 1.399 . S
C1067 C1066 1.394 . S
C1067 C1068 1.516 . S
C1068 C1067 1.516 . S
C1068 C1069 1.502 . S
C1068 C1070 1.561 . S
C1068 C1071 1.526 . S
C1069 H1053 0.959 . S
C1069 H1054 0.959 . S
C1069 H1055 0.961 . S
C1069 C1068 1.502 . S
C1070 H1056 0.960 . S
C1070 H1057 0.961 . S
C1070 H1058 0.959 . S
C1070 C1068 1.561 . S
C1071 C1068 1.526 . S
C1071 C1072 1.396 . S
C1071 C1076 1.390 . S
C1072 C1066 1.465 . S
C1072 C1071 1.396 . S
C1072 C1073 1.399 . S
C1073 H1059 0.929 . S
C1073 C1072 1.399 . S
C1073 C1074 1.385 . S
C1074 H1060 0.931 . S
C1074 C1073 1.385 . S
C1074 C1075 1.389 . S
C1075 C1074 1.389 . S
C1075 C1076 1.387 . S
C1076 H1061 0.930 . S
C1076 C1071 1.390 . S
C1076 C1075 1.387 . S
H1077 C1089 0.930 . S
H1078 C1091 0.930 . S
H1079 C1092 0.930 . S
H1080 C1096 0.959 . S
H1081 C1096 0.959 . S
H1082 C1096 0.961 . S
H1083 C1097 0.960 . S
H1084 C1097 0.961 . S
H1085 C1097 0.959 . S
H1086 C1100 0.929 . S
H1087 C1101 0.931 . S
H1088 C1103 0.930 . S
C1089 H1077 0.930 . S
C1089 C1090 1.399 . S
C1089 C1094 1.399 . S
C1090 C1089 1.399 . S
C1090 C1091 1.376 . S
C1091 H1078 0.930 . S
C1091 C1090 1.376 . S
C1091 C1092 1.388 . S
C1092 H1079 0.930 . S
C1092 C1091 1.388 . S
C1092 C1093 1.390 . S
C1093 C1092 1.390 . S
C1093 C1094 1.394 . S
C1093 C1099 1.465 . S
C1094 C1089 1.399 . S
C1094 C1093 1.394 . S
C1094 C1095 1.516 . S
C1095 C1094 1.516 . S
C1095 C1096 1.502 . S
C1095 C1097 1.561 . S
C1095 C1098 1.526 . S
C1096 H1080 0.959 . S
C1096 H1081 0.959 . S
C1096 H1082 0.961 . S
C1096 C1095 1.502 . S
C1097 H1083 0.960 . S
C1097 H1084 0.961 . S
C1097 H1085 0.959 . S
C1097 C1095 1.561 . S
C1098 C1095 1.526 . S
C1098 C1099 1.396 . S
C1098 C1103 1.390 . S
C1099 C1093 1.465 . S
C1099 C1098 1.396 . S
C1099 C1100 1.399 . S
C1100 H1086 0.929 . S
C1100 C1099 1.399 . S
C1100 C1101 1.385 . S
C1101 H1087 0.931 . S
C1101 C1100 1.385 . S
C1101 C1102 1.389 . S
C1102 C1101 1.389 . S
C1102 C1103 1.387 . S
C1103 H1088 0.930 . S
C1103 C1098 1.390 . S
C1103 C1102 1.387 . S
H1104 C1116 0.930 . S
H1105 C1118 0.930 . S
H1106 C1119 0.930 . S
H1107 C1123 0.959 . S
H1108 C1123 0.959 . S
H1109 C1123 0.961 . S
H1110 C1124 0.960 . S
H1111 C1124 0.961 . S
H1112 C1124 0.959 . S
H1113 C1127 0.929 . S
H1114 C1128 0.931 . S
H1115 C1130 0.930 . S
C1116 H1104 0.930 . S
C1116 C1117 1.399 . S
C1116 C1121 1.399 . S
C1117 C1116 1.399 . S
C1117 C1118 1.376 . S
C1118 H1105 0.930 . S
C1118 C1117 1.376 . S
C1118 C1119 1.388 . S
C1119 H1106 0.930 . S
C1119 C1118 1.388 . S
C1119 C1120 1.390 . S
C1120 C1119 1.390 . S
C1120 C1121 1.394 . S
C1120 C1126 1.465 . S
C1121 C1116 1.399 . S
C1121 C1120 1.394 . S
C1121 C1122 1.516 . S
C1122 C1121 1.516 . S
C1122 C1123 1.502 . S
C1122 C1124 1.561 . S
C1122 C1125 1.526 . S
C1123 H1107 0.959 . S
C1123 H1108 0.959 . S
C1123 H1109 0.961 . S
C1123 C1122 1.502 . S
C1124 H1110 0.960 . S
C1124 H1111 0.961 . S
C1124 H1112 0.959 . S
C1124 C1122 1.561 . S
C1125 C1122 1.526 . S
C1125 C1126 1.396 . S
C1125 C1130 1.390 . S
C1126 C1120 1.465 . S
C1126 C1125 1.396 . S
C1126 C1127 1.399 . S
C1127 H1113 0.929 . S
C1127 C1126 1.399 . S
C1127 C1128 1.385 . S
C1128 H1114 0.931 . S
C1128 C1127 1.385 . S
C1128 C1129 1.389 . S
C1129 C1128 1.389 . S
C1129 C1130 1.387 . S
C1130 H1115 0.930 . S
C1130 C1125 1.390 . S
C1130 C1129 1.387 . S
H1131 C1143 0.930 . S
H1132 C1145 0.930 . S
H1133 C1146 0.930 . S
H1134 C1150 0.959 . S
H1135 C1150 0.959 . S
H1136 C1150 0.961 . S
H1137 C1151 0.960 . S
H1138 C1151 0.961 . S
H1139 C1151 0.959 . S
H1140 C1154 0.929 . S
H1141 C1155 0.931 . S
H1142 C1157 0.930 . S
C1143 H1131 0.930 . S
C1143 C1144 1.399 1_565 S
C1143 C1148 1.399 . S
C1144 C1143 1.399 1_545 S
C1144 C1145 1.376 . S
C1145 H1132 0.930 . S
C1145 C1144 1.376 . S
C1145 C1146 1.388 . S
C1146 H1133 0.930 . S
C1146 C1145 1.388 . S
C1146 C1147 1.390 . S
C1147 C1146 1.390 . S
C1147 C1148 1.394 1_545 S
C1147 C1153 1.465 . S
C1148 C1143 1.399 . S
C1148 C1147 1.394 1_565 S
C1148 C1149 1.516 . S
C1149 C1148 1.516 . S
C1149 C1150 1.502 . S
C1149 C1151 1.561 . S
C1149 C1152 1.526 . S
C1150 H1134 0.959 . S
C1150 H1135 0.959 . S
C1150 H1136 0.961 . S
C1150 C1149 1.502 . S
C1151 H1137 0.960 . S
C1151 H1138 0.961 . S
C1151 H1139 0.959 . S
C1151 C1149 1.561 . S
C1152 C1149 1.526 . S
C1152 C1153 1.396 1_565 S
C1152 C1157 1.390 . S
C1153 C1147 1.465 . S
C1153 C1152 1.396 1_545 S
C1153 C1154 1.399 . S
C1154 H1140 0.929 . S
C1154 C1153 1.399 . S
C1154 C1155 1.385 . S
C1155 H1141 0.931 . S
C1155 C1154 1.385 . S
C1155 C1156 1.389 1_545 S
C1156 C1155 1.389 1_565 S
C1156 C1157 1.387 . S
C1157 H1142 0.930 . S
C1157 C1152 1.390 . S
C1157 C1156 1.387 . S
H1158 C1170 0.930 . S
H1159 C1172 0.930 . S
H1160 C1173 0.936 . S
H1161 C1177 0.959 . S
H1162 C1177 0.959 . S
H1163 C1177 0.961 . S
H1164 C1178 0.960 . S
H1165 C1178 0.961 . S
H1166 C1178 0.959 . S
H1167 C1181 0.929 . S
H1168 C1182 0.931 . S
H1169 C1184 0.930 . S
C1170 H1158 0.930 . S
C1170 C1171 1.399 . S
C1170 C1175 1.399 . S
C1171 C1170 1.399 . S
C1171 C1172 1.376 . S
C1172 H1159 0.930 . S
C1172 C1171 1.376 . S
C1172 C1173 1.382 1_554 S
C1173 H1160 0.936 . S
C1173 C1172 1.382 1_556 S
C1173 C1174 1.391 . S
C1174 C1173 1.391 . S
C1174 C1175 1.394 1_556 S
C1174 C1180 1.465 . S
C1175 C1170 1.399 . S
C1175 C1174 1.394 1_554 S
C1175 C1176 1.517 . S
C1176 C1175 1.517 . S
C1176 C1177 1.507 . S
C1176 C1178 1.556 1_554 S
C1176 C1179 1.525 1_554 S
C1177 H1161 0.959 . S
C1177 H1162 0.959 . S
C1177 H1163 0.961 . S
C1177 C1176 1.507 . S
C1178 H1164 0.960 . S
C1178 H1165 0.961 . S
C1178 H1166 0.959 . S
C1178 C1176 1.556 1_556 S
C1179 C1176 1.525 1_556 S
C1179 C1180 1.396 . S
C1179 C1184 1.390 . S
C1180 C1174 1.465 . S
C1180 C1179 1.396 . S
C1180 C1181 1.399 . S
C1181 H1167 0.929 . S
C1181 C1180 1.399 . S
C1181 C1182 1.385 . S
C1182 H1168 0.931 . S
C1182 C1181 1.385 . S
C1182 C1183 1.389 . S
C1183 C1182 1.389 . S
C1183 C1184 1.387 . S
C1184 H1169 0.930 . S
C1184 C1179 1.390 . S
C1184 C1183 1.387 . S
H1185 C1197 0.930 . S
H1186 C1199 0.930 . S
H1187 C1200 0.930 . S
H1188 C1204 0.959 . S
H1189 C1204 0.959 . S
H1190 C1204 0.961 . S
H1191 C1205 0.960 . S
H1192 C1205 0.961 . S
H1193 C1205 0.959 . S
H1194 C1208 0.929 . S
H1195 C1209 0.931 . S
H1196 C1211 0.930 . S
C1197 H1185 0.930 . S
C1197 C1198 1.399 . S
C1197 C1202 1.399 . S
C1198 C1197 1.399 . S
C1198 C1199 1.376 . S
C1199 H1186 0.930 . S
C1199 C1198 1.376 . S
C1199 C1200 1.388 . S
C1200 H1187 0.930 . S
C1200 C1199 1.388 . S
C1200 C1201 1.390 . S
C1201 C1200 1.390 . S
C1201 C1202 1.394 . S
C1201 C1207 1.465 . S
C1202 C1197 1.399 . S
C1202 C1201 1.394 . S
C1202 C1203 1.516 . S
C1203 C1202 1.516 . S
C1203 C1204 1.502 . S
C1203 C1205 1.561 . S
C1203 C1206 1.526 . S
C1204 H1188 0.959 . S
C1204 H1189 0.959 . S
C1204 H1190 0.961 . S
C1204 C1203 1.502 . S
C1205 H1191 0.960 . S
C1205 H1192 0.961 . S
C1205 H1193 0.959 . S
C1205 C1203 1.561 . S
C1206 C1203 1.526 . S
C1206 C1207 1.396 . S
C1206 C1211 1.390 . S
C1207 C1201 1.465 . S
C1207 C1206 1.396 . S
C1207 C1208 1.399 . S
C1208 H1194 0.929 . S
C1208 C1207 1.399 . S
C1208 C1209 1.385 . S
C1209 H1195 0.931 . S
C1209 C1208 1.385 . S
C1209 C1210 1.389 . S
C1210 C1209 1.389 . S
C1210 C1211 1.387 . S
C1211 H1196 0.930 . S
C1211 C1206 1.390 . S
C1211 C1210 1.387 . S
H1212 C1224 0.930 . S
H1213 C1226 0.930 . S
H1214 C1227 0.930 . S
H1215 C1231 0.959 . S
H1216 C1231 0.959 . S
H1217 C1231 0.961 . S
H1218 C1232 0.960 . S
H1219 C1232 0.961 . S
H1220 C1232 0.959 . S
H1221 C1235 0.929 . S
H1222 C1236 0.931 . S
H1223 C1238 0.930 . S
C1224 H1212 0.930 . S
C1224 C1225 1.399 . S
C1224 C1229 1.399 . S
C1225 C1224 1.399 . S
C1225 C1226 1.376 . S
C1226 H1213 0.930 . S
C1226 C1225 1.376 . S
C1226 C1227 1.388 . S
C1227 H1214 0.930 . S
C1227 C1226 1.388 . S
C1227 C1228 1.390 . S
C1228 C1227 1.390 . S
C1228 C1229 1.394 . S
C1228 C1234 1.465 . S
C1229 C1224 1.399 . S
C1229 C1228 1.394 . S
C1229 C1230 1.516 . S
C1230 C1229 1.516 . S
C1230 C1231 1.502 . S
C1230 C1232 1.561 . S
C1230 C1233 1.526 . S
C1231 H1215 0.959 . S
C1231 H1216 0.959 . S
C1231 H1217 0.961 . S
C1231 C1230 1.502 . S
C1232 H1218 0.960 . S
C1232 H1219 0.961 . S
C1232 H1220 0.959 . S
C1232 C1230 1.561 . S
C1233 C1230 1.526 . S
C1233 C1234 1.396 . S
C1233 C1238 1.390 . S
C1234 C1228 1.465 . S
C1234 C1233 1.396 . S
C1234 C1235 1.399 . S
C1235 H1221 0.929 . S
C1235 C1234 1.399 . S
C1235 C1236 1.385 . S
C1236 H1222 0.931 . S
C1236 C1235 1.385 . S
C1236 C1237 1.389 . S
C1237 C1236 1.389 . S
C1237 C1238 1.387 . S
C1238 H1223 0.930 . S
C1238 C1233 1.390 . S
C1238 C1237 1.387 . S
H1239 C1251 0.930 . S
H1240 C1253 0.930 . S
H1241 C1254 0.930 . S
H1242 C1258 0.959 . S
H1243 C1258 0.959 . S
H1244 C1258 0.961 . S
H1245 C1259 0.960 . S
H1246 C1259 0.961 . S
H1247 C1259 0.959 . S
H1248 C1262 0.929 . S
H1249 C1263 0.931 . S
H1250 C1265 0.930 . S
C1251 H1239 0.930 . S
C1251 C1252 1.399 . S
C1251 C1256 1.399 . S
C1252 C1251 1.399 . S
C1252 C1253 1.376 . S
C1253 H1240 0.930 . S
C1253 C1252 1.376 . S
C1253 C1254 1.388 . S
C1254 H1241 0.930 . S
C1254 C1253 1.388 . S
C1254 C1255 1.390 . S
C1255 C1254 1.390 . S
C1255 C1256 1.394 . S
C1255 C1261 1.465 . S
C1256 C1251 1.399 . S
C1256 C1255 1.394 . S
C1256 C1257 1.516 . S
C1257 C1256 1.516 . S
C1257 C1258 1.502 . S
C1257 C1259 1.561 . S
C1257 C1260 1.526 . S
C1258 H1242 0.959 . S
C1258 H1243 0.959 . S
C1258 H1244 0.961 . S
C1258 C1257 1.502 . S
C1259 H1245 0.960 . S
C1259 H1246 0.961 . S
C1259 H1247 0.959 . S
C1259 C1257 1.561 . S
C1260 C1257 1.526 . S
C1260 C1261 1.396 . S
C1260 C1265 1.390 . S
C1261 C1255 1.465 . S
C1261 C1260 1.396 . S
C1261 C1262 1.399 . S
C1262 H1248 0.929 . S
C1262 C1261 1.399 . S
C1262 C1263 1.385 . S
C1263 H1249 0.931 . S
C1263 C1262 1.385 . S
C1263 C1264 1.389 . S
C1264 C1263 1.389 . S
C1264 C1265 1.387 . S
C1265 H1250 0.930 . S
C1265 C1260 1.390 . S
C1265 C1264 1.387 . S
H1266 C1278 0.930 . S
H1267 C1280 0.930 . S
H1268 C1281 0.930 . S
H1269 C1285 0.959 . S
H1270 C1285 0.959 . S
H1271 C1285 0.961 . S
H1272 C1286 0.960 . S
H1273 C1286 0.961 . S
H1274 C1286 0.959 . S
H1275 C1289 0.929 . S
H1276 C1290 0.931 . S
H1277 C1292 0.930 . S
C1278 H1266 0.930 . S
C1278 C1279 1.399 1_565 S
C1278 C1283 1.399 . S
C1279 C1278 1.399 1_545 S
C1279 C1280 1.376 . S
C1280 H1267 0.930 . S
C1280 C1279 1.376 . S
C1280 C1281 1.388 . S
C1281 H1268 0.930 . S
C1281 C1280 1.388 . S
C1281 C1282 1.390 . S
C1282 C1281 1.390 . S
C1282 C1283 1.394 1_545 S
C1282 C1288 1.465 . S
C1283 C1278 1.399 . S
C1283 C1282 1.394 1_565 S
C1283 C1284 1.516 . S
C1284 C1283 1.516 . S
C1284 C1285 1.502 . S
C1284 C1286 1.561 . S
C1284 C1287 1.526 . S
C1285 H1269 0.959 . S
C1285 H1270 0.959 . S
C1285 H1271 0.961 . S
C1285 C1284 1.502 . S
C1286 H1272 0.960 . S
C1286 H1273 0.961 . S
C1286 H1274 0.959 . S
C1286 C1284 1.561 . S
C1287 C1284 1.526 . S
C1287 C1288 1.396 1_565 S
C1287 C1292 1.390 . S
C1288 C1282 1.465 . S
C1288 C1287 1.396 1_545 S
C1288 C1289 1.399 . S
C1289 H1275 0.929 . S
C1289 C1288 1.399 . S
C1289 C1290 1.385 . S
C1290 H1276 0.931 . S
C1290 C1289 1.385 . S
C1290 C1291 1.389 1_545 S
C1291 C1290 1.389 1_565 S
C1291 C1292 1.387 . S
C1292 H1277 0.930 . S
C1292 C1287 1.390 . S
C1292 C1291 1.387 . S
H1293 C1305 0.930 . S
H1294 C1307 0.927 1_556 S
H1295 C1308 0.930 . S
H1296 C1312 0.959 . S
H1297 C1312 0.959 . S
H1298 C1312 0.961 . S
H1299 C1313 0.960 . S
H1300 C1313 0.961 . S
H1301 C1313 0.959 . S
H1302 C1316 0.929 . S
H1303 C1317 0.931 . S
H1304 C1319 0.930 . S
C1305 H1293 0.930 . S
C1305 C1306 1.399 . S
C1305 C1310 1.399 . S
C1306 C1305 1.399 . S
C1306 C1307 1.376 . S
C1307 H1294 0.927 1_554 S
C1307 C1306 1.376 . S
C1307 C1308 1.388 1_554 S
C1308 H1295 0.930 . S
C1308 C1307 1.388 1_556 S
C1308 C1309 1.390 . S
C1309 C1308 1.390 . S
C1309 C1310 1.394 1_556 S
C1309 C1315 1.465 . S
C1310 C1305 1.399 . S
C1310 C1309 1.394 1_554 S
C1310 C1311 1.516 . S
C1311 C1310 1.516 . S
C1311 C1312 1.502 . S
C1311 C1313 1.561 1_554 S
C1311 C1314 1.526 1_554 S
C1312 H1296 0.959 . S
C1312 H1297 0.959 . S
C1312 H1298 0.961 . S
C1312 C1311 1.502 . S
C1313 H1299 0.960 . S
C1313 H1300 0.961 . S
C1313 H1301 0.959 . S
C1313 C1311 1.561 1_556 S
C1314 C1311 1.526 1_556 S
C1314 C1315 1.396 . S
C1314 C1319 1.390 . S
C1315 C1309 1.465 . S
C1315 C1314 1.396 . S
C1315 C1316 1.399 . S
C1316 H1302 0.929 . S
C1316 C1315 1.399 . S
C1316 C1317 1.385 . S
C1317 H1303 0.931 . S
C1317 C1316 1.385 . S
C1317 C1318 1.389 . S
C1318 C1317 1.389 . S
C1318 C1319 1.387 . S
C1319 H1304 0.930 . S
C1319 C1314 1.390 . S
C1319 C1318 1.387 . S
H1320 C1332 0.930 . S
H1321 C1334 0.930 . S
H1322 C1335 0.930 . S
H1323 C1339 0.959 . S
H1324 C1339 0.959 . S
H1325 C1339 0.961 . S
H1326 C1340 0.960 . S
H1327 C1340 0.961 . S
H1328 C1340 0.959 . S
H1329 C1343 0.929 . S
H1330 C1344 0.931 . S
H1331 C1346 0.930 . S
C1332 H1320 0.930 . S
C1332 C1333 1.399 . S
C1332 C1337 1.399 . S
C1333 C1332 1.399 . S
C1333 C1334 1.376 . S
C1334 H1321 0.930 . S
C1334 C1333 1.376 . S
C1334 C1335 1.388 . S
C1335 H1322 0.930 . S
C1335 C1334 1.388 . S
C1335 C1336 1.390 . S
C1336 C1335 1.390 . S
C1336 C1337 1.394 . S
C1336 C1342 1.465 . S
C1337 C1332 1.399 . S
C1337 C1336 1.394 . S
C1337 C1338 1.516 . S
C1338 C1337 1.516 . S
C1338 C1339 1.502 . S
C1338 C1340 1.561 . S
C1338 C1341 1.526 . S
C1339 H1323 0.959 . S
C1339 H1324 0.959 . S
C1339 H1325 0.961 . S
C1339 C1338 1.502 . S
C1340 H1326 0.960 . S
C1340 H1327 0.961 . S
C1340 H1328 0.959 . S
C1340 C1338 1.561 . S
C1341 C1338 1.526 . S
C1341 C1342 1.396 . S
C1341 C1346 1.390 . S
C1342 C1336 1.465 . S
C1342 C1341 1.396 . S
C1342 C1343 1.399 . S
C1343 H1329 0.929 . S
C1343 C1342 1.399 . S
C1343 C1344 1.385 . S
C1344 H1330 0.931 . S
C1344 C1343 1.385 . S
C1344 C1345 1.389 . S
C1345 C1344 1.389 . S
C1345 C1346 1.387 . S
C1346 H1331 0.930 . S
C1346 C1341 1.390 . S
C1346 C1345 1.387 . S
H1347 C1359 0.930 . S
H1348 C1361 0.930 . S
H1349 C1362 0.930 . S
H1350 C1366 0.959 . S
H1351 C1366 0.959 . S
H1352 C1366 0.961 . S
H1353 C1367 0.960 . S
H1354 C1367 0.961 . S
H1355 C1367 0.959 . S
H1356 C1370 0.929 . S
H1357 C1371 0.931 . S
H1358 C1373 0.930 . S
C1359 H1347 0.930 . S
C1359 C1360 1.399 . S
C1359 C1364 1.399 . S
C1360 C1359 1.399 . S
C1360 C1361 1.376 . S
C1361 H1348 0.930 . S
C1361 C1360 1.376 . S
C1361 C1362 1.388 . S
C1362 H1349 0.930 . S
C1362 C1361 1.388 . S
C1362 C1363 1.390 . S
C1363 C1362 1.390 . S
C1363 C1364 1.394 . S
C1363 C1369 1.465 . S
C1364 C1359 1.399 . S
C1364 C1363 1.394 . S
C1364 C1365 1.516 . S
C1365 C1364 1.516 . S
C1365 C1366 1.502 . S
C1365 C1367 1.561 . S
C1365 C1368 1.526 . S
C1366 H1350 0.959 . S
C1366 H1351 0.959 . S
C1366 H1352 0.961 . S
C1366 C1365 1.502 . S
C1367 H1353 0.960 . S
C1367 H1354 0.961 . S
C1367 H1355 0.959 . S
C1367 C1365 1.561 . S
C1368 C1365 1.526 . S
C1368 C1369 1.396 . S
C1368 C1373 1.390 . S
C1369 C1363 1.465 . S
C1369 C1368 1.396 . S
C1369 C1370 1.399 . S
C1370 H1356 0.929 . S
C1370 C1369 1.399 . S
C1370 C1371 1.385 . S
C1371 H1357 0.931 . S
C1371 C1370 1.385 . S
C1371 C1372 1.389 . S
C1372 C1371 1.389 . S
C1372 C1373 1.387 . S
C1373 H1358 0.930 . S
C1373 C1368 1.390 . S
C1373 C1372 1.387 . S
H1374 C1386 0.930 . S
H1375 C1388 0.930 . S
H1376 C1389 0.930 . S
H1377 C1393 0.959 . S
H1378 C1393 0.959 . S
H1379 C1393 0.961 . S
H1380 C1394 0.960 . S
H1381 C1394 0.961 . S
H1382 C1394 0.959 . S
H1383 C1397 0.929 . S
H1384 C1398 0.931 . S
H1385 C1400 0.930 . S
C1386 H1374 0.930 . S
C1386 C1387 1.399 . S
C1386 C1391 1.399 . S
C1387 C1386 1.399 . S
C1387 C1388 1.376 . S
C1388 H1375 0.930 . S
C1388 C1387 1.376 . S
C1388 C1389 1.388 . S
C1389 H1376 0.930 . S
C1389 C1388 1.388 . S
C1389 C1390 1.390 . S
C1390 C1389 1.390 . S
C1390 C1391 1.394 . S
C1390 C1396 1.465 . S
C1391 C1386 1.399 . S
C1391 C1390 1.394 . S
C1391 C1392 1.516 . S
C1392 C1391 1.516 . S
C1392 C1393 1.502 . S
C1392 C1394 1.561 . S
C1392 C1395 1.526 . S
C1393 H1377 0.959 . S
C1393 H1378 0.959 . S
C1393 H1379 0.961 . S
C1393 C1392 1.502 . S
C1394 H1380 0.960 . S
C1394 H1381 0.961 . S
C1394 H1382 0.959 . S
C1394 C1392 1.561 . S
C1395 C1392 1.526 . S
C1395 C1396 1.396 . S
C1395 C1400 1.390 . S
C1396 C1390 1.465 . S
C1396 C1395 1.396 . S
C1396 C1397 1.399 . S
C1397 H1383 0.929 . S
C1397 C1396 1.399 . S
C1397 C1398 1.385 . S
C1398 H1384 0.931 . S
C1398 C1397 1.385 . S
C1398 C1399 1.389 . S
C1399 C1398 1.389 . S
C1399 C1400 1.387 . S
C1400 H1385 0.930 . S
C1400 C1395 1.390 . S
C1400 C1399 1.387 . S
H1401 C1413 0.930 . S
H1402 C1415 0.930 . S
H1403 C1416 0.930 . S
H1404 C1420 0.959 . S
H1405 C1420 0.959 . S
H1406 C1420 0.961 . S
H1407 C1421 0.960 . S
H1408 C1421 0.961 . S
H1409 C1421 0.959 . S
H1410 C1424 0.929 . S
H1411 C1425 0.931 . S
H1412 C1427 0.930 . S
C1413 H1401 0.930 . S
C1413 C1414 1.399 . S
C1413 C1418 1.399 . S
C1414 C1413 1.399 . S
C1414 C1415 1.376 . S
C1415 H1402 0.930 . S
C1415 C1414 1.376 . S
C1415 C1416 1.388 . S
C1416 H1403 0.930 . S
C1416 C1415 1.388 . S
C1416 C1417 1.390 . S
C1417 C1416 1.390 . S
C1417 C1418 1.394 . S
C1417 C1423 1.465 . S
C1418 C1413 1.399 . S
C1418 C1417 1.394 . S
C1418 C1419 1.516 . S
C1419 C1418 1.516 . S
C1419 C1420 1.502 . S
C1419 C1421 1.561 . S
C1419 C1422 1.526 . S
C1420 H1404 0.959 . S
C1420 H1405 0.959 . S
C1420 H1406 0.961 . S
C1420 C1419 1.502 . S
C1421 H1407 0.960 . S
C1421 H1408 0.961 . S
C1421 H1409 0.959 . S
C1421 C1419 1.561 . S
C1422 C1419 1.526 . S
C1422 C1423 1.396 . S
C1422 C1427 1.390 . S
C1423 C1417 1.465 . S
C1423 C1422 1.396 . S
C1423 C1424 1.399 . S
C1424 H1410 0.929 . S
C1424 C1423 1.399 . S
C1424 C1425 1.385 . S
C1425 H1411 0.931 . S
C1425 C1424 1.385 . S
C1425 C1426 1.389 . S
C1426 C1425 1.389 . S
C1426 C1427 1.387 . S
C1427 H1412 0.930 . S
C1427 C1422 1.390 . S
C1427 C1426 1.387 . S
H1428 C1440 0.930 . S
H1429 C1442 0.930 . S
H1430 C1443 0.930 . S
H1431 C1447 0.959 . S
H1432 C1447 0.959 . S
H1433 C1447 0.961 . S
H1434 C1448 0.960 . S
H1435 C1448 0.961 . S
H1436 C1448 0.959 . S
H1437 C1451 0.929 . S
H1438 C1452 0.931 . S
H1439 C1454 0.930 . S
C1440 H1428 0.930 . S
C1440 C1441 1.399 . S
C1440 C1445 1.399 . S
C1441 C1440 1.399 . S
C1441 C1442 1.376 . S
C1442 H1429 0.930 . S
C1442 C1441 1.376 . S
C1442 C1443 1.388 . S
C1443 H1430 0.930 . S
C1443 C1442 1.388 . S
C1443 C1444 1.390 . S
C1444 C1443 1.390 . S
C1444 C1445 1.394 . S
C1444 C1450 1.465 . S
C1445 C1440 1.399 . S
C1445 C1444 1.394 . S
C1445 C1446 1.516 . S
C1446 C1445 1.516 . S
C1446 C1447 1.502 . S
C1446 C1448 1.561 . S
C1446 C1449 1.526 . S
C1447 H1431 0.959 . S
C1447 H1432 0.959 . S
C1447 H1433 0.961 . S
C1447 C1446 1.502 . S
C1448 H1434 0.960 . S
C1448 H1435 0.961 . S
C1448 H1436 0.959 . S
C1448 C1446 1.561 . S
C1449 C1446 1.526 . S
C1449 C1450 1.396 . S
C1449 C1454 1.390 . S
C1450 C1444 1.465 . S
C1450 C1449 1.396 . S
C1450 C1451 1.399 . S
C1451 H1437 0.929 . S
C1451 C1450 1.399 . S
C1451 C1452 1.385 . S
C1452 H1438 0.931 . S
C1452 C1451 1.385 . S
C1452 C1453 1.389 . S
C1453 C1452 1.389 . S
C1453 C1454 1.387 . S
C1454 H1439 0.930 . S
C1454 C1449 1.390 . S
C1454 C1453 1.387 . S
H1455 C1467 0.930 . S
H1456 C1469 0.930 . S
H1457 C1470 0.930 . S
H1458 C1474 0.959 . S
H1459 C1474 0.959 . S
H1460 C1474 0.961 . S
H1461 C1475 0.960 . S
H1462 C1475 0.961 . S
H1463 C1475 0.959 . S
H1464 C1478 0.929 . S
H1465 C1479 0.931 . S
H1466 C1481 0.930 . S
C1467 H1455 0.930 . S
C1467 C1468 1.399 . S
C1467 C1472 1.399 . S
C1468 C1467 1.399 . S
C1468 C1469 1.376 . S
C1469 H1456 0.930 . S
C1469 C1468 1.376 . S
C1469 C1470 1.388 . S
C1470 H1457 0.930 . S
C1470 C1469 1.388 . S
C1470 C1471 1.390 . S
C1471 C1470 1.390 . S
C1471 C1472 1.394 . S
C1471 C1477 1.465 . S
C1472 C1467 1.399 . S
C1472 C1471 1.394 . S
C1472 C1473 1.516 . S
C1473 C1472 1.516 . S
C1473 C1474 1.502 . S
C1473 C1475 1.561 . S
C1473 C1476 1.526 . S
C1474 H1458 0.959 . S
C1474 H1459 0.959 . S
C1474 H1460 0.961 . S
C1474 C1473 1.502 . S
C1475 H1461 0.960 . S
C1475 H1462 0.961 . S
C1475 H1463 0.959 . S
C1475 C1473 1.561 . S
C1476 C1473 1.526 . S
C1476 C1477 1.396 . S
C1476 C1481 1.390 . S
C1477 C1471 1.465 . S
C1477 C1476 1.396 . S
C1477 C1478 1.399 . S
C1478 H1464 0.929 . S
C1478 C1477 1.399 . S
C1478 C1479 1.385 . S
C1479 H1465 0.931 . S
C1479 C1478 1.385 . S
C1479 C1480 1.389 . S
C1480 C1479 1.389 . S
C1480 C1481 1.387 . S
C1481 H1466 0.930 . S
C1481 C1476 1.390 . S
C1481 C1480 1.387 . S
H1482 C1494 0.930 . S
H1483 C1496 0.930 . S
H1484 C1497 0.930 . S
H1485 C1501 0.959 . S
H1486 C1501 0.959 . S
H1487 C1501 0.961 . S
H1488 C1502 0.960 . S
H1489 C1502 0.961 . S
H1490 C1502 0.959 . S
H1491 C1505 0.929 . S
H1492 C1506 0.931 . S
H1493 C1508 0.930 . S
C1494 H1482 0.930 . S
C1494 C1495 1.399 . S
C1494 C1499 1.399 . S
C1495 C1494 1.399 . S
C1495 C1496 1.376 . S
C1496 H1483 0.930 . S
C1496 C1495 1.376 . S
C1496 C1497 1.388 . S
C1497 H1484 0.930 . S
C1497 C1496 1.388 . S
C1497 C1498 1.390 . S
C1498 C1497 1.390 . S
C1498 C1499 1.394 . S
C1498 C1504 1.465 . S
C1499 C1494 1.399 . S
C1499 C1498 1.394 . S
C1499 C1500 1.516 . S
C1500 C1499 1.516 . S
C1500 C1501 1.502 . S
C1500 C1502 1.561 . S
C1500 C1503 1.526 . S
C1501 H1485 0.959 . S
C1501 H1486 0.959 . S
C1501 H1487 0.961 . S
C1501 C1500 1.502 . S
C1502 H1488 0.960 . S
C1502 H1489 0.961 . S
C1502 H1490 0.959 . S
C1502 C1500 1.561 . S
C1503 C1500 1.526 . S
C1503 C1504 1.396 . S
C1503 C1508 1.390 . S
C1504 C1498 1.465 . S
C1504 C1503 1.396 . S
C1504 C1505 1.399 . S
C1505 H1491 0.929 . S
C1505 C1504 1.399 . S
C1505 C1506 1.385 . S
C1506 H1492 0.931 . S
C1506 C1505 1.385 . S
C1506 C1507 1.389 . S
C1507 C1506 1.389 . S
C1507 C1508 1.387 . S
C1508 H1493 0.930 . S
C1508 C1503 1.390 . S
C1508 C1507 1.387 . S
H1509 C1521 0.930 . S
H1510 C1523 0.930 . S
H1511 C1524 0.930 . S
H1512 C1528 0.959 . S
H1513 C1528 0.959 . S
H1514 C1528 0.961 . S
H1515 C1529 0.960 . S
H1516 C1529 0.961 . S
H1517 C1529 0.959 . S
H1518 C1532 0.929 . S
H1519 C1533 0.931 . S
H1520 C1535 0.930 . S
C1521 H1509 0.930 . S
C1521 C1522 1.399 . S
C1521 C1526 1.399 . S
C1522 C1521 1.399 . S
C1522 C1523 1.376 . S
C1523 H1510 0.930 . S
C1523 C1522 1.376 . S
C1523 C1524 1.388 . S
C1524 H1511 0.930 . S
C1524 C1523 1.388 . S
C1524 C1525 1.390 . S
C1525 C1524 1.390 . S
C1525 C1526 1.394 . S
C1525 C1531 1.465 . S
C1526 C1521 1.399 . S
C1526 C1525 1.394 . S
C1526 C1527 1.516 . S
C1527 C1526 1.516 . S
C1527 C1528 1.502 . S
C1527 C1529 1.561 . S
C1527 C1530 1.526 . S
C1528 H1512 0.959 . S
C1528 H1513 0.959 . S
C1528 H1514 0.961 . S
C1528 C1527 1.502 . S
C1529 H1515 0.960 . S
C1529 H1516 0.961 . S
C1529 H1517 0.959 . S
C1529 C1527 1.561 . S
C1530 C1527 1.526 . S
C1530 C1531 1.396 . S
C1530 C1535 1.390 . S
C1531 C1525 1.465 . S
C1531 C1530 1.396 . S
C1531 C1532 1.399 . S
C1532 H1518 0.929 . S
C1532 C1531 1.399 . S
C1532 C1533 1.385 . S
C1533 H1519 0.931 . S
C1533 C1532 1.385 . S
C1533 C1534 1.389 . S
C1534 C1533 1.389 . S
C1534 C1535 1.387 . S
C1535 H1520 0.930 . S
C1535 C1530 1.390 . S
C1535 C1534 1.387 . S
H1536 C1548 0.930 . S
H1537 C1550 0.930 . S
H1538 C1551 0.930 . S
H1539 C1555 0.959 . S
H1540 C1555 0.959 . S
H1541 C1555 0.961 . S
H1542 C1556 0.960 . S
H1543 C1556 0.961 . S
H1544 C1556 0.959 . S
H1545 C1559 0.929 . S
H1546 C1560 0.931 . S
H1547 C1562 0.930 . S
C1548 H1536 0.930 . S
C1548 C1549 1.399 . S
C1548 C1553 1.399 . S
C1549 C1548 1.399 . S
C1549 C1550 1.376 . S
C1550 H1537 0.930 . S
C1550 C1549 1.376 . S
C1550 C1551 1.388 . S
C1551 H1538 0.930 . S
C1551 C1550 1.388 . S
C1551 C1552 1.390 . S
C1552 C1551 1.390 . S
C1552 C1553 1.394 . S
C1552 C1558 1.465 . S
C1553 C1548 1.399 . S
C1553 C1552 1.394 . S
C1553 C1554 1.516 . S
C1554 C1553 1.516 . S
C1554 C1555 1.502 . S
C1554 C1556 1.561 . S
C1554 C1557 1.526 . S
C1555 H1539 0.959 . S
C1555 H1540 0.959 . S
C1555 H1541 0.961 . S
C1555 C1554 1.502 . S
C1556 H1542 0.960 . S
C1556 H1543 0.961 . S
C1556 H1544 0.959 . S
C1556 C1554 1.561 . S
C1557 C1554 1.526 . S
C1557 C1558 1.396 . S
C1557 C1562 1.390 . S
C1558 C1552 1.465 . S
C1558 C1557 1.396 . S
C1558 C1559 1.399 . S
C1559 H1545 0.929 . S
C1559 C1558 1.399 . S
C1559 C1560 1.385 . S
C1560 H1546 0.931 . S
C1560 C1559 1.385 . S
C1560 C1561 1.389 . S
C1561 C1560 1.389 . S
C1561 C1562 1.387 . S
C1562 H1547 0.930 . S
C1562 C1557 1.390 . S
C1562 C1561 1.387 . S
H1563 C1575 0.930 . S
H1564 C1577 0.930 . S
H1565 C1578 0.930 . S
H1566 C1582 0.959 . S
H1567 C1582 0.959 . S
H1568 C1582 0.961 . S
H1569 C1583 0.960 . S
H1570 C1583 0.961 . S
H1571 C1583 0.959 . S
H1572 C1586 0.929 . S
H1573 C1587 0.931 . S
H1574 C1589 0.930 . S
C1575 H1563 0.930 . S
C1575 C1576 1.399 . S
C1575 C1580 1.399 . S
C1576 C1575 1.399 . S
C1576 C1577 1.376 . S
C1577 H1564 0.930 . S
C1577 C1576 1.376 . S
C1577 C1578 1.388 . S
C1578 H1565 0.930 . S
C1578 C1577 1.388 . S
C1578 C1579 1.390 . S
C1579 C1578 1.390 . S
C1579 C1580 1.394 . S
C1579 C1585 1.465 . S
C1580 C1575 1.399 . S
C1580 C1579 1.394 . S
C1580 C1581 1.516 . S
C1581 C1580 1.516 . S
C1581 C1582 1.502 . S
C1581 C1583 1.561 . S
C1581 C1584 1.526 . S
C1582 H1566 0.959 . S
C1582 H1567 0.959 . S
C1582 H1568 0.961 . S
C1582 C1581 1.502 . S
C1583 H1569 0.960 . S
C1583 H1570 0.961 . S
C1583 H1571 0.959 . S
C1583 C1581 1.561 . S
C1584 C1581 1.526 . S
C1584 C1585 1.396 . S
C1584 C1589 1.390 . S
C1585 C1579 1.465 . S
C1585 C1584 1.396 . S
C1585 C1586 1.399 . S
C1586 H1572 0.929 . S
C1586 C1585 1.399 . S
C1586 C1587 1.385 . S
C1587 H1573 0.931 . S
C1587 C1586 1.385 . S
C1587 C1588 1.389 . S
C1588 C1587 1.389 . S
C1588 C1589 1.387 . S
C1589 H1574 0.930 . S
C1589 C1584 1.390 . S
C1589 C1588 1.387 . S
H1590 C1602 0.930 . S
H1591 C1604 0.930 . S
H1592 C1605 0.930 . S
H1593 C1609 0.959 . S
H1594 C1609 0.959 . S
H1595 C1609 0.961 . S
H1596 C1610 0.960 . S
H1597 C1610 0.961 . S
H1598 C1610 0.959 . S
H1599 C1613 0.929 . S
H1600 C1614 0.931 . S
H1601 C1616 0.930 . S
C1602 H1590 0.930 . S
C1602 C1603 1.399 . S
C1602 C1607 1.399 . S
C1603 C1602 1.399 . S
C1603 C1604 1.376 . S
C1604 H1591 0.930 . S
C1604 C1603 1.376 . S
C1604 C1605 1.388 . S
C1605 H1592 0.930 . S
C1605 C1604 1.388 . S
C1605 C1606 1.390 . S
C1606 C1605 1.390 . S
C1606 C1607 1.394 . S
C1606 C1612 1.465 . S
C1607 C1602 1.399 . S
C1607 C1606 1.394 . S
C1607 C1608 1.516 . S
C1608 C1607 1.516 . S
C1608 C1609 1.502 . S
C1608 C1610 1.561 . S
C1608 C1611 1.526 . S
C1609 H1593 0.959 . S
C1609 H1594 0.959 . S
C1609 H1595 0.961 . S
C1609 C1608 1.502 . S
C1610 H1596 0.960 . S
C1610 H1597 0.961 . S
C1610 H1598 0.959 . S
C1610 C1608 1.561 . S
C1611 C1608 1.526 . S
C1611 C1612 1.396 . S
C1611 C1616 1.390 . S
C1612 C1606 1.465 . S
C1612 C1611 1.396 . S
C1612 C1613 1.399 . S
C1613 H1599 0.929 . S
C1613 C1612 1.399 . S
C1613 C1614 1.385 . S
C1614 H1600 0.931 . S
C1614 C1613 1.385 . S
C1614 C1615 1.389 . S
C1615 C1614 1.389 . S
C1615 C1616 1.387 . S
C1616 H1601 0.930 . S
C1616 C1611 1.390 . S
C1616 C1615 1.387 . S
H1617 C1629 0.930 . S
H1618 C1631 0.930 . S
H1619 C1632 0.930 . S
H1620 C1636 0.959 . S
H1621 C1636 0.959 . S
H1622 C1636 0.961 . S
H1623 C1637 0.960 . S
H1624 C1637 0.961 . S
H1625 C1637 0.959 . S
H1626 C1640 0.929 . S
H1627 C1641 0.931 . S
H1628 C1643 0.930 . S
C1629 H1617 0.930 . S
C1629 C1630 1.399 . S
C1629 C1634 1.399 . S
C1630 C1629 1.399 . S
C1630 C1631 1.376 . S
C1631 H1618 0.930 . S
C1631 C1630 1.376 . S
C1631 C1632 1.388 . S
C1632 H1619 0.930 . S
C1632 C1631 1.388 . S
C1632 C1633 1.390 . S
C1633 C1632 1.390 . S
C1633 C1634 1.394 . S
C1633 C1639 1.465 . S
C1634 C1629 1.399 . S
C1634 C1633 1.394 . S
C1634 C1635 1.516 . S
C1635 C1634 1.516 . S
C1635 C1636 1.502 . S
C1635 C1637 1.561 . S
C1635 C1638 1.526 . S
C1636 H1620 0.959 . S
C1636 H1621 0.959 . S
C1636 H1622 0.961 . S
C1636 C1635 1.502 . S
C1637 H1623 0.960 . S
C1637 H1624 0.961 . S
C1637 H1625 0.959 . S
C1637 C1635 1.561 . S
C1638 C1635 1.526 . S
C1638 C1639 1.396 . S
C1638 C1643 1.390 . S
C1639 C1633 1.465 . S
C1639 C1638 1.396 . S
C1639 C1640 1.399 . S
C1640 H1626 0.929 . S
C1640 C1639 1.399 . S
C1640 C1641 1.385 . S
C1641 H1627 0.931 . S
C1641 C1640 1.385 . S
C1641 C1642 1.389 . S
C1642 C1641 1.389 . S
C1642 C1643 1.387 . S
C1643 H1628 0.930 . S
C1643 C1638 1.390 . S
C1643 C1642 1.387 . S
H1644 C1656 0.930 . S
H1645 C1658 0.930 . S
H1646 C1659 0.930 . S
H1647 C1663 0.959 . S
H1648 C1663 0.959 . S
H1649 C1663 0.961 . S
H1650 C1664 0.960 . S
H1651 C1664 0.961 . S
H1652 C1664 0.959 . S
H1653 C1667 0.929 . S
H1654 C1668 0.931 . S
H1655 C1670 0.930 . S
C1656 H1644 0.930 . S
C1656 C1657 1.399 . S
C1656 C1661 1.399 . S
C1657 C1656 1.399 . S
C1657 C1658 1.376 . S
C1658 H1645 0.930 . S
C1658 C1657 1.376 . S
C1658 C1659 1.388 . S
C1659 H1646 0.930 . S
C1659 C1658 1.388 . S
C1659 C1660 1.390 . S
C1660 C1659 1.390 . S
C1660 C1661 1.394 . S
C1660 C1666 1.465 . S
C1661 C1656 1.399 . S
C1661 C1660 1.394 . S
C1661 C1662 1.516 . S
C1662 C1661 1.516 . S
C1662 C1663 1.502 . S
C1662 C1664 1.561 . S
C1662 C1665 1.526 . S
C1663 H1647 0.959 . S
C1663 H1648 0.959 . S
C1663 H1649 0.961 . S
C1663 C1662 1.502 . S
C1664 H1650 0.960 . S
C1664 H1651 0.961 . S
C1664 H1652 0.959 . S
C1664 C1662 1.561 . S
C1665 C1662 1.526 . S
C1665 C1666 1.396 . S
C1665 C1670 1.390 . S
C1666 C1660 1.465 . S
C1666 C1665 1.396 . S
C1666 C1667 1.399 . S
C1667 H1653 0.929 . S
C1667 C1666 1.399 . S
C1667 C1668 1.385 . S
C1668 H1654 0.931 . S
C1668 C1667 1.385 . S
C1668 C1669 1.389 . S
C1669 C1668 1.389 . S
C1669 C1670 1.387 . S
C1670 H1655 0.930 . S
C1670 C1665 1.390 . S
C1670 C1669 1.387 . S
H1671 C1683 0.930 . S
H1672 C1685 0.930 . S
H1673 C1686 0.930 . S
H1674 C1690 0.959 . S
H1675 C1690 0.959 . S
H1676 C1690 0.961 . S
H1677 C1691 0.960 . S
H1678 C1691 0.961 . S
H1679 C1691 0.959 . S
H1680 C1694 0.929 . S
H1681 C1695 0.931 . S
H1682 C1697 0.930 . S
C1683 H1671 0.930 . S
C1683 C1684 1.399 . S
C1683 C1688 1.399 . S
C1684 C1683 1.399 . S
C1684 C1685 1.376 . S
C1685 H1672 0.930 . S
C1685 C1684 1.376 . S
C1685 C1686 1.388 . S
C1686 H1673 0.930 . S
C1686 C1685 1.388 . S
C1686 C1687 1.390 . S
C1687 C1686 1.390 . S
C1687 C1688 1.394 . S
C1687 C1693 1.465 . S
C1688 C1683 1.399 . S
C1688 C1687 1.394 . S
C1688 C1689 1.516 . S
C1689 C1688 1.516 . S
C1689 C1690 1.502 . S
C1689 C1691 1.561 . S
C1689 C1692 1.526 . S
C1690 H1674 0.959 . S
C1690 H1675 0.959 . S
C1690 H1676 0.961 . S
C1690 C1689 1.502 . S
C1691 H1677 0.960 . S
C1691 H1678 0.961 . S
C1691 H1679 0.959 . S
C1691 C1689 1.561 . S
C1692 C1689 1.526 . S
C1692 C1693 1.396 . S
C1692 C1697 1.390 . S
C1693 C1687 1.465 . S
C1693 C1692 1.396 . S
C1693 C1694 1.399 . S
C1694 H1680 0.929 . S
C1694 C1693 1.399 . S
C1694 C1695 1.385 . S
C1695 H1681 0.931 . S
C1695 C1694 1.385 . S
C1695 C1696 1.389 . S
C1696 C1695 1.389 . S
C1696 C1697 1.387 . S
C1697 H1682 0.930 . S
C1697 C1692 1.390 . S
C1697 C1696 1.387 . S
H1698 C1710 0.930 . S
H1699 C1712 0.930 . S
H1700 C1713 0.930 . S
H1701 C1717 0.959 . S
H1702 C1717 0.959 . S
H1703 C1717 0.961 . S
H1704 C1718 0.960 . S
H1705 C1718 0.961 . S
H1706 C1718 0.959 . S
H1707 C1721 0.929 . S
H1708 C1722 0.931 . S
H1709 C1724 0.930 . S
C1710 H1698 0.930 . S
C1710 C1711 1.399 . S
C1710 C1715 1.399 . S
C1711 C1710 1.399 . S
C1711 C1712 1.376 . S
C1712 H1699 0.930 . S
C1712 C1711 1.376 . S
C1712 C1713 1.388 . S
C1713 H1700 0.930 . S
C1713 C1712 1.388 . S
C1713 C1714 1.390 . S
C1714 C1713 1.390 . S
C1714 C1715 1.394 . S
C1714 C1720 1.465 . S
C1715 C1710 1.399 . S
C1715 C1714 1.394 . S
C1715 C1716 1.516 . S
C1716 C1715 1.516 . S
C1716 C1717 1.502 . S
C1716 C1718 1.561 . S
C1716 C1719 1.526 . S
C1717 H1701 0.959 . S
C1717 H1702 0.959 . S
C1717 H1703 0.961 . S
C1717 C1716 1.502 . S
C1718 H1704 0.960 . S
C1718 H1705 0.961 . S
C1718 H1706 0.959 . S
C1718 C1716 1.561 . S
C1719 C1716 1.526 . S
C1719 C1720 1.396 . S
C1719 C1724 1.390 . S
C1720 C1714 1.465 . S
C1720 C1719 1.396 . S
C1720 C1721 1.399 . S
C1721 H1707 0.929 . S
C1721 C1720 1.399 . S
C1721 C1722 1.385 . S
C1722 H1708 0.931 . S
C1722 C1721 1.385 . S
C1722 C1723 1.389 . S
C1723 C1722 1.389 . S
C1723 C1724 1.387 . S
C1724 H1709 0.930 . S
C1724 C1719 1.390 . S
C1724 C1723 1.387 . S
H1725 C1737 0.930 . S
H1726 C1739 0.930 . S
H1727 C1740 0.930 . S
H1728 C1744 0.959 . S
H1729 C1744 0.959 . S
H1730 C1744 0.961 . S
H1731 C1745 0.960 . S
H1732 C1745 0.961 . S
H1733 C1745 0.959 . S
H1734 C1748 0.929 . S
H1735 C1749 0.931 . S
H1736 C1751 0.930 . S
C1737 H1725 0.930 . S
C1737 C1738 1.399 . S
C1737 C1742 1.399 . S
C1738 C1737 1.399 . S
C1738 C1739 1.376 . S
C1739 H1726 0.930 . S
C1739 C1738 1.376 . S
C1739 C1740 1.388 . S
C1740 H1727 0.930 . S
C1740 C1739 1.388 . S
C1740 C1741 1.390 . S
C1741 C1740 1.390 . S
C1741 C1742 1.394 . S
C1741 C1747 1.465 . S
C1742 C1737 1.399 . S
C1742 C1741 1.394 . S
C1742 C1743 1.516 . S
C1743 C1742 1.516 . S
C1743 C1744 1.502 . S
C1743 C1745 1.561 . S
C1743 C1746 1.526 . S
C1744 H1728 0.959 . S
C1744 H1729 0.959 . S
C1744 H1730 0.961 . S
C1744 C1743 1.502 . S
C1745 H1731 0.960 . S
C1745 H1732 0.961 . S
C1745 H1733 0.959 . S
C1745 C1743 1.561 . S
C1746 C1743 1.526 . S
C1746 C1747 1.396 . S
C1746 C1751 1.390 . S
C1747 C1741 1.465 . S
C1747 C1746 1.396 . S
C1747 C1748 1.399 . S
C1748 H1734 0.929 . S
C1748 C1747 1.399 . S
C1748 C1749 1.385 . S
C1749 H1735 0.931 . S
C1749 C1748 1.385 . S
C1749 C1750 1.389 . S
C1750 C1749 1.389 . S
C1750 C1751 1.387 . S
C1751 H1736 0.930 . S
C1751 C1746 1.390 . S
C1751 C1750 1.387 . S
H1752 C1764 0.930 . S
H1753 C1766 0.930 . S
H1754 C1767 0.930 . S
H1755 C1771 0.959 . S
H1756 C1771 0.959 . S
H1757 C1771 0.961 . S
H1758 C1772 0.960 . S
H1759 C1772 0.961 . S
H1760 C1772 0.959 . S
H1761 C1775 0.929 . S
H1762 C1776 0.931 . S
H1763 C1778 0.930 . S
C1764 H1752 0.930 . S
C1764 C1765 1.399 . S
C1764 C1769 1.399 . S
C1765 C1764 1.399 . S
C1765 C1766 1.376 . S
C1766 H1753 0.930 . S
C1766 C1765 1.376 . S
C1766 C1767 1.388 . S
C1767 H1754 0.930 . S
C1767 C1766 1.388 . S
C1767 C1768 1.390 . S
C1768 C1767 1.390 . S
C1768 C1769 1.394 . S
C1768 C1774 1.465 . S
C1769 C1764 1.399 . S
C1769 C1768 1.394 . S
C1769 C1770 1.516 . S
C1770 C1769 1.516 . S
C1770 C1771 1.502 . S
C1770 C1772 1.561 . S
C1770 C1773 1.526 . S
C1771 H1755 0.959 . S
C1771 H1756 0.959 . S
C1771 H1757 0.961 . S
C1771 C1770 1.502 . S
C1772 H1758 0.960 . S
C1772 H1759 0.961 . S
C1772 H1760 0.959 . S
C1772 C1770 1.561 . S
C1773 C1770 1.526 . S
C1773 C1774 1.396 . S
C1773 C1778 1.390 . S
C1774 C1768 1.465 . S
C1774 C1773 1.396 . S
C1774 C1775 1.399 . S
C1775 H1761 0.929 . S
C1775 C1774 1.399 . S
C1775 C1776 1.385 . S
C1776 H1762 0.931 . S
C1776 C1775 1.385 . S
C1776 C1777 1.389 . S
C1777 C1776 1.389 . S
C1777 C1778 1.387 . S
C1778 H1763 0.930 . S
C1778 C1773 1.390 . S
C1778 C1777 1.387 . S
H1779 C1791 0.930 . S
H1780 C1793 0.930 . S
H1781 C1794 0.930 . S
H1782 C1798 0.959 . S
H1783 C1798 0.959 . S
H1784 C1798 0.961 . S
H1785 C1799 0.960 . S
H1786 C1799 0.961 . S
H1787 C1799 0.959 . S
H1788 C1802 0.929 . S
H1789 C1803 0.931 . S
H1790 C1805 0.930 . S
C1791 H1779 0.930 . S
C1791 C1792 1.399 . S
C1791 C1796 1.399 . S
C1792 C1791 1.399 . S
C1792 C1793 1.376 . S
C1793 H1780 0.930 . S
C1793 C1792 1.376 . S
C1793 C1794 1.388 . S
C1794 H1781 0.930 . S
C1794 C1793 1.388 . S
C1794 C1795 1.390 . S
C1795 C1794 1.390 . S
C1795 C1796 1.394 . S
C1795 C1801 1.465 . S
C1796 C1791 1.399 . S
C1796 C1795 1.394 . S
C1796 C1797 1.516 . S
C1797 C1796 1.516 . S
C1797 C1798 1.502 . S
C1797 C1799 1.561 . S
C1797 C1800 1.526 . S
C1798 H1782 0.959 . S
C1798 H1783 0.959 . S
C1798 H1784 0.961 . S
C1798 C1797 1.502 . S
C1799 H1785 0.960 . S
C1799 H1786 0.961 . S
C1799 H1787 0.959 . S
C1799 C1797 1.561 . S
C1800 C1797 1.526 . S
C1800 C1801 1.396 . S
C1800 C1805 1.390 . S
C1801 C1795 1.465 . S
C1801 C1800 1.396 . S
C1801 C1802 1.399 . S
C1802 H1788 0.929 . S
C1802 C1801 1.399 . S
C1802 C1803 1.385 . S
C1803 H1789 0.931 . S
C1803 C1802 1.385 . S
C1803 C1804 1.389 . S
C1804 C1803 1.389 . S
C1804 C1805 1.387 . S
C1805 H1790 0.930 . S
C1805 C1800 1.390 . S
C1805 C1804 1.387 . S
H1806 C1818 0.930 . S
H1807 C1820 0.930 . S
H1808 C1821 0.930 . S
H1809 C1825 0.959 . S
H1810 C1825 0.959 . S
H1811 C1825 0.961 . S
H1812 C1826 0.960 . S
H1813 C1826 0.961 . S
H1814 C1826 0.959 . S
H1815 C1829 0.929 . S
H1816 C1830 0.931 . S
H1817 C1832 0.930 . S
C1818 H1806 0.930 . S
C1818 C1819 1.399 . S
C1818 C1823 1.399 . S
C1819 C1818 1.399 . S
C1819 C1820 1.376 . S
C1820 H1807 0.930 . S
C1820 C1819 1.376 . S
C1820 C1821 1.388 . S
C1821 H1808 0.930 . S
C1821 C1820 1.388 . S
C1821 C1822 1.390 . S
C1822 C1821 1.390 . S
C1822 C1823 1.394 . S
C1822 C1828 1.465 . S
C1823 C1818 1.399 . S
C1823 C1822 1.394 . S
C1823 C1824 1.516 . S
C1824 C1823 1.516 . S
C1824 C1825 1.502 . S
C1824 C1826 1.561 . S
C1824 C1827 1.526 . S
C1825 H1809 0.959 . S
C1825 H1810 0.959 . S
C1825 H1811 0.961 . S
C1825 C1824 1.502 . S
C1826 H1812 0.960 . S
C1826 H1813 0.961 . S
C1826 H1814 0.959 . S
C1826 C1824 1.561 . S
C1827 C1824 1.526 . S
C1827 C1828 1.396 . S
C1827 C1832 1.390 . S
C1828 C1822 1.465 . S
C1828 C1827 1.396 . S
C1828 C1829 1.399 . S
C1829 H1815 0.929 . S
C1829 C1828 1.399 . S
C1829 C1830 1.385 . S
C1830 H1816 0.931 . S
C1830 C1829 1.385 . S
C1830 C1831 1.389 . S
C1831 C1830 1.389 . S
C1831 C1832 1.387 . S
C1832 H1817 0.930 . S
C1832 C1827 1.390 . S
C1832 C1831 1.387 . S
H1833 C1845 0.930 . S
H1834 C1847 0.930 . S
H1835 C1848 0.930 . S
H1836 C1852 0.959 . S
H1837 C1852 0.959 . S
H1838 C1852 0.961 . S
H1839 C1853 0.960 . S
H1840 C1853 0.961 . S
H1841 C1853 0.959 . S
H1842 C1856 0.929 . S
H1843 C1857 0.931 . S
H1844 C1859 0.930 . S
C1845 H1833 0.930 . S
C1845 C1846 1.399 . S
C1845 C1850 1.399 . S
C1846 C1845 1.399 . S
C1846 C1847 1.376 . S
C1847 H1834 0.930 . S
C1847 C1846 1.376 . S
C1847 C1848 1.388 . S
C1848 H1835 0.930 . S
C1848 C1847 1.388 . S
C1848 C1849 1.390 . S
C1849 C1848 1.390 . S
C1849 C1850 1.394 . S
C1849 C1855 1.465 . S
C1850 C1845 1.399 . S
C1850 C1849 1.394 . S
C1850 C1851 1.516 . S
C1851 C1850 1.516 . S
C1851 C1852 1.502 . S
C1851 C1853 1.561 . S
C1851 C1854 1.526 . S
C1852 H1836 0.959 . S
C1852 H1837 0.959 . S
C1852 H1838 0.961 . S
C1852 C1851 1.502 . S
C1853 H1839 0.960 . S
C1853 H1840 0.961 . S
C1853 H1841 0.959 . S
C1853 C1851 1.561 . S
C1854 C1851 1.526 . S
C1854 C1855 1.396 . S
C1854 C1859 1.390 . S
C1855 C1849 1.465 . S
C1855 C1854 1.396 . S
C1855 C1856 1.399 . S
C1856 H1842 0.929 . S
C1856 C1855 1.399 . S
C1856 C1857 1.385 . S
C1857 H1843 0.931 . S
C1857 C1856 1.385 . S
C1857 C1858 1.389 . S
C1858 C1857 1.389 . S
C1858 C1859 1.387 . S
C1859 H1844 0.930 . S
C1859 C1854 1.390 . S
C1859 C1858 1.387 . S
H1860 C1872 0.930 . S
H1861 C1874 0.930 . S
H1862 C1875 0.930 . S
H1863 C1879 0.959 . S
H1864 C1879 0.959 . S
H1865 C1879 0.961 . S
H1866 C1880 0.960 . S
H1867 C1880 0.961 . S
H1868 C1880 0.959 . S
H1869 C1883 0.929 . S
H1870 C1884 0.931 . S
H1871 C1886 0.930 . S
C1872 H1860 0.930 . S
C1872 C1873 1.399 . S
C1872 C1877 1.399 . S
C1873 C1872 1.399 . S
C1873 C1874 1.376 . S
C1874 H1861 0.930 . S
C1874 C1873 1.376 . S
C1874 C1875 1.388 . S
C1875 H1862 0.930 . S
C1875 C1874 1.388 . S
C1875 C1876 1.390 . S
C1876 C1875 1.390 . S
C1876 C1877 1.394 . S
C1876 C1882 1.465 . S
C1877 C1872 1.399 . S
C1877 C1876 1.394 . S
C1877 C1878 1.516 . S
C1878 C1877 1.516 . S
C1878 C1879 1.502 . S
C1878 C1880 1.561 . S
C1878 C1881 1.526 . S
C1879 H1863 0.959 . S
C1879 H1864 0.959 . S
C1879 H1865 0.961 . S
C1879 C1878 1.502 . S
C1880 H1866 0.960 . S
C1880 H1867 0.961 . S
C1880 H1868 0.959 . S
C1880 C1878 1.561 . S
C1881 C1878 1.526 . S
C1881 C1882 1.396 . S
C1881 C1886 1.390 . S
C1882 C1876 1.465 . S
C1882 C1881 1.396 . S
C1882 C1883 1.399 . S
C1883 H1869 0.929 . S
C1883 C1882 1.399 . S
C1883 C1884 1.385 . S
C1884 H1870 0.931 . S
C1884 C1883 1.385 . S
C1884 C1885 1.389 . S
C1885 C1884 1.389 . S
C1885 C1886 1.387 . S
C1886 H1871 0.930 . S
C1886 C1881 1.390 . S
C1886 C1885 1.387 . S
H1887 C1899 0.930 . S
H1888 C1901 0.930 . S
H1889 C1902 0.930 . S
H1890 C1906 0.959 . S
H1891 C1906 0.959 . S
H1892 C1906 0.961 . S
H1893 C1907 0.960 . S
H1894 C1907 0.961 . S
H1895 C1907 0.959 . S
H1896 C1910 0.929 . S
H1897 C1911 0.931 . S
H1898 C1913 0.930 . S
C1899 H1887 0.930 . S
C1899 C1900 1.399 . S
C1899 C1904 1.399 . S
C1900 C1899 1.399 . S
C1900 C1901 1.376 . S
C1901 H1888 0.930 . S
C1901 C1900 1.376 . S
C1901 C1902 1.388 . S
C1902 H1889 0.930 . S
C1902 C1901 1.388 . S
C1902 C1903 1.390 . S
C1903 C1902 1.390 . S
C1903 C1904 1.394 . S
C1903 C1909 1.465 . S
C1904 C1899 1.399 . S
C1904 C1903 1.394 . S
C1904 C1905 1.516 . S
C1905 C1904 1.516 . S
C1905 C1906 1.502 . S
C1905 C1907 1.561 . S
C1905 C1908 1.526 . S
C1906 H1890 0.959 . S
C1906 H1891 0.959 . S
C1906 H1892 0.961 . S
C1906 C1905 1.502 . S
C1907 H1893 0.960 . S
C1907 H1894 0.961 . S
C1907 H1895 0.959 . S
C1907 C1905 1.561 . S
C1908 C1905 1.526 . S
C1908 C1909 1.396 . S
C1908 C1913 1.390 . S
C1909 C1903 1.465 . S
C1909 C1908 1.396 . S
C1909 C1910 1.399 . S
C1910 H1896 0.929 . S
C1910 C1909 1.399 . S
C1910 C1911 1.385 . S
C1911 H1897 0.931 . S
C1911 C1910 1.385 . S
C1911 C1912 1.389 . S
C1912 C1911 1.389 . S
C1912 C1913 1.387 . S
C1913 H1898 0.930 . S
C1913 C1908 1.390 . S
C1913 C1912 1.387 . S
H1914 C1926 0.930 . S
H1915 C1928 0.930 . S
H1916 C1929 0.930 . S
H1917 C1933 0.959 . S
H1918 C1933 0.959 . S
H1919 C1933 0.961 . S
H1920 C1934 0.960 . S
H1921 C1934 0.961 . S
H1922 C1934 0.959 . S
H1923 C1937 0.929 . S
H1924 C1938 0.931 . S
H1925 C1940 0.930 . S
C1926 H1914 0.930 . S
C1926 C1927 1.399 . S
C1926 C1931 1.399 . S
C1927 C1926 1.399 . S
C1927 C1928 1.376 . S
C1928 H1915 0.930 . S
C1928 C1927 1.376 . S
C1928 C1929 1.388 . S
C1929 H1916 0.930 . S
C1929 C1928 1.388 . S
C1929 C1930 1.390 . S
C1930 C1929 1.390 . S
C1930 C1931 1.394 . S
C1930 C1936 1.465 . S
C1931 C1926 1.399 . S
C1931 C1930 1.394 . S
C1931 C1932 1.516 . S
C1932 C1931 1.516 . S
C1932 C1933 1.502 . S
C1932 C1934 1.561 . S
C1932 C1935 1.526 . S
C1933 H1917 0.959 . S
C1933 H1918 0.959 . S
C1933 H1919 0.961 . S
C1933 C1932 1.502 . S
C1934 H1920 0.960 . S
C1934 H1921 0.961 . S
C1934 H1922 0.959 . S
C1934 C1932 1.561 . S
C1935 C1932 1.526 . S
C1935 C1936 1.396 . S
C1935 C1940 1.390 . S
C1936 C1930 1.465 . S
C1936 C1935 1.396 . S
C1936 C1937 1.399 . S
C1937 H1923 0.929 . S
C1937 C1936 1.399 . S
C1937 C1938 1.385 . S
C1938 H1924 0.931 . S
C1938 C1937 1.385 . S
C1938 C1939 1.389 . S
C1939 C1938 1.389 . S
C1939 C1940 1.387 . S
C1940 H1925 0.930 . S
C1940 C1935 1.390 . S
C1940 C1939 1.387 . S
H1941 C1953 0.930 . S
H1942 C1955 0.930 . S
H1943 C1956 0.930 . S
H1944 C1960 0.959 . S
H1945 C1960 0.959 . S
H1946 C1960 0.961 . S
H1947 C1961 0.960 . S
H1948 C1961 0.961 . S
H1949 C1961 0.959 . S
H1950 C1964 0.929 . S
H1951 C1965 0.931 . S
H1952 C1967 0.930 . S
C1953 H1941 0.930 . S
C1953 C1954 1.399 . S
C1953 C1958 1.399 . S
C1954 C1953 1.399 . S
C1954 C1955 1.376 . S
C1955 H1942 0.930 . S
C1955 C1954 1.376 . S
C1955 C1956 1.388 . S
C1956 H1943 0.930 . S
C1956 C1955 1.388 . S
C1956 C1957 1.390 . S
C1957 C1956 1.390 . S
C1957 C1958 1.394 . S
C1957 C1963 1.465 . S
C1958 C1953 1.399 . S
C1958 C1957 1.394 . S
C1958 C1959 1.516 . S
C1959 C1958 1.516 . S
C1959 C1960 1.502 . S
C1959 C1961 1.561 . S
C1959 C1962 1.526 . S
C1960 H1944 0.959 . S
C1960 H1945 0.959 . S
C1960 H1946 0.961 . S
C1960 C1959 1.502 . S
C1961 H1947 0.960 . S
C1961 H1948 0.961 . S
C1961 H1949 0.959 . S
C1961 C1959 1.561 . S
C1962 C1959 1.526 . S
C1962 C1963 1.396 . S
C1962 C1967 1.390 . S
C1963 C1957 1.465 . S
C1963 C1962 1.396 . S
C1963 C1964 1.399 . S
C1964 H1950 0.929 . S
C1964 C1963 1.399 . S
C1964 C1965 1.385 . S
C1965 H1951 0.931 . S
C1965 C1964 1.385 . S
C1965 C1966 1.389 . S
C1966 C1965 1.389 . S
C1966 C1967 1.387 . S
C1967 H1952 0.930 . S
C1967 C1962 1.390 . S
C1967 C1966 1.387 . S
H1968 C1980 0.930 . S
H1969 C1982 0.930 . S
H1970 C1983 0.930 . S
H1971 C1987 0.959 . S
H1972 C1987 0.959 . S
H1973 C1987 0.961 . S
H1974 C1988 0.960 . S
H1975 C1988 0.961 . S
H1976 C1988 0.959 . S
H1977 C1991 0.929 . S
H1978 C1992 0.931 . S
H1979 C1994 0.930 . S
C1980 H1968 0.930 . S
C1980 C1981 1.399 . S
C1980 C1985 1.399 . S
C1981 C1980 1.399 . S
C1981 C1982 1.376 . S
C1982 H1969 0.930 . S
C1982 C1981 1.376 . S
C1982 C1983 1.388 . S
C1983 H1970 0.930 . S
C1983 C1982 1.388 . S
C1983 C1984 1.390 . S
C1984 C1983 1.390 . S
C1984 C1985 1.394 . S
C1984 C1990 1.465 . S
C1985 C1980 1.399 . S
C1985 C1984 1.394 . S
C1985 C1986 1.516 . S
C1986 C1985 1.516 . S
C1986 C1987 1.502 . S
C1986 C1988 1.561 . S
C1986 C1989 1.526 . S
C1987 H1971 0.959 . S
C1987 H1972 0.959 . S
C1987 H1973 0.961 . S
C1987 C1986 1.502 . S
C1988 H1974 0.960 . S
C1988 H1975 0.961 . S
C1988 H1976 0.959 . S
C1988 C1986 1.561 . S
C1989 C1986 1.526 . S
C1989 C1990 1.396 . S
C1989 C1994 1.390 . S
C1990 C1984 1.465 . S
C1990 C1989 1.396 . S
C1990 C1991 1.399 . S
C1991 H1977 0.929 . S
C1991 C1990 1.399 . S
C1991 C1992 1.385 . S
C1992 H1978 0.931 . S
C1992 C1991 1.385 . S
C1992 C1993 1.389 . S
C1993 C1992 1.389 . S
C1993 C1994 1.387 . S
C1994 H1979 0.930 . S
C1994 C1989 1.390 . S
C1994 C1993 1.387 . S
H1995 C2007 0.930 . S
H1996 C2009 0.930 . S
H1997 C2010 0.930 . S
H1998 C2014 0.959 . S
H1999 C2014 0.959 . S
H2000 C2014 0.961 . S
H2001 C2015 0.960 . S
H2002 C2015 0.961 . S
H2003 C2015 0.959 . S
H2004 C2018 0.929 . S
H2005 C2019 0.931 . S
H2006 C2021 0.930 . S
C2007 H1995 0.930 . S
C2007 C2008 1.399 . S
C2007 C2012 1.399 . S
C2008 C2007 1.399 . S
C2008 C2009 1.376 . S
C2009 H1996 0.930 . S
C2009 C2008 1.376 . S
C2009 C2010 1.388 . S
C2010 H1997 0.930 . S
C2010 C2009 1.388 . S
C2010 C2011 1.390 . S
C2011 C2010 1.390 . S
C2011 C2012 1.394 . S
C2011 C2017 1.465 . S
C2012 C2007 1.399 . S
C2012 C2011 1.394 . S
C2012 C2013 1.516 . S
C2013 C2012 1.516 . S
C2013 C2014 1.502 . S
C2013 C2015 1.561 . S
C2013 C2016 1.526 . S
C2014 H1998 0.959 . S
C2014 H1999 0.959 . S
C2014 H2000 0.961 . S
C2014 C2013 1.502 . S
C2015 H2001 0.960 . S
C2015 H2002 0.961 . S
C2015 H2003 0.959 . S
C2015 C2013 1.561 . S
C2016 C2013 1.526 . S
C2016 C2017 1.396 . S
C2016 C2021 1.390 . S
C2017 C2011 1.465 . S
C2017 C2016 1.396 . S
C2017 C2018 1.399 . S
C2018 H2004 0.929 . S
C2018 C2017 1.399 . S
C2018 C2019 1.385 . S
C2019 H2005 0.931 . S
C2019 C2018 1.385 . S
C2019 C2020 1.389 . S
C2020 C2019 1.389 . S
C2020 C2021 1.387 . S
C2021 H2006 0.930 . S
C2021 C2016 1.390 . S
C2021 C2020 1.387 . S
H2022 C2034 0.930 . S
H2023 C2036 0.930 . S
H2024 C2037 0.930 . S
H2025 C2041 0.959 . S
H2026 C2041 0.959 . S
H2027 C2041 0.961 . S
H2028 C2042 0.960 . S
H2029 C2042 0.961 . S
H2030 C2042 0.959 . S
H2031 C2045 0.929 . S
H2032 C2046 0.931 . S
H2033 C2048 0.930 . S
C2034 H2022 0.930 . S
C2034 C2035 1.399 . S
C2034 C2039 1.399 . S
C2035 C2034 1.399 . S
C2035 C2036 1.376 . S
C2036 H2023 0.930 . S
C2036 C2035 1.376 . S
C2036 C2037 1.388 . S
C2037 H2024 0.930 . S
C2037 C2036 1.388 . S
C2037 C2038 1.390 . S
C2038 C2037 1.390 . S
C2038 C2039 1.394 . S
C2038 C2044 1.465 . S
C2039 C2034 1.399 . S
C2039 C2038 1.394 . S
C2039 C2040 1.516 . S
C2040 C2039 1.516 . S
C2040 C2041 1.502 . S
C2040 C2042 1.561 . S
C2040 C2043 1.526 . S
C2041 H2025 0.959 . S
C2041 H2026 0.959 . S
C2041 H2027 0.961 . S
C2041 C2040 1.502 . S
C2042 H2028 0.960 . S
C2042 H2029 0.961 . S
C2042 H2030 0.959 . S
C2042 C2040 1.561 . S
C2043 C2040 1.526 . S
C2043 C2044 1.396 . S
C2043 C2048 1.390 . S
C2044 C2038 1.465 . S
C2044 C2043 1.396 . S
C2044 C2045 1.399 . S
C2045 H2031 0.929 . S
C2045 C2044 1.399 . S
C2045 C2046 1.385 . S
C2046 H2032 0.931 . S
C2046 C2045 1.385 . S
C2046 C2047 1.389 . S
C2047 C2046 1.389 . S
C2047 C2048 1.387 . S
C2048 H2033 0.930 . S
C2048 C2043 1.390 . S
C2048 C2047 1.387 . S
H2049 C2061 0.930 . S
H2050 C2063 0.930 . S
H2051 C2064 0.930 . S
H2052 C2068 0.959 . S
H2053 C2068 0.959 . S
H2054 C2068 0.961 . S
H2055 C2069 0.960 . S
H2056 C2069 0.961 . S
H2057 C2069 0.959 . S
H2058 C2072 0.929 . S
H2059 C2073 0.931 . S
H2060 C2075 0.930 . S
C2061 H2049 0.930 . S
C2061 C2062 1.399 . S
C2061 C2066 1.399 . S
C2062 C2061 1.399 . S
C2062 C2063 1.376 . S
C2063 H2050 0.930 . S
C2063 C2062 1.376 . S
C2063 C2064 1.388 . S
C2064 H2051 0.930 . S
C2064 C2063 1.388 . S
C2064 C2065 1.390 . S
C2065 C2064 1.390 . S
C2065 C2066 1.394 . S
C2065 C2071 1.465 . S
C2066 C2061 1.399 . S
C2066 C2065 1.394 . S
C2066 C2067 1.516 . S
C2067 C2066 1.516 . S
C2067 C2068 1.502 . S
C2067 C2069 1.561 . S
C2067 C2070 1.526 . S
C2068 H2052 0.959 . S
C2068 H2053 0.959 . S
C2068 H2054 0.961 . S
C2068 C2067 1.502 . S
C2069 H2055 0.960 . S
C2069 H2056 0.961 . S
C2069 H2057 0.959 . S
C2069 C2067 1.561 . S
C2070 C2067 1.526 . S
C2070 C2071 1.396 . S
C2070 C2075 1.390 . S
C2071 C2065 1.465 . S
C2071 C2070 1.396 . S
C2071 C2072 1.399 . S
C2072 H2058 0.929 . S
C2072 C2071 1.399 . S
C2072 C2073 1.385 . S
C2073 H2059 0.931 . S
C2073 C2072 1.385 . S
C2073 C2074 1.389 . S
C2074 C2073 1.389 . S
C2074 C2075 1.387 . S
C2075 H2060 0.930 . S
C2075 C2070 1.390 . S
C2075 C2074 1.387 . S
H2076 C2088 0.930 . S
H2077 C2090 0.930 . S
H2078 C2091 0.930 . S
H2079 C2095 0.959 . S
H2080 C2095 0.959 . S
H2081 C2095 0.961 . S
H2082 C2096 0.960 . S
H2083 C2096 0.961 . S
H2084 C2096 0.959 . S
H2085 C2099 0.929 . S
H2086 C2100 0.931 . S
H2087 C2102 0.930 . S
C2088 H2076 0.930 . S
C2088 C2089 1.399 . S
C2088 C2093 1.399 . S
C2089 C2088 1.399 . S
C2089 C2090 1.376 . S
C2090 H2077 0.930 . S
C2090 C2089 1.376 . S
C2090 C2091 1.388 . S
C2091 H2078 0.930 . S
C2091 C2090 1.388 . S
C2091 C2092 1.390 . S
C2092 C2091 1.390 . S
C2092 C2093 1.394 . S
C2092 C2098 1.465 . S
C2093 C2088 1.399 . S
C2093 C2092 1.394 . S
C2093 C2094 1.516 . S
C2094 C2093 1.516 . S
C2094 C2095 1.502 . S
C2094 C2096 1.561 . S
C2094 C2097 1.526 . S
C2095 H2079 0.959 . S
C2095 H2080 0.959 . S
C2095 H2081 0.961 . S
C2095 C2094 1.502 . S
C2096 H2082 0.960 . S
C2096 H2083 0.961 . S
C2096 H2084 0.959 . S
C2096 C2094 1.561 . S
C2097 C2094 1.526 . S
C2097 C2098 1.396 . S
C2097 C2102 1.390 . S
C2098 C2092 1.465 . S
C2098 C2097 1.396 . S
C2098 C2099 1.399 . S
C2099 H2085 0.929 . S
C2099 C2098 1.399 . S
C2099 C2100 1.385 . S
C2100 H2086 0.931 . S
C2100 C2099 1.385 . S
C2100 C2101 1.389 . S
C2101 C2100 1.389 . S
C2101 C2102 1.387 . S
C2102 H2087 0.930 . S
C2102 C2097 1.390 . S
C2102 C2101 1.387 . S
H2103 C2115 0.930 . S
H2104 C2117 0.930 . S
H2105 C2118 0.930 . S
H2106 C2122 0.959 . S
H2107 C2122 0.959 . S
H2108 C2122 0.961 . S
H2109 C2123 0.960 . S
H2110 C2123 0.961 . S
H2111 C2123 0.959 . S
H2112 C2126 0.929 . S
H2113 C2127 0.931 . S
H2114 C2129 0.930 . S
C2115 H2103 0.930 . S
C2115 C2116 1.399 . S
C2115 C2120 1.399 . S
C2116 C2115 1.399 . S
C2116 C2117 1.376 . S
C2117 H2104 0.930 . S
C2117 C2116 1.376 . S
C2117 C2118 1.388 . S
C2118 H2105 0.930 . S
C2118 C2117 1.388 . S
C2118 C2119 1.390 . S
C2119 C2118 1.390 . S
C2119 C2120 1.394 . S
C2119 C2125 1.465 . S
C2120 C2115 1.399 . S
C2120 C2119 1.394 . S
C2120 C2121 1.516 . S
C2121 C2120 1.516 . S
C2121 C2122 1.502 . S
C2121 C2123 1.561 . S
C2121 C2124 1.526 . S
C2122 H2106 0.959 . S
C2122 H2107 0.959 . S
C2122 H2108 0.961 . S
C2122 C2121 1.502 . S
C2123 H2109 0.960 . S
C2123 H2110 0.961 . S
C2123 H2111 0.959 . S
C2123 C2121 1.561 . S
C2124 C2121 1.526 . S
C2124 C2125 1.396 . S
C2124 C2129 1.390 . S
C2125 C2119 1.465 . S
C2125 C2124 1.396 . S
C2125 C2126 1.399 . S
C2126 H2112 0.929 . S
C2126 C2125 1.399 . S
C2126 C2127 1.385 . S
C2127 H2113 0.931 . S
C2127 C2126 1.385 . S
C2127 C2128 1.389 . S
C2128 C2127 1.389 . S
C2128 C2129 1.387 . S
C2129 H2114 0.930 . S
C2129 C2124 1.390 . S
C2129 C2128 1.387 . S
H2130 C2142 0.930 . S
H2131 C2144 0.930 . S
H2132 C2145 0.930 . S
H2133 C2149 0.959 . S
H2134 C2149 0.959 . S
H2135 C2149 0.961 . S
H2136 C2150 0.960 . S
H2137 C2150 0.961 . S
H2138 C2150 0.959 . S
H2139 C2153 0.929 . S
H2140 C2154 0.931 . S
H2141 C2156 0.930 . S
C2142 H2130 0.930 . S
C2142 C2143 1.399 . S
C2142 C2147 1.399 . S
C2143 C2142 1.399 . S
C2143 C2144 1.376 . S
C2144 H2131 0.930 . S
C2144 C2143 1.376 . S
C2144 C2145 1.388 . S
C2145 H2132 0.930 . S
C2145 C2144 1.388 . S
C2145 C2146 1.390 . S
C2146 C2145 1.390 . S
C2146 C2147 1.394 . S
C2146 C2152 1.465 . S
C2147 C2142 1.399 . S
C2147 C2146 1.394 . S
C2147 C2148 1.516 . S
C2148 C2147 1.516 . S
C2148 C2149 1.502 . S
C2148 C2150 1.561 . S
C2148 C2151 1.526 . S
C2149 H2133 0.959 . S
C2149 H2134 0.959 . S
C2149 H2135 0.961 . S
C2149 C2148 1.502 . S
C2150 H2136 0.960 . S
C2150 H2137 0.961 . S
C2150 H2138 0.959 . S
C2150 C2148 1.561 . S
C2151 C2148 1.526 . S
C2151 C2152 1.396 . S
C2151 C2156 1.390 . S
C2152 C2146 1.465 . S
C2152 C2151 1.396 . S
C2152 C2153 1.399 . S
C2153 H2139 0.929 . S
C2153 C2152 1.399 . S
C2153 C2154 1.385 . S
C2154 H2140 0.931 . S
C2154 C2153 1.385 . S
C2154 C2155 1.389 . S
C2155 C2154 1.389 . S
C2155 C2156 1.387 . S
C2156 H2141 0.930 . S
C2156 C2151 1.390 . S
C2156 C2155 1.387 . S
H2157 C2169 0.930 . S
H2158 C2171 0.930 . S
H2159 C2172 0.930 . S
H2160 C2176 0.959 . S
H2161 C2176 0.959 . S
H2162 C2176 0.961 . S
H2163 C2177 0.960 . S
H2164 C2177 0.961 . S
H2165 C2177 0.959 . S
H2166 C2180 0.929 . S
H2167 C2181 0.931 . S
H2168 C2183 0.930 . S
C2169 H2157 0.930 . S
C2169 C2170 1.399 . S
C2169 C2174 1.399 . S
C2170 C2169 1.399 . S
C2170 C2171 1.376 . S
C2171 H2158 0.930 . S
C2171 C2170 1.376 . S
C2171 C2172 1.388 . S
C2172 H2159 0.930 . S
C2172 C2171 1.388 . S
C2172 C2173 1.390 . S
C2173 C2172 1.390 . S
C2173 C2174 1.394 . S
C2173 C2179 1.465 . S
C2174 C2169 1.399 . S
C2174 C2173 1.394 . S
C2174 C2175 1.516 . S
C2175 C2174 1.516 . S
C2175 C2176 1.502 . S
C2175 C2177 1.561 . S
C2175 C2178 1.526 . S
C2176 H2160 0.959 . S
C2176 H2161 0.959 . S
C2176 H2162 0.961 . S
C2176 C2175 1.502 . S
C2177 H2163 0.960 . S
C2177 H2164 0.961 . S
C2177 H2165 0.959 . S
C2177 C2175 1.561 . S
C2178 C2175 1.526 . S
C2178 C2179 1.396 . S
C2178 C2183 1.390 . S
C2179 C2173 1.465 . S
C2179 C2178 1.396 . S
C2179 C2180 1.399 . S
C2180 H2166 0.929 . S
C2180 C2179 1.399 . S
C2180 C2181 1.385 . S
C2181 H2167 0.931 . S
C2181 C2180 1.385 . S
C2181 C2182 1.389 . S
C2182 C2181 1.389 . S
C2182 C2183 1.387 . S
C2183 H2168 0.930 . S
C2183 C2178 1.390 . S
C2183 C2182 1.387 . S
H2184 C2196 0.930 . S
H2185 C2198 0.930 . S
H2186 C2199 0.930 . S
H2187 C2203 0.959 . S
H2188 C2203 0.959 . S
H2189 C2203 0.961 . S
H2190 C2204 0.960 . S
H2191 C2204 0.961 . S
H2192 C2204 0.959 . S
H2193 C2207 0.929 . S
H2194 C2208 0.931 . S
H2195 C2210 0.930 . S
C2196 H2184 0.930 . S
C2196 C2197 1.399 . S
C2196 C2201 1.399 . S
C2197 C2196 1.399 . S
C2197 C2198 1.376 . S
C2198 H2185 0.930 . S
C2198 C2197 1.376 . S
C2198 C2199 1.388 . S
C2199 H2186 0.930 . S
C2199 C2198 1.388 . S
C2199 C2200 1.390 . S
C2200 C2199 1.390 . S
C2200 C2201 1.394 . S
C2200 C2206 1.465 . S
C2201 C2196 1.399 . S
C2201 C2200 1.394 . S
C2201 C2202 1.516 . S
C2202 C2201 1.516 . S
C2202 C2203 1.502 . S
C2202 C2204 1.561 . S
C2202 C2205 1.526 . S
C2203 H2187 0.959 . S
C2203 H2188 0.959 . S
C2203 H2189 0.961 . S
C2203 C2202 1.502 . S
C2204 H2190 0.960 . S
C2204 H2191 0.961 . S
C2204 H2192 0.959 . S
C2204 C2202 1.561 . S
C2205 C2202 1.526 . S
C2205 C2206 1.396 . S
C2205 C2210 1.390 . S
C2206 C2200 1.465 . S
C2206 C2205 1.396 . S
C2206 C2207 1.399 . S
C2207 H2193 0.929 . S
C2207 C2206 1.399 . S
C2207 C2208 1.385 . S
C2208 H2194 0.931 . S
C2208 C2207 1.385 . S
C2208 C2209 1.389 . S
C2209 C2208 1.389 . S
C2209 C2210 1.387 . S
C2210 H2195 0.930 . S
C2210 C2205 1.390 . S
C2210 C2209 1.387 . S
H2211 C2223 0.930 . S
H2212 C2225 0.930 . S
H2213 C2226 0.930 . S
H2214 C2230 0.959 . S
H2215 C2230 0.959 . S
H2216 C2230 0.961 . S
H2217 C2231 0.960 . S
H2218 C2231 0.961 . S
H2219 C2231 0.959 . S
H2220 C2234 0.929 . S
H2221 C2235 0.931 . S
H2222 C2237 0.930 . S
C2223 H2211 0.930 . S
C2223 C2224 1.399 . S
C2223 C2228 1.399 . S
C2224 C2223 1.399 . S
C2224 C2225 1.376 . S
C2225 H2212 0.930 . S
C2225 C2224 1.376 . S
C2225 C2226 1.388 . S
C2226 H2213 0.930 . S
C2226 C2225 1.388 . S
C2226 C2227 1.390 . S
C2227 C2226 1.390 . S
C2227 C2228 1.394 . S
C2227 C2233 1.465 . S
C2228 C2223 1.399 . S
C2228 C2227 1.394 . S
C2228 C2229 1.516 . S
C2229 C2228 1.516 . S
C2229 C2230 1.502 . S
C2229 C2231 1.561 . S
C2229 C2232 1.526 . S
C2230 H2214 0.959 . S
C2230 H2215 0.959 . S
C2230 H2216 0.961 . S
C2230 C2229 1.502 . S
C2231 H2217 0.960 . S
C2231 H2218 0.961 . S
C2231 H2219 0.959 . S
C2231 C2229 1.561 . S
C2232 C2229 1.526 . S
C2232 C2233 1.396 . S
C2232 C2237 1.390 . S
C2233 C2227 1.465 . S
C2233 C2232 1.396 . S
C2233 C2234 1.399 . S
C2234 H2220 0.929 . S
C2234 C2233 1.399 . S
C2234 C2235 1.385 . S
C2235 H2221 0.931 . S
C2235 C2234 1.385 . S
C2235 C2236 1.389 . S
C2236 C2235 1.389 . S
C2236 C2237 1.387 . S
C2237 H2222 0.930 . S
C2237 C2232 1.390 . S
C2237 C2236 1.387 . S
H2238 C2250 0.930 . S
H2239 C2252 0.930 . S
H2240 C2253 0.930 . S
H2241 C2257 0.959 . S
H2242 C2257 0.959 . S
H2243 C2257 0.961 . S
H2244 C2258 0.960 . S
H2245 C2258 0.961 . S
H2246 C2258 0.959 . S
H2247 C2261 0.929 . S
H2248 C2262 0.931 . S
H2249 C2264 0.930 . S
C2250 H2238 0.930 . S
C2250 C2251 1.399 . S
C2250 C2255 1.399 . S
C2251 C2250 1.399 . S
C2251 C2252 1.376 . S
C2252 H2239 0.930 . S
C2252 C2251 1.376 . S
C2252 C2253 1.388 . S
C2253 H2240 0.930 . S
C2253 C2252 1.388 . S
C2253 C2254 1.390 . S
C2254 C2253 1.390 . S
C2254 C2255 1.394 . S
C2254 C2260 1.465 . S
C2255 C2250 1.399 . S
C2255 C2254 1.394 . S
C2255 C2256 1.516 . S
C2256 C2255 1.516 . S
C2256 C2257 1.502 . S
C2256 C2258 1.561 . S
C2256 C2259 1.526 . S
C2257 H2241 0.959 . S
C2257 H2242 0.959 . S
C2257 H2243 0.961 . S
C2257 C2256 1.502 . S
C2258 H2244 0.960 . S
C2258 H2245 0.961 . S
C2258 H2246 0.959 . S
C2258 C2256 1.561 . S
C2259 C2256 1.526 . S
C2259 C2260 1.396 . S
C2259 C2264 1.390 . S
C2260 C2254 1.465 . S
C2260 C2259 1.396 . S
C2260 C2261 1.399 . S
C2261 H2247 0.929 . S
C2261 C2260 1.399 . S
C2261 C2262 1.385 . S
C2262 H2248 0.931 . S
C2262 C2261 1.385 . S
C2262 C2263 1.389 . S
C2263 C2262 1.389 . S
C2263 C2264 1.387 . S
C2264 H2249 0.930 . S
C2264 C2259 1.390 . S
C2264 C2263 1.387 . S
H2265 C2277 0.930 . S
H2266 C2279 0.930 . S
H2267 C2280 0.930 . S
H2268 C2284 0.959 . S
H2269 C2284 0.959 . S
H2270 C2284 0.961 . S
H2271 C2285 0.960 . S
H2272 C2285 0.961 . S
H2273 C2285 0.959 . S
H2274 C2288 0.929 . S
H2275 C2289 0.931 . S
H2276 C2291 0.930 . S
C2277 H2265 0.930 . S
C2277 C2278 1.399 . S
C2277 C2282 1.399 . S
C2278 C2277 1.399 . S
C2278 C2279 1.376 . S
C2279 H2266 0.930 . S
C2279 C2278 1.376 . S
C2279 C2280 1.388 . S
C2280 H2267 0.930 . S
C2280 C2279 1.388 . S
C2280 C2281 1.390 . S
C2281 C2280 1.390 . S
C2281 C2282 1.394 . S
C2281 C2287 1.465 . S
C2282 C2277 1.399 . S
C2282 C2281 1.394 . S
C2282 C2283 1.516 . S
C2283 C2282 1.516 . S
C2283 C2284 1.502 . S
C2283 C2285 1.561 . S
C2283 C2286 1.526 . S
C2284 H2268 0.959 . S
C2284 H2269 0.959 . S
C2284 H2270 0.961 . S
C2284 C2283 1.502 . S
C2285 H2271 0.960 . S
C2285 H2272 0.961 . S
C2285 H2273 0.959 . S
C2285 C2283 1.561 . S
C2286 C2283 1.526 . S
C2286 C2287 1.396 . S
C2286 C2291 1.390 . S
C2287 C2281 1.465 . S
C2287 C2286 1.396 . S
C2287 C2288 1.399 . S
C2288 H2274 0.929 . S
C2288 C2287 1.399 . S
C2288 C2289 1.385 . S
C2289 H2275 0.931 . S
C2289 C2288 1.385 . S
C2289 C2290 1.389 . S
C2290 C2289 1.389 . S
C2290 C2291 1.387 . S
C2291 H2276 0.930 . S
C2291 C2286 1.390 . S
C2291 C2290 1.387 . S
H2292 C2304 0.930 . S
H2293 C2306 0.930 . S
H2294 C2307 0.930 . S
H2295 C2311 0.959 . S
H2296 C2311 0.959 . S
H2297 C2311 0.961 . S
H2298 C2312 0.960 . S
H2299 C2312 0.961 . S
H2300 C2312 0.959 . S
H2301 C2315 0.929 . S
H2302 C2316 0.931 . S
H2303 C2318 0.930 . S
C2304 H2292 0.930 . S
C2304 C2305 1.399 . S
C2304 C2309 1.399 . S
C2305 C2304 1.399 . S
C2305 C2306 1.376 . S
C2306 H2293 0.930 . S
C2306 C2305 1.376 . S
C2306 C2307 1.388 . S
C2307 H2294 0.930 . S
C2307 C2306 1.388 . S
C2307 C2308 1.390 . S
C2308 C2307 1.390 . S
C2308 C2309 1.394 . S
C2308 C2314 1.465 . S
C2309 C2304 1.399 . S
C2309 C2308 1.394 . S
C2309 C2310 1.516 . S
C2310 C2309 1.516 . S
C2310 C2311 1.502 . S
C2310 C2312 1.561 . S
C2310 C2313 1.526 . S
C2311 H2295 0.959 . S
C2311 H2296 0.959 . S
C2311 H2297 0.961 . S
C2311 C2310 1.502 . S
C2312 H2298 0.960 . S
C2312 H2299 0.961 . S
C2312 H2300 0.959 . S
C2312 C2310 1.561 . S
C2313 C2310 1.526 . S
C2313 C2314 1.396 . S
C2313 C2318 1.390 . S
C2314 C2308 1.465 . S
C2314 C2313 1.396 . S
C2314 C2315 1.399 . S
C2315 H2301 0.929 . S
C2315 C2314 1.399 . S
C2315 C2316 1.385 . S
C2316 H2302 0.931 . S
C2316 C2315 1.385 . S
C2316 C2317 1.389 . S
C2317 C2316 1.389 . S
C2317 C2318 1.387 . S
C2318 H2303 0.930 . S
C2318 C2313 1.390 . S
C2318 C2317 1.387 . S
H2319 C2331 0.930 . S
H2320 C2333 0.930 . S
H2321 C2334 0.930 . S
H2322 C2338 0.959 . S
H2323 C2338 0.959 . S
H2324 C2338 0.961 . S
H2325 C2339 0.960 . S
H2326 C2339 0.961 . S
H2327 C2339 0.959 . S
H2328 C2342 0.929 . S
H2329 C2343 0.931 . S
H2330 C2345 0.930 . S
C2331 H2319 0.930 . S
C2331 C2332 1.399 . S
C2331 C2336 1.399 . S
C2332 C2331 1.399 . S
C2332 C2333 1.376 . S
C2333 H2320 0.930 . S
C2333 C2332 1.376 . S
C2333 C2334 1.388 . S
C2334 H2321 0.930 . S
C2334 C2333 1.388 . S
C2334 C2335 1.390 . S
C2335 C2334 1.390 . S
C2335 C2336 1.394 . S
C2335 C2341 1.465 . S
C2336 C2331 1.399 . S
C2336 C2335 1.394 . S
C2336 C2337 1.516 . S
C2337 C2336 1.516 . S
C2337 C2338 1.502 . S
C2337 C2339 1.561 . S
C2337 C2340 1.526 . S
C2338 H2322 0.959 . S
C2338 H2323 0.959 . S
C2338 H2324 0.961 . S
C2338 C2337 1.502 . S
C2339 H2325 0.960 . S
C2339 H2326 0.961 . S
C2339 H2327 0.959 . S
C2339 C2337 1.561 . S
C2340 C2337 1.526 . S
C2340 C2341 1.396 . S
C2340 C2345 1.390 . S
C2341 C2335 1.465 . S
C2341 C2340 1.396 . S
C2341 C2342 1.399 . S
C2342 H2328 0.929 . S
C2342 C2341 1.399 . S
C2342 C2343 1.385 . S
C2343 H2329 0.931 . S
C2343 C2342 1.385 . S
C2343 C2344 1.389 . S
C2344 C2343 1.389 . S
C2344 C2345 1.387 . S
C2345 H2330 0.930 . S
C2345 C2340 1.390 . S
C2345 C2344 1.387 . S
H2346 C2358 0.930 . S
H2347 C2360 0.930 . S
H2348 C2361 0.930 . S
H2349 C2365 0.959 . S
H2350 C2365 0.959 . S
H2351 C2365 0.961 . S
H2352 C2366 0.960 . S
H2353 C2366 0.961 . S
H2354 C2366 0.959 . S
H2355 C2369 0.929 . S
H2356 C2370 0.931 . S
H2357 C2372 0.930 . S
C2358 H2346 0.930 . S
C2358 C2359 1.399 . S
C2358 C2363 1.399 . S
C2359 C2358 1.399 . S
C2359 C2360 1.376 . S
C2360 H2347 0.930 . S
C2360 C2359 1.376 . S
C2360 C2361 1.388 . S
C2361 H2348 0.930 . S
C2361 C2360 1.388 . S
C2361 C2362 1.390 . S
C2362 C2361 1.390 . S
C2362 C2363 1.394 . S
C2362 C2368 1.465 . S
C2363 C2358 1.399 . S
C2363 C2362 1.394 . S
C2363 C2364 1.516 . S
C2364 C2363 1.516 . S
C2364 C2365 1.502 . S
C2364 C2366 1.561 . S
C2364 C2367 1.526 . S
C2365 H2349 0.959 . S
C2365 H2350 0.959 . S
C2365 H2351 0.961 . S
C2365 C2364 1.502 . S
C2366 H2352 0.960 . S
C2366 H2353 0.961 . S
C2366 H2354 0.959 . S
C2366 C2364 1.561 . S
C2367 C2364 1.526 . S
C2367 C2368 1.396 . S
C2367 C2372 1.390 . S
C2368 C2362 1.465 . S
C2368 C2367 1.396 . S
C2368 C2369 1.399 . S
C2369 H2355 0.929 . S
C2369 C2368 1.399 . S
C2369 C2370 1.385 . S
C2370 H2356 0.931 . S
C2370 C2369 1.385 . S
C2370 C2371 1.389 . S
C2371 C2370 1.389 . S
C2371 C2372 1.387 . S
C2372 H2357 0.930 . S
C2372 C2367 1.390 . S
C2372 C2371 1.387 . S
H2373 C2385 0.930 . S
H2374 C2387 0.930 . S
H2375 C2388 0.930 . S
H2376 C2392 0.959 . S
H2377 C2392 0.959 . S
H2378 C2392 0.961 . S
H2379 C2393 0.960 . S
H2380 C2393 0.961 . S
H2381 C2393 0.959 . S
H2382 C2396 0.929 . S
H2383 C2397 0.931 . S
H2384 C2399 0.930 . S
C2385 H2373 0.930 . S
C2385 C2386 1.399 . S
C2385 C2390 1.399 . S
C2386 C2385 1.399 . S
C2386 C2387 1.376 . S
C2387 H2374 0.930 . S
C2387 C2386 1.376 . S
C2387 C2388 1.388 . S
C2388 H2375 0.930 . S
C2388 C2387 1.388 . S
C2388 C2389 1.390 . S
C2389 C2388 1.390 . S
C2389 C2390 1.394 . S
C2389 C2395 1.465 . S
C2390 C2385 1.399 . S
C2390 C2389 1.394 . S
C2390 C2391 1.516 . S
C2391 C2390 1.516 . S
C2391 C2392 1.502 . S
C2391 C2393 1.561 . S
C2391 C2394 1.526 . S
C2392 H2376 0.959 . S
C2392 H2377 0.959 . S
C2392 H2378 0.961 . S
C2392 C2391 1.502 . S
C2393 H2379 0.960 . S
C2393 H2380 0.961 . S
C2393 H2381 0.959 . S
C2393 C2391 1.561 . S
C2394 C2391 1.526 . S
C2394 C2395 1.396 . S
C2394 C2399 1.390 . S
C2395 C2389 1.465 . S
C2395 C2394 1.396 . S
C2395 C2396 1.399 . S
C2396 H2382 0.929 . S
C2396 C2395 1.399 . S
C2396 C2397 1.385 . S
C2397 H2383 0.931 . S
C2397 C2396 1.385 . S
C2397 C2398 1.389 . S
C2398 C2397 1.389 . S
C2398 C2399 1.387 . S
C2399 H2384 0.930 . S
C2399 C2394 1.390 . S
C2399 C2398 1.387 . S
H2400 C2412 0.930 . S
H2401 C2414 0.930 . S
H2402 C2415 0.930 . S
H2403 C2419 0.959 . S
H2404 C2419 0.959 . S
H2405 C2419 0.961 . S
H2406 C2420 0.960 . S
H2407 C2420 0.961 . S
H2408 C2420 0.959 . S
H2409 C2423 0.929 . S
H2410 C2424 0.931 . S
H2411 C2426 0.930 . S
C2412 H2400 0.930 . S
C2412 C2413 1.399 . S
C2412 C2417 1.399 . S
C2413 C2412 1.399 . S
C2413 C2414 1.376 . S
C2414 H2401 0.930 . S
C2414 C2413 1.376 . S
C2414 C2415 1.388 . S
C2415 H2402 0.930 . S
C2415 C2414 1.388 . S
C2415 C2416 1.390 . S
C2416 C2415 1.390 . S
C2416 C2417 1.394 . S
C2416 C2422 1.465 . S
C2417 C2412 1.399 . S
C2417 C2416 1.394 . S
C2417 C2418 1.516 . S
C2418 C2417 1.516 . S
C2418 C2419 1.502 . S
C2418 C2420 1.561 . S
C2418 C2421 1.526 . S
C2419 H2403 0.959 . S
C2419 H2404 0.959 . S
C2419 H2405 0.961 . S
C2419 C2418 1.502 . S
C2420 H2406 0.960 . S
C2420 H2407 0.961 . S
C2420 H2408 0.959 . S
C2420 C2418 1.561 . S
C2421 C2418 1.526 . S
C2421 C2422 1.396 . S
C2421 C2426 1.390 . S
C2422 C2416 1.465 . S
C2422 C2421 1.396 . S
C2422 C2423 1.399 . S
C2423 H2409 0.929 . S
C2423 C2422 1.399 . S
C2423 C2424 1.385 . S
C2424 H2410 0.931 . S
C2424 C2423 1.385 . S
C2424 C2425 1.389 . S
C2425 C2424 1.389 . S
C2425 C2426 1.387 . S
C2426 H2411 0.930 . S
C2426 C2421 1.390 . S
C2426 C2425 1.387 . S
H2427 C2439 0.930 . S
H2428 C2441 0.930 . S
H2429 C2442 0.930 . S
H2430 C2446 0.959 . S
H2431 C2446 0.959 . S
H2432 C2446 0.961 . S
H2433 C2447 0.960 . S
H2434 C2447 0.961 . S
H2435 C2447 0.959 . S
H2436 C2450 0.929 . S
H2437 C2451 0.931 . S
H2438 C2453 0.930 . S
C2439 H2427 0.930 . S
C2439 C2440 1.399 . S
C2439 C2444 1.399 . S
C2440 C2439 1.399 . S
C2440 C2441 1.376 . S
C2441 H2428 0.930 . S
C2441 C2440 1.376 . S
C2441 C2442 1.388 . S
C2442 H2429 0.930 . S
C2442 C2441 1.388 . S
C2442 C2443 1.390 . S
C2443 C2442 1.390 . S
C2443 C2444 1.394 . S
C2443 C2449 1.465 . S
C2444 C2439 1.399 . S
C2444 C2443 1.394 . S
C2444 C2445 1.516 . S
C2445 C2444 1.516 . S
C2445 C2446 1.502 . S
C2445 C2447 1.561 . S
C2445 C2448 1.526 . S
C2446 H2430 0.959 . S
C2446 H2431 0.959 . S
C2446 H2432 0.961 . S
C2446 C2445 1.502 . S
C2447 H2433 0.960 . S
C2447 H2434 0.961 . S
C2447 H2435 0.959 . S
C2447 C2445 1.561 . S
C2448 C2445 1.526 . S
C2448 C2449 1.396 . S
C2448 C2453 1.390 . S
C2449 C2443 1.465 . S
C2449 C2448 1.396 . S
C2449 C2450 1.399 . S
C2450 H2436 0.929 . S
C2450 C2449 1.399 . S
C2450 C2451 1.385 . S
C2451 H2437 0.931 . S
C2451 C2450 1.385 . S
C2451 C2452 1.389 . S
C2452 C2451 1.389 . S
C2452 C2453 1.387 . S
C2453 H2438 0.930 . S
C2453 C2448 1.390 . S
C2453 C2452 1.387 . S
H2454 C2466 0.930 . S
H2455 C2468 0.930 . S
H2456 C2469 0.930 . S
H2457 C2473 0.959 . S
H2458 C2473 0.959 . S
H2459 C2473 0.961 . S
H2460 C2474 0.960 . S
H2461 C2474 0.961 . S
H2462 C2474 0.959 . S
H2463 C2477 0.929 . S
H2464 C2478 0.931 . S
H2465 C2480 0.930 . S
C2466 H2454 0.930 . S
C2466 C2467 1.399 . S
C2466 C2471 1.399 . S
C2467 C2466 1.399 . S
C2467 C2468 1.376 . S
C2468 H2455 0.930 . S
C2468 C2467 1.376 . S
C2468 C2469 1.388 . S
C2469 H2456 0.930 . S
C2469 C2468 1.388 . S
C2469 C2470 1.390 . S
C2470 C2469 1.390 . S
C2470 C2471 1.394 . S
C2470 C2476 1.465 . S
C2471 C2466 1.399 . S
C2471 C2470 1.394 . S
C2471 C2472 1.516 . S
C2472 C2471 1.516 . S
C2472 C2473 1.502 . S
C2472 C2474 1.561 . S
C2472 C2475 1.526 . S
C2473 H2457 0.959 . S
C2473 H2458 0.959 . S
C2473 H2459 0.961 . S
C2473 C2472 1.502 . S
C2474 H2460 0.960 . S
C2474 H2461 0.961 . S
C2474 H2462 0.959 . S
C2474 C2472 1.561 . S
C2475 C2472 1.526 . S
C2475 C2476 1.396 . S
C2475 C2480 1.390 . S
C2476 C2470 1.465 . S
C2476 C2475 1.396 . S
C2476 C2477 1.399 . S
C2477 H2463 0.929 . S
C2477 C2476 1.399 . S
C2477 C2478 1.385 . S
C2478 H2464 0.931 . S
C2478 C2477 1.385 . S
C2478 C2479 1.389 . S
C2479 C2478 1.389 . S
C2479 C2480 1.387 . S
C2480 H2465 0.930 . S
C2480 C2475 1.390 . S
C2480 C2479 1.387 . S
H2481 C2493 0.930 . S
H2482 C2495 0.930 . S
H2483 C2496 0.930 . S
H2484 C2500 0.959 . S
H2485 C2500 0.959 . S
H2486 C2500 0.961 . S
H2487 C2501 0.960 . S
H2488 C2501 0.961 . S
H2489 C2501 0.959 . S
H2490 C2504 0.929 . S
H2491 C2505 0.931 . S
H2492 C2507 0.930 . S
C2493 H2481 0.930 . S
C2493 C2494 1.399 . S
C2493 C2498 1.399 . S
C2494 C2493 1.399 . S
C2494 C2495 1.376 . S
C2495 H2482 0.930 . S
C2495 C2494 1.376 . S
C2495 C2496 1.388 . S
C2496 H2483 0.930 . S
C2496 C2495 1.388 . S
C2496 C2497 1.390 . S
C2497 C2496 1.390 . S
C2497 C2498 1.394 . S
C2497 C2503 1.465 . S
C2498 C2493 1.399 . S
C2498 C2497 1.394 . S
C2498 C2499 1.516 . S
C2499 C2498 1.516 . S
C2499 C2500 1.502 . S
C2499 C2501 1.561 . S
C2499 C2502 1.526 . S
C2500 H2484 0.959 . S
C2500 H2485 0.959 . S
C2500 H2486 0.961 . S
C2500 C2499 1.502 . S
C2501 H2487 0.960 . S
C2501 H2488 0.961 . S
C2501 H2489 0.959 . S
C2501 C2499 1.561 . S
C2502 C2499 1.526 . S
C2502 C2503 1.396 . S
C2502 C2507 1.390 . S
C2503 C2497 1.465 . S
C2503 C2502 1.396 . S
C2503 C2504 1.399 . S
C2504 H2490 0.929 . S
C2504 C2503 1.399 . S
C2504 C2505 1.385 . S
C2505 H2491 0.931 . S
C2505 C2504 1.385 . S
C2505 C2506 1.389 . S
C2506 C2505 1.389 . S
C2506 C2507 1.387 . S
C2507 H2492 0.930 . S
C2507 C2502 1.390 . S
C2507 C2506 1.387 . S
H2508 C2520 0.930 . S
H2509 C2522 0.930 . S
H2510 C2523 0.930 . S
H2511 C2527 0.959 . S
H2512 C2527 0.959 . S
H2513 C2527 0.961 . S
H2514 C2528 0.960 . S
H2515 C2528 0.961 . S
H2516 C2528 0.959 . S
H2517 C2531 0.929 . S
H2518 C2532 0.931 . S
H2519 C2534 0.930 . S
C2520 H2508 0.930 . S
C2520 C2521 1.399 . S
C2520 C2525 1.399 . S
C2521 C2520 1.399 . S
C2521 C2522 1.376 . S
C2522 H2509 0.930 . S
C2522 C2521 1.376 . S
C2522 C2523 1.388 . S
C2523 H2510 0.930 . S
C2523 C2522 1.388 . S
C2523 C2524 1.390 . S
C2524 C2523 1.390 . S
C2524 C2525 1.394 . S
C2524 C2530 1.465 . S
C2525 C2520 1.399 . S
C2525 C2524 1.394 . S
C2525 C2526 1.516 . S
C2526 C2525 1.516 . S
C2526 C2527 1.502 . S
C2526 C2528 1.561 . S
C2526 C2529 1.526 . S
C2527 H2511 0.959 . S
C2527 H2512 0.959 . S
C2527 H2513 0.961 . S
C2527 C2526 1.502 . S
C2528 H2514 0.960 . S
C2528 H2515 0.961 . S
C2528 H2516 0.959 . S
C2528 C2526 1.561 . S
C2529 C2526 1.526 . S
C2529 C2530 1.396 . S
C2529 C2534 1.390 . S
C2530 C2524 1.465 . S
C2530 C2529 1.396 . S
C2530 C2531 1.399 . S
C2531 H2517 0.929 . S
C2531 C2530 1.399 . S
C2531 C2532 1.385 . S
C2532 H2518 0.931 . S
C2532 C2531 1.385 . S
C2532 C2533 1.389 . S
C2533 C2532 1.389 . S
C2533 C2534 1.387 . S
C2534 H2519 0.930 . S
C2534 C2529 1.390 . S
C2534 C2533 1.387 . S
H2535 C2547 0.930 . S
H2536 C2549 0.930 . S
H2537 C2550 0.930 . S
H2538 C2554 0.959 . S
H2539 C2554 0.959 . S
H2540 C2554 0.961 . S
H2541 C2555 0.960 . S
H2542 C2555 0.961 . S
H2543 C2555 0.959 . S
H2544 C2558 0.929 . S
H2545 C2559 0.931 . S
H2546 C2561 0.930 . S
C2547 H2535 0.930 . S
C2547 C2548 1.399 . S
C2547 C2552 1.399 . S
C2548 C2547 1.399 . S
C2548 C2549 1.376 . S
C2549 H2536 0.930 . S
C2549 C2548 1.376 . S
C2549 C2550 1.388 . S
C2550 H2537 0.930 . S
C2550 C2549 1.388 . S
C2550 C2551 1.390 . S
C2551 C2550 1.390 . S
C2551 C2552 1.394 . S
C2551 C2557 1.465 . S
C2552 C2547 1.399 . S
C2552 C2551 1.394 . S
C2552 C2553 1.516 . S
C2553 C2552 1.516 . S
C2553 C2554 1.502 . S
C2553 C2555 1.561 . S
C2553 C2556 1.526 . S
C2554 H2538 0.959 . S
C2554 H2539 0.959 . S
C2554 H2540 0.961 . S
C2554 C2553 1.502 . S
C2555 H2541 0.960 . S
C2555 H2542 0.961 . S
C2555 H2543 0.959 . S
C2555 C2553 1.561 . S
C2556 C2553 1.526 . S
C2556 C2557 1.396 . S
C2556 C2561 1.390 . S
C2557 C2551 1.465 . S
C2557 C2556 1.396 . S
C2557 C2558 1.399 . S
C2558 H2544 0.929 . S
C2558 C2557 1.399 . S
C2558 C2559 1.385 . S
C2559 H2545 0.931 . S
C2559 C2558 1.385 . S
C2559 C2560 1.389 . S
C2560 C2559 1.389 . S
C2560 C2561 1.387 . S
C2561 H2546 0.930 . S
C2561 C2556 1.390 . S
C2561 C2560 1.387 . S
H2562 C2574 0.930 . S
H2563 C2576 0.930 . S
H2564 C2577 0.930 . S
H2565 C2581 0.959 . S
H2566 C2581 0.959 . S
H2567 C2581 0.961 . S
H2568 C2582 0.960 . S
H2569 C2582 0.961 . S
H2570 C2582 0.959 . S
H2571 C2585 0.929 . S
H2572 C2586 0.931 . S
H2573 C2588 0.930 . S
C2574 H2562 0.930 . S
C2574 C2575 1.399 . S
C2574 C2579 1.399 . S
C2575 C2574 1.399 . S
C2575 C2576 1.376 . S
C2576 H2563 0.930 . S
C2576 C2575 1.376 . S
C2576 C2577 1.388 . S
C2577 H2564 0.930 . S
C2577 C2576 1.388 . S
C2577 C2578 1.390 . S
C2578 C2577 1.390 . S
C2578 C2579 1.394 . S
C2578 C2584 1.465 . S
C2579 C2574 1.399 . S
C2579 C2578 1.394 . S
C2579 C2580 1.516 . S
C2580 C2579 1.516 . S
C2580 C2581 1.502 . S
C2580 C2582 1.561 . S
C2580 C2583 1.526 . S
C2581 H2565 0.959 . S
C2581 H2566 0.959 . S
C2581 H2567 0.961 . S
C2581 C2580 1.502 . S
C2582 H2568 0.960 . S
C2582 H2569 0.961 . S
C2582 H2570 0.959 . S
C2582 C2580 1.561 . S
C2583 C2580 1.526 . S
C2583 C2584 1.396 . S
C2583 C2588 1.390 . S
C2584 C2578 1.465 . S
C2584 C2583 1.396 . S
C2584 C2585 1.399 . S
C2585 H2571 0.929 . S
C2585 C2584 1.399 . S
C2585 C2586 1.385 . S
C2586 H2572 0.931 . S
C2586 C2585 1.385 . S
C2586 C2587 1.389 . S
C2587 C2586 1.389 . S
C2587 C2588 1.387 . S
C2588 H2573 0.930 . S
C2588 C2583 1.390 . S
C2588 C2587 1.387 . S
H2589 C2601 0.930 . S
H2590 C2603 0.930 . S
H2591 C2604 0.930 . S
H2592 C2608 0.959 . S
H2593 C2608 0.959 . S
H2594 C2608 0.961 . S
H2595 C2609 0.960 . S
H2596 C2609 0.961 . S
H2597 C2609 0.959 . S
H2598 C2612 0.929 . S
H2599 C2613 0.931 . S
H2600 C2615 0.930 . S
C2601 H2589 0.930 . S
C2601 C2602 1.399 . S
C2601 C2606 1.399 . S
C2602 C2601 1.399 . S
C2602 C2603 1.376 . S
C2603 H2590 0.930 . S
C2603 C2602 1.376 . S
C2603 C2604 1.388 . S
C2604 H2591 0.930 . S
C2604 C2603 1.388 . S
C2604 C2605 1.390 . S
C2605 C2604 1.390 . S
C2605 C2606 1.394 . S
C2605 C2611 1.465 . S
C2606 C2601 1.399 . S
C2606 C2605 1.394 . S
C2606 C2607 1.516 . S
C2607 C2606 1.516 . S
C2607 C2608 1.502 . S
C2607 C2609 1.561 . S
C2607 C2610 1.526 . S
C2608 H2592 0.959 . S
C2608 H2593 0.959 . S
C2608 H2594 0.961 . S
C2608 C2607 1.502 . S
C2609 H2595 0.960 . S
C2609 H2596 0.961 . S
C2609 H2597 0.959 . S
C2609 C2607 1.561 . S
C2610 C2607 1.526 . S
C2610 C2611 1.396 . S
C2610 C2615 1.390 . S
C2611 C2605 1.465 . S
C2611 C2610 1.396 . S
C2611 C2612 1.399 . S
C2612 H2598 0.929 . S
C2612 C2611 1.399 . S
C2612 C2613 1.385 . S
C2613 H2599 0.931 . S
C2613 C2612 1.385 . S
C2613 C2614 1.389 . S
C2614 C2613 1.389 . S
C2614 C2615 1.387 . S
C2615 H2600 0.930 . S
C2615 C2610 1.390 . S
C2615 C2614 1.387 . S
H2616 C2628 0.930 . S
H2617 C2630 0.930 . S
H2618 C2631 0.930 . S
H2619 C2635 0.959 . S
H2620 C2635 0.959 . S
H2621 C2635 0.961 . S
H2622 C2636 0.960 . S
H2623 C2636 0.961 . S
H2624 C2636 0.959 . S
H2625 C2639 0.929 . S
H2626 C2640 0.931 . S
H2627 C2642 0.930 . S
C2628 H2616 0.930 . S
C2628 C2629 1.399 . S
C2628 C2633 1.399 . S
C2629 C2628 1.399 . S
C2629 C2630 1.376 . S
C2630 H2617 0.930 . S
C2630 C2629 1.376 . S
C2630 C2631 1.388 . S
C2631 H2618 0.930 . S
C2631 C2630 1.388 . S
C2631 C2632 1.390 . S
C2632 C2631 1.390 . S
C2632 C2633 1.394 . S
C2632 C2638 1.465 . S
C2633 C2628 1.399 . S
C2633 C2632 1.394 . S
C2633 C2634 1.516 . S
C2634 C2633 1.516 . S
C2634 C2635 1.502 . S
C2634 C2636 1.561 . S
C2634 C2637 1.526 . S
C2635 H2619 0.959 . S
C2635 H2620 0.959 . S
C2635 H2621 0.961 . S
C2635 C2634 1.502 . S
C2636 H2622 0.960 . S
C2636 H2623 0.961 . S
C2636 H2624 0.959 . S
C2636 C2634 1.561 . S
C2637 C2634 1.526 . S
C2637 C2638 1.396 . S
C2637 C2642 1.390 . S
C2638 C2632 1.465 . S
C2638 C2637 1.396 . S
C2638 C2639 1.399 . S
C2639 H2625 0.929 . S
C2639 C2638 1.399 . S
C2639 C2640 1.385 . S
C2640 H2626 0.931 . S
C2640 C2639 1.385 . S
C2640 C2641 1.389 . S
C2641 C2640 1.389 . S
C2641 C2642 1.387 . S
C2642 H2627 0.930 . S
C2642 C2637 1.390 . S
C2642 C2641 1.387 . S
H2643 C2655 0.930 . S
H2644 C2657 0.930 . S
H2645 C2658 0.897 1_545 S
H2646 C2662 0.959 1_455 S
H2647 C2662 0.959 1_455 S
H2648 C2662 0.950 1_455 S
H2649 C2663 0.960 . S
H2650 C2663 0.961 . S
H2651 C2663 0.959 . S
H2652 C2666 0.929 . S
H2653 C2667 0.931 . S
H2654 C2669 0.930 . S
C2655 H2643 0.930 . S
C2655 C2656 1.399 . S
C2655 C2660 1.399 . S
C2656 C2655 1.399 . S
C2656 C2657 1.376 . S
C2657 H2644 0.930 . S
C2657 C2656 1.376 . S
C2657 C2658 1.388 . S
C2658 H2645 0.897 1_565 S
C2658 C2657 1.388 . S
C2658 C2659 1.390 . S
C2659 C2658 1.390 . S
C2659 C2660 1.394 . S
C2659 C2665 1.465 1_565 S
C2660 C2655 1.399 . S
C2660 C2659 1.394 . S
C2660 C2661 1.516 . S
C2661 C2660 1.516 . S
C2661 C2662 1.502 . S
C2661 C2663 1.561 . S
C2661 C2664 1.526 1_565 S
C2662 H2646 0.959 1_655 S
C2662 H2647 0.959 1_655 S
C2662 H2648 0.950 1_655 S
C2662 C2661 1.502 . S
C2663 H2649 0.960 . S
C2663 H2650 0.961 . S
C2663 H2651 0.959 . S
C2663 C2661 1.561 . S
C2664 C2661 1.526 1_545 S
C2664 C2665 1.396 . S
C2664 C2669 1.390 . S
C2665 C2659 1.465 1_545 S
C2665 C2664 1.396 . S
C2665 C2666 1.399 . S
C2666 H2652 0.929 . S
C2666 C2665 1.399 . S
C2666 C2667 1.385 . S
C2667 H2653 0.931 . S
C2667 C2666 1.385 . S
C2667 C2668 1.389 . S
C2668 C2667 1.389 . S
C2668 C2669 1.387 . S
C2669 H2654 0.930 . S
C2669 C2664 1.390 . S
C2669 C2668 1.387 . S
H2670 C2682 0.930 . S
H2671 C2684 0.930 . S
H2672 C2685 0.930 1_565 S
H2673 C2689 0.959 . S
H2674 C2689 0.959 . S
H2675 C2689 0.961 . S
H2676 C2690 0.960 . S
H2677 C2690 0.961 . S
H2678 C2690 0.959 . S
H2679 C2693 0.929 1_565 S
H2680 C2694 0.931 . S
H2681 C2696 0.930 . S
C2682 H2670 0.930 . S
C2682 C2683 1.399 . S
C2682 C2687 1.399 . S
C2683 C2682 1.399 . S
C2683 C2684 1.376 . S
C2684 H2671 0.930 . S
C2684 C2683 1.376 . S
C2684 C2685 1.388 . S
C2685 H2672 0.930 1_545 S
C2685 C2684 1.388 . S
C2685 C2686 1.390 . S
C2686 C2685 1.390 . S
C2686 C2687 1.394 . S
C2686 C2692 1.465 . S
C2687 C2682 1.399 . S
C2687 C2686 1.394 . S
C2687 C2688 1.516 . S
C2688 C2687 1.516 . S
C2688 C2689 1.502 . S
C2688 C2690 1.561 . S
C2688 C2691 1.526 . S
C2689 H2673 0.959 . S
C2689 H2674 0.959 . S
C2689 H2675 0.961 . S
C2689 C2688 1.502 . S
C2690 H2676 0.960 . S
C2690 H2677 0.961 . S
C2690 H2678 0.959 . S
C2690 C2688 1.561 . S
C2691 C2688 1.526 . S
C2691 C2692 1.396 . S
C2691 C2696 1.390 . S
C2692 C2686 1.465 . S
C2692 C2691 1.396 . S
C2692 C2693 1.399 . S
C2693 H2679 0.929 1_545 S
C2693 C2692 1.399 . S
C2693 C2694 1.385 . S
C2694 H2680 0.931 . S
C2694 C2693 1.385 . S
C2694 C2695 1.389 . S
C2695 C2694 1.389 . S
C2695 C2696 1.387 . S
C2696 H2681 0.930 . S
C2696 C2691 1.390 . S
C2696 C2695 1.387 . S
H2697 C2709 0.930 . S
H2698 C2711 0.930 . S
H2699 C2712 0.930 . S
H2700 C2716 0.959 . S
H2701 C2716 0.959 . S
H2702 C2716 0.961 . S
H2703 C2717 0.960 . S
H2704 C2717 0.961 . S
H2705 C2717 0.959 . S
H2706 C2720 0.929 . S
H2707 C2721 0.931 . S
H2708 C2723 0.930 . S
C2709 H2697 0.930 . S
C2709 C2710 1.399 . S
C2709 C2714 1.399 . S
C2710 C2709 1.399 . S
C2710 C2711 1.376 . S
C2711 H2698 0.930 . S
C2711 C2710 1.376 . S
C2711 C2712 1.388 . S
C2712 H2699 0.930 . S
C2712 C2711 1.388 . S
C2712 C2713 1.390 . S
C2713 C2712 1.390 . S
C2713 C2714 1.394 . S
C2713 C2719 1.465 . S
C2714 C2709 1.399 . S
C2714 C2713 1.394 . S
C2714 C2715 1.516 . S
C2715 C2714 1.516 . S
C2715 C2716 1.502 . S
C2715 C2717 1.561 . S
C2715 C2718 1.526 . S
C2716 H2700 0.959 . S
C2716 H2701 0.959 . S
C2716 H2702 0.961 . S
C2716 C2715 1.502 . S
C2717 H2703 0.960 . S
C2717 H2704 0.961 . S
C2717 H2705 0.959 . S
C2717 C2715 1.561 . S
C2718 C2715 1.526 . S
C2718 C2719 1.396 . S
C2718 C2723 1.390 . S
C2719 C2713 1.465 . S
C2719 C2718 1.396 . S
C2719 C2720 1.399 . S
C2720 H2706 0.929 . S
C2720 C2719 1.399 . S
C2720 C2721 1.385 . S
C2721 H2707 0.931 . S
C2721 C2720 1.385 . S
C2721 C2722 1.389 . S
C2722 C2721 1.389 . S
C2722 C2723 1.387 . S
C2723 H2708 0.930 . S
C2723 C2718 1.390 . S
C2723 C2722 1.387 . S
H2724 C2736 0.930 . S
H2725 C2738 0.930 . S
H2726 C2739 0.930 1_545 S
H2727 C2743 0.959 . S
H2728 C2743 0.959 . S
H2729 C2743 0.961 . S
H2730 C2744 0.960 1_556 S
H2731 C2744 0.961 . S
H2732 C2744 0.959 . S
H2733 C2747 0.929 1_545 S
H2734 C2748 0.931 . S
H2735 C2750 0.930 . S
C2736 H2724 0.930 . S
C2736 C2737 1.399 . S
C2736 C2741 1.399 . S
C2737 C2736 1.399 . S
C2737 C2738 1.376 . S
C2738 H2725 0.930 . S
C2738 C2737 1.376 . S
C2738 C2739 1.388 . S
C2739 H2726 0.930 1_565 S
C2739 C2738 1.388 . S
C2739 C2740 1.390 . S
C2740 C2739 1.390 . S
C2740 C2741 1.394 . S
C2740 C2746 1.465 1_556 S
C2741 C2736 1.399 . S
C2741 C2740 1.394 . S
C2741 C2742 1.516 . S
C2742 C2741 1.516 . S
C2742 C2743 1.502 . S
C2742 C2744 1.561 1_556 S
C2742 C2745 1.526 1_556 S
C2743 H2727 0.959 . S
C2743 H2728 0.959 . S
C2743 H2729 0.961 . S
C2743 C2742 1.502 . S
C2744 H2730 0.960 1_554 S
C2744 H2731 0.961 . S
C2744 H2732 0.959 . S
C2744 C2742 1.561 1_554 S
C2745 C2742 1.526 1_554 S
C2745 C2746 1.396 . S
C2745 C2750 1.390 . S
C2746 C2740 1.465 1_554 S
C2746 C2745 1.396 . S
C2746 C2747 1.399 . S
C2747 H2733 0.929 1_565 S
C2747 C2746 1.399 . S
C2747 C2748 1.385 . S
C2748 H2734 0.931 . S
C2748 C2747 1.385 . S
C2748 C2749 1.389 . S
C2749 C2748 1.389 . S
C2749 C2750 1.387 . S
C2750 H2735 0.930 . S
C2750 C2745 1.390 . S
C2750 C2749 1.387 . S
H2751 C2763 0.930 . S
H2752 C2765 0.930 . S
H2753 C2766 0.930 . S
H2754 C2770 0.959 . S
H2755 C2770 0.959 . S
H2756 C2770 0.961 . S
H2757 C2771 0.960 1_554 S
H2758 C2771 0.961 . S
H2759 C2771 0.959 . S
H2760 C2774 0.929 . S
H2761 C2775 0.931 . S
H2762 C2777 0.930 . S
C2763 H2751 0.930 . S
C2763 C2764 1.399 . S
C2763 C2768 1.399 . S
C2764 C2763 1.399 . S
C2764 C2765 1.376 . S
C2765 H2752 0.930 . S
C2765 C2764 1.376 . S
C2765 C2766 1.388 . S
C2766 H2753 0.930 . S
C2766 C2765 1.388 . S
C2766 C2767 1.390 . S
C2767 C2766 1.390 . S
C2767 C2768 1.394 . S
C2767 C2773 1.465 1_554 S
C2768 C2763 1.399 . S
C2768 C2767 1.394 . S
C2768 C2769 1.516 . S
C2769 C2768 1.516 . S
C2769 C2770 1.502 . S
C2769 C2771 1.561 1_554 S
C2769 C2772 1.526 1_554 S
C2770 H2754 0.959 . S
C2770 H2755 0.959 . S
C2770 H2756 0.961 . S
C2770 C2769 1.502 . S
C2771 H2757 0.960 1_556 S
C2771 H2758 0.961 . S
C2771 H2759 0.959 . S
C2771 C2769 1.561 1_556 S
C2772 C2769 1.526 1_556 S
C2772 C2773 1.396 . S
C2772 C2777 1.390 . S
C2773 C2767 1.465 1_556 S
C2773 C2772 1.396 . S
C2773 C2774 1.399 . S
C2774 H2760 0.929 . S
C2774 C2773 1.399 . S
C2774 C2775 1.385 . S
C2775 H2761 0.931 . S
C2775 C2774 1.385 . S
C2775 C2776 1.389 . S
C2776 C2775 1.389 . S
C2776 C2777 1.387 . S
C2777 H2762 0.930 . S
C2777 C2772 1.390 . S
C2777 C2776 1.387 . S
H2778 C2790 0.930 . S
H2779 C2792 0.930 . S
H2780 C2793 0.930 . S
H2781 C2797 0.959 . S
H2782 C2797 0.959 1_556 S
H2783 C2797 0.961 1_556 S
H2784 C2798 0.960 . S
H2785 C2798 0.961 . S
H2786 C2798 0.968 . S
H2787 C2801 0.929 . S
H2788 C2802 0.931 . S
H2789 C2804 0.930 . S
C2790 H2778 0.930 . S
C2790 C2791 1.399 . S
C2790 C2795 1.399 . S
C2791 C2790 1.399 . S
C2791 C2792 1.376 . S
C2792 H2779 0.930 . S
C2792 C2791 1.376 . S
C2792 C2793 1.388 . S
C2793 H2780 0.930 . S
C2793 C2792 1.388 . S
C2793 C2794 1.390 . S
C2794 C2793 1.390 . S
C2794 C2795 1.394 . S
C2794 C2800 1.465 . S
C2795 C2790 1.399 . S
C2795 C2794 1.394 . S
C2795 C2796 1.516 . S
C2796 C2795 1.516 . S
C2796 C2797 1.502 . S
C2796 C2798 1.561 1_554 S
C2796 C2799 1.526 . S
C2797 H2781 0.959 . S
C2797 H2782 0.959 1_554 S
C2797 H2783 0.961 1_554 S
C2797 C2796 1.502 . S
C2798 H2784 0.960 . S
C2798 H2785 0.961 . S
C2798 H2786 0.968 . S
C2798 C2796 1.561 1_556 S
C2799 C2796 1.526 . S
C2799 C2800 1.396 . S
C2799 C2804 1.390 . S
C2800 C2794 1.465 . S
C2800 C2799 1.396 . S
C2800 C2801 1.399 . S
C2801 H2787 0.929 . S
C2801 C2800 1.399 . S
C2801 C2802 1.385 . S
C2802 H2788 0.931 . S
C2802 C2801 1.385 . S
C2802 C2803 1.389 . S
C2803 C2802 1.389 . S
C2803 C2804 1.387 . S
C2804 H2789 0.930 . S
C2804 C2799 1.390 . S
C2804 C2803 1.387 . S
H2805 C2817 0.930 . S
H2806 C2819 0.930 . S
H2807 C2820 0.930 . S
H2808 C2824 0.959 . S
H2809 C2824 0.959 . S
H2810 C2824 0.961 . S
H2811 C2825 0.960 . S
H2812 C2825 0.961 . S
H2813 C2825 0.959 . S
H2814 C2828 0.929 . S
H2815 C2829 0.931 . S
H2816 C2831 0.930 . S
C2817 H2805 0.930 . S
C2817 C2818 1.399 . S
C2817 C2822 1.399 . S
C2818 C2817 1.399 . S
C2818 C2819 1.376 . S
C2819 H2806 0.930 . S
C2819 C2818 1.376 . S
C2819 C2820 1.388 . S
C2820 H2807 0.930 . S
C2820 C2819 1.388 . S
C2820 C2821 1.390 . S
C2821 C2820 1.390 . S
C2821 C2822 1.394 . S
C2821 C2827 1.465 . S
C2822 C2817 1.399 . S
C2822 C2821 1.394 . S
C2822 C2823 1.516 . S
C2823 C2822 1.516 . S
C2823 C2824 1.502 . S
C2823 C2825 1.561 . S
C2823 C2826 1.526 . S
C2824 H2808 0.959 . S
C2824 H2809 0.959 . S
C2824 H2810 0.961 . S
C2824 C2823 1.502 . S
C2825 H2811 0.960 . S
C2825 H2812 0.961 . S
C2825 H2813 0.959 . S
C2825 C2823 1.561 . S
C2826 C2823 1.526 . S
C2826 C2827 1.396 . S
C2826 C2831 1.390 . S
C2827 C2821 1.465 . S
C2827 C2826 1.396 . S
C2827 C2828 1.399 . S
C2828 H2814 0.929 . S
C2828 C2827 1.399 . S
C2828 C2829 1.385 . S
C2829 H2815 0.931 . S
C2829 C2828 1.385 . S
C2829 C2830 1.389 . S
C2830 C2829 1.389 . S
C2830 C2831 1.387 . S
C2831 H2816 0.930 . S
C2831 C2826 1.390 . S
C2831 C2830 1.387 . S
H2832 C2844 0.930 . S
H2833 C2846 0.930 . S
H2834 C2847 0.930 . S
H2835 C2851 0.959 . S
H2836 C2851 0.959 . S
H2837 C2851 0.961 . S
H2838 C2852 0.960 1_455 S
H2839 C2852 0.961 . S
H2840 C2852 0.959 . S
H2841 C2855 0.929 . S
H2842 C2856 0.931 . S
H2843 C2858 0.930 . S
C2844 H2832 0.930 . S
C2844 C2845 1.399 . S
C2844 C2849 1.399 . S
C2845 C2844 1.399 . S
C2845 C2846 1.376 . S
C2846 H2833 0.930 . S
C2846 C2845 1.376 . S
C2846 C2847 1.388 . S
C2847 H2834 0.930 . S
C2847 C2846 1.388 . S
C2847 C2848 1.390 . S
C2848 C2847 1.390 . S
C2848 C2849 1.394 . S
C2848 C2854 1.465 1_455 S
C2849 C2844 1.399 . S
C2849 C2848 1.394 . S
C2849 C2850 1.516 . S
C2850 C2849 1.516 . S
C2850 C2851 1.502 . S
C2850 C2852 1.561 1_455 S
C2850 C2853 1.526 1_455 S
C2851 H2835 0.959 . S
C2851 H2836 0.959 . S
C2851 H2837 0.961 . S
C2851 C2850 1.502 . S
C2852 H2838 0.960 1_655 S
C2852 H2839 0.961 . S
C2852 H2840 0.959 . S
C2852 C2850 1.561 1_655 S
C2853 C2850 1.526 1_655 S
C2853 C2854 1.396 . S
C2853 C2858 1.390 . S
C2854 C2848 1.465 1_655 S
C2854 C2853 1.396 . S
C2854 C2855 1.399 . S
C2855 H2841 0.929 . S
C2855 C2854 1.399 . S
C2855 C2856 1.385 . S
C2856 H2842 0.931 . S
C2856 C2855 1.385 . S
C2856 C2857 1.389 . S
C2857 C2856 1.389 . S
C2857 C2858 1.387 . S
C2858 H2843 0.930 . S
C2858 C2853 1.390 . S
C2858 C2857 1.387 . S
H2859 C2871 0.930 . S
H2860 C2873 0.930 . S
H2861 C2874 0.930 . S
H2862 C2878 0.959 1_455 S
H2863 C2878 0.959 . S
H2864 C2878 0.961 . S
H2865 C2879 0.960 . S
H2866 C2879 0.961 . S
H2867 C2879 0.959 . S
H2868 C2882 0.929 . S
H2869 C2883 0.931 . S
H2870 C2885 0.930 . S
C2871 H2859 0.930 . S
C2871 C2872 1.399 . S
C2871 C2876 1.399 . S
C2872 C2871 1.399 . S
C2872 C2873 1.376 . S
C2873 H2860 0.930 . S
C2873 C2872 1.376 . S
C2873 C2874 1.388 . S
C2874 H2861 0.930 . S
C2874 C2873 1.388 . S
C2874 C2875 1.390 . S
C2875 C2874 1.390 . S
C2875 C2876 1.394 . S
C2875 C2881 1.465 . S
C2876 C2871 1.399 . S
C2876 C2875 1.394 . S
C2876 C2877 1.516 . S
C2877 C2876 1.516 . S
C2877 C2878 1.502 . S
C2877 C2879 1.561 . S
C2877 C2880 1.526 . S
C2878 H2862 0.959 1_655 S
C2878 H2863 0.959 . S
C2878 H2864 0.961 . S
C2878 C2877 1.502 . S
C2879 H2865 0.960 . S
C2879 H2866 0.961 . S
C2879 H2867 0.959 . S
C2879 C2877 1.561 . S
C2880 C2877 1.526 . S
C2880 C2881 1.396 . S
C2880 C2885 1.390 . S
C2881 C2875 1.465 . S
C2881 C2880 1.396 . S
C2881 C2882 1.399 . S
C2882 H2868 0.929 . S
C2882 C2881 1.399 . S
C2882 C2883 1.385 . S
C2883 H2869 0.931 . S
C2883 C2882 1.385 . S
C2883 C2884 1.389 . S
C2884 C2883 1.389 . S
C2884 C2885 1.387 . S
C2885 H2870 0.930 . S
C2885 C2880 1.390 . S
C2885 C2884 1.387 . S
H2886 C2898 0.930 . S
H2887 C2900 0.930 . S
H2888 C2901 0.930 . S
H2889 C2905 0.959 . S
H2890 C2905 0.959 1_655 S
H2891 C2905 0.961 1_655 S
H2892 C2906 0.960 1_545 S
H2893 C2906 0.961 . S
H2894 C2906 0.959 . S
H2895 C2909 0.929 . S
H2896 C2910 0.931 . S
H2897 C2912 0.930 . S
C2898 H2886 0.930 . S
C2898 C2899 1.399 . S
C2898 C2903 1.399 . S
C2899 C2898 1.399 . S
C2899 C2900 1.376 . S
C2900 H2887 0.930 . S
C2900 C2899 1.376 . S
C2900 C2901 1.388 . S
C2901 H2888 0.930 . S
C2901 C2900 1.388 . S
C2901 C2902 1.390 . S
C2902 C2901 1.390 . S
C2902 C2903 1.394 . S
C2902 C2908 1.465 1_545 S
C2903 C2898 1.399 . S
C2903 C2902 1.394 . S
C2903 C2904 1.516 . S
C2904 C2903 1.516 . S
C2904 C2905 1.502 . S
C2904 C2906 1.561 1_445 S
C2904 C2907 1.526 1_545 S
C2905 H2889 0.959 . S
C2905 H2890 0.959 1_455 S
C2905 H2891 0.961 1_455 S
C2905 C2904 1.502 . S
C2906 H2892 0.960 1_565 S
C2906 H2893 0.961 . S
C2906 H2894 0.959 . S
C2906 C2904 1.561 1_665 S
C2907 C2904 1.526 1_565 S
C2907 C2908 1.396 . S
C2907 C2912 1.390 . S
C2908 C2902 1.465 1_565 S
C2908 C2907 1.396 . S
C2908 C2909 1.399 . S
C2909 H2895 0.929 . S
C2909 C2908 1.399 . S
C2909 C2910 1.385 . S
C2910 H2896 0.931 . S
C2910 C2909 1.385 . S
C2910 C2911 1.389 . S
C2911 C2910 1.389 . S
C2911 C2912 1.387 . S
C2912 H2897 0.930 . S
C2912 C2907 1.390 . S
C2912 C2911 1.387 . S
H2913 C2925 0.930 . S
H2914 C2927 0.930 . S
H2915 C2928 0.930 . S
H2916 C2932 0.970 . S
H2917 C2932 0.950 1_545 S
H2918 C2932 0.953 1_545 S
H2919 C2933 0.960 . S
H2920 C2933 0.961 . S
H2921 C2933 0.948 1_565 S
H2922 C2936 0.929 . S
H2923 C2937 0.931 . S
H2924 C2939 0.930 . S
C2925 H2913 0.930 . S
C2925 C2926 1.399 . S
C2925 C2930 1.399 . S
C2926 C2925 1.399 . S
C2926 C2927 1.376 . S
C2927 H2914 0.930 . S
C2927 C2926 1.376 . S
C2927 C2928 1.388 . S
C2928 H2915 0.930 . S
C2928 C2927 1.388 . S
C2928 C2929 1.390 . S
C2929 C2928 1.390 . S
C2929 C2930 1.394 . S
C2929 C2935 1.465 . S
C2930 C2925 1.399 . S
C2930 C2929 1.394 . S
C2930 C2931 1.516 . S
C2931 C2930 1.516 . S
C2931 C2932 1.509 . S
C2931 C2933 1.561 1_565 S
C2931 C2934 1.526 . S
C2932 H2916 0.970 . S
C2932 H2917 0.950 1_565 S
C2932 H2918 0.953 1_565 S
C2932 C2931 1.509 . S
C2933 H2919 0.960 . S
C2933 H2920 0.961 . S
C2933 H2921 0.948 1_545 S
C2933 C2931 1.561 1_545 S
C2934 C2931 1.526 . S
C2934 C2935 1.396 . S
C2934 C2939 1.390 . S
C2935 C2929 1.465 . S
C2935 C2934 1.396 . S
C2935 C2936 1.399 . S
C2936 H2922 0.929 . S
C2936 C2935 1.399 . S
C2936 C2937 1.385 . S
C2937 H2923 0.931 . S
C2937 C2936 1.385 . S
C2937 C2938 1.389 . S
C2938 C2937 1.389 . S
C2938 C2939 1.387 . S
C2939 H2924 0.930 . S
C2939 C2934 1.390 . S
C2939 C2938 1.387 . S
H2940 C2952 0.930 . S
H2941 C2954 0.930 . S
H2942 C2955 0.930 . S
H2943 C2959 0.959 . S
H2944 C2959 0.959 . S
H2945 C2959 0.961 . S
H2946 C2960 0.960 . S
H2947 C2960 0.961 . S
H2948 C2960 0.959 . S
H2949 C2963 0.929 . S
H2950 C2964 0.931 . S
H2951 C2966 0.930 . S
C2952 H2940 0.930 . S
C2952 C2953 1.399 . S
C2952 C2957 1.399 . S
C2953 C2952 1.399 . S
C2953 C2954 1.376 . S
C2954 H2941 0.930 . S
C2954 C2953 1.376 . S
C2954 C2955 1.388 . S
C2955 H2942 0.930 . S
C2955 C2954 1.388 . S
C2955 C2956 1.390 . S
C2956 C2955 1.390 . S
C2956 C2957 1.394 . S
C2956 C2962 1.465 . S
C2957 C2952 1.399 . S
C2957 C2956 1.394 . S
C2957 C2958 1.516 . S
C2958 C2957 1.516 . S
C2958 C2959 1.502 . S
C2958 C2960 1.561 . S
C2958 C2961 1.526 . S
C2959 H2943 0.959 . S
C2959 H2944 0.959 . S
C2959 H2945 0.961 . S
C2959 C2958 1.502 . S
C2960 H2946 0.960 . S
C2960 H2947 0.961 . S
C2960 H2948 0.959 . S
C2960 C2958 1.561 . S
C2961 C2958 1.526 . S
C2961 C2962 1.396 . S
C2961 C2966 1.390 . S
C2962 C2956 1.465 . S
C2962 C2961 1.396 . S
C2962 C2963 1.399 . S
C2963 H2949 0.929 . S
C2963 C2962 1.399 . S
C2963 C2964 1.385 . S
C2964 H2950 0.931 . S
C2964 C2963 1.385 . S
C2964 C2965 1.389 . S
C2965 C2964 1.389 . S
C2965 C2966 1.387 . S
C2966 H2951 0.930 . S
C2966 C2961 1.390 . S
C2966 C2965 1.387 . S
H2967 C2979 0.930 . S
H2968 C2981 0.930 . S
H2969 C2982 0.930 . S
H2970 C2986 0.959 . S
H2971 C2986 0.959 . S
H2972 C2986 0.961 . S
H2973 C2987 0.960 1_556 S
H2974 C2987 0.961 . S
H2975 C2987 0.959 1_556 S
H2976 C2990 0.929 . S
H2977 C2991 0.931 . S
H2978 C2993 0.930 . S
C2979 H2967 0.930 . S
C2979 C2980 1.399 . S
C2979 C2984 1.399 . S
C2980 C2979 1.399 . S
C2980 C2981 1.376 . S
C2981 H2968 0.930 . S
C2981 C2980 1.376 . S
C2981 C2982 1.388 . S
C2982 H2969 0.930 . S
C2982 C2981 1.388 . S
C2982 C2983 1.390 . S
C2983 C2982 1.390 . S
C2983 C2984 1.394 . S
C2983 C2989 1.465 1_556 S
C2984 C2979 1.399 . S
C2984 C2983 1.394 . S
C2984 C2985 1.516 1_556 S
C2985 C2984 1.516 1_554 S
C2985 C2986 1.502 . S
C2985 C2987 1.561 . S
C2985 C2988 1.526 . S
C2986 H2970 0.959 . S
C2986 H2971 0.959 . S
C2986 H2972 0.961 . S
C2986 C2985 1.502 . S
C2987 H2973 0.960 1_554 S
C2987 H2974 0.961 . S
C2987 H2975 0.959 1_554 S
C2987 C2985 1.561 . S
C2988 C2985 1.526 . S
C2988 C2989 1.396 . S
C2988 C2993 1.390 . S
C2989 C2983 1.465 1_554 S
C2989 C2988 1.396 . S
C2989 C2990 1.399 . S
C2990 H2976 0.929 . S
C2990 C2989 1.399 . S
C2990 C2991 1.385 . S
C2991 H2977 0.931 . S
C2991 C2990 1.385 . S
C2991 C2992 1.389 . S
C2992 C2991 1.389 . S
C2992 C2993 1.387 . S
C2993 H2978 0.930 . S
C2993 C2988 1.390 . S
C2993 C2992 1.387 . S
H2994 C3006 0.930 . S
H2995 C3008 0.930 . S
H2996 C3009 0.930 . S
H2997 C3013 0.959 . S
H2998 C3013 0.959 . S
H2999 C3013 0.961 . S
H3000 C3014 0.955 1_556 S
H3001 C3014 0.968 . S
H3002 C3014 0.955 1_556 S
H3003 C3017 0.929 . S
H3004 C3018 0.931 . S
H3005 C3020 0.930 . S
C3006 H2994 0.930 . S
C3006 C3007 1.399 . S
C3006 C3011 1.399 . S
C3007 C3006 1.399 . S
C3007 C3008 1.376 . S
C3008 H2995 0.930 . S
C3008 C3007 1.376 . S
C3008 C3009 1.388 . S
C3009 H2996 0.930 . S
C3009 C3008 1.388 . S
C3009 C3010 1.390 . S
C3010 C3009 1.390 . S
C3010 C3011 1.394 . S
C3010 C3016 1.465 1_556 S
C3011 C3006 1.399 . S
C3011 C3010 1.394 . S
C3011 C3012 1.516 1_556 S
C3012 C3011 1.516 1_554 S
C3012 C3013 1.502 . S
C3012 C3014 1.564 . S
C3012 C3015 1.526 . S
C3013 H2997 0.959 . S
C3013 H2998 0.959 . S
C3013 H2999 0.961 . S
C3013 C3012 1.502 . S
C3014 H3000 0.955 1_554 S
C3014 H3001 0.968 . S
C3014 H3002 0.955 1_554 S
C3014 C3012 1.564 . S
C3015 C3012 1.526 . S
C3015 C3016 1.396 . S
C3015 C3020 1.390 . S
C3016 C3010 1.465 1_554 S
C3016 C3015 1.396 . S
C3016 C3017 1.399 . S
C3017 H3003 0.929 . S
C3017 C3016 1.399 . S
C3017 C3018 1.385 . S
C3018 H3004 0.931 . S
C3018 C3017 1.385 . S
C3018 C3019 1.389 . S
C3019 C3018 1.389 . S
C3019 C3020 1.387 . S
C3020 H3005 0.930 . S
C3020 C3015 1.390 . S
C3020 C3019 1.387 . S
H3021 C3033 0.930 . S
H3022 C3035 0.930 . S
H3023 C3036 0.930 . S
H3024 C3040 0.959 . S
H3025 C3040 0.959 1_554 S
H3026 C3040 0.961 1_554 S
H3027 C3041 0.960 . S
H3028 C3041 0.961 . S
H3029 C3041 0.967 . S
H3030 C3044 0.929 . S
H3031 C3045 0.931 . S
H3032 C3047 0.930 . S
C3033 H3021 0.930 . S
C3033 C3034 1.399 . S
C3033 C3038 1.399 . S
C3034 C3033 1.399 . S
C3034 C3035 1.376 . S
C3035 H3022 0.930 . S
C3035 C3034 1.376 . S
C3035 C3036 1.388 . S
C3036 H3023 0.930 . S
C3036 C3035 1.388 . S
C3036 C3037 1.390 . S
C3037 C3036 1.390 . S
C3037 C3038 1.394 . S
C3037 C3043 1.465 . S
C3038 C3033 1.399 . S
C3038 C3037 1.394 . S
C3038 C3039 1.516 . S
C3039 C3038 1.516 . S
C3039 C3040 1.502 . S
C3039 C3041 1.561 1_556 S
C3039 C3042 1.526 . S
C3040 H3024 0.959 . S
C3040 H3025 0.959 1_556 S
C3040 H3026 0.961 1_556 S
C3040 C3039 1.502 . S
C3041 H3027 0.960 . S
C3041 H3028 0.961 . S
C3041 H3029 0.967 . S
C3041 C3039 1.561 1_554 S
C3042 C3039 1.526 . S
C3042 C3043 1.396 . S
C3042 C3047 1.390 . S
C3043 C3037 1.465 . S
C3043 C3042 1.396 . S
C3043 C3044 1.399 . S
C3044 H3030 0.929 . S
C3044 C3043 1.399 . S
C3044 C3045 1.385 . S
C3045 H3031 0.931 . S
C3045 C3044 1.385 . S
C3045 C3046 1.389 . S
C3046 C3045 1.389 . S
C3046 C3047 1.387 . S
C3047 H3032 0.930 . S
C3047 C3042 1.390 . S
C3047 C3046 1.387 . S
H3048 C3060 0.930 . S
H3049 C3062 0.930 . S
H3050 C3063 0.930 . S
H3051 C3067 0.959 . S
H3052 C3067 0.959 . S
H3053 C3067 0.961 . S
H3054 C3068 0.960 . S
H3055 C3068 0.961 . S
H3056 C3068 0.959 . S
H3057 C3071 0.929 . S
H3058 C3072 0.931 . S
H3059 C3074 0.930 . S
C3060 H3048 0.930 . S
C3060 C3061 1.399 . S
C3060 C3065 1.399 . S
C3061 C3060 1.399 . S
C3061 C3062 1.376 . S
C3062 H3049 0.930 . S
C3062 C3061 1.376 . S
C3062 C3063 1.388 . S
C3063 H3050 0.930 . S
C3063 C3062 1.388 . S
C3063 C3064 1.390 . S
C3064 C3063 1.390 . S
C3064 C3065 1.394 . S
C3064 C3070 1.465 . S
C3065 C3060 1.399 . S
C3065 C3064 1.394 . S
C3065 C3066 1.516 . S
C3066 C3065 1.516 . S
C3066 C3067 1.502 . S
C3066 C3068 1.561 . S
C3066 C3069 1.526 . S
C3067 H3051 0.959 . S
C3067 H3052 0.959 . S
C3067 H3053 0.961 . S
C3067 C3066 1.502 . S
C3068 H3054 0.960 . S
C3068 H3055 0.961 . S
C3068 H3056 0.959 . S
C3068 C3066 1.561 . S
C3069 C3066 1.526 . S
C3069 C3070 1.396 . S
C3069 C3074 1.390 . S
C3070 C3064 1.465 . S
C3070 C3069 1.396 . S
C3070 C3071 1.399 . S
C3071 H3057 0.929 . S
C3071 C3070 1.399 . S
C3071 C3072 1.385 . S
C3072 H3058 0.931 . S
C3072 C3071 1.385 . S
C3072 C3073 1.389 . S
C3073 C3072 1.389 . S
C3073 C3074 1.387 . S
C3074 H3059 0.930 . S
C3074 C3069 1.390 . S
C3074 C3073 1.387 . S
H3075 C3087 0.930 . S
H3076 C3089 0.930 . S
H3077 C3090 0.930 . S
H3078 C3094 0.959 . S
H3079 C3094 0.959 . S
H3080 C3094 0.961 . S
H3081 C3095 0.960 1_655 S
H3082 C3095 0.961 . S
H3083 C3095 0.959 . S
H3084 C3098 0.929 . S
H3085 C3099 0.931 . S
H3086 C3101 0.930 . S
C3087 H3075 0.930 . S
C3087 C3088 1.399 . S
C3087 C3092 1.399 . S
C3088 C3087 1.399 . S
C3088 C3089 1.376 . S
C3089 H3076 0.930 . S
C3089 C3088 1.376 . S
C3089 C3090 1.388 . S
C3090 H3077 0.930 . S
C3090 C3089 1.388 . S
C3090 C3091 1.390 . S
C3091 C3090 1.390 . S
C3091 C3092 1.394 . S
C3091 C3097 1.465 1_655 S
C3092 C3087 1.399 . S
C3092 C3091 1.394 . S
C3092 C3093 1.516 . S
C3093 C3092 1.516 . S
C3093 C3094 1.502 . S
C3093 C3095 1.561 1_655 S
C3093 C3096 1.526 1_655 S
C3094 H3078 0.959 . S
C3094 H3079 0.959 . S
C3094 H3080 0.961 . S
C3094 C3093 1.502 . S
C3095 H3081 0.960 1_455 S
C3095 H3082 0.961 . S
C3095 H3083 0.959 . S
C3095 C3093 1.561 1_455 S
C3096 C3093 1.526 1_455 S
C3096 C3097 1.396 . S
C3096 C3101 1.390 . S
C3097 C3091 1.465 1_455 S
C3097 C3096 1.396 . S
C3097 C3098 1.399 . S
C3098 H3084 0.929 . S
C3098 C3097 1.399 . S
C3098 C3099 1.385 . S
C3099 H3085 0.931 . S
C3099 C3098 1.385 . S
C3099 C3100 1.389 . S
C3100 C3099 1.389 . S
C3100 C3101 1.387 . S
C3101 H3086 0.930 . S
C3101 C3096 1.390 . S
C3101 C3100 1.387 . S
H3102 C3114 0.930 . S
H3103 C3116 0.930 . S
H3104 C3117 0.930 1_565 S
H3105 C3121 0.959 . S
H3106 C3121 0.959 . S
H3107 C3121 0.961 . S
H3108 C3122 0.960 . S
H3109 C3122 0.961 . S
H3110 C3122 0.959 . S
H3111 C3125 0.929 . S
H3112 C3126 0.931 . S
H3113 C3128 0.930 . S
C3114 H3102 0.930 . S
C3114 C3115 1.399 . S
C3114 C3119 1.399 . S
C3115 C3114 1.399 . S
C3115 C3116 1.376 . S
C3116 H3103 0.930 . S
C3116 C3115 1.376 . S
C3116 C3117 1.388 . S
C3117 H3104 0.930 1_545 S
C3117 C3116 1.388 . S
C3117 C3118 1.390 . S
C3118 C3117 1.390 . S
C3118 C3119 1.394 . S
C3118 C3124 1.465 1_545 S
C3119 C3114 1.399 . S
C3119 C3118 1.394 . S
C3119 C3120 1.516 . S
C3120 C3119 1.516 . S
C3120 C3121 1.502 . S
C3120 C3122 1.561 . S
C3120 C3123 1.526 1_545 S
C3121 H3105 0.959 . S
C3121 H3106 0.959 . S
C3121 H3107 0.961 . S
C3121 C3120 1.502 . S
C3122 H3108 0.960 . S
C3122 H3109 0.961 . S
C3122 H3110 0.959 . S
C3122 C3120 1.561 . S
C3123 C3120 1.526 1_565 S
C3123 C3124 1.396 . S
C3123 C3128 1.390 . S
C3124 C3118 1.465 1_565 S
C3124 C3123 1.396 . S
C3124 C3125 1.399 . S
C3125 H3111 0.929 . S
C3125 C3124 1.399 . S
C3125 C3126 1.385 . S
C3126 H3112 0.931 . S
C3126 C3125 1.385 . S
C3126 C3127 1.389 . S
C3127 C3126 1.389 . S
C3127 C3128 1.387 . S
C3128 H3113 0.930 . S
C3128 C3123 1.390 . S
C3128 C3127 1.387 . S
H3129 C3141 0.930 . S
H3130 C3143 0.930 . S
H3131 C3144 0.930 . S
H3132 C3148 0.959 . S
H3133 C3148 0.959 . S
H3134 C3148 0.961 . S
H3135 C3149 0.960 . S
H3136 C3149 0.961 . S
H3137 C3149 0.959 . S
H3138 C3152 0.929 . S
H3139 C3153 0.931 . S
H3140 C3155 0.930 . S
C3141 H3129 0.930 . S
C3141 C3142 1.399 . S
C3141 C3146 1.399 . S
C3142 C3141 1.399 . S
C3142 C3143 1.376 . S
C3143 H3130 0.930 . S
C3143 C3142 1.376 . S
C3143 C3144 1.388 . S
C3144 H3131 0.930 . S
C3144 C3143 1.388 . S
C3144 C3145 1.390 . S
C3145 C3144 1.390 . S
C3145 C3146 1.394 . S
C3145 C3151 1.465 . S
C3146 C3141 1.399 . S
C3146 C3145 1.394 . S
C3146 C3147 1.516 . S
C3147 C3146 1.516 . S
C3147 C3148 1.502 . S
C3147 C3149 1.561 . S
C3147 C3150 1.526 . S
C3148 H3132 0.959 . S
C3148 H3133 0.959 . S
C3148 H3134 0.961 . S
C3148 C3147 1.502 . S
C3149 H3135 0.960 . S
C3149 H3136 0.961 . S
C3149 H3137 0.959 . S
C3149 C3147 1.561 . S
C3150 C3147 1.526 . S
C3150 C3151 1.396 . S
C3150 C3155 1.390 . S
C3151 C3145 1.465 . S
C3151 C3150 1.396 . S
C3151 C3152 1.399 . S
C3152 H3138 0.929 . S
C3152 C3151 1.399 . S
C3152 C3153 1.385 . S
C3153 H3139 0.931 . S
C3153 C3152 1.385 . S
C3153 C3154 1.389 . S
C3154 C3153 1.389 . S
C3154 C3155 1.387 . S
C3155 H3140 0.930 . S
C3155 C3150 1.390 . S
C3155 C3154 1.387 . S
H3156 C3168 0.930 . S
H3157 C3170 0.930 . S
H3158 C3171 0.930 . S
H3159 C3175 0.959 . S
H3160 C3175 0.959 . S
H3161 C3175 0.961 . S
H3162 C3176 0.960 . S
H3163 C3176 0.961 . S
H3164 C3176 0.959 . S
H3165 C3179 0.929 1_455 S
H3166 C3180 0.931 . S
H3167 C3182 0.930 . S
C3168 H3156 0.930 . S
C3168 C3169 1.399 . S
C3168 C3173 1.399 . S
C3169 C3168 1.399 . S
C3169 C3170 1.376 . S
C3170 H3157 0.930 . S
C3170 C3169 1.376 . S
C3170 C3171 1.388 . S
C3171 H3158 0.930 . S
C3171 C3170 1.388 . S
C3171 C3172 1.390 . S
C3172 C3171 1.390 . S
C3172 C3173 1.394 . S
C3172 C3178 1.465 1_455 S
C3173 C3168 1.399 . S
C3173 C3172 1.394 . S
C3173 C3174 1.516 1_455 S
C3174 C3173 1.516 1_655 S
C3174 C3175 1.502 . S
C3174 C3176 1.561 . S
C3174 C3177 1.526 . S
C3175 H3159 0.959 . S
C3175 H3160 0.959 . S
C3175 H3161 0.961 . S
C3175 C3174 1.502 . S
C3176 H3162 0.960 . S
C3176 H3163 0.961 . S
C3176 H3164 0.959 . S
C3176 C3174 1.561 . S
C3177 C3174 1.526 . S
C3177 C3178 1.396 . S
C3177 C3182 1.390 . S
C3178 C3172 1.465 1_655 S
C3178 C3177 1.396 . S
C3178 C3179 1.399 . S
C3179 H3165 0.929 1_655 S
C3179 C3178 1.399 . S
C3179 C3180 1.385 . S
C3180 H3166 0.931 . S
C3180 C3179 1.385 . S
C3180 C3181 1.389 . S
C3181 C3180 1.389 . S
C3181 C3182 1.387 . S
C3182 H3167 0.930 . S
C3182 C3177 1.390 . S
C3182 C3181 1.387 . S
H3183 C3195 0.930 . S
H3184 C3197 0.930 . S
H3185 C3198 0.930 . S
H3186 C3202 0.959 . S
H3187 C3202 0.959 . S
H3188 C3202 0.961 . S
H3189 C3203 0.960 . S
H3190 C3203 0.961 . S
H3191 C3203 0.959 . S
H3192 C3206 0.929 . S
H3193 C3207 0.931 . S
H3194 C3209 0.930 . S
C3195 H3183 0.930 . S
C3195 C3196 1.399 . S
C3195 C3200 1.399 . S
C3196 C3195 1.399 . S
C3196 C3197 1.376 . S
C3197 H3184 0.930 . S
C3197 C3196 1.376 . S
C3197 C3198 1.388 . S
C3198 H3185 0.930 . S
C3198 C3197 1.388 . S
C3198 C3199 1.390 . S
C3199 C3198 1.390 . S
C3199 C3200 1.394 . S
C3199 C3205 1.465 1_545 S
C3200 C3195 1.399 . S
C3200 C3199 1.394 . S
C3200 C3201 1.516 . S
C3201 C3200 1.516 . S
C3201 C3202 1.502 . S
C3201 C3203 1.561 . S
C3201 C3204 1.526 1_545 S
C3202 H3186 0.959 . S
C3202 H3187 0.959 . S
C3202 H3188 0.961 . S
C3202 C3201 1.502 . S
C3203 H3189 0.960 . S
C3203 H3190 0.961 . S
C3203 H3191 0.959 . S
C3203 C3201 1.561 . S
C3204 C3201 1.526 1_565 S
C3204 C3205 1.396 . S
C3204 C3209 1.390 . S
C3205 C3199 1.465 1_565 S
C3205 C3204 1.396 . S
C3205 C3206 1.399 . S
C3206 H3192 0.929 . S
C3206 C3205 1.399 . S
C3206 C3207 1.385 . S
C3207 H3193 0.931 . S
C3207 C3206 1.385 . S
C3207 C3208 1.389 . S
C3208 C3207 1.389 . S
C3208 C3209 1.387 . S
C3209 H3194 0.930 . S
C3209 C3204 1.390 . S
C3209 C3208 1.387 . S
H3210 C3222 0.930 . S
H3211 C3224 0.930 . S
H3212 C3225 0.930 . S
H3213 C3229 0.959 . S
H3214 C3229 0.959 . S
H3215 C3229 0.961 . S
H3216 C3230 0.960 . S
H3217 C3230 0.961 . S
H3218 C3230 0.959 . S
H3219 C3233 0.929 . S
H3220 C3234 0.931 . S
H3221 C3236 0.930 . S
C3222 H3210 0.930 . S
C3222 C3223 1.399 . S
C3222 C3227 1.399 . S
C3223 C3222 1.399 . S
C3223 C3224 1.376 . S
C3224 H3211 0.930 . S
C3224 C3223 1.376 . S
C3224 C3225 1.388 . S
C3225 H3212 0.930 . S
C3225 C3224 1.388 . S
C3225 C3226 1.390 . S
C3226 C3225 1.390 . S
C3226 C3227 1.394 . S
C3226 C3232 1.465 . S
C3227 C3222 1.399 . S
C3227 C3226 1.394 . S
C3227 C3228 1.516 . S
C3228 C3227 1.516 . S
C3228 C3229 1.502 . S
C3228 C3230 1.561 . S
C3228 C3231 1.526 . S
C3229 H3213 0.959 . S
C3229 H3214 0.959 . S
C3229 H3215 0.961 . S
C3229 C3228 1.502 . S
C3230 H3216 0.960 . S
C3230 H3217 0.961 . S
C3230 H3218 0.959 . S
C3230 C3228 1.561 . S
C3231 C3228 1.526 . S
C3231 C3232 1.396 . S
C3231 C3236 1.390 . S
C3232 C3226 1.465 . S
C3232 C3231 1.396 . S
C3232 C3233 1.399 . S
C3233 H3219 0.929 . S
C3233 C3232 1.399 . S
C3233 C3234 1.385 . S
C3234 H3220 0.931 . S
C3234 C3233 1.385 . S
C3234 C3235 1.389 . S
C3235 C3234 1.389 . S
C3235 C3236 1.387 . S
C3236 H3221 0.930 . S
C3236 C3231 1.390 . S
C3236 C3235 1.387 . S
H3237 C3249 0.930 . S
H3238 C3251 0.930 . S
H3239 C3252 0.930 1_556 S
H3240 C3256 0.959 . S
H3241 C3256 0.959 . S
H3242 C3256 0.961 . S
H3243 C3257 0.960 . S
H3244 C3257 0.961 1_655 S
H3245 C3257 0.959 . S
H3246 C3260 0.929 1_556 S
H3247 C3261 0.931 . S
H3248 C3263 0.930 . S
C3249 H3237 0.930 . S
C3249 C3250 1.399 . S
C3249 C3254 1.399 . S
C3250 C3249 1.399 . S
C3250 C3251 1.376 . S
C3251 H3238 0.930 . S
C3251 C3250 1.376 . S
C3251 C3252 1.388 . S
C3252 H3239 0.930 1_554 S
C3252 C3251 1.388 . S
C3252 C3253 1.390 . S
C3253 C3252 1.390 . S
C3253 C3254 1.394 . S
C3253 C3259 1.465 1_455 S
C3254 C3249 1.399 . S
C3254 C3253 1.394 . S
C3254 C3255 1.516 1_455 S
C3255 C3254 1.516 1_655 S
C3255 C3256 1.502 . S
C3255 C3257 1.561 1_655 S
C3255 C3258 1.526 . S
C3256 H3240 0.959 . S
C3256 H3241 0.959 . S
C3256 H3242 0.961 . S
C3256 C3255 1.502 . S
C3257 H3243 0.960 . S
C3257 H3244 0.961 1_455 S
C3257 H3245 0.959 . S
C3257 C3255 1.561 1_455 S
C3258 C3255 1.526 . S
C3258 C3259 1.396 . S
C3258 C3263 1.390 . S
C3259 C3253 1.465 1_655 S
C3259 C3258 1.396 . S
C3259 C3260 1.399 . S
C3260 H3246 0.929 1_554 S
C3260 C3259 1.399 . S
C3260 C3261 1.385 . S
C3261 H3247 0.931 . S
C3261 C3260 1.385 . S
C3261 C3262 1.389 . S
C3262 C3261 1.389 . S
C3262 C3263 1.387 . S
C3263 H3248 0.930 . S
C3263 C3258 1.390 . S
C3263 C3262 1.387 . S
C685 C20 1.944 . S
C697 C6 1.950 . S
C712 C34 1.921 . S
C724 C48 1.913 . S
C739 C90 1.948 . S
C751 C62 1.940 . S
C766 C104 1.949 . S
C778 C76 1.942 . S
C793 C118 1.941 . S
C805 C482 1.949 . S
C820 C132 1.913 . S
C832 C160 1.908 . S
C847 C454 1.937 . S
C859 C146 1.946 . S
C874 C188 1.944 . S
C886 C174 1.946 . S
C901 C216 1.911 . S
C913 C202 1.911 . S
C928 C258 1.943 . S
C940 C230 1.940 . S
C955 C272 1.916 . S
C967 C244 1.914 . S
C982 C286 1.948 . S
C994 C650 1.949 . S
C1009 C300 1.915 . S
C1021 C328 1.913 . S
C1036 C622 1.948 . S
C1048 C314 1.949 . S
C1063 C342 1.946 . S
C1075 C356 1.951 . S
C1090 C384 1.950 . S
C1102 C370 1.952 . S
C1117 C398 1.908 . S
C1129 C426 1.915 . S
C1144 C440 1.949 . S
C1156 C412 1.941 . S
C1171 C496 1.947 . S
C1183 C468 1.952 . S
C1198 C524 1.913 . S
C1210 C510 1.912 . S
C1225 C538 1.912 . S
C1237 C552 1.911 . S
C1252 C594 1.940 . S
C1264 C566 1.938 . S
C1279 C580 1.912 . S
C1291 C608 1.915 . S
C1306 C636 1.911 . S
C1318 C664 1.910 . S
C1333 C623 1.451 . S
C1345 C8 1.569 . S
C1360 C329 1.409 . S
C1372 C22 1.568 . S
C1387 C637 1.364 . S
C1399 C36 1.563 . S
C1414 C50 1.559 . S
C1426 C651 1.350 . S
C1441 C64 1.572 . S
C1453 C511 1.467 . S
C1468 C525 1.386 . S
C1480 C78 1.562 . S
C1495 C92 1.559 . S
C1507 C539 1.350 . S
C1522 C553 1.350 . S
C1534 C106 1.561 . S
C1549 C567 1.411 . S
C1561 C120 1.565 . S
C1576 C134 1.569 . S
C1588 C595 1.448 . S
C1603 C609 1.359 . S
C1615 C148 1.560 . S
C1630 C162 1.567 . S
C1642 C245 1.439 . S
C1657 C176 1.568 . S
C1669 C455 1.465 . S
C1684 C190 1.562 . S
C1696 C161 1.346 . S
C1711 C204 1.567 . S
C1723 C469 1.462 . S
C1738 C218 1.565 . S
C1750 C483 1.353 . S
C1765 C343 1.396 . S
C1777 C232 1.571 . S
C1792 C357 1.392 . S
C1804 C246 1.570 . S
C1819 C260 1.572 . S
C1831 C371 1.444 . S
C1846 C274 1.560 . S
C1858 C385 1.355 . S
C1873 C288 1.559 . S
C1885 C399 1.365 . S
C1900 C302 1.572 . S
C1912 C427 1.440 . S
C1927 C441 1.366 . S
C1939 C316 1.560 . S
C1954 C77 1.377 . S
C1966 C330 1.569 . S
C1981 C344 1.572 . S
C1993 C287 1.467 . S
C2008 C358 1.572 . S
C2020 C665 1.467 . S
C2035 C372 1.560 . S
C2047 C301 1.347 . S
C2062 C386 1.572 . S
C2074 C315 1.462 . S
C2089 C175 1.344 . S
C2101 C400 1.560 . S
C2116 C414 1.561 . S
C2128 C189 1.371 . S
C2143 C203 1.353 . S
C2155 C428 1.562 . S
C2170 C217 1.428 . S
C2182 C442 1.570 . S
C2197 C231 1.461 . S
C2209 C456 1.572 . S
C2224 C259 1.452 . S
C2236 C470 1.572 . S
C2251 C484 1.565 . S
C2263 C273 1.422 . S
C2278 C498 1.568 . S
C2290 C581 1.406 . S
C2305 C119 1.430 . S
C2317 C512 1.572 . S
C2332 C526 1.563 . S
C2344 C497 1.346 . S
C2359 C540 1.568 . S
C2371 C133 1.463 . S
C2386 C147 1.453 . S
C2398 C554 1.572 . S
C2413 C568 1.572 . S
C2425 C7 1.441 . S
C2440 C582 1.559 . S
C2452 C21 1.380 . S
C2467 C35 1.440 . S
C2479 C596 1.573 . S
C2494 C610 1.559 . S
C2506 C49 1.367 . S
C2521 C624 1.572 . S
C2533 C63 1.439 . S
C2548 C91 1.362 . S
C2560 C638 1.567 . S
C2575 C652 1.560 . S
C2587 C105 1.387 . S
C2602 C413 1.378 . S
C2614 C666 1.569 . S
C2629 C37 1.094 . S
C2641 C9 1.062 . S
C2656 C51 1.053 . S
C2668 C23 1.031 . S
C2683 C443 1.142 . S
C2695 C65 1.123 . S
C2710 C429 1.068 . S
C2722 C79 1.100 . S
C2737 C415 1.142 . S
C2749 C93 1.123 . S
C2764 C107 1.140 . S
C2776 C401 1.119 . S
C2791 C121 1.026 . S
C2803 C499 1.046 . S
C2818 C149 1.143 . S
C2830 C135 1.144 . S
C2845 C163 1.140 . S
C2857 C457 1.119 . S
C2872 C205 1.025 . S
C2884 C177 1.081 . S
C2899 C219 1.067 . S
C2911 C191 1.023 . S
C2926 C611 1.060 . S
C2938 C233 1.023 . S
C2953 C597 1.121 . S
C2965 C247 1.144 . S
C2980 C261 1.082 . S
C2992 C583 1.139 . S
C3007 C275 1.093 . S
C3019 C569 1.142 . S
C3034 C667 1.062 . S
C3046 C289 1.023 . S
C3061 C317 1.125 . S
C3073 C303 1.143 . S
C3088 C331 1.058 . S
C3100 C625 1.023 . S
C3115 C373 1.054 . S
C3127 C345 1.031 . S
C3142 C359 1.124 . S
C3154 C387 1.094 . S
C3169 C485 1.098 . S
C3181 C471 1.126 . S
C3196 C513 1.146 . S
C3208 C541 1.107 . S
C3223 C527 1.139 . S
C3235 C555 1.082 . S
C3250 C639 1.115 . S
C3262 C653 1.145 . S
