# Generated by pormake.
# Topology zfi, (5)-cn, num edge types: 1
# Building blocks:
#     Node 0, Type 0, BuildingBlock: BEQFEK_clean_sbu_0, # of connection points: 5
#     Node 1, Type 0, BuildingBlock: BEQFEK_clean_sbu_0, # of connection points: 5
#     Node 2, Type 0, BuildingBlock: BEQFEK_clean_sbu_0, # of connection points: 5
#     Node 3, Type 0, BuildingBlock: BEQFEK_clean_sbu_0, # of connection points: 5
#     Node 4, Type 0, BuildingBlock: BEQFEK_clean_sbu_0, # of connection points: 5
#     Node 5, Type 0, BuildingBlock: BEQFEK_clean_sbu_0, # of connection points: 5
#     Node 6, Type 0, BuildingBlock: BEQFEK_clean_sbu_0, # of connection points: 5
#     Node 7, Type 0, BuildingBlock: BEQFEK_clean_sbu_0, # of connection points: 5
#     Node 8, Type 0, BuildingBlock: BEQFEK_clean_sbu_0, # of connection points: 5
#     Node 9, Type 0, BuildingBlock: BEQFEK_clean_sbu_0, # of connection points: 5
#     Node 10, Type 0, BuildingBlock: BEQFEK_clean_sbu_0, # of connection points: 5
#     Node 11, Type 0, BuildingBlock: BEQFEK_clean_sbu_0, # of connection points: 5
#     Node 12, Type 0, BuildingBlock: BEQFEK_clean_sbu_0, # of connection points: 5
#     Node 13, Type 0, BuildingBlock: BEQFEK_clean_sbu_0, # of connection points: 5
#     Node 14, Type 0, BuildingBlock: BEQFEK_clean_sbu_0, # of connection points: 5
#     Node 15, Type 0, BuildingBlock: BEQFEK_clean_sbu_0, # of connection points: 5
#     Edge 16, Type (0, 0), BuildingBlock: EZIPEK_clean_linker_0, # of connection points: 2
#     Edge 17, Type (0, 0), BuildingBlock: EZIPEK_clean_linker_0, # of connection points: 2
#     Edge 18, Type (0, 0), BuildingBlock: EZIPEK_clean_linker_0, # of connection points: 2
#     Edge 19, Type (0, 0), BuildingBlock: EZIPEK_clean_linker_0, # of connection points: 2
#     Edge 20, Type (0, 0), BuildingBlock: EZIPEK_clean_linker_0, # of connection points: 2
#     Edge 21, Type (0, 0), BuildingBlock: EZIPEK_clean_linker_0, # of connection points: 2
#     Edge 22, Type (0, 0), BuildingBlock: EZIPEK_clean_linker_0, # of connection points: 2
#     Edge 23, Type (0, 0), BuildingBlock: EZIPEK_clean_linker_0, # of connection points: 2
#     Edge 24, Type (0, 0), BuildingBlock: EZIPEK_clean_linker_0, # of connection points: 2
#     Edge 25, Type (0, 0), BuildingBlock: EZIPEK_clean_linker_0, # of connection points: 2
#     Edge 26, Type (0, 0), BuildingBlock: EZIPEK_clean_linker_0, # of connection points: 2
#     Edge 27, Type (0, 0), BuildingBlock: EZIPEK_clean_linker_0, # of connection points: 2
#     Edge 28, Type (0, 0), BuildingBlock: EZIPEK_clean_linker_0, # of connection points: 2
#     Edge 29, Type (0, 0), BuildingBlock: EZIPEK_clean_linker_0, # of connection points: 2
#     Edge 30, Type (0, 0), BuildingBlock: EZIPEK_clean_linker_0, # of connection points: 2
#     Edge 31, Type (0, 0), BuildingBlock: EZIPEK_clean_linker_0, # of connection points: 2
#     Edge 32, Type (0, 0), BuildingBlock: EZIPEK_clean_linker_0, # of connection points: 2
#     Edge 33, Type (0, 0), BuildingBlock: EZIPEK_clean_linker_0, # of connection points: 2
#     Edge 34, Type (0, 0), BuildingBlock: EZIPEK_clean_linker_0, # of connection points: 2
#     Edge 35, Type (0, 0), BuildingBlock: EZIPEK_clean_linker_0, # of connection points: 2
#     Edge 36, Type (0, 0), BuildingBlock: EZIPEK_clean_linker_0, # of connection points: 2
#     Edge 37, Type (0, 0), BuildingBlock: EZIPEK_clean_linker_0, # of connection points: 2
#     Edge 38, Type (0, 0), BuildingBlock: EZIPEK_clean_linker_0, # of connection points: 2
#     Edge 39, Type (0, 0), BuildingBlock: EZIPEK_clean_linker_0, # of connection points: 2
#     Edge 40, Type (0, 0), BuildingBlock: EZIPEK_clean_linker_0, # of connection points: 2
#     Edge 41, Type (0, 0), BuildingBlock: EZIPEK_clean_linker_0, # of connection points: 2
#     Edge 42, Type (0, 0), BuildingBlock: EZIPEK_clean_linker_0, # of connection points: 2
#     Edge 43, Type (0, 0), BuildingBlock: EZIPEK_clean_linker_0, # of connection points: 2
#     Edge 44, Type (0, 0), BuildingBlock: EZIPEK_clean_linker_0, # of connection points: 2
#     Edge 45, Type (0, 0), BuildingBlock: EZIPEK_clean_linker_0, # of connection points: 2
#     Edge 46, Type (0, 0), BuildingBlock: EZIPEK_clean_linker_0, # of connection points: 2
#     Edge 47, Type (0, 0), BuildingBlock: EZIPEK_clean_linker_0, # of connection points: 2
#     Edge 48, Type (0, 0), BuildingBlock: EZIPEK_clean_linker_0, # of connection points: 2
#     Edge 49, Type (0, 0), BuildingBlock: EZIPEK_clean_linker_0, # of connection points: 2
#     Edge 50, Type (0, 0), BuildingBlock: EZIPEK_clean_linker_0, # of connection points: 2
#     Edge 51, Type (0, 0), BuildingBlock: EZIPEK_clean_linker_0, # of connection points: 2
#     Edge 52, Type (0, 0), BuildingBlock: EZIPEK_clean_linker_0, # of connection points: 2
#     Edge 53, Type (0, 0), BuildingBlock: EZIPEK_clean_linker_0, # of connection points: 2
#     Edge 54, Type (0, 0), BuildingBlock: EZIPEK_clean_linker_0, # of connection points: 2
#     Edge 55, Type (0, 0), BuildingBlock: EZIPEK_clean_linker_0, # of connection points: 2
# Relax obj value: 0.237
# Max RMSD: 0.202
# Mean RMSD: 0.202
data_MOF--net-zfi--node1-BEQFEK_clean_sbu_0--edge1-EZIPEK_clean_linker_0
_symmetry_space_group_name_H-M    P1
_symmetry_Int_Tables_number       1
_symmetry_cell_setting            triclinic
loop_
_symmetry_equiv_pos_as_xyz
'x, y, z'
_cell_length_a     28.960228
_cell_length_b     29.078229
_cell_length_c     43.122886
_cell_angle_alpha  89.9893
_cell_angle_beta   89.972745
_cell_angle_gamma 90.146582
loop_
_atom_site_label
_atom_site_type_symbol
_atom_site_fract_x
_atom_site_fract_y
_atom_site_fract_z
_atom_type_partial_charge
Co0 Co 0.62665 0.10035 0.13386 0.0
Co1 Co 0.59166 0.00119 0.15192 0.0
C2 C 0.58373 0.07637 0.19672 0.0
O3 O 0.60083 0.10562 0.17764 0.0
O4 O 0.57689 0.03459 0.18943 0.0
C5 C 0.65317 0.20149 0.11722 0.0
O6 O 0.61098 0.21798 0.11794 0.0
C7 C 0.53836 0.91729 0.16715 0.0
C8 C 0.57958 0.86716 0.14017 0.0
C9 C 0.54081 0.87163 0.1585 0.0
N10 N 0.57411 0.9392 0.15386 0.0
N11 N 0.59893 0.90893 0.13826 0.0
C12 C 0.50212 0.93991 0.18652 0.0
H13 H 0.49957 0.977 0.18067 0.0
H14 H 0.46819 0.92272 0.18335 0.0
H15 H 0.51195 0.93682 0.2113 0.0
C16 C 0.57079 0.07265 0.07516 0.0
N17 N 0.58554 0.06774 0.10492 0.0
N18 N 0.56807 0.02887 0.11561 0.0
C19 C 0.54031 0.00979 0.09416 0.0
C20 C 0.54171 0.03568 0.06754 0.0
C21 C 0.58612 0.11014 0.05387 0.0
H22 H 0.61296 0.13182 0.06505 0.0
H23 H 0.55594 0.13171 0.04768 0.0
H24 H 0.59976 0.095 0.0321 0.0
O25 O 0.68273 0.06492 0.13952 0.0
O26 O 0.65834 0.99499 0.15057 0.0
H27 H 0.53623 0.93644 0.09616 0.0
H28 H 0.48526 0.96316 0.081 0.0
C29 C 0.51313 0.96654 0.0985 0.0
H30 H 0.49719 0.96698 0.12179 0.0
H31 H 0.6283 0.91713 0.12535 0.0
O32 O 0.65983 0.15872 0.12135 0.0
C33 C 0.69069 0.02341 0.14617 0.0
Co34 Co 0.39387 0.6283 0.12998 0.0
Co35 Co 0.49672 0.60042 0.14801 0.0
C36 C 0.41586 0.58896 0.19165 0.0
O37 O 0.38485 0.6013 0.17228 0.0
O38 O 0.45839 0.5867 0.18445 0.0
C39 C 0.29513 0.65932 0.11822 0.0
O40 O 0.27895 0.6189 0.12655 0.0
C41 C 0.57262 0.53591 0.16225 0.0
C42 C 0.63228 0.5791 0.1486 0.0
C43 C 0.62012 0.53542 0.15832 0.0
N44 N 0.55735 0.57783 0.15401 0.0
N45 N 0.59328 0.60367 0.14658 0.0
C46 C 0.54204 0.49752 0.17291 0.0
H47 H 0.51727 0.48861 0.15421 0.0
H48 H 0.56246 0.46673 0.17941 0.0
H49 H 0.52147 0.50922 0.19313 0.0
C50 C 0.42172 0.57031 0.07314 0.0
N51 N 0.42897 0.58901 0.10159 0.0
N52 N 0.47178 0.57942 0.1099 0.0
C53 C 0.49299 0.55618 0.08698 0.0
C54 C 0.46228 0.54863 0.06319 0.0
C55 C 0.37787 0.57513 0.05528 0.0
H56 H 0.34799 0.57614 0.0714 0.0
H57 H 0.37395 0.54652 0.03843 0.0
H58 H 0.3788 0.60807 0.04229 0.0
O59 O 0.42985 0.68311 0.13956 0.0
O60 O 0.50332 0.66651 0.14751 0.0
H61 H 0.56371 0.57603 0.09241 0.0
H62 H 0.55489 0.53327 0.06297 0.0
C63 C 0.54338 0.54515 0.08615 0.0
H64 H 0.55016 0.51747 0.10293 0.0
H65 H 0.59099 0.63758 0.13885 0.0
O66 O 0.3385 0.66453 0.11487 0.0
C67 C 0.47084 0.69532 0.1454 0.0
Co68 Co 0.86924 0.39472 0.12868 0.0
Co69 Co 0.88327 0.50101 0.14218 0.0
C70 C 0.90295 0.42614 0.18973 0.0
O71 O 0.89647 0.39186 0.17158 0.0
O72 O 0.8991 0.46739 0.18023 0.0
C73 C 0.82173 0.30979 0.13266 0.0
O74 O 0.8336 0.31465 0.16186 0.0
C75 C 0.94232 0.58282 0.14897 0.0
C76 C 0.88991 0.63799 0.1473 0.0
C77 C 0.93694 0.63008 0.14846 0.0
N78 N 0.90016 0.56353 0.14754 0.0
N79 N 0.86901 0.59668 0.14718 0.0
C80 C 0.98668 0.55654 0.14946 0.0
H81 H 0.98104 0.52046 0.14196 0.0
H82 H 0.01281 0.57357 0.13448 0.0
H83 H 0.00038 0.55617 0.17348 0.0
C84 C 0.93019 0.42247 0.07339 0.0
N85 N 0.90665 0.43106 0.1 0.0
N86 N 0.90904 0.47563 0.10552 0.0
C87 C 0.93164 0.49656 0.08213 0.0
C88 C 0.94711 0.46401 0.06147 0.0
C89 C 0.9347 0.37593 0.05912 0.0
H90 H 0.94 0.34975 0.07751 0.0
H91 H 0.9636 0.37513 0.04219 0.0
H92 H 0.9021 0.36737 0.04688 0.0
O93 O 0.80935 0.42458 0.1362 0.0
O94 O 0.81683 0.49996 0.14065 0.0
H95 H 0.93281 0.55554 0.05188 0.0
H96 H 0.96625 0.56111 0.0864 0.0
C97 C 0.93346 0.54732 0.07701 0.0
H98 H 0.90348 0.56404 0.08817 0.0
H99 H 0.83349 0.59115 0.14557 0.0
O100 O 0.84162 0.33519 0.11245 0.0
C101 C 0.79204 0.46411 0.13991 0.0
Co102 Co 0.10084 0.87334 0.12636 0.0
Co103 Co 0.99557 0.89002 0.14215 0.0
C104 C 0.07048 0.90779 0.18901 0.0
O105 O 0.10347 0.89852 0.17022 0.0
O106 O 0.02849 0.90662 0.18039 0.0
C107 C 0.18771 0.82903 0.13087 0.0
O108 O 0.18324 0.84243 0.1598 0.0
C109 C 0.91256 0.94407 0.15617 0.0
C110 C 0.85853 0.89678 0.13867 0.0
C111 C 0.86561 0.94011 0.15096 0.0
N112 N 0.93258 0.90506 0.14636 0.0
N113 N 0.90004 0.87667 0.13651 0.0
C114 C 0.9382 0.98401 0.16964 0.0
H115 H 0.96908 0.99167 0.15526 0.0
H116 H 0.91588 0.01486 0.17151 0.0
H117 H 0.95039 0.97452 0.19316 0.0
C118 C 0.07205 0.93527 0.0714 0.0
N119 N 0.06456 0.91245 0.09847 0.0
N120 N 0.02033 0.91622 0.10533 0.0
C121 C 0.99843 0.93892 0.08244 0.0
C122 C 0.03004 0.95303 0.06051 0.0
C123 C 0.11787 0.93814 0.05565 0.0
H124 H 0.14544 0.94376 0.07314 0.0
H125 H 0.11826 0.9661 0.03812 0.0
H126 H 0.12493 0.90493 0.04392 0.0
O127 O 0.0707 0.81251 0.13034 0.0
O128 O 0.99651 0.82397 0.13973 0.0
H129 H 0.93637 0.95643 0.05673 0.0
H130 H 0.93538 0.96753 0.09757 0.0
C131 C 0.94724 0.9433 0.07974 0.0
H132 H 0.9308 0.90936 0.08359 0.0
H133 H 0.90637 0.84413 0.12728 0.0
O134 O 0.16151 0.8473 0.11045 0.0
C135 C 0.03038 0.79743 0.13552 0.0
Co136 Co 0.13616 0.90535 0.38104 0.0
Co137 Co 0.12222 0.01078 0.36528 0.0
C138 C 0.09396 0.93072 0.32213 0.0
O139 O 0.10013 0.89831 0.34182 0.0
O140 O 0.10092 0.97285 0.32931 0.0
C141 C 0.17041 0.80903 0.38452 0.0
O142 O 0.14274 0.80001 0.36115 0.0
C143 C 0.06377 0.09419 0.35968 0.0
C144 C 0.11766 0.14812 0.36228 0.0
C145 C 0.07045 0.14139 0.36142 0.0
N146 N 0.10544 0.07384 0.36015 0.0
N147 N 0.13738 0.1064 0.36111 0.0
C148 C 0.01871 0.06893 0.35948 0.0
H149 H 0.02358 0.03264 0.36676 0.0
H150 H 0.99336 0.08631 0.3748 0.0
H151 H 0.00456 0.06923 0.33557 0.0
C152 C 0.08102 0.93566 0.43809 0.0
N153 N 0.1035 0.94343 0.41091 0.0
N154 N 0.10119 0.98775 0.40466 0.0
C155 C 0.0795 0.00929 0.42825 0.0
C156 C 0.06473 0.97745 0.44982 0.0
C157 C 0.07582 0.88947 0.45281 0.0
H158 H 0.08301 0.86181 0.43574 0.0
H159 H 0.0405 0.88553 0.46249 0.0
H160 H 0.10069 0.88664 0.47228 0.0
O161 O 0.19347 0.9352 0.36529 0.0
O162 O 0.18942 0.01017 0.36092 0.0
H163 H 0.0763 0.07 0.45669 0.0
H164 H 0.04273 0.07186 0.42201 0.0
C165 C 0.07594 0.06004 0.43185 0.0
H166 H 0.10546 0.07684 0.4201 0.0
H167 H 0.17273 0.10015 0.36264 0.0
O168 O 0.1668 0.84762 0.39845 0.0
C169 C 0.21196 0.97331 0.35775 0.0
Co170 Co 0.59964 0.12365 0.3898 0.0
Co171 Co 0.49184 0.09767 0.38219 0.0
C172 C 0.5643 0.09063 0.32995 0.0
O173 O 0.59925 0.10337 0.34587 0.0
O174 O 0.52488 0.08522 0.34252 0.0
C175 C 0.67932 0.1804 0.38237 0.0
O176 O 0.67162 0.16932 0.35329 0.0
C177 C 0.43727 0.01074 0.35633 0.0
C178 C 0.36858 0.00403 0.41482 0.0
C179 C 0.39159 0.96479 0.37686 0.0
N180 N 0.43507 0.06172 0.38045 0.0
N181 N 0.39898 0.05842 0.41055 0.0
C182 C 0.45573 0.00894 0.32414 0.0
H183 H 0.45188 0.04306 0.31295 0.0
H184 H 0.49295 0.00015 0.32492 0.0
H185 H 0.43713 0.98214 0.31072 0.0
C186 C 0.58623 0.0555 0.44342 0.0
N187 N 0.5721 0.08018 0.41843 0.0
N188 N 0.5266 0.07958 0.41792 0.0
C189 C 0.51088 0.05979 0.44405 0.0
C190 C 0.54723 0.0411 0.45998 0.0
C191 C 0.63552 0.04929 0.45256 0.0
H192 H 0.65672 0.04208 0.43168 0.0
H193 H 0.63908 0.02109 0.46976 0.0
H194 H 0.64844 0.08175 0.46299 0.0
O195 O 0.55902 0.17702 0.38724 0.0
O196 O 0.48346 0.16392 0.38258 0.0
H197 H 0.45342 0.10501 0.4489 0.0
H198 H 0.44249 0.04397 0.45943 0.0
C199 C 0.467 0.07327 0.4597 0.0
H200 H 0.47312 0.0816 0.48445 0.0
H201 H 0.39228 0.08628 0.425 0.0
O202 O 0.65737 0.15843 0.40345 0.0
C203 C 0.51786 0.19112 0.38442 0.0
Co204 Co 0.36265 0.5903 0.38972 0.0
Co205 Co 0.41484 0.50512 0.36892 0.0
C206 C 0.41056 0.56935 0.32429 0.0
O207 O 0.38226 0.58913 0.34305 0.0
O208 O 0.43678 0.53705 0.33336 0.0
C209 C 0.33149 0.69137 0.40559 0.0
O210 O 0.37248 0.70819 0.41207 0.0
C211 C 0.46427 0.41617 0.36015 0.0
C212 C 0.42356 0.37579 0.39423 0.0
C213 C 0.46017 0.37324 0.37384 0.0
N214 N 0.43103 0.44298 0.37215 0.0
N215 N 0.40691 0.41853 0.39231 0.0
C216 C 0.50097 0.43244 0.33828 0.0
H217 H 0.50739 0.46978 0.34142 0.0
H218 H 0.53336 0.41275 0.34173 0.0
H219 H 0.48904 0.42709 0.31411 0.0
C220 C 0.42069 0.56972 0.44883 0.0
N221 N 0.40942 0.5673 0.41823 0.0
N222 N 0.43411 0.53413 0.4059 0.0
C223 C 0.46403 0.5176 0.42693 0.0
C224 C 0.45574 0.53766 0.4552 0.0
C225 C 0.39542 0.59845 0.4719 0.0
H226 H 0.35976 0.60535 0.46369 0.0
H227 H 0.41367 0.63185 0.47437 0.0
H228 H 0.39476 0.58133 0.49491 0.0
O229 O 0.31169 0.54733 0.39233 0.0
O230 O 0.34714 0.49911 0.36154 0.0
H231 H 0.48029 0.44664 0.42713 0.0
H232 H 0.52809 0.48304 0.4366 0.0
C233 C 0.49746 0.47955 0.42131 0.0
H234 H 0.50905 0.4797 0.39689 0.0
H235 H 0.38013 0.43178 0.40578 0.0
O236 O 0.3272 0.64936 0.39776 0.0
C237 C 0.31027 0.51402 0.37355 0.0
Co238 Co 0.89444 0.37305 0.38735 0.0
Co239 Co 0.9954 0.40404 0.37044 0.0
C240 C 0.92373 0.4115 0.32337 0.0
O241 O 0.89281 0.39813 0.3428 0.0
O242 O 0.96568 0.41671 0.33141 0.0
C243 C 0.79113 0.34772 0.396 0.0
O244 O 0.77618 0.38897 0.38875 0.0
C245 C 0.08663 0.44425 0.35452 0.0
C246 C 0.12673 0.41347 0.39304 0.0
C247 C 0.13018 0.44235 0.36773 0.0
N248 N 0.0584 0.41827 0.37197 0.0
N249 N 0.08267 0.39968 0.39465 0.0
C250 C 0.072 0.46947 0.32596 0.0
H251 H 0.05592 0.44492 0.30947 0.0
H252 H 0.04532 0.49519 0.33222 0.0
H253 H 0.10169 0.487 0.31469 0.0
C254 C 0.92294 0.43065 0.44571 0.0
N255 N 0.92723 0.41467 0.41617 0.0
N256 N 0.96593 0.43182 0.40483 0.0
C257 C 0.98499 0.46123 0.42531 0.0
C258 C 0.95995 0.46047 0.45241 0.0
C259 C 0.88629 0.41544 0.46779 0.0
H260 H 0.86109 0.39246 0.45606 0.0
H261 H 0.86835 0.44599 0.47736 0.0
H262 H 0.90252 0.39701 0.4875 0.0
O263 O 0.92793 0.31517 0.38439 0.0
O264 O 0.99865 0.33759 0.37303 0.0
H265 H 0.05812 0.47134 0.42859 0.0
H266 H 0.02507 0.52277 0.43243 0.0
C267 C 0.02737 0.48968 0.41968 0.0
H268 H 0.03143 0.4971 0.39463 0.0
H269 H 0.06883 0.37787 0.41151 0.0
O270 O 0.83436 0.34097 0.39877 0.0
C271 C 0.96939 0.30624 0.37792 0.0
Co272 Co 0.37196 0.89168 0.8922 0.0
Co273 Co 0.39591 0.99531 0.87565 0.0
C274 C 0.4069 0.92506 0.8285 0.0
O275 O 0.39146 0.89388 0.8468 0.0
O276 O 0.41426 0.96598 0.83749 0.0
C277 C 0.34993 0.78459 0.9133 0.0
O278 O 0.38272 0.76066 0.9267 0.0
C279 C 0.44449 0.08377 0.8662 0.0
C280 C 0.39063 0.13184 0.88265 0.0
C281 C 0.436 0.12965 0.87278 0.0
N282 N 0.40613 0.05969 0.87304 0.0
N283 N 0.37379 0.0888 0.88204 0.0
C284 C 0.48897 0.06279 0.8556 0.0
H285 H 0.48986 0.02558 0.86134 0.0
H286 H 0.51884 0.08091 0.86619 0.0
H287 H 0.49178 0.06631 0.83006 0.0
C288 C 0.43165 0.91923 0.94835 0.0
N289 N 0.41331 0.92645 0.91974 0.0
N290 N 0.42336 0.96903 0.91145 0.0
C291 C 0.44827 0.98945 0.93398 0.0
C292 C 0.45455 0.95912 0.95809 0.0
C293 C 0.42396 0.87693 0.9673 0.0
H294 H 0.39712 0.85476 0.95668 0.0
H295 H 0.45681 0.85753 0.9689 0.0
H296 H 0.41356 0.88657 0.99121 0.0
O297 O 0.31046 0.91935 0.89253 0.0
O298 O 0.32908 0.99001 0.87748 0.0
H299 H 0.42912 0.05942 0.93096 0.0
H300 H 0.47709 0.05012 0.9566 0.0
C301 C 0.46092 0.03919 0.93453 0.0
H302 H 0.48623 0.04627 0.91605 0.0
H303 H 0.34081 0.07904 0.88926 0.0
O304 O 0.35838 0.826 0.90513 0.0
C305 C 0.29936 0.95965 0.88427 0.0
Co306 Co 0.60326 0.37151 0.89012 0.0
Co307 Co 0.49955 0.39422 0.87225 0.0
C308 C 0.57631 0.40647 0.82699 0.0
O309 O 0.60789 0.39305 0.8456 0.0
O310 O 0.53456 0.41051 0.83542 0.0
C311 C 0.68894 0.32437 0.88711 0.0
O312 O 0.68451 0.33573 0.85777 0.0
C313 C 0.42392 0.45751 0.85903 0.0
C314 C 0.36354 0.414 0.87055 0.0
C315 C 0.37641 0.45813 0.8621 0.0
N316 N 0.43858 0.41509 0.86644 0.0
N317 N 0.40232 0.38903 0.87267 0.0
C318 C 0.45518 0.49636 0.85018 0.0
H319 H 0.47953 0.50339 0.86949 0.0
H320 H 0.43531 0.5279 0.84461 0.0
H321 H 0.47608 0.48617 0.82975 0.0
C322 C 0.57468 0.4346 0.94451 0.0
N323 N 0.56774 0.41288 0.917 0.0
N324 N 0.52384 0.41785 0.90958 0.0
C325 C 0.50144 0.43982 0.93253 0.0
C326 C 0.5326 0.4527 0.95498 0.0
C327 C 0.61964 0.43525 0.9614 0.0
H328 H 0.64868 0.43604 0.9446 0.0
H329 H 0.62153 0.46523 0.9773 0.0
H330 H 0.62263 0.40333 0.97535 0.0
O331 O 0.56976 0.3127 0.88687 0.0
O332 O 0.4973 0.32781 0.87375 0.0
H333 H 0.43425 0.40949 0.92836 0.0
H334 H 0.43903 0.45033 0.95954 0.0
C335 C 0.45006 0.44256 0.93547 0.0
H336 H 0.43733 0.47024 0.9204 0.0
H337 H 0.40424 0.35468 0.87955 0.0
O338 O 0.6627 0.34395 0.90695 0.0
C339 C 0.52943 0.29966 0.87959 0.0
Co340 Co 0.12852 0.60257 0.88877 0.0
Co341 Co 0.11373 0.49735 0.87301 0.0
C342 C 0.09382 0.57406 0.82702 0.0
O343 O 0.10168 0.60735 0.84574 0.0
O344 O 0.09671 0.53232 0.83565 0.0
C345 C 0.17769 0.68692 0.88622 0.0
O346 O 0.16745 0.68227 0.85672 0.0
C347 C 0.05371 0.41926 0.85934 0.0
C348 C 0.09792 0.36132 0.87401 0.0
C349 C 0.05412 0.37225 0.86364 0.0
N350 N 0.09516 0.43572 0.86785 0.0
N351 N 0.1217 0.40089 0.87604 0.0
C352 C 0.01514 0.44818 0.8473 0.0
H353 H 0.02306 0.45742 0.82295 0.0
H354 H 0.0127 0.48043 0.86097 0.0
H355 H 0.98176 0.42938 0.84765 0.0
C356 C 0.06738 0.57187 0.94373 0.0
N357 N 0.09094 0.56511 0.91687 0.0
N358 N 0.08931 0.52082 0.91042 0.0
C359 C 0.06777 0.49815 0.9335 0.0
C360 C 0.05164 0.52932 0.95493 0.0
C361 C 0.06162 0.61765 0.95887 0.0
H362 H 0.05471 0.64426 0.94102 0.0
H363 H 0.03331 0.61676 0.97624 0.0
H364 H 0.09432 0.62702 0.97073 0.0
O365 O 0.18827 0.57222 0.88129 0.0
O366 O 0.17992 0.49734 0.87398 0.0
H367 H 0.0577 0.43648 0.96104 0.0
H368 H 0.04095 0.43253 0.92121 0.0
C369 C 0.0669 0.44701 0.93708 0.0
H370 H 0.10125 0.43271 0.93132 0.0
H371 H 0.15549 0.40435 0.88413 0.0
O372 O 0.15654 0.66151 0.90588 0.0
C373 C 0.20511 0.53274 0.87636 0.0
Co374 Co 0.89716 0.12981 0.88319 0.0
Co375 Co 0.00191 0.10663 0.86753 0.0
C376 C 0.92494 0.09195 0.8214 0.0
O377 O 0.89292 0.10406 0.84008 0.0
O378 O 0.96714 0.09048 0.82959 0.0
C379 C 0.79523 0.15569 0.90391 0.0
O380 O 0.77721 0.11451 0.90741 0.0
C381 C 0.08646 0.04932 0.86215 0.0
C382 C 0.13961 0.10404 0.8641 0.0
C383 C 0.13367 0.05691 0.86368 0.0
N384 N 0.06527 0.09042 0.86253 0.0
N385 N 0.09738 0.12286 0.8629 0.0
C386 C 0.06206 0.00391 0.86182 0.0
H387 H 0.02533 0.00801 0.86865 0.0
H388 H 0.07969 0.97914 0.87739 0.0
H389 H 0.06334 0.98964 0.83797 0.0
C390 C 0.92324 0.07022 0.93986 0.0
N391 N 0.93175 0.09042 0.91199 0.0
N392 N 0.9757 0.08365 0.90514 0.0
C393 C 0.99642 0.06161 0.92881 0.0
C394 C 0.96423 0.05085 0.95115 0.0
C395 C 0.87777 0.07195 0.95612 0.0
H396 H 0.84956 0.06523 0.9393 0.0
H397 H 0.8764 0.04668 0.9754 0.0
H398 H 0.87266 0.10704 0.96562 0.0
O399 O 0.92987 0.18826 0.87707 0.0
O400 O 0.00347 0.17281 0.8688 0.0
H401 H 0.05682 0.05895 0.95807 0.0
H402 H 0.05988 0.0252 0.92361 0.0
C403 C 0.0474 0.05822 0.93314 0.0
H404 H 0.06443 0.08767 0.9216 0.0
H405 H 0.09053 0.15802 0.86383 0.0
O406 O 0.83726 0.16 0.89585 0.0
C407 C 0.97088 0.20121 0.87191 0.0
Co408 Co 0.87167 0.09906 0.62414 0.0
Co409 Co 0.90452 0.00012 0.64179 0.0
C410 C 0.91232 0.07018 0.68797 0.0
O411 O 0.8903 0.09793 0.67021 0.0
O412 O 0.92856 0.03273 0.67758 0.0
C413 C 0.81961 0.18027 0.63099 0.0
O414 O 0.82715 0.17007 0.66023 0.0
C415 C 0.95672 0.91641 0.65663 0.0
C416 C 0.91168 0.86426 0.63451 0.0
C417 C 0.95291 0.87002 0.65014 0.0
N418 N 0.91961 0.93742 0.64457 0.0
N419 N 0.89245 0.90601 0.63195 0.0
C420 C 0.99494 0.94051 0.6734 0.0
H421 H 0.00388 0.97299 0.66127 0.0
H422 H 0.02588 0.91826 0.67548 0.0
H423 H 0.98278 0.9497 0.697 0.0
C424 C 0.9333 0.07549 0.56731 0.0
N425 N 0.91411 0.06719 0.59558 0.0
N426 N 0.92641 0.02542 0.60409 0.0
C427 C 0.95357 0.00654 0.58216 0.0
C428 C 0.95909 0.03706 0.55799 0.0
C429 C 0.9259 0.11843 0.54905 0.0
H430 H 0.91539 0.14701 0.56456 0.0
H431 H 0.95779 0.12766 0.53615 0.0
H432 H 0.898 0.11231 0.5319 0.0
O433 O 0.81374 0.06564 0.62533 0.0
O434 O 0.83667 -0.00055 0.64498 0.0
H435 H 0.99626 0.95136 0.56389 0.0
H436 H 0.99594 0.95866 0.60529 0.0
C437 C 0.97438 0.95974 0.58421 0.0
H438 H 0.94672 0.93355 0.58585 0.0
H439 H 0.86143 0.91333 0.62071 0.0
O440 O 0.84322 0.1594 0.61025 0.0
C441 C 0.8048 0.02663 0.63675 0.0
Co442 Co 0.39852 0.87337 0.63275 0.0
Co443 Co 0.50418 0.8882 0.65121 0.0
C444 C 0.4277 0.90736 0.69577 0.0
O445 O 0.39537 0.89555 0.67713 0.0
O446 O 0.4697 0.90911 0.68734 0.0
C447 C 0.31346 0.82543 0.63541 0.0
O448 O 0.31848 0.83612 0.66483 0.0
C449 C 0.58517 0.94677 0.66158 0.0
C450 C 0.64158 0.89815 0.65091 0.0
C451 C 0.63251 0.94383 0.65746 0.0
N452 N 0.56699 0.90485 0.65646 0.0
N453 N 0.60095 0.87577 0.65084 0.0
C454 C 0.55721 0.98851 0.66899 0.0
H455 H 0.53572 0.9816 0.68979 0.0
H456 H 0.5333 0.99572 0.64948 0.0
H457 H 0.57962 0.01888 0.67329 0.0
C458 C 0.43364 0.9321 0.57786 0.0
N459 N 0.43796 0.9107 0.60572 0.0
N460 N 0.48215 0.91116 0.61318 0.0
C461 C 0.50703 0.92921 0.58984 0.0
C462 C 0.47759 0.94501 0.5673 0.0
C463 C 0.38917 0.93692 0.56072 0.0
H464 H 0.3601 0.94048 0.57733 0.0
H465 H 0.39052 0.96688 0.54477 0.0
H466 H 0.38326 0.90541 0.54675 0.0
O467 O 0.42785 0.81351 0.63699 0.0
O468 O 0.50097 0.82186 0.6512 0.0
H469 H 0.56873 0.92646 0.56131 0.0
H470 H 0.57637 0.94901 0.59941 0.0
C471 C 0.55794 0.92284 0.58588 0.0
H472 H 0.56806 0.88825 0.59417 0.0
H473 H 0.59617 0.84111 0.64543 0.0
O474 O 0.33871 0.84644 0.61554 0.0
C475 C 0.46638 0.79689 0.64485 0.0
Co476 Co 0.62725 0.39226 0.62984 0.0
Co477 Co 0.59136 0.49065 0.64635 0.0
C478 C 0.5871 0.42401 0.69372 0.0
O479 O 0.60896 0.39636 0.67579 0.0
O480 O 0.5705 0.46155 0.6838 0.0
C481 C 0.65255 0.28885 0.61156 0.0
O482 O 0.61235 0.27194 0.60318 0.0
C483 C 0.54022 0.57738 0.65601 0.0
C484 C 0.5873 0.62502 0.63123 0.0
C485 C 0.54537 0.62255 0.64644 0.0
N486 N 0.57732 0.55389 0.64616 0.0
N487 N 0.60567 0.58276 0.632 0.0
C488 C 0.4995 0.55627 0.67208 0.0
H489 H 0.4976 0.51883 0.66726 0.0
H490 H 0.46707 0.57345 0.66478 0.0
H491 H 0.50337 0.56078 0.69748 0.0
C492 C 0.56938 0.41492 0.57122 0.0
N493 N 0.58412 0.42161 0.60086 0.0
N494 N 0.56762 0.46144 0.61032 0.0
C495 C 0.54033 0.47942 0.58823 0.0
C496 C 0.54108 0.45187 0.56235 0.0
C497 C 0.58553 0.37647 0.55106 0.0
H498 H 0.62317 0.37125 0.55438 0.0
H499 H 0.56778 0.34432 0.55824 0.0
H500 H 0.5778 0.38339 0.52628 0.0
O501 O 0.68415 0.42626 0.62861 0.0
O502 O 0.65943 0.49211 0.64791 0.0
H503 H 0.54444 0.5518 0.58851 0.0
H504 H 0.49206 0.53047 0.57122 0.0
C505 C 0.51734 0.52505 0.59018 0.0
H506 H 0.4985 0.52774 0.6123 0.0
H507 H 0.63675 0.57316 0.62165 0.0
O508 O 0.65573 0.3304 0.62054 0.0
C509 C 0.69186 0.46587 0.63937 0.0
Co510 Co 0.10453 0.62632 0.6312 0.0
Co511 Co 5e-05 0.59919 0.64549 0.0
C512 C 0.07354 0.58783 0.69328 0.0
O513 O 0.10616 0.59841 0.67442 0.0
O514 O 0.03157 0.58599 0.68451 0.0
C515 C 0.20725 0.65572 0.61702 0.0
O516 O 0.22569 0.61451 0.61783 0.0
C517 C 0.91174 0.54794 0.65652 0.0
C518 C 0.86449 0.59499 0.6317 0.0
C519 C 0.86629 0.55362 0.64727 0.0
N520 N 0.93606 0.58441 0.64626 0.0
N521 N 0.90727 0.61268 0.63206 0.0
C522 C 0.93208 0.50723 0.67264 0.0
H523 H 0.97012 0.50663 0.6696 0.0
H524 H 0.9165 0.47497 0.66361 0.0
H525 H 0.9241 0.50942 0.69776 0.0
C526 C 0.07841 0.57217 0.57155 0.0
N527 N 0.07126 0.58815 0.60085 0.0
N528 N 0.0297 0.57455 0.60961 0.0
C529 C 0.01067 0.54864 0.58713 0.0
C530 C 0.03974 0.54667 0.56199 0.0
C531 C 0.1198 0.58332 0.55235 0.0
H532 H 0.14453 0.60495 0.56558 0.0
H533 H 0.1368 0.55093 0.54501 0.0
H534 H 0.10876 0.60169 0.53105 0.0
O535 O 0.07115 0.68322 0.63764 0.0
O536 O 0.99769 0.66561 0.64404 0.0
H537 H 0.93772 0.55461 0.58723 0.0
H538 H 0.95806 0.50225 0.56978 0.0
C539 C 0.9641 0.5272 0.58882 0.0
H540 H 0.96088 0.50855 0.61103 0.0
H541 H 0.91723 0.64328 0.62131 0.0
O542 O 0.16386 0.66021 0.62049 0.0
C543 C 0.02977 0.6949 0.64206 0.0
C544 C 0.51854 0.80021 0.18547 0.0
C545 C 0.50774 0.83415 0.16329 0.0
C546 C 0.46691 0.77854 0.13133 0.0
C547 C 0.47988 0.74371 0.15263 0.0
N548 N 0.50371 0.72333 0.2046 0.0
N549 N 0.45797 0.86026 0.12253 0.0
C550 C 0.50105 0.75516 0.18133 0.0
C551 C 0.47676 0.8248 0.13886 0.0
N552 N 0.54743 0.81071 0.20948 0.0
N553 N 0.44847 0.76744 0.1031 0.0
H554 H 0.46433 0.89436 0.12854 0.0
H555 H 0.43238 0.85595 0.1058 0.0
H556 H 0.44249 0.73373 0.09592 0.0
H557 H 0.44287 0.79147 0.0856 0.0
H558 H 0.56152 0.78616 0.22427 0.0
H559 H 0.55855 0.84432 0.21371 0.0
H560 H 0.51519 0.73109 0.22688 0.0
H561 H 0.49031 0.69014 0.20258 0.0
C562 C 0.7327 0.4846 0.17886 0.0
C563 C 0.74334 0.46794 0.14881 0.0
C564 C 0.66182 0.46964 0.13514 0.0
C565 C 0.65388 0.49782 0.16134 0.0
N566 N 0.67824 0.52673 0.21076 0.0
N567 N 0.71843 0.43983 0.09893 0.0
C568 C 0.68806 0.50252 0.18445 0.0
C569 C 0.70786 0.45789 0.12731 0.0
N570 N 0.76533 0.48322 0.20175 0.0
N571 N 0.62537 0.45472 0.11787 0.0
H572 H 0.75185 0.4303 0.09267 0.0
H573 H 0.6946 0.43654 0.08099 0.0
H574 H 0.59152 0.46113 0.12461 0.0
H575 H 0.62835 0.43173 0.09948 0.0
H576 H 0.7587 0.49178 0.22475 0.0
H577 H 0.79816 0.4694 0.19824 0.0
H578 H 0.70296 0.53663 0.22697 0.0
H579 H 0.64481 0.53801 0.21569 0.0
C580 C 0.0209 0.72584 0.16631 0.0
C581 C 0.02185 0.74783 0.13703 0.0
C582 C 0.97724 0.68604 0.11368 0.0
C583 C 0.97255 0.66571 0.14354 0.0
N584 N 0.99685 0.65961 0.19681 0.0
N585 N 0.01487 0.74389 0.08171 0.0
C586 C 0.99734 0.68313 0.16935 0.0
C587 C 0.00492 0.72589 0.11025 0.0
N588 N 0.0406 0.7472 0.19126 0.0
N589 N 0.95303 0.66885 0.08907 0.0
H590 H 0.03511 0.77338 0.07896 0.0
H591 H 0.00692 0.72768 0.06087 0.0
H592 H 0.93272 0.63943 0.09058 0.0
H593 H 0.95076 0.68501 0.0676 0.0
H594 H 0.03805 0.73568 0.21402 0.0
H595 H 0.05926 0.77772 0.18907 0.0
H596 H 0.01652 0.66853 0.21606 0.0
H597 H 0.97833 0.62917 0.19993 0.0
C598 C 0.79601 0.96492 0.17972 0.0
C599 C 0.82836 0.97361 0.15589 0.0
C600 C 0.7715 0.01712 0.12657 0.0
C601 C 0.73864 0.00828 0.15021 0.0
N602 N 0.72264 0.98448 0.20297 0.0
N603 N 0.85243 0.02186 0.11355 0.0
C604 C 0.75182 0.98556 0.17805 0.0
C605 C 0.81794 0.00452 0.13163 0.0
N606 N 0.8072 0.93562 0.2033 0.0
N607 N 0.75807 0.03458 0.09854 0.0
H608 H 0.88695 0.01553 0.11841 0.0
H609 H 0.84721 0.0472 0.09683 0.0
H610 H 0.72387 0.04214 0.09307 0.0
H611 H 0.78019 0.03712 0.07955 0.0
H612 H 0.78332 0.92292 0.21922 0.0
H613 H 0.84052 0.92261 0.20611 0.0
H614 H 0.73231 0.97255 0.22478 0.0
H615 H 0.68986 -0.00092 0.20274 0.0
C616 C 0.008 0.23912 0.40147 0.0
C617 C 0.98468 0.25839 0.3759 0.0
C618 C 0.00995 0.19572 0.3421 0.0
C619 C 0.036 0.17787 0.3672 0.0
N620 N 0.05446 0.17719 0.42182 0.0
N621 N 0.95431 0.25237 0.32416 0.0
C622 C 0.03298 0.19775 0.39731 0.0
C623 C 0.98241 0.23549 0.34694 0.0
N624 N 0.00802 0.26189 0.42927 0.0
N625 N 0.01377 0.17617 0.31337 0.0
H626 H 0.93431 0.28182 0.32717 0.0
H627 H 0.94806 0.23588 0.30318 0.0
H628 H 0.03305 0.14657 0.30921 0.0
H629 H -0.00029 0.19003 0.29326 0.0
H630 H 0.02871 0.25324 0.44807 0.0
H631 H 0.98788 0.29099 0.43337 0.0
H632 H 0.04912 0.18607 0.4449 0.0
H633 H 0.07657 0.14948 0.41921 0.0
C634 C 0.28134 0.92957 0.3402 0.0
C635 C 0.26121 0.97316 0.34706 0.0
C636 C 0.33853 0.0037 0.35582 0.0
C637 C 0.35358 0.9596 0.35701 0.0
N638 N 0.34568 0.87844 0.35124 0.0
N639 N 0.27413 0.05599 0.34863 0.0
C640 C 0.32746 0.92135 0.34912 0.0
C641 C 0.29099 0.01236 0.3501 0.0
N642 N 0.25693 0.89756 0.32408 0.0
N643 N 0.36978 0.03404 0.3694 0.0
H644 H 0.24097 0.06297 0.34068 0.0
H645 H 0.29438 0.08523 0.35174 0.0
H646 H 0.42743 0.00649 0.39853 0.0
H647 H 0.36094 0.0688 0.36541 0.0
H648 H 0.27197 0.86744 0.31584 0.0
H649 H 0.22421 0.90494 0.31535 0.0
H650 H 0.32607 0.84872 0.34791 0.0
H651 H 0.38016 0.87362 0.35755 0.0
C652 C 0.51697 0.27078 0.4052 0.0
C653 C 0.51157 0.2404 0.37993 0.0
C654 C 0.48737 0.30296 0.34625 0.0
C655 C 0.49032 0.33292 0.37196 0.0
N656 N 0.52595 0.35016 0.42088 0.0
N657 N 0.51328 0.23098 0.32439 0.0
C658 C 0.51139 0.3183 0.39984 0.0
C659 C 0.50366 0.25751 0.34966 0.0
N660 N 0.5258 0.25426 0.43426 0.0
N661 N 0.46692 0.31687 0.31935 0.0
H662 H 0.52903 0.19895 0.3265 0.0
H663 H 0.51125 0.24312 0.30169 0.0
H664 H 0.45492 0.35024 0.316 0.0
H665 H 0.45957 0.29444 0.30114 0.0
H666 H 0.52535 0.27485 0.45403 0.0
H667 H 0.53045 0.21935 0.4389 0.0
H668 H 0.54423 0.34191 0.44091 0.0
H669 H 0.52455 0.38518 0.41594 0.0
C670 C 0.18175 0.5111 0.36201 0.0
C671 C 0.17387 0.46352 0.35786 0.0
C672 C 0.25652 0.44841 0.35798 0.0
C673 C 0.26471 0.49616 0.36327 0.0
N674 N 0.23606 0.57339 0.35515 0.0
N675 N 0.20222 0.3908 0.33982 0.0
C676 C 0.22758 0.52777 0.3603 0.0
C677 C 0.21096 0.43366 0.35144 0.0
N678 N 0.14631 0.53996 0.36943 0.0
N679 N 0.29071 0.41653 0.36131 0.0
H680 H 0.16873 0.37964 0.33482 0.0
H681 H 0.22807 0.36872 0.3321 0.0
H682 H 0.32474 0.42447 0.36631 0.0
H683 H 0.28446 0.38123 0.36144 0.0
H684 H 0.15155 0.57402 0.37612 0.0
H685 H 0.11209 0.52908 0.37098 0.0
H686 H 0.20993 0.59709 0.35072 0.0
H687 H 0.26926 0.58627 0.35136 0.0
C688 C 0.47731 0.1879 0.90518 0.0
C689 C 0.46953 0.16776 0.87555 0.0
C690 C 0.51931 0.22574 0.85188 0.0
C691 C 0.5182 0.25066 0.87997 0.0
N692 N 0.49853 0.25626 0.93402 0.0
N693 N 0.48105 0.16887 0.82004 0.0
C694 C 0.49857 0.23162 0.907 0.0
C695 C 0.49071 0.18646 0.8487 0.0
N696 N 0.46482 0.16507 0.93155 0.0
N697 N 0.54769 0.23973 0.82843 0.0
H698 H 0.45903 0.14092 0.81663 0.0
H699 H 0.4918 0.18433 0.79947 0.0
H700 H 0.57009 0.26757 0.83099 0.0
H701 H 0.5528 0.22092 0.80817 0.0
H702 H 0.47419 0.17566 0.95374 0.0
H703 H 0.44852 0.13328 0.93117 0.0
H704 H 0.47937 0.247 0.9535 0.0
H705 H 0.5161 0.28744 0.93648 0.0
C706 C 0.33435 0.52354 0.88547 0.0
C707 C 0.34344 0.49634 0.859 0.0
C708 C 0.26675 0.51313 0.83895 0.0
C709 C 0.25425 0.52857 0.86896 0.0
N710 N 0.27588 0.55257 0.92052 0.0
N711 N 0.32233 0.47079 0.80807 0.0
C712 C 0.28816 0.53615 0.892 0.0
C713 C 0.31112 0.49391 0.83457 0.0
N714 N 0.36982 0.53695 0.90416 0.0
N715 N 0.23607 0.5168 0.815 0.0
H716 H 0.35571 0.4586 0.80408 0.0
H717 H 0.2987 0.46269 0.79071 0.0
H718 H 0.20348 0.53155 0.81772 0.0
H719 H 0.24424 0.50917 0.79207 0.0
H720 H 0.36592 0.5592 0.92289 0.0
H721 H 0.404 0.53039 0.89828 0.0
H722 H 0.29836 0.55376 0.93934 0.0
H723 H 0.24231 0.56266 0.92594 0.0
C724 C 0.97177 0.28341 0.88916 0.0
C725 C 0.98052 0.24997 0.866 0.0
C726 C 0.02237 0.30626 0.83467 0.0
C727 C 0.01716 0.33818 0.85905 0.0
N728 N 0.97256 0.36425 0.90263 0.0
N729 N 0.00093 0.23246 0.81296 0.0
C730 C 0.9867 0.32917 0.88396 0.0
C731 C 0.00133 0.26248 0.83737 0.0
N732 N 0.95242 0.27099 0.91687 0.0
N733 N 0.04953 0.3173 0.80983 0.0
H734 H 0.98625 0.19977 0.81435 0.0
H735 H 0.01174 0.24106 0.79068 0.0
H736 H 0.06287 0.35037 0.80667 0.0
H737 H 0.0599 0.29378 0.79304 0.0
H738 H 0.95021 0.29302 0.93584 0.0
H739 H 0.94151 0.23763 0.92187 0.0
H740 H 0.94763 0.36056 0.91987 0.0
H741 H 0.98168 0.39823 0.89823 0.0
C742 C 0.22768 0.96739 0.8536 0.0
C743 C 0.2508 0.97285 0.88228 0.0
C744 C 0.19005 0.02338 0.90113 0.0
C745 C 0.17046 0.02352 0.87088 0.0
N746 N 0.1709 -0.00222 0.81775 0.0
N747 N 0.25592 0.00499 0.93351 0.0
C748 C 0.18879 0.9954 0.84704 0.0
C749 C 0.23205 -0.00013 0.90633 0.0
N750 N 0.24357 0.93593 0.83262 0.0
N751 N 0.16857 0.04591 0.92486 0.0
H752 H 0.28557 0.98611 0.93863 0.0
H753 H 0.24777 0.02922 0.95039 0.0
H754 H 0.13938 0.06596 0.92163 0.0
H755 H 0.17782 0.0425 0.94806 0.0
H756 H 0.22636 0.92747 0.81222 0.0
H757 H 0.2723 0.91531 0.83694 0.0
H758 H 0.1861 0.98248 0.79848 0.0
H759 H 0.14208 0.01759 0.81224 0.0
C760 C 0.99751 0.75591 0.676 0.0
C761 C 0.01922 0.74336 0.64773 0.0
C762 C 0.01761 0.82306 0.63076 0.0
C763 C 0.9863 0.83279 0.655 0.0
N764 N 0.94831 0.81086 0.7023 0.0
N765 N 0.0491 0.76442 0.59728 0.0
C766 C 0.97741 0.80008 0.67847 0.0
C767 C 0.02999 0.7769 0.62503 0.0
N768 N 0.99691 0.72594 0.70044 0.0
N769 N 0.03507 0.85799 0.61321 0.0
H770 H 0.05769 0.73063 0.59171 0.0
H771 H 0.05289 0.78703 0.57871 0.0
H772 H 0.0279 0.89215 0.61828 0.0
H773 H 0.06078 0.8535 0.59659 0.0
H774 H 0.98485 0.73465 0.72242 0.0
H775 H 0.01265 0.69371 0.6996 0.0
H776 H 0.93584 0.78681 0.71813 0.0
H777 H 0.93536 0.84403 0.70539 0.0
C778 C 0.7451 0.00189 0.67496 0.0
C779 C 0.75654 0.01486 0.64416 0.0
C780 C 0.67599 0.00482 0.62932 0.0
C781 C 0.66825 0.98013 0.65714 0.0
N782 N 0.69418 0.95708 0.70777 0.0
N783 N 0.73262 0.02756 0.5911 0.0
C784 C 0.70233 0.97973 0.68057 0.0
C785 C 0.72178 0.01684 0.6211 0.0
N786 N 0.7743 0.01227 0.69883 0.0
N787 N 0.63973 0.01729 0.61109 0.0
H788 H 0.76606 0.03522 0.58377 0.0
H789 H 0.70905 0.02478 0.57295 0.0
H790 H 0.60577 0.01247 0.61818 0.0
H791 H 0.64318 0.03804 0.59152 0.0
H792 H 0.76618 0.00644 0.72204 0.0
H793 H 0.8042 0.03177 0.69561 0.0
H794 H 0.71978 0.95075 0.72419 0.0
H795 H 0.66193 0.94305 0.71316 0.0
C796 C 0.50046 0.6826 0.67507 0.0
C797 C 0.5115 0.66012 0.64691 0.0
C798 C 0.48067 0.72412 0.61687 0.0
C799 C 0.47198 0.74718 0.645 0.0
N800 N 0.45465 0.74218 0.69934 0.0
N801 N 0.49655 0.65151 0.59218 0.0
C802 C 0.47548 0.72422 0.67371 0.0
C803 C 0.49624 0.67826 0.61812 0.0
N804 N 0.51647 0.66629 0.70273 0.0
N805 N 0.47636 0.74665 0.58919 0.0
H806 H 0.50648 0.6173 0.59292 0.0
H807 H 0.48225 0.66156 0.57108 0.0
H808 H 0.46354 0.78005 0.58741 0.0
H809 H 0.48783 0.73316 0.56819 0.0
H810 H 0.51325 0.68434 0.72348 0.0
H811 H 0.53604 0.63641 0.7046 0.0
H812 H 0.4534 0.72527 0.72063 0.0
H813 H 0.43377 0.77129 0.69794 0.0
C814 C 0.79946 0.51712 0.67462 0.0
C815 C 0.82775 0.52053 0.648 0.0
C816 C 0.76797 0.48526 0.616 0.0
C817 C 0.73973 0.48146 0.64259 0.0
N818 N 0.73417 0.47872 0.69835 0.0
N819 N 0.8456 0.49325 0.59673 0.0
C820 C 0.75714 0.49281 0.67238 0.0
C821 C 0.81412 0.49973 0.61976 0.0
N822 N 0.81217 0.5383 0.70157 0.0
N823 N 0.7503 0.47743 0.58707 0.0
H824 H 0.8801 0.50145 0.59992 0.0
H825 H 0.83875 0.4747 0.57657 0.0
H826 H 0.71613 0.46767 0.58312 0.0
H827 H 0.76845 0.48461 0.56676 0.0
H828 H 0.79024 0.54137 0.72061 0.0
H829 H 0.84385 0.55503 0.70419 0.0
H830 H 0.74692 0.48323 0.72073 0.0
H831 H 0.70506 0.45761 0.69717 0.0
C832 C 0.69832 0.26604 0.14246 0.0
C833 C 0.69432 0.23295 0.11837 0.0
C834 C 0.77463 0.25025 0.10257 0.0
C835 C 0.77721 0.28535 0.12542 0.0
N836 N 0.73546 0.3356 0.16023 0.0
N837 N 0.72569 0.19973 0.07176 0.0
C838 C 0.73718 0.29599 0.1432 0.0
C839 C 0.73165 0.22697 0.09726 0.0
N840 N 0.66673 0.26718 0.16603 0.0
N841 N 0.81357 0.23771 0.08686 0.0
H842 H 0.6947 0.18272 0.06709 0.0
H843 H 0.74976 0.19736 0.0539 0.0
H844 H 0.84533 0.25402 0.09005 0.0
H845 H 0.81524 0.20906 0.07242 0.0
H846 H 0.67118 0.28716 0.18588 0.0
H847 H 0.63871 0.24477 0.16757 0.0
H848 H 0.70539 0.34727 0.1709 0.0
H849 H 0.76229 0.35946 0.16081 0.0
C850 C 0.26841 0.73643 0.09622 0.0
C851 C 0.26485 0.70145 0.11931 0.0
C852 C 0.20334 0.74619 0.14437 0.0
C853 C 0.21221 0.78435 0.1246 0.0
N854 N 0.25729 0.81709 0.08312 0.0
N855 N 0.23685 0.68125 0.17058 0.0
C856 C 0.24575 0.77978 0.10074 0.0
C857 C 0.23434 0.70841 0.14476 0.0
N858 N 0.29232 0.72788 0.06954 0.0
N859 N 0.16446 0.74509 0.16232 0.0
H860 H 0.26174 0.65589 0.17368 0.0
H861 H 0.21802 0.68803 0.19067 0.0
H862 H 0.13932 0.77064 0.16156 0.0
H863 H 0.15452 0.71614 0.17498 0.0
H864 H 0.29266 0.75028 0.05069 0.0
H865 H 0.308 0.69634 0.06501 0.0
H866 H 0.28496 0.81731 0.06768 0.0
H867 H 0.24144 0.84902 0.08575 0.0
C868 C 0.25887 0.7303 0.42531 0.0
C869 C 0.29117 0.72289 0.40099 0.0
C870 C 0.24456 0.77138 0.36613 0.0
C871 C 0.21188 0.77899 0.3904 0.0
N872 N 0.18495 0.76206 0.44195 0.0
N873 N 0.3188 0.74074 0.34975 0.0
C874 C 0.21853 0.75777 0.41982 0.0
C875 C 0.28492 0.74448 0.37178 0.0
N876 N 0.26759 0.71182 0.45388 0.0
N877 N 0.23662 0.7892 0.33728 0.0
H878 H 0.34809 0.72039 0.35258 0.0
H879 H 0.31989 0.75999 0.32943 0.0
H880 H 0.21098 0.81317 0.3326 0.0
H881 H 0.25438 0.77924 0.31743 0.0
H882 H 0.24824 0.71851 0.47367 0.0
H883 H 0.29627 0.6912 0.45833 0.0
H884 H 0.18487 0.74471 0.46301 0.0
H885 H 0.15505 0.78135 0.43855 0.0
C886 C 0.76292 0.27068 0.41738 0.0
C887 C 0.7593 0.30653 0.39492 0.0
C888 C 0.69552 0.26382 0.3706 0.0
C889 C 0.70478 0.22455 0.38922 0.0
N890 N 0.75175 0.18953 0.42886 0.0
N891 N 0.72921 0.32914 0.3447 0.0
C892 C 0.73954 0.22773 0.41241 0.0
C893 C 0.7274 0.30106 0.37009 0.0
N894 N 0.78763 0.278 0.44389 0.0
N895 N 0.65541 0.26655 0.35403 0.0
H896 H 0.75444 0.35428 0.3415 0.0
H897 H 0.70918 0.32339 0.32498 0.0
H898 H 0.62938 0.24177 0.35548 0.0
H899 H 0.64562 0.29619 0.34212 0.0
H900 H 0.78802 0.25489 0.46235 0.0
H901 H 0.80378 0.30927 0.44879 0.0
H902 H 0.78011 0.18864 0.4437 0.0
H903 H 0.73596 0.15762 0.42571 0.0
C904 C 0.26323 0.70007 0.87865 0.0
C905 C 0.22171 0.71145 0.89469 0.0
C906 C 0.26524 0.76933 0.9248 0.0
C907 C 0.30488 0.7616 0.90603 0.0
N908 N 0.33941 0.72431 0.86193 0.0
N909 N 0.18227 0.75989 0.93139 0.0
C910 C 0.30314 0.72834 0.88205 0.0
C911 C 0.22252 0.74678 0.91748 0.0
N912 N 0.26556 0.66062 0.86145 0.0
N913 N 0.2688 0.79717 0.95022 0.0
H914 H 0.15068 0.74403 0.92679 0.0
H915 H 0.17953 0.78852 0.94576 0.0
H916 H 0.29904 0.8149 0.95579 0.0
H917 H 0.24303 0.80011 0.96694 0.0
H918 H 0.29623 0.64788 0.85224 0.0
H919 H 0.2381 0.63773 0.85917 0.0
H920 H 0.33806 0.70445 0.84184 0.0
H921 H 0.36936 0.74415 0.86372 0.0
C922 C 0.74869 0.2778 0.91741 0.0
C923 C 0.71319 0.28008 0.89473 0.0
C924 C 0.73128 0.20089 0.87848 0.0
C925 C 0.76492 0.19736 0.90227 0.0
N926 N 0.80046 0.22966 0.9478 0.0
N927 N 0.6619 0.23832 0.86062 0.0
C928 C 0.77203 0.23506 0.9228 0.0
C929 C 0.70191 0.23996 0.87736 0.0
N930 N 0.76139 0.31679 0.93291 0.0
N931 N 0.72876 0.16815 0.85578 0.0
H932 H 0.63815 0.26513 0.86048 0.0
H933 H 0.64969 0.2085 0.84998 0.0
H934 H 0.75001 0.13928 0.85513 0.0
H935 H 0.70864 0.17196 0.83591 0.0
H936 H 0.79019 0.31878 0.94729 0.0
H937 H 0.74483 0.34824 0.92971 0.0
H938 H 0.80375 0.25394 0.9654 0.0
H939 H 0.81791 0.19901 0.95228 0.0
C940 C 0.77667 0.24447 0.60268 0.0
C941 C 0.77616 0.20581 0.62286 0.0
C942 C 0.69468 0.22166 0.63553 0.0
C943 C 0.6942 0.25856 0.61402 0.0
N944 N 0.73215 0.29971 0.57273 0.0
N945 N 0.73009 0.15006 0.65091 0.0
C946 C 0.7345 0.26833 0.59626 0.0
C947 C 0.73379 0.1922 0.63704 0.0
N948 N 0.81763 0.25966 0.5907 0.0
N949 N 0.6587 0.21581 0.6557 0.0
H950 H 0.75682 0.12617 0.65118 0.0
H951 H 0.69888 0.13662 0.65889 0.0
H952 H 0.62952 0.23674 0.65573 0.0
H953 H 0.65982 0.19296 0.6743 0.0
H954 H 0.82114 0.29046 0.5786 0.0
H955 H 0.84894 0.24316 0.59485 0.0
H956 H 0.7587 0.30507 0.55683 0.0
H957 H 0.70196 0.31755 0.56739 0.0
C958 C 0.29921 0.74101 0.64533 0.0
C959 C 0.28916 0.781 0.62751 0.0
C960 C 0.23147 0.73546 0.5984 0.0
C961 C 0.2371 0.69803 0.61939 0.0
N962 N 0.26925 0.67103 0.66781 0.0
N963 N 0.24233 0.81723 0.58841 0.0
C964 C 0.26914 0.70233 0.64414 0.0
C965 C 0.25455 0.7784 0.60418 0.0
N966 N 0.33859 0.73902 0.66272 0.0
N967 N 0.20483 0.72965 0.57256 0.0
H968 H 0.25848 0.84889 0.59195 0.0
H969 H 0.21406 0.81888 0.57354 0.0
H970 H 0.18782 0.69883 0.56762 0.0
H971 H 0.20285 0.75375 0.55475 0.0
H972 H 0.34972 0.70906 0.67365 0.0
H973 H 0.36296 0.76539 0.66319 0.0
H974 H 0.28848 0.67561 0.68801 0.0
H975 H 0.24648 0.64328 0.66903 0.0
C976 C 0.47532 0.03055 0.0303 0.0
C977 C 0.52189 0.01973 0.03729 0.0
C978 C 0.52239 0.963 0.99467 0.0
C979 C 0.47514 0.97225 0.98875 0.0
N980 N 0.40426 0.00879 1.00393 0.0
N981 N 0.58788 0.97067 0.02942 0.0
C982 C 0.45087 0.00405 1.00772 0.0
C983 C 0.54488 0.9845 0.02035 0.0
N984 N 0.45472 0.06661 0.04513 0.0
N985 N 0.54625 0.93489 0.975 0.0
H986 H 0.60664 0.98735 0.04676 0.0
H987 H 0.60398 0.94127 0.02094 0.0
H988 H 0.53039 0.91695 0.95695 0.0
H989 H 0.58198 0.93113 0.97555 0.0
H990 H 0.42235 0.0794 0.0393 0.0
H991 H 0.47186 0.08643 0.06172 0.0
H992 H 0.38344 0.02852 0.01838 0.0
H993 H 0.38563 0.9896 0.98774 0.0
C994 C 0.48875 0.54943 1.00742 0.0
C995 C 0.47439 0.52395 0.03378 0.0
C996 C 0.50781 0.45358 0.01096 0.0
C997 C 0.51964 0.47851 0.98379 0.0
N998 N 0.5156 0.54871 0.95413 0.0
N999 N 0.46466 0.4511 0.05939 0.0
C1000 C 0.50844 0.52606 0.9815 0.0
C1001 C 0.48236 0.47574 0.03511 0.0
N1002 N 0.4855 0.59632 1.0077 0.0
N1003 N 0.52088 0.4086 0.01357 0.0
H1004 H 0.44552 0.46633 0.07713 0.0
H1005 H 0.46539 0.4154 0.06085 0.0
H1006 H 0.5383 0.39113 0.99601 0.0
H1007 H 0.51761 0.38934 0.03378 0.0
H1008 H 0.50067 0.61744 0.99105 0.0
H1009 H 0.46992 0.61451 0.02571 0.0
H1010 H 0.50251 0.58131 0.94945 0.0
H1011 H 0.53264 0.53385 0.93532 0.0
C1012 C 0.95241 0.48142 1.00427 0.0
C1013 C 0.97498 0.4749 0.0331 0.0
C1014 C 0.04526 0.51192 0.01214 0.0
C1015 C 0.02339 0.51657 0.98286 0.0
N1016 N 0.95816 0.50084 0.94967 0.0
N1017 N 0.04415 0.47823 0.06384 0.0
C1018 C 0.9775 0.49987 0.97859 0.0
C1019 C 0.02183 0.48863 0.0368 0.0
N1020 N 0.9063 0.47186 1.00184 0.0
N1021 N 0.08855 0.52977 0.01628 0.0
H1022 H 0.02805 0.46081 0.08206 0.0
H1023 H 0.07927 0.48332 0.06753 0.0
H1024 H 0.10723 0.54543 0.9985 0.0
H1025 H 0.10505 0.53193 0.03765 0.0
H1026 H 0.88615 0.48123 0.9829 0.0
H1027 H 0.8873 0.45666 0.01968 0.0
H1028 H 0.92785 0.48352 0.94391 0.0
H1029 H 0.97368 0.51723 0.93083 0.0
C1030 C 0.98663 0.97779 0.9785 0.0
C1031 C 0.97541 0.02532 0.98052 0.0
C1032 C 0.00358 0.02634 0.03444 0.0
C1033 C 0.01774 0.97958 0.03172 0.0
N1034 N 0.02623 0.91159 1.00049 0.0
N1035 N 0.97866 0.09652 1.00883 0.0
C1036 C 0.01043 0.95564 1.00344 0.0
C1037 C 0.98512 0.04997 1.00816 0.0
N1038 N 0.97328 0.95358 0.95282 0.0
N1039 N 0.00688 0.04795 0.06251 0.0
H1040 H 0.96381 0.11467 0.99053 0.0
H1041 H 0.99043 0.11762 0.02666 0.0
H1042 H 0.02311 0.03317 0.08165 0.0
H1043 H 0.9915 0.07948 0.06732 0.0
H1044 H 0.97629 0.9181 0.9506 0.0
H1045 H 0.9554 0.96866 0.93445 0.0
H1046 H 0.02665 0.89349 0.97969 0.0
H1047 H 0.04211 0.89383 0.01854 0.0
C1048 C 0.03467 0.02485 0.53002 0.0
C1049 C 0.98562 0.02683 0.52874 0.0
C1050 C 0.98808 0.9936 0.47609 0.0
C1051 C 0.03684 0.98856 0.47833 0.0
N1052 N 0.10608 0.99388 0.50878 0.0
N1053 N 0.91508 0.00643 0.50255 0.0
C1054 C 0.05992 0.00252 0.50579 0.0
C1055 C 0.96219 0.0095 0.50224 0.0
N1056 N 0.0571 0.045 0.55439 0.0
N1057 N 0.96651 0.98416 0.44863 0.0
H1058 H 0.89493 0.01898 0.52071 0.0
H1059 H 0.89609 0.98889 0.48579 0.0
H1060 H 0.98376 0.97031 0.42956 0.0
H1061 H 0.93222 0.99253 0.44413 0.0
H1062 H 0.09278 0.04873 0.55569 0.0
H1063 H 0.03962 0.06163 0.57232 0.0
H1064 H 0.12453 -0.00114 0.52921 0.0
H1065 H 0.12542 0.97802 0.49141 0.0
C1066 C 0.53895 0.03454 0.5176 0.0
C1067 C 0.54034 0.01238 0.48839 0.0
C1068 C 0.49957 0.94539 0.51068 0.0
C1069 C 0.49349 0.96983 0.53883 0.0
N1070 N 0.50381 0.03909 0.56871 0.0
N1071 N 0.51986 0.94787 0.45612 0.0
C1072 C 0.51248 0.01478 0.5422 0.0
C1073 C 0.52036 0.9679 0.48479 0.0
N1074 N 0.56224 0.07506 0.52146 0.0
N1075 N 0.48706 0.90009 0.50906 0.0
H1076 H 0.53752 0.96178 0.43719 0.0
H1077 H 0.50045 0.91875 0.45076 0.0
H1078 H 0.47056 0.88289 0.52718 0.0
H1079 H 0.49561 0.87871 0.49058 0.0
H1080 H 0.56629 0.0915 0.54271 0.0
H1081 H 0.58097 0.09045 0.50357 0.0
H1082 H 0.51283 0.07343 0.57183 0.0
H1083 H 0.48397 0.02597 0.58689 0.0
C1084 C 0.51701 0.5345 0.49636 0.0
C1085 C 0.4741 0.5181 0.48503 0.0
C1086 C 0.47873 0.45225 0.52131 0.0
C1087 C 0.52277 0.46747 0.53143 0.0
N1088 N 0.58761 0.5184 0.52491 0.0
N1089 N 0.41705 0.45754 0.48333 0.0
C1090 C 0.54307 0.50713 0.5176 0.0
C1091 C 0.45581 0.47584 0.4966 0.0
N1092 N 0.53254 0.57669 0.48697 0.0
N1093 N 0.45797 0.41622 0.53618 0.0
H1094 H 0.39769 0.47496 0.46668 0.0
H1095 H 0.40547 0.42421 0.48759 0.0
H1096 H 0.47471 0.39694 0.55319 0.0
H1097 H 0.42363 0.40683 0.53278 0.0
H1098 H 0.56133 0.59304 0.49633 0.0
H1099 H 0.51408 0.5973 0.47153 0.0
H1100 H 0.60617 0.54458 0.51411 0.0
H1101 H 0.60751 0.49863 0.54002 0.0
C1102 C 0.99026 0.54987 0.51408 0.0
C1103 C 0.02555 0.52703 0.5311 0.0
C1104 C 0.01511 0.45865 0.49793 0.0
C1105 C 0.97747 0.4803 0.48246 0.0
N1106 N 0.92589 0.54443 0.47786 0.0
N1107 N 0.06793 0.45785 0.54177 0.0
C1108 C 0.96409 0.52535 0.49124 0.0
C1109 C 0.03716 0.48098 0.52354 0.0
N1110 N 0.98221 0.59541 0.51975 0.0
N1111 N 0.03047 0.41691 0.48767 0.0
H1112 H 0.08614 0.47369 0.55972 0.0
H1113 H 0.07368 0.4226 0.54023 0.0
H1114 H 0.01339 0.39792 0.47063 0.0
H1115 H 0.06134 0.4021 0.49487 0.0
H1116 H 0.95977 0.61564 0.50682 0.0
H1117 H 0.00114 0.61421 0.53601 0.0
H1118 H 0.91117 0.57526 0.48501 0.0
H1119 H 0.90648 0.52742 0.461 0.0
C1120 C 0.60936 0.07023 0.28184 0.0
C1121 C 0.56816 0.08748 0.29536 0.0
C1122 C 0.53669 0.09991 0.24282 0.0
C1123 C 0.57973 0.08766 0.23001 0.0
N1124 N 0.66056 0.07199 0.23751 0.0
N1125 N 0.496 0.12934 0.28716 0.0
C1126 C 0.61725 0.07657 0.24964 0.0
C1127 C 0.53258 0.10522 0.2755 0.0
N1128 N 0.63975 0.0452 0.29919 0.0
N1129 N 0.49941 0.10595 0.22385 0.0
H1130 H 0.49045 0.1359 0.3105 0.0
H1131 H 0.47294 0.14727 0.27313 0.0
H1132 H 0.50184 0.10476 0.19971 0.0
H1133 H 0.46575 0.10901 0.23215 0.0
H1134 H 0.66816 0.02841 0.28964 0.0
H1135 H 0.63356 0.03636 0.32225 0.0
H1136 H 0.68991 0.06778 0.25119 0.0
H1137 H 0.66762 0.07727 0.21404 0.0
C1138 C 0.41041 0.62012 0.2766 0.0
C1139 C 0.40564 0.576 0.29024 0.0
C1140 C 0.40138 0.54059 0.23852 0.0
C1141 C 0.40466 0.58462 0.22495 0.0
N1142 N 0.40328 0.66718 0.23033 0.0
N1143 N 0.38255 0.49629 0.28408 0.0
C1144 C 0.40591 0.62472 0.24383 0.0
C1145 C 0.39695 0.53681 0.27116 0.0
N1146 N 0.42178 0.65708 0.29466 0.0
N1147 N 0.40378 0.5022 0.22029 0.0
H1148 H 0.377 0.49207 0.30772 0.0
H1149 H 0.37128 0.46826 0.27106 0.0
H1150 H 0.40468 0.50371 0.19612 0.0
H1151 H 0.40782 0.46915 0.22921 0.0
H1152 H 0.43089 0.68911 0.28574 0.0
H1153 H 0.42566 0.6549 0.31865 0.0
H1154 H 0.3997 0.69759 0.24283 0.0
H1155 H 0.40079 0.67182 0.20641 0.0
C1156 C 0.94075 0.44795 0.23997 0.0
C1157 C 0.90905 0.41954 0.22374 0.0
C1158 C 0.88579 0.38457 0.27314 0.0
C1159 C 0.91317 0.41719 0.28966 0.0
N1160 N 0.95566 0.48885 0.28768 0.0
N1161 N 0.84013 0.37235 0.22713 0.0
C1162 C 0.93727 0.45168 0.2727 0.0
C1163 C 0.87825 0.39108 0.24089 0.0
N1164 N 0.97492 0.47066 0.22431 0.0
N1165 N 0.86865 0.34614 0.28733 0.0
H1166 H 0.83068 0.3793 0.20432 0.0
H1167 H 0.81481 0.35474 0.23962 0.0
H1168 H 0.8747 0.33773 0.31039 0.0
H1169 H 0.85241 0.31982 0.27501 0.0
H1170 H 0.00119 0.48873 0.23552 0.0
H1171 H 0.97991 0.46713 0.20047 0.0
H1172 H 0.9704 0.51662 0.27598 0.0
H1173 H 0.95111 0.49443 0.31139 0.0
C1174 C 0.11192 0.88749 0.27221 0.0
C1175 C 0.08475 0.92028 0.28871 0.0
C1176 C 0.05628 0.95016 0.23896 0.0
C1177 C 0.07934 0.91435 0.22283 0.0
N1178 N 0.11918 0.84133 0.22599 0.0
N1179 N 0.02218 0.97484 0.28744 0.0
C1180 C 0.10435 0.88085 0.23994 0.0
C1181 C 0.05419 0.94918 0.27191 0.0
N1182 N 0.14671 0.86402 0.28656 0.0
N1183 N 0.03765 0.98605 0.22284 0.0
H1184 H 0.01824 0.97334 0.31148 0.0
H1185 H 0.99633 0.9934 0.27626 0.0
H1186 H 0.04033 0.98894 0.19879 0.0
H1187 H 0.02404 0.01514 0.23355 0.0
H1188 H 0.17085 0.84449 0.27442 0.0
H1189 H 0.15462 0.86698 0.30993 0.0
H1190 H 0.13263 0.81364 0.23838 0.0
H1191 H 0.11391 0.83392 0.20268 0.0
C1192 C 0.44147 0.88548 0.78226 0.0
C1193 C 0.40901 0.91659 0.79468 0.0
C1194 C 0.388 0.94228 0.74218 0.0
C1195 C 0.41885 0.90955 0.72965 0.0
N1196 N 0.46756 0.84289 0.73755 0.0
N1197 N 0.34389 0.96711 0.78684 0.0
C1198 C 0.44338 0.87901 0.74965 0.0
C1199 C 0.37999 0.94276 0.77472 0.0
N1200 N 0.47191 0.86362 0.80146 0.0
N1201 N 0.36801 0.97425 0.72325 0.0
H1202 H 0.33626 0.9677 0.81048 0.0
H1203 H 0.31884 0.98305 0.7733 0.0
H1204 H 0.37312 0.97487 0.69931 0.0
H1205 H 0.3495 0.00236 0.73152 0.0
H1206 H 0.50017 0.84498 0.79347 0.0
H1207 H 0.47109 0.86704 0.82553 0.0
H1208 H 0.48139 0.81657 0.75101 0.0
H1209 H 0.47039 0.83665 0.71387 0.0
C1210 C 0.56849 0.37695 0.74117 0.0
C1211 C 0.58784 0.41714 0.72787 0.0
C1212 C 0.60562 0.44778 0.77993 0.0
C1213 C 0.58504 0.4083 0.79317 0.0
N1214 N 0.54207 0.3375 0.7874 0.0
N1215 N 0.63265 0.48714 0.73393 0.0
C1216 C 0.56573 0.37316 0.77402 0.0
C1217 C 0.60849 0.45162 0.74709 0.0
N1218 N 0.55271 0.34241 0.72237 0.0
N1219 N 0.61988 0.48284 0.79884 0.0
H1220 H 0.63572 0.49204 0.71012 0.0
H1221 H 0.65313 0.51005 0.74637 0.0
H1222 H 0.61975 0.48038 0.82298 0.0
H1223 H 0.62916 0.5154 0.79097 0.0
H1224 H 0.54404 0.30967 0.73019 0.0
H1225 H 0.55036 0.34546 0.69835 0.0
H1226 H 0.52218 0.31378 0.77523 0.0
H1227 H 0.53977 0.33294 0.81128 0.0
C1228 C 0.11189 0.61443 0.7434 0.0
C1229 C 0.08245 0.5831 0.7273 0.0
C1230 C 0.05239 0.55681 0.77743 0.0
C1231 C 0.0869 0.58223 0.79323 0.0
N1232 N 0.15845 0.62524 0.78921 0.0
N1233 N 0.03363 0.51566 0.73048 0.0
C1234 C 0.11932 0.60825 0.77571 0.0
C1235 C 0.05535 0.55159 0.74479 0.0
N1236 N 0.13078 0.65168 0.72877 0.0
N1237 N 0.01607 0.5386 0.79346 0.0
H1238 H 0.03787 0.50859 0.70694 0.0
H1239 H 0.01628 0.48994 0.74271 0.0
H1240 H 0.01175 0.54388 0.81722 0.0
H1241 H 0.98804 0.52285 0.78257 0.0
H1242 H 0.14909 0.67704 0.7407 0.0
H1243 H 0.12371 0.66061 0.7059 0.0
H1244 H 0.1848 0.64076 0.77643 0.0
H1245 H 0.16712 0.61923 0.81228 0.0
C1246 C 0.91572 0.12612 0.76852 0.0
C1247 C 0.91478 0.08664 0.7879 0.0
C1248 C 0.90288 0.03833 0.74227 0.0
C1249 C 0.91224 0.07676 0.72242 0.0
N1250 N 0.93499 0.15651 0.71787 0.0
N1251 N 0.91337 0.00427 0.79306 0.0
C1252 C 0.92032 0.12064 0.73585 0.0
C1253 C 0.9103 0.04246 0.77471 0.0
N1254 N 0.91205 0.16893 0.7813 0.0
N1255 N 0.88419 -0.00134 0.73067 0.0
H1256 H 0.9166 0.00607 0.81713 0.0
H1257 H 0.91595 0.97108 0.78409 0.0
H1258 H 0.87432 0.99448 0.70765 0.0
H1259 H 0.87297 0.97169 0.74472 0.0
H1260 H 0.90826 0.19871 0.76811 0.0
H1261 H 0.90817 0.1742 0.80508 0.0
H1262 H 0.94576 0.1879 0.72705 0.0
H1263 H 0.94118 0.1535 0.69415 0.0
loop_
_geom_bond_atom_site_label_1
_geom_bond_atom_site_label_2
_geom_bond_distance
_geom_bond_site_symmetry_2
_ccdc_geom_bond_type
Co0 O3 1.970 . S
Co0 N17 1.989 . S
Co0 O25 1.967 . S
Co0 O32 1.920 . S
Co1 O4 1.966 1_565 S
Co1 N10 2.022 . S
Co1 N18 1.993 1_565 S
Co1 O26 1.941 . S
C2 O3 1.258 . S
C2 O4 1.263 . S
O3 Co0 1.970 . S
O3 C2 1.258 . S
O4 Co1 1.966 1_545 S
O4 C2 1.263 . S
C5 O6 1.235 . S
C5 O32 1.289 . S
O6 C5 1.235 . S
C7 C9 1.400 . S
C7 N10 1.351 . S
C7 C12 1.501 . S
C8 C9 1.387 . S
C8 N11 1.341 . S
C9 C7 1.400 . S
C9 C8 1.387 . S
N10 Co1 2.022 . S
N10 C7 1.351 . S
N10 N11 1.365 . S
N11 C8 1.341 . S
N11 N10 1.365 . S
N11 H31 0.862 . S
C12 C7 1.501 . S
C12 H13 0.961 . S
C12 H14 0.961 . S
C12 H15 0.960 . S
H13 C12 0.961 . S
H14 C12 0.961 . S
H15 C12 0.960 . S
C16 N17 1.342 . S
C16 C20 1.401 . S
C16 C21 1.499 . S
N17 Co0 1.989 . S
N17 C16 1.342 . S
N17 N18 1.388 . S
N18 Co1 1.993 1_545 S
N18 N17 1.388 . S
N18 C19 1.346 . S
C19 N18 1.346 . S
C19 C20 1.396 . S
C19 C29 1.510 1_545 S
C20 C16 1.401 . S
C20 C19 1.396 . S
C21 C16 1.499 . S
C21 H22 0.959 . S
C21 H23 0.960 . S
C21 H24 0.961 . S
H22 C21 0.959 . S
H23 C21 0.960 . S
H24 C21 0.961 . S
O25 Co0 1.967 . S
O25 C33 1.258 . S
O26 Co1 1.941 . S
O26 C33 1.266 1_565 S
H27 C29 0.959 . S
H28 C29 0.961 . S
C29 C19 1.510 1_565 S
C29 H27 0.959 . S
C29 H28 0.961 . S
C29 H30 0.960 . S
H30 C29 0.960 . S
H31 N11 0.862 . S
O32 Co0 1.920 . S
O32 C5 1.289 . S
C33 O25 1.258 . S
C33 O26 1.266 1_545 S
Co34 O37 1.970 . S
Co34 N51 1.989 . S
Co34 O59 1.967 . S
Co34 O66 1.920 . S
Co35 O38 1.966 . S
Co35 N44 2.022 . S
Co35 N52 1.993 . S
Co35 O60 1.941 . S
C36 O37 1.258 . S
C36 O38 1.263 . S
O37 Co34 1.970 . S
O37 C36 1.258 . S
O38 Co35 1.966 . S
O38 C36 1.263 . S
C39 O40 1.235 . S
C39 O66 1.289 . S
O40 C39 1.235 . S
C41 C43 1.400 . S
C41 N44 1.351 . S
C41 C46 1.501 . S
C42 C43 1.387 . S
C42 N45 1.341 . S
C43 C41 1.400 . S
C43 C42 1.387 . S
N44 Co35 2.022 . S
N44 C41 1.351 . S
N44 N45 1.365 . S
N45 C42 1.341 . S
N45 N44 1.365 . S
N45 H65 0.862 . S
C46 C41 1.501 . S
C46 H47 0.961 . S
C46 H48 0.961 . S
C46 H49 0.960 . S
H47 C46 0.961 . S
H48 C46 0.961 . S
H49 C46 0.960 . S
C50 N51 1.342 . S
C50 C54 1.401 . S
C50 C55 1.499 . S
N51 Co34 1.989 . S
N51 C50 1.342 . S
N51 N52 1.388 . S
N52 Co35 1.993 . S
N52 N51 1.388 . S
N52 C53 1.346 . S
C53 N52 1.346 . S
C53 C54 1.396 . S
C53 C63 1.510 . S
C54 C50 1.401 . S
C54 C53 1.396 . S
C55 C50 1.499 . S
C55 H56 0.959 . S
C55 H57 0.960 . S
C55 H58 0.961 . S
H56 C55 0.959 . S
H57 C55 0.960 . S
H58 C55 0.961 . S
O59 Co34 1.967 . S
O59 C67 1.258 . S
O60 Co35 1.941 . S
O60 C67 1.266 . S
H61 C63 0.959 . S
H62 C63 0.961 . S
C63 C53 1.510 . S
C63 H61 0.959 . S
C63 H62 0.961 . S
C63 H64 0.960 . S
H64 C63 0.960 . S
H65 N45 0.862 . S
O66 Co34 1.920 . S
O66 C39 1.289 . S
C67 O59 1.258 . S
C67 O60 1.266 . S
Co68 O71 1.970 . S
Co68 N85 1.989 . S
Co68 O93 1.967 . S
Co68 O100 1.920 . S
Co69 O72 1.966 . S
Co69 N78 2.022 . S
Co69 N86 1.993 . S
Co69 O94 1.941 . S
C70 O71 1.258 . S
C70 O72 1.263 . S
O71 Co68 1.970 . S
O71 C70 1.258 . S
O72 Co69 1.966 . S
O72 C70 1.263 . S
C73 O74 1.235 . S
C73 O100 1.289 . S
O74 C73 1.235 . S
C75 C77 1.400 . S
C75 N78 1.351 . S
C75 C80 1.501 . S
C76 C77 1.387 . S
C76 N79 1.341 . S
C77 C75 1.400 . S
C77 C76 1.387 . S
N78 Co69 2.022 . S
N78 C75 1.351 . S
N78 N79 1.365 . S
N79 C76 1.341 . S
N79 N78 1.365 . S
N79 H99 0.862 . S
C80 C75 1.501 . S
C80 H81 0.961 . S
C80 H82 0.961 1_655 S
C80 H83 0.960 . S
H81 C80 0.961 . S
H82 C80 0.961 1_455 S
H83 C80 0.960 . S
C84 N85 1.342 . S
C84 C88 1.401 . S
C84 C89 1.499 . S
N85 Co68 1.989 . S
N85 C84 1.342 . S
N85 N86 1.388 . S
N86 Co69 1.993 . S
N86 N85 1.388 . S
N86 C87 1.346 . S
C87 N86 1.346 . S
C87 C88 1.396 . S
C87 C97 1.510 . S
C88 C84 1.401 . S
C88 C87 1.396 . S
C89 C84 1.499 . S
C89 H90 0.959 . S
C89 H91 0.960 . S
C89 H92 0.961 . S
H90 C89 0.959 . S
H91 C89 0.960 . S
H92 C89 0.961 . S
O93 Co68 1.967 . S
O93 C101 1.258 . S
O94 Co69 1.941 . S
O94 C101 1.266 . S
H95 C97 0.959 . S
H96 C97 0.938 1_455 S
C97 C87 1.510 . S
C97 H95 0.959 . S
C97 H96 0.938 1_655 S
C97 H98 0.960 . S
H98 C97 0.960 . S
H99 N79 0.862 . S
O100 Co68 1.920 . S
O100 C73 1.289 . S
C101 O93 1.258 . S
C101 O94 1.266 . S
Co102 O105 1.970 . S
Co102 N119 1.989 . S
Co102 O127 1.967 . S
Co102 O134 1.920 . S
Co103 O106 1.966 1_655 S
Co103 N112 2.022 . S
Co103 N120 1.993 1_655 S
Co103 O128 1.941 . S
C104 O105 1.258 . S
C104 O106 1.263 . S
O105 Co102 1.970 . S
O105 C104 1.258 . S
O106 Co103 1.966 1_455 S
O106 C104 1.263 . S
C107 O108 1.235 . S
C107 O134 1.289 . S
O108 C107 1.235 . S
C109 C111 1.400 . S
C109 N112 1.351 . S
C109 C114 1.501 . S
C110 C111 1.387 . S
C110 N113 1.341 . S
C111 C109 1.400 . S
C111 C110 1.387 . S
N112 Co103 2.022 . S
N112 C109 1.351 . S
N112 N113 1.365 . S
N113 C110 1.341 . S
N113 N112 1.365 . S
N113 H133 0.862 . S
C114 C109 1.501 . S
C114 H115 0.961 . S
C114 H116 0.961 1_565 S
C114 H117 0.960 . S
H115 C114 0.961 . S
H116 C114 0.961 1_545 S
H117 C114 0.960 . S
C118 N119 1.342 . S
C118 C122 1.401 . S
C118 C123 1.499 . S
N119 Co102 1.989 . S
N119 C118 1.342 . S
N119 N120 1.388 . S
N120 Co103 1.993 1_455 S
N120 N119 1.388 . S
N120 C121 1.346 . S
C121 N120 1.346 . S
C121 C122 1.396 . S
C121 C131 1.510 1_455 S
C122 C118 1.401 . S
C122 C121 1.396 . S
C123 C118 1.499 . S
C123 H124 0.959 . S
C123 H125 0.960 . S
C123 H126 0.961 . S
H124 C123 0.959 . S
H125 C123 0.960 . S
H126 C123 0.961 . S
O127 Co102 1.967 . S
O127 C135 1.258 . S
O128 Co103 1.941 . S
O128 C135 1.266 1_655 S
H129 C131 0.959 . S
H130 C131 0.938 1_545 S
C131 C121 1.510 1_655 S
C131 H129 0.959 . S
C131 H130 0.938 1_565 S
C131 H132 0.960 . S
H132 C131 0.960 . S
H133 N113 0.862 . S
O134 Co102 1.920 . S
O134 C107 1.289 . S
C135 O127 1.258 . S
C135 O128 1.266 1_455 S
Co136 O139 1.970 . S
Co136 N153 1.989 . S
Co136 O161 1.967 . S
Co136 O168 1.920 . S
Co137 O140 1.966 1_545 S
Co137 N146 2.022 . S
Co137 N154 1.993 1_545 S
Co137 O162 1.941 . S
C138 O139 1.258 . S
C138 O140 1.263 . S
O139 Co136 1.970 . S
O139 C138 1.258 . S
O140 Co137 1.966 1_565 S
O140 C138 1.263 . S
C141 O142 1.235 . S
C141 O168 1.289 . S
O142 C141 1.235 . S
C143 C145 1.400 . S
C143 N146 1.351 . S
C143 C148 1.501 . S
C144 C145 1.387 . S
C144 N147 1.341 . S
C145 C143 1.400 . S
C145 C144 1.387 . S
N146 Co137 2.022 . S
N146 C143 1.351 . S
N146 N147 1.365 . S
N147 C144 1.341 . S
N147 N146 1.365 . S
N147 H167 0.862 . S
C148 C143 1.501 . S
C148 H149 0.961 . S
C148 H150 0.961 1_455 S
C148 H151 0.960 . S
H149 C148 0.961 . S
H150 C148 0.961 1_655 S
H151 C148 0.960 . S
C152 N153 1.342 . S
C152 C156 1.401 . S
C152 C157 1.499 . S
N153 Co136 1.989 . S
N153 C152 1.342 . S
N153 N154 1.388 . S
N154 Co137 1.993 1_565 S
N154 N153 1.388 . S
N154 C155 1.346 . S
C155 N154 1.346 . S
C155 C156 1.396 . S
C155 C165 1.510 1_565 S
C156 C152 1.401 . S
C156 C155 1.396 . S
C157 C152 1.499 . S
C157 H158 0.959 . S
C157 H159 0.960 . S
C157 H160 0.961 . S
H158 C157 0.959 . S
H159 C157 0.960 . S
H160 C157 0.961 . S
O161 Co136 1.967 . S
O161 C169 1.258 . S
O162 Co137 1.941 . S
O162 C169 1.266 1_545 S
H163 C165 0.959 . S
H164 C165 0.938 1_655 S
C165 C155 1.510 1_545 S
C165 H163 0.959 . S
C165 H164 0.938 1_455 S
C165 H166 0.960 . S
H166 C165 0.960 . S
H167 N147 0.862 . S
O168 Co136 1.920 . S
O168 C141 1.289 . S
C169 O161 1.258 . S
C169 O162 1.266 1_565 S
Co170 O173 1.970 . S
Co170 N187 1.989 . S
Co170 O195 1.967 . S
Co170 O202 1.920 . S
Co171 O174 1.966 . S
Co171 N180 2.022 . S
Co171 N188 1.993 . S
Co171 O196 1.941 . S
C172 O173 1.258 . S
C172 O174 1.263 . S
O173 Co170 1.970 . S
O173 C172 1.258 . S
O174 Co171 1.966 . S
O174 C172 1.263 . S
C175 O176 1.235 . S
C175 O202 1.289 . S
O176 C175 1.235 . S
C177 C179 1.400 . S
C177 N180 1.351 . S
C177 C182 1.501 . S
C178 C179 1.387 . S
C178 N181 1.341 . S
C179 C177 1.400 . S
C179 C178 1.387 . S
N180 Co171 2.022 . S
N180 C177 1.351 . S
N180 N181 1.365 . S
N181 C178 1.341 . S
N181 N180 1.365 . S
N181 H201 0.862 . S
C182 C177 1.501 . S
C182 H183 0.961 . S
C182 H184 0.961 1_545 S
C182 H185 0.960 . S
H183 C182 0.961 . S
H184 C182 0.961 1_565 S
H185 C182 0.960 . S
C186 N187 1.342 . S
C186 C190 1.401 . S
C186 C191 1.499 . S
N187 Co170 1.989 . S
N187 C186 1.342 . S
N187 N188 1.388 . S
N188 Co171 1.993 . S
N188 N187 1.388 . S
N188 C189 1.346 . S
C189 N188 1.346 . S
C189 C190 1.396 . S
C189 C199 1.510 . S
C190 C186 1.401 . S
C190 C189 1.396 . S
C191 C186 1.499 . S
C191 H192 0.959 . S
C191 H193 0.960 . S
C191 H194 0.961 . S
H192 C191 0.959 . S
H193 C191 0.960 . S
H194 C191 0.961 . S
O195 Co170 1.967 . S
O195 C203 1.258 . S
O196 Co171 1.941 . S
O196 C203 1.266 . S
H197 C199 0.959 . S
H198 C199 0.938 1_565 S
C199 C189 1.510 . S
C199 H197 0.959 . S
C199 H198 0.938 1_545 S
C199 H200 0.960 . S
H200 C199 0.960 . S
H201 N181 0.862 . S
O202 Co170 1.920 . S
O202 C175 1.289 . S
C203 O195 1.258 . S
C203 O196 1.266 . S
Co204 O207 1.970 . S
Co204 N221 1.989 . S
Co204 O229 1.967 . S
Co204 O236 1.920 . S
Co205 O208 1.966 . S
Co205 N214 2.022 . S
Co205 N222 1.993 . S
Co205 O230 1.941 . S
C206 O207 1.258 . S
C206 O208 1.263 . S
O207 Co204 1.970 . S
O207 C206 1.258 . S
O208 Co205 1.966 . S
O208 C206 1.263 . S
C209 O210 1.235 . S
C209 O236 1.289 . S
O210 C209 1.235 . S
C211 C213 1.400 . S
C211 N214 1.351 . S
C211 C216 1.501 . S
C212 C213 1.387 . S
C212 N215 1.341 . S
C213 C211 1.400 . S
C213 C212 1.387 . S
N214 Co205 2.022 . S
N214 C211 1.351 . S
N214 N215 1.365 . S
N215 C212 1.341 . S
N215 N214 1.365 . S
N215 H235 0.862 . S
C216 C211 1.501 . S
C216 H217 0.961 . S
C216 H218 0.961 . S
C216 H219 0.960 . S
H217 C216 0.961 . S
H218 C216 0.961 . S
H219 C216 0.960 . S
C220 N221 1.342 . S
C220 C224 1.401 . S
C220 C225 1.499 . S
N221 Co204 1.989 . S
N221 C220 1.342 . S
N221 N222 1.388 . S
N222 Co205 1.993 . S
N222 N221 1.388 . S
N222 C223 1.346 . S
C223 N222 1.346 . S
C223 C224 1.396 . S
C223 C233 1.510 . S
C224 C220 1.401 . S
C224 C223 1.396 . S
C225 C220 1.499 . S
C225 H226 0.959 . S
C225 H227 0.960 . S
C225 H228 0.961 . S
H226 C225 0.959 . S
H227 C225 0.960 . S
H228 C225 0.961 . S
O229 Co204 1.967 . S
O229 C237 1.258 . S
O230 Co205 1.941 . S
O230 C237 1.266 . S
H231 C233 0.959 . S
H232 C233 0.961 . S
C233 C223 1.510 . S
C233 H231 0.959 . S
C233 H232 0.961 . S
C233 H234 0.960 . S
H234 C233 0.960 . S
H235 N215 0.862 . S
O236 Co204 1.920 . S
O236 C209 1.289 . S
C237 O229 1.258 . S
C237 O230 1.266 . S
Co238 O241 1.970 . S
Co238 N255 1.989 . S
Co238 O263 1.967 . S
Co238 O270 1.920 . S
Co239 O242 1.966 1_455 S
Co239 N248 2.022 . S
Co239 N256 1.993 1_455 S
Co239 O264 1.941 . S
C240 O241 1.258 . S
C240 O242 1.263 . S
O241 Co238 1.970 . S
O241 C240 1.258 . S
O242 Co239 1.966 1_655 S
O242 C240 1.263 . S
C243 O244 1.235 . S
C243 O270 1.289 . S
O244 C243 1.235 . S
C245 C247 1.400 . S
C245 N248 1.351 . S
C245 C250 1.501 . S
C246 C247 1.387 . S
C246 N249 1.341 . S
C247 C245 1.400 . S
C247 C246 1.387 . S
N248 Co239 2.022 . S
N248 C245 1.351 . S
N248 N249 1.365 . S
N249 C246 1.341 . S
N249 N248 1.365 . S
N249 H269 0.862 . S
C250 C245 1.501 . S
C250 H251 0.961 . S
C250 H252 0.961 . S
C250 H253 0.960 . S
H251 C250 0.961 . S
H252 C250 0.961 . S
H253 C250 0.960 . S
C254 N255 1.342 . S
C254 C258 1.401 . S
C254 C259 1.499 . S
N255 Co238 1.989 . S
N255 C254 1.342 . S
N255 N256 1.388 . S
N256 Co239 1.993 1_655 S
N256 N255 1.388 . S
N256 C257 1.346 . S
C257 N256 1.346 . S
C257 C258 1.396 . S
C257 C267 1.510 1_655 S
C258 C254 1.401 . S
C258 C257 1.396 . S
C259 C254 1.499 . S
C259 H260 0.959 . S
C259 H261 0.960 . S
C259 H262 0.961 . S
H260 C259 0.959 . S
H261 C259 0.960 . S
H262 C259 0.961 . S
O263 Co238 1.967 . S
O263 C271 1.258 . S
O264 Co239 1.941 . S
O264 C271 1.266 1_455 S
H265 C267 0.959 . S
H266 C267 0.961 . S
C267 C257 1.510 1_455 S
C267 H265 0.959 . S
C267 H266 0.961 . S
C267 H268 0.960 . S
H268 C267 0.960 . S
H269 N249 0.862 . S
O270 Co238 1.920 . S
O270 C243 1.289 . S
C271 O263 1.258 . S
C271 O264 1.266 1_655 S
Co272 O275 1.970 . S
Co272 N289 1.989 . S
Co272 O297 1.967 . S
Co272 O304 1.920 . S
Co273 O276 1.966 1_545 S
Co273 N282 2.022 . S
Co273 N290 1.993 1_545 S
Co273 O298 1.941 . S
C274 O275 1.258 . S
C274 O276 1.263 . S
O275 Co272 1.970 . S
O275 C274 1.258 . S
O276 Co273 1.966 1_565 S
O276 C274 1.263 . S
C277 O278 1.235 . S
C277 O304 1.289 . S
O278 C277 1.235 . S
C279 C281 1.400 . S
C279 N282 1.351 . S
C279 C284 1.501 . S
C280 C281 1.387 . S
C280 N283 1.341 . S
C281 C279 1.400 . S
C281 C280 1.387 . S
N282 Co273 2.022 . S
N282 C279 1.351 . S
N282 N283 1.365 . S
N283 C280 1.341 . S
N283 N282 1.365 . S
N283 H303 0.862 . S
C284 C279 1.501 . S
C284 H285 0.961 . S
C284 H286 0.961 . S
C284 H287 0.960 . S
H285 C284 0.961 . S
H286 C284 0.961 . S
H287 C284 0.960 . S
C288 N289 1.342 . S
C288 C292 1.401 . S
C288 C293 1.499 . S
N289 Co272 1.989 . S
N289 C288 1.342 . S
N289 N290 1.388 . S
N290 Co273 1.993 1_565 S
N290 N289 1.388 . S
N290 C291 1.346 . S
C291 N290 1.346 . S
C291 C292 1.396 . S
C291 C301 1.510 1_565 S
C292 C288 1.401 . S
C292 C291 1.396 . S
C293 C288 1.499 . S
C293 H294 0.959 . S
C293 H295 0.960 . S
C293 H296 0.961 . S
H294 C293 0.959 . S
H295 C293 0.960 . S
H296 C293 0.961 . S
O297 Co272 1.967 . S
O297 C305 1.258 . S
O298 Co273 1.941 . S
O298 C305 1.266 1_545 S
H299 C301 0.959 . S
H300 C301 0.961 . S
C301 C291 1.510 1_545 S
C301 H299 0.959 . S
C301 H300 0.961 . S
C301 H302 0.960 . S
H302 C301 0.960 . S
H303 N283 0.862 . S
O304 Co272 1.920 . S
O304 C277 1.289 . S
C305 O297 1.258 . S
C305 O298 1.266 1_565 S
Co306 O309 1.970 . S
Co306 N323 1.989 . S
Co306 O331 1.967 . S
Co306 O338 1.920 . S
Co307 O310 1.966 . S
Co307 N316 2.022 . S
Co307 N324 1.993 . S
Co307 O332 1.941 . S
C308 O309 1.258 . S
C308 O310 1.263 . S
O309 Co306 1.970 . S
O309 C308 1.258 . S
O310 Co307 1.966 . S
O310 C308 1.263 . S
C311 O312 1.235 . S
C311 O338 1.289 . S
O312 C311 1.235 . S
C313 C315 1.400 . S
C313 N316 1.351 . S
C313 C318 1.501 . S
C314 C315 1.387 . S
C314 N317 1.341 . S
C315 C313 1.400 . S
C315 C314 1.387 . S
N316 Co307 2.022 . S
N316 C313 1.351 . S
N316 N317 1.365 . S
N317 C314 1.341 . S
N317 N316 1.365 . S
N317 H337 0.862 . S
C318 C313 1.501 . S
C318 H319 0.961 . S
C318 H320 0.961 . S
C318 H321 0.960 . S
H319 C318 0.961 . S
H320 C318 0.961 . S
H321 C318 0.960 . S
C322 N323 1.342 . S
C322 C326 1.401 . S
C322 C327 1.499 . S
N323 Co306 1.989 . S
N323 C322 1.342 . S
N323 N324 1.388 . S
N324 Co307 1.993 . S
N324 N323 1.388 . S
N324 C325 1.346 . S
C325 N324 1.346 . S
C325 C326 1.396 . S
C325 C335 1.510 . S
C326 C322 1.401 . S
C326 C325 1.396 . S
C327 C322 1.499 . S
C327 H328 0.959 . S
C327 H329 0.960 . S
C327 H330 0.961 . S
H328 C327 0.959 . S
H329 C327 0.960 . S
H330 C327 0.961 . S
O331 Co306 1.967 . S
O331 C339 1.258 . S
O332 Co307 1.941 . S
O332 C339 1.266 . S
H333 C335 0.959 . S
H334 C335 0.961 . S
C335 C325 1.510 . S
C335 H333 0.959 . S
C335 H334 0.961 . S
C335 H336 0.960 . S
H336 C335 0.960 . S
H337 N317 0.862 . S
O338 Co306 1.920 . S
O338 C311 1.289 . S
C339 O331 1.258 . S
C339 O332 1.266 . S
Co340 O343 1.970 . S
Co340 N357 1.989 . S
Co340 O365 1.967 . S
Co340 O372 1.920 . S
Co341 O344 1.966 . S
Co341 N350 2.022 . S
Co341 N358 1.993 . S
Co341 O366 1.941 . S
C342 O343 1.258 . S
C342 O344 1.263 . S
O343 Co340 1.970 . S
O343 C342 1.258 . S
O344 Co341 1.966 . S
O344 C342 1.263 . S
C345 O346 1.235 . S
C345 O372 1.289 . S
O346 C345 1.235 . S
C347 C349 1.400 . S
C347 N350 1.351 . S
C347 C352 1.501 . S
C348 C349 1.387 . S
C348 N351 1.341 . S
C349 C347 1.400 . S
C349 C348 1.387 . S
N350 Co341 2.022 . S
N350 C347 1.351 . S
N350 N351 1.365 . S
N351 C348 1.341 . S
N351 N350 1.365 . S
N351 H371 0.862 . S
C352 C347 1.501 . S
C352 H353 0.961 . S
C352 H354 0.961 1_455 S
C352 H355 0.960 . S
H353 C352 0.961 . S
H354 C352 0.961 1_655 S
H355 C352 0.960 . S
C356 N357 1.342 . S
C356 C360 1.401 . S
C356 C361 1.499 . S
N357 Co340 1.989 . S
N357 C356 1.342 . S
N357 N358 1.388 . S
N358 Co341 1.993 . S
N358 N357 1.388 . S
N358 C359 1.346 . S
C359 N358 1.346 . S
C359 C360 1.396 . S
C359 C369 1.510 . S
C360 C356 1.401 . S
C360 C359 1.396 . S
C361 C356 1.499 . S
C361 H362 0.959 . S
C361 H363 0.960 . S
C361 H364 0.961 . S
H362 C361 0.959 . S
H363 C361 0.960 . S
H364 C361 0.961 . S
O365 Co340 1.967 . S
O365 C373 1.258 . S
O366 Co341 1.941 . S
O366 C373 1.266 . S
H367 C369 0.959 . S
H368 C369 0.938 1_655 S
C369 C359 1.510 . S
C369 H367 0.959 . S
C369 H368 0.938 1_455 S
C369 H370 0.960 . S
H370 C369 0.960 . S
H371 N351 0.862 . S
O372 Co340 1.920 . S
O372 C345 1.289 . S
C373 O365 1.258 . S
C373 O366 1.266 . S
Co374 O377 1.970 . S
Co374 N391 1.989 . S
Co374 O399 1.967 . S
Co374 O406 1.920 . S
Co375 O378 1.966 1_455 S
Co375 N384 2.022 . S
Co375 N392 1.993 1_455 S
Co375 O400 1.941 . S
C376 O377 1.258 . S
C376 O378 1.263 . S
O377 Co374 1.970 . S
O377 C376 1.258 . S
O378 Co375 1.966 1_655 S
O378 C376 1.263 . S
C379 O380 1.235 . S
C379 O406 1.289 . S
O380 C379 1.235 . S
C381 C383 1.400 . S
C381 N384 1.351 . S
C381 C386 1.501 . S
C382 C383 1.387 . S
C382 N385 1.341 . S
C383 C381 1.400 . S
C383 C382 1.387 . S
N384 Co375 2.022 . S
N384 C381 1.351 . S
N384 N385 1.365 . S
N385 C382 1.341 . S
N385 N384 1.365 . S
N385 H405 0.862 . S
C386 C381 1.501 . S
C386 H387 0.961 . S
C386 H388 0.961 1_545 S
C386 H389 0.960 . S
H387 C386 0.961 . S
H388 C386 0.961 1_565 S
H389 C386 0.960 . S
C390 N391 1.342 . S
C390 C394 1.401 . S
C390 C395 1.499 . S
N391 Co374 1.989 . S
N391 C390 1.342 . S
N391 N392 1.388 . S
N392 Co375 1.993 1_655 S
N392 N391 1.388 . S
N392 C393 1.346 . S
C393 N392 1.346 . S
C393 C394 1.396 . S
C393 C403 1.510 1_655 S
C394 C390 1.401 . S
C394 C393 1.396 . S
C395 C390 1.499 . S
C395 H396 0.959 . S
C395 H397 0.960 . S
C395 H398 0.961 . S
H396 C395 0.959 . S
H397 C395 0.960 . S
H398 C395 0.961 . S
O399 Co374 1.967 . S
O399 C407 1.258 . S
O400 Co375 1.941 . S
O400 C407 1.266 1_455 S
H401 C403 0.959 . S
H402 C403 0.938 1_565 S
C403 C393 1.510 1_455 S
C403 H401 0.959 . S
C403 H402 0.938 1_545 S
C403 H404 0.960 . S
H404 C403 0.960 . S
H405 N385 0.862 . S
O406 Co374 1.920 . S
O406 C379 1.289 . S
C407 O399 1.258 . S
C407 O400 1.266 1_655 S
Co408 O411 1.970 . S
Co408 N425 1.989 . S
Co408 O433 1.967 . S
Co408 O440 1.920 . S
Co409 O412 1.966 1_565 S
Co409 N418 2.022 . S
Co409 N426 1.993 1_565 S
Co409 O434 1.941 . S
C410 O411 1.258 . S
C410 O412 1.263 . S
O411 Co408 1.970 . S
O411 C410 1.258 . S
O412 Co409 1.966 1_545 S
O412 C410 1.263 . S
C413 O414 1.235 . S
C413 O440 1.289 . S
O414 C413 1.235 . S
C415 C417 1.400 . S
C415 N418 1.351 . S
C415 C420 1.501 . S
C416 C417 1.387 . S
C416 N419 1.341 . S
C417 C415 1.400 . S
C417 C416 1.387 . S
N418 Co409 2.022 . S
N418 C415 1.351 . S
N418 N419 1.365 . S
N419 C416 1.341 . S
N419 N418 1.365 . S
N419 H439 0.862 . S
C420 C415 1.501 . S
C420 H421 0.961 . S
C420 H422 0.961 1_655 S
C420 H423 0.960 . S
H421 C420 0.961 . S
H422 C420 0.961 1_455 S
H423 C420 0.960 . S
C424 N425 1.342 . S
C424 C428 1.401 . S
C424 C429 1.499 . S
N425 Co408 1.989 . S
N425 C424 1.342 . S
N425 N426 1.388 . S
N426 Co409 1.993 1_545 S
N426 N425 1.388 . S
N426 C427 1.346 . S
C427 N426 1.346 . S
C427 C428 1.396 . S
C427 C437 1.510 1_545 S
C428 C424 1.401 . S
C428 C427 1.396 . S
C429 C424 1.499 . S
C429 H430 0.959 . S
C429 H431 0.960 . S
C429 H432 0.961 . S
H430 C429 0.959 . S
H431 C429 0.960 . S
H432 C429 0.961 . S
O433 Co408 1.967 . S
O433 C441 1.258 . S
O434 Co409 1.941 . S
O434 C441 1.266 1_565 S
H435 C437 0.959 . S
H436 C437 0.938 1_455 S
C437 C427 1.510 1_565 S
C437 H435 0.959 . S
C437 H436 0.938 1_655 S
C437 H438 0.960 . S
H438 C437 0.960 . S
H439 N419 0.862 . S
O440 Co408 1.920 . S
O440 C413 1.289 . S
C441 O433 1.258 . S
C441 O434 1.266 1_545 S
Co442 O445 1.970 . S
Co442 N459 1.989 . S
Co442 O467 1.967 . S
Co442 O474 1.920 . S
Co443 O446 1.966 . S
Co443 N452 2.022 . S
Co443 N460 1.993 . S
Co443 O468 1.941 . S
C444 O445 1.258 . S
C444 O446 1.263 . S
O445 Co442 1.970 . S
O445 C444 1.258 . S
O446 Co443 1.966 . S
O446 C444 1.263 . S
C447 O448 1.235 . S
C447 O474 1.289 . S
O448 C447 1.235 . S
C449 C451 1.400 . S
C449 N452 1.351 . S
C449 C454 1.501 . S
C450 C451 1.387 . S
C450 N453 1.341 . S
C451 C449 1.400 . S
C451 C450 1.387 . S
N452 Co443 2.022 . S
N452 C449 1.351 . S
N452 N453 1.365 . S
N453 C450 1.341 . S
N453 N452 1.365 . S
N453 H473 0.862 . S
C454 C449 1.501 . S
C454 H455 0.961 . S
C454 H456 0.961 1_565 S
C454 H457 0.960 . S
H455 C454 0.961 . S
H456 C454 0.961 1_545 S
H457 C454 0.960 . S
C458 N459 1.342 . S
C458 C462 1.401 . S
C458 C463 1.499 . S
N459 Co442 1.989 . S
N459 C458 1.342 . S
N459 N460 1.388 . S
N460 Co443 1.993 . S
N460 N459 1.388 . S
N460 C461 1.346 . S
C461 N460 1.346 . S
C461 C462 1.396 . S
C461 C471 1.510 . S
C462 C458 1.401 . S
C462 C461 1.396 . S
C463 C458 1.499 . S
C463 H464 0.959 . S
C463 H465 0.960 . S
C463 H466 0.961 . S
H464 C463 0.959 . S
H465 C463 0.960 . S
H466 C463 0.961 . S
O467 Co442 1.967 . S
O467 C475 1.258 . S
O468 Co443 1.941 . S
O468 C475 1.266 . S
H469 C471 0.959 . S
H470 C471 0.938 1_545 S
C471 C461 1.510 . S
C471 H469 0.959 . S
C471 H470 0.938 1_565 S
C471 H472 0.960 . S
H472 C471 0.960 . S
H473 N453 0.862 . S
O474 Co442 1.920 . S
O474 C447 1.289 . S
C475 O467 1.258 . S
C475 O468 1.266 . S
Co476 O479 1.970 . S
Co476 N493 1.989 . S
Co476 O501 1.967 . S
Co476 O508 1.920 . S
Co477 O480 1.966 . S
Co477 N486 2.022 . S
Co477 N494 1.993 . S
Co477 O502 1.941 . S
C478 O479 1.258 . S
C478 O480 1.263 . S
O479 Co476 1.970 . S
O479 C478 1.258 . S
O480 Co477 1.966 . S
O480 C478 1.263 . S
C481 O482 1.235 . S
C481 O508 1.289 . S
O482 C481 1.235 . S
C483 C485 1.400 . S
C483 N486 1.351 . S
C483 C488 1.501 . S
C484 C485 1.387 . S
C484 N487 1.341 . S
C485 C483 1.400 . S
C485 C484 1.387 . S
N486 Co477 2.022 . S
N486 C483 1.351 . S
N486 N487 1.365 . S
N487 C484 1.341 . S
N487 N486 1.365 . S
N487 H507 0.862 . S
C488 C483 1.501 . S
C488 H489 0.961 . S
C488 H490 0.961 . S
C488 H491 0.960 . S
H489 C488 0.961 . S
H490 C488 0.961 . S
H491 C488 0.960 . S
C492 N493 1.342 . S
C492 C496 1.401 . S
C492 C497 1.499 . S
N493 Co476 1.989 . S
N493 C492 1.342 . S
N493 N494 1.388 . S
N494 Co477 1.993 . S
N494 N493 1.388 . S
N494 C495 1.346 . S
C495 N494 1.346 . S
C495 C496 1.396 . S
C495 C505 1.510 . S
C496 C492 1.401 . S
C496 C495 1.396 . S
C497 C492 1.499 . S
C497 H498 0.959 . S
C497 H499 0.960 . S
C497 H500 0.961 . S
H498 C497 0.959 . S
H499 C497 0.960 . S
H500 C497 0.961 . S
O501 Co476 1.967 . S
O501 C509 1.258 . S
O502 Co477 1.941 . S
O502 C509 1.266 . S
H503 C505 0.959 . S
H504 C505 0.961 . S
C505 C495 1.510 . S
C505 H503 0.959 . S
C505 H504 0.961 . S
C505 H506 0.960 . S
H506 C505 0.960 . S
H507 N487 0.862 . S
O508 Co476 1.920 . S
O508 C481 1.289 . S
C509 O501 1.258 . S
C509 O502 1.266 . S
Co510 O513 1.970 . S
Co510 N527 1.989 . S
Co510 O535 1.967 . S
Co510 O542 1.920 . S
Co511 O514 1.966 1_655 S
Co511 N520 2.022 . S
Co511 N528 1.993 1_655 S
Co511 O536 1.941 . S
C512 O513 1.258 . S
C512 O514 1.263 . S
O513 Co510 1.970 . S
O513 C512 1.258 . S
O514 Co511 1.966 1_455 S
O514 C512 1.263 . S
C515 O516 1.235 . S
C515 O542 1.289 . S
O516 C515 1.235 . S
C517 C519 1.400 . S
C517 N520 1.351 . S
C517 C522 1.501 . S
C518 C519 1.387 . S
C518 N521 1.341 . S
C519 C517 1.400 . S
C519 C518 1.387 . S
N520 Co511 2.022 . S
N520 C517 1.351 . S
N520 N521 1.365 . S
N521 C518 1.341 . S
N521 N520 1.365 . S
N521 H541 0.862 . S
C522 C517 1.501 . S
C522 H523 0.961 . S
C522 H524 0.961 . S
C522 H525 0.960 . S
H523 C522 0.961 . S
H524 C522 0.961 . S
H525 C522 0.960 . S
C526 N527 1.342 . S
C526 C530 1.401 . S
C526 C531 1.499 . S
N527 Co510 1.989 . S
N527 C526 1.342 . S
N527 N528 1.388 . S
N528 Co511 1.993 1_455 S
N528 N527 1.388 . S
N528 C529 1.346 . S
C529 N528 1.346 . S
C529 C530 1.396 . S
C529 C539 1.510 1_455 S
C530 C526 1.401 . S
C530 C529 1.396 . S
C531 C526 1.499 . S
C531 H532 0.959 . S
C531 H533 0.960 . S
C531 H534 0.961 . S
H532 C531 0.959 . S
H533 C531 0.960 . S
H534 C531 0.961 . S
O535 Co510 1.967 . S
O535 C543 1.258 . S
O536 Co511 1.941 . S
O536 C543 1.266 1_655 S
H537 C539 0.959 . S
H538 C539 0.961 . S
C539 C529 1.510 1_655 S
C539 H537 0.959 . S
C539 H538 0.961 . S
C539 H540 0.960 . S
H540 C539 0.960 . S
H541 N521 0.862 . S
O542 Co510 1.920 . S
O542 C515 1.289 . S
C543 O535 1.258 . S
C543 O536 1.266 1_455 S
C544 C545 1.363 . S
C544 C550 1.379 . S
C544 N552 1.356 . S
C545 C544 1.363 . S
C545 C551 1.363 . S
C546 C547 1.363 . S
C546 C551 1.379 . S
C546 N553 1.356 . S
C547 C546 1.363 . S
C547 C550 1.363 . S
N548 C550 1.356 . S
N548 H560 0.984 . S
N548 H561 0.985 . S
N549 C551 1.356 . S
N549 H554 0.984 . S
N549 H555 0.985 . S
C550 C544 1.379 . S
C550 C547 1.363 . S
C550 N548 1.356 . S
C551 C545 1.363 . S
C551 C546 1.379 . S
C551 N549 1.356 . S
N552 C544 1.356 . S
N552 H558 0.984 . S
N552 H559 0.984 . S
N553 C546 1.356 . S
N553 H556 0.984 . S
N553 H557 0.985 . S
H554 N549 0.984 . S
H555 N549 0.985 . S
H556 N553 0.984 . S
H557 N553 0.985 . S
H558 N552 0.984 . S
H559 N552 0.984 . S
H560 N548 0.984 . S
H561 N548 0.985 . S
C562 C563 1.363 . S
C562 C568 1.379 . S
C562 N570 1.356 . S
C563 C562 1.363 . S
C563 C569 1.363 . S
C564 C565 1.363 . S
C564 C569 1.379 . S
C564 N571 1.356 . S
C565 C564 1.363 . S
C565 C568 1.363 . S
N566 C568 1.356 . S
N566 H578 0.984 . S
N566 H579 0.985 . S
N567 C569 1.356 . S
N567 H572 0.984 . S
N567 H573 0.985 . S
C568 C562 1.379 . S
C568 C565 1.363 . S
C568 N566 1.356 . S
C569 C563 1.363 . S
C569 C564 1.379 . S
C569 N567 1.356 . S
N570 C562 1.356 . S
N570 H576 0.984 . S
N570 H577 0.984 . S
N571 C564 1.356 . S
N571 H574 0.984 . S
N571 H575 0.985 . S
H572 N567 0.984 . S
H573 N567 0.985 . S
H574 N571 0.984 . S
H575 N571 0.985 . S
H576 N570 0.984 . S
H577 N570 0.984 . S
H578 N566 0.984 . S
H579 N566 0.985 . S
C580 C581 1.363 1_455 S
C580 C586 1.379 . S
C580 N588 1.356 . S
C581 C580 1.363 1_655 S
C581 C587 1.363 . S
C582 C583 1.371 . S
C582 C587 1.379 . S
C582 N589 1.356 . S
C583 C582 1.371 . S
C583 C586 1.355 1_655 S
N584 C586 1.356 . S
N584 H596 0.984 . S
N584 H597 0.985 . S
N585 C587 1.356 . S
N585 H590 0.984 . S
N585 H591 0.985 . S
C586 C580 1.379 . S
C586 C583 1.355 1_455 S
C586 N584 1.356 . S
C587 C581 1.363 . S
C587 C582 1.379 . S
C587 N585 1.356 . S
N588 C580 1.356 . S
N588 H594 0.984 . S
N588 H595 0.984 . S
N589 C582 1.356 . S
N589 H592 0.984 . S
N589 H593 0.985 . S
H590 N585 0.984 . S
H591 N585 0.985 . S
H592 N589 0.984 . S
H593 N589 0.985 . S
H594 N588 0.984 . S
H595 N588 0.984 . S
H596 N584 0.984 . S
H597 N584 0.985 . S
C598 C599 1.371 . S
C598 C604 1.379 . S
C598 N606 1.356 . S
C599 C598 1.371 . S
C599 C605 1.356 1_565 S
C600 C601 1.363 1_545 S
C600 C605 1.379 . S
C600 N607 1.356 . S
C601 C600 1.363 1_565 S
C601 C604 1.363 . S
N602 C604 1.356 . S
N602 H614 0.984 . S
N602 H615 0.985 . S
N603 C605 1.356 . S
N603 H608 0.984 . S
N603 H609 0.985 . S
C604 C598 1.379 . S
C604 C601 1.363 . S
C604 N602 1.356 . S
C605 C599 1.356 1_545 S
C605 C600 1.379 . S
C605 N603 1.356 . S
N606 C598 1.356 . S
N606 H612 0.984 . S
N606 H613 0.984 . S
N607 C600 1.356 . S
N607 H610 0.984 . S
N607 H611 0.985 . S
H608 N603 0.984 . S
H609 N603 0.985 . S
H610 N607 0.984 . S
H611 N607 0.985 . S
H612 N606 0.984 . S
H613 N606 0.984 . S
H614 N602 0.984 . S
H615 N602 0.985 . S
C616 C617 1.363 . S
C616 C622 1.379 . S
C616 N624 1.356 . S
C617 C616 1.363 . S
C617 C623 1.363 1_455 S
C618 C619 1.355 1_655 S
C618 C623 1.379 . S
C618 N625 1.356 . S
C619 C618 1.355 1_455 S
C619 C622 1.372 . S
N620 C622 1.356 . S
N620 H632 0.984 . S
N620 H633 0.985 . S
N621 C623 1.356 . S
N621 H626 0.984 . S
N621 H627 0.985 . S
C622 C616 1.379 . S
C622 C619 1.372 . S
C622 N620 1.356 . S
C623 C617 1.363 1_655 S
C623 C618 1.379 . S
C623 N621 1.356 . S
N624 C616 1.356 . S
N624 H630 0.984 . S
N624 H631 0.984 . S
N625 C618 1.356 . S
N625 H628 0.984 . S
N625 H629 0.985 . S
H626 N621 0.984 . S
H627 N621 0.985 . S
H628 N625 0.984 . S
H629 N625 0.985 . S
H630 N624 0.984 . S
H631 N624 0.984 . S
H632 N620 0.984 . S
H633 N620 0.985 . S
C634 C635 1.363 1_565 S
C634 C640 1.379 . S
C634 N642 1.356 . S
C635 C634 1.363 1_545 S
C635 C641 1.363 . S
C636 C637 1.375 . S
C636 C641 1.379 . S
C636 N643 1.356 . S
C637 C636 1.375 . S
C637 C640 1.351 1_545 S
N638 C640 1.356 . S
N638 H650 0.984 . S
N638 H651 0.985 . S
N639 C641 1.356 . S
N639 H644 0.984 . S
N639 H645 0.985 . S
C640 C634 1.379 . S
C640 C637 1.351 1_565 S
C640 N638 1.356 . S
C641 C635 1.363 . S
C641 C636 1.379 . S
C641 N639 1.356 . S
N642 C634 1.356 . S
N642 H648 0.984 . S
N642 H649 0.984 . S
N643 C636 1.356 . S
N643 H646 0.984 . S
N643 H647 0.985 . S
H644 N639 0.984 . S
H645 N639 0.985 . S
H646 N643 0.984 . S
H647 N643 0.985 . S
H648 N642 0.984 . S
H649 N642 0.984 . S
H650 N638 0.984 . S
H651 N638 0.985 . S
C652 C653 1.363 . S
C652 C658 1.379 . S
C652 N660 1.356 . S
C653 C652 1.363 . S
C653 C659 1.363 . S
C654 C655 1.363 . S
C654 C659 1.379 . S
C654 N661 1.356 . S
C655 C654 1.363 . S
C655 C658 1.363 . S
N656 C658 1.356 . S
N656 H668 0.984 . S
N656 H669 0.985 . S
N657 C659 1.356 . S
N657 H662 0.984 . S
N657 H663 0.985 . S
C658 C652 1.379 . S
C658 C655 1.363 . S
C658 N656 1.356 . S
C659 C653 1.363 . S
C659 C654 1.379 . S
C659 N657 1.356 . S
N660 C652 1.356 . S
N660 H666 0.984 . S
N660 H667 0.984 . S
N661 C654 1.356 . S
N661 H664 0.984 . S
N661 H665 0.985 . S
H662 N657 0.984 . S
H663 N657 0.985 . S
H664 N661 0.984 . S
H665 N661 0.985 . S
H666 N660 0.984 . S
H667 N660 0.984 . S
H668 N656 0.984 . S
H669 N656 0.985 . S
C670 C671 1.363 . S
C670 C676 1.379 . S
C670 N678 1.356 . S
C671 C670 1.363 . S
C671 C677 1.363 . S
C672 C673 1.363 . S
C672 C677 1.379 . S
C672 N679 1.356 . S
C673 C672 1.363 . S
C673 C676 1.363 . S
N674 C676 1.356 . S
N674 H686 0.984 . S
N674 H687 0.985 . S
N675 C677 1.356 . S
N675 H680 0.984 . S
N675 H681 0.985 . S
C676 C670 1.379 . S
C676 C673 1.363 . S
C676 N674 1.356 . S
C677 C671 1.363 . S
C677 C672 1.379 . S
C677 N675 1.356 . S
N678 C670 1.356 . S
N678 H684 0.984 . S
N678 H685 0.984 . S
N679 C672 1.356 . S
N679 H682 0.984 . S
N679 H683 0.985 . S
H680 N675 0.984 . S
H681 N675 0.985 . S
H682 N679 0.984 . S
H683 N679 0.985 . S
H684 N678 0.984 . S
H685 N678 0.984 . S
H686 N674 0.984 . S
H687 N674 0.985 . S
C688 C689 1.363 . S
C688 C694 1.379 . S
C688 N696 1.356 . S
C689 C688 1.363 . S
C689 C695 1.363 . S
C690 C691 1.363 . S
C690 C695 1.379 . S
C690 N697 1.356 . S
C691 C690 1.363 . S
C691 C694 1.363 . S
N692 C694 1.356 . S
N692 H704 0.984 . S
N692 H705 0.985 . S
N693 C695 1.356 . S
N693 H698 0.984 . S
N693 H699 0.985 . S
C694 C688 1.379 . S
C694 C691 1.363 . S
C694 N692 1.356 . S
C695 C689 1.363 . S
C695 C690 1.379 . S
C695 N693 1.356 . S
N696 C688 1.356 . S
N696 H702 0.984 . S
N696 H703 0.984 . S
N697 C690 1.356 . S
N697 H700 0.984 . S
N697 H701 0.985 . S
H698 N693 0.984 . S
H699 N693 0.985 . S
H700 N697 0.984 . S
H701 N697 0.985 . S
H702 N696 0.984 . S
H703 N696 0.984 . S
H704 N692 0.984 . S
H705 N692 0.985 . S
C706 C707 1.363 . S
C706 C712 1.379 . S
C706 N714 1.356 . S
C707 C706 1.363 . S
C707 C713 1.363 . S
C708 C709 1.363 . S
C708 C713 1.379 . S
C708 N715 1.356 . S
C709 C708 1.363 . S
C709 C712 1.363 . S
N710 C712 1.356 . S
N710 H722 0.984 . S
N710 H723 0.985 . S
N711 C713 1.356 . S
N711 H716 0.984 . S
N711 H717 0.985 . S
C712 C706 1.379 . S
C712 C709 1.363 . S
C712 N710 1.356 . S
C713 C707 1.363 . S
C713 C708 1.379 . S
C713 N711 1.356 . S
N714 C706 1.356 . S
N714 H720 0.984 . S
N714 H721 0.984 . S
N715 C708 1.356 . S
N715 H718 0.984 . S
N715 H719 0.985 . S
H716 N711 0.984 . S
H717 N711 0.985 . S
H718 N715 0.984 . S
H719 N715 0.985 . S
H720 N714 0.984 . S
H721 N714 0.984 . S
H722 N710 0.984 . S
H723 N710 0.985 . S
C724 C725 1.363 1_655 S
C724 C730 1.379 . S
C724 N732 1.356 . S
C725 C724 1.363 1_455 S
C725 C731 1.363 . S
C726 C727 1.371 . S
C726 C731 1.379 . S
C726 N733 1.356 . S
C727 C726 1.371 . S
C727 C730 1.356 1_455 S
N728 C730 1.356 . S
N728 H740 0.984 . S
N728 H741 0.985 . S
N729 C731 1.356 . S
N729 H734 0.984 . S
N729 H735 0.985 . S
C730 C724 1.379 . S
C730 C727 1.356 1_655 S
C730 N728 1.356 . S
C731 C725 1.363 . S
C731 C726 1.379 . S
C731 N729 1.356 . S
N732 C724 1.356 . S
N732 H738 0.984 . S
N732 H739 0.984 . S
N733 C726 1.356 . S
N733 H736 0.984 . S
N733 H737 0.985 . S
H734 N729 0.984 . S
H735 N729 0.985 . S
H736 N733 0.984 . S
H737 N733 0.985 . S
H738 N732 0.984 . S
H739 N732 0.984 . S
H740 N728 0.984 . S
H741 N728 0.985 . S
C742 C743 1.363 1_565 S
C742 C748 1.379 . S
C742 N750 1.356 . S
C743 C742 1.363 1_545 S
C743 C749 1.363 . S
C744 C745 1.370 . S
C744 C749 1.379 . S
C744 N751 1.356 . S
C745 C744 1.370 . S
C745 C748 1.357 1_545 S
N746 C748 1.356 . S
N746 H758 0.984 . S
N746 H759 0.985 . S
N747 C749 1.356 . S
N747 H752 0.984 . S
N747 H753 0.985 . S
C748 C742 1.379 . S
C748 C745 1.357 1_565 S
C748 N746 1.356 . S
C749 C743 1.363 . S
C749 C744 1.379 . S
C749 N747 1.356 . S
N750 C742 1.356 . S
N750 H756 0.984 . S
N750 H757 0.984 . S
N751 C744 1.356 . S
N751 H754 0.984 . S
N751 H755 0.985 . S
H752 N747 0.984 . S
H753 N747 0.985 . S
H754 N751 0.984 . S
H755 N751 0.985 . S
H756 N750 0.984 . S
H757 N750 0.984 . S
H758 N746 0.984 . S
H759 N746 0.985 . S
C760 C761 1.363 . S
C760 C766 1.379 . S
C760 N768 1.356 . S
C761 C760 1.363 . S
C761 C767 1.363 1_655 S
C762 C763 1.355 1_455 S
C762 C767 1.379 . S
C762 N769 1.356 . S
C763 C762 1.355 1_655 S
C763 C766 1.371 . S
N764 C766 1.356 . S
N764 H776 0.984 . S
N764 H777 0.985 . S
N765 C767 1.356 . S
N765 H770 0.984 . S
N765 H771 0.985 . S
C766 C760 1.379 . S
C766 C763 1.371 . S
C766 N764 1.356 . S
C767 C761 1.363 1_455 S
C767 C762 1.379 . S
C767 N765 1.356 . S
N768 C760 1.356 . S
N768 H774 0.984 . S
N768 H775 0.984 . S
N769 C762 1.356 . S
N769 H772 0.984 . S
N769 H773 0.985 . S
H770 N765 0.984 . S
H771 N765 0.985 . S
H772 N769 0.984 . S
H773 N769 0.985 . S
H774 N768 0.984 . S
H775 N768 0.984 . S
H776 N764 0.984 . S
H777 N764 0.985 . S
C778 C779 1.363 . S
C778 C784 1.379 . S
C778 N786 1.356 . S
C779 C778 1.363 . S
C779 C785 1.363 1_565 S
C780 C781 1.354 1_545 S
C780 C785 1.379 . S
C780 N787 1.356 . S
C781 C780 1.354 1_565 S
C781 C784 1.373 . S
N782 C784 1.356 . S
N782 H794 0.984 . S
N782 H795 0.985 . S
N783 C785 1.356 . S
N783 H788 0.984 . S
N783 H789 0.985 . S
C784 C778 1.379 . S
C784 C781 1.373 . S
C784 N782 1.356 . S
C785 C779 1.363 1_545 S
C785 C780 1.379 . S
C785 N783 1.356 . S
N786 C778 1.356 . S
N786 H792 0.984 . S
N786 H793 0.984 . S
N787 C780 1.356 . S
N787 H790 0.984 . S
N787 H791 0.985 . S
H788 N783 0.984 . S
H789 N783 0.985 . S
H790 N787 0.984 . S
H791 N787 0.985 . S
H792 N786 0.984 . S
H793 N786 0.984 . S
H794 N782 0.984 . S
H795 N782 0.985 . S
C796 C797 1.363 . S
C796 C802 1.379 . S
C796 N804 1.356 . S
C797 C796 1.363 . S
C797 C803 1.363 . S
C798 C799 1.363 . S
C798 C803 1.379 . S
C798 N805 1.356 . S
C799 C798 1.363 . S
C799 C802 1.363 . S
N800 C802 1.356 . S
N800 H812 0.984 . S
N800 H813 0.985 . S
N801 C803 1.356 . S
N801 H806 0.984 . S
N801 H807 0.985 . S
C802 C796 1.379 . S
C802 C799 1.363 . S
C802 N800 1.356 . S
C803 C797 1.363 . S
C803 C798 1.379 . S
C803 N801 1.356 . S
N804 C796 1.356 . S
N804 H810 0.984 . S
N804 H811 0.984 . S
N805 C798 1.356 . S
N805 H808 0.984 . S
N805 H809 0.985 . S
H806 N801 0.984 . S
H807 N801 0.985 . S
H808 N805 0.984 . S
H809 N805 0.985 . S
H810 N804 0.984 . S
H811 N804 0.984 . S
H812 N800 0.984 . S
H813 N800 0.985 . S
C814 C815 1.363 . S
C814 C820 1.379 . S
C814 N822 1.356 . S
C815 C814 1.363 . S
C815 C821 1.363 . S
C816 C817 1.363 . S
C816 C821 1.379 . S
C816 N823 1.356 . S
C817 C816 1.363 . S
C817 C820 1.363 . S
N818 C820 1.356 . S
N818 H830 0.984 . S
N818 H831 0.985 . S
N819 C821 1.356 . S
N819 H824 0.984 . S
N819 H825 0.985 . S
C820 C814 1.379 . S
C820 C817 1.363 . S
C820 N818 1.356 . S
C821 C815 1.363 . S
C821 C816 1.379 . S
C821 N819 1.356 . S
N822 C814 1.356 . S
N822 H828 0.984 . S
N822 H829 0.984 . S
N823 C816 1.356 . S
N823 H826 0.984 . S
N823 H827 0.985 . S
H824 N819 0.984 . S
H825 N819 0.985 . S
H826 N823 0.984 . S
H827 N823 0.985 . S
H828 N822 0.984 . S
H829 N822 0.984 . S
H830 N818 0.984 . S
H831 N818 0.985 . S
C832 C833 1.363 . S
C832 C838 1.379 . S
C832 N840 1.356 . S
C833 C832 1.363 . S
C833 C839 1.363 . S
C834 C835 1.363 . S
C834 C839 1.379 . S
C834 N841 1.356 . S
C835 C834 1.363 . S
C835 C838 1.363 . S
N836 C838 1.356 . S
N836 H848 0.984 . S
N836 H849 0.985 . S
N837 C839 1.356 . S
N837 H842 0.984 . S
N837 H843 0.985 . S
C838 C832 1.379 . S
C838 C835 1.363 . S
C838 N836 1.356 . S
C839 C833 1.363 . S
C839 C834 1.379 . S
C839 N837 1.356 . S
N840 C832 1.356 . S
N840 H846 0.984 . S
N840 H847 0.984 . S
N841 C834 1.356 . S
N841 H844 0.984 . S
N841 H845 0.985 . S
H842 N837 0.984 . S
H843 N837 0.985 . S
H844 N841 0.984 . S
H845 N841 0.985 . S
H846 N840 0.984 . S
H847 N840 0.984 . S
H848 N836 0.984 . S
H849 N836 0.985 . S
C850 C851 1.363 . S
C850 C856 1.379 . S
C850 N858 1.356 . S
C851 C850 1.363 . S
C851 C857 1.363 . S
C852 C853 1.363 . S
C852 C857 1.379 . S
C852 N859 1.356 . S
C853 C852 1.363 . S
C853 C856 1.363 . S
N854 C856 1.356 . S
N854 H866 0.984 . S
N854 H867 0.985 . S
N855 C857 1.356 . S
N855 H860 0.984 . S
N855 H861 0.985 . S
C856 C850 1.379 . S
C856 C853 1.363 . S
C856 N854 1.356 . S
C857 C851 1.363 . S
C857 C852 1.379 . S
C857 N855 1.356 . S
N858 C850 1.356 . S
N858 H864 0.984 . S
N858 H865 0.984 . S
N859 C852 1.356 . S
N859 H862 0.984 . S
N859 H863 0.985 . S
H860 N855 0.984 . S
H861 N855 0.985 . S
H862 N859 0.984 . S
H863 N859 0.985 . S
H864 N858 0.984 . S
H865 N858 0.984 . S
H866 N854 0.984 . S
H867 N854 0.985 . S
C868 C869 1.363 . S
C868 C874 1.379 . S
C868 N876 1.356 . S
C869 C868 1.363 . S
C869 C875 1.363 . S
C870 C871 1.363 . S
C870 C875 1.379 . S
C870 N877 1.356 . S
C871 C870 1.363 . S
C871 C874 1.363 . S
N872 C874 1.356 . S
N872 H884 0.984 . S
N872 H885 0.985 . S
N873 C875 1.356 . S
N873 H878 0.984 . S
N873 H879 0.985 . S
C874 C868 1.379 . S
C874 C871 1.363 . S
C874 N872 1.356 . S
C875 C869 1.363 . S
C875 C870 1.379 . S
C875 N873 1.356 . S
N876 C868 1.356 . S
N876 H882 0.984 . S
N876 H883 0.984 . S
N877 C870 1.356 . S
N877 H880 0.984 . S
N877 H881 0.985 . S
H878 N873 0.984 . S
H879 N873 0.985 . S
H880 N877 0.984 . S
H881 N877 0.985 . S
H882 N876 0.984 . S
H883 N876 0.984 . S
H884 N872 0.984 . S
H885 N872 0.985 . S
C886 C887 1.363 . S
C886 C892 1.379 . S
C886 N894 1.356 . S
C887 C886 1.363 . S
C887 C893 1.363 . S
C888 C889 1.363 . S
C888 C893 1.379 . S
C888 N895 1.356 . S
C889 C888 1.363 . S
C889 C892 1.363 . S
N890 C892 1.356 . S
N890 H902 0.984 . S
N890 H903 0.985 . S
N891 C893 1.356 . S
N891 H896 0.984 . S
N891 H897 0.985 . S
C892 C886 1.379 . S
C892 C889 1.363 . S
C892 N890 1.356 . S
C893 C887 1.363 . S
C893 C888 1.379 . S
C893 N891 1.356 . S
N894 C886 1.356 . S
N894 H900 0.984 . S
N894 H901 0.984 . S
N895 C888 1.356 . S
N895 H898 0.984 . S
N895 H899 0.985 . S
H896 N891 0.984 . S
H897 N891 0.985 . S
H898 N895 0.984 . S
H899 N895 0.985 . S
H900 N894 0.984 . S
H901 N894 0.984 . S
H902 N890 0.984 . S
H903 N890 0.985 . S
C904 C905 1.363 . S
C904 C910 1.379 . S
C904 N912 1.356 . S
C905 C904 1.363 . S
C905 C911 1.363 . S
C906 C907 1.363 . S
C906 C911 1.379 . S
C906 N913 1.356 . S
C907 C906 1.363 . S
C907 C910 1.363 . S
N908 C910 1.356 . S
N908 H920 0.984 . S
N908 H921 0.985 . S
N909 C911 1.356 . S
N909 H914 0.984 . S
N909 H915 0.985 . S
C910 C904 1.379 . S
C910 C907 1.363 . S
C910 N908 1.356 . S
C911 C905 1.363 . S
C911 C906 1.379 . S
C911 N909 1.356 . S
N912 C904 1.356 . S
N912 H918 0.984 . S
N912 H919 0.984 . S
N913 C906 1.356 . S
N913 H916 0.984 . S
N913 H917 0.985 . S
H914 N909 0.984 . S
H915 N909 0.985 . S
H916 N913 0.984 . S
H917 N913 0.985 . S
H918 N912 0.984 . S
H919 N912 0.984 . S
H920 N908 0.984 . S
H921 N908 0.985 . S
C922 C923 1.363 . S
C922 C928 1.379 . S
C922 N930 1.356 . S
C923 C922 1.363 . S
C923 C929 1.363 . S
C924 C925 1.363 . S
C924 C929 1.379 . S
C924 N931 1.356 . S
C925 C924 1.363 . S
C925 C928 1.363 . S
N926 C928 1.356 . S
N926 H938 0.984 . S
N926 H939 0.985 . S
N927 C929 1.356 . S
N927 H932 0.984 . S
N927 H933 0.985 . S
C928 C922 1.379 . S
C928 C925 1.363 . S
C928 N926 1.356 . S
C929 C923 1.363 . S
C929 C924 1.379 . S
C929 N927 1.356 . S
N930 C922 1.356 . S
N930 H936 0.984 . S
N930 H937 0.984 . S
N931 C924 1.356 . S
N931 H934 0.984 . S
N931 H935 0.985 . S
H932 N927 0.984 . S
H933 N927 0.985 . S
H934 N931 0.984 . S
H935 N931 0.985 . S
H936 N930 0.984 . S
H937 N930 0.984 . S
H938 N926 0.984 . S
H939 N926 0.985 . S
C940 C941 1.363 . S
C940 C946 1.379 . S
C940 N948 1.356 . S
C941 C940 1.363 . S
C941 C947 1.363 . S
C942 C943 1.363 . S
C942 C947 1.379 . S
C942 N949 1.356 . S
C943 C942 1.363 . S
C943 C946 1.363 . S
N944 C946 1.356 . S
N944 H956 0.984 . S
N944 H957 0.985 . S
N945 C947 1.356 . S
N945 H950 0.984 . S
N945 H951 0.985 . S
C946 C940 1.379 . S
C946 C943 1.363 . S
C946 N944 1.356 . S
C947 C941 1.363 . S
C947 C942 1.379 . S
C947 N945 1.356 . S
N948 C940 1.356 . S
N948 H954 0.984 . S
N948 H955 0.984 . S
N949 C942 1.356 . S
N949 H952 0.984 . S
N949 H953 0.985 . S
H950 N945 0.984 . S
H951 N945 0.985 . S
H952 N949 0.984 . S
H953 N949 0.985 . S
H954 N948 0.984 . S
H955 N948 0.984 . S
H956 N944 0.984 . S
H957 N944 0.985 . S
C958 C959 1.363 . S
C958 C964 1.379 . S
C958 N966 1.356 . S
C959 C958 1.363 . S
C959 C965 1.363 . S
C960 C961 1.363 . S
C960 C965 1.379 . S
C960 N967 1.356 . S
C961 C960 1.363 . S
C961 C964 1.363 . S
N962 C964 1.356 . S
N962 H974 0.984 . S
N962 H975 0.985 . S
N963 C965 1.356 . S
N963 H968 0.984 . S
N963 H969 0.985 . S
C964 C958 1.379 . S
C964 C961 1.363 . S
C964 N962 1.356 . S
C965 C959 1.363 . S
C965 C960 1.379 . S
C965 N963 1.356 . S
N966 C958 1.356 . S
N966 H972 0.984 . S
N966 H973 0.984 . S
N967 C960 1.356 . S
N967 H970 0.984 . S
N967 H971 0.985 . S
H968 N963 0.984 . S
H969 N963 0.985 . S
H970 N967 0.984 . S
H971 N967 0.985 . S
H972 N966 0.984 . S
H973 N966 0.984 . S
H974 N962 0.984 . S
H975 N962 0.985 . S
C976 C977 1.363 . S
C976 C982 1.379 1_554 S
C976 N984 1.356 . S
C977 C976 1.363 . S
C977 C983 1.363 1_545 S
C978 C979 1.363 . S
C978 C983 1.379 1_556 S
C978 N985 1.356 . S
C979 C978 1.363 . S
C979 C982 1.363 1_565 S
N980 C982 1.356 . S
N980 H992 0.984 . S
N980 H993 0.985 . S
N981 C983 1.356 . S
N981 H986 0.984 . S
N981 H987 0.985 . S
C982 C976 1.379 1_556 S
C982 C979 1.363 1_545 S
C982 N980 1.356 . S
C983 C977 1.363 1_565 S
C983 C978 1.379 1_554 S
C983 N981 1.356 . S
N984 C976 1.356 . S
N984 H990 0.984 . S
N984 H991 0.984 . S
N985 C978 1.356 . S
N985 H988 0.984 . S
N985 H989 0.985 . S
H986 N981 0.984 . S
H987 N981 0.985 . S
H988 N985 0.984 . S
H989 N985 0.985 . S
H990 N984 0.984 . S
H991 N984 0.984 . S
H992 N980 0.984 . S
H993 N980 0.985 . S
C994 C995 1.363 1_556 S
C994 C1000 1.379 . S
C994 N1002 1.356 . S
C995 C994 1.363 1_554 S
C995 C1001 1.363 . S
C996 C997 1.363 1_554 S
C996 C1001 1.379 . S
C996 N1003 1.356 . S
C997 C996 1.363 1_556 S
C997 C1000 1.363 . S
N998 C1000 1.356 . S
N998 H1010 0.984 . S
N998 H1011 0.985 . S
N999 C1001 1.356 . S
N999 H1004 0.984 . S
N999 H1005 0.985 . S
C1000 C994 1.379 . S
C1000 C997 1.363 . S
C1000 N998 1.356 . S
C1001 C995 1.363 . S
C1001 C996 1.379 . S
C1001 N999 1.356 . S
N1002 C994 1.356 . S
N1002 H1008 0.984 . S
N1002 H1009 0.984 1_556 S
N1003 C996 1.356 . S
N1003 H1006 0.984 1_554 S
N1003 H1007 0.985 . S
H1004 N999 0.984 . S
H1005 N999 0.985 . S
H1006 N1003 0.984 1_556 S
H1007 N1003 0.985 . S
H1008 N1002 0.984 . S
H1009 N1002 0.984 1_554 S
H1010 N998 0.984 . S
H1011 N998 0.985 . S
C1012 C1013 1.363 1_556 S
C1012 C1018 1.379 1_655 S
C1012 N1020 1.356 . S
C1013 C1012 1.363 1_554 S
C1013 C1019 1.363 . S
C1014 C1015 1.363 1_554 S
C1014 C1019 1.379 1_455 S
C1014 N1021 1.356 . S
C1015 C1014 1.363 1_556 S
C1015 C1018 1.363 . S
N1016 C1018 1.356 . S
N1016 H1028 0.984 . S
N1016 H1029 0.985 . S
N1017 C1019 1.356 . S
N1017 H1022 0.984 . S
N1017 H1023 0.985 . S
C1018 C1012 1.379 1_455 S
C1018 C1015 1.363 . S
C1018 N1016 1.356 . S
C1019 C1013 1.363 . S
C1019 C1014 1.379 1_655 S
C1019 N1017 1.356 . S
N1020 C1012 1.356 . S
N1020 H1026 0.984 . S
N1020 H1027 0.984 1_556 S
N1021 C1014 1.356 . S
N1021 H1024 0.984 1_554 S
N1021 H1025 0.985 . S
H1022 N1017 0.984 . S
H1023 N1017 0.985 . S
H1024 N1021 0.984 1_556 S
H1025 N1021 0.985 . S
H1026 N1020 0.984 . S
H1027 N1020 0.984 1_554 S
H1028 N1016 0.984 . S
H1029 N1016 0.985 . S
C1030 C1031 1.348 1_465 S
C1030 C1036 1.393 . S
C1030 N1038 1.352 1_565 S
C1031 C1030 1.348 1_645 S
C1031 C1037 1.363 1_556 S
C1032 C1033 1.348 1_645 S
C1032 C1037 1.393 . S
C1032 N1039 1.352 1_545 S
C1033 C1032 1.348 1_465 S
C1033 C1036 1.363 1_554 S
N1034 C1036 1.356 . S
N1034 H1046 0.984 . S
N1034 H1047 0.985 1_556 S
N1035 C1037 1.356 . S
N1035 H1040 0.984 1_554 S
N1035 H1041 0.985 . S
C1036 C1030 1.393 . S
C1036 C1033 1.363 1_556 S
C1036 N1034 1.356 . S
C1037 C1031 1.363 1_554 S
C1037 C1032 1.393 . S
C1037 N1035 1.356 . S
N1038 C1030 1.352 1_545 S
N1038 H1044 0.984 1_545 S
N1038 H1045 0.984 1_455 S
N1039 C1032 1.352 1_565 S
N1039 H1042 0.984 1_655 S
N1039 H1043 0.985 1_565 S
H1040 N1035 0.984 1_556 S
H1041 N1035 0.985 . S
H1042 N1039 0.984 1_455 S
H1043 N1039 0.985 1_545 S
H1044 N1038 0.984 1_565 S
H1045 N1038 0.984 1_655 S
H1046 N1034 0.984 . S
H1047 N1034 0.985 1_554 S
C1048 C1049 1.363 1_455 S
C1048 C1054 1.379 1_545 S
C1048 N1056 1.356 . S
C1049 C1048 1.363 1_655 S
C1049 C1055 1.363 . S
C1050 C1051 1.363 1_655 S
C1050 C1055 1.379 1_565 S
C1050 N1057 1.356 . S
C1051 C1050 1.363 1_455 S
C1051 C1054 1.363 . S
N1052 C1054 1.356 . S
N1052 H1064 0.984 . S
N1052 H1065 0.985 . S
N1053 C1055 1.356 . S
N1053 H1058 0.984 . S
N1053 H1059 0.985 . S
C1054 C1048 1.379 1_565 S
C1054 C1051 1.363 . S
C1054 N1052 1.356 . S
C1055 C1049 1.363 . S
C1055 C1050 1.379 1_545 S
C1055 N1053 1.356 . S
N1056 C1048 1.356 . S
N1056 H1062 0.984 . S
N1056 H1063 0.984 1_455 S
N1057 C1050 1.356 . S
N1057 H1060 0.984 1_655 S
N1057 H1061 0.985 . S
H1058 N1053 0.984 . S
H1059 N1053 0.985 . S
H1060 N1057 0.984 1_455 S
H1061 N1057 0.985 . S
H1062 N1056 0.984 . S
H1063 N1056 0.984 1_655 S
H1064 N1052 0.984 . S
H1065 N1052 0.985 . S
C1066 C1067 1.363 . S
C1066 C1072 1.379 1_545 S
C1066 N1074 1.356 . S
C1067 C1066 1.363 . S
C1067 C1073 1.363 . S
C1068 C1069 1.363 . S
C1068 C1073 1.379 1_565 S
C1068 N1075 1.356 . S
C1069 C1068 1.363 . S
C1069 C1072 1.363 . S
N1070 C1072 1.356 . S
N1070 H1082 0.984 . S
N1070 H1083 0.985 . S
N1071 C1073 1.356 . S
N1071 H1076 0.984 . S
N1071 H1077 0.985 . S
C1072 C1066 1.379 1_565 S
C1072 C1069 1.363 . S
C1072 N1070 1.356 . S
C1073 C1067 1.363 . S
C1073 C1068 1.379 1_545 S
C1073 N1071 1.356 . S
N1074 C1066 1.356 . S
N1074 H1080 0.984 . S
N1074 H1081 0.984 . S
N1075 C1068 1.356 . S
N1075 H1078 0.984 . S
N1075 H1079 0.985 . S
H1076 N1071 0.984 . S
H1077 N1071 0.985 . S
H1078 N1075 0.984 . S
H1079 N1075 0.985 . S
H1080 N1074 0.984 . S
H1081 N1074 0.984 . S
H1082 N1070 0.984 . S
H1083 N1070 0.985 . S
C1084 C1085 1.363 . S
C1084 C1090 1.379 . S
C1084 N1092 1.356 . S
C1085 C1084 1.363 . S
C1085 C1091 1.363 . S
C1086 C1087 1.363 . S
C1086 C1091 1.379 . S
C1086 N1093 1.356 . S
C1087 C1086 1.363 . S
C1087 C1090 1.363 . S
N1088 C1090 1.356 . S
N1088 H1100 0.984 . S
N1088 H1101 0.985 . S
N1089 C1091 1.356 . S
N1089 H1094 0.984 . S
N1089 H1095 0.985 . S
C1090 C1084 1.379 . S
C1090 C1087 1.363 . S
C1090 N1088 1.356 . S
C1091 C1085 1.363 . S
C1091 C1086 1.379 . S
C1091 N1089 1.356 . S
N1092 C1084 1.356 . S
N1092 H1098 0.984 . S
N1092 H1099 0.984 . S
N1093 C1086 1.356 . S
N1093 H1096 0.984 . S
N1093 H1097 0.985 . S
H1094 N1089 0.984 . S
H1095 N1089 0.985 . S
H1096 N1093 0.984 . S
H1097 N1093 0.985 . S
H1098 N1092 0.984 . S
H1099 N1092 0.984 . S
H1100 N1088 0.984 . S
H1101 N1088 0.985 . S
C1102 C1103 1.363 1_655 S
C1102 C1108 1.379 . S
C1102 N1110 1.356 . S
C1103 C1102 1.363 1_455 S
C1103 C1109 1.363 . S
C1104 C1105 1.363 1_455 S
C1104 C1109 1.379 . S
C1104 N1111 1.356 . S
C1105 C1104 1.363 1_655 S
C1105 C1108 1.363 . S
N1106 C1108 1.356 . S
N1106 H1118 0.984 . S
N1106 H1119 0.985 . S
N1107 C1109 1.356 . S
N1107 H1112 0.984 . S
N1107 H1113 0.985 . S
C1108 C1102 1.379 . S
C1108 C1105 1.363 . S
C1108 N1106 1.356 . S
C1109 C1103 1.363 . S
C1109 C1104 1.379 . S
C1109 N1107 1.356 . S
N1110 C1102 1.356 . S
N1110 H1116 0.984 . S
N1110 H1117 0.984 . S
N1111 C1104 1.356 . S
N1111 H1114 0.984 . S
N1111 H1115 0.985 . S
H1112 N1107 0.984 . S
H1113 N1107 0.985 . S
H1114 N1111 0.984 . S
H1115 N1111 0.985 . S
H1116 N1110 0.984 . S
H1117 N1110 0.984 . S
H1118 N1106 0.984 . S
H1119 N1106 0.985 . S
C1120 C1121 1.363 . S
C1120 C1126 1.379 . S
C1120 N1128 1.356 . S
C1121 C1120 1.363 . S
C1121 C1127 1.363 . S
C1122 C1123 1.363 . S
C1122 C1127 1.379 . S
C1122 N1129 1.356 . S
C1123 C1122 1.363 . S
C1123 C1126 1.363 . S
N1124 C1126 1.356 . S
N1124 H1136 0.984 . S
N1124 H1137 0.985 . S
N1125 C1127 1.356 . S
N1125 H1130 0.984 . S
N1125 H1131 0.985 . S
C1126 C1120 1.379 . S
C1126 C1123 1.363 . S
C1126 N1124 1.356 . S
C1127 C1121 1.363 . S
C1127 C1122 1.379 . S
C1127 N1125 1.356 . S
N1128 C1120 1.356 . S
N1128 H1134 0.984 . S
N1128 H1135 0.984 . S
N1129 C1122 1.356 . S
N1129 H1132 0.984 . S
N1129 H1133 0.985 . S
H1130 N1125 0.984 . S
H1131 N1125 0.985 . S
H1132 N1129 0.984 . S
H1133 N1129 0.985 . S
H1134 N1128 0.984 . S
H1135 N1128 0.984 . S
H1136 N1124 0.984 . S
H1137 N1124 0.985 . S
C1138 C1139 1.363 . S
C1138 C1144 1.379 . S
C1138 N1146 1.356 . S
C1139 C1138 1.363 . S
C1139 C1145 1.363 . S
C1140 C1141 1.363 . S
C1140 C1145 1.379 . S
C1140 N1147 1.356 . S
C1141 C1140 1.363 . S
C1141 C1144 1.363 . S
N1142 C1144 1.356 . S
N1142 H1154 0.984 . S
N1142 H1155 0.985 . S
N1143 C1145 1.356 . S
N1143 H1148 0.984 . S
N1143 H1149 0.985 . S
C1144 C1138 1.379 . S
C1144 C1141 1.363 . S
C1144 N1142 1.356 . S
C1145 C1139 1.363 . S
C1145 C1140 1.379 . S
C1145 N1143 1.356 . S
N1146 C1138 1.356 . S
N1146 H1152 0.984 . S
N1146 H1153 0.984 . S
N1147 C1140 1.356 . S
N1147 H1150 0.984 . S
N1147 H1151 0.985 . S
H1148 N1143 0.984 . S
H1149 N1143 0.985 . S
H1150 N1147 0.984 . S
H1151 N1147 0.985 . S
H1152 N1146 0.984 . S
H1153 N1146 0.984 . S
H1154 N1142 0.984 . S
H1155 N1142 0.985 . S
C1156 C1157 1.363 . S
C1156 C1162 1.379 . S
C1156 N1164 1.356 . S
C1157 C1156 1.363 . S
C1157 C1163 1.363 . S
C1158 C1159 1.363 . S
C1158 C1163 1.379 . S
C1158 N1165 1.356 . S
C1159 C1158 1.363 . S
C1159 C1162 1.363 . S
N1160 C1162 1.356 . S
N1160 H1172 0.984 1_655 S
N1160 H1173 0.985 . S
N1161 C1163 1.356 . S
N1161 H1166 0.984 . S
N1161 H1167 0.985 . S
C1162 C1156 1.379 . S
C1162 C1159 1.363 . S
C1162 N1160 1.356 . S
C1163 C1157 1.363 . S
C1163 C1158 1.379 . S
C1163 N1161 1.356 . S
N1164 C1156 1.356 . S
N1164 H1170 0.984 . S
N1164 H1171 0.984 . S
N1165 C1158 1.356 . S
N1165 H1168 0.984 . S
N1165 H1169 0.985 . S
H1166 N1161 0.984 . S
H1167 N1161 0.985 . S
H1168 N1165 0.984 . S
H1169 N1165 0.985 . S
H1170 N1164 0.984 . S
H1171 N1164 0.984 . S
H1172 N1160 0.984 1_455 S
H1173 N1160 0.985 . S
C1174 C1175 1.363 . S
C1174 C1180 1.379 . S
C1174 N1182 1.356 . S
C1175 C1174 1.363 . S
C1175 C1181 1.363 . S
C1176 C1177 1.363 . S
C1176 C1181 1.379 . S
C1176 N1183 1.356 1_455 S
C1177 C1176 1.363 . S
C1177 C1180 1.363 . S
N1178 C1180 1.356 . S
N1178 H1190 0.984 . S
N1178 H1191 0.985 . S
N1179 C1181 1.356 . S
N1179 H1184 0.984 . S
N1179 H1185 0.985 1_455 S
C1180 C1174 1.379 . S
C1180 C1177 1.363 . S
C1180 N1178 1.356 . S
C1181 C1175 1.363 . S
C1181 C1176 1.379 . S
C1181 N1179 1.356 . S
N1182 C1174 1.356 . S
N1182 H1188 0.984 . S
N1182 H1189 0.984 . S
N1183 C1176 1.356 1_655 S
N1183 H1186 0.984 . S
N1183 H1187 0.985 . S
H1184 N1179 0.984 . S
H1185 N1179 0.985 1_655 S
H1186 N1183 0.984 . S
H1187 N1183 0.985 . S
H1188 N1182 0.984 . S
H1189 N1182 0.984 . S
H1190 N1178 0.984 . S
H1191 N1178 0.985 . S
C1192 C1193 1.363 . S
C1192 C1198 1.379 . S
C1192 N1200 1.356 . S
C1193 C1192 1.363 . S
C1193 C1199 1.363 . S
C1194 C1195 1.363 . S
C1194 C1199 1.379 . S
C1194 N1201 1.356 . S
C1195 C1194 1.363 . S
C1195 C1198 1.363 . S
N1196 C1198 1.356 . S
N1196 H1208 0.984 . S
N1196 H1209 0.985 . S
N1197 C1199 1.365 . S
N1197 H1202 0.984 1_565 S
N1197 H1203 0.976 1_565 S
C1198 C1192 1.379 . S
C1198 C1195 1.363 . S
C1198 N1196 1.356 . S
C1199 C1193 1.363 . S
C1199 C1194 1.379 . S
C1199 N1197 1.365 . S
N1200 C1192 1.356 . S
N1200 H1206 0.984 . S
N1200 H1207 0.984 . S
N1201 C1194 1.356 . S
N1201 H1204 0.984 . S
N1201 H1205 0.985 . S
H1202 N1197 0.984 1_545 S
H1203 N1197 0.976 1_545 S
H1204 N1201 0.984 . S
H1205 N1201 0.985 . S
H1206 N1200 0.984 . S
H1207 N1200 0.984 . S
H1208 N1196 0.984 . S
H1209 N1196 0.985 . S
C1210 C1211 1.363 . S
C1210 C1216 1.379 . S
C1210 N1218 1.356 . S
C1211 C1210 1.363 . S
C1211 C1217 1.363 . S
C1212 C1213 1.363 . S
C1212 C1217 1.379 . S
C1212 N1219 1.356 . S
C1213 C1212 1.363 . S
C1213 C1216 1.363 . S
N1214 C1216 1.356 . S
N1214 H1226 0.984 . S
N1214 H1227 0.985 . S
N1215 C1217 1.356 . S
N1215 H1220 0.984 . S
N1215 H1221 0.985 . S
C1216 C1210 1.379 . S
C1216 C1213 1.363 . S
C1216 N1214 1.356 . S
C1217 C1211 1.363 . S
C1217 C1212 1.379 . S
C1217 N1215 1.356 . S
N1218 C1210 1.356 . S
N1218 H1224 0.984 . S
N1218 H1225 0.984 . S
N1219 C1212 1.356 . S
N1219 H1222 0.984 . S
N1219 H1223 0.985 . S
H1220 N1215 0.984 . S
H1221 N1215 0.985 . S
H1222 N1219 0.984 . S
H1223 N1219 0.985 . S
H1224 N1218 0.984 . S
H1225 N1218 0.984 . S
H1226 N1214 0.984 . S
H1227 N1214 0.985 . S
C1228 C1229 1.363 . S
C1228 C1234 1.379 . S
C1228 N1236 1.356 . S
C1229 C1228 1.363 . S
C1229 C1235 1.363 . S
C1230 C1231 1.363 . S
C1230 C1235 1.379 . S
C1230 N1237 1.356 . S
C1231 C1230 1.363 . S
C1231 C1234 1.363 . S
N1232 C1234 1.356 . S
N1232 H1244 0.984 . S
N1232 H1245 0.985 . S
N1233 C1235 1.356 . S
N1233 H1238 0.984 . S
N1233 H1239 0.985 1_455 S
C1234 C1228 1.379 . S
C1234 C1231 1.363 . S
C1234 N1232 1.356 . S
C1235 C1229 1.363 . S
C1235 C1230 1.379 . S
C1235 N1233 1.356 . S
N1236 C1228 1.356 . S
N1236 H1242 0.984 . S
N1236 H1243 0.984 . S
N1237 C1230 1.356 . S
N1237 H1240 0.984 . S
N1237 H1241 0.985 . S
H1238 N1233 0.984 . S
H1239 N1233 0.985 1_655 S
H1240 N1237 0.984 . S
H1241 N1237 0.985 . S
H1242 N1236 0.984 . S
H1243 N1236 0.984 . S
H1244 N1232 0.984 . S
H1245 N1232 0.985 . S
C1246 C1247 1.363 . S
C1246 C1252 1.379 . S
C1246 N1254 1.356 . S
C1247 C1246 1.363 . S
C1247 C1253 1.363 . S
C1248 C1249 1.363 . S
C1248 C1253 1.379 . S
C1248 N1255 1.356 1_545 S
C1249 C1248 1.363 . S
C1249 C1252 1.363 . S
N1250 C1252 1.356 . S
N1250 H1262 0.984 . S
N1250 H1263 0.985 . S
N1251 C1253 1.356 . S
N1251 H1256 0.984 . S
N1251 H1257 0.985 1_545 S
C1252 C1246 1.379 . S
C1252 C1249 1.363 . S
C1252 N1250 1.356 . S
C1253 C1247 1.363 . S
C1253 C1248 1.379 . S
C1253 N1251 1.356 . S
N1254 C1246 1.356 . S
N1254 H1260 0.984 . S
N1254 H1261 0.984 . S
N1255 C1248 1.356 1_565 S
N1255 H1258 0.984 . S
N1255 H1259 0.985 . S
H1256 N1251 0.984 . S
H1257 N1251 0.985 1_565 S
H1258 N1255 0.984 . S
H1259 N1255 0.985 . S
H1260 N1254 0.984 . S
H1261 N1254 0.984 . S
H1262 N1250 0.984 . S
H1263 N1250 0.985 . S
C545 C9 0.945 . S
C547 C67 1.087 . S
C563 C101 1.087 . S
C565 C43 0.945 . S
C581 C135 1.087 1_655 S
C583 C77 0.956 . S
C599 C111 0.956 . S
C601 C33 1.087 1_565 S
C617 C271 1.087 1_455 S
C619 C145 0.956 . S
C635 C169 1.087 1_545 S
C637 C179 0.956 . S
C653 C203 1.087 . S
C655 C213 0.945 . S
C671 C247 0.945 . S
C673 C237 1.087 . S
C689 C281 0.945 . S
C691 C339 1.087 . S
C707 C315 0.945 . S
C709 C373 1.087 . S
C725 C407 1.087 1_455 S
C727 C349 0.956 . S
C743 C305 1.087 1_545 S
C745 C383 0.956 . S
C761 C543 1.087 1_655 S
C763 C417 0.956 . S
C779 C441 1.087 1_565 S
C781 C451 0.956 . S
C797 C485 0.945 . S
C799 C475 1.087 . S
C815 C519 0.945 . S
C817 C509 1.087 . S
C833 C5 2.246 . S
C835 C73 2.246 . S
C851 C39 2.246 . S
C853 C107 2.246 . S
C869 C209 2.246 . S
C871 C141 2.246 . S
C887 C243 2.246 . S
C889 C175 2.246 . S
C905 C345 2.246 . S
C907 C277 2.246 . S
C923 C311 2.246 . S
C925 C379 2.246 . S
C941 C413 2.246 . S
C943 C481 2.246 . S
C959 C447 2.246 . S
C961 C515 2.246 . S
C977 C20 1.836 . S
C979 C292 1.836 . S
C995 C54 1.836 . S
C997 C326 1.836 . S
C1013 C88 1.836 . S
C1015 C360 1.836 . S
C1031 C394 1.836 . S
C1033 C122 1.836 . S
C1049 C428 1.836 . S
C1051 C156 1.836 . S
C1067 C190 1.836 . S
C1069 C462 1.836 . S
C1085 C224 1.836 . S
C1087 C496 1.836 . S
C1103 C530 1.836 . S
C1105 C258 1.836 . S
C1121 C172 1.630 . S
C1123 C2 1.630 . S
C1139 C206 1.630 . S
C1141 C36 1.630 . S
C1157 C70 1.630 . S
C1159 C240 1.630 . S
C1175 C138 1.630 . S
C1177 C104 1.630 . S
C1193 C274 1.630 . S
C1195 C444 1.630 . S
C1211 C478 1.630 . S
C1213 C308 1.630 . S
C1229 C512 1.630 . S
C1231 C342 1.630 . S
C1247 C376 1.630 . S
C1249 C410 1.630 . S
