# Generated by pormake.
# Topology snk, (6)-cn, num edge types: 1
# Building blocks:
#     Node 0, Type 0, BuildingBlock: BETDEL_clean_sbu_0, # of connection points: 6
#     Node 1, Type 0, BuildingBlock: BETDEL_clean_sbu_0, # of connection points: 6
#     Node 2, Type 0, BuildingBlock: BETDEL_clean_sbu_0, # of connection points: 6
#     Node 3, Type 0, BuildingBlock: BETDEL_clean_sbu_0, # of connection points: 6
#     Node 4, Type 0, BuildingBlock: BETDEL_clean_sbu_0, # of connection points: 6
#     Node 5, Type 0, BuildingBlock: BETDEL_clean_sbu_0, # of connection points: 6
#     Node 6, Type 0, BuildingBlock: BETDEL_clean_sbu_0, # of connection points: 6
#     Node 7, Type 0, BuildingBlock: BETDEL_clean_sbu_0, # of connection points: 6
#     Edge 8, Type (0, 0), BuildingBlock: MIFKUJ_clean_linker_0, # of connection points: 2
#     Edge 9, Type (0, 0), BuildingBlock: MIFKUJ_clean_linker_0, # of connection points: 2
#     Edge 10, Type (0, 0), BuildingBlock: MIFKUJ_clean_linker_0, # of connection points: 2
#     Edge 11, Type (0, 0), BuildingBlock: MIFKUJ_clean_linker_0, # of connection points: 2
#     Edge 12, Type (0, 0), BuildingBlock: MIFKUJ_clean_linker_0, # of connection points: 2
#     Edge 13, Type (0, 0), BuildingBlock: MIFKUJ_clean_linker_0, # of connection points: 2
#     Edge 14, Type (0, 0), BuildingBlock: MIFKUJ_clean_linker_0, # of connection points: 2
#     Edge 15, Type (0, 0), BuildingBlock: MIFKUJ_clean_linker_0, # of connection points: 2
#     Edge 16, Type (0, 0), BuildingBlock: MIFKUJ_clean_linker_0, # of connection points: 2
#     Edge 17, Type (0, 0), BuildingBlock: MIFKUJ_clean_linker_0, # of connection points: 2
#     Edge 18, Type (0, 0), BuildingBlock: MIFKUJ_clean_linker_0, # of connection points: 2
#     Edge 19, Type (0, 0), BuildingBlock: MIFKUJ_clean_linker_0, # of connection points: 2
#     Edge 20, Type (0, 0), BuildingBlock: MIFKUJ_clean_linker_0, # of connection points: 2
#     Edge 21, Type (0, 0), BuildingBlock: MIFKUJ_clean_linker_0, # of connection points: 2
#     Edge 22, Type (0, 0), BuildingBlock: MIFKUJ_clean_linker_0, # of connection points: 2
#     Edge 23, Type (0, 0), BuildingBlock: MIFKUJ_clean_linker_0, # of connection points: 2
#     Edge 24, Type (0, 0), BuildingBlock: MIFKUJ_clean_linker_0, # of connection points: 2
#     Edge 25, Type (0, 0), BuildingBlock: MIFKUJ_clean_linker_0, # of connection points: 2
#     Edge 26, Type (0, 0), BuildingBlock: MIFKUJ_clean_linker_0, # of connection points: 2
#     Edge 27, Type (0, 0), BuildingBlock: MIFKUJ_clean_linker_0, # of connection points: 2
#     Edge 28, Type (0, 0), BuildingBlock: MIFKUJ_clean_linker_0, # of connection points: 2
#     Edge 29, Type (0, 0), BuildingBlock: MIFKUJ_clean_linker_0, # of connection points: 2
#     Edge 30, Type (0, 0), BuildingBlock: MIFKUJ_clean_linker_0, # of connection points: 2
#     Edge 31, Type (0, 0), BuildingBlock: MIFKUJ_clean_linker_0, # of connection points: 2
# Relax obj value: 0.057
# Max RMSD: 0.096
# Mean RMSD: 0.095
data_MOF--net-snk--node1-BETDEL_clean_sbu_0--edge1-MIFKUJ_clean_linker_0
_symmetry_space_group_name_H-M    P1
_symmetry_Int_Tables_number       1
_symmetry_cell_setting            triclinic
loop_
_symmetry_equiv_pos_as_xyz
'x, y, z'
_cell_length_a     52.248325
_cell_length_b     52.308477
_cell_length_c     22.579005
_cell_angle_alpha  83.923363
_cell_angle_beta   96.051375
_cell_angle_gamma 89.717479
loop_
_atom_site_label
_atom_site_type_symbol
_atom_site_fract_x
_atom_site_fract_y
_atom_site_fract_z
_atom_type_partial_charge
Dy0 Dy 0.99963 0.00231 0.42566 0.0
C1 C 0.02379 0.00482 0.67845 0.0
C2 C 0.99164 0.00566 0.30292 0.0
Dy3 Dy 0.01368 0.00909 0.55628 0.0
O4 O 0.99119 0.98474 0.33904 0.0
O5 O 0.99541 0.02509 0.33397 0.0
O6 O 0.01467 0.96179 0.4424 0.0
O7 O 0.03224 0.98995 0.49148 0.0
C8 C 0.03159 0.9664 0.48576 0.0
C9 C 0.98177 0.0454 0.49608 0.0
O10 O 0.0487 0.02593 0.52026 0.0
O11 O 0.02805 0.03472 0.42436 0.0
O12 O 0.02132 0.02619 0.64352 0.0
O13 O 0.02147 0.98554 0.64647 0.0
O14 O 0.9993 0.04965 0.53862 0.0
O15 O 0.98081 0.02176 0.49058 0.0
O16 O 0.96437 0.98528 0.46141 0.0
O17 O 0.98348 0.97851 0.55925 0.0
C18 C 0.04712 0.03855 0.466 0.0
C19 C 0.96479 0.97414 0.51714 0.0
Dy20 Dy 0.23486 0.74616 0.87974 0.0
C21 C 0.25202 0.76209 0.6305 0.0
C22 C 0.23505 0.73791 1.00121 0.0
Dy23 Dy 0.25007 0.75569 0.75144 0.0
O24 O 0.21638 0.74867 0.9644 0.0
O25 O 0.25356 0.7312 0.97156 0.0
O26 O 0.19504 0.7606 0.84715 0.0
O27 O 0.22673 0.776 0.80554 0.0
C28 C 0.20258 0.77571 0.80313 0.0
C29 C 0.28215 0.72627 0.82963 0.0
O30 O 0.26808 0.79042 0.7854 0.0
O31 O 0.26525 0.777 0.88623 0.0
O32 O 0.26942 0.75043 0.66931 0.0
O33 O 0.2336 0.77075 0.6578 0.0
O34 O 0.2898 0.74188 0.78672 0.0
O35 O 0.258 0.72567 0.82572 0.0
O36 O 0.21648 0.71162 0.84319 0.0
O37 O 0.21856 0.72669 0.74323 0.0
C38 C 0.27428 0.79267 0.84305 0.0
C39 C 0.20978 0.71031 0.78515 0.0
Dy40 Dy 0.51228 0.99139 0.07618 0.0
C41 C 0.49478 0.0064 0.82193 0.0
C42 C 0.5194 0.99334 0.19762 0.0
Dy43 Dy 0.5018 0.00711 0.94385 0.0
O44 O 0.51759 0.97236 0.1715 0.0
O45 O 0.51836 0.01303 0.15743 0.0
O46 O 0.49247 0.95406 0.06619 0.0
O47 O 0.47909 0.98676 1.00933 0.0
C48 C 0.47681 0.96276 0.02005 0.0
C49 C 0.53709 0.03546 1.00158 0.0
O50 O 0.46823 0.02794 0.97231 0.0
O51 O 0.487 0.02695 0.06995 0.0
O52 O 0.49737 0.027 0.84931 0.0
O53 O 0.49504 0.9864 0.86114 0.0
O54 O 0.52174 0.04459 0.95526 0.0
O55 O 0.53459 0.01153 0.01089 0.0
O56 O 0.54604 0.97083 0.04717 0.0
O57 O 0.52722 0.97173 0.94958 0.0
C58 C 0.46964 0.03642 0.02589 0.0
C59 C 0.54474 0.96244 0.99345 0.0
Dy60 Dy 0.24865 0.25963 0.18029 0.0
C61 C 0.27168 0.24129 0.43594 0.0
C62 C 0.24745 0.26727 0.05788 0.0
Dy63 Dy 0.26974 0.24903 0.31331 0.0
O64 O 0.22888 0.25775 0.0869 0.0
O65 O 0.26619 0.2736 0.09583 0.0
O66 O 0.21051 0.24407 0.20042 0.0
O67 O 0.24424 0.22886 0.25187 0.0
C68 C 0.21992 0.22874 0.2468 0.0
C69 C 0.29814 0.28001 0.24548 0.0
O70 O 0.28914 0.21532 0.28203 0.0
O71 O 0.27886 0.22848 0.18037 0.0
O72 O 0.28926 0.25251 0.40627 0.0
O73 O 0.25354 0.23346 0.39853 0.0
O74 O 0.3079 0.26461 0.2914 0.0
O75 O 0.27388 0.27977 0.24173 0.0
O76 O 0.22944 0.29341 0.21253 0.0
O77 O 0.23857 0.279 0.3137 0.0
C78 C 0.29136 0.21304 0.22472 0.0
C79 C 0.22646 0.29497 0.26987 0.0
Dy80 Dy 0.74184 0.24815 0.34171 0.0
C81 C 0.75922 0.25833 0.09378 0.0
C82 C 0.73978 0.2449 0.46181 0.0
Dy83 Dy 0.75686 0.25495 0.21386 0.0
O84 O 0.73019 0.26358 0.42351 0.0
O85 O 0.75039 0.22759 0.43456 0.0
O86 O 0.70139 0.25961 0.30731 0.0
O87 O 0.73221 0.27593 0.26387 0.0
C88 C 0.70812 0.27432 0.26175 0.0
C89 C 0.79027 0.22843 0.29454 0.0
O90 O 0.77552 0.29002 0.24511 0.0
O91 O 0.77481 0.27605 0.34604 0.0
O92 O 0.76923 0.23991 0.13225 0.0
O93 O 0.748 0.27531 0.12085 0.0
O94 O 0.79731 0.24303 0.24911 0.0
O95 O 0.76618 0.22719 0.29157 0.0
O96 O 0.72263 0.21332 0.30981 0.0
O97 O 0.72427 0.22687 0.2089 0.0
C98 C 0.78287 0.29208 0.30236 0.0
C99 C 0.7158 0.21104 0.25234 0.0
Dy100 Dy 0.74389 0.76142 0.6705 0.0
C101 C 0.76378 0.7373 0.92949 0.0
C102 C 0.73811 0.76656 0.54765 0.0
Dy103 Dy 0.76583 0.75013 0.80959 0.0
O104 O 0.72726 0.74928 0.58187 0.0
O105 O 0.75163 0.78165 0.5806 0.0
O106 O 0.70605 0.74643 0.69583 0.0
O107 O 0.74046 0.73153 0.74451 0.0
C108 C 0.71622 0.73115 0.74155 0.0
C109 C 0.79125 0.78866 0.75333 0.0
O110 O 0.78758 0.71919 0.77291 0.0
O111 O 0.77677 0.73304 0.67104 0.0
O112 O 0.78484 0.74182 0.90417 0.0
O113 O 0.74411 0.73858 0.88881 0.0
O114 O 0.79681 0.78032 0.80963 0.0
O115 O 0.77286 0.77571 0.73266 0.0
O116 O 0.7259 0.79513 0.70574 0.0
O117 O 0.7349 0.7804 0.80765 0.0
C118 C 0.78999 0.71784 0.71507 0.0
C119 C 0.7235 0.7967 0.76345 0.0
Dy120 Dy 0.49966 0.4969 0.90455 0.0
C121 C 0.51386 0.51073 0.15319 0.0
C122 C 0.49361 0.4963 0.78338 0.0
Dy123 Dy 0.50839 0.51011 0.03199 0.0
O124 O 0.50634 0.47929 0.82125 0.0
O125 O 0.48378 0.51372 0.81168 0.0
O126 O 0.51019 0.45615 0.93631 0.0
O127 O 0.52874 0.48597 0.97951 0.0
C128 C 0.52627 0.462 0.98041 0.0
C129 C 0.48013 0.54442 0.95582 0.0
O130 O 0.5442 0.5273 1.00206 0.0
O131 O 0.53105 0.52655 0.90073 0.0
O132 O 0.50258 0.52852 0.11488 0.0
O133 O 0.52266 0.4926 0.12532 0.0
O134 O 0.49686 0.55056 0.99845 0.0
O135 O 0.47879 0.52035 0.95757 0.0
O136 O 0.46426 0.47873 0.93601 0.0
O137 O 0.47716 0.48066 0.03717 0.0
C138 C 0.547 0.53419 0.94507 0.0
C139 C 0.46144 0.47243 0.99335 0.0
Dy140 Dy 0.01238 0.49108 0.57064 0.0
C141 C 0.99772 0.51853 0.31448 0.0
C142 C 0.01932 0.48755 0.69374 0.0
Dy143 Dy 1.00189 0.51257 0.43777 0.0
O144 O 1.0013 0.4766 0.66183 0.0
O145 O 0.03436 0.49973 0.6583 0.0
O146 O 0.99633 0.45323 0.55099 0.0
O147 O 0.98127 0.48688 0.49882 0.0
C148 C 0.98079 0.46251 0.50478 0.0
C149 C 0.03354 0.53998 0.50686 0.0
O150 O 0.96923 0.5331 0.47067 0.0
O151 O 0.98568 0.52521 0.57077 0.0
O152 O 0.01612 0.52713 0.34983 0.0
O153 O 0.98084 0.50735 0.34658 0.0
O154 O 0.01778 0.55041 0.46237 0.0
O155 O 0.03276 0.51584 0.50926 0.0
O156 O 0.04467 0.47031 0.53622 0.0
O157 O 0.02708 0.47755 0.4369 0.0
C158 C 0.96908 0.53708 0.52785 0.0
C159 C 0.04413 0.46594 0.47908 0.0
H160 H 0.0391 0.0833 0.39461 0.0
H161 H 0.07082 0.1154 0.36792 0.0
H162 H 0.13065 0.06927 0.47625 0.0
H163 H 0.09842 0.03775 0.50613 0.0
H164 H 0.13938 0.11838 0.4849 0.0
H165 H 0.11784 0.06795 0.32361 0.0
H166 H 0.08648 0.04797 0.25428 0.0
H167 H 0.06144 0.12249 0.16927 0.0
H168 H 0.0916 0.14305 0.24058 0.0
H169 H 0.23646 0.18792 0.32877 0.0
H170 H 0.20967 0.1545 0.37481 0.0
H171 H 0.1414 0.19372 0.28406 0.0
H172 H 0.16795 0.22672 0.23769 0.0
H173 H 0.14103 0.14405 0.26745 0.0
H174 H 0.15802 0.19361 0.43758 0.0
H175 H 0.18489 0.21331 0.51655 0.0
H176 H 0.21917 0.13962 0.58246 0.0
H177 H 0.19251 0.11949 0.50382 0.0
C178 C 0.05902 0.08006 0.41284 0.0
C179 C 0.06648 0.0579 0.4515 0.0
C180 C 0.07713 0.09839 0.3976 0.0
C181 C 0.10327 0.0944 0.41865 0.0
C182 C 0.11064 0.07266 0.45907 0.0
C183 C 0.0923 0.05463 0.47582 0.0
C184 C 0.12285 0.11238 0.39605 0.0
C185 C 0.14003 0.12369 0.43732 0.0
C186 C 0.12365 0.11939 0.33388 0.0
C187 C 0.1069 0.10707 0.28789 0.0
C188 C 0.10563 0.08012 0.29025 0.0
C189 C 0.08796 0.06868 0.25072 0.0
C190 C 0.07203 0.08393 0.20716 0.0
C191 C 0.07378 0.11069 0.20305 0.0
C192 C 0.09107 0.12227 0.24327 0.0
C193 C 0.21572 0.18947 0.31929 0.0
C194 C 0.20425 0.20976 0.27936 0.0
C195 C 0.20044 0.17044 0.3457 0.0
C196 C 0.17351 0.17159 0.33281 0.0
C197 C 0.16213 0.19233 0.29435 0.0
C198 C 0.17732 0.21121 0.26797 0.0
C199 C 0.15699 0.1507 0.35636 0.0
C200 C 0.14053 0.13859 0.31502 0.0
C201 C 0.15701 0.14287 0.41831 0.0
C202 C 0.17349 0.15511 0.46445 0.0
C203 C 0.17148 0.18167 0.46855 0.0
C204 C 0.1866 0.19288 0.51339 0.0
C205 C 0.20379 0.17773 0.55436 0.0
C206 C 0.20588 0.15133 0.55063 0.0
C207 C 0.19074 0.14001 0.50604 0.0
H208 H 0.21542 0.18638 0.5892 0.0
H209 H 0.05832 0.07502 0.17668 0.0
H210 H 0.02745 0.91478 0.49104 0.0
H211 H 0.05805 0.88244 0.54439 0.0
H212 H 0.10706 0.9426 0.60529 0.0
H213 H 0.07614 0.97513 0.55358 0.0
H214 H 0.12138 0.88813 0.52936 0.0
H215 H 0.09983 0.92746 0.71173 0.0
H216 H 0.06741 0.94384 0.77088 0.0
H217 H 0.02702 0.87261 0.76725 0.0
H218 H 0.05907 0.85601 0.70729 0.0
H219 H 0.21625 0.81677 0.72999 0.0
H220 H 0.18737 0.8487 0.6701 0.0
H221 H 0.12176 0.80527 0.72233 0.0
H222 H 0.15064 0.77383 0.78421 0.0
H223 H 0.11582 0.85274 0.74031 0.0
H224 H 0.13851 0.81022 0.57428 0.0
H225 H 0.16669 0.79195 0.50788 0.0
H226 H 0.20154 0.86548 0.47372 0.0
H227 H 0.17346 0.88421 0.53973 0.0
C228 C 0.0447 0.92104 0.51609 0.0
C229 C 0.04962 0.94725 0.51849 0.0
C230 C 0.06203 0.90266 0.54634 0.0
C231 C 0.08449 0.91039 0.57858 0.0
C232 C 0.08957 0.93653 0.58085 0.0
C233 C 0.07201 0.95495 0.55144 0.0
C234 C 0.10275 0.89086 0.60906 0.0
C235 C 0.12064 0.88056 0.57579 0.0
C236 C 0.10081 0.88071 0.66861 0.0
C237 C 0.0816 0.89066 0.7045 0.0
C238 C 0.08386 0.91544 0.72299 0.0
C239 C 0.06561 0.92473 0.75679 0.0
C240 C 0.04513 0.9093 0.77268 0.0
C241 C 0.04287 0.88456 0.75482 0.0
C242 C 0.06107 0.8752 0.72096 0.0
C243 C 0.19566 0.81394 0.72801 0.0
C244 C 0.1855 0.79316 0.76197 0.0
C245 C 0.17921 0.83205 0.6935 0.0
C246 C 0.15245 0.82924 0.69164 0.0
C247 C 0.14237 0.80779 0.7235 0.0
C248 C 0.15881 0.7899 0.75869 0.0
C249 C 0.13498 0.84979 0.66092 0.0
C250 C 0.117 0.86028 0.69403 0.0
C251 C 0.13672 0.85989 0.60086 0.0
C252 C 0.15405 0.84855 0.56235 0.0
C253 C 0.15233 0.82243 0.553 0.0
C254 C 0.16821 0.81203 0.51525 0.0
C255 C 0.18596 0.82753 0.48677 0.0
C256 C 0.1878 0.85349 0.49585 0.0
C257 C 0.17185 0.86404 0.53324 0.0
H258 H 0.19823 0.81947 0.45752 0.0
H259 H 0.03106 0.91646 0.79904 0.0
H260 H 0.27868 0.81684 0.94543 0.0
H261 H 0.30961 0.84974 0.97277 0.0
H262 H 0.34331 0.84534 0.80743 0.0
H263 H 0.31148 0.81381 0.77857 0.0
H264 H 0.35675 0.84958 0.99843 0.0
H265 H 0.37334 0.89826 0.76112 0.0
H266 H 0.3484 0.90964 0.66279 0.0
H267 H 0.27855 0.91048 0.7472 0.0
H268 H 0.30309 0.89946 0.84611 0.0
H269 H 0.47473 0.91104 0.02242 0.0
H270 H 0.43822 0.88521 0.98931 0.0
H271 H 0.39307 0.95446 0.93194 0.0
H272 H 0.43024 0.98043 0.96239 0.0
H273 H 0.38107 0.92225 0.85687 0.0
H274 H 0.38692 0.91621 0.06876 0.0
H275 H 0.40734 0.90888 0.1728 0.0
H276 H 0.42368 0.8303 0.14912 0.0
H277 H 0.40369 0.83725 0.04463 0.0
C278 C 0.2925 0.8232 0.91466 0.0
C279 C 0.29249 0.81296 0.8596 0.0
C280 C 0.31025 0.84196 0.93035 0.0
C281 C 0.32867 0.85052 0.89181 0.0
C282 C 0.32886 0.83989 0.83722 0.0
C283 C 0.31072 0.82166 0.82087 0.0
C284 C 0.34847 0.86954 0.90987 0.0
C285 C 0.3619 0.86553 0.96742 0.0
C286 C 0.35496 0.89086 0.87028 0.0
C287 C 0.34006 0.89782 0.811 0.0
C288 C 0.35268 0.901 0.75875 0.0
C289 C 0.3386 0.90736 0.70289 0.0
C290 C 0.3119 0.91071 0.69874 0.0
C291 C 0.29922 0.9078 0.75046 0.0
C292 C 0.31321 0.90147 0.80643 0.0
C293 C 0.45706 0.92073 1.00226 0.0
C294 C 0.45518 0.94768 0.99543 0.0
C295 C 0.43612 0.90596 0.98375 0.0
C296 C 0.41254 0.91779 0.95967 0.0
C297 C 0.41094 0.94482 0.95078 0.0
C298 C 0.43215 0.95965 0.96819 0.0
C299 C 0.38963 0.90184 0.94476 0.0
C300 C 0.37569 0.90641 0.8879 0.0
C301 C 0.38195 0.88164 0.98579 0.0
C302 C 0.39398 0.87732 0.04868 0.0
C303 C 0.39502 0.89741 0.08561 0.0
C304 C 0.4065 0.89332 0.14468 0.0
C305 C 0.41685 0.86915 0.16752 0.0
C306 C 0.41568 0.84901 0.13135 0.0
C307 C 0.40425 0.85301 0.07221 0.0
H308 H 0.42572 0.86602 0.21326 0.0
H309 H 0.30104 0.9156 0.65545 0.0
H310 H 0.47867 0.0711 0.10662 0.0
H311 H 0.44873 0.10232 0.13522 0.0
H312 H 0.38958 0.07859 1.00522 0.0
H313 H 0.42011 0.04784 0.97433 0.0
H314 H 0.38782 0.13126 0.0127 0.0
H315 H 0.39257 0.05378 0.15509 0.0
H316 H 0.42076 0.02134 0.21802 0.0
H317 H 0.45363 0.07992 0.32063 0.0
H318 H 0.42584 0.11279 0.25784 0.0
H319 H 0.28329 0.18545 0.12912 0.0
H320 H 0.3126 0.15496 0.09523 0.0
H321 H 0.36824 0.16579 0.24559 0.0
H322 H 0.33798 0.19508 0.28178 0.0
H323 H 0.37235 0.1195 0.22702 0.0
H324 H 0.37003 0.19674 0.09434 0.0
H325 H 0.35044 0.23288 0.0251 0.0
H326 H 0.32022 0.18011 0.90309 0.0
H327 H 0.33912 0.14361 0.97221 0.0
C328 C 0.45935 0.07263 0.08366 0.0
C329 C 0.45164 0.05671 0.03876 0.0
C330 C 0.4422 0.09051 0.10018 0.0
C331 C 0.4166 0.0924 0.07363 0.0
C332 C 0.40915 0.07738 0.02673 0.0
C333 C 0.42657 0.05977 1.00919 0.0
C334 C 0.39743 0.10883 0.09761 0.0
C335 C 0.38408 0.12846 0.05927 0.0
C336 C 0.39321 0.10584 0.15897 0.0
C337 C 0.40722 0.08573 0.20164 0.0
C338 C 0.40563 0.05969 0.19148 0.0
C339 C 0.42166 0.04128 0.22679 0.0
C340 C 0.43918 0.04866 0.27272 0.0
C341 C 0.44017 0.07431 0.28469 0.0
C342 C 0.42421 0.09283 0.24942 0.0
C343 C 0.30166 0.18107 0.15536 0.0
C344 C 0.30838 0.19274 0.208 0.0
C345 C 0.31859 0.16379 0.1356 0.0
C346 C 0.34318 0.15853 0.16652 0.0
C347 C 0.34954 0.16951 0.22043 0.0
C348 C 0.33223 0.18628 0.24122 0.0
C349 C 0.3623 0.14207 0.14194 0.0
C350 C 0.37576 0.12235 0.18025 0.0
C351 C 0.36708 0.14546 0.08073 0.0
C352 C 0.3558 0.1674 0.03878 0.0
C353 C 0.35904 0.19282 0.05295 0.0
C354 C 0.34804 0.21338 0.01374 0.0
C355 C 0.33402 0.20879 0.95983 0.0
C356 C 0.33101 0.18364 0.94496 0.0
C357 C 0.34186 0.163 0.98415 0.0
H358 H 0.32557 0.22475 0.92951 0.0
H359 H 0.4519 0.03446 0.2992 0.0
H360 H 0.92759 0.95261 0.44319 0.0
H361 H 0.8953 0.92124 0.47284 0.0
H362 H 0.92255 0.92511 0.6588 0.0
H363 H 0.95498 0.95577 0.62974 0.0
H364 H 0.91808 0.8769 0.63643 0.0
H365 H 0.86527 0.95422 0.59017 0.0
H366 H 0.84687 0.99192 0.52427 0.0
H367 H 0.81188 0.94229 0.40021 0.0
H368 H 0.83043 0.90429 0.46491 0.0
H369 H 0.82414 0.82203 0.80252 0.0
H370 H 0.85035 0.85405 0.75161 0.0
H371 H 0.81704 0.8335 0.58039 0.0
H372 H 0.79051 0.80132 0.63179 0.0
H373 H 0.8238 0.88696 0.5817 0.0
H374 H 0.87322 0.80939 0.63529 0.0
H375 H 0.89115 0.77221 0.70336 0.0
H376 H 0.93332 0.82278 0.81426 0.0
H377 H 0.91494 0.86037 0.74808 0.0
C378 C 0.92653 0.9469 0.49038 0.0
C379 C 0.94395 0.95661 0.53404 0.0
C380 C 0.90803 0.92902 0.50727 0.0
C381 C 0.90644 0.92083 0.56811 0.0
C382 C 0.92348 0.93097 0.6116 0.0
C383 C 0.94202 0.94859 0.59483 0.0
C384 C 0.88781 0.90104 0.58731 0.0
C385 C 0.89745 0.87925 0.62482 0.0
C386 C 0.86095 0.9036 0.57044 0.0
C387 C 0.84948 0.92643 0.53204 0.0
C388 C 0.85381 0.95135 0.54862 0.0
C389 C 0.84334 0.97277 0.51152 0.0
C390 C 0.82829 0.9695 0.45801 0.0
C391 C 0.82359 0.94479 0.44161 0.0
C392 C 0.83407 0.92331 0.47849 0.0
C393 C 0.8222 0.82446 0.754 0.0
C394 C 0.80531 0.80916 0.72096 0.0
C395 C 0.8372 0.84277 0.72496 0.0
C396 C 0.83591 0.84594 0.66222 0.0
C397 C 0.81832 0.83137 0.62886 0.0
C398 C 0.80316 0.81303 0.65813 0.0
C399 C 0.85411 0.86343 0.6325 0.0
C400 C 0.84445 0.88458 0.59281 0.0
C401 C 0.88104 0.86039 0.64745 0.0
C402 C 0.89253 0.83775 0.68682 0.0
C403 C 0.88617 0.81262 0.67441 0.0
C404 C 0.89643 0.79145 0.71265 0.0
C405 C 0.91343 0.7951 0.76297 0.0
C406 C 0.92016 0.81996 0.77523 0.0
C407 C 0.90979 0.84123 0.73741 0.0
H408 H 0.92138 0.77867 0.79245 0.0
H409 H 0.82021 0.9861 0.42931 0.0
H410 H 0.93255 0.03449 0.51416 0.0
H411 H 0.89637 0.06509 0.50397 0.0
H412 H 0.94517 0.12519 0.43492 0.0
H413 H 0.98176 0.09493 0.44977 0.0
H414 H 0.91806 0.14314 0.50965 0.0
H415 H 0.89797 0.09006 0.34432 0.0
H416 H 0.88935 0.04859 0.30366 0.0
H417 H 0.82622 0.03602 0.41009 0.0
H418 H 0.83464 0.07729 0.45172 0.0
H419 H 0.84237 0.22902 0.30624 0.0
H420 H 0.87149 0.19757 0.36681 0.0
H421 H 0.80674 0.15945 0.43931 0.0
H422 H 0.77743 0.19076 0.37801 0.0
H423 H 0.83597 0.12739 0.38854 0.0
H424 H 0.85033 0.18701 0.53161 0.0
H425 H 0.85883 0.22926 0.56802 0.0
H426 H 0.93271 0.23066 0.50065 0.0
H427 H 0.92446 0.1887 0.46269 0.0
C428 C 0.93528 0.0542 0.49605 0.0
C429 C 0.95952 0.06256 0.48163 0.0
C430 C 0.9147 0.07163 0.49035 0.0
C431 C 0.91797 0.09735 0.46792 0.0
C432 C 0.94224 0.10546 0.45255 0.0
C433 C 0.96299 0.08823 0.46022 0.0
C434 C 0.89628 0.11601 0.45993 0.0
C435 C 0.90014 0.13979 0.48291 0.0
C436 C 0.87243 0.11111 0.42762 0.0
C437 C 0.8671 0.08659 0.40155 0.0
C438 C 0.88232 0.07838 0.35915 0.0
C439 C 0.87746 0.05493 0.33595 0.0
C440 C 0.8573 0.03963 0.35443 0.0
C441 C 0.84186 0.04784 0.3959 0.0
C442 C 0.84664 0.07127 0.41925 0.0
C443 C 0.83443 0.21421 0.33594 0.0
C444 C 0.80778 0.21198 0.33712 0.0
C445 C 0.85104 0.19642 0.37091 0.0
C446 C 0.84119 0.17633 0.40768 0.0
C447 C 0.81461 0.17492 0.4113 0.0
C448 C 0.79797 0.19275 0.37635 0.0
C449 C 0.85842 0.15502 0.43512 0.0
C450 C 0.85365 0.13062 0.41636 0.0
C451 C 0.8815 0.15947 0.47074 0.0
C452 C 0.88672 0.18465 0.49417 0.0
C453 C 0.86833 0.19638 0.52421 0.0
C454 C 0.8731 0.22031 0.54512 0.0
C455 C 0.89628 0.23265 0.53661 0.0
C456 C 0.91475 0.22108 0.50724 0.0
C457 C 0.91005 0.1972 0.48607 0.0
H458 H 0.89993 0.25117 0.55284 0.0
H459 H 0.85361 0.02145 0.33654 0.0
H460 H 0.68986 0.17719 0.32564 0.0
H461 H 0.66014 0.14356 0.29557 0.0
H462 H 0.6711 0.16512 0.11041 0.0
H463 H 0.70073 0.19845 0.1397 0.0
H464 H 0.61424 0.14606 0.22233 0.0
H465 H 0.67215 0.11206 0.03856 0.0
H466 H 0.71741 0.10822 0.01826 0.0
H467 H 0.74192 0.10251 0.20684 0.0
H468 H 0.69681 0.10595 0.22833 0.0
H469 H 0.53909 0.0875 0.99609 0.0
H470 H 0.56978 0.11335 0.05277 0.0
H471 H 0.60752 0.04415 0.14207 0.0
H472 H 0.57652 0.0181 0.0859 0.0
H473 H 0.64161 0.08097 0.09594 0.0
H474 H 0.57387 0.07556 0.2212 0.0
H475 H 0.52879 0.07762 0.24359 0.0
H476 H 0.52479 0.15812 0.18125 0.0
H477 H 0.56978 0.15649 0.15766 0.0
C478 C 0.686 0.17472 0.27853 0.0
C479 C 0.69783 0.19049 0.23517 0.0
C480 C 0.66893 0.15556 0.26144 0.0
C481 C 0.6636 0.15164 0.2008 0.0
C482 C 0.67519 0.16752 0.15753 0.0
C483 C 0.69211 0.18667 0.17446 0.0
C484 C 0.64595 0.13107 0.18202 0.0
C485 C 0.62026 0.13173 0.19506 0.0
C486 C 0.6539 0.11201 0.14742 0.0
C487 C 0.68109 0.10945 0.13499 0.0
C488 C 0.68718 0.10983 0.07572 0.0
C489 C 0.71282 0.10776 0.064 0.0
C490 C 0.73253 0.10518 0.11122 0.0
C491 C 0.72664 0.10459 0.17029 0.0
C492 C 0.70104 0.10663 0.18226 0.0
C493 C 0.55389 0.0778 0.02791 0.0
C494 C 0.55553 0.05084 0.03649 0.0
C495 C 0.57132 0.09257 0.06043 0.0
C496 C 0.59084 0.08066 0.1018 0.0
C497 C 0.59257 0.05369 0.11039 0.0
C498 C 0.57488 0.03887 0.07839 0.0
C499 C 0.60979 0.09658 0.13449 0.0
C500 C 0.63569 0.09509 0.1239 0.0
C501 C 0.60209 0.1146 0.17196 0.0
C502 C 0.57518 0.11586 0.18726 0.0
C503 C 0.56334 0.09368 0.21191 0.0
C504 C 0.5378 0.09476 0.22485 0.0
C505 C 0.5239 0.11796 0.21368 0.0
C506 C 0.53557 0.14015 0.18983 0.0
C507 C 0.56112 0.13917 0.17676 0.0
H508 H 0.50411 0.11875 0.22362 0.0
H509 H 0.75236 0.10361 0.10204 0.0
H510 H 0.73427 0.82553 0.85555 0.0
H511 H 0.70542 0.85455 0.89576 0.0
H512 H 0.64547 0.84095 0.75642 0.0
H513 H 0.67512 0.81302 0.71389 0.0
H514 H 0.64096 0.88764 0.77705 0.0
H515 H 0.65149 0.80903 0.90865 0.0
H516 H 0.67569 0.7743 0.97393 0.0
H517 H 0.70627 0.82893 0.09077 0.0
H518 H 0.68262 0.86408 0.02563 0.0
H519 H 0.53627 0.92753 0.91332 0.0
H520 H 0.56726 0.89859 0.8803 0.0
H521 H 0.62673 0.92462 1.00626 0.0
H522 H 0.5952 0.95314 0.0415 0.0
H523 H 0.63207 0.87249 0.99471 0.0
H524 H 0.62064 0.95093 0.85998 0.0
H525 H 0.59099 0.98353 0.80219 0.0
H526 H 0.55878 0.92651 0.69399 0.0
H527 H 0.58799 0.89342 0.75177 0.0
C528 C 0.71506 0.82911 0.83287 0.0
C529 C 0.70693 0.817 0.78159 0.0
C530 C 0.69842 0.8455 0.85635 0.0
C531 C 0.67281 0.84941 0.83064 0.0
C532 C 0.665 0.83819 0.77766 0.0
C533 C 0.68197 0.82228 0.75313 0.0
C534 C 0.65414 0.86463 0.85976 0.0
C535 C 0.63896 0.88403 0.82452 0.0
C536 C 0.65149 0.86044 0.92216 0.0
C537 C 0.66546 0.83925 0.96187 0.0
C538 C 0.66349 0.81367 0.94806 0.0
C539 C 0.67711 0.79391 0.98504 0.0
C540 C 0.69255 0.79942 0.03636 0.0
C541 C 0.69434 0.8247 0.05093 0.0
C542 C 0.68082 0.84455 0.014 0.0
C543 C 0.55587 0.92691 0.93465 0.0
C544 C 0.56335 0.9429 0.97953 0.0
C545 C 0.57363 0.91034 0.91558 0.0
C546 C 0.59957 0.90984 0.93953 0.0
C547 C 0.60688 0.92476 0.98673 0.0
C548 C 0.58887 0.94108 1.0068 0.0
C549 C 0.6191 0.89521 0.91192 0.0
C550 C 0.63435 0.87603 0.94736 0.0
C551 C 0.62169 0.89936 0.84975 0.0
C552 C 0.60637 0.91969 0.81043 0.0
C553 C 0.60734 0.94538 0.82361 0.0
C554 C 0.5905 0.96388 0.7912 0.0
C555 C 0.5728 0.95696 0.74511 0.0
C556 C 0.57236 0.93172 0.73016 0.0
C557 C 0.58912 0.9131 0.76258 0.0
H558 H 0.55962 0.97127 0.72059 0.0
H559 H 0.70309 0.78411 0.06493 0.0
H560 H 0.57157 0.53867 0.84374 0.0
H561 H 0.60453 0.56958 0.81719 0.0
H562 H 0.60103 0.60177 0.98465 0.0
H563 H 0.56927 0.5699 0.01266 0.0
H564 H 0.60206 0.61681 0.79349 0.0
H565 H 0.65518 0.63353 0.02638 0.0
H566 H 0.66885 0.60888 0.12392 0.0
H567 H 0.66799 0.53894 0.03991 0.0
H568 H 0.65475 0.56321 0.94171 0.0
H569 H 0.66528 0.73288 0.75459 0.0
H570 H 0.63941 0.69855 0.79876 0.0
H571 H 0.7077 0.65081 0.84536 0.0
H572 H 0.73382 0.68574 0.80385 0.0
H573 H 0.67729 0.64111 0.92771 0.0
H574 H 0.66641 0.64576 0.71462 0.0
H575 H 0.65706 0.66641 0.61116 0.0
H576 H 0.58037 0.68522 0.64609 0.0
H577 H 0.58938 0.66499 0.75006 0.0
C578 C 0.57816 0.55211 0.8752 0.0
C579 C 0.56795 0.55183 0.93032 0.0
C580 C 0.59695 0.56984 0.85998 0.0
C581 C 0.60556 0.588 0.89903 0.0
C582 C 0.59536 0.58761 0.95429 0.0
C583 C 0.57704 0.56946 0.97015 0.0
C584 C 0.62381 0.60834 0.88006 0.0
C585 C 0.61855 0.62194 0.82297 0.0
C586 C 0.64566 0.61499 0.91785 0.0
C587 C 0.65368 0.60019 0.97673 0.0
C588 C 0.65799 0.6129 0.02867 0.0
C589 C 0.66566 0.59899 0.08409 0.0
C590 C 0.66918 0.57234 0.08815 0.0
C591 C 0.66514 0.55956 0.03674 0.0
C592 C 0.65753 0.57339 0.98119 0.0
C593 C 0.67479 0.7152 0.77516 0.0
C594 C 0.70143 0.71176 0.77516 0.0
C595 C 0.66 0.69553 0.80007 0.0
C596 C 0.67147 0.67176 0.82377 0.0
C597 C 0.69836 0.66887 0.82693 0.0
C598 C 0.71326 0.6888 0.80311 0.0
C599 C 0.65523 0.64956 0.84173 0.0
C600 C 0.66083 0.63575 0.89846 0.0
C601 C 0.63422 0.64201 0.80287 0.0
C602 C 0.62865 0.65406 0.74026 0.0
C603 C 0.6476 0.65444 0.70033 0.0
C604 C 0.64236 0.66605 0.64159 0.0
C605 C 0.61815 0.67717 0.6221 0.0
C606 C 0.59912 0.67663 0.66127 0.0
C607 C 0.60427 0.66508 0.72009 0.0
H608 H 0.61413 0.68615 0.57661 0.0
H609 H 0.6751 0.5616 0.1311 0.0
H610 H 0.71913 0.31842 0.19536 0.0
H611 H 0.6879 0.34996 0.14116 0.0
H612 H 0.62581 0.29937 0.18272 0.0
H613 H 0.65685 0.26804 0.23849 0.0
H614 H 0.62549 0.32981 0.05442 0.0
H615 H 0.63188 0.33599 0.27153 0.0
H616 H 0.65741 0.3396 0.36851 0.0
H617 H 0.69057 0.40936 0.29527 0.0
H618 H 0.66551 0.40589 0.1975 0.0
H619 H 0.51791 0.41137 1.00562 0.0
H620 H 0.5492 0.37868 0.05346 0.0
H621 H 0.60572 0.43759 0.07941 0.0
H622 H 0.57396 0.47045 0.03438 0.0
H623 H 0.61087 0.40313 0.17052 0.0
H624 H 0.60366 0.40126 0.95863 0.0
H625 H 0.58148 0.39899 0.85742 0.0
H626 H 0.55422 0.32378 0.91228 0.0
H627 H 0.57594 0.32575 0.01413 0.0
C628 C 0.69885 0.31388 0.19192 0.0
C629 C 0.69015 0.29116 0.22153 0.0
C630 C 0.68115 0.3318 0.16102 0.0
C631 C 0.65478 0.32682 0.15864 0.0
C632 C 0.6462 0.30332 0.18437 0.0
C633 C 0.66383 0.28562 0.2163 0.0
C634 C 0.63604 0.34723 0.1354 0.0
C635 C 0.622 0.34577 0.07971 0.0
C636 C 0.63237 0.36823 0.16817 0.0
C637 C 0.64708 0.37052 0.22713 0.0
C638 C 0.6448 0.35196 0.27598 0.0
C639 C 0.65914 0.354 0.3311 0.0
C640 C 0.67566 0.37465 0.338 0.0
C641 C 0.6778 0.39335 0.28983 0.0
C642 C 0.66353 0.39136 0.23458 0.0
C643 C 0.53692 0.41727 0.02246 0.0
C644 C 0.54384 0.44317 0.01587 0.0
C645 C 0.55477 0.39866 0.04931 0.0
C646 C 0.57996 0.4057 0.06813 0.0
C647 C 0.58642 0.43179 0.06461 0.0
C648 C 0.56835 0.45049 0.03896 0.0
C649 C 0.5998 0.38578 0.08927 0.0
C650 C 0.61422 0.3873 0.14472 0.0
C651 C 0.60418 0.36512 0.05551 0.0
C652 C 0.59124 0.36376 0.99417 0.0
C653 C 0.5928 0.38431 0.94923 0.0
C654 C 0.58033 0.38307 0.89173 0.0
C655 C 0.5664 0.36128 0.87847 0.0
C656 C 0.56499 0.34066 0.92264 0.0
C657 C 0.5774 0.34182 0.98025 0.0
H658 H 0.55676 0.36036 0.83393 0.0
H659 H 0.68676 0.3762 0.3807 0.0
H660 H 0.94797 0.47545 0.4022 0.0
H661 H 0.91446 0.44862 0.3569 0.0
H662 H 0.93319 0.3883 0.50126 0.0
H663 H 0.96753 0.41416 0.5436 0.0
H664 H 0.92528 0.36687 0.40837 0.0
H665 H 0.87801 0.43329 0.48666 0.0
H666 H 0.86527 0.47805 0.49629 0.0
H667 H 0.8392 0.48938 0.30844 0.0
H668 H 0.85206 0.44479 0.29759 0.0
H669 H 0.81123 0.29518 0.41016 0.0
H670 H 0.84409 0.32649 0.43512 0.0
H671 H 0.83036 0.36551 0.25649 0.0
H672 H 0.79746 0.33405 0.23074 0.0
H673 H 0.83561 0.39902 0.35259 0.0
H674 H 0.87893 0.32784 0.28365 0.0
H675 H 0.88988 0.28194 0.28351 0.0
H676 H 0.92246 0.27868 0.4669 0.0
H677 H 0.911 0.32428 0.46874 0.0
C678 C 0.94499 0.45637 0.42372 0.0
C679 C 0.96041 0.44689 0.47628 0.0
C680 C 0.92566 0.4411 0.3982 0.0
C681 C 0.92086 0.41643 0.42598 0.0
C682 C 0.93641 0.40712 0.4785 0.0
C683 C 0.95605 0.42202 0.50293 0.0
C684 C 0.8999 0.39996 0.40125 0.0
C685 C 0.90566 0.37397 0.39679 0.0
C686 C 0.87427 0.40913 0.38451 0.0
C687 C 0.86626 0.43582 0.39119 0.0
C688 C 0.86969 0.44539 0.44737 0.0
C689 C 0.86244 0.47071 0.45305 0.0
C690 C 0.85153 0.48656 0.40296 0.0
C691 C 0.84771 0.47709 0.34716 0.0
C692 C 0.85496 0.4518 0.34123 0.0
C693 C 0.81498 0.31051 0.3762 0.0
C694 C 0.80175 0.31201 0.31831 0.0
C695 C 0.83384 0.32837 0.39056 0.0
C696 C 0.83976 0.34822 0.34755 0.0
C697 C 0.82606 0.35032 0.29031 0.0
C698 C 0.80737 0.33225 0.27563 0.0
C699 C 0.86103 0.36602 0.36202 0.0
C700 C 0.85532 0.39214 0.36402 0.0
C701 C 0.88661 0.35688 0.37799 0.0
C702 C 0.89387 0.32948 0.37648 0.0
C703 C 0.88819 0.31727 0.32414 0.0
C704 C 0.89447 0.29127 0.32378 0.0
C705 C 0.90672 0.27733 0.37528 0.0
C706 C 0.91282 0.2894 0.42715 0.0
C707 C 0.90643 0.31533 0.42788 0.0
H708 H 0.91156 0.2572 0.37495 0.0
H709 H 0.846 0.50618 0.40734 0.0
H710 H 0.82817 0.68888 0.78612 0.0
H711 H 0.85813 0.65785 0.75499 0.0
H712 H 0.82255 0.67159 0.57317 0.0
H713 H 0.79273 0.70252 0.6036 0.0
H714 H 0.83125 0.62025 0.60613 0.0
H715 H 0.88021 0.69761 0.60838 0.0
H716 H 0.89938 0.73541 0.6511 0.0
H717 H 0.94122 0.68621 0.79347 0.0
H718 H 0.92232 0.64802 0.75123 0.0
H719 H 0.9287 0.56361 0.4584 0.0
H720 H 0.89795 0.59356 0.49053 0.0
H721 H 0.93583 0.58213 0.67066 0.0
H722 H 0.96657 0.55258 0.63915 0.0
H723 H 0.92565 0.63192 0.6394 0.0
H724 H 0.87827 0.55397 0.63213 0.0
H725 H 0.85957 0.51658 0.58633 0.0
H726 H 0.81434 0.56701 0.45237 0.0
H727 H 0.83308 0.60474 0.4968 0.0
C728 C 0.82665 0.68526 0.73955 0.0
C729 C 0.808 0.69837 0.69749 0.0
C730 C 0.84389 0.66756 0.72171 0.0
C731 C 0.84277 0.66243 0.66152 0.0
C732 C 0.82387 0.67514 0.6198 0.0
C733 C 0.80685 0.69297 0.63739 0.0
C734 C 0.86137 0.64407 0.64168 0.0
C735 C 0.85188 0.62297 0.61284 0.0
C736 C 0.88834 0.64721 0.65121 0.0
C737 C 0.89962 0.67002 0.67709 0.0
C738 C 0.89333 0.69487 0.64908 0.0
C739 C 0.90419 0.71637 0.67315 0.0
C740 C 0.92136 0.71326 0.72529 0.0
C741 C 0.92785 0.6886 0.7532 0.0
C742 C 0.91714 0.66702 0.72911 0.0
C743 C 0.9305 0.56747 0.50482 0.0
C744 C 0.95017 0.55552 0.546 0.0
C745 C 0.9128 0.58454 0.52326 0.0
C746 C 0.91434 0.59002 0.58329 0.0
C747 C 0.93413 0.57831 0.62418 0.0
C748 C 0.95172 0.56126 0.60592 0.0
C749 C 0.89557 0.60804 0.60376 0.0
C750 C 0.90503 0.6291 0.63279 0.0
C751 C 0.86858 0.60483 0.5943 0.0
C752 C 0.85727 0.58219 0.56746 0.0
C753 C 0.8645 0.5571 0.59259 0.0
C754 C 0.85387 0.53584 0.56693 0.0
C755 C 0.83581 0.53942 0.51644 0.0
C756 C 0.82835 0.56427 0.49147 0.0
C757 C 0.83896 0.5856 0.51688 0.0
H758 H 0.82752 0.52294 0.49683 0.0
H759 H 0.92972 0.72995 0.74391 0.0
H760 H 0.28086 0.32175 0.16773 0.0
H761 H 0.307 0.35396 0.11614 0.0
H762 H 0.37592 0.31094 0.18944 0.0
H763 H 0.3499 0.27935 0.2426 0.0
H764 H 0.38363 0.35722 0.20527 0.0
H765 H 0.35553 0.31704 0.02976 0.0
H766 H 0.32612 0.29913 0.95258 0.0
H767 H 0.28432 0.37099 0.91738 0.0
H768 H 0.31403 0.38953 0.99342 0.0
H769 H 0.44291 0.43198 0.93601 0.0
H770 H 0.4134 0.39909 0.97225 0.0
H771 H 0.4031 0.44113 0.12287 0.0
H772 H 0.43382 0.47304 0.0887 0.0
H773 H 0.36697 0.39417 0.99305 0.0
H774 H 0.39554 0.40254 0.24579 0.0
H775 H 0.43289 0.41558 0.3115 0.0
H776 H 0.48365 0.39685 0.18415 0.0
H777 H 0.44666 0.38338 0.11811 0.0
C778 C 0.30157 0.31911 0.17227 0.0
C779 C 0.31341 0.29822 0.20958 0.0
C780 C 0.31652 0.33742 0.14242 0.0
C781 C 0.34353 0.33493 0.14859 0.0
C782 C 0.35518 0.31348 0.18421 0.0
C783 C 0.3403 0.29539 0.21454 0.0
C784 C 0.35977 0.35551 0.12184 0.0
C785 C 0.37995 0.36522 0.15879 0.0
C786 C 0.35546 0.36581 0.06103 0.0
C787 C 0.33675 0.35452 0.01767 0.0
C788 C 0.33991 0.32892 1.00594 0.0
C789 C 0.32328 0.31872 0.96214 0.0
C790 C 0.30319 0.33384 0.93041 0.0
C791 C 0.29983 0.35927 0.94212 0.0
C792 C 0.31666 0.36969 0.98527 0.0
C793 C 0.4341 0.43426 0.9765 0.0
C794 C 0.44081 0.45482 0.00998 0.0
C795 C 0.41722 0.41549 0.99721 0.0
C796 C 0.40644 0.41722 0.05119 0.0
C797 C 0.41177 0.43884 0.08221 0.0
C798 C 0.42918 0.45718 0.06246 0.0
C799 C 0.39073 0.39587 0.07651 0.0
C800 C 0.37059 0.38616 0.03952 0.0
C801 C 0.39585 0.38472 0.13667 0.0
C802 C 0.41829 0.3922 0.17678 0.0
C803 C 0.41469 0.40108 0.23199 0.0
C804 C 0.43579 0.40857 0.26925 0.0
C805 C 0.46061 0.40713 0.25192 0.0
C806 C 0.46441 0.39804 0.19744 0.0
C807 C 0.44338 0.39048 0.16007 0.0
H808 H 0.47691 0.413 0.28076 0.0
H809 H 0.29032 0.32591 0.89652 0.0
H810 H 0.47938 0.59638 0.94499 0.0
H811 H 0.44103 0.62417 0.93171 0.0
H812 H 0.39309 0.55832 0.90713 0.0
H813 H 0.43148 0.5306 0.91802 0.0
H814 H 0.37328 0.59927 0.83903 0.0
H815 H 0.40334 0.57935 0.04387 0.0
H816 H 0.43511 0.57413 0.13327 0.0
H817 H 0.44866 0.65534 0.11496 0.0
H818 H 0.4173 0.66101 0.02476 0.0
H819 H 0.2689 0.67932 0.87996 0.0
H820 H 0.29882 0.64379 0.91917 0.0
H821 H 0.36294 0.69457 0.89983 0.0
H822 H 0.33324 0.72989 0.85927 0.0
H823 H 0.36824 0.65407 1.0044 0.0
H824 H 0.34472 0.66885 0.78439 0.0
H825 H 0.31183 0.67301 0.69694 0.0
H826 H 0.28362 0.59814 0.75142 0.0
H827 H 0.31612 0.59377 0.83977 0.0
C828 C 0.46069 0.58802 0.93509 0.0
C829 C 0.4582 0.56145 0.93341 0.0
C830 C 0.43884 0.60378 0.92813 0.0
C831 C 0.4143 0.59304 0.92075 0.0
C832 C 0.4119 0.56683 0.9137 0.0
C833 C 0.43381 0.55109 0.91971 0.0
C834 C 0.39131 0.60901 0.92391 0.0
C835 C 0.37191 0.6108 0.87582 0.0
C836 C 0.38941 0.62378 0.97244 0.0
C837 C 0.40804 0.62058 0.02728 0.0
C838 C 0.41319 0.59609 0.05868 0.0
C839 C 0.43113 0.59304 0.10952 0.0
C840 C 0.44391 0.61439 0.12974 0.0
C841 C 0.43874 0.63882 0.09923 0.0
C842 C 0.42086 0.64197 0.04827 0.0
C843 C 0.28935 0.683 0.88586 0.0
C844 C 0.29903 0.70699 0.86574 0.0
C845 C 0.30631 0.6628 0.90838 0.0
C846 C 0.33291 0.66673 0.91174 0.0
C847 C 0.3424 0.69137 0.89756 0.0
C848 C 0.32551 0.71139 0.87404 0.0
C849 C 0.35095 0.64482 0.91875 0.0
C850 C 0.36938 0.64191 0.96867 0.0
C851 C 0.35173 0.62867 0.87258 0.0
C852 C 0.33261 0.6311 0.81889 0.0
C853 C 0.33138 0.65337 0.77788 0.0
C854 C 0.31283 0.65576 0.72817 0.0
C855 C 0.29559 0.63588 0.71871 0.0
C856 C 0.29693 0.61354 0.75886 0.0
C857 C 0.31541 0.6111 0.80875 0.0
H858 H 0.28125 0.63777 0.68018 0.0
H859 H 0.4578 0.61199 0.1691 0.0
H860 H 0.18838 0.67095 0.85394 0.0
H861 H 0.15932 0.63767 0.81869 0.0
H862 H 0.16156 0.67112 0.63637 0.0
H863 H 0.19063 0.70388 0.67062 0.0
H864 H 0.11162 0.63954 0.75713 0.0
H865 H 0.16099 0.6261 0.54374 0.0
H866 H 0.20446 0.62868 0.51045 0.0
H867 H 0.23806 0.61184 0.69243 0.0
H868 H 0.19482 0.60873 0.7267 0.0
H869 H 0.03139 0.59092 0.52097 0.0
H870 H 0.06187 0.61522 0.58255 0.0
H871 H 0.10659 0.54594 0.64115 0.0
H872 H 0.07584 0.52141 0.58046 0.0
H873 H 0.13566 0.58854 0.59749 0.0
H874 H 0.07614 0.56713 0.73919 0.0
H875 H 0.03339 0.56278 0.77576 0.0
H876 H 0.02184 0.64464 0.74592 0.0
H877 H 0.06436 0.64949 0.70818 0.0
C878 C 0.18273 0.67115 0.80635 0.0
C879 C 0.19206 0.69002 0.7652 0.0
C880 C 0.16604 0.65217 0.7863 0.0
C881 C 0.15852 0.65166 0.72481 0.0
C882 C 0.16745 0.67077 0.68393 0.0
C883 C 0.18409 0.6896 0.70377 0.0
C884 C 0.14143 0.63127 0.70253 0.0
C885 C 0.11694 0.62827 0.72254 0.0
C886 C 0.14852 0.61612 0.65822 0.0
C887 C 0.17464 0.61731 0.6378 0.0
C888 C 0.17765 0.62274 0.5766 0.0
C889 C 0.20226 0.62434 0.55757 0.0
C890 C 0.22402 0.62051 0.59931 0.0
C891 C 0.22121 0.6149 0.66015 0.0
C892 C 0.19665 0.61322 0.6794 0.0
C893 C 0.04763 0.58087 0.54732 0.0
C894 C 0.05135 0.55435 0.54586 0.0
C895 C 0.06494 0.59472 0.58262 0.0
C896 C 0.08644 0.58235 0.61648 0.0
C897 C 0.09011 0.55581 0.61537 0.0
C898 C 0.07254 0.54185 0.58083 0.0
C899 C 0.10562 0.59751 0.65062 0.0
C900 C 0.13048 0.59957 0.63265 0.0
C901 C 0.09897 0.61144 0.69735 0.0
C902 C 0.07341 0.60866 0.72041 0.0
C903 C 0.06442 0.58421 0.73994 0.0
C904 C 0.04023 0.58164 0.76098 0.0
C905 C 0.0249 0.60342 0.7631 0.0
C906 C 0.03374 0.6278 0.74424 0.0
C907 C 0.0579 0.63046 0.72308 0.0
H908 H 0.00621 0.60142 0.77948 0.0
H909 H 0.24306 0.62184 0.58452 0.0
H910 H 0.18665 0.32259 0.20103 0.0
H911 H 0.15594 0.35211 0.23496 0.0
H912 H 0.19645 0.34195 0.41271 0.0
H913 H 0.22643 0.31208 0.37974 0.0
H914 H 0.14815 0.33872 0.42279 0.0
H915 H 0.19876 0.39911 0.30903 0.0
H916 H 0.21802 0.41803 0.21957 0.0
H917 H 0.14281 0.42903 0.12283 0.0
H918 H 0.12317 0.40966 0.21132 0.0
H919 H 0.08632 0.44081 0.54513 0.0
H920 H 0.11773 0.41259 0.50938 0.0
H921 H 0.07587 0.42182 0.33313 0.0
H922 H 0.04499 0.45014 0.36779 0.0
H923 H 0.12451 0.42563 0.32164 0.0
H924 H 0.07368 0.36569 0.4328 0.0
H925 H 0.05346 0.347 0.52102 0.0
H926 H 0.1279 0.33483 0.62086 0.0
H927 H 0.14856 0.35378 0.53343 0.0
C928 C 0.18915 0.3269 0.24713 0.0
C929 C 0.20903 0.31487 0.28753 0.0
C930 C 0.17158 0.34386 0.26658 0.0
C931 C 0.17381 0.34954 0.32659 0.0
C932 C 0.19405 0.33792 0.36638 0.0
C933 C 0.21131 0.32082 0.34726 0.0
C934 C 0.15477 0.36674 0.34908 0.0
C935 C 0.14332 0.35787 0.40099 0.0
C936 C 0.14767 0.39152 0.3201 0.0
C937 C 0.15952 0.40278 0.26665 0.0
C938 C 0.18636 0.40535 0.2685 0.0
C939 C 0.19734 0.41617 0.21798 0.0
C940 C 0.18166 0.42467 0.1655 0.0
C941 C 0.15495 0.42239 0.16344 0.0
C942 C 0.14389 0.4115 0.21376 0.0
C943 C 0.08375 0.43671 0.49888 0.0
C944 C 0.063 0.44782 0.45961 0.0
C945 C 0.10171 0.42049 0.47842 0.0
C946 C 0.09918 0.4148 0.41843 0.0
C947 C 0.07843 0.42586 0.37945 0.0
C948 C 0.06064 0.44207 0.39966 0.0
C949 C 0.11811 0.39766 0.39552 0.0
C950 C 0.12944 0.4065 0.34348 0.0
C951 C 0.125 0.37281 0.42417 0.0
C952 C 0.11264 0.36141 0.47678 0.0
C953 C 0.08572 0.35922 0.47372 0.0
C954 C 0.07419 0.34854 0.52356 0.0
C955 C 0.08938 0.3398 0.57657 0.0
C956 C 0.11615 0.34165 0.57981 0.0
C957 C 0.12779 0.35234 0.53012 0.0
H958 H 0.08041 0.33154 0.6151 0.0
H959 H 0.19019 0.43308 0.12648 0.0
H960 H 0.01661 0.96245 0.75631 0.0
H961 H 0.01248 0.96125 0.86391 0.0
H962 H 0.02735 0.04254 0.85559 0.0
H963 H 0.03177 0.04371 0.74856 0.0
H964 H 0.05227 0.0158 0.95628 0.0
H965 H 0.96639 0.02111 0.85098 0.0
H966 H 0.93119 0.0062 0.782 0.0
H967 H 0.93071 0.93403 0.89187 0.0
H968 H 0.96617 0.94839 0.96109 0.0
H969 H 0.00445 0.04593 0.22446 0.0
H970 H 0.01141 0.04482 0.11894 0.0
H971 H 0.98964 0.96513 0.12964 0.0
H972 H 0.98255 0.96624 0.23469 0.0
H973 H 0.96882 0.98942 0.0279 0.0
H974 H 0.05248 0.98241 0.13408 0.0
H975 H 0.09153 0.99243 0.1981 0.0
H976 H 0.09912 0.06319 0.0868 0.0
H977 H 0.05981 0.05386 0.02271 0.0
C978 C 0.01951 0.9799 0.77784 0.0
C979 C 0.02457 0.00314 0.7443 0.0
C980 C 0.0169 0.97927 0.8391 0.0
C981 C 0.01924 0.0019 0.86761 0.0
C982 C 0.0254 0.02487 0.83454 0.0
C983 C 0.02791 0.02552 0.77341 0.0
C984 C 0.01439 0.00206 0.93127 0.0
C985 C 0.03392 0.01039 0.97191 0.0
C986 C 0.99071 0.99418 0.9519 0.0
C987 C 0.96908 0.98573 0.91089 0.0
C988 C 0.95888 0.002 0.86023 0.0
C989 C 0.93887 0.99366 0.82111 0.0
C990 C 0.92876 0.96916 0.83246 0.0
C991 C 0.93858 0.95299 0.88309 0.0
C992 C 0.95861 0.96123 0.92231 0.0
C993 C 1.00079 0.02832 0.20394 0.0
C994 C 0.99285 0.00619 0.23764 0.0
C995 C 0.00503 0.02761 0.14385 0.0
C996 C 1.00139 0.00478 0.11645 0.0
C997 C 0.99263 0.98295 0.14969 0.0
C998 C 0.98854 0.98361 0.20972 0.0
C999 C 0.00668 0.00351 0.05325 0.0
C1000 C 0.98719 0.99495 0.01255 0.0
C1001 C 0.03057 0.01089 0.03274 0.0
C1002 C 0.05302 0.01754 0.07389 0.0
C1003 C 0.0622 1.00032 0.1238 0.0
C1004 C 0.08448 0.0058 0.15989 0.0
C1005 C 0.09789 0.02833 0.14622 0.0
C1006 C 0.08881 0.04565 0.09705 0.0
C1007 C 0.06648 0.04032 0.06096 0.0
H1008 H 0.11525 0.03244 0.17394 0.0
H1009 H 0.9133 0.96272 0.80208 0.0
H1010 H 0.21275 0.77711 0.54488 0.0
H1011 H 0.2106 0.77265 0.43741 0.0
H1012 H 0.28822 0.74189 0.46227 0.0
H1013 H 0.29043 0.74652 0.56948 0.0
H1014 H 0.27964 0.77506 0.36005 0.0
H1015 H 0.23927 0.70221 0.45457 0.0
H1016 H 0.20901 0.68031 0.51891 0.0
H1017 H 0.14511 0.71516 0.40269 0.0
H1018 H 0.17504 0.73783 0.33841 0.0
H1019 H 0.2752 0.7212 0.0838 0.0
H1020 H 0.27862 0.7239 0.19213 0.0
H1021 H 0.20134 0.75529 0.1746 0.0
H1022 H 0.19776 0.7524 0.06661 0.0
H1023 H 0.21071 0.72064 0.27402 0.0
H1024 H 0.25216 0.7945 0.18125 0.0
H1025 H 0.28314 0.81626 0.11851 0.0
H1026 H 0.34592 0.77813 0.23258 0.0
H1027 H 0.31527 0.75583 0.2955 0.0
C1028 C 0.22945 0.76986 0.52704 0.0
C1029 C 0.25171 0.76218 0.56518 0.0
C1030 C 0.22818 0.76715 0.46588 0.0
C1031 C 0.24916 0.75665 0.44204 0.0
C1032 C 0.27182 0.75 0.47976 0.0
C1033 C 0.27303 0.75261 0.54093 0.0
C1034 C 0.2471 0.75154 0.37838 0.0
C1035 C 0.26478 0.76292 0.34138 0.0
C1036 C 0.22752 0.73588 0.35401 0.0
C1037 C 0.20942 0.72191 0.39194 0.0
C1038 C 0.21877 0.70536 0.44294 0.0
C1039 C 0.20168 0.69278 0.47939 0.0
C1040 C 0.17515 0.69631 0.4649 0.0
C1041 C 0.16567 0.71244 0.41388 0.0
C1042 C 0.18269 0.72518 0.37743 0.0
C1043 C 0.25884 0.72833 0.10329 0.0
C1044 C 0.23627 0.73672 0.06696 0.0
C1045 C 0.26085 0.72998 0.16503 0.0
C1046 C 0.24035 0.74014 0.19125 0.0
C1047 C 0.21739 0.74744 0.15529 0.0
C1048 C 0.21539 0.74583 0.09363 0.0
C1049 C 0.24314 0.74433 0.25555 0.0
C1050 C 0.22561 0.73274 0.29272 0.0
C1051 C 0.26294 0.75968 0.28017 0.0
C1052 C 0.2814 0.7733 0.24274 0.0
C1053 C 0.27256 0.79061 0.19271 0.0
C1054 C 0.29006 0.80306 0.15715 0.0
C1055 C 0.31648 0.79853 0.17147 0.0
C1056 C 0.32545 0.78159 0.22149 0.0
C1057 C 0.30803 0.76905 0.25714 0.0
H1058 H 0.33 0.80819 0.14388 0.0
H1059 H 0.16195 0.68653 0.49317 0.0
H1060 H 0.50663 0.96501 0.76599 0.0
H1061 H 0.51211 0.96399 0.65971 0.0
H1062 H 0.49098 0.04436 0.62519 0.0
H1063 H 0.48626 0.04573 0.73204 0.0
H1064 H 0.46442 0.00636 0.5462 0.0
H1065 H 0.54589 0.03639 0.62377 0.0
H1066 H 0.58749 0.03753 0.68565 0.0
H1067 H 0.6111 0.96709 0.62412 0.0
H1068 H 0.56921 0.96496 0.56356 0.0
H1069 H 0.50492 0.03466 0.25041 0.0
H1070 H 0.49949 0.03662 0.35641 0.0
H1071 H 0.5253 0.95766 0.39634 0.0
H1072 H 0.53014 0.95538 0.28987 0.0
H1073 H 0.54954 0.9955 0.47258 0.0
H1074 H 0.46815 0.96583 0.39391 0.0
H1075 H 0.42673 0.96505 0.33116 0.0
H1076 H 0.40296 0.03508 0.39429 0.0
H1077 H 0.44468 0.03688 0.4557 0.0
C1078 C 0.50298 0.98243 0.73567 0.0
C1079 C 0.49589 0.00544 0.75707 0.0
C1080 C 0.50631 0.98185 0.67514 0.0
C1081 C 0.50223 0.00416 0.63489 0.0
C1082 C 0.49442 0.027 0.65579 0.0
C1083 C 0.49164 0.02774 0.71662 0.0
C1084 C 0.50529 0.00334 0.57059 0.0
C1085 C 0.48304 0.00439 0.52979 0.0
C1086 C 0.52962 1.00004 0.54992 0.0
C1087 C 0.55411 1.00028 0.58983 0.0
C1088 C 0.55964 0.02079 0.62449 0.0
C1089 C 0.58338 0.02171 0.65907 0.0
C1090 C 0.60195 0.00244 0.65872 0.0
C1091 C 0.59674 0.98208 0.62415 0.0
C1092 C 0.57292 0.98092 0.59 0.0
C1093 C 0.50965 0.01779 0.2819 0.0
C1094 C 0.51815 0.99491 0.26218 0.0
C1095 C 0.50631 0.01887 0.34225 0.0
C1096 C 0.51175 0.99721 0.38398 0.0
C1097 C 0.52086 0.97453 0.36464 0.0
C1098 C 0.52369 0.97327 0.30402 0.0
C1099 C 0.50867 0.9985 0.44813 0.0
C1100 C 0.53091 0.99751 0.48894 0.0
C1101 C 0.48433 0.00189 0.46876 0.0
C1102 C 0.45984 1.00172 0.42877 0.0
C1103 C 0.45439 0.98142 0.39343 0.0
C1104 C 0.43076 0.98071 0.3583 0.0
C1105 C 0.41221 0.99998 0.3588 0.0
C1106 C 0.41731 0.02011 0.39412 0.0
C1107 C 0.44103 0.02107 0.42879 0.0
H1108 H 0.3939 0.99936 0.3317 0.0
H1109 H 0.62034 0.00322 0.6854 0.0
H1110 H 0.20994 0.25395 0.97313 0.0
H1111 H 0.21409 0.24934 0.86748 0.0
H1112 H 0.29288 0.27371 0.89091 0.0
H1113 H 0.28874 0.27833 0.99654 0.0
H1114 H 0.26708 0.29631 0.78537 0.0
H1115 H 0.28005 0.21226 0.8901 0.0
H1116 H 0.26963 0.174 0.95614 0.0
H1117 H 0.2019 0.16251 0.83732 0.0
H1118 H 0.21181 0.20092 0.77093 0.0
H1119 H 0.30845 0.2567 0.51956 0.0
H1120 H 0.30444 0.26076 0.62538 0.0
H1121 H 0.22732 0.23156 0.60463 0.0
H1122 H 0.2316 0.22682 0.4992 0.0
H1123 H 0.25211 0.2115 0.70909 0.0
H1124 H 0.2384 0.29596 0.6052 0.0
H1125 H 0.24877 0.33424 0.53907 0.0
H1126 H 0.31716 0.34521 0.65619 0.0
H1127 H 0.30739 0.30675 0.72261 0.0
C1128 C 0.22803 0.25865 0.95549 0.0
C1129 C 0.24897 0.2668 0.99282 0.0
C1130 C 0.23043 0.25588 0.89522 0.0
C1131 C 0.25386 0.26108 0.87122 0.0
C1132 C 0.27459 0.26977 0.90823 0.0
C1133 C 0.27219 0.27249 0.96846 0.0
C1134 C 0.257 0.25691 0.80804 0.0
C1135 C 0.26409 0.27769 0.76888 0.0
C1136 C 0.25262 0.23274 0.78607 0.0
C1137 C 0.24656 0.20963 0.82587 0.0
C1138 C 0.26285 0.20169 0.87831 0.0
C1139 C 0.25705 0.17995 0.91576 0.0
C1140 C 0.23507 0.16587 0.90102 0.0
C1141 C 0.2189 0.17346 0.84872 0.0
C1142 C 0.22461 0.19521 0.81114 0.0
C1143 C 0.29079 0.2508 0.53784 0.0
C1144 C 0.27035 0.24135 0.5012 0.0
C1145 C 0.28843 0.2533 0.59824 0.0
C1146 C 0.26543 0.24675 0.62303 0.0
C1147 C 0.24528 0.23663 0.58677 0.0
C1148 C 0.24773 0.23393 0.52652 0.0
C1149 C 0.26215 0.25093 0.68625 0.0
C1150 C 0.25504 0.23014 0.72547 0.0
C1151 C 0.26643 0.27513 0.70826 0.0
C1152 C 0.27231 0.29831 0.66853 0.0
C1153 C 0.25576 0.30641 0.6166 0.0
C1154 C 0.26151 0.32816 0.57911 0.0
C1155 C 0.28365 0.3421 0.59333 0.0
C1156 C 0.30004 0.33436 0.64518 0.0
C1157 C 0.2944 0.3126 0.68278 0.0
H1158 H 0.28807 0.35894 0.56426 0.0
H1159 H 0.2306 0.14903 0.93005 0.0
H1160 H 0.77673 0.22052 0.03498 0.0
H1161 H 0.77367 0.21866 0.92709 0.0
H1162 H 0.73818 0.29429 0.8978 0.0
H1163 H 0.7405 0.29588 1.0065 0.0
H1164 H 0.71255 0.26206 0.83121 0.0
H1165 H 0.80135 0.28393 0.87104 0.0
H1166 H 0.84546 0.27935 0.9223 0.0
H1167 H 0.85234 0.2041 0.86529 0.0
H1168 H 0.80814 0.20808 0.81436 0.0
H1169 H 0.7228 0.28286 0.52088 0.0
H1170 H 0.72609 0.28467 0.62881 0.0
H1171 H 0.76099 0.20877 0.65759 0.0
H1172 H 0.75842 0.20721 0.54883 0.0
H1173 H 0.78692 0.24105 0.72437 0.0
H1174 H 0.69808 0.21925 0.68445 0.0
H1175 H 0.65407 0.22402 0.6327 0.0
H1176 H 0.64736 0.29931 0.68958 0.0
H1177 H 0.69147 0.29514 0.74102 0.0
C1178 C 0.76849 0.23686 1.00553 0.0
C1179 C 0.7589 0.25839 0.02875 0.0
C1180 C 0.76686 0.23581 0.94391 0.0
C1181 C 0.75603 0.25648 0.90447 0.0
C1182 C 0.74668 0.27818 0.92761 0.0
C1183 C 0.74808 0.27912 0.98947 0.0
C1184 C 0.75347 0.25484 0.83919 0.0
C1185 C 0.72887 0.25787 0.80761 0.0
C1186 C 0.77468 0.2486 0.80896 0.0
C1187 C 0.80134 0.24623 0.83931 0.0
C1188 C 0.8122 0.26633 0.8698 0.0
C1189 C 0.83723 0.26385 0.89873 0.0
C1190 C 0.85167 0.24143 0.89717 0.0
C1191 C 0.84113 0.22145 0.86651 0.0
C1192 C 0.8161 0.22382 0.83754 0.0
C1193 C 0.73097 0.26646 0.55023 0.0
C1194 C 0.74028 0.24484 0.52686 0.0
C1195 C 0.73273 0.26748 0.61185 0.0
C1196 C 0.74344 0.24671 0.65115 0.0
C1197 C 0.75258 0.22495 0.62787 0.0
C1198 C 0.75102 0.22402 0.566 0.0
C1199 C 0.74601 0.24828 0.71643 0.0
C1200 C 0.77061 0.24522 0.748 0.0
C1201 C 0.72481 0.25451 0.74665 0.0
C1202 C 0.69817 0.25695 0.7162 0.0
C1203 C 0.68728 0.23689 0.6856 0.0
C1204 C 0.66231 0.23948 0.65637 0.0
C1205 C 0.64795 0.26197 0.65775 0.0
C1206 C 0.65851 0.28191 0.68852 0.0
C1207 C 0.68349 0.27943 0.71778 0.0
H1208 H 0.62862 0.26395 0.63506 0.0
H1209 H 0.87104 0.23954 0.91961 0.0
H1210 H 0.77118 0.79074 0.47481 0.0
H1211 H 0.77432 0.78576 0.36925 0.0
H1212 H 0.70783 0.73704 0.36681 0.0
H1213 H 0.70554 0.74101 0.47311 0.0
H1214 H 0.7404 0.71586 0.31314 0.0
H1215 H 0.70776 0.80171 0.29326 0.0
H1216 H 0.70509 0.84714 0.31243 0.0
H1217 H 0.77964 0.86041 0.25234 0.0
H1218 H 0.78291 0.81496 0.2335 0.0
H1219 H 0.72186 0.72477 0.98856 0.0
H1220 H 0.7166 0.72928 0.09374 0.0
H1221 H 0.7949 0.75469 0.12126 0.0
H1222 H 0.80048 0.74964 0.01656 0.0
H1223 H 0.75468 0.78777 0.15917 0.0
H1224 H 0.78489 0.69892 0.18052 0.0
H1225 H 0.78302 0.6541 0.15592 0.0
H1226 H 0.70632 0.64792 0.20749 0.0
H1227 H 0.70763 0.69284 0.23176 0.0
C1228 C 0.75703 0.77929 0.45142 0.0
C1229 C 0.73805 0.76635 0.48208 0.0
C1230 C 0.75875 0.7765 0.39087 0.0
C1231 C 0.74114 0.76121 0.35927 0.0
C1232 C 0.72175 0.74886 0.3898 0.0
C1233 C 0.72032 0.75127 0.45056 0.0
C1234 C 0.74367 0.75703 0.29553 0.0
C1235 C 0.74314 0.73173 0.27952 0.0
C1236 C 0.7475 0.77753 0.25106 0.0
C1237 C 0.74569 0.80485 0.26257 0.0
C1238 C 0.72368 0.81426 0.2846 0.0
C1239 C 0.72204 0.84003 0.29531 0.0
C1240 C 0.74222 0.85663 0.28377 0.0
C1241 C 0.76405 0.84751 0.26134 0.0
C1242 C 0.76579 0.82176 0.25058 0.0
C1243 C 0.73811 0.73082 0.01739 0.0
C1244 C 0.76165 0.73665 0.99452 0.0
C1245 C 0.73504 0.73348 0.07734 0.0
C1246 C 0.75533 0.74241 0.11521 0.0
C1247 C 0.77899 0.74784 0.09272 0.0
C1248 C 0.78221 0.74474 0.03307 0.0
C1249 C 0.75168 0.74679 0.17779 0.0
C1250 C 0.75191 0.77208 0.19324 0.0
C1251 C 0.74695 0.72639 0.2213 0.0
C1252 C 0.74627 0.69931 0.20739 0.0
C1253 C 0.76756 0.68807 0.18618 0.0
C1254 C 0.76661 0.66263 0.17241 0.0
C1255 C 0.74454 0.64819 0.17999 0.0
C1256 C 0.72339 0.65914 0.20159 0.0
C1257 C 0.72424 0.68457 0.21544 0.0
H1258 H 0.74384 0.62851 0.16925 0.0
H1259 H 0.74091 0.87657 0.29209 0.0
H1260 H 0.47281 0.53351 0.69753 0.0
H1261 H 0.47558 0.53573 0.58932 0.0
H1262 H 0.51583 0.46249 0.61443 0.0
H1263 H 0.51344 0.4604 0.72228 0.0
H1264 H 0.54015 0.49704 0.54586 0.0
H1265 H 0.45352 0.4678 0.55268 0.0
H1266 H 0.4089 0.46891 0.57878 0.0
H1267 H 0.39634 0.54279 0.47678 0.0
H1268 H 0.44102 0.54227 0.45072 0.0
H1269 H 0.53296 0.47286 0.23924 0.0
H1270 H 0.5294 0.47058 0.34711 0.0
H1271 H 0.49079 0.54468 0.32138 0.0
H1272 H 0.49408 0.54692 0.21376 0.0
H1273 H 0.46555 0.50987 0.39003 0.0
H1274 H 0.55237 0.53891 0.38333 0.0
H1275 H 0.59698 0.53752 0.35723 0.0
H1276 H 0.60912 0.46358 0.45913 0.0
H1277 H 0.56445 0.46437 0.48519 0.0
C1278 C 0.48196 0.5178 0.6797 0.0
C1279 C 0.49292 0.49681 0.718 0.0
C1280 C 0.4835 0.51904 0.61802 0.0
C1281 C 0.49585 0.49922 0.59389 0.0
C1282 C 0.50631 0.47802 0.63215 0.0
C1283 C 0.50482 0.47681 0.69366 0.0
C1284 C 0.49886 0.50096 0.52912 0.0
C1285 C 0.52381 0.4995 0.51177 0.0
C1286 C 0.47759 0.50477 0.48476 0.0
C1287 C 0.4507 0.50511 0.50026 0.0
C1288 C 0.44131 0.48438 0.53622 0.0
C1289 C 0.41599 0.48488 0.55093 0.0
C1290 C 0.39982 0.50594 0.52959 0.0
C1291 C 0.4089 0.52651 0.49335 0.0
C1292 C 0.43421 0.52611 0.47855 0.0
C1293 C 0.524 0.48875 0.25684 0.0
C1294 C 0.51386 0.51008 0.21845 0.0
C1295 C 0.52198 0.48745 0.31832 0.0
C1296 C 0.50992 0.50753 0.34217 0.0
C1297 C 0.50012 0.52898 0.30383 0.0
C1298 C 0.50213 0.53028 0.24249 0.0
C1299 C 0.50683 0.5059 0.40685 0.0
C1300 C 0.48188 0.50741 0.42416 0.0
C1301 C 0.5281 0.50208 0.4512 0.0
C1302 C 0.55498 0.50159 0.4357 0.0
C1303 C 0.56449 0.52226 0.39976 0.0
C1304 C 0.58979 0.5216 0.38506 0.0
C1305 C 0.60585 0.50045 0.40637 0.0
C1306 C 0.59665 0.47994 0.44258 0.0
C1307 C 0.57134 0.48049 0.45738 0.0
H1308 H 0.62544 0.49997 0.39494 0.0
H1309 H 0.38022 0.50629 0.54102 0.0
H1310 H 0.98428 0.46833 0.76674 0.0
H1311 H 0.98173 0.4748 0.87164 0.0
H1312 H 0.05218 0.51741 0.87384 0.0
H1313 H 0.05466 0.51127 0.76797 0.0
H1314 H 0.04829 0.48109 0.97954 0.0
H1315 H 1.00084 0.5504 0.86143 0.0
H1316 H 0.96892 0.56947 0.78038 0.0
H1317 H 0.90844 0.52935 0.86391 0.0
H1318 H 0.94009 0.50952 0.94478 0.0
H1319 H 0.03533 0.5369 0.24766 0.0
H1320 H 0.03938 0.53245 0.14233 0.0
H1321 H 0.96632 0.49439 0.12742 0.0
H1322 H 0.96221 0.49875 0.23345 0.0
H1323 H 0.97242 0.52941 0.02741 0.0
H1324 H 0.01987 0.45974 0.14473 0.0
H1325 H 0.05174 0.44002 0.22504 0.0
H1326 H 0.11239 0.48032 0.14259 0.0
H1327 H 0.08078 0.50078 0.06241 0.0
C1328 C 0.99942 0.47883 0.78966 0.0
C1329 C 0.0197 0.48925 0.75907 0.0
C1330 C 0.99788 0.48258 0.84963 0.0
C1331 C 0.01666 0.49673 0.88061 0.0
C1332 C 0.0375 0.50638 0.8509 0.0
C1333 C 0.0389 0.50286 0.79046 0.0
C1334 C 0.01373 0.50217 0.94312 0.0
C1335 C 0.03194 0.49201 0.98996 0.0
C1336 C 0.99208 0.51595 0.95687 0.0
C1337 C 0.9729 0.52826 0.90893 0.0
C1338 C 0.98077 0.54546 0.8623 0.0
C1339 C 0.96273 0.55644 0.8164 0.0
C1340 C 0.93669 0.55061 0.81696 0.0
C1341 C 0.92863 0.53383 0.86351 0.0
C1342 C 0.94662 0.52271 0.9094 0.0
C1343 C 0.01995 0.52783 0.22186 0.0
C1344 C 0.99845 0.51813 0.24896 0.0
C1345 C 0.02236 0.5252 0.16162 0.0
C1346 C 0.00333 0.5128 0.12693 0.0
C1347 C 0.9813 0.50399 0.15322 0.0
C1348 C 0.97896 0.50648 0.2138 0.0
C1349 C 0.00697 0.50828 0.06407 0.0
C1350 C 0.98885 0.5186 0.01709 0.0
C1351 C 0.02874 0.49464 0.05022 0.0
C1352 C 0.04788 0.48207 0.09791 0.0
C1353 C 0.03996 0.4646 0.14398 0.0
C1354 C 0.05799 0.45327 0.18947 0.0
C1355 C 0.08405 0.45902 0.18908 0.0
C1356 C 0.09217 0.47597 0.14295 0.0
C1357 C 0.0742 0.48746 0.09747 0.0
H1358 H 0.09795 0.45032 0.22448 0.0
H1359 H 0.92274 0.55912 0.78137 0.0
loop_
_geom_bond_atom_site_label_1
_geom_bond_atom_site_label_2
_geom_bond_distance
_geom_bond_site_symmetry_2
_ccdc_geom_bond_type
Dy0 O4 2.398 1_655 S
Dy0 O5 2.491 1_565 S
Dy0 O6 2.403 1_655 S
Dy0 O7 2.664 1_655 S
Dy0 O11 2.326 1_665 S
Dy0 O15 2.310 1_565 S
Dy0 O16 2.351 . S
C1 O12 1.147 1_565 S
C1 O13 1.387 1_655 S
C2 O4 1.185 1_545 S
C2 O5 1.355 1_455 S
Dy3 O7 2.310 1_545 S
Dy3 O10 2.351 . S
Dy3 O12 2.398 1_455 S
Dy3 O13 2.491 1_545 S
Dy3 O14 2.403 1_455 S
Dy3 O15 2.664 1_455 S
Dy3 O17 2.326 1_445 S
O4 Dy0 2.398 1_455 S
O4 C2 1.185 1_565 S
O5 Dy0 2.491 1_545 S
O5 C2 1.355 1_655 S
O6 Dy0 2.403 1_455 S
O6 C8 1.254 . S
O7 Dy0 2.664 1_455 S
O7 Dy3 2.310 1_565 S
O7 C8 1.268 . S
C8 O6 1.254 . S
C8 O7 1.268 . S
C9 O14 1.254 . S
C9 O15 1.268 . S
O10 Dy3 2.351 . S
O10 C18 1.249 . S
O11 Dy0 2.326 1_445 S
O11 C18 1.267 . S
O12 C1 1.147 1_545 S
O12 Dy3 2.398 1_655 S
O13 C1 1.387 1_455 S
O13 Dy3 2.491 1_565 S
O14 Dy3 2.403 1_655 S
O14 C9 1.254 . S
O15 Dy0 2.310 1_545 S
O15 Dy3 2.664 1_655 S
O15 C9 1.268 . S
O16 Dy0 2.351 . S
O16 C19 1.249 . S
O17 Dy3 2.326 1_665 S
O17 C19 1.267 . S
C18 O10 1.249 . S
C18 O11 1.267 . S
C19 O16 1.249 . S
C19 O17 1.267 . S
Dy20 O24 2.398 . S
Dy20 O25 2.491 . S
Dy20 O26 2.403 . S
Dy20 O27 2.664 . S
Dy20 O31 2.326 . S
Dy20 O35 2.310 . S
Dy20 O36 2.351 . S
C21 O32 1.185 . S
C21 O33 1.355 . S
C22 O24 1.185 . S
C22 O25 1.355 . S
Dy23 O27 2.310 . S
Dy23 O30 2.351 . S
Dy23 O32 2.398 . S
Dy23 O33 2.491 . S
Dy23 O34 2.403 . S
Dy23 O35 2.664 . S
Dy23 O37 2.326 . S
O24 Dy20 2.398 . S
O24 C22 1.185 . S
O25 Dy20 2.491 . S
O25 C22 1.355 . S
O26 Dy20 2.403 . S
O26 C28 1.254 . S
O27 Dy20 2.664 . S
O27 Dy23 2.310 . S
O27 C28 1.268 . S
C28 O26 1.254 . S
C28 O27 1.268 . S
C29 O34 1.254 . S
C29 O35 1.268 . S
O30 Dy23 2.351 . S
O30 C38 1.249 . S
O31 Dy20 2.326 . S
O31 C38 1.267 . S
O32 C21 1.185 . S
O32 Dy23 2.398 . S
O33 C21 1.355 . S
O33 Dy23 2.491 . S
O34 Dy23 2.403 . S
O34 C29 1.254 . S
O35 Dy20 2.310 . S
O35 Dy23 2.664 . S
O35 C29 1.268 . S
O36 Dy20 2.351 . S
O36 C39 1.249 . S
O37 Dy23 2.326 . S
O37 C39 1.267 . S
C38 O30 1.249 . S
C38 O31 1.267 . S
C39 O36 1.249 . S
C39 O37 1.267 . S
Dy40 O44 2.398 . S
Dy40 O45 2.491 1_565 S
Dy40 O46 2.403 . S
Dy40 O47 2.664 1_554 S
Dy40 O51 2.326 1_565 S
Dy40 O55 2.310 1_565 S
Dy40 O56 2.351 . S
C41 O52 1.185 . S
C41 O53 1.355 1_545 S
C42 O44 1.185 . S
C42 O45 1.355 1_565 S
Dy43 O47 2.310 1_545 S
Dy43 O50 2.351 . S
Dy43 O52 2.398 . S
Dy43 O53 2.491 1_545 S
Dy43 O54 2.403 . S
Dy43 O55 2.664 1_556 S
Dy43 O57 2.326 1_545 S
O44 Dy40 2.398 . S
O44 C42 1.185 . S
O45 Dy40 2.491 1_545 S
O45 C42 1.355 1_545 S
O46 Dy40 2.403 . S
O46 C48 1.254 1_554 S
O47 Dy40 2.664 1_556 S
O47 Dy43 2.310 1_565 S
O47 C48 1.268 . S
C48 O46 1.254 1_556 S
C48 O47 1.268 . S
C49 O54 1.254 1_554 S
C49 O55 1.268 . S
O50 Dy43 2.351 . S
O50 C58 1.249 1_556 S
O51 Dy40 2.326 1_545 S
O51 C58 1.267 . S
O52 C41 1.185 . S
O52 Dy43 2.398 . S
O53 C41 1.355 1_565 S
O53 Dy43 2.491 1_565 S
O54 Dy43 2.403 . S
O54 C49 1.254 1_556 S
O55 Dy40 2.310 1_545 S
O55 Dy43 2.664 1_554 S
O55 C49 1.268 . S
O56 Dy40 2.351 . S
O56 C59 1.249 1_554 S
O57 Dy43 2.326 1_565 S
O57 C59 1.267 . S
C58 O50 1.249 1_554 S
C58 O51 1.267 . S
C59 O56 1.249 1_556 S
C59 O57 1.267 . S
Dy60 O64 2.398 . S
Dy60 O65 2.491 . S
Dy60 O66 2.403 . S
Dy60 O67 2.664 . S
Dy60 O71 2.326 . S
Dy60 O75 2.310 . S
Dy60 O76 2.351 . S
C61 O72 1.185 . S
C61 O73 1.355 . S
C62 O64 1.185 . S
C62 O65 1.355 . S
Dy63 O67 2.310 . S
Dy63 O70 2.351 . S
Dy63 O72 2.398 . S
Dy63 O73 2.491 . S
Dy63 O74 2.403 . S
Dy63 O75 2.664 . S
Dy63 O77 2.326 . S
O64 Dy60 2.398 . S
O64 C62 1.185 . S
O65 Dy60 2.491 . S
O65 C62 1.355 . S
O66 Dy60 2.403 . S
O66 C68 1.254 . S
O67 Dy60 2.664 . S
O67 Dy63 2.310 . S
O67 C68 1.268 . S
C68 O66 1.254 . S
C68 O67 1.268 . S
C69 O74 1.254 . S
C69 O75 1.268 . S
O70 Dy63 2.351 . S
O70 C78 1.249 . S
O71 Dy60 2.326 . S
O71 C78 1.267 . S
O72 C61 1.185 . S
O72 Dy63 2.398 . S
O73 C61 1.355 . S
O73 Dy63 2.491 . S
O74 Dy63 2.403 . S
O74 C69 1.254 . S
O75 Dy60 2.310 . S
O75 Dy63 2.664 . S
O75 C69 1.268 . S
O76 Dy60 2.351 . S
O76 C79 1.249 . S
O77 Dy63 2.326 . S
O77 C79 1.267 . S
C78 O70 1.249 . S
C78 O71 1.267 . S
C79 O76 1.249 . S
C79 O77 1.267 . S
Dy80 O84 2.398 . S
Dy80 O85 2.491 . S
Dy80 O86 2.403 . S
Dy80 O87 2.664 . S
Dy80 O91 2.326 . S
Dy80 O95 2.310 . S
Dy80 O96 2.351 . S
C81 O92 1.185 . S
C81 O93 1.355 . S
C82 O84 1.185 . S
C82 O85 1.355 . S
Dy83 O87 2.310 . S
Dy83 O90 2.351 . S
Dy83 O92 2.398 . S
Dy83 O93 2.491 . S
Dy83 O94 2.403 . S
Dy83 O95 2.664 . S
Dy83 O97 2.326 . S
O84 Dy80 2.398 . S
O84 C82 1.185 . S
O85 Dy80 2.491 . S
O85 C82 1.355 . S
O86 Dy80 2.403 . S
O86 C88 1.254 . S
O87 Dy80 2.664 . S
O87 Dy83 2.310 . S
O87 C88 1.268 . S
C88 O86 1.254 . S
C88 O87 1.268 . S
C89 O94 1.254 . S
C89 O95 1.268 . S
O90 Dy83 2.351 . S
O90 C98 1.249 . S
O91 Dy80 2.326 . S
O91 C98 1.267 . S
O92 C81 1.185 . S
O92 Dy83 2.398 . S
O93 C81 1.355 . S
O93 Dy83 2.491 . S
O94 Dy83 2.403 . S
O94 C89 1.254 . S
O95 Dy80 2.310 . S
O95 Dy83 2.664 . S
O95 C89 1.268 . S
O96 Dy80 2.351 . S
O96 C99 1.249 . S
O97 Dy83 2.326 . S
O97 C99 1.267 . S
C98 O90 1.249 . S
C98 O91 1.267 . S
C99 O96 1.249 . S
C99 O97 1.267 . S
Dy100 O104 2.398 . S
Dy100 O105 2.491 . S
Dy100 O106 2.403 . S
Dy100 O107 2.664 . S
Dy100 O111 2.326 . S
Dy100 O115 2.310 . S
Dy100 O116 2.351 . S
C101 O112 1.185 . S
C101 O113 1.355 . S
C102 O104 1.185 . S
C102 O105 1.355 . S
Dy103 O107 2.310 . S
Dy103 O110 2.351 . S
Dy103 O112 2.398 . S
Dy103 O113 2.491 . S
Dy103 O114 2.403 . S
Dy103 O115 2.664 . S
Dy103 O117 2.326 . S
O104 Dy100 2.398 . S
O104 C102 1.185 . S
O105 Dy100 2.491 . S
O105 C102 1.355 . S
O106 Dy100 2.403 . S
O106 C108 1.254 . S
O107 Dy100 2.664 . S
O107 Dy103 2.310 . S
O107 C108 1.268 . S
C108 O106 1.254 . S
C108 O107 1.268 . S
C109 O114 1.254 . S
C109 O115 1.268 . S
O110 Dy103 2.351 . S
O110 C118 1.249 . S
O111 Dy100 2.326 . S
O111 C118 1.267 . S
O112 C101 1.185 . S
O112 Dy103 2.398 . S
O113 C101 1.355 . S
O113 Dy103 2.491 . S
O114 Dy103 2.403 . S
O114 C109 1.254 . S
O115 Dy100 2.310 . S
O115 Dy103 2.664 . S
O115 C109 1.268 . S
O116 Dy100 2.351 . S
O116 C119 1.249 . S
O117 Dy103 2.326 . S
O117 C119 1.267 . S
C118 O110 1.249 . S
C118 O111 1.267 . S
C119 O116 1.249 . S
C119 O117 1.267 . S
Dy120 O124 2.398 . S
Dy120 O125 2.491 . S
Dy120 O126 2.403 . S
Dy120 O127 2.664 1_556 S
Dy120 O131 2.326 . S
Dy120 O135 2.310 . S
Dy120 O136 2.351 . S
C121 O132 1.185 . S
C121 O133 1.355 . S
C122 O124 1.185 . S
C122 O125 1.355 . S
Dy123 O127 2.310 . S
Dy123 O130 2.351 . S
Dy123 O132 2.398 . S
Dy123 O133 2.491 . S
Dy123 O134 2.403 . S
Dy123 O135 2.664 1_554 S
Dy123 O137 2.326 . S
O124 Dy120 2.398 . S
O124 C122 1.185 . S
O125 Dy120 2.491 . S
O125 C122 1.355 . S
O126 Dy120 2.403 . S
O126 C128 1.254 1_556 S
O127 Dy120 2.664 1_554 S
O127 Dy123 2.310 . S
O127 C128 1.268 . S
C128 O126 1.254 1_554 S
C128 O127 1.268 . S
C129 O134 1.254 1_556 S
C129 O135 1.268 . S
O130 Dy123 2.351 . S
O130 C138 1.249 1_554 S
O131 Dy120 2.326 . S
O131 C138 1.267 . S
O132 C121 1.185 . S
O132 Dy123 2.398 . S
O133 C121 1.355 . S
O133 Dy123 2.491 . S
O134 Dy123 2.403 . S
O134 C129 1.254 1_554 S
O135 Dy120 2.310 . S
O135 Dy123 2.664 1_556 S
O135 C129 1.268 . S
O136 Dy120 2.351 . S
O136 C139 1.249 1_556 S
O137 Dy123 2.326 . S
O137 C139 1.267 . S
C138 O130 1.249 1_556 S
C138 O131 1.267 . S
C139 O136 1.249 1_554 S
C139 O137 1.267 . S
Dy140 O144 2.398 1_455 S
Dy140 O145 2.491 . S
Dy140 O146 2.403 1_455 S
Dy140 O147 2.664 1_455 S
Dy140 O151 2.326 1_455 S
Dy140 O155 2.310 . S
Dy140 O156 2.351 . S
C141 O152 1.185 . S
C141 O153 1.355 1_455 S
C142 O144 1.185 . S
C142 O145 1.355 1_655 S
Dy143 O147 2.310 . S
Dy143 O150 2.351 . S
Dy143 O152 2.398 1_655 S
Dy143 O153 2.491 . S
Dy143 O154 2.403 1_655 S
Dy143 O155 2.664 1_655 S
Dy143 O157 2.326 1_655 S
O144 Dy140 2.398 1_655 S
O144 C142 1.185 . S
O145 Dy140 2.491 . S
O145 C142 1.355 1_455 S
O146 Dy140 2.403 1_655 S
O146 C148 1.254 . S
O147 Dy140 2.664 1_655 S
O147 Dy143 2.310 . S
O147 C148 1.268 . S
C148 O146 1.254 . S
C148 O147 1.268 . S
C149 O154 1.254 . S
C149 O155 1.268 . S
O150 Dy143 2.351 . S
O150 C158 1.249 . S
O151 Dy140 2.326 1_655 S
O151 C158 1.267 . S
O152 C141 1.185 . S
O152 Dy143 2.398 1_455 S
O153 C141 1.355 1_655 S
O153 Dy143 2.491 . S
O154 Dy143 2.403 1_455 S
O154 C149 1.254 . S
O155 Dy140 2.310 . S
O155 Dy143 2.664 1_455 S
O155 C149 1.268 . S
O156 Dy140 2.351 . S
O156 C159 1.249 . S
O157 Dy143 2.326 1_455 S
O157 C159 1.267 . S
C158 O150 1.249 . S
C158 O151 1.267 . S
C159 O156 1.249 . S
C159 O157 1.267 . S
H160 C178 0.951 . S
H161 C180 0.951 . S
H162 C182 0.950 . S
H163 C183 0.950 . S
H164 C185 0.950 . S
H165 C188 0.950 . S
H166 C189 0.950 . S
H167 C191 0.950 . S
H168 C192 0.950 . S
H169 C193 0.951 . S
H170 C195 0.951 . S
H171 C197 0.950 . S
H172 C198 0.950 . S
H173 C200 0.950 . S
H174 C203 0.950 . S
H175 C204 0.950 . S
H176 C206 0.950 . S
H177 C207 0.950 . S
C178 H160 0.951 . S
C178 C179 1.366 . S
C178 C180 1.388 . S
C179 C178 1.366 . S
C179 C183 1.385 . S
C180 H161 0.951 . S
C180 C178 1.388 . S
C180 C181 1.366 . S
C181 C180 1.366 . S
C181 C182 1.414 . S
C181 C184 1.499 . S
C182 H162 0.950 . S
C182 C181 1.414 . S
C182 C183 1.374 . S
C183 H163 0.950 . S
C183 C179 1.385 . S
C183 C182 1.374 . S
C184 C181 1.499 . S
C184 C185 1.373 . S
C184 C186 1.389 . S
C185 H164 0.950 . S
C185 C184 1.373 . S
C185 C201 1.377 . S
C186 C184 1.389 . S
C186 C187 1.524 . S
C186 C200 1.377 . S
C187 C186 1.524 . S
C187 C188 1.397 . S
C187 C192 1.363 . S
C188 H165 0.950 . S
C188 C187 1.397 . S
C188 C189 1.334 . S
C189 H166 0.950 . S
C189 C188 1.334 . S
C189 C190 1.287 . S
C190 C189 1.287 . S
C190 C191 1.524 . S
C190 H209 0.913 . S
C191 H167 0.950 . S
C191 C190 1.524 . S
C191 C192 1.415 . S
C192 H168 0.950 . S
C192 C187 1.363 . S
C192 C191 1.415 . S
C193 H169 0.951 . S
C193 C194 1.366 . S
C193 C195 1.388 . S
C194 C193 1.366 . S
C194 C198 1.385 . S
C195 H170 0.951 . S
C195 C193 1.388 . S
C195 C196 1.366 . S
C196 C195 1.366 . S
C196 C197 1.414 . S
C196 C199 1.499 . S
C197 H171 0.950 . S
C197 C196 1.414 . S
C197 C198 1.374 . S
C198 H172 0.950 . S
C198 C194 1.385 . S
C198 C197 1.374 . S
C199 C196 1.499 . S
C199 C200 1.373 . S
C199 C201 1.389 . S
C200 H173 0.950 . S
C200 C186 1.377 . S
C200 C199 1.373 . S
C201 C185 1.377 . S
C201 C199 1.389 . S
C201 C202 1.524 . S
C202 C201 1.524 . S
C202 C203 1.397 . S
C202 C207 1.363 . S
C203 H174 0.950 . S
C203 C202 1.397 . S
C203 C204 1.334 . S
C204 H175 0.950 . S
C204 C203 1.334 . S
C204 C205 1.287 . S
C205 C204 1.287 . S
C205 C206 1.524 . S
C205 H208 0.999 . S
C206 H176 0.950 . S
C206 C205 1.524 . S
C206 C207 1.415 . S
C207 H177 0.950 . S
C207 C202 1.363 . S
C207 C206 1.415 . S
H208 C205 0.999 . S
H209 C190 0.913 . S
H210 C228 0.951 . S
H211 C230 0.951 . S
H212 C232 0.950 . S
H213 C233 0.950 . S
H214 C235 0.950 . S
H215 C238 0.950 . S
H216 C239 0.950 . S
H217 C241 0.950 . S
H218 C242 0.950 . S
H219 C243 0.951 . S
H220 C245 0.951 . S
H221 C247 0.950 . S
H222 C248 0.950 . S
H223 C250 0.950 . S
H224 C253 0.950 . S
H225 C254 0.950 . S
H226 C256 0.950 . S
H227 C257 0.950 . S
C228 H210 0.951 . S
C228 C229 1.366 . S
C228 C230 1.388 . S
C229 C228 1.366 . S
C229 C233 1.385 . S
C230 H211 0.951 . S
C230 C228 1.388 . S
C230 C231 1.366 . S
C231 C230 1.366 . S
C231 C232 1.414 . S
C231 C234 1.499 . S
C232 H212 0.950 . S
C232 C231 1.414 . S
C232 C233 1.374 . S
C233 H213 0.950 . S
C233 C229 1.385 . S
C233 C232 1.374 . S
C234 C231 1.499 . S
C234 C235 1.373 . S
C234 C236 1.389 . S
C235 H214 0.950 . S
C235 C234 1.373 . S
C235 C251 1.377 . S
C236 C234 1.389 . S
C236 C237 1.524 . S
C236 C250 1.377 . S
C237 C236 1.524 . S
C237 C238 1.397 . S
C237 C242 1.363 . S
C238 H215 0.950 . S
C238 C237 1.397 . S
C238 C239 1.334 . S
C239 H216 0.950 . S
C239 C238 1.334 . S
C239 C240 1.287 . S
C240 C239 1.287 . S
C240 C241 1.524 . S
C240 H259 0.913 . S
C241 H217 0.950 . S
C241 C240 1.524 . S
C241 C242 1.415 . S
C242 H218 0.950 . S
C242 C237 1.363 . S
C242 C241 1.415 . S
C243 H219 0.951 . S
C243 C244 1.366 . S
C243 C245 1.388 . S
C244 C243 1.366 . S
C244 C248 1.385 . S
C245 H220 0.951 . S
C245 C243 1.388 . S
C245 C246 1.366 . S
C246 C245 1.366 . S
C246 C247 1.414 . S
C246 C249 1.499 . S
C247 H221 0.950 . S
C247 C246 1.414 . S
C247 C248 1.374 . S
C248 H222 0.950 . S
C248 C244 1.385 . S
C248 C247 1.374 . S
C249 C246 1.499 . S
C249 C250 1.373 . S
C249 C251 1.389 . S
C250 H223 0.950 . S
C250 C236 1.377 . S
C250 C249 1.373 . S
C251 C235 1.377 . S
C251 C249 1.389 . S
C251 C252 1.524 . S
C252 C251 1.524 . S
C252 C253 1.397 . S
C252 C257 1.363 . S
C253 H224 0.950 . S
C253 C252 1.397 . S
C253 C254 1.334 . S
C254 H225 0.950 . S
C254 C253 1.334 . S
C254 C255 1.287 . S
C255 C254 1.287 . S
C255 C256 1.524 . S
C255 H258 0.999 . S
C256 H226 0.950 . S
C256 C255 1.524 . S
C256 C257 1.415 . S
C257 H227 0.950 . S
C257 C252 1.363 . S
C257 C256 1.415 . S
H258 C255 0.999 . S
H259 C240 0.913 . S
H260 C278 0.951 . S
H261 C280 0.951 . S
H262 C282 0.950 . S
H263 C283 0.950 . S
H264 C285 0.950 . S
H265 C288 0.950 . S
H266 C289 0.950 . S
H267 C291 0.950 . S
H268 C292 0.950 . S
H269 C293 0.951 . S
H270 C295 0.951 . S
H271 C297 0.950 . S
H272 C298 0.950 . S
H273 C300 0.950 . S
H274 C303 0.950 . S
H275 C304 0.950 . S
H276 C306 0.950 . S
H277 C307 0.950 . S
C278 H260 0.951 . S
C278 C279 1.366 . S
C278 C280 1.388 . S
C279 C278 1.366 . S
C279 C283 1.385 . S
C280 H261 0.951 . S
C280 C278 1.388 . S
C280 C281 1.366 . S
C281 C280 1.366 . S
C281 C282 1.414 . S
C281 C284 1.499 . S
C282 H262 0.950 . S
C282 C281 1.414 . S
C282 C283 1.374 . S
C283 H263 0.950 . S
C283 C279 1.385 . S
C283 C282 1.374 . S
C284 C281 1.499 . S
C284 C285 1.373 . S
C284 C286 1.389 . S
C285 H264 0.950 . S
C285 C284 1.373 . S
C285 C301 1.377 . S
C286 C284 1.389 . S
C286 C287 1.524 . S
C286 C300 1.377 . S
C287 C286 1.524 . S
C287 C288 1.397 . S
C287 C292 1.363 . S
C288 H265 0.950 . S
C288 C287 1.397 . S
C288 C289 1.334 . S
C289 H266 0.950 . S
C289 C288 1.334 . S
C289 C290 1.287 . S
C290 C289 1.287 . S
C290 C291 1.524 . S
C290 H309 0.913 . S
C291 H267 0.950 . S
C291 C290 1.524 . S
C291 C292 1.415 . S
C292 H268 0.950 . S
C292 C287 1.363 . S
C292 C291 1.415 . S
C293 H269 0.951 . S
C293 C294 1.366 . S
C293 C295 1.388 . S
C294 C293 1.366 . S
C294 C298 1.385 . S
C295 H270 0.951 . S
C295 C293 1.388 . S
C295 C296 1.366 . S
C296 C295 1.366 . S
C296 C297 1.414 . S
C296 C299 1.499 . S
C297 H271 0.950 . S
C297 C296 1.414 . S
C297 C298 1.374 . S
C298 H272 0.950 . S
C298 C294 1.385 . S
C298 C297 1.374 . S
C299 C296 1.499 . S
C299 C300 1.373 . S
C299 C301 1.389 . S
C300 H273 0.950 . S
C300 C286 1.377 . S
C300 C299 1.373 . S
C301 C285 1.377 . S
C301 C299 1.389 . S
C301 C302 1.524 . S
C302 C301 1.524 . S
C302 C303 1.397 1_556 S
C302 C307 1.363 . S
C303 H274 0.950 . S
C303 C302 1.397 1_554 S
C303 C304 1.334 . S
C304 H275 0.950 . S
C304 C303 1.334 . S
C304 C305 1.287 . S
C305 C304 1.287 . S
C305 C306 1.524 . S
C305 H308 0.999 . S
C306 H276 0.950 . S
C306 C305 1.524 . S
C306 C307 1.415 1_554 S
C307 H277 0.950 . S
C307 C302 1.363 . S
C307 C306 1.415 1_556 S
H308 C305 0.999 . S
H309 C290 0.913 . S
H310 C328 0.951 . S
H311 C330 0.951 . S
H312 C332 0.950 . S
H313 C333 0.950 . S
H314 C335 0.950 . S
H315 C338 0.950 . S
H316 C339 0.950 . S
H317 C341 0.950 . S
H318 C342 0.950 . S
H319 C343 0.951 . S
H320 C345 0.951 . S
H321 C347 0.950 . S
H322 C348 0.950 . S
H323 C350 0.950 . S
H324 C353 0.950 . S
H325 C354 0.950 . S
H326 C356 0.950 . S
H327 C357 0.950 . S
C328 H310 0.951 . S
C328 C329 1.366 . S
C328 C330 1.388 . S
C329 C328 1.366 . S
C329 C333 1.385 . S
C330 H311 0.951 . S
C330 C328 1.388 . S
C330 C331 1.366 . S
C331 C330 1.366 . S
C331 C332 1.414 . S
C331 C334 1.499 . S
C332 H312 0.950 . S
C332 C331 1.414 . S
C332 C333 1.374 . S
C333 H313 0.950 . S
C333 C329 1.385 . S
C333 C332 1.374 . S
C334 C331 1.499 . S
C334 C335 1.373 . S
C334 C336 1.389 . S
C335 H314 0.950 . S
C335 C334 1.373 . S
C335 C351 1.377 . S
C336 C334 1.389 . S
C336 C337 1.524 . S
C336 C350 1.377 . S
C337 C336 1.524 . S
C337 C338 1.397 . S
C337 C342 1.363 . S
C338 H315 0.950 . S
C338 C337 1.397 . S
C338 C339 1.334 . S
C339 H316 0.950 . S
C339 C338 1.334 . S
C339 C340 1.287 . S
C340 C339 1.287 . S
C340 C341 1.524 . S
C340 H359 0.913 . S
C341 H317 0.950 . S
C341 C340 1.524 . S
C341 C342 1.415 . S
C342 H318 0.950 . S
C342 C337 1.363 . S
C342 C341 1.415 . S
C343 H319 0.951 . S
C343 C344 1.366 . S
C343 C345 1.388 . S
C344 C343 1.366 . S
C344 C348 1.385 . S
C345 H320 0.951 . S
C345 C343 1.388 . S
C345 C346 1.366 . S
C346 C345 1.366 . S
C346 C347 1.414 . S
C346 C349 1.499 . S
C347 H321 0.950 . S
C347 C346 1.414 . S
C347 C348 1.374 . S
C348 H322 0.950 . S
C348 C344 1.385 . S
C348 C347 1.374 . S
C349 C346 1.499 . S
C349 C350 1.373 . S
C349 C351 1.389 . S
C350 H323 0.950 . S
C350 C336 1.377 . S
C350 C349 1.373 . S
C351 C335 1.377 . S
C351 C349 1.389 . S
C351 C352 1.524 . S
C352 C351 1.524 . S
C352 C353 1.397 . S
C352 C357 1.363 1_554 S
C353 H324 0.950 . S
C353 C352 1.397 . S
C353 C354 1.334 1_554 S
C354 H325 0.950 . S
C354 C353 1.334 1_556 S
C354 C355 1.287 . S
C355 C354 1.287 . S
C355 C356 1.524 . S
C355 H358 0.999 . S
C356 H326 0.950 . S
C356 C355 1.524 . S
C356 C357 1.415 . S
C357 H327 0.950 . S
C357 C352 1.363 1_556 S
C357 C356 1.415 . S
H358 C355 0.999 . S
H359 C340 0.913 . S
H360 C378 0.951 . S
H361 C380 0.951 . S
H362 C382 0.950 . S
H363 C383 0.950 . S
H364 C385 0.950 . S
H365 C388 0.950 . S
H366 C389 0.950 . S
H367 C391 0.950 . S
H368 C392 0.950 . S
H369 C393 0.951 . S
H370 C395 0.951 . S
H371 C397 0.950 . S
H372 C398 0.950 . S
H373 C400 0.950 . S
H374 C403 0.950 . S
H375 C404 0.950 . S
H376 C406 0.950 . S
H377 C407 0.950 . S
C378 H360 0.951 . S
C378 C379 1.366 . S
C378 C380 1.388 . S
C379 C378 1.366 . S
C379 C383 1.385 . S
C380 H361 0.951 . S
C380 C378 1.388 . S
C380 C381 1.366 . S
C381 C380 1.366 . S
C381 C382 1.414 . S
C381 C384 1.499 . S
C382 H362 0.950 . S
C382 C381 1.414 . S
C382 C383 1.374 . S
C383 H363 0.950 . S
C383 C379 1.385 . S
C383 C382 1.374 . S
C384 C381 1.499 . S
C384 C385 1.373 . S
C384 C386 1.389 . S
C385 H364 0.950 . S
C385 C384 1.373 . S
C385 C401 1.377 . S
C386 C384 1.389 . S
C386 C387 1.524 . S
C386 C400 1.377 . S
C387 C386 1.524 . S
C387 C388 1.397 . S
C387 C392 1.363 . S
C388 H365 0.950 . S
C388 C387 1.397 . S
C388 C389 1.334 . S
C389 H366 0.950 . S
C389 C388 1.334 . S
C389 C390 1.287 . S
C390 C389 1.287 . S
C390 C391 1.524 . S
C390 H409 0.913 . S
C391 H367 0.950 . S
C391 C390 1.524 . S
C391 C392 1.415 . S
C392 H368 0.950 . S
C392 C387 1.363 . S
C392 C391 1.415 . S
C393 H369 0.951 . S
C393 C394 1.366 . S
C393 C395 1.388 . S
C394 C393 1.366 . S
C394 C398 1.385 . S
C395 H370 0.951 . S
C395 C393 1.388 . S
C395 C396 1.366 . S
C396 C395 1.366 . S
C396 C397 1.414 . S
C396 C399 1.499 . S
C397 H371 0.950 . S
C397 C396 1.414 . S
C397 C398 1.374 . S
C398 H372 0.950 . S
C398 C394 1.385 . S
C398 C397 1.374 . S
C399 C396 1.499 . S
C399 C400 1.373 . S
C399 C401 1.389 . S
C400 H373 0.950 . S
C400 C386 1.377 . S
C400 C399 1.373 . S
C401 C385 1.377 . S
C401 C399 1.389 . S
C401 C402 1.524 . S
C402 C401 1.524 . S
C402 C403 1.397 . S
C402 C407 1.363 . S
C403 H374 0.950 . S
C403 C402 1.397 . S
C403 C404 1.334 . S
C404 H375 0.950 . S
C404 C403 1.334 . S
C404 C405 1.287 . S
C405 C404 1.287 . S
C405 C406 1.524 . S
C405 H408 0.999 . S
C406 H376 0.950 . S
C406 C405 1.524 . S
C406 C407 1.415 . S
C407 H377 0.950 . S
C407 C402 1.363 . S
C407 C406 1.415 . S
H408 C405 0.999 . S
H409 C390 0.913 . S
H410 C428 0.951 . S
H411 C430 0.951 . S
H412 C432 0.950 . S
H413 C433 0.950 . S
H414 C435 0.950 . S
H415 C438 0.950 . S
H416 C439 0.950 . S
H417 C441 0.950 . S
H418 C442 0.950 . S
H419 C443 0.951 . S
H420 C445 0.951 . S
H421 C447 0.950 . S
H422 C448 0.950 . S
H423 C450 0.950 . S
H424 C453 0.950 . S
H425 C454 0.950 . S
H426 C456 0.950 . S
H427 C457 0.950 . S
C428 H410 0.951 . S
C428 C429 1.366 . S
C428 C430 1.388 . S
C429 C428 1.366 . S
C429 C433 1.385 . S
C430 H411 0.951 . S
C430 C428 1.388 . S
C430 C431 1.366 . S
C431 C430 1.366 . S
C431 C432 1.414 . S
C431 C434 1.499 . S
C432 H412 0.950 . S
C432 C431 1.414 . S
C432 C433 1.374 . S
C433 H413 0.950 . S
C433 C429 1.385 . S
C433 C432 1.374 . S
C434 C431 1.499 . S
C434 C435 1.373 . S
C434 C436 1.389 . S
C435 H414 0.950 . S
C435 C434 1.373 . S
C435 C451 1.377 . S
C436 C434 1.389 . S
C436 C437 1.524 . S
C436 C450 1.377 . S
C437 C436 1.524 . S
C437 C438 1.397 . S
C437 C442 1.363 . S
C438 H415 0.950 . S
C438 C437 1.397 . S
C438 C439 1.334 . S
C439 H416 0.950 . S
C439 C438 1.334 . S
C439 C440 1.287 . S
C440 C439 1.287 . S
C440 C441 1.524 . S
C440 H459 0.913 . S
C441 H417 0.950 . S
C441 C440 1.524 . S
C441 C442 1.415 . S
C442 H418 0.950 . S
C442 C437 1.363 . S
C442 C441 1.415 . S
C443 H419 0.951 . S
C443 C444 1.366 . S
C443 C445 1.388 . S
C444 C443 1.366 . S
C444 C448 1.385 . S
C445 H420 0.951 . S
C445 C443 1.388 . S
C445 C446 1.366 . S
C446 C445 1.366 . S
C446 C447 1.414 . S
C446 C449 1.499 . S
C447 H421 0.950 . S
C447 C446 1.414 . S
C447 C448 1.374 . S
C448 H422 0.950 . S
C448 C444 1.385 . S
C448 C447 1.374 . S
C449 C446 1.499 . S
C449 C450 1.373 . S
C449 C451 1.389 . S
C450 H423 0.950 . S
C450 C436 1.377 . S
C450 C449 1.373 . S
C451 C435 1.377 . S
C451 C449 1.389 . S
C451 C452 1.524 . S
C452 C451 1.524 . S
C452 C453 1.397 . S
C452 C457 1.363 . S
C453 H424 0.950 . S
C453 C452 1.397 . S
C453 C454 1.334 . S
C454 H425 0.950 . S
C454 C453 1.334 . S
C454 C455 1.287 . S
C455 C454 1.287 . S
C455 C456 1.524 . S
C455 H458 0.999 . S
C456 H426 0.950 . S
C456 C455 1.524 . S
C456 C457 1.415 . S
C457 H427 0.950 . S
C457 C452 1.363 . S
C457 C456 1.415 . S
H458 C455 0.999 . S
H459 C440 0.913 . S
H460 C478 0.951 . S
H461 C480 0.951 . S
H462 C482 0.950 . S
H463 C483 0.950 . S
H464 C485 0.950 . S
H465 C488 0.950 . S
H466 C489 0.950 . S
H467 C491 0.955 . S
H468 C492 0.950 . S
H469 C493 0.951 . S
H470 C495 0.951 . S
H471 C497 0.950 . S
H472 C498 0.950 . S
H473 C500 0.950 . S
H474 C503 0.950 . S
H475 C504 0.950 . S
H476 C506 0.950 . S
H477 C507 0.950 . S
C478 H460 0.951 . S
C478 C479 1.366 . S
C478 C480 1.388 . S
C479 C478 1.366 . S
C479 C483 1.385 . S
C480 H461 0.951 . S
C480 C478 1.388 . S
C480 C481 1.366 . S
C481 C480 1.366 . S
C481 C482 1.414 . S
C481 C484 1.499 . S
C482 H462 0.950 . S
C482 C481 1.414 . S
C482 C483 1.374 . S
C483 H463 0.950 . S
C483 C479 1.385 . S
C483 C482 1.374 . S
C484 C481 1.499 . S
C484 C485 1.373 . S
C484 C486 1.389 . S
C485 H464 0.950 . S
C485 C484 1.373 . S
C485 C501 1.377 . S
C486 C484 1.389 . S
C486 C487 1.524 . S
C486 C500 1.377 . S
C487 C486 1.524 . S
C487 C488 1.397 . S
C487 C492 1.363 . S
C488 H465 0.950 . S
C488 C487 1.397 . S
C488 C489 1.334 1_554 S
C489 H466 0.950 . S
C489 C488 1.334 1_556 S
C489 C490 1.287 . S
C490 C489 1.287 . S
C490 C491 1.529 . S
C490 H509 0.913 . S
C491 H467 0.955 . S
C491 C490 1.529 . S
C491 C492 1.404 1_556 S
C492 H468 0.950 . S
C492 C487 1.363 . S
C492 C491 1.404 1_554 S
C493 H469 0.951 . S
C493 C494 1.366 . S
C493 C495 1.388 . S
C494 C493 1.366 . S
C494 C498 1.385 . S
C495 H470 0.951 . S
C495 C493 1.388 . S
C495 C496 1.366 . S
C496 C495 1.366 . S
C496 C497 1.414 . S
C496 C499 1.499 . S
C497 H471 0.950 . S
C497 C496 1.414 . S
C497 C498 1.374 . S
C498 H472 0.950 . S
C498 C494 1.385 . S
C498 C497 1.374 . S
C499 C496 1.499 . S
C499 C500 1.373 . S
C499 C501 1.389 . S
C500 H473 0.950 . S
C500 C486 1.377 . S
C500 C499 1.373 . S
C501 C485 1.377 . S
C501 C499 1.389 . S
C501 C502 1.524 . S
C502 C501 1.524 . S
C502 C503 1.397 . S
C502 C507 1.363 . S
C503 H474 0.950 . S
C503 C502 1.397 . S
C503 C504 1.334 . S
C504 H475 0.950 . S
C504 C503 1.334 . S
C504 C505 1.287 . S
C505 C504 1.287 . S
C505 C506 1.524 . S
C505 H508 0.999 . S
C506 H476 0.950 . S
C506 C505 1.524 . S
C506 C507 1.415 . S
C507 H477 0.950 . S
C507 C502 1.363 . S
C507 C506 1.415 . S
H508 C505 0.999 . S
H509 C490 0.913 . S
H510 C528 0.951 . S
H511 C530 0.951 . S
H512 C532 0.950 . S
H513 C533 0.950 . S
H514 C535 0.950 . S
H515 C538 0.950 . S
H516 C539 0.950 . S
H517 C541 0.950 . S
H518 C542 0.950 1_556 S
H519 C543 0.951 . S
H520 C545 0.951 . S
H521 C547 0.950 . S
H522 C548 0.950 . S
H523 C550 0.950 . S
H524 C553 0.950 . S
H525 C554 0.950 . S
H526 C556 0.950 . S
H527 C557 0.950 . S
C528 H510 0.951 . S
C528 C529 1.366 . S
C528 C530 1.388 . S
C529 C528 1.366 . S
C529 C533 1.385 . S
C530 H511 0.951 . S
C530 C528 1.388 . S
C530 C531 1.366 . S
C531 C530 1.366 . S
C531 C532 1.414 . S
C531 C534 1.499 . S
C532 H512 0.950 . S
C532 C531 1.414 . S
C532 C533 1.374 . S
C533 H513 0.950 . S
C533 C529 1.385 . S
C533 C532 1.374 . S
C534 C531 1.499 . S
C534 C535 1.373 . S
C534 C536 1.389 . S
C535 H514 0.950 . S
C535 C534 1.373 . S
C535 C551 1.377 . S
C536 C534 1.389 . S
C536 C537 1.524 . S
C536 C550 1.377 . S
C537 C536 1.524 . S
C537 C538 1.397 . S
C537 C542 1.363 1_556 S
C538 H515 0.950 . S
C538 C537 1.397 . S
C538 C539 1.334 1_556 S
C539 H516 0.950 . S
C539 C538 1.334 1_554 S
C539 C540 1.287 . S
C540 C539 1.287 . S
C540 C541 1.524 . S
C540 H559 0.913 . S
C541 H517 0.950 . S
C541 C540 1.524 . S
C541 C542 1.415 . S
C542 H518 0.950 1_554 S
C542 C537 1.363 1_554 S
C542 C541 1.415 . S
C543 H519 0.951 . S
C543 C544 1.366 . S
C543 C545 1.388 . S
C544 C543 1.366 . S
C544 C548 1.385 . S
C545 H520 0.951 . S
C545 C543 1.388 . S
C545 C546 1.366 . S
C546 C545 1.366 . S
C546 C547 1.414 . S
C546 C549 1.499 . S
C547 H521 0.950 . S
C547 C546 1.414 . S
C547 C548 1.374 . S
C548 H522 0.950 . S
C548 C544 1.385 . S
C548 C547 1.374 . S
C549 C546 1.499 . S
C549 C550 1.373 . S
C549 C551 1.389 . S
C550 H523 0.950 . S
C550 C536 1.377 . S
C550 C549 1.373 . S
C551 C535 1.377 . S
C551 C549 1.389 . S
C551 C552 1.524 . S
C552 C551 1.524 . S
C552 C553 1.397 . S
C552 C557 1.363 . S
C553 H524 0.950 . S
C553 C552 1.397 . S
C553 C554 1.334 . S
C554 H525 0.950 . S
C554 C553 1.334 . S
C554 C555 1.287 . S
C555 C554 1.287 . S
C555 C556 1.524 . S
C555 H558 0.999 . S
C556 H526 0.950 . S
C556 C555 1.524 . S
C556 C557 1.415 . S
C557 H527 0.950 . S
C557 C552 1.363 . S
C557 C556 1.415 . S
H558 C555 0.999 . S
H559 C540 0.913 . S
H560 C578 0.951 . S
H561 C580 0.951 . S
H562 C582 0.950 . S
H563 C583 0.950 . S
H564 C585 0.950 . S
H565 C588 0.947 1_554 S
H566 C589 0.950 . S
H567 C591 0.950 . S
H568 C592 0.950 . S
H569 C593 0.951 . S
H570 C595 0.951 . S
H571 C597 0.950 . S
H572 C598 0.950 . S
H573 C600 0.950 . S
H574 C603 0.950 . S
H575 C604 0.950 . S
H576 C606 0.950 . S
H577 C607 0.950 . S
C578 H560 0.951 . S
C578 C579 1.366 . S
C578 C580 1.388 . S
C579 C578 1.366 . S
C579 C583 1.385 . S
C580 H561 0.951 . S
C580 C578 1.388 . S
C580 C581 1.366 . S
C581 C580 1.366 . S
C581 C582 1.414 . S
C581 C584 1.499 . S
C582 H562 0.950 . S
C582 C581 1.414 . S
C582 C583 1.374 . S
C583 H563 0.950 . S
C583 C579 1.385 . S
C583 C582 1.374 . S
C584 C581 1.499 . S
C584 C585 1.373 . S
C584 C586 1.389 . S
C585 H564 0.950 . S
C585 C584 1.373 . S
C585 C601 1.377 . S
C586 C584 1.389 . S
C586 C587 1.524 . S
C586 C600 1.377 . S
C587 C586 1.524 . S
C587 C588 1.397 . S
C587 C592 1.363 . S
C588 H565 0.947 1_556 S
C588 C587 1.397 . S
C588 C589 1.334 1_556 S
C589 H566 0.950 . S
C589 C588 1.334 1_554 S
C589 C590 1.287 . S
C590 C589 1.287 . S
C590 C591 1.524 1_554 S
C590 H609 0.913 . S
C591 H567 0.950 . S
C591 C590 1.524 1_556 S
C591 C592 1.415 . S
C592 H568 0.950 . S
C592 C587 1.363 . S
C592 C591 1.415 . S
C593 H569 0.951 . S
C593 C594 1.366 . S
C593 C595 1.388 . S
C594 C593 1.366 . S
C594 C598 1.385 . S
C595 H570 0.951 . S
C595 C593 1.388 . S
C595 C596 1.366 . S
C596 C595 1.366 . S
C596 C597 1.414 . S
C596 C599 1.499 . S
C597 H571 0.950 . S
C597 C596 1.414 . S
C597 C598 1.374 . S
C598 H572 0.950 . S
C598 C594 1.385 . S
C598 C597 1.374 . S
C599 C596 1.499 . S
C599 C600 1.373 . S
C599 C601 1.389 . S
C600 H573 0.950 . S
C600 C586 1.377 . S
C600 C599 1.373 . S
C601 C585 1.377 . S
C601 C599 1.389 . S
C601 C602 1.524 . S
C602 C601 1.524 . S
C602 C603 1.397 . S
C602 C607 1.363 . S
C603 H574 0.950 . S
C603 C602 1.397 . S
C603 C604 1.334 . S
C604 H575 0.950 . S
C604 C603 1.334 . S
C604 C605 1.287 . S
C605 C604 1.287 . S
C605 C606 1.524 . S
C605 H608 0.999 . S
C606 H576 0.950 . S
C606 C605 1.524 . S
C606 C607 1.415 . S
C607 H577 0.950 . S
C607 C602 1.363 . S
C607 C606 1.415 . S
H608 C605 0.999 . S
H609 C590 0.913 . S
H610 C628 0.951 . S
H611 C630 0.951 . S
H612 C632 0.950 . S
H613 C633 0.950 . S
H614 C635 0.950 . S
H615 C638 0.950 . S
H616 C639 0.950 . S
H617 C641 0.950 . S
H618 C642 0.950 . S
H619 C643 0.951 . S
H620 C645 0.951 . S
H621 C647 0.950 . S
H622 C648 0.950 . S
H623 C650 0.950 . S
H624 C653 0.950 . S
H625 C654 0.950 . S
H626 C656 0.950 . S
H627 C657 0.950 . S
C628 H610 0.951 . S
C628 C629 1.366 . S
C628 C630 1.388 . S
C629 C628 1.366 . S
C629 C633 1.385 . S
C630 H611 0.951 . S
C630 C628 1.388 . S
C630 C631 1.366 . S
C631 C630 1.366 . S
C631 C632 1.414 . S
C631 C634 1.499 . S
C632 H612 0.950 . S
C632 C631 1.414 . S
C632 C633 1.374 . S
C633 H613 0.950 . S
C633 C629 1.385 . S
C633 C632 1.374 . S
C634 C631 1.499 . S
C634 C635 1.373 . S
C634 C636 1.389 . S
C635 H614 0.950 . S
C635 C634 1.373 . S
C635 C651 1.377 . S
C636 C634 1.389 . S
C636 C637 1.524 . S
C636 C650 1.377 . S
C637 C636 1.524 . S
C637 C638 1.397 . S
C637 C642 1.363 . S
C638 H615 0.950 . S
C638 C637 1.397 . S
C638 C639 1.334 . S
C639 H616 0.950 . S
C639 C638 1.334 . S
C639 C640 1.287 . S
C640 C639 1.287 . S
C640 C641 1.524 . S
C640 H659 0.913 . S
C641 H617 0.950 . S
C641 C640 1.524 . S
C641 C642 1.415 . S
C642 H618 0.950 . S
C642 C637 1.363 . S
C642 C641 1.415 . S
C643 H619 0.951 . S
C643 C644 1.366 . S
C643 C645 1.388 . S
C644 C643 1.366 . S
C644 C648 1.385 . S
C645 H620 0.951 . S
C645 C643 1.388 . S
C645 C646 1.366 . S
C646 C645 1.366 . S
C646 C647 1.414 . S
C646 C649 1.499 . S
C647 H621 0.950 . S
C647 C646 1.414 . S
C647 C648 1.374 . S
C648 H622 0.950 . S
C648 C644 1.385 . S
C648 C647 1.374 . S
C649 C646 1.499 . S
C649 C650 1.373 . S
C649 C651 1.389 . S
C650 H623 0.950 . S
C650 C636 1.377 . S
C650 C649 1.373 . S
C651 C635 1.377 . S
C651 C649 1.389 . S
C651 C652 1.524 . S
C652 C651 1.524 . S
C652 C653 1.397 1_554 S
C652 C657 1.363 . S
C653 H624 0.950 . S
C653 C652 1.397 1_556 S
C653 C654 1.334 . S
C654 H625 0.950 . S
C654 C653 1.334 . S
C654 C655 1.287 . S
C655 C654 1.287 . S
C655 C656 1.524 . S
C655 H658 0.999 . S
C656 H626 0.950 . S
C656 C655 1.524 . S
C656 C657 1.415 1_556 S
C657 H627 0.950 . S
C657 C652 1.363 . S
C657 C656 1.415 1_554 S
H658 C655 0.999 . S
H659 C640 0.913 . S
H660 C678 0.951 . S
H661 C680 0.951 . S
H662 C682 0.950 . S
H663 C683 0.950 . S
H664 C685 0.950 . S
H665 C688 0.950 . S
H666 C689 0.950 . S
H667 C691 0.950 . S
H668 C692 0.950 . S
H669 C693 0.951 . S
H670 C695 0.951 . S
H671 C697 0.950 . S
H672 C698 0.950 . S
H673 C700 0.950 . S
H674 C703 0.950 . S
H675 C704 0.950 . S
H676 C706 0.950 . S
H677 C707 0.950 . S
C678 H660 0.951 . S
C678 C679 1.366 . S
C678 C680 1.388 . S
C679 C678 1.366 . S
C679 C683 1.385 . S
C680 H661 0.951 . S
C680 C678 1.388 . S
C680 C681 1.366 . S
C681 C680 1.366 . S
C681 C682 1.414 . S
C681 C684 1.499 . S
C682 H662 0.950 . S
C682 C681 1.414 . S
C682 C683 1.374 . S
C683 H663 0.950 . S
C683 C679 1.385 . S
C683 C682 1.374 . S
C684 C681 1.499 . S
C684 C685 1.373 . S
C684 C686 1.389 . S
C685 H664 0.950 . S
C685 C684 1.373 . S
C685 C701 1.377 . S
C686 C684 1.389 . S
C686 C687 1.524 . S
C686 C700 1.377 . S
C687 C686 1.524 . S
C687 C688 1.397 . S
C687 C692 1.363 . S
C688 H665 0.950 . S
C688 C687 1.397 . S
C688 C689 1.334 . S
C689 H666 0.950 . S
C689 C688 1.334 . S
C689 C690 1.287 . S
C690 C689 1.287 . S
C690 C691 1.524 . S
C690 H709 0.913 . S
C691 H667 0.950 . S
C691 C690 1.524 . S
C691 C692 1.415 . S
C692 H668 0.950 . S
C692 C687 1.363 . S
C692 C691 1.415 . S
C693 H669 0.951 . S
C693 C694 1.366 . S
C693 C695 1.388 . S
C694 C693 1.366 . S
C694 C698 1.385 . S
C695 H670 0.951 . S
C695 C693 1.388 . S
C695 C696 1.366 . S
C696 C695 1.366 . S
C696 C697 1.414 . S
C696 C699 1.499 . S
C697 H671 0.950 . S
C697 C696 1.414 . S
C697 C698 1.374 . S
C698 H672 0.950 . S
C698 C694 1.385 . S
C698 C697 1.374 . S
C699 C696 1.499 . S
C699 C700 1.373 . S
C699 C701 1.389 . S
C700 H673 0.950 . S
C700 C686 1.377 . S
C700 C699 1.373 . S
C701 C685 1.377 . S
C701 C699 1.389 . S
C701 C702 1.524 . S
C702 C701 1.524 . S
C702 C703 1.397 . S
C702 C707 1.363 . S
C703 H674 0.950 . S
C703 C702 1.397 . S
C703 C704 1.334 . S
C704 H675 0.950 . S
C704 C703 1.334 . S
C704 C705 1.287 . S
C705 C704 1.287 . S
C705 C706 1.524 . S
C705 H708 0.999 . S
C706 H676 0.950 . S
C706 C705 1.524 . S
C706 C707 1.415 . S
C707 H677 0.950 . S
C707 C702 1.363 . S
C707 C706 1.415 . S
H708 C705 0.999 . S
H709 C690 0.913 . S
H710 C728 0.951 . S
H711 C730 0.951 . S
H712 C732 0.950 . S
H713 C733 0.950 . S
H714 C735 0.950 . S
H715 C738 0.950 . S
H716 C739 0.950 . S
H717 C741 0.950 . S
H718 C742 0.950 . S
H719 C743 0.951 . S
H720 C745 0.951 . S
H721 C747 0.950 . S
H722 C748 0.950 . S
H723 C750 0.950 . S
H724 C753 0.950 . S
H725 C754 0.950 . S
H726 C756 0.950 . S
H727 C757 0.950 . S
C728 H710 0.951 . S
C728 C729 1.366 . S
C728 C730 1.388 . S
C729 C728 1.366 . S
C729 C733 1.385 . S
C730 H711 0.951 . S
C730 C728 1.388 . S
C730 C731 1.366 . S
C731 C730 1.366 . S
C731 C732 1.414 . S
C731 C734 1.499 . S
C732 H712 0.950 . S
C732 C731 1.414 . S
C732 C733 1.374 . S
C733 H713 0.950 . S
C733 C729 1.385 . S
C733 C732 1.374 . S
C734 C731 1.499 . S
C734 C735 1.373 . S
C734 C736 1.389 . S
C735 H714 0.950 . S
C735 C734 1.373 . S
C735 C751 1.377 . S
C736 C734 1.389 . S
C736 C737 1.524 . S
C736 C750 1.377 . S
C737 C736 1.524 . S
C737 C738 1.397 . S
C737 C742 1.363 . S
C738 H715 0.950 . S
C738 C737 1.397 . S
C738 C739 1.334 . S
C739 H716 0.950 . S
C739 C738 1.334 . S
C739 C740 1.287 . S
C740 C739 1.287 . S
C740 C741 1.524 . S
C740 H759 0.913 . S
C741 H717 0.950 . S
C741 C740 1.524 . S
C741 C742 1.415 . S
C742 H718 0.950 . S
C742 C737 1.363 . S
C742 C741 1.415 . S
C743 H719 0.951 . S
C743 C744 1.366 . S
C743 C745 1.388 . S
C744 C743 1.366 . S
C744 C748 1.385 . S
C745 H720 0.951 . S
C745 C743 1.388 . S
C745 C746 1.366 . S
C746 C745 1.366 . S
C746 C747 1.414 . S
C746 C749 1.499 . S
C747 H721 0.950 . S
C747 C746 1.414 . S
C747 C748 1.374 . S
C748 H722 0.950 . S
C748 C744 1.385 . S
C748 C747 1.374 . S
C749 C746 1.499 . S
C749 C750 1.373 . S
C749 C751 1.389 . S
C750 H723 0.950 . S
C750 C736 1.377 . S
C750 C749 1.373 . S
C751 C735 1.377 . S
C751 C749 1.389 . S
C751 C752 1.524 . S
C752 C751 1.524 . S
C752 C753 1.397 . S
C752 C757 1.363 . S
C753 H724 0.950 . S
C753 C752 1.397 . S
C753 C754 1.334 . S
C754 H725 0.950 . S
C754 C753 1.334 . S
C754 C755 1.287 . S
C755 C754 1.287 . S
C755 C756 1.524 . S
C755 H758 0.999 . S
C756 H726 0.950 . S
C756 C755 1.524 . S
C756 C757 1.415 . S
C757 H727 0.950 . S
C757 C752 1.363 . S
C757 C756 1.415 . S
H758 C755 0.999 . S
H759 C740 0.913 . S
H760 C778 0.951 . S
H761 C780 0.951 . S
H762 C782 0.950 . S
H763 C783 0.950 . S
H764 C785 0.950 . S
H765 C788 0.950 . S
H766 C789 0.950 1_556 S
H767 C791 0.950 . S
H768 C792 0.950 . S
H769 C793 0.951 . S
H770 C795 0.951 . S
H771 C797 0.950 . S
H772 C798 0.950 . S
H773 C800 0.950 . S
H774 C803 0.950 . S
H775 C804 0.950 . S
H776 C806 0.950 . S
H777 C807 0.950 . S
C778 H760 0.951 . S
C778 C779 1.366 . S
C778 C780 1.388 . S
C779 C778 1.366 . S
C779 C783 1.385 . S
C780 H761 0.951 . S
C780 C778 1.388 . S
C780 C781 1.366 . S
C781 C780 1.366 . S
C781 C782 1.414 . S
C781 C784 1.499 . S
C782 H762 0.950 . S
C782 C781 1.414 . S
C782 C783 1.374 . S
C783 H763 0.950 . S
C783 C779 1.385 . S
C783 C782 1.374 . S
C784 C781 1.499 . S
C784 C785 1.373 . S
C784 C786 1.389 . S
C785 H764 0.950 . S
C785 C784 1.373 . S
C785 C801 1.377 . S
C786 C784 1.389 . S
C786 C787 1.524 . S
C786 C800 1.377 . S
C787 C786 1.524 . S
C787 C788 1.397 . S
C787 C792 1.363 . S
C788 H765 0.950 . S
C788 C787 1.397 . S
C788 C789 1.334 . S
C789 H766 0.950 1_554 S
C789 C788 1.334 . S
C789 C790 1.287 . S
C790 C789 1.287 . S
C790 C791 1.524 . S
C790 H809 0.913 1_554 S
C791 H767 0.950 . S
C791 C790 1.524 . S
C791 C792 1.415 . S
C792 H768 0.950 . S
C792 C787 1.363 . S
C792 C791 1.415 . S
C793 H769 0.951 . S
C793 C794 1.366 . S
C793 C795 1.388 . S
C794 C793 1.366 . S
C794 C798 1.385 . S
C795 H770 0.951 . S
C795 C793 1.388 . S
C795 C796 1.366 . S
C796 C795 1.366 . S
C796 C797 1.414 . S
C796 C799 1.499 . S
C797 H771 0.950 . S
C797 C796 1.414 . S
C797 C798 1.374 . S
C798 H772 0.950 . S
C798 C794 1.385 . S
C798 C797 1.374 . S
C799 C796 1.499 . S
C799 C800 1.373 . S
C799 C801 1.389 . S
C800 H773 0.950 . S
C800 C786 1.377 . S
C800 C799 1.373 . S
C801 C785 1.377 . S
C801 C799 1.389 . S
C801 C802 1.524 . S
C802 C801 1.524 . S
C802 C803 1.397 . S
C802 C807 1.363 . S
C803 H774 0.950 . S
C803 C802 1.397 . S
C803 C804 1.334 . S
C804 H775 0.950 . S
C804 C803 1.334 . S
C804 C805 1.287 . S
C805 C804 1.287 . S
C805 C806 1.524 . S
C805 H808 0.999 . S
C806 H776 0.950 . S
C806 C805 1.524 . S
C806 C807 1.415 . S
C807 H777 0.950 . S
C807 C802 1.363 . S
C807 C806 1.415 . S
H808 C805 0.999 . S
H809 C790 0.913 1_556 S
H810 C828 0.951 . S
H811 C830 0.951 . S
H812 C832 0.950 . S
H813 C833 0.950 . S
H814 C835 0.950 . S
H815 C838 0.950 1_554 S
H816 C839 0.950 . S
H817 C841 0.950 . S
H818 C842 0.950 . S
H819 C843 0.951 . S
H820 C845 0.951 . S
H821 C847 0.950 . S
H822 C848 0.950 . S
H823 C850 0.950 . S
H824 C853 0.950 . S
H825 C854 0.950 . S
H826 C856 0.950 . S
H827 C857 0.950 . S
C828 H810 0.951 . S
C828 C829 1.366 . S
C828 C830 1.388 . S
C829 C828 1.366 . S
C829 C833 1.385 . S
C830 H811 0.951 . S
C830 C828 1.388 . S
C830 C831 1.366 . S
C831 C830 1.366 . S
C831 C832 1.414 . S
C831 C834 1.499 . S
C832 H812 0.950 . S
C832 C831 1.414 . S
C832 C833 1.374 . S
C833 H813 0.950 . S
C833 C829 1.385 . S
C833 C832 1.374 . S
C834 C831 1.499 . S
C834 C835 1.373 . S
C834 C836 1.389 . S
C835 H814 0.950 . S
C835 C834 1.373 . S
C835 C851 1.377 . S
C836 C834 1.389 . S
C836 C837 1.524 . S
C836 C850 1.377 . S
C837 C836 1.524 . S
C837 C838 1.397 . S
C837 C842 1.363 . S
C838 H815 0.950 1_556 S
C838 C837 1.397 . S
C838 C839 1.334 1_556 S
C839 H816 0.950 . S
C839 C838 1.334 1_554 S
C839 C840 1.287 1_554 S
C840 C839 1.287 1_556 S
C840 C841 1.524 . S
C840 H859 0.913 1_556 S
C841 H817 0.950 . S
C841 C840 1.524 . S
C841 C842 1.415 . S
C842 H818 0.950 . S
C842 C837 1.363 . S
C842 C841 1.415 . S
C843 H819 0.951 . S
C843 C844 1.366 . S
C843 C845 1.388 . S
C844 C843 1.366 . S
C844 C848 1.385 . S
C845 H820 0.951 . S
C845 C843 1.388 . S
C845 C846 1.366 . S
C846 C845 1.366 . S
C846 C847 1.414 . S
C846 C849 1.499 . S
C847 H821 0.950 . S
C847 C846 1.414 . S
C847 C848 1.374 . S
C848 H822 0.950 . S
C848 C844 1.385 . S
C848 C847 1.374 . S
C849 C846 1.499 . S
C849 C850 1.373 . S
C849 C851 1.389 . S
C850 H823 0.950 . S
C850 C836 1.377 . S
C850 C849 1.373 . S
C851 C835 1.377 . S
C851 C849 1.389 . S
C851 C852 1.524 . S
C852 C851 1.524 . S
C852 C853 1.397 . S
C852 C857 1.363 . S
C853 H824 0.950 . S
C853 C852 1.397 . S
C853 C854 1.334 . S
C854 H825 0.950 . S
C854 C853 1.334 . S
C854 C855 1.287 . S
C855 C854 1.287 . S
C855 C856 1.524 . S
C855 H858 0.999 . S
C856 H826 0.950 . S
C856 C855 1.524 . S
C856 C857 1.415 . S
C857 H827 0.950 . S
C857 C852 1.363 . S
C857 C856 1.415 . S
H858 C855 0.999 . S
H859 C840 0.913 1_554 S
H860 C878 0.951 . S
H861 C880 0.951 . S
H862 C882 0.950 . S
H863 C883 0.950 . S
H864 C885 0.950 . S
H865 C888 0.950 . S
H866 C889 0.950 . S
H867 C891 0.950 . S
H868 C892 0.950 . S
H869 C893 0.951 . S
H870 C895 0.951 . S
H871 C897 0.950 . S
H872 C898 0.950 . S
H873 C900 0.950 . S
H874 C903 0.950 . S
H875 C904 0.950 . S
H876 C906 0.950 . S
H877 C907 0.950 . S
C878 H860 0.951 . S
C878 C879 1.366 . S
C878 C880 1.388 . S
C879 C878 1.366 . S
C879 C883 1.385 . S
C880 H861 0.951 . S
C880 C878 1.388 . S
C880 C881 1.366 . S
C881 C880 1.366 . S
C881 C882 1.414 . S
C881 C884 1.499 . S
C882 H862 0.950 . S
C882 C881 1.414 . S
C882 C883 1.374 . S
C883 H863 0.950 . S
C883 C879 1.385 . S
C883 C882 1.374 . S
C884 C881 1.499 . S
C884 C885 1.373 . S
C884 C886 1.389 . S
C885 H864 0.950 . S
C885 C884 1.373 . S
C885 C901 1.377 . S
C886 C884 1.389 . S
C886 C887 1.524 . S
C886 C900 1.377 . S
C887 C886 1.524 . S
C887 C888 1.397 . S
C887 C892 1.363 . S
C888 H865 0.950 . S
C888 C887 1.397 . S
C888 C889 1.334 . S
C889 H866 0.950 . S
C889 C888 1.334 . S
C889 C890 1.287 . S
C890 C889 1.287 . S
C890 C891 1.524 . S
C890 H909 0.913 . S
C891 H867 0.950 . S
C891 C890 1.524 . S
C891 C892 1.415 . S
C892 H868 0.950 . S
C892 C887 1.363 . S
C892 C891 1.415 . S
C893 H869 0.951 . S
C893 C894 1.366 . S
C893 C895 1.388 . S
C894 C893 1.366 . S
C894 C898 1.385 . S
C895 H870 0.951 . S
C895 C893 1.388 . S
C895 C896 1.366 . S
C896 C895 1.366 . S
C896 C897 1.414 . S
C896 C899 1.499 . S
C897 H871 0.950 . S
C897 C896 1.414 . S
C897 C898 1.374 . S
C898 H872 0.950 . S
C898 C894 1.385 . S
C898 C897 1.374 . S
C899 C896 1.499 . S
C899 C900 1.373 . S
C899 C901 1.389 . S
C900 H873 0.950 . S
C900 C886 1.377 . S
C900 C899 1.373 . S
C901 C885 1.377 . S
C901 C899 1.389 . S
C901 C902 1.524 . S
C902 C901 1.524 . S
C902 C903 1.397 . S
C902 C907 1.363 . S
C903 H874 0.950 . S
C903 C902 1.397 . S
C903 C904 1.334 . S
C904 H875 0.950 . S
C904 C903 1.334 . S
C904 C905 1.287 . S
C905 C904 1.287 . S
C905 C906 1.524 . S
C905 H908 0.999 . S
C906 H876 0.950 . S
C906 C905 1.524 . S
C906 C907 1.415 . S
C907 H877 0.950 . S
C907 C902 1.363 . S
C907 C906 1.415 . S
H908 C905 0.999 . S
H909 C890 0.913 . S
H910 C928 0.951 . S
H911 C930 0.951 . S
H912 C932 0.950 . S
H913 C933 0.950 . S
H914 C935 0.950 . S
H915 C938 0.950 . S
H916 C939 0.950 . S
H917 C941 0.950 . S
H918 C942 0.950 . S
H919 C943 0.951 . S
H920 C945 0.951 . S
H921 C947 0.950 . S
H922 C948 0.950 . S
H923 C950 0.950 . S
H924 C953 0.950 . S
H925 C954 0.950 . S
H926 C956 0.950 . S
H927 C957 0.950 . S
C928 H910 0.951 . S
C928 C929 1.366 . S
C928 C930 1.388 . S
C929 C928 1.366 . S
C929 C933 1.385 . S
C930 H911 0.951 . S
C930 C928 1.388 . S
C930 C931 1.366 . S
C931 C930 1.366 . S
C931 C932 1.414 . S
C931 C934 1.499 . S
C932 H912 0.950 . S
C932 C931 1.414 . S
C932 C933 1.374 . S
C933 H913 0.950 . S
C933 C929 1.385 . S
C933 C932 1.374 . S
C934 C931 1.499 . S
C934 C935 1.373 . S
C934 C936 1.389 . S
C935 H914 0.950 . S
C935 C934 1.373 . S
C935 C951 1.377 . S
C936 C934 1.389 . S
C936 C937 1.524 . S
C936 C950 1.377 . S
C937 C936 1.524 . S
C937 C938 1.397 . S
C937 C942 1.363 . S
C938 H915 0.950 . S
C938 C937 1.397 . S
C938 C939 1.334 . S
C939 H916 0.950 . S
C939 C938 1.334 . S
C939 C940 1.287 . S
C940 C939 1.287 . S
C940 C941 1.524 . S
C940 H959 0.913 . S
C941 H917 0.950 . S
C941 C940 1.524 . S
C941 C942 1.415 . S
C942 H918 0.950 . S
C942 C937 1.363 . S
C942 C941 1.415 . S
C943 H919 0.951 . S
C943 C944 1.366 . S
C943 C945 1.388 . S
C944 C943 1.366 . S
C944 C948 1.385 . S
C945 H920 0.951 . S
C945 C943 1.388 . S
C945 C946 1.366 . S
C946 C945 1.366 . S
C946 C947 1.414 . S
C946 C949 1.499 . S
C947 H921 0.950 . S
C947 C946 1.414 . S
C947 C948 1.374 . S
C948 H922 0.950 . S
C948 C944 1.385 . S
C948 C947 1.374 . S
C949 C946 1.499 . S
C949 C950 1.373 . S
C949 C951 1.389 . S
C950 H923 0.950 . S
C950 C936 1.377 . S
C950 C949 1.373 . S
C951 C935 1.377 . S
C951 C949 1.389 . S
C951 C952 1.524 . S
C952 C951 1.524 . S
C952 C953 1.397 . S
C952 C957 1.363 . S
C953 H924 0.950 . S
C953 C952 1.397 . S
C953 C954 1.334 . S
C954 H925 0.950 . S
C954 C953 1.334 . S
C954 C955 1.287 . S
C955 C954 1.287 . S
C955 C956 1.524 . S
C955 H958 0.999 . S
C956 H926 0.950 . S
C956 C955 1.524 . S
C956 C957 1.415 . S
C957 H927 0.950 . S
C957 C952 1.363 . S
C957 C956 1.415 . S
H958 C955 0.999 . S
H959 C940 0.913 . S
H960 C978 0.951 . S
H961 C980 0.951 . S
H962 C982 0.950 . S
H963 C983 0.950 . S
H964 C985 0.950 . S
H965 C988 0.950 . S
H966 C989 0.950 . S
H967 C991 0.950 1_565 S
H968 C992 0.950 . S
H969 C993 0.951 . S
H970 C995 0.951 . S
H971 C997 0.950 . S
H972 C998 0.950 . S
H973 C1000 0.950 . S
H974 C1003 0.950 . S
H975 C1004 0.950 . S
H976 C1006 0.950 1_545 S
H977 C1007 0.950 . S
C978 H960 0.951 . S
C978 C979 1.366 . S
C978 C980 1.388 . S
C979 C978 1.366 . S
C979 C983 1.385 1_665 S
C980 H961 0.951 . S
C980 C978 1.388 . S
C980 C981 1.366 . S
C981 C980 1.366 . S
C981 C982 1.414 1_665 S
C981 C984 1.493 1_565 S
C982 H962 0.950 . S
C982 C981 1.414 1_445 S
C982 C983 1.374 . S
C983 H963 0.950 . S
C983 C979 1.385 1_445 S
C983 C982 1.374 . S
C984 C981 1.493 1_545 S
C984 C985 1.372 1_645 S
C984 C986 1.395 . S
C985 H964 0.950 . S
C985 C984 1.372 1_465 S
C985 C1001 1.377 1_556 S
C986 C984 1.395 . S
C986 C987 1.524 . S
C986 C1000 1.377 1_556 S
C987 C986 1.524 . S
C987 C988 1.397 . S
C987 C992 1.363 1_545 S
C988 H965 0.950 . S
C988 C987 1.397 . S
C988 C989 1.334 . S
C989 H966 0.950 . S
C989 C988 1.334 . S
C989 C990 1.287 . S
C990 C989 1.287 . S
C990 C991 1.524 . S
C990 H1009 0.913 . S
C991 H967 0.950 1_545 S
C991 C990 1.524 . S
C991 C992 1.415 1_545 S
C992 H968 0.950 . S
C992 C987 1.363 1_565 S
C992 C991 1.415 1_565 S
C993 H969 0.951 . S
C993 C994 1.366 . S
C993 C995 1.388 . S
C994 C993 1.366 . S
C994 C998 1.385 1_445 S
C995 H970 0.951 . S
C995 C993 1.388 . S
C995 C996 1.366 . S
C996 C995 1.366 . S
C996 C997 1.414 1_445 S
C996 C999 1.498 1_545 S
C997 H971 0.950 . S
C997 C996 1.414 1_665 S
C997 C998 1.374 . S
C998 H972 0.950 . S
C998 C994 1.385 1_665 S
C998 C997 1.374 . S
C999 C996 1.498 1_565 S
C999 C1000 1.373 1_465 S
C999 C1001 1.390 . S
C1000 H973 0.950 . S
C1000 C986 1.377 1_554 S
C1000 C999 1.373 1_645 S
C1001 C985 1.377 1_554 S
C1001 C999 1.390 . S
C1001 C1002 1.524 . S
C1002 C1001 1.524 . S
C1002 C1003 1.397 . S
C1002 C1007 1.363 1_565 S
C1003 H974 0.950 . S
C1003 C1002 1.397 . S
C1003 C1004 1.334 . S
C1004 H975 0.950 . S
C1004 C1003 1.334 . S
C1004 C1005 1.287 . S
C1005 C1004 1.287 . S
C1005 C1006 1.524 . S
C1005 H1008 0.999 . S
C1006 H976 0.950 1_565 S
C1006 C1005 1.524 . S
C1006 C1007 1.415 1_565 S
C1007 H977 0.950 . S
C1007 C1002 1.363 1_545 S
C1007 C1006 1.415 1_545 S
H1008 C1005 0.999 . S
H1009 C990 0.913 . S
H1010 C1028 0.951 . S
H1011 C1030 0.951 . S
H1012 C1032 0.950 . S
H1013 C1033 0.950 . S
H1014 C1035 0.950 . S
H1015 C1038 0.950 . S
H1016 C1039 0.950 . S
H1017 C1041 0.950 . S
H1018 C1042 0.950 . S
H1019 C1043 0.951 . S
H1020 C1045 0.951 . S
H1021 C1047 0.950 . S
H1022 C1048 0.950 1_556 S
H1023 C1050 0.950 . S
H1024 C1053 0.950 . S
H1025 C1054 0.950 . S
H1026 C1056 0.950 . S
H1027 C1057 0.950 . S
C1028 H1010 0.951 . S
C1028 C1029 1.366 . S
C1028 C1030 1.388 . S
C1029 C1028 1.366 . S
C1029 C1033 1.385 . S
C1030 H1011 0.951 . S
C1030 C1028 1.388 . S
C1030 C1031 1.366 . S
C1031 C1030 1.366 . S
C1031 C1032 1.414 . S
C1031 C1034 1.499 . S
C1032 H1012 0.950 . S
C1032 C1031 1.414 . S
C1032 C1033 1.374 . S
C1033 H1013 0.950 . S
C1033 C1029 1.385 . S
C1033 C1032 1.374 . S
C1034 C1031 1.499 . S
C1034 C1035 1.373 . S
C1034 C1036 1.389 . S
C1035 H1014 0.950 . S
C1035 C1034 1.373 . S
C1035 C1051 1.377 . S
C1036 C1034 1.389 . S
C1036 C1037 1.524 . S
C1036 C1050 1.377 . S
C1037 C1036 1.524 . S
C1037 C1038 1.397 . S
C1037 C1042 1.363 . S
C1038 H1015 0.950 . S
C1038 C1037 1.397 . S
C1038 C1039 1.334 . S
C1039 H1016 0.950 . S
C1039 C1038 1.334 . S
C1039 C1040 1.287 . S
C1040 C1039 1.287 . S
C1040 C1041 1.524 . S
C1040 H1059 0.913 . S
C1041 H1017 0.950 . S
C1041 C1040 1.524 . S
C1041 C1042 1.415 . S
C1042 H1018 0.950 . S
C1042 C1037 1.363 . S
C1042 C1041 1.415 . S
C1043 H1019 0.951 . S
C1043 C1044 1.366 . S
C1043 C1045 1.388 . S
C1044 C1043 1.366 . S
C1044 C1048 1.385 . S
C1045 H1020 0.951 . S
C1045 C1043 1.388 . S
C1045 C1046 1.366 . S
C1046 C1045 1.366 . S
C1046 C1047 1.414 . S
C1046 C1049 1.499 . S
C1047 H1021 0.950 . S
C1047 C1046 1.414 . S
C1047 C1048 1.374 . S
C1048 H1022 0.950 1_554 S
C1048 C1044 1.385 . S
C1048 C1047 1.374 . S
C1049 C1046 1.499 . S
C1049 C1050 1.373 . S
C1049 C1051 1.389 . S
C1050 H1023 0.950 . S
C1050 C1036 1.377 . S
C1050 C1049 1.373 . S
C1051 C1035 1.377 . S
C1051 C1049 1.389 . S
C1051 C1052 1.524 . S
C1052 C1051 1.524 . S
C1052 C1053 1.397 . S
C1052 C1057 1.363 . S
C1053 H1024 0.950 . S
C1053 C1052 1.397 . S
C1053 C1054 1.334 . S
C1054 H1025 0.950 . S
C1054 C1053 1.334 . S
C1054 C1055 1.287 . S
C1055 C1054 1.287 . S
C1055 C1056 1.524 . S
C1055 H1058 0.999 . S
C1056 H1026 0.950 . S
C1056 C1055 1.524 . S
C1056 C1057 1.415 . S
C1057 H1027 0.950 . S
C1057 C1052 1.363 . S
C1057 C1056 1.415 . S
H1058 C1055 0.999 . S
H1059 C1040 0.913 . S
H1060 C1078 0.951 . S
H1061 C1080 0.951 . S
H1062 C1082 0.950 . S
H1063 C1083 0.950 . S
H1064 C1085 0.950 . S
H1065 C1088 0.950 1_545 S
H1066 C1089 0.950 . S
H1067 C1091 0.950 . S
H1068 C1092 0.950 . S
H1069 C1093 0.951 . S
H1070 C1095 0.951 . S
H1071 C1097 0.950 . S
H1072 C1098 0.950 . S
H1073 C1100 0.950 . S
H1074 C1103 0.950 1_565 S
H1075 C1104 0.950 . S
H1076 C1106 0.950 . S
H1077 C1107 0.950 . S
C1078 H1060 0.951 . S
C1078 C1079 1.366 1_565 S
C1078 C1080 1.388 . S
C1079 C1078 1.366 1_545 S
C1079 C1083 1.385 . S
C1080 H1061 0.951 . S
C1080 C1078 1.388 . S
C1080 C1081 1.366 1_565 S
C1081 C1080 1.366 1_545 S
C1081 C1082 1.414 . S
C1081 C1084 1.499 . S
C1082 H1062 0.950 . S
C1082 C1081 1.414 . S
C1082 C1083 1.374 . S
C1083 H1063 0.950 . S
C1083 C1079 1.385 . S
C1083 C1082 1.374 . S
C1084 C1081 1.499 . S
C1084 C1085 1.373 . S
C1084 C1086 1.389 1_545 S
C1085 H1064 0.950 . S
C1085 C1084 1.373 . S
C1085 C1101 1.377 . S
C1086 C1084 1.389 1_565 S
C1086 C1087 1.524 . S
C1086 C1100 1.377 . S
C1087 C1086 1.524 . S
C1087 C1088 1.397 . S
C1087 C1092 1.363 . S
C1088 H1065 0.950 1_565 S
C1088 C1087 1.397 . S
C1088 C1089 1.334 . S
C1089 H1066 0.950 . S
C1089 C1088 1.334 . S
C1089 C1090 1.287 . S
C1090 C1089 1.287 . S
C1090 C1091 1.524 . S
C1090 H1109 0.913 . S
C1091 H1067 0.950 . S
C1091 C1090 1.524 . S
C1091 C1092 1.415 . S
C1092 H1068 0.950 . S
C1092 C1087 1.363 . S
C1092 C1091 1.415 . S
C1093 H1069 0.951 . S
C1093 C1094 1.366 1_545 S
C1093 C1095 1.388 . S
C1094 C1093 1.366 1_565 S
C1094 C1098 1.385 . S
C1095 H1070 0.951 . S
C1095 C1093 1.388 . S
C1095 C1096 1.366 1_545 S
C1096 C1095 1.366 1_565 S
C1096 C1097 1.414 . S
C1096 C1099 1.499 . S
C1097 H1071 0.950 . S
C1097 C1096 1.414 . S
C1097 C1098 1.374 . S
C1098 H1072 0.950 . S
C1098 C1094 1.385 . S
C1098 C1097 1.374 . S
C1099 C1096 1.499 . S
C1099 C1100 1.373 . S
C1099 C1101 1.389 1_565 S
C1100 H1073 0.950 . S
C1100 C1086 1.377 . S
C1100 C1099 1.373 . S
C1101 C1085 1.377 . S
C1101 C1099 1.389 1_545 S
C1101 C1102 1.524 . S
C1102 C1101 1.524 . S
C1102 C1103 1.397 . S
C1102 C1107 1.363 . S
C1103 H1074 0.950 1_545 S
C1103 C1102 1.397 . S
C1103 C1104 1.334 . S
C1104 H1075 0.950 . S
C1104 C1103 1.334 . S
C1104 C1105 1.287 . S
C1105 C1104 1.287 . S
C1105 C1106 1.524 . S
C1105 H1108 0.999 . S
C1106 H1076 0.950 . S
C1106 C1105 1.524 . S
C1106 C1107 1.415 . S
C1107 H1077 0.950 . S
C1107 C1102 1.363 . S
C1107 C1106 1.415 . S
H1108 C1105 0.999 . S
H1109 C1090 0.913 . S
H1110 C1128 0.951 . S
H1111 C1130 0.951 . S
H1112 C1132 0.950 . S
H1113 C1133 0.950 . S
H1114 C1135 0.950 . S
H1115 C1138 0.950 . S
H1116 C1139 0.950 . S
H1117 C1141 0.950 . S
H1118 C1142 0.950 . S
H1119 C1143 0.951 . S
H1120 C1145 0.951 . S
H1121 C1147 0.950 . S
H1122 C1148 0.950 . S
H1123 C1150 0.950 . S
H1124 C1153 0.950 . S
H1125 C1154 0.950 . S
H1126 C1156 0.950 . S
H1127 C1157 0.950 . S
C1128 H1110 0.951 . S
C1128 C1129 1.366 . S
C1128 C1130 1.388 . S
C1129 C1128 1.366 . S
C1129 C1133 1.385 . S
C1130 H1111 0.951 . S
C1130 C1128 1.388 . S
C1130 C1131 1.366 . S
C1131 C1130 1.366 . S
C1131 C1132 1.414 . S
C1131 C1134 1.499 . S
C1132 H1112 0.950 . S
C1132 C1131 1.414 . S
C1132 C1133 1.374 . S
C1133 H1113 0.950 . S
C1133 C1129 1.385 . S
C1133 C1132 1.374 . S
C1134 C1131 1.499 . S
C1134 C1135 1.373 . S
C1134 C1136 1.389 . S
C1135 H1114 0.950 . S
C1135 C1134 1.373 . S
C1135 C1151 1.377 . S
C1136 C1134 1.389 . S
C1136 C1137 1.524 . S
C1136 C1150 1.377 . S
C1137 C1136 1.524 . S
C1137 C1138 1.397 . S
C1137 C1142 1.363 . S
C1138 H1115 0.950 . S
C1138 C1137 1.397 . S
C1138 C1139 1.334 . S
C1139 H1116 0.950 . S
C1139 C1138 1.334 . S
C1139 C1140 1.287 . S
C1140 C1139 1.287 . S
C1140 C1141 1.524 . S
C1140 H1159 0.913 . S
C1141 H1117 0.950 . S
C1141 C1140 1.524 . S
C1141 C1142 1.415 . S
C1142 H1118 0.950 . S
C1142 C1137 1.363 . S
C1142 C1141 1.415 . S
C1143 H1119 0.951 . S
C1143 C1144 1.366 . S
C1143 C1145 1.388 . S
C1144 C1143 1.366 . S
C1144 C1148 1.385 . S
C1145 H1120 0.951 . S
C1145 C1143 1.388 . S
C1145 C1146 1.366 . S
C1146 C1145 1.366 . S
C1146 C1147 1.414 . S
C1146 C1149 1.499 . S
C1147 H1121 0.950 . S
C1147 C1146 1.414 . S
C1147 C1148 1.374 . S
C1148 H1122 0.950 . S
C1148 C1144 1.385 . S
C1148 C1147 1.374 . S
C1149 C1146 1.499 . S
C1149 C1150 1.373 . S
C1149 C1151 1.389 . S
C1150 H1123 0.950 . S
C1150 C1136 1.377 . S
C1150 C1149 1.373 . S
C1151 C1135 1.377 . S
C1151 C1149 1.389 . S
C1151 C1152 1.524 . S
C1152 C1151 1.524 . S
C1152 C1153 1.397 . S
C1152 C1157 1.363 . S
C1153 H1124 0.950 . S
C1153 C1152 1.397 . S
C1153 C1154 1.334 . S
C1154 H1125 0.950 . S
C1154 C1153 1.334 . S
C1154 C1155 1.287 . S
C1155 C1154 1.287 . S
C1155 C1156 1.524 . S
C1155 H1158 0.999 . S
C1156 H1126 0.950 . S
C1156 C1155 1.524 . S
C1156 C1157 1.415 . S
C1157 H1127 0.950 . S
C1157 C1152 1.363 . S
C1157 C1156 1.415 . S
H1158 C1155 0.999 . S
H1159 C1140 0.913 . S
H1160 C1178 0.951 . S
H1161 C1180 0.951 . S
H1162 C1182 0.950 . S
H1163 C1183 0.950 . S
H1164 C1185 0.950 . S
H1165 C1188 0.950 . S
H1166 C1189 0.950 . S
H1167 C1191 0.950 . S
H1168 C1192 0.950 . S
H1169 C1193 0.951 . S
H1170 C1195 0.951 . S
H1171 C1197 0.950 . S
H1172 C1198 0.950 . S
H1173 C1200 0.950 . S
H1174 C1203 0.950 . S
H1175 C1204 0.950 . S
H1176 C1206 0.950 . S
H1177 C1207 0.950 . S
C1178 H1160 0.951 . S
C1178 C1179 1.366 . S
C1178 C1180 1.388 . S
C1179 C1178 1.366 . S
C1179 C1183 1.385 . S
C1180 H1161 0.951 . S
C1180 C1178 1.388 . S
C1180 C1181 1.366 . S
C1181 C1180 1.366 . S
C1181 C1182 1.414 . S
C1181 C1184 1.499 . S
C1182 H1162 0.950 . S
C1182 C1181 1.414 . S
C1182 C1183 1.374 . S
C1183 H1163 0.950 . S
C1183 C1179 1.385 . S
C1183 C1182 1.374 . S
C1184 C1181 1.499 . S
C1184 C1185 1.373 . S
C1184 C1186 1.389 . S
C1185 H1164 0.950 . S
C1185 C1184 1.373 . S
C1185 C1201 1.377 . S
C1186 C1184 1.389 . S
C1186 C1187 1.524 . S
C1186 C1200 1.377 . S
C1187 C1186 1.524 . S
C1187 C1188 1.397 . S
C1187 C1192 1.363 . S
C1188 H1165 0.950 . S
C1188 C1187 1.397 . S
C1188 C1189 1.334 . S
C1189 H1166 0.950 . S
C1189 C1188 1.334 . S
C1189 C1190 1.287 . S
C1190 C1189 1.287 . S
C1190 C1191 1.524 . S
C1190 H1209 0.913 . S
C1191 H1167 0.950 . S
C1191 C1190 1.524 . S
C1191 C1192 1.415 . S
C1192 H1168 0.950 . S
C1192 C1187 1.363 . S
C1192 C1191 1.415 . S
C1193 H1169 0.951 . S
C1193 C1194 1.366 . S
C1193 C1195 1.388 . S
C1194 C1193 1.366 . S
C1194 C1198 1.385 . S
C1195 H1170 0.951 . S
C1195 C1193 1.388 . S
C1195 C1196 1.366 . S
C1196 C1195 1.366 . S
C1196 C1197 1.414 . S
C1196 C1199 1.499 . S
C1197 H1171 0.950 . S
C1197 C1196 1.414 . S
C1197 C1198 1.374 . S
C1198 H1172 0.950 . S
C1198 C1194 1.385 . S
C1198 C1197 1.374 . S
C1199 C1196 1.499 . S
C1199 C1200 1.373 . S
C1199 C1201 1.389 . S
C1200 H1173 0.950 . S
C1200 C1186 1.377 . S
C1200 C1199 1.373 . S
C1201 C1185 1.377 . S
C1201 C1199 1.389 . S
C1201 C1202 1.524 . S
C1202 C1201 1.524 . S
C1202 C1203 1.397 . S
C1202 C1207 1.363 . S
C1203 H1174 0.950 . S
C1203 C1202 1.397 . S
C1203 C1204 1.334 . S
C1204 H1175 0.950 . S
C1204 C1203 1.334 . S
C1204 C1205 1.287 . S
C1205 C1204 1.287 . S
C1205 C1206 1.524 . S
C1205 H1208 0.999 . S
C1206 H1176 0.950 . S
C1206 C1205 1.524 . S
C1206 C1207 1.415 . S
C1207 H1177 0.950 . S
C1207 C1202 1.363 . S
C1207 C1206 1.415 . S
H1208 C1205 0.999 . S
H1209 C1190 0.913 . S
H1210 C1228 0.951 . S
H1211 C1230 0.951 . S
H1212 C1232 0.950 . S
H1213 C1233 0.950 . S
H1214 C1235 0.950 . S
H1215 C1238 0.950 . S
H1216 C1239 0.950 . S
H1217 C1241 0.950 . S
H1218 C1242 0.950 . S
H1219 C1243 0.951 . S
H1220 C1245 0.951 . S
H1221 C1247 0.950 . S
H1222 C1248 0.950 . S
H1223 C1250 0.950 . S
H1224 C1253 0.950 . S
H1225 C1254 0.950 . S
H1226 C1256 0.950 . S
H1227 C1257 0.950 . S
C1228 H1210 0.951 . S
C1228 C1229 1.366 . S
C1228 C1230 1.388 . S
C1229 C1228 1.366 . S
C1229 C1233 1.385 . S
C1230 H1211 0.951 . S
C1230 C1228 1.388 . S
C1230 C1231 1.366 . S
C1231 C1230 1.366 . S
C1231 C1232 1.414 . S
C1231 C1234 1.499 . S
C1232 H1212 0.950 . S
C1232 C1231 1.414 . S
C1232 C1233 1.374 . S
C1233 H1213 0.950 . S
C1233 C1229 1.385 . S
C1233 C1232 1.374 . S
C1234 C1231 1.499 . S
C1234 C1235 1.373 . S
C1234 C1236 1.389 . S
C1235 H1214 0.950 . S
C1235 C1234 1.373 . S
C1235 C1251 1.377 . S
C1236 C1234 1.389 . S
C1236 C1237 1.524 . S
C1236 C1250 1.377 . S
C1237 C1236 1.524 . S
C1237 C1238 1.397 . S
C1237 C1242 1.363 . S
C1238 H1215 0.950 . S
C1238 C1237 1.397 . S
C1238 C1239 1.334 . S
C1239 H1216 0.950 . S
C1239 C1238 1.334 . S
C1239 C1240 1.287 . S
C1240 C1239 1.287 . S
C1240 C1241 1.524 . S
C1240 H1259 0.913 . S
C1241 H1217 0.950 . S
C1241 C1240 1.524 . S
C1241 C1242 1.415 . S
C1242 H1218 0.950 . S
C1242 C1237 1.363 . S
C1242 C1241 1.415 . S
C1243 H1219 0.951 . S
C1243 C1244 1.366 . S
C1243 C1245 1.388 . S
C1244 C1243 1.366 . S
C1244 C1248 1.385 . S
C1245 H1220 0.951 . S
C1245 C1243 1.388 . S
C1245 C1246 1.366 . S
C1246 C1245 1.366 . S
C1246 C1247 1.414 . S
C1246 C1249 1.499 . S
C1247 H1221 0.950 . S
C1247 C1246 1.414 . S
C1247 C1248 1.374 . S
C1248 H1222 0.950 . S
C1248 C1244 1.385 . S
C1248 C1247 1.374 . S
C1249 C1246 1.499 . S
C1249 C1250 1.373 . S
C1249 C1251 1.389 . S
C1250 H1223 0.950 . S
C1250 C1236 1.377 . S
C1250 C1249 1.373 . S
C1251 C1235 1.377 . S
C1251 C1249 1.389 . S
C1251 C1252 1.524 . S
C1252 C1251 1.524 . S
C1252 C1253 1.397 . S
C1252 C1257 1.363 . S
C1253 H1224 0.950 . S
C1253 C1252 1.397 . S
C1253 C1254 1.334 . S
C1254 H1225 0.950 . S
C1254 C1253 1.334 . S
C1254 C1255 1.287 . S
C1255 C1254 1.287 . S
C1255 C1256 1.524 . S
C1255 H1258 0.999 . S
C1256 H1226 0.950 . S
C1256 C1255 1.524 . S
C1256 C1257 1.415 . S
C1257 H1227 0.950 . S
C1257 C1252 1.363 . S
C1257 C1256 1.415 . S
H1258 C1255 0.999 . S
H1259 C1240 0.913 . S
H1260 C1278 0.951 . S
H1261 C1280 0.951 . S
H1262 C1282 0.950 . S
H1263 C1283 0.950 . S
H1264 C1285 0.950 . S
H1265 C1288 0.950 . S
H1266 C1289 0.950 . S
H1267 C1291 0.950 . S
H1268 C1292 0.950 . S
H1269 C1293 0.951 . S
H1270 C1295 0.951 . S
H1271 C1297 0.950 . S
H1272 C1298 0.950 . S
H1273 C1300 0.950 . S
H1274 C1303 0.950 . S
H1275 C1304 0.950 . S
H1276 C1306 0.950 . S
H1277 C1307 0.950 . S
C1278 H1260 0.951 . S
C1278 C1279 1.366 . S
C1278 C1280 1.388 . S
C1279 C1278 1.366 . S
C1279 C1283 1.385 . S
C1280 H1261 0.951 . S
C1280 C1278 1.388 . S
C1280 C1281 1.366 . S
C1281 C1280 1.366 . S
C1281 C1282 1.414 . S
C1281 C1284 1.499 . S
C1282 H1262 0.950 . S
C1282 C1281 1.414 . S
C1282 C1283 1.374 . S
C1283 H1263 0.950 . S
C1283 C1279 1.385 . S
C1283 C1282 1.374 . S
C1284 C1281 1.499 . S
C1284 C1285 1.373 . S
C1284 C1286 1.389 . S
C1285 H1264 0.950 . S
C1285 C1284 1.373 . S
C1285 C1301 1.377 . S
C1286 C1284 1.389 . S
C1286 C1287 1.524 . S
C1286 C1300 1.377 . S
C1287 C1286 1.524 . S
C1287 C1288 1.397 . S
C1287 C1292 1.363 . S
C1288 H1265 0.950 . S
C1288 C1287 1.397 . S
C1288 C1289 1.334 . S
C1289 H1266 0.950 . S
C1289 C1288 1.334 . S
C1289 C1290 1.287 . S
C1290 C1289 1.287 . S
C1290 C1291 1.524 . S
C1290 H1309 0.913 . S
C1291 H1267 0.950 . S
C1291 C1290 1.524 . S
C1291 C1292 1.415 . S
C1292 H1268 0.950 . S
C1292 C1287 1.363 . S
C1292 C1291 1.415 . S
C1293 H1269 0.951 . S
C1293 C1294 1.366 . S
C1293 C1295 1.388 . S
C1294 C1293 1.366 . S
C1294 C1298 1.385 . S
C1295 H1270 0.951 . S
C1295 C1293 1.388 . S
C1295 C1296 1.366 . S
C1296 C1295 1.366 . S
C1296 C1297 1.414 . S
C1296 C1299 1.499 . S
C1297 H1271 0.950 . S
C1297 C1296 1.414 . S
C1297 C1298 1.374 . S
C1298 H1272 0.950 . S
C1298 C1294 1.385 . S
C1298 C1297 1.374 . S
C1299 C1296 1.499 . S
C1299 C1300 1.373 . S
C1299 C1301 1.389 . S
C1300 H1273 0.950 . S
C1300 C1286 1.377 . S
C1300 C1299 1.373 . S
C1301 C1285 1.377 . S
C1301 C1299 1.389 . S
C1301 C1302 1.524 . S
C1302 C1301 1.524 . S
C1302 C1303 1.397 . S
C1302 C1307 1.363 . S
C1303 H1274 0.950 . S
C1303 C1302 1.397 . S
C1303 C1304 1.334 . S
C1304 H1275 0.950 . S
C1304 C1303 1.334 . S
C1304 C1305 1.287 . S
C1305 C1304 1.287 . S
C1305 C1306 1.524 . S
C1305 H1308 0.999 . S
C1306 H1276 0.950 . S
C1306 C1305 1.524 . S
C1306 C1307 1.415 . S
C1307 H1277 0.950 . S
C1307 C1302 1.363 . S
C1307 C1306 1.415 . S
H1308 C1305 0.999 . S
H1309 C1290 0.913 . S
H1310 C1328 0.951 . S
H1311 C1330 0.951 . S
H1312 C1332 0.950 . S
H1313 C1333 0.950 . S
H1314 C1335 0.950 . S
H1315 C1338 0.931 1_455 S
H1316 C1339 0.950 1_455 S
H1317 C1341 0.950 . S
H1318 C1342 0.950 . S
H1319 C1343 0.951 . S
H1320 C1345 0.951 . S
H1321 C1347 0.950 . S
H1322 C1348 0.950 . S
H1323 C1350 0.950 . S
H1324 C1353 0.922 1_655 S
H1325 C1354 0.950 1_655 S
H1326 C1356 0.950 . S
H1327 C1357 0.950 . S
C1328 H1310 0.951 . S
C1328 C1329 1.366 . S
C1328 C1330 1.388 . S
C1329 C1328 1.366 . S
C1329 C1333 1.385 1_655 S
C1330 H1311 0.951 . S
C1330 C1328 1.388 . S
C1330 C1331 1.366 . S
C1331 C1330 1.366 . S
C1331 C1332 1.414 1_655 S
C1331 C1334 1.498 . S
C1332 H1312 0.950 . S
C1332 C1331 1.414 1_455 S
C1332 C1333 1.374 . S
C1333 H1313 0.950 . S
C1333 C1329 1.385 1_455 S
C1333 C1332 1.374 . S
C1334 C1331 1.498 . S
C1334 C1335 1.365 1_655 S
C1334 C1336 1.402 . S
C1335 H1314 0.950 . S
C1335 C1334 1.365 1_455 S
C1335 C1351 1.377 1_556 S
C1336 C1334 1.402 . S
C1336 C1337 1.524 . S
C1336 C1350 1.377 1_556 S
C1337 C1336 1.524 . S
C1337 C1338 1.412 . S
C1337 C1342 1.363 . S
C1338 H1315 0.931 1_655 S
C1338 C1337 1.412 . S
C1338 C1339 1.337 . S
C1339 H1316 0.950 1_655 S
C1339 C1338 1.337 . S
C1339 C1340 1.287 . S
C1340 C1339 1.287 . S
C1340 C1341 1.524 . S
C1340 H1359 0.913 . S
C1341 H1317 0.950 . S
C1341 C1340 1.524 . S
C1341 C1342 1.415 . S
C1342 H1318 0.950 . S
C1342 C1337 1.363 . S
C1342 C1341 1.415 . S
C1343 H1319 0.951 . S
C1343 C1344 1.366 . S
C1343 C1345 1.388 . S
C1344 C1343 1.366 . S
C1344 C1348 1.385 1_455 S
C1345 H1320 0.951 . S
C1345 C1343 1.388 . S
C1345 C1346 1.366 . S
C1346 C1345 1.366 . S
C1346 C1347 1.414 1_455 S
C1346 C1349 1.498 . S
C1347 H1321 0.950 . S
C1347 C1346 1.414 1_655 S
C1347 C1348 1.374 . S
C1348 H1322 0.950 . S
C1348 C1344 1.385 1_655 S
C1348 C1347 1.374 . S
C1349 C1346 1.498 . S
C1349 C1350 1.362 1_455 S
C1349 C1351 1.406 . S
C1350 H1323 0.950 . S
C1350 C1336 1.377 1_554 S
C1350 C1349 1.362 1_655 S
C1351 C1335 1.377 1_554 S
C1351 C1349 1.406 . S
C1351 C1352 1.524 . S
C1352 C1351 1.524 . S
C1352 C1353 1.420 . S
C1352 C1357 1.363 . S
C1353 H1324 0.922 1_455 S
C1353 C1352 1.420 . S
C1353 C1354 1.339 . S
C1354 H1325 0.950 1_455 S
C1354 C1353 1.339 . S
C1354 C1355 1.287 . S
C1355 C1354 1.287 . S
C1355 C1356 1.524 . S
C1355 H1358 0.999 . S
C1356 H1326 0.950 . S
C1356 C1355 1.524 . S
C1356 C1357 1.415 . S
C1357 H1327 0.950 . S
C1357 C1352 1.363 . S
C1357 C1356 1.415 . S
H1358 C1355 0.999 . S
H1359 C1340 0.913 . S
C179 C18 1.506 . S
C194 C68 1.488 . S
C229 C8 1.051 . S
C244 C28 1.048 . S
C279 C38 1.506 . S
C294 C48 1.492 . S
C329 C58 1.893 . S
C344 C78 1.893 . S
C379 C19 1.506 . S
C394 C109 1.495 . S
C429 C9 1.050 . S
C444 C89 1.053 . S
C479 C99 1.506 . S
C494 C49 1.492 . S
C529 C119 1.893 . S
C544 C59 1.893 . S
C579 C138 1.506 . S
C594 C108 1.492 . S
C629 C88 1.051 . S
C644 C128 1.052 . S
C679 C148 1.492 . S
C694 C98 1.509 . S
C729 C118 1.893 . S
C744 C158 1.896 . S
C779 C69 1.491 . S
C794 C139 1.505 . S
C829 C129 1.052 . S
C844 C29 1.051 . S
C879 C39 1.506 . S
C894 C149 1.488 . S
C929 C79 1.893 . S
C944 C159 1.890 . S
C979 C1 1.477 . S
C994 C2 1.476 . S
C1029 C21 1.476 . S
C1044 C22 1.476 1_554 S
C1079 C41 1.497 . S
C1094 C42 1.497 . S
C1129 C62 1.497 1_556 S
C1144 C61 1.497 . S
C1179 C81 1.476 1_556 S
C1194 C82 1.476 . S
C1229 C102 1.498 . S
C1244 C101 1.498 1_554 S
C1279 C122 1.477 . S
C1294 C121 1.477 . S
C1329 C142 1.497 . S
C1344 C141 1.497 . S
