# Generated by pormake.
# Topology acs-f, (3)-cn, num edge types: 1
# Building blocks:
#     Node 0, Type 0, BuildingBlock: WUSLED_clean_sbu_0, # of connection points: 3
#     Node 1, Type 0, BuildingBlock: WUSLED_clean_sbu_0, # of connection points: 3
#     Node 2, Type 0, BuildingBlock: WUSLED_clean_sbu_0, # of connection points: 3
#     Node 3, Type 0, BuildingBlock: WUSLED_clean_sbu_0, # of connection points: 3
#     Node 4, Type 0, BuildingBlock: WUSLED_clean_sbu_0, # of connection points: 3
#     Node 5, Type 0, BuildingBlock: WUSLED_clean_sbu_0, # of connection points: 3
#     Node 6, Type 0, BuildingBlock: WUSLED_clean_sbu_0, # of connection points: 3
#     Node 7, Type 0, BuildingBlock: WUSLED_clean_sbu_0, # of connection points: 3
#     Node 8, Type 0, BuildingBlock: WUSLED_clean_sbu_0, # of connection points: 3
#     Node 9, Type 0, BuildingBlock: WUSLED_clean_sbu_0, # of connection points: 3
#     Node 10, Type 0, BuildingBlock: WUSLED_clean_sbu_0, # of connection points: 3
#     Node 11, Type 0, BuildingBlock: WUSLED_clean_sbu_0, # of connection points: 3
#     Edge 12, Type (0, 0), BuildingBlock: ZUJKAS_clean_linker_0, # of connection points: 2
#     Edge 13, Type (0, 0), BuildingBlock: ZUJKAS_clean_linker_0, # of connection points: 2
#     Edge 14, Type (0, 0), BuildingBlock: ZUJKAS_clean_linker_0, # of connection points: 2
#     Edge 15, Type (0, 0), BuildingBlock: ZUJKAS_clean_linker_0, # of connection points: 2
#     Edge 16, Type (0, 0), BuildingBlock: ZUJKAS_clean_linker_0, # of connection points: 2
#     Edge 17, Type (0, 0), BuildingBlock: ZUJKAS_clean_linker_0, # of connection points: 2
#     Edge 18, Type (0, 0), BuildingBlock: ZUJKAS_clean_linker_0, # of connection points: 2
#     Edge 19, Type (0, 0), BuildingBlock: ZUJKAS_clean_linker_0, # of connection points: 2
#     Edge 20, Type (0, 0), BuildingBlock: ZUJKAS_clean_linker_0, # of connection points: 2
#     Edge 21, Type (0, 0), BuildingBlock: ZUJKAS_clean_linker_0, # of connection points: 2
#     Edge 22, Type (0, 0), BuildingBlock: ZUJKAS_clean_linker_0, # of connection points: 2
#     Edge 23, Type (0, 0), BuildingBlock: ZUJKAS_clean_linker_0, # of connection points: 2
#     Edge 24, Type (0, 0), BuildingBlock: ZUJKAS_clean_linker_0, # of connection points: 2
#     Edge 25, Type (0, 0), BuildingBlock: ZUJKAS_clean_linker_0, # of connection points: 2
#     Edge 26, Type (0, 0), BuildingBlock: ZUJKAS_clean_linker_0, # of connection points: 2
#     Edge 27, Type (0, 0), BuildingBlock: ZUJKAS_clean_linker_0, # of connection points: 2
#     Edge 28, Type (0, 0), BuildingBlock: ZUJKAS_clean_linker_0, # of connection points: 2
#     Edge 29, Type (0, 0), BuildingBlock: ZUJKAS_clean_linker_0, # of connection points: 2
# Relax obj value: 0.272
# Max RMSD: 0.159
# Mean RMSD: 0.147
data_MOF--net-acs-f--node1-WUSLED_clean_sbu_0--edge1-ZUJKAS_clean_linker_0
_symmetry_space_group_name_H-M    P1
_symmetry_Int_Tables_number       1
_symmetry_cell_setting            triclinic
loop_
_symmetry_equiv_pos_as_xyz
'x, y, z'
_cell_length_a     62.03283
_cell_length_b     62.025464
_cell_length_c     77.971069
_cell_angle_alpha  89.820332
_cell_angle_beta   89.853818
_cell_angle_gamma 114.82332
loop_
_atom_site_label
_atom_site_type_symbol
_atom_site_fract_x
_atom_site_fract_y
_atom_site_fract_z
_atom_type_partial_charge
C0 C 0.08392 0.36219 0.16783 0.0
C1 C 0.08795 0.37306 0.18401 0.0
C2 C 0.10797 0.3486 0.19346 0.0
C3 C 0.09979 0.36624 0.19675 0.0
C4 C 0.10279 0.337 0.17754 0.0
C5 C 0.0909 0.34373 0.1649 0.0
U6 U 0.04823 0.38859 0.13848 0.0
O7 O 0.06669 0.41664 0.11956 0.0
O8 O 0.04227 0.38117 0.11084 0.0
C9 C 0.05585 0.40323 0.10648 0.0
C10 C 0.07637 0.37197 0.15291 0.0
C11 C 0.04608 0.41424 0.09376 0.0
C12 C 0.0461 0.4273 0.06442 0.0
C13 C 0.05355 0.41554 0.07671 0.0
C14 C 0.02293 0.43619 0.08604 0.0
C15 C 0.03078 0.43792 0.06888 0.0
C16 C 0.03056 0.42446 0.0984 0.0
C17 C 0.99921 0.3904 0.17021 0.0
C18 C 0.96734 0.39739 0.18335 0.0
C19 C 0.99631 0.39144 0.2012 0.0
C20 C 0.00775 0.38838 0.18648 0.0
C21 C 0.97656 0.39708 0.19978 0.0
C22 C 0.97847 0.39394 0.16879 0.0
C23 C 0.01289 0.39258 0.15445 0.0
O24 O 0.05674 0.3583 0.14492 0.0
O25 O 0.08034 0.39453 0.15319 0.0
O26 O 0.01055 0.37308 0.14647 0.0
O27 O 0.03458 0.40952 0.15403 0.0
H28 H 0.08292 0.3875 0.18655 0.0
H29 H 0.10362 0.37562 0.20884 0.0
H30 H 0.1085 0.32313 0.17468 0.0
H31 H 0.08819 0.33525 0.15246 0.0
H32 H 0.05297 0.42862 0.0515 0.0
H33 H 0.06565 0.40787 0.07295 0.0
H34 H 0.01093 0.44389 0.08993 0.0
H35 H 0.0246 0.42361 0.11156 0.0
H36 H 0.95255 0.40207 0.1815 0.0
H37 H 1.00363 0.3905 0.21363 0.0
H38 H 0.02378 0.3856 0.18777 0.0
H39 H 0.97175 0.39568 0.15628 0.0
C40 C 0.64734 0.69133 0.16993 0.0
C41 C 0.6374 0.6844 0.18636 0.0
C42 C 0.66028 0.72449 0.19696 0.0
C43 C 0.64377 0.70085 0.19973 0.0
C44 C 0.67123 0.73094 0.18078 0.0
C45 C 0.66475 0.71451 0.16739 0.0
U46 U 0.62619 0.63081 0.14739 0.0
O47 O 0.59511 0.61458 0.13069 0.0
O48 O 0.63096 0.62342 0.12025 0.0
C49 C 0.60804 0.61503 0.11719 0.0
C50 C 0.63829 0.67556 0.15501 0.0
C51 C 0.59753 0.59666 0.10395 0.0
C52 C 0.59236 0.58861 0.07339 0.0
C53 C 0.60493 0.60298 0.08695 0.0
C54 C 0.56537 0.56044 0.09364 0.0
C55 C 0.57203 0.5675 0.07652 0.0
C56 C 0.57794 0.57498 0.10727 0.0
C57 C 0.6298 0.58065 0.17715 0.0
C58 C 0.60521 0.53883 0.18248 0.0
C59 C 0.64173 0.55908 0.19833 0.0
C60 C 0.64621 0.57989 0.18919 0.0
C61 C 0.62073 0.53861 0.19555 0.0
C62 C 0.60965 0.55978 0.17336 0.0
C63 C 0.63238 0.60414 0.17127 0.0
O64 O 0.65299 0.66807 0.1477 0.0
O65 O 0.6165 0.65901 0.15638 0.0
O66 O 0.61287 0.60745 0.16979 0.0
O67 O 0.64856 0.61525 0.15955 0.0
H68 H 0.62412 0.66653 0.18874 0.0
H69 H 0.63534 0.69524 0.21214 0.0
H70 H 0.68393 0.74901 0.17822 0.0
H71 H 0.67266 0.72019 0.15483 0.0
H72 H 0.59823 0.59438 0.0604 0.0
H73 H 0.61981 0.61975 0.08406 0.0
H74 H 0.54975 0.5443 0.09648 0.0
H75 H 0.57173 0.56981 0.12028 0.0
H76 H 0.5888 0.52334 0.18014 0.0
H77 H 0.65411 0.55935 0.20819 0.0
H78 H 0.6618 0.59586 0.19233 0.0
H79 H 0.59672 0.56003 0.16415 0.0
C80 C 0.29153 0.92491 0.16609 0.0
C81 C 0.29847 0.93009 0.18326 0.0
C82 C 0.25844 0.90368 0.1928 0.0
C83 C 0.28202 0.91962 0.19652 0.0
C84 C 0.25164 0.89916 0.1755 0.0
C85 C 0.26799 0.90974 0.16232 0.0
U86 U 0.35338 0.96334 0.14742 0.0
O87 O 0.37259 0.9523 0.1282 0.0
O88 O 0.36221 0.9814 0.12222 0.0
C89 C 0.37252 0.96796 0.11681 0.0
C90 C 0.30869 0.93378 0.15191 0.0
C91 C 0.39308 0.9785 0.10513 0.0
C92 C 0.40634 0.99078 0.07589 0.0
C93 C 0.38902 0.98514 0.08867 0.0
C94 C 0.43278 0.98451 0.09607 0.0
C95 C 0.42831 0.99008 0.07928 0.0
C96 C 0.41527 0.97864 0.10887 0.0
C97 C 0.39926 1.00285 0.18188 0.0
C98 C 0.44167 0.02766 0.18067 0.0
C99 C 0.42046 0.02131 0.20771 0.0
C100 C 0.39941 0.00719 0.19947 0.0
C101 C 0.44192 0.03155 0.19849 0.0
C102 C 0.4204 0.01335 0.17238 0.0
C103 C 0.37678 0.9862 0.17446 0.0
O104 O 0.31544 0.95617 0.14756 0.0
O105 O 0.32627 0.92727 0.15238 0.0
O106 O 0.37545 0.96531 0.16986 0.0
O107 O 0.36567 0.99483 0.16407 0.0
H108 H 0.31665 0.94183 0.18638 0.0
H109 H 0.28788 0.92382 0.20965 0.0
H110 H 0.23388 0.88671 0.17203 0.0
H111 H 0.2624 0.90548 0.14913 0.0
H112 H 0.40197 0.99455 0.06313 0.0
H113 H 0.37189 0.98477 0.08542 0.0
H114 H 0.44961 0.98419 0.09926 0.0
H115 H 0.41879 0.97343 0.12145 0.0
H116 H 0.45793 0.03537 0.17323 0.0
H117 H 0.42002 0.02336 0.22148 0.0
H118 H 0.38324 0.99904 0.207 0.0
H119 H 0.42052 0.01012 0.15874 0.0
C120 C 0.64829 0.91756 0.34707 0.0
C121 C 0.63865 0.91627 0.33061 0.0
C122 C 0.66087 0.8945 0.32029 0.0
C123 C 0.64484 0.90479 0.31736 0.0
C124 C 0.67149 0.89706 0.33652 0.0
C125 C 0.6652 0.90844 0.34978 0.0
U126 U 0.62448 0.95917 0.36822 0.0
O127 O 0.59357 0.948 0.38547 0.0
O128 O 0.62887 0.97291 0.39468 0.0
C129 C 0.60635 0.96016 0.39843 0.0
C130 C 0.63928 0.92609 0.36186 0.0
C131 C 0.59468 0.9689 0.41131 0.0
C132 C 0.57465 0.96177 0.43889 0.0
C133 C 0.58694 0.95547 0.42637 0.0
C134 C 0.57805 0.99567 0.42168 0.0
C135 C 0.56975 0.98174 0.43665 0.0
C136 C 0.59038 0.9892 0.40899 0.0
C137 C 0.62186 0.00782 0.33666 0.0
C138 C 0.59361 0.02467 0.33115 0.0
C139 C 0.63001 0.03787 0.31453 0.0
C140 C 0.63692 0.02276 0.32403 0.0
C141 C 0.60781 0.03822 0.31748 0.0
C142 C 0.60056 0.00951 0.34066 0.0
C143 C 0.62702 0.98817 0.34298 0.0
O144 O 0.65325 0.94699 0.36806 0.0
O145 O 0.61694 0.92264 0.36095 0.0
O146 O 0.6088 0.9676 0.34546 0.0
O147 O 0.64401 0.99299 0.35436 0.0
H148 H 0.6257 0.92338 0.32815 0.0
H149 H 0.63665 0.90346 0.30492 0.0
H150 H 0.68377 0.88922 0.33924 0.0
H151 H 0.67283 0.90926 0.36238 0.0
H152 H 0.56893 0.95094 0.45037 0.0
H153 H 0.59017 0.93978 0.42839 0.0
H154 H 0.57449 0.01113 0.4196 0.0
H155 H 0.59623 0.99975 0.39739 0.0
H156 H 0.57633 0.02443 0.33368 0.0
H157 H 0.64146 0.04832 0.30426 0.0
H158 H 0.65341 0.02165 0.32074 0.0
H159 H 0.58865 0.99807 0.35035 0.0
C160 C 0.07484 0.70836 0.34135 0.0
C161 C 0.07293 0.70161 0.32406 0.0
C162 C 0.09826 0.74258 0.31585 0.0
C163 C 0.08446 0.71872 0.31133 0.0
C164 C 0.09922 0.7492 0.33312 0.0
C165 C 0.08761 0.73227 0.3457 0.0
U166 U 0.04028 0.64983 0.36944 0.0
O167 O 0.05935 0.64076 0.38985 0.0
O168 O 0.03094 0.65157 0.39653 0.0
C169 C 0.04626 0.64365 0.4021 0.0
C170 C 0.0663 0.6912 0.35555 0.0
C171 C 0.03763 0.62477 0.41511 0.0
C172 C 0.03856 0.61316 0.44469 0.0
C173 C 0.04451 0.63077 0.43213 0.0
C174 C 0.01806 0.58315 0.42342 0.0
C175 C 0.02568 0.5891 0.44047 0.0
C176 C 0.02406 0.6009 0.41079 0.0
C177 C 0.99827 0.60382 0.33604 0.0
C178 C 0.96615 0.57101 0.32231 0.0
C179 C 1.00207 0.59429 0.30635 0.0
C180 C 0.0113 0.60877 0.32068 0.0
C181 C 0.97989 0.57446 0.30732 0.0
C182 C 0.97527 0.58562 0.33648 0.0
C183 C 0.00934 0.61376 0.35251 0.0
O184 O 0.04516 0.68604 0.36214 0.0
O185 O 0.07263 0.67346 0.35576 0.0
O186 O 1.00378 0.62982 0.35983 0.0
O187 O 0.03168 0.6175 0.35448 0.0
H188 H 0.06325 0.68316 0.3205 0.0
H189 H 0.0835 0.71313 0.2981 0.0
H190 H 0.10944 0.76745 0.33697 0.0
H191 H 0.08936 0.73777 0.35901 0.0
H192 H 0.04428 0.61841 0.45774 0.0
H193 H 0.05495 0.64912 0.43566 0.0
H194 H 0.00818 0.56478 0.41975 0.0
H195 H 0.01863 0.59597 0.39765 0.0
H196 H 0.94914 0.5559 0.32368 0.0
H197 H 0.01288 0.59782 0.29486 0.0
H198 H 0.02911 0.62284 0.32006 0.0
H199 H 0.965 0.58147 0.34828 0.0
C200 C 0.31412 0.35865 0.34115 0.0
C201 C 0.31955 0.36902 0.32474 0.0
C202 C 0.27916 0.34455 0.31524 0.0
C203 C 0.30221 0.36208 0.31192 0.0
C204 C 0.27437 0.33319 0.33136 0.0
C205 C 0.29163 0.34027 0.34419 0.0
U206 U 0.37569 0.3817 0.36273 0.0
O207 O 0.39131 0.41249 0.37978 0.0
O208 O 0.38374 0.3766 0.38965 0.0
C209 C 0.39128 0.39935 0.39306 0.0
C210 C 0.33053 0.36813 0.35571 0.0
C211 C 0.40931 0.41001 0.40643 0.0
C212 C 0.41659 0.41774 0.43685 0.0
C213 C 0.40171 0.40534 0.4235 0.0
C214 C 0.44768 0.43901 0.4163 0.0
C215 C 0.43974 0.43499 0.43351 0.0
C216 C 0.43251 0.42675 0.40284 0.0
C217 C 0.42606 0.38082 0.33196 0.0
C218 C 0.46913 0.39932 0.3332 0.0
C219 C 0.44923 0.3779 0.30776 0.0
C220 C 0.42734 0.37242 0.31554 0.0
C221 C 0.47045 0.39183 0.31631 0.0
C222 C 0.44701 0.39392 0.34098 0.0
C223 C 0.4025 0.37724 0.33822 0.0
O224 O 0.33892 0.35389 0.36264 0.0
O225 O 0.34647 0.39019 0.35425 0.0
O226 O 0.39858 0.39633 0.34022 0.0
O227 O 0.39226 0.36075 0.34993 0.0
H228 H 0.33685 0.38315 0.322 0.0
H229 H 0.30657 0.37135 0.29973 0.0
H230 H 0.25705 0.31923 0.33427 0.0
H231 H 0.28711 0.33193 0.35672 0.0
H232 H 0.40942 0.4144 0.44975 0.0
H233 H 0.38372 0.39277 0.42651 0.0
H234 H 0.46547 0.45184 0.41317 0.0
H235 H 0.43867 0.43076 0.38971 0.0
H236 H 0.48514 0.40989 0.3402 0.0
H237 H 0.44939 0.37226 0.29465 0.0
H238 H 0.41129 0.36244 0.30836 0.0
H239 H 0.44627 0.40054 0.3537 0.0
C240 C 0.9192 0.65362 0.84817 0.0
C241 C 0.9268 0.65474 0.83109 0.0
C242 C 0.89598 0.66698 0.82186 0.0
C243 C 0.91531 0.66145 0.81803 0.0
C244 C 0.8889 0.6662 0.83911 0.0
C245 C 0.90044 0.65967 0.85209 0.0
U246 U 0.9629 0.62997 0.86645 0.0
O247 O 0.97839 0.6353 0.89243 0.0
O248 O 0.95372 0.59948 0.88393 0.0
C249 C 0.96647 0.61276 0.89651 0.0
C250 C 0.92921 0.64457 0.86202 0.0
C251 C 0.97637 0.60194 0.90926 0.0
C252 C 0.97664 0.59085 0.9391 0.0
C253 C 0.97016 0.60282 0.92642 0.0
C254 C 0.99664 0.57749 0.91773 0.0
C255 C 0.98992 0.5779 0.93502 0.0
C256 C 0.98976 0.5893 0.9049 0.0
C257 C 0.00875 0.62599 0.8333 0.0
C258 C 0.03487 0.60598 0.83552 0.0
C259 C 0.02836 0.62032 0.80794 0.0
C260 C 0.01371 0.62936 0.81574 0.0
C261 C 0.03857 0.60783 0.8176 0.0
C262 C 0.01985 0.61483 0.84332 0.0
C263 C 0.98993 0.63204 0.84001 0.0
O264 O 0.92586 0.62232 0.86049 0.0
O265 O 0.95067 0.6586 0.86722 0.0
O266 O 0.99574 0.64904 0.85148 0.0
O267 O 0.96946 0.614 0.84312 0.0
H268 H 0.94126 0.65003 0.82784 0.0
H269 H 0.92146 0.6621 0.80494 0.0
H270 H 0.87383 0.66981 0.84261 0.0
H271 H 0.89423 0.65869 0.8652 0.0
H272 H 0.97046 0.5912 0.95205 0.0
H273 H 0.95954 0.61223 0.92999 0.0
H274 H 0.0071 0.568 0.91405 0.0
H275 H 0.99458 0.5883 0.89166 0.0
H276 H 0.04276 0.59686 0.84342 0.0
H277 H 0.03026 0.6218 0.79413 0.0
H278 H 0.00516 0.63787 0.80783 0.0
H279 H 0.01619 0.61213 0.85694 0.0
C280 C 0.354 0.31069 0.84275 0.0
C281 C 0.35775 0.31744 0.82539 0.0
C282 C 0.34154 0.27577 0.81696 0.0
C283 C 0.35148 0.30007 0.81256 0.0
C284 C 0.33675 0.26927 0.83432 0.0
C285 C 0.34294 0.28656 0.84706 0.0
U286 U 0.37691 0.3736 0.8624 0.0
O287 O 0.37149 0.38293 0.88894 0.0
O288 O 0.40745 0.38971 0.87963 0.0
C289 C 0.39417 0.39043 0.8926 0.0
C290 C 0.36326 0.32805 0.85671 0.0
C291 C 0.40485 0.4087 0.90587 0.0
C292 C 0.40973 0.41677 0.93645 0.0
C293 C 0.39728 0.40241 0.92285 0.0
C294 C 0.43698 0.44487 0.91628 0.0
C295 C 0.43011 0.43786 0.93338 0.0
C296 C 0.42453 0.43031 0.90261 0.0
C297 C 0.37708 0.42274 0.82989 0.0
C298 C 0.39166 0.46565 0.83142 0.0
C299 C 0.37778 0.44542 0.80439 0.0
C300 C 0.37246 0.42373 0.81243 0.0
C301 C 0.38775 0.46673 0.81368 0.0
C302 C 0.38639 0.44373 0.8395 0.0
C303 C 0.37316 0.39947 0.83693 0.0
O304 O 0.38528 0.34391 0.85491 0.0
O305 O 0.34897 0.33692 0.86286 0.0
O306 O 0.3565 0.38995 0.84864 0.0
O307 O 0.39208 0.39541 0.83946 0.0
H308 H 0.36625 0.33605 0.82181 0.0
H309 H 0.35543 0.30563 0.7993 0.0
H310 H 0.32872 0.25074 0.83811 0.0
H311 H 0.33982 0.28103 0.86038 0.0
H312 H 0.40371 0.41103 0.94942 0.0
H313 H 0.3823 0.38569 0.92568 0.0
H314 H 0.45265 0.46098 0.91349 0.0
H315 H 0.43086 0.43544 0.88961 0.0
H316 H 0.39921 0.48174 0.83895 0.0
H317 H 0.37508 0.44545 0.79068 0.0
H318 H 0.36541 0.40767 0.80482 0.0
H319 H 0.39006 0.44321 0.85303 0.0
C320 C 0.711 0.07278 0.84033 0.0
C321 C 0.70725 0.06435 0.82343 0.0
C322 C 0.74633 0.09481 0.81507 0.0
C323 C 0.72486 0.07529 0.81086 0.0
C324 C 0.74968 0.10293 0.8321 0.0
C325 C 0.73231 0.09197 0.84453 0.0
U326 U 0.65205 0.03569 0.86761 0.0
O327 O 0.65332 0.02613 0.89478 0.0
O328 O 0.64199 0.05413 0.88789 0.0
C329 C 0.64434 0.04071 0.90015 0.0
C330 C 0.69329 0.06308 0.85411 0.0
C331 C 0.62457 0.03106 0.91257 0.0
C332 C 0.61183 0.02121 0.94217 0.0
C333 C 0.62954 0.02755 0.9296 0.0
C334 C 0.58352 0.02084 0.92071 0.0
C335 C 0.58871 0.01826 0.93796 0.0
C336 C 0.60127 0.02715 0.90812 0.0
C337 C 0.60647 0.99279 0.83416 0.0
C338 C 0.57265 0.9614 0.82078 0.0
C339 C 0.59798 0.99585 0.80414 0.0
C340 C 0.61242 0.00507 0.81849 0.0
C341 C 0.57719 0.9745 0.8054 0.0
C342 C 0.58723 0.97045 0.83497 0.0
C343 C 0.61662 0.00421 0.85046 0.0
O344 O 0.67509 0.06871 0.85426 0.0
O345 O 0.68863 0.04186 0.86038 0.0
O346 O 0.61984 0.02642 0.85235 0.0
O347 O 0.63307 0.99917 0.85773 0.0
H348 H 0.6908 0.04955 0.81996 0.0
H349 H 0.72168 0.06844 0.79791 0.0
H350 H 0.76551 0.11823 0.83585 0.0
H351 H 0.73542 0.09884 0.85749 0.0
H352 H 0.61656 0.0196 0.95531 0.0
H353 H 0.64739 0.03051 0.93329 0.0
H354 H 0.56581 0.0183 0.91697 0.0
H355 H 0.59692 0.02956 0.89501 0.0
H356 H 0.55679 0.94507 0.82239 0.0
H357 H 0.60235 0.00612 0.79237 0.0
H358 H 0.6273 0.02235 0.81762 0.0
H359 H 0.58232 0.9608 0.84702 0.0
C360 C 0.35743 0.08258 0.66736 0.0
C361 C 0.35963 0.07767 0.68467 0.0
C362 C 0.34411 0.10642 0.69334 0.0
C363 C 0.35287 0.0894 0.69758 0.0
C364 C 0.3416 0.11071 0.67589 0.0
C365 C 0.34803 0.09883 0.66312 0.0
U366 U 0.38244 0.04365 0.64016 0.0
O367 O 0.37544 0.03603 0.61255 0.0
O368 O 0.41058 0.06134 0.62122 0.0
C369 C 0.39768 0.04917 0.60831 0.0
C370 C 0.3668 0.07336 0.6532 0.0
C371 C 0.40922 0.03844 0.59661 0.0
C372 C 0.41157 0.02337 0.56822 0.0
C373 C 0.39944 0.03076 0.58034 0.0
C374 C 0.4432 0.03055 0.58862 0.0
C375 C 0.43386 0.0238 0.5721 0.0
C376 C 0.43095 0.03767 0.60081 0.0
C377 C 0.38389 0.99639 0.67375 0.0
C378 C 0.38894 0.96368 0.68742 0.0
C379 C 0.39207 0.99766 0.70421 0.0
C380 C 0.38704 0.00789 0.6896 0.0
C381 C 0.39455 0.97611 0.70302 0.0
C382 C 0.38357 0.97372 0.67296 0.0
C383 C 0.3859 0.009 0.65747 0.0
O384 O 0.38912 0.07663 0.65399 0.0
O385 O 0.35272 0.05333 0.64586 0.0
O386 O 0.40314 0.03047 0.65629 0.0
O387 O 0.36638 0.00644 0.64942 0.0
H388 H 0.367 0.06524 0.68819 0.0
H389 H 0.35478 0.08533 0.71084 0.0
H390 H 0.33556 0.12399 0.67195 0.0
H391 H 0.34649 0.10308 0.64981 0.0
H392 H 0.40402 0.01836 0.55556 0.0
H393 H 0.38277 0.03124 0.5768 0.0
H394 H 0.4602 0.03074 0.59201 0.0
H395 H 0.43888 0.04326 0.6133 0.0
H396 H 0.39079 0.94721 0.68584 0.0
H397 H 0.39564 0.00742 0.71613 0.0
H398 H 0.38725 0.02541 0.69045 0.0
H399 H 0.38126 0.96465 0.66078 0.0
C400 C 0.93759 0.29559 0.67298 0.0
C401 C 0.93496 0.3022 0.68979 0.0
C402 C 0.91343 0.26042 0.6978 0.0
C403 C 0.9231 0.28468 0.70218 0.0
C404 C 0.91705 0.25403 0.68114 0.0
C405 C 0.92905 0.27143 0.66891 0.0
U406 U 0.9714 0.35401 0.64443 0.0
O407 O 0.9804 0.35205 0.61729 0.0
O408 O 0.95196 0.36276 0.62411 0.0
C409 C 0.96499 0.35989 0.6118 0.0
C410 C 0.94585 0.31271 0.65868 0.0
C411 C 0.97352 0.37881 0.59879 0.0
C412 C 0.97238 0.39052 0.56925 0.0
C413 C 0.96645 0.37288 0.58179 0.0
C414 C 0.99326 0.42043 0.5905 0.0
C415 C 0.98545 0.41456 0.57348 0.0
C416 C 0.98728 0.40265 0.6031 0.0
C417 C 0.01411 0.4009 0.67725 0.0
C418 C 0.04866 0.43191 0.69033 0.0
C419 C 0.01144 0.41456 0.70598 0.0
C420 C 1.00097 0.39928 0.69226 0.0
C421 C 0.03509 0.43172 0.70481 0.0
C422 C 0.03824 0.4166 0.67668 0.0
C423 C 1.00252 0.39042 0.661 0.0
O424 O 0.93937 0.33036 0.65842 0.0
O425 O 0.96685 0.31789 0.65181 0.0
O426 O 0.9801 0.38651 0.65923 0.0
O427 O 0.00806 0.37433 0.65368 0.0
H428 H 0.94124 0.32077 0.69315 0.0
H429 H 0.92049 0.29011 0.71491 0.0
H430 H 0.91007 0.23552 0.67744 0.0
H431 H 0.93073 0.26597 0.65596 0.0
H432 H 0.96652 0.38533 0.55623 0.0
H433 H 0.95588 0.35455 0.57826 0.0
H434 H 1.00329 0.43878 0.59418 0.0
H435 H 0.99287 0.40752 0.61622 0.0
H436 H 0.067 0.44474 0.68918 0.0
H437 H 1.00049 0.4141 0.71695 0.0
H438 H 0.98228 0.38736 0.69297 0.0
H439 H 0.04865 0.41819 0.66517 0.0
C440 C 0.69405 0.6565 0.6703 0.0
C441 C 0.68713 0.6504 0.68745 0.0
C442 C 0.72867 0.66857 0.69623 0.0
C443 C 0.70437 0.65653 0.70037 0.0
C444 C 0.73524 0.67562 0.67916 0.0
C445 C 0.7181 0.66966 0.66636 0.0
U446 U 0.6331 0.63041 0.64593 0.0
O447 O 0.62867 0.63669 0.61857 0.0
O448 O 0.62325 0.6011 0.62755 0.0
C449 C 0.62312 0.61446 0.61447 0.0
C450 C 0.6775 0.64698 0.65593 0.0
C451 C 0.60467 0.6036 0.60143 0.0
C452 C 0.5961 0.59531 0.57121 0.0
C453 C 0.61174 0.60758 0.58423 0.0
C454 C 0.56539 0.57557 0.59239 0.0
C455 C 0.57276 0.57889 0.57505 0.0
C456 C 0.58128 0.58775 0.6055 0.0
C457 C 0.58081 0.62802 0.6785 0.0
C458 C 0.54316 0.63037 0.68329 0.0
C459 C 0.56125 0.61723 0.70618 0.0
C460 C 0.5803 0.62017 0.69542 0.0
C461 C 0.54221 0.62178 0.70011 0.0
C462 C 0.56244 0.63364 0.6726 0.0
C463 C 0.59968 0.62888 0.66677 0.0
O464 O 0.66264 0.62445 0.65691 0.0
O465 O 0.66815 0.66055 0.64921 0.0
O466 O 0.61073 0.64706 0.65647 0.0
O467 O 0.60661 0.61155 0.66597 0.0
H468 H 0.66862 0.64012 0.69073 0.0
H469 H 0.6988 0.65082 0.71342 0.0
H470 H 0.75377 0.68521 0.67563 0.0
H471 H 0.72376 0.67445 0.65318 0.0
H472 H 0.60277 0.59809 0.55818 0.0
H473 H 0.6298 0.61958 0.58086 0.0
H474 H 0.54748 0.56337 0.59586 0.0
H475 H 0.5755 0.58439 0.61875 0.0
H476 H 0.52876 0.63404 0.67829 0.0
H477 H 0.56089 0.61026 0.71898 0.0
H478 H 0.59437 0.6158 0.7002 0.0
H479 H 0.56254 0.63965 0.65952 0.0
H480 H 0.28139 0.3427 0.27996 0.0
H481 H 0.25028 0.33914 0.2594 0.0
H482 H 0.20165 0.3308 0.30111 0.0
H483 H 0.23272 0.33549 0.3217 0.0
H484 H 0.20338 0.30366 0.25371 0.0
H485 H 0.20304 0.38878 0.27528 0.0
H486 H 0.22618 0.3798 0.28118 0.0
H487 H 0.19797 0.3673 0.29206 0.0
C488 C 0.2641 0.34018 0.28478 0.0
C489 C 0.25972 0.33962 0.30255 0.0
C490 C 0.24628 0.33793 0.27299 0.0
C491 C 0.2238 0.33513 0.27875 0.0
C492 C 0.21901 0.33337 0.2964 0.0
H493 H 0.10264 0.34383 0.22843 0.0
H494 H 0.12928 0.33769 0.24904 0.0
C495 C 0.23678 0.33576 0.30817 0.0
C496 C 0.20572 0.33533 0.2664 0.0
H497 H 0.17386 0.3666 0.2552 0.0
C498 C 0.19689 0.3174 0.25399 0.0
C499 C 0.19729 0.35327 0.26683 0.0
C500 C 0.20672 0.37351 0.27944 0.0
C501 C 0.17953 0.31672 0.24216 0.0
C502 C 0.17121 0.3348 0.24252 0.0
C503 C 0.18008 0.35266 0.25497 0.0
C504 C 0.15392 0.33619 0.22986 0.0
C505 C 0.16998 0.29638 0.22965 0.0
C506 C 0.15886 0.33742 0.21221 0.0
C507 C 0.14362 0.34085 0.20043 0.0
C508 C 0.12324 0.34344 0.20603 0.0
C509 C 0.11824 0.34205 0.2237 0.0
C510 C 0.1334 0.33842 0.23548 0.0
H511 H 0.17197 0.28051 0.23463 0.0
H512 H 0.15094 0.29131 0.22683 0.0
H513 H 0.18018 0.3018 0.21747 0.0
H514 H 0.17492 0.33653 0.20755 0.0
H515 H 0.14828 0.34231 0.18695 0.0
H516 H 0.62734 0.73027 0.21726 0.0
H517 H 0.6336 0.7612 0.23837 0.0
H518 H 0.70899 0.79104 0.22833 0.0
H519 H 0.70275 0.76019 0.20685 0.0
H520 H 0.65823 0.77141 0.26752 0.0
H521 H 0.6963 0.84919 0.22342 0.0
H522 H 0.68292 0.81907 0.21565 0.0
H523 H 0.71241 0.83102 0.2244 0.0
C524 C 0.6453 0.74327 0.21963 0.0
C525 C 0.66456 0.74273 0.21041 0.0
C526 C 0.64884 0.76104 0.23165 0.0
C527 C 0.67172 0.77868 0.23478 0.0
C528 C 0.69111 0.77799 0.22584 0.0
H529 H 0.70297 0.89277 0.31116 0.0
H530 H 0.70867 0.86549 0.29075 0.0
C531 C 0.68754 0.76028 0.21365 0.0
C532 C 0.67485 0.79739 0.24764 0.0
H533 H 0.69175 0.85709 0.25245 0.0
C534 C 0.66573 0.79014 0.26422 0.0
C535 C 0.68484 0.8219 0.2434 0.0
C536 C 0.69452 0.83083 0.22573 0.0
C537 C 0.6655 0.80657 0.27644 0.0
C538 C 0.67456 0.83086 0.27197 0.0
C539 C 0.68476 0.83837 0.25574 0.0
C540 C 0.67167 0.84827 0.28358 0.0
C541 C 0.65505 0.79782 0.29396 0.0
C542 C 0.64908 0.84777 0.286 0.0
C543 C 0.64576 0.86324 0.29757 0.0
C544 C 0.66501 0.87953 0.30697 0.0
C545 C 0.68777 0.88031 0.30422 0.0
C546 C 0.69109 0.86485 0.29253 0.0
H547 H 0.65314 0.77947 0.29654 0.0
H548 H 0.66631 0.80978 0.30409 0.0
H549 H 0.6372 0.79784 0.29481 0.0
H550 H 0.63391 0.8351 0.27913 0.0
H551 H 0.62795 0.8619 0.29955 0.0
H552 H 0.14464 0.77359 0.31879 0.0
H553 H 0.1695 0.80292 0.29783 0.0
H554 H 0.11058 0.78118 0.26279 0.0
H555 H 0.08536 0.7516 0.28385 0.0
H556 H 0.17484 0.78817 0.26066 0.0
H557 H 0.14184 0.85855 0.26775 0.0
H558 H 0.13985 0.83839 0.28511 0.0
H559 H 0.12077 0.82782 0.2669 0.0
C560 C 0.13685 0.77521 0.30671 0.0
C561 C 0.11301 0.76037 0.30297 0.0
C562 C 0.15109 0.79194 0.29476 0.0
C563 C 0.14176 0.79432 0.2789 0.0
C564 C 0.11796 0.77969 0.27508 0.0
H565 H 0.21018 0.89049 0.19392 0.0
H566 H 0.18164 0.86416 0.21465 0.0
C567 C 0.10368 0.76273 0.28702 0.0
C568 C 0.15759 0.81109 0.26602 0.0
H569 H 0.17315 0.86592 0.24813 0.0
C570 C 0.17447 0.80515 0.25784 0.0
C571 C 0.15682 0.83306 0.26236 0.0
C572 C 0.13894 0.84007 0.27097 0.0
C573 C 0.19073 0.82065 0.24602 0.0
C574 C 0.19064 0.84311 0.24277 0.0
C575 C 0.1734 0.84885 0.25076 0.0
C576 C 0.20816 0.86065 0.23096 0.0
C577 C 0.20748 0.81251 0.23691 0.0
C578 C 0.23265 0.86817 0.23353 0.0
C579 C 0.24903 0.88274 0.22146 0.0
C580 C 0.2413 0.89057 0.20671 0.0
C581 C 0.21681 0.88429 0.20482 0.0
C582 C 0.20043 0.86941 0.21677 0.0
H583 H 0.20048 0.79282 0.2368 0.0
H584 H 0.21068 0.81904 0.22345 0.0
H585 H 0.22474 0.81949 0.24372 0.0
H586 H 0.2391 0.86225 0.24467 0.0
H587 H 0.26766 0.88705 0.2234 0.0
H588 H 0.73136 0.68526 0.72912 0.0
H589 H 0.76238 0.69094 0.75038 0.0
H590 H 0.79812 0.66453 0.71414 0.0
H591 H 0.76776 0.6596 0.69285 0.0
H592 H 0.77454 0.6605 0.7654 0.0
H593 H 0.85342 0.7218 0.7296 0.0
H594 H 0.82364 0.71485 0.7224 0.0
H595 H 0.83774 0.69543 0.71739 0.0
C596 C 0.74598 0.6809 0.7257 0.0
C597 C 0.74731 0.6723 0.70926 0.0
C598 C 0.76373 0.6842 0.73781 0.0
C599 C 0.78302 0.67879 0.73374 0.0
C600 C 0.78403 0.66976 0.71742 0.0
H601 H 0.8851 0.6473 0.78969 0.0
H602 H 0.85911 0.65306 0.76839 0.0
C603 C 0.76654 0.66679 0.70527 0.0
C604 C 0.80118 0.6809 0.74686 0.0
H605 H 0.86098 0.70034 0.75304 0.0
C606 C 0.79343 0.66956 0.76277 0.0
C607 C 0.82592 0.69285 0.74353 0.0
C608 C 0.83563 0.70713 0.72736 0.0
C609 C 0.80963 0.66896 0.7751 0.0
C610 C 0.8342 0.67985 0.77138 0.0
C611 C 0.84207 0.69175 0.75572 0.0
C612 C 0.85185 0.67842 0.78352 0.0
C613 C 0.80038 0.65614 0.79186 0.0
C614 C 0.85693 0.69137 0.79881 0.0
C615 C 0.87208 0.68845 0.81091 0.0
C616 C 0.88227 0.67229 0.80805 0.0
C617 C 0.87782 0.66005 0.79234 0.0
C618 C 0.86283 0.66318 0.78017 0.0
H619 H 0.78076 0.64598 0.79186 0.0
H620 H 0.80867 0.64375 0.79463 0.0
H621 H 0.80522 0.6693 0.80241 0.0
H622 H 0.84881 0.70343 0.80151 0.0
H623 H 0.8755 0.69863 0.82264 0.0
H624 H 0.32195 0.27159 0.78478 0.0
H625 H 0.31617 0.24057 0.76346 0.0
H626 H 0.34809 0.20796 0.79799 0.0
H627 H 0.35332 0.23831 0.81929 0.0
H628 H 0.34639 0.2293 0.74673 0.0
H629 H 0.29071 0.15073 0.78513 0.0
H630 H 0.29688 0.18051 0.79193 0.0
H631 H 0.3176 0.16776 0.79641 0.0
C632 C 0.32755 0.25766 0.78782 0.0
C633 C 0.33775 0.25719 0.80383 0.0
C634 C 0.32418 0.23991 0.77567 0.0
C635 C 0.33105 0.22146 0.77928 0.0
C636 C 0.34173 0.22137 0.79511 0.0
H637 H 0.36681 0.12233 0.72417 0.0
H638 H 0.36058 0.14892 0.74466 0.0
C639 C 0.34484 0.23886 0.80728 0.0
C640 C 0.32858 0.20308 0.76623 0.0
H641 H 0.31195 0.14342 0.76133 0.0
C642 C 0.33848 0.21051 0.74985 0.0
C643 C 0.31798 0.17844 0.77015 0.0
C644 C 0.30496 0.16892 0.7868 0.0
C645 C 0.33923 0.19415 0.7377 0.0
C646 C 0.33007 0.16979 0.74209 0.0
C647 C 0.31934 0.1622 0.75815 0.0
C648 C 0.33228 0.15212 0.73032 0.0
C649 C 0.35041 0.20301 0.72039 0.0
C650 C 0.3179 0.14456 0.71577 0.0
C651 C 0.32102 0.12891 0.70419 0.0
C652 C 0.33887 0.12076 0.70678 0.0
C653 C 0.35272 0.12789 0.72174 0.0
C654 C 0.34935 0.14329 0.73343 0.0
H655 H 0.35899 0.22272 0.71963 0.0
H656 H 0.36389 0.19611 0.71749 0.0
H657 H 0.33654 0.19629 0.71034 0.0
H658 H 0.30445 0.15099 0.71327 0.0
H659 H 0.30954 0.12343 0.69311 0.0
H660 H 0.87044 0.22392 0.69153 0.0
H661 H 0.84454 0.19389 0.71161 0.0
H662 H 0.89638 0.22404 0.75165 0.0
H663 H 0.92204 0.25476 0.73165 0.0
H664 H 0.84833 0.15962 0.72941 0.0
H665 H 0.83941 0.2238 0.77514 0.0
H666 H 0.85358 0.23288 0.75452 0.0
H667 H 0.86952 0.22781 0.77221 0.0
C668 C 0.87636 0.22413 0.70461 0.0
C669 C 0.89822 0.24181 0.71006 0.0
C670 C 0.86152 0.20693 0.71609 0.0
C671 C 0.86821 0.20691 0.73327 0.0
C672 C 0.89043 0.22409 0.73861 0.0
H673 H 0.79482 0.115 0.81908 0.0
H674 H 0.82488 0.14076 0.79901 0.0
C675 C 0.90515 0.24158 0.72717 0.0
C676 C 0.85167 0.18907 0.74549 0.0
H677 H 0.82165 0.18329 0.7833 0.0
C678 C 0.8425 0.16484 0.74118 0.0
C679 C 0.84395 0.1958 0.76087 0.0
C680 C 0.85193 0.22149 0.7659 0.0
C681 C 0.82589 0.14728 0.75177 0.0
C682 C 0.81823 0.1541 0.76705 0.0
C683 C 0.82763 0.17817 0.77155 0.0
C684 C 0.80014 0.13663 0.77849 0.0
C685 C 0.81669 0.12154 0.74666 0.0
C686 C 0.77623 0.12555 0.77352 0.0
C687 C 0.75879 0.11116 0.78512 0.0
C688 C 0.76498 0.10752 0.80191 0.0
C689 C 0.7892 0.11781 0.80646 0.0
C690 C 0.80651 0.13241 0.79496 0.0
H691 H 0.8274 0.1188 0.73616 0.0
H692 H 0.81671 0.11041 0.75784 0.0
H693 H 0.79808 0.11532 0.7422 0.0
H694 H 0.77095 0.12879 0.76089 0.0
H695 H 0.74039 0.10379 0.78116 0.0
H696 H 0.02457 0.47908 0.07286 0.0
H697 H 0.01578 0.50212 0.05067 0.0
H698 H 0.01452 0.45133 0.0126 0.0
H699 H 0.02156 0.42738 0.03475 0.0
H700 H 0.0421 0.52389 0.02348 0.0
H701 H 0.95537 0.45783 1.00013 0.0
H702 H 0.96856 0.45352 0.01969 0.0
H703 H 0.97793 0.44697 0.99924 0.0
C704 C 0.02176 0.47242 0.05986 0.0
C705 C 0.02382 0.45129 0.05568 0.0
C706 C 0.01697 0.48578 0.04713 0.0
C707 C 0.01414 0.47833 0.02996 0.0
C708 C 0.01602 0.4572 0.02578 0.0
H709 H 0.99349 0.53512 0.93249 0.0
H710 H 1.00094 0.51229 0.95544 0.0
C711 C 0.02048 0.4437 0.03849 0.0
C712 C 0.0106 0.49329 0.01627 0.0
H713 H 0.97513 0.49203 0.9825 0.0
C714 C 0.02734 0.51698 0.01459 0.0
C715 C 0.99142 0.48426 1.0046 0.0
C716 C 0.97218 0.45932 0.0061 0.0
C717 C 0.02583 0.53171 1.00136 0.0
C718 C 0.00673 0.52264 0.9896 0.0
C719 C 0.98987 0.49898 0.99138 0.0
C720 C 1.00365 0.53735 0.97549 0.0
C721 C 0.04518 0.5566 0.99989 0.0
C722 C 1.0028 0.55914 0.97901 0.0
C723 C 0.99939 0.57266 0.96582 0.0
C724 C 0.99581 0.56437 0.94878 0.0
C725 C 0.99658 0.54243 0.94531 0.0
C726 C 1.00054 0.52914 0.95849 0.0
H727 H 0.06191 0.55804 0.00596 0.0
H728 H 0.04899 0.56236 0.9863 0.0
H729 H 0.03945 0.56902 0.00667 0.0
H730 H 1.00446 0.56563 0.99204 0.0
H731 H 0.99937 0.58959 0.96911 0.0
H732 H 0.4511 0.48627 0.9379 0.0
H733 H 0.47553 0.50833 0.96214 0.0
H734 H 0.46614 0.44236 0.98635 0.0
H735 H 0.44238 0.42032 0.96209 0.0
H736 H 0.46357 0.5059 0.99698 0.0
H737 H 0.53806 0.48 0.98693 0.0
H738 H 0.51579 0.47565 0.97082 0.0
H739 H 0.50953 0.45524 0.98854 0.0
C740 C 0.45446 0.47651 0.94832 0.0
C741 C 0.44478 0.45154 0.94805 0.0
C742 C 0.4683 0.48911 0.96219 0.0
C743 C 0.47296 0.47701 0.97593 0.0
C744 C 0.46316 0.45211 0.97576 0.0
H745 H 0.55086 0.5191 0.07199 0.0
H746 H 0.52619 0.49711 0.04785 0.0
C747 C 0.44932 0.43952 0.96195 0.0
C748 C 0.48769 0.49031 0.99063 0.0
H749 H 0.53807 0.49962 0.01307 0.0
C750 C 0.47993 0.50466 1.00045 0.0
C751 C 0.50898 0.48857 0.99518 0.0
C752 C 0.51874 0.47421 0.98474 0.0
C753 C 0.49266 0.51696 0.01488 0.0
C754 C 0.51395 0.5152 0.01943 0.0
C755 C 0.5217 0.50087 0.00961 0.0
C756 C 0.52869 0.52847 0.03414 0.0
C757 C 0.48291 0.53132 0.02533 0.0
C758 C 0.53851 0.55337 0.03434 0.0
C759 C 0.5525 0.56592 0.04809 0.0
C760 C 0.55716 0.55386 0.06192 0.0
C761 C 0.54743 0.5289 0.06164 0.0
C762 C 0.53343 0.51633 0.04782 0.0
H763 H 0.4636 0.52555 0.02312 0.0
H764 H 0.48586 0.52987 0.03924 0.0
H765 H 0.49214 0.55029 0.02153 0.0
H766 H 0.53547 0.56315 0.02379 0.0
H767 H 0.55946 0.58512 0.04797 0.0
H768 H 0.43847 0.02095 0.05189 0.0
H769 H 0.46432 0.02436 0.02742 0.0
H770 H 0.48454 0.97218 0.0502 0.0
H771 H 0.45763 0.9675 0.07421 0.0
H772 H 0.51157 0.03795 0.02557 0.0
H773 H 0.46559 0.94506 1.0029 0.0
H774 H 0.45268 0.95748 0.01862 0.0
H775 H 0.47465 0.94718 0.02489 0.0
C776 C 0.44814 0.00993 0.05164 0.0
C777 C 0.44571 0.99378 0.06506 0.0
C778 C 0.46307 0.01204 0.03766 0.0
C779 C 0.476 0.99817 0.03677 0.0
C780 C 0.47427 0.98263 0.05037 0.0
H781 H 0.58031 0.98939 0.96628 0.0
H782 H 0.55286 0.98491 0.99002 0.0
C783 C 0.45915 0.9803 0.06428 0.0
C784 C 0.49166 1.00036 0.02179 0.0
H785 H 0.50293 0.96864 0.98998 0.0
C786 C 0.50958 0.02282 0.01773 0.0
C787 C 0.48903 0.98061 0.01152 0.0
C788 C 0.46931 0.95627 0.01457 0.0
C789 C 0.52526 0.02599 1.00395 0.0
C790 C 0.52277 0.0062 0.99381 0.0
C791 C 0.50482 0.98376 0.99781 0.0
C792 C 0.53878 0.00841 0.9791 0.0
C793 C 0.54471 0.05039 1.0006 0.0
C794 C 0.53959 0.02271 0.96491 0.0
C795 C 0.55539 0.02546 0.95138 0.0
C796 C 0.57059 0.01383 0.95171 0.0
C797 C 0.56915 0.99891 0.96572 0.0
C798 C 0.55338 0.99621 0.97926 0.0
H799 H 0.54768 0.06227 0.01183 0.0
H800 H 0.56168 0.04931 0.99735 0.0
H801 H 0.53965 0.0586 0.98956 0.0
H802 H 0.52816 0.03193 0.96439 0.0
H803 H 0.55613 0.03725 0.9409 0.0
H804 H 0.48024 0.05025 0.56375 0.0
H805 H 0.50305 0.04371 0.54033 0.0
H806 H 0.44263 0.97904 0.52705 0.0
H807 H 0.41942 0.9862 0.54998 0.0
H808 H 0.51771 0.01166 0.53361 0.0
H809 H 0.45647 0.00897 0.48129 0.0
H810 H 0.45273 0.01722 0.50286 0.0
H811 H 0.44203 0.98635 0.49703 0.0
C812 C 0.47186 0.03461 0.55583 0.0
C813 C 0.44802 0.0188 0.5586 0.0
C814 C 0.48489 0.03091 0.54242 0.0
C815 C 0.47445 0.01119 0.53158 0.0
C816 C 0.45088 0.99486 0.53478 0.0
H817 H 0.52945 0.95079 0.45264 0.0
H818 H 0.50727 0.95901 0.47572 0.0
C819 C 0.43767 0.99882 0.54798 0.0
C820 C 0.48841 0.00769 0.51714 0.0
H821 H 0.48712 0.99686 0.47407 0.0
C822 C 0.51106 0.00867 0.52058 0.0
C823 C 0.47988 0.00388 0.50004 0.0
C824 C 0.45656 0.00429 0.49505 0.0
C825 C 0.52513 0.00555 0.50752 0.0
C826 C 0.51629 1.00116 0.49062 0.0
C827 C 0.49377 1.00021 0.4871 0.0
C828 C 0.52982 0.99664 0.47651 0.0
C829 C 0.5492 0.00653 0.51187 0.0
C830 C 0.54967 0.01522 0.46917 0.0
C831 C 0.56241 0.0106 0.45589 0.0
C832 C 0.55555 0.9873 0.44988 0.0
C833 C 0.53539 0.96888 0.45713 0.0
C834 C 0.52263 0.97352 0.47027 0.0
H835 H 0.55247 0.00763 0.52591 0.0
H836 H 0.55088 0.99058 0.50682 0.0
H837 H 0.5632 0.02236 0.50565 0.0
H838 H 0.55534 0.03322 0.47377 0.0
H839 H 0.57792 0.02512 0.45063 0.0
H840 H 0.95459 0.41662 0.54937 0.0
H841 H 0.9621 0.44611 0.5267 0.0
H842 H 0.03347 0.48502 0.54526 0.0
H843 H 0.02636 0.45496 0.56769 0.0
H844 H 0.97437 0.4939 0.52917 0.0
H845 H 0.04423 0.47741 0.49445 0.0
H846 H 0.02563 0.45744 0.51071 0.0
H847 H 0.05039 0.48443 0.51673 0.0
C848 C 0.97202 0.43126 0.54851 0.0
C849 C 0.99 0.43324 0.5602 0.0
C850 C 0.97621 0.4482 0.53562 0.0
C851 C 0.99845 0.46753 0.5341 0.0
C852 C 0.01632 0.46995 0.54598 0.0
H853 H 0.05649 0.58729 0.46471 0.0
H854 H 0.049 0.55786 0.48742 0.0
C855 C 0.01215 0.45292 0.55891 0.0
C856 C 1.00262 0.48523 0.52021 0.0
H857 H 0.03683 0.50995 0.48488 0.0
C858 C 0.98798 0.49738 0.51945 0.0
C859 C 0.02035 0.48967 0.50753 0.0
C860 C 0.03593 0.47642 0.50724 0.0
C861 C 0.99085 0.51418 0.50652 0.0
C862 C 0.00857 0.51861 0.49384 0.0
C863 C 0.02322 0.50647 0.4946 0.0
C864 C 0.01272 0.53629 0.47994 0.0
C865 C 0.97525 0.52742 0.50679 0.0
C866 C 0.99489 0.53376 0.46801 0.0
C867 C 0.99904 0.55074 0.45505 0.0
C868 C 0.02115 0.57048 0.45379 0.0
C869 C 0.0391 0.57259 0.46554 0.0
C870 C 0.03492 0.55568 0.47846 0.0
H871 H 0.96687 0.52636 0.51956 0.0
H872 H 0.98557 0.54642 0.50337 0.0
H873 H 0.96085 0.51946 0.49724 0.0
H874 H 0.97777 0.51864 0.46871 0.0
H875 H 0.98486 0.54861 0.44621 0.0
H876 H 0.47232 0.48189 0.43317 0.0
H877 H 0.49514 0.50559 0.45717 0.0
H878 H 0.46228 0.4453 0.49096 0.0
H879 H 0.44115 0.42091 0.46689 0.0
H880 H 0.48018 0.51829 0.4853 0.0
H881 H 0.52911 0.46537 0.50488 0.0
H882 H 0.51278 0.45997 0.48506 0.0
H883 H 0.4976 0.44819 0.50502 0.0
C884 C 0.47046 0.47337 0.44556 0.0
C885 C 0.45482 0.44931 0.44792 0.0
C886 C 0.48334 0.4871 0.45937 0.0
C887 C 0.48078 0.47719 0.47588 0.0
C888 C 0.46514 0.45326 0.47831 0.0
H889 H 0.53936 0.53239 0.57609 0.0
H890 H 0.51563 0.5085 0.55245 0.0
C891 C 0.45266 0.4394 0.46448 0.0
C892 C 0.49365 0.49215 0.49067 0.0
H893 H 0.53013 0.49531 0.52425 0.0
C894 C 0.49122 0.51333 0.49375 0.0
C895 C 0.50794 0.48562 0.50182 0.0
C896 C 0.51221 0.46367 0.49894 0.0
C897 C 0.50235 0.52796 0.50774 0.0
C898 C 0.51668 0.52146 0.51885 0.0
C899 C 0.51906 0.50025 0.51581 0.0
C900 C 0.52983 0.53658 0.53348 0.0
C901 C 0.49812 0.54993 0.51062 0.0
C902 C 0.54563 0.5604 0.5308 0.0
C903 C 0.55866 0.57435 0.5444 0.0
C904 C 0.55688 0.56463 0.56099 0.0
C905 C 0.54097 0.54072 0.56365 0.0
C906 C 0.52756 0.5269 0.55006 0.0
H907 H 0.48113 0.54817 0.5048 0.0
H908 H 0.49774 0.55374 0.52449 0.0
H909 H 0.51263 0.56537 0.50443 0.0
H910 H 0.54825 0.56818 0.51808 0.0
H911 H 0.57038 0.59273 0.5418 0.0
H912 H 0.00851 0.55891 0.28943 0.0
H913 H 0.99648 0.52394 0.27134 0.0
H914 H 0.92297 0.51047 0.27804 0.0
H915 H 0.93478 0.54628 0.29568 0.0
H916 H 0.95013 0.4726 0.28752 0.0
H917 H 0.95059 0.50886 0.22198 0.0
H918 H 0.97256 0.52711 0.23713 0.0
H919 H 0.94185 0.52037 0.24075 0.0
C920 C 0.98981 0.54913 0.28665 0.0
C921 C 0.97263 0.55553 0.29407 0.0
C922 C 0.98298 0.52895 0.27646 0.0
C923 C 0.95891 0.5147 0.27355 0.0
C924 C 0.94165 0.52134 0.28027 0.0
H925 H 0.93105 0.3927 0.20633 0.0
H926 H 0.92013 0.41722 0.22589 0.0
C927 C 0.94847 0.54173 0.29037 0.0
C928 C 0.95224 0.49222 0.26426 0.0
H929 H 0.95165 0.4711 0.22393 0.0
C930 C 0.94979 0.47197 0.27362 0.0
C931 C 0.95178 0.49162 0.24619 0.0
C932 C 0.95421 0.51307 0.23581 0.0
C933 C 0.94854 0.4515 0.26524 0.0
C934 C 0.94991 0.45155 0.24718 0.0
C935 C 0.95056 0.47118 0.23782 0.0
C936 C 0.95459 0.43331 0.23788 0.0
C937 C 0.94699 0.4304 0.27567 0.0
C938 C 0.97738 0.43388 0.23854 0.0
C939 C 0.984 0.42056 0.22703 0.0
C940 C 0.96782 0.40623 0.2147 0.0
C941 C 0.94425 0.40406 0.21524 0.0
C942 C 0.93782 0.41785 0.22653 0.0
H943 H 0.94059 0.43087 0.28893 0.0
H944 H 0.9349 0.41357 0.26946 0.0
H945 H 0.96488 0.43046 0.27644 0.0
H946 H 0.9906 0.44593 0.24717 0.0
H947 H 1.00234 0.42305 0.22701 0.0
H948 H 0.50725 0.43606 0.31757 0.0
H949 H 0.5401 0.4531 0.29726 0.0
H950 H 0.51791 0.3853 0.27229 0.0
H951 H 0.48527 0.36779 0.29288 0.0
H952 H 0.57862 0.4411 0.28438 0.0
H953 H 0.50832 0.43099 0.23658 0.0
H954 H 0.50219 0.42731 0.25928 0.0
H955 H 0.50625 0.40455 0.2474 0.0
C956 C 0.50978 0.42448 0.3082 0.0
C957 C 0.49331 0.40063 0.30669 0.0
C958 C 0.52855 0.43431 0.29654 0.0
C959 C 0.5311 0.42052 0.28314 0.0
C960 C 0.51599 0.39626 0.28244 0.0
H961 H 0.60142 0.49088 0.18848 0.0
H962 H 0.58404 0.45811 0.20914 0.0
C963 C 0.4973 0.38636 0.29416 0.0
C964 C 0.54748 0.43239 0.26883 0.0
H965 H 0.54764 0.45286 0.22821 0.0
C966 C 0.57197 0.44337 0.27196 0.0
C967 C 0.53868 0.43516 0.25265 0.0
C968 C 0.51243 0.42404 0.2487 0.0
C969 C 0.58789 0.45784 0.25949 0.0
C970 C 0.57891 0.46186 0.24371 0.0
C971 C 0.55454 0.44975 0.24028 0.0
C972 C 0.59355 0.48075 0.23151 0.0
C973 C 0.61406 0.469 0.26352 0.0
C974 C 0.60502 0.50428 0.23723 0.0
C975 C 0.61503 0.52289 0.22551 0.0
C976 C 0.61347 0.51842 0.20778 0.0
C977 C 0.6028 0.49481 0.20206 0.0
C978 C 0.59299 0.47612 0.21385 0.0
H979 H 0.61878 0.45735 0.27214 0.0
H980 H 0.62507 0.4726 0.2517 0.0
H981 H 0.61851 0.48602 0.27032 0.0
H982 H 0.60498 0.50846 0.2507 0.0
H983 H 0.6227 0.54092 0.23031 0.0
H984 H 0.48426 0.02842 0.19378 0.0
H985 H 0.51789 0.04189 0.21351 0.0
H986 H 0.48393 0.07588 0.24482 0.0
H987 H 0.45039 0.06288 0.22503 0.0
H988 H 0.54989 0.08688 0.2292 0.0
H989 H 0.48664 0.02133 0.2748 0.0
H990 H 0.47985 0.02228 0.25242 0.0
H991 H 0.47804 0.04385 0.26699 0.0
C992 C 0.48428 0.03945 0.20452 0.0
C993 C 0.46444 0.0442 0.20801 0.0
C994 C 0.50348 0.04706 0.21582 0.0
C995 C 0.50309 0.05946 0.23074 0.0
C996 C 0.48433 0.06603 0.23347 0.0
H997 H 0.58225 0.06433 0.32385 0.0
H998 H 0.55991 0.0763 0.3029 0.0
C999 C 0.46518 0.0585 0.22219 0.0
C1000 C 0.52064 0.06272 0.24439 0.0
H1001 H 0.52595 0.04172 0.28387 0.0
C1002 C 0.5447 0.07727 0.24126 0.0
C1003 C 0.51373 0.05003 0.26004 0.0
C1004 C 0.48821 0.03333 0.2638 0.0
C1005 C 0.56216 0.07917 0.25335 0.0
C1006 C 0.55527 0.06596 0.26878 0.0
C1007 C 0.53113 0.05204 0.2721 0.0
C1008 C 0.57265 0.06388 0.28086 0.0
C1009 C 0.58779 0.09507 0.24943 0.0
C1010 C 0.58757 0.05344 0.27535 0.0
C1011 C 0.60021 0.04652 0.28725 0.0
C1012 C 0.59803 0.04974 0.30493 0.0
C1013 C 0.58412 0.06144 0.31034 0.0
C1014 C 0.57149 0.06842 0.29839 0.0
H1015 H 0.58937 0.1093 0.24016 0.0
H1016 H 0.59762 0.10337 0.26128 0.0
H1017 H 0.59636 0.08433 0.24359 0.0
H1018 H 0.5882 0.04913 0.26196 0.0
H1019 H 0.61039 0.03715 0.28265 0.0
H1020 H 0.03605 0.56401 0.82621 0.0
H1021 H 0.0457 0.53752 0.80811 0.0
H1022 H 0.07388 0.59228 0.76949 0.0
H1023 H 0.06584 0.61968 0.78806 0.0
H1024 H 0.02198 0.5262 0.77727 0.0
H1025 H 0.11934 0.56009 0.76623 0.0
H1026 H 0.107 0.56972 0.7841 0.0
H1027 H 0.10671 0.58106 0.76293 0.0
C1028 C 0.04535 0.57097 0.81428 0.0
C1029 C 0.04979 0.59399 0.80855 0.0
C1030 C 0.05069 0.55564 0.80385 0.0
C1031 C 0.06041 0.56289 0.78745 0.0
C1032 C 0.06664 0.58638 0.78218 0.0
H1033 H 0.05914 0.47912 0.69832 0.0
H1034 H 0.06834 0.51171 0.71861 0.0
C1035 C 0.06165 0.60191 0.79275 0.0
C1036 C 0.06002 0.54474 0.77505 0.0
H1037 H 0.09437 0.5271 0.74947 0.0
C1038 C 0.03785 0.5263 0.77132 0.0
C1039 C 0.08067 0.54536 0.76692 0.0
C1040 C 0.10483 0.56502 0.77029 0.0
C1041 C 0.03572 0.5082 0.75991 0.0
C1042 C 0.05644 0.50815 0.75236 0.0
C1043 C 0.07861 0.52697 0.75561 0.0
C1044 C 0.05498 0.4888 0.74075 0.0
C1045 C 0.0112 0.48955 0.75578 0.0
C1046 C 0.04537 0.4652 0.74665 0.0
C1047 C 0.03994 0.44652 0.73509 0.0
C1048 C 0.04441 0.4512 0.71749 0.0
C1049 C 0.05567 0.47494 0.71183 0.0
C1050 C 0.06091 0.49361 0.72338 0.0
H1051 H 0.9972 0.49569 0.7589 0.0
H1052 H 0.00974 0.48468 0.74201 0.0
H1053 H 0.00765 0.47334 0.76351 0.0
H1054 H 0.04107 0.46121 0.7601 0.0
H1055 H 0.03156 0.42842 0.73982 0.0
H1056 H 0.49618 0.59754 0.6901 0.0
H1057 H 0.46148 0.57886 0.70872 0.0
H1058 H 0.5048 0.61064 0.75289 0.0
H1059 H 0.53937 0.63004 0.73429 0.0
H1060 H 0.46193 0.54649 0.73114 0.0
H1061 H 0.44337 0.61393 0.76648 0.0
H1062 H 0.46095 0.62081 0.74704 0.0
H1063 H 0.47425 0.61988 0.76737 0.0
C1064 C 0.49811 0.60138 0.7037 0.0
C1065 C 0.52054 0.61506 0.71078 0.0
C1066 C 0.47826 0.59062 0.71433 0.0
C1067 C 0.4805 0.59344 0.73218 0.0
C1068 C 0.50251 0.60856 0.73914 0.0
H1069 H 0.42875 0.50676 0.81887 0.0
H1070 H 0.44704 0.54024 0.79913 0.0
C1071 C 0.52234 0.61937 0.72852 0.0
C1072 C 0.46147 0.57725 0.74361 0.0
H1073 H 0.43051 0.57529 0.78032 0.0
C1074 C 0.45459 0.55277 0.74163 0.0
C1075 C 0.45209 0.58549 0.75737 0.0
C1076 C 0.45788 0.61147 0.75959 0.0
C1077 C 0.4396 0.53639 0.75354 0.0
C1078 C 0.43108 0.54471 0.76772 0.0
C1079 C 0.43716 0.56907 0.76941 0.0
C1080 C 0.41753 0.52822 0.78149 0.0
C1081 C 0.43393 0.51037 0.75136 0.0
C1082 C 0.39442 0.51116 0.77847 0.0
C1083 C 0.38377 0.49215 0.78982 0.0
C1084 C 0.39623 0.48972 0.80425 0.0
C1085 C 0.41858 0.50805 0.80797 0.0
C1086 C 0.42912 0.52719 0.79667 0.0
H1087 H 0.44462 0.5073 0.74098 0.0
H1088 H 0.43718 0.50281 0.76349 0.0
H1089 H 0.41485 0.50053 0.74814 0.0
H1090 H 0.38522 0.5118 0.76681 0.0
H1091 H 0.3663 0.47864 0.78678 0.0
H1092 H 0.56462 0.00413 0.78604 0.0
H1093 H 0.53016 0.99349 0.76766 0.0
H1094 H 0.51142 0.91917 0.77669 0.0
H1095 H 0.54664 0.92956 0.79476 0.0
H1096 H 0.515 0.96187 0.73762 0.0
H1097 H 0.45303 0.93223 0.79362 0.0
H1098 H 0.48442 0.95024 0.79636 0.0
H1099 H 0.47414 0.91961 0.79052 0.0
C1100 C 0.55376 0.98548 0.78374 0.0
C1101 C 0.55851 0.96773 0.79197 0.0
C1102 C 0.53387 0.97945 0.77335 0.0
C1103 C 0.51816 0.9556 0.77107 0.0
C1104 C 0.52324 0.9377 0.77854 0.0
H1105 H 0.38723 0.93079 0.71325 0.0
H1106 H 0.41468 0.92006 0.73007 0.0
C1107 C 0.54335 0.94371 0.78885 0.0
C1108 C 0.49604 0.95008 0.76145 0.0
H1109 H 0.43765 0.93857 0.76754 0.0
C1110 C 0.49793 0.95616 0.74402 0.0
C1111 C 0.47384 0.94257 0.76991 0.0
C1112 C 0.47103 0.93582 0.78865 0.0
C1113 C 0.47852 0.95643 0.73507 0.0
C1114 C 0.45688 0.95077 0.74387 0.0
C1115 C 0.4544 0.94297 0.76094 0.0
C1116 C 0.43816 0.95634 0.73615 0.0
C1117 C 0.48162 0.9641 0.71651 0.0
C1118 C 0.44192 0.98015 0.7347 0.0
C1119 C 0.42661 0.9864 0.72498 0.0
C1120 C 0.40707 0.96888 0.71659 0.0
C1121 C 0.40232 0.94478 0.71927 0.0
C1122 C 0.41786 0.93857 0.72893 0.0
H1123 H 0.49751 0.96305 0.71065 0.0
H1124 H 0.46568 0.95293 0.70897 0.0
H1125 H 0.48384 0.98278 0.71561 0.0
H1126 H 0.45753 0.99405 0.7403 0.0
H1127 H 0.43119 0.00511 0.7231 0.0
loop_
_geom_bond_atom_site_label_1
_geom_bond_atom_site_label_2
_geom_bond_distance
_geom_bond_site_symmetry_2
_ccdc_geom_bond_type
C0 C1 1.264 . S
C0 C5 1.479 . S
C0 C10 1.465 . S
C1 C0 1.264 . S
C1 C3 1.339 . S
C1 H28 0.931 . S
C2 C3 1.395 . S
C2 C4 1.320 . S
C3 C1 1.339 . S
C3 C2 1.395 . S
C3 H29 0.929 . S
C4 C2 1.320 . S
C4 C5 1.405 . S
C4 H30 0.930 . S
C5 C0 1.479 . S
C5 C4 1.405 . S
C5 H31 0.931 . S
U6 O7 2.454 . S
U6 O8 2.458 1_455 S
U6 C9 2.984 1_455 S
U6 C10 2.847 . S
U6 C23 2.882 1_455 S
U6 O24 2.441 . S
U6 O25 2.420 . S
U6 O26 2.455 1_455 S
U6 O27 2.449 . S
O7 U6 2.454 . S
O7 C9 1.353 1_455 S
O8 U6 2.458 1_655 S
O8 C9 1.286 . S
C9 U6 2.984 1_655 S
C9 O7 1.353 1_655 S
C9 O8 1.286 . S
C9 C11 1.363 . S
C10 C0 1.465 . S
C10 U6 2.847 . S
C10 O24 1.249 . S
C10 O25 1.202 . S
C11 C9 1.363 . S
C11 C13 1.408 1_655 S
C11 C16 1.342 . S
C12 C13 1.310 1_655 S
C12 C15 1.461 . S
C12 H32 0.932 1_655 S
C13 C11 1.408 1_455 S
C13 C12 1.310 1_455 S
C13 H33 0.930 . S
C14 C15 1.474 . S
C14 C16 1.285 . S
C14 H34 0.929 . S
C15 C12 1.461 . S
C15 C14 1.474 . S
C16 C11 1.342 . S
C16 C14 1.285 . S
C16 H35 0.930 . S
C17 C20 1.424 . S
C17 C22 1.245 . S
C17 C23 1.428 . S
C18 C21 1.260 . S
C18 C22 1.477 . S
C18 H36 0.932 . S
C19 C20 1.384 . S
C19 C21 1.479 . S
C19 H37 0.929 . S
C20 C17 1.424 . S
C20 C19 1.384 . S
C20 H38 0.928 . S
C21 C18 1.260 . S
C21 C19 1.479 . S
C22 C17 1.245 . S
C22 C18 1.477 . S
C22 H39 0.932 . S
C23 U6 2.882 1_655 S
C23 C17 1.428 . S
C23 O26 1.301 . S
C23 O27 1.282 1_655 S
O24 U6 2.441 . S
O24 C10 1.249 . S
O25 U6 2.420 . S
O25 C10 1.202 . S
O26 U6 2.455 1_655 S
O26 C23 1.301 . S
O27 U6 2.449 . S
O27 C23 1.282 1_455 S
H28 C1 0.931 . S
H29 C3 0.929 . S
H30 C4 0.930 . S
H31 C5 0.931 . S
H32 C12 0.932 1_455 S
H33 C13 0.930 . S
H34 C14 0.929 . S
H35 C16 0.930 . S
H36 C18 0.932 . S
H37 C19 0.929 . S
H38 C20 0.928 . S
H39 C22 0.932 . S
C40 C41 1.264 . S
C40 C45 1.479 . S
C40 C50 1.465 . S
C41 C40 1.264 . S
C41 C43 1.339 . S
C41 H68 0.931 . S
C42 C43 1.395 . S
C42 C44 1.320 . S
C43 C41 1.339 . S
C43 C42 1.395 . S
C43 H69 0.929 . S
C44 C42 1.320 . S
C44 C45 1.405 . S
C44 H70 0.930 . S
C45 C40 1.479 . S
C45 C44 1.405 . S
C45 H71 0.931 . S
U46 O47 2.454 . S
U46 O48 2.458 . S
U46 C49 2.984 . S
U46 C50 2.847 . S
U46 C63 2.882 . S
U46 O64 2.441 . S
U46 O65 2.420 . S
U46 O66 2.455 . S
U46 O67 2.449 . S
O47 U46 2.454 . S
O47 C49 1.353 . S
O48 U46 2.458 . S
O48 C49 1.286 . S
C49 U46 2.984 . S
C49 O47 1.353 . S
C49 O48 1.286 . S
C49 C51 1.363 . S
C50 C40 1.465 . S
C50 U46 2.847 . S
C50 O64 1.249 . S
C50 O65 1.202 . S
C51 C49 1.363 . S
C51 C53 1.408 . S
C51 C56 1.342 . S
C52 C53 1.310 . S
C52 C55 1.461 . S
C52 H72 0.932 . S
C53 C51 1.408 . S
C53 C52 1.310 . S
C53 H73 0.930 . S
C54 C55 1.474 . S
C54 C56 1.285 . S
C54 H74 0.929 . S
C55 C52 1.461 . S
C55 C54 1.474 . S
C56 C51 1.342 . S
C56 C54 1.285 . S
C56 H75 0.930 . S
C57 C60 1.424 . S
C57 C62 1.245 . S
C57 C63 1.428 . S
C58 C61 1.260 . S
C58 C62 1.477 . S
C58 H76 0.932 . S
C59 C60 1.384 . S
C59 C61 1.479 . S
C59 H77 0.929 . S
C60 C57 1.424 . S
C60 C59 1.384 . S
C60 H78 0.928 . S
C61 C58 1.260 . S
C61 C59 1.479 . S
C62 C57 1.245 . S
C62 C58 1.477 . S
C62 H79 0.932 . S
C63 U46 2.882 . S
C63 C57 1.428 . S
C63 O66 1.301 . S
C63 O67 1.282 . S
O64 U46 2.441 . S
O64 C50 1.249 . S
O65 U46 2.420 . S
O65 C50 1.202 . S
O66 U46 2.455 . S
O66 C63 1.301 . S
O67 U46 2.449 . S
O67 C63 1.282 . S
H68 C41 0.931 . S
H69 C43 0.929 . S
H70 C44 0.930 . S
H71 C45 0.931 . S
H72 C52 0.932 . S
H73 C53 0.930 . S
H74 C54 0.929 . S
H75 C56 0.930 . S
H76 C58 0.932 . S
H77 C59 0.929 . S
H78 C60 0.928 . S
H79 C62 0.932 . S
C80 C81 1.264 . S
C80 C85 1.479 . S
C80 C90 1.465 . S
C81 C80 1.264 . S
C81 C83 1.339 . S
C81 H108 0.931 . S
C82 C83 1.395 . S
C82 C84 1.320 . S
C83 C81 1.339 . S
C83 C82 1.395 . S
C83 H109 0.929 . S
C84 C82 1.320 . S
C84 C85 1.405 . S
C84 H110 0.930 . S
C85 C80 1.479 . S
C85 C84 1.405 . S
C85 H111 0.931 . S
U86 O87 2.454 . S
U86 O88 2.458 1_565 S
U86 C89 2.984 1_565 S
U86 C90 2.847 . S
U86 C103 2.882 1_565 S
U86 O104 2.441 . S
U86 O105 2.420 . S
U86 O106 2.455 1_565 S
U86 O107 2.449 . S
O87 U86 2.454 . S
O87 C89 1.353 1_565 S
O88 U86 2.458 1_545 S
O88 C89 1.286 . S
C89 U86 2.984 1_545 S
C89 O87 1.353 1_545 S
C89 O88 1.286 . S
C89 C91 1.363 . S
C90 C80 1.465 . S
C90 U86 2.847 . S
C90 O104 1.249 . S
C90 O105 1.202 . S
C91 C89 1.363 . S
C91 C93 1.408 1_545 S
C91 C96 1.342 . S
C92 C93 1.310 1_545 S
C92 C95 1.461 . S
C92 H112 0.932 1_545 S
C93 C91 1.408 1_565 S
C93 C92 1.310 1_565 S
C93 H113 0.930 . S
C94 C95 1.474 . S
C94 C96 1.285 . S
C94 H114 0.929 . S
C95 C92 1.461 . S
C95 C94 1.474 . S
C96 C91 1.342 . S
C96 C94 1.285 . S
C96 H115 0.930 . S
C97 C100 1.424 . S
C97 C102 1.245 . S
C97 C103 1.428 . S
C98 C101 1.260 . S
C98 C102 1.477 . S
C98 H116 0.932 . S
C99 C100 1.384 . S
C99 C101 1.479 . S
C99 H117 0.929 . S
C100 C97 1.424 . S
C100 C99 1.384 . S
C100 H118 0.928 . S
C101 C98 1.260 . S
C101 C99 1.479 . S
C102 C97 1.245 . S
C102 C98 1.477 . S
C102 H119 0.932 . S
C103 U86 2.882 1_545 S
C103 C97 1.428 . S
C103 O106 1.301 . S
C103 O107 1.282 1_545 S
O104 U86 2.441 . S
O104 C90 1.249 . S
O105 U86 2.420 . S
O105 C90 1.202 . S
O106 U86 2.455 1_545 S
O106 C103 1.301 . S
O107 U86 2.449 . S
O107 C103 1.282 1_565 S
H108 C81 0.931 . S
H109 C83 0.929 . S
H110 C84 0.930 . S
H111 C85 0.931 . S
H112 C92 0.932 1_565 S
H113 C93 0.930 . S
H114 C94 0.929 . S
H115 C96 0.930 . S
H116 C98 0.932 . S
H117 C99 0.929 . S
H118 C100 0.928 . S
H119 C102 0.932 . S
C120 C121 1.264 . S
C120 C125 1.479 . S
C120 C130 1.465 . S
C121 C120 1.264 . S
C121 C123 1.339 . S
C121 H148 0.931 . S
C122 C123 1.395 . S
C122 C124 1.320 . S
C123 C121 1.339 . S
C123 C122 1.395 . S
C123 H149 0.929 . S
C124 C122 1.320 . S
C124 C125 1.405 . S
C124 H150 0.930 . S
C125 C120 1.479 . S
C125 C124 1.405 . S
C125 H151 0.931 . S
U126 O127 2.454 . S
U126 O128 2.458 1_565 S
U126 C129 2.984 1_565 S
U126 C130 2.847 . S
U126 C143 2.882 1_565 S
U126 O144 2.441 . S
U126 O145 2.420 . S
U126 O146 2.455 1_565 S
U126 O147 2.449 . S
O127 U126 2.454 . S
O127 C129 1.353 1_565 S
O128 U126 2.458 1_545 S
O128 C129 1.286 . S
C129 U126 2.984 1_545 S
C129 O127 1.353 1_545 S
C129 O128 1.286 . S
C129 C131 1.363 . S
C130 C120 1.465 . S
C130 U126 2.847 . S
C130 O144 1.249 . S
C130 O145 1.202 . S
C131 C129 1.363 . S
C131 C133 1.408 1_545 S
C131 C136 1.342 . S
C132 C133 1.310 1_545 S
C132 C135 1.461 . S
C132 H152 0.932 1_545 S
C133 C131 1.408 1_565 S
C133 C132 1.310 1_565 S
C133 H153 0.930 . S
C134 C135 1.474 . S
C134 C136 1.285 . S
C134 H154 0.929 . S
C135 C132 1.461 . S
C135 C134 1.474 . S
C136 C131 1.342 . S
C136 C134 1.285 . S
C136 H155 0.930 . S
C137 C140 1.424 . S
C137 C142 1.245 . S
C137 C143 1.428 . S
C138 C141 1.260 . S
C138 C142 1.477 . S
C138 H156 0.932 . S
C139 C140 1.384 . S
C139 C141 1.479 . S
C139 H157 0.929 . S
C140 C137 1.424 . S
C140 C139 1.384 . S
C140 H158 0.928 . S
C141 C138 1.260 . S
C141 C139 1.479 . S
C142 C137 1.245 . S
C142 C138 1.477 . S
C142 H159 0.932 . S
C143 U126 2.882 1_545 S
C143 C137 1.428 . S
C143 O146 1.301 . S
C143 O147 1.282 1_545 S
O144 U126 2.441 . S
O144 C130 1.249 . S
O145 U126 2.420 . S
O145 C130 1.202 . S
O146 U126 2.455 1_545 S
O146 C143 1.301 . S
O147 U126 2.449 . S
O147 C143 1.282 1_565 S
H148 C121 0.931 . S
H149 C123 0.929 . S
H150 C124 0.930 . S
H151 C125 0.931 . S
H152 C132 0.932 1_565 S
H153 C133 0.930 . S
H154 C134 0.929 . S
H155 C136 0.930 . S
H156 C138 0.932 . S
H157 C139 0.929 . S
H158 C140 0.928 . S
H159 C142 0.932 . S
C160 C161 1.264 . S
C160 C165 1.479 . S
C160 C170 1.465 . S
C161 C160 1.264 . S
C161 C163 1.339 . S
C161 H188 0.931 . S
C162 C163 1.395 . S
C162 C164 1.320 . S
C163 C161 1.339 . S
C163 C162 1.395 . S
C163 H189 0.929 . S
C164 C162 1.320 . S
C164 C165 1.405 . S
C164 H190 0.930 . S
C165 C160 1.479 . S
C165 C164 1.405 . S
C165 H191 0.931 . S
U166 O167 2.454 . S
U166 O168 2.458 1_455 S
U166 C169 2.984 1_455 S
U166 C170 2.847 . S
U166 C183 2.882 1_455 S
U166 O184 2.441 . S
U166 O185 2.420 . S
U166 O186 2.455 1_455 S
U166 O187 2.449 . S
O167 U166 2.454 . S
O167 C169 1.353 1_455 S
O168 U166 2.458 1_655 S
O168 C169 1.286 . S
C169 U166 2.984 1_655 S
C169 O167 1.353 1_655 S
C169 O168 1.286 . S
C169 C171 1.363 . S
C170 C160 1.465 . S
C170 U166 2.847 . S
C170 O184 1.249 . S
C170 O185 1.202 . S
C171 C169 1.363 . S
C171 C173 1.408 1_655 S
C171 C176 1.342 . S
C172 C173 1.310 1_655 S
C172 C175 1.461 . S
C172 H192 0.932 1_655 S
C173 C171 1.408 1_455 S
C173 C172 1.310 1_455 S
C173 H193 0.930 . S
C174 C175 1.474 . S
C174 C176 1.285 . S
C174 H194 0.929 . S
C175 C172 1.461 . S
C175 C174 1.474 . S
C176 C171 1.342 . S
C176 C174 1.285 . S
C176 H195 0.930 . S
C177 C180 1.424 . S
C177 C182 1.245 . S
C177 C183 1.428 . S
C178 C181 1.260 . S
C178 C182 1.477 . S
C178 H196 0.932 . S
C179 C180 1.384 . S
C179 C181 1.479 . S
C179 H197 0.929 . S
C180 C177 1.424 . S
C180 C179 1.384 . S
C180 H198 0.928 . S
C181 C178 1.260 . S
C181 C179 1.479 . S
C182 C177 1.245 . S
C182 C178 1.477 . S
C182 H199 0.932 . S
C183 U166 2.882 1_655 S
C183 C177 1.428 . S
C183 O186 1.301 . S
C183 O187 1.282 1_655 S
O184 U166 2.441 . S
O184 C170 1.249 . S
O185 U166 2.420 . S
O185 C170 1.202 . S
O186 U166 2.455 1_655 S
O186 C183 1.301 . S
O187 U166 2.449 . S
O187 C183 1.282 1_455 S
H188 C161 0.931 . S
H189 C163 0.929 . S
H190 C164 0.930 . S
H191 C165 0.931 . S
H192 C172 0.932 1_455 S
H193 C173 0.930 . S
H194 C174 0.929 . S
H195 C176 0.930 . S
H196 C178 0.932 . S
H197 C179 0.929 . S
H198 C180 0.928 . S
H199 C182 0.932 . S
C200 C201 1.264 . S
C200 C205 1.479 . S
C200 C210 1.465 . S
C201 C200 1.264 . S
C201 C203 1.339 . S
C201 H228 0.931 . S
C202 C203 1.395 . S
C202 C204 1.320 . S
C203 C201 1.339 . S
C203 C202 1.395 . S
C203 H229 0.929 . S
C204 C202 1.320 . S
C204 C205 1.405 . S
C204 H230 0.930 . S
C205 C200 1.479 . S
C205 C204 1.405 . S
C205 H231 0.931 . S
U206 O207 2.454 . S
U206 O208 2.458 . S
U206 C209 2.984 . S
U206 C210 2.847 . S
U206 C223 2.882 . S
U206 O224 2.441 . S
U206 O225 2.420 . S
U206 O226 2.455 . S
U206 O227 2.449 . S
O207 U206 2.454 . S
O207 C209 1.353 . S
O208 U206 2.458 . S
O208 C209 1.286 . S
C209 U206 2.984 . S
C209 O207 1.353 . S
C209 O208 1.286 . S
C209 C211 1.363 . S
C210 C200 1.465 . S
C210 U206 2.847 . S
C210 O224 1.249 . S
C210 O225 1.202 . S
C211 C209 1.363 . S
C211 C213 1.408 . S
C211 C216 1.342 . S
C212 C213 1.310 . S
C212 C215 1.461 . S
C212 H232 0.932 . S
C213 C211 1.408 . S
C213 C212 1.310 . S
C213 H233 0.930 . S
C214 C215 1.474 . S
C214 C216 1.285 . S
C214 H234 0.929 . S
C215 C212 1.461 . S
C215 C214 1.474 . S
C216 C211 1.342 . S
C216 C214 1.285 . S
C216 H235 0.930 . S
C217 C220 1.424 . S
C217 C222 1.245 . S
C217 C223 1.428 . S
C218 C221 1.260 . S
C218 C222 1.477 . S
C218 H236 0.932 . S
C219 C220 1.384 . S
C219 C221 1.479 . S
C219 H237 0.929 . S
C220 C217 1.424 . S
C220 C219 1.384 . S
C220 H238 0.928 . S
C221 C218 1.260 . S
C221 C219 1.479 . S
C222 C217 1.245 . S
C222 C218 1.477 . S
C222 H239 0.932 . S
C223 U206 2.882 . S
C223 C217 1.428 . S
C223 O226 1.301 . S
C223 O227 1.282 . S
O224 U206 2.441 . S
O224 C210 1.249 . S
O225 U206 2.420 . S
O225 C210 1.202 . S
O226 U206 2.455 . S
O226 C223 1.301 . S
O227 U206 2.449 . S
O227 C223 1.282 . S
H228 C201 0.931 . S
H229 C203 0.929 . S
H230 C204 0.930 . S
H231 C205 0.931 . S
H232 C212 0.932 . S
H233 C213 0.930 . S
H234 C214 0.929 . S
H235 C216 0.930 . S
H236 C218 0.932 . S
H237 C219 0.929 . S
H238 C220 0.928 . S
H239 C222 0.932 . S
C240 C241 1.264 . S
C240 C245 1.479 . S
C240 C250 1.465 . S
C241 C240 1.264 . S
C241 C243 1.339 . S
C241 H268 0.931 . S
C242 C243 1.395 . S
C242 C244 1.320 . S
C243 C241 1.339 . S
C243 C242 1.395 . S
C243 H269 0.929 . S
C244 C242 1.320 . S
C244 C245 1.405 . S
C244 H270 0.930 . S
C245 C240 1.479 . S
C245 C244 1.405 . S
C245 H271 0.931 . S
U246 O247 2.454 1_455 S
U246 O248 2.458 . S
U246 C249 2.984 . S
U246 C250 2.847 1_455 S
U246 C263 2.882 . S
U246 O264 2.441 1_455 S
U246 O265 2.420 1_455 S
U246 O266 2.455 . S
U246 O267 2.449 . S
O247 U246 2.454 1_655 S
O247 C249 1.353 1_655 S
O248 U246 2.458 . S
O248 C249 1.286 . S
C249 U246 2.984 . S
C249 O247 1.353 1_455 S
C249 O248 1.286 . S
C249 C251 1.363 . S
C250 C240 1.465 . S
C250 U246 2.847 1_655 S
C250 O264 1.249 . S
C250 O265 1.202 . S
C251 C249 1.363 . S
C251 C253 1.408 . S
C251 C256 1.342 . S
C252 C253 1.310 . S
C252 C255 1.461 . S
C252 H272 0.932 1_455 S
C253 C251 1.408 . S
C253 C252 1.310 . S
C253 H273 0.930 1_455 S
C254 C255 1.474 . S
C254 C256 1.285 . S
C254 H274 0.929 . S
C255 C252 1.461 . S
C255 C254 1.474 . S
C256 C251 1.342 . S
C256 C254 1.285 . S
C256 H275 0.930 . S
C257 C260 1.424 . S
C257 C262 1.245 . S
C257 C263 1.428 . S
C258 C261 1.260 . S
C258 C262 1.477 . S
C258 H276 0.932 . S
C259 C260 1.384 . S
C259 C261 1.479 . S
C259 H277 0.929 . S
C260 C257 1.424 . S
C260 C259 1.384 . S
C260 H278 0.928 . S
C261 C258 1.260 . S
C261 C259 1.479 . S
C262 C257 1.245 . S
C262 C258 1.477 . S
C262 H279 0.932 . S
C263 U246 2.882 . S
C263 C257 1.428 . S
C263 O266 1.301 . S
C263 O267 1.282 . S
O264 U246 2.441 1_655 S
O264 C250 1.249 . S
O265 U246 2.420 1_655 S
O265 C250 1.202 . S
O266 U246 2.455 . S
O266 C263 1.301 . S
O267 U246 2.449 . S
O267 C263 1.282 . S
H268 C241 0.931 . S
H269 C243 0.929 . S
H270 C244 0.930 . S
H271 C245 0.931 . S
H272 C252 0.932 1_655 S
H273 C253 0.930 1_655 S
H274 C254 0.929 . S
H275 C256 0.930 . S
H276 C258 0.932 . S
H277 C259 0.929 . S
H278 C260 0.928 . S
H279 C262 0.932 . S
C280 C281 1.264 . S
C280 C285 1.479 . S
C280 C290 1.465 . S
C281 C280 1.264 . S
C281 C283 1.339 . S
C281 H308 0.931 . S
C282 C283 1.395 . S
C282 C284 1.320 . S
C283 C281 1.339 . S
C283 C282 1.395 . S
C283 H309 0.929 . S
C284 C282 1.320 . S
C284 C285 1.405 . S
C284 H310 0.930 . S
C285 C280 1.479 . S
C285 C284 1.405 . S
C285 H311 0.931 . S
U286 O287 2.454 . S
U286 O288 2.458 . S
U286 C289 2.984 . S
U286 C290 2.847 . S
U286 C303 2.882 . S
U286 O304 2.441 . S
U286 O305 2.420 . S
U286 O306 2.455 . S
U286 O307 2.449 . S
O287 U286 2.454 . S
O287 C289 1.353 . S
O288 U286 2.458 . S
O288 C289 1.286 . S
C289 U286 2.984 . S
C289 O287 1.353 . S
C289 O288 1.286 . S
C289 C291 1.363 . S
C290 C280 1.465 . S
C290 U286 2.847 . S
C290 O304 1.249 . S
C290 O305 1.202 . S
C291 C289 1.363 . S
C291 C293 1.408 . S
C291 C296 1.342 . S
C292 C293 1.310 . S
C292 C295 1.461 . S
C292 H312 0.932 . S
C293 C291 1.408 . S
C293 C292 1.310 . S
C293 H313 0.930 . S
C294 C295 1.474 . S
C294 C296 1.285 . S
C294 H314 0.929 . S
C295 C292 1.461 . S
C295 C294 1.474 . S
C296 C291 1.342 . S
C296 C294 1.285 . S
C296 H315 0.930 . S
C297 C300 1.424 . S
C297 C302 1.245 . S
C297 C303 1.428 . S
C298 C301 1.260 . S
C298 C302 1.477 . S
C298 H316 0.932 . S
C299 C300 1.384 . S
C299 C301 1.479 . S
C299 H317 0.929 . S
C300 C297 1.424 . S
C300 C299 1.384 . S
C300 H318 0.928 . S
C301 C298 1.260 . S
C301 C299 1.479 . S
C302 C297 1.245 . S
C302 C298 1.477 . S
C302 H319 0.932 . S
C303 U286 2.882 . S
C303 C297 1.428 . S
C303 O306 1.301 . S
C303 O307 1.282 . S
O304 U286 2.441 . S
O304 C290 1.249 . S
O305 U286 2.420 . S
O305 C290 1.202 . S
O306 U286 2.455 . S
O306 C303 1.301 . S
O307 U286 2.449 . S
O307 C303 1.282 . S
H308 C281 0.931 . S
H309 C283 0.929 . S
H310 C284 0.930 . S
H311 C285 0.931 . S
H312 C292 0.932 . S
H313 C293 0.930 . S
H314 C294 0.929 . S
H315 C296 0.930 . S
H316 C298 0.932 . S
H317 C299 0.929 . S
H318 C300 0.928 . S
H319 C302 0.932 . S
C320 C321 1.264 . S
C320 C325 1.479 . S
C320 C330 1.465 . S
C321 C320 1.264 . S
C321 C323 1.339 . S
C321 H348 0.931 . S
C322 C323 1.395 . S
C322 C324 1.320 . S
C323 C321 1.339 . S
C323 C322 1.395 . S
C323 H349 0.929 . S
C324 C322 1.320 . S
C324 C325 1.405 . S
C324 H350 0.930 . S
C325 C320 1.479 . S
C325 C324 1.405 . S
C325 H351 0.931 . S
U326 O327 2.455 . S
U326 O328 2.458 . S
U326 C329 2.984 . S
U326 C330 2.847 1_565 S
U326 C343 2.882 . S
U326 O344 2.441 1_565 S
U326 O345 2.420 1_565 S
U326 O346 2.455 . S
U326 O347 2.449 . S
O327 U326 2.455 . S
O327 C329 1.355 . S
O328 U326 2.458 . S
O328 C329 1.286 . S
C329 U326 2.984 . S
C329 O327 1.355 . S
C329 O328 1.286 . S
C329 C331 1.363 . S
C330 C320 1.465 . S
C330 U326 2.847 1_545 S
C330 O344 1.249 . S
C330 O345 1.202 . S
C331 C329 1.363 . S
C331 C333 1.408 . S
C331 C336 1.342 . S
C332 C333 1.310 . S
C332 C335 1.461 . S
C332 H352 0.932 . S
C333 C331 1.408 . S
C333 C332 1.310 . S
C333 H353 0.930 1_565 S
C334 C335 1.474 . S
C334 C336 1.285 . S
C334 H354 0.929 . S
C335 C332 1.461 . S
C335 C334 1.474 . S
C336 C331 1.342 . S
C336 C334 1.285 . S
C336 H355 0.930 . S
C337 C340 1.424 . S
C337 C342 1.245 . S
C337 C343 1.428 . S
C338 C341 1.260 . S
C338 C342 1.477 . S
C338 H356 0.932 . S
C339 C340 1.384 . S
C339 C341 1.479 . S
C339 H357 0.929 . S
C340 C337 1.424 . S
C340 C339 1.384 . S
C340 H358 0.928 . S
C341 C338 1.260 . S
C341 C339 1.479 . S
C342 C337 1.245 . S
C342 C338 1.477 . S
C342 H359 0.932 . S
C343 U326 2.882 . S
C343 C337 1.428 . S
C343 O346 1.301 . S
C343 O347 1.282 . S
O344 U326 2.441 1_545 S
O344 C330 1.249 . S
O345 U326 2.420 1_545 S
O345 C330 1.202 . S
O346 U326 2.455 . S
O346 C343 1.301 . S
O347 U326 2.449 . S
O347 C343 1.282 . S
H348 C321 0.931 . S
H349 C323 0.929 . S
H350 C324 0.930 . S
H351 C325 0.931 . S
H352 C332 0.932 . S
H353 C333 0.930 1_545 S
H354 C334 0.929 . S
H355 C336 0.930 . S
H356 C338 0.932 . S
H357 C339 0.929 . S
H358 C340 0.928 . S
H359 C342 0.932 . S
C360 C361 1.264 . S
C360 C365 1.479 . S
C360 C370 1.465 . S
C361 C360 1.264 . S
C361 C363 1.339 . S
C361 H388 0.931 . S
C362 C363 1.395 . S
C362 C364 1.320 . S
C363 C361 1.339 . S
C363 C362 1.395 . S
C363 H389 0.929 . S
C364 C362 1.320 . S
C364 C365 1.405 . S
C364 H390 0.930 . S
C365 C360 1.479 . S
C365 C364 1.405 . S
C365 H391 0.931 . S
U366 O367 2.454 1_565 S
U366 O368 2.458 . S
U366 C369 2.984 . S
U366 C370 2.847 1_565 S
U366 C383 2.882 . S
U366 O384 2.441 1_565 S
U366 O385 2.420 1_565 S
U366 O386 2.455 . S
U366 O387 2.449 . S
O367 U366 2.454 1_545 S
O367 C369 1.353 1_545 S
O368 U366 2.458 . S
O368 C369 1.286 . S
C369 U366 2.984 . S
C369 O367 1.353 1_565 S
C369 O368 1.286 . S
C369 C371 1.363 . S
C370 C360 1.465 . S
C370 U366 2.847 1_545 S
C370 O384 1.249 . S
C370 O385 1.202 . S
C371 C369 1.363 . S
C371 C373 1.408 . S
C371 C376 1.342 . S
C372 C373 1.310 . S
C372 C375 1.461 . S
C372 H392 0.932 1_565 S
C373 C371 1.408 . S
C373 C372 1.310 . S
C373 H393 0.930 1_565 S
C374 C375 1.474 . S
C374 C376 1.285 . S
C374 H394 0.929 . S
C375 C372 1.461 . S
C375 C374 1.474 . S
C376 C371 1.342 . S
C376 C374 1.285 . S
C376 H395 0.930 . S
C377 C380 1.424 . S
C377 C382 1.245 . S
C377 C383 1.428 . S
C378 C381 1.260 . S
C378 C382 1.477 . S
C378 H396 0.932 . S
C379 C380 1.384 . S
C379 C381 1.479 . S
C379 H397 0.929 . S
C380 C377 1.424 . S
C380 C379 1.384 . S
C380 H398 0.928 . S
C381 C378 1.260 . S
C381 C379 1.479 . S
C382 C377 1.245 . S
C382 C378 1.477 . S
C382 H399 0.932 . S
C383 U366 2.882 . S
C383 C377 1.428 . S
C383 O386 1.301 . S
C383 O387 1.282 . S
O384 U366 2.441 1_545 S
O384 C370 1.249 . S
O385 U366 2.420 1_545 S
O385 C370 1.202 . S
O386 U366 2.455 . S
O386 C383 1.301 . S
O387 U366 2.449 . S
O387 C383 1.282 . S
H388 C361 0.931 . S
H389 C363 0.929 . S
H390 C364 0.930 . S
H391 C365 0.931 . S
H392 C372 0.932 1_545 S
H393 C373 0.930 1_545 S
H394 C374 0.929 . S
H395 C376 0.930 . S
H396 C378 0.932 . S
H397 C379 0.929 . S
H398 C380 0.928 . S
H399 C382 0.932 . S
C400 C401 1.264 . S
C400 C405 1.479 . S
C400 C410 1.465 . S
C401 C400 1.264 . S
C401 C403 1.339 . S
C401 H428 0.931 . S
C402 C403 1.395 . S
C402 C404 1.320 . S
C403 C401 1.339 . S
C403 C402 1.395 . S
C403 H429 0.929 . S
C404 C402 1.320 . S
C404 C405 1.405 . S
C404 H430 0.930 . S
C405 C400 1.479 . S
C405 C404 1.405 . S
C405 H431 0.931 . S
U406 O407 2.455 . S
U406 O408 2.458 . S
U406 C409 2.984 . S
U406 C410 2.847 1_455 S
U406 C423 2.882 . S
U406 O424 2.441 1_455 S
U406 O425 2.420 1_455 S
U406 O426 2.455 . S
U406 O427 2.449 . S
O407 U406 2.455 . S
O407 C409 1.355 . S
O408 U406 2.458 . S
O408 C409 1.286 . S
C409 U406 2.984 . S
C409 O407 1.355 . S
C409 O408 1.286 . S
C409 C411 1.363 . S
C410 C400 1.465 . S
C410 U406 2.847 1_655 S
C410 O424 1.249 . S
C410 O425 1.202 . S
C411 C409 1.363 . S
C411 C413 1.408 . S
C411 C416 1.342 . S
C412 C413 1.310 . S
C412 C415 1.461 . S
C412 H432 0.932 . S
C413 C411 1.408 . S
C413 C412 1.310 . S
C413 H433 0.930 1_455 S
C414 C415 1.474 . S
C414 C416 1.285 . S
C414 H434 0.929 . S
C415 C412 1.461 . S
C415 C414 1.474 . S
C416 C411 1.342 . S
C416 C414 1.285 . S
C416 H435 0.930 . S
C417 C420 1.424 . S
C417 C422 1.245 . S
C417 C423 1.428 . S
C418 C421 1.260 . S
C418 C422 1.477 . S
C418 H436 0.932 . S
C419 C420 1.384 . S
C419 C421 1.479 . S
C419 H437 0.929 . S
C420 C417 1.424 . S
C420 C419 1.384 . S
C420 H438 0.928 . S
C421 C418 1.260 . S
C421 C419 1.479 . S
C422 C417 1.245 . S
C422 C418 1.477 . S
C422 H439 0.932 . S
C423 U406 2.882 . S
C423 C417 1.428 . S
C423 O426 1.301 . S
C423 O427 1.282 . S
O424 U406 2.441 1_655 S
O424 C410 1.249 . S
O425 U406 2.420 1_655 S
O425 C410 1.202 . S
O426 U406 2.455 . S
O426 C423 1.301 . S
O427 U406 2.449 . S
O427 C423 1.282 . S
H428 C401 0.931 . S
H429 C403 0.929 . S
H430 C404 0.930 . S
H431 C405 0.931 . S
H432 C412 0.932 . S
H433 C413 0.930 1_655 S
H434 C414 0.929 . S
H435 C416 0.930 . S
H436 C418 0.932 . S
H437 C419 0.929 . S
H438 C420 0.928 . S
H439 C422 0.932 . S
C440 C441 1.264 . S
C440 C445 1.479 . S
C440 C450 1.465 . S
C441 C440 1.264 . S
C441 C443 1.339 . S
C441 H468 0.931 . S
C442 C443 1.395 . S
C442 C444 1.320 . S
C443 C441 1.339 . S
C443 C442 1.395 . S
C443 H469 0.929 . S
C444 C442 1.320 . S
C444 C445 1.405 . S
C444 H470 0.930 . S
C445 C440 1.479 . S
C445 C444 1.405 . S
C445 H471 0.931 . S
U446 O447 2.454 . S
U446 O448 2.458 . S
U446 C449 2.984 . S
U446 C450 2.847 . S
U446 C463 2.882 . S
U446 O464 2.441 . S
U446 O465 2.420 . S
U446 O466 2.455 . S
U446 O467 2.449 . S
O447 U446 2.454 . S
O447 C449 1.353 . S
O448 U446 2.458 . S
O448 C449 1.286 . S
C449 U446 2.984 . S
C449 O447 1.353 . S
C449 O448 1.286 . S
C449 C451 1.363 . S
C450 C440 1.465 . S
C450 U446 2.847 . S
C450 O464 1.249 . S
C450 O465 1.202 . S
C451 C449 1.363 . S
C451 C453 1.408 . S
C451 C456 1.342 . S
C452 C453 1.310 . S
C452 C455 1.461 . S
C452 H472 0.932 . S
C453 C451 1.408 . S
C453 C452 1.310 . S
C453 H473 0.930 . S
C454 C455 1.474 . S
C454 C456 1.285 . S
C454 H474 0.929 . S
C455 C452 1.461 . S
C455 C454 1.474 . S
C456 C451 1.342 . S
C456 C454 1.285 . S
C456 H475 0.930 . S
C457 C460 1.424 . S
C457 C462 1.245 . S
C457 C463 1.428 . S
C458 C461 1.260 . S
C458 C462 1.477 . S
C458 H476 0.932 . S
C459 C460 1.384 . S
C459 C461 1.479 . S
C459 H477 0.929 . S
C460 C457 1.424 . S
C460 C459 1.384 . S
C460 H478 0.928 . S
C461 C458 1.260 . S
C461 C459 1.479 . S
C462 C457 1.245 . S
C462 C458 1.477 . S
C462 H479 0.932 . S
C463 U446 2.882 . S
C463 C457 1.428 . S
C463 O466 1.301 . S
C463 O467 1.282 . S
O464 U446 2.441 . S
O464 C450 1.249 . S
O465 U446 2.420 . S
O465 C450 1.202 . S
O466 U446 2.455 . S
O466 C463 1.301 . S
O467 U446 2.449 . S
O467 C463 1.282 . S
H468 C441 0.931 . S
H469 C443 0.929 . S
H470 C444 0.930 . S
H471 C445 0.931 . S
H472 C452 0.932 . S
H473 C453 0.930 . S
H474 C454 0.929 . S
H475 C456 0.930 . S
H476 C458 0.932 . S
H477 C459 0.929 . S
H478 C460 0.928 . S
H479 C462 0.932 . S
H480 C488 0.929 . S
H481 C490 0.930 . S
H482 C492 0.930 . S
H483 C495 0.929 . S
H484 C498 0.930 . S
H485 C500 0.960 . S
H486 C500 0.960 . S
H487 C500 0.960 . S
C488 H480 0.929 . S
C488 C489 1.377 . S
C488 C490 1.384 . S
C489 C488 1.377 . S
C489 C495 1.390 . S
C490 H481 0.930 . S
C490 C488 1.384 . S
C490 C491 1.372 . S
C491 C490 1.372 . S
C491 C492 1.400 . S
C491 C496 1.490 . S
C492 H482 0.930 . S
C492 C491 1.400 . S
C492 C495 1.386 . S
H493 C509 0.930 . S
H494 C510 0.931 . S
C495 H483 0.929 . S
C495 C489 1.390 . S
C495 C492 1.386 . S
C496 C491 1.490 . S
C496 C498 1.395 . S
C496 C499 1.403 . S
H497 C503 0.930 . S
C498 H484 0.930 . S
C498 C496 1.395 . S
C498 C501 1.403 . S
C499 C496 1.403 . S
C499 C500 1.524 . S
C499 C503 1.400 . S
C500 H485 0.960 . S
C500 H486 0.960 . S
C500 H487 0.960 . S
C500 C499 1.524 . S
C501 C498 1.403 . S
C501 C502 1.392 . S
C501 C505 1.495 . S
C502 C501 1.392 . S
C502 C503 1.385 . S
C502 C504 1.478 . S
C503 H497 0.930 . S
C503 C499 1.400 . S
C503 C502 1.385 . S
C504 C502 1.478 . S
C504 C506 1.381 . S
C504 C510 1.383 . S
C505 C501 1.495 . S
C505 H511 0.959 . S
C505 H512 0.961 . S
C505 H513 0.960 . S
C506 C504 1.381 . S
C506 C507 1.394 . S
C506 H514 0.930 . S
C507 C506 1.394 . S
C507 C508 1.383 . S
C507 H515 0.929 . S
C508 C507 1.383 . S
C508 C509 1.377 . S
C509 H493 0.930 . S
C509 C508 1.377 . S
C509 C510 1.379 . S
C510 H494 0.931 . S
C510 C504 1.383 . S
C510 C509 1.379 . S
H511 C505 0.959 . S
H512 C505 0.961 . S
H513 C505 0.960 . S
H514 C506 0.930 . S
H515 C507 0.929 . S
H516 C524 0.929 . S
H517 C526 0.930 . S
H518 C528 0.930 . S
H519 C531 0.929 . S
H520 C534 0.930 . S
H521 C536 0.960 . S
H522 C536 0.960 . S
H523 C536 0.960 . S
C524 H516 0.929 . S
C524 C525 1.377 . S
C524 C526 1.384 . S
C525 C524 1.377 . S
C525 C531 1.390 . S
C526 H517 0.930 . S
C526 C524 1.384 . S
C526 C527 1.372 . S
C527 C526 1.372 . S
C527 C528 1.400 . S
C527 C532 1.490 . S
C528 H518 0.930 . S
C528 C527 1.400 . S
C528 C531 1.386 . S
H529 C545 0.930 . S
H530 C546 0.931 . S
C531 H519 0.929 . S
C531 C525 1.390 . S
C531 C528 1.386 . S
C532 C527 1.490 . S
C532 C534 1.395 . S
C532 C535 1.403 . S
H533 C539 0.930 . S
C534 H520 0.930 . S
C534 C532 1.395 . S
C534 C537 1.403 . S
C535 C532 1.403 . S
C535 C536 1.524 . S
C535 C539 1.400 . S
C536 H521 0.960 . S
C536 H522 0.960 . S
C536 H523 0.960 . S
C536 C535 1.524 . S
C537 C534 1.403 . S
C537 C538 1.392 . S
C537 C541 1.495 . S
C538 C537 1.392 . S
C538 C539 1.385 . S
C538 C540 1.478 . S
C539 H533 0.930 . S
C539 C535 1.400 . S
C539 C538 1.385 . S
C540 C538 1.478 . S
C540 C542 1.381 . S
C540 C546 1.383 . S
C541 C537 1.495 . S
C541 H547 0.959 . S
C541 H548 0.961 . S
C541 H549 0.960 . S
C542 C540 1.381 . S
C542 C543 1.394 . S
C542 H550 0.930 . S
C543 C542 1.394 . S
C543 C544 1.383 . S
C543 H551 0.929 . S
C544 C543 1.383 . S
C544 C545 1.377 . S
C545 H529 0.930 . S
C545 C544 1.377 . S
C545 C546 1.379 . S
C546 H530 0.931 . S
C546 C540 1.383 . S
C546 C545 1.379 . S
H547 C541 0.959 . S
H548 C541 0.961 . S
H549 C541 0.960 . S
H550 C542 0.930 . S
H551 C543 0.929 . S
H552 C560 0.929 . S
H553 C562 0.930 . S
H554 C564 0.930 . S
H555 C567 0.929 . S
H556 C570 0.930 . S
H557 C572 0.960 . S
H558 C572 0.960 . S
H559 C572 0.960 . S
C560 H552 0.929 . S
C560 C561 1.377 . S
C560 C562 1.384 . S
C561 C560 1.377 . S
C561 C567 1.390 . S
C562 H553 0.930 . S
C562 C560 1.384 . S
C562 C563 1.372 . S
C563 C562 1.372 . S
C563 C564 1.400 . S
C563 C568 1.490 . S
C564 H554 0.930 . S
C564 C563 1.400 . S
C564 C567 1.386 . S
H565 C581 0.930 . S
H566 C582 0.931 . S
C567 H555 0.929 . S
C567 C561 1.390 . S
C567 C564 1.386 . S
C568 C563 1.490 . S
C568 C570 1.395 . S
C568 C571 1.403 . S
H569 C575 0.930 . S
C570 H556 0.930 . S
C570 C568 1.395 . S
C570 C573 1.403 . S
C571 C568 1.403 . S
C571 C572 1.524 . S
C571 C575 1.400 . S
C572 H557 0.960 . S
C572 H558 0.960 . S
C572 H559 0.960 . S
C572 C571 1.524 . S
C573 C570 1.403 . S
C573 C574 1.392 . S
C573 C577 1.495 . S
C574 C573 1.392 . S
C574 C575 1.385 . S
C574 C576 1.478 . S
C575 H569 0.930 . S
C575 C571 1.400 . S
C575 C574 1.385 . S
C576 C574 1.478 . S
C576 C578 1.381 . S
C576 C582 1.383 . S
C577 C573 1.495 . S
C577 H583 0.959 . S
C577 H584 0.961 . S
C577 H585 0.960 . S
C578 C576 1.381 . S
C578 C579 1.394 . S
C578 H586 0.930 . S
C579 C578 1.394 . S
C579 C580 1.383 . S
C579 H587 0.929 . S
C580 C579 1.383 . S
C580 C581 1.377 . S
C581 H565 0.930 . S
C581 C580 1.377 . S
C581 C582 1.379 . S
C582 H566 0.931 . S
C582 C576 1.383 . S
C582 C581 1.379 . S
H583 C577 0.959 . S
H584 C577 0.961 . S
H585 C577 0.960 . S
H586 C578 0.930 . S
H587 C579 0.929 . S
H588 C596 0.929 . S
H589 C598 0.930 . S
H590 C600 0.930 . S
H591 C603 0.929 . S
H592 C606 0.930 . S
H593 C608 0.960 . S
H594 C608 0.960 . S
H595 C608 0.960 . S
C596 H588 0.929 . S
C596 C597 1.377 . S
C596 C598 1.384 . S
C597 C596 1.377 . S
C597 C603 1.390 . S
C598 H589 0.930 . S
C598 C596 1.384 . S
C598 C599 1.372 . S
C599 C598 1.372 . S
C599 C600 1.400 . S
C599 C604 1.490 . S
C600 H590 0.930 . S
C600 C599 1.400 . S
C600 C603 1.386 . S
H601 C617 0.930 . S
H602 C618 0.931 . S
C603 H591 0.929 . S
C603 C597 1.390 . S
C603 C600 1.386 . S
C604 C599 1.490 . S
C604 C606 1.395 . S
C604 C607 1.403 . S
H605 C611 0.930 . S
C606 H592 0.930 . S
C606 C604 1.395 . S
C606 C609 1.403 . S
C607 C604 1.403 . S
C607 C608 1.524 . S
C607 C611 1.400 . S
C608 H593 0.960 . S
C608 H594 0.960 . S
C608 H595 0.960 . S
C608 C607 1.524 . S
C609 C606 1.403 . S
C609 C610 1.392 . S
C609 C613 1.495 . S
C610 C609 1.392 . S
C610 C611 1.385 . S
C610 C612 1.478 . S
C611 H605 0.930 . S
C611 C607 1.400 . S
C611 C610 1.385 . S
C612 C610 1.478 . S
C612 C614 1.381 . S
C612 C618 1.383 . S
C613 C609 1.495 . S
C613 H619 0.959 . S
C613 H620 0.961 . S
C613 H621 0.960 . S
C614 C612 1.381 . S
C614 C615 1.394 . S
C614 H622 0.930 . S
C615 C614 1.394 . S
C615 C616 1.383 . S
C615 H623 0.929 . S
C616 C615 1.383 . S
C616 C617 1.377 . S
C617 H601 0.930 . S
C617 C616 1.377 . S
C617 C618 1.379 . S
C618 H602 0.931 . S
C618 C612 1.383 . S
C618 C617 1.379 . S
H619 C613 0.959 . S
H620 C613 0.961 . S
H621 C613 0.960 . S
H622 C614 0.930 . S
H623 C615 0.929 . S
H624 C632 0.929 . S
H625 C634 0.930 . S
H626 C636 0.930 . S
H627 C639 0.929 . S
H628 C642 0.930 . S
H629 C644 0.960 . S
H630 C644 0.960 . S
H631 C644 0.960 . S
C632 H624 0.929 . S
C632 C633 1.377 . S
C632 C634 1.384 . S
C633 C632 1.377 . S
C633 C639 1.390 . S
C634 H625 0.930 . S
C634 C632 1.384 . S
C634 C635 1.372 . S
C635 C634 1.372 . S
C635 C636 1.400 . S
C635 C640 1.490 . S
C636 H626 0.930 . S
C636 C635 1.400 . S
C636 C639 1.386 . S
H637 C653 0.930 . S
H638 C654 0.931 . S
C639 H627 0.929 . S
C639 C633 1.390 . S
C639 C636 1.386 . S
C640 C635 1.490 . S
C640 C642 1.395 . S
C640 C643 1.403 . S
H641 C647 0.930 . S
C642 H628 0.930 . S
C642 C640 1.395 . S
C642 C645 1.403 . S
C643 C640 1.403 . S
C643 C644 1.524 . S
C643 C647 1.400 . S
C644 H629 0.960 . S
C644 H630 0.960 . S
C644 H631 0.960 . S
C644 C643 1.524 . S
C645 C642 1.403 . S
C645 C646 1.392 . S
C645 C649 1.495 . S
C646 C645 1.392 . S
C646 C647 1.385 . S
C646 C648 1.478 . S
C647 H641 0.930 . S
C647 C643 1.400 . S
C647 C646 1.385 . S
C648 C646 1.478 . S
C648 C650 1.381 . S
C648 C654 1.383 . S
C649 C645 1.495 . S
C649 H655 0.959 . S
C649 H656 0.961 . S
C649 H657 0.960 . S
C650 C648 1.381 . S
C650 C651 1.394 . S
C650 H658 0.930 . S
C651 C650 1.394 . S
C651 C652 1.383 . S
C651 H659 0.929 . S
C652 C651 1.383 . S
C652 C653 1.377 . S
C653 H637 0.930 . S
C653 C652 1.377 . S
C653 C654 1.379 . S
C654 H638 0.931 . S
C654 C648 1.383 . S
C654 C653 1.379 . S
H655 C649 0.959 . S
H656 C649 0.961 . S
H657 C649 0.960 . S
H658 C650 0.930 . S
H659 C651 0.929 . S
H660 C668 0.929 . S
H661 C670 0.930 . S
H662 C672 0.930 . S
H663 C675 0.929 . S
H664 C678 0.930 . S
H665 C680 0.960 . S
H666 C680 0.960 . S
H667 C680 0.960 . S
C668 H660 0.929 . S
C668 C669 1.377 . S
C668 C670 1.384 . S
C669 C668 1.377 . S
C669 C675 1.390 . S
C670 H661 0.930 . S
C670 C668 1.384 . S
C670 C671 1.372 . S
C671 C670 1.372 . S
C671 C672 1.400 . S
C671 C676 1.490 . S
C672 H662 0.930 . S
C672 C671 1.400 . S
C672 C675 1.386 . S
H673 C689 0.930 . S
H674 C690 0.931 . S
C675 H663 0.929 . S
C675 C669 1.390 . S
C675 C672 1.386 . S
C676 C671 1.490 . S
C676 C678 1.395 . S
C676 C679 1.403 . S
H677 C683 0.930 . S
C678 H664 0.930 . S
C678 C676 1.395 . S
C678 C681 1.403 . S
C679 C676 1.403 . S
C679 C680 1.524 . S
C679 C683 1.400 . S
C680 H665 0.960 . S
C680 H666 0.960 . S
C680 H667 0.960 . S
C680 C679 1.524 . S
C681 C678 1.403 . S
C681 C682 1.392 . S
C681 C685 1.495 . S
C682 C681 1.392 . S
C682 C683 1.385 . S
C682 C684 1.478 . S
C683 H677 0.930 . S
C683 C679 1.400 . S
C683 C682 1.385 . S
C684 C682 1.478 . S
C684 C686 1.381 . S
C684 C690 1.383 . S
C685 C681 1.495 . S
C685 H691 0.959 . S
C685 H692 0.961 . S
C685 H693 0.960 . S
C686 C684 1.381 . S
C686 C687 1.394 . S
C686 H694 0.930 . S
C687 C686 1.394 . S
C687 C688 1.383 . S
C687 H695 0.929 . S
C688 C687 1.383 . S
C688 C689 1.377 . S
C689 H673 0.930 . S
C689 C688 1.377 . S
C689 C690 1.379 . S
C690 H674 0.931 . S
C690 C684 1.383 . S
C690 C689 1.379 . S
H691 C685 0.959 . S
H692 C685 0.961 . S
H693 C685 0.960 . S
H694 C686 0.930 . S
H695 C687 0.929 . S
H696 C704 0.929 . S
H697 C706 0.930 . S
H698 C708 0.943 . S
H699 C711 0.929 . S
H700 C714 0.930 . S
H701 C716 0.960 . S
H702 C716 0.968 . S
H703 C716 0.960 . S
C704 H696 0.929 . S
C704 C705 1.377 . S
C704 C706 1.384 . S
C705 C704 1.377 . S
C705 C711 1.390 . S
C706 H697 0.930 . S
C706 C704 1.384 . S
C706 C707 1.372 . S
C707 C706 1.372 . S
C707 C708 1.400 . S
C707 C712 1.490 . S
C708 H698 0.943 . S
C708 C707 1.400 . S
C708 C711 1.386 . S
H709 C725 0.930 . S
H710 C726 0.931 . S
C711 H699 0.929 . S
C711 C705 1.390 . S
C711 C708 1.386 . S
C712 C707 1.490 . S
C712 C714 1.395 1_655 S
C712 C715 1.403 1_554 S
H713 C719 0.930 . S
C714 H700 0.930 . S
C714 C712 1.395 1_455 S
C714 C717 1.403 . S
C715 C712 1.403 1_556 S
C715 C716 1.524 . S
C715 C719 1.400 . S
C716 H701 0.960 . S
C716 H702 0.968 . S
C716 H703 0.960 . S
C716 C715 1.524 . S
C717 C714 1.403 . S
C717 C718 1.392 1_554 S
C717 C721 1.495 . S
C718 C717 1.392 1_556 S
C718 C719 1.385 1_455 S
C718 C720 1.478 . S
C719 H713 0.930 . S
C719 C715 1.400 . S
C719 C718 1.385 1_655 S
C720 C718 1.478 . S
C720 C722 1.381 . S
C720 C726 1.383 . S
C721 C717 1.495 . S
C721 H727 0.959 . S
C721 H728 0.961 . S
C721 H729 0.960 . S
C722 C720 1.381 . S
C722 C723 1.394 . S
C722 H730 0.880 1_556 S
C723 C722 1.394 . S
C723 C724 1.383 . S
C723 H731 0.929 . S
C724 C723 1.383 . S
C724 C725 1.377 . S
C725 H709 0.930 . S
C725 C724 1.377 . S
C725 C726 1.379 . S
C726 H710 0.931 . S
C726 C720 1.383 . S
C726 C725 1.379 . S
H727 C721 0.959 . S
H728 C721 0.961 . S
H729 C721 0.960 . S
H730 C722 0.880 1_554 S
H731 C723 0.929 . S
H732 C740 0.929 . S
H733 C742 0.930 . S
H734 C744 0.930 . S
H735 C747 0.929 . S
H736 C750 0.930 . S
H737 C752 0.960 . S
H738 C752 0.960 . S
H739 C752 0.960 . S
C740 H732 0.929 . S
C740 C741 1.377 . S
C740 C742 1.384 . S
C741 C740 1.377 . S
C741 C747 1.390 . S
C742 H733 0.930 . S
C742 C740 1.384 . S
C742 C743 1.372 . S
C743 C742 1.372 . S
C743 C744 1.400 . S
C743 C748 1.490 . S
C744 H734 0.930 . S
C744 C743 1.400 . S
C744 C747 1.386 . S
H745 C761 0.930 . S
H746 C762 0.931 . S
C747 H735 0.929 . S
C747 C741 1.390 . S
C747 C744 1.386 . S
C748 C743 1.490 . S
C748 C750 1.395 1_556 S
C748 C751 1.403 . S
H749 C755 0.930 . S
C750 H736 0.930 . S
C750 C748 1.395 1_554 S
C750 C753 1.403 . S
C751 C748 1.403 . S
C751 C752 1.524 . S
C751 C755 1.400 . S
C752 H737 0.960 . S
C752 H738 0.960 . S
C752 H739 0.960 . S
C752 C751 1.524 . S
C753 C750 1.403 . S
C753 C754 1.392 . S
C753 C757 1.495 . S
C754 C753 1.392 . S
C754 C755 1.385 1_554 S
C754 C756 1.478 . S
C755 H749 0.930 . S
C755 C751 1.400 . S
C755 C754 1.385 1_556 S
C756 C754 1.478 . S
C756 C758 1.381 . S
C756 C762 1.383 . S
C757 C753 1.495 . S
C757 H763 0.959 . S
C757 H764 0.961 . S
C757 H765 0.960 . S
C758 C756 1.381 . S
C758 C759 1.394 . S
C758 H766 0.930 . S
C759 C758 1.394 . S
C759 C760 1.383 . S
C759 H767 0.929 . S
C760 C759 1.383 . S
C760 C761 1.377 . S
C761 H745 0.930 . S
C761 C760 1.377 . S
C761 C762 1.379 . S
C762 H746 0.931 . S
C762 C756 1.383 . S
C762 C761 1.379 . S
H763 C757 0.959 . S
H764 C757 0.961 . S
H765 C757 0.960 . S
H766 C758 0.930 . S
H767 C759 0.929 . S
H768 C776 0.929 . S
H769 C778 0.930 . S
H770 C780 0.930 . S
H771 C783 0.929 . S
H772 C786 0.930 . S
H773 C788 0.960 1_556 S
H774 C788 0.947 1_556 S
H775 C788 0.960 . S
C776 H768 0.929 . S
C776 C777 1.377 . S
C776 C778 1.384 . S
C777 C776 1.377 . S
C777 C783 1.390 1_545 S
C778 H769 0.930 . S
C778 C776 1.384 . S
C778 C779 1.372 . S
C779 C778 1.372 . S
C779 C780 1.400 1_545 S
C779 C784 1.490 . S
C780 H770 0.930 . S
C780 C779 1.400 1_565 S
C780 C783 1.386 . S
H781 C797 0.930 . S
H782 C798 0.931 . S
C783 H771 0.929 . S
C783 C777 1.390 1_565 S
C783 C780 1.386 . S
C784 C779 1.490 . S
C784 C786 1.395 . S
C784 C787 1.403 1_545 S
H785 C791 0.930 . S
C786 H772 0.930 . S
C786 C784 1.395 . S
C786 C789 1.403 1_554 S
C787 C784 1.403 1_565 S
C787 C788 1.524 . S
C787 C791 1.400 1_554 S
C788 H773 0.960 1_554 S
C788 H774 0.947 1_554 S
C788 H775 0.960 . S
C788 C787 1.524 . S
C789 C786 1.403 1_556 S
C789 C790 1.430 . S
C789 C793 1.495 . S
C790 C789 1.430 . S
C790 C791 1.366 1_545 S
C790 C792 1.458 1_545 S
C791 H785 0.930 . S
C791 C787 1.400 1_556 S
C791 C790 1.366 1_565 S
C792 C790 1.458 1_565 S
C792 C794 1.381 1_565 S
C792 C798 1.383 . S
C793 C789 1.495 . S
C793 H799 0.960 . S
C793 H800 0.961 . S
C793 H801 0.960 . S
C794 C792 1.381 1_545 S
C794 C795 1.394 . S
C794 H802 0.930 . S
C795 C794 1.394 . S
C795 C796 1.383 1_545 S
C795 H803 0.929 . S
C796 C795 1.383 1_565 S
C796 C797 1.377 . S
C797 H781 0.930 . S
C797 C796 1.377 . S
C797 C798 1.379 . S
C798 H782 0.931 . S
C798 C792 1.383 . S
C798 C797 1.379 . S
H799 C793 0.960 . S
H800 C793 0.961 . S
H801 C793 0.960 . S
H802 C794 0.930 . S
H803 C795 0.929 . S
H804 C812 0.929 . S
H805 C814 0.930 . S
H806 C816 0.930 . S
H807 C819 0.929 . S
H808 C822 0.932 . S
H809 C824 0.966 1_545 S
H810 C824 0.932 1_545 S
H811 C824 0.978 . S
C812 H804 0.929 . S
C812 C813 1.377 1_545 S
C812 C814 1.384 . S
C813 C812 1.377 1_565 S
C813 C819 1.390 . S
C814 H805 0.930 . S
C814 C812 1.384 . S
C814 C815 1.372 1_545 S
C815 C814 1.372 1_565 S
C815 C816 1.400 . S
C815 C820 1.490 . S
C816 H806 0.930 . S
C816 C815 1.400 . S
C816 C819 1.386 . S
H817 C833 0.930 . S
H818 C834 0.931 . S
C819 H807 0.929 . S
C819 C813 1.390 . S
C819 C816 1.386 . S
C820 C815 1.490 . S
C820 C822 1.386 . S
C820 C823 1.403 . S
H821 C827 0.930 . S
C822 H808 0.932 . S
C822 C820 1.386 . S
C822 C825 1.411 1_565 S
C823 C820 1.403 . S
C823 C824 1.532 . S
C823 C827 1.401 1_565 S
C824 H809 0.966 1_565 S
C824 H810 0.932 1_565 S
C824 H811 0.978 . S
C824 C823 1.532 . S
C825 C822 1.411 1_545 S
C825 C826 1.392 . S
C825 C829 1.495 . S
C826 C825 1.392 . S
C826 C827 1.385 . S
C826 C828 1.478 . S
C827 H821 0.930 . S
C827 C823 1.401 1_545 S
C827 C826 1.385 . S
C828 C826 1.478 . S
C828 C830 1.381 . S
C828 C834 1.383 1_545 S
C829 C825 1.495 . S
C829 H835 0.959 . S
C829 H836 0.961 1_545 S
C829 H837 0.960 . S
C830 C828 1.381 . S
C830 C831 1.394 . S
C830 H838 0.930 . S
C831 C830 1.394 . S
C831 C832 1.383 . S
C831 H839 0.929 . S
C832 C831 1.383 . S
C832 C833 1.377 1_545 S
C833 H817 0.930 . S
C833 C832 1.377 1_565 S
C833 C834 1.379 . S
C834 H818 0.931 . S
C834 C828 1.383 1_565 S
C834 C833 1.379 . S
H835 C829 0.959 . S
H836 C829 0.961 1_565 S
H837 C829 0.960 . S
H838 C830 0.930 . S
H839 C831 0.929 . S
H840 C848 0.929 . S
H841 C850 0.930 . S
H842 C852 0.930 . S
H843 C855 0.929 . S
H844 C858 0.930 . S
H845 C860 0.960 . S
H846 C860 0.960 . S
H847 C860 0.960 . S
C848 H840 0.929 . S
C848 C849 1.377 1_655 S
C848 C850 1.384 . S
C849 C848 1.377 1_455 S
C849 C855 1.390 . S
C850 H841 0.930 . S
C850 C848 1.384 . S
C850 C851 1.372 1_655 S
C851 C850 1.372 1_455 S
C851 C852 1.400 . S
C851 C856 1.490 . S
C852 H842 0.930 . S
C852 C851 1.400 . S
C852 C855 1.386 . S
H853 C869 0.930 . S
H854 C870 0.931 . S
C855 H843 0.929 . S
C855 C849 1.390 . S
C855 C852 1.386 . S
C856 C851 1.490 . S
C856 C858 1.395 1_455 S
C856 C859 1.403 . S
H857 C863 0.930 . S
C858 H844 0.930 . S
C858 C856 1.395 1_655 S
C858 C861 1.403 . S
C859 C856 1.403 . S
C859 C860 1.524 . S
C859 C863 1.400 . S
C860 H845 0.960 . S
C860 H846 0.960 . S
C860 H847 0.960 . S
C860 C859 1.524 . S
C861 C858 1.403 . S
C861 C862 1.392 . S
C861 C865 1.495 . S
C862 C861 1.392 . S
C862 C863 1.385 1_655 S
C862 C864 1.478 . S
C863 H857 0.930 . S
C863 C859 1.400 . S
C863 C862 1.385 1_455 S
C864 C862 1.478 . S
C864 C866 1.381 . S
C864 C870 1.383 1_655 S
C865 C861 1.495 . S
C865 H871 0.959 . S
C865 H872 0.961 . S
C865 H873 0.960 . S
C866 C864 1.381 . S
C866 C867 1.394 . S
C866 H874 0.930 . S
C867 C866 1.394 . S
C867 C868 1.383 . S
C867 H875 0.929 . S
C868 C867 1.383 . S
C868 C869 1.377 1_655 S
C869 H853 0.930 . S
C869 C868 1.377 1_455 S
C869 C870 1.379 . S
C870 H854 0.931 . S
C870 C864 1.383 1_455 S
C870 C869 1.379 . S
H871 C865 0.959 . S
H872 C865 0.961 . S
H873 C865 0.960 . S
H874 C866 0.930 . S
H875 C867 0.929 . S
H876 C884 0.929 . S
H877 C886 0.930 . S
H878 C888 0.930 . S
H879 C891 0.929 . S
H880 C894 0.930 . S
H881 C896 0.960 . S
H882 C896 0.960 . S
H883 C896 0.960 . S
C884 H876 0.929 . S
C884 C885 1.377 . S
C884 C886 1.384 . S
C885 C884 1.377 . S
C885 C891 1.390 . S
C886 H877 0.930 . S
C886 C884 1.384 . S
C886 C887 1.372 . S
C887 C886 1.372 . S
C887 C888 1.400 . S
C887 C892 1.490 . S
C888 H878 0.930 . S
C888 C887 1.400 . S
C888 C891 1.386 . S
H889 C905 0.930 . S
H890 C906 0.931 . S
C891 H879 0.929 . S
C891 C885 1.390 . S
C891 C888 1.386 . S
C892 C887 1.490 . S
C892 C894 1.395 . S
C892 C895 1.403 . S
H893 C899 0.930 . S
C894 H880 0.930 . S
C894 C892 1.395 . S
C894 C897 1.403 . S
C895 C892 1.403 . S
C895 C896 1.524 . S
C895 C899 1.400 . S
C896 H881 0.960 . S
C896 H882 0.960 . S
C896 H883 0.960 . S
C896 C895 1.524 . S
C897 C894 1.403 . S
C897 C898 1.392 . S
C897 C901 1.495 . S
C898 C897 1.392 . S
C898 C899 1.385 . S
C898 C900 1.478 . S
C899 H893 0.930 . S
C899 C895 1.400 . S
C899 C898 1.385 . S
C900 C898 1.478 . S
C900 C902 1.381 . S
C900 C906 1.383 . S
C901 C897 1.495 . S
C901 H907 0.959 . S
C901 H908 0.961 . S
C901 H909 0.960 . S
C902 C900 1.381 . S
C902 C903 1.394 . S
C902 H910 0.930 . S
C903 C902 1.394 . S
C903 C904 1.383 . S
C903 H911 0.929 . S
C904 C903 1.383 . S
C904 C905 1.377 . S
C905 H889 0.930 . S
C905 C904 1.377 . S
C905 C906 1.379 . S
C906 H890 0.931 . S
C906 C900 1.383 . S
C906 C905 1.379 . S
H907 C901 0.959 . S
H908 C901 0.961 . S
H909 C901 0.960 . S
H910 C902 0.930 . S
H911 C903 0.929 . S
H912 C920 0.929 . S
H913 C922 0.930 . S
H914 C924 0.930 . S
H915 C927 0.929 . S
H916 C930 0.930 . S
H917 C932 0.960 . S
H918 C932 0.960 . S
H919 C932 0.960 . S
C920 H912 0.929 . S
C920 C921 1.377 . S
C920 C922 1.384 . S
C921 C920 1.377 . S
C921 C927 1.390 . S
C922 H913 0.930 . S
C922 C920 1.384 . S
C922 C923 1.372 . S
C923 C922 1.372 . S
C923 C924 1.400 . S
C923 C928 1.490 . S
C924 H914 0.930 . S
C924 C923 1.400 . S
C924 C927 1.386 . S
H925 C941 0.930 . S
H926 C942 0.931 . S
C927 H915 0.929 . S
C927 C921 1.390 . S
C927 C924 1.386 . S
C928 C923 1.490 . S
C928 C930 1.395 . S
C928 C931 1.403 . S
H929 C935 0.930 . S
C930 H916 0.930 . S
C930 C928 1.395 . S
C930 C933 1.403 . S
C931 C928 1.403 . S
C931 C932 1.524 . S
C931 C935 1.400 . S
C932 H917 0.960 . S
C932 H918 0.960 . S
C932 H919 0.960 . S
C932 C931 1.524 . S
C933 C930 1.403 . S
C933 C934 1.392 . S
C933 C937 1.495 . S
C934 C933 1.392 . S
C934 C935 1.385 . S
C934 C936 1.478 . S
C935 H929 0.930 . S
C935 C931 1.400 . S
C935 C934 1.385 . S
C936 C934 1.478 . S
C936 C938 1.381 . S
C936 C942 1.383 . S
C937 C933 1.495 . S
C937 H943 0.959 . S
C937 H944 0.961 . S
C937 H945 0.960 . S
C938 C936 1.381 . S
C938 C939 1.394 . S
C938 H946 0.930 . S
C939 C938 1.394 . S
C939 C940 1.383 . S
C939 H947 0.929 . S
C940 C939 1.383 . S
C940 C941 1.377 . S
C941 H925 0.930 . S
C941 C940 1.377 . S
C941 C942 1.379 . S
C942 H926 0.931 . S
C942 C936 1.383 . S
C942 C941 1.379 . S
H943 C937 0.959 . S
H944 C937 0.961 . S
H945 C937 0.960 . S
H946 C938 0.930 . S
H947 C939 0.929 . S
H948 C956 0.929 . S
H949 C958 0.930 . S
H950 C960 0.930 . S
H951 C963 0.929 . S
H952 C966 0.930 . S
H953 C968 0.960 . S
H954 C968 0.960 . S
H955 C968 0.960 . S
C956 H948 0.929 . S
C956 C957 1.377 . S
C956 C958 1.384 . S
C957 C956 1.377 . S
C957 C963 1.390 . S
C958 H949 0.930 . S
C958 C956 1.384 . S
C958 C959 1.372 . S
C959 C958 1.372 . S
C959 C960 1.400 . S
C959 C964 1.490 . S
C960 H950 0.930 . S
C960 C959 1.400 . S
C960 C963 1.386 . S
H961 C977 0.930 . S
H962 C978 0.931 . S
C963 H951 0.929 . S
C963 C957 1.390 . S
C963 C960 1.386 . S
C964 C959 1.490 . S
C964 C966 1.395 . S
C964 C967 1.403 . S
H965 C971 0.930 . S
C966 H952 0.930 . S
C966 C964 1.395 . S
C966 C969 1.403 . S
C967 C964 1.403 . S
C967 C968 1.524 . S
C967 C971 1.400 . S
C968 H953 0.960 . S
C968 H954 0.960 . S
C968 H955 0.960 . S
C968 C967 1.524 . S
C969 C966 1.403 . S
C969 C970 1.392 . S
C969 C973 1.495 . S
C970 C969 1.392 . S
C970 C971 1.385 . S
C970 C972 1.478 . S
C971 H965 0.930 . S
C971 C967 1.400 . S
C971 C970 1.385 . S
C972 C970 1.478 . S
C972 C974 1.381 . S
C972 C978 1.383 . S
C973 C969 1.495 . S
C973 H979 0.959 . S
C973 H980 0.961 . S
C973 H981 0.960 . S
C974 C972 1.381 . S
C974 C975 1.394 . S
C974 H982 0.930 . S
C975 C974 1.394 . S
C975 C976 1.383 . S
C975 H983 0.929 . S
C976 C975 1.383 . S
C976 C977 1.377 . S
C977 H961 0.930 . S
C977 C976 1.377 . S
C977 C978 1.379 . S
C978 H962 0.931 . S
C978 C972 1.383 . S
C978 C977 1.379 . S
H979 C973 0.959 . S
H980 C973 0.961 . S
H981 C973 0.960 . S
H982 C974 0.930 . S
H983 C975 0.929 . S
H984 C992 0.929 . S
H985 C994 0.930 . S
H986 C996 0.930 . S
H987 C999 0.929 . S
H988 C1002 0.930 . S
H989 C1004 0.960 . S
H990 C1004 0.960 . S
H991 C1004 0.960 . S
C992 H984 0.929 . S
C992 C993 1.377 . S
C992 C994 1.384 . S
C993 C992 1.377 . S
C993 C999 1.390 . S
C994 H985 0.930 . S
C994 C992 1.384 . S
C994 C995 1.372 . S
C995 C994 1.372 . S
C995 C996 1.400 . S
C995 C1000 1.490 . S
C996 H986 0.930 . S
C996 C995 1.400 . S
C996 C999 1.386 . S
H997 C1013 0.930 . S
H998 C1014 0.931 . S
C999 H987 0.929 . S
C999 C993 1.390 . S
C999 C996 1.386 . S
C1000 C995 1.490 . S
C1000 C1002 1.395 . S
C1000 C1003 1.403 . S
H1001 C1007 0.930 . S
C1002 H988 0.930 . S
C1002 C1000 1.395 . S
C1002 C1005 1.403 . S
C1003 C1000 1.403 . S
C1003 C1004 1.524 . S
C1003 C1007 1.400 . S
C1004 H989 0.960 . S
C1004 H990 0.960 . S
C1004 H991 0.960 . S
C1004 C1003 1.524 . S
C1005 C1002 1.403 . S
C1005 C1006 1.392 . S
C1005 C1009 1.495 . S
C1006 C1005 1.392 . S
C1006 C1007 1.385 . S
C1006 C1008 1.478 . S
C1007 H1001 0.930 . S
C1007 C1003 1.400 . S
C1007 C1006 1.385 . S
C1008 C1006 1.478 . S
C1008 C1010 1.381 . S
C1008 C1014 1.383 . S
C1009 C1005 1.495 . S
C1009 H1015 0.959 . S
C1009 H1016 0.961 . S
C1009 H1017 0.960 . S
C1010 C1008 1.381 . S
C1010 C1011 1.394 . S
C1010 H1018 0.930 . S
C1011 C1010 1.394 . S
C1011 C1012 1.383 . S
C1011 H1019 0.929 . S
C1012 C1011 1.383 . S
C1012 C1013 1.377 . S
C1013 H997 0.930 . S
C1013 C1012 1.377 . S
C1013 C1014 1.379 . S
C1014 H998 0.931 . S
C1014 C1008 1.383 . S
C1014 C1013 1.379 . S
H1015 C1009 0.959 . S
H1016 C1009 0.961 . S
H1017 C1009 0.960 . S
H1018 C1010 0.930 . S
H1019 C1011 0.929 . S
H1020 C1028 0.929 . S
H1021 C1030 0.930 . S
H1022 C1032 0.930 . S
H1023 C1035 0.929 . S
H1024 C1038 0.930 . S
H1025 C1040 0.960 . S
H1026 C1040 0.960 . S
H1027 C1040 0.960 . S
C1028 H1020 0.929 . S
C1028 C1029 1.377 . S
C1028 C1030 1.384 . S
C1029 C1028 1.377 . S
C1029 C1035 1.390 . S
C1030 H1021 0.930 . S
C1030 C1028 1.384 . S
C1030 C1031 1.372 . S
C1031 C1030 1.372 . S
C1031 C1032 1.400 . S
C1031 C1036 1.490 . S
C1032 H1022 0.930 . S
C1032 C1031 1.400 . S
C1032 C1035 1.386 . S
H1033 C1049 0.930 . S
H1034 C1050 0.931 . S
C1035 H1023 0.929 . S
C1035 C1029 1.390 . S
C1035 C1032 1.386 . S
C1036 C1031 1.490 . S
C1036 C1038 1.395 . S
C1036 C1039 1.403 . S
H1037 C1043 0.930 . S
C1038 H1024 0.930 . S
C1038 C1036 1.395 . S
C1038 C1041 1.403 . S
C1039 C1036 1.403 . S
C1039 C1040 1.524 . S
C1039 C1043 1.400 . S
C1040 H1025 0.960 . S
C1040 H1026 0.960 . S
C1040 H1027 0.960 . S
C1040 C1039 1.524 . S
C1041 C1038 1.403 . S
C1041 C1042 1.392 . S
C1041 C1045 1.495 . S
C1042 C1041 1.392 . S
C1042 C1043 1.385 . S
C1042 C1044 1.478 . S
C1043 H1037 0.930 . S
C1043 C1039 1.400 . S
C1043 C1042 1.385 . S
C1044 C1042 1.478 . S
C1044 C1046 1.381 . S
C1044 C1050 1.383 . S
C1045 C1041 1.495 . S
C1045 H1051 0.959 1_455 S
C1045 H1052 0.961 . S
C1045 H1053 0.960 . S
C1046 C1044 1.381 . S
C1046 C1047 1.394 . S
C1046 H1054 0.930 . S
C1047 C1046 1.394 . S
C1047 C1048 1.383 . S
C1047 H1055 0.929 . S
C1048 C1047 1.383 . S
C1048 C1049 1.377 . S
C1049 H1033 0.930 . S
C1049 C1048 1.377 . S
C1049 C1050 1.379 . S
C1050 H1034 0.931 . S
C1050 C1044 1.383 . S
C1050 C1049 1.379 . S
H1051 C1045 0.959 1_655 S
H1052 C1045 0.961 . S
H1053 C1045 0.960 . S
H1054 C1046 0.930 . S
H1055 C1047 0.929 . S
H1056 C1064 0.929 . S
H1057 C1066 0.930 . S
H1058 C1068 0.930 . S
H1059 C1071 0.929 . S
H1060 C1074 0.930 . S
H1061 C1076 0.960 . S
H1062 C1076 0.960 . S
H1063 C1076 0.960 . S
C1064 H1056 0.929 . S
C1064 C1065 1.377 . S
C1064 C1066 1.384 . S
C1065 C1064 1.377 . S
C1065 C1071 1.390 . S
C1066 H1057 0.930 . S
C1066 C1064 1.384 . S
C1066 C1067 1.372 . S
C1067 C1066 1.372 . S
C1067 C1068 1.400 . S
C1067 C1072 1.490 . S
C1068 H1058 0.930 . S
C1068 C1067 1.400 . S
C1068 C1071 1.386 . S
H1069 C1085 0.930 . S
H1070 C1086 0.931 . S
C1071 H1059 0.929 . S
C1071 C1065 1.390 . S
C1071 C1068 1.386 . S
C1072 C1067 1.490 . S
C1072 C1074 1.395 . S
C1072 C1075 1.403 . S
H1073 C1079 0.930 . S
C1074 H1060 0.930 . S
C1074 C1072 1.395 . S
C1074 C1077 1.403 . S
C1075 C1072 1.403 . S
C1075 C1076 1.524 . S
C1075 C1079 1.400 . S
C1076 H1061 0.960 . S
C1076 H1062 0.960 . S
C1076 H1063 0.960 . S
C1076 C1075 1.524 . S
C1077 C1074 1.403 . S
C1077 C1078 1.392 . S
C1077 C1081 1.495 . S
C1078 C1077 1.392 . S
C1078 C1079 1.385 . S
C1078 C1080 1.478 . S
C1079 H1073 0.930 . S
C1079 C1075 1.400 . S
C1079 C1078 1.385 . S
C1080 C1078 1.478 . S
C1080 C1082 1.381 . S
C1080 C1086 1.383 . S
C1081 C1077 1.495 . S
C1081 H1087 0.959 . S
C1081 H1088 0.961 . S
C1081 H1089 0.960 . S
C1082 C1080 1.381 . S
C1082 C1083 1.394 . S
C1082 H1090 0.930 . S
C1083 C1082 1.394 . S
C1083 C1084 1.383 . S
C1083 H1091 0.929 . S
C1084 C1083 1.383 . S
C1084 C1085 1.377 . S
C1085 H1069 0.930 . S
C1085 C1084 1.377 . S
C1085 C1086 1.379 . S
C1086 H1070 0.931 . S
C1086 C1080 1.383 . S
C1086 C1085 1.379 . S
H1087 C1081 0.959 . S
H1088 C1081 0.961 . S
H1089 C1081 0.960 . S
H1090 C1082 0.930 . S
H1091 C1083 0.929 . S
H1092 C1100 0.929 . S
H1093 C1102 0.930 . S
H1094 C1104 0.930 . S
H1095 C1107 0.929 . S
H1096 C1110 0.930 . S
H1097 C1112 0.960 . S
H1098 C1112 0.960 . S
H1099 C1112 0.960 . S
C1100 H1092 0.929 . S
C1100 C1101 1.377 . S
C1100 C1102 1.384 . S
C1101 C1100 1.377 . S
C1101 C1107 1.390 . S
C1102 H1093 0.930 . S
C1102 C1100 1.384 . S
C1102 C1103 1.372 . S
C1103 C1102 1.372 . S
C1103 C1104 1.400 . S
C1103 C1108 1.490 . S
C1104 H1094 0.930 . S
C1104 C1103 1.400 . S
C1104 C1107 1.386 . S
H1105 C1121 0.930 . S
H1106 C1122 0.931 . S
C1107 H1095 0.929 . S
C1107 C1101 1.390 . S
C1107 C1104 1.386 . S
C1108 C1103 1.490 . S
C1108 C1110 1.395 . S
C1108 C1111 1.403 . S
H1109 C1115 0.930 . S
C1110 H1096 0.930 . S
C1110 C1108 1.395 . S
C1110 C1113 1.403 . S
C1111 C1108 1.403 . S
C1111 C1112 1.524 . S
C1111 C1115 1.400 . S
C1112 H1097 0.960 . S
C1112 H1098 0.960 . S
C1112 H1099 0.960 . S
C1112 C1111 1.524 . S
C1113 C1110 1.403 . S
C1113 C1114 1.392 . S
C1113 C1117 1.495 . S
C1114 C1113 1.392 . S
C1114 C1115 1.385 . S
C1114 C1116 1.478 . S
C1115 H1109 0.930 . S
C1115 C1111 1.400 . S
C1115 C1114 1.385 . S
C1116 C1114 1.478 . S
C1116 C1118 1.381 . S
C1116 C1122 1.383 . S
C1117 C1113 1.495 . S
C1117 H1123 0.959 . S
C1117 H1124 0.961 . S
C1117 H1125 0.960 . S
C1118 C1116 1.381 . S
C1118 C1119 1.394 . S
C1118 H1126 0.930 . S
C1119 C1118 1.394 . S
C1119 C1120 1.383 . S
C1119 H1127 0.929 . S
C1120 C1119 1.383 . S
C1120 C1121 1.377 . S
C1121 H1105 0.930 . S
C1121 C1120 1.377 . S
C1121 C1122 1.379 . S
C1122 H1106 0.931 . S
C1122 C1116 1.383 . S
C1122 C1121 1.379 . S
H1123 C1117 0.959 . S
H1124 C1117 0.961 . S
H1125 C1117 0.960 . S
H1126 C1118 0.930 . S
H1127 C1119 0.929 . S
C489 C202 2.840 . S
C508 C2 2.848 . S
C525 C42 2.842 . S
C544 C122 2.829 . S
C561 C162 2.530 . S
C580 C82 2.505 . S
C597 C442 2.936 . S
C616 C242 2.918 . S
C633 C282 2.936 . S
C652 C362 2.918 . S
C669 C402 2.597 . S
C688 C322 2.584 . S
C705 C15 3.265 . S
C724 C255 3.294 . S
C741 C295 3.361 . S
C760 C55 3.327 . S
C777 C95 2.950 . S
C796 C335 2.952 . S
C813 C375 3.283 . S
C832 C135 3.279 . S
C849 C415 2.964 . S
C868 C175 2.957 . S
C885 C215 3.344 . S
C904 C455 3.368 . S
C921 C181 0.697 . S
C940 C21 0.870 . S
C957 C221 0.619 . S
C976 C61 0.726 . S
C993 C101 0.692 . S
C1012 C141 0.891 . S
C1029 C261 0.456 . S
C1048 C421 0.372 . S
C1065 C461 0.295 . S
C1084 C301 0.269 . S
C1101 C341 0.374 . S
C1120 C381 0.416 . S
