# Generated by pormake.
# Topology snw, (6)-cn, num edge types: 1
# Building blocks:
#     Node 0, Type 0, BuildingBlock: MIDCAF_clean_sbu_0, # of connection points: 6
#     Node 1, Type 0, BuildingBlock: MIDCAF_clean_sbu_0, # of connection points: 6
#     Node 2, Type 0, BuildingBlock: MIDCAF_clean_sbu_0, # of connection points: 6
#     Node 3, Type 0, BuildingBlock: MIDCAF_clean_sbu_0, # of connection points: 6
#     Node 4, Type 0, BuildingBlock: MIDCAF_clean_sbu_0, # of connection points: 6
#     Node 5, Type 0, BuildingBlock: MIDCAF_clean_sbu_0, # of connection points: 6
#     Node 6, Type 0, BuildingBlock: MIDCAF_clean_sbu_0, # of connection points: 6
#     Node 7, Type 0, BuildingBlock: MIDCAF_clean_sbu_0, # of connection points: 6
#     Edge 8, Type (0, 0), BuildingBlock: XUDNAN_clean_linker_2, # of connection points: 2
#     Edge 9, Type (0, 0), BuildingBlock: XUDNAN_clean_linker_2, # of connection points: 2
#     Edge 10, Type (0, 0), BuildingBlock: XUDNAN_clean_linker_2, # of connection points: 2
#     Edge 11, Type (0, 0), BuildingBlock: XUDNAN_clean_linker_2, # of connection points: 2
#     Edge 12, Type (0, 0), BuildingBlock: XUDNAN_clean_linker_2, # of connection points: 2
#     Edge 13, Type (0, 0), BuildingBlock: XUDNAN_clean_linker_2, # of connection points: 2
#     Edge 14, Type (0, 0), BuildingBlock: XUDNAN_clean_linker_2, # of connection points: 2
#     Edge 15, Type (0, 0), BuildingBlock: XUDNAN_clean_linker_2, # of connection points: 2
#     Edge 16, Type (0, 0), BuildingBlock: XUDNAN_clean_linker_2, # of connection points: 2
#     Edge 17, Type (0, 0), BuildingBlock: XUDNAN_clean_linker_2, # of connection points: 2
#     Edge 18, Type (0, 0), BuildingBlock: XUDNAN_clean_linker_2, # of connection points: 2
#     Edge 19, Type (0, 0), BuildingBlock: XUDNAN_clean_linker_2, # of connection points: 2
#     Edge 20, Type (0, 0), BuildingBlock: XUDNAN_clean_linker_2, # of connection points: 2
#     Edge 21, Type (0, 0), BuildingBlock: XUDNAN_clean_linker_2, # of connection points: 2
#     Edge 22, Type (0, 0), BuildingBlock: XUDNAN_clean_linker_2, # of connection points: 2
#     Edge 23, Type (0, 0), BuildingBlock: XUDNAN_clean_linker_2, # of connection points: 2
#     Edge 24, Type (0, 0), BuildingBlock: XUDNAN_clean_linker_2, # of connection points: 2
#     Edge 25, Type (0, 0), BuildingBlock: XUDNAN_clean_linker_2, # of connection points: 2
#     Edge 26, Type (0, 0), BuildingBlock: XUDNAN_clean_linker_2, # of connection points: 2
#     Edge 27, Type (0, 0), BuildingBlock: XUDNAN_clean_linker_2, # of connection points: 2
#     Edge 28, Type (0, 0), BuildingBlock: XUDNAN_clean_linker_2, # of connection points: 2
#     Edge 29, Type (0, 0), BuildingBlock: XUDNAN_clean_linker_2, # of connection points: 2
#     Edge 30, Type (0, 0), BuildingBlock: XUDNAN_clean_linker_2, # of connection points: 2
#     Edge 31, Type (0, 0), BuildingBlock: XUDNAN_clean_linker_2, # of connection points: 2
# Relax obj value: 0.252
# Max RMSD: 0.249
# Mean RMSD: 0.249
data_MOF--net-snw--node1-MIDCAF_clean_sbu_0--edge1-XUDNAN_clean_linker_2
_symmetry_space_group_name_H-M    P1
_symmetry_Int_Tables_number       1
_symmetry_cell_setting            triclinic
loop_
_symmetry_equiv_pos_as_xyz
'x, y, z'
_cell_length_a     18.945418
_cell_length_b     18.957905
_cell_length_c     77.459955
_cell_angle_alpha  90.066989
_cell_angle_beta   90.147913
_cell_angle_gamma 89.96997
loop_
_atom_site_label
_atom_site_type_symbol
_atom_site_fract_x
_atom_site_fract_y
_atom_site_fract_z
_atom_type_partial_charge
Zn0 Zn 0.02587 0.4567 0.05809 0.0
Zn1 Zn 0.01277 0.13743 0.08312 0.0
Zn2 Zn 0.0093 0.24669 0.06731 0.0
C3 C 0.87794 0.16807 0.08701 0.0
C4 C 0.12041 0.20717 0.09709 0.0
O5 O 0.02024 0.25609 0.03944 0.0
O6 O 0.00531 0.35639 0.05205 0.0
C7 C 0.89899 0.35827 0.07452 0.0
O8 O 0.90406 0.22309 0.07961 0.0
O9 O 0.91636 0.1154 0.09007 0.0
O10 O 0.08178 0.15633 0.10155 0.0
O11 O 0.10322 0.24472 0.08395 0.0
O12 O 0.94766 0.39581 0.06822 0.0
O13 O 0.90892 0.29163 0.07537 0.0
O14 O 0.09788 0.31858 0.07691 0.0
O15 O 0.1135 0.43595 0.07189 0.0
C16 C 0.13284 0.37733 0.07854 0.0
O17 O 0.02221 0.17734 0.04496 0.0
O18 O 0.04387 0.08673 0.06199 0.0
C19 C 0.02213 0.32323 0.03859 0.0
C20 C 0.03818 0.11192 0.04693 0.0
Zn21 Zn 0.13882 0.747 0.32648 0.0
Zn22 Zn 0.86369 0.73204 0.32568 0.0
Zn23 Zn 0.00247 0.74093 0.32283 0.0
C24 C 0.90533 0.8546 0.3423 0.0
C25 C 0.90948 0.61046 0.3396 0.0
O26 O 0.03874 0.73855 0.29594 0.0
O27 O 0.15346 0.73597 0.30163 0.0
C28 C 0.09718 0.86989 0.34025 0.0
O29 O 0.96536 0.8342 0.33644 0.0
O30 O 0.85066 0.81748 0.34027 0.0
O31 O 0.85122 0.63832 0.3357 0.0
O32 O 0.96795 0.64228 0.33618 0.0
O33 O 0.15485 0.84099 0.33632 0.0
O34 O 0.03819 0.83889 0.33678 0.0
O35 O 0.04137 0.64385 0.33509 0.0
O36 O 0.15489 0.66158 0.34051 0.0
C37 C 0.10101 0.62268 0.34114 0.0
O38 O 0.96365 0.74835 0.29598 0.0
O39 O 0.84853 0.74046 0.30073 0.0
C40 C 0.10325 0.73436 0.29092 0.0
C41 C 0.89952 0.74721 0.29043 0.0
Zn42 Zn 0.43732 0.63947 0.57317 0.0
Zn43 Zn 0.437 0.86898 0.58948 0.0
Zn44 Zn 0.45869 0.75606 0.57829 0.0
C45 C 0.53489 0.82448 0.61157 0.0
C46 C 0.30469 0.81161 0.58432 0.0
O47 O 0.49119 0.72661 0.55223 0.0
O48 O 0.39326 0.66701 0.55042 0.0
C49 C 0.57826 0.65143 0.58541 0.0
O50 O 0.53106 0.77434 0.60033 0.0
O51 O 0.48722 0.87099 0.61195 0.0
O52 O 0.33285 0.86964 0.58836 0.0
O53 O 0.34348 0.75862 0.58062 0.0
O54 O 0.5453 0.61506 0.57423 0.0
O55 O 0.54534 0.70373 0.59248 0.0
O56 O 0.47628 0.70494 0.60332 0.0
O57 O 0.38484 0.64079 0.59584 0.0
C58 C 0.42265 0.66762 0.60764 0.0
O59 O 0.50696 0.81289 0.55747 0.0
O60 O 0.49134 0.91474 0.57059 0.0
C61 C 0.44808 0.69011 0.54308 0.0
C62 C 0.51621 0.87969 0.55812 0.0
Zn63 Zn 0.61445 0.25336 0.82419 0.0
Zn64 Zn 0.36336 0.24048 0.81001 0.0
Zn65 Zn 0.4941 0.24379 0.81441 0.0
C66 C 0.37833 0.36513 0.82496 0.0
C67 C 0.38872 0.11552 0.82574 0.0
O68 O 0.56012 0.23224 0.79089 0.0
O69 O 0.65774 0.20243 0.80464 0.0
C70 C 0.57087 0.38309 0.82927 0.0
O71 O 0.44237 0.34378 0.82292 0.0
O72 O 0.32724 0.32476 0.82165 0.0
O73 O 0.33785 0.14536 0.81818 0.0
O74 O 0.44941 0.14629 0.82652 0.0
O75 O 0.62963 0.35641 0.82538 0.0
O76 O 0.514 0.34659 0.82738 0.0
O77 O 0.51854 0.15795 0.83269 0.0
O78 O 0.6107 0.20211 0.84647 0.0
C79 C 0.56402 0.15517 0.84508 0.0
O80 O 0.48617 0.23486 0.78598 0.0
O81 O 0.37081 0.25198 0.78506 0.0
C82 C 0.6242 0.20926 0.79066 0.0
C83 C 0.42879 0.24425 0.77736 0.0
Zn84 Zn 0.96982 0.60463 0.9015 0.0
Zn85 Zn 0.98487 0.87188 0.90246 0.0
Zn86 Zn 0.98113 0.73767 0.90889 0.0
C87 C 0.85181 0.84031 0.89498 0.0
C88 C 0.09939 0.8301 0.88632 0.0
O89 O 0.00117 0.69168 0.93473 0.0
O90 O 0.00072 0.58182 0.92503 0.0
C91 C 0.83918 0.65177 0.8959 0.0
O92 O 0.87688 0.78126 0.90054 0.0
O93 O 0.89115 0.89332 0.89329 0.0
O94 O 0.06694 0.8878 0.88763 0.0
O95 O 0.07411 0.77355 0.8932 0.0
O96 O 0.86916 0.59256 0.8965 0.0
O97 O 0.8739 0.70853 0.89934 0.0
O98 O 0.06283 0.7018 0.89071 0.0
O99 O 0.03803 0.59281 0.88245 0.0
C100 C 0.07572 0.64732 0.88131 0.0
O101 O -0.00066 0.77294 0.93535 0.0
O102 O 0.99818 0.88525 0.92765 0.0
C103 C 0.0083 0.6249 0.93735 0.0
C104 C 0.00313 0.83883 0.9393 0.0
Zn105 Zn 0.62107 0.78731 0.15857 0.0
Zn106 Zn 0.3666 0.76385 0.16067 0.0
Zn107 Zn 0.50212 0.76789 0.16207 0.0
C108 C 0.41622 0.64057 0.14498 0.0
C109 C 0.39185 0.88786 0.14617 0.0
O110 O 0.54724 0.77554 0.18845 0.0
O111 O 0.63492 0.84287 0.1799 0.0
C112 C 0.61447 0.65379 0.15004 0.0
O113 O 0.47631 0.66939 0.14823 0.0
O114 O 0.35954 0.67134 0.14906 0.0
O115 O 0.33744 0.85159 0.14904 0.0
O116 O 0.45352 0.8638 0.1501 0.0
O117 O 0.65854 0.69072 0.15824 0.0
O118 O 0.55042 0.67599 0.14848 0.0
O119 O 0.52602 0.86663 0.14777 0.0
O120 O 0.62956 0.83998 0.13664 0.0
C121 C 0.57732 0.88088 0.13747 0.0
O122 O 0.47199 0.75805 0.18944 0.0
O123 O 0.35616 0.76314 0.18572 0.0
C124 C 0.5997 0.81625 0.19203 0.0
C125 C 0.40899 0.7586 0.19557 0.0
Zn126 Zn 0.49798 0.11243 0.41563 0.0
Zn127 Zn 0.50389 0.37837 0.41839 0.0
Zn128 Zn 0.50537 0.24432 0.42117 0.0
C129 C 0.39046 0.33856 0.40017 0.0
C130 C 0.63364 0.34077 0.40685 0.0
O131 O 0.51332 0.20501 0.44776 0.0
O132 O 0.51314 0.09286 0.44005 0.0
C133 C 0.37151 0.15029 0.40507 0.0
O134 O 0.41052 0.28044 0.40723 0.0
O135 O 0.42669 0.39391 0.40178 0.0
O136 O 0.60268 0.39645 0.41149 0.0
O137 O 0.60294 0.2805 0.40828 0.0
O138 O 0.40365 0.09257 0.40668 0.0
O139 O 0.4023 0.20884 0.40912 0.0
O140 O 0.59959 0.20813 0.40678 0.0
O141 O 0.58028 0.09543 0.40098 0.0
C142 C 0.61899 0.14928 0.39997 0.0
O143 O 0.50734 0.2817 0.44839 0.0
O144 O 0.48075 0.39301 0.44274 0.0
C145 C 0.51772 0.13922 0.45169 0.0
C146 C 0.49147 0.34441 0.45353 0.0
Zn147 Zn 0.1158 0.21328 0.65069 0.0
Zn148 Zn 0.87366 0.28425 0.65464 0.0
Zn149 Zn 0.00145 0.25544 0.65486 0.0
C150 C 0.876 0.15473 0.64119 0.0
C151 C 0.93362 0.38657 0.63444 0.0
O152 O 0.04624 0.24587 0.68125 0.0
O153 O 0.15593 0.25284 0.67208 0.0
C154 C 0.05608 0.10017 0.64099 0.0
O155 O 0.94163 0.1709 0.64251 0.0
O156 O 0.82902 0.19607 0.64663 0.0
O157 O 0.87439 0.36103 0.63826 0.0
O158 O 0.9906 0.35843 0.64042 0.0
O159 O 0.11373 0.10902 0.64883 0.0
O160 O 0.01072 0.15108 0.64057 0.0
O161 O 0.06826 0.33798 0.6433 0.0
O162 O 0.13906 0.26616 0.62949 0.0
C163 C 0.12343 0.32826 0.63392 0.0
O164 O 0.96994 0.25763 0.68247 0.0
O165 O 0.86507 0.30662 0.67931 0.0
C166 C 0.11265 0.2529 0.68439 0.0
C167 C 0.91272 0.28258 0.68908 0.0
H168 H 0.98 0.31153 0.00482 0.0
H169 H 0.11915 0.42852 0.03873 0.0
H170 H 0.13283 0.52099 0.01665 0.0
H171 H 0.07813 0.36313 0.9638 0.0
H172 H 0.99678 0.36534 0.95171 0.0
H173 H 0.00705 0.30433 0.96938 0.0
H174 H 0.89353 0.35507 0.98332 0.0
H175 H 0.88399 0.41736 0.966 0.0
H176 H 0.88842 0.44816 0.988 0.0
H177 H 0.11872 0.60899 -0.00827 0.0
H178 H 0.09005 0.67458 0.96477 0.0
H179 H 0.95966 0.49931 0.94804 0.0
C180 C 0.01566 0.35506 0.00726 0.0
C181 C 0.04754 0.3636 0.02354 0.0
C182 C 0.09292 0.42193 0.02644 0.0
C183 C 0.10131 0.47466 0.01393 0.0
C184 C 0.06535 0.46739 -0.00164 0.0
C185 C 0.02524 0.40789 -0.00522 0.0
C186 C 0.99001 0.41399 0.97733 0.0
C187 C 0.01976 0.35841 0.96482 0.0
C188 C 0.90921 0.40834 0.97877 0.0
C189 C 0.0128 0.48758 0.97223 0.0
C190 C 0.05721 0.51752 0.98429 0.0
C191 C 0.08412 0.58581 0.98215 0.0
C192 C 0.06651 0.62343 0.96701 0.0
C193 C 0.02146 0.59288 0.95449 0.0
C194 C 0.99409 0.52445 0.95739 0.0
H195 H 0.62452 0.71007 0.21495 0.0
H196 H 0.65068 0.93468 0.20694 0.0
H197 H 0.74202 0.93812 0.22971 0.0
H198 H 0.6573 0.71129 0.26269 0.0
H199 H 0.7034 0.62821 0.26159 0.0
H200 H 0.63374 0.64722 0.24644 0.0
H201 H 0.72115 0.62113 0.22151 0.0
H202 H 0.79205 0.60595 0.23659 0.0
H203 H 0.80153 0.67152 0.21993 0.0
H204 H 0.84125 0.91432 0.2504 0.0
H205 H 0.91919 0.87076 0.27377 0.0
H206 H 0.82875 0.66222 0.26838 0.0
C207 C 0.64691 0.76045 0.21865 0.0
C208 C 0.6302 0.82231 0.20942 0.0
C209 C 0.66236 0.88699 0.21411 0.0
C210 C 0.71501 0.88922 0.22681 0.0
C211 C 0.73463 0.82627 0.2347 0.0
C212 C 0.69999 0.76351 0.23128 0.0
C213 C 0.73263 0.70316 0.24131 0.0
C214 C 0.67856 0.67059 0.25375 0.0
C215 C 0.76365 0.64715 0.2291 0.0
C216 C 0.79062 0.74191 0.25092 0.0
C217 C 0.7919 0.81259 0.24663 0.0
C218 C 0.84065 0.8591 0.25393 0.0
C219 C 0.88578 0.83371 0.26691 0.0
C220 C 0.88072 0.76302 0.27252 0.0
C221 C 0.8348 0.71602 0.26392 0.0
H222 H 0.36607 0.63247 0.51796 0.0
H223 H 0.58357 0.65191 0.53482 0.0
H224 H 0.61631 0.55106 0.51615 0.0
H225 H 0.35786 0.45006 0.51832 0.0
H226 H 0.30362 0.44113 0.49929 0.0
H227 H 0.29815 0.51988 0.51224 0.0
H228 H 0.32778 0.59845 0.4858 0.0
H229 H 0.32923 0.52025 0.47262 0.0
H230 H 0.40455 0.57828 0.473 0.0
H231 H 0.62221 0.43989 0.49732 0.0
H232 H 0.6062 0.34897 0.47464 0.0
H233 H 0.38428 0.40108 0.47145 0.0
C234 C 0.42111 0.61722 0.51723 0.0
C235 C 0.4723 0.65029 0.52777 0.0
C236 C 0.54362 0.62821 0.52664 0.0
C237 C 0.56243 0.57002 0.51632 0.0
C238 C 0.50938 0.53506 0.50714 0.0
C239 C 0.4406 0.55942 0.50709 0.0
C240 C 0.39316 0.51296 0.49621 0.0
C241 C 0.33476 0.47903 0.50718 0.0
C242 C 0.36188 0.55496 0.48101 0.0
C243 C 0.44579 0.45832 0.49014 0.0
C244 C 0.51246 0.4712 0.49673 0.0
C245 C 0.57014 0.42926 0.49217 0.0
C246 C 0.56037 0.37656 0.47956 0.0
C247 C 0.49367 0.36695 0.47166 0.0
C248 C 0.43522 0.40576 0.47774 0.0
H249 H 0.62527 0.2962 0.76257 0.0
H250 H 0.7196 0.10667 0.78369 0.0
H251 H 0.81237 0.11043 0.76133 0.0
H252 H 0.66513 0.26015 0.71672 0.0
H253 H 0.68323 0.35178 0.71242 0.0
H254 H 0.621 0.32802 0.72894 0.0
H255 H 0.69288 0.40288 0.75084 0.0
H256 H 0.75694 0.42428 0.73453 0.0
H257 H 0.78488 0.38314 0.75437 0.0
H258 H 0.89982 0.13975 0.73763 0.0
H259 H 0.9622 0.18121 0.71145 0.0
H260 H 0.81461 0.35543 0.70731 0.0
C261 C 0.66384 0.25405 0.76202 0.0
C262 C 0.66482 0.20051 0.77462 0.0
C263 C 0.7176 0.14756 0.77393 0.0
C264 C 0.77093 0.14974 0.76143 0.0
C265 C 0.77109 0.20563 0.74979 0.0
C266 C 0.71818 0.25608 0.74976 0.0
C267 C 0.73172 0.31179 0.73621 0.0
C268 C 0.67173 0.31296 0.72277 0.0
C269 C 0.74223 0.38483 0.74449 0.0
C270 C 0.79994 0.28445 0.72853 0.0
C271 C 0.82233 0.22352 0.73659 0.0
C272 C 0.8828 0.18749 0.7312 0.0
C273 C 0.91861 0.21195 0.71648 0.0
C274 C 0.89332 0.27148 0.70736 0.0
C275 C 0.83547 0.30991 0.71406 0.0
H276 H 0.40205 0.34592 0.75386 0.0
H277 H 0.42991 0.12104 0.76015 0.0
H278 H 0.34056 0.09935 0.73756 0.0
H279 H 0.22935 0.34821 0.75114 0.0
H280 H 0.21713 0.41387 0.73459 0.0
H281 H 0.29568 0.41485 0.74768 0.0
H282 H 0.37622 0.40674 0.72079 0.0
H283 H 0.29822 0.41104 0.70748 0.0
H284 H 0.35979 0.33936 0.70483 0.0
H285 H 0.22671 0.10303 0.72075 0.0
H286 H 0.12707 0.13006 0.70118 0.0
H287 H 0.17714 0.3525 0.70428 0.0
C288 C 0.39352 0.29235 0.74945 0.0
C289 C 0.42291 0.23506 0.75865 0.0
C290 C 0.40891 0.16552 0.75301 0.0
C291 C 0.35675 0.15277 0.74049 0.0
C292 C 0.32171 0.21044 0.73332 0.0
C293 C 0.34223 0.27898 0.7368 0.0
C294 C 0.29368 0.33157 0.72797 0.0
C295 C 0.25683 0.37995 0.74114 0.0
C296 C 0.33439 0.3747 0.71446 0.0
C297 C 0.24128 0.28193 0.71953 0.0
C298 C 0.25755 0.21238 0.72309 0.0
C299 C 0.21447 0.15721 0.71754 0.0
C300 C 0.15684 0.17315 0.70682 0.0
C301 C 0.14381 0.24336 0.70154 0.0
C302 C 0.18493 0.29859 0.70851 0.0
H303 H 0.35596 0.85413 0.21767 0.0
H304 H 0.41541 0.63477 0.21262 0.0
H305 H 0.32797 0.60251 0.2349 0.0
H306 H 0.31513 0.84882 0.26564 0.0
H307 H 0.2437 0.91042 0.26256 0.0
H308 H 0.32028 0.91459 0.24889 0.0
H309 H 0.23684 0.90545 0.22238 0.0
H310 H 0.16056 0.89601 0.23599 0.0
H311 H 0.18042 0.82945 0.22009 0.0
H312 H 0.21993 0.59277 0.2537 0.0
H313 H 0.12597 0.60978 0.27537 0.0
H314 H 0.1369 0.83562 0.26793 0.0
C315 C 0.35383 0.80005 0.22215 0.0
C316 C 0.39307 0.74697 0.21377 0.0
C317 C 0.38715 0.67624 0.21932 0.0
C318 C 0.33636 0.65735 0.23164 0.0
C319 C 0.2932 0.71024 0.23836 0.0
C320 C 0.3036 0.78056 0.23443 0.0
C321 C 0.24881 0.82698 0.24298 0.0
C322 C 0.28407 0.87819 0.25579 0.0
C323 C 0.20405 0.8668 0.22955 0.0
C324 C 0.20533 0.77176 0.25218 0.0
C325 C 0.23096 0.70463 0.24907 0.0
C326 C 0.19979 0.64512 0.25632 0.0
C327 C 0.14525 0.65507 0.26828 0.0
C328 C 0.12348 0.72385 0.27295 0.0
C329 C 0.15107 0.78249 0.26411 0.0
H330 H 0.50226 0.0052 0.46272 0.0
H331 H 0.56258 0.21373 0.48066 0.0
H332 H 0.59062 0.16288 0.50946 0.0
H333 H 0.416 0.95094 0.49942 0.0
H334 H 0.44444 0.86041 0.49774 0.0
H335 H 0.43687 0.91345 0.47865 0.0
H336 H 0.56727 0.88554 0.47121 0.0
H337 H 0.57561 0.83337 0.49055 0.0
H338 H 0.63571 0.9053 0.48668 0.0
H339 H 0.6035 0.08922 0.53656 0.0
H340 H 0.58366 0.00565 0.5604 0.0
H341 H 0.51634 0.84589 0.52383 0.0
C342 C 0.52213 0.04062 0.47258 0.0
C343 C 0.53062 0.11358 0.46942 0.0
C344 C 0.5555 0.1578 0.48282 0.0
C345 C 0.57242 0.12911 0.49909 0.0
C346 C 0.56464 0.05637 0.50155 0.0
C347 C 0.53947 0.01305 0.48862 0.0
C348 C 0.5295 0.93794 0.49466 0.0
C349 C 0.45213 0.91438 0.4925 0.0
C350 C 0.58006 0.88758 0.48522 0.0
C351 C 0.54971 0.94587 0.51342 0.0
C352 C 0.5717 0.01412 0.51704 0.0
C353 C 0.58712 0.03568 0.5338 0.0
C354 C 0.57567 0.9878 0.54725 0.0
C355 C 0.54816 0.91957 0.54386 0.0
C356 C 0.5386 0.89722 0.5267 0.0
H357 H 0.03693 0.13834 0.01153 0.0
H358 H 0.04733 0.96935 0.04937 0.0
H359 H 0.04165 0.88157 0.02627 0.0
H360 H 0.91697 0.05572 0.98283 0.0
H361 H 0.95944 0.08512 0.96333 0.0
H362 H 0.96707 0.13659 0.98279 0.0
H363 H 0.1033 0.13115 0.98072 0.0
H364 H 0.09602 0.08002 0.96118 0.0
H365 H 0.14658 0.04665 0.97914 0.0
H366 H 0.02296 0.81039 -0.00063 0.0
H367 H 0.0058 0.76278 0.96983 0.0
H368 H 0.01835 0.97566 0.94946 0.0
C369 C 0.03901 0.08296 0.01491 0.0
C370 C 0.04243 0.0613 0.03233 0.0
C371 C 0.04488 0.98796 0.03617 0.0
C372 C 0.04146 0.93717 0.02312 0.0
C373 C 0.0368 0.95997 0.00616 0.0
C374 C 0.03691 0.03099 0.00194 0.0
C375 C 0.03182 0.04067 0.98257 0.0
C376 C 0.96483 0.08195 0.9776 0.0
C377 C 0.09841 0.07674 0.97549 0.0
C378 C 0.0274 0.96428 0.97678 0.0
C379 C 0.02992 0.91848 0.99055 0.0
C380 C 0.02271 0.84559 0.98838 0.0
C381 C 0.01356 0.81877 0.97158 0.0
C382 C 0.0129 0.86471 0.95723 0.0
C383 C 0.01974 0.93843 0.96004 0.0
H384 H 0.31715 0.99365 0.16012 0.0
H385 H 0.44248 0.93824 0.11568 0.0
H386 H 0.41618 0.05383 0.10248 0.0
H387 H 0.1816 0.04766 0.13924 0.0
H388 H 0.15542 0.11977 0.15304 0.0
H389 H 0.20721 0.04951 0.16168 0.0
H390 H 0.30112 0.13999 0.17184 0.0
H391 H 0.2489 0.21067 0.16289 0.0
H392 H 0.33972 0.20004 0.15651 0.0
H393 H 0.35254 0.15525 0.09089 0.0
H394 H 0.24473 0.21241 0.08003 0.0
H395 H 0.1529 0.20212 0.13091 0.0
C396 C 0.34118 0.00781 0.14794 0.0
C397 C 0.3839 0.95914 0.13913 0.0
C398 C 0.41247 0.97676 0.12292 0.0
C399 C 0.39775 0.04238 0.11538 0.0
C400 C 0.35367 0.08931 0.12419 0.0
C401 C 0.32566 0.07254 0.14019 0.0
C402 C 0.26693 0.12262 0.14516 0.0
C403 C 0.19885 0.08246 0.15001 0.0
C404 C 0.29063 0.17124 0.15997 0.0
C405 C 0.25936 0.16359 0.12847 0.0
C406 C 0.31328 0.14747 0.11703 0.0
C407 C 0.31123 0.16971 0.09985 0.0
C408 C 0.24984 0.20263 0.09376 0.0
C409 C 0.19115 0.21086 0.10475 0.0
C410 C 0.19818 0.19693 0.12251 0.0
H411 H 0.17409 0.98281 0.33131 0.0
H412 H 0.03265 0.90496 0.37049 0.0
H413 H 0.06425 0.00506 0.38939 0.0
H414 H 0.30636 0.0065 0.35548 0.0
H415 H 0.34237 0.086 0.34625 0.0
H416 H 0.28744 0.03023 0.33339 0.0
H417 H 0.20261 0.13471 0.32721 0.0
H418 H 0.25939 0.19098 0.33988 0.0
H419 H 0.16677 0.1849 0.34493 0.0
H420 H 0.13812 0.08452 0.40694 0.0
H421 H 0.24563 0.13119 0.42101 0.0
H422 H 0.3442 0.15547 0.37122 0.0
C423 C 0.14714 0.98962 0.34351 0.0
C424 C 0.09954 0.93798 0.34934 0.0
C425 C 0.06679 0.94595 0.36556 0.0
C426 C 0.08496 0.00258 0.37639 0.0
C427 C 0.13594 0.0506 0.37075 0.0
C428 C 0.16566 0.04531 0.35446 0.0
C429 C 0.22951 0.09275 0.3527 0.0
C430 C 0.29519 0.05133 0.34664 0.0
C431 C 0.21354 0.15452 0.34046 0.0
C432 C 0.23675 0.11831 0.37114 0.0
C433 C 0.18021 0.09674 0.38116 0.0
C434 C 0.18107 0.10419 0.39912 0.0
C435 C 0.24223 0.13081 0.40704 0.0
C436 C 0.30152 0.14901 0.39702 0.0
C437 C 0.29773 0.1452 0.37892 0.0
H438 H 0.09446 0.96863 0.65044 0.0
H439 H 0.9967 0.0861 0.60905 0.0
H440 H 0.01644 0.98626 0.58919 0.0
H441 H 0.22821 0.91276 0.63249 0.0
H442 H 0.23334 0.82366 0.64062 0.0
H443 H 0.18523 0.88843 0.65239 0.0
H444 H 0.07408 0.80942 0.65124 0.0
H445 H 0.12263 0.74411 0.63925 0.0
H446 H 0.04101 0.77832 0.63077 0.0
H447 H 0.08927 0.90396 0.57258 0.0
H448 H 0.1994 0.8495 0.56229 0.0
H449 H 0.24412 0.77557 0.61362 0.0
C450 C 0.07392 0.97117 0.6374 0.0
C451 C 0.04484 0.03453 0.63115 0.0
C452 C 0.01875 0.03752 0.61407 0.0
C453 C 0.02964 0.98078 0.60272 0.0
C454 C 0.06454 0.92074 0.60883 0.0
C455 C 0.08372 0.91448 0.62605 0.0
C456 C 0.13089 0.85107 0.6289 0.0
C457 C 0.19837 0.8703 0.63915 0.0
C458 C 0.08968 0.79225 0.63807 0.0
C459 C 0.14624 0.83094 0.61032 0.0
C460 C 0.10426 0.86888 0.59891 0.0
C461 C 0.1199 0.87136 0.58128 0.0
C462 C 0.1825 0.83973 0.57543 0.0
C463 C 0.2284 0.80591 0.58716 0.0
C464 C 0.2072 0.797 0.6044 0.0
H465 H 0.11995 0.83725 0.85196 0.0
H466 H 0.22855 0.8287 0.90098 0.0
H467 H 0.33673 0.8741 0.8873 0.0
H468 H 0.29585 0.80816 0.82346 0.0
H469 H 0.25916 0.86648 0.80741 0.0
H470 H 0.2024 0.80701 0.8191 0.0
H471 H 0.12492 0.913 0.82812 0.0
H472 H 0.18176 0.97268 0.81698 0.0
H473 H 0.16466 0.98573 0.83965 0.0
H474 H 0.40534 0.96421 0.87273 0.0
H475 H 0.43771 0.07117 0.85683 0.0
H476 H 0.30021 0.01197 0.81493 0.0
C477 C 0.1683 0.84065 0.8594 0.0
C478 C 0.16713 0.82928 0.87733 0.0
C479 C 0.22955 0.83611 0.88711 0.0
C480 C 0.29112 0.86185 0.87941 0.0
C481 C 0.28941 0.87861 0.86186 0.0
C482 C 0.23046 0.8652 0.85172 0.0
C483 C 0.23768 0.89858 0.83403 0.0
C484 C 0.24952 0.84167 0.82018 0.0
C485 C 0.17352 0.94528 0.82947 0.0
C486 C 0.30394 0.94183 0.83678 0.0
C487 C 0.3344 0.92775 0.8527 0.0
C488 C 0.38574 0.97211 0.85974 0.0
C489 C 0.40538 0.0324 0.8505 0.0
C490 C 0.37601 0.04693 0.83417 0.0
C491 C 0.32582 0.00011 0.8271 0.0
H492 H 0.79032 0.83423 0.86367 0.0
H493 H 0.75003 0.87346 0.91766 0.0
H494 H 0.64134 0.93785 0.91011 0.0
H495 H 0.76437 0.98662 0.8499 0.0
H496 H 0.7193 0.97048 0.82975 0.0
H497 H 0.77411 0.90332 0.83886 0.0
H498 H 0.67096 0.81739 0.83803 0.0
H499 H 0.61244 0.88316 0.82933 0.0
H500 H 0.58913 0.83703 0.84887 0.0
H501 H 0.57665 0.03555 0.89725 0.0
H502 H 0.54271 0.13924 0.87969 0.0
H503 H 0.61061 0.03129 0.83348 0.0
C504 C 0.7553 0.85205 0.8738 0.0
C505 C 0.77686 0.84855 0.89116 0.0
C506 C 0.73275 0.87463 0.90431 0.0
C507 C 0.67107 0.9114 0.9001 0.0
C508 C 0.6541 0.92018 0.88269 0.0
C509 C 0.69326 0.88853 0.86969 0.0
C510 C 0.67223 0.91666 0.8521 0.0
C511 C 0.73628 0.94605 0.84211 0.0
C512 C 0.63371 0.86015 0.84147 0.0
C513 C 0.62194 0.97453 0.85739 0.0
C514 C 0.61113 0.97519 0.87507 0.0
C515 C 0.58094 0.03339 0.88334 0.0
C516 C 0.56246 0.09226 0.87336 0.0
C517 C 0.5721 0.09114 0.85531 0.0
C518 C 0.5999 0.03106 0.84721 0.0
H519 H 0.81475 0.11636 0.61118 0.0
H520 H 0.88933 0.03688 0.66021 0.0
H521 H 0.82655 0.92441 0.65512 0.0
H522 H 0.6536 0.0653 0.61382 0.0
H523 H 0.63798 0.0382 0.59183 0.0
H524 H 0.7054 0.10159 0.59646 0.0
H525 H 0.799 0.02335 0.58148 0.0
H526 H 0.73117 0.95991 0.5764 0.0
H527 H 0.80938 0.93256 0.5879 0.0
H528 H 0.72703 0.84198 0.64928 0.0
H529 H 0.61244 0.78785 0.64064 0.0
H530 H 0.6116 0.91472 0.59425 0.0
C531 C 0.82051 0.07349 0.6203 0.0
C532 C 0.85617 0.08382 0.63596 0.0
C533 C 0.86221 0.02851 0.64804 0.0
C534 C 0.82705 0.96465 0.64522 0.0
C535 C 0.78809 0.95702 0.63005 0.0
C536 C 0.78688 0.00909 0.61745 0.0
C537 C 0.73367 0.99271 0.60349 0.0
C538 C 0.67951 0.05297 0.60131 0.0
C539 C 0.77054 0.97609 0.58631 0.0
C540 C 0.70044 0.92749 0.6111 0.0
C541 C 0.73291 0.90663 0.62626 0.0
C542 C 0.70289 0.85558 0.63705 0.0
C543 C 0.63783 0.82569 0.63224 0.0
C544 C 0.60494 0.84728 0.61679 0.0
C545 C 0.63742 0.89688 0.60597 0.0
H546 H 0.88662 0.87619 0.37625 0.0
H547 H 0.90622 0.98314 0.32731 0.0
H548 H 0.86387 0.09378 0.34064 0.0
H549 H 0.73886 0.92991 0.38801 0.0
H550 H 0.75299 0.94558 0.41072 0.0
H551 H 0.80892 0.8854 0.39948 0.0
H552 H 0.91909 0.95624 0.409 0.0
H553 H 0.8629 0.017 0.4205 0.0
H554 H 0.92419 0.04942 0.40462 0.0
H555 H 0.77837 0.16938 0.35511 0.0
H556 H 0.67151 0.20844 0.37061 0.0
H557 H 0.71847 0.06375 0.41201 0.0
C558 C 0.8853 0.92429 0.36873 0.0
C559 C 0.89922 0.9225 0.35096 0.0
C560 C 0.89614 0.98472 0.34106 0.0
C561 C 0.8727 0.04767 0.34858 0.0
C562 C 0.8549 0.04733 0.36606 0.0
C563 C 0.86385 0.98775 0.37623 0.0
C564 C 0.83058 0.99711 0.3938 0.0
C565 C 0.77981 0.93598 0.39821 0.0
C566 C 0.8876 0.00549 0.4078 0.0
C567 C 0.79195 0.06586 0.39091 0.0
C568 C 0.8087 0.09565 0.3751 0.0
C569 C 0.76788 0.14977 0.36796 0.0
C570 C 0.7074 0.17203 0.37683 0.0
C571 C 0.68948 0.14091 0.39271 0.0
C572 C 0.73362 0.08971 0.40013 0.0
H573 H 0.60513 0.89667 0.10371 0.0
H574 H 0.55891 0.01264 0.15034 0.0
H575 H 0.60074 0.12234 0.13665 0.0
H576 H 0.754 0.95122 0.09612 0.0
H577 H 0.75298 0.96219 0.07299 0.0
H578 H 0.69197 0.90321 0.08285 0.0
H579 H 0.58731 0.96971 0.06891 0.0
H580 H 0.64869 0.02913 0.0587 0.0
H581 H 0.57839 0.06358 0.0719 0.0
H582 H 0.68912 0.19936 0.12378 0.0
H583 H 0.80376 0.23775 0.11191 0.0
H584 H 0.78816 0.07936 0.07203 0.0
C585 C 0.60034 0.94634 0.11052 0.0
C586 C 0.5795 0.94725 0.1279 0.0
C587 C 0.57441 0.01177 0.13688 0.0
C588 C 0.59768 0.07427 0.12914 0.0
C589 C 0.62398 0.07114 0.11232 0.0
C590 C 0.62257 0.00904 0.1028 0.0
C591 C 0.66561 0.01548 0.08645 0.0
C592 C 0.71932 0.95455 0.08455 0.0
C593 C 0.61709 0.01978 0.07056 0.0
C594 C 0.70113 0.08563 0.08977 0.0
C595 C 0.67395 0.1188 0.10428 0.0
C596 C 0.70847 0.17612 0.11193 0.0
C597 C 0.7736 0.19768 0.10518 0.0
C598 C 0.80266 0.16244 0.09083 0.0
C599 C 0.76465 0.10835 0.08261 0.0
H600 H 0.8903 0.385 0.60171 0.0
H601 H 0.95884 0.52443 0.64253 0.0
H602 H 0.88665 0.62036 0.63007 0.0
H603 H 0.85219 0.52752 0.56628 0.0
H604 H 0.77507 0.47849 0.55978 0.0
H605 H 0.85256 0.43253 0.56733 0.0
H606 H 0.77542 0.36886 0.58996 0.0
H607 H 0.69847 0.4164 0.58314 0.0
H608 H 0.72624 0.42037 0.6054 0.0
H609 H 0.78164 0.68683 0.61879 0.0
H610 H 0.66443 0.72178 0.60801 0.0
H611 H 0.657 0.5358 0.57563 0.0
C612 C 0.89456 0.43755 0.60712 0.0
C613 C 0.93143 0.44794 0.62281 0.0
C614 C 0.93295 0.51606 0.63021 0.0
C615 C 0.89096 0.57055 0.62332 0.0
C616 C 0.84841 0.55598 0.60895 0.0
C617 C 0.85138 0.49141 0.60063 0.0
C618 C 0.79118 0.48342 0.58775 0.0
C619 C 0.81945 0.48034 0.56919 0.0
C620 C 0.74518 0.41847 0.59183 0.0
C621 C 0.75112 0.5513 0.59092 0.0
C622 C 0.7858 0.59322 0.60287 0.0
C623 C 0.75523 0.65507 0.60911 0.0
C624 C 0.68801 0.6743 0.60305 0.0
C625 C 0.65099 0.63176 0.59102 0.0
C626 C 0.68391 0.56997 0.58471 0.0
H627 H 0.80792 0.67339 0.86282 0.0
H628 H 0.71546 0.62651 0.91234 0.0
H629 H 0.60772 0.5831 0.8979 0.0
H630 H 0.63136 0.69628 0.83579 0.0
H631 H 0.67204 0.6491 0.81825 0.0
H632 H 0.72467 0.70674 0.83157 0.0
H633 H 0.81045 0.60424 0.83779 0.0
H634 H 0.75832 0.54643 0.82475 0.0
H635 H 0.77668 0.52349 0.8469 0.0
H636 H 0.5378 0.50596 0.87979 0.0
H637 H 0.50738 0.41004 0.85971 0.0
H638 H 0.6436 0.50059 0.82107 0.0
C639 C 0.76249 0.6587 0.87047 0.0
C640 C 0.76821 0.65482 0.88854 0.0
C641 C 0.71048 0.63166 0.89846 0.0
C642 C 0.64925 0.6068 0.8903 0.0
C643 C 0.64737 0.60483 0.87226 0.0
C644 C 0.70223 0.63154 0.8624 0.0
C645 C 0.69691 0.60691 0.8438 0.0
C646 C 0.6802 0.66855 0.83165 0.0
C647 C 0.7645 0.56792 0.83801 0.0
C648 C 0.63464 0.55745 0.84507 0.0
C649 C 0.60514 0.55879 0.86141 0.0
C650 C 0.55664 0.50776 0.86663 0.0
C651 C 0.53917 0.45349 0.8551 0.0
C652 C 0.57059 0.45035 0.83863 0.0
C653 C 0.61671 0.50422 0.83336 0.0
H654 H 0.73892 0.65409 0.1338 0.0
H655 H 0.5541 0.52436 0.14215 0.0
H656 H 0.60196 0.43495 0.12166 0.0
H657 H 0.76214 0.62016 0.08921 0.0
H658 H 0.85709 0.61885 0.09063 0.0
H659 H 0.80673 0.6715 0.10553 0.0
H660 H 0.86614 0.60768 0.13143 0.0
H661 H 0.91746 0.55578 0.1166 0.0
H662 H 0.86344 0.51274 0.13254 0.0
H663 H 0.67484 0.35986 0.09989 0.0
H664 H 0.76571 0.30592 0.08085 0.0
H665 H 0.90016 0.48791 0.08868 0.0
C666 C 0.7085 0.60662 0.13147 0.0
C667 C 0.64216 0.59635 0.13921 0.0
C668 C 0.60397 0.53383 0.13581 0.0
C669 C 0.63111 0.48281 0.12435 0.0
C670 C 0.6965 0.49558 0.11662 0.0
C671 C 0.73464 0.55599 0.12023 0.0
C672 C 0.80406 0.55791 0.11081 0.0
C673 C 0.80764 0.62083 0.09831 0.0
C674 C 0.86642 0.55852 0.1236 0.0
C675 C 0.79961 0.48908 0.1012 0.0
C676 C 0.73749 0.4534 0.10459 0.0
C677 C 0.72363 0.38747 0.09727 0.0
C678 C 0.77548 0.35699 0.08661 0.0
C679 C 0.84001 0.39234 0.08359 0.0
C680 C 0.85106 0.45979 0.09066 0.0
H681 H 0.83509 0.49482 0.33132 0.0
H682 H 0.97263 0.58249 0.37026 0.0
H683 H 0.94049 0.48669 0.3902 0.0
H684 H 0.70208 0.47922 0.35507 0.0
H685 H 0.66489 0.39791 0.34706 0.0
H686 H 0.72127 0.44887 0.33349 0.0
H687 H 0.80463 0.34186 0.32933 0.0
H688 H 0.74651 0.28998 0.34263 0.0
H689 H 0.83905 0.29614 0.34792 0.0
H690 H 0.86601 0.41316 0.40839 0.0
H691 H 0.75779 0.37032 0.42269 0.0
H692 H 0.6611 0.33389 0.37297 0.0
C693 C 0.86143 0.49064 0.34371 0.0
C694 C 0.9083 0.54375 0.34914 0.0
C695 C 0.93974 0.53981 0.36562 0.0
C696 C 0.92115 0.48572 0.37706 0.0
C697 C 0.87065 0.43644 0.3718 0.0
C698 C 0.84199 0.43774 0.3553 0.0
C699 C 0.77738 0.39102 0.354 0.0
C700 C 0.7127 0.43177 0.34703 0.0
C701 C 0.79288 0.32585 0.34282 0.0
C702 C 0.76875 0.37071 0.37276 0.0
C703 C 0.82507 0.39416 0.38268 0.0
C704 C 0.8232 0.39196 0.4007 0.0
C705 C 0.76158 0.36791 0.40875 0.0
C706 C 0.70296 0.34676 0.39876 0.0
C707 C 0.70721 0.34633 0.38067 0.0
H708 H 0.27643 0.40753 0.41096 0.0
H709 H 0.35847 0.28512 0.36854 0.0
H710 H 0.25582 0.31883 0.35064 0.0
H711 H 0.07296 0.39875 0.39682 0.0
H712 H 0.06407 0.48866 0.40408 0.0
H713 H 0.12112 0.42857 0.41555 0.0
H714 H 0.22363 0.5179 0.412 0.0
H715 H 0.16739 0.57626 0.40026 0.0
H716 H 0.2485 0.54593 0.3906 0.0
H717 H 0.17093 0.39184 0.33517 0.0
H718 H 0.12233 0.5025 0.32324 0.0
H719 H 0.10309 0.58767 0.37472 0.0
C720 C 0.26987 0.38498 0.39821 0.0
C721 C 0.32307 0.34257 0.39112 0.0
C722 C 0.31623 0.31573 0.37424 0.0
C723 C 0.25794 0.33446 0.36406 0.0
C724 C 0.20767 0.38032 0.37102 0.0
C725 C 0.21278 0.40468 0.38788 0.0
C726 C 0.16395 0.46646 0.39104 0.0
C727 C 0.10183 0.44423 0.40254 0.0
C728 C 0.20332 0.53032 0.39889 0.0
C729 C 0.13931 0.4801 0.37278 0.0
C730 C 0.16047 0.42678 0.36166 0.0
C731 C 0.15205 0.43257 0.3438 0.0
C732 C 0.12479 0.49554 0.33711 0.0
C733 C 0.10828 0.55196 0.34826 0.0
C734 C 0.1135 0.54359 0.3662 0.0
H735 H 0.15333 0.37301 0.11303 0.0
H736 H 0.26135 0.38952 0.06419 0.0
H737 H 0.3702 0.42609 0.07919 0.0
H738 H 0.19989 0.51654 0.12938 0.0
H739 H 0.21561 0.49215 0.15156 0.0
H740 H 0.15843 0.43945 0.13851 0.0
H741 H 0.23386 0.32943 0.14506 0.0
H742 H 0.29247 0.38184 0.15822 0.0
H743 H 0.32719 0.32989 0.14068 0.0
H744 H 0.44653 0.49939 0.09683 0.0
H745 H 0.48298 0.59859 0.1155 0.0
H746 H 0.33172 0.53338 0.15397 0.0
C747 C 0.20156 0.38025 0.10578 0.0
C748 C 0.20041 0.37744 0.08766 0.0
C749 C 0.26251 0.39013 0.07818 0.0
C750 C 0.32455 0.41049 0.08663 0.0
C751 C 0.32347 0.41744 0.10456 0.0
C752 C 0.26391 0.40074 0.11414 0.0
C753 C 0.27126 0.42596 0.13262 0.0
C754 C 0.20762 0.47127 0.1383 0.0
C755 C 0.28189 0.36305 0.14486 0.0
C756 C 0.33836 0.46896 0.13114 0.0
C757 C 0.36983 0.46031 0.11516 0.0
C758 C 0.42441 0.50446 0.10963 0.0
C759 C 0.44481 0.56085 0.12026 0.0
C760 C 0.4107 0.5722 0.13618 0.0
C761 C 0.35947 0.52397 0.14198 0.0
H762 H 0.2032 0.60273 0.89087 0.0
H763 H 0.08516 0.68243 0.84734 0.0
H764 H 0.18247 0.64886 0.82776 0.0
H765 H 0.39517 0.62813 0.86997 0.0
H766 H 0.42001 0.5481 0.88096 0.0
H767 H 0.35927 0.6085 0.89095 0.0
H768 H 0.27294 0.50265 0.89441 0.0
H769 H 0.33255 0.44517 0.88345 0.0
H770 H 0.24374 0.45586 0.87538 0.0
H771 H 0.26752 0.57482 0.8128 0.0
H772 H 0.32713 0.46517 0.80385 0.0
H773 H 0.38593 0.42388 0.85675 0.0
C774 C 0.2003 0.61622 0.8773 0.0
C775 C 0.13837 0.64553 0.87044 0.0
C776 C 0.1334 0.66078 0.85268 0.0
C777 C 0.18865 0.64233 0.84156 0.0
C778 C 0.24785 0.6085 0.8485 0.0
C779 C 0.25438 0.59648 0.86609 0.0
C780 C 0.31378 0.5456 0.87 0.0
C781 C 0.37577 0.58499 0.87844 0.0
C782 C 0.28913 0.48369 0.88144 0.0
C783 C 0.33223 0.52225 0.85187 0.0
C784 C 0.2972 0.56276 0.83963 0.0
C785 C 0.29725 0.54459 0.82217 0.0
C786 C 0.33082 0.4821 0.8172 0.0
C787 C 0.36285 0.4382 0.82965 0.0
C788 C 0.36543 0.45929 0.84703 0.0
H789 H 0.11606 0.47357 0.63636 0.0
H790 H 0.26331 0.29832 0.63421 0.0
H791 H 0.36198 0.37896 0.63904 0.0
H792 H 0.2137 0.58116 0.61098 0.0
H793 H 0.19217 0.66206 0.62197 0.0
H794 H 0.13288 0.58893 0.62311 0.0
H795 H 0.13911 0.59744 0.65638 0.0
H796 H 0.20352 0.66751 0.65561 0.0
H797 H 0.22272 0.58771 0.66729 0.0
H798 H 0.44574 0.47504 0.63917 0.0
H799 H 0.5041 0.57552 0.62525 0.0
H800 H 0.30997 0.69378 0.62737 0.0
C801 C 0.16913 0.45251 0.63711 0.0
C802 C 0.18171 0.37982 0.63483 0.0
C803 C 0.25197 0.354 0.63568 0.0
C804 C 0.30858 0.39924 0.63887 0.0
C805 C 0.2948 0.47064 0.64115 0.0
C806 C 0.22695 0.4975 0.63991 0.0
C807 C 0.22824 0.57719 0.63912 0.0
C808 C 0.18958 0.60381 0.62283 0.0
C809 C 0.19646 0.60934 0.65558 0.0
C810 C 0.30738 0.59016 0.63839 0.0
C811 C 0.34482 0.52821 0.64074 0.0
C812 C 0.4174 0.52424 0.6377 0.0
C813 C 0.4508 0.58217 0.63005 0.0
C814 C 0.41068 0.64146 0.62512 0.0
C815 C 0.34112 0.64888 0.63128 0.0
loop_
_geom_bond_atom_site_label_1
_geom_bond_atom_site_label_2
_geom_bond_distance
_geom_bond_site_symmetry_2
_ccdc_geom_bond_type
Zn0 O6 1.920 . S
Zn0 O12 1.898 1_455 S
Zn0 O15 1.905 . S
Zn1 O9 1.905 . S
Zn1 O10 1.898 1_655 S
Zn1 O18 1.920 . S
Zn2 O5 2.080 . S
Zn2 O8 2.114 1_455 S
Zn2 O11 2.120 . S
Zn2 O13 2.120 1_455 S
Zn2 O14 2.114 . S
Zn2 O17 2.080 1_455 S
C3 O8 1.166 . S
C3 O9 1.182 . S
C4 O10 1.167 . S
C4 O11 1.299 . S
O5 Zn2 2.080 . S
O5 C19 1.305 . S
O6 Zn0 1.920 . S
O6 C19 1.234 . S
C7 O12 1.167 . S
C7 O13 1.299 . S
O8 Zn2 2.114 1_655 S
O8 C3 1.166 . S
O9 Zn1 1.905 . S
O9 C3 1.182 . S
O10 Zn1 1.898 1_455 S
O10 C4 1.167 . S
O11 Zn2 2.120 . S
O11 C4 1.299 . S
O12 Zn0 1.898 1_655 S
O12 C7 1.167 . S
O13 Zn2 2.120 1_655 S
O13 C7 1.299 . S
O14 Zn2 2.114 . S
O14 C16 1.166 . S
O15 Zn0 1.905 . S
O15 C16 1.182 . S
C16 O14 1.166 . S
C16 O15 1.182 . S
O17 Zn2 2.080 1_655 S
O17 C20 1.305 . S
O18 Zn1 1.920 . S
O18 C20 1.234 . S
C19 O5 1.305 . S
C19 O6 1.234 . S
C20 O17 1.305 . S
C20 O18 1.234 . S
Zn21 O27 1.920 . S
Zn21 O33 1.898 . S
Zn21 O36 1.905 . S
Zn22 O30 1.905 . S
Zn22 O31 1.898 . S
Zn22 O39 1.920 . S
Zn23 O26 2.080 . S
Zn23 O29 2.114 1_455 S
Zn23 O32 2.120 1_455 S
Zn23 O34 2.120 . S
Zn23 O35 2.114 . S
Zn23 O38 2.080 1_455 S
C24 O29 1.166 . S
C24 O30 1.182 . S
C25 O31 1.167 . S
C25 O32 1.299 . S
O26 Zn23 2.080 . S
O26 C40 1.305 . S
O27 Zn21 1.920 . S
O27 C40 1.234 . S
C28 O33 1.167 . S
C28 O34 1.299 . S
O29 Zn23 2.114 1_655 S
O29 C24 1.166 . S
O30 Zn22 1.905 . S
O30 C24 1.182 . S
O31 Zn22 1.898 . S
O31 C25 1.167 . S
O32 Zn23 2.120 1_655 S
O32 C25 1.299 . S
O33 Zn21 1.898 . S
O33 C28 1.167 . S
O34 Zn23 2.120 . S
O34 C28 1.299 . S
O35 Zn23 2.114 . S
O35 C37 1.166 . S
O36 Zn21 1.905 . S
O36 C37 1.182 . S
C37 O35 1.166 . S
C37 O36 1.182 . S
O38 Zn23 2.080 1_655 S
O38 C41 1.305 . S
O39 Zn22 1.920 . S
O39 C41 1.234 . S
C40 O26 1.305 . S
C40 O27 1.234 . S
C41 O38 1.305 . S
C41 O39 1.234 . S
Zn42 O48 1.920 . S
Zn42 O54 1.898 . S
Zn42 O57 1.905 . S
Zn43 O51 1.905 . S
Zn43 O52 1.898 . S
Zn43 O60 1.920 . S
Zn44 O47 2.080 . S
Zn44 O50 2.114 . S
Zn44 O53 2.120 . S
Zn44 O55 2.120 . S
Zn44 O56 2.114 . S
Zn44 O59 2.080 . S
C45 O50 1.166 . S
C45 O51 1.182 . S
C46 O52 1.167 . S
C46 O53 1.299 . S
O47 Zn44 2.080 . S
O47 C61 1.305 . S
O48 Zn42 1.920 . S
O48 C61 1.234 . S
C49 O54 1.167 . S
C49 O55 1.299 . S
O50 Zn44 2.114 . S
O50 C45 1.166 . S
O51 Zn43 1.905 . S
O51 C45 1.182 . S
O52 Zn43 1.898 . S
O52 C46 1.167 . S
O53 Zn44 2.120 . S
O53 C46 1.299 . S
O54 Zn42 1.898 . S
O54 C49 1.167 . S
O55 Zn44 2.120 . S
O55 C49 1.299 . S
O56 Zn44 2.114 . S
O56 C58 1.166 . S
O57 Zn42 1.905 . S
O57 C58 1.182 . S
C58 O56 1.166 . S
C58 O57 1.182 . S
O59 Zn44 2.080 . S
O59 C62 1.305 . S
O60 Zn43 1.920 . S
O60 C62 1.234 . S
C61 O47 1.305 . S
C61 O48 1.234 . S
C62 O59 1.305 . S
C62 O60 1.234 . S
Zn63 O69 1.920 . S
Zn63 O75 1.898 . S
Zn63 O78 1.905 . S
Zn64 O72 1.905 . S
Zn64 O73 1.898 . S
Zn64 O81 1.920 . S
Zn65 O68 2.080 . S
Zn65 O71 2.114 . S
Zn65 O74 2.120 . S
Zn65 O76 2.120 . S
Zn65 O77 2.114 . S
Zn65 O80 2.080 . S
C66 O71 1.166 . S
C66 O72 1.182 . S
C67 O73 1.167 . S
C67 O74 1.299 . S
O68 Zn65 2.080 . S
O68 C82 1.305 . S
O69 Zn63 1.920 . S
O69 C82 1.234 . S
C70 O75 1.167 . S
C70 O76 1.299 . S
O71 Zn65 2.114 . S
O71 C66 1.166 . S
O72 Zn64 1.905 . S
O72 C66 1.182 . S
O73 Zn64 1.898 . S
O73 C67 1.167 . S
O74 Zn65 2.120 . S
O74 C67 1.299 . S
O75 Zn63 1.898 . S
O75 C70 1.167 . S
O76 Zn65 2.120 . S
O76 C70 1.299 . S
O77 Zn65 2.114 . S
O77 C79 1.166 . S
O78 Zn63 1.905 . S
O78 C79 1.182 . S
C79 O77 1.166 . S
C79 O78 1.182 . S
O80 Zn65 2.080 . S
O80 C83 1.305 . S
O81 Zn64 1.920 . S
O81 C83 1.234 . S
C82 O68 1.305 . S
C82 O69 1.234 . S
C83 O80 1.305 . S
C83 O81 1.234 . S
Zn84 O90 1.920 . S
Zn84 O96 1.898 1_455 S
Zn84 O99 1.905 . S
Zn85 O93 1.905 . S
Zn85 O94 1.898 1_655 S
Zn85 O102 1.920 . S
Zn86 O89 2.080 . S
Zn86 O92 2.114 1_455 S
Zn86 O95 2.120 . S
Zn86 O97 2.120 1_455 S
Zn86 O98 2.114 . S
Zn86 O101 2.080 1_455 S
C87 O92 1.166 . S
C87 O93 1.182 . S
C88 O94 1.167 . S
C88 O95 1.299 . S
O89 Zn86 2.080 . S
O89 C103 1.305 . S
O90 Zn84 1.920 . S
O90 C103 1.234 . S
C91 O96 1.167 . S
C91 O97 1.299 . S
O92 Zn86 2.114 1_655 S
O92 C87 1.166 . S
O93 Zn85 1.905 . S
O93 C87 1.182 . S
O94 Zn85 1.898 1_455 S
O94 C88 1.167 . S
O95 Zn86 2.120 . S
O95 C88 1.299 . S
O96 Zn84 1.898 1_655 S
O96 C91 1.167 . S
O97 Zn86 2.120 1_655 S
O97 C91 1.299 . S
O98 Zn86 2.114 . S
O98 C100 1.166 . S
O99 Zn84 1.905 . S
O99 C100 1.182 . S
C100 O98 1.166 . S
C100 O99 1.182 . S
O101 Zn86 2.080 1_655 S
O101 C104 1.305 . S
O102 Zn85 1.920 . S
O102 C104 1.234 . S
C103 O89 1.305 . S
C103 O90 1.234 . S
C104 O101 1.305 . S
C104 O102 1.234 . S
Zn105 O111 1.920 . S
Zn105 O117 1.898 . S
Zn105 O120 1.905 . S
Zn106 O114 1.905 . S
Zn106 O115 1.898 . S
Zn106 O123 1.920 . S
Zn107 O110 2.080 . S
Zn107 O113 2.114 . S
Zn107 O116 2.120 . S
Zn107 O118 2.120 . S
Zn107 O119 2.114 . S
Zn107 O122 2.080 . S
C108 O113 1.166 . S
C108 O114 1.182 . S
C109 O115 1.167 . S
C109 O116 1.299 . S
O110 Zn107 2.080 . S
O110 C124 1.305 . S
O111 Zn105 1.920 . S
O111 C124 1.234 . S
C112 O117 1.167 . S
C112 O118 1.299 . S
O113 Zn107 2.114 . S
O113 C108 1.166 . S
O114 Zn106 1.905 . S
O114 C108 1.182 . S
O115 Zn106 1.898 . S
O115 C109 1.167 . S
O116 Zn107 2.120 . S
O116 C109 1.299 . S
O117 Zn105 1.898 . S
O117 C112 1.167 . S
O118 Zn107 2.120 . S
O118 C112 1.299 . S
O119 Zn107 2.114 . S
O119 C121 1.166 . S
O120 Zn105 1.905 . S
O120 C121 1.182 . S
C121 O119 1.166 . S
C121 O120 1.182 . S
O122 Zn107 2.080 . S
O122 C125 1.305 . S
O123 Zn106 1.920 . S
O123 C125 1.234 . S
C124 O110 1.305 . S
C124 O111 1.234 . S
C125 O122 1.305 . S
C125 O123 1.234 . S
Zn126 O132 1.920 . S
Zn126 O138 1.898 . S
Zn126 O141 1.905 . S
Zn127 O135 1.905 . S
Zn127 O136 1.898 . S
Zn127 O144 1.920 . S
Zn128 O131 2.080 . S
Zn128 O134 2.114 . S
Zn128 O137 2.120 . S
Zn128 O139 2.120 . S
Zn128 O140 2.114 . S
Zn128 O143 2.080 . S
C129 O134 1.166 . S
C129 O135 1.182 . S
C130 O136 1.167 . S
C130 O137 1.299 . S
O131 Zn128 2.080 . S
O131 C145 1.305 . S
O132 Zn126 1.920 . S
O132 C145 1.234 . S
C133 O138 1.167 . S
C133 O139 1.299 . S
O134 Zn128 2.114 . S
O134 C129 1.166 . S
O135 Zn127 1.905 . S
O135 C129 1.182 . S
O136 Zn127 1.898 . S
O136 C130 1.167 . S
O137 Zn128 2.120 . S
O137 C130 1.299 . S
O138 Zn126 1.898 . S
O138 C133 1.167 . S
O139 Zn128 2.120 . S
O139 C133 1.299 . S
O140 Zn128 2.114 . S
O140 C142 1.166 . S
O141 Zn126 1.905 . S
O141 C142 1.182 . S
C142 O140 1.166 . S
C142 O141 1.182 . S
O143 Zn128 2.080 . S
O143 C146 1.305 . S
O144 Zn127 1.920 . S
O144 C146 1.234 . S
C145 O131 1.305 . S
C145 O132 1.234 . S
C146 O143 1.305 . S
C146 O144 1.234 . S
Zn147 O153 1.920 . S
Zn147 O159 1.898 . S
Zn147 O162 1.905 . S
Zn148 O156 1.905 . S
Zn148 O157 1.898 . S
Zn148 O165 1.920 . S
Zn149 O152 2.080 . S
Zn149 O155 2.114 1_455 S
Zn149 O158 2.120 1_455 S
Zn149 O160 2.120 . S
Zn149 O161 2.114 . S
Zn149 O164 2.080 1_455 S
C150 O155 1.166 . S
C150 O156 1.182 . S
C151 O157 1.167 . S
C151 O158 1.299 . S
O152 Zn149 2.080 . S
O152 C166 1.305 . S
O153 Zn147 1.920 . S
O153 C166 1.234 . S
C154 O159 1.167 . S
C154 O160 1.299 . S
O155 Zn149 2.114 1_655 S
O155 C150 1.166 . S
O156 Zn148 1.905 . S
O156 C150 1.182 . S
O157 Zn148 1.898 . S
O157 C151 1.167 . S
O158 Zn149 2.120 1_655 S
O158 C151 1.299 . S
O159 Zn147 1.898 . S
O159 C154 1.167 . S
O160 Zn149 2.120 . S
O160 C154 1.299 . S
O161 Zn149 2.114 . S
O161 C163 1.166 . S
O162 Zn147 1.905 . S
O162 C163 1.182 . S
C163 O161 1.166 . S
C163 O162 1.182 . S
O164 Zn149 2.080 1_655 S
O164 C167 1.305 . S
O165 Zn148 1.920 . S
O165 C167 1.234 . S
C166 O152 1.305 . S
C166 O153 1.234 . S
C167 O164 1.305 . S
C167 O165 1.234 . S
H168 C180 0.930 . S
H169 C182 0.930 . S
H170 C183 0.930 . S
H171 C187 0.959 . S
H172 C187 0.959 . S
H173 C187 0.961 . S
H174 C188 0.960 . S
H175 C188 0.961 . S
H176 C188 0.959 . S
H177 C191 0.929 1_554 S
H178 C192 0.931 . S
H179 C194 0.930 . S
C180 H168 0.930 . S
C180 C181 1.399 . S
C180 C185 1.399 . S
C181 C180 1.399 . S
C181 C182 1.376 . S
C182 H169 0.930 . S
C182 C181 1.376 . S
C182 C183 1.388 . S
C183 H170 0.930 . S
C183 C182 1.388 . S
C183 C184 1.390 . S
C184 C183 1.390 . S
C184 C185 1.394 . S
C184 C190 1.465 1_554 S
C185 C180 1.399 . S
C185 C184 1.394 . S
C185 C186 1.516 1_554 S
C186 C185 1.516 1_556 S
C186 C187 1.502 . S
C186 C188 1.561 1_455 S
C186 C189 1.526 . S
C187 H171 0.959 . S
C187 H172 0.959 . S
C187 H173 0.961 . S
C187 C186 1.502 . S
C188 H174 0.960 . S
C188 H175 0.961 . S
C188 H176 0.959 . S
C188 C186 1.561 1_655 S
C189 C186 1.526 . S
C189 C190 1.396 . S
C189 C194 1.390 . S
C190 C184 1.465 1_556 S
C190 C189 1.396 . S
C190 C191 1.399 . S
C191 H177 0.929 1_556 S
C191 C190 1.399 . S
C191 C192 1.385 . S
C192 H178 0.931 . S
C192 C191 1.385 . S
C192 C193 1.389 . S
C193 C192 1.389 . S
C193 C194 1.387 . S
C194 H179 0.930 . S
C194 C189 1.390 . S
C194 C193 1.387 . S
H195 C207 0.930 . S
H196 C209 0.930 . S
H197 C210 0.930 . S
H198 C214 0.959 . S
H199 C214 0.959 . S
H200 C214 0.961 . S
H201 C215 0.960 . S
H202 C215 0.961 . S
H203 C215 0.959 . S
H204 C218 0.929 . S
H205 C219 0.931 . S
H206 C221 0.930 . S
C207 H195 0.930 . S
C207 C208 1.399 . S
C207 C212 1.399 . S
C208 C207 1.399 . S
C208 C209 1.376 . S
C209 H196 0.930 . S
C209 C208 1.376 . S
C209 C210 1.388 . S
C210 H197 0.930 . S
C210 C209 1.388 . S
C210 C211 1.390 . S
C211 C210 1.390 . S
C211 C212 1.394 . S
C211 C217 1.465 . S
C212 C207 1.399 . S
C212 C211 1.394 . S
C212 C213 1.516 . S
C213 C212 1.516 . S
C213 C214 1.502 . S
C213 C215 1.561 . S
C213 C216 1.526 . S
C214 H198 0.959 . S
C214 H199 0.959 . S
C214 H200 0.961 . S
C214 C213 1.502 . S
C215 H201 0.960 . S
C215 H202 0.961 . S
C215 H203 0.959 . S
C215 C213 1.561 . S
C216 C213 1.526 . S
C216 C217 1.396 . S
C216 C221 1.390 . S
C217 C211 1.465 . S
C217 C216 1.396 . S
C217 C218 1.399 . S
C218 H204 0.929 . S
C218 C217 1.399 . S
C218 C219 1.385 . S
C219 H205 0.931 . S
C219 C218 1.385 . S
C219 C220 1.389 . S
C220 C219 1.389 . S
C220 C221 1.387 . S
C221 H206 0.930 . S
C221 C216 1.390 . S
C221 C220 1.387 . S
H222 C234 0.930 . S
H223 C236 0.930 . S
H224 C237 0.930 . S
H225 C241 0.959 . S
H226 C241 0.959 . S
H227 C241 0.961 . S
H228 C242 0.960 . S
H229 C242 0.961 . S
H230 C242 0.959 . S
H231 C245 0.929 . S
H232 C246 0.931 . S
H233 C248 0.930 . S
C234 H222 0.930 . S
C234 C235 1.399 . S
C234 C239 1.399 . S
C235 C234 1.399 . S
C235 C236 1.376 . S
C236 H223 0.930 . S
C236 C235 1.376 . S
C236 C237 1.388 . S
C237 H224 0.930 . S
C237 C236 1.388 . S
C237 C238 1.390 . S
C238 C237 1.390 . S
C238 C239 1.394 . S
C238 C244 1.465 . S
C239 C234 1.399 . S
C239 C238 1.394 . S
C239 C240 1.516 . S
C240 C239 1.516 . S
C240 C241 1.502 . S
C240 C242 1.561 . S
C240 C243 1.526 . S
C241 H225 0.959 . S
C241 H226 0.959 . S
C241 H227 0.961 . S
C241 C240 1.502 . S
C242 H228 0.960 . S
C242 H229 0.961 . S
C242 H230 0.959 . S
C242 C240 1.561 . S
C243 C240 1.526 . S
C243 C244 1.396 . S
C243 C248 1.390 . S
C244 C238 1.465 . S
C244 C243 1.396 . S
C244 C245 1.399 . S
C245 H231 0.929 . S
C245 C244 1.399 . S
C245 C246 1.385 . S
C246 H232 0.931 . S
C246 C245 1.385 . S
C246 C247 1.389 . S
C247 C246 1.389 . S
C247 C248 1.387 . S
C248 H233 0.930 . S
C248 C243 1.390 . S
C248 C247 1.387 . S
H249 C261 0.930 . S
H250 C263 0.930 . S
H251 C264 0.930 . S
H252 C268 0.959 . S
H253 C268 0.959 . S
H254 C268 0.961 . S
H255 C269 0.960 . S
H256 C269 0.961 . S
H257 C269 0.959 . S
H258 C272 0.929 . S
H259 C273 0.931 . S
H260 C275 0.930 . S
C261 H249 0.930 . S
C261 C262 1.399 . S
C261 C266 1.399 . S
C262 C261 1.399 . S
C262 C263 1.376 . S
C263 H250 0.930 . S
C263 C262 1.376 . S
C263 C264 1.388 . S
C264 H251 0.930 . S
C264 C263 1.388 . S
C264 C265 1.390 . S
C265 C264 1.390 . S
C265 C266 1.394 . S
C265 C271 1.465 . S
C266 C261 1.399 . S
C266 C265 1.394 . S
C266 C267 1.516 . S
C267 C266 1.516 . S
C267 C268 1.502 . S
C267 C269 1.561 . S
C267 C270 1.526 . S
C268 H252 0.959 . S
C268 H253 0.959 . S
C268 H254 0.961 . S
C268 C267 1.502 . S
C269 H255 0.960 . S
C269 H256 0.961 . S
C269 H257 0.959 . S
C269 C267 1.561 . S
C270 C267 1.526 . S
C270 C271 1.396 . S
C270 C275 1.390 . S
C271 C265 1.465 . S
C271 C270 1.396 . S
C271 C272 1.399 . S
C272 H258 0.929 . S
C272 C271 1.399 . S
C272 C273 1.385 . S
C273 H259 0.931 . S
C273 C272 1.385 . S
C273 C274 1.389 . S
C274 C273 1.389 . S
C274 C275 1.387 . S
C275 H260 0.930 . S
C275 C270 1.390 . S
C275 C274 1.387 . S
H276 C288 0.930 . S
H277 C290 0.930 . S
H278 C291 0.930 . S
H279 C295 0.959 . S
H280 C295 0.959 . S
H281 C295 0.961 . S
H282 C296 0.960 . S
H283 C296 0.961 . S
H284 C296 0.959 . S
H285 C299 0.929 . S
H286 C300 0.931 . S
H287 C302 0.930 . S
C288 H276 0.930 . S
C288 C289 1.399 . S
C288 C293 1.399 . S
C289 C288 1.399 . S
C289 C290 1.376 . S
C290 H277 0.930 . S
C290 C289 1.376 . S
C290 C291 1.388 . S
C291 H278 0.930 . S
C291 C290 1.388 . S
C291 C292 1.390 . S
C292 C291 1.390 . S
C292 C293 1.394 . S
C292 C298 1.465 . S
C293 C288 1.399 . S
C293 C292 1.394 . S
C293 C294 1.516 . S
C294 C293 1.516 . S
C294 C295 1.502 . S
C294 C296 1.561 . S
C294 C297 1.526 . S
C295 H279 0.959 . S
C295 H280 0.959 . S
C295 H281 0.961 . S
C295 C294 1.502 . S
C296 H282 0.960 . S
C296 H283 0.961 . S
C296 H284 0.959 . S
C296 C294 1.561 . S
C297 C294 1.526 . S
C297 C298 1.396 . S
C297 C302 1.390 . S
C298 C292 1.465 . S
C298 C297 1.396 . S
C298 C299 1.399 . S
C299 H285 0.929 . S
C299 C298 1.399 . S
C299 C300 1.385 . S
C300 H286 0.931 . S
C300 C299 1.385 . S
C300 C301 1.389 . S
C301 C300 1.389 . S
C301 C302 1.387 . S
C302 H287 0.930 . S
C302 C297 1.390 . S
C302 C301 1.387 . S
H303 C315 0.930 . S
H304 C317 0.930 . S
H305 C318 0.930 . S
H306 C322 0.959 . S
H307 C322 0.959 . S
H308 C322 0.961 . S
H309 C323 0.960 . S
H310 C323 0.961 . S
H311 C323 0.959 . S
H312 C326 0.929 . S
H313 C327 0.931 . S
H314 C329 0.930 . S
C315 H303 0.930 . S
C315 C316 1.399 . S
C315 C320 1.399 . S
C316 C315 1.399 . S
C316 C317 1.376 . S
C317 H304 0.930 . S
C317 C316 1.376 . S
C317 C318 1.388 . S
C318 H305 0.930 . S
C318 C317 1.388 . S
C318 C319 1.390 . S
C319 C318 1.390 . S
C319 C320 1.394 . S
C319 C325 1.465 . S
C320 C315 1.399 . S
C320 C319 1.394 . S
C320 C321 1.516 . S
C321 C320 1.516 . S
C321 C322 1.502 . S
C321 C323 1.561 . S
C321 C324 1.526 . S
C322 H306 0.959 . S
C322 H307 0.959 . S
C322 H308 0.961 . S
C322 C321 1.502 . S
C323 H309 0.960 . S
C323 H310 0.961 . S
C323 H311 0.959 . S
C323 C321 1.561 . S
C324 C321 1.526 . S
C324 C325 1.396 . S
C324 C329 1.390 . S
C325 C319 1.465 . S
C325 C324 1.396 . S
C325 C326 1.399 . S
C326 H312 0.929 . S
C326 C325 1.399 . S
C326 C327 1.385 . S
C327 H313 0.931 . S
C327 C326 1.385 . S
C327 C328 1.389 . S
C328 C327 1.389 . S
C328 C329 1.387 . S
C329 H314 0.930 . S
C329 C324 1.390 . S
C329 C328 1.387 . S
H330 C342 0.930 . S
H331 C344 0.930 . S
H332 C345 0.930 . S
H333 C349 0.959 . S
H334 C349 0.959 . S
H335 C349 0.961 . S
H336 C350 0.960 . S
H337 C350 0.961 . S
H338 C350 0.959 . S
H339 C353 0.929 . S
H340 C354 0.931 . S
H341 C356 0.930 . S
C342 H330 0.930 . S
C342 C343 1.399 . S
C342 C347 1.399 . S
C343 C342 1.399 . S
C343 C344 1.376 . S
C344 H331 0.930 . S
C344 C343 1.376 . S
C344 C345 1.388 . S
C345 H332 0.930 . S
C345 C344 1.388 . S
C345 C346 1.390 . S
C346 C345 1.390 . S
C346 C347 1.394 . S
C346 C352 1.461 1_545 S
C347 C342 1.399 . S
C347 C346 1.394 . S
C347 C348 1.516 1_545 S
C348 C347 1.516 1_565 S
C348 C349 1.502 . S
C348 C350 1.561 . S
C348 C351 1.526 . S
C349 H333 0.959 . S
C349 H334 0.959 . S
C349 H335 0.961 . S
C349 C348 1.502 . S
C350 H336 0.960 . S
C350 H337 0.961 . S
C350 H338 0.959 . S
C350 C348 1.561 . S
C351 C348 1.526 . S
C351 C352 1.402 . S
C351 C356 1.390 . S
C352 C346 1.461 1_565 S
C352 C351 1.402 . S
C352 C353 1.398 1_565 S
C353 H339 0.929 . S
C353 C352 1.398 1_545 S
C353 C354 1.385 1_545 S
C354 H340 0.931 . S
C354 C353 1.385 1_565 S
C354 C355 1.389 . S
C355 C354 1.389 . S
C355 C356 1.387 . S
C356 H341 0.930 . S
C356 C351 1.390 . S
C356 C355 1.387 . S
H357 C369 0.930 . S
H358 C371 0.930 . S
H359 C372 0.930 . S
H360 C376 0.959 . S
H361 C376 0.959 . S
H362 C376 0.961 . S
H363 C377 0.960 . S
H364 C377 0.961 . S
H365 C377 0.959 . S
H366 C380 0.929 1_554 S
H367 C381 0.931 . S
H368 C383 0.930 . S
C369 H357 0.930 . S
C369 C370 1.399 . S
C369 C374 1.399 . S
C370 C369 1.399 . S
C370 C371 1.376 . S
C371 H358 0.930 . S
C371 C370 1.376 . S
C371 C372 1.388 1_545 S
C372 H359 0.930 . S
C372 C371 1.388 1_565 S
C372 C373 1.390 . S
C373 C372 1.390 . S
C373 C374 1.394 1_565 S
C373 C379 1.465 1_554 S
C374 C369 1.399 . S
C374 C373 1.394 1_545 S
C374 C375 1.516 1_554 S
C375 C374 1.516 1_556 S
C375 C376 1.502 . S
C375 C377 1.561 1_655 S
C375 C378 1.526 1_545 S
C376 H360 0.959 . S
C376 H361 0.959 . S
C376 H362 0.961 . S
C376 C375 1.502 . S
C377 H363 0.960 . S
C377 H364 0.961 . S
C377 H365 0.959 . S
C377 C375 1.561 1_455 S
C378 C375 1.526 1_565 S
C378 C379 1.396 . S
C378 C383 1.390 . S
C379 C373 1.465 1_556 S
C379 C378 1.396 . S
C379 C380 1.399 . S
C380 H366 0.929 1_556 S
C380 C379 1.399 . S
C380 C381 1.385 . S
C381 H367 0.931 . S
C381 C380 1.385 . S
C381 C382 1.389 . S
C382 C381 1.389 . S
C382 C383 1.387 . S
C383 H368 0.930 . S
C383 C378 1.390 . S
C383 C382 1.387 . S
H384 C396 0.930 . S
H385 C398 0.930 . S
H386 C399 0.930 . S
H387 C403 0.959 . S
H388 C403 0.959 . S
H389 C403 0.961 . S
H390 C404 0.960 . S
H391 C404 0.961 . S
H392 C404 0.959 . S
H393 C407 0.929 1_565 S
H394 C408 0.931 . S
H395 C410 0.930 . S
C396 H384 0.930 . S
C396 C397 1.399 . S
C396 C401 1.399 1_565 S
C397 C396 1.399 . S
C397 C398 1.376 . S
C398 H385 0.930 . S
C398 C397 1.376 . S
C398 C399 1.388 . S
C399 H386 0.930 . S
C399 C398 1.388 . S
C399 C400 1.390 . S
C400 C399 1.390 . S
C400 C401 1.394 1_565 S
C400 C406 1.465 1_565 S
C401 C396 1.399 1_545 S
C401 C400 1.394 1_545 S
C401 C402 1.516 . S
C402 C401 1.516 . S
C402 C403 1.502 . S
C402 C404 1.561 . S
C402 C405 1.526 . S
C403 H387 0.959 . S
C403 H388 0.959 . S
C403 H389 0.961 . S
C403 C402 1.502 . S
C404 H390 0.960 . S
C404 H391 0.961 . S
C404 H392 0.959 . S
C404 C402 1.561 . S
C405 C402 1.526 . S
C405 C406 1.396 . S
C405 C410 1.390 . S
C406 C400 1.465 1_545 S
C406 C405 1.396 . S
C406 C407 1.399 . S
C407 H393 0.929 1_545 S
C407 C406 1.399 . S
C407 C408 1.385 . S
C408 H394 0.931 . S
C408 C407 1.385 . S
C408 C409 1.389 . S
C409 C408 1.389 . S
C409 C410 1.387 . S
C410 H395 0.930 . S
C410 C405 1.390 . S
C410 C409 1.387 . S
H411 C423 0.930 . S
H412 C425 0.930 . S
H413 C426 0.930 . S
H414 C430 0.959 . S
H415 C430 0.959 . S
H416 C430 0.961 . S
H417 C431 0.960 . S
H418 C431 0.961 . S
H419 C431 0.959 . S
H420 C434 0.929 . S
H421 C435 0.931 . S
H422 C437 0.930 . S
C423 H411 0.930 . S
C423 C424 1.399 . S
C423 C428 1.399 . S
C424 C423 1.399 . S
C424 C425 1.376 . S
C425 H412 0.930 . S
C425 C424 1.376 . S
C425 C426 1.388 1_565 S
C426 H413 0.930 . S
C426 C425 1.388 1_545 S
C426 C427 1.390 . S
C427 C426 1.390 . S
C427 C428 1.394 1_545 S
C427 C433 1.465 . S
C428 C423 1.399 . S
C428 C427 1.394 1_565 S
C428 C429 1.516 . S
C429 C428 1.516 . S
C429 C430 1.502 . S
C429 C431 1.561 1_565 S
C429 C432 1.526 1_565 S
C430 H414 0.959 . S
C430 H415 0.959 . S
C430 H416 0.961 . S
C430 C429 1.502 . S
C431 H417 0.960 . S
C431 H418 0.961 . S
C431 H419 0.959 . S
C431 C429 1.561 1_545 S
C432 C429 1.526 1_545 S
C432 C433 1.396 . S
C432 C437 1.390 . S
C433 C427 1.465 . S
C433 C432 1.396 . S
C433 C434 1.399 . S
C434 H420 0.929 . S
C434 C433 1.399 . S
C434 C435 1.385 . S
C435 H421 0.931 . S
C435 C434 1.385 . S
C435 C436 1.389 . S
C436 C435 1.389 . S
C436 C437 1.387 . S
C437 H422 0.930 . S
C437 C432 1.390 . S
C437 C436 1.387 . S
H438 C450 0.930 1_565 S
H439 C452 0.930 . S
H440 C453 0.930 . S
H441 C457 0.959 . S
H442 C457 0.959 . S
H443 C457 0.961 . S
H444 C458 0.960 . S
H445 C458 0.961 . S
H446 C458 0.959 . S
H447 C461 0.929 1_545 S
H448 C462 0.931 . S
H449 C464 0.930 . S
C450 H438 0.930 1_545 S
C450 C451 1.399 . S
C450 C455 1.399 1_545 S
C451 C450 1.399 . S
C451 C452 1.376 . S
C452 H439 0.930 . S
C452 C451 1.376 . S
C452 C453 1.388 . S
C453 H440 0.930 . S
C453 C452 1.388 . S
C453 C454 1.390 . S
C454 C453 1.390 . S
C454 C455 1.394 1_545 S
C454 C460 1.465 1_545 S
C455 C450 1.399 1_565 S
C455 C454 1.394 1_565 S
C455 C456 1.516 . S
C456 C455 1.516 . S
C456 C457 1.502 . S
C456 C458 1.561 . S
C456 C459 1.526 . S
C457 H441 0.959 . S
C457 H442 0.959 . S
C457 H443 0.961 . S
C457 C456 1.502 . S
C458 H444 0.960 . S
C458 H445 0.961 . S
C458 H446 0.959 . S
C458 C456 1.561 . S
C459 C456 1.526 . S
C459 C460 1.396 . S
C459 C464 1.390 . S
C460 C454 1.465 1_565 S
C460 C459 1.396 . S
C460 C461 1.399 . S
C461 H447 0.929 1_565 S
C461 C460 1.399 . S
C461 C462 1.385 . S
C462 H448 0.931 . S
C462 C461 1.385 . S
C462 C463 1.389 . S
C463 C462 1.389 . S
C463 C464 1.387 . S
C464 H449 0.930 . S
C464 C459 1.390 . S
C464 C463 1.387 . S
H465 C477 0.930 . S
H466 C479 0.930 . S
H467 C480 0.930 . S
H468 C484 0.959 . S
H469 C484 0.959 . S
H470 C484 0.961 . S
H471 C485 0.960 . S
H472 C485 0.961 . S
H473 C485 0.959 . S
H474 C488 0.929 . S
H475 C489 0.931 . S
H476 C491 0.930 . S
C477 H465 0.930 . S
C477 C478 1.399 . S
C477 C482 1.399 . S
C478 C477 1.399 . S
C478 C479 1.376 . S
C479 H466 0.930 . S
C479 C478 1.376 . S
C479 C480 1.388 . S
C480 H467 0.930 . S
C480 C479 1.388 . S
C480 C481 1.390 . S
C481 C480 1.390 . S
C481 C482 1.394 . S
C481 C487 1.460 1_565 S
C482 C477 1.399 . S
C482 C481 1.394 . S
C482 C483 1.516 . S
C483 C482 1.516 . S
C483 C484 1.502 . S
C483 C485 1.561 1_565 S
C483 C486 1.526 1_565 S
C484 H468 0.959 . S
C484 H469 0.959 . S
C484 H470 0.961 . S
C484 C483 1.502 . S
C485 H471 0.960 . S
C485 H472 0.961 . S
C485 H473 0.959 . S
C485 C483 1.561 1_545 S
C486 C483 1.526 1_545 S
C486 C487 1.398 . S
C486 C491 1.390 . S
C487 C481 1.460 1_545 S
C487 C486 1.398 . S
C487 C488 1.401 . S
C488 H474 0.929 . S
C488 C487 1.401 . S
C488 C489 1.385 . S
C489 H475 0.931 . S
C489 C488 1.385 . S
C489 C490 1.389 . S
C490 C489 1.389 . S
C490 C491 1.387 . S
C491 H476 0.930 . S
C491 C486 1.390 . S
C491 C490 1.387 . S
H492 C504 0.930 . S
H493 C506 0.930 . S
H494 C507 0.930 1_545 S
H495 C511 0.959 . S
H496 C511 0.959 . S
H497 C511 0.961 . S
H498 C512 0.960 . S
H499 C512 0.961 . S
H500 C512 0.959 . S
H501 C515 0.929 . S
H502 C516 0.931 . S
H503 C518 0.930 . S
C504 H492 0.930 . S
C504 C505 1.399 . S
C504 C509 1.399 . S
C505 C504 1.399 . S
C505 C506 1.376 . S
C506 H493 0.930 . S
C506 C505 1.376 . S
C506 C507 1.388 . S
C507 H494 0.930 1_565 S
C507 C506 1.388 . S
C507 C508 1.390 . S
C508 C507 1.390 . S
C508 C509 1.394 . S
C508 C514 1.465 1_565 S
C509 C504 1.399 . S
C509 C508 1.394 . S
C509 C510 1.516 . S
C510 C509 1.516 . S
C510 C511 1.502 . S
C510 C512 1.561 . S
C510 C513 1.526 1_565 S
C511 H495 0.959 . S
C511 H496 0.959 . S
C511 H497 0.961 . S
C511 C510 1.502 . S
C512 H498 0.960 . S
C512 H499 0.961 . S
C512 H500 0.959 . S
C512 C510 1.561 . S
C513 C510 1.526 1_545 S
C513 C514 1.396 . S
C513 C518 1.390 . S
C514 C508 1.465 1_545 S
C514 C513 1.396 . S
C514 C515 1.399 . S
C515 H501 0.929 . S
C515 C514 1.399 . S
C515 C516 1.385 . S
C516 H502 0.931 . S
C516 C515 1.385 . S
C516 C517 1.389 . S
C517 C516 1.389 . S
C517 C518 1.387 . S
C518 H503 0.930 . S
C518 C513 1.390 . S
C518 C517 1.387 . S
H519 C531 0.930 . S
H520 C533 0.930 . S
H521 C534 0.930 . S
H522 C538 0.959 . S
H523 C538 0.959 . S
H524 C538 0.961 . S
H525 C539 0.960 . S
H526 C539 0.961 . S
H527 C539 0.959 . S
H528 C542 0.929 . S
H529 C543 0.931 . S
H530 C545 0.930 . S
C531 H519 0.930 . S
C531 C532 1.399 . S
C531 C536 1.399 . S
C532 C531 1.399 . S
C532 C533 1.376 . S
C533 H520 0.930 . S
C533 C532 1.376 . S
C533 C534 1.388 1_545 S
C534 H521 0.930 . S
C534 C533 1.388 1_565 S
C534 C535 1.390 . S
C535 C534 1.390 . S
C535 C536 1.394 1_565 S
C535 C541 1.465 . S
C536 C531 1.399 . S
C536 C535 1.394 1_545 S
C536 C537 1.516 . S
C537 C536 1.516 . S
C537 C538 1.502 . S
C537 C539 1.561 . S
C537 C540 1.526 1_545 S
C538 H522 0.959 . S
C538 H523 0.959 . S
C538 H524 0.961 . S
C538 C537 1.502 . S
C539 H525 0.960 . S
C539 H526 0.961 . S
C539 H527 0.959 . S
C539 C537 1.561 . S
C540 C537 1.526 1_565 S
C540 C541 1.396 . S
C540 C545 1.390 . S
C541 C535 1.465 . S
C541 C540 1.396 . S
C541 C542 1.399 . S
C542 H528 0.929 . S
C542 C541 1.399 . S
C542 C543 1.385 . S
C543 H529 0.931 . S
C543 C542 1.385 . S
C543 C544 1.389 . S
C544 C543 1.389 . S
C544 C545 1.387 . S
C545 H530 0.930 . S
C545 C540 1.390 . S
C545 C544 1.387 . S
H546 C558 0.930 . S
H547 C560 0.930 . S
H548 C561 0.930 1_545 S
H549 C565 0.959 . S
H550 C565 0.959 . S
H551 C565 0.961 . S
H552 C566 0.960 . S
H553 C566 0.961 . S
H554 C566 0.959 1_545 S
H555 C569 0.929 . S
H556 C570 0.931 . S
H557 C572 0.930 . S
C558 H546 0.930 . S
C558 C559 1.399 . S
C558 C563 1.399 . S
C559 C558 1.399 . S
C559 C560 1.376 . S
C560 H547 0.930 . S
C560 C559 1.376 . S
C560 C561 1.388 . S
C561 H548 0.930 1_565 S
C561 C560 1.388 . S
C561 C562 1.390 . S
C562 C561 1.390 . S
C562 C563 1.394 . S
C562 C568 1.465 1_565 S
C563 C558 1.399 . S
C563 C562 1.394 . S
C563 C564 1.516 . S
C564 C563 1.516 . S
C564 C565 1.502 . S
C564 C566 1.561 . S
C564 C567 1.526 1_565 S
C565 H549 0.959 . S
C565 H550 0.959 . S
C565 H551 0.961 . S
C565 C564 1.502 . S
C566 H552 0.960 . S
C566 H553 0.961 . S
C566 H554 0.959 1_565 S
C566 C564 1.561 . S
C567 C564 1.526 1_545 S
C567 C568 1.396 . S
C567 C572 1.390 . S
C568 C562 1.465 1_545 S
C568 C567 1.396 . S
C568 C569 1.399 . S
C569 H555 0.929 . S
C569 C568 1.399 . S
C569 C570 1.385 . S
C570 H556 0.931 . S
C570 C569 1.385 . S
C570 C571 1.389 . S
C571 C570 1.389 . S
C571 C572 1.387 . S
C572 H557 0.930 . S
C572 C567 1.390 . S
C572 C571 1.387 . S
H573 C585 0.930 . S
H574 C587 0.930 . S
H575 C588 0.930 1_545 S
H576 C592 0.959 . S
H577 C592 0.959 . S
H578 C592 0.961 . S
H579 C593 0.960 . S
H580 C593 0.961 1_545 S
H581 C593 0.959 1_545 S
H582 C596 0.929 . S
H583 C597 0.931 . S
H584 C599 0.930 . S
C585 H573 0.930 . S
C585 C586 1.399 . S
C585 C590 1.399 . S
C586 C585 1.399 . S
C586 C587 1.376 . S
C587 H574 0.930 . S
C587 C586 1.376 . S
C587 C588 1.388 . S
C588 H575 0.930 1_565 S
C588 C587 1.388 . S
C588 C589 1.390 . S
C589 C588 1.390 . S
C589 C590 1.394 . S
C589 C595 1.465 1_565 S
C590 C585 1.399 . S
C590 C589 1.394 . S
C590 C591 1.516 . S
C591 C590 1.516 . S
C591 C592 1.502 . S
C591 C593 1.561 . S
C591 C594 1.526 1_565 S
C592 H576 0.959 . S
C592 H577 0.959 . S
C592 H578 0.961 . S
C592 C591 1.502 . S
C593 H579 0.960 . S
C593 H580 0.961 1_565 S
C593 H581 0.959 1_565 S
C593 C591 1.561 . S
C594 C591 1.526 1_545 S
C594 C595 1.396 . S
C594 C599 1.390 . S
C595 C589 1.465 1_545 S
C595 C594 1.396 . S
C595 C596 1.399 . S
C596 H582 0.929 . S
C596 C595 1.399 . S
C596 C597 1.385 . S
C597 H583 0.931 . S
C597 C596 1.385 . S
C597 C598 1.389 . S
C598 C597 1.389 . S
C598 C599 1.387 . S
C599 H584 0.930 . S
C599 C594 1.390 . S
C599 C598 1.387 . S
H600 C612 0.930 . S
H601 C614 0.930 . S
H602 C615 0.930 . S
H603 C619 0.959 . S
H604 C619 0.959 . S
H605 C619 0.961 . S
H606 C620 0.960 . S
H607 C620 0.961 . S
H608 C620 0.959 . S
H609 C623 0.929 . S
H610 C624 0.931 . S
H611 C626 0.930 . S
C612 H600 0.930 . S
C612 C613 1.399 . S
C612 C617 1.399 . S
C613 C612 1.399 . S
C613 C614 1.376 . S
C614 H601 0.930 . S
C614 C613 1.376 . S
C614 C615 1.388 . S
C615 H602 0.930 . S
C615 C614 1.388 . S
C615 C616 1.390 . S
C616 C615 1.390 . S
C616 C617 1.394 . S
C616 C622 1.465 . S
C617 C612 1.399 . S
C617 C616 1.394 . S
C617 C618 1.516 . S
C618 C617 1.516 . S
C618 C619 1.502 . S
C618 C620 1.561 . S
C618 C621 1.526 . S
C619 H603 0.959 . S
C619 H604 0.959 . S
C619 H605 0.961 . S
C619 C618 1.502 . S
C620 H606 0.960 . S
C620 H607 0.961 . S
C620 H608 0.959 . S
C620 C618 1.561 . S
C621 C618 1.526 . S
C621 C622 1.396 . S
C621 C626 1.390 . S
C622 C616 1.465 . S
C622 C621 1.396 . S
C622 C623 1.399 . S
C623 H609 0.929 . S
C623 C622 1.399 . S
C623 C624 1.385 . S
C624 H610 0.931 . S
C624 C623 1.385 . S
C624 C625 1.389 . S
C625 C624 1.389 . S
C625 C626 1.387 . S
C626 H611 0.930 . S
C626 C621 1.390 . S
C626 C625 1.387 . S
H627 C639 0.930 . S
H628 C641 0.930 . S
H629 C642 0.930 . S
H630 C646 0.959 . S
H631 C646 0.959 . S
H632 C646 0.961 . S
H633 C647 0.960 . S
H634 C647 0.961 . S
H635 C647 0.959 . S
H636 C650 0.929 . S
H637 C651 0.931 . S
H638 C653 0.930 . S
C639 H627 0.930 . S
C639 C640 1.399 . S
C639 C644 1.399 . S
C640 C639 1.399 . S
C640 C641 1.376 . S
C641 H628 0.930 . S
C641 C640 1.376 . S
C641 C642 1.388 . S
C642 H629 0.930 . S
C642 C641 1.388 . S
C642 C643 1.390 . S
C643 C642 1.390 . S
C643 C644 1.394 . S
C643 C649 1.465 . S
C644 C639 1.399 . S
C644 C643 1.394 . S
C644 C645 1.516 . S
C645 C644 1.516 . S
C645 C646 1.502 . S
C645 C647 1.561 . S
C645 C648 1.526 . S
C646 H630 0.959 . S
C646 H631 0.959 . S
C646 H632 0.961 . S
C646 C645 1.502 . S
C647 H633 0.960 . S
C647 H634 0.961 . S
C647 H635 0.959 . S
C647 C645 1.561 . S
C648 C645 1.526 . S
C648 C649 1.396 . S
C648 C653 1.390 . S
C649 C643 1.465 . S
C649 C648 1.396 . S
C649 C650 1.399 . S
C650 H636 0.929 . S
C650 C649 1.399 . S
C650 C651 1.385 . S
C651 H637 0.931 . S
C651 C650 1.385 . S
C651 C652 1.389 . S
C652 C651 1.389 . S
C652 C653 1.387 . S
C653 H638 0.930 . S
C653 C648 1.390 . S
C653 C652 1.387 . S
H654 C666 0.930 . S
H655 C668 0.930 . S
H656 C669 0.930 . S
H657 C673 0.959 . S
H658 C673 0.959 . S
H659 C673 0.961 . S
H660 C674 0.960 . S
H661 C674 0.961 . S
H662 C674 0.959 . S
H663 C677 0.929 . S
H664 C678 0.931 . S
H665 C680 0.930 . S
C666 H654 0.930 . S
C666 C667 1.399 . S
C666 C671 1.399 . S
C667 C666 1.399 . S
C667 C668 1.376 . S
C668 H655 0.930 . S
C668 C667 1.376 . S
C668 C669 1.388 . S
C669 H656 0.930 . S
C669 C668 1.388 . S
C669 C670 1.390 . S
C670 C669 1.390 . S
C670 C671 1.394 . S
C670 C676 1.465 . S
C671 C666 1.399 . S
C671 C670 1.394 . S
C671 C672 1.516 . S
C672 C671 1.516 . S
C672 C673 1.502 . S
C672 C674 1.561 . S
C672 C675 1.526 . S
C673 H657 0.959 . S
C673 H658 0.959 . S
C673 H659 0.961 . S
C673 C672 1.502 . S
C674 H660 0.960 . S
C674 H661 0.961 . S
C674 H662 0.959 . S
C674 C672 1.561 . S
C675 C672 1.526 . S
C675 C676 1.396 . S
C675 C680 1.390 . S
C676 C670 1.465 . S
C676 C675 1.396 . S
C676 C677 1.399 . S
C677 H663 0.929 . S
C677 C676 1.399 . S
C677 C678 1.385 . S
C678 H664 0.931 . S
C678 C677 1.385 . S
C678 C679 1.389 . S
C679 C678 1.389 . S
C679 C680 1.387 . S
C680 H665 0.930 . S
C680 C675 1.390 . S
C680 C679 1.387 . S
H681 C693 0.930 . S
H682 C695 0.930 . S
H683 C696 0.930 . S
H684 C700 0.959 . S
H685 C700 0.959 . S
H686 C700 0.961 . S
H687 C701 0.960 . S
H688 C701 0.961 . S
H689 C701 0.959 . S
H690 C704 0.929 . S
H691 C705 0.931 . S
H692 C707 0.930 . S
C693 H681 0.930 . S
C693 C694 1.399 . S
C693 C698 1.399 . S
C694 C693 1.399 . S
C694 C695 1.376 . S
C695 H682 0.930 . S
C695 C694 1.376 . S
C695 C696 1.388 . S
C696 H683 0.930 . S
C696 C695 1.388 . S
C696 C697 1.390 . S
C697 C696 1.390 . S
C697 C698 1.394 . S
C697 C703 1.465 . S
C698 C693 1.399 . S
C698 C697 1.394 . S
C698 C699 1.516 . S
C699 C698 1.516 . S
C699 C700 1.502 . S
C699 C701 1.561 . S
C699 C702 1.526 . S
C700 H684 0.959 . S
C700 H685 0.959 . S
C700 H686 0.961 . S
C700 C699 1.502 . S
C701 H687 0.960 . S
C701 H688 0.961 . S
C701 H689 0.959 . S
C701 C699 1.561 . S
C702 C699 1.526 . S
C702 C703 1.396 . S
C702 C707 1.390 . S
C703 C697 1.465 . S
C703 C702 1.396 . S
C703 C704 1.399 . S
C704 H690 0.929 . S
C704 C703 1.399 . S
C704 C705 1.385 . S
C705 H691 0.931 . S
C705 C704 1.385 . S
C705 C706 1.389 . S
C706 C705 1.389 . S
C706 C707 1.387 . S
C707 H692 0.930 . S
C707 C702 1.390 . S
C707 C706 1.387 . S
H708 C720 0.930 . S
H709 C722 0.930 . S
H710 C723 0.930 . S
H711 C727 0.959 . S
H712 C727 0.959 . S
H713 C727 0.961 . S
H714 C728 0.960 . S
H715 C728 0.961 . S
H716 C728 0.959 . S
H717 C731 0.929 . S
H718 C732 0.931 . S
H719 C734 0.930 . S
C720 H708 0.930 . S
C720 C721 1.399 . S
C720 C725 1.399 . S
C721 C720 1.399 . S
C721 C722 1.376 . S
C722 H709 0.930 . S
C722 C721 1.376 . S
C722 C723 1.388 . S
C723 H710 0.930 . S
C723 C722 1.388 . S
C723 C724 1.390 . S
C724 C723 1.390 . S
C724 C725 1.394 . S
C724 C730 1.465 . S
C725 C720 1.399 . S
C725 C724 1.394 . S
C725 C726 1.516 . S
C726 C725 1.516 . S
C726 C727 1.502 . S
C726 C728 1.561 . S
C726 C729 1.526 . S
C727 H711 0.959 . S
C727 H712 0.959 . S
C727 H713 0.961 . S
C727 C726 1.502 . S
C728 H714 0.960 . S
C728 H715 0.961 . S
C728 H716 0.959 . S
C728 C726 1.561 . S
C729 C726 1.526 . S
C729 C730 1.396 . S
C729 C734 1.390 . S
C730 C724 1.465 . S
C730 C729 1.396 . S
C730 C731 1.399 . S
C731 H717 0.929 . S
C731 C730 1.399 . S
C731 C732 1.385 . S
C732 H718 0.931 . S
C732 C731 1.385 . S
C732 C733 1.389 . S
C733 C732 1.389 . S
C733 C734 1.387 . S
C734 H719 0.930 . S
C734 C729 1.390 . S
C734 C733 1.387 . S
H735 C747 0.930 . S
H736 C749 0.930 . S
H737 C750 0.930 . S
H738 C754 0.959 . S
H739 C754 0.959 . S
H740 C754 0.961 . S
H741 C755 0.960 . S
H742 C755 0.961 . S
H743 C755 0.959 . S
H744 C758 0.929 . S
H745 C759 0.931 . S
H746 C761 0.930 . S
C747 H735 0.930 . S
C747 C748 1.399 . S
C747 C752 1.399 . S
C748 C747 1.399 . S
C748 C749 1.376 . S
C749 H736 0.930 . S
C749 C748 1.376 . S
C749 C750 1.388 . S
C750 H737 0.930 . S
C750 C749 1.388 . S
C750 C751 1.390 . S
C751 C750 1.390 . S
C751 C752 1.394 . S
C751 C757 1.465 . S
C752 C747 1.399 . S
C752 C751 1.394 . S
C752 C753 1.516 . S
C753 C752 1.516 . S
C753 C754 1.502 . S
C753 C755 1.561 . S
C753 C756 1.526 . S
C754 H738 0.959 . S
C754 H739 0.959 . S
C754 H740 0.961 . S
C754 C753 1.502 . S
C755 H741 0.960 . S
C755 H742 0.961 . S
C755 H743 0.959 . S
C755 C753 1.561 . S
C756 C753 1.526 . S
C756 C757 1.396 . S
C756 C761 1.390 . S
C757 C751 1.465 . S
C757 C756 1.396 . S
C757 C758 1.399 . S
C758 H744 0.929 . S
C758 C757 1.399 . S
C758 C759 1.385 . S
C759 H745 0.931 . S
C759 C758 1.385 . S
C759 C760 1.389 . S
C760 C759 1.389 . S
C760 C761 1.387 . S
C761 H746 0.930 . S
C761 C756 1.390 . S
C761 C760 1.387 . S
H762 C774 0.930 . S
H763 C776 0.930 . S
H764 C777 0.930 . S
H765 C781 0.959 . S
H766 C781 0.959 . S
H767 C781 0.961 . S
H768 C782 0.960 . S
H769 C782 0.961 . S
H770 C782 0.959 . S
H771 C785 0.929 . S
H772 C786 0.931 . S
H773 C788 0.930 . S
C774 H762 0.930 . S
C774 C775 1.399 . S
C774 C779 1.399 . S
C775 C774 1.399 . S
C775 C776 1.376 . S
C776 H763 0.930 . S
C776 C775 1.376 . S
C776 C777 1.388 . S
C777 H764 0.930 . S
C777 C776 1.388 . S
C777 C778 1.390 . S
C778 C777 1.390 . S
C778 C779 1.394 . S
C778 C784 1.465 . S
C779 C774 1.399 . S
C779 C778 1.394 . S
C779 C780 1.516 . S
C780 C779 1.516 . S
C780 C781 1.502 . S
C780 C782 1.561 . S
C780 C783 1.526 . S
C781 H765 0.959 . S
C781 H766 0.959 . S
C781 H767 0.961 . S
C781 C780 1.502 . S
C782 H768 0.960 . S
C782 H769 0.961 . S
C782 H770 0.959 . S
C782 C780 1.561 . S
C783 C780 1.526 . S
C783 C784 1.396 . S
C783 C788 1.390 . S
C784 C778 1.465 . S
C784 C783 1.396 . S
C784 C785 1.399 . S
C785 H771 0.929 . S
C785 C784 1.399 . S
C785 C786 1.385 . S
C786 H772 0.931 . S
C786 C785 1.385 . S
C786 C787 1.389 . S
C787 C786 1.389 . S
C787 C788 1.387 . S
C788 H773 0.930 . S
C788 C783 1.390 . S
C788 C787 1.387 . S
H789 C801 0.930 . S
H790 C803 0.930 . S
H791 C804 0.930 . S
H792 C808 0.959 . S
H793 C808 0.959 . S
H794 C808 0.961 . S
H795 C809 0.960 . S
H796 C809 0.961 . S
H797 C809 0.959 . S
H798 C812 0.929 . S
H799 C813 0.931 . S
H800 C815 0.930 . S
C801 H789 0.930 . S
C801 C802 1.399 . S
C801 C806 1.399 . S
C802 C801 1.399 . S
C802 C803 1.376 . S
C803 H790 0.930 . S
C803 C802 1.376 . S
C803 C804 1.388 . S
C804 H791 0.930 . S
C804 C803 1.388 . S
C804 C805 1.390 . S
C805 C804 1.390 . S
C805 C806 1.394 . S
C805 C811 1.465 . S
C806 C801 1.399 . S
C806 C805 1.394 . S
C806 C807 1.516 . S
C807 C806 1.516 . S
C807 C808 1.502 . S
C807 C809 1.561 . S
C807 C810 1.526 . S
C808 H792 0.959 . S
C808 H793 0.959 . S
C808 H794 0.961 . S
C808 C807 1.502 . S
C809 H795 0.960 . S
C809 H796 0.961 . S
C809 H797 0.959 . S
C809 C807 1.561 . S
C810 C807 1.526 . S
C810 C811 1.396 . S
C810 C815 1.390 . S
C811 C805 1.465 . S
C811 C810 1.396 . S
C811 C812 1.399 . S
C812 H798 0.929 . S
C812 C811 1.399 . S
C812 C813 1.385 . S
C813 H799 0.931 . S
C813 C812 1.385 . S
C813 C814 1.389 . S
C814 C813 1.389 . S
C814 C815 1.387 . S
C815 H800 0.930 . S
C815 C810 1.390 . S
C815 C814 1.387 . S
C181 C19 1.362 . S
C193 C103 1.476 . S
C208 C124 1.436 . S
C220 C41 1.429 . S
C235 C61 1.469 . S
C247 C146 1.369 . S
C262 C82 1.396 . S
C274 C167 1.465 . S
C289 C83 1.455 . S
C301 C166 1.379 . S
C316 C125 1.414 . S
C328 C40 1.449 . S
C343 C145 1.478 . S
C355 C62 1.380 . S
C370 C20 1.360 . S
C382 C104 1.480 . S
C397 C109 1.224 . S
C409 C4 1.211 . S
C424 C28 1.286 . S
C436 C133 1.281 . S
C451 C154 1.199 . S
C463 C46 1.187 . S
C478 C88 1.235 . S
C490 C67 1.245 . S
C505 C87 1.108 . S
C517 C79 1.189 . S
C532 C150 1.208 . S
C544 C45 1.242 . S
C559 C24 1.183 . S
C571 C142 1.240 . S
C586 C121 1.175 . S
C598 C3 1.237 . S
C613 C151 1.232 . S
C625 C49 1.244 . S
C640 C91 1.159 . S
C652 C70 1.170 . S
C667 C112 1.270 . S
C679 C7 1.277 . S
C694 C25 1.242 . S
C706 C130 1.232 . S
C721 C129 1.129 . S
C733 C37 1.081 . S
C748 C16 1.230 . S
C760 C108 1.232 . S
C775 C100 1.096 . S
C787 C66 1.088 . S
C802 C163 1.105 . S
C814 C58 1.082 . S
