# Generated by pormake.
# Topology vby, (6)-cn, num edge types: 1
# Building blocks:
#     Node 0, Type 0, BuildingBlock: INOVEN_clean_sbu_0, # of connection points: 6
#     Node 1, Type 0, BuildingBlock: INOVEN_clean_sbu_0, # of connection points: 6
#     Node 2, Type 0, BuildingBlock: INOVEN_clean_sbu_0, # of connection points: 6
#     Node 3, Type 0, BuildingBlock: INOVEN_clean_sbu_0, # of connection points: 6
#     Node 4, Type 0, BuildingBlock: INOVEN_clean_sbu_0, # of connection points: 6
#     Node 5, Type 0, BuildingBlock: INOVEN_clean_sbu_0, # of connection points: 6
#     Node 6, Type 0, BuildingBlock: INOVEN_clean_sbu_0, # of connection points: 6
#     Node 7, Type 0, BuildingBlock: INOVEN_clean_sbu_0, # of connection points: 6
#     Edge 8, Type (0, 0), BuildingBlock: EZIPEK_clean_linker_0, # of connection points: 2
#     Edge 9, Type (0, 0), BuildingBlock: EZIPEK_clean_linker_0, # of connection points: 2
#     Edge 10, Type (0, 0), BuildingBlock: EZIPEK_clean_linker_0, # of connection points: 2
#     Edge 11, Type (0, 0), BuildingBlock: EZIPEK_clean_linker_0, # of connection points: 2
#     Edge 12, Type (0, 0), BuildingBlock: EZIPEK_clean_linker_0, # of connection points: 2
#     Edge 13, Type (0, 0), BuildingBlock: EZIPEK_clean_linker_0, # of connection points: 2
#     Edge 14, Type (0, 0), BuildingBlock: EZIPEK_clean_linker_0, # of connection points: 2
#     Edge 15, Type (0, 0), BuildingBlock: EZIPEK_clean_linker_0, # of connection points: 2
#     Edge 16, Type (0, 0), BuildingBlock: EZIPEK_clean_linker_0, # of connection points: 2
#     Edge 17, Type (0, 0), BuildingBlock: EZIPEK_clean_linker_0, # of connection points: 2
#     Edge 18, Type (0, 0), BuildingBlock: EZIPEK_clean_linker_0, # of connection points: 2
#     Edge 19, Type (0, 0), BuildingBlock: EZIPEK_clean_linker_0, # of connection points: 2
#     Edge 20, Type (0, 0), BuildingBlock: EZIPEK_clean_linker_0, # of connection points: 2
#     Edge 21, Type (0, 0), BuildingBlock: EZIPEK_clean_linker_0, # of connection points: 2
#     Edge 22, Type (0, 0), BuildingBlock: EZIPEK_clean_linker_0, # of connection points: 2
#     Edge 23, Type (0, 0), BuildingBlock: EZIPEK_clean_linker_0, # of connection points: 2
#     Edge 24, Type (0, 0), BuildingBlock: EZIPEK_clean_linker_0, # of connection points: 2
#     Edge 25, Type (0, 0), BuildingBlock: EZIPEK_clean_linker_0, # of connection points: 2
#     Edge 26, Type (0, 0), BuildingBlock: EZIPEK_clean_linker_0, # of connection points: 2
#     Edge 27, Type (0, 0), BuildingBlock: EZIPEK_clean_linker_0, # of connection points: 2
#     Edge 28, Type (0, 0), BuildingBlock: EZIPEK_clean_linker_0, # of connection points: 2
#     Edge 29, Type (0, 0), BuildingBlock: EZIPEK_clean_linker_0, # of connection points: 2
#     Edge 30, Type (0, 0), BuildingBlock: EZIPEK_clean_linker_0, # of connection points: 2
#     Edge 31, Type (0, 0), BuildingBlock: EZIPEK_clean_linker_0, # of connection points: 2
# Relax obj value: 0.204
# Max RMSD: 0.227
# Mean RMSD: 0.227
data_MOF--net-vby--node1-INOVEN_clean_sbu_0--edge1-EZIPEK_clean_linker_0
_symmetry_space_group_name_H-M    P1
_symmetry_Int_Tables_number       1
_symmetry_cell_setting            triclinic
loop_
_symmetry_equiv_pos_as_xyz
'x, y, z'
_cell_length_a     11.684422
_cell_length_b     88.102376
_cell_length_c     21.503721
_cell_angle_alpha  89.966863
_cell_angle_beta   83.353414
_cell_angle_gamma 89.469627
loop_
_atom_site_label
_atom_site_type_symbol
_atom_site_fract_x
_atom_site_fract_y
_atom_site_fract_z
_atom_type_partial_charge
Gd0 Gd 0.06823 0.40613 0.0223 0.0
Gd1 Gd 0.07626 0.37254 0.01149 0.0
C2 C 0.82433 0.39041 0.01998 0.0
C3 C 0.10333 0.43524 0.01206 0.0
C4 C 0.0702 0.45156 0.00839 0.0
C5 C 1.00062 0.45887 0.05759 0.0
C6 C 0.12408 0.46051 0.95947 0.0
C7 C 0.04656 0.48368 0.01095 0.0
C8 C 0.11235 0.47638 0.96069 0.0
C9 C 0.98868 0.47476 0.05871 0.0
C10 C 1.03642 0.3917 0.13475 0.0
C11 C 0.32022 0.3883 0.01335 0.0
C12 C 0.05341 0.34317 0.02298 0.0
C13 C 0.11444 0.3283 0.02608 0.0
C14 C 0.20798 0.3241 0.98193 0.0
C15 C 0.07016 0.31743 0.07021 0.0
C16 C 0.20709 0.29832 0.02421 0.0
C17 C 0.11594 0.30263 0.06935 0.0
C18 C 0.25383 0.30927 0.98108 0.0
C19 C 0.09838 0.38717 0.89834 0.0
O20 O 0.88037 0.40332 0.00887 0.0
O21 O 0.88125 0.37763 0.02979 0.0
O22 O 0.08111 0.42813 0.06532 0.0
O23 O 0.10407 0.42629 0.96344 0.0
O24 O 0.97977 0.40365 0.1201 0.0
O25 O 0.10919 0.38794 0.08879 0.0
O26 O 0.26499 0.37531 0.02211 0.0
O27 O 0.26274 0.4011 0.00557 0.0
O28 O 0.06409 0.35035 0.96954 0.0
O29 O 0.04913 0.3524 0.07085 0.0
O30 O 0.15805 0.37536 0.91174 0.0
O31 O 1.03026 0.3907 0.94625 0.0
H32 H 0.9589 0.45237 0.0964 0.0
H33 H 0.17964 0.45527 0.92149 0.0
H34 H 0.15773 0.48302 0.92337 0.0
H35 H 0.9374 0.48015 0.09792 0.0
H36 H 0.2438 0.33215 0.94705 0.0
H37 H 0.99752 0.32028 0.10434 0.0
H38 H 0.07846 0.29442 0.10309 0.0
H39 H 0.32417 0.30622 0.94585 0.0
Gd40 Gd 1.01455 0.6621 0.00916 0.0
Gd41 Gd 1.01629 0.62837 0.00796 0.0
C42 C 0.7701 0.64501 0.01748 0.0
C43 C 1.02781 0.69118 0.98699 0.0
C44 C 0.96775 0.70618 0.99678 0.0
C45 C 0.9398 0.71257 0.05674 0.0
C46 C 0.94717 0.71489 0.94427 0.0
C47 C 0.87566 0.73615 0.01089 0.0
C48 C 0.90162 0.72967 0.95121 0.0
C49 C 0.89398 0.72739 0.06367 0.0
C50 C 0.97539 0.64952 0.12652 0.0
C51 C 0.26422 0.64507 0.00847 0.0
C52 C 1.03118 0.59913 0.01618 0.0
C53 C 0.04066 0.58226 0.02029 0.0
C54 C 0.11066 0.57399 0.97419 0.0
C55 C 0.97339 0.57414 0.0675 0.0
C56 C 0.043 0.55 0.02112 0.0
C57 C 0.97455 0.55819 0.06787 0.0
C58 C 0.11192 0.55805 0.97466 0.0
C59 C 0.9894 0.6414 0.89424 0.0
O60 O 0.82816 0.65706 0.9952 0.0
O61 O 0.82621 0.63326 0.0382 0.0
O62 O 0.06803 0.68461 0.03464 0.0
O63 O 0.98706 0.68145 0.94936 0.0
O64 O 0.92264 0.66141 0.10784 0.0
O65 O 0.04673 0.6449 0.08184 0.0
O66 O 0.20627 0.63222 0.01737 0.0
O67 O 0.20943 0.65801 -0.00073 0.0
O68 O 0.08848 0.60691 0.9711 0.0
O69 O 0.9692 0.6074 0.05849 0.0
O70 O 0.93517 0.62967 0.91753 0.0
O71 O 0.05774 0.64562 0.93215 0.0
H72 H 0.95514 0.70626 0.09823 0.0
H73 H 0.96887 0.71037 0.8975 0.0
H74 H 0.88828 0.73616 0.90981 0.0
H75 H 0.87442 0.73213 0.1102 0.0
H76 H 0.16304 0.57983 0.93694 0.0
H77 H 0.91795 0.58011 0.10347 0.0
H78 H 0.92088 0.55221 0.10422 0.0
H79 H 0.1655 0.55198 0.93821 0.0
Gd80 Gd 0.03865 0.66268 0.50417 0.0
Gd81 Gd 0.04315 0.62715 0.50467 0.0
C82 C 0.28576 0.64486 0.50476 0.0
C83 C 0.05783 0.69201 0.50957 0.0
C84 C 0.11795 0.70664 0.51699 0.0
C85 C 0.14441 0.71581 0.4637 0.0
C86 C 0.13734 0.71251 0.57575 0.0
C87 C 0.20502 0.73646 0.52727 0.0
C88 C 0.18134 0.72725 0.58075 0.0
C89 C 0.18718 0.73049 0.46875 0.0
C90 C 1.01315 0.64895 0.39245 0.0
C91 C 0.79336 0.64572 0.51289 0.0
C92 C 0.05585 0.59877 0.47055 0.0
C93 C 1.03491 0.58254 0.4868 0.0
C94 C 0.05052 0.5766 0.54606 0.0
C95 C 1.01158 0.57246 0.43934 0.0
C96 C 1.02584 0.55075 0.50858 0.0
C97 C 1.00719 0.55676 0.45003 0.0
C98 C 0.04551 0.56084 0.5569 0.0
C99 C 1.01947 0.63749 0.62587 0.0
O100 O 0.22495 0.6574 0.52004 0.0
O101 O 0.23467 0.63245 0.48717 0.0
O102 O 0.0908 0.68386 0.45977 0.0
O103 O 1.01581 0.68386 0.55803 0.0
O104 O 0.96348 0.66135 0.41325 0.0
O105 O 0.08187 0.64463 0.43071 0.0
O106 O 0.85224 0.63291 0.49812 0.0
O107 O 0.8466 0.65835 0.52689 0.0
O108 O 0.13583 0.60575 0.49706 0.0
O109 O 0.96846 0.60762 0.4617 0.0
O110 O 1.02533 0.62328 0.61035 0.0
O111 O 1.02652 0.64518 0.57625 0.0
H112 H 0.12864 0.71178 0.41788 0.0
H113 H 0.11655 0.70585 0.61781 0.0
H114 H 0.19469 0.73159 0.62643 0.0
H115 H 0.20461 0.73733 0.42688 0.0
H116 H 0.06951 0.58408 0.58342 0.0
H117 H 1.00045 0.57671 0.3931 0.0
H118 H 0.99179 0.54925 0.41208 0.0
H119 H 0.05984 0.55649 0.6025 0.0
Gd120 Gd 1.02359 0.40604 0.5167 0.0
Gd121 Gd 1.02861 0.37239 0.52329 0.0
C122 C 0.27253 0.3886 0.51831 0.0
C123 C 1.03465 0.43536 0.52514 0.0
C124 C 0.04248 0.45225 0.52853 0.0
C125 C 0.09794 0.46051 0.47778 0.0
C126 C 0.98738 0.46038 0.58008 0.0
C127 C 0.03945 0.48453 0.5289 0.0
C128 C 0.986 0.47634 0.58028 0.0
C129 C 0.09647 0.47644 0.478 0.0
C130 C 1.01596 0.3922 0.40358 0.0
C131 C 0.77838 0.38965 0.52111 0.0
C132 C 1.01778 0.34295 0.51202 0.0
C133 C 0.95052 0.32868 0.5103 0.0
C134 C 0.87406 0.32391 0.56199 0.0
C135 C 0.97663 0.31855 0.45999 0.0
C136 C 0.85831 0.29891 0.5147 0.0
C137 C 0.93097 0.30385 0.4621 0.0
C138 C 0.82836 0.30918 0.56407 0.0
C139 C 0.0441 0.38618 0.63581 0.0
O140 O 0.21126 0.40115 0.53255 0.0
O141 O 0.22108 0.37602 0.50342 0.0
O142 O 0.08329 0.42766 0.47715 0.0
O143 O 0.9839 0.42699 0.57034 0.0
O144 O 0.95918 0.40429 0.42269 0.0
O145 O 0.07935 0.38817 0.44482 0.0
O146 O 0.83846 0.37681 0.51302 0.0
O147 O 0.8303 0.40264 0.52966 0.0
O148 O 1.0159 0.35007 0.56532 0.0
O149 O 1.02712 0.35216 0.46397 0.0
O150 O 0.09585 0.37379 0.61644 0.0
O151 O 0.97748 0.39036 0.5962 0.0
H152 H 0.14066 0.45466 0.43714 0.0
H153 H 0.94321 0.45441 0.61974 0.0
H154 H 0.94165 0.48233 0.62013 0.0
H155 H 0.13841 0.48248 0.43789 0.0
H156 H 0.85275 0.33133 0.60185 0.0
H157 H 1.03643 0.3218 0.42 0.0
H158 H 0.95525 0.29615 0.42346 0.0
H159 H 0.77227 0.30564 0.60505 0.0
Gd160 Gd 0.56368 0.90688 0.01788 0.0
Gd161 Gd 0.57126 0.87303 0.01066 0.0
C162 C 0.31891 0.89089 0.01815 0.0
C163 C 0.59656 0.93601 0.00338 0.0
C164 C 0.55595 0.95216 0.00832 0.0
C165 C 0.57942 0.96106 0.05974 0.0
C166 C 0.51084 0.95949 0.95806 0.0
C167 C 0.51966 0.98414 0.00928 0.0
C168 C 0.49235 0.9753 0.95871 0.0
C169 C 0.56148 0.97683 0.06019 0.0
C170 C 0.52879 0.89316 0.13179 0.0
C171 C 0.81466 0.88899 0.00991 0.0
C172 C 0.5503 0.84369 0.02465 0.0
C173 C 0.61257 0.82891 0.0283 0.0
C174 C 0.70397 0.82455 0.98308 0.0
C175 C 0.57117 0.81826 0.074 0.0
C176 C 0.70622 0.79899 0.02736 0.0
C177 C 0.61748 0.80349 0.07362 0.0
C178 C 0.75028 0.80975 0.98269 0.0
C179 C 0.59513 0.88707 0.89614 0.0
O180 O 0.37409 0.90392 0.0088 0.0
O181 O 0.37609 0.87805 0.02686 0.0
O182 O 0.60957 0.92862 0.05478 0.0
O183 O 0.56612 0.92719 0.95924 0.0
O184 O 0.47423 0.9052 0.1159 0.0
O185 O 0.60171 0.88905 0.08644 0.0
O186 O 0.75895 0.87617 0.02273 0.0
O187 O 0.75758 0.90152 0.99722 0.0
O188 O 0.55921 0.85063 0.97068 0.0
O189 O 0.54649 0.85314 0.07177 0.0
O190 O 0.65386 0.87526 0.91063 0.0
O191 O 0.52728 0.89085 0.94373 0.0
H192 H 0.61639 0.95592 0.0987 0.0
H193 H 0.49385 0.9531 0.91716 0.0
H194 H 0.46061 0.9807 0.91875 0.0
H195 H 0.58367 0.98341 0.09954 0.0
H196 H 0.73757 0.83243 0.94698 0.0
H197 H 0.50018 0.82122 0.10898 0.0
H198 H 0.58206 0.79542 0.10856 0.0
H199 H 0.8187 0.80657 0.94657 0.0
Gd200 Gd 0.51983 0.16155 0.01292 0.0
Gd201 Gd 0.52348 0.12779 0.01079 0.0
C202 C 0.27716 0.14446 0.02037 0.0
C203 C 0.53277 0.19068 0.99099 0.0
C204 C 0.46977 0.20552 -0.0018 0.0
C205 C 0.43311 0.21185 0.05745 0.0
C206 C 0.45636 0.21425 0.94465 0.0
C207 C 0.37575 0.23544 0.00909 0.0
C208 C 0.4098 0.22901 0.94999 0.0
C209 C 0.38644 0.22664 0.06277 0.0
C210 C 0.48359 0.14871 0.12934 0.0
C211 C 0.77085 0.14497 0.00904 0.0
C212 C 0.55302 0.09884 0.02898 0.0
C213 C 0.52099 0.08259 0.0234 0.0
C214 C 0.51934 0.07548 0.96484 0.0
C215 C 0.50849 0.0735 0.07755 0.0
C216 C 0.50168 0.05053 0.0148 0.0
C217 C 0.49892 0.05768 0.07334 0.0
C218 C 0.50938 0.05962 0.96064 0.0
C219 C 0.49218 0.14045 0.89779 0.0
O220 O 0.33637 0.15626 0.99699 0.0
O221 O 0.3334 0.13278 0.04169 0.0
O222 O 0.56463 0.18421 0.04096 0.0
O223 O 0.50103 0.18083 0.95096 0.0
O224 O 0.42777 0.16046 0.11145 0.0
O225 O 0.55478 0.14431 0.08413 0.0
O226 O 0.71594 0.13203 0.00452 0.0
O227 O 0.71265 0.15797 0.01288 0.0
O228 O 0.5967 0.10609 0.97879 0.0
O229 O 0.49249 0.10765 0.06969 0.0
O230 O 0.44096 0.12838 0.92106 0.0
O231 O 0.56102 0.14504 0.93512 0.0
H232 H 0.44273 0.20553 0.09976 0.0
H233 H 0.48483 0.20979 0.89844 0.0
H234 H 0.40242 0.23554 0.90793 0.0
H235 H 0.36057 0.23133 0.10885 0.0
H236 H 0.5299 0.08209 0.92211 0.0
H237 H 0.51111 0.0786 0.12321 0.0
H238 H 0.49331 0.05094 0.11572 0.0
H239 H 0.51172 0.05437 0.91497 0.0
Gd240 Gd 0.55301 0.16162 0.5078 0.0
Gd241 Gd 0.55815 0.12796 0.51078 0.0
C242 C 0.80348 0.14545 0.51013 0.0
C243 C 0.56568 0.19102 0.51397 0.0
C244 C 0.62126 0.20571 0.5262 0.0
C245 C 0.73288 0.20924 0.49817 0.0
C246 C 0.55446 0.21729 0.55787 0.0
C247 C 0.70549 0.23581 0.52929 0.0
C248 C 0.59605 0.23217 0.55944 0.0
C249 C 0.77457 0.22413 0.49984 0.0
C250 C 0.52574 0.14836 0.39514 0.0
C251 C 0.30881 0.14457 0.51547 0.0
C252 C 0.59434 0.09897 0.49234 0.0
C253 C 0.56144 0.0828 0.50281 0.0
C254 C 0.55075 0.07618 0.56286 0.0
C255 C 0.55699 0.07329 0.45064 0.0
C256 C 0.53939 0.05088 0.51758 0.0
C257 C 0.54604 0.05753 0.4579 0.0
C258 C 0.53942 0.06039 0.57013 0.0
C259 C 0.50485 0.14071 0.62675 0.0
O260 O 0.74462 0.15837 0.51476 0.0
O261 O 0.75113 0.13238 0.50395 0.0
O262 O 0.61032 0.18289 0.4662 0.0
O263 O 0.51422 0.18286 0.5599 0.0
O264 O 0.4712 0.16022 0.4184 0.0
O265 O 0.59669 0.14413 0.43219 0.0
O266 O 0.36953 0.13228 0.49635 0.0
O267 O 0.36165 0.15679 0.53366 0.0
O268 O 0.63025 0.10658 0.53836 0.0
O269 O 0.53854 0.10746 0.45573 0.0
O270 O 0.45811 0.1286 0.60698 0.0
O271 O 0.57991 0.14538 0.58401 0.0
H272 H 0.78625 0.20064 0.47282 0.0
H273 H 0.46765 0.21499 0.57903 0.0
H274 H 0.54126 0.24097 0.58243 0.0
H275 H 0.85927 0.22666 0.47631 0.0
H276 H 0.55499 0.08313 0.60403 0.0
H277 H 0.56668 0.078 0.40379 0.0
H278 H 0.54625 0.05045 0.41671 0.0
H279 H 0.53424 0.05552 0.61663 0.0
Gd280 Gd 0.52104 0.90628 0.51586 0.0
Gd281 Gd 0.52846 0.87281 0.51855 0.0
C282 C 0.76949 0.88921 0.51383 0.0
C283 C 0.53384 0.93552 0.52609 0.0
C284 C 0.54265 0.95236 0.5309 0.0
C285 C 0.61077 0.9606 0.48447 0.0
C286 C 0.47615 0.96047 0.57884 0.0
C287 C 0.54234 0.9846 0.53236 0.0
C288 C 0.47602 0.97643 0.57956 0.0
C289 C 0.61068 0.97653 0.48526 0.0
C290 C 0.51483 0.89324 0.40103 0.0
C291 C 0.27515 0.88992 0.52091 0.0
C292 C 0.51556 0.84365 0.49889 0.0
C293 C 0.45174 0.82918 0.51271 0.0
C294 C 0.48385 0.81924 0.55924 0.0
C295 C 0.37056 0.8241 0.47393 0.0
C296 C 0.36044 0.79938 0.5257 0.0
C297 C 0.32512 0.80939 0.48054 0.0
C298 C 0.43865 0.80454 0.56568 0.0
C299 C 0.53946 0.88545 0.63362 0.0
O300 O 0.70644 0.90112 0.53482 0.0
O301 O 0.71864 0.87731 0.49191 0.0
O302 O 0.58972 0.92784 0.48006 0.0
O303 O 0.47473 0.92716 0.56852 0.0
O304 O 0.45733 0.90515 0.4214 0.0
O305 O 0.57861 0.88897 0.44169 0.0
O306 O 0.33497 0.87701 0.51597 0.0
O307 O 0.32759 0.90302 0.5265 0.0
O308 O 0.56912 0.84961 0.54284 0.0
O309 O 0.47317 0.85394 0.46385 0.0
O310 O 0.58925 0.87296 0.61367 0.0
O311 O 0.47469 0.89011 0.59387 0.0
H312 H 0.66253 0.95475 0.44666 0.0
H313 H 0.42211 0.95451 0.61505 0.0
H314 H 0.42282 0.98241 0.61642 0.0
H315 H 0.66265 0.98258 0.44846 0.0
H316 H 0.54749 0.8226 0.58926 0.0
H317 H 0.34521 0.83129 0.43691 0.0
H318 H 0.2653 0.80563 0.44898 0.0
H319 H 0.46744 0.79701 0.60067 0.0
C320 C 0.49861 0.3849 0.07064 0.0
C321 C 0.44972 0.38872 0.01478 0.0
C322 C 0.64682 0.39303 0.96163 0.0
C323 C 0.69495 0.39005 0.01841 0.0
N324 N 0.66483 0.38556 0.12935 0.0
N325 N 0.47702 0.3978 0.90841 0.0
C326 C 0.62018 0.38653 0.07343 0.0
C327 C 0.52397 0.39326 0.96083 0.0
N328 N 0.42866 0.37976 0.12153 0.0
N329 N 0.71899 0.39497 0.90749 0.0
H330 H 0.38941 0.39697 0.90392 0.0
H331 H 0.52352 0.40312 0.87046 0.0
H332 H 0.8084 0.39511 0.90613 0.0
H333 H 0.69154 0.39532 0.86318 0.0
H334 H 0.45922 0.37495 0.16069 0.0
H335 H 0.33918 0.3795 0.12358 0.0
H336 H 0.61508 0.38466 0.17254 0.0
H337 H 0.75214 0.387 0.1333 0.0
C338 C 0.46713 0.63449 0.97488 0.0
C339 C 0.39403 0.64498 0.01132 0.0
C340 C 0.56791 0.65583 0.05039 0.0
C341 C 0.63988 0.64461 0.01744 0.0
N342 N 0.65146 0.62144 0.95668 0.0
N343 N 0.3753 0.66339 0.09473 0.0
C344 C 0.58732 0.63337 0.98257 0.0
C345 C 0.44486 0.65511 0.05173 0.0
N346 N 0.42332 0.62604 0.93007 0.0
N347 N 0.61663 0.66716 0.08145 0.0
H348 H 0.28599 0.66273 0.09892 0.0
H349 H 0.40548 0.66966 0.13039 0.0
H350 H 0.704 0.66742 0.08689 0.0
H351 H 0.57134 0.67678 0.09896 0.0
H352 H 0.47411 0.61969 0.8964 0.0
H353 H 0.33711 0.62649 0.92249 0.0
H354 H 0.61552 0.61193 0.938 0.0
H355 H 0.73959 0.62031 0.95827 0.0
C356 C 0.59256 0.63524 0.54885 0.0
C357 C 0.66254 0.64588 0.5123 0.0
C358 C 0.48499 0.65622 0.47302 0.0
C359 C 0.41616 0.6449 0.50629 0.0
N360 N 0.40972 0.62224 0.57013 0.0
N361 N 0.67427 0.66537 0.43294 0.0
C362 C 0.47177 0.63398 0.54217 0.0
C363 C 0.60802 0.65615 0.47318 0.0
N364 N 0.64026 0.62686 0.59298 0.0
N365 N 0.4331 0.66706 0.44007 0.0
H366 H 0.76256 0.66626 0.43276 0.0
H367 H 0.64344 0.6714 0.39663 0.0
H368 H 0.3477 0.66648 0.43082 0.0
H369 H 0.47338 0.67702 0.42374 0.0
H370 H 0.59246 0.62028 0.62662 0.0
H371 H 0.72678 0.62759 0.60014 0.0
H372 H 0.4473 0.61285 0.58937 0.0
H373 H 0.3209 0.62128 0.57092 0.0
C374 C 0.57885 0.38003 0.56348 0.0
C375 C 0.64846 0.38942 0.52069 0.0
C376 C 0.47194 0.39827 0.4768 0.0
C377 C 0.40241 0.38872 0.5188 0.0
N378 N 0.3884 0.37182 0.6074 0.0
N379 N 0.66226 0.40515 0.42842 0.0
C380 C 0.456 0.37981 0.56299 0.0
C381 C 0.59493 0.39804 0.47564 0.0
N382 N 0.63065 0.37113 0.60442 0.0
N383 N 0.42018 0.40778 0.43804 0.0
H384 H 0.75156 0.40505 0.42487 0.0
H385 H 0.6311 0.40998 0.38947 0.0
H386 H 0.33247 0.40751 0.43369 0.0
H387 H 0.46237 0.41659 0.41288 0.0
H388 H 0.59002 0.36241 0.63081 0.0
H389 H 0.71733 0.37199 0.61062 0.0
H390 H 0.41753 0.36666 0.64617 0.0
H391 H 0.29992 0.37103 0.60779 0.0
C392 C 0.99192 0.88636 0.06874 0.0
C393 C 0.94423 0.8895 0.01181 0.0
C394 C 0.14233 0.89346 0.95882 0.0
C395 C 0.18956 0.89046 0.01596 0.0
N396 N 0.15897 0.88635 0.1271 0.0
N397 N 0.97398 0.89443 0.90112 0.0
C398 C 0.11406 0.88738 0.07123 0.0
C399 C 1.01967 0.89279 0.95658 0.0
N400 N 0.9201 0.88228 0.12073 0.0
N401 N 0.21542 0.89702 0.90656 0.0
H402 H 0.88595 0.89373 0.89755 0.0
H403 H 1.02202 0.89565 0.85768 0.0
H404 H 0.30483 0.8967 0.90533 0.0
H405 H 0.18922 0.90081 0.86464 0.0
H406 H 0.94827 0.87793 0.16134 0.0
H407 H 0.83063 0.88249 0.12267 0.0
H408 H 0.10986 0.88574 0.17054 0.0
H409 H 0.24677 0.88731 0.13079 0.0
C410 C 0.08387 0.15828 0.01481 0.0
C411 C 0.14646 0.14442 0.0203 0.0
C412 C 0.95847 0.13159 0.03262 0.0
C413 C 0.90061 0.14478 0.0126 0.0
N414 N 0.92994 0.16967 0.96493 0.0
N415 N 0.13384 0.1169 0.0136 0.0
C416 C 0.9695 0.15785 -0.00229 0.0
C417 C 0.08141 0.13074 0.02302 0.0
N418 N 0.12936 0.1719 0.02879 0.0
N419 N 0.89886 0.12013 0.06399 0.0
H420 H 0.22097 0.1155 -0.00185 0.0
H421 H 0.0868 0.10692 0.012 0.0
H422 H 0.81184 0.12099 0.08079 0.0
H423 H 0.94031 0.11083 0.08183 0.0
H424 H 0.08265 0.18204 0.02816 0.0
H425 H 0.20455 0.17282 0.0502 0.0
H426 H 0.98157 0.17893 0.95073 0.0
H427 H 0.85398 0.16923 0.94403 0.0
C428 C 0.1304 0.14619 0.45661 0.0
C429 C 0.17862 0.14486 0.5145 0.0
C430 C 0.97995 0.14375 0.56985 0.0
C431 C 0.93267 0.14556 0.51204 0.0
N432 N 0.96201 0.15055 0.40156 0.0
N433 N 0.14907 0.14344 0.62692 0.0
C434 C 1.00793 0.14732 0.45582 0.0
C435 C 0.10294 0.14397 0.57133 0.0
N436 N 0.20206 0.14618 0.40184 0.0
N437 N 0.90658 0.14162 0.62337 0.0
H438 H 0.23754 0.14287 0.62951 0.0
H439 H 0.1012 0.14421 0.67068 0.0
H440 H 0.81726 0.14223 0.62427 0.0
H441 H 0.93261 0.13866 0.66642 0.0
H442 H 0.17459 0.1451 0.35774 0.0
H443 H 0.29094 0.14641 0.40061 0.0
H444 H 1.01039 0.1538 0.36011 0.0
H445 H 0.87349 0.15101 0.39884 0.0
C446 C 0.9533 0.87876 0.55347 0.0
C447 C 0.89912 0.88926 0.51537 0.0
C448 C 0.0921 0.89907 0.47639 0.0
C449 C 0.1452 0.8897 0.51921 0.0
N450 N 0.11966 0.87268 0.60733 0.0
N451 N 0.91839 0.91114 0.44751 0.0
C452 C 0.07385 0.88004 0.5599 0.0
C453 C 0.96902 0.9 0.47941 0.0
N454 N 0.8899 0.8675 0.58399 0.0
N455 N 0.15903 0.9064 0.42969 0.0
H456 H 0.82998 0.91183 0.44533 0.0
H457 H 0.96333 0.92038 0.4271 0.0
H458 H 0.24825 0.90548 0.42364 0.0
H459 H 0.126 0.91197 0.39283 0.0
H460 H 0.92646 0.85844 0.60604 0.0
H461 H 0.8014 0.86652 0.58341 0.0
H462 H 0.07033 0.86684 0.64291 0.0
H463 H 0.20568 0.87367 0.61496 0.0
C464 C 0.965 0.52532 0.98421 0.0
C465 C 0.04148 0.53297 0.0202 0.0
C466 C 0.12033 0.50833 0.05082 0.0
C467 C 0.04348 0.5007 0.01492 0.0
N468 N 0.88337 0.50146 0.95397 0.0
N469 N 0.19636 0.53227 0.08478 0.0
C470 C 0.96346 0.50909 0.98323 0.0
C471 C 0.11992 0.52458 0.05307 0.0
N472 N 0.89623 0.53365 0.9494 0.0
N473 N 0.19238 0.49994 0.08351 0.0
H474 H 0.19669 0.54408 0.08827 0.0
H475 H 0.26246 0.52723 0.10609 0.0
H476 H 0.19771 0.48813 0.08119 0.0
H477 H 0.24467 0.5044 0.11475 0.0
H478 H 0.84778 0.52905 0.91655 0.0
H479 H 0.89195 0.54548 0.95072 0.0
H480 H 0.81459 0.50663 0.93537 0.0
H481 H 0.88109 0.48964 0.9515 0.0
C482 C 0.13467 0.51013 0.53392 0.0
C483 C 1.03424 0.50157 0.52749 0.0
C484 C 0.92489 0.52539 0.51869 0.0
C485 C 1.02805 0.53384 0.51808 0.0
N486 N 0.23503 0.53399 0.51555 0.0
N487 N 0.83712 0.50096 0.50457 0.0
C488 C 0.13403 0.52614 0.52338 0.0
C489 C 0.93006 0.50919 0.51758 0.0
N490 N 0.2301 0.503 0.55162 0.0
N491 N 0.82134 0.53287 0.522 0.0
H492 H 0.83726 0.48912 0.50332 0.0
H493 H 0.7633 0.50583 0.48988 0.0
H494 H 0.81419 0.54468 0.52328 0.0
H495 H 0.74223 0.52742 0.5292 0.0
H496 H 0.30167 0.50878 0.56371 0.0
H497 H 0.23376 0.49134 0.5597 0.0
H498 H 0.31588 0.52878 0.51177 0.0
H499 H 0.23868 0.54565 0.5074 0.0
C500 C 0.60995 1.00964 0.98293 0.0
C501 C 0.51211 1.00116 0.00751 0.0
C502 C 0.40298 0.02503 0.02953 0.0
C503 C 0.50399 0.03349 0.01036 0.0
N504 N 0.70848 0.03382 0.97756 0.0
N505 N 0.31898 1.00061 0.06035 0.0
C506 C 0.6087 0.02578 0.9891 0.0
C507 C 0.40946 1.00882 0.03246 0.0
N508 N 0.70391 1.00225 0.95287 0.0
N509 N 0.30006 0.03249 0.04321 0.0
H510 H 0.31938 0.98877 0.06152 0.0
H511 H 0.24679 1.00547 0.08593 0.0
H512 H 0.2923 0.04428 0.04155 0.0
H513 H 0.22112 0.02703 0.05124 0.0
H514 H 0.77248 1.0078 0.92752 0.0
H515 H 0.70956 0.99046 0.94895 0.0
H516 H 0.78969 0.02878 0.96901 0.0
H517 H 0.71168 0.0456 0.98163 0.0
C518 C 0.43819 0.02566 0.51357 0.0
C519 C 0.53791 0.03391 0.52437 0.0
C520 C 0.63435 1.00997 0.54831 0.0
C521 C 0.53917 1.00164 0.53138 0.0
N522 N 0.35679 1.00142 0.48918 0.0
N523 N 0.73788 0.03376 0.54246 0.0
C524 C 0.44257 1.00946 0.51177 0.0
C525 C 0.63785 0.02602 0.53936 0.0
N526 N 0.33816 0.03332 0.50669 0.0
N527 N 0.72032 1.00256 0.57446 0.0
H528 H 0.74441 0.04547 0.53603 0.0
H529 H 0.81684 0.02846 0.54611 0.0
H530 H 0.72094 0.99085 0.58148 0.0
H531 H 0.78563 1.00813 0.59414 0.0
H532 H 0.25928 0.028 0.50534 0.0
H533 H 0.33178 0.04514 0.50777 0.0
H534 H 0.29076 1.00644 0.46755 0.0
H535 H 0.35648 0.98959 0.4874 0.0
C536 C 0.18349 0.27065 0.99664 0.0
C537 C 0.25048 0.28218 0.02076 0.0
C538 C 0.40271 0.26326 0.03366 0.0
C539 C 0.33159 0.25153 0.01444 0.0
N540 N 0.14665 0.2437 0.98741 0.0
N541 N 0.4158 0.2891 0.07147 0.0
C542 C 0.21975 0.25515 -0.00134 0.0
C543 C 0.35794 0.27837 0.04186 0.0
N544 N 0.08699 0.27458 0.96973 0.0
N545 N 0.51466 0.26007 0.04193 0.0
H546 H 0.38627 0.30026 0.07789 0.0
H547 H 0.48782 0.28667 0.09418 0.0
H548 H 0.55052 0.24919 0.03662 0.0
H549 H 0.57473 0.26836 0.04901 0.0
H550 H 0.04152 0.26697 0.94508 0.0
H551 H 0.05762 0.28575 0.96731 0.0
H552 H 0.05992 0.24544 0.98244 0.0
H553 H 0.17008 0.23226 0.98838 0.0
C554 C 0.85955 0.77916 0.04235 0.0
C555 C 0.74948 0.78285 0.02422 0.0
C556 C 0.71691 0.75571 0.00517 0.0
C557 C 0.83109 0.75221 0.01752 0.0
N558 N 1.01759 0.76096 0.03877 0.0
N559 N 0.5805 0.77494 0.97873 0.0
C560 C 0.90415 0.76405 0.03378 0.0
C561 C 0.68002 0.77118 0.00307 0.0
N562 N 0.92025 0.79002 0.06948 0.0
N563 N 0.6424 0.74418 0.99722 0.0
H564 H 0.55064 0.78609 0.97619 0.0
H565 H 0.53266 0.76719 0.95613 0.0
H566 H 0.66612 0.73275 -0.00145 0.0
H567 H 0.55469 0.74587 0.99487 0.0
H568 H 0.9949 0.78771 0.09006 0.0
H569 H 0.89079 0.80118 0.07617 0.0
H570 H 0.07839 0.76932 0.04348 0.0
H571 H 0.05343 0.75009 0.03305 0.0
C572 C 0.36067 0.75613 0.50517 0.0
C573 C 0.24708 0.75246 0.5315 0.0
C574 C 0.21245 0.77935 0.56053 0.0
C575 C 0.32148 0.78319 0.52848 0.0
N576 N 0.49355 0.77556 0.46273 0.0
N577 N 0.05857 0.76092 0.57652 0.0
C578 C 0.39407 0.77165 0.49879 0.0
C579 C 0.17137 0.76416 0.55744 0.0
N580 N 0.4379 0.74472 0.48787 0.0
N581 N 0.14895 0.79017 0.59492 0.0
H582 H 1.02497 0.75002 0.57492 0.0
H583 H 0.996 0.76919 0.58924 0.0
H584 H 0.17531 0.80142 0.59722 0.0
H585 H 0.075 0.78778 0.62504 0.0
H586 H 0.52517 0.74653 0.47439 0.0
H587 H 0.41699 0.73326 0.49248 0.0
H588 H 0.54336 0.76793 0.43394 0.0
H589 H 0.52186 0.78674 0.45756 0.0
C590 C 0.72995 0.27788 0.48358 0.0
C591 C 0.818 0.28276 0.5191 0.0
C592 C 0.82636 0.25716 0.56493 0.0
C593 C 0.74496 0.25199 0.52572 0.0
N594 N 0.63255 0.25678 0.44044 0.0
N595 N 0.96334 0.27652 0.58615 0.0
C596 C 0.70037 0.26219 0.48303 0.0
C597 C 0.86978 0.27224 0.55783 0.0
N598 N 0.6721 0.28834 0.45175 0.0
N599 N 0.85987 0.24776 0.61022 0.0
H600 H 0.99738 0.28742 0.58235 0.0
H601 H 1.01308 0.26897 0.60917 0.0
H602 H 0.83116 0.23662 0.61622 0.0
H603 H 0.90872 0.25132 0.64493 0.0
H604 H 0.59872 0.28585 0.43062 0.0
H605 H 0.69177 0.29987 0.45078 0.0
H606 H 0.60784 0.26321 0.40355 0.0
H607 H 0.60853 0.24542 0.43872 0.0
C608 C 0.9759 0.37896 0.23849 0.0
C609 C 0.05226 0.38879 0.20187 0.0
C610 C 0.12124 0.39871 0.29781 0.0
C611 C 0.04226 0.38923 0.33477 0.0
N612 N 0.90863 0.36857 0.34126 0.0
N613 N 0.21599 0.40539 0.19499 0.0
C614 C 0.97464 0.37871 0.3052 0.0
C615 C 0.13138 0.39773 0.23111 0.0
N616 N 0.90199 0.37023 0.20933 0.0
N617 N 0.18171 0.40932 0.32652 0.0
H618 H 0.22399 0.40536 0.14623 0.0
H619 H 0.28426 0.41072 0.21287 0.0
H620 H 0.17866 0.41016 0.37498 0.0
H621 H 0.22931 0.41791 0.30285 0.0
H622 H 0.83471 0.36406 0.23264 0.0
H623 H 0.90609 0.36954 0.16068 0.0
H624 H 0.86408 0.35971 0.32341 0.0
H625 H 0.90447 0.36842 0.38995 0.0
C626 C 0.94233 0.63609 0.23126 0.0
C627 C 0.99699 0.6478 0.19367 0.0
C628 C 0.09403 0.65607 0.28369 0.0
C629 C 1.02604 0.64597 0.3234 0.0
N630 N 0.87974 0.62683 0.33599 0.0
N631 N 0.11597 0.67015 0.1865 0.0
C632 C 0.94955 0.63597 0.29727 0.0
C633 C 0.07121 0.65804 0.22043 0.0
N634 N 0.883 0.62513 0.20395 0.0
N635 N 0.18075 0.66382 0.30668 0.0
H636 H 0.10381 0.67193 0.13988 0.0
H637 H 0.15859 0.67902 0.20569 0.0
H638 H 0.19935 0.6626 0.35272 0.0
H639 H 0.24117 0.67022 0.2788 0.0
H640 H 0.85121 0.61541 0.22723 0.0
H641 H 0.87292 0.62521 0.15641 0.0
H642 H 0.81186 0.62067 0.32164 0.0
H643 H 0.88661 0.62605 0.38368 0.0
C644 C 0.91174 0.64917 0.79394 0.0
C645 C 1.00597 0.64386 0.82471 0.0
C646 C 0.11931 0.64034 0.72186 0.0
C647 C 1.01965 0.64301 0.69166 0.0
N648 N 0.8195 0.65003 0.69808 0.0
N649 N 0.19537 0.63224 0.81638 0.0
C650 C 0.9157 0.64768 0.72743 0.0
C651 C 0.10951 0.63909 0.78829 0.0
N652 N 0.81861 0.65569 0.8284 0.0
N653 N 0.22384 0.63904 0.68666 0.0
H654 H 0.18976 0.63036 0.86434 0.0
H655 H 0.2671 0.62706 0.79156 0.0
H656 H 0.23276 0.64045 0.63822 0.0
H657 H 0.3017 0.63835 0.70577 0.0
H658 H 0.75157 0.66104 0.80879 0.0
H659 H 0.81324 0.65689 0.87684 0.0
H660 H 0.73728 0.6516 0.72164 0.0
H661 H 0.82163 0.64973 0.64951 0.0
C662 C 0.10922 0.40029 0.72753 0.0
C663 C 1.03152 0.38998 0.7043 0.0
C664 C 0.98376 0.37959 0.81048 0.0
C665 C 0.06689 0.38926 0.83313 0.0
N666 N 0.19425 0.41052 0.81697 0.0
N667 N 0.87513 0.37258 0.725 0.0
C668 C 0.1247 0.40021 0.79272 0.0
C669 C 0.96216 0.38057 0.74652 0.0
N670 N 0.17031 0.40985 0.68648 0.0
N671 N 0.92913 0.36898 0.84948 0.0
H672 H 0.85895 0.37302 0.67839 0.0
H673 H 0.81317 0.36661 0.75359 0.0
H674 H 0.93805 0.36832 0.89705 0.0
H675 H 0.87868 0.36034 0.83462 0.0
H676 H 0.23849 0.41649 0.69723 0.0
H677 H 0.15176 0.41109 0.6405 0.0
H678 H 0.23301 0.41959 0.79205 0.0
H679 H 0.20865 0.41047 0.86394 0.0
C680 C 0.46594 0.88079 0.23575 0.0
C681 C 0.54351 0.89045 0.19925 0.0
C682 C 0.62349 0.89873 0.29501 0.0
C683 C 0.5376 0.89025 0.33203 0.0
N684 N 0.37414 0.87367 0.33885 0.0
N685 N 0.70831 0.90685 0.19143 0.0
C686 C 0.45916 0.88122 0.30258 0.0
C687 C 0.62671 0.8988 0.22817 0.0
N688 N 0.40026 0.87098 0.20609 0.0
N689 N 0.69743 0.90744 0.32436 0.0
H690 H 0.71113 0.9075 0.1429 0.0
H691 H 0.77723 0.91236 0.20767 0.0
H692 H 0.69842 0.90741 0.3727 0.0
H693 H 0.75637 0.91499 0.30205 0.0
H694 H 0.34904 0.8626 0.22883 0.0
H695 H 0.40451 0.87039 0.15743 0.0
H696 H 0.30531 0.86838 0.32139 0.0
H697 H 0.36918 0.87332 0.38755 0.0
C698 C 0.58488 0.15714 0.22129 0.0
C699 C 0.50784 0.147 0.19609 0.0
C700 C 0.46704 0.13487 0.2997 0.0
C701 C 0.53785 0.14568 0.32565 0.0
N702 N 0.68508 0.16458 0.30964 0.0
N703 N 0.39037 0.1247 0.20759 0.0
C704 C 0.60345 0.15601 0.28573 0.0
C705 C 0.454 0.13532 0.23424 0.0
N706 N 0.6379 0.16817 0.18387 0.0
N707 N 0.41016 0.12442 0.33835 0.0
H708 H 0.37647 0.12507 0.16059 0.0
H709 H 0.35538 0.11513 0.23048 0.0
H710 H 0.42401 0.12336 0.38507 0.0
H711 H 0.34779 0.1171 0.32547 0.0
H712 H 0.68343 0.17713 0.20022 0.0
H713 H 0.63272 0.16878 0.13592 0.0
H714 H 0.74413 0.17137 0.28283 0.0
H715 H 0.70049 0.16393 0.35638 0.0
C716 C 0.4333 0.15229 0.79847 0.0
C717 C 0.50975 0.14278 0.82815 0.0
C718 C 0.59162 0.13303 0.72483 0.0
C719 C 0.51543 0.14259 0.69517 0.0
N720 N 0.3811 0.1635 0.702 0.0
N721 N 0.67741 0.12643 0.81906 0.0
C722 C 0.44186 0.15293 0.73157 0.0
C723 C 0.59414 0.13393 0.79102 0.0
N724 N 0.34984 0.16036 0.83431 0.0
N725 N 0.6585 0.12259 0.69 0.0
H726 H 0.68055 0.12646 0.86729 0.0
H727 H 0.74901 0.1212 0.7944 0.0
H728 H 0.66392 0.12205 0.64136 0.0
H729 H 0.70416 0.11391 0.70925 0.0
H730 H 0.28209 0.16599 0.81644 0.0
H731 H 0.34519 0.16082 0.88287 0.0
H732 H 0.33414 0.17235 0.72499 0.0
H733 H 0.38552 0.16418 0.65337 0.0
C734 C 0.59789 0.90021 0.72557 0.0
C735 C 0.52643 0.88909 0.7023 0.0
C736 C 0.48264 0.87863 0.80866 0.0
C737 C 0.56271 0.88883 0.83094 0.0
N738 N 0.68262 0.91081 0.81461 0.0
N739 N 0.37992 0.87027 0.72253 0.0
C740 C 0.6155 0.90017 0.79053 0.0
C741 C 0.46195 0.87913 0.74442 0.0
N742 N 0.65002 0.9106 0.68482 0.0
N743 N 0.42944 0.8681 0.8486 0.0
H744 H 0.36377 0.87049 0.67585 0.0
H745 H 0.32192 0.8636 0.75057 0.0
H746 H 0.43668 0.86793 0.89642 0.0
H747 H 0.38067 0.85917 0.83472 0.0
H748 H 0.71123 0.91836 0.6956 0.0
H749 H 0.62913 0.91163 0.6392 0.0
H750 H 0.72102 0.91986 0.7895 0.0
H751 H 0.69713 0.91091 0.86159 0.0
loop_
_geom_bond_atom_site_label_1
_geom_bond_atom_site_label_2
_geom_bond_distance
_geom_bond_site_symmetry_2
_ccdc_geom_bond_type
Gd0 C3 2.818 1_455 S
Gd0 O20 2.377 1_455 S
Gd0 O22 2.448 . S
Gd0 O23 2.506 1_454 S
Gd0 O24 2.435 . S
Gd0 O25 2.717 . S
Gd0 O27 2.395 . S
Gd0 O31 2.327 1_554 S
Gd1 C12 2.818 . S
Gd1 O21 2.395 1_455 S
Gd1 O25 2.327 . S
Gd1 O26 2.377 1_554 S
Gd1 O28 2.448 1_554 S
Gd1 O29 2.506 . S
Gd1 O30 2.435 1_554 S
Gd1 O31 2.717 1_554 S
C2 O20 1.240 . S
C2 O21 1.240 . S
C3 Gd0 2.818 1_655 S
C3 C4 1.510 . S
C3 O22 1.249 1_655 S
C3 O23 1.252 1_554 S
C4 C3 1.510 . S
C4 C5 1.404 . S
C4 C6 1.352 1_554 S
C5 C4 1.404 . S
C5 C9 1.389 . S
C5 H32 0.930 . S
C6 C4 1.352 1_556 S
C6 C8 1.374 . S
C6 H33 0.931 . S
C7 C8 1.359 . S
C7 C9 1.364 1_556 S
C8 C6 1.374 . S
C8 C7 1.359 . S
C8 H34 0.931 . S
C9 C5 1.389 . S
C9 C7 1.364 1_554 S
C9 H35 0.931 . S
C10 O24 1.256 . S
C10 O25 1.257 . S
C11 O26 1.240 1_554 S
C11 O27 1.240 . S
C12 Gd1 2.818 . S
C12 C13 1.510 . S
C12 O28 1.249 1_554 S
C12 O29 1.252 . S
C13 C12 1.510 . S
C13 C14 1.404 1_554 S
C13 C15 1.352 . S
C14 C13 1.404 1_556 S
C14 C18 1.389 . S
C14 H36 0.930 . S
C15 C13 1.352 . S
C15 C17 1.374 . S
C15 H37 0.931 . S
C16 C17 1.359 . S
C16 C18 1.364 1_554 S
C17 C15 1.374 . S
C17 C16 1.359 . S
C17 H38 0.931 . S
C18 C14 1.389 . S
C18 C16 1.364 1_556 S
C18 H39 0.931 . S
C19 O30 1.256 . S
C19 O31 1.257 . S
O20 Gd0 2.377 1_655 S
O20 C2 1.240 . S
O21 Gd1 2.395 1_655 S
O21 C2 1.240 . S
O22 Gd0 2.448 . S
O22 C3 1.249 1_455 S
O23 Gd0 2.506 1_656 S
O23 C3 1.252 1_556 S
O24 Gd0 2.435 . S
O24 C10 1.256 . S
O25 Gd0 2.717 . S
O25 Gd1 2.327 . S
O25 C10 1.257 . S
O26 Gd1 2.377 1_556 S
O26 C11 1.240 1_556 S
O27 Gd0 2.395 . S
O27 C11 1.240 . S
O28 Gd1 2.448 1_556 S
O28 C12 1.249 1_556 S
O29 Gd1 2.506 . S
O29 C12 1.252 . S
O30 Gd1 2.435 1_556 S
O30 C19 1.256 . S
O31 Gd0 2.327 1_556 S
O31 Gd1 2.717 1_556 S
O31 C19 1.257 . S
H32 C5 0.930 . S
H33 C6 0.931 . S
H34 C8 0.931 . S
H35 C9 0.931 . S
H36 C14 0.930 . S
H37 C15 0.931 . S
H38 C17 0.931 . S
H39 C18 0.931 . S
Gd40 C43 2.818 . S
Gd40 O60 2.377 . S
Gd40 O62 2.448 . S
Gd40 O63 2.506 1_554 S
Gd40 O64 2.435 . S
Gd40 O65 2.717 . S
Gd40 O67 2.395 1_655 S
Gd40 O71 2.327 1_554 S
Gd41 C52 2.818 1_655 S
Gd41 O61 2.395 . S
Gd41 O65 2.327 . S
Gd41 O66 2.377 1_654 S
Gd41 O68 2.448 1_554 S
Gd41 O69 2.506 1_655 S
Gd41 O70 2.435 1_554 S
Gd41 O71 2.717 1_554 S
C42 O60 1.240 . S
C42 O61 1.240 . S
C43 Gd40 2.818 . S
C43 C44 1.510 . S
C43 O62 1.249 . S
C43 O63 1.252 1_554 S
C44 C43 1.510 . S
C44 C45 1.404 . S
C44 C46 1.352 1_554 S
C45 C44 1.404 . S
C45 C49 1.389 . S
C45 H72 0.930 . S
C46 C44 1.352 1_556 S
C46 C48 1.374 . S
C46 H73 0.931 . S
C47 C48 1.372 . S
C47 C49 1.349 1_556 S
C48 C46 1.374 . S
C48 C47 1.372 . S
C48 H74 0.931 . S
C49 C45 1.389 . S
C49 C47 1.349 1_554 S
C49 H75 0.931 . S
C50 O64 1.256 . S
C50 O65 1.257 . S
C51 O66 1.240 1_554 S
C51 O67 1.240 . S
C52 Gd41 2.818 1_455 S
C52 C53 1.510 . S
C52 O68 1.249 1_454 S
C52 O69 1.252 . S
C53 C52 1.510 . S
C53 C54 1.404 1_554 S
C53 C55 1.352 . S
C54 C53 1.404 1_556 S
C54 C58 1.389 . S
C54 H76 0.930 . S
C55 C53 1.352 . S
C55 C57 1.374 . S
C55 H77 0.931 . S
C56 C57 1.359 . S
C56 C58 1.364 1_554 S
C57 C55 1.374 . S
C57 C56 1.359 . S
C57 H78 0.931 . S
C58 C54 1.389 . S
C58 C56 1.364 1_556 S
C58 H79 0.931 . S
C59 O70 1.256 . S
C59 O71 1.257 . S
O60 Gd40 2.377 . S
O60 C42 1.240 . S
O61 Gd41 2.395 . S
O61 C42 1.240 . S
O62 Gd40 2.448 . S
O62 C43 1.249 . S
O63 Gd40 2.506 1_556 S
O63 C43 1.252 1_556 S
O64 Gd40 2.435 . S
O64 C50 1.256 . S
O65 Gd40 2.717 . S
O65 Gd41 2.327 . S
O65 C50 1.257 . S
O66 Gd41 2.377 1_456 S
O66 C51 1.240 1_556 S
O67 Gd40 2.395 1_455 S
O67 C51 1.240 . S
O68 Gd41 2.448 1_556 S
O68 C52 1.249 1_656 S
O69 Gd41 2.506 1_455 S
O69 C52 1.252 . S
O70 Gd41 2.435 1_556 S
O70 C59 1.256 . S
O71 Gd40 2.327 1_556 S
O71 Gd41 2.717 1_556 S
O71 C59 1.257 . S
H72 C45 0.930 . S
H73 C46 0.931 . S
H74 C48 0.931 . S
H75 C49 0.931 . S
H76 C54 0.930 . S
H77 C55 0.931 . S
H78 C57 0.931 . S
H79 C58 0.931 . S
Gd80 C83 2.818 . S
Gd80 O100 2.377 . S
Gd80 O102 2.448 . S
Gd80 O103 2.506 . S
Gd80 O104 2.435 . S
Gd80 O105 2.717 . S
Gd80 O107 2.395 1_455 S
Gd80 O111 2.327 . S
Gd81 C92 2.818 1_455 S
Gd81 O101 2.395 . S
Gd81 O105 2.327 . S
Gd81 O106 2.377 1_455 S
Gd81 O108 2.448 . S
Gd81 O109 2.506 1_455 S
Gd81 O110 2.435 . S
Gd81 O111 2.717 . S
C82 O100 1.240 . S
C82 O101 1.240 . S
C83 Gd80 2.818 . S
C83 C84 1.510 . S
C83 O102 1.249 . S
C83 O103 1.252 . S
C84 C83 1.510 . S
C84 C85 1.404 . S
C84 C86 1.352 . S
C85 C84 1.404 . S
C85 C89 1.389 . S
C85 H112 0.930 . S
C86 C84 1.352 . S
C86 C88 1.374 . S
C86 H113 0.931 . S
C87 C88 1.359 . S
C87 C89 1.364 . S
C88 C86 1.374 . S
C88 C87 1.359 . S
C88 H114 0.931 . S
C89 C85 1.389 . S
C89 C87 1.364 . S
C89 H115 0.931 . S
C90 O104 1.256 . S
C90 O105 1.257 . S
C91 O106 1.240 . S
C91 O107 1.240 . S
C92 Gd81 2.818 1_655 S
C92 C93 1.510 . S
C92 O108 1.249 1_655 S
C92 O109 1.252 . S
C93 C92 1.510 . S
C93 C94 1.404 . S
C93 C95 1.352 . S
C94 C93 1.404 . S
C94 C98 1.389 . S
C94 H116 0.930 . S
C95 C93 1.352 . S
C95 C97 1.374 . S
C95 H117 0.931 . S
C96 C97 1.359 . S
C96 C98 1.364 . S
C97 C95 1.374 . S
C97 C96 1.359 . S
C97 H118 0.931 . S
C98 C94 1.389 . S
C98 C96 1.364 . S
C98 H119 0.931 . S
C99 O110 1.256 . S
C99 O111 1.257 . S
O100 Gd80 2.377 . S
O100 C82 1.240 . S
O101 Gd81 2.395 . S
O101 C82 1.240 . S
O102 Gd80 2.448 . S
O102 C83 1.249 . S
O103 Gd80 2.506 . S
O103 C83 1.252 . S
O104 Gd80 2.435 . S
O104 C90 1.256 . S
O105 Gd80 2.717 . S
O105 Gd81 2.327 . S
O105 C90 1.257 . S
O106 Gd81 2.377 1_655 S
O106 C91 1.240 . S
O107 Gd80 2.395 1_655 S
O107 C91 1.240 . S
O108 Gd81 2.448 . S
O108 C92 1.249 1_455 S
O109 Gd81 2.506 1_655 S
O109 C92 1.252 . S
O110 Gd81 2.435 . S
O110 C99 1.256 . S
O111 Gd80 2.327 . S
O111 Gd81 2.717 . S
O111 C99 1.257 . S
H112 C85 0.930 . S
H113 C86 0.931 . S
H114 C88 0.931 . S
H115 C89 0.931 . S
H116 C94 0.930 . S
H117 C95 0.931 . S
H118 C97 0.931 . S
H119 C98 0.931 . S
Gd120 C123 2.818 1_655 S
Gd120 O140 2.377 1_655 S
Gd120 O142 2.448 . S
Gd120 O143 2.506 1_655 S
Gd120 O144 2.435 . S
Gd120 O145 2.717 . S
Gd120 O147 2.395 . S
Gd120 O151 2.327 . S
Gd121 C132 2.818 . S
Gd121 O141 2.395 1_655 S
Gd121 O145 2.327 . S
Gd121 O146 2.377 . S
Gd121 O148 2.448 . S
Gd121 O149 2.506 . S
Gd121 O150 2.435 . S
Gd121 O151 2.717 . S
C122 O140 1.240 . S
C122 O141 1.240 . S
C123 Gd120 2.818 1_455 S
C123 C124 1.510 . S
C123 O142 1.249 1_455 S
C123 O143 1.252 . S
C124 C123 1.510 . S
C124 C125 1.404 . S
C124 C126 1.352 . S
C125 C124 1.404 . S
C125 C129 1.389 . S
C125 H152 0.930 . S
C126 C124 1.352 . S
C126 C128 1.374 . S
C126 H153 0.931 . S
C127 C128 1.359 . S
C127 C129 1.364 . S
C128 C126 1.374 . S
C128 C127 1.359 . S
C128 H154 0.931 . S
C129 C125 1.389 . S
C129 C127 1.364 . S
C129 H155 0.931 . S
C130 O144 1.256 . S
C130 O145 1.257 . S
C131 O146 1.240 . S
C131 O147 1.240 . S
C132 Gd121 2.818 . S
C132 C133 1.510 . S
C132 O148 1.249 . S
C132 O149 1.252 . S
C133 C132 1.510 . S
C133 C134 1.404 . S
C133 C135 1.352 . S
C134 C133 1.404 . S
C134 C138 1.389 . S
C134 H156 0.930 . S
C135 C133 1.352 . S
C135 C137 1.374 . S
C135 H157 0.931 . S
C136 C137 1.359 . S
C136 C138 1.364 . S
C137 C135 1.374 . S
C137 C136 1.359 . S
C137 H158 0.931 . S
C138 C134 1.389 . S
C138 C136 1.364 . S
C138 H159 0.931 . S
C139 O150 1.256 . S
C139 O151 1.257 . S
O140 Gd120 2.377 1_455 S
O140 C122 1.240 . S
O141 Gd121 2.395 1_455 S
O141 C122 1.240 . S
O142 Gd120 2.448 . S
O142 C123 1.249 1_655 S
O143 Gd120 2.506 1_455 S
O143 C123 1.252 . S
O144 Gd120 2.435 . S
O144 C130 1.256 . S
O145 Gd120 2.717 . S
O145 Gd121 2.327 . S
O145 C130 1.257 . S
O146 Gd121 2.377 . S
O146 C131 1.240 . S
O147 Gd120 2.395 . S
O147 C131 1.240 . S
O148 Gd121 2.448 . S
O148 C132 1.249 . S
O149 Gd121 2.506 . S
O149 C132 1.252 . S
O150 Gd121 2.435 . S
O150 C139 1.256 . S
O151 Gd120 2.327 . S
O151 Gd121 2.717 . S
O151 C139 1.257 . S
H152 C125 0.930 . S
H153 C126 0.931 . S
H154 C128 0.931 . S
H155 C129 0.931 . S
H156 C134 0.930 . S
H157 C135 0.931 . S
H158 C137 0.931 . S
H159 C138 0.931 . S
Gd160 C163 2.818 . S
Gd160 O180 2.377 . S
Gd160 O182 2.448 . S
Gd160 O183 2.506 1_554 S
Gd160 O184 2.435 . S
Gd160 O185 2.717 . S
Gd160 O187 2.395 . S
Gd160 O191 2.327 1_554 S
Gd161 C172 2.818 . S
Gd161 O181 2.395 . S
Gd161 O185 2.327 . S
Gd161 O186 2.377 1_554 S
Gd161 O188 2.448 1_554 S
Gd161 O189 2.506 . S
Gd161 O190 2.435 1_554 S
Gd161 O191 2.717 1_554 S
C162 O180 1.240 . S
C162 O181 1.240 . S
C163 Gd160 2.818 . S
C163 C164 1.510 . S
C163 O182 1.249 . S
C163 O183 1.252 1_554 S
C164 C163 1.510 . S
C164 C165 1.404 . S
C164 C166 1.352 1_554 S
C165 C164 1.404 . S
C165 C169 1.389 . S
C165 H192 0.930 . S
C166 C164 1.352 1_556 S
C166 C168 1.374 . S
C166 H193 0.931 . S
C167 C168 1.359 . S
C167 C169 1.364 1_556 S
C168 C166 1.374 . S
C168 C167 1.359 . S
C168 H194 0.931 . S
C169 C165 1.389 . S
C169 C167 1.364 1_554 S
C169 H195 0.931 . S
C170 O184 1.256 . S
C170 O185 1.257 . S
C171 O186 1.240 1_554 S
C171 O187 1.240 . S
C172 Gd161 2.818 . S
C172 C173 1.510 . S
C172 O188 1.249 1_554 S
C172 O189 1.252 . S
C173 C172 1.510 . S
C173 C174 1.404 1_554 S
C173 C175 1.352 . S
C174 C173 1.404 1_556 S
C174 C178 1.389 . S
C174 H196 0.930 . S
C175 C173 1.352 . S
C175 C177 1.374 . S
C175 H197 0.931 . S
C176 C177 1.359 . S
C176 C178 1.364 1_554 S
C177 C175 1.374 . S
C177 C176 1.359 . S
C177 H198 0.931 . S
C178 C174 1.389 . S
C178 C176 1.364 1_556 S
C178 H199 0.931 . S
C179 O190 1.256 . S
C179 O191 1.257 . S
O180 Gd160 2.377 . S
O180 C162 1.240 . S
O181 Gd161 2.395 . S
O181 C162 1.240 . S
O182 Gd160 2.448 . S
O182 C163 1.249 . S
O183 Gd160 2.506 1_556 S
O183 C163 1.252 1_556 S
O184 Gd160 2.435 . S
O184 C170 1.256 . S
O185 Gd160 2.717 . S
O185 Gd161 2.327 . S
O185 C170 1.257 . S
O186 Gd161 2.377 1_556 S
O186 C171 1.240 1_556 S
O187 Gd160 2.395 . S
O187 C171 1.240 . S
O188 Gd161 2.448 1_556 S
O188 C172 1.249 1_556 S
O189 Gd161 2.506 . S
O189 C172 1.252 . S
O190 Gd161 2.435 1_556 S
O190 C179 1.256 . S
O191 Gd160 2.327 1_556 S
O191 Gd161 2.717 1_556 S
O191 C179 1.257 . S
H192 C165 0.930 . S
H193 C166 0.931 . S
H194 C168 0.931 . S
H195 C169 0.931 . S
H196 C174 0.930 . S
H197 C175 0.931 . S
H198 C177 0.931 . S
H199 C178 0.931 . S
Gd200 C203 2.818 . S
Gd200 O220 2.377 . S
Gd200 O222 2.448 . S
Gd200 O223 2.506 1_554 S
Gd200 O224 2.435 . S
Gd200 O225 2.717 . S
Gd200 O227 2.395 . S
Gd200 O231 2.327 1_554 S
Gd201 C212 2.818 . S
Gd201 O221 2.395 . S
Gd201 O225 2.327 . S
Gd201 O226 2.377 1_554 S
Gd201 O228 2.448 1_554 S
Gd201 O229 2.506 . S
Gd201 O230 2.435 1_554 S
Gd201 O231 2.717 1_554 S
C202 O220 1.240 . S
C202 O221 1.240 . S
C203 Gd200 2.818 . S
C203 C204 1.510 . S
C203 O222 1.249 . S
C203 O223 1.252 1_554 S
C204 C203 1.510 . S
C204 C205 1.404 . S
C204 C206 1.352 1_554 S
C205 C204 1.404 . S
C205 C209 1.389 . S
C205 H232 0.930 . S
C206 C204 1.352 1_556 S
C206 C208 1.374 . S
C206 H233 0.931 . S
C207 C208 1.368 . S
C207 C209 1.352 1_556 S
C208 C206 1.374 . S
C208 C207 1.368 . S
C208 H234 0.931 . S
C209 C205 1.389 . S
C209 C207 1.352 1_554 S
C209 H235 0.931 . S
C210 O224 1.256 . S
C210 O225 1.257 . S
C211 O226 1.240 1_554 S
C211 O227 1.240 . S
C212 Gd201 2.818 . S
C212 C213 1.510 . S
C212 O228 1.249 1_554 S
C212 O229 1.252 . S
C213 C212 1.510 . S
C213 C214 1.404 1_554 S
C213 C215 1.352 . S
C214 C213 1.404 1_556 S
C214 C218 1.389 . S
C214 H236 0.930 . S
C215 C213 1.352 . S
C215 C217 1.374 . S
C215 H237 0.931 . S
C216 C217 1.359 . S
C216 C218 1.364 1_554 S
C217 C215 1.374 . S
C217 C216 1.359 . S
C217 H238 0.931 . S
C218 C214 1.389 . S
C218 C216 1.364 1_556 S
C218 H239 0.931 . S
C219 O230 1.256 . S
C219 O231 1.257 . S
O220 Gd200 2.377 . S
O220 C202 1.240 . S
O221 Gd201 2.395 . S
O221 C202 1.240 . S
O222 Gd200 2.448 . S
O222 C203 1.249 . S
O223 Gd200 2.506 1_556 S
O223 C203 1.252 1_556 S
O224 Gd200 2.435 . S
O224 C210 1.256 . S
O225 Gd200 2.717 . S
O225 Gd201 2.327 . S
O225 C210 1.257 . S
O226 Gd201 2.377 1_556 S
O226 C211 1.240 1_556 S
O227 Gd200 2.395 . S
O227 C211 1.240 . S
O228 Gd201 2.448 1_556 S
O228 C212 1.249 1_556 S
O229 Gd201 2.506 . S
O229 C212 1.252 . S
O230 Gd201 2.435 1_556 S
O230 C219 1.256 . S
O231 Gd200 2.327 1_556 S
O231 Gd201 2.717 1_556 S
O231 C219 1.257 . S
H232 C205 0.930 . S
H233 C206 0.931 . S
H234 C208 0.931 . S
H235 C209 0.931 . S
H236 C214 0.930 . S
H237 C215 0.931 . S
H238 C217 0.931 . S
H239 C218 0.931 . S
Gd240 C243 2.818 . S
Gd240 O260 2.377 . S
Gd240 O262 2.448 . S
Gd240 O263 2.506 . S
Gd240 O264 2.435 . S
Gd240 O265 2.717 . S
Gd240 O267 2.395 . S
Gd240 O271 2.327 . S
Gd241 C252 2.818 . S
Gd241 O261 2.395 . S
Gd241 O265 2.327 . S
Gd241 O266 2.377 . S
Gd241 O268 2.448 . S
Gd241 O269 2.506 . S
Gd241 O270 2.435 . S
Gd241 O271 2.717 . S
C242 O260 1.240 . S
C242 O261 1.240 . S
C243 Gd240 2.818 . S
C243 C244 1.510 . S
C243 O262 1.249 . S
C243 O263 1.252 . S
C244 C243 1.510 . S
C244 C245 1.404 . S
C244 C246 1.352 . S
C245 C244 1.404 . S
C245 C249 1.389 . S
C245 H272 0.930 . S
C246 C244 1.352 . S
C246 C248 1.374 . S
C246 H273 0.931 . S
C247 C248 1.359 . S
C247 C249 1.364 . S
C248 C246 1.374 . S
C248 C247 1.359 . S
C248 H274 0.931 . S
C249 C245 1.389 . S
C249 C247 1.364 . S
C249 H275 0.931 . S
C250 O264 1.256 . S
C250 O265 1.257 . S
C251 O266 1.240 . S
C251 O267 1.240 . S
C252 Gd241 2.818 . S
C252 C253 1.510 . S
C252 O268 1.249 . S
C252 O269 1.252 . S
C253 C252 1.510 . S
C253 C254 1.404 . S
C253 C255 1.352 . S
C254 C253 1.404 . S
C254 C258 1.389 . S
C254 H276 0.930 . S
C255 C253 1.352 . S
C255 C257 1.374 . S
C255 H277 0.931 . S
C256 C257 1.359 . S
C256 C258 1.364 . S
C257 C255 1.374 . S
C257 C256 1.359 . S
C257 H278 0.931 . S
C258 C254 1.389 . S
C258 C256 1.364 . S
C258 H279 0.931 . S
C259 O270 1.256 . S
C259 O271 1.257 . S
O260 Gd240 2.377 . S
O260 C242 1.240 . S
O261 Gd241 2.395 . S
O261 C242 1.240 . S
O262 Gd240 2.448 . S
O262 C243 1.249 . S
O263 Gd240 2.506 . S
O263 C243 1.252 . S
O264 Gd240 2.435 . S
O264 C250 1.256 . S
O265 Gd240 2.717 . S
O265 Gd241 2.327 . S
O265 C250 1.257 . S
O266 Gd241 2.377 . S
O266 C251 1.240 . S
O267 Gd240 2.395 . S
O267 C251 1.240 . S
O268 Gd241 2.448 . S
O268 C252 1.249 . S
O269 Gd241 2.506 . S
O269 C252 1.252 . S
O270 Gd241 2.435 . S
O270 C259 1.256 . S
O271 Gd240 2.327 . S
O271 Gd241 2.717 . S
O271 C259 1.257 . S
H272 C245 0.930 . S
H273 C246 0.931 . S
H274 C248 0.931 . S
H275 C249 0.931 . S
H276 C254 0.930 . S
H277 C255 0.931 . S
H278 C257 0.931 . S
H279 C258 0.931 . S
Gd280 C283 2.818 . S
Gd280 O300 2.377 . S
Gd280 O302 2.448 . S
Gd280 O303 2.506 . S
Gd280 O304 2.435 . S
Gd280 O305 2.717 . S
Gd280 O307 2.395 . S
Gd280 O311 2.327 . S
Gd281 C292 2.818 . S
Gd281 O301 2.395 . S
Gd281 O305 2.327 . S
Gd281 O306 2.377 . S
Gd281 O308 2.448 . S
Gd281 O309 2.506 . S
Gd281 O310 2.435 . S
Gd281 O311 2.717 . S
C282 O300 1.240 . S
C282 O301 1.240 . S
C283 Gd280 2.818 . S
C283 C284 1.510 . S
C283 O302 1.249 . S
C283 O303 1.252 . S
C284 C283 1.510 . S
C284 C285 1.404 . S
C284 C286 1.352 . S
C285 C284 1.404 . S
C285 C289 1.389 . S
C285 H312 0.930 . S
C286 C284 1.352 . S
C286 C288 1.374 . S
C286 H313 0.931 . S
C287 C288 1.359 . S
C287 C289 1.364 . S
C288 C286 1.374 . S
C288 C287 1.359 . S
C288 H314 0.931 . S
C289 C285 1.389 . S
C289 C287 1.364 . S
C289 H315 0.931 . S
C290 O304 1.256 . S
C290 O305 1.257 . S
C291 O306 1.240 . S
C291 O307 1.240 . S
C292 Gd281 2.818 . S
C292 C293 1.510 . S
C292 O308 1.249 . S
C292 O309 1.252 . S
C293 C292 1.510 . S
C293 C294 1.404 . S
C293 C295 1.352 . S
C294 C293 1.404 . S
C294 C298 1.389 . S
C294 H316 0.930 . S
C295 C293 1.352 . S
C295 C297 1.374 . S
C295 H317 0.931 . S
C296 C297 1.359 . S
C296 C298 1.364 . S
C297 C295 1.374 . S
C297 C296 1.359 . S
C297 H318 0.931 . S
C298 C294 1.389 . S
C298 C296 1.364 . S
C298 H319 0.931 . S
C299 O310 1.256 . S
C299 O311 1.257 . S
O300 Gd280 2.377 . S
O300 C282 1.240 . S
O301 Gd281 2.395 . S
O301 C282 1.240 . S
O302 Gd280 2.448 . S
O302 C283 1.249 . S
O303 Gd280 2.506 . S
O303 C283 1.252 . S
O304 Gd280 2.435 . S
O304 C290 1.256 . S
O305 Gd280 2.717 . S
O305 Gd281 2.327 . S
O305 C290 1.257 . S
O306 Gd281 2.377 . S
O306 C291 1.240 . S
O307 Gd280 2.395 . S
O307 C291 1.240 . S
O308 Gd281 2.448 . S
O308 C292 1.249 . S
O309 Gd281 2.506 . S
O309 C292 1.252 . S
O310 Gd281 2.435 . S
O310 C299 1.256 . S
O311 Gd280 2.327 . S
O311 Gd281 2.717 . S
O311 C299 1.257 . S
H312 C285 0.930 . S
H313 C286 0.931 . S
H314 C288 0.931 . S
H315 C289 0.931 . S
H316 C294 0.930 . S
H317 C295 0.931 . S
H318 C297 0.931 . S
H319 C298 0.931 . S
C320 C321 1.363 . S
C320 C326 1.379 . S
C320 N328 1.356 . S
C321 C320 1.363 . S
C321 C327 1.363 1_554 S
C322 C323 1.363 1_556 S
C322 C327 1.379 . S
C322 N329 1.356 . S
C323 C322 1.363 1_554 S
C323 C326 1.363 . S
N324 C326 1.356 . S
N324 H336 0.984 . S
N324 H337 0.985 . S
N325 C327 1.356 . S
N325 H330 0.984 . S
N325 H331 0.985 . S
C326 C320 1.379 . S
C326 C323 1.363 . S
C326 N324 1.356 . S
C327 C321 1.363 1_556 S
C327 C322 1.379 . S
C327 N325 1.356 . S
N328 C320 1.356 . S
N328 H334 0.984 . S
N328 H335 0.984 . S
N329 C322 1.356 . S
N329 H332 0.984 . S
N329 H333 0.985 . S
H330 N325 0.984 . S
H331 N325 0.985 . S
H332 N329 0.984 . S
H333 N329 0.985 . S
H334 N328 0.984 . S
H335 N328 0.984 . S
H336 N324 0.984 . S
H337 N324 0.985 . S
C338 C339 1.363 1_556 S
C338 C344 1.379 . S
C338 N346 1.356 . S
C339 C338 1.363 1_554 S
C339 C345 1.363 . S
C340 C341 1.363 . S
C340 C345 1.379 . S
C340 N347 1.356 . S
C341 C340 1.363 . S
C341 C344 1.363 1_554 S
N342 C344 1.356 . S
N342 H354 0.984 . S
N342 H355 0.985 . S
N343 C345 1.356 . S
N343 H348 0.984 . S
N343 H349 0.985 . S
C344 C338 1.379 . S
C344 C341 1.363 1_556 S
C344 N342 1.356 . S
C345 C339 1.363 . S
C345 C340 1.379 . S
C345 N343 1.356 . S
N346 C338 1.356 . S
N346 H352 0.984 . S
N346 H353 0.984 . S
N347 C340 1.356 . S
N347 H350 0.984 . S
N347 H351 0.985 . S
H348 N343 0.984 . S
H349 N343 0.985 . S
H350 N347 0.984 . S
H351 N347 0.985 . S
H352 N346 0.984 . S
H353 N346 0.984 . S
H354 N342 0.984 . S
H355 N342 0.985 . S
C356 C357 1.363 . S
C356 C362 1.379 . S
C356 N364 1.356 . S
C357 C356 1.363 . S
C357 C363 1.363 . S
C358 C359 1.363 . S
C358 C363 1.379 . S
C358 N365 1.356 . S
C359 C358 1.363 . S
C359 C362 1.363 . S
N360 C362 1.356 . S
N360 H372 0.984 . S
N360 H373 0.985 . S
N361 C363 1.356 . S
N361 H366 0.984 . S
N361 H367 0.985 . S
C362 C356 1.379 . S
C362 C359 1.363 . S
C362 N360 1.356 . S
C363 C357 1.363 . S
C363 C358 1.379 . S
C363 N361 1.356 . S
N364 C356 1.356 . S
N364 H370 0.984 . S
N364 H371 0.984 . S
N365 C358 1.356 . S
N365 H368 0.984 . S
N365 H369 0.985 . S
H366 N361 0.984 . S
H367 N361 0.985 . S
H368 N365 0.984 . S
H369 N365 0.985 . S
H370 N364 0.984 . S
H371 N364 0.984 . S
H372 N360 0.984 . S
H373 N360 0.985 . S
C374 C375 1.363 . S
C374 C380 1.379 . S
C374 N382 1.356 . S
C375 C374 1.363 . S
C375 C381 1.363 . S
C376 C377 1.363 . S
C376 C381 1.379 . S
C376 N383 1.356 . S
C377 C376 1.363 . S
C377 C380 1.363 . S
N378 C380 1.356 . S
N378 H390 0.984 . S
N378 H391 0.985 . S
N379 C381 1.356 . S
N379 H384 0.984 . S
N379 H385 0.985 . S
C380 C374 1.379 . S
C380 C377 1.363 . S
C380 N378 1.356 . S
C381 C375 1.363 . S
C381 C376 1.379 . S
C381 N379 1.356 . S
N382 C374 1.356 . S
N382 H388 0.984 . S
N382 H389 0.984 . S
N383 C376 1.356 . S
N383 H386 0.984 . S
N383 H387 0.985 . S
H384 N379 0.984 . S
H385 N379 0.985 . S
H386 N383 0.984 . S
H387 N383 0.985 . S
H388 N382 0.984 . S
H389 N382 0.984 . S
H390 N378 0.984 . S
H391 N378 0.985 . S
C392 C393 1.363 . S
C392 C398 1.379 1_655 S
C392 N400 1.356 . S
C393 C392 1.363 . S
C393 C399 1.363 1_654 S
C394 C395 1.363 1_556 S
C394 C399 1.379 . S
C394 N401 1.356 . S
C395 C394 1.363 1_554 S
C395 C398 1.363 . S
N396 C398 1.356 . S
N396 H408 0.984 . S
N396 H409 0.985 . S
N397 C399 1.356 1_655 S
N397 H402 0.984 . S
N397 H403 0.985 . S
C398 C392 1.379 1_455 S
C398 C395 1.363 . S
C398 N396 1.356 . S
C399 C393 1.363 1_456 S
C399 C394 1.379 . S
C399 N397 1.356 1_455 S
N400 C392 1.356 . S
N400 H406 0.984 . S
N400 H407 0.984 . S
N401 C394 1.356 . S
N401 H404 0.984 . S
N401 H405 0.985 . S
H402 N397 0.984 . S
H403 N397 0.985 . S
H404 N401 0.984 . S
H405 N401 0.985 . S
H406 N400 0.984 . S
H407 N400 0.984 . S
H408 N396 0.984 . S
H409 N396 0.985 . S
C410 C411 1.363 1_655 S
C410 C416 1.379 . S
C410 N418 1.356 1_655 S
C411 C410 1.363 1_455 S
C411 C417 1.363 . S
C412 C413 1.363 . S
C412 C417 1.379 1_655 S
C412 N419 1.356 . S
C413 C412 1.363 . S
C413 C416 1.363 . S
N414 C416 1.356 1_556 S
N414 H426 0.984 . S
N414 H427 0.985 1_556 S
N415 C417 1.356 . S
N415 H420 0.984 . S
N415 H421 0.985 . S
C416 C410 1.379 . S
C416 C413 1.363 . S
C416 N414 1.356 1_554 S
C417 C411 1.363 . S
C417 C412 1.379 1_455 S
C417 N415 1.356 . S
N418 C410 1.356 1_455 S
N418 H424 0.984 1_454 S
N418 H425 0.984 . S
N419 C412 1.356 . S
N419 H422 0.984 . S
N419 H423 0.985 . S
H420 N415 0.984 . S
H421 N415 0.985 . S
H422 N419 0.984 . S
H423 N419 0.985 . S
H424 N418 0.984 1_656 S
H425 N418 0.984 . S
H426 N414 0.984 . S
H427 N414 0.985 1_554 S
C428 C429 1.363 . S
C428 C434 1.379 . S
C428 N436 1.356 . S
C429 C428 1.363 . S
C429 C435 1.363 . S
C430 C431 1.363 . S
C430 C435 1.379 1_655 S
C430 N437 1.356 . S
C431 C430 1.363 . S
C431 C434 1.363 1_655 S
N432 C434 1.356 1_655 S
N432 H444 0.984 1_655 S
N432 H445 0.985 . S
N433 C435 1.356 . S
N433 H438 0.984 . S
N433 H439 0.985 . S
C434 C428 1.379 . S
C434 C431 1.363 1_455 S
C434 N432 1.356 1_455 S
C435 C429 1.363 . S
C435 C430 1.379 1_455 S
C435 N433 1.356 . S
N436 C428 1.356 . S
N436 H442 0.984 . S
N436 H443 0.984 . S
N437 C430 1.356 . S
N437 H440 0.984 . S
N437 H441 0.985 . S
H438 N433 0.984 . S
H439 N433 0.985 . S
H440 N437 0.984 . S
H441 N437 0.985 . S
H442 N436 0.984 . S
H443 N436 0.984 . S
H444 N432 0.984 1_455 S
H445 N432 0.985 . S
C446 C447 1.363 . S
C446 C452 1.379 . S
C446 N454 1.356 . S
C447 C446 1.363 . S
C447 C453 1.363 . S
C448 C449 1.363 . S
C448 C453 1.379 1_455 S
C448 N455 1.356 . S
C449 C448 1.363 . S
C449 C452 1.363 1_455 S
N450 C452 1.356 1_455 S
N450 H462 0.984 1_455 S
N450 H463 0.985 . S
N451 C453 1.356 . S
N451 H456 0.984 . S
N451 H457 0.985 . S
C452 C446 1.379 . S
C452 C449 1.363 1_655 S
C452 N450 1.356 1_655 S
C453 C447 1.363 . S
C453 C448 1.379 1_655 S
C453 N451 1.356 . S
N454 C446 1.356 . S
N454 H460 0.984 . S
N454 H461 0.984 . S
N455 C448 1.356 . S
N455 H458 0.984 . S
N455 H459 0.985 . S
H456 N451 0.984 . S
H457 N451 0.985 . S
H458 N455 0.984 . S
H459 N455 0.985 . S
H460 N454 0.984 . S
H461 N454 0.984 . S
H462 N450 0.984 1_655 S
H463 N450 0.985 . S
C464 C465 1.363 1_556 S
C464 C470 1.379 1_455 S
C464 N472 1.356 . S
C465 C464 1.363 1_554 S
C465 C471 1.363 . S
C466 C467 1.363 . S
C466 C471 1.379 1_655 S
C466 N473 1.356 . S
C467 C466 1.363 . S
C467 C470 1.363 1_554 S
N468 C470 1.356 . S
N468 H480 0.984 . S
N468 H481 0.985 . S
N469 C471 1.356 . S
N469 H474 0.984 . S
N469 H475 0.985 . S
C470 C464 1.379 1_655 S
C470 C467 1.363 1_556 S
C470 N468 1.356 . S
C471 C465 1.363 . S
C471 C466 1.379 1_455 S
C471 N469 1.356 . S
N472 C464 1.356 . S
N472 H478 0.984 . S
N472 H479 0.984 . S
N473 C466 1.356 . S
N473 H476 0.984 . S
N473 H477 0.985 . S
H474 N469 0.984 . S
H475 N469 0.985 . S
H476 N473 0.984 . S
H477 N473 0.985 . S
H478 N472 0.984 . S
H479 N472 0.984 . S
H480 N468 0.984 . S
H481 N468 0.985 . S
C482 C483 1.363 . S
C482 C488 1.379 . S
C482 N490 1.356 . S
C483 C482 1.363 . S
C483 C489 1.363 1_455 S
C484 C485 1.363 . S
C484 C489 1.379 . S
C484 N491 1.356 . S
C485 C484 1.363 . S
C485 C488 1.363 1_655 S
N486 C488 1.356 1_655 S
N486 H498 0.984 1_655 S
N486 H499 0.985 . S
N487 C489 1.356 1_455 S
N487 H492 0.984 . S
N487 H493 0.985 1_455 S
C488 C482 1.379 . S
C488 C485 1.363 1_455 S
C488 N486 1.356 1_455 S
C489 C483 1.363 1_655 S
C489 C484 1.379 . S
C489 N487 1.356 1_655 S
N490 C482 1.356 . S
N490 H496 0.984 . S
N490 H497 0.984 . S
N491 C484 1.356 . S
N491 H494 0.984 . S
N491 H495 0.985 . S
H492 N487 0.984 . S
H493 N487 0.985 1_655 S
H494 N491 0.984 . S
H495 N491 0.985 . S
H496 N490 0.984 . S
H497 N490 0.984 . S
H498 N486 0.984 1_455 S
H499 N486 0.985 . S
C500 C501 1.363 1_556 S
C500 C506 1.341 1_565 S
C500 N508 1.356 . S
C501 C500 1.363 1_554 S
C501 C507 1.401 . S
C502 C503 1.363 . S
C502 C507 1.341 1_545 S
C502 N509 1.356 . S
C503 C502 1.363 . S
C503 C506 1.401 1_554 S
N504 C506 1.372 . S
N504 H516 0.956 1_545 S
N504 H517 0.985 . S
N505 C507 1.372 . S
N505 H510 0.984 . S
N505 H511 0.956 1_565 S
C506 C500 1.341 1_545 S
C506 C503 1.401 1_556 S
C506 N504 1.372 . S
C507 C501 1.401 . S
C507 C502 1.341 1_565 S
C507 N505 1.372 . S
N508 C500 1.356 . S
N508 H514 0.984 . S
N508 H515 0.984 . S
N509 C502 1.356 . S
N509 H512 0.984 . S
N509 H513 0.985 . S
H510 N505 0.984 . S
H511 N505 0.956 1_545 S
H512 N509 0.984 . S
H513 N509 0.985 . S
H514 N508 0.984 . S
H515 N508 0.984 . S
H516 N504 0.956 1_565 S
H517 N504 0.985 . S
C518 C519 1.363 1_565 S
C518 C524 1.379 . S
C518 N526 1.360 . S
C519 C518 1.363 1_545 S
C519 C525 1.363 . S
C520 C521 1.363 1_545 S
C520 C525 1.379 . S
C520 N527 1.360 . S
C521 C520 1.363 1_565 S
C521 C524 1.363 . S
N522 C524 1.356 . S
N522 H534 0.984 . S
N522 H535 0.985 . S
N523 C525 1.356 . S
N523 H528 0.984 . S
N523 H529 0.985 . S
C524 C518 1.379 . S
C524 C521 1.363 . S
C524 N522 1.356 . S
C525 C519 1.363 . S
C525 C520 1.379 . S
C525 N523 1.356 . S
N526 C518 1.360 . S
N526 H532 1.007 . S
N526 H533 0.959 1_565 S
N527 C520 1.360 . S
N527 H530 0.959 1_545 S
N527 H531 1.007 . S
H528 N523 0.984 . S
H529 N523 0.985 . S
H530 N527 0.959 1_565 S
H531 N527 1.007 . S
H532 N526 1.007 . S
H533 N526 0.959 1_545 S
H534 N522 0.984 . S
H535 N522 0.985 . S
C536 C537 1.363 1_556 S
C536 C542 1.379 . S
C536 N544 1.356 . S
C537 C536 1.363 1_554 S
C537 C543 1.363 . S
C538 C539 1.363 . S
C538 C543 1.379 . S
C538 N545 1.356 . S
C539 C538 1.363 . S
C539 C542 1.363 1_554 S
N540 C542 1.356 . S
N540 H552 0.984 . S
N540 H553 0.985 . S
N541 C543 1.356 . S
N541 H546 0.984 . S
N541 H547 0.985 . S
C542 C536 1.379 . S
C542 C539 1.363 1_556 S
C542 N540 1.356 . S
C543 C537 1.363 . S
C543 C538 1.379 . S
C543 N541 1.356 . S
N544 C536 1.356 . S
N544 H550 0.984 . S
N544 H551 0.984 . S
N545 C538 1.356 . S
N545 H548 0.984 . S
N545 H549 0.985 . S
H546 N541 0.984 . S
H547 N541 0.985 . S
H548 N545 0.984 . S
H549 N545 0.985 . S
H550 N544 0.984 . S
H551 N544 0.984 . S
H552 N540 0.984 . S
H553 N540 0.985 . S
C554 C555 1.363 . S
C554 C560 1.379 . S
C554 N562 1.356 . S
C555 C554 1.363 . S
C555 C561 1.363 1_554 S
C556 C557 1.363 1_556 S
C556 C561 1.379 . S
C556 N563 1.356 . S
C557 C556 1.363 1_554 S
C557 C560 1.363 . S
N558 C560 1.356 . S
N558 H570 0.984 . S
N558 H571 0.985 . S
N559 C561 1.356 . S
N559 H564 0.984 . S
N559 H565 0.985 . S
C560 C554 1.379 . S
C560 C557 1.363 . S
C560 N558 1.356 . S
C561 C555 1.363 1_556 S
C561 C556 1.379 . S
C561 N559 1.356 . S
N562 C554 1.356 . S
N562 H568 0.984 . S
N562 H569 0.984 . S
N563 C556 1.356 . S
N563 H566 0.984 . S
N563 H567 0.985 . S
H564 N559 0.984 . S
H565 N559 0.985 . S
H566 N563 0.984 . S
H567 N563 0.985 . S
H568 N562 0.984 . S
H569 N562 0.984 . S
H570 N558 0.984 . S
H571 N558 0.985 . S
C572 C573 1.363 . S
C572 C578 1.379 . S
C572 N580 1.356 . S
C573 C572 1.363 . S
C573 C579 1.363 . S
C574 C575 1.363 . S
C574 C579 1.379 . S
C574 N581 1.356 . S
C575 C574 1.363 . S
C575 C578 1.363 . S
N576 C578 1.356 . S
N576 H588 0.984 . S
N576 H589 0.985 . S
N577 C579 1.356 . S
N577 H582 0.984 . S
N577 H583 0.985 . S
C578 C572 1.379 . S
C578 C575 1.363 . S
C578 N576 1.356 . S
C579 C573 1.363 . S
C579 C574 1.379 . S
C579 N577 1.356 . S
N580 C572 1.356 . S
N580 H586 0.984 . S
N580 H587 0.984 . S
N581 C574 1.356 . S
N581 H584 0.984 . S
N581 H585 0.985 . S
H582 N577 0.984 . S
H583 N577 0.985 . S
H584 N581 0.984 . S
H585 N581 0.985 . S
H586 N580 0.984 . S
H587 N580 0.984 . S
H588 N576 0.984 . S
H589 N576 0.985 . S
C590 C591 1.363 . S
C590 C596 1.379 . S
C590 N598 1.356 . S
C591 C590 1.363 . S
C591 C597 1.363 . S
C592 C593 1.363 . S
C592 C597 1.379 . S
C592 N599 1.356 . S
C593 C592 1.363 . S
C593 C596 1.363 . S
N594 C596 1.356 . S
N594 H606 0.984 . S
N594 H607 0.985 . S
N595 C597 1.356 . S
N595 H600 0.984 . S
N595 H601 0.985 . S
C596 C590 1.379 . S
C596 C593 1.363 . S
C596 N594 1.356 . S
C597 C591 1.363 . S
C597 C592 1.379 . S
C597 N595 1.356 . S
N598 C590 1.356 . S
N598 H604 0.984 . S
N598 H605 0.984 . S
N599 C592 1.356 . S
N599 H602 0.984 . S
N599 H603 0.985 . S
H600 N595 0.984 . S
H601 N595 0.985 . S
H602 N599 0.984 . S
H603 N599 0.985 . S
H604 N598 0.984 . S
H605 N598 0.984 . S
H606 N594 0.984 . S
H607 N594 0.985 . S
C608 C609 1.363 1_655 S
C608 C614 1.379 . S
C608 N616 1.356 . S
C609 C608 1.363 1_455 S
C609 C615 1.363 . S
C610 C611 1.363 1_455 S
C610 C615 1.379 . S
C610 N617 1.356 . S
C611 C610 1.363 1_655 S
C611 C614 1.363 . S
N612 C614 1.356 . S
N612 H624 0.984 . S
N612 H625 0.985 . S
N613 C615 1.356 . S
N613 H618 0.984 . S
N613 H619 0.985 . S
C614 C608 1.379 . S
C614 C611 1.363 . S
C614 N612 1.356 . S
C615 C609 1.363 . S
C615 C610 1.379 . S
C615 N613 1.356 . S
N616 C608 1.356 . S
N616 H622 0.984 . S
N616 H623 0.984 . S
N617 C610 1.356 . S
N617 H620 0.984 . S
N617 H621 0.985 . S
H618 N613 0.984 . S
H619 N613 0.985 . S
H620 N617 0.984 . S
H621 N617 0.985 . S
H622 N616 0.984 . S
H623 N616 0.984 . S
H624 N612 0.984 . S
H625 N612 0.985 . S
C626 C627 1.363 . S
C626 C632 1.379 . S
C626 N634 1.356 . S
C627 C626 1.363 . S
C627 C633 1.363 1_655 S
C628 C629 1.363 . S
C628 C633 1.379 . S
C628 N635 1.356 . S
C629 C628 1.363 . S
C629 C632 1.363 1_455 S
N630 C632 1.356 . S
N630 H642 0.984 . S
N630 H643 0.985 . S
N631 C633 1.356 . S
N631 H636 0.984 . S
N631 H637 0.985 . S
C632 C626 1.379 . S
C632 C629 1.363 1_655 S
C632 N630 1.356 . S
C633 C627 1.363 1_455 S
C633 C628 1.379 . S
C633 N631 1.356 . S
N634 C626 1.356 . S
N634 H640 0.984 . S
N634 H641 0.984 . S
N635 C628 1.356 . S
N635 H638 0.984 . S
N635 H639 0.985 . S
H636 N631 0.984 . S
H637 N631 0.985 . S
H638 N635 0.984 . S
H639 N635 0.985 . S
H640 N634 0.984 . S
H641 N634 0.984 . S
H642 N630 0.984 . S
H643 N630 0.985 . S
C644 C645 1.363 . S
C644 C650 1.379 . S
C644 N652 1.356 . S
C645 C644 1.363 . S
C645 C651 1.363 1_655 S
C646 C647 1.363 . S
C646 C651 1.379 . S
C646 N653 1.356 . S
C647 C646 1.363 . S
C647 C650 1.363 1_455 S
N648 C650 1.356 . S
N648 H660 0.984 . S
N648 H661 0.985 . S
N649 C651 1.356 . S
N649 H654 0.984 . S
N649 H655 0.985 . S
C650 C644 1.379 . S
C650 C647 1.363 1_655 S
C650 N648 1.356 . S
C651 C645 1.363 1_455 S
C651 C646 1.379 . S
C651 N649 1.356 . S
N652 C644 1.356 . S
N652 H658 0.984 . S
N652 H659 0.984 . S
N653 C646 1.356 . S
N653 H656 0.984 . S
N653 H657 0.985 . S
H654 N649 0.984 . S
H655 N649 0.985 . S
H656 N653 0.984 . S
H657 N653 0.985 . S
H658 N652 0.984 . S
H659 N652 0.984 . S
H660 N648 0.984 . S
H661 N648 0.985 . S
C662 C663 1.363 1_455 S
C662 C668 1.379 . S
C662 N670 1.356 . S
C663 C662 1.363 1_655 S
C663 C669 1.363 . S
C664 C665 1.363 1_655 S
C664 C669 1.379 . S
C664 N671 1.356 . S
C665 C664 1.363 1_455 S
C665 C668 1.363 . S
N666 C668 1.356 . S
N666 H678 0.984 . S
N666 H679 0.985 . S
N667 C669 1.356 . S
N667 H672 0.984 . S
N667 H673 0.985 . S
C668 C662 1.379 . S
C668 C665 1.363 . S
C668 N666 1.356 . S
C669 C663 1.363 . S
C669 C664 1.379 . S
C669 N667 1.356 . S
N670 C662 1.356 . S
N670 H676 0.984 . S
N670 H677 0.984 . S
N671 C664 1.356 . S
N671 H674 0.984 . S
N671 H675 0.985 . S
H672 N667 0.984 . S
H673 N667 0.985 . S
H674 N671 0.984 . S
H675 N671 0.985 . S
H676 N670 0.984 . S
H677 N670 0.984 . S
H678 N666 0.984 . S
H679 N666 0.985 . S
C680 C681 1.363 . S
C680 C686 1.379 . S
C680 N688 1.356 . S
C681 C680 1.363 . S
C681 C687 1.363 . S
C682 C683 1.363 . S
C682 C687 1.379 . S
C682 N689 1.356 . S
C683 C682 1.363 . S
C683 C686 1.363 . S
N684 C686 1.356 . S
N684 H696 0.984 . S
N684 H697 0.985 . S
N685 C687 1.356 . S
N685 H690 0.984 . S
N685 H691 0.985 . S
C686 C680 1.379 . S
C686 C683 1.363 . S
C686 N684 1.356 . S
C687 C681 1.363 . S
C687 C682 1.379 . S
C687 N685 1.356 . S
N688 C680 1.356 . S
N688 H694 0.984 . S
N688 H695 0.984 . S
N689 C682 1.356 . S
N689 H692 0.984 . S
N689 H693 0.985 . S
H690 N685 0.984 . S
H691 N685 0.985 . S
H692 N689 0.984 . S
H693 N689 0.985 . S
H694 N688 0.984 . S
H695 N688 0.984 . S
H696 N684 0.984 . S
H697 N684 0.985 . S
C698 C699 1.363 . S
C698 C704 1.379 . S
C698 N706 1.356 . S
C699 C698 1.363 . S
C699 C705 1.363 . S
C700 C701 1.363 . S
C700 C705 1.379 . S
C700 N707 1.356 . S
C701 C700 1.363 . S
C701 C704 1.363 . S
N702 C704 1.356 . S
N702 H714 0.984 . S
N702 H715 0.985 . S
N703 C705 1.356 . S
N703 H708 0.984 . S
N703 H709 0.985 . S
C704 C698 1.379 . S
C704 C701 1.363 . S
C704 N702 1.356 . S
C705 C699 1.363 . S
C705 C700 1.379 . S
C705 N703 1.356 . S
N706 C698 1.356 . S
N706 H712 0.984 . S
N706 H713 0.984 . S
N707 C700 1.356 . S
N707 H710 0.984 . S
N707 H711 0.985 . S
H708 N703 0.984 . S
H709 N703 0.985 . S
H710 N707 0.984 . S
H711 N707 0.985 . S
H712 N706 0.984 . S
H713 N706 0.984 . S
H714 N702 0.984 . S
H715 N702 0.985 . S
C716 C717 1.363 . S
C716 C722 1.379 . S
C716 N724 1.356 . S
C717 C716 1.363 . S
C717 C723 1.363 . S
C718 C719 1.363 . S
C718 C723 1.379 . S
C718 N725 1.356 . S
C719 C718 1.363 . S
C719 C722 1.363 . S
N720 C722 1.356 . S
N720 H732 0.984 . S
N720 H733 0.985 . S
N721 C723 1.356 . S
N721 H726 0.984 . S
N721 H727 0.985 . S
C722 C716 1.379 . S
C722 C719 1.363 . S
C722 N720 1.356 . S
C723 C717 1.363 . S
C723 C718 1.379 . S
C723 N721 1.356 . S
N724 C716 1.356 . S
N724 H730 0.984 . S
N724 H731 0.984 . S
N725 C718 1.356 . S
N725 H728 0.984 . S
N725 H729 0.985 . S
H726 N721 0.984 . S
H727 N721 0.985 . S
H728 N725 0.984 . S
H729 N725 0.985 . S
H730 N724 0.984 . S
H731 N724 0.984 . S
H732 N720 0.984 . S
H733 N720 0.985 . S
C734 C735 1.363 . S
C734 C740 1.379 . S
C734 N742 1.356 . S
C735 C734 1.363 . S
C735 C741 1.363 . S
C736 C737 1.363 . S
C736 C741 1.379 . S
C736 N743 1.356 . S
C737 C736 1.363 . S
C737 C740 1.363 . S
N738 C740 1.356 . S
N738 H750 0.984 . S
N738 H751 0.985 . S
N739 C741 1.356 . S
N739 H744 0.984 . S
N739 H745 0.985 . S
C740 C734 1.379 . S
C740 C737 1.363 . S
C740 N738 1.356 . S
C741 C735 1.363 . S
C741 C736 1.379 . S
C741 N739 1.356 . S
N742 C734 1.356 . S
N742 H748 0.984 . S
N742 H749 0.984 . S
N743 C736 1.356 . S
N743 H746 0.984 . S
N743 H747 0.985 . S
H744 N739 0.984 . S
H745 N739 0.985 . S
H746 N743 0.984 . S
H747 N743 0.985 . S
H748 N742 0.984 . S
H749 N742 0.984 . S
H750 N738 0.984 . S
H751 N738 0.985 . S
C321 C11 2.286 . S
C323 C2 2.286 . S
C339 C51 2.286 . S
C341 C42 2.286 . S
C357 C91 2.286 . S
C359 C82 2.286 . S
C375 C131 2.286 . S
C377 C122 2.286 . S
C393 C171 2.286 . S
C395 C162 2.286 . S
C411 C202 2.286 . S
C413 C211 2.286 . S
C429 C251 2.286 . S
C431 C242 2.286 . S
C447 C282 2.286 . S
C449 C291 2.286 . S
C465 C56 2.951 . S
C467 C7 2.951 1_554 S
C483 C127 2.952 . S
C485 C96 2.952 . S
C501 C167 2.952 1_554 S
C503 C216 2.952 . S
C519 C256 2.951 . S
C521 C287 2.951 . S
C537 C16 2.069 . S
C539 C207 2.067 1_554 S
C555 C176 2.069 . S
C557 C47 2.067 1_554 S
C573 C87 2.069 . S
C575 C296 2.069 . S
C591 C136 2.069 . S
C593 C247 2.069 . S
C609 C10 1.473 . S
C611 C130 1.473 . S
C627 C50 1.610 . S
C629 C90 1.610 . S
C645 C59 1.474 . S
C647 C99 1.473 . S
C663 C139 1.610 . S
C665 C19 1.610 . S
C681 C170 1.473 . S
C683 C290 1.473 . S
C699 C210 1.610 . S
C701 C250 1.610 . S
C717 C219 1.474 . S
C719 C259 1.474 . S
C735 C299 1.610 . S
C737 C179 1.610 . S
