# Generated by pormake.
# Topology soe, (5)-cn, num edge types: 1
# Building blocks:
#     Node 0, Type 0, BuildingBlock: BEQFEK_clean_sbu_0, # of connection points: 5
#     Node 1, Type 0, BuildingBlock: BEQFEK_clean_sbu_0, # of connection points: 5
#     Node 2, Type 0, BuildingBlock: BEQFEK_clean_sbu_0, # of connection points: 5
#     Node 3, Type 0, BuildingBlock: BEQFEK_clean_sbu_0, # of connection points: 5
#     Node 4, Type 0, BuildingBlock: BEQFEK_clean_sbu_0, # of connection points: 5
#     Node 5, Type 0, BuildingBlock: BEQFEK_clean_sbu_0, # of connection points: 5
#     Node 6, Type 0, BuildingBlock: BEQFEK_clean_sbu_0, # of connection points: 5
#     Node 7, Type 0, BuildingBlock: BEQFEK_clean_sbu_0, # of connection points: 5
#     Edge 8, Type (0, 0), BuildingBlock: UVAHIK_clean_linker_0, # of connection points: 2
#     Edge 9, Type (0, 0), BuildingBlock: UVAHIK_clean_linker_0, # of connection points: 2
#     Edge 10, Type (0, 0), BuildingBlock: UVAHIK_clean_linker_0, # of connection points: 2
#     Edge 11, Type (0, 0), BuildingBlock: UVAHIK_clean_linker_0, # of connection points: 2
#     Edge 12, Type (0, 0), BuildingBlock: UVAHIK_clean_linker_0, # of connection points: 2
#     Edge 13, Type (0, 0), BuildingBlock: UVAHIK_clean_linker_0, # of connection points: 2
#     Edge 14, Type (0, 0), BuildingBlock: UVAHIK_clean_linker_0, # of connection points: 2
#     Edge 15, Type (0, 0), BuildingBlock: UVAHIK_clean_linker_0, # of connection points: 2
#     Edge 16, Type (0, 0), BuildingBlock: UVAHIK_clean_linker_0, # of connection points: 2
#     Edge 17, Type (0, 0), BuildingBlock: UVAHIK_clean_linker_0, # of connection points: 2
#     Edge 18, Type (0, 0), BuildingBlock: UVAHIK_clean_linker_0, # of connection points: 2
#     Edge 19, Type (0, 0), BuildingBlock: UVAHIK_clean_linker_0, # of connection points: 2
#     Edge 20, Type (0, 0), BuildingBlock: UVAHIK_clean_linker_0, # of connection points: 2
#     Edge 21, Type (0, 0), BuildingBlock: UVAHIK_clean_linker_0, # of connection points: 2
#     Edge 22, Type (0, 0), BuildingBlock: UVAHIK_clean_linker_0, # of connection points: 2
#     Edge 23, Type (0, 0), BuildingBlock: UVAHIK_clean_linker_0, # of connection points: 2
#     Edge 24, Type (0, 0), BuildingBlock: UVAHIK_clean_linker_0, # of connection points: 2
#     Edge 25, Type (0, 0), BuildingBlock: UVAHIK_clean_linker_0, # of connection points: 2
#     Edge 26, Type (0, 0), BuildingBlock: UVAHIK_clean_linker_0, # of connection points: 2
#     Edge 27, Type (0, 0), BuildingBlock: UVAHIK_clean_linker_0, # of connection points: 2
# Relax obj value: 0.151
# Max RMSD: 0.227
# Mean RMSD: 0.168
data_MOF--net-soe--node1-BEQFEK_clean_sbu_0--edge1-UVAHIK_clean_linker_0
_symmetry_space_group_name_H-M    P1
_symmetry_Int_Tables_number       1
_symmetry_cell_setting            triclinic
loop_
_symmetry_equiv_pos_as_xyz
'x, y, z'
_cell_length_a     75.530042
_cell_length_b     50.70334
_cell_length_c     23.292938
_cell_angle_alpha  89.483498
_cell_angle_beta   90.603732
_cell_angle_gamma 92.950821
loop_
_atom_site_label
_atom_site_type_symbol
_atom_site_fract_x
_atom_site_fract_y
_atom_site_fract_z
_atom_type_partial_charge
Co0 Co 0.11243 0.98438 0.16423 0.0
Co1 Co 0.11669 0.00481 0.03773 0.0
C2 C 0.14382 0.97182 0.0966 0.0
O3 O 0.13501 0.96965 0.14272 0.0
O4 O 0.13815 0.98467 0.0536 0.0
C5 C 0.11351 0.95359 0.26867 0.0
O6 O 0.12533 0.94031 0.24171 0.0
C7 C 0.11606 0.99422 0.91533 0.0
C8 C 0.11685 0.03421 0.87666 0.0
C9 C 0.1161 0.0076 0.86316 0.0
N10 N 0.11651 0.01208 0.95761 0.0
N11 N 0.11701 0.03597 0.93433 0.0
C12 C 0.11667 0.96506 0.9253 0.0
H13 H 0.12151 0.96077 0.9693 0.0
H14 H 0.10315 0.9557 0.92062 0.0
H15 H 0.1253 0.95621 0.8932 0.0
C16 C 0.07796 0.96368 0.11732 0.0
N17 N 0.09413 0.9757 0.11079 0.0
N18 N 0.09536 0.98584 0.05875 0.0
C19 C 0.07971 0.98157 0.03116 0.0
C20 C 0.06821 0.96704 0.06703 0.0
C21 C 0.07208 0.94955 0.17102 0.0
H22 H 0.06815 0.96423 0.20292 0.0
H23 H 0.0832 0.93872 0.18958 0.0
H24 H 0.06068 0.93539 0.16249 0.0
O25 O 0.11615 0.02336 0.16959 0.0
O26 O 0.11892 0.03833 0.08005 0.0
H27 H 0.08249 0.01396 0.97103 0.0
H28 H 0.06056 -0.00164 0.97371 0.0
C29 C 0.07492 0.99478 0.97572 0.0
H30 H 0.07805 0.98194 0.93934 0.0
H31 H 0.1175 0.05343 0.95778 0.0
O32 O 0.10603 0.97217 0.24252 0.0
C33 C 0.11854 0.04238 0.13389 0.0
Co34 Co 0.3617 0.91596 0.18027 0.0
Co35 Co 0.36003 0.8964 0.05331 0.0
C36 C 0.3287 0.91895 0.11065 0.0
O37 O 0.33718 0.92301 0.15743 0.0
O38 O 0.33602 0.90897 0.0676 0.0
C39 C 0.35656 0.94599 0.28249 0.0
O40 O 0.34348 0.95593 0.25319 0.0
C41 C 0.35882 0.90738 0.93066 0.0
C42 C 0.36393 0.86872 0.89287 0.0
C43 C 0.36068 0.89467 0.87881 0.0
N44 N 0.36111 0.88986 0.97333 0.0
N45 N 0.36413 0.86677 0.95056 0.0
C46 C 0.35391 0.93527 0.93988 0.0
H47 H 0.34865 0.9377 0.98364 0.0
H48 H 0.36582 0.94878 0.93527 0.0
H49 H 0.34394 0.941 0.90732 0.0
C50 C 0.3931 0.94656 0.13599 0.0
N51 N 0.37844 0.93074 0.12786 0.0
N52 N 0.37832 0.92155 0.07521 0.0
C53 C 0.3932 0.93066 0.04859 0.0
C54 C 0.40294 0.9471 0.08595 0.0
C55 C 0.39794 0.95964 0.1917 0.0
H56 H 0.40225 0.94454 0.22289 0.0
H57 H 0.38614 0.9687 0.20946 0.0
H58 H 0.40875 0.9751 0.18621 0.0
O59 O 0.36402 0.87725 0.18568 0.0
O60 O 0.36296 0.86296 0.09579 0.0
H61 H 0.39485 0.89924 0.98769 0.0
H62 H 0.41426 0.92127 0.991 0.0
C63 C 0.39957 0.92012 0.99296 0.0
H64 H 0.39442 0.93197 0.95685 0.0
H65 H 0.36629 0.84968 0.97439 0.0
O66 O 0.36622 0.92956 0.25862 0.0
C67 C 0.36435 0.85857 0.14955 0.0
Co68 Co 0.13603 0.36393 0.32092 0.0
Co69 Co 0.14068 0.3441 0.44765 0.0
C70 C 0.16752 0.38145 0.39111 0.0
O71 O 0.15867 0.38178 0.34437 0.0
O72 O 0.16209 0.36772 0.43406 0.0
C73 C 0.13752 0.39495 0.21628 0.0
O74 O 0.14988 0.40937 0.24318 0.0
C75 C 0.1431 0.35248 0.57084 0.0
C76 C 0.13548 0.31299 0.60625 0.0
C77 C 0.13998 0.33882 0.62198 0.0
N78 N 0.14043 0.33554 0.52723 0.0
N79 N 0.13614 0.31188 0.5486 0.0
C80 C 0.1466 0.38159 0.56251 0.0
H81 H 0.14255 0.38771 0.51863 0.0
H82 H 0.13935 0.39279 0.59469 0.0
H83 H 0.161 0.38645 0.56789 0.0
C84 C 0.10224 0.381 0.36748 0.0
N85 N 0.11805 0.37018 0.37388 0.0
N86 N 0.11959 0.36099 0.42666 0.0
C87 C 0.10456 0.36517 0.45519 0.0
C88 C 0.09317 0.37809 0.41872 0.0
C89 C 0.09562 0.39219 0.31211 0.0
H90 H 0.09503 0.37653 0.27907 0.0
H91 H 0.10512 0.40815 0.29709 0.0
H92 H 0.08228 0.40007 0.31663 0.0
O93 O 0.13881 0.32555 0.31468 0.0
O94 O 0.14193 0.31088 0.40408 0.0
H95 H 0.10468 0.33608 0.52251 0.0
H96 H 0.08708 0.3587 0.52807 0.0
C97 C 0.10111 0.35683 0.51607 0.0
H98 H 0.10941 0.36957 0.54513 0.0
H99 H 0.13308 0.2952 0.52377 0.0
O100 O 0.12959 0.37579 0.24263 0.0
C101 C 0.14092 0.30675 0.35027 0.0
Co102 Co 0.3702 0.53307 0.32389 0.0
Co103 Co 0.36781 0.5516 0.45107 0.0
C104 C 0.33798 0.52025 0.39255 0.0
O105 O 0.34644 0.51902 0.34587 0.0
O106 O 0.34472 0.53219 0.43599 0.0
C107 C 0.36643 0.50197 0.22144 0.0
O108 O 0.35403 0.48861 0.25021 0.0
C109 C 0.36708 0.54031 0.5737 0.0
C110 C 0.37101 0.57999 0.61171 0.0
C111 C 0.36859 0.55342 0.6256 0.0
N112 N 0.36878 0.55827 0.53112 0.0
N113 N 0.3711 0.58196 0.55402 0.0
C114 C 0.36299 0.51143 0.56443 0.0
H115 H 0.35277 0.50386 0.59518 0.0
H116 H 0.35841 0.50763 0.51981 0.0
H117 H 0.37509 0.50038 0.57198 0.0
C118 C 0.40239 0.5092 0.37016 0.0
N119 N 0.38763 0.5226 0.37687 0.0
N120 N 0.38724 0.53161 0.42961 0.0
C121 C 0.40209 0.52497 0.45766 0.0
C122 C 0.41204 0.51022 0.42121 0.0
C123 C 0.40701 0.49582 0.31574 0.0
H124 H 0.41162 0.51096 0.28382 0.0
H125 H 0.39505 0.48514 0.29784 0.0
H126 H 0.41753 0.48164 0.32296 0.0
O127 O 0.37039 0.57215 0.319 0.0
O128 O 0.36874 0.58566 0.40911 0.0
H129 H 0.40284 0.55556 0.52124 0.0
H130 H 0.42264 0.53729 0.51838 0.0
C131 C 0.40796 0.53572 0.51487 0.0
H132 H 0.4029 0.52228 0.54938 0.0
H133 H 0.3727 0.59946 0.53029 0.0
O134 O 0.37523 0.52088 0.24568 0.0
C135 C 0.36978 0.59063 0.35553 0.0
Co136 Co 0.85581 0.86112 0.95448 0.0
Co137 Co 0.86177 0.8787 0.82709 0.0
C138 C 0.83022 0.89471 0.89095 0.0
O139 O 0.83527 0.88222 0.93529 0.0
O140 O 0.83928 0.89546 0.84512 0.0
C141 C 0.83715 0.84363 0.05638 0.0
O142 O 0.82288 0.85054 0.02856 0.0
C143 C 0.85632 0.88148 0.70198 0.0
C144 C 0.88404 0.88704 0.67294 0.0
C145 C 0.86675 0.88293 0.65315 0.0
N146 N 0.86706 0.884 0.7482 0.0
N147 N 0.88355 0.88794 0.7305 0.0
C148 C 0.83681 0.8748 0.70547 0.0
H149 H 0.83326 0.86738 0.74902 0.0
H150 H 0.83267 0.85973 0.67307 0.0
H151 H 0.82952 0.89285 0.69653 0.0
C152 C 0.85959 0.80837 0.90437 0.0
N153 N 0.85842 0.83469 0.89925 0.0
N154 N 0.86051 0.84178 0.84515 0.0
C155 C 0.86294 0.82001 0.81389 0.0
C156 C 0.86252 0.79814 0.85042 0.0
C157 C 0.85942 0.79391 0.9607 0.0
H158 H 0.868 0.80499 0.99208 0.0
H159 H 0.84571 0.7928 0.97758 0.0
H160 H 0.86413 0.77367 0.95661 0.0
O161 O 0.87789 0.88359 0.95997 0.0
O162 O 0.88212 0.89571 0.86929 0.0
H163 H 0.87734 0.83202 0.73855 0.0
H164 H 0.86584 0.79997 0.73246 0.0
C165 C 0.86516 0.82009 0.75008 0.0
H166 H 0.85365 0.82909 0.72968 0.0
H167 H 0.89457 0.88992 0.75781 0.0
O168 O 0.85207 0.84558 0.03162 0.0
C169 C 0.88702 0.89591 0.92172 0.0
Co170 Co 0.62766 0.02176 0.846 0.0
Co171 Co 0.63464 0.04269 0.97084 0.0
C172 C 0.66048 0.00955 0.90926 0.0
O173 O 0.65046 0.00682 0.86536 0.0
O174 O 0.65605 0.0231 0.95205 0.0
C175 C 0.62705 0.99072 0.74309 0.0
O176 O 0.63849 0.97666 0.77114 0.0
C177 C 0.63595 0.03221 0.0939 0.0
C178 C 0.63694 0.07224 0.13085 0.0
C179 C 0.63632 0.04565 0.14553 0.0
N180 N 0.63603 0.05001 0.05081 0.0
N181 N 0.63673 0.07392 0.0731 0.0
C182 C 0.63639 0.00302 0.08516 0.0
H183 H 0.62277 0.99389 0.08797 0.0
H184 H 0.64467 0.99396 0.1189 0.0
H185 H 0.64158 -0.00126 0.04208 0.0
C186 C 0.59405 0.002 0.89802 0.0
N187 N 0.61055 0.01318 0.90232 0.0
N188 N 0.61297 0.02313 0.95398 0.0
C189 C 0.59779 0.01936 0.98365 0.0
C190 C 0.58539 0.00553 0.94946 0.0
C191 C 0.5866 0.98939 0.84459 0.0
H192 H 0.58311 0.00505 0.81351 0.0
H193 H 0.59674 0.97745 0.82462 0.0
H194 H 0.5746 0.97657 0.85385 0.0
O195 O 0.63077 0.0607 0.83907 0.0
O196 O 0.63509 0.07629 0.9272 0.0
H197 H 0.6019 0.05194 0.04174 0.0
H198 H 0.57981 0.03683 0.04231 0.0
C199 C 0.59408 0.03291 0.03886 0.0
H200 H 0.59764 0.0201 0.07555 0.0
H201 H 0.63689 0.09135 0.04892 0.0
O202 O 0.62008 0.00966 0.76842 0.0
C203 C 0.63338 0.08 0.87331 0.0
Co204 Co 0.8787 0.47571 0.67788 0.0
Co205 Co 0.87726 0.49667 0.55107 0.0
C206 C 0.84694 0.4645 0.6055 0.0
O207 O 0.85522 0.46142 0.65266 0.0
O208 O 0.85396 0.47772 0.56419 0.0
C209 C 0.87431 0.44504 0.78213 0.0
O210 O 0.86121 0.43263 0.75428 0.0
C211 C 0.87627 0.48647 0.42822 0.0
C212 C 0.88169 0.52616 0.39049 0.0
C213 C 0.87839 0.49985 0.37644 0.0
N214 N 0.87852 0.50398 0.47097 0.0
N215 N 0.8817 0.5277 0.4482 0.0
C216 C 0.87129 0.45774 0.43705 0.0
H217 H 0.86076 0.45125 0.40589 0.0
H218 H 0.86675 0.45375 0.48145 0.0
H219 H 0.88294 0.44585 0.42968 0.0
C220 C 0.91193 0.4545 0.63605 0.0
N221 N 0.89675 0.46683 0.62717 0.0
N222 N 0.89657 0.47656 0.57462 0.0
C223 C 0.9119 0.47143 0.54889 0.0
C224 C 0.92203 0.4571 0.58679 0.0
C225 C 0.91727 0.44287 0.69247 0.0
H226 H 0.91863 0.45878 0.72487 0.0
H227 H 0.90671 0.42843 0.7072 0.0
H228 H 0.93001 0.43302 0.68959 0.0
O229 O 0.87782 0.51463 0.68336 0.0
O230 O 0.87809 0.53021 0.59378 0.0
H231 H 0.91361 0.50208 0.48473 0.0
H232 H 0.93145 0.47973 0.48234 0.0
C233 C 0.91711 0.48124 0.49026 0.0
H234 H 0.90982 0.46917 0.45754 0.0
H235 H 0.88387 0.54491 0.47203 0.0
O236 O 0.88363 0.46305 0.75665 0.0
C237 C 0.87786 0.53387 0.6478 0.0
Co238 Co 0.62656 0.40035 0.66275 0.0
Co239 Co 0.62776 0.37881 0.53731 0.0
C240 C 0.65919 0.40755 0.59399 0.0
O241 O 0.65086 0.41138 0.64006 0.0
O242 O 0.65175 0.39542 0.55191 0.0
C243 C 0.63224 0.43037 0.7664 0.0
O244 O 0.64607 0.44104 0.73953 0.0
C245 C 0.62879 0.38874 0.41428 0.0
C246 C 0.62319 0.34906 0.37787 0.0
C247 C 0.62662 0.37534 0.36289 0.0
N248 N 0.62648 0.37127 0.45758 0.0
N249 N 0.62318 0.34756 0.43564 0.0
C250 C 0.63398 0.41739 0.4225 0.0
H251 H 0.63936 0.42095 0.46632 0.0
H252 H 0.62219 0.4293 0.41685 0.0
H253 H 0.64393 0.42414 0.39009 0.0
C254 C 0.59533 0.42599 0.61487 0.0
N255 N 0.60958 0.41141 0.60898 0.0
N256 N 0.60945 0.40126 0.55718 0.0
C257 C 0.59476 0.40844 0.52895 0.0
C258 C 0.58547 0.42464 0.56426 0.0
C259 C 0.59118 0.44038 0.66847 0.0
H260 H 0.58587 0.42597 0.70089 0.0
H261 H 0.60349 0.45013 0.68633 0.0
H262 H 0.58129 0.45544 0.66016 0.0
O263 O 0.62503 0.36137 0.67032 0.0
O264 O 0.62543 0.34547 0.58183 0.0
H265 H 0.59266 0.37641 0.46886 0.0
H266 H 0.57357 0.39625 0.47037 0.0
C267 C 0.58826 0.39679 0.47322 0.0
H268 H 0.59357 0.40905 0.4371 0.0
H269 H 0.62093 0.33039 0.46007 0.0
O270 O 0.62197 0.41369 0.74042 0.0
C271 C 0.6247 0.34193 0.63599 0.0
C272 C 0.30017 0.92874 0.15748 0.0
C273 C 0.30974 0.92477 0.10718 0.0
C274 C 0.28205 0.9328 0.15471 0.0
C275 C 0.24268 0.92394 0.05852 0.0
H276 H 0.22236 0.97145 0.16631 0.0
C277 C 0.17125 0.96138 0.04329 0.0
C278 C 0.16178 0.9615 0.09495 0.0
C279 C 0.18899 0.95476 0.04323 0.0
C280 C 0.22784 0.95794 0.1363 0.0
H281 H 0.30789 0.9226 0.01433 0.0
H282 H 0.27636 0.93061 0.0093 0.0
H283 H 0.25415 0.96579 0.16829 0.0
H284 H 0.16329 0.9536 0.18663 0.0
H285 H 0.19426 0.94235 0.18635 0.0
H286 H 0.21624 0.91682 0.02566 0.0
C287 C 0.28275 0.92983 0.05108 0.0
C288 C 0.24606 0.95462 0.13747 0.0
C289 C 0.30085 0.92544 0.05391 0.0
C290 C 0.17019 0.95378 0.14609 0.0
C291 C 0.18796 0.94749 0.14607 0.0
C292 C 0.22445 0.92755 0.0569 0.0
C293 C 0.27308 0.93336 0.1015 0.0
C294 C 0.25372 0.93742 0.09891 0.0
C295 C 0.19761 0.94845 0.09487 0.0
C296 C 0.21687 0.94442 0.0961 0.0
H297 H 0.30658 0.92811 0.19926 0.0
H298 H 0.27502 0.93496 0.19453 0.0
H299 H 0.24806 0.91023 0.02875 0.0
H300 H 0.16512 0.96712 0.00313 0.0
H301 H 0.19618 0.95568 0.00319 0.0
C302 C 0.19302 0.40143 0.44851 0.0
C303 C 0.18448 0.39726 0.39521 0.0
C304 C 0.20906 0.41638 0.45196 0.0
C305 C 0.23751 0.46477 0.36916 0.0
H306 H 0.27474 0.44158 0.47079 0.0
C307 C 0.31071 0.49986 0.34594 0.0
C308 C 0.31996 0.5076 0.39619 0.0
C309 C 0.29369 0.48791 0.34907 0.0
C310 C 0.26438 0.44844 0.44272 0.0
H311 H 0.18616 0.40533 0.3037 0.0
H312 H 0.21427 0.43066 0.3095 0.0
H313 H 0.24584 0.41772 0.4702 0.0
H314 H 0.31868 0.50868 0.48918 0.0
H315 H 0.28893 0.48737 0.49451 0.0
H316 H 0.25632 0.49495 0.34042 0.0
C317 C 0.2084 0.42303 0.34889 0.0
C318 C 0.24781 0.43485 0.44245 0.0
C319 C 0.19232 0.40832 0.34551 0.0
C320 C 0.31186 0.50302 0.44969 0.0
C321 C 0.29489 0.49073 0.45282 0.0
C322 C 0.25412 0.47816 0.36904 0.0
C323 C 0.21697 0.4273 0.40213 0.0
C324 C 0.23424 0.44267 0.40514 0.0
C325 C 0.28565 0.48316 0.40249 0.0
C326 C 0.26776 0.46995 0.40535 0.0
H327 H 0.18725 0.39332 0.48766 0.0
H328 H 0.21518 0.41957 0.49374 0.0
H329 H 0.22725 0.47172 0.34084 0.0
H330 H 0.31656 0.50314 0.30406 0.0
H331 H 0.28691 0.48199 0.30966 0.0
C332 C 0.69159 0.00661 0.94636 0.0
C333 C 0.67785 0.9974 0.90938 0.0
C334 C 0.70829 0.99601 0.94397 0.0
C335 C 0.73053 0.93694 0.90483 0.0
H336 H 0.7728 0.98326 0.8898 0.0
C337 C 0.80105 0.90135 0.93671 0.0
C338 C 0.81316 0.90774 0.89266 0.0
C339 C 0.78466 0.91277 0.9379 0.0
C340 C 0.76108 0.97016 0.89378 0.0
H341 H 0.6707 0.96946 0.84191 0.0
H342 H 0.69975 0.95059 0.83884 0.0
H343 H 0.74362 0.00221 0.89494 0.0
H344 H 0.81767 0.93157 0.81585 0.0
H345 H 0.78898 0.95205 0.8188 0.0
H346 H 0.74795 0.90492 0.90453 0.0
C347 C 0.69762 0.96616 0.86917 0.0
C348 C 0.74446 0.98096 0.89718 0.0
C349 C 0.68103 0.97703 0.87085 0.0
C350 C 0.80861 0.92621 0.85028 0.0
C351 C 0.79227 0.93799 0.85205 0.0
C352 C 0.74714 0.92618 0.9024 0.0
C353 C 0.71143 0.97571 0.90533 0.0
C354 C 0.72906 0.96442 0.9026 0.0
C355 C 0.78011 0.93113 0.89558 0.0
C356 C 0.76255 0.94269 0.89681 0.0
H357 H 0.68956 0.02235 0.97635 0.0
H358 H 0.71873 0.00353 0.97259 0.0
H359 H 0.71884 0.9238 0.90921 0.0
H360 H 0.80408 0.88718 0.96996 0.0
H361 H 0.77556 0.90734 0.97217 0.0
C362 C 0.81858 0.44714 0.64931 0.0
C363 C 0.82831 0.45439 0.60009 0.0
C364 C 0.80047 0.44041 0.64515 0.0
C365 C 0.76184 0.44966 0.54937 0.0
H366 H 0.73889 0.39891 0.65359 0.0
C367 C 0.68723 0.41533 0.53841 0.0
C368 C 0.67828 0.41531 0.59106 0.0
C369 C 0.7056 0.42017 0.53666 0.0
C370 C 0.74515 0.41321 0.62443 0.0
H371 H 0.82691 0.45889 0.50747 0.0
H372 H 0.7954 0.44627 0.49993 0.0
H373 H 0.77112 0.40482 0.65424 0.0
H374 H 0.68153 0.42104 0.68293 0.0
H375 H 0.7136 0.42917 0.67971 0.0
H376 H 0.73572 0.45759 0.51907 0.0
C377 C 0.80163 0.4466 0.54202 0.0
C378 C 0.76359 0.41667 0.62485 0.0
C379 C 0.81972 0.45365 0.54627 0.0
C380 C 0.68801 0.42093 0.64166 0.0
C381 C 0.70637 0.42539 0.63996 0.0
C382 C 0.74339 0.44591 0.54844 0.0
C383 C 0.7917 0.44043 0.59155 0.0
C384 C 0.77217 0.43523 0.58794 0.0
C385 C 0.71535 0.4247 0.58758 0.0
C386 C 0.73489 0.42795 0.58657 0.0
H387 H 0.82477 0.44766 0.69147 0.0
H388 H 0.79324 0.43616 0.68434 0.0
H389 H 0.76794 0.46443 0.52098 0.0
H390 H 0.68009 0.41114 0.49868 0.0
H391 H 0.71226 0.41953 0.49576 0.0
C392 C 0.9174 0.91329 0.89494 0.0
C393 C 0.90456 0.90818 0.93745 0.0
C394 C 0.93476 0.92125 0.91018 0.0
C395 C 0.96318 0.95156 0.0208 0.0
H396 H -0.00109 0.90659 0.96324 0.0
C397 C 0.03628 0.96325 0.09606 0.0
C398 C 0.04939 0.95923 0.05523 0.0
C399 C 0.01843 0.957 0.08337 0.0
C400 C 0.9892 0.91966 0.979 0.0
H401 H 0.89963 0.90892 0.02901 0.0
H402 H 0.93 0.92353 0.05541 0.0
H403 H 0.96796 0.89796 0.93614 0.0
H404 H 0.05421 0.94531 0.9695 0.0
H405 H 0.02313 0.93564 0.94607 0.0
H406 H 0.98438 0.97384 0.06223 0.0
C407 C 0.92657 0.92102 0.01045 0.0
C408 C 0.97146 0.9146 0.9636 0.0
C409 C 0.90923 0.91261 0.99531 0.0
C410 C 0.04435 0.94875 0.00164 0.0
C411 C 0.02652 0.94289 0.98856 0.0
C412 C 0.981 0.95694 0.03546 0.0
C413 C 0.93956 0.92471 0.96809 0.0
C414 C 0.95831 0.93051 0.98429 0.0
C415 C 0.01329 0.94696 0.02921 0.0
C416 C 0.99426 0.94105 0.01469 0.0
H417 H 0.91426 0.91003 0.84999 0.0
H418 H 0.94455 0.92421 0.87676 0.0
H419 H 0.95325 0.96414 0.03708 0.0
H420 H 0.03976 0.97173 0.1374 0.0
H421 H 0.00869 0.96005 0.11609 0.0
C422 C 0.42531 0.97247 0.02667 0.0
C423 C 0.42117 0.9582 0.07703 0.0
C424 C 0.44289 0.98008 0.01426 0.0
C425 C 0.48801 0.98818 0.07742 0.0
H426 H 0.50284 0.97476 0.9219 0.0
C427 C 0.56166 0.98776 0.01493 0.0
C428 C 0.56649 -0.0002 0.96256 0.0
C429 C 0.54381 0.9837 0.02916 0.0
C430 C 0.49888 0.97894 0.96531 0.0
H431 H 0.43193 0.94102 0.15447 0.0
H432 H 0.4627 0.95442 0.13313 0.0
H433 H 0.47178 0.96736 0.94739 0.0
H434 H 0.55664 0.01749 0.88434 0.0
H435 H 0.5254 0.01029 0.90885 0.0
H436 H 0.51518 -0.00045 0.09539 0.0
C437 C 0.45238 0.96007 0.10352 0.0
C438 C 0.48107 0.97475 0.97991 0.0
C439 C 0.43479 0.95245 0.11586 0.0
C440 C 0.55322 0.00761 0.92443 0.0
C441 C 0.53536 0.00356 0.93859 0.0
C442 C 0.50584 0.99239 0.0628 0.0
C443 C 0.45666 0.9735 0.052 0.0
C444 C 0.47545 0.97921 0.03618 0.0
C445 C 0.53045 0.99168 0.99126 0.0
C446 C 0.51148 0.98767 0.00664 0.0
H447 H 0.41496 0.97714 0.99622 0.0
H448 H 0.44573 0.99077 0.97467 0.0
H449 H 0.48405 0.99209 0.12096 0.0
H450 H 0.57172 0.98155 0.04493 0.0
H451 H 0.54047 0.97415 0.06967 0.0
C452 C 0.06193 0.36685 0.44625 0.0
C453 C 0.07518 0.386 0.43155 0.0
C454 C 0.04529 0.37441 0.4632 0.0
C455 C 0.01577 0.43037 0.46039 0.0
H456 H 0.99396 0.39374 0.59065 0.0
C457 C 0.95395 0.46783 0.56788 0.0
C458 C 0.94018 0.44883 0.578 0.0
C459 C 0.97073 0.46008 0.55294 0.0
C460 C -0.00017 0.404 0.55398 0.0
H461 H 0.08162 0.42779 0.4211 0.0
H462 H 0.0525 0.44126 0.4513 0.0
H463 H 0.02246 0.38032 0.55579 0.0
H464 H 0.93305 0.40705 0.58371 0.0
H465 H 0.96254 0.39326 0.5577 0.0
H466 H 0.99318 0.45414 0.45882 0.0
C467 C 0.05484 0.42039 0.44932 0.0
C468 C 0.01612 0.39629 0.53387 0.0
C469 C 0.07148 0.41277 0.43219 0.0
C470 C 0.94357 0.42195 0.57594 0.0
C471 C 0.96039 0.41414 0.56117 0.0
C472 C -0.00047 0.43814 0.48064 0.0
C473 C 0.04163 0.40129 0.46578 0.0
C474 C 0.02426 0.40937 0.4868 0.0
C475 C 0.97403 0.43316 0.54827 0.0
C476 C 0.9914 0.42505 0.52764 0.0
H477 H 0.06458 0.34606 0.44544 0.0
H478 H 0.0353 0.35921 0.47449 0.0
H479 H 0.02155 0.44059 0.42353 0.0
H480 H 0.95157 0.48869 0.57006 0.0
H481 H 0.98107 0.47516 0.54434 0.0
C482 C 0.44376 0.50509 0.39587 0.0
C483 C 0.42961 0.49993 0.43354 0.0
C484 C 0.46064 0.49674 0.40967 0.0
C485 C 0.48817 0.47885 0.53376 0.0
H486 H 0.51756 0.44817 0.41911 0.0
C487 C 0.55398 0.43108 0.59029 0.0
C488 C 0.56805 0.43541 0.55197 0.0
C489 C 0.53716 0.43959 0.57635 0.0
C490 C 0.5096 0.45702 0.45144 0.0
H491 H 0.42172 0.48165 0.51426 0.0
H492 H 0.45121 0.46695 0.53853 0.0
H493 H 0.48786 0.46105 0.39286 0.0
H494 H 0.57588 0.4524 0.46996 0.0
H495 H 0.54653 0.46761 0.44565 0.0
H496 H 0.50991 0.4749 0.59231 0.0
C497 C 0.44936 0.4777 0.4987 0.0
C498 C 0.49259 0.46434 0.4364 0.0
C499 C 0.43251 0.486 0.48479 0.0
C500 C 0.56516 0.44876 0.49999 0.0
C501 C 0.54836 0.4573 0.48604 0.0
C502 C 0.5052 0.47157 0.54877 0.0
C503 C 0.46365 0.48319 0.46153 0.0
C504 C 0.48169 0.4753 0.47743 0.0
C505 C 0.53413 0.45255 0.52378 0.0
C506 C 0.5161 0.46057 0.50778 0.0
H507 H 0.44189 0.51621 0.35655 0.0
H508 H 0.47143 0.50153 0.38051 0.0
H509 H 0.48018 0.48763 0.56608 0.0
H510 H 0.55585 0.4204 0.63019 0.0
H511 H 0.52642 0.43532 0.606 0.0
C512 C 0.12583 0.00897 0.7613 0.0
C513 C 0.11561 0.99658 0.8047 0.0
C514 C 0.12522 -0.00093 0.70555 0.0
C515 C 0.12849 0.96537 0.59959 0.0
H516 H 0.08242 0.95012 0.52888 0.0
C517 C 0.12236 0.93452 0.36361 0.0
C518 C 0.11091 0.94991 0.33107 0.0
C519 C 0.12176 0.93457 0.42355 0.0
C520 C 0.09537 0.95416 0.54819 0.0
H521 H 0.0961 0.96488 0.82334 0.0
H522 H 0.09519 0.94736 0.72603 0.0
H523 H 0.08437 0.96211 0.63022 0.0
H524 H 0.08898 0.9758 0.33565 0.0
H525 H 0.08799 0.97595 0.44002 0.0
H526 H 0.13948 0.95846 0.51722 0.0
C527 C 0.10384 0.96452 0.73533 0.0
C528 C 0.0965 0.96083 0.60624 0.0
C529 C 0.10456 0.97433 0.79121 0.0
C530 C 0.09807 0.96389 0.35951 0.0
C531 C 0.09742 0.96384 0.41936 0.0
C532 C 0.12737 0.95857 0.5417 0.0
C533 C 0.11418 0.97678 0.69196 0.0
C534 C 0.11306 0.96708 0.63215 0.0
C535 C 0.10962 0.94985 0.45203 0.0
C536 C 0.11078 0.95344 0.51508 0.0
H537 H 0.13436 0.02629 0.77052 0.0
H538 H 0.13311 0.00922 0.67278 0.0
H539 H 0.14144 0.96978 0.61864 0.0
H540 H 0.13233 0.92339 0.34297 0.0
H541 H 0.13116 0.92331 0.44767 0.0
C542 C 0.37293 0.94097 0.37538 0.0
C543 C 0.35848 0.95069 0.34481 0.0
C544 C 0.37343 0.94167 0.43525 0.0
C545 C 0.34284 0.93887 0.55463 0.0
H546 H 0.38571 0.94862 0.64674 0.0
C547 C 0.36725 0.93071 0.80665 0.0
C548 C 0.35949 0.90568 0.82013 0.0
C549 C 0.36658 0.94053 0.75047 0.0
C550 C 0.37358 0.94616 0.62173 0.0
H551 H 0.3338 0.9704 0.35281 0.0
H552 H 0.3347 0.97156 0.45759 0.0
H553 H 0.38624 0.9604 0.54476 0.0
H554 H 0.34517 0.87114 0.78578 0.0
H555 H 0.34398 0.88824 0.68754 0.0
H556 H 0.33028 0.92406 0.63117 0.0
C557 C 0.34553 0.96316 0.43513 0.0
C558 C 0.37392 0.95273 0.56334 0.0
C559 C 0.34507 0.9626 0.37515 0.0
C560 C 0.35113 0.89059 0.77652 0.0
C561 C 0.35033 0.90047 0.72049 0.0
C562 C 0.34253 0.93217 0.61286 0.0
C563 C 0.35947 0.95202 0.46578 0.0
C564 C 0.35864 0.94865 0.52898 0.0
C565 C 0.35811 0.92549 0.70684 0.0
C566 C 0.35798 0.93522 0.6467 0.0
H567 H 0.38353 0.93183 0.35321 0.0
H568 H 0.38429 0.93276 0.45764 0.0
H569 H 0.33089 0.93525 0.52918 0.0
H570 H 0.37427 0.94243 0.839 0.0
H571 H 0.37273 0.95984 0.7411 0.0
C572 C 0.12631 0.33909 0.71884 0.0
C573 C 0.13923 0.34941 0.68079 0.0
C574 C 0.12521 0.34908 0.77424 0.0
C575 C 0.15181 0.3839 0.88539 0.0
H576 H 0.10599 0.39197 0.95498 0.0
C577 C 0.14648 0.41456 0.12116 0.0
C578 C 0.13488 0.39793 0.1536 0.0
C579 C 0.14581 0.41403 0.06117 0.0
C580 C 0.11887 0.38982 0.93613 0.0
H581 H 0.16169 0.37748 0.67182 0.0
H582 H 0.15959 0.39533 0.76831 0.0
H583 H 0.10755 0.3801 0.8539 0.0
H584 H 0.11264 0.36916 0.14862 0.0
H585 H 0.11156 0.36812 0.04433 0.0
H586 H 0.16312 0.39288 0.96787 0.0
C587 C 0.1502 0.37962 0.75511 0.0
C588 C 0.11977 0.38296 0.87832 0.0
C589 C 0.15127 0.36963 0.69958 0.0
C590 C 0.12185 0.38209 0.1249 0.0
C591 C 0.12115 0.38162 0.06502 0.0
C592 C 0.15091 0.39076 0.94317 0.0
C593 C 0.13712 0.3695 0.793 0.0
C594 C 0.13623 0.37936 0.85265 0.0
C595 C 0.13347 0.39698 0.0325 0.0
C596 C 0.13442 0.39325 0.9695 0.0
H597 H 0.11689 0.32341 0.70561 0.0
H598 H 0.1152 0.34047 0.80273 0.0
H599 H 0.16468 0.38101 0.86709 0.0
H600 H 0.15661 0.42712 0.14196 0.0
H601 H 0.1553 0.42639 0.03722 0.0
C602 C 0.35573 0.48236 0.12835 0.0
C603 C 0.36852 0.49769 0.15931 0.0
C604 C 0.3562 0.48178 0.06842 0.0
C605 C 0.35243 0.50506 0.9485 0.0
H606 H 0.39552 0.5059 0.85924 0.0
C607 C 0.35876 0.5551 0.72709 0.0
C608 C 0.36779 0.54218 0.68416 0.0
C609 C 0.35831 0.54504 0.78305 0.0
C610 C 0.38333 0.50536 0.88344 0.0
H611 H 0.39256 0.52279 0.15217 0.0
H612 H 0.39334 0.52178 0.04781 0.0
H613 H 0.39653 0.49442 0.96129 0.0
H614 H 0.3841 0.5093 0.66646 0.0
H615 H 0.38314 0.49152 0.76417 0.0
H616 H 0.33931 0.51662 0.87107 0.0
C617 C 0.38296 0.51023 0.06968 0.0
C618 C 0.38394 0.49897 0.94187 0.0
C619 C 0.38244 0.51096 0.12948 0.0
C620 C 0.37654 0.51918 0.69823 0.0
C621 C 0.37621 0.50921 0.75433 0.0
C622 C 0.35184 0.51159 0.89022 0.0
C623 C 0.36954 0.49631 0.03847 0.0
C624 C 0.36856 0.49929 0.97521 0.0
C625 C 0.36709 0.52206 0.79729 0.0
C626 C 0.36736 0.51236 0.85742 0.0
H627 H 0.34489 0.47181 0.15013 0.0
H628 H 0.34581 0.47062 0.04541 0.0
H629 H 0.34039 0.50574 0.97318 0.0
H630 H 0.35203 0.57299 0.71735 0.0
H631 H 0.35143 0.55563 0.81552 0.0
C632 C 0.82281 0.84774 0.15191 0.0
C633 C 0.83666 0.83865 0.11882 0.0
C634 C 0.82426 0.84822 0.21178 0.0
C635 C 0.85967 0.85424 0.31969 0.0
H636 H 0.82178 0.84427 0.43006 0.0
C637 C 0.87339 0.86187 0.56057 0.0
C638 C 0.86176 0.87616 0.5934 0.0
C639 C 0.86914 0.85516 0.50411 0.0
C640 C 0.83243 0.84731 0.39954 0.0
H641 H 0.86198 0.82037 0.12223 0.0
H642 H 0.86432 0.82057 0.22656 0.0
H643 H 0.81604 0.83385 0.32879 0.0
H644 H 0.8367 0.89515 0.59241 0.0
H645 H 0.8292 0.88336 0.49306 0.0
H646 H 0.87601 0.86797 0.38964 0.0
C647 C 0.85261 0.82816 0.20637 0.0
C648 C 0.82917 0.84128 0.34173 0.0
C649 C 0.85123 0.8279 0.14666 0.0
C650 C 0.84573 0.88364 0.56855 0.0
C651 C 0.84146 0.87692 0.51172 0.0
C652 C 0.86292 0.8602 0.37715 0.0
C653 C 0.83954 0.83943 0.23941 0.0
C654 C 0.84281 0.84458 0.30128 0.0
C655 C 0.85321 0.86278 0.47887 0.0
C656 C 0.84938 0.85672 0.41777 0.0
H657 H 0.81139 0.85611 0.13157 0.0
H658 H 0.81397 0.85704 0.23603 0.0
H659 H 0.87034 0.85776 0.28941 0.0
H660 H 0.88576 0.85558 0.57873 0.0
H661 H 0.87834 0.84391 0.48019 0.0
C662 C 0.63596 0.97199 0.64925 0.0
C663 C 0.62478 0.98787 0.68025 0.0
C664 C 0.636 0.97289 0.58926 0.0
C665 C 0.61163 0.99536 0.46051 0.0
H666 H 0.65867 0.00811 0.39744 0.0
C667 C 0.64543 0.0471 0.2487 0.0
C668 C 0.63541 0.03477 0.20453 0.0
C669 C 0.64408 0.03771 0.30511 0.0
C670 C 0.64546 0.00452 0.41442 0.0
H671 H 0.60393 0.01561 0.67257 0.0
H672 H 0.60398 0.0171 0.56801 0.0
H673 H 0.65538 0.99694 0.49897 0.0
H674 H 0.61555 0.00364 0.18506 0.0
H675 H 0.61331 0.98705 0.28357 0.0
H676 H 0.60173 0.00375 0.37613 0.0
C677 C 0.61274 0.00401 0.59001 0.0
C678 C 0.64357 -0.00217 0.47238 0.0
C679 C 0.61278 0.00325 0.64997 0.0
C680 C 0.62386 0.01302 0.21786 0.0
C681 C 0.62238 0.00376 0.2744 0.0
C682 C 0.61353 0.00185 0.40235 0.0
C683 C 0.62475 0.9895 0.5591 0.0
C684 C 0.62663 0.99362 0.49628 0.0
C685 C 0.63246 0.01604 0.31861 0.0
C686 C 0.63046 0.00696 0.37899 0.0
H687 H 0.64531 0.95982 0.67123 0.0
H688 H 0.64522 0.96119 0.5665 0.0
H689 H 0.59842 0.99209 0.4777 0.0
H690 H 0.6543 0.06406 0.23959 0.0
H691 H 0.65181 0.04782 0.33844 0.0
C692 C 0.86887 0.50251 0.27393 0.0
C693 C 0.87753 0.48899 0.3179 0.0
C694 C 0.86827 0.49263 0.21815 0.0
C695 C 0.86095 0.45942 0.1118 0.0
H696 H 0.90489 0.43894 0.04441 0.0
C697 C 0.86337 0.42723 0.87662 0.0
C698 C 0.8765 0.44125 0.84473 0.0
C699 C 0.86398 0.42742 0.9366 0.0
C700 C 0.89251 0.44444 0.06279 0.0
H701 H 0.89315 0.45531 0.33761 0.0
H702 H 0.8919 0.43783 0.24032 0.0
H703 H 0.90441 0.45132 0.1455 0.0
H704 H 0.90128 0.46476 0.85053 0.0
H705 H 0.90232 0.46512 0.95496 0.0
H706 H 0.84919 0.45352 0.02874 0.0
C707 C 0.88536 0.45585 0.24914 0.0
C708 C 0.8922 0.45135 0.12069 0.0
C709 C 0.88584 0.46565 0.30501 0.0
C710 C 0.89088 0.45393 0.8739 0.0
C711 C 0.89154 0.45399 0.93378 0.0
C712 C 0.86124 0.45237 0.05406 0.0
C713 C 0.87655 0.46923 0.20516 0.0
C714 C 0.8765 0.45946 0.14541 0.0
C715 C 0.87781 0.44145 0.96574 0.0
C716 C 0.8771 0.44534 0.02864 0.0
H717 H 0.86249 0.52068 0.28276 0.0
H718 H 0.86164 0.50362 0.1849 0.0
H719 H 0.84862 0.46529 0.12994 0.0
H720 H 0.85216 0.41714 0.8554 0.0
H721 H 0.85335 0.41728 0.9602 0.0
C722 C 0.62012 0.41003 0.28944 0.0
C723 C 0.62767 0.38607 0.30385 0.0
C724 C 0.62083 0.41972 0.23314 0.0
C725 C 0.61413 0.42482 0.10402 0.0
H726 H 0.65683 0.41908 0.01498 0.0
C727 C 0.6153 0.42288 0.8572 0.0
C728 C 0.63017 0.43425 0.82873 0.0
C729 C 0.61463 0.42269 0.91705 0.0
C730 C 0.64489 0.42124 0.03945 0.0
H731 H 0.64154 0.35319 0.27085 0.0
H732 H 0.64276 0.37004 0.17231 0.0
H733 H 0.65699 0.40719 0.11659 0.0
H734 H 0.65542 0.45602 0.84057 0.0
H735 H 0.6542 0.45571 0.94526 0.0
H736 H 0.60195 0.43843 0.0265 0.0
C737 C 0.63658 0.38158 0.2047 0.0
C738 C 0.64492 0.41411 0.09745 0.0
C739 C 0.63576 0.37183 0.2609 0.0
C740 C 0.64383 0.44694 0.86123 0.0
C741 C 0.64319 0.44664 0.92117 0.0
C742 C 0.61407 0.43183 0.04586 0.0
C743 C 0.6291 0.40561 0.19022 0.0
C744 C 0.62946 0.41537 0.13006 0.0
C745 C 0.62882 0.43382 0.94968 0.0
C746 C 0.62937 0.42967 0.01275 0.0
H747 H 0.61327 0.421 0.32121 0.0
H748 H 0.61492 0.43825 0.22318 0.0
H749 H 0.60199 0.42587 0.12804 0.0
H750 H 0.6045 0.41309 0.83338 0.0
H751 H 0.60343 0.41252 0.93774 0.0
C752 C 0.12187 0.07436 0.21513 0.0
C753 C 0.12132 0.06962 0.15572 0.0
C754 C 0.1249 0.09996 0.23588 0.0
C755 C 0.12191 0.1697 0.19435 0.0
H756 H 0.15379 0.18253 0.32392 0.0
C757 C 0.14131 0.27492 0.26894 0.0
C758 C 0.1412 0.27946 0.32839 0.0
C759 C 0.1401 0.24925 0.24776 0.0
C760 C 0.14473 0.17922 0.28805 0.0
H761 H 0.12349 0.08817 0.07153 0.0
H762 H 0.12881 0.13283 0.10789 0.0
H763 H 0.14897 0.13779 0.28695 0.0
H764 H 0.14024 0.26049 0.41227 0.0
H765 H 0.1379 0.21561 0.37515 0.0
H766 H 0.1175 0.21098 0.19565 0.0
C767 C 0.12676 0.11672 0.13835 0.0
C768 C 0.14197 0.15362 0.26689 0.0
C769 C 0.12378 0.0911 0.11754 0.0
C770 C 0.14039 0.25769 0.36624 0.0
C771 C 0.13912 0.23196 0.34497 0.0
C772 C 0.12464 0.19525 0.21553 0.0
C773 C 0.12739 0.1214 0.19773 0.0
C774 C 0.13051 0.14859 0.21986 0.0
C775 C 0.13867 0.22748 0.28547 0.0
C776 C 0.13608 0.20031 0.26262 0.0
H777 H 0.12001 0.05829 0.24578 0.0
H778 H 0.12507 0.10299 0.28186 0.0
H779 H 0.11279 0.16638 0.15864 0.0
H780 H 0.14208 0.29122 0.23853 0.0
H781 H 0.14014 0.24645 0.20171 0.0
C782 C 0.36706 0.82593 0.2301 0.0
C783 C 0.36611 0.83121 0.1708 0.0
C784 C 0.36825 0.8001 0.25043 0.0
C785 C 0.38026 0.73359 0.20772 0.0
H786 H 0.35094 0.71073 0.33641 0.0
C787 C 0.37055 0.62422 0.27594 0.0
C788 C 0.37019 0.61838 0.33507 0.0
C789 C 0.37071 0.65035 0.25647 0.0
C790 C 0.35939 0.7169 0.30095 0.0
H791 H 0.36588 0.81343 0.08634 0.0
H792 H 0.36784 0.76829 0.12201 0.0
H793 H 0.35009 0.75603 0.30114 0.0
H794 H 0.36994 0.63551 0.42011 0.0
H795 H 0.37041 0.68112 0.38603 0.0
H796 H 0.38952 0.69442 0.20747 0.0
C797 C 0.36782 0.78422 0.15268 0.0
C798 C 0.35889 0.74285 0.28071 0.0
C799 C 0.3666 0.81007 0.13228 0.0
C800 C 0.37013 0.63929 0.37427 0.0
C801 C 0.37031 0.66544 0.35475 0.0
C802 C 0.38078 0.70764 0.22803 0.0
C803 C 0.36854 0.77895 0.21198 0.0
C804 C 0.36928 0.75146 0.2338 0.0
C805 C 0.37054 0.67125 0.29563 0.0
C806 C 0.37031 0.69898 0.27477 0.0
H807 H 0.3668 0.84173 0.26102 0.0
H808 H 0.36903 0.79671 0.29635 0.0
H809 H 0.3886 0.73976 0.17201 0.0
H810 H 0.37057 0.60861 0.24451 0.0
H811 H 0.37065 0.65414 0.21063 0.0
C812 C 0.85349 0.74998 0.85329 0.0
C813 C 0.86544 0.77047 0.83536 0.0
C814 C 0.85574 0.72403 0.83611 0.0
C815 C 0.87077 0.68687 0.71892 0.0
H816 H 0.87733 0.629 0.82559 0.0
C817 C 0.88403 0.58266 0.63822 0.0
C818 C 0.87718 0.56092 0.6701 0.0
C819 C 0.88336 0.60822 0.6598 0.0
C820 C 0.87519 0.64479 0.79511 0.0
H821 H 0.88955 0.7799 0.78821 0.0
H822 H 0.89298 0.73463 0.75583 0.0
H823 H 0.87425 0.67348 0.86207 0.0
H824 H 0.86394 0.5488 0.74885 0.0
H825 H 0.8619 0.59327 0.78512 0.0
H826 H 0.87081 0.65845 0.65196 0.0
C827 C 0.88195 0.73871 0.78318 0.0
C828 C 0.87357 0.67025 0.81616 0.0
C829 C 0.87993 0.76451 0.80142 0.0
C830 C 0.86951 0.5652 0.72363 0.0
C831 C 0.86847 0.59075 0.7446 0.0
C832 C 0.87198 0.66135 0.69785 0.0
C833 C 0.86979 0.71836 0.80003 0.0
C834 C 0.87143 0.69144 0.77817 0.0
C835 C 0.87545 0.61265 0.71314 0.0
C836 C 0.87427 0.63993 0.73562 0.0
H837 H 0.8422 0.75415 0.87941 0.0
H838 H 0.84621 0.70854 0.84942 0.0
H839 H 0.86896 0.70301 0.68897 0.0
H840 H 0.89015 0.57988 0.59701 0.0
H841 H 0.88922 0.62444 0.63476 0.0
C842 C 0.63421 0.12914 0.8863 0.0
C843 C 0.63372 0.10721 0.84971 0.0
C844 C 0.6335 0.15469 0.86364 0.0
C845 C 0.64061 0.19373 0.73073 0.0
H846 H 0.60884 0.24163 0.80038 0.0
C847 C 0.62457 0.29279 0.62391 0.0
C848 C 0.62434 0.31481 0.66008 0.0
C849 C 0.62535 0.26735 0.64709 0.0
C850 C 0.61791 0.22859 0.78079 0.0
H851 H 0.63249 0.09501 0.76053 0.0
H852 H 0.63123 0.13947 0.72131 0.0
H853 H 0.61184 0.19773 0.84185 0.0
H854 H 0.62442 0.32725 0.74909 0.0
H855 H 0.62597 0.28304 0.78925 0.0
H856 H 0.64673 0.22458 0.66979 0.0
C857 C 0.63226 0.13694 0.76743 0.0
C858 C 0.61964 0.20347 0.80461 0.0
C859 C 0.63289 0.11144 0.79001 0.0
C860 C 0.62455 0.31076 0.7199 0.0
C861 C 0.62534 0.28537 0.74301 0.0
C862 C 0.63891 0.21886 0.70699 0.0
C863 C 0.6324 0.15882 0.80398 0.0
C864 C 0.63098 0.18576 0.77974 0.0
C865 C 0.62592 0.2634 0.70691 0.0
C866 C 0.62751 0.23656 0.73169 0.0
H867 H 0.63487 0.12658 0.93248 0.0
H868 H 0.63384 0.17123 0.89281 0.0
H869 H 0.64962 0.18062 0.71107 0.0
H870 H 0.62437 0.29519 0.57765 0.0
H871 H 0.6255 0.25077 0.61815 0.0
loop_
_geom_bond_atom_site_label_1
_geom_bond_atom_site_label_2
_geom_bond_distance
_geom_bond_site_symmetry_2
_ccdc_geom_bond_type
Co0 O3 1.970 1_545 S
Co0 N17 1.989 1_545 S
Co0 O25 1.967 . S
Co0 O32 1.920 . S
Co1 O4 1.966 . S
Co1 N10 2.022 1_554 S
Co1 N18 1.993 1_545 S
Co1 O26 1.941 . S
C2 O3 1.258 . S
C2 O4 1.263 1_565 S
O3 Co0 1.970 1_565 S
O3 C2 1.258 . S
O4 Co1 1.966 . S
O4 C2 1.263 1_545 S
C5 O6 1.235 . S
C5 O32 1.289 1_565 S
O6 C5 1.235 . S
C7 C9 1.400 . S
C7 N10 1.351 . S
C7 C12 1.501 1_545 S
C8 C9 1.387 . S
C8 N11 1.341 . S
C9 C7 1.400 . S
C9 C8 1.387 . S
N10 Co1 2.022 1_556 S
N10 C7 1.351 . S
N10 N11 1.365 . S
N11 C8 1.341 . S
N11 N10 1.365 . S
N11 H31 0.862 . S
C12 C7 1.501 1_565 S
C12 H13 0.961 . S
C12 H14 0.961 . S
C12 H15 0.960 . S
H13 C12 0.961 . S
H14 C12 0.961 . S
H15 C12 0.960 . S
C16 N17 1.342 . S
C16 C20 1.401 . S
C16 C21 1.499 . S
N17 Co0 1.989 1_565 S
N17 C16 1.342 . S
N17 N18 1.388 . S
N18 Co1 1.993 1_565 S
N18 N17 1.388 . S
N18 C19 1.346 . S
C19 N18 1.346 . S
C19 C20 1.396 . S
C19 C29 1.510 1_554 S
C20 C16 1.401 . S
C20 C19 1.396 . S
C21 C16 1.499 . S
C21 H22 0.959 . S
C21 H23 0.960 . S
C21 H24 0.961 . S
H22 C21 0.959 . S
H23 C21 0.960 . S
H24 C21 0.961 . S
O25 Co0 1.967 . S
O25 C33 1.258 . S
O26 Co1 1.941 . S
O26 C33 1.266 . S
H27 C29 0.959 . S
H28 C29 0.961 . S
C29 C19 1.510 1_556 S
C29 H27 0.959 . S
C29 H28 0.961 . S
C29 H30 0.960 . S
H30 C29 0.960 . S
H31 N11 0.862 . S
O32 Co0 1.920 . S
O32 C5 1.289 1_545 S
C33 O25 1.258 . S
C33 O26 1.266 . S
Co34 O37 1.970 . S
Co34 N51 1.989 . S
Co34 O59 1.967 . S
Co34 O66 1.920 . S
Co35 O38 1.966 . S
Co35 N44 2.022 1_554 S
Co35 N52 1.993 . S
Co35 O60 1.941 . S
C36 O37 1.258 . S
C36 O38 1.263 . S
O37 Co34 1.970 . S
O37 C36 1.258 . S
O38 Co35 1.966 . S
O38 C36 1.263 . S
C39 O40 1.235 . S
C39 O66 1.289 . S
O40 C39 1.235 . S
C41 C43 1.400 . S
C41 N44 1.351 . S
C41 C46 1.501 . S
C42 C43 1.387 . S
C42 N45 1.341 . S
C43 C41 1.400 . S
C43 C42 1.387 . S
N44 Co35 2.022 1_556 S
N44 C41 1.351 . S
N44 N45 1.365 . S
N45 C42 1.341 . S
N45 N44 1.365 . S
N45 H65 0.862 . S
C46 C41 1.501 . S
C46 H47 0.961 . S
C46 H48 0.961 . S
C46 H49 0.960 . S
H47 C46 0.961 . S
H48 C46 0.961 . S
H49 C46 0.960 . S
C50 N51 1.342 . S
C50 C54 1.401 . S
C50 C55 1.499 . S
N51 Co34 1.989 . S
N51 C50 1.342 . S
N51 N52 1.388 . S
N52 Co35 1.993 . S
N52 N51 1.388 . S
N52 C53 1.346 . S
C53 N52 1.346 . S
C53 C54 1.396 . S
C53 C63 1.510 1_554 S
C54 C50 1.401 . S
C54 C53 1.396 . S
C55 C50 1.499 . S
C55 H56 0.959 . S
C55 H57 0.960 . S
C55 H58 0.961 . S
H56 C55 0.959 . S
H57 C55 0.960 . S
H58 C55 0.961 . S
O59 Co34 1.967 . S
O59 C67 1.258 . S
O60 Co35 1.941 . S
O60 C67 1.266 . S
H61 C63 0.959 . S
H62 C63 0.961 . S
C63 C53 1.510 1_556 S
C63 H61 0.959 . S
C63 H62 0.961 . S
C63 H64 0.960 . S
H64 C63 0.960 . S
H65 N45 0.862 . S
O66 Co34 1.920 . S
O66 C39 1.289 . S
C67 O59 1.258 . S
C67 O60 1.266 . S
Co68 O71 1.970 . S
Co68 N85 1.989 . S
Co68 O93 1.967 . S
Co68 O100 1.920 . S
Co69 O72 1.966 . S
Co69 N78 2.022 . S
Co69 N86 1.993 . S
Co69 O94 1.941 . S
C70 O71 1.258 . S
C70 O72 1.263 . S
O71 Co68 1.970 . S
O71 C70 1.258 . S
O72 Co69 1.966 . S
O72 C70 1.263 . S
C73 O74 1.235 . S
C73 O100 1.289 . S
O74 C73 1.235 . S
C75 C77 1.400 . S
C75 N78 1.351 . S
C75 C80 1.501 . S
C76 C77 1.387 . S
C76 N79 1.341 . S
C77 C75 1.400 . S
C77 C76 1.387 . S
N78 Co69 2.022 . S
N78 C75 1.351 . S
N78 N79 1.365 . S
N79 C76 1.341 . S
N79 N78 1.365 . S
N79 H99 0.862 . S
C80 C75 1.501 . S
C80 H81 0.961 . S
C80 H82 0.961 . S
C80 H83 0.960 . S
H81 C80 0.961 . S
H82 C80 0.961 . S
H83 C80 0.960 . S
C84 N85 1.342 . S
C84 C88 1.401 . S
C84 C89 1.499 . S
N85 Co68 1.989 . S
N85 C84 1.342 . S
N85 N86 1.388 . S
N86 Co69 1.993 . S
N86 N85 1.388 . S
N86 C87 1.346 . S
C87 N86 1.346 . S
C87 C88 1.396 . S
C87 C97 1.510 . S
C88 C84 1.401 . S
C88 C87 1.396 . S
C89 C84 1.499 . S
C89 H90 0.959 . S
C89 H91 0.960 . S
C89 H92 0.961 . S
H90 C89 0.959 . S
H91 C89 0.960 . S
H92 C89 0.961 . S
O93 Co68 1.967 . S
O93 C101 1.258 . S
O94 Co69 1.941 . S
O94 C101 1.266 . S
H95 C97 0.959 . S
H96 C97 0.961 . S
C97 C87 1.510 . S
C97 H95 0.959 . S
C97 H96 0.961 . S
C97 H98 0.960 . S
H98 C97 0.960 . S
H99 N79 0.862 . S
O100 Co68 1.920 . S
O100 C73 1.289 . S
C101 O93 1.258 . S
C101 O94 1.266 . S
Co102 O105 1.970 . S
Co102 N119 1.989 . S
Co102 O127 1.967 . S
Co102 O134 1.920 . S
Co103 O106 1.966 . S
Co103 N112 2.022 . S
Co103 N120 1.993 . S
Co103 O128 1.941 . S
C104 O105 1.258 . S
C104 O106 1.263 . S
O105 Co102 1.970 . S
O105 C104 1.258 . S
O106 Co103 1.966 . S
O106 C104 1.263 . S
C107 O108 1.235 . S
C107 O134 1.289 . S
O108 C107 1.235 . S
C109 C111 1.400 . S
C109 N112 1.351 . S
C109 C114 1.501 . S
C110 C111 1.387 . S
C110 N113 1.341 . S
C111 C109 1.400 . S
C111 C110 1.387 . S
N112 Co103 2.022 . S
N112 C109 1.351 . S
N112 N113 1.365 . S
N113 C110 1.341 . S
N113 N112 1.365 . S
N113 H133 0.862 . S
C114 C109 1.501 . S
C114 H115 0.961 . S
C114 H116 0.961 . S
C114 H117 0.960 . S
H115 C114 0.961 . S
H116 C114 0.961 . S
H117 C114 0.960 . S
C118 N119 1.342 . S
C118 C122 1.401 . S
C118 C123 1.499 . S
N119 Co102 1.989 . S
N119 C118 1.342 . S
N119 N120 1.388 . S
N120 Co103 1.993 . S
N120 N119 1.388 . S
N120 C121 1.346 . S
C121 N120 1.346 . S
C121 C122 1.396 . S
C121 C131 1.510 . S
C122 C118 1.401 . S
C122 C121 1.396 . S
C123 C118 1.499 . S
C123 H124 0.959 . S
C123 H125 0.960 . S
C123 H126 0.961 . S
H124 C123 0.959 . S
H125 C123 0.960 . S
H126 C123 0.961 . S
O127 Co102 1.967 . S
O127 C135 1.258 . S
O128 Co103 1.941 . S
O128 C135 1.266 . S
H129 C131 0.959 . S
H130 C131 0.961 . S
C131 C121 1.510 . S
C131 H129 0.959 . S
C131 H130 0.961 . S
C131 H132 0.960 . S
H132 C131 0.960 . S
H133 N113 0.862 . S
O134 Co102 1.920 . S
O134 C107 1.289 . S
C135 O127 1.258 . S
C135 O128 1.266 . S
Co136 O139 1.970 . S
Co136 N153 1.989 . S
Co136 O161 1.967 . S
Co136 O168 1.920 1_556 S
Co137 O140 1.966 . S
Co137 N146 2.022 . S
Co137 N154 1.993 . S
Co137 O162 1.941 . S
C138 O139 1.258 . S
C138 O140 1.263 . S
O139 Co136 1.970 . S
O139 C138 1.258 . S
O140 Co137 1.966 . S
O140 C138 1.263 . S
C141 O142 1.235 . S
C141 O168 1.289 . S
O142 C141 1.235 . S
C143 C145 1.400 . S
C143 N146 1.351 . S
C143 C148 1.501 . S
C144 C145 1.387 . S
C144 N147 1.341 . S
C145 C143 1.400 . S
C145 C144 1.387 . S
N146 Co137 2.022 . S
N146 C143 1.351 . S
N146 N147 1.365 . S
N147 C144 1.341 . S
N147 N146 1.365 . S
N147 H167 0.862 . S
C148 C143 1.501 . S
C148 H149 0.961 . S
C148 H150 0.961 . S
C148 H151 0.960 . S
H149 C148 0.961 . S
H150 C148 0.961 . S
H151 C148 0.960 . S
C152 N153 1.342 . S
C152 C156 1.401 . S
C152 C157 1.499 . S
N153 Co136 1.989 . S
N153 C152 1.342 . S
N153 N154 1.388 . S
N154 Co137 1.993 . S
N154 N153 1.388 . S
N154 C155 1.346 . S
C155 N154 1.346 . S
C155 C156 1.396 . S
C155 C165 1.510 . S
C156 C152 1.401 . S
C156 C155 1.396 . S
C157 C152 1.499 . S
C157 H158 0.959 . S
C157 H159 0.960 . S
C157 H160 0.961 . S
H158 C157 0.959 . S
H159 C157 0.960 . S
H160 C157 0.961 . S
O161 Co136 1.967 . S
O161 C169 1.258 . S
O162 Co137 1.941 . S
O162 C169 1.266 . S
H163 C165 0.959 . S
H164 C165 0.961 . S
C165 C155 1.510 . S
C165 H163 0.959 . S
C165 H164 0.961 . S
C165 H166 0.960 . S
H166 C165 0.960 . S
H167 N147 0.862 . S
O168 Co136 1.920 1_554 S
O168 C141 1.289 . S
C169 O161 1.258 . S
C169 O162 1.266 . S
Co170 O173 1.970 . S
Co170 N187 1.989 . S
Co170 O195 1.967 . S
Co170 O202 1.920 . S
Co171 O174 1.966 . S
Co171 N180 2.022 1_556 S
Co171 N188 1.993 . S
Co171 O196 1.941 . S
C172 O173 1.258 . S
C172 O174 1.263 . S
O173 Co170 1.970 . S
O173 C172 1.258 . S
O174 Co171 1.966 . S
O174 C172 1.263 . S
C175 O176 1.235 . S
C175 O202 1.289 . S
O176 C175 1.235 . S
C177 C179 1.400 . S
C177 N180 1.351 . S
C177 C182 1.501 . S
C178 C179 1.387 . S
C178 N181 1.341 . S
C179 C177 1.400 . S
C179 C178 1.387 . S
N180 Co171 2.022 1_554 S
N180 C177 1.351 . S
N180 N181 1.365 . S
N181 C178 1.341 . S
N181 N180 1.365 . S
N181 H201 0.862 . S
C182 C177 1.501 . S
C182 H183 0.961 . S
C182 H184 0.961 . S
C182 H185 0.960 . S
H183 C182 0.961 . S
H184 C182 0.961 . S
H185 C182 0.960 . S
C186 N187 1.342 . S
C186 C190 1.401 . S
C186 C191 1.499 . S
N187 Co170 1.989 . S
N187 C186 1.342 . S
N187 N188 1.388 . S
N188 Co171 1.993 . S
N188 N187 1.388 . S
N188 C189 1.346 . S
C189 N188 1.346 . S
C189 C190 1.396 . S
C189 C199 1.510 1_556 S
C190 C186 1.401 . S
C190 C189 1.396 . S
C191 C186 1.499 . S
C191 H192 0.959 . S
C191 H193 0.960 . S
C191 H194 0.961 . S
H192 C191 0.959 . S
H193 C191 0.960 . S
H194 C191 0.961 . S
O195 Co170 1.967 . S
O195 C203 1.258 . S
O196 Co171 1.941 . S
O196 C203 1.266 . S
H197 C199 0.959 . S
H198 C199 0.961 . S
C199 C189 1.510 1_554 S
C199 H197 0.959 . S
C199 H198 0.961 . S
C199 H200 0.960 . S
H200 C199 0.960 . S
H201 N181 0.862 . S
O202 Co170 1.920 . S
O202 C175 1.289 . S
C203 O195 1.258 . S
C203 O196 1.266 . S
Co204 O207 1.970 . S
Co204 N221 1.989 . S
Co204 O229 1.967 . S
Co204 O236 1.920 . S
Co205 O208 1.966 . S
Co205 N214 2.022 . S
Co205 N222 1.993 . S
Co205 O230 1.941 . S
C206 O207 1.258 . S
C206 O208 1.263 . S
O207 Co204 1.970 . S
O207 C206 1.258 . S
O208 Co205 1.966 . S
O208 C206 1.263 . S
C209 O210 1.235 . S
C209 O236 1.289 . S
O210 C209 1.235 . S
C211 C213 1.400 . S
C211 N214 1.351 . S
C211 C216 1.501 . S
C212 C213 1.387 . S
C212 N215 1.341 . S
C213 C211 1.400 . S
C213 C212 1.387 . S
N214 Co205 2.022 . S
N214 C211 1.351 . S
N214 N215 1.365 . S
N215 C212 1.341 . S
N215 N214 1.365 . S
N215 H235 0.862 . S
C216 C211 1.501 . S
C216 H217 0.961 . S
C216 H218 0.961 . S
C216 H219 0.960 . S
H217 C216 0.961 . S
H218 C216 0.961 . S
H219 C216 0.960 . S
C220 N221 1.342 . S
C220 C224 1.401 . S
C220 C225 1.499 . S
N221 Co204 1.989 . S
N221 C220 1.342 . S
N221 N222 1.388 . S
N222 Co205 1.993 . S
N222 N221 1.388 . S
N222 C223 1.346 . S
C223 N222 1.346 . S
C223 C224 1.396 . S
C223 C233 1.510 . S
C224 C220 1.401 . S
C224 C223 1.396 . S
C225 C220 1.499 . S
C225 H226 0.959 . S
C225 H227 0.960 . S
C225 H228 0.961 . S
H226 C225 0.959 . S
H227 C225 0.960 . S
H228 C225 0.961 . S
O229 Co204 1.967 . S
O229 C237 1.258 . S
O230 Co205 1.941 . S
O230 C237 1.266 . S
H231 C233 0.959 . S
H232 C233 0.961 . S
C233 C223 1.510 . S
C233 H231 0.959 . S
C233 H232 0.961 . S
C233 H234 0.960 . S
H234 C233 0.960 . S
H235 N215 0.862 . S
O236 Co204 1.920 . S
O236 C209 1.289 . S
C237 O229 1.258 . S
C237 O230 1.266 . S
Co238 O241 1.970 . S
Co238 N255 1.989 . S
Co238 O263 1.967 . S
Co238 O270 1.920 . S
Co239 O242 1.966 . S
Co239 N248 2.022 . S
Co239 N256 1.993 . S
Co239 O264 1.941 . S
C240 O241 1.258 . S
C240 O242 1.263 . S
O241 Co238 1.970 . S
O241 C240 1.258 . S
O242 Co239 1.966 . S
O242 C240 1.263 . S
C243 O244 1.235 . S
C243 O270 1.289 . S
O244 C243 1.235 . S
C245 C247 1.400 . S
C245 N248 1.351 . S
C245 C250 1.501 . S
C246 C247 1.387 . S
C246 N249 1.341 . S
C247 C245 1.400 . S
C247 C246 1.387 . S
N248 Co239 2.022 . S
N248 C245 1.351 . S
N248 N249 1.365 . S
N249 C246 1.341 . S
N249 N248 1.365 . S
N249 H269 0.862 . S
C250 C245 1.501 . S
C250 H251 0.961 . S
C250 H252 0.961 . S
C250 H253 0.960 . S
H251 C250 0.961 . S
H252 C250 0.961 . S
H253 C250 0.960 . S
C254 N255 1.342 . S
C254 C258 1.401 . S
C254 C259 1.499 . S
N255 Co238 1.989 . S
N255 C254 1.342 . S
N255 N256 1.388 . S
N256 Co239 1.993 . S
N256 N255 1.388 . S
N256 C257 1.346 . S
C257 N256 1.346 . S
C257 C258 1.396 . S
C257 C267 1.510 . S
C258 C254 1.401 . S
C258 C257 1.396 . S
C259 C254 1.499 . S
C259 H260 0.959 . S
C259 H261 0.960 . S
C259 H262 0.961 . S
H260 C259 0.959 . S
H261 C259 0.960 . S
H262 C259 0.961 . S
O263 Co238 1.967 . S
O263 C271 1.258 . S
O264 Co239 1.941 . S
O264 C271 1.266 . S
H265 C267 0.959 . S
H266 C267 0.961 . S
C267 C257 1.510 . S
C267 H265 0.959 . S
C267 H266 0.961 . S
C267 H268 0.960 . S
H268 C267 0.960 . S
H269 N249 0.862 . S
O270 Co238 1.920 . S
O270 C243 1.289 . S
C271 O263 1.258 . S
C271 O264 1.266 . S
C272 C273 1.349 . S
C272 C274 1.327 . S
C272 H297 0.950 . S
C273 C272 1.349 . S
C273 C289 1.349 . S
C274 C272 1.327 . S
C274 C293 1.429 . S
C274 H298 0.950 . S
C275 C292 1.574 . S
C275 C294 1.368 . S
C275 H299 0.949 . S
H276 C280 0.949 . S
C277 C278 1.349 . S
C277 C279 1.327 . S
C277 H300 0.950 . S
C278 C277 1.349 . S
C278 C290 1.349 . S
C279 C277 1.327 . S
C279 C295 1.429 . S
C279 H301 0.950 . S
C280 H276 0.949 . S
C280 C288 1.574 . S
C280 C296 1.368 . S
H281 C289 0.950 . S
H282 C287 0.950 . S
H283 C288 0.949 . S
H284 C290 0.950 1_545 S
H285 C291 0.950 . S
H286 C292 0.949 . S
C287 H282 0.950 . S
C287 C289 1.327 . S
C287 C293 1.429 . S
C288 C280 1.574 . S
C288 H283 0.949 . S
C288 C294 1.368 . S
C289 C273 1.349 . S
C289 H281 0.950 . S
C289 C287 1.327 . S
C290 C278 1.349 . S
C290 H284 0.950 1_565 S
C290 C291 1.327 . S
C291 H285 0.950 . S
C291 C290 1.327 . S
C291 C295 1.429 . S
C292 C275 1.574 . S
C292 H286 0.949 . S
C292 C296 1.368 . S
C293 C274 1.429 . S
C293 C287 1.429 . S
C293 C294 1.523 . S
C294 C275 1.368 . S
C294 C288 1.368 . S
C294 C293 1.523 . S
C295 C279 1.429 . S
C295 C291 1.429 . S
C295 C296 1.523 . S
C296 C280 1.368 . S
C296 C292 1.368 . S
C296 C295 1.523 . S
H297 C272 0.950 . S
H298 C274 0.950 . S
H299 C275 0.949 . S
H300 C277 0.950 . S
H301 C279 0.950 . S
C302 C303 1.349 . S
C302 C304 1.327 . S
C302 H327 0.950 . S
C303 C302 1.349 . S
C303 C319 1.349 . S
C304 C302 1.327 . S
C304 C323 1.429 . S
C304 H328 0.950 . S
C305 C322 1.574 . S
C305 C324 1.368 . S
C305 H329 0.949 . S
H306 C310 0.949 . S
C307 C308 1.349 . S
C307 C309 1.327 . S
C307 H330 0.950 . S
C308 C307 1.349 . S
C308 C320 1.349 . S
C309 C307 1.327 . S
C309 C325 1.429 . S
C309 H331 0.950 . S
C310 H306 0.949 . S
C310 C318 1.574 . S
C310 C326 1.368 . S
H311 C319 0.950 . S
H312 C317 0.950 . S
H313 C318 0.949 . S
H314 C320 0.950 . S
H315 C321 0.950 . S
H316 C322 0.949 . S
C317 H312 0.950 . S
C317 C319 1.327 . S
C317 C323 1.429 . S
C318 C310 1.574 . S
C318 H313 0.949 . S
C318 C324 1.368 . S
C319 C303 1.349 . S
C319 H311 0.950 . S
C319 C317 1.327 . S
C320 C308 1.349 . S
C320 H314 0.950 . S
C320 C321 1.327 . S
C321 H315 0.950 . S
C321 C320 1.327 . S
C321 C325 1.429 . S
C322 C305 1.574 . S
C322 H316 0.949 . S
C322 C326 1.368 . S
C323 C304 1.429 . S
C323 C317 1.429 . S
C323 C324 1.523 . S
C324 C305 1.368 . S
C324 C318 1.368 . S
C324 C323 1.523 . S
C325 C309 1.429 . S
C325 C321 1.429 . S
C325 C326 1.523 . S
C326 C310 1.368 . S
C326 C322 1.368 . S
C326 C325 1.523 . S
H327 C302 0.950 . S
H328 C304 0.950 . S
H329 C305 0.949 . S
H330 C307 0.950 . S
H331 C309 0.950 . S
C332 C333 1.349 . S
C332 C334 1.327 . S
C332 H357 0.950 . S
C333 C332 1.349 . S
C333 C349 1.349 1_545 S
C334 C332 1.327 . S
C334 C353 1.429 1_545 S
C334 H358 0.950 . S
C335 C352 1.574 . S
C335 C354 1.368 . S
C335 H359 0.949 . S
H336 C340 0.949 . S
C337 C338 1.349 . S
C337 C339 1.327 . S
C337 H360 0.950 . S
C338 C337 1.349 . S
C338 C350 1.349 . S
C339 C337 1.327 . S
C339 C355 1.429 . S
C339 H361 0.950 . S
C340 H336 0.949 . S
C340 C348 1.574 . S
C340 C356 1.368 . S
H341 C349 0.950 . S
H342 C347 0.950 . S
H343 C348 0.949 1_545 S
H344 C350 0.950 . S
H345 C351 0.950 . S
H346 C352 0.949 . S
C347 H342 0.950 . S
C347 C349 1.327 . S
C347 C353 1.429 . S
C348 C340 1.574 . S
C348 H343 0.949 1_565 S
C348 C354 1.368 . S
C349 C333 1.349 1_565 S
C349 H341 0.950 . S
C349 C347 1.327 . S
C350 C338 1.349 . S
C350 H344 0.950 . S
C350 C351 1.327 . S
C351 H345 0.950 . S
C351 C350 1.327 . S
C351 C355 1.429 . S
C352 C335 1.574 . S
C352 H346 0.949 . S
C352 C356 1.368 . S
C353 C334 1.429 1_565 S
C353 C347 1.429 . S
C353 C354 1.523 . S
C354 C335 1.368 . S
C354 C348 1.368 . S
C354 C353 1.523 . S
C355 C339 1.429 . S
C355 C351 1.429 . S
C355 C356 1.523 . S
C356 C340 1.368 . S
C356 C352 1.368 . S
C356 C355 1.523 . S
H357 C332 0.950 . S
H358 C334 0.950 . S
H359 C335 0.949 . S
H360 C337 0.950 . S
H361 C339 0.950 . S
C362 C363 1.349 . S
C362 C364 1.327 . S
C362 H387 0.950 . S
C363 C362 1.349 . S
C363 C379 1.349 . S
C364 C362 1.327 . S
C364 C383 1.429 . S
C364 H388 0.950 . S
C365 C382 1.574 . S
C365 C384 1.368 . S
C365 H389 0.949 . S
H366 C370 0.949 . S
C367 C368 1.349 . S
C367 C369 1.327 . S
C367 H390 0.950 . S
C368 C367 1.349 . S
C368 C380 1.349 . S
C369 C367 1.327 . S
C369 C385 1.429 . S
C369 H391 0.950 . S
C370 H366 0.949 . S
C370 C378 1.574 . S
C370 C386 1.368 . S
H371 C379 0.950 . S
H372 C377 0.950 . S
H373 C378 0.949 . S
H374 C380 0.950 . S
H375 C381 0.950 . S
H376 C382 0.949 . S
C377 H372 0.950 . S
C377 C379 1.327 . S
C377 C383 1.429 . S
C378 C370 1.574 . S
C378 H373 0.949 . S
C378 C384 1.368 . S
C379 C363 1.349 . S
C379 H371 0.950 . S
C379 C377 1.327 . S
C380 C368 1.349 . S
C380 H374 0.950 . S
C380 C381 1.327 . S
C381 H375 0.950 . S
C381 C380 1.327 . S
C381 C385 1.429 . S
C382 C365 1.574 . S
C382 H376 0.949 . S
C382 C386 1.368 . S
C383 C364 1.429 . S
C383 C377 1.429 . S
C383 C384 1.523 . S
C384 C365 1.368 . S
C384 C378 1.368 . S
C384 C383 1.523 . S
C385 C369 1.429 . S
C385 C381 1.429 . S
C385 C386 1.523 . S
C386 C370 1.368 . S
C386 C382 1.368 . S
C386 C385 1.523 . S
H387 C362 0.950 . S
H388 C364 0.950 . S
H389 C365 0.949 . S
H390 C367 0.950 . S
H391 C369 0.950 . S
C392 C393 1.349 . S
C392 C394 1.327 . S
C392 H417 0.950 . S
C393 C392 1.349 . S
C393 C409 1.349 . S
C394 C392 1.327 . S
C394 C413 1.429 . S
C394 H418 0.950 . S
C395 C412 1.577 . S
C395 C414 1.368 . S
C395 H419 0.949 . S
H396 C400 0.949 1_455 S
C397 C398 1.349 . S
C397 C399 1.327 . S
C397 H420 0.950 1_565 S
C398 C397 1.349 . S
C398 C410 1.349 . S
C399 C397 1.327 . S
C399 C415 1.429 . S
C399 H421 0.950 . S
C400 H396 0.949 1_655 S
C400 C408 1.574 . S
C400 C416 1.368 1_556 S
H401 C409 0.950 . S
H402 C407 0.950 . S
H403 C408 0.949 . S
H404 C410 0.950 . S
H405 C411 0.950 . S
H406 C412 0.947 1_554 S
C407 H402 0.950 . S
C407 C409 1.327 . S
C407 C413 1.429 . S
C408 C400 1.574 . S
C408 H403 0.949 . S
C408 C414 1.368 . S
C409 C393 1.349 . S
C409 H401 0.950 . S
C409 C407 1.327 . S
C410 C398 1.349 . S
C410 H404 0.950 . S
C410 C411 1.327 . S
C411 H405 0.950 . S
C411 C410 1.327 . S
C411 C415 1.429 . S
C412 C395 1.577 . S
C412 H406 0.947 1_556 S
C412 C416 1.368 1_556 S
C413 C394 1.429 . S
C413 C407 1.429 . S
C413 C414 1.523 . S
C414 C395 1.368 . S
C414 C408 1.368 . S
C414 C413 1.523 . S
C415 C399 1.429 . S
C415 C411 1.429 . S
C415 C416 1.523 1_455 S
C416 C400 1.368 1_554 S
C416 C412 1.368 1_554 S
C416 C415 1.523 1_655 S
H417 C392 0.950 . S
H418 C394 0.950 . S
H419 C395 0.949 . S
H420 C397 0.950 1_545 S
H421 C399 0.950 . S
C422 C423 1.349 . S
C422 C424 1.327 . S
C422 H447 0.950 . S
C423 C422 1.349 . S
C423 C439 1.349 . S
C424 C422 1.327 . S
C424 C443 1.429 . S
C424 H448 0.950 . S
C425 C442 1.574 . S
C425 C444 1.368 . S
C425 H449 0.949 . S
H426 C430 0.949 . S
C427 C428 1.349 1_564 S
C427 C429 1.327 . S
C427 H450 0.950 . S
C428 C427 1.349 1_546 S
C428 C440 1.349 . S
C429 C427 1.327 . S
C429 C445 1.429 1_554 S
C429 H451 0.950 . S
C430 H426 0.949 . S
C430 C438 1.574 1_546 S
C430 C446 1.368 1_546 S
H431 C439 0.950 . S
H432 C437 0.950 . S
H433 C438 0.949 1_556 S
H434 C440 0.950 . S
H435 C441 0.950 . S
H436 C442 0.949 . S
C437 H432 0.950 . S
C437 C439 1.327 . S
C437 C443 1.429 . S
C438 C430 1.574 1_564 S
C438 H433 0.949 1_554 S
C438 C444 1.368 . S
C439 C423 1.349 . S
C439 H431 0.950 . S
C439 C437 1.327 . S
C440 C428 1.349 . S
C440 H434 0.950 . S
C440 C441 1.327 . S
C441 H435 0.950 . S
C441 C440 1.327 . S
C441 C445 1.429 1_545 S
C442 C425 1.574 . S
C442 H436 0.949 . S
C442 C446 1.368 . S
C443 C424 1.429 . S
C443 C437 1.429 . S
C443 C444 1.523 . S
C444 C425 1.368 . S
C444 C438 1.368 . S
C444 C443 1.523 . S
C445 C429 1.429 1_556 S
C445 C441 1.429 1_565 S
C445 C446 1.523 1_556 S
C446 C430 1.368 1_564 S
C446 C442 1.368 . S
C446 C445 1.523 1_554 S
H447 C422 0.950 . S
H448 C424 0.950 . S
H449 C425 0.949 . S
H450 C427 0.950 . S
H451 C429 0.950 . S
C452 C453 1.349 . S
C452 C454 1.327 . S
C452 H477 0.950 . S
C453 C452 1.349 . S
C453 C469 1.349 . S
C454 C452 1.327 . S
C454 C473 1.429 . S
C454 H478 0.950 . S
C455 C472 1.574 1_455 S
C455 C474 1.368 . S
C455 H479 0.949 . S
H456 C460 0.949 . S
C457 C458 1.349 . S
C457 C459 1.327 . S
C457 H480 0.950 . S
C458 C457 1.349 . S
C458 C470 1.349 . S
C459 C457 1.327 . S
C459 C475 1.429 . S
C459 H481 0.950 . S
C460 H456 0.949 . S
C460 C468 1.574 1_655 S
C460 C476 1.368 . S
H461 C469 0.950 . S
H462 C467 0.950 . S
H463 C468 0.949 . S
H464 C470 0.950 . S
H465 C471 0.950 . S
H466 C472 0.949 . S
C467 H462 0.950 . S
C467 C469 1.327 . S
C467 C473 1.429 . S
C468 C460 1.574 1_455 S
C468 H463 0.949 . S
C468 C474 1.368 . S
C469 C453 1.349 . S
C469 H461 0.950 . S
C469 C467 1.327 . S
C470 C458 1.349 . S
C470 H464 0.950 . S
C470 C471 1.327 . S
C471 H465 0.950 . S
C471 C470 1.327 . S
C471 C475 1.429 . S
C472 C455 1.574 1_655 S
C472 H466 0.949 . S
C472 C476 1.368 . S
C473 C454 1.429 . S
C473 C467 1.429 . S
C473 C474 1.523 . S
C474 C455 1.368 . S
C474 C468 1.368 . S
C474 C473 1.523 . S
C475 C459 1.429 . S
C475 C471 1.429 . S
C475 C476 1.523 . S
C476 C460 1.368 . S
C476 C472 1.368 . S
C476 C475 1.523 . S
H477 C452 0.950 . S
H478 C454 0.950 . S
H479 C455 0.949 . S
H480 C457 0.950 . S
H481 C459 0.950 . S
C482 C483 1.349 . S
C482 C484 1.327 . S
C482 H507 0.950 . S
C483 C482 1.349 . S
C483 C499 1.349 . S
C484 C482 1.327 . S
C484 C503 1.429 . S
C484 H508 0.950 . S
C485 C502 1.574 . S
C485 C504 1.368 . S
C485 H509 0.949 . S
H486 C490 0.949 . S
C487 C488 1.349 . S
C487 C489 1.327 . S
C487 H510 0.950 . S
C488 C487 1.349 . S
C488 C500 1.349 . S
C489 C487 1.327 . S
C489 C505 1.429 . S
C489 H511 0.950 . S
C490 H486 0.949 . S
C490 C498 1.574 . S
C490 C506 1.368 . S
H491 C499 0.950 . S
H492 C497 0.950 . S
H493 C498 0.949 . S
H494 C500 0.950 . S
H495 C501 0.950 . S
H496 C502 0.949 . S
C497 H492 0.950 . S
C497 C499 1.327 . S
C497 C503 1.429 . S
C498 C490 1.574 . S
C498 H493 0.949 . S
C498 C504 1.368 . S
C499 C483 1.349 . S
C499 H491 0.950 . S
C499 C497 1.327 . S
C500 C488 1.349 . S
C500 H494 0.950 . S
C500 C501 1.327 . S
C501 H495 0.950 . S
C501 C500 1.327 . S
C501 C505 1.429 . S
C502 C485 1.574 . S
C502 H496 0.949 . S
C502 C506 1.368 . S
C503 C484 1.429 . S
C503 C497 1.429 . S
C503 C504 1.523 . S
C504 C485 1.368 . S
C504 C498 1.368 . S
C504 C503 1.523 . S
C505 C489 1.429 . S
C505 C501 1.429 . S
C505 C506 1.523 . S
C506 C490 1.368 . S
C506 C502 1.368 . S
C506 C505 1.523 . S
H507 C482 0.950 . S
H508 C484 0.950 . S
H509 C485 0.949 . S
H510 C487 0.950 . S
H511 C489 0.950 . S
C512 C513 1.349 . S
C512 C514 1.327 . S
C512 H537 0.950 . S
C513 C512 1.349 . S
C513 C529 1.349 1_545 S
C514 C512 1.327 . S
C514 C533 1.429 1_545 S
C514 H538 0.950 . S
C515 C532 1.574 . S
C515 C534 1.368 . S
C515 H539 0.949 . S
H516 C520 0.949 . S
C517 C518 1.349 . S
C517 C519 1.327 . S
C517 H540 0.950 . S
C518 C517 1.349 . S
C518 C530 1.349 1_565 S
C519 C517 1.327 . S
C519 C535 1.429 . S
C519 H541 0.950 . S
C520 H516 0.949 . S
C520 C528 1.574 . S
C520 C536 1.368 1_545 S
H521 C529 0.950 . S
H522 C527 0.950 . S
H523 C528 0.949 . S
H524 C530 0.950 . S
H525 C531 0.950 . S
H526 C532 0.949 . S
C527 H522 0.950 . S
C527 C529 1.327 . S
C527 C533 1.429 . S
C528 C520 1.574 . S
C528 H523 0.949 . S
C528 C534 1.368 1_545 S
C529 C513 1.349 1_565 S
C529 H521 0.950 . S
C529 C527 1.327 . S
C530 C518 1.349 1_545 S
C530 H524 0.950 . S
C530 C531 1.327 . S
C531 H525 0.950 . S
C531 C530 1.327 . S
C531 C535 1.429 1_545 S
C532 C515 1.574 . S
C532 H526 0.949 . S
C532 C536 1.368 . S
C533 C514 1.429 1_565 S
C533 C527 1.429 . S
C533 C534 1.523 . S
C534 C515 1.368 . S
C534 C528 1.368 1_565 S
C534 C533 1.523 . S
C535 C519 1.429 . S
C535 C531 1.429 1_565 S
C535 C536 1.523 . S
C536 C520 1.368 1_565 S
C536 C532 1.368 . S
C536 C535 1.523 . S
H537 C512 0.950 . S
H538 C514 0.950 . S
H539 C515 0.949 . S
H540 C517 0.950 . S
H541 C519 0.950 . S
C542 C543 1.349 . S
C542 C544 1.327 . S
C542 H567 0.950 . S
C543 C542 1.349 . S
C543 C559 1.349 . S
C544 C542 1.327 . S
C544 C563 1.429 . S
C544 H568 0.950 . S
C545 C562 1.574 . S
C545 C564 1.368 . S
C545 H569 0.949 . S
H546 C550 0.949 . S
C547 C548 1.349 . S
C547 C549 1.327 . S
C547 H570 0.950 . S
C548 C547 1.349 . S
C548 C560 1.349 . S
C549 C547 1.327 . S
C549 C565 1.429 . S
C549 H571 0.950 . S
C550 H546 0.949 . S
C550 C558 1.574 . S
C550 C566 1.368 . S
H551 C559 0.950 . S
H552 C557 0.950 . S
H553 C558 0.949 . S
H554 C560 0.950 . S
H555 C561 0.950 . S
H556 C562 0.949 . S
C557 H552 0.950 . S
C557 C559 1.327 . S
C557 C563 1.429 . S
C558 C550 1.574 . S
C558 H553 0.949 . S
C558 C564 1.368 . S
C559 C543 1.349 . S
C559 H551 0.950 . S
C559 C557 1.327 . S
C560 C548 1.349 . S
C560 H554 0.950 . S
C560 C561 1.327 . S
C561 H555 0.950 . S
C561 C560 1.327 . S
C561 C565 1.429 . S
C562 C545 1.574 . S
C562 H556 0.949 . S
C562 C566 1.368 . S
C563 C544 1.429 . S
C563 C557 1.429 . S
C563 C564 1.523 . S
C564 C545 1.368 . S
C564 C558 1.368 . S
C564 C563 1.523 . S
C565 C549 1.429 . S
C565 C561 1.429 . S
C565 C566 1.523 . S
C566 C550 1.368 . S
C566 C562 1.368 . S
C566 C565 1.523 . S
H567 C542 0.950 . S
H568 C544 0.950 . S
H569 C545 0.949 . S
H570 C547 0.950 . S
H571 C549 0.950 . S
C572 C573 1.349 . S
C572 C574 1.327 . S
C572 H597 0.950 . S
C573 C572 1.349 . S
C573 C589 1.349 . S
C574 C572 1.327 . S
C574 C593 1.429 . S
C574 H598 0.950 . S
C575 C592 1.574 . S
C575 C594 1.368 . S
C575 H599 0.949 . S
H576 C580 0.949 . S
C577 C578 1.349 . S
C577 C579 1.327 . S
C577 H600 0.950 . S
C578 C577 1.349 . S
C578 C590 1.349 . S
C579 C577 1.327 . S
C579 C595 1.429 . S
C579 H601 0.950 . S
C580 H576 0.949 . S
C580 C588 1.574 . S
C580 C596 1.368 . S
H581 C589 0.950 . S
H582 C587 0.950 . S
H583 C588 0.949 . S
H584 C590 0.950 . S
H585 C591 0.950 . S
H586 C592 0.949 . S
C587 H582 0.950 . S
C587 C589 1.327 . S
C587 C593 1.429 . S
C588 C580 1.574 . S
C588 H583 0.949 . S
C588 C594 1.368 . S
C589 C573 1.349 . S
C589 H581 0.950 . S
C589 C587 1.327 . S
C590 C578 1.349 . S
C590 H584 0.950 . S
C590 C591 1.327 . S
C591 H585 0.950 . S
C591 C590 1.327 . S
C591 C595 1.429 . S
C592 C575 1.574 . S
C592 H586 0.949 . S
C592 C596 1.368 . S
C593 C574 1.429 . S
C593 C587 1.429 . S
C593 C594 1.523 . S
C594 C575 1.368 . S
C594 C588 1.368 . S
C594 C593 1.523 . S
C595 C579 1.429 . S
C595 C591 1.429 . S
C595 C596 1.523 1_554 S
C596 C580 1.368 . S
C596 C592 1.368 . S
C596 C595 1.523 1_556 S
H597 C572 0.950 . S
H598 C574 0.950 . S
H599 C575 0.949 . S
H600 C577 0.950 . S
H601 C579 0.950 . S
C602 C603 1.349 . S
C602 C604 1.327 . S
C602 H627 0.950 . S
C603 C602 1.349 . S
C603 C619 1.349 . S
C604 C602 1.327 . S
C604 C623 1.429 . S
C604 H628 0.950 . S
C605 C622 1.574 . S
C605 C624 1.368 . S
C605 H629 0.949 . S
H606 C610 0.949 . S
C607 C608 1.349 . S
C607 C609 1.327 . S
C607 H630 0.950 . S
C608 C607 1.349 . S
C608 C620 1.349 . S
C609 C607 1.327 . S
C609 C625 1.429 . S
C609 H631 0.950 . S
C610 H606 0.949 . S
C610 C618 1.574 . S
C610 C626 1.368 . S
H611 C619 0.950 . S
H612 C617 0.950 . S
H613 C618 0.949 . S
H614 C620 0.950 . S
H615 C621 0.950 . S
H616 C622 0.949 . S
C617 H612 0.950 . S
C617 C619 1.327 . S
C617 C623 1.429 . S
C618 C610 1.574 . S
C618 H613 0.949 . S
C618 C624 1.368 . S
C619 C603 1.349 . S
C619 H611 0.950 . S
C619 C617 1.327 . S
C620 C608 1.349 . S
C620 H614 0.950 . S
C620 C621 1.327 . S
C621 H615 0.950 . S
C621 C620 1.327 . S
C621 C625 1.429 . S
C622 C605 1.574 . S
C622 H616 0.949 . S
C622 C626 1.368 . S
C623 C604 1.429 . S
C623 C617 1.429 . S
C623 C624 1.523 1_554 S
C624 C605 1.368 . S
C624 C618 1.368 . S
C624 C623 1.523 1_556 S
C625 C609 1.429 . S
C625 C621 1.429 . S
C625 C626 1.523 . S
C626 C610 1.368 . S
C626 C622 1.368 . S
C626 C625 1.523 . S
H627 C602 0.950 . S
H628 C604 0.950 . S
H629 C605 0.949 . S
H630 C607 0.950 . S
H631 C609 0.950 . S
C632 C633 1.349 . S
C632 C634 1.327 . S
C632 H657 0.950 . S
C633 C632 1.349 . S
C633 C649 1.349 . S
C634 C632 1.327 . S
C634 C653 1.429 . S
C634 H658 0.950 . S
C635 C652 1.574 . S
C635 C654 1.368 . S
C635 H659 0.949 . S
H636 C640 0.949 . S
C637 C638 1.349 . S
C637 C639 1.327 . S
C637 H660 0.950 . S
C638 C637 1.349 . S
C638 C650 1.349 . S
C639 C637 1.327 . S
C639 C655 1.429 . S
C639 H661 0.950 . S
C640 H636 0.949 . S
C640 C648 1.574 . S
C640 C656 1.368 . S
H641 C649 0.950 . S
H642 C647 0.950 . S
H643 C648 0.949 . S
H644 C650 0.950 . S
H645 C651 0.950 . S
H646 C652 0.949 . S
C647 H642 0.950 . S
C647 C649 1.327 . S
C647 C653 1.429 . S
C648 C640 1.574 . S
C648 H643 0.949 . S
C648 C654 1.368 . S
C649 C633 1.349 . S
C649 H641 0.950 . S
C649 C647 1.327 . S
C650 C638 1.349 . S
C650 H644 0.950 . S
C650 C651 1.327 . S
C651 H645 0.950 . S
C651 C650 1.327 . S
C651 C655 1.429 . S
C652 C635 1.574 . S
C652 H646 0.949 . S
C652 C656 1.368 . S
C653 C634 1.429 . S
C653 C647 1.429 . S
C653 C654 1.523 . S
C654 C635 1.368 . S
C654 C648 1.368 . S
C654 C653 1.523 . S
C655 C639 1.429 . S
C655 C651 1.429 . S
C655 C656 1.523 . S
C656 C640 1.368 . S
C656 C652 1.368 . S
C656 C655 1.523 . S
H657 C632 0.950 . S
H658 C634 0.950 . S
H659 C635 0.949 . S
H660 C637 0.950 . S
H661 C639 0.950 . S
C662 C663 1.349 . S
C662 C664 1.327 . S
C662 H687 0.950 1_545 S
C663 C662 1.349 . S
C663 C679 1.349 . S
C664 C662 1.327 . S
C664 C683 1.429 . S
C664 H688 0.950 1_545 S
C665 C682 1.574 . S
C665 C684 1.368 . S
C665 H689 0.949 . S
H666 C670 0.949 . S
C667 C668 1.349 . S
C667 C669 1.327 . S
C667 H690 0.950 . S
C668 C667 1.349 . S
C668 C680 1.349 . S
C669 C667 1.327 . S
C669 C685 1.429 . S
C669 H691 0.950 . S
C670 H666 0.949 . S
C670 C678 1.574 . S
C670 C686 1.368 . S
H671 C679 0.950 . S
H672 C677 0.950 . S
H673 C678 0.949 1_565 S
H674 C680 0.950 . S
H675 C681 0.950 . S
H676 C682 0.949 . S
C677 H672 0.950 . S
C677 C679 1.327 . S
C677 C683 1.429 . S
C678 C670 1.574 . S
C678 H673 0.949 1_545 S
C678 C684 1.368 . S
C679 C663 1.349 . S
C679 H671 0.950 . S
C679 C677 1.327 . S
C680 C668 1.349 . S
C680 H674 0.950 . S
C680 C681 1.327 . S
C681 H675 0.950 . S
C681 C680 1.327 . S
C681 C685 1.429 . S
C682 C665 1.574 . S
C682 H676 0.949 . S
C682 C686 1.368 . S
C683 C664 1.429 . S
C683 C677 1.429 . S
C683 C684 1.523 . S
C684 C665 1.368 . S
C684 C678 1.368 . S
C684 C683 1.523 . S
C685 C669 1.429 . S
C685 C681 1.429 . S
C685 C686 1.523 . S
C686 C670 1.368 . S
C686 C682 1.368 . S
C686 C685 1.523 . S
H687 C662 0.950 1_565 S
H688 C664 0.950 1_565 S
H689 C665 0.949 . S
H690 C667 0.950 . S
H691 C669 0.950 . S
C692 C693 1.349 . S
C692 C694 1.327 . S
C692 H717 0.950 . S
C693 C692 1.349 . S
C693 C709 1.349 . S
C694 C692 1.327 . S
C694 C713 1.429 . S
C694 H718 0.950 . S
C695 C712 1.574 . S
C695 C714 1.368 . S
C695 H719 0.949 . S
H696 C700 0.949 . S
C697 C698 1.349 . S
C697 C699 1.327 . S
C697 H720 0.950 . S
C698 C697 1.349 . S
C698 C710 1.349 . S
C699 C697 1.327 . S
C699 C715 1.429 . S
C699 H721 0.950 . S
C700 H696 0.949 . S
C700 C708 1.574 . S
C700 C716 1.368 . S
H701 C709 0.950 . S
H702 C707 0.950 . S
H703 C708 0.949 . S
H704 C710 0.950 . S
H705 C711 0.950 . S
H706 C712 0.949 . S
C707 H702 0.950 . S
C707 C709 1.327 . S
C707 C713 1.429 . S
C708 C700 1.574 . S
C708 H703 0.949 . S
C708 C714 1.368 . S
C709 C693 1.349 . S
C709 H701 0.950 . S
C709 C707 1.327 . S
C710 C698 1.349 . S
C710 H704 0.950 . S
C710 C711 1.327 . S
C711 H705 0.950 . S
C711 C710 1.327 . S
C711 C715 1.429 . S
C712 C695 1.574 . S
C712 H706 0.949 . S
C712 C716 1.368 . S
C713 C694 1.429 . S
C713 C707 1.429 . S
C713 C714 1.523 . S
C714 C695 1.368 . S
C714 C708 1.368 . S
C714 C713 1.523 . S
C715 C699 1.429 . S
C715 C711 1.429 . S
C715 C716 1.523 1_556 S
C716 C700 1.368 . S
C716 C712 1.368 . S
C716 C715 1.523 1_554 S
H717 C692 0.950 . S
H718 C694 0.950 . S
H719 C695 0.949 . S
H720 C697 0.950 . S
H721 C699 0.950 . S
C722 C723 1.349 . S
C722 C724 1.327 . S
C722 H747 0.950 . S
C723 C722 1.349 . S
C723 C739 1.349 . S
C724 C722 1.327 . S
C724 C743 1.429 . S
C724 H748 0.950 . S
C725 C742 1.574 . S
C725 C744 1.368 . S
C725 H749 0.949 . S
H726 C730 0.949 . S
C727 C728 1.349 . S
C727 C729 1.327 . S
C727 H750 0.950 . S
C728 C727 1.349 . S
C728 C740 1.349 . S
C729 C727 1.327 . S
C729 C745 1.429 . S
C729 H751 0.950 . S
C730 H726 0.949 . S
C730 C738 1.574 . S
C730 C746 1.368 . S
H731 C739 0.950 . S
H732 C737 0.950 . S
H733 C738 0.949 . S
H734 C740 0.950 . S
H735 C741 0.950 . S
H736 C742 0.949 . S
C737 H732 0.950 . S
C737 C739 1.327 . S
C737 C743 1.429 . S
C738 C730 1.574 . S
C738 H733 0.949 . S
C738 C744 1.368 . S
C739 C723 1.349 . S
C739 H731 0.950 . S
C739 C737 1.327 . S
C740 C728 1.349 . S
C740 H734 0.950 . S
C740 C741 1.327 . S
C741 H735 0.950 . S
C741 C740 1.327 . S
C741 C745 1.429 . S
C742 C725 1.574 . S
C742 H736 0.949 . S
C742 C746 1.368 . S
C743 C724 1.429 . S
C743 C737 1.429 . S
C743 C744 1.523 . S
C744 C725 1.368 . S
C744 C738 1.368 . S
C744 C743 1.523 . S
C745 C729 1.429 . S
C745 C741 1.429 . S
C745 C746 1.523 1_556 S
C746 C730 1.368 . S
C746 C742 1.368 . S
C746 C745 1.523 1_554 S
H747 C722 0.950 . S
H748 C724 0.950 . S
H749 C725 0.949 . S
H750 C727 0.950 . S
H751 C729 0.950 . S
C752 C753 1.349 . S
C752 C754 1.327 . S
C752 H777 0.950 . S
C753 C752 1.349 . S
C753 C769 1.349 . S
C754 C752 1.327 . S
C754 C773 1.429 . S
C754 H778 0.950 . S
C755 C772 1.574 . S
C755 C774 1.368 . S
C755 H779 0.949 . S
H756 C760 0.949 . S
C757 C758 1.349 . S
C757 C759 1.327 . S
C757 H780 0.950 . S
C758 C757 1.349 . S
C758 C770 1.349 . S
C759 C757 1.327 . S
C759 C775 1.429 . S
C759 H781 0.950 . S
C760 H756 0.949 . S
C760 C768 1.574 . S
C760 C776 1.368 . S
H761 C769 0.950 . S
H762 C767 0.950 . S
H763 C768 0.949 . S
H764 C770 0.950 . S
H765 C771 0.950 . S
H766 C772 0.949 . S
C767 H762 0.950 . S
C767 C769 1.327 . S
C767 C773 1.429 . S
C768 C760 1.574 . S
C768 H763 0.949 . S
C768 C774 1.368 . S
C769 C753 1.349 . S
C769 H761 0.950 . S
C769 C767 1.327 . S
C770 C758 1.349 . S
C770 H764 0.950 . S
C770 C771 1.327 . S
C771 H765 0.950 . S
C771 C770 1.327 . S
C771 C775 1.429 . S
C772 C755 1.574 . S
C772 H766 0.949 . S
C772 C776 1.368 . S
C773 C754 1.429 . S
C773 C767 1.429 . S
C773 C774 1.523 . S
C774 C755 1.368 . S
C774 C768 1.368 . S
C774 C773 1.523 . S
C775 C759 1.429 . S
C775 C771 1.429 . S
C775 C776 1.523 . S
C776 C760 1.368 . S
C776 C772 1.368 . S
C776 C775 1.523 . S
H777 C752 0.950 . S
H778 C754 0.950 . S
H779 C755 0.949 . S
H780 C757 0.950 . S
H781 C759 0.950 . S
C782 C783 1.349 . S
C782 C784 1.327 . S
C782 H807 0.950 . S
C783 C782 1.349 . S
C783 C799 1.349 . S
C784 C782 1.327 . S
C784 C803 1.429 . S
C784 H808 0.950 . S
C785 C802 1.574 . S
C785 C804 1.368 . S
C785 H809 0.949 . S
H786 C790 0.949 . S
C787 C788 1.349 . S
C787 C789 1.327 . S
C787 H810 0.950 . S
C788 C787 1.349 . S
C788 C800 1.349 . S
C789 C787 1.327 . S
C789 C805 1.429 . S
C789 H811 0.950 . S
C790 H786 0.949 . S
C790 C798 1.574 . S
C790 C806 1.368 . S
H791 C799 0.950 . S
H792 C797 0.950 . S
H793 C798 0.949 . S
H794 C800 0.950 . S
H795 C801 0.950 . S
H796 C802 0.949 . S
C797 H792 0.950 . S
C797 C799 1.327 . S
C797 C803 1.429 . S
C798 C790 1.574 . S
C798 H793 0.949 . S
C798 C804 1.368 . S
C799 C783 1.349 . S
C799 H791 0.950 . S
C799 C797 1.327 . S
C800 C788 1.349 . S
C800 H794 0.950 . S
C800 C801 1.327 . S
C801 H795 0.950 . S
C801 C800 1.327 . S
C801 C805 1.429 . S
C802 C785 1.574 . S
C802 H796 0.949 . S
C802 C806 1.368 . S
C803 C784 1.429 . S
C803 C797 1.429 . S
C803 C804 1.523 . S
C804 C785 1.368 . S
C804 C798 1.368 . S
C804 C803 1.523 . S
C805 C789 1.429 . S
C805 C801 1.429 . S
C805 C806 1.523 . S
C806 C790 1.368 . S
C806 C802 1.368 . S
C806 C805 1.523 . S
H807 C782 0.950 . S
H808 C784 0.950 . S
H809 C785 0.949 . S
H810 C787 0.950 . S
H811 C789 0.950 . S
C812 C813 1.349 . S
C812 C814 1.327 . S
C812 H837 0.950 . S
C813 C812 1.349 . S
C813 C829 1.349 . S
C814 C812 1.327 . S
C814 C833 1.429 . S
C814 H838 0.950 . S
C815 C832 1.574 . S
C815 C834 1.368 . S
C815 H839 0.949 . S
H816 C820 0.949 . S
C817 C818 1.349 . S
C817 C819 1.327 . S
C817 H840 0.950 . S
C818 C817 1.349 . S
C818 C830 1.349 . S
C819 C817 1.327 . S
C819 C835 1.429 . S
C819 H841 0.950 . S
C820 H816 0.949 . S
C820 C828 1.574 . S
C820 C836 1.368 . S
H821 C829 0.950 . S
H822 C827 0.950 . S
H823 C828 0.949 . S
H824 C830 0.950 . S
H825 C831 0.950 . S
H826 C832 0.949 . S
C827 H822 0.950 . S
C827 C829 1.327 . S
C827 C833 1.429 . S
C828 C820 1.574 . S
C828 H823 0.949 . S
C828 C834 1.368 . S
C829 C813 1.349 . S
C829 H821 0.950 . S
C829 C827 1.327 . S
C830 C818 1.349 . S
C830 H824 0.950 . S
C830 C831 1.327 . S
C831 H825 0.950 . S
C831 C830 1.327 . S
C831 C835 1.429 . S
C832 C815 1.574 . S
C832 H826 0.949 . S
C832 C836 1.368 . S
C833 C814 1.429 . S
C833 C827 1.429 . S
C833 C834 1.523 . S
C834 C815 1.368 . S
C834 C828 1.368 . S
C834 C833 1.523 . S
C835 C819 1.429 . S
C835 C831 1.429 . S
C835 C836 1.523 . S
C836 C820 1.368 . S
C836 C832 1.368 . S
C836 C835 1.523 . S
H837 C812 0.950 . S
H838 C814 0.950 . S
H839 C815 0.949 . S
H840 C817 0.950 . S
H841 C819 0.950 . S
C842 C843 1.349 . S
C842 C844 1.327 . S
C842 H867 0.950 . S
C843 C842 1.349 . S
C843 C859 1.349 . S
C844 C842 1.327 . S
C844 C863 1.429 . S
C844 H868 0.950 . S
C845 C862 1.574 . S
C845 C864 1.368 . S
C845 H869 0.949 . S
H846 C850 0.949 . S
C847 C848 1.349 . S
C847 C849 1.327 . S
C847 H870 0.950 . S
C848 C847 1.349 . S
C848 C860 1.349 . S
C849 C847 1.327 . S
C849 C865 1.429 . S
C849 H871 0.950 . S
C850 H846 0.949 . S
C850 C858 1.574 . S
C850 C866 1.368 . S
H851 C859 0.950 . S
H852 C857 0.950 . S
H853 C858 0.949 . S
H854 C860 0.950 . S
H855 C861 0.950 . S
H856 C862 0.949 . S
C857 H852 0.950 . S
C857 C859 1.327 . S
C857 C863 1.429 . S
C858 C850 1.574 . S
C858 H853 0.949 . S
C858 C864 1.368 . S
C859 C843 1.349 . S
C859 H851 0.950 . S
C859 C857 1.327 . S
C860 C848 1.349 . S
C860 H854 0.950 . S
C860 C861 1.327 . S
C861 H855 0.950 . S
C861 C860 1.327 . S
C861 C865 1.429 . S
C862 C845 1.574 . S
C862 H856 0.949 . S
C862 C866 1.368 . S
C863 C844 1.429 . S
C863 C857 1.429 . S
C863 C864 1.523 . S
C864 C845 1.368 . S
C864 C858 1.368 . S
C864 C863 1.523 . S
C865 C849 1.429 . S
C865 C861 1.429 . S
C865 C866 1.523 . S
C866 C850 1.368 . S
C866 C862 1.368 . S
C866 C865 1.523 . S
H867 C842 0.950 . S
H868 C844 0.950 . S
H869 C845 0.949 . S
H870 C847 0.950 . S
H871 C849 0.950 . S
C273 C36 1.868 . S
C278 C2 1.869 . S
C303 C70 1.413 . S
C308 C104 1.414 . S
C333 C172 1.747 . S
C338 C138 1.742 . S
C363 C206 1.045 . S
C368 C240 1.046 . S
C393 C169 1.786 . S
C398 C20 1.795 . S
C423 C54 1.779 . S
C428 C190 1.780 . S
C453 C88 1.078 . S
C458 C224 1.078 . S
C483 C122 1.563 . S
C488 C258 1.563 . S
C513 C9 1.163 . S
C518 C5 1.200 . S
C543 C39 1.173 . S
C548 C43 1.134 . S
C573 C77 1.159 . S
C578 C73 1.197 . S
C603 C107 1.171 . S
C608 C111 1.132 . S
C633 C141 1.211 . S
C638 C145 1.161 . S
C663 C175 1.203 . S
C668 C179 1.162 . S
C693 C213 1.131 . S
C698 C209 1.171 . S
C723 C247 1.166 . S
C728 C243 1.198 . S
C753 C33 1.632 . S
C758 C101 1.627 . S
C783 C67 1.918 . S
C788 C135 1.920 . S
C813 C156 1.366 . S
C818 C237 1.372 . S
C843 C203 1.281 . S
C848 C271 1.289 . S
