# Generated by pormake.
# Topology ume, (4)-cn, num edge types: 1
# Building blocks:
#     Node 0, Type 0, BuildingBlock: ICAMEG_clean_sbu_1, # of connection points: 4
#     Node 1, Type 0, BuildingBlock: ICAMEG_clean_sbu_1, # of connection points: 4
#     Node 2, Type 0, BuildingBlock: ICAMEG_clean_sbu_1, # of connection points: 4
#     Node 3, Type 0, BuildingBlock: ICAMEG_clean_sbu_1, # of connection points: 4
#     Node 4, Type 0, BuildingBlock: ICAMEG_clean_sbu_1, # of connection points: 4
#     Node 5, Type 0, BuildingBlock: ICAMEG_clean_sbu_1, # of connection points: 4
#     Node 6, Type 0, BuildingBlock: ICAMEG_clean_sbu_1, # of connection points: 4
#     Node 7, Type 0, BuildingBlock: ICAMEG_clean_sbu_1, # of connection points: 4
#     Node 8, Type 0, BuildingBlock: ICAMEG_clean_sbu_1, # of connection points: 4
#     Node 9, Type 0, BuildingBlock: ICAMEG_clean_sbu_1, # of connection points: 4
#     Node 10, Type 0, BuildingBlock: ICAMEG_clean_sbu_1, # of connection points: 4
#     Node 11, Type 0, BuildingBlock: ICAMEG_clean_sbu_1, # of connection points: 4
#     Node 12, Type 0, BuildingBlock: ICAMEG_clean_sbu_1, # of connection points: 4
#     Node 13, Type 0, BuildingBlock: ICAMEG_clean_sbu_1, # of connection points: 4
#     Node 14, Type 0, BuildingBlock: ICAMEG_clean_sbu_1, # of connection points: 4
#     Node 15, Type 0, BuildingBlock: ICAMEG_clean_sbu_1, # of connection points: 4
#     Edge 16, Type (0, 0), BuildingBlock: KIFKEQ_clean_linker_1, # of connection points: 2
#     Edge 17, Type (0, 0), BuildingBlock: KIFKEQ_clean_linker_1, # of connection points: 2
#     Edge 18, Type (0, 0), BuildingBlock: KIFKEQ_clean_linker_1, # of connection points: 2
#     Edge 19, Type (0, 0), BuildingBlock: KIFKEQ_clean_linker_1, # of connection points: 2
#     Edge 20, Type (0, 0), BuildingBlock: KIFKEQ_clean_linker_1, # of connection points: 2
#     Edge 21, Type (0, 0), BuildingBlock: KIFKEQ_clean_linker_1, # of connection points: 2
#     Edge 22, Type (0, 0), BuildingBlock: KIFKEQ_clean_linker_1, # of connection points: 2
#     Edge 23, Type (0, 0), BuildingBlock: KIFKEQ_clean_linker_1, # of connection points: 2
#     Edge 24, Type (0, 0), BuildingBlock: KIFKEQ_clean_linker_1, # of connection points: 2
#     Edge 25, Type (0, 0), BuildingBlock: KIFKEQ_clean_linker_1, # of connection points: 2
#     Edge 26, Type (0, 0), BuildingBlock: KIFKEQ_clean_linker_1, # of connection points: 2
#     Edge 27, Type (0, 0), BuildingBlock: KIFKEQ_clean_linker_1, # of connection points: 2
#     Edge 28, Type (0, 0), BuildingBlock: KIFKEQ_clean_linker_1, # of connection points: 2
#     Edge 29, Type (0, 0), BuildingBlock: KIFKEQ_clean_linker_1, # of connection points: 2
#     Edge 30, Type (0, 0), BuildingBlock: KIFKEQ_clean_linker_1, # of connection points: 2
#     Edge 31, Type (0, 0), BuildingBlock: KIFKEQ_clean_linker_1, # of connection points: 2
#     Edge 32, Type (0, 0), BuildingBlock: KIFKEQ_clean_linker_1, # of connection points: 2
#     Edge 33, Type (0, 0), BuildingBlock: KIFKEQ_clean_linker_1, # of connection points: 2
#     Edge 34, Type (0, 0), BuildingBlock: KIFKEQ_clean_linker_1, # of connection points: 2
#     Edge 35, Type (0, 0), BuildingBlock: KIFKEQ_clean_linker_1, # of connection points: 2
#     Edge 36, Type (0, 0), BuildingBlock: KIFKEQ_clean_linker_1, # of connection points: 2
#     Edge 37, Type (0, 0), BuildingBlock: KIFKEQ_clean_linker_1, # of connection points: 2
#     Edge 38, Type (0, 0), BuildingBlock: KIFKEQ_clean_linker_1, # of connection points: 2
#     Edge 39, Type (0, 0), BuildingBlock: KIFKEQ_clean_linker_1, # of connection points: 2
#     Edge 40, Type (0, 0), BuildingBlock: KIFKEQ_clean_linker_1, # of connection points: 2
#     Edge 41, Type (0, 0), BuildingBlock: KIFKEQ_clean_linker_1, # of connection points: 2
#     Edge 42, Type (0, 0), BuildingBlock: KIFKEQ_clean_linker_1, # of connection points: 2
#     Edge 43, Type (0, 0), BuildingBlock: KIFKEQ_clean_linker_1, # of connection points: 2
#     Edge 44, Type (0, 0), BuildingBlock: KIFKEQ_clean_linker_1, # of connection points: 2
#     Edge 45, Type (0, 0), BuildingBlock: KIFKEQ_clean_linker_1, # of connection points: 2
#     Edge 46, Type (0, 0), BuildingBlock: KIFKEQ_clean_linker_1, # of connection points: 2
#     Edge 47, Type (0, 0), BuildingBlock: KIFKEQ_clean_linker_1, # of connection points: 2
# Relax obj value: 0.073
# Max RMSD: 0.096
# Mean RMSD: 0.096
data_MOF--net-ume--node1-ICAMEG_clean_sbu_1--edge1-KIFKEQ_clean_linker_1
_symmetry_space_group_name_H-M    P1
_symmetry_Int_Tables_number       1
_symmetry_cell_setting            triclinic
loop_
_symmetry_equiv_pos_as_xyz
'x, y, z'
_cell_length_a     30.101859
_cell_length_b     30.088552
_cell_length_c     121.10116
_cell_angle_alpha  89.995388
_cell_angle_beta   90.009978
_cell_angle_gamma 89.978825
loop_
_atom_site_label
_atom_site_type_symbol
_atom_site_fract_x
_atom_site_fract_y
_atom_site_fract_z
_atom_type_partial_charge
Co0 Co 0.27473 0.12139 0.3158 0.0
Co1 Co 0.24655 0.02797 0.3011 0.0
O2 O 0.23465 0.07166 0.31269 0.0
C3 C 0.26185 0.07853 0.33745 0.0
O4 O 0.26818 0.04052 0.33238 0.0
C5 C 0.15333 0.05468 0.29716 0.0
O6 O 0.165 0.0963 0.29862 0.0
O7 O 0.25263 0.07622 0.29001 0.0
O8 O 0.28841 0.1291 0.29964 0.0
H9 H 0.32798 0.96629 0.26829 0.0
H10 H 0.18341 0.12318 0.3249 0.0
O11 O 0.26267 0.1148 0.33202 0.0
H12 H 0.19457 0.25616 0.30126 0.0
H13 H 0.32136 0.26118 0.33548 0.0
H14 H 0.36377 0.14861 0.30782 0.0
H15 H 0.25859 0.20575 0.30346 0.0
H16 H 0.27098 0.19899 0.33108 0.0
O17 O 0.18193 0.02376 0.29784 0.0
H18 H 0.31317 0.02023 0.28317 0.0
H19 H 0.20311 0.94347 0.29403 0.0
H20 H 0.41501 0.21045 0.31189 0.0
H21 H 0.11867 0.17293 0.32301 0.0
H22 H 0.39388 0.26729 0.32581 0.0
H23 H 0.12401 0.23991 0.31109 0.0
O24 O 0.32585 0.08017 0.31731 0.0
H25 H 0.17232 0.94853 0.33258 0.0
H26 H 0.30063 0.94843 0.30726 0.0
H27 H 0.2943 0.88982 0.3214 0.0
H28 H 0.22975 0.88958 0.33418 0.0
H29 H 0.18021 0.00684 0.3184 0.0
H30 H 0.21653 0.88889 0.2792 0.0
H31 H 0.27946 0.90004 0.26623 0.0
O32 O 0.31164 0.03015 0.30405 0.0
C33 C 0.27496 0.11216 0.29056 0.0
C34 C 0.30054 0.96099 0.27391 0.0
C35 C 0.23796 0.91757 0.28003 0.0
N36 N 0.25756 0.98482 0.28952 0.0
C37 C 0.29206 0.99135 0.28237 0.0
C38 C 0.23048 0.94864 0.28839 0.0
C39 C 0.27328 0.92385 0.27275 0.0
C40 C 0.18609 0.1525 0.31979 0.0
N41 N 0.22475 0.16164 0.31433 0.0
C42 C 0.14928 0.18044 0.31871 0.0
C43 C 0.15227 0.21797 0.312 0.0
C44 C 0.19184 0.22709 0.30648 0.0
C45 C 0.22794 0.19835 0.30773 0.0
C46 C 0.33088 0.2367 0.32937 0.0
C47 C 0.35421 0.17342 0.31382 0.0
C48 C 0.30252 0.20139 0.32686 0.0
N49 N 0.31424 0.1705 0.31912 0.0
C50 C 0.38342 0.20826 0.31613 0.0
C51 C 0.37156 0.24011 0.32395 0.0
C52 C 0.33729 0.04774 0.31118 0.0
C53 C 0.20053 0.9482 0.32704 0.0
C54 C 0.27252 0.94869 0.31282 0.0
C55 C 0.26906 0.91532 0.32079 0.0
C56 C 0.2328 0.91518 0.32795 0.0
N57 N 0.24074 0.98099 0.31199 0.0
C58 C 0.20506 0.981 0.31896 0.0
Co59 Co 0.86964 0.77438 0.56685 0.0
Co60 Co 0.96395 0.74771 0.55234 0.0
O61 O 0.92097 0.73596 0.56409 0.0
C62 C 0.91377 0.76689 0.58851 0.0
O63 O 0.95119 0.77425 0.58326 0.0
C64 C 0.94074 0.65328 0.5492 0.0
O65 O 0.89872 0.66385 0.55046 0.0
O66 O 0.91542 0.75 0.54126 0.0
O67 O 0.8609 0.78477 0.55055 0.0
H68 H 0.02176 0.82588 0.51861 0.0
H69 H 0.87225 0.68465 0.57689 0.0
O70 O 0.87726 0.7654 0.58318 0.0
H71 H 0.73822 0.68597 0.55348 0.0
H72 H 0.72859 0.81843 0.58632 0.0
H73 H 0.83818 0.86058 0.55793 0.0
H74 H 0.78572 0.7525 0.5549 0.0
H75 H 0.79284 0.77005 0.58235 0.0
O76 O 0.9707 0.68289 0.54974 0.0
H77 H 0.96867 0.81143 0.5337 0.0
H78 H 0.05011 0.70662 0.54565 0.0
H79 H 0.77424 0.90977 0.56156 0.0
H80 H 0.82546 0.61748 0.57579 0.0
H81 H 0.71889 0.88876 0.57584 0.0
H82 H 0.75796 0.61786 0.56398 0.0
O83 O 0.90857 0.82751 0.56772 0.0
H84 H 0.04679 0.68196 0.58445 0.0
H85 H 0.04115 0.80602 0.55787 0.0
H86 H 0.1001 0.80444 0.57201 0.0
H87 H 0.10321 0.74204 0.58541 0.0
H88 H 0.98808 0.6851 0.57026 0.0
H89 H 0.10391 0.71971 0.53064 0.0
H90 H 0.08997 0.77984 0.51701 0.0
O91 O 0.95909 0.81301 0.5546 0.0
C92 C 0.87841 0.77055 0.5416 0.0
C93 C 0.02828 0.79969 0.52452 0.0
C94 C 0.07437 0.74007 0.53126 0.0
N95 N 0.00647 0.7585 0.5406 0.0
C96 C -0.0016 0.79143 0.5331 0.0
C97 C 0.04374 0.73276 0.53973 0.0
C98 C 0.06653 0.77382 0.52362 0.0
C99 C 0.8427 0.68518 0.57183 0.0
N100 N 0.83163 0.72247 0.56601 0.0
C101 C 0.81644 0.647 0.5712 0.0
C102 C 0.77861 0.64721 0.56456 0.0
C103 C 0.76753 0.6854 0.55865 0.0
C104 C 0.79462 0.72293 0.55947 0.0
C105 C 0.75241 0.82788 0.58005 0.0
C106 C 0.81404 0.85107 0.56409 0.0
C107 C 0.78888 0.80066 0.57778 0.0
N108 N 0.81894 0.81228 0.56983 0.0
C109 C 0.77799 0.87912 0.56614 0.0
C110 C 0.74698 0.86734 0.57417 0.0
C111 C 0.94044 0.83915 0.56144 0.0
C112 C 0.04586 0.70925 0.57863 0.0
C113 C 0.04215 0.77884 0.5637 0.0
C114 C 0.0757 0.77806 0.57167 0.0
C115 C 0.07746 0.74301 0.57918 0.0
N116 N 0.01125 0.74561 0.56322 0.0
C117 C 0.01283 0.71109 0.57055 0.0
Co118 Co 0.22506 0.38243 0.81613 0.0
Co119 Co 0.24394 0.4822 0.8029 0.0
O120 O 0.26011 0.43595 0.81344 0.0
C121 C 0.23198 0.42403 0.83807 0.0
O122 O 0.21949 0.46096 0.8332 0.0
C123 C 0.33514 0.45822 0.79616 0.0
O124 O 0.32247 0.41649 0.79573 0.0
O125 O 0.23524 0.43719 0.79101 0.0
O126 O 0.21249 0.37562 0.79995 0.0
H127 H 0.15137 0.55211 0.77306 0.0
H128 H 0.31632 0.38925 0.82516 0.0
O129 O 0.23661 0.38858 0.83241 0.0
H130 H 0.31854 0.25855 0.8006 0.0
H131 H 0.19295 0.2364 0.83476 0.0
H132 H 0.13935 0.34711 0.80784 0.0
H133 H 0.2496 0.3016 0.80325 0.0
H134 H 0.23664 0.30399 0.83087 0.0
O135 O 0.3076 0.48853 0.79873 0.0
H136 H 0.17152 0.49418 0.78658 0.0
H137 H 0.28437 0.56895 0.79647 0.0
H138 H 0.09476 0.27984 0.81141 0.0
H139 H 0.38593 0.34698 0.82282 0.0
H140 H 0.12155 0.22391 0.82495 0.0
H141 H 0.38733 0.28116 0.81044 0.0
O142 O 0.16963 0.41773 0.8178 0.0
H143 H 0.32495 0.55244 0.83471 0.0
H144 H 0.19132 0.55944 0.81123 0.0
H145 H 0.20047 0.61349 0.82635 0.0
H146 H 0.26771 0.61022 0.83822 0.0
H147 H 0.31421 0.49874 0.81956 0.0
H148 H 0.26566 0.62751 0.78299 0.0
H149 H 0.19862 0.61937 0.7712 0.0
O150 O 0.1801 0.47749 0.807 0.0
C151 C 0.21979 0.39767 0.79112 0.0
C152 C 0.18059 0.55611 0.77817 0.0
C153 C 0.24477 0.5984 0.78374 0.0
N154 N 0.22887 0.52835 0.79236 0.0
C155 C 0.19209 0.52348 0.78586 0.0
C156 C 0.25525 0.56508 0.79134 0.0
C157 C 0.20714 0.59381 0.77713 0.0
C158 C 0.3166 0.36042 0.81984 0.0
N159 N 0.27891 0.34775 0.8144 0.0
C160 C 0.35614 0.33671 0.81851 0.0
C161 C 0.35692 0.29983 0.81155 0.0
C162 C 0.31834 0.28713 0.80603 0.0
C163 C 0.27943 0.31168 0.80754 0.0
C164 C 0.181 0.26046 0.82881 0.0
C165 C 0.15138 0.32273 0.81368 0.0
C166 C 0.20556 0.2988 0.82659 0.0
N167 N 0.19078 0.32917 0.81904 0.0
C168 C 0.12592 0.2848 0.81569 0.0
C169 C 0.14094 0.25346 0.82331 0.0
C170 C 0.15589 0.45323 0.81317 0.0
C171 C 0.29553 0.55425 0.82958 0.0
C172 C 0.22054 0.55765 0.81638 0.0
C173 C 0.22563 0.58845 0.82491 0.0
C174 C 0.26338 0.58662 0.83156 0.0
N175 N 0.25218 0.52595 0.8145 0.0
C176 C 0.28935 0.52404 0.82096 0.0
Co177 Co 0.61944 0.72367 0.06598 0.0
Co178 Co 0.52144 0.7454 0.05221 0.0
O179 O 0.56611 0.75945 0.06341 0.0
C180 C 0.57603 0.72877 0.08777 0.0
O181 O 0.53864 0.72034 0.08261 0.0
C182 C 0.54469 0.83868 0.0477 0.0
O183 O 0.58671 0.82765 0.0487 0.0
O184 O 0.56793 0.74048 0.04063 0.0
O185 O 0.62775 0.71443 0.04967 0.0
H186 H 0.45824 0.66076 0.02008 0.0
H187 H 0.61227 0.81294 0.07614 0.0
O188 O 0.61222 0.73173 0.08235 0.0
H189 H 0.74503 0.81959 0.05235 0.0
H190 H 0.76364 0.68671 0.08494 0.0
H191 H 0.65545 0.64 0.05664 0.0
H192 H 0.7015 0.75042 0.05385 0.0
H193 H 0.69654 0.73151 0.08131 0.0
O194 O 0.51442 0.80967 0.04885 0.0
H195 H 0.51375 0.67811 0.03442 0.0
H196 H 0.43426 0.7852 0.0459 0.0
H197 H 0.7223 0.5944 0.05993 0.0
H198 H 0.65504 0.88271 0.07494 0.0
H199 H 0.77695 0.61772 0.07417 0.0
H200 H 0.72188 0.88635 0.06295 0.0
O201 O 0.58364 0.66822 0.06689 0.0
H202 H 0.44417 0.81763 0.08431 0.0
H203 H 0.44542 0.68836 0.05928 0.0
H204 H 0.38902 0.69278 0.074 0.0
H205 H 0.38813 0.75779 0.08664 0.0
H206 H 0.50028 0.81168 0.06955 0.0
H207 H 0.37802 0.76924 0.03163 0.0
H208 H 0.38977 0.7065 0.01862 0.0
O209 O 0.52692 0.68086 0.05526 0.0
C210 C 0.60706 0.72421 0.04077 0.0
C211 C 0.45264 0.68807 0.02573 0.0
C212 C 0.40765 0.74898 0.0322 0.0
N213 N 0.47702 0.7323 0.04107 0.0
C214 C 0.48389 0.69795 0.03389 0.0
C215 C 0.43964 0.7579 0.04026 0.0
C216 C 0.41426 0.71377 0.0249 0.0
C217 C 0.64156 0.81417 0.07099 0.0
N218 N 0.65448 0.77762 0.06511 0.0
C219 C 0.66554 0.85381 0.07031 0.0
C220 C 0.70299 0.85584 0.06357 0.0
C221 C 0.71599 0.81841 0.05761 0.0
C222 C 0.69114 0.77937 0.05847 0.0
C223 C 0.74012 0.67626 0.0787 0.0
C224 C 0.67923 0.65049 0.0628 0.0
C225 C 0.70203 0.70144 0.07662 0.0
N226 N 0.67232 0.68854 0.06871 0.0
C227 C 0.71695 0.62448 0.06465 0.0
C228 C 0.74757 0.63756 0.07265 0.0
C229 C 0.5496 0.65549 0.0615 0.0
C230 C 0.44412 0.78921 0.07883 0.0
C231 C 0.44534 0.71672 0.06476 0.0
C232 C 0.41324 0.71908 0.07307 0.0
C233 C 0.41274 0.75559 0.08015 0.0
N234 N 0.47602 0.74984 0.06352 0.0
C235 C 0.47567 0.78577 0.07042 0.0
Co236 Co 0.27147 0.37566 0.94285 0.0
Co237 Co 0.25473 0.47453 0.95659 0.0
O238 O 0.23904 0.43101 0.94528 0.0
C239 C 0.27252 0.41908 0.92103 0.0
O240 O 0.28657 0.45476 0.9262 0.0
C241 C 0.1603 0.45608 0.9606 0.0
O242 O 0.17005 0.41364 0.9599 0.0
O243 O 0.25589 0.42771 0.96815 0.0
O244 O 0.2795 0.36672 0.95918 0.0
H245 H 0.33993 0.53257 0.98923 0.0
H246 H 0.1833 0.3883 0.93241 0.0
O247 O 0.26429 0.38373 0.92647 0.0
H248 H 0.16743 0.25613 0.95616 0.0
H249 H 0.30019 0.22962 0.92387 0.0
H250 H 0.35223 0.33432 0.95241 0.0
H251 H 0.23917 0.29538 0.95487 0.0
H252 H 0.2596 0.29944 0.92742 0.0
O253 O 0.19054 0.48522 0.95953 0.0
H254 H 0.32073 0.47821 0.97475 0.0
H255 H 0.21941 0.56377 0.96274 0.0
H256 H 0.39362 0.26471 0.94921 0.0
H257 H 0.11103 0.34987 0.93339 0.0
H258 H 0.36761 0.21181 0.93485 0.0
H259 H 0.10274 0.28335 0.94536 0.0
O260 O 0.32908 0.40801 0.94219 0.0
H261 H 0.19102 0.55567 0.92395 0.0
H262 H 0.31677 0.54717 0.94998 0.0
H263 H 0.31745 0.60365 0.93522 0.0
H264 H 0.25422 0.60817 0.92208 0.0
H265 H 0.19186 0.49944 0.93877 0.0
H266 H 0.23727 0.61894 0.97714 0.0
H267 H 0.29805 0.60355 0.99048 0.0
O268 O 0.31913 0.46507 0.95392 0.0
C269 C 0.27027 0.38782 0.96805 0.0
C270 C 0.31351 0.53975 0.98343 0.0
C271 C 0.25585 0.58819 0.97666 0.0
N272 N 0.26934 0.51803 0.96783 0.0
C273 C 0.3026 0.50917 0.97519 0.0
C274 C 0.24585 0.55681 0.96853 0.0
C275 C 0.28996 0.57954 0.98414 0.0
C276 C 0.18005 0.35912 0.93755 0.0
N277 N 0.21544 0.34399 0.94353 0.0
C278 C 0.13901 0.33761 0.93811 0.0
C279 C 0.13436 0.30033 0.94484 0.0
C280 C 0.17063 0.28507 0.95091 0.0
C281 C 0.21114 0.30748 0.95016 0.0
C282 C 0.3118 0.25236 0.93017 0.0
C283 C 0.34057 0.31133 0.94619 0.0
C284 C 0.28901 0.29198 0.93219 0.0
N285 N 0.30335 0.32071 0.94017 0.0
C286 C 0.3642 0.27203 0.9444 0.0
C287 C 0.34962 0.24238 0.93633 0.0
C288 C 0.34348 0.44096 0.94775 0.0
C289 C 0.21869 0.55413 0.92965 0.0
C290 C 0.28915 0.54888 0.94429 0.0
C291 C 0.28969 0.58099 0.93596 0.0
C292 C 0.25419 0.58353 0.92859 0.0
N293 N 0.25418 0.52019 0.94527 0.0
C294 C 0.21925 0.52249 0.93809 0.0
Co295 Co 0.61844 0.76797 0.19279 0.0
Co296 Co 0.51795 0.74894 0.20588 0.0
O297 O 0.56456 0.73308 0.19534 0.0
C298 C 0.57548 0.76201 0.17095 0.0
O299 O 0.53789 0.77013 0.17605 0.0
C300 C 0.54437 0.6579 0.21214 0.0
O301 O 0.58597 0.67015 0.21099 0.0
O302 O 0.56257 0.75976 0.21774 0.0
O303 O 0.62615 0.77749 0.20904 0.0
H304 H 0.44626 0.84266 0.23522 0.0
H305 H 0.61003 0.67848 0.18279 0.0
O306 O 0.61161 0.75959 0.17641 0.0
H307 H 0.74172 0.67019 0.20693 0.0
H308 H 0.76381 0.80188 0.17406 0.0
H309 H 0.65556 0.85127 0.20206 0.0
H310 H 0.69956 0.74013 0.20515 0.0
H311 H 0.6959 0.75831 0.17764 0.0
O312 O 0.51311 0.68559 0.21055 0.0
H313 H 0.50444 0.82261 0.22177 0.0
H314 H 0.43214 0.70722 0.21256 0.0
H315 H 0.7232 0.89565 0.19881 0.0
H316 H 0.65138 0.60792 0.18428 0.0
H317 H 0.77788 0.871 0.18472 0.0
H318 H 0.71767 0.60345 0.19644 0.0
O319 O 0.58386 0.82417 0.19172 0.0
H320 H 0.44933 0.66298 0.17466 0.0
H321 H 0.43964 0.79902 0.19723 0.0
H322 H 0.38572 0.78706 0.18219 0.0
H323 H 0.39036 0.7186 0.17079 0.0
H324 H 0.50285 0.67652 0.18971 0.0
H325 H 0.37335 0.72583 0.22598 0.0
H326 H 0.38012 0.79408 0.23739 0.0
O327 O 0.52128 0.81241 0.20139 0.0
C328 C 0.60304 0.77247 0.2178 0.0
C329 C 0.44285 0.81291 0.23027 0.0
C330 C 0.40196 0.7473 0.22509 0.0
N331 N 0.47152 0.76399 0.21633 0.0
C332 C 0.47563 0.80146 0.22262 0.0
C333 C 0.43541 0.73689 0.21753 0.0
C334 C 0.40578 0.78561 0.23149 0.0
C335 C 0.6391 0.67689 0.18801 0.0
N336 N 0.6525 0.71341 0.19383 0.0
C337 C 0.66227 0.63681 0.18886 0.0
C338 C 0.69942 0.63431 0.1957 0.0
C339 C 0.71291 0.67173 0.2016 0.0
C340 C 0.68886 0.71122 0.20057 0.0
C341 C 0.74028 0.81291 0.18024 0.0
C342 C 0.67936 0.84018 0.19596 0.0
C343 C 0.70174 0.78843 0.18229 0.0
N344 N 0.67201 0.80207 0.19011 0.0
C345 C 0.71752 0.86552 0.19414 0.0
C346 C 0.74816 0.85169 0.18622 0.0
C347 C 0.54706 0.83728 0.19579 0.0
C348 C 0.44691 0.6929 0.17959 0.0
C349 C 0.44201 0.76927 0.19227 0.0
C350 C 0.41128 0.76259 0.18379 0.0
C351 C 0.41387 0.72415 0.17741 0.0
N352 N 0.47436 0.73851 0.19435 0.0
C353 C 0.477 0.70066 0.18815 0.0
Co354 Co 0.21881 0.12518 0.44223 0.0
Co355 Co 0.24398 0.02969 0.45637 0.0
O356 O 0.25628 0.0731 0.44479 0.0
C357 C 0.22481 0.08181 0.42049 0.0
O358 O 0.21626 0.04451 0.42569 0.0
C359 C 0.33865 0.0505 0.46014 0.0
O360 O 0.32839 0.09289 0.46063 0.0
O361 O 0.24297 0.07762 0.46764 0.0
O362 O 0.20889 0.1332 0.45855 0.0
H363 H 0.16624 0.97107 0.49007 0.0
H364 H 0.30857 0.12103 0.43226 0.0
O365 O 0.22748 0.11814 0.42587 0.0
H366 H 0.30962 0.25445 0.45591 0.0
H367 H 0.1771 0.268 0.42322 0.0
H368 H 0.1334 0.15782 0.45134 0.0
H369 H 0.24218 0.20834 0.45433 0.0
H370 H 0.2243 0.20263 0.42695 0.0
O371 O 0.30874 0.02143 0.4586 0.0
H372 H 0.18102 0.02492 0.47516 0.0
H373 H 0.28385 0.94244 0.46263 0.0
H374 H 0.0854 0.22289 0.44795 0.0
H375 H 0.37667 0.16637 0.43354 0.0
H376 H 0.10719 0.27854 0.4338 0.0
H377 H 0.37747 0.23357 0.44545 0.0
O378 O 0.16499 0.08723 0.4413 0.0
H379 H 0.30632 0.94729 0.42376 0.0
H380 H 0.18377 0.95411 0.45073 0.0
H381 H 0.18335 0.89596 0.43639 0.0
H382 H 0.24498 0.89224 0.42279 0.0
H383 H 0.30516 0.00527 0.43815 0.0
H384 H 0.2704 0.88784 0.47745 0.0
H385 H 0.2111 0.90192 0.49127 0.0
O386 O 0.17877 0.03613 0.45434 0.0
C387 C 0.22301 0.11502 0.46743 0.0
C388 C 0.19206 0.96447 0.48407 0.0
C389 C 0.25055 0.91779 0.47699 0.0
N390 N 0.23294 0.98663 0.46797 0.0
C391 C 0.20049 0.99478 0.47559 0.0
C392 C 0.25806 0.94886 0.46863 0.0
C393 C 0.21727 0.92571 0.48475 0.0
C394 C 0.30859 0.15043 0.43739 0.0
N395 N 0.27141 0.16217 0.44316 0.0
C396 C 0.34727 0.17588 0.43811 0.0
C397 C 0.34772 0.21355 0.44481 0.0
C398 C 0.30967 0.22527 0.45068 0.0
C399 C 0.27161 0.19898 0.44977 0.0
C400 C 0.16731 0.24406 0.42943 0.0
C401 C 0.14326 0.18208 0.44523 0.0
C402 C 0.19386 0.20696 0.43156 0.0
N403 N 0.18182 0.17673 0.43943 0.0
C404 C 0.11588 0.21877 0.44332 0.0
C405 C 0.1281 0.24995 0.43537 0.0
C406 C 0.15289 0.05542 0.44755 0.0
C407 C 0.27935 0.94849 0.42966 0.0
C408 C 0.21062 0.95287 0.44481 0.0
C409 C 0.21027 0.91976 0.43673 0.0
C410 C 0.24488 0.91766 0.42911 0.0
N411 N 0.24452 0.98303 0.4453 0.0
C412 C 0.27862 0.98111 0.43786 0.0
Co413 Co 0.87361 0.72242 0.69341 0.0
Co414 Co 0.97091 0.74458 0.70736 0.0
O415 O 0.92633 0.75888 0.69616 0.0
C416 C 0.91642 0.73033 0.67161 0.0
O417 O 0.95404 0.72182 0.67666 0.0
C418 C 0.9479 0.83818 0.71189 0.0
O419 O 0.90581 0.82754 0.71083 0.0
O420 O 0.9242 0.73928 0.71887 0.0
O421 O 0.86582 0.71113 0.70966 0.0
H422 H 0.0338 0.65911 0.73941 0.0
H423 H 0.87868 0.81282 0.6838 0.0
O424 O 0.88034 0.73237 0.67709 0.0
H425 H 0.74644 0.81438 0.70783 0.0
H426 H 0.72979 0.68484 0.67437 0.0
H427 H 0.83952 0.63698 0.70218 0.0
H428 H 0.79141 0.74631 0.70584 0.0
H429 H 0.79602 0.73054 0.67824 0.0
O430 O 0.97793 0.80884 0.71081 0.0
H431 H 0.97849 0.67677 0.72503 0.0
H432 H 0.05795 0.7843 0.71382 0.0
H433 H 0.77357 0.59046 0.69864 0.0
H434 H 0.83445 0.88155 0.68548 0.0
H435 H 0.71815 0.61434 0.68464 0.0
H436 H 0.76786 0.88262 0.69759 0.0
O437 O 0.91045 0.66783 0.69211 0.0
H438 H 0.04861 0.81778 0.67546 0.0
H439 H 0.04718 0.68784 0.70028 0.0
H440 H 0.10388 0.69276 0.68564 0.0
H441 H 0.10487 0.75812 0.67311 0.0
H442 H 0.9922 0.81132 0.69014 0.0
H443 H 0.11398 0.76801 0.72812 0.0
H444 H 0.10214 0.7049 0.74102 0.0
O445 O 0.96563 0.68002 0.70421 0.0
C446 C 0.88584 0.72125 0.71863 0.0
C447 C 0.03942 0.68658 0.73381 0.0
C448 C 0.08439 0.74774 0.72748 0.0
N449 N 0.01519 0.73123 0.71852 0.0
C450 C 0.00829 0.69666 0.72563 0.0
C451 C 0.05252 0.75684 0.71941 0.0
C452 C 0.07774 0.71232 0.73472 0.0
C453 C 0.8495 0.81294 0.689 0.0
N454 N 0.83753 0.77558 0.69468 0.0
C455 C 0.8247 0.85199 0.68995 0.0
C456 C 0.78738 0.85259 0.69676 0.0
C457 C 0.77536 0.81432 0.70252 0.0
C458 C 0.80102 0.77591 0.70138 0.0
C459 C 0.75365 0.67413 0.6805 0.0
C460 C 0.81539 0.64772 0.69613 0.0
C461 C 0.79124 0.69982 0.68272 0.0
N462 N 0.82138 0.6866 0.6905 0.0
C463 C 0.77819 0.62118 0.69414 0.0
C464 C 0.74713 0.63458 0.68627 0.0
C465 C 0.94395 0.65491 0.69769 0.0
C466 C 0.04862 0.78922 0.68089 0.0
C467 C 0.04729 0.71633 0.69484 0.0
C468 C 0.07956 0.71898 0.68659 0.0
C469 C 0.08012 0.75569 0.67957 0.0
N470 N 0.0165 0.74936 0.69609 0.0
C471 C 0.0169 0.78548 0.68925 0.0
Co472 Co 0.76683 0.61605 0.81603 0.0
Co473 Co 0.74859 0.515 0.80318 0.0
O474 O 0.73207 0.56212 0.8135 0.0
C475 C 0.75982 0.57418 0.83796 0.0
O476 O 0.76861 0.53646 0.83299 0.0
C477 C 0.65814 0.54012 0.79601 0.0
O478 O 0.671 0.58181 0.79583 0.0
O479 O 0.75962 0.55909 0.79118 0.0
O480 O 0.77746 0.62285 0.79981 0.0
H481 H 0.84331 0.442 0.77424 0.0
H482 H 0.67657 0.60804 0.82558 0.0
O483 O 0.7573 0.61006 0.83239 0.0
H484 H 0.67037 0.73886 0.80109 0.0
H485 H 0.79959 0.7624 0.83445 0.0
H486 H 0.85074 0.65265 0.807 0.0
H487 H 0.74008 0.6967 0.80333 0.0
H488 H 0.75622 0.69431 0.83089 0.0
O489 O 0.68539 0.5095 0.79855 0.0
H490 H 0.82266 0.50092 0.78744 0.0
H491 H 0.70745 0.42858 0.79674 0.0
H492 H 0.89496 0.72044 0.81023 0.0
H493 H 0.60621 0.6494 0.82364 0.0
H494 H 0.86941 0.77587 0.82404 0.0
H495 H 0.6028 0.71527 0.8113 0.0
O496 O 0.8229 0.58146 0.81746 0.0
H497 H 0.6623 0.44765 0.83451 0.0
H498 H 0.79879 0.43735 0.81217 0.0
H499 H 0.78676 0.38417 0.82736 0.0
H500 H 0.71807 0.38912 0.83866 0.0
H501 H 0.67591 0.50044 0.81931 0.0
H502 H 0.72667 0.36904 0.78358 0.0
H503 H 0.79514 0.37547 0.77225 0.0
O504 O 0.81186 0.51888 0.80773 0.0
C505 C 0.77263 0.59951 0.79108 0.0
C506 C 0.81347 0.43875 0.77915 0.0
C507 C 0.74797 0.39783 0.78439 0.0
N508 N 0.76409 0.46803 0.79291 0.0
C509 C 0.80167 0.47194 0.78666 0.0
C510 C 0.7372 0.4317 0.79181 0.0
C511 C 0.7864 0.40145 0.77803 0.0
C512 C 0.67542 0.6369 0.82027 0.0
N513 N 0.71242 0.6501 0.81463 0.0
C514 C 0.63546 0.66009 0.81917 0.0
C515 C 0.63355 0.697 0.81224 0.0
C516 C 0.67145 0.71024 0.8065 0.0
C517 C 0.7108 0.6862 0.80779 0.0
C518 C 0.81102 0.73854 0.82839 0.0
C519 C 0.83928 0.67677 0.81297 0.0
C520 C 0.78665 0.6999 0.82636 0.0
N521 N 0.80078 0.66975 0.81868 0.0
C522 C 0.86451 0.71502 0.81479 0.0
C523 C 0.85018 0.74608 0.82255 0.0
C524 C 0.8363 0.54467 0.81344 0.0
C525 C 0.69233 0.44511 0.82964 0.0
C526 C 0.76896 0.43987 0.81707 0.0
C527 C 0.76224 0.40956 0.82565 0.0
C528 C 0.72366 0.41232 0.83197 0.0
N529 N 0.73813 0.472 0.81485 0.0
C530 C 0.70014 0.4748 0.82099 0.0
Co531 Co 0.37414 0.27291 0.06593 0.0
Co532 Co 0.47095 0.2491 0.05184 0.0
O533 O 0.4265 0.23593 0.06316 0.0
C534 C 0.41887 0.26699 0.08753 0.0
O535 O 0.45608 0.27456 0.08221 0.0
C536 C 0.44515 0.15638 0.04734 0.0
O537 O 0.40346 0.16814 0.04862 0.0
O538 O 0.424 0.25552 0.04042 0.0
O539 O 0.36499 0.28227 0.04966 0.0
H540 H 0.53473 0.3331 0.01968 0.0
H541 H 0.37995 0.18355 0.0761 0.0
O542 O 0.38226 0.26475 0.08227 0.0
H543 H 0.24557 0.17979 0.05282 0.0
H544 H 0.23206 0.31314 0.08544 0.0
H545 H 0.33942 0.35735 0.05672 0.0
H546 H 0.29076 0.24795 0.05412 0.0
H547 H 0.29789 0.26682 0.08156 0.0
O548 O 0.47609 0.18478 0.04835 0.0
H549 H 0.47955 0.3168 0.03418 0.0
H550 H 0.55664 0.2071 0.04516 0.0
H551 H 0.27385 0.40446 0.06026 0.0
H552 H 0.33554 0.11476 0.0751 0.0
H553 H 0.21963 0.38242 0.07472 0.0
H554 H 0.26787 0.11258 0.06337 0.0
O555 O 0.41117 0.32757 0.0667 0.0
H556 H 0.54782 0.17392 0.08359 0.0
H557 H 0.54894 0.30377 0.05874 0.0
H558 H 0.60597 0.29739 0.07328 0.0
H559 H 0.60566 0.23208 0.08582 0.0
H560 H 0.49113 0.18182 0.06901 0.0
H561 H 0.6125 0.222 0.03073 0.0
H562 H 0.60179 0.28551 0.01789 0.0
O563 O 0.46743 0.31364 0.05504 0.0
C564 C 0.38509 0.2723 0.04069 0.0
C565 C 0.53986 0.30544 0.02525 0.0
C566 C 0.58348 0.24306 0.03144 0.0
N567 N 0.5151 0.26134 0.04058 0.0
C568 C 0.50881 0.29614 0.0335 0.0
C569 C 0.55171 0.23475 0.03959 0.0
C570 C 0.57746 0.2787 0.02425 0.0
C571 C 0.35032 0.18296 0.07106 0.0
N572 N 0.33786 0.21975 0.06522 0.0
C573 C 0.3254 0.14387 0.07049 0.0
C574 C 0.28748 0.14265 0.06389 0.0
C575 C 0.27497 0.18034 0.05796 0.0
C576 C 0.30075 0.2188 0.05872 0.0
C577 C 0.2554 0.32305 0.07911 0.0
C578 C 0.31581 0.34741 0.06297 0.0
C579 C 0.29276 0.29701 0.07689 0.0
N580 N 0.32223 0.30921 0.06886 0.0
C581 C 0.27882 0.37427 0.06496 0.0
C582 C 0.24844 0.36191 0.07308 0.0
C583 C 0.44553 0.33949 0.06132 0.0
C584 C 0.54839 0.20245 0.07815 0.0
C585 C 0.54851 0.27529 0.06418 0.0
C586 C 0.58096 0.27181 0.07238 0.0
C587 C 0.58079 0.23514 0.07941 0.0
N588 N 0.51683 0.24309 0.063 0.0
C589 C 0.51651 0.207 0.06985 0.0
Co590 Co 0.72194 0.87309 0.31569 0.0
Co591 Co 0.7422 0.9711 0.30188 0.0
O592 O 0.75709 0.92681 0.31311 0.0
C593 C 0.72813 0.91552 0.33758 0.0
O594 O 0.71876 0.95306 0.33258 0.0
C595 C 0.83648 0.9507 0.29766 0.0
O596 O 0.82659 0.90834 0.29851 0.0
O597 O 0.73912 0.92436 0.29032 0.0
O598 O 0.71149 0.8654 0.2994 0.0
H599 H 0.65719 0.03181 0.26951 0.0
H600 H 0.81181 0.88028 0.3255 0.0
O601 O 0.73114 0.87963 0.33204 0.0
H602 H 0.81763 0.74861 0.3013 0.0
H603 H 0.68737 0.72778 0.33441 0.0
H604 H 0.63779 0.83702 0.30666 0.0
H605 H 0.74836 0.79175 0.30321 0.0
H606 H 0.73146 0.79531 0.33076 0.0
O607 O 0.80646 0.98007 0.29873 0.0
H608 H 0.67553 0.97682 0.28391 0.0
H609 H 0.77967 0.05943 0.29567 0.0
H610 H 0.59288 0.76977 0.30998 0.0
H611 H 0.8817 0.83789 0.32391 0.0
H612 H 0.61763 0.71459 0.32395 0.0
H613 H 0.88491 0.7716 0.31171 0.0
O614 O 0.66643 0.90857 0.31691 0.0
H615 H 0.81068 0.05076 0.33414 0.0
H616 H 0.68259 0.04544 0.30877 0.0
H617 H 0.68469 0.10211 0.32347 0.0
H618 H 0.74911 0.10505 0.33627 0.0
H619 H 0.80702 0.99432 0.3194 0.0
H620 H 0.76268 0.11518 0.28135 0.0
H621 H 0.70092 0.1016 0.26816 0.0
O622 O 0.67759 0.96374 0.30474 0.0
C623 C 0.72184 0.88565 0.29048 0.0
C624 C 0.68406 0.0382 0.27523 0.0
C625 C 0.7433 0.08496 0.28187 0.0
N626 N 0.7283 0.01511 0.2907 0.0
C627 C 0.6945 0.00725 0.28343 0.0
C628 C 0.7528 0.05324 0.28995 0.0
C629 C 0.70864 0.07732 0.27447 0.0
C630 C 0.81286 0.85122 0.32026 0.0
N631 N 0.77603 0.83839 0.3145 0.0
C632 C 0.85256 0.82746 0.31936 0.0
C633 C 0.85436 0.79031 0.3125 0.0
C634 C 0.81663 0.77742 0.30665 0.0
C635 C 0.77753 0.80203 0.30774 0.0
C636 C 0.67629 0.75153 0.32829 0.0
C637 C 0.64891 0.81302 0.3127 0.0
C638 C 0.70106 0.78986 0.3262 0.0
N639 N 0.68738 0.81986 0.31844 0.0
C640 C 0.62328 0.77507 0.31457 0.0
C641 C 0.63717 0.74414 0.32241 0.0
C642 C 0.65282 0.94149 0.31122 0.0
C643 C 0.78251 0.04991 0.32859 0.0
C644 C 0.71068 0.0464 0.31433 0.0
C645 C 0.71173 0.07865 0.32262 0.0
C646 C 0.74791 0.08031 0.32979 0.0
N647 N 0.74475 0.01669 0.3132 0.0
C648 C 0.78036 0.01817 0.32019 0.0
Co649 Co 0.12373 0.21891 0.56667 0.0
Co650 Co 0.0288 0.24298 0.55213 0.0
O651 O 0.07131 0.25581 0.56391 0.0
C652 C 0.0794 0.22487 0.58832 0.0
O653 O 0.04221 0.21643 0.58307 0.0
C654 C 0.04954 0.3379 0.54908 0.0
O655 O 0.0918 0.32808 0.55019 0.0
O656 O 0.07745 0.2423 0.54108 0.0
O657 O 0.13277 0.20884 0.55038 0.0
H658 H 0.97353 0.16371 0.5183 0.0
H659 H 0.11849 0.30849 0.57673 0.0
O660 O 0.11583 0.22757 0.58299 0.0
H661 H 0.25249 0.3112 0.55332 0.0
H662 H 0.26602 0.17893 0.58613 0.0
H663 H 0.15766 0.13367 0.55773 0.0
H664 H 0.20699 0.24328 0.55474 0.0
H665 H 0.20037 0.22541 0.58217 0.0
O666 O 0.0202 0.30767 0.54962 0.0
H667 H 0.02607 0.17946 0.53343 0.0
H668 H 0.94156 0.28168 0.54543 0.0
H669 H 0.22303 0.08638 0.56135 0.0
H670 H 0.16324 0.37703 0.57562 0.0
H671 H 0.27777 0.10896 0.57564 0.0
H672 H 0.23072 0.37868 0.56383 0.0
O673 O 0.08631 0.16472 0.56751 0.0
H674 H 0.94378 0.30561 0.58427 0.0
H675 H 0.95337 0.18227 0.55756 0.0
H676 H 0.8943 0.1818 0.57166 0.0
H677 H 0.88919 0.24383 0.58513 0.0
H678 H 0.00266 0.30452 0.57011 0.0
H679 H 0.88826 0.26727 0.53038 0.0
H680 H 0.90402 0.20779 0.51671 0.0
O681 O 0.03562 0.17779 0.55433 0.0
C682 C 0.11498 0.22271 0.54143 0.0
C683 C 0.9662 0.18961 0.52423 0.0
C684 C 0.91837 0.24777 0.531 0.0
N685 N 0.98671 0.23116 0.54036 0.0
C686 C 0.99577 0.1986 0.53283 0.0
C687 C 0.94872 0.25583 0.53949 0.0
C688 C 0.92724 0.21439 0.52333 0.0
C689 C 0.14805 0.30885 0.57166 0.0
N690 N 0.16022 0.27191 0.56585 0.0
C691 C 0.17315 0.34779 0.57103 0.0
C692 C 0.21097 0.34872 0.5644 0.0
C693 C 0.22318 0.31088 0.55849 0.0
C694 C 0.19722 0.27256 0.55931 0.0
C695 C 0.24248 0.1688 0.57986 0.0
C696 C 0.18152 0.14387 0.5639 0.0
C697 C 0.20522 0.19495 0.5776 0.0
N698 N 0.1755 0.18248 0.56965 0.0
C699 C 0.21839 0.11689 0.56594 0.0
C700 C 0.24905 0.12955 0.57397 0.0
C701 C 0.05493 0.15218 0.56119 0.0
C702 C 0.94558 0.27847 0.57842 0.0
C703 C 0.9515 0.20931 0.56342 0.0
C704 C 0.91789 0.20892 0.57136 0.0
C705 C 0.91501 0.24375 0.57891 0.0
N706 N 0.98139 0.24347 0.56299 0.0
C707 C 0.97871 0.27778 0.57035 0.0
Co708 Co 0.77494 0.86938 0.44236 0.0
Co709 Co 0.74986 0.96486 0.45649 0.0
O710 O 0.73739 0.92139 0.44493 0.0
C711 C 0.76794 0.91246 0.42059 0.0
O712 O 0.77639 0.94989 0.42573 0.0
C713 C 0.6552 0.94415 0.4603 0.0
O714 O 0.66542 0.90176 0.4608 0.0
O715 O 0.75096 0.91697 0.46777 0.0
O716 O 0.78528 0.86155 0.45868 0.0
H717 H 0.82805 0.02356 0.49012 0.0
H718 H 0.68491 0.87316 0.43253 0.0
O719 O 0.76582 0.87617 0.426 0.0
H720 H 0.68489 0.73997 0.45627 0.0
H721 H 0.81668 0.72647 0.42339 0.0
H722 H 0.86063 0.8371 0.45138 0.0
H723 H 0.75215 0.78627 0.45455 0.0
H724 H 0.76935 0.79173 0.42714 0.0
O725 O 0.68514 0.97319 0.45876 0.0
H726 H 0.81304 0.96965 0.47525 0.0
H727 H 0.71015 0.05219 0.46274 0.0
H728 H 0.90877 0.77214 0.44798 0.0
H729 H 0.61698 0.82763 0.43394 0.0
H730 H 0.88685 0.71627 0.43389 0.0
H731 H 0.6167 0.76054 0.4459 0.0
O732 O 0.82861 0.9075 0.44132 0.0
H733 H 0.68714 0.04731 0.42393 0.0
H734 H 0.81011 0.04033 0.45079 0.0
H735 H 0.81037 0.09848 0.43644 0.0
H736 H 0.74853 0.10229 0.42289 0.0
H737 H 0.68846 0.98933 0.43831 0.0
H738 H 0.72384 0.10685 0.47754 0.0
H739 H 0.78328 0.09277 0.49133 0.0
O740 O 0.81505 0.95836 0.45442 0.0
C741 C 0.77111 0.87968 0.46757 0.0
C742 C 0.80217 0.03016 0.48414 0.0
C743 C 0.74365 0.07687 0.47708 0.0
N744 N 0.76107 0.00796 0.46807 0.0
C745 C 0.7936 -0.00019 0.47568 0.0
C746 C 0.73601 0.04577 0.46873 0.0
C747 C 0.77701 0.06896 0.48482 0.0
C748 C 0.68512 0.84381 0.43767 0.0
N749 N 0.72248 0.83224 0.4434 0.0
C750 C 0.64653 0.81825 0.43847 0.0
C751 C 0.64637 0.78064 0.4452 0.0
C752 C 0.68462 0.7691 0.45102 0.0
C753 C 0.72257 0.79549 0.45003 0.0
C754 C 0.82653 0.75052 0.42957 0.0
C755 C 0.85073 0.81274 0.4453 0.0
C756 C 0.7999 0.78756 0.43172 0.0
N757 N 0.81202 0.81791 0.43955 0.0
C758 C 0.87818 0.77612 0.44338 0.0
C759 C 0.86589 0.74481 0.43547 0.0
C760 C 0.84082 0.93921 0.44758 0.0
C761 C 0.7142 0.04608 0.4298 0.0
C762 C 0.78317 0.0416 0.44489 0.0
C763 C 0.78344 0.07471 0.43681 0.0
C764 C 0.7487 0.07686 0.42922 0.0
N765 N 0.74924 0.01148 0.44541 0.0
C766 C 0.71502 0.01346 0.43801 0.0
Co767 Co 0.12066 0.27443 0.69296 0.0
Co768 Co 0.027 0.24876 0.70781 0.0
O769 O 0.07008 0.2356 0.69617 0.0
C770 C 0.07717 0.26208 0.67136 0.0
O771 O 0.03941 0.26936 0.67646 0.0
C772 C 0.05161 0.15512 0.71187 0.0
O773 O 0.09345 0.1661 0.7105 0.0
O774 O 0.07562 0.25376 0.71883 0.0
O775 O 0.12893 0.28839 0.70909 0.0
H776 H 0.9682 0.33208 0.74066 0.0
H777 H 0.12013 0.18282 0.68401 0.0
O778 O 0.11352 0.26214 0.67676 0.0
H779 H 0.25365 0.19144 0.70751 0.0
H780 H 0.26113 0.31726 0.67308 0.0
H781 H 0.15009 0.36306 0.70077 0.0
H782 H 0.20479 0.25663 0.70524 0.0
H783 H 0.19786 0.26846 0.67761 0.0
O784 O 0.02123 0.18426 0.71111 0.0
H785 H 0.0214 0.31572 0.72572 0.0
H786 H 0.94159 0.20759 0.71501 0.0
H787 H 0.21303 0.41273 0.69656 0.0
H788 H 0.1683 0.11692 0.68598 0.0
H789 H 0.26911 0.38989 0.68263 0.0
H790 H 0.23554 0.12098 0.69782 0.0
O791 O 0.08062 0.32646 0.69142 0.0
H792 H 0.94494 0.17625 0.67649 0.0
H793 H 0.94885 0.30488 0.70171 0.0
H794 H 0.88981 0.29996 0.68765 0.0
H795 H 0.88756 0.23525 0.67492 0.0
H796 H 0.00373 0.18274 0.69059 0.0
H797 H 0.88769 0.22257 0.7299 0.0
H798 H 0.90076 0.28533 0.74282 0.0
O799 O 0.03083 0.31375 0.70482 0.0
C800 C 0.11192 0.27545 0.71821 0.0
C801 C 0.96206 0.30474 0.73506 0.0
C802 C 0.9169 0.24324 0.72903 0.0
N803 N 0.98442 0.261 0.71944 0.0
C804 C 0.992 0.29538 0.72656 0.0
C805 C 0.94758 0.23487 0.72063 0.0
C806 C 0.92425 0.27847 0.73627 0.0
C807 C 0.14957 0.18494 0.6891 0.0
N808 N 0.15973 0.22354 0.69447 0.0
C809 C 0.17662 0.14748 0.69021 0.0
C810 C 0.2143 0.14976 0.69688 0.0
C811 C 0.22446 0.18927 0.70233 0.0
C812 C 0.1966 0.22603 0.70103 0.0
C813 C 0.23699 0.32752 0.67919 0.0
C814 C 0.17455 0.35275 0.69476 0.0
C815 C 0.20107 0.30006 0.68178 0.0
N816 N 0.1706 0.31271 0.68954 0.0
C817 C 0.21003 0.38108 0.69238 0.0
C818 C 0.24145 0.36827 0.68455 0.0
C819 C 0.04879 0.33883 0.69761 0.0
C820 C 0.94549 0.20454 0.68201 0.0
C821 C 0.94823 0.2767 0.69617 0.0
C822 C 0.91462 0.27404 0.68825 0.0
C823 C 0.91335 0.2377 0.68112 0.0
N824 N 0.97966 0.24405 0.69699 0.0
C825 C 0.97857 0.20828 0.69004 0.0
Co826 Co 0.72203 0.62114 0.94285 0.0
Co827 Co 0.7504 0.5251 0.95679 0.0
O828 O 0.76132 0.57035 0.94551 0.0
C829 C 0.72915 0.577 0.92119 0.0
O830 O 0.72345 0.53938 0.92648 0.0
C831 C 0.84223 0.5548 0.96114 0.0
O832 O 0.82916 0.59601 0.95969 0.0
O833 O 0.74193 0.57147 0.96827 0.0
O834 O 0.71291 0.6297 0.95914 0.0
H835 H 0.6696 0.45671 0.98887 0.0
H836 H 0.8111 0.61929 0.93246 0.0
O837 O 0.72992 0.61359 0.92648 0.0
H838 H 0.81006 0.75348 0.95584 0.0
H839 H 0.6751 0.76169 0.92353 0.0
H840 H 0.63658 0.65215 0.95227 0.0
H841 H 0.74388 0.7054 0.95467 0.0
H842 H 0.7243 0.69782 0.92726 0.0
O843 O 0.81489 0.52285 0.96027 0.0
H844 H 0.68322 0.5129 0.97443 0.0
H845 H 0.79643 0.44132 0.96337 0.0
H846 H 0.58662 0.71573 0.94888 0.0
H847 H 0.87791 0.66664 0.93332 0.0
H848 H 0.60579 0.77104 0.93442 0.0
H849 H 0.87768 0.73422 0.9451 0.0
O850 O 0.66895 0.58182 0.94217 0.0
H851 H 0.82872 0.4525 0.9249 0.0
H852 H 0.69945 0.44467 0.94983 0.0
H853 H 0.70836 0.38827 0.93523 0.0
H854 H 0.77339 0.39196 0.92264 0.0
H855 H 0.81831 0.50847 0.93955 0.0
H856 H 0.78423 0.38452 0.97774 0.0
H857 H 0.72033 0.39193 0.99059 0.0
O858 O 0.68577 0.52563 0.95362 0.0
C859 C 0.72373 0.60976 0.96807 0.0
C860 C 0.69747 0.45301 0.98329 0.0
C861 C 0.76183 0.41253 0.97706 0.0
N862 N 0.74031 0.48017 0.968 0.0
C863 C 0.70526 0.48465 0.97508 0.0
C864 C 0.76861 0.44483 0.96895 0.0
C865 C 0.72596 0.4167 0.98426 0.0
C866 C 0.81063 0.64888 0.93752 0.0
N867 N 0.7736 0.65966 0.94347 0.0
C868 C 0.84861 0.67546 0.93801 0.0
C869 C 0.84848 0.71333 0.94464 0.0
C870 C 0.81056 0.72413 0.95067 0.0
C871 C 0.77322 0.69672 0.95 0.0
C872 C 0.66643 0.73786 0.92987 0.0
C873 C 0.64527 0.67625 0.94602 0.0
C874 C 0.69411 0.70159 0.93201 0.0
N875 N 0.68347 0.67152 0.94004 0.0
C876 C 0.6168 0.7121 0.94411 0.0
C877 C 0.62755 0.74309 0.93599 0.0
C878 C 0.65875 0.54664 0.94745 0.0
C879 C 0.80033 0.45045 0.93035 0.0
C880 C 0.72779 0.44657 0.94437 0.0
C881 C 0.73271 0.41448 0.93613 0.0
C882 C 0.76923 0.41654 0.92908 0.0
N883 N 0.75844 0.47974 0.94557 0.0
C884 C 0.79437 0.48193 0.9387 0.0
Co885 Co 0.38166 0.22449 0.19252 0.0
Co886 Co 0.48054 0.24616 0.206 0.0
O887 O 0.43433 0.26101 0.19526 0.0
C888 C 0.42387 0.23363 0.17068 0.0
O889 O 0.46175 0.22568 0.17566 0.0
C890 C 0.45375 0.33755 0.21186 0.0
O891 O 0.41217 0.32514 0.21076 0.0
O892 O 0.43523 0.23661 0.21775 0.0
O893 O 0.37446 0.21259 0.20871 0.0
H894 H 0.5509 0.15527 0.2361 0.0
H895 H 0.38638 0.31525 0.1831 0.0
O896 O 0.38789 0.23499 0.17621 0.0
H897 H 0.25514 0.31597 0.20747 0.0
H898 H 0.23711 0.18775 0.17372 0.0
H899 H 0.34832 0.13825 0.20098 0.0
H900 H 0.2999 0.2479 0.20518 0.0
H901 H 0.30336 0.23341 0.17761 0.0
O902 O 0.48509 0.30991 0.21033 0.0
H903 H 0.49329 0.17406 0.22237 0.0
H904 H 0.56601 0.28857 0.2127 0.0
H905 H 0.2824 0.09172 0.19741 0.0
H906 H 0.34237 0.38398 0.18509 0.0
H907 H 0.22623 0.11644 0.18369 0.0
H908 H 0.27629 0.38463 0.19737 0.0
O909 O 0.41835 0.16998 0.19105 0.0
H910 H 0.55086 0.32951 0.17459 0.0
H911 H 0.55921 0.19527 0.19785 0.0
H912 H 0.61393 0.20599 0.18294 0.0
H913 H 0.60997 0.27356 0.17119 0.0
H914 H 0.49652 0.3172 0.18952 0.0
H915 H 0.62421 0.27124 0.22638 0.0
H916 H 0.61694 0.20405 0.23816 0.0
O917 O 0.47767 0.18212 0.20188 0.0
C918 C 0.39601 0.22054 0.21758 0.0
C919 C 0.55452 0.18456 0.23099 0.0
C920 C 0.59563 0.24968 0.22554 0.0
N921 N 0.52646 0.23216 0.21669 0.0
C922 C 0.52207 0.1953 0.22318 0.0
C923 C 0.56252 0.25938 0.21783 0.0
C924 C 0.59154 0.21197 0.23215 0.0
C925 C 0.35741 0.31518 0.18837 0.0
N926 N 0.34559 0.27758 0.19397 0.0
C927 C 0.33273 0.35423 0.1895 0.0
C928 C 0.2957 0.35459 0.19641 0.0
C929 C 0.28384 0.31609 0.20209 0.0
C930 C 0.30936 0.27768 0.20078 0.0
C931 C 0.26127 0.1767 0.17974 0.0
C932 C 0.32382 0.14939 0.19507 0.0
C933 C 0.29886 0.20238 0.18197 0.0
N934 N 0.32938 0.18873 0.18961 0.0
C935 C 0.28666 0.12283 0.19305 0.0
C936 C 0.25519 0.13669 0.18534 0.0
C937 C 0.45407 0.15719 0.19572 0.0
C938 C 0.55299 0.29999 0.17967 0.0
C939 C 0.55713 0.22462 0.19274 0.0
C940 C 0.58831 0.2306 0.18433 0.0
C941 C 0.5861 0.26854 0.17775 0.0
N942 N 0.5247 0.25557 0.19456 0.0
C943 C 0.52243 0.29293 0.18817 0.0
H944 H 0.86508 0.0325 0.29127 0.0
H945 H 0.91241 0.90232 0.30072 0.0
H946 H 0.94122 0.05882 0.28986 0.0
H947 H 0.98875 0.92905 0.29967 0.0
H948 H 0.12198 0.97785 0.2884 0.0
H949 H 0.0453 0.95311 0.28731 0.0
H950 H 0.00205 0.07747 0.30162 0.0
H951 H 0.07906 0.10285 0.30235 0.0
C952 C 0.89183 0.00948 0.29305 0.0
C953 C 0.88283 0.96533 0.29613 0.0
C954 C 0.93547 0.02468 0.2923 0.0
C955 C 0.97114 0.9962 0.29471 0.0
C956 C 0.9621 0.95175 0.2976 0.0
C957 C 0.91837 0.9364 0.29824 0.0
C958 C 0.09604 0.00011 0.29122 0.0
C959 C 0.10645 0.04222 0.29552 0.0
C960 C 0.0521 0.98577 0.29066 0.0
C961 C 0.01752 0.01301 0.2945 0.0
C962 C 0.02784 0.05578 0.29848 0.0
C963 C 0.07192 0.07036 0.29893 0.0
H964 H 0.01965 0.62377 0.54125 0.0
H965 H 0.89369 0.57791 0.55402 0.0
H966 H 0.04603 0.54761 0.54019 0.0
H967 H 0.92066 0.50139 0.55329 0.0
H968 H 0.96872 0.36652 0.54206 0.0
H969 H 0.94171 0.44249 0.54104 0.0
H970 H 0.06905 0.49008 0.55257 0.0
H971 H 0.09658 0.41382 0.55327 0.0
C972 C -0.00244 0.59732 0.54383 0.0
C973 C 0.95465 0.60672 0.54777 0.0
C974 C 0.01283 0.55369 0.54329 0.0
C975 C 0.98569 0.51846 0.54676 0.0
C976 C 0.94227 0.52777 0.55044 0.0
C977 C 0.9268 0.57154 0.55088 0.0
C978 C 0.99108 0.39323 0.54432 0.0
C979 C 0.03476 0.38428 0.54778 0.0
C980 C 0.97546 0.43675 0.54379 0.0
C981 C 0.00305 0.47233 0.5468 0.0
C982 C 0.04709 0.46343 0.55006 0.0
C983 C 0.06288 0.41979 0.55049 0.0
H984 H 0.59026 0.5935 0.78874 0.0
H985 H 0.61974 0.45935 0.79923 0.0
H986 H 0.51199 0.57355 0.78682 0.0
H987 H 0.54193 0.44005 0.79778 0.0
H988 H 0.40258 0.4063 0.78809 0.0
H989 H 0.48064 0.4267 0.78605 0.0
H990 H 0.45149 0.55795 0.79868 0.0
H991 H 0.37375 0.53825 0.80026 0.0
C992 C 0.58007 0.5598 0.79061 0.0
C993 C 0.61115 0.52812 0.79417 0.0
C994 C 0.53522 0.54838 0.78956 0.0
C995 C 0.52055 0.50519 0.79219 0.0
C996 C 0.55198 0.47336 0.79549 0.0
C997 C 0.59671 0.48461 0.79642 0.0
C998 C 0.41289 0.43961 0.79032 0.0
C999 C 0.38206 0.47055 0.79437 0.0
C1000 C 0.45763 0.45129 0.7892 0.0
C1001 C 0.47247 0.49397 0.79224 0.0
C1002 C 0.44128 0.52509 0.79607 0.0
C1003 C 0.39663 0.5136 0.79707 0.0
H1004 H 0.39583 0.08223 0.05179 0.0
H1005 H 0.52278 0.12517 0.03901 0.0
H1006 H 0.42057 0.00507 0.05081 0.0
H1007 H 0.54696 0.04829 0.03767 0.0
H1008 H 0.59409 0.91358 0.0512 0.0
H1009 H 0.56876 0.99045 0.05001 0.0
H1010 H 0.44007 0.94531 0.03878 0.0
H1011 H 0.46492 0.86869 0.04033 0.0
C1012 C 0.42864 0.07508 0.04856 0.0
C1013 C 0.45748 0.10959 0.04556 0.0
C1014 C 0.44284 0.03092 0.04797 0.0
C1015 C 0.48594 0.02054 0.04424 0.0
C1016 C 0.51397 0.05515 0.04081 0.0
C1017 C 0.49998 0.09919 0.04151 0.0
C1018 C 0.56059 0.92021 0.04836 0.0
C1019 C 0.53141 0.88524 0.04593 0.0
C1020 C 0.54605 0.96422 0.04764 0.0
C1021 C 0.50223 0.97401 0.04436 0.0
C1022 C 0.47368 0.93892 0.04155 0.0
C1023 C 0.48804 0.89503 0.04238 0.0
H1024 H 0.13134 0.53862 0.96637 0.0
H1025 H 0.08476 0.40702 0.95799 0.0
H1026 H 0.05494 0.56434 0.96791 0.0
H1027 H 0.0083 0.43307 0.95916 0.0
H1028 H 0.87552 0.48031 0.9706 0.0
H1029 H 0.9528 0.45749 0.97174 0.0
H1030 H 0.99267 0.58087 0.95634 0.0
H1031 H 0.91503 0.60438 0.95558 0.0
C1032 C 0.10473 0.51518 0.96485 0.0
C1033 C 0.11397 0.47077 0.96206 0.0
C1034 C 0.06095 0.53002 0.96567 0.0
C1035 C 0.02547 0.50087 0.96364 0.0
C1036 C 0.03481 0.45627 0.96097 0.0
C1037 C 0.07862 0.44132 0.96025 0.0
C1038 C 0.90087 0.50279 0.96757 0.0
C1039 C 0.88937 0.544 0.96293 0.0
C1040 C 0.94513 0.48956 0.96816 0.0
C1041 C 0.9789 0.517 0.96398 0.0
C1042 C 0.9675 0.55906 0.95972 0.0
C1043 C 0.92308 0.57256 0.95926 0.0
H1044 H 0.53167 0.3698 0.21987 0.0
H1045 H 0.40212 0.41099 0.20843 0.0
H1046 H 0.55389 0.44716 0.22172 0.0
H1047 H 0.42484 0.48855 0.20983 0.0
H1048 H 0.46616 0.62559 0.21998 0.0
H1049 H 0.4438 0.54819 0.22166 0.0
H1050 H 0.57321 0.50698 0.21 0.0
H1051 H 0.59605 0.5845 0.20876 0.0
C1052 C 0.50788 0.39549 0.21778 0.0
C1053 C 0.46521 0.38443 0.21396 0.0
C1054 C 0.52073 0.43984 0.21876 0.0
C1055 C 0.4914 0.47418 0.21581 0.0
C1056 C 0.44816 0.46303 0.21231 0.0
C1057 C 0.43511 0.41858 0.21147 0.0
C1058 C 0.49 0.59992 0.21791 0.0
C1059 C 0.53282 0.61102 0.21421 0.0
C1060 C 0.47706 0.55555 0.2188 0.0
C1061 C 0.50647 0.52125 0.21586 0.0
C1062 C 0.54983 0.53244 0.21248 0.0
C1063 C 0.56296 0.57689 0.21173 0.0
H1064 H 0.37077 0.96856 0.45522 0.0
H1065 H 0.41134 0.09803 0.46697 0.0
H1066 H 0.44692 0.94293 0.45611 0.0
H1067 H 0.48794 0.07166 0.46827 0.0
H1068 H 0.62324 0.0262 0.45542 0.0
H1069 H 0.54709 0.05185 0.45622 0.0
H1070 H 0.50575 0.92301 0.46825 0.0
H1071 H 0.58238 0.89662 0.46703 0.0
C1072 C 0.39595 0.99147 0.45813 0.0
C1073 C 0.3851 0.03544 0.461 0.0
C1074 C 0.43964 0.97656 0.45872 0.0
C1075 C 0.47354 0.00511 0.46231 0.0
C1076 C 0.46263 0.04898 0.46534 0.0
C1077 C 0.41881 0.06409 0.46463 0.0
C1078 C 0.59799 0.00327 0.45829 0.0
C1079 C 0.60876 0.95926 0.46114 0.0
C1080 C 0.5543 0.01819 0.45883 0.0
C1081 C 0.5203 0.98961 0.46234 0.0
C1082 C 0.53113 0.94571 0.46537 0.0
C1083 C 0.57497 0.93059 0.46471 0.0
H1084 H 0.09982 0.08007 0.70745 0.0
H1085 H 0.97307 0.12494 0.71995 0.0
H1086 H 0.07398 0.00329 0.70842 0.0
H1087 H 0.94778 0.04845 0.72127 0.0
H1088 H 0.8993 0.91357 0.70818 0.0
H1089 H 0.92546 0.99021 0.70914 0.0
H1090 H 0.05363 0.94412 0.72051 0.0
H1091 H 0.02795 0.86773 0.7192 0.0
C1092 C 0.06679 0.07344 0.7106 0.0
C1093 C 0.03839 0.10844 0.71355 0.0
C1094 C 0.05195 0.02948 0.71118 0.0
C1095 C 0.00861 0.01972 0.71485 0.0
C1096 C 0.98094 0.0548 0.71819 0.0
C1097 C 0.99558 0.09864 0.7175 0.0
C1098 C 0.93286 0.91994 0.711 0.0
C1099 C 0.96163 0.88473 0.71355 0.0
C1100 C 0.94788 0.96383 0.71158 0.0
C1101 C 0.99181 0.97332 0.71484 0.0
C1102 C 0.01996 0.938 0.71776 0.0
C1103 C 0.0051 0.89422 0.71707 0.0
H1104 H 0.59377 0.9262 0.32808 0.0
H1105 H 0.60593 0.98751 0.29592 0.0
H1106 H 0.51593 0.95081 0.32901 0.0
H1107 H 0.52888 0.01115 0.29685 0.0
H1108 H 0.37855 0.9916 0.29687 0.0
H1109 H 0.45413 0.96358 0.2978 0.0
H1110 H 0.47491 0.03373 0.32843 0.0
H1111 H 0.39875 0.06266 0.32754 0.0
C1112 C 0.57983 0.94464 0.32122 0.0
C1113 C 0.60584 0.95489 0.31193 0.0
C1114 C 0.53561 0.95889 0.3218 0.0
C1115 C 0.51682 0.98266 0.31298 0.0
C1116 C 0.54274 0.99263 0.30371 0.0
C1117 C 0.58685 0.97917 0.30321 0.0
C1118 C 0.39893 0.00102 0.30386 0.0
C1119 C 0.38274 0.02974 0.31209 0.0
C1120 C 0.44217 0.98489 0.30437 0.0
C1121 C 0.46999 0.99664 0.31317 0.0
C1122 C 0.45372 0.02412 0.32161 0.0
C1123 C 0.41041 0.04087 0.32104 0.0
H1124 H 0.99221 0.88087 0.54629 0.0
H1125 H 0.92716 0.90115 0.57775 0.0
H1126 H 0.02097 0.95616 0.54693 0.0
H1127 H 0.95661 0.97718 0.57835 0.0
H1128 H 0.06628 0.092 0.57798 0.0
H1129 H 0.0378 0.0156 0.57872 0.0
H1130 H 0.98001 0.03222 0.54635 0.0
H1131 H 0.00783 0.10789 0.54558 0.0
C1132 C 0.98408 0.90133 0.55336 0.0
C1133 C 0.95717 0.88513 0.56195 0.0
C1134 C 0.00056 0.94444 0.5537 0.0
C1135 C 0.99088 0.97217 0.56268 0.0
C1136 C 0.96463 0.95607 0.57138 0.0
C1137 C 0.94755 0.91287 0.57098 0.0
C1138 C 0.04763 0.07918 0.57102 0.0
C1139 C 0.03942 0.10582 0.56171 0.0
C1140 C 0.03109 0.03578 0.5715 0.0
C1141 C 0.00687 0.01838 0.56259 0.0
C1142 C -0.00115 0.04495 0.55329 0.0
C1143 C 0.01474 0.08827 0.55288 0.0
H1144 H 0.08877 0.40687 0.82327 0.0
H1145 H 0.11759 0.53171 0.80703 0.0
H1146 H 0.01117 0.4295 0.82524 0.0
H1147 H 0.04057 0.55399 0.80909 0.0
H1148 H 0.90474 0.59442 0.82186 0.0
H1149 H 0.98262 0.57241 0.82364 0.0
H1150 H 0.95073 0.44214 0.81097 0.0
H1151 H 0.87345 0.46376 0.80912 0.0
C1152 C 0.07879 0.43923 0.82024 0.0
C1153 C 0.10944 0.46739 0.81497 0.0
C1154 C 0.03441 0.45211 0.82136 0.0
C1155 C 0.02007 0.49353 0.81735 0.0
C1156 C 0.05091 0.52216 0.8124 0.0
C1157 C 0.09504 0.50917 0.81116 0.0
C1158 C 0.91425 0.56093 0.81958 0.0
C1159 C 0.88283 0.53094 0.81531 0.0
C1160 C 0.95878 0.54842 0.82058 0.0
C1161 C 0.97251 0.50558 0.81746 0.0
C1162 C 0.94091 0.47517 0.81357 0.0
C1163 C 0.89662 0.48776 0.81245 0.0
H1164 H 0.56698 0.59545 0.07804 0.0
H1165 H 0.49896 0.61038 0.04678 0.0
H1166 H 0.54115 0.51798 0.07907 0.0
H1167 H 0.47422 0.53367 0.04781 0.0
H1168 H 0.50137 0.38237 0.04732 0.0
H1169 H 0.52743 0.45861 0.04843 0.0
H1170 H 0.45332 0.47776 0.07854 0.0
H1171 H 0.42618 0.40083 0.07743 0.0
C1172 C 0.54673 0.58224 0.07141 0.0
C1173 C 0.53512 0.60886 0.06231 0.0
C1174 C 0.53176 0.53828 0.07206 0.0
C1175 C 0.50582 0.52043 0.06351 0.0
C1176 C 0.49425 0.54698 0.05447 0.0
C1177 C 0.50846 0.59083 0.05391 0.0
C1178 C 0.4906 0.40254 0.05422 0.0
C1179 C 0.46141 0.38566 0.06225 0.0
C1180 C 0.50563 0.44612 0.05484 0.0
C1181 C 0.49234 0.47354 0.06357 0.0
C1182 C 0.46409 0.45677 0.07178 0.0
C1183 C 0.44837 0.41309 0.07108 0.0
H1184 H 0.39275 0.47984 0.96371 0.0
H1185 H 0.40044 0.42959 0.93032 0.0
H1186 H 0.46991 0.50344 0.96267 0.0
H1187 H 0.47832 0.45419 0.92927 0.0
H1188 H 0.59428 0.5678 0.93225 0.0
H1189 H 0.51828 0.53835 0.93141 0.0
H1190 H 0.54501 0.45606 0.95982 0.0
H1191 H 0.62039 0.48449 0.96066 0.0
C1192 C 0.41099 0.47383 0.95615 0.0
C1193 C 0.39076 0.45281 0.9471 0.0
C1194 C 0.45508 0.48727 0.95557 0.0
C1195 C 0.47964 0.48059 0.94589 0.0
C1196 C 0.45966 0.45973 0.93679 0.0
C1197 C 0.4155 0.44542 0.93743 0.0
C1198 C 0.58395 0.54326 0.93827 0.0
C1199 C 0.61324 0.52878 0.94657 0.0
C1200 C 0.54075 0.52623 0.93771 0.0
C1201 C 0.52625 0.49509 0.94555 0.0
C1202 C 0.55564 0.48013 0.95371 0.0
C1203 C 0.59875 0.49655 0.95417 0.0
H1204 H 0.59692 0.90623 0.18767 0.0
H1205 H 0.46621 0.87432 0.20024 0.0
H1206 H 0.57489 0.98418 0.18605 0.0
H1207 H 0.44457 0.95173 0.19855 0.0
H1208 H 0.40869 0.08902 0.18581 0.0
H1209 H 0.43189 0.01152 0.18419 0.0
H1210 H 0.55583 0.04289 0.20036 0.0
H1211 H 0.53295 0.12004 0.20205 0.0
C1212 C 0.56343 0.91564 0.18997 0.0
C1213 C 0.53339 0.88399 0.19411 0.0
C1214 C 0.55093 0.96024 0.18906 0.0
C1215 C 0.50803 0.97383 0.19215 0.0
C1216 C 0.47765 0.94204 0.19598 0.0
C1217 C 0.49024 0.89768 0.197 0.0
C1218 C 0.44106 0.07952 0.18893 0.0
C1219 C 0.46888 0.11079 0.19409 0.0
C1220 C 0.45425 0.03516 0.18802 0.0
C1221 C 0.49565 0.02136 0.19214 0.0
C1222 C 0.52399 0.05278 0.19698 0.0
C1223 C 0.51067 0.09696 0.19801 0.0
H1224 H 0.90176 0.92701 0.43098 0.0
H1225 H 0.88378 0.98873 0.46295 0.0
H1226 H 0.97778 0.95653 0.43025 0.0
H1227 H 0.95893 0.0176 0.46216 0.0
H1228 H 0.11011 0.00566 0.46289 0.0
H1229 H 0.03497 0.97675 0.46212 0.0
H1230 H 0.01576 0.03831 0.43028 0.0
H1231 H 0.09176 0.06786 0.431 0.0
C1232 C 0.91402 0.94662 0.43784 0.0
C1233 C 0.88692 0.95538 0.44704 0.0
C1234 C 0.95717 0.96375 0.43736 0.0
C1235 C 0.97382 0.98917 0.44616 0.0
C1236 C 0.94676 -0.00215 0.45532 0.0
C1237 C 0.90374 0.98132 0.45574 0.0
C1238 C 0.09007 0.01317 0.4557 0.0
C1239 C 0.10678 0.03926 0.44702 0.0
C1240 C 0.04705 0.99661 0.45529 0.0
C1241 C 0.0199 0.00542 0.44615 0.0
C1242 C 0.03644 0.03098 0.43737 0.0
C1243 C 0.07959 0.04814 0.43784 0.0
H1244 H 0.06197 0.39859 0.68079 0.0
H1245 H 0.99715 0.38271 0.71244 0.0
H1246 H 0.03452 0.47538 0.67984 0.0
H1247 H 0.97065 0.45887 0.71146 0.0
H1248 H 0.99647 0.61014 0.71211 0.0
H1249 H 0.02072 0.53331 0.7111 0.0
H1250 H 0.95041 0.51685 0.68032 0.0
H1251 H 0.92513 0.59446 0.68133 0.0
C1252 C 0.04191 0.41137 0.6875 0.0
C1253 C 0.03199 0.38472 0.69672 0.0
C1254 C 0.02601 0.455 0.6869 0.0
C1255 C 0.00068 0.47258 0.69559 0.0
C1256 C 0.99029 0.44584 0.70469 0.0
C1257 C 0.00552 0.40229 0.70523 0.0
C1258 C 0.98611 0.59041 0.70509 0.0
C1259 C 0.95866 0.60832 0.69682 0.0
C1260 C 0.0 0.54644 0.70454 0.0
C1261 C 0.98727 0.51956 0.69565 0.0
C1262 C 0.96065 0.53732 0.68722 0.0
C1263 C 0.94604 0.58142 0.68785 0.0
H1264 H 0.23213 0.01142 0.35068 0.0
H1265 H 0.277 0.14761 0.35153 0.0
H1266 H 0.22181 0.01268 0.37062 0.0
H1267 H 0.26941 0.14833 0.37152 0.0
H1268 H 0.24852 0.0121 0.40738 0.0
H1269 H 0.25809 0.01166 0.38743 0.0
H1270 H 0.22072 0.15049 0.38623 0.0
H1271 H 0.21391 0.15125 0.40625 0.0
C1272 C 0.24017 0.04152 0.35517 0.0
C1273 C 0.25528 0.07942 0.34955 0.0
C1274 C 0.23462 0.04221 0.36663 0.0
C1275 C 0.24493 0.08056 0.3728 0.0
C1276 C 0.26021 0.11843 0.36711 0.0
C1277 C 0.26488 0.11799 0.35563 0.0
C1278 C 0.24251 0.04251 0.40283 0.0
C1279 C 0.23056 0.08171 0.40837 0.0
C1280 C 0.24763 0.04225 0.39135 0.0
C1281 C 0.24003 0.081 0.38509 0.0
C1282 C 0.22778 0.12016 0.3907 0.0
C1283 C 0.22357 0.12061 0.40221 0.0
H1284 H 0.98263 0.74017 0.60156 0.0
H1285 H 0.84521 0.78081 0.60282 0.0
H1286 H 0.98292 0.73042 0.62151 0.0
H1287 H 0.84596 0.7739 0.62284 0.0
H1288 H 0.84652 0.71838 0.65758 0.0
H1289 H 0.84596 0.72563 0.63758 0.0
H1290 H 0.98388 0.76611 0.63835 0.0
H1291 H 0.98483 0.756 0.65829 0.0
C1292 C 0.95259 0.74747 0.60614 0.0
C1293 C 0.91389 0.76115 0.60064 0.0
C1294 C 0.95278 0.74225 0.61762 0.0
C1295 C 0.91451 0.7515 0.62392 0.0
C1296 C 0.87587 0.76551 0.61834 0.0
C1297 C 0.87544 0.7698 0.60684 0.0
C1298 C 0.87668 0.72883 0.65345 0.0
C1299 C 0.91574 0.7365 0.65949 0.0
C1300 C 0.87636 0.73332 0.64196 0.0
C1301 C 0.91488 0.74655 0.63622 0.0
C1302 C 0.95378 0.75489 0.64236 0.0
C1303 C 0.95431 0.74946 0.65383 0.0
H1304 H 0.26076 0.35458 0.85085 0.0
H1305 H 0.21965 0.49199 0.85272 0.0
H1306 H 0.2715 0.35344 0.8708 0.0
H1307 H 0.22908 0.49048 0.87267 0.0
H1308 H 0.29256 0.48656 0.90676 0.0
H1309 H 0.28448 0.48738 0.88676 0.0
H1310 H 0.23031 0.35444 0.88777 0.0
H1311 H 0.23965 0.35313 0.90776 0.0
C1312 C 0.25389 0.38451 0.85551 0.0
C1313 C 0.23932 0.42337 0.85017 0.0
C1314 C 0.25975 0.38378 0.86698 0.0
C1315 C 0.25106 0.42183 0.87338 0.0
C1316 C 0.23671 0.46073 0.86801 0.0
C1317 C 0.23103 0.46152 0.85655 0.0
C1318 C 0.27896 0.45747 0.90272 0.0
C1319 C 0.26681 0.41976 0.90887 0.0
C1320 C 0.27407 0.45803 0.89124 0.0
C1321 C 0.25669 0.42099 0.88561 0.0
C1322 C 0.24444 0.38331 0.89179 0.0
C1323 C 0.24951 0.38267 0.90327 0.0
H1324 H 0.50716 0.75362 0.10102 0.0
H1325 H 0.64543 0.71582 0.10189 0.0
H1326 H 0.50742 0.7627 0.12099 0.0
H1327 H 0.64529 0.72197 0.12192 0.0
H1328 H 0.64483 0.77567 0.15685 0.0
H1329 H 0.64491 0.76931 0.13682 0.0
H1330 H 0.50768 0.72654 0.13772 0.0
H1331 H 0.50716 0.73584 0.15768 0.0
C1332 C 0.53751 0.74678 0.10552 0.0
C1333 C 0.57627 0.7341 0.0999 0.0
C1334 C 0.53765 0.75162 0.11701 0.0
C1335 C 0.57634 0.74292 0.12321 0.0
C1336 C 0.61505 0.72992 0.11751 0.0
C1337 C 0.61513 0.72606 0.106 0.0
C1338 C 0.61472 0.76493 0.15274 0.0
C1339 C 0.57595 0.75641 0.15882 0.0
C1340 C 0.61477 0.76095 0.14123 0.0
C1341 C 0.57629 0.74735 0.13552 0.0
C1342 C 0.53772 0.73811 0.14171 0.0
C1343 C 0.53743 0.74307 0.15319 0.0
H1344 H 0.73572 0.50572 0.85143 0.0
H1345 H 0.77105 0.64472 0.85185 0.0
H1346 H 0.7269 0.50679 0.8714 0.0
H1347 H 0.76501 0.64545 0.87189 0.0
H1348 H 0.71249 0.64523 0.90693 0.0
H1349 H 0.71777 0.64456 0.88688 0.0
H1350 H 0.76438 0.50856 0.88802 0.0
H1351 H 0.75635 0.5087 0.90801 0.0
C1352 C 0.742 0.53644 0.85583 0.0
C1353 C 0.75403 0.57513 0.85009 0.0
C1354 C 0.73732 0.53704 0.86732 0.0
C1355 C 0.74546 0.57616 0.87339 0.0
C1356 C 0.75758 0.61486 0.86757 0.0
C1357 C 0.76135 0.61445 0.85606 0.0
C1358 C 0.72383 0.61522 0.90287 0.0
C1359 C 0.73388 0.57698 0.90903 0.0
C1360 C 0.72718 0.61486 0.89135 0.0
C1361 C 0.74156 0.5765 0.88571 0.0
C1362 C 0.75221 0.53845 0.89196 0.0
C1363 C 0.74797 0.53857 0.90347 0.0
H1364 H 0.35379 0.22043 0.15678 0.0
H1365 H 0.49152 0.26022 0.15724 0.0
H1366 H 0.35269 0.22709 0.13677 0.0
H1367 H 0.48999 0.26972 0.13728 0.0
H1368 H 0.48835 0.24181 0.10056 0.0
H1369 H 0.4892 0.23309 0.12054 0.0
H1370 H 0.35174 0.27492 0.12192 0.0
H1371 H 0.35046 0.28081 0.10189 0.0
C1372 C 0.38369 0.23125 0.15259 0.0
C1373 C 0.42278 0.23967 0.15856 0.0
C1374 C 0.38305 0.23539 0.14109 0.0
C1375 C 0.42126 0.24901 0.13528 0.0
C1376 C 0.46015 0.25817 0.14135 0.0
C1377 C 0.46101 0.2531 0.15283 0.0
C1378 C 0.45833 0.24898 0.10516 0.0
C1379 C 0.41933 0.26188 0.09967 0.0
C1380 C 0.45884 0.24434 0.11666 0.0
C1381 C 0.42058 0.25343 0.12298 0.0
C1382 C 0.38165 0.26668 0.11741 0.0
C1383 C 0.38092 0.27038 0.1059 0.0
H1384 H 0.75362 0.98393 0.35091 0.0
H1385 H 0.71686 0.84534 0.35156 0.0
H1386 H 0.76445 0.98274 0.37082 0.0
H1387 H 0.7247 0.84453 0.37155 0.0
H1388 H 0.78081 0.84367 0.40625 0.0
H1389 H 0.77297 0.84444 0.38625 0.0
H1390 H 0.72981 0.98155 0.38772 0.0
H1391 H 0.74062 0.98125 0.40762 0.0
C1392 C 0.74738 0.9533 0.35535 0.0
C1393 C 0.73448 0.91473 0.34969 0.0
C1394 C 0.75322 0.95263 0.36681 0.0
C1395 C 0.7453 0.91357 0.37294 0.0
C1396 C 0.73208 0.87505 0.36719 0.0
C1397 C 0.72724 0.87551 0.3557 0.0
C1398 C 0.76968 0.87393 0.40226 0.0
C1399 C 0.76149 0.91243 0.40848 0.0
C1400 C 0.76485 0.87437 0.39077 0.0
C1401 C 0.75069 0.91308 0.38523 0.0
C1402 C 0.74179 0.95137 0.39156 0.0
C1403 C 0.74762 0.95117 0.40302 0.0
H1404 H 0.14619 0.27614 0.65722 0.0
H1405 H 0.00941 0.23333 0.65821 0.0
H1406 H 0.14648 0.26847 0.63723 0.0
H1407 H 0.0102 0.22285 0.63827 0.0
H1408 H 0.0098 0.24903 0.60143 0.0
H1409 H 0.00949 0.2586 0.62139 0.0
H1410 H 0.14785 0.21974 0.62258 0.0
H1411 H 0.14853 0.21299 0.60257 0.0
C1412 C 0.11634 0.26442 0.65315 0.0
C1413 C 0.07775 0.25542 0.65927 0.0
C1414 C 0.11652 0.25971 0.64167 0.0
C1415 C 0.07837 0.24493 0.63601 0.0
C1416 C 0.03997 0.23524 0.64222 0.0
C1417 C 0.03954 0.24087 0.65369 0.0
C1418 C 0.04013 0.24269 0.60599 0.0
C1419 C 0.0792 0.2304 0.60045 0.0
C1420 C 0.03994 0.24782 0.61747 0.0
C1421 C 0.07862 0.23986 0.62373 0.0
C1422 C 0.1176 0.22714 0.61811 0.0
C1423 C 0.11799 0.22295 0.60661 0.0
H1424 H 0.35039 0.15962 0.28673 0.0
H1425 H 0.23154 0.11191 0.27074 0.0
H1426 H 0.37761 0.18778 0.26923 0.0
H1427 H 0.25693 0.14298 0.25328 0.0
H1428 H 0.33588 0.15479 0.22149 0.0
H1429 H 0.30513 0.13158 0.23907 0.0
H1430 H 0.37546 0.23872 0.25531 0.0
H1431 H 0.4087 0.25958 0.23772 0.0
C1432 C 0.32958 0.15612 0.27949 0.0
C1433 C 0.28893 0.13338 0.2801 0.0
C1434 C 0.34506 0.17258 0.2694 0.0
C1435 C 0.31977 0.16773 0.25968 0.0
C1436 C 0.27813 0.14645 0.26045 0.0
C1437 C 0.26322 0.12896 0.27049 0.0
C1438 C 0.34461 0.17346 0.22882 0.0
C1439 C 0.37489 0.20885 0.22823 0.0
C1440 C 0.32664 0.16038 0.23895 0.0
C1441 C 0.33756 0.18308 0.24877 0.0
C1442 C 0.3669 0.21953 0.24806 0.0
C1443 C 0.38577 0.23184 0.23795 0.0
H1444 H 0.72619 0.88714 0.48711 0.0
H1445 H 0.84003 0.8239 0.47219 0.0
H1446 H 0.7464 0.8556 0.50494 0.0
H1447 H 0.86216 0.79484 0.49004 0.0
H1448 H 0.82432 0.84097 0.53709 0.0
H1449 H 0.79547 0.86388 0.51926 0.0
H1450 H 0.85216 0.74609 0.50434 0.0
H1451 H 0.88354 0.72508 0.52211 0.0
C1452 C 0.75562 0.86652 0.48766 0.0
C1453 C 0.78151 0.85803 0.47825 0.0
C1454 C 0.76754 0.84869 0.49792 0.0
C1455 C 0.80631 0.8228 0.49908 0.0
C1456 C 0.83164 0.81376 0.48956 0.0
C1457 C 0.81912 0.83072 0.47927 0.0
C1458 C 0.83025 0.81979 0.53001 0.0
C1459 C 0.85645 0.78137 0.531 0.0
C1460 C 0.81343 0.83278 0.51973 0.0
C1461 C 0.8215 0.80713 0.5102 0.0
C1462 C 0.8461 0.76752 0.51135 0.0
C1463 C 0.86382 0.75513 0.52158 0.0
H1464 H 0.11207 0.23223 0.73805 0.0
H1465 H 0.15941 0.35095 0.72193 0.0
H1466 H 0.14312 0.25801 0.75548 0.0
H1467 H 0.18751 0.37861 0.7394 0.0
H1468 H 0.25864 0.41081 0.77097 0.0
H1469 H 0.2381 0.3773 0.75338 0.0
H1470 H 0.13143 0.30629 0.76962 0.0
H1471 H 0.15437 0.33729 0.78719 0.0
C1472 C 0.12905 0.26396 0.73827 0.0
C1473 C 0.13337 0.28952 0.72864 0.0
C1474 C 0.14652 0.27911 0.7483 0.0
C1475 C 0.16761 0.32088 0.74902 0.0
C1476 C 0.17242 0.34598 0.73927 0.0
C1477 C 0.15601 0.33025 0.7292 0.0
C1478 C 0.23106 0.38769 0.77074 0.0
C1479 C 0.20816 0.37665 0.78045 0.0
C1480 C 0.21893 0.36865 0.76063 0.0
C1481 C 0.18275 0.33898 0.75992 0.0
C1482 C 0.16007 0.328 0.76973 0.0
C1483 C 0.17298 0.34613 0.77986 0.0
H1484 H 0.73551 0.57625 0.98892 0.0
H1485 H 0.68554 0.69148 0.97154 0.0
H1486 H 0.71082 0.60806 0.00631 0.0
H1487 H 0.66171 0.72368 0.98903 0.0
H1488 H 0.57232 0.734 0.01999 0.0
H1489 H 0.60439 0.70998 1.00257 0.0
H1490 H 0.72273 0.66661 0.01964 0.0
H1491 H 0.6903 0.68975 0.03716 0.0
C1492 C 0.71985 0.60867 0.9888 0.0
C1493 C 0.71237 0.63111 0.97877 0.0
C1494 C 0.70588 0.62706 0.99882 0.0
C1495 C 0.68411 0.66841 0.99909 0.0
C1496 C 0.67778 0.69147 0.98911 0.0
C1497 C 0.69172 0.67308 0.97908 0.0
C1498 C 0.60538 0.71978 0.02005 0.0
C1499 C 0.62854 0.71364 0.03004 0.0
C1500 C 0.62391 0.70619 0.01002 0.0
C1501 C 0.66611 0.68616 0.00968 0.0
C1502 C 0.68987 0.68129 0.01962 0.0
C1503 C 0.67134 0.69484 0.02967 0.0
H1504 H 0.41767 0.2599 0.01979 0.0
H1505 H 0.3029 0.30967 0.03736 0.0
H1506 H 0.38497 0.28385 1.00242 0.0
H1507 H 0.26988 0.33288 0.0199 0.0
H1508 H 0.26017 0.42263 0.98882 0.0
H1509 H 0.28371 0.39037 0.00627 0.0
H1510 H 0.32545 0.27125 0.98928 0.0
H1511 H 0.30267 0.30378 0.97173 0.0
C1512 C 0.38517 0.27535 0.01996 0.0
C1513 C 0.36313 0.28303 0.03003 0.0
C1514 C 0.36627 0.28889 0.00996 0.0
C1515 C 0.32482 0.31045 0.00975 0.0
C1516 C 0.30213 0.31692 0.01978 0.0
C1517 C 0.32101 0.30336 0.02979 0.0
C1518 C 0.27385 0.38933 0.98878 0.0
C1519 C 0.27976 0.36602 0.97881 0.0
C1520 C 0.28717 0.37071 0.99883 0.0
C1521 C 0.30674 0.32829 0.99919 0.0
C1522 C 0.31114 0.30428 0.98928 0.0
C1523 C 0.29779 0.32288 0.97922 0.0
H1524 H 0.73539 0.91832 0.26961 0.0
H1525 H 0.6811 0.80523 0.28703 0.0
H1526 H 0.70944 0.88729 0.25221 0.0
H1527 H 0.65569 0.77403 0.26956 0.0
H1528 H 0.5659 0.76779 0.23846 0.0
H1529 H 0.59829 0.79158 0.25591 0.0
H1530 H 0.71989 0.82648 0.2391 0.0
H1531 H 0.68745 0.80331 0.2216 0.0
C1532 C 0.71851 0.88654 0.26974 0.0
C1533 C 0.71022 0.86446 0.27977 0.0
C1534 C 0.70376 0.86864 0.25973 0.0
C1535 C 0.68027 0.82826 0.25949 0.0
C1536 C 0.67312 0.80551 0.26947 0.0
C1537 C 0.68798 0.82332 0.27949 0.0
C1538 C 0.59969 0.78016 0.23847 0.0
C1539 C 0.6239 0.78375 0.22857 0.0
C1540 C 0.61836 0.7936 0.24851 0.0
C1541 C 0.66167 0.81108 0.24891 0.0
C1542 C 0.68625 0.81372 0.23907 0.0
C1543 C 0.66766 0.80017 0.22903 0.0
H1544 H 0.26834 0.10805 0.48693 0.0
H1545 H 0.15389 0.17043 0.47206 0.0
H1546 H 0.24815 0.13959 0.50476 0.0
H1547 H 0.13177 0.19942 0.48991 0.0
H1548 H 0.10949 0.26849 0.52199 0.0
H1549 H 0.1413 0.24812 0.50421 0.0
H1550 H 0.1993 0.13083 0.51908 0.0
H1551 H 0.17005 0.15315 0.5369 0.0
C1552 C 0.23879 0.12849 0.48749 0.0
C1553 C 0.21271 0.13673 0.4781 0.0
C1554 C 0.22688 0.14631 0.49775 0.0
C1555 C 0.18793 0.17192 0.49893 0.0
C1556 C 0.16243 0.18075 0.48942 0.0
C1557 C 0.17494 0.16381 0.47913 0.0
C1558 C 0.12961 0.2387 0.52145 0.0
C1559 C 0.13722 0.21241 0.53084 0.0
C1560 C 0.14757 0.22668 0.51122 0.0
C1561 C 0.17264 0.18737 0.51005 0.0
C1562 C 0.18099 0.16171 0.51957 0.0
C1563 C 0.16393 0.17435 0.52984 0.0
H1564 H 0.80644 0.67831 0.7219 0.0
H1565 H 0.91793 0.73454 0.73956 0.0
H1566 H 0.77552 0.6516 0.73928 0.0
H1567 H 0.88721 0.70731 0.75686 0.0
H1568 H 0.80263 0.68418 0.78727 0.0
H1569 H 0.82593 0.71675 0.76981 0.0
H1570 H 0.79347 0.59443 0.753 0.0
H1571 H 0.76949 0.56185 0.77043 0.0
C1572 C 0.82424 0.68532 0.72947 0.0
C1573 C 0.86483 0.70856 0.72928 0.0
C1574 C 0.8066 0.66971 0.73943 0.0
C1575 C 0.82896 0.67709 0.74946 0.0
C1576 C 0.86884 0.70143 0.74931 0.0
C1577 C 0.88657 0.71692 0.73936 0.0
C1578 C 0.80007 0.66421 0.77986 0.0
C1579 C 0.78424 0.62022 0.78031 0.0
C1580 C 0.81371 0.6829 0.76984 0.0
C1581 C 0.81179 0.65818 0.76 0.0
C1582 C 0.79495 0.61459 0.76039 0.0
C1583 C 0.78139 0.59581 0.77042 0.0
loop_
_geom_bond_atom_site_label_1
_geom_bond_atom_site_label_2
_geom_bond_distance
_geom_bond_site_symmetry_2
_ccdc_geom_bond_type
Co0 O2 2.143 . S
Co0 O8 2.074 . S
Co0 O11 2.093 . S
Co0 O24 2.097 . S
Co0 N41 2.151 . S
Co0 N49 2.214 . S
Co1 O2 2.160 . S
Co1 O7 2.058 . S
Co1 O17 2.057 . S
Co1 O32 2.037 . S
Co1 N36 2.145 . S
Co1 N57 2.257 . S
O2 Co0 2.143 . S
O2 Co1 2.160 . S
C3 O4 1.278 . S
C3 O11 1.224 . S
O4 C3 1.278 . S
C5 O6 1.245 . S
C5 O17 1.232 . S
O6 C5 1.245 . S
O7 Co1 2.058 . S
O7 C33 1.269 . S
O8 Co0 2.074 . S
O8 C33 1.257 . S
H9 C34 0.930 . S
H10 C40 0.930 . S
O11 Co0 2.093 . S
O11 C3 1.224 . S
H12 C44 0.929 . S
H13 C46 0.930 . S
H14 C47 0.930 . S
H15 C45 0.929 . S
H16 C48 0.928 . S
O17 Co1 2.057 . S
O17 C5 1.232 . S
H18 C37 0.929 . S
H19 C38 0.929 . S
H20 C50 0.931 . S
H21 C42 0.929 . S
H22 C51 0.930 . S
H23 C43 0.931 . S
O24 Co0 2.097 . S
O24 C52 1.214 . S
H25 C53 0.929 . S
H26 C54 0.929 . S
H27 C55 0.930 . S
H28 C56 0.929 . S
H29 C58 0.930 . S
H30 C35 0.930 . S
H31 C39 0.930 . S
O32 Co1 2.037 . S
O32 C52 1.234 . S
C33 O7 1.269 . S
C33 O8 1.257 . S
C34 H9 0.930 . S
C34 C37 1.388 1_565 S
C34 C39 1.418 . S
C35 H30 0.930 . S
C35 C38 1.404 . S
C35 C39 1.353 . S
N36 Co1 2.145 . S
N36 C37 1.397 . S
N36 C38 1.334 1_545 S
C37 H18 0.929 . S
C37 C34 1.388 1_545 S
C37 N36 1.397 . S
C38 H19 0.929 . S
C38 C35 1.404 . S
C38 N36 1.334 1_565 S
C39 H31 0.930 . S
C39 C34 1.418 . S
C39 C35 1.353 . S
C40 H10 0.930 . S
C40 N41 1.330 . S
C40 C42 1.446 . S
N41 Co0 2.151 . S
N41 C40 1.330 . S
N41 C45 1.418 . S
C42 H21 0.929 . S
C42 C40 1.446 . S
C42 C43 1.332 . S
C43 H23 0.931 . S
C43 C42 1.332 . S
C43 C44 1.267 . S
C44 H12 0.929 . S
C44 C43 1.267 . S
C44 C45 1.251 . S
C45 H15 0.929 . S
C45 N41 1.418 . S
C45 C44 1.251 . S
C46 H13 0.930 . S
C46 C48 1.406 . S
C46 C51 1.261 . S
C47 H14 0.930 . S
C47 N49 1.325 . S
C47 C50 1.357 . S
C48 H16 0.928 . S
C48 C46 1.406 . S
C48 N49 1.261 . S
N49 Co0 2.214 . S
N49 C47 1.325 . S
N49 C48 1.261 . S
C50 H20 0.931 . S
C50 C47 1.357 . S
C50 C51 1.312 . S
C51 H22 0.930 . S
C51 C46 1.261 . S
C51 C50 1.312 . S
C52 O24 1.214 . S
C52 O32 1.234 . S
C53 H25 0.929 . S
C53 C56 1.391 . S
C53 C58 1.391 1_565 S
C54 H26 0.929 . S
C54 C55 1.390 . S
C54 N57 1.391 1_565 S
C55 H27 0.930 . S
C55 C54 1.390 . S
C55 C56 1.392 . S
C56 H28 0.929 . S
C56 C53 1.391 . S
C56 C55 1.392 . S
N57 Co1 2.257 . S
N57 C54 1.391 1_545 S
N57 C58 1.388 . S
C58 H29 0.930 . S
C58 C53 1.391 1_545 S
C58 N57 1.388 . S
Co59 O61 2.143 . S
Co59 O67 2.074 . S
Co59 O70 2.093 . S
Co59 O83 2.097 . S
Co59 N100 2.151 . S
Co59 N108 2.214 . S
Co60 O61 2.160 . S
Co60 O66 2.058 . S
Co60 O76 2.057 . S
Co60 O91 2.037 . S
Co60 N95 2.145 . S
Co60 N116 2.257 . S
O61 Co59 2.143 . S
O61 Co60 2.160 . S
C62 O63 1.278 . S
C62 O70 1.224 . S
O63 C62 1.278 . S
C64 O65 1.245 . S
C64 O76 1.232 . S
O65 C64 1.245 . S
O66 Co60 2.058 . S
O66 C92 1.269 . S
O67 Co59 2.074 . S
O67 C92 1.257 . S
H68 C93 0.930 . S
H69 C99 0.930 . S
O70 Co59 2.093 . S
O70 C62 1.224 . S
H71 C103 0.929 . S
H72 C105 0.930 . S
H73 C106 0.930 . S
H74 C104 0.929 . S
H75 C107 0.928 . S
O76 Co60 2.057 . S
O76 C64 1.232 . S
H77 C96 0.929 . S
H78 C97 0.929 . S
H79 C109 0.931 . S
H80 C101 0.929 . S
H81 C110 0.930 . S
H82 C102 0.931 . S
O83 Co59 2.097 . S
O83 C111 1.214 . S
H84 C112 0.929 . S
H85 C113 0.929 . S
H86 C114 0.930 . S
H87 C115 0.929 . S
H88 C117 0.930 . S
H89 C94 0.930 . S
H90 C98 0.930 . S
O91 Co60 2.037 . S
O91 C111 1.234 . S
C92 O66 1.269 . S
C92 O67 1.257 . S
C93 H68 0.930 . S
C93 C96 1.388 1_455 S
C93 C98 1.418 . S
C94 H89 0.930 . S
C94 C97 1.404 . S
C94 C98 1.353 . S
N95 Co60 2.145 . S
N95 C96 1.397 . S
N95 C97 1.334 1_655 S
C96 H77 0.929 . S
C96 C93 1.388 1_655 S
C96 N95 1.397 . S
C97 H78 0.929 . S
C97 C94 1.404 . S
C97 N95 1.334 1_455 S
C98 H90 0.930 . S
C98 C93 1.418 . S
C98 C94 1.353 . S
C99 H69 0.930 . S
C99 N100 1.330 . S
C99 C101 1.446 . S
N100 Co59 2.151 . S
N100 C99 1.330 . S
N100 C104 1.418 . S
C101 H80 0.929 . S
C101 C99 1.446 . S
C101 C102 1.332 . S
C102 H82 0.931 . S
C102 C101 1.332 . S
C102 C103 1.267 . S
C103 H71 0.929 . S
C103 C102 1.267 . S
C103 C104 1.251 . S
C104 H74 0.929 . S
C104 N100 1.418 . S
C104 C103 1.251 . S
C105 H72 0.930 . S
C105 C107 1.406 . S
C105 C110 1.261 . S
C106 H73 0.930 . S
C106 N108 1.325 . S
C106 C109 1.357 . S
C107 H75 0.928 . S
C107 C105 1.406 . S
C107 N108 1.261 . S
N108 Co59 2.214 . S
N108 C106 1.325 . S
N108 C107 1.261 . S
C109 H79 0.931 . S
C109 C106 1.357 . S
C109 C110 1.312 . S
C110 H81 0.930 . S
C110 C105 1.261 . S
C110 C109 1.312 . S
C111 O83 1.214 . S
C111 O91 1.234 . S
C112 H84 0.929 . S
C112 C115 1.391 . S
C112 C117 1.391 1_455 S
C113 H85 0.929 . S
C113 C114 1.390 . S
C113 N116 1.391 1_455 S
C114 H86 0.930 . S
C114 C113 1.390 . S
C114 C115 1.392 . S
C115 H87 0.929 . S
C115 C112 1.391 . S
C115 C114 1.392 . S
N116 Co60 2.257 . S
N116 C113 1.391 1_655 S
N116 C117 1.388 . S
C117 H88 0.930 . S
C117 C112 1.391 1_655 S
C117 N116 1.388 . S
Co118 O120 2.143 . S
Co118 O126 2.074 . S
Co118 O129 2.093 . S
Co118 O142 2.097 . S
Co118 N159 2.151 . S
Co118 N167 2.214 . S
Co119 O120 2.160 . S
Co119 O125 2.058 . S
Co119 O135 2.057 . S
Co119 O150 2.037 . S
Co119 N154 2.145 . S
Co119 N175 2.257 . S
O120 Co118 2.143 . S
O120 Co119 2.160 . S
C121 O122 1.278 . S
C121 O129 1.224 . S
O122 C121 1.278 . S
C123 O124 1.245 . S
C123 O135 1.232 . S
O124 C123 1.245 . S
O125 Co119 2.058 . S
O125 C151 1.269 . S
O126 Co118 2.074 . S
O126 C151 1.257 . S
H127 C152 0.930 . S
H128 C158 0.930 . S
O129 Co118 2.093 . S
O129 C121 1.224 . S
H130 C162 0.929 . S
H131 C164 0.930 . S
H132 C165 0.930 . S
H133 C163 0.929 . S
H134 C166 0.928 . S
O135 Co119 2.057 . S
O135 C123 1.232 . S
H136 C155 0.929 . S
H137 C156 0.929 . S
H138 C168 0.931 . S
H139 C160 0.929 . S
H140 C169 0.930 . S
H141 C161 0.931 . S
O142 Co118 2.097 . S
O142 C170 1.214 . S
H143 C171 0.929 . S
H144 C172 0.929 . S
H145 C173 0.930 . S
H146 C174 0.929 . S
H147 C176 0.930 . S
H148 C153 0.930 . S
H149 C157 0.930 . S
O150 Co119 2.037 . S
O150 C170 1.234 . S
C151 O125 1.269 . S
C151 O126 1.257 . S
C152 H127 0.930 . S
C152 C155 1.388 . S
C152 C157 1.418 . S
C153 H148 0.930 . S
C153 C156 1.404 . S
C153 C157 1.353 . S
N154 Co119 2.145 . S
N154 C155 1.397 . S
N154 C156 1.334 . S
C155 H136 0.929 . S
C155 C152 1.388 . S
C155 N154 1.397 . S
C156 H137 0.929 . S
C156 C153 1.404 . S
C156 N154 1.334 . S
C157 H149 0.930 . S
C157 C152 1.418 . S
C157 C153 1.353 . S
C158 H128 0.930 . S
C158 N159 1.330 . S
C158 C160 1.446 . S
N159 Co118 2.151 . S
N159 C158 1.330 . S
N159 C163 1.418 . S
C160 H139 0.929 . S
C160 C158 1.446 . S
C160 C161 1.332 . S
C161 H141 0.931 . S
C161 C160 1.332 . S
C161 C162 1.267 . S
C162 H130 0.929 . S
C162 C161 1.267 . S
C162 C163 1.251 . S
C163 H133 0.929 . S
C163 N159 1.418 . S
C163 C162 1.251 . S
C164 H131 0.930 . S
C164 C166 1.406 . S
C164 C169 1.261 . S
C165 H132 0.930 . S
C165 N167 1.325 . S
C165 C168 1.357 . S
C166 H134 0.928 . S
C166 C164 1.406 . S
C166 N167 1.261 . S
N167 Co118 2.214 . S
N167 C165 1.325 . S
N167 C166 1.261 . S
C168 H138 0.931 . S
C168 C165 1.357 . S
C168 C169 1.312 . S
C169 H140 0.930 . S
C169 C164 1.261 . S
C169 C168 1.312 . S
C170 O142 1.214 . S
C170 O150 1.234 . S
C171 H143 0.929 . S
C171 C174 1.391 . S
C171 C176 1.391 . S
C172 H144 0.929 . S
C172 C173 1.390 . S
C172 N175 1.391 . S
C173 H145 0.930 . S
C173 C172 1.390 . S
C173 C174 1.392 . S
C174 H146 0.929 . S
C174 C171 1.391 . S
C174 C173 1.392 . S
N175 Co119 2.257 . S
N175 C172 1.391 . S
N175 C176 1.388 . S
C176 H147 0.930 . S
C176 C171 1.391 . S
C176 N175 1.388 . S
Co177 O179 2.143 . S
Co177 O185 2.074 . S
Co177 O188 2.093 . S
Co177 O201 2.097 . S
Co177 N218 2.151 . S
Co177 N226 2.214 . S
Co178 O179 2.160 . S
Co178 O184 2.058 . S
Co178 O194 2.057 . S
Co178 O209 2.037 . S
Co178 N213 2.145 . S
Co178 N234 2.257 . S
O179 Co177 2.143 . S
O179 Co178 2.160 . S
C180 O181 1.278 . S
C180 O188 1.224 . S
O181 C180 1.278 . S
C182 O183 1.245 . S
C182 O194 1.232 . S
O183 C182 1.245 . S
O184 Co178 2.058 . S
O184 C210 1.269 . S
O185 Co177 2.074 . S
O185 C210 1.257 . S
H186 C211 0.930 . S
H187 C217 0.930 . S
O188 Co177 2.093 . S
O188 C180 1.224 . S
H189 C221 0.929 . S
H190 C223 0.930 . S
H191 C224 0.930 . S
H192 C222 0.929 . S
H193 C225 0.928 . S
O194 Co178 2.057 . S
O194 C182 1.232 . S
H195 C214 0.929 . S
H196 C215 0.929 . S
H197 C227 0.931 . S
H198 C219 0.929 . S
H199 C228 0.930 . S
H200 C220 0.931 . S
O201 Co177 2.097 . S
O201 C229 1.214 . S
H202 C230 0.929 . S
H203 C231 0.929 . S
H204 C232 0.930 . S
H205 C233 0.929 . S
H206 C235 0.930 . S
H207 C212 0.930 . S
H208 C216 0.930 . S
O209 Co178 2.037 . S
O209 C229 1.234 . S
C210 O184 1.269 . S
C210 O185 1.257 . S
C211 H186 0.930 . S
C211 C214 1.388 . S
C211 C216 1.418 . S
C212 H207 0.930 . S
C212 C215 1.404 . S
C212 C216 1.353 . S
N213 Co178 2.145 . S
N213 C214 1.397 . S
N213 C215 1.334 . S
C214 H195 0.929 . S
C214 C211 1.388 . S
C214 N213 1.397 . S
C215 H196 0.929 . S
C215 C212 1.404 . S
C215 N213 1.334 . S
C216 H208 0.930 . S
C216 C211 1.418 . S
C216 C212 1.353 . S
C217 H187 0.930 . S
C217 N218 1.330 . S
C217 C219 1.446 . S
N218 Co177 2.151 . S
N218 C217 1.330 . S
N218 C222 1.418 . S
C219 H198 0.929 . S
C219 C217 1.446 . S
C219 C220 1.332 . S
C220 H200 0.931 . S
C220 C219 1.332 . S
C220 C221 1.267 . S
C221 H189 0.929 . S
C221 C220 1.267 . S
C221 C222 1.251 . S
C222 H192 0.929 . S
C222 N218 1.418 . S
C222 C221 1.251 . S
C223 H190 0.930 . S
C223 C225 1.406 . S
C223 C228 1.261 . S
C224 H191 0.930 . S
C224 N226 1.325 . S
C224 C227 1.357 . S
C225 H193 0.928 . S
C225 C223 1.406 . S
C225 N226 1.261 . S
N226 Co177 2.214 . S
N226 C224 1.325 . S
N226 C225 1.261 . S
C227 H197 0.931 . S
C227 C224 1.357 . S
C227 C228 1.312 . S
C228 H199 0.930 . S
C228 C223 1.261 . S
C228 C227 1.312 . S
C229 O201 1.214 . S
C229 O209 1.234 . S
C230 H202 0.929 . S
C230 C233 1.391 . S
C230 C235 1.391 . S
C231 H203 0.929 . S
C231 C232 1.390 . S
C231 N234 1.391 . S
C232 H204 0.930 . S
C232 C231 1.390 . S
C232 C233 1.392 . S
C233 H205 0.929 . S
C233 C230 1.391 . S
C233 C232 1.392 . S
N234 Co178 2.257 . S
N234 C231 1.391 . S
N234 C235 1.388 . S
C235 H206 0.930 . S
C235 C230 1.391 . S
C235 N234 1.388 . S
Co236 O238 2.143 . S
Co236 O244 2.074 . S
Co236 O247 2.093 . S
Co236 O260 2.097 . S
Co236 N277 2.151 . S
Co236 N285 2.214 . S
Co237 O238 2.160 . S
Co237 O243 2.058 . S
Co237 O253 2.057 . S
Co237 O268 2.037 . S
Co237 N272 2.145 . S
Co237 N293 2.257 . S
O238 Co236 2.143 . S
O238 Co237 2.160 . S
C239 O240 1.278 . S
C239 O247 1.224 . S
O240 C239 1.278 . S
C241 O242 1.245 . S
C241 O253 1.232 . S
O242 C241 1.245 . S
O243 Co237 2.058 . S
O243 C269 1.269 . S
O244 Co236 2.074 . S
O244 C269 1.257 . S
H245 C270 0.930 . S
H246 C276 0.930 . S
O247 Co236 2.093 . S
O247 C239 1.224 . S
H248 C280 0.929 . S
H249 C282 0.930 . S
H250 C283 0.930 . S
H251 C281 0.929 . S
H252 C284 0.928 . S
O253 Co237 2.057 . S
O253 C241 1.232 . S
H254 C273 0.929 . S
H255 C274 0.929 . S
H256 C286 0.931 . S
H257 C278 0.929 . S
H258 C287 0.930 . S
H259 C279 0.931 . S
O260 Co236 2.097 . S
O260 C288 1.214 . S
H261 C289 0.929 . S
H262 C290 0.929 . S
H263 C291 0.930 . S
H264 C292 0.929 . S
H265 C294 0.930 . S
H266 C271 0.930 . S
H267 C275 0.930 . S
O268 Co237 2.037 . S
O268 C288 1.234 . S
C269 O243 1.269 . S
C269 O244 1.257 . S
C270 H245 0.930 . S
C270 C273 1.388 . S
C270 C275 1.418 . S
C271 H266 0.930 . S
C271 C274 1.404 . S
C271 C275 1.353 . S
N272 Co237 2.145 . S
N272 C273 1.397 . S
N272 C274 1.334 . S
C273 H254 0.929 . S
C273 C270 1.388 . S
C273 N272 1.397 . S
C274 H255 0.929 . S
C274 C271 1.404 . S
C274 N272 1.334 . S
C275 H267 0.930 . S
C275 C270 1.418 . S
C275 C271 1.353 . S
C276 H246 0.930 . S
C276 N277 1.330 . S
C276 C278 1.446 . S
N277 Co236 2.151 . S
N277 C276 1.330 . S
N277 C281 1.418 . S
C278 H257 0.929 . S
C278 C276 1.446 . S
C278 C279 1.332 . S
C279 H259 0.931 . S
C279 C278 1.332 . S
C279 C280 1.267 . S
C280 H248 0.929 . S
C280 C279 1.267 . S
C280 C281 1.251 . S
C281 H251 0.929 . S
C281 N277 1.418 . S
C281 C280 1.251 . S
C282 H249 0.930 . S
C282 C284 1.406 . S
C282 C287 1.261 . S
C283 H250 0.930 . S
C283 N285 1.325 . S
C283 C286 1.357 . S
C284 H252 0.928 . S
C284 C282 1.406 . S
C284 N285 1.261 . S
N285 Co236 2.214 . S
N285 C283 1.325 . S
N285 C284 1.261 . S
C286 H256 0.931 . S
C286 C283 1.357 . S
C286 C287 1.312 . S
C287 H258 0.930 . S
C287 C282 1.261 . S
C287 C286 1.312 . S
C288 O260 1.214 . S
C288 O268 1.234 . S
C289 H261 0.929 . S
C289 C292 1.391 . S
C289 C294 1.391 . S
C290 H262 0.929 . S
C290 C291 1.390 . S
C290 N293 1.391 . S
C291 H263 0.930 . S
C291 C290 1.390 . S
C291 C292 1.392 . S
C292 H264 0.929 . S
C292 C289 1.391 . S
C292 C291 1.392 . S
N293 Co237 2.257 . S
N293 C290 1.391 . S
N293 C294 1.388 . S
C294 H265 0.930 . S
C294 C289 1.391 . S
C294 N293 1.388 . S
Co295 O297 2.143 . S
Co295 O303 2.074 . S
Co295 O306 2.093 . S
Co295 O319 2.097 . S
Co295 N336 2.151 . S
Co295 N344 2.214 . S
Co296 O297 2.160 . S
Co296 O302 2.058 . S
Co296 O312 2.057 . S
Co296 O327 2.037 . S
Co296 N331 2.145 . S
Co296 N352 2.257 . S
O297 Co295 2.143 . S
O297 Co296 2.160 . S
C298 O299 1.278 . S
C298 O306 1.224 . S
O299 C298 1.278 . S
C300 O301 1.245 . S
C300 O312 1.232 . S
O301 C300 1.245 . S
O302 Co296 2.058 . S
O302 C328 1.269 . S
O303 Co295 2.074 . S
O303 C328 1.257 . S
H304 C329 0.930 . S
H305 C335 0.930 . S
O306 Co295 2.093 . S
O306 C298 1.224 . S
H307 C339 0.929 . S
H308 C341 0.930 . S
H309 C342 0.930 . S
H310 C340 0.929 . S
H311 C343 0.928 . S
O312 Co296 2.057 . S
O312 C300 1.232 . S
H313 C332 0.929 . S
H314 C333 0.929 . S
H315 C345 0.931 . S
H316 C337 0.929 . S
H317 C346 0.930 . S
H318 C338 0.931 . S
O319 Co295 2.097 . S
O319 C347 1.214 . S
H320 C348 0.929 . S
H321 C349 0.929 . S
H322 C350 0.930 . S
H323 C351 0.929 . S
H324 C353 0.930 . S
H325 C330 0.930 . S
H326 C334 0.930 . S
O327 Co296 2.037 . S
O327 C347 1.234 . S
C328 O302 1.269 . S
C328 O303 1.257 . S
C329 H304 0.930 . S
C329 C332 1.388 . S
C329 C334 1.418 . S
C330 H325 0.930 . S
C330 C333 1.404 . S
C330 C334 1.353 . S
N331 Co296 2.145 . S
N331 C332 1.397 . S
N331 C333 1.334 . S
C332 H313 0.929 . S
C332 C329 1.388 . S
C332 N331 1.397 . S
C333 H314 0.929 . S
C333 C330 1.404 . S
C333 N331 1.334 . S
C334 H326 0.930 . S
C334 C329 1.418 . S
C334 C330 1.353 . S
C335 H305 0.930 . S
C335 N336 1.330 . S
C335 C337 1.446 . S
N336 Co295 2.151 . S
N336 C335 1.330 . S
N336 C340 1.418 . S
C337 H316 0.929 . S
C337 C335 1.446 . S
C337 C338 1.332 . S
C338 H318 0.931 . S
C338 C337 1.332 . S
C338 C339 1.267 . S
C339 H307 0.929 . S
C339 C338 1.267 . S
C339 C340 1.251 . S
C340 H310 0.929 . S
C340 N336 1.418 . S
C340 C339 1.251 . S
C341 H308 0.930 . S
C341 C343 1.406 . S
C341 C346 1.261 . S
C342 H309 0.930 . S
C342 N344 1.325 . S
C342 C345 1.357 . S
C343 H311 0.928 . S
C343 C341 1.406 . S
C343 N344 1.261 . S
N344 Co295 2.214 . S
N344 C342 1.325 . S
N344 C343 1.261 . S
C345 H315 0.931 . S
C345 C342 1.357 . S
C345 C346 1.312 . S
C346 H317 0.930 . S
C346 C341 1.261 . S
C346 C345 1.312 . S
C347 O319 1.214 . S
C347 O327 1.234 . S
C348 H320 0.929 . S
C348 C351 1.391 . S
C348 C353 1.391 . S
C349 H321 0.929 . S
C349 C350 1.390 . S
C349 N352 1.391 . S
C350 H322 0.930 . S
C350 C349 1.390 . S
C350 C351 1.392 . S
C351 H323 0.929 . S
C351 C348 1.391 . S
C351 C350 1.392 . S
N352 Co296 2.257 . S
N352 C349 1.391 . S
N352 C353 1.388 . S
C353 H324 0.930 . S
C353 C348 1.391 . S
C353 N352 1.388 . S
Co354 O356 2.143 . S
Co354 O362 2.074 . S
Co354 O365 2.093 . S
Co354 O378 2.097 . S
Co354 N395 2.151 . S
Co354 N403 2.214 . S
Co355 O356 2.160 . S
Co355 O361 2.058 . S
Co355 O371 2.057 . S
Co355 O386 2.037 . S
Co355 N390 2.145 . S
Co355 N411 2.257 . S
O356 Co354 2.143 . S
O356 Co355 2.160 . S
C357 O358 1.278 . S
C357 O365 1.224 . S
O358 C357 1.278 . S
C359 O360 1.245 . S
C359 O371 1.232 . S
O360 C359 1.245 . S
O361 Co355 2.058 . S
O361 C387 1.269 . S
O362 Co354 2.074 . S
O362 C387 1.257 . S
H363 C388 0.930 . S
H364 C394 0.930 . S
O365 Co354 2.093 . S
O365 C357 1.224 . S
H366 C398 0.929 . S
H367 C400 0.930 . S
H368 C401 0.930 . S
H369 C399 0.929 . S
H370 C402 0.928 . S
O371 Co355 2.057 . S
O371 C359 1.232 . S
H372 C391 0.929 . S
H373 C392 0.929 . S
H374 C404 0.931 . S
H375 C396 0.929 . S
H376 C405 0.930 . S
H377 C397 0.931 . S
O378 Co354 2.097 . S
O378 C406 1.214 . S
H379 C407 0.929 . S
H380 C408 0.929 . S
H381 C409 0.930 . S
H382 C410 0.929 . S
H383 C412 0.930 . S
H384 C389 0.930 . S
H385 C393 0.930 . S
O386 Co355 2.037 . S
O386 C406 1.234 . S
C387 O361 1.269 . S
C387 O362 1.257 . S
C388 H363 0.930 . S
C388 C391 1.388 1_565 S
C388 C393 1.418 . S
C389 H384 0.930 . S
C389 C392 1.404 . S
C389 C393 1.353 . S
N390 Co355 2.145 . S
N390 C391 1.397 . S
N390 C392 1.334 1_545 S
C391 H372 0.929 . S
C391 C388 1.388 1_545 S
C391 N390 1.397 . S
C392 H373 0.929 . S
C392 C389 1.404 . S
C392 N390 1.334 1_565 S
C393 H385 0.930 . S
C393 C388 1.418 . S
C393 C389 1.353 . S
C394 H364 0.930 . S
C394 N395 1.330 . S
C394 C396 1.446 . S
N395 Co354 2.151 . S
N395 C394 1.330 . S
N395 C399 1.418 . S
C396 H375 0.929 . S
C396 C394 1.446 . S
C396 C397 1.332 . S
C397 H377 0.931 . S
C397 C396 1.332 . S
C397 C398 1.267 . S
C398 H366 0.929 . S
C398 C397 1.267 . S
C398 C399 1.251 . S
C399 H369 0.929 . S
C399 N395 1.418 . S
C399 C398 1.251 . S
C400 H367 0.930 . S
C400 C402 1.406 . S
C400 C405 1.261 . S
C401 H368 0.930 . S
C401 N403 1.325 . S
C401 C404 1.357 . S
C402 H370 0.928 . S
C402 C400 1.406 . S
C402 N403 1.261 . S
N403 Co354 2.214 . S
N403 C401 1.325 . S
N403 C402 1.261 . S
C404 H374 0.931 . S
C404 C401 1.357 . S
C404 C405 1.312 . S
C405 H376 0.930 . S
C405 C400 1.261 . S
C405 C404 1.312 . S
C406 O378 1.214 . S
C406 O386 1.234 . S
C407 H379 0.929 . S
C407 C410 1.391 . S
C407 C412 1.391 1_565 S
C408 H380 0.929 . S
C408 C409 1.390 . S
C408 N411 1.391 1_565 S
C409 H381 0.930 . S
C409 C408 1.390 . S
C409 C410 1.392 . S
C410 H382 0.929 . S
C410 C407 1.391 . S
C410 C409 1.392 . S
N411 Co355 2.257 . S
N411 C408 1.391 1_545 S
N411 C412 1.388 . S
C412 H383 0.930 . S
C412 C407 1.391 1_545 S
C412 N411 1.388 . S
Co413 O415 2.143 . S
Co413 O421 2.074 . S
Co413 O424 2.093 . S
Co413 O437 2.097 . S
Co413 N454 2.151 . S
Co413 N462 2.214 . S
Co414 O415 2.160 . S
Co414 O420 2.058 . S
Co414 O430 2.057 . S
Co414 O445 2.037 . S
Co414 N449 2.145 . S
Co414 N470 2.257 . S
O415 Co413 2.143 . S
O415 Co414 2.160 . S
C416 O417 1.278 . S
C416 O424 1.224 . S
O417 C416 1.278 . S
C418 O419 1.245 . S
C418 O430 1.232 . S
O419 C418 1.245 . S
O420 Co414 2.058 . S
O420 C446 1.269 . S
O421 Co413 2.074 . S
O421 C446 1.257 . S
H422 C447 0.930 . S
H423 C453 0.930 . S
O424 Co413 2.093 . S
O424 C416 1.224 . S
H425 C457 0.929 . S
H426 C459 0.930 . S
H427 C460 0.930 . S
H428 C458 0.929 . S
H429 C461 0.928 . S
O430 Co414 2.057 . S
O430 C418 1.232 . S
H431 C450 0.929 . S
H432 C451 0.929 . S
H433 C463 0.931 . S
H434 C455 0.929 . S
H435 C464 0.930 . S
H436 C456 0.931 . S
O437 Co413 2.097 . S
O437 C465 1.214 . S
H438 C466 0.929 . S
H439 C467 0.929 . S
H440 C468 0.930 . S
H441 C469 0.929 . S
H442 C471 0.930 . S
H443 C448 0.930 . S
H444 C452 0.930 . S
O445 Co414 2.037 . S
O445 C465 1.234 . S
C446 O420 1.269 . S
C446 O421 1.257 . S
C447 H422 0.930 . S
C447 C450 1.388 1_455 S
C447 C452 1.418 . S
C448 H443 0.930 . S
C448 C451 1.404 . S
C448 C452 1.353 . S
N449 Co414 2.145 . S
N449 C450 1.397 . S
N449 C451 1.334 1_655 S
C450 H431 0.929 . S
C450 C447 1.388 1_655 S
C450 N449 1.397 . S
C451 H432 0.929 . S
C451 C448 1.404 . S
C451 N449 1.334 1_455 S
C452 H444 0.930 . S
C452 C447 1.418 . S
C452 C448 1.353 . S
C453 H423 0.930 . S
C453 N454 1.330 . S
C453 C455 1.446 . S
N454 Co413 2.151 . S
N454 C453 1.330 . S
N454 C458 1.418 . S
C455 H434 0.929 . S
C455 C453 1.446 . S
C455 C456 1.332 . S
C456 H436 0.931 . S
C456 C455 1.332 . S
C456 C457 1.267 . S
C457 H425 0.929 . S
C457 C456 1.267 . S
C457 C458 1.251 . S
C458 H428 0.929 . S
C458 N454 1.418 . S
C458 C457 1.251 . S
C459 H426 0.930 . S
C459 C461 1.406 . S
C459 C464 1.261 . S
C460 H427 0.930 . S
C460 N462 1.325 . S
C460 C463 1.357 . S
C461 H429 0.928 . S
C461 C459 1.406 . S
C461 N462 1.261 . S
N462 Co413 2.214 . S
N462 C460 1.325 . S
N462 C461 1.261 . S
C463 H433 0.931 . S
C463 C460 1.357 . S
C463 C464 1.312 . S
C464 H435 0.930 . S
C464 C459 1.261 . S
C464 C463 1.312 . S
C465 O437 1.214 . S
C465 O445 1.234 . S
C466 H438 0.929 . S
C466 C469 1.391 . S
C466 C471 1.391 1_455 S
C467 H439 0.929 . S
C467 C468 1.390 . S
C467 N470 1.391 1_455 S
C468 H440 0.930 . S
C468 C467 1.390 . S
C468 C469 1.392 . S
C469 H441 0.929 . S
C469 C466 1.391 . S
C469 C468 1.392 . S
N470 Co414 2.257 . S
N470 C467 1.391 1_655 S
N470 C471 1.388 . S
C471 H442 0.930 . S
C471 C466 1.391 1_655 S
C471 N470 1.388 . S
Co472 O474 2.143 . S
Co472 O480 2.074 . S
Co472 O483 2.093 . S
Co472 O496 2.097 . S
Co472 N513 2.151 . S
Co472 N521 2.214 . S
Co473 O474 2.160 . S
Co473 O479 2.058 . S
Co473 O489 2.057 . S
Co473 O504 2.037 . S
Co473 N508 2.145 . S
Co473 N529 2.257 . S
O474 Co472 2.143 . S
O474 Co473 2.160 . S
C475 O476 1.278 . S
C475 O483 1.224 . S
O476 C475 1.278 . S
C477 O478 1.245 . S
C477 O489 1.232 . S
O478 C477 1.245 . S
O479 Co473 2.058 . S
O479 C505 1.269 . S
O480 Co472 2.074 . S
O480 C505 1.257 . S
H481 C506 0.930 . S
H482 C512 0.930 . S
O483 Co472 2.093 . S
O483 C475 1.224 . S
H484 C516 0.929 . S
H485 C518 0.930 . S
H486 C519 0.930 . S
H487 C517 0.929 . S
H488 C520 0.928 . S
O489 Co473 2.057 . S
O489 C477 1.232 . S
H490 C509 0.929 . S
H491 C510 0.929 . S
H492 C522 0.931 . S
H493 C514 0.929 . S
H494 C523 0.930 . S
H495 C515 0.931 . S
O496 Co472 2.097 . S
O496 C524 1.214 . S
H497 C525 0.929 . S
H498 C526 0.929 . S
H499 C527 0.930 . S
H500 C528 0.929 . S
H501 C530 0.930 . S
H502 C507 0.930 . S
H503 C511 0.930 . S
O504 Co473 2.037 . S
O504 C524 1.234 . S
C505 O479 1.269 . S
C505 O480 1.257 . S
C506 H481 0.930 . S
C506 C509 1.388 . S
C506 C511 1.418 . S
C507 H502 0.930 . S
C507 C510 1.404 . S
C507 C511 1.353 . S
N508 Co473 2.145 . S
N508 C509 1.397 . S
N508 C510 1.334 . S
C509 H490 0.929 . S
C509 C506 1.388 . S
C509 N508 1.397 . S
C510 H491 0.929 . S
C510 C507 1.404 . S
C510 N508 1.334 . S
C511 H503 0.930 . S
C511 C506 1.418 . S
C511 C507 1.353 . S
C512 H482 0.930 . S
C512 N513 1.330 . S
C512 C514 1.446 . S
N513 Co472 2.151 . S
N513 C512 1.330 . S
N513 C517 1.418 . S
C514 H493 0.929 . S
C514 C512 1.446 . S
C514 C515 1.332 . S
C515 H495 0.931 . S
C515 C514 1.332 . S
C515 C516 1.267 . S
C516 H484 0.929 . S
C516 C515 1.267 . S
C516 C517 1.251 . S
C517 H487 0.929 . S
C517 N513 1.418 . S
C517 C516 1.251 . S
C518 H485 0.930 . S
C518 C520 1.406 . S
C518 C523 1.261 . S
C519 H486 0.930 . S
C519 N521 1.325 . S
C519 C522 1.357 . S
C520 H488 0.928 . S
C520 C518 1.406 . S
C520 N521 1.261 . S
N521 Co472 2.214 . S
N521 C519 1.325 . S
N521 C520 1.261 . S
C522 H492 0.931 . S
C522 C519 1.357 . S
C522 C523 1.312 . S
C523 H494 0.930 . S
C523 C518 1.261 . S
C523 C522 1.312 . S
C524 O496 1.214 . S
C524 O504 1.234 . S
C525 H497 0.929 . S
C525 C528 1.391 . S
C525 C530 1.391 . S
C526 H498 0.929 . S
C526 C527 1.390 . S
C526 N529 1.391 . S
C527 H499 0.930 . S
C527 C526 1.390 . S
C527 C528 1.392 . S
C528 H500 0.929 . S
C528 C525 1.391 . S
C528 C527 1.392 . S
N529 Co473 2.257 . S
N529 C526 1.391 . S
N529 C530 1.388 . S
C530 H501 0.930 . S
C530 C525 1.391 . S
C530 N529 1.388 . S
Co531 O533 2.143 . S
Co531 O539 2.074 . S
Co531 O542 2.093 . S
Co531 O555 2.097 . S
Co531 N572 2.151 . S
Co531 N580 2.214 . S
Co532 O533 2.160 . S
Co532 O538 2.058 . S
Co532 O548 2.057 . S
Co532 O563 2.037 . S
Co532 N567 2.145 . S
Co532 N588 2.257 . S
O533 Co531 2.143 . S
O533 Co532 2.160 . S
C534 O535 1.278 . S
C534 O542 1.224 . S
O535 C534 1.278 . S
C536 O537 1.245 . S
C536 O548 1.232 . S
O537 C536 1.245 . S
O538 Co532 2.058 . S
O538 C564 1.269 . S
O539 Co531 2.074 . S
O539 C564 1.257 . S
H540 C565 0.930 . S
H541 C571 0.930 . S
O542 Co531 2.093 . S
O542 C534 1.224 . S
H543 C575 0.929 . S
H544 C577 0.930 . S
H545 C578 0.930 . S
H546 C576 0.929 . S
H547 C579 0.928 . S
O548 Co532 2.057 . S
O548 C536 1.232 . S
H549 C568 0.929 . S
H550 C569 0.929 . S
H551 C581 0.931 . S
H552 C573 0.929 . S
H553 C582 0.930 . S
H554 C574 0.931 . S
O555 Co531 2.097 . S
O555 C583 1.214 . S
H556 C584 0.929 . S
H557 C585 0.929 . S
H558 C586 0.930 . S
H559 C587 0.929 . S
H560 C589 0.930 . S
H561 C566 0.930 . S
H562 C570 0.930 . S
O563 Co532 2.037 . S
O563 C583 1.234 . S
C564 O538 1.269 . S
C564 O539 1.257 . S
C565 H540 0.930 . S
C565 C568 1.388 . S
C565 C570 1.418 . S
C566 H561 0.930 . S
C566 C569 1.404 . S
C566 C570 1.353 . S
N567 Co532 2.145 . S
N567 C568 1.397 . S
N567 C569 1.334 . S
C568 H549 0.929 . S
C568 C565 1.388 . S
C568 N567 1.397 . S
C569 H550 0.929 . S
C569 C566 1.404 . S
C569 N567 1.334 . S
C570 H562 0.930 . S
C570 C565 1.418 . S
C570 C566 1.353 . S
C571 H541 0.930 . S
C571 N572 1.330 . S
C571 C573 1.446 . S
N572 Co531 2.151 . S
N572 C571 1.330 . S
N572 C576 1.418 . S
C573 H552 0.929 . S
C573 C571 1.446 . S
C573 C574 1.332 . S
C574 H554 0.931 . S
C574 C573 1.332 . S
C574 C575 1.267 . S
C575 H543 0.929 . S
C575 C574 1.267 . S
C575 C576 1.251 . S
C576 H546 0.929 . S
C576 N572 1.418 . S
C576 C575 1.251 . S
C577 H544 0.930 . S
C577 C579 1.406 . S
C577 C582 1.261 . S
C578 H545 0.930 . S
C578 N580 1.325 . S
C578 C581 1.357 . S
C579 H547 0.928 . S
C579 C577 1.406 . S
C579 N580 1.261 . S
N580 Co531 2.214 . S
N580 C578 1.325 . S
N580 C579 1.261 . S
C581 H551 0.931 . S
C581 C578 1.357 . S
C581 C582 1.312 . S
C582 H553 0.930 . S
C582 C577 1.261 . S
C582 C581 1.312 . S
C583 O555 1.214 . S
C583 O563 1.234 . S
C584 H556 0.929 . S
C584 C587 1.391 . S
C584 C589 1.391 . S
C585 H557 0.929 . S
C585 C586 1.390 . S
C585 N588 1.391 . S
C586 H558 0.930 . S
C586 C585 1.390 . S
C586 C587 1.392 . S
C587 H559 0.929 . S
C587 C584 1.391 . S
C587 C586 1.392 . S
N588 Co532 2.257 . S
N588 C585 1.391 . S
N588 C589 1.388 . S
C589 H560 0.930 . S
C589 C584 1.391 . S
C589 N588 1.388 . S
Co590 O592 2.143 . S
Co590 O598 2.074 . S
Co590 O601 2.093 . S
Co590 O614 2.097 . S
Co590 N631 2.151 . S
Co590 N639 2.214 . S
Co591 O592 2.160 . S
Co591 O597 2.058 . S
Co591 O607 2.057 . S
Co591 O622 2.037 . S
Co591 N626 2.145 . S
Co591 N647 2.257 . S
O592 Co590 2.143 . S
O592 Co591 2.160 . S
C593 O594 1.278 . S
C593 O601 1.224 . S
O594 C593 1.278 . S
C595 O596 1.245 . S
C595 O607 1.232 . S
O596 C595 1.245 . S
O597 Co591 2.058 . S
O597 C623 1.269 . S
O598 Co590 2.074 . S
O598 C623 1.257 . S
H599 C624 0.930 . S
H600 C630 0.930 . S
O601 Co590 2.093 . S
O601 C593 1.224 . S
H602 C634 0.929 . S
H603 C636 0.930 . S
H604 C637 0.930 . S
H605 C635 0.929 . S
H606 C638 0.928 . S
O607 Co591 2.057 . S
O607 C595 1.232 . S
H608 C627 0.929 . S
H609 C628 0.929 . S
H610 C640 0.931 . S
H611 C632 0.929 . S
H612 C641 0.930 . S
H613 C633 0.931 . S
O614 Co590 2.097 . S
O614 C642 1.214 . S
H615 C643 0.929 . S
H616 C644 0.929 . S
H617 C645 0.930 . S
H618 C646 0.929 . S
H619 C648 0.930 . S
H620 C625 0.930 . S
H621 C629 0.930 . S
O622 Co591 2.037 . S
O622 C642 1.234 . S
C623 O597 1.269 . S
C623 O598 1.257 . S
C624 H599 0.930 . S
C624 C627 1.388 1_545 S
C624 C629 1.418 . S
C625 H620 0.930 . S
C625 C628 1.404 . S
C625 C629 1.353 . S
N626 Co591 2.145 . S
N626 C627 1.397 . S
N626 C628 1.334 1_565 S
C627 H608 0.929 . S
C627 C624 1.388 1_565 S
C627 N626 1.397 . S
C628 H609 0.929 . S
C628 C625 1.404 . S
C628 N626 1.334 1_545 S
C629 H621 0.930 . S
C629 C624 1.418 . S
C629 C625 1.353 . S
C630 H600 0.930 . S
C630 N631 1.330 . S
C630 C632 1.446 . S
N631 Co590 2.151 . S
N631 C630 1.330 . S
N631 C635 1.418 . S
C632 H611 0.929 . S
C632 C630 1.446 . S
C632 C633 1.332 . S
C633 H613 0.931 . S
C633 C632 1.332 . S
C633 C634 1.267 . S
C634 H602 0.929 . S
C634 C633 1.267 . S
C634 C635 1.251 . S
C635 H605 0.929 . S
C635 N631 1.418 . S
C635 C634 1.251 . S
C636 H603 0.930 . S
C636 C638 1.406 . S
C636 C641 1.261 . S
C637 H604 0.930 . S
C637 N639 1.325 . S
C637 C640 1.357 . S
C638 H606 0.928 . S
C638 C636 1.406 . S
C638 N639 1.261 . S
N639 Co590 2.214 . S
N639 C637 1.325 . S
N639 C638 1.261 . S
C640 H610 0.931 . S
C640 C637 1.357 . S
C640 C641 1.312 . S
C641 H612 0.930 . S
C641 C636 1.261 . S
C641 C640 1.312 . S
C642 O614 1.214 . S
C642 O622 1.234 . S
C643 H615 0.929 . S
C643 C646 1.391 . S
C643 C648 1.391 1_545 S
C644 H616 0.929 . S
C644 C645 1.390 . S
C644 N647 1.391 1_545 S
C645 H617 0.930 . S
C645 C644 1.390 . S
C645 C646 1.392 . S
C646 H618 0.929 . S
C646 C643 1.391 . S
C646 C645 1.392 . S
N647 Co591 2.257 . S
N647 C644 1.391 1_565 S
N647 C648 1.388 . S
C648 H619 0.930 . S
C648 C643 1.391 1_565 S
C648 N647 1.388 . S
Co649 O651 2.143 . S
Co649 O657 2.074 . S
Co649 O660 2.093 . S
Co649 O673 2.097 . S
Co649 N690 2.151 . S
Co649 N698 2.214 . S
Co650 O651 2.160 . S
Co650 O656 2.058 . S
Co650 O666 2.057 . S
Co650 O681 2.037 . S
Co650 N685 2.145 . S
Co650 N706 2.257 . S
O651 Co649 2.143 . S
O651 Co650 2.160 . S
C652 O653 1.278 . S
C652 O660 1.224 . S
O653 C652 1.278 . S
C654 O655 1.245 . S
C654 O666 1.232 . S
O655 C654 1.245 . S
O656 Co650 2.058 . S
O656 C682 1.269 . S
O657 Co649 2.074 . S
O657 C682 1.257 . S
H658 C683 0.930 . S
H659 C689 0.930 . S
O660 Co649 2.093 . S
O660 C652 1.224 . S
H661 C693 0.929 . S
H662 C695 0.930 . S
H663 C696 0.930 . S
H664 C694 0.929 . S
H665 C697 0.928 . S
O666 Co650 2.057 . S
O666 C654 1.232 . S
H667 C686 0.929 . S
H668 C687 0.929 . S
H669 C699 0.931 . S
H670 C691 0.929 . S
H671 C700 0.930 . S
H672 C692 0.931 . S
O673 Co649 2.097 . S
O673 C701 1.214 . S
H674 C702 0.929 . S
H675 C703 0.929 . S
H676 C704 0.930 . S
H677 C705 0.929 . S
H678 C707 0.930 . S
H679 C684 0.930 . S
H680 C688 0.930 . S
O681 Co650 2.037 . S
O681 C701 1.234 . S
C682 O656 1.269 . S
C682 O657 1.257 . S
C683 H658 0.930 . S
C683 C686 1.388 1_655 S
C683 C688 1.418 . S
C684 H679 0.930 . S
C684 C687 1.404 . S
C684 C688 1.353 . S
N685 Co650 2.145 . S
N685 C686 1.397 . S
N685 C687 1.334 1_455 S
C686 H667 0.929 . S
C686 C683 1.388 1_455 S
C686 N685 1.397 . S
C687 H668 0.929 . S
C687 C684 1.404 . S
C687 N685 1.334 1_655 S
C688 H680 0.930 . S
C688 C683 1.418 . S
C688 C684 1.353 . S
C689 H659 0.930 . S
C689 N690 1.330 . S
C689 C691 1.446 . S
N690 Co649 2.151 . S
N690 C689 1.330 . S
N690 C694 1.418 . S
C691 H670 0.929 . S
C691 C689 1.446 . S
C691 C692 1.332 . S
C692 H672 0.931 . S
C692 C691 1.332 . S
C692 C693 1.267 . S
C693 H661 0.929 . S
C693 C692 1.267 . S
C693 C694 1.251 . S
C694 H664 0.929 . S
C694 N690 1.418 . S
C694 C693 1.251 . S
C695 H662 0.930 . S
C695 C697 1.406 . S
C695 C700 1.261 . S
C696 H663 0.930 . S
C696 N698 1.325 . S
C696 C699 1.357 . S
C697 H665 0.928 . S
C697 C695 1.406 . S
C697 N698 1.261 . S
N698 Co649 2.214 . S
N698 C696 1.325 . S
N698 C697 1.261 . S
C699 H669 0.931 . S
C699 C696 1.357 . S
C699 C700 1.312 . S
C700 H671 0.930 . S
C700 C695 1.261 . S
C700 C699 1.312 . S
C701 O673 1.214 . S
C701 O681 1.234 . S
C702 H674 0.929 . S
C702 C705 1.391 . S
C702 C707 1.391 1_655 S
C703 H675 0.929 . S
C703 C704 1.390 . S
C703 N706 1.391 1_655 S
C704 H676 0.930 . S
C704 C703 1.390 . S
C704 C705 1.392 . S
C705 H677 0.929 . S
C705 C702 1.391 . S
C705 C704 1.392 . S
N706 Co650 2.257 . S
N706 C703 1.391 1_455 S
N706 C707 1.388 . S
C707 H678 0.930 . S
C707 C702 1.391 1_455 S
C707 N706 1.388 . S
Co708 O710 2.143 . S
Co708 O716 2.074 . S
Co708 O719 2.093 . S
Co708 O732 2.097 . S
Co708 N749 2.151 . S
Co708 N757 2.214 . S
Co709 O710 2.160 . S
Co709 O715 2.058 . S
Co709 O725 2.057 . S
Co709 O740 2.037 . S
Co709 N744 2.145 . S
Co709 N765 2.257 . S
O710 Co708 2.143 . S
O710 Co709 2.160 . S
C711 O712 1.278 . S
C711 O719 1.224 . S
O712 C711 1.278 . S
C713 O714 1.245 . S
C713 O725 1.232 . S
O714 C713 1.245 . S
O715 Co709 2.058 . S
O715 C741 1.269 . S
O716 Co708 2.074 . S
O716 C741 1.257 . S
H717 C742 0.930 . S
H718 C748 0.930 . S
O719 Co708 2.093 . S
O719 C711 1.224 . S
H720 C752 0.929 . S
H721 C754 0.930 . S
H722 C755 0.930 . S
H723 C753 0.929 . S
H724 C756 0.928 . S
O725 Co709 2.057 . S
O725 C713 1.232 . S
H726 C745 0.929 . S
H727 C746 0.929 . S
H728 C758 0.931 . S
H729 C750 0.929 . S
H730 C759 0.930 . S
H731 C751 0.931 . S
O732 Co708 2.097 . S
O732 C760 1.214 . S
H733 C761 0.929 . S
H734 C762 0.929 . S
H735 C763 0.930 . S
H736 C764 0.929 . S
H737 C766 0.930 . S
H738 C743 0.930 . S
H739 C747 0.930 . S
O740 Co709 2.037 . S
O740 C760 1.234 . S
C741 O715 1.269 . S
C741 O716 1.257 . S
C742 H717 0.930 . S
C742 C745 1.388 1_545 S
C742 C747 1.418 . S
C743 H738 0.930 . S
C743 C746 1.404 . S
C743 C747 1.353 . S
N744 Co709 2.145 . S
N744 C745 1.397 . S
N744 C746 1.334 1_565 S
C745 H726 0.929 . S
C745 C742 1.388 1_565 S
C745 N744 1.397 . S
C746 H727 0.929 . S
C746 C743 1.404 . S
C746 N744 1.334 1_545 S
C747 H739 0.930 . S
C747 C742 1.418 . S
C747 C743 1.353 . S
C748 H718 0.930 . S
C748 N749 1.330 . S
C748 C750 1.446 . S
N749 Co708 2.151 . S
N749 C748 1.330 . S
N749 C753 1.418 . S
C750 H729 0.929 . S
C750 C748 1.446 . S
C750 C751 1.332 . S
C751 H731 0.931 . S
C751 C750 1.332 . S
C751 C752 1.267 . S
C752 H720 0.929 . S
C752 C751 1.267 . S
C752 C753 1.251 . S
C753 H723 0.929 . S
C753 N749 1.418 . S
C753 C752 1.251 . S
C754 H721 0.930 . S
C754 C756 1.406 . S
C754 C759 1.261 . S
C755 H722 0.930 . S
C755 N757 1.325 . S
C755 C758 1.357 . S
C756 H724 0.928 . S
C756 C754 1.406 . S
C756 N757 1.261 . S
N757 Co708 2.214 . S
N757 C755 1.325 . S
N757 C756 1.261 . S
C758 H728 0.931 . S
C758 C755 1.357 . S
C758 C759 1.312 . S
C759 H730 0.930 . S
C759 C754 1.261 . S
C759 C758 1.312 . S
C760 O732 1.214 . S
C760 O740 1.234 . S
C761 H733 0.929 . S
C761 C764 1.391 . S
C761 C766 1.391 1_545 S
C762 H734 0.929 . S
C762 C763 1.390 . S
C762 N765 1.391 1_545 S
C763 H735 0.930 . S
C763 C762 1.390 . S
C763 C764 1.392 . S
C764 H736 0.929 . S
C764 C761 1.391 . S
C764 C763 1.392 . S
N765 Co709 2.257 . S
N765 C762 1.391 1_565 S
N765 C766 1.388 . S
C766 H737 0.930 . S
C766 C761 1.391 1_565 S
C766 N765 1.388 . S
Co767 O769 2.143 . S
Co767 O775 2.074 . S
Co767 O778 2.093 . S
Co767 O791 2.097 . S
Co767 N808 2.151 . S
Co767 N816 2.214 . S
Co768 O769 2.160 . S
Co768 O774 2.058 . S
Co768 O784 2.057 . S
Co768 O799 2.037 . S
Co768 N803 2.145 . S
Co768 N824 2.257 . S
O769 Co767 2.143 . S
O769 Co768 2.160 . S
C770 O771 1.278 . S
C770 O778 1.224 . S
O771 C770 1.278 . S
C772 O773 1.245 . S
C772 O784 1.232 . S
O773 C772 1.245 . S
O774 Co768 2.058 . S
O774 C800 1.269 . S
O775 Co767 2.074 . S
O775 C800 1.257 . S
H776 C801 0.930 . S
H777 C807 0.930 . S
O778 Co767 2.093 . S
O778 C770 1.224 . S
H779 C811 0.929 . S
H780 C813 0.930 . S
H781 C814 0.930 . S
H782 C812 0.929 . S
H783 C815 0.928 . S
O784 Co768 2.057 . S
O784 C772 1.232 . S
H785 C804 0.929 . S
H786 C805 0.929 . S
H787 C817 0.931 . S
H788 C809 0.929 . S
H789 C818 0.930 . S
H790 C810 0.931 . S
O791 Co767 2.097 . S
O791 C819 1.214 . S
H792 C820 0.929 . S
H793 C821 0.929 . S
H794 C822 0.930 . S
H795 C823 0.929 . S
H796 C825 0.930 . S
H797 C802 0.930 . S
H798 C806 0.930 . S
O799 Co768 2.037 . S
O799 C819 1.234 . S
C800 O774 1.269 . S
C800 O775 1.257 . S
C801 H776 0.930 . S
C801 C804 1.388 1_655 S
C801 C806 1.418 . S
C802 H797 0.930 . S
C802 C805 1.404 . S
C802 C806 1.353 . S
N803 Co768 2.145 . S
N803 C804 1.397 . S
N803 C805 1.334 1_455 S
C804 H785 0.929 . S
C804 C801 1.388 1_455 S
C804 N803 1.397 . S
C805 H786 0.929 . S
C805 C802 1.404 . S
C805 N803 1.334 1_655 S
C806 H798 0.930 . S
C806 C801 1.418 . S
C806 C802 1.353 . S
C807 H777 0.930 . S
C807 N808 1.330 . S
C807 C809 1.446 . S
N808 Co767 2.151 . S
N808 C807 1.330 . S
N808 C812 1.418 . S
C809 H788 0.929 . S
C809 C807 1.446 . S
C809 C810 1.332 . S
C810 H790 0.931 . S
C810 C809 1.332 . S
C810 C811 1.267 . S
C811 H779 0.929 . S
C811 C810 1.267 . S
C811 C812 1.251 . S
C812 H782 0.929 . S
C812 N808 1.418 . S
C812 C811 1.251 . S
C813 H780 0.930 . S
C813 C815 1.406 . S
C813 C818 1.261 . S
C814 H781 0.930 . S
C814 N816 1.325 . S
C814 C817 1.357 . S
C815 H783 0.928 . S
C815 C813 1.406 . S
C815 N816 1.261 . S
N816 Co767 2.214 . S
N816 C814 1.325 . S
N816 C815 1.261 . S
C817 H787 0.931 . S
C817 C814 1.357 . S
C817 C818 1.312 . S
C818 H789 0.930 . S
C818 C813 1.261 . S
C818 C817 1.312 . S
C819 O791 1.214 . S
C819 O799 1.234 . S
C820 H792 0.929 . S
C820 C823 1.391 . S
C820 C825 1.391 1_655 S
C821 H793 0.929 . S
C821 C822 1.390 . S
C821 N824 1.391 1_655 S
C822 H794 0.930 . S
C822 C821 1.390 . S
C822 C823 1.392 . S
C823 H795 0.929 . S
C823 C820 1.391 . S
C823 C822 1.392 . S
N824 Co768 2.257 . S
N824 C821 1.391 1_455 S
N824 C825 1.388 . S
C825 H796 0.930 . S
C825 C820 1.391 1_455 S
C825 N824 1.388 . S
Co826 O828 2.143 . S
Co826 O834 2.074 . S
Co826 O837 2.093 . S
Co826 O850 2.097 . S
Co826 N867 2.151 . S
Co826 N875 2.214 . S
Co827 O828 2.160 . S
Co827 O833 2.058 . S
Co827 O843 2.057 . S
Co827 O858 2.037 . S
Co827 N862 2.145 . S
Co827 N883 2.257 . S
O828 Co826 2.143 . S
O828 Co827 2.160 . S
C829 O830 1.278 . S
C829 O837 1.224 . S
O830 C829 1.278 . S
C831 O832 1.245 . S
C831 O843 1.232 . S
O832 C831 1.245 . S
O833 Co827 2.058 . S
O833 C859 1.269 . S
O834 Co826 2.074 . S
O834 C859 1.257 . S
H835 C860 0.930 . S
H836 C866 0.930 . S
O837 Co826 2.093 . S
O837 C829 1.224 . S
H838 C870 0.929 . S
H839 C872 0.930 . S
H840 C873 0.930 . S
H841 C871 0.929 . S
H842 C874 0.928 . S
O843 Co827 2.057 . S
O843 C831 1.232 . S
H844 C863 0.929 . S
H845 C864 0.929 . S
H846 C876 0.931 . S
H847 C868 0.929 . S
H848 C877 0.930 . S
H849 C869 0.931 . S
O850 Co826 2.097 . S
O850 C878 1.214 . S
H851 C879 0.929 . S
H852 C880 0.929 . S
H853 C881 0.930 . S
H854 C882 0.929 . S
H855 C884 0.930 . S
H856 C861 0.930 . S
H857 C865 0.930 . S
O858 Co827 2.037 . S
O858 C878 1.234 . S
C859 O833 1.269 . S
C859 O834 1.257 . S
C860 H835 0.930 . S
C860 C863 1.388 . S
C860 C865 1.418 . S
C861 H856 0.930 . S
C861 C864 1.404 . S
C861 C865 1.353 . S
N862 Co827 2.145 . S
N862 C863 1.397 . S
N862 C864 1.334 . S
C863 H844 0.929 . S
C863 C860 1.388 . S
C863 N862 1.397 . S
C864 H845 0.929 . S
C864 C861 1.404 . S
C864 N862 1.334 . S
C865 H857 0.930 . S
C865 C860 1.418 . S
C865 C861 1.353 . S
C866 H836 0.930 . S
C866 N867 1.330 . S
C866 C868 1.446 . S
N867 Co826 2.151 . S
N867 C866 1.330 . S
N867 C871 1.418 . S
C868 H847 0.929 . S
C868 C866 1.446 . S
C868 C869 1.332 . S
C869 H849 0.931 . S
C869 C868 1.332 . S
C869 C870 1.267 . S
C870 H838 0.929 . S
C870 C869 1.267 . S
C870 C871 1.251 . S
C871 H841 0.929 . S
C871 N867 1.418 . S
C871 C870 1.251 . S
C872 H839 0.930 . S
C872 C874 1.406 . S
C872 C877 1.261 . S
C873 H840 0.930 . S
C873 N875 1.325 . S
C873 C876 1.357 . S
C874 H842 0.928 . S
C874 C872 1.406 . S
C874 N875 1.261 . S
N875 Co826 2.214 . S
N875 C873 1.325 . S
N875 C874 1.261 . S
C876 H846 0.931 . S
C876 C873 1.357 . S
C876 C877 1.312 . S
C877 H848 0.930 . S
C877 C872 1.261 . S
C877 C876 1.312 . S
C878 O850 1.214 . S
C878 O858 1.234 . S
C879 H851 0.929 . S
C879 C882 1.391 . S
C879 C884 1.391 . S
C880 H852 0.929 . S
C880 C881 1.390 . S
C880 N883 1.391 . S
C881 H853 0.930 . S
C881 C880 1.390 . S
C881 C882 1.392 . S
C882 H854 0.929 . S
C882 C879 1.391 . S
C882 C881 1.392 . S
N883 Co827 2.257 . S
N883 C880 1.391 . S
N883 C884 1.388 . S
C884 H855 0.930 . S
C884 C879 1.391 . S
C884 N883 1.388 . S
Co885 O887 2.143 . S
Co885 O893 2.074 . S
Co885 O896 2.093 . S
Co885 O909 2.097 . S
Co885 N926 2.151 . S
Co885 N934 2.214 . S
Co886 O887 2.160 . S
Co886 O892 2.058 . S
Co886 O902 2.057 . S
Co886 O917 2.037 . S
Co886 N921 2.145 . S
Co886 N942 2.257 . S
O887 Co885 2.143 . S
O887 Co886 2.160 . S
C888 O889 1.278 . S
C888 O896 1.224 . S
O889 C888 1.278 . S
C890 O891 1.245 . S
C890 O902 1.232 . S
O891 C890 1.245 . S
O892 Co886 2.058 . S
O892 C918 1.269 . S
O893 Co885 2.074 . S
O893 C918 1.257 . S
H894 C919 0.930 . S
H895 C925 0.930 . S
O896 Co885 2.093 . S
O896 C888 1.224 . S
H897 C929 0.929 . S
H898 C931 0.930 . S
H899 C932 0.930 . S
H900 C930 0.929 . S
H901 C933 0.928 . S
O902 Co886 2.057 . S
O902 C890 1.232 . S
H903 C922 0.929 . S
H904 C923 0.929 . S
H905 C935 0.931 . S
H906 C927 0.929 . S
H907 C936 0.930 . S
H908 C928 0.931 . S
O909 Co885 2.097 . S
O909 C937 1.214 . S
H910 C938 0.929 . S
H911 C939 0.929 . S
H912 C940 0.930 . S
H913 C941 0.929 . S
H914 C943 0.930 . S
H915 C920 0.930 . S
H916 C924 0.930 . S
O917 Co886 2.037 . S
O917 C937 1.234 . S
C918 O892 1.269 . S
C918 O893 1.257 . S
C919 H894 0.930 . S
C919 C922 1.388 . S
C919 C924 1.418 . S
C920 H915 0.930 . S
C920 C923 1.404 . S
C920 C924 1.353 . S
N921 Co886 2.145 . S
N921 C922 1.397 . S
N921 C923 1.334 . S
C922 H903 0.929 . S
C922 C919 1.388 . S
C922 N921 1.397 . S
C923 H904 0.929 . S
C923 C920 1.404 . S
C923 N921 1.334 . S
C924 H916 0.930 . S
C924 C919 1.418 . S
C924 C920 1.353 . S
C925 H895 0.930 . S
C925 N926 1.330 . S
C925 C927 1.446 . S
N926 Co885 2.151 . S
N926 C925 1.330 . S
N926 C930 1.418 . S
C927 H906 0.929 . S
C927 C925 1.446 . S
C927 C928 1.332 . S
C928 H908 0.931 . S
C928 C927 1.332 . S
C928 C929 1.267 . S
C929 H897 0.929 . S
C929 C928 1.267 . S
C929 C930 1.251 . S
C930 H900 0.929 . S
C930 N926 1.418 . S
C930 C929 1.251 . S
C931 H898 0.930 . S
C931 C933 1.406 . S
C931 C936 1.261 . S
C932 H899 0.930 . S
C932 N934 1.325 . S
C932 C935 1.357 . S
C933 H901 0.928 . S
C933 C931 1.406 . S
C933 N934 1.261 . S
N934 Co885 2.214 . S
N934 C932 1.325 . S
N934 C933 1.261 . S
C935 H905 0.931 . S
C935 C932 1.357 . S
C935 C936 1.312 . S
C936 H907 0.930 . S
C936 C931 1.261 . S
C936 C935 1.312 . S
C937 O909 1.214 . S
C937 O917 1.234 . S
C938 H910 0.929 . S
C938 C941 1.391 . S
C938 C943 1.391 . S
C939 H911 0.929 . S
C939 C940 1.390 . S
C939 N942 1.391 . S
C940 H912 0.930 . S
C940 C939 1.390 . S
C940 C941 1.392 . S
C941 H913 0.929 . S
C941 C938 1.391 . S
C941 C940 1.392 . S
N942 Co886 2.257 . S
N942 C939 1.391 . S
N942 C943 1.388 . S
C943 H914 0.930 . S
C943 C938 1.391 . S
C943 N942 1.388 . S
H944 C952 0.950 . S
H945 C957 0.950 . S
H946 C954 0.950 . S
H947 C956 0.963 . S
H948 C958 0.950 . S
H949 C960 0.950 . S
H950 C962 0.963 . S
H951 C963 0.950 . S
C952 H944 0.950 . S
C952 C953 1.386 . S
C952 C954 1.391 1_565 S
C953 C952 1.386 . S
C953 C957 1.393 . S
C954 H946 0.950 . S
C954 C952 1.391 1_545 S
C954 C955 1.400 1_545 S
C955 C954 1.400 1_565 S
C955 C956 1.398 . S
C955 C961 1.491 1_665 S
C956 H947 0.963 . S
C956 C955 1.398 . S
C956 C957 1.391 . S
C957 H945 0.950 . S
C957 C953 1.393 . S
C957 C956 1.391 . S
C958 H948 0.950 . S
C958 C959 1.386 . S
C958 C960 1.391 1_545 S
C959 C958 1.386 . S
C959 C963 1.393 . S
C960 H949 0.950 . S
C960 C958 1.391 1_565 S
C960 C961 1.400 1_565 S
C961 C955 1.491 1_445 S
C961 C960 1.400 1_545 S
C961 C962 1.398 . S
C962 H950 0.963 . S
C962 C961 1.398 . S
C962 C963 1.391 . S
C963 H951 0.950 . S
C963 C959 1.393 . S
C963 C962 1.391 . S
H964 C972 0.950 . S
H965 C977 0.950 . S
H966 C974 0.950 . S
H967 C976 0.950 . S
H968 C978 0.950 . S
H969 C980 0.950 . S
H970 C982 0.950 . S
H971 C983 0.950 . S
C972 H964 0.950 . S
C972 C973 1.386 . S
C972 C974 1.391 1_655 S
C973 C972 1.386 . S
C973 C977 1.393 . S
C974 H966 0.950 . S
C974 C972 1.391 1_455 S
C974 C975 1.400 1_455 S
C975 C974 1.400 1_655 S
C975 C976 1.398 . S
C975 C981 1.491 1_655 S
C976 H967 0.950 . S
C976 C975 1.398 . S
C976 C977 1.391 . S
C977 H965 0.950 . S
C977 C973 1.393 . S
C977 C976 1.391 . S
C978 H968 0.950 . S
C978 C979 1.386 . S
C978 C980 1.391 1_455 S
C979 C978 1.386 . S
C979 C983 1.393 . S
C980 H969 0.950 . S
C980 C978 1.391 1_655 S
C980 C981 1.400 1_655 S
C981 C975 1.491 1_455 S
C981 C980 1.400 1_455 S
C981 C982 1.398 . S
C982 H970 0.950 . S
C982 C981 1.398 . S
C982 C983 1.391 . S
C983 H971 0.950 . S
C983 C979 1.393 . S
C983 C982 1.391 . S
H984 C992 0.950 . S
H985 C997 0.950 . S
H986 C994 0.950 . S
H987 C996 0.950 . S
H988 C998 0.950 . S
H989 C1000 0.950 . S
H990 C1002 0.950 . S
H991 C1003 0.950 . S
C992 H984 0.950 . S
C992 C993 1.386 . S
C992 C994 1.391 . S
C993 C992 1.386 . S
C993 C997 1.393 . S
C994 H986 0.950 . S
C994 C992 1.391 . S
C994 C995 1.400 . S
C995 C994 1.400 . S
C995 C996 1.398 . S
C995 C1001 1.491 . S
C996 H987 0.950 . S
C996 C995 1.398 . S
C996 C997 1.391 . S
C997 H985 0.950 . S
C997 C993 1.393 . S
C997 C996 1.391 . S
C998 H988 0.950 . S
C998 C999 1.386 . S
C998 C1000 1.391 . S
C999 C998 1.386 . S
C999 C1003 1.393 . S
C1000 H989 0.950 . S
C1000 C998 1.391 . S
C1000 C1001 1.400 . S
C1001 C995 1.491 . S
C1001 C1000 1.400 . S
C1001 C1002 1.398 . S
C1002 H990 0.950 . S
C1002 C1001 1.398 . S
C1002 C1003 1.391 . S
C1003 H991 0.950 . S
C1003 C999 1.393 . S
C1003 C1002 1.391 . S
H1004 C1012 0.950 . S
H1005 C1017 0.950 . S
H1006 C1014 0.950 . S
H1007 C1016 0.950 . S
H1008 C1018 0.950 . S
H1009 C1020 0.950 . S
H1010 C1022 0.950 . S
H1011 C1023 0.950 . S
C1012 H1004 0.950 . S
C1012 C1013 1.386 . S
C1012 C1014 1.391 . S
C1013 C1012 1.386 . S
C1013 C1017 1.393 . S
C1014 H1006 0.950 . S
C1014 C1012 1.391 . S
C1014 C1015 1.400 . S
C1015 C1014 1.400 . S
C1015 C1016 1.398 . S
C1015 C1021 1.491 1_545 S
C1016 H1007 0.950 . S
C1016 C1015 1.398 . S
C1016 C1017 1.391 . S
C1017 H1005 0.950 . S
C1017 C1013 1.393 . S
C1017 C1016 1.391 . S
C1018 H1008 0.950 . S
C1018 C1019 1.386 . S
C1018 C1020 1.391 . S
C1019 C1018 1.386 . S
C1019 C1023 1.393 . S
C1020 H1009 0.950 . S
C1020 C1018 1.391 . S
C1020 C1021 1.400 . S
C1021 C1015 1.491 1_565 S
C1021 C1020 1.400 . S
C1021 C1022 1.398 . S
C1022 H1010 0.950 . S
C1022 C1021 1.398 . S
C1022 C1023 1.391 . S
C1023 H1011 0.950 . S
C1023 C1019 1.393 . S
C1023 C1022 1.391 . S
H1024 C1032 0.950 . S
H1025 C1037 0.950 . S
H1026 C1034 0.950 . S
H1027 C1036 0.950 . S
H1028 C1038 0.950 . S
H1029 C1040 0.950 . S
H1030 C1042 0.950 . S
H1031 C1043 0.950 . S
C1032 H1024 0.950 . S
C1032 C1033 1.386 . S
C1032 C1034 1.391 . S
C1033 C1032 1.386 . S
C1033 C1037 1.393 . S
C1034 H1026 0.950 . S
C1034 C1032 1.391 . S
C1034 C1035 1.400 . S
C1035 C1034 1.400 . S
C1035 C1036 1.398 . S
C1035 C1041 1.491 1_455 S
C1036 H1027 0.950 . S
C1036 C1035 1.398 . S
C1036 C1037 1.391 . S
C1037 H1025 0.950 . S
C1037 C1033 1.393 . S
C1037 C1036 1.391 . S
C1038 H1028 0.950 . S
C1038 C1039 1.386 . S
C1038 C1040 1.391 . S
C1039 C1038 1.386 . S
C1039 C1043 1.393 . S
C1040 H1029 0.950 . S
C1040 C1038 1.391 . S
C1040 C1041 1.400 . S
C1041 C1035 1.491 1_655 S
C1041 C1040 1.400 . S
C1041 C1042 1.398 . S
C1042 H1030 0.950 . S
C1042 C1041 1.398 . S
C1042 C1043 1.391 . S
C1043 H1031 0.950 . S
C1043 C1039 1.393 . S
C1043 C1042 1.391 . S
H1044 C1052 0.950 . S
H1045 C1057 0.950 . S
H1046 C1054 0.950 . S
H1047 C1056 0.950 . S
H1048 C1058 0.950 . S
H1049 C1060 0.950 . S
H1050 C1062 0.950 . S
H1051 C1063 0.950 . S
C1052 H1044 0.950 . S
C1052 C1053 1.386 . S
C1052 C1054 1.391 . S
C1053 C1052 1.386 . S
C1053 C1057 1.393 . S
C1054 H1046 0.950 . S
C1054 C1052 1.391 . S
C1054 C1055 1.400 . S
C1055 C1054 1.400 . S
C1055 C1056 1.398 . S
C1055 C1061 1.491 . S
C1056 H1047 0.950 . S
C1056 C1055 1.398 . S
C1056 C1057 1.391 . S
C1057 H1045 0.950 . S
C1057 C1053 1.393 . S
C1057 C1056 1.391 . S
C1058 H1048 0.950 . S
C1058 C1059 1.386 . S
C1058 C1060 1.391 . S
C1059 C1058 1.386 . S
C1059 C1063 1.393 . S
C1060 H1049 0.950 . S
C1060 C1058 1.391 . S
C1060 C1061 1.400 . S
C1061 C1055 1.491 . S
C1061 C1060 1.400 . S
C1061 C1062 1.398 . S
C1062 H1050 0.950 . S
C1062 C1061 1.398 . S
C1062 C1063 1.391 . S
C1063 H1051 0.950 . S
C1063 C1059 1.393 . S
C1063 C1062 1.391 . S
H1064 C1072 0.950 1_565 S
H1065 C1077 0.950 . S
H1066 C1074 0.950 . S
H1067 C1076 0.950 . S
H1068 C1078 0.950 1_545 S
H1069 C1080 0.950 . S
H1070 C1082 0.950 . S
H1071 C1083 0.950 . S
C1072 H1064 0.950 1_545 S
C1072 C1073 1.386 . S
C1072 C1074 1.391 1_545 S
C1073 C1072 1.386 . S
C1073 C1077 1.393 . S
C1074 H1066 0.950 . S
C1074 C1072 1.391 1_565 S
C1074 C1075 1.400 1_565 S
C1075 C1074 1.400 1_545 S
C1075 C1076 1.398 . S
C1075 C1081 1.491 1_545 S
C1076 H1067 0.950 . S
C1076 C1075 1.398 . S
C1076 C1077 1.391 . S
C1077 H1065 0.950 . S
C1077 C1073 1.393 . S
C1077 C1076 1.391 . S
C1078 H1068 0.950 1_565 S
C1078 C1079 1.386 . S
C1078 C1080 1.391 1_565 S
C1079 C1078 1.386 . S
C1079 C1083 1.393 . S
C1080 H1069 0.950 . S
C1080 C1078 1.391 1_545 S
C1080 C1081 1.400 1_545 S
C1081 C1075 1.491 1_565 S
C1081 C1080 1.400 1_565 S
C1081 C1082 1.398 . S
C1082 H1070 0.950 . S
C1082 C1081 1.398 . S
C1082 C1083 1.391 . S
C1083 H1071 0.950 . S
C1083 C1079 1.393 . S
C1083 C1082 1.391 . S
H1084 C1092 0.950 . S
H1085 C1097 0.950 1_655 S
H1086 C1094 0.950 . S
H1087 C1096 0.950 . S
H1088 C1098 0.950 . S
H1089 C1100 0.950 . S
H1090 C1102 0.950 . S
H1091 C1103 0.950 1_455 S
C1092 H1084 0.950 . S
C1092 C1093 1.386 . S
C1092 C1094 1.391 . S
C1093 C1092 1.386 . S
C1093 C1097 1.393 . S
C1094 H1086 0.950 . S
C1094 C1092 1.391 . S
C1094 C1095 1.400 . S
C1095 C1094 1.400 . S
C1095 C1096 1.398 1_455 S
C1095 C1101 1.491 1_445 S
C1096 H1087 0.950 . S
C1096 C1095 1.398 1_655 S
C1096 C1097 1.391 1_655 S
C1097 H1085 0.950 1_455 S
C1097 C1093 1.393 . S
C1097 C1096 1.391 1_455 S
C1098 H1088 0.950 . S
C1098 C1099 1.386 . S
C1098 C1100 1.391 . S
C1099 C1098 1.386 . S
C1099 C1103 1.393 . S
C1100 H1089 0.950 . S
C1100 C1098 1.391 . S
C1100 C1101 1.400 . S
C1101 C1095 1.491 1_665 S
C1101 C1100 1.400 . S
C1101 C1102 1.398 1_655 S
C1102 H1090 0.950 . S
C1102 C1101 1.398 1_455 S
C1102 C1103 1.391 1_455 S
C1103 H1091 0.950 1_655 S
C1103 C1099 1.393 . S
C1103 C1102 1.391 1_655 S
H1104 C1112 0.950 . S
H1105 C1117 0.950 . S
H1106 C1114 0.950 . S
H1107 C1116 0.950 . S
H1108 C1118 0.950 . S
H1109 C1120 0.950 . S
H1110 C1122 0.950 . S
H1111 C1123 0.950 . S
C1112 H1104 0.950 . S
C1112 C1113 1.386 . S
C1112 C1114 1.391 1_565 S
C1113 C1112 1.386 . S
C1113 C1117 1.393 . S
C1114 H1106 0.950 . S
C1114 C1112 1.391 1_545 S
C1114 C1115 1.400 1_545 S
C1115 C1114 1.400 1_565 S
C1115 C1116 1.398 . S
C1115 C1121 1.491 1_565 S
C1116 H1107 0.950 . S
C1116 C1115 1.398 . S
C1116 C1117 1.391 . S
C1117 H1105 0.950 . S
C1117 C1113 1.393 . S
C1117 C1116 1.391 . S
C1118 H1108 0.950 . S
C1118 C1119 1.386 . S
C1118 C1120 1.391 1_545 S
C1119 C1118 1.386 . S
C1119 C1123 1.393 . S
C1120 H1109 0.950 . S
C1120 C1118 1.391 1_565 S
C1120 C1121 1.400 1_565 S
C1121 C1115 1.491 1_545 S
C1121 C1120 1.400 1_545 S
C1121 C1122 1.398 . S
C1122 H1110 0.950 . S
C1122 C1121 1.398 . S
C1122 C1123 1.391 . S
C1123 H1111 0.950 . S
C1123 C1119 1.393 . S
C1123 C1122 1.391 . S
H1124 C1132 0.950 . S
H1125 C1137 0.950 . S
H1126 C1134 0.950 . S
H1127 C1136 0.950 . S
H1128 C1138 0.950 . S
H1129 C1140 0.950 . S
H1130 C1142 0.950 . S
H1131 C1143 0.950 . S
C1132 H1124 0.950 . S
C1132 C1133 1.386 . S
C1132 C1134 1.391 1_655 S
C1133 C1132 1.386 . S
C1133 C1137 1.393 . S
C1134 H1126 0.950 . S
C1134 C1132 1.391 1_455 S
C1134 C1135 1.400 1_455 S
C1135 C1134 1.400 1_655 S
C1135 C1136 1.398 . S
C1135 C1141 1.491 1_665 S
C1136 H1127 0.950 . S
C1136 C1135 1.398 . S
C1136 C1137 1.391 . S
C1137 H1125 0.950 . S
C1137 C1133 1.393 . S
C1137 C1136 1.391 . S
C1138 H1128 0.950 . S
C1138 C1139 1.386 . S
C1138 C1140 1.391 1_455 S
C1139 C1138 1.386 . S
C1139 C1143 1.393 . S
C1140 H1129 0.950 . S
C1140 C1138 1.391 1_655 S
C1140 C1141 1.400 1_655 S
C1141 C1135 1.491 1_445 S
C1141 C1140 1.400 1_455 S
C1141 C1142 1.398 . S
C1142 H1130 0.950 . S
C1142 C1141 1.398 . S
C1142 C1143 1.391 . S
C1143 H1131 0.950 . S
C1143 C1139 1.393 . S
C1143 C1142 1.391 . S
H1144 C1152 0.950 . S
H1145 C1157 0.950 . S
H1146 C1154 0.949 1_655 S
H1147 C1156 0.950 . S
H1148 C1158 0.950 . S
H1149 C1160 0.949 1_455 S
H1150 C1162 0.950 . S
H1151 C1163 0.950 . S
C1152 H1144 0.950 . S
C1152 C1153 1.386 . S
C1152 C1154 1.391 . S
C1153 C1152 1.386 . S
C1153 C1157 1.393 . S
C1154 H1146 0.949 1_455 S
C1154 C1152 1.391 . S
C1154 C1155 1.400 . S
C1155 C1154 1.400 . S
C1155 C1156 1.398 . S
C1155 C1161 1.491 1_455 S
C1156 H1147 0.950 . S
C1156 C1155 1.398 . S
C1156 C1157 1.391 . S
C1157 H1145 0.950 . S
C1157 C1153 1.393 . S
C1157 C1156 1.391 . S
C1158 H1148 0.950 . S
C1158 C1159 1.386 . S
C1158 C1160 1.391 . S
C1159 C1158 1.386 . S
C1159 C1163 1.393 . S
C1160 H1149 0.949 1_655 S
C1160 C1158 1.391 . S
C1160 C1161 1.400 . S
C1161 C1155 1.491 1_655 S
C1161 C1160 1.400 . S
C1161 C1162 1.398 . S
C1162 H1150 0.950 . S
C1162 C1161 1.398 . S
C1162 C1163 1.391 . S
C1163 H1151 0.950 . S
C1163 C1159 1.393 . S
C1163 C1162 1.391 . S
H1164 C1172 0.950 . S
H1165 C1177 0.950 . S
H1166 C1174 0.950 . S
H1167 C1176 0.950 . S
H1168 C1178 0.950 . S
H1169 C1180 0.950 . S
H1170 C1182 0.950 . S
H1171 C1183 0.950 . S
C1172 H1164 0.950 . S
C1172 C1173 1.386 . S
C1172 C1174 1.391 . S
C1173 C1172 1.386 . S
C1173 C1177 1.393 . S
C1174 H1166 0.950 . S
C1174 C1172 1.391 . S
C1174 C1175 1.400 . S
C1175 C1174 1.400 . S
C1175 C1176 1.398 . S
C1175 C1181 1.491 . S
C1176 H1167 0.950 . S
C1176 C1175 1.398 . S
C1176 C1177 1.391 . S
C1177 H1165 0.950 . S
C1177 C1173 1.393 . S
C1177 C1176 1.391 . S
C1178 H1168 0.950 . S
C1178 C1179 1.386 . S
C1178 C1180 1.391 . S
C1179 C1178 1.386 . S
C1179 C1183 1.393 . S
C1180 H1169 0.950 . S
C1180 C1178 1.391 . S
C1180 C1181 1.400 . S
C1181 C1175 1.491 . S
C1181 C1180 1.400 . S
C1181 C1182 1.398 . S
C1182 H1170 0.950 . S
C1182 C1181 1.398 . S
C1182 C1183 1.391 . S
C1183 H1171 0.950 . S
C1183 C1179 1.393 . S
C1183 C1182 1.391 . S
H1184 C1192 0.950 . S
H1185 C1197 0.950 . S
H1186 C1194 0.950 . S
H1187 C1196 0.950 . S
H1188 C1198 0.950 . S
H1189 C1200 0.950 . S
H1190 C1202 0.950 . S
H1191 C1203 0.950 . S
C1192 H1184 0.950 . S
C1192 C1193 1.386 . S
C1192 C1194 1.391 . S
C1193 C1192 1.386 . S
C1193 C1197 1.393 . S
C1194 H1186 0.950 . S
C1194 C1192 1.391 . S
C1194 C1195 1.400 . S
C1195 C1194 1.400 . S
C1195 C1196 1.398 . S
C1195 C1201 1.491 . S
C1196 H1187 0.950 . S
C1196 C1195 1.398 . S
C1196 C1197 1.391 . S
C1197 H1185 0.950 . S
C1197 C1193 1.393 . S
C1197 C1196 1.391 . S
C1198 H1188 0.950 . S
C1198 C1199 1.386 . S
C1198 C1200 1.391 . S
C1199 C1198 1.386 . S
C1199 C1203 1.393 . S
C1200 H1189 0.950 . S
C1200 C1198 1.391 . S
C1200 C1201 1.400 . S
C1201 C1195 1.491 . S
C1201 C1200 1.400 . S
C1201 C1202 1.398 . S
C1202 H1190 0.950 . S
C1202 C1201 1.398 . S
C1202 C1203 1.391 . S
C1203 H1191 0.950 . S
C1203 C1199 1.393 . S
C1203 C1202 1.391 . S
H1204 C1212 0.950 . S
H1205 C1217 0.950 . S
H1206 C1214 0.935 1_545 S
H1207 C1216 0.950 . S
H1208 C1218 0.950 . S
H1209 C1220 0.935 1_565 S
H1210 C1222 0.950 . S
H1211 C1223 0.950 . S
C1212 H1204 0.950 . S
C1212 C1213 1.386 . S
C1212 C1214 1.391 . S
C1213 C1212 1.386 . S
C1213 C1217 1.393 . S
C1214 H1206 0.935 1_565 S
C1214 C1212 1.391 . S
C1214 C1215 1.400 . S
C1215 C1214 1.400 . S
C1215 C1216 1.398 . S
C1215 C1221 1.491 1_565 S
C1216 H1207 0.950 . S
C1216 C1215 1.398 . S
C1216 C1217 1.391 . S
C1217 H1205 0.950 . S
C1217 C1213 1.393 . S
C1217 C1216 1.391 . S
C1218 H1208 0.950 . S
C1218 C1219 1.386 . S
C1218 C1220 1.391 . S
C1219 C1218 1.386 . S
C1219 C1223 1.393 . S
C1220 H1209 0.935 1_545 S
C1220 C1218 1.391 . S
C1220 C1221 1.400 . S
C1221 C1215 1.491 1_545 S
C1221 C1220 1.400 . S
C1221 C1222 1.398 . S
C1222 H1210 0.950 . S
C1222 C1221 1.398 . S
C1222 C1223 1.391 . S
C1223 H1211 0.950 . S
C1223 C1219 1.393 . S
C1223 C1222 1.391 . S
H1224 C1232 0.950 . S
H1225 C1237 0.950 . S
H1226 C1234 0.950 . S
H1227 C1236 0.950 . S
H1228 C1238 0.950 . S
H1229 C1240 0.950 . S
H1230 C1242 0.950 . S
H1231 C1243 0.950 . S
C1232 H1224 0.950 . S
C1232 C1233 1.386 . S
C1232 C1234 1.391 . S
C1233 C1232 1.386 . S
C1233 C1237 1.393 . S
C1234 H1226 0.950 . S
C1234 C1232 1.391 . S
C1234 C1235 1.400 . S
C1235 C1234 1.400 . S
C1235 C1236 1.398 . S
C1235 C1241 1.491 1_665 S
C1236 H1227 0.950 . S
C1236 C1235 1.398 . S
C1236 C1237 1.391 . S
C1237 H1225 0.950 . S
C1237 C1233 1.393 . S
C1237 C1236 1.391 . S
C1238 H1228 0.950 . S
C1238 C1239 1.386 . S
C1238 C1240 1.391 . S
C1239 C1238 1.386 . S
C1239 C1243 1.393 . S
C1240 H1229 0.950 . S
C1240 C1238 1.391 . S
C1240 C1241 1.400 . S
C1241 C1235 1.491 1_445 S
C1241 C1240 1.400 . S
C1241 C1242 1.398 . S
C1242 H1230 0.950 . S
C1242 C1241 1.398 . S
C1242 C1243 1.391 . S
C1243 H1231 0.950 . S
C1243 C1239 1.393 . S
C1243 C1242 1.391 . S
H1244 C1252 0.950 . S
H1245 C1257 0.950 . S
H1246 C1254 0.950 . S
H1247 C1256 0.950 . S
H1248 C1258 0.950 . S
H1249 C1260 0.950 . S
H1250 C1262 0.950 . S
H1251 C1263 0.950 . S
C1252 H1244 0.950 . S
C1252 C1253 1.386 . S
C1252 C1254 1.391 . S
C1253 C1252 1.386 . S
C1253 C1257 1.393 . S
C1254 H1246 0.950 . S
C1254 C1252 1.391 . S
C1254 C1255 1.400 . S
C1255 C1254 1.400 . S
C1255 C1256 1.398 . S
C1255 C1261 1.491 1_455 S
C1256 H1247 0.950 . S
C1256 C1255 1.398 . S
C1256 C1257 1.391 . S
C1257 H1245 0.950 . S
C1257 C1253 1.393 . S
C1257 C1256 1.391 . S
C1258 H1248 0.950 . S
C1258 C1259 1.386 . S
C1258 C1260 1.391 . S
C1259 C1258 1.386 . S
C1259 C1263 1.393 . S
C1260 H1249 0.950 . S
C1260 C1258 1.391 . S
C1260 C1261 1.400 . S
C1261 C1255 1.491 1_655 S
C1261 C1260 1.400 . S
C1261 C1262 1.398 . S
C1262 H1250 0.950 . S
C1262 C1261 1.398 . S
C1262 C1263 1.391 . S
C1263 H1251 0.950 . S
C1263 C1259 1.393 . S
C1263 C1262 1.391 . S
H1264 C1272 0.950 . S
H1265 C1277 0.950 . S
H1266 C1274 0.950 . S
H1267 C1276 0.950 . S
H1268 C1278 0.950 . S
H1269 C1280 0.950 . S
H1270 C1282 0.950 . S
H1271 C1283 0.950 . S
C1272 H1264 0.950 . S
C1272 C1273 1.386 . S
C1272 C1274 1.391 . S
C1273 C1272 1.386 . S
C1273 C1277 1.393 . S
C1274 H1266 0.950 . S
C1274 C1272 1.391 . S
C1274 C1275 1.400 . S
C1275 C1274 1.400 . S
C1275 C1276 1.398 . S
C1275 C1281 1.491 . S
C1276 H1267 0.950 . S
C1276 C1275 1.398 . S
C1276 C1277 1.391 . S
C1277 H1265 0.950 . S
C1277 C1273 1.393 . S
C1277 C1276 1.391 . S
C1278 H1268 0.950 . S
C1278 C1279 1.386 . S
C1278 C1280 1.391 . S
C1279 C1278 1.386 . S
C1279 C1283 1.393 . S
C1280 H1269 0.950 . S
C1280 C1278 1.391 . S
C1280 C1281 1.400 . S
C1281 C1275 1.491 . S
C1281 C1280 1.400 . S
C1281 C1282 1.398 . S
C1282 H1270 0.950 . S
C1282 C1281 1.398 . S
C1282 C1283 1.391 . S
C1283 H1271 0.950 . S
C1283 C1279 1.393 . S
C1283 C1282 1.391 . S
H1284 C1292 0.950 . S
H1285 C1297 0.950 . S
H1286 C1294 0.950 . S
H1287 C1296 0.950 . S
H1288 C1298 0.950 . S
H1289 C1300 0.950 . S
H1290 C1302 0.950 . S
H1291 C1303 0.950 . S
C1292 H1284 0.950 . S
C1292 C1293 1.386 . S
C1292 C1294 1.391 . S
C1293 C1292 1.386 . S
C1293 C1297 1.393 . S
C1294 H1286 0.950 . S
C1294 C1292 1.391 . S
C1294 C1295 1.400 . S
C1295 C1294 1.400 . S
C1295 C1296 1.398 . S
C1295 C1301 1.491 . S
C1296 H1287 0.950 . S
C1296 C1295 1.398 . S
C1296 C1297 1.391 . S
C1297 H1285 0.950 . S
C1297 C1293 1.393 . S
C1297 C1296 1.391 . S
C1298 H1288 0.950 . S
C1298 C1299 1.386 . S
C1298 C1300 1.391 . S
C1299 C1298 1.386 . S
C1299 C1303 1.393 . S
C1300 H1289 0.950 . S
C1300 C1298 1.391 . S
C1300 C1301 1.400 . S
C1301 C1295 1.491 . S
C1301 C1300 1.400 . S
C1301 C1302 1.398 . S
C1302 H1290 0.950 . S
C1302 C1301 1.398 . S
C1302 C1303 1.391 . S
C1303 H1291 0.950 . S
C1303 C1299 1.393 . S
C1303 C1302 1.391 . S
H1304 C1312 0.950 . S
H1305 C1317 0.950 . S
H1306 C1314 0.950 . S
H1307 C1316 0.950 . S
H1308 C1318 0.950 . S
H1309 C1320 0.950 . S
H1310 C1322 0.950 . S
H1311 C1323 0.950 . S
C1312 H1304 0.950 . S
C1312 C1313 1.386 . S
C1312 C1314 1.391 . S
C1313 C1312 1.386 . S
C1313 C1317 1.393 . S
C1314 H1306 0.950 . S
C1314 C1312 1.391 . S
C1314 C1315 1.400 . S
C1315 C1314 1.400 . S
C1315 C1316 1.398 . S
C1315 C1321 1.491 . S
C1316 H1307 0.950 . S
C1316 C1315 1.398 . S
C1316 C1317 1.391 . S
C1317 H1305 0.950 . S
C1317 C1313 1.393 . S
C1317 C1316 1.391 . S
C1318 H1308 0.950 . S
C1318 C1319 1.386 . S
C1318 C1320 1.391 . S
C1319 C1318 1.386 . S
C1319 C1323 1.393 . S
C1320 H1309 0.950 . S
C1320 C1318 1.391 . S
C1320 C1321 1.400 . S
C1321 C1315 1.491 . S
C1321 C1320 1.400 . S
C1321 C1322 1.398 . S
C1322 H1310 0.950 . S
C1322 C1321 1.398 . S
C1322 C1323 1.391 . S
C1323 H1311 0.950 . S
C1323 C1319 1.393 . S
C1323 C1322 1.391 . S
H1324 C1332 0.950 . S
H1325 C1337 0.950 . S
H1326 C1334 0.950 . S
H1327 C1336 0.950 . S
H1328 C1338 0.950 . S
H1329 C1340 0.950 . S
H1330 C1342 0.950 . S
H1331 C1343 0.950 . S
C1332 H1324 0.950 . S
C1332 C1333 1.386 . S
C1332 C1334 1.391 . S
C1333 C1332 1.386 . S
C1333 C1337 1.393 . S
C1334 H1326 0.950 . S
C1334 C1332 1.391 . S
C1334 C1335 1.400 . S
C1335 C1334 1.400 . S
C1335 C1336 1.398 . S
C1335 C1341 1.491 . S
C1336 H1327 0.950 . S
C1336 C1335 1.398 . S
C1336 C1337 1.391 . S
C1337 H1325 0.950 . S
C1337 C1333 1.393 . S
C1337 C1336 1.391 . S
C1338 H1328 0.950 . S
C1338 C1339 1.386 . S
C1338 C1340 1.391 . S
C1339 C1338 1.386 . S
C1339 C1343 1.393 . S
C1340 H1329 0.950 . S
C1340 C1338 1.391 . S
C1340 C1341 1.400 . S
C1341 C1335 1.491 . S
C1341 C1340 1.400 . S
C1341 C1342 1.398 . S
C1342 H1330 0.950 . S
C1342 C1341 1.398 . S
C1342 C1343 1.391 . S
C1343 H1331 0.950 . S
C1343 C1339 1.393 . S
C1343 C1342 1.391 . S
H1344 C1352 0.950 . S
H1345 C1357 0.950 . S
H1346 C1354 0.950 . S
H1347 C1356 0.950 . S
H1348 C1358 0.950 . S
H1349 C1360 0.950 . S
H1350 C1362 0.950 . S
H1351 C1363 0.950 . S
C1352 H1344 0.950 . S
C1352 C1353 1.386 . S
C1352 C1354 1.391 . S
C1353 C1352 1.386 . S
C1353 C1357 1.393 . S
C1354 H1346 0.950 . S
C1354 C1352 1.391 . S
C1354 C1355 1.400 . S
C1355 C1354 1.400 . S
C1355 C1356 1.398 . S
C1355 C1361 1.491 . S
C1356 H1347 0.950 . S
C1356 C1355 1.398 . S
C1356 C1357 1.391 . S
C1357 H1345 0.950 . S
C1357 C1353 1.393 . S
C1357 C1356 1.391 . S
C1358 H1348 0.950 . S
C1358 C1359 1.386 . S
C1358 C1360 1.391 . S
C1359 C1358 1.386 . S
C1359 C1363 1.393 . S
C1360 H1349 0.950 . S
C1360 C1358 1.391 . S
C1360 C1361 1.400 . S
C1361 C1355 1.491 . S
C1361 C1360 1.400 . S
C1361 C1362 1.398 . S
C1362 H1350 0.950 . S
C1362 C1361 1.398 . S
C1362 C1363 1.391 . S
C1363 H1351 0.950 . S
C1363 C1359 1.393 . S
C1363 C1362 1.391 . S
H1364 C1372 0.950 . S
H1365 C1377 0.950 . S
H1366 C1374 0.950 . S
H1367 C1376 0.950 . S
H1368 C1378 0.950 . S
H1369 C1380 0.950 . S
H1370 C1382 0.950 . S
H1371 C1383 0.950 . S
C1372 H1364 0.950 . S
C1372 C1373 1.386 . S
C1372 C1374 1.391 . S
C1373 C1372 1.386 . S
C1373 C1377 1.393 . S
C1374 H1366 0.950 . S
C1374 C1372 1.391 . S
C1374 C1375 1.400 . S
C1375 C1374 1.400 . S
C1375 C1376 1.398 . S
C1375 C1381 1.491 . S
C1376 H1367 0.950 . S
C1376 C1375 1.398 . S
C1376 C1377 1.391 . S
C1377 H1365 0.950 . S
C1377 C1373 1.393 . S
C1377 C1376 1.391 . S
C1378 H1368 0.950 . S
C1378 C1379 1.386 . S
C1378 C1380 1.391 . S
C1379 C1378 1.386 . S
C1379 C1383 1.393 . S
C1380 H1369 0.950 . S
C1380 C1378 1.391 . S
C1380 C1381 1.400 . S
C1381 C1375 1.491 . S
C1381 C1380 1.400 . S
C1381 C1382 1.398 . S
C1382 H1370 0.950 . S
C1382 C1381 1.398 . S
C1382 C1383 1.391 . S
C1383 H1371 0.950 . S
C1383 C1379 1.393 . S
C1383 C1382 1.391 . S
H1384 C1392 0.950 . S
H1385 C1397 0.950 . S
H1386 C1394 0.950 . S
H1387 C1396 0.950 . S
H1388 C1398 0.950 . S
H1389 C1400 0.950 . S
H1390 C1402 0.950 . S
H1391 C1403 0.950 . S
C1392 H1384 0.950 . S
C1392 C1393 1.386 . S
C1392 C1394 1.391 . S
C1393 C1392 1.386 . S
C1393 C1397 1.393 . S
C1394 H1386 0.950 . S
C1394 C1392 1.391 . S
C1394 C1395 1.400 . S
C1395 C1394 1.400 . S
C1395 C1396 1.398 . S
C1395 C1401 1.491 . S
C1396 H1387 0.950 . S
C1396 C1395 1.398 . S
C1396 C1397 1.391 . S
C1397 H1385 0.950 . S
C1397 C1393 1.393 . S
C1397 C1396 1.391 . S
C1398 H1388 0.950 . S
C1398 C1399 1.386 . S
C1398 C1400 1.391 . S
C1399 C1398 1.386 . S
C1399 C1403 1.393 . S
C1400 H1389 0.950 . S
C1400 C1398 1.391 . S
C1400 C1401 1.400 . S
C1401 C1395 1.491 . S
C1401 C1400 1.400 . S
C1401 C1402 1.398 . S
C1402 H1390 0.950 . S
C1402 C1401 1.398 . S
C1402 C1403 1.391 . S
C1403 H1391 0.950 . S
C1403 C1399 1.393 . S
C1403 C1402 1.391 . S
H1404 C1412 0.950 . S
H1405 C1417 0.950 . S
H1406 C1414 0.950 . S
H1407 C1416 0.950 . S
H1408 C1418 0.950 . S
H1409 C1420 0.950 . S
H1410 C1422 0.950 . S
H1411 C1423 0.950 . S
C1412 H1404 0.950 . S
C1412 C1413 1.386 . S
C1412 C1414 1.391 . S
C1413 C1412 1.386 . S
C1413 C1417 1.393 . S
C1414 H1406 0.950 . S
C1414 C1412 1.391 . S
C1414 C1415 1.400 . S
C1415 C1414 1.400 . S
C1415 C1416 1.398 . S
C1415 C1421 1.491 . S
C1416 H1407 0.950 . S
C1416 C1415 1.398 . S
C1416 C1417 1.391 . S
C1417 H1405 0.950 . S
C1417 C1413 1.393 . S
C1417 C1416 1.391 . S
C1418 H1408 0.950 . S
C1418 C1419 1.386 . S
C1418 C1420 1.391 . S
C1419 C1418 1.386 . S
C1419 C1423 1.393 . S
C1420 H1409 0.950 . S
C1420 C1418 1.391 . S
C1420 C1421 1.400 . S
C1421 C1415 1.491 . S
C1421 C1420 1.400 . S
C1421 C1422 1.398 . S
C1422 H1410 0.950 . S
C1422 C1421 1.398 . S
C1422 C1423 1.391 . S
C1423 H1411 0.950 . S
C1423 C1419 1.393 . S
C1423 C1422 1.391 . S
H1424 C1432 0.950 . S
H1425 C1437 0.950 . S
H1426 C1434 0.950 . S
H1427 C1436 0.950 . S
H1428 C1438 0.950 . S
H1429 C1440 0.950 . S
H1430 C1442 0.950 . S
H1431 C1443 0.950 . S
C1432 H1424 0.950 . S
C1432 C1433 1.386 . S
C1432 C1434 1.391 . S
C1433 C1432 1.386 . S
C1433 C1437 1.393 . S
C1434 H1426 0.950 . S
C1434 C1432 1.391 . S
C1434 C1435 1.400 . S
C1435 C1434 1.400 . S
C1435 C1436 1.398 . S
C1435 C1441 1.491 . S
C1436 H1427 0.950 . S
C1436 C1435 1.398 . S
C1436 C1437 1.391 . S
C1437 H1425 0.950 . S
C1437 C1433 1.393 . S
C1437 C1436 1.391 . S
C1438 H1428 0.950 . S
C1438 C1439 1.386 . S
C1438 C1440 1.391 . S
C1439 C1438 1.386 . S
C1439 C1443 1.393 . S
C1440 H1429 0.950 . S
C1440 C1438 1.391 . S
C1440 C1441 1.400 . S
C1441 C1435 1.491 . S
C1441 C1440 1.400 . S
C1441 C1442 1.398 . S
C1442 H1430 0.950 . S
C1442 C1441 1.398 . S
C1442 C1443 1.391 . S
C1443 H1431 0.950 . S
C1443 C1439 1.393 . S
C1443 C1442 1.391 . S
H1444 C1452 0.950 . S
H1445 C1457 0.950 . S
H1446 C1454 0.950 . S
H1447 C1456 0.950 . S
H1448 C1458 0.950 . S
H1449 C1460 0.950 . S
H1450 C1462 0.950 . S
H1451 C1463 0.950 . S
C1452 H1444 0.950 . S
C1452 C1453 1.386 . S
C1452 C1454 1.391 . S
C1453 C1452 1.386 . S
C1453 C1457 1.393 . S
C1454 H1446 0.950 . S
C1454 C1452 1.391 . S
C1454 C1455 1.400 . S
C1455 C1454 1.400 . S
C1455 C1456 1.398 . S
C1455 C1461 1.491 . S
C1456 H1447 0.950 . S
C1456 C1455 1.398 . S
C1456 C1457 1.391 . S
C1457 H1445 0.950 . S
C1457 C1453 1.393 . S
C1457 C1456 1.391 . S
C1458 H1448 0.950 . S
C1458 C1459 1.386 . S
C1458 C1460 1.391 . S
C1459 C1458 1.386 . S
C1459 C1463 1.393 . S
C1460 H1449 0.950 . S
C1460 C1458 1.391 . S
C1460 C1461 1.400 . S
C1461 C1455 1.491 . S
C1461 C1460 1.400 . S
C1461 C1462 1.398 . S
C1462 H1450 0.950 . S
C1462 C1461 1.398 . S
C1462 C1463 1.391 . S
C1463 H1451 0.950 . S
C1463 C1459 1.393 . S
C1463 C1462 1.391 . S
H1464 C1472 0.950 . S
H1465 C1477 0.950 . S
H1466 C1474 0.950 . S
H1467 C1476 0.950 . S
H1468 C1478 0.950 . S
H1469 C1480 0.950 . S
H1470 C1482 0.950 . S
H1471 C1483 0.950 . S
C1472 H1464 0.950 . S
C1472 C1473 1.386 . S
C1472 C1474 1.391 . S
C1473 C1472 1.386 . S
C1473 C1477 1.393 . S
C1474 H1466 0.950 . S
C1474 C1472 1.391 . S
C1474 C1475 1.400 . S
C1475 C1474 1.400 . S
C1475 C1476 1.398 . S
C1475 C1481 1.491 . S
C1476 H1467 0.950 . S
C1476 C1475 1.398 . S
C1476 C1477 1.391 . S
C1477 H1465 0.950 . S
C1477 C1473 1.393 . S
C1477 C1476 1.391 . S
C1478 H1468 0.950 . S
C1478 C1479 1.386 . S
C1478 C1480 1.391 . S
C1479 C1478 1.386 . S
C1479 C1483 1.393 . S
C1480 H1469 0.950 . S
C1480 C1478 1.391 . S
C1480 C1481 1.400 . S
C1481 C1475 1.491 . S
C1481 C1480 1.400 . S
C1481 C1482 1.398 . S
C1482 H1470 0.950 . S
C1482 C1481 1.398 . S
C1482 C1483 1.391 . S
C1483 H1471 0.950 . S
C1483 C1479 1.393 . S
C1483 C1482 1.391 . S
H1484 C1492 0.950 . S
H1485 C1497 0.950 . S
H1486 C1494 0.950 . S
H1487 C1496 0.950 . S
H1488 C1498 0.950 . S
H1489 C1500 0.950 . S
H1490 C1502 0.950 . S
H1491 C1503 0.950 . S
C1492 H1484 0.950 . S
C1492 C1493 1.386 . S
C1492 C1494 1.391 . S
C1493 C1492 1.386 . S
C1493 C1497 1.393 . S
C1494 H1486 0.950 . S
C1494 C1492 1.391 . S
C1494 C1495 1.400 . S
C1495 C1494 1.400 . S
C1495 C1496 1.398 . S
C1495 C1501 1.491 1_556 S
C1496 H1487 0.950 . S
C1496 C1495 1.398 . S
C1496 C1497 1.391 . S
C1497 H1485 0.950 . S
C1497 C1493 1.393 . S
C1497 C1496 1.391 . S
C1498 H1488 0.950 . S
C1498 C1499 1.386 . S
C1498 C1500 1.391 . S
C1499 C1498 1.386 . S
C1499 C1503 1.393 . S
C1500 H1489 0.950 . S
C1500 C1498 1.391 . S
C1500 C1501 1.400 . S
C1501 C1495 1.491 1_554 S
C1501 C1500 1.400 . S
C1501 C1502 1.398 . S
C1502 H1490 0.950 . S
C1502 C1501 1.398 . S
C1502 C1503 1.391 . S
C1503 H1491 0.950 . S
C1503 C1499 1.393 . S
C1503 C1502 1.391 . S
H1504 C1512 0.950 . S
H1505 C1517 0.950 . S
H1506 C1514 0.950 . S
H1507 C1516 0.950 . S
H1508 C1518 0.950 . S
H1509 C1520 0.950 . S
H1510 C1522 0.950 . S
H1511 C1523 0.950 . S
C1512 H1504 0.950 . S
C1512 C1513 1.386 . S
C1512 C1514 1.391 . S
C1513 C1512 1.386 . S
C1513 C1517 1.393 . S
C1514 H1506 0.950 . S
C1514 C1512 1.391 . S
C1514 C1515 1.400 . S
C1515 C1514 1.400 . S
C1515 C1516 1.398 . S
C1515 C1521 1.491 1_554 S
C1516 H1507 0.950 . S
C1516 C1515 1.398 . S
C1516 C1517 1.391 . S
C1517 H1505 0.950 . S
C1517 C1513 1.393 . S
C1517 C1516 1.391 . S
C1518 H1508 0.950 . S
C1518 C1519 1.386 . S
C1518 C1520 1.391 . S
C1519 C1518 1.386 . S
C1519 C1523 1.393 . S
C1520 H1509 0.950 . S
C1520 C1518 1.391 . S
C1520 C1521 1.400 . S
C1521 C1515 1.491 1_556 S
C1521 C1520 1.400 . S
C1521 C1522 1.398 . S
C1522 H1510 0.950 . S
C1522 C1521 1.398 . S
C1522 C1523 1.391 . S
C1523 H1511 0.950 . S
C1523 C1519 1.393 . S
C1523 C1522 1.391 . S
H1524 C1532 0.950 . S
H1525 C1537 0.950 . S
H1526 C1534 0.950 . S
H1527 C1536 0.950 . S
H1528 C1538 0.950 . S
H1529 C1540 0.950 . S
H1530 C1542 0.950 . S
H1531 C1543 0.950 . S
C1532 H1524 0.950 . S
C1532 C1533 1.386 . S
C1532 C1534 1.391 . S
C1533 C1532 1.386 . S
C1533 C1537 1.393 . S
C1534 H1526 0.950 . S
C1534 C1532 1.391 . S
C1534 C1535 1.400 . S
C1535 C1534 1.400 . S
C1535 C1536 1.398 . S
C1535 C1541 1.491 . S
C1536 H1527 0.950 . S
C1536 C1535 1.398 . S
C1536 C1537 1.391 . S
C1537 H1525 0.950 . S
C1537 C1533 1.393 . S
C1537 C1536 1.391 . S
C1538 H1528 0.950 . S
C1538 C1539 1.386 . S
C1538 C1540 1.391 . S
C1539 C1538 1.386 . S
C1539 C1543 1.393 . S
C1540 H1529 0.950 . S
C1540 C1538 1.391 . S
C1540 C1541 1.400 . S
C1541 C1535 1.491 . S
C1541 C1540 1.400 . S
C1541 C1542 1.398 . S
C1542 H1530 0.950 . S
C1542 C1541 1.398 . S
C1542 C1543 1.391 . S
C1543 H1531 0.950 . S
C1543 C1539 1.393 . S
C1543 C1542 1.391 . S
H1544 C1552 0.950 . S
H1545 C1557 0.950 . S
H1546 C1554 0.950 . S
H1547 C1556 0.950 . S
H1548 C1558 0.950 . S
H1549 C1560 0.950 . S
H1550 C1562 0.950 . S
H1551 C1563 0.950 . S
C1552 H1544 0.950 . S
C1552 C1553 1.386 . S
C1552 C1554 1.391 . S
C1553 C1552 1.386 . S
C1553 C1557 1.393 . S
C1554 H1546 0.950 . S
C1554 C1552 1.391 . S
C1554 C1555 1.400 . S
C1555 C1554 1.400 . S
C1555 C1556 1.398 . S
C1555 C1561 1.491 . S
C1556 H1547 0.950 . S
C1556 C1555 1.398 . S
C1556 C1557 1.391 . S
C1557 H1545 0.950 . S
C1557 C1553 1.393 . S
C1557 C1556 1.391 . S
C1558 H1548 0.950 . S
C1558 C1559 1.386 . S
C1558 C1560 1.391 . S
C1559 C1558 1.386 . S
C1559 C1563 1.393 . S
C1560 H1549 0.950 . S
C1560 C1558 1.391 . S
C1560 C1561 1.400 . S
C1561 C1555 1.491 . S
C1561 C1560 1.400 . S
C1561 C1562 1.398 . S
C1562 H1550 0.950 . S
C1562 C1561 1.398 . S
C1562 C1563 1.391 . S
C1563 H1551 0.950 . S
C1563 C1559 1.393 . S
C1563 C1562 1.391 . S
H1564 C1572 0.950 . S
H1565 C1577 0.950 . S
H1566 C1574 0.950 . S
H1567 C1576 0.950 . S
H1568 C1578 0.950 . S
H1569 C1580 0.950 . S
H1570 C1582 0.950 . S
H1571 C1583 0.950 . S
C1572 H1564 0.950 . S
C1572 C1573 1.386 . S
C1572 C1574 1.391 . S
C1573 C1572 1.386 . S
C1573 C1577 1.393 . S
C1574 H1566 0.950 . S
C1574 C1572 1.391 . S
C1574 C1575 1.400 . S
C1575 C1574 1.400 . S
C1575 C1576 1.398 . S
C1575 C1581 1.491 . S
C1576 H1567 0.950 . S
C1576 C1575 1.398 . S
C1576 C1577 1.391 . S
C1577 H1565 0.950 . S
C1577 C1573 1.393 . S
C1577 C1576 1.391 . S
C1578 H1568 0.950 . S
C1578 C1579 1.386 . S
C1578 C1580 1.391 . S
C1579 C1578 1.386 . S
C1579 C1583 1.393 . S
C1580 H1569 0.950 . S
C1580 C1578 1.391 . S
C1580 C1581 1.400 . S
C1581 C1575 1.491 . S
C1581 C1580 1.400 . S
C1581 C1582 1.398 . S
C1582 H1570 0.950 . S
C1582 C1581 1.398 . S
C1582 C1583 1.391 . S
C1583 H1571 0.950 . S
C1583 C1579 1.393 . S
C1583 C1582 1.391 . S
C953 C595 1.450 . S
C959 C5 1.453 . S
C973 C64 1.445 . S
C979 C654 1.448 . S
C993 C477 1.450 . S
C999 C123 1.446 . S
C1013 C536 1.452 . S
C1019 C182 1.447 . S
C1033 C241 1.450 . S
C1039 C831 1.452 . S
C1053 C890 1.450 . S
C1059 C300 1.453 . S
C1073 C359 1.447 . S
C1079 C713 1.451 . S
C1093 C772 1.449 . S
C1099 C418 1.445 . S
C1113 C642 1.668 . S
C1119 C52 1.663 . S
C1133 C111 1.671 . S
C1139 C701 1.668 . S
C1153 C170 1.663 . S
C1159 C524 1.669 . S
C1173 C229 1.666 . S
C1179 C583 1.663 . S
C1193 C288 1.671 . S
C1199 C878 1.668 . S
C1213 C347 1.664 . S
C1219 C937 1.670 . S
C1233 C760 1.664 . S
C1239 C406 1.664 . S
C1253 C819 1.664 . S
C1259 C465 1.664 . S
C1273 C3 1.398 . S
C1279 C357 1.411 . S
C1293 C62 1.400 . S
C1299 C416 1.402 . S
C1313 C121 1.399 . S
C1319 C239 1.412 . S
C1333 C180 1.400 . S
C1339 C298 1.402 . S
C1353 C475 1.401 . S
C1359 C829 1.401 . S
C1373 C888 1.412 . S
C1379 C534 1.407 . S
C1393 C593 1.408 . S
C1399 C711 1.397 . S
C1413 C770 1.403 . S
C1419 C652 1.413 . S
C1433 C33 1.263 . S
C1439 C918 1.274 . S
C1453 C741 1.273 . S
C1459 C92 1.276 . S
C1473 C800 1.278 . S
C1479 C151 1.264 . S
C1493 C859 1.271 . S
C1499 C210 1.263 . S
C1513 C564 1.278 . S
C1519 C269 1.267 . S
C1533 C623 1.275 . S
C1539 C328 1.275 . S
C1553 C387 1.275 . S
C1559 C682 1.262 . S
C1573 C446 1.271 . S
C1579 C505 1.278 . S
