# Generated by pormake.
# Topology wjd, (6)-cn, num edge types: 1
# Building blocks:
#     Node 0, Type 0, BuildingBlock: CUKXOW_clean_sbu_0, # of connection points: 6
#     Node 1, Type 0, BuildingBlock: CUKXOW_clean_sbu_0, # of connection points: 6
#     Node 2, Type 0, BuildingBlock: CUKXOW_clean_sbu_0, # of connection points: 6
#     Node 3, Type 0, BuildingBlock: CUKXOW_clean_sbu_0, # of connection points: 6
#     Node 4, Type 0, BuildingBlock: CUKXOW_clean_sbu_0, # of connection points: 6
#     Node 5, Type 0, BuildingBlock: CUKXOW_clean_sbu_0, # of connection points: 6
#     Node 6, Type 0, BuildingBlock: CUKXOW_clean_sbu_0, # of connection points: 6
#     Node 7, Type 0, BuildingBlock: CUKXOW_clean_sbu_0, # of connection points: 6
#     Node 8, Type 0, BuildingBlock: CUKXOW_clean_sbu_0, # of connection points: 6
#     Node 9, Type 0, BuildingBlock: CUKXOW_clean_sbu_0, # of connection points: 6
#     Node 10, Type 0, BuildingBlock: CUKXOW_clean_sbu_0, # of connection points: 6
#     Node 11, Type 0, BuildingBlock: CUKXOW_clean_sbu_0, # of connection points: 6
#     Edge 12, Type (0, 0), BuildingBlock: AJUNOK_clean_linker_0, # of connection points: 2
#     Edge 13, Type (0, 0), BuildingBlock: AJUNOK_clean_linker_0, # of connection points: 2
#     Edge 14, Type (0, 0), BuildingBlock: AJUNOK_clean_linker_0, # of connection points: 2
#     Edge 15, Type (0, 0), BuildingBlock: AJUNOK_clean_linker_0, # of connection points: 2
#     Edge 16, Type (0, 0), BuildingBlock: AJUNOK_clean_linker_0, # of connection points: 2
#     Edge 17, Type (0, 0), BuildingBlock: AJUNOK_clean_linker_0, # of connection points: 2
#     Edge 18, Type (0, 0), BuildingBlock: AJUNOK_clean_linker_0, # of connection points: 2
#     Edge 19, Type (0, 0), BuildingBlock: AJUNOK_clean_linker_0, # of connection points: 2
#     Edge 20, Type (0, 0), BuildingBlock: AJUNOK_clean_linker_0, # of connection points: 2
#     Edge 21, Type (0, 0), BuildingBlock: AJUNOK_clean_linker_0, # of connection points: 2
#     Edge 22, Type (0, 0), BuildingBlock: AJUNOK_clean_linker_0, # of connection points: 2
#     Edge 23, Type (0, 0), BuildingBlock: AJUNOK_clean_linker_0, # of connection points: 2
#     Edge 24, Type (0, 0), BuildingBlock: AJUNOK_clean_linker_0, # of connection points: 2
#     Edge 25, Type (0, 0), BuildingBlock: AJUNOK_clean_linker_0, # of connection points: 2
#     Edge 26, Type (0, 0), BuildingBlock: AJUNOK_clean_linker_0, # of connection points: 2
#     Edge 27, Type (0, 0), BuildingBlock: AJUNOK_clean_linker_0, # of connection points: 2
#     Edge 28, Type (0, 0), BuildingBlock: AJUNOK_clean_linker_0, # of connection points: 2
#     Edge 29, Type (0, 0), BuildingBlock: AJUNOK_clean_linker_0, # of connection points: 2
#     Edge 30, Type (0, 0), BuildingBlock: AJUNOK_clean_linker_0, # of connection points: 2
#     Edge 31, Type (0, 0), BuildingBlock: AJUNOK_clean_linker_0, # of connection points: 2
#     Edge 32, Type (0, 0), BuildingBlock: AJUNOK_clean_linker_0, # of connection points: 2
#     Edge 33, Type (0, 0), BuildingBlock: AJUNOK_clean_linker_0, # of connection points: 2
#     Edge 34, Type (0, 0), BuildingBlock: AJUNOK_clean_linker_0, # of connection points: 2
#     Edge 35, Type (0, 0), BuildingBlock: AJUNOK_clean_linker_0, # of connection points: 2
#     Edge 36, Type (0, 0), BuildingBlock: AJUNOK_clean_linker_0, # of connection points: 2
#     Edge 37, Type (0, 0), BuildingBlock: AJUNOK_clean_linker_0, # of connection points: 2
#     Edge 38, Type (0, 0), BuildingBlock: AJUNOK_clean_linker_0, # of connection points: 2
#     Edge 39, Type (0, 0), BuildingBlock: AJUNOK_clean_linker_0, # of connection points: 2
#     Edge 40, Type (0, 0), BuildingBlock: AJUNOK_clean_linker_0, # of connection points: 2
#     Edge 41, Type (0, 0), BuildingBlock: AJUNOK_clean_linker_0, # of connection points: 2
#     Edge 42, Type (0, 0), BuildingBlock: AJUNOK_clean_linker_0, # of connection points: 2
#     Edge 43, Type (0, 0), BuildingBlock: AJUNOK_clean_linker_0, # of connection points: 2
#     Edge 44, Type (0, 0), BuildingBlock: AJUNOK_clean_linker_0, # of connection points: 2
#     Edge 45, Type (0, 0), BuildingBlock: AJUNOK_clean_linker_0, # of connection points: 2
#     Edge 46, Type (0, 0), BuildingBlock: AJUNOK_clean_linker_0, # of connection points: 2
#     Edge 47, Type (0, 0), BuildingBlock: AJUNOK_clean_linker_0, # of connection points: 2
# Relax obj value: 0.061
# Max RMSD: 0.162
# Mean RMSD: 0.162
data_MOF--net-wjd--node1-CUKXOW_clean_sbu_0--edge1-AJUNOK_clean_linker_0
_symmetry_space_group_name_H-M    P1
_symmetry_Int_Tables_number       1
_symmetry_cell_setting            triclinic
loop_
_symmetry_equiv_pos_as_xyz
'x, y, z'
_cell_length_a     23.886425
_cell_length_b     23.910334
_cell_length_c     41.596597
_cell_angle_alpha  90.176756
_cell_angle_beta   89.937335
_cell_angle_gamma 120.15167
loop_
_atom_site_label
_atom_site_type_symbol
_atom_site_fract_x
_atom_site_fract_y
_atom_site_fract_z
_atom_type_partial_charge
Tb0 Tb 0.41628 0.14944 0.1291 0.0
C1 C 0.33479 0.1135 0.06637 0.0
Tb2 Tb 0.30552 0.17851 0.12566 0.0
O3 O 0.34871 0.04511 0.12395 0.0
O4 O 0.31935 0.10517 0.14474 0.0
O5 O 0.39427 0.13702 0.07793 0.0
C6 C 0.20086 0.1905 0.1196 0.0
O7 O 0.29033 0.12085 0.08199 0.0
C8 C 0.4223 0.27939 0.12481 0.0
C9 C 0.36927 0.18686 0.19346 0.0
O10 O 0.25294 0.22003 0.10229 0.0
O11 O 0.20701 0.15254 0.13976 0.0
O12 O 0.37213 0.27923 0.13655 0.0
O13 O 0.40484 0.22586 0.111 0.0
O14 O 0.31792 0.18066 0.17772 0.0
O15 O 0.41546 0.18036 0.17886 0.0
C16 C 0.53219 0.15795 0.13036 0.0
O17 O 0.47674 0.10482 0.13012 0.0
O18 O 0.52258 0.20678 0.13051 0.0
C19 C 0.29965 0.04868 0.13484 0.0
Tb20 Tb 0.9121 0.73631 0.40247 0.0
C21 C 0.85533 0.67411 0.33354 0.0
Tb22 Tb 0.7678 0.63165 0.39638 0.0
O23 O 0.92422 0.67068 0.43488 0.0
O24 O 0.85702 0.63409 0.39846 0.0
O25 O 0.9047 0.71954 0.35048 0.0
C26 C 0.66113 0.51527 0.39475 0.0
O27 O 0.79861 0.6324 0.34679 0.0
C28 C 0.79083 0.75065 0.39378 0.0
C29 C 0.81884 0.71568 0.45998 0.0
O30 O 0.67299 0.56374 0.37614 0.0
O31 O 0.70929 0.53273 0.41449 0.0
O32 O 0.73521 0.70199 0.40239 0.0
O33 O 0.82658 0.72948 0.38397 0.0
O34 O 0.77822 0.6574 0.44778 0.0
O35 O 0.87286 0.75722 0.44494 0.0
C36 C 0.03431 0.83354 0.39802 0.0
O37 O 1.01592 0.77251 0.39785 0.0
O38 O 0.98372 0.8402 0.40032 0.0
C39 C 0.87924 0.61794 0.42163 0.0
Tb40 Tb 0.90622 0.28248 0.12912 0.0
C41 C 0.94315 0.23474 0.06686 0.0
Tb42 Tb 0.87511 0.14091 0.12666 0.0
O43 O 1.01057 0.31939 0.12344 0.0
O44 O 0.95046 0.22976 0.14411 0.0
O45 O 0.92462 0.27445 0.07871 0.0
C46 C 0.86075 0.0225 0.12216 0.0
O47 O 0.93162 0.1811 0.08218 0.0
C48 C 0.77431 0.1573 0.12725 0.0
C49 C 0.86651 0.19935 0.19321 0.0
O50 O 0.83313 0.04548 0.10385 0.0
O51 O 0.89837 0.06727 0.14239 0.0
O52 O 0.77364 0.10594 0.13736 0.0
O53 O 0.82751 0.19311 0.11325 0.0
O54 O 0.87703 0.1558 0.17859 0.0
O55 O 0.86688 0.24769 0.17727 0.0
C56 C 0.89872 0.39051 0.13025 0.0
O57 O 0.93079 0.37589 0.15046 0.0
O58 O 0.87101 0.34423 0.10926 0.0
C59 C 1.00682 0.26643 0.13393 0.0
Tb60 Tb 0.30051 0.17103 0.40065 0.0
C61 C 0.36777 0.18656 0.33362 0.0
Tb62 Tb 0.41554 0.14767 0.39663 0.0
O63 O 0.36386 0.27276 0.39027 0.0
O64 O 0.40023 0.22189 0.41473 0.0
O65 O 0.31303 0.17251 0.34867 0.0
C66 C 0.53472 0.16341 0.39516 0.0
O67 O 0.4172 0.18731 0.34884 0.0
C68 C 0.30105 0.04331 0.39023 0.0
C69 C 0.32886 0.10154 0.45846 0.0
O70 O 0.48594 0.12314 0.3776 0.0
O71 O 0.51643 0.19539 0.41346 0.0
O72 O 0.3521 0.04224 0.40024 0.0
O73 O 0.31811 0.09985 0.38129 0.0
O74 O 0.38768 0.12187 0.44663 0.0
O75 O 0.28585 0.1125 0.44378 0.0
C76 C 0.19519 0.18213 0.40705 0.0
O77 O 0.24583 0.20897 0.4255 0.0
O78 O 0.20299 0.14703 0.38559 0.0
C79 C 0.41537 0.27511 0.40146 0.0
Tb80 Tb 0.77395 0.63579 0.13002 0.0
C81 C 0.81688 0.71974 0.06779 0.0
Tb82 Tb 0.91289 0.74904 0.12693 0.0
O83 O 0.73466 0.70133 0.12453 0.0
O84 O 0.82435 0.7331 0.14561 0.0
O85 O 0.77797 0.66128 0.07969 0.0
C86 C 1.02902 0.85464 0.12078 0.0
O87 O 0.87036 0.76294 0.083 0.0
C88 C 0.90087 0.63403 0.12665 0.0
C89 C 0.85981 0.68185 0.19351 0.0
O90 O 1.00657 0.803 0.10312 0.0
O91 O 0.985 0.84759 0.14138 0.0
O92 O 0.95013 0.68533 0.13821 0.0
O93 O 0.86362 0.64955 0.11275 0.0
O94 O 0.90141 0.73659 0.17885 0.0
O95 O 0.81102 0.63308 0.17789 0.0
C96 C 0.66965 0.51704 0.13248 0.0
O97 O 0.6794 0.56625 0.15 0.0
O98 O 0.7187 0.53488 0.11337 0.0
C99 C 0.78668 0.7515 0.13559 0.0
Tb100 Tb 0.8727 0.13635 0.39939 0.0
C101 C 0.86946 0.20086 0.33368 0.0
Tb102 Tb 0.90221 0.27663 0.40089 0.0
O103 O 0.7724 0.10315 0.38806 0.0
O104 O 0.82445 0.18617 0.41625 0.0
O105 O 0.87361 0.1531 0.34782 0.0
C106 C 0.89449 0.38432 0.40629 0.0
O107 O 0.87583 0.25199 0.34997 0.0
C108 C 1.00374 0.26202 0.39412 0.0
C109 C 0.93 0.22101 0.4617 0.0
O110 O 0.94353 0.37834 0.4144 0.0
O111 O 0.85029 0.33007 0.3938 0.0
O112 O 1.00702 0.31389 0.40592 0.0
O113 O 0.94756 0.22643 0.3836 0.0
O114 O 0.90348 0.25487 0.45148 0.0
O115 O 0.92811 0.17407 0.44387 0.0
C116 C 0.8616 0.01993 0.40449 0.0
O117 O 0.83199 0.04181 0.42214 0.0
O118 O 0.89863 0.06431 0.38408 0.0
C119 C 0.77143 0.15133 0.40171 0.0
Tb120 Tb 0.18645 0.28937 0.6259 0.0
C121 C 0.20391 0.36295 0.69224 0.0
Tb122 Tb 0.15454 0.40287 0.63109 0.0
O123 O 0.28613 0.35003 0.60727 0.0
O124 O 0.22956 0.38826 0.61699 0.0
O125 O 0.18974 0.30753 0.67777 0.0
C126 C 0.16542 0.51913 0.63298 0.0
O127 O 0.20228 0.41068 0.67683 0.0
C128 C 0.05629 0.28484 0.63809 0.0
C129 C 0.11434 0.31524 0.56872 0.0
O130 O 0.13249 0.47243 0.65316 0.0
O131 O 0.19166 0.49998 0.61145 0.0
O132 O 0.05023 0.33375 0.62924 0.0
O133 O 0.1143 0.3056 0.64609 0.0
O134 O 0.1334 0.37379 0.58082 0.0
O135 O 0.12717 0.27282 0.58284 0.0
C136 C 0.2046 0.18904 0.63208 0.0
O137 O 0.1568 0.18769 0.61622 0.0
O138 O 0.23975 0.24553 0.64492 0.0
C139 C 0.2857 0.40382 0.60862 0.0
Tb140 Tb 0.28622 0.88936 0.89597 0.0
C141 C 0.24327 0.92686 0.95987 0.0
Tb142 Tb 0.14388 0.85585 0.90157 0.0
O143 O 0.32378 0.99449 0.89929 0.0
O144 O 0.23038 0.93211 0.88307 0.0
O145 O 0.28533 0.91326 0.94627 0.0
C146 C 1.02524 0.84024 0.90274 0.0
O147 O 0.18645 0.91065 0.94643 0.0
C148 C 0.16207 0.75731 0.90057 0.0
C149 C 0.1985 0.84654 0.83372 0.0
O150 O 0.05029 0.82238 0.92541 0.0
O151 O 0.06777 0.86874 0.88025 0.0
O152 O 0.10937 0.75484 0.89133 0.0
O153 O 0.19859 0.81114 0.91372 0.0
O154 O 0.1566 0.85768 0.84948 0.0
O155 O 0.24889 0.84846 0.84833 0.0
C156 C 0.39128 0.87664 0.89393 0.0
O157 O 0.38024 0.91384 0.87545 0.0
O158 O 0.3431 0.84677 0.91367 0.0
C159 C 0.26829 0.98926 0.89209 0.0
Tb160 Tb 0.75048 0.89819 0.62787 0.0
C161 C 0.68076 0.83567 0.69374 0.0
Tb162 Tb 0.63925 0.75739 0.62725 0.0
O163 O 0.683 0.93127 0.63778 0.0
O164 O 0.65277 0.84717 0.61051 0.0
O165 O 0.73311 0.88302 0.67947 0.0
C166 C 0.52456 0.64802 0.62433 0.0
O167 O 0.6359 0.78426 0.67761 0.0
C168 C 0.7555 0.77368 0.6354 0.0
C169 C 0.72615 0.80899 0.56657 0.0
O170 O 0.58071 0.6522 0.62529 0.0
O171 O 0.53254 0.70579 0.62616 0.0
O172 O 0.70815 0.72218 0.62244 0.0
O173 O 0.73426 0.80902 0.6453 0.0
O174 O 0.6658 0.77094 0.57659 0.0
O175 O 0.76883 0.85909 0.58394 0.0
C176 C 0.85662 1.01529 0.62375 0.0
O177 O 0.80519 0.99391 0.60602 0.0
O178 O 0.84882 0.96991 0.64349 0.0
C179 C 0.63421 0.88244 0.62419 0.0
Tb180 Tb 0.15651 0.40438 0.89531 0.0
C181 C 0.12608 0.32343 0.95879 0.0
Tb182 Tb 0.19424 0.29999 0.90012 0.0
O183 O 0.05337 0.33492 0.90214 0.0
O184 O 0.11512 0.30637 0.882 0.0
O185 O 0.14664 0.38188 0.94662 0.0
C186 C 0.216 0.20171 0.89477 0.0
O187 O 0.13494 0.27989 0.94329 0.0
C188 C 0.28131 0.41702 0.92026 0.0
C189 C 0.20104 0.3641 0.83206 0.0
O190 O 0.16223 0.19759 0.90427 0.0
O191 O 0.25753 0.26135 0.88795 0.0
O192 O 0.27363 0.36387 0.93259 0.0
O193 O 0.24296 0.40177 0.89712 0.0
O194 O 0.20034 0.3154 0.84794 0.0
O195 O 0.18918 0.40695 0.84624 0.0
C196 C 0.16752 0.52028 0.89377 0.0
O197 O 0.13171 0.47259 0.87445 0.0
O198 O 0.19586 0.50208 0.91442 0.0
C199 C 0.05884 0.28598 0.89264 0.0
Tb200 Tb 0.14019 0.85566 0.62647 0.0
C201 C 0.19441 0.84231 0.69344 0.0
Tb202 Tb 0.2809 0.88251 0.63032 0.0
O203 O 0.10234 0.75356 0.63561 0.0
O204 O 0.19114 0.80764 0.61249 0.0
O205 O 0.15293 0.85498 0.67837 0.0
C206 C 0.38471 0.86787 0.63119 0.0
O207 O 0.24351 0.84241 0.67817 0.0
C208 C 0.26764 0.98461 0.63636 0.0
C209 C 0.23754 0.92357 0.56772 0.0
O210 O 0.3761 0.90751 0.64915 0.0
O211 O 0.33445 0.83604 0.61283 0.0
O212 O 0.3216 0.98819 0.62743 0.0
O213 O 0.22895 0.92768 0.6449 0.0
O214 O 0.27789 0.90639 0.58017 0.0
O215 O 0.18331 0.91219 0.58252 0.0
C216 C 1.02531 0.8484 0.62371 0.0
O217 O 0.04756 0.82452 0.6025 0.0
O218 O 0.06844 0.87757 0.64596 0.0
C219 C 0.15335 0.75373 0.62514 0.0
Tb220 Tb 0.64215 0.7613 0.90122 0.0
C221 C 0.7269 0.81516 0.96176 0.0
Tb222 Tb 0.75421 0.90033 0.8997 0.0
O223 O 0.70891 0.72379 0.90701 0.0
O224 O 0.7375 0.81005 0.88317 0.0
O225 O 0.66613 0.78165 0.95178 0.0
C226 C 0.86019 1.01673 0.90474 0.0
O227 O 0.77195 0.86217 0.94395 0.0
C228 C 0.63865 0.88686 0.90151 0.0
C229 C 0.68403 0.83585 0.8341 0.0
O230 O 0.8088 0.99509 0.92247 0.0
O231 O 0.85244 0.97205 0.88436 0.0
O232 O 0.68841 0.93463 0.88804 0.0
O233 O 0.65617 0.85214 0.91644 0.0
O234 O 0.73694 0.88324 0.84811 0.0
O235 O 0.63896 0.7853 0.8505 0.0
C236 C 0.52736 0.65339 0.90629 0.0
O237 O 0.58314 0.65756 0.90971 0.0
O238 O 0.53592 0.70982 0.89871 0.0
C239 C 0.75714 0.77401 0.89388 0.0
C240 C 0.05167 0.19481 0.14654 0.0
C241 C 0.05589 0.24702 0.12909 0.0
C242 C 0.0976 0.17526 0.14249 0.0
C243 C 0.14895 0.20689 0.12058 0.0
H244 H 1.01336 0.1697 0.16399 0.0
H245 H 0.09352 0.13595 0.15709 0.0
S246 S 0.17875 0.34343 0.06731 0.0
N247 N 0.1138 0.32835 0.08815 0.0
N248 N 0.19935 0.29084 0.07995 0.0
C249 C 0.15247 0.25785 0.10221 0.0
C250 C 0.10622 0.27829 0.10666 0.0
C251 C 0.18256 0.99572 0.37958 0.0
C252 C 0.2335 0.98905 0.39225 0.0
C253 C 0.11791 0.94564 0.38204 0.0
C254 C 0.10225 0.88653 0.39649 0.0
H255 H 0.19271 0.03976 0.36743 0.0
H256 H 0.08013 0.95275 0.37198 0.0
S257 S 0.21713 0.84506 0.43443 0.0
N258 N 0.26338 0.91933 0.42087 0.0
N259 N 0.1423 0.82446 0.42439 0.0
C260 C 0.15261 0.87904 0.40914 0.0
C261 C 0.2182 0.93046 0.40725 0.0
C262 C 0.87537 0.93423 0.14544 0.0
C263 C 0.84381 0.95371 0.12345 0.0
C264 C 0.85644 0.8687 0.14916 0.0
C265 C 0.80478 0.8201 0.13132 0.0
H266 H 0.91449 0.96976 0.16022 0.0
H267 H 0.88184 0.85593 0.16656 0.0
S268 S 0.70797 0.84554 0.06954 0.0
N269 N 0.75987 0.91905 0.08261 0.0
N270 N 0.7236 0.79605 0.09016 0.0
C271 C 0.77326 0.83888 0.10899 0.0
C272 C 0.79307 0.90567 0.10486 0.0
C273 C 0.09414 0.17079 0.38324 0.0
C274 C 0.14373 0.19927 0.40633 0.0
C275 C 0.04896 0.1914 0.37954 0.0
C276 C 0.05219 0.24164 0.39855 0.0
H277 H 0.09089 0.13313 0.36746 0.0
H278 H 1.01201 0.1687 0.36119 0.0
S279 S 0.17017 0.32951 0.46378 0.0
N280 N 0.19132 0.27815 0.44965 0.0
N281 N 0.10702 0.31748 0.44225 0.0
C282 C 0.10066 0.26969 0.42215 0.0
C283 C 0.14619 0.2482 0.42621 0.0
C284 C 0.18306 1.00344 0.14799 0.0
C285 C 0.231 0.99955 0.13016 0.0
C286 C 0.11737 0.95758 0.14397 0.0
C287 C 0.09743 0.90667 0.12173 0.0
H288 H 0.19648 0.04147 0.16568 0.0
H289 H 0.08215 0.96134 0.15885 0.0
S290 S 0.204 0.87775 0.06754 0.0
N291 N 0.25418 0.94238 0.0886 0.0
N292 N 0.13071 0.85694 0.08046 0.0
C293 C 0.14484 0.90346 0.10301 0.0
C294 C 0.21173 0.94963 0.10744 0.0
C295 C 0.86255 0.86735 0.38024 0.0
C296 C 0.81093 0.81944 0.39821 0.0
C297 C 0.8802 0.93271 0.38309 0.0
C298 C 0.84745 0.95226 0.40441 0.0
H299 H 0.88826 0.85406 0.36319 0.0
H300 H 0.91882 0.9679 0.36804 0.0
S301 S 0.7135 0.84594 0.45941 0.0
N302 N 0.72997 0.79619 0.43942 0.0
N303 N 0.76433 0.9189 0.44559 0.0
C304 C 0.7978 0.90502 0.42361 0.0
C305 C 0.77911 0.83854 0.42026 0.0
C306 C 0.19001 0.02414 0.62719 0.0
C307 C 0.25279 0.0374 0.635 0.0
C308 C 0.1745 0.07336 0.62599 0.0
C309 C 0.22123 0.13748 0.63315 0.0
H310 H 0.15289 0.97573 0.62116 0.0
H311 H 0.12561 0.06103 0.61968 0.0
S312 S 0.39352 0.19803 0.65411 0.0
N313 N 0.36246 0.11941 0.64898 0.0
N314 N 0.33361 0.21224 0.64758 0.0
C315 C 0.28448 0.15158 0.64082 0.0
C316 C 0.30031 0.1015 0.64144 0.0
C317 C 0.91154 0.78307 0.92306 0.0
C318 C 0.95789 0.82654 0.90125 0.0
C319 C 0.84621 0.76552 0.92031 0.0
C320 C 0.82551 0.79155 0.89592 0.0
H321 H 0.92557 0.76158 0.94201 0.0
H322 H 0.81185 0.73185 0.93755 0.0
S323 S 0.92787 0.90805 0.83315 0.0
N324 N 0.97869 0.89585 0.85475 0.0
N325 N 0.85604 0.86284 0.8497 0.0
C326 C 0.87146 0.83569 0.87428 0.0
C327 C 0.93772 0.85323 0.87693 0.0
C328 C 0.96308 0.10169 0.64569 0.0
C329 C 0.91021 0.08329 0.62484 0.0
C330 C 1.01102 0.16701 0.64943 0.0
C331 C 1.00694 0.21611 0.63296 0.0
H332 H 0.96692 0.06554 0.6596 0.0
H333 H 0.05065 0.17925 0.66593 0.0
S334 S 0.88139 0.19308 0.57346 0.0
N335 N 0.85951 0.11926 0.58567 0.0
N336 N 0.94809 0.24165 0.59355 0.0
C337 C 0.95533 0.19819 0.61141 0.0
C338 C 0.90737 0.13181 0.60711 0.0
C339 C 0.28919 0.15693 0.88373 0.0
C340 C 0.22862 0.14744 0.89355 0.0
C341 C 0.30175 0.10543 0.88351 0.0
C342 C 0.25382 0.04273 0.89255 0.0
H343 H 0.32724 0.20442 0.87639 0.0
H344 H 0.349 0.1146 0.87589 0.0
S345 S 0.08978 0.99528 0.92337 0.0
N346 N 0.12218 0.07243 0.91456 0.0
N347 N 0.14518 0.97626 0.91373 0.0
C348 C 0.19352 0.03338 0.9027 0.0
C349 C 0.18107 0.08565 0.90331 0.0
C350 C 0.91151 0.78996 0.60387 0.0
C351 C 0.9579 0.83441 0.62547 0.0
C352 C 0.84574 0.76986 0.60743 0.0
C353 C 0.8245 0.79422 0.63247 0.0
H354 H 0.92581 0.76932 0.58452 0.0
H355 H 0.81143 0.73535 0.5904 0.0
S356 S 0.92648 0.9124 0.695 0.0
N357 N 0.9781 0.90307 0.67239 0.0
N358 N 0.8544 0.86506 0.67904 0.0
C359 C 0.87039 0.83954 0.65382 0.0
C360 C 0.93724 0.85982 0.65031 0.0
C361 C 1.01331 0.169 0.87962 0.0
C362 C 1.00979 0.21734 0.89732 0.0
C363 C 0.96573 0.10364 0.88288 0.0
C364 C 0.9137 0.08453 0.90433 0.0
H365 H 0.05221 0.1819 0.86255 0.0
H366 H 0.96906 0.06808 0.86807 0.0
S367 S 0.88676 0.1921 0.95881 0.0
N368 N 0.95276 0.24148 0.93854 0.0
N369 N 0.86437 0.11878 0.94534 0.0
C370 C 0.91144 0.13222 0.92325 0.0
C371 C 0.95921 0.1987 0.91953 0.0
C372 C 0.41995 0.19117 0.28058 0.0
C373 C 0.37129 0.19468 0.29808 0.0
C374 C 0.42014 0.19097 0.24686 0.0
C375 C 0.37177 0.19438 0.2291 0.0
H376 H 0.45714 0.18625 0.29291 0.0
H377 H 0.45765 0.18613 0.23473 0.0
S378 S 0.23811 0.21294 0.26338 0.0
N379 N 0.27683 0.20787 0.29505 0.0
N380 N 0.27716 0.20762 0.23184 0.0
C381 C 0.32475 0.20142 0.24632 0.0
C382 C 0.32452 0.20151 0.2807 0.0
C383 C 0.80988 0.62585 0.27953 0.0
C384 C 0.8616 0.67316 0.29792 0.0
C385 C 0.81099 0.62766 0.24586 0.0
C386 C 0.86374 0.67705 0.22899 0.0
H387 H 0.7671 0.58778 0.29114 0.0
H388 H 0.76892 0.59107 0.23307 0.0
S389 S 1.01483 0.8088 0.26537 0.0
N390 N 0.96976 0.76818 0.2964 0.0
N391 N 0.97162 0.77144 0.23321 0.0
C392 C 0.91721 0.72295 0.24695 0.0
C393 C 0.91623 0.72103 0.28132 0.0
C394 C 0.86872 0.15186 0.2465 0.0
C395 C 0.86067 0.19757 0.22893 0.0
C396 C 0.86989 0.15258 0.28017 0.0
C397 C 0.86319 0.19911 0.29798 0.0
H398 H 0.87582 0.1159 0.23422 0.0
H399 H 0.87773 0.117 0.29223 0.0
S400 S 0.83469 0.32615 0.26386 0.0
N401 N 0.84133 0.28828 0.23213 0.0
N402 N 0.84368 0.28961 0.29538 0.0
C403 C 0.85269 0.24376 0.28082 0.0
C404 C 0.85134 0.24295 0.24639 0.0
C405 C 0.20337 0.31387 0.74554 0.0
C406 C 0.21261 0.36794 0.72777 0.0
C407 C 0.20239 0.31398 0.77925 0.0
C408 C 0.21041 0.3681 0.79664 0.0
H409 H 0.19449 0.27 0.73342 0.0
H410 H 0.19272 0.27025 0.79165 0.0
S411 S 0.2448 0.52532 0.76195 0.0
N412 N 0.23637 0.47964 0.73045 0.0
N413 N 0.23437 0.47969 0.7936 0.0
C414 C 0.22327 0.42382 0.77927 0.0
C415 C 0.22447 0.42381 0.74494 0.0
C416 C 0.24255 0.83786 0.78022 0.0
C417 C 0.19237 0.83772 0.79814 0.0
C418 C 0.24144 0.83657 0.74648 0.0
C419 C 0.19014 0.83508 0.7291 0.0
H420 H 0.28427 0.84109 0.79223 0.0
H421 H 0.28245 0.83901 0.73402 0.0
S422 S 0.04255 0.82563 0.76443 0.0
N423 N 0.08674 0.82978 0.79579 0.0
N424 N 0.08467 0.82733 0.7326 0.0
C425 C 0.13792 0.83141 0.74671 0.0
C426 C 0.13905 0.83274 0.78111 0.0
C427 C 0.73087 0.88375 0.74695 0.0
C428 C 0.67698 0.83718 0.72945 0.0
C429 C 0.73177 0.88364 0.78059 0.0
C430 C 0.67881 0.83698 0.79845 0.0
H431 H 0.77386 0.91996 0.73466 0.0
H432 H 0.77532 0.91982 0.79256 0.0
S433 S 0.52302 0.70784 0.76454 0.0
N434 N 0.56719 0.7455 0.73272 0.0
N435 N 0.56881 0.74535 0.79601 0.0
C436 C 0.6235 0.79144 0.78138 0.0
C437 C 0.62259 0.79152 0.74694 0.0
C438 C 0.23045 1.00095 0.9987 0.0
C439 C 0.26529 0.97082 0.98854 0.0
C440 C 0.25406 0.04825 0.02311 0.0
C441 C 0.31396 0.06825 0.03828 0.0
H442 H 0.18489 0.98881 0.98739 0.0
H443 H 0.22491 0.06928 0.03013 0.0
S444 S 0.42245 1.00158 0.02232 0.0
N445 N 0.36169 0.96249 0.99705 0.0
N446 N 0.40617 0.05146 0.04225 0.0
C447 C 0.349 0.03801 0.02861 0.0
C448 C 0.32464 0.98934 1.00404 0.0
C449 C 0.73517 0.70152 0.50111 0.0
C450 C 0.79802 0.73925 0.48844 0.0
C451 C 0.71158 0.72536 0.52535 0.0
C452 C 0.74971 0.7881 0.53819 0.0
H453 H 0.70321 0.65325 0.49194 0.0
H454 H 0.6632 0.69364 0.5344 0.0
S455 S 0.91763 0.90749 0.51337 0.0
N456 N 0.89802 0.84341 0.49078 0.0
N457 N 0.85369 0.88787 0.53602 0.0
C458 C 0.81264 0.82651 0.52575 0.0
C459 C 0.83676 0.80222 0.50108 0.0
C460 C 0.05394 0.23891 0.99915 0.0
C461 C 0.08287 0.30299 0.98769 0.0
C462 C 1.0077 0.21662 0.02405 0.0
C463 C 0.98754 0.25709 0.03837 0.0
H464 H 0.06641 0.20515 0.98858 0.0
H465 H 0.98771 0.1672 0.03211 0.0
S466 S 0.04978 0.43006 0.01802 0.0
N467 N 0.08894 0.40721 0.99356 0.0
N468 N 1.002 0.36554 0.03948 0.0
C469 C 1.01632 0.32142 0.02717 0.0
C470 C 0.06394 0.34429 1.00219 0.0
C471 C 0.25341 0.04702 0.50501 0.0
C472 C 0.30712 0.05692 0.48658 0.0
C473 C 0.2299 1.00234 0.53046 0.0
C474 C 0.25856 0.965 0.53836 0.0
H475 H 0.22963 0.07443 0.49996 0.0
H476 H 0.18966 0.99816 0.54444 0.0
S477 S 0.39604 0.96721 0.49526 0.0
N478 N 0.38548 0.0221 0.4767 0.0
N479 N 0.34105 0.9381 0.52399 0.0
C480 C 0.31109 0.97304 0.51945 0.0
C481 C 0.33537 1.01893 0.49377 0.0
C482 C 0.8336 0.8035 0.02645 0.0
C483 C 0.79414 0.74137 0.03951 0.0
C484 C 0.81088 0.82777 1.00212 0.0
C485 C 0.74737 0.79143 0.99001 0.0
H486 H 0.88248 0.83411 0.0352 0.0
H487 H 0.84367 0.87545 0.99265 0.0
S488 S 0.62389 0.62565 0.01581 0.0
N489 N 0.6879 0.64375 0.03808 0.0
N490 N 0.64532 0.68946 0.99294 0.0
C491 C 0.70722 0.72927 1.00292 0.0
C492 C 0.73058 0.70422 0.02739 0.0
C493 C 0.04806 0.23226 0.52652 0.0
C494 C 0.0692 0.29334 0.54062 0.0
C495 C 1.00136 0.20823 0.50193 0.0
C496 C 0.97295 0.24374 0.49055 0.0
H497 H 0.06766 0.2025 0.53451 0.0
H498 H 0.98803 0.16158 0.49152 0.0
S499 S 1.00957 0.40578 0.5198 0.0
N500 N 0.05677 0.38854 0.54138 0.0
N501 N 0.96901 0.34313 0.49576 0.0
C502 C 0.9929 0.30451 0.50472 0.0
C503 C 0.04102 0.32937 0.52947 0.0
C504 C 0.65697 0.10746 0.11624 0.0
C505 C 0.71528 0.16228 0.1256 0.0
C506 C 0.59814 0.1069 0.11766 0.0
C507 C 0.59544 0.16121 0.12854 0.0
H508 H 0.65668 0.06421 0.1081 0.0
H509 H 0.55439 0.06344 0.11028 0.0
S510 S 0.73317 0.3143 0.15908 0.0
N511 N 0.76571 0.27005 0.14877 0.0
N512 N 0.65547 0.27031 0.15012 0.0
C513 C 0.65327 0.21641 0.13799 0.0
C514 C 0.7132 0.21662 0.13689 0.0
C515 C 0.58959 0.40511 0.41841 0.0
C516 C 0.60095 0.45134 0.39449 0.0
C517 C 0.53041 0.34628 0.41995 0.0
C518 C 0.48081 0.33215 0.39768 0.0
H519 H 0.62591 0.41516 0.43658 0.0
H520 H 0.52256 0.313 0.43936 0.0
S521 S 0.48972 0.4327 0.32785 0.0
N522 N 0.55994 0.47573 0.34628 0.0
N523 N 0.44938 0.36592 0.34913 0.0
C524 C 0.49298 0.37649 0.37274 0.0
C525 C 0.55293 0.43594 0.37115 0.0
C526 C 0.86083 0.46249 0.10676 0.0
C527 C 0.89448 0.4502 0.131 0.0
C528 C 0.85993 0.52092 0.10607 0.0
C529 C 0.89308 0.56889 0.12948 0.0
H530 H 0.83626 0.4274 0.08779 0.0
H531 H 0.83546 0.52959 0.08647 0.0
S532 S 0.98093 0.55691 0.2003 0.0
N533 N 0.9562 0.48841 0.18059 0.0
N534 N 0.95489 0.59772 0.17924 0.0
C535 C 0.92405 0.55572 0.15464 0.0
C536 C 0.9247 0.49647 0.15543 0.0
C537 C 0.60828 0.12515 0.37608 0.0
C538 C 0.59834 0.16674 0.39608 0.0
C539 C 0.66517 0.12222 0.37789 0.0
C540 C 0.71477 0.16074 0.39977 0.0
H541 H 0.57122 0.09344 0.35923 0.0
H542 H 0.66974 0.0885 0.36216 0.0
S543 S 0.7146 0.28079 0.4563 0.0
N544 N 0.64426 0.25003 0.4375 0.0
N545 N 0.75137 0.24373 0.44115 0.0
C546 C 0.70659 0.20411 0.41934 0.0
C547 C 0.6483 0.20727 0.41743 0.0
C548 C 0.53746 0.34922 0.10602 0.0
C549 C 0.48884 0.33456 0.12898 0.0
C550 C 0.59722 0.40754 0.10785 0.0
C551 C 0.60999 0.45267 0.13272 0.0
H552 H 0.52826 0.31702 0.08581 0.0
H553 H 0.63261 0.41838 0.08905 0.0
S554 S 0.50237 0.4313 0.20162 0.0
N555 N 0.46041 0.36594 0.17937 0.0
N556 N 0.57185 0.47477 0.18269 0.0
C557 C 0.56319 0.43632 0.15683 0.0
C558 C 0.5028 0.37739 0.15499 0.0
C559 C 0.83558 0.50492 0.40145 0.0
C560 C 0.87902 0.55575 0.42166 0.0
C561 C 0.83995 0.44898 0.39711 0.0
C562 C 0.88866 0.44225 0.41234 0.0
H563 H 0.79905 0.50914 0.38805 0.0
H564 H 0.80607 0.41162 0.38097 0.0
S565 S 1.01125 0.55855 0.46966 0.0
N566 N 0.96954 0.59336 0.45877 0.0
N567 N 0.97866 0.48904 0.45007 0.0
C568 C 0.93108 0.49161 0.43342 0.0
C569 C 0.92599 0.54811 0.43824 0.0
C570 C 0.19815 0.68456 0.60623 0.0
C571 C 0.16461 0.69912 0.62942 0.0
C572 C 0.20003 0.62684 0.60804 0.0
C573 C 0.16892 0.58254 0.63323 0.0
H574 H 0.22035 0.71629 0.58586 0.0
H575 H 0.22422 0.61596 0.58906 0.0
S576 S 0.08416 0.60445 0.70268 0.0
N577 N 0.10617 0.66888 0.68013 0.0
N578 N 0.11028 0.56115 0.68372 0.0
C579 C 0.13899 0.59893 0.65761 0.0
C580 C 0.13668 0.65714 0.65563 0.0
C581 C 0.46487 0.84261 0.91951 0.0
C582 C 0.45118 0.87257 0.89395 0.0
C583 C 0.52456 0.84415 0.92135 0.0
C584 C 0.57226 0.87588 0.89771 0.0
H585 H 0.43019 0.81974 0.93877 0.0
H586 H 0.5344 0.8229 0.94198 0.0
S587 S 0.55612 0.95243 0.82341 0.0
N588 N 0.48747 0.92827 0.84284 0.0
N589 N 0.59879 0.93104 0.84613 0.0
C590 C 0.55741 0.90244 0.87114 0.0
C591 C 0.49707 0.90087 0.86929 0.0
C592 C 0.40318 0.58121 0.62735 0.0
C593 C 0.46288 0.58752 0.61833 0.0
C594 C 0.34491 0.52225 0.62306 0.0
C595 C 0.34459 0.46856 0.60886 0.0
H596 H 0.40172 0.62121 0.63881 0.0
H597 H 0.30053 0.51801 0.63212 0.0
S598 S 0.48754 0.46296 0.57796 0.0
N599 N 0.51763 0.53663 0.59279 0.0
N600 N 0.40866 0.42728 0.58379 0.0
C601 C 0.40378 0.47561 0.59842 0.0
C602 C 0.46282 0.53476 0.60337 0.0
C603 C 0.20571 0.68781 0.91976 0.0
C604 C 0.17403 0.70338 0.89611 0.0
C605 C 0.20532 0.62895 0.91831 0.0
C606 C 0.17352 0.58457 0.89312 0.0
H607 H 0.22767 0.71941 0.9403 0.0
H608 H 0.22788 0.61711 0.93765 0.0
S609 S 0.09405 0.6093 0.82243 0.0
N610 N 0.11753 0.67446 0.84483 0.0
N611 N 0.11712 0.56431 0.842 0.0
C612 C 0.1459 0.6021 0.86821 0.0
C613 C 0.14611 0.66157 0.86974 0.0
C614 C 0.49491 0.9027 0.65177 0.0
C615 C 0.44494 0.86463 0.63015 0.0
C616 C 0.55493 0.90607 0.64991 0.0
C617 C 0.56767 0.87155 0.62636 0.0
H618 H 0.48822 0.93137 0.66996 0.0
H619 H 0.59211 0.93705 0.66689 0.0
S620 S 0.45213 0.76231 0.5648 0.0
N621 N 0.41085 0.78913 0.58518 0.0
N622 N 0.52478 0.79653 0.58141 0.0
C623 C 0.51764 0.83164 0.60511 0.0
C624 C 0.45597 0.82794 0.60707 0.0
C625 C 0.40774 0.58875 0.89916 0.0
C626 C 0.46456 0.59456 0.91216 0.0
C627 C 0.34813 0.53181 0.90308 0.0
C628 C 0.34291 0.47936 0.9209 0.0
H629 H 0.40963 0.62752 0.8849 0.0
H630 H 0.30627 0.52816 0.89108 0.0
S631 S 0.47729 0.473 0.96206 0.0
N632 N 0.51208 0.54478 0.94477 0.0
N633 N 0.39958 0.43854 0.95308 0.0
C634 C 0.39909 0.48583 0.93525 0.0
C635 C 0.46008 0.54327 0.93062 0.0
loop_
_geom_bond_atom_site_label_1
_geom_bond_atom_site_label_2
_geom_bond_distance
_geom_bond_site_symmetry_2
_ccdc_geom_bond_type
Tb0 O3 2.453 . S
Tb0 O4 2.596 . S
Tb0 O5 2.374 . S
Tb0 O13 2.343 . S
Tb0 O15 2.353 . S
Tb0 O17 2.427 . S
Tb0 O18 2.513 . S
C1 O5 1.251 . S
C1 O7 1.263 . S
Tb2 O4 2.343 . S
Tb2 O7 2.353 . S
Tb2 O10 2.427 . S
Tb2 O11 2.513 . S
Tb2 O12 2.453 . S
Tb2 O13 2.596 . S
Tb2 O14 2.374 . S
O3 Tb0 2.453 . S
O3 C19 1.245 . S
O4 Tb0 2.596 . S
O4 Tb2 2.343 . S
O4 C19 1.259 . S
O5 Tb0 2.374 . S
O5 C1 1.251 . S
C6 O10 1.275 . S
C6 O11 1.246 . S
O7 C1 1.263 . S
O7 Tb2 2.353 . S
C8 O12 1.245 . S
C8 O13 1.259 . S
C9 O14 1.250 . S
C9 O15 1.263 . S
O10 Tb2 2.427 . S
O10 C6 1.275 . S
O11 Tb2 2.513 . S
O11 C6 1.246 . S
O12 Tb2 2.453 . S
O12 C8 1.245 . S
O13 Tb0 2.343 . S
O13 Tb2 2.596 . S
O13 C8 1.259 . S
O14 Tb2 2.374 . S
O14 C9 1.250 . S
O15 Tb0 2.353 . S
O15 C9 1.263 . S
C16 O17 1.275 . S
C16 O18 1.246 . S
O17 Tb0 2.427 . S
O17 C16 1.275 . S
O18 Tb0 2.513 . S
O18 C16 1.246 . S
C19 O3 1.245 . S
C19 O4 1.259 . S
Tb20 O23 2.453 . S
Tb20 O24 2.596 . S
Tb20 O25 2.374 . S
Tb20 O33 2.343 . S
Tb20 O35 2.353 . S
Tb20 O37 2.427 . S
Tb20 O38 2.513 . S
C21 O25 1.251 . S
C21 O27 1.263 . S
Tb22 O24 2.343 . S
Tb22 O27 2.353 . S
Tb22 O30 2.427 . S
Tb22 O31 2.513 . S
Tb22 O32 2.453 . S
Tb22 O33 2.596 . S
Tb22 O34 2.374 . S
O23 Tb20 2.453 . S
O23 C39 1.245 . S
O24 Tb20 2.596 . S
O24 Tb22 2.343 . S
O24 C39 1.259 . S
O25 Tb20 2.374 . S
O25 C21 1.251 . S
C26 O30 1.275 . S
C26 O31 1.246 . S
O27 C21 1.263 . S
O27 Tb22 2.353 . S
C28 O32 1.245 . S
C28 O33 1.259 . S
C29 O34 1.250 . S
C29 O35 1.263 . S
O30 Tb22 2.427 . S
O30 C26 1.275 . S
O31 Tb22 2.513 . S
O31 C26 1.246 . S
O32 Tb22 2.453 . S
O32 C28 1.245 . S
O33 Tb20 2.343 . S
O33 Tb22 2.596 . S
O33 C28 1.259 . S
O34 Tb22 2.374 . S
O34 C29 1.250 . S
O35 Tb20 2.353 . S
O35 C29 1.263 . S
C36 O37 1.275 . S
C36 O38 1.246 . S
O37 Tb20 2.427 . S
O37 C36 1.275 . S
O38 Tb20 2.513 . S
O38 C36 1.246 . S
C39 O23 1.245 . S
C39 O24 1.259 . S
Tb40 O43 2.453 . S
Tb40 O44 2.596 . S
Tb40 O45 2.374 . S
Tb40 O53 2.343 . S
Tb40 O55 2.353 . S
Tb40 O57 2.427 . S
Tb40 O58 2.513 . S
C41 O45 1.251 . S
C41 O47 1.263 . S
Tb42 O44 2.343 . S
Tb42 O47 2.353 . S
Tb42 O50 2.427 . S
Tb42 O51 2.513 . S
Tb42 O52 2.453 . S
Tb42 O53 2.596 . S
Tb42 O54 2.374 . S
O43 Tb40 2.453 . S
O43 C59 1.245 . S
O44 Tb40 2.596 . S
O44 Tb42 2.343 . S
O44 C59 1.259 . S
O45 Tb40 2.374 . S
O45 C41 1.251 . S
C46 O50 1.275 . S
C46 O51 1.246 . S
O47 C41 1.263 . S
O47 Tb42 2.353 . S
C48 O52 1.245 . S
C48 O53 1.259 . S
C49 O54 1.250 . S
C49 O55 1.263 . S
O50 Tb42 2.427 . S
O50 C46 1.275 . S
O51 Tb42 2.513 . S
O51 C46 1.246 . S
O52 Tb42 2.453 . S
O52 C48 1.245 . S
O53 Tb40 2.343 . S
O53 Tb42 2.596 . S
O53 C48 1.259 . S
O54 Tb42 2.374 . S
O54 C49 1.250 . S
O55 Tb40 2.353 . S
O55 C49 1.263 . S
C56 O57 1.275 . S
C56 O58 1.246 . S
O57 Tb40 2.427 . S
O57 C56 1.275 . S
O58 Tb40 2.513 . S
O58 C56 1.246 . S
C59 O43 1.245 . S
C59 O44 1.259 . S
Tb60 O63 2.453 . S
Tb60 O64 2.596 . S
Tb60 O65 2.374 . S
Tb60 O73 2.343 . S
Tb60 O75 2.353 . S
Tb60 O77 2.427 . S
Tb60 O78 2.513 . S
C61 O65 1.251 . S
C61 O67 1.263 . S
Tb62 O64 2.343 . S
Tb62 O67 2.353 . S
Tb62 O70 2.427 . S
Tb62 O71 2.513 . S
Tb62 O72 2.453 . S
Tb62 O73 2.596 . S
Tb62 O74 2.374 . S
O63 Tb60 2.453 . S
O63 C79 1.245 . S
O64 Tb60 2.596 . S
O64 Tb62 2.343 . S
O64 C79 1.259 . S
O65 Tb60 2.374 . S
O65 C61 1.251 . S
C66 O70 1.275 . S
C66 O71 1.246 . S
O67 C61 1.263 . S
O67 Tb62 2.353 . S
C68 O72 1.245 . S
C68 O73 1.259 . S
C69 O74 1.250 . S
C69 O75 1.263 . S
O70 Tb62 2.427 . S
O70 C66 1.275 . S
O71 Tb62 2.513 . S
O71 C66 1.246 . S
O72 Tb62 2.453 . S
O72 C68 1.245 . S
O73 Tb60 2.343 . S
O73 Tb62 2.596 . S
O73 C68 1.259 . S
O74 Tb62 2.374 . S
O74 C69 1.250 . S
O75 Tb60 2.353 . S
O75 C69 1.263 . S
C76 O77 1.275 . S
C76 O78 1.246 . S
O77 Tb60 2.427 . S
O77 C76 1.275 . S
O78 Tb60 2.513 . S
O78 C76 1.246 . S
C79 O63 1.245 . S
C79 O64 1.259 . S
Tb80 O83 2.453 . S
Tb80 O84 2.596 . S
Tb80 O85 2.374 . S
Tb80 O93 2.343 . S
Tb80 O95 2.353 . S
Tb80 O97 2.427 . S
Tb80 O98 2.513 . S
C81 O85 1.251 . S
C81 O87 1.263 . S
Tb82 O84 2.343 . S
Tb82 O87 2.353 . S
Tb82 O90 2.427 . S
Tb82 O91 2.513 . S
Tb82 O92 2.453 . S
Tb82 O93 2.596 . S
Tb82 O94 2.374 . S
O83 Tb80 2.453 . S
O83 C99 1.245 . S
O84 Tb80 2.596 . S
O84 Tb82 2.343 . S
O84 C99 1.259 . S
O85 Tb80 2.374 . S
O85 C81 1.251 . S
C86 O90 1.275 . S
C86 O91 1.246 . S
O87 C81 1.263 . S
O87 Tb82 2.353 . S
C88 O92 1.245 . S
C88 O93 1.259 . S
C89 O94 1.250 . S
C89 O95 1.263 . S
O90 Tb82 2.427 . S
O90 C86 1.275 . S
O91 Tb82 2.513 . S
O91 C86 1.246 . S
O92 Tb82 2.453 . S
O92 C88 1.245 . S
O93 Tb80 2.343 . S
O93 Tb82 2.596 . S
O93 C88 1.259 . S
O94 Tb82 2.374 . S
O94 C89 1.250 . S
O95 Tb80 2.353 . S
O95 C89 1.263 . S
C96 O97 1.275 . S
C96 O98 1.246 . S
O97 Tb80 2.427 . S
O97 C96 1.275 . S
O98 Tb80 2.513 . S
O98 C96 1.246 . S
C99 O83 1.245 . S
C99 O84 1.259 . S
Tb100 O103 2.453 . S
Tb100 O104 2.596 . S
Tb100 O105 2.374 . S
Tb100 O113 2.343 . S
Tb100 O115 2.353 . S
Tb100 O117 2.427 . S
Tb100 O118 2.513 . S
C101 O105 1.251 . S
C101 O107 1.263 . S
Tb102 O104 2.343 . S
Tb102 O107 2.353 . S
Tb102 O110 2.427 . S
Tb102 O111 2.513 . S
Tb102 O112 2.453 . S
Tb102 O113 2.596 . S
Tb102 O114 2.374 . S
O103 Tb100 2.453 . S
O103 C119 1.245 . S
O104 Tb100 2.596 . S
O104 Tb102 2.343 . S
O104 C119 1.259 . S
O105 Tb100 2.374 . S
O105 C101 1.251 . S
C106 O110 1.275 . S
C106 O111 1.246 . S
O107 C101 1.263 . S
O107 Tb102 2.353 . S
C108 O112 1.245 . S
C108 O113 1.259 . S
C109 O114 1.250 . S
C109 O115 1.263 . S
O110 Tb102 2.427 . S
O110 C106 1.275 . S
O111 Tb102 2.513 . S
O111 C106 1.246 . S
O112 Tb102 2.453 . S
O112 C108 1.245 . S
O113 Tb100 2.343 . S
O113 Tb102 2.596 . S
O113 C108 1.259 . S
O114 Tb102 2.374 . S
O114 C109 1.250 . S
O115 Tb100 2.353 . S
O115 C109 1.263 . S
C116 O117 1.275 . S
C116 O118 1.246 . S
O117 Tb100 2.427 . S
O117 C116 1.275 . S
O118 Tb100 2.513 . S
O118 C116 1.246 . S
C119 O103 1.245 . S
C119 O104 1.259 . S
Tb120 O123 2.453 . S
Tb120 O124 2.596 . S
Tb120 O125 2.374 . S
Tb120 O133 2.343 . S
Tb120 O135 2.353 . S
Tb120 O137 2.427 . S
Tb120 O138 2.513 . S
C121 O125 1.251 . S
C121 O127 1.263 . S
Tb122 O124 2.343 . S
Tb122 O127 2.353 . S
Tb122 O130 2.427 . S
Tb122 O131 2.513 . S
Tb122 O132 2.453 . S
Tb122 O133 2.596 . S
Tb122 O134 2.374 . S
O123 Tb120 2.453 . S
O123 C139 1.245 . S
O124 Tb120 2.596 . S
O124 Tb122 2.343 . S
O124 C139 1.259 . S
O125 Tb120 2.374 . S
O125 C121 1.251 . S
C126 O130 1.275 . S
C126 O131 1.246 . S
O127 C121 1.263 . S
O127 Tb122 2.353 . S
C128 O132 1.245 . S
C128 O133 1.259 . S
C129 O134 1.250 . S
C129 O135 1.263 . S
O130 Tb122 2.427 . S
O130 C126 1.275 . S
O131 Tb122 2.513 . S
O131 C126 1.246 . S
O132 Tb122 2.453 . S
O132 C128 1.245 . S
O133 Tb120 2.343 . S
O133 Tb122 2.596 . S
O133 C128 1.259 . S
O134 Tb122 2.374 . S
O134 C129 1.250 . S
O135 Tb120 2.353 . S
O135 C129 1.263 . S
C136 O137 1.275 . S
C136 O138 1.246 . S
O137 Tb120 2.427 . S
O137 C136 1.275 . S
O138 Tb120 2.513 . S
O138 C136 1.246 . S
C139 O123 1.245 . S
C139 O124 1.259 . S
Tb140 O143 2.453 . S
Tb140 O144 2.596 . S
Tb140 O145 2.374 . S
Tb140 O153 2.343 . S
Tb140 O155 2.353 . S
Tb140 O157 2.427 . S
Tb140 O158 2.513 . S
C141 O145 1.251 . S
C141 O147 1.263 . S
Tb142 O144 2.343 . S
Tb142 O147 2.353 . S
Tb142 O150 2.427 . S
Tb142 O151 2.513 . S
Tb142 O152 2.453 . S
Tb142 O153 2.596 . S
Tb142 O154 2.374 . S
O143 Tb140 2.453 . S
O143 C159 1.245 . S
O144 Tb140 2.596 . S
O144 Tb142 2.343 . S
O144 C159 1.259 . S
O145 Tb140 2.374 . S
O145 C141 1.251 . S
C146 O150 1.275 . S
C146 O151 1.246 . S
O147 C141 1.263 . S
O147 Tb142 2.353 . S
C148 O152 1.245 . S
C148 O153 1.259 . S
C149 O154 1.250 . S
C149 O155 1.263 . S
O150 Tb142 2.427 . S
O150 C146 1.275 . S
O151 Tb142 2.513 . S
O151 C146 1.246 . S
O152 Tb142 2.453 . S
O152 C148 1.245 . S
O153 Tb140 2.343 . S
O153 Tb142 2.596 . S
O153 C148 1.259 . S
O154 Tb142 2.374 . S
O154 C149 1.250 . S
O155 Tb140 2.353 . S
O155 C149 1.263 . S
C156 O157 1.275 . S
C156 O158 1.246 . S
O157 Tb140 2.427 . S
O157 C156 1.275 . S
O158 Tb140 2.513 . S
O158 C156 1.246 . S
C159 O143 1.245 . S
C159 O144 1.259 . S
Tb160 O163 2.453 . S
Tb160 O164 2.596 . S
Tb160 O165 2.374 . S
Tb160 O173 2.343 . S
Tb160 O175 2.353 . S
Tb160 O177 2.427 . S
Tb160 O178 2.513 . S
C161 O165 1.251 . S
C161 O167 1.263 . S
Tb162 O164 2.343 . S
Tb162 O167 2.353 . S
Tb162 O170 2.427 . S
Tb162 O171 2.513 . S
Tb162 O172 2.453 . S
Tb162 O173 2.596 . S
Tb162 O174 2.374 . S
O163 Tb160 2.453 . S
O163 C179 1.245 . S
O164 Tb160 2.596 . S
O164 Tb162 2.343 . S
O164 C179 1.259 . S
O165 Tb160 2.374 . S
O165 C161 1.251 . S
C166 O170 1.275 . S
C166 O171 1.246 . S
O167 C161 1.263 . S
O167 Tb162 2.353 . S
C168 O172 1.245 . S
C168 O173 1.259 . S
C169 O174 1.250 . S
C169 O175 1.263 . S
O170 Tb162 2.427 . S
O170 C166 1.275 . S
O171 Tb162 2.513 . S
O171 C166 1.246 . S
O172 Tb162 2.453 . S
O172 C168 1.245 . S
O173 Tb160 2.343 . S
O173 Tb162 2.596 . S
O173 C168 1.259 . S
O174 Tb162 2.374 . S
O174 C169 1.250 . S
O175 Tb160 2.353 . S
O175 C169 1.263 . S
C176 O177 1.275 . S
C176 O178 1.246 . S
O177 Tb160 2.427 . S
O177 C176 1.275 . S
O178 Tb160 2.513 . S
O178 C176 1.246 . S
C179 O163 1.245 . S
C179 O164 1.259 . S
Tb180 O183 2.453 . S
Tb180 O184 2.596 . S
Tb180 O185 2.374 . S
Tb180 O193 2.343 . S
Tb180 O195 2.353 . S
Tb180 O197 2.427 . S
Tb180 O198 2.513 . S
C181 O185 1.251 . S
C181 O187 1.263 . S
Tb182 O184 2.343 . S
Tb182 O187 2.353 . S
Tb182 O190 2.427 . S
Tb182 O191 2.513 . S
Tb182 O192 2.453 . S
Tb182 O193 2.596 . S
Tb182 O194 2.374 . S
O183 Tb180 2.453 . S
O183 C199 1.245 . S
O184 Tb180 2.596 . S
O184 Tb182 2.343 . S
O184 C199 1.259 . S
O185 Tb180 2.374 . S
O185 C181 1.251 . S
C186 O190 1.275 . S
C186 O191 1.246 . S
O187 C181 1.263 . S
O187 Tb182 2.353 . S
C188 O192 1.245 . S
C188 O193 1.259 . S
C189 O194 1.250 . S
C189 O195 1.263 . S
O190 Tb182 2.427 . S
O190 C186 1.275 . S
O191 Tb182 2.513 . S
O191 C186 1.246 . S
O192 Tb182 2.453 . S
O192 C188 1.245 . S
O193 Tb180 2.343 . S
O193 Tb182 2.596 . S
O193 C188 1.259 . S
O194 Tb182 2.374 . S
O194 C189 1.250 . S
O195 Tb180 2.353 . S
O195 C189 1.263 . S
C196 O197 1.275 . S
C196 O198 1.246 . S
O197 Tb180 2.427 . S
O197 C196 1.275 . S
O198 Tb180 2.513 . S
O198 C196 1.246 . S
C199 O183 1.245 . S
C199 O184 1.259 . S
Tb200 O203 2.453 . S
Tb200 O204 2.596 . S
Tb200 O205 2.374 . S
Tb200 O213 2.343 . S
Tb200 O215 2.353 . S
Tb200 O217 2.427 . S
Tb200 O218 2.513 . S
C201 O205 1.251 . S
C201 O207 1.263 . S
Tb202 O204 2.343 . S
Tb202 O207 2.353 . S
Tb202 O210 2.427 . S
Tb202 O211 2.513 . S
Tb202 O212 2.453 . S
Tb202 O213 2.596 . S
Tb202 O214 2.374 . S
O203 Tb200 2.453 . S
O203 C219 1.245 . S
O204 Tb200 2.596 . S
O204 Tb202 2.343 . S
O204 C219 1.259 . S
O205 Tb200 2.374 . S
O205 C201 1.251 . S
C206 O210 1.275 . S
C206 O211 1.246 . S
O207 C201 1.263 . S
O207 Tb202 2.353 . S
C208 O212 1.245 . S
C208 O213 1.259 . S
C209 O214 1.250 . S
C209 O215 1.263 . S
O210 Tb202 2.427 . S
O210 C206 1.275 . S
O211 Tb202 2.513 . S
O211 C206 1.246 . S
O212 Tb202 2.453 . S
O212 C208 1.245 . S
O213 Tb200 2.343 . S
O213 Tb202 2.596 . S
O213 C208 1.259 . S
O214 Tb202 2.374 . S
O214 C209 1.250 . S
O215 Tb200 2.353 . S
O215 C209 1.263 . S
C216 O217 1.275 . S
C216 O218 1.246 . S
O217 Tb200 2.427 . S
O217 C216 1.275 . S
O218 Tb200 2.513 . S
O218 C216 1.246 . S
C219 O203 1.245 . S
C219 O204 1.259 . S
Tb220 O223 2.453 . S
Tb220 O224 2.596 . S
Tb220 O225 2.374 . S
Tb220 O233 2.343 . S
Tb220 O235 2.353 . S
Tb220 O237 2.427 . S
Tb220 O238 2.513 . S
C221 O225 1.251 . S
C221 O227 1.263 . S
Tb222 O224 2.343 . S
Tb222 O227 2.353 . S
Tb222 O230 2.427 . S
Tb222 O231 2.513 . S
Tb222 O232 2.453 . S
Tb222 O233 2.596 . S
Tb222 O234 2.374 . S
O223 Tb220 2.453 . S
O223 C239 1.245 . S
O224 Tb220 2.596 . S
O224 Tb222 2.343 . S
O224 C239 1.259 . S
O225 Tb220 2.374 . S
O225 C221 1.251 . S
C226 O230 1.275 . S
C226 O231 1.246 . S
O227 C221 1.263 . S
O227 Tb222 2.353 . S
C228 O232 1.245 . S
C228 O233 1.259 . S
C229 O234 1.250 . S
C229 O235 1.263 . S
O230 Tb222 2.427 . S
O230 C226 1.275 . S
O231 Tb222 2.513 . S
O231 C226 1.246 . S
O232 Tb222 2.453 . S
O232 C228 1.245 . S
O233 Tb220 2.343 . S
O233 Tb222 2.596 . S
O233 C228 1.259 . S
O234 Tb222 2.374 . S
O234 C229 1.250 . S
O235 Tb220 2.353 . S
O235 C229 1.263 . S
C236 O237 1.275 . S
C236 O238 1.246 . S
O237 Tb220 2.427 . S
O237 C236 1.275 . S
O238 Tb220 2.513 . S
O238 C236 1.246 . S
C239 O223 1.245 . S
C239 O224 1.259 . S
C240 C241 1.369 . S
C240 C242 1.419 . S
C240 H244 0.930 1_455 S
C241 C240 1.369 . S
C241 C250 1.429 . S
C242 C240 1.419 . S
C242 C243 1.363 . S
C242 H245 0.929 . S
C243 C242 1.363 . S
C243 C249 1.428 . S
H244 C240 0.930 1_655 S
H245 C242 0.929 . S
S246 N247 1.613 . S
S246 N248 1.610 . S
N247 S246 1.613 . S
N247 C250 1.350 . S
N248 S246 1.610 . S
N248 C249 1.351 . S
C249 C243 1.428 . S
C249 N248 1.351 . S
C249 C250 1.434 . S
C250 C241 1.429 . S
C250 N247 1.350 . S
C250 C249 1.434 . S
C251 C252 1.369 1_545 S
C251 C253 1.419 1_545 S
C251 H255 0.930 . S
C252 C251 1.369 1_565 S
C252 C261 1.429 . S
C253 C251 1.419 1_565 S
C253 C254 1.363 . S
C253 H256 0.929 . S
C254 C253 1.363 . S
C254 C260 1.428 . S
H255 C251 0.930 . S
H256 C253 0.929 . S
S257 N258 1.613 . S
S257 N259 1.610 . S
N258 S257 1.613 . S
N258 C261 1.350 . S
N259 S257 1.610 . S
N259 C260 1.351 . S
C260 C254 1.428 . S
C260 N259 1.351 . S
C260 C261 1.434 . S
C261 C252 1.429 . S
C261 N258 1.350 . S
C261 C260 1.434 . S
C262 C263 1.369 . S
C262 C264 1.419 . S
C262 H266 0.930 . S
C263 C262 1.369 . S
C263 C272 1.429 . S
C264 C262 1.419 . S
C264 C265 1.363 . S
C264 H267 0.929 . S
C265 C264 1.363 . S
C265 C271 1.428 . S
H266 C262 0.930 . S
H267 C264 0.929 . S
S268 N269 1.613 . S
S268 N270 1.610 . S
N269 S268 1.613 . S
N269 C272 1.350 . S
N270 S268 1.610 . S
N270 C271 1.351 . S
C271 C265 1.428 . S
C271 N270 1.351 . S
C271 C272 1.434 . S
C272 C263 1.429 . S
C272 N269 1.350 . S
C272 C271 1.434 . S
C273 C274 1.369 . S
C273 C275 1.419 1_455 S
C273 H277 0.930 . S
C274 C273 1.369 . S
C274 C283 1.429 . S
C275 C273 1.419 1_655 S
C275 C276 1.363 1_655 S
C275 H278 0.929 . S
C276 C275 1.363 1_455 S
C276 C282 1.428 . S
H277 C273 0.930 . S
H278 C275 0.929 . S
S279 N280 1.613 . S
S279 N281 1.610 . S
N280 S279 1.613 . S
N280 C283 1.350 . S
N281 S279 1.610 . S
N281 C282 1.351 . S
C282 C276 1.428 . S
C282 N281 1.351 . S
C282 C283 1.434 . S
C283 C274 1.429 . S
C283 N280 1.350 . S
C283 C282 1.434 . S
C284 C285 1.369 . S
C284 C286 1.419 . S
C284 H288 0.930 1_565 S
C285 C284 1.369 . S
C285 C294 1.429 . S
C286 C284 1.419 . S
C286 C287 1.363 . S
C286 H289 0.929 . S
C287 C286 1.363 . S
C287 C293 1.428 . S
H288 C284 0.930 1_545 S
H289 C286 0.929 . S
S290 N291 1.613 . S
S290 N292 1.610 . S
N291 S290 1.613 . S
N291 C294 1.350 . S
N292 S290 1.610 . S
N292 C293 1.351 . S
C293 C287 1.428 . S
C293 N292 1.351 . S
C293 C294 1.434 . S
C294 C285 1.429 . S
C294 N291 1.350 . S
C294 C293 1.434 . S
C295 C296 1.369 . S
C295 C297 1.419 . S
C295 H299 0.930 . S
C296 C295 1.369 . S
C296 C305 1.429 . S
C297 C295 1.419 . S
C297 C298 1.363 . S
C297 H300 0.929 . S
C298 C297 1.363 . S
C298 C304 1.428 . S
H299 C295 0.930 . S
H300 C297 0.929 . S
S301 N302 1.613 . S
S301 N303 1.610 . S
N302 S301 1.613 . S
N302 C305 1.350 . S
N303 S301 1.610 . S
N303 C304 1.351 . S
C304 C298 1.428 . S
C304 N303 1.351 . S
C304 C305 1.434 . S
C305 C296 1.429 . S
C305 N302 1.350 . S
C305 C304 1.434 . S
C306 C307 1.369 1_565 S
C306 C308 1.419 1_565 S
C306 H310 0.930 . S
C307 C306 1.369 1_545 S
C307 C316 1.429 . S
C308 C306 1.419 1_545 S
C308 C309 1.363 . S
C308 H311 0.929 . S
C309 C308 1.363 . S
C309 C315 1.428 . S
H310 C306 0.930 . S
H311 C308 0.929 . S
S312 N313 1.613 . S
S312 N314 1.610 . S
N313 S312 1.613 . S
N313 C316 1.350 . S
N314 S312 1.610 . S
N314 C315 1.351 . S
C315 C309 1.428 . S
C315 N314 1.351 . S
C315 C316 1.434 . S
C316 C307 1.429 . S
C316 N313 1.350 . S
C316 C315 1.434 . S
C317 C318 1.369 . S
C317 C319 1.419 . S
C317 H321 0.930 . S
C318 C317 1.369 . S
C318 C327 1.429 . S
C319 C317 1.419 . S
C319 C320 1.363 . S
C319 H322 0.929 . S
C320 C319 1.363 . S
C320 C326 1.428 . S
H321 C317 0.930 . S
H322 C319 0.929 . S
S323 N324 1.613 . S
S323 N325 1.610 . S
N324 S323 1.613 . S
N324 C327 1.350 . S
N325 S323 1.610 . S
N325 C326 1.351 . S
C326 C320 1.428 . S
C326 N325 1.351 . S
C326 C327 1.434 . S
C327 C318 1.429 . S
C327 N324 1.350 . S
C327 C326 1.434 . S
C328 C329 1.369 . S
C328 C330 1.419 1_655 S
C328 H332 0.930 . S
C329 C328 1.369 . S
C329 C338 1.429 . S
C330 C328 1.419 1_455 S
C330 C331 1.363 1_455 S
C330 H333 0.929 . S
C331 C330 1.363 1_655 S
C331 C337 1.428 . S
H332 C328 0.930 . S
H333 C330 0.929 . S
S334 N335 1.613 . S
S334 N336 1.610 . S
N335 S334 1.613 . S
N335 C338 1.350 . S
N336 S334 1.610 . S
N336 C337 1.351 . S
C337 C331 1.428 . S
C337 N336 1.351 . S
C337 C338 1.434 . S
C338 C329 1.429 . S
C338 N335 1.350 . S
C338 C337 1.434 . S
C339 C340 1.369 . S
C339 C341 1.419 . S
C339 H343 0.930 . S
C340 C339 1.369 . S
C340 C349 1.429 . S
C341 C339 1.419 . S
C341 C342 1.363 . S
C341 H344 0.929 . S
C342 C341 1.363 . S
C342 C348 1.428 . S
H343 C339 0.930 . S
H344 C341 0.929 . S
S345 N346 1.613 . S
S345 N347 1.610 . S
N346 S345 1.613 . S
N346 C349 1.350 . S
N347 S345 1.610 . S
N347 C348 1.351 . S
C348 C342 1.428 . S
C348 N347 1.351 . S
C348 C349 1.434 . S
C349 C340 1.429 . S
C349 N346 1.350 . S
C349 C348 1.434 . S
C350 C351 1.369 . S
C350 C352 1.419 . S
C350 H354 0.930 . S
C351 C350 1.369 . S
C351 C360 1.429 . S
C352 C350 1.419 . S
C352 C353 1.363 . S
C352 H355 0.929 . S
C353 C352 1.363 . S
C353 C359 1.428 . S
H354 C350 0.930 . S
H355 C352 0.929 . S
S356 N357 1.613 . S
S356 N358 1.610 . S
N357 S356 1.613 . S
N357 C360 1.350 . S
N358 S356 1.610 . S
N358 C359 1.351 . S
C359 C353 1.428 . S
C359 N358 1.351 . S
C359 C360 1.434 . S
C360 C351 1.429 . S
C360 N357 1.350 . S
C360 C359 1.434 . S
C361 C362 1.369 1_455 S
C361 C363 1.419 1_455 S
C361 H365 0.930 . S
C362 C361 1.369 1_655 S
C362 C371 1.429 . S
C363 C361 1.419 1_655 S
C363 C364 1.363 . S
C363 H366 0.929 . S
C364 C363 1.363 . S
C364 C370 1.428 . S
H365 C361 0.930 . S
H366 C363 0.929 . S
S367 N368 1.613 . S
S367 N369 1.610 . S
N368 S367 1.613 . S
N368 C371 1.350 . S
N369 S367 1.610 . S
N369 C370 1.351 . S
C370 C364 1.428 . S
C370 N369 1.351 . S
C370 C371 1.434 . S
C371 C362 1.429 . S
C371 N368 1.350 . S
C371 C370 1.434 . S
C372 C373 1.369 . S
C372 C374 1.419 . S
C372 H376 0.930 . S
C373 C372 1.369 . S
C373 C382 1.429 . S
C374 C372 1.419 . S
C374 C375 1.363 . S
C374 H377 0.929 . S
C375 C374 1.363 . S
C375 C381 1.428 . S
H376 C372 0.930 . S
H377 C374 0.929 . S
S378 N379 1.613 . S
S378 N380 1.610 . S
N379 S378 1.613 . S
N379 C382 1.350 . S
N380 S378 1.610 . S
N380 C381 1.351 . S
C381 C375 1.428 . S
C381 N380 1.351 . S
C381 C382 1.434 . S
C382 C373 1.429 . S
C382 N379 1.350 . S
C382 C381 1.434 . S
C383 C384 1.369 . S
C383 C385 1.419 . S
C383 H387 0.930 . S
C384 C383 1.369 . S
C384 C393 1.429 . S
C385 C383 1.419 . S
C385 C386 1.363 . S
C385 H388 0.929 . S
C386 C385 1.363 . S
C386 C392 1.428 . S
H387 C383 0.930 . S
H388 C385 0.929 . S
S389 N390 1.613 . S
S389 N391 1.610 . S
N390 S389 1.613 . S
N390 C393 1.350 . S
N391 S389 1.610 . S
N391 C392 1.351 . S
C392 C386 1.428 . S
C392 N391 1.351 . S
C392 C393 1.434 . S
C393 C384 1.429 . S
C393 N390 1.350 . S
C393 C392 1.434 . S
C394 C395 1.369 . S
C394 C396 1.419 . S
C394 H398 0.930 . S
C395 C394 1.369 . S
C395 C404 1.429 . S
C396 C394 1.419 . S
C396 C397 1.363 . S
C396 H399 0.929 . S
C397 C396 1.363 . S
C397 C403 1.428 . S
H398 C394 0.930 . S
H399 C396 0.929 . S
S400 N401 1.613 . S
S400 N402 1.610 . S
N401 S400 1.613 . S
N401 C404 1.350 . S
N402 S400 1.610 . S
N402 C403 1.351 . S
C403 C397 1.428 . S
C403 N402 1.351 . S
C403 C404 1.434 . S
C404 C395 1.429 . S
C404 N401 1.350 . S
C404 C403 1.434 . S
C405 C406 1.369 . S
C405 C407 1.419 . S
C405 H409 0.930 . S
C406 C405 1.369 . S
C406 C415 1.429 . S
C407 C405 1.419 . S
C407 C408 1.363 . S
C407 H410 0.929 . S
C408 C407 1.363 . S
C408 C414 1.428 . S
H409 C405 0.930 . S
H410 C407 0.929 . S
S411 N412 1.613 . S
S411 N413 1.610 . S
N412 S411 1.613 . S
N412 C415 1.350 . S
N413 S411 1.610 . S
N413 C414 1.351 . S
C414 C408 1.428 . S
C414 N413 1.351 . S
C414 C415 1.434 . S
C415 C406 1.429 . S
C415 N412 1.350 . S
C415 C414 1.434 . S
C416 C417 1.369 . S
C416 C418 1.419 . S
C416 H420 0.930 . S
C417 C416 1.369 . S
C417 C426 1.429 . S
C418 C416 1.419 . S
C418 C419 1.363 . S
C418 H421 0.929 . S
C419 C418 1.363 . S
C419 C425 1.428 . S
H420 C416 0.930 . S
H421 C418 0.929 . S
S422 N423 1.613 . S
S422 N424 1.610 . S
N423 S422 1.613 . S
N423 C426 1.350 . S
N424 S422 1.610 . S
N424 C425 1.351 . S
C425 C419 1.428 . S
C425 N424 1.351 . S
C425 C426 1.434 . S
C426 C417 1.429 . S
C426 N423 1.350 . S
C426 C425 1.434 . S
C427 C428 1.369 . S
C427 C429 1.419 . S
C427 H431 0.930 . S
C428 C427 1.369 . S
C428 C437 1.429 . S
C429 C427 1.419 . S
C429 C430 1.363 . S
C429 H432 0.929 . S
C430 C429 1.363 . S
C430 C436 1.428 . S
H431 C427 0.930 . S
H432 C429 0.929 . S
S433 N434 1.613 . S
S433 N435 1.610 . S
N434 S433 1.613 . S
N434 C437 1.350 . S
N435 S433 1.610 . S
N435 C436 1.351 . S
C436 C430 1.428 . S
C436 N435 1.351 . S
C436 C437 1.434 . S
C437 C428 1.429 . S
C437 N434 1.350 . S
C437 C436 1.434 . S
C438 C439 1.369 1_545 S
C438 C440 1.419 . S
C438 H442 0.930 . S
C439 C438 1.369 1_565 S
C439 C448 1.429 1_556 S
C440 C438 1.419 . S
C440 C441 1.363 1_556 S
C440 H443 0.929 . S
C441 C440 1.363 1_554 S
C441 C447 1.428 1_545 S
H442 C438 0.930 . S
H443 C440 0.929 . S
S444 N445 1.613 . S
S444 N446 1.610 . S
N445 S444 1.613 . S
N445 C448 1.350 . S
N446 S444 1.610 . S
N446 C447 1.351 . S
C447 C441 1.428 1_565 S
C447 N446 1.351 . S
C447 C448 1.434 . S
C448 C439 1.429 1_554 S
C448 N445 1.350 . S
C448 C447 1.434 . S
C449 C450 1.369 . S
C449 C451 1.419 . S
C449 H453 0.930 . S
C450 C449 1.369 . S
C450 C459 1.429 . S
C451 C449 1.419 . S
C451 C452 1.363 . S
C451 H454 0.929 . S
C452 C451 1.363 . S
C452 C458 1.428 . S
H453 C449 0.930 . S
H454 C451 0.929 . S
S455 N456 1.613 . S
S455 N457 1.610 . S
N456 S455 1.613 . S
N456 C459 1.350 . S
N457 S455 1.610 . S
N457 C458 1.351 . S
C458 C452 1.428 . S
C458 N457 1.351 . S
C458 C459 1.434 . S
C459 C450 1.429 . S
C459 N456 1.350 . S
C459 C458 1.434 . S
C460 C461 1.369 . S
C460 C462 1.437 1_455 S
C460 H464 0.930 . S
C461 C460 1.369 . S
C461 C470 1.429 1_556 S
C462 C460 1.437 1_655 S
C462 C463 1.343 1_556 S
C462 H465 0.932 . S
C463 C462 1.343 1_554 S
C463 C469 1.428 . S
H464 C460 0.930 . S
H465 C462 0.932 . S
S466 N467 1.613 . S
S466 N468 1.610 1_455 S
N467 S466 1.613 . S
N467 C470 1.350 . S
N468 S466 1.610 1_655 S
N468 C469 1.351 . S
C469 C463 1.428 . S
C469 N468 1.351 . S
C469 C470 1.434 1_655 S
C470 C461 1.429 1_554 S
C470 N467 1.350 . S
C470 C469 1.434 1_455 S
C471 C472 1.369 . S
C471 C473 1.419 1_545 S
C471 H475 0.930 . S
C472 C471 1.369 . S
C472 C481 1.429 . S
C473 C471 1.419 1_565 S
C473 C474 1.363 . S
C473 H476 0.929 . S
C474 C473 1.363 . S
C474 C480 1.428 . S
H475 C471 0.930 . S
H476 C473 0.929 . S
S477 N478 1.613 1_565 S
S477 N479 1.610 . S
N478 S477 1.613 1_545 S
N478 C481 1.350 . S
N479 S477 1.610 . S
N479 C480 1.351 . S
C480 C474 1.428 . S
C480 N479 1.351 . S
C480 C481 1.434 1_565 S
C481 C472 1.429 . S
C481 N478 1.350 . S
C481 C480 1.434 1_545 S
C482 C483 1.369 . S
C482 C484 1.419 1_554 S
C482 H486 0.930 . S
C483 C482 1.369 . S
C483 C492 1.429 . S
C484 C482 1.419 1_556 S
C484 C485 1.363 . S
C484 H487 0.929 . S
C485 C484 1.363 . S
C485 C491 1.428 . S
H486 C482 0.930 . S
H487 C484 0.929 . S
S488 N489 1.613 1_556 S
S488 N490 1.610 . S
N489 S488 1.613 1_554 S
N489 C492 1.350 . S
N490 S488 1.610 . S
N490 C491 1.351 . S
C491 C485 1.428 . S
C491 N490 1.351 . S
C491 C492 1.434 1_556 S
C492 C483 1.429 . S
C492 N489 1.350 . S
C492 C491 1.434 1_554 S
C493 C494 1.369 . S
C493 C495 1.419 1_455 S
C493 H497 0.930 . S
C494 C493 1.369 . S
C494 C503 1.429 . S
C495 C493 1.419 1_655 S
C495 C496 1.363 . S
C495 H498 0.929 . S
C496 C495 1.363 . S
C496 C502 1.428 . S
H497 C493 0.930 . S
H498 C495 0.929 . S
S499 N500 1.596 1_655 S
S499 N501 1.610 . S
N500 S499 1.596 1_455 S
N500 C503 1.357 . S
N501 S499 1.610 . S
N501 C502 1.351 . S
C502 C496 1.428 . S
C502 N501 1.351 . S
C502 C503 1.434 1_655 S
C503 C494 1.429 . S
C503 N500 1.357 . S
C503 C502 1.434 1_455 S
C504 C505 1.369 . S
C504 C506 1.419 . S
C504 H508 0.930 . S
C505 C504 1.369 . S
C505 C514 1.429 . S
C506 C504 1.419 . S
C506 C507 1.363 . S
C506 H509 0.929 . S
C507 C506 1.363 . S
C507 C513 1.428 . S
H508 C504 0.930 . S
H509 C506 0.929 . S
S510 N511 1.613 . S
S510 N512 1.610 . S
N511 S510 1.613 . S
N511 C514 1.350 . S
N512 S510 1.610 . S
N512 C513 1.351 . S
C513 C507 1.428 . S
C513 N512 1.351 . S
C513 C514 1.434 . S
C514 C505 1.429 . S
C514 N511 1.350 . S
C514 C513 1.434 . S
C515 C516 1.369 . S
C515 C517 1.419 . S
C515 H519 0.930 . S
C516 C515 1.369 . S
C516 C525 1.429 . S
C517 C515 1.419 . S
C517 C518 1.363 . S
C517 H520 0.929 . S
C518 C517 1.363 . S
C518 C524 1.428 . S
H519 C515 0.930 . S
H520 C517 0.929 . S
S521 N522 1.613 . S
S521 N523 1.610 . S
N522 S521 1.613 . S
N522 C525 1.350 . S
N523 S521 1.610 . S
N523 C524 1.351 . S
C524 C518 1.428 . S
C524 N523 1.351 . S
C524 C525 1.434 . S
C525 C516 1.429 . S
C525 N522 1.350 . S
C525 C524 1.434 . S
C526 C527 1.369 . S
C526 C528 1.419 . S
C526 H530 0.930 . S
C527 C526 1.369 . S
C527 C536 1.429 . S
C528 C526 1.419 . S
C528 C529 1.363 . S
C528 H531 0.929 . S
C529 C528 1.363 . S
C529 C535 1.428 . S
H530 C526 0.930 . S
H531 C528 0.929 . S
S532 N533 1.613 . S
S532 N534 1.610 . S
N533 S532 1.613 . S
N533 C536 1.350 . S
N534 S532 1.610 . S
N534 C535 1.351 . S
C535 C529 1.428 . S
C535 N534 1.351 . S
C535 C536 1.434 . S
C536 C527 1.429 . S
C536 N533 1.350 . S
C536 C535 1.434 . S
C537 C538 1.369 . S
C537 C539 1.419 . S
C537 H541 0.930 . S
C538 C537 1.369 . S
C538 C547 1.429 . S
C539 C537 1.419 . S
C539 C540 1.363 . S
C539 H542 0.929 . S
C540 C539 1.363 . S
C540 C546 1.428 . S
H541 C537 0.930 . S
H542 C539 0.929 . S
S543 N544 1.613 . S
S543 N545 1.610 . S
N544 S543 1.613 . S
N544 C547 1.350 . S
N545 S543 1.610 . S
N545 C546 1.351 . S
C546 C540 1.428 . S
C546 N545 1.351 . S
C546 C547 1.434 . S
C547 C538 1.429 . S
C547 N544 1.350 . S
C547 C546 1.434 . S
C548 C549 1.369 . S
C548 C550 1.419 . S
C548 H552 0.930 . S
C549 C548 1.369 . S
C549 C558 1.429 . S
C550 C548 1.419 . S
C550 C551 1.363 . S
C550 H553 0.929 . S
C551 C550 1.363 . S
C551 C557 1.428 . S
H552 C548 0.930 . S
H553 C550 0.929 . S
S554 N555 1.613 . S
S554 N556 1.610 . S
N555 S554 1.613 . S
N555 C558 1.350 . S
N556 S554 1.610 . S
N556 C557 1.351 . S
C557 C551 1.428 . S
C557 N556 1.351 . S
C557 C558 1.434 . S
C558 C549 1.429 . S
C558 N555 1.350 . S
C558 C557 1.434 . S
C559 C560 1.369 . S
C559 C561 1.419 . S
C559 H563 0.930 . S
C560 C559 1.369 . S
C560 C569 1.429 . S
C561 C559 1.419 . S
C561 C562 1.363 . S
C561 H564 0.929 . S
C562 C561 1.363 . S
C562 C568 1.428 . S
H563 C559 0.930 . S
H564 C561 0.929 . S
S565 N566 1.613 . S
S565 N567 1.610 . S
N566 S565 1.613 . S
N566 C569 1.350 . S
N567 S565 1.610 . S
N567 C568 1.351 . S
C568 C562 1.428 . S
C568 N567 1.351 . S
C568 C569 1.434 . S
C569 C560 1.429 . S
C569 N566 1.350 . S
C569 C568 1.434 . S
C570 C571 1.369 . S
C570 C572 1.419 . S
C570 H574 0.930 . S
C571 C570 1.369 . S
C571 C580 1.429 . S
C572 C570 1.419 . S
C572 C573 1.363 . S
C572 H575 0.929 . S
C573 C572 1.363 . S
C573 C579 1.428 . S
H574 C570 0.930 . S
H575 C572 0.929 . S
S576 N577 1.613 . S
S576 N578 1.610 . S
N577 S576 1.613 . S
N577 C580 1.350 . S
N578 S576 1.610 . S
N578 C579 1.351 . S
C579 C573 1.428 . S
C579 N578 1.351 . S
C579 C580 1.434 . S
C580 C571 1.429 . S
C580 N577 1.350 . S
C580 C579 1.434 . S
C581 C582 1.369 . S
C581 C583 1.419 . S
C581 H585 0.930 . S
C582 C581 1.369 . S
C582 C591 1.429 . S
C583 C581 1.419 . S
C583 C584 1.363 . S
C583 H586 0.929 . S
C584 C583 1.363 . S
C584 C590 1.428 . S
H585 C581 0.930 . S
H586 C583 0.929 . S
S587 N588 1.613 . S
S587 N589 1.610 . S
N588 S587 1.613 . S
N588 C591 1.350 . S
N589 S587 1.610 . S
N589 C590 1.351 . S
C590 C584 1.428 . S
C590 N589 1.351 . S
C590 C591 1.434 . S
C591 C582 1.429 . S
C591 N588 1.350 . S
C591 C590 1.434 . S
C592 C593 1.369 . S
C592 C594 1.419 . S
C592 H596 0.930 . S
C593 C592 1.369 . S
C593 C602 1.429 . S
C594 C592 1.419 . S
C594 C595 1.363 . S
C594 H597 0.929 . S
C595 C594 1.363 . S
C595 C601 1.428 . S
H596 C592 0.930 . S
H597 C594 0.929 . S
S598 N599 1.613 . S
S598 N600 1.610 . S
N599 S598 1.613 . S
N599 C602 1.350 . S
N600 S598 1.610 . S
N600 C601 1.351 . S
C601 C595 1.428 . S
C601 N600 1.351 . S
C601 C602 1.434 . S
C602 C593 1.429 . S
C602 N599 1.350 . S
C602 C601 1.434 . S
C603 C604 1.369 . S
C603 C605 1.419 . S
C603 H607 0.930 . S
C604 C603 1.369 . S
C604 C613 1.429 . S
C605 C603 1.419 . S
C605 C606 1.363 . S
C605 H608 0.929 . S
C606 C605 1.363 . S
C606 C612 1.428 . S
H607 C603 0.930 . S
H608 C605 0.929 . S
S609 N610 1.613 . S
S609 N611 1.610 . S
N610 S609 1.613 . S
N610 C613 1.350 . S
N611 S609 1.610 . S
N611 C612 1.351 . S
C612 C606 1.428 . S
C612 N611 1.351 . S
C612 C613 1.434 . S
C613 C604 1.429 . S
C613 N610 1.350 . S
C613 C612 1.434 . S
C614 C615 1.369 . S
C614 C616 1.419 . S
C614 H618 0.930 . S
C615 C614 1.369 . S
C615 C624 1.429 . S
C616 C614 1.419 . S
C616 C617 1.363 . S
C616 H619 0.929 . S
C617 C616 1.363 . S
C617 C623 1.428 . S
H618 C614 0.930 . S
H619 C616 0.929 . S
S620 N621 1.613 . S
S620 N622 1.610 . S
N621 S620 1.613 . S
N621 C624 1.350 . S
N622 S620 1.610 . S
N622 C623 1.351 . S
C623 C617 1.428 . S
C623 N622 1.351 . S
C623 C624 1.434 . S
C624 C615 1.429 . S
C624 N621 1.350 . S
C624 C623 1.434 . S
C625 C626 1.369 . S
C625 C627 1.419 . S
C625 H629 0.930 . S
C626 C625 1.369 . S
C626 C635 1.429 . S
C627 C625 1.419 . S
C627 C628 1.363 . S
C627 H630 0.929 . S
C628 C627 1.363 . S
C628 C634 1.428 . S
H629 C625 0.930 . S
H630 C627 0.929 . S
S631 N632 1.613 . S
S631 N633 1.610 . S
N632 S631 1.613 . S
N632 C635 1.350 . S
N633 S631 1.610 . S
N633 C634 1.351 . S
C634 C628 1.428 . S
C634 N633 1.351 . S
C634 C635 1.434 . S
C635 C626 1.429 . S
C635 N632 1.350 . S
C635 C634 1.434 . S
C241 C59 1.417 1_455 S
C243 C6 1.378 . S
C252 C68 1.413 1_565 S
C254 C36 1.376 1_455 S
C263 C46 1.376 1_565 S
C265 C99 1.416 . S
C274 C76 1.375 . S
C276 C108 1.414 1_455 S
C285 C19 1.418 1_565 S
C287 C86 1.379 1_455 S
C296 C28 1.416 . S
C298 C116 1.378 1_565 S
C307 C208 1.413 1_545 S
C309 C136 1.377 . S
C318 C146 1.383 1_655 S
C320 C239 1.417 . S
C329 C176 1.374 1_545 S
C331 C128 1.414 1_655 S
C340 C186 1.378 . S
C342 C159 1.417 1_545 S
C351 C216 1.376 1_655 S
C353 C168 1.414 . S
C362 C199 1.414 1_655 S
C364 C226 1.376 1_545 S
C373 C61 1.716 . S
C375 C9 1.717 . S
C384 C21 1.721 . S
C386 C89 1.721 . S
C395 C49 1.720 . S
C397 C101 1.720 . S
C406 C121 1.720 . S
C408 C189 1.719 . S
C417 C149 1.722 . S
C419 C201 1.722 . S
C428 C161 1.719 . S
C430 C229 1.719 . S
C439 C141 1.950 . S
C441 C1 1.945 . S
C450 C29 1.950 . S
C452 C169 1.947 . S
C461 C181 1.949 . S
C463 C41 1.945 . S
C472 C69 1.944 . S
C474 C209 1.948 . S
C483 C81 1.947 . S
C485 C221 1.945 . S
C494 C129 1.944 . S
C496 C109 1.949 . S
C505 C48 1.481 . S
C507 C16 1.559 . S
C516 C26 1.557 . S
C518 C79 1.477 . S
C527 C56 1.556 . S
C529 C88 1.474 . S
C538 C66 1.559 . S
C540 C119 1.480 . S
C549 C8 1.478 . S
C551 C96 1.558 . S
C560 C39 1.473 . S
C562 C106 1.557 . S
C571 C219 1.480 . S
C573 C126 1.559 . S
C582 C156 1.560 . S
C584 C228 1.482 . S
C593 C166 1.557 . S
C595 C139 1.475 . S
C604 C148 1.477 . S
C606 C196 1.558 . S
C615 C206 1.559 . S
C617 C179 1.479 . S
C626 C236 1.557 . S
C628 C188 1.475 . S
