# Generated by pormake.
# Topology uou, (4)-cn, num edge types: 1
# Building blocks:
#     Node 0, Type 0, BuildingBlock: GALJAG_clean_sbu_0, # of connection points: 4
#     Node 1, Type 0, BuildingBlock: GALJAG_clean_sbu_0, # of connection points: 4
#     Node 2, Type 0, BuildingBlock: GALJAG_clean_sbu_0, # of connection points: 4
#     Node 3, Type 0, BuildingBlock: GALJAG_clean_sbu_0, # of connection points: 4
#     Node 4, Type 0, BuildingBlock: GALJAG_clean_sbu_0, # of connection points: 4
#     Node 5, Type 0, BuildingBlock: GALJAG_clean_sbu_0, # of connection points: 4
#     Node 6, Type 0, BuildingBlock: GALJAG_clean_sbu_0, # of connection points: 4
#     Node 7, Type 0, BuildingBlock: GALJAG_clean_sbu_0, # of connection points: 4
#     Node 8, Type 0, BuildingBlock: GALJAG_clean_sbu_0, # of connection points: 4
#     Node 9, Type 0, BuildingBlock: GALJAG_clean_sbu_0, # of connection points: 4
#     Node 10, Type 0, BuildingBlock: GALJAG_clean_sbu_0, # of connection points: 4
#     Node 11, Type 0, BuildingBlock: GALJAG_clean_sbu_0, # of connection points: 4
#     Node 12, Type 0, BuildingBlock: GALJAG_clean_sbu_0, # of connection points: 4
#     Node 13, Type 0, BuildingBlock: GALJAG_clean_sbu_0, # of connection points: 4
#     Node 14, Type 0, BuildingBlock: GALJAG_clean_sbu_0, # of connection points: 4
#     Node 15, Type 0, BuildingBlock: GALJAG_clean_sbu_0, # of connection points: 4
#     Edge 16, Type (0, 0), BuildingBlock: MIFKUJ_clean_linker_0, # of connection points: 2
#     Edge 17, Type (0, 0), BuildingBlock: MIFKUJ_clean_linker_0, # of connection points: 2
#     Edge 18, Type (0, 0), BuildingBlock: MIFKUJ_clean_linker_0, # of connection points: 2
#     Edge 19, Type (0, 0), BuildingBlock: MIFKUJ_clean_linker_0, # of connection points: 2
#     Edge 20, Type (0, 0), BuildingBlock: MIFKUJ_clean_linker_0, # of connection points: 2
#     Edge 21, Type (0, 0), BuildingBlock: MIFKUJ_clean_linker_0, # of connection points: 2
#     Edge 22, Type (0, 0), BuildingBlock: MIFKUJ_clean_linker_0, # of connection points: 2
#     Edge 23, Type (0, 0), BuildingBlock: MIFKUJ_clean_linker_0, # of connection points: 2
#     Edge 24, Type (0, 0), BuildingBlock: MIFKUJ_clean_linker_0, # of connection points: 2
#     Edge 25, Type (0, 0), BuildingBlock: MIFKUJ_clean_linker_0, # of connection points: 2
#     Edge 26, Type (0, 0), BuildingBlock: MIFKUJ_clean_linker_0, # of connection points: 2
#     Edge 27, Type (0, 0), BuildingBlock: MIFKUJ_clean_linker_0, # of connection points: 2
#     Edge 28, Type (0, 0), BuildingBlock: MIFKUJ_clean_linker_0, # of connection points: 2
#     Edge 29, Type (0, 0), BuildingBlock: MIFKUJ_clean_linker_0, # of connection points: 2
#     Edge 30, Type (0, 0), BuildingBlock: MIFKUJ_clean_linker_0, # of connection points: 2
#     Edge 31, Type (0, 0), BuildingBlock: MIFKUJ_clean_linker_0, # of connection points: 2
#     Edge 32, Type (0, 0), BuildingBlock: MIFKUJ_clean_linker_0, # of connection points: 2
#     Edge 33, Type (0, 0), BuildingBlock: MIFKUJ_clean_linker_0, # of connection points: 2
#     Edge 34, Type (0, 0), BuildingBlock: MIFKUJ_clean_linker_0, # of connection points: 2
#     Edge 35, Type (0, 0), BuildingBlock: MIFKUJ_clean_linker_0, # of connection points: 2
#     Edge 36, Type (0, 0), BuildingBlock: MIFKUJ_clean_linker_0, # of connection points: 2
#     Edge 37, Type (0, 0), BuildingBlock: MIFKUJ_clean_linker_0, # of connection points: 2
#     Edge 38, Type (0, 0), BuildingBlock: MIFKUJ_clean_linker_0, # of connection points: 2
#     Edge 39, Type (0, 0), BuildingBlock: MIFKUJ_clean_linker_0, # of connection points: 2
#     Edge 40, Type (0, 0), BuildingBlock: MIFKUJ_clean_linker_0, # of connection points: 2
#     Edge 41, Type (0, 0), BuildingBlock: MIFKUJ_clean_linker_0, # of connection points: 2
#     Edge 42, Type (0, 0), BuildingBlock: MIFKUJ_clean_linker_0, # of connection points: 2
#     Edge 43, Type (0, 0), BuildingBlock: MIFKUJ_clean_linker_0, # of connection points: 2
#     Edge 44, Type (0, 0), BuildingBlock: MIFKUJ_clean_linker_0, # of connection points: 2
#     Edge 45, Type (0, 0), BuildingBlock: MIFKUJ_clean_linker_0, # of connection points: 2
#     Edge 46, Type (0, 0), BuildingBlock: MIFKUJ_clean_linker_0, # of connection points: 2
#     Edge 47, Type (0, 0), BuildingBlock: MIFKUJ_clean_linker_0, # of connection points: 2
# Relax obj value: 0.005
# Max RMSD: 0.017
# Mean RMSD: 0.017
data_MOF--net-uou--node1-GALJAG_clean_sbu_0--edge1-MIFKUJ_clean_linker_0
_symmetry_space_group_name_H-M    P1
_symmetry_Int_Tables_number       1
_symmetry_cell_setting            triclinic
loop_
_symmetry_equiv_pos_as_xyz
'x, y, z'
_cell_length_a     46.184081
_cell_length_b     56.270215
_cell_length_c     70.494835
_cell_angle_alpha  89.974646
_cell_angle_beta   89.997273
_cell_angle_gamma 90.000234
loop_
_atom_site_label
_atom_site_type_symbol
_atom_site_fract_x
_atom_site_fract_y
_atom_site_fract_z
_atom_type_partial_charge
In0 In 0.05714 0.07785 0.11946 0.0
O1 O 0.10665 0.08018 0.11803 0.0
O2 O 0.08692 0.04599 0.11768 0.0
C3 C 0.042 0.12416 0.11776 0.0
C4 C 0.03368 0.05939 0.08775 0.0
C5 C 0.043 0.06782 0.15561 0.0
O6 O 0.06721 0.11714 0.11359 0.0
O7 O 0.02483 0.10792 0.12275 0.0
O8 O 0.02593 0.06396 0.14196 0.0
O9 O 0.06712 0.07662 0.151 0.0
C10 C 0.11006 0.05789 0.1173 0.0
O11 O 0.02783 0.05151 0.10407 0.0
O12 O 0.05085 0.07682 0.08751 0.0
In13 In 0.43745 0.91729 0.11461 0.0
O14 O 0.38794 0.91606 0.11278 0.0
O15 O 0.40856 0.94976 0.1153 0.0
C16 C 0.4526 0.87117 0.11127 0.0
C17 C 0.45939 0.93675 0.08283 0.0
C18 C 0.45282 0.92477 0.15095 0.0
O19 O 0.42663 0.87797 0.10958 0.0
O20 O 0.47052 0.88757 0.11451 0.0
O21 O 0.46883 0.93067 0.1372 0.0
O22 O 0.42911 0.91528 0.14633 0.0
C23 C 0.38513 0.93839 0.11383 0.0
O24 O 0.46696 0.94345 0.09919 0.0
O25 O 0.44118 0.92004 0.08257 0.0
In26 In 0.56292 0.91793 0.38098 0.0
O27 O 0.53437 0.94488 0.39627 0.0
O28 O 0.5623 0.92317 0.4129 0.0
C29 C 0.54422 0.92399 0.34514 0.0
C30 C 0.61531 0.93889 0.38025 0.0
C31 C 0.54871 0.87172 0.3855 0.0
O32 O 0.52903 0.92974 0.35931 0.0
O33 O 0.56865 0.91528 0.34909 0.0
O34 O 0.57454 0.87831 0.38278 0.0
O35 O 0.5305 0.88837 0.38615 0.0
C36 C 0.5437 0.93959 0.41258 0.0
O37 O 0.61213 0.91733 0.38492 0.0
O38 O 0.59222 0.94953 0.37585 0.0
In39 In 0.93908 0.08466 0.38507 0.0
O40 O 0.96942 0.06078 0.40191 0.0
O41 O 0.94117 0.08363 0.41728 0.0
C42 C 0.95597 0.07315 0.34968 0.0
C43 C 0.88677 0.06351 0.38595 0.0
C44 C 0.95353 0.13115 0.38669 0.0
O45 O 0.97124 0.06863 0.36408 0.0
O46 O 0.93225 0.08337 0.35315 0.0
O47 O 0.92786 0.1241 0.38932 0.0
O48 O 0.97149 0.11484 0.38333 0.0
C49 C 0.96051 0.06781 0.41789 0.0
O50 O 0.88951 0.0857 0.38364 0.0
O51 O 0.91025 0.05231 0.3878 0.0
In52 In 0.93594 0.918 0.8843 0.0
O53 O 0.96449 0.94426 0.90023 0.0
O54 O 0.93873 0.92028 0.91641 0.0
C55 C 0.95227 0.92642 0.84825 0.0
C56 C 0.88337 0.93865 0.88545 0.0
C57 C 0.95155 0.87194 0.88731 0.0
O58 O 0.96769 0.93236 0.86226 0.0
O59 O 0.92874 0.91636 0.85247 0.0
O60 O 0.92531 0.87829 0.88669 0.0
O61 O 0.96954 0.88876 0.88658 0.0
C62 C 0.9566 0.93725 0.91646 0.0
O63 O 0.88647 0.91636 0.88667 0.0
O64 O 0.90661 0.95018 0.88357 0.0
In65 In 0.55844 0.08271 0.88142 0.0
O66 O 0.60777 0.08346 0.88466 0.0
O67 O 0.58714 0.05024 0.87943 0.0
C68 C 0.54527 0.12919 0.88536 0.0
C69 C 0.53796 0.06224 0.91318 0.0
C70 C 0.54078 0.07571 0.84541 0.0
O71 O 0.57095 0.12214 0.88275 0.0
O72 O 0.52664 0.11285 0.88613 0.0
O73 O 0.52463 0.07154 0.85947 0.0
O74 O 0.56567 0.08328 0.84954 0.0
C75 C 0.6105 0.06127 0.88233 0.0
O76 O 0.52966 0.05605 0.89683 0.0
O77 O 0.55612 0.079 0.91345 0.0
In78 In 0.43722 0.08042 0.6144 0.0
O79 O 0.46747 0.05543 0.59844 0.0
O80 O 0.43981 0.07799 0.58232 0.0
C81 C 0.4525 0.07241 0.65068 0.0
C82 C 0.38505 0.05917 0.61348 0.0
C83 C 0.45243 0.12654 0.61151 0.0
O84 O 0.4682 0.06604 0.63692 0.0
O85 O 0.42918 0.08254 0.64608 0.0
O86 O 0.42637 0.11987 0.61014 0.0
O87 O 0.4704 0.11002 0.61415 0.0
C88 C 0.45893 0.06197 0.58223 0.0
O89 O 0.38773 0.08154 0.61286 0.0
O90 O 0.40854 0.04782 0.61461 0.0
In91 In 0.05806 0.91841 0.61769 0.0
O92 O 0.02943 0.94564 0.60282 0.0
O93 O 0.05648 0.92368 0.58578 0.0
C94 C 0.04124 0.92548 0.65384 0.0
C95 C 0.11082 0.93862 0.61703 0.0
C96 C 0.04329 0.87233 0.61312 0.0
O97 O 0.02486 0.92983 0.63994 0.0
O98 O 0.0659 0.91759 0.6495 0.0
O99 O 0.06928 0.87878 0.61532 0.0
O100 O 0.02516 0.88905 0.61307 0.0
C101 C 0.0382 0.94034 0.58639 0.0
O102 O 0.10732 0.91655 0.61444 0.0
O103 O 0.08785 0.95015 0.62007 0.0
In104 In 0.56153 0.58184 0.11431 0.0
O105 O 0.61103 0.58321 0.11196 0.0
O106 O 0.59074 0.54972 0.11655 0.0
C107 C 0.54702 0.62789 0.1095 0.0
C108 C 0.5423 0.56092 0.08247 0.0
C109 C 0.54264 0.57518 0.15009 0.0
O110 O 0.57284 0.6215 0.11258 0.0
O111 O 0.52896 0.61113 0.10876 0.0
O112 O 0.52735 0.57009 0.13582 0.0
O113 O 0.5673 0.5835 0.14628 0.0
C114 C 0.61403 0.56102 0.11415 0.0
O115 O 0.53434 0.55426 0.09878 0.0
O116 O 0.55956 0.57832 0.08228 0.0
In117 In 0.93754 0.41459 0.11478 0.0
O118 O 0.88824 0.41423 0.11122 0.0
O119 O 0.90912 0.44717 0.11715 0.0
C120 C 0.94873 0.36774 0.11039 0.0
C121 C 0.9579 0.43592 0.08338 0.0
C122 C 0.95699 0.42171 0.15045 0.0
O123 O 0.92449 0.37519 0.11616 0.0
O124 O 0.9668 0.38383 0.10665 0.0
O125 O 0.97333 0.42346 0.13617 0.0
O126 O 0.93111 0.41647 0.1467 0.0
C127 C 0.88569 0.43637 0.11394 0.0
O128 O 0.96761 0.44059 0.09972 0.0
O129 O 0.93831 0.42028 0.08293 0.0
In130 In 0.06148 0.4209 0.38172 0.0
O131 O 0.02991 0.44565 0.39684 0.0
O132 O 0.0607 0.42666 0.41351 0.0
C133 C 0.04673 0.42727 0.34507 0.0
C134 C 0.11364 0.44217 0.38297 0.0
C135 C 0.04598 0.37504 0.38666 0.0
O136 O 0.03153 0.43523 0.35853 0.0
O137 O 0.06924 0.41631 0.35014 0.0
O138 O 0.07213 0.38129 0.38495 0.0
O139 O 0.028 0.39186 0.38608 0.0
C140 C 0.04016 0.44147 0.41313 0.0
O141 O 0.11081 0.4199 0.38469 0.0
O142 O 0.09032 0.45341 0.38045 0.0
In143 In 0.44115 0.58169 0.38141 0.0
O144 O 0.46595 0.55136 0.39532 0.0
O145 O 0.45345 0.58049 0.41272 0.0
C146 C 0.4551 0.57463 0.34474 0.0
C147 C 0.38799 0.56227 0.38448 0.0
C148 C 0.4563 0.62778 0.38444 0.0
O149 O 0.47232 0.56988 0.35812 0.0
O150 O 0.43098 0.58291 0.34988 0.0
O151 O 0.4303 0.621 0.38614 0.0
O152 O 0.47428 0.61135 0.38134 0.0
C153 C 0.46563 0.56048 0.41165 0.0
O154 O 0.39198 0.58441 0.38621 0.0
O155 O 0.41059 0.55039 0.38131 0.0
In156 In 0.44084 0.41986 0.88 0.0
O157 O 0.39136 0.41803 0.88189 0.0
O158 O 0.41154 0.45202 0.88083 0.0
C159 C 0.45557 0.37358 0.88266 0.0
C160 C 0.46374 0.43904 0.91157 0.0
C161 C 0.45606 0.42844 0.84377 0.0
O162 O 0.42972 0.38052 0.88466 0.0
O163 O 0.47357 0.3899 0.87941 0.0
O164 O 0.47277 0.43265 0.85753 0.0
O165 O 0.43169 0.42007 0.84829 0.0
C166 C 0.38827 0.44037 0.88183 0.0
O167 O 0.46959 0.4467 0.89517 0.0
O168 O 0.44673 0.4215 0.91198 0.0
In169 In 0.06218 0.58275 0.88337 0.0
O170 O 0.11161 0.58381 0.88557 0.0
O171 O 0.09104 0.55039 0.88112 0.0
C172 C 0.04668 0.62875 0.88707 0.0
C173 C 0.04163 0.5629 0.91538 0.0
C174 C 0.04639 0.57554 0.84708 0.0
O175 O 0.07289 0.62227 0.88723 0.0
O176 O 0.02867 0.61207 0.88529 0.0
O177 O 0.03139 0.56811 0.86085 0.0
O178 O 0.06919 0.58644 0.85168 0.0
C179 C 0.11444 0.56161 0.88336 0.0
O180 O 0.03181 0.55768 0.89918 0.0
O181 O 0.06138 0.5784 0.91539 0.0
In182 In 0.94012 0.5813 0.61674 0.0
O183 O 0.97004 0.55705 0.59971 0.0
O184 O 0.93906 0.57782 0.58471 0.0
C185 C 0.95783 0.57344 0.65256 0.0
C186 C 0.88856 0.55917 0.61738 0.0
C187 C 0.95394 0.6277 0.6133 0.0
O188 O 0.97336 0.56829 0.63839 0.0
O189 O 0.93352 0.58237 0.64862 0.0
O190 O 0.92796 0.62066 0.61345 0.0
O191 O 0.97252 0.61141 0.61477 0.0
C192 C 0.9591 0.56263 0.5839 0.0
O193 O 0.89067 0.58151 0.61572 0.0
O194 O 0.91236 0.54828 0.61883 0.0
In195 In 0.56354 0.41542 0.61391 0.0
O196 O 0.53259 0.43803 0.59627 0.0
O197 O 0.569 0.42247 0.58246 0.0
C198 C 0.54541 0.42382 0.64959 0.0
C199 C 0.61576 0.43637 0.61547 0.0
C200 C 0.54838 0.36937 0.60952 0.0
O201 O 0.53155 0.4312 0.63531 0.0
O202 O 0.56811 0.41234 0.6458 0.0
O203 O 0.57438 0.37567 0.61192 0.0
O204 O 0.53047 0.38623 0.60906 0.0
C205 C 0.54684 0.43547 0.5811 0.0
O206 O 0.61299 0.41417 0.61321 0.0
O207 O 0.59229 0.44771 0.61709 0.0
H208 H 0.3752 0.98602 0.11443 0.0
H209 H 0.32861 0.00647 0.11443 0.0
H210 H 0.28438 0.93897 0.11279 0.0
H211 H 0.33114 0.9183 0.11248 0.0
H212 H 0.26044 0.97055 0.08845 0.0
H213 H 0.28914 0.97035 0.15389 0.0
H214 H 0.32215 0.97742 0.1808 0.0
H215 H 0.32283 0.05211 0.16832 0.0
H216 H 0.29014 0.04544 0.14116 0.0
H217 H 0.12128 0.01053 0.11525 0.0
H218 H 0.16837 0.99097 0.11389 0.0
H219 H 0.21082 0.05924 0.11547 0.0
H220 H 0.16353 0.07902 0.11709 0.0
H221 H 0.23602 0.02787 0.13949 0.0
H222 H 0.20676 0.02822 0.07438 0.0
H223 H 0.17429 0.02117 0.04723 0.0
H224 H 0.17477 0.94628 0.05895 0.0
H225 H 0.20696 0.95292 0.08637 0.0
C226 C 0.35557 0.9755 0.11407 0.0
C227 C 0.35679 0.95054 0.11356 0.0
C228 C 0.32895 0.98722 0.11414 0.0
C229 C 0.30302 0.97424 0.11389 0.0
C230 C 0.30415 0.94932 0.11305 0.0
C231 C 0.33084 0.93754 0.11292 0.0
C232 C 0.27477 0.98676 0.11447 0.0
C233 C 0.25491 0.98282 0.09975 0.0
C234 C 0.26793 0.00327 0.12895 0.0
C235 C 0.2874 0.00736 0.14538 0.0
C236 C 0.29649 0.98826 0.1568 0.0
C237 C 0.31512 0.9922 0.17211 0.0
C238 C 0.32464 0.01519 0.17624 0.0
C239 C 0.31547 0.03431 0.16509 0.0
C240 C 0.29687 0.03046 0.14975 0.0
C241 C 0.14062 0.02142 0.11527 0.0
C242 C 0.13873 0.04632 0.11623 0.0
C243 C 0.16752 0.0102 0.1144 0.0
C244 C 0.1931 0.02365 0.11435 0.0
C245 C 0.19133 0.04854 0.11545 0.0
C246 C 0.16434 0.0598 0.11631 0.0
C247 C 0.22163 0.0116 0.1135 0.0
C248 C 0.24155 0.01562 0.12817 0.0
C249 C 0.22853 0.99516 0.09898 0.0
C250 C 0.20908 0.9911 0.08253 0.0
C251 C 0.19975 0.01027 0.07127 0.0
C252 C 0.18142 0.00634 0.05581 0.0
C253 C 0.17242 0.98329 0.05137 0.0
C254 C 0.18174 0.96413 0.0624 0.0
C255 C 0.20005 0.96796 0.0779 0.0
H256 H 0.15832 0.98026 0.03936 0.0
H257 H 0.33908 0.01821 0.18809 0.0
H258 H 0.66774 0.92143 0.39186 0.0
H259 H 0.71407 0.94267 0.3929 0.0
H260 H 0.67284 0.00521 0.36999 0.0
H261 H 0.62667 0.98411 0.36879 0.0
H262 H 0.72439 0.9969 0.35304 0.0
H263 H 0.68752 0.00182 0.41653 0.0
H264 H 0.66803 0.98626 0.44664 0.0
H265 H 0.74576 0.94581 0.45529 0.0
H266 H 0.76555 0.96087 0.42507 0.0
H267 H 0.83378 0.08156 0.37617 0.0
H268 H 0.78744 0.06024 0.37527 0.0
H269 H 0.8298 0.99665 0.39522 0.0
H270 H 0.87606 0.01773 0.39606 0.0
H271 H 0.77781 0.00557 0.41373 0.0
H272 H 0.8145 0.00082 0.35008 0.0
H273 H 0.83389 0.01673 0.32006 0.0
H274 H 0.7562 0.05738 0.31188 0.0
H275 H 0.73651 0.04197 0.34202 0.0
C276 C 0.66862 0.93967 0.38698 0.0
C277 C 0.64359 0.95114 0.38031 0.0
C278 C 0.69504 0.95181 0.38764 0.0
C279 C 0.69681 0.9756 0.38169 0.0
C280 C 0.67195 0.98688 0.37466 0.0
C281 C 0.64558 0.9748 0.37404 0.0
C282 C 0.72446 0.98889 0.38293 0.0
C283 C 0.73589 0.99904 0.36635 0.0
C284 C 0.7397 0.99133 0.40024 0.0
C285 C 0.72788 0.98227 0.41844 0.0
C286 C 0.70035 0.98944 0.42477 0.0
C287 C 0.68927 0.98074 0.44187 0.0
C288 C 0.70561 0.965 0.45284 0.0
C289 C 0.73311 0.95797 0.44676 0.0
C290 C 0.74428 0.9666 0.42965 0.0
C291 C 0.83314 0.06307 0.38044 0.0
C292 C 0.85851 0.05127 0.38611 0.0
C293 C 0.80673 0.05092 0.37987 0.0
C294 C 0.8053 0.02684 0.38506 0.0
C295 C 0.83048 0.01521 0.39116 0.0
C296 C 0.85688 0.02727 0.39156 0.0
C297 C 0.77767 0.01357 0.38385 0.0
C298 C 0.76627 0.00343 0.40043 0.0
C299 C 0.76242 0.01119 0.36656 0.0
C300 C 0.77417 0.02044 0.34841 0.0
C301 C 0.80166 0.01332 0.34197 0.0
C302 C 0.81268 0.02221 0.32492 0.0
C303 C 0.79632 0.03811 0.3141 0.0
C304 C 0.76887 0.04509 0.32029 0.0
C305 C 0.75776 0.03627 0.33735 0.0
H306 H 0.80489 0.04497 0.3009 0.0
H307 H 0.697 0.95829 0.46608 0.0
H308 H 0.87306 0.98619 0.88647 0.0
H309 H 0.8263 0.00639 0.88694 0.0
H310 H 0.78258 0.93865 0.88626 0.0
H311 H 0.82953 0.91821 0.88574 0.0
H312 H 0.76004 0.97044 0.86034 0.0
H313 H 0.78502 0.96992 0.92636 0.0
H314 H 0.81563 0.97693 0.95443 0.0
H315 H 0.81665 0.05175 0.94246 0.0
H316 H 0.78639 0.04514 0.91411 0.0
H317 H 0.61994 0.01363 0.88067 0.0
H318 H 0.6662 0.99277 0.88182 0.0
H319 H 0.71104 0.0598 0.88649 0.0
H320 H 0.66454 0.08084 0.88577 0.0
H321 H 0.73294 0.02794 0.91065 0.0
H322 H 0.70941 0.029 0.84452 0.0
H323 H 0.67874 0.02273 0.81634 0.0
H324 H 0.6757 0.94787 0.828 0.0
H325 H 0.70603 0.95374 0.85643 0.0
C326 C 0.85351 0.97556 0.88648 0.0
C327 C 0.85493 0.95061 0.88608 0.0
C328 C 0.82681 0.98714 0.88683 0.0
C329 C 0.801 0.97402 0.88681 0.0
C330 C 0.8023 0.94908 0.88633 0.0
C331 C 0.82907 0.93745 0.88608 0.0
C332 C 0.77273 0.98645 0.8868 0.0
C333 C 0.75388 0.98273 0.87149 0.0
C334 C 0.76517 0.00301 0.90107 0.0
C335 C 0.78363 0.007 0.918 0.0
C336 C 0.79201 0.98784 0.92959 0.0
C337 C 0.80925 0.99175 0.94559 0.0
C338 C 0.8181 0.01477 0.95022 0.0
C339 C 0.80978 0.03392 0.93885 0.0
C340 C 0.79257 0.03011 0.92282 0.0
C341 C 0.63964 0.02396 0.88191 0.0
C342 C 0.63866 0.04889 0.88302 0.0
C343 C 0.66608 0.012 0.88249 0.0
C344 C 0.69212 0.02473 0.88394 0.0
C345 C 0.6912 0.04963 0.8853 0.0
C346 C 0.66467 0.06163 0.88484 0.0
C347 C 0.72022 0.01196 0.88418 0.0
C348 C 0.73906 0.01563 0.89951 0.0
C349 C 0.72788 0.99546 0.86986 0.0
C350 C 0.70976 0.99185 0.85271 0.0
C351 C 0.70202 0.01123 0.84116 0.0
C352 C 0.68472 0.00774 0.82513 0.0
C353 C 0.67521 0.98492 0.82041 0.0
C354 C 0.68305 0.96554 0.83169 0.0
C355 C 0.70031 0.96893 0.84775 0.0
H356 H 0.66182 0.98226 0.80799 0.0
H357 H 0.83131 0.0178 0.96267 0.0
H358 H 0.12199 0.9859 0.62008 0.0
H359 H 0.16892 0.00575 0.61869 0.0
H360 H 0.21118 0.93807 0.61102 0.0
H361 H 0.16407 0.91796 0.6125 0.0
H362 H 0.23849 0.96642 0.63754 0.0
H363 H 0.20296 0.97403 0.57388 0.0
H364 H 0.16726 0.98436 0.54921 0.0
H365 H 0.16901 0.05728 0.56711 0.0
H366 H 0.20442 0.04731 0.59208 0.0
H367 H 0.37528 0.0116 0.61138 0.0
H368 H 0.32878 0.99103 0.61134 0.0
H369 H 0.28435 0.05833 0.61503 0.0
H370 H 0.33101 0.07913 0.61464 0.0
H371 H 0.25819 0.02966 0.59016 0.0
H372 H 0.29242 0.02249 0.65408 0.0
H373 H 0.32741 0.01264 0.67931 0.0
H374 H 0.32733 0.93962 0.66166 0.0
H375 H 0.29263 0.94909 0.63614 0.0
C376 C 0.14125 0.97521 0.6181 0.0
C377 C 0.13938 0.95037 0.61635 0.0
C378 C 0.16804 0.9866 0.61722 0.0
C379 C 0.19346 0.9734 0.61454 0.0
C380 C 0.19175 0.94856 0.61305 0.0
C381 C 0.16488 0.93712 0.61385 0.0
C382 C 0.22181 0.98564 0.6135 0.0
C383 C 0.24301 0.97998 0.627 0.0
C384 C 0.2273 0.0038 0.60007 0.0
C385 C 0.20616 0.00987 0.58497 0.0
C386 C 0.19557 0.99223 0.57265 0.0
C387 C 0.17541 0.99803 0.5586 0.0
C388 C 0.16582 0.02145 0.55663 0.0
C389 C 0.17643 0.03914 0.56867 0.0
C390 C 0.19657 0.03343 0.58277 0.0
C391 C 0.35561 0.02204 0.61217 0.0
C392 C 0.35675 0.04697 0.61313 0.0
C393 C 0.32905 0.01025 0.61222 0.0
C394 C 0.30309 0.02311 0.6135 0.0
C395 C 0.30413 0.04805 0.6141 0.0
C396 C 0.33076 0.0599 0.61392 0.0
C397 C 0.27493 0.01047 0.61423 0.0
C398 C 0.25374 0.01606 0.60068 0.0
C399 C 0.26937 0.99233 0.62769 0.0
C400 C 0.29014 0.98655 0.64308 0.0
C401 C 0.30003 0.00437 0.65549 0.0
C402 C 0.31979 0.99885 0.66985 0.0
C403 C 0.32965 0.97553 0.67205 0.0
C404 C 0.31971 0.95767 0.65992 0.0
C405 C 0.29997 0.96311 0.64552 0.0
H406 H 0.34494 0.97129 0.68318 0.0
H407 H 0.15021 0.0259 0.54574 0.0
H408 H 0.87679 0.48406 0.11573 0.0
H409 H 0.83075 0.50526 0.11518 0.0
H410 H 0.78505 0.43861 0.11074 0.0
H411 H 0.83134 0.41722 0.11081 0.0
H412 H 0.76222 0.47068 0.08736 0.0
H413 H 0.78866 0.46913 0.15295 0.0
H414 H 0.82052 0.47493 0.18064 0.0
H415 H 0.82412 0.54984 0.16923 0.0
H416 H 0.7926 0.54443 0.1413 0.0
H417 H 0.62391 0.51342 0.11454 0.0
H418 H 0.67046 0.4929 0.11371 0.0
H419 H 0.71481 0.56033 0.11204 0.0
H420 H 0.66806 0.58111 0.11283 0.0
H421 H 0.73824 0.52829 0.13829 0.0
H422 H 0.71026 0.52904 0.07269 0.0
H423 H 0.67731 0.52236 0.0457 0.0
H424 H 0.67531 0.44767 0.05812 0.0
H425 H 0.70793 0.45395 0.08538 0.0
C426 C 0.85695 0.47388 0.11464 0.0
C427 C 0.85764 0.44896 0.11343 0.0
C428 C 0.83063 0.48604 0.11441 0.0
C429 C 0.80441 0.47352 0.11325 0.0
C430 C 0.80503 0.44862 0.11172 0.0
C431 C 0.83144 0.43643 0.11181 0.0
C432 C 0.77643 0.4865 0.11359 0.0
C433 C 0.75681 0.48302 0.09864 0.0
C434 C 0.76963 0.503 0.12809 0.0
C435 C 0.78849 0.50634 0.14493 0.0
C436 C 0.79643 0.48681 0.15626 0.0
C437 C 0.81439 0.49004 0.17201 0.0
C438 C 0.8244 0.51273 0.17666 0.0
C439 C 0.81639 0.53226 0.16559 0.0
C440 C 0.79845 0.52914 0.14981 0.0
C441 C 0.64355 0.52392 0.11398 0.0
C442 C 0.64237 0.54888 0.11372 0.0
C443 C 0.67012 0.51215 0.11344 0.0
C444 C 0.69603 0.5251 0.11264 0.0
C445 C 0.695 0.55004 0.1126 0.0
C446 C 0.66834 0.56187 0.11301 0.0
C447 C 0.72414 0.51245 0.11209 0.0
C448 C 0.74373 0.51598 0.12701 0.0
C449 C 0.7308 0.49585 0.09766 0.0
C450 C 0.71133 0.492 0.08119 0.0
C451 C 0.70261 0.51121 0.06976 0.0
C452 C 0.68402 0.5075 0.0544 0.0
C453 C 0.67416 0.48462 0.05022 0.0
C454 C 0.68294 0.46539 0.06138 0.0
C455 C 0.7015 0.46901 0.07678 0.0
H456 H 0.65977 0.48177 0.03832 0.0
H457 H 0.83831 0.51519 0.18886 0.0
H458 H 0.37632 0.51511 0.38207 0.0
H459 H 0.3292 0.49567 0.38259 0.0
H460 H 0.28739 0.56364 0.38964 0.0
H461 H 0.33487 0.58337 0.38934 0.0
H462 H 0.2642 0.52905 0.41289 0.0
H463 H 0.28739 0.53762 0.34695 0.0
H464 H 0.31805 0.53415 0.31845 0.0
H465 H 0.31945 0.45824 0.32462 0.0
H466 H 0.28914 0.46127 0.35333 0.0
H467 H 0.12326 0.48967 0.38629 0.0
H468 H 0.16984 0.51022 0.3878 0.0
H469 H 0.21437 0.44308 0.38334 0.0
H470 H 0.16769 0.42229 0.38201 0.0
H471 H 0.2356 0.47799 0.35863 0.0
H472 H 0.2135 0.46891 0.42436 0.0
H473 H 0.18443 0.47164 0.45359 0.0
H474 H 0.18167 0.54761 0.44826 0.0
H475 H 0.21037 0.54532 0.41879 0.0
C476 C 0.35714 0.52598 0.38378 0.0
C477 C 0.35926 0.5508 0.38555 0.0
C478 C 0.33021 0.51482 0.38401 0.0
C479 C 0.30479 0.52824 0.38585 0.0
C480 C 0.30679 0.55299 0.38812 0.0
C481 C 0.33386 0.56422 0.38791 0.0
C482 C 0.27623 0.51625 0.38521 0.0
C483 C 0.25769 0.51822 0.4009 0.0
C484 C 0.26816 0.5016 0.36976 0.0
C485 C 0.28619 0.4997 0.35239 0.0
C486 C 0.29441 0.52019 0.34231 0.0
C487 C 0.3117 0.5183 0.32611 0.0
C488 C 0.32075 0.49599 0.31975 0.0
C489 C 0.31245 0.47551 0.32956 0.0
C490 C 0.29519 0.47731 0.3458 0.0
C491 C 0.14297 0.47926 0.38567 0.0
C492 C 0.14189 0.45438 0.38402 0.0
C493 C 0.16954 0.49102 0.38661 0.0
C494 C 0.1955 0.47814 0.38579 0.0
C495 C 0.19453 0.4533 0.38403 0.0
C496 C 0.16791 0.44147 0.38331 0.0
C497 C 0.22363 0.49075 0.38633 0.0
C498 C 0.24205 0.4889 0.37059 0.0
C499 C 0.23159 0.50546 0.40174 0.0
C500 C 0.21384 0.50692 0.41925 0.0
C501 C 0.20641 0.48618 0.42928 0.0
C502 C 0.19007 0.48765 0.44593 0.0
C503 C 0.18121 0.50978 0.45277 0.0
C504 C 0.18857 0.53048 0.44294 0.0
C505 C 0.20487 0.52911 0.42626 0.0
H506 H 0.16874 0.51087 0.46573 0.0
H507 H 0.33414 0.49457 0.3072 0.0
H508 H 0.12441 0.5141 0.88064 0.0
H509 H 0.17099 0.49361 0.88088 0.0
H510 H 0.21508 0.56082 0.88659 0.0
H511 H 0.16834 0.58156 0.88624 0.0
H512 H 0.2401 0.53192 0.85971 0.0
H513 H 0.20831 0.52522 0.92434 0.0
H514 H 0.17401 0.51538 0.94997 0.0
H515 H 0.17379 0.44231 0.93242 0.0
H516 H 0.20779 0.45179 0.9065 0.0
H517 H 0.37787 0.48781 0.88409 0.0
H518 H 0.33112 0.50794 0.88469 0.0
H519 H 0.28749 0.44024 0.88166 0.0
H520 H 0.33446 0.41985 0.88142 0.0
H521 H 0.26197 0.46918 0.90711 0.0
H522 H 0.29326 0.47539 0.84258 0.0
H523 H 0.32713 0.4848 0.8166 0.0
H524 H 0.32767 0.55815 0.83337 0.0
H525 H 0.29411 0.54912 0.85963 0.0
C526 C 0.14401 0.52455 0.88196 0.0
C527 C 0.14276 0.54944 0.88348 0.0
C528 C 0.1706 0.5128 0.88217 0.0
C529 C 0.19645 0.52568 0.88397 0.0
C530 C 0.19533 0.55057 0.88525 0.0
C531 C 0.16867 0.56237 0.8851 0.0
C532 C 0.22462 0.51309 0.88429 0.0
C533 C 0.24508 0.51846 0.87024 0.0
C534 C 0.2307 0.49504 0.89771 0.0
C535 C 0.21039 0.48927 0.91337 0.0
C536 C 0.20078 0.50709 0.92585 0.0
C537 C 0.18142 0.50157 0.94045 0.0
C538 C 0.17167 0.47825 0.94279 0.0
C539 C 0.18133 0.46038 0.93057 0.0
C540 C 0.20067 0.46581 0.91594 0.0
C541 C 0.35834 0.47717 0.88357 0.0
C542 C 0.3598 0.45225 0.8826 0.0
C543 C 0.33163 0.48872 0.88384 0.0
C544 C 0.30583 0.47561 0.88291 0.0
C545 C 0.30717 0.45068 0.88231 0.0
C546 C 0.33397 0.43908 0.88213 0.0
C547 C 0.27753 0.48805 0.88255 0.0
C548 C 0.25701 0.48265 0.89658 0.0
C549 C 0.27133 0.506 0.86905 0.0
C550 C 0.29137 0.51153 0.85318 0.0
C551 C 0.30077 0.4935 0.84081 0.0
C552 C 0.31989 0.49876 0.82602 0.0
C553 C 0.3296 0.52204 0.82336 0.0
C554 C 0.32015 0.54012 0.83546 0.0
C555 C 0.30106 0.53494 0.85029 0.0
H556 H 0.34441 0.52609 0.8119 0.0
H557 H 0.15668 0.47401 0.9541 0.0
H558 H 0.66963 0.4161 0.61612 0.0
H559 H 0.71648 0.43664 0.61658 0.0
H560 H 0.6726 0.50431 0.61595 0.0
H561 H 0.62585 0.48399 0.61555 0.0
H562 H 0.71781 0.5019 0.5901 0.0
H563 H 0.7004 0.48488 0.65615 0.0
H564 H 0.68958 0.45908 0.68352 0.0
H565 H 0.76645 0.41841 0.67255 0.0
H566 H 0.77751 0.44378 0.64493 0.0
H567 H 0.83421 0.5782 0.6146 0.0
H568 H 0.78805 0.55676 0.61428 0.0
H569 H 0.83369 0.49019 0.61965 0.0
H570 H 0.87977 0.51148 0.62026 0.0
H571 H 0.78793 0.49123 0.64275 0.0
H572 H 0.80613 0.50733 0.57724 0.0
H573 H 0.81754 0.53202 0.54932 0.0
H574 H 0.74022 0.57286 0.55836 0.0
H575 H 0.72854 0.54859 0.58651 0.0
C576 C 0.67002 0.43535 0.61611 0.0
C577 C 0.64412 0.44845 0.61586 0.0
C578 C 0.69674 0.44704 0.61641 0.0
C579 C 0.69794 0.47198 0.61639 0.0
C580 C 0.67211 0.48506 0.61596 0.0
C581 C 0.64544 0.47341 0.61581 0.0
C582 C 0.72609 0.48456 0.6168 0.0
C583 C 0.73303 0.49981 0.60171 0.0
C584 C 0.74618 0.48129 0.63171 0.0
C585 C 0.73961 0.46607 0.64835 0.0
C586 C 0.71486 0.47031 0.65947 0.0
C587 C 0.70871 0.45579 0.67505 0.0
C588 C 0.72727 0.43707 0.67974 0.0
C589 C 0.75206 0.43289 0.66889 0.0
C590 C 0.7583 0.44734 0.65327 0.0
C591 C 0.83436 0.559 0.61574 0.0
C592 C 0.86057 0.54651 0.61741 0.0
C593 C 0.80801 0.54677 0.61548 0.0
C594 C 0.80747 0.52185 0.61674 0.0
C595 C 0.83361 0.5094 0.61865 0.0
C596 C 0.85992 0.5216 0.61895 0.0
C597 C 0.77965 0.50871 0.61609 0.0
C598 C 0.77277 0.49333 0.63112 0.0
C599 C 0.75971 0.51169 0.60104 0.0
C600 C 0.76662 0.5263 0.5841 0.0
C601 C 0.79168 0.5217 0.57337 0.0
C602 C 0.79818 0.53559 0.55748 0.0
C603 C 0.77966 0.55404 0.5521 0.0
C604 C 0.75457 0.55858 0.56257 0.0
C605 C 0.74798 0.54475 0.57848 0.0
H606 H 0.78472 0.56477 0.5398 0.0
H607 H 0.72247 0.42585 0.69181 0.0
H608 H 0.92344 0.07429 0.31749 0.0
H609 H 0.93989 0.06798 0.28488 0.0
H610 H 0.02638 0.05419 0.30517 0.0
H611 H 0.01 0.06023 0.3379 0.0
H612 H 0.02255 0.08892 0.27613 0.0
H613 H 0.98986 0.00942 0.28882 0.0
H614 H 0.95479 0.97913 0.29934 0.0
H615 H 0.89534 0.00129 0.25597 0.0
H616 H 0.9299 0.03196 0.24535 0.0
H617 H 0.0792 0.06382 0.18588 0.0
H618 H 0.06587 0.05944 0.21925 0.0
H619 H 0.97544 0.05887 0.20373 0.0
H620 H 0.98881 0.0621 0.17023 0.0
H621 H 0.98333 0.02909 0.23127 0.0
H622 H 0.01098 0.11009 0.22024 0.0
H623 H 0.04281 0.14274 0.20975 0.0
H624 H 0.10758 0.12093 0.24984 0.0
H625 H 0.07626 0.08794 0.2604 0.0
C626 C 0.9459 0.06968 0.31501 0.0
C627 C 0.96549 0.06781 0.33018 0.0
C628 C 0.95521 0.06598 0.29641 0.0
C629 C 0.98429 0.06052 0.29269 0.0
C630 C 0.00383 0.05833 0.30782 0.0
C631 C 0.99444 0.06174 0.32646 0.0
C632 C 0.99457 0.05862 0.27289 0.0
C633 C 0.01444 0.07557 0.26637 0.0
C634 C 0.98313 0.04168 0.26012 0.0
C635 C 0.96239 0.02313 0.26639 0.0
C636 C 0.96922 0.00797 0.28162 0.0
C637 C 0.94944 0.9907 0.28758 0.0
C638 C 0.92283 0.98832 0.27836 0.0
C639 C 0.91596 0.00316 0.26311 0.0
C640 C 0.93565 0.02047 0.2571 0.0
C641 C 0.0565 0.06253 0.1896 0.0
C642 C 0.035 0.06351 0.17554 0.0
C643 C 0.04889 0.06014 0.20866 0.0
C644 C 0.01962 0.05939 0.21405 0.0
C645 C 0.99815 0.05949 0.19993 0.0
C646 C 0.00579 0.06141 0.18081 0.0
C647 C 0.01133 0.0595 0.2344 0.0
C648 C 0.99173 0.0423 0.24103 0.0
C649 C 0.02257 0.07653 0.24724 0.0
C650 C 0.04141 0.0964 0.24096 0.0
C651 C 0.0321 0.11216 0.22672 0.0
C652 C 0.05003 0.13074 0.22078 0.0
C653 C 0.07723 0.13386 0.22909 0.0
C654 C 0.08652 0.11845 0.2434 0.0
C655 C 0.06869 0.09982 0.24938 0.0
H656 H 0.09109 0.14826 0.22447 0.0
H657 H 0.90754 0.97494 0.283 0.0
H658 H 0.41852 0.92172 0.18228 0.0
H659 H 0.43349 0.92453 0.21554 0.0
H660 H 0.52167 0.93678 0.19795 0.0
H661 H 0.50679 0.93438 0.16462 0.0
H662 H 0.51287 0.89915 0.22559 0.0
H663 H 0.4875 0.98147 0.2144 0.0
H664 H 0.45466 0.01361 0.20427 0.0
H665 H 0.39273 0.99235 0.24642 0.0
H666 H 0.42504 0.95985 0.25663 0.0
H667 H 0.57709 0.92367 0.31321 0.0
H668 H 0.56061 0.92649 0.2804 0.0
H669 H 0.47216 0.93231 0.29967 0.0
H670 H 0.4888 0.93055 0.33266 0.0
H671 H 0.4796 0.96069 0.27105 0.0
H672 H 0.50046 0.87913 0.28238 0.0
H673 H 0.52913 0.8445 0.29273 0.0
H674 H 0.59385 0.86051 0.2509 0.0
H675 H 0.56574 0.89544 0.24046 0.0
C676 C 0.44105 0.92522 0.18551 0.0
C677 C 0.46153 0.92781 0.17091 0.0
C678 C 0.44952 0.92688 0.20448 0.0
C679 C 0.47863 0.93091 0.20912 0.0
C680 C 0.49909 0.93369 0.19458 0.0
C681 C 0.49056 0.93239 0.1756 0.0
C682 C 0.48794 0.93114 0.22916 0.0
C683 C 0.50601 0.91279 0.2355 0.0
C684 C 0.47787 0.94839 0.24215 0.0
C685 C 0.45858 0.96809 0.23615 0.0
C686 C 0.46678 0.98353 0.22141 0.0
C687 C 0.44828 0.00184 0.21567 0.0
C688 C 0.42159 0.00498 0.22466 0.0
C689 C 0.41339 0.98988 0.23945 0.0
C690 C 0.43181 0.97153 0.24523 0.0
C691 C 0.55415 0.92566 0.31044 0.0
C692 C 0.53417 0.9267 0.32542 0.0
C693 C 0.54473 0.92716 0.29169 0.0
C694 C 0.51507 0.92906 0.28753 0.0
C695 C 0.49513 0.93075 0.30252 0.0
C696 C 0.50463 0.92969 0.32134 0.0
C697 C 0.50498 0.92882 0.26754 0.0
C698 C 0.48661 0.94706 0.26119 0.0
C699 C 0.51419 0.9111 0.2546 0.0
C700 C 0.53112 0.89003 0.26076 0.0
C701 C 0.52091 0.87536 0.27548 0.0
C702 C 0.53704 0.85567 0.28135 0.0
C703 C 0.56333 0.85035 0.27251 0.0
C704 C 0.5735 0.86468 0.25774 0.0
C705 C 0.55746 0.88441 0.25183 0.0
H706 H 0.5758 0.83509 0.27707 0.0
H707 H 0.40729 0.01916 0.22019 0.0
H708 H 0.98627 0.9285 0.66774 0.0
H709 H 0.97165 0.93195 0.70097 0.0
H710 H 0.06152 0.93476 0.71775 0.0
H711 H 0.07611 0.93003 0.68465 0.0
H712 H 0.03547 0.90674 0.74003 0.0
H713 H 0.01411 0.98514 0.71786 0.0
H714 H 0.99262 0.01551 0.69693 0.0
H715 H 0.90737 0.9907 0.71102 0.0
H716 H 0.92835 0.95996 0.73185 0.0
H717 H 0.00537 0.94035 0.83533 0.0
H718 H 0.02101 0.94387 0.80221 0.0
H719 H 0.93532 0.92451 0.78343 0.0
H720 H 0.91959 0.9208 0.81644 0.0
H721 H 0.96048 0.96298 0.76291 0.0
H722 H 0.984 0.8833 0.78406 0.0
H723 H 0.00675 0.85419 0.80556 0.0
H724 H 0.09043 0.88399 0.79374 0.0
H725 H 0.0681 0.91352 0.77237 0.0
C726 C 0.00284 0.93001 0.67854 0.0
C727 C 0.03229 0.92898 0.67369 0.0
C728 C 0.9945 0.93215 0.69752 0.0
C729 C 0.01548 0.934 0.7119 0.0
C730 C 0.04492 0.93335 0.70695 0.0
C731 C 0.05325 0.93069 0.68805 0.0
C732 C 0.00683 0.93541 0.73217 0.0
C733 C 0.01946 0.91938 0.74503 0.0
C734 C 0.98553 0.95157 0.73875 0.0
C735 C 0.97283 0.97011 0.7263 0.0
C736 C 0.99079 0.98605 0.7164 0.0
C737 C 0.9787 0.00335 0.70457 0.0
C738 C 0.94866 0.005 0.70261 0.0
C739 C 0.93064 0.98939 0.71253 0.0
C740 C 0.94262 0.97204 0.72437 0.0
C741 C 0.98983 0.93705 0.82413 0.0
C742 C 0.96133 0.93015 0.82842 0.0
C743 C 0.99878 0.93904 0.80526 0.0
C744 C 0.97932 0.9343 0.79045 0.0
C745 C 0.9506 0.92825 0.7947 0.0
C746 C 0.94172 0.92603 0.81354 0.0
C747 C 0.98921 0.93442 0.77051 0.0
C748 C 0.97672 0.95061 0.7578 0.0
C749 C 0.0109 0.91866 0.76408 0.0
C750 C 0.02435 0.90077 0.77678 0.0
C751 C 0.00722 0.88377 0.78616 0.0
C752 C 0.02005 0.86717 0.7983 0.0
C753 C 0.05001 0.86728 0.80105 0.0
C754 C 0.06722 0.88395 0.79162 0.0
C755 C 0.0545 0.90061 0.77948 0.0
H756 H 0.0599 0.85442 0.81046 0.0
H757 H 0.93934 0.0184 0.69344 0.0
H758 H 0.41869 0.07781 0.68195 0.0
H759 H 0.43351 0.07554 0.71513 0.0
H760 H 0.52077 0.05872 0.6978 0.0
H761 H 0.50576 0.0602 0.66448 0.0
H762 H 0.50702 0.03335 0.72776 0.0
H763 H 0.50199 0.11516 0.71136 0.0
H764 H 0.48039 0.15183 0.69848 0.0
H765 H 0.41271 0.14841 0.74015 0.0
H766 H 0.43365 0.11146 0.7531 0.0
H767 H 0.57469 0.07333 0.81391 0.0
H768 H 0.55891 0.06973 0.78086 0.0
H769 H 0.46981 0.06817 0.7991 0.0
H770 H 0.48546 0.07128 0.83228 0.0
H771 H 0.48508 0.10253 0.76899 0.0
H772 H 0.49468 0.01934 0.78541 0.0
H773 H 0.52102 0.98454 0.79783 0.0
H774 H 0.58662 0.99367 0.75528 0.0
H775 H 0.56087 0.02875 0.74277 0.0
C776 C 0.44099 0.07345 0.68521 0.0
C777 C 0.46115 0.06937 0.67066 0.0
C778 C 0.44946 0.07225 0.70418 0.0
C779 C 0.47839 0.06745 0.70895 0.0
C780 C 0.49836 0.06255 0.69444 0.0
C781 C 0.48979 0.06344 0.67543 0.0
C782 C 0.48786 0.06825 0.72904 0.0
C783 C 0.50248 0.04859 0.7367 0.0
C784 C 0.48187 0.08811 0.74076 0.0
C785 C 0.46923 0.1104 0.73308 0.0
C786 C 0.48237 0.12212 0.71769 0.0
C787 C 0.47027 0.14298 0.71039 0.0
C788 C 0.44517 0.15243 0.71847 0.0
C789 C 0.43214 0.14105 0.7339 0.0
C790 C 0.44412 0.12015 0.74123 0.0
C791 C 0.55174 0.07205 0.81088 0.0
C792 C 0.53126 0.07258 0.82561 0.0
C793 C 0.54281 0.06995 0.79204 0.0
C794 C 0.51325 0.06864 0.78764 0.0
C795 C 0.49272 0.06913 0.8023 0.0
C796 C 0.50168 0.07083 0.82119 0.0
C797 C 0.5038 0.06756 0.76765 0.0
C798 C 0.48939 0.08727 0.76001 0.0
C799 C 0.51064 0.04803 0.75587 0.0
C800 C 0.52599 0.02681 0.76327 0.0
C801 C 0.51485 0.01405 0.7788 0.0
C802 C 0.52965 0.99424 0.78584 0.0
C803 C 0.55552 0.98693 0.77738 0.0
C804 C 0.56659 0.99937 0.76183 0.0
C805 C 0.55189 0.0192 0.75475 0.0
H806 H 0.56695 0.9716 0.78285 0.0
H807 H 0.43584 0.16858 0.7128 0.0
H808 H 0.48721 0.56777 0.16224 0.0
H809 H 0.47032 0.56471 0.19515 0.0
H810 H 0.55813 0.57243 0.21503 0.0
H811 H 0.5751 0.57586 0.18226 0.0
H812 H 0.52558 0.5352 0.23314 0.0
H813 H 0.51826 0.61853 0.21671 0.0
H814 H 0.50182 0.65302 0.198 0.0
H815 H 0.41322 0.63419 0.20871 0.0
H816 H 0.42914 0.59936 0.22727 0.0
H817 H 0.50857 0.56634 0.32973 0.0
H818 H 0.52137 0.56311 0.29618 0.0
H819 H 0.43143 0.5715 0.28087 0.0
H820 H 0.41873 0.57567 0.31437 0.0
H821 H 0.46241 0.59837 0.25952 0.0
H822 H 0.46813 0.51681 0.27748 0.0
H823 H 0.48326 0.48228 0.2966 0.0
H824 H 0.57226 0.49611 0.28288 0.0
H825 H 0.5577 0.53094 0.26388 0.0
C826 C 0.50289 0.56868 0.17364 0.0
C827 C 0.53243 0.57215 0.16975 0.0
C828 C 0.49323 0.56697 0.19238 0.0
C829 C 0.51302 0.56843 0.20744 0.0
C830 C 0.54259 0.57123 0.20356 0.0
C831 C 0.5522 0.57329 0.18487 0.0
C832 C 0.5029 0.5678 0.22732 0.0
C833 C 0.51193 0.54906 0.23901 0.0
C834 C 0.48446 0.58556 0.2347 0.0
C835 C 0.47489 0.60619 0.22319 0.0
C836 C 0.49527 0.62157 0.21488 0.0
C837 C 0.48605 0.64122 0.20434 0.0
C838 C 0.45649 0.64577 0.20216 0.0
C839 C 0.4361 0.63062 0.21041 0.0
C840 C 0.44521 0.61093 0.22094 0.0
C841 C 0.49153 0.56732 0.31919 0.0
C842 C 0.46268 0.57129 0.32461 0.0
C843 C 0.49883 0.56532 0.30003 0.0
C844 C 0.47731 0.56673 0.28598 0.0
C845 C 0.4484 0.57035 0.29144 0.0
C846 C 0.44117 0.57269 0.31057 0.0
C847 C 0.48513 0.56575 0.26557 0.0
C848 C 0.47575 0.58427 0.25371 0.0
C849 C 0.50297 0.5476 0.25801 0.0
C850 C 0.51183 0.52662 0.26938 0.0
C851 C 0.49095 0.5126 0.27865 0.0
C852 C 0.49942 0.49295 0.28945 0.0
C853 C 0.5287 0.48704 0.29099 0.0
C854 C 0.54958 0.50073 0.28169 0.0
C855 C 0.54123 0.52041 0.27088 0.0
H856 H 0.53522 0.47182 0.29936 0.0
H857 H 0.44939 0.6611 0.19417 0.0
H858 H 0.99573 0.44394 0.33063 0.0
H859 H 0.98131 0.44559 0.29719 0.0
H860 H 0.06468 0.41787 0.28077 0.0
H861 H 0.07921 0.41608 0.31411 0.0
H862 H 0.04548 0.45571 0.25777 0.0
H863 H 0.01064 0.38099 0.28244 0.0
H864 H 0.98398 0.35563 0.30501 0.0
H865 H 0.90481 0.3917 0.29115 0.0
H866 H 0.93111 0.41751 0.26868 0.0
H867 H 0.01244 0.41897 0.16367 0.0
H868 H 0.02855 0.42214 0.19665 0.0
H869 H 0.94059 0.43613 0.21421 0.0
H870 H 0.92433 0.43174 0.18144 0.0
H871 H 0.9625 0.40612 0.23704 0.0
H872 H 0.99627 0.48049 0.21183 0.0
H873 H 0.0226 0.50661 0.18964 0.0
H874 H 0.10276 0.47281 0.20463 0.0
H875 H 0.07686 0.44629 0.22674 0.0
C876 C 0.01104 0.43838 0.31987 0.0
C877 C 0.03851 0.42976 0.32495 0.0
C878 C 0.00277 0.43929 0.30082 0.0
C879 C 0.02189 0.43169 0.28657 0.0
C880 C 0.04966 0.42382 0.29157 0.0
C881 C 0.05785 0.42272 0.31061 0.0
C882 C 0.01254 0.43097 0.26651 0.0
C883 C 0.02749 0.44475 0.25314 0.0
C884 C 0.98876 0.41698 0.26065 0.0
C885 C 0.97289 0.40134 0.27403 0.0
C886 C 0.98759 0.38364 0.28432 0.0
C887 C 0.97254 0.36916 0.29707 0.0
C888 C 0.94273 0.37209 0.29955 0.0
C889 C 0.92791 0.38947 0.28924 0.0
C890 C 0.94286 0.40401 0.27648 0.0
C891 C 0.99665 0.42288 0.17459 0.0
C892 C 0.96717 0.42511 0.17006 0.0
C893 C 0.00586 0.42483 0.19342 0.0
C894 C 0.98585 0.42971 0.20795 0.0
C895 C 0.95645 0.43231 0.2033 0.0
C896 C 0.94718 0.42986 0.18457 0.0
C897 C 0.9952 0.43111 0.22809 0.0
C898 C 0.98034 0.41731 0.24156 0.0
C899 C 0.01894 0.44524 0.23403 0.0
C900 C 0.03458 0.46127 0.22082 0.0
C901 C 0.01949 0.47853 0.21031 0.0
C902 C 0.03434 0.49342 0.19776 0.0
C903 C 0.06432 0.49134 0.1957 0.0
C904 C 0.07953 0.4744 0.20623 0.0
C905 C 0.06478 0.45945 0.21878 0.0
H906 H 0.07578 0.50287 0.18597 0.0
H907 H 0.93112 0.36087 0.30943 0.0
H908 H 0.57742 0.41883 0.6816 0.0
H909 H 0.56129 0.42293 0.71437 0.0
H910 H 0.47538 0.44084 0.69494 0.0
H911 H 0.49183 0.43764 0.66194 0.0
H912 H 0.4885 0.46707 0.72451 0.0
H913 H 0.4921 0.38438 0.71074 0.0
H914 H 0.5131 0.34666 0.69945 0.0
H915 H 0.57965 0.35121 0.74182 0.0
H916 H 0.5593 0.38916 0.7532 0.0
H917 H 0.42095 0.4309 0.81278 0.0
H918 H 0.43571 0.43394 0.77945 0.0
H919 H 0.52534 0.43596 0.79652 0.0
H920 H 0.51074 0.43348 0.82989 0.0
H921 H 0.50819 0.39975 0.76815 0.0
H922 H 0.50137 0.48386 0.78155 0.0
H923 H 0.47639 0.51997 0.7927 0.0
H924 H 0.4103 0.51008 0.7506 0.0
H925 H 0.43468 0.47368 0.73938 0.0
C926 C 0.55513 0.42378 0.6843 0.0
C927 C 0.53577 0.42769 0.66927 0.0
C928 C 0.5459 0.42602 0.70304 0.0
C929 C 0.51695 0.43164 0.70712 0.0
C930 C 0.49778 0.43636 0.69211 0.0
C931 C 0.50716 0.43448 0.6733 0.0
C932 C 0.50671 0.43192 0.72707 0.0
C933 C 0.49249 0.45222 0.73397 0.0
C934 C 0.51201 0.41259 0.73948 0.0
C935 C 0.52432 0.38974 0.7327 0.0
C936 C 0.51135 0.37743 0.71756 0.0
C937 C 0.52311 0.356 0.71116 0.0
C938 C 0.54773 0.34658 0.71988 0.0
C939 C 0.5606 0.35855 0.73506 0.0
C940 C 0.54895 0.38001 0.7415 0.0
C941 C 0.44378 0.43226 0.80941 0.0
C942 C 0.46475 0.43191 0.82386 0.0
C943 C 0.45213 0.43406 0.79042 0.0
C944 C 0.48156 0.4352 0.78563 0.0
C945 C 0.50252 0.43515 0.80003 0.0
C946 C 0.49416 0.43379 0.81903 0.0
C947 C 0.49055 0.43497 0.76555 0.0
C948 C 0.50433 0.41457 0.75863 0.0
C949 C 0.48427 0.45396 0.7531 0.0
C950 C 0.46968 0.4759 0.75977 0.0
C951 C 0.48136 0.48925 0.77479 0.0
C952 C 0.46734 0.5098 0.7811 0.0
C953 C 0.44172 0.51728 0.7724 0.0
C954 C 0.43012 0.50425 0.75734 0.0
C955 C 0.44404 0.48367 0.75099 0.0
H956 H 0.43091 0.53319 0.7773 0.0
H957 H 0.5568 0.32998 0.71491 0.0
H958 H 0.07887 0.58438 0.8157 0.0
H959 H 0.06413 0.58111 0.78257 0.0
H960 H 0.97955 0.55698 0.8001 0.0
H961 H 0.99454 0.55956 0.83339 0.0
H962 H 0.99672 0.53265 0.77017 0.0
H963 H 0.99061 0.61436 0.78635 0.0
H964 H 0.00701 0.6528 0.79918 0.0
H965 H 0.07468 0.6557 0.75748 0.0
H966 H 0.059 0.61702 0.74459 0.0
H967 H 0.92423 0.57053 0.68413 0.0
H968 H 0.94038 0.56743 0.71716 0.0
H969 H 0.02932 0.56689 0.69859 0.0
H970 H 0.01331 0.56929 0.66542 0.0
H971 H 0.00932 0.60322 0.7287 0.0
H972 H 0.01144 0.51938 0.71279 0.0
H973 H 0.9901 0.48227 0.70052 0.0
H974 H 0.92296 0.48599 0.74256 0.0
H975 H 0.94367 0.52334 0.75489 0.0
C976 C 0.05717 0.57826 0.8125 0.0
C977 C 0.03775 0.5724 0.8271 0.0
C978 C 0.04874 0.57648 0.79357 0.0
C979 C 0.02056 0.56923 0.78886 0.0
C980 C 0.00137 0.56269 0.80341 0.0
C981 C 0.00992 0.56423 0.82241 0.0
C982 C 0.01102 0.56909 0.76878 0.0
C983 C 0.99922 0.54816 0.76117 0.0
C984 C 0.01434 0.58932 0.757 0.0
C985 C 0.02381 0.61266 0.76463 0.0
C986 C 0.00914 0.6231 0.78001 0.0
C987 C 0.01828 0.64495 0.78728 0.0
C988 C 0.04191 0.65667 0.77918 0.0
C989 C 0.05641 0.64658 0.76376 0.0
C990 C 0.04739 0.62469 0.75646 0.0
C991 C 0.94721 0.5695 0.68709 0.0
C992 C 0.96756 0.57016 0.67229 0.0
C993 C 0.95636 0.56769 0.70591 0.0
C994 C 0.98597 0.56692 0.71019 0.0
C995 C 0.00636 0.56742 0.69546 0.0
C996 C 0.99721 0.56871 0.67659 0.0
C997 C 0.99555 0.56674 0.73015 0.0
C998 C 0.00709 0.5877 0.73773 0.0
C999 C 0.99132 0.54678 0.74198 0.0
C1000 C 0.97892 0.52429 0.73462 0.0
C1001 C 0.99196 0.51242 0.71929 0.0
C1002 C 0.98002 0.49131 0.71235 0.0
C1003 C 0.95514 0.48181 0.72072 0.0
C1004 C 0.9422 0.49338 0.73607 0.0
C1005 C 0.95405 0.51451 0.74305 0.0
H1006 H 0.94594 0.46547 0.71533 0.0
H1007 H 0.04894 0.6736 0.78484 0.0
H1008 H 0.99189 0.14332 0.13101 0.0
H1009 H 0.97581 0.18453 0.12876 0.0
H1010 H 0.05471 0.20292 0.09942 0.0
H1011 H 0.07135 0.16167 0.10216 0.0
H1012 H 0.042 0.2357 0.12486 0.0
H1013 H 0.98889 0.19587 0.07571 0.0
H1014 H 0.95701 0.16497 0.06232 0.0
H1015 H 0.88835 0.18681 0.0995 0.0
H1016 H 0.91994 0.21764 0.1133 0.0
H1017 H 0.99639 0.34848 0.09379 0.0
H1018 H 0.01128 0.30686 0.09369 0.0
H1019 H 0.93379 0.28789 0.12435 0.0
H1020 H 0.91834 0.3296 0.12404 0.0
H1021 H 0.94584 0.25545 0.09767 0.0
H1022 H 0.99922 0.29466 0.14719 0.0
H1023 H 0.03101 0.32561 0.16058 0.0
H1024 H 0.09917 0.30482 0.12263 0.0
H1025 H 0.06764 0.27395 0.10883 0.0
C1026 C 0.00585 0.15614 0.12408 0.0
C1027 C 0.03282 0.14927 0.11667 0.0
C1028 C 0.99654 0.17968 0.12271 0.0
C1029 C 0.01377 0.19676 0.11359 0.0
C1030 C 0.04098 0.19002 0.10644 0.0
C1031 C 0.05045 0.16647 0.10799 0.0
C1032 C 0.00351 0.22168 0.11173 0.0
C1033 C 0.02117 0.24003 0.11864 0.0
C1034 C 0.976 0.22733 0.10404 0.0
C1035 C 0.95687 0.20894 0.09564 0.0
C1036 C 0.96705 0.19398 0.08111 0.0
C1037 C 0.94902 0.1765 0.07344 0.0
C1038 C 0.92069 0.1739 0.08008 0.0
C1039 C 0.9103 0.18883 0.09438 0.0
C1040 C 0.92825 0.20633 0.10211 0.0
C1041 C 0.98239 0.33542 0.10038 0.0
C1042 C 0.95631 0.34229 0.10906 0.0
C1043 C 0.991 0.31165 0.10039 0.0
C1044 C 0.97396 0.29432 0.10937 0.0
C1045 C 0.94735 0.30099 0.11743 0.0
C1046 C 0.93856 0.3248 0.11726 0.0
C1047 C 0.98435 0.26941 0.11078 0.0
C1048 C 0.9667 0.25109 0.10382 0.0
C1049 C 0.01187 0.26376 0.11842 0.0
C1050 C 0.03098 0.28213 0.12687 0.0
C1051 C 0.02093 0.29679 0.14162 0.0
C1052 C 0.03891 0.3143 0.1493 0.0
C1053 C 0.06707 0.31722 0.14243 0.0
C1054 C 0.07735 0.30256 0.12792 0.0
C1055 C 0.05944 0.28504 0.12018 0.0
H1056 H 0.08095 0.3308 0.14839 0.0
H1057 H 0.90678 0.16034 0.07413 0.0
H1058 H 0.50645 0.85312 0.11717 0.0
H1059 H 0.52186 0.81176 0.11511 0.0
H1060 H 0.43506 0.791 0.09967 0.0
H1061 H 0.41929 0.83252 0.10214 0.0
H1062 H 0.45674 0.76143 0.12544 0.0
H1063 H 0.48985 0.79349 0.06648 0.0
H1064 H 0.51514 0.82185 0.04557 0.0
H1065 H 0.59601 0.80493 0.07242 0.0
H1066 H 0.57113 0.7767 0.09368 0.0
H1067 H 0.49416 0.64455 0.09893 0.0
H1068 H 0.47816 0.68584 0.09728 0.0
H1069 H 0.56322 0.70927 0.11433 0.0
H1070 H 0.57962 0.66783 0.11556 0.0
H1071 H 0.54142 0.73722 0.08665 0.0
H1072 H 0.50726 0.70569 0.14617 0.0
H1073 H 0.48158 0.67665 0.16624 0.0
H1074 H 0.40183 0.69245 0.13757 0.0
H1075 H 0.42716 0.72129 0.11708 0.0
C1076 C 0.49062 0.83978 0.11328 0.0
C1077 C 0.46167 0.84606 0.10974 0.0
C1078 C 0.49952 0.81614 0.11201 0.0
C1079 C 0.47974 0.7983 0.10694 0.0
C1080 C 0.45072 0.80449 0.10353 0.0
C1081 C 0.44175 0.82819 0.10491 0.0
C1082 C 0.48933 0.77316 0.10568 0.0
C1083 C 0.47496 0.75608 0.11671 0.0
C1084 C 0.51351 0.76625 0.09461 0.0
C1085 C 0.52857 0.78313 0.08178 0.0
C1086 C 0.51299 0.79595 0.06802 0.0
C1087 C 0.52726 0.81197 0.05609 0.0
C1088 C 0.55715 0.81523 0.05769 0.0
C1089 C 0.57285 0.80241 0.0712 0.0
C1090 C 0.55868 0.78637 0.08318 0.0
C1091 C 0.50953 0.65849 0.10223 0.0
C1092 C 0.5381 0.65298 0.10752 0.0
C1093 C 0.50031 0.68208 0.10134 0.0
C1094 C 0.51933 0.70062 0.10602 0.0
C1095 C 0.54815 0.69522 0.11073 0.0
C1096 C 0.55748 0.67157 0.11147 0.0
C1097 C 0.5089 0.72557 0.10646 0.0
C1098 C 0.52314 0.74259 0.0953 0.0
C1099 C 0.48453 0.73243 0.11736 0.0
C1100 C 0.46917 0.71548 0.12997 0.0
C1101 C 0.48428 0.70287 0.14408 0.0
C1102 C 0.46978 0.68645 0.15554 0.0
C1103 C 0.4401 0.68266 0.15315 0.0
C1104 C 0.42483 0.69538 0.13938 0.0
C1105 C 0.43924 0.71177 0.12784 0.0
H1106 H 0.42889 0.66989 0.16198 0.0
H1107 H 0.56816 0.82765 0.04845 0.0
H1108 H 0.511 0.64542 0.38183 0.0
H1109 H 0.52628 0.68688 0.38341 0.0
H1110 H 0.43759 0.7086 0.39164 0.0
H1111 H 0.42203 0.66696 0.38987 0.0
H1112 H 0.46497 0.73599 0.36541 0.0
H1113 H 0.48458 0.70862 0.42851 0.0
H1114 H 0.50505 0.6819 0.45278 0.0
H1115 H 0.59091 0.69704 0.43277 0.0
H1116 H 0.57092 0.7236 0.40819 0.0
H1117 H 0.49448 0.85447 0.39157 0.0
H1118 H 0.47912 0.813 0.39259 0.0
H1119 H 0.56738 0.79043 0.38384 0.0
H1120 H 0.58303 0.8321 0.383 0.0
H1121 H 0.53993 0.76358 0.41079 0.0
H1122 H 0.52075 0.79008 0.34741 0.0
H1123 H 0.50077 0.81679 0.32295 0.0
H1124 H 0.41467 0.80307 0.34317 0.0
H1125 H 0.43417 0.77654 0.36794 0.0
C1126 C 0.49472 0.65899 0.38404 0.0
C1127 C 0.4653 0.65293 0.38577 0.0
C1128 C 0.50352 0.68268 0.38502 0.0
C1129 C 0.48313 0.70082 0.38787 0.0
C1130 C 0.45369 0.69486 0.38949 0.0
C1131 C 0.44485 0.67109 0.38853 0.0
C1132 C 0.49259 0.726 0.3887 0.0
C1133 C 0.48101 0.74211 0.37553 0.0
C1134 C 0.51412 0.73382 0.40157 0.0
C1135 C 0.52622 0.71794 0.41639 0.0
C1136 C 0.50781 0.70611 0.42919 0.0
C1137 C 0.51933 0.69101 0.44302 0.0
C1138 C 0.54926 0.68773 0.44429 0.0
C1139 C 0.56773 0.69958 0.43175 0.0
C1140 C 0.55632 0.71468 0.41788 0.0
C1141 C 0.51068 0.8407 0.38995 0.0
C1142 C 0.53996 0.84653 0.38709 0.0
C1143 C 0.50184 0.817 0.39047 0.0
C1144 C 0.52204 0.79864 0.38802 0.0
C1145 C 0.55143 0.80436 0.3857 0.0
C1146 C 0.56033 0.82813 0.38518 0.0
C1147 C 0.51227 0.77353 0.38752 0.0
C1148 C 0.52382 0.75745 0.40071 0.0
C1149 C 0.49077 0.7657 0.37464 0.0
C1150 C 0.47895 0.7815 0.35965 0.0
C1151 C 0.49757 0.7929 0.34674 0.0
C1152 C 0.48633 0.80799 0.3328 0.0
C1153 C 0.45648 0.81167 0.33154 0.0
C1154 C 0.43779 0.80022 0.34418 0.0
C1155 C 0.44892 0.78514 0.35816 0.0
H1156 H 0.44781 0.82336 0.32074 0.0
H1157 H 0.55814 0.67603 0.455 0.0
H1158 H 0.07909 0.33506 0.38255 0.0
H1159 H 0.06266 0.29365 0.38352 0.0
H1160 H 0.97573 0.31715 0.39568 0.0
H1161 H 0.99194 0.35852 0.39468 0.0
H1162 H 0.99236 0.2786 0.41778 0.0
H1163 H 0.99104 0.30135 0.35225 0.0
H1164 H 0.01134 0.31768 0.32264 0.0
H1165 H 0.07659 0.26332 0.32239 0.0
H1166 H 0.05692 0.24686 0.35218 0.0
H1167 H 0.91985 0.1699 0.39501 0.0
H1168 H 0.93502 0.21167 0.39595 0.0
H1169 H 0.02201 0.191 0.38096 0.0
H1170 H 0.00701 0.14943 0.37985 0.0
H1171 H 0.00423 0.2286 0.36033 0.0
H1172 H 0.00538 0.20593 0.42611 0.0
H1173 H 0.98491 0.18986 0.45576 0.0
H1174 H 0.91958 0.24415 0.4555 0.0
H1175 H 0.93943 0.26036 0.42568 0.0
C1176 C 0.05654 0.33138 0.38557 0.0
C1177 C 0.03677 0.35 0.38845 0.0
C1178 C 0.04717 0.30775 0.38606 0.0
C1179 C 0.01793 0.30239 0.38951 0.0
C1180 C 0.99837 0.32093 0.39299 0.0
C1181 C 0.00766 0.34454 0.39234 0.0
C1182 C 0.00754 0.27748 0.38891 0.0
C1183 C 0.99462 0.26773 0.40516 0.0
C1184 C 0.01089 0.26325 0.37252 0.0
C1185 C 0.0227 0.27303 0.35456 0.0
C1186 C 0.00987 0.293 0.34597 0.0
C1187 C 0.02123 0.30226 0.32914 0.0
C1188 C 0.04529 0.29158 0.32067 0.0
C1189 C 0.05798 0.27159 0.32899 0.0
C1190 C 0.04673 0.26228 0.34584 0.0
C1191 C 0.94219 0.1743 0.39193 0.0
C1192 C 0.96225 0.15641 0.38739 0.0
C1193 C 0.95085 0.19813 0.39254 0.0
C1194 C 0.97971 0.20441 0.38866 0.0
C1195 C 0.99965 0.18656 0.38399 0.0
C1196 C 0.99105 0.1628 0.38342 0.0
C1197 C 0.98925 0.22958 0.38927 0.0
C1198 C 0.00195 0.23944 0.37297 0.0
C1199 C 0.98565 0.24389 0.40561 0.0
C1200 C 0.97371 0.2342 0.42355 0.0
C1201 C 0.9865 0.21432 0.43228 0.0
C1202 C 0.97504 0.20521 0.44914 0.0
C1203 C 0.9509 0.21593 0.45748 0.0
C1204 C 0.93824 0.23584 0.44901 0.0
C1205 C 0.9496 0.24501 0.43214 0.0
H1206 H 0.94206 0.20886 0.47053 0.0
H1207 H 0.05405 0.29877 0.30763 0.0
H1208 H 0.99166 0.64588 0.88591 0.0
H1209 H 0.97608 0.68731 0.88664 0.0
H1210 H 0.06503 0.70992 0.89141 0.0
H1211 H 0.08085 0.66829 0.89084 0.0
H1212 H 0.02936 0.73434 0.91557 0.0
H1213 H 0.03128 0.71437 0.84966 0.0
H1214 H 0.02023 0.6906 0.82119 0.0
H1215 H 0.92931 0.70252 0.82961 0.0
H1216 H 0.9398 0.72612 0.85829 0.0
H1217 H 0.00658 0.85518 0.89064 0.0
H1218 H 0.02246 0.81381 0.89159 0.0
H1219 H 0.93371 0.79053 0.88736 0.0
H1220 H 0.9176 0.83206 0.88629 0.0
H1221 H 0.96965 0.76653 0.86296 0.0
H1222 H 0.96847 0.78699 0.92906 0.0
H1223 H 0.98036 0.8111 0.9572 0.0
H1224 H 0.07099 0.79863 0.94799 0.0
H1225 H 0.05967 0.7747 0.91962 0.0
C1226 C 0.00794 0.65965 0.88718 0.0
C1227 C 0.0375 0.65386 0.88824 0.0
C1228 C 0.99899 0.68332 0.88752 0.0
C1229 C 0.01942 0.7017 0.88883 0.0
C1230 C 0.04893 0.69599 0.89033 0.0
C1231 C 0.05793 0.67224 0.88996 0.0
C1232 C 0.00981 0.72684 0.8885 0.0
C1233 C 0.01665 0.7415 0.90395 0.0
C1234 C 0.99272 0.73598 0.87351 0.0
C1235 C 0.98632 0.72183 0.85624 0.0
C1236 C 0.00892 0.71176 0.84553 0.0
C1237 C 0.00276 0.69834 0.82934 0.0
C1238 C 0.97408 0.695 0.82363 0.0
C1239 C 0.95151 0.70511 0.83407 0.0
C1240 C 0.95755 0.71853 0.85029 0.0
C1241 C 0.9904 0.84127 0.89 0.0
C1242 C 0.96082 0.84685 0.88843 0.0
C1243 C 0.99952 0.81764 0.8906 0.0
C1244 C 0.97925 0.7991 0.88972 0.0
C1245 C 0.94969 0.80459 0.8881 0.0
C1246 C 0.94052 0.82829 0.88755 0.0
C1247 C 0.98908 0.77402 0.89008 0.0
C1248 C 0.98232 0.75937 0.8746 0.0
C1249 C 0.00636 0.76493 0.905 0.0
C1250 C 0.01323 0.77924 0.9221 0.0
C1251 C 0.99095 0.78955 0.93294 0.0
C1252 C 0.99758 0.80315 0.94895 0.0
C1253 C 0.02641 0.80644 0.95435 0.0
C1254 C 0.04867 0.79608 0.94377 0.0
C1255 C 0.04216 0.78248 0.92774 0.0
H1256 H 0.03151 0.81698 0.96675 0.0
H1257 H 0.96934 0.68462 0.81108 0.0
H1258 H 0.50948 0.35548 0.87713 0.0
H1259 H 0.52455 0.31396 0.87857 0.0
H1260 H 0.4371 0.29308 0.89216 0.0
H1261 H 0.42181 0.33484 0.89087 0.0
H1262 H 0.47754 0.2704 0.9145 0.0
H1263 H 0.46193 0.28466 0.84833 0.0
H1264 H 0.46731 0.30586 0.81792 0.0
H1265 H 0.55898 0.2932 0.81888 0.0
H1266 H 0.5542 0.27221 0.84946 0.0
H1267 H 0.49226 0.14742 0.89379 0.0
H1268 H 0.47793 0.18917 0.8947 0.0
H1269 H 0.56532 0.21004 0.88095 0.0
H1270 H 0.57986 0.16812 0.87995 0.0
H1271 H 0.525 0.23277 0.85895 0.0
H1272 H 0.54038 0.21798 0.92505 0.0
H1273 H 0.53476 0.19675 0.95543 0.0
H1274 H 0.44325 0.2102 0.95452 0.0
H1275 H 0.44826 0.23123 0.92398 0.0
C1276 C 0.49342 0.34208 0.88045 0.0
C1277 C 0.46442 0.34839 0.88381 0.0
C1278 C 0.50207 0.31835 0.8812 0.0
C1279 C 0.48189 0.30042 0.88526 0.0
C1280 C 0.45299 0.30666 0.88896 0.0
C1281 C 0.44427 0.33047 0.88816 0.0
C1282 C 0.49111 0.27519 0.88553 0.0
C1283 C 0.48754 0.26204 0.90228 0.0
C1284 C 0.5048 0.26452 0.86971 0.0
C1285 C 0.50774 0.27707 0.85128 0.0
C1286 C 0.48327 0.28657 0.84214 0.0
C1287 C 0.4862 0.29852 0.82485 0.0
C1288 C 0.51348 0.30093 0.8165 0.0
C1289 C 0.53787 0.29134 0.82539 0.0
C1290 C 0.53506 0.2794 0.84269 0.0
C1291 C 0.5085 0.16089 0.89108 0.0
C1292 C 0.5372 0.15452 0.88681 0.0
C1293 C 0.50029 0.18475 0.89168 0.0
C1294 C 0.5206 0.20271 0.88803 0.0
C1295 C 0.54933 0.19643 0.88384 0.0
C1296 C 0.55762 0.17252 0.88334 0.0
C1297 C 0.5115 0.22797 0.88794 0.0
C1298 C 0.51505 0.24113 0.87119 0.0
C1299 C 0.49775 0.23861 0.90375 0.0
C1300 C 0.49466 0.22598 0.92212 0.0
C1301 C 0.51901 0.21623 0.93124 0.0
C1302 C 0.51595 0.20427 0.94851 0.0
C1303 C 0.48866 0.20207 0.95687 0.0
C1304 C 0.46438 0.21189 0.94801 0.0
C1305 C 0.46732 0.22385 0.93073 0.0
H1306 H 0.48633 0.19281 0.97025 0.0
H1307 H 0.5157 0.31019 0.80311 0.0
H1308 H 0.5069 0.14404 0.61566 0.0
H1309 H 0.52234 0.18548 0.61466 0.0
H1310 H 0.4343 0.20744 0.60415 0.0
H1311 H 0.41861 0.16575 0.60501 0.0
H1312 H 0.47334 0.23053 0.58113 0.0
H1313 H 0.4621 0.21437 0.64728 0.0
H1314 H 0.469 0.19213 0.67708 0.0
H1315 H 0.56075 0.20377 0.67386 0.0
H1316 H 0.55445 0.2258 0.64387 0.0
H1317 H 0.49409 0.35272 0.60265 0.0
H1318 H 0.47793 0.31142 0.60201 0.0
H1319 H 0.56531 0.28795 0.61284 0.0
H1320 H 0.58166 0.32942 0.61363 0.0
H1321 H 0.5258 0.26577 0.63576 0.0
H1322 H 0.53651 0.28195 0.56926 0.0
H1323 H 0.52895 0.30424 0.53955 0.0
H1324 H 0.43725 0.29281 0.54373 0.0
H1325 H 0.44422 0.27073 0.57362 0.0
C1326 C 0.49078 0.15766 0.61311 0.0
C1327 C 0.46151 0.15168 0.61048 0.0
C1328 C 0.49965 0.18134 0.61261 0.0
C1329 C 0.47942 0.19953 0.60956 0.0
C1330 C 0.45022 0.19363 0.60658 0.0
C1331 C 0.44129 0.16987 0.60712 0.0
C1332 C 0.48895 0.22468 0.60954 0.0
C1333 C 0.48443 0.23837 0.59317 0.0
C1334 C 0.50395 0.23469 0.62512 0.0
C1335 C 0.50782 0.22156 0.64322 0.0
C1336 C 0.48378 0.21203 0.65284 0.0
C1337 C 0.48757 0.19948 0.66978 0.0
C1338 C 0.5153 0.19649 0.67733 0.0
C1339 C 0.53928 0.20608 0.66798 0.0
C1340 C 0.53561 0.21862 0.65102 0.0
C1341 C 0.50993 0.33878 0.60477 0.0
C1342 C 0.53917 0.34429 0.60815 0.0
C1343 C 0.50066 0.31518 0.60434 0.0
C1344 C 0.52046 0.29661 0.60723 0.0
C1345 C 0.5497 0.30204 0.61055 0.0
C1346 C 0.55903 0.3257 0.61092 0.0
C1347 C 0.51037 0.2716 0.6073 0.0
C1348 C 0.51473 0.25794 0.62371 0.0
C1349 C 0.49511 0.26167 0.59179 0.0
C1350 C 0.49087 0.27488 0.57378 0.0
C1351 C 0.51471 0.28436 0.56393 0.0
C1352 C 0.51053 0.29692 0.54704 0.0
C1353 C 0.48263 0.29999 0.53978 0.0
C1354 C 0.45885 0.29045 0.54938 0.0
C1355 C 0.4629 0.27788 0.56629 0.0
H1356 H 0.47944 0.30972 0.5267 0.0
H1357 H 0.5182 0.18678 0.69046 0.0
H1358 H 0.0774 0.83259 0.6151 0.0
H1359 H 0.06166 0.79104 0.61346 0.0
H1360 H 0.9734 0.81399 0.60521 0.0
H1361 H 0.98888 0.85541 0.60715 0.0
H1362 H 0.9762 0.77998 0.63139 0.0
H1363 H 0.01363 0.79144 0.56847 0.0
H1364 H 0.05016 0.80261 0.54456 0.0
H1365 H 0.10809 0.74947 0.56628 0.0
H1366 H 0.07204 0.7382 0.5905 0.0
H1367 H 0.91867 0.66635 0.60824 0.0
H1368 H 0.93324 0.70819 0.60646 0.0
H1369 H 0.02263 0.68777 0.61371 0.0
H1370 H 0.00832 0.64606 0.61507 0.0
H1371 H 0.01829 0.7208 0.58714 0.0
H1372 H 0.98226 0.71035 0.65066 0.0
H1373 H 0.94636 0.69914 0.67497 0.0
H1374 H 0.88654 0.75037 0.65253 0.0
H1375 H 0.92197 0.76167 0.62793 0.0
C1376 C 0.05468 0.82874 0.61282 0.0
C1377 C 0.03437 0.84722 0.61126 0.0
C1378 C 0.04573 0.80502 0.61182 0.0
C1379 C 0.01637 0.79941 0.60906 0.0
C1380 C 0.99614 0.81789 0.60736 0.0
C1381 C 0.00505 0.84155 0.60842 0.0
C1382 C 0.00648 0.77433 0.60858 0.0
C1383 C 0.98509 0.76712 0.62151 0.0
C1384 C 0.01856 0.75743 0.596 0.0
C1385 C 0.04023 0.76413 0.58141 0.0
C1386 C 0.03425 0.78226 0.56824 0.0
C1387 C 0.05485 0.78859 0.55462 0.0
C1388 C 0.08146 0.7768 0.55393 0.0
C1389 C 0.08748 0.75861 0.56684 0.0
C1390 C 0.06696 0.75223 0.58051 0.0
C1391 C 0.94142 0.67082 0.6094 0.0
C1392 C 0.96234 0.65297 0.61186 0.0
C1393 C 0.94971 0.69471 0.60845 0.0
C1394 C 0.97902 0.70113 0.61017 0.0
C1395 C -8e-05 0.68325 0.61233 0.0
C1396 C 0.99167 0.65942 0.61317 0.0
C1397 C 0.98805 0.72645 0.60997 0.0
C1398 C 0.0093 0.73369 0.59694 0.0
C1399 C 0.97593 0.74338 0.62251 0.0
C1400 C 0.95465 0.73668 0.63734 0.0
C1401 C 0.96137 0.7191 0.65083 0.0
C1402 C 0.94112 0.71275 0.66467 0.0
C1403 C 0.91415 0.72398 0.66526 0.0
C1404 C 0.90742 0.74165 0.65204 0.0
C1405 C 0.92758 0.74805 0.63815 0.0
H1406 H 0.89851 0.71904 0.67599 0.0
H1407 H 0.09738 0.78172 0.54337 0.0
H1408 H 0.94414 0.92407 0.95276 0.0
H1409 H 0.95722 0.94487 0.98196 0.0
H1410 H 0.00294 0.99776 0.94928 0.0
H1411 H 0.99042 0.97676 0.92001 0.0
H1412 H 0.03291 0.98572 0.98029 0.0
H1413 H 0.93508 0.00807 0.96616 0.0
H1414 H 0.88365 0.00092 0.95877 0.0
H1415 H 0.8726 0.96533 0.01218 0.0
H1416 H 0.92416 0.9718 0.01971 0.0
H1417 H 0.0436 0.07353 0.05136 0.0
H1418 H 0.02958 0.05298 0.02224 0.0
H1419 H 0.9864 0.99902 0.0553 0.0
H1420 H 2e-05 0.0197 0.08452 0.0
H1421 H 0.95503 0.01165 0.02417 0.0
H1422 H 0.05346 0.9895 0.03804 0.0
H1423 H 0.10493 0.99708 0.04512 0.0
H1424 H 0.11464 0.03314 0.9918 0.0
H1425 H 0.06307 0.02618 0.98456 0.0
C1426 C 0.95716 0.94004 0.95181 0.0
C1427 C 0.96614 0.94889 0.93412 0.0
C1428 C 0.96449 0.95196 0.96849 0.0
C1429 C 0.98063 0.97308 0.96775 0.0
C1430 C 0.99038 0.98154 0.95014 0.0
C1431 C 0.98318 0.96955 0.93345 0.0
C1432 C 0.98692 0.98657 0.98531 0.0
C1433 C 0.01587 0.99165 0.98976 0.0
C1434 C 0.96467 0.99391 0.99784 0.0
C1435 C 0.93357 0.99022 0.99342 0.0
C1436 C 0.92174 0.99855 0.97627 0.0
C1437 C 0.89255 0.99464 0.97206 0.0
C1438 C 0.87487 0.98266 0.98499 0.0
C1439 C 0.88633 0.97459 0.00217 0.0
C1440 C 0.91554 0.97837 0.00641 0.0
C1441 C 0.03088 0.05741 0.05243 0.0
C1442 C 0.02305 0.04811 0.0702 0.0
C1443 C 0.023 0.04564 0.03579 0.0
C1444 C 0.00738 0.02428 0.03665 0.0
C1445 C 0.99857 0.01544 0.05435 0.0
C1446 C 0.00639 0.02725 0.07101 0.0
C1447 C 0.001 0.01079 0.01911 0.0
C1448 C 0.97206 0.00571 0.01468 0.0
C1449 C 0.02323 0.00352 0.00656 0.0
C1450 C 0.05433 0.00751 0.01084 0.0
C1451 C 0.06651 0.99921 0.02789 0.0
C1452 C 0.09572 0.00337 0.03192 0.0
C1453 C 0.11302 0.01562 0.01892 0.0
C1454 C 0.10119 0.02368 0.00186 0.0
C1455 C 0.07198 0.01963 0.99779 0.0
H1456 H 0.13562 0.01883 0.02204 0.0
H1457 H 0.85227 0.97965 0.98174 0.0
H1458 H 0.5528 0.07286 0.9496 0.0
H1459 H 0.53953 0.05119 0.97836 0.0
H1460 H 0.48902 0.00212 0.94496 0.0
H1461 H 0.50189 0.02396 0.91611 0.0
H1462 H 0.46095 0.01477 0.977 0.0
H1463 H 0.55583 0.98687 0.96052 0.0
H1464 H 0.60749 0.99092 0.95228 0.0
H1465 H 0.62398 0.02453 0.00587 0.0
H1466 H 0.57231 0.021 0.01432 0.0
H1467 H 0.44585 0.92513 0.04639 0.0
H1468 H 0.45996 0.94613 0.01748 0.0
H1469 H 0.50962 0.99591 0.05075 0.0
H1470 H 0.49589 0.97476 0.07977 0.0
H1471 H 0.53823 0.98266 0.01871 0.0
H1472 H 0.44319 0.01078 0.03503 0.0
H1473 H 0.39154 0.00659 0.04323 0.0
H1474 H 0.37539 0.9724 0.98983 0.0
H1475 H 0.42707 0.97606 0.98142 0.0
C1476 C 0.53872 0.05754 0.94839 0.0
C1477 C 0.52847 0.05001 0.93062 0.0
C1478 C 0.53128 0.04512 0.96482 0.0
C1479 C 0.51367 0.02484 0.96375 0.0
C1480 C 0.50273 0.01768 0.94608 0.0
C1481 C 0.51011 0.03014 0.92962 0.0
C1482 C 0.50694 0.01095 0.98105 0.0
C1483 C 0.47783 0.00747 0.98599 0.0
C1484 C 0.52902 0.00187 0.99296 0.0
C1485 C 0.56014 0.00387 0.98797 0.0
C1486 C 0.57043 0.99528 0.97049 0.0
C1487 C 0.59972 0.99746 0.96579 0.0
C1488 C 0.61899 0.00803 0.97852 0.0
C1489 C 0.60902 0.01638 0.99601 0.0
C1490 C 0.57974 0.01427 0.00077 0.0
C1491 C 0.45995 0.94044 0.04754 0.0
C1492 C 0.46964 0.94842 0.06533 0.0
C1493 C 0.46789 0.95247 0.03102 0.0
C1494 C 0.48545 0.97278 0.03202 0.0
C1495 C 0.49596 0.98031 0.0497 0.0
C1496 C 0.48807 0.96825 0.06625 0.0
C1497 C 0.49225 0.9865 0.01465 0.0
C1498 C 0.52136 0.98995 0.00971 0.0
C1499 C 0.47018 0.99554 0.00272 0.0
C1500 C 0.43905 0.99349 0.00768 0.0
C1501 C 0.42867 0.00221 0.02509 0.0
C1502 C 0.39938 0.99995 0.02977 0.0
C1503 C 0.38021 0.98918 0.01708 0.0
C1504 C 0.39028 0.98071 -0.00034 0.0
C1505 C 0.41956 0.98288 0.99492 0.0
H1506 H 0.35754 0.98745 0.02073 0.0
H1507 H 0.64166 0.0097 0.97486 0.0
H1508 H 0.50001 0.02741 0.57828 0.0
H1509 H 0.51519 0.00778 0.54893 0.0
H1510 H 0.45652 0.052 0.51693 0.0
H1511 H 0.44111 0.07157 0.5462 0.0
H1512 H 0.45145 0.00557 0.50738 0.0
H1513 H 0.52813 0.06207 0.51501 0.0
H1514 H 0.56744 0.08286 0.53186 0.0
H1515 H 0.61379 0.01714 0.53783 0.0
H1516 H 0.57454 0.99587 0.52123 0.0
H1517 H 0.50403 0.97539 0.41557 0.0
H1518 H 0.48999 0.99693 0.4443 0.0
H1519 H 0.54839 0.95367 0.47734 0.0
H1520 H 0.56272 0.93224 0.44867 0.0
H1521 H 0.55362 0.00036 0.48604 0.0
H1522 H 0.47652 0.94377 0.47902 0.0
H1523 H 0.43719 0.92292 0.46223 0.0
H1524 H 0.39162 0.98885 0.4552 0.0
H1525 H 0.4309 0.01016 0.47173 0.0
C1526 C 0.49053 0.03306 0.56497 0.0
C1527 C 0.4694 0.05101 0.56451 0.0
C1528 C 0.49926 0.02189 0.54822 0.0
C1529 C 0.48708 0.02855 0.53076 0.0
C1530 C 0.46616 0.04661 0.53027 0.0
C1531 C 0.45747 0.05781 0.54698 0.0
C1532 C 0.49543 0.01614 0.51308 0.0
C1533 C 0.47373 0.00472 0.50255 0.0
C1534 C 0.52459 0.0146 0.50706 0.0
C1535 C 0.54824 0.02734 0.51704 0.0
C1536 C 0.54658 0.05201 0.52006 0.0
C1537 C 0.56888 0.06389 0.52954 0.0
C1538 C 0.59306 0.05132 0.53596 0.0
C1539 C 0.59502 0.02684 0.53287 0.0
C1540 C 0.57277 0.01487 0.52341 0.0
C1541 C 0.51376 0.97041 0.42898 0.0
C1542 C 0.53439 0.9521 0.42991 0.0
C1543 C 0.50569 0.98269 0.44537 0.0
C1544 C 0.51801 0.97676 0.46295 0.0
C1545 C 0.53865 0.95851 0.4639 0.0
C1546 C 0.5467 0.94623 0.44753 0.0
C1547 C 0.50964 0.98975 0.48037 0.0
C1548 C 0.53134 0.00126 0.49085 0.0
C1549 C 0.48047 0.99137 0.48635 0.0
C1550 C 0.4568 0.97859 0.47644 0.0
C1551 C 0.45823 0.95385 0.47376 0.0
C1552 C 0.43592 0.94194 0.46431 0.0
C1553 C 0.41196 0.95456 0.4576 0.0
C1554 C 0.41022 0.97911 0.46037 0.0
C1555 C 0.43249 0.99111 0.46979 0.0
H1556 H 0.3947 0.94531 0.4503 0.0
H1557 H 0.6103 0.06055 0.54329 0.0
H1558 H 0.99858 0.97623 0.58394 0.0
H1559 H 0.98548 0.99918 0.5557 0.0
H1560 H 0.04429 0.95706 0.52208 0.0
H1561 H 0.0576 0.93416 0.55025 0.0
H1562 H 0.05066 0.00452 0.51545 0.0
H1563 H 0.97292 0.94793 0.5188 0.0
H1564 H 0.93264 0.92637 0.534 0.0
H1565 H 0.88717 0.9921 0.54236 0.0
H1566 H 0.9274 0.0141 0.52744 0.0
H1567 H 0.00209 0.03392 0.42271 0.0
H1568 H 0.01595 0.01421 0.45227 0.0
H1569 H 0.95529 0.05783 0.48315 0.0
H1570 H 0.94117 0.07752 0.4536 0.0
H1571 H 0.9497 0.01118 0.492 0.0
H1572 H 0.02669 0.06767 0.48743 0.0
H1573 H 0.06697 0.08912 0.47214 0.0
H1574 H 0.1139 0.0237 0.46601 0.0
H1575 H 0.0737 0.00179 0.48102 0.0
C1576 C 0.00856 0.97178 0.5705 0.0
C1577 C 0.02905 0.95339 0.56927 0.0
C1578 C 0.00103 0.98486 0.55439 0.0
C1579 C 0.01384 0.97972 0.53681 0.0
C1580 C 0.03421 0.96131 0.53554 0.0
C1581 C 0.04167 0.94818 0.55161 0.0
C1582 C 0.00638 0.99377 0.51975 0.0
C1583 C 0.02864 0.00577 0.51017 0.0
C1584 C 0.97754 0.99587 0.51322 0.0
C1585 C 0.95332 0.98268 0.52219 0.0
C1586 C 0.95445 0.95781 0.52403 0.0
C1587 C 0.9316 0.94551 0.53257 0.0
C1588 C 0.9074 0.95787 0.53919 0.0
C1589 C 0.90596 0.98255 0.53725 0.0
C1590 C 0.92877 0.99495 0.52875 0.0
C1591 C 0.99193 0.03948 0.43583 0.0
C1592 C 0.97055 0.05723 0.43587 0.0
C1593 C -7e-05 0.02826 0.4527 0.0
C1594 C 0.98675 0.03467 0.4699 0.0
C1595 C 0.9657 0.05265 0.47002 0.0
C1596 C 0.95775 0.06392 0.45315 0.0
C1597 C 0.99401 0.02183 0.4876 0.0
C1598 C 0.9717 0.01005 0.49732 0.0
C1599 C 0.02282 0.01993 0.49424 0.0
C1600 C 0.04704 0.03305 0.48519 0.0
C1601 C 0.04548 0.05782 0.48267 0.0
C1602 C 0.06833 0.07007 0.47408 0.0
C1603 C 0.09295 0.05777 0.46806 0.0
C1604 C 0.0948 0.0332 0.47066 0.0
C1605 C 0.072 0.02086 0.47922 0.0
H1606 H 0.11062 0.06729 0.46142 0.0
H1607 H 0.88972 0.94831 0.54579 0.0
H1608 H 0.55286 0.5745 0.04604 0.0
H1609 H 0.5396 0.55343 0.01699 0.0
H1610 H 0.49829 0.49869 0.05023 0.0
H1611 H 0.5115 0.5197 0.07941 0.0
H1612 H 0.53448 0.4807 0.02236 0.0
H1613 H 0.45737 0.53732 0.02756 0.0
H1614 H 0.43577 0.5771 0.03135 0.0
H1615 H 0.47742 0.60046 0.98018 0.0
H1616 H 0.49963 0.56089 0.97622 0.0
H1617 H 0.45614 0.42427 0.94804 0.0
H1618 H 0.47113 0.44473 0.97701 0.0
H1619 H 0.51034 0.50022 0.94347 0.0
H1620 H 0.4953 0.47988 0.91439 0.0
H1621 H 0.47562 0.51784 0.97147 0.0
H1622 H 0.55241 0.4612 0.96604 0.0
H1623 H 0.57423 0.4215 0.96224 0.0
H1624 H 0.5335 0.39822 0.01376 0.0
H1625 H 0.51108 0.4377 0.01772 0.0
C1626 C 0.5408 0.55805 0.04716 0.0
C1627 C 0.53314 0.54875 0.06496 0.0
C1628 C 0.53321 0.54607 0.03056 0.0
C1629 C 0.51785 0.52459 0.0315 0.0
C1630 C 0.51015 0.51526 0.04925 0.0
C1631 C 0.51758 0.52732 0.06587 0.0
C1632 C 0.51032 0.51168 0.01391 0.0
C1633 C 0.52127 0.48865 0.01133 0.0
C1634 C 0.49374 0.52239 -0.00063 0.0
C1635 C 0.48041 0.54621 0.0017 0.0
C1636 C 0.46214 0.551 0.0172 0.0
C1637 C 0.44975 0.5735 0.01936 0.0
C1638 C 0.45529 0.59132 0.00604 0.0
C1639 C 0.47318 0.58665 0.9905 0.0
C1640 C 0.48567 0.56418 0.98828 0.0
C1641 C 0.46818 0.44072 0.94684 0.0
C1642 C 0.47456 0.4505 0.92898 0.0
C1643 C 0.4768 0.45234 0.96339 0.0
C1644 C 0.49196 0.47391 0.96236 0.0
C1645 C 0.49865 0.48358 0.94454 0.0
C1646 C 0.49016 0.4719 0.92797 0.0
C1647 C 0.49978 0.48683 0.9799 0.0
C1648 C 0.48887 0.50987 0.98248 0.0
C1649 C 0.51642 0.47614 0.99443 0.0
C1650 C 0.52982 0.45235 0.99207 0.0
C1651 C 0.54788 0.44756 0.97647 0.0
C1652 C 0.56041 0.4251 0.9743 0.0
C1653 C 0.55519 0.40733 0.98772 0.0
C1654 C 0.53749 0.41199 0.00336 0.0
C1655 C 0.52489 0.43441 0.00558 0.0
H1656 H 0.56492 0.38996 0.98602 0.0
H1657 H 0.44566 0.60872 0.00774 0.0
H1658 H 0.93664 0.43141 0.04754 0.0
H1659 H 0.95147 0.45323 0.01922 0.0
H1660 H 0.01636 0.4903 0.05183 0.0
H1661 H 0.00114 0.46884 0.08039 0.0
H1662 H 0.98715 0.52038 0.02979 0.0
H1663 H 0.03477 0.44551 0.02093 0.0
H1664 H 0.03826 0.40186 0.01886 0.0
H1665 H 0.97854 0.40176 0.97217 0.0
H1666 H 0.97438 0.4454 0.97414 0.0
H1667 H 0.06335 0.56837 0.95103 0.0
H1668 H 0.0491 0.54707 0.97975 0.0
H1669 H 0.98358 0.50941 0.94812 0.0
H1670 H 0.99821 0.53032 0.9192 0.0
H1671 H 0.01384 0.4797 0.96986 0.0
H1672 H 0.96607 0.55474 0.97898 0.0
H1673 H 0.96291 0.5984 0.98112 0.0
H1674 H 0.02341 0.59818 0.02737 0.0
H1675 H 0.02723 0.55453 0.02534 0.0
C1676 C 0.95419 0.4441 0.04866 0.0
C1677 C 0.96781 0.44839 0.06615 0.0
C1678 C 0.9627 0.4565 0.03245 0.0
C1679 C 0.98525 0.47319 0.03336 0.0
C1680 C 0.99894 0.47747 0.05082 0.0
C1681 C 0.9903 0.46516 0.06708 0.0
C1682 C 0.99402 0.48657 0.01618 0.0
C1683 C 0.99341 0.5115 0.01676 0.0
C1684 C 0.00152 0.47496 -0.00093 0.0
C1685 C 0.00407 0.44871 0.9978 0.0
C1686 C 0.02222 0.43617 0.01032 0.0
C1687 C 0.02434 0.41143 0.00914 0.0
C1688 C 0.00857 0.39904 0.99542 0.0
C1689 C 0.99071 0.41138 0.98281 0.0
C1690 C 0.98849 0.43612 0.98394 0.0
C1691 C 0.04576 0.55568 0.95023 0.0
C1692 C 0.03183 0.55103 0.9329 0.0
C1693 C 0.03758 0.54358 0.96666 0.0
C1694 C 0.01507 0.52683 0.96612 0.0
C1695 C 0.00099 0.52228 0.94885 0.0
C1696 C 0.00929 0.53429 0.93237 0.0
C1697 C 0.00684 0.51351 0.98344 0.0
C1698 C 0.00759 0.48859 0.98289 0.0
C1699 C 0.99952 0.52513 0.00059 0.0
C1700 C 0.99714 0.55138 0.00189 0.0
C1701 C 0.97886 0.56402 0.98951 0.0
C1702 C 0.97692 0.58876 0.99072 0.0
C1703 C 0.993 0.60107 0.00434 0.0
C1704 C 0.01099 0.58864 0.01681 0.0
C1705 C 0.01303 0.56389 0.01565 0.0
H1706 H 0.99147 0.62022 0.00525 0.0
H1707 H 0.01025 0.37989 0.99454 0.0
H1708 H 0.93284 0.56685 0.54951 0.0
H1709 H 0.94596 0.54694 0.5199 0.0
H1710 H 0.01836 0.51349 0.54786 0.0
H1711 H 0.00524 0.53326 0.57764 0.0
H1712 H 0.03144 0.5332 0.51164 0.0
H1713 H 0.96065 0.48185 0.54106 0.0
H1714 H 0.91348 0.47302 0.55586 0.0
H1715 H 0.86972 0.49488 0.50503 0.0
H1716 H 0.91665 0.50418 0.49001 0.0
H1717 H 0.0651 0.44079 0.44806 0.0
H1718 H 0.05009 0.46274 0.47629 0.0
H1719 H 0.97754 0.49186 0.44555 0.0
H1720 H 0.9926 0.47001 0.41707 0.0
H1721 H 0.96319 0.4759 0.48217 0.0
H1722 H 0.03147 0.52631 0.45209 0.0
H1723 H 0.07723 0.53773 0.4366 0.0
H1724 H 0.12415 0.5206 0.48738 0.0
H1725 H 0.07869 0.50861 0.50307 0.0
C1726 C 0.95165 0.55536 0.54933 0.0
C1727 C 0.968 0.55153 0.56587 0.0
C1728 C 0.95904 0.54396 0.53244 0.0
C1729 C 0.98296 0.52864 0.53179 0.0
C1730 C -0.00021 0.52525 0.54814 0.0
C1731 C 0.99224 0.53648 0.56511 0.0
C1732 C 0.9901 0.51582 0.5141 0.0
C1733 C 0.01674 0.52043 0.50532 0.0
C1734 C 0.97036 0.49983 0.50557 0.0
C1735 C 0.94215 0.49394 0.51449 0.0
C1736 C 0.94096 0.48495 0.53309 0.0
C1737 C 0.91427 0.47983 0.54151 0.0
C1738 C 0.88861 0.48346 0.53141 0.0
C1739 C 0.88961 0.49212 0.51284 0.0
C1740 C 0.91625 0.4973 0.50437 0.0
C1741 C 0.04585 0.45176 0.44732 0.0
C1742 C 0.03004 0.45377 0.43037 0.0
C1743 C 0.03739 0.46434 0.46343 0.0
C1744 C 0.01289 0.47905 0.46291 0.0
C1745 C 0.99655 0.48061 0.44617 0.0
C1746 C 0.0052 0.46819 0.42995 0.0
C1747 C 0.00476 0.49302 0.47985 0.0
C1748 C 0.97791 0.48868 0.48848 0.0
C1749 C 0.02416 0.50948 0.48813 0.0
C1750 C 0.05168 0.51631 0.47869 0.0
C1751 C 0.05158 0.52469 0.45989 0.0
C1752 C 0.07746 0.53132 0.45108 0.0
C1753 C 0.10358 0.52984 0.46098 0.0
C1754 C 0.1039 0.52168 0.47971 0.0
C1755 C 0.07807 0.51497 0.48857 0.0
H1756 H 0.12354 0.53515 0.45415 0.0
H1757 H 0.86797 0.47951 0.53796 0.0
H1758 H 0.58306 0.44713 0.5523 0.0
H1759 H 0.57159 0.46964 0.52366 0.0
H1760 H 0.48184 0.4728 0.54074 0.0
H1761 H 0.49376 0.4516 0.57005 0.0
H1762 H 0.54246 0.46297 0.49465 0.0
H1763 H 0.44849 0.5211 0.52453 0.0
H1764 H 0.43409 0.5397 0.55478 0.0
H1765 H 0.52273 0.53998 0.57315 0.0
H1766 H 0.5377 0.52168 0.54292 0.0
H1767 H 0.46753 0.51292 0.41765 0.0
H1768 H 0.48293 0.49226 0.44638 0.0
H1769 H 0.50614 0.5595 0.47178 0.0
H1770 H 0.48853 0.58024 0.44351 0.0
H1771 H 0.48255 0.53605 0.49689 0.0
H1772 H 0.55783 0.51629 0.45383 0.0
H1773 H 0.58006 0.50195 0.42416 0.0
H1774 H 0.54322 0.43281 0.43324 0.0
H1775 H 0.52045 0.44682 0.46285 0.0
C1776 C 0.56089 0.45267 0.54991 0.0
C1777 C 0.53929 0.4478 0.56337 0.0
C1778 C 0.55432 0.46549 0.53353 0.0
C1779 C 0.52591 0.4733 0.5301 0.0
C1780 C 0.50409 0.46763 0.54327 0.0
C1781 C 0.51083 0.45536 0.55994 0.0
C1782 C 0.51922 0.48727 0.51273 0.0
C1783 C 0.52944 0.479 0.49517 0.0
C1784 C 0.50295 0.50859 0.51336 0.0
C1785 C 0.49415 0.51979 0.53153 0.0
C1786 C 0.46491 0.52521 0.535 0.0
C1787 C 0.45665 0.53569 0.55215 0.0
C1788 C 0.47747 0.54094 0.5659 0.0
C1789 C 0.50661 0.53582 0.56251 0.0
C1790 C 0.51499 0.52537 0.54538 0.0
C1791 C 0.47612 0.52321 0.42935 0.0
C1792 C 0.47703 0.54809 0.42842 0.0
C1793 C 0.48511 0.5114 0.44574 0.0
C1794 C 0.49631 0.52422 0.46121 0.0
C1795 C 0.49757 0.54915 0.46011 0.0
C1796 C 0.48768 0.561 0.44394 0.0
C1797 C 0.50567 0.51169 0.47877 0.0
C1798 C 0.4958 0.52014 0.49637 0.0
C1799 C 0.52352 0.49122 0.47826 0.0
C1800 C 0.53723 0.48267 0.46048 0.0
C1801 C 0.55431 0.49807 0.44943 0.0
C1802 C 0.56703 0.49 0.43264 0.0
C1803 C 0.563 0.4665 0.42679 0.0
C1804 C 0.5463 0.45101 0.43777 0.0
C1805 C 0.53351 0.459 0.45458 0.0
H1806 H 0.57286 0.46029 0.41378 0.0
H1807 H 0.47103 0.54904 0.57917 0.0
loop_
_geom_bond_atom_site_label_1
_geom_bond_atom_site_label_2
_geom_bond_distance
_geom_bond_site_symmetry_2
_ccdc_geom_bond_type
In0 O1 2.294 . S
In0 O2 2.326 . S
In0 O6 2.266 . S
In0 O7 2.326 . S
In0 O8 2.266 . S
In0 O9 2.326 . S
In0 O11 2.294 . S
In0 O12 2.326 . S
O1 In0 2.294 . S
O1 C10 1.240 . S
O2 In0 2.326 . S
O2 C10 1.252 . S
C3 O6 1.252 . S
C3 O7 1.260 . S
C4 O11 1.240 . S
C4 O12 1.252 . S
C5 O8 1.252 . S
C5 O9 1.260 . S
O6 In0 2.266 . S
O6 C3 1.252 . S
O7 In0 2.326 . S
O7 C3 1.260 . S
O8 In0 2.266 . S
O8 C5 1.252 . S
O9 In0 2.326 . S
O9 C5 1.260 . S
C10 O1 1.240 . S
C10 O2 1.252 . S
O11 In0 2.294 . S
O11 C4 1.240 . S
O12 In0 2.326 . S
O12 C4 1.252 . S
In13 O14 2.294 . S
In13 O15 2.326 . S
In13 O19 2.266 . S
In13 O20 2.326 . S
In13 O21 2.266 . S
In13 O22 2.326 . S
In13 O24 2.294 . S
In13 O25 2.326 . S
O14 In13 2.294 . S
O14 C23 1.240 . S
O15 In13 2.326 . S
O15 C23 1.252 . S
C16 O19 1.252 . S
C16 O20 1.260 . S
C17 O24 1.240 . S
C17 O25 1.252 . S
C18 O21 1.252 . S
C18 O22 1.260 . S
O19 In13 2.266 . S
O19 C16 1.252 . S
O20 In13 2.326 . S
O20 C16 1.260 . S
O21 In13 2.266 . S
O21 C18 1.252 . S
O22 In13 2.326 . S
O22 C18 1.260 . S
C23 O14 1.240 . S
C23 O15 1.252 . S
O24 In13 2.294 . S
O24 C17 1.240 . S
O25 In13 2.326 . S
O25 C17 1.252 . S
In26 O27 2.294 . S
In26 O28 2.326 . S
In26 O32 2.266 . S
In26 O33 2.326 . S
In26 O34 2.266 . S
In26 O35 2.326 . S
In26 O37 2.294 . S
In26 O38 2.326 . S
O27 In26 2.294 . S
O27 C36 1.240 . S
O28 In26 2.326 . S
O28 C36 1.252 . S
C29 O32 1.252 . S
C29 O33 1.260 . S
C30 O37 1.240 . S
C30 O38 1.252 . S
C31 O34 1.252 . S
C31 O35 1.260 . S
O32 In26 2.266 . S
O32 C29 1.252 . S
O33 In26 2.326 . S
O33 C29 1.260 . S
O34 In26 2.266 . S
O34 C31 1.252 . S
O35 In26 2.326 . S
O35 C31 1.260 . S
C36 O27 1.240 . S
C36 O28 1.252 . S
O37 In26 2.294 . S
O37 C30 1.240 . S
O38 In26 2.326 . S
O38 C30 1.252 . S
In39 O40 2.294 . S
In39 O41 2.326 . S
In39 O45 2.266 . S
In39 O46 2.326 . S
In39 O47 2.266 . S
In39 O48 2.326 . S
In39 O50 2.294 . S
In39 O51 2.326 . S
O40 In39 2.294 . S
O40 C49 1.240 . S
O41 In39 2.326 . S
O41 C49 1.252 . S
C42 O45 1.252 . S
C42 O46 1.260 . S
C43 O50 1.240 . S
C43 O51 1.252 . S
C44 O47 1.252 . S
C44 O48 1.260 . S
O45 In39 2.266 . S
O45 C42 1.252 . S
O46 In39 2.326 . S
O46 C42 1.260 . S
O47 In39 2.266 . S
O47 C44 1.252 . S
O48 In39 2.326 . S
O48 C44 1.260 . S
C49 O40 1.240 . S
C49 O41 1.252 . S
O50 In39 2.294 . S
O50 C43 1.240 . S
O51 In39 2.326 . S
O51 C43 1.252 . S
In52 O53 2.294 . S
In52 O54 2.326 . S
In52 O58 2.266 . S
In52 O59 2.326 . S
In52 O60 2.266 . S
In52 O61 2.326 . S
In52 O63 2.294 . S
In52 O64 2.326 . S
O53 In52 2.294 . S
O53 C62 1.240 . S
O54 In52 2.326 . S
O54 C62 1.252 . S
C55 O58 1.252 . S
C55 O59 1.260 . S
C56 O63 1.240 . S
C56 O64 1.252 . S
C57 O60 1.252 . S
C57 O61 1.260 . S
O58 In52 2.266 . S
O58 C55 1.252 . S
O59 In52 2.326 . S
O59 C55 1.260 . S
O60 In52 2.266 . S
O60 C57 1.252 . S
O61 In52 2.326 . S
O61 C57 1.260 . S
C62 O53 1.240 . S
C62 O54 1.252 . S
O63 In52 2.294 . S
O63 C56 1.240 . S
O64 In52 2.326 . S
O64 C56 1.252 . S
In65 O66 2.294 . S
In65 O67 2.326 . S
In65 O71 2.266 . S
In65 O72 2.326 . S
In65 O73 2.266 . S
In65 O74 2.326 . S
In65 O76 2.294 . S
In65 O77 2.326 . S
O66 In65 2.294 . S
O66 C75 1.240 . S
O67 In65 2.326 . S
O67 C75 1.252 . S
C68 O71 1.252 . S
C68 O72 1.260 . S
C69 O76 1.240 . S
C69 O77 1.252 . S
C70 O73 1.252 . S
C70 O74 1.260 . S
O71 In65 2.266 . S
O71 C68 1.252 . S
O72 In65 2.326 . S
O72 C68 1.260 . S
O73 In65 2.266 . S
O73 C70 1.252 . S
O74 In65 2.326 . S
O74 C70 1.260 . S
C75 O66 1.240 . S
C75 O67 1.252 . S
O76 In65 2.294 . S
O76 C69 1.240 . S
O77 In65 2.326 . S
O77 C69 1.252 . S
In78 O79 2.294 . S
In78 O80 2.326 . S
In78 O84 2.266 . S
In78 O85 2.326 . S
In78 O86 2.266 . S
In78 O87 2.326 . S
In78 O89 2.294 . S
In78 O90 2.326 . S
O79 In78 2.294 . S
O79 C88 1.240 . S
O80 In78 2.326 . S
O80 C88 1.252 . S
C81 O84 1.252 . S
C81 O85 1.260 . S
C82 O89 1.240 . S
C82 O90 1.252 . S
C83 O86 1.252 . S
C83 O87 1.260 . S
O84 In78 2.266 . S
O84 C81 1.252 . S
O85 In78 2.326 . S
O85 C81 1.260 . S
O86 In78 2.266 . S
O86 C83 1.252 . S
O87 In78 2.326 . S
O87 C83 1.260 . S
C88 O79 1.240 . S
C88 O80 1.252 . S
O89 In78 2.294 . S
O89 C82 1.240 . S
O90 In78 2.326 . S
O90 C82 1.252 . S
In91 O92 2.294 . S
In91 O93 2.326 . S
In91 O97 2.266 . S
In91 O98 2.326 . S
In91 O99 2.266 . S
In91 O100 2.326 . S
In91 O102 2.294 . S
In91 O103 2.326 . S
O92 In91 2.294 . S
O92 C101 1.240 . S
O93 In91 2.326 . S
O93 C101 1.252 . S
C94 O97 1.252 . S
C94 O98 1.260 . S
C95 O102 1.240 . S
C95 O103 1.252 . S
C96 O99 1.252 . S
C96 O100 1.260 . S
O97 In91 2.266 . S
O97 C94 1.252 . S
O98 In91 2.326 . S
O98 C94 1.260 . S
O99 In91 2.266 . S
O99 C96 1.252 . S
O100 In91 2.326 . S
O100 C96 1.260 . S
C101 O92 1.240 . S
C101 O93 1.252 . S
O102 In91 2.294 . S
O102 C95 1.240 . S
O103 In91 2.326 . S
O103 C95 1.252 . S
In104 O105 2.294 . S
In104 O106 2.326 . S
In104 O110 2.266 . S
In104 O111 2.326 . S
In104 O112 2.266 . S
In104 O113 2.326 . S
In104 O115 2.294 . S
In104 O116 2.326 . S
O105 In104 2.294 . S
O105 C114 1.240 . S
O106 In104 2.326 . S
O106 C114 1.252 . S
C107 O110 1.252 . S
C107 O111 1.260 . S
C108 O115 1.240 . S
C108 O116 1.252 . S
C109 O112 1.252 . S
C109 O113 1.260 . S
O110 In104 2.266 . S
O110 C107 1.252 . S
O111 In104 2.326 . S
O111 C107 1.260 . S
O112 In104 2.266 . S
O112 C109 1.252 . S
O113 In104 2.326 . S
O113 C109 1.260 . S
C114 O105 1.240 . S
C114 O106 1.252 . S
O115 In104 2.294 . S
O115 C108 1.240 . S
O116 In104 2.326 . S
O116 C108 1.252 . S
In117 O118 2.294 . S
In117 O119 2.326 . S
In117 O123 2.266 . S
In117 O124 2.326 . S
In117 O125 2.266 . S
In117 O126 2.326 . S
In117 O128 2.294 . S
In117 O129 2.326 . S
O118 In117 2.294 . S
O118 C127 1.240 . S
O119 In117 2.326 . S
O119 C127 1.252 . S
C120 O123 1.252 . S
C120 O124 1.260 . S
C121 O128 1.240 . S
C121 O129 1.252 . S
C122 O125 1.252 . S
C122 O126 1.260 . S
O123 In117 2.266 . S
O123 C120 1.252 . S
O124 In117 2.326 . S
O124 C120 1.260 . S
O125 In117 2.266 . S
O125 C122 1.252 . S
O126 In117 2.326 . S
O126 C122 1.260 . S
C127 O118 1.240 . S
C127 O119 1.252 . S
O128 In117 2.294 . S
O128 C121 1.240 . S
O129 In117 2.326 . S
O129 C121 1.252 . S
In130 O131 2.294 . S
In130 O132 2.326 . S
In130 O136 2.266 . S
In130 O137 2.326 . S
In130 O138 2.266 . S
In130 O139 2.326 . S
In130 O141 2.294 . S
In130 O142 2.326 . S
O131 In130 2.294 . S
O131 C140 1.240 . S
O132 In130 2.326 . S
O132 C140 1.252 . S
C133 O136 1.252 . S
C133 O137 1.260 . S
C134 O141 1.240 . S
C134 O142 1.252 . S
C135 O138 1.252 . S
C135 O139 1.260 . S
O136 In130 2.266 . S
O136 C133 1.252 . S
O137 In130 2.326 . S
O137 C133 1.260 . S
O138 In130 2.266 . S
O138 C135 1.252 . S
O139 In130 2.326 . S
O139 C135 1.260 . S
C140 O131 1.240 . S
C140 O132 1.252 . S
O141 In130 2.294 . S
O141 C134 1.240 . S
O142 In130 2.326 . S
O142 C134 1.252 . S
In143 O144 2.294 . S
In143 O145 2.326 . S
In143 O149 2.266 . S
In143 O150 2.326 . S
In143 O151 2.266 . S
In143 O152 2.326 . S
In143 O154 2.294 . S
In143 O155 2.326 . S
O144 In143 2.294 . S
O144 C153 1.240 . S
O145 In143 2.326 . S
O145 C153 1.252 . S
C146 O149 1.252 . S
C146 O150 1.260 . S
C147 O154 1.240 . S
C147 O155 1.252 . S
C148 O151 1.252 . S
C148 O152 1.260 . S
O149 In143 2.266 . S
O149 C146 1.252 . S
O150 In143 2.326 . S
O150 C146 1.260 . S
O151 In143 2.266 . S
O151 C148 1.252 . S
O152 In143 2.326 . S
O152 C148 1.260 . S
C153 O144 1.240 . S
C153 O145 1.252 . S
O154 In143 2.294 . S
O154 C147 1.240 . S
O155 In143 2.326 . S
O155 C147 1.252 . S
In156 O157 2.294 . S
In156 O158 2.326 . S
In156 O162 2.266 . S
In156 O163 2.326 . S
In156 O164 2.266 . S
In156 O165 2.326 . S
In156 O167 2.294 . S
In156 O168 2.326 . S
O157 In156 2.294 . S
O157 C166 1.240 . S
O158 In156 2.326 . S
O158 C166 1.252 . S
C159 O162 1.252 . S
C159 O163 1.260 . S
C160 O167 1.240 . S
C160 O168 1.252 . S
C161 O164 1.252 . S
C161 O165 1.260 . S
O162 In156 2.266 . S
O162 C159 1.252 . S
O163 In156 2.326 . S
O163 C159 1.260 . S
O164 In156 2.266 . S
O164 C161 1.252 . S
O165 In156 2.326 . S
O165 C161 1.260 . S
C166 O157 1.240 . S
C166 O158 1.252 . S
O167 In156 2.294 . S
O167 C160 1.240 . S
O168 In156 2.326 . S
O168 C160 1.252 . S
In169 O170 2.294 . S
In169 O171 2.326 . S
In169 O175 2.266 . S
In169 O176 2.326 . S
In169 O177 2.266 . S
In169 O178 2.326 . S
In169 O180 2.294 . S
In169 O181 2.326 . S
O170 In169 2.294 . S
O170 C179 1.240 . S
O171 In169 2.326 . S
O171 C179 1.252 . S
C172 O175 1.252 . S
C172 O176 1.260 . S
C173 O180 1.240 . S
C173 O181 1.252 . S
C174 O177 1.252 . S
C174 O178 1.260 . S
O175 In169 2.266 . S
O175 C172 1.252 . S
O176 In169 2.326 . S
O176 C172 1.260 . S
O177 In169 2.266 . S
O177 C174 1.252 . S
O178 In169 2.326 . S
O178 C174 1.260 . S
C179 O170 1.240 . S
C179 O171 1.252 . S
O180 In169 2.294 . S
O180 C173 1.240 . S
O181 In169 2.326 . S
O181 C173 1.252 . S
In182 O183 2.294 . S
In182 O184 2.326 . S
In182 O188 2.266 . S
In182 O189 2.326 . S
In182 O190 2.266 . S
In182 O191 2.326 . S
In182 O193 2.294 . S
In182 O194 2.326 . S
O183 In182 2.294 . S
O183 C192 1.240 . S
O184 In182 2.326 . S
O184 C192 1.252 . S
C185 O188 1.252 . S
C185 O189 1.260 . S
C186 O193 1.240 . S
C186 O194 1.252 . S
C187 O190 1.252 . S
C187 O191 1.260 . S
O188 In182 2.266 . S
O188 C185 1.252 . S
O189 In182 2.326 . S
O189 C185 1.260 . S
O190 In182 2.266 . S
O190 C187 1.252 . S
O191 In182 2.326 . S
O191 C187 1.260 . S
C192 O183 1.240 . S
C192 O184 1.252 . S
O193 In182 2.294 . S
O193 C186 1.240 . S
O194 In182 2.326 . S
O194 C186 1.252 . S
In195 O196 2.294 . S
In195 O197 2.326 . S
In195 O201 2.266 . S
In195 O202 2.326 . S
In195 O203 2.266 . S
In195 O204 2.326 . S
In195 O206 2.294 . S
In195 O207 2.326 . S
O196 In195 2.294 . S
O196 C205 1.240 . S
O197 In195 2.326 . S
O197 C205 1.252 . S
C198 O201 1.252 . S
C198 O202 1.260 . S
C199 O206 1.240 . S
C199 O207 1.252 . S
C200 O203 1.252 . S
C200 O204 1.260 . S
O201 In195 2.266 . S
O201 C198 1.252 . S
O202 In195 2.326 . S
O202 C198 1.260 . S
O203 In195 2.266 . S
O203 C200 1.252 . S
O204 In195 2.326 . S
O204 C200 1.260 . S
C205 O196 1.240 . S
C205 O197 1.252 . S
O206 In195 2.294 . S
O206 C199 1.240 . S
O207 In195 2.326 . S
O207 C199 1.252 . S
H208 C226 0.951 . S
H209 C228 0.951 1_545 S
H210 C230 0.950 . S
H211 C231 0.950 . S
H212 C233 0.950 . S
H213 C236 0.950 1_565 S
H214 C237 0.950 . S
H215 C239 0.950 . S
H216 C240 0.950 . S
H217 C241 0.951 . S
H218 C243 0.951 1_565 S
H219 C245 0.950 . S
H220 C246 0.950 . S
H221 C248 0.950 . S
H222 C251 0.950 1_545 S
H223 C252 0.950 . S
H224 C254 0.950 . S
H225 C255 0.950 . S
C226 H208 0.951 . S
C226 C227 1.366 . S
C226 C228 1.388 . S
C227 C226 1.366 . S
C227 C231 1.385 . S
C228 H209 0.951 1_565 S
C228 C226 1.388 . S
C228 C229 1.366 . S
C229 C228 1.366 . S
C229 C230 1.414 . S
C229 C232 1.499 . S
C230 H210 0.950 . S
C230 C229 1.414 . S
C230 C231 1.374 . S
C231 H211 0.950 . S
C231 C227 1.385 . S
C231 C230 1.374 . S
C232 C229 1.499 . S
C232 C233 1.373 . S
C232 C234 1.389 1_565 S
C233 H212 0.950 . S
C233 C232 1.373 . S
C233 C249 1.377 . S
C234 C232 1.389 1_545 S
C234 C235 1.524 . S
C234 C248 1.377 . S
C235 C234 1.524 . S
C235 C236 1.397 . S
C235 C240 1.363 . S
C236 H213 0.950 1_545 S
C236 C235 1.397 . S
C236 C237 1.334 . S
C237 H214 0.950 . S
C237 C236 1.334 . S
C237 C238 1.287 . S
C238 C237 1.287 . S
C238 C239 1.524 . S
C238 H257 0.913 . S
C239 H215 0.950 . S
C239 C238 1.524 . S
C239 C240 1.415 . S
C240 H216 0.950 . S
C240 C235 1.363 . S
C240 C239 1.415 . S
C241 H217 0.951 . S
C241 C242 1.366 . S
C241 C243 1.388 . S
C242 C241 1.366 . S
C242 C246 1.385 . S
C243 H218 0.951 1_545 S
C243 C241 1.388 . S
C243 C244 1.366 . S
C244 C243 1.366 . S
C244 C245 1.414 . S
C244 C247 1.499 . S
C245 H219 0.950 . S
C245 C244 1.414 . S
C245 C246 1.374 . S
C246 H220 0.950 . S
C246 C242 1.385 . S
C246 C245 1.374 . S
C247 C244 1.499 . S
C247 C248 1.373 . S
C247 C249 1.389 1_545 S
C248 H221 0.950 . S
C248 C234 1.377 . S
C248 C247 1.373 . S
C249 C233 1.377 . S
C249 C247 1.389 1_565 S
C249 C250 1.524 . S
C250 C249 1.524 . S
C250 C251 1.397 . S
C250 C255 1.363 . S
C251 H222 0.950 1_565 S
C251 C250 1.397 . S
C251 C252 1.334 . S
C252 H223 0.950 . S
C252 C251 1.334 . S
C252 C253 1.287 . S
C253 C252 1.287 . S
C253 C254 1.524 . S
C253 H256 0.999 . S
C254 H224 0.950 . S
C254 C253 1.524 . S
C254 C255 1.415 . S
C255 H225 0.950 . S
C255 C250 1.363 . S
C255 C254 1.415 . S
H256 C253 0.999 . S
H257 C238 0.913 . S
H258 C276 0.951 . S
H259 C278 0.951 . S
H260 C280 0.950 . S
H261 C281 0.950 . S
H262 C283 0.950 . S
H263 C286 0.950 . S
H264 C287 0.950 . S
H265 C289 0.950 . S
H266 C290 0.950 . S
H267 C291 0.951 . S
H268 C293 0.951 . S
H269 C295 0.950 . S
H270 C296 0.950 . S
H271 C298 0.950 . S
H272 C301 0.950 . S
H273 C302 0.950 . S
H274 C304 0.950 . S
H275 C305 0.950 . S
C276 H258 0.951 . S
C276 C277 1.366 . S
C276 C278 1.388 . S
C277 C276 1.366 . S
C277 C281 1.385 . S
C278 H259 0.951 . S
C278 C276 1.388 . S
C278 C279 1.366 . S
C279 C278 1.366 . S
C279 C280 1.414 . S
C279 C282 1.499 . S
C280 H260 0.950 . S
C280 C279 1.414 . S
C280 C281 1.374 . S
C281 H261 0.950 . S
C281 C277 1.385 . S
C281 C280 1.374 . S
C282 C279 1.499 . S
C282 C283 1.373 . S
C282 C284 1.389 1_565 S
C283 H262 0.950 . S
C283 C282 1.373 . S
C283 C299 1.377 . S
C284 C282 1.389 1_545 S
C284 C285 1.524 . S
C284 C298 1.377 . S
C285 C284 1.524 . S
C285 C286 1.397 . S
C285 C290 1.363 . S
C286 H263 0.950 . S
C286 C285 1.397 . S
C286 C287 1.334 . S
C287 H264 0.950 . S
C287 C286 1.334 . S
C287 C288 1.287 . S
C288 C287 1.287 . S
C288 C289 1.524 . S
C288 H307 0.913 . S
C289 H265 0.950 . S
C289 C288 1.524 . S
C289 C290 1.415 . S
C290 H266 0.950 . S
C290 C285 1.363 . S
C290 C289 1.415 . S
C291 H267 0.951 . S
C291 C292 1.366 . S
C291 C293 1.388 . S
C292 C291 1.366 . S
C292 C296 1.385 . S
C293 H268 0.951 . S
C293 C291 1.388 . S
C293 C294 1.366 . S
C294 C293 1.366 . S
C294 C295 1.414 . S
C294 C297 1.499 . S
C295 H269 0.950 . S
C295 C294 1.414 . S
C295 C296 1.374 . S
C296 H270 0.950 . S
C296 C292 1.385 . S
C296 C295 1.374 . S
C297 C294 1.499 . S
C297 C298 1.373 . S
C297 C299 1.389 1_545 S
C298 H271 0.950 . S
C298 C284 1.377 . S
C298 C297 1.373 . S
C299 C283 1.377 . S
C299 C297 1.389 1_565 S
C299 C300 1.524 . S
C300 C299 1.524 . S
C300 C301 1.397 . S
C300 C305 1.363 . S
C301 H272 0.950 . S
C301 C300 1.397 . S
C301 C302 1.334 . S
C302 H273 0.950 . S
C302 C301 1.334 . S
C302 C303 1.287 . S
C303 C302 1.287 . S
C303 C304 1.524 . S
C303 H306 0.999 . S
C304 H274 0.950 . S
C304 C303 1.524 . S
C304 C305 1.415 . S
C305 H275 0.950 . S
C305 C300 1.363 . S
C305 C304 1.415 . S
H306 C303 0.999 . S
H307 C288 0.913 . S
H308 C326 0.951 . S
H309 C328 0.951 1_545 S
H310 C330 0.950 . S
H311 C331 0.950 . S
H312 C333 0.950 . S
H313 C336 0.950 . S
H314 C337 0.950 . S
H315 C339 0.950 . S
H316 C340 0.950 . S
H317 C341 0.951 . S
H318 C343 0.951 1_565 S
H319 C345 0.950 . S
H320 C346 0.950 . S
H321 C348 0.950 . S
H322 C351 0.950 . S
H323 C352 0.950 . S
H324 C354 0.950 . S
H325 C355 0.950 . S
C326 H308 0.951 . S
C326 C327 1.366 . S
C326 C328 1.388 . S
C327 C326 1.366 . S
C327 C331 1.385 . S
C328 H309 0.951 1_565 S
C328 C326 1.388 . S
C328 C329 1.366 . S
C329 C328 1.366 . S
C329 C330 1.414 . S
C329 C332 1.499 . S
C330 H310 0.950 . S
C330 C329 1.414 . S
C330 C331 1.374 . S
C331 H311 0.950 . S
C331 C327 1.385 . S
C331 C330 1.374 . S
C332 C329 1.499 . S
C332 C333 1.373 . S
C332 C334 1.389 1_565 S
C333 H312 0.950 . S
C333 C332 1.373 . S
C333 C349 1.377 . S
C334 C332 1.389 1_545 S
C334 C335 1.524 . S
C334 C348 1.377 . S
C335 C334 1.524 . S
C335 C336 1.397 1_545 S
C335 C340 1.363 . S
C336 H313 0.950 . S
C336 C335 1.397 1_565 S
C336 C337 1.334 . S
C337 H314 0.950 . S
C337 C336 1.334 . S
C337 C338 1.287 1_565 S
C338 C337 1.287 1_545 S
C338 C339 1.524 . S
C338 H357 0.913 . S
C339 H315 0.950 . S
C339 C338 1.524 . S
C339 C340 1.415 . S
C340 H316 0.950 . S
C340 C335 1.363 . S
C340 C339 1.415 . S
C341 H317 0.951 . S
C341 C342 1.366 . S
C341 C343 1.388 . S
C342 C341 1.366 . S
C342 C346 1.385 . S
C343 H318 0.951 1_545 S
C343 C341 1.388 . S
C343 C344 1.366 . S
C344 C343 1.366 . S
C344 C345 1.414 . S
C344 C347 1.499 . S
C345 H319 0.950 . S
C345 C344 1.414 . S
C345 C346 1.374 . S
C346 H320 0.950 . S
C346 C342 1.385 . S
C346 C345 1.374 . S
C347 C344 1.499 . S
C347 C348 1.373 . S
C347 C349 1.389 1_545 S
C348 H321 0.950 . S
C348 C334 1.377 . S
C348 C347 1.373 . S
C349 C333 1.377 . S
C349 C347 1.389 1_565 S
C349 C350 1.524 . S
C350 C349 1.524 . S
C350 C351 1.397 1_565 S
C350 C355 1.363 . S
C351 H322 0.950 . S
C351 C350 1.397 1_545 S
C351 C352 1.334 . S
C352 H323 0.950 . S
C352 C351 1.334 . S
C352 C353 1.287 1_545 S
C353 C352 1.287 1_565 S
C353 C354 1.524 . S
C353 H356 0.999 . S
C354 H324 0.950 . S
C354 C353 1.524 . S
C354 C355 1.415 . S
C355 H325 0.950 . S
C355 C350 1.363 . S
C355 C354 1.415 . S
H356 C353 0.999 . S
H357 C338 0.913 . S
H358 C376 0.951 . S
H359 C378 0.951 1_545 S
H360 C380 0.950 . S
H361 C381 0.950 . S
H362 C383 0.950 . S
H363 C386 0.950 1_565 S
H364 C387 0.950 . S
H365 C389 0.950 . S
H366 C390 0.950 . S
H367 C391 0.951 . S
H368 C393 0.951 1_565 S
H369 C395 0.950 . S
H370 C396 0.950 . S
H371 C398 0.950 . S
H372 C401 0.950 1_545 S
H373 C402 0.950 . S
H374 C404 0.950 . S
H375 C405 0.950 . S
C376 H358 0.951 . S
C376 C377 1.366 . S
C376 C378 1.388 . S
C377 C376 1.366 . S
C377 C381 1.385 . S
C378 H359 0.951 1_565 S
C378 C376 1.388 . S
C378 C379 1.366 . S
C379 C378 1.366 . S
C379 C380 1.414 . S
C379 C382 1.499 . S
C380 H360 0.950 . S
C380 C379 1.414 . S
C380 C381 1.374 . S
C381 H361 0.950 . S
C381 C377 1.385 . S
C381 C380 1.374 . S
C382 C379 1.499 . S
C382 C383 1.373 . S
C382 C384 1.389 1_565 S
C383 H362 0.950 . S
C383 C382 1.373 . S
C383 C399 1.377 . S
C384 C382 1.389 1_545 S
C384 C385 1.524 . S
C384 C398 1.377 . S
C385 C384 1.524 . S
C385 C386 1.397 . S
C385 C390 1.363 . S
C386 H363 0.950 1_545 S
C386 C385 1.397 . S
C386 C387 1.334 . S
C387 H364 0.950 . S
C387 C386 1.334 . S
C387 C388 1.287 . S
C388 C387 1.287 . S
C388 C389 1.524 . S
C388 H407 0.913 . S
C389 H365 0.950 . S
C389 C388 1.524 . S
C389 C390 1.415 . S
C390 H366 0.950 . S
C390 C385 1.363 . S
C390 C389 1.415 . S
C391 H367 0.951 . S
C391 C392 1.366 . S
C391 C393 1.388 . S
C392 C391 1.366 . S
C392 C396 1.385 . S
C393 H368 0.951 1_545 S
C393 C391 1.388 . S
C393 C394 1.366 . S
C394 C393 1.366 . S
C394 C395 1.414 . S
C394 C397 1.499 . S
C395 H369 0.950 . S
C395 C394 1.414 . S
C395 C396 1.374 . S
C396 H370 0.950 . S
C396 C392 1.385 . S
C396 C395 1.374 . S
C397 C394 1.499 . S
C397 C398 1.373 . S
C397 C399 1.389 1_545 S
C398 H371 0.950 . S
C398 C384 1.377 . S
C398 C397 1.373 . S
C399 C383 1.377 . S
C399 C397 1.389 1_565 S
C399 C400 1.524 . S
C400 C399 1.524 . S
C400 C401 1.397 . S
C400 C405 1.363 . S
C401 H372 0.950 1_565 S
C401 C400 1.397 . S
C401 C402 1.334 . S
C402 H373 0.950 . S
C402 C401 1.334 . S
C402 C403 1.287 . S
C403 C402 1.287 . S
C403 C404 1.524 . S
C403 H406 0.999 . S
C404 H374 0.950 . S
C404 C403 1.524 . S
C404 C405 1.415 . S
C405 H375 0.950 . S
C405 C400 1.363 . S
C405 C404 1.415 . S
H406 C403 0.999 . S
H407 C388 0.913 . S
H408 C426 0.951 . S
H409 C428 0.951 . S
H410 C430 0.950 . S
H411 C431 0.950 . S
H412 C433 0.950 . S
H413 C436 0.950 . S
H414 C437 0.950 . S
H415 C439 0.950 . S
H416 C440 0.950 . S
H417 C441 0.951 . S
H418 C443 0.951 . S
H419 C445 0.950 . S
H420 C446 0.950 . S
H421 C448 0.950 . S
H422 C451 0.950 . S
H423 C452 0.950 . S
H424 C454 0.950 . S
H425 C455 0.950 . S
C426 H408 0.951 . S
C426 C427 1.366 . S
C426 C428 1.388 . S
C427 C426 1.366 . S
C427 C431 1.385 . S
C428 H409 0.951 . S
C428 C426 1.388 . S
C428 C429 1.366 . S
C429 C428 1.366 . S
C429 C430 1.414 . S
C429 C432 1.499 . S
C430 H410 0.950 . S
C430 C429 1.414 . S
C430 C431 1.374 . S
C431 H411 0.950 . S
C431 C427 1.385 . S
C431 C430 1.374 . S
C432 C429 1.499 . S
C432 C433 1.373 . S
C432 C434 1.389 . S
C433 H412 0.950 . S
C433 C432 1.373 . S
C433 C449 1.377 . S
C434 C432 1.389 . S
C434 C435 1.524 . S
C434 C448 1.377 . S
C435 C434 1.524 . S
C435 C436 1.397 . S
C435 C440 1.363 . S
C436 H413 0.950 . S
C436 C435 1.397 . S
C436 C437 1.334 . S
C437 H414 0.950 . S
C437 C436 1.334 . S
C437 C438 1.287 . S
C438 C437 1.287 . S
C438 C439 1.524 . S
C438 H457 0.913 . S
C439 H415 0.950 . S
C439 C438 1.524 . S
C439 C440 1.415 . S
C440 H416 0.950 . S
C440 C435 1.363 . S
C440 C439 1.415 . S
C441 H417 0.951 . S
C441 C442 1.366 . S
C441 C443 1.388 . S
C442 C441 1.366 . S
C442 C446 1.385 . S
C443 H418 0.951 . S
C443 C441 1.388 . S
C443 C444 1.366 . S
C444 C443 1.366 . S
C444 C445 1.414 . S
C444 C447 1.499 . S
C445 H419 0.950 . S
C445 C444 1.414 . S
C445 C446 1.374 . S
C446 H420 0.950 . S
C446 C442 1.385 . S
C446 C445 1.374 . S
C447 C444 1.499 . S
C447 C448 1.373 . S
C447 C449 1.389 . S
C448 H421 0.950 . S
C448 C434 1.377 . S
C448 C447 1.373 . S
C449 C433 1.377 . S
C449 C447 1.389 . S
C449 C450 1.524 . S
C450 C449 1.524 . S
C450 C451 1.397 . S
C450 C455 1.363 . S
C451 H422 0.950 . S
C451 C450 1.397 . S
C451 C452 1.334 . S
C452 H423 0.950 . S
C452 C451 1.334 . S
C452 C453 1.287 . S
C453 C452 1.287 . S
C453 C454 1.524 . S
C453 H456 0.999 . S
C454 H424 0.950 . S
C454 C453 1.524 . S
C454 C455 1.415 . S
C455 H425 0.950 . S
C455 C450 1.363 . S
C455 C454 1.415 . S
H456 C453 0.999 . S
H457 C438 0.913 . S
H458 C476 0.951 . S
H459 C478 0.951 . S
H460 C480 0.950 . S
H461 C481 0.950 . S
H462 C483 0.950 . S
H463 C486 0.950 . S
H464 C487 0.950 . S
H465 C489 0.950 . S
H466 C490 0.950 . S
H467 C491 0.951 . S
H468 C493 0.951 . S
H469 C495 0.950 . S
H470 C496 0.950 . S
H471 C498 0.950 . S
H472 C501 0.950 . S
H473 C502 0.950 . S
H474 C504 0.950 . S
H475 C505 0.950 . S
C476 H458 0.951 . S
C476 C477 1.366 . S
C476 C478 1.388 . S
C477 C476 1.366 . S
C477 C481 1.385 . S
C478 H459 0.951 . S
C478 C476 1.388 . S
C478 C479 1.366 . S
C479 C478 1.366 . S
C479 C480 1.414 . S
C479 C482 1.499 . S
C480 H460 0.950 . S
C480 C479 1.414 . S
C480 C481 1.374 . S
C481 H461 0.950 . S
C481 C477 1.385 . S
C481 C480 1.374 . S
C482 C479 1.499 . S
C482 C483 1.373 . S
C482 C484 1.389 . S
C483 H462 0.950 . S
C483 C482 1.373 . S
C483 C499 1.377 . S
C484 C482 1.389 . S
C484 C485 1.524 . S
C484 C498 1.377 . S
C485 C484 1.524 . S
C485 C486 1.397 . S
C485 C490 1.363 . S
C486 H463 0.950 . S
C486 C485 1.397 . S
C486 C487 1.334 . S
C487 H464 0.950 . S
C487 C486 1.334 . S
C487 C488 1.287 . S
C488 C487 1.287 . S
C488 C489 1.524 . S
C488 H507 0.913 . S
C489 H465 0.950 . S
C489 C488 1.524 . S
C489 C490 1.415 . S
C490 H466 0.950 . S
C490 C485 1.363 . S
C490 C489 1.415 . S
C491 H467 0.951 . S
C491 C492 1.366 . S
C491 C493 1.388 . S
C492 C491 1.366 . S
C492 C496 1.385 . S
C493 H468 0.951 . S
C493 C491 1.388 . S
C493 C494 1.366 . S
C494 C493 1.366 . S
C494 C495 1.414 . S
C494 C497 1.499 . S
C495 H469 0.950 . S
C495 C494 1.414 . S
C495 C496 1.374 . S
C496 H470 0.950 . S
C496 C492 1.385 . S
C496 C495 1.374 . S
C497 C494 1.499 . S
C497 C498 1.373 . S
C497 C499 1.389 . S
C498 H471 0.950 . S
C498 C484 1.377 . S
C498 C497 1.373 . S
C499 C483 1.377 . S
C499 C497 1.389 . S
C499 C500 1.524 . S
C500 C499 1.524 . S
C500 C501 1.397 . S
C500 C505 1.363 . S
C501 H472 0.950 . S
C501 C500 1.397 . S
C501 C502 1.334 . S
C502 H473 0.950 . S
C502 C501 1.334 . S
C502 C503 1.287 . S
C503 C502 1.287 . S
C503 C504 1.524 . S
C503 H506 0.999 . S
C504 H474 0.950 . S
C504 C503 1.524 . S
C504 C505 1.415 . S
C505 H475 0.950 . S
C505 C500 1.363 . S
C505 C504 1.415 . S
H506 C503 0.999 . S
H507 C488 0.913 . S
H508 C526 0.951 . S
H509 C528 0.951 . S
H510 C530 0.950 . S
H511 C531 0.950 . S
H512 C533 0.950 . S
H513 C536 0.950 . S
H514 C537 0.950 . S
H515 C539 0.950 . S
H516 C540 0.950 . S
H517 C541 0.951 . S
H518 C543 0.951 . S
H519 C545 0.950 . S
H520 C546 0.950 . S
H521 C548 0.950 . S
H522 C551 0.950 . S
H523 C552 0.950 . S
H524 C554 0.950 . S
H525 C555 0.950 . S
C526 H508 0.951 . S
C526 C527 1.366 . S
C526 C528 1.388 . S
C527 C526 1.366 . S
C527 C531 1.385 . S
C528 H509 0.951 . S
C528 C526 1.388 . S
C528 C529 1.366 . S
C529 C528 1.366 . S
C529 C530 1.414 . S
C529 C532 1.499 . S
C530 H510 0.950 . S
C530 C529 1.414 . S
C530 C531 1.374 . S
C531 H511 0.950 . S
C531 C527 1.385 . S
C531 C530 1.374 . S
C532 C529 1.499 . S
C532 C533 1.373 . S
C532 C534 1.389 . S
C533 H512 0.950 . S
C533 C532 1.373 . S
C533 C549 1.377 . S
C534 C532 1.389 . S
C534 C535 1.524 . S
C534 C548 1.377 . S
C535 C534 1.524 . S
C535 C536 1.397 . S
C535 C540 1.363 . S
C536 H513 0.950 . S
C536 C535 1.397 . S
C536 C537 1.334 . S
C537 H514 0.950 . S
C537 C536 1.334 . S
C537 C538 1.287 . S
C538 C537 1.287 . S
C538 C539 1.524 . S
C538 H557 0.913 . S
C539 H515 0.950 . S
C539 C538 1.524 . S
C539 C540 1.415 . S
C540 H516 0.950 . S
C540 C535 1.363 . S
C540 C539 1.415 . S
C541 H517 0.951 . S
C541 C542 1.366 . S
C541 C543 1.388 . S
C542 C541 1.366 . S
C542 C546 1.385 . S
C543 H518 0.951 . S
C543 C541 1.388 . S
C543 C544 1.366 . S
C544 C543 1.366 . S
C544 C545 1.414 . S
C544 C547 1.499 . S
C545 H519 0.950 . S
C545 C544 1.414 . S
C545 C546 1.374 . S
C546 H520 0.950 . S
C546 C542 1.385 . S
C546 C545 1.374 . S
C547 C544 1.499 . S
C547 C548 1.373 . S
C547 C549 1.389 . S
C548 H521 0.950 . S
C548 C534 1.377 . S
C548 C547 1.373 . S
C549 C533 1.377 . S
C549 C547 1.389 . S
C549 C550 1.524 . S
C550 C549 1.524 . S
C550 C551 1.397 . S
C550 C555 1.363 . S
C551 H522 0.950 . S
C551 C550 1.397 . S
C551 C552 1.334 . S
C552 H523 0.950 . S
C552 C551 1.334 . S
C552 C553 1.287 . S
C553 C552 1.287 . S
C553 C554 1.524 . S
C553 H556 0.999 . S
C554 H524 0.950 . S
C554 C553 1.524 . S
C554 C555 1.415 . S
C555 H525 0.950 . S
C555 C550 1.363 . S
C555 C554 1.415 . S
H556 C553 0.999 . S
H557 C538 0.913 . S
H558 C576 0.951 . S
H559 C578 0.951 . S
H560 C580 0.950 . S
H561 C581 0.950 . S
H562 C583 0.950 . S
H563 C586 0.950 . S
H564 C587 0.950 . S
H565 C589 0.950 . S
H566 C590 0.950 . S
H567 C591 0.951 . S
H568 C593 0.951 . S
H569 C595 0.950 . S
H570 C596 0.950 . S
H571 C598 0.950 . S
H572 C601 0.950 . S
H573 C602 0.950 . S
H574 C604 0.950 . S
H575 C605 0.950 . S
C576 H558 0.951 . S
C576 C577 1.366 . S
C576 C578 1.388 . S
C577 C576 1.366 . S
C577 C581 1.385 . S
C578 H559 0.951 . S
C578 C576 1.388 . S
C578 C579 1.366 . S
C579 C578 1.366 . S
C579 C580 1.414 . S
C579 C582 1.499 . S
C580 H560 0.950 . S
C580 C579 1.414 . S
C580 C581 1.374 . S
C581 H561 0.950 . S
C581 C577 1.385 . S
C581 C580 1.374 . S
C582 C579 1.499 . S
C582 C583 1.373 . S
C582 C584 1.389 . S
C583 H562 0.950 . S
C583 C582 1.373 . S
C583 C599 1.377 . S
C584 C582 1.389 . S
C584 C585 1.524 . S
C584 C598 1.377 . S
C585 C584 1.524 . S
C585 C586 1.397 . S
C585 C590 1.363 . S
C586 H563 0.950 . S
C586 C585 1.397 . S
C586 C587 1.334 . S
C587 H564 0.950 . S
C587 C586 1.334 . S
C587 C588 1.287 . S
C588 C587 1.287 . S
C588 C589 1.524 . S
C588 H607 0.913 . S
C589 H565 0.950 . S
C589 C588 1.524 . S
C589 C590 1.415 . S
C590 H566 0.950 . S
C590 C585 1.363 . S
C590 C589 1.415 . S
C591 H567 0.951 . S
C591 C592 1.366 . S
C591 C593 1.388 . S
C592 C591 1.366 . S
C592 C596 1.385 . S
C593 H568 0.951 . S
C593 C591 1.388 . S
C593 C594 1.366 . S
C594 C593 1.366 . S
C594 C595 1.414 . S
C594 C597 1.499 . S
C595 H569 0.950 . S
C595 C594 1.414 . S
C595 C596 1.374 . S
C596 H570 0.950 . S
C596 C592 1.385 . S
C596 C595 1.374 . S
C597 C594 1.499 . S
C597 C598 1.373 . S
C597 C599 1.389 . S
C598 H571 0.950 . S
C598 C584 1.377 . S
C598 C597 1.373 . S
C599 C583 1.377 . S
C599 C597 1.389 . S
C599 C600 1.524 . S
C600 C599 1.524 . S
C600 C601 1.397 . S
C600 C605 1.363 . S
C601 H572 0.950 . S
C601 C600 1.397 . S
C601 C602 1.334 . S
C602 H573 0.950 . S
C602 C601 1.334 . S
C602 C603 1.287 . S
C603 C602 1.287 . S
C603 C604 1.524 . S
C603 H606 0.999 . S
C604 H574 0.950 . S
C604 C603 1.524 . S
C604 C605 1.415 . S
C605 H575 0.950 . S
C605 C600 1.363 . S
C605 C604 1.415 . S
H606 C603 0.999 . S
H607 C588 0.913 . S
H608 C626 0.951 . S
H609 C628 0.951 . S
H610 C630 0.950 . S
H611 C631 0.950 1_455 S
H612 C633 0.950 . S
H613 C636 0.950 . S
H614 C637 0.950 . S
H615 C639 0.950 . S
H616 C640 0.950 . S
H617 C641 0.951 . S
H618 C643 0.951 . S
H619 C645 0.950 . S
H620 C646 0.950 1_655 S
H621 C648 0.950 . S
H622 C651 0.950 . S
H623 C652 0.950 . S
H624 C654 0.950 . S
H625 C655 0.950 . S
C626 H608 0.951 . S
C626 C627 1.366 . S
C626 C628 1.388 . S
C627 C626 1.366 . S
C627 C631 1.385 . S
C628 H609 0.951 . S
C628 C626 1.388 . S
C628 C629 1.366 . S
C629 C628 1.366 . S
C629 C630 1.414 1_655 S
C629 C632 1.499 . S
C630 H610 0.950 . S
C630 C629 1.414 1_455 S
C630 C631 1.374 1_455 S
C631 H611 0.950 1_655 S
C631 C627 1.385 . S
C631 C630 1.374 1_655 S
C632 C629 1.499 . S
C632 C633 1.373 1_655 S
C632 C634 1.389 . S
C633 H612 0.950 . S
C633 C632 1.373 1_455 S
C633 C649 1.377 . S
C634 C632 1.389 . S
C634 C635 1.524 . S
C634 C648 1.377 . S
C635 C634 1.524 . S
C635 C636 1.397 . S
C635 C640 1.363 . S
C636 H613 0.950 . S
C636 C635 1.397 . S
C636 C637 1.334 . S
C637 H614 0.950 . S
C637 C636 1.334 . S
C637 C638 1.287 . S
C638 C637 1.287 . S
C638 C639 1.524 . S
C638 H657 0.913 . S
C639 H615 0.950 . S
C639 C638 1.524 . S
C639 C640 1.415 . S
C640 H616 0.950 . S
C640 C635 1.363 . S
C640 C639 1.415 . S
C641 H617 0.951 . S
C641 C642 1.366 . S
C641 C643 1.388 . S
C642 C641 1.366 . S
C642 C646 1.385 . S
C643 H618 0.951 . S
C643 C641 1.388 . S
C643 C644 1.366 . S
C644 C643 1.366 . S
C644 C645 1.414 1_455 S
C644 C647 1.499 . S
C645 H619 0.950 . S
C645 C644 1.414 1_655 S
C645 C646 1.374 1_655 S
C646 H620 0.950 1_455 S
C646 C642 1.385 . S
C646 C645 1.374 1_455 S
C647 C644 1.499 . S
C647 C648 1.373 1_455 S
C647 C649 1.389 . S
C648 H621 0.950 . S
C648 C634 1.377 . S
C648 C647 1.373 1_655 S
C649 C633 1.377 . S
C649 C647 1.389 . S
C649 C650 1.524 . S
C650 C649 1.524 . S
C650 C651 1.397 . S
C650 C655 1.363 . S
C651 H622 0.950 . S
C651 C650 1.397 . S
C651 C652 1.334 . S
C652 H623 0.950 . S
C652 C651 1.334 . S
C652 C653 1.287 . S
C653 C652 1.287 . S
C653 C654 1.524 . S
C653 H656 0.999 . S
C654 H624 0.950 . S
C654 C653 1.524 . S
C654 C655 1.415 . S
C655 H625 0.950 . S
C655 C650 1.363 . S
C655 C654 1.415 . S
H656 C653 0.999 . S
H657 C638 0.913 . S
H658 C676 0.951 . S
H659 C678 0.951 . S
H660 C680 0.950 . S
H661 C681 0.950 . S
H662 C683 0.950 . S
H663 C686 0.950 . S
H664 C687 0.950 . S
H665 C689 0.950 . S
H666 C690 0.950 . S
H667 C691 0.951 . S
H668 C693 0.951 . S
H669 C695 0.950 . S
H670 C696 0.950 . S
H671 C698 0.950 . S
H672 C701 0.950 . S
H673 C702 0.950 . S
H674 C704 0.950 . S
H675 C705 0.950 . S
C676 H658 0.951 . S
C676 C677 1.366 . S
C676 C678 1.388 . S
C677 C676 1.366 . S
C677 C681 1.385 . S
C678 H659 0.951 . S
C678 C676 1.388 . S
C678 C679 1.366 . S
C679 C678 1.366 . S
C679 C680 1.414 . S
C679 C682 1.499 . S
C680 H660 0.950 . S
C680 C679 1.414 . S
C680 C681 1.374 . S
C681 H661 0.950 . S
C681 C677 1.385 . S
C681 C680 1.374 . S
C682 C679 1.499 . S
C682 C683 1.373 . S
C682 C684 1.389 . S
C683 H662 0.950 . S
C683 C682 1.373 . S
C683 C699 1.377 . S
C684 C682 1.389 . S
C684 C685 1.524 . S
C684 C698 1.377 . S
C685 C684 1.524 . S
C685 C686 1.397 . S
C685 C690 1.363 . S
C686 H663 0.950 . S
C686 C685 1.397 . S
C686 C687 1.334 . S
C687 H664 0.950 . S
C687 C686 1.334 . S
C687 C688 1.287 . S
C688 C687 1.287 . S
C688 C689 1.524 . S
C688 H707 0.913 . S
C689 H665 0.950 . S
C689 C688 1.524 . S
C689 C690 1.415 . S
C690 H666 0.950 . S
C690 C685 1.363 . S
C690 C689 1.415 . S
C691 H667 0.951 . S
C691 C692 1.366 . S
C691 C693 1.388 . S
C692 C691 1.366 . S
C692 C696 1.385 . S
C693 H668 0.951 . S
C693 C691 1.388 . S
C693 C694 1.366 . S
C694 C693 1.366 . S
C694 C695 1.414 . S
C694 C697 1.499 . S
C695 H669 0.950 . S
C695 C694 1.414 . S
C695 C696 1.374 . S
C696 H670 0.950 . S
C696 C692 1.385 . S
C696 C695 1.374 . S
C697 C694 1.499 . S
C697 C698 1.373 . S
C697 C699 1.389 . S
C698 H671 0.950 . S
C698 C684 1.377 . S
C698 C697 1.373 . S
C699 C683 1.377 . S
C699 C697 1.389 . S
C699 C700 1.524 . S
C700 C699 1.524 . S
C700 C701 1.397 . S
C700 C705 1.363 . S
C701 H672 0.950 . S
C701 C700 1.397 . S
C701 C702 1.334 . S
C702 H673 0.950 . S
C702 C701 1.334 . S
C702 C703 1.287 . S
C703 C702 1.287 . S
C703 C704 1.524 . S
C703 H706 0.999 . S
C704 H674 0.950 . S
C704 C703 1.524 . S
C704 C705 1.415 . S
C705 H675 0.950 . S
C705 C700 1.363 . S
C705 C704 1.415 . S
H706 C703 0.999 . S
H707 C688 0.913 . S
H708 C726 0.951 . S
H709 C728 0.951 1_655 S
H710 C730 0.950 . S
H711 C731 0.950 . S
H712 C733 0.950 . S
H713 C736 0.950 . S
H714 C737 0.950 . S
H715 C739 0.950 . S
H716 C740 0.950 . S
H717 C741 0.951 . S
H718 C743 0.951 1_455 S
H719 C745 0.950 . S
H720 C746 0.950 . S
H721 C748 0.950 . S
H722 C751 0.950 . S
H723 C752 0.950 . S
H724 C754 0.950 . S
H725 C755 0.950 . S
C726 H708 0.951 . S
C726 C727 1.366 . S
C726 C728 1.388 . S
C727 C726 1.366 . S
C727 C731 1.385 . S
C728 H709 0.951 1_455 S
C728 C726 1.388 . S
C728 C729 1.366 . S
C729 C728 1.366 . S
C729 C730 1.414 . S
C729 C732 1.499 . S
C730 H710 0.950 . S
C730 C729 1.414 . S
C730 C731 1.374 . S
C731 H711 0.950 . S
C731 C727 1.385 . S
C731 C730 1.374 . S
C732 C729 1.499 . S
C732 C733 1.373 . S
C732 C734 1.389 1_455 S
C733 H712 0.950 . S
C733 C732 1.373 . S
C733 C749 1.377 . S
C734 C732 1.389 1_655 S
C734 C735 1.524 . S
C734 C748 1.377 . S
C735 C734 1.524 . S
C735 C736 1.397 . S
C735 C740 1.363 . S
C736 H713 0.950 . S
C736 C735 1.397 . S
C736 C737 1.334 . S
C737 H714 0.950 . S
C737 C736 1.334 . S
C737 C738 1.287 . S
C738 C737 1.287 . S
C738 C739 1.524 . S
C738 H757 0.913 . S
C739 H715 0.950 . S
C739 C738 1.524 . S
C739 C740 1.415 . S
C740 H716 0.950 . S
C740 C735 1.363 . S
C740 C739 1.415 . S
C741 H717 0.951 . S
C741 C742 1.366 . S
C741 C743 1.388 . S
C742 C741 1.366 . S
C742 C746 1.385 . S
C743 H718 0.951 1_655 S
C743 C741 1.388 . S
C743 C744 1.366 . S
C744 C743 1.366 . S
C744 C745 1.414 . S
C744 C747 1.499 . S
C745 H719 0.950 . S
C745 C744 1.414 . S
C745 C746 1.374 . S
C746 H720 0.950 . S
C746 C742 1.385 . S
C746 C745 1.374 . S
C747 C744 1.499 . S
C747 C748 1.373 . S
C747 C749 1.389 1_655 S
C748 H721 0.950 . S
C748 C734 1.377 . S
C748 C747 1.373 . S
C749 C733 1.377 . S
C749 C747 1.389 1_455 S
C749 C750 1.524 . S
C750 C749 1.524 . S
C750 C751 1.397 . S
C750 C755 1.363 . S
C751 H722 0.950 . S
C751 C750 1.397 . S
C751 C752 1.334 . S
C752 H723 0.950 . S
C752 C751 1.334 . S
C752 C753 1.287 . S
C753 C752 1.287 . S
C753 C754 1.524 . S
C753 H756 0.999 . S
C754 H724 0.950 . S
C754 C753 1.524 . S
C754 C755 1.415 . S
C755 H725 0.950 . S
C755 C750 1.363 . S
C755 C754 1.415 . S
H756 C753 0.999 . S
H757 C738 0.913 . S
H758 C776 0.951 . S
H759 C778 0.951 . S
H760 C780 0.950 . S
H761 C781 0.950 . S
H762 C783 0.950 . S
H763 C786 0.950 . S
H764 C787 0.950 . S
H765 C789 0.950 . S
H766 C790 0.950 . S
H767 C791 0.951 . S
H768 C793 0.951 . S
H769 C795 0.950 . S
H770 C796 0.950 . S
H771 C798 0.950 . S
H772 C801 0.950 . S
H773 C802 0.950 . S
H774 C804 0.950 . S
H775 C805 0.950 . S
C776 H758 0.951 . S
C776 C777 1.366 . S
C776 C778 1.388 . S
C777 C776 1.366 . S
C777 C781 1.385 . S
C778 H759 0.951 . S
C778 C776 1.388 . S
C778 C779 1.366 . S
C779 C778 1.366 . S
C779 C780 1.414 . S
C779 C782 1.499 . S
C780 H760 0.950 . S
C780 C779 1.414 . S
C780 C781 1.374 . S
C781 H761 0.950 . S
C781 C777 1.385 . S
C781 C780 1.374 . S
C782 C779 1.499 . S
C782 C783 1.373 . S
C782 C784 1.389 . S
C783 H762 0.950 . S
C783 C782 1.373 . S
C783 C799 1.377 . S
C784 C782 1.389 . S
C784 C785 1.524 . S
C784 C798 1.377 . S
C785 C784 1.524 . S
C785 C786 1.397 . S
C785 C790 1.363 . S
C786 H763 0.950 . S
C786 C785 1.397 . S
C786 C787 1.334 . S
C787 H764 0.950 . S
C787 C786 1.334 . S
C787 C788 1.287 . S
C788 C787 1.287 . S
C788 C789 1.524 . S
C788 H807 0.913 . S
C789 H765 0.950 . S
C789 C788 1.524 . S
C789 C790 1.415 . S
C790 H766 0.950 . S
C790 C785 1.363 . S
C790 C789 1.415 . S
C791 H767 0.951 . S
C791 C792 1.366 . S
C791 C793 1.388 . S
C792 C791 1.366 . S
C792 C796 1.385 . S
C793 H768 0.951 . S
C793 C791 1.388 . S
C793 C794 1.366 . S
C794 C793 1.366 . S
C794 C795 1.414 . S
C794 C797 1.499 . S
C795 H769 0.950 . S
C795 C794 1.414 . S
C795 C796 1.374 . S
C796 H770 0.950 . S
C796 C792 1.385 . S
C796 C795 1.374 . S
C797 C794 1.499 . S
C797 C798 1.373 . S
C797 C799 1.389 . S
C798 H771 0.950 . S
C798 C784 1.377 . S
C798 C797 1.373 . S
C799 C783 1.377 . S
C799 C797 1.389 . S
C799 C800 1.524 . S
C800 C799 1.524 . S
C800 C801 1.397 . S
C800 C805 1.363 . S
C801 H772 0.950 . S
C801 C800 1.397 . S
C801 C802 1.334 . S
C802 H773 0.950 . S
C802 C801 1.334 . S
C802 C803 1.287 . S
C803 C802 1.287 . S
C803 C804 1.524 . S
C803 H806 0.999 . S
C804 H774 0.950 . S
C804 C803 1.524 . S
C804 C805 1.415 . S
C805 H775 0.950 . S
C805 C800 1.363 . S
C805 C804 1.415 . S
H806 C803 0.999 . S
H807 C788 0.913 . S
H808 C826 0.951 . S
H809 C828 0.951 . S
H810 C830 0.950 . S
H811 C831 0.950 . S
H812 C833 0.950 . S
H813 C836 0.950 . S
H814 C837 0.950 . S
H815 C839 0.950 . S
H816 C840 0.950 . S
H817 C841 0.951 . S
H818 C843 0.951 . S
H819 C845 0.950 . S
H820 C846 0.950 . S
H821 C848 0.950 . S
H822 C851 0.950 . S
H823 C852 0.950 . S
H824 C854 0.950 . S
H825 C855 0.950 . S
C826 H808 0.951 . S
C826 C827 1.366 . S
C826 C828 1.388 . S
C827 C826 1.366 . S
C827 C831 1.385 . S
C828 H809 0.951 . S
C828 C826 1.388 . S
C828 C829 1.366 . S
C829 C828 1.366 . S
C829 C830 1.414 . S
C829 C832 1.499 . S
C830 H810 0.950 . S
C830 C829 1.414 . S
C830 C831 1.374 . S
C831 H811 0.950 . S
C831 C827 1.385 . S
C831 C830 1.374 . S
C832 C829 1.499 . S
C832 C833 1.373 . S
C832 C834 1.389 . S
C833 H812 0.950 . S
C833 C832 1.373 . S
C833 C849 1.377 . S
C834 C832 1.389 . S
C834 C835 1.524 . S
C834 C848 1.377 . S
C835 C834 1.524 . S
C835 C836 1.397 . S
C835 C840 1.363 . S
C836 H813 0.950 . S
C836 C835 1.397 . S
C836 C837 1.334 . S
C837 H814 0.950 . S
C837 C836 1.334 . S
C837 C838 1.287 . S
C838 C837 1.287 . S
C838 C839 1.524 . S
C838 H857 0.913 . S
C839 H815 0.950 . S
C839 C838 1.524 . S
C839 C840 1.415 . S
C840 H816 0.950 . S
C840 C835 1.363 . S
C840 C839 1.415 . S
C841 H817 0.951 . S
C841 C842 1.366 . S
C841 C843 1.388 . S
C842 C841 1.366 . S
C842 C846 1.385 . S
C843 H818 0.951 . S
C843 C841 1.388 . S
C843 C844 1.366 . S
C844 C843 1.366 . S
C844 C845 1.414 . S
C844 C847 1.499 . S
C845 H819 0.950 . S
C845 C844 1.414 . S
C845 C846 1.374 . S
C846 H820 0.950 . S
C846 C842 1.385 . S
C846 C845 1.374 . S
C847 C844 1.499 . S
C847 C848 1.373 . S
C847 C849 1.389 . S
C848 H821 0.950 . S
C848 C834 1.377 . S
C848 C847 1.373 . S
C849 C833 1.377 . S
C849 C847 1.389 . S
C849 C850 1.524 . S
C850 C849 1.524 . S
C850 C851 1.397 . S
C850 C855 1.363 . S
C851 H822 0.950 . S
C851 C850 1.397 . S
C851 C852 1.334 . S
C852 H823 0.950 . S
C852 C851 1.334 . S
C852 C853 1.287 . S
C853 C852 1.287 . S
C853 C854 1.524 . S
C853 H856 0.999 . S
C854 H824 0.950 . S
C854 C853 1.524 . S
C854 C855 1.415 . S
C855 H825 0.950 . S
C855 C850 1.363 . S
C855 C854 1.415 . S
H856 C853 0.999 . S
H857 C838 0.913 . S
H858 C876 0.951 . S
H859 C878 0.951 1_655 S
H860 C880 0.950 . S
H861 C881 0.950 . S
H862 C883 0.950 . S
H863 C886 0.950 . S
H864 C887 0.950 . S
H865 C889 0.950 . S
H866 C890 0.950 . S
H867 C891 0.951 . S
H868 C893 0.951 1_455 S
H869 C895 0.950 . S
H870 C896 0.950 . S
H871 C898 0.950 . S
H872 C901 0.950 . S
H873 C902 0.950 . S
H874 C904 0.950 . S
H875 C905 0.950 . S
C876 H858 0.951 . S
C876 C877 1.366 . S
C876 C878 1.388 . S
C877 C876 1.366 . S
C877 C881 1.385 . S
C878 H859 0.951 1_455 S
C878 C876 1.388 . S
C878 C879 1.366 . S
C879 C878 1.366 . S
C879 C880 1.414 . S
C879 C882 1.499 . S
C880 H860 0.950 . S
C880 C879 1.414 . S
C880 C881 1.374 . S
C881 H861 0.950 . S
C881 C877 1.385 . S
C881 C880 1.374 . S
C882 C879 1.499 . S
C882 C883 1.373 . S
C882 C884 1.389 1_455 S
C883 H862 0.950 . S
C883 C882 1.373 . S
C883 C899 1.377 . S
C884 C882 1.389 1_655 S
C884 C885 1.524 . S
C884 C898 1.377 . S
C885 C884 1.524 . S
C885 C886 1.397 . S
C885 C890 1.363 . S
C886 H863 0.950 . S
C886 C885 1.397 . S
C886 C887 1.334 . S
C887 H864 0.950 . S
C887 C886 1.334 . S
C887 C888 1.287 . S
C888 C887 1.287 . S
C888 C889 1.524 . S
C888 H907 0.913 . S
C889 H865 0.950 . S
C889 C888 1.524 . S
C889 C890 1.415 . S
C890 H866 0.950 . S
C890 C885 1.363 . S
C890 C889 1.415 . S
C891 H867 0.951 . S
C891 C892 1.366 . S
C891 C893 1.388 . S
C892 C891 1.366 . S
C892 C896 1.385 . S
C893 H868 0.951 1_655 S
C893 C891 1.388 . S
C893 C894 1.366 . S
C894 C893 1.366 . S
C894 C895 1.414 . S
C894 C897 1.499 . S
C895 H869 0.950 . S
C895 C894 1.414 . S
C895 C896 1.374 . S
C896 H870 0.950 . S
C896 C892 1.385 . S
C896 C895 1.374 . S
C897 C894 1.499 . S
C897 C898 1.373 . S
C897 C899 1.389 1_655 S
C898 H871 0.950 . S
C898 C884 1.377 . S
C898 C897 1.373 . S
C899 C883 1.377 . S
C899 C897 1.389 1_455 S
C899 C900 1.524 . S
C900 C899 1.524 . S
C900 C901 1.397 . S
C900 C905 1.363 . S
C901 H872 0.950 . S
C901 C900 1.397 . S
C901 C902 1.334 . S
C902 H873 0.950 . S
C902 C901 1.334 . S
C902 C903 1.287 . S
C903 C902 1.287 . S
C903 C904 1.524 . S
C903 H906 0.999 . S
C904 H874 0.950 . S
C904 C903 1.524 . S
C904 C905 1.415 . S
C905 H875 0.950 . S
C905 C900 1.363 . S
C905 C904 1.415 . S
H906 C903 0.999 . S
H907 C888 0.913 . S
H908 C926 0.951 . S
H909 C928 0.951 . S
H910 C930 0.950 . S
H911 C931 0.950 . S
H912 C933 0.950 . S
H913 C936 0.950 . S
H914 C937 0.950 . S
H915 C939 0.950 . S
H916 C940 0.950 . S
H917 C941 0.951 . S
H918 C943 0.951 . S
H919 C945 0.950 . S
H920 C946 0.950 . S
H921 C948 0.950 . S
H922 C951 0.950 . S
H923 C952 0.950 . S
H924 C954 0.950 . S
H925 C955 0.950 . S
C926 H908 0.951 . S
C926 C927 1.366 . S
C926 C928 1.388 . S
C927 C926 1.366 . S
C927 C931 1.385 . S
C928 H909 0.951 . S
C928 C926 1.388 . S
C928 C929 1.366 . S
C929 C928 1.366 . S
C929 C930 1.414 . S
C929 C932 1.499 . S
C930 H910 0.950 . S
C930 C929 1.414 . S
C930 C931 1.374 . S
C931 H911 0.950 . S
C931 C927 1.385 . S
C931 C930 1.374 . S
C932 C929 1.499 . S
C932 C933 1.373 . S
C932 C934 1.389 . S
C933 H912 0.950 . S
C933 C932 1.373 . S
C933 C949 1.377 . S
C934 C932 1.389 . S
C934 C935 1.524 . S
C934 C948 1.377 . S
C935 C934 1.524 . S
C935 C936 1.397 . S
C935 C940 1.363 . S
C936 H913 0.950 . S
C936 C935 1.397 . S
C936 C937 1.334 . S
C937 H914 0.950 . S
C937 C936 1.334 . S
C937 C938 1.287 . S
C938 C937 1.287 . S
C938 C939 1.524 . S
C938 H957 0.913 . S
C939 H915 0.950 . S
C939 C938 1.524 . S
C939 C940 1.415 . S
C940 H916 0.950 . S
C940 C935 1.363 . S
C940 C939 1.415 . S
C941 H917 0.951 . S
C941 C942 1.366 . S
C941 C943 1.388 . S
C942 C941 1.366 . S
C942 C946 1.385 . S
C943 H918 0.951 . S
C943 C941 1.388 . S
C943 C944 1.366 . S
C944 C943 1.366 . S
C944 C945 1.414 . S
C944 C947 1.499 . S
C945 H919 0.950 . S
C945 C944 1.414 . S
C945 C946 1.374 . S
C946 H920 0.950 . S
C946 C942 1.385 . S
C946 C945 1.374 . S
C947 C944 1.499 . S
C947 C948 1.373 . S
C947 C949 1.389 . S
C948 H921 0.950 . S
C948 C934 1.377 . S
C948 C947 1.373 . S
C949 C933 1.377 . S
C949 C947 1.389 . S
C949 C950 1.524 . S
C950 C949 1.524 . S
C950 C951 1.397 . S
C950 C955 1.363 . S
C951 H922 0.950 . S
C951 C950 1.397 . S
C951 C952 1.334 . S
C952 H923 0.950 . S
C952 C951 1.334 . S
C952 C953 1.287 . S
C953 C952 1.287 . S
C953 C954 1.524 . S
C953 H956 0.999 . S
C954 H924 0.950 . S
C954 C953 1.524 . S
C954 C955 1.415 . S
C955 H925 0.950 . S
C955 C950 1.363 . S
C955 C954 1.415 . S
H956 C953 0.999 . S
H957 C938 0.913 . S
H958 C976 0.951 . S
H959 C978 0.951 . S
H960 C980 0.933 1_655 S
H961 C981 0.950 1_655 S
H962 C983 0.950 . S
H963 C986 0.950 . S
H964 C987 0.937 1_655 S
H965 C989 0.950 . S
H966 C990 0.950 . S
H967 C991 0.951 . S
H968 C993 0.951 . S
H969 C995 0.933 1_455 S
H970 C996 0.950 1_455 S
H971 C998 0.950 . S
H972 C1001 0.950 . S
H973 C1002 0.937 1_455 S
H974 C1004 0.950 . S
H975 C1005 0.950 . S
C976 H958 0.951 . S
C976 C977 1.366 . S
C976 C978 1.388 . S
C977 C976 1.366 . S
C977 C981 1.385 . S
C978 H959 0.951 . S
C978 C976 1.388 . S
C978 C979 1.366 . S
C979 C978 1.366 . S
C979 C980 1.425 . S
C979 C982 1.499 . S
C980 H960 0.933 1_455 S
C980 C979 1.425 . S
C980 C981 1.380 . S
C981 H961 0.950 1_455 S
C981 C977 1.385 . S
C981 C980 1.380 . S
C982 C979 1.499 . S
C982 C983 1.373 1_455 S
C982 C984 1.389 . S
C983 H962 0.950 . S
C983 C982 1.373 1_655 S
C983 C999 1.377 . S
C984 C982 1.389 . S
C984 C985 1.524 . S
C984 C998 1.377 . S
C985 C984 1.524 . S
C985 C986 1.397 1_455 S
C985 C990 1.363 . S
C986 H963 0.950 . S
C986 C985 1.397 1_655 S
C986 C987 1.331 1_655 S
C987 H964 0.937 1_455 S
C987 C986 1.331 1_455 S
C987 C988 1.304 . S
C988 C987 1.304 . S
C988 C989 1.524 . S
C988 H1007 0.913 . S
C989 H965 0.950 . S
C989 C988 1.524 . S
C989 C990 1.415 . S
C990 H966 0.950 . S
C990 C985 1.363 . S
C990 C989 1.415 . S
C991 H967 0.951 . S
C991 C992 1.366 . S
C991 C993 1.388 . S
C992 C991 1.366 . S
C992 C996 1.385 . S
C993 H968 0.951 . S
C993 C991 1.388 . S
C993 C994 1.366 . S
C994 C993 1.366 . S
C994 C995 1.425 . S
C994 C997 1.499 . S
C995 H969 0.933 1_655 S
C995 C994 1.425 . S
C995 C996 1.380 . S
C996 H970 0.950 1_655 S
C996 C992 1.385 . S
C996 C995 1.380 . S
C997 C994 1.499 . S
C997 C998 1.373 1_655 S
C997 C999 1.389 . S
C998 H971 0.950 . S
C998 C984 1.377 . S
C998 C997 1.373 1_455 S
C999 C983 1.377 . S
C999 C997 1.389 . S
C999 C1000 1.524 . S
C1000 C999 1.524 . S
C1000 C1001 1.397 1_655 S
C1000 C1005 1.363 . S
C1001 H972 0.950 . S
C1001 C1000 1.397 1_455 S
C1001 C1002 1.331 1_455 S
C1002 H973 0.937 1_655 S
C1002 C1001 1.331 1_655 S
C1002 C1003 1.304 . S
C1003 C1002 1.304 . S
C1003 C1004 1.524 . S
C1003 H1006 0.999 . S
C1004 H974 0.950 . S
C1004 C1003 1.524 . S
C1004 C1005 1.415 . S
C1005 H975 0.950 . S
C1005 C1000 1.363 . S
C1005 C1004 1.415 . S
H1006 C1003 0.999 . S
H1007 C988 0.913 . S
H1008 C1026 0.951 . S
H1009 C1028 0.951 . S
H1010 C1030 0.950 . S
H1011 C1031 0.950 . S
H1012 C1033 0.950 . S
H1013 C1036 0.950 . S
H1014 C1037 0.950 . S
H1015 C1039 0.950 . S
H1016 C1040 0.950 . S
H1017 C1041 0.951 . S
H1018 C1043 0.951 . S
H1019 C1045 0.950 . S
H1020 C1046 0.950 . S
H1021 C1048 0.950 . S
H1022 C1051 0.950 . S
H1023 C1052 0.950 . S
H1024 C1054 0.950 . S
H1025 C1055 0.950 . S
C1026 H1008 0.951 . S
C1026 C1027 1.366 . S
C1026 C1028 1.388 . S
C1027 C1026 1.366 . S
C1027 C1031 1.385 . S
C1028 H1009 0.951 . S
C1028 C1026 1.388 . S
C1028 C1029 1.366 . S
C1029 C1028 1.366 . S
C1029 C1030 1.414 . S
C1029 C1032 1.499 . S
C1030 H1010 0.950 . S
C1030 C1029 1.414 . S
C1030 C1031 1.374 . S
C1031 H1011 0.950 . S
C1031 C1027 1.385 . S
C1031 C1030 1.374 . S
C1032 C1029 1.499 . S
C1032 C1033 1.373 . S
C1032 C1034 1.389 1_455 S
C1033 H1012 0.950 . S
C1033 C1032 1.373 . S
C1033 C1049 1.377 . S
C1034 C1032 1.389 1_655 S
C1034 C1035 1.524 . S
C1034 C1048 1.377 . S
C1035 C1034 1.524 . S
C1035 C1036 1.397 . S
C1035 C1040 1.363 . S
C1036 H1013 0.950 . S
C1036 C1035 1.397 . S
C1036 C1037 1.334 . S
C1037 H1014 0.950 . S
C1037 C1036 1.334 . S
C1037 C1038 1.287 . S
C1038 C1037 1.287 . S
C1038 C1039 1.524 . S
C1038 H1057 0.913 . S
C1039 H1015 0.950 . S
C1039 C1038 1.524 . S
C1039 C1040 1.415 . S
C1040 H1016 0.950 . S
C1040 C1035 1.363 . S
C1040 C1039 1.415 . S
C1041 H1017 0.951 . S
C1041 C1042 1.366 . S
C1041 C1043 1.388 . S
C1042 C1041 1.366 . S
C1042 C1046 1.385 . S
C1043 H1018 0.951 . S
C1043 C1041 1.388 . S
C1043 C1044 1.366 . S
C1044 C1043 1.366 . S
C1044 C1045 1.414 . S
C1044 C1047 1.499 . S
C1045 H1019 0.950 . S
C1045 C1044 1.414 . S
C1045 C1046 1.374 . S
C1046 H1020 0.950 . S
C1046 C1042 1.385 . S
C1046 C1045 1.374 . S
C1047 C1044 1.499 . S
C1047 C1048 1.373 . S
C1047 C1049 1.389 1_655 S
C1048 H1021 0.950 . S
C1048 C1034 1.377 . S
C1048 C1047 1.373 . S
C1049 C1033 1.377 . S
C1049 C1047 1.389 1_455 S
C1049 C1050 1.524 . S
C1050 C1049 1.524 . S
C1050 C1051 1.397 . S
C1050 C1055 1.363 . S
C1051 H1022 0.950 . S
C1051 C1050 1.397 . S
C1051 C1052 1.334 . S
C1052 H1023 0.950 . S
C1052 C1051 1.334 . S
C1052 C1053 1.287 . S
C1053 C1052 1.287 . S
C1053 C1054 1.524 . S
C1053 H1056 0.999 . S
C1054 H1024 0.950 . S
C1054 C1053 1.524 . S
C1054 C1055 1.415 . S
C1055 H1025 0.950 . S
C1055 C1050 1.363 . S
C1055 C1054 1.415 . S
H1056 C1053 0.999 . S
H1057 C1038 0.913 . S
H1058 C1076 0.951 . S
H1059 C1078 0.951 . S
H1060 C1080 0.950 . S
H1061 C1081 0.950 . S
H1062 C1083 0.950 . S
H1063 C1086 0.950 . S
H1064 C1087 0.950 . S
H1065 C1089 0.950 . S
H1066 C1090 0.950 . S
H1067 C1091 0.951 . S
H1068 C1093 0.951 . S
H1069 C1095 0.950 . S
H1070 C1096 0.950 . S
H1071 C1098 0.950 . S
H1072 C1101 0.950 . S
H1073 C1102 0.950 . S
H1074 C1104 0.950 . S
H1075 C1105 0.950 . S
C1076 H1058 0.951 . S
C1076 C1077 1.366 . S
C1076 C1078 1.388 . S
C1077 C1076 1.366 . S
C1077 C1081 1.385 . S
C1078 H1059 0.951 . S
C1078 C1076 1.388 . S
C1078 C1079 1.366 . S
C1079 C1078 1.366 . S
C1079 C1080 1.414 . S
C1079 C1082 1.499 . S
C1080 H1060 0.950 . S
C1080 C1079 1.414 . S
C1080 C1081 1.374 . S
C1081 H1061 0.950 . S
C1081 C1077 1.385 . S
C1081 C1080 1.374 . S
C1082 C1079 1.499 . S
C1082 C1083 1.373 . S
C1082 C1084 1.389 . S
C1083 H1062 0.950 . S
C1083 C1082 1.373 . S
C1083 C1099 1.377 . S
C1084 C1082 1.389 . S
C1084 C1085 1.524 . S
C1084 C1098 1.377 . S
C1085 C1084 1.524 . S
C1085 C1086 1.397 . S
C1085 C1090 1.363 . S
C1086 H1063 0.950 . S
C1086 C1085 1.397 . S
C1086 C1087 1.334 . S
C1087 H1064 0.950 . S
C1087 C1086 1.334 . S
C1087 C1088 1.287 . S
C1088 C1087 1.287 . S
C1088 C1089 1.524 . S
C1088 H1107 0.913 . S
C1089 H1065 0.950 . S
C1089 C1088 1.524 . S
C1089 C1090 1.415 . S
C1090 H1066 0.950 . S
C1090 C1085 1.363 . S
C1090 C1089 1.415 . S
C1091 H1067 0.951 . S
C1091 C1092 1.366 . S
C1091 C1093 1.388 . S
C1092 C1091 1.366 . S
C1092 C1096 1.385 . S
C1093 H1068 0.951 . S
C1093 C1091 1.388 . S
C1093 C1094 1.366 . S
C1094 C1093 1.366 . S
C1094 C1095 1.414 . S
C1094 C1097 1.499 . S
C1095 H1069 0.950 . S
C1095 C1094 1.414 . S
C1095 C1096 1.374 . S
C1096 H1070 0.950 . S
C1096 C1092 1.385 . S
C1096 C1095 1.374 . S
C1097 C1094 1.499 . S
C1097 C1098 1.373 . S
C1097 C1099 1.389 . S
C1098 H1071 0.950 . S
C1098 C1084 1.377 . S
C1098 C1097 1.373 . S
C1099 C1083 1.377 . S
C1099 C1097 1.389 . S
C1099 C1100 1.524 . S
C1100 C1099 1.524 . S
C1100 C1101 1.397 . S
C1100 C1105 1.363 . S
C1101 H1072 0.950 . S
C1101 C1100 1.397 . S
C1101 C1102 1.334 . S
C1102 H1073 0.950 . S
C1102 C1101 1.334 . S
C1102 C1103 1.287 . S
C1103 C1102 1.287 . S
C1103 C1104 1.524 . S
C1103 H1106 0.999 . S
C1104 H1074 0.950 . S
C1104 C1103 1.524 . S
C1104 C1105 1.415 . S
C1105 H1075 0.950 . S
C1105 C1100 1.363 . S
C1105 C1104 1.415 . S
H1106 C1103 0.999 . S
H1107 C1088 0.913 . S
H1108 C1126 0.951 . S
H1109 C1128 0.951 . S
H1110 C1130 0.950 . S
H1111 C1131 0.950 . S
H1112 C1133 0.950 . S
H1113 C1136 0.950 . S
H1114 C1137 0.950 . S
H1115 C1139 0.950 . S
H1116 C1140 0.950 . S
H1117 C1141 0.951 . S
H1118 C1143 0.951 . S
H1119 C1145 0.950 . S
H1120 C1146 0.950 . S
H1121 C1148 0.950 . S
H1122 C1151 0.950 . S
H1123 C1152 0.950 . S
H1124 C1154 0.950 . S
H1125 C1155 0.950 . S
C1126 H1108 0.951 . S
C1126 C1127 1.366 . S
C1126 C1128 1.388 . S
C1127 C1126 1.366 . S
C1127 C1131 1.385 . S
C1128 H1109 0.951 . S
C1128 C1126 1.388 . S
C1128 C1129 1.366 . S
C1129 C1128 1.366 . S
C1129 C1130 1.414 . S
C1129 C1132 1.499 . S
C1130 H1110 0.950 . S
C1130 C1129 1.414 . S
C1130 C1131 1.374 . S
C1131 H1111 0.950 . S
C1131 C1127 1.385 . S
C1131 C1130 1.374 . S
C1132 C1129 1.499 . S
C1132 C1133 1.373 . S
C1132 C1134 1.389 . S
C1133 H1112 0.950 . S
C1133 C1132 1.373 . S
C1133 C1149 1.377 . S
C1134 C1132 1.389 . S
C1134 C1135 1.524 . S
C1134 C1148 1.377 . S
C1135 C1134 1.524 . S
C1135 C1136 1.397 . S
C1135 C1140 1.363 . S
C1136 H1113 0.950 . S
C1136 C1135 1.397 . S
C1136 C1137 1.334 . S
C1137 H1114 0.950 . S
C1137 C1136 1.334 . S
C1137 C1138 1.287 . S
C1138 C1137 1.287 . S
C1138 C1139 1.524 . S
C1138 H1157 0.913 . S
C1139 H1115 0.950 . S
C1139 C1138 1.524 . S
C1139 C1140 1.415 . S
C1140 H1116 0.950 . S
C1140 C1135 1.363 . S
C1140 C1139 1.415 . S
C1141 H1117 0.951 . S
C1141 C1142 1.366 . S
C1141 C1143 1.388 . S
C1142 C1141 1.366 . S
C1142 C1146 1.385 . S
C1143 H1118 0.951 . S
C1143 C1141 1.388 . S
C1143 C1144 1.366 . S
C1144 C1143 1.366 . S
C1144 C1145 1.414 . S
C1144 C1147 1.499 . S
C1145 H1119 0.950 . S
C1145 C1144 1.414 . S
C1145 C1146 1.374 . S
C1146 H1120 0.950 . S
C1146 C1142 1.385 . S
C1146 C1145 1.374 . S
C1147 C1144 1.499 . S
C1147 C1148 1.373 . S
C1147 C1149 1.389 . S
C1148 H1121 0.950 . S
C1148 C1134 1.377 . S
C1148 C1147 1.373 . S
C1149 C1133 1.377 . S
C1149 C1147 1.389 . S
C1149 C1150 1.524 . S
C1150 C1149 1.524 . S
C1150 C1151 1.397 . S
C1150 C1155 1.363 . S
C1151 H1122 0.950 . S
C1151 C1150 1.397 . S
C1151 C1152 1.334 . S
C1152 H1123 0.950 . S
C1152 C1151 1.334 . S
C1152 C1153 1.287 . S
C1153 C1152 1.287 . S
C1153 C1154 1.524 . S
C1153 H1156 0.999 . S
C1154 H1124 0.950 . S
C1154 C1153 1.524 . S
C1154 C1155 1.415 . S
C1155 H1125 0.950 . S
C1155 C1150 1.363 . S
C1155 C1154 1.415 . S
H1156 C1153 0.999 . S
H1157 C1138 0.913 . S
H1158 C1176 0.951 . S
H1159 C1178 0.951 . S
H1160 C1180 0.950 1_655 S
H1161 C1181 0.950 . S
H1162 C1183 0.950 . S
H1163 C1186 0.950 . S
H1164 C1187 0.950 . S
H1165 C1189 0.950 . S
H1166 C1190 0.950 . S
H1167 C1191 0.951 . S
H1168 C1193 0.951 . S
H1169 C1195 0.950 1_455 S
H1170 C1196 0.950 . S
H1171 C1198 0.950 . S
H1172 C1201 0.950 . S
H1173 C1202 0.950 . S
H1174 C1204 0.950 . S
H1175 C1205 0.950 . S
C1176 H1158 0.951 . S
C1176 C1177 1.366 . S
C1176 C1178 1.388 . S
C1177 C1176 1.366 . S
C1177 C1181 1.385 . S
C1178 H1159 0.951 . S
C1178 C1176 1.388 . S
C1178 C1179 1.366 . S
C1179 C1178 1.366 . S
C1179 C1180 1.414 . S
C1179 C1182 1.499 . S
C1180 H1160 0.950 1_455 S
C1180 C1179 1.414 . S
C1180 C1181 1.374 . S
C1181 H1161 0.950 . S
C1181 C1177 1.385 . S
C1181 C1180 1.374 . S
C1182 C1179 1.499 . S
C1182 C1183 1.373 . S
C1182 C1184 1.389 . S
C1183 H1162 0.950 . S
C1183 C1182 1.373 . S
C1183 C1199 1.377 1_455 S
C1184 C1182 1.389 . S
C1184 C1185 1.524 . S
C1184 C1198 1.377 1_455 S
C1185 C1184 1.524 . S
C1185 C1186 1.397 1_455 S
C1185 C1190 1.363 . S
C1186 H1163 0.950 . S
C1186 C1185 1.397 1_655 S
C1186 C1187 1.334 . S
C1187 H1164 0.950 . S
C1187 C1186 1.334 . S
C1187 C1188 1.287 1_655 S
C1188 C1187 1.287 1_455 S
C1188 C1189 1.524 . S
C1188 H1207 0.913 . S
C1189 H1165 0.950 . S
C1189 C1188 1.524 . S
C1189 C1190 1.415 . S
C1190 H1166 0.950 . S
C1190 C1185 1.363 . S
C1190 C1189 1.415 . S
C1191 H1167 0.951 . S
C1191 C1192 1.366 . S
C1191 C1193 1.388 . S
C1192 C1191 1.366 . S
C1192 C1196 1.385 . S
C1193 H1168 0.951 . S
C1193 C1191 1.388 . S
C1193 C1194 1.366 . S
C1194 C1193 1.366 . S
C1194 C1195 1.414 . S
C1194 C1197 1.499 . S
C1195 H1169 0.950 1_655 S
C1195 C1194 1.414 . S
C1195 C1196 1.374 . S
C1196 H1170 0.950 . S
C1196 C1192 1.385 . S
C1196 C1195 1.374 . S
C1197 C1194 1.499 . S
C1197 C1198 1.373 . S
C1197 C1199 1.389 . S
C1198 H1171 0.950 . S
C1198 C1184 1.377 1_655 S
C1198 C1197 1.373 . S
C1199 C1183 1.377 1_655 S
C1199 C1197 1.389 . S
C1199 C1200 1.524 . S
C1200 C1199 1.524 . S
C1200 C1201 1.397 1_655 S
C1200 C1205 1.363 . S
C1201 H1172 0.950 . S
C1201 C1200 1.397 1_455 S
C1201 C1202 1.334 . S
C1202 H1173 0.950 . S
C1202 C1201 1.334 . S
C1202 C1203 1.287 1_455 S
C1203 C1202 1.287 1_655 S
C1203 C1204 1.524 . S
C1203 H1206 0.999 . S
C1204 H1174 0.950 . S
C1204 C1203 1.524 . S
C1204 C1205 1.415 . S
C1205 H1175 0.950 . S
C1205 C1200 1.363 . S
C1205 C1204 1.415 . S
H1206 C1203 0.999 . S
H1207 C1188 0.913 . S
H1208 C1226 0.951 1_655 S
H1209 C1228 0.951 1_655 S
H1210 C1230 0.950 . S
H1211 C1231 0.950 . S
H1212 C1233 0.950 . S
H1213 C1236 0.950 . S
H1214 C1237 0.950 . S
H1215 C1239 0.950 . S
H1216 C1240 0.950 . S
H1217 C1241 0.951 1_455 S
H1218 C1243 0.951 1_455 S
H1219 C1245 0.950 . S
H1220 C1246 0.950 . S
H1221 C1248 0.950 . S
H1222 C1251 0.950 . S
H1223 C1252 0.950 . S
H1224 C1254 0.950 . S
H1225 C1255 0.950 . S
C1226 H1208 0.951 1_455 S
C1226 C1227 1.366 . S
C1226 C1228 1.388 . S
C1227 C1226 1.366 . S
C1227 C1231 1.385 . S
C1228 H1209 0.951 1_455 S
C1228 C1226 1.388 . S
C1228 C1229 1.366 . S
C1229 C1228 1.366 . S
C1229 C1230 1.414 . S
C1229 C1232 1.499 . S
C1230 H1210 0.950 . S
C1230 C1229 1.414 . S
C1230 C1231 1.374 . S
C1231 H1211 0.950 . S
C1231 C1227 1.385 . S
C1231 C1230 1.374 . S
C1232 C1229 1.499 . S
C1232 C1233 1.373 . S
C1232 C1234 1.389 1_455 S
C1233 H1212 0.950 . S
C1233 C1232 1.373 . S
C1233 C1249 1.377 . S
C1234 C1232 1.389 1_655 S
C1234 C1235 1.524 . S
C1234 C1248 1.377 . S
C1235 C1234 1.524 . S
C1235 C1236 1.397 1_655 S
C1235 C1240 1.363 . S
C1236 H1213 0.950 . S
C1236 C1235 1.397 1_455 S
C1236 C1237 1.334 . S
C1237 H1214 0.950 . S
C1237 C1236 1.334 . S
C1237 C1238 1.287 1_455 S
C1238 C1237 1.287 1_655 S
C1238 C1239 1.524 . S
C1238 H1257 0.913 . S
C1239 H1215 0.950 . S
C1239 C1238 1.524 . S
C1239 C1240 1.415 . S
C1240 H1216 0.950 . S
C1240 C1235 1.363 . S
C1240 C1239 1.415 . S
C1241 H1217 0.951 1_655 S
C1241 C1242 1.366 . S
C1241 C1243 1.388 . S
C1242 C1241 1.366 . S
C1242 C1246 1.385 . S
C1243 H1218 0.951 1_655 S
C1243 C1241 1.388 . S
C1243 C1244 1.366 . S
C1244 C1243 1.366 . S
C1244 C1245 1.414 . S
C1244 C1247 1.499 . S
C1245 H1219 0.950 . S
C1245 C1244 1.414 . S
C1245 C1246 1.374 . S
C1246 H1220 0.950 . S
C1246 C1242 1.385 . S
C1246 C1245 1.374 . S
C1247 C1244 1.499 . S
C1247 C1248 1.373 . S
C1247 C1249 1.389 1_655 S
C1248 H1221 0.950 . S
C1248 C1234 1.377 . S
C1248 C1247 1.373 . S
C1249 C1233 1.377 . S
C1249 C1247 1.389 1_455 S
C1249 C1250 1.524 . S
C1250 C1249 1.524 . S
C1250 C1251 1.397 1_455 S
C1250 C1255 1.363 . S
C1251 H1222 0.950 . S
C1251 C1250 1.397 1_655 S
C1251 C1252 1.334 . S
C1252 H1223 0.950 . S
C1252 C1251 1.334 . S
C1252 C1253 1.287 1_655 S
C1253 C1252 1.287 1_455 S
C1253 C1254 1.524 . S
C1253 H1256 0.999 . S
C1254 H1224 0.950 . S
C1254 C1253 1.524 . S
C1254 C1255 1.415 . S
C1255 H1225 0.950 . S
C1255 C1250 1.363 . S
C1255 C1254 1.415 . S
H1256 C1253 0.999 . S
H1257 C1238 0.913 . S
H1258 C1276 0.951 . S
H1259 C1278 0.951 . S
H1260 C1280 0.950 . S
H1261 C1281 0.950 . S
H1262 C1283 0.950 . S
H1263 C1286 0.950 . S
H1264 C1287 0.950 . S
H1265 C1289 0.950 . S
H1266 C1290 0.950 . S
H1267 C1291 0.951 . S
H1268 C1293 0.951 . S
H1269 C1295 0.950 . S
H1270 C1296 0.950 . S
H1271 C1298 0.950 . S
H1272 C1301 0.950 . S
H1273 C1302 0.950 . S
H1274 C1304 0.950 . S
H1275 C1305 0.950 . S
C1276 H1258 0.951 . S
C1276 C1277 1.366 . S
C1276 C1278 1.388 . S
C1277 C1276 1.366 . S
C1277 C1281 1.385 . S
C1278 H1259 0.951 . S
C1278 C1276 1.388 . S
C1278 C1279 1.366 . S
C1279 C1278 1.366 . S
C1279 C1280 1.414 . S
C1279 C1282 1.499 . S
C1280 H1260 0.950 . S
C1280 C1279 1.414 . S
C1280 C1281 1.374 . S
C1281 H1261 0.950 . S
C1281 C1277 1.385 . S
C1281 C1280 1.374 . S
C1282 C1279 1.499 . S
C1282 C1283 1.373 . S
C1282 C1284 1.389 . S
C1283 H1262 0.950 . S
C1283 C1282 1.373 . S
C1283 C1299 1.377 . S
C1284 C1282 1.389 . S
C1284 C1285 1.524 . S
C1284 C1298 1.377 . S
C1285 C1284 1.524 . S
C1285 C1286 1.397 . S
C1285 C1290 1.363 . S
C1286 H1263 0.950 . S
C1286 C1285 1.397 . S
C1286 C1287 1.334 . S
C1287 H1264 0.950 . S
C1287 C1286 1.334 . S
C1287 C1288 1.287 . S
C1288 C1287 1.287 . S
C1288 C1289 1.524 . S
C1288 H1307 0.913 . S
C1289 H1265 0.950 . S
C1289 C1288 1.524 . S
C1289 C1290 1.415 . S
C1290 H1266 0.950 . S
C1290 C1285 1.363 . S
C1290 C1289 1.415 . S
C1291 H1267 0.951 . S
C1291 C1292 1.366 . S
C1291 C1293 1.388 . S
C1292 C1291 1.366 . S
C1292 C1296 1.385 . S
C1293 H1268 0.951 . S
C1293 C1291 1.388 . S
C1293 C1294 1.366 . S
C1294 C1293 1.366 . S
C1294 C1295 1.414 . S
C1294 C1297 1.499 . S
C1295 H1269 0.950 . S
C1295 C1294 1.414 . S
C1295 C1296 1.374 . S
C1296 H1270 0.950 . S
C1296 C1292 1.385 . S
C1296 C1295 1.374 . S
C1297 C1294 1.499 . S
C1297 C1298 1.373 . S
C1297 C1299 1.389 . S
C1298 H1271 0.950 . S
C1298 C1284 1.377 . S
C1298 C1297 1.373 . S
C1299 C1283 1.377 . S
C1299 C1297 1.389 . S
C1299 C1300 1.524 . S
C1300 C1299 1.524 . S
C1300 C1301 1.397 . S
C1300 C1305 1.363 . S
C1301 H1272 0.950 . S
C1301 C1300 1.397 . S
C1301 C1302 1.334 . S
C1302 H1273 0.950 . S
C1302 C1301 1.334 . S
C1302 C1303 1.287 . S
C1303 C1302 1.287 . S
C1303 C1304 1.524 . S
C1303 H1306 0.999 . S
C1304 H1274 0.950 . S
C1304 C1303 1.524 . S
C1304 C1305 1.415 . S
C1305 H1275 0.950 . S
C1305 C1300 1.363 . S
C1305 C1304 1.415 . S
H1306 C1303 0.999 . S
H1307 C1288 0.913 . S
H1308 C1326 0.951 . S
H1309 C1328 0.951 . S
H1310 C1330 0.950 . S
H1311 C1331 0.950 . S
H1312 C1333 0.950 . S
H1313 C1336 0.950 . S
H1314 C1337 0.950 . S
H1315 C1339 0.950 . S
H1316 C1340 0.950 . S
H1317 C1341 0.951 . S
H1318 C1343 0.951 . S
H1319 C1345 0.950 . S
H1320 C1346 0.950 . S
H1321 C1348 0.950 . S
H1322 C1351 0.950 . S
H1323 C1352 0.950 . S
H1324 C1354 0.950 . S
H1325 C1355 0.950 . S
C1326 H1308 0.951 . S
C1326 C1327 1.366 . S
C1326 C1328 1.388 . S
C1327 C1326 1.366 . S
C1327 C1331 1.385 . S
C1328 H1309 0.951 . S
C1328 C1326 1.388 . S
C1328 C1329 1.366 . S
C1329 C1328 1.366 . S
C1329 C1330 1.414 . S
C1329 C1332 1.499 . S
C1330 H1310 0.950 . S
C1330 C1329 1.414 . S
C1330 C1331 1.374 . S
C1331 H1311 0.950 . S
C1331 C1327 1.385 . S
C1331 C1330 1.374 . S
C1332 C1329 1.499 . S
C1332 C1333 1.373 . S
C1332 C1334 1.389 . S
C1333 H1312 0.950 . S
C1333 C1332 1.373 . S
C1333 C1349 1.377 . S
C1334 C1332 1.389 . S
C1334 C1335 1.524 . S
C1334 C1348 1.377 . S
C1335 C1334 1.524 . S
C1335 C1336 1.397 . S
C1335 C1340 1.363 . S
C1336 H1313 0.950 . S
C1336 C1335 1.397 . S
C1336 C1337 1.334 . S
C1337 H1314 0.950 . S
C1337 C1336 1.334 . S
C1337 C1338 1.287 . S
C1338 C1337 1.287 . S
C1338 C1339 1.524 . S
C1338 H1357 0.913 . S
C1339 H1315 0.950 . S
C1339 C1338 1.524 . S
C1339 C1340 1.415 . S
C1340 H1316 0.950 . S
C1340 C1335 1.363 . S
C1340 C1339 1.415 . S
C1341 H1317 0.951 . S
C1341 C1342 1.366 . S
C1341 C1343 1.388 . S
C1342 C1341 1.366 . S
C1342 C1346 1.385 . S
C1343 H1318 0.951 . S
C1343 C1341 1.388 . S
C1343 C1344 1.366 . S
C1344 C1343 1.366 . S
C1344 C1345 1.414 . S
C1344 C1347 1.499 . S
C1345 H1319 0.950 . S
C1345 C1344 1.414 . S
C1345 C1346 1.374 . S
C1346 H1320 0.950 . S
C1346 C1342 1.385 . S
C1346 C1345 1.374 . S
C1347 C1344 1.499 . S
C1347 C1348 1.373 . S
C1347 C1349 1.389 . S
C1348 H1321 0.950 . S
C1348 C1334 1.377 . S
C1348 C1347 1.373 . S
C1349 C1333 1.377 . S
C1349 C1347 1.389 . S
C1349 C1350 1.524 . S
C1350 C1349 1.524 . S
C1350 C1351 1.397 . S
C1350 C1355 1.363 . S
C1351 H1322 0.950 . S
C1351 C1350 1.397 . S
C1351 C1352 1.334 . S
C1352 H1323 0.950 . S
C1352 C1351 1.334 . S
C1352 C1353 1.287 . S
C1353 C1352 1.287 . S
C1353 C1354 1.524 . S
C1353 H1356 0.999 . S
C1354 H1324 0.950 . S
C1354 C1353 1.524 . S
C1354 C1355 1.415 . S
C1355 H1325 0.950 . S
C1355 C1350 1.363 . S
C1355 C1354 1.415 . S
H1356 C1353 0.999 . S
H1357 C1338 0.913 . S
H1358 C1376 0.951 . S
H1359 C1378 0.951 . S
H1360 C1380 0.931 1_655 S
H1361 C1381 0.950 1_655 S
H1362 C1383 0.950 . S
H1363 C1386 0.950 . S
H1364 C1387 0.950 . S
H1365 C1389 0.950 . S
H1366 C1390 0.950 . S
H1367 C1391 0.951 . S
H1368 C1393 0.951 . S
H1369 C1395 0.931 1_455 S
H1370 C1396 0.950 1_455 S
H1371 C1398 0.950 . S
H1372 C1401 0.950 . S
H1373 C1402 0.950 . S
H1374 C1404 0.950 . S
H1375 C1405 0.950 . S
C1376 H1358 0.951 . S
C1376 C1377 1.366 . S
C1376 C1378 1.388 . S
C1377 C1376 1.366 . S
C1377 C1381 1.385 . S
C1378 H1359 0.951 . S
C1378 C1376 1.388 . S
C1378 C1379 1.366 . S
C1379 C1378 1.366 . S
C1379 C1380 1.427 . S
C1379 C1382 1.499 . S
C1380 H1360 0.931 1_455 S
C1380 C1379 1.427 . S
C1380 C1381 1.380 . S
C1381 H1361 0.950 1_455 S
C1381 C1377 1.385 . S
C1381 C1380 1.380 . S
C1382 C1379 1.499 . S
C1382 C1383 1.373 1_455 S
C1382 C1384 1.389 . S
C1383 H1362 0.950 . S
C1383 C1382 1.373 1_655 S
C1383 C1399 1.377 . S
C1384 C1382 1.389 . S
C1384 C1385 1.524 . S
C1384 C1398 1.377 . S
C1385 C1384 1.524 . S
C1385 C1386 1.397 . S
C1385 C1390 1.363 . S
C1386 H1363 0.950 . S
C1386 C1385 1.397 . S
C1386 C1387 1.334 . S
C1387 H1364 0.950 . S
C1387 C1386 1.334 . S
C1387 C1388 1.287 . S
C1388 C1387 1.287 . S
C1388 C1389 1.524 . S
C1388 H1407 0.913 . S
C1389 H1365 0.950 . S
C1389 C1388 1.524 . S
C1389 C1390 1.415 . S
C1390 H1366 0.950 . S
C1390 C1385 1.363 . S
C1390 C1389 1.415 . S
C1391 H1367 0.951 . S
C1391 C1392 1.366 . S
C1391 C1393 1.388 . S
C1392 C1391 1.366 . S
C1392 C1396 1.385 . S
C1393 H1368 0.951 . S
C1393 C1391 1.388 . S
C1393 C1394 1.366 . S
C1394 C1393 1.366 . S
C1394 C1395 1.427 . S
C1394 C1397 1.499 . S
C1395 H1369 0.931 1_655 S
C1395 C1394 1.427 . S
C1395 C1396 1.380 . S
C1396 H1370 0.950 1_655 S
C1396 C1392 1.385 . S
C1396 C1395 1.380 . S
C1397 C1394 1.499 . S
C1397 C1398 1.373 1_655 S
C1397 C1399 1.389 . S
C1398 H1371 0.950 . S
C1398 C1384 1.377 . S
C1398 C1397 1.373 1_455 S
C1399 C1383 1.377 . S
C1399 C1397 1.389 . S
C1399 C1400 1.524 . S
C1400 C1399 1.524 . S
C1400 C1401 1.397 . S
C1400 C1405 1.363 . S
C1401 H1372 0.950 . S
C1401 C1400 1.397 . S
C1401 C1402 1.334 . S
C1402 H1373 0.950 . S
C1402 C1401 1.334 . S
C1402 C1403 1.287 . S
C1403 C1402 1.287 . S
C1403 C1404 1.524 . S
C1403 H1406 0.999 . S
C1404 H1374 0.950 . S
C1404 C1403 1.524 . S
C1404 C1405 1.415 . S
C1405 H1375 0.950 . S
C1405 C1400 1.363 . S
C1405 C1404 1.415 . S
H1406 C1403 0.999 . S
H1407 C1388 0.913 . S
H1408 C1426 0.951 . S
H1409 C1428 0.951 . S
H1410 C1430 0.950 1_455 S
H1411 C1431 0.950 . S
H1412 C1433 0.950 . S
H1413 C1436 0.950 . S
H1414 C1437 0.950 . S
H1415 C1439 0.950 . S
H1416 C1440 0.950 . S
H1417 C1441 0.951 . S
H1418 C1443 0.951 . S
H1419 C1445 0.950 1_655 S
H1420 C1446 0.950 . S
H1421 C1448 0.950 . S
H1422 C1451 0.950 . S
H1423 C1452 0.950 . S
H1424 C1454 0.950 . S
H1425 C1455 0.950 . S
C1426 H1408 0.951 . S
C1426 C1427 1.366 . S
C1426 C1428 1.388 . S
C1427 C1426 1.366 . S
C1427 C1431 1.385 . S
C1428 H1409 0.951 . S
C1428 C1426 1.388 . S
C1428 C1429 1.366 . S
C1429 C1428 1.366 . S
C1429 C1430 1.414 . S
C1429 C1432 1.499 . S
C1430 H1410 0.950 1_655 S
C1430 C1429 1.414 . S
C1430 C1431 1.374 . S
C1431 H1411 0.950 . S
C1431 C1427 1.385 . S
C1431 C1430 1.374 . S
C1432 C1429 1.499 . S
C1432 C1433 1.373 1_655 S
C1432 C1434 1.398 . S
C1433 H1412 0.950 . S
C1433 C1432 1.373 1_455 S
C1433 C1449 1.368 1_566 S
C1434 C1432 1.398 . S
C1434 C1435 1.523 1_565 S
C1434 C1448 1.368 1_566 S
C1435 C1434 1.523 1_545 S
C1435 C1436 1.397 . S
C1435 C1440 1.363 1_546 S
C1436 H1413 0.950 . S
C1436 C1435 1.397 . S
C1436 C1437 1.334 . S
C1437 H1414 0.950 . S
C1437 C1436 1.334 . S
C1437 C1438 1.287 . S
C1438 C1437 1.287 . S
C1438 C1439 1.524 1_546 S
C1438 H1457 0.913 . S
C1439 H1415 0.950 . S
C1439 C1438 1.524 1_564 S
C1439 C1440 1.415 . S
C1440 H1416 0.950 . S
C1440 C1435 1.363 1_564 S
C1440 C1439 1.415 . S
C1441 H1417 0.951 . S
C1441 C1442 1.366 . S
C1441 C1443 1.388 . S
C1442 C1441 1.366 . S
C1442 C1446 1.385 . S
C1443 H1418 0.951 . S
C1443 C1441 1.388 . S
C1443 C1444 1.366 . S
C1444 C1443 1.366 . S
C1444 C1445 1.414 . S
C1444 C1447 1.499 . S
C1445 H1419 0.950 1_455 S
C1445 C1444 1.414 . S
C1445 C1446 1.374 . S
C1446 H1420 0.950 . S
C1446 C1442 1.385 . S
C1446 C1445 1.374 . S
C1447 C1444 1.499 . S
C1447 C1448 1.373 1_455 S
C1447 C1449 1.398 . S
C1448 H1421 0.950 . S
C1448 C1434 1.368 1_544 S
C1448 C1447 1.373 1_655 S
C1449 C1433 1.368 1_544 S
C1449 C1447 1.398 . S
C1449 C1450 1.523 1_545 S
C1450 C1449 1.523 1_565 S
C1450 C1451 1.397 . S
C1450 C1455 1.363 1_564 S
C1451 H1422 0.950 . S
C1451 C1450 1.397 . S
C1451 C1452 1.334 . S
C1452 H1423 0.950 . S
C1452 C1451 1.334 . S
C1452 C1453 1.287 . S
C1453 C1452 1.287 . S
C1453 C1454 1.524 1_564 S
C1453 H1456 0.999 . S
C1454 H1424 0.950 . S
C1454 C1453 1.524 1_546 S
C1454 C1455 1.415 . S
C1455 H1425 0.950 . S
C1455 C1450 1.363 1_546 S
C1455 C1454 1.415 . S
H1456 C1453 0.999 . S
H1457 C1438 0.913 . S
H1458 C1476 0.951 . S
H1459 C1478 0.951 . S
H1460 C1480 0.950 1_565 S
H1461 C1481 0.950 . S
H1462 C1483 0.950 . S
H1463 C1486 0.950 . S
H1464 C1487 0.950 . S
H1465 C1489 0.950 . S
H1466 C1490 0.950 . S
H1467 C1491 0.951 . S
H1468 C1493 0.951 . S
H1469 C1495 0.950 1_545 S
H1470 C1496 0.950 . S
H1471 C1498 0.950 . S
H1472 C1501 0.950 . S
H1473 C1502 0.950 . S
H1474 C1504 0.950 . S
H1475 C1505 0.950 . S
C1476 H1458 0.951 . S
C1476 C1477 1.366 . S
C1476 C1478 1.388 . S
C1477 C1476 1.366 . S
C1477 C1481 1.385 . S
C1478 H1459 0.951 . S
C1478 C1476 1.388 . S
C1478 C1479 1.366 . S
C1479 C1478 1.366 . S
C1479 C1480 1.414 . S
C1479 C1482 1.499 . S
C1480 H1460 0.950 1_545 S
C1480 C1479 1.414 . S
C1480 C1481 1.374 . S
C1481 H1461 0.950 . S
C1481 C1477 1.385 . S
C1481 C1480 1.374 . S
C1482 C1479 1.499 . S
C1482 C1483 1.373 1_545 S
C1482 C1484 1.345 1_556 S
C1483 H1462 0.950 . S
C1483 C1482 1.373 1_565 S
C1483 C1499 1.419 . S
C1484 C1482 1.345 1_554 S
C1484 C1485 1.530 . S
C1484 C1498 1.419 . S
C1485 C1484 1.530 . S
C1485 C1486 1.397 1_554 S
C1485 C1490 1.363 . S
C1486 H1463 0.950 . S
C1486 C1485 1.397 1_556 S
C1486 C1487 1.334 . S
C1487 H1464 0.950 . S
C1487 C1486 1.334 . S
C1487 C1488 1.287 1_556 S
C1488 C1487 1.287 1_554 S
C1488 C1489 1.524 . S
C1488 H1507 0.913 . S
C1489 H1465 0.950 . S
C1489 C1488 1.524 . S
C1489 C1490 1.415 . S
C1490 H1466 0.950 . S
C1490 C1485 1.363 . S
C1490 C1489 1.415 . S
C1491 H1467 0.951 . S
C1491 C1492 1.366 . S
C1491 C1493 1.388 . S
C1492 C1491 1.366 . S
C1492 C1496 1.385 . S
C1493 H1468 0.951 . S
C1493 C1491 1.388 . S
C1493 C1494 1.366 . S
C1494 C1493 1.366 . S
C1494 C1495 1.414 . S
C1494 C1497 1.499 . S
C1495 H1469 0.950 1_565 S
C1495 C1494 1.414 . S
C1495 C1496 1.374 . S
C1496 H1470 0.950 . S
C1496 C1492 1.385 . S
C1496 C1495 1.374 . S
C1497 C1494 1.499 . S
C1497 C1498 1.373 1_565 S
C1497 C1499 1.345 1_554 S
C1498 H1471 0.950 . S
C1498 C1484 1.419 . S
C1498 C1497 1.373 1_545 S
C1499 C1483 1.419 . S
C1499 C1497 1.345 1_556 S
C1499 C1500 1.530 . S
C1500 C1499 1.530 . S
C1500 C1501 1.397 1_556 S
C1500 C1505 1.363 . S
C1501 H1472 0.950 . S
C1501 C1500 1.397 1_554 S
C1501 C1502 1.334 . S
C1502 H1473 0.950 . S
C1502 C1501 1.334 . S
C1502 C1503 1.287 1_554 S
C1503 C1502 1.287 1_556 S
C1503 C1504 1.524 . S
C1503 H1506 0.999 . S
C1504 H1474 0.950 . S
C1504 C1503 1.524 . S
C1504 C1505 1.415 . S
C1505 H1475 0.950 . S
C1505 C1500 1.363 . S
C1505 C1504 1.415 . S
H1506 C1503 0.999 . S
H1507 C1488 0.913 . S
H1508 C1526 0.951 . S
H1509 C1528 0.951 . S
H1510 C1530 0.950 . S
H1511 C1531 0.950 . S
H1512 C1533 0.950 . S
H1513 C1536 0.950 . S
H1514 C1537 0.950 . S
H1515 C1539 0.950 . S
H1516 C1540 0.950 . S
H1517 C1541 0.951 . S
H1518 C1543 0.951 . S
H1519 C1545 0.950 . S
H1520 C1546 0.950 . S
H1521 C1548 0.950 . S
H1522 C1551 0.950 . S
H1523 C1552 0.950 . S
H1524 C1554 0.950 . S
H1525 C1555 0.950 . S
C1526 H1508 0.951 . S
C1526 C1527 1.366 . S
C1526 C1528 1.388 . S
C1527 C1526 1.366 . S
C1527 C1531 1.385 . S
C1528 H1509 0.951 . S
C1528 C1526 1.388 . S
C1528 C1529 1.366 . S
C1529 C1528 1.366 . S
C1529 C1530 1.414 . S
C1529 C1532 1.499 . S
C1530 H1510 0.950 . S
C1530 C1529 1.414 . S
C1530 C1531 1.374 . S
C1531 H1511 0.950 . S
C1531 C1527 1.385 . S
C1531 C1530 1.374 . S
C1532 C1529 1.499 . S
C1532 C1533 1.373 1_545 S
C1532 C1534 1.389 . S
C1533 H1512 0.950 . S
C1533 C1532 1.373 1_565 S
C1533 C1549 1.377 . S
C1534 C1532 1.389 . S
C1534 C1535 1.524 . S
C1534 C1548 1.377 . S
C1535 C1534 1.524 . S
C1535 C1536 1.397 . S
C1535 C1540 1.363 . S
C1536 H1513 0.950 . S
C1536 C1535 1.397 . S
C1536 C1537 1.334 . S
C1537 H1514 0.950 . S
C1537 C1536 1.334 . S
C1537 C1538 1.287 . S
C1538 C1537 1.287 . S
C1538 C1539 1.524 . S
C1538 H1557 0.913 . S
C1539 H1515 0.950 . S
C1539 C1538 1.524 . S
C1539 C1540 1.415 . S
C1540 H1516 0.950 . S
C1540 C1535 1.363 . S
C1540 C1539 1.415 . S
C1541 H1517 0.951 . S
C1541 C1542 1.366 . S
C1541 C1543 1.388 . S
C1542 C1541 1.366 . S
C1542 C1546 1.385 . S
C1543 H1518 0.951 . S
C1543 C1541 1.388 . S
C1543 C1544 1.366 . S
C1544 C1543 1.366 . S
C1544 C1545 1.414 . S
C1544 C1547 1.499 . S
C1545 H1519 0.950 . S
C1545 C1544 1.414 . S
C1545 C1546 1.374 . S
C1546 H1520 0.950 . S
C1546 C1542 1.385 . S
C1546 C1545 1.374 . S
C1547 C1544 1.499 . S
C1547 C1548 1.373 1_565 S
C1547 C1549 1.389 . S
C1548 H1521 0.950 . S
C1548 C1534 1.377 . S
C1548 C1547 1.373 1_545 S
C1549 C1533 1.377 . S
C1549 C1547 1.389 . S
C1549 C1550 1.524 . S
C1550 C1549 1.524 . S
C1550 C1551 1.397 . S
C1550 C1555 1.363 . S
C1551 H1522 0.950 . S
C1551 C1550 1.397 . S
C1551 C1552 1.334 . S
C1552 H1523 0.950 . S
C1552 C1551 1.334 . S
C1552 C1553 1.287 . S
C1553 C1552 1.287 . S
C1553 C1554 1.524 . S
C1553 H1556 0.999 . S
C1554 H1524 0.950 . S
C1554 C1553 1.524 . S
C1554 C1555 1.415 . S
C1555 H1525 0.950 . S
C1555 C1550 1.363 . S
C1555 C1554 1.415 . S
H1556 C1553 0.999 . S
H1557 C1538 0.913 . S
H1558 C1576 0.951 1_655 S
H1559 C1578 0.947 . S
H1560 C1580 0.950 . S
H1561 C1581 0.950 . S
H1562 C1583 0.950 . S
H1563 C1586 0.950 1_455 S
H1564 C1587 0.950 . S
H1565 C1589 0.950 . S
H1566 C1590 0.950 . S
H1567 C1591 0.951 1_455 S
H1568 C1593 0.947 . S
H1569 C1595 0.950 . S
H1570 C1596 0.950 . S
H1571 C1598 0.950 . S
H1572 C1601 0.950 1_655 S
H1573 C1602 0.950 . S
H1574 C1604 0.950 . S
H1575 C1605 0.950 . S
C1576 H1558 0.951 1_455 S
C1576 C1577 1.366 . S
C1576 C1578 1.389 1_455 S
C1577 C1576 1.366 . S
C1577 C1581 1.385 . S
C1578 H1559 0.947 . S
C1578 C1576 1.389 1_655 S
C1578 C1579 1.368 1_655 S
C1579 C1578 1.368 1_455 S
C1579 C1580 1.414 . S
C1579 C1582 1.499 . S
C1580 H1560 0.950 . S
C1580 C1579 1.414 . S
C1580 C1581 1.374 . S
C1581 H1561 0.950 . S
C1581 C1577 1.385 . S
C1581 C1580 1.374 . S
C1582 C1579 1.499 . S
C1582 C1583 1.373 1_565 S
C1582 C1584 1.389 1_455 S
C1583 H1562 0.950 . S
C1583 C1582 1.373 1_545 S
C1583 C1599 1.377 . S
C1584 C1582 1.389 1_655 S
C1584 C1585 1.524 . S
C1584 C1598 1.377 . S
C1585 C1584 1.524 . S
C1585 C1586 1.397 . S
C1585 C1590 1.363 . S
C1586 H1563 0.950 1_655 S
C1586 C1585 1.397 . S
C1586 C1587 1.334 . S
C1587 H1564 0.950 . S
C1587 C1586 1.334 . S
C1587 C1588 1.287 . S
C1588 C1587 1.287 . S
C1588 C1589 1.524 . S
C1588 H1607 0.913 . S
C1589 H1565 0.950 . S
C1589 C1588 1.524 . S
C1589 C1590 1.415 . S
C1590 H1566 0.950 . S
C1590 C1585 1.363 . S
C1590 C1589 1.415 . S
C1591 H1567 0.951 1_655 S
C1591 C1592 1.366 . S
C1591 C1593 1.389 1_655 S
C1592 C1591 1.366 . S
C1592 C1596 1.385 . S
C1593 H1568 0.947 . S
C1593 C1591 1.389 1_455 S
C1593 C1594 1.368 1_455 S
C1594 C1593 1.368 1_655 S
C1594 C1595 1.414 . S
C1594 C1597 1.499 . S
C1595 H1569 0.950 . S
C1595 C1594 1.414 . S
C1595 C1596 1.374 . S
C1596 H1570 0.950 . S
C1596 C1592 1.385 . S
C1596 C1595 1.374 . S
C1597 C1594 1.499 . S
C1597 C1598 1.373 1_545 S
C1597 C1599 1.389 1_655 S
C1598 H1571 0.950 . S
C1598 C1584 1.377 . S
C1598 C1597 1.373 1_565 S
C1599 C1583 1.377 . S
C1599 C1597 1.389 1_455 S
C1599 C1600 1.524 . S
C1600 C1599 1.524 . S
C1600 C1601 1.397 . S
C1600 C1605 1.363 . S
C1601 H1572 0.950 1_455 S
C1601 C1600 1.397 . S
C1601 C1602 1.334 . S
C1602 H1573 0.950 . S
C1602 C1601 1.334 . S
C1602 C1603 1.287 . S
C1603 C1602 1.287 . S
C1603 C1604 1.524 . S
C1603 H1606 0.999 . S
C1604 H1574 0.950 . S
C1604 C1603 1.524 . S
C1604 C1605 1.415 . S
C1605 H1575 0.950 . S
C1605 C1600 1.363 . S
C1605 C1604 1.415 . S
H1606 C1603 0.999 . S
H1607 C1588 0.913 . S
H1608 C1626 0.951 . S
H1609 C1628 0.951 . S
H1610 C1630 0.950 . S
H1611 C1631 0.950 . S
H1612 C1633 0.950 . S
H1613 C1636 0.950 . S
H1614 C1637 0.950 . S
H1615 C1639 0.950 . S
H1616 C1640 0.950 . S
H1617 C1641 0.951 . S
H1618 C1643 0.951 . S
H1619 C1645 0.950 . S
H1620 C1646 0.950 . S
H1621 C1648 0.950 . S
H1622 C1651 0.950 . S
H1623 C1652 0.950 . S
H1624 C1654 0.950 . S
H1625 C1655 0.950 . S
C1626 H1608 0.951 . S
C1626 C1627 1.366 . S
C1626 C1628 1.388 . S
C1627 C1626 1.366 . S
C1627 C1631 1.385 . S
C1628 H1609 0.951 . S
C1628 C1626 1.388 . S
C1628 C1629 1.366 . S
C1629 C1628 1.366 . S
C1629 C1630 1.414 . S
C1629 C1632 1.499 . S
C1630 H1610 0.950 . S
C1630 C1629 1.414 . S
C1630 C1631 1.374 . S
C1631 H1611 0.950 . S
C1631 C1627 1.385 . S
C1631 C1630 1.374 . S
C1632 C1629 1.499 . S
C1632 C1633 1.373 . S
C1632 C1634 1.389 . S
C1633 H1612 0.950 . S
C1633 C1632 1.373 . S
C1633 C1649 1.377 1_554 S
C1634 C1632 1.389 . S
C1634 C1635 1.524 . S
C1634 C1648 1.377 1_554 S
C1635 C1634 1.524 . S
C1635 C1636 1.397 . S
C1635 C1640 1.363 . S
C1636 H1613 0.950 . S
C1636 C1635 1.397 . S
C1636 C1637 1.334 . S
C1637 H1614 0.950 . S
C1637 C1636 1.334 . S
C1637 C1638 1.287 . S
C1638 C1637 1.287 . S
C1638 C1639 1.524 . S
C1638 H1657 0.913 . S
C1639 H1615 0.950 . S
C1639 C1638 1.524 . S
C1639 C1640 1.415 . S
C1640 H1616 0.950 . S
C1640 C1635 1.363 . S
C1640 C1639 1.415 . S
C1641 H1617 0.951 . S
C1641 C1642 1.366 . S
C1641 C1643 1.388 . S
C1642 C1641 1.366 . S
C1642 C1646 1.385 . S
C1643 H1618 0.951 . S
C1643 C1641 1.388 . S
C1643 C1644 1.366 . S
C1644 C1643 1.366 . S
C1644 C1645 1.414 . S
C1644 C1647 1.499 . S
C1645 H1619 0.950 . S
C1645 C1644 1.414 . S
C1645 C1646 1.374 . S
C1646 H1620 0.950 . S
C1646 C1642 1.385 . S
C1646 C1645 1.374 . S
C1647 C1644 1.499 . S
C1647 C1648 1.373 . S
C1647 C1649 1.389 . S
C1648 H1621 0.950 . S
C1648 C1634 1.377 1_556 S
C1648 C1647 1.373 . S
C1649 C1633 1.377 1_556 S
C1649 C1647 1.389 . S
C1649 C1650 1.524 . S
C1650 C1649 1.524 . S
C1650 C1651 1.397 . S
C1650 C1655 1.363 . S
C1651 H1622 0.950 . S
C1651 C1650 1.397 . S
C1651 C1652 1.334 . S
C1652 H1623 0.950 . S
C1652 C1651 1.334 . S
C1652 C1653 1.287 . S
C1653 C1652 1.287 . S
C1653 C1654 1.524 . S
C1653 H1656 0.999 . S
C1654 H1624 0.950 . S
C1654 C1653 1.524 . S
C1654 C1655 1.415 . S
C1655 H1625 0.950 . S
C1655 C1650 1.363 . S
C1655 C1654 1.415 . S
H1656 C1653 0.999 . S
H1657 C1638 0.913 . S
H1658 C1676 0.951 . S
H1659 C1678 0.951 . S
H1660 C1680 0.950 . S
H1661 C1681 0.950 1_455 S
H1662 C1683 0.950 . S
H1663 C1686 0.947 1_554 S
H1664 C1687 0.950 1_554 S
H1665 C1689 0.950 . S
H1666 C1690 0.950 . S
H1667 C1691 0.951 . S
H1668 C1693 0.951 . S
H1669 C1695 0.950 . S
H1670 C1696 0.950 1_655 S
H1671 C1698 0.950 . S
H1672 C1701 0.947 1_556 S
H1673 C1702 0.950 1_556 S
H1674 C1704 0.950 . S
H1675 C1705 0.950 . S
C1676 H1658 0.951 . S
C1676 C1677 1.366 . S
C1676 C1678 1.388 . S
C1677 C1676 1.366 . S
C1677 C1681 1.385 . S
C1678 H1659 0.951 . S
C1678 C1676 1.388 . S
C1678 C1679 1.366 . S
C1679 C1678 1.366 . S
C1679 C1680 1.414 1_655 S
C1679 C1682 1.499 . S
C1680 H1660 0.950 . S
C1680 C1679 1.414 1_455 S
C1680 C1681 1.374 1_455 S
C1681 H1661 0.950 1_655 S
C1681 C1677 1.385 . S
C1681 C1680 1.374 1_655 S
C1682 C1679 1.499 . S
C1682 C1683 1.373 1_655 S
C1682 C1684 1.389 1_554 S
C1683 H1662 0.950 . S
C1683 C1682 1.373 1_455 S
C1683 C1699 1.377 . S
C1684 C1682 1.389 1_556 S
C1684 C1685 1.524 . S
C1684 C1698 1.377 . S
C1685 C1684 1.524 . S
C1685 C1686 1.398 . S
C1685 C1690 1.363 . S
C1686 H1663 0.947 1_556 S
C1686 C1685 1.398 . S
C1686 C1687 1.335 . S
C1687 H1664 0.950 1_556 S
C1687 C1686 1.335 . S
C1687 C1688 1.287 . S
C1688 C1687 1.287 . S
C1688 C1689 1.524 . S
C1688 H1707 0.913 . S
C1689 H1665 0.950 . S
C1689 C1688 1.524 . S
C1689 C1690 1.415 . S
C1690 H1666 0.950 . S
C1690 C1685 1.363 . S
C1690 C1689 1.415 . S
C1691 H1667 0.951 . S
C1691 C1692 1.366 . S
C1691 C1693 1.388 . S
C1692 C1691 1.366 . S
C1692 C1696 1.385 . S
C1693 H1668 0.951 . S
C1693 C1691 1.388 . S
C1693 C1694 1.366 . S
C1694 C1693 1.366 . S
C1694 C1695 1.414 1_455 S
C1694 C1697 1.499 . S
C1695 H1669 0.950 . S
C1695 C1694 1.414 1_655 S
C1695 C1696 1.374 1_655 S
C1696 H1670 0.950 1_455 S
C1696 C1692 1.385 . S
C1696 C1695 1.374 1_455 S
C1697 C1694 1.499 . S
C1697 C1698 1.373 1_455 S
C1697 C1699 1.389 1_556 S
C1698 H1671 0.950 . S
C1698 C1684 1.377 . S
C1698 C1697 1.373 1_655 S
C1699 C1683 1.377 . S
C1699 C1697 1.389 1_554 S
C1699 C1700 1.524 . S
C1700 C1699 1.524 . S
C1700 C1701 1.398 . S
C1700 C1705 1.363 . S
C1701 H1672 0.947 1_554 S
C1701 C1700 1.398 . S
C1701 C1702 1.335 . S
C1702 H1673 0.950 1_554 S
C1702 C1701 1.335 . S
C1702 C1703 1.287 . S
C1703 C1702 1.287 . S
C1703 C1704 1.524 . S
C1703 H1706 0.999 . S
C1704 H1674 0.950 . S
C1704 C1703 1.524 . S
C1704 C1705 1.415 . S
C1705 H1675 0.950 . S
C1705 C1700 1.363 . S
C1705 C1704 1.415 . S
H1706 C1703 0.999 . S
H1707 C1688 0.913 . S
H1708 C1726 0.951 . S
H1709 C1728 0.951 . S
H1710 C1730 0.964 . S
H1711 C1731 0.950 1_455 S
H1712 C1733 0.950 . S
H1713 C1736 0.950 1_455 S
H1714 C1737 0.950 . S
H1715 C1739 0.950 . S
H1716 C1740 0.950 . S
H1717 C1741 0.951 . S
H1718 C1743 0.951 . S
H1719 C1745 0.964 . S
H1720 C1746 0.950 1_655 S
H1721 C1748 0.950 . S
H1722 C1751 0.950 1_655 S
H1723 C1752 0.950 . S
H1724 C1754 0.950 . S
H1725 C1755 0.950 . S
C1726 H1708 0.951 . S
C1726 C1727 1.366 . S
C1726 C1728 1.388 . S
C1727 C1726 1.366 . S
C1727 C1731 1.385 . S
C1728 H1709 0.951 . S
C1728 C1726 1.388 . S
C1728 C1729 1.366 . S
C1729 C1728 1.366 . S
C1729 C1730 1.405 1_655 S
C1729 C1732 1.499 . S
C1730 H1710 0.964 . S
C1730 C1729 1.405 1_455 S
C1730 C1731 1.369 1_455 S
C1731 H1711 0.950 1_655 S
C1731 C1727 1.385 . S
C1731 C1730 1.369 1_655 S
C1732 C1729 1.499 . S
C1732 C1733 1.373 1_655 S
C1732 C1734 1.389 . S
C1733 H1712 0.950 . S
C1733 C1732 1.373 1_455 S
C1733 C1749 1.377 . S
C1734 C1732 1.389 . S
C1734 C1735 1.524 . S
C1734 C1748 1.377 . S
C1735 C1734 1.524 . S
C1735 C1736 1.397 . S
C1735 C1740 1.363 . S
C1736 H1713 0.950 1_655 S
C1736 C1735 1.397 . S
C1736 C1737 1.334 . S
C1737 H1714 0.950 . S
C1737 C1736 1.334 . S
C1737 C1738 1.287 . S
C1738 C1737 1.287 . S
C1738 C1739 1.524 . S
C1738 H1757 0.913 . S
C1739 H1715 0.950 . S
C1739 C1738 1.524 . S
C1739 C1740 1.415 . S
C1740 H1716 0.950 . S
C1740 C1735 1.363 . S
C1740 C1739 1.415 . S
C1741 H1717 0.951 . S
C1741 C1742 1.366 . S
C1741 C1743 1.388 . S
C1742 C1741 1.366 . S
C1742 C1746 1.385 . S
C1743 H1718 0.951 . S
C1743 C1741 1.388 . S
C1743 C1744 1.366 . S
C1744 C1743 1.366 . S
C1744 C1745 1.405 1_455 S
C1744 C1747 1.499 . S
C1745 H1719 0.964 . S
C1745 C1744 1.405 1_655 S
C1745 C1746 1.369 1_655 S
C1746 H1720 0.950 1_455 S
C1746 C1742 1.385 . S
C1746 C1745 1.369 1_455 S
C1747 C1744 1.499 . S
C1747 C1748 1.373 1_455 S
C1747 C1749 1.389 . S
C1748 H1721 0.950 . S
C1748 C1734 1.377 . S
C1748 C1747 1.373 1_655 S
C1749 C1733 1.377 . S
C1749 C1747 1.389 . S
C1749 C1750 1.524 . S
C1750 C1749 1.524 . S
C1750 C1751 1.397 . S
C1750 C1755 1.363 . S
C1751 H1722 0.950 1_455 S
C1751 C1750 1.397 . S
C1751 C1752 1.334 . S
C1752 H1723 0.950 . S
C1752 C1751 1.334 . S
C1752 C1753 1.287 . S
C1753 C1752 1.287 . S
C1753 C1754 1.524 . S
C1753 H1756 0.999 . S
C1754 H1724 0.950 . S
C1754 C1753 1.524 . S
C1754 C1755 1.415 . S
C1755 H1725 0.950 . S
C1755 C1750 1.363 . S
C1755 C1754 1.415 . S
H1756 C1753 0.999 . S
H1757 C1738 0.913 . S
H1758 C1776 0.951 . S
H1759 C1778 0.951 . S
H1760 C1780 0.950 . S
H1761 C1781 0.950 . S
H1762 C1783 0.950 . S
H1763 C1786 0.950 . S
H1764 C1787 0.950 . S
H1765 C1789 0.950 . S
H1766 C1790 0.950 . S
H1767 C1791 0.951 . S
H1768 C1793 0.951 . S
H1769 C1795 0.950 . S
H1770 C1796 0.950 . S
H1771 C1798 0.950 . S
H1772 C1801 0.950 . S
H1773 C1802 0.950 . S
H1774 C1804 0.950 . S
H1775 C1805 0.950 . S
C1776 H1758 0.951 . S
C1776 C1777 1.366 . S
C1776 C1778 1.388 . S
C1777 C1776 1.366 . S
C1777 C1781 1.385 . S
C1778 H1759 0.951 . S
C1778 C1776 1.388 . S
C1778 C1779 1.366 . S
C1779 C1778 1.366 . S
C1779 C1780 1.414 . S
C1779 C1782 1.499 . S
C1780 H1760 0.950 . S
C1780 C1779 1.414 . S
C1780 C1781 1.374 . S
C1781 H1761 0.950 . S
C1781 C1777 1.385 . S
C1781 C1780 1.374 . S
C1782 C1779 1.499 . S
C1782 C1783 1.373 . S
C1782 C1784 1.389 . S
C1783 H1762 0.950 . S
C1783 C1782 1.373 . S
C1783 C1799 1.377 . S
C1784 C1782 1.389 . S
C1784 C1785 1.524 . S
C1784 C1798 1.377 . S
C1785 C1784 1.524 . S
C1785 C1786 1.397 . S
C1785 C1790 1.363 . S
C1786 H1763 0.950 . S
C1786 C1785 1.397 . S
C1786 C1787 1.334 . S
C1787 H1764 0.950 . S
C1787 C1786 1.334 . S
C1787 C1788 1.287 . S
C1788 C1787 1.287 . S
C1788 C1789 1.524 . S
C1788 H1807 0.913 . S
C1789 H1765 0.950 . S
C1789 C1788 1.524 . S
C1789 C1790 1.415 . S
C1790 H1766 0.950 . S
C1790 C1785 1.363 . S
C1790 C1789 1.415 . S
C1791 H1767 0.951 . S
C1791 C1792 1.366 . S
C1791 C1793 1.388 . S
C1792 C1791 1.366 . S
C1792 C1796 1.385 . S
C1793 H1768 0.951 . S
C1793 C1791 1.388 . S
C1793 C1794 1.366 . S
C1794 C1793 1.366 . S
C1794 C1795 1.414 . S
C1794 C1797 1.499 . S
C1795 H1769 0.950 . S
C1795 C1794 1.414 . S
C1795 C1796 1.374 . S
C1796 H1770 0.950 . S
C1796 C1792 1.385 . S
C1796 C1795 1.374 . S
C1797 C1794 1.499 . S
C1797 C1798 1.373 . S
C1797 C1799 1.389 . S
C1798 H1771 0.950 . S
C1798 C1784 1.377 . S
C1798 C1797 1.373 . S
C1799 C1783 1.377 . S
C1799 C1797 1.389 . S
C1799 C1800 1.524 . S
C1800 C1799 1.524 . S
C1800 C1801 1.397 . S
C1800 C1805 1.363 . S
C1801 H1772 0.950 . S
C1801 C1800 1.397 . S
C1801 C1802 1.334 . S
C1802 H1773 0.950 . S
C1802 C1801 1.334 . S
C1802 C1803 1.287 . S
C1803 C1802 1.287 . S
C1803 C1804 1.524 . S
C1803 H1806 0.999 . S
C1804 H1774 0.950 . S
C1804 C1803 1.524 . S
C1804 C1805 1.415 . S
C1805 H1775 0.950 . S
C1805 C1800 1.363 . S
C1805 C1804 1.415 . S
H1806 C1803 0.999 . S
H1807 C1788 0.913 . S
C227 C23 1.508 . S
C242 C10 1.508 . S
C277 C30 1.508 . S
C292 C43 1.508 . S
C327 C56 1.508 . S
C342 C75 1.508 . S
C377 C95 1.508 . S
C392 C82 1.508 . S
C427 C127 1.508 . S
C442 C114 1.507 . S
C477 C147 1.508 . S
C492 C134 1.508 . S
C527 C179 1.508 . S
C542 C166 1.508 . S
C577 C199 1.508 . S
C592 C186 1.508 . S
C627 C42 1.528 . S
C642 C5 1.528 . S
C677 C18 1.528 . S
C692 C29 1.528 . S
C727 C94 1.528 . S
C742 C55 1.528 . S
C777 C81 1.528 . S
C792 C70 1.528 . S
C827 C109 1.528 . S
C842 C146 1.528 . S
C877 C133 1.528 . S
C892 C122 1.528 . S
C927 C198 1.528 . S
C942 C161 1.528 . S
C977 C174 1.528 . S
C992 C185 1.528 . S
C1027 C3 1.441 . S
C1042 C120 1.441 . S
C1077 C16 1.441 . S
C1092 C107 1.441 . S
C1127 C148 1.441 . S
C1142 C31 1.441 . S
C1177 C135 1.441 . S
C1192 C44 1.441 . S
C1227 C172 1.441 . S
C1242 C57 1.441 . S
C1277 C159 1.441 . S
C1292 C68 1.441 . S
C1327 C83 1.441 . S
C1342 C200 1.441 . S
C1377 C96 1.441 . S
C1392 C187 1.441 . S
C1427 C62 1.539 . S
C1442 C4 1.539 . S
C1477 C69 1.539 . S
C1492 C17 1.539 . S
C1527 C88 1.539 . S
C1542 C36 1.539 . S
C1577 C101 1.539 . S
C1592 C49 1.539 . S
C1627 C108 1.539 . S
C1642 C160 1.539 . S
C1677 C121 1.539 . S
C1692 C173 1.539 . S
C1727 C192 1.539 . S
C1742 C140 1.539 . S
C1777 C205 1.539 . S
C1792 C153 1.539 . S
