# Generated by pormake.
# Topology cbo, (4)-cn, num edge types: 1
# Building blocks:
#     Node 0, Type 0, BuildingBlock: GALJAG_clean_sbu_0, # of connection points: 4
#     Node 1, Type 0, BuildingBlock: GALJAG_clean_sbu_0, # of connection points: 4
#     Node 2, Type 0, BuildingBlock: GALJAG_clean_sbu_0, # of connection points: 4
#     Node 3, Type 0, BuildingBlock: GALJAG_clean_sbu_0, # of connection points: 4
#     Node 4, Type 0, BuildingBlock: GALJAG_clean_sbu_0, # of connection points: 4
#     Node 5, Type 0, BuildingBlock: GALJAG_clean_sbu_0, # of connection points: 4
#     Node 6, Type 0, BuildingBlock: GALJAG_clean_sbu_0, # of connection points: 4
#     Node 7, Type 0, BuildingBlock: GALJAG_clean_sbu_0, # of connection points: 4
#     Node 8, Type 0, BuildingBlock: GALJAG_clean_sbu_0, # of connection points: 4
#     Node 9, Type 0, BuildingBlock: GALJAG_clean_sbu_0, # of connection points: 4
#     Node 10, Type 0, BuildingBlock: GALJAG_clean_sbu_0, # of connection points: 4
#     Node 11, Type 0, BuildingBlock: GALJAG_clean_sbu_0, # of connection points: 4
#     Node 12, Type 0, BuildingBlock: GALJAG_clean_sbu_0, # of connection points: 4
#     Node 13, Type 0, BuildingBlock: GALJAG_clean_sbu_0, # of connection points: 4
#     Node 14, Type 0, BuildingBlock: GALJAG_clean_sbu_0, # of connection points: 4
#     Node 15, Type 0, BuildingBlock: GALJAG_clean_sbu_0, # of connection points: 4
#     Node 16, Type 0, BuildingBlock: GALJAG_clean_sbu_0, # of connection points: 4
#     Node 17, Type 0, BuildingBlock: GALJAG_clean_sbu_0, # of connection points: 4
#     Node 18, Type 0, BuildingBlock: GALJAG_clean_sbu_0, # of connection points: 4
#     Node 19, Type 0, BuildingBlock: GALJAG_clean_sbu_0, # of connection points: 4
#     Node 20, Type 0, BuildingBlock: GALJAG_clean_sbu_0, # of connection points: 4
#     Node 21, Type 0, BuildingBlock: GALJAG_clean_sbu_0, # of connection points: 4
#     Node 22, Type 0, BuildingBlock: GALJAG_clean_sbu_0, # of connection points: 4
#     Node 23, Type 0, BuildingBlock: GALJAG_clean_sbu_0, # of connection points: 4
#     Edge 24, Type (0, 0), BuildingBlock: CIFDUS_clean_linker_0, # of connection points: 2
#     Edge 25, Type (0, 0), BuildingBlock: CIFDUS_clean_linker_0, # of connection points: 2
#     Edge 26, Type (0, 0), BuildingBlock: CIFDUS_clean_linker_0, # of connection points: 2
#     Edge 27, Type (0, 0), BuildingBlock: CIFDUS_clean_linker_0, # of connection points: 2
#     Edge 28, Type (0, 0), BuildingBlock: CIFDUS_clean_linker_0, # of connection points: 2
#     Edge 29, Type (0, 0), BuildingBlock: CIFDUS_clean_linker_0, # of connection points: 2
#     Edge 30, Type (0, 0), BuildingBlock: CIFDUS_clean_linker_0, # of connection points: 2
#     Edge 31, Type (0, 0), BuildingBlock: CIFDUS_clean_linker_0, # of connection points: 2
#     Edge 32, Type (0, 0), BuildingBlock: CIFDUS_clean_linker_0, # of connection points: 2
#     Edge 33, Type (0, 0), BuildingBlock: CIFDUS_clean_linker_0, # of connection points: 2
#     Edge 34, Type (0, 0), BuildingBlock: CIFDUS_clean_linker_0, # of connection points: 2
#     Edge 35, Type (0, 0), BuildingBlock: CIFDUS_clean_linker_0, # of connection points: 2
#     Edge 36, Type (0, 0), BuildingBlock: CIFDUS_clean_linker_0, # of connection points: 2
#     Edge 37, Type (0, 0), BuildingBlock: CIFDUS_clean_linker_0, # of connection points: 2
#     Edge 38, Type (0, 0), BuildingBlock: CIFDUS_clean_linker_0, # of connection points: 2
#     Edge 39, Type (0, 0), BuildingBlock: CIFDUS_clean_linker_0, # of connection points: 2
#     Edge 40, Type (0, 0), BuildingBlock: CIFDUS_clean_linker_0, # of connection points: 2
#     Edge 41, Type (0, 0), BuildingBlock: CIFDUS_clean_linker_0, # of connection points: 2
#     Edge 42, Type (0, 0), BuildingBlock: CIFDUS_clean_linker_0, # of connection points: 2
#     Edge 43, Type (0, 0), BuildingBlock: CIFDUS_clean_linker_0, # of connection points: 2
#     Edge 44, Type (0, 0), BuildingBlock: CIFDUS_clean_linker_0, # of connection points: 2
#     Edge 45, Type (0, 0), BuildingBlock: CIFDUS_clean_linker_0, # of connection points: 2
#     Edge 46, Type (0, 0), BuildingBlock: CIFDUS_clean_linker_0, # of connection points: 2
#     Edge 47, Type (0, 0), BuildingBlock: CIFDUS_clean_linker_0, # of connection points: 2
#     Edge 48, Type (0, 0), BuildingBlock: CIFDUS_clean_linker_0, # of connection points: 2
#     Edge 49, Type (0, 0), BuildingBlock: CIFDUS_clean_linker_0, # of connection points: 2
#     Edge 50, Type (0, 0), BuildingBlock: CIFDUS_clean_linker_0, # of connection points: 2
#     Edge 51, Type (0, 0), BuildingBlock: CIFDUS_clean_linker_0, # of connection points: 2
#     Edge 52, Type (0, 0), BuildingBlock: CIFDUS_clean_linker_0, # of connection points: 2
#     Edge 53, Type (0, 0), BuildingBlock: CIFDUS_clean_linker_0, # of connection points: 2
#     Edge 54, Type (0, 0), BuildingBlock: CIFDUS_clean_linker_0, # of connection points: 2
#     Edge 55, Type (0, 0), BuildingBlock: CIFDUS_clean_linker_0, # of connection points: 2
#     Edge 56, Type (0, 0), BuildingBlock: CIFDUS_clean_linker_0, # of connection points: 2
#     Edge 57, Type (0, 0), BuildingBlock: CIFDUS_clean_linker_0, # of connection points: 2
#     Edge 58, Type (0, 0), BuildingBlock: CIFDUS_clean_linker_0, # of connection points: 2
#     Edge 59, Type (0, 0), BuildingBlock: CIFDUS_clean_linker_0, # of connection points: 2
#     Edge 60, Type (0, 0), BuildingBlock: CIFDUS_clean_linker_0, # of connection points: 2
#     Edge 61, Type (0, 0), BuildingBlock: CIFDUS_clean_linker_0, # of connection points: 2
#     Edge 62, Type (0, 0), BuildingBlock: CIFDUS_clean_linker_0, # of connection points: 2
#     Edge 63, Type (0, 0), BuildingBlock: CIFDUS_clean_linker_0, # of connection points: 2
#     Edge 64, Type (0, 0), BuildingBlock: CIFDUS_clean_linker_0, # of connection points: 2
#     Edge 65, Type (0, 0), BuildingBlock: CIFDUS_clean_linker_0, # of connection points: 2
#     Edge 66, Type (0, 0), BuildingBlock: CIFDUS_clean_linker_0, # of connection points: 2
#     Edge 67, Type (0, 0), BuildingBlock: CIFDUS_clean_linker_0, # of connection points: 2
#     Edge 68, Type (0, 0), BuildingBlock: CIFDUS_clean_linker_0, # of connection points: 2
#     Edge 69, Type (0, 0), BuildingBlock: CIFDUS_clean_linker_0, # of connection points: 2
#     Edge 70, Type (0, 0), BuildingBlock: CIFDUS_clean_linker_0, # of connection points: 2
#     Edge 71, Type (0, 0), BuildingBlock: CIFDUS_clean_linker_0, # of connection points: 2
# Relax obj value: 0.104
# Max RMSD: 0.141
# Mean RMSD: 0.141
data_MOF--net-cbo--node1-GALJAG_clean_sbu_0--edge1-CIFDUS_clean_linker_0
_symmetry_space_group_name_H-M    P1
_symmetry_Int_Tables_number       1
_symmetry_cell_setting            triclinic
loop_
_symmetry_equiv_pos_as_xyz
'x, y, z'
_cell_length_a     46.067234
_cell_length_b     45.941203
_cell_length_c     46.048559
_cell_angle_alpha  89.975012
_cell_angle_beta   89.981344
_cell_angle_gamma 89.903397
loop_
_atom_site_label
_atom_site_type_symbol
_atom_site_fract_x
_atom_site_fract_y
_atom_site_fract_z
_atom_type_partial_charge
In0 In 0.08152 0.16165 0.29835 0.0
O1 O 0.04757 0.12757 0.28536 0.0
O2 O 0.03493 0.16184 0.31374 0.0
C3 C 0.1309 0.13523 0.28125 0.0
C4 C 0.09094 0.16759 0.35548 0.0
C5 C 0.07977 0.20536 0.25917 0.0
O6 O 0.10639 0.12314 0.27862 0.0
O7 O 0.13028 0.16011 0.29274 0.0
O8 O 0.08901 0.20883 0.28469 0.0
O9 O 0.07056 0.18015 0.25377 0.0
C10 C 0.0276 0.13924 0.30015 0.0
O11 O 0.0811 0.18809 0.34004 0.0
O12 O 0.09582 0.14407 0.34212 0.0
In13 In 0.41214 0.83789 0.80003 0.0
O14 O 0.4109 0.8138 0.84343 0.0
O15 O 0.39431 0.8571 0.8417 0.0
C16 C 0.41284 0.79305 0.76182 0.0
C17 C 0.46593 0.86027 0.80368 0.0
C18 C 0.36595 0.86684 0.77897 0.0
O19 O 0.40163 0.79103 0.78672 0.0
O20 O 0.42476 0.81716 0.75677 0.0
O21 O 0.3915 0.87639 0.77622 0.0
O22 O 0.36389 0.84307 0.7925 0.0
C23 C 0.3991 0.83471 0.85685 0.0
O24 O 0.44608 0.87231 0.78907 0.0
O25 O 0.45869 0.83698 0.8162 0.0
In26 In 0.56858 0.34573 0.70449 0.0
O27 O 0.53179 0.3783 0.71061 0.0
O28 O 0.5214 0.33596 0.69472 0.0
C29 C 0.61383 0.38106 0.71696 0.0
C30 C 0.57462 0.33449 0.64749 0.0
C31 C 0.57156 0.30706 0.74885 0.0
O32 O 0.58807 0.38726 0.72388 0.0
O33 O 0.61657 0.35757 0.70318 0.0
O34 O 0.58162 0.30165 0.72395 0.0
O35 O 0.55933 0.33148 0.75105 0.0
C36 C 0.51248 0.36103 0.70159 0.0
O37 O 0.57926 0.3154 0.66673 0.0
O38 O 0.56738 0.35922 0.65704 0.0
In39 In 0.9153 0.64571 0.1948 0.0
O40 O 0.95369 0.61379 0.19641 0.0
O41 O 0.96139 0.65727 0.18242 0.0
C42 C 0.86945 0.61104 0.20726 0.0
C43 C 0.90075 0.66135 0.14055 0.0
C44 C 0.91593 0.68234 0.24077 0.0
O45 O 0.89517 0.60364 0.21336 0.0
O46 O 0.8673 0.6351 0.19441 0.0
O47 O 0.9119 0.69095 0.2151 0.0
O48 O 0.92011 0.65536 0.2432 0.0
C49 C 0.97182 0.63242 0.18756 0.0
O50 O 0.89599 0.6773 0.16239 0.0
O51 O 0.91314 0.63736 0.14598 0.0
In52 In 0.29862 0.07932 0.14008 0.0
O53 O 0.339 0.08886 0.16671 0.0
O54 O 0.34028 0.09743 0.12112 0.0
C55 C 0.25743 0.07619 0.18171 0.0
C56 C 0.31125 0.02421 0.12494 0.0
C57 C 0.27611 0.12375 0.10931 0.0
O58 O 0.28131 0.08904 0.18555 0.0
O59 O 0.25483 0.06407 0.15731 0.0
O60 O 0.27496 0.0978 0.10013 0.0
O61 O 0.28866 0.12687 0.13342 0.0
C62 C 0.35348 0.09786 0.14517 0.0
O63 O 0.29544 0.04023 0.10912 0.0
O64 O 0.32009 0.03591 0.14802 0.0
In65 In 0.17877 0.89666 0.65568 0.0
O66 O 0.13775 0.90036 0.68271 0.0
O67 O 0.13434 0.88121 0.64067 0.0
C68 C 0.21805 0.89874 0.69918 0.0
C69 C 0.17767 0.95007 0.63155 0.0
C70 C 0.19641 0.84754 0.6289 0.0
O71 O 0.1934 0.88728 0.70215 0.0
O72 O 0.2225 0.90988 0.6746 0.0
O73 O 0.19802 0.87218 0.61679 0.0
O74 O 0.18537 0.84781 0.65395 0.0
C75 C 0.12164 0.8888 0.66379 0.0
O76 O 0.19218 0.92947 0.62058 0.0
O77 O 0.16383 0.94357 0.65423 0.0
In78 In 0.80553 0.42437 0.82612 0.0
O79 O 0.79787 0.46167 0.85838 0.0
O80 O 0.82022 0.47061 0.81885 0.0
C81 C 0.78877 0.37555 0.8537 0.0
C82 C 0.86213 0.4111 0.82377 0.0
C83 C 0.76417 0.42489 0.78477 0.0
O84 O 0.78493 0.40045 0.86488 0.0
O85 O 0.8006 0.3757 0.82902 0.0
O86 O 0.78988 0.41676 0.77961 0.0
O87 O 0.75981 0.43365 0.81035 0.0
C88 C 0.81065 0.48026 0.84265 0.0
O89 O 0.84768 0.41688 0.8011 0.0
O90 O 0.84811 0.41275 0.84729 0.0
In91 In 0.70393 0.56451 0.34993 0.0
O92 O 0.71354 0.53174 0.38626 0.0
O93 O 0.6825 0.52037 0.35398 0.0
C94 C 0.72426 0.61431 0.37297 0.0
C95 C 0.64844 0.58133 0.34279 0.0
C96 C 0.74506 0.55499 0.30897 0.0
O97 O 0.72371 0.59082 0.3873 0.0
O98 O 0.71479 0.61241 0.34737 0.0
O99 O 0.72049 0.56559 0.30291 0.0
O100 O 0.74823 0.54815 0.33525 0.0
C101 C 0.69583 0.51308 0.37677 0.0
O102 O 0.66229 0.56822 0.32295 0.0
O103 O 0.66243 0.58527 0.36604 0.0
In104 In 0.15262 0.3112 0.07217 0.0
O105 O 0.12096 0.30642 0.03432 0.0
O106 O 0.16044 0.32926 0.02704 0.0
C107 C 0.12034 0.28805 0.11497 0.0
C108 C 0.1558 0.36674 0.08995 0.0
C109 C 0.19591 0.27134 0.07241 0.0
O110 O 0.11326 0.28558 0.08856 0.0
O111 O 0.14327 0.30227 0.11948 0.0
O112 O 0.19846 0.29611 0.08392 0.0
O113 O 0.17198 0.26713 0.0599 0.0
C114 C 0.13678 0.32025 0.01669 0.0
O115 O 0.17777 0.35298 0.08081 0.0
O116 O 0.13232 0.35261 0.08966 0.0
In117 In 0.66896 0.19647 0.92334 0.0
O118 O 0.63446 0.20089 0.9589 0.0
O119 O 0.67586 0.18349 0.97021 0.0
C120 C 0.63933 0.21198 0.87528 0.0
C121 C 0.67892 0.1398 0.91252 0.0
C122 C 0.70593 0.24203 0.92362 0.0
O123 O 0.62879 0.21524 0.90045 0.0
O124 O 0.6642 0.20053 0.87462 0.0
O125 O 0.71283 0.21752 0.91327 0.0
O126 O 0.68106 0.24301 0.93493 0.0
C127 C 0.65068 0.19047 0.97848 0.0
O128 O 0.6992 0.15707 0.91925 0.0
O129 O 0.65396 0.15118 0.91144 0.0
In130 In 0.82923 0.8145 0.40335 0.0
O131 O 0.79775 0.85331 0.4042 0.0
O132 O 0.83986 0.85915 0.38605 0.0
C133 C 0.79 0.77119 0.40018 0.0
C134 C 0.84949 0.82066 0.45776 0.0
C135 C 0.86237 0.79362 0.35988 0.0
O136 O 0.78587 0.79557 0.38813 0.0
O137 O 0.81324 0.76924 0.41447 0.0
O138 O 0.86728 0.78734 0.38614 0.0
O139 O 0.84147 0.81087 0.35587 0.0
C140 C 0.8156 0.87033 0.39212 0.0
O141 O 0.86561 0.8238 0.4358 0.0
O142 O 0.82345 0.81445 0.45218 0.0
In143 In 0.34597 0.68663 0.57164 0.0
O144 O 0.37946 0.69264 0.53515 0.0
O145 O 0.34134 0.66806 0.52643 0.0
C146 C 0.37617 0.70941 0.61633 0.0
C147 C 0.34084 0.63029 0.58656 0.0
C148 C 0.30218 0.72593 0.56962 0.0
O149 O 0.38463 0.71186 0.59032 0.0
O150 O 0.35302 0.69519 0.61956 0.0
O151 O 0.3002 0.70214 0.5831 0.0
O152 O 0.32584 0.72945 0.55637 0.0
C153 C 0.3651 0.67784 0.51705 0.0
O154 O 0.31985 0.64486 0.57648 0.0
O155 O 0.36434 0.64417 0.58918 0.0
In156 In 0.8983 0.8355 0.68261 0.0
O157 O 0.93864 0.8639 0.68335 0.0
O158 O 0.943 0.82022 0.66834 0.0
C159 C 0.85915 0.87459 0.70262 0.0
C160 C 0.8813 0.82768 0.62742 0.0
C161 C 0.89731 0.79477 0.72503 0.0
O162 O 0.88605 0.87743 0.70677 0.0
O163 O 0.85227 0.85265 0.68779 0.0
O164 O 0.8881 0.78984 0.69973 0.0
O165 O 0.90748 0.81991 0.72868 0.0
C166 C 0.95515 0.84427 0.67349 0.0
O167 O 0.87492 0.81002 0.64745 0.0
O168 O 0.89615 0.84939 0.63524 0.0
In169 In 0.56768 0.1679 0.19226 0.0
O170 O 0.56975 0.19888 0.15324 0.0
O171 O 0.58725 0.15612 0.14883 0.0
C172 C 0.56046 0.20404 0.23811 0.0
C173 C 0.51544 0.14358 0.18338 0.0
C174 C 0.61564 0.13957 0.21006 0.0
O175 O 0.5733 0.21194 0.2152 0.0
O176 O 0.55046 0.17859 0.23726 0.0
O177 O 0.59128 0.1271 0.2082 0.0
O178 O 0.61566 0.16607 0.20289 0.0
C179 C 0.58245 0.18051 0.13717 0.0
O180 O 0.53533 0.13077 0.19729 0.0
O181 O 0.522 0.16845 0.17381 0.0
In182 In 0.4343 0.65536 0.29893 0.0
O183 O 0.4658 0.6172 0.29204 0.0
O184 O 0.48172 0.65595 0.31172 0.0
C185 C 0.38188 0.63201 0.28743 0.0
C186 C 0.42579 0.66669 0.3555 0.0
C187 C 0.43748 0.6922 0.25327 0.0
O188 O 0.40509 0.6176 0.2841 0.0
O189 O 0.3854 0.6577 0.29633 0.0
O190 O 0.43037 0.70061 0.27839 0.0
O191 O 0.44402 0.66562 0.25157 0.0
C192 C 0.48711 0.63042 0.30321 0.0
O193 O 0.43486 0.68599 0.33811 0.0
O194 O 0.42164 0.64193 0.34435 0.0
In195 In 0.07548 0.3292 0.79513 0.0
O196 O 0.04327 0.36355 0.77871 0.0
O197 O 0.02887 0.33303 0.81028 0.0
C198 C 0.12504 0.35585 0.77917 0.0
C199 C 0.08292 0.32361 0.85265 0.0
C200 C 0.07501 0.2839 0.75761 0.0
O201 O 0.10048 0.36759 0.77566 0.0
O202 O 0.12445 0.33108 0.79092 0.0
O203 O 0.08408 0.28167 0.78331 0.0
O204 O 0.06512 0.30864 0.7512 0.0
C205 C 0.0228 0.35468 0.79461 0.0
O206 O 0.07156 0.30381 0.83738 0.0
O207 O 0.09019 0.34626 0.83891 0.0
In208 In 0.68553 0.92048 0.83728 0.0
O209 O 0.6427 0.91471 0.81365 0.0
O210 O 0.64419 0.90463 0.85889 0.0
C211 C 0.72211 0.92328 0.79152 0.0
C212 C 0.67979 0.97539 0.85727 0.0
C213 C 0.70594 0.87161 0.86259 0.0
O214 O 0.6961 0.91511 0.78918 0.0
O215 O 0.72933 0.93105 0.81674 0.0
O216 O 0.709 0.89632 0.87436 0.0
O217 O 0.69283 0.87192 0.8386 0.0
C218 C 0.62929 0.90575 0.83587 0.0
O219 O 0.69679 0.9574 0.86924 0.0
O220 O 0.66633 0.96571 0.83554 0.0
In221 In 0.80367 0.09226 0.32716 0.0
O222 O 0.84664 0.09814 0.3033 0.0
O223 O 0.84613 0.103 0.34939 0.0
C224 C 0.76514 0.09834 0.28346 0.0
C225 C 0.80771 0.03515 0.3392 0.0
C226 C 0.78271 0.13527 0.36093 0.0
O227 O 0.78978 0.11027 0.28294 0.0
O228 O 0.76057 0.08255 0.30534 0.0
O229 O 0.77689 0.10881 0.36576 0.0
O230 O 0.79939 0.13967 0.33969 0.0
C231 C 0.8608 0.10345 0.32622 0.0
O232 O 0.79612 0.05288 0.35673 0.0
O233 O 0.81679 0.04626 0.31587 0.0
In234 In 0.19549 0.57781 0.17385 0.0
O235 O 0.20389 0.54768 0.13534 0.0
O236 O 0.18019 0.53108 0.17151 0.0
C237 C 0.21149 0.62799 0.14828 0.0
C238 C 0.13871 0.58668 0.18445 0.0
C239 C 0.23997 0.57258 0.21192 0.0
O240 O 0.21292 0.60383 0.13522 0.0
O241 O 0.20174 0.62668 0.17383 0.0
O242 O 0.21682 0.58591 0.21817 0.0
O243 O 0.23994 0.56078 0.18728 0.0
C244 C 0.19071 0.5264 0.14663 0.0
O245 O 0.15522 0.57485 0.20299 0.0
O246 O 0.15094 0.59396 0.16102 0.0
In247 In 0.29538 0.41065 0.64194 0.0
O248 O 0.28883 0.44547 0.60687 0.0
O249 O 0.3136 0.45637 0.64428 0.0
C250 C 0.27644 0.36288 0.61382 0.0
C251 C 0.35074 0.39569 0.65216 0.0
C252 C 0.25293 0.41502 0.68219 0.0
O253 O 0.2764 0.38771 0.60194 0.0
O254 O 0.28612 0.36241 0.63941 0.0
O255 O 0.27715 0.40336 0.68746 0.0
O256 O 0.25052 0.42538 0.65699 0.0
C257 C 0.30324 0.46457 0.62031 0.0
O258 O 0.33495 0.40744 0.6713 0.0
O259 O 0.33874 0.39198 0.62778 0.0
In260 In 0.83827 0.69556 0.92124 0.0
O261 O 0.87655 0.68399 0.95077 0.0
O262 O 0.83585 0.69353 0.97043 0.0
C263 C 0.86741 0.71666 0.87513 0.0
C264 C 0.82352 0.64049 0.90767 0.0
C265 C 0.80038 0.74036 0.92277 0.0
O266 O 0.87617 0.72067 0.90085 0.0
O267 O 0.84463 0.70168 0.87297 0.0
O268 O 0.79367 0.7157 0.91262 0.0
O269 O 0.82566 0.7419 0.93313 0.0
C270 C 0.86203 0.68629 0.97391 0.0
O271 O 0.80638 0.65702 0.92143 0.0
O272 O 0.84762 0.65173 0.90127 0.0
In273 In 0.34224 0.80036 0.07747 0.0
O274 O 0.37856 0.79398 0.04402 0.0
O275 O 0.3381 0.81125 0.02973 0.0
C276 C 0.37426 0.78664 0.12472 0.0
C277 C 0.32904 0.85707 0.08312 0.0
C278 C 0.30255 0.7571 0.0804 0.0
O279 O 0.38142 0.77873 0.09944 0.0
O280 O 0.35155 0.80191 0.12589 0.0
O281 O 0.29939 0.78104 0.09335 0.0
O282 O 0.32522 0.75533 0.06524 0.0
C283 C 0.36356 0.80363 0.02315 0.0
O284 O 0.31039 0.83835 0.07573 0.0
O285 O 0.35422 0.84712 0.08767 0.0
In286 In 0.15661 0.1738 0.57646 0.0
O287 O 0.12701 0.18122 0.53752 0.0
O288 O 0.16585 0.1568 0.53118 0.0
C289 C 0.12247 0.19748 0.61759 0.0
C290 C 0.15685 0.11727 0.59136 0.0
C291 C 0.20063 0.21255 0.57945 0.0
O292 O 0.11684 0.19998 0.59084 0.0
O293 O 0.14493 0.18283 0.62333 0.0
O294 O 0.20126 0.18851 0.59271 0.0
O295 O 0.17848 0.21635 0.5639 0.0
C296 C 0.14302 0.16722 0.52016 0.0
O297 O 0.17977 0.13043 0.58394 0.0
O298 O 0.13411 0.13263 0.59119 0.0
In299 In 0.63758 0.29721 0.43045 0.0
O300 O 0.66765 0.33693 0.42869 0.0
O301 O 0.62194 0.34346 0.42574 0.0
C302 C 0.67488 0.25248 0.4261 0.0
C303 C 0.61963 0.29476 0.48598 0.0
C304 C 0.61117 0.28653 0.37938 0.0
O305 O 0.68304 0.27868 0.42364 0.0
O306 O 0.64816 0.24912 0.43127 0.0
O307 O 0.60014 0.27842 0.40325 0.0
O308 O 0.63485 0.30002 0.38167 0.0
C309 C 0.64689 0.35472 0.42548 0.0
O310 O 0.60201 0.29847 0.46525 0.0
O311 O 0.64585 0.29209 0.47862 0.0
H312 H 0.12496 0.29962 0.17219 0.0
H313 H 0.08085 0.24393 0.11114 0.0
H314 H 0.06119 0.21504 0.15125 0.0
H315 H 0.06164 0.20235 0.20318 0.0
H316 H 0.10638 0.258 0.26391 0.0
H317 H 0.12035 0.29051 0.22439 0.0
C318 C 0.11071 0.28139 0.1677 0.0
C319 C 0.10468 0.27357 0.13883 0.0
C320 C 0.09976 0.26484 0.19077 0.0
C321 C 0.08587 0.25023 0.13324 0.0
C322 C 0.07476 0.23366 0.15614 0.0
C323 C 0.074 0.22188 0.20781 0.0
C324 C 0.08333 0.22758 0.23632 0.0
C325 C 0.08229 0.24025 0.18493 0.0
C326 C 0.0991 0.25306 0.24209 0.0
C327 C 0.10722 0.27158 0.2195 0.0
H328 H 0.43411 0.79373 0.70679 0.0
H329 H 0.38165 0.74285 0.76552 0.0
H330 H 0.36772 0.71067 0.72572 0.0
H331 H 0.36624 0.70032 0.6735 0.0
H332 H 0.41816 0.75132 0.61448 0.0
H333 H 0.43674 0.78 0.65519 0.0
C334 C 0.42003 0.7753 0.71097 0.0
C335 C 0.40868 0.77084 0.739 0.0
C336 C 0.4118 0.75711 0.68789 0.0
C337 C 0.39059 0.7468 0.74412 0.0
C338 C 0.3825 0.72847 0.72135 0.0
C339 C 0.38191 0.71748 0.66959 0.0
C340 C 0.39056 0.72396 0.64103 0.0
C341 C 0.3923 0.73395 0.69302 0.0
C342 C 0.41111 0.74601 0.63628 0.0
C343 C 0.42164 0.76247 0.65953 0.0
H344 H 0.60601 0.25922 0.75166 0.0
H345 H 0.54874 0.31271 0.80318 0.0
H346 H 0.56226 0.28562 0.84683 0.0
H347 H 0.59421 0.25008 0.87108 0.0
H348 H 0.65336 0.19862 0.81961 0.0
H349 H 0.6351 0.22129 0.7753 0.0
C350 C 0.59613 0.26462 0.77236 0.0
C351 C 0.57656 0.28802 0.77423 0.0
C352 C 0.60453 0.24943 0.79746 0.0
C353 C 0.56398 0.29484 0.80121 0.0
C354 C 0.57176 0.27941 0.8262 0.0
C355 C 0.6027 0.2435 0.85011 0.0
C356 C 0.6252 0.22287 0.84861 0.0
C357 C 0.59259 0.25716 0.82471 0.0
C358 C 0.63615 0.21463 0.82133 0.0
C359 C 0.62575 0.2276 0.79597 0.0
H360 H 0.89939 0.73891 0.24088 0.0
H361 H 0.92593 0.66902 0.29762 0.0
H362 H 0.91527 0.69914 0.34006 0.0
H363 H 0.8933 0.74331 0.36088 0.0
H364 H 0.86389 0.81174 0.3038 0.0
H365 H 0.88116 0.78446 0.2617 0.0
C366 C 0.90326 0.73044 0.26253 0.0
C367 C 0.91318 0.70175 0.26615 0.0
C368 C 0.89643 0.7476 0.28678 0.0
C369 C 0.91811 0.69102 0.29431 0.0
C370 C 0.91198 0.7082 0.31858 0.0
C371 C 0.89126 0.75247 0.33926 0.0
C372 C 0.87726 0.77938 0.33537 0.0
C373 C 0.9004 0.73624 0.31508 0.0
C374 C 0.87449 0.79095 0.30726 0.0
C375 C 0.88426 0.77534 0.28319 0.0
H376 H 0.25445 0.11003 0.22975 0.0
H377 H 0.20524 0.04834 0.17925 0.0
H378 H 0.16199 0.0587 0.20824 0.0
H379 H 0.13688 0.0896 0.24406 0.0
H380 H 0.18585 0.15326 0.29234 0.0
H381 H 0.23044 0.13767 0.26834 0.0
C382 C 0.2344 0.09844 0.22545 0.0
C383 C 0.23296 0.07864 0.20228 0.0
C384 C 0.20946 0.10511 0.24164 0.0
C385 C 0.20684 0.06382 0.19691 0.0
C386 C 0.18207 0.06981 0.2134 0.0
C387 C 0.15741 0.09967 0.24965 0.0
C388 C 0.15806 0.1227 0.26971 0.0
C389 C 0.18291 0.09108 0.23523 0.0
C390 C 0.18477 0.13563 0.27676 0.0
C391 C 0.21028 0.12676 0.26303 0.0
H392 H 0.30951 0.85553 0.79 0.0
H393 H 0.36551 0.9094 0.73761 0.0
H394 H 0.32354 0.92697 0.71013 0.0
H395 H 0.27191 0.92236 0.69746 0.0
H396 H 0.2162 0.86796 0.74969 0.0
H397 H 0.25706 0.85559 0.78113 0.0
C398 C 0.31246 0.87142 0.77281 0.0
C399 C 0.34052 0.88084 0.76547 0.0
C400 C 0.28834 0.88119 0.75704 0.0
C401 C 0.34408 0.90173 0.7435 0.0
C402 C 0.32013 0.91168 0.72773 0.0
C403 C 0.26863 0.9082 0.71603 0.0
C404 C 0.24123 0.89575 0.72104 0.0
C405 C 0.29229 0.90088 0.73376 0.0
C406 C 0.23716 0.87768 0.7453 0.0
C407 C 0.26053 0.87048 0.7632 0.0
H408 H 0.70919 0.44529 0.78944 0.0
H409 H 0.765 0.39402 0.73418 0.0
H410 H 0.72303 0.37846 0.7057 0.0
H411 H 0.67006 0.37425 0.70091 0.0
H412 H 0.61428 0.42509 0.75661 0.0
H413 H 0.6567 0.44632 0.7803 0.0
C414 C 0.71222 0.43115 0.77082 0.0
C415 C 0.74005 0.42046 0.76416 0.0
C416 C 0.68798 0.422 0.75483 0.0
C417 C 0.74375 0.40243 0.7398 0.0
C418 C 0.71974 0.39339 0.72363 0.0
C419 C 0.66721 0.39036 0.71789 0.0
C420 C 0.63912 0.39777 0.72733 0.0
C421 C 0.69168 0.40222 0.73161 0.0
C422 C 0.6357 0.41891 0.74909 0.0
C423 C 0.65994 0.43096 0.76273 0.0
H424 H 0.86645 0.56975 0.24961 0.0
H425 H 0.81398 0.61814 0.18881 0.0
H426 H 0.76988 0.60095 0.21254 0.0
H427 H 0.74669 0.57853 0.25491 0.0
H428 H 0.79914 0.5324 0.31744 0.0
H429 H 0.84257 0.54184 0.28854 0.0
C430 C 0.84534 0.57589 0.24114 0.0
C431 C 0.84346 0.59544 0.21774 0.0
C432 C 0.82001 0.5666 0.25545 0.0
C433 C 0.81598 0.60332 0.207 0.0
C434 C 0.79073 0.59357 0.22061 0.0
C435 C 0.76751 0.56996 0.26185 0.0
C436 C 0.76975 0.55514 0.28844 0.0
C437 C 0.79252 0.57618 0.24554 0.0
C438 C 0.79688 0.5441 0.29714 0.0
C439 C 0.82177 0.54959 0.28068 0.0
H440 H 0.28641 0.18065 0.11893 0.0
H441 H 0.23455 0.12262 0.06684 0.0
H442 H 0.20674 0.16413 0.04816 0.0
H443 H 0.19397 0.21621 0.051 0.0
H444 H 0.24593 0.27371 0.10374 0.0
H445 H 0.2772 0.23309 0.11755 0.0
C446 C 0.26925 0.17712 0.1032 0.0
C447 C 0.26223 0.14865 0.09453 0.0
C448 C 0.25332 0.20095 0.09282 0.0
C449 C 0.24025 0.14437 0.07387 0.0
C450 C 0.22429 0.16807 0.06331 0.0
C451 C 0.21244 0.21992 0.06512 0.0
C452 C 0.21745 0.24786 0.07661 0.0
C453 C 0.23014 0.19636 0.07326 0.0
C454 C 0.24153 0.2524 0.09473 0.0
C455 C 0.25935 0.22915 0.10273 0.0
H456 H 0.75277 0.36835 0.90024 0.0
H457 H 0.80428 0.32093 0.83783 0.0
H458 H 0.78605 0.27495 0.85677 0.0
H459 H 0.75195 0.24838 0.88763 0.0
H460 H 0.69812 0.29544 0.94825 0.0
H461 H 0.72108 0.34119 0.9339 0.0
C462 C 0.76024 0.34792 0.8911 0.0
C463 C 0.77959 0.34805 0.86751 0.0
C464 C 0.74921 0.32144 0.90174 0.0
C465 C 0.78913 0.32143 0.85582 0.0
C466 C 0.77876 0.29508 0.86665 0.0
C467 C 0.74567 0.26857 0.89813 0.0
C468 C 0.72333 0.26857 0.91886 0.0
C469 C 0.75829 0.29485 0.88913 0.0
C470 C 0.71526 0.29492 0.93214 0.0
C471 C 0.72827 0.32111 0.92385 0.0
H472 H 0.79175 0.71946 0.42837 0.0
H473 H 0.74651 0.76568 0.36043 0.0
H474 H 0.72084 0.72113 0.34706 0.0
H475 H 0.71462 0.66832 0.35192 0.0
H476 H 0.75929 0.62205 0.42015 0.0
H477 H 0.78182 0.66748 0.43633 0.0
C478 C 0.77596 0.71986 0.4109 0.0
C479 C 0.7712 0.74571 0.39522 0.0
C480 C 0.76146 0.69416 0.40324 0.0
C481 C 0.75054 0.74602 0.37281 0.0
C482 C 0.736 0.72054 0.36505 0.0
C483 C 0.72914 0.66824 0.37047 0.0
C484 C 0.73566 0.6419 0.38461 0.0
C485 C 0.74184 0.69436 0.37965 0.0
C486 C 0.75409 0.64209 0.40887 0.0
C487 C 0.767 0.66802 0.41806 0.0
H488 H 0.23296 0.84314 0.58272 0.0
H489 H 0.18864 0.79201 0.64759 0.0
H490 H 0.21508 0.74861 0.63221 0.0
H491 H 0.25471 0.72657 0.60435 0.0
H492 H 0.30115 0.77812 0.54134 0.0
H493 H 0.26975 0.81981 0.55164 0.0
C494 C 0.22873 0.82238 0.59309 0.0
C495 C 0.20909 0.82081 0.61639 0.0
C496 C 0.24457 0.79762 0.58463 0.0
C497 C 0.20384 0.7938 0.62972 0.0
C498 C 0.21899 0.76898 0.62099 0.0
C499 C 0.25762 0.74677 0.5925 0.0
C500 C 0.28034 0.74935 0.57231 0.0
C501 C 0.24001 0.77083 0.59907 0.0
C502 C 0.28388 0.77565 0.55712 0.0
C503 C 0.266 0.79953 0.56307 0.0
H504 H 0.85701 0.70424 0.81878 0.0
H505 H 0.90729 0.76062 0.87417 0.0
H506 H 0.92323 0.7885 0.83178 0.0
H507 H 0.91867 0.79971 0.77971 0.0
H508 H 0.86801 0.74332 0.7246 0.0
H509 H 0.8566 0.71236 0.76619 0.0
C510 C 0.87177 0.7224 0.82153 0.0
C511 C 0.88072 0.73061 0.84953 0.0
C512 C 0.88058 0.73841 0.79717 0.0
C513 C 0.90008 0.75395 0.8528 0.0
C514 C 0.90907 0.76997 0.8286 0.0
C515 C 0.90545 0.78042 0.77675 0.0
C516 C 0.8939 0.77398 0.74922 0.0
C517 C 0.89881 0.76285 0.80079 0.0
C518 C 0.87704 0.7488 0.74561 0.0
C519 C 0.87043 0.73115 0.76939 0.0
H520 H 0.59012 0.25389 0.24884 0.0
H521 H 0.53219 0.1919 0.28863 0.0
H522 H 0.54003 0.21438 0.33602 0.0
H523 H 0.56826 0.24764 0.36702 0.0
H524 H 0.62778 0.30806 0.32712 0.0
H525 H 0.61422 0.29047 0.27909 0.0
C526 C 0.57874 0.24571 0.26778 0.0
C527 C 0.56085 0.22112 0.26529 0.0
C528 C 0.58392 0.25826 0.29509 0.0
C529 C 0.54625 0.21072 0.29002 0.0
C530 C 0.55081 0.22349 0.31717 0.0
C531 C 0.57782 0.25729 0.34777 0.0
C532 C 0.59922 0.27884 0.35063 0.0
C533 C 0.57036 0.24664 0.32013 0.0
C534 C 0.61145 0.29119 0.3255 0.0
C535 C 0.60375 0.28114 0.298 0.0
H536 H 0.41065 0.74468 0.24929 0.0
H537 H 0.45657 0.68055 0.1985 0.0
H538 H 0.44398 0.70647 0.1539 0.0
H539 H 0.41491 0.7439 0.12909 0.0
H540 H 0.36655 0.80619 0.17992 0.0
H541 H 0.3853 0.7847 0.22465 0.0
C542 C 0.41841 0.73673 0.2285 0.0
C543 C 0.43434 0.71066 0.22716 0.0
C544 C 0.41036 0.75126 0.20289 0.0
C545 C 0.44414 0.70052 0.20008 0.0
C546 C 0.43686 0.71526 0.17455 0.0
C547 C 0.40893 0.75309 0.14995 0.0
C548 C 0.38921 0.77642 0.15122 0.0
C549 C 0.4192 0.74014 0.17563 0.0
C550 C 0.38156 0.78808 0.17839 0.0
C551 C 0.39222 0.77577 0.20399 0.0
H552 H 0.12529 0.1878 0.67538 0.0
H553 H 0.08251 0.24094 0.61102 0.0
H554 H 0.06079 0.27065 0.64942 0.0
H555 H 0.0589 0.28485 0.70091 0.0
H556 H 0.10236 0.23185 0.765 0.0
H557 H 0.1185 0.19843 0.72708 0.0
C558 C 0.11089 0.20565 0.66979 0.0
C559 C 0.10582 0.21249 0.64048 0.0
C560 C 0.09873 0.22271 0.69191 0.0
C561 C 0.08683 0.23538 0.63347 0.0
C562 C 0.07451 0.25242 0.6554 0.0
C563 C 0.07144 0.26568 0.70662 0.0
C564 C 0.07975 0.26101 0.73563 0.0
C565 C 0.08102 0.2468 0.68465 0.0
C566 C 0.09582 0.236 0.74278 0.0
C567 C 0.10519 0.21696 0.7211 0.0
H568 H 0.77905 0.93844 0.79204 0.0
H569 H 0.71311 0.89941 0.73816 0.0
H570 H 0.75005 0.88413 0.70334 0.0
H571 H 0.80141 0.87574 0.69207 0.0
H572 H 0.86756 0.91379 0.74631 0.0
H573 H 0.83021 0.93599 0.77689 0.0
C574 C 0.77273 0.92711 0.77238 0.0
C575 C 0.74348 0.91964 0.7679 0.0
C576 C 0.79414 0.91798 0.75268 0.0
C577 C 0.73552 0.90522 0.74221 0.0
C578 C 0.75665 0.89635 0.72235 0.0
C579 C 0.80764 0.88935 0.71026 0.0
C580 C 0.83713 0.89276 0.71724 0.0
C581 C 0.78609 0.90165 0.72795 0.0
C582 C 0.84496 0.91073 0.74062 0.0
C583 C 0.82362 0.92329 0.7582 0.0
H584 H 0.67117 0.15785 0.20484 0.0
H585 H 0.61883 0.08861 0.24026 0.0
H586 H 0.66166 0.06769 0.26378 0.0
H587 H 0.71282 0.07208 0.27818 0.0
H588 H 0.76514 0.14126 0.24256 0.0
H589 H 0.72354 0.15895 0.21472 0.0
C590 C 0.66923 0.13801 0.21747 0.0
C591 C 0.64189 0.12499 0.22122 0.0
C592 C 0.69389 0.12615 0.23087 0.0
C593 C 0.63967 0.09908 0.23723 0.0
C594 C 0.66411 0.08716 0.25072 0.0
C595 C 0.71522 0.09073 0.26394 0.0
C596 C 0.74187 0.10556 0.26265 0.0
C597 C 0.69117 0.10094 0.24826 0.0
C598 C 0.74481 0.12952 0.24394 0.0
C599 C 0.721 0.13976 0.22817 0.0
H600 H 0.36825 0.58324 0.25658 0.0
H601 H 0.33005 0.65572 0.30237 0.0
H602 H 0.2818 0.64094 0.2865 0.0
H603 H 0.2511 0.61082 0.25524 0.0
H604 H 0.28932 0.54022 0.20674 0.0
H605 H 0.33666 0.55041 0.22842 0.0
C606 C 0.3493 0.59549 0.2634 0.0
C607 C 0.35273 0.62068 0.28035 0.0
C608 C 0.32157 0.58723 0.25365 0.0
C609 C 0.328 0.6364 0.28905 0.0
C610 C 0.30038 0.62796 0.28001 0.0
C611 C 0.26965 0.59724 0.24995 0.0
C612 C 0.26677 0.57489 0.22938 0.0
C613 C 0.29697 0.60388 0.26169 0.0
C614 C 0.29104 0.55762 0.22251 0.0
C615 C 0.31815 0.56354 0.23476 0.0
H616 H 0.24948 0.38269 0.73116 0.0
H617 H 0.20029 0.44187 0.67749 0.0
H618 H 0.15647 0.43138 0.70555 0.0
H619 H 0.13109 0.40079 0.74132 0.0
H620 H 0.18003 0.33919 0.79247 0.0
H621 H 0.225 0.35537 0.76963 0.0
C622 C 0.22929 0.39373 0.72598 0.0
C623 C 0.22802 0.41283 0.7022 0.0
C624 C 0.20406 0.38689 0.74156 0.0
C625 C 0.20173 0.42694 0.69565 0.0
C626 C 0.17666 0.42087 0.7116 0.0
C627 C 0.15168 0.39131 0.74779 0.0
C628 C 0.15227 0.36868 0.76831 0.0
C629 C 0.17738 0.40016 0.73399 0.0
C630 C 0.17903 0.35649 0.77651 0.0
C631 C 0.20475 0.3657 0.76345 0.0
H632 H 0.75191 0.74559 0.88986 0.0
H633 H 0.80785 0.7938 0.94742 0.0
H634 H 0.78169 0.83872 0.936 0.0
H635 H 0.7459 0.86506 0.90589 0.0
H636 H 0.69209 0.81668 0.8464 0.0
H637 H 0.71425 0.77122 0.86239 0.0
C638 C 0.75803 0.76583 0.9003 0.0
C639 C 0.7818 0.7664 0.91937 0.0
C640 C 0.74345 0.79168 0.89302 0.0
C641 C 0.78963 0.79283 0.93259 0.0
C642 C 0.77476 0.81855 0.92598 0.0
C643 C 0.73881 0.84451 0.89677 0.0
C644 C 0.71757 0.84425 0.87487 0.0
C645 C 0.7521 0.81837 0.90564 0.0
C646 C 0.7086 0.81748 0.86313 0.0
C647 C 0.72124 0.79144 0.87226 0.0
H648 H 0.24404 0.63504 0.09953 0.0
H649 H 0.20307 0.68261 0.16921 0.0
H650 H 0.2251 0.72772 0.15208 0.0
H651 H 0.25964 0.75269 0.1203 0.0
H652 H 0.30295 0.70486 0.05228 0.0
H653 H 0.27611 0.66093 0.06547 0.0
C654 C 0.23963 0.65537 0.11067 0.0
C655 C 0.22216 0.6555 0.13569 0.0
C656 C 0.2529 0.68115 0.10109 0.0
C657 C 0.21664 0.68194 0.15 0.0
C658 C 0.22924 0.70775 0.14024 0.0
C659 C 0.26284 0.73278 0.10805 0.0
C660 C 0.28332 0.73194 0.08547 0.0
C661 C 0.24794 0.70748 0.11625 0.0
C662 C 0.28735 0.70598 0.06985 0.0
C663 C 0.27209 0.68084 0.07743 0.0
H664 H 0.28366 0.30721 0.63132 0.0
H665 H 0.24221 0.35957 0.56547 0.0
H666 H 0.21724 0.31646 0.54679 0.0
H667 H 0.20346 0.26506 0.55261 0.0
H668 H 0.24479 0.21301 0.61884 0.0
H669 H 0.27395 0.2548 0.63368 0.0
C670 C 0.26941 0.30912 0.61266 0.0
C671 C 0.26443 0.33654 0.60001 0.0
C672 C 0.25508 0.28435 0.6022 0.0
C673 C 0.24626 0.33869 0.57563 0.0
C674 C 0.23192 0.31408 0.56503 0.0
C675 C 0.21921 0.26274 0.56997 0.0
C676 C 0.22176 0.23608 0.58483 0.0
C677 C 0.23562 0.28696 0.57863 0.0
C678 C 0.24237 0.23332 0.60713 0.0
C679 C 0.25893 0.25725 0.61573 0.0
H680 H 0.72947 0.25354 0.40399 0.0
H681 H 0.66352 0.1952 0.43602 0.0
H682 H 0.69288 0.1533 0.42169 0.0
H683 H 0.73502 0.13335 0.39558 0.0
H684 H 0.79949 0.1919 0.36104 0.0
H685 H 0.77325 0.2335 0.38109 0.0
C686 C 0.72176 0.23165 0.40824 0.0
C687 C 0.69433 0.22746 0.42085 0.0
C688 C 0.73844 0.20766 0.39932 0.0
C689 C 0.68453 0.19898 0.42616 0.0
C690 C 0.70128 0.175 0.41794 0.0
C691 C 0.74356 0.15518 0.39293 0.0
C692 C 0.76902 0.1596 0.37676 0.0
C693 C 0.72794 0.17908 0.40384 0.0
C694 C 0.7798 0.18799 0.37329 0.0
C695 C 0.76479 0.2118 0.38469 0.0
H696 H 0.10526 0.19896 0.48794 0.0
H697 H 0.16474 0.12647 0.48339 0.0
H698 H 0.15295 0.11948 0.43215 0.0
H699 H 0.12625 0.13436 0.38855 0.0
H700 H 0.06912 0.20875 0.39205 0.0
H701 H 0.07942 0.21467 0.44385 0.0
C702 C 0.11552 0.1816 0.4757 0.0
C703 C 0.13571 0.16318 0.48932 0.0
C704 C 0.10909 0.17809 0.44613 0.0
C705 C 0.14915 0.14095 0.47326 0.0
C706 C 0.1424 0.13691 0.44401 0.0
C707 C 0.11597 0.15177 0.40073 0.0
C708 C 0.09687 0.171 0.38669 0.0
C709 C 0.12247 0.15539 0.43023 0.0
C710 C 0.08394 0.19371 0.40251 0.0
C711 C 0.08979 0.19707 0.43207 0.0
H712 H 0.34443 0.84036 0.98189 0.0
H713 H 0.4077 0.77298 -0.00221 0.0
H714 H 0.42435 0.77633 0.94729 0.0
H715 H 0.41997 0.79799 0.89829 0.0
H716 H 0.35858 0.86759 0.88408 0.0
H717 H 0.34212 0.86389 0.93431 0.0
C718 C 0.36188 0.82642 0.97426 0.0
C719 C 0.37468 0.80627 0.99328 0.0
C720 C 0.37162 0.82889 0.94556 0.0
C721 C 0.39756 0.78864 0.98341 0.0
C722 C 0.40699 0.79051 0.95458 0.0
C723 C 0.40303 0.81232 0.90629 0.0
C724 C 0.39034 0.83288 0.88756 0.0
C725 C 0.39405 0.81046 0.93541 0.0
C726 C 0.36868 0.85161 0.89816 0.0
C727 C 0.35921 0.84947 0.92683 0.0
H728 H 0.57887 0.32916 0.51071 0.0
H729 H 0.64221 0.26277 0.5299 0.0
H730 H 0.63206 0.26746 0.58186 0.0
H731 H 0.60764 0.29293 0.62198 0.0
H732 H 0.54826 0.36304 0.60302 0.0
H733 H 0.55429 0.35457 0.55092 0.0
C734 C 0.59002 0.31544 0.52633 0.0
C735 C 0.61101 0.29549 0.51671 0.0
C736 C 0.58501 0.31921 0.55619 0.0
C737 C 0.62588 0.27821 0.537 0.0
C738 C 0.62015 0.28095 0.56664 0.0
C739 C 0.59588 0.30615 0.60639 0.0
C740 C 0.57757 0.32854 0.61619 0.0
C741 C 0.60017 0.30176 0.57652 0.0
C742 C 0.56263 0.34577 0.59588 0.0
C743 C 0.56601 0.3409 0.56613 0.0
H744 H 0.92265 0.64281 0.08894 0.0
H745 H 0.85754 0.69887 0.12658 0.0
H746 H 0.83993 0.7117 0.07823 0.0
H747 H 0.84219 0.70605 0.02537 0.0
H748 H 0.9091 0.6527 0.98711 0.0
H749 H 0.92707 0.63986 0.03554 0.0
C750 C 0.90465 0.65786 0.08645 0.0
C751 C 0.89123 0.66973 0.11117 0.0
C752 C 0.89503 0.66562 0.05854 0.0
C753 C 0.8682 0.6895 0.10779 0.0
C754 C 0.85808 0.69679 0.08019 0.0
C755 C 0.86077 0.6917 0.02768 0.0
C756 C 0.8742 0.68013 0.00286 0.0
C757 C 0.87121 0.68486 0.05545 0.0
C758 C 0.89847 0.66187 0.00601 0.0
C759 C 0.90866 0.65445 0.03365 0.0
H760 H 0.39276 0.08323 0.18637 0.0
H761 H 0.38123 0.13595 0.10971 0.0
H762 H 0.43056 0.15486 0.11477 0.0
H763 H 0.47656 0.15707 0.14159 0.0
H764 H 0.48943 0.10189 0.2163 0.0
H765 H 0.44 0.08306 0.21137 0.0
C766 C 0.40113 0.09886 0.17083 0.0
C767 C 0.38347 0.10844 0.14788 0.0
C768 C 0.42967 0.1091 0.17351 0.0
C769 C 0.39454 0.12832 0.12756 0.0
C770 C 0.42267 0.13916 0.13047 0.0
C771 C 0.46851 0.14086 0.15672 0.0
C772 C 0.48637 0.13099 0.17938 0.0
C773 C 0.44036 0.1298 0.15343 0.0
C774 C 0.47597 0.10974 0.19865 0.0
C775 C 0.44773 0.09906 0.19591 0.0
H776 H 0.98933 0.88522 0.69803 0.0
H777 H 0.9905 0.81389 0.63717 0.0
H778 H 0.04213 0.82211 0.62789 0.0
H779 H 0.08698 0.84941 0.63742 0.0
H780 H 0.08654 0.91837 0.70093 0.0
H781 H 0.03453 0.91132 0.70889 0.0
C782 C 0.00093 0.87156 0.6827 0.0
C783 C 0.98626 0.84912 0.66818 0.0
C784 C 0.03067 0.87599 0.67799 0.0
C785 C 0.00148 0.83128 0.64863 0.0
C786 C 0.03092 0.836 0.64328 0.0
C787 C 0.0754 0.86293 0.6529 0.0
C788 C 0.09036 0.88447 0.66846 0.0
C789 C 0.04573 0.85827 0.65786 0.0
C790 C 0.07536 0.90162 0.68876 0.0
C791 C 0.04568 0.89763 0.69328 0.0
H792 H 0.98496 0.35348 0.83893 0.0
H793 H -0.00342 0.38726 0.75237 0.0
H794 H 0.9476 0.4083 0.75364 0.0
H795 H 0.90086 0.41559 0.77919 0.0
H796 H 0.89128 0.38371 0.86687 0.0
H797 H 0.94019 0.36356 0.86544 0.0
C798 C 0.97675 0.36547 0.82035 0.0
C799 C 0.99403 0.3686 0.79549 0.0
C800 C 0.949 0.37785 0.82149 0.0
C801 C 0.98348 0.38458 0.77173 0.0
C802 C 0.95553 0.39653 0.77244 0.0
C803 C 0.90961 0.40436 0.79798 0.0
C804 C 0.89248 0.40096 0.82302 0.0
C805 C 0.93799 0.3931 0.79716 0.0
C806 C 0.90408 0.38662 0.84735 0.0
C807 C 0.932 0.375 0.84654 0.0
H808 H 0.52806 0.64623 0.34169 0.0
H809 H 0.51081 0.58472 0.2732 0.0
H810 H 0.55965 0.56407 0.27893 0.0
H811 H 0.60763 0.56416 0.30335 0.0
H812 H 0.62268 0.62406 0.3739 0.0
H813 H 0.57433 0.64468 0.36748 0.0
C814 C 0.53501 0.62832 0.32798 0.0
C815 C 0.51607 0.61715 0.30689 0.0
C816 C 0.56272 0.61629 0.33181 0.0
C817 C 0.52512 0.59366 0.28958 0.0
C818 C 0.55301 0.58192 0.29282 0.0
C819 C 0.60022 0.58169 0.31727 0.0
C820 C 0.6187 0.59268 0.33896 0.0
C821 C 0.57206 0.59314 0.31383 0.0
C822 C 0.60881 0.61519 0.3571 0.0
C823 C 0.5812 0.62706 0.35341 0.0
H824 H 0.19729 0.40722 0.07903 0.0
H825 H 0.11817 0.39278 0.12703 0.0
H826 H 0.12209 0.44102 0.1489 0.0
H827 H 0.14868 0.48669 0.1554 0.0
H828 H 0.22602 0.50291 0.10524 0.0
H829 H 0.22216 0.45461 0.08302 0.0
C830 C 0.18091 0.41475 0.0942 0.0
C831 C 0.1576 0.39651 0.10161 0.0
C832 C 0.18302 0.44273 0.10629 0.0
C833 C 0.13628 0.40653 0.121 0.0
C834 C 0.13855 0.43403 0.13357 0.0
C835 C 0.16465 0.47961 0.13957 0.0
C836 C 0.18774 0.49804 0.13211 0.0
C837 C 0.16194 0.4522 0.12655 0.0
C838 C 0.20807 0.48896 0.11127 0.0
C839 C 0.2059 0.46137 0.09865 0.0
H840 H 0.71724 0.00965 0.88803 0.0
H841 H 0.63201 0.00841 0.84924 0.0
H842 H 0.62388 0.05868 0.86403 0.0
H843 H 0.64128 0.10338 0.88649 0.0
H844 H 0.72749 0.10679 0.92275 0.0
H845 H 0.73506 0.05539 0.91043 0.0
C846 C 0.69687 0.02043 0.88306 0.0
C847 C 0.67522 0.00541 0.86764 0.0
C848 C 0.69259 0.04972 0.89101 0.0
C849 C 0.64903 0.0196 0.861 0.0
C850 C 0.64434 0.04833 0.86945 0.0
C851 C 0.6617 0.09286 0.89184 0.0
C852 C 0.68376 0.10877 0.90558 0.0
C853 C 0.66604 0.06366 0.88422 0.0
C854 C 0.71019 0.09494 0.91212 0.0
C855 C 0.7145 0.06558 0.90511 0.0
H856 H 0.77851 0.00218 0.37889 0.0
H857 H 0.84559 -0.00173 0.31354 0.0
H858 H 0.85371 0.94696 0.3242 0.0
H859 H 0.84256 0.90353 0.35246 0.0
H860 H 0.77393 0.90554 0.4161 0.0
H861 H 0.76539 0.95725 0.40566 0.0
C862 C 0.79486 0.99 0.36704 0.0
C863 C 0.81156 0.00396 0.34561 0.0
C864 C 0.79909 0.96025 0.37294 0.0
C865 C 0.83245 0.98797 0.33012 0.0
C866 C 0.83716 0.95865 0.33622 0.0
C867 C 0.82571 0.91529 0.36405 0.0
C868 C 0.80906 0.90096 0.38518 0.0
C869 C 0.82072 0.94465 0.35764 0.0
C870 C 0.78701 0.91624 0.39973 0.0
C871 C 0.78221 0.94576 0.39383 0.0
H872 H 0.34439 0.50286 0.63681 0.0
H873 H 0.27089 0.49327 0.57966 0.0
H874 H 0.2758 0.54408 0.56427 0.0
H875 H 0.30039 0.59159 0.56818 0.0
H876 H 0.37553 0.59994 0.62342 0.0
H877 H 0.37062 0.54919 0.63851 0.0
C878 C 0.3295 0.51189 0.62092 0.0
C879 C 0.30719 0.49452 0.60952 0.0
C880 C 0.33272 0.54087 0.61195 0.0
C881 C 0.28825 0.5063 0.5887 0.0
C882 C 0.291 0.53533 0.57999 0.0
C883 C 0.31564 0.58223 0.58352 0.0
C884 C 0.33812 0.59944 0.5949 0.0
C885 C 0.31301 0.55288 0.59167 0.0
C886 C 0.35803 0.58706 0.61442 0.0
C887 C 0.35522 0.55809 0.62308 0.0
H888 H 0.82505 0.79884 0.50629 0.0
H889 H 0.8974 0.85012 0.47623 0.0
H890 H 0.91341 0.85743 0.52642 0.0
H891 H 0.90627 0.84964 0.5789 0.0
H892 H 0.83566 0.79562 0.60839 0.0
H893 H 0.81942 0.78892 0.5583 0.0
C894 C 0.84433 0.8116 0.51077 0.0
C895 C 0.85995 0.82412 0.48776 0.0
C896 C 0.85362 0.81522 0.53951 0.0
C897 C 0.88509 0.84028 0.4937 0.0
C898 C 0.89417 0.84451 0.52234 0.0
C899 C 0.88731 0.83646 0.57427 0.0
C900 C 0.87199 0.82332 0.59716 0.0
C901 C 0.87851 0.83219 0.54542 0.0
C902 C 0.84774 0.80593 0.59102 0.0
C903 C 0.83844 0.80214 0.56244 0.0
H904 H 0.60713 0.21835 0.00745 0.0
H905 H 0.67286 0.15201 0.01699 0.0
H906 H 0.65714 0.14289 0.06674 0.0
H907 H 0.62476 0.15343 0.10738 0.0
H908 H 0.56104 0.22185 0.1 0.0
H909 H 0.57595 0.23069 0.04959 0.0
C910 C 0.61791 0.20191 0.0205 0.0
C911 C 0.64097 0.18574 0.00861 0.0
C912 C 0.60917 0.19721 0.0494 0.0
C913 C 0.65507 0.16475 0.02574 0.0
C914 C 0.64608 0.15948 0.05414 0.0
C915 C 0.6141 0.17026 0.0947 0.0
C916 C 0.5917 0.18681 0.10717 0.0
C917 C 0.62316 0.17553 0.06615 0.0
C918 C 0.57836 0.20885 0.09075 0.0
C919 C 0.58683 0.21383 0.06197 0.0
H920 H 0.39187 0.63447 0.39044 0.0
H921 H 0.44374 0.71249 0.38908 0.0
H922 H 0.43076 0.72232 0.43983 0.0
H923 H 0.40342 0.70902 0.48429 0.0
H924 H 0.34904 0.63263 0.48329 0.0
H925 H 0.3643 0.62179 0.43377 0.0
C926 C 0.4005 0.65354 0.4013 0.0
C927 C 0.41885 0.67265 0.3862 0.0
C928 C 0.39241 0.65934 0.43003 0.0
C929 C 0.42956 0.69747 0.40036 0.0
C930 C 0.42215 0.70307 0.42933 0.0
C931 C 0.3951 0.68996 0.47318 0.0
C932 C 0.37521 0.67161 0.48734 0.0
C933 C 0.40343 0.68422 0.44434 0.0
C934 C 0.36428 0.64714 0.47274 0.0
C935 C 0.37302 0.64088 0.44446 0.0
H936 H 0.09647 0.29118 0.98505 0.0
H937 H 0.15905 0.36079 0.98015 0.0
H938 H 0.1467 0.36895 0.92923 0.0
H939 H 0.11926 0.3554 0.88581 0.0
H940 H 0.0589 0.28383 0.88945 0.0
H941 H 0.06915 0.27731 0.94121 0.0
C942 C 0.10724 0.30822 0.97282 0.0
C943 C 0.12857 0.32539 0.98623 0.0
C944 C 0.10049 0.31237 0.94338 0.0
C945 C 0.14261 0.34723 0.97018 0.0
C946 C 0.13555 0.35193 0.94111 0.0
C947 C 0.10822 0.33851 0.898 0.0
C948 C 0.08831 0.32018 0.88398 0.0
C949 C 0.11469 0.33451 0.92746 0.0
C950 C 0.07436 0.29817 0.89987 0.0
C951 C 0.0802 0.29445 0.92941 0.0
H952 H 0.58926 0.91875 0.79474 0.0
H953 H 0.6013 0.87112 0.87462 0.0
H954 H 0.55168 0.85268 0.87157 0.0
H955 H 0.50537 0.84911 0.84555 0.0
H956 H 0.49217 0.89877 0.76715 0.0
H957 H 0.54179 0.91751 0.77023 0.0
C958 C 0.58093 0.9044 0.81149 0.0
C959 C 0.59885 0.89612 0.83475 0.0
C960 C 0.55228 0.89423 0.80981 0.0
C961 C 0.58782 0.8778 0.85652 0.0
C962 C 0.55952 0.86719 0.85475 0.0
C963 C 0.51341 0.86404 0.82916 0.0
C964 C 0.49539 0.87238 0.80602 0.0
C965 C 0.54166 0.87508 0.83138 0.0
C966 C 0.50577 0.89205 0.78514 0.0
C967 C 0.5341 0.90272 0.78687 0.0
H968 H 0.90055 0.09077 0.2844 0.0
H969 H 0.89066 0.1322 0.36792 0.0
H970 H 0.94168 0.14639 0.36736 0.0
H971 H 0.98854 0.14847 0.34254 0.0
H972 H -8e-05 0.10497 0.26037 0.0
H973 H 0.94888 0.08985 0.26103 0.0
C974 C 0.90967 0.10286 0.30245 0.0
C975 C 0.89192 0.11069 0.32604 0.0
C976 C 0.93918 0.1105 0.30223 0.0
C977 C 0.90395 0.12597 0.34952 0.0
C978 C 0.93308 0.13413 0.3492 0.0
C979 C 0.97984 0.13557 0.32483 0.0
C980 C -0.00229 0.12803 0.30132 0.0
C981 C 0.95079 0.12672 0.32559 0.0
C982 C 0.98644 0.11098 0.2787 0.0
C983 C 0.95729 0.10247 0.27903 0.0
H984 H 0.10422 0.624 0.15539 0.0
H985 H 0.10319 0.56041 0.22427 0.0
H986 H 0.05079 0.56775 0.23051 0.0
H987 H 0.0052 0.59264 0.21616 0.0
H988 H 0.00794 0.65855 0.14948 0.0
H989 H 0.05971 0.64979 0.14239 0.0
C990 C 0.09252 0.61172 0.17177 0.0
C991 C 0.10741 0.59161 0.18925 0.0
C992 C 0.0627 0.61642 0.1755 0.0
C993 C 0.09211 0.57608 0.21061 0.0
C994 C 0.06219 0.58021 0.21409 0.0
C995 C 0.0172 0.60488 0.2 0.0
C996 C 0.00287 0.62605 0.18321 0.0
C997 C 0.04722 0.6003 0.1966 0.0
C998 C 0.0186 0.64216 0.16264 0.0
C999 C 0.04816 0.63717 0.15858 0.0
H1000 H 0.3869 0.41528 0.69425 0.0
H1001 H 0.38135 0.3545 0.62309 0.0
H1002 H 0.43047 0.33722 0.63333 0.0
H1003 H 0.47508 0.33971 0.66216 0.0
H1004 H 0.48257 0.40315 0.73069 0.0
H1005 H 0.4325 0.41907 0.72203 0.0
C1006 C 0.39652 0.39824 0.68106 0.0
C1007 C 0.38063 0.38606 0.65805 0.0
C1008 C 0.42498 0.38888 0.68667 0.0
C1009 C 0.3933 0.36424 0.64085 0.0
C1010 C 0.4213 0.35429 0.64675 0.0
C1011 C 0.46561 0.35685 0.67533 0.0
C1012 C 0.48217 0.37007 0.69721 0.0
C1013 C 0.43731 0.36645 0.66959 0.0
C1014 C 0.47003 0.39265 0.71378 0.0
C1015 C 0.44149 0.40174 0.70882 0.0
H1016 H 0.84947 0.60926 0.86578 0.0
H1017 H 0.78122 0.60469 0.92969 0.0
H1018 H 0.77114 0.55417 0.91553 0.0
H1019 H 0.78262 0.51101 0.88514 0.0
H1020 H 0.84954 0.51782 0.81985 0.0
H1021 H 0.85927 0.56778 0.8344 0.0
C1022 C 0.83238 0.59721 0.87666 0.0
C1023 C 0.81627 0.61049 0.89889 0.0
C1024 C 0.82651 0.56859 0.86814 0.0
C1025 C 0.79392 0.59482 0.9125 0.0
C1026 C 0.78822 0.56597 0.90445 0.0
C1027 C 0.79928 0.52352 0.87416 0.0
C1028 C 0.81543 0.51073 0.85155 0.0
C1029 C 0.8045 0.55257 0.88235 0.0
C1030 C 0.83678 0.52719 0.83727 0.0
C1031 C 0.84241 0.55575 0.8456 0.0
H1032 H 0.36086 0.89745 0.11119 0.0
H1033 H 0.28118 0.88621 0.06342 0.0
H1034 H 0.26931 0.93773 0.07037 0.0
H1035 H 0.28109 0.98579 0.09155 0.0
H1036 H 0.35928 0.99526 0.14216 0.0
H1037 H 0.37237 0.94474 0.13244 0.0
C1038 C 0.34097 0.90632 0.10217 0.0
C1039 C 0.32195 0.88817 0.08678 0.0
C1040 C 0.33405 0.93566 0.10678 0.0
C1041 C 0.29612 0.89983 0.07543 0.0
C1042 C 0.28936 0.92926 0.07936 0.0
C1043 C 0.30107 0.97675 0.10018 0.0
C1044 C 0.31925 0.9941 0.11745 0.0
C1045 C 0.30808 0.94737 0.09517 0.0
C1046 C 0.34492 0.98219 0.12888 0.0
C1047 C 0.35243 0.95334 0.12333 0.0
H1048 H 0.13746 0.99143 0.64141 0.0
H1049 H 0.2173 0.97527 0.59521 0.0
H1050 H 0.21825 0.02603 0.57876 0.0
H1051 H 0.19684 0.07544 0.5789 0.0
H1052 H 0.11561 0.09013 0.62329 0.0
H1053 H 0.11473 0.03947 0.63914 0.0
C1054 C 0.15501 -0.00099 0.62764 0.0
C1055 C 0.17738 0.97984 0.61967 0.0
C1056 C 0.1552 0.02795 0.61809 0.0
C1057 C 0.19982 0.98973 0.60156 0.0
C1058 C 0.20042 0.01873 0.59227 0.0
C1059 C 0.179 0.06746 0.59204 0.0
C1060 C 0.15645 0.08645 0.60014 0.0
C1061 C 0.17835 0.03811 0.60065 0.0
C1062 C 0.13322 0.07587 0.61682 0.0
C1063 C 0.13271 0.04694 0.62592 0.0
H1064 H 0.69614 0.38728 0.43172 0.0
H1065 H 0.60685 0.39181 0.40358 0.0
H1066 H 0.61401 0.44152 0.38688 0.0
H1067 H 0.64622 0.48259 0.37727 0.0
H1068 H 0.73468 0.48031 0.40753 0.0
H1069 H 0.72733 0.43094 0.42656 0.0
C1070 C 0.67824 0.39932 0.42219 0.0
C1071 C 0.65111 0.38581 0.41863 0.0
C1072 C 0.6824 0.42819 0.41287 0.0
C1073 C 0.62798 0.40169 0.40654 0.0
C1074 C 0.63205 0.43011 0.39686 0.0
C1075 C 0.66381 0.4713 0.38821 0.0
C1076 C 0.69101 0.48469 0.39074 0.0
C1077 C 0.65926 0.44335 0.39943 0.0
C1078 C 0.71355 0.47023 0.40535 0.0
C1079 C 0.70937 0.44204 0.41612 0.0
loop_
_geom_bond_atom_site_label_1
_geom_bond_atom_site_label_2
_geom_bond_distance
_geom_bond_site_symmetry_2
_ccdc_geom_bond_type
In0 O1 2.294 . S
In0 O2 2.326 . S
In0 O6 2.266 . S
In0 O7 2.326 . S
In0 O8 2.266 . S
In0 O9 2.326 . S
In0 O11 2.294 . S
In0 O12 2.326 . S
O1 In0 2.294 . S
O1 C10 1.240 . S
O2 In0 2.326 . S
O2 C10 1.252 . S
C3 O6 1.252 . S
C3 O7 1.260 . S
C4 O11 1.240 . S
C4 O12 1.252 . S
C5 O8 1.252 . S
C5 O9 1.260 . S
O6 In0 2.266 . S
O6 C3 1.252 . S
O7 In0 2.326 . S
O7 C3 1.260 . S
O8 In0 2.266 . S
O8 C5 1.252 . S
O9 In0 2.326 . S
O9 C5 1.260 . S
C10 O1 1.240 . S
C10 O2 1.252 . S
O11 In0 2.294 . S
O11 C4 1.240 . S
O12 In0 2.326 . S
O12 C4 1.252 . S
In13 O14 2.294 . S
In13 O15 2.326 . S
In13 O19 2.266 . S
In13 O20 2.326 . S
In13 O21 2.266 . S
In13 O22 2.326 . S
In13 O24 2.294 . S
In13 O25 2.326 . S
O14 In13 2.294 . S
O14 C23 1.240 . S
O15 In13 2.326 . S
O15 C23 1.252 . S
C16 O19 1.252 . S
C16 O20 1.260 . S
C17 O24 1.240 . S
C17 O25 1.252 . S
C18 O21 1.252 . S
C18 O22 1.260 . S
O19 In13 2.266 . S
O19 C16 1.252 . S
O20 In13 2.326 . S
O20 C16 1.260 . S
O21 In13 2.266 . S
O21 C18 1.252 . S
O22 In13 2.326 . S
O22 C18 1.260 . S
C23 O14 1.240 . S
C23 O15 1.252 . S
O24 In13 2.294 . S
O24 C17 1.240 . S
O25 In13 2.326 . S
O25 C17 1.252 . S
In26 O27 2.294 . S
In26 O28 2.326 . S
In26 O32 2.266 . S
In26 O33 2.326 . S
In26 O34 2.266 . S
In26 O35 2.326 . S
In26 O37 2.294 . S
In26 O38 2.326 . S
O27 In26 2.294 . S
O27 C36 1.240 . S
O28 In26 2.326 . S
O28 C36 1.252 . S
C29 O32 1.252 . S
C29 O33 1.260 . S
C30 O37 1.240 . S
C30 O38 1.252 . S
C31 O34 1.252 . S
C31 O35 1.260 . S
O32 In26 2.266 . S
O32 C29 1.252 . S
O33 In26 2.326 . S
O33 C29 1.260 . S
O34 In26 2.266 . S
O34 C31 1.252 . S
O35 In26 2.326 . S
O35 C31 1.260 . S
C36 O27 1.240 . S
C36 O28 1.252 . S
O37 In26 2.294 . S
O37 C30 1.240 . S
O38 In26 2.326 . S
O38 C30 1.252 . S
In39 O40 2.294 . S
In39 O41 2.326 . S
In39 O45 2.266 . S
In39 O46 2.326 . S
In39 O47 2.266 . S
In39 O48 2.326 . S
In39 O50 2.294 . S
In39 O51 2.326 . S
O40 In39 2.294 . S
O40 C49 1.240 . S
O41 In39 2.326 . S
O41 C49 1.252 . S
C42 O45 1.252 . S
C42 O46 1.260 . S
C43 O50 1.240 . S
C43 O51 1.252 . S
C44 O47 1.252 . S
C44 O48 1.260 . S
O45 In39 2.266 . S
O45 C42 1.252 . S
O46 In39 2.326 . S
O46 C42 1.260 . S
O47 In39 2.266 . S
O47 C44 1.252 . S
O48 In39 2.326 . S
O48 C44 1.260 . S
C49 O40 1.240 . S
C49 O41 1.252 . S
O50 In39 2.294 . S
O50 C43 1.240 . S
O51 In39 2.326 . S
O51 C43 1.252 . S
In52 O53 2.294 . S
In52 O54 2.326 . S
In52 O58 2.266 . S
In52 O59 2.326 . S
In52 O60 2.266 . S
In52 O61 2.326 . S
In52 O63 2.294 . S
In52 O64 2.326 . S
O53 In52 2.294 . S
O53 C62 1.240 . S
O54 In52 2.326 . S
O54 C62 1.252 . S
C55 O58 1.252 . S
C55 O59 1.260 . S
C56 O63 1.240 . S
C56 O64 1.252 . S
C57 O60 1.252 . S
C57 O61 1.260 . S
O58 In52 2.266 . S
O58 C55 1.252 . S
O59 In52 2.326 . S
O59 C55 1.260 . S
O60 In52 2.266 . S
O60 C57 1.252 . S
O61 In52 2.326 . S
O61 C57 1.260 . S
C62 O53 1.240 . S
C62 O54 1.252 . S
O63 In52 2.294 . S
O63 C56 1.240 . S
O64 In52 2.326 . S
O64 C56 1.252 . S
In65 O66 2.294 . S
In65 O67 2.326 . S
In65 O71 2.266 . S
In65 O72 2.326 . S
In65 O73 2.266 . S
In65 O74 2.326 . S
In65 O76 2.294 . S
In65 O77 2.326 . S
O66 In65 2.294 . S
O66 C75 1.240 . S
O67 In65 2.326 . S
O67 C75 1.252 . S
C68 O71 1.252 . S
C68 O72 1.260 . S
C69 O76 1.240 . S
C69 O77 1.252 . S
C70 O73 1.252 . S
C70 O74 1.260 . S
O71 In65 2.266 . S
O71 C68 1.252 . S
O72 In65 2.326 . S
O72 C68 1.260 . S
O73 In65 2.266 . S
O73 C70 1.252 . S
O74 In65 2.326 . S
O74 C70 1.260 . S
C75 O66 1.240 . S
C75 O67 1.252 . S
O76 In65 2.294 . S
O76 C69 1.240 . S
O77 In65 2.326 . S
O77 C69 1.252 . S
In78 O79 2.294 . S
In78 O80 2.326 . S
In78 O84 2.266 . S
In78 O85 2.326 . S
In78 O86 2.266 . S
In78 O87 2.326 . S
In78 O89 2.294 . S
In78 O90 2.326 . S
O79 In78 2.294 . S
O79 C88 1.240 . S
O80 In78 2.326 . S
O80 C88 1.252 . S
C81 O84 1.252 . S
C81 O85 1.260 . S
C82 O89 1.240 . S
C82 O90 1.252 . S
C83 O86 1.252 . S
C83 O87 1.260 . S
O84 In78 2.266 . S
O84 C81 1.252 . S
O85 In78 2.326 . S
O85 C81 1.260 . S
O86 In78 2.266 . S
O86 C83 1.252 . S
O87 In78 2.326 . S
O87 C83 1.260 . S
C88 O79 1.240 . S
C88 O80 1.252 . S
O89 In78 2.294 . S
O89 C82 1.240 . S
O90 In78 2.326 . S
O90 C82 1.252 . S
In91 O92 2.294 . S
In91 O93 2.326 . S
In91 O97 2.266 . S
In91 O98 2.326 . S
In91 O99 2.266 . S
In91 O100 2.326 . S
In91 O102 2.294 . S
In91 O103 2.326 . S
O92 In91 2.294 . S
O92 C101 1.240 . S
O93 In91 2.326 . S
O93 C101 1.252 . S
C94 O97 1.252 . S
C94 O98 1.260 . S
C95 O102 1.240 . S
C95 O103 1.252 . S
C96 O99 1.252 . S
C96 O100 1.260 . S
O97 In91 2.266 . S
O97 C94 1.252 . S
O98 In91 2.326 . S
O98 C94 1.260 . S
O99 In91 2.266 . S
O99 C96 1.252 . S
O100 In91 2.326 . S
O100 C96 1.260 . S
C101 O92 1.240 . S
C101 O93 1.252 . S
O102 In91 2.294 . S
O102 C95 1.240 . S
O103 In91 2.326 . S
O103 C95 1.252 . S
In104 O105 2.294 . S
In104 O106 2.326 . S
In104 O110 2.266 . S
In104 O111 2.326 . S
In104 O112 2.266 . S
In104 O113 2.326 . S
In104 O115 2.294 . S
In104 O116 2.326 . S
O105 In104 2.294 . S
O105 C114 1.240 . S
O106 In104 2.326 . S
O106 C114 1.252 . S
C107 O110 1.252 . S
C107 O111 1.260 . S
C108 O115 1.240 . S
C108 O116 1.252 . S
C109 O112 1.252 . S
C109 O113 1.260 . S
O110 In104 2.266 . S
O110 C107 1.252 . S
O111 In104 2.326 . S
O111 C107 1.260 . S
O112 In104 2.266 . S
O112 C109 1.252 . S
O113 In104 2.326 . S
O113 C109 1.260 . S
C114 O105 1.240 . S
C114 O106 1.252 . S
O115 In104 2.294 . S
O115 C108 1.240 . S
O116 In104 2.326 . S
O116 C108 1.252 . S
In117 O118 2.294 . S
In117 O119 2.326 . S
In117 O123 2.266 . S
In117 O124 2.326 . S
In117 O125 2.266 . S
In117 O126 2.326 . S
In117 O128 2.294 . S
In117 O129 2.326 . S
O118 In117 2.294 . S
O118 C127 1.240 . S
O119 In117 2.326 . S
O119 C127 1.252 . S
C120 O123 1.252 . S
C120 O124 1.260 . S
C121 O128 1.240 . S
C121 O129 1.252 . S
C122 O125 1.252 . S
C122 O126 1.260 . S
O123 In117 2.266 . S
O123 C120 1.252 . S
O124 In117 2.326 . S
O124 C120 1.260 . S
O125 In117 2.266 . S
O125 C122 1.252 . S
O126 In117 2.326 . S
O126 C122 1.260 . S
C127 O118 1.240 . S
C127 O119 1.252 . S
O128 In117 2.294 . S
O128 C121 1.240 . S
O129 In117 2.326 . S
O129 C121 1.252 . S
In130 O131 2.294 . S
In130 O132 2.326 . S
In130 O136 2.266 . S
In130 O137 2.326 . S
In130 O138 2.266 . S
In130 O139 2.326 . S
In130 O141 2.294 . S
In130 O142 2.326 . S
O131 In130 2.294 . S
O131 C140 1.240 . S
O132 In130 2.326 . S
O132 C140 1.252 . S
C133 O136 1.252 . S
C133 O137 1.260 . S
C134 O141 1.240 . S
C134 O142 1.252 . S
C135 O138 1.252 . S
C135 O139 1.260 . S
O136 In130 2.266 . S
O136 C133 1.252 . S
O137 In130 2.326 . S
O137 C133 1.260 . S
O138 In130 2.266 . S
O138 C135 1.252 . S
O139 In130 2.326 . S
O139 C135 1.260 . S
C140 O131 1.240 . S
C140 O132 1.252 . S
O141 In130 2.294 . S
O141 C134 1.240 . S
O142 In130 2.326 . S
O142 C134 1.252 . S
In143 O144 2.294 . S
In143 O145 2.326 . S
In143 O149 2.266 . S
In143 O150 2.326 . S
In143 O151 2.266 . S
In143 O152 2.326 . S
In143 O154 2.294 . S
In143 O155 2.326 . S
O144 In143 2.294 . S
O144 C153 1.240 . S
O145 In143 2.326 . S
O145 C153 1.252 . S
C146 O149 1.252 . S
C146 O150 1.260 . S
C147 O154 1.240 . S
C147 O155 1.252 . S
C148 O151 1.252 . S
C148 O152 1.260 . S
O149 In143 2.266 . S
O149 C146 1.252 . S
O150 In143 2.326 . S
O150 C146 1.260 . S
O151 In143 2.266 . S
O151 C148 1.252 . S
O152 In143 2.326 . S
O152 C148 1.260 . S
C153 O144 1.240 . S
C153 O145 1.252 . S
O154 In143 2.294 . S
O154 C147 1.240 . S
O155 In143 2.326 . S
O155 C147 1.252 . S
In156 O157 2.294 . S
In156 O158 2.326 . S
In156 O162 2.266 . S
In156 O163 2.326 . S
In156 O164 2.266 . S
In156 O165 2.326 . S
In156 O167 2.294 . S
In156 O168 2.326 . S
O157 In156 2.294 . S
O157 C166 1.240 . S
O158 In156 2.326 . S
O158 C166 1.252 . S
C159 O162 1.252 . S
C159 O163 1.260 . S
C160 O167 1.240 . S
C160 O168 1.252 . S
C161 O164 1.252 . S
C161 O165 1.260 . S
O162 In156 2.266 . S
O162 C159 1.252 . S
O163 In156 2.326 . S
O163 C159 1.260 . S
O164 In156 2.266 . S
O164 C161 1.252 . S
O165 In156 2.326 . S
O165 C161 1.260 . S
C166 O157 1.240 . S
C166 O158 1.252 . S
O167 In156 2.294 . S
O167 C160 1.240 . S
O168 In156 2.326 . S
O168 C160 1.252 . S
In169 O170 2.294 . S
In169 O171 2.326 . S
In169 O175 2.266 . S
In169 O176 2.326 . S
In169 O177 2.266 . S
In169 O178 2.326 . S
In169 O180 2.294 . S
In169 O181 2.326 . S
O170 In169 2.294 . S
O170 C179 1.240 . S
O171 In169 2.326 . S
O171 C179 1.252 . S
C172 O175 1.252 . S
C172 O176 1.260 . S
C173 O180 1.240 . S
C173 O181 1.252 . S
C174 O177 1.252 . S
C174 O178 1.260 . S
O175 In169 2.266 . S
O175 C172 1.252 . S
O176 In169 2.326 . S
O176 C172 1.260 . S
O177 In169 2.266 . S
O177 C174 1.252 . S
O178 In169 2.326 . S
O178 C174 1.260 . S
C179 O170 1.240 . S
C179 O171 1.252 . S
O180 In169 2.294 . S
O180 C173 1.240 . S
O181 In169 2.326 . S
O181 C173 1.252 . S
In182 O183 2.294 . S
In182 O184 2.326 . S
In182 O188 2.266 . S
In182 O189 2.326 . S
In182 O190 2.266 . S
In182 O191 2.326 . S
In182 O193 2.294 . S
In182 O194 2.326 . S
O183 In182 2.294 . S
O183 C192 1.240 . S
O184 In182 2.326 . S
O184 C192 1.252 . S
C185 O188 1.252 . S
C185 O189 1.260 . S
C186 O193 1.240 . S
C186 O194 1.252 . S
C187 O190 1.252 . S
C187 O191 1.260 . S
O188 In182 2.266 . S
O188 C185 1.252 . S
O189 In182 2.326 . S
O189 C185 1.260 . S
O190 In182 2.266 . S
O190 C187 1.252 . S
O191 In182 2.326 . S
O191 C187 1.260 . S
C192 O183 1.240 . S
C192 O184 1.252 . S
O193 In182 2.294 . S
O193 C186 1.240 . S
O194 In182 2.326 . S
O194 C186 1.252 . S
In195 O196 2.294 . S
In195 O197 2.326 . S
In195 O201 2.266 . S
In195 O202 2.326 . S
In195 O203 2.266 . S
In195 O204 2.326 . S
In195 O206 2.294 . S
In195 O207 2.326 . S
O196 In195 2.294 . S
O196 C205 1.240 . S
O197 In195 2.326 . S
O197 C205 1.252 . S
C198 O201 1.252 . S
C198 O202 1.260 . S
C199 O206 1.240 . S
C199 O207 1.252 . S
C200 O203 1.252 . S
C200 O204 1.260 . S
O201 In195 2.266 . S
O201 C198 1.252 . S
O202 In195 2.326 . S
O202 C198 1.260 . S
O203 In195 2.266 . S
O203 C200 1.252 . S
O204 In195 2.326 . S
O204 C200 1.260 . S
C205 O196 1.240 . S
C205 O197 1.252 . S
O206 In195 2.294 . S
O206 C199 1.240 . S
O207 In195 2.326 . S
O207 C199 1.252 . S
In208 O209 2.294 . S
In208 O210 2.326 . S
In208 O214 2.266 . S
In208 O215 2.326 . S
In208 O216 2.266 . S
In208 O217 2.326 . S
In208 O219 2.294 . S
In208 O220 2.326 . S
O209 In208 2.294 . S
O209 C218 1.240 . S
O210 In208 2.326 . S
O210 C218 1.252 . S
C211 O214 1.252 . S
C211 O215 1.260 . S
C212 O219 1.240 . S
C212 O220 1.252 . S
C213 O216 1.252 . S
C213 O217 1.260 . S
O214 In208 2.266 . S
O214 C211 1.252 . S
O215 In208 2.326 . S
O215 C211 1.260 . S
O216 In208 2.266 . S
O216 C213 1.252 . S
O217 In208 2.326 . S
O217 C213 1.260 . S
C218 O209 1.240 . S
C218 O210 1.252 . S
O219 In208 2.294 . S
O219 C212 1.240 . S
O220 In208 2.326 . S
O220 C212 1.252 . S
In221 O222 2.294 . S
In221 O223 2.326 . S
In221 O227 2.266 . S
In221 O228 2.326 . S
In221 O229 2.266 . S
In221 O230 2.326 . S
In221 O232 2.294 . S
In221 O233 2.326 . S
O222 In221 2.294 . S
O222 C231 1.240 . S
O223 In221 2.326 . S
O223 C231 1.252 . S
C224 O227 1.252 . S
C224 O228 1.260 . S
C225 O232 1.240 . S
C225 O233 1.252 . S
C226 O229 1.252 . S
C226 O230 1.260 . S
O227 In221 2.266 . S
O227 C224 1.252 . S
O228 In221 2.326 . S
O228 C224 1.260 . S
O229 In221 2.266 . S
O229 C226 1.252 . S
O230 In221 2.326 . S
O230 C226 1.260 . S
C231 O222 1.240 . S
C231 O223 1.252 . S
O232 In221 2.294 . S
O232 C225 1.240 . S
O233 In221 2.326 . S
O233 C225 1.252 . S
In234 O235 2.294 . S
In234 O236 2.326 . S
In234 O240 2.266 . S
In234 O241 2.326 . S
In234 O242 2.266 . S
In234 O243 2.326 . S
In234 O245 2.294 . S
In234 O246 2.326 . S
O235 In234 2.294 . S
O235 C244 1.240 . S
O236 In234 2.326 . S
O236 C244 1.252 . S
C237 O240 1.252 . S
C237 O241 1.260 . S
C238 O245 1.240 . S
C238 O246 1.252 . S
C239 O242 1.252 . S
C239 O243 1.260 . S
O240 In234 2.266 . S
O240 C237 1.252 . S
O241 In234 2.326 . S
O241 C237 1.260 . S
O242 In234 2.266 . S
O242 C239 1.252 . S
O243 In234 2.326 . S
O243 C239 1.260 . S
C244 O235 1.240 . S
C244 O236 1.252 . S
O245 In234 2.294 . S
O245 C238 1.240 . S
O246 In234 2.326 . S
O246 C238 1.252 . S
In247 O248 2.294 . S
In247 O249 2.326 . S
In247 O253 2.266 . S
In247 O254 2.326 . S
In247 O255 2.266 . S
In247 O256 2.326 . S
In247 O258 2.294 . S
In247 O259 2.326 . S
O248 In247 2.294 . S
O248 C257 1.240 . S
O249 In247 2.326 . S
O249 C257 1.252 . S
C250 O253 1.252 . S
C250 O254 1.260 . S
C251 O258 1.240 . S
C251 O259 1.252 . S
C252 O255 1.252 . S
C252 O256 1.260 . S
O253 In247 2.266 . S
O253 C250 1.252 . S
O254 In247 2.326 . S
O254 C250 1.260 . S
O255 In247 2.266 . S
O255 C252 1.252 . S
O256 In247 2.326 . S
O256 C252 1.260 . S
C257 O248 1.240 . S
C257 O249 1.252 . S
O258 In247 2.294 . S
O258 C251 1.240 . S
O259 In247 2.326 . S
O259 C251 1.252 . S
In260 O261 2.294 . S
In260 O262 2.326 . S
In260 O266 2.266 . S
In260 O267 2.326 . S
In260 O268 2.266 . S
In260 O269 2.326 . S
In260 O271 2.294 . S
In260 O272 2.326 . S
O261 In260 2.294 . S
O261 C270 1.240 . S
O262 In260 2.326 . S
O262 C270 1.252 . S
C263 O266 1.252 . S
C263 O267 1.260 . S
C264 O271 1.240 . S
C264 O272 1.252 . S
C265 O268 1.252 . S
C265 O269 1.260 . S
O266 In260 2.266 . S
O266 C263 1.252 . S
O267 In260 2.326 . S
O267 C263 1.260 . S
O268 In260 2.266 . S
O268 C265 1.252 . S
O269 In260 2.326 . S
O269 C265 1.260 . S
C270 O261 1.240 . S
C270 O262 1.252 . S
O271 In260 2.294 . S
O271 C264 1.240 . S
O272 In260 2.326 . S
O272 C264 1.252 . S
In273 O274 2.294 . S
In273 O275 2.326 . S
In273 O279 2.266 . S
In273 O280 2.326 . S
In273 O281 2.266 . S
In273 O282 2.326 . S
In273 O284 2.294 . S
In273 O285 2.326 . S
O274 In273 2.294 . S
O274 C283 1.240 . S
O275 In273 2.326 . S
O275 C283 1.252 . S
C276 O279 1.252 . S
C276 O280 1.260 . S
C277 O284 1.240 . S
C277 O285 1.252 . S
C278 O281 1.252 . S
C278 O282 1.260 . S
O279 In273 2.266 . S
O279 C276 1.252 . S
O280 In273 2.326 . S
O280 C276 1.260 . S
O281 In273 2.266 . S
O281 C278 1.252 . S
O282 In273 2.326 . S
O282 C278 1.260 . S
C283 O274 1.240 . S
C283 O275 1.252 . S
O284 In273 2.294 . S
O284 C277 1.240 . S
O285 In273 2.326 . S
O285 C277 1.252 . S
In286 O287 2.294 . S
In286 O288 2.326 . S
In286 O292 2.266 . S
In286 O293 2.326 . S
In286 O294 2.266 . S
In286 O295 2.326 . S
In286 O297 2.294 . S
In286 O298 2.326 . S
O287 In286 2.294 . S
O287 C296 1.240 . S
O288 In286 2.326 . S
O288 C296 1.252 . S
C289 O292 1.252 . S
C289 O293 1.260 . S
C290 O297 1.240 . S
C290 O298 1.252 . S
C291 O294 1.252 . S
C291 O295 1.260 . S
O292 In286 2.266 . S
O292 C289 1.252 . S
O293 In286 2.326 . S
O293 C289 1.260 . S
O294 In286 2.266 . S
O294 C291 1.252 . S
O295 In286 2.326 . S
O295 C291 1.260 . S
C296 O287 1.240 . S
C296 O288 1.252 . S
O297 In286 2.294 . S
O297 C290 1.240 . S
O298 In286 2.326 . S
O298 C290 1.252 . S
In299 O300 2.294 . S
In299 O301 2.326 . S
In299 O305 2.266 . S
In299 O306 2.326 . S
In299 O307 2.266 . S
In299 O308 2.326 . S
In299 O310 2.294 . S
In299 O311 2.326 . S
O300 In299 2.294 . S
O300 C309 1.240 . S
O301 In299 2.326 . S
O301 C309 1.252 . S
C302 O305 1.252 . S
C302 O306 1.260 . S
C303 O310 1.240 . S
C303 O311 1.252 . S
C304 O307 1.252 . S
C304 O308 1.260 . S
O305 In299 2.266 . S
O305 C302 1.252 . S
O306 In299 2.326 . S
O306 C302 1.260 . S
O307 In299 2.266 . S
O307 C304 1.252 . S
O308 In299 2.326 . S
O308 C304 1.260 . S
C309 O300 1.240 . S
C309 O301 1.252 . S
O310 In299 2.294 . S
O310 C303 1.240 . S
O311 In299 2.326 . S
O311 C303 1.252 . S
H312 C318 0.930 . S
H313 C321 0.930 . S
H314 C322 0.930 . S
H315 C323 0.930 . S
H316 C326 0.930 . S
H317 C327 0.930 . S
C318 H312 0.930 . S
C318 C319 1.355 . S
C318 C320 1.415 . S
C319 C318 1.355 . S
C319 C321 1.419 . S
C320 C318 1.415 . S
C320 C325 1.425 . S
C320 C327 1.409 . S
C321 H313 0.930 . S
C321 C319 1.419 . S
C321 C322 1.362 . S
C322 H314 0.930 . S
C322 C321 1.362 . S
C322 C325 1.409 . S
C323 H315 0.930 . S
C323 C324 1.355 . S
C323 C325 1.415 . S
C324 C323 1.355 . S
C324 C326 1.419 . S
C325 C320 1.425 . S
C325 C322 1.409 . S
C325 C323 1.415 . S
C326 H316 0.930 . S
C326 C324 1.419 . S
C326 C327 1.362 . S
C327 H317 0.930 . S
C327 C320 1.409 . S
C327 C326 1.362 . S
H328 C334 0.930 . S
H329 C337 0.930 . S
H330 C338 0.930 . S
H331 C339 0.930 . S
H332 C342 0.930 . S
H333 C343 0.930 . S
C334 H328 0.930 . S
C334 C335 1.355 . S
C334 C336 1.415 . S
C335 C334 1.355 . S
C335 C337 1.419 . S
C336 C334 1.415 . S
C336 C341 1.425 . S
C336 C343 1.409 . S
C337 H329 0.930 . S
C337 C335 1.419 . S
C337 C338 1.362 . S
C338 H330 0.930 . S
C338 C337 1.362 . S
C338 C341 1.409 . S
C339 H331 0.930 . S
C339 C340 1.355 . S
C339 C341 1.415 . S
C340 C339 1.355 . S
C340 C342 1.419 . S
C341 C336 1.425 . S
C341 C338 1.409 . S
C341 C339 1.415 . S
C342 H332 0.930 . S
C342 C340 1.419 . S
C342 C343 1.362 . S
C343 H333 0.930 . S
C343 C336 1.409 . S
C343 C342 1.362 . S
H344 C350 0.930 . S
H345 C353 0.930 . S
H346 C354 0.930 . S
H347 C355 0.930 . S
H348 C358 0.930 . S
H349 C359 0.930 . S
C350 H344 0.930 . S
C350 C351 1.355 . S
C350 C352 1.415 . S
C351 C350 1.355 . S
C351 C353 1.419 . S
C352 C350 1.415 . S
C352 C357 1.425 . S
C352 C359 1.409 . S
C353 H345 0.930 . S
C353 C351 1.419 . S
C353 C354 1.362 . S
C354 H346 0.930 . S
C354 C353 1.362 . S
C354 C357 1.409 . S
C355 H347 0.930 . S
C355 C356 1.355 . S
C355 C357 1.415 . S
C356 C355 1.355 . S
C356 C358 1.419 . S
C357 C352 1.425 . S
C357 C354 1.409 . S
C357 C355 1.415 . S
C358 H348 0.930 . S
C358 C356 1.419 . S
C358 C359 1.362 . S
C359 H349 0.930 . S
C359 C352 1.409 . S
C359 C358 1.362 . S
H360 C366 0.930 . S
H361 C369 0.930 . S
H362 C370 0.930 . S
H363 C371 0.930 . S
H364 C374 0.930 . S
H365 C375 0.930 . S
C366 H360 0.930 . S
C366 C367 1.355 . S
C366 C368 1.415 . S
C367 C366 1.355 . S
C367 C369 1.419 . S
C368 C366 1.415 . S
C368 C373 1.425 . S
C368 C375 1.409 . S
C369 H361 0.930 . S
C369 C367 1.419 . S
C369 C370 1.362 . S
C370 H362 0.930 . S
C370 C369 1.362 . S
C370 C373 1.409 . S
C371 H363 0.930 . S
C371 C372 1.355 . S
C371 C373 1.415 . S
C372 C371 1.355 . S
C372 C374 1.419 . S
C373 C368 1.425 . S
C373 C370 1.409 . S
C373 C371 1.415 . S
C374 H364 0.930 . S
C374 C372 1.419 . S
C374 C375 1.362 . S
C375 H365 0.930 . S
C375 C368 1.409 . S
C375 C374 1.362 . S
H376 C382 0.930 . S
H377 C385 0.930 . S
H378 C386 0.930 . S
H379 C387 0.930 . S
H380 C390 0.930 . S
H381 C391 0.930 . S
C382 H376 0.930 . S
C382 C383 1.355 . S
C382 C384 1.415 . S
C383 C382 1.355 . S
C383 C385 1.419 . S
C384 C382 1.415 . S
C384 C389 1.425 . S
C384 C391 1.409 . S
C385 H377 0.930 . S
C385 C383 1.419 . S
C385 C386 1.362 . S
C386 H378 0.930 . S
C386 C385 1.362 . S
C386 C389 1.409 . S
C387 H379 0.930 . S
C387 C388 1.355 . S
C387 C389 1.415 . S
C388 C387 1.355 . S
C388 C390 1.419 . S
C389 C384 1.425 . S
C389 C386 1.409 . S
C389 C387 1.415 . S
C390 H380 0.930 . S
C390 C388 1.419 . S
C390 C391 1.362 . S
C391 H381 0.930 . S
C391 C384 1.409 . S
C391 C390 1.362 . S
H392 C398 0.930 . S
H393 C401 0.930 . S
H394 C402 0.930 . S
H395 C403 0.930 . S
H396 C406 0.930 . S
H397 C407 0.930 . S
C398 H392 0.930 . S
C398 C399 1.355 . S
C398 C400 1.415 . S
C399 C398 1.355 . S
C399 C401 1.419 . S
C400 C398 1.415 . S
C400 C405 1.425 . S
C400 C407 1.409 . S
C401 H393 0.930 . S
C401 C399 1.419 . S
C401 C402 1.362 . S
C402 H394 0.930 . S
C402 C401 1.362 . S
C402 C405 1.409 . S
C403 H395 0.930 . S
C403 C404 1.355 . S
C403 C405 1.415 . S
C404 C403 1.355 . S
C404 C406 1.419 . S
C405 C400 1.425 . S
C405 C402 1.409 . S
C405 C403 1.415 . S
C406 H396 0.930 . S
C406 C404 1.419 . S
C406 C407 1.362 . S
C407 H397 0.930 . S
C407 C400 1.409 . S
C407 C406 1.362 . S
H408 C414 0.930 . S
H409 C417 0.930 . S
H410 C418 0.930 . S
H411 C419 0.930 . S
H412 C422 0.930 . S
H413 C423 0.930 . S
C414 H408 0.930 . S
C414 C415 1.355 . S
C414 C416 1.415 . S
C415 C414 1.355 . S
C415 C417 1.419 . S
C416 C414 1.415 . S
C416 C421 1.425 . S
C416 C423 1.409 . S
C417 H409 0.930 . S
C417 C415 1.419 . S
C417 C418 1.362 . S
C418 H410 0.930 . S
C418 C417 1.362 . S
C418 C421 1.409 . S
C419 H411 0.930 . S
C419 C420 1.355 . S
C419 C421 1.415 . S
C420 C419 1.355 . S
C420 C422 1.419 . S
C421 C416 1.425 . S
C421 C418 1.409 . S
C421 C419 1.415 . S
C422 H412 0.930 . S
C422 C420 1.419 . S
C422 C423 1.362 . S
C423 H413 0.930 . S
C423 C416 1.409 . S
C423 C422 1.362 . S
H424 C430 0.930 . S
H425 C433 0.930 . S
H426 C434 0.930 . S
H427 C435 0.930 . S
H428 C438 0.930 . S
H429 C439 0.930 . S
C430 H424 0.930 . S
C430 C431 1.355 . S
C430 C432 1.415 . S
C431 C430 1.355 . S
C431 C433 1.419 . S
C432 C430 1.415 . S
C432 C437 1.425 . S
C432 C439 1.409 . S
C433 H425 0.930 . S
C433 C431 1.419 . S
C433 C434 1.362 . S
C434 H426 0.930 . S
C434 C433 1.362 . S
C434 C437 1.409 . S
C435 H427 0.930 . S
C435 C436 1.355 . S
C435 C437 1.415 . S
C436 C435 1.355 . S
C436 C438 1.419 . S
C437 C432 1.425 . S
C437 C434 1.409 . S
C437 C435 1.415 . S
C438 H428 0.930 . S
C438 C436 1.419 . S
C438 C439 1.362 . S
C439 H429 0.930 . S
C439 C432 1.409 . S
C439 C438 1.362 . S
H440 C446 0.930 . S
H441 C449 0.930 . S
H442 C450 0.930 . S
H443 C451 0.930 . S
H444 C454 0.930 . S
H445 C455 0.930 . S
C446 H440 0.930 . S
C446 C447 1.355 . S
C446 C448 1.415 . S
C447 C446 1.355 . S
C447 C449 1.419 . S
C448 C446 1.415 . S
C448 C453 1.425 . S
C448 C455 1.409 . S
C449 H441 0.930 . S
C449 C447 1.419 . S
C449 C450 1.362 . S
C450 H442 0.930 . S
C450 C449 1.362 . S
C450 C453 1.409 . S
C451 H443 0.930 . S
C451 C452 1.355 . S
C451 C453 1.415 . S
C452 C451 1.355 . S
C452 C454 1.419 . S
C453 C448 1.425 . S
C453 C450 1.409 . S
C453 C451 1.415 . S
C454 H444 0.930 . S
C454 C452 1.419 . S
C454 C455 1.362 . S
C455 H445 0.930 . S
C455 C448 1.409 . S
C455 C454 1.362 . S
H456 C462 0.930 . S
H457 C465 0.930 . S
H458 C466 0.930 . S
H459 C467 0.930 . S
H460 C470 0.930 . S
H461 C471 0.930 . S
C462 H456 0.930 . S
C462 C463 1.355 . S
C462 C464 1.415 . S
C463 C462 1.355 . S
C463 C465 1.419 . S
C464 C462 1.415 . S
C464 C469 1.425 . S
C464 C471 1.409 . S
C465 H457 0.930 . S
C465 C463 1.419 . S
C465 C466 1.362 . S
C466 H458 0.930 . S
C466 C465 1.362 . S
C466 C469 1.409 . S
C467 H459 0.930 . S
C467 C468 1.355 . S
C467 C469 1.415 . S
C468 C467 1.355 . S
C468 C470 1.419 . S
C469 C464 1.425 . S
C469 C466 1.409 . S
C469 C467 1.415 . S
C470 H460 0.930 . S
C470 C468 1.419 . S
C470 C471 1.362 . S
C471 H461 0.930 . S
C471 C464 1.409 . S
C471 C470 1.362 . S
H472 C478 0.930 . S
H473 C481 0.930 . S
H474 C482 0.930 . S
H475 C483 0.930 . S
H476 C486 0.930 . S
H477 C487 0.930 . S
C478 H472 0.930 . S
C478 C479 1.355 . S
C478 C480 1.415 . S
C479 C478 1.355 . S
C479 C481 1.419 . S
C480 C478 1.415 . S
C480 C485 1.425 . S
C480 C487 1.409 . S
C481 H473 0.930 . S
C481 C479 1.419 . S
C481 C482 1.362 . S
C482 H474 0.930 . S
C482 C481 1.362 . S
C482 C485 1.409 . S
C483 H475 0.930 . S
C483 C484 1.355 . S
C483 C485 1.415 . S
C484 C483 1.355 . S
C484 C486 1.419 . S
C485 C480 1.425 . S
C485 C482 1.409 . S
C485 C483 1.415 . S
C486 H476 0.930 . S
C486 C484 1.419 . S
C486 C487 1.362 . S
C487 H477 0.930 . S
C487 C480 1.409 . S
C487 C486 1.362 . S
H488 C494 0.930 . S
H489 C497 0.930 . S
H490 C498 0.930 . S
H491 C499 0.930 . S
H492 C502 0.930 . S
H493 C503 0.930 . S
C494 H488 0.930 . S
C494 C495 1.355 . S
C494 C496 1.415 . S
C495 C494 1.355 . S
C495 C497 1.419 . S
C496 C494 1.415 . S
C496 C501 1.425 . S
C496 C503 1.409 . S
C497 H489 0.930 . S
C497 C495 1.419 . S
C497 C498 1.362 . S
C498 H490 0.930 . S
C498 C497 1.362 . S
C498 C501 1.409 . S
C499 H491 0.930 . S
C499 C500 1.355 . S
C499 C501 1.415 . S
C500 C499 1.355 . S
C500 C502 1.419 . S
C501 C496 1.425 . S
C501 C498 1.409 . S
C501 C499 1.415 . S
C502 H492 0.930 . S
C502 C500 1.419 . S
C502 C503 1.362 . S
C503 H493 0.930 . S
C503 C496 1.409 . S
C503 C502 1.362 . S
H504 C510 0.930 . S
H505 C513 0.930 . S
H506 C514 0.930 . S
H507 C515 0.930 . S
H508 C518 0.930 . S
H509 C519 0.930 . S
C510 H504 0.930 . S
C510 C511 1.355 . S
C510 C512 1.415 . S
C511 C510 1.355 . S
C511 C513 1.419 . S
C512 C510 1.415 . S
C512 C517 1.425 . S
C512 C519 1.409 . S
C513 H505 0.930 . S
C513 C511 1.419 . S
C513 C514 1.362 . S
C514 H506 0.930 . S
C514 C513 1.362 . S
C514 C517 1.409 . S
C515 H507 0.930 . S
C515 C516 1.355 . S
C515 C517 1.415 . S
C516 C515 1.355 . S
C516 C518 1.419 . S
C517 C512 1.425 . S
C517 C514 1.409 . S
C517 C515 1.415 . S
C518 H508 0.930 . S
C518 C516 1.419 . S
C518 C519 1.362 . S
C519 H509 0.930 . S
C519 C512 1.409 . S
C519 C518 1.362 . S
H520 C526 0.930 . S
H521 C529 0.930 . S
H522 C530 0.930 . S
H523 C531 0.930 . S
H524 C534 0.930 . S
H525 C535 0.930 . S
C526 H520 0.930 . S
C526 C527 1.355 . S
C526 C528 1.415 . S
C527 C526 1.355 . S
C527 C529 1.419 . S
C528 C526 1.415 . S
C528 C533 1.425 . S
C528 C535 1.409 . S
C529 H521 0.930 . S
C529 C527 1.419 . S
C529 C530 1.362 . S
C530 H522 0.930 . S
C530 C529 1.362 . S
C530 C533 1.409 . S
C531 H523 0.930 . S
C531 C532 1.355 . S
C531 C533 1.415 . S
C532 C531 1.355 . S
C532 C534 1.419 . S
C533 C528 1.425 . S
C533 C530 1.409 . S
C533 C531 1.415 . S
C534 H524 0.930 . S
C534 C532 1.419 . S
C534 C535 1.362 . S
C535 H525 0.930 . S
C535 C528 1.409 . S
C535 C534 1.362 . S
H536 C542 0.930 . S
H537 C545 0.930 . S
H538 C546 0.930 . S
H539 C547 0.930 . S
H540 C550 0.930 . S
H541 C551 0.930 . S
C542 H536 0.930 . S
C542 C543 1.355 . S
C542 C544 1.415 . S
C543 C542 1.355 . S
C543 C545 1.419 . S
C544 C542 1.415 . S
C544 C549 1.425 . S
C544 C551 1.409 . S
C545 H537 0.930 . S
C545 C543 1.419 . S
C545 C546 1.362 . S
C546 H538 0.930 . S
C546 C545 1.362 . S
C546 C549 1.409 . S
C547 H539 0.930 . S
C547 C548 1.355 . S
C547 C549 1.415 . S
C548 C547 1.355 . S
C548 C550 1.419 . S
C549 C544 1.425 . S
C549 C546 1.409 . S
C549 C547 1.415 . S
C550 H540 0.930 . S
C550 C548 1.419 . S
C550 C551 1.362 . S
C551 H541 0.930 . S
C551 C544 1.409 . S
C551 C550 1.362 . S
H552 C558 0.930 . S
H553 C561 0.930 . S
H554 C562 0.930 . S
H555 C563 0.930 . S
H556 C566 0.930 . S
H557 C567 0.930 . S
C558 H552 0.930 . S
C558 C559 1.355 . S
C558 C560 1.415 . S
C559 C558 1.355 . S
C559 C561 1.419 . S
C560 C558 1.415 . S
C560 C565 1.425 . S
C560 C567 1.409 . S
C561 H553 0.930 . S
C561 C559 1.419 . S
C561 C562 1.362 . S
C562 H554 0.930 . S
C562 C561 1.362 . S
C562 C565 1.409 . S
C563 H555 0.930 . S
C563 C564 1.355 . S
C563 C565 1.415 . S
C564 C563 1.355 . S
C564 C566 1.419 . S
C565 C560 1.425 . S
C565 C562 1.409 . S
C565 C563 1.415 . S
C566 H556 0.930 . S
C566 C564 1.419 . S
C566 C567 1.362 . S
C567 H557 0.930 . S
C567 C560 1.409 . S
C567 C566 1.362 . S
H568 C574 0.930 . S
H569 C577 0.930 . S
H570 C578 0.930 . S
H571 C579 0.930 . S
H572 C582 0.930 . S
H573 C583 0.930 . S
C574 H568 0.930 . S
C574 C575 1.355 . S
C574 C576 1.415 . S
C575 C574 1.355 . S
C575 C577 1.419 . S
C576 C574 1.415 . S
C576 C581 1.425 . S
C576 C583 1.409 . S
C577 H569 0.930 . S
C577 C575 1.419 . S
C577 C578 1.362 . S
C578 H570 0.930 . S
C578 C577 1.362 . S
C578 C581 1.409 . S
C579 H571 0.930 . S
C579 C580 1.355 . S
C579 C581 1.415 . S
C580 C579 1.355 . S
C580 C582 1.419 . S
C581 C576 1.425 . S
C581 C578 1.409 . S
C581 C579 1.415 . S
C582 H572 0.930 . S
C582 C580 1.419 . S
C582 C583 1.362 . S
C583 H573 0.930 . S
C583 C576 1.409 . S
C583 C582 1.362 . S
H584 C590 0.930 . S
H585 C593 0.930 . S
H586 C594 0.930 . S
H587 C595 0.930 . S
H588 C598 0.930 . S
H589 C599 0.930 . S
C590 H584 0.930 . S
C590 C591 1.355 . S
C590 C592 1.415 . S
C591 C590 1.355 . S
C591 C593 1.419 . S
C592 C590 1.415 . S
C592 C597 1.425 . S
C592 C599 1.409 . S
C593 H585 0.930 . S
C593 C591 1.419 . S
C593 C594 1.362 . S
C594 H586 0.930 . S
C594 C593 1.362 . S
C594 C597 1.409 . S
C595 H587 0.930 . S
C595 C596 1.355 . S
C595 C597 1.415 . S
C596 C595 1.355 . S
C596 C598 1.419 . S
C597 C592 1.425 . S
C597 C594 1.409 . S
C597 C595 1.415 . S
C598 H588 0.930 . S
C598 C596 1.419 . S
C598 C599 1.362 . S
C599 H589 0.930 . S
C599 C592 1.409 . S
C599 C598 1.362 . S
H600 C606 0.930 . S
H601 C609 0.930 . S
H602 C610 0.930 . S
H603 C611 0.930 . S
H604 C614 0.930 . S
H605 C615 0.930 . S
C606 H600 0.930 . S
C606 C607 1.355 . S
C606 C608 1.415 . S
C607 C606 1.355 . S
C607 C609 1.419 . S
C608 C606 1.415 . S
C608 C613 1.425 . S
C608 C615 1.409 . S
C609 H601 0.930 . S
C609 C607 1.419 . S
C609 C610 1.362 . S
C610 H602 0.930 . S
C610 C609 1.362 . S
C610 C613 1.409 . S
C611 H603 0.930 . S
C611 C612 1.355 . S
C611 C613 1.415 . S
C612 C611 1.355 . S
C612 C614 1.419 . S
C613 C608 1.425 . S
C613 C610 1.409 . S
C613 C611 1.415 . S
C614 H604 0.930 . S
C614 C612 1.419 . S
C614 C615 1.362 . S
C615 H605 0.930 . S
C615 C608 1.409 . S
C615 C614 1.362 . S
H616 C622 0.930 . S
H617 C625 0.930 . S
H618 C626 0.930 . S
H619 C627 0.930 . S
H620 C630 0.930 . S
H621 C631 0.930 . S
C622 H616 0.930 . S
C622 C623 1.355 . S
C622 C624 1.415 . S
C623 C622 1.355 . S
C623 C625 1.419 . S
C624 C622 1.415 . S
C624 C629 1.425 . S
C624 C631 1.409 . S
C625 H617 0.930 . S
C625 C623 1.419 . S
C625 C626 1.362 . S
C626 H618 0.930 . S
C626 C625 1.362 . S
C626 C629 1.409 . S
C627 H619 0.930 . S
C627 C628 1.355 . S
C627 C629 1.415 . S
C628 C627 1.355 . S
C628 C630 1.419 . S
C629 C624 1.425 . S
C629 C626 1.409 . S
C629 C627 1.415 . S
C630 H620 0.930 . S
C630 C628 1.419 . S
C630 C631 1.362 . S
C631 H621 0.930 . S
C631 C624 1.409 . S
C631 C630 1.362 . S
H632 C638 0.930 . S
H633 C641 0.930 . S
H634 C642 0.930 . S
H635 C643 0.930 . S
H636 C646 0.930 . S
H637 C647 0.930 . S
C638 H632 0.930 . S
C638 C639 1.355 . S
C638 C640 1.415 . S
C639 C638 1.355 . S
C639 C641 1.419 . S
C640 C638 1.415 . S
C640 C645 1.425 . S
C640 C647 1.409 . S
C641 H633 0.930 . S
C641 C639 1.419 . S
C641 C642 1.362 . S
C642 H634 0.930 . S
C642 C641 1.362 . S
C642 C645 1.409 . S
C643 H635 0.930 . S
C643 C644 1.355 . S
C643 C645 1.415 . S
C644 C643 1.355 . S
C644 C646 1.419 . S
C645 C640 1.425 . S
C645 C642 1.409 . S
C645 C643 1.415 . S
C646 H636 0.930 . S
C646 C644 1.419 . S
C646 C647 1.362 . S
C647 H637 0.930 . S
C647 C640 1.409 . S
C647 C646 1.362 . S
H648 C654 0.930 . S
H649 C657 0.930 . S
H650 C658 0.930 . S
H651 C659 0.930 . S
H652 C662 0.930 . S
H653 C663 0.930 . S
C654 H648 0.930 . S
C654 C655 1.355 . S
C654 C656 1.415 . S
C655 C654 1.355 . S
C655 C657 1.419 . S
C656 C654 1.415 . S
C656 C661 1.425 . S
C656 C663 1.409 . S
C657 H649 0.930 . S
C657 C655 1.419 . S
C657 C658 1.362 . S
C658 H650 0.930 . S
C658 C657 1.362 . S
C658 C661 1.409 . S
C659 H651 0.930 . S
C659 C660 1.355 . S
C659 C661 1.415 . S
C660 C659 1.355 . S
C660 C662 1.419 . S
C661 C656 1.425 . S
C661 C658 1.409 . S
C661 C659 1.415 . S
C662 H652 0.930 . S
C662 C660 1.419 . S
C662 C663 1.362 . S
C663 H653 0.930 . S
C663 C656 1.409 . S
C663 C662 1.362 . S
H664 C670 0.930 . S
H665 C673 0.930 . S
H666 C674 0.930 . S
H667 C675 0.930 . S
H668 C678 0.930 . S
H669 C679 0.930 . S
C670 H664 0.930 . S
C670 C671 1.355 . S
C670 C672 1.415 . S
C671 C670 1.355 . S
C671 C673 1.419 . S
C672 C670 1.415 . S
C672 C677 1.425 . S
C672 C679 1.409 . S
C673 H665 0.930 . S
C673 C671 1.419 . S
C673 C674 1.362 . S
C674 H666 0.930 . S
C674 C673 1.362 . S
C674 C677 1.409 . S
C675 H667 0.930 . S
C675 C676 1.355 . S
C675 C677 1.415 . S
C676 C675 1.355 . S
C676 C678 1.419 . S
C677 C672 1.425 . S
C677 C674 1.409 . S
C677 C675 1.415 . S
C678 H668 0.930 . S
C678 C676 1.419 . S
C678 C679 1.362 . S
C679 H669 0.930 . S
C679 C672 1.409 . S
C679 C678 1.362 . S
H680 C686 0.930 . S
H681 C689 0.930 . S
H682 C690 0.930 . S
H683 C691 0.930 . S
H684 C694 0.930 . S
H685 C695 0.930 . S
C686 H680 0.930 . S
C686 C687 1.355 . S
C686 C688 1.415 . S
C687 C686 1.355 . S
C687 C689 1.419 . S
C688 C686 1.415 . S
C688 C693 1.425 . S
C688 C695 1.409 . S
C689 H681 0.930 . S
C689 C687 1.419 . S
C689 C690 1.362 . S
C690 H682 0.930 . S
C690 C689 1.362 . S
C690 C693 1.409 . S
C691 H683 0.930 . S
C691 C692 1.355 . S
C691 C693 1.415 . S
C692 C691 1.355 . S
C692 C694 1.419 . S
C693 C688 1.425 . S
C693 C690 1.409 . S
C693 C691 1.415 . S
C694 H684 0.930 . S
C694 C692 1.419 . S
C694 C695 1.362 . S
C695 H685 0.930 . S
C695 C688 1.409 . S
C695 C694 1.362 . S
H696 C702 0.930 . S
H697 C705 0.930 . S
H698 C706 0.930 . S
H699 C707 0.930 . S
H700 C710 0.930 . S
H701 C711 0.930 . S
C702 H696 0.930 . S
C702 C703 1.355 . S
C702 C704 1.415 . S
C703 C702 1.355 . S
C703 C705 1.419 . S
C704 C702 1.415 . S
C704 C709 1.425 . S
C704 C711 1.409 . S
C705 H697 0.930 . S
C705 C703 1.419 . S
C705 C706 1.362 . S
C706 H698 0.930 . S
C706 C705 1.362 . S
C706 C709 1.409 . S
C707 H699 0.930 . S
C707 C708 1.355 . S
C707 C709 1.415 . S
C708 C707 1.355 . S
C708 C710 1.419 . S
C709 C704 1.425 . S
C709 C706 1.409 . S
C709 C707 1.415 . S
C710 H700 0.930 . S
C710 C708 1.419 . S
C710 C711 1.362 . S
C711 H701 0.930 . S
C711 C704 1.409 . S
C711 C710 1.362 . S
H712 C718 0.930 . S
H713 C721 0.930 . S
H714 C722 0.930 . S
H715 C723 0.930 . S
H716 C726 0.930 . S
H717 C727 0.930 . S
C718 H712 0.930 . S
C718 C719 1.355 1_556 S
C718 C720 1.415 . S
C719 C718 1.355 1_554 S
C719 C721 1.419 . S
C720 C718 1.415 . S
C720 C725 1.425 . S
C720 C727 1.409 . S
C721 H713 0.930 . S
C721 C719 1.419 . S
C721 C722 1.362 1_554 S
C722 H714 0.930 . S
C722 C721 1.362 1_556 S
C722 C725 1.409 . S
C723 H715 0.930 . S
C723 C724 1.355 . S
C723 C725 1.415 . S
C724 C723 1.355 . S
C724 C726 1.419 . S
C725 C720 1.425 . S
C725 C722 1.409 . S
C725 C723 1.415 . S
C726 H716 0.930 . S
C726 C724 1.419 . S
C726 C727 1.362 . S
C727 H717 0.930 . S
C727 C720 1.409 . S
C727 C726 1.362 . S
H728 C734 0.930 . S
H729 C737 0.930 . S
H730 C738 0.930 . S
H731 C739 0.930 . S
H732 C742 0.930 . S
H733 C743 0.930 . S
C734 H728 0.930 . S
C734 C735 1.355 . S
C734 C736 1.415 . S
C735 C734 1.355 . S
C735 C737 1.419 . S
C736 C734 1.415 . S
C736 C741 1.425 . S
C736 C743 1.409 . S
C737 H729 0.930 . S
C737 C735 1.419 . S
C737 C738 1.362 . S
C738 H730 0.930 . S
C738 C737 1.362 . S
C738 C741 1.409 . S
C739 H731 0.930 . S
C739 C740 1.355 . S
C739 C741 1.415 . S
C740 C739 1.355 . S
C740 C742 1.419 . S
C741 C736 1.425 . S
C741 C738 1.409 . S
C741 C739 1.415 . S
C742 H732 0.930 . S
C742 C740 1.419 . S
C742 C743 1.362 . S
C743 H733 0.930 . S
C743 C736 1.409 . S
C743 C742 1.362 . S
H744 C750 0.930 . S
H745 C753 0.930 . S
H746 C754 0.930 . S
H747 C755 0.930 . S
H748 C758 0.930 . S
H749 C759 0.930 . S
C750 H744 0.930 . S
C750 C751 1.355 . S
C750 C752 1.415 . S
C751 C750 1.355 . S
C751 C753 1.419 . S
C752 C750 1.415 . S
C752 C757 1.425 . S
C752 C759 1.409 . S
C753 H745 0.930 . S
C753 C751 1.419 . S
C753 C754 1.362 . S
C754 H746 0.930 . S
C754 C753 1.362 . S
C754 C757 1.409 . S
C755 H747 0.930 . S
C755 C756 1.355 1_554 S
C755 C757 1.415 . S
C756 C755 1.355 1_556 S
C756 C758 1.419 . S
C757 C752 1.425 . S
C757 C754 1.409 . S
C757 C755 1.415 . S
C758 H748 0.930 . S
C758 C756 1.419 . S
C758 C759 1.362 1_556 S
C759 H749 0.930 . S
C759 C752 1.409 . S
C759 C758 1.362 1_554 S
H760 C766 0.930 . S
H761 C769 0.930 . S
H762 C770 0.930 . S
H763 C771 0.930 . S
H764 C774 0.930 . S
H765 C775 0.930 . S
C766 H760 0.930 . S
C766 C767 1.355 . S
C766 C768 1.415 . S
C767 C766 1.355 . S
C767 C769 1.419 . S
C768 C766 1.415 . S
C768 C773 1.425 . S
C768 C775 1.409 . S
C769 H761 0.930 . S
C769 C767 1.419 . S
C769 C770 1.362 . S
C770 H762 0.930 . S
C770 C769 1.362 . S
C770 C773 1.409 . S
C771 H763 0.930 . S
C771 C772 1.355 . S
C771 C773 1.415 . S
C772 C771 1.355 . S
C772 C774 1.419 . S
C773 C768 1.425 . S
C773 C770 1.409 . S
C773 C771 1.415 . S
C774 H764 0.930 . S
C774 C772 1.419 . S
C774 C775 1.362 . S
C775 H765 0.930 . S
C775 C768 1.409 . S
C775 C774 1.362 . S
H776 C782 0.923 1_655 S
H777 C785 0.938 . S
H778 C786 0.930 . S
H779 C787 0.930 . S
H780 C790 0.930 . S
H781 C791 0.930 . S
C782 H776 0.923 1_455 S
C782 C783 1.348 1_455 S
C782 C784 1.427 . S
C783 C782 1.348 1_655 S
C783 C785 1.427 . S
C784 C782 1.427 . S
C784 C789 1.425 . S
C784 C791 1.409 . S
C785 H777 0.938 . S
C785 C783 1.427 . S
C785 C786 1.347 1_655 S
C786 H778 0.930 . S
C786 C785 1.347 1_455 S
C786 C789 1.409 . S
C787 H779 0.930 . S
C787 C788 1.355 . S
C787 C789 1.415 . S
C788 C787 1.355 . S
C788 C790 1.419 . S
C789 C784 1.425 . S
C789 C786 1.409 . S
C789 C787 1.415 . S
C790 H780 0.930 . S
C790 C788 1.419 . S
C790 C791 1.362 . S
C791 H781 0.930 . S
C791 C784 1.409 . S
C791 C790 1.362 . S
H792 C798 0.930 1_455 S
H793 C801 0.930 . S
H794 C802 0.930 . S
H795 C803 0.930 . S
H796 C806 0.930 . S
H797 C807 0.930 . S
C798 H792 0.930 1_655 S
C798 C799 1.355 1_655 S
C798 C800 1.415 . S
C799 C798 1.355 1_455 S
C799 C801 1.419 . S
C800 C798 1.415 . S
C800 C805 1.425 . S
C800 C807 1.409 . S
C801 H793 0.930 . S
C801 C799 1.419 . S
C801 C802 1.362 1_455 S
C802 H794 0.930 . S
C802 C801 1.362 1_655 S
C802 C805 1.409 . S
C803 H795 0.930 . S
C803 C804 1.355 . S
C803 C805 1.415 . S
C804 C803 1.355 . S
C804 C806 1.419 . S
C805 C800 1.425 . S
C805 C802 1.409 . S
C805 C803 1.415 . S
C806 H796 0.930 . S
C806 C804 1.419 . S
C806 C807 1.362 . S
C807 H797 0.930 . S
C807 C800 1.409 . S
C807 C806 1.362 . S
H808 C814 0.930 . S
H809 C817 0.930 . S
H810 C818 0.930 . S
H811 C819 0.930 . S
H812 C822 0.930 . S
H813 C823 0.930 . S
C814 H808 0.930 . S
C814 C815 1.355 . S
C814 C816 1.415 . S
C815 C814 1.355 . S
C815 C817 1.419 . S
C816 C814 1.415 . S
C816 C821 1.425 . S
C816 C823 1.409 . S
C817 H809 0.930 . S
C817 C815 1.419 . S
C817 C818 1.362 . S
C818 H810 0.930 . S
C818 C817 1.362 . S
C818 C821 1.409 . S
C819 H811 0.930 . S
C819 C820 1.355 . S
C819 C821 1.415 . S
C820 C819 1.355 . S
C820 C822 1.419 . S
C821 C816 1.425 . S
C821 C818 1.409 . S
C821 C819 1.415 . S
C822 H812 0.930 . S
C822 C820 1.419 . S
C822 C823 1.362 . S
C823 H813 0.930 . S
C823 C816 1.409 . S
C823 C822 1.362 . S
H824 C830 0.930 . S
H825 C833 0.930 . S
H826 C834 0.930 . S
H827 C835 0.930 . S
H828 C838 0.930 . S
H829 C839 0.930 . S
C830 H824 0.930 . S
C830 C831 1.355 . S
C830 C832 1.415 . S
C831 C830 1.355 . S
C831 C833 1.419 . S
C832 C830 1.415 . S
C832 C837 1.425 . S
C832 C839 1.409 . S
C833 H825 0.930 . S
C833 C831 1.419 . S
C833 C834 1.362 . S
C834 H826 0.930 . S
C834 C833 1.362 . S
C834 C837 1.409 . S
C835 H827 0.930 . S
C835 C836 1.355 . S
C835 C837 1.415 . S
C836 C835 1.355 . S
C836 C838 1.419 . S
C837 C832 1.425 . S
C837 C834 1.409 . S
C837 C835 1.415 . S
C838 H828 0.930 . S
C838 C836 1.419 . S
C838 C839 1.362 . S
C839 H829 0.930 . S
C839 C832 1.409 . S
C839 C838 1.362 . S
H840 C846 0.923 1_565 S
H841 C849 0.930 . S
H842 C850 0.930 . S
H843 C851 0.930 . S
H844 C854 0.930 . S
H845 C855 0.930 . S
C846 H840 0.923 1_545 S
C846 C847 1.355 1_545 S
C846 C848 1.415 . S
C847 C846 1.355 1_565 S
C847 C849 1.419 . S
C848 C846 1.415 . S
C848 C853 1.425 . S
C848 C855 1.409 . S
C849 H841 0.930 . S
C849 C847 1.419 . S
C849 C850 1.362 1_565 S
C850 H842 0.930 . S
C850 C849 1.362 1_545 S
C850 C853 1.409 . S
C851 H843 0.930 . S
C851 C852 1.355 . S
C851 C853 1.415 . S
C852 C851 1.355 . S
C852 C854 1.419 . S
C853 C848 1.425 . S
C853 C850 1.409 . S
C853 C851 1.415 . S
C854 H844 0.930 . S
C854 C852 1.419 . S
C854 C855 1.362 . S
C855 H845 0.930 . S
C855 C848 1.409 . S
C855 C854 1.362 . S
H856 C862 0.930 1_545 S
H857 C865 0.930 . S
H858 C866 0.930 . S
H859 C867 0.930 . S
H860 C870 0.930 . S
H861 C871 0.930 . S
C862 H856 0.930 1_565 S
C862 C863 1.355 1_565 S
C862 C864 1.415 . S
C863 C862 1.355 1_545 S
C863 C865 1.419 . S
C864 C862 1.415 . S
C864 C869 1.425 . S
C864 C871 1.409 . S
C865 H857 0.930 . S
C865 C863 1.419 . S
C865 C866 1.362 1_545 S
C866 H858 0.930 . S
C866 C865 1.362 1_565 S
C866 C869 1.409 . S
C867 H859 0.930 . S
C867 C868 1.355 . S
C867 C869 1.415 . S
C868 C867 1.355 . S
C868 C870 1.419 . S
C869 C864 1.425 . S
C869 C866 1.409 . S
C869 C867 1.415 . S
C870 H860 0.930 . S
C870 C868 1.419 . S
C870 C871 1.362 . S
C871 H861 0.930 . S
C871 C864 1.409 . S
C871 C870 1.362 . S
H872 C878 0.930 . S
H873 C881 0.930 . S
H874 C882 0.930 . S
H875 C883 0.930 . S
H876 C886 0.930 . S
H877 C887 0.930 . S
C878 H872 0.930 . S
C878 C879 1.355 . S
C878 C880 1.415 . S
C879 C878 1.355 . S
C879 C881 1.419 . S
C880 C878 1.415 . S
C880 C885 1.425 . S
C880 C887 1.409 . S
C881 H873 0.930 . S
C881 C879 1.419 . S
C881 C882 1.362 . S
C882 H874 0.930 . S
C882 C881 1.362 . S
C882 C885 1.409 . S
C883 H875 0.930 . S
C883 C884 1.355 . S
C883 C885 1.415 . S
C884 C883 1.355 . S
C884 C886 1.419 . S
C885 C880 1.425 . S
C885 C882 1.409 . S
C885 C883 1.415 . S
C886 H876 0.930 . S
C886 C884 1.419 . S
C886 C887 1.362 . S
C887 H877 0.930 . S
C887 C880 1.409 . S
C887 C886 1.362 . S
H888 C894 0.930 . S
H889 C897 0.930 . S
H890 C898 0.930 . S
H891 C899 0.930 . S
H892 C902 0.930 . S
H893 C903 0.930 . S
C894 H888 0.930 . S
C894 C895 1.355 . S
C894 C896 1.415 . S
C895 C894 1.355 . S
C895 C897 1.419 . S
C896 C894 1.415 . S
C896 C901 1.425 . S
C896 C903 1.409 . S
C897 H889 0.930 . S
C897 C895 1.419 . S
C897 C898 1.362 . S
C898 H890 0.930 . S
C898 C897 1.362 . S
C898 C901 1.409 . S
C899 H891 0.930 . S
C899 C900 1.355 . S
C899 C901 1.415 . S
C900 C899 1.355 . S
C900 C902 1.419 . S
C901 C896 1.425 . S
C901 C898 1.409 . S
C901 C899 1.415 . S
C902 H892 0.930 . S
C902 C900 1.419 . S
C902 C903 1.362 . S
C903 H893 0.930 . S
C903 C896 1.409 . S
C903 C902 1.362 . S
H904 C910 0.930 1_556 S
H905 C913 0.930 . S
H906 C914 0.930 . S
H907 C915 0.930 . S
H908 C918 0.930 . S
H909 C919 0.930 . S
C910 H904 0.930 1_554 S
C910 C911 1.355 1_554 S
C910 C912 1.415 . S
C911 C910 1.355 1_556 S
C911 C913 1.419 . S
C912 C910 1.415 . S
C912 C917 1.425 . S
C912 C919 1.409 . S
C913 H905 0.930 . S
C913 C911 1.419 . S
C913 C914 1.362 1_556 S
C914 H906 0.930 . S
C914 C913 1.362 1_554 S
C914 C917 1.409 . S
C915 H907 0.930 . S
C915 C916 1.355 . S
C915 C917 1.415 . S
C916 C915 1.355 . S
C916 C918 1.419 . S
C917 C912 1.425 . S
C917 C914 1.409 . S
C917 C915 1.415 . S
C918 H908 0.930 . S
C918 C916 1.419 . S
C918 C919 1.362 . S
C919 H909 0.930 . S
C919 C912 1.409 . S
C919 C918 1.362 . S
H920 C926 0.930 . S
H921 C929 0.930 . S
H922 C930 0.930 . S
H923 C931 0.930 . S
H924 C934 0.930 . S
H925 C935 0.930 . S
C926 H920 0.930 . S
C926 C927 1.355 . S
C926 C928 1.415 . S
C927 C926 1.355 . S
C927 C929 1.419 . S
C928 C926 1.415 . S
C928 C933 1.425 . S
C928 C935 1.409 . S
C929 H921 0.930 . S
C929 C927 1.419 . S
C929 C930 1.362 . S
C930 H922 0.930 . S
C930 C929 1.362 . S
C930 C933 1.409 . S
C931 H923 0.930 . S
C931 C932 1.355 . S
C931 C933 1.415 . S
C932 C931 1.355 . S
C932 C934 1.419 . S
C933 C928 1.425 . S
C933 C930 1.409 . S
C933 C931 1.415 . S
C934 H924 0.930 . S
C934 C932 1.419 . S
C934 C935 1.362 . S
C935 H925 0.930 . S
C935 C928 1.409 . S
C935 C934 1.362 . S
H936 C942 0.930 . S
H937 C945 0.930 . S
H938 C946 0.930 . S
H939 C947 0.930 . S
H940 C950 0.930 . S
H941 C951 0.930 . S
C942 H936 0.930 . S
C942 C943 1.355 1_556 S
C942 C944 1.415 . S
C943 C942 1.355 1_554 S
C943 C945 1.419 . S
C944 C942 1.415 . S
C944 C949 1.425 . S
C944 C951 1.409 . S
C945 H937 0.930 . S
C945 C943 1.419 . S
C945 C946 1.362 1_554 S
C946 H938 0.930 . S
C946 C945 1.362 1_556 S
C946 C949 1.409 . S
C947 H939 0.930 . S
C947 C948 1.355 . S
C947 C949 1.415 . S
C948 C947 1.355 . S
C948 C950 1.419 . S
C949 C944 1.425 . S
C949 C946 1.409 . S
C949 C947 1.415 . S
C950 H940 0.930 . S
C950 C948 1.419 . S
C950 C951 1.362 . S
C951 H941 0.930 . S
C951 C944 1.409 . S
C951 C950 1.362 . S
H952 C958 0.930 . S
H953 C961 0.930 . S
H954 C962 0.930 . S
H955 C963 0.930 . S
H956 C966 0.930 . S
H957 C967 0.930 . S
C958 H952 0.930 . S
C958 C959 1.355 . S
C958 C960 1.415 . S
C959 C958 1.355 . S
C959 C961 1.419 . S
C960 C958 1.415 . S
C960 C965 1.425 . S
C960 C967 1.409 . S
C961 H953 0.930 . S
C961 C959 1.419 . S
C961 C962 1.362 . S
C962 H954 0.930 . S
C962 C961 1.362 . S
C962 C965 1.409 . S
C963 H955 0.930 . S
C963 C964 1.355 . S
C963 C965 1.415 . S
C964 C963 1.355 . S
C964 C966 1.419 . S
C965 C960 1.425 . S
C965 C962 1.409 . S
C965 C963 1.415 . S
C966 H956 0.930 . S
C966 C964 1.419 . S
C966 C967 1.362 . S
C967 H957 0.930 . S
C967 C960 1.409 . S
C967 C966 1.362 . S
H968 C974 0.930 . S
H969 C977 0.930 . S
H970 C978 0.930 . S
H971 C979 0.930 1_455 S
H972 C982 0.930 . S
H973 C983 0.930 . S
C974 H968 0.930 . S
C974 C975 1.355 . S
C974 C976 1.415 . S
C975 C974 1.355 . S
C975 C977 1.419 . S
C976 C974 1.415 . S
C976 C981 1.425 . S
C976 C983 1.409 . S
C977 H969 0.930 . S
C977 C975 1.419 . S
C977 C978 1.362 . S
C978 H970 0.930 . S
C978 C977 1.362 . S
C978 C981 1.409 . S
C979 H971 0.930 1_655 S
C979 C980 1.355 1_655 S
C979 C981 1.415 . S
C980 C979 1.355 1_455 S
C980 C982 1.419 . S
C981 C976 1.425 . S
C981 C978 1.409 . S
C981 C979 1.415 . S
C982 H972 0.930 . S
C982 C980 1.419 . S
C982 C983 1.362 1_455 S
C983 H973 0.930 . S
C983 C976 1.409 . S
C983 C982 1.362 1_655 S
H984 C990 0.930 . S
H985 C993 0.930 . S
H986 C994 0.930 . S
H987 C995 0.930 1_655 S
H988 C998 0.930 . S
H989 C999 0.930 . S
C990 H984 0.930 . S
C990 C991 1.355 . S
C990 C992 1.415 . S
C991 C990 1.355 . S
C991 C993 1.419 . S
C992 C990 1.415 . S
C992 C997 1.425 . S
C992 C999 1.409 . S
C993 H985 0.930 . S
C993 C991 1.419 . S
C993 C994 1.362 . S
C994 H986 0.930 . S
C994 C993 1.362 . S
C994 C997 1.409 . S
C995 H987 0.930 1_455 S
C995 C996 1.355 1_455 S
C995 C997 1.415 . S
C996 C995 1.355 1_655 S
C996 C998 1.419 . S
C997 C992 1.425 . S
C997 C994 1.409 . S
C997 C995 1.415 . S
C998 H988 0.930 . S
C998 C996 1.419 . S
C998 C999 1.362 1_655 S
C999 H989 0.930 . S
C999 C992 1.409 . S
C999 C998 1.362 1_455 S
H1000 C1006 0.930 . S
H1001 C1009 0.930 . S
H1002 C1010 0.930 . S
H1003 C1011 0.930 . S
H1004 C1014 0.930 . S
H1005 C1015 0.930 . S
C1006 H1000 0.930 . S
C1006 C1007 1.355 . S
C1006 C1008 1.415 . S
C1007 C1006 1.355 . S
C1007 C1009 1.419 . S
C1008 C1006 1.415 . S
C1008 C1013 1.425 . S
C1008 C1015 1.409 . S
C1009 H1001 0.930 . S
C1009 C1007 1.419 . S
C1009 C1010 1.362 . S
C1010 H1002 0.930 . S
C1010 C1009 1.362 . S
C1010 C1013 1.409 . S
C1011 H1003 0.930 . S
C1011 C1012 1.355 . S
C1011 C1013 1.415 . S
C1012 C1011 1.355 . S
C1012 C1014 1.419 . S
C1013 C1008 1.425 . S
C1013 C1010 1.409 . S
C1013 C1011 1.415 . S
C1014 H1004 0.930 . S
C1014 C1012 1.419 . S
C1014 C1015 1.362 . S
C1015 H1005 0.930 . S
C1015 C1008 1.409 . S
C1015 C1014 1.362 . S
H1016 C1022 0.930 . S
H1017 C1025 0.930 . S
H1018 C1026 0.930 . S
H1019 C1027 0.930 . S
H1020 C1030 0.930 . S
H1021 C1031 0.930 . S
C1022 H1016 0.930 . S
C1022 C1023 1.355 . S
C1022 C1024 1.415 . S
C1023 C1022 1.355 . S
C1023 C1025 1.419 . S
C1024 C1022 1.415 . S
C1024 C1029 1.425 . S
C1024 C1031 1.409 . S
C1025 H1017 0.930 . S
C1025 C1023 1.419 . S
C1025 C1026 1.362 . S
C1026 H1018 0.930 . S
C1026 C1025 1.362 . S
C1026 C1029 1.409 . S
C1027 H1019 0.930 . S
C1027 C1028 1.355 . S
C1027 C1029 1.415 . S
C1028 C1027 1.355 . S
C1028 C1030 1.419 . S
C1029 C1024 1.425 . S
C1029 C1026 1.409 . S
C1029 C1027 1.415 . S
C1030 H1020 0.930 . S
C1030 C1028 1.419 . S
C1030 C1031 1.362 . S
C1031 H1021 0.930 . S
C1031 C1024 1.409 . S
C1031 C1030 1.362 . S
H1032 C1038 0.930 . S
H1033 C1041 0.930 . S
H1034 C1042 0.930 . S
H1035 C1043 0.930 1_545 S
H1036 C1046 0.930 . S
H1037 C1047 0.930 . S
C1038 H1032 0.930 . S
C1038 C1039 1.355 . S
C1038 C1040 1.415 . S
C1039 C1038 1.355 . S
C1039 C1041 1.419 . S
C1040 C1038 1.415 . S
C1040 C1045 1.425 . S
C1040 C1047 1.409 . S
C1041 H1033 0.930 . S
C1041 C1039 1.419 . S
C1041 C1042 1.362 . S
C1042 H1034 0.930 . S
C1042 C1041 1.362 . S
C1042 C1045 1.409 . S
C1043 H1035 0.930 1_565 S
C1043 C1044 1.355 1_565 S
C1043 C1045 1.415 . S
C1044 C1043 1.355 1_545 S
C1044 C1046 1.419 . S
C1045 C1040 1.425 . S
C1045 C1042 1.409 . S
C1045 C1043 1.415 . S
C1046 H1036 0.930 . S
C1046 C1044 1.419 . S
C1046 C1047 1.362 1_545 S
C1047 H1037 0.930 . S
C1047 C1040 1.409 . S
C1047 C1046 1.362 1_565 S
H1048 C1054 0.930 1_565 S
H1049 C1057 0.930 . S
H1050 C1058 0.930 . S
H1051 C1059 0.930 . S
H1052 C1062 0.930 . S
H1053 C1063 0.930 . S
C1054 H1048 0.930 1_545 S
C1054 C1055 1.355 1_545 S
C1054 C1056 1.415 . S
C1055 C1054 1.355 1_565 S
C1055 C1057 1.419 . S
C1056 C1054 1.415 . S
C1056 C1061 1.425 . S
C1056 C1063 1.409 . S
C1057 H1049 0.930 . S
C1057 C1055 1.419 . S
C1057 C1058 1.362 1_565 S
C1058 H1050 0.930 . S
C1058 C1057 1.362 1_545 S
C1058 C1061 1.409 . S
C1059 H1051 0.930 . S
C1059 C1060 1.355 . S
C1059 C1061 1.415 . S
C1060 C1059 1.355 . S
C1060 C1062 1.419 . S
C1061 C1056 1.425 . S
C1061 C1058 1.409 . S
C1061 C1059 1.415 . S
C1062 H1052 0.930 . S
C1062 C1060 1.419 . S
C1062 C1063 1.362 . S
C1063 H1053 0.930 . S
C1063 C1056 1.409 . S
C1063 C1062 1.362 . S
H1064 C1070 0.930 . S
H1065 C1073 0.930 . S
H1066 C1074 0.930 . S
H1067 C1075 0.930 . S
H1068 C1078 0.930 . S
H1069 C1079 0.930 . S
C1070 H1064 0.930 . S
C1070 C1071 1.355 . S
C1070 C1072 1.415 . S
C1071 C1070 1.355 . S
C1071 C1073 1.419 . S
C1072 C1070 1.415 . S
C1072 C1077 1.425 . S
C1072 C1079 1.409 . S
C1073 H1065 0.930 . S
C1073 C1071 1.419 . S
C1073 C1074 1.362 . S
C1074 H1066 0.930 . S
C1074 C1073 1.362 . S
C1074 C1077 1.409 . S
C1075 H1067 0.930 . S
C1075 C1076 1.355 . S
C1075 C1077 1.415 . S
C1076 C1075 1.355 . S
C1076 C1078 1.419 . S
C1077 C1072 1.425 . S
C1077 C1074 1.409 . S
C1077 C1075 1.415 . S
C1078 H1068 0.930 . S
C1078 C1076 1.419 . S
C1078 C1079 1.362 . S
C1079 H1069 0.930 . S
C1079 C1072 1.409 . S
C1079 C1078 1.362 . S
C319 C107 1.190 . S
C324 C5 1.234 . S
C335 C16 1.214 . S
C340 C146 1.238 . S
C351 C31 1.226 . S
C356 C120 1.198 . S
C367 C44 1.219 . S
C372 C135 1.217 . S
C383 C55 1.232 . S
C388 C3 1.184 . S
C399 C18 1.206 . S
C404 C68 1.229 . S
C415 C83 1.229 . S
C420 C29 1.207 . S
C431 C42 1.197 . S
C436 C96 1.227 . S
C447 C57 1.216 . S
C452 C109 1.225 . S
C463 C81 1.236 . S
C468 C122 1.214 . S
C479 C133 1.234 . S
C484 C94 1.191 . S
C495 C70 1.197 . S
C500 C148 1.227 . S
C511 C263 1.236 . S
C516 C161 1.216 . S
C527 C172 1.237 . S
C532 C304 1.174 . S
C543 C187 1.214 . S
C548 C276 1.236 . S
C559 C289 1.219 . S
C564 C200 1.224 . S
C575 C211 1.225 . S
C580 C159 1.216 . S
C591 C174 1.210 . S
C596 C224 1.228 . S
C607 C185 1.203 . S
C612 C239 1.225 . S
C623 C252 1.221 . S
C628 C198 1.212 . S
C639 C265 1.219 . S
C644 C213 1.219 . S
C655 C237 1.225 . S
C660 C278 1.217 . S
C671 C250 1.203 . S
C676 C291 1.230 . S
C687 C302 1.214 . S
C692 C226 1.239 . S
C703 C296 1.476 . S
C708 C4 1.477 . S
C719 C283 1.487 . S
C724 C23 1.487 . S
C735 C303 1.476 . S
C740 C30 1.481 . S
C751 C43 1.477 . S
C756 C270 1.483 . S
C767 C62 1.488 . S
C772 C173 1.486 . S
C783 C166 1.476 . S
C788 C75 1.478 . S
C799 C205 1.480 . S
C804 C82 1.487 . S
C815 C192 1.488 . S
C820 C95 1.486 . S
C831 C108 1.484 . S
C836 C244 1.488 . S
C847 C212 1.482 . S
C852 C121 1.476 . S
C863 C225 1.477 . S
C868 C140 1.476 . S
C879 C257 1.485 . S
C884 C147 1.488 . S
C895 C134 1.486 . S
C900 C160 1.479 . S
C911 C127 1.475 . S
C916 C179 1.479 . S
C927 C186 1.478 . S
C932 C153 1.476 . S
C943 C114 1.480 . S
C948 C199 1.476 . S
C959 C218 1.488 . S
C964 C17 1.484 . S
C975 C231 1.488 . S
C980 C10 1.484 . S
C991 C238 1.476 . S
C996 C49 1.477 . S
C1007 C251 1.487 . S
C1012 C36 1.487 . S
C1023 C264 1.476 . S
C1028 C88 1.478 . S
C1039 C277 1.476 . S
C1044 C56 1.478 . S
C1055 C69 1.485 . S
C1060 C290 1.488 . S
C1071 C309 1.487 . S
C1076 C101 1.486 . S
