# Generated by pormake.
# Topology und, (4)-cn, num edge types: 1
# Building blocks:
#     Node 0, Type 0, BuildingBlock: AZAVOO_clean_sbu_0, # of connection points: 4
#     Node 1, Type 0, BuildingBlock: AZAVOO_clean_sbu_0, # of connection points: 4
#     Node 2, Type 0, BuildingBlock: AZAVOO_clean_sbu_0, # of connection points: 4
#     Node 3, Type 0, BuildingBlock: AZAVOO_clean_sbu_0, # of connection points: 4
#     Node 4, Type 0, BuildingBlock: AZAVOO_clean_sbu_0, # of connection points: 4
#     Node 5, Type 0, BuildingBlock: AZAVOO_clean_sbu_0, # of connection points: 4
#     Node 6, Type 0, BuildingBlock: AZAVOO_clean_sbu_0, # of connection points: 4
#     Node 7, Type 0, BuildingBlock: AZAVOO_clean_sbu_0, # of connection points: 4
#     Node 8, Type 0, BuildingBlock: AZAVOO_clean_sbu_0, # of connection points: 4
#     Node 9, Type 0, BuildingBlock: AZAVOO_clean_sbu_0, # of connection points: 4
#     Node 10, Type 0, BuildingBlock: AZAVOO_clean_sbu_0, # of connection points: 4
#     Node 11, Type 0, BuildingBlock: AZAVOO_clean_sbu_0, # of connection points: 4
#     Node 12, Type 0, BuildingBlock: AZAVOO_clean_sbu_0, # of connection points: 4
#     Node 13, Type 0, BuildingBlock: AZAVOO_clean_sbu_0, # of connection points: 4
#     Node 14, Type 0, BuildingBlock: AZAVOO_clean_sbu_0, # of connection points: 4
#     Node 15, Type 0, BuildingBlock: AZAVOO_clean_sbu_0, # of connection points: 4
#     Edge 16, Type (0, 0), BuildingBlock: ZUJKAS_clean_linker_0, # of connection points: 2
#     Edge 17, Type (0, 0), BuildingBlock: ZUJKAS_clean_linker_0, # of connection points: 2
#     Edge 18, Type (0, 0), BuildingBlock: ZUJKAS_clean_linker_0, # of connection points: 2
#     Edge 19, Type (0, 0), BuildingBlock: ZUJKAS_clean_linker_0, # of connection points: 2
#     Edge 20, Type (0, 0), BuildingBlock: ZUJKAS_clean_linker_0, # of connection points: 2
#     Edge 21, Type (0, 0), BuildingBlock: ZUJKAS_clean_linker_0, # of connection points: 2
#     Edge 22, Type (0, 0), BuildingBlock: ZUJKAS_clean_linker_0, # of connection points: 2
#     Edge 23, Type (0, 0), BuildingBlock: ZUJKAS_clean_linker_0, # of connection points: 2
#     Edge 24, Type (0, 0), BuildingBlock: ZUJKAS_clean_linker_0, # of connection points: 2
#     Edge 25, Type (0, 0), BuildingBlock: ZUJKAS_clean_linker_0, # of connection points: 2
#     Edge 26, Type (0, 0), BuildingBlock: ZUJKAS_clean_linker_0, # of connection points: 2
#     Edge 27, Type (0, 0), BuildingBlock: ZUJKAS_clean_linker_0, # of connection points: 2
#     Edge 28, Type (0, 0), BuildingBlock: ZUJKAS_clean_linker_0, # of connection points: 2
#     Edge 29, Type (0, 0), BuildingBlock: ZUJKAS_clean_linker_0, # of connection points: 2
#     Edge 30, Type (0, 0), BuildingBlock: ZUJKAS_clean_linker_0, # of connection points: 2
#     Edge 31, Type (0, 0), BuildingBlock: ZUJKAS_clean_linker_0, # of connection points: 2
#     Edge 32, Type (0, 0), BuildingBlock: ZUJKAS_clean_linker_0, # of connection points: 2
#     Edge 33, Type (0, 0), BuildingBlock: ZUJKAS_clean_linker_0, # of connection points: 2
#     Edge 34, Type (0, 0), BuildingBlock: ZUJKAS_clean_linker_0, # of connection points: 2
#     Edge 35, Type (0, 0), BuildingBlock: ZUJKAS_clean_linker_0, # of connection points: 2
#     Edge 36, Type (0, 0), BuildingBlock: ZUJKAS_clean_linker_0, # of connection points: 2
#     Edge 37, Type (0, 0), BuildingBlock: ZUJKAS_clean_linker_0, # of connection points: 2
#     Edge 38, Type (0, 0), BuildingBlock: ZUJKAS_clean_linker_0, # of connection points: 2
#     Edge 39, Type (0, 0), BuildingBlock: ZUJKAS_clean_linker_0, # of connection points: 2
#     Edge 40, Type (0, 0), BuildingBlock: ZUJKAS_clean_linker_0, # of connection points: 2
#     Edge 41, Type (0, 0), BuildingBlock: ZUJKAS_clean_linker_0, # of connection points: 2
#     Edge 42, Type (0, 0), BuildingBlock: ZUJKAS_clean_linker_0, # of connection points: 2
#     Edge 43, Type (0, 0), BuildingBlock: ZUJKAS_clean_linker_0, # of connection points: 2
#     Edge 44, Type (0, 0), BuildingBlock: ZUJKAS_clean_linker_0, # of connection points: 2
#     Edge 45, Type (0, 0), BuildingBlock: ZUJKAS_clean_linker_0, # of connection points: 2
#     Edge 46, Type (0, 0), BuildingBlock: ZUJKAS_clean_linker_0, # of connection points: 2
#     Edge 47, Type (0, 0), BuildingBlock: ZUJKAS_clean_linker_0, # of connection points: 2
# Relax obj value: 0.169
# Max RMSD: 0.210
# Mean RMSD: 0.204
data_MOF--net-und--node1-AZAVOO_clean_sbu_0--edge1-ZUJKAS_clean_linker_0
_symmetry_space_group_name_H-M    P1
_symmetry_Int_Tables_number       1
_symmetry_cell_setting            triclinic
loop_
_symmetry_equiv_pos_as_xyz
'x, y, z'
_cell_length_a     75.699707
_cell_length_b     75.7078
_cell_length_c     28.121901
_cell_angle_alpha  91.633761
_cell_angle_beta   91.625287
_cell_angle_gamma 95.489189
loop_
_atom_site_label
_atom_site_type_symbol
_atom_site_fract_x
_atom_site_fract_y
_atom_site_fract_z
_atom_type_partial_charge
Mg0 Mg 0.24246 0.36745 0.13083 0.0
O1 O 0.23691 0.34823 0.06665 0.0
O2 O 0.2141 0.32853 0.08268 0.0
Mg3 Mg 0.20449 0.33574 0.15604 0.0
C4 C 0.22622 0.33459 0.05524 0.0
C5 C 0.27399 0.37978 0.06808 0.0
O6 O 0.27738 0.36344 0.07647 0.0
O7 O 0.21846 0.38199 0.11145 0.0
O8 O 0.196 0.36199 0.12807 0.0
O9 O 0.26017 0.34849 0.16031 0.0
O10 O 0.23151 0.3479 0.17475 0.0
C11 C 0.20188 0.37719 0.11345 0.0
C12 C 0.24608 0.34042 0.17787 0.0
O13 O 0.2603 0.38561 0.08563 0.0
Mg14 Mg 0.90739 0.03611 0.23793 0.0
O15 O 0.92731 0.04148 0.30073 0.0
O16 O 0.94688 0.06418 0.28336 0.0
Mg17 Mg 0.93846 0.07438 0.21172 0.0
C18 C 0.94119 0.05198 0.31103 0.0
C19 C 0.88184 0.00381 0.26615 0.0
O20 O 0.88361 -0.00017 0.22086 0.0
O21 O 0.89287 0.05982 0.25932 0.0
O22 O 0.91246 0.08258 0.24227 0.0
O23 O 0.92597 0.01862 0.20556 0.0
O24 O 0.92625 0.04737 0.19265 0.0
C25 C 0.89746 0.07644 0.25769 0.0
C26 C 0.93364 0.03281 0.18745 0.0
O27 O 0.88989 0.01807 0.2839 0.0
Mg28 Mg 0.27535 0.69831 0.50063 0.0
O29 O 0.26161 0.7189 0.54292 0.0
O30 O 0.24946 0.73699 0.4928 0.0
Mg31 Mg 0.25359 0.72607 0.41743 0.0
C32 C 0.2532 0.73239 0.53495 0.0
C33 C 0.28926 0.6891 0.60134 0.0
O34 O 0.29783 0.7049 0.59752 0.0
O35 O 0.24894 0.6825 0.4823 0.0
O36 O 0.23642 0.69993 0.43099 0.0
O37 O 0.29914 0.7181 0.50004 0.0
O38 O 0.27783 0.71508 0.4438 0.0
C39 C 0.23613 0.68565 0.45432 0.0
C40 C 0.29204 0.72376 0.46166 0.0
O41 O 0.27864 0.6829 0.56785 0.0
Mg42 Mg 0.57197 0.0022 0.86238 0.0
O43 O 0.55459 0.01585 0.81008 0.0
O44 O 0.53735 0.03304 0.85002 0.0
Mg45 Mg 0.54541 0.03163 0.92896 0.0
C46 C 0.54239 0.02636 0.81106 0.0
C47 C 0.58238 0.98084 0.77257 0.0
O48 O 0.56645 0.97284 0.77851 0.0
O49 O 0.59036 0.02762 0.87416 0.0
O50 O 0.57349 0.04479 0.91557 0.0
O51 O 0.54946 0.98101 0.86762 0.0
O52 O 0.55388 0.00496 0.91518 0.0
C53 C 0.58811 0.04221 0.89602 0.0
C54 C 0.54394 0.99093 0.90128 0.0
O55 O 0.58827 0.99354 0.8009 0.0
Mg56 Mg 0.76723 0.69914 0.08145 0.0
O57 O 0.73985 0.68541 0.0968 0.0
O58 O 0.72053 0.70582 0.10197 0.0
Mg59 Mg 0.73552 0.73268 0.08791 0.0
C60 C 0.72424 0.68976 0.10373 0.0
C61 C 0.79024 0.66715 0.08414 0.0
O62 O 0.79888 0.6776 0.11686 0.0
O63 O 0.75904 0.70255 0.00403 0.0
O64 O 0.74034 0.72354 0.01129 0.0
O65 O 0.77239 0.70388 0.15967 0.0
O66 O 0.76045 0.72264 0.11239 0.0
C67 C 0.74861 0.71298 0.98578 0.0
C68 C 0.76507 0.71853 0.15469 0.0
O69 O 0.77657 0.67223 0.06344 0.0
Mg70 Mg 0.07416 0.00433 0.76901 0.0
O71 O 0.0902 0.03011 0.74817 0.0
O72 O 0.07126 0.05073 0.73892 0.0
Mg73 Mg 0.04355 0.03868 0.75582 0.0
C74 C 0.08692 0.04585 0.73809 0.0
C75 C 0.09786 0.98071 0.82102 0.0
O76 O 0.08202 0.97639 0.83759 0.0
O77 O 0.07187 0.0152 0.84477 0.0
O78 O 0.05286 0.03565 0.83303 0.0
O79 O 0.06835 0.99723 0.69163 0.0
O80 O 0.05142 0.01229 0.73725 0.0
C81 C 0.06273 0.02732 0.86037 0.0
C82 C 0.05452 0.00593 0.69586 0.0
O83 O 0.09957 0.99245 0.78968 0.0
Mg84 Mg 0.73089 0.35385 0.56553 0.0
O85 O 0.76059 0.36296 0.57685 0.0
O86 O 0.77354 0.34021 0.60704 0.0
Mg87 Mg 0.75291 0.31612 0.6076 0.0
C88 C 0.77417 0.35629 0.59418 0.0
C89 C 0.71436 0.37595 0.49133 0.0
O90 O 0.70633 0.3599 0.48382 0.0
O91 O 0.73618 0.33842 0.4978 0.0
O92 O 0.74921 0.31544 0.52575 0.0
O93 O 0.72756 0.36184 0.64137 0.0
O94 O 0.73267 0.33481 0.61636 0.0
C95 C 0.74319 0.32393 0.49114 0.0
C96 C 0.73123 0.34596 0.65115 0.0
O97 O 0.72647 0.37837 0.5237 0.0
Mg98 Mg 0.42527 0.04842 0.28095 0.0
O99 O 0.41399 0.01933 0.26908 0.0
O100 O 0.43582 0.00426 0.24191 0.0
Mg101 Mg 0.46108 0.0233 0.23992 0.0
C102 C 0.4197 0.00499 0.25338 0.0
C103 C 0.40458 0.0652 0.35874 0.0
O104 O 0.42108 0.07165 0.36827 0.0
O105 O 0.44005 0.04186 0.34871 0.0
O106 O 0.46211 0.02724 0.32156 0.0
O107 O 0.4177 0.05229 0.20513 0.0
O108 O 0.44396 0.04494 0.23026 0.0
C109 C 0.45394 0.03391 0.35584 0.0
C110 C 0.43302 0.04702 0.1954 0.0
O111 O 0.40133 0.05448 0.32329 0.0
Mg112 Mg 0.74933 0.86502 0.61797 0.0
O113 O 0.74036 0.84545 0.55663 0.0
O114 O 0.71892 0.82586 0.58169 0.0
Mg115 Mg 0.71304 0.83408 0.65778 0.0
C116 C 0.72937 0.83168 0.54963 0.0
C117 C 0.78096 0.88722 0.574 0.0
O118 O 0.78883 0.88141 0.61191 0.0
O119 O 0.72484 0.87962 0.60679 0.0
O120 O 0.70332 0.86023 0.63221 0.0
O121 O 0.76824 0.84607 0.64113 0.0
O122 O 0.74075 0.84597 0.66614 0.0
C123 C 0.70855 0.87521 0.61495 0.0
C124 C 0.75524 0.83835 0.66419 0.0
O125 O 0.7645 0.88279 0.56629 0.0
Mg126 Mg 0.40345 0.52412 0.72567 0.0
O127 O 0.42287 0.5304 0.7891 0.0
O128 O 0.44111 0.55432 0.7727 0.0
Mg129 Mg 0.43287 0.56366 0.69984 0.0
C130 C 0.43598 0.54181 0.8001 0.0
C131 C 0.39173 0.49222 0.78979 0.0
O132 O 0.40812 0.48869 0.78256 0.0
O133 O 0.38787 0.5471 0.74673 0.0
O134 O 0.40624 0.57069 0.72908 0.0
O135 O 0.42313 0.50749 0.69498 0.0
O136 O 0.42227 0.53607 0.68137 0.0
C137 C 0.39152 0.56385 0.74469 0.0
C138 C 0.43049 0.52197 0.67764 0.0
O139 O 0.38602 0.50572 0.77103 0.0
Mg140 Mg 0.76785 0.20071 0.99157 0.0
O141 O 0.75392 0.21817 0.04295 0.0
O142 O 0.73662 0.23519 0.00269 0.0
Mg143 Mg 0.73807 0.2266 0.92406 0.0
C144 C 0.74335 0.2303 0.04175 0.0
C145 C 0.78517 0.19331 0.08968 0.0
O146 O 0.78793 0.21072 0.09 0.0
O147 O 0.74266 0.18196 0.98059 0.0
O148 O 0.72527 0.19848 0.93869 0.0
O149 O 0.78879 0.22332 0.98563 0.0
O150 O 0.76489 0.21848 0.93787 0.0
C151 C 0.72801 0.18398 0.9587 0.0
C152 C 0.77888 0.22855 0.95152 0.0
O153 O 0.77699 0.1852 0.05414 0.0
Mg154 Mg 0.07141 0.51265 0.35186 0.0
O155 O 0.05512 0.52388 0.29226 0.0
O156 O 0.03805 0.54348 0.32313 0.0
Mg157 Mg 0.04491 0.54596 0.403 0.0
C158 C 0.0433 0.53469 0.28767 0.0
C159 C 0.08089 0.49091 0.26176 0.0
O160 O 0.06348 0.48853 0.25782 0.0
O161 O 0.09038 0.53788 0.3565 0.0
O162 O 0.07353 0.55734 0.38919 0.0
O163 O 0.04846 0.49243 0.36248 0.0
O164 O 0.05258 0.51861 0.40026 0.0
C165 C 0.08829 0.55343 0.37279 0.0
C166 C 0.04256 0.50415 0.39082 0.0
O167 O 0.08814 0.50026 0.29656 0.0
Mg168 Mg 0.2588 0.19996 0.58481 0.0
O169 O 0.23373 0.18248 0.60322 0.0
O170 O 0.2115 0.1997 0.60894 0.0
Mg171 Mg 0.22244 0.22821 0.59575 0.0
C172 C 0.21749 0.18453 0.61062 0.0
C173 C 0.28744 0.17333 0.58052 0.0
O174 O 0.2955 0.1856 0.60964 0.0
O175 O 0.24853 0.20216 0.50874 0.0
O176 O 0.22753 0.22069 0.518 0.0
O177 O 0.26547 0.20554 0.66197 0.0
O178 O 0.24926 0.22188 0.61765 0.0
C179 C 0.23672 0.21133 0.49153 0.0
C180 C 0.256 0.21886 0.6588 0.0
O181 O 0.27192 0.17528 0.56447 0.0
Mg182 Mg 0.57351 0.51767 0.27025 0.0
O183 O 0.58962 0.54359 0.25176 0.0
O184 O 0.57088 0.5645 0.24507 0.0
Mg185 Mg 0.54287 0.55195 0.25753 0.0
C186 C 0.58651 0.55954 0.24389 0.0
C187 C 0.59782 0.49463 0.32446 0.0
O188 O 0.58234 0.49053 0.3434 0.0
O189 O 0.5703 0.52787 0.34607 0.0
O190 O 0.55025 0.54731 0.33553 0.0
O191 O 0.5686 0.51056 0.19303 0.0
O192 O 0.55109 0.52578 0.23641 0.0
C193 C 0.56011 0.53887 0.36263 0.0
C194 C 0.55467 0.51921 0.19552 0.0
O195 O 0.5989 0.50588 0.29177 0.0
Mg196 Mg 0.24959 0.85162 0.06337 0.0
O197 O 0.27681 0.86788 0.06806 0.0
O198 O 0.29739 0.84894 0.07865 0.0
Mg199 Mg 0.28348 0.82081 0.07884 0.0
C200 C 0.29297 0.8647 0.07463 0.0
C201 C 0.2236 0.87093 0.00498 0.0
O202 O 0.2186 0.85406 0.99562 0.0
O203 O 0.25431 0.84149 0.98838 0.0
O204 O 0.2743 0.82212 0.00033 0.0
O205 O 0.24869 0.85456 0.14238 0.0
O206 O 0.25964 0.83233 0.10399 0.0
C207 C 0.26407 0.82993 0.97273 0.0
C208 C 0.25717 0.8405 0.1437 0.0
O209 O 0.23673 0.87502 0.03363 0.0
Mg210 Mg 0.91347 0.53487 0.77374 0.0
O211 O 0.9046 0.50514 0.76271 0.0
O212 O 0.92665 0.49275 0.72715 0.0
Mg213 Mg 0.95022 0.51381 0.72198 0.0
C214 C 0.91102 0.49176 0.74341 0.0
C215 C 0.89421 0.54974 0.85656 0.0
O216 O 0.91063 0.55704 0.86218 0.0
O217 O 0.93113 0.52941 0.83709 0.0
O218 O 0.95362 0.51715 0.80375 0.0
O219 O 0.90322 0.53857 0.69985 0.0
O220 O 0.93095 0.53374 0.71897 0.0
C221 C 0.94597 0.52281 0.84036 0.0
C222 C 0.9189 0.53542 0.68668 0.0
O223 O 0.8904 0.53878 0.82184 0.0
H224 H 0.2208 0.32256 0.22985 0.0
H225 H 0.22095 0.29276 0.2606 0.0
H226 H 0.27127 0.28728 0.19618 0.0
H227 H 0.2714 0.31735 0.16604 0.0
H228 H 0.22283 0.25929 0.21607 0.0
H229 H 0.28177 0.27904 0.33609 0.0
H230 H 0.26993 0.2952 0.30588 0.0
H231 H 0.28452 0.28221 0.27359 0.0
C232 C 0.23188 0.31501 0.22207 0.0
C233 C 0.24618 0.32235 0.19602 0.0
C234 C 0.2319 0.29795 0.23944 0.0
C235 C 0.24619 0.28789 0.23096 0.0
C236 C 0.26026 0.29495 0.20372 0.0
H237 H 0.26068 0.20328 0.42488 0.0
H238 H 0.26316 0.21575 0.34587 0.0
C239 C 0.26032 0.31212 0.18666 0.0
C240 C 0.24665 0.27056 0.25373 0.0
H241 H 0.26666 0.25126 0.34612 0.0
C242 C 0.23261 0.25733 0.2439 0.0
C243 C 0.25955 0.26796 0.28956 0.0
C244 C 0.27475 0.28185 0.30231 0.0
C245 C 0.23046 0.2421 0.27122 0.0
C246 C 0.24254 0.24023 0.30955 0.0
C247 C 0.25741 0.2527 0.31663 0.0
C248 C 0.23841 0.22781 0.34831 0.0
C249 C 0.21488 0.22854 0.26005 0.0
C250 C 0.22321 0.22965 0.37476 0.0
C251 C 0.22178 0.22261 0.4199 0.0
C252 C 0.2356 0.21372 0.43956 0.0
C253 C 0.24985 0.21016 0.41089 0.0
C254 C 0.2513 0.21727 0.36566 0.0
H255 H 0.21155 0.2278 0.22127 0.0
H256 H 0.21755 0.21515 0.27184 0.0
H257 H 0.20308 0.23259 0.27857 0.0
H258 H 0.21323 0.23797 0.36262 0.0
H259 H 0.21052 0.2254 0.44085 0.0
H260 H 0.93338 0.02801 0.38038 0.0
H261 H 0.95274 0.02074 0.44656 0.0
H262 H 0.99309 0.06079 0.40398 0.0
H263 H 0.97378 0.06843 0.33842 0.0
H264 H 0.98562 0.00831 0.43936 0.0
H265 H 0.99058 0.07154 0.54576 0.0
H266 H 0.97393 0.0663 0.49899 0.0
H267 H 0.99624 0.07428 0.48469 0.0
C268 C 0.94625 0.03548 0.3855 0.0
C269 C 0.95199 0.04883 0.35409 0.0
C270 C 0.95732 0.03126 0.42323 0.0
C271 C 0.97428 0.04032 0.43032 0.0
C272 C 0.97992 0.05387 0.39966 0.0
H273 H 0.06134 0.00297 0.60059 0.0
H274 H 0.04235 0.01093 0.53373 0.0
C275 C 0.96885 0.05817 0.36209 0.0
C276 C 0.98639 0.03503 0.46836 0.0
H277 H 0.01052 0.05055 0.56763 0.0
C278 C 0.99103 0.0175 0.46755 0.0
C279 C 0.99334 0.04706 0.50509 0.0
C280 C 0.98816 0.0658 0.50909 0.0
C281 C 0.00249 0.01167 0.5026 0.0
C282 C 0.00972 0.02381 0.53875 0.0
C283 C 0.00508 0.04133 0.5395 0.0
C284 C 0.02118 0.0184 0.57813 0.0
C285 C 0.00636 0.99248 0.50137 0.0
C286 C 0.01564 0.02015 0.62497 0.0
C287 C 0.02646 0.01583 0.66287 0.0
C288 C 0.04307 0.00965 0.65476 0.0
C289 C 0.04856 0.00762 0.60778 0.0
C290 C 0.03771 0.01209 0.56966 0.0
H291 H 0.99665 0.98407 0.47805 0.0
H292 H 0.01978 0.9915 0.48728 0.0
H293 H 0.00615 0.98707 0.53766 0.0
H294 H 0.00292 0.02494 0.63224 0.0
H295 H 0.02176 0.01735 0.69864 0.0
H296 H 0.24387 0.76653 0.53385 0.0
H297 H 0.24215 0.78691 0.60251 0.0
H298 H 0.25274 0.74511 0.69715 0.0
H299 H 0.25446 0.72467 0.62913 0.0
H300 H 0.22498 0.76768 0.72579 0.0
H301 H 0.28917 0.80479 0.68043 0.0
H302 H 0.27195 0.80168 0.63465 0.0
H303 H 0.28221 0.78287 0.65576 0.0
C304 C 0.24551 0.76157 0.5693 0.0
C305 C 0.24944 0.74399 0.57599 0.0
C306 C 0.24461 0.77327 0.60841 0.0
C307 C 0.24755 0.76753 0.6547 0.0
C308 C 0.2505 0.74978 0.66161 0.0
H309 H 0.28475 0.80827 0.92444 0.0
H310 H 0.27968 0.79575 0.84372 0.0
C311 C 0.25151 0.73813 0.62266 0.0
C312 C 0.24874 0.78012 0.69609 0.0
H313 H 0.27657 0.81284 0.75227 0.0
C314 C 0.23607 0.77778 0.73134 0.0
C315 C 0.26336 0.79312 0.70319 0.0
C316 C 0.27756 0.7958 0.66678 0.0
C317 C 0.2379 0.78778 0.7743 0.0
C318 C 0.25275 0.80048 0.78188 0.0
C319 C 0.26515 0.80318 0.74604 0.0
C320 C 0.2566 0.80965 0.82868 0.0
C321 C 0.22445 0.7841 0.81224 0.0
C322 C 0.24557 0.82202 0.84633 0.0
C323 C 0.24845 0.82928 0.89253 0.0
C324 C 0.26237 0.8242 0.92184 0.0
C325 C 0.27384 0.81239 0.90305 0.0
C326 C 0.271 0.80524 0.85688 0.0
H327 H 0.21512 0.77217 0.80324 0.0
H328 H 0.23124 0.78217 0.84697 0.0
H329 H 0.21661 0.79567 0.81653 0.0
H330 H 0.23451 0.82574 0.82478 0.0
H331 H 0.23939 0.83837 0.9058 0.0
H332 H 0.40943 0.0332 0.125 0.0
H333 H 0.41678 0.01755 0.05115 0.0
H334 H 0.47253 0.03017 0.08527 0.0
H335 H 0.46538 0.0455 0.15866 0.0
H336 H 0.45408 0.0338 0.97713 0.0
H337 H 0.44801 0.96967 0.0699 0.0
H338 H 0.43244 0.98614 0.07771 0.0
H339 H 0.45414 0.98956 0.10571 0.0
C340 C 0.42322 0.03299 0.11596 0.0
C341 C 0.43688 0.0405 0.14739 0.0
C342 C 0.42736 0.02401 0.07404 0.0
C343 C 0.44516 0.02274 0.06316 0.0
C344 C 0.45871 0.03108 0.09324 0.0
H345 H 0.53387 0.99737 0.99043 0.0
H346 H 0.50369 -0.00089 0.01694 0.0
C347 C 0.45463 0.0398 0.13509 0.0
C348 C 0.45033 0.01162 0.02305 0.0
H349 H 0.46962 0.97304 0.00963 0.0
C350 C 0.45673 0.02016 0.98257 0.0
C351 C 0.45367 0.99386 0.03053 0.0
C352 C 0.44664 0.98413 0.07316 0.0
C353 C 0.46837 0.01215 0.95266 0.0
C354 C 0.47372 0.99535 0.96416 0.0
C355 C 0.46546 0.98591 0.00096 0.0
C356 C 0.49112 0.99036 0.94915 0.0
C357 C 0.47669 0.0226 0.91277 0.0
C358 C 0.49393 0.98421 0.90268 0.0
C359 C 0.51128 0.98297 0.88761 0.0
C360 C 0.52583 0.98816 0.91876 0.0
C361 C 0.52284 0.99329 0.96587 0.0
C362 C 0.50563 0.99424 0.98102 0.0
H363 H 0.47023 0.03494 0.90649 0.0
H364 H 0.491 0.02626 0.92144 0.0
H365 H 0.47571 0.01435 0.87937 0.0
H366 H 0.48284 0.98125 0.87762 0.0
H367 H 0.51335 0.97916 0.85091 0.0
H368 H 0.27072 0.80918 0.15832 0.0
H369 H 0.2843 0.79928 0.23092 0.0
H370 H 0.27567 0.84863 0.30309 0.0
H371 H 0.26174 0.85868 0.22987 0.0
H372 H 0.31421 0.81496 0.28585 0.0
H373 H 0.25175 0.81024 0.38767 0.0
H374 H 0.25122 0.81252 0.32397 0.0
H375 H 0.25944 0.83103 0.36225 0.0
C376 C 0.27177 0.81802 0.18943 0.0
C377 C 0.26516 0.8347 0.18839 0.0
C378 C 0.27959 0.81235 0.23092 0.0
C379 C 0.281 0.82322 0.27232 0.0
C380 C 0.27458 0.84 0.27155 0.0
H381 H 0.3005 0.75511 0.51098 0.0
H382 H 0.30359 0.78481 0.47676 0.0
C383 C 0.26662 0.84569 0.22981 0.0
C384 C 0.28849 0.8161 0.31611 0.0
H385 H 0.27453 0.79385 0.41393 0.0
C386 C 0.30577 0.81085 0.31486 0.0
C387 C 0.27754 0.81098 0.35425 0.0
C388 C 0.25893 0.81639 0.35746 0.0
C389 C 0.3116 0.79888 0.34757 0.0
C390 C 0.29983 0.79206 0.38204 0.0
C391 C 0.28347 0.79909 0.38716 0.0
C392 C 0.30199 0.77486 0.40372 0.0
C393 C 0.32968 0.7924 0.34245 0.0
C394 C 0.30028 0.75957 0.3739 0.0
C395 C 0.29814 0.74281 0.39318 0.0
C396 C 0.29803 0.74105 0.44259 0.0
C397 C 0.3009 0.75624 0.4727 0.0
C398 C 0.30261 0.77314 0.45329 0.0
H399 H 0.33905 0.80265 0.32666 0.0
H400 H 0.33525 0.78874 0.37737 0.0
H401 H 0.32853 0.78046 0.31832 0.0
H402 H 0.29936 0.76064 0.33558 0.0
H403 H 0.29576 0.73125 0.36944 0.0
H404 H 0.44132 0.04763 0.43827 0.0
H405 H 0.45522 0.0485 0.51811 0.0
H406 H 0.49732 0.01969 0.46468 0.0
H407 H 0.4837 0.01883 0.38488 0.0
H408 H 0.4647 0.02008 0.57614 0.0
H409 H 0.52336 0.06505 0.52894 0.0
H410 H 0.50329 0.062 0.49215 0.0
H411 H 0.51913 0.04576 0.49015 0.0
C412 C 0.4535 0.0414 0.44348 0.0
C413 C 0.46147 0.03329 0.40497 0.0
C414 C 0.46141 0.04193 0.48914 0.0
C415 C 0.47745 0.03447 0.49699 0.0
C416 C 0.48512 0.02585 0.45908 0.0
H417 H 0.5507 0.01605 0.72119 0.0
H418 H 0.53408 0.01956 0.64709 0.0
C419 C 0.47724 0.02529 0.41352 0.0
C420 C 0.48633 0.03568 0.54469 0.0
H421 H 0.52518 0.05084 0.60322 0.0
C422 C 0.47783 0.02698 0.58235 0.0
C423 C 0.50341 0.04477 0.55255 0.0
C424 C 0.5128 0.05508 0.51396 0.0
C425 C 0.48634 0.02642 0.62726 0.0
C426 C 0.50366 0.03506 0.63465 0.0
C427 C 0.51192 0.04421 0.59735 0.0
C428 C 0.51391 0.03379 0.67983 0.0
C429 C 0.47706 0.01599 0.6658 0.0
C430 C 0.50826 0.04099 0.72269 0.0
C431 C 0.51776 0.03903 0.76533 0.0
C432 C 0.53309 0.02986 0.76571 0.0
C433 C 0.53894 0.02314 0.72235 0.0
C434 C 0.52946 0.02513 0.67988 0.0
H435 H 0.46532 0.00732 0.65159 0.0
H436 H 0.4863 0.00762 0.6839 0.0
H437 H 0.47247 0.02534 0.69284 0.0
H438 H 0.49644 0.048 0.72321 0.0
H439 H 0.51289 0.04439 0.79803 0.0
H440 H 0.23489 0.24611 0.66331 0.0
H441 H 0.23075 0.26577 0.731 0.0
H442 H 0.26693 0.23821 0.81626 0.0
H443 H 0.27053 0.21778 0.74882 0.0
H444 H 0.2386 0.24511 0.86521 0.0
H445 H 0.2651 0.30635 0.7788 0.0
H446 H 0.24699 0.2949 0.74448 0.0
H447 H 0.26722 0.28452 0.75352 0.0
C448 C 0.24184 0.24402 0.69647 0.0
C449 C 0.253 0.2303 0.70065 0.0
C450 C 0.23964 0.25548 0.73504 0.0
C451 C 0.24889 0.25376 0.77827 0.0
C452 C 0.25979 0.23986 0.78301 0.0
H453 H 0.25623 0.3358 0.00327 0.0
H454 H 0.2622 0.31613 0.93646 0.0
C455 C 0.26182 0.2282 0.7445 0.0
C456 C 0.24681 0.26627 0.81869 0.0
H457 H 0.24854 0.31038 0.84908 0.0
C458 C 0.24093 0.25938 0.86186 0.0
C459 C 0.2502 0.28487 0.81456 0.0
C460 C 0.25792 0.29308 0.77049 0.0
C461 C 0.23779 0.27061 0.90059 0.0
C462 C 0.24005 0.28923 0.89537 0.0
C463 C 0.24648 0.29611 0.85271 0.0
C464 C 0.23602 0.3018 0.93397 0.0
C465 C 0.23235 0.26236 0.94685 0.0
C466 C 0.21912 0.30068 0.9536 0.0
C467 C 0.21573 0.31176 0.99211 0.0
C468 C 0.22907 0.32441 0.011 0.0
C469 C 0.24566 0.3262 0.9895 0.0
C470 C 0.24912 0.31493 0.95141 0.0
H471 H 0.2366 0.24877 0.94951 0.0
H472 H 0.2381 0.27054 0.97795 0.0
H473 H 0.21767 0.2613 0.94871 0.0
H474 H 0.20863 0.29105 0.93962 0.0
H475 H 0.20274 0.31022 0.00755 0.0
H476 H 0.05781 0.05804 0.90785 0.0
H477 H 0.0431 0.06005 0.98361 0.0
H478 H 0.04711 0.00432 0.0037 0.0
H479 H 0.0622 0.00229 0.92821 0.0
H480 H 0.01083 0.03537 0.97252 0.0
H481 H 0.04807 0.02789 0.14337 0.0
H482 H 0.05854 0.03799 0.09245 0.0
H483 H 0.05297 0.01445 0.09233 0.0
C484 C 0.05639 0.04643 0.92962 0.0
C485 C 0.06079 0.02994 0.91193 0.0
C486 C 0.04806 0.04761 0.97296 0.0
C487 C 0.04391 0.03231 -0.00108 0.0
C488 C 0.05038 0.01632 0.9844 0.0
H489 H 0.95436 0.00518 0.17957 0.0
H490 H 0.98242 0.00483 0.13813 0.0
C491 C 0.05896 0.01517 0.94116 0.0
C492 C 0.02892 0.03199 0.03133 0.0
H493 H 0.01674 0.02771 0.14667 0.0
C494 C 0.01215 0.03381 0.01066 0.0
C495 C 0.0307 0.02951 0.0807 0.0
C496 C 0.04853 0.02741 0.1039 0.0
C497 C 0.99704 0.03342 0.03808 0.0
C498 C -0.00118 0.03153 0.08776 0.0
C499 C 0.01553 0.02931 0.10856 0.0
C500 C 0.9833 0.03226 0.11805 0.0
C501 C 0.97926 0.03487 0.0135 0.0
C502 C 0.97477 0.04786 0.12093 0.0
C503 C 0.95869 0.04803 0.14373 0.0
C504 C 0.95097 0.03266 0.16473 0.0
C505 C 0.95992 0.0172 0.16344 0.0
C506 C 0.976 0.01701 0.14022 0.0
H507 H 0.97954 0.03168 0.97473 0.0
H508 H 0.9687 0.02584 0.02921 0.0
H509 H 0.97565 0.04868 0.01798 0.0
H510 H 0.98028 0.05977 0.1041 0.0
H511 H 0.95214 0.06012 0.14379 0.0
H512 H 0.723 0.72698 0.93321 0.0
H513 H 0.72602 0.7385 0.85388 0.0
H514 H 0.77583 0.7157 0.84077 0.0
H515 H 0.77298 0.70426 0.92102 0.0
H516 H 0.77961 0.75097 0.83499 0.0
H517 H 0.72397 0.72566 0.7143 0.0
H518 H 0.71554 0.73148 0.77089 0.0
H519 H 0.73002 0.71395 0.76655 0.0
C520 C 0.7343 0.72386 0.91287 0.0
C521 C 0.74791 0.71502 0.93369 0.0
C522 C 0.73592 0.73028 0.86712 0.0
C523 C 0.75113 0.72791 0.84119 0.0
C524 C 0.76394 0.71758 0.86008 0.0
H525 H 0.78048 0.81542 0.64808 0.0
H526 H 0.78162 0.78564 0.67954 0.0
C527 C 0.76228 0.71105 0.90595 0.0
C528 C 0.75521 0.73951 0.80062 0.0
H529 H 0.73469 0.75737 0.70649 0.0
C530 C 0.77015 0.75201 0.80575 0.0
C531 C 0.7429 0.74082 0.76246 0.0
C532 C 0.72733 0.7271 0.75302 0.0
C533 C 0.77202 0.7669 0.77716 0.0
C534 C 0.75874 0.76911 0.74209 0.0
C535 C 0.74474 0.75572 0.73385 0.0
C536 C 0.75764 0.78634 0.71932 0.0
C537 C 0.78731 0.78092 0.7876 0.0
C538 C 0.74363 0.7964 0.73069 0.0
C539 C 0.74293 0.81331 0.71288 0.0
C540 C 0.75622 0.82049 0.68324 0.0
C541 C 0.77014 0.8103 0.67127 0.0
C542 C 0.7708 0.79329 0.68905 0.0
H543 H 0.79525 0.7781 0.81987 0.0
H544 H 0.79624 0.78158 0.75698 0.0
H545 H 0.78234 0.79416 0.7927 0.0
H546 H 0.73342 0.79131 0.75433 0.0
H547 H 0.73209 0.82085 0.72296 0.0
H548 H 0.75686 0.29328 0.46289 0.0
H549 H 0.75494 0.27905 0.3837 0.0
H550 H 0.72755 0.32201 0.32955 0.0
H551 H 0.72951 0.33651 0.40865 0.0
H552 H 0.7229 0.26822 0.33191 0.0
H553 H 0.76688 0.31652 0.23303 0.0
H554 H 0.76728 0.31612 0.29723 0.0
H555 H 0.74966 0.32561 0.26592 0.0
C556 C 0.75059 0.29985 0.43412 0.0
C557 C 0.74333 0.31606 0.44225 0.0
C558 C 0.74949 0.29166 0.38888 0.0
C559 C 0.74121 0.29953 0.35077 0.0
C560 C 0.73422 0.31585 0.35837 0.0
H561 H 0.72658 0.26066 0.05407 0.0
H562 H 0.72379 0.27764 0.12855 0.0
C563 C 0.73532 0.32408 0.40368 0.0
C564 C 0.73919 0.29012 0.30376 0.0
H565 H 0.75231 0.29217 0.18874 0.0
C566 C 0.72927 0.27347 0.30054 0.0
C567 C 0.74739 0.29711 0.26288 0.0
C568 C 0.75852 0.31476 0.26471 0.0
C569 C 0.72754 0.26347 0.25763 0.0
C570 C 0.7362 0.27019 0.21712 0.0
C571 C 0.74568 0.28708 0.21992 0.0
C572 C 0.73666 0.25938 0.17255 0.0
C573 C 0.71646 0.24579 0.25605 0.0
C574 C 0.74477 0.24349 0.17275 0.0
C575 C 0.74638 0.23377 0.13046 0.0
C576 C 0.73999 0.23979 0.08694 0.0
C577 C 0.73155 0.25557 0.08696 0.0
C578 C 0.73 0.26534 0.12942 0.0
H579 H 0.70662 0.24502 0.28468 0.0
H580 H 0.70929 0.24329 0.22115 0.0
H581 H 0.72528 0.23507 0.26135 0.0
H582 H 0.7503 0.23883 0.20551 0.0
H583 H 0.753 0.22172 0.13185 0.0
H584 H 0.77475 0.23757 0.86037 0.0
H585 H 0.7741 0.26743 0.83027 0.0
H586 H 0.78729 0.28982 0.97101 0.0
H587 H 0.78853 0.25969 0.00119 0.0
H588 H 0.75286 0.29766 0.92094 0.0
H589 H 0.81237 0.31168 0.81317 0.0
H590 H 0.80268 0.28908 0.80707 0.0
H591 H 0.81199 0.29742 0.86381 0.0
C592 C 0.77807 0.24888 0.88454 0.0
C593 C 0.78179 0.24645 0.93286 0.0
C594 C 0.77777 0.2659 0.86735 0.0
C595 C 0.78085 0.28078 0.89838 0.0
C596 C 0.78517 0.27847 0.94651 0.0
H597 H 0.75067 0.36693 0.71823 0.0
H598 H 0.76403 0.35695 0.79253 0.0
C599 C 0.78591 0.26133 0.96358 0.0
C600 C 0.7767 0.29812 0.88077 0.0
H601 H 0.78545 0.32387 0.78533 0.0
C602 C 0.76031 0.30398 0.89263 0.0
C603 C 0.7865 0.30636 0.84412 0.0
C604 C 0.80446 0.30093 0.83151 0.0
C605 C 0.75246 0.31631 0.86464 0.0
C606 C 0.76131 0.32287 0.82435 0.0
C607 C 0.77866 0.31873 0.81623 0.0
C608 C 0.75143 0.33012 0.78466 0.0
C609 C 0.73405 0.32096 0.8755 0.0
C610 C 0.73992 0.31832 0.75626 0.0
C611 C 0.73265 0.32383 0.71382 0.0
C612 C 0.73651 0.34132 0.69951 0.0
C613 C 0.7473 0.35344 0.7291 0.0
C614 C 0.75495 0.34778 0.77128 0.0
H615 H 0.73107 0.319 0.91355 0.0
H616 H 0.73245 0.33494 0.8667 0.0
H617 H 0.7242 0.31222 0.8535 0.0
H618 H 0.73729 0.30457 0.76576 0.0
H619 H 0.72447 0.31425 0.69136 0.0
H620 H 0.75381 0.75153 0.15302 0.0
H621 H 0.74648 0.77015 0.22028 0.0
H622 H 0.75957 0.7298 0.31694 0.0
H623 H 0.76705 0.71095 0.24941 0.0
H624 H 0.72095 0.76268 0.28914 0.0
H625 H 0.78931 0.77513 0.36846 0.0
H626 H 0.78489 0.76611 0.30873 0.0
H627 H 0.78125 0.75216 0.35881 0.0
C628 C 0.75507 0.74653 0.18851 0.0
C629 C 0.76095 0.72973 0.19593 0.0
C630 C 0.75089 0.75722 0.2269 0.0
C631 C 0.75259 0.75139 0.27346 0.0
C632 C 0.75841 0.73461 0.28119 0.0
H633 H 0.71107 0.79956 0.52548 0.0
H634 H 0.71558 0.78028 0.45674 0.0
C635 C 0.76263 0.72387 0.24266 0.0
C636 C 0.7482 0.76301 0.31362 0.0
H637 H 0.76633 0.7869 0.41062 0.0
C638 C 0.73083 0.76796 0.31583 0.0
C639 C 0.76123 0.77003 0.34783 0.0
C640 C 0.78026 0.76575 0.34584 0.0
C641 C 0.72611 0.77977 0.35157 0.0
C642 C 0.73907 0.78656 0.38621 0.0
C643 C 0.75643 0.78161 0.38396 0.0
C644 C 0.735 0.79888 0.4252 0.0
C645 C 0.70743 0.78518 0.35133 0.0
C646 C 0.74438 0.81575 0.43004 0.0
C647 C 0.74193 0.8268 0.46939 0.0
C648 C 0.7301 0.8211 0.50479 0.0
C649 C 0.72023 0.80442 0.49884 0.0
C650 C 0.72274 0.79337 0.45948 0.0
H651 H 0.70055 0.78243 0.3161 0.0
H652 H 0.69971 0.77754 0.37817 0.0
H653 H 0.70742 0.79953 0.36071 0.0
H654 H 0.75392 0.82021 0.40387 0.0
H655 H 0.74973 0.83955 0.47276 0.0
H656 H 0.52606 0.53849 0.18991 0.0
H657 H 0.50628 0.54134 0.12171 0.0
H658 H 0.53646 0.50714 0.03759 0.0
H659 H 0.55701 0.50487 0.10562 0.0
H660 H 0.52756 0.53481 0.98793 0.0
H661 H 0.46796 0.50427 0.07438 0.0
H662 H 0.4782 0.523 0.1087 0.0
H663 H 0.49005 0.50369 0.09969 0.0
C664 C 0.52871 0.53173 0.1569 0.0
C665 C 0.54319 0.52149 0.15324 0.0
C666 C 0.51719 0.53318 0.11802 0.0
C667 C 0.51961 0.52407 0.07499 0.0
C668 C 0.53427 0.51414 0.0707 0.0
H669 H 0.43703 0.51179 0.85125 0.0
H670 H 0.45756 0.50689 0.91708 0.0
C671 C 0.54599 0.51287 0.10955 0.0
C672 C 0.50691 0.5252 0.03447 0.0
H673 H 0.4627 0.52056 0.00427 0.0
C674 C 0.51339 0.53153 0.99129 0.0
C675 C 0.48847 0.52057 0.03864 0.0
C676 C 0.48079 0.51232 0.0827 0.0
C677 C 0.50186 0.53394 0.95263 0.0
C678 C 0.48331 0.53046 0.95794 0.0
C679 C 0.47689 0.52355 0.00057 0.0
C680 C 0.47035 0.53375 0.91957 0.0
C681 C 0.5097 0.53997 0.90638 0.0
C682 C 0.47032 0.55063 0.90024 0.0
C683 C 0.45874 0.55343 0.86229 0.0
C684 C 0.44672 0.53947 0.8437 0.0
C685 C 0.44611 0.52282 0.86484 0.0
C686 C 0.45788 0.51998 0.90234 0.0
H687 H 0.52362 0.53661 0.90354 0.0
H688 H 0.5018 0.53384 0.87527 0.0
H689 H 0.50985 0.55461 0.90475 0.0
H690 H 0.47941 0.5616 0.9141 0.0
H691 H 0.45938 0.56645 0.8471 0.0
H692 H 0.0293 0.52336 0.46159 0.0
H693 H -0.00127 0.52232 0.48648 0.0
H694 H 0.9835 0.4797 0.38416 0.0
H695 H 0.01445 0.48069 0.35844 0.0
H696 H 0.96676 0.52488 0.41343 0.0
H697 H 0.96515 0.46543 0.52616 0.0
H698 H 0.98623 0.47806 0.51781 0.0
H699 H 0.97505 0.46582 0.46841 0.0
C700 C 0.01952 0.51374 0.44423 0.0
C701 C 0.02424 0.50221 0.40778 0.0
C702 C 0.00206 0.51317 0.45852 0.0
C703 C 0.98893 0.50105 0.43682 0.0
C704 C 0.99353 0.48916 0.40112 0.0
H705 H 0.90024 0.51179 0.62459 0.0
H706 H 0.91067 0.50094 0.54776 0.0
C707 C 0.01116 0.48971 0.3867 0.0
C708 C 0.97058 0.50144 0.45264 0.0
H709 H 0.94607 0.4874 0.54641 0.0
C710 C 0.9617 0.51626 0.44112 0.0
C711 C 0.96396 0.49007 0.48828 0.0
C712 C 0.97298 0.47386 0.50104 0.0
C713 C 0.94774 0.52125 0.46858 0.0
C714 C 0.94276 0.51123 0.50845 0.0
C715 C 0.94999 0.4951 0.51584 0.0
C716 C 0.93431 0.51945 0.54904 0.0
C717 C 0.93962 0.53815 0.45774 0.0
C718 C 0.94411 0.53346 0.57465 0.0
C719 C 0.93843 0.53933 0.61842 0.0
C720 C 0.92267 0.53155 0.63689 0.0
C721 C 0.91226 0.5182 0.61025 0.0
C722 C 0.91821 0.51198 0.56667 0.0
H723 H 0.94013 0.54088 0.41916 0.0
H724 H 0.92561 0.53749 0.46883 0.0
H725 H 0.94726 0.54943 0.47749 0.0
H726 H 0.95678 0.53911 0.56215 0.0
H727 H 0.94672 0.54947 0.63882 0.0
H728 H 0.01404 0.55193 0.26551 0.0
H729 H 0.9974 0.55077 0.18945 0.0
H730 H 0.03521 0.51852 0.12732 0.0
H731 H 0.05203 0.51964 0.20295 0.0
H732 H 0.02463 0.54704 0.06945 0.0
H733 H 0.96742 0.50471 0.13835 0.0
H734 H 0.9743 0.52476 0.17245 0.0
H735 H 0.98891 0.50748 0.16861 0.0
C736 C 0.01895 0.54475 0.23557 0.0
C737 C 0.03431 0.53576 0.24049 0.0
C738 C 0.00935 0.54401 0.19225 0.0
C739 C 0.01494 0.5343 0.15317 0.0
C740 C 0.03064 0.52597 0.15727 0.0
H741 H 0.97734 0.50923 0.86274 0.0
H742 H 0.9938 0.51181 0.939 0.0
C743 C 0.04022 0.52664 0.20056 0.0
C744 C 0.00423 0.53246 0.10821 0.0
H745 H 0.96461 0.51419 0.05946 0.0
C746 C 0.01151 0.53986 0.06714 0.0
C747 C 0.98713 0.52309 0.10556 0.0
C748 C 0.97896 0.51441 0.14843 0.0
C749 C 0.00203 0.53832 0.02339 0.0
C750 C 0.985 0.52876 0.02056 0.0
C751 C 0.97768 0.52146 0.06176 0.0
C752 C 0.97454 0.52626 0.97515 0.0
C753 C 0.01018 0.54723 0.98082 0.0
C754 C 0.95788 0.53283 0.97085 0.0
C755 C 0.94832 0.53121 0.92745 0.0
C756 C 0.95525 0.52296 0.88753 0.0
C757 C 0.97167 0.5158 0.89257 0.0
C758 C 0.98117 0.51738 0.93604 0.0
H759 H 0.02086 0.5578 0.9916 0.0
H760 H 0.01615 0.53721 0.95839 0.0
H761 H 0.0 0.55316 0.95883 0.0
H762 H 0.95247 0.53959 0.00078 0.0
H763 H 0.93571 0.53684 0.92497 0.0
H764 H 0.45408 0.4968 0.68286 0.0
H765 H 0.48424 0.4986 0.65274 0.0
H766 H 0.47784 0.55075 0.60082 0.0
H767 H 0.44788 0.5491 0.63081 0.0
H768 H 0.49267 0.50186 0.56063 0.0
H769 H 0.52683 0.55862 0.66438 0.0
H770 H 0.50619 0.5471 0.68239 0.0
H771 H 0.50615 0.56422 0.63916 0.0
C772 C 0.45916 0.5087 0.6653 0.0
C773 C 0.44863 0.52285 0.65935 0.0
C774 C 0.47643 0.50975 0.64849 0.0
C775 C 0.48346 0.525 0.62575 0.0
C776 C 0.47294 0.53911 0.61978 0.0
H777 H 0.54242 0.56289 0.41168 0.0
H778 H 0.52924 0.5586 0.48885 0.0
C779 C 0.45573 0.53808 0.63655 0.0
C780 C 0.50086 0.5255 0.60289 0.0
H781 H 0.53825 0.55315 0.58537 0.0
C782 C 0.50295 0.51274 0.56694 0.0
C783 C 0.51427 0.53965 0.61154 0.0
C784 C 0.51333 0.55305 0.65187 0.0
C785 C 0.51718 0.51473 0.53613 0.0
C786 C 0.52982 0.52974 0.5422 0.0
C787 C 0.52854 0.54168 0.58075 0.0
C788 C 0.54204 0.53492 0.5038 0.0
C789 C 0.51762 0.50161 0.49478 0.0
C790 C 0.55463 0.52376 0.48826 0.0
C791 C 0.56212 0.52609 0.44368 0.0
C792 C 0.55709 0.53964 0.41436 0.0
C793 C 0.54628 0.5521 0.43294 0.0
C794 C 0.5388 0.54973 0.47726 0.0
H795 H 0.50556 0.492 0.4921 0.0
H796 H 0.51881 0.50866 0.46076 0.0
H797 H 0.52933 0.49398 0.4992 0.0
H798 H 0.55758 0.51246 0.50882 0.0
H799 H 0.5706 0.51639 0.43069 0.0
H800 H 0.06972 0.46681 0.19021 0.0
H801 H 0.08819 0.44884 0.14214 0.0
H802 H 0.13534 0.4759 0.2101 0.0
H803 H 0.11708 0.49394 0.25825 0.0
H804 H 0.13596 0.46756 0.10306 0.0
H805 H 0.11479 0.41093 0.21775 0.0
H806 H 0.09779 0.42265 0.19041 0.0
H807 H 0.1124 0.43364 0.23564 0.0
C808 C 0.08402 0.46914 0.19442 0.0
C809 C 0.09194 0.48161 0.22857 0.0
C810 C 0.09453 0.4589 0.16685 0.0
C811 C 0.11306 0.46103 0.17292 0.0
C812 C 0.12103 0.47414 0.20492 0.0
H813 H 0.20727 0.41332 0.12163 0.0
H814 H 0.18445 0.43397 0.1233 0.0
C815 C 0.11056 0.48434 0.2326 0.0
C816 C 0.12412 0.4483 0.15044 0.0
H817 H 0.13658 0.40661 0.16283 0.0
C818 C 0.13598 0.45412 0.11547 0.0
C819 C 0.12399 0.43082 0.16672 0.0
C820 C 0.11166 0.42405 0.20486 0.0
C821 C 0.14808 0.44294 0.097 0.0
C822 C 0.14857 0.42572 0.11507 0.0
C823 C 0.13619 0.41976 0.14875 0.0
C824 C 0.16271 0.41414 0.10359 0.0
C825 C 0.16022 0.44973 0.05857 0.0
C826 C 0.1582 0.39613 0.0914 0.0
C827 C 0.17118 0.38422 0.0917 0.0
C828 C 0.18895 0.39015 0.10361 0.0
C829 C 0.1937 0.40839 0.112 0.0
C830 C 0.18064 0.42026 0.11259 0.0
H831 H 0.1539 0.45949 0.03657 0.0
H832 H 0.17253 0.45662 0.07533 0.0
H833 H 0.16388 0.43876 0.03489 0.0
H834 H 0.14447 0.39109 0.08434 0.0
H835 H 0.16718 0.37024 0.0847 0.0
H836 H 0.81614 0.89937 0.58062 0.0
H837 H 0.83269 0.9191 0.52669 0.0
H838 H 0.7854 0.92101 0.43856 0.0
H839 H 0.76866 0.90144 0.49253 0.0
H840 H 0.83799 0.91414 0.42881 0.0
H841 H 0.8024 0.97363 0.46653 0.0
H842 H 0.80097 0.95462 0.50404 0.0
H843 H 0.78832 0.95394 0.44887 0.0
C844 C 0.80924 0.90401 0.54984 0.0
C845 C 0.79106 0.89893 0.54102 0.0
C846 C 0.81872 0.91525 0.51904 0.0
C847 C 0.8102 0.92168 0.47908 0.0
C848 C 0.79213 0.91644 0.46974 0.0
H849 H 0.86253 0.97251 0.23949 0.0
H850 H 0.8449 0.95234 0.2902 0.0
C851 C 0.78262 0.9052 0.5005 0.0
C852 C 0.8203 0.93375 0.44698 0.0
H853 H 0.82288 0.97564 0.4043 0.0
C854 C 0.83471 0.92759 0.42339 0.0
C855 C 0.81606 0.95133 0.44048 0.0
C856 C 0.8012 0.95888 0.46659 0.0
C857 C 0.84497 0.93853 0.39313 0.0
C858 C 0.8405 0.95599 0.38585 0.0
C859 C 0.82615 0.96219 0.40969 0.0
C860 C 0.85089 0.96825 0.35481 0.0
C861 C 0.86073 0.93146 0.37005 0.0
C862 C 0.8597 0.98408 0.37417 0.0
C863 C 0.86967 0.99568 0.3453 0.0
C864 C 0.87096 0.99168 0.29645 0.0
C865 C 0.8619 0.97592 0.27702 0.0
C866 C 0.8519 0.96433 0.30596 0.0
H867 H 0.86483 0.91956 0.38801 0.0
H868 H 0.85717 0.92762 0.33238 0.0
H869 H 0.87223 0.94175 0.37057 0.0
H870 H 0.85901 0.98737 0.41178 0.0
H871 H 0.87646 0.00772 0.36139 0.0
H872 H 0.31988 0.69198 0.65543 0.0
H873 H 0.33087 0.66918 0.70486 0.0
H874 H 0.28077 0.63718 0.68451 0.0
H875 H 0.26999 0.65962 0.63291 0.0
H876 H 0.32251 0.65047 0.78377 0.0
H877 H 0.31405 0.60634 0.62105 0.0
H878 H 0.31082 0.62957 0.61974 0.0
H879 H 0.294 0.614 0.64287 0.0
C880 C 0.31107 0.68025 0.66221 0.0
C881 C 0.29425 0.67735 0.63941 0.0
C882 C 0.31734 0.66724 0.69063 0.0
C883 C 0.30682 0.65125 0.69721 0.0
C884 C 0.2893 0.64918 0.67866 0.0
H885 H 0.35624 0.55467 0.75952 0.0
H886 H 0.33277 0.57468 0.76326 0.0
C887 C 0.28314 0.66203 0.64937 0.0
C888 C 0.31511 0.63613 0.71779 0.0
H889 H 0.32896 0.59596 0.68632 0.0
C890 C 0.32367 0.6384 0.76285 0.0
C891 C 0.31663 0.62037 0.69039 0.0
C892 C 0.30853 0.6174 0.64071 0.0
C893 C 0.3344 0.62573 0.78021 0.0
C894 C 0.33661 0.61048 0.75168 0.0
C895 C 0.32712 0.60765 0.70819 0.0
C896 C 0.35066 0.5987 0.76187 0.0
C897 C 0.34375 0.62902 0.82813 0.0
C898 C 0.3685 0.60561 0.76107 0.0
C899 C 0.38192 0.59425 0.75846 0.0
C900 C 0.37773 0.57574 0.75643 0.0
C901 C 0.35993 0.56886 0.76081 0.0
C902 C 0.34649 0.58026 0.76314 0.0
H903 H 0.33633 0.63751 0.85172 0.0
H904 H 0.34546 0.61636 0.84593 0.0
H905 H 0.35709 0.63606 0.82327 0.0
H906 H 0.372 0.61978 0.75905 0.0
H907 H 0.3955 0.59999 0.75554 0.0
H908 H 0.72921 0.15023 0.99108 0.0
H909 H 0.70653 0.12505 0.97965 0.0
H910 H 0.67241 0.15836 0.90576 0.0
H911 H 0.69497 0.18351 0.91639 0.0
H912 H 0.67142 0.12114 0.00859 0.0
H913 H 0.67463 0.11625 0.81196 0.0
H914 H 0.69148 0.12897 0.84879 0.0
H915 H 0.67095 0.13801 0.83426 0.0
C916 C 0.71688 0.15222 0.97244 0.0
C917 C 0.71399 0.16889 0.95435 0.0
C918 C 0.70395 0.13781 0.96592 0.0
C919 C 0.68796 0.13977 0.94104 0.0
C920 C 0.68484 0.15647 0.92407 0.0
H921 H 0.58813 0.07511 0.9389 0.0
H922 H 0.61299 0.09798 0.94973 0.0
C923 C 0.69773 0.17086 0.9305 0.0
C924 C 0.67437 0.12447 0.93337 0.0
H925 H 0.65012 0.09971 0.84666 0.0
C926 C 0.66684 0.11635 0.97322 0.0
C927 C 0.66863 0.11809 0.88716 0.0
C928 C 0.67695 0.12565 0.84307 0.0
C929 C 0.65327 0.10238 0.96808 0.0
C930 C 0.64693 0.0966 0.92188 0.0
C931 C 0.65487 0.10432 0.88203 0.0
C932 C 0.63182 0.08279 0.91422 0.0
C933 C 0.6459 0.09389 0.01216 0.0
C934 C 0.63402 0.06689 0.8892 0.0
C935 C 0.61978 0.05377 0.88257 0.0
C936 C 0.60304 0.05639 0.9007 0.0
C937 C 0.60084 0.07255 0.92475 0.0
C938 C 0.61507 0.08563 0.93129 0.0
H939 H 0.65531 0.09634 0.04322 0.0
H940 H 0.63343 0.09966 0.02112 0.0
H941 H 0.64283 0.07934 0.00633 0.0
H942 H 0.64683 0.06453 0.87539 0.0
H943 H 0.62195 0.04153 0.86377 0.0
H944 H 0.12292 0.54973 0.35108 0.0
H945 H 0.14859 0.57179 0.36381 0.0
H946 H 0.11422 0.61011 0.4139 0.0
H947 H 0.08856 0.58823 0.40186 0.0
H948 H 0.15613 0.60606 0.32765 0.0
H949 H 0.15086 0.6082 0.52411 0.0
H950 H 0.13921 0.59089 0.48651 0.0
H951 H 0.13077 0.61222 0.49245 0.0
C952 C 0.12079 0.56288 0.3645 0.0
C953 C 0.10368 0.56713 0.37592 0.0
C954 C 0.13548 0.57545 0.37178 0.0
C955 C 0.13331 0.59243 0.39071 0.0
C956 C 0.11621 0.59694 0.40027 0.0
H957 H 0.20617 0.68763 0.39856 0.0
H958 H 0.18169 0.66459 0.38308 0.0
C959 C 0.10154 0.58442 0.3931 0.0
C960 C 0.14892 0.60541 0.40112 0.0
H961 H 0.17093 0.63036 0.49124 0.0
C962 C 0.15944 0.61132 0.36341 0.0
C963 C 0.15334 0.61202 0.44794 0.0
C964 C 0.14307 0.6054 0.49019 0.0
C965 C 0.17404 0.62408 0.37113 0.0
C966 C 0.17798 0.63126 0.41766 0.0
C967 C 0.16774 0.62498 0.45553 0.0
C968 C 0.19268 0.64532 0.42783 0.0
C969 C 0.1852 0.62963 0.3295 0.0
C970 C 0.20666 0.64234 0.45946 0.0
C971 C 0.22064 0.65553 0.46878 0.0
C972 C 0.22083 0.67201 0.44674 0.0
C973 C 0.20654 0.67507 0.41592 0.0
C974 C 0.19258 0.66187 0.40671 0.0
H975 H 0.18344 0.61962 0.29964 0.0
H976 H 0.18114 0.64235 0.31626 0.0
H977 H 0.1995 0.63166 0.34019 0.0
H978 H 0.20689 0.62969 0.47643 0.0
H979 H 0.23139 0.65272 0.49277 0.0
H980 H 0.57885 0.94812 0.72826 0.0
H981 H 0.60091 0.93474 0.68085 0.0
H982 H 0.63436 0.98424 0.68846 0.0
H983 H 0.61266 0.99752 0.73764 0.0
H984 H 0.61803 0.94089 0.5977 0.0
H985 H 0.66549 0.95128 0.75311 0.0
H986 H 0.64248 0.9552 0.75704 0.0
H987 H 0.65793 0.97121 0.73022 0.0
C988 C 0.59079 0.95624 0.71931 0.0
C989 C 0.59422 0.97375 0.73748 0.0
C990 C 0.60336 0.94859 0.69208 0.0
C991 C 0.61946 0.95837 0.68216 0.0
C992 C 0.62224 0.97631 0.69686 0.0
H993 H 0.71514 0.91076 0.59941 0.0
H994 H 0.69386 0.93309 0.60285 0.0
C995 C 0.60981 0.98389 0.72481 0.0
C996 C 0.63387 0.9492 0.66073 0.0
H997 H 0.67483 0.93602 0.68649 0.0
C998 C 0.63056 0.94 0.61679 0.0
C999 C 0.65019 0.94802 0.68579 0.0
C1000 C 0.65424 0.95681 0.7343 0.0
C1001 C 0.64292 0.92921 0.59799 0.0
C1002 C 0.6589 0.92758 0.62393 0.0
C1003 C 0.66259 0.93744 0.66658 0.0
C1004 C 0.67102 0.91412 0.61128 0.0
C1005 C 0.63863 0.91933 0.55116 0.0
C1006 C 0.66513 0.89605 0.61393 0.0
C1007 C 0.67725 0.88328 0.61245 0.0
C1008 C 0.69549 0.88836 0.60839 0.0
C1009 C 0.7012 0.90639 0.60266 0.0
C1010 C 0.68906 0.91918 0.60449 0.0
H1011 H 0.62891 0.92594 0.52923 0.0
H1012 H 0.65081 0.91824 0.53056 0.0
H1013 H 0.63268 0.90571 0.55807 0.0
H1014 H 0.65132 0.89189 0.62011 0.0
H1015 H 0.67238 0.8695 0.61666 0.0
H1016 H 0.35825 0.49739 0.81736 0.0
H1017 H 0.33876 0.47821 0.86589 0.0
H1018 H 0.37876 0.44146 0.8765 0.0
H1019 H 0.39852 0.46076 0.82876 0.0
H1020 H 0.32531 0.44374 0.84747 0.0
H1021 H 0.36642 0.449 0.01482 0.0
H1022 H 0.3706 0.46381 0.96635 0.0
H1023 H 0.37791 0.44189 0.9638 0.0
C1024 C 0.36296 0.48527 0.8302 0.0
C1025 C 0.37998 0.48062 0.81935 0.0
C1026 C 0.35179 0.47433 0.85791 0.0
C1027 C 0.35741 0.45856 0.87536 0.0
C1028 C 0.37432 0.45378 0.86429 0.0
H1029 H 0.3058 0.37239 0.03273 0.0
H1030 H 0.32584 0.39146 0.98511 0.0
C1031 C 0.38555 0.46477 0.83675 0.0
C1032 C 0.34531 0.44687 0.9039 0.0
H1033 H 0.34131 0.42756 0.01182 0.0
C1034 C 0.32877 0.44027 0.88348 0.0
C1035 C 0.34988 0.44238 0.95088 0.0
C1036 C 0.36709 0.44976 0.9755 0.0
C1037 C 0.31674 0.42908 0.90858 0.0
C1038 C 0.32135 0.42454 0.95539 0.0
C1039 C 0.33789 0.43108 0.97582 0.0
C1040 C 0.30912 0.41306 0.98386 0.0
C1041 C 0.29931 0.42197 0.88468 0.0
C1042 C 0.29318 0.41902 -0.00086 0.0
C1043 C 0.28172 0.40821 0.02651 0.0
C1044 C 0.28604 0.39125 0.03898 0.0
C1045 C 0.30206 0.38536 0.02362 0.0
C1046 C 0.31354 0.39622 0.99649 0.0
H1047 H 0.29932 0.42374 0.84559 0.0
H1048 H 0.29628 0.40765 0.89161 0.0
H1049 H 0.28849 0.42917 0.89946 0.0
H1050 H 0.28967 0.43209 0.99018 0.0
H1051 H 0.26951 0.41315 0.03785 0.0
H1052 H 0.77984 0.15766 0.10369 0.0
H1053 H 0.79663 0.14039 0.15783 0.0
H1054 H 0.82573 0.18852 0.2143 0.0
H1055 H 0.80895 0.20597 0.16038 0.0
H1056 H 0.84611 0.16266 0.17118 0.0
H1057 H 0.80051 0.13269 0.30419 0.0
H1058 H 0.79181 0.13134 0.24389 0.0
H1059 H 0.79648 0.15267 0.27355 0.0
C1060 C 0.78952 0.16463 0.12838 0.0
C1061 C 0.79323 0.18316 0.12734 0.0
C1062 C 0.79898 0.15474 0.15963 0.0
C1063 C 0.81227 0.16322 0.19034 0.0
C1064 C 0.81537 0.18178 0.19117 0.0
H1065 H 0.9035 0.11072 0.29122 0.0
H1066 H 0.88242 0.1333 0.28912 0.0
C1067 C 0.80582 0.19171 0.1602 0.0
C1068 C 0.82485 0.15253 0.21494 0.0
H1069 H 0.82748 0.11911 0.29293 0.0
C1070 C 0.8422 0.15338 0.19857 0.0
C1071 C 0.81954 0.14035 0.25008 0.0
C1072 C 0.8011 0.13925 0.26934 0.0
C1073 C 0.85416 0.14164 0.21429 0.0
C1074 C 0.8488 0.12913 0.2489 0.0
C1075 C 0.83162 0.12878 0.26675 0.0
C1076 C 0.86024 0.11516 0.26271 0.0
C1077 C 0.87195 0.142 0.19105 0.0
C1078 C 0.85433 0.09725 0.2529 0.0
C1079 C 0.8662 0.08426 0.25551 0.0
C1080 C 0.88422 0.08907 0.26724 0.0
C1081 C 0.88973 0.10673 0.28131 0.0
C1082 C 0.87774 0.11964 0.27985 0.0
H1083 H 0.87219 0.14943 0.15753 0.0
H1084 H 0.88239 0.14867 0.21565 0.0
H1085 H 0.87539 0.12834 0.18273 0.0
H1086 H 0.84083 0.09346 0.23998 0.0
H1087 H 0.86158 0.07073 0.24458 0.0
H1088 H 0.77444 0.64165 0.02185 0.0
H1089 H 0.78712 0.61537 0.99037 0.0
H1090 H 0.83435 0.6287 0.07851 0.0
H1091 H 0.82164 0.65474 0.11092 0.0
H1092 H 0.81657 0.61681 0.93974 0.0
H1093 H 0.82623 0.5759 0.09624 0.0
H1094 H 0.81204 0.59377 0.09685 0.0
H1095 H 0.83567 0.59836 0.10666 0.0
C1096 C 0.7874 0.63881 0.03518 0.0
C1097 C 0.79709 0.65033 0.06872 0.0
C1098 C 0.7946 0.62377 0.01723 0.0
C1099 C 0.81157 0.61993 0.03256 0.0
C1100 C 0.82104 0.63112 0.06708 0.0
H1101 H 0.89886 0.57084 0.93671 0.0
H1102 H 0.87614 0.5845 0.98066 0.0
C1103 C 0.81382 0.64611 0.08526 0.0
C1104 C 0.8203 0.6056 0.00841 0.0
H1105 H 0.84463 0.57073 0.02907 0.0
C1106 C 0.82236 0.60647 0.95907 0.0
C1107 C 0.82782 0.59213 0.03373 0.0
C1108 C 0.82517 0.58986 0.08623 0.0
C1109 C 0.83268 0.59495 0.93481 0.0
C1110 C 0.84096 0.58207 0.96055 0.0
C1111 C 0.83824 0.58064 0.0095 0.0
C1112 C 0.85411 0.57153 0.93818 0.0
C1113 C 0.83554 0.59736 0.88237 0.0
C1114 C 0.84917 0.55923 0.90075 0.0
C1115 C 0.86217 0.5514 0.87533 0.0
C1116 C 0.88027 0.55581 0.88706 0.0
C1117 C 0.88505 0.56731 0.92642 0.0
C1118 C 0.87208 0.57507 0.95177 0.0
H1119 H 0.83038 0.60968 0.86946 0.0
H1120 H 0.84989 0.59784 0.87473 0.0
H1121 H 0.82857 0.58591 0.86182 0.0
H1122 H 0.83532 0.55619 0.89016 0.0
H1123 H 0.85807 0.5425 0.84537 0.0
H1124 H 0.18181 0.18336 0.62482 0.0
H1125 H 0.16166 0.15769 0.64455 0.0
H1126 H 0.20492 0.12458 0.64145 0.0
H1127 H 0.22532 0.15023 0.62196 0.0
H1128 H 0.15474 0.12473 0.5905 0.0
H1129 H 0.18235 0.11585 0.77299 0.0
H1130 H 0.18682 0.1362 0.74161 0.0
H1131 H 0.19788 0.11706 0.72567 0.0
C1132 C 0.18711 0.17065 0.62839 0.0
C1133 C 0.20523 0.16889 0.62197 0.0
C1134 C 0.17555 0.156 0.63961 0.0
C1135 C 0.18187 0.13934 0.64494 0.0
C1136 C 0.19987 0.13742 0.63817 0.0
H1137 H 0.12214 0.04072 0.72905 0.0
H1138 H 0.14603 0.06228 0.704 0.0
C1139 C 0.21147 0.15208 0.62681 0.0
C1140 C 0.16942 0.12399 0.65698 0.0
H1141 H 0.15828 0.09569 0.74601 0.0
C1142 C 0.15555 0.1183 0.62437 0.0
C1143 C 0.17065 0.11559 0.70105 0.0
C1144 C 0.18513 0.1215 0.73764 0.0
C1145 C 0.14265 0.10456 0.63497 0.0
C1146 C 0.14348 0.09659 0.67975 0.0
C1147 C 0.15768 0.10189 0.71177 0.0
C1148 C 0.12916 0.08351 0.69504 0.0
C1149 C 0.12821 0.09873 0.59818 0.0
C1150 C 0.11188 0.08847 0.69914 0.0
C1151 C 0.09823 0.07626 0.71336 0.0
C1152 C 0.10161 0.05883 0.72414 0.0
C1153 C 0.11905 0.054 0.72086 0.0
C1154 C 0.13272 0.06628 0.70656 0.0
H1155 H 0.13233 0.10223 0.56175 0.0
H1156 H 0.12454 0.08419 0.59878 0.0
H1157 H 0.11623 0.10556 0.60597 0.0
H1158 H 0.10895 0.10184 0.69145 0.0
H1159 H 0.08503 0.08051 0.7158 0.0
H1160 H 0.68777 0.37485 0.42381 0.0
H1161 H 0.6744 0.39978 0.38986 0.0
H1162 H 0.71282 0.43635 0.46724 0.0
H1163 H 0.72611 0.41131 0.50252 0.0
H1164 H 0.67983 0.44432 0.48141 0.0
H1165 H 0.6874 0.43445 0.28841 0.0
H1166 H 0.67786 0.41434 0.31332 0.0
H1167 H 0.70001 0.42327 0.33177 0.0
C1168 C 0.69362 0.38817 0.43306 0.0
C1169 C 0.70794 0.39109 0.46612 0.0
C1170 C 0.68605 0.40244 0.41318 0.0
C1171 C 0.69278 0.41994 0.42537 0.0
C1172 C 0.70751 0.42293 0.45706 0.0
H1173 H 0.63191 0.50025 0.29376 0.0
H1174 H 0.65765 0.48521 0.31945 0.0
C1175 C 0.71508 0.40862 0.47718 0.0
C1176 C 0.683 0.43486 0.40939 0.0
H1177 H 0.66206 0.45 0.31181 0.0
C1178 C 0.67628 0.44584 0.44421 0.0
C1179 C 0.67862 0.43712 0.36084 0.0
C1180 C 0.68654 0.42678 0.32149 0.0
C1181 C 0.66422 0.45804 0.43206 0.0
C1182 C 0.65845 0.45897 0.38401 0.0
C1183 C 0.66623 0.44903 0.34879 0.0
C1184 C 0.64326 0.46888 0.37018 0.0
C1185 C 0.65744 0.46948 0.47102 0.0
C1186 C 0.62664 0.46454 0.38984 0.0
C1187 C 0.61196 0.47308 0.37537 0.0
C1188 C 0.61357 0.48602 0.3405 0.0
C1189 C 0.63024 0.49036 0.32076 0.0
C1190 C 0.64496 0.4818 0.33539 0.0
H1191 H 0.66731 0.47181 0.50109 0.0
H1192 H 0.6543 0.48251 0.45763 0.0
H1193 H 0.64518 0.46258 0.48509 0.0
H1194 H 0.62491 0.45426 0.41579 0.0
H1195 H 0.59931 0.46935 0.39111 0.0
H1196 H 0.38341 0.00305 0.25553 0.0
H1197 H 0.36222 0.97864 0.22529 0.0
H1198 H 0.40535 0.9473 0.19432 0.0
H1199 H 0.42671 0.97159 0.22437 0.0
H1200 H 0.36361 0.96396 0.12708 0.0
H1201 H 0.36836 0.9136 0.266 0.0
H1202 H 0.37471 0.93698 0.27762 0.0
H1203 H 0.38901 0.92381 0.24497 0.0
C1204 C 0.38842 0.99085 0.24322 0.0
C1205 C 0.40679 0.98932 0.24233 0.0
C1206 C 0.37627 0.97696 0.22576 0.0
C1207 C 0.38225 0.96121 0.20773 0.0
C1208 C 0.4005 0.95931 0.20855 0.0
H1209 H 0.32899 0.86368 0.08248 0.0
H1210 H 0.3511 0.88767 0.11008 0.0
C1211 C 0.41267 0.97323 0.2257 0.0
C1212 C 0.36952 0.94726 0.18498 0.0
H1213 H 0.35139 0.90465 0.19619 0.0
C1214 C 0.36086 0.951 0.14217 0.0
C1215 C 0.36616 0.93037 0.20463 0.0
C1216 C 0.37492 0.92588 0.25102 0.0
C1217 C 0.34901 0.93815 0.1181 0.0
C1218 C 0.34543 0.92129 0.13806 0.0
C1219 C 0.35418 0.91757 0.18085 0.0
C1220 C 0.33235 0.90741 0.11601 0.0
C1221 C 0.34074 0.94265 0.07106 0.0
C1222 C 0.31451 0.91063 0.10927 0.0
C1223 C 0.30184 0.89699 0.09303 0.0
C1224 C 0.30673 0.87977 0.08394 0.0
C1225 C 0.32474 0.87676 0.08918 0.0
C1226 C 0.3374 0.89044 0.1051 0.0
H1227 H 0.34881 0.95362 0.054 0.0
H1228 H 0.33918 0.93094 0.04609 0.0
H1229 H 0.3274 0.94707 0.07711 0.0
H1230 H 0.31022 0.92351 0.1184 0.0
H1231 H 0.28809 0.89976 0.08982 0.0
H1232 H 0.79979 0.35206 0.66181 0.0
H1233 H 0.82426 0.37364 0.68883 0.0
H1234 H 0.81042 0.40879 0.57852 0.0
H1235 H 0.7853 0.38756 0.55276 0.0
H1236 H 0.85316 0.38859 0.65345 0.0
H1237 H 0.80902 0.44105 0.69228 0.0
H1238 H 0.80052 0.41856 0.67622 0.0
H1239 H 0.80735 0.4339 0.63088 0.0
C1240 C 0.80206 0.3643 0.64291 0.0
C1241 C 0.79051 0.36819 0.60539 0.0
C1242 C 0.81605 0.37666 0.65851 0.0
C1243 C 0.81891 0.39307 0.6366 0.0
C1244 C 0.8081 0.39649 0.5971 0.0
H1245 H 0.91342 0.46668 0.67319 0.0
H1246 H 0.89168 0.44185 0.65048 0.0
C1247 C 0.79386 0.38428 0.58208 0.0
C1248 C 0.8329 0.40671 0.656 0.0
H1249 H 0.84003 0.44995 0.69518 0.0
C1250 C 0.85027 0.40198 0.66284 0.0
C1251 C 0.82907 0.42407 0.66951 0.0
C1252 C 0.81044 0.42965 0.66737 0.0
C1253 C 0.86396 0.41421 0.68183 0.0
C1254 C 0.86034 0.43187 0.69261 0.0
C1255 C 0.8429 0.43648 0.68659 0.0
C1256 C 0.8744 0.44597 0.70904 0.0
C1257 C 0.88203 0.40789 0.69104 0.0
C1258 C 0.87187 0.45687 0.74914 0.0
C1259 C 0.8841 0.47142 0.76152 0.0
C1260 C 0.89922 0.47521 0.7344 0.0
C1261 C 0.90206 0.46393 0.69534 0.0
C1262 C 0.88966 0.44962 0.68241 0.0
H1263 H 0.88099 0.39342 0.69746 0.0
H1264 H 0.89019 0.41022 0.65926 0.0
H1265 H 0.88902 0.41503 0.7222 0.0
H1266 H 0.86019 0.45437 0.77022 0.0
H1267 H 0.88154 0.4799 0.79173 0.0
H1268 H 0.32178 0.16707 0.60036 0.0
H1269 H 0.33794 0.14354 0.5663 0.0
H1270 H 0.29043 0.12162 0.48924 0.0
H1271 H 0.27419 0.14527 0.52249 0.0
H1272 H 0.33221 0.1059 0.56672 0.0
H1273 H 0.32633 0.13209 0.38447 0.0
H1274 H 0.3213 0.14468 0.43696 0.0
H1275 H 0.30581 0.12684 0.41384 0.0
C1276 C 0.31471 0.15718 0.57646 0.0
C1277 C 0.29677 0.15817 0.56363 0.0
C1278 C 0.32396 0.14372 0.55715 0.0
C1279 C 0.31543 0.13104 0.52472 0.0
C1280 C 0.29731 0.13149 0.51355 0.0
H1281 H 0.36869 0.05833 0.34184 0.0
H1282 H 0.345 0.07108 0.38498 0.0
C1283 C 0.28806 0.14498 0.53269 0.0
C1284 C 0.32584 0.11802 0.50083 0.0
H1285 H 0.34232 0.10728 0.39326 0.0
C1286 C 0.3343 0.10605 0.52872 0.0
C1287 C 0.32845 0.11825 0.45123 0.0
C1288 C 0.32013 0.13122 0.41977 0.0
C1289 C 0.34568 0.09456 0.50842 0.0
C1290 C 0.34884 0.09529 0.45918 0.0
C1291 C 0.33981 0.10673 0.431 0.0
C1292 C 0.36277 0.08575 0.43685 0.0
C1293 C 0.35438 0.08189 0.53992 0.0
C1294 C 0.38055 0.08973 0.45192 0.0
C1295 C 0.39407 0.08257 0.42735 0.0
C1296 C 0.39007 0.07135 0.38702 0.0
C1297 C 0.3722 0.06693 0.37279 0.0
C1298 C 0.35865 0.07417 0.39738 0.0
H1299 H 0.34646 0.07884 0.57185 0.0
H1300 H 0.35618 0.06927 0.52037 0.0
H1301 H 0.36765 0.0881 0.55235 0.0
H1302 H 0.38405 0.09895 0.48162 0.0
H1303 H 0.4077 0.08622 0.43928 0.0
H1304 H 0.58531 0.59487 0.22757 0.0
H1305 H 0.60953 0.61615 0.20408 0.0
H1306 H 0.64557 0.57542 0.20911 0.0
H1307 H 0.62141 0.55389 0.23229 0.0
H1308 H 0.64266 0.62632 0.25314 0.0
H1309 H 0.65105 0.59552 0.07424 0.0
H1310 H 0.63152 0.59035 0.10851 0.0
H1311 H 0.65176 0.58091 0.12339 0.0
C1312 C 0.59837 0.59038 0.22374 0.0
C1313 C 0.60137 0.57262 0.23156 0.0
C1314 C 0.61219 0.60258 0.21035 0.0
C1315 C 0.62923 0.59726 0.20424 0.0
C1316 C 0.63241 0.57967 0.21286 0.0
H1317 H 0.72729 0.65437 0.11558 0.0
H1318 H 0.70445 0.63184 0.14071 0.0
C1319 C 0.6186 0.56743 0.22636 0.0
C1320 C 0.64366 0.61023 0.1891 0.0
H1321 H 0.67137 0.62006 0.09789 0.0
C1322 C 0.64895 0.62499 0.21922 0.0
C1323 C 0.65182 0.60836 0.14487 0.0
C1324 C 0.64621 0.59302 0.11059 0.0
C1325 C 0.66233 0.63793 0.20638 0.0
C1326 C 0.67032 0.6362 0.16184 0.0
C1327 C 0.66516 0.62134 0.13195 0.0
C1328 C 0.68395 0.64979 0.14545 0.0
C1329 C 0.66797 0.65319 0.24091 0.0
C1330 C 0.67984 0.66724 0.1388 0.0
C1331 C 0.69284 0.68017 0.12451 0.0
C1332 C 0.71018 0.67584 0.11627 0.0
C1333 C 0.7141 0.6582 0.12173 0.0
C1334 C 0.70108 0.64528 0.1361 0.0
H1335 H 0.66407 0.6501 0.27778 0.0
H1336 H 0.68256 0.65663 0.24089 0.0
H1337 H 0.66142 0.66502 0.23016 0.0
H1338 H 0.66657 0.67087 0.14482 0.0
H1339 H 0.68931 0.69358 0.12034 0.0
H1340 H 0.1952 0.86605 0.94277 0.0
H1341 H 0.17821 0.88863 0.90875 0.0
H1342 H 0.21277 0.9297 0.98267 0.0
H1343 H 0.2298 0.90708 0.01768 0.0
H1344 H 0.17766 0.93369 0.99431 0.0
H1345 H 0.18999 0.92295 0.80337 0.0
H1346 H 0.18235 0.90262 0.83073 0.0
H1347 H 0.20332 0.91426 0.84988 0.0
C1348 C 0.19932 0.87988 0.95156 0.0
C1349 C 0.21385 0.88477 0.98297 0.0
C1350 C 0.18967 0.89279 0.9317 0.0
C1351 C 0.19444 0.91085 0.94245 0.0
C1352 C 0.209 0.91582 0.97359 0.0
H1353 H 0.13272 0.98725 0.79715 0.0
H1354 H 0.15814 0.97278 0.82787 0.0
C1355 C 0.21868 0.90289 0.99357 0.0
C1356 C 0.18331 0.9243 0.92383 0.0
H1357 H 0.16378 0.93742 0.8216 0.0
C1358 C 0.17486 0.93474 0.95651 0.0
C1359 C 0.17991 0.92591 0.87449 0.0
C1360 C 0.18953 0.91597 0.8376 0.0
C1361 C 0.16225 0.94594 0.94126 0.0
C1362 C 0.15776 0.9464 0.89217 0.0
C1363 C 0.16704 0.93683 0.8593 0.0
C1364 C 0.14262 0.95565 0.87459 0.0
C1365 C 0.15362 0.95693 0.97797 0.0
C1366 C 0.12549 0.9506 0.89018 0.0
C1367 C 0.111 0.95881 0.87282 0.0
C1368 C 0.11333 0.97212 0.83912 0.0
C1369 C 0.1305 0.97706 0.82316 0.0
C1370 C 0.14503 0.96883 0.84068 0.0
H1371 H 0.16233 0.95961 0.01036 0.0
H1372 H 0.15043 0.96979 0.96354 0.0
H1373 H 0.1411 0.94951 0.98882 0.0
H1374 H 0.12328 0.94012 0.91539 0.0
H1375 H 0.09796 0.9546 0.88564 0.0
loop_
_geom_bond_atom_site_label_1
_geom_bond_atom_site_label_2
_geom_bond_distance
_geom_bond_site_symmetry_2
_ccdc_geom_bond_type
Mg0 O1 2.028 . S
Mg0 O7 1.986 . S
Mg0 O9 2.114 . S
Mg0 O10 2.251 . S
Mg0 O13 2.010 . S
O1 Mg0 2.028 . S
O1 C4 1.250 1_554 S
O2 Mg3 2.028 . S
O2 C4 1.248 1_554 S
Mg3 O2 2.028 . S
Mg3 O8 2.032 . S
Mg3 O10 2.079 . S
C4 O1 1.250 1_556 S
C4 O2 1.248 1_556 S
C5 O6 1.264 . S
C5 O13 1.249 . S
O6 C5 1.264 . S
O7 Mg0 1.986 . S
O7 C11 1.246 . S
O8 Mg3 2.032 . S
O8 C11 1.259 . S
O9 Mg0 2.114 . S
O9 C12 1.252 . S
O10 Mg0 2.251 . S
O10 Mg3 2.079 . S
O10 C12 1.273 . S
C11 O7 1.246 . S
C11 O8 1.259 . S
C12 O9 1.252 . S
C12 O10 1.273 . S
O13 Mg0 2.010 . S
O13 C5 1.249 . S
Mg14 O15 2.028 . S
Mg14 O21 1.986 . S
Mg14 O23 2.114 . S
Mg14 O24 2.251 . S
Mg14 O27 2.010 . S
O15 Mg14 2.028 . S
O15 C18 1.250 . S
O16 Mg17 2.028 . S
O16 C18 1.248 . S
Mg17 O16 2.028 . S
Mg17 O22 2.032 . S
Mg17 O24 2.079 . S
C18 O15 1.250 . S
C18 O16 1.248 . S
C19 O20 1.264 1_545 S
C19 O27 1.249 . S
O20 C19 1.264 1_565 S
O21 Mg14 1.986 . S
O21 C25 1.246 . S
O22 Mg17 2.032 . S
O22 C25 1.259 . S
O23 Mg14 2.114 . S
O23 C26 1.252 . S
O24 Mg14 2.251 . S
O24 Mg17 2.079 . S
O24 C26 1.273 . S
C25 O21 1.246 . S
C25 O22 1.259 . S
C26 O23 1.252 . S
C26 O24 1.273 . S
O27 Mg14 2.010 . S
O27 C19 1.249 . S
Mg28 O29 2.028 . S
Mg28 O35 1.986 . S
Mg28 O37 2.114 . S
Mg28 O38 2.251 . S
Mg28 O41 2.010 . S
O29 Mg28 2.028 . S
O29 C32 1.250 . S
O30 Mg31 2.028 . S
O30 C32 1.248 . S
Mg31 O30 2.028 . S
Mg31 O36 2.032 . S
Mg31 O38 2.079 . S
C32 O29 1.250 . S
C32 O30 1.248 . S
C33 O34 1.264 . S
C33 O41 1.249 . S
O34 C33 1.264 . S
O35 Mg28 1.986 . S
O35 C39 1.246 . S
O36 Mg31 2.032 . S
O36 C39 1.259 . S
O37 Mg28 2.114 . S
O37 C40 1.252 . S
O38 Mg28 2.251 . S
O38 Mg31 2.079 . S
O38 C40 1.273 . S
C39 O35 1.246 . S
C39 O36 1.259 . S
C40 O37 1.252 . S
C40 O38 1.273 . S
O41 Mg28 2.010 . S
O41 C33 1.249 . S
Mg42 O43 2.028 . S
Mg42 O49 1.986 . S
Mg42 O51 2.114 1_545 S
Mg42 O52 2.251 . S
Mg42 O55 2.010 1_545 S
O43 Mg42 2.028 . S
O43 C46 1.250 . S
O44 Mg45 2.028 . S
O44 C46 1.248 . S
Mg45 O44 2.028 . S
Mg45 O50 2.032 . S
Mg45 O52 2.079 . S
C46 O43 1.250 . S
C46 O44 1.248 . S
C47 O48 1.264 . S
C47 O55 1.249 . S
O48 C47 1.264 . S
O49 Mg42 1.986 . S
O49 C53 1.246 . S
O50 Mg45 2.032 . S
O50 C53 1.259 . S
O51 Mg42 2.114 1_565 S
O51 C54 1.252 1_565 S
O52 Mg42 2.251 . S
O52 Mg45 2.079 . S
O52 C54 1.273 . S
C53 O49 1.246 . S
C53 O50 1.259 . S
C54 O51 1.252 1_545 S
C54 O52 1.273 . S
O55 Mg42 2.010 1_565 S
O55 C47 1.249 . S
Mg56 O57 2.028 . S
Mg56 O63 1.986 1_554 S
Mg56 O65 2.114 . S
Mg56 O66 2.251 . S
Mg56 O69 2.010 . S
O57 Mg56 2.028 . S
O57 C60 1.250 . S
O58 Mg59 2.028 . S
O58 C60 1.248 . S
Mg59 O58 2.028 . S
Mg59 O64 2.032 . S
Mg59 O66 2.079 . S
C60 O57 1.250 . S
C60 O58 1.248 . S
C61 O62 1.264 . S
C61 O69 1.249 . S
O62 C61 1.264 . S
O63 Mg56 1.986 1_556 S
O63 C67 1.246 . S
O64 Mg59 2.032 . S
O64 C67 1.259 1_554 S
O65 Mg56 2.114 . S
O65 C68 1.252 . S
O66 Mg56 2.251 . S
O66 Mg59 2.079 . S
O66 C68 1.273 . S
C67 O63 1.246 . S
C67 O64 1.259 1_556 S
C68 O65 1.252 . S
C68 O66 1.273 . S
O69 Mg56 2.010 . S
O69 C61 1.249 . S
Mg70 O71 2.028 . S
Mg70 O77 1.986 . S
Mg70 O79 2.114 . S
Mg70 O80 2.251 . S
Mg70 O83 2.010 . S
O71 Mg70 2.028 . S
O71 C74 1.250 . S
O72 Mg73 2.028 . S
O72 C74 1.248 . S
Mg73 O72 2.028 . S
Mg73 O78 2.032 . S
Mg73 O80 2.079 . S
C74 O71 1.250 . S
C74 O72 1.248 . S
C75 O76 1.264 . S
C75 O83 1.249 1_565 S
O76 C75 1.264 . S
O77 Mg70 1.986 . S
O77 C81 1.246 . S
O78 Mg73 2.032 . S
O78 C81 1.259 . S
O79 Mg70 2.114 . S
O79 C82 1.252 . S
O80 Mg70 2.251 . S
O80 Mg73 2.079 . S
O80 C82 1.273 . S
C81 O77 1.246 . S
C81 O78 1.259 . S
C82 O79 1.252 . S
C82 O80 1.273 . S
O83 Mg70 2.010 . S
O83 C75 1.249 1_545 S
Mg84 O85 2.028 . S
Mg84 O91 1.986 . S
Mg84 O93 2.114 . S
Mg84 O94 2.251 . S
Mg84 O97 2.010 . S
O85 Mg84 2.028 . S
O85 C88 1.250 . S
O86 Mg87 2.028 . S
O86 C88 1.248 . S
Mg87 O86 2.028 . S
Mg87 O92 2.032 . S
Mg87 O94 2.079 . S
C88 O85 1.250 . S
C88 O86 1.248 . S
C89 O90 1.264 . S
C89 O97 1.249 . S
O90 C89 1.264 . S
O91 Mg84 1.986 . S
O91 C95 1.246 . S
O92 Mg87 2.032 . S
O92 C95 1.259 . S
O93 Mg84 2.114 . S
O93 C96 1.252 . S
O94 Mg84 2.251 . S
O94 Mg87 2.079 . S
O94 C96 1.273 . S
C95 O91 1.246 . S
C95 O92 1.259 . S
C96 O93 1.252 . S
C96 O94 1.273 . S
O97 Mg84 2.010 . S
O97 C89 1.249 . S
Mg98 O99 2.028 . S
Mg98 O105 1.986 . S
Mg98 O107 2.114 . S
Mg98 O108 2.251 . S
Mg98 O111 2.010 . S
O99 Mg98 2.028 . S
O99 C102 1.230 1_545 S
O100 Mg101 2.028 . S
O100 C102 1.260 . S
Mg101 O100 2.028 . S
Mg101 O106 2.032 1_565 S
Mg101 O108 2.079 1_565 S
C102 O99 1.230 1_565 S
C102 O100 1.260 . S
C103 O104 1.264 . S
C103 O111 1.249 . S
O104 C103 1.264 . S
O105 Mg98 1.986 . S
O105 C109 1.246 . S
O106 Mg101 2.032 1_545 S
O106 C109 1.259 . S
O107 Mg98 2.114 . S
O107 C110 1.252 . S
O108 Mg98 2.251 . S
O108 Mg101 2.079 1_545 S
O108 C110 1.273 . S
C109 O105 1.246 . S
C109 O106 1.259 . S
C110 O107 1.252 . S
C110 O108 1.273 . S
O111 Mg98 2.010 . S
O111 C103 1.249 . S
Mg112 O113 2.028 . S
Mg112 O119 1.986 . S
Mg112 O121 2.114 . S
Mg112 O122 2.251 . S
Mg112 O125 2.010 . S
O113 Mg112 2.028 . S
O113 C116 1.250 . S
O114 Mg115 2.028 . S
O114 C116 1.248 . S
Mg115 O114 2.028 . S
Mg115 O120 2.032 . S
Mg115 O122 2.079 . S
C116 O113 1.250 . S
C116 O114 1.248 . S
C117 O118 1.264 . S
C117 O125 1.249 . S
O118 C117 1.264 . S
O119 Mg112 1.986 . S
O119 C123 1.246 . S
O120 Mg115 2.032 . S
O120 C123 1.259 . S
O121 Mg112 2.114 . S
O121 C124 1.252 . S
O122 Mg112 2.251 . S
O122 Mg115 2.079 . S
O122 C124 1.273 . S
C123 O119 1.246 . S
C123 O120 1.259 . S
C124 O121 1.252 . S
C124 O122 1.273 . S
O125 Mg112 2.010 . S
O125 C117 1.249 . S
Mg126 O127 2.028 . S
Mg126 O133 1.986 . S
Mg126 O135 2.114 . S
Mg126 O136 2.251 . S
Mg126 O139 2.010 . S
O127 Mg126 2.028 . S
O127 C130 1.250 . S
O128 Mg129 2.028 . S
O128 C130 1.248 . S
Mg129 O128 2.028 . S
Mg129 O134 2.032 . S
Mg129 O136 2.079 . S
C130 O127 1.250 . S
C130 O128 1.248 . S
C131 O132 1.264 . S
C131 O139 1.249 . S
O132 C131 1.264 . S
O133 Mg126 1.986 . S
O133 C137 1.246 . S
O134 Mg129 2.032 . S
O134 C137 1.259 . S
O135 Mg126 2.114 . S
O135 C138 1.252 . S
O136 Mg126 2.251 . S
O136 Mg129 2.079 . S
O136 C138 1.273 . S
C137 O133 1.246 . S
C137 O134 1.259 . S
C138 O135 1.252 . S
C138 O136 1.273 . S
O139 Mg126 2.010 . S
O139 C131 1.249 . S
Mg140 O141 2.028 . S
Mg140 O147 1.986 . S
Mg140 O149 2.114 1_554 S
Mg140 O150 2.251 1_554 S
Mg140 O153 2.010 . S
O141 Mg140 2.028 . S
O141 C144 1.250 . S
O142 Mg143 2.028 . S
O142 C144 1.248 . S
Mg143 O142 2.028 . S
Mg143 O148 2.032 . S
Mg143 O150 2.079 1_554 S
C144 O141 1.250 . S
C144 O142 1.248 . S
C145 O146 1.264 . S
C145 O153 1.249 . S
O146 C145 1.264 . S
O147 Mg140 1.986 . S
O147 C151 1.246 . S
O148 Mg143 2.032 . S
O148 C151 1.259 . S
O149 Mg140 2.114 1_556 S
O149 C152 1.252 . S
O150 Mg140 2.251 1_556 S
O150 Mg143 2.079 1_556 S
O150 C152 1.273 . S
C151 O147 1.246 . S
C151 O148 1.259 . S
C152 O149 1.252 . S
C152 O150 1.273 . S
O153 Mg140 2.010 . S
O153 C145 1.249 . S
Mg154 O155 2.028 . S
Mg154 O161 1.986 . S
Mg154 O163 2.114 . S
Mg154 O164 2.251 . S
Mg154 O167 2.010 . S
O155 Mg154 2.028 . S
O155 C158 1.250 . S
O156 Mg157 2.028 . S
O156 C158 1.248 . S
Mg157 O156 2.028 . S
Mg157 O162 2.032 . S
Mg157 O164 2.079 . S
C158 O155 1.250 . S
C158 O156 1.248 . S
C159 O160 1.264 . S
C159 O167 1.249 . S
O160 C159 1.264 . S
O161 Mg154 1.986 . S
O161 C165 1.246 . S
O162 Mg157 2.032 . S
O162 C165 1.259 . S
O163 Mg154 2.114 . S
O163 C166 1.252 . S
O164 Mg154 2.251 . S
O164 Mg157 2.079 . S
O164 C166 1.273 . S
C165 O161 1.246 . S
C165 O162 1.259 . S
C166 O163 1.252 . S
C166 O164 1.273 . S
O167 Mg154 2.010 . S
O167 C159 1.249 . S
Mg168 O169 2.028 . S
Mg168 O175 1.986 . S
Mg168 O177 2.114 . S
Mg168 O178 2.251 . S
Mg168 O181 2.010 . S
O169 Mg168 2.028 . S
O169 C172 1.250 . S
O170 Mg171 2.028 . S
O170 C172 1.248 . S
Mg171 O170 2.028 . S
Mg171 O176 2.032 . S
Mg171 O178 2.079 . S
C172 O169 1.250 . S
C172 O170 1.248 . S
C173 O174 1.264 . S
C173 O181 1.249 . S
O174 C173 1.264 . S
O175 Mg168 1.986 . S
O175 C179 1.246 . S
O176 Mg171 2.032 . S
O176 C179 1.259 . S
O177 Mg168 2.114 . S
O177 C180 1.252 . S
O178 Mg168 2.251 . S
O178 Mg171 2.079 . S
O178 C180 1.273 . S
C179 O175 1.246 . S
C179 O176 1.259 . S
C180 O177 1.252 . S
C180 O178 1.273 . S
O181 Mg168 2.010 . S
O181 C173 1.249 . S
Mg182 O183 2.028 . S
Mg182 O189 1.986 . S
Mg182 O191 2.114 . S
Mg182 O192 2.251 . S
Mg182 O195 2.010 . S
O183 Mg182 2.028 . S
O183 C186 1.250 . S
O184 Mg185 2.028 . S
O184 C186 1.248 . S
Mg185 O184 2.028 . S
Mg185 O190 2.032 . S
Mg185 O192 2.079 . S
C186 O183 1.250 . S
C186 O184 1.248 . S
C187 O188 1.264 . S
C187 O195 1.249 . S
O188 C187 1.264 . S
O189 Mg182 1.986 . S
O189 C193 1.246 . S
O190 Mg185 2.032 . S
O190 C193 1.259 . S
O191 Mg182 2.114 . S
O191 C194 1.252 . S
O192 Mg182 2.251 . S
O192 Mg185 2.079 . S
O192 C194 1.273 . S
C193 O189 1.246 . S
C193 O190 1.259 . S
C194 O191 1.252 . S
C194 O192 1.273 . S
O195 Mg182 2.010 . S
O195 C187 1.249 . S
Mg196 O197 2.028 . S
Mg196 O203 1.986 1_554 S
Mg196 O205 2.114 . S
Mg196 O206 2.251 . S
Mg196 O209 2.010 . S
O197 Mg196 2.028 . S
O197 C200 1.250 . S
O198 Mg199 2.028 . S
O198 C200 1.248 . S
Mg199 O198 2.028 . S
Mg199 O204 2.032 1_554 S
Mg199 O206 2.079 . S
C200 O197 1.250 . S
C200 O198 1.248 . S
C201 O202 1.264 . S
C201 O209 1.249 . S
O202 C201 1.264 . S
O203 Mg196 1.986 1_556 S
O203 C207 1.246 . S
O204 Mg199 2.032 1_556 S
O204 C207 1.259 . S
O205 Mg196 2.114 . S
O205 C208 1.252 . S
O206 Mg196 2.251 . S
O206 Mg199 2.079 . S
O206 C208 1.273 . S
C207 O203 1.246 . S
C207 O204 1.259 . S
C208 O205 1.252 . S
C208 O206 1.273 . S
O209 Mg196 2.010 . S
O209 C201 1.249 . S
Mg210 O211 2.028 . S
Mg210 O217 1.986 . S
Mg210 O219 2.114 . S
Mg210 O220 2.251 . S
Mg210 O223 2.010 . S
O211 Mg210 2.028 . S
O211 C214 1.250 . S
O212 Mg213 2.028 . S
O212 C214 1.248 . S
Mg213 O212 2.028 . S
Mg213 O218 2.032 . S
Mg213 O220 2.079 . S
C214 O211 1.250 . S
C214 O212 1.248 . S
C215 O216 1.264 . S
C215 O223 1.249 . S
O216 C215 1.264 . S
O217 Mg210 1.986 . S
O217 C221 1.246 . S
O218 Mg213 2.032 . S
O218 C221 1.259 . S
O219 Mg210 2.114 . S
O219 C222 1.252 . S
O220 Mg210 2.251 . S
O220 Mg213 2.079 . S
O220 C222 1.273 . S
C221 O217 1.246 . S
C221 O218 1.259 . S
C222 O219 1.252 . S
C222 O220 1.273 . S
O223 Mg210 2.010 . S
O223 C215 1.249 . S
H224 C232 0.929 . S
H225 C234 0.930 . S
H226 C236 0.930 . S
H227 C239 0.929 . S
H228 C242 0.930 . S
H229 C244 0.960 . S
H230 C244 0.960 . S
H231 C244 0.960 . S
C232 H224 0.929 . S
C232 C233 1.377 . S
C232 C234 1.384 . S
C233 C232 1.377 . S
C233 C239 1.390 . S
C234 H225 0.930 . S
C234 C232 1.384 . S
C234 C235 1.372 . S
C235 C234 1.372 . S
C235 C236 1.400 . S
C235 C240 1.490 . S
C236 H226 0.930 . S
C236 C235 1.400 . S
C236 C239 1.386 . S
H237 C253 0.930 . S
H238 C254 0.931 . S
C239 H227 0.929 . S
C239 C233 1.390 . S
C239 C236 1.386 . S
C240 C235 1.490 . S
C240 C242 1.395 . S
C240 C243 1.403 . S
H241 C247 0.930 . S
C242 H228 0.930 . S
C242 C240 1.395 . S
C242 C245 1.403 . S
C243 C240 1.403 . S
C243 C244 1.524 . S
C243 C247 1.400 . S
C244 H229 0.960 . S
C244 H230 0.960 . S
C244 H231 0.960 . S
C244 C243 1.524 . S
C245 C242 1.403 . S
C245 C246 1.392 . S
C245 C249 1.495 . S
C246 C245 1.392 . S
C246 C247 1.385 . S
C246 C248 1.478 . S
C247 H241 0.930 . S
C247 C243 1.400 . S
C247 C246 1.385 . S
C248 C246 1.478 . S
C248 C250 1.381 . S
C248 C254 1.383 . S
C249 C245 1.495 . S
C249 H255 0.959 . S
C249 H256 0.961 . S
C249 H257 0.960 . S
C250 C248 1.381 . S
C250 C251 1.394 . S
C250 H258 0.930 . S
C251 C250 1.394 . S
C251 C252 1.383 . S
C251 H259 0.929 . S
C252 C251 1.383 . S
C252 C253 1.377 . S
C253 H237 0.930 . S
C253 C252 1.377 . S
C253 C254 1.379 . S
C254 H238 0.931 . S
C254 C248 1.383 . S
C254 C253 1.379 . S
H255 C249 0.959 . S
H256 C249 0.961 . S
H257 C249 0.960 . S
H258 C250 0.930 . S
H259 C251 0.929 . S
H260 C268 0.929 . S
H261 C270 0.930 . S
H262 C272 0.930 . S
H263 C275 0.929 . S
H264 C278 0.930 . S
H265 C280 0.960 . S
H266 C280 0.960 . S
H267 C280 0.960 . S
C268 H260 0.929 . S
C268 C269 1.377 . S
C268 C270 1.384 . S
C269 C268 1.377 . S
C269 C275 1.390 . S
C270 H261 0.930 . S
C270 C268 1.384 . S
C270 C271 1.372 . S
C271 C270 1.372 . S
C271 C272 1.400 . S
C271 C276 1.490 . S
C272 H262 0.930 . S
C272 C271 1.400 . S
C272 C275 1.386 . S
H273 C289 0.930 . S
H274 C290 0.931 . S
C275 H263 0.929 . S
C275 C269 1.390 . S
C275 C272 1.386 . S
C276 C271 1.490 . S
C276 C278 1.395 . S
C276 C279 1.403 . S
H277 C283 0.930 . S
C278 H264 0.930 . S
C278 C276 1.395 . S
C278 C281 1.403 1_655 S
C279 C276 1.403 . S
C279 C280 1.524 . S
C279 C283 1.400 1_655 S
C280 H265 0.960 . S
C280 H266 0.960 . S
C280 H267 0.960 . S
C280 C279 1.524 . S
C281 C278 1.403 1_455 S
C281 C282 1.392 . S
C281 C285 1.443 1_545 S
C282 C281 1.392 . S
C282 C283 1.385 . S
C282 C284 1.478 . S
C283 H277 0.930 . S
C283 C279 1.400 1_455 S
C283 C282 1.385 . S
C284 C282 1.478 . S
C284 C286 1.381 . S
C284 C290 1.383 . S
C285 C281 1.443 1_565 S
C285 H291 0.988 . S
C285 H292 0.964 1_565 S
C285 H293 0.987 . S
C286 C284 1.381 . S
C286 C287 1.394 . S
C286 H294 0.930 . S
C287 C286 1.394 . S
C287 C288 1.383 . S
C287 H295 0.929 . S
C288 C287 1.383 . S
C288 C289 1.377 . S
C289 H273 0.930 . S
C289 C288 1.377 . S
C289 C290 1.379 . S
C290 H274 0.931 . S
C290 C284 1.383 . S
C290 C289 1.379 . S
H291 C285 0.988 . S
H292 C285 0.964 1_545 S
H293 C285 0.987 . S
H294 C286 0.930 . S
H295 C287 0.929 . S
H296 C304 0.929 . S
H297 C306 0.930 . S
H298 C308 0.930 . S
H299 C311 0.929 . S
H300 C314 0.930 . S
H301 C316 0.960 . S
H302 C316 0.960 . S
H303 C316 0.960 . S
C304 H296 0.929 . S
C304 C305 1.377 . S
C304 C306 1.384 . S
C305 C304 1.377 . S
C305 C311 1.390 . S
C306 H297 0.930 . S
C306 C304 1.384 . S
C306 C307 1.372 . S
C307 C306 1.372 . S
C307 C308 1.400 . S
C307 C312 1.490 . S
C308 H298 0.930 . S
C308 C307 1.400 . S
C308 C311 1.386 . S
H309 C325 0.930 . S
H310 C326 0.931 . S
C311 H299 0.929 . S
C311 C305 1.390 . S
C311 C308 1.386 . S
C312 C307 1.490 . S
C312 C314 1.395 . S
C312 C315 1.403 . S
H313 C319 0.930 . S
C314 H300 0.930 . S
C314 C312 1.395 . S
C314 C317 1.403 . S
C315 C312 1.403 . S
C315 C316 1.524 . S
C315 C319 1.400 . S
C316 H301 0.960 . S
C316 H302 0.960 . S
C316 H303 0.960 . S
C316 C315 1.524 . S
C317 C314 1.403 . S
C317 C318 1.392 . S
C317 C321 1.495 . S
C318 C317 1.392 . S
C318 C319 1.385 . S
C318 C320 1.478 . S
C319 H313 0.930 . S
C319 C315 1.400 . S
C319 C318 1.385 . S
C320 C318 1.478 . S
C320 C322 1.381 . S
C320 C326 1.383 . S
C321 C317 1.495 . S
C321 H327 0.959 . S
C321 H328 0.961 . S
C321 H329 0.960 . S
C322 C320 1.381 . S
C322 C323 1.394 . S
C322 H330 0.930 . S
C323 C322 1.394 . S
C323 C324 1.383 . S
C323 H331 0.929 . S
C324 C323 1.383 . S
C324 C325 1.377 . S
C325 H309 0.930 . S
C325 C324 1.377 . S
C325 C326 1.379 . S
C326 H310 0.931 . S
C326 C320 1.383 . S
C326 C325 1.379 . S
H327 C321 0.959 . S
H328 C321 0.961 . S
H329 C321 0.960 . S
H330 C322 0.930 . S
H331 C323 0.929 . S
H332 C340 0.929 . S
H333 C342 0.930 . S
H334 C344 0.930 . S
H335 C347 0.929 . S
H336 C350 0.930 . S
H337 C352 0.960 . S
H338 C352 0.960 . S
H339 C352 0.960 1_545 S
C340 H332 0.929 . S
C340 C341 1.377 . S
C340 C342 1.384 . S
C341 C340 1.377 . S
C341 C347 1.390 . S
C342 H333 0.930 . S
C342 C340 1.384 . S
C342 C343 1.372 . S
C343 C342 1.372 . S
C343 C344 1.400 . S
C343 C348 1.490 . S
C344 H334 0.930 . S
C344 C343 1.400 . S
C344 C347 1.386 . S
H345 C361 0.930 . S
H346 C362 0.931 1_554 S
C347 H335 0.929 . S
C347 C341 1.390 . S
C347 C344 1.386 . S
C348 C343 1.490 . S
C348 C350 1.395 . S
C348 C351 1.403 . S
H349 C355 0.930 . S
C350 H336 0.930 . S
C350 C348 1.395 . S
C350 C353 1.403 . S
C351 C348 1.403 . S
C351 C352 1.524 1_545 S
C351 C355 1.400 . S
C352 H337 0.960 . S
C352 H338 0.960 . S
C352 H339 0.960 1_565 S
C352 C351 1.524 1_565 S
C353 C350 1.403 . S
C353 C354 1.392 . S
C353 C357 1.495 1_554 S
C354 C353 1.392 . S
C354 C355 1.385 . S
C354 C356 1.478 1_554 S
C355 H349 0.930 . S
C355 C351 1.400 . S
C355 C354 1.385 . S
C356 C354 1.478 1_556 S
C356 C358 1.381 . S
C356 C362 1.383 . S
C357 C353 1.495 1_556 S
C357 H363 0.959 . S
C357 H364 0.961 . S
C357 H365 0.960 . S
C358 C356 1.381 . S
C358 C359 1.394 . S
C358 H366 0.930 . S
C359 C358 1.394 . S
C359 C360 1.383 . S
C359 H367 0.929 . S
C360 C359 1.383 . S
C360 C361 1.377 . S
C361 H345 0.930 . S
C361 C360 1.377 . S
C361 C362 1.379 . S
C362 H346 0.931 1_556 S
C362 C356 1.383 . S
C362 C361 1.379 . S
H363 C357 0.959 . S
H364 C357 0.961 . S
H365 C357 0.960 . S
H366 C358 0.930 . S
H367 C359 0.929 . S
H368 C376 0.929 . S
H369 C378 0.930 . S
H370 C380 0.930 . S
H371 C383 0.929 . S
H372 C386 0.930 . S
H373 C388 0.960 . S
H374 C388 0.960 . S
H375 C388 0.960 . S
C376 H368 0.929 . S
C376 C377 1.377 . S
C376 C378 1.384 . S
C377 C376 1.377 . S
C377 C383 1.390 . S
C378 H369 0.930 . S
C378 C376 1.384 . S
C378 C379 1.372 . S
C379 C378 1.372 . S
C379 C380 1.400 . S
C379 C384 1.490 . S
C380 H370 0.930 . S
C380 C379 1.400 . S
C380 C383 1.386 . S
H381 C397 0.930 . S
H382 C398 0.931 . S
C383 H371 0.929 . S
C383 C377 1.390 . S
C383 C380 1.386 . S
C384 C379 1.490 . S
C384 C386 1.395 . S
C384 C387 1.403 . S
H385 C391 0.930 . S
C386 H372 0.930 . S
C386 C384 1.395 . S
C386 C389 1.403 . S
C387 C384 1.403 . S
C387 C388 1.524 . S
C387 C391 1.400 . S
C388 H373 0.960 . S
C388 H374 0.960 . S
C388 H375 0.960 . S
C388 C387 1.524 . S
C389 C386 1.403 . S
C389 C390 1.392 . S
C389 C393 1.495 . S
C390 C389 1.392 . S
C390 C391 1.385 . S
C390 C392 1.478 . S
C391 H385 0.930 . S
C391 C387 1.400 . S
C391 C390 1.385 . S
C392 C390 1.478 . S
C392 C394 1.381 . S
C392 C398 1.383 . S
C393 C389 1.495 . S
C393 H399 0.959 . S
C393 H400 0.961 . S
C393 H401 0.960 . S
C394 C392 1.381 . S
C394 C395 1.394 . S
C394 H402 0.930 . S
C395 C394 1.394 . S
C395 C396 1.383 . S
C395 H403 0.929 . S
C396 C395 1.383 . S
C396 C397 1.377 . S
C397 H381 0.930 . S
C397 C396 1.377 . S
C397 C398 1.379 . S
C398 H382 0.931 . S
C398 C392 1.383 . S
C398 C397 1.379 . S
H399 C393 0.959 . S
H400 C393 0.961 . S
H401 C393 0.960 . S
H402 C394 0.930 . S
H403 C395 0.929 . S
H404 C412 0.929 . S
H405 C414 0.930 . S
H406 C416 0.930 . S
H407 C419 0.929 . S
H408 C422 0.916 1_565 S
H409 C424 0.960 . S
H410 C424 0.960 . S
H411 C424 0.960 . S
C412 H404 0.929 . S
C412 C413 1.377 . S
C412 C414 1.384 . S
C413 C412 1.377 . S
C413 C419 1.390 . S
C414 H405 0.930 . S
C414 C412 1.384 . S
C414 C415 1.372 . S
C415 C414 1.372 . S
C415 C416 1.400 . S
C415 C420 1.490 . S
C416 H406 0.930 . S
C416 C415 1.400 . S
C416 C419 1.386 . S
H417 C433 0.930 . S
H418 C434 0.931 . S
C419 H407 0.929 . S
C419 C413 1.390 . S
C419 C416 1.386 . S
C420 C415 1.490 . S
C420 C422 1.395 . S
C420 C423 1.403 . S
H421 C427 0.930 . S
C422 H408 0.916 1_545 S
C422 C420 1.395 . S
C422 C425 1.403 . S
C423 C420 1.403 . S
C423 C424 1.524 . S
C423 C427 1.400 . S
C424 H409 0.960 . S
C424 H410 0.960 . S
C424 H411 0.960 . S
C424 C423 1.524 . S
C425 C422 1.403 . S
C425 C426 1.392 . S
C425 C429 1.495 1_545 S
C426 C425 1.392 . S
C426 C427 1.385 . S
C426 C428 1.478 . S
C427 H421 0.930 . S
C427 C423 1.400 . S
C427 C426 1.385 . S
C428 C426 1.478 . S
C428 C430 1.381 . S
C428 C434 1.383 . S
C429 C425 1.495 1_565 S
C429 H435 0.959 . S
C429 H436 0.961 . S
C429 H437 0.960 1_565 S
C430 C428 1.381 . S
C430 C431 1.394 . S
C430 H438 0.930 . S
C431 C430 1.394 . S
C431 C432 1.383 . S
C431 H439 0.929 . S
C432 C431 1.383 . S
C432 C433 1.377 . S
C433 H417 0.930 . S
C433 C432 1.377 . S
C433 C434 1.379 . S
C434 H418 0.931 . S
C434 C428 1.383 . S
C434 C433 1.379 . S
H435 C429 0.959 . S
H436 C429 0.961 . S
H437 C429 0.960 1_545 S
H438 C430 0.930 . S
H439 C431 0.929 . S
H440 C448 0.929 . S
H441 C450 0.930 . S
H442 C452 0.930 . S
H443 C455 0.929 . S
H444 C458 0.930 . S
H445 C460 0.960 . S
H446 C460 0.960 . S
H447 C460 0.960 . S
C448 H440 0.929 . S
C448 C449 1.377 . S
C448 C450 1.384 . S
C449 C448 1.377 . S
C449 C455 1.390 . S
C450 H441 0.930 . S
C450 C448 1.384 . S
C450 C451 1.372 . S
C451 C450 1.372 . S
C451 C452 1.400 . S
C451 C456 1.490 . S
C452 H442 0.930 . S
C452 C451 1.400 . S
C452 C455 1.386 . S
H453 C469 0.930 . S
H454 C470 0.931 . S
C455 H443 0.929 . S
C455 C449 1.390 . S
C455 C452 1.386 . S
C456 C451 1.490 . S
C456 C458 1.395 . S
C456 C459 1.403 . S
H457 C463 0.930 . S
C458 H444 0.930 . S
C458 C456 1.395 . S
C458 C461 1.403 . S
C459 C456 1.403 . S
C459 C460 1.524 . S
C459 C463 1.400 . S
C460 H445 0.960 . S
C460 H446 0.960 . S
C460 H447 0.960 . S
C460 C459 1.524 . S
C461 C458 1.403 . S
C461 C462 1.392 . S
C461 C465 1.495 . S
C462 C461 1.392 . S
C462 C463 1.385 . S
C462 C464 1.478 . S
C463 H457 0.930 . S
C463 C459 1.400 . S
C463 C462 1.385 . S
C464 C462 1.478 . S
C464 C466 1.381 . S
C464 C470 1.383 . S
C465 C461 1.495 . S
C465 H471 0.959 . S
C465 H472 0.961 . S
C465 H473 0.960 . S
C466 C464 1.381 . S
C466 C467 1.394 . S
C466 H474 0.930 . S
C467 C466 1.394 . S
C467 C468 1.383 . S
C467 H475 0.929 . S
C468 C467 1.383 . S
C468 C469 1.377 . S
C469 H453 0.930 . S
C469 C468 1.377 . S
C469 C470 1.379 . S
C470 H454 0.931 . S
C470 C464 1.383 . S
C470 C469 1.379 . S
H471 C465 0.959 . S
H472 C465 0.961 . S
H473 C465 0.960 . S
H474 C466 0.930 . S
H475 C467 0.929 . S
H476 C484 0.929 . S
H477 C486 0.930 . S
H478 C488 0.930 . S
H479 C491 0.929 . S
H480 C494 0.935 1_556 S
H481 C496 0.960 . S
H482 C496 0.960 . S
H483 C496 0.960 . S
C484 H476 0.929 . S
C484 C485 1.377 . S
C484 C486 1.384 . S
C485 C484 1.377 . S
C485 C491 1.390 . S
C486 H477 0.930 . S
C486 C484 1.384 . S
C486 C487 1.372 . S
C487 C486 1.372 . S
C487 C488 1.400 . S
C487 C492 1.490 1_556 S
C488 H478 0.930 . S
C488 C487 1.400 . S
C488 C491 1.386 . S
H489 C505 0.930 . S
H490 C506 0.931 . S
C491 H479 0.929 . S
C491 C485 1.390 . S
C491 C488 1.386 . S
C492 C487 1.490 1_554 S
C492 C494 1.395 . S
C492 C495 1.403 . S
H493 C499 0.930 . S
C494 H480 0.935 1_554 S
C494 C492 1.395 . S
C494 C497 1.403 1_455 S
C495 C492 1.403 . S
C495 C496 1.524 . S
C495 C499 1.400 . S
C496 H481 0.960 . S
C496 H482 0.960 . S
C496 H483 0.960 . S
C496 C495 1.524 . S
C497 C494 1.403 1_655 S
C497 C498 1.392 . S
C497 C501 1.495 . S
C498 C497 1.392 . S
C498 C499 1.385 1_655 S
C498 C500 1.478 . S
C499 H493 0.930 . S
C499 C495 1.400 . S
C499 C498 1.385 1_455 S
C500 C498 1.478 . S
C500 C502 1.381 . S
C500 C506 1.383 . S
C501 C497 1.495 . S
C501 H507 0.959 . S
C501 H508 0.961 . S
C501 H509 0.960 . S
C502 C500 1.381 . S
C502 C503 1.394 . S
C502 H510 0.930 . S
C503 C502 1.394 . S
C503 C504 1.383 . S
C503 H511 0.929 . S
C504 C503 1.383 . S
C504 C505 1.377 . S
C505 H489 0.930 . S
C505 C504 1.377 . S
C505 C506 1.379 . S
C506 H490 0.931 . S
C506 C500 1.383 . S
C506 C505 1.379 . S
H507 C501 0.959 . S
H508 C501 0.961 . S
H509 C501 0.960 . S
H510 C502 0.930 . S
H511 C503 0.929 . S
H512 C520 0.929 . S
H513 C522 0.930 . S
H514 C524 0.930 . S
H515 C527 0.929 . S
H516 C530 0.930 . S
H517 C532 0.960 . S
H518 C532 0.960 . S
H519 C532 0.960 . S
C520 H512 0.929 . S
C520 C521 1.377 . S
C520 C522 1.384 . S
C521 C520 1.377 . S
C521 C527 1.390 . S
C522 H513 0.930 . S
C522 C520 1.384 . S
C522 C523 1.372 . S
C523 C522 1.372 . S
C523 C524 1.400 . S
C523 C528 1.490 . S
C524 H514 0.930 . S
C524 C523 1.400 . S
C524 C527 1.386 . S
H525 C541 0.930 . S
H526 C542 0.931 . S
C527 H515 0.929 . S
C527 C521 1.390 . S
C527 C524 1.386 . S
C528 C523 1.490 . S
C528 C530 1.395 . S
C528 C531 1.403 . S
H529 C535 0.930 . S
C530 H516 0.930 . S
C530 C528 1.395 . S
C530 C533 1.403 . S
C531 C528 1.403 . S
C531 C532 1.524 . S
C531 C535 1.400 . S
C532 H517 0.960 . S
C532 H518 0.960 . S
C532 H519 0.960 . S
C532 C531 1.524 . S
C533 C530 1.403 . S
C533 C534 1.392 . S
C533 C537 1.495 . S
C534 C533 1.392 . S
C534 C535 1.385 . S
C534 C536 1.478 . S
C535 H529 0.930 . S
C535 C531 1.400 . S
C535 C534 1.385 . S
C536 C534 1.478 . S
C536 C538 1.381 . S
C536 C542 1.383 . S
C537 C533 1.495 . S
C537 H543 0.959 . S
C537 H544 0.961 . S
C537 H545 0.960 . S
C538 C536 1.381 . S
C538 C539 1.394 . S
C538 H546 0.930 . S
C539 C538 1.394 . S
C539 C540 1.383 . S
C539 H547 0.929 . S
C540 C539 1.383 . S
C540 C541 1.377 . S
C541 H525 0.930 . S
C541 C540 1.377 . S
C541 C542 1.379 . S
C542 H526 0.931 . S
C542 C536 1.383 . S
C542 C541 1.379 . S
H543 C537 0.959 . S
H544 C537 0.961 . S
H545 C537 0.960 . S
H546 C538 0.930 . S
H547 C539 0.929 . S
H548 C556 0.929 . S
H549 C558 0.930 . S
H550 C560 0.930 . S
H551 C563 0.929 . S
H552 C566 0.930 . S
H553 C568 0.960 . S
H554 C568 0.960 . S
H555 C568 0.960 . S
C556 H548 0.929 . S
C556 C557 1.377 . S
C556 C558 1.384 . S
C557 C556 1.377 . S
C557 C563 1.390 . S
C558 H549 0.930 . S
C558 C556 1.384 . S
C558 C559 1.372 . S
C559 C558 1.372 . S
C559 C560 1.400 . S
C559 C564 1.490 . S
C560 H550 0.930 . S
C560 C559 1.400 . S
C560 C563 1.386 . S
H561 C577 0.930 . S
H562 C578 0.931 . S
C563 H551 0.929 . S
C563 C557 1.390 . S
C563 C560 1.386 . S
C564 C559 1.490 . S
C564 C566 1.395 . S
C564 C567 1.403 . S
H565 C571 0.930 . S
C566 H552 0.930 . S
C566 C564 1.395 . S
C566 C569 1.403 . S
C567 C564 1.403 . S
C567 C568 1.524 . S
C567 C571 1.400 . S
C568 H553 0.960 . S
C568 H554 0.960 . S
C568 H555 0.960 . S
C568 C567 1.524 . S
C569 C566 1.403 . S
C569 C570 1.392 . S
C569 C573 1.495 . S
C570 C569 1.392 . S
C570 C571 1.385 . S
C570 C572 1.478 . S
C571 H565 0.930 . S
C571 C567 1.400 . S
C571 C570 1.385 . S
C572 C570 1.478 . S
C572 C574 1.381 . S
C572 C578 1.383 . S
C573 C569 1.495 . S
C573 H579 0.959 . S
C573 H580 0.961 . S
C573 H581 0.960 . S
C574 C572 1.381 . S
C574 C575 1.394 . S
C574 H582 0.930 . S
C575 C574 1.394 . S
C575 C576 1.383 . S
C575 H583 0.929 . S
C576 C575 1.383 . S
C576 C577 1.377 . S
C577 H561 0.930 . S
C577 C576 1.377 . S
C577 C578 1.379 . S
C578 H562 0.931 . S
C578 C572 1.383 . S
C578 C577 1.379 . S
H579 C573 0.959 . S
H580 C573 0.961 . S
H581 C573 0.960 . S
H582 C574 0.930 . S
H583 C575 0.929 . S
H584 C592 0.929 . S
H585 C594 0.930 . S
H586 C596 0.930 . S
H587 C599 0.929 . S
H588 C602 0.930 . S
H589 C604 0.960 . S
H590 C604 0.960 . S
H591 C604 0.960 . S
C592 H584 0.929 . S
C592 C593 1.377 . S
C592 C594 1.384 . S
C593 C592 1.377 . S
C593 C599 1.390 . S
C594 H585 0.930 . S
C594 C592 1.384 . S
C594 C595 1.372 . S
C595 C594 1.372 . S
C595 C596 1.400 . S
C595 C600 1.490 . S
C596 H586 0.930 . S
C596 C595 1.400 . S
C596 C599 1.386 . S
H597 C613 0.930 . S
H598 C614 0.931 . S
C599 H587 0.929 . S
C599 C593 1.390 . S
C599 C596 1.386 . S
C600 C595 1.490 . S
C600 C602 1.395 . S
C600 C603 1.403 . S
H601 C607 0.930 . S
C602 H588 0.930 . S
C602 C600 1.395 . S
C602 C605 1.403 . S
C603 C600 1.403 . S
C603 C604 1.524 . S
C603 C607 1.400 . S
C604 H589 0.960 . S
C604 H590 0.960 . S
C604 H591 0.960 . S
C604 C603 1.524 . S
C605 C602 1.403 . S
C605 C606 1.392 . S
C605 C609 1.495 . S
C606 C605 1.392 . S
C606 C607 1.385 . S
C606 C608 1.478 . S
C607 H601 0.930 . S
C607 C603 1.400 . S
C607 C606 1.385 . S
C608 C606 1.478 . S
C608 C610 1.381 . S
C608 C614 1.383 . S
C609 C605 1.495 . S
C609 H615 0.959 . S
C609 H616 0.961 . S
C609 H617 0.960 . S
C610 C608 1.381 . S
C610 C611 1.394 . S
C610 H618 0.930 . S
C611 C610 1.394 . S
C611 C612 1.383 . S
C611 H619 0.929 . S
C612 C611 1.383 . S
C612 C613 1.377 . S
C613 H597 0.930 . S
C613 C612 1.377 . S
C613 C614 1.379 . S
C614 H598 0.931 . S
C614 C608 1.383 . S
C614 C613 1.379 . S
H615 C609 0.959 . S
H616 C609 0.961 . S
H617 C609 0.960 . S
H618 C610 0.930 . S
H619 C611 0.929 . S
H620 C628 0.929 . S
H621 C630 0.930 . S
H622 C632 0.930 . S
H623 C635 0.929 . S
H624 C638 0.930 . S
H625 C640 0.960 . S
H626 C640 0.960 . S
H627 C640 0.960 . S
C628 H620 0.929 . S
C628 C629 1.377 . S
C628 C630 1.384 . S
C629 C628 1.377 . S
C629 C635 1.390 . S
C630 H621 0.930 . S
C630 C628 1.384 . S
C630 C631 1.372 . S
C631 C630 1.372 . S
C631 C632 1.400 . S
C631 C636 1.490 . S
C632 H622 0.930 . S
C632 C631 1.400 . S
C632 C635 1.386 . S
H633 C649 0.930 . S
H634 C650 0.931 . S
C635 H623 0.929 . S
C635 C629 1.390 . S
C635 C632 1.386 . S
C636 C631 1.490 . S
C636 C638 1.395 . S
C636 C639 1.403 . S
H637 C643 0.930 . S
C638 H624 0.930 . S
C638 C636 1.395 . S
C638 C641 1.403 . S
C639 C636 1.403 . S
C639 C640 1.524 . S
C639 C643 1.400 . S
C640 H625 0.960 . S
C640 H626 0.960 . S
C640 H627 0.960 . S
C640 C639 1.524 . S
C641 C638 1.403 . S
C641 C642 1.392 . S
C641 C645 1.495 . S
C642 C641 1.392 . S
C642 C643 1.385 . S
C642 C644 1.478 . S
C643 H637 0.930 . S
C643 C639 1.400 . S
C643 C642 1.385 . S
C644 C642 1.478 . S
C644 C646 1.381 . S
C644 C650 1.383 . S
C645 C641 1.495 . S
C645 H651 0.959 . S
C645 H652 0.961 . S
C645 H653 0.960 . S
C646 C644 1.381 . S
C646 C647 1.394 . S
C646 H654 0.930 . S
C647 C646 1.394 . S
C647 C648 1.383 . S
C647 H655 0.929 . S
C648 C647 1.383 . S
C648 C649 1.377 . S
C649 H633 0.930 . S
C649 C648 1.377 . S
C649 C650 1.379 . S
C650 H634 0.931 . S
C650 C644 1.383 . S
C650 C649 1.379 . S
H651 C645 0.959 . S
H652 C645 0.961 . S
H653 C645 0.960 . S
H654 C646 0.930 . S
H655 C647 0.929 . S
H656 C664 0.929 . S
H657 C666 0.930 . S
H658 C668 0.930 . S
H659 C671 0.929 . S
H660 C674 0.930 . S
H661 C676 0.960 . S
H662 C676 0.960 . S
H663 C676 0.960 . S
C664 H656 0.929 . S
C664 C665 1.377 . S
C664 C666 1.384 . S
C665 C664 1.377 . S
C665 C671 1.390 . S
C666 H657 0.930 . S
C666 C664 1.384 . S
C666 C667 1.372 . S
C667 C666 1.372 . S
C667 C668 1.400 . S
C667 C672 1.490 . S
C668 H658 0.930 . S
C668 C667 1.400 . S
C668 C671 1.386 . S
H669 C685 0.930 . S
H670 C686 0.931 . S
C671 H659 0.929 . S
C671 C665 1.390 . S
C671 C668 1.386 . S
C672 C667 1.490 . S
C672 C674 1.395 . S
C672 C675 1.403 . S
H673 C679 0.930 . S
C674 H660 0.930 . S
C674 C672 1.395 . S
C674 C677 1.403 . S
C675 C672 1.403 . S
C675 C676 1.524 . S
C675 C679 1.400 . S
C676 H661 0.960 . S
C676 H662 0.960 . S
C676 H663 0.960 . S
C676 C675 1.524 . S
C677 C674 1.403 . S
C677 C678 1.392 . S
C677 C681 1.495 1_554 S
C678 C677 1.392 . S
C678 C679 1.385 . S
C678 C680 1.478 1_554 S
C679 H673 0.930 . S
C679 C675 1.400 . S
C679 C678 1.385 . S
C680 C678 1.478 1_556 S
C680 C682 1.381 . S
C680 C686 1.383 . S
C681 C677 1.495 1_556 S
C681 H687 0.959 . S
C681 H688 0.961 . S
C681 H689 0.960 . S
C682 C680 1.381 . S
C682 C683 1.394 . S
C682 H690 0.930 . S
C683 C682 1.394 . S
C683 C684 1.383 . S
C683 H691 0.929 . S
C684 C683 1.383 . S
C684 C685 1.377 . S
C685 H669 0.930 . S
C685 C684 1.377 . S
C685 C686 1.379 . S
C686 H670 0.931 . S
C686 C680 1.383 . S
C686 C685 1.379 . S
H687 C681 0.959 . S
H688 C681 0.961 . S
H689 C681 0.960 . S
H690 C682 0.930 . S
H691 C683 0.929 . S
H692 C700 0.929 . S
H693 C702 0.930 . S
H694 C704 0.930 . S
H695 C707 0.929 . S
H696 C710 0.930 . S
H697 C712 0.960 . S
H698 C712 0.960 . S
H699 C712 0.960 . S
C700 H692 0.929 . S
C700 C701 1.377 . S
C700 C702 1.384 . S
C701 C700 1.377 . S
C701 C707 1.390 . S
C702 H693 0.930 . S
C702 C700 1.384 . S
C702 C703 1.372 . S
C703 C702 1.372 . S
C703 C704 1.400 . S
C703 C708 1.490 . S
C704 H694 0.930 . S
C704 C703 1.400 . S
C704 C707 1.386 . S
H705 C721 0.930 . S
H706 C722 0.931 . S
C707 H695 0.929 . S
C707 C701 1.390 . S
C707 C704 1.386 . S
C708 C703 1.490 . S
C708 C710 1.395 1_455 S
C708 C711 1.403 . S
H709 C715 0.930 1_455 S
C710 H696 0.930 . S
C710 C708 1.395 1_655 S
C710 C713 1.403 . S
C711 C708 1.403 . S
C711 C712 1.524 . S
C711 C715 1.400 1_455 S
C712 H697 0.960 . S
C712 H698 0.960 . S
C712 H699 0.960 . S
C712 C711 1.524 . S
C713 C710 1.403 . S
C713 C714 1.392 . S
C713 C717 1.495 . S
C714 C713 1.392 . S
C714 C715 1.385 . S
C714 C716 1.478 . S
C715 H709 0.930 1_655 S
C715 C711 1.400 1_655 S
C715 C714 1.385 . S
C716 C714 1.478 . S
C716 C718 1.381 . S
C716 C722 1.383 . S
C717 C713 1.495 . S
C717 H723 0.959 . S
C717 H724 0.961 . S
C717 H725 0.960 . S
C718 C716 1.381 . S
C718 C719 1.394 . S
C718 H726 0.930 . S
C719 C718 1.394 . S
C719 C720 1.383 . S
C719 H727 0.929 . S
C720 C719 1.383 . S
C720 C721 1.377 . S
C721 H705 0.930 . S
C721 C720 1.377 . S
C721 C722 1.379 . S
C722 H706 0.931 . S
C722 C716 1.383 . S
C722 C721 1.379 . S
H723 C717 0.959 . S
H724 C717 0.961 . S
H725 C717 0.960 . S
H726 C718 0.930 . S
H727 C719 0.929 . S
H728 C736 0.929 . S
H729 C738 0.930 . S
H730 C740 0.930 . S
H731 C743 0.929 . S
H732 C746 0.930 . S
H733 C748 0.960 . S
H734 C748 0.960 . S
H735 C748 0.960 . S
C736 H728 0.929 . S
C736 C737 1.377 . S
C736 C738 1.384 . S
C737 C736 1.377 . S
C737 C743 1.390 . S
C738 H729 0.930 . S
C738 C736 1.384 . S
C738 C739 1.372 . S
C739 C738 1.372 . S
C739 C740 1.400 . S
C739 C744 1.490 . S
C740 H730 0.930 . S
C740 C739 1.400 . S
C740 C743 1.386 . S
H741 C757 0.930 . S
H742 C758 0.931 1_554 S
C743 H731 0.929 . S
C743 C737 1.390 . S
C743 C740 1.386 . S
C744 C739 1.490 . S
C744 C746 1.395 . S
C744 C747 1.403 1_455 S
H745 C751 0.930 . S
C746 H732 0.930 . S
C746 C744 1.395 . S
C746 C749 1.403 . S
C747 C744 1.403 1_655 S
C747 C748 1.524 . S
C747 C751 1.400 . S
C748 H733 0.960 . S
C748 H734 0.960 . S
C748 H735 0.960 . S
C748 C747 1.524 . S
C749 C746 1.403 . S
C749 C750 1.392 1_455 S
C749 C753 1.495 1_554 S
C750 C749 1.392 1_655 S
C750 C751 1.385 . S
C750 C752 1.478 1_554 S
C751 H745 0.930 . S
C751 C747 1.400 . S
C751 C750 1.385 . S
C752 C750 1.478 1_556 S
C752 C754 1.381 . S
C752 C758 1.383 . S
C753 C749 1.495 1_556 S
C753 H759 0.959 . S
C753 H760 0.961 . S
C753 H761 0.960 . S
C754 C752 1.381 . S
C754 C755 1.394 . S
C754 H762 0.930 . S
C755 C754 1.394 . S
C755 C756 1.383 . S
C755 H763 0.929 . S
C756 C755 1.383 . S
C756 C757 1.377 . S
C757 H741 0.930 . S
C757 C756 1.377 . S
C757 C758 1.379 . S
C758 H742 0.931 1_556 S
C758 C752 1.383 . S
C758 C757 1.379 . S
H759 C753 0.959 . S
H760 C753 0.961 . S
H761 C753 0.960 . S
H762 C754 0.930 . S
H763 C755 0.929 . S
H764 C772 0.929 . S
H765 C774 0.930 . S
H766 C776 0.930 . S
H767 C779 0.929 . S
H768 C782 0.930 . S
H769 C784 0.960 . S
H770 C784 0.960 . S
H771 C784 0.960 . S
C772 H764 0.929 . S
C772 C773 1.377 . S
C772 C774 1.384 . S
C773 C772 1.377 . S
C773 C779 1.390 . S
C774 H765 0.930 . S
C774 C772 1.384 . S
C774 C775 1.372 . S
C775 C774 1.372 . S
C775 C776 1.400 . S
C775 C780 1.490 . S
C776 H766 0.930 . S
C776 C775 1.400 . S
C776 C779 1.386 . S
H777 C793 0.930 . S
H778 C794 0.931 . S
C779 H767 0.929 . S
C779 C773 1.390 . S
C779 C776 1.386 . S
C780 C775 1.490 . S
C780 C782 1.395 . S
C780 C783 1.403 . S
H781 C787 0.930 . S
C782 H768 0.930 . S
C782 C780 1.395 . S
C782 C785 1.403 . S
C783 C780 1.403 . S
C783 C784 1.524 . S
C783 C787 1.400 . S
C784 H769 0.960 . S
C784 H770 0.960 . S
C784 H771 0.960 . S
C784 C783 1.524 . S
C785 C782 1.403 . S
C785 C786 1.392 . S
C785 C789 1.495 . S
C786 C785 1.392 . S
C786 C787 1.385 . S
C786 C788 1.478 . S
C787 H781 0.930 . S
C787 C783 1.400 . S
C787 C786 1.385 . S
C788 C786 1.478 . S
C788 C790 1.381 . S
C788 C794 1.383 . S
C789 C785 1.495 . S
C789 H795 0.959 . S
C789 H796 0.961 . S
C789 H797 0.960 . S
C790 C788 1.381 . S
C790 C791 1.394 . S
C790 H798 0.930 . S
C791 C790 1.394 . S
C791 C792 1.383 . S
C791 H799 0.929 . S
C792 C791 1.383 . S
C792 C793 1.377 . S
C793 H777 0.930 . S
C793 C792 1.377 . S
C793 C794 1.379 . S
C794 H778 0.931 . S
C794 C788 1.383 . S
C794 C793 1.379 . S
H795 C789 0.959 . S
H796 C789 0.961 . S
H797 C789 0.960 . S
H798 C790 0.930 . S
H799 C791 0.929 . S
H800 C808 0.929 . S
H801 C810 0.930 . S
H802 C812 0.930 . S
H803 C815 0.929 . S
H804 C818 0.930 . S
H805 C820 0.960 . S
H806 C820 0.960 . S
H807 C820 0.960 . S
C808 H800 0.929 . S
C808 C809 1.377 . S
C808 C810 1.384 . S
C809 C808 1.377 . S
C809 C815 1.390 . S
C810 H801 0.930 . S
C810 C808 1.384 . S
C810 C811 1.372 . S
C811 C810 1.372 . S
C811 C812 1.400 . S
C811 C816 1.490 . S
C812 H802 0.930 . S
C812 C811 1.400 . S
C812 C815 1.386 . S
H813 C829 0.930 . S
H814 C830 0.931 . S
C815 H803 0.929 . S
C815 C809 1.390 . S
C815 C812 1.386 . S
C816 C811 1.490 . S
C816 C818 1.395 . S
C816 C819 1.403 . S
H817 C823 0.930 . S
C818 H804 0.930 . S
C818 C816 1.395 . S
C818 C821 1.403 . S
C819 C816 1.403 . S
C819 C820 1.524 . S
C819 C823 1.400 . S
C820 H805 0.960 . S
C820 H806 0.960 . S
C820 H807 0.960 . S
C820 C819 1.524 . S
C821 C818 1.403 . S
C821 C822 1.392 . S
C821 C825 1.495 . S
C822 C821 1.392 . S
C822 C823 1.385 . S
C822 C824 1.478 . S
C823 H817 0.930 . S
C823 C819 1.400 . S
C823 C822 1.385 . S
C824 C822 1.478 . S
C824 C826 1.381 . S
C824 C830 1.383 . S
C825 C821 1.495 . S
C825 H831 0.959 . S
C825 H832 0.961 . S
C825 H833 0.960 . S
C826 C824 1.381 . S
C826 C827 1.394 . S
C826 H834 0.930 . S
C827 C826 1.394 . S
C827 C828 1.383 . S
C827 H835 0.929 . S
C828 C827 1.383 . S
C828 C829 1.377 . S
C829 H813 0.930 . S
C829 C828 1.377 . S
C829 C830 1.379 . S
C830 H814 0.931 . S
C830 C824 1.383 . S
C830 C829 1.379 . S
H831 C825 0.959 . S
H832 C825 0.961 . S
H833 C825 0.960 . S
H834 C826 0.930 . S
H835 C827 0.929 . S
H836 C844 0.929 . S
H837 C846 0.930 . S
H838 C848 0.930 . S
H839 C851 0.929 . S
H840 C854 0.930 . S
H841 C856 0.960 . S
H842 C856 0.960 . S
H843 C856 0.960 . S
C844 H836 0.929 . S
C844 C845 1.377 . S
C844 C846 1.384 . S
C845 C844 1.377 . S
C845 C851 1.390 . S
C846 H837 0.930 . S
C846 C844 1.384 . S
C846 C847 1.372 . S
C847 C846 1.372 . S
C847 C848 1.400 . S
C847 C852 1.490 . S
C848 H838 0.930 . S
C848 C847 1.400 . S
C848 C851 1.386 . S
H849 C865 0.930 . S
H850 C866 0.931 . S
C851 H839 0.929 . S
C851 C845 1.390 . S
C851 C848 1.386 . S
C852 C847 1.490 . S
C852 C854 1.395 . S
C852 C855 1.403 . S
H853 C859 0.930 . S
C854 H840 0.930 . S
C854 C852 1.395 . S
C854 C857 1.403 . S
C855 C852 1.403 . S
C855 C856 1.524 . S
C855 C859 1.400 . S
C856 H841 0.960 . S
C856 H842 0.960 . S
C856 H843 0.960 . S
C856 C855 1.524 . S
C857 C854 1.403 . S
C857 C858 1.392 . S
C857 C861 1.495 . S
C858 C857 1.392 . S
C858 C859 1.385 . S
C858 C860 1.478 . S
C859 H853 0.930 . S
C859 C855 1.400 . S
C859 C858 1.385 . S
C860 C858 1.478 . S
C860 C862 1.381 . S
C860 C866 1.383 . S
C861 C857 1.495 . S
C861 H867 0.959 . S
C861 H868 0.961 . S
C861 H869 0.960 . S
C862 C860 1.381 . S
C862 C863 1.394 . S
C862 H870 0.930 . S
C863 C862 1.394 . S
C863 C864 1.383 . S
C863 H871 0.929 . S
C864 C863 1.383 . S
C864 C865 1.377 . S
C865 H849 0.930 . S
C865 C864 1.377 . S
C865 C866 1.379 . S
C866 H850 0.931 . S
C866 C860 1.383 . S
C866 C865 1.379 . S
H867 C861 0.959 . S
H868 C861 0.961 . S
H869 C861 0.960 . S
H870 C862 0.930 . S
H871 C863 0.929 . S
H872 C880 0.929 . S
H873 C882 0.930 . S
H874 C884 0.930 . S
H875 C887 0.929 . S
H876 C890 0.930 . S
H877 C892 0.960 . S
H878 C892 0.960 . S
H879 C892 0.960 . S
C880 H872 0.929 . S
C880 C881 1.377 . S
C880 C882 1.384 . S
C881 C880 1.377 . S
C881 C887 1.390 . S
C882 H873 0.930 . S
C882 C880 1.384 . S
C882 C883 1.372 . S
C883 C882 1.372 . S
C883 C884 1.400 . S
C883 C888 1.490 . S
C884 H874 0.930 . S
C884 C883 1.400 . S
C884 C887 1.386 . S
H885 C901 0.930 . S
H886 C902 0.931 . S
C887 H875 0.929 . S
C887 C881 1.390 . S
C887 C884 1.386 . S
C888 C883 1.490 . S
C888 C890 1.395 . S
C888 C891 1.403 . S
H889 C895 0.930 . S
C890 H876 0.930 . S
C890 C888 1.395 . S
C890 C893 1.403 . S
C891 C888 1.403 . S
C891 C892 1.524 . S
C891 C895 1.400 . S
C892 H877 0.960 . S
C892 H878 0.960 . S
C892 H879 0.960 . S
C892 C891 1.524 . S
C893 C890 1.403 . S
C893 C894 1.392 . S
C893 C897 1.495 . S
C894 C893 1.392 . S
C894 C895 1.385 . S
C894 C896 1.478 . S
C895 H889 0.930 . S
C895 C891 1.400 . S
C895 C894 1.385 . S
C896 C894 1.478 . S
C896 C898 1.381 . S
C896 C902 1.383 . S
C897 C893 1.495 . S
C897 H903 0.959 . S
C897 H904 0.961 . S
C897 H905 0.960 . S
C898 C896 1.381 . S
C898 C899 1.394 . S
C898 H906 0.930 . S
C899 C898 1.394 . S
C899 C900 1.383 . S
C899 H907 0.929 . S
C900 C899 1.383 . S
C900 C901 1.377 . S
C901 H885 0.930 . S
C901 C900 1.377 . S
C901 C902 1.379 . S
C902 H886 0.931 . S
C902 C896 1.383 . S
C902 C901 1.379 . S
H903 C897 0.959 . S
H904 C897 0.961 . S
H905 C897 0.960 . S
H906 C898 0.930 . S
H907 C899 0.929 . S
H908 C916 0.929 . S
H909 C918 0.930 . S
H910 C920 0.930 . S
H911 C923 0.929 . S
H912 C926 0.930 . S
H913 C928 0.960 . S
H914 C928 0.960 . S
H915 C928 0.960 . S
C916 H908 0.929 . S
C916 C917 1.377 1_556 S
C916 C918 1.384 . S
C917 C916 1.377 1_554 S
C917 C923 1.390 . S
C918 H909 0.930 . S
C918 C916 1.384 . S
C918 C919 1.372 . S
C919 C918 1.372 . S
C919 C920 1.400 1_556 S
C919 C924 1.490 . S
C920 H910 0.930 . S
C920 C919 1.400 1_554 S
C920 C923 1.386 . S
H921 C937 0.930 . S
H922 C938 0.931 . S
C923 H911 0.929 . S
C923 C917 1.390 . S
C923 C920 1.386 . S
C924 C919 1.490 . S
C924 C926 1.395 . S
C924 C927 1.403 . S
H925 C931 0.930 . S
C926 H912 0.930 . S
C926 C924 1.395 . S
C926 C929 1.403 . S
C927 C924 1.403 . S
C927 C928 1.524 . S
C927 C931 1.400 . S
C928 H913 0.960 . S
C928 H914 0.960 . S
C928 H915 0.960 . S
C928 C927 1.524 . S
C929 C926 1.403 . S
C929 C930 1.392 . S
C929 C933 1.495 . S
C930 C929 1.392 . S
C930 C931 1.385 . S
C930 C932 1.478 . S
C931 H925 0.930 . S
C931 C927 1.400 . S
C931 C930 1.385 . S
C932 C930 1.478 . S
C932 C934 1.381 . S
C932 C938 1.383 . S
C933 C929 1.495 . S
C933 H939 0.959 . S
C933 H940 0.961 . S
C933 H941 0.960 . S
C934 C932 1.381 . S
C934 C935 1.394 . S
C934 H942 0.930 . S
C935 C934 1.394 . S
C935 C936 1.383 . S
C935 H943 0.929 . S
C936 C935 1.383 . S
C936 C937 1.377 . S
C937 H921 0.930 . S
C937 C936 1.377 . S
C937 C938 1.379 . S
C938 H922 0.931 . S
C938 C932 1.383 . S
C938 C937 1.379 . S
H939 C933 0.959 . S
H940 C933 0.961 . S
H941 C933 0.960 . S
H942 C934 0.930 . S
H943 C935 0.929 . S
H944 C952 0.929 . S
H945 C954 0.930 . S
H946 C956 0.930 . S
H947 C959 0.929 . S
H948 C962 0.930 . S
H949 C964 0.960 . S
H950 C964 0.960 . S
H951 C964 0.960 . S
C952 H944 0.929 . S
C952 C953 1.377 . S
C952 C954 1.384 . S
C953 C952 1.377 . S
C953 C959 1.390 . S
C954 H945 0.930 . S
C954 C952 1.384 . S
C954 C955 1.372 . S
C955 C954 1.372 . S
C955 C956 1.400 . S
C955 C960 1.490 . S
C956 H946 0.930 . S
C956 C955 1.400 . S
C956 C959 1.386 . S
H957 C973 0.930 . S
H958 C974 0.931 . S
C959 H947 0.929 . S
C959 C953 1.390 . S
C959 C956 1.386 . S
C960 C955 1.490 . S
C960 C962 1.395 . S
C960 C963 1.403 . S
H961 C967 0.930 . S
C962 H948 0.930 . S
C962 C960 1.395 . S
C962 C965 1.403 . S
C963 C960 1.403 . S
C963 C964 1.524 . S
C963 C967 1.400 . S
C964 H949 0.960 . S
C964 H950 0.960 . S
C964 H951 0.960 . S
C964 C963 1.524 . S
C965 C962 1.403 . S
C965 C966 1.392 . S
C965 C969 1.495 . S
C966 C965 1.392 . S
C966 C967 1.385 . S
C966 C968 1.478 . S
C967 H961 0.930 . S
C967 C963 1.400 . S
C967 C966 1.385 . S
C968 C966 1.478 . S
C968 C970 1.381 . S
C968 C974 1.383 . S
C969 C965 1.495 . S
C969 H975 0.959 . S
C969 H976 0.961 . S
C969 H977 0.960 . S
C970 C968 1.381 . S
C970 C971 1.394 . S
C970 H978 0.930 . S
C971 C970 1.394 . S
C971 C972 1.383 . S
C971 H979 0.929 . S
C972 C971 1.383 . S
C972 C973 1.377 . S
C973 H957 0.930 . S
C973 C972 1.377 . S
C973 C974 1.379 . S
C974 H958 0.931 . S
C974 C968 1.383 . S
C974 C973 1.379 . S
H975 C969 0.959 . S
H976 C969 0.961 . S
H977 C969 0.960 . S
H978 C970 0.930 . S
H979 C971 0.929 . S
H980 C988 0.929 . S
H981 C990 0.930 . S
H982 C992 0.930 . S
H983 C995 0.929 . S
H984 C998 0.930 . S
H985 C1000 0.960 . S
H986 C1000 0.960 . S
H987 C1000 0.960 . S
C988 H980 0.929 . S
C988 C989 1.377 . S
C988 C990 1.384 . S
C989 C988 1.377 . S
C989 C995 1.390 . S
C990 H981 0.930 . S
C990 C988 1.384 . S
C990 C991 1.372 . S
C991 C990 1.372 . S
C991 C992 1.400 . S
C991 C996 1.490 . S
C992 H982 0.930 . S
C992 C991 1.400 . S
C992 C995 1.386 . S
H993 C1009 0.930 . S
H994 C1010 0.931 . S
C995 H983 0.929 . S
C995 C989 1.390 . S
C995 C992 1.386 . S
C996 C991 1.490 . S
C996 C998 1.395 . S
C996 C999 1.403 . S
H997 C1003 0.930 . S
C998 H984 0.930 . S
C998 C996 1.395 . S
C998 C1001 1.403 . S
C999 C996 1.403 . S
C999 C1000 1.524 . S
C999 C1003 1.400 . S
C1000 H985 0.960 . S
C1000 H986 0.960 . S
C1000 H987 0.960 . S
C1000 C999 1.524 . S
C1001 C998 1.403 . S
C1001 C1002 1.392 . S
C1001 C1005 1.495 . S
C1002 C1001 1.392 . S
C1002 C1003 1.385 . S
C1002 C1004 1.478 . S
C1003 H997 0.930 . S
C1003 C999 1.400 . S
C1003 C1002 1.385 . S
C1004 C1002 1.478 . S
C1004 C1006 1.381 . S
C1004 C1010 1.383 . S
C1005 C1001 1.495 . S
C1005 H1011 0.959 . S
C1005 H1012 0.961 . S
C1005 H1013 0.960 . S
C1006 C1004 1.381 . S
C1006 C1007 1.394 . S
C1006 H1014 0.930 . S
C1007 C1006 1.394 . S
C1007 C1008 1.383 . S
C1007 H1015 0.929 . S
C1008 C1007 1.383 . S
C1008 C1009 1.377 . S
C1009 H993 0.930 . S
C1009 C1008 1.377 . S
C1009 C1010 1.379 . S
C1010 H994 0.931 . S
C1010 C1004 1.383 . S
C1010 C1009 1.379 . S
H1011 C1005 0.959 . S
H1012 C1005 0.961 . S
H1013 C1005 0.960 . S
H1014 C1006 0.930 . S
H1015 C1007 0.929 . S
H1016 C1024 0.929 . S
H1017 C1026 0.930 . S
H1018 C1028 0.930 . S
H1019 C1031 0.929 . S
H1020 C1034 0.930 . S
H1021 C1036 0.960 1_554 S
H1022 C1036 0.960 . S
H1023 C1036 0.960 . S
C1024 H1016 0.929 . S
C1024 C1025 1.377 . S
C1024 C1026 1.384 . S
C1025 C1024 1.377 . S
C1025 C1031 1.390 . S
C1026 H1017 0.930 . S
C1026 C1024 1.384 . S
C1026 C1027 1.372 . S
C1027 C1026 1.372 . S
C1027 C1028 1.400 . S
C1027 C1032 1.490 . S
C1028 H1018 0.930 . S
C1028 C1027 1.400 . S
C1028 C1031 1.386 . S
H1029 C1045 0.930 . S
H1030 C1046 0.931 . S
C1031 H1019 0.929 . S
C1031 C1025 1.390 . S
C1031 C1028 1.386 . S
C1032 C1027 1.490 . S
C1032 C1034 1.395 . S
C1032 C1035 1.403 . S
H1033 C1039 0.930 1_554 S
C1034 H1020 0.930 . S
C1034 C1032 1.395 . S
C1034 C1037 1.403 . S
C1035 C1032 1.403 . S
C1035 C1036 1.524 . S
C1035 C1039 1.400 . S
C1036 H1021 0.960 1_556 S
C1036 H1022 0.960 . S
C1036 H1023 0.960 . S
C1036 C1035 1.524 . S
C1037 C1034 1.403 . S
C1037 C1038 1.392 . S
C1037 C1041 1.495 . S
C1038 C1037 1.392 . S
C1038 C1039 1.385 . S
C1038 C1040 1.478 . S
C1039 H1033 0.930 1_556 S
C1039 C1035 1.400 . S
C1039 C1038 1.385 . S
C1040 C1038 1.478 . S
C1040 C1042 1.381 . S
C1040 C1046 1.383 . S
C1041 C1037 1.495 . S
C1041 H1047 0.959 . S
C1041 H1048 0.961 . S
C1041 H1049 0.960 . S
C1042 C1040 1.381 . S
C1042 C1043 1.394 . S
C1042 H1050 0.930 . S
C1043 C1042 1.394 . S
C1043 C1044 1.383 1_556 S
C1043 H1051 0.929 . S
C1044 C1043 1.383 1_554 S
C1044 C1045 1.377 . S
C1045 H1029 0.930 . S
C1045 C1044 1.377 . S
C1045 C1046 1.379 1_554 S
C1046 H1030 0.931 . S
C1046 C1040 1.383 . S
C1046 C1045 1.379 1_556 S
H1047 C1041 0.959 . S
H1048 C1041 0.961 . S
H1049 C1041 0.960 . S
H1050 C1042 0.930 . S
H1051 C1043 0.929 . S
H1052 C1060 0.929 . S
H1053 C1062 0.930 . S
H1054 C1064 0.930 . S
H1055 C1067 0.929 . S
H1056 C1070 0.930 . S
H1057 C1072 0.960 . S
H1058 C1072 0.960 . S
H1059 C1072 0.960 . S
C1060 H1052 0.929 . S
C1060 C1061 1.377 . S
C1060 C1062 1.384 . S
C1061 C1060 1.377 . S
C1061 C1067 1.390 . S
C1062 H1053 0.930 . S
C1062 C1060 1.384 . S
C1062 C1063 1.372 . S
C1063 C1062 1.372 . S
C1063 C1064 1.400 . S
C1063 C1068 1.490 . S
C1064 H1054 0.930 . S
C1064 C1063 1.400 . S
C1064 C1067 1.386 . S
H1065 C1081 0.930 . S
H1066 C1082 0.931 . S
C1067 H1055 0.929 . S
C1067 C1061 1.390 . S
C1067 C1064 1.386 . S
C1068 C1063 1.490 . S
C1068 C1070 1.395 . S
C1068 C1071 1.403 . S
H1069 C1075 0.930 . S
C1070 H1056 0.930 . S
C1070 C1068 1.395 . S
C1070 C1073 1.403 . S
C1071 C1068 1.403 . S
C1071 C1072 1.524 . S
C1071 C1075 1.400 . S
C1072 H1057 0.960 . S
C1072 H1058 0.960 . S
C1072 H1059 0.960 . S
C1072 C1071 1.524 . S
C1073 C1070 1.403 . S
C1073 C1074 1.392 . S
C1073 C1077 1.495 . S
C1074 C1073 1.392 . S
C1074 C1075 1.385 . S
C1074 C1076 1.478 . S
C1075 H1069 0.930 . S
C1075 C1071 1.400 . S
C1075 C1074 1.385 . S
C1076 C1074 1.478 . S
C1076 C1078 1.381 . S
C1076 C1082 1.383 . S
C1077 C1073 1.495 . S
C1077 H1083 0.959 . S
C1077 H1084 0.961 . S
C1077 H1085 0.960 . S
C1078 C1076 1.381 . S
C1078 C1079 1.394 . S
C1078 H1086 0.930 . S
C1079 C1078 1.394 . S
C1079 C1080 1.383 . S
C1079 H1087 0.929 . S
C1080 C1079 1.383 . S
C1080 C1081 1.377 . S
C1081 H1065 0.930 . S
C1081 C1080 1.377 . S
C1081 C1082 1.379 . S
C1082 H1066 0.931 . S
C1082 C1076 1.383 . S
C1082 C1081 1.379 . S
H1083 C1077 0.959 . S
H1084 C1077 0.961 . S
H1085 C1077 0.960 . S
H1086 C1078 0.930 . S
H1087 C1079 0.929 . S
H1088 C1096 0.929 . S
H1089 C1098 0.930 . S
H1090 C1100 0.930 . S
H1091 C1103 0.929 . S
H1092 C1106 0.930 . S
H1093 C1108 0.960 . S
H1094 C1108 0.960 . S
H1095 C1108 0.960 . S
C1096 H1088 0.929 . S
C1096 C1097 1.377 1_556 S
C1096 C1098 1.384 . S
C1097 C1096 1.377 1_554 S
C1097 C1103 1.390 . S
C1098 H1089 0.930 . S
C1098 C1096 1.384 . S
C1098 C1099 1.372 . S
C1099 C1098 1.372 . S
C1099 C1100 1.400 1_556 S
C1099 C1104 1.490 . S
C1100 H1090 0.930 . S
C1100 C1099 1.400 1_554 S
C1100 C1103 1.386 . S
H1101 C1117 0.930 . S
H1102 C1118 0.931 . S
C1103 H1091 0.929 . S
C1103 C1097 1.390 . S
C1103 C1100 1.386 . S
C1104 C1099 1.490 . S
C1104 C1106 1.395 . S
C1104 C1107 1.403 . S
H1105 C1111 0.930 . S
C1106 H1092 0.930 . S
C1106 C1104 1.395 . S
C1106 C1109 1.403 . S
C1107 C1104 1.403 . S
C1107 C1108 1.524 1_556 S
C1107 C1111 1.400 . S
C1108 H1093 0.960 . S
C1108 H1094 0.960 . S
C1108 H1095 0.960 . S
C1108 C1107 1.524 1_554 S
C1109 C1106 1.403 . S
C1109 C1110 1.392 . S
C1109 C1113 1.495 . S
C1110 C1109 1.392 . S
C1110 C1111 1.385 . S
C1110 C1112 1.478 . S
C1111 H1105 0.930 . S
C1111 C1107 1.400 . S
C1111 C1110 1.385 . S
C1112 C1110 1.478 . S
C1112 C1114 1.381 . S
C1112 C1118 1.383 . S
C1113 C1109 1.495 . S
C1113 H1119 0.959 . S
C1113 H1120 0.961 . S
C1113 H1121 0.960 . S
C1114 C1112 1.381 . S
C1114 C1115 1.394 . S
C1114 H1122 0.930 . S
C1115 C1114 1.394 . S
C1115 C1116 1.383 . S
C1115 H1123 0.929 . S
C1116 C1115 1.383 . S
C1116 C1117 1.377 . S
C1117 H1101 0.930 . S
C1117 C1116 1.377 . S
C1117 C1118 1.379 . S
C1118 H1102 0.931 . S
C1118 C1112 1.383 . S
C1118 C1117 1.379 . S
H1119 C1113 0.959 . S
H1120 C1113 0.961 . S
H1121 C1113 0.960 . S
H1122 C1114 0.930 . S
H1123 C1115 0.929 . S
H1124 C1132 0.929 . S
H1125 C1134 0.930 . S
H1126 C1136 0.930 . S
H1127 C1139 0.929 . S
H1128 C1142 0.930 . S
H1129 C1144 0.960 . S
H1130 C1144 0.960 . S
H1131 C1144 0.960 . S
C1132 H1124 0.929 . S
C1132 C1133 1.377 . S
C1132 C1134 1.384 . S
C1133 C1132 1.377 . S
C1133 C1139 1.390 . S
C1134 H1125 0.930 . S
C1134 C1132 1.384 . S
C1134 C1135 1.372 . S
C1135 C1134 1.372 . S
C1135 C1136 1.400 . S
C1135 C1140 1.490 . S
C1136 H1126 0.930 . S
C1136 C1135 1.400 . S
C1136 C1139 1.386 . S
H1137 C1153 0.930 . S
H1138 C1154 0.931 . S
C1139 H1127 0.929 . S
C1139 C1133 1.390 . S
C1139 C1136 1.386 . S
C1140 C1135 1.490 . S
C1140 C1142 1.395 . S
C1140 C1143 1.403 . S
H1141 C1147 0.930 . S
C1142 H1128 0.930 . S
C1142 C1140 1.395 . S
C1142 C1145 1.403 . S
C1143 C1140 1.403 . S
C1143 C1144 1.524 . S
C1143 C1147 1.400 . S
C1144 H1129 0.960 . S
C1144 H1130 0.960 . S
C1144 H1131 0.960 . S
C1144 C1143 1.524 . S
C1145 C1142 1.403 . S
C1145 C1146 1.392 . S
C1145 C1149 1.495 . S
C1146 C1145 1.392 . S
C1146 C1147 1.385 . S
C1146 C1148 1.478 . S
C1147 H1141 0.930 . S
C1147 C1143 1.400 . S
C1147 C1146 1.385 . S
C1148 C1146 1.478 . S
C1148 C1150 1.381 . S
C1148 C1154 1.383 . S
C1149 C1145 1.495 . S
C1149 H1155 0.959 . S
C1149 H1156 0.961 . S
C1149 H1157 0.960 . S
C1150 C1148 1.381 . S
C1150 C1151 1.394 . S
C1150 H1158 0.930 . S
C1151 C1150 1.394 . S
C1151 C1152 1.383 . S
C1151 H1159 0.929 . S
C1152 C1151 1.383 . S
C1152 C1153 1.377 . S
C1153 H1137 0.930 . S
C1153 C1152 1.377 . S
C1153 C1154 1.379 . S
C1154 H1138 0.931 . S
C1154 C1148 1.383 . S
C1154 C1153 1.379 . S
H1155 C1149 0.959 . S
H1156 C1149 0.961 . S
H1157 C1149 0.960 . S
H1158 C1150 0.930 . S
H1159 C1151 0.929 . S
H1160 C1168 0.929 . S
H1161 C1170 0.930 . S
H1162 C1172 0.930 . S
H1163 C1175 0.929 . S
H1164 C1178 0.930 . S
H1165 C1180 0.960 . S
H1166 C1180 0.960 . S
H1167 C1180 0.960 . S
C1168 H1160 0.929 . S
C1168 C1169 1.377 . S
C1168 C1170 1.384 . S
C1169 C1168 1.377 . S
C1169 C1175 1.390 . S
C1170 H1161 0.930 . S
C1170 C1168 1.384 . S
C1170 C1171 1.372 . S
C1171 C1170 1.372 . S
C1171 C1172 1.400 . S
C1171 C1176 1.490 . S
C1172 H1162 0.930 . S
C1172 C1171 1.400 . S
C1172 C1175 1.386 . S
H1173 C1189 0.930 . S
H1174 C1190 0.931 . S
C1175 H1163 0.929 . S
C1175 C1169 1.390 . S
C1175 C1172 1.386 . S
C1176 C1171 1.490 . S
C1176 C1178 1.395 . S
C1176 C1179 1.403 . S
H1177 C1183 0.930 . S
C1178 H1164 0.930 . S
C1178 C1176 1.395 . S
C1178 C1181 1.403 . S
C1179 C1176 1.403 . S
C1179 C1180 1.524 . S
C1179 C1183 1.400 . S
C1180 H1165 0.960 . S
C1180 H1166 0.960 . S
C1180 H1167 0.960 . S
C1180 C1179 1.524 . S
C1181 C1178 1.403 . S
C1181 C1182 1.392 . S
C1181 C1185 1.495 . S
C1182 C1181 1.392 . S
C1182 C1183 1.385 . S
C1182 C1184 1.478 . S
C1183 H1177 0.930 . S
C1183 C1179 1.400 . S
C1183 C1182 1.385 . S
C1184 C1182 1.478 . S
C1184 C1186 1.381 . S
C1184 C1190 1.383 . S
C1185 C1181 1.495 . S
C1185 H1191 0.959 . S
C1185 H1192 0.961 . S
C1185 H1193 0.960 . S
C1186 C1184 1.381 . S
C1186 C1187 1.394 . S
C1186 H1194 0.930 . S
C1187 C1186 1.394 . S
C1187 C1188 1.383 . S
C1187 H1195 0.929 . S
C1188 C1187 1.383 . S
C1188 C1189 1.377 . S
C1189 H1173 0.930 . S
C1189 C1188 1.377 . S
C1189 C1190 1.379 . S
C1190 H1174 0.931 . S
C1190 C1184 1.383 . S
C1190 C1189 1.379 . S
H1191 C1185 0.959 . S
H1192 C1185 0.961 . S
H1193 C1185 0.960 . S
H1194 C1186 0.930 . S
H1195 C1187 0.929 . S
H1196 C1204 0.929 . S
H1197 C1206 0.930 . S
H1198 C1208 0.930 . S
H1199 C1211 0.929 . S
H1200 C1214 0.930 . S
H1201 C1216 0.960 . S
H1202 C1216 0.960 . S
H1203 C1216 0.960 . S
C1204 H1196 0.929 . S
C1204 C1205 1.377 . S
C1204 C1206 1.384 . S
C1205 C1204 1.377 . S
C1205 C1211 1.390 . S
C1206 H1197 0.930 . S
C1206 C1204 1.384 . S
C1206 C1207 1.372 . S
C1207 C1206 1.372 . S
C1207 C1208 1.400 . S
C1207 C1212 1.490 . S
C1208 H1198 0.930 . S
C1208 C1207 1.400 . S
C1208 C1211 1.386 . S
H1209 C1225 0.930 . S
H1210 C1226 0.931 . S
C1211 H1199 0.929 . S
C1211 C1205 1.390 . S
C1211 C1208 1.386 . S
C1212 C1207 1.490 . S
C1212 C1214 1.395 . S
C1212 C1215 1.403 . S
H1213 C1219 0.930 . S
C1214 H1200 0.930 . S
C1214 C1212 1.395 . S
C1214 C1217 1.403 . S
C1215 C1212 1.403 . S
C1215 C1216 1.524 . S
C1215 C1219 1.400 . S
C1216 H1201 0.960 . S
C1216 H1202 0.960 . S
C1216 H1203 0.960 . S
C1216 C1215 1.524 . S
C1217 C1214 1.403 . S
C1217 C1218 1.392 . S
C1217 C1221 1.495 . S
C1218 C1217 1.392 . S
C1218 C1219 1.385 . S
C1218 C1220 1.478 . S
C1219 H1213 0.930 . S
C1219 C1215 1.400 . S
C1219 C1218 1.385 . S
C1220 C1218 1.478 . S
C1220 C1222 1.381 . S
C1220 C1226 1.383 . S
C1221 C1217 1.495 . S
C1221 H1227 0.959 . S
C1221 H1228 0.961 . S
C1221 H1229 0.960 . S
C1222 C1220 1.381 . S
C1222 C1223 1.394 . S
C1222 H1230 0.930 . S
C1223 C1222 1.394 . S
C1223 C1224 1.383 . S
C1223 H1231 0.929 . S
C1224 C1223 1.383 . S
C1224 C1225 1.377 . S
C1225 H1209 0.930 . S
C1225 C1224 1.377 . S
C1225 C1226 1.379 . S
C1226 H1210 0.931 . S
C1226 C1220 1.383 . S
C1226 C1225 1.379 . S
H1227 C1221 0.959 . S
H1228 C1221 0.961 . S
H1229 C1221 0.960 . S
H1230 C1222 0.930 . S
H1231 C1223 0.929 . S
H1232 C1240 0.929 . S
H1233 C1242 0.930 . S
H1234 C1244 0.930 . S
H1235 C1247 0.929 . S
H1236 C1250 0.930 . S
H1237 C1252 0.960 . S
H1238 C1252 0.960 . S
H1239 C1252 0.960 . S
C1240 H1232 0.929 . S
C1240 C1241 1.377 . S
C1240 C1242 1.384 . S
C1241 C1240 1.377 . S
C1241 C1247 1.390 . S
C1242 H1233 0.930 . S
C1242 C1240 1.384 . S
C1242 C1243 1.372 . S
C1243 C1242 1.372 . S
C1243 C1244 1.400 . S
C1243 C1248 1.490 . S
C1244 H1234 0.930 . S
C1244 C1243 1.400 . S
C1244 C1247 1.386 . S
H1245 C1261 0.930 . S
H1246 C1262 0.931 . S
C1247 H1235 0.929 . S
C1247 C1241 1.390 . S
C1247 C1244 1.386 . S
C1248 C1243 1.490 . S
C1248 C1250 1.395 . S
C1248 C1251 1.403 . S
H1249 C1255 0.930 . S
C1250 H1236 0.930 . S
C1250 C1248 1.395 . S
C1250 C1253 1.403 . S
C1251 C1248 1.403 . S
C1251 C1252 1.524 . S
C1251 C1255 1.400 . S
C1252 H1237 0.960 . S
C1252 H1238 0.960 . S
C1252 H1239 0.960 . S
C1252 C1251 1.524 . S
C1253 C1250 1.403 . S
C1253 C1254 1.392 . S
C1253 C1257 1.495 . S
C1254 C1253 1.392 . S
C1254 C1255 1.385 . S
C1254 C1256 1.478 . S
C1255 H1249 0.930 . S
C1255 C1251 1.400 . S
C1255 C1254 1.385 . S
C1256 C1254 1.478 . S
C1256 C1258 1.381 . S
C1256 C1262 1.383 . S
C1257 C1253 1.495 . S
C1257 H1263 0.959 . S
C1257 H1264 0.961 . S
C1257 H1265 0.960 . S
C1258 C1256 1.381 . S
C1258 C1259 1.394 . S
C1258 H1266 0.930 . S
C1259 C1258 1.394 . S
C1259 C1260 1.383 . S
C1259 H1267 0.929 . S
C1260 C1259 1.383 . S
C1260 C1261 1.377 . S
C1261 H1245 0.930 . S
C1261 C1260 1.377 . S
C1261 C1262 1.379 . S
C1262 H1246 0.931 . S
C1262 C1256 1.383 . S
C1262 C1261 1.379 . S
H1263 C1257 0.959 . S
H1264 C1257 0.961 . S
H1265 C1257 0.960 . S
H1266 C1258 0.930 . S
H1267 C1259 0.929 . S
H1268 C1276 0.929 . S
H1269 C1278 0.930 . S
H1270 C1280 0.930 . S
H1271 C1283 0.929 . S
H1272 C1286 0.930 . S
H1273 C1288 0.960 . S
H1274 C1288 0.960 . S
H1275 C1288 0.960 . S
C1276 H1268 0.929 . S
C1276 C1277 1.377 . S
C1276 C1278 1.384 . S
C1277 C1276 1.377 . S
C1277 C1283 1.390 . S
C1278 H1269 0.930 . S
C1278 C1276 1.384 . S
C1278 C1279 1.372 . S
C1279 C1278 1.372 . S
C1279 C1280 1.400 . S
C1279 C1284 1.490 . S
C1280 H1270 0.930 . S
C1280 C1279 1.400 . S
C1280 C1283 1.386 . S
H1281 C1297 0.930 . S
H1282 C1298 0.931 . S
C1283 H1271 0.929 . S
C1283 C1277 1.390 . S
C1283 C1280 1.386 . S
C1284 C1279 1.490 . S
C1284 C1286 1.395 . S
C1284 C1287 1.403 . S
H1285 C1291 0.930 . S
C1286 H1272 0.930 . S
C1286 C1284 1.395 . S
C1286 C1289 1.403 . S
C1287 C1284 1.403 . S
C1287 C1288 1.524 . S
C1287 C1291 1.400 . S
C1288 H1273 0.960 . S
C1288 H1274 0.960 . S
C1288 H1275 0.960 . S
C1288 C1287 1.524 . S
C1289 C1286 1.403 . S
C1289 C1290 1.392 . S
C1289 C1293 1.495 . S
C1290 C1289 1.392 . S
C1290 C1291 1.385 . S
C1290 C1292 1.478 . S
C1291 H1285 0.930 . S
C1291 C1287 1.400 . S
C1291 C1290 1.385 . S
C1292 C1290 1.478 . S
C1292 C1294 1.381 . S
C1292 C1298 1.383 . S
C1293 C1289 1.495 . S
C1293 H1299 0.959 . S
C1293 H1300 0.961 . S
C1293 H1301 0.960 . S
C1294 C1292 1.381 . S
C1294 C1295 1.394 . S
C1294 H1302 0.930 . S
C1295 C1294 1.394 . S
C1295 C1296 1.383 . S
C1295 H1303 0.929 . S
C1296 C1295 1.383 . S
C1296 C1297 1.377 . S
C1297 H1281 0.930 . S
C1297 C1296 1.377 . S
C1297 C1298 1.379 . S
C1298 H1282 0.931 . S
C1298 C1292 1.383 . S
C1298 C1297 1.379 . S
H1299 C1293 0.959 . S
H1300 C1293 0.961 . S
H1301 C1293 0.960 . S
H1302 C1294 0.930 . S
H1303 C1295 0.929 . S
H1304 C1312 0.929 . S
H1305 C1314 0.930 . S
H1306 C1316 0.930 . S
H1307 C1319 0.929 . S
H1308 C1322 0.930 . S
H1309 C1324 0.960 . S
H1310 C1324 0.960 . S
H1311 C1324 0.960 . S
C1312 H1304 0.929 . S
C1312 C1313 1.377 . S
C1312 C1314 1.384 . S
C1313 C1312 1.377 . S
C1313 C1319 1.390 . S
C1314 H1305 0.930 . S
C1314 C1312 1.384 . S
C1314 C1315 1.372 . S
C1315 C1314 1.372 . S
C1315 C1316 1.400 . S
C1315 C1320 1.490 . S
C1316 H1306 0.930 . S
C1316 C1315 1.400 . S
C1316 C1319 1.386 . S
H1317 C1333 0.930 . S
H1318 C1334 0.931 . S
C1319 H1307 0.929 . S
C1319 C1313 1.390 . S
C1319 C1316 1.386 . S
C1320 C1315 1.490 . S
C1320 C1322 1.395 . S
C1320 C1323 1.403 . S
H1321 C1327 0.930 . S
C1322 H1308 0.930 . S
C1322 C1320 1.395 . S
C1322 C1325 1.403 . S
C1323 C1320 1.403 . S
C1323 C1324 1.524 . S
C1323 C1327 1.400 . S
C1324 H1309 0.960 . S
C1324 H1310 0.960 . S
C1324 H1311 0.960 . S
C1324 C1323 1.524 . S
C1325 C1322 1.403 . S
C1325 C1326 1.392 . S
C1325 C1329 1.495 . S
C1326 C1325 1.392 . S
C1326 C1327 1.385 . S
C1326 C1328 1.478 . S
C1327 H1321 0.930 . S
C1327 C1323 1.400 . S
C1327 C1326 1.385 . S
C1328 C1326 1.478 . S
C1328 C1330 1.381 . S
C1328 C1334 1.383 . S
C1329 C1325 1.495 . S
C1329 H1335 0.959 . S
C1329 H1336 0.961 . S
C1329 H1337 0.960 . S
C1330 C1328 1.381 . S
C1330 C1331 1.394 . S
C1330 H1338 0.930 . S
C1331 C1330 1.394 . S
C1331 C1332 1.383 . S
C1331 H1339 0.929 . S
C1332 C1331 1.383 . S
C1332 C1333 1.377 . S
C1333 H1317 0.930 . S
C1333 C1332 1.377 . S
C1333 C1334 1.379 . S
C1334 H1318 0.931 . S
C1334 C1328 1.383 . S
C1334 C1333 1.379 . S
H1335 C1329 0.959 . S
H1336 C1329 0.961 . S
H1337 C1329 0.960 . S
H1338 C1330 0.930 . S
H1339 C1331 0.929 . S
H1340 C1348 0.929 . S
H1341 C1350 0.930 . S
H1342 C1352 0.930 . S
H1343 C1355 0.929 1_554 S
H1344 C1358 0.930 . S
H1345 C1360 0.960 . S
H1346 C1360 0.960 . S
H1347 C1360 0.960 . S
C1348 H1340 0.929 . S
C1348 C1349 1.377 1_556 S
C1348 C1350 1.384 . S
C1349 C1348 1.377 1_554 S
C1349 C1355 1.390 1_554 S
C1350 H1341 0.930 . S
C1350 C1348 1.384 . S
C1350 C1351 1.372 . S
C1351 C1350 1.372 . S
C1351 C1352 1.400 . S
C1351 C1356 1.490 . S
C1352 H1342 0.930 . S
C1352 C1351 1.400 . S
C1352 C1355 1.386 . S
H1353 C1369 0.930 1_545 S
H1354 C1370 0.931 . S
C1355 H1343 0.929 1_556 S
C1355 C1349 1.390 1_556 S
C1355 C1352 1.386 . S
C1356 C1351 1.490 . S
C1356 C1358 1.395 . S
C1356 C1359 1.403 . S
H1357 C1363 0.930 . S
C1358 H1344 0.930 . S
C1358 C1356 1.395 . S
C1358 C1361 1.403 . S
C1359 C1356 1.403 . S
C1359 C1360 1.524 . S
C1359 C1363 1.400 . S
C1360 H1345 0.960 . S
C1360 H1346 0.960 . S
C1360 H1347 0.960 . S
C1360 C1359 1.524 . S
C1361 C1358 1.403 . S
C1361 C1362 1.392 . S
C1361 C1365 1.495 . S
C1362 C1361 1.392 . S
C1362 C1363 1.385 . S
C1362 C1364 1.478 . S
C1363 H1357 0.930 . S
C1363 C1359 1.400 . S
C1363 C1362 1.385 . S
C1364 C1362 1.478 . S
C1364 C1366 1.381 . S
C1364 C1370 1.383 . S
C1365 C1361 1.495 . S
C1365 H1371 0.959 . S
C1365 H1372 0.961 . S
C1365 H1373 0.960 . S
C1366 C1364 1.381 . S
C1366 C1367 1.394 . S
C1366 H1374 0.930 . S
C1367 C1366 1.394 . S
C1367 C1368 1.383 . S
C1367 H1375 0.929 . S
C1368 C1367 1.383 . S
C1368 C1369 1.377 . S
C1369 H1353 0.930 1_565 S
C1369 C1368 1.377 . S
C1369 C1370 1.379 . S
C1370 H1354 0.931 . S
C1370 C1364 1.383 . S
C1370 C1369 1.379 . S
H1371 C1365 0.959 . S
H1372 C1365 0.961 . S
H1373 C1365 0.960 . S
H1374 C1366 0.930 . S
H1375 C1367 0.929 . S
C233 C12 0.934 . S
C252 C179 0.957 . S
C269 C18 0.994 . S
C288 C82 1.013 . S
C305 C32 0.886 . S
C324 C207 0.897 . S
C341 C110 0.990 . S
C360 C54 0.973 . S
C377 C208 0.991 . S
C396 C40 1.003 . S
C413 C109 0.893 . S
C432 C46 0.877 . S
C449 C180 0.990 . S
C468 C4 0.964 . S
C485 C81 0.939 . S
C504 C26 0.925 . S
C521 C67 0.935 . S
C540 C124 0.945 . S
C557 C95 0.897 . S
C576 C144 0.913 . S
C593 C152 0.998 . S
C612 C96 1.002 . S
C629 C68 0.992 . S
C648 C116 0.978 . S
C665 C194 0.990 . S
C684 C130 0.968 . S
C701 C166 0.990 . S
C720 C222 1.001 . S
C737 C158 0.887 . S
C756 C221 0.867 . S
C773 C138 0.941 . S
C792 C193 0.908 . S
C809 C159 1.227 . S
C828 C11 1.408 . S
C845 C117 1.334 . S
C864 C19 1.332 1_565 S
C881 C33 1.214 . S
C900 C137 1.397 . S
C917 C151 1.463 . S
C936 C53 1.467 . S
C953 C165 1.463 . S
C972 C39 1.462 . S
C989 C47 1.212 . S
C1008 C123 1.387 . S
C1025 C131 1.342 . S
C1044 C5 1.389 . S
C1061 C145 1.220 . S
C1080 C25 1.371 . S
C1097 C61 1.332 . S
C1116 C215 1.330 . S
C1133 C172 1.388 . S
C1152 C74 1.368 . S
C1169 C89 1.316 . S
C1188 C187 1.301 . S
C1205 C102 1.414 . S
C1224 C200 1.416 . S
C1241 C88 1.402 . S
C1260 C214 1.389 . S
C1277 C173 1.312 . S
C1296 C103 1.293 . S
C1313 C186 1.387 . S
C1332 C60 1.380 . S
C1349 C201 1.319 . S
C1368 C75 1.281 . S
