# Generated by pormake.
# Topology dia, (4)-cn, num edge types: 1
# Building blocks:
#     Node 0, Type 0, BuildingBlock: QUQFOY_clean_sbu_1, # of connection points: 4
#     Node 1, Type 0, BuildingBlock: QUQFOY_clean_sbu_1, # of connection points: 4
#     Node 2, Type 0, BuildingBlock: QUQFOY_clean_sbu_1, # of connection points: 4
#     Node 3, Type 0, BuildingBlock: QUQFOY_clean_sbu_1, # of connection points: 4
#     Node 4, Type 0, BuildingBlock: QUQFOY_clean_sbu_1, # of connection points: 4
#     Node 5, Type 0, BuildingBlock: QUQFOY_clean_sbu_1, # of connection points: 4
#     Node 6, Type 0, BuildingBlock: QUQFOY_clean_sbu_1, # of connection points: 4
#     Node 7, Type 0, BuildingBlock: QUQFOY_clean_sbu_1, # of connection points: 4
#     Edge 8, Type (0, 0), BuildingBlock: CIFDUS_clean_linker_0, # of connection points: 2
#     Edge 9, Type (0, 0), BuildingBlock: CIFDUS_clean_linker_0, # of connection points: 2
#     Edge 10, Type (0, 0), BuildingBlock: CIFDUS_clean_linker_0, # of connection points: 2
#     Edge 11, Type (0, 0), BuildingBlock: CIFDUS_clean_linker_0, # of connection points: 2
#     Edge 12, Type (0, 0), BuildingBlock: CIFDUS_clean_linker_0, # of connection points: 2
#     Edge 13, Type (0, 0), BuildingBlock: CIFDUS_clean_linker_0, # of connection points: 2
#     Edge 14, Type (0, 0), BuildingBlock: CIFDUS_clean_linker_0, # of connection points: 2
#     Edge 15, Type (0, 0), BuildingBlock: CIFDUS_clean_linker_0, # of connection points: 2
#     Edge 16, Type (0, 0), BuildingBlock: CIFDUS_clean_linker_0, # of connection points: 2
#     Edge 17, Type (0, 0), BuildingBlock: CIFDUS_clean_linker_0, # of connection points: 2
#     Edge 18, Type (0, 0), BuildingBlock: CIFDUS_clean_linker_0, # of connection points: 2
#     Edge 19, Type (0, 0), BuildingBlock: CIFDUS_clean_linker_0, # of connection points: 2
#     Edge 20, Type (0, 0), BuildingBlock: CIFDUS_clean_linker_0, # of connection points: 2
#     Edge 21, Type (0, 0), BuildingBlock: CIFDUS_clean_linker_0, # of connection points: 2
#     Edge 22, Type (0, 0), BuildingBlock: CIFDUS_clean_linker_0, # of connection points: 2
#     Edge 23, Type (0, 0), BuildingBlock: CIFDUS_clean_linker_0, # of connection points: 2
# Relax obj value: 0.199
# Max RMSD: 0.230
# Mean RMSD: 0.230
data_MOF--net-dia--node1-QUQFOY_clean_sbu_1--edge1-CIFDUS_clean_linker_0
_symmetry_space_group_name_H-M    P1
_symmetry_Int_Tables_number       1
_symmetry_cell_setting            triclinic
loop_
_symmetry_equiv_pos_as_xyz
'x, y, z'
_cell_length_a     31.458416
_cell_length_b     30.738461
_cell_length_c     34.650867
_cell_angle_alpha  89.948772
_cell_angle_beta   90.103611
_cell_angle_gamma 103.25631
loop_
_atom_site_label
_atom_site_type_symbol
_atom_site_fract_x
_atom_site_fract_y
_atom_site_fract_z
_atom_type_partial_charge
O0 O 0.12448 0.17445 0.60923 0.0
Cd1 Cd 0.07715 0.13163 0.6402 0.0
Cd2 Cd 0.13777 0.08014 0.63978 0.0
O3 O 0.17266 0.13236 0.60711 0.0
O4 O 0.03507 0.16878 0.65392 0.0
O5 O 0.07092 0.13872 0.69757 0.0
C6 C 0.04366 0.1632 0.6897 0.0
C7 C 0.17134 0.04985 0.69009 0.0
C8 C 0.16062 0.16765 0.59753 0.0
C9 C 0.05308 0.04322 0.59934 0.0
O10 O 0.08967 0.03664 0.61017 0.0
O11 O 0.04141 0.07867 0.60889 0.0
O12 O 0.17984 0.0433 0.65449 0.0
O13 O 0.14432 0.07478 0.69728 0.0
O14 O 0.79171 0.33302 0.91109 0.0
Cd15 Cd 0.82645 0.38484 0.87819 0.0
Cd16 Cd 0.88653 0.33257 0.87819 0.0
O17 O 0.8386 0.28959 0.90835 0.0
O18 O 0.78336 0.42096 0.86453 0.0
O19 O 0.81729 0.38903 0.82086 0.0
C20 C 0.78977 0.41316 0.82875 0.0
C21 C 0.92039 0.30136 0.82873 0.0
C22 C 0.80283 0.29714 0.92024 0.0
C23 C 0.91089 0.42086 0.91946 0.0
O24 O 0.92193 0.38491 0.9104 0.0
O25 O 0.87502 0.42839 0.90757 0.0
O26 O 0.92853 0.29532 0.86453 0.0
O27 O 0.89343 0.32616 0.82083 0.0
O28 O 0.62455 0.17801 0.10563 0.0
Cd29 Cd 0.57735 0.13481 0.1364 0.0
Cd30 Cd 0.63911 0.0817 0.13458 0.0
O31 O 0.67189 0.13506 0.10227 0.0
O32 O 0.53481 0.17133 0.15012 0.0
O33 O 0.57047 0.141 0.19375 0.0
C34 C 0.5428 0.16502 0.1859 0.0
C35 C 0.68032 0.0474 0.17619 0.0
C36 C 0.66031 0.17077 0.0934 0.0
C37 C 0.5524 0.04613 0.09606 0.0
O38 O 0.5889 0.0391 0.1066 0.0
O39 O 0.54146 0.08206 0.10522 0.0
O40 O 0.68299 0.04434 0.1393 0.0
O41 O 0.65448 0.07075 0.1898 0.0
O42 O 0.78599 0.83389 0.41054 0.0
Cd43 Cd 0.82641 0.8852 0.38111 0.0
Cd44 Cd 0.8834 0.82427 0.38945 0.0
O45 O 0.83026 0.78826 0.41893 0.0
O46 O 0.78701 0.92731 0.37581 0.0
O47 O 0.8152 0.90026 0.3256 0.0
C48 C 0.79092 0.92535 0.339 0.0
C49 C 0.91965 0.78529 0.3473 0.0
C50 C 0.79379 0.79833 0.42458 0.0
C51 C 0.91049 0.91469 0.42676 0.0
O52 O 0.91987 0.87742 0.41974 0.0
O53 O 0.87607 0.92382 0.41307 0.0
O54 O 0.92286 0.78211 0.3842 0.0
O55 O 0.89573 0.81095 0.33405 0.0
O56 O 0.11997 0.67479 0.11026 0.0
Cd57 Cd 0.07009 0.63245 0.13899 0.0
Cd58 Cd 0.13159 0.57909 0.14094 0.0
O59 O 0.1672 0.63154 0.10896 0.0
O60 O 0.0264 0.67001 0.14496 0.0
O61 O 0.0558 0.64297 0.1947 0.0
C62 C 0.02977 0.66658 0.18179 0.0
C63 C 0.16573 0.54892 0.19127 0.0
C64 C 0.15616 0.66734 0.09933 0.0
C65 C 0.04859 0.54365 0.09727 0.0
O66 O 0.08414 0.5361 0.10993 0.0
O67 O 0.03704 0.57936 0.10623 0.0
O68 O 0.17395 0.54234 0.15561 0.0
O69 O 0.13823 0.57326 0.19854 0.0
O70 O 0.28698 0.33115 0.41378 0.0
Cd71 Cd 0.32448 0.38362 0.38339 0.0
Cd72 Cd 0.37928 0.32646 0.37545 0.0
O73 O 0.33086 0.28503 0.4067 0.0
O74 O 0.28572 0.42443 0.36943 0.0
O75 O 0.31866 0.39088 0.32607 0.0
C76 C 0.29324 0.41739 0.33366 0.0
C77 C 0.41116 0.2938 0.32548 0.0
C78 C 0.29647 0.29385 0.42065 0.0
C79 C 0.41184 0.41045 0.42158 0.0
O80 O 0.4201 0.37525 0.40729 0.0
O81 O 0.37569 0.42076 0.41466 0.0
O82 O 0.41816 0.28618 0.36117 0.0
O83 O 0.38572 0.32026 0.31788 0.0
O84 O 0.28702 0.82738 0.91508 0.0
Cd85 Cd 0.32298 0.87986 0.88339 0.0
Cd86 Cd 0.38452 0.82689 0.8857 0.0
O87 O 0.33453 0.78443 0.91421 0.0
O88 O 0.28122 0.91696 0.86845 0.0
O89 O 0.31756 0.88625 0.82583 0.0
C90 C 0.29038 0.91102 0.8329 0.0
C91 C 0.42597 0.79358 0.84353 0.0
C92 C 0.29815 0.79167 0.92484 0.0
C93 C 0.40582 0.91597 0.92665 0.0
O94 O 0.41747 0.88027 0.91793 0.0
O95 O 0.37001 0.92308 0.91431 0.0
O96 O 0.42848 0.78965 0.88038 0.0
O97 O 0.39986 0.81691 0.83026 0.0
O98 O 0.62738 0.67027 0.60449 0.0
Cd99 Cd 0.57431 0.63805 0.63648 0.0
Cd100 Cd 0.6235 0.57246 0.63914 0.0
O101 O 0.66719 0.61985 0.60877 0.0
O102 O 0.53939 0.68432 0.64193 0.0
O103 O 0.56431 0.65328 0.69197 0.0
C104 C 0.54236 0.68081 0.67879 0.0
C105 C 0.65246 0.53658 0.68896 0.0
C106 C 0.66167 0.65697 0.59621 0.0
C107 C 0.53741 0.5502 0.59726 0.0
O108 O 0.57159 0.53746 0.60708 0.0
O109 O 0.53167 0.58797 0.60782 0.0
O110 O 0.65799 0.5278 0.65324 0.0
O111 O 0.62944 0.56534 0.69661 0.0
H112 H 0.23798 0.31215 0.47205 0.0
H113 H 0.29923 0.20716 0.43497 0.0
H114 H 0.26491 0.16 0.48824 0.0
H115 H 0.21862 0.1491 0.54591 0.0
H116 H 0.15704 0.25389 0.58272 0.0
H117 H 0.19129 0.30106 0.52937 0.0
C118 C 0.24335 0.27871 0.47524 0.0
C119 C 0.27097 0.26314 0.44943 0.0
C120 C 0.22422 0.25211 0.50634 0.0
C121 C 0.27799 0.21992 0.45435 0.0
C122 C 0.25863 0.19304 0.48496 0.0
C123 C 0.21321 0.18252 0.54261 0.0
C124 C 0.18566 0.19814 0.56842 0.0
C125 C 0.23217 0.20903 0.5114 0.0
C126 C 0.17832 0.24119 0.56333 0.0
C127 C 0.19764 0.26805 0.5327 0.0
H128 H 0.70665 0.48 0.68036 0.0
H129 H 0.64523 0.54552 0.7671 0.0
H130 H 0.6818 0.51247 0.81788 0.0
H131 H 0.7323 0.46632 0.83753 0.0
H132 H 0.79449 0.40167 0.75072 0.0
H133 H 0.75645 0.43314 0.70003 0.0
C134 C 0.70106 0.48695 0.71038 0.0
C135 C 0.6732 0.51524 0.71989 0.0
C136 C 0.72244 0.46812 0.73939 0.0
C137 C 0.66648 0.5239 0.75894 0.0
C138 C 0.68743 0.50505 0.788 0.0
C139 C 0.73752 0.459 0.80753 0.0
C140 C 0.76631 0.4317 0.79796 0.0
C141 C 0.71567 0.47734 0.77854 0.0
C142 C 0.77261 0.42262 0.75892 0.0
C143 C 0.75084 0.44059 0.72991 0.0
H144 H 0.48863 0.06223 0.04916 0.0
H145 H 0.55662 0.96026 0.08064 0.0
H146 H 0.51877 0.91194 0.02946 0.0
H147 H 0.46796 0.89946 0.97499 0.0
H148 H 0.39986 0.00125 0.94328 0.0
H149 H 0.43698 0.04931 0.99504 0.0
C150 C 0.4947 0.02917 0.04521 0.0
C151 C 0.52526 0.01478 0.06874 0.0
C152 C 0.47352 0.00194 0.01527 0.0
C153 C 0.53317 0.97209 0.06293 0.0
C154 C 0.51177 0.94456 0.03354 0.0
C155 C 0.46159 0.93237 0.97906 0.0
C156 C 0.43146 0.9469 0.95514 0.0
C157 C 0.48238 0.95942 1.00922 0.0
C158 C 0.42308 -0.01063 0.96121 0.0
C159 C 0.44408 0.01675 0.99092 0.0
H160 H 0.9164 0.78104 0.26867 0.0
H161 H 0.97503 0.73267 0.36777 0.0
H162 H 0.01361 0.69115 0.32569 0.0
H163 H 0.03149 0.66896 0.26059 0.0
H164 H 0.97266 0.71729 0.16156 0.0
H165 H 0.93349 0.75807 0.20369 0.0
C166 C 0.93762 0.76143 0.28106 0.0
C167 C 0.94281 0.76012 0.32133 0.0
C168 C 0.95974 0.73746 0.25668 0.0
C169 C 0.97037 0.73437 0.33687 0.0
C170 C -0.00749 0.71055 0.31282 0.0
C171 C 0.01 0.68829 0.24824 0.0
C172 C 0.00514 0.69001 0.20795 0.0
C173 C -0.01248 0.71188 0.27267 0.0
C174 C 0.97712 0.71531 0.19246 0.0
C175 C 0.95467 0.73875 0.21654 0.0
H176 H 0.23653 0.96814 0.84026 0.0
H177 H 0.30115 0.90387 0.755 0.0
H178 H 0.27058 0.9418 0.70348 0.0
H179 H 0.22561 -0.00687 0.6827 0.0
H180 H 0.16102 0.0574 0.768 0.0
H181 H 0.19175 0.01964 0.81951 0.0
C182 C 0.24388 0.96228 0.81041 0.0
C183 C 0.27105 0.93308 0.80153 0.0
C184 C 0.22636 -0.01566 0.78096 0.0
C185 C 0.2803 0.92608 0.76267 0.0
C186 C 0.26288 0.94782 0.73319 0.0
C187 C 0.21833 -0.00096 0.71256 0.0
C188 C 0.19106 0.02815 0.72145 0.0
C189 C 0.23594 0.97707 0.74201 0.0
C190 C 0.18193 0.03526 0.76031 0.0
C191 C 0.19944 0.0136 0.78979 0.0
H192 H 0.9715 0.40244 0.96883 0.0
H193 H 0.90641 0.50639 0.93651 0.0
H194 H 0.94125 0.55234 0.99035 0.0
H195 H -0.01113 0.56231 0.04718 0.0
H196 H 0.05402 0.45845 0.0796 0.0
H197 H 0.01957 0.41265 0.02549 0.0
C198 C 0.96542 0.43543 0.97318 0.0
C199 C 0.93659 0.45107 0.94853 0.0
C200 C -0.0152 0.46125 1.00465 0.0
C201 C 0.9286 0.49363 0.95496 0.0
C202 C 0.94826 0.51979 0.98589 0.0
C203 C -0.0049 0.5294 0.04278 0.0
C204 C 0.0237 0.51368 0.06761 0.0
C205 C 0.97593 0.50367 0.0112 0.0
C206 C 0.03194 0.47124 0.06105 0.0
C207 C 0.0125 0.44517 0.02997 0.0
H208 H 0.46674 0.23877 0.33421 0.0
H209 H 0.4024 0.30154 0.24732 0.0
H210 H 0.43721 0.26677 0.19658 0.0
H211 H 0.48611 0.21898 0.17702 0.0
H212 H 0.55078 0.15669 0.26401 0.0
H213 H 0.51545 0.19092 0.31469 0.0
C214 C 0.46025 0.24487 0.30417 0.0
C215 C 0.43198 0.27275 0.29458 0.0
C216 C 0.4804 0.22487 0.27521 0.0
C217 C 0.42401 0.28026 0.25551 0.0
C218 C 0.4439 0.26038 0.22649 0.0
C219 C 0.49247 0.21279 0.20706 0.0
C220 C 0.52107 0.18526 0.21669 0.0
C221 C 0.47218 0.23268 0.23602 0.0
C222 C 0.52894 0.17771 0.25577 0.0
C223 C 0.50876 0.19729 0.28477 0.0
H224 H 0.80836 0.73609 0.47544 0.0
H225 H 0.70902 0.80241 0.4364 0.0
H226 H 0.66038 0.76641 0.48768 0.0
H227 H 0.64674 0.71767 0.54435 0.0
H228 H 0.74567 0.65081 0.58322 0.0
H229 H 0.79424 0.68632 0.53156 0.0
C230 C 0.77585 0.74221 0.47777 0.0
C231 C 0.76233 0.77183 0.45205 0.0
C232 C 0.74834 0.72205 0.50771 0.0
C233 C 0.72024 0.77971 0.45577 0.0
C234 C 0.69249 0.75938 0.48523 0.0
C235 C 0.67915 0.71131 0.54186 0.0
C236 C 0.69276 0.68201 0.56779 0.0
C237 C 0.70647 0.73103 0.51167 0.0
C238 C 0.73454 0.67346 0.56372 0.0
C239 C 0.7622 0.69351 0.53408 0.0
H240 H 0.22212 0.49433 0.18372 0.0
H241 H 0.1567 0.55729 0.2693 0.0
H242 H 0.19057 0.5224 0.32074 0.0
H243 H 0.23821 0.4735 0.34141 0.0
H244 H 0.30321 0.41023 0.25571 0.0
H245 H 0.26998 0.4458 0.20434 0.0
C246 C 0.21529 0.50055 0.21362 0.0
C247 C 0.18686 0.52845 0.22258 0.0
C248 C 0.23475 0.48025 0.24305 0.0
C249 C 0.17841 0.53601 0.26152 0.0
C250 C 0.19777 0.51603 0.29098 0.0
C251 C 0.24517 0.46747 0.3115 0.0
C252 C 0.27319 0.43915 0.30248 0.0
C253 C 0.22589 0.488 0.28208 0.0
C254 C 0.28178 0.4318 0.26353 0.0
C255 C 0.26279 0.45215 0.23411 0.0
H256 H 0.74067 0.31447 0.96815 0.0
H257 H 0.80817 0.21195 0.93752 0.0
H258 H 0.77189 0.16499 0.99013 0.0
H259 H 0.7221 0.15361 0.0452 0.0
H260 H 0.65433 0.25588 0.07589 0.0
H261 H 0.6905 0.3029 0.02318 0.0
C262 C 0.74702 0.28161 0.97263 0.0
C263 C 0.77691 0.26663 0.94884 0.0
C264 C 0.7267 0.25515 1.00333 0.0
C265 C 0.7852 0.2242 0.95537 0.0
C266 C 0.76469 0.19745 0.98558 0.0
C267 C 0.71562 0.18642 0.04072 0.0
C268 C 0.68579 0.20135 0.0646 0.0
C269 C 0.73581 0.21283 1.00998 0.0
C270 C 0.67731 0.24369 0.05801 0.0
C271 C 0.69775 0.27046 0.02774 0.0
H272 H 0.79455 0.93163 0.26047 0.0
H273 H 0.73567 0.97736 0.36046 0.0
H274 H 0.69711 0.01986 0.31925 0.0
H275 H 0.67911 0.04345 0.25474 0.0
H276 H 0.73782 -0.00225 0.15466 0.0
H277 H 0.77738 0.9562 0.19592 0.0
C278 C 0.7733 0.9509 0.27322 0.0
C279 C 0.768 0.95117 0.31347 0.0
C280 C 0.75114 0.97542 0.24933 0.0
C281 C 0.74039 0.97647 0.32954 0.0
C282 C 0.71827 0.00086 0.306 0.0
C283 C 0.70068 0.02455 0.24197 0.0
C284 C 0.70539 0.02373 0.20169 0.0
C285 C 0.72329 0.00051 0.26586 0.0
C286 C 0.73349 -0.00101 0.18561 0.0
C287 C 0.75615 0.97512 0.20917 0.0
H288 H 0.9707 0.89686 0.47692 0.0
H289 H 0.90765 0.00124 0.44132 0.0
H290 H 0.94389 0.04898 0.49351 0.0
H291 H -0.00734 0.06074 0.54958 0.0
H292 H 0.05638 0.95683 0.58483 0.0
H293 H 0.01982 0.9088 0.53281 0.0
C294 C 0.96531 0.93027 0.48022 0.0
C295 C 0.93665 0.94551 0.45514 0.0
C296 C -0.01434 0.95727 0.51065 0.0
C297 C 0.92965 -0.01129 0.46016 0.0
C298 C 0.95013 0.01594 0.49014 0.0
C299 C -0.00194 0.02734 0.54626 0.0
C300 C 0.02688 0.01221 0.5712 0.0
C301 C 0.97778 0.00036 0.5158 0.0
C302 C 0.03415 0.96914 0.56608 0.0
C303 C 0.0135 0.94179 0.53622 0.0
H304 H 0.97511 0.24532 0.83774 0.0
H305 H 0.91088 0.30778 0.75057 0.0
H306 H 0.94296 0.27007 0.70005 0.0
H307 H -0.011 0.21929 0.68069 0.0
H308 H 0.05327 0.15687 0.76785 0.0
H309 H 0.02119 0.19458 0.81838 0.0
C310 C 0.96818 0.25083 0.80769 0.0
C311 C 0.94065 0.27944 0.79798 0.0
C312 C -0.0134 0.22892 0.77881 0.0
C313 C 0.93198 0.28603 0.75888 0.0
C314 C 0.95027 0.26441 0.72997 0.0
C315 C -0.00405 0.2138 0.71074 0.0
C316 C 0.02349 0.1852 0.72045 0.0
C317 C 0.97754 0.23572 0.73961 0.0
C318 C 0.03218 0.17863 0.75955 0.0
C319 C 0.01388 0.20024 0.78846 0.0
H320 H 0.54187 0.68129 0.7575 0.0
H321 H 0.49232 0.73864 0.65809 0.0
H322 H 0.45264 0.77914 0.7 0.0
H323 H 0.43025 0.79695 0.76492 0.0
H324 H 0.47998 0.73976 0.86433 0.0
H325 H 0.52119 0.70081 0.82247 0.0
C326 C 0.52254 0.70278 0.74502 0.0
C327 C 0.52003 0.70674 0.70471 0.0
C328 C 0.49963 0.72602 0.76931 0.0
C329 C 0.49486 0.73486 0.68903 0.0
C330 C 0.47204 0.75806 0.71298 0.0
C331 C 0.45018 0.77606 0.77742 0.0
C332 C 0.45182 0.77121 0.8177 0.0
C333 C 0.47391 0.75366 0.75316 0.0
C334 C 0.47799 0.74409 0.83341 0.0
C335 C 0.50161 0.72172 0.80949 0.0
H336 H 0.21666 0.64865 0.05027 0.0
H337 H 0.15288 0.75336 0.0829 0.0
H338 H 0.18882 0.79982 0.02981 0.0
H339 H 0.2375 0.81026 0.97374 0.0
H340 H 0.30135 0.7056 0.94115 0.0
H341 H 0.26531 0.65908 0.99418 0.0
C342 C 0.21112 0.68191 0.04616 0.0
C343 C 0.18239 0.69765 0.07069 0.0
C344 C 0.23113 0.70803 0.01511 0.0
C345 C 0.17502 0.74053 0.06453 0.0
C346 C 0.1953 0.76699 0.03402 0.0
C347 C 0.24302 0.777 0.97785 0.0
C348 C 0.2718 0.76128 0.95336 0.0
C349 C 0.22299 0.75085 1.00887 0.0
C350 C 0.27917 0.71839 0.9595 0.0
C351 C 0.25883 0.69191 0.98997 0.0
H352 H 0.3947 0.47056 0.47312 0.0
H353 H 0.49613 0.40619 0.4362 0.0
H354 H 0.54264 0.44112 0.48936 0.0
H355 H 0.55421 0.4893 0.54655 0.0
H356 H 0.45312 0.55426 0.58305 0.0
H357 H 0.40628 0.51877 0.53022 0.0
C358 C 0.4272 0.46461 0.47635 0.0
C359 C 0.44199 0.43601 0.45058 0.0
C360 C 0.45345 0.48414 0.50733 0.0
C361 C 0.48399 0.42822 0.45554 0.0
C362 C 0.5105 0.44792 0.48608 0.0
C363 C 0.52165 0.49512 0.54333 0.0
C364 C 0.50699 0.52405 0.56884 0.0
C365 C 0.49537 0.47553 0.51238 0.0
C366 C 0.46505 0.53193 0.56386 0.0
C367 C 0.43839 0.51191 0.53353 0.0
loop_
_geom_bond_atom_site_label_1
_geom_bond_atom_site_label_2
_geom_bond_distance
_geom_bond_site_symmetry_2
_ccdc_geom_bond_type
O0 Cd1 2.223 . S
O0 C8 1.315 . S
Cd1 O0 2.223 . S
Cd1 O4 2.297 . S
Cd1 O5 2.439 . S
Cd1 O11 2.240 . S
Cd2 O3 2.240 . S
Cd2 O10 2.223 . S
Cd2 O12 2.297 . S
Cd2 O13 2.439 . S
O3 Cd2 2.240 . S
O3 C8 1.279 . S
O4 Cd1 2.297 . S
O4 C6 1.247 . S
O5 Cd1 2.439 . S
O5 C6 1.208 . S
C6 O4 1.247 . S
C6 O5 1.208 . S
C7 O12 1.247 . S
C7 O13 1.208 . S
C8 O0 1.315 . S
C8 O3 1.279 . S
C9 O10 1.315 . S
C9 O11 1.279 . S
O10 Cd2 2.223 . S
O10 C9 1.315 . S
O11 Cd1 2.240 . S
O11 C9 1.279 . S
O12 Cd2 2.297 . S
O12 C7 1.247 . S
O13 Cd2 2.439 . S
O13 C7 1.208 . S
O14 Cd15 2.223 . S
O14 C22 1.315 . S
Cd15 O14 2.223 . S
Cd15 O18 2.297 . S
Cd15 O19 2.439 . S
Cd15 O25 2.240 . S
Cd16 O17 2.240 . S
Cd16 O24 2.223 . S
Cd16 O26 2.297 . S
Cd16 O27 2.439 . S
O17 Cd16 2.240 . S
O17 C22 1.279 . S
O18 Cd15 2.297 . S
O18 C20 1.247 . S
O19 Cd15 2.439 . S
O19 C20 1.208 . S
C20 O18 1.247 . S
C20 O19 1.208 . S
C21 O26 1.247 . S
C21 O27 1.208 . S
C22 O14 1.315 . S
C22 O17 1.279 . S
C23 O24 1.315 . S
C23 O25 1.279 . S
O24 Cd16 2.223 . S
O24 C23 1.315 . S
O25 Cd15 2.240 . S
O25 C23 1.279 . S
O26 Cd16 2.297 . S
O26 C21 1.247 . S
O27 Cd16 2.439 . S
O27 C21 1.208 . S
O28 Cd29 2.223 . S
O28 C36 1.315 . S
Cd29 O28 2.223 . S
Cd29 O32 2.297 . S
Cd29 O33 2.439 . S
Cd29 O39 2.240 . S
Cd30 O31 2.240 . S
Cd30 O38 2.223 . S
Cd30 O40 2.297 . S
Cd30 O41 2.439 . S
O31 Cd30 2.240 . S
O31 C36 1.279 . S
O32 Cd29 2.297 . S
O32 C34 1.247 . S
O33 Cd29 2.439 . S
O33 C34 1.208 . S
C34 O32 1.247 . S
C34 O33 1.208 . S
C35 O40 1.247 . S
C35 O41 1.208 . S
C36 O28 1.315 . S
C36 O31 1.279 . S
C37 O38 1.315 . S
C37 O39 1.279 . S
O38 Cd30 2.223 . S
O38 C37 1.315 . S
O39 Cd29 2.240 . S
O39 C37 1.279 . S
O40 Cd30 2.297 . S
O40 C35 1.247 . S
O41 Cd30 2.439 . S
O41 C35 1.208 . S
O42 Cd43 2.223 . S
O42 C50 1.315 . S
Cd43 O42 2.223 . S
Cd43 O46 2.297 . S
Cd43 O47 2.439 . S
Cd43 O53 2.240 . S
Cd44 O45 2.240 . S
Cd44 O52 2.223 . S
Cd44 O54 2.297 . S
Cd44 O55 2.439 . S
O45 Cd44 2.240 . S
O45 C50 1.279 . S
O46 Cd43 2.297 . S
O46 C48 1.247 . S
O47 Cd43 2.439 . S
O47 C48 1.208 . S
C48 O46 1.247 . S
C48 O47 1.208 . S
C49 O54 1.247 . S
C49 O55 1.208 . S
C50 O42 1.315 . S
C50 O45 1.279 . S
C51 O52 1.315 . S
C51 O53 1.279 . S
O52 Cd44 2.223 . S
O52 C51 1.315 . S
O53 Cd43 2.240 . S
O53 C51 1.279 . S
O54 Cd44 2.297 . S
O54 C49 1.247 . S
O55 Cd44 2.439 . S
O55 C49 1.208 . S
O56 Cd57 2.223 . S
O56 C64 1.315 . S
Cd57 O56 2.223 . S
Cd57 O60 2.297 . S
Cd57 O61 2.439 . S
Cd57 O67 2.240 . S
Cd58 O59 2.240 . S
Cd58 O66 2.223 . S
Cd58 O68 2.297 . S
Cd58 O69 2.439 . S
O59 Cd58 2.240 . S
O59 C64 1.279 . S
O60 Cd57 2.297 . S
O60 C62 1.247 . S
O61 Cd57 2.439 . S
O61 C62 1.208 . S
C62 O60 1.247 . S
C62 O61 1.208 . S
C63 O68 1.247 . S
C63 O69 1.208 . S
C64 O56 1.315 . S
C64 O59 1.279 . S
C65 O66 1.315 . S
C65 O67 1.279 . S
O66 Cd58 2.223 . S
O66 C65 1.315 . S
O67 Cd57 2.240 . S
O67 C65 1.279 . S
O68 Cd58 2.297 . S
O68 C63 1.247 . S
O69 Cd58 2.439 . S
O69 C63 1.208 . S
O70 Cd71 2.223 . S
O70 C78 1.315 . S
Cd71 O70 2.223 . S
Cd71 O74 2.297 . S
Cd71 O75 2.439 . S
Cd71 O81 2.240 . S
Cd72 O73 2.240 . S
Cd72 O80 2.223 . S
Cd72 O82 2.297 . S
Cd72 O83 2.439 . S
O73 Cd72 2.240 . S
O73 C78 1.279 . S
O74 Cd71 2.297 . S
O74 C76 1.247 . S
O75 Cd71 2.439 . S
O75 C76 1.208 . S
C76 O74 1.247 . S
C76 O75 1.208 . S
C77 O82 1.247 . S
C77 O83 1.208 . S
C78 O70 1.315 . S
C78 O73 1.279 . S
C79 O80 1.315 . S
C79 O81 1.279 . S
O80 Cd72 2.223 . S
O80 C79 1.315 . S
O81 Cd71 2.240 . S
O81 C79 1.279 . S
O82 Cd72 2.297 . S
O82 C77 1.247 . S
O83 Cd72 2.439 . S
O83 C77 1.208 . S
O84 Cd85 2.223 . S
O84 C92 1.315 . S
Cd85 O84 2.223 . S
Cd85 O88 2.297 . S
Cd85 O89 2.439 . S
Cd85 O95 2.240 . S
Cd86 O87 2.240 . S
Cd86 O94 2.223 . S
Cd86 O96 2.297 . S
Cd86 O97 2.439 . S
O87 Cd86 2.240 . S
O87 C92 1.279 . S
O88 Cd85 2.297 . S
O88 C90 1.247 . S
O89 Cd85 2.439 . S
O89 C90 1.208 . S
C90 O88 1.247 . S
C90 O89 1.208 . S
C91 O96 1.247 . S
C91 O97 1.208 . S
C92 O84 1.315 . S
C92 O87 1.279 . S
C93 O94 1.315 . S
C93 O95 1.279 . S
O94 Cd86 2.223 . S
O94 C93 1.315 . S
O95 Cd85 2.240 . S
O95 C93 1.279 . S
O96 Cd86 2.297 . S
O96 C91 1.247 . S
O97 Cd86 2.439 . S
O97 C91 1.208 . S
O98 Cd99 2.223 . S
O98 C106 1.315 . S
Cd99 O98 2.223 . S
Cd99 O102 2.297 . S
Cd99 O103 2.439 . S
Cd99 O109 2.240 . S
Cd100 O101 2.240 . S
Cd100 O108 2.223 . S
Cd100 O110 2.297 . S
Cd100 O111 2.439 . S
O101 Cd100 2.240 . S
O101 C106 1.279 . S
O102 Cd99 2.297 . S
O102 C104 1.247 . S
O103 Cd99 2.439 . S
O103 C104 1.208 . S
C104 O102 1.247 . S
C104 O103 1.208 . S
C105 O110 1.247 . S
C105 O111 1.208 . S
C106 O98 1.315 . S
C106 O101 1.279 . S
C107 O108 1.315 . S
C107 O109 1.279 . S
O108 Cd100 2.223 . S
O108 C107 1.315 . S
O109 Cd99 2.240 . S
O109 C107 1.279 . S
O110 Cd100 2.297 . S
O110 C105 1.247 . S
O111 Cd100 2.439 . S
O111 C105 1.208 . S
H112 C118 0.930 . S
H113 C121 0.930 . S
H114 C122 0.930 . S
H115 C123 0.930 . S
H116 C126 0.930 . S
H117 C127 0.930 . S
C118 H112 0.930 . S
C118 C119 1.355 . S
C118 C120 1.415 . S
C119 C118 1.355 . S
C119 C121 1.419 . S
C120 C118 1.415 . S
C120 C125 1.425 . S
C120 C127 1.409 . S
C121 H113 0.930 . S
C121 C119 1.419 . S
C121 C122 1.362 . S
C122 H114 0.930 . S
C122 C121 1.362 . S
C122 C125 1.409 . S
C123 H115 0.930 . S
C123 C124 1.355 . S
C123 C125 1.415 . S
C124 C123 1.355 . S
C124 C126 1.419 . S
C125 C120 1.425 . S
C125 C122 1.409 . S
C125 C123 1.415 . S
C126 H116 0.930 . S
C126 C124 1.419 . S
C126 C127 1.362 . S
C127 H117 0.930 . S
C127 C120 1.409 . S
C127 C126 1.362 . S
H128 C134 0.930 . S
H129 C137 0.930 . S
H130 C138 0.930 . S
H131 C139 0.930 . S
H132 C142 0.930 . S
H133 C143 0.930 . S
C134 H128 0.930 . S
C134 C135 1.355 . S
C134 C136 1.415 . S
C135 C134 1.355 . S
C135 C137 1.419 . S
C136 C134 1.415 . S
C136 C141 1.425 . S
C136 C143 1.409 . S
C137 H129 0.930 . S
C137 C135 1.419 . S
C137 C138 1.362 . S
C138 H130 0.930 . S
C138 C137 1.362 . S
C138 C141 1.409 . S
C139 H131 0.930 . S
C139 C140 1.355 . S
C139 C141 1.415 . S
C140 C139 1.355 . S
C140 C142 1.419 . S
C141 C136 1.425 . S
C141 C138 1.409 . S
C141 C139 1.415 . S
C142 H132 0.930 . S
C142 C140 1.419 . S
C142 C143 1.362 . S
C143 H133 0.930 . S
C143 C136 1.409 . S
C143 C142 1.362 . S
H144 C150 0.930 . S
H145 C153 0.930 . S
H146 C154 0.930 1_556 S
H147 C155 0.930 . S
H148 C158 0.930 . S
H149 C159 0.930 1_544 S
C150 H144 0.930 . S
C150 C151 1.355 . S
C150 C152 1.415 1_545 S
C151 C150 1.355 . S
C151 C153 1.419 . S
C152 C150 1.415 1_565 S
C152 C157 1.425 1_554 S
C152 C159 1.409 1_554 S
C153 H145 0.930 . S
C153 C151 1.419 . S
C153 C154 1.362 1_545 S
C154 H146 0.930 1_554 S
C154 C153 1.362 1_565 S
C154 C157 1.409 1_554 S
C155 H147 0.930 . S
C155 C156 1.355 . S
C155 C157 1.415 . S
C156 C155 1.355 . S
C156 C158 1.419 . S
C157 C152 1.425 1_556 S
C157 C154 1.409 1_556 S
C157 C155 1.415 . S
C158 H148 0.930 . S
C158 C156 1.419 . S
C158 C159 1.362 . S
C159 H149 0.930 1_566 S
C159 C152 1.409 1_556 S
C159 C158 1.362 . S
H160 C166 0.930 . S
H161 C169 0.930 . S
H162 C170 0.930 . S
H163 C171 0.930 . S
H164 C174 0.930 . S
H165 C175 0.930 . S
C166 H160 0.930 . S
C166 C167 1.355 1_455 S
C166 C168 1.415 . S
C167 C166 1.355 1_655 S
C167 C169 1.419 . S
C168 C166 1.415 . S
C168 C173 1.425 . S
C168 C175 1.409 . S
C169 H161 0.930 . S
C169 C167 1.419 . S
C169 C170 1.362 . S
C170 H162 0.930 . S
C170 C169 1.362 . S
C170 C173 1.409 1_655 S
C171 H163 0.930 . S
C171 C172 1.355 . S
C171 C173 1.415 . S
C172 C171 1.355 . S
C172 C174 1.419 . S
C173 C168 1.425 . S
C173 C170 1.409 1_455 S
C173 C171 1.415 . S
C174 H164 0.930 . S
C174 C172 1.419 . S
C174 C175 1.362 . S
C175 H165 0.930 . S
C175 C168 1.409 . S
C175 C174 1.362 . S
H176 C182 0.930 . S
H177 C185 0.930 . S
H178 C186 0.930 . S
H179 C187 0.930 . S
H180 C190 0.930 . S
H181 C191 0.930 . S
C182 H176 0.930 . S
C182 C183 1.355 . S
C182 C184 1.415 . S
C183 C182 1.355 . S
C183 C185 1.419 . S
C184 C182 1.415 . S
C184 C189 1.425 . S
C184 C191 1.409 . S
C185 H177 0.930 . S
C185 C183 1.419 . S
C185 C186 1.362 1_565 S
C186 H178 0.930 . S
C186 C185 1.362 1_545 S
C186 C189 1.409 1_545 S
C187 H179 0.930 . S
C187 C188 1.355 . S
C187 C189 1.415 1_545 S
C188 C187 1.355 . S
C188 C190 1.419 1_545 S
C189 C184 1.425 . S
C189 C186 1.409 1_565 S
C189 C187 1.415 1_565 S
C190 H180 0.930 . S
C190 C188 1.419 1_565 S
C190 C191 1.362 . S
C191 H181 0.930 . S
C191 C184 1.409 . S
C191 C190 1.362 . S
H192 C198 0.930 . S
H193 C201 0.930 . S
H194 C202 0.930 1_554 S
H195 C203 0.930 . S
H196 C206 0.930 . S
H197 C207 0.930 1_556 S
C198 H192 0.930 . S
C198 C199 1.355 1_455 S
C198 C200 1.415 . S
C199 C198 1.355 1_655 S
C199 C201 1.419 . S
C200 C198 1.415 . S
C200 C205 1.425 1_556 S
C200 C207 1.409 1_556 S
C201 H193 0.930 . S
C201 C199 1.419 . S
C201 C202 1.362 . S
C202 H194 0.930 1_556 S
C202 C201 1.362 . S
C202 C205 1.409 1_656 S
C203 H195 0.930 . S
C203 C204 1.355 . S
C203 C205 1.415 . S
C204 C203 1.355 . S
C204 C206 1.419 . S
C205 C200 1.425 1_554 S
C205 C202 1.409 1_454 S
C205 C203 1.415 . S
C206 H196 0.930 . S
C206 C204 1.419 . S
C206 C207 1.362 . S
C207 H197 0.930 1_554 S
C207 C200 1.409 1_554 S
C207 C206 1.362 . S
H208 C214 0.930 . S
H209 C217 0.930 . S
H210 C218 0.930 . S
H211 C219 0.930 . S
H212 C222 0.930 . S
H213 C223 0.930 . S
C214 H208 0.930 . S
C214 C215 1.355 . S
C214 C216 1.415 . S
C215 C214 1.355 . S
C215 C217 1.419 . S
C216 C214 1.415 . S
C216 C221 1.425 . S
C216 C223 1.409 . S
C217 H209 0.930 . S
C217 C215 1.419 . S
C217 C218 1.362 . S
C218 H210 0.930 . S
C218 C217 1.362 . S
C218 C221 1.409 . S
C219 H211 0.930 . S
C219 C220 1.355 . S
C219 C221 1.415 . S
C220 C219 1.355 . S
C220 C222 1.419 . S
C221 C216 1.425 . S
C221 C218 1.409 . S
C221 C219 1.415 . S
C222 H212 0.930 . S
C222 C220 1.419 . S
C222 C223 1.362 . S
C223 H213 0.930 . S
C223 C216 1.409 . S
C223 C222 1.362 . S
H224 C230 0.930 . S
H225 C233 0.930 . S
H226 C234 0.930 . S
H227 C235 0.930 . S
H228 C238 0.930 . S
H229 C239 0.930 . S
C230 H224 0.930 . S
C230 C231 1.355 . S
C230 C232 1.415 . S
C231 C230 1.355 . S
C231 C233 1.419 . S
C232 C230 1.415 . S
C232 C237 1.425 . S
C232 C239 1.409 . S
C233 H225 0.930 . S
C233 C231 1.419 . S
C233 C234 1.362 . S
C234 H226 0.930 . S
C234 C233 1.362 . S
C234 C237 1.409 . S
C235 H227 0.930 . S
C235 C236 1.355 . S
C235 C237 1.415 . S
C236 C235 1.355 . S
C236 C238 1.419 . S
C237 C232 1.425 . S
C237 C234 1.409 . S
C237 C235 1.415 . S
C238 H228 0.930 . S
C238 C236 1.419 . S
C238 C239 1.362 . S
C239 H229 0.930 . S
C239 C232 1.409 . S
C239 C238 1.362 . S
H240 C246 0.930 . S
H241 C249 0.930 . S
H242 C250 0.930 . S
H243 C251 0.930 . S
H244 C254 0.930 . S
H245 C255 0.930 . S
C246 H240 0.930 . S
C246 C247 1.355 . S
C246 C248 1.415 . S
C247 C246 1.355 . S
C247 C249 1.419 . S
C248 C246 1.415 . S
C248 C253 1.425 . S
C248 C255 1.409 . S
C249 H241 0.930 . S
C249 C247 1.419 . S
C249 C250 1.362 . S
C250 H242 0.930 . S
C250 C249 1.362 . S
C250 C253 1.409 . S
C251 H243 0.930 . S
C251 C252 1.355 . S
C251 C253 1.415 . S
C252 C251 1.355 . S
C252 C254 1.419 . S
C253 C248 1.425 . S
C253 C250 1.409 . S
C253 C251 1.415 . S
C254 H244 0.930 . S
C254 C252 1.419 . S
C254 C255 1.362 . S
C255 H245 0.930 . S
C255 C248 1.409 . S
C255 C254 1.362 . S
H256 C262 0.930 . S
H257 C265 0.930 . S
H258 C266 0.930 . S
H259 C267 0.930 . S
H260 C270 0.930 . S
H261 C271 0.930 . S
C262 H256 0.930 . S
C262 C263 1.355 . S
C262 C264 1.415 . S
C263 C262 1.355 . S
C263 C265 1.419 . S
C264 C262 1.415 . S
C264 C269 1.425 1_556 S
C264 C271 1.409 . S
C265 H257 0.930 . S
C265 C263 1.419 . S
C265 C266 1.362 1_556 S
C266 H258 0.930 . S
C266 C265 1.362 1_554 S
C266 C269 1.409 . S
C267 H259 0.930 . S
C267 C268 1.355 . S
C267 C269 1.415 . S
C268 C267 1.355 . S
C268 C270 1.419 . S
C269 C264 1.425 1_554 S
C269 C266 1.409 . S
C269 C267 1.415 . S
C270 H260 0.930 . S
C270 C268 1.419 . S
C270 C271 1.362 1_554 S
C271 H261 0.930 . S
C271 C264 1.409 . S
C271 C270 1.362 1_556 S
H272 C278 0.930 . S
H273 C281 0.930 . S
H274 C282 0.930 . S
H275 C283 0.930 . S
H276 C286 0.930 . S
H277 C287 0.930 . S
C278 H272 0.930 . S
C278 C279 1.355 . S
C278 C280 1.415 . S
C279 C278 1.355 . S
C279 C281 1.419 . S
C280 C278 1.415 . S
C280 C285 1.425 . S
C280 C287 1.409 1_565 S
C281 H273 0.930 . S
C281 C279 1.419 . S
C281 C282 1.362 . S
C282 H274 0.930 . S
C282 C281 1.362 . S
C282 C285 1.409 . S
C283 H275 0.930 . S
C283 C284 1.355 1_565 S
C283 C285 1.415 . S
C284 C283 1.355 1_545 S
C284 C286 1.419 . S
C285 C280 1.425 . S
C285 C282 1.409 . S
C285 C283 1.415 . S
C286 H276 0.930 . S
C286 C284 1.419 . S
C286 C287 1.362 . S
C287 H277 0.930 . S
C287 C280 1.409 1_545 S
C287 C286 1.362 . S
H288 C294 0.930 . S
H289 C297 0.930 . S
H290 C298 0.930 . S
H291 C299 0.930 . S
H292 C302 0.930 . S
H293 C303 0.930 . S
C294 H288 0.930 . S
C294 C295 1.355 1_455 S
C294 C296 1.415 . S
C295 C294 1.355 1_655 S
C295 C297 1.419 . S
C296 C294 1.415 . S
C296 C301 1.425 . S
C296 C303 1.409 . S
C297 H289 0.930 . S
C297 C295 1.419 . S
C297 C298 1.362 . S
C298 H290 0.930 . S
C298 C297 1.362 . S
C298 C301 1.409 1_655 S
C299 H291 0.930 . S
C299 C300 1.355 . S
C299 C301 1.415 1_545 S
C300 C299 1.355 . S
C300 C302 1.419 . S
C301 C296 1.425 . S
C301 C298 1.409 1_455 S
C301 C299 1.415 1_565 S
C302 H292 0.930 . S
C302 C300 1.419 . S
C302 C303 1.362 1_545 S
C303 H293 0.930 . S
C303 C296 1.409 . S
C303 C302 1.362 1_565 S
H304 C310 0.930 . S
H305 C313 0.930 . S
H306 C314 0.930 . S
H307 C315 0.930 . S
H308 C318 0.930 . S
H309 C319 0.930 . S
C310 H304 0.930 . S
C310 C311 1.355 1_455 S
C310 C312 1.415 . S
C311 C310 1.355 1_655 S
C311 C313 1.419 . S
C312 C310 1.415 . S
C312 C317 1.425 . S
C312 C319 1.409 . S
C313 H305 0.930 . S
C313 C311 1.419 . S
C313 C314 1.362 . S
C314 H306 0.930 . S
C314 C313 1.362 . S
C314 C317 1.409 1_655 S
C315 H307 0.930 . S
C315 C316 1.355 . S
C315 C317 1.415 . S
C316 C315 1.355 . S
C316 C318 1.419 . S
C317 C312 1.425 . S
C317 C314 1.409 1_455 S
C317 C315 1.415 . S
C318 H308 0.930 . S
C318 C316 1.419 . S
C318 C319 1.362 . S
C319 H309 0.930 . S
C319 C312 1.409 . S
C319 C318 1.362 . S
H320 C326 0.930 . S
H321 C329 0.930 . S
H322 C330 0.930 . S
H323 C331 0.930 . S
H324 C334 0.930 . S
H325 C335 0.930 . S
C326 H320 0.930 . S
C326 C327 1.355 . S
C326 C328 1.415 . S
C327 C326 1.355 . S
C327 C329 1.419 . S
C328 C326 1.415 . S
C328 C333 1.425 . S
C328 C335 1.409 . S
C329 H321 0.930 . S
C329 C327 1.419 . S
C329 C330 1.362 . S
C330 H322 0.930 . S
C330 C329 1.362 . S
C330 C333 1.409 . S
C331 H323 0.930 . S
C331 C332 1.355 . S
C331 C333 1.415 . S
C332 C331 1.355 . S
C332 C334 1.419 . S
C333 C328 1.425 . S
C333 C330 1.409 . S
C333 C331 1.415 . S
C334 H324 0.930 . S
C334 C332 1.419 . S
C334 C335 1.362 . S
C335 H325 0.930 . S
C335 C328 1.409 . S
C335 C334 1.362 . S
H336 C342 0.930 . S
H337 C345 0.930 . S
H338 C346 0.930 . S
H339 C347 0.930 . S
H340 C350 0.930 . S
H341 C351 0.930 . S
C342 H336 0.930 . S
C342 C343 1.355 . S
C342 C344 1.415 . S
C343 C342 1.355 . S
C343 C345 1.419 . S
C344 C342 1.415 . S
C344 C349 1.425 1_554 S
C344 C351 1.409 1_554 S
C345 H337 0.930 . S
C345 C343 1.419 . S
C345 C346 1.362 . S
C346 H338 0.930 . S
C346 C345 1.362 . S
C346 C349 1.409 1_554 S
C347 H339 0.930 . S
C347 C348 1.355 . S
C347 C349 1.415 . S
C348 C347 1.355 . S
C348 C350 1.419 . S
C349 C344 1.425 1_556 S
C349 C346 1.409 1_556 S
C349 C347 1.415 . S
C350 H340 0.930 . S
C350 C348 1.419 . S
C350 C351 1.362 . S
C351 H341 0.930 . S
C351 C344 1.409 1_556 S
C351 C350 1.362 . S
H352 C358 0.930 . S
H353 C361 0.930 . S
H354 C362 0.930 . S
H355 C363 0.930 . S
H356 C366 0.930 . S
H357 C367 0.930 . S
C358 H352 0.930 . S
C358 C359 1.355 . S
C358 C360 1.415 . S
C359 C358 1.355 . S
C359 C361 1.419 . S
C360 C358 1.415 . S
C360 C365 1.425 . S
C360 C367 1.409 . S
C361 H353 0.930 . S
C361 C359 1.419 . S
C361 C362 1.362 . S
C362 H354 0.930 . S
C362 C361 1.362 . S
C362 C365 1.409 . S
C363 H355 0.930 . S
C363 C364 1.355 . S
C363 C365 1.415 . S
C364 C363 1.355 . S
C364 C366 1.419 . S
C365 C360 1.425 . S
C365 C362 1.409 . S
C365 C363 1.415 . S
C366 H356 0.930 . S
C366 C364 1.419 . S
C366 C367 1.362 . S
C367 H357 0.930 . S
C367 C360 1.409 . S
C367 C366 1.362 . S
C119 C78 1.584 . S
C124 C8 1.587 . S
C135 C105 1.511 . S
C140 C20 1.559 . S
C151 C37 1.579 . S
C156 C93 1.594 . S
C167 C49 1.506 . S
C172 C62 1.555 . S
C183 C90 1.518 . S
C188 C7 1.562 . S
C199 C23 1.592 . S
C204 C65 1.580 . S
C215 C77 1.524 . S
C220 C34 1.563 . S
C231 C50 1.580 . S
C236 C106 1.594 . S
C247 C63 1.550 . S
C252 C76 1.501 . S
C263 C22 1.589 . S
C268 C36 1.582 . S
C279 C48 1.523 . S
C284 C35 1.496 . S
C295 C51 1.589 . S
C300 C9 1.582 . S
C311 C21 1.560 . S
C316 C6 1.543 . S
C327 C104 1.531 . S
C332 C91 1.495 . S
C343 C64 1.581 . S
C348 C92 1.594 . S
C359 C79 1.580 . S
C364 C107 1.594 . S
