# Generated by pormake.
# Topology ukf, (4)-cn, num edge types: 1
# Building blocks:
#     Node 0, Type 0, BuildingBlock: QUQFOY_clean_sbu_3, # of connection points: 4
#     Node 1, Type 0, BuildingBlock: QUQFOY_clean_sbu_3, # of connection points: 4
#     Node 2, Type 0, BuildingBlock: QUQFOY_clean_sbu_3, # of connection points: 4
#     Node 3, Type 0, BuildingBlock: QUQFOY_clean_sbu_3, # of connection points: 4
#     Node 4, Type 0, BuildingBlock: QUQFOY_clean_sbu_3, # of connection points: 4
#     Node 5, Type 0, BuildingBlock: QUQFOY_clean_sbu_3, # of connection points: 4
#     Node 6, Type 0, BuildingBlock: QUQFOY_clean_sbu_3, # of connection points: 4
#     Node 7, Type 0, BuildingBlock: QUQFOY_clean_sbu_3, # of connection points: 4
#     Node 8, Type 0, BuildingBlock: QUQFOY_clean_sbu_3, # of connection points: 4
#     Node 9, Type 0, BuildingBlock: QUQFOY_clean_sbu_3, # of connection points: 4
#     Node 10, Type 0, BuildingBlock: QUQFOY_clean_sbu_3, # of connection points: 4
#     Node 11, Type 0, BuildingBlock: QUQFOY_clean_sbu_3, # of connection points: 4
#     Edge 12, Type (0, 0), BuildingBlock: XUDNAN_clean_linker_2, # of connection points: 2
#     Edge 13, Type (0, 0), BuildingBlock: XUDNAN_clean_linker_2, # of connection points: 2
#     Edge 14, Type (0, 0), BuildingBlock: XUDNAN_clean_linker_2, # of connection points: 2
#     Edge 15, Type (0, 0), BuildingBlock: XUDNAN_clean_linker_2, # of connection points: 2
#     Edge 16, Type (0, 0), BuildingBlock: XUDNAN_clean_linker_2, # of connection points: 2
#     Edge 17, Type (0, 0), BuildingBlock: XUDNAN_clean_linker_2, # of connection points: 2
#     Edge 18, Type (0, 0), BuildingBlock: XUDNAN_clean_linker_2, # of connection points: 2
#     Edge 19, Type (0, 0), BuildingBlock: XUDNAN_clean_linker_2, # of connection points: 2
#     Edge 20, Type (0, 0), BuildingBlock: XUDNAN_clean_linker_2, # of connection points: 2
#     Edge 21, Type (0, 0), BuildingBlock: XUDNAN_clean_linker_2, # of connection points: 2
#     Edge 22, Type (0, 0), BuildingBlock: XUDNAN_clean_linker_2, # of connection points: 2
#     Edge 23, Type (0, 0), BuildingBlock: XUDNAN_clean_linker_2, # of connection points: 2
#     Edge 24, Type (0, 0), BuildingBlock: XUDNAN_clean_linker_2, # of connection points: 2
#     Edge 25, Type (0, 0), BuildingBlock: XUDNAN_clean_linker_2, # of connection points: 2
#     Edge 26, Type (0, 0), BuildingBlock: XUDNAN_clean_linker_2, # of connection points: 2
#     Edge 27, Type (0, 0), BuildingBlock: XUDNAN_clean_linker_2, # of connection points: 2
#     Edge 28, Type (0, 0), BuildingBlock: XUDNAN_clean_linker_2, # of connection points: 2
#     Edge 29, Type (0, 0), BuildingBlock: XUDNAN_clean_linker_2, # of connection points: 2
#     Edge 30, Type (0, 0), BuildingBlock: XUDNAN_clean_linker_2, # of connection points: 2
#     Edge 31, Type (0, 0), BuildingBlock: XUDNAN_clean_linker_2, # of connection points: 2
#     Edge 32, Type (0, 0), BuildingBlock: XUDNAN_clean_linker_2, # of connection points: 2
#     Edge 33, Type (0, 0), BuildingBlock: XUDNAN_clean_linker_2, # of connection points: 2
#     Edge 34, Type (0, 0), BuildingBlock: XUDNAN_clean_linker_2, # of connection points: 2
#     Edge 35, Type (0, 0), BuildingBlock: XUDNAN_clean_linker_2, # of connection points: 2
# Relax obj value: 0.130
# Max RMSD: 0.097
# Mean RMSD: 0.097
data_MOF--net-ukf--node1-QUQFOY_clean_sbu_3--edge1-XUDNAN_clean_linker_2
_symmetry_space_group_name_H-M    P1
_symmetry_Int_Tables_number       1
_symmetry_cell_setting            triclinic
loop_
_symmetry_equiv_pos_as_xyz
'x, y, z'
_cell_length_a     32.194266
_cell_length_b     32.177581
_cell_length_c     68.698278
_cell_angle_alpha  90.064977
_cell_angle_beta   89.773589
_cell_angle_gamma 120.18351
loop_
_atom_site_label
_atom_site_type_symbol
_atom_site_fract_x
_atom_site_fract_y
_atom_site_fract_z
_atom_type_partial_charge
C0 C 0.29359 0.14795 0.0247 0.0
O1 O 0.31298 0.17816 0.01097 0.0
Cd2 Cd 0.38194 0.25636 0.01401 0.0
O3 O 0.31239 0.15673 0.04161 0.0
Cd4 Cd 0.38762 0.22382 0.05534 0.0
C5 C 0.46214 0.22055 0.02164 0.0
O6 O 0.37204 0.28642 0.04444 0.0
O7 O 0.44399 0.31131 0.05437 0.0
O8 O 0.35419 0.20465 0.08883 0.0
C9 C 0.41218 0.32136 0.04945 0.0
O10 O 0.45342 0.24827 0.01148 0.0
C11 C 0.39355 0.21245 0.09629 0.0
O12 O 0.43863 0.20136 0.03715 0.0
O13 O 0.42801 0.22258 0.08465 0.0
C14 C 0.12481 0.29916 0.34613 0.0
O15 O 0.11887 0.32373 0.33314 0.0
Cd16 Cd 0.11767 0.39648 0.33905 0.0
O17 O 0.13174 0.31263 0.36387 0.0
Cd18 Cd 0.13913 0.37965 0.38412 0.0
C19 C 0.23211 0.46467 0.35672 0.0
O20 O 0.07248 0.38195 0.36847 0.0
O21 O 0.10876 0.43371 0.3913 0.0
O22 O 0.10816 0.32179 0.41133 0.0
C23 C 0.07599 0.41643 0.37861 0.0
O24 O 0.20206 0.4564 0.34317 0.0
C25 C 0.13756 0.35143 0.42362 0.0
O26 O 0.21909 0.44093 0.37257 0.0
O27 O 0.16796 0.39293 0.41734 0.0
C28 C 0.84527 0.14633 0.69281 0.0
O29 O 0.81485 0.12361 0.67955 0.0
Cd30 Cd 0.7357 0.11176 0.67954 0.0
O31 O 0.83379 0.16266 0.70754 0.0
Cd32 Cd 0.76044 0.16216 0.71985 0.0
C33 C 0.76285 0.22953 0.68183 0.0
O34 O 0.69949 0.08016 0.71069 0.0
O35 O 0.67381 0.12858 0.71795 0.0
O36 O 0.78121 0.14884 0.75285 0.0
C37 C 0.66417 0.08606 0.71436 0.0
O38 O 0.74725 0.19108 0.67193 0.0
C39 C 0.77153 0.17849 0.76092 0.0
O40 O 0.77303 0.23047 0.69977 0.0
O41 O 0.75933 0.20199 0.74982 0.0
C42 C 0.69428 0.83631 0.02053 0.0
O43 O 0.67969 0.80419 0.00747 0.0
Cd44 Cd 0.60225 0.73364 0.00829 0.0
O45 O 0.66827 0.83114 0.03538 0.0
Cd46 Cd 0.58843 0.7692 0.04788 0.0
C47 C 0.53247 0.78624 0.01032 0.0
O48 O 0.58511 0.69333 0.03926 0.0
O49 O 0.51783 0.69142 0.04404 0.0
O50 O 0.61884 0.77928 0.08146 0.0
C51 C 0.53997 0.66854 0.04182 0.0
O52 O 0.54621 0.76155 0.00061 0.0
C53 C 0.5832 0.78024 0.08893 0.0
O54 O 0.54541 0.79778 0.02793 0.0
O55 O 0.55216 0.77911 0.07729 0.0
C56 C 0.82775 0.68399 0.34999 0.0
O57 O 0.83573 0.66031 0.33716 0.0
Cd58 Cd 0.84299 0.59059 0.34247 0.0
O59 O 0.82115 0.671 0.36782 0.0
Cd60 Cd 0.81778 0.6058 0.38832 0.0
C61 C 0.73017 0.51423 0.36086 0.0
O62 O 0.88625 0.60884 0.3722 0.0
O63 O 0.85656 0.55908 0.3961 0.0
O64 O 0.84554 0.66264 0.41576 0.0
C65 C 0.88722 0.57684 0.38252 0.0
O66 O 0.76082 0.52527 0.3472 0.0
C67 C 0.81581 0.63226 0.42785 0.0
O68 O 0.74106 0.53844 0.37661 0.0
O69 O 0.78634 0.59078 0.42132 0.0
C70 C 0.14883 0.84886 0.69215 0.0
O71 O 0.1813 0.86404 0.67914 0.0
Cd72 Cd 0.25544 0.86327 0.68239 0.0
O73 O 0.15385 0.83143 0.70798 0.0
Cd74 Cd 0.21399 0.81371 0.72145 0.0
C75 C 0.20506 0.7422 0.68429 0.0
O76 O 0.2916 0.88644 0.71397 0.0
O77 O 0.29211 0.82084 0.71999 0.0
O78 O 0.20019 0.83214 0.75486 0.0
C79 C 0.31575 0.86589 0.71738 0.0
O80 O 0.23562 0.7809 0.67584 0.0
C81 C 0.19452 0.79318 0.76196 0.0
O82 O 0.18559 0.74316 0.70033 0.0
O83 O 0.19557 0.76344 0.7501 0.0
C84 C 0.82426 0.68342 0.64849 0.0
O85 O 0.78762 0.66212 0.65945 0.0
Cd86 Cd 0.71565 0.59221 0.64948 0.0
O87 O 0.82298 0.66882 0.63111 0.0
Cd88 Cd 0.76147 0.60483 0.60966 0.0
C89 C 0.75728 0.51653 0.63746 0.0
O90 O 0.69179 0.61144 0.6191 0.0
O91 O 0.67623 0.54635 0.60407 0.0
O92 O 0.79274 0.66153 0.58213 0.0
C93 C 0.66152 0.5738 0.61024 0.0
O94 O 0.73224 0.52541 0.64932 0.0
C95 C 0.79271 0.6313 0.57023 0.0
O96 O 0.77488 0.542 0.62223 0.0
O97 O 0.77999 0.58981 0.57688 0.0
C98 C 0.12143 0.8272 0.98068 0.0
O99 O 0.11689 0.79596 0.99323 0.0
Cd100 Cd 0.1208 0.72272 0.99384 0.0
O101 O 0.13023 0.82378 0.96274 0.0
Cd102 Cd 0.14154 0.76396 0.94422 0.0
C103 C 0.23309 0.77084 0.97562 0.0
O104 O 0.09239 0.69531 0.96275 0.0
O105 O 0.07358 0.6836 0.93281 0.0
O106 O 0.14083 0.79353 0.91119 0.0
C107 C 0.06753 0.66599 0.94972 0.0
O108 O 0.20576 0.75194 0.99034 0.0
C109 C 0.17092 0.78202 0.90474 0.0
O110 O 0.21685 0.77681 0.95958 0.0
O111 O 0.18869 0.76567 0.91696 0.0
C112 C 0.27968 0.12693 0.30729 0.0
O113 O 0.28971 0.1022 0.31867 0.0
Cd114 Cd 0.36068 0.09727 0.31623 0.0
O115 O 0.30718 0.14939 0.29293 0.0
Cd116 Cd 0.38223 0.15831 0.27825 0.0
C117 C 0.44585 0.21703 0.31827 0.0
O118 O 0.36376 0.07597 0.28299 0.0
O119 O 0.43748 0.12689 0.27582 0.0
O120 O 0.35166 0.15389 0.24502 0.0
C121 C 0.40486 0.08345 0.27804 0.0
O122 O 0.4257 0.17638 0.32682 0.0
C123 C 0.38994 0.19033 0.23892 0.0
O124 O 0.43515 0.22084 0.30082 0.0
O125 O 0.42296 0.2127 0.25131 0.0
C126 C 0.16792 0.30599 0.64441 0.0
O127 O 0.2074 0.33112 0.65327 0.0
Cd128 Cd 0.27446 0.40285 0.64024 0.0
O129 O 0.16254 0.31691 0.62714 0.0
Cd130 Cd 0.21078 0.37994 0.60288 0.0
C131 C 0.21346 0.46319 0.63305 0.0
O132 O 0.29129 0.39117 0.6075 0.0
O133 O 0.28733 0.44978 0.59427 0.0
O134 O 0.18005 0.32266 0.57563 0.0
C135 C 0.31288 0.43174 0.59905 0.0
O136 O 0.24874 0.46267 0.64114 0.0
C137 C 0.17042 0.34914 0.56509 0.0
O138 O 0.18896 0.43304 0.61984 0.0
O139 O 0.17749 0.3883 0.57251 0.0
C140 C 0.8561 0.15803 0.97811 0.0
O141 O 0.87008 0.19414 0.98929 0.0
Cd142 Cd 0.87266 0.26883 0.9838 0.0
O143 O 0.83945 0.15759 0.9612 0.0
Cd144 Cd 0.82306 0.2141 0.94247 0.0
C145 C 0.75224 0.22095 0.9782 0.0
O146 O 0.89715 0.2857 0.95097 0.0
O147 O 0.84743 0.29863 0.93518 0.0
O148 O 0.83304 0.18966 0.90934 0.0
C149 C 0.88802 0.31578 0.94325 0.0
O150 O 0.78979 0.25146 0.98723 0.0
C151 C 0.79287 0.18364 0.90353 0.0
O152 O 0.7548 0.19945 0.96308 0.0
O153 O 0.76666 0.18839 0.91615 0.0
C154 C 0.68288 0.85668 0.30107 0.0
O155 O 0.66923 0.88068 0.31118 0.0
Cd156 Cd 0.5914 0.87202 0.30812 0.0
O157 O 0.65688 0.83017 0.28718 0.0
Cd158 Cd 0.58021 0.81051 0.27116 0.0
C159 C 0.52217 0.7488 0.31141 0.0
O160 O 0.57575 0.88407 0.27513 0.0
O161 O 0.50943 0.81774 0.26996 0.0
O162 O 0.61336 0.82339 0.23796 0.0
C163 C 0.53107 0.86306 0.27147 0.0
O164 O 0.53626 0.7897 0.3192 0.0
C165 C 0.58034 0.7831 0.23167 0.0
O166 O 0.53472 0.74545 0.29414 0.0
O167 O 0.54968 0.75489 0.24401 0.0
H168 H 0.16029 0.91444 0.96241 0.0
H169 H 0.09013 0.84041 0.01588 0.0
H170 H 0.11394 0.91795 0.0315 0.0
H171 H 0.25884 -0.00088 0.98205 0.0
H172 H 0.26891 0.04891 0.96679 0.0
H173 H 0.23454 0.98867 0.95776 0.0
H174 H 0.16272 0.00122 0.95053 0.0
H175 H 0.19727 0.0622 0.95924 0.0
H176 H 0.13897 0.02204 0.96957 0.0
H177 H 0.16324 0.00073 0.04377 0.0
H178 H 0.22815 0.08354 0.05071 0.0
H179 H 0.26452 0.10523 0.98929 0.0
C180 C 0.14785 0.91445 0.97707 0.0
C181 C 0.12353 0.87147 0.98793 0.0
C182 C 0.1089 0.87295 0.00727 0.0
C183 C 0.12208 0.91687 0.01627 0.0
C184 C 0.14913 0.95895 0.00563 0.0
C185 C 0.16085 0.95814 0.98627 0.0
C186 C 0.19598 0.00823 0.97898 0.0
C187 C 0.24227 0.01136 0.97094 0.0
C188 C 0.17231 0.02437 0.96367 0.0
C189 C 0.20525 0.03653 -0.00236 0.0
C190 C 0.17711 0.0077 0.01276 0.0
C191 C 0.18426 0.02416 0.03194 0.0
C192 C 0.22146 0.07106 0.03578 0.0
C193 C 0.25093 0.10085 0.02051 0.0
C194 C 0.24173 0.08365 0.00118 0.0
H195 H 0.15888 0.28588 0.31187 0.0
H196 H 0.10226 0.21972 0.36799 0.0
H197 H 0.12094 0.15592 0.36021 0.0
H198 H 0.1279 0.17149 0.28374 0.0
H199 H 0.18401 0.20227 0.2706 0.0
H200 H 0.15417 0.23446 0.27805 0.0
H201 H 0.23145 0.29698 0.29584 0.0
H202 H 0.2613 0.26504 0.28857 0.0
H203 H 0.25759 0.2767 0.314 0.0
H204 H 0.15795 0.10887 0.34922 0.0
H205 H 0.21549 0.08567 0.33724 0.0
H206 H 0.2524 0.18491 0.28881 0.0
C207 C 0.14855 0.25674 0.32213 0.0
C208 C 0.12849 0.25707 0.34038 0.0
C209 C 0.11725 0.21967 0.35385 0.0
C210 C 0.1274 0.18315 0.34949 0.0
C211 C 0.14895 0.18479 0.33163 0.0
C212 C 0.15942 0.22067 0.31814 0.0
C213 C 0.19012 0.21934 0.30166 0.0
C214 C 0.16238 0.20609 0.28237 0.0
C215 C 0.23792 0.26733 0.29995 0.0
C216 C 0.19784 0.17914 0.30862 0.0
C217 C 0.17238 0.1586 0.32557 0.0
C218 C 0.17732 0.12398 0.33576 0.0
C219 C 0.21032 0.11119 0.32886 0.0
C220 C 0.23863 0.13363 0.3121 0.0
C221 C 0.23093 0.16675 0.30152 0.0
H222 H 0.8892 0.14822 0.65865 0.0
H223 H 0.91519 0.17301 0.72062 0.0
H224 H 0.0015 0.20223 0.71502 0.0
H225 H -0.0146 0.11738 0.64744 0.0
H226 H -0.00037 0.14981 0.62474 0.0
H227 H 0.93895 0.12039 0.63403 0.0
H228 H 0.93913 0.20095 0.63221 0.0
H229 H -0.00048 0.23046 0.62295 0.0
H230 H -0.0144 0.253 0.64457 0.0
H231 H 0.08558 0.23923 0.70228 0.0
H232 H 0.16031 0.28758 0.6836 0.0
H233 H 0.07938 0.242 0.62977 0.0
C234 C 0.91273 0.15814 0.67114 0.0
C235 C 0.89548 0.15777 0.6901 0.0
C236 C 0.92767 0.17267 0.70598 0.0
C237 C 0.97665 0.18898 0.70295 0.0
C238 C -0.00724 0.19022 0.68395 0.0
C239 C 0.96168 0.17523 0.66831 0.0
C240 C -0.01138 0.18703 0.64914 0.0
C241 C 0.97749 0.1409 0.6382 0.0
C242 C 0.97757 0.21982 0.63649 0.0
C243 C 0.03985 0.21322 0.65639 0.0
C244 C 0.04153 0.21334 0.6765 0.0
C245 C 0.08475 0.23869 0.68653 0.0
C246 C 0.12708 0.26607 0.67576 0.0
C247 C 0.12571 0.26866 0.6552 0.0
C248 C 0.08169 0.24044 0.64545 0.0
H249 H 0.72877 0.87871 0.98557 0.0
H250 H 0.75499 0.90035 0.04756 0.0
H251 H 0.8171 0.98495 0.04154 0.0
H252 H 0.85556 0.97239 0.96784 0.0
H253 H 0.83013 0.98977 0.94833 0.0
H254 H 0.8002 0.92824 0.95663 0.0
H255 H 0.72237 0.93153 0.96253 0.0
H256 H 0.75194 -0.00719 0.95447 0.0
H257 H 0.72428 0.97741 0.97824 0.0
H258 H 0.86266 0.0687 0.02988 0.0
H259 H 0.88271 0.14534 0.01439 0.0
H260 H 0.8225 0.07089 0.95996 0.0
C261 C 0.74938 0.90068 -0.00224 0.0
C262 C 0.73795 0.88301 0.01699 0.0
C263 C 0.76385 0.91322 0.03271 0.0
C264 C 0.79935 0.96118 0.02939 0.0
C265 C 0.80817 0.97831 0.01028 0.0
C266 C 0.78392 0.94888 0.99469 0.0
C267 C 0.79256 0.97774 0.97618 0.0
C268 C 0.82134 0.96636 0.96137 0.0
C269 C 0.74498 0.96938 0.96737 0.0
C270 C 0.82246 0.02821 0.98408 0.0
C271 C 0.83274 0.02765 0.00358 0.0
C272 C 0.85569 0.06964 0.01454 0.0
C273 C 0.86675 0.11307 0.00558 0.0
C274 C 0.8539 0.11412 0.98594 0.0
C275 C 0.83319 0.07133 0.97491 0.0
H276 H 0.71947 0.80452 0.28441 0.0
H277 H 0.73839 0.89779 0.33334 0.0
H278 H 0.79154 0.87354 0.34897 0.0
H279 H 0.7042 0.71104 0.30959 0.0
H280 H 0.73652 0.69179 0.29401 0.0
H281 H 0.71134 0.72571 0.28401 0.0
H282 H 0.79483 0.7899 0.27088 0.0
H283 H 0.82038 0.75562 0.28054 0.0
H284 H 0.84526 0.81784 0.28723 0.0
H285 H 0.82343 0.82414 0.36293 0.0
H286 H 0.83965 0.75961 0.37242 0.0
H287 H 0.80344 0.70061 0.3141 0.0
C288 C 0.73649 0.82149 0.298 0.0
C289 C 0.72454 0.85285 0.30766 0.0
C290 C 0.74701 0.87374 0.32559 0.0
C291 C 0.77738 0.86023 0.33461 0.0
C292 C 0.7858 0.82666 0.32531 0.0
C293 C 0.76707 0.80852 0.30713 0.0
C294 C 0.7765 0.76857 0.30136 0.0
C295 C 0.72934 0.72154 0.29701 0.0
C296 C 0.81133 0.78392 0.28397 0.0
C297 C 0.79999 0.76454 0.31973 0.0
C298 C 0.80583 0.79889 0.33326 0.0
C299 C 0.82065 0.79812 0.35224 0.0
C300 C 0.82935 0.76113 0.35756 0.0
C301 C 0.82331 0.72555 0.34392 0.0
C302 C 0.80956 0.72809 0.32467 0.0
H303 H 0.91311 0.73081 0.631 0.0
H304 H 0.83811 0.72428 0.68458 0.0
H305 H 0.91513 0.78095 0.69991 0.0
H306 H 0.00504 0.72574 0.65157 0.0
H307 H 0.05172 0.76675 0.63527 0.0
H308 H -0.00946 0.73449 0.62714 0.0
H309 H -0.00501 0.81487 0.61819 0.0
H310 H 0.0565 0.84752 0.62632 0.0
H311 H 0.01294 0.86121 0.63635 0.0
H312 H -0.00077 0.8232 0.71145 0.0
H313 H 0.08435 0.84953 0.71791 0.0
H314 H 0.10598 0.8327 0.65675 0.0
C315 C 0.91272 0.74256 0.64574 0.0
C316 C 0.86953 0.72305 0.65656 0.0
C317 C 0.87068 0.73869 0.67595 0.0
C318 C 0.91429 0.77116 0.68478 0.0
C319 C 0.95645 0.78832 0.67395 0.0
C320 C 0.95601 0.77511 0.65476 0.0
C321 C 0.00658 0.79407 0.6471 0.0
C322 C 0.01386 0.75281 0.63986 0.0
C323 C 0.01845 0.83166 0.63104 0.0
C324 C 0.03527 0.81718 0.66535 0.0
C325 C 0.00573 0.8143 0.68059 0.0
C326 C 0.023 0.82713 0.69952 0.0
C327 C 0.07132 0.84191 0.70308 0.0
C328 C 0.10177 0.84395 0.68776 0.0
C329 C 0.08385 0.83307 0.66858 0.0
H330 H 0.72464 0.28608 0.98683 0.0
H331 H 0.67336 0.13323 0.98457 0.0
H332 H 0.59326 0.11611 0.99621 0.0
H333 H 0.65811 0.28681 0.02893 0.0
H334 H 0.64504 0.33082 0.01901 0.0
H335 H 0.69882 0.33082 0.01169 0.0
H336 H 0.67364 0.32447 0.97553 0.0
H337 H 0.61976 0.3244 0.98274 0.0
H338 H 0.61575 0.27608 0.96804 0.0
H339 H 0.5204 0.11646 0.0097 0.0
H340 H 0.4567 0.1335 0.02019 0.0
H341 H 0.55295 0.28548 0.00976 0.0
C342 C 0.69652 0.24909 0.98897 0.0
C343 C 0.70488 0.21085 0.98516 0.0
C344 C 0.66731 0.16282 0.98758 0.0
C345 C 0.62193 0.15286 0.99421 0.0
C346 C 0.61468 0.19139 -0.00217 0.0
C347 C 0.65068 0.23851 0.99498 0.0
C348 C 0.63273 0.27318 -0.00127 0.0
C349 C 0.66032 0.30742 0.0156 0.0
C350 C 0.63564 0.30117 0.98015 0.0
C351 C 0.58115 0.23827 0.00435 0.0
C352 C 0.57167 0.19132 0.00407 0.0
C353 C 0.52718 0.15298 0.00971 0.0
C354 C 0.49136 0.16294 0.01567 0.0
C355 C 0.50003 0.2106 0.01547 0.0
C356 C 0.54536 0.24864 0.00967 0.0
H357 H 0.27994 0.5006 0.32243 0.0
H358 H 0.2972 0.51736 0.38505 0.0
H359 H 0.37812 0.5884 0.38035 0.0
H360 H 0.40755 0.5391 0.31144 0.0
H361 H 0.40698 0.56881 0.2893 0.0
H362 H 0.35275 0.51664 0.29774 0.0
H363 H 0.30852 0.56528 0.29706 0.0
H364 H 0.3625 0.61751 0.28871 0.0
H365 H 0.33289 0.6208 0.31049 0.0
H366 H 0.45138 0.66408 0.36863 0.0
H367 H 0.51422 0.7348 0.35082 0.0
H368 H 0.4514 0.66503 0.29598 0.0
C369 C 0.30108 0.51875 0.33516 0.0
C370 C 0.28234 0.5037 0.3541 0.0
C371 C 0.31104 0.52822 0.37041 0.0
C372 C 0.35698 0.56857 0.36788 0.0
C373 C 0.37396 0.58313 0.34897 0.0
C374 C 0.3472 0.55841 0.33289 0.0
C375 C 0.37267 0.58244 0.31412 0.0
C376 C 0.38577 0.5498 0.30247 0.0
C377 C 0.34234 0.5974 0.30189 0.0
C378 C 0.41706 0.62572 0.32212 0.0
C379 C 0.41727 0.62547 0.34225 0.0
C380 C 0.45224 0.6641 0.35288 0.0
C381 C 0.48762 0.70414 0.34267 0.0
C382 C 0.48796 0.70491 0.32206 0.0
C383 C 0.45271 0.6648 0.31173 0.0
H384 H 0.75264 0.30191 0.69803 0.0
H385 H 0.78506 0.25477 0.6438 0.0
H386 H 0.79175 0.32579 0.62705 0.0
H387 H 0.67731 0.3406 0.67686 0.0
H388 H 0.69588 0.39133 0.69285 0.0
H389 H 0.69814 0.33939 0.70106 0.0
H390 H 0.78852 0.39323 0.7091 0.0
H391 H 0.78652 0.4454 0.70095 0.0
H392 H 0.82944 0.43142 0.69045 0.0
H393 H 0.79364 0.4007 0.61609 0.0
H394 H 0.7849 0.47175 0.61094 0.0
H395 H 0.746 0.46783 0.67179 0.0
C396 C 0.76189 0.30705 0.68271 0.0
C397 C 0.76883 0.27323 0.67221 0.0
C398 C 0.77972 0.28039 0.65208 0.0
C399 C 0.78377 0.32066 0.64248 0.0
C400 C 0.77622 0.3531 0.65316 0.0
C401 C 0.76511 0.3466 0.67279 0.0
C402 C 0.75536 0.38506 0.68052 0.0
C403 C 0.7036 0.36275 0.68827 0.0
C404 C 0.79216 0.41559 0.69618 0.0
C405 C 0.76243 0.41394 0.66213 0.0
C406 C 0.77515 0.39526 0.64661 0.0
C407 C 0.78369 0.41569 0.62812 0.0
C408 C 0.77871 0.4561 0.62536 0.0
C409 C 0.76462 0.47528 0.64094 0.0
C410 C 0.75659 0.45388 0.65958 0.0
H411 H 0.28467 0.78099 0.00867 0.0
H412 H 0.29684 0.79028 0.94566 0.0
H413 H 0.37979 0.80524 0.94793 0.0
H414 H 0.4115 0.87407 0.01879 0.0
H415 H 0.41454 0.84152 0.03955 0.0
H416 H 0.35827 0.83711 0.03304 0.0
H417 H 0.31816 0.74431 0.03134 0.0
H418 H 0.37415 0.74843 0.03782 0.0
H419 H 0.3439 0.71785 0.01581 0.0
H420 H 0.45628 0.80724 0.95682 0.0
H421 H 0.52209 0.80005 0.97182 0.0
H422 H 0.46199 0.79421 0.02903 0.0
C423 C 0.30503 0.78698 0.99535 0.0
C424 C 0.28423 0.78435 0.97698 0.0
C425 C 0.31207 0.79233 0.9599 0.0
C426 C 0.35925 0.80092 0.96104 0.0
C427 C 0.37831 0.80231 0.97937 0.0
C428 C 0.35229 0.7962 0.99623 0.0
C429 C 0.37995 0.79655 0.01406 0.0
C430 C 0.39177 0.8399 0.02713 0.0
C431 C 0.3524 0.74896 0.02541 0.0
C432 C 0.42481 0.80179 0.00455 0.0
C433 C 0.42333 0.80537 0.98453 0.0
C434 C 0.45843 0.80565 0.97249 0.0
C435 C 0.49555 0.80141 0.98112 0.0
C436 C 0.49742 0.79737 0.00157 0.0
C437 C 0.46216 0.79866 0.0134 0.0
H438 H 0.51895 0.29889 0.30211 0.0
H439 H 0.45657 0.23215 0.35765 0.0
H440 H 0.51934 0.30406 0.37474 0.0
H441 H 0.63988 0.34888 0.31686 0.0
H442 H 0.66159 0.40285 0.30255 0.0
H443 H 0.60931 0.34818 0.29482 0.0
H444 H 0.56024 0.39196 0.29406 0.0
H445 H 0.61242 0.44681 0.30184 0.0
H446 H 0.55722 0.42251 0.31556 0.0
H447 H 0.59004 0.38323 0.38568 0.0
H448 H 0.66702 0.45948 0.38965 0.0
H449 H 0.68495 0.47139 0.32689 0.0
C450 C 0.5181 0.29966 0.31787 0.0
C451 C 0.48268 0.2602 0.32857 0.0
C452 C 0.48339 0.2621 0.34918 0.0
C453 C 0.51871 0.30285 0.35899 0.0
C454 C 0.55328 0.3411 0.34798 0.0
C455 C 0.55349 0.3396 0.32787 0.0
C456 C 0.59651 0.38378 0.31945 0.0
C457 C 0.62872 0.37008 0.30773 0.0
C458 C 0.58063 0.41299 0.307 0.0
C459 C 0.62079 0.41019 0.33796 0.0
C460 C 0.59494 0.38548 0.35426 0.0
C461 C 0.61057 0.40289 0.37301 0.0
C462 C 0.65422 0.44627 0.37512 0.0
C463 C 0.68201 0.47122 0.35859 0.0
C464 C 0.66461 0.45303 0.33981 0.0
H465 H 0.27526 0.55764 0.64022 0.0
H466 H 0.12389 0.44993 0.63975 0.0
H467 H 0.104 0.51014 0.65242 0.0
H468 H 0.2765 0.61868 0.68303 0.0
H469 H 0.31794 0.67781 0.67376 0.0
H470 H 0.3197 0.62635 0.66453 0.0
H471 H 0.3088 0.6484 0.62937 0.0
H472 H 0.30724 0.70011 0.63849 0.0
H473 H 0.25844 0.65622 0.62387 0.0
H474 H 0.10241 0.58082 0.66836 0.0
H475 H 0.11817 0.65884 0.6821 0.0
H476 H 0.26953 0.72125 0.6685 0.0
C477 C 0.23794 0.54692 0.64271 0.0
C478 C 0.20103 0.49935 0.63924 0.0
C479 C 0.15253 0.48643 0.64236 0.0
C480 C 0.141 0.52026 0.64958 0.0
C481 C 0.17839 0.56694 0.65309 0.0
C482 C 0.22578 0.58047 0.64934 0.0
C483 C 0.25923 0.63302 0.65382 0.0
C484 C 0.29546 0.6393 0.66973 0.0
C485 C 0.28493 0.66109 0.63528 0.0
C486 C 0.22346 0.64678 0.66114 0.0
C487 C 0.17704 0.60814 0.66084 0.0
C488 C 0.13847 0.61156 0.66829 0.0
C489 C 0.14768 0.65576 0.67611 0.0
C490 C 0.19483 0.69588 0.67599 0.0
C491 C 0.23298 0.69128 0.66832 0.0
H492 H 0.32548 0.16918 0.12539 0.0
H493 H 0.47867 0.26024 0.11512 0.0
H494 H 0.4929 0.26821 0.15045 0.0
H495 H 0.31752 0.22908 0.16867 0.0
H496 H 0.27551 0.17433 0.181 0.0
H497 H 0.2763 0.17696 0.15479 0.0
H498 H 0.28886 0.10357 0.1531 0.0
H499 H 0.28765 0.10046 0.17928 0.0
H500 H 0.33833 0.10528 0.16602 0.0
H501 H 0.49112 0.26856 0.18642 0.0
H502 H 0.47478 0.25273 0.22147 0.0
H503 H 0.32345 0.157 0.20921 0.0
C504 C 0.36193 0.19076 0.13064 0.0
C505 C 0.40097 0.21424 0.11754 0.0
C506 C 0.44825 0.24177 0.12489 0.0
C507 C 0.45671 0.24683 0.14494 0.0
C508 C 0.41758 0.2236 0.15748 0.0
C509 C 0.3712 0.19543 0.15071 0.0
C510 C 0.33613 0.17226 0.16748 0.0
C511 C 0.29918 0.18918 0.16801 0.0
C512 C 0.31129 0.11712 0.1664 0.0
C513 C 0.37018 0.19186 0.18465 0.0
C514 C 0.41683 0.22203 0.17847 0.0
C515 C 0.45478 0.24486 0.19148 0.0
C516 C 0.44507 0.23578 0.21138 0.0
C517 C 0.39788 0.20358 0.21808 0.0
C518 C 0.35988 0.18179 0.20451 0.0
H519 H 0.16917 0.41399 0.45391 0.0
H520 H 0.1007 0.26207 0.44029 0.0
H521 H 0.09866 0.24351 0.47546 0.0
H522 H 0.24297 0.4161 0.49254 0.0
H523 H 0.23516 0.45861 0.5069 0.0
H524 H 0.23096 0.45904 0.4808 0.0
H525 H 0.14618 0.44927 0.48386 0.0
H526 H 0.15004 0.44861 0.51 0.0
H527 H 0.10023 0.39958 0.49761 0.0
H528 H 0.10972 0.24316 0.51231 0.0
H529 H 0.1279 0.26051 0.54743 0.0
H530 H 0.18269 0.41196 0.53625 0.0
C531 C 0.15384 0.37679 0.45831 0.0
C532 C 0.13555 0.33944 0.44445 0.0
C533 C 0.11503 0.29117 0.45076 0.0
C534 C 0.11374 0.28035 0.47066 0.0
C535 C 0.13224 0.3182 0.48398 0.0
C536 C 0.15135 0.36539 0.47803 0.0
C537 C 0.1682 0.39958 0.4951 0.0
C538 C 0.22254 0.43542 0.49375 0.0
C539 C 0.13943 0.42579 0.49673 0.0
C540 C 0.15644 0.36447 0.51165 0.0
C541 C 0.13602 0.31769 0.50502 0.0
C542 C 0.12499 0.27957 0.51767 0.0
C543 C 0.13543 0.2897 0.53755 0.0
C544 C 0.15596 0.33741 0.54454 0.0
C545 C 0.16598 0.37498 0.53139 0.0
H546 H 0.83495 0.16308 0.87254 0.0
H547 H 0.7207 0.19215 0.88743 0.0
H548 H 0.70383 0.19407 0.85272 0.0
H549 H 0.87843 0.23716 0.83097 0.0
H550 H 0.88909 0.19659 0.81654 0.0
H551 H 0.89158 0.195 0.84269 0.0
H552 H 0.82755 0.10438 0.84269 0.0
H553 H 0.82536 0.10551 0.8165 0.0
H554 H 0.77104 0.08439 0.83058 0.0
H555 H 0.7049 0.20223 0.81697 0.0
H556 H 0.71468 0.20263 0.78136 0.0
H557 H 0.82303 0.1614 0.78861 0.0
C558 C 0.80588 0.169 0.86847 0.0
C559 C 0.77927 0.17761 0.88273 0.0
C560 C 0.74152 0.1853 0.87682 0.0
C561 C 0.73175 0.18672 0.85711 0.0
C562 C 0.7594 0.17949 0.84342 0.0
C563 C 0.79489 0.16959 0.84874 0.0
C564 C 0.8187 0.16265 0.83088 0.0
C565 C 0.87264 0.20009 0.83024 0.0
C566 C 0.81013 0.11116 0.83012 0.0
C567 C 0.79168 0.1713 0.81481 0.0
C568 C 0.75809 0.18153 0.82247 0.0
C569 C 0.7305 0.19349 0.81073 0.0
C570 C 0.7366 0.19402 0.79055 0.0
C571 C 0.76941 0.18186 0.78228 0.0
C572 C 0.79739 0.17044 0.79458 0.0
H573 H 0.64982 0.82054 0.11835 0.0
H574 H 0.49729 0.73053 0.10709 0.0
H575 H 0.48157 0.71695 0.14235 0.0
H576 H 0.65764 0.75625 0.15978 0.0
H577 H 0.6983 0.80947 0.17321 0.0
H578 H 0.69862 0.81067 0.14698 0.0
H579 H 0.68405 0.88287 0.14745 0.0
H580 H 0.68432 0.88227 0.17366 0.0
H581 H 0.63359 0.87811 0.16087 0.0
H582 H 0.48246 0.7095 0.17826 0.0
H583 H 0.49741 0.72034 0.21353 0.0
H584 H 0.64817 0.82191 0.20237 0.0
C585 C 0.61319 0.79813 0.1234 0.0
C586 C 0.57471 0.77635 0.1101 0.0
C587 C 0.52716 0.7477 0.11712 0.0
C588 C 0.51793 0.73943 0.13707 0.0
C589 C 0.55658 0.7609 0.14983 0.0
C590 C 0.60312 0.79063 0.14339 0.0
C591 C 0.63743 0.81195 0.1604 0.0
C592 C 0.67523 0.79613 0.16006 0.0
C593 C 0.66124 0.86707 0.16061 0.0
C594 C 0.60282 0.78933 0.17735 0.0
C595 C 0.5566 0.75918 0.17083 0.0
C596 C 0.5184 0.7333 0.18358 0.0
C597 C 0.52735 0.73947 0.20359 0.0
C598 C 0.57389 0.77203 0.21066 0.0
C599 C 0.61223 0.79683 0.19734 0.0
H600 H 0.76867 0.56756 0.54039 0.0
H601 H 0.84038 0.72028 0.55292 0.0
H602 H 0.85503 0.73804 0.51765 0.0
H603 H 0.84363 0.57291 0.50017 0.0
H604 H 0.79407 0.52648 0.48668 0.0
H605 H 0.79192 0.52658 0.51287 0.0
H606 H 0.71122 0.52614 0.51152 0.0
H607 H 0.71329 0.52639 0.48532 0.0
H608 H 0.70793 0.57248 0.49807 0.0
H609 H 0.8622 0.73833 0.48066 0.0
H610 H 0.85831 0.72107 0.44532 0.0
H611 H 0.77717 0.56817 0.45768 0.0
C612 C 0.788 0.60479 0.53576 0.0
C613 C 0.80388 0.6426 0.54936 0.0
C614 C 0.82816 0.6908 0.5427 0.0
C615 C 0.83661 0.7012 0.52272 0.0
C616 C 0.82 0.66294 0.50966 0.0
C617 C 0.79597 0.61571 0.51594 0.0
C618 C 0.77994 0.58099 0.49903 0.0
C619 C 0.80383 0.54993 0.49974 0.0
C620 C 0.72483 0.54967 0.49846 0.0
C621 C 0.79879 0.61598 0.4822 0.0
C622 C 0.82219 0.6631 0.48855 0.0
C623 C 0.84369 0.70156 0.47553 0.0
C624 C 0.8413 0.69145 0.45552 0.0
C625 C 0.81702 0.64334 0.44879 0.0
C626 C 0.79537 0.60534 0.46236 0.0
H627 H 0.15342 0.82848 0.87469 0.0
H628 H 0.21075 0.73473 0.88729 0.0
H629 H 0.22082 0.72653 0.8523 0.0
H630 H 0.08861 0.7689 0.83186 0.0
H631 H 0.10344 0.82297 0.81862 0.0
H632 H 0.1009 0.82264 0.84482 0.0
H633 H 0.18811 0.89449 0.84612 0.0
H634 H 0.19072 0.8954 0.81991 0.0
H635 H 0.23533 0.89021 0.83377 0.0
H636 H 0.21886 0.72264 0.81643 0.0
H637 H 0.21647 0.73303 0.78102 0.0
H638 H 0.16668 0.83425 0.79071 0.0
C639 C 0.16853 0.80668 0.87004 0.0
C640 C 0.18118 0.78215 0.88374 0.0
C641 C 0.20099 0.75405 0.87711 0.0
C642 C 0.20661 0.74888 0.85724 0.0
C643 C 0.19303 0.77268 0.84412 0.0
C644 C 0.17537 0.80185 0.85015 0.0
C645 C 0.16488 0.82431 0.83281 0.0
C646 C 0.11127 0.80876 0.83199 0.0
C647 C 0.19666 0.87937 0.83318 0.0
C648 C 0.17883 0.80257 0.81618 0.0
C649 C 0.1943 0.7724 0.82313 0.0
C650 C 0.20737 0.7466 0.81076 0.0
C651 C 0.20558 0.7525 0.79067 0.0
C652 C 0.19157 0.78454 0.78315 0.0
C653 C 0.17781 0.80974 0.7961 0.0
H654 H 0.57538 0.60739 0.04643 0.0
H655 H 0.4443 0.61077 0.03564 0.0
H656 H 0.39798 0.52225 0.03571 0.0
H657 H 0.54537 0.50135 0.01733 0.0
H658 H 0.57156 0.47846 0.03432 0.0
H659 H 0.59513 0.54229 0.03232 0.0
H660 H 0.58182 0.54657 0.06934 0.0
H661 H 0.55799 0.48275 0.07143 0.0
H662 H 0.52285 0.50883 0.07961 0.0
H663 H 0.36557 0.43441 0.03756 0.0
H664 H 0.34844 0.35113 0.04159 0.0
H665 H 0.4998 0.40402 0.05231 0.0
C666 C 0.53705 0.58939 0.04385 0.0
C667 C 0.51338 0.61574 0.04093 0.0
C668 C 0.46308 0.59114 0.03791 0.0
C669 C 0.43647 0.54093 0.03788 0.0
C670 C 0.46069 0.51595 0.04104 0.0
C671 C 0.50976 0.53917 0.04401 0.0
C672 C 0.52643 0.50354 0.04787 0.0
C673 C 0.56171 0.5066 0.03201 0.0
C674 C 0.54857 0.51087 0.06827 0.0
C675 C 0.47901 0.45681 0.04662 0.0
C676 C 0.44166 0.46488 0.04256 0.0
C677 C 0.39446 0.4275 0.04071 0.0
C678 C 0.38512 0.38039 0.04304 0.0
C679 C 0.42279 0.37124 0.04727 0.0
C680 C 0.47029 0.41 0.04913 0.0
H681 H 0.9295 0.54515 0.40789 0.0
H682 H 0.91349 0.56313 0.34636 0.0
H683 H 0.95895 0.5219 0.33837 0.0
H684 H 0.05231 0.56851 0.40392 0.0
H685 H 0.0438 0.52597 0.42276 0.0
H686 H 0.00986 0.55654 0.42332 0.0
H687 H 0.93072 0.47427 0.42461 0.0
H688 H 0.96437 0.44344 0.42382 0.0
H689 H 0.91869 0.43036 0.40589 0.0
H690 H -7e-05 0.47228 0.33745 0.0
H691 H 0.04494 0.4297 0.34353 0.0
H692 H 0.04057 0.4521 0.40556 0.0
C693 C 0.93595 0.54065 0.39275 0.0
C694 C 0.91803 0.55683 0.37769 0.0
C695 C 0.92732 0.55098 0.35804 0.0
C696 C 0.95274 0.52742 0.3534 0.0
C697 C 0.96935 0.51111 0.36863 0.0
C698 C 0.96229 0.5185 0.3879 0.0
C699 C -0.01468 0.49921 0.40155 0.0
C700 C 0.0252 0.53999 0.41359 0.0
C701 C 0.94751 0.45946 0.41474 0.0
C702 C 0.00578 0.47907 0.38696 0.0
C703 C -0.00443 0.48554 0.36805 0.0
C704 C 0.00876 0.46763 0.35217 0.0
C705 C 0.03392 0.44329 0.35574 0.0
C706 C 0.04625 0.43819 0.37496 0.0
C707 C 0.0319 0.45615 0.39072 0.0
H708 H 0.58215 0.09149 0.7163 0.0
H709 H 0.63325 0.99017 0.71096 0.0
H710 H 0.54931 0.92293 0.71076 0.0
H711 H 0.48334 0.02077 0.74802 0.0
H712 H 0.44392 0.03835 0.73686 0.0
H713 H 0.50795 0.07855 0.7363 0.0
H714 H 0.50565 0.08292 0.69868 0.0
H715 H 0.44158 0.04278 0.69912 0.0
H716 H 0.47934 0.02813 0.68469 0.0
H717 H 0.46065 0.86706 0.71243 0.0
H718 H 0.37233 0.82563 0.71442 0.0
H719 H 0.37854 0.96344 0.7176 0.0
C720 C 0.5757 0.05516 0.71503 0.0
C721 C 0.61414 0.04593 0.71367 0.0
C722 C 0.60428 -0.00203 0.71198 0.0
C723 C 0.55679 0.9596 0.71188 0.0
C724 C 0.51975 0.96996 0.71333 0.0
C725 C 0.52859 0.01653 0.71474 0.0
C726 C 0.48228 0.01783 0.71611 0.0
C727 C 0.47921 0.04019 0.73548 0.0
C728 C 0.47691 0.04449 0.6986 0.0
C729 C 0.44596 0.96461 0.71538 0.0
C730 C 0.46841 0.93769 0.71386 0.0
C731 C 0.44262 0.88771 0.71349 0.0
C732 C 0.39248 0.86455 0.71468 0.0
C733 C 0.36864 0.89138 0.71609 0.0
C734 C 0.39581 0.94207 0.71637 0.0
H735 H 0.58235 0.4842 0.60688 0.0
H736 H 0.62751 0.6359 0.60875 0.0
H737 H 0.54325 0.61588 0.60431 0.0
H738 H 0.48752 0.44747 0.57145 0.0
H739 H 0.44773 0.39159 0.5836 0.0
H740 H 0.51184 0.41785 0.58579 0.0
H741 H 0.50431 0.41672 0.62339 0.0
H742 H 0.44019 0.39028 0.62132 0.0
H743 H 0.47461 0.44536 0.63474 0.0
H744 H 0.45499 0.57964 0.59899 0.0
H745 H 0.36682 0.52936 0.59688 0.0
H746 H 0.37804 0.40075 0.60103 0.0
C747 C 0.57442 0.51314 0.60623 0.0
C748 C 0.61121 0.56159 0.60798 0.0
C749 C 0.59964 0.59856 0.60742 0.0
C750 C 0.55204 0.58755 0.60481 0.0
C751 C 0.51653 0.5394 0.60309 0.0
C752 C 0.52698 0.50273 0.60406 0.0
C753 C 0.48175 0.45389 0.60301 0.0
C754 C 0.48226 0.42607 0.58488 0.0
C755 C 0.47482 0.42487 0.62173 0.0
C756 C 0.44424 0.46888 0.6013 0.0
C757 C 0.4652 0.51837 0.60106 0.0
C758 C 0.4381 0.54086 0.59927 0.0
C759 C 0.38809 0.51198 0.59801 0.0
C760 C 0.36573 0.46122 0.59888 0.0
C761 C 0.39426 0.43948 0.60043 0.0
H762 H 0.00048 0.59685 0.92575 0.0
H763 H 0.06785 0.6185 0.98235 0.0
H764 H 0.02718 0.53076 0.98715 0.0
H765 H 0.88446 0.49012 0.94033 0.0
H766 H 0.87714 0.46166 0.91698 0.0
H767 H 0.90859 0.52629 0.91871 0.0
H768 H 0.9822 0.53024 0.90144 0.0
H769 H 0.95136 0.46568 0.89994 0.0
H770 H 0.00922 0.49778 0.91156 0.0
H771 H -0.0111 0.44212 0.98388 0.0
H772 H 0.94438 0.35621 0.97503 0.0
H773 H 0.89648 0.39103 0.92173 0.0
C774 C 0.00577 0.58305 0.93932 0.0
C775 C 0.03726 0.61427 0.95367 0.0
C776 C 0.04361 0.5951 0.97122 0.0
C777 C 0.02086 0.54537 0.97404 0.0
C778 C -0.00875 0.5155 0.95935 0.0
C779 C 0.98265 0.53347 0.94253 0.0
C780 C 0.94975 0.49333 0.92892 0.0
C781 C 0.90215 0.49282 0.92608 0.0
C782 C 0.97465 0.497 0.90931 0.0
C783 C 0.94242 0.45014 0.94049 0.0
C784 C 0.96702 0.46384 0.95792 0.0
C785 C 0.96862 0.43077 0.97048 0.0
C786 C 0.94359 0.38218 0.96525 0.0
C787 C 0.91679 0.36723 0.9478 0.0
C788 C 0.91625 0.40164 0.93528 0.0
H789 H 0.56687 0.96066 0.27257 0.0
H790 H 0.43391 0.82328 0.27004 0.0
H791 H 0.38753 0.86506 0.27087 0.0
H792 H 0.52549 0.01826 0.30526 0.0
H793 H 0.55726 0.07605 0.29342 0.0
H794 H 0.58049 0.03557 0.29217 0.0
H795 H 0.58106 0.03968 0.25448 0.0
H796 H 0.55793 0.08028 0.25562 0.0
H797 H 0.52653 0.02539 0.24182 0.0
H798 H 0.35536 0.92064 0.2735 0.0
H799 H 0.33928 0.98774 0.27627 0.0
H800 H 0.49274 0.08942 0.27598 0.0
C801 C 0.52802 0.93945 0.2721 0.0
C802 C 0.50398 0.88877 0.2713 0.0
C803 C 0.45311 0.86219 0.27066 0.0
C804 C 0.4264 0.88554 0.27113 0.0
C805 C 0.45111 0.93547 0.27207 0.0
C806 C 0.50073 0.96222 0.2724 0.0
C807 C 0.51821 0.01551 0.27347 0.0
C808 C 0.54706 0.03763 0.2922 0.0
C809 C 0.54767 0.04175 0.25526 0.0
C810 C 0.47062 0.01435 0.27393 0.0
C811 C 0.43242 0.96779 0.27315 0.0
C812 C 0.38491 0.95734 0.27397 0.0
C813 C 0.37616 -0.00437 0.2756 0.0
C814 C 0.41476 0.04365 0.27627 0.0
C815 C 0.46254 0.05304 0.27535 0.0
loop_
_geom_bond_atom_site_label_1
_geom_bond_atom_site_label_2
_geom_bond_distance
_geom_bond_site_symmetry_2
_ccdc_geom_bond_type
C0 O1 1.306 . S
C0 O3 1.160 . S
O1 C0 1.306 . S
O1 Cd2 2.228 . S
Cd2 O1 2.228 . S
Cd2 O6 2.273 . S
Cd2 O10 2.277 . S
O3 C0 1.160 . S
O3 Cd4 2.203 . S
Cd4 O3 2.203 . S
Cd4 O6 2.411 . S
Cd4 O7 2.333 . S
Cd4 O8 2.352 . S
Cd4 O12 2.277 . S
Cd4 O13 2.356 . S
C5 O10 1.209 . S
C5 O12 1.226 . S
O6 Cd2 2.273 . S
O6 Cd4 2.411 . S
O6 C9 1.320 . S
O7 Cd4 2.333 . S
O7 C9 1.214 . S
O8 Cd4 2.352 . S
O8 C11 1.258 . S
C9 O6 1.320 . S
C9 O7 1.214 . S
O10 Cd2 2.277 . S
O10 C5 1.209 . S
C11 O8 1.258 . S
C11 O13 1.282 . S
O12 Cd4 2.277 . S
O12 C5 1.226 . S
O13 Cd4 2.356 . S
O13 C11 1.282 . S
C14 O15 1.306 . S
C14 O17 1.160 . S
O15 C14 1.306 . S
O15 Cd16 2.228 . S
Cd16 O15 2.228 . S
Cd16 O20 2.273 . S
Cd16 O24 2.277 . S
O17 C14 1.160 . S
O17 Cd18 2.203 . S
Cd18 O17 2.203 . S
Cd18 O20 2.411 . S
Cd18 O21 2.333 . S
Cd18 O22 2.352 . S
Cd18 O26 2.277 . S
Cd18 O27 2.356 . S
C19 O24 1.209 . S
C19 O26 1.226 . S
O20 Cd16 2.273 . S
O20 Cd18 2.411 . S
O20 C23 1.320 . S
O21 Cd18 2.333 . S
O21 C23 1.214 . S
O22 Cd18 2.352 . S
O22 C25 1.258 . S
C23 O20 1.320 . S
C23 O21 1.214 . S
O24 Cd16 2.277 . S
O24 C19 1.209 . S
C25 O22 1.258 . S
C25 O27 1.282 . S
O26 Cd18 2.277 . S
O26 C19 1.226 . S
O27 Cd18 2.356 . S
O27 C25 1.282 . S
C28 O29 1.306 . S
C28 O31 1.160 . S
O29 C28 1.306 . S
O29 Cd30 2.228 . S
Cd30 O29 2.228 . S
Cd30 O34 2.273 . S
Cd30 O38 2.277 . S
O31 C28 1.160 . S
O31 Cd32 2.203 . S
Cd32 O31 2.203 . S
Cd32 O34 2.411 . S
Cd32 O35 2.333 . S
Cd32 O36 2.352 . S
Cd32 O40 2.277 . S
Cd32 O41 2.356 . S
C33 O38 1.209 . S
C33 O40 1.226 . S
O34 Cd30 2.273 . S
O34 Cd32 2.411 . S
O34 C37 1.320 . S
O35 Cd32 2.333 . S
O35 C37 1.214 . S
O36 Cd32 2.352 . S
O36 C39 1.258 . S
C37 O34 1.320 . S
C37 O35 1.214 . S
O38 Cd30 2.277 . S
O38 C33 1.209 . S
C39 O36 1.258 . S
C39 O41 1.282 . S
O40 Cd32 2.277 . S
O40 C33 1.226 . S
O41 Cd32 2.356 . S
O41 C39 1.282 . S
C42 O43 1.306 . S
C42 O45 1.160 . S
O43 C42 1.306 . S
O43 Cd44 2.228 . S
Cd44 O43 2.228 . S
Cd44 O48 2.273 . S
Cd44 O52 2.277 . S
O45 C42 1.160 . S
O45 Cd46 2.203 . S
Cd46 O45 2.203 . S
Cd46 O48 2.411 . S
Cd46 O49 2.333 . S
Cd46 O50 2.352 . S
Cd46 O54 2.277 . S
Cd46 O55 2.356 . S
C47 O52 1.209 . S
C47 O54 1.226 . S
O48 Cd44 2.273 . S
O48 Cd46 2.411 . S
O48 C51 1.320 . S
O49 Cd46 2.333 . S
O49 C51 1.214 . S
O50 Cd46 2.352 . S
O50 C53 1.258 . S
C51 O48 1.320 . S
C51 O49 1.214 . S
O52 Cd44 2.277 . S
O52 C47 1.209 . S
C53 O50 1.258 . S
C53 O55 1.282 . S
O54 Cd46 2.277 . S
O54 C47 1.226 . S
O55 Cd46 2.356 . S
O55 C53 1.282 . S
C56 O57 1.306 . S
C56 O59 1.160 . S
O57 C56 1.306 . S
O57 Cd58 2.228 . S
Cd58 O57 2.228 . S
Cd58 O62 2.273 . S
Cd58 O66 2.277 . S
O59 C56 1.160 . S
O59 Cd60 2.203 . S
Cd60 O59 2.203 . S
Cd60 O62 2.411 . S
Cd60 O63 2.333 . S
Cd60 O64 2.352 . S
Cd60 O68 2.277 . S
Cd60 O69 2.356 . S
C61 O66 1.209 . S
C61 O68 1.226 . S
O62 Cd58 2.273 . S
O62 Cd60 2.411 . S
O62 C65 1.320 . S
O63 Cd60 2.333 . S
O63 C65 1.214 . S
O64 Cd60 2.352 . S
O64 C67 1.258 . S
C65 O62 1.320 . S
C65 O63 1.214 . S
O66 Cd58 2.277 . S
O66 C61 1.209 . S
C67 O64 1.258 . S
C67 O69 1.282 . S
O68 Cd60 2.277 . S
O68 C61 1.226 . S
O69 Cd60 2.356 . S
O69 C67 1.282 . S
C70 O71 1.306 . S
C70 O73 1.160 . S
O71 C70 1.306 . S
O71 Cd72 2.228 . S
Cd72 O71 2.228 . S
Cd72 O76 2.273 . S
Cd72 O80 2.277 . S
O73 C70 1.160 . S
O73 Cd74 2.203 . S
Cd74 O73 2.203 . S
Cd74 O76 2.411 . S
Cd74 O77 2.333 . S
Cd74 O78 2.352 . S
Cd74 O82 2.277 . S
Cd74 O83 2.356 . S
C75 O80 1.209 . S
C75 O82 1.226 . S
O76 Cd72 2.273 . S
O76 Cd74 2.411 . S
O76 C79 1.320 . S
O77 Cd74 2.333 . S
O77 C79 1.214 . S
O78 Cd74 2.352 . S
O78 C81 1.258 . S
C79 O76 1.320 . S
C79 O77 1.214 . S
O80 Cd72 2.277 . S
O80 C75 1.209 . S
C81 O78 1.258 . S
C81 O83 1.282 . S
O82 Cd74 2.277 . S
O82 C75 1.226 . S
O83 Cd74 2.356 . S
O83 C81 1.282 . S
C84 O85 1.306 . S
C84 O87 1.160 . S
O85 C84 1.306 . S
O85 Cd86 2.228 . S
Cd86 O85 2.228 . S
Cd86 O90 2.273 . S
Cd86 O94 2.277 . S
O87 C84 1.160 . S
O87 Cd88 2.203 . S
Cd88 O87 2.203 . S
Cd88 O90 2.411 . S
Cd88 O91 2.333 . S
Cd88 O92 2.352 . S
Cd88 O96 2.277 . S
Cd88 O97 2.356 . S
C89 O94 1.209 . S
C89 O96 1.226 . S
O90 Cd86 2.273 . S
O90 Cd88 2.411 . S
O90 C93 1.320 . S
O91 Cd88 2.333 . S
O91 C93 1.214 . S
O92 Cd88 2.352 . S
O92 C95 1.258 . S
C93 O90 1.320 . S
C93 O91 1.214 . S
O94 Cd86 2.277 . S
O94 C89 1.209 . S
C95 O92 1.258 . S
C95 O97 1.282 . S
O96 Cd88 2.277 . S
O96 C89 1.226 . S
O97 Cd88 2.356 . S
O97 C95 1.282 . S
C98 O99 1.306 . S
C98 O101 1.160 . S
O99 C98 1.306 . S
O99 Cd100 2.228 . S
Cd100 O99 2.228 . S
Cd100 O104 2.273 . S
Cd100 O108 2.277 . S
O101 C98 1.160 . S
O101 Cd102 2.203 . S
Cd102 O101 2.203 . S
Cd102 O104 2.411 . S
Cd102 O105 2.333 . S
Cd102 O106 2.352 . S
Cd102 O110 2.277 . S
Cd102 O111 2.356 . S
C103 O108 1.209 . S
C103 O110 1.226 . S
O104 Cd100 2.273 . S
O104 Cd102 2.411 . S
O104 C107 1.320 . S
O105 Cd102 2.333 . S
O105 C107 1.214 . S
O106 Cd102 2.352 . S
O106 C109 1.258 . S
C107 O104 1.320 . S
C107 O105 1.214 . S
O108 Cd100 2.277 . S
O108 C103 1.209 . S
C109 O106 1.258 . S
C109 O111 1.282 . S
O110 Cd102 2.277 . S
O110 C103 1.226 . S
O111 Cd102 2.356 . S
O111 C109 1.282 . S
C112 O113 1.306 . S
C112 O115 1.160 . S
O113 C112 1.306 . S
O113 Cd114 2.228 . S
Cd114 O113 2.228 . S
Cd114 O118 2.273 . S
Cd114 O122 2.277 . S
O115 C112 1.160 . S
O115 Cd116 2.203 . S
Cd116 O115 2.203 . S
Cd116 O118 2.411 . S
Cd116 O119 2.333 . S
Cd116 O120 2.352 . S
Cd116 O124 2.277 . S
Cd116 O125 2.356 . S
C117 O122 1.209 . S
C117 O124 1.226 . S
O118 Cd114 2.273 . S
O118 Cd116 2.411 . S
O118 C121 1.320 . S
O119 Cd116 2.333 . S
O119 C121 1.214 . S
O120 Cd116 2.352 . S
O120 C123 1.258 . S
C121 O118 1.320 . S
C121 O119 1.214 . S
O122 Cd114 2.277 . S
O122 C117 1.209 . S
C123 O120 1.258 . S
C123 O125 1.282 . S
O124 Cd116 2.277 . S
O124 C117 1.226 . S
O125 Cd116 2.356 . S
O125 C123 1.282 . S
C126 O127 1.306 . S
C126 O129 1.160 . S
O127 C126 1.306 . S
O127 Cd128 2.228 . S
Cd128 O127 2.228 . S
Cd128 O132 2.273 . S
Cd128 O136 2.277 . S
O129 C126 1.160 . S
O129 Cd130 2.203 . S
Cd130 O129 2.203 . S
Cd130 O132 2.411 . S
Cd130 O133 2.333 . S
Cd130 O134 2.352 . S
Cd130 O138 2.277 . S
Cd130 O139 2.356 . S
C131 O136 1.209 . S
C131 O138 1.226 . S
O132 Cd128 2.273 . S
O132 Cd130 2.411 . S
O132 C135 1.320 . S
O133 Cd130 2.333 . S
O133 C135 1.214 . S
O134 Cd130 2.352 . S
O134 C137 1.258 . S
C135 O132 1.320 . S
C135 O133 1.214 . S
O136 Cd128 2.277 . S
O136 C131 1.209 . S
C137 O134 1.258 . S
C137 O139 1.282 . S
O138 Cd130 2.277 . S
O138 C131 1.226 . S
O139 Cd130 2.356 . S
O139 C137 1.282 . S
C140 O141 1.306 . S
C140 O143 1.160 . S
O141 C140 1.306 . S
O141 Cd142 2.228 . S
Cd142 O141 2.228 . S
Cd142 O146 2.273 . S
Cd142 O150 2.277 . S
O143 C140 1.160 . S
O143 Cd144 2.203 . S
Cd144 O143 2.203 . S
Cd144 O146 2.411 . S
Cd144 O147 2.333 . S
Cd144 O148 2.352 . S
Cd144 O152 2.277 . S
Cd144 O153 2.356 . S
C145 O150 1.209 . S
C145 O152 1.226 . S
O146 Cd142 2.273 . S
O146 Cd144 2.411 . S
O146 C149 1.320 . S
O147 Cd144 2.333 . S
O147 C149 1.214 . S
O148 Cd144 2.352 . S
O148 C151 1.258 . S
C149 O146 1.320 . S
C149 O147 1.214 . S
O150 Cd142 2.277 . S
O150 C145 1.209 . S
C151 O148 1.258 . S
C151 O153 1.282 . S
O152 Cd144 2.277 . S
O152 C145 1.226 . S
O153 Cd144 2.356 . S
O153 C151 1.282 . S
C154 O155 1.306 . S
C154 O157 1.160 . S
O155 C154 1.306 . S
O155 Cd156 2.228 . S
Cd156 O155 2.228 . S
Cd156 O160 2.273 . S
Cd156 O164 2.277 . S
O157 C154 1.160 . S
O157 Cd158 2.203 . S
Cd158 O157 2.203 . S
Cd158 O160 2.411 . S
Cd158 O161 2.333 . S
Cd158 O162 2.352 . S
Cd158 O166 2.277 . S
Cd158 O167 2.356 . S
C159 O164 1.209 . S
C159 O166 1.226 . S
O160 Cd156 2.273 . S
O160 Cd158 2.411 . S
O160 C163 1.320 . S
O161 Cd158 2.333 . S
O161 C163 1.214 . S
O162 Cd158 2.352 . S
O162 C165 1.258 . S
C163 O160 1.320 . S
C163 O161 1.214 . S
O164 Cd156 2.277 . S
O164 C159 1.209 . S
C165 O162 1.258 . S
C165 O167 1.282 . S
O166 Cd158 2.277 . S
O166 C159 1.226 . S
O167 Cd158 2.356 . S
O167 C165 1.282 . S
H168 C180 0.930 . S
H169 C182 0.947 . S
H170 C183 0.930 . S
H171 C187 0.959 . S
H172 C187 0.959 . S
H173 C187 0.961 . S
H174 C188 0.960 . S
H175 C188 0.961 . S
H176 C188 0.959 . S
H177 C191 0.929 . S
H178 C192 0.931 . S
H179 C194 0.930 1_556 S
C180 H168 0.930 . S
C180 C181 1.399 . S
C180 C185 1.399 . S
C181 C180 1.399 . S
C181 C182 1.376 . S
C182 H169 0.947 . S
C182 C181 1.376 . S
C182 C183 1.388 1_556 S
C183 H170 0.930 . S
C183 C182 1.388 1_554 S
C183 C184 1.390 . S
C184 C183 1.390 . S
C184 C185 1.394 1_554 S
C184 C190 1.465 1_565 S
C185 C180 1.399 . S
C185 C184 1.394 1_556 S
C185 C186 1.516 1_565 S
C186 C185 1.516 1_545 S
C186 C187 1.502 . S
C186 C188 1.561 . S
C186 C189 1.522 1_556 S
C187 H171 0.959 . S
C187 H172 0.959 . S
C187 H173 0.961 . S
C187 C186 1.502 . S
C188 H174 0.960 . S
C188 H175 0.961 . S
C188 H176 0.959 . S
C188 C186 1.561 . S
C189 C186 1.522 1_554 S
C189 C190 1.399 . S
C189 C194 1.391 . S
C190 C184 1.465 1_545 S
C190 C189 1.399 . S
C190 C191 1.399 . S
C191 H177 0.929 . S
C191 C190 1.399 . S
C191 C192 1.385 . S
C192 H178 0.931 . S
C192 C191 1.385 . S
C192 C193 1.389 . S
C193 C192 1.389 . S
C193 C194 1.387 . S
C194 H179 0.930 1_554 S
C194 C189 1.391 . S
C194 C193 1.387 . S
H195 C207 0.930 . S
H196 C209 0.930 . S
H197 C210 0.930 . S
H198 C214 0.959 . S
H199 C214 0.959 . S
H200 C214 0.961 . S
H201 C215 0.960 . S
H202 C215 0.961 . S
H203 C215 0.959 . S
H204 C218 0.929 . S
H205 C219 0.931 . S
H206 C221 0.930 . S
C207 H195 0.930 . S
C207 C208 1.399 . S
C207 C212 1.399 . S
C208 C207 1.399 . S
C208 C209 1.376 . S
C209 H196 0.930 . S
C209 C208 1.376 . S
C209 C210 1.388 . S
C210 H197 0.930 . S
C210 C209 1.388 . S
C210 C211 1.390 . S
C211 C210 1.390 . S
C211 C212 1.394 . S
C211 C217 1.465 . S
C212 C207 1.399 . S
C212 C211 1.394 . S
C212 C213 1.516 . S
C213 C212 1.516 . S
C213 C214 1.502 . S
C213 C215 1.561 . S
C213 C216 1.526 . S
C214 H198 0.959 . S
C214 H199 0.959 . S
C214 H200 0.961 . S
C214 C213 1.502 . S
C215 H201 0.960 . S
C215 H202 0.961 . S
C215 H203 0.959 . S
C215 C213 1.561 . S
C216 C213 1.526 . S
C216 C217 1.396 . S
C216 C221 1.390 . S
C217 C211 1.465 . S
C217 C216 1.396 . S
C217 C218 1.399 . S
C218 H204 0.929 . S
C218 C217 1.399 . S
C218 C219 1.385 . S
C219 H205 0.931 . S
C219 C218 1.385 . S
C219 C220 1.389 . S
C220 C219 1.389 . S
C220 C221 1.387 . S
C221 H206 0.930 . S
C221 C216 1.390 . S
C221 C220 1.387 . S
H222 C234 0.930 . S
H223 C236 0.930 . S
H224 C237 0.930 . S
H225 C241 0.959 . S
H226 C241 0.960 . S
H227 C241 0.961 . S
H228 C242 0.960 1_655 S
H229 C242 0.961 . S
H230 C242 0.959 . S
H231 C245 0.929 . S
H232 C246 0.931 . S
H233 C248 0.930 . S
C234 H222 0.930 . S
C234 C235 1.399 . S
C234 C239 1.399 . S
C235 C234 1.399 . S
C235 C236 1.376 . S
C236 H223 0.930 . S
C236 C235 1.376 . S
C236 C237 1.388 . S
C237 H224 0.930 . S
C237 C236 1.388 . S
C237 C238 1.390 . S
C238 C237 1.390 . S
C238 C239 1.394 . S
C238 C244 1.465 1_655 S
C239 C234 1.399 . S
C239 C238 1.394 . S
C239 C240 1.516 . S
C240 C239 1.516 . S
C240 C241 1.502 . S
C240 C242 1.561 1_655 S
C240 C243 1.526 1_655 S
C241 H225 0.959 . S
C241 H226 0.960 . S
C241 H227 0.961 . S
C241 C240 1.502 . S
C242 H228 0.960 1_455 S
C242 H229 0.961 . S
C242 H230 0.959 . S
C242 C240 1.561 1_455 S
C243 C240 1.526 1_455 S
C243 C244 1.396 . S
C243 C248 1.390 . S
C244 C238 1.465 1_455 S
C244 C243 1.396 . S
C244 C245 1.399 . S
C245 H231 0.929 . S
C245 C244 1.399 . S
C245 C246 1.385 . S
C246 H232 0.931 . S
C246 C245 1.385 . S
C246 C247 1.389 . S
C247 C246 1.389 . S
C247 C248 1.387 . S
C248 H233 0.930 . S
C248 C243 1.390 . S
C248 C247 1.387 . S
H249 C261 0.930 . S
H250 C263 0.930 . S
H251 C264 0.930 . S
H252 C268 0.959 1_544 S
H253 C268 0.959 1_545 S
H254 C268 0.961 . S
H255 C269 0.960 . S
H256 C269 0.961 . S
H257 C269 0.959 . S
H258 C272 0.929 . S
H259 C273 0.931 . S
H260 C275 0.930 . S
C261 H249 0.930 . S
C261 C262 1.399 . S
C261 C266 1.399 . S
C262 C261 1.399 . S
C262 C263 1.376 . S
C263 H250 0.930 . S
C263 C262 1.376 . S
C263 C264 1.388 . S
C264 H251 0.930 . S
C264 C263 1.388 . S
C264 C265 1.390 . S
C265 C264 1.390 . S
C265 C266 1.394 . S
C265 C271 1.465 1_564 S
C266 C261 1.399 . S
C266 C265 1.394 . S
C266 C267 1.516 1_554 S
C267 C266 1.516 1_556 S
C267 C268 1.502 . S
C267 C269 1.561 . S
C267 C270 1.526 1_565 S
C268 H252 0.959 1_566 S
C268 H253 0.959 1_565 S
C268 H254 0.961 . S
C268 C267 1.502 . S
C269 H255 0.960 . S
C269 H256 0.961 . S
C269 H257 0.959 . S
C269 C267 1.561 . S
C270 C267 1.526 1_545 S
C270 C271 1.396 . S
C270 C275 1.390 . S
C271 C265 1.465 1_546 S
C271 C270 1.396 . S
C271 C272 1.399 1_556 S
C272 H258 0.929 . S
C272 C271 1.399 1_554 S
C272 C273 1.386 1_554 S
C273 H259 0.931 . S
C273 C272 1.386 1_556 S
C273 C274 1.389 . S
C274 C273 1.389 . S
C274 C275 1.387 . S
C275 H260 0.930 . S
C275 C270 1.390 . S
C275 C274 1.387 . S
H276 C288 0.930 . S
H277 C290 0.930 . S
H278 C291 0.930 . S
H279 C295 0.959 . S
H280 C295 0.959 . S
H281 C295 0.961 . S
H282 C296 0.960 . S
H283 C296 0.961 . S
H284 C296 0.959 . S
H285 C299 0.929 . S
H286 C300 0.931 . S
H287 C302 0.930 . S
C288 H276 0.930 . S
C288 C289 1.399 . S
C288 C293 1.399 . S
C289 C288 1.399 . S
C289 C290 1.376 . S
C290 H277 0.930 . S
C290 C289 1.376 . S
C290 C291 1.388 . S
C291 H278 0.930 . S
C291 C290 1.388 . S
C291 C292 1.390 . S
C292 C291 1.390 . S
C292 C293 1.394 . S
C292 C298 1.465 . S
C293 C288 1.399 . S
C293 C292 1.394 . S
C293 C294 1.516 . S
C294 C293 1.516 . S
C294 C295 1.502 . S
C294 C296 1.561 . S
C294 C297 1.526 . S
C295 H279 0.959 . S
C295 H280 0.959 . S
C295 H281 0.961 . S
C295 C294 1.502 . S
C296 H282 0.960 . S
C296 H283 0.961 . S
C296 H284 0.959 . S
C296 C294 1.561 . S
C297 C294 1.526 . S
C297 C298 1.396 . S
C297 C302 1.390 . S
C298 C292 1.465 . S
C298 C297 1.396 . S
C298 C299 1.399 . S
C299 H285 0.929 . S
C299 C298 1.399 . S
C299 C300 1.385 . S
C300 H286 0.931 . S
C300 C299 1.385 . S
C300 C301 1.389 . S
C301 C300 1.389 . S
C301 C302 1.387 . S
C302 H287 0.930 . S
C302 C297 1.390 . S
C302 C301 1.387 . S
H303 C315 0.930 . S
H304 C317 0.930 . S
H305 C318 0.930 . S
H306 C322 0.959 . S
H307 C322 0.959 . S
H308 C322 0.961 . S
H309 C323 0.960 . S
H310 C323 0.961 . S
H311 C323 0.959 . S
H312 C326 0.912 1_655 S
H313 C327 0.931 . S
H314 C329 0.930 . S
C315 H303 0.930 . S
C315 C316 1.399 . S
C315 C320 1.399 . S
C316 C315 1.399 . S
C316 C317 1.376 . S
C317 H304 0.930 . S
C317 C316 1.376 . S
C317 C318 1.388 . S
C318 H305 0.930 . S
C318 C317 1.388 . S
C318 C319 1.390 . S
C319 C318 1.390 . S
C319 C320 1.394 . S
C319 C325 1.465 1_655 S
C320 C315 1.399 . S
C320 C319 1.394 . S
C320 C321 1.516 1_655 S
C321 C320 1.516 1_455 S
C321 C322 1.502 . S
C321 C323 1.561 . S
C321 C324 1.526 . S
C322 H306 0.959 . S
C322 H307 0.959 . S
C322 H308 0.961 . S
C322 C321 1.502 . S
C323 H309 0.960 . S
C323 H310 0.961 . S
C323 H311 0.959 . S
C323 C321 1.561 . S
C324 C321 1.526 . S
C324 C325 1.396 . S
C324 C329 1.390 . S
C325 C319 1.465 1_455 S
C325 C324 1.396 . S
C325 C326 1.399 . S
C326 H312 0.912 1_455 S
C326 C325 1.399 . S
C326 C327 1.385 . S
C327 H313 0.931 . S
C327 C326 1.385 . S
C327 C328 1.389 . S
C328 C327 1.389 . S
C328 C329 1.387 . S
C329 H314 0.930 . S
C329 C324 1.390 . S
C329 C328 1.387 . S
H330 C342 0.930 . S
H331 C344 0.930 . S
H332 C345 0.930 . S
H333 C349 0.959 . S
H334 C349 0.959 . S
H335 C349 0.961 . S
H336 C350 0.960 . S
H337 C350 0.961 . S
H338 C350 0.959 . S
H339 C353 0.929 1_556 S
H340 C354 0.931 . S
H341 C356 0.930 . S
C342 H330 0.930 . S
C342 C343 1.399 . S
C342 C347 1.399 . S
C343 C342 1.399 . S
C343 C344 1.376 . S
C344 H331 0.930 . S
C344 C343 1.376 . S
C344 C345 1.388 . S
C345 H332 0.930 . S
C345 C344 1.388 . S
C345 C346 1.390 . S
C346 C345 1.390 . S
C346 C347 1.394 . S
C346 C352 1.467 . S
C347 C342 1.399 . S
C347 C346 1.394 . S
C347 C348 1.516 1_556 S
C348 C347 1.516 1_554 S
C348 C349 1.502 . S
C348 C350 1.561 1_554 S
C348 C351 1.526 . S
C349 H333 0.959 . S
C349 H334 0.959 . S
C349 H335 0.961 . S
C349 C348 1.502 . S
C350 H336 0.960 . S
C350 H337 0.961 . S
C350 H338 0.959 . S
C350 C348 1.561 1_556 S
C351 C348 1.526 . S
C351 C352 1.395 1_554 S
C351 C356 1.390 . S
C352 C346 1.467 . S
C352 C351 1.395 1_556 S
C352 C353 1.398 1_556 S
C353 H339 0.929 1_554 S
C353 C352 1.398 1_554 S
C353 C354 1.385 . S
C354 H340 0.931 . S
C354 C353 1.385 . S
C354 C355 1.389 . S
C355 C354 1.389 . S
C355 C356 1.387 . S
C356 H341 0.930 . S
C356 C351 1.390 . S
C356 C355 1.387 . S
H357 C369 0.930 . S
H358 C371 0.930 . S
H359 C372 0.930 . S
H360 C376 0.959 . S
H361 C376 0.959 . S
H362 C376 0.961 . S
H363 C377 0.960 . S
H364 C377 0.961 . S
H365 C377 0.959 . S
H366 C380 0.929 . S
H367 C381 0.931 . S
H368 C383 0.930 . S
C369 H357 0.930 . S
C369 C370 1.399 . S
C369 C374 1.399 . S
C370 C369 1.399 . S
C370 C371 1.376 . S
C371 H358 0.930 . S
C371 C370 1.376 . S
C371 C372 1.388 . S
C372 H359 0.930 . S
C372 C371 1.388 . S
C372 C373 1.390 . S
C373 C372 1.390 . S
C373 C374 1.394 . S
C373 C379 1.465 . S
C374 C369 1.399 . S
C374 C373 1.394 . S
C374 C375 1.516 . S
C375 C374 1.516 . S
C375 C376 1.502 . S
C375 C377 1.561 . S
C375 C378 1.526 . S
C376 H360 0.959 . S
C376 H361 0.959 . S
C376 H362 0.961 . S
C376 C375 1.502 . S
C377 H363 0.960 . S
C377 H364 0.961 . S
C377 H365 0.959 . S
C377 C375 1.561 . S
C378 C375 1.526 . S
C378 C379 1.396 . S
C378 C383 1.390 . S
C379 C373 1.465 . S
C379 C378 1.396 . S
C379 C380 1.399 . S
C380 H366 0.929 . S
C380 C379 1.399 . S
C380 C381 1.385 . S
C381 H367 0.931 . S
C381 C380 1.385 . S
C381 C382 1.389 . S
C382 C381 1.389 . S
C382 C383 1.387 . S
C383 H368 0.930 . S
C383 C378 1.390 . S
C383 C382 1.387 . S
H384 C396 0.930 . S
H385 C398 0.930 . S
H386 C399 0.930 . S
H387 C403 0.959 . S
H388 C403 0.959 . S
H389 C403 0.961 . S
H390 C404 0.960 . S
H391 C404 0.961 . S
H392 C404 0.959 . S
H393 C407 0.929 . S
H394 C408 0.931 . S
H395 C410 0.930 . S
C396 H384 0.930 . S
C396 C397 1.399 . S
C396 C401 1.399 . S
C397 C396 1.399 . S
C397 C398 1.376 . S
C398 H385 0.930 . S
C398 C397 1.376 . S
C398 C399 1.388 . S
C399 H386 0.930 . S
C399 C398 1.388 . S
C399 C400 1.390 . S
C400 C399 1.390 . S
C400 C401 1.394 . S
C400 C406 1.465 . S
C401 C396 1.399 . S
C401 C400 1.394 . S
C401 C402 1.516 . S
C402 C401 1.516 . S
C402 C403 1.502 . S
C402 C404 1.561 . S
C402 C405 1.526 . S
C403 H387 0.959 . S
C403 H388 0.959 . S
C403 H389 0.961 . S
C403 C402 1.502 . S
C404 H390 0.960 . S
C404 H391 0.961 . S
C404 H392 0.959 . S
C404 C402 1.561 . S
C405 C402 1.526 . S
C405 C406 1.396 . S
C405 C410 1.390 . S
C406 C400 1.465 . S
C406 C405 1.396 . S
C406 C407 1.399 . S
C407 H393 0.929 . S
C407 C406 1.399 . S
C407 C408 1.385 . S
C408 H394 0.931 . S
C408 C407 1.385 . S
C408 C409 1.389 . S
C409 C408 1.389 . S
C409 C410 1.387 . S
C410 H395 0.930 . S
C410 C405 1.390 . S
C410 C409 1.387 . S
H411 C423 0.928 1_554 S
H412 C425 0.930 . S
H413 C426 0.930 . S
H414 C430 0.959 . S
H415 C430 0.959 . S
H416 C430 0.961 . S
H417 C431 0.960 . S
H418 C431 0.961 . S
H419 C431 0.959 1_556 S
H420 C434 0.929 . S
H421 C435 0.939 . S
H422 C437 0.930 . S
C423 H411 0.928 1_556 S
C423 C424 1.399 . S
C423 C428 1.399 . S
C424 C423 1.399 . S
C424 C425 1.376 . S
C425 H412 0.930 . S
C425 C424 1.376 . S
C425 C426 1.388 . S
C426 H413 0.930 . S
C426 C425 1.388 . S
C426 C427 1.390 . S
C427 C426 1.390 . S
C427 C428 1.394 . S
C427 C433 1.465 . S
C428 C423 1.399 . S
C428 C427 1.394 . S
C428 C429 1.516 1_556 S
C429 C428 1.516 1_554 S
C429 C430 1.502 . S
C429 C431 1.561 . S
C429 C432 1.526 . S
C430 H414 0.959 . S
C430 H415 0.959 . S
C430 H416 0.961 . S
C430 C429 1.502 . S
C431 H417 0.960 . S
C431 H418 0.961 . S
C431 H419 0.959 1_554 S
C431 C429 1.561 . S
C432 C429 1.526 . S
C432 C433 1.396 1_554 S
C432 C437 1.390 . S
C433 C427 1.465 . S
C433 C432 1.396 1_556 S
C433 C434 1.399 . S
C434 H420 0.929 . S
C434 C433 1.399 . S
C434 C435 1.385 1_556 S
C435 H421 0.939 . S
C435 C434 1.385 1_554 S
C435 C436 1.389 . S
C436 C435 1.389 . S
C436 C437 1.387 . S
C437 H422 0.930 . S
C437 C432 1.390 . S
C437 C436 1.387 . S
H438 C450 0.930 . S
H439 C452 0.930 . S
H440 C453 0.930 . S
H441 C457 0.959 . S
H442 C457 0.959 . S
H443 C457 0.961 . S
H444 C458 0.960 . S
H445 C458 0.961 . S
H446 C458 0.959 . S
H447 C461 0.929 . S
H448 C462 0.931 . S
H449 C464 0.930 . S
C450 H438 0.930 . S
C450 C451 1.399 . S
C450 C455 1.399 . S
C451 C450 1.399 . S
C451 C452 1.376 . S
C452 H439 0.930 . S
C452 C451 1.376 . S
C452 C453 1.388 . S
C453 H440 0.930 . S
C453 C452 1.388 . S
C453 C454 1.390 . S
C454 C453 1.390 . S
C454 C455 1.394 . S
C454 C460 1.465 . S
C455 C450 1.399 . S
C455 C454 1.394 . S
C455 C456 1.516 . S
C456 C455 1.516 . S
C456 C457 1.502 . S
C456 C458 1.561 . S
C456 C459 1.526 . S
C457 H441 0.959 . S
C457 H442 0.959 . S
C457 H443 0.961 . S
C457 C456 1.502 . S
C458 H444 0.960 . S
C458 H445 0.961 . S
C458 H446 0.959 . S
C458 C456 1.561 . S
C459 C456 1.526 . S
C459 C460 1.396 . S
C459 C464 1.390 . S
C460 C454 1.465 . S
C460 C459 1.396 . S
C460 C461 1.399 . S
C461 H447 0.929 . S
C461 C460 1.399 . S
C461 C462 1.385 . S
C462 H448 0.931 . S
C462 C461 1.385 . S
C462 C463 1.389 . S
C463 C462 1.389 . S
C463 C464 1.387 . S
C464 H449 0.930 . S
C464 C459 1.390 . S
C464 C463 1.387 . S
H465 C477 0.930 . S
H466 C479 0.930 . S
H467 C480 0.930 . S
H468 C484 0.959 . S
H469 C484 0.959 . S
H470 C484 0.961 . S
H471 C485 0.960 . S
H472 C485 0.961 . S
H473 C485 0.959 . S
H474 C488 0.929 . S
H475 C489 0.931 . S
H476 C491 0.930 . S
C477 H465 0.930 . S
C477 C478 1.399 . S
C477 C482 1.399 . S
C478 C477 1.399 . S
C478 C479 1.376 . S
C479 H466 0.930 . S
C479 C478 1.376 . S
C479 C480 1.388 . S
C480 H467 0.930 . S
C480 C479 1.388 . S
C480 C481 1.390 . S
C481 C480 1.390 . S
C481 C482 1.394 . S
C481 C487 1.465 . S
C482 C477 1.399 . S
C482 C481 1.394 . S
C482 C483 1.516 . S
C483 C482 1.516 . S
C483 C484 1.502 . S
C483 C485 1.561 . S
C483 C486 1.526 . S
C484 H468 0.959 . S
C484 H469 0.959 . S
C484 H470 0.961 . S
C484 C483 1.502 . S
C485 H471 0.960 . S
C485 H472 0.961 . S
C485 H473 0.959 . S
C485 C483 1.561 . S
C486 C483 1.526 . S
C486 C487 1.396 . S
C486 C491 1.390 . S
C487 C481 1.465 . S
C487 C486 1.396 . S
C487 C488 1.399 . S
C488 H474 0.929 . S
C488 C487 1.399 . S
C488 C489 1.385 . S
C489 H475 0.931 . S
C489 C488 1.385 . S
C489 C490 1.389 . S
C490 C489 1.389 . S
C490 C491 1.387 . S
C491 H476 0.930 . S
C491 C486 1.390 . S
C491 C490 1.387 . S
H492 C504 0.930 . S
H493 C506 0.930 . S
H494 C507 0.930 . S
H495 C511 0.959 . S
H496 C511 0.959 . S
H497 C511 0.961 . S
H498 C512 0.960 . S
H499 C512 0.961 . S
H500 C512 0.959 . S
H501 C515 0.929 . S
H502 C516 0.931 . S
H503 C518 0.930 . S
C504 H492 0.930 . S
C504 C505 1.399 . S
C504 C509 1.399 . S
C505 C504 1.399 . S
C505 C506 1.376 . S
C506 H493 0.930 . S
C506 C505 1.376 . S
C506 C507 1.388 . S
C507 H494 0.930 . S
C507 C506 1.388 . S
C507 C508 1.390 . S
C508 C507 1.390 . S
C508 C509 1.394 . S
C508 C514 1.465 . S
C509 C504 1.399 . S
C509 C508 1.394 . S
C509 C510 1.516 . S
C510 C509 1.516 . S
C510 C511 1.502 . S
C510 C512 1.561 . S
C510 C513 1.526 . S
C511 H495 0.959 . S
C511 H496 0.959 . S
C511 H497 0.961 . S
C511 C510 1.502 . S
C512 H498 0.960 . S
C512 H499 0.961 . S
C512 H500 0.959 . S
C512 C510 1.561 . S
C513 C510 1.526 . S
C513 C514 1.396 . S
C513 C518 1.390 . S
C514 C508 1.465 . S
C514 C513 1.396 . S
C514 C515 1.399 . S
C515 H501 0.929 . S
C515 C514 1.399 . S
C515 C516 1.385 . S
C516 H502 0.931 . S
C516 C515 1.385 . S
C516 C517 1.389 . S
C517 C516 1.389 . S
C517 C518 1.387 . S
C518 H503 0.930 . S
C518 C513 1.390 . S
C518 C517 1.387 . S
H519 C531 0.930 . S
H520 C533 0.930 . S
H521 C534 0.930 . S
H522 C538 0.959 . S
H523 C538 0.959 . S
H524 C538 0.961 . S
H525 C539 0.960 . S
H526 C539 0.961 . S
H527 C539 0.959 . S
H528 C542 0.929 . S
H529 C543 0.931 . S
H530 C545 0.930 . S
C531 H519 0.930 . S
C531 C532 1.399 . S
C531 C536 1.399 . S
C532 C531 1.399 . S
C532 C533 1.376 . S
C533 H520 0.930 . S
C533 C532 1.376 . S
C533 C534 1.388 . S
C534 H521 0.930 . S
C534 C533 1.388 . S
C534 C535 1.390 . S
C535 C534 1.390 . S
C535 C536 1.394 . S
C535 C541 1.465 . S
C536 C531 1.399 . S
C536 C535 1.394 . S
C536 C537 1.516 . S
C537 C536 1.516 . S
C537 C538 1.502 . S
C537 C539 1.561 . S
C537 C540 1.526 . S
C538 H522 0.959 . S
C538 H523 0.959 . S
C538 H524 0.961 . S
C538 C537 1.502 . S
C539 H525 0.960 . S
C539 H526 0.961 . S
C539 H527 0.959 . S
C539 C537 1.561 . S
C540 C537 1.526 . S
C540 C541 1.396 . S
C540 C545 1.390 . S
C541 C535 1.465 . S
C541 C540 1.396 . S
C541 C542 1.399 . S
C542 H528 0.929 . S
C542 C541 1.399 . S
C542 C543 1.385 . S
C543 H529 0.931 . S
C543 C542 1.385 . S
C543 C544 1.389 . S
C544 C543 1.389 . S
C544 C545 1.387 . S
C545 H530 0.930 . S
C545 C540 1.390 . S
C545 C544 1.387 . S
H546 C558 0.930 . S
H547 C560 0.930 . S
H548 C561 0.930 . S
H549 C565 0.959 . S
H550 C565 0.959 . S
H551 C565 0.961 . S
H552 C566 0.960 . S
H553 C566 0.961 . S
H554 C566 0.959 . S
H555 C569 0.929 . S
H556 C570 0.931 . S
H557 C572 0.930 . S
C558 H546 0.930 . S
C558 C559 1.399 . S
C558 C563 1.399 . S
C559 C558 1.399 . S
C559 C560 1.376 . S
C560 H547 0.930 . S
C560 C559 1.376 . S
C560 C561 1.388 . S
C561 H548 0.930 . S
C561 C560 1.388 . S
C561 C562 1.390 . S
C562 C561 1.390 . S
C562 C563 1.394 . S
C562 C568 1.465 . S
C563 C558 1.399 . S
C563 C562 1.394 . S
C563 C564 1.516 . S
C564 C563 1.516 . S
C564 C565 1.502 . S
C564 C566 1.561 . S
C564 C567 1.526 . S
C565 H549 0.959 . S
C565 H550 0.959 . S
C565 H551 0.961 . S
C565 C564 1.502 . S
C566 H552 0.960 . S
C566 H553 0.961 . S
C566 H554 0.959 . S
C566 C564 1.561 . S
C567 C564 1.526 . S
C567 C568 1.396 . S
C567 C572 1.390 . S
C568 C562 1.465 . S
C568 C567 1.396 . S
C568 C569 1.399 . S
C569 H555 0.929 . S
C569 C568 1.399 . S
C569 C570 1.385 . S
C570 H556 0.931 . S
C570 C569 1.385 . S
C570 C571 1.389 . S
C571 C570 1.389 . S
C571 C572 1.387 . S
C572 H557 0.930 . S
C572 C567 1.390 . S
C572 C571 1.387 . S
H573 C585 0.930 . S
H574 C587 0.930 . S
H575 C588 0.930 . S
H576 C592 0.959 . S
H577 C592 0.959 . S
H578 C592 0.961 . S
H579 C593 0.960 . S
H580 C593 0.961 . S
H581 C593 0.959 . S
H582 C596 0.929 . S
H583 C597 0.931 . S
H584 C599 0.930 . S
C585 H573 0.930 . S
C585 C586 1.399 . S
C585 C590 1.399 . S
C586 C585 1.399 . S
C586 C587 1.376 . S
C587 H574 0.930 . S
C587 C586 1.376 . S
C587 C588 1.388 . S
C588 H575 0.930 . S
C588 C587 1.388 . S
C588 C589 1.390 . S
C589 C588 1.390 . S
C589 C590 1.394 . S
C589 C595 1.465 . S
C590 C585 1.399 . S
C590 C589 1.394 . S
C590 C591 1.516 . S
C591 C590 1.516 . S
C591 C592 1.502 . S
C591 C593 1.561 . S
C591 C594 1.526 . S
C592 H576 0.959 . S
C592 H577 0.959 . S
C592 H578 0.961 . S
C592 C591 1.502 . S
C593 H579 0.960 . S
C593 H580 0.961 . S
C593 H581 0.959 . S
C593 C591 1.561 . S
C594 C591 1.526 . S
C594 C595 1.396 . S
C594 C599 1.390 . S
C595 C589 1.465 . S
C595 C594 1.396 . S
C595 C596 1.399 . S
C596 H582 0.929 . S
C596 C595 1.399 . S
C596 C597 1.385 . S
C597 H583 0.931 . S
C597 C596 1.385 . S
C597 C598 1.389 . S
C598 C597 1.389 . S
C598 C599 1.387 . S
C599 H584 0.930 . S
C599 C594 1.390 . S
C599 C598 1.387 . S
H600 C612 0.930 . S
H601 C614 0.930 . S
H602 C615 0.930 . S
H603 C619 0.959 . S
H604 C619 0.959 . S
H605 C619 0.961 . S
H606 C620 0.960 . S
H607 C620 0.961 . S
H608 C620 0.959 . S
H609 C623 0.929 . S
H610 C624 0.931 . S
H611 C626 0.930 . S
C612 H600 0.930 . S
C612 C613 1.399 . S
C612 C617 1.399 . S
C613 C612 1.399 . S
C613 C614 1.376 . S
C614 H601 0.930 . S
C614 C613 1.376 . S
C614 C615 1.388 . S
C615 H602 0.930 . S
C615 C614 1.388 . S
C615 C616 1.390 . S
C616 C615 1.390 . S
C616 C617 1.394 . S
C616 C622 1.465 . S
C617 C612 1.399 . S
C617 C616 1.394 . S
C617 C618 1.516 . S
C618 C617 1.516 . S
C618 C619 1.502 . S
C618 C620 1.561 . S
C618 C621 1.526 . S
C619 H603 0.959 . S
C619 H604 0.959 . S
C619 H605 0.961 . S
C619 C618 1.502 . S
C620 H606 0.960 . S
C620 H607 0.961 . S
C620 H608 0.959 . S
C620 C618 1.561 . S
C621 C618 1.526 . S
C621 C622 1.396 . S
C621 C626 1.390 . S
C622 C616 1.465 . S
C622 C621 1.396 . S
C622 C623 1.399 . S
C623 H609 0.929 . S
C623 C622 1.399 . S
C623 C624 1.385 . S
C624 H610 0.931 . S
C624 C623 1.385 . S
C624 C625 1.389 . S
C625 C624 1.389 . S
C625 C626 1.387 . S
C626 H611 0.930 . S
C626 C621 1.390 . S
C626 C625 1.387 . S
H627 C639 0.930 . S
H628 C641 0.930 . S
H629 C642 0.930 . S
H630 C646 0.959 . S
H631 C646 0.959 . S
H632 C646 0.961 . S
H633 C647 0.960 . S
H634 C647 0.961 . S
H635 C647 0.959 . S
H636 C650 0.929 . S
H637 C651 0.931 . S
H638 C653 0.930 . S
C639 H627 0.930 . S
C639 C640 1.399 . S
C639 C644 1.399 . S
C640 C639 1.399 . S
C640 C641 1.376 . S
C641 H628 0.930 . S
C641 C640 1.376 . S
C641 C642 1.388 . S
C642 H629 0.930 . S
C642 C641 1.388 . S
C642 C643 1.390 . S
C643 C642 1.390 . S
C643 C644 1.394 . S
C643 C649 1.465 . S
C644 C639 1.399 . S
C644 C643 1.394 . S
C644 C645 1.516 . S
C645 C644 1.516 . S
C645 C646 1.502 . S
C645 C647 1.561 . S
C645 C648 1.526 . S
C646 H630 0.959 . S
C646 H631 0.959 . S
C646 H632 0.961 . S
C646 C645 1.502 . S
C647 H633 0.960 . S
C647 H634 0.961 . S
C647 H635 0.959 . S
C647 C645 1.561 . S
C648 C645 1.526 . S
C648 C649 1.396 . S
C648 C653 1.390 . S
C649 C643 1.465 . S
C649 C648 1.396 . S
C649 C650 1.399 . S
C650 H636 0.929 . S
C650 C649 1.399 . S
C650 C651 1.385 . S
C651 H637 0.931 . S
C651 C650 1.385 . S
C651 C652 1.389 . S
C652 C651 1.389 . S
C652 C653 1.387 . S
C653 H638 0.930 . S
C653 C648 1.390 . S
C653 C652 1.387 . S
H654 C666 0.930 . S
H655 C668 0.930 . S
H656 C669 0.930 . S
H657 C673 0.959 . S
H658 C673 0.959 . S
H659 C673 0.961 . S
H660 C674 0.960 . S
H661 C674 0.961 . S
H662 C674 0.959 . S
H663 C677 0.929 . S
H664 C678 0.931 . S
H665 C680 0.930 . S
C666 H654 0.930 . S
C666 C667 1.399 . S
C666 C671 1.399 . S
C667 C666 1.399 . S
C667 C668 1.376 . S
C668 H655 0.930 . S
C668 C667 1.376 . S
C668 C669 1.388 . S
C669 H656 0.930 . S
C669 C668 1.388 . S
C669 C670 1.390 . S
C670 C669 1.390 . S
C670 C671 1.394 . S
C670 C676 1.465 . S
C671 C666 1.399 . S
C671 C670 1.394 . S
C671 C672 1.516 . S
C672 C671 1.516 . S
C672 C673 1.502 . S
C672 C674 1.561 . S
C672 C675 1.526 . S
C673 H657 0.959 . S
C673 H658 0.959 . S
C673 H659 0.961 . S
C673 C672 1.502 . S
C674 H660 0.960 . S
C674 H661 0.961 . S
C674 H662 0.959 . S
C674 C672 1.561 . S
C675 C672 1.526 . S
C675 C676 1.396 . S
C675 C680 1.390 . S
C676 C670 1.465 . S
C676 C675 1.396 . S
C676 C677 1.399 . S
C677 H663 0.929 . S
C677 C676 1.399 . S
C677 C678 1.385 . S
C678 H664 0.931 . S
C678 C677 1.385 . S
C678 C679 1.389 . S
C679 C678 1.389 . S
C679 C680 1.387 . S
C680 H665 0.930 . S
C680 C675 1.390 . S
C680 C679 1.387 . S
H681 C693 0.930 . S
H682 C695 0.930 . S
H683 C696 0.930 . S
H684 C700 0.959 . S
H685 C700 0.959 . S
H686 C700 0.961 . S
H687 C701 0.960 . S
H688 C701 0.961 . S
H689 C701 0.959 . S
H690 C704 0.929 1_655 S
H691 C705 0.931 . S
H692 C707 0.930 . S
C693 H681 0.930 . S
C693 C694 1.399 . S
C693 C698 1.399 . S
C694 C693 1.399 . S
C694 C695 1.376 . S
C695 H682 0.930 . S
C695 C694 1.376 . S
C695 C696 1.388 . S
C696 H683 0.930 . S
C696 C695 1.388 . S
C696 C697 1.390 . S
C697 C696 1.390 . S
C697 C698 1.394 . S
C697 C703 1.465 1_655 S
C698 C693 1.399 . S
C698 C697 1.394 . S
C698 C699 1.516 1_655 S
C699 C698 1.516 1_455 S
C699 C700 1.502 . S
C699 C701 1.561 1_455 S
C699 C702 1.526 . S
C700 H684 0.959 . S
C700 H685 0.959 . S
C700 H686 0.961 . S
C700 C699 1.502 . S
C701 H687 0.960 . S
C701 H688 0.961 . S
C701 H689 0.959 . S
C701 C699 1.561 1_655 S
C702 C699 1.526 . S
C702 C703 1.396 . S
C702 C707 1.390 . S
C703 C697 1.465 1_455 S
C703 C702 1.396 . S
C703 C704 1.399 . S
C704 H690 0.929 1_455 S
C704 C703 1.399 . S
C704 C705 1.385 . S
C705 H691 0.931 . S
C705 C704 1.385 . S
C705 C706 1.389 . S
C706 C705 1.389 . S
C706 C707 1.387 . S
C707 H692 0.930 . S
C707 C702 1.390 . S
C707 C706 1.387 . S
H708 C720 0.930 . S
H709 C722 0.930 . S
H710 C723 0.930 . S
H711 C727 0.959 . S
H712 C727 0.959 . S
H713 C727 0.960 1_545 S
H714 C728 0.960 . S
H715 C728 0.961 . S
H716 C728 0.959 . S
H717 C731 0.929 . S
H718 C732 0.931 . S
H719 C734 0.930 . S
C720 H708 0.930 . S
C720 C721 1.399 . S
C720 C725 1.399 . S
C721 C720 1.399 . S
C721 C722 1.376 . S
C722 H709 0.930 . S
C722 C721 1.376 . S
C722 C723 1.388 . S
C723 H710 0.930 . S
C723 C722 1.388 . S
C723 C724 1.390 . S
C724 C723 1.390 . S
C724 C725 1.394 . S
C724 C730 1.465 1_545 S
C725 C720 1.399 . S
C725 C724 1.394 . S
C725 C726 1.516 . S
C726 C725 1.516 . S
C726 C727 1.502 1_545 S
C726 C728 1.561 . S
C726 C729 1.526 1_545 S
C727 H711 0.959 . S
C727 H712 0.959 . S
C727 H713 0.960 1_565 S
C727 C726 1.502 1_565 S
C728 H714 0.960 . S
C728 H715 0.961 . S
C728 H716 0.959 . S
C728 C726 1.561 . S
C729 C726 1.526 1_565 S
C729 C730 1.396 . S
C729 C734 1.390 . S
C730 C724 1.465 1_565 S
C730 C729 1.396 . S
C730 C731 1.399 . S
C731 H717 0.929 . S
C731 C730 1.399 . S
C731 C732 1.385 . S
C732 H718 0.931 . S
C732 C731 1.385 . S
C732 C733 1.389 . S
C733 C732 1.389 . S
C733 C734 1.387 . S
C734 H719 0.930 . S
C734 C729 1.390 . S
C734 C733 1.387 . S
H735 C747 0.930 . S
H736 C749 0.930 . S
H737 C750 0.930 . S
H738 C754 0.959 . S
H739 C754 0.959 . S
H740 C754 0.961 . S
H741 C755 0.960 . S
H742 C755 0.961 . S
H743 C755 0.959 . S
H744 C758 0.929 . S
H745 C759 0.931 . S
H746 C761 0.930 . S
C747 H735 0.930 . S
C747 C748 1.399 . S
C747 C752 1.399 . S
C748 C747 1.399 . S
C748 C749 1.376 . S
C749 H736 0.930 . S
C749 C748 1.376 . S
C749 C750 1.388 . S
C750 H737 0.930 . S
C750 C749 1.388 . S
C750 C751 1.390 . S
C751 C750 1.390 . S
C751 C752 1.394 . S
C751 C757 1.465 . S
C752 C747 1.399 . S
C752 C751 1.394 . S
C752 C753 1.516 . S
C753 C752 1.516 . S
C753 C754 1.502 . S
C753 C755 1.561 . S
C753 C756 1.526 . S
C754 H738 0.959 . S
C754 H739 0.959 . S
C754 H740 0.961 . S
C754 C753 1.502 . S
C755 H741 0.960 . S
C755 H742 0.961 . S
C755 H743 0.959 . S
C755 C753 1.561 . S
C756 C753 1.526 . S
C756 C757 1.396 . S
C756 C761 1.390 . S
C757 C751 1.465 . S
C757 C756 1.396 . S
C757 C758 1.399 . S
C758 H744 0.929 . S
C758 C757 1.399 . S
C758 C759 1.385 . S
C759 H745 0.931 . S
C759 C758 1.385 . S
C759 C760 1.389 . S
C760 C759 1.389 . S
C760 C761 1.387 . S
C761 H746 0.930 . S
C761 C756 1.390 . S
C761 C760 1.387 . S
H762 C774 0.930 . S
H763 C776 0.930 . S
H764 C777 0.930 . S
H765 C781 0.959 . S
H766 C781 0.959 . S
H767 C781 0.961 . S
H768 C782 0.960 . S
H769 C782 0.961 1_655 S
H770 C782 0.959 . S
H771 C785 0.929 1_455 S
H772 C786 0.931 . S
H773 C788 0.930 . S
C774 H762 0.930 . S
C774 C775 1.399 . S
C774 C779 1.399 . S
C775 C774 1.399 . S
C775 C776 1.376 . S
C776 H763 0.930 . S
C776 C775 1.376 . S
C776 C777 1.388 . S
C777 H764 0.930 . S
C777 C776 1.388 . S
C777 C778 1.390 . S
C778 C777 1.390 . S
C778 C779 1.394 . S
C778 C784 1.465 1_455 S
C779 C774 1.399 . S
C779 C778 1.394 . S
C779 C780 1.516 1_455 S
C780 C779 1.516 1_655 S
C780 C781 1.502 . S
C780 C782 1.561 1_655 S
C780 C783 1.526 . S
C781 H765 0.959 . S
C781 H766 0.959 . S
C781 H767 0.961 . S
C781 C780 1.502 . S
C782 H768 0.960 . S
C782 H769 0.961 1_455 S
C782 H770 0.959 . S
C782 C780 1.561 1_455 S
C783 C780 1.526 . S
C783 C784 1.403 . S
C783 C788 1.390 . S
C784 C778 1.465 1_655 S
C784 C783 1.403 . S
C784 C785 1.393 . S
C785 H771 0.929 1_655 S
C785 C784 1.393 . S
C785 C786 1.385 . S
C786 H772 0.931 . S
C786 C785 1.385 . S
C786 C787 1.389 . S
C787 C786 1.389 . S
C787 C788 1.387 . S
C788 H773 0.930 . S
C788 C783 1.390 . S
C788 C787 1.387 . S
H789 C801 0.930 . S
H790 C803 0.930 . S
H791 C804 0.930 . S
H792 C808 0.959 . S
H793 C808 0.959 . S
H794 C808 0.961 . S
H795 C809 0.960 . S
H796 C809 0.961 1_545 S
H797 C809 0.959 . S
H798 C812 0.929 . S
H799 C813 0.931 . S
H800 C815 0.930 . S
C801 H789 0.930 . S
C801 C802 1.399 . S
C801 C806 1.399 . S
C802 C801 1.399 . S
C802 C803 1.376 . S
C803 H790 0.930 . S
C803 C802 1.376 . S
C803 C804 1.388 . S
C804 H791 0.930 . S
C804 C803 1.388 . S
C804 C805 1.390 . S
C805 C804 1.390 . S
C805 C806 1.394 . S
C805 C811 1.465 . S
C806 C801 1.399 . S
C806 C805 1.394 . S
C806 C807 1.516 1_565 S
C807 C806 1.516 1_545 S
C807 C808 1.502 . S
C807 C809 1.561 1_545 S
C807 C810 1.526 . S
C808 H792 0.959 . S
C808 H793 0.959 . S
C808 H794 0.961 . S
C808 C807 1.502 . S
C809 H795 0.960 . S
C809 H796 0.961 1_565 S
C809 H797 0.959 . S
C809 C807 1.561 1_565 S
C810 C807 1.526 . S
C810 C811 1.396 1_545 S
C810 C815 1.390 . S
C811 C805 1.465 . S
C811 C810 1.396 1_565 S
C811 C812 1.399 . S
C812 H798 0.929 . S
C812 C811 1.399 . S
C812 C813 1.385 1_565 S
C813 H799 0.931 . S
C813 C812 1.385 1_545 S
C813 C814 1.389 . S
C814 C813 1.389 . S
C814 C815 1.387 . S
C815 H800 0.930 . S
C815 C810 1.390 . S
C815 C814 1.387 . S
C181 C98 1.350 . S
C193 C0 1.369 . S
C208 C14 1.370 . S
C220 C112 1.352 . S
C235 C28 1.372 . S
C247 C126 1.361 . S
C262 C42 1.315 . S
C274 C140 1.308 . S
C289 C154 1.346 . S
C301 C56 1.366 . S
C316 C84 1.343 . S
C328 C70 1.365 . S
C343 C145 1.398 . S
C355 C5 1.410 . S
C370 C19 1.407 . S
C382 C159 1.427 . S
C397 C33 1.416 . S
C409 C89 1.398 . S
C424 C103 1.397 . S
C436 C47 1.416 . S
C451 C117 1.412 . S
C463 C61 1.398 . S
C478 C131 1.404 . S
C490 C75 1.402 . S
C505 C11 1.687 . S
C517 C123 1.684 . S
C532 C25 1.715 . S
C544 C137 1.708 . S
C559 C151 1.683 . S
C571 C39 1.684 . S
C586 C53 1.684 . S
C598 C165 1.684 . S
C613 C95 1.723 . S
C625 C67 1.717 . S
C640 C109 1.687 . S
C652 C81 1.684 . S
C667 C51 1.345 . S
C679 C9 1.379 . S
C694 C65 1.339 . S
C706 C23 1.383 . S
C721 C37 1.359 . S
C733 C79 1.369 . S
C748 C93 1.364 . S
C760 C135 1.317 . S
C775 C107 1.338 . S
C787 C149 1.384 . S
C802 C163 1.333 . S
C814 C121 1.385 . S
