# Generated by pormake.
# Topology oof, (8)-cn, num edge types: 1
# Building blocks:
#     Node 0, Type 0, BuildingBlock: EBIMEJ_clean_sbu_0, # of connection points: 8
#     Node 1, Type 0, BuildingBlock: EBIMEJ_clean_sbu_0, # of connection points: 8
#     Node 2, Type 0, BuildingBlock: EBIMEJ_clean_sbu_0, # of connection points: 8
#     Node 3, Type 0, BuildingBlock: EBIMEJ_clean_sbu_0, # of connection points: 8
#     Edge 4, Type (0, 0), BuildingBlock: EZIPEK_clean_linker_0, # of connection points: 2
#     Edge 5, Type (0, 0), BuildingBlock: EZIPEK_clean_linker_0, # of connection points: 2
#     Edge 6, Type (0, 0), BuildingBlock: EZIPEK_clean_linker_0, # of connection points: 2
#     Edge 7, Type (0, 0), BuildingBlock: EZIPEK_clean_linker_0, # of connection points: 2
#     Edge 8, Type (0, 0), BuildingBlock: EZIPEK_clean_linker_0, # of connection points: 2
#     Edge 9, Type (0, 0), BuildingBlock: EZIPEK_clean_linker_0, # of connection points: 2
#     Edge 10, Type (0, 0), BuildingBlock: EZIPEK_clean_linker_0, # of connection points: 2
#     Edge 11, Type (0, 0), BuildingBlock: EZIPEK_clean_linker_0, # of connection points: 2
#     Edge 12, Type (0, 0), BuildingBlock: EZIPEK_clean_linker_0, # of connection points: 2
#     Edge 13, Type (0, 0), BuildingBlock: EZIPEK_clean_linker_0, # of connection points: 2
#     Edge 14, Type (0, 0), BuildingBlock: EZIPEK_clean_linker_0, # of connection points: 2
#     Edge 15, Type (0, 0), BuildingBlock: EZIPEK_clean_linker_0, # of connection points: 2
#     Edge 16, Type (0, 0), BuildingBlock: EZIPEK_clean_linker_0, # of connection points: 2
#     Edge 17, Type (0, 0), BuildingBlock: EZIPEK_clean_linker_0, # of connection points: 2
#     Edge 18, Type (0, 0), BuildingBlock: EZIPEK_clean_linker_0, # of connection points: 2
#     Edge 19, Type (0, 0), BuildingBlock: EZIPEK_clean_linker_0, # of connection points: 2
# Relax obj value: 0.049
# Max RMSD: 0.147
# Mean RMSD: 0.147
data_MOF--net-oof--node1-EBIMEJ_clean_sbu_0--edge1-EZIPEK_clean_linker_0
_symmetry_space_group_name_H-M    P1
_symmetry_Int_Tables_number       1
_symmetry_cell_setting            triclinic
loop_
_symmetry_equiv_pos_as_xyz
'x, y, z'
_cell_length_a     11.416791
_cell_length_b     52.828932
_cell_length_c     13.631913
_cell_angle_alpha  78.64298
_cell_angle_beta   122.18012
_cell_angle_gamma 94.749599
loop_
_atom_site_label
_atom_site_type_symbol
_atom_site_fract_x
_atom_site_fract_y
_atom_site_fract_z
_atom_type_partial_charge
Co0 Co 0.95097 0.19512 0.3461 0.0
Co1 Co 0.95476 0.17027 0.14744 0.0
Co2 Co 0.98872 0.13504 0.36471 0.0
H3 H 0.98939 0.16527 0.34147 0.0
O4 O 0.04152 0.17128 0.31535 0.0
H5 H 0.974 0.13978 0.17723 0.0
O6 O 0.91977 0.13264 0.19974 0.0
Co7 Co 0.04262 0.11149 0.18565 0.0
O8 O 0.02524 0.13084 0.03423 0.0
O9 O 0.89377 0.16631 0.9827 0.0
O10 O 0.05317 0.08217 0.31206 0.0
O11 O 0.96499 0.09728 0.40457 0.0
O12 O 0.99227 0.22551 0.43404 0.0
O13 O 0.12588 0.21622 0.38599 0.0
O14 O 0.19887 0.1292 0.3085 0.0
O15 O 0.14815 0.167 0.19171 0.0
C16 C 0.98905 0.15637 0.55152 0.0
C17 C 0.88081 0.22459 0.11544 0.0
C18 C 0.04737 0.07506 0.09474 0.0
C19 C 0.71153 0.16176 0.25175 0.0
C20 C 0.95279 0.15053 0.95995 0.0
C21 C 0.01068 0.07889 0.3835 0.0
C22 C 0.10047 0.23136 0.43293 0.0
C23 C 0.23782 0.15036 0.27421 0.0
O24 O 0.93671 0.17794 0.48392 0.0
O25 O 0.03993 0.13937 0.52729 0.0
O26 O 0.95288 0.20939 0.10254 0.0
O27 O 0.84219 0.21787 0.18851 0.0
O28 O 0.14428 0.09043 0.13844 0.0
O29 O 0.9475 0.08046 0.102 0.0
O30 O 0.75754 0.18436 0.24815 0.0
O31 O 0.79196 0.14185 0.30643 0.0
Co32 Co 0.02572 0.94547 0.82511 0.0
Co33 Co 0.06654 0.91793 0.64423 0.0
Co34 Co 0.09684 0.88497 0.86404 0.0
H35 H 0.08009 0.91575 0.83139 0.0
O36 O 0.13457 0.92172 0.80734 0.0
H37 H 0.03877 0.88822 0.66199 0.0
O38 O 0.9898 0.88431 0.69316 0.0
Co39 Co 0.0456 0.85727 0.6473 0.0
O40 O 0.04569 0.87038 0.49987 0.0
O41 O 0.02521 0.91284 0.48489 0.0
O42 O 0.16683 0.83446 0.80198 0.0
O43 O 0.09524 0.84582 0.91236 0.0
O44 O 0.94999 0.96995 0.88118 0.0
O45 O 0.11769 0.9806 0.86408 0.0
O46 O 0.24846 0.86202 0.74792 0.0
O47 O 0.25764 0.90512 0.71283 0.0
C48 C 0.14015 0.90667 0.06148 0.0
C49 C 0.07145 0.97348 0.6243 0.0
C50 C 0.88208 0.823 0.55695 0.0
C51 C 0.8244 0.90578 0.80803 0.0
C52 C 0.04352 0.89343 0.44974 0.0
C53 C 0.14845 0.82924 0.8877 0.0
C54 C 0.03854 0.98685 0.89363 0.0
C55 C 0.31534 0.88267 0.75806 0.0
O56 O 0.07151 0.92677 0.98734 0.0
O57 O 0.18499 0.88971 0.03224 0.0
O58 O 0.1163 0.95402 0.60907 0.0
O59 O 0.02317 0.97179 0.69133 0.0
O60 O 0.00967 0.81934 0.62784 0.0
O61 O 0.84632 0.84628 0.53524 0.0
O62 O 0.8423 0.92942 0.7783 0.0
O63 O 0.91547 0.88804 0.84767 0.0
Co64 Co 0.39492 0.69745 0.31856 0.0
Co65 Co 0.38258 0.66748 0.12116 0.0
Co66 Co 0.42394 0.63588 0.34833 0.0
H67 H 0.42255 0.66632 0.31649 0.0
O68 O 0.47094 0.67134 0.28585 0.0
H69 H 0.4062 0.63708 0.16075 0.0
O70 O 0.35403 0.63055 0.18642 0.0
Co71 Co 0.47669 0.60824 0.17723 0.0
O72 O 0.46527 0.62549 0.02647 0.0
O73 O 0.32721 0.66061 0.96269 0.0
O74 O 0.48634 0.58087 0.30883 0.0
O75 O 0.40476 0.5985 0.40016 0.0
O76 O 0.40807 0.73596 0.33125 0.0
O77 O 0.58629 0.7141 0.39697 0.0
O78 O 0.63676 0.62727 0.29022 0.0
O79 O 0.57536 0.66449 0.16695 0.0
C80 C 0.44504 0.66239 0.53741 0.0
C81 C 0.30637 0.7222 0.07618 0.0
C82 C 0.47805 0.56927 0.09865 0.0
C83 C 0.16574 0.6614 0.28442 0.0
C84 C 0.39565 0.64496 0.94844 0.0
C85 C 0.44717 0.57917 0.38192 0.0
C86 C 0.53759 0.7359 0.3827 0.0
C87 C 0.66645 0.64991 0.25907 0.0
O88 O 0.41508 0.68479 0.47445 0.0
O89 O 0.47296 0.64291 0.50801 0.0
O90 O 0.37534 0.70623 0.06372 0.0
O91 O 0.27384 0.7165 0.1536 0.0
O92 O 0.58483 0.57931 0.17251 0.0
O93 O 0.37057 0.58132 0.06921 0.0
O94 O 0.21654 0.68373 0.29506 0.0
O95 O 0.22742 0.64203 0.28828 0.0
Co96 Co 0.48861 0.44133 0.82845 0.0
Co97 Co 0.53 0.41709 0.643 0.0
Co98 Co 0.60188 0.38383 0.87777 0.0
H99 H 0.56596 0.41389 0.83903 0.0
O100 O 0.61059 0.4217 0.80784 0.0
H101 H 0.54524 0.38689 0.67538 0.0
O102 O 0.50405 0.38023 0.71112 0.0
Co103 Co 0.58732 0.35735 0.66958 0.0
O104 O 0.58695 0.37416 0.52421 0.0
O105 O 0.46895 0.41086 0.47917 0.0
O106 O 0.71079 0.33592 0.82928 0.0
O107 O 0.62564 0.345 0.9349 0.0
O108 O 0.37972 0.46598 0.85517 0.0
O109 O 0.58799 0.47141 0.9181 0.0
O110 O 0.77094 0.37231 0.71883 0.0
O111 O 0.72563 0.4144 0.69112 0.0
C112 C 0.59772 0.40431 0.06092 0.0
C113 C 0.49681 0.4735 0.61712 0.0
C114 C 0.43931 0.32001 0.59562 0.0
C115 C 0.31428 0.39733 0.76049 0.0
C116 C 0.52455 0.39493 0.45375 0.0
C117 C 0.69036 0.32991 0.91406 0.0
C118 C 0.4822 0.47952 0.9098 0.0
C119 C 0.80729 0.39567 0.72045 0.0
O120 O 0.51371 0.42233 0.98257 0.0
O121 O 0.66766 0.39014 0.04131 0.0
O122 O 0.53134 0.45496 0.58841 0.0
O123 O 0.47196 0.47054 0.69963 0.0
O124 O 0.54096 0.32628 0.58496 0.0
O125 O 0.42029 0.3351 0.64659 0.0
O126 O 0.33653 0.41995 0.72159 0.0
O127 O 0.41361 0.3832 0.84676 0.0
C128 C 0.07648 0.16439 0.85314 0.0
C129 C 0.9528 0.15561 0.84887 0.0
C130 C 0.86808 0.1421 0.66003 0.0
C131 C 0.98879 0.15197 0.66201 0.0
N132 N 0.20183 0.17473 0.75241 0.0
N133 N 0.72343 0.13934 0.74334 0.0
C134 C 0.09162 0.16363 0.75674 0.0
C135 C 0.84611 0.14546 0.75042 0.0
N136 N 0.18096 0.17301 0.95102 0.0
N137 N 0.77597 0.1291 0.57241 0.0
H138 H 0.70545 0.14169 0.80854 0.0
H139 H 0.63611 0.13393 0.66979 0.0
H140 H 0.79087 0.12605 0.50646 0.0
H141 H 0.69137 0.1195 0.5699 0.0
H142 H 0.28102 0.17598 0.96837 0.0
H143 H 0.16803 0.17655 0.01711 0.0
H144 H 0.27142 0.18651 0.81014 0.0
H145 H 0.2206 0.17302 0.68694 0.0
C146 C 0.05081 0.92068 0.27487 0.0
C147 C 0.07997 0.89721 0.35612 0.0
C148 C 0.16464 0.87849 0.25173 0.0
C149 C 0.14774 0.9029 0.17798 0.0
N150 N 0.14369 0.94899 0.17292 0.0
N151 N 0.23603 0.85938 0.45099 0.0
C152 C 0.11305 0.92461 0.20677 0.0
C153 C 0.15774 0.87762 0.35358 0.0
N154 N 0.96145 0.93903 0.25816 0.0
N155 N 0.18636 0.85598 0.2281 0.0
H156 H 0.25588 0.86034 0.53396 0.0
H157 H 0.30015 0.84599 0.45331 0.0
H158 H 0.19686 0.85445 0.15855 0.0
H159 H 0.18455 0.83806 0.27588 0.0
H160 H 0.93467 0.95579 0.19455 0.0
H161 H 0.90012 0.93602 0.29461 0.0
H162 H 0.1258 0.9651 0.1973 0.0
H163 H 0.20454 0.95228 0.13588 0.0
C164 C 0.29074 0.65669 0.72987 0.0
C165 C 0.40882 0.65038 0.84371 0.0
C166 C 0.55046 0.64954 0.75716 0.0
C167 C 0.43473 0.65887 0.64397 0.0
N168 N 0.20552 0.6802 0.53502 0.0
N169 N 0.65966 0.64795 0.96631 0.0
C170 C 0.30824 0.66523 0.63358 0.0
C171 C 0.54143 0.64866 0.85789 0.0
N172 N 0.16101 0.65381 0.71197 0.0
N173 N 0.67064 0.64236 0.76967 0.0
H174 H 0.65945 0.64928 0.04132 0.0
H175 H 0.75841 0.64919 0.97936 0.0
H176 H 0.68656 0.64489 0.69987 0.0
H177 H 0.75174 0.6325 0.84877 0.0
H178 H 0.07165 0.65583 0.62806 0.0
H179 H 0.14308 0.64663 0.77963 0.0
H180 H 0.11898 0.68681 0.53066 0.0
H181 H 0.21158 0.68884 0.46313 0.0
C182 C 0.635 0.42053 0.23499 0.0
C183 C 0.59941 0.39964 0.17325 0.0
C184 C 0.48442 0.37888 0.27728 0.0
C185 C 0.52261 0.39959 0.34077 0.0
N186 N 0.60154 0.4432 0.35703 0.0
N187 N 0.50113 0.35776 0.14149 0.0
C188 C 0.58846 0.42134 0.313 0.0
C189 C 0.52734 0.37842 0.19636 0.0
N190 N 0.71762 0.4393 0.22103 0.0
N191 N 0.40014 0.36038 0.29053 0.0
H192 H 0.53077 0.35687 0.082 0.0
H193 H 0.45901 0.34065 0.1601 0.0
H194 H 0.36114 0.36121 0.34388 0.0
H195 H 0.3584 0.34558 0.24213 0.0
H196 H 0.75925 0.4539 0.27072 0.0
H197 H 0.7556 0.43881 0.16665 0.0
H198 H 0.63485 0.46065 0.33051 0.0
H199 H 0.56718 0.44485 0.41244 0.0
C200 C 0.52311 0.13401 0.24496 0.0
C201 C 0.56721 0.15904 0.22246 0.0
C202 C 0.41848 0.17759 0.26823 0.0
C203 C 0.37863 0.15246 0.29595 0.0
N204 N 0.43627 0.10668 0.35459 0.0
N205 N 0.50158 0.20419 0.15365 0.0
C206 C 0.44283 0.13049 0.29683 0.0
C207 C 0.49862 0.18086 0.21655 0.0
N208 N 0.55542 0.11389 0.21349 0.0
N209 N 0.37943 0.19818 0.29221 0.0
H210 H 0.54498 0.20612 0.10188 0.0
H211 H 0.44482 0.22041 0.13957 0.0
H212 H 0.32423 0.19583 0.33455 0.0
H213 H 0.41415 0.21681 0.2817 0.0
H214 H 0.51658 0.09546 0.21922 0.0
H215 H 0.60723 0.11673 0.16818 0.0
H216 H 0.48866 0.0904 0.36286 0.0
H217 H 0.39763 0.10403 0.40991 0.0
C218 C 0.62179 0.87799 0.74842 0.0
C219 C 0.69861 0.89826 0.80791 0.0
C220 C 0.54427 0.90035 0.87895 0.0
C221 C 0.46548 0.88105 0.81394 0.0
N222 N 0.47321 0.84271 0.74603 0.0
N223 N 0.756 0.92395 0.9565 0.0
C224 C 0.51854 0.86685 0.76818 0.0
C225 C 0.66745 0.90803 0.88194 0.0
N226 N 0.64234 0.87021 0.66879 0.0
N227 N 0.49784 0.91165 0.93446 0.0
H228 H 0.84583 0.93055 0.95981 0.0
H229 H 0.74542 0.92931 0.02093 0.0
H230 H 0.41401 0.90444 0.94138 0.0
H231 H 0.53905 0.92824 0.97036 0.0
H232 H 0.57596 0.85765 0.61357 0.0
H233 H 0.71504 0.87843 0.6487 0.0
H234 H 0.51659 0.83117 0.71892 0.0
H235 H 0.40668 0.83298 0.7702 0.0
C236 C 0.91787 0.63811 0.38479 0.0
C237 C 0.81192 0.65696 0.30888 0.0
C238 C 0.9364 0.67741 0.21919 0.0
C239 C 0.03946 0.65759 0.28647 0.0
N240 N 0.14867 0.62289 0.45817 0.0
N241 N 0.76461 0.70162 0.21598 0.0
C242 C 0.03664 0.6388 0.37667 0.0
C243 C 0.83745 0.67921 0.24798 0.0
N244 N 0.90473 0.62005 0.46491 0.0
N245 N 0.93005 0.69385 0.12544 0.0
H246 H 0.69477 0.70307 0.242 0.0
H247 H 0.78542 0.71894 0.17658 0.0
H248 H 0.99646 0.69194 0.09645 0.0
H249 H 0.84951 0.70741 0.06942 0.0
H250 H 0.96627 0.60333 0.51097 0.0
H251 H 0.83084 0.62226 0.48575 0.0
H252 H 0.15695 0.61103 0.5323 0.0
H253 H 0.23952 0.62248 0.45859 0.0
C254 C 0.04927 0.38234 0.83196 0.0
C255 C 0.94594 0.40056 0.74315 0.0
C256 C 0.06611 0.40838 0.63798 0.0
C257 C 0.17269 0.39132 0.73036 0.0
N258 N 0.22868 0.35285 0.87766 0.0
N259 N 0.87802 0.43675 0.58208 0.0
C260 C 0.15394 0.37543 0.81691 0.0
C261 C 0.95979 0.4153 0.65133 0.0
N262 N 0.04619 0.37188 0.93045 0.0
N263 N 0.06628 0.41728 0.537 0.0
H264 H 0.80835 0.44415 0.59694 0.0
H265 H 0.89282 0.4492 0.52032 0.0
H266 H 0.14171 0.41109 0.52507 0.0
H267 H 0.98475 0.42813 0.46188 0.0
H268 H 0.12587 0.36011 1.00307 0.0
H269 H 0.97026 0.37738 0.94338 0.0
H270 H 0.21228 0.33973 0.93686 0.0
H271 H 0.29285 0.34564 0.856 0.0
C272 C 0.20931 0.3012 0.46581 0.0
C273 C 0.35233 0.29733 0.55404 0.0
C274 C 0.32865 0.25027 0.56529 0.0
C275 C 0.18582 0.25409 0.47674 0.0
N276 N 0.98584 0.2826 0.34675 0.0
N277 N 0.5534 0.2689 0.67831 0.0
C278 C 0.12479 0.27941 0.42851 0.0
C279 C 0.4135 0.27206 0.60079 0.0
N280 N 0.15682 0.32584 0.41202 0.0
N281 N 0.38109 0.2257 0.62078 0.0
H282 H 0.61788 0.28393 0.71431 0.0
H283 H 0.60792 0.25162 0.70347 0.0
H284 H 0.32184 0.20929 0.59947 0.0
H285 H 0.48016 0.22134 0.69426 0.0
H286 H 0.05798 0.33041 0.3386 0.0
H287 H 0.21559 0.34223 0.43554 0.0
H288 H 0.93044 0.29991 0.31815 0.0
H289 H 0.92263 0.26761 0.30879 0.0
C290 C 0.64377 0.28308 0.94844 0.0
C291 C 0.73919 0.30333 0.98235 0.0
C292 C 0.93375 0.27151 0.08772 0.0
C293 C 0.83814 0.25141 0.04863 0.0
N294 N 0.60517 0.23779 0.92996 0.0
N295 N 0.97381 0.31763 0.08024 0.0
C296 C 0.69378 0.25723 0.97526 0.0
C297 C 0.88407 0.29769 0.05117 0.0
N298 N 0.50516 0.28872 0.8904 0.0
N299 N 0.07154 0.26538 0.16381 0.0
H300 H 0.94028 0.33665 0.06366 0.0
H301 H 0.08005 0.31562 0.11801 0.0
H302 H 0.11153 0.24665 0.18651 0.0
H303 H 0.14594 0.27847 0.20773 0.0
H304 H 0.42905 0.27492 0.8697 0.0
H305 H 0.46614 0.30743 0.87043 0.0
H306 H 0.49929 0.24046 0.86966 0.0
H307 H 0.6402 0.21892 0.94568 0.0
C308 C 0.61064 0.77144 0.50116 0.0
C309 C 0.62313 0.75873 0.42438 0.0
C310 C 0.8055 0.78839 0.43427 0.0
C311 C 0.7868 0.80201 0.50514 0.0
N312 N 0.6604 0.80884 0.5943 0.0
N313 N 0.71745 0.75711 0.30413 0.0
C314 C 0.68499 0.79437 0.53402 0.0
C315 C 0.71713 0.76768 0.38771 0.0
N316 N 0.53527 0.76061 0.54937 0.0
N317 N 0.90785 0.79531 0.41121 0.0
H318 H 0.65296 0.74222 0.26711 0.0
H319 H 0.77222 0.76436 0.26386 0.0
H320 H 0.96617 0.81179 0.43399 0.0
H321 H 0.93987 0.78416 0.37428 0.0
H322 H 0.53487 0.76724 0.61622 0.0
H323 H 0.48298 0.74339 0.53103 0.0
H324 H 0.57597 0.80627 0.60469 0.0
H325 H 0.71973 0.82454 0.62813 0.0
C326 C 0.36049 0.76772 0.01857 0.0
C327 C 0.26024 0.74876 1.00429 0.0
C328 C 0.08253 0.78343 0.92357 0.0
C329 C 0.18713 0.80212 0.95194 0.0
N330 N 0.42862 0.81189 0.04256 0.0
N331 N 0.02324 0.73812 0.93763 0.0
C332 C 0.32707 0.7941 1.00461 0.0
C333 C 0.12015 0.75661 0.9546 0.0
N334 N 0.48607 0.76071 0.04115 0.0
N335 N 0.94678 0.79141 0.8625 0.0
H336 H 0.04466 0.71865 0.94719 0.0
H337 H 0.9237 0.74183 0.91692 0.0
H338 H 0.91659 0.81072 0.8441 0.0
H339 H 0.86385 0.77921 0.82606 0.0
H340 H 0.5585 0.774 0.04062 0.0
H341 H 0.51207 0.74173 0.04813 0.0
H342 H 0.5339 0.80702 0.09184 0.0
H343 H 0.40701 0.83128 0.03461 0.0
C344 C 0.162 0.03529 0.10163 0.0
C345 C 0.04941 0.05348 0.03936 0.0
C346 C 0.93183 0.02861 0.87807 0.0
C347 C 0.04742 1.01108 0.93818 0.0
N348 N 0.28735 1.00188 0.09299 0.0
N349 N 0.84388 0.071 0.8558 0.0
C350 C 0.1675 1.01583 0.04499 0.0
C351 C 0.93863 0.05111 0.92404 0.0
N352 N 0.25983 0.03551 0.21758 0.0
N353 N 0.81559 1.02395 0.77616 0.0
H354 H 0.84801 0.0881 0.88465 0.0
H355 H 0.76953 0.07172 0.76679 0.0
H356 H 0.81062 1.00916 0.73352 0.0
H357 H 0.72195 0.03403 0.73667 0.0
H358 H 0.33502 1.02091 0.2712 0.0
H359 H 0.25803 0.04882 0.26401 0.0
H360 H 0.38157 1.00651 0.16325 0.0
H361 H 0.29644 0.98712 0.05674 0.0
C362 C 0.93426 0.03311 0.38319 0.0
C363 C 0.02163 0.05214 0.44722 0.0
C364 C 0.15661 1.01857 0.62114 0.0
C365 C 0.06698 0.99964 0.55815 0.0
N366 N 0.86543 0.98829 0.38398 0.0
N367 N 0.22516 0.06342 0.62038 0.0
C368 C 0.95538 1.00671 0.4398 0.0
C369 C 0.1348 0.04501 0.56489 0.0
N370 N 0.8324 0.04038 0.2673 0.0
N371 N 0.26118 1.01112 0.73587 0.0
H372 H 0.21085 0.083 0.58309 0.0
H373 H 0.31786 0.0595 0.70114 0.0
H374 H 0.28713 0.99176 0.77587 0.0
H375 H 0.32032 1.02378 0.79303 0.0
H376 H 0.77586 0.02754 0.21029 0.0
H377 H 0.80704 0.05966 0.22581 0.0
H378 H 0.77279 0.99224 0.30315 0.0
H379 H 0.88031 0.96869 0.42103 0.0
C380 C 0.53512 0.54804 0.97811 0.0
C381 C 0.47868 0.54628 0.05027 0.0
C382 C 0.43036 0.50038 0.03521 0.0
C383 C 0.47867 0.50259 0.95687 0.0
N384 N 0.55149 0.52982 0.83558 0.0
N385 N 0.35923 0.52179 0.13838 0.0
C386 C 0.525 0.52674 0.92397 0.0
C387 C 0.42144 0.52277 0.07534 0.0
N388 N 0.59802 0.57015 0.96058 0.0
N389 N 0.39965 0.4766 0.07616 0.0
H390 H 0.35938 0.53705 0.17669 0.0
H391 H 0.30034 0.50643 0.14736 0.0
H392 H 0.40724 0.4597 0.05115 0.0
H393 H 0.37729 0.47311 0.14223 0.0
H394 H 0.65651 0.57155 0.92177 0.0
H395 H 0.59934 0.58681 0.99129 0.0
H396 H 0.57045 0.54757 0.79803 0.0
H397 H 0.54159 0.51506 0.79119 0.0
C398 C 0.60236 0.51369 0.56803 0.0
C399 C 0.48246 0.50022 0.55222 0.0
C400 C 0.33759 0.53931 0.42945 0.0
C401 C 0.45853 0.55307 0.45084 0.0
N402 N 0.70725 0.55514 0.55603 0.0
N403 N 0.23755 0.50032 0.47866 0.0
C404 C 0.59133 0.54071 0.52438 0.0
C405 C 0.35058 0.51313 0.48651 0.0
N406 N 0.72683 0.50068 0.62482 0.0
N407 N 0.2101 0.55085 0.34994 0.0
H408 H 0.23946 0.48056 0.50958 0.0
H409 H 0.14319 0.50943 0.44643 0.0
H410 H 0.19646 0.57011 0.30816 0.0
H411 H 0.11762 0.54104 0.31939 0.0
H412 H 0.81423 0.50862 0.62641 0.0
H413 H 0.74123 0.48125 0.66415 0.0
H414 H 0.80737 0.54797 0.61838 0.0
H415 H 0.7029 0.57509 0.52783 0.0
loop_
_geom_bond_atom_site_label_1
_geom_bond_atom_site_label_2
_geom_bond_distance
_geom_bond_site_symmetry_2
_ccdc_geom_bond_type
Co0 H3 2.400 1_655 S
Co0 O4 2.009 1_655 S
Co0 O12 2.115 . S
Co0 O13 2.315 1_655 S
Co0 O24 2.053 . S
Co0 O27 2.094 . S
Co0 O30 2.122 . S
Co1 O4 2.126 1_655 S
Co1 H5 2.388 . S
Co1 O6 2.053 . S
Co1 O9 2.047 1_554 S
Co1 O15 2.113 1_655 S
Co1 O26 2.063 1_655 S
Co2 H3 2.388 . S
Co2 O4 2.053 . S
Co2 O6 2.126 1_455 S
Co2 O11 2.063 1_455 S
Co2 O25 2.047 . S
Co2 O31 2.113 1_455 S
H3 Co0 2.400 1_455 S
H3 Co2 2.388 . S
H3 O4 0.760 . S
O4 Co0 2.009 1_455 S
O4 Co1 2.126 1_455 S
O4 Co2 2.053 . S
O4 H3 0.760 . S
H5 Co1 2.388 . S
H5 O6 0.760 . S
H5 Co7 2.400 1_655 S
O6 Co1 2.053 . S
O6 Co2 2.126 1_655 S
O6 H5 0.760 . S
O6 Co7 2.009 1_655 S
Co7 H5 2.400 1_455 S
Co7 O6 2.009 1_455 S
Co7 O8 2.053 1_554 S
Co7 O10 2.094 . S
Co7 O14 2.122 . S
Co7 O28 2.115 . S
Co7 O29 2.315 1_455 S
O8 Co7 2.053 1_556 S
O8 C20 1.259 1_455 S
O9 Co1 2.047 1_556 S
O9 C20 1.257 . S
O10 Co7 2.094 . S
O10 C21 1.253 . S
O11 Co2 2.063 1_655 S
O11 C21 1.268 1_655 S
O12 Co0 2.115 . S
O12 C22 1.281 1_655 S
O13 Co0 2.315 1_455 S
O13 C22 1.252 . S
O14 Co7 2.122 . S
O14 C23 1.272 . S
O15 Co1 2.113 1_455 S
O15 C23 1.245 . S
C16 O24 1.259 1_455 S
C16 O25 1.257 . S
C17 O26 1.268 1_655 S
C17 O27 1.253 . S
C18 O28 1.281 1_655 S
C18 O29 1.252 . S
C19 O30 1.272 . S
C19 O31 1.245 . S
C20 O8 1.259 1_655 S
C20 O9 1.257 . S
C21 O10 1.253 . S
C21 O11 1.268 1_455 S
C22 O12 1.281 1_455 S
C22 O13 1.252 . S
C23 O14 1.272 . S
C23 O15 1.245 . S
O24 Co0 2.053 . S
O24 C16 1.259 1_655 S
O25 Co2 2.047 . S
O25 C16 1.257 . S
O26 Co1 2.063 1_455 S
O26 C17 1.268 1_455 S
O27 Co0 2.094 . S
O27 C17 1.253 . S
O28 Co7 2.115 . S
O28 C18 1.281 1_455 S
O29 Co7 2.315 1_655 S
O29 C18 1.252 . S
O30 Co0 2.122 . S
O30 C19 1.272 . S
O31 Co2 2.113 1_655 S
O31 C19 1.245 . S
Co32 H35 2.400 1_655 S
Co32 O36 2.009 1_655 S
Co32 O44 2.115 . S
Co32 O45 2.315 1_655 S
Co32 O56 2.053 1_656 S
Co32 O59 2.094 . S
Co32 O62 2.122 . S
Co33 O36 2.126 . S
Co33 H37 2.388 1_455 S
Co33 O38 2.053 1_455 S
Co33 O41 2.047 1_455 S
Co33 O47 2.113 . S
Co33 O58 2.063 . S
Co34 H35 2.388 . S
Co34 O36 2.053 . S
Co34 O38 2.126 1_455 S
Co34 O43 2.063 . S
Co34 O57 2.047 1_556 S
Co34 O63 2.113 1_455 S
H35 Co32 2.400 1_455 S
H35 Co34 2.388 . S
H35 O36 0.760 . S
O36 Co32 2.009 1_455 S
O36 Co33 2.126 . S
O36 Co34 2.053 . S
O36 H35 0.760 . S
H37 Co33 2.388 1_655 S
H37 O38 0.760 . S
H37 Co39 2.400 1_655 S
O38 Co33 2.053 1_655 S
O38 Co34 2.126 1_655 S
O38 H37 0.760 . S
O38 Co39 2.009 1_655 S
Co39 H37 2.400 1_455 S
Co39 O38 2.009 1_455 S
Co39 O40 2.053 . S
Co39 O42 2.094 . S
Co39 O46 2.122 . S
Co39 O60 2.115 . S
Co39 O61 2.315 1_455 S
O40 Co39 2.053 . S
O40 C52 1.259 1_455 S
O41 Co33 2.047 1_655 S
O41 C52 1.257 . S
O42 Co39 2.094 . S
O42 C53 1.253 . S
O43 Co34 2.063 . S
O43 C53 1.268 . S
O44 Co32 2.115 . S
O44 C54 1.281 1_655 S
O45 Co32 2.315 1_455 S
O45 C54 1.252 . S
O46 Co39 2.122 . S
O46 C55 1.272 . S
O47 Co33 2.113 . S
O47 C55 1.245 . S
C48 O56 1.259 . S
C48 O57 1.257 . S
C49 O58 1.268 1_655 S
C49 O59 1.253 . S
C50 O60 1.281 1_655 S
C50 O61 1.252 . S
C51 O62 1.272 . S
C51 O63 1.245 . S
C52 O40 1.259 1_655 S
C52 O41 1.257 . S
C53 O42 1.253 . S
C53 O43 1.268 . S
C54 O44 1.281 1_455 S
C54 O45 1.252 . S
C55 O46 1.272 . S
C55 O47 1.245 . S
O56 Co32 2.053 1_454 S
O56 C48 1.259 . S
O57 Co34 2.047 1_554 S
O57 C48 1.257 . S
O58 Co33 2.063 . S
O58 C49 1.268 1_455 S
O59 Co32 2.094 . S
O59 C49 1.253 . S
O60 Co39 2.115 . S
O60 C50 1.281 1_455 S
O61 Co39 2.315 1_655 S
O61 C50 1.252 . S
O62 Co32 2.122 . S
O62 C51 1.272 . S
O63 Co34 2.113 1_655 S
O63 C51 1.245 . S
Co64 H67 2.400 . S
Co64 O68 2.009 . S
Co64 O76 2.115 . S
Co64 O77 2.315 . S
Co64 O88 2.053 . S
Co64 O91 2.094 . S
Co64 O94 2.122 . S
Co65 O68 2.126 . S
Co65 H69 2.388 . S
Co65 O70 2.053 . S
Co65 O73 2.047 1_554 S
Co65 O79 2.113 . S
Co65 O90 2.063 . S
Co66 H67 2.388 . S
Co66 O68 2.053 . S
Co66 O70 2.126 . S
Co66 O75 2.063 . S
Co66 O89 2.047 . S
Co66 O95 2.113 . S
H67 Co64 2.400 . S
H67 Co66 2.388 . S
H67 O68 0.760 . S
O68 Co64 2.009 . S
O68 Co65 2.126 . S
O68 Co66 2.053 . S
O68 H67 0.760 . S
H69 Co65 2.388 . S
H69 O70 0.760 . S
H69 Co71 2.400 . S
O70 Co65 2.053 . S
O70 Co66 2.126 . S
O70 H69 0.760 . S
O70 Co71 2.009 . S
Co71 H69 2.400 . S
Co71 O70 2.009 . S
Co71 O72 2.053 1_554 S
Co71 O74 2.094 . S
Co71 O78 2.122 . S
Co71 O92 2.115 . S
Co71 O93 2.315 . S
O72 Co71 2.053 1_556 S
O72 C84 1.259 . S
O73 Co65 2.047 1_556 S
O73 C84 1.257 . S
O74 Co71 2.094 . S
O74 C85 1.253 . S
O75 Co66 2.063 . S
O75 C85 1.268 . S
O76 Co64 2.115 . S
O76 C86 1.281 . S
O77 Co64 2.315 . S
O77 C86 1.252 . S
O78 Co71 2.122 . S
O78 C87 1.272 . S
O79 Co65 2.113 . S
O79 C87 1.245 . S
C80 O88 1.259 . S
C80 O89 1.257 . S
C81 O90 1.268 . S
C81 O91 1.253 . S
C82 O92 1.281 . S
C82 O93 1.252 . S
C83 O94 1.272 . S
C83 O95 1.245 . S
C84 O72 1.259 . S
C84 O73 1.257 . S
C85 O74 1.253 . S
C85 O75 1.268 . S
C86 O76 1.281 . S
C86 O77 1.252 . S
C87 O78 1.272 . S
C87 O79 1.245 . S
O88 Co64 2.053 . S
O88 C80 1.259 . S
O89 Co66 2.047 . S
O89 C80 1.257 . S
O90 Co65 2.063 . S
O90 C81 1.268 . S
O91 Co64 2.094 . S
O91 C81 1.253 . S
O92 Co71 2.115 . S
O92 C82 1.281 . S
O93 Co71 2.315 . S
O93 C82 1.252 . S
O94 Co64 2.122 . S
O94 C83 1.272 . S
O95 Co66 2.113 . S
O95 C83 1.245 . S
Co96 H99 2.400 . S
Co96 O100 2.009 . S
Co96 O108 2.115 . S
Co96 O109 2.315 . S
Co96 O120 2.053 1_556 S
Co96 O123 2.094 . S
Co96 O126 2.122 . S
Co97 O100 2.126 . S
Co97 H101 2.388 . S
Co97 O102 2.053 . S
Co97 O105 2.047 . S
Co97 O111 2.113 . S
Co97 O122 2.063 . S
Co98 H99 2.388 . S
Co98 O100 2.053 . S
Co98 O102 2.126 . S
Co98 O107 2.063 . S
Co98 O121 2.047 1_556 S
Co98 O127 2.113 . S
H99 Co96 2.400 . S
H99 Co98 2.388 . S
H99 O100 0.760 . S
O100 Co96 2.009 . S
O100 Co97 2.126 . S
O100 Co98 2.053 . S
O100 H99 0.760 . S
H101 Co97 2.388 . S
H101 O102 0.760 . S
H101 Co103 2.400 . S
O102 Co97 2.053 . S
O102 Co98 2.126 . S
O102 H101 0.760 . S
O102 Co103 2.009 . S
Co103 H101 2.400 . S
Co103 O102 2.009 . S
Co103 O104 2.053 . S
Co103 O106 2.094 . S
Co103 O110 2.122 . S
Co103 O124 2.115 . S
Co103 O125 2.315 . S
O104 Co103 2.053 . S
O104 C116 1.259 . S
O105 Co97 2.047 . S
O105 C116 1.257 . S
O106 Co103 2.094 . S
O106 C117 1.253 . S
O107 Co98 2.063 . S
O107 C117 1.268 . S
O108 Co96 2.115 . S
O108 C118 1.281 . S
O109 Co96 2.315 . S
O109 C118 1.252 . S
O110 Co103 2.122 . S
O110 C119 1.272 . S
O111 Co97 2.113 . S
O111 C119 1.245 . S
C112 O120 1.259 . S
C112 O121 1.257 . S
C113 O122 1.268 . S
C113 O123 1.253 . S
C114 O124 1.281 . S
C114 O125 1.252 . S
C115 O126 1.272 . S
C115 O127 1.245 . S
C116 O104 1.259 . S
C116 O105 1.257 . S
C117 O106 1.253 . S
C117 O107 1.268 . S
C118 O108 1.281 . S
C118 O109 1.252 . S
C119 O110 1.272 . S
C119 O111 1.245 . S
O120 Co96 2.053 1_554 S
O120 C112 1.259 . S
O121 Co98 2.047 1_554 S
O121 C112 1.257 . S
O122 Co97 2.063 . S
O122 C113 1.268 . S
O123 Co96 2.094 . S
O123 C113 1.253 . S
O124 Co103 2.115 . S
O124 C114 1.281 . S
O125 Co103 2.315 . S
O125 C114 1.252 . S
O126 Co96 2.122 . S
O126 C115 1.272 . S
O127 Co98 2.113 . S
O127 C115 1.245 . S
C128 C129 1.363 1_455 S
C128 C134 1.379 . S
C128 N136 1.356 . S
C129 C128 1.363 1_655 S
C129 C135 1.363 . S
C130 C131 1.363 1_655 S
C130 C135 1.379 . S
C130 N137 1.356 . S
C131 C130 1.363 1_455 S
C131 C134 1.363 . S
N132 C134 1.356 . S
N132 H144 0.984 . S
N132 H145 0.985 . S
N133 C135 1.356 . S
N133 H138 0.984 . S
N133 H139 0.985 . S
C134 C128 1.379 . S
C134 C131 1.363 . S
C134 N132 1.356 . S
C135 C129 1.363 . S
C135 C130 1.379 . S
C135 N133 1.356 . S
N136 C128 1.356 . S
N136 H142 0.984 . S
N136 H143 0.984 . S
N137 C130 1.356 . S
N137 H140 0.984 . S
N137 H141 0.985 . S
H138 N133 0.984 . S
H139 N133 0.985 . S
H140 N137 0.984 . S
H141 N137 0.985 . S
H142 N136 0.984 . S
H143 N136 0.984 . S
H144 N132 0.984 . S
H145 N132 0.985 . S
C146 C147 1.363 . S
C146 C152 1.379 . S
C146 N154 1.356 . S
C147 C146 1.363 . S
C147 C153 1.363 1_655 S
C148 C149 1.363 . S
C148 C153 1.379 . S
C148 N155 1.356 . S
C149 C148 1.363 . S
C149 C152 1.363 1_455 S
N150 C152 1.356 . S
N150 H162 0.984 . S
N150 H163 0.985 . S
N151 C153 1.356 . S
N151 H156 0.984 . S
N151 H157 0.985 . S
C152 C146 1.379 . S
C152 C149 1.363 1_655 S
C152 N150 1.356 . S
C153 C147 1.363 1_455 S
C153 C148 1.379 . S
C153 N151 1.356 . S
N154 C146 1.356 . S
N154 H160 0.984 . S
N154 H161 0.984 . S
N155 C148 1.356 . S
N155 H158 0.984 . S
N155 H159 0.985 . S
H156 N151 0.984 . S
H157 N151 0.985 . S
H158 N155 0.984 . S
H159 N155 0.985 . S
H160 N154 0.984 . S
H161 N154 0.984 . S
H162 N150 0.984 . S
H163 N150 0.985 . S
C164 C165 1.363 . S
C164 C170 1.379 . S
C164 N172 1.356 . S
C165 C164 1.363 . S
C165 C171 1.363 . S
C166 C167 1.363 . S
C166 C171 1.379 . S
C166 N173 1.356 . S
C167 C166 1.363 . S
C167 C170 1.363 . S
N168 C170 1.356 . S
N168 H180 0.984 . S
N168 H181 0.985 . S
N169 C171 1.356 . S
N169 H174 0.984 . S
N169 H175 0.985 . S
C170 C164 1.379 . S
C170 C167 1.363 . S
C170 N168 1.356 . S
C171 C165 1.363 . S
C171 C166 1.379 . S
C171 N169 1.356 . S
N172 C164 1.356 . S
N172 H178 0.984 . S
N172 H179 0.984 . S
N173 C166 1.356 . S
N173 H176 0.984 . S
N173 H177 0.985 . S
H174 N169 0.984 . S
H175 N169 0.985 . S
H176 N173 0.984 . S
H177 N173 0.985 . S
H178 N172 0.984 . S
H179 N172 0.984 . S
H180 N168 0.984 . S
H181 N168 0.985 . S
C182 C183 1.363 . S
C182 C188 1.379 . S
C182 N190 1.356 . S
C183 C182 1.363 . S
C183 C189 1.363 . S
C184 C185 1.363 . S
C184 C189 1.379 . S
C184 N191 1.356 . S
C185 C184 1.363 . S
C185 C188 1.363 . S
N186 C188 1.356 . S
N186 H198 0.984 . S
N186 H199 0.985 . S
N187 C189 1.356 . S
N187 H192 0.984 . S
N187 H193 0.985 . S
C188 C182 1.379 . S
C188 C185 1.363 . S
C188 N186 1.356 . S
C189 C183 1.363 . S
C189 C184 1.379 . S
C189 N187 1.356 . S
N190 C182 1.356 . S
N190 H196 0.984 . S
N190 H197 0.984 . S
N191 C184 1.356 . S
N191 H194 0.984 . S
N191 H195 0.985 . S
H192 N187 0.984 . S
H193 N187 0.985 . S
H194 N191 0.984 . S
H195 N191 0.985 . S
H196 N190 0.984 . S
H197 N190 0.984 . S
H198 N186 0.984 . S
H199 N186 0.985 . S
C200 C201 1.363 . S
C200 C206 1.379 . S
C200 N208 1.356 . S
C201 C200 1.363 . S
C201 C207 1.363 . S
C202 C203 1.363 . S
C202 C207 1.379 . S
C202 N209 1.356 . S
C203 C202 1.363 . S
C203 C206 1.363 . S
N204 C206 1.356 . S
N204 H216 0.984 . S
N204 H217 0.985 . S
N205 C207 1.356 . S
N205 H210 0.984 . S
N205 H211 0.985 . S
C206 C200 1.379 . S
C206 C203 1.363 . S
C206 N204 1.356 . S
C207 C201 1.363 . S
C207 C202 1.379 . S
C207 N205 1.356 . S
N208 C200 1.356 . S
N208 H214 0.984 . S
N208 H215 0.984 . S
N209 C202 1.356 . S
N209 H212 0.984 . S
N209 H213 0.985 . S
H210 N205 0.984 . S
H211 N205 0.985 . S
H212 N209 0.984 . S
H213 N209 0.985 . S
H214 N208 0.984 . S
H215 N208 0.984 . S
H216 N204 0.984 . S
H217 N204 0.985 . S
C218 C219 1.363 . S
C218 C224 1.379 . S
C218 N226 1.356 . S
C219 C218 1.363 . S
C219 C225 1.363 . S
C220 C221 1.363 . S
C220 C225 1.379 . S
C220 N227 1.356 . S
C221 C220 1.363 . S
C221 C224 1.363 . S
N222 C224 1.356 . S
N222 H234 0.984 . S
N222 H235 0.985 . S
N223 C225 1.356 . S
N223 H228 0.984 . S
N223 H229 0.985 . S
C224 C218 1.379 . S
C224 C221 1.363 . S
C224 N222 1.356 . S
C225 C219 1.363 . S
C225 C220 1.379 . S
C225 N223 1.356 . S
N226 C218 1.356 . S
N226 H232 0.984 . S
N226 H233 0.984 . S
N227 C220 1.356 . S
N227 H230 0.984 . S
N227 H231 0.985 . S
H228 N223 0.984 . S
H229 N223 0.985 . S
H230 N227 0.984 . S
H231 N227 0.985 . S
H232 N226 0.984 . S
H233 N226 0.984 . S
H234 N222 0.984 . S
H235 N222 0.985 . S
C236 C237 1.363 . S
C236 C242 1.379 1_655 S
C236 N244 1.356 . S
C237 C236 1.363 . S
C237 C243 1.363 . S
C238 C239 1.363 . S
C238 C243 1.379 1_455 S
C238 N245 1.356 . S
C239 C238 1.363 . S
C239 C242 1.363 . S
N240 C242 1.356 . S
N240 H252 0.984 . S
N240 H253 0.985 . S
N241 C243 1.356 . S
N241 H246 0.984 . S
N241 H247 0.985 . S
C242 C236 1.379 1_455 S
C242 C239 1.363 . S
C242 N240 1.356 . S
C243 C237 1.363 . S
C243 C238 1.379 1_655 S
C243 N241 1.356 . S
N244 C236 1.356 . S
N244 H250 0.984 . S
N244 H251 0.984 . S
N245 C238 1.356 . S
N245 H248 0.984 . S
N245 H249 0.985 . S
H246 N241 0.984 . S
H247 N241 0.985 . S
H248 N245 0.984 . S
H249 N245 0.985 . S
H250 N244 0.984 . S
H251 N244 0.984 . S
H252 N240 0.984 . S
H253 N240 0.985 . S
C254 C255 1.363 1_455 S
C254 C260 1.379 . S
C254 N262 1.356 1_455 S
C255 C254 1.363 1_655 S
C255 C261 1.363 . S
C256 C257 1.363 . S
C256 C261 1.379 1_455 S
C256 N263 1.356 . S
C257 C256 1.363 . S
C257 C260 1.363 . S
N258 C260 1.356 . S
N258 H270 0.984 1_556 S
N258 H271 0.985 . S
N259 C261 1.356 . S
N259 H264 0.984 . S
N259 H265 0.985 . S
C260 C254 1.379 . S
C260 C257 1.363 . S
C260 N258 1.356 . S
C261 C255 1.363 . S
C261 C256 1.379 1_655 S
C261 N259 1.356 . S
N262 C254 1.356 1_655 S
N262 H268 0.984 1_656 S
N262 H269 0.984 . S
N263 C256 1.356 . S
N263 H266 0.984 . S
N263 H267 0.985 1_455 S
H264 N259 0.984 . S
H265 N259 0.985 . S
H266 N263 0.984 . S
H267 N263 0.985 1_655 S
H268 N262 0.984 1_454 S
H269 N262 0.984 . S
H270 N258 0.984 1_554 S
H271 N258 0.985 . S
C272 C273 1.363 . S
C272 C278 1.379 . S
C272 N280 1.356 . S
C273 C272 1.363 . S
C273 C279 1.363 . S
C274 C275 1.363 . S
C274 C279 1.379 . S
C274 N281 1.356 . S
C275 C274 1.363 . S
C275 C278 1.363 . S
N276 C278 1.356 . S
N276 H288 0.984 1_455 S
N276 H289 0.985 1_455 S
N277 C279 1.356 . S
N277 H282 0.984 . S
N277 H283 0.985 . S
C278 C272 1.379 . S
C278 C275 1.363 . S
C278 N276 1.356 . S
C279 C273 1.363 . S
C279 C274 1.379 . S
C279 N277 1.356 . S
N280 C272 1.356 . S
N280 H286 0.984 . S
N280 H287 0.984 . S
N281 C274 1.356 . S
N281 H284 0.984 . S
N281 H285 0.985 . S
H282 N277 0.984 . S
H283 N277 0.985 . S
H284 N281 0.984 . S
H285 N281 0.985 . S
H286 N280 0.984 . S
H287 N280 0.984 . S
H288 N276 0.984 1_655 S
H289 N276 0.985 1_655 S
C290 C291 1.363 . S
C290 C296 1.379 . S
C290 N298 1.356 . S
C291 C290 1.363 . S
C291 C297 1.363 1_556 S
C292 C293 1.363 . S
C292 C297 1.379 . S
C292 N299 1.356 1_655 S
C293 C292 1.363 . S
C293 C296 1.363 1_554 S
N294 C296 1.356 . S
N294 H306 0.984 . S
N294 H307 0.985 . S
N295 C297 1.356 . S
N295 H300 0.984 . S
N295 H301 0.985 . S
C296 C290 1.379 . S
C296 C293 1.363 1_556 S
C296 N294 1.356 . S
C297 C291 1.363 1_554 S
C297 C292 1.379 . S
C297 N295 1.356 . S
N298 C290 1.356 . S
N298 H304 0.984 . S
N298 H305 0.984 . S
N299 C292 1.356 1_455 S
N299 H302 0.984 . S
N299 H303 0.985 . S
H300 N295 0.984 . S
H301 N295 0.985 . S
H302 N299 0.984 . S
H303 N299 0.985 . S
H304 N298 0.984 . S
H305 N298 0.984 . S
H306 N294 0.984 . S
H307 N294 0.985 . S
C308 C309 1.363 . S
C308 C314 1.379 . S
C308 N316 1.356 . S
C309 C308 1.363 . S
C309 C315 1.363 . S
C310 C311 1.363 . S
C310 C315 1.379 . S
C310 N317 1.356 . S
C311 C310 1.363 . S
C311 C314 1.363 . S
N312 C314 1.356 . S
N312 H324 0.984 . S
N312 H325 0.985 . S
N313 C315 1.356 . S
N313 H318 0.984 . S
N313 H319 0.985 . S
C314 C308 1.379 . S
C314 C311 1.363 . S
C314 N312 1.356 . S
C315 C309 1.363 . S
C315 C310 1.379 . S
C315 N313 1.356 . S
N316 C308 1.356 . S
N316 H322 0.984 . S
N316 H323 0.984 . S
N317 C310 1.356 . S
N317 H320 0.984 1_655 S
N317 H321 0.985 . S
H318 N313 0.984 . S
H319 N313 0.985 . S
H320 N317 0.984 1_455 S
H321 N317 0.985 . S
H322 N316 0.984 . S
H323 N316 0.984 . S
H324 N312 0.984 . S
H325 N312 0.985 . S
C326 C327 1.363 1_556 S
C326 C332 1.379 . S
C326 N334 1.356 . S
C327 C326 1.363 1_554 S
C327 C333 1.363 . S
C328 C329 1.363 1_554 S
C328 C333 1.379 . S
C328 N335 1.356 . S
C329 C328 1.363 1_556 S
C329 C332 1.363 . S
N330 C332 1.356 . S
N330 H342 0.984 . S
N330 H343 0.985 . S
N331 C333 1.356 . S
N331 H336 0.984 . S
N331 H337 0.985 . S
C332 C326 1.379 . S
C332 C329 1.363 . S
C332 N330 1.356 . S
C333 C327 1.363 . S
C333 C328 1.379 . S
C333 N331 1.356 . S
N334 C326 1.356 . S
N334 H340 0.984 . S
N334 H341 0.984 . S
N335 C328 1.356 . S
N335 H338 0.984 . S
N335 H339 0.985 . S
H336 N331 0.984 . S
H337 N331 0.985 . S
H338 N335 0.984 . S
H339 N335 0.985 . S
H340 N334 0.984 . S
H341 N334 0.984 . S
H342 N330 0.984 . S
H343 N330 0.985 . S
C344 C345 1.363 1_465 S
C344 C350 1.379 . S
C344 N352 1.356 1_565 S
C345 C344 1.363 1_645 S
C345 C351 1.363 1_554 S
C346 C347 1.363 1_645 S
C346 C351 1.379 . S
C346 N353 1.356 1_545 S
C347 C346 1.363 1_465 S
C347 C350 1.363 1_556 S
N348 C350 1.356 . S
N348 H360 0.984 . S
N348 H361 0.985 . S
N349 C351 1.356 . S
N349 H354 0.984 . S
N349 H355 0.985 . S
C350 C344 1.379 . S
C350 C347 1.363 1_554 S
C350 N348 1.356 . S
C351 C345 1.363 1_556 S
C351 C346 1.379 . S
C351 N349 1.356 . S
N352 C344 1.356 1_545 S
N352 H358 0.984 1_545 S
N352 H359 0.984 . S
N353 C346 1.356 1_565 S
N353 H356 0.984 . S
N353 H357 0.985 1_565 S
H354 N349 0.984 . S
H355 N349 0.985 . S
H356 N353 0.984 . S
H357 N353 0.985 1_545 S
H358 N352 0.984 1_565 S
H359 N352 0.984 . S
H360 N348 0.984 . S
H361 N348 0.985 . S
C362 C363 1.363 1_655 S
C362 C368 1.379 1_545 S
C362 N370 1.356 . S
C363 C362 1.363 1_455 S
C363 C369 1.363 . S
C364 C365 1.363 1_455 S
C364 C369 1.379 1_565 S
C364 N371 1.356 . S
C365 C364 1.363 1_655 S
C365 C368 1.363 . S
N366 C368 1.356 . S
N366 H378 0.984 . S
N366 H379 0.985 . S
N367 C369 1.356 . S
N367 H372 0.984 . S
N367 H373 0.985 . S
C368 C362 1.379 1_565 S
C368 C365 1.363 . S
C368 N366 1.356 . S
C369 C363 1.363 . S
C369 C364 1.379 1_545 S
C369 N367 1.356 . S
N370 C362 1.356 . S
N370 H376 0.984 . S
N370 H377 0.984 . S
N371 C364 1.356 . S
N371 H374 0.984 . S
N371 H375 0.985 . S
H372 N367 0.984 . S
H373 N367 0.985 . S
H374 N371 0.984 . S
H375 N371 0.985 . S
H376 N370 0.984 . S
H377 N370 0.984 . S
H378 N366 0.984 . S
H379 N366 0.985 . S
C380 C381 1.363 . S
C380 C386 1.379 1_554 S
C380 N388 1.356 . S
C381 C380 1.363 . S
C381 C387 1.363 . S
C382 C383 1.373 . S
C382 C387 1.369 1_556 S
C382 N389 1.359 . S
C383 C382 1.373 . S
C383 C386 1.363 . S
N384 C386 1.356 . S
N384 H396 0.984 . S
N384 H397 0.985 . S
N385 C387 1.356 . S
N385 H390 0.984 . S
N385 H391 0.985 . S
C386 C380 1.379 1_556 S
C386 C383 1.363 . S
C386 N384 1.356 . S
C387 C381 1.363 . S
C387 C382 1.369 1_554 S
C387 N385 1.356 . S
N388 C380 1.356 . S
N388 H394 0.984 1_554 S
N388 H395 0.984 . S
N389 C382 1.359 . S
N389 H392 0.984 . S
N389 H393 0.985 1_556 S
H390 N385 0.984 . S
H391 N385 0.985 . S
H392 N389 0.984 . S
H393 N389 0.985 1_554 S
H394 N388 0.984 1_556 S
H395 N388 0.984 . S
H396 N384 0.984 . S
H397 N384 0.985 . S
C398 C399 1.363 . S
C398 C404 1.379 . S
C398 N406 1.356 . S
C399 C398 1.363 . S
C399 C405 1.363 . S
C400 C401 1.363 . S
C400 C405 1.379 . S
C400 N407 1.356 . S
C401 C400 1.363 . S
C401 C404 1.363 . S
N402 C404 1.356 . S
N402 H414 0.984 . S
N402 H415 0.985 . S
N403 C405 1.356 . S
N403 H408 0.984 . S
N403 H409 0.985 . S
C404 C398 1.379 . S
C404 C401 1.363 . S
C404 N402 1.356 . S
C405 C399 1.363 . S
C405 C400 1.379 . S
C405 N403 1.356 . S
N406 C398 1.356 . S
N406 H412 0.984 . S
N406 H413 0.984 . S
N407 C400 1.356 . S
N407 H410 0.984 . S
N407 H411 0.985 . S
H408 N403 0.984 . S
H409 N403 0.985 . S
H410 N407 0.984 . S
H411 N407 0.985 . S
H412 N406 0.984 . S
H413 N406 0.984 . S
H414 N402 0.984 . S
H415 N402 0.985 . S
C129 C20 1.561 . S
C131 C16 1.561 . S
C147 C52 1.561 . S
C149 C48 1.561 . S
C165 C84 1.561 . S
C167 C80 1.561 . S
C183 C112 1.561 . S
C185 C116 1.561 . S
C201 C19 0.822 . S
C203 C23 0.822 . S
C219 C51 0.822 . S
C221 C55 0.822 . S
C237 C87 0.822 . S
C239 C83 0.822 . S
C255 C119 0.822 . S
C257 C115 0.822 . S
C273 C114 1.928 . S
C275 C22 1.928 . S
C291 C117 2.076 . S
C293 C17 2.076 . S
C309 C86 1.926 . S
C311 C50 1.926 . S
C327 C81 2.078 . S
C329 C53 2.078 . S
C345 C18 1.695 . S
C347 C54 1.695 . S
C363 C21 1.794 . S
C365 C49 1.794 . S
C381 C82 1.695 . S
C383 C118 1.695 . S
C399 C113 1.794 . S
C401 C85 1.794 . S
