# Generated by pormake.
# Topology mmt, (4)-cn, num edge types: 1
# Building blocks:
#     Node 0, Type 0, BuildingBlock: KUFVIS_clean_sbu_0, # of connection points: 4
#     Node 1, Type 0, BuildingBlock: KUFVIS_clean_sbu_0, # of connection points: 4
#     Node 2, Type 0, BuildingBlock: KUFVIS_clean_sbu_0, # of connection points: 4
#     Node 3, Type 0, BuildingBlock: KUFVIS_clean_sbu_0, # of connection points: 4
#     Node 4, Type 0, BuildingBlock: KUFVIS_clean_sbu_0, # of connection points: 4
#     Node 5, Type 0, BuildingBlock: KUFVIS_clean_sbu_0, # of connection points: 4
#     Node 6, Type 0, BuildingBlock: KUFVIS_clean_sbu_0, # of connection points: 4
#     Node 7, Type 0, BuildingBlock: KUFVIS_clean_sbu_0, # of connection points: 4
#     Edge 8, Type (0, 0), BuildingBlock: XIVTED_clean_linker_0, # of connection points: 2
#     Edge 9, Type (0, 0), BuildingBlock: XIVTED_clean_linker_0, # of connection points: 2
#     Edge 10, Type (0, 0), BuildingBlock: XIVTED_clean_linker_0, # of connection points: 2
#     Edge 11, Type (0, 0), BuildingBlock: XIVTED_clean_linker_0, # of connection points: 2
#     Edge 12, Type (0, 0), BuildingBlock: XIVTED_clean_linker_0, # of connection points: 2
#     Edge 13, Type (0, 0), BuildingBlock: XIVTED_clean_linker_0, # of connection points: 2
#     Edge 14, Type (0, 0), BuildingBlock: XIVTED_clean_linker_0, # of connection points: 2
#     Edge 15, Type (0, 0), BuildingBlock: XIVTED_clean_linker_0, # of connection points: 2
#     Edge 16, Type (0, 0), BuildingBlock: XIVTED_clean_linker_0, # of connection points: 2
#     Edge 17, Type (0, 0), BuildingBlock: XIVTED_clean_linker_0, # of connection points: 2
#     Edge 18, Type (0, 0), BuildingBlock: XIVTED_clean_linker_0, # of connection points: 2
#     Edge 19, Type (0, 0), BuildingBlock: XIVTED_clean_linker_0, # of connection points: 2
#     Edge 20, Type (0, 0), BuildingBlock: XIVTED_clean_linker_0, # of connection points: 2
#     Edge 21, Type (0, 0), BuildingBlock: XIVTED_clean_linker_0, # of connection points: 2
#     Edge 22, Type (0, 0), BuildingBlock: XIVTED_clean_linker_0, # of connection points: 2
#     Edge 23, Type (0, 0), BuildingBlock: XIVTED_clean_linker_0, # of connection points: 2
# Relax obj value: 0.034
# Max RMSD: 0.059
# Mean RMSD: 0.059
data_MOF--net-mmt--node1-KUFVIS_clean_sbu_0--edge1-XIVTED_clean_linker_0
_symmetry_space_group_name_H-M    P1
_symmetry_Int_Tables_number       1
_symmetry_cell_setting            triclinic
loop_
_symmetry_equiv_pos_as_xyz
'x, y, z'
_cell_length_a     22.364224
_cell_length_b     37.309487
_cell_length_c     44.159666
_cell_angle_alpha  89.965966
_cell_angle_beta   90.00119
_cell_angle_gamma 89.982385
loop_
_atom_site_label
_atom_site_type_symbol
_atom_site_fract_x
_atom_site_fract_y
_atom_site_fract_z
_atom_type_partial_charge
Mn0 Mn 0.10147 0.56479 0.35228 0.0
Mn1 Mn 0.08276 0.60999 0.2867 0.0
C2 C 0.03468 0.54359 0.31668 0.0
C3 C 0.07606 0.55507 0.40284 0.0
C4 C 0.18986 0.56245 0.30001 0.0
O5 O 0.14102 0.61327 0.36055 0.0
O6 O 0.11464 0.64311 0.31806 0.0
C7 C 0.98582 0.65943 0.30503 0.0
N8 N 0.007 0.63364 0.28606 0.0
C9 C 0.91669 0.63494 0.25645 0.0
C10 C 0.89413 0.6618 0.2755 0.0
C11 C 0.9288 0.67402 0.29994 0.0
C12 C 0.97399 0.62162 0.26251 0.0
H13 H 0.0122 0.66871 0.32394 0.0
C14 C 0.13845 0.64171 0.34444 0.0
O15 O 0.12754 0.54512 0.39212 0.0
O16 O 0.04098 0.57249 0.38465 0.0
N17 N 0.05177 0.58132 0.25437 0.0
C18 C 0.07823 0.5535 0.23954 0.0
C19 C 0.04832 0.53714 0.21525 0.0
C20 C 0.99182 0.54973 0.20629 0.0
C21 C 0.96577 0.57864 0.22169 0.0
C22 C 0.99786 0.59403 0.24561 0.0
H23 H 0.12162 0.54368 0.24631 0.0
O24 O 0.05513 0.52262 0.33768 0.0
O25 O 0.05259 0.57678 0.31761 0.0
O26 O 0.17173 0.55028 0.32536 0.0
O27 O 0.16169 0.58604 0.28461 0.0
C28 C 0.90856 0.59218 0.21475 0.0
C29 C 0.88401 0.62028 0.23214 0.0
H30 H 0.85 0.67294 0.27178 0.0
H31 H 0.91152 0.69455 0.31487 0.0
H32 H 0.06869 0.5148 0.2035 0.0
H33 H 0.96863 0.5368 0.18774 0.0
H34 H 0.88262 0.58074 0.19644 0.0
H35 H 0.83958 0.63005 0.22691 0.0
Mn36 Mn 0.40162 0.943 0.35527 0.0
Mn37 Mn 0.43096 0.90088 0.28915 0.0
C38 C 0.47077 0.96685 0.32197 0.0
C39 C 0.42197 0.95293 0.40638 0.0
C40 C 0.32091 0.94691 0.29934 0.0
O41 O 0.36582 0.89347 0.36236 0.0
O42 O 0.39078 0.86748 0.318 0.0
C43 C 0.52103 0.84956 0.31234 0.0
N44 N 0.5051 0.87568 0.29236 0.0
C45 C 0.60065 0.87242 0.26744 0.0
C46 C 0.61774 0.84509 0.28747 0.0
C47 C 0.57783 0.83372 0.31009 0.0
C48 C 0.54331 0.88702 0.27065 0.0
H49 H 0.49071 0.84099 0.32992 0.0
C50 C 0.3671 0.86665 0.34443 0.0
O51 O 0.37051 0.96136 0.39471 0.0
O52 O 0.45981 0.93679 0.38882 0.0
N53 N 0.4703 0.92926 0.259 0.0
C54 C 0.44902 0.95799 0.24328 0.0
C55 C 0.48444 0.97362 0.22058 0.0
C56 C 0.54123 0.95946 0.21417 0.0
C57 C 0.56213 0.92981 0.23056 0.0
C58 C 0.52462 0.91517 0.25276 0.0
H59 H 0.40582 0.96928 0.24838 0.0
O60 O 0.44539 0.98684 0.3422 0.0
O61 O 0.45564 0.93314 0.32192 0.0
O62 O 0.33206 0.95518 0.32681 0.0
O63 O 0.35478 0.92688 0.2833 0.0
C64 C 0.61945 0.91492 0.22641 0.0
C65 C 0.63873 0.88629 0.24488 0.0
H66 H 0.66165 0.83297 0.28594 0.0
H67 H 0.59091 0.81289 0.32582 0.0
H68 H 0.46817 0.99669 0.20821 0.0
H69 H 0.56873 0.97188 0.19691 0.0
H70 H 0.64951 0.92577 0.2095 0.0
H71 H 0.6833 0.8755 0.24184 0.0
Mn72 Mn 0.60224 0.44297 0.14908 0.0
Mn73 Mn 0.58216 0.39562 0.21347 0.0
C74 C 0.53584 0.46354 0.18513 0.0
C75 C 0.57749 0.45455 0.09872 0.0
C76 C 0.69026 0.44283 0.20159 0.0
O77 O 0.64079 0.39453 0.13961 0.0
O78 O 0.61408 0.36348 0.18137 0.0
C79 C 0.48484 0.34738 0.19351 0.0
N80 N 0.50607 0.37239 0.21321 0.0
C81 C 0.41543 0.37039 0.24251 0.0
C82 C 0.39279 0.34435 0.22271 0.0
C83 C 0.42759 0.33288 0.19805 0.0
C84 C 0.47293 0.38369 0.23695 0.0
H85 H 0.51137 0.33865 0.17446 0.0
C86 C 0.63799 0.3656 0.15505 0.0
O87 O 0.62909 0.46372 0.10977 0.0
O88 O 0.5418 0.43691 0.11645 0.0
N89 N 0.55118 0.42321 0.24646 0.0
C90 C 0.57794 0.4502 0.26221 0.0
C91 C 0.54802 0.46572 0.28689 0.0
C92 C 0.49123 0.45311 0.29531 0.0
C93 C 0.4649 0.42502 0.27898 0.0
C94 C 0.49698 0.41047 0.25468 0.0
H95 H 0.62159 0.46001 0.25587 0.0
O96 O 0.55687 0.485 0.16465 0.0
O97 O 0.55286 0.4302 0.18339 0.0
O98 O 0.67272 0.45587 0.17643 0.0
O99 O 0.66134 0.41906 0.21641 0.0
C100 C 0.40754 0.41142 0.28544 0.0
C101 C 0.38275 0.3842 0.26718 0.0
H102 H 0.34852 0.33325 0.22603 0.0
H103 H 0.41026 0.31297 0.18255 0.0
H104 H 0.56862 0.48741 0.29936 0.0
H105 H 0.46805 0.46537 0.31419 0.0
H106 H 0.38169 0.42213 0.30411 0.0
H107 H 0.3382 0.37439 0.27207 0.0
Mn108 Mn 0.90029 0.06471 0.15317 0.0
Mn109 Mn 0.92661 0.11518 0.21508 0.0
C110 C 0.9689 0.04563 0.18873 0.0
C111 C 0.92207 0.05126 0.10279 0.0
C112 C 0.81678 0.06811 0.20748 0.0
O113 O 0.86142 0.11279 0.14276 0.0
O114 O 0.8925 0.1459 0.18253 0.0
C115 C 0.02352 0.16058 0.19036 0.0
N116 N 0.00366 0.13694 0.2116 0.0
C117 C 0.09927 0.13672 0.2366 0.0
C118 C 0.12058 0.16135 0.21517 0.0
C119 C 0.08256 0.17326 0.19191 0.0
C120 C 0.03996 0.12514 0.23396 0.0
H121 H 0.9946 0.16955 0.1723 0.0
C122 C 0.86607 0.14251 0.15693 0.0
O123 O 0.87115 0.04233 0.11481 0.0
O124 O 0.95864 0.06945 0.11958 0.0
N125 N 0.96 0.08905 0.24836 0.0
C126 C 0.93282 0.06487 0.26696 0.0
C127 C 0.96493 0.05009 0.29129 0.0
C128 C 0.02444 0.06051 0.29637 0.0
C129 C 0.05109 0.08593 0.27727 0.0
C130 C 0.01664 0.10006 0.25362 0.0
H131 H 0.8871 0.05675 0.26321 0.0
O132 O 0.94665 0.02319 0.1694 0.0
O133 O 0.95188 0.07879 0.18594 0.0
O134 O 0.83203 0.05366 0.18245 0.0
O135 O 0.84706 0.09263 0.22074 0.0
C136 C 0.11069 0.09751 0.28058 0.0
C137 C 0.13481 0.12282 0.26021 0.0
H138 H 0.16617 0.17107 0.21621 0.0
H139 H 0.09881 0.19208 0.17517 0.0
H140 H 0.94396 0.03059 0.306 0.0
H141 H 0.04925 0.04878 0.31497 0.0
H142 H 0.13854 0.08686 0.29853 0.0
H143 H 0.18087 0.13124 0.26279 0.0
Mn144 Mn 0.89857 0.44478 0.64984 0.0
Mn145 Mn 0.91829 0.39855 0.71481 0.0
C146 C 0.96528 0.46571 0.68561 0.0
C147 C 0.92386 0.45534 0.59937 0.0
C148 C 0.81037 0.44574 0.70223 0.0
O149 O 0.85964 0.39626 0.64101 0.0
O150 O 0.88656 0.36583 0.68309 0.0
C151 C 0.01567 0.34983 0.69573 0.0
N152 N 0.99434 0.37524 0.71503 0.0
C153 C 0.08491 0.37387 0.74443 0.0
C154 C 0.10764 0.34741 0.72504 0.0
C155 C 0.07291 0.33542 0.70053 0.0
C156 C 0.02739 0.38702 0.73864 0.0
H157 H 0.98923 0.34072 0.67678 0.0
C158 C 0.86256 0.36756 0.65677 0.0
O159 O 0.87227 0.46496 0.61018 0.0
O160 O 0.9591 0.43782 0.61741 0.0
N161 N 0.94915 0.42681 0.74742 0.0
C162 C 0.92248 0.45429 0.76261 0.0
C163 C 0.9524 0.47041 0.78702 0.0
C164 C 0.00915 0.45795 0.7957 0.0
C165 C 0.03542 0.4294 0.77993 0.0
C166 C 0.00331 0.41422 0.75591 0.0
H167 H 0.8789 0.46401 0.75605 0.0
O168 O 0.9444 0.48692 0.6649 0.0
O169 O 0.9478 0.43245 0.68429 0.0
O170 O 0.82813 0.45846 0.67699 0.0
O171 O 0.8391 0.4221 0.7173 0.0
C172 C 0.09287 0.41602 0.78658 0.0
C173 C 0.11762 0.3883 0.76883 0.0
H174 H 0.15194 0.33642 0.72853 0.0
H175 H 0.09031 0.3152 0.68534 0.0
H176 H 0.93186 0.49247 0.79905 0.0
H177 H 0.03234 0.47069 0.81434 0.0
H178 H 0.11884 0.4273 0.80495 0.0
H179 H 0.16222 0.37866 0.77385 0.0
Mn180 Mn 0.59567 0.0678 0.65232 0.0
Mn181 Mn 0.57508 0.11494 0.71672 0.0
C182 C 0.52888 0.04722 0.68819 0.0
C183 C 0.57137 0.05608 0.60196 0.0
C184 C 0.68325 0.0677 0.70505 0.0
O185 O 0.63414 0.11629 0.6429 0.0
O186 O 0.60741 0.14716 0.68475 0.0
C187 C 0.47808 0.16337 0.69657 0.0
N188 N 0.49906 0.13828 0.7163 0.0
C189 C 0.40794 0.14012 0.74523 0.0
C190 C 0.38558 0.16626 0.72541 0.0
C191 C 0.42076 0.17785 0.70092 0.0
C192 C 0.46556 0.12688 0.7399 0.0
H193 H 0.50486 0.17216 0.67763 0.0
C194 C 0.63132 0.14515 0.65842 0.0
O195 O 0.62293 0.04704 0.61314 0.0
O196 O 0.53547 0.07377 0.61953 0.0
N197 N 0.54363 0.08724 0.74955 0.0
C198 C 0.57003 0.06002 0.76523 0.0
C199 C 0.53966 0.04431 0.78969 0.0
C200 C 0.48276 0.05691 0.79794 0.0
C201 C 0.45677 0.08519 0.78168 0.0
C202 C 0.48932 0.09997 0.75762 0.0
H203 H 0.61372 0.0502 0.75899 0.0
O204 O 0.55024 0.02575 0.66783 0.0
O205 O 0.54595 0.08054 0.6865 0.0
O206 O 0.66594 0.05486 0.6798 0.0
O207 O 0.65421 0.09139 0.71988 0.0
C208 C 0.3992 0.09867 0.78788 0.0
C209 C 0.37478 0.12609 0.76966 0.0
H210 H 0.34122 0.17731 0.72855 0.0
H211 H 0.40364 0.19783 0.68539 0.0
H212 H 0.55998 0.02246 0.80211 0.0
H213 H 0.45922 0.04447 0.81663 0.0
H214 H 0.3729 0.0877 0.80628 0.0
H215 H 0.33009 0.13581 0.77434 0.0
Mn216 Mn 0.39817 0.56679 0.85271 0.0
Mn217 Mn 0.4186 0.6139 0.78824 0.0
C218 C 0.4652 0.54629 0.81691 0.0
C219 C 0.42254 0.55545 0.90316 0.0
C220 C 0.3106 0.56656 0.80003 0.0
O221 O 0.35925 0.6152 0.86194 0.0
O222 O 0.38637 0.64615 0.82017 0.0
C223 C 0.51563 0.66235 0.80821 0.0
N224 N 0.4946 0.63725 0.78854 0.0
C225 C 0.58555 0.63911 0.75947 0.0
C226 C 0.60796 0.66527 0.77924 0.0
C227 C 0.5729 0.67685 0.80376 0.0
C228 C 0.52799 0.62584 0.76491 0.0
H229 H 0.48893 0.67114 0.82718 0.0
C230 C 0.36222 0.64409 0.84644 0.0
O231 O 0.37111 0.54611 0.89201 0.0
O232 O 0.45826 0.57312 0.88547 0.0
N233 N 0.44996 0.58616 0.75543 0.0
C234 C 0.42352 0.55895 0.73981 0.0
C235 C 0.45377 0.54325 0.71531 0.0
C236 C 0.5106 0.55588 0.70696 0.0
C237 C 0.53662 0.58417 0.72316 0.0
C238 C 0.50419 0.59892 0.74726 0.0
H239 H 0.37987 0.54911 0.74612 0.0
O240 O 0.44406 0.52482 0.83735 0.0
O241 O 0.44781 0.57956 0.81851 0.0
O242 O 0.32805 0.5536 0.82523 0.0
O243 O 0.33949 0.59035 0.78522 0.0
C244 C 0.59412 0.59768 0.71685 0.0
C245 C 0.61859 0.6251 0.73501 0.0
H246 H 0.65228 0.67634 0.77601 0.0
H247 H 0.59006 0.69683 0.81924 0.0
H248 H 0.43341 0.5214 0.70294 0.0
H249 H 0.53404 0.54345 0.68824 0.0
H250 H 0.62034 0.58672 0.69842 0.0
H251 H 0.66323 0.63485 0.73025 0.0
Mn252 Mn 0.09545 0.94393 0.85429 0.0
Mn253 Mn 0.07501 0.8985 0.78903 0.0
C254 C 0.02846 0.96539 0.81888 0.0
C255 C 0.07127 0.95386 0.90496 0.0
C256 C 0.18313 0.94542 0.80168 0.0
O257 O 0.13428 0.89528 0.86266 0.0
O258 O 0.10696 0.86535 0.82043 0.0
C259 C 0.9777 0.84966 0.80799 0.0
N260 N 0.99891 0.87528 0.78883 0.0
C261 C 0.90809 0.87434 0.75962 0.0
C262 C 0.88548 0.84768 0.77886 0.0
C263 C 0.92039 0.83537 0.8032 0.0
C264 C 0.96568 0.88737 0.76537 0.0
H265 H 0.00428 0.84031 0.82681 0.0
C266 C 0.13116 0.86676 0.84672 0.0
O267 O 0.12265 0.96349 0.89392 0.0
O268 O 0.03539 0.93675 0.88697 0.0
N269 N 0.04391 0.92718 0.75672 0.0
C270 C 0.0705 0.95481 0.74167 0.0
C271 C 0.0404 0.97124 0.71745 0.0
C272 C 0.98357 0.95893 0.70879 0.0
C273 C 0.95738 0.93023 0.72441 0.0
C274 C 0.98966 0.91475 0.74825 0.0
H275 H 0.11415 0.96441 0.74821 0.0
O276 O 0.04962 0.98632 0.8397 0.0
O277 O 0.04581 0.93207 0.81989 0.0
O278 O 0.16559 0.95783 0.82705 0.0
O279 O 0.15426 0.92197 0.7865 0.0
C280 C 0.89985 0.91698 0.71779 0.0
C281 C 0.87521 0.88908 0.73539 0.0
H282 H 0.84114 0.83677 0.77538 0.0
H283 H 0.90308 0.81499 0.81828 0.0
H284 H 0.06089 0.99342 0.70553 0.0
H285 H 0.96024 0.97192 0.6903 0.0
H286 H 0.87375 0.92849 0.69955 0.0
H287 H 0.83055 0.87954 0.7304 0.0
H288 H 0.22501 0.49249 0.29974 0.0
H289 H 0.53675 0.52436 0.21864 0.0
H290 H 0.27807 0.59775 0.26959 0.0
H291 H 0.42624 0.43403 0.19519 0.0
H292 H 0.45434 0.54856 0.24934 0.0
H293 H 0.31201 0.46697 0.27337 0.0
C294 C 0.25558 0.51022 0.288 0.0
C295 C 0.24465 0.54721 0.28673 0.0
C296 C 0.44864 0.52317 0.23781 0.0
C297 C 0.34398 0.51844 0.25728 0.0
C298 C 0.49543 0.50937 0.22048 0.0
C299 C 0.48876 0.47647 0.20558 0.0
C300 C 0.39501 0.5039 0.2401 0.0
C301 C 0.43385 0.45859 0.20763 0.0
C302 C 0.30477 0.49567 0.2729 0.0
C303 C 0.28502 0.56907 0.27095 0.0
N304 N 0.38907 0.47232 0.22493 0.0
N305 N 0.33329 0.55438 0.25697 0.0
H306 H 0.08284 0.06979 0.18621 0.0
H307 H 0.21601 0.96845 0.32618 0.0
H308 H 0.96926 0.99433 0.23255 0.0
H309 H 0.30313 0.96024 0.23919 0.0
H310 H 0.12784 0.99435 0.30078 0.0
H311 H 0.16914 0.04655 0.21474 0.0
C312 C 0.07612 0.04881 0.20284 0.0
C313 C 0.01916 0.03444 0.20781 0.0
C314 C 0.16664 0.9869 0.28752 0.0
C315 C 0.11649 0.00809 0.24012 0.0
C316 C 0.2168 0.97228 0.30187 0.0
C317 C 0.26709 0.96225 0.28478 0.0
C318 C 0.16786 0.99248 0.25614 0.0
C319 C 0.2656 0.96763 0.2533 0.0
C320 C 0.12508 0.03552 0.21885 0.0
C321 C 0.0126 0.00646 0.22873 0.0
N322 N 0.21704 0.98279 0.24002 0.0
N323 N 0.06075 0.99439 0.24454 0.0
H324 H 0.77459 0.40626 0.23374 0.0
H325 H 0.92617 0.57427 0.30656 0.0
H326 H 0.7299 0.51199 0.20128 0.0
H327 H 0.03247 0.48157 0.28466 0.0
H328 H 0.84456 0.55027 0.27523 0.0
H329 H 0.86209 0.43148 0.25971 0.0
C330 C 0.78348 0.43473 0.23198 0.0
C331 C 0.74534 0.45713 0.21533 0.0
C332 C 0.88613 0.53551 0.27697 0.0
C333 C 0.84373 0.48604 0.24544 0.0
C334 C 0.93264 0.54928 0.29452 0.0
C335 C 0.98679 0.53063 0.29675 0.0
C336 C 0.89323 0.50217 0.26275 0.0
C337 C 0.99184 0.49717 0.28258 0.0
C338 C 0.83329 0.44901 0.24666 0.0
C339 C 0.75864 0.49384 0.21371 0.0
N340 N 0.9455 0.48388 0.26616 0.0
N341 N 0.80635 0.50732 0.22901 0.0
H342 H 0.73622 0.10567 0.2415 0.0
H343 H 0.58116 0.93757 0.31456 0.0
H344 H 0.77629 0.99926 0.20913 0.0
H345 H 0.47602 0.03071 0.29244 0.0
H346 H 0.66488 0.96259 0.2853 0.0
H347 H 0.65001 0.0813 0.26928 0.0
C348 C 0.72671 0.07724 0.24021 0.0
C349 C 0.76303 0.05441 0.22295 0.0
C350 C 0.62323 0.97732 0.28668 0.0
C351 C 0.6663 0.02651 0.25511 0.0
C352 C 0.57554 0.96298 0.30304 0.0
C353 C 0.52099 0.98132 0.30435 0.0
C354 C 0.61677 0.01084 0.27267 0.0
C355 C 0.51695 0.01531 0.29096 0.0
C356 C 0.67767 0.06346 0.25593 0.0
C357 C 0.74896 0.01777 0.22197 0.0
N358 N 0.56429 0.02905 0.27552 0.0
N359 N 0.70206 1.00482 0.2382 0.0
H360 H 0.57438 0.57659 0.80775 0.0
H361 H 0.72485 0.40926 0.73353 0.0
H362 H 0.4669 0.48519 0.78367 0.0
H363 H 0.77172 0.51515 0.70229 0.0
H364 H 0.63714 0.43462 0.75924 0.0
H365 H 0.65615 0.55286 0.77636 0.0
C366 C 0.56768 0.55198 0.79522 0.0
C367 C 0.51318 0.53363 0.79688 0.0
C368 C 0.66645 0.45216 0.74651 0.0
C369 C 0.60691 0.50539 0.76281 0.0
C370 C 0.71637 0.4378 0.73197 0.0
C371 C 0.75518 0.4602 0.71575 0.0
C372 C 0.65654 0.48926 0.74558 0.0
C373 C 0.74243 0.497 0.71439 0.0
C374 C 0.61428 0.53835 0.77763 0.0
C375 C 0.50783 0.50058 0.78206 0.0
N376 N 0.69458 0.51055 0.72956 0.0
N377 N 0.55425 0.48739 0.76564 0.0
H378 H 0.76755 0.10384 0.73757 0.0
H379 H 0.9194 0.93519 0.80928 0.0
H380 H 0.72267 0.9985 0.70441 0.0
H381 H 0.02632 0.02743 0.78682 0.0
H382 H 0.83745 0.9596 0.77837 0.0
H383 H 0.85517 0.07825 0.76326 0.0
C384 C 0.77639 0.07538 0.73561 0.0
C385 C 0.73819 0.0532 0.71883 0.0
C386 C 0.87922 0.97417 0.7799 0.0
C387 C 0.83671 0.02388 0.74862 0.0
C388 C 0.92593 0.96016 0.7972 0.0
C389 C 0.98035 0.97855 0.79915 0.0
C390 C 0.88638 0.00752 0.76568 0.0
C391 C 0.98547 0.01201 0.78495 0.0
C392 C 0.82627 0.0609 0.75014 0.0
C393 C 0.75145 0.01649 0.71695 0.0
N394 N 0.93893 0.02556 0.7688 0.0
N395 N 0.79922 1.00281 0.7321 0.0
H396 H 0.22597 0.60301 0.76797 0.0
H397 H 0.07419 0.43523 0.69512 0.0
H398 H 0.27134 0.49731 0.80027 0.0
H399 H 0.96739 0.52731 0.7182 0.0
H400 H 0.15609 0.45916 0.72629 0.0
H401 H 0.13826 0.57769 0.74224 0.0
C402 C 0.2172 0.57452 0.76973 0.0
C403 C 0.25558 0.55216 0.78628 0.0
C404 C 0.11435 0.47379 0.72485 0.0
C405 C 0.15693 0.52315 0.75644 0.0
C406 C 0.06766 0.46005 0.70739 0.0
C407 C 0.0133 0.47854 0.70553 0.0
C408 C 0.10722 0.50698 0.73931 0.0
C409 C 0.00819 0.51182 0.71999 0.0
C410 C 0.16727 0.56019 0.75519 0.0
C411 C 0.24243 0.51543 0.78791 0.0
N412 N 0.05471 0.52512 0.73628 0.0
N413 N 0.19458 0.5019 0.77274 0.0
H414 H 0.26851 0.90938 0.76989 0.0
H415 H 0.41958 0.07744 0.69732 0.0
H416 H 0.22178 0.01479 0.80224 0.0
H417 H 0.52717 0.98597 0.72129 0.0
H418 H 0.3376 0.05339 0.72841 0.0
H419 H 0.35638 0.93507 0.74454 0.0
C420 C 0.27702 0.93788 0.77175 0.0
C421 C 0.23823 0.96005 0.7882 0.0
C422 C 0.37954 0.03894 0.72719 0.0
C423 C 0.33705 0.98949 0.75878 0.0
C424 C 0.42627 0.05275 0.70978 0.0
C425 C 0.48085 0.03446 0.70817 0.0
C426 C 0.38685 0.00586 0.74184 0.0
C427 C 0.48618 1.00132 0.72287 0.0
C428 C 0.32704 0.95243 0.75742 0.0
C429 C 0.25104 0.99682 0.78996 0.0
N430 N 0.43962 0.98793 0.73909 0.0
N431 N 0.29899 0.01056 0.77499 0.0
H432 H 0.96891 0.56968 0.4301 0.0
H433 H 0.0308 0.44087 0.57196 0.0
H434 H 0.13487 0.51299 0.44413 0.0
H435 H 0.86509 0.49798 0.55841 0.0
H436 H 0.06901 0.46632 0.52482 0.0
H437 H 0.93063 0.54445 0.47735 0.0
C438 C 0.99759 0.55224 0.44329 0.0
C439 C 0.05524 0.54345 0.43312 0.0
C440 C 0.02418 0.47318 0.53205 0.0
C441 C 0.01128 0.51402 0.4871 0.0
C442 C 0.00216 0.45847 0.55891 0.0
C443 C 0.9446 0.46728 0.56917 0.0
C444 C 0.98848 0.49698 0.51528 0.0
C445 C 0.90967 0.49037 0.55134 0.0
C446 C 0.97554 0.53766 0.4702 0.0
C447 C 0.09022 0.52057 0.45111 0.0
N448 N 0.93224 0.50452 0.52534 0.0
N449 N 0.0676 0.50653 0.47713 0.0
H450 H 0.35809 0.99394 0.4466 0.0
H451 H 0.63366 0.01489 0.56148 0.0
H452 H 0.52803 0.94077 0.43526 0.0
H453 H 0.46315 0.06689 0.57441 0.0
H454 H 0.59588 0.98824 0.51472 0.0
H455 H 0.3947 0.02015 0.49393 0.0
C456 C 0.40279 0.9874 0.45425 0.0
C457 C 0.44005 0.96514 0.43692 0.0
C458 C 0.56676 0.00561 0.5277 0.0
C459 C 0.4826 0.99549 0.49079 0.0
C460 C 0.58847 0.02103 0.55432 0.0
C461 C 0.55155 0.04319 0.5719 0.0
C462 C 0.50761 0.01232 0.51854 0.0
C463 C 0.49325 0.05003 0.56155 0.0
C464 C 0.42383 1.00256 0.48117 0.0
C465 C 0.49772 0.95778 0.44786 0.0
N466 N 0.47302 0.03455 0.53563 0.0
N467 N 0.51728 0.97304 0.47397 0.0
H468 H 0.63883 0.49593 0.05789 0.0
H469 H 0.36113 0.51408 0.94397 0.0
H470 H 0.46962 0.44264 0.07129 0.0
H471 H 0.5302 0.56759 0.93073 0.0
H472 H 0.39951 0.48836 0.99108 0.0
H473 H 0.60035 0.52174 0.01085 0.0
C474 C 0.59381 0.48934 0.05078 0.0
C475 C 0.55741 0.46707 0.06857 0.0
C476 C 0.42813 0.50587 0.97795 0.0
C477 C 0.51272 0.49694 0.01492 0.0
C478 C 0.4061 0.52074 0.95113 0.0
C479 C 0.44248 0.54303 0.93337 0.0
C480 C 0.48707 0.51326 0.98708 0.0
C481 C 0.50051 0.55058 0.94371 0.0
C482 C 0.57172 0.50426 0.024 0.0
C483 C 0.49931 0.45962 0.05829 0.0
N484 N 0.52106 0.53562 0.96979 0.0
N485 N 0.47872 0.47462 0.03223 0.0
H486 H 0.13341 0.99377 0.94633 0.0
H487 H 0.86014 0.008 0.06339 0.0
H488 H 0.96387 0.94095 0.93272 0.0
H489 H 0.02731 0.0645 0.0736 0.0
H490 H 0.89698 0.9826 0.01574 0.0
H491 H 0.09608 0.01804 0.99409 0.0
C492 C 0.08854 0.98695 0.95354 0.0
C493 C 0.05172 0.96531 0.93548 0.0
C494 C 0.92546 1.00069 0.02836 0.0
C495 C 0.00829 0.99341 0.99002 0.0
C496 C 0.90431 0.01534 0.05548 0.0
C497 C 0.94066 0.03843 0.07251 0.0
C498 C 0.98342 0.0091 0.01827 0.0
C499 C 0.99767 0.04684 0.06124 0.0
C500 C 0.06708 1.001 0.98075 0.0
C501 C 0.99384 0.9575 0.94593 0.0
N502 N 0.01731 0.0321 0.03494 0.0
N503 N 0.97383 0.97165 0.97244 0.0
H504 H 0.09535 0.70998 0.34352 0.0
H505 H 0.40605 0.79828 0.33534 0.0
H506 H 0.25091 0.64808 0.36776 0.0
H507 H 0.25947 0.85856 0.37312 0.0
H508 H 0.35016 0.74279 0.34419 0.0
H509 H 0.15262 0.76519 0.35183 0.0
C510 C 0.14122 0.7081 0.35124 0.0
C511 C 0.16851 0.67455 0.35512 0.0
C512 C 0.33073 0.76811 0.35106 0.0
C513 C 0.23459 0.73732 0.36356 0.0
C514 C 0.36245 0.79975 0.34593 0.0
C515 C 0.3373 0.83298 0.35358 0.0
C516 C 0.27261 0.76982 0.36291 0.0
C517 C 0.28052 0.83342 0.36711 0.0
C518 C 0.17378 0.73953 0.35599 0.0
C519 C 0.2282 0.67348 0.36484 0.0
N520 N 0.24941 0.80232 0.37074 0.0
N521 N 0.25978 0.70446 0.36805 0.0
H522 H 0.75512 0.14633 0.13123 0.0
H523 H 0.74725 0.36064 0.12771 0.0
H524 H 0.90585 0.2116 0.15694 0.0
H525 H 0.59835 0.2966 0.15798 0.0
H526 H 0.80485 0.30536 0.11911 0.0
H527 H 0.69702 0.20121 0.12171 0.0
C528 C 0.77649 0.17218 0.13397 0.0
C529 C 0.83517 0.17455 0.14501 0.0
C530 C 0.75906 0.30353 0.12695 0.0
C531 C 0.76952 0.237 0.13395 0.0
C532 C 0.72611 0.33493 0.13164 0.0
C533 C 0.66815 0.33306 0.14368 0.0
C534 C 0.73321 0.27016 0.13368 0.0
C535 C 0.64305 0.29912 0.14882 0.0
C536 C 0.74328 0.20337 0.12875 0.0
C537 C 0.86058 0.20869 0.1486 0.0
N538 N 0.67578 0.26897 0.14388 0.0
N539 N 0.82756 0.23861 0.14318 0.0
H540 H 0.59017 0.21383 0.66074 0.0
H541 H 0.90396 0.29896 0.65937 0.0
H542 H 0.74122 0.15076 0.63179 0.0
H543 H 0.75219 0.36163 0.63073 0.0
H544 H 0.84643 0.24411 0.65029 0.0
H545 H 0.64752 0.26854 0.65079 0.0
C546 C 0.63502 0.21157 0.65168 0.0
C547 C 0.66107 0.17782 0.64701 0.0
C548 C 0.82619 0.26983 0.64533 0.0
C549 C 0.72741 0.24012 0.63655 0.0
C550 C 0.85891 0.30109 0.65054 0.0
C551 C 0.83271 0.33478 0.64572 0.0
C552 C 0.76619 0.27234 0.63625 0.0
C553 C 0.77407 0.33612 0.63448 0.0
C554 C 0.66764 0.24276 0.64597 0.0
C555 C 0.71945 0.17633 0.63545 0.0
N556 N 0.74219 0.30533 0.6308 0.0
N557 N 0.75126 0.20706 0.63128 0.0
H558 H 0.40376 0.71268 0.84479 0.0
H559 H 0.0902 0.79814 0.84296 0.0
H560 H 0.25146 0.64968 0.87207 0.0
H561 H 0.24063 0.86049 0.87371 0.0
H562 H 0.14735 0.74319 0.85238 0.0
H563 H 0.34613 0.76742 0.85425 0.0
C564 C 0.35856 0.71045 0.8534 0.0
C565 C 0.33225 0.67671 0.85773 0.0
C566 C 0.16736 0.76886 0.8577 0.0
C567 C 0.26564 0.73903 0.86761 0.0
C568 C 0.13488 0.80017 0.85228 0.0
C569 C 0.16082 0.83381 0.85761 0.0
C570 C 0.2269 0.77127 0.86752 0.0
C571 C 0.21895 0.83503 0.86953 0.0
C572 C 0.32578 0.74164 0.85883 0.0
C573 C 0.27342 0.67523 0.8687 0.0
N574 N 0.25065 0.80419 0.87342 0.0
N575 N 0.24151 0.70598 0.87259 0.0
loop_
_geom_bond_atom_site_label_1
_geom_bond_atom_site_label_2
_geom_bond_distance
_geom_bond_site_symmetry_2
_ccdc_geom_bond_type
Mn0 O5 2.095 . S
Mn0 O15 2.162 . S
Mn0 O16 2.297 . S
Mn0 O24 2.385 . S
Mn0 O25 2.209 . S
Mn0 O26 2.094 . S
Mn1 O6 2.121 . S
Mn1 N8 2.257 . S
Mn1 N17 2.282 . S
Mn1 O25 2.215 . S
Mn1 O27 2.117 . S
C2 O24 1.234 . S
C2 O25 1.283 . S
C3 O15 1.281 . S
C3 O16 1.236 . S
C4 O26 1.240 . S
C4 O27 1.264 . S
O5 Mn0 2.095 . S
O5 C14 1.250 . S
O6 Mn1 2.121 . S
O6 C14 1.258 . S
C7 N8 1.326 . S
C7 C11 1.460 . S
C7 H13 0.929 . S
N8 Mn1 2.257 . S
N8 C7 1.326 . S
N8 C12 1.362 . S
C9 C10 1.258 1_455 S
C9 C12 1.431 . S
C9 C29 1.449 1_455 S
C10 C9 1.258 1_655 S
C10 C11 1.477 1_655 S
C10 H30 0.931 . S
C11 C7 1.460 . S
C11 C10 1.477 1_455 S
C11 H31 0.928 1_455 S
C12 N8 1.362 . S
C12 C9 1.431 . S
C12 C22 1.476 . S
H13 C7 0.929 . S
C14 O5 1.250 . S
C14 O6 1.258 . S
O15 Mn0 2.162 . S
O15 C3 1.281 . S
O16 Mn0 2.297 . S
O16 C3 1.236 . S
N17 Mn1 2.282 . S
N17 C18 1.328 . S
N17 C22 1.318 . S
C18 N17 1.328 . S
C18 C19 1.457 . S
C18 H23 0.929 . S
C19 C18 1.457 . S
C19 C20 1.291 . S
C19 H32 0.931 . S
C20 C19 1.291 . S
C20 C21 1.373 . S
C20 H33 0.929 . S
C21 C20 1.373 . S
C21 C22 1.396 . S
C21 C28 1.389 1_455 S
C22 C12 1.476 . S
C22 N17 1.318 . S
C22 C21 1.396 . S
H23 C18 0.929 . S
O24 Mn0 2.385 . S
O24 C2 1.234 . S
O25 Mn0 2.209 . S
O25 Mn1 2.215 . S
O25 C2 1.283 . S
O26 Mn0 2.094 . S
O26 C4 1.240 . S
O27 Mn1 2.117 . S
O27 C4 1.264 . S
C28 C21 1.389 1_655 S
C28 C29 1.405 . S
C28 H34 0.938 . S
C29 C9 1.449 1_655 S
C29 C28 1.405 . S
C29 H35 0.930 . S
H30 C10 0.931 . S
H31 C11 0.928 1_655 S
H32 C19 0.931 . S
H33 C20 0.929 . S
H34 C28 0.938 . S
H35 C29 0.930 . S
Mn36 O41 2.095 . S
Mn36 O51 2.162 . S
Mn36 O52 2.297 . S
Mn36 O60 2.385 . S
Mn36 O61 2.209 . S
Mn36 O62 2.094 . S
Mn37 O42 2.121 . S
Mn37 N44 2.257 . S
Mn37 N53 2.282 . S
Mn37 O61 2.215 . S
Mn37 O63 2.117 . S
C38 O60 1.234 . S
C38 O61 1.283 . S
C39 O51 1.281 . S
C39 O52 1.236 . S
C40 O62 1.240 . S
C40 O63 1.264 . S
O41 Mn36 2.095 . S
O41 C50 1.250 . S
O42 Mn37 2.121 . S
O42 C50 1.258 . S
C43 N44 1.326 . S
C43 C47 1.460 . S
C43 H49 0.929 . S
N44 Mn37 2.257 . S
N44 C43 1.326 . S
N44 C48 1.362 . S
C45 C46 1.258 . S
C45 C48 1.431 . S
C45 C65 1.449 . S
C46 C45 1.258 . S
C46 C47 1.477 . S
C46 H66 0.931 . S
C47 C43 1.460 . S
C47 C46 1.477 . S
C47 H67 0.930 . S
C48 N44 1.362 . S
C48 C45 1.431 . S
C48 C58 1.476 . S
H49 C43 0.929 . S
C50 O41 1.250 . S
C50 O42 1.258 . S
O51 Mn36 2.162 . S
O51 C39 1.281 . S
O52 Mn36 2.297 . S
O52 C39 1.236 . S
N53 Mn37 2.282 . S
N53 C54 1.328 . S
N53 C58 1.318 . S
C54 N53 1.328 . S
C54 C55 1.457 . S
C54 H59 0.929 . S
C55 C54 1.457 . S
C55 C56 1.291 . S
C55 H68 0.931 1_565 S
C56 C55 1.291 . S
C56 C57 1.373 . S
C56 H69 0.929 . S
C57 C56 1.373 . S
C57 C58 1.396 . S
C57 C64 1.403 . S
C58 C48 1.476 . S
C58 N53 1.318 . S
C58 C57 1.396 . S
H59 C54 0.929 . S
O60 Mn36 2.385 . S
O60 C38 1.234 . S
O61 Mn36 2.209 . S
O61 Mn37 2.215 . S
O61 C38 1.283 . S
O62 Mn36 2.094 . S
O62 C40 1.240 . S
O63 Mn37 2.117 . S
O63 C40 1.264 . S
C64 C57 1.403 . S
C64 C65 1.399 . S
C64 H70 0.929 . S
C65 C45 1.449 . S
C65 C64 1.399 . S
C65 H71 0.930 . S
H66 C46 0.931 . S
H67 C47 0.930 . S
H68 C55 0.931 1_545 S
H69 C56 0.929 . S
H70 C64 0.929 . S
H71 C65 0.930 . S
Mn72 O77 2.095 . S
Mn72 O87 2.162 . S
Mn72 O88 2.297 . S
Mn72 O96 2.385 . S
Mn72 O97 2.209 . S
Mn72 O98 2.094 . S
Mn73 O78 2.121 . S
Mn73 N80 2.257 . S
Mn73 N89 2.282 . S
Mn73 O97 2.215 . S
Mn73 O99 2.117 . S
C74 O96 1.234 . S
C74 O97 1.283 . S
C75 O87 1.281 . S
C75 O88 1.236 . S
C76 O98 1.240 . S
C76 O99 1.264 . S
O77 Mn72 2.095 . S
O77 C86 1.250 . S
O78 Mn73 2.121 . S
O78 C86 1.258 . S
C79 N80 1.326 . S
C79 C83 1.460 . S
C79 H85 0.929 . S
N80 Mn73 2.257 . S
N80 C79 1.326 . S
N80 C84 1.362 . S
C81 C82 1.258 . S
C81 C84 1.431 . S
C81 C101 1.449 . S
C82 C81 1.258 . S
C82 C83 1.477 . S
C82 H102 0.931 . S
C83 C79 1.460 . S
C83 C82 1.477 . S
C83 H103 0.930 . S
C84 N80 1.362 . S
C84 C81 1.431 . S
C84 C94 1.476 . S
H85 C79 0.929 . S
C86 O77 1.250 . S
C86 O78 1.258 . S
O87 Mn72 2.162 . S
O87 C75 1.281 . S
O88 Mn72 2.297 . S
O88 C75 1.236 . S
N89 Mn73 2.282 . S
N89 C90 1.328 . S
N89 C94 1.318 . S
C90 N89 1.328 . S
C90 C91 1.457 . S
C90 H95 0.929 . S
C91 C90 1.457 . S
C91 C92 1.291 . S
C91 H104 0.931 . S
C92 C91 1.291 . S
C92 C93 1.373 . S
C92 H105 0.929 . S
C93 C92 1.373 . S
C93 C94 1.396 . S
C93 C100 1.403 . S
C94 C84 1.476 . S
C94 N89 1.318 . S
C94 C93 1.396 . S
H95 C90 0.929 . S
O96 Mn72 2.385 . S
O96 C74 1.234 . S
O97 Mn72 2.209 . S
O97 Mn73 2.215 . S
O97 C74 1.283 . S
O98 Mn72 2.094 . S
O98 C76 1.240 . S
O99 Mn73 2.117 . S
O99 C76 1.264 . S
C100 C93 1.403 . S
C100 C101 1.399 . S
C100 H106 0.929 . S
C101 C81 1.449 . S
C101 C100 1.399 . S
C101 H107 0.930 . S
H102 C82 0.931 . S
H103 C83 0.930 . S
H104 C91 0.931 . S
H105 C92 0.929 . S
H106 C100 0.929 . S
H107 C101 0.930 . S
Mn108 O113 2.095 . S
Mn108 O123 2.162 . S
Mn108 O124 2.297 . S
Mn108 O132 2.385 . S
Mn108 O133 2.209 . S
Mn108 O134 2.094 . S
Mn109 O114 2.121 . S
Mn109 N116 2.257 . S
Mn109 N125 2.282 . S
Mn109 O133 2.215 . S
Mn109 O135 2.117 . S
C110 O132 1.234 . S
C110 O133 1.283 . S
C111 O123 1.281 . S
C111 O124 1.236 . S
C112 O134 1.240 . S
C112 O135 1.264 . S
O113 Mn108 2.095 . S
O113 C122 1.250 . S
O114 Mn109 2.121 . S
O114 C122 1.258 . S
C115 N116 1.326 . S
C115 C119 1.460 . S
C115 H121 0.929 . S
N116 Mn109 2.257 . S
N116 C115 1.326 . S
N116 C120 1.362 . S
C117 C118 1.258 1_655 S
C117 C120 1.431 . S
C117 C137 1.449 1_655 S
C118 C117 1.258 1_455 S
C118 C119 1.477 1_455 S
C118 H138 0.931 . S
C119 C115 1.460 . S
C119 C118 1.477 1_655 S
C119 H139 0.928 1_655 S
C120 N116 1.362 . S
C120 C117 1.431 . S
C120 C130 1.476 . S
H121 C115 0.929 . S
C122 O113 1.250 . S
C122 O114 1.258 . S
O123 Mn108 2.162 . S
O123 C111 1.281 . S
O124 Mn108 2.297 . S
O124 C111 1.236 . S
N125 Mn109 2.282 . S
N125 C126 1.328 . S
N125 C130 1.318 . S
C126 N125 1.328 . S
C126 C127 1.457 . S
C126 H131 0.929 . S
C127 C126 1.457 . S
C127 C128 1.291 . S
C127 H140 0.931 1_545 S
C128 C127 1.291 . S
C128 C129 1.373 . S
C128 H141 0.929 . S
C129 C128 1.373 . S
C129 C130 1.396 . S
C129 C136 1.389 1_655 S
C130 C120 1.476 . S
C130 N125 1.318 . S
C130 C129 1.396 . S
H131 C126 0.929 . S
O132 Mn108 2.385 . S
O132 C110 1.234 . S
O133 Mn108 2.209 . S
O133 Mn109 2.215 . S
O133 C110 1.283 . S
O134 Mn108 2.094 . S
O134 C112 1.240 . S
O135 Mn109 2.117 . S
O135 C112 1.264 . S
C136 C129 1.389 1_455 S
C136 C137 1.405 . S
C136 H142 0.938 . S
C137 C117 1.449 1_455 S
C137 C136 1.405 . S
C137 H143 0.930 . S
H138 C118 0.931 . S
H139 C119 0.928 1_455 S
H140 C127 0.931 1_565 S
H141 C128 0.929 . S
H142 C136 0.938 . S
H143 C137 0.930 . S
Mn144 O149 2.095 . S
Mn144 O159 2.162 . S
Mn144 O160 2.297 . S
Mn144 O168 2.385 . S
Mn144 O169 2.209 . S
Mn144 O170 2.094 . S
Mn145 O150 2.121 . S
Mn145 N152 2.257 . S
Mn145 N161 2.282 . S
Mn145 O169 2.215 . S
Mn145 O171 2.117 . S
C146 O168 1.234 . S
C146 O169 1.283 . S
C147 O159 1.281 . S
C147 O160 1.236 . S
C148 O170 1.240 . S
C148 O171 1.264 . S
O149 Mn144 2.095 . S
O149 C158 1.250 . S
O150 Mn145 2.121 . S
O150 C158 1.258 . S
C151 N152 1.326 . S
C151 C155 1.460 . S
C151 H157 0.929 . S
N152 Mn145 2.257 . S
N152 C151 1.326 . S
N152 C156 1.362 . S
C153 C154 1.258 1_655 S
C153 C156 1.431 . S
C153 C173 1.449 1_655 S
C154 C153 1.258 1_455 S
C154 C155 1.477 1_455 S
C154 H174 0.931 . S
C155 C151 1.460 . S
C155 C154 1.477 1_655 S
C155 H175 0.928 1_655 S
C156 N152 1.362 . S
C156 C153 1.431 . S
C156 C166 1.476 . S
H157 C151 0.929 . S
C158 O149 1.250 . S
C158 O150 1.258 . S
O159 Mn144 2.162 . S
O159 C147 1.281 . S
O160 Mn144 2.297 . S
O160 C147 1.236 . S
N161 Mn145 2.282 . S
N161 C162 1.328 . S
N161 C166 1.318 . S
C162 N161 1.328 . S
C162 C163 1.457 . S
C162 H167 0.929 . S
C163 C162 1.457 . S
C163 C164 1.291 . S
C163 H176 0.931 . S
C164 C163 1.291 . S
C164 C165 1.373 . S
C164 H177 0.929 . S
C165 C164 1.373 . S
C165 C166 1.396 . S
C165 C172 1.389 1_655 S
C166 C156 1.476 . S
C166 N161 1.318 . S
C166 C165 1.396 . S
H167 C162 0.929 . S
O168 Mn144 2.385 . S
O168 C146 1.234 . S
O169 Mn144 2.209 . S
O169 Mn145 2.215 . S
O169 C146 1.283 . S
O170 Mn144 2.094 . S
O170 C148 1.240 . S
O171 Mn145 2.117 . S
O171 C148 1.264 . S
C172 C165 1.389 1_455 S
C172 C173 1.405 . S
C172 H178 0.938 . S
C173 C153 1.449 1_455 S
C173 C172 1.405 . S
C173 H179 0.930 . S
H174 C154 0.931 . S
H175 C155 0.928 1_455 S
H176 C163 0.931 . S
H177 C164 0.929 . S
H178 C172 0.938 . S
H179 C173 0.930 . S
Mn180 O185 2.095 . S
Mn180 O195 2.162 . S
Mn180 O196 2.297 . S
Mn180 O204 2.385 . S
Mn180 O205 2.209 . S
Mn180 O206 2.094 . S
Mn181 O186 2.121 . S
Mn181 N188 2.257 . S
Mn181 N197 2.282 . S
Mn181 O205 2.215 . S
Mn181 O207 2.117 . S
C182 O204 1.234 . S
C182 O205 1.283 . S
C183 O195 1.281 . S
C183 O196 1.236 . S
C184 O206 1.240 . S
C184 O207 1.264 . S
O185 Mn180 2.095 . S
O185 C194 1.250 . S
O186 Mn181 2.121 . S
O186 C194 1.258 . S
C187 N188 1.326 . S
C187 C191 1.460 . S
C187 H193 0.929 . S
N188 Mn181 2.257 . S
N188 C187 1.326 . S
N188 C192 1.362 . S
C189 C190 1.258 . S
C189 C192 1.431 . S
C189 C209 1.449 . S
C190 C189 1.258 . S
C190 C191 1.477 . S
C190 H210 0.931 . S
C191 C187 1.460 . S
C191 C190 1.477 . S
C191 H211 0.930 . S
C192 N188 1.362 . S
C192 C189 1.431 . S
C192 C202 1.476 . S
H193 C187 0.929 . S
C194 O185 1.250 . S
C194 O186 1.258 . S
O195 Mn180 2.162 . S
O195 C183 1.281 . S
O196 Mn180 2.297 . S
O196 C183 1.236 . S
N197 Mn181 2.282 . S
N197 C198 1.328 . S
N197 C202 1.318 . S
C198 N197 1.328 . S
C198 C199 1.457 . S
C198 H203 0.929 . S
C199 C198 1.457 . S
C199 C200 1.291 . S
C199 H212 0.931 1_545 S
C200 C199 1.291 . S
C200 C201 1.373 . S
C200 H213 0.929 . S
C201 C200 1.373 . S
C201 C202 1.396 . S
C201 C208 1.403 . S
C202 C192 1.476 . S
C202 N197 1.318 . S
C202 C201 1.396 . S
H203 C198 0.929 . S
O204 Mn180 2.385 . S
O204 C182 1.234 . S
O205 Mn180 2.209 . S
O205 Mn181 2.215 . S
O205 C182 1.283 . S
O206 Mn180 2.094 . S
O206 C184 1.240 . S
O207 Mn181 2.117 . S
O207 C184 1.264 . S
C208 C201 1.403 . S
C208 C209 1.399 . S
C208 H214 0.929 . S
C209 C189 1.449 . S
C209 C208 1.399 . S
C209 H215 0.930 . S
H210 C190 0.931 . S
H211 C191 0.930 . S
H212 C199 0.931 1_565 S
H213 C200 0.929 . S
H214 C208 0.929 . S
H215 C209 0.930 . S
Mn216 O221 2.095 . S
Mn216 O231 2.162 . S
Mn216 O232 2.297 . S
Mn216 O240 2.385 . S
Mn216 O241 2.209 . S
Mn216 O242 2.094 . S
Mn217 O222 2.121 . S
Mn217 N224 2.257 . S
Mn217 N233 2.282 . S
Mn217 O241 2.215 . S
Mn217 O243 2.117 . S
C218 O240 1.234 . S
C218 O241 1.283 . S
C219 O231 1.281 . S
C219 O232 1.236 . S
C220 O242 1.240 . S
C220 O243 1.264 . S
O221 Mn216 2.095 . S
O221 C230 1.250 . S
O222 Mn217 2.121 . S
O222 C230 1.258 . S
C223 N224 1.326 . S
C223 C227 1.460 . S
C223 H229 0.929 . S
N224 Mn217 2.257 . S
N224 C223 1.326 . S
N224 C228 1.362 . S
C225 C226 1.258 . S
C225 C228 1.431 . S
C225 C245 1.449 . S
C226 C225 1.258 . S
C226 C227 1.477 . S
C226 H246 0.931 . S
C227 C223 1.460 . S
C227 C226 1.477 . S
C227 H247 0.930 . S
C228 N224 1.362 . S
C228 C225 1.431 . S
C228 C238 1.476 . S
H229 C223 0.929 . S
C230 O221 1.250 . S
C230 O222 1.258 . S
O231 Mn216 2.162 . S
O231 C219 1.281 . S
O232 Mn216 2.297 . S
O232 C219 1.236 . S
N233 Mn217 2.282 . S
N233 C234 1.328 . S
N233 C238 1.318 . S
C234 N233 1.328 . S
C234 C235 1.457 . S
C234 H239 0.929 . S
C235 C234 1.457 . S
C235 C236 1.291 . S
C235 H248 0.931 . S
C236 C235 1.291 . S
C236 C237 1.373 . S
C236 H249 0.929 . S
C237 C236 1.373 . S
C237 C238 1.396 . S
C237 C244 1.403 . S
C238 C228 1.476 . S
C238 N233 1.318 . S
C238 C237 1.396 . S
H239 C234 0.929 . S
O240 Mn216 2.385 . S
O240 C218 1.234 . S
O241 Mn216 2.209 . S
O241 Mn217 2.215 . S
O241 C218 1.283 . S
O242 Mn216 2.094 . S
O242 C220 1.240 . S
O243 Mn217 2.117 . S
O243 C220 1.264 . S
C244 C237 1.403 . S
C244 C245 1.399 . S
C244 H250 0.929 . S
C245 C225 1.449 . S
C245 C244 1.399 . S
C245 H251 0.930 . S
H246 C226 0.931 . S
H247 C227 0.930 . S
H248 C235 0.931 . S
H249 C236 0.929 . S
H250 C244 0.929 . S
H251 C245 0.930 . S
Mn252 O257 2.095 . S
Mn252 O267 2.162 . S
Mn252 O268 2.297 . S
Mn252 O276 2.385 . S
Mn252 O277 2.209 . S
Mn252 O278 2.094 . S
Mn253 O258 2.121 . S
Mn253 N260 2.257 . S
Mn253 N269 2.282 . S
Mn253 O277 2.215 . S
Mn253 O279 2.117 . S
C254 O276 1.234 . S
C254 O277 1.283 . S
C255 O267 1.281 . S
C255 O268 1.236 . S
C256 O278 1.240 . S
C256 O279 1.264 . S
O257 Mn252 2.095 . S
O257 C266 1.250 . S
O258 Mn253 2.121 . S
O258 C266 1.258 . S
C259 N260 1.326 . S
C259 C263 1.460 . S
C259 H265 0.929 . S
N260 Mn253 2.257 . S
N260 C259 1.326 . S
N260 C264 1.362 . S
C261 C262 1.258 1_455 S
C261 C264 1.431 . S
C261 C281 1.449 1_455 S
C262 C261 1.258 1_655 S
C262 C263 1.477 1_655 S
C262 H282 0.931 . S
C263 C259 1.460 . S
C263 C262 1.477 1_455 S
C263 H283 0.928 1_455 S
C264 N260 1.362 . S
C264 C261 1.431 . S
C264 C274 1.476 . S
H265 C259 0.929 . S
C266 O257 1.250 . S
C266 O258 1.258 . S
O267 Mn252 2.162 . S
O267 C255 1.281 . S
O268 Mn252 2.297 . S
O268 C255 1.236 . S
N269 Mn253 2.282 . S
N269 C270 1.328 . S
N269 C274 1.318 . S
C270 N269 1.328 . S
C270 C271 1.457 . S
C270 H275 0.929 . S
C271 C270 1.457 . S
C271 C272 1.291 . S
C271 H284 0.931 1_565 S
C272 C271 1.291 . S
C272 C273 1.373 . S
C272 H285 0.929 . S
C273 C272 1.373 . S
C273 C274 1.396 . S
C273 C280 1.389 1_455 S
C274 C264 1.476 . S
C274 N269 1.318 . S
C274 C273 1.396 . S
H275 C270 0.929 . S
O276 Mn252 2.385 . S
O276 C254 1.234 . S
O277 Mn252 2.209 . S
O277 Mn253 2.215 . S
O277 C254 1.283 . S
O278 Mn252 2.094 . S
O278 C256 1.240 . S
O279 Mn253 2.117 . S
O279 C256 1.264 . S
C280 C273 1.389 1_655 S
C280 C281 1.405 . S
C280 H286 0.938 . S
C281 C261 1.449 1_655 S
C281 C280 1.405 . S
C281 H287 0.930 . S
H282 C262 0.931 . S
H283 C263 0.928 1_655 S
H284 C271 0.931 1_545 S
H285 C272 0.929 . S
H286 C280 0.938 . S
H287 C281 0.930 . S
H288 C294 0.930 . S
H289 C298 0.930 . S
H290 C303 0.929 . S
H291 C301 0.929 . S
H292 C296 0.929 . S
H293 C302 0.929 . S
C294 H288 0.930 . S
C294 C295 1.367 . S
C294 C302 1.378 . S
C295 C294 1.367 . S
C295 C303 1.433 . S
C296 H292 0.929 . S
C296 C298 1.378 . S
C296 C300 1.350 . S
C297 C300 1.463 . S
C297 C302 1.350 . S
C297 N305 1.427 . S
C298 H289 0.930 . S
C298 C296 1.378 . S
C298 C299 1.367 . S
C299 C298 1.367 . S
C299 C301 1.433 . S
C300 C296 1.350 . S
C300 C297 1.463 . S
C300 N304 1.427 . S
C301 H291 0.929 . S
C301 C299 1.433 . S
C301 N304 1.384 . S
C302 H293 0.929 . S
C302 C294 1.378 . S
C302 C297 1.350 . S
C303 H290 0.929 . S
C303 C295 1.433 . S
C303 N305 1.384 . S
N304 C300 1.427 . S
N304 C301 1.384 . S
N305 C297 1.427 . S
N305 C303 1.384 . S
H306 C312 0.930 . S
H307 C316 0.930 . S
H308 C321 0.929 . S
H309 C319 0.929 . S
H310 C314 0.929 1_545 S
H311 C320 0.929 . S
C312 H306 0.930 . S
C312 C313 1.367 1_455 S
C312 C320 1.378 . S
C313 C312 1.367 1_655 S
C313 C321 1.433 . S
C314 H310 0.929 1_565 S
C314 C316 1.378 . S
C314 C318 1.350 . S
C315 C318 1.460 1_545 S
C315 C320 1.350 . S
C315 N323 1.427 . S
C316 H307 0.930 . S
C316 C314 1.378 . S
C316 C317 1.367 . S
C317 C316 1.367 . S
C317 C319 1.433 . S
C318 C314 1.350 . S
C318 C315 1.460 1_565 S
C318 N322 1.429 . S
C319 H309 0.929 . S
C319 C317 1.433 . S
C319 N322 1.384 . S
C320 H311 0.929 . S
C320 C312 1.378 . S
C320 C315 1.350 . S
C321 H308 0.929 . S
C321 C313 1.433 . S
C321 N323 1.384 1_655 S
N322 C318 1.429 . S
N322 C319 1.384 . S
N323 C315 1.427 . S
N323 C321 1.384 1_455 S
H324 C330 0.930 . S
H325 C334 0.930 . S
H326 C339 0.929 . S
H327 C337 0.929 . S
H328 C332 0.929 . S
H329 C338 0.929 . S
C330 H324 0.930 . S
C330 C331 1.367 . S
C330 C338 1.378 . S
C331 C330 1.367 . S
C331 C339 1.433 . S
C332 H328 0.929 . S
C332 C334 1.378 . S
C332 C336 1.350 . S
C333 C336 1.463 . S
C333 C338 1.350 . S
C333 N341 1.427 . S
C334 H325 0.930 . S
C334 C332 1.378 . S
C334 C335 1.367 1_655 S
C335 C334 1.367 1_455 S
C335 C337 1.433 . S
C336 C332 1.350 . S
C336 C333 1.463 . S
C336 N340 1.427 . S
C337 H327 0.929 . S
C337 C335 1.433 . S
C337 N340 1.384 1_455 S
C338 H329 0.929 . S
C338 C330 1.378 . S
C338 C333 1.350 . S
C339 H326 0.929 . S
C339 C331 1.433 . S
C339 N341 1.384 . S
N340 C336 1.427 . S
N340 C337 1.384 1_655 S
N341 C333 1.427 . S
N341 C339 1.384 . S
H342 C348 0.930 . S
H343 C352 0.930 . S
H344 C357 0.929 . S
H345 C355 0.929 . S
H346 C350 0.929 . S
H347 C356 0.929 . S
C348 H342 0.930 . S
C348 C349 1.367 . S
C348 C356 1.378 . S
C349 C348 1.367 . S
C349 C357 1.433 1_545 S
C350 H346 0.929 . S
C350 C352 1.378 . S
C350 C354 1.350 . S
C351 C354 1.463 1_545 S
C351 C356 1.350 . S
C351 N359 1.427 1_545 S
C352 H343 0.930 . S
C352 C350 1.378 . S
C352 C353 1.367 . S
C353 C352 1.367 . S
C353 C355 1.433 1_565 S
C354 C350 1.350 . S
C354 C351 1.463 1_565 S
C354 N358 1.427 1_565 S
C355 H345 0.929 . S
C355 C353 1.433 1_545 S
C355 N358 1.384 . S
C356 H347 0.929 . S
C356 C348 1.378 . S
C356 C351 1.350 . S
C357 H344 0.929 . S
C357 C349 1.433 1_565 S
C357 N359 1.384 . S
N358 C354 1.427 1_545 S
N358 C355 1.384 . S
N359 C351 1.427 1_565 S
N359 C357 1.384 . S
H360 C366 0.930 . S
H361 C370 0.930 . S
H362 C375 0.929 . S
H363 C373 0.929 . S
H364 C368 0.929 . S
H365 C374 0.929 . S
C366 H360 0.930 . S
C366 C367 1.367 . S
C366 C374 1.378 . S
C367 C366 1.367 . S
C367 C375 1.433 . S
C368 H364 0.929 . S
C368 C370 1.378 . S
C368 C372 1.350 . S
C369 C372 1.463 . S
C369 C374 1.350 . S
C369 N377 1.427 . S
C370 H361 0.930 . S
C370 C368 1.378 . S
C370 C371 1.367 . S
C371 C370 1.367 . S
C371 C373 1.433 . S
C372 C368 1.350 . S
C372 C369 1.463 . S
C372 N376 1.427 . S
C373 H363 0.929 . S
C373 C371 1.433 . S
C373 N376 1.384 . S
C374 H365 0.929 . S
C374 C366 1.378 . S
C374 C369 1.350 . S
C375 H362 0.929 . S
C375 C367 1.433 . S
C375 N377 1.384 . S
N376 C372 1.427 . S
N376 C373 1.384 . S
N377 C369 1.427 . S
N377 C375 1.384 . S
H378 C384 0.930 . S
H379 C388 0.930 . S
H380 C393 0.929 . S
H381 C391 0.929 1_545 S
H382 C386 0.929 . S
H383 C392 0.929 . S
C384 H378 0.930 . S
C384 C385 1.367 . S
C384 C392 1.378 . S
C385 C384 1.367 . S
C385 C393 1.433 1_545 S
C386 H382 0.929 . S
C386 C388 1.378 1_655 S
C386 C390 1.350 . S
C387 C390 1.463 1_545 S
C387 C392 1.350 . S
C387 N395 1.427 1_545 S
C388 H379 0.930 . S
C388 C386 1.378 1_455 S
C388 C389 1.367 . S
C389 C388 1.367 . S
C389 C391 1.433 1_455 S
C390 C386 1.350 . S
C390 C387 1.463 1_565 S
C390 N394 1.427 1_565 S
C391 H381 0.929 1_565 S
C391 C389 1.433 1_655 S
C391 N394 1.384 1_565 S
C392 H383 0.929 . S
C392 C384 1.378 . S
C392 C387 1.350 . S
C393 H380 0.929 . S
C393 C385 1.433 1_565 S
C393 N395 1.384 . S
N394 C390 1.427 1_545 S
N394 C391 1.384 1_545 S
N395 C387 1.427 1_565 S
N395 C393 1.384 . S
H396 C402 0.930 . S
H397 C406 0.930 . S
H398 C411 0.929 . S
H399 C409 0.929 . S
H400 C404 0.929 . S
H401 C410 0.929 . S
C402 H396 0.930 . S
C402 C403 1.367 . S
C402 C410 1.378 . S
C403 C402 1.367 . S
C403 C411 1.433 . S
C404 H400 0.929 . S
C404 C406 1.378 . S
C404 C408 1.350 . S
C405 C408 1.463 . S
C405 C410 1.350 . S
C405 N413 1.427 . S
C406 H397 0.930 . S
C406 C404 1.378 . S
C406 C407 1.367 1_455 S
C407 C406 1.367 1_655 S
C407 C409 1.433 . S
C408 C404 1.350 . S
C408 C405 1.463 . S
C408 N412 1.427 . S
C409 H399 0.929 . S
C409 C407 1.433 . S
C409 N412 1.384 1_655 S
C410 H401 0.929 . S
C410 C402 1.378 . S
C410 C405 1.350 . S
C411 H398 0.929 . S
C411 C403 1.433 . S
C411 N413 1.384 . S
N412 C408 1.427 . S
N412 C409 1.384 1_455 S
N413 C405 1.427 . S
N413 C411 1.384 . S
H414 C420 0.930 . S
H415 C424 0.930 . S
H416 C429 0.929 . S
H417 C427 0.929 . S
H418 C422 0.929 . S
H419 C428 0.929 . S
C420 H414 0.930 . S
C420 C421 1.367 . S
C420 C428 1.378 . S
C421 C420 1.367 . S
C421 C429 1.433 . S
C422 H418 0.929 . S
C422 C424 1.378 . S
C422 C426 1.350 . S
C423 C426 1.456 1_565 S
C423 C428 1.359 . S
C423 N431 1.425 1_565 S
C424 H415 0.930 . S
C424 C422 1.378 . S
C424 C425 1.367 . S
C425 C424 1.367 . S
C425 C427 1.433 . S
C426 C422 1.350 . S
C426 C423 1.456 1_545 S
C426 N430 1.427 . S
C427 H417 0.929 . S
C427 C425 1.433 . S
C427 N430 1.384 . S
C428 H419 0.929 . S
C428 C420 1.378 . S
C428 C423 1.359 . S
C429 H416 0.929 . S
C429 C421 1.433 . S
C429 N431 1.384 1_565 S
N430 C426 1.427 . S
N430 C427 1.384 . S
N431 C423 1.425 1_545 S
N431 C429 1.384 1_545 S
H432 C438 0.930 . S
H433 C442 0.930 . S
H434 C447 0.929 . S
H435 C445 0.929 . S
H436 C440 0.926 1_455 S
H437 C446 0.926 1_655 S
C438 H432 0.930 . S
C438 C439 1.367 . S
C438 C446 1.380 . S
C439 C438 1.367 . S
C439 C447 1.433 . S
C440 H436 0.926 1_655 S
C440 C442 1.380 . S
C440 C444 1.351 . S
C441 C444 1.463 1_455 S
C441 C446 1.351 . S
C441 N449 1.427 . S
C442 H433 0.930 . S
C442 C440 1.380 . S
C442 C443 1.367 . S
C443 C442 1.367 . S
C443 C445 1.433 . S
C444 C440 1.351 . S
C444 C441 1.463 1_655 S
C444 N448 1.427 . S
C445 H435 0.929 . S
C445 C443 1.433 . S
C445 N448 1.384 . S
C446 H437 0.926 1_455 S
C446 C438 1.380 . S
C446 C441 1.351 . S
C447 H434 0.929 . S
C447 C439 1.433 . S
C447 N449 1.384 . S
N448 C444 1.427 . S
N448 C445 1.384 . S
N449 C441 1.427 . S
N449 C447 1.384 . S
H450 C456 0.930 . S
H451 C460 0.930 . S
H452 C465 0.929 . S
H453 C463 0.929 . S
H454 C458 0.929 . S
H455 C464 0.929 . S
C456 H450 0.930 . S
C456 C457 1.367 1_545 S
C456 C464 1.378 . S
C457 C456 1.367 1_565 S
C457 C465 1.433 . S
C458 H454 0.929 . S
C458 C460 1.378 . S
C458 C462 1.350 1_565 S
C459 C462 1.463 1_565 S
C459 C464 1.350 1_565 S
C459 N467 1.427 . S
C460 H451 0.930 . S
C460 C458 1.378 . S
C460 C461 1.367 1_565 S
C461 C460 1.367 1_545 S
C461 C463 1.433 . S
C462 C458 1.350 1_545 S
C462 C459 1.463 1_545 S
C462 N466 1.427 . S
C463 H453 0.929 . S
C463 C461 1.433 . S
C463 N466 1.384 . S
C464 H455 0.929 . S
C464 C456 1.378 . S
C464 C459 1.350 1_545 S
C465 H452 0.929 . S
C465 C457 1.433 . S
C465 N467 1.384 . S
N466 C462 1.427 . S
N466 C463 1.384 . S
N467 C459 1.427 . S
N467 C465 1.384 . S
H468 C474 0.930 . S
H469 C478 0.930 . S
H470 C483 0.929 . S
H471 C481 0.929 . S
H472 C476 0.929 . S
H473 C482 0.929 . S
C474 H468 0.930 . S
C474 C475 1.367 . S
C474 C482 1.378 . S
C475 C474 1.367 . S
C475 C483 1.433 . S
C476 H472 0.929 . S
C476 C478 1.378 . S
C476 C480 1.350 . S
C477 C480 1.463 1_554 S
C477 C482 1.350 . S
C477 N485 1.427 . S
C478 H469 0.930 . S
C478 C476 1.378 . S
C478 C479 1.367 . S
C479 C478 1.367 . S
C479 C481 1.433 . S
C480 C476 1.350 . S
C480 C477 1.463 1_556 S
C480 N484 1.427 . S
C481 H471 0.929 . S
C481 C479 1.433 . S
C481 N484 1.384 . S
C482 H473 0.929 . S
C482 C474 1.378 . S
C482 C477 1.350 . S
C483 H470 0.929 . S
C483 C475 1.433 . S
C483 N485 1.384 . S
N484 C480 1.427 . S
N484 C481 1.384 . S
N485 C477 1.427 . S
N485 C483 1.384 . S
H486 C492 0.930 . S
H487 C496 0.930 . S
H488 C501 0.929 1_545 S
H489 C499 0.929 1_565 S
H490 C494 0.929 1_556 S
H491 C500 0.929 1_554 S
C492 H486 0.930 . S
C492 C493 1.367 . S
C492 C500 1.378 . S
C493 C492 1.367 . S
C493 C501 1.433 . S
C494 H490 0.929 1_554 S
C494 C496 1.378 . S
C494 C498 1.350 . S
C495 C498 1.463 1_466 S
C495 C500 1.350 . S
C495 N503 1.432 1_565 S
C496 H487 0.930 . S
C496 C494 1.378 . S
C496 C497 1.367 . S
C497 C496 1.367 . S
C497 C499 1.433 . S
C498 C494 1.350 . S
C498 C495 1.463 1_644 S
C498 N502 1.432 1_545 S
C499 H489 0.929 1_545 S
C499 C497 1.433 . S
C499 N502 1.392 1_545 S
C500 H491 0.929 1_556 S
C500 C492 1.378 . S
C500 C495 1.350 . S
C501 H488 0.929 1_565 S
C501 C493 1.433 . S
C501 N503 1.392 1_565 S
N502 C498 1.432 1_565 S
N502 C499 1.392 1_565 S
N503 C495 1.432 1_545 S
N503 C501 1.392 1_545 S
H504 C510 0.930 . S
H505 C514 0.930 . S
H506 C519 0.929 . S
H507 C517 0.929 . S
H508 C512 0.929 . S
H509 C518 0.929 . S
C510 H504 0.930 . S
C510 C511 1.367 . S
C510 C518 1.378 . S
C511 C510 1.367 . S
C511 C519 1.433 . S
C512 H508 0.929 . S
C512 C514 1.378 . S
C512 C516 1.350 . S
C513 C516 1.463 . S
C513 C518 1.350 . S
C513 N521 1.427 . S
C514 H505 0.930 . S
C514 C512 1.378 . S
C514 C515 1.367 . S
C515 C514 1.367 . S
C515 C517 1.433 . S
C516 C512 1.350 . S
C516 C513 1.463 . S
C516 N520 1.427 . S
C517 H507 0.929 . S
C517 C515 1.433 . S
C517 N520 1.384 . S
C518 H509 0.929 . S
C518 C510 1.378 . S
C518 C513 1.350 . S
C519 H506 0.929 . S
C519 C511 1.433 . S
C519 N521 1.384 . S
N520 C516 1.427 . S
N520 C517 1.384 . S
N521 C513 1.427 . S
N521 C519 1.384 . S
H522 C528 0.930 . S
H523 C532 0.930 . S
H524 C537 0.929 . S
H525 C535 0.929 . S
H526 C530 0.929 . S
H527 C536 0.929 . S
C528 H522 0.930 . S
C528 C529 1.367 . S
C528 C536 1.378 . S
C529 C528 1.367 . S
C529 C537 1.433 . S
C530 H526 0.929 . S
C530 C532 1.378 . S
C530 C534 1.350 . S
C531 C534 1.463 . S
C531 C536 1.350 . S
C531 N539 1.427 . S
C532 H523 0.930 . S
C532 C530 1.378 . S
C532 C533 1.367 . S
C533 C532 1.367 . S
C533 C535 1.433 . S
C534 C530 1.350 . S
C534 C531 1.463 . S
C534 N538 1.427 . S
C535 H525 0.929 . S
C535 C533 1.433 . S
C535 N538 1.384 . S
C536 H527 0.929 . S
C536 C528 1.378 . S
C536 C531 1.350 . S
C537 H524 0.929 . S
C537 C529 1.433 . S
C537 N539 1.384 . S
N538 C534 1.427 . S
N538 C535 1.384 . S
N539 C531 1.427 . S
N539 C537 1.384 . S
H540 C546 0.930 . S
H541 C550 0.930 . S
H542 C555 0.929 . S
H543 C553 0.929 . S
H544 C548 0.929 . S
H545 C554 0.929 . S
C546 H540 0.930 . S
C546 C547 1.367 . S
C546 C554 1.378 . S
C547 C546 1.367 . S
C547 C555 1.433 . S
C548 H544 0.929 . S
C548 C550 1.378 . S
C548 C552 1.350 . S
C549 C552 1.463 . S
C549 C554 1.350 . S
C549 N557 1.427 . S
C550 H541 0.930 . S
C550 C548 1.378 . S
C550 C551 1.367 . S
C551 C550 1.367 . S
C551 C553 1.433 . S
C552 C548 1.350 . S
C552 C549 1.463 . S
C552 N556 1.427 . S
C553 H543 0.929 . S
C553 C551 1.433 . S
C553 N556 1.384 . S
C554 H545 0.929 . S
C554 C546 1.378 . S
C554 C549 1.350 . S
C555 H542 0.929 . S
C555 C547 1.433 . S
C555 N557 1.384 . S
N556 C552 1.427 . S
N556 C553 1.384 . S
N557 C549 1.427 . S
N557 C555 1.384 . S
H558 C564 0.930 . S
H559 C568 0.930 . S
H560 C573 0.929 . S
H561 C571 0.929 . S
H562 C566 0.929 . S
H563 C572 0.929 . S
C564 H558 0.930 . S
C564 C565 1.367 . S
C564 C572 1.378 . S
C565 C564 1.367 . S
C565 C573 1.433 . S
C566 H562 0.929 . S
C566 C568 1.378 . S
C566 C570 1.350 . S
C567 C570 1.463 . S
C567 C572 1.350 . S
C567 N575 1.427 . S
C568 H559 0.930 . S
C568 C566 1.378 . S
C568 C569 1.367 . S
C569 C568 1.367 . S
C569 C571 1.433 . S
C570 C566 1.350 . S
C570 C567 1.463 . S
C570 N574 1.427 . S
C571 H561 0.929 . S
C571 C569 1.433 . S
C571 N574 1.384 . S
C572 H563 0.929 . S
C572 C564 1.378 . S
C572 C567 1.350 . S
C573 H560 0.929 . S
C573 C565 1.433 . S
C573 N575 1.384 . S
N574 C570 1.427 . S
N574 C571 1.384 . S
N575 C567 1.427 . S
N575 C573 1.384 . S
C295 C4 1.335 . S
C299 C74 1.340 . S
C313 C110 1.344 . S
C317 C40 1.338 . S
C331 C76 1.331 . S
C335 C2 1.347 . S
C349 C112 1.329 . S
C353 C38 1.346 . S
C367 C218 1.345 . S
C371 C148 1.337 . S
C385 C184 1.328 . S
C389 C254 1.346 . S
C403 C220 1.334 . S
C407 C146 1.347 . S
C421 C256 1.337 . S
C425 C182 1.346 . S
C439 C3 1.522 . S
C443 C147 1.522 . S
C457 C39 1.520 . S
C461 C183 1.520 . S
C475 C75 1.521 . S
C479 C219 1.521 . S
C493 C255 1.523 . S
C497 C111 1.523 . S
C511 C14 1.443 . S
C515 C50 1.455 . S
C529 C122 1.451 . S
C533 C86 1.440 . S
C547 C194 1.455 . S
C551 C158 1.442 . S
C565 C230 1.456 . S
C569 C266 1.440 . S
