# Generated by pormake.
# Topology vmo, (7)-cn, num edge types: 1
# Building blocks:
#     Node 0, Type 0, BuildingBlock: NUHQUE_clean_sbu_2, # of connection points: 7
#     Node 1, Type 0, BuildingBlock: NUHQUE_clean_sbu_2, # of connection points: 7
#     Node 2, Type 0, BuildingBlock: NUHQUE_clean_sbu_2, # of connection points: 7
#     Node 3, Type 0, BuildingBlock: NUHQUE_clean_sbu_2, # of connection points: 7
#     Node 4, Type 0, BuildingBlock: NUHQUE_clean_sbu_2, # of connection points: 7
#     Node 5, Type 0, BuildingBlock: NUHQUE_clean_sbu_2, # of connection points: 7
#     Node 6, Type 0, BuildingBlock: NUHQUE_clean_sbu_2, # of connection points: 7
#     Node 7, Type 0, BuildingBlock: NUHQUE_clean_sbu_2, # of connection points: 7
#     Edge 8, Type (0, 0), BuildingBlock: OJICUG_clean_linker_0, # of connection points: 2
#     Edge 9, Type (0, 0), BuildingBlock: OJICUG_clean_linker_0, # of connection points: 2
#     Edge 10, Type (0, 0), BuildingBlock: OJICUG_clean_linker_0, # of connection points: 2
#     Edge 11, Type (0, 0), BuildingBlock: OJICUG_clean_linker_0, # of connection points: 2
#     Edge 12, Type (0, 0), BuildingBlock: OJICUG_clean_linker_0, # of connection points: 2
#     Edge 13, Type (0, 0), BuildingBlock: OJICUG_clean_linker_0, # of connection points: 2
#     Edge 14, Type (0, 0), BuildingBlock: OJICUG_clean_linker_0, # of connection points: 2
#     Edge 15, Type (0, 0), BuildingBlock: OJICUG_clean_linker_0, # of connection points: 2
#     Edge 16, Type (0, 0), BuildingBlock: OJICUG_clean_linker_0, # of connection points: 2
#     Edge 17, Type (0, 0), BuildingBlock: OJICUG_clean_linker_0, # of connection points: 2
#     Edge 18, Type (0, 0), BuildingBlock: OJICUG_clean_linker_0, # of connection points: 2
#     Edge 19, Type (0, 0), BuildingBlock: OJICUG_clean_linker_0, # of connection points: 2
#     Edge 20, Type (0, 0), BuildingBlock: OJICUG_clean_linker_0, # of connection points: 2
#     Edge 21, Type (0, 0), BuildingBlock: OJICUG_clean_linker_0, # of connection points: 2
#     Edge 22, Type (0, 0), BuildingBlock: OJICUG_clean_linker_0, # of connection points: 2
#     Edge 23, Type (0, 0), BuildingBlock: OJICUG_clean_linker_0, # of connection points: 2
#     Edge 24, Type (0, 0), BuildingBlock: OJICUG_clean_linker_0, # of connection points: 2
#     Edge 25, Type (0, 0), BuildingBlock: OJICUG_clean_linker_0, # of connection points: 2
#     Edge 26, Type (0, 0), BuildingBlock: OJICUG_clean_linker_0, # of connection points: 2
#     Edge 27, Type (0, 0), BuildingBlock: OJICUG_clean_linker_0, # of connection points: 2
#     Edge 28, Type (0, 0), BuildingBlock: OJICUG_clean_linker_0, # of connection points: 2
#     Edge 29, Type (0, 0), BuildingBlock: OJICUG_clean_linker_0, # of connection points: 2
#     Edge 30, Type (0, 0), BuildingBlock: OJICUG_clean_linker_0, # of connection points: 2
#     Edge 31, Type (0, 0), BuildingBlock: OJICUG_clean_linker_0, # of connection points: 2
#     Edge 32, Type (0, 0), BuildingBlock: OJICUG_clean_linker_0, # of connection points: 2
#     Edge 33, Type (0, 0), BuildingBlock: OJICUG_clean_linker_0, # of connection points: 2
#     Edge 34, Type (0, 0), BuildingBlock: OJICUG_clean_linker_0, # of connection points: 2
#     Edge 35, Type (0, 0), BuildingBlock: OJICUG_clean_linker_0, # of connection points: 2
# Relax obj value: 0.258
# Max RMSD: 0.268
# Mean RMSD: 0.268
data_MOF--net-vmo--node1-NUHQUE_clean_sbu_2--edge1-OJICUG_clean_linker_0
_symmetry_space_group_name_H-M    P1
_symmetry_Int_Tables_number       1
_symmetry_cell_setting            triclinic
loop_
_symmetry_equiv_pos_as_xyz
'x, y, z'
_cell_length_a     24.491042
_cell_length_b     47.031037
_cell_length_c     20.295398
_cell_angle_alpha  89.900286
_cell_angle_beta   111.57765
_cell_angle_gamma 90.419609
loop_
_atom_site_label
_atom_site_type_symbol
_atom_site_fract_x
_atom_site_fract_y
_atom_site_fract_z
_atom_type_partial_charge
O0 O 0.27912 0.46454 0.40011 0.0
Tb1 Tb 0.24079 0.45345 0.28883 0.0
Eu2 Eu 0.21553 0.39362 0.10259 0.0
C3 C 0.30476 0.4896 0.41594 0.0
O4 O 0.31007 0.50509 0.36465 0.0
C5 C 0.16914 0.3986 0.22587 0.0
O6 O 0.16902 0.38876 0.98248 0.0
C7 C 0.31421 0.367 0.16285 0.0
C8 C 0.13802 0.41019 0.94524 0.0
O9 O 0.13468 0.43345 0.97933 0.0
C10 C 0.27642 0.45213 0.16339 0.0
C11 C 0.35575 0.34603 0.1546 0.0
C12 C 0.41609 0.34847 0.19615 0.0
C13 C 0.45608 0.32738 0.19364 0.0
C14 C 0.43405 0.30411 0.14744 0.0
C15 C 0.37372 0.30086 0.10835 0.0
C16 C 0.33501 0.32221 0.11108 0.0
O17 O 0.22288 0.40912 0.25587 0.0
O18 O 0.15441 0.3872 0.16223 0.0
O19 O 0.14699 0.46175 0.2414 0.0
O20 O 0.20731 0.49244 0.23217 0.0
C21 C 0.15213 0.48574 0.21201 0.0
O22 O 0.22563 0.43872 0.14215 0.0
O23 O 0.2972 0.46127 0.22933 0.0
O24 O 0.26309 0.35724 0.16105 0.0
O25 O 0.31074 0.39177 0.1314 0.0
H26 H 0.43112 0.36622 0.23243 0.0
H27 H 0.46349 0.28774 0.14348 0.0
H28 H 0.28843 0.31996 0.08048 0.0
O29 O 0.88526 0.46459 0.1814 0.0
Tb30 Tb 0.92372 0.45365 0.29261 0.0
Eu31 Eu 0.94642 0.39433 0.47809 0.0
C32 C 0.85906 0.48935 0.16563 0.0
O33 O 0.85338 0.50457 0.21695 0.0
C34 C 0.9938 0.39895 0.35582 0.0
O35 O 0.99192 0.38902 0.59817 0.0
C36 C 0.84666 0.36816 0.41587 0.0
C37 C 1.02169 0.41069 0.63647 0.0
O38 O 1.02436 0.43442 0.60344 0.0
C39 C 0.88816 0.45301 0.41838 0.0
C40 C 0.80453 0.34698 0.42313 0.0
C41 C 0.74433 0.34922 0.38103 0.0
C42 C 0.70394 0.32787 0.38268 0.0
C43 C 0.72542 0.30457 0.42857 0.0
C44 C 0.78559 0.30153 0.46814 0.0
C45 C 0.8247 0.32311 0.4663 0.0
O46 O 0.94033 0.40939 0.32564 0.0
O47 O 1.0081 0.38776 0.41958 0.0
O48 O 1.01775 0.46198 0.34 0.0
O49 O 0.95833 0.49274 0.3489 0.0
C50 C 1.01331 0.48601 0.36933 0.0
O51 O 0.93863 0.43965 0.44037 0.0
O52 O 0.86762 0.46169 0.3521 0.0
O53 O 0.89742 0.3585 0.41719 0.0
O54 O 0.85108 0.39262 0.44886 0.0
H55 H 0.72972 0.36703 0.34504 0.0
H56 H 0.69567 0.288 0.4319 0.0
H57 H 0.87119 0.321 0.49727 0.0
O58 O 0.91333 0.5078 0.71431 0.0
Tb59 Tb 0.9313 0.52933 0.81454 0.0
Eu60 Eu 0.94407 0.59762 0.97532 0.0
C61 C 0.87796 0.51707 0.65229 0.0
O62 O 0.85276 0.54196 0.64719 0.0
C63 C 0.99497 0.58701 0.85534 0.0
O64 O 0.98185 0.60295 0.09642 0.0
C65 C 0.85036 0.62702 0.9079 0.0
C66 C 1.03728 0.59716 0.13537 0.0
O67 O 1.07219 0.58907 0.10299 0.0
C68 C 0.87803 0.53936 0.92059 0.0
C69 C 0.8091 0.64798 0.91711 0.0
C70 C 0.7485 0.64562 0.8766 0.0
C71 C 0.7088 0.66641 0.88146 0.0
C72 C 0.7313 0.68928 0.92876 0.0
C73 C 0.79176 0.69247 0.96697 0.0
C74 C 0.83023 0.67144 0.96195 0.0
O75 O 0.94237 0.57541 0.82459 0.0
O76 O 1.00812 0.59942 0.91788 0.0
O77 O 1.02294 0.52601 0.88494 0.0
O78 O 0.96059 0.49604 0.89341 0.0
C79 C 1.01463 0.5047 0.92125 0.0
O80 O 0.9301 0.55154 0.9449 0.0
O81 O 0.86301 0.52709 0.8582 0.0
O82 O 0.90416 0.63591 0.91878 0.0
O83 O 0.84838 0.60121 0.93171 0.0
H84 H 0.73292 0.62812 0.83961 0.0
H85 H 0.70199 0.70538 0.93444 0.0
H86 H 0.87688 0.67361 0.99223 0.0
O87 O 0.2497 0.50754 0.86834 0.0
Tb88 Tb 0.23324 0.52876 0.76799 0.0
Eu89 Eu 0.22247 0.59686 0.60647 0.0
C90 C 0.29021 0.51502 0.92916 0.0
O91 O 0.3218 0.53811 0.93342 0.0
C92 C 0.17103 0.58642 0.72638 0.0
O93 O 0.1854 0.60124 0.48514 0.0
C94 C 0.31637 0.62677 0.67371 0.0
C95 C 0.12854 0.59918 0.44661 0.0
O96 O 0.09168 0.59568 0.47945 0.0
C97 C 0.28686 0.53868 0.66231 0.0
C98 C 0.35809 0.64795 0.66503 0.0
C99 C 0.41871 0.6455 0.70498 0.0
C100 C 0.4588 0.66666 0.70142 0.0
C101 C 0.43663 0.69003 0.65604 0.0
C102 C 0.37619 0.6933 0.61856 0.0
C103 C 0.33737 0.67186 0.62206 0.0
O104 O 0.2233 0.57486 0.75746 0.0
O105 O 0.15833 0.59871 0.66373 0.0
O106 O 0.14157 0.52551 0.69735 0.0
O107 O 0.20287 0.49533 0.68936 0.0
C108 C 0.14918 0.50409 0.66119 0.0
O109 O 0.23536 0.55105 0.63883 0.0
O110 O 0.30149 0.52619 0.72435 0.0
O111 O 0.26258 0.63542 0.66238 0.0
O112 O 0.31826 0.60093 0.65033 0.0
H113 H 0.43402 0.62765 0.7407 0.0
H114 H 0.4662 0.70646 0.6515 0.0
H115 H 0.29072 0.67411 0.59231 0.0
O116 O 0.77981 0.96681 0.40095 0.0
Tb117 Tb 0.74296 0.95474 0.28994 0.0
Eu118 Eu 0.71831 0.89001 0.11135 0.0
C119 C 0.80105 0.99277 0.41605 0.0
O120 O 0.80435 0.00873 0.36441 0.0
C121 C 0.67176 0.89887 0.23379 0.0
O122 O 0.67351 0.88532 0.99083 0.0
C123 C 0.81536 0.86245 0.17514 0.0
C124 C 0.64673 0.90756 0.95297 0.0
O125 O 0.64709 0.93144 0.98666 0.0
C126 C 0.77677 0.95001 0.16344 0.0
C127 C 0.85784 0.84208 0.16644 0.0
C128 C 0.91817 0.84491 0.20794 0.0
C129 C 0.95892 0.82438 0.20448 0.0
C130 C 0.93765 0.80128 0.15751 0.0
C131 C 0.87743 0.79762 0.11849 0.0
C132 C 0.83801 0.81844 0.12201 0.0
O133 O 0.72533 0.90977 0.26249 0.0
O134 O 0.65723 0.88596 0.17183 0.0
O135 O 0.70843 0.99347 0.23265 0.0
O136 O 0.64892 0.96228 0.2419 0.0
C137 C 0.65346 0.98641 0.21274 0.0
O138 O 0.72753 0.93558 0.1468 0.0
O139 O 0.7972 0.96169 0.22687 0.0
O140 O 0.76285 0.85252 0.16743 0.0
O141 O 0.81424 0.88808 0.14883 0.0
H142 H 0.93268 0.86251 0.24479 0.0
H143 H 0.96764 0.78533 0.15286 0.0
H144 H 0.79153 0.81589 0.09122 0.0
O145 O 0.39684 0.96751 0.19681 0.0
Tb146 Tb 0.42956 0.95478 0.30721 0.0
Eu147 Eu 0.44886 0.89336 0.48635 0.0
C148 C 0.37304 0.99282 0.18111 0.0
O149 O 0.36791 0.0084 0.23217 0.0
C150 C 0.49679 0.89911 0.36416 0.0
O151 O 0.49544 0.88755 0.60621 0.0
C152 C 0.34928 0.86694 0.42439 0.0
C153 C 0.52623 0.90901 0.64445 0.0
O154 O 0.52863 0.93277 0.61138 0.0
C155 C 0.38807 0.95167 0.42731 0.0
C156 C 0.30766 0.84541 0.43148 0.0
C157 C 0.24728 0.84751 0.38991 0.0
C158 C 0.20737 0.82592 0.39163 0.0
C159 C 0.22947 0.80256 0.43711 0.0
C160 C 0.28978 0.79969 0.47617 0.0
C161 C 0.32845 0.82147 0.47417 0.0
O162 O 0.44369 0.90989 0.33415 0.0
O163 O 0.51072 0.88757 0.42752 0.0
O164 O 0.46198 0.99258 0.37063 0.0
O165 O 0.523 0.96189 0.36529 0.0
C166 C 0.5167 0.98516 0.3964 0.0
O167 O 0.43933 0.93898 0.45073 0.0
O168 O 0.36888 0.96069 0.36131 0.0
O169 O 0.39996 0.85766 0.42454 0.0
O170 O 0.35372 0.89112 0.45849 0.0
H171 H 0.23213 0.8654 0.3543 0.0
H172 H 0.20007 0.78583 0.44052 0.0
H173 H 0.37503 0.81949 0.50474 0.0
O174 O 0.40981 0.00875 0.71902 0.0
Tb175 Tb 0.42766 0.03125 0.81793 0.0
Eu176 Eu 0.43979 0.10126 0.97293 0.0
C177 C 0.37296 0.01691 0.6567 0.0
O178 O 0.34572 0.04132 0.65009 0.0
C179 C 0.49014 0.08949 0.85311 0.0
O180 O 0.47892 0.10886 0.09294 0.0
C181 C 0.3437 0.12879 0.90433 0.0
C182 C 0.53096 0.09875 0.13283 0.0
O183 O 0.5614 0.08501 0.10172 0.0
C184 C 0.37763 0.04177 0.92683 0.0
C185 C 0.30267 0.15004 0.91282 0.0
C186 C 0.24203 0.14768 0.87262 0.0
C187 C 0.20256 0.16872 0.87685 0.0
C188 C 0.22537 0.19185 0.92321 0.0
C189 C 0.2859 0.19503 0.96106 0.0
C190 C 0.32411 0.17373 0.95673 0.0
O191 O 0.43785 0.07744 0.82355 0.0
O192 O 0.50303 0.10279 0.91448 0.0
O193 O 0.45858 -0.00189 0.8968 0.0
O194 O 0.51955 0.02887 0.88814 0.0
C195 C 0.51224 0.00729 0.92437 0.0
O196 O 0.42888 0.0547 0.94807 0.0
O197 O 0.36138 0.02905 0.86486 0.0
O198 O 0.39653 0.13791 0.91117 0.0
O199 O 0.34395 0.10366 0.9328 0.0
H200 H 0.22625 0.12997 0.83634 0.0
H201 H 0.19626 0.20815 0.92837 0.0
H202 H 0.37082 0.17585 0.98673 0.0
O203 O 0.76481 0.02285 0.89004 0.0
Tb204 Tb 0.73421 0.03543 0.77931 0.0
Eu205 Eu 0.71548 0.09972 0.60291 0.0
C206 C 0.78354 0.99666 0.90598 0.0
O207 O 0.78586 0.98007 0.85506 0.0
C208 C 0.6649 0.09078 0.72223 0.0
O209 O 0.67955 0.1026 0.48153 0.0
C210 C 0.80963 0.12957 0.66924 0.0
C211 C 0.62316 0.10612 0.44311 0.0
O212 O 0.58634 0.10939 0.47596 0.0
C213 C 0.77788 0.04139 0.66157 0.0
C214 C 0.85175 0.15038 0.65999 0.0
C215 C 0.91229 0.14789 0.70035 0.0
C216 C 0.95263 0.16885 0.69641 0.0
C217 C 0.93082 0.19204 0.65027 0.0
C218 C 0.87045 0.19535 0.61239 0.0
C219 C 0.83139 0.1741 0.6162 0.0
O220 O 0.71839 0.08042 0.75276 0.0
O221 O 0.65098 0.10277 0.65918 0.0
O222 O 0.70274 0.99763 0.7154 0.0
O223 O 0.64095 0.02781 0.72115 0.0
C224 C 0.64777 0.00463 0.6901 0.0
O225 O 0.72701 0.05433 0.63982 0.0
O226 O 0.79553 0.03019 0.72542 0.0
O227 O 0.75588 0.13852 0.65705 0.0
O228 O 0.81135 0.10348 0.64719 0.0
H229 H 0.92732 0.13022 0.7367 0.0
H230 H 0.96058 0.20831 0.64547 0.0
H231 H 0.7848 0.1764 0.58614 0.0
C232 C 0.60987 0.35414 0.31102 0.0
C233 C 0.64049 0.32847 0.33382 0.0
H234 H 0.52902 0.3742 0.24809 0.0
C235 C 0.60969 0.30284 0.30924 0.0
H236 H 0.63145 0.3744 0.32881 0.0
C237 C 0.55042 0.30271 0.26583 0.0
C238 C 0.51969 0.32822 0.24202 0.0
H239 H 0.63118 0.28248 0.32289 0.0
H240 H 0.52886 0.28224 0.25172 0.0
C241 C 0.55049 0.35402 0.26535 0.0
C242 C 0.55422 0.69135 0.77173 0.0
C243 C 0.52285 0.66581 0.7478 0.0
H244 H 0.63592 0.7117 0.82655 0.0
C245 C 0.55352 0.64004 0.76869 0.0
H246 H 0.53278 0.71176 0.75945 0.0
C247 C 0.61355 0.63998 0.812 0.0
C248 C 0.64479 0.6657 0.8348 0.0
H249 H 0.53143 0.61986 0.75124 0.0
H250 H 0.63517 0.61975 0.82799 0.0
C251 C 0.61401 0.6913 0.81273 0.0
C252 C 1.0541 0.80017 0.27555 0.0
C253 C 1.0226 0.82554 0.25259 0.0
H254 H 0.13556 0.78032 0.33136 0.0
C255 C 1.05277 0.85147 0.27627 0.0
H256 H 1.03304 0.77961 0.26115 0.0
C257 C 0.11237 0.85184 0.32135 0.0
C258 C 0.14374 0.82631 0.34326 0.0
H259 H 1.03065 0.87155 0.25967 0.0
H260 H 0.13353 0.87217 0.33939 0.0
C261 C 0.11351 0.80057 0.31839 0.0
C262 C 1.04711 0.14227 0.76492 0.0
C263 C 1.01659 0.16803 0.74317 0.0
H264 H 0.12862 0.12201 0.82495 0.0
C265 C 1.04806 0.19358 0.76646 0.0
H266 H 1.02493 0.12207 0.74801 0.0
C267 C 0.10783 0.19355 0.80754 0.0
C268 C 0.13849 0.16797 0.83037 0.0
H269 H 1.02672 0.214 0.75355 0.0
H270 H 0.12981 0.21396 0.82074 0.0
C271 C 0.10712 0.14224 0.80833 0.0
C272 C 0.28154 0.23438 1.04239 0.0
C273 C 0.30939 0.2217 1.00061 0.0
H274 H 0.28025 0.26925 0.1093 0.0
C275 C 0.35827 0.23543 0.99382 0.0
H276 H 0.24417 0.22418 0.04921 0.0
C277 C 0.37879 0.26129 1.02796 0.0
C278 C 0.35077 0.27401 0.06947 0.0
H279 H 0.37998 0.22646 0.96087 0.0
H280 H 0.41619 0.2715 1.02125 0.0
C281 C 0.302 0.26026 0.07643 0.0
C282 C 0.85642 0.2611 0.49915 0.0
C283 C 0.80799 0.27467 0.50648 0.0
H284 H 0.91324 0.22504 0.52532 0.0
C285 C 0.77966 0.26173 0.54769 0.0
H286 H 0.87839 0.27031 0.46652 0.0
C287 C 0.79949 0.23579 0.58111 0.0
C288 C 0.84792 0.22219 0.57381 0.0
H289 H 0.74252 0.27182 0.55464 0.0
H290 H 0.77755 0.22664 0.61385 0.0
C291 C 0.87617 0.23512 0.53245 0.0
C292 C 0.8069 0.75658 0.08538 0.0
C293 C 0.85528 0.77087 0.07881 0.0
H294 H 0.74976 0.72028 0.05664 0.0
C295 C 0.88352 0.75881 1.03672 0.0
H296 H 0.78502 0.76505 0.11869 0.0
C297 C 0.86348 0.7331 1.00149 0.0
C298 C 0.81488 0.7189 1.00776 0.0
H299 H 0.92064 0.76944 1.03032 0.0
H300 H 0.88528 0.72465 0.96807 0.0
C301 C 0.7869 0.73088 0.05022 0.0
C302 C 0.3049 0.73361 0.58841 0.0
C303 C 0.35335 0.72024 0.58059 0.0
H304 H 0.24757 0.7695 0.5628 0.0
C305 C 0.38129 0.73345 0.53926 0.0
H306 H 0.2832 0.72424 0.62114 0.0
C307 C 0.36118 0.75948 0.50643 0.0
C308 C 0.31271 0.77282 0.5142 0.0
H309 H 0.41837 0.72355 0.53174 0.0
H310 H 0.3829 0.7689 0.47376 0.0
C311 C 0.28473 0.75961 0.55546 0.0
C312 C 0.27625 0.46928 0.98306 0.0
C313 C 0.29783 0.49734 0.9923 0.0
H314 H 0.25576 0.43242 1.03116 0.0
C315 C 0.32269 0.50844 0.06133 0.0
H316 H 0.25791 0.45984 0.93074 0.0
C317 C 0.32112 0.49257 0.11926 0.0
C318 C 0.29502 0.46536 0.10881 0.0
H319 H 0.34002 0.52994 0.07007 0.0
H320 H 0.33634 0.50243 0.17114 0.0
C321 C 0.27529 0.45344 1.04069 0.0
C322 C 0.84805 0.51103 0.52023 0.0
C323 C 0.86947 0.49943 0.58885 0.0
H324 H 0.8361 0.50503 0.41094 0.0
C325 C 0.8867 0.47079 0.59751 0.0
H326 H 0.83415 0.53298 0.51186 0.0
C327 C 0.88686 0.45476 0.53991 0.0
C328 C 0.87034 0.46698 0.47238 0.0
H329 H 0.90239 0.46098 0.64942 0.0
H330 H 0.90325 0.43324 0.54909 0.0
C331 C 0.84858 0.49492 0.46233 0.0
C332 C 0.84155 0.48616 1.0362 0.0
C333 C 0.84948 0.50272 0.09652 0.0
H334 H 0.84131 0.4853 0.93059 0.0
C335 C 0.85578 0.53233 0.09289 0.0
H336 H 0.83664 0.46328 1.03774 0.0
C337 C 0.85989 0.5448 1.0325 0.0
C338 C 0.85543 0.52811 0.97351 0.0
H339 H 0.86248 0.54564 0.13876 0.0
H340 H 0.87069 0.56718 1.03417 0.0
C341 C 0.84359 0.49883 0.97468 0.0
C342 C 0.32096 0.49863 0.60735 0.0
C343 C 0.309 0.52778 0.60883 0.0
H344 H 0.32778 0.46334 0.54385 0.0
C345 C 0.304 0.54459 0.54974 0.0
H346 H 0.32365 0.48499 0.65149 0.0
C347 C 0.3078 0.53235 0.48908 0.0
C348 C 0.31433 0.50283 0.48522 0.0
H349 H 0.29304 0.56686 0.54824 0.0
H350 H 0.30072 0.54574 0.44323 0.0
C351 C 0.32269 0.48615 0.54554 0.0
C352 C 0.80399 0.99012 0.10024 0.0
C353 C 0.79344 0.96088 0.10503 0.0
H354 H 0.80793 0.02467 1.0326 0.0
C355 C 0.78586 0.94347 0.04621 0.0
H356 H 0.80854 0.0042 0.14416 0.0
C357 C 0.78644 0.95502 0.98315 0.0
C358 C 0.79273 0.98447 0.97654 0.0
H359 H 0.77593 0.92111 0.04716 0.0
H360 H 0.77803 0.941 0.93812 0.0
C361 C 0.8029 0.00188 1.03617 0.0
C362 C 0.38534 0.97047 0.60523 0.0
C363 C 0.36543 -0.00132 0.59452 0.0
H364 H 0.40546 0.93302 0.55957 0.0
C365 C 0.34258 0.0094 0.52506 0.0
H366 H 0.40221 0.96132 0.65787 0.0
C367 C 0.34438 0.99295 0.46828 0.0
C368 C 0.36889 0.96557 0.48031 0.0
H369 H 0.32661 0.031 0.51512 0.0
H370 H 0.33069 0.00249 0.41614 0.0
C371 C 0.38682 0.9541 0.54877 0.0
C372 C 0.35387 0.98835 0.05129 0.0
C373 C 0.36148 0.00551 0.11063 0.0
H374 H 0.34996 0.98678 0.94413 0.0
C375 C 0.36358 0.03519 0.10389 0.0
H376 H 0.352 0.96541 0.05503 0.0
C377 C 0.36339 0.04735 1.04104 0.0
C378 C 0.35903 0.03017 0.98284 0.0
H379 H 0.36973 0.04899 0.14878 0.0
H380 H 0.37057 0.07003 1.03977 0.0
C381 C 0.35189 0.00063 0.98754 0.0
C382 C 0.81738 0.98945 0.5456 0.0
C383 C 0.80785 0.00598 0.4847 0.0
H384 H 0.81813 0.98826 0.65164 0.0
C385 C 0.79797 0.03527 0.48736 0.0
H386 H 0.82496 0.96681 0.54491 0.0
C387 C 0.79266 0.04732 0.54742 0.0
C388 C 0.79943 0.03065 0.60728 0.0
H389 H 0.78988 0.04857 0.44113 0.0
H390 H 0.77972 0.06932 0.54507 0.0
C391 C 0.81407 0.0018 0.60687 0.0
C392 C 0.09936 0.51692 1.03027 0.0
C393 C 1.05065 0.49948 0.99555 0.0
H394 H 0.16811 0.52732 0.12828 0.0
C395 C 1.03108 0.48006 1.03485 0.0
H396 H 0.11421 0.53262 1.00134 0.0
C397 C 1.06105 0.47743 0.10765 0.0
C398 C 0.11108 0.49416 0.14201 0.0
H399 H 0.99255 0.46691 1.00937 0.0
H400 H 1.04669 0.46142 0.13629 0.0
C401 C 0.1292 0.51438 0.10308 0.0
C402 C 1.06553 0.5166 0.55177 0.0
C403 C 0.11348 0.49905 0.58663 0.0
H404 H 0.9979 0.52734 0.45347 0.0
C405 C 0.13287 0.47977 0.54729 0.0
H406 H 1.05085 0.5322 0.58075 0.0
C407 C 0.10348 0.47741 0.47431 0.0
C408 C 1.05419 0.49425 0.43977 0.0
H409 H 0.17084 0.46654 0.57289 0.0
H410 H 0.11765 0.4615 0.4456 0.0
C411 C 1.03628 0.51433 0.47878 0.0
C412 C 0.59775 0.0192 1.03282 0.0
C413 C 0.54905 0.00175 0.99816 0.0
H414 H 0.66757 0.02902 0.13037 0.0
C415 C 0.53047 0.98178 1.03715 0.0
H416 H 0.6118 0.03532 1.00413 0.0
C417 C 0.56148 0.97857 0.10953 0.0
C418 C 0.61157 0.99526 0.14372 0.0
H419 H 0.49196 0.9686 1.01175 0.0
H420 H 0.54789 0.96214 0.13787 0.0
C421 C 0.62866 0.01606 0.10523 0.0
C422 C 0.53317 0.01144 0.50787 0.0
C423 C 0.55363 0.99204 0.46977 0.0
H424 H 0.54539 0.0296 0.60892 0.0
C425 C 0.60254 0.97522 0.50603 0.0
H426 H 0.49463 0.0242 0.48136 0.0
C427 C 0.63061 0.97781 0.57922 0.0
C428 C 0.61034 0.99733 0.61723 0.0
H429 H 0.61828 0.9596 0.47815 0.0
H430 H 0.66915 0.96506 0.60577 0.0
C431 C 0.56118 0.014 0.58106 0.0
C432 C 1.06611 0.38373 0.75312 0.0
C433 C 1.05064 0.40953 0.71557 0.0
H434 H 0.10698 0.36348 0.85489 0.0
C435 C 1.06446 0.43507 0.75445 0.0
H436 H 1.0564 0.36366 0.72493 0.0
C437 C 0.09241 0.43496 0.82831 0.0
C438 C 0.10863 0.40931 0.86614 0.0
H439 H 1.05323 0.45539 0.72778 0.0
H440 H 0.10181 0.45519 0.85579 0.0
C441 C 0.09538 0.38363 0.82754 0.0
C442 C 1.0449 0.60215 0.32727 0.0
C443 C 0.10566 0.59985 0.3669 0.0
H444 H 0.9758 0.60347 0.22435 0.0
C445 C 0.14354 0.5973 0.3293 0.0
H446 H 1.01413 0.60412 0.354 0.0
C447 C 0.12132 0.59663 0.25465 0.0
C448 C 1.06054 0.59885 0.21501 0.0
H449 H 0.19042 0.59531 0.35755 0.0
H450 H 0.15203 0.59426 0.22795 0.0
C451 C 1.02274 0.60184 0.25259 0.0
C452 C 0.60546 0.93253 0.8358 0.0
C453 C 0.61717 0.90679 0.87381 0.0
H454 H 0.56862 0.95329 0.73548 0.0
C455 C 0.59868 0.88127 0.8354 0.0
H456 H 0.61906 0.95265 0.86306 0.0
C457 C 0.56843 0.88166 0.76109 0.0
C458 C 0.557 0.90756 0.72342 0.0
H459 H 0.60671 0.86106 0.86285 0.0
H460 H 0.55445 0.86172 0.73314 0.0
C461 C 0.57638 0.93289 0.76211 0.0
C462 C 0.61345 0.09424 0.25239 0.0
C463 C 0.55497 0.10184 0.21208 0.0
H464 H 0.68092 0.08986 0.35571 0.0
C465 C 0.51977 0.11151 0.24868 0.0
H466 H 0.64207 0.08665 0.22641 0.0
C467 C 0.54206 0.1131 0.32321 0.0
C468 C 0.60047 0.10538 0.36353 0.0
H469 H 0.47458 0.11743 0.21983 0.0
H470 H 0.51324 0.12031 0.34929 0.0
C471 C 0.63594 0.09614 0.32685 0.0
C472 C 0.14135 0.40206 0.33323 0.0
C473 C 0.12445 0.40127 0.25918 0.0
H474 H 0.11337 0.40151 0.42181 0.0
C475 C 1.06413 0.40155 0.21715 0.0
H476 H 0.1874 0.4019 0.36701 0.0
C477 C 1.0217 0.40205 0.24846 0.0
C478 C 1.03859 0.40144 0.32252 0.0
H479 H 1.04966 0.40119 0.15989 0.0
H480 H 0.97565 0.40188 0.21468 0.0
C481 C 0.09891 0.40173 0.36455 0.0
C482 C 0.14267 0.58375 0.83334 0.0
C483 C 0.12588 0.58427 0.7592 0.0
H484 H 0.11459 0.58478 0.92192 0.0
C485 C 1.06566 0.58406 0.71709 0.0
H486 H 0.1887 0.58389 0.86721 0.0
C487 C 1.02322 0.58374 0.74843 0.0
C488 C 1.04003 0.58458 0.82255 0.0
H489 H 1.05133 0.58423 0.65983 0.0
H490 H 0.97719 0.58385 0.71455 0.0
C491 C 0.10024 0.58438 0.86467 0.0
C492 C 0.60202 0.90216 0.37294 0.0
C493 C 0.54167 0.90186 0.33102 0.0
H494 H 0.69047 0.9024 0.37509 0.0
C495 C 0.5247 0.9027 0.25696 0.0
H496 H 0.61654 0.90177 0.4302 0.0
C497 C 0.56702 0.9023 0.22549 0.0
C498 C 0.62734 0.90196 0.26736 0.0
H499 H 0.47863 0.90254 0.22324 0.0
H500 H 0.55247 0.902 0.16822 0.0
C501 C 0.64439 0.90265 0.34145 0.0
C502 C 0.59527 0.08783 0.86157 0.0
C503 C 0.53495 0.08716 0.81987 0.0
H504 H 0.68354 0.08859 0.86338 0.0
C505 C 0.51782 0.08581 0.74576 0.0
H506 H 0.60987 0.08866 0.91881 0.0
C507 C 0.55997 0.08661 0.71398 0.0
C508 C 0.62027 0.0878 0.75567 0.0
H509 H 0.47172 0.08525 0.7122 0.0
H510 H 0.54534 0.08646 0.6567 0.0
C511 C 0.63745 0.08768 0.82984 0.0
loop_
_geom_bond_atom_site_label_1
_geom_bond_atom_site_label_2
_geom_bond_distance
_geom_bond_site_symmetry_2
_ccdc_geom_bond_type
O0 Tb1 2.292 . S
O0 C3 1.255 . S
Tb1 O0 2.292 . S
Tb1 O17 2.326 . S
Tb1 O19 2.500 . S
Tb1 O20 2.473 . S
Tb1 O23 2.324 . S
Eu2 O6 2.292 1_554 S
Eu2 C7 2.852 . S
Eu2 O18 2.324 . S
Eu2 O22 2.326 . S
Eu2 O24 2.500 . S
Eu2 O25 2.473 . S
C3 O0 1.255 . S
C3 O4 1.247 . S
O4 C3 1.247 . S
C5 O17 1.242 . S
C5 O18 1.258 . S
O6 Eu2 2.292 1_556 S
O6 C8 1.255 . S
C7 Eu2 2.852 . S
C7 C11 1.503 . S
C7 O24 1.273 . S
C7 O25 1.257 . S
C8 O6 1.255 . S
C8 O9 1.247 . S
O9 C8 1.247 . S
C10 O22 1.242 . S
C10 O23 1.258 . S
C11 C7 1.503 . S
C11 C12 1.379 . S
C11 C16 1.392 . S
C12 C11 1.379 . S
C12 C13 1.404 . S
C12 H26 0.929 . S
C13 C12 1.404 . S
C13 C14 1.389 . S
C14 C13 1.389 . S
C14 C15 1.399 . S
C14 H27 0.931 . S
C15 C14 1.399 . S
C15 C16 1.390 . S
C16 C11 1.392 . S
C16 C15 1.390 . S
C16 H28 0.929 . S
O17 Tb1 2.326 . S
O17 C5 1.242 . S
O18 Eu2 2.324 . S
O18 C5 1.258 . S
O19 Tb1 2.500 . S
O19 C21 1.273 . S
O20 Tb1 2.473 . S
O20 C21 1.257 . S
C21 O19 1.273 . S
C21 O20 1.257 . S
O22 Eu2 2.326 . S
O22 C10 1.242 . S
O23 Tb1 2.324 . S
O23 C10 1.258 . S
O24 Eu2 2.500 . S
O24 C7 1.273 . S
O25 Eu2 2.473 . S
O25 C7 1.257 . S
H26 C12 0.929 . S
H27 C14 0.931 . S
H28 C16 0.929 . S
O29 Tb30 2.292 . S
O29 C32 1.255 . S
Tb30 O29 2.292 . S
Tb30 O46 2.326 . S
Tb30 O48 2.500 . S
Tb30 O49 2.473 . S
Tb30 O52 2.324 . S
Eu31 O35 2.292 . S
Eu31 C36 2.852 . S
Eu31 O47 2.324 . S
Eu31 O51 2.326 . S
Eu31 O53 2.500 . S
Eu31 O54 2.473 . S
C32 O29 1.255 . S
C32 O33 1.247 . S
O33 C32 1.247 . S
C34 O46 1.242 . S
C34 O47 1.258 . S
O35 Eu31 2.292 . S
O35 C37 1.255 . S
C36 Eu31 2.852 . S
C36 C40 1.503 . S
C36 O53 1.273 . S
C36 O54 1.257 . S
C37 O35 1.255 . S
C37 O38 1.247 . S
O38 C37 1.247 . S
C39 O51 1.242 . S
C39 O52 1.258 . S
C40 C36 1.503 . S
C40 C41 1.379 . S
C40 C45 1.392 . S
C41 C40 1.379 . S
C41 C42 1.404 . S
C41 H55 0.929 . S
C42 C41 1.404 . S
C42 C43 1.389 . S
C43 C42 1.389 . S
C43 C44 1.399 . S
C43 H56 0.931 . S
C44 C43 1.399 . S
C44 C45 1.390 . S
C45 C40 1.392 . S
C45 C44 1.390 . S
C45 H57 0.929 . S
O46 Tb30 2.326 . S
O46 C34 1.242 . S
O47 Eu31 2.324 . S
O47 C34 1.258 . S
O48 Tb30 2.500 . S
O48 C50 1.273 . S
O49 Tb30 2.473 . S
O49 C50 1.257 . S
C50 O48 1.273 . S
C50 O49 1.257 . S
O51 Eu31 2.326 . S
O51 C39 1.242 . S
O52 Tb30 2.324 . S
O52 C39 1.258 . S
O53 Eu31 2.500 . S
O53 C36 1.273 . S
O54 Eu31 2.473 . S
O54 C36 1.257 . S
H55 C41 0.929 . S
H56 C43 0.931 . S
H57 C45 0.929 . S
O58 Tb59 2.292 . S
O58 C61 1.255 . S
Tb59 O58 2.292 . S
Tb59 O75 2.326 . S
Tb59 O77 2.500 . S
Tb59 O78 2.473 . S
Tb59 O81 2.324 . S
Eu60 O64 2.292 1_556 S
Eu60 C65 2.852 . S
Eu60 O76 2.324 . S
Eu60 O80 2.326 . S
Eu60 O82 2.500 . S
Eu60 O83 2.473 . S
C61 O58 1.255 . S
C61 O62 1.247 . S
O62 C61 1.247 . S
C63 O75 1.242 . S
C63 O76 1.258 . S
O64 Eu60 2.292 1_554 S
O64 C66 1.255 . S
C65 Eu60 2.852 . S
C65 C69 1.503 . S
C65 O82 1.273 . S
C65 O83 1.257 . S
C66 O64 1.255 . S
C66 O67 1.247 . S
O67 C66 1.247 . S
C68 O80 1.242 . S
C68 O81 1.258 . S
C69 C65 1.503 . S
C69 C70 1.379 . S
C69 C74 1.392 . S
C70 C69 1.379 . S
C70 C71 1.404 . S
C70 H84 0.929 . S
C71 C70 1.404 . S
C71 C72 1.389 . S
C72 C71 1.389 . S
C72 C73 1.399 . S
C72 H85 0.931 . S
C73 C72 1.399 . S
C73 C74 1.390 . S
C74 C69 1.392 . S
C74 C73 1.390 . S
C74 H86 0.929 . S
O75 Tb59 2.326 . S
O75 C63 1.242 . S
O76 Eu60 2.324 . S
O76 C63 1.258 . S
O77 Tb59 2.500 . S
O77 C79 1.273 . S
O78 Tb59 2.473 . S
O78 C79 1.257 . S
C79 O77 1.273 . S
C79 O78 1.257 . S
O80 Eu60 2.326 . S
O80 C68 1.242 . S
O81 Tb59 2.324 . S
O81 C68 1.258 . S
O82 Eu60 2.500 . S
O82 C65 1.273 . S
O83 Eu60 2.473 . S
O83 C65 1.257 . S
H84 C70 0.929 . S
H85 C72 0.931 . S
H86 C74 0.929 . S
O87 Tb88 2.292 . S
O87 C90 1.255 . S
Tb88 O87 2.292 . S
Tb88 O104 2.326 . S
Tb88 O106 2.500 . S
Tb88 O107 2.473 . S
Tb88 O110 2.324 . S
Eu89 O93 2.292 . S
Eu89 C94 2.852 . S
Eu89 O105 2.324 . S
Eu89 O109 2.326 . S
Eu89 O111 2.500 . S
Eu89 O112 2.473 . S
C90 O87 1.255 . S
C90 O91 1.247 . S
O91 C90 1.247 . S
C92 O104 1.242 . S
C92 O105 1.258 . S
O93 Eu89 2.292 . S
O93 C95 1.255 . S
C94 Eu89 2.852 . S
C94 C98 1.503 . S
C94 O111 1.273 . S
C94 O112 1.257 . S
C95 O93 1.255 . S
C95 O96 1.247 . S
O96 C95 1.247 . S
C97 O109 1.242 . S
C97 O110 1.258 . S
C98 C94 1.503 . S
C98 C99 1.379 . S
C98 C103 1.392 . S
C99 C98 1.379 . S
C99 C100 1.404 . S
C99 H113 0.929 . S
C100 C99 1.404 . S
C100 C101 1.389 . S
C101 C100 1.389 . S
C101 C102 1.399 . S
C101 H114 0.931 . S
C102 C101 1.399 . S
C102 C103 1.390 . S
C103 C98 1.392 . S
C103 C102 1.390 . S
C103 H115 0.929 . S
O104 Tb88 2.326 . S
O104 C92 1.242 . S
O105 Eu89 2.324 . S
O105 C92 1.258 . S
O106 Tb88 2.500 . S
O106 C108 1.273 . S
O107 Tb88 2.473 . S
O107 C108 1.257 . S
C108 O106 1.273 . S
C108 O107 1.257 . S
O109 Eu89 2.326 . S
O109 C97 1.242 . S
O110 Tb88 2.324 . S
O110 C97 1.258 . S
O111 Eu89 2.500 . S
O111 C94 1.273 . S
O112 Eu89 2.473 . S
O112 C94 1.257 . S
H113 C99 0.929 . S
H114 C101 0.931 . S
H115 C103 0.929 . S
O116 Tb117 2.292 . S
O116 C119 1.255 . S
Tb117 O116 2.292 . S
Tb117 O133 2.326 . S
Tb117 O135 2.495 1_565 S
Tb117 O136 2.473 . S
Tb117 O139 2.324 . S
Eu118 O122 2.292 1_554 S
Eu118 C123 2.852 . S
Eu118 O134 2.324 . S
Eu118 O138 2.326 . S
Eu118 O140 2.500 . S
Eu118 O141 2.473 . S
C119 O116 1.255 . S
C119 O120 1.247 . S
O120 C119 1.247 . S
C121 O133 1.242 . S
C121 O134 1.258 . S
O122 Eu118 2.292 1_556 S
O122 C124 1.255 . S
C123 Eu118 2.852 . S
C123 C127 1.503 . S
C123 O140 1.273 . S
C123 O141 1.257 . S
C124 O122 1.255 . S
C124 O125 1.247 . S
O125 C124 1.247 . S
C126 O138 1.242 . S
C126 O139 1.258 . S
C127 C123 1.503 . S
C127 C128 1.379 . S
C127 C132 1.392 . S
C128 C127 1.379 . S
C128 C129 1.404 . S
C128 H142 0.929 . S
C129 C128 1.404 . S
C129 C130 1.389 . S
C130 C129 1.389 . S
C130 C131 1.399 . S
C130 H143 0.931 . S
C131 C130 1.399 . S
C131 C132 1.390 . S
C132 C127 1.392 . S
C132 C131 1.390 . S
C132 H144 0.929 . S
O133 Tb117 2.326 . S
O133 C121 1.242 . S
O134 Eu118 2.324 . S
O134 C121 1.258 . S
O135 Tb117 2.495 1_545 S
O135 C137 1.271 1_545 S
O136 Tb117 2.473 . S
O136 C137 1.257 . S
C137 O135 1.271 1_565 S
C137 O136 1.257 . S
O138 Eu118 2.326 . S
O138 C126 1.242 . S
O139 Tb117 2.324 . S
O139 C126 1.258 . S
O140 Eu118 2.500 . S
O140 C123 1.273 . S
O141 Eu118 2.473 . S
O141 C123 1.257 . S
H142 C128 0.929 . S
H143 C130 0.931 . S
H144 C132 0.929 . S
O145 Tb146 2.292 . S
O145 C148 1.255 . S
Tb146 O145 2.292 . S
Tb146 O162 2.326 . S
Tb146 O164 2.495 1_565 S
Tb146 O165 2.473 . S
Tb146 O168 2.324 . S
Eu147 O151 2.292 . S
Eu147 C152 2.852 . S
Eu147 O163 2.324 . S
Eu147 O167 2.326 . S
Eu147 O169 2.500 . S
Eu147 O170 2.473 . S
C148 O145 1.255 . S
C148 O149 1.247 . S
O149 C148 1.247 . S
C150 O162 1.242 . S
C150 O163 1.258 . S
O151 Eu147 2.292 . S
O151 C153 1.255 . S
C152 Eu147 2.852 . S
C152 C156 1.503 . S
C152 O169 1.273 . S
C152 O170 1.257 . S
C153 O151 1.255 . S
C153 O154 1.247 . S
O154 C153 1.247 . S
C155 O167 1.242 . S
C155 O168 1.258 . S
C156 C152 1.503 . S
C156 C157 1.379 . S
C156 C161 1.392 . S
C157 C156 1.379 . S
C157 C158 1.404 . S
C157 H171 0.929 . S
C158 C157 1.404 . S
C158 C159 1.389 . S
C159 C158 1.389 . S
C159 C160 1.399 . S
C159 H172 0.931 . S
C160 C159 1.399 . S
C160 C161 1.390 . S
C161 C156 1.392 . S
C161 C160 1.390 . S
C161 H173 0.929 . S
O162 Tb146 2.326 . S
O162 C150 1.242 . S
O163 Eu147 2.324 . S
O163 C150 1.258 . S
O164 Tb146 2.495 1_545 S
O164 C166 1.271 1_545 S
O165 Tb146 2.473 . S
O165 C166 1.257 . S
C166 O164 1.271 1_565 S
C166 O165 1.257 . S
O167 Eu147 2.326 . S
O167 C155 1.242 . S
O168 Tb146 2.324 . S
O168 C155 1.258 . S
O169 Eu147 2.500 . S
O169 C152 1.273 . S
O170 Eu147 2.473 . S
O170 C152 1.257 . S
H171 C157 0.929 . S
H172 C159 0.931 . S
H173 C161 0.929 . S
O174 Tb175 2.292 . S
O174 C177 1.255 . S
Tb175 O174 2.292 . S
Tb175 O191 2.326 . S
Tb175 O193 2.495 1_545 S
Tb175 O194 2.473 . S
Tb175 O197 2.324 . S
Eu176 O180 2.292 1_556 S
Eu176 C181 2.852 . S
Eu176 O192 2.324 . S
Eu176 O196 2.326 . S
Eu176 O198 2.500 . S
Eu176 O199 2.473 . S
C177 O174 1.255 . S
C177 O178 1.247 . S
O178 C177 1.247 . S
C179 O191 1.242 . S
C179 O192 1.258 . S
O180 Eu176 2.292 1_554 S
O180 C182 1.255 . S
C181 Eu176 2.852 . S
C181 C185 1.503 . S
C181 O198 1.273 . S
C181 O199 1.257 . S
C182 O180 1.255 . S
C182 O183 1.247 . S
O183 C182 1.247 . S
C184 O196 1.242 . S
C184 O197 1.258 . S
C185 C181 1.503 . S
C185 C186 1.379 . S
C185 C190 1.392 . S
C186 C185 1.379 . S
C186 C187 1.404 . S
C186 H200 0.929 . S
C187 C186 1.404 . S
C187 C188 1.389 . S
C188 C187 1.389 . S
C188 C189 1.399 . S
C188 H201 0.931 . S
C189 C188 1.399 . S
C189 C190 1.390 . S
C190 C185 1.392 . S
C190 C189 1.390 . S
C190 H202 0.929 . S
O191 Tb175 2.326 . S
O191 C179 1.242 . S
O192 Eu176 2.324 . S
O192 C179 1.258 . S
O193 Tb175 2.495 1_565 S
O193 C195 1.271 1_565 S
O194 Tb175 2.473 . S
O194 C195 1.257 . S
C195 O193 1.271 1_545 S
C195 O194 1.257 . S
O196 Eu176 2.326 . S
O196 C184 1.242 . S
O197 Tb175 2.324 . S
O197 C184 1.258 . S
O198 Eu176 2.500 . S
O198 C181 1.273 . S
O199 Eu176 2.473 . S
O199 C181 1.257 . S
H200 C186 0.929 . S
H201 C188 0.931 . S
H202 C190 0.929 . S
O203 Tb204 2.292 . S
O203 C206 1.255 . S
Tb204 O203 2.292 . S
Tb204 O220 2.326 . S
Tb204 O222 2.495 1_545 S
Tb204 O223 2.473 . S
Tb204 O226 2.324 . S
Eu205 O209 2.292 . S
Eu205 C210 2.852 . S
Eu205 O221 2.324 . S
Eu205 O225 2.326 . S
Eu205 O227 2.500 . S
Eu205 O228 2.473 . S
C206 O203 1.255 . S
C206 O207 1.247 . S
O207 C206 1.247 . S
C208 O220 1.242 . S
C208 O221 1.258 . S
O209 Eu205 2.292 . S
O209 C211 1.255 . S
C210 Eu205 2.852 . S
C210 C214 1.503 . S
C210 O227 1.273 . S
C210 O228 1.257 . S
C211 O209 1.255 . S
C211 O212 1.247 . S
O212 C211 1.247 . S
C213 O225 1.242 . S
C213 O226 1.258 . S
C214 C210 1.503 . S
C214 C215 1.379 . S
C214 C219 1.392 . S
C215 C214 1.379 . S
C215 C216 1.404 . S
C215 H229 0.929 . S
C216 C215 1.404 . S
C216 C217 1.389 . S
C217 C216 1.389 . S
C217 C218 1.399 . S
C217 H230 0.931 . S
C218 C217 1.399 . S
C218 C219 1.390 . S
C219 C214 1.392 . S
C219 C218 1.390 . S
C219 H231 0.929 . S
O220 Tb204 2.326 . S
O220 C208 1.242 . S
O221 Eu205 2.324 . S
O221 C208 1.258 . S
O222 Tb204 2.495 1_565 S
O222 C224 1.271 1_565 S
O223 Tb204 2.473 . S
O223 C224 1.257 . S
C224 O222 1.271 1_545 S
C224 O223 1.257 . S
O225 Eu205 2.326 . S
O225 C213 1.242 . S
O226 Tb204 2.324 . S
O226 C213 1.258 . S
O227 Eu205 2.500 . S
O227 C210 1.273 . S
O228 Eu205 2.473 . S
O228 C210 1.257 . S
H229 C215 0.929 . S
H230 C217 0.931 . S
H231 C219 0.929 . S
C232 C233 1.387 . S
C232 H236 0.950 . S
C232 C241 1.390 . S
C233 C232 1.387 . S
C233 C235 1.387 . S
H234 C241 0.950 . S
C235 C233 1.387 . S
C235 C237 1.390 . S
C235 H239 0.950 . S
H236 C232 0.950 . S
C237 C235 1.390 . S
C237 C238 1.387 . S
C237 H240 0.950 . S
C238 C237 1.387 . S
C238 C241 1.387 . S
H239 C235 0.950 . S
H240 C237 0.950 . S
C241 C232 1.390 . S
C241 H234 0.950 . S
C241 C238 1.387 . S
C242 C243 1.387 . S
C242 H246 0.950 . S
C242 C251 1.390 . S
C243 C242 1.387 . S
C243 C245 1.387 . S
H244 C251 0.950 . S
C245 C243 1.387 . S
C245 C247 1.390 . S
C245 H249 0.950 . S
H246 C242 0.950 . S
C247 C245 1.390 . S
C247 C248 1.387 . S
C247 H250 0.950 . S
C248 C247 1.387 . S
C248 C251 1.387 . S
H249 C245 0.950 . S
H250 C247 0.950 . S
C251 C242 1.390 . S
C251 H244 0.950 . S
C251 C248 1.387 . S
C252 C253 1.387 . S
C252 H256 0.950 . S
C252 C261 1.390 1_655 S
C253 C252 1.387 . S
C253 C255 1.387 . S
H254 C261 0.950 . S
C255 C253 1.387 . S
C255 C257 1.390 1_655 S
C255 H259 0.950 . S
H256 C252 0.950 . S
C257 C255 1.390 1_455 S
C257 C258 1.387 . S
C257 H260 0.950 . S
C258 C257 1.387 . S
C258 C261 1.387 . S
H259 C255 0.950 . S
H260 C257 0.950 . S
C261 C252 1.390 1_455 S
C261 H254 0.950 . S
C261 C258 1.387 . S
C262 C263 1.387 . S
C262 H266 0.950 . S
C262 C271 1.390 1_655 S
C263 C262 1.387 . S
C263 C265 1.387 . S
H264 C271 0.950 . S
C265 C263 1.387 . S
C265 C267 1.390 1_655 S
C265 H269 0.950 . S
H266 C262 0.950 . S
C267 C265 1.390 1_455 S
C267 C268 1.387 . S
C267 H270 0.950 . S
C268 C267 1.387 . S
C268 C271 1.387 . S
H269 C265 0.950 . S
H270 C267 0.950 . S
C271 C262 1.390 1_455 S
C271 H264 0.950 . S
C271 C268 1.387 . S
C272 C273 1.387 . S
C272 H276 0.950 . S
C272 C281 1.390 . S
C273 C272 1.387 . S
C273 C275 1.387 1_556 S
H274 C281 0.950 . S
C275 C273 1.387 1_554 S
C275 C277 1.390 . S
C275 H279 0.950 . S
H276 C272 0.950 . S
C277 C275 1.390 . S
C277 C278 1.387 . S
C277 H280 0.950 . S
C278 C277 1.387 . S
C278 C281 1.387 1_554 S
H279 C275 0.950 . S
H280 C277 0.950 . S
C281 C272 1.390 . S
C281 H274 0.950 . S
C281 C278 1.387 1_556 S
C282 C283 1.387 . S
C282 H286 0.950 . S
C282 C291 1.390 . S
C283 C282 1.387 . S
C283 C285 1.387 . S
H284 C291 0.950 . S
C285 C283 1.387 . S
C285 C287 1.390 . S
C285 H289 0.950 . S
H286 C282 0.950 . S
C287 C285 1.390 . S
C287 C288 1.387 . S
C287 H290 0.950 . S
C288 C287 1.387 . S
C288 C291 1.387 . S
H289 C285 0.950 . S
H290 C287 0.950 . S
C291 C282 1.390 . S
C291 H284 0.950 . S
C291 C288 1.387 . S
C292 C293 1.387 . S
C292 H296 0.950 . S
C292 C301 1.390 . S
C293 C292 1.387 . S
C293 C295 1.387 1_554 S
H294 C301 0.950 . S
C295 C293 1.387 1_556 S
C295 C297 1.390 . S
C295 H299 0.950 . S
H296 C292 0.950 . S
C297 C295 1.390 . S
C297 C298 1.387 . S
C297 H300 0.950 . S
C298 C297 1.387 . S
C298 C301 1.387 1_556 S
H299 C295 0.950 . S
H300 C297 0.950 . S
C301 C292 1.390 . S
C301 H294 0.950 . S
C301 C298 1.387 1_554 S
C302 C303 1.387 . S
C302 H306 0.950 . S
C302 C311 1.390 . S
C303 C302 1.387 . S
C303 C305 1.387 . S
H304 C311 0.950 . S
C305 C303 1.387 . S
C305 C307 1.390 . S
C305 H309 0.950 . S
H306 C302 0.950 . S
C307 C305 1.390 . S
C307 C308 1.387 . S
C307 H310 0.950 . S
C308 C307 1.387 . S
C308 C311 1.387 . S
H309 C305 0.950 . S
H310 C307 0.950 . S
C311 C302 1.390 . S
C311 H304 0.950 . S
C311 C308 1.387 . S
C312 C313 1.387 . S
C312 H316 0.950 . S
C312 C321 1.390 . S
C313 C312 1.387 . S
C313 C315 1.387 . S
H314 C321 0.950 . S
C315 C313 1.387 . S
C315 C317 1.390 . S
C315 H319 0.950 . S
H316 C312 0.950 . S
C317 C315 1.390 . S
C317 C318 1.387 . S
C317 H320 0.950 . S
C318 C317 1.387 . S
C318 C321 1.387 . S
H319 C315 0.950 . S
H320 C317 0.950 . S
C321 C312 1.390 . S
C321 H314 0.950 . S
C321 C318 1.387 . S
C322 C323 1.387 . S
C322 H326 0.950 . S
C322 C331 1.390 . S
C323 C322 1.387 . S
C323 C325 1.387 . S
H324 C331 0.950 . S
C325 C323 1.387 . S
C325 C327 1.390 . S
C325 H329 0.950 . S
H326 C322 0.950 . S
C327 C325 1.390 . S
C327 C328 1.387 . S
C327 H330 0.950 . S
C328 C327 1.387 . S
C328 C331 1.387 . S
H329 C325 0.950 . S
H330 C327 0.950 . S
C331 C322 1.390 . S
C331 H324 0.950 . S
C331 C328 1.387 . S
C332 C333 1.387 . S
C332 H336 0.950 . S
C332 C341 1.390 . S
C333 C332 1.387 . S
C333 C335 1.387 . S
H334 C341 0.950 . S
C335 C333 1.387 . S
C335 C337 1.390 . S
C335 H339 0.950 . S
H336 C332 0.950 . S
C337 C335 1.390 . S
C337 C338 1.387 . S
C337 H340 0.950 . S
C338 C337 1.387 . S
C338 C341 1.387 . S
H339 C335 0.950 . S
H340 C337 0.950 . S
C341 C332 1.390 . S
C341 H334 0.950 . S
C341 C338 1.387 . S
C342 C343 1.387 . S
C342 H346 0.950 . S
C342 C351 1.390 . S
C343 C342 1.387 . S
C343 C345 1.387 . S
H344 C351 0.950 . S
C345 C343 1.387 . S
C345 C347 1.390 . S
C345 H349 0.950 . S
H346 C342 0.950 . S
C347 C345 1.390 . S
C347 C348 1.387 . S
C347 H350 0.950 . S
C348 C347 1.387 . S
C348 C351 1.387 . S
H349 C345 0.950 . S
H350 C347 0.950 . S
C351 C342 1.390 . S
C351 H344 0.950 . S
C351 C348 1.387 . S
C352 C353 1.387 . S
C352 H356 0.950 . S
C352 C361 1.390 . S
C353 C352 1.387 . S
C353 C355 1.387 . S
H354 C361 0.950 . S
C355 C353 1.387 . S
C355 C357 1.390 1_565 S
C355 H359 0.950 . S
H356 C352 0.950 . S
C357 C355 1.390 1_545 S
C357 C358 1.387 . S
C357 H360 0.950 . S
C358 C357 1.387 . S
C358 C361 1.387 1_545 S
H359 C355 0.950 . S
H360 C357 0.950 . S
C361 C352 1.390 . S
C361 H354 0.950 . S
C361 C358 1.387 1_565 S
C362 C363 1.387 1_565 S
C362 H366 0.950 . S
C362 C371 1.390 . S
C363 C362 1.387 1_545 S
C363 C365 1.387 . S
H364 C371 0.950 . S
C365 C363 1.387 . S
C365 C367 1.390 1_545 S
C365 H369 0.950 . S
H366 C362 0.950 . S
C367 C365 1.390 1_565 S
C367 C368 1.387 . S
C367 H370 0.950 . S
C368 C367 1.387 . S
C368 C371 1.387 . S
H369 C365 0.950 . S
H370 C367 0.950 . S
C371 C362 1.390 . S
C371 H364 0.950 . S
C371 C368 1.387 . S
C372 C373 1.387 1_545 S
C372 H376 0.950 . S
C372 C381 1.390 . S
C373 C372 1.387 1_565 S
C373 C375 1.387 . S
H374 C381 0.950 . S
C375 C373 1.387 . S
C375 C377 1.390 1_565 S
C375 H379 0.950 . S
H376 C372 0.950 . S
C377 C375 1.390 1_545 S
C377 C378 1.387 . S
C377 H380 0.950 . S
C378 C377 1.387 . S
C378 C381 1.387 . S
H379 C375 0.950 . S
H380 C377 0.950 . S
C381 C372 1.390 . S
C381 H374 0.950 . S
C381 C378 1.387 . S
C382 C383 1.387 1_545 S
C382 H386 0.950 . S
C382 C391 1.390 . S
C383 C382 1.387 1_565 S
C383 C385 1.387 . S
H384 C391 0.950 . S
C385 C383 1.387 . S
C385 C387 1.390 1_565 S
C385 H389 0.950 . S
H386 C382 0.950 . S
C387 C385 1.390 1_545 S
C387 C388 1.387 . S
C387 H390 0.950 . S
C388 C387 1.387 . S
C388 C391 1.387 . S
H389 C385 0.950 . S
H390 C387 0.950 . S
C391 C382 1.390 . S
C391 H384 0.950 . S
C391 C388 1.387 . S
C392 C393 1.387 . S
C392 H396 0.950 . S
C392 C401 1.390 1_656 S
C393 C392 1.387 . S
C393 C395 1.387 . S
H394 C401 0.950 . S
C395 C393 1.387 . S
C395 C397 1.390 1_656 S
C395 H399 0.950 . S
H396 C392 0.950 . S
C397 C395 1.390 1_454 S
C397 C398 1.387 . S
C397 H400 0.950 . S
C398 C397 1.387 . S
C398 C401 1.387 . S
H399 C395 0.950 . S
H400 C397 0.950 . S
C401 C392 1.390 1_454 S
C401 H394 0.950 . S
C401 C398 1.387 . S
C402 C403 1.387 . S
C402 H406 0.950 . S
C402 C411 1.390 1_455 S
C403 C402 1.387 . S
C403 C405 1.387 . S
H404 C411 0.950 . S
C405 C403 1.387 . S
C405 C407 1.390 1_455 S
C405 H409 0.950 . S
H406 C402 0.950 . S
C407 C405 1.390 1_655 S
C407 C408 1.387 . S
C407 H410 0.950 . S
C408 C407 1.387 . S
C408 C411 1.387 . S
H409 C405 0.950 . S
H410 C407 0.950 . S
C411 C402 1.390 1_655 S
C411 H404 0.950 . S
C411 C408 1.387 . S
C412 C413 1.387 . S
C412 H416 0.950 . S
C412 C421 1.390 1_546 S
C413 C412 1.387 . S
C413 C415 1.387 . S
H414 C421 0.950 . S
C415 C413 1.387 . S
C415 C417 1.390 1_546 S
C415 H419 0.950 . S
H416 C412 0.950 . S
C417 C415 1.390 1_564 S
C417 C418 1.387 . S
C417 H420 0.950 . S
C418 C417 1.387 . S
C418 C421 1.387 . S
H419 C415 0.950 . S
H420 C417 0.950 . S
C421 C412 1.390 1_564 S
C421 H414 0.950 . S
C421 C418 1.387 . S
C422 C423 1.387 . S
C422 H426 0.950 . S
C422 C431 1.390 1_565 S
C423 C422 1.387 . S
C423 C425 1.387 . S
H424 C431 0.950 . S
C425 C423 1.387 . S
C425 C427 1.390 1_565 S
C425 H429 0.950 . S
H426 C422 0.950 . S
C427 C425 1.390 1_545 S
C427 C428 1.387 . S
C427 H430 0.950 . S
C428 C427 1.387 . S
C428 C431 1.387 . S
H429 C425 0.950 . S
H430 C427 0.950 . S
C431 C422 1.390 1_545 S
C431 H424 0.950 . S
C431 C428 1.387 . S
C432 C433 1.387 . S
C432 H436 0.950 . S
C432 C441 1.390 1_655 S
C433 C432 1.387 . S
C433 C435 1.387 . S
H434 C441 0.950 . S
C435 C433 1.387 . S
C435 C437 1.390 1_655 S
C435 H439 0.950 . S
H436 C432 0.950 . S
C437 C435 1.390 1_455 S
C437 C438 1.387 . S
C437 H440 0.950 . S
C438 C437 1.387 . S
C438 C441 1.387 . S
H439 C435 0.950 . S
H440 C437 0.950 . S
C441 C432 1.390 1_455 S
C441 H434 0.950 . S
C441 C438 1.387 . S
C442 C443 1.387 . S
C442 H446 0.950 . S
C442 C451 1.390 1_455 S
C443 C442 1.387 . S
C443 C445 1.387 . S
H444 C451 0.950 . S
C445 C443 1.387 . S
C445 C447 1.390 1_455 S
C445 H449 0.950 . S
H446 C442 0.950 . S
C447 C445 1.390 1_655 S
C447 C448 1.387 . S
C447 H450 0.950 . S
C448 C447 1.387 . S
C448 C451 1.387 . S
H449 C445 0.950 . S
H450 C447 0.950 . S
C451 C442 1.390 1_655 S
C451 H444 0.950 . S
C451 C448 1.387 . S
C452 C453 1.387 . S
C452 H456 0.950 . S
C452 C461 1.390 . S
C453 C452 1.387 . S
C453 C455 1.387 . S
H454 C461 0.950 . S
C455 C453 1.387 . S
C455 C457 1.390 . S
C455 H459 0.950 . S
H456 C452 0.950 . S
C457 C455 1.390 . S
C457 C458 1.387 . S
C457 H460 0.950 . S
C458 C457 1.387 . S
C458 C461 1.387 . S
H459 C455 0.950 . S
H460 C457 0.950 . S
C461 C452 1.390 . S
C461 H454 0.950 . S
C461 C458 1.387 . S
C462 C463 1.387 . S
C462 H466 0.950 . S
C462 C471 1.390 . S
C463 C462 1.387 . S
C463 C465 1.387 . S
H464 C471 0.950 . S
C465 C463 1.387 . S
C465 C467 1.390 . S
C465 H469 0.950 . S
H466 C462 0.950 . S
C467 C465 1.390 . S
C467 C468 1.387 . S
C467 H470 0.950 . S
C468 C467 1.387 . S
C468 C471 1.387 . S
H469 C465 0.950 . S
H470 C467 0.950 . S
C471 C462 1.390 . S
C471 H464 0.950 . S
C471 C468 1.387 . S
C472 C473 1.387 . S
C472 H476 0.950 . S
C472 C481 1.390 1_455 S
C473 C472 1.387 . S
C473 C475 1.387 . S
H474 C481 0.950 . S
C475 C473 1.387 . S
C475 C477 1.390 1_455 S
C475 H479 0.950 . S
H476 C472 0.950 . S
C477 C475 1.390 1_655 S
C477 C478 1.387 . S
C477 H480 0.950 . S
C478 C477 1.387 . S
C478 C481 1.387 . S
H479 C475 0.950 . S
H480 C477 0.950 . S
C481 C472 1.390 1_655 S
C481 H474 0.950 . S
C481 C478 1.387 . S
C482 C483 1.387 . S
C482 H486 0.950 . S
C482 C491 1.390 1_455 S
C483 C482 1.387 . S
C483 C485 1.387 . S
H484 C491 0.950 . S
C485 C483 1.387 . S
C485 C487 1.390 1_455 S
C485 H489 0.950 . S
H486 C482 0.950 . S
C487 C485 1.390 1_655 S
C487 C488 1.387 . S
C487 H490 0.950 . S
C488 C487 1.387 . S
C488 C491 1.387 . S
H489 C485 0.950 . S
H490 C487 0.950 . S
C491 C482 1.390 1_655 S
C491 H484 0.950 . S
C491 C488 1.387 . S
C492 C493 1.387 . S
C492 H496 0.950 . S
C492 C501 1.390 . S
C493 C492 1.387 . S
C493 C495 1.387 . S
H494 C501 0.950 . S
C495 C493 1.387 . S
C495 C497 1.390 . S
C495 H499 0.950 . S
H496 C492 0.950 . S
C497 C495 1.390 . S
C497 C498 1.387 . S
C497 H500 0.950 . S
C498 C497 1.387 . S
C498 C501 1.387 . S
H499 C495 0.950 . S
H500 C497 0.950 . S
C501 C492 1.390 . S
C501 H494 0.950 . S
C501 C498 1.387 . S
C502 C503 1.387 . S
C502 H506 0.950 . S
C502 C511 1.390 . S
C503 C502 1.387 . S
C503 C505 1.387 . S
H504 C511 0.950 . S
C505 C503 1.387 . S
C505 C507 1.390 . S
C505 H509 0.950 . S
H506 C502 0.950 . S
C507 C505 1.390 . S
C507 C508 1.387 . S
C507 H510 0.950 . S
C508 C507 1.387 . S
C508 C511 1.387 . S
H509 C505 0.950 . S
H510 C507 0.950 . S
C511 C502 1.390 . S
C511 H504 0.950 . S
C511 C508 1.387 . S
C233 C42 2.930 . S
C238 C13 2.930 . S
C243 C100 2.930 . S
C248 C71 2.930 . S
C253 C129 2.932 . S
C258 C158 2.932 . S
C263 C216 2.932 . S
C268 C187 2.932 . S
C273 C189 3.037 . S
C278 C15 3.037 . S
C283 C44 3.039 . S
C288 C218 3.039 . S
C293 C131 3.039 . S
C298 C73 3.039 . S
C303 C102 3.039 . S
C308 C160 3.039 . S
C313 C90 2.007 . S
C318 C10 1.904 1_556 S
C323 C61 2.008 . S
C328 C39 1.904 . S
C333 C32 2.008 . S
C338 C68 1.906 1_554 S
C343 C97 1.905 . S
C348 C3 2.008 . S
C353 C126 1.902 1_556 S
C358 C206 2.007 . S
C363 C177 2.007 . S
C368 C155 1.904 . S
C373 C148 2.008 . S
C378 C184 1.905 1_554 S
C383 C119 2.008 . S
C388 C213 1.905 . S
C393 C79 0.767 . S
C398 C21 0.767 . S
C403 C108 0.767 . S
C408 C50 0.767 . S
C413 C195 0.774 . S
C418 C137 0.774 . S
C423 C166 0.774 . S
C428 C224 0.774 . S
C433 C37 1.009 . S
C438 C8 1.009 . S
C443 C95 1.005 . S
C448 C66 1.005 . S
C453 C124 1.005 . S
C458 C153 1.005 . S
C463 C182 1.005 . S
C468 C211 1.009 . S
C473 C5 2.198 . S
C478 C34 2.198 . S
C483 C92 2.198 . S
C488 C63 2.198 . S
C493 C150 2.198 . S
C498 C121 2.198 . S
C503 C179 2.198 . S
C508 C208 2.198 . S
