# Generated by pormake.
# Topology snl, (6)-cn, num edge types: 1
# Building blocks:
#     Node 0, Type 0, BuildingBlock: MIFKUJ_clean_sbu_0, # of connection points: 6
#     Node 1, Type 0, BuildingBlock: MIFKUJ_clean_sbu_0, # of connection points: 6
#     Node 2, Type 0, BuildingBlock: MIFKUJ_clean_sbu_0, # of connection points: 6
#     Node 3, Type 0, BuildingBlock: MIFKUJ_clean_sbu_0, # of connection points: 6
#     Node 4, Type 0, BuildingBlock: MIFKUJ_clean_sbu_0, # of connection points: 6
#     Node 5, Type 0, BuildingBlock: MIFKUJ_clean_sbu_0, # of connection points: 6
#     Node 6, Type 0, BuildingBlock: MIFKUJ_clean_sbu_0, # of connection points: 6
#     Node 7, Type 0, BuildingBlock: MIFKUJ_clean_sbu_0, # of connection points: 6
#     Node 8, Type 0, BuildingBlock: MIFKUJ_clean_sbu_0, # of connection points: 6
#     Node 9, Type 0, BuildingBlock: MIFKUJ_clean_sbu_0, # of connection points: 6
#     Node 10, Type 0, BuildingBlock: MIFKUJ_clean_sbu_0, # of connection points: 6
#     Node 11, Type 0, BuildingBlock: MIFKUJ_clean_sbu_0, # of connection points: 6
#     Node 12, Type 0, BuildingBlock: MIFKUJ_clean_sbu_0, # of connection points: 6
#     Node 13, Type 0, BuildingBlock: MIFKUJ_clean_sbu_0, # of connection points: 6
#     Node 14, Type 0, BuildingBlock: MIFKUJ_clean_sbu_0, # of connection points: 6
#     Node 15, Type 0, BuildingBlock: MIFKUJ_clean_sbu_0, # of connection points: 6
#     Edge 16, Type (0, 0), BuildingBlock: CIFDUS_clean_linker_0, # of connection points: 2
#     Edge 17, Type (0, 0), BuildingBlock: CIFDUS_clean_linker_0, # of connection points: 2
#     Edge 18, Type (0, 0), BuildingBlock: CIFDUS_clean_linker_0, # of connection points: 2
#     Edge 19, Type (0, 0), BuildingBlock: CIFDUS_clean_linker_0, # of connection points: 2
#     Edge 20, Type (0, 0), BuildingBlock: CIFDUS_clean_linker_0, # of connection points: 2
#     Edge 21, Type (0, 0), BuildingBlock: CIFDUS_clean_linker_0, # of connection points: 2
#     Edge 22, Type (0, 0), BuildingBlock: CIFDUS_clean_linker_0, # of connection points: 2
#     Edge 23, Type (0, 0), BuildingBlock: CIFDUS_clean_linker_0, # of connection points: 2
#     Edge 24, Type (0, 0), BuildingBlock: CIFDUS_clean_linker_0, # of connection points: 2
#     Edge 25, Type (0, 0), BuildingBlock: CIFDUS_clean_linker_0, # of connection points: 2
#     Edge 26, Type (0, 0), BuildingBlock: CIFDUS_clean_linker_0, # of connection points: 2
#     Edge 27, Type (0, 0), BuildingBlock: CIFDUS_clean_linker_0, # of connection points: 2
#     Edge 28, Type (0, 0), BuildingBlock: CIFDUS_clean_linker_0, # of connection points: 2
#     Edge 29, Type (0, 0), BuildingBlock: CIFDUS_clean_linker_0, # of connection points: 2
#     Edge 30, Type (0, 0), BuildingBlock: CIFDUS_clean_linker_0, # of connection points: 2
#     Edge 31, Type (0, 0), BuildingBlock: CIFDUS_clean_linker_0, # of connection points: 2
#     Edge 32, Type (0, 0), BuildingBlock: CIFDUS_clean_linker_0, # of connection points: 2
#     Edge 33, Type (0, 0), BuildingBlock: CIFDUS_clean_linker_0, # of connection points: 2
#     Edge 34, Type (0, 0), BuildingBlock: CIFDUS_clean_linker_0, # of connection points: 2
#     Edge 35, Type (0, 0), BuildingBlock: CIFDUS_clean_linker_0, # of connection points: 2
#     Edge 36, Type (0, 0), BuildingBlock: CIFDUS_clean_linker_0, # of connection points: 2
#     Edge 37, Type (0, 0), BuildingBlock: CIFDUS_clean_linker_0, # of connection points: 2
#     Edge 38, Type (0, 0), BuildingBlock: CIFDUS_clean_linker_0, # of connection points: 2
#     Edge 39, Type (0, 0), BuildingBlock: CIFDUS_clean_linker_0, # of connection points: 2
#     Edge 40, Type (0, 0), BuildingBlock: CIFDUS_clean_linker_0, # of connection points: 2
#     Edge 41, Type (0, 0), BuildingBlock: CIFDUS_clean_linker_0, # of connection points: 2
#     Edge 42, Type (0, 0), BuildingBlock: CIFDUS_clean_linker_0, # of connection points: 2
#     Edge 43, Type (0, 0), BuildingBlock: CIFDUS_clean_linker_0, # of connection points: 2
#     Edge 44, Type (0, 0), BuildingBlock: CIFDUS_clean_linker_0, # of connection points: 2
#     Edge 45, Type (0, 0), BuildingBlock: CIFDUS_clean_linker_0, # of connection points: 2
#     Edge 46, Type (0, 0), BuildingBlock: CIFDUS_clean_linker_0, # of connection points: 2
#     Edge 47, Type (0, 0), BuildingBlock: CIFDUS_clean_linker_0, # of connection points: 2
#     Edge 48, Type (0, 0), BuildingBlock: CIFDUS_clean_linker_0, # of connection points: 2
#     Edge 49, Type (0, 0), BuildingBlock: CIFDUS_clean_linker_0, # of connection points: 2
#     Edge 50, Type (0, 0), BuildingBlock: CIFDUS_clean_linker_0, # of connection points: 2
#     Edge 51, Type (0, 0), BuildingBlock: CIFDUS_clean_linker_0, # of connection points: 2
#     Edge 52, Type (0, 0), BuildingBlock: CIFDUS_clean_linker_0, # of connection points: 2
#     Edge 53, Type (0, 0), BuildingBlock: CIFDUS_clean_linker_0, # of connection points: 2
#     Edge 54, Type (0, 0), BuildingBlock: CIFDUS_clean_linker_0, # of connection points: 2
#     Edge 55, Type (0, 0), BuildingBlock: CIFDUS_clean_linker_0, # of connection points: 2
#     Edge 56, Type (0, 0), BuildingBlock: CIFDUS_clean_linker_0, # of connection points: 2
#     Edge 57, Type (0, 0), BuildingBlock: CIFDUS_clean_linker_0, # of connection points: 2
#     Edge 58, Type (0, 0), BuildingBlock: CIFDUS_clean_linker_0, # of connection points: 2
#     Edge 59, Type (0, 0), BuildingBlock: CIFDUS_clean_linker_0, # of connection points: 2
#     Edge 60, Type (0, 0), BuildingBlock: CIFDUS_clean_linker_0, # of connection points: 2
#     Edge 61, Type (0, 0), BuildingBlock: CIFDUS_clean_linker_0, # of connection points: 2
#     Edge 62, Type (0, 0), BuildingBlock: CIFDUS_clean_linker_0, # of connection points: 2
#     Edge 63, Type (0, 0), BuildingBlock: CIFDUS_clean_linker_0, # of connection points: 2
# Relax obj value: 0.126
# Max RMSD: 0.182
# Mean RMSD: 0.163
data_MOF--net-snl--node1-MIFKUJ_clean_sbu_0--edge1-CIFDUS_clean_linker_0
_symmetry_space_group_name_H-M    P1
_symmetry_Int_Tables_number       1
_symmetry_cell_setting            triclinic
loop_
_symmetry_equiv_pos_as_xyz
'x, y, z'
_cell_length_a     53.327049
_cell_length_b     54.868529
_cell_length_c     16.774967
_cell_angle_alpha  88.966264
_cell_angle_beta   90.839078
_cell_angle_gamma 90.089692
loop_
_atom_site_label
_atom_site_type_symbol
_atom_site_fract_x
_atom_site_fract_y
_atom_site_fract_z
_atom_type_partial_charge
Zn0 Zn 0.13752 0.62216 0.25063 0.0
Zn1 Zn 0.11931 0.62821 0.04757 0.0
C2 C 0.18935 0.61214 0.28152 0.0
O3 O 0.18038 0.58993 0.28807 0.0
C4 C 0.06931 0.64739 0.02221 0.0
O5 O 0.08072 0.66178 0.97084 0.0
O6 O 0.1244 0.61639 0.35915 0.0
O7 O 0.12017 0.65286 0.21062 0.0
O8 O 0.13972 0.65492 0.09706 0.0
C9 C 0.13258 0.63043 0.41274 0.0
O10 O 0.14854 0.64778 0.39367 0.0
O11 O 0.17451 0.62965 0.26458 0.0
C12 C 0.11377 0.62111 0.88054 0.0
O13 O 0.09605 0.60576 0.90193 0.0
O14 O 0.12557 0.63298 0.93317 0.0
O15 O 0.12797 0.59328 0.06701 0.0
O16 O 0.13541 0.58971 0.19668 0.0
O17 O 0.08223 0.63243 0.06448 0.0
C18 C 0.13095 0.66545 0.15707 0.0
C19 C 0.13278 0.58034 0.12851 0.0
Zn20 Zn 0.61819 0.89188 0.45886 0.0
Zn21 Zn 0.61016 0.87121 0.26009 0.0
C22 C 0.63345 0.93817 0.53166 0.0
O23 O 0.64163 0.92426 0.59096 0.0
C24 C 0.61078 0.81892 0.25438 0.0
O25 O 0.59773 0.82382 0.18907 0.0
O26 O 0.62115 0.87663 0.56754 0.0
O27 O 0.58105 0.8888 0.42574 0.0
O28 O 0.57707 0.88083 0.29717 0.0
C29 C 0.60596 0.88325 0.62045 0.0
O30 O 0.58841 0.89918 0.60118 0.0
O31 O 0.62364 0.92844 0.47032 0.0
C32 C 0.62083 0.86615 0.09061 0.0
O33 O 0.6417 0.85514 0.11295 0.0
O34 O 0.60554 0.87312 0.14257 0.0
O35 O 0.63745 0.89509 0.28099 0.0
O36 O 0.64851 0.87963 0.3974 0.0
O37 O 0.61848 0.83647 0.29698 0.0
C38 C 0.56761 0.886 0.3633 0.0
C39 C 0.65449 0.88843 0.32973 0.0
Zn40 Zn 0.37383 0.38184 0.74022 0.0
Zn41 Zn 0.38386 0.37662 0.53674 0.0
C42 C 0.32318 0.39165 0.79058 0.0
O43 O 0.33541 0.40417 0.84469 0.0
C44 C 0.43677 0.37437 0.50778 0.0
O45 O 0.42791 0.36272 0.44574 0.0
O46 O 0.38292 0.38487 0.8591 0.0
O47 O 0.38643 0.34811 0.70674 0.0
O48 O 0.37293 0.34434 0.58174 0.0
C49 C 0.37922 0.36641 0.90468 0.0
O50 O 0.37137 0.34602 0.87275 0.0
O51 O 0.33552 0.38071 0.73742 0.0
C52 C 0.38267 0.3945 0.3726 0.0
O53 O 0.38719 0.41529 0.40779 0.0
O54 O 0.37978 0.37534 0.41555 0.0
O55 O 0.36293 0.40484 0.57018 0.0
O56 O 0.38398 0.41341 0.68049 0.0
O57 O 0.42147 0.382 0.55947 0.0
C58 C 0.37947 0.33492 0.64857 0.0
C59 C 0.3712 0.42028 0.61937 0.0
Zn60 Zn 0.87652 0.10908 0.01561 0.0
Zn61 Zn 0.87694 0.14945 0.79742 0.0
C62 C 0.85803 0.0631 0.06959 0.0
O63 O 0.84026 0.07746 0.09507 0.0
C64 C 0.89414 0.19887 0.78377 0.0
O65 O 0.91325 0.18788 0.75138 0.0
O66 O 0.87449 0.12251 0.12795 0.0
O67 O 0.90999 0.11787 0.96752 0.0
O68 O 0.90933 0.1378 0.85053 0.0
C69 C 0.89072 0.1146 0.17849 0.0
O70 O 0.90822 0.09977 0.15401 0.0
O71 O 0.87622 0.0725 0.0316 0.0
C72 C 0.86252 0.15074 0.62991 0.0
O73 O 0.84359 0.16317 0.65757 0.0
O74 O 0.87923 0.14277 0.67871 0.0
O75 O 0.84358 0.13636 0.8352 0.0
O76 O 0.84495 0.11655 0.95195 0.0
O77 O 0.87593 0.18604 0.80899 0.0
C78 C 0.9212 0.12749 0.90826 0.0
C79 C 0.83274 0.1251 0.89204 0.0
Zn80 Zn 0.13292 0.38864 0.00352 0.0
Zn81 Zn 0.12829 0.37062 0.81144 0.0
C82 C 0.13996 0.43839 0.0362 0.0
O83 O 0.15956 0.42852 0.07247 0.0
C84 C 0.1154 0.31974 0.81644 0.0
O85 O 0.1003 0.32687 0.75803 0.0
O86 O 0.13938 0.38161 0.11894 0.0
O87 O 0.10169 0.36975 0.97149 0.0
O88 O 0.09865 0.38833 0.85519 0.0
C89 C 0.12229 0.38009 0.17057 0.0
O90 O 0.09868 0.38184 0.14782 0.0
O91 O 0.12497 0.42467 0.99797 0.0
C92 C 0.13816 0.36903 0.64249 0.0
O93 O 0.16179 0.36916 0.66571 0.0
O94 O 0.12106 0.3696 0.69418 0.0
O95 O 0.16297 0.38463 0.82375 0.0
O96 O 0.16702 0.38417 0.95503 0.0
O97 O 0.12891 0.33553 0.8515 0.0
C98 C 0.08817 0.3782 0.91452 0.0
C99 C 0.17661 0.38559 0.88622 0.0
Zn100 Zn 0.85693 0.88224 0.27323 0.0
Zn101 Zn 0.90289 0.87357 0.07235 0.0
C102 C 0.80234 0.88843 0.25371 0.0
O103 O 0.80787 0.89941 0.18595 0.0
C104 C 0.95465 0.86836 0.02282 0.0
O105 O 0.94408 0.85754 0.96172 0.0
O106 O 0.87395 0.88693 0.37955 0.0
O107 O 0.86786 0.84969 0.23155 0.0
O108 O 0.89185 0.8425 0.12717 0.0
C109 C 0.86606 0.8743 0.43828 0.0
O110 O 0.84827 0.85814 0.42597 0.0
O111 O 0.81994 0.87984 0.29763 0.0
C112 C 0.8979 0.88509 0.90268 0.0
O113 O 0.91258 0.90365 0.91911 0.0
O114 O 0.8918 0.87025 0.95814 0.0
O115 O 0.88804 0.90507 0.10764 0.0
O116 O 0.86273 0.91286 0.20773 0.0
O117 O 0.94092 0.87622 0.07822 0.0
C118 C 0.87882 0.83506 0.1856 0.0
C119 C 0.87525 0.91989 0.14765 0.0
Zn120 Zn 0.37707 0.61208 0.46199 0.0
Zn121 Zn 0.38232 0.63114 0.26462 0.0
C122 C 0.36282 0.5613 0.49562 0.0
O123 O 0.34053 0.57047 0.5084 0.0
C124 C 0.38965 0.68174 0.31949 0.0
O125 O 0.41009 0.67289 0.35339 0.0
O126 O 0.36975 0.62104 0.57307 0.0
O127 O 0.41234 0.62421 0.43956 0.0
O128 O 0.41514 0.6206 0.30906 0.0
C129 C 0.38527 0.61534 0.62818 0.0
O130 O 0.40661 0.60505 0.60997 0.0
O131 O 0.38016 0.57523 0.47025 0.0
C132 C 0.37135 0.62951 0.09644 0.0
O133 O 0.34788 0.63135 0.11827 0.0
O134 O 0.38866 0.62935 0.14899 0.0
O135 O 0.35319 0.60877 0.28295 0.0
O136 O 0.34545 0.62298 0.40168 0.0
O137 O 0.37478 0.66735 0.28315 0.0
C138 C 0.42539 0.62179 0.37735 0.0
C139 C 0.33785 0.61357 0.33719 0.0
Zn140 Zn 0.6334 0.12019 0.75615 0.0
Zn141 Zn 0.62675 0.12605 0.56677 0.0
C142 C 0.68521 0.11213 0.80564 0.0
O143 O 0.67461 0.09768 0.85861 0.0
C144 C 0.57365 0.13951 0.56281 0.0
O145 O 0.5808 0.15471 0.5061 0.0
O146 O 0.62317 0.11696 0.87074 0.0
O147 O 0.61865 0.15227 0.7174 0.0
O148 O 0.64428 0.15446 0.61684 0.0
C149 C 0.63165 0.13142 0.92295 0.0
O150 O 0.64728 0.14878 0.90133 0.0
O151 O 0.67143 0.12332 0.75435 0.0
C152 C 0.61744 0.12108 0.39552 0.0
O153 O 0.6008 0.10461 0.41685 0.0
O154 O 0.62983 0.13221 0.4489 0.0
O155 O 0.64065 0.09265 0.5878 0.0
O156 O 0.62359 0.0882 0.70627 0.0
O157 O 0.58991 0.12578 0.59691 0.0
C158 C 0.63179 0.16502 0.66983 0.0
C159 C 0.63246 0.07902 0.64359 0.0
Zn160 Zn 0.89057 0.37761 0.96337 0.0
Zn161 Zn 0.86466 0.38544 0.74964 0.0
C162 C 0.94143 0.36063 0.99455 0.0
O163 O 0.93064 0.34965 0.05529 0.0
C164 C 0.81654 0.39662 0.69405 0.0
O165 O 0.83065 0.41403 0.66386 0.0
O166 O 0.88549 0.37695 0.08277 0.0
O167 O 0.88247 0.41159 0.92834 0.0
O168 O 0.87057 0.41815 0.80241 0.0
C169 C 0.89765 0.39161 0.12684 0.0
O170 O 0.91344 0.407 0.0936 0.0
O171 O 0.92788 0.37264 0.94464 0.0
C172 C 0.86569 0.37182 0.58826 0.0
O173 O 0.85181 0.3545 0.62013 0.0
O174 O 0.87501 0.388 0.6335 0.0
O175 O 0.88181 0.35451 0.79248 0.0
O176 O 0.86983 0.35024 0.91743 0.0
O177 O 0.82666 0.38097 0.74136 0.0
C178 C 0.87618 0.42597 0.87145 0.0
C179 C 0.87363 0.34129 0.84941 0.0
Zn180 Zn 0.38498 0.14214 0.7287 0.0
Zn181 Zn 0.37543 0.13078 0.5261 0.0
C182 C 0.3972 0.19184 0.73625 0.0
O183 O 0.41511 0.18129 0.77893 0.0
C184 C 0.36486 0.08171 0.48307 0.0
O185 O 0.34734 0.09366 0.44283 0.0
O186 O 0.38755 0.13965 0.85077 0.0
O187 O 0.35473 0.12205 0.69866 0.0
O188 O 0.34289 0.13909 0.58398 0.0
C189 C 0.3674 0.13948 0.89088 0.0
O190 O 0.34577 0.14039 0.85249 0.0
O191 O 0.38056 0.17841 0.70383 0.0
C192 C 0.39107 0.13909 0.36426 0.0
O193 O 0.41286 0.13497 0.39938 0.0
O194 O 0.3714 0.13906 0.40663 0.0
O195 O 0.40839 0.14689 0.56034 0.0
O196 O 0.41759 0.1317 0.68047 0.0
O197 O 0.37969 0.09368 0.52811 0.0
C198 C 0.33747 0.12902 0.65059 0.0
C199 C 0.42449 0.14028 0.61329 0.0
Zn200 Zn 0.62327 0.63307 0.41587 0.0
Zn201 Zn 0.63705 0.62625 0.19672 0.0
C202 C 0.57217 0.63202 0.46648 0.0
O203 O 0.58212 0.64378 0.52663 0.0
C204 C 0.69282 0.61731 0.22076 0.0
O205 O 0.68915 0.61021 0.29481 0.0
O206 O 0.63191 0.63378 0.5329 0.0
O207 O 0.64313 0.6056 0.36968 0.0
O208 O 0.62375 0.59687 0.25723 0.0
C209 C 0.62837 0.61454 0.5747 0.0
O210 O 0.6214 0.59447 0.5389 0.0
O211 O 0.5861 0.62545 0.40968 0.0
C212 C 0.63163 0.64271 0.03921 0.0
O213 O 0.6453 0.66009 0.07077 0.0
O214 O 0.62373 0.62551 0.08407 0.0
O215 O 0.63078 0.65986 0.23877 0.0
O216 O 0.62761 0.66688 0.36814 0.0
O217 O 0.67427 0.62376 0.17704 0.0
C218 C 0.63108 0.59062 0.32693 0.0
C219 C 0.62832 0.6745 0.2961 0.0
Zn220 Zn 0.14444 0.85691 0.21919 0.0
Zn221 Zn 0.14724 0.89574 0.99807 0.0
C222 C 0.13122 0.80752 0.25496 0.0
O223 O 0.11787 0.81857 0.30866 0.0
C224 C 0.15646 0.94932 0.99643 0.0
O225 O 0.17291 0.94535 0.05426 0.0
O226 O 0.14423 0.86401 0.33775 0.0
O227 O 0.17589 0.87101 0.17345 0.0
O228 O 0.18053 0.89108 0.05826 0.0
C229 C 0.15935 0.85339 0.38645 0.0
O230 O 0.17594 0.83815 0.35873 0.0
O231 O 0.14466 0.82026 0.20796 0.0
C232 C 0.13207 0.88828 0.83902 0.0
O233 O 0.11482 0.90325 0.86426 0.0
O234 O 0.14845 0.88023 0.8889 0.0
O235 O 0.11439 0.88719 0.05244 0.0
O236 O 0.11194 0.86861 0.17139 0.0
O237 O 0.1442 0.93153 0.96816 0.0
C238 C 0.1896 0.8821 0.1231 0.0
C239 C 0.1017 0.87872 0.11047 0.0
Zn240 Zn 0.87995 0.63847 0.19569 0.0
Zn241 Zn 0.87442 0.61574 0.98044 0.0
C242 C 0.87933 0.68984 0.20907 0.0
O243 O 0.89281 0.68329 0.27195 0.0
C244 C 0.85996 0.57046 0.90658 0.0
O245 O 0.84655 0.5854 0.86122 0.0
O246 O 0.88102 0.6358 0.31624 0.0
O247 O 0.85654 0.61272 0.15666 0.0
O248 O 0.8424 0.62469 0.03905 0.0
C249 C 0.86213 0.64132 0.35765 0.0
O250 O 0.84142 0.64857 0.32114 0.0
O251 O 0.87062 0.67338 0.16364 0.0
C252 C 0.89198 0.62591 0.82418 0.0
O253 O 0.91164 0.61478 0.85571 0.0
O254 O 0.87327 0.63003 0.86816 0.0
O255 O 0.90921 0.62283 0.02954 0.0
O256 O 0.91417 0.63263 0.15745 0.0
O257 O 0.87303 0.57913 0.96365 0.0
C258 C 0.83839 0.61915 0.11172 0.0
C259 C 0.92306 0.6279 0.08971 0.0
Zn260 Zn 0.12138 0.13563 0.96516 0.0
Zn261 Zn 0.13713 0.12898 0.75877 0.0
C262 C 0.0688 0.13941 0.98854 0.0
O263 O 0.07773 0.15327 0.04529 0.0
C264 C 0.19128 0.12114 0.75108 0.0
O265 O 0.18491 0.09835 0.76494 0.0
O266 O 0.12453 0.13824 0.08618 0.0
O267 O 0.14317 0.10722 0.94154 0.0
O268 O 0.13318 0.09622 0.81862 0.0
C269 C 0.12277 0.11878 0.12838 0.0
O270 O 0.11955 0.09791 0.09238 0.0
O271 O 0.08406 0.12945 0.94124 0.0
C272 C 0.12789 0.1435 0.59758 0.0
O273 O 0.13305 0.16452 0.6304 0.0
O274 O 0.12752 0.12439 0.64187 0.0
O275 O 0.11786 0.15918 0.79331 0.0
O276 O 0.13178 0.16732 0.91505 0.0
O277 O 0.17436 0.13752 0.75042 0.0
C278 C 0.14128 0.09105 0.88876 0.0
C279 C 0.12357 0.17443 0.84709 0.0
Zn280 Zn 0.62619 0.35712 0.70413 0.0
Zn281 Zn 0.62866 0.4033 0.49632 0.0
C282 C 0.61277 0.30768 0.73403 0.0
O283 O 0.59495 0.31862 0.77305 0.0
C284 C 0.64712 0.45113 0.45916 0.0
O285 O 0.66795 0.43855 0.4541 0.0
O286 O 0.62957 0.36865 0.81569 0.0
O287 O 0.65251 0.37334 0.64299 0.0
O288 O 0.66339 0.3967 0.54326 0.0
C289 C 0.63737 0.35656 0.87627 0.0
O290 O 0.64439 0.33379 0.86872 0.0
O291 O 0.62911 0.32061 0.69856 0.0
C292 C 0.62426 0.3987 0.32534 0.0
O293 O 0.61839 0.4219 0.32789 0.0
O294 O 0.6285 0.38692 0.38999 0.0
O295 O 0.59727 0.39168 0.55743 0.0
O296 O 0.59231 0.36773 0.66507 0.0
O297 O 0.62691 0.44006 0.47716 0.0
C298 C 0.66954 0.38379 0.6037 0.0
C299 C 0.5833 0.38109 0.6089 0.0
Zn300 Zn 0.38158 0.87384 0.22523 0.0
Zn301 Zn 0.37032 0.88905 0.41423 0.0
C302 C 0.36612 0.8232 0.21646 0.0
O303 O 0.35111 0.8326 0.16138 0.0
C304 C 0.3544 0.93923 0.39253 0.0
O305 O 0.33247 0.92848 0.38623 0.0
O306 O 0.38996 0.87623 0.10804 0.0
O307 O 0.3468 0.88815 0.23455 0.0
O308 O 0.33904 0.87669 0.35835 0.0
C309 C 0.37268 0.87765 0.05509 0.0
O310 O 0.34917 0.87748 0.07712 0.0
O311 O 0.38076 0.83737 0.25456 0.0
C312 C 0.38078 0.88785 0.58144 0.0
O313 O 0.40315 0.89456 0.55744 0.0
O314 O 0.36355 0.88416 0.53001 0.0
O315 O 0.4033 0.87198 0.39751 0.0
O316 O 0.41073 0.89001 0.28237 0.0
O317 O 0.37398 0.92615 0.40155 0.0
C318 C 0.33133 0.8822 0.2883 0.0
C319 C 0.41871 0.88088 0.34804 0.0
H320 H 0.08782 0.60595 0.7499 0.0
H321 H 0.15527 0.64362 0.82334 0.0
H322 H 0.16686 0.64986 0.68483 0.0
H323 H 0.15779 0.64509 0.54329 0.0
H324 H 0.09096 0.60702 0.46776 0.0
H325 H 0.07904 0.6006 0.60689 0.0
C326 C 0.10505 0.61547 0.73543 0.0
C327 C 0.12056 0.62443 0.79653 0.0
C328 C 0.11163 0.61906 0.65552 0.0
C329 C 0.14285 0.63675 0.77721 0.0
C330 C 0.14955 0.64031 0.69808 0.0
C331 C 0.14055 0.63551 0.55732 0.0
C332 C 0.12518 0.62666 0.4959 0.0
C333 C 0.13402 0.63169 0.63688 0.0
C334 C 0.10309 0.61394 0.51453 0.0
C335 C 0.09627 0.61029 0.59386 0.0
H336 H 0.63995 0.84405 0.96087 0.0
H337 H 0.58901 0.90059 0.03114 0.0
H338 H 0.5793 0.91026 0.89198 0.0
H339 H 0.58554 0.90315 0.75064 0.0
H340 H 0.63629 0.84675 0.6783 0.0
H341 H 0.64551 0.83631 0.81792 0.0
C342 C 0.62675 0.85847 0.94549 0.0
C343 C 0.61521 0.87154 0.00599 0.0
C344 C 0.62105 0.86385 0.86513 0.0
C345 C 0.59801 0.89011 0.98553 0.0
C346 C 0.59245 0.8957 0.90599 0.0
C347 C 0.59844 0.88841 0.76532 0.0
C348 C 0.61018 0.87573 0.70436 0.0
C349 C 0.60382 0.88268 0.84537 0.0
C350 C 0.62703 0.85683 0.72434 0.0
C351 C 0.63236 0.85087 0.80409 0.0
H352 H 0.38249 0.35398 0.28045 0.0
H353 H 0.38217 0.43257 0.26532 0.0
H354 H 0.38219 0.43104 0.1199 0.0
H355 H 0.38169 0.40733 0.99603 0.0
H356 H 0.38175 0.32875 0.01223 0.0
H357 H 0.38271 0.3304 0.15737 0.0
C358 C 0.38234 0.37079 0.2454 0.0
C359 C 0.38221 0.39334 0.28406 0.0
C360 C 0.38248 0.3698 0.16156 0.0
C361 C 0.38225 0.41492 0.2374 0.0
C362 C 0.38229 0.41408 0.15404 0.0
C363 C 0.38215 0.39058 0.03133 0.0
C364 C 0.38166 0.36795 0.99294 0.0
C365 C 0.3824 0.39162 0.11533 0.0
C366 C 0.38204 0.34643 0.03988 0.0
C367 C 0.38255 0.34733 0.12311 0.0
H368 H 0.89971 0.12714 0.55207 0.0
H369 H 0.8293 0.16436 0.51167 0.0
H370 H 0.83196 0.15714 0.36889 0.0
H371 H 0.85406 0.13981 0.25482 0.0
H372 H 0.92436 0.10244 0.29631 0.0
H373 H 0.92193 0.11025 0.43846 0.0
C374 C 0.88493 0.13369 0.51212 0.0
C375 C 0.86433 0.14626 0.54296 0.0
C376 C 0.88655 0.12949 0.4298 0.0
C377 C 0.8454 0.15462 0.48993 0.0
C378 C 0.84689 0.15051 0.40804 0.0
C379 C 0.86892 0.13351 0.29487 0.0
C380 C 0.88937 0.12058 0.26448 0.0
C381 C 0.86737 0.13794 0.37719 0.0
C382 C 0.90837 0.11244 0.31763 0.0
C383 C 0.90701 0.11687 0.39922 0.0
H384 H 0.09206 0.36821 0.29443 0.0
H385 H 0.16835 0.38757 0.23778 0.0
H386 H 0.18007 0.38538 0.37863 0.0
H387 H 0.16863 0.37859 0.51797 0.0
H388 H 0.09238 0.35946 0.57554 0.0
H389 H 0.08075 0.36073 0.43421 0.0
C390 C 0.11124 0.37189 0.31297 0.0
C391 C 0.12928 0.37797 0.25579 0.0
C392 C 0.11791 0.37058 0.39415 0.0
C393 C 0.15411 0.38264 0.2806 0.0
C394 C 0.16085 0.38146 0.36116 0.0
C395 C 0.1495 0.37456 0.49956 0.0
C396 C 0.1314 0.36901 0.557 0.0
C397 C 0.1429 0.37549 0.41841 0.0
C398 C 0.10665 0.36396 0.53235 0.0
C399 C 0.09997 0.36465 0.4516 0.0
H400 H 0.91592 0.90525 0.76533 0.0
H401 H 0.86003 0.85522 0.85507 0.0
H402 H 0.84554 0.84736 0.7195 0.0
H403 H 0.84871 0.85447 0.57589 0.0
H404 H 0.90462 0.90416 0.48446 0.0
H405 H 0.91925 0.91221 0.62028 0.0
C406 C 0.90052 0.8927 0.75515 0.0
C407 C 0.88907 0.88085 0.82019 0.0
C408 C 0.89238 0.88807 0.6768 0.0
C409 C 0.86925 0.8645 0.80605 0.0
C410 C 0.86093 0.85999 0.72853 0.0
C411 C 0.86418 0.86699 0.58547 0.0
C412 C 0.87556 0.87866 0.52008 0.0
C413 C 0.87241 0.87159 0.66351 0.0
C414 C 0.8955 0.89493 0.53377 0.0
C415 C 0.90386 0.89957 0.61143 0.0
H416 H 0.41678 0.61614 0.75584 0.0
H417 H 0.33865 0.62228 0.68776 0.0
H418 H 0.32731 0.62706 0.82704 0.0
H419 H 0.33962 0.62934 0.96816 0.0
H420 H 0.41797 0.62406 0.03524 0.0
H421 H 0.42914 0.61921 0.8963 0.0
C422 C 0.39729 0.61856 0.77158 0.0
C423 C 0.37861 0.61892 0.71191 0.0
C424 C 0.39092 0.62149 0.8515 0.0
C425 C 0.35342 0.62216 0.73282 0.0
C426 C 0.34689 0.62481 0.81239 0.0
C427 C 0.35913 0.62717 0.95235 0.0
C428 C 0.37788 0.62702 0.01193 0.0
C429 C 0.3655 0.62451 0.87222 0.0
C430 C 0.40311 0.62422 0.99051 0.0
C431 C 0.40957 0.62143 0.91106 0.0
H432 H 0.65484 0.15085 0.05214 0.0
H433 H 0.59346 0.10396 0.98366 0.0
H434 H 0.58317 0.09708 0.12371 0.0
H435 H 0.59229 0.10357 0.26589 0.0
H436 H 0.65418 0.15004 0.33359 0.0
H437 H 0.66358 0.15779 0.19372 0.0
C438 C 0.63912 0.13924 0.06781 0.0
C439 C 0.62496 0.12793 0.0076 0.0
C440 C 0.63346 0.13517 0.14841 0.0
C441 C 0.60475 0.11279 0.02894 0.0
C442 C 0.59884 0.10886 0.10901 0.0
C443 C 0.6078 0.11543 0.25007 0.0
C444 C 0.62249 0.12617 0.31028 0.0
C445 C 0.61319 0.1198 0.1693 0.0
C446 C 0.64249 0.14156 0.28859 0.0
C447 C 0.64793 0.146 0.20853 0.0
H448 H 0.86502 0.36398 0.21318 0.0
H449 H 0.92347 0.41793 0.23798 0.0
H450 H 0.91877 0.41679 0.38258 0.0
H451 H 0.89813 0.4003 0.50265 0.0
H452 H 0.83999 0.34607 0.4766 0.0
H453 H 0.84445 0.34764 0.33233 0.0
C454 C 0.87675 0.3755 0.25012 0.0
C455 C 0.89456 0.39101 0.21458 0.0
C456 C 0.874 0.37474 0.3333 0.0
C457 C 0.90955 0.40584 0.26357 0.0
C458 C 0.9069 0.4052 0.34641 0.0
C459 C 0.88646 0.38883 0.46537 0.0
C460 C 0.86888 0.373 0.50063 0.0
C461 C 0.88919 0.3897 0.38201 0.0
C462 C 0.85387 0.35826 0.45133 0.0
C463 C 0.85634 0.35917 0.36862 0.0
H464 H 0.35099 0.13129 0.26398 0.0
H465 H 0.42869 0.15329 0.26618 0.0
H466 H 0.42846 0.15535 0.12073 0.0
H467 H 0.40664 0.14967 0.99189 0.0
H468 H 0.329 0.12743 0.98943 0.0
H469 H 0.32889 0.12641 0.13492 0.0
C470 C 0.36778 0.13677 0.23258 0.0
C471 C 0.38982 0.14211 0.27608 0.0
C472 C 0.36766 0.13757 0.14847 0.0
C473 C 0.41148 0.14896 0.2343 0.0
C474 C 0.4114 0.15011 0.15097 0.0
C475 C 0.38973 0.14453 0.02321 0.0
C476 C 0.36791 0.13857 0.97955 0.0
C477 C 0.3897 0.14416 0.10728 0.0
C478 C 0.34608 0.13218 0.02131 0.0
C479 C 0.34597 0.13159 0.10471 0.0
H480 H 0.62347 0.6026 0.94943 0.0
H481 H 0.63442 0.68045 0.93289 0.0
H482 H 0.63467 0.67856 0.7876 0.0
H483 H 0.63332 0.65472 0.66576 0.0
H484 H 0.62335 0.5767 0.68147 0.0
H485 H 0.62151 0.5787 0.82663 0.0
C486 C 0.62555 0.61917 0.9139 0.0
C487 C 0.62883 0.64164 0.9517 0.0
C488 C 0.62627 0.61788 0.83039 0.0
C489 C 0.63187 0.66293 0.90506 0.0
C490 C 0.63212 0.66186 0.82204 0.0
C491 C 0.63089 0.63812 0.70086 0.0
C492 C 0.62864 0.61559 0.66277 0.0
C493 C 0.62972 0.6394 0.78416 0.0
C494 C 0.62525 0.59428 0.70925 0.0
C495 C 0.62409 0.59541 0.79229 0.0
H496 H 0.12732 0.88335 0.46309 0.0
H497 H 0.18712 0.83166 0.50633 0.0
H498 H 0.18371 0.83727 0.64988 0.0
H499 H 0.16393 0.85722 0.76386 0.0
H500 H 0.10391 0.90861 0.71886 0.0
H501 H 0.10729 0.90271 0.57606 0.0
C502 C 0.13965 0.87331 0.5038 0.0
C503 C 0.1575 0.85718 0.47365 0.0
C504 C 0.13754 0.87654 0.5864 0.0
C505 C 0.17326 0.8443 0.52761 0.0
C506 C 0.1713 0.84746 0.6099 0.0
C507 C 0.15151 0.86701 0.72282 0.0
C508 C 0.13364 0.88326 0.75249 0.0
C509 C 0.15352 0.86355 0.64009 0.0
C510 C 0.11774 0.89584 0.69818 0.0
C511 C 0.1197 0.89257 0.61619 0.0
H512 H 0.85057 0.63636 0.73229 0.0
H513 H 0.93059 0.62579 0.71984 0.0
H514 H 0.92849 0.62993 0.57487 0.0
H515 H 0.90382 0.63494 0.45114 0.0
H516 H 0.82373 0.64513 0.46268 0.0
H517 H 0.82598 0.64266 0.60817 0.0
C518 C 0.86758 0.63525 0.69793 0.0
C519 C 0.8907 0.63077 0.737 0.0
C520 C 0.86621 0.63733 0.61424 0.0
C521 C 0.91254 0.62916 0.6914 0.0
C522 C 0.91136 0.63148 0.60838 0.0
C523 C 0.88684 0.63662 0.48542 0.0
C524 C 0.86363 0.64009 0.44594 0.0
C525 C 0.88827 0.63523 0.5691 0.0
C526 C 0.84185 0.64244 0.49145 0.0
C527 C 0.84312 0.64103 0.57474 0.0
H528 H 0.13007 0.10343 0.50307 0.0
H529 H 0.11821 0.18123 0.49432 0.0
H530 H 0.11557 0.18058 0.34914 0.0
H531 H 0.1179 0.15822 0.22375 0.0
H532 H 0.12984 0.08045 0.23191 0.0
H533 H 0.13136 0.08086 0.37739 0.0
C534 C 0.12668 0.1202 0.46941 0.0
C535 C 0.12441 0.14234 0.50973 0.0
C536 C 0.12545 0.11977 0.38546 0.0
C537 C 0.12018 0.16392 0.46499 0.0
C538 C 0.11869 0.1636 0.38178 0.0
C539 C 0.1209 0.14138 0.25736 0.0
C540 C 0.12386 0.11937 0.2168 0.0
C541 C 0.1216 0.14169 0.34126 0.0
C542 C 0.12747 0.09767 0.26145 0.0
C543 C 0.12834 0.09787 0.3448 0.0
H544 H 0.62571 0.42069 0.17993 0.0
H545 H 0.63038 0.35012 0.29708 0.0
H546 H 0.63627 0.33081 0.16848 0.0
H547 H 0.63909 0.334 0.02218 0.0
H548 H 0.63415 0.40485 0.90676 0.0
H549 H 0.6297 0.42403 0.03555 0.0
C550 C 0.62792 0.40107 0.17745 0.0
C551 C 0.62743 0.38685 0.24783 0.0
C552 C 0.63142 0.39015 0.10366 0.0
C553 C 0.63062 0.36148 0.24361 0.0
C554 C 0.63403 0.35042 0.17016 0.0
C555 C 0.63727 0.35364 0.02541 0.0
C556 C 0.63679 0.36796 0.95511 0.0
C557 C 0.63439 0.36458 0.09974 0.0
C558 C 0.63435 0.39339 0.96004 0.0
C559 C 0.63178 0.4044 0.03362 0.0
H560 H 0.34015 0.8757 0.93019 0.0
H561 H 0.41886 0.88376 0.98787 0.0
H562 H 0.42837 0.88763 0.84601 0.0
H563 H 0.41414 0.88911 0.70572 0.0
H564 H 0.33536 0.88038 0.64975 0.0
H565 H 0.32612 0.87639 0.79116 0.0
C566 C 0.35941 0.87831 0.91191 0.0
C567 C 0.37875 0.87953 0.96953 0.0
C568 C 0.36474 0.88042 0.83058 0.0
C569 C 0.40361 0.88276 0.94468 0.0
C570 C 0.40906 0.885 0.8636 0.0
C571 C 0.39496 0.88634 0.72449 0.0
C572 C 0.37548 0.88509 0.66726 0.0
C573 C 0.38975 0.88393 0.80605 0.0
C574 C 0.35073 0.88136 0.69251 0.0
C575 C 0.3454 0.87911 0.7734 0.0
H576 H 0.11786 0.69336 0.28247 0.0
H577 H 0.14858 0.69793 0.04594 0.0
H578 H 0.15194 0.74212 0.05591 0.0
H579 H 0.14588 0.77963 0.1313 0.0
H580 H 0.11435 0.77507 0.36658 0.0
H581 H 0.11176 0.73079 0.35766 0.0
C582 C 0.12527 0.704 0.23304 0.0
C583 C 0.13296 0.69229 0.16362 0.0
C584 C 0.1271 0.72946 0.23898 0.0
C585 C 0.14258 0.70642 0.10025 0.0
C586 C 0.14451 0.73173 0.10582 0.0
C587 C 0.13855 0.76893 0.18072 0.0
C588 C 0.13031 0.78064 0.24943 0.0
C589 C 0.13683 0.74345 0.17488 0.0
C590 C 0.12069 0.76653 0.31277 0.0
C591 C 0.11922 0.74118 0.3078 0.0
H592 H 0.532 0.86218 0.44983 0.0
H593 H 0.54281 0.91946 0.27461 0.0
H594 H 0.49749 0.92371 0.25633 0.0
H595 H 0.455 0.90907 0.28236 0.0
H596 H 0.44351 0.85113 0.45522 0.0
H597 H 0.4887 0.84894 0.48162 0.0
C598 C 0.52427 0.87588 0.40908 0.0
C599 C 0.54049 0.89064 0.36399 0.0
C600 C 0.49812 0.87776 0.39728 0.0
C601 C 0.5305 0.90803 0.31006 0.0
C602 C 0.50465 0.91036 0.29927 0.0
C603 C 0.46238 0.89601 0.32597 0.0
C604 C 0.44595 0.88019 0.36628 0.0
C605 C 0.48831 0.89494 0.3411 0.0
C606 C 0.45577 0.86355 0.42335 0.0
C607 C 0.48162 0.86228 0.4385 0.0
H608 H 0.40918 0.30658 0.74571 0.0
H609 H 0.34897 0.30285 0.57195 0.0
H610 H 0.34847 0.2584 0.58471 0.0
H611 H 0.36571 0.22033 0.64354 0.0
H612 H 0.42745 0.2243 0.81222 0.0
H613 H 0.42689 0.26861 0.80252 0.0
C614 C 0.3959 0.29602 0.71091 0.0
C615 C 0.37916 0.308 0.65798 0.0
C616 C 0.39608 0.2704 0.71718 0.0
C617 C 0.3622 0.29405 0.61272 0.0
C618 C 0.36187 0.26862 0.62006 0.0
C619 C 0.37901 0.23089 0.67821 0.0
C620 C 0.39652 0.21888 0.72866 0.0
C621 C 0.37883 0.25654 0.67173 0.0
C622 C 0.41371 0.23294 0.77285 0.0
C623 C 0.41342 0.25837 0.76751 0.0
H624 H 0.95248 0.1269 0.03701 0.0
H625 H 0.95234 0.12931 0.77996 0.0
H626 H 0.99826 0.13118 0.78106 0.0
H627 H 0.03867 0.13383 0.85608 0.0
H628 H 0.0376 0.1351 0.11298 0.0
H629 H 0.99218 0.12998 0.11105 0.0
C630 C 0.9625 0.12762 0.98119 0.0
C631 C 0.94902 0.12783 0.90855 0.0
C632 C 0.98879 0.12942 0.98232 0.0
C633 C 0.96229 0.12917 0.83674 0.0
C634 C 0.98855 0.13021 0.83734 0.0
C635 C 0.02844 0.13271 0.91141 0.0
C636 C 0.04146 0.13472 0.98457 0.0
C637 C 1.00205 0.13056 0.90984 0.0
C638 C 0.02798 0.13365 0.05592 0.0
C639 C 1.00199 0.13071 0.05492 0.0
H640 H 0.09752 0.28166 0.73172 0.0
H641 H 0.13953 0.29873 0.94545 0.0
H642 H 0.14528 0.25524 0.9747 0.0
H643 H 0.13917 0.21244 0.93782 0.0
H644 H 0.09834 0.19574 0.72129 0.0
H645 H 0.09143 0.23907 0.69492 0.0
C646 C 0.1078 0.27591 0.78505 0.0
C647 C 0.11802 0.29345 0.83643 0.0
C648 C 0.11136 0.25094 0.8008 0.0
C649 C 0.13147 0.28562 0.90487 0.0
C650 C 0.13479 0.26076 0.9216 0.0
C651 C 0.12868 0.21825 0.88499 0.0
C652 C 0.11929 0.20079 0.8317 0.0
C653 C 0.12495 0.24326 0.8697 0.0
C654 C 0.10587 0.20872 0.76326 0.0
C655 C 0.10185 0.23352 0.74815 0.0
H656 H 0.07177 0.87693 0.97827 0.0
H657 H 0.06959 0.88211 0.23431 0.0
H658 H 0.02378 0.88077 0.22975 0.0
H659 H 0.98433 0.87618 0.15347 0.0
H660 H 0.98679 0.86779 0.89847 0.0
H661 H 0.03235 0.87229 0.90208 0.0
C662 C 0.06122 0.87805 0.03288 0.0
C663 C 0.074 0.87972 0.10644 0.0
C664 C 0.0349 0.87648 0.03006 0.0
C665 C 0.06014 0.88077 0.17694 0.0
C666 C 0.03395 0.87999 0.1744 0.0
C667 C 0.99484 0.87548 0.0987 0.0
C668 C 0.9822 0.87163 0.02587 0.0
C669 C 0.02113 0.87752 0.1014 0.0
C670 C 0.9961 0.87057 0.95543 0.0
C671 C 0.02215 0.87321 0.95737 0.0
H672 H 0.35863 0.70797 0.21927 0.0
H673 H 0.41256 0.716 0.41126 0.0
H674 H 0.40967 0.7603 0.39836 0.0
H675 H 0.39329 0.797 0.32846 0.0
H676 H 0.33997 0.78873 0.13466 0.0
H677 H 0.34131 0.74459 0.15221 0.0
C678 C 0.36951 0.7194 0.25897 0.0
C679 C 0.38578 0.70858 0.31617 0.0
C680 C 0.36808 0.74496 0.25043 0.0
C681 C 0.39992 0.72376 0.36653 0.0
C682 C 0.39833 0.74916 0.35911 0.0
C683 C 0.38186 0.78555 0.29035 0.0
C684 C 0.36656 0.79632 0.23036 0.0
C685 C 0.38273 0.76 0.30055 0.0
C686 C 0.3519 0.78109 0.18153 0.0
C687 C 0.35264 0.75575 0.19143 0.0
H688 H 0.53367 0.16036 0.48588 0.0
H689 H 0.55335 0.11508 0.69026 0.0
H690 H 0.50913 0.11196 0.7257 0.0
H691 H 0.46465 0.12139 0.69695 0.0
H692 H 0.44537 0.16593 0.49023 0.0
H693 H 0.48954 0.16998 0.45775 0.0
C694 C 0.52834 0.14988 0.5384 0.0
C695 C 0.54686 0.13798 0.58526 0.0
C696 C 0.50287 0.14795 0.55801 0.0
C697 C 0.53951 0.12438 0.65289 0.0
C698 C 0.51421 0.1226 0.67329 0.0
C699 C 0.47012 0.13209 0.64504 0.0
C700 C 0.4516 0.14325 0.5961 0.0
C701 C 0.49568 0.13421 0.62606 0.0
C702 C 0.4591 0.15696 0.52882 0.0
C703 C 0.48442 0.15935 0.51014 0.0
H704 H 0.85889 0.22714 0.85366 0.0
H705 H 0.92872 0.23124 0.72699 0.0
H706 H 0.92807 0.2756 0.73367 0.0
H707 H 0.90768 0.3134 0.77513 0.0
H708 H 0.83933 0.30942 0.90871 0.0
H709 H 0.83916 0.26491 0.89879 0.0
C710 C 0.87396 0.23773 0.82744 0.0
C711 C 0.89374 0.22582 0.78943 0.0
C712 C 0.87363 0.26329 0.83224 0.0
C713 C 0.9132 0.23987 0.75632 0.0
C714 C 0.91285 0.26528 0.76001 0.0
C715 C 0.8927 0.30274 0.8016 0.0
C716 C 0.87344 0.31454 0.84206 0.0
C717 C 0.89313 0.27719 0.79753 0.0
C718 C 0.85435 0.30061 0.87737 0.0
C719 C 0.85426 0.27521 0.87169 0.0
H720 H 0.61326 0.78092 0.15541 0.0
H721 H 0.6205 0.79931 0.40344 0.0
H722 H 0.62677 0.75614 0.43915 0.0
H723 H 0.62894 0.71291 0.39922 0.0
H724 H 0.62248 0.69579 0.14931 0.0
H725 H 0.61742 0.73867 0.11526 0.0
C726 C 0.61625 0.77551 0.21734 0.0
C727 C 0.61622 0.79322 0.27674 0.0
C728 C 0.62004 0.75084 0.23712 0.0
C729 C 0.6205 0.78598 0.35658 0.0
C730 C 0.62398 0.76131 0.37699 0.0
C731 C 0.62649 0.71857 0.33734 0.0
C732 C 0.62609 0.70097 0.27708 0.0
C733 C 0.6236 0.74351 0.31772 0.0
C734 C 0.62302 0.70876 0.19713 0.0
C735 C 0.62001 0.73336 0.1774 0.0
H736 H 0.87962 0.72652 0.31399 0.0
H737 H 0.87134 0.71206 0.06316 0.0
H738 H 0.8704 0.75598 0.03328 0.0
H739 H 0.87425 0.79857 0.07874 0.0
H740 H 0.87959 0.81246 0.33065 0.0
H741 H 0.87951 0.76865 0.36005 0.0
C742 C 0.87744 0.73298 0.25278 0.0
C743 C 0.87581 0.71611 0.19077 0.0
C744 C 0.8766 0.75813 0.23636 0.0
C745 C 0.87261 0.72471 0.1119 0.0
C746 C 0.87222 0.7498 0.09481 0.0
C747 C 0.87529 0.79191 0.13999 0.0
C748 C 0.87718 0.80861 0.20251 0.0
C749 C 0.87459 0.76668 0.15651 0.0
C750 C 0.87811 0.7999 0.28168 0.0
C751 C 0.87812 0.77488 0.29846 0.0
H752 H 0.60265 0.1933 0.76208 0.0
H753 H 0.66092 0.19726 0.58632 0.0
H754 H 0.66057 0.2417 0.59168 0.0
H755 H 0.64333 0.2795 0.64514 0.0
H756 H 0.58438 0.27532 0.81861 0.0
H757 H 0.58545 0.23093 0.81519 0.0
C758 C 0.61533 0.20385 0.72506 0.0
C759 C 0.63178 0.19194 0.67394 0.0
C760 C 0.6149 0.2294 0.7279 0.0
C761 C 0.64802 0.20594 0.62616 0.0
C762 C 0.64785 0.23138 0.62918 0.0
C763 C 0.63076 0.26888 0.68234 0.0
C764 C 0.6138 0.28075 0.73203 0.0
C765 C 0.63131 0.2433 0.67966 0.0
C766 C 0.59758 0.26669 0.77962 0.0
C767 C 0.59818 0.24128 0.7778 0.0
H768 H 0.97002 0.37768 0.87156 0.0
H769 H 0.9754 0.34466 0.10671 0.0
H770 H 0.02101 0.34714 0.10285 0.0
H771 H 0.05951 0.35929 0.03407 0.0
H772 H 0.05432 0.39202 0.79844 0.0
H773 H 0.00869 0.38893 0.80123 0.0
C774 C 0.98117 0.37091 0.92178 0.0
C775 C 0.96921 0.36097 0.98922 0.0
C776 C 0.00751 0.37237 0.91927 0.0
C777 C 0.98402 0.35227 0.05374 0.0
C778 C 0.01016 0.35375 0.05178 0.0
C779 C 0.04842 0.36572 0.98323 0.0
C780 C 0.06042 0.37598 0.91636 0.0
C781 C 0.02212 0.36386 0.98505 0.0
C782 C 0.04566 0.38416 0.85098 0.0
C783 C 0.01951 0.38238 0.85241 0.0
H784 H 0.45532 0.62337 0.51088 0.0
H785 H 0.45795 0.62055 0.25385 0.0
H786 H 0.50346 0.62178 0.25914 0.0
H787 H 0.54271 0.62523 0.33568 0.0
H788 H 0.54049 0.62961 0.59192 0.0
H789 H 0.49482 0.62582 0.58793 0.0
C790 C 0.46585 0.62297 0.45609 0.0
C791 C 0.45313 0.62197 0.38225 0.0
C792 C 0.49218 0.62386 0.45925 0.0
C793 C 0.46714 0.62136 0.31175 0.0
C794 C 0.49325 0.62205 0.31452 0.0
C795 C 0.53222 0.6251 0.39063 0.0
C796 C 0.54487 0.62779 0.46384 0.0
C797 C 0.50597 0.62347 0.38781 0.0
C798 C 0.53108 0.62778 0.53465 0.0
C799 C 0.50499 0.62562 0.53247 0.0
H800 H 0.46537 0.38044 0.64316 0.0
H801 H 0.4698 0.37751 0.38697 0.0
H802 H 0.51527 0.38175 0.39475 0.0
H803 H 0.55428 0.38375 0.47438 0.0
H804 H 0.55042 0.38303 0.73085 0.0
H805 H 0.50459 0.38305 0.72313 0.0
C806 C 0.47631 0.38101 0.58916 0.0
C807 C 0.46419 0.37864 0.51467 0.0
C808 C 0.50268 0.38276 0.5941 0.0
C809 C 0.47866 0.37914 0.44517 0.0
C810 C 0.5047 0.38161 0.44947 0.0
C811 C 0.54335 0.38396 0.52842 0.0
C812 C 0.55568 0.38349 0.60297 0.0
C813 C 0.51699 0.38308 0.52359 0.0
C814 C 0.54132 0.38334 0.67267 0.0
C815 C 0.51511 0.38333 0.66833 0.0
H816 H 0.04027 0.62017 0.12153 0.0
H817 H 0.03595 0.67327 0.92876 0.0
H818 H 0.99022 0.67066 0.92857 0.0
H819 H 0.95121 0.65331 0.98386 0.0
H820 H 0.95584 0.60226 0.18168 0.0
H821 H 1.00168 0.60359 0.17817 0.0
C822 C 0.02936 0.63124 0.07957 0.0
C823 C 0.04157 0.64686 0.02521 0.0
C824 C 1.0031 0.62976 0.08003 0.0
C825 C 0.02707 0.66111 0.9714 0.0
C826 C 1.0009 0.65956 0.97097 0.0
C827 C 0.96239 0.64234 0.02541 0.0
C828 C 0.95044 0.62753 0.08241 0.0
C829 C 0.9887 0.64388 0.02479 0.0
C830 C 0.96486 0.6137 0.13719 0.0
C831 C 0.99098 0.61453 0.13537 0.0
H832 H 0.1069 0.54925 0.03344 0.0
H833 H 0.1679 0.55248 0.20445 0.0
H834 H 0.1759 0.50911 0.18895 0.0
H835 H 0.1656 0.47034 0.12751 0.0
H836 H 0.10319 0.46583 0.96169 0.0
H837 H 0.0955 0.50955 0.97495 0.0
C838 C 0.12189 0.54035 0.06722 0.0
C839 C 0.1368 0.55396 0.1201 0.0
C840 C 0.12607 0.51522 0.05911 0.0
C841 C 0.15603 0.54231 0.16413 0.0
C842 C 0.16069 0.51754 0.155 0.0
C843 C 0.15034 0.47887 0.09395 0.0
C844 C 0.13514 0.46485 0.04313 0.0
C845 C 0.14582 0.50382 0.10277 0.0
C846 C 0.11528 0.47622 0.00085 0.0
C847 C 0.11087 0.50121 0.00845 0.0
H848 H 0.69645 0.87397 0.41385 0.0
H849 H 0.67228 0.90646 0.18923 0.0
H850 H 0.71556 0.90928 0.14634 0.0
H851 H 0.76034 0.90266 0.17168 0.0
H852 H 0.78498 0.86979 0.39499 0.0
H853 H 0.74159 0.86699 0.43883 0.0
C854 C 0.70066 0.88168 0.35558 0.0
C855 C 0.68105 0.89003 0.30512 0.0
C856 C 0.72573 0.88318 0.33076 0.0
C857 C 0.68691 0.89992 0.22961 0.0
C858 C 0.71171 0.90154 0.20481 0.0
C859 C 0.75626 0.89486 0.22994 0.0
C860 C 0.77594 0.88647 0.2798 0.0
C861 C 0.73127 0.89325 0.2548 0.0
C862 C 0.77023 0.87638 0.35515 0.0
C863 C 0.74539 0.87479 0.38041 0.0
H864 H 0.40367 0.45865 0.61839 0.0
H865 H 0.32608 0.4395 0.58048 0.0
H866 H 0.31639 0.48148 0.5396 0.0
H867 H 0.33019 0.52342 0.51048 0.0
H868 H 0.40842 0.54202 0.5374 0.0
H869 H 0.41771 0.50067 0.58582 0.0
C870 C 0.38462 0.46388 0.60237 0.0
C871 C 0.36551 0.44624 0.60357 0.0
C872 C 0.37937 0.48789 0.5758 0.0
C873 C 0.341 0.45293 0.58064 0.0
C874 C 0.33548 0.47687 0.55691 0.0
C875 C 0.34927 0.51839 0.52676 0.0
C876 C 0.36856 0.53576 0.52008 0.0
C877 C 0.35456 0.49445 0.55338 0.0
C878 C 0.39324 0.52892 0.54109 0.0
C879 C 0.39856 0.50531 0.56935 0.0
H880 H 0.80039 0.13725 0.76948 0.0
H881 H 0.80279 0.10429 0.00534 0.0
H882 H 0.75774 0.09719 0.99862 0.0
H883 H 0.7176 0.10007 0.92625 0.0
H884 H 0.71461 0.13358 0.69161 0.0
H885 H 0.75992 0.14059 0.69744 0.0
C886 C 0.79109 0.12854 0.81953 0.0
C887 C 0.80514 0.12126 0.88773 0.0
C888 C 0.76504 0.1245 0.81545 0.0
C889 C 0.79263 0.11001 0.95189 0.0
C890 C 0.76679 0.10593 0.94819 0.0
C891 C 0.72684 0.10882 0.87616 0.0
C892 C 0.71271 0.11619 0.80845 0.0
C893 C 0.75282 0.11301 0.88023 0.0
C894 C 0.72501 0.12774 0.7445 0.0
C895 C 0.75093 0.13175 0.74779 0.0
H896 H 0.88204 0.53399 0.99463 0.0
H897 H 0.8393 0.54757 0.77796 0.0
H898 H 0.84098 0.50435 0.74653 0.0
H899 H 0.85455 0.46245 0.78064 0.0
H900 H 0.89651 0.44916 -0.00075 0.0
H901 H 0.89516 0.49232 0.02931 0.0
C902 C 0.87307 0.52752 0.94055 0.0
C903 C 0.86058 0.54407 0.88888 0.0
C904 C 0.874 0.50259 0.92289 0.0
C905 C 0.849 0.53528 0.81911 0.0
C906 C 0.84999 0.51053 0.80087 0.0
C907 C 0.8635 0.46902 0.83461 0.0
C908 C 0.87565 0.45249 0.88734 0.0
C909 C 0.86247 0.49399 0.85227 0.0
C910 C 0.88695 0.46136 0.95746 0.0
C911 C 0.88623 0.48611 0.97487 0.0
H912 H 0.2333 0.09568 0.7899 0.0
H913 H 0.20786 0.1597 0.65997 0.0
H914 H 0.25054 0.16725 0.61315 0.0
H915 H 0.29539 0.15524 0.6082 0.0
H916 H 0.32045 0.09245 0.74581 0.0
H917 H 0.27781 0.08482 0.78999 0.0
C918 C 0.23712 0.11136 0.75164 0.0
C919 C 0.21743 0.12707 0.72844 0.0
C920 C 0.2617 0.11572 0.72575 0.0
C921 C 0.22272 0.14742 0.67931 0.0
C922 C 0.24711 0.15165 0.65204 0.0
C923 C 0.2914 0.13979 0.64726 0.0
C924 C 0.31106 0.12429 0.67292 0.0
C925 C 0.26677 0.13583 0.67445 0.0
C926 C 0.30569 0.10462 0.72486 0.0
C927 C 0.28129 0.10024 0.75036 0.0
H928 H 0.66835 0.56257 0.38833 0.0
H929 H 0.5902 0.56112 0.32006 0.0
H930 H 0.58756 0.51794 0.35999 0.0
H931 H 0.60807 0.48025 0.41073 0.0
H932 H 0.68728 0.48139 0.46699 0.0
H933 H 0.68903 0.52488 0.43489 0.0
C934 C 0.65074 0.55275 0.38276 0.0
C935 C 0.62945 0.56483 0.35199 0.0
C936 C 0.64963 0.52786 0.40324 0.0
C937 C 0.60681 0.552 0.34357 0.0
C938 C 0.60531 0.52739 0.36644 0.0
C939 C 0.62563 0.49011 0.41657 0.0
C940 C 0.64746 0.47766 0.44186 0.0
C941 C 0.62666 0.51507 0.39589 0.0
C942 C 0.6702 0.49055 0.4478 0.0
C943 C 0.67123 0.51544 0.42952 0.0
H944 H 0.30755 0.89426 0.1472 0.0
H945 H 0.29338 0.8694 0.38818 0.0
H946 H 0.2486 0.86758 0.35835 0.0
H947 H 0.21353 0.87216 0.26402 0.0
H948 H 0.2271 0.89707 0.02283 0.0
H949 H 0.27206 0.89959 0.05272 0.0
C950 C 0.29472 0.88837 0.19319 0.0
C951 C 0.304 0.88178 0.26972 0.0
C952 C 0.26885 0.88729 0.17563 0.0
C953 C 0.28692 0.87448 0.32867 0.0
C954 C 0.26124 0.87341 0.3117 0.0
C955 C 0.22626 0.87814 0.21773 0.0
C956 C 0.21687 0.8843 0.14108 0.0
C957 C 0.25203 0.87962 0.23533 0.0
C958 C 0.23374 0.89222 0.08234 0.0
C959 C 0.25948 0.89364 0.09937 0.0
H960 H 0.63247 0.96408 0.66724 0.0
H961 H 0.63575 0.97231 0.41146 0.0
H962 H 0.63661 0.01673 0.42349 0.0
H963 H 0.63585 0.0532 0.507 0.0
H964 H 0.62984 0.04464 0.76232 0.0
H965 H 0.6305 1.00038 0.75018 0.0
C966 C 0.63353 0.97561 0.61418 0.0
C967 C 0.63425 0.96498 0.53862 0.0
C968 C 0.63341 1.00106 0.62149 0.0
C969 C 0.63517 0.98011 0.47027 0.0
C970 C 0.63569 0.00548 0.47714 0.0
C971 C 0.63481 0.04164 0.55998 0.0
C972 C 0.63295 0.05221 0.6355 0.0
C973 C 0.63474 0.01616 0.55247 0.0
C974 C 0.63126 0.03698 0.70349 0.0
C975 C 0.63169 0.01166 0.69664 0.0
H976 H 0.20561 0.3782 0.75576 0.0
H977 H 0.20977 0.39931 0.00234 0.0
H978 H 0.25517 0.40348 0.99366 0.0
H979 H 0.29379 0.40074 0.91706 0.0
H980 H 0.29034 0.37801 0.67229 0.0
H981 H 0.24459 0.37492 0.67925 0.0
C982 C 0.21643 0.38383 0.80747 0.0
C983 C 0.2042 0.38849 0.87951 0.0
C984 C 0.24268 0.38587 0.80247 0.0
C985 C 0.21861 0.39554 0.94615 0.0
C986 C 0.24462 0.39797 0.94127 0.0
C987 C 0.28305 0.39521 0.86503 0.0
C988 C 0.29547 0.38971 0.79411 0.0
C989 C 0.25685 0.39312 0.86987 0.0
C990 C 0.28126 0.38229 0.72764 0.0
C991 C 0.25509 0.38056 0.73157 0.0
H992 H 0.84109 0.95432 0.18639 0.0
H993 H 0.90915 0.9441 0.05499 0.0
H994 H 0.90975 0.98738 0.0185 0.0
H995 H 0.89136 0.02832 0.02578 0.0
H996 H 0.82273 0.03824 0.15463 0.0
H997 H 0.8219 0.99492 0.18962 0.0
C998 C 0.85606 0.96157 0.14981 0.0
C999 C 0.8751 0.94601 0.12383 0.0
C1000 C 0.85619 0.98643 0.12838 0.0
C1001 C 0.89421 0.95565 0.07565 0.0
C1002 C 0.89461 0.98042 0.05487 0.0
C1003 C 0.87618 0.02101 0.06134 0.0
C1004 C 0.85723 0.03659 0.08787 0.0
C1005 C 0.87575 0.99601 0.08112 0.0
C1006 C 0.83764 0.02673 0.13359 0.0
C1007 C 0.83714 1.00193 0.15376 0.0
H1008 H 0.22753 0.58212 0.24731 0.0
H1009 H 0.21128 0.65201 0.34777 0.0
H1010 H 0.25593 0.65817 0.37795 0.0
H1011 H 0.29964 0.64339 0.37606 0.0
H1012 H 0.31599 0.5753 0.26371 0.0
H1013 H 0.27125 0.56857 0.23794 0.0
C1014 C 0.23383 0.5987 0.27571 0.0
C1015 C 0.21629 0.61654 0.29578 0.0
C1016 C 0.25949 0.60234 0.29089 0.0
C1017 C 0.22457 0.6381 0.33154 0.0
C1018 C 0.25004 0.64156 0.34908 0.0
C1019 C 0.29329 0.62707 0.34629 0.0
C1020 C 0.31088 0.60971 0.32249 0.0
C1021 C 0.26765 0.62376 0.32925 0.0
C1022 C 0.30266 0.58884 0.28258 0.0
C1023 C 0.27714 0.585 0.26791 0.0
H1024 H 0.38734 0.96798 0.47582 0.0
H1025 H 0.32336 0.97099 0.31562 0.0
H1026 H 0.32149 0.01518 0.328 0.0
H1027 H 0.33644 0.05263 0.3889 0.0
H1028 H 0.39926 0.05042 0.5539 0.0
H1029 H 0.40304 0.00635 0.53572 0.0
C1030 C 0.37325 0.97841 0.44285 0.0
C1031 C 0.35554 0.96622 0.39461 0.0
C1032 C 0.37183 1.00391 0.45202 0.0
C1033 C 0.33715 0.97992 0.35319 0.0
C1034 C 0.33603 0.00519 0.36041 0.0
C1035 C 0.35101 0.0426 0.42104 0.0
C1036 C 0.36746 0.05492 0.47305 0.0
C1037 C 0.35298 0.01733 0.41062 0.0
C1038 C 0.38626 0.04147 0.51375 0.0
C1039 C 0.38846 0.01624 0.50321 0.0
H1040 H 0.79431 0.63058 0.03421 0.0
H1041 H 0.8243 0.6037 0.25961 0.0
H1042 H 0.78223 0.60062 0.3127 0.0
H1043 H 0.73682 0.60552 0.29615 0.0
H1044 H 0.70645 0.63211 0.07103 0.0
H1045 H 0.7486 0.63513 0.01721 0.0
C1046 C 0.79164 0.62406 0.09491 0.0
C1047 C 0.81253 0.61754 0.14274 0.0
C1048 C 0.76725 0.62218 0.12536 0.0
C1049 C 0.80865 0.60904 0.22133 0.0
C1050 C 0.78454 0.60719 0.25192 0.0
C1051 C 0.73939 0.61195 0.23529 0.0
C1052 C 0.71846 0.61859 0.18798 0.0
C1053 C 0.7637 0.61371 0.20457 0.0
C1054 C 0.7222 0.62686 0.10906 0.0
C1055 C 0.74633 0.62863 0.07809 0.0
H1056 H 0.12637 0.04833 0.82026 0.0
H1057 H 0.17192 0.0771 0.01161 0.0
H1058 H 0.18116 0.03604 0.06026 0.0
H1059 H 0.17503 0.99197 0.05273 0.0
H1060 H 0.12844 0.96268 0.8649 0.0
H1061 H 0.12096 1.00371 0.81106 0.0
C1062 C 0.13854 0.04555 0.87197 0.0
C1063 C 0.14836 0.06579 0.91218 0.0
C1064 C 0.14347 0.02175 0.9009 0.0
C1065 C 0.16396 0.06188 0.97963 0.0
C1066 C 0.16927 0.03837 0.00771 0.0
C1067 C 0.1633 0.99452 -0.00013 0.0
C1068 C 0.15226 0.97425 0.96328 0.0
C1069 C 0.15888 0.01818 0.96954 0.0
C1070 C 0.13708 0.97796 0.89474 0.0
C1071 C 0.13282 1.00144 0.86368 0.0
H1072 H 0.71021 0.40133 0.52644 0.0
H1073 H 0.68866 0.36276 0.74123 0.0
H1074 H 0.73239 0.36223 0.78762 0.0
H1075 H 0.77692 0.37424 0.76896 0.0
H1076 H 0.79715 0.4138 0.55458 0.0
H1077 H 0.75399 0.41216 0.50626 0.0
C1078 C 0.71503 0.39271 0.58333 0.0
C1079 C 0.69614 0.38221 0.63032 0.0
C1080 C 0.7401 0.39266 0.6099 0.0
C1081 C 0.70283 0.371 0.70371 0.0
C1082 C 0.72785 0.37072 0.73041 0.0
C1083 C 0.77181 0.38239 0.71164 0.0
C1084 C 0.79019 0.39438 0.66595 0.0
C1085 C 0.74667 0.38171 0.68432 0.0
C1086 C 0.78333 0.40482 0.59164 0.0
C1087 C 0.75864 0.40384 0.56368 0.0
loop_
_geom_bond_atom_site_label_1
_geom_bond_atom_site_label_2
_geom_bond_distance
_geom_bond_site_symmetry_2
_ccdc_geom_bond_type
Zn0 O6 1.969 . S
Zn0 O7 1.965 . S
Zn0 O11 2.024 . S
Zn0 O16 1.969 . S
Zn1 O8 1.969 . S
Zn1 O14 1.969 1_554 S
Zn1 O15 1.965 . S
Zn1 O17 2.024 . S
C2 O3 1.229 . S
C2 O11 1.058 . S
O3 C2 1.229 . S
C4 O5 1.229 . S
C4 O17 1.058 . S
O5 C4 1.229 . S
O6 Zn0 1.969 . S
O6 C9 1.267 . S
O7 Zn0 1.965 . S
O7 C18 1.260 . S
O8 Zn1 1.969 . S
O8 C18 1.258 . S
C9 O6 1.267 . S
C9 O10 1.228 . S
O10 C9 1.228 . S
O11 Zn0 2.024 . S
O11 C2 1.058 . S
C12 O13 1.228 . S
C12 O14 1.267 . S
O13 C12 1.228 . S
O14 Zn1 1.969 1_556 S
O14 C12 1.267 . S
O15 Zn1 1.965 . S
O15 C19 1.260 . S
O16 Zn0 1.969 . S
O16 C19 1.258 . S
O17 Zn1 2.024 . S
O17 C4 1.058 . S
C18 O7 1.260 . S
C18 O8 1.258 . S
C19 O15 1.260 . S
C19 O16 1.258 . S
Zn20 O26 1.969 . S
Zn20 O27 1.965 . S
Zn20 O31 2.024 . S
Zn20 O36 1.969 . S
Zn21 O28 1.969 . S
Zn21 O34 1.969 . S
Zn21 O35 1.965 . S
Zn21 O37 2.024 . S
C22 O23 1.229 . S
C22 O31 1.058 . S
O23 C22 1.229 . S
C24 O25 1.229 . S
C24 O37 1.058 . S
O25 C24 1.229 . S
O26 Zn20 1.969 . S
O26 C29 1.267 . S
O27 Zn20 1.965 . S
O27 C38 1.260 . S
O28 Zn21 1.969 . S
O28 C38 1.258 . S
C29 O26 1.267 . S
C29 O30 1.228 . S
O30 C29 1.228 . S
O31 Zn20 2.024 . S
O31 C22 1.058 . S
C32 O33 1.228 . S
C32 O34 1.267 . S
O33 C32 1.228 . S
O34 Zn21 1.969 . S
O34 C32 1.267 . S
O35 Zn21 1.965 . S
O35 C39 1.260 . S
O36 Zn20 1.969 . S
O36 C39 1.258 . S
O37 Zn21 2.024 . S
O37 C24 1.058 . S
C38 O27 1.260 . S
C38 O28 1.258 . S
C39 O35 1.260 . S
C39 O36 1.258 . S
Zn40 O46 1.969 . S
Zn40 O47 1.965 . S
Zn40 O51 2.024 . S
Zn40 O56 1.969 . S
Zn41 O48 1.969 . S
Zn41 O54 1.969 . S
Zn41 O55 1.965 . S
Zn41 O57 2.024 . S
C42 O43 1.229 . S
C42 O51 1.058 . S
O43 C42 1.229 . S
C44 O45 1.229 . S
C44 O57 1.058 . S
O45 C44 1.229 . S
O46 Zn40 1.969 . S
O46 C49 1.267 . S
O47 Zn40 1.965 . S
O47 C58 1.260 . S
O48 Zn41 1.969 . S
O48 C58 1.258 . S
C49 O46 1.267 . S
C49 O50 1.228 . S
O50 C49 1.228 . S
O51 Zn40 2.024 . S
O51 C42 1.058 . S
C52 O53 1.228 . S
C52 O54 1.267 . S
O53 C52 1.228 . S
O54 Zn41 1.969 . S
O54 C52 1.267 . S
O55 Zn41 1.965 . S
O55 C59 1.260 . S
O56 Zn40 1.969 . S
O56 C59 1.258 . S
O57 Zn41 2.024 . S
O57 C44 1.058 . S
C58 O47 1.260 . S
C58 O48 1.258 . S
C59 O55 1.260 . S
C59 O56 1.258 . S
Zn60 O66 1.969 . S
Zn60 O67 1.965 1_554 S
Zn60 O71 2.022 1_554 S
Zn60 O76 1.969 1_554 S
Zn61 O68 1.969 . S
Zn61 O74 1.969 . S
Zn61 O75 1.965 . S
Zn61 O77 2.024 . S
C62 O63 1.229 . S
C62 O71 1.056 1_554 S
O63 C62 1.229 . S
C64 O65 1.229 . S
C64 O77 1.058 . S
O65 C64 1.229 . S
O66 Zn60 1.969 . S
O66 C69 1.267 . S
O67 Zn60 1.965 1_556 S
O67 C78 1.260 . S
O68 Zn61 1.969 . S
O68 C78 1.258 . S
C69 O66 1.267 . S
C69 O70 1.228 . S
O70 C69 1.228 . S
O71 Zn60 2.022 1_556 S
O71 C62 1.056 1_556 S
C72 O73 1.228 . S
C72 O74 1.267 . S
O73 C72 1.228 . S
O74 Zn61 1.969 . S
O74 C72 1.267 . S
O75 Zn61 1.965 . S
O75 C79 1.260 . S
O76 Zn60 1.969 1_556 S
O76 C79 1.258 . S
O77 Zn61 2.024 . S
O77 C64 1.058 . S
C78 O67 1.260 . S
C78 O68 1.258 . S
C79 O75 1.260 . S
C79 O76 1.258 . S
Zn80 O86 1.969 . S
Zn80 O87 1.965 1_554 S
Zn80 O91 2.024 1_554 S
Zn80 O96 1.969 1_554 S
Zn81 O88 1.969 . S
Zn81 O94 1.969 . S
Zn81 O95 1.965 . S
Zn81 O97 2.024 . S
C82 O83 1.229 . S
C82 O91 1.058 1_554 S
O83 C82 1.229 . S
C84 O85 1.229 . S
C84 O97 1.058 . S
O85 C84 1.229 . S
O86 Zn80 1.969 . S
O86 C89 1.267 . S
O87 Zn80 1.965 1_556 S
O87 C98 1.260 . S
O88 Zn81 1.969 . S
O88 C98 1.258 . S
C89 O86 1.267 . S
C89 O90 1.228 . S
O90 C89 1.228 . S
O91 Zn80 2.024 1_556 S
O91 C82 1.058 1_556 S
C92 O93 1.228 . S
C92 O94 1.267 . S
O93 C92 1.228 . S
O94 Zn81 1.969 . S
O94 C92 1.267 . S
O95 Zn81 1.965 . S
O95 C99 1.260 . S
O96 Zn80 1.969 1_556 S
O96 C99 1.258 . S
O97 Zn81 2.024 . S
O97 C84 1.058 . S
C98 O87 1.260 . S
C98 O88 1.258 . S
C99 O95 1.260 . S
C99 O96 1.258 . S
Zn100 O106 1.969 . S
Zn100 O107 1.965 . S
Zn100 O111 2.024 . S
Zn100 O116 1.969 . S
Zn101 O108 1.969 . S
Zn101 O114 1.969 1_554 S
Zn101 O115 1.965 . S
Zn101 O117 2.024 . S
C102 O103 1.229 . S
C102 O111 1.058 . S
O103 C102 1.229 . S
C104 O105 1.229 . S
C104 O117 1.058 . S
O105 C104 1.229 . S
O106 Zn100 1.969 . S
O106 C109 1.267 . S
O107 Zn100 1.965 . S
O107 C118 1.260 . S
O108 Zn101 1.969 . S
O108 C118 1.258 . S
C109 O106 1.267 . S
C109 O110 1.228 . S
O110 C109 1.228 . S
O111 Zn100 2.024 . S
O111 C102 1.058 . S
C112 O113 1.228 . S
C112 O114 1.267 . S
O113 C112 1.228 . S
O114 Zn101 1.969 1_556 S
O114 C112 1.267 . S
O115 Zn101 1.965 . S
O115 C119 1.260 . S
O116 Zn100 1.969 . S
O116 C119 1.258 . S
O117 Zn101 2.024 . S
O117 C104 1.058 . S
C118 O107 1.260 . S
C118 O108 1.258 . S
C119 O115 1.260 . S
C119 O116 1.258 . S
Zn120 O126 1.969 . S
Zn120 O127 1.965 . S
Zn120 O131 2.024 . S
Zn120 O136 1.969 . S
Zn121 O128 1.969 . S
Zn121 O134 1.969 . S
Zn121 O135 1.965 . S
Zn121 O137 2.024 . S
C122 O123 1.229 . S
C122 O131 1.058 . S
O123 C122 1.229 . S
C124 O125 1.229 . S
C124 O137 1.058 . S
O125 C124 1.229 . S
O126 Zn120 1.969 . S
O126 C129 1.267 . S
O127 Zn120 1.965 . S
O127 C138 1.260 . S
O128 Zn121 1.969 . S
O128 C138 1.258 . S
C129 O126 1.267 . S
C129 O130 1.228 . S
O130 C129 1.228 . S
O131 Zn120 2.024 . S
O131 C122 1.058 . S
C132 O133 1.228 . S
C132 O134 1.267 . S
O133 C132 1.228 . S
O134 Zn121 1.969 . S
O134 C132 1.267 . S
O135 Zn121 1.965 . S
O135 C139 1.260 . S
O136 Zn120 1.969 . S
O136 C139 1.258 . S
O137 Zn121 2.024 . S
O137 C124 1.058 . S
C138 O127 1.260 . S
C138 O128 1.258 . S
C139 O135 1.260 . S
C139 O136 1.258 . S
Zn140 O146 1.969 . S
Zn140 O147 1.965 . S
Zn140 O151 2.024 . S
Zn140 O156 1.969 . S
Zn141 O148 1.969 . S
Zn141 O154 1.969 . S
Zn141 O155 1.965 . S
Zn141 O157 2.024 . S
C142 O143 1.229 . S
C142 O151 1.058 . S
O143 C142 1.229 . S
C144 O145 1.229 . S
C144 O157 1.058 . S
O145 C144 1.229 . S
O146 Zn140 1.969 . S
O146 C149 1.267 . S
O147 Zn140 1.965 . S
O147 C158 1.260 . S
O148 Zn141 1.969 . S
O148 C158 1.258 . S
C149 O146 1.267 . S
C149 O150 1.228 . S
O150 C149 1.228 . S
O151 Zn140 2.024 . S
O151 C142 1.058 . S
C152 O153 1.228 . S
C152 O154 1.267 . S
O153 C152 1.228 . S
O154 Zn141 1.969 . S
O154 C152 1.267 . S
O155 Zn141 1.965 . S
O155 C159 1.260 . S
O156 Zn140 1.969 . S
O156 C159 1.258 . S
O157 Zn141 2.024 . S
O157 C144 1.058 . S
C158 O147 1.260 . S
C158 O148 1.258 . S
C159 O155 1.260 . S
C159 O156 1.258 . S
Zn160 O166 1.969 1_556 S
Zn160 O167 1.965 . S
Zn160 O171 2.024 . S
Zn160 O176 1.969 . S
Zn161 O168 1.969 . S
Zn161 O174 1.969 . S
Zn161 O175 1.965 . S
Zn161 O177 2.024 . S
C162 O163 1.229 . S
C162 O171 1.058 . S
O163 C162 1.229 . S
C164 O165 1.229 . S
C164 O177 1.058 . S
O165 C164 1.229 . S
O166 Zn160 1.969 1_554 S
O166 C169 1.267 . S
O167 Zn160 1.965 . S
O167 C178 1.260 . S
O168 Zn161 1.969 . S
O168 C178 1.258 . S
C169 O166 1.267 . S
C169 O170 1.228 . S
O170 C169 1.228 . S
O171 Zn160 2.024 . S
O171 C162 1.058 . S
C172 O173 1.228 . S
C172 O174 1.267 . S
O173 C172 1.228 . S
O174 Zn161 1.969 . S
O174 C172 1.267 . S
O175 Zn161 1.965 . S
O175 C179 1.260 . S
O176 Zn160 1.969 . S
O176 C179 1.258 . S
O177 Zn161 2.024 . S
O177 C164 1.058 . S
C178 O167 1.260 . S
C178 O168 1.258 . S
C179 O175 1.260 . S
C179 O176 1.258 . S
Zn180 O186 1.969 . S
Zn180 O187 1.965 . S
Zn180 O191 2.024 . S
Zn180 O196 1.969 . S
Zn181 O188 1.969 . S
Zn181 O194 1.969 . S
Zn181 O195 1.965 . S
Zn181 O197 2.024 . S
C182 O183 1.229 . S
C182 O191 1.058 . S
O183 C182 1.229 . S
C184 O185 1.229 . S
C184 O197 1.058 . S
O185 C184 1.229 . S
O186 Zn180 1.969 . S
O186 C189 1.267 . S
O187 Zn180 1.965 . S
O187 C198 1.260 . S
O188 Zn181 1.969 . S
O188 C198 1.258 . S
C189 O186 1.267 . S
C189 O190 1.228 . S
O190 C189 1.228 . S
O191 Zn180 2.024 . S
O191 C182 1.058 . S
C192 O193 1.228 . S
C192 O194 1.267 . S
O193 C192 1.228 . S
O194 Zn181 1.969 . S
O194 C192 1.267 . S
O195 Zn181 1.965 . S
O195 C199 1.260 . S
O196 Zn180 1.969 . S
O196 C199 1.258 . S
O197 Zn181 2.024 . S
O197 C184 1.058 . S
C198 O187 1.260 . S
C198 O188 1.258 . S
C199 O195 1.260 . S
C199 O196 1.258 . S
Zn200 O206 1.969 . S
Zn200 O207 1.965 . S
Zn200 O211 2.024 . S
Zn200 O216 1.969 . S
Zn201 O208 1.969 . S
Zn201 O214 1.969 . S
Zn201 O215 1.965 . S
Zn201 O217 2.024 . S
C202 O203 1.229 . S
C202 O211 1.058 . S
O203 C202 1.229 . S
C204 O205 1.229 . S
C204 O217 1.058 . S
O205 C204 1.229 . S
O206 Zn200 1.969 . S
O206 C209 1.267 . S
O207 Zn200 1.965 . S
O207 C218 1.260 . S
O208 Zn201 1.969 . S
O208 C218 1.258 . S
C209 O206 1.267 . S
C209 O210 1.228 . S
O210 C209 1.228 . S
O211 Zn200 2.024 . S
O211 C202 1.058 . S
C212 O213 1.228 . S
C212 O214 1.267 . S
O213 C212 1.228 . S
O214 Zn201 1.969 . S
O214 C212 1.267 . S
O215 Zn201 1.965 . S
O215 C219 1.260 . S
O216 Zn200 1.969 . S
O216 C219 1.258 . S
O217 Zn201 2.024 . S
O217 C204 1.058 . S
C218 O207 1.260 . S
C218 O208 1.258 . S
C219 O215 1.260 . S
C219 O216 1.258 . S
Zn220 O226 1.969 . S
Zn220 O227 1.965 . S
Zn220 O231 2.024 . S
Zn220 O236 1.969 . S
Zn221 O228 1.972 . S
Zn221 O234 1.964 1_554 S
Zn221 O235 1.967 . S
Zn221 O237 2.025 . S
C222 O223 1.229 . S
C222 O231 1.058 . S
O223 C222 1.229 . S
C224 O225 1.229 1_554 S
C224 O237 1.058 . S
O225 C224 1.229 1_556 S
O226 Zn220 1.969 . S
O226 C229 1.267 . S
O227 Zn220 1.965 . S
O227 C238 1.260 . S
O228 Zn221 1.972 . S
O228 C238 1.258 . S
C229 O226 1.267 . S
C229 O230 1.228 . S
O230 C229 1.228 . S
O231 Zn220 2.024 . S
O231 C222 1.058 . S
C232 O233 1.228 . S
C232 O234 1.267 . S
O233 C232 1.228 . S
O234 Zn221 1.964 1_556 S
O234 C232 1.267 . S
O235 Zn221 1.967 . S
O235 C239 1.260 . S
O236 Zn220 1.969 . S
O236 C239 1.258 . S
O237 Zn221 2.025 . S
O237 C224 1.058 . S
C238 O227 1.260 . S
C238 O228 1.258 . S
C239 O235 1.260 . S
C239 O236 1.258 . S
Zn240 O246 1.969 . S
Zn240 O247 1.965 . S
Zn240 O251 2.024 . S
Zn240 O256 1.969 . S
Zn241 O248 1.969 1_556 S
Zn241 O254 1.969 . S
Zn241 O255 1.965 1_556 S
Zn241 O257 2.024 1_556 S
C242 O243 1.229 . S
C242 O251 1.058 . S
O243 C242 1.229 . S
C244 O245 1.229 . S
C244 O257 1.058 1_556 S
O245 C244 1.229 . S
O246 Zn240 1.969 . S
O246 C249 1.267 . S
O247 Zn240 1.965 . S
O247 C258 1.260 . S
O248 Zn241 1.969 1_554 S
O248 C258 1.258 . S
C249 O246 1.267 . S
C249 O250 1.228 . S
O250 C249 1.228 . S
O251 Zn240 2.024 . S
O251 C242 1.058 . S
C252 O253 1.228 . S
C252 O254 1.267 . S
O253 C252 1.228 . S
O254 Zn241 1.969 . S
O254 C252 1.267 . S
O255 Zn241 1.965 1_554 S
O255 C259 1.260 . S
O256 Zn240 1.969 . S
O256 C259 1.258 . S
O257 Zn241 2.024 1_554 S
O257 C244 1.058 1_554 S
C258 O247 1.260 . S
C258 O248 1.258 . S
C259 O255 1.260 . S
C259 O256 1.258 . S
Zn260 O266 1.969 1_556 S
Zn260 O267 1.965 . S
Zn260 O271 2.024 . S
Zn260 O276 1.969 . S
Zn261 O268 1.969 . S
Zn261 O274 1.969 . S
Zn261 O275 1.965 . S
Zn261 O277 2.024 . S
C262 O263 1.229 . S
C262 O271 1.058 . S
O263 C262 1.229 . S
C264 O265 1.229 . S
C264 O277 1.058 . S
O265 C264 1.229 . S
O266 Zn260 1.969 1_554 S
O266 C269 1.267 . S
O267 Zn260 1.965 . S
O267 C278 1.260 . S
O268 Zn261 1.969 . S
O268 C278 1.258 . S
C269 O266 1.267 . S
C269 O270 1.228 . S
O270 C269 1.228 . S
O271 Zn260 2.024 . S
O271 C262 1.058 . S
C272 O273 1.228 . S
C272 O274 1.267 . S
O273 C272 1.228 . S
O274 Zn261 1.969 . S
O274 C272 1.267 . S
O275 Zn261 1.965 . S
O275 C279 1.260 . S
O276 Zn260 1.969 . S
O276 C279 1.258 . S
O277 Zn261 2.024 . S
O277 C264 1.058 . S
C278 O267 1.260 . S
C278 O268 1.258 . S
C279 O275 1.260 . S
C279 O276 1.258 . S
Zn280 O286 1.969 . S
Zn280 O287 1.965 . S
Zn280 O291 2.024 . S
Zn280 O296 1.969 . S
Zn281 O288 1.969 . S
Zn281 O294 1.969 . S
Zn281 O295 1.965 . S
Zn281 O297 2.024 . S
C282 O283 1.229 . S
C282 O291 1.058 . S
O283 C282 1.229 . S
C284 O285 1.229 . S
C284 O297 1.058 . S
O285 C284 1.229 . S
O286 Zn280 1.969 . S
O286 C289 1.267 . S
O287 Zn280 1.965 . S
O287 C298 1.260 . S
O288 Zn281 1.969 . S
O288 C298 1.258 . S
C289 O286 1.267 . S
C289 O290 1.228 . S
O290 C289 1.228 . S
O291 Zn280 2.024 . S
O291 C282 1.058 . S
C292 O293 1.228 . S
C292 O294 1.267 . S
O293 C292 1.228 . S
O294 Zn281 1.969 . S
O294 C292 1.267 . S
O295 Zn281 1.965 . S
O295 C299 1.260 . S
O296 Zn280 1.969 . S
O296 C299 1.258 . S
O297 Zn281 2.024 . S
O297 C284 1.058 . S
C298 O287 1.260 . S
C298 O288 1.258 . S
C299 O295 1.260 . S
C299 O296 1.258 . S
Zn300 O306 1.969 . S
Zn300 O307 1.965 . S
Zn300 O311 2.024 . S
Zn300 O316 1.969 . S
Zn301 O308 1.969 . S
Zn301 O314 1.969 . S
Zn301 O315 1.965 . S
Zn301 O317 2.024 . S
C302 O303 1.229 . S
C302 O311 1.058 . S
O303 C302 1.229 . S
C304 O305 1.229 . S
C304 O317 1.058 . S
O305 C304 1.229 . S
O306 Zn300 1.969 . S
O306 C309 1.267 . S
O307 Zn300 1.965 . S
O307 C318 1.260 . S
O308 Zn301 1.969 . S
O308 C318 1.258 . S
C309 O306 1.267 . S
C309 O310 1.228 . S
O310 C309 1.228 . S
O311 Zn300 2.024 . S
O311 C302 1.058 . S
C312 O313 1.228 . S
C312 O314 1.267 . S
O313 C312 1.228 . S
O314 Zn301 1.969 . S
O314 C312 1.267 . S
O315 Zn301 1.965 . S
O315 C319 1.260 . S
O316 Zn300 1.969 . S
O316 C319 1.258 . S
O317 Zn301 2.024 . S
O317 C304 1.058 . S
C318 O307 1.260 . S
C318 O308 1.258 . S
C319 O315 1.260 . S
C319 O316 1.258 . S
H320 C326 0.930 . S
H321 C329 0.930 . S
H322 C330 0.930 . S
H323 C331 0.930 . S
H324 C334 0.930 . S
H325 C335 0.930 . S
C326 H320 0.930 . S
C326 C327 1.355 . S
C326 C328 1.415 . S
C327 C326 1.355 . S
C327 C329 1.419 . S
C328 C326 1.415 . S
C328 C333 1.425 . S
C328 C335 1.409 . S
C329 H321 0.930 . S
C329 C327 1.419 . S
C329 C330 1.362 . S
C330 H322 0.930 . S
C330 C329 1.362 . S
C330 C333 1.409 . S
C331 H323 0.930 . S
C331 C332 1.355 . S
C331 C333 1.415 . S
C332 C331 1.355 . S
C332 C334 1.419 . S
C333 C328 1.425 . S
C333 C330 1.409 . S
C333 C331 1.415 . S
C334 H324 0.930 . S
C334 C332 1.419 . S
C334 C335 1.362 . S
C335 H325 0.930 . S
C335 C328 1.409 . S
C335 C334 1.362 . S
H336 C342 0.930 . S
H337 C345 0.930 . S
H338 C346 0.930 . S
H339 C347 0.930 . S
H340 C350 0.930 . S
H341 C351 0.930 . S
C342 H336 0.930 . S
C342 C343 1.355 1_556 S
C342 C344 1.415 . S
C343 C342 1.355 1_554 S
C343 C345 1.419 . S
C344 C342 1.415 . S
C344 C349 1.425 . S
C344 C351 1.409 . S
C345 H337 0.930 . S
C345 C343 1.419 . S
C345 C346 1.362 1_554 S
C346 H338 0.930 . S
C346 C345 1.362 1_556 S
C346 C349 1.409 . S
C347 H339 0.930 . S
C347 C348 1.355 . S
C347 C349 1.415 . S
C348 C347 1.355 . S
C348 C350 1.419 . S
C349 C344 1.425 . S
C349 C346 1.409 . S
C349 C347 1.415 . S
C350 H340 0.930 . S
C350 C348 1.419 . S
C350 C351 1.362 . S
C351 H341 0.930 . S
C351 C344 1.409 . S
C351 C350 1.362 . S
H352 C358 0.930 . S
H353 C361 0.930 . S
H354 C362 0.930 . S
H355 C363 0.930 . S
H356 C366 0.930 . S
H357 C367 0.930 . S
C358 H352 0.930 . S
C358 C359 1.355 . S
C358 C360 1.415 . S
C359 C358 1.355 . S
C359 C361 1.419 . S
C360 C358 1.415 . S
C360 C365 1.425 . S
C360 C367 1.409 . S
C361 H353 0.930 . S
C361 C359 1.419 . S
C361 C362 1.362 . S
C362 H354 0.930 . S
C362 C361 1.362 . S
C362 C365 1.409 . S
C363 H355 0.930 . S
C363 C364 1.355 . S
C363 C365 1.415 . S
C364 C363 1.355 . S
C364 C366 1.419 . S
C365 C360 1.425 . S
C365 C362 1.409 . S
C365 C363 1.415 . S
C366 H356 0.930 . S
C366 C364 1.419 . S
C366 C367 1.362 . S
C367 H357 0.930 . S
C367 C360 1.409 . S
C367 C366 1.362 . S
H368 C374 0.930 . S
H369 C377 0.930 . S
H370 C378 0.930 . S
H371 C379 0.930 . S
H372 C382 0.930 . S
H373 C383 0.930 . S
C374 H368 0.930 . S
C374 C375 1.355 . S
C374 C376 1.415 . S
C375 C374 1.355 . S
C375 C377 1.419 . S
C376 C374 1.415 . S
C376 C381 1.425 . S
C376 C383 1.409 . S
C377 H369 0.930 . S
C377 C375 1.419 . S
C377 C378 1.362 . S
C378 H370 0.930 . S
C378 C377 1.362 . S
C378 C381 1.409 . S
C379 H371 0.930 . S
C379 C380 1.355 . S
C379 C381 1.415 . S
C380 C379 1.355 . S
C380 C382 1.419 . S
C381 C376 1.425 . S
C381 C378 1.409 . S
C381 C379 1.415 . S
C382 H372 0.930 . S
C382 C380 1.419 . S
C382 C383 1.362 . S
C383 H373 0.930 . S
C383 C376 1.409 . S
C383 C382 1.362 . S
H384 C390 0.930 . S
H385 C393 0.930 . S
H386 C394 0.930 . S
H387 C395 0.930 . S
H388 C398 0.930 . S
H389 C399 0.930 . S
C390 H384 0.930 . S
C390 C391 1.355 . S
C390 C392 1.415 . S
C391 C390 1.355 . S
C391 C393 1.419 . S
C392 C390 1.415 . S
C392 C397 1.425 . S
C392 C399 1.409 . S
C393 H385 0.930 . S
C393 C391 1.419 . S
C393 C394 1.362 . S
C394 H386 0.930 . S
C394 C393 1.362 . S
C394 C397 1.409 . S
C395 H387 0.930 . S
C395 C396 1.355 . S
C395 C397 1.415 . S
C396 C395 1.355 . S
C396 C398 1.419 . S
C397 C392 1.425 . S
C397 C394 1.409 . S
C397 C395 1.415 . S
C398 H388 0.930 . S
C398 C396 1.419 . S
C398 C399 1.362 . S
C399 H389 0.930 . S
C399 C392 1.409 . S
C399 C398 1.362 . S
H400 C406 0.930 . S
H401 C409 0.930 . S
H402 C410 0.930 . S
H403 C411 0.930 . S
H404 C414 0.930 . S
H405 C415 0.930 . S
C406 H400 0.930 . S
C406 C407 1.355 . S
C406 C408 1.415 . S
C407 C406 1.355 . S
C407 C409 1.419 . S
C408 C406 1.415 . S
C408 C413 1.425 . S
C408 C415 1.409 . S
C409 H401 0.930 . S
C409 C407 1.419 . S
C409 C410 1.362 . S
C410 H402 0.930 . S
C410 C409 1.362 . S
C410 C413 1.409 . S
C411 H403 0.930 . S
C411 C412 1.355 . S
C411 C413 1.415 . S
C412 C411 1.355 . S
C412 C414 1.419 . S
C413 C408 1.425 . S
C413 C410 1.409 . S
C413 C411 1.415 . S
C414 H404 0.930 . S
C414 C412 1.419 . S
C414 C415 1.362 . S
C415 H405 0.930 . S
C415 C408 1.409 . S
C415 C414 1.362 . S
H416 C422 0.930 . S
H417 C425 0.930 . S
H418 C426 0.930 . S
H419 C427 0.930 . S
H420 C430 0.930 . S
H421 C431 0.930 . S
C422 H416 0.930 . S
C422 C423 1.355 . S
C422 C424 1.415 . S
C423 C422 1.355 . S
C423 C425 1.419 . S
C424 C422 1.415 . S
C424 C429 1.425 . S
C424 C431 1.409 . S
C425 H417 0.930 . S
C425 C423 1.419 . S
C425 C426 1.362 . S
C426 H418 0.930 . S
C426 C425 1.362 . S
C426 C429 1.409 . S
C427 H419 0.930 . S
C427 C428 1.355 1_556 S
C427 C429 1.415 . S
C428 C427 1.355 1_554 S
C428 C430 1.419 . S
C429 C424 1.425 . S
C429 C426 1.409 . S
C429 C427 1.415 . S
C430 H420 0.930 . S
C430 C428 1.419 . S
C430 C431 1.362 1_554 S
C431 H421 0.930 . S
C431 C424 1.409 . S
C431 C430 1.362 1_556 S
H432 C438 0.930 . S
H433 C441 0.930 1_556 S
H434 C442 0.930 . S
H435 C443 0.930 . S
H436 C446 0.930 . S
H437 C447 0.930 . S
C438 H432 0.930 . S
C438 C439 1.355 . S
C438 C440 1.415 . S
C439 C438 1.355 . S
C439 C441 1.419 . S
C440 C438 1.415 . S
C440 C445 1.425 . S
C440 C447 1.409 . S
C441 H433 0.930 1_554 S
C441 C439 1.419 . S
C441 C442 1.362 . S
C442 H434 0.930 . S
C442 C441 1.362 . S
C442 C445 1.409 . S
C443 H435 0.930 . S
C443 C444 1.355 . S
C443 C445 1.415 . S
C444 C443 1.355 . S
C444 C446 1.419 . S
C445 C440 1.425 . S
C445 C442 1.409 . S
C445 C443 1.415 . S
C446 H436 0.930 . S
C446 C444 1.419 . S
C446 C447 1.362 . S
C447 H437 0.930 . S
C447 C440 1.409 . S
C447 C446 1.362 . S
H448 C454 0.930 . S
H449 C457 0.930 . S
H450 C458 0.930 . S
H451 C459 0.930 . S
H452 C462 0.930 . S
H453 C463 0.930 . S
C454 H448 0.930 . S
C454 C455 1.355 . S
C454 C456 1.415 . S
C455 C454 1.355 . S
C455 C457 1.419 . S
C456 C454 1.415 . S
C456 C461 1.425 . S
C456 C463 1.409 . S
C457 H449 0.930 . S
C457 C455 1.419 . S
C457 C458 1.362 . S
C458 H450 0.930 . S
C458 C457 1.362 . S
C458 C461 1.409 . S
C459 H451 0.930 . S
C459 C460 1.355 . S
C459 C461 1.415 . S
C460 C459 1.355 . S
C460 C462 1.419 . S
C461 C456 1.425 . S
C461 C458 1.409 . S
C461 C459 1.415 . S
C462 H452 0.930 . S
C462 C460 1.419 . S
C462 C463 1.362 . S
C463 H453 0.930 . S
C463 C456 1.409 . S
C463 C462 1.362 . S
H464 C470 0.930 . S
H465 C473 0.930 . S
H466 C474 0.930 . S
H467 C475 0.930 . S
H468 C478 0.930 . S
H469 C479 0.930 . S
C470 H464 0.930 . S
C470 C471 1.355 . S
C470 C472 1.415 . S
C471 C470 1.355 . S
C471 C473 1.419 . S
C472 C470 1.415 . S
C472 C477 1.425 . S
C472 C479 1.409 . S
C473 H465 0.930 . S
C473 C471 1.419 . S
C473 C474 1.362 . S
C474 H466 0.930 . S
C474 C473 1.362 . S
C474 C477 1.409 . S
C475 H467 0.930 . S
C475 C476 1.355 1_554 S
C475 C477 1.415 . S
C476 C475 1.355 1_556 S
C476 C478 1.419 . S
C477 C472 1.425 . S
C477 C474 1.409 . S
C477 C475 1.415 . S
C478 H468 0.930 . S
C478 C476 1.419 . S
C478 C479 1.362 1_556 S
C479 H469 0.930 . S
C479 C472 1.409 . S
C479 C478 1.362 1_554 S
H480 C486 0.930 . S
H481 C489 0.930 . S
H482 C490 0.930 . S
H483 C491 0.930 . S
H484 C494 0.930 . S
H485 C495 0.930 . S
C486 H480 0.930 . S
C486 C487 1.355 . S
C486 C488 1.415 . S
C487 C486 1.355 . S
C487 C489 1.419 . S
C488 C486 1.415 . S
C488 C493 1.425 . S
C488 C495 1.409 . S
C489 H481 0.930 . S
C489 C487 1.419 . S
C489 C490 1.362 . S
C490 H482 0.930 . S
C490 C489 1.362 . S
C490 C493 1.409 . S
C491 H483 0.930 . S
C491 C492 1.355 . S
C491 C493 1.415 . S
C492 C491 1.355 . S
C492 C494 1.419 . S
C493 C488 1.425 . S
C493 C490 1.409 . S
C493 C491 1.415 . S
C494 H484 0.930 . S
C494 C492 1.419 . S
C494 C495 1.362 . S
C495 H485 0.930 . S
C495 C488 1.409 . S
C495 C494 1.362 . S
H496 C502 0.930 . S
H497 C505 0.930 . S
H498 C506 0.930 . S
H499 C507 0.930 . S
H500 C510 0.930 . S
H501 C511 0.930 . S
C502 H496 0.930 . S
C502 C503 1.355 . S
C502 C504 1.415 . S
C503 C502 1.355 . S
C503 C505 1.419 . S
C504 C502 1.415 . S
C504 C509 1.425 . S
C504 C511 1.409 . S
C505 H497 0.930 . S
C505 C503 1.419 . S
C505 C506 1.362 . S
C506 H498 0.930 . S
C506 C505 1.362 . S
C506 C509 1.409 . S
C507 H499 0.930 . S
C507 C508 1.355 . S
C507 C509 1.415 . S
C508 C507 1.355 . S
C508 C510 1.419 . S
C509 C504 1.425 . S
C509 C506 1.409 . S
C509 C507 1.415 . S
C510 H500 0.930 . S
C510 C508 1.419 . S
C510 C511 1.362 . S
C511 H501 0.930 . S
C511 C504 1.409 . S
C511 C510 1.362 . S
H512 C518 0.930 . S
H513 C521 0.930 . S
H514 C522 0.930 . S
H515 C523 0.930 . S
H516 C526 0.930 . S
H517 C527 0.930 . S
C518 H512 0.930 . S
C518 C519 1.355 . S
C518 C520 1.415 . S
C519 C518 1.355 . S
C519 C521 1.419 . S
C520 C518 1.415 . S
C520 C525 1.425 . S
C520 C527 1.409 . S
C521 H513 0.930 . S
C521 C519 1.419 . S
C521 C522 1.362 . S
C522 H514 0.930 . S
C522 C521 1.362 . S
C522 C525 1.409 . S
C523 H515 0.930 . S
C523 C524 1.355 . S
C523 C525 1.415 . S
C524 C523 1.355 . S
C524 C526 1.419 . S
C525 C520 1.425 . S
C525 C522 1.409 . S
C525 C523 1.415 . S
C526 H516 0.930 . S
C526 C524 1.419 . S
C526 C527 1.362 . S
C527 H517 0.930 . S
C527 C520 1.409 . S
C527 C526 1.362 . S
H528 C534 0.930 . S
H529 C537 0.930 . S
H530 C538 0.930 . S
H531 C539 0.930 . S
H532 C542 0.930 . S
H533 C543 0.930 . S
C534 H528 0.930 . S
C534 C535 1.355 . S
C534 C536 1.415 . S
C535 C534 1.355 . S
C535 C537 1.419 . S
C536 C534 1.415 . S
C536 C541 1.425 . S
C536 C543 1.409 . S
C537 H529 0.930 . S
C537 C535 1.419 . S
C537 C538 1.362 . S
C538 H530 0.930 . S
C538 C537 1.362 . S
C538 C541 1.409 . S
C539 H531 0.930 . S
C539 C540 1.355 . S
C539 C541 1.415 . S
C540 C539 1.355 . S
C540 C542 1.419 . S
C541 C536 1.425 . S
C541 C538 1.409 . S
C541 C539 1.415 . S
C542 H532 0.930 . S
C542 C540 1.419 . S
C542 C543 1.362 . S
C543 H533 0.930 . S
C543 C536 1.409 . S
C543 C542 1.362 . S
H544 C550 0.930 . S
H545 C553 0.930 . S
H546 C554 0.930 . S
H547 C555 0.930 . S
H548 C558 0.930 . S
H549 C559 0.930 . S
C550 H544 0.930 . S
C550 C551 1.355 . S
C550 C552 1.415 . S
C551 C550 1.355 . S
C551 C553 1.419 . S
C552 C550 1.415 . S
C552 C557 1.425 . S
C552 C559 1.409 . S
C553 H545 0.930 . S
C553 C551 1.419 . S
C553 C554 1.362 . S
C554 H546 0.930 . S
C554 C553 1.362 . S
C554 C557 1.409 . S
C555 H547 0.930 . S
C555 C556 1.355 . S
C555 C557 1.415 1_556 S
C556 C555 1.355 . S
C556 C558 1.419 . S
C557 C552 1.425 . S
C557 C554 1.409 . S
C557 C555 1.415 1_554 S
C558 H548 0.930 . S
C558 C556 1.419 . S
C558 C559 1.362 1_556 S
C559 H549 0.930 . S
C559 C552 1.409 . S
C559 C558 1.362 1_554 S
H560 C566 0.930 . S
H561 C569 0.930 . S
H562 C570 0.930 . S
H563 C571 0.930 . S
H564 C574 0.930 . S
H565 C575 0.930 . S
C566 H560 0.930 . S
C566 C567 1.355 . S
C566 C568 1.415 . S
C567 C566 1.355 . S
C567 C569 1.419 . S
C568 C566 1.415 . S
C568 C573 1.425 . S
C568 C575 1.409 . S
C569 H561 0.930 . S
C569 C567 1.419 . S
C569 C570 1.362 . S
C570 H562 0.930 . S
C570 C569 1.362 . S
C570 C573 1.409 . S
C571 H563 0.930 . S
C571 C572 1.355 . S
C571 C573 1.415 . S
C572 C571 1.355 . S
C572 C574 1.419 . S
C573 C568 1.425 . S
C573 C570 1.409 . S
C573 C571 1.415 . S
C574 H564 0.930 . S
C574 C572 1.419 . S
C574 C575 1.362 . S
C575 H565 0.930 . S
C575 C568 1.409 . S
C575 C574 1.362 . S
H576 C582 0.930 . S
H577 C585 0.930 . S
H578 C586 0.930 . S
H579 C587 0.930 . S
H580 C590 0.930 . S
H581 C591 0.930 . S
C582 H576 0.930 . S
C582 C583 1.355 . S
C582 C584 1.415 . S
C583 C582 1.355 . S
C583 C585 1.419 . S
C584 C582 1.415 . S
C584 C589 1.425 . S
C584 C591 1.409 . S
C585 H577 0.930 . S
C585 C583 1.419 . S
C585 C586 1.362 . S
C586 H578 0.930 . S
C586 C585 1.362 . S
C586 C589 1.409 . S
C587 H579 0.930 . S
C587 C588 1.355 . S
C587 C589 1.415 . S
C588 C587 1.355 . S
C588 C590 1.419 . S
C589 C584 1.425 . S
C589 C586 1.409 . S
C589 C587 1.415 . S
C590 H580 0.930 . S
C590 C588 1.419 . S
C590 C591 1.362 . S
C591 H581 0.930 . S
C591 C584 1.409 . S
C591 C590 1.362 . S
H592 C598 0.930 . S
H593 C601 0.930 . S
H594 C602 0.930 . S
H595 C603 0.930 . S
H596 C606 0.930 . S
H597 C607 0.930 . S
C598 H592 0.930 . S
C598 C599 1.355 . S
C598 C600 1.415 . S
C599 C598 1.355 . S
C599 C601 1.419 . S
C600 C598 1.415 . S
C600 C605 1.425 . S
C600 C607 1.409 . S
C601 H593 0.930 . S
C601 C599 1.419 . S
C601 C602 1.362 . S
C602 H594 0.930 . S
C602 C601 1.362 . S
C602 C605 1.409 . S
C603 H595 0.930 . S
C603 C604 1.355 . S
C603 C605 1.415 . S
C604 C603 1.355 . S
C604 C606 1.419 . S
C605 C600 1.425 . S
C605 C602 1.409 . S
C605 C603 1.415 . S
C606 H596 0.930 . S
C606 C604 1.419 . S
C606 C607 1.362 . S
C607 H597 0.930 . S
C607 C600 1.409 . S
C607 C606 1.362 . S
H608 C614 0.930 . S
H609 C617 0.930 . S
H610 C618 0.930 . S
H611 C619 0.930 . S
H612 C622 0.930 . S
H613 C623 0.930 . S
C614 H608 0.930 . S
C614 C615 1.355 . S
C614 C616 1.415 . S
C615 C614 1.355 . S
C615 C617 1.419 . S
C616 C614 1.415 . S
C616 C621 1.425 . S
C616 C623 1.409 . S
C617 H609 0.930 . S
C617 C615 1.419 . S
C617 C618 1.362 . S
C618 H610 0.930 . S
C618 C617 1.362 . S
C618 C621 1.409 . S
C619 H611 0.930 . S
C619 C620 1.355 . S
C619 C621 1.415 . S
C620 C619 1.355 . S
C620 C622 1.419 . S
C621 C616 1.425 . S
C621 C618 1.409 . S
C621 C619 1.415 . S
C622 H612 0.930 . S
C622 C620 1.419 . S
C622 C623 1.362 . S
C623 H613 0.930 . S
C623 C616 1.409 . S
C623 C622 1.362 . S
H624 C630 0.930 1_554 S
H625 C633 0.930 . S
H626 C634 0.930 . S
H627 C635 0.930 . S
H628 C638 0.930 . S
H629 C639 0.935 . S
C630 H624 0.930 1_556 S
C630 C631 1.355 . S
C630 C632 1.415 . S
C631 C630 1.355 . S
C631 C633 1.419 . S
C632 C630 1.415 . S
C632 C637 1.425 . S
C632 C639 1.420 1_556 S
C633 H625 0.930 . S
C633 C631 1.419 . S
C633 C634 1.362 . S
C634 H626 0.930 . S
C634 C633 1.362 . S
C634 C637 1.409 . S
C635 H627 0.930 . S
C635 C636 1.355 . S
C635 C637 1.415 1_455 S
C636 C635 1.355 . S
C636 C638 1.419 1_556 S
C637 C632 1.425 . S
C637 C634 1.409 . S
C637 C635 1.415 1_655 S
C638 H628 0.930 . S
C638 C636 1.419 1_554 S
C638 C639 1.347 1_455 S
C639 H629 0.935 . S
C639 C632 1.420 1_554 S
C639 C638 1.347 1_655 S
H640 C646 0.930 . S
H641 C649 0.930 . S
H642 C650 0.930 . S
H643 C651 0.930 . S
H644 C654 0.930 . S
H645 C655 0.930 . S
C646 H640 0.930 . S
C646 C647 1.355 . S
C646 C648 1.415 . S
C647 C646 1.355 . S
C647 C649 1.419 . S
C648 C646 1.415 . S
C648 C653 1.425 . S
C648 C655 1.409 . S
C649 H641 0.930 . S
C649 C647 1.419 . S
C649 C650 1.362 . S
C650 H642 0.930 . S
C650 C649 1.362 . S
C650 C653 1.409 . S
C651 H643 0.930 . S
C651 C652 1.355 . S
C651 C653 1.415 . S
C652 C651 1.355 . S
C652 C654 1.419 . S
C653 C648 1.425 . S
C653 C650 1.409 . S
C653 C651 1.415 . S
C654 H644 0.930 . S
C654 C652 1.419 . S
C654 C655 1.362 . S
C655 H645 0.930 . S
C655 C648 1.409 . S
C655 C654 1.362 . S
H656 C662 0.930 1_556 S
H657 C665 0.930 . S
H658 C666 0.930 . S
H659 C667 0.930 . S
H660 C670 0.930 1_556 S
H661 C671 0.930 . S
C662 H656 0.930 1_554 S
C662 C663 1.355 . S
C662 C664 1.415 . S
C663 C662 1.355 . S
C663 C665 1.419 . S
C664 C662 1.415 . S
C664 C669 1.425 . S
C664 C671 1.409 1_554 S
C665 H657 0.930 . S
C665 C663 1.419 . S
C665 C666 1.362 . S
C666 H658 0.930 . S
C666 C665 1.362 . S
C666 C669 1.409 . S
C667 H659 0.930 . S
C667 C668 1.355 . S
C667 C669 1.415 1_655 S
C668 C667 1.355 . S
C668 C670 1.419 . S
C669 C664 1.425 . S
C669 C666 1.409 . S
C669 C667 1.415 1_455 S
C670 H660 0.930 1_554 S
C670 C668 1.419 . S
C670 C671 1.362 1_654 S
C671 H661 0.930 . S
C671 C664 1.409 1_556 S
C671 C670 1.362 1_456 S
H672 C678 0.930 . S
H673 C681 0.930 . S
H674 C682 0.930 . S
H675 C683 0.930 . S
H676 C686 0.930 . S
H677 C687 0.930 . S
C678 H672 0.930 . S
C678 C679 1.355 . S
C678 C680 1.415 . S
C679 C678 1.355 . S
C679 C681 1.419 . S
C680 C678 1.415 . S
C680 C685 1.425 . S
C680 C687 1.409 . S
C681 H673 0.930 . S
C681 C679 1.419 . S
C681 C682 1.362 . S
C682 H674 0.930 . S
C682 C681 1.362 . S
C682 C685 1.409 . S
C683 H675 0.930 . S
C683 C684 1.355 . S
C683 C685 1.415 . S
C684 C683 1.355 . S
C684 C686 1.419 . S
C685 C680 1.425 . S
C685 C682 1.409 . S
C685 C683 1.415 . S
C686 H676 0.930 . S
C686 C684 1.419 . S
C686 C687 1.362 . S
C687 H677 0.930 . S
C687 C680 1.409 . S
C687 C686 1.362 . S
H688 C694 0.930 . S
H689 C697 0.930 . S
H690 C698 0.930 . S
H691 C699 0.930 . S
H692 C702 0.930 . S
H693 C703 0.930 . S
C694 H688 0.930 . S
C694 C695 1.355 . S
C694 C696 1.415 . S
C695 C694 1.355 . S
C695 C697 1.419 . S
C696 C694 1.415 . S
C696 C701 1.425 . S
C696 C703 1.409 . S
C697 H689 0.930 . S
C697 C695 1.419 . S
C697 C698 1.362 . S
C698 H690 0.930 . S
C698 C697 1.362 . S
C698 C701 1.409 . S
C699 H691 0.930 . S
C699 C700 1.355 . S
C699 C701 1.415 . S
C700 C699 1.355 . S
C700 C702 1.419 . S
C701 C696 1.425 . S
C701 C698 1.409 . S
C701 C699 1.415 . S
C702 H692 0.930 . S
C702 C700 1.419 . S
C702 C703 1.362 . S
C703 H693 0.930 . S
C703 C696 1.409 . S
C703 C702 1.362 . S
H704 C710 0.930 . S
H705 C713 0.930 . S
H706 C714 0.930 . S
H707 C715 0.930 . S
H708 C718 0.930 . S
H709 C719 0.930 . S
C710 H704 0.930 . S
C710 C711 1.355 . S
C710 C712 1.415 . S
C711 C710 1.355 . S
C711 C713 1.419 . S
C712 C710 1.415 . S
C712 C717 1.425 . S
C712 C719 1.409 . S
C713 H705 0.930 . S
C713 C711 1.419 . S
C713 C714 1.362 . S
C714 H706 0.930 . S
C714 C713 1.362 . S
C714 C717 1.409 . S
C715 H707 0.930 . S
C715 C716 1.355 . S
C715 C717 1.415 . S
C716 C715 1.355 . S
C716 C718 1.419 . S
C717 C712 1.425 . S
C717 C714 1.409 . S
C717 C715 1.415 . S
C718 H708 0.930 . S
C718 C716 1.419 . S
C718 C719 1.362 . S
C719 H709 0.930 . S
C719 C712 1.409 . S
C719 C718 1.362 . S
H720 C726 0.930 . S
H721 C729 0.930 . S
H722 C730 0.930 . S
H723 C731 0.930 . S
H724 C734 0.930 . S
H725 C735 0.930 . S
C726 H720 0.930 . S
C726 C727 1.355 . S
C726 C728 1.415 . S
C727 C726 1.355 . S
C727 C729 1.419 . S
C728 C726 1.415 . S
C728 C733 1.425 . S
C728 C735 1.409 . S
C729 H721 0.930 . S
C729 C727 1.419 . S
C729 C730 1.362 . S
C730 H722 0.930 . S
C730 C729 1.362 . S
C730 C733 1.409 . S
C731 H723 0.930 . S
C731 C732 1.355 . S
C731 C733 1.415 . S
C732 C731 1.355 . S
C732 C734 1.419 . S
C733 C728 1.425 . S
C733 C730 1.409 . S
C733 C731 1.415 . S
C734 H724 0.930 . S
C734 C732 1.419 . S
C734 C735 1.362 . S
C735 H725 0.930 . S
C735 C728 1.409 . S
C735 C734 1.362 . S
H736 C742 0.930 . S
H737 C745 0.930 . S
H738 C746 0.930 . S
H739 C747 0.930 . S
H740 C750 0.930 . S
H741 C751 0.930 . S
C742 H736 0.930 . S
C742 C743 1.355 . S
C742 C744 1.415 . S
C743 C742 1.355 . S
C743 C745 1.419 . S
C744 C742 1.415 . S
C744 C749 1.425 . S
C744 C751 1.409 . S
C745 H737 0.930 . S
C745 C743 1.419 . S
C745 C746 1.362 . S
C746 H738 0.930 . S
C746 C745 1.362 . S
C746 C749 1.409 . S
C747 H739 0.930 . S
C747 C748 1.355 . S
C747 C749 1.415 . S
C748 C747 1.355 . S
C748 C750 1.419 . S
C749 C744 1.425 . S
C749 C746 1.409 . S
C749 C747 1.415 . S
C750 H740 0.930 . S
C750 C748 1.419 . S
C750 C751 1.362 . S
C751 H741 0.930 . S
C751 C744 1.409 . S
C751 C750 1.362 . S
H752 C758 0.930 . S
H753 C761 0.930 . S
H754 C762 0.930 . S
H755 C763 0.930 . S
H756 C766 0.930 . S
H757 C767 0.930 . S
C758 H752 0.930 . S
C758 C759 1.355 . S
C758 C760 1.415 . S
C759 C758 1.355 . S
C759 C761 1.419 . S
C760 C758 1.415 . S
C760 C765 1.425 . S
C760 C767 1.409 . S
C761 H753 0.930 . S
C761 C759 1.419 . S
C761 C762 1.362 . S
C762 H754 0.930 . S
C762 C761 1.362 . S
C762 C765 1.409 . S
C763 H755 0.930 . S
C763 C764 1.355 . S
C763 C765 1.415 . S
C764 C763 1.355 . S
C764 C766 1.419 . S
C765 C760 1.425 . S
C765 C762 1.409 . S
C765 C763 1.415 . S
C766 H756 0.930 . S
C766 C764 1.419 . S
C766 C767 1.362 . S
C767 H757 0.930 . S
C767 C760 1.409 . S
C767 C766 1.362 . S
H768 C774 0.930 . S
H769 C777 0.930 . S
H770 C778 0.930 . S
H771 C779 0.930 1_554 S
H772 C782 0.930 . S
H773 C783 0.930 . S
C774 H768 0.930 . S
C774 C775 1.355 . S
C774 C776 1.415 1_655 S
C775 C774 1.355 . S
C775 C777 1.419 1_556 S
C776 C774 1.415 1_455 S
C776 C781 1.425 . S
C776 C783 1.409 . S
C777 H769 0.930 . S
C777 C775 1.419 1_554 S
C777 C778 1.362 1_655 S
C778 H770 0.930 . S
C778 C777 1.362 1_455 S
C778 C781 1.409 1_554 S
C779 H771 0.930 1_556 S
C779 C780 1.355 . S
C779 C781 1.415 . S
C780 C779 1.355 . S
C780 C782 1.419 . S
C781 C776 1.425 . S
C781 C778 1.409 1_556 S
C781 C779 1.415 . S
C782 H772 0.930 . S
C782 C780 1.419 . S
C782 C783 1.362 . S
C783 H773 0.930 . S
C783 C776 1.409 . S
C783 C782 1.362 . S
H784 C790 0.930 . S
H785 C793 0.930 . S
H786 C794 0.930 . S
H787 C795 0.930 . S
H788 C798 0.930 . S
H789 C799 0.930 . S
C790 H784 0.930 . S
C790 C791 1.355 . S
C790 C792 1.415 . S
C791 C790 1.355 . S
C791 C793 1.419 . S
C792 C790 1.415 . S
C792 C797 1.425 . S
C792 C799 1.409 . S
C793 H785 0.930 . S
C793 C791 1.419 . S
C793 C794 1.362 . S
C794 H786 0.930 . S
C794 C793 1.362 . S
C794 C797 1.409 . S
C795 H787 0.930 . S
C795 C796 1.355 . S
C795 C797 1.415 . S
C796 C795 1.355 . S
C796 C798 1.419 . S
C797 C792 1.425 . S
C797 C794 1.409 . S
C797 C795 1.415 . S
C798 H788 0.930 . S
C798 C796 1.419 . S
C798 C799 1.362 . S
C799 H789 0.930 . S
C799 C792 1.409 . S
C799 C798 1.362 . S
H800 C806 0.930 . S
H801 C809 0.930 . S
H802 C810 0.930 . S
H803 C811 0.930 . S
H804 C814 0.930 . S
H805 C815 0.930 . S
C806 H800 0.930 . S
C806 C807 1.355 . S
C806 C808 1.415 . S
C807 C806 1.355 . S
C807 C809 1.419 . S
C808 C806 1.415 . S
C808 C813 1.425 . S
C808 C815 1.409 . S
C809 H801 0.930 . S
C809 C807 1.419 . S
C809 C810 1.362 . S
C810 H802 0.930 . S
C810 C809 1.362 . S
C810 C813 1.409 . S
C811 H803 0.930 . S
C811 C812 1.355 . S
C811 C813 1.415 . S
C812 C811 1.355 . S
C812 C814 1.419 . S
C813 C808 1.425 . S
C813 C810 1.409 . S
C813 C811 1.415 . S
C814 H804 0.930 . S
C814 C812 1.419 . S
C814 C815 1.362 . S
C815 H805 0.930 . S
C815 C808 1.409 . S
C815 C814 1.362 . S
H816 C822 0.930 . S
H817 C825 0.930 . S
H818 C826 0.930 1_556 S
H819 C827 0.930 1_556 S
H820 C830 0.930 . S
H821 C831 0.930 . S
C822 H816 0.930 . S
C822 C823 1.355 . S
C822 C824 1.415 1_455 S
C823 C822 1.355 . S
C823 C825 1.419 . S
C824 C822 1.415 1_655 S
C824 C829 1.425 . S
C824 C831 1.409 . S
C825 H817 0.930 . S
C825 C823 1.419 . S
C825 C826 1.362 1_455 S
C826 H818 0.930 1_554 S
C826 C825 1.362 1_655 S
C826 C829 1.409 . S
C827 H819 0.930 1_554 S
C827 C828 1.355 . S
C827 C829 1.415 . S
C828 C827 1.355 . S
C828 C830 1.419 . S
C829 C824 1.425 . S
C829 C826 1.409 . S
C829 C827 1.415 . S
C830 H820 0.930 . S
C830 C828 1.419 . S
C830 C831 1.362 . S
C831 H821 0.930 . S
C831 C824 1.409 . S
C831 C830 1.362 . S
H832 C838 0.930 . S
H833 C841 0.930 . S
H834 C842 0.930 . S
H835 C843 0.930 . S
H836 C846 0.930 . S
H837 C847 0.930 . S
C838 H832 0.930 . S
C838 C839 1.355 . S
C838 C840 1.415 . S
C839 C838 1.355 . S
C839 C841 1.419 . S
C840 C838 1.415 . S
C840 C845 1.425 . S
C840 C847 1.409 . S
C841 H833 0.930 . S
C841 C839 1.419 . S
C841 C842 1.362 . S
C842 H834 0.930 . S
C842 C841 1.362 . S
C842 C845 1.409 . S
C843 H835 0.930 . S
C843 C844 1.355 . S
C843 C845 1.415 . S
C844 C843 1.355 . S
C844 C846 1.419 . S
C845 C840 1.425 . S
C845 C842 1.409 . S
C845 C843 1.415 . S
C846 H836 0.930 . S
C846 C844 1.419 . S
C846 C847 1.362 . S
C847 H837 0.930 . S
C847 C840 1.409 . S
C847 C846 1.362 . S
H848 C854 0.930 . S
H849 C857 0.930 . S
H850 C858 0.930 . S
H851 C859 0.930 . S
H852 C862 0.930 . S
H853 C863 0.930 . S
C854 H848 0.930 . S
C854 C855 1.355 . S
C854 C856 1.415 . S
C855 C854 1.355 . S
C855 C857 1.419 . S
C856 C854 1.415 . S
C856 C861 1.425 . S
C856 C863 1.409 . S
C857 H849 0.930 . S
C857 C855 1.419 . S
C857 C858 1.362 . S
C858 H850 0.930 . S
C858 C857 1.362 . S
C858 C861 1.409 . S
C859 H851 0.930 . S
C859 C860 1.355 . S
C859 C861 1.415 . S
C860 C859 1.355 . S
C860 C862 1.419 . S
C861 C856 1.425 . S
C861 C858 1.409 . S
C861 C859 1.415 . S
C862 H852 0.930 . S
C862 C860 1.419 . S
C862 C863 1.362 . S
C863 H853 0.930 . S
C863 C856 1.409 . S
C863 C862 1.362 . S
H864 C870 0.930 . S
H865 C873 0.930 . S
H866 C874 0.930 . S
H867 C875 0.930 . S
H868 C878 0.930 . S
H869 C879 0.930 . S
C870 H864 0.930 . S
C870 C871 1.355 . S
C870 C872 1.415 . S
C871 C870 1.355 . S
C871 C873 1.419 . S
C872 C870 1.415 . S
C872 C877 1.425 . S
C872 C879 1.409 . S
C873 H865 0.930 . S
C873 C871 1.419 . S
C873 C874 1.362 . S
C874 H866 0.930 . S
C874 C873 1.362 . S
C874 C877 1.409 . S
C875 H867 0.930 . S
C875 C876 1.355 . S
C875 C877 1.415 . S
C876 C875 1.355 . S
C876 C878 1.419 . S
C877 C872 1.425 . S
C877 C874 1.409 . S
C877 C875 1.415 . S
C878 H868 0.930 . S
C878 C876 1.419 . S
C878 C879 1.362 . S
C879 H869 0.930 . S
C879 C872 1.409 . S
C879 C878 1.362 . S
H880 C886 0.930 . S
H881 C889 0.930 1_554 S
H882 C890 0.930 . S
H883 C891 0.930 . S
H884 C894 0.930 . S
H885 C895 0.930 . S
C886 H880 0.930 . S
C886 C887 1.355 . S
C886 C888 1.415 . S
C887 C886 1.355 . S
C887 C889 1.419 . S
C888 C886 1.415 . S
C888 C893 1.425 . S
C888 C895 1.409 . S
C889 H881 0.930 1_556 S
C889 C887 1.419 . S
C889 C890 1.362 . S
C890 H882 0.930 . S
C890 C889 1.362 . S
C890 C893 1.409 . S
C891 H883 0.930 . S
C891 C892 1.355 . S
C891 C893 1.415 . S
C892 C891 1.355 . S
C892 C894 1.419 . S
C893 C888 1.425 . S
C893 C890 1.409 . S
C893 C891 1.415 . S
C894 H884 0.930 . S
C894 C892 1.419 . S
C894 C895 1.362 . S
C895 H885 0.930 . S
C895 C888 1.409 . S
C895 C894 1.362 . S
H896 C902 0.930 1_554 S
H897 C905 0.930 . S
H898 C906 0.930 . S
H899 C907 0.930 . S
H900 C910 0.930 . S
H901 C911 0.930 1_554 S
C902 H896 0.930 1_556 S
C902 C903 1.355 . S
C902 C904 1.415 . S
C903 C902 1.355 . S
C903 C905 1.419 . S
C904 C902 1.415 . S
C904 C909 1.425 . S
C904 C911 1.409 . S
C905 H897 0.930 . S
C905 C903 1.419 . S
C905 C906 1.362 . S
C906 H898 0.930 . S
C906 C905 1.362 . S
C906 C909 1.409 . S
C907 H899 0.930 . S
C907 C908 1.355 . S
C907 C909 1.415 . S
C908 C907 1.355 . S
C908 C910 1.419 . S
C909 C904 1.425 . S
C909 C906 1.409 . S
C909 C907 1.415 . S
C910 H900 0.930 . S
C910 C908 1.419 . S
C910 C911 1.362 . S
C911 H901 0.930 1_556 S
C911 C904 1.409 . S
C911 C910 1.362 . S
H912 C918 0.930 . S
H913 C921 0.930 . S
H914 C922 0.930 . S
H915 C923 0.930 . S
H916 C926 0.930 . S
H917 C927 0.930 . S
C918 H912 0.930 . S
C918 C919 1.355 . S
C918 C920 1.415 . S
C919 C918 1.355 . S
C919 C921 1.419 . S
C920 C918 1.415 . S
C920 C925 1.425 . S
C920 C927 1.409 . S
C921 H913 0.930 . S
C921 C919 1.419 . S
C921 C922 1.362 . S
C922 H914 0.930 . S
C922 C921 1.362 . S
C922 C925 1.409 . S
C923 H915 0.930 . S
C923 C924 1.355 . S
C923 C925 1.415 . S
C924 C923 1.355 . S
C924 C926 1.419 . S
C925 C920 1.425 . S
C925 C922 1.409 . S
C925 C923 1.415 . S
C926 H916 0.930 . S
C926 C924 1.419 . S
C926 C927 1.362 . S
C927 H917 0.930 . S
C927 C920 1.409 . S
C927 C926 1.362 . S
H928 C934 0.930 . S
H929 C937 0.930 . S
H930 C938 0.930 . S
H931 C939 0.930 . S
H932 C942 0.930 . S
H933 C943 0.930 . S
C934 H928 0.930 . S
C934 C935 1.355 . S
C934 C936 1.415 . S
C935 C934 1.355 . S
C935 C937 1.419 . S
C936 C934 1.415 . S
C936 C941 1.425 . S
C936 C943 1.409 . S
C937 H929 0.930 . S
C937 C935 1.419 . S
C937 C938 1.362 . S
C938 H930 0.930 . S
C938 C937 1.362 . S
C938 C941 1.409 . S
C939 H931 0.930 . S
C939 C940 1.355 . S
C939 C941 1.415 . S
C940 C939 1.355 . S
C940 C942 1.419 . S
C941 C936 1.425 . S
C941 C938 1.409 . S
C941 C939 1.415 . S
C942 H932 0.930 . S
C942 C940 1.419 . S
C942 C943 1.362 . S
C943 H933 0.930 . S
C943 C936 1.409 . S
C943 C942 1.362 . S
H944 C950 0.930 . S
H945 C953 0.930 . S
H946 C954 0.930 . S
H947 C955 0.930 . S
H948 C958 0.930 . S
H949 C959 0.930 . S
C950 H944 0.930 . S
C950 C951 1.355 . S
C950 C952 1.415 . S
C951 C950 1.355 . S
C951 C953 1.419 . S
C952 C950 1.415 . S
C952 C957 1.425 . S
C952 C959 1.409 . S
C953 H945 0.930 . S
C953 C951 1.419 . S
C953 C954 1.362 . S
C954 H946 0.930 . S
C954 C953 1.362 . S
C954 C957 1.409 . S
C955 H947 0.930 . S
C955 C956 1.355 . S
C955 C957 1.415 . S
C956 C955 1.355 . S
C956 C958 1.419 . S
C957 C952 1.425 . S
C957 C954 1.409 . S
C957 C955 1.415 . S
C958 H948 0.930 . S
C958 C956 1.419 . S
C958 C959 1.362 . S
C959 H949 0.930 . S
C959 C952 1.409 . S
C959 C958 1.362 . S
H960 C966 0.930 . S
H961 C969 0.930 . S
H962 C970 0.930 . S
H963 C971 0.930 . S
H964 C974 0.930 . S
H965 C975 0.930 . S
C966 H960 0.930 . S
C966 C967 1.355 . S
C966 C968 1.415 1_565 S
C967 C966 1.355 . S
C967 C969 1.419 . S
C968 C966 1.415 1_545 S
C968 C973 1.425 . S
C968 C975 1.409 . S
C969 H961 0.930 . S
C969 C967 1.419 . S
C969 C970 1.362 1_565 S
C970 H962 0.930 . S
C970 C969 1.362 1_545 S
C970 C973 1.409 . S
C971 H963 0.930 . S
C971 C972 1.355 . S
C971 C973 1.415 . S
C972 C971 1.355 . S
C972 C974 1.419 . S
C973 C968 1.425 . S
C973 C970 1.409 . S
C973 C971 1.415 . S
C974 H964 0.930 . S
C974 C972 1.419 . S
C974 C975 1.362 . S
C975 H965 0.930 . S
C975 C968 1.409 . S
C975 C974 1.362 . S
H976 C982 0.930 . S
H977 C985 0.930 1_554 S
H978 C986 0.930 . S
H979 C987 0.930 . S
H980 C990 0.930 . S
H981 C991 0.930 . S
C982 H976 0.930 . S
C982 C983 1.355 . S
C982 C984 1.415 . S
C983 C982 1.355 . S
C983 C985 1.419 . S
C984 C982 1.415 . S
C984 C989 1.425 . S
C984 C991 1.409 . S
C985 H977 0.930 1_556 S
C985 C983 1.419 . S
C985 C986 1.362 . S
C986 H978 0.930 . S
C986 C985 1.362 . S
C986 C989 1.409 . S
C987 H979 0.930 . S
C987 C988 1.355 . S
C987 C989 1.415 . S
C988 C987 1.355 . S
C988 C990 1.419 . S
C989 C984 1.425 . S
C989 C986 1.409 . S
C989 C987 1.415 . S
C990 H980 0.930 . S
C990 C988 1.419 . S
C990 C991 1.362 . S
C991 H981 0.930 . S
C991 C984 1.409 . S
C991 C990 1.362 . S
H992 C998 0.930 . S
H993 C1001 0.930 . S
H994 C1002 0.930 . S
H995 C1003 0.930 . S
H996 C1006 0.930 . S
H997 C1007 0.924 1_565 S
C998 H992 0.930 . S
C998 C999 1.355 . S
C998 C1000 1.415 . S
C999 C998 1.355 . S
C999 C1001 1.419 . S
C1000 C998 1.415 . S
C1000 C1005 1.425 . S
C1000 C1007 1.392 1_565 S
C1001 H993 0.930 . S
C1001 C999 1.419 . S
C1001 C1002 1.362 . S
C1002 H994 0.930 . S
C1002 C1001 1.362 . S
C1002 C1005 1.409 . S
C1003 H995 0.930 . S
C1003 C1004 1.355 . S
C1003 C1005 1.415 1_545 S
C1004 C1003 1.355 . S
C1004 C1006 1.419 . S
C1005 C1000 1.425 . S
C1005 C1002 1.409 . S
C1005 C1003 1.415 1_565 S
C1006 H996 0.930 . S
C1006 C1004 1.419 . S
C1006 C1007 1.386 . S
C1007 H997 0.924 1_545 S
C1007 C1000 1.392 1_545 S
C1007 C1006 1.386 . S
H1008 C1014 0.930 . S
H1009 C1017 0.930 . S
H1010 C1018 0.930 . S
H1011 C1019 0.930 . S
H1012 C1022 0.930 . S
H1013 C1023 0.930 . S
C1014 H1008 0.930 . S
C1014 C1015 1.355 . S
C1014 C1016 1.415 . S
C1015 C1014 1.355 . S
C1015 C1017 1.419 . S
C1016 C1014 1.415 . S
C1016 C1021 1.425 . S
C1016 C1023 1.409 . S
C1017 H1009 0.930 . S
C1017 C1015 1.419 . S
C1017 C1018 1.362 . S
C1018 H1010 0.930 . S
C1018 C1017 1.362 . S
C1018 C1021 1.409 . S
C1019 H1011 0.930 . S
C1019 C1020 1.355 . S
C1019 C1021 1.415 . S
C1020 C1019 1.355 . S
C1020 C1022 1.419 . S
C1021 C1016 1.425 . S
C1021 C1018 1.409 . S
C1021 C1019 1.415 . S
C1022 H1012 0.930 . S
C1022 C1020 1.419 . S
C1022 C1023 1.362 . S
C1023 H1013 0.930 . S
C1023 C1016 1.409 . S
C1023 C1022 1.362 . S
H1024 C1030 0.930 . S
H1025 C1033 0.930 . S
H1026 C1034 0.930 . S
H1027 C1035 0.930 . S
H1028 C1038 0.930 . S
H1029 C1039 0.930 . S
C1030 H1024 0.930 . S
C1030 C1031 1.355 . S
C1030 C1032 1.415 1_565 S
C1031 C1030 1.355 . S
C1031 C1033 1.419 . S
C1032 C1030 1.415 1_545 S
C1032 C1037 1.425 . S
C1032 C1039 1.409 . S
C1033 H1025 0.930 . S
C1033 C1031 1.419 . S
C1033 C1034 1.362 1_565 S
C1034 H1026 0.930 . S
C1034 C1033 1.362 1_545 S
C1034 C1037 1.409 . S
C1035 H1027 0.930 . S
C1035 C1036 1.355 . S
C1035 C1037 1.415 . S
C1036 C1035 1.355 . S
C1036 C1038 1.419 . S
C1037 C1032 1.425 . S
C1037 C1034 1.409 . S
C1037 C1035 1.415 . S
C1038 H1028 0.930 . S
C1038 C1036 1.419 . S
C1038 C1039 1.362 . S
C1039 H1029 0.930 . S
C1039 C1032 1.409 . S
C1039 C1038 1.362 . S
H1040 C1046 0.930 . S
H1041 C1049 0.930 . S
H1042 C1050 0.930 . S
H1043 C1051 0.930 . S
H1044 C1054 0.930 . S
H1045 C1055 0.930 . S
C1046 H1040 0.930 . S
C1046 C1047 1.355 . S
C1046 C1048 1.415 . S
C1047 C1046 1.355 . S
C1047 C1049 1.419 . S
C1048 C1046 1.415 . S
C1048 C1053 1.425 . S
C1048 C1055 1.409 . S
C1049 H1041 0.930 . S
C1049 C1047 1.419 . S
C1049 C1050 1.362 . S
C1050 H1042 0.930 . S
C1050 C1049 1.362 . S
C1050 C1053 1.409 . S
C1051 H1043 0.930 . S
C1051 C1052 1.355 . S
C1051 C1053 1.415 . S
C1052 C1051 1.355 . S
C1052 C1054 1.419 . S
C1053 C1048 1.425 . S
C1053 C1050 1.409 . S
C1053 C1051 1.415 . S
C1054 H1044 0.930 . S
C1054 C1052 1.419 . S
C1054 C1055 1.362 . S
C1055 H1045 0.930 . S
C1055 C1048 1.409 . S
C1055 C1054 1.362 . S
H1056 C1062 0.930 . S
H1057 C1065 0.926 1_554 S
H1058 C1066 0.930 . S
H1059 C1067 0.930 . S
H1060 C1070 0.930 . S
H1061 C1071 0.930 . S
C1062 H1056 0.930 . S
C1062 C1063 1.355 . S
C1062 C1064 1.415 . S
C1063 C1062 1.355 . S
C1063 C1065 1.419 . S
C1064 C1062 1.415 . S
C1064 C1069 1.425 . S
C1064 C1071 1.409 1_545 S
C1065 H1057 0.926 1_556 S
C1065 C1063 1.419 . S
C1065 C1066 1.362 1_556 S
C1066 H1058 0.930 . S
C1066 C1065 1.362 1_554 S
C1066 C1069 1.409 1_554 S
C1067 H1059 0.930 . S
C1067 C1068 1.355 1_554 S
C1067 C1069 1.415 1_564 S
C1068 C1067 1.355 1_556 S
C1068 C1070 1.419 . S
C1069 C1064 1.425 . S
C1069 C1066 1.409 1_556 S
C1069 C1067 1.415 1_546 S
C1070 H1060 0.930 . S
C1070 C1068 1.419 . S
C1070 C1071 1.362 . S
C1071 H1061 0.930 . S
C1071 C1064 1.409 1_565 S
C1071 C1070 1.362 . S
H1072 C1078 0.930 . S
H1073 C1081 0.930 . S
H1074 C1082 0.930 . S
H1075 C1083 0.930 . S
H1076 C1086 0.930 . S
H1077 C1087 0.930 . S
C1078 H1072 0.930 . S
C1078 C1079 1.355 . S
C1078 C1080 1.415 . S
C1079 C1078 1.355 . S
C1079 C1081 1.419 . S
C1080 C1078 1.415 . S
C1080 C1085 1.425 . S
C1080 C1087 1.409 . S
C1081 H1073 0.930 . S
C1081 C1079 1.419 . S
C1081 C1082 1.362 . S
C1082 H1074 0.930 . S
C1082 C1081 1.362 . S
C1082 C1085 1.409 . S
C1083 H1075 0.930 . S
C1083 C1084 1.355 . S
C1083 C1085 1.415 . S
C1084 C1083 1.355 . S
C1084 C1086 1.419 . S
C1085 C1080 1.425 . S
C1085 C1082 1.409 . S
C1085 C1083 1.415 . S
C1086 H1076 0.930 . S
C1086 C1084 1.419 . S
C1086 C1087 1.362 . S
C1087 H1077 0.930 . S
C1087 C1080 1.409 . S
C1087 C1086 1.362 . S
C327 C12 1.600 . S
C332 C9 1.600 . S
C343 C32 1.574 . S
C348 C29 1.574 . S
C359 C52 1.548 . S
C364 C49 1.548 1_554 S
C375 C72 1.592 . S
C380 C69 1.592 . S
C391 C89 1.567 . S
C396 C92 1.567 . S
C407 C112 1.621 . S
C412 C109 1.621 . S
C423 C129 1.585 . S
C428 C132 1.585 . S
C439 C149 1.609 1_554 S
C444 C152 1.609 . S
C455 C169 1.573 . S
C460 C172 1.573 . S
C471 C192 1.551 . S
C476 C189 1.551 . S
C487 C212 1.575 1_556 S
C492 C209 1.575 . S
C503 C229 1.613 . S
C508 C232 1.613 . S
C519 C252 1.564 . S
C524 C249 1.564 . S
C535 C272 1.583 . S
C540 C269 1.583 . S
C551 C292 1.602 . S
C556 C289 1.602 . S
C567 C309 1.629 1_556 S
C572 C312 1.629 . S
C583 C18 1.791 . S
C588 C222 1.779 . S
C599 C38 1.991 . S
C604 C319 2.005 . S
C615 C58 1.415 . S
C620 C182 1.385 . S
C631 C78 1.532 . S
C636 C262 1.517 . S
C647 C84 1.692 . S
C652 C279 1.685 . S
C663 C239 1.789 . S
C668 C104 1.761 . S
C679 C124 1.380 . S
C684 C302 1.406 . S
C695 C144 1.514 . S
C700 C199 1.514 . S
C711 C64 1.697 . S
C716 C179 1.731 . S
C727 C24 1.822 . S
C732 C219 1.828 . S
C743 C242 1.717 . S
C748 C118 1.703 . S
C759 C158 1.679 . S
C764 C282 1.655 . S
C775 C162 1.486 . S
C780 C98 1.511 . S
C791 C138 1.407 . S
C796 C202 1.426 . S
C807 C44 1.495 . S
C812 C299 1.508 . S
C823 C4 1.526 . S
C828 C259 1.556 . S
C839 C19 1.582 . S
C844 C82 1.552 . S
C855 C39 1.731 . S
C860 C102 1.653 . S
C871 C59 1.310 . S
C876 C122 1.256 . S
C887 C79 1.526 . S
C892 C142 1.476 . S
C903 C244 1.564 . S
C908 C178 1.674 . S
C919 C264 1.345 . S
C924 C198 1.397 . S
C935 C218 1.637 . S
C940 C284 1.542 . S
C951 C318 1.947 . S
C956 C238 1.945 . S
C967 C22 1.735 . S
C972 C159 1.821 . S
C983 C99 1.542 . S
C988 C42 1.492 . S
C999 C119 1.625 . S
C1004 C62 1.519 . S
C1015 C2 1.265 . S
C1020 C139 1.340 . S
C1031 C304 1.173 . S
C1036 C184 1.208 . S
C1047 C258 1.505 . S
C1052 C204 1.394 . S
C1063 C278 1.672 . S
C1068 C224 1.571 1_556 S
C1079 C298 1.451 . S
C1084 C164 1.338 . S
