# Generated by pormake.
# Topology snp, (6)-cn, num edge types: 1
# Building blocks:
#     Node 0, Type 0, BuildingBlock: PAMTUU_clean_sbu_0, # of connection points: 6
#     Node 1, Type 0, BuildingBlock: PAMTUU_clean_sbu_0, # of connection points: 6
#     Node 2, Type 0, BuildingBlock: PAMTUU_clean_sbu_0, # of connection points: 6
#     Node 3, Type 0, BuildingBlock: PAMTUU_clean_sbu_0, # of connection points: 6
#     Edge 4, Type (0, 0), BuildingBlock: ZUJKAS_clean_linker_0, # of connection points: 2
#     Edge 5, Type (0, 0), BuildingBlock: ZUJKAS_clean_linker_0, # of connection points: 2
#     Edge 6, Type (0, 0), BuildingBlock: ZUJKAS_clean_linker_0, # of connection points: 2
#     Edge 7, Type (0, 0), BuildingBlock: ZUJKAS_clean_linker_0, # of connection points: 2
#     Edge 8, Type (0, 0), BuildingBlock: ZUJKAS_clean_linker_0, # of connection points: 2
#     Edge 9, Type (0, 0), BuildingBlock: ZUJKAS_clean_linker_0, # of connection points: 2
#     Edge 10, Type (0, 0), BuildingBlock: ZUJKAS_clean_linker_0, # of connection points: 2
#     Edge 11, Type (0, 0), BuildingBlock: ZUJKAS_clean_linker_0, # of connection points: 2
#     Edge 12, Type (0, 0), BuildingBlock: ZUJKAS_clean_linker_0, # of connection points: 2
#     Edge 13, Type (0, 0), BuildingBlock: ZUJKAS_clean_linker_0, # of connection points: 2
#     Edge 14, Type (0, 0), BuildingBlock: ZUJKAS_clean_linker_0, # of connection points: 2
#     Edge 15, Type (0, 0), BuildingBlock: ZUJKAS_clean_linker_0, # of connection points: 2
# Relax obj value: 0.347
# Max RMSD: 0.223
# Mean RMSD: 0.212
data_MOF--net-snp--node1-PAMTUU_clean_sbu_0--edge1-ZUJKAS_clean_linker_0
_symmetry_space_group_name_H-M    P1
_symmetry_Int_Tables_number       1
_symmetry_cell_setting            triclinic
loop_
_symmetry_equiv_pos_as_xyz
'x, y, z'
_cell_length_a     32.333628
_cell_length_b     32.557279
_cell_length_c     41.460939
_cell_angle_alpha  96.38597
_cell_angle_beta   88.085101
_cell_angle_gamma 98.642503
loop_
_atom_site_label
_atom_site_type_symbol
_atom_site_fract_x
_atom_site_fract_y
_atom_site_fract_z
_atom_type_partial_charge
Tb0 Tb 0.22173 0.9523 0.18496 0.0
Tb1 Tb 0.26807 0.04014 0.22055 0.0
C2 C 0.17234 0.02267 0.21968 0.0
C3 C 0.20833 0.85923 0.12677 0.0
C4 C 0.23824 0.82296 0.06747 0.0
C5 C 0.19618 0.81246 0.07718 0.0
C6 C 0.18132 0.83059 0.10663 0.0
C7 C 0.25074 0.86819 0.11791 0.0
C8 C 0.2656 0.85007 0.0886 0.0
C9 C 0.19182 0.88299 0.15519 0.0
O10 O 0.2403 0.99121 0.14567 0.0
O11 O 0.24423 0.0559 0.17473 0.0
O12 O 0.31255 0.01684 0.18584 0.0
O13 O 0.28857 0.9479 0.18712 0.0
O14 O 0.27238 0.10435 0.23561 0.0
O15 O 0.32174 0.06967 0.24549 0.0
O16 O 0.26139 0.99455 0.25697 0.0
O17 O 0.20584 0.94855 0.23593 0.0
O18 O 0.17394 0.99319 0.19531 0.0
O19 O 0.20457 0.03642 0.23804 0.0
C20 C 0.23908 0.03165 0.14689 0.0
O21 O 0.21375 0.88677 0.18145 0.0
O22 O 0.18112 0.91854 0.14964 0.0
C23 C 0.31879 0.97792 0.18121 0.0
C24 C 0.3036 0.11861 0.2869 0.0
C25 C 0.30164 0.13714 0.35489 0.0
C26 C 0.33758 0.15095 0.33668 0.0
C27 C 0.33854 0.14164 0.3029 0.0
C28 C 0.26748 0.1055 0.30491 0.0
C29 C 0.2664 0.11491 0.3385 0.0
C30 C 0.30609 0.10437 0.25213 0.0
C31 C 0.22949 0.96473 0.26061 0.0
H32 H 0.17424 0.79209 0.06122 0.0
H33 H 0.14845 0.82362 0.11303 0.0
H34 H 0.27207 0.89043 0.13308 0.0
H35 H 0.29821 0.85845 0.08191 0.0
H36 H 0.36532 0.16787 0.34859 0.0
H37 H 0.36689 0.15145 0.28938 0.0
H38 H 0.2403 0.08721 0.29308 0.0
H39 H 0.2379 0.10454 0.35163 0.0
Tb40 Tb 0.06398 0.24762 0.70833 0.0
Tb41 Tb 0.02378 0.23677 0.6305 0.0
C42 C 0.07669 0.32076 0.66291 0.0
C43 C 0.10459 0.22542 0.79193 0.0
C44 C 0.12833 0.19051 0.84809 0.0
C45 C 0.14998 0.22839 0.8387 0.0
C46 C 0.13831 0.24547 0.81118 0.0
C47 C 0.0835 0.18696 0.80063 0.0
C48 C 0.09534 0.16969 0.82813 0.0
C49 C 0.08867 0.24827 0.76638 0.0
O50 O 0.00791 0.27763 0.71179 0.0
O51 O 0.9794 0.26978 0.65977 0.0
O52 O 0.98011 0.20167 0.66168 0.0
O53 O 0.03 0.18606 0.69411 0.0
O54 O 0.00316 0.19227 0.59117 0.0
O55 O 0.00935 0.25889 0.58616 0.0
O56 O 0.07254 0.19834 0.6341 0.0
O57 O 0.11411 0.23603 0.67398 0.0
O58 O 0.07159 0.30984 0.69271 0.0
O59 O 0.06987 0.2937 0.63662 0.0
C60 C 0.97915 0.28279 0.69119 0.0
O61 O 0.05019 0.23699 0.75692 0.0
O62 O 0.11326 0.26025 0.74246 0.0
C63 C 0.99095 0.18156 0.685 0.0
C64 C 0.98506 0.20988 0.53759 0.0
C65 C 0.96047 0.1874 0.47102 0.0
C66 C 0.95677 0.15741 0.49351 0.0
C67 C 0.96896 0.1684 0.52604 0.0
C68 C 0.98828 0.24011 0.51546 0.0
C69 C 0.9763 0.22909 0.48279 0.0
C70 C -0.00029 0.22079 0.57208 0.0
C71 C 0.10943 0.21105 0.64687 0.0
H72 H 0.17596 0.24526 0.85281 0.0
H73 H 0.15498 0.27531 0.80554 0.0
H74 H 0.05699 0.17075 0.78676 0.0
H75 H 0.07752 0.14069 0.8344 0.0
H76 H 0.94404 0.12518 0.48617 0.0
H77 H 0.96577 0.14414 0.54221 0.0
H78 H 0.00077 0.27232 0.52325 0.0
H79 H 0.98039 0.25332 0.4666 0.0
Tb80 Tb 0.83883 0.97208 0.08178 0.0
Tb81 Tb 0.81227 0.05812 0.06132 0.0
C82 C 0.90505 0.04984 0.0643 0.0
C83 C 0.83819 0.87845 0.12366 0.0
C84 C 0.81078 0.83907 0.17916 0.0
C85 C 0.84906 0.83256 0.16372 0.0
C86 C 0.86264 0.85217 0.13618 0.0
C87 C 0.79902 0.88339 0.13791 0.0
C88 C 0.78531 0.86365 0.16535 0.0
C89 C 0.85568 0.90431 0.09837 0.0
O90 O 0.8264 0.00754 0.12797 0.0
O91 O 0.83554 0.07364 0.11165 0.0
O92 O 0.76154 0.0294 0.0902 0.0
O93 O 0.77061 0.96184 0.07699 0.0
O94 O 0.82196 0.12274 0.05711 0.0
O95 O 0.76354 0.08407 1.04327 0.0
O96 O 0.81236 0.01462 1.01601 0.0
O97 O 0.85663 0.9717 1.03105 0.0
O98 O 0.89538 0.01816 0.08175 0.0
O99 O 0.87722 0.06315 0.04758 0.0
C100 C 0.83493 0.04842 0.13474 0.0
O101 O 0.83085 0.9065 0.07469 0.0
O102 O 0.87513 0.94095 0.10918 0.0
C103 C 0.74637 0.98975 0.08697 0.0
C104 C 0.78696 0.13978 1.01251 0.0
C105 C 0.78716 0.17654 0.95414 0.0
C106 C 0.78797 0.20132 0.98421 0.0
C107 C 0.7877 0.18301 1.01317 0.0
C108 C 0.78657 0.11499 0.98252 0.0
C109 C 0.78644 0.1332 0.9536 0.0
C110 C 0.78606 0.12085 1.04314 0.0
C111 C 0.83778 0.98655 1.0084 0.0
H112 H 0.86972 0.81435 0.17399 0.0
H113 H 0.89312 0.84838 0.12558 0.0
H114 H 0.77983 0.90385 0.12861 0.0
H115 H 0.75549 0.86889 0.17646 0.0
H116 H 0.78848 0.23479 0.9853 0.0
H117 H 0.78801 0.20258 1.03611 0.0
H118 H 0.78634 0.08156 0.98146 0.0
H119 H 0.78657 0.11347 0.93077 0.0
Tb120 Tb 0.07852 0.85 0.64935 0.0
Tb121 Tb 0.99175 0.80045 0.61741 0.0
C122 C 0.00269 0.89496 0.63317 0.0
C123 C 0.17339 0.86624 0.69702 0.0
C124 C 0.21881 0.83765 0.74457 0.0
C125 C 0.23393 0.87528 0.73147 0.0
C126 C 0.21129 0.8895 0.70786 0.0
C127 C 0.15893 0.82806 0.70913 0.0
C128 C 0.18137 0.81391 0.7327 0.0
C129 C 0.14794 0.88196 0.67392 0.0
O130 O 0.03909 0.83173 0.69097 0.0
O131 O 0.9747 0.8232 0.66722 0.0
O132 O 0.01664 0.75726 0.64467 0.0
O133 O 0.08506 0.78378 0.63852 0.0
O134 O 0.92675 0.79271 0.6123 0.0
O135 O 0.96345 0.74851 0.58711 0.0
O136 O 0.03807 0.80907 0.57719 0.0
O137 O 0.08029 0.86701 0.6001 0.0
O138 O 0.03459 0.89495 0.65208 0.0
O139 O 0.99298 0.86492 0.6098 0.0
C140 C 0.99819 0.8314 0.69324 0.0
O141 O 0.14413 0.86013 0.64563 0.0
O142 O 0.112 0.89095 0.68534 0.0
C143 C 0.05599 0.75242 0.64375 0.0
C144 C 0.90551 0.7632 0.56038 0.0
C145 C 0.86525 0.76787 0.50219 0.0
C146 C 0.85539 0.73245 0.51908 0.0
C147 C 0.87535 0.73022 0.54809 0.0
C148 C 0.91556 0.79852 0.54358 0.0
C149 C 0.89548 0.80091 0.51477 0.0
C150 C 0.92672 0.76058 0.59054 0.0
C151 C 0.0669 0.84199 0.57435 0.0
H152 H 0.26284 0.89408 0.73989 0.0
H153 H 0.22293 0.91894 0.69855 0.0
H154 H 0.12963 0.80973 0.70096 0.0
H155 H 0.16833 0.78525 0.74261 0.0
H156 H 0.83214 0.70664 0.50993 0.0
H157 H 0.86736 0.70273 0.56085 0.0
H158 H 0.93909 0.82413 0.55268 0.0
H159 H 0.90425 0.82824 0.50195 0.0
H160 H 0.97951 0.02859 0.07938 0.0
H161 H 0.0332 0.07462 0.11118 0.0
H162 H 0.97117 0.1804 0.09979 0.0
H163 H 0.91791 0.1346 0.06696 0.0
H164 H 0.08657 0.16286 0.11245 0.0
H165 H 0.94969 0.14792 0.19711 0.0
H166 H 0.9457 0.11253 0.16034 0.0
H167 H 0.94763 0.16765 0.15827 0.0
C168 C 0.97857 0.06193 0.08216 0.0
C169 C 0.94435 0.07793 0.0713 0.0
C170 C 0.00924 0.08829 0.10025 0.0
C171 C 0.0055 0.1307 0.10821 0.0
C172 C 0.9744 0.14777 0.09388 0.0
H173 H 0.1715 0.09998 0.25282 0.0
H174 H 0.12887 0.15126 0.23929 0.0
C175 C 0.94409 0.12146 0.0751 0.0
C176 C 0.02729 0.15217 0.13731 0.0
H177 H 0.01358 0.13131 0.2158 0.0
C178 C 0.07102 0.15884 0.13569 0.0
C179 C 0.00678 0.14836 0.16777 0.0
C180 C 0.95981 0.14403 0.17122 0.0
C181 C 0.09419 0.15185 0.16195 0.0
C182 C 0.07249 0.13826 0.18994 0.0
C183 C 0.02985 0.14096 0.19395 0.0
C184 C 0.089 0.10712 0.20692 0.0
C185 C 0.14059 0.15134 0.15734 0.0
C186 C 0.07866 0.06495 0.19466 0.0
C187 C 0.10329 0.03566 0.20175 0.0
C188 C 0.13828 0.04824 0.22142 0.0
C189 C 0.14495 0.08934 0.23722 0.0
C190 C 0.12066 0.11883 0.22965 0.0
H191 H 0.15352 0.16828 0.13655 0.0
H192 H 0.15742 0.16577 0.17964 0.0
H193 H 0.14663 0.1185 0.15264 0.0
H194 H 0.0541 0.05552 0.17702 0.0
H195 H 0.09711 1.00421 0.18956 0.0
H196 H 0.91872 0.87656 0.62218 0.0
H197 H 0.86311 0.9079 0.6524 0.0
H198 H 0.956 0.99845 0.7039 0.0
H199 H 0.01161 0.96602 0.67502 0.0
H200 H 0.88819 0.96568 0.74533 0.0
H201 H 0.87373 0.99406 0.62999 0.0
H202 H 0.82525 0.01521 0.63484 0.0
H203 H 0.8262 0.96107 0.63966 0.0
C204 C 0.92731 0.90358 0.63961 0.0
C205 C 0.96966 0.91929 0.64593 0.0
C206 C 0.89538 0.9211 0.65712 0.0
C207 C 0.9053 0.95519 0.68064 0.0
C208 C 0.94755 0.97151 0.68632 0.0
H209 H 0.00144 0.11921 0.72111 0.0
H210 H 0.94753 0.06796 0.74068 0.0
C211 C 0.97938 0.95359 0.66933 0.0
C212 C 0.87295 0.97784 0.69728 0.0
H213 H 0.83884 0.0658 0.67955 0.0
C214 C 0.87556 0.98687 0.73118 0.0
C215 C 0.85275 1.00368 0.67974 0.0
C216 C 0.84384 0.99307 0.64407 0.0
C217 C 0.87041 0.02682 0.74571 0.0
C218 C 0.86484 0.0574 0.72527 0.0
C219 C 0.84765 0.04344 0.69458 0.0
C220 C 0.89516 0.09673 0.72651 0.0
C221 C 0.87923 0.03826 0.78125 0.0
C222 C 0.88475 0.13156 0.71312 0.0
C223 C 0.91609 0.15998 0.70042 0.0
C224 C 0.95837 0.15477 0.70183 0.0
C225 C 0.96906 0.12339 0.71903 0.0
C226 C 0.93782 0.09448 0.73104 0.0
H227 H 0.86002 0.01528 0.79558 0.0
H228 H 0.91251 0.03657 0.78588 0.0
H229 H 0.87233 0.07016 0.78973 0.0
H230 H 0.85232 0.1345 0.70959 0.0
H231 H 0.90707 0.1849 0.68823 0.0
H232 H 0.6883 0.04168 0.10116 0.0
H233 H 0.61433 0.02386 0.11372 0.0
H234 H 0.62653 0.893 0.10315 0.0
H235 H 0.70173 0.91067 0.09046 0.0
H236 H 0.55323 0.96942 0.07225 0.0
H237 H 0.56607 0.91547 0.19404 0.0
H238 H 0.60882 0.94813 0.17605 0.0
H239 H 0.59598 0.89428 0.16045 0.0
C240 C 0.67562 0.00899 0.10156 0.0
C241 C 0.70121 0.97759 0.09479 0.0
C242 C 0.63311 0.99889 0.10872 0.0
C243 C 0.61487 0.95718 0.10956 0.0
C244 C 0.64007 0.92548 0.10292 0.0
H245 H 0.34745 0.90156 0.17029 0.0
H246 H 0.41743 0.88845 0.15037 0.0
C247 C 0.68296 0.9356 0.09554 0.0
C248 C 0.56925 0.94797 0.11683 0.0
H249 H 0.49917 0.92445 0.17811 0.0
C250 C 0.5413 0.95878 0.09513 0.0
C251 C 0.55365 0.93394 0.14662 0.0
C252 C 0.58248 0.92235 0.17085 0.0
C253 C 0.49862 0.95787 0.10303 0.0
C254 C 0.48347 0.94654 0.13371 0.0
C255 C 0.51084 0.93323 0.15464 0.0
C256 C 0.44091 0.95339 0.1458 0.0
C257 C 0.47028 0.97038 0.07884 0.0
C258 C 0.43112 0.99417 0.15026 0.0
C259 C 0.39158 1.00174 0.16165 0.0
C260 C 0.36062 0.9687 0.16903 0.0
C261 C 0.37048 0.92771 0.16478 0.0
C262 C 0.41044 0.92017 0.15345 0.0
H263 H 0.48291 0.96565 0.05367 0.0
H264 H 0.43837 0.95231 0.07999 0.0
H265 H 0.46777 1.00406 0.08448 0.0
H266 H 0.45431 0.02038 0.14507 0.0
H267 H 0.3854 0.03374 0.16467 0.0
H268 H 0.09387 0.35807 0.60653 0.0
H269 H 0.1032 0.43286 0.60041 0.0
H270 H 0.0906 0.46069 0.7041 0.0
H271 H 0.08253 0.38657 0.71053 0.0
H272 H 0.04792 0.48384 0.61413 0.0
H273 H 0.18742 0.54742 0.68688 0.0
H274 H 0.17316 0.49213 0.67521 0.0
H275 H 0.14913 0.51729 0.71037 0.0
C276 C 0.09401 0.38014 0.62811 0.0
C277 C 0.08757 0.36608 0.65904 0.0
C278 C 0.09929 0.42297 0.62456 0.0
C279 C 0.09827 0.45269 0.65182 0.0
C280 C 0.09278 0.43871 0.68273 0.0
H281 H 0.00456 0.68546 0.66365 0.0
H282 H 0.01893 0.61425 0.6641 0.0
C283 C 0.08784 0.39604 0.68633 0.0
C284 C 0.09864 0.49776 0.64789 0.0
H285 H 0.14113 0.59681 0.67775 0.0
C286 C 0.0688 0.50845 0.62769 0.0
C287 C 0.1262 0.53018 0.66513 0.0
C288 C 0.16106 0.52114 0.68531 0.0
C289 C 0.06443 0.55031 0.62546 0.0
C290 C 0.08983 0.58258 0.6446 0.0
C291 C 0.12113 0.57212 0.66352 0.0
C292 C 0.08275 0.62695 0.64636 0.0
C293 C 0.03236 0.5595 0.60268 0.0
C294 C 0.11455 0.65854 0.63785 0.0
C295 C 0.10656 0.6998 0.63794 0.0
C296 C 0.06661 0.7101 0.64656 0.0
C297 C 0.03552 0.67865 0.65638 0.0
C298 C 0.04359 0.63773 0.65648 0.0
H299 H 0.02565 0.53382 0.58271 0.0
H300 H 0.00265 0.56248 0.61633 0.0
H301 H 0.04297 0.58911 0.5919 0.0
H302 H 0.14519 0.65106 0.63031 0.0
H303 H 0.13124 0.72328 0.63038 0.0
H304 H 0.18932 0.25315 0.64911 0.0
H305 H 0.24543 0.24356 0.60887 0.0
H306 H 0.16876 0.13514 0.56174 0.0
H307 H 0.11265 0.14455 0.60148 0.0
H308 H 0.26501 0.13483 0.56611 0.0
H309 H 0.21196 0.26866 0.51403 0.0
H310 H 0.22423 0.27344 0.55647 0.0
H311 H 0.17887 0.23875 0.54164 0.0
C312 C 0.18499 0.22649 0.6308 0.0
C313 C 0.14646 0.19988 0.62813 0.0
C314 C 0.21701 0.22114 0.60786 0.0
C315 C 0.21093 0.18886 0.58234 0.0
C316 C 0.17395 0.16018 0.58136 0.0
H317 H 0.26673 0.08429 0.3984 0.0
H318 H 0.25665 0.10049 0.45651 0.0
C319 C 0.14187 0.16573 0.60398 0.0
C320 C 0.23941 0.18828 0.55381 0.0
H321 H 0.25398 0.22839 0.48114 0.0
C322 C 0.26356 0.15584 0.54776 0.0
C323 C 0.23756 0.21597 0.53014 0.0
C324 C 0.21176 0.25121 0.5356 0.0
C325 C 0.28425 0.14903 0.51776 0.0
C326 C 0.27937 0.17451 0.493 0.0
C327 C 0.25765 0.20876 0.50003 0.0
C328 C 0.29111 0.16316 0.45864 0.0
C329 C 0.31015 0.11393 0.51267 0.0
C330 C 0.3133 0.19317 0.44018 0.0
C331 C 0.31803 0.18437 0.40658 0.0
C332 C 0.30054 0.14542 0.39085 0.0
C333 C 0.27996 0.11487 0.40964 0.0
C334 C 0.27492 0.1238 0.44307 0.0
H335 H 0.32472 0.10958 0.53571 0.0
H336 H 0.28958 0.08434 0.50467 0.0
H337 H 0.33521 0.11975 0.49405 0.0
H338 H 0.32565 0.22392 0.45162 0.0
H339 H 0.33379 0.20869 0.3928 0.0
H340 H 0.8991 0.25789 0.67073 0.0
H341 H 0.83792 0.25308 0.70702 0.0
H342 H 0.91102 0.3298 0.78253 0.0
H343 H 0.97195 0.33465 0.74651 0.0
H344 H 0.85171 0.21108 0.7573 0.0
H345 H 0.79548 0.35706 0.80704 0.0
H346 H 0.82326 0.3522 0.76853 0.0
H347 H 0.85153 0.36417 0.80597 0.0
C348 C 0.90149 0.27575 0.69442 0.0
C349 C 0.9405 0.29576 0.70617 0.0
C350 C 0.86643 0.27287 0.71519 0.0
C351 C 0.86992 0.29075 0.7476 0.0
C352 C 0.90729 0.31611 0.75758 0.0
H353 H 0.83898 0.24563 0.93829 0.0
H354 H 0.84692 0.27319 0.88561 0.0
C355 C 0.94233 0.31864 0.73699 0.0
C356 C 0.84067 0.27395 0.77281 0.0
H357 H 0.795 0.30413 0.84516 0.0
C358 C 0.83792 0.23112 0.77601 0.0
C359 C 0.82305 0.30015 0.79725 0.0
C360 C 0.82315 0.34589 0.79432 0.0
C361 C 0.82196 0.21458 0.80443 0.0
C362 C 0.80719 0.2415 0.83 0.0
C363 C 0.80662 0.28361 0.82565 0.0
C364 C 0.79779 0.22785 0.8627 0.0
C365 C 0.82459 0.16931 0.80786 0.0
C366 C 0.76676 0.19394 0.86754 0.0
C367 C 0.76253 0.17782 0.89755 0.0
C368 C 0.78878 0.19585 0.92333 0.0
C369 C 0.81819 0.23125 0.91892 0.0
C370 C 0.82271 0.24703 0.88885 0.0
H371 H 0.84385 0.15509 0.78819 0.0
H372 H 0.83821 0.16617 0.83154 0.0
H373 H 0.79269 0.15112 0.80682 0.0
H374 H 0.74663 0.17923 0.84788 0.0
H375 H 0.73913 0.15091 0.9005 0.0
H376 H 0.83325 0.83371 0.48264 0.0
H377 H 0.80902 0.84045 0.42849 0.0
H378 H 0.82943 0.71419 0.39682 0.0
H379 H 0.85348 0.70719 0.45099 0.0
H380 H 0.86123 0.83415 0.3753 0.0
H381 H 0.71678 0.71903 0.35651 0.0
H382 H 0.73793 0.73695 0.39625 0.0
H383 H 0.76041 0.69783 0.37027 0.0
C384 C 0.83196 0.80721 0.46424 0.0
C385 C 0.84548 0.77003 0.47089 0.0
C386 C 0.81791 0.811 0.43343 0.0
C387 C 0.81705 0.77768 0.40879 0.0
C388 C 0.82892 0.73993 0.41571 0.0
H389 H 0.82038 0.76401 0.20012 0.0
H390 H 0.81593 0.74692 0.25637 0.0
C391 C 0.8428 0.73603 0.44661 0.0
C392 C 0.80913 0.78439 0.37502 0.0
H393 H 0.74792 0.74807 0.30934 0.0
C394 C 0.83615 0.81564 0.36101 0.0
C395 C 0.77667 0.75984 0.35641 0.0
C396 C 0.74602 0.72675 0.37067 0.0
C397 C 0.83207 0.82265 0.32869 0.0
C398 C 0.79971 0.79811 0.31004 0.0
C399 C 0.77257 0.76683 0.32391 0.0
C400 C 0.79459 0.80463 0.27588 0.0
C401 C 0.86299 0.85568 0.31448 0.0
C402 C 0.78257 0.84198 0.26838 0.0
C403 C 0.78546 0.85201 0.23649 0.0
C404 C 0.80029 0.82471 0.21155 0.0
C405 C 0.80944 0.78591 0.21889 0.0
C406 C 0.8066 0.77595 0.25089 0.0
H407 H 0.89069 0.86607 0.33008 0.0
H408 H 0.87387 0.84386 0.28998 0.0
H409 H 0.8475 0.88332 0.31192 0.0
H410 H 0.77314 0.86439 0.28747 0.0
H411 H 0.7786 0.88233 0.23179 0.0
H412 H 0.23015 0.75869 0.75631 0.0
H413 H 0.25005 0.73742 0.80781 0.0
H414 H 0.27348 0.86655 0.84781 0.0
H415 H 0.25275 0.88809 0.79703 0.0
H416 H 0.33262 0.80758 0.86611 0.0
H417 H 0.16155 0.7564 0.88434 0.0
H418 H 0.18687 0.73733 0.84755 0.0
H419 H 0.18075 0.79144 0.8546 0.0
C420 C 0.24014 0.7826 0.77593 0.0
C421 C 0.23922 0.82507 0.77272 0.0
C422 C 0.25176 0.77037 0.80518 0.0
C423 C 0.26284 0.80045 0.83152 0.0
C424 C 0.26519 0.84294 0.8276 0.0
H425 H 0.28476 0.87152 1.02643 0.0
H426 H 0.29853 0.85443 0.969 0.0
C427 C 0.25342 0.85519 0.79848 0.0
C428 C 0.26601 0.78822 0.86445 0.0
H429 H 0.20404 0.7627 0.92942 0.0
C430 C 0.30474 0.7968 0.87988 0.0
C431 C 0.2296 0.77373 0.88212 0.0
C432 C 0.18719 0.76422 0.86654 0.0
C433 C 0.30762 0.79356 0.91318 0.0
C434 C 0.2706 0.78276 0.9315 0.0
C435 C 0.23241 0.77107 0.91544 0.0
C436 C 0.26925 0.78987 0.96744 0.0
C437 C 0.3501 0.80298 0.92852 0.0
C438 C 0.2479 0.75939 0.9859 0.0
C439 C 0.23938 0.76936 1.01892 0.0
C440 C 0.25217 0.80995 1.03397 0.0
C441 C 0.27523 0.83973 1.01575 0.0
C442 C 0.2834 0.82989 0.98283 0.0
H443 H 0.3746 0.79314 0.91117 0.0
H444 H 0.35799 0.83721 0.93501 0.0
H445 H 0.35096 0.78708 0.95079 0.0
H446 H 0.23632 0.72842 0.97446 0.0
H447 H 0.22173 0.74575 1.03243 0.0
H448 H 0.82351 0.01954 0.9511 0.0
H449 H 0.84498 0.9951 0.8954 0.0
H450 H 0.89701 0.89545 0.93194 0.0
H451 H 0.87567 0.919 0.98678 0.0
H452 H 0.92558 0.98599 0.86896 0.0
H453 H 0.82479 0.83232 0.85873 0.0
H454 H 0.81657 0.87388 0.88981 0.0
H455 H 0.85558 0.84111 0.89471 0.0
C456 C 0.839 0.9921 0.94718 0.0
C457 C 0.84749 0.97128 0.97374 0.0
C458 C 0.85153 0.97824 0.91528 0.0
C459 C 0.87225 0.94289 0.9091 0.0
C460 C 0.88044 0.92218 0.93561 0.0
H461 H 0.03631 0.85951 0.7519 0.0
H462 H 0.00458 0.88828 0.80235 0.0
C463 C 0.86827 0.93601 0.96724 0.0
C464 C 0.88656 0.92775 0.87546 0.0
H465 H 0.88231 0.84 0.82082 0.0
C466 C 0.91577 0.95419 0.85835 0.0
C467 C 0.87361 0.88637 0.86104 0.0
C468 C 0.8406 0.85689 0.87685 0.0
C469 C 0.93348 0.9399 0.82825 0.0
C470 C 0.92222 0.89783 0.8148 0.0
C471 C 0.89169 0.872 0.83119 0.0
C472 C 0.94174 0.87999 0.78387 0.0
C473 C 0.96401 0.97004 0.8109 0.0
C474 C 0.91712 0.8645 0.75661 0.0
C475 C 0.93519 0.84776 0.72767 0.0
C476 C 0.97846 0.84548 0.72517 0.0
C477 C 0.00293 0.86032 0.75275 0.0
C478 C 0.98482 0.87729 0.78164 0.0
H479 H 0.96242 1.00303 0.82048 0.0
H480 H 0.99628 0.96373 0.81427 0.0
H481 H 0.95788 0.96604 0.78445 0.0
H482 H 0.88385 0.86597 0.75753 0.0
H483 H 0.91519 0.8372 0.70704 0.0
H484 H 0.16956 0.90019 0.275 0.0
H485 H 0.14487 0.88009 0.32799 0.0
H486 H 0.23622 0.97672 0.37449 0.0
H487 H 0.26068 0.99778 0.32116 0.0
H488 H 0.18091 0.85081 0.37626 0.0
H489 H 0.13195 1.00258 0.42343 0.0
H490 H 0.14644 0.9907 0.38142 0.0
H491 H 0.18614 0.00627 0.41156 0.0
C492 C 0.18466 0.91731 0.29639 0.0
C493 C 0.21724 0.95084 0.29347 0.0
C494 C 0.17038 0.90563 0.32689 0.0
C495 C 0.18792 0.92715 0.35566 0.0
C496 C 0.22125 0.96003 0.35291 0.0
H497 H 0.13144 0.90306 0.56138 0.0
H498 H 0.16028 0.92175 0.50902 0.0
C499 C 0.23563 0.97181 0.32225 0.0
C500 C 0.17109 0.91471 0.38814 0.0
H501 H 0.12694 0.95116 0.46001 0.0
C502 C 0.16906 0.87284 0.39451 0.0
C503 C 0.15542 0.94314 0.41226 0.0
C504 C 0.15466 0.98809 0.40683 0.0
C505 C 0.15263 0.85888 0.42409 0.0
C506 C 0.13669 0.88723 0.44812 0.0
C507 C 0.13891 0.92916 0.44181 0.0
C508 C 0.11866 0.87453 0.48023 0.0
C509 C 0.15361 0.81401 0.42958 0.0
C510 C 0.08509 0.84167 0.48214 0.0
C511 C 0.06843 0.83059 0.51243 0.0
C512 C 0.0846 0.85235 0.54169 0.0
C513 C 0.11795 0.88537 0.5396 0.0
C514 C 0.1346 0.89627 0.50946 0.0
H515 H 0.1771 0.79994 0.41349 0.0
H516 H 0.16091 0.81135 0.45518 0.0
H517 H 0.12248 0.79549 0.42408 0.0
H518 H 0.07127 0.82488 0.46017 0.0
H519 H 0.04256 0.80532 0.51288 0.0
H520 H 0.15267 0.23428 0.90712 0.0
H521 H 0.1714 0.20754 0.9567 0.0
H522 H 0.14692 0.0817 0.90986 0.0
H523 H 0.12885 0.10824 0.85988 0.0
H524 H 0.12493 0.15249 0.99669 0.0
H525 H 0.26397 0.08535 0.94569 0.0
H526 H 0.23962 0.12134 0.92518 0.0
H527 H 0.21669 0.06734 0.92357 0.0
C528 C 0.1517 0.20089 0.90704 0.0
C529 C 0.13948 0.17368 0.8789 0.0
C530 C 0.16218 0.18554 0.93572 0.0
C531 C 0.16134 0.14246 0.93731 0.0
C532 C 0.1487 0.11511 0.90944 0.0
H533 H 0.22421 0.99021 0.08584 0.0
H534 H 0.20487 0.0174 1.03678 0.0
C535 C 0.1379 0.13042 0.88077 0.0
C536 C 0.17329 0.12639 0.96809 0.0
H537 H 0.24268 0.07143 0.99898 0.0
C538 C 0.1508 0.13489 0.99714 0.0
C539 C 0.20694 0.10316 0.96911 0.0
C540 C 0.23351 0.09398 0.93934 0.0
C541 C 0.1603 0.12029 1.02661 0.0
C542 C 0.19429 0.09741 1.02774 0.0
C543 C 0.21674 0.08894 0.99862 0.0
C544 C 0.2066 0.08123 0.05846 0.0
C545 C 0.13278 0.12855 0.056 0.0
C546 C 0.21501 0.10772 0.08756 0.0
C547 C 0.22611 0.09206 0.11601 0.0
C548 C 0.22964 0.04943 0.11626 0.0
C549 C 0.22203 0.0232 0.08693 0.0
C550 C 0.21085 0.03882 0.05861 0.0
H551 H 0.1014 0.13423 0.04902 0.0
H552 H 0.12858 0.10204 0.07106 0.0
H553 H 0.14753 0.15696 0.07104 0.0
H554 H 0.21323 0.14074 0.08835 0.0
H555 H 0.23166 0.11343 0.1379 0.0
H556 H 0.8549 1.00572 0.18414 0.0
H557 H 0.8763 0.03274 0.23936 0.0
H558 H 0.86302 0.15716 0.21968 0.0
H559 H 0.84208 0.13034 0.16382 0.0
H560 H 0.94611 0.0953 0.25992 0.0
H561 H 0.79505 0.14271 0.30594 0.0
H562 H 0.7987 0.1069 0.26976 0.0
H563 H 0.8153 0.16186 0.26861 0.0
C564 C 0.85611 0.03887 0.19142 0.0
C565 C 0.84622 0.06564 0.16918 0.0
C566 C 0.86862 0.05435 0.22321 0.0
C567 C 0.87103 0.09706 0.23422 0.0
C568 C 0.86089 0.12398 0.21223 0.0
H569 H 0.92748 0.2337 0.42825 0.0
H570 H 0.90854 0.21372 0.37143 0.0
C571 C 0.84898 0.10857 0.18011 0.0
C572 C 0.88493 0.11303 0.2684 0.0
H573 H 0.8515 0.1569 0.34196 0.0
C574 C 0.92535 0.10876 0.27783 0.0
C575 C 0.85829 0.13105 0.29201 0.0
C576 C 0.81428 0.13577 0.28385 0.0
C577 C 0.93979 0.122 0.30974 0.0
C578 C 0.91276 0.13902 0.33373 0.0
C579 C 0.87249 0.14383 0.32407 0.0
C580 C 0.92534 0.15156 0.36882 0.0
C581 C 0.98446 0.11852 0.31701 0.0
C582 C 0.94092 0.12354 0.38722 0.0
C583 C 0.95243 0.13515 0.41986 0.0
C584 C 0.94827 0.17512 0.43569 0.0
C585 C 0.93209 0.20294 0.41729 0.0
C586 C 0.92077 0.19134 0.38456 0.0
H587 H 0.00442 0.11871 0.29466 0.0
H588 H 0.99813 0.14447 0.33495 0.0
H589 H 0.98535 0.08849 0.32708 0.0
H590 H 0.94392 0.09226 0.37646 0.0
H591 H 0.96504 0.11261 0.43253 0.0
loop_
_geom_bond_atom_site_label_1
_geom_bond_atom_site_label_2
_geom_bond_distance
_geom_bond_site_symmetry_2
_ccdc_geom_bond_type
Tb0 C9 2.764 . S
Tb0 O10 2.325 1_565 S
Tb0 O13 2.303 1_565 S
Tb0 O17 2.322 . S
Tb0 O18 2.349 . S
Tb0 O21 2.415 . S
Tb0 O22 2.399 . S
Tb1 O11 2.322 . S
Tb1 O12 2.349 . S
Tb1 O14 2.415 . S
Tb1 O15 2.399 . S
Tb1 O16 2.325 . S
Tb1 O19 2.303 . S
Tb1 C30 2.764 . S
C2 O18 1.261 1_545 S
C2 O19 1.257 . S
C3 C6 1.358 . S
C3 C7 1.332 . S
C3 C9 1.504 . S
C4 C5 1.373 . S
C4 C8 1.308 . S
C5 C4 1.373 . S
C5 C6 1.429 1_556 S
C5 H32 0.932 . S
C6 C3 1.358 . S
C6 C5 1.429 1_554 S
C6 H33 0.930 . S
C7 C3 1.332 . S
C7 C8 1.394 1_554 S
C7 H34 0.932 . S
C8 C4 1.308 . S
C8 C7 1.394 1_556 S
C8 H35 0.929 . S
C9 Tb0 2.764 . S
C9 C3 1.504 . S
C9 O21 1.239 . S
C9 O22 1.263 . S
O10 Tb0 2.325 1_545 S
O10 C20 1.236 . S
O11 Tb1 2.322 . S
O11 C20 1.257 . S
O12 Tb1 2.349 . S
O12 C23 1.261 . S
O13 Tb0 2.303 1_545 S
O13 C23 1.257 . S
O14 Tb1 2.415 . S
O14 C30 1.239 . S
O15 Tb1 2.399 . S
O15 C30 1.263 . S
O16 Tb1 2.325 . S
O16 C31 1.236 1_545 S
O17 Tb0 2.322 . S
O17 C31 1.257 . S
O18 Tb0 2.349 . S
O18 C2 1.261 1_565 S
O19 Tb1 2.303 . S
O19 C2 1.257 . S
C20 O10 1.236 . S
C20 O11 1.257 . S
O21 Tb0 2.415 . S
O21 C9 1.239 . S
O22 Tb0 2.399 . S
O22 C9 1.263 . S
C23 O12 1.261 . S
C23 O13 1.257 . S
C24 C27 1.358 . S
C24 C28 1.332 . S
C24 C30 1.504 . S
C25 C26 1.373 . S
C25 C29 1.308 . S
C26 C25 1.373 . S
C26 C27 1.429 . S
C26 H36 0.932 . S
C27 C24 1.358 . S
C27 C26 1.429 . S
C27 H37 0.930 . S
C28 C24 1.332 . S
C28 C29 1.394 . S
C28 H38 0.932 . S
C29 C25 1.308 . S
C29 C28 1.394 . S
C29 H39 0.929 . S
C30 Tb1 2.764 . S
C30 O14 1.239 . S
C30 O15 1.263 . S
C30 C24 1.504 . S
C31 O16 1.236 1_565 S
C31 O17 1.257 . S
H32 C5 0.932 . S
H33 C6 0.930 . S
H34 C7 0.932 . S
H35 C8 0.929 . S
H36 C26 0.932 . S
H37 C27 0.930 . S
H38 C28 0.932 . S
H39 C29 0.929 . S
Tb40 C49 2.764 . S
Tb40 O50 2.325 . S
Tb40 O53 2.303 . S
Tb40 O57 2.322 . S
Tb40 O58 2.349 . S
Tb40 O61 2.415 . S
Tb40 O62 2.399 . S
Tb41 O51 2.322 . S
Tb41 O52 2.349 . S
Tb41 O54 2.414 1_455 S
Tb41 O55 2.399 1_455 S
Tb41 O56 2.325 . S
Tb41 O59 2.303 . S
Tb41 C70 2.764 1_455 S
C42 O58 1.261 . S
C42 O59 1.257 . S
C43 C46 1.358 . S
C43 C47 1.332 . S
C43 C49 1.504 . S
C44 C45 1.373 . S
C44 C48 1.308 . S
C45 C44 1.373 . S
C45 C46 1.429 . S
C45 H72 0.932 . S
C46 C43 1.358 . S
C46 C45 1.429 . S
C46 H73 0.930 . S
C47 C43 1.332 . S
C47 C48 1.394 . S
C47 H74 0.932 . S
C48 C44 1.308 . S
C48 C47 1.394 . S
C48 H75 0.929 . S
C49 Tb40 2.764 . S
C49 C43 1.504 . S
C49 O61 1.239 . S
C49 O62 1.263 . S
O50 Tb40 2.325 . S
O50 C60 1.236 . S
O51 Tb41 2.322 . S
O51 C60 1.257 . S
O52 Tb41 2.349 . S
O52 C63 1.261 . S
O53 Tb40 2.303 . S
O53 C63 1.257 . S
O54 Tb41 2.414 1_655 S
O54 C70 1.239 . S
O55 Tb41 2.399 1_655 S
O55 C70 1.263 . S
O56 Tb41 2.325 . S
O56 C71 1.236 . S
O57 Tb40 2.322 . S
O57 C71 1.257 . S
O58 Tb40 2.349 . S
O58 C42 1.261 . S
O59 Tb41 2.303 . S
O59 C42 1.257 . S
C60 O50 1.236 . S
C60 O51 1.257 . S
O61 Tb40 2.415 . S
O61 C49 1.239 . S
O62 Tb40 2.399 . S
O62 C49 1.263 . S
C63 O52 1.261 . S
C63 O53 1.257 . S
C64 C67 1.358 . S
C64 C68 1.332 . S
C64 C70 1.504 . S
C65 C66 1.373 . S
C65 C69 1.308 . S
C66 C65 1.373 . S
C66 C67 1.429 . S
C66 H76 0.932 . S
C67 C64 1.358 . S
C67 C66 1.429 . S
C67 H77 0.930 . S
C68 C64 1.332 . S
C68 C69 1.394 . S
C68 H78 0.932 . S
C69 C65 1.308 . S
C69 C68 1.394 . S
C69 H79 0.929 . S
C70 Tb41 2.764 1_655 S
C70 O54 1.239 . S
C70 O55 1.263 . S
C70 C64 1.504 . S
C71 O56 1.236 . S
C71 O57 1.257 . S
H72 C45 0.932 . S
H73 C46 0.930 . S
H74 C47 0.932 . S
H75 C48 0.929 . S
H76 C66 0.932 . S
H77 C67 0.930 . S
H78 C68 0.932 . S
H79 C69 0.929 . S
Tb80 C89 2.764 . S
Tb80 O90 2.325 1_565 S
Tb80 O93 2.303 . S
Tb80 O97 2.322 . S
Tb80 O98 2.349 . S
Tb80 O101 2.415 . S
Tb80 O102 2.399 . S
Tb81 O91 2.322 . S
Tb81 O92 2.349 . S
Tb81 O94 2.415 1_554 S
Tb81 O95 2.399 1_554 S
Tb81 O96 2.325 1_545 S
Tb81 O99 2.303 . S
Tb81 C110 2.764 1_554 S
C82 O98 1.261 . S
C82 O99 1.257 1_565 S
C83 C86 1.358 . S
C83 C87 1.332 . S
C83 C89 1.504 . S
C84 C85 1.373 . S
C84 C88 1.308 . S
C85 C84 1.373 . S
C85 C86 1.429 . S
C85 H112 0.932 . S
C86 C83 1.358 . S
C86 C85 1.429 . S
C86 H113 0.930 . S
C87 C83 1.332 . S
C87 C88 1.394 . S
C87 H114 0.932 . S
C88 C84 1.308 . S
C88 C87 1.394 . S
C88 H115 0.929 . S
C89 Tb80 2.764 . S
C89 C83 1.504 . S
C89 O101 1.239 . S
C89 O102 1.263 . S
O90 Tb80 2.325 1_545 S
O90 C100 1.236 . S
O91 Tb81 2.322 . S
O91 C100 1.257 . S
O92 Tb81 2.349 . S
O92 C103 1.261 . S
O93 Tb80 2.303 . S
O93 C103 1.257 1_565 S
O94 Tb81 2.415 1_556 S
O94 C110 1.239 . S
O95 Tb81 2.399 1_556 S
O95 C110 1.263 . S
O96 Tb81 2.325 1_565 S
O96 C111 1.236 . S
O97 Tb80 2.322 . S
O97 C111 1.257 . S
O98 Tb80 2.349 . S
O98 C82 1.261 . S
O99 Tb81 2.303 . S
O99 C82 1.257 1_545 S
C100 O90 1.236 . S
C100 O91 1.257 . S
O101 Tb80 2.415 . S
O101 C89 1.239 . S
O102 Tb80 2.399 . S
O102 C89 1.263 . S
C103 O92 1.261 . S
C103 O93 1.257 1_545 S
C104 C107 1.358 . S
C104 C108 1.332 . S
C104 C110 1.504 . S
C105 C106 1.373 . S
C105 C109 1.308 . S
C106 C105 1.373 . S
C106 C107 1.429 . S
C106 H116 0.932 . S
C107 C104 1.358 . S
C107 C106 1.429 . S
C107 H117 0.930 . S
C108 C104 1.332 . S
C108 C109 1.394 . S
C108 H118 0.932 . S
C109 C105 1.308 . S
C109 C108 1.394 . S
C109 H119 0.929 . S
C110 Tb81 2.764 1_556 S
C110 O94 1.239 . S
C110 O95 1.263 . S
C110 C104 1.504 . S
C111 O96 1.236 . S
C111 O97 1.257 . S
H112 C85 0.932 . S
H113 C86 0.930 . S
H114 C87 0.932 . S
H115 C88 0.929 . S
H116 C106 0.932 . S
H117 C107 0.930 . S
H118 C108 0.932 . S
H119 C109 0.929 . S
Tb120 C129 2.764 . S
Tb120 O130 2.325 1_455 S
Tb120 O133 2.303 . S
Tb120 O137 2.322 . S
Tb120 O138 2.349 . S
Tb120 O141 2.415 . S
Tb120 O142 2.399 . S
Tb121 O131 2.322 . S
Tb121 O132 2.349 . S
Tb121 O134 2.415 . S
Tb121 O135 2.399 . S
Tb121 O136 2.325 1_655 S
Tb121 O139 2.303 . S
Tb121 C150 2.764 . S
C122 O138 1.261 . S
C122 O139 1.257 1_455 S
C123 C126 1.358 . S
C123 C127 1.332 . S
C123 C129 1.504 . S
C124 C125 1.373 . S
C124 C128 1.308 . S
C125 C124 1.373 . S
C125 C126 1.429 . S
C125 H152 0.932 . S
C126 C123 1.358 . S
C126 C125 1.429 . S
C126 H153 0.930 . S
C127 C123 1.332 . S
C127 C128 1.394 . S
C127 H154 0.932 . S
C128 C124 1.308 . S
C128 C127 1.394 . S
C128 H155 0.929 . S
C129 Tb120 2.764 . S
C129 C123 1.504 . S
C129 O141 1.239 . S
C129 O142 1.263 . S
O130 Tb120 2.325 1_655 S
O130 C140 1.236 . S
O131 Tb121 2.322 . S
O131 C140 1.257 . S
O132 Tb121 2.349 . S
O132 C143 1.261 . S
O133 Tb120 2.303 . S
O133 C143 1.257 1_455 S
O134 Tb121 2.415 . S
O134 C150 1.239 . S
O135 Tb121 2.399 . S
O135 C150 1.263 . S
O136 Tb121 2.325 1_455 S
O136 C151 1.236 . S
O137 Tb120 2.322 . S
O137 C151 1.257 . S
O138 Tb120 2.349 . S
O138 C122 1.261 . S
O139 Tb121 2.303 . S
O139 C122 1.257 1_655 S
C140 O130 1.236 . S
C140 O131 1.257 . S
O141 Tb120 2.415 . S
O141 C129 1.239 . S
O142 Tb120 2.399 . S
O142 C129 1.263 . S
C143 O132 1.261 . S
C143 O133 1.257 1_655 S
C144 C147 1.358 . S
C144 C148 1.332 . S
C144 C150 1.504 . S
C145 C146 1.373 . S
C145 C149 1.308 . S
C146 C145 1.373 . S
C146 C147 1.429 . S
C146 H156 0.932 . S
C147 C144 1.358 . S
C147 C146 1.429 . S
C147 H157 0.930 . S
C148 C144 1.332 . S
C148 C149 1.394 . S
C148 H158 0.932 . S
C149 C145 1.308 . S
C149 C148 1.394 . S
C149 H159 0.929 . S
C150 Tb121 2.764 . S
C150 O134 1.239 . S
C150 O135 1.263 . S
C150 C144 1.504 . S
C151 O136 1.236 . S
C151 O137 1.257 . S
H152 C125 0.932 . S
H153 C126 0.930 . S
H154 C127 0.932 . S
H155 C128 0.929 . S
H156 C146 0.932 . S
H157 C147 0.930 . S
H158 C148 0.932 . S
H159 C149 0.929 . S
H160 C168 0.929 . S
H161 C170 0.930 . S
H162 C172 0.930 . S
H163 C175 0.929 . S
H164 C178 0.930 . S
H165 C180 0.960 . S
H166 C180 0.960 . S
H167 C180 0.960 . S
C168 H160 0.929 . S
C168 C169 1.377 1_565 S
C168 C170 1.384 . S
C169 C168 1.377 1_545 S
C169 C175 1.390 . S
C170 H161 0.930 . S
C170 C168 1.384 . S
C170 C171 1.372 1_565 S
C171 C170 1.372 1_545 S
C171 C172 1.400 . S
C171 C176 1.490 . S
C172 H162 0.930 . S
C172 C171 1.400 . S
C172 C175 1.386 . S
H173 C189 0.930 . S
H174 C190 0.931 . S
C175 H163 0.929 . S
C175 C169 1.390 . S
C175 C172 1.386 . S
C176 C171 1.490 . S
C176 C178 1.395 1_645 S
C176 C179 1.403 1_655 S
H177 C183 0.930 . S
C178 H164 0.930 . S
C178 C176 1.395 1_465 S
C178 C181 1.403 . S
C179 C176 1.403 1_455 S
C179 C180 1.524 1_455 S
C179 C183 1.400 . S
C180 H165 0.960 . S
C180 H166 0.960 . S
C180 H167 0.960 . S
C180 C179 1.524 1_655 S
C181 C178 1.403 . S
C181 C182 1.392 1_565 S
C181 C185 1.495 . S
C182 C181 1.392 1_545 S
C182 C183 1.385 . S
C182 C184 1.478 . S
C183 H177 0.930 . S
C183 C179 1.400 . S
C183 C182 1.385 . S
C184 C182 1.478 . S
C184 C186 1.381 1_545 S
C184 C190 1.383 . S
C185 C181 1.495 . S
C185 H191 0.959 . S
C185 H192 0.961 . S
C185 H193 0.960 . S
C186 C184 1.381 1_565 S
C186 C187 1.394 . S
C186 H194 0.930 . S
C187 C186 1.394 . S
C187 C188 1.383 1_565 S
C187 H195 0.929 . S
C188 C187 1.383 1_545 S
C188 C189 1.377 . S
C189 H173 0.930 . S
C189 C188 1.377 . S
C189 C190 1.379 . S
C190 H174 0.931 . S
C190 C184 1.383 . S
C190 C189 1.379 . S
H191 C185 0.959 . S
H192 C185 0.961 . S
H193 C185 0.960 . S
H194 C186 0.930 . S
H195 C187 0.929 . S
H196 C204 0.929 . S
H197 C206 0.930 . S
H198 C208 0.930 . S
H199 C211 0.929 . S
H200 C214 0.930 . S
H201 C216 0.960 . S
H202 C216 0.960 . S
H203 C216 0.960 . S
C204 H196 0.929 . S
C204 C205 1.377 . S
C204 C206 1.384 . S
C205 C204 1.377 . S
C205 C211 1.390 1_655 S
C206 H197 0.930 . S
C206 C204 1.384 . S
C206 C207 1.372 1_655 S
C207 C206 1.372 1_455 S
C207 C208 1.400 . S
C207 C212 1.490 . S
C208 H198 0.930 . S
C208 C207 1.400 . S
C208 C211 1.386 . S
H209 C225 0.930 . S
H210 C226 0.931 . S
C211 H199 0.929 . S
C211 C205 1.390 1_455 S
C211 C208 1.386 . S
C212 C207 1.490 . S
C212 C214 1.395 1_455 S
C212 C215 1.403 . S
H213 C219 0.930 . S
C214 H200 0.930 . S
C214 C212 1.395 1_655 S
C214 C217 1.403 1_565 S
C215 C212 1.403 . S
C215 C216 1.524 . S
C215 C219 1.400 1_565 S
C216 H201 0.960 . S
C216 H202 0.960 . S
C216 H203 0.960 . S
C216 C215 1.524 . S
C217 C214 1.403 1_545 S
C217 C218 1.392 1_655 S
C217 C221 1.495 . S
C218 C217 1.392 1_455 S
C218 C219 1.385 . S
C218 C220 1.478 . S
C219 H213 0.930 . S
C219 C215 1.400 1_545 S
C219 C218 1.385 . S
C220 C218 1.478 . S
C220 C222 1.381 . S
C220 C226 1.383 . S
C221 C217 1.495 . S
C221 H227 0.959 . S
C221 H228 0.961 . S
C221 H229 0.960 . S
C222 C220 1.381 . S
C222 C223 1.394 . S
C222 H230 0.930 . S
C223 C222 1.394 . S
C223 C224 1.383 . S
C223 H231 0.929 . S
C224 C223 1.383 . S
C224 C225 1.377 . S
C225 H209 0.930 . S
C225 C224 1.377 . S
C225 C226 1.379 . S
C226 H210 0.931 . S
C226 C220 1.383 . S
C226 C225 1.379 . S
H227 C221 0.959 . S
H228 C221 0.961 . S
H229 C221 0.960 . S
H230 C222 0.930 . S
H231 C223 0.929 . S
H232 C240 0.927 1_565 S
H233 C242 0.930 . S
H234 C244 0.930 . S
H235 C247 0.929 . S
H236 C250 0.930 . S
H237 C252 0.960 . S
H238 C252 0.960 . S
H239 C252 0.960 . S
C240 H232 0.927 1_545 S
C240 C241 1.378 . S
C240 C242 1.385 . S
C241 C240 1.378 . S
C241 C247 1.390 . S
C242 H233 0.930 . S
C242 C240 1.385 . S
C242 C243 1.372 . S
C243 C242 1.372 . S
C243 C244 1.400 . S
C243 C248 1.490 . S
C244 H234 0.930 . S
C244 C243 1.400 . S
C244 C247 1.386 . S
H245 C261 0.930 . S
H246 C262 0.931 . S
C247 H235 0.929 . S
C247 C241 1.390 . S
C247 C244 1.386 . S
C248 C243 1.490 . S
C248 C250 1.395 . S
C248 C251 1.403 1_545 S
H249 C255 0.930 . S
C250 H236 0.930 . S
C250 C248 1.395 . S
C250 C253 1.403 . S
C251 C248 1.403 1_565 S
C251 C252 1.524 . S
C251 C255 1.400 . S
C252 H237 0.960 . S
C252 H238 0.960 . S
C252 H239 0.960 . S
C252 C251 1.524 . S
C253 C250 1.403 . S
C253 C254 1.392 . S
C253 C257 1.495 . S
C254 C253 1.392 . S
C254 C255 1.385 1_545 S
C254 C256 1.478 . S
C255 H249 0.930 . S
C255 C251 1.400 . S
C255 C254 1.385 1_565 S
C256 C254 1.478 . S
C256 C258 1.381 . S
C256 C262 1.383 . S
C257 C253 1.495 . S
C257 H263 0.959 . S
C257 H264 0.961 . S
C257 H265 0.960 . S
C258 C256 1.381 . S
C258 C259 1.394 . S
C258 H266 0.930 . S
C259 C258 1.394 . S
C259 C260 1.383 . S
C259 H267 0.929 . S
C260 C259 1.383 . S
C260 C261 1.377 . S
C261 H245 0.930 . S
C261 C260 1.377 . S
C261 C262 1.379 . S
C262 H246 0.931 . S
C262 C256 1.383 . S
C262 C261 1.379 . S
H263 C257 0.959 . S
H264 C257 0.961 . S
H265 C257 0.960 . S
H266 C258 0.930 . S
H267 C259 0.929 . S
H268 C276 0.929 . S
H269 C278 0.930 . S
H270 C280 0.930 . S
H271 C283 0.929 . S
H272 C286 0.930 1_655 S
H273 C288 0.960 . S
H274 C288 0.960 . S
H275 C288 0.960 . S
C276 H268 0.929 . S
C276 C277 1.377 . S
C276 C278 1.384 . S
C277 C276 1.377 . S
C277 C283 1.390 . S
C278 H269 0.930 . S
C278 C276 1.384 . S
C278 C279 1.372 . S
C279 C278 1.372 . S
C279 C280 1.400 . S
C279 C284 1.490 . S
C280 H270 0.930 . S
C280 C279 1.400 . S
C280 C283 1.386 . S
H281 C297 0.930 . S
H282 C298 0.933 . S
C283 H271 0.929 . S
C283 C277 1.390 . S
C283 C280 1.386 . S
C284 C279 1.490 . S
C284 C286 1.395 . S
C284 C287 1.403 . S
H285 C291 0.930 . S
C286 H272 0.930 1_455 S
C286 C284 1.395 . S
C286 C289 1.403 1_455 S
C287 C284 1.403 . S
C287 C288 1.524 . S
C287 C291 1.400 . S
C288 H273 0.960 . S
C288 H274 0.960 . S
C288 H275 0.960 . S
C288 C287 1.524 . S
C289 C286 1.403 1_655 S
C289 C290 1.392 1_655 S
C289 C293 1.495 . S
C290 C289 1.392 1_455 S
C290 C291 1.385 . S
C290 C292 1.478 . S
C291 H285 0.930 . S
C291 C287 1.400 . S
C291 C290 1.385 . S
C292 C290 1.478 . S
C292 C294 1.381 . S
C292 C298 1.388 . S
C293 C289 1.495 . S
C293 H299 0.959 . S
C293 H300 0.961 . S
C293 H301 0.960 . S
C294 C292 1.381 . S
C294 C295 1.392 1_455 S
C294 H302 0.930 . S
C295 C294 1.392 1_655 S
C295 C296 1.385 . S
C295 H303 0.929 . S
C296 C295 1.385 . S
C296 C297 1.377 . S
C297 H281 0.930 . S
C297 C296 1.377 . S
C297 C298 1.373 1_655 S
C298 H282 0.933 . S
C298 C292 1.388 . S
C298 C297 1.373 1_455 S
H299 C293 0.959 . S
H300 C293 0.961 . S
H301 C293 0.960 . S
H302 C294 0.930 . S
H303 C295 0.929 . S
H304 C312 0.929 . S
H305 C314 0.930 . S
H306 C316 0.930 . S
H307 C319 0.929 . S
H308 C322 0.930 . S
H309 C324 0.960 . S
H310 C324 0.960 . S
H311 C324 0.960 . S
C312 H304 0.929 . S
C312 C313 1.377 . S
C312 C314 1.384 . S
C313 C312 1.377 . S
C313 C319 1.390 . S
C314 H305 0.930 . S
C314 C312 1.384 . S
C314 C315 1.372 . S
C315 C314 1.372 . S
C315 C316 1.400 . S
C315 C320 1.490 . S
C316 H306 0.930 . S
C316 C315 1.400 . S
C316 C319 1.386 . S
H317 C333 0.930 . S
H318 C334 0.931 . S
C319 H307 0.929 . S
C319 C313 1.390 . S
C319 C316 1.386 . S
C320 C315 1.490 . S
C320 C322 1.395 . S
C320 C323 1.403 . S
H321 C327 0.930 . S
C322 H308 0.930 . S
C322 C320 1.395 . S
C322 C325 1.403 . S
C323 C320 1.403 . S
C323 C324 1.524 . S
C323 C327 1.400 . S
C324 H309 0.960 . S
C324 H310 0.960 . S
C324 H311 0.960 . S
C324 C323 1.524 . S
C325 C322 1.403 . S
C325 C326 1.392 . S
C325 C329 1.495 . S
C326 C325 1.392 . S
C326 C327 1.385 . S
C326 C328 1.478 . S
C327 H321 0.930 . S
C327 C323 1.400 . S
C327 C326 1.385 . S
C328 C326 1.478 . S
C328 C330 1.381 . S
C328 C334 1.383 . S
C329 C325 1.495 . S
C329 H335 0.959 . S
C329 H336 0.961 . S
C329 H337 0.960 . S
C330 C328 1.381 . S
C330 C331 1.394 . S
C330 H338 0.930 . S
C331 C330 1.394 . S
C331 C332 1.383 . S
C331 H339 0.929 . S
C332 C331 1.383 . S
C332 C333 1.377 . S
C333 H317 0.930 . S
C333 C332 1.377 . S
C333 C334 1.379 . S
C334 H318 0.931 . S
C334 C328 1.383 . S
C334 C333 1.379 . S
H335 C329 0.959 . S
H336 C329 0.961 . S
H337 C329 0.960 . S
H338 C330 0.930 . S
H339 C331 0.929 . S
H340 C348 0.929 . S
H341 C350 0.930 . S
H342 C352 0.930 . S
H343 C355 0.929 . S
H344 C358 0.930 . S
H345 C360 0.960 . S
H346 C360 0.960 . S
H347 C360 0.960 . S
C348 H340 0.929 . S
C348 C349 1.377 1_655 S
C348 C350 1.384 . S
C349 C348 1.377 1_455 S
C349 C355 1.390 . S
C350 H341 0.930 . S
C350 C348 1.384 . S
C350 C351 1.372 . S
C351 C350 1.372 . S
C351 C352 1.400 . S
C351 C356 1.490 . S
C352 H342 0.930 . S
C352 C351 1.400 . S
C352 C355 1.386 1_655 S
H353 C369 0.930 . S
H354 C370 0.931 . S
C355 H343 0.929 . S
C355 C349 1.390 . S
C355 C352 1.386 1_455 S
C356 C351 1.490 . S
C356 C358 1.395 . S
C356 C359 1.403 . S
H357 C363 0.930 . S
C358 H344 0.930 . S
C358 C356 1.395 . S
C358 C361 1.403 . S
C359 C356 1.403 . S
C359 C360 1.524 . S
C359 C363 1.400 . S
C360 H345 0.960 . S
C360 H346 0.960 . S
C360 H347 0.960 . S
C360 C359 1.524 . S
C361 C358 1.403 . S
C361 C362 1.392 . S
C361 C365 1.495 . S
C362 C361 1.392 . S
C362 C363 1.385 . S
C362 C364 1.478 . S
C363 H357 0.930 . S
C363 C359 1.400 . S
C363 C362 1.385 . S
C364 C362 1.478 . S
C364 C366 1.381 . S
C364 C370 1.383 . S
C365 C361 1.495 . S
C365 H371 0.959 . S
C365 H372 0.961 . S
C365 H373 0.960 . S
C366 C364 1.381 . S
C366 C367 1.394 . S
C366 H374 0.930 . S
C367 C366 1.394 . S
C367 C368 1.383 . S
C367 H375 0.929 . S
C368 C367 1.383 . S
C368 C369 1.377 . S
C369 H353 0.930 . S
C369 C368 1.377 . S
C369 C370 1.379 . S
C370 H354 0.931 . S
C370 C364 1.383 . S
C370 C369 1.379 . S
H371 C365 0.959 . S
H372 C365 0.961 . S
H373 C365 0.960 . S
H374 C366 0.930 . S
H375 C367 0.929 . S
H376 C384 0.929 . S
H377 C386 0.930 . S
H378 C388 0.930 . S
H379 C391 0.929 . S
H380 C394 0.930 . S
H381 C396 0.960 . S
H382 C396 0.960 . S
H383 C396 0.960 . S
C384 H376 0.929 . S
C384 C385 1.377 . S
C384 C386 1.384 . S
C385 C384 1.377 . S
C385 C391 1.390 . S
C386 H377 0.930 . S
C386 C384 1.384 . S
C386 C387 1.372 . S
C387 C386 1.372 . S
C387 C388 1.400 . S
C387 C392 1.490 . S
C388 H378 0.930 . S
C388 C387 1.400 . S
C388 C391 1.386 . S
H389 C405 0.930 . S
H390 C406 0.931 . S
C391 H379 0.929 . S
C391 C385 1.390 . S
C391 C388 1.386 . S
C392 C387 1.490 . S
C392 C394 1.395 . S
C392 C395 1.403 . S
H393 C399 0.930 . S
C394 H380 0.930 . S
C394 C392 1.395 . S
C394 C397 1.403 . S
C395 C392 1.403 . S
C395 C396 1.524 . S
C395 C399 1.400 . S
C396 H381 0.960 . S
C396 H382 0.960 . S
C396 H383 0.960 . S
C396 C395 1.524 . S
C397 C394 1.403 . S
C397 C398 1.392 . S
C397 C401 1.495 . S
C398 C397 1.392 . S
C398 C399 1.385 . S
C398 C400 1.478 . S
C399 H393 0.930 . S
C399 C395 1.400 . S
C399 C398 1.385 . S
C400 C398 1.478 . S
C400 C402 1.381 . S
C400 C406 1.383 . S
C401 C397 1.495 . S
C401 H407 0.959 . S
C401 H408 0.961 . S
C401 H409 0.960 . S
C402 C400 1.381 . S
C402 C403 1.394 . S
C402 H410 0.930 . S
C403 C402 1.394 . S
C403 C404 1.383 . S
C403 H411 0.929 . S
C404 C403 1.383 . S
C404 C405 1.377 . S
C405 H389 0.930 . S
C405 C404 1.377 . S
C405 C406 1.379 . S
C406 H390 0.931 . S
C406 C400 1.383 . S
C406 C405 1.379 . S
H407 C401 0.959 . S
H408 C401 0.961 . S
H409 C401 0.960 . S
H410 C402 0.930 . S
H411 C403 0.929 . S
H412 C420 0.929 . S
H413 C422 0.930 . S
H414 C424 0.930 . S
H415 C427 0.929 . S
H416 C430 0.930 . S
H417 C432 0.960 . S
H418 C432 0.960 . S
H419 C432 0.960 . S
C420 H412 0.929 . S
C420 C421 1.377 . S
C420 C422 1.384 . S
C421 C420 1.377 . S
C421 C427 1.390 . S
C422 H413 0.930 . S
C422 C420 1.384 . S
C422 C423 1.372 . S
C423 C422 1.372 . S
C423 C424 1.400 . S
C423 C428 1.490 . S
C424 H414 0.930 . S
C424 C423 1.400 . S
C424 C427 1.386 . S
H425 C441 0.930 . S
H426 C442 0.931 . S
C427 H415 0.929 . S
C427 C421 1.390 . S
C427 C424 1.386 . S
C428 C423 1.490 . S
C428 C430 1.395 . S
C428 C431 1.403 . S
H429 C435 0.930 . S
C430 H416 0.930 . S
C430 C428 1.395 . S
C430 C433 1.403 . S
C431 C428 1.403 . S
C431 C432 1.524 . S
C431 C435 1.400 . S
C432 H417 0.960 . S
C432 H418 0.960 . S
C432 H419 0.960 . S
C432 C431 1.524 . S
C433 C430 1.403 . S
C433 C434 1.392 . S
C433 C437 1.495 . S
C434 C433 1.392 . S
C434 C435 1.385 . S
C434 C436 1.478 . S
C435 H429 0.930 . S
C435 C431 1.400 . S
C435 C434 1.385 . S
C436 C434 1.478 . S
C436 C438 1.381 . S
C436 C442 1.383 . S
C437 C433 1.495 . S
C437 H443 0.959 . S
C437 H444 0.961 . S
C437 H445 0.960 . S
C438 C436 1.381 . S
C438 C439 1.394 . S
C438 H446 0.930 . S
C439 C438 1.394 . S
C439 C440 1.383 . S
C439 H447 0.929 . S
C440 C439 1.383 . S
C440 C441 1.377 . S
C441 H425 0.930 . S
C441 C440 1.377 . S
C441 C442 1.379 . S
C442 H426 0.931 . S
C442 C436 1.383 . S
C442 C441 1.379 . S
H443 C437 0.959 . S
H444 C437 0.961 . S
H445 C437 0.960 . S
H446 C438 0.930 . S
H447 C439 0.929 . S
H448 C456 0.929 . S
H449 C458 0.930 . S
H450 C460 0.930 . S
H451 C463 0.929 . S
H452 C466 0.930 . S
H453 C468 0.960 . S
H454 C468 0.960 . S
H455 C468 0.960 . S
C456 H448 0.929 . S
C456 C457 1.377 . S
C456 C458 1.384 . S
C457 C456 1.377 . S
C457 C463 1.390 . S
C458 H449 0.930 . S
C458 C456 1.384 . S
C458 C459 1.372 . S
C459 C458 1.372 . S
C459 C460 1.400 . S
C459 C464 1.490 . S
C460 H450 0.930 . S
C460 C459 1.400 . S
C460 C463 1.386 . S
H461 C477 0.930 . S
H462 C478 0.931 . S
C463 H451 0.929 . S
C463 C457 1.390 . S
C463 C460 1.386 . S
C464 C459 1.490 . S
C464 C466 1.395 . S
C464 C467 1.403 . S
H465 C471 0.930 . S
C466 H452 0.930 . S
C466 C464 1.395 . S
C466 C469 1.403 . S
C467 C464 1.403 . S
C467 C468 1.524 . S
C467 C471 1.400 . S
C468 H453 0.960 . S
C468 H454 0.960 . S
C468 H455 0.960 . S
C468 C467 1.524 . S
C469 C466 1.403 . S
C469 C470 1.392 . S
C469 C473 1.495 . S
C470 C469 1.392 . S
C470 C471 1.385 . S
C470 C472 1.478 . S
C471 H465 0.930 . S
C471 C467 1.400 . S
C471 C470 1.385 . S
C472 C470 1.478 . S
C472 C474 1.381 . S
C472 C478 1.383 . S
C473 C469 1.495 . S
C473 H479 0.959 . S
C473 H480 0.961 . S
C473 H481 0.960 . S
C474 C472 1.381 . S
C474 C475 1.394 . S
C474 H482 0.930 . S
C475 C474 1.394 . S
C475 C476 1.383 . S
C475 H483 0.929 . S
C476 C475 1.383 . S
C476 C477 1.377 . S
C477 H461 0.930 . S
C477 C476 1.377 . S
C477 C478 1.379 . S
C478 H462 0.931 . S
C478 C472 1.383 . S
C478 C477 1.379 . S
H479 C473 0.959 . S
H480 C473 0.961 . S
H481 C473 0.960 . S
H482 C474 0.930 . S
H483 C475 0.929 . S
H484 C492 0.929 . S
H485 C494 0.930 . S
H486 C496 0.930 . S
H487 C499 0.929 . S
H488 C502 0.930 . S
H489 C504 0.960 . S
H490 C504 0.960 . S
H491 C504 0.960 . S
C492 H484 0.929 . S
C492 C493 1.377 . S
C492 C494 1.384 . S
C493 C492 1.377 . S
C493 C499 1.390 . S
C494 H485 0.930 . S
C494 C492 1.384 . S
C494 C495 1.372 . S
C495 C494 1.372 . S
C495 C496 1.400 . S
C495 C500 1.490 . S
C496 H486 0.930 . S
C496 C495 1.400 . S
C496 C499 1.386 . S
H497 C513 0.930 . S
H498 C514 0.931 . S
C499 H487 0.929 . S
C499 C493 1.390 . S
C499 C496 1.386 . S
C500 C495 1.490 . S
C500 C502 1.395 . S
C500 C503 1.403 . S
H501 C507 0.930 . S
C502 H488 0.930 . S
C502 C500 1.395 . S
C502 C505 1.403 . S
C503 C500 1.403 . S
C503 C504 1.524 . S
C503 C507 1.400 . S
C504 H489 0.960 . S
C504 H490 0.960 . S
C504 H491 0.960 . S
C504 C503 1.524 . S
C505 C502 1.403 . S
C505 C506 1.392 . S
C505 C509 1.495 . S
C506 C505 1.392 . S
C506 C507 1.385 . S
C506 C508 1.478 . S
C507 H501 0.930 . S
C507 C503 1.400 . S
C507 C506 1.385 . S
C508 C506 1.478 . S
C508 C510 1.381 . S
C508 C514 1.383 . S
C509 C505 1.495 . S
C509 H515 0.959 . S
C509 H516 0.961 . S
C509 H517 0.960 . S
C510 C508 1.381 . S
C510 C511 1.394 . S
C510 H518 0.930 . S
C511 C510 1.394 . S
C511 C512 1.383 . S
C511 H519 0.929 . S
C512 C511 1.383 . S
C512 C513 1.377 . S
C513 H497 0.930 . S
C513 C512 1.377 . S
C513 C514 1.379 . S
C514 H498 0.931 . S
C514 C508 1.383 . S
C514 C513 1.379 . S
H515 C509 0.959 . S
H516 C509 0.961 . S
H517 C509 0.960 . S
H518 C510 0.930 . S
H519 C511 0.929 . S
H520 C528 0.929 . S
H521 C530 0.930 . S
H522 C532 0.930 . S
H523 C535 0.929 . S
H524 C538 0.930 . S
H525 C540 0.960 . S
H526 C540 0.960 . S
H527 C540 0.960 . S
C528 H520 0.929 . S
C528 C529 1.377 . S
C528 C530 1.384 . S
C529 C528 1.377 . S
C529 C535 1.390 . S
C530 H521 0.930 . S
C530 C528 1.384 . S
C530 C531 1.372 . S
C531 C530 1.372 . S
C531 C532 1.400 . S
C531 C536 1.490 . S
C532 H522 0.930 . S
C532 C531 1.400 . S
C532 C535 1.386 . S
H533 C549 0.930 . S
H534 C550 0.934 1_556 S
C535 H523 0.929 . S
C535 C529 1.390 . S
C535 C532 1.386 . S
C536 C531 1.490 . S
C536 C538 1.395 . S
C536 C539 1.403 . S
H537 C543 0.930 . S
C538 H524 0.930 . S
C538 C536 1.395 . S
C538 C541 1.403 . S
C539 C536 1.403 . S
C539 C540 1.524 . S
C539 C543 1.400 . S
C540 H525 0.960 . S
C540 H526 0.960 . S
C540 H527 0.960 . S
C540 C539 1.524 . S
C541 C538 1.403 . S
C541 C542 1.392 . S
C541 C545 1.495 . S
C542 C541 1.392 . S
C542 C543 1.385 . S
C542 C544 1.504 . S
C543 H537 0.930 . S
C543 C539 1.400 . S
C543 C542 1.385 . S
C544 C542 1.504 . S
C544 C546 1.359 1_556 S
C544 C550 1.379 1_556 S
C545 C541 1.495 . S
C545 H551 0.959 . S
C545 H552 0.961 . S
C545 H553 0.960 1_556 S
C546 C544 1.359 1_554 S
C546 C547 1.394 . S
C546 H554 0.930 . S
C547 C546 1.394 . S
C547 C548 1.383 . S
C547 H555 0.929 . S
C548 C547 1.383 . S
C548 C549 1.377 . S
C549 H533 0.930 . S
C549 C548 1.377 . S
C549 C550 1.376 . S
C550 H534 0.934 1_554 S
C550 C544 1.379 1_554 S
C550 C549 1.376 . S
H551 C545 0.959 . S
H552 C545 0.961 . S
H553 C545 0.960 1_554 S
H554 C546 0.930 . S
H555 C547 0.929 . S
H556 C564 0.929 . S
H557 C566 0.930 . S
H558 C568 0.930 . S
H559 C571 0.929 . S
H560 C574 0.930 . S
H561 C576 0.960 . S
H562 C576 0.960 . S
H563 C576 0.960 . S
C564 H556 0.929 . S
C564 C565 1.377 . S
C564 C566 1.384 . S
C565 C564 1.377 . S
C565 C571 1.390 . S
C566 H557 0.930 . S
C566 C564 1.384 . S
C566 C567 1.372 . S
C567 C566 1.372 . S
C567 C568 1.400 . S
C567 C572 1.490 . S
C568 H558 0.930 . S
C568 C567 1.400 . S
C568 C571 1.386 . S
H569 C585 0.930 . S
H570 C586 0.931 . S
C571 H559 0.929 . S
C571 C565 1.390 . S
C571 C568 1.386 . S
C572 C567 1.490 . S
C572 C574 1.395 . S
C572 C575 1.403 . S
H573 C579 0.930 . S
C574 H560 0.930 . S
C574 C572 1.395 . S
C574 C577 1.403 . S
C575 C572 1.403 . S
C575 C576 1.524 . S
C575 C579 1.400 . S
C576 H561 0.960 . S
C576 H562 0.960 . S
C576 H563 0.960 . S
C576 C575 1.524 . S
C577 C574 1.403 . S
C577 C578 1.392 . S
C577 C581 1.495 . S
C578 C577 1.392 . S
C578 C579 1.385 . S
C578 C580 1.478 . S
C579 H573 0.930 . S
C579 C575 1.400 . S
C579 C578 1.385 . S
C580 C578 1.478 . S
C580 C582 1.381 . S
C580 C586 1.383 . S
C581 C577 1.495 . S
C581 H587 0.959 . S
C581 H588 0.961 . S
C581 H589 0.960 . S
C582 C580 1.381 . S
C582 C583 1.394 . S
C582 H590 0.930 . S
C583 C582 1.394 . S
C583 C584 1.383 . S
C583 H591 0.929 . S
C584 C583 1.383 . S
C584 C585 1.377 . S
C585 H569 0.930 . S
C585 C584 1.377 . S
C585 C586 1.379 . S
C586 H570 0.931 . S
C586 C580 1.383 . S
C586 C585 1.379 . S
H587 C581 0.959 . S
H588 C581 0.961 . S
H589 C581 0.960 . S
H590 C582 0.930 . S
H591 C583 0.929 . S
C169 C82 0.742 1_545 S
C188 C2 0.726 . S
C205 C122 0.816 1_655 S
C224 C63 0.806 . S
C241 C103 0.814 . S
C260 C23 0.784 . S
C277 C42 0.707 . S
C296 C143 0.689 . S
C313 C71 0.466 . S
C332 C25 0.555 . S
C349 C60 0.744 . S
C368 C105 0.695 . S
C385 C145 0.303 . S
C404 C84 0.270 . S
C421 C124 0.461 . S
C440 C4 0.621 . S
C457 C111 3.299 1_556 S
C476 C140 3.202 . S
C493 C31 3.667 . S
C512 C151 3.653 . S
C529 C44 2.584 . S
C548 C20 2.605 . S
C565 C100 2.274 . S
C584 C65 2.251 . S
