# Generated by pormake.
# Topology tzs, (4)-cn, num edge types: 1
# Building blocks:
#     Node 0, Type 0, BuildingBlock: NAHDIM_clean_sbu_0, # of connection points: 4
#     Node 1, Type 0, BuildingBlock: NAHDIM_clean_sbu_0, # of connection points: 4
#     Node 2, Type 0, BuildingBlock: NAHDIM_clean_sbu_0, # of connection points: 4
#     Node 3, Type 0, BuildingBlock: NAHDIM_clean_sbu_0, # of connection points: 4
#     Node 4, Type 0, BuildingBlock: NAHDIM_clean_sbu_0, # of connection points: 4
#     Node 5, Type 0, BuildingBlock: NAHDIM_clean_sbu_0, # of connection points: 4
#     Node 6, Type 0, BuildingBlock: NAHDIM_clean_sbu_0, # of connection points: 4
#     Node 7, Type 0, BuildingBlock: NAHDIM_clean_sbu_0, # of connection points: 4
#     Node 8, Type 0, BuildingBlock: NAHDIM_clean_sbu_0, # of connection points: 4
#     Node 9, Type 0, BuildingBlock: NAHDIM_clean_sbu_0, # of connection points: 4
#     Node 10, Type 0, BuildingBlock: NAHDIM_clean_sbu_0, # of connection points: 4
#     Node 11, Type 0, BuildingBlock: NAHDIM_clean_sbu_0, # of connection points: 4
#     Node 12, Type 0, BuildingBlock: NAHDIM_clean_sbu_0, # of connection points: 4
#     Node 13, Type 0, BuildingBlock: NAHDIM_clean_sbu_0, # of connection points: 4
#     Node 14, Type 0, BuildingBlock: NAHDIM_clean_sbu_0, # of connection points: 4
#     Node 15, Type 0, BuildingBlock: NAHDIM_clean_sbu_0, # of connection points: 4
#     Edge 16, Type (0, 0), BuildingBlock: OJICUG_clean_linker_0, # of connection points: 2
#     Edge 17, Type (0, 0), BuildingBlock: OJICUG_clean_linker_0, # of connection points: 2
#     Edge 18, Type (0, 0), BuildingBlock: OJICUG_clean_linker_0, # of connection points: 2
#     Edge 19, Type (0, 0), BuildingBlock: OJICUG_clean_linker_0, # of connection points: 2
#     Edge 20, Type (0, 0), BuildingBlock: OJICUG_clean_linker_0, # of connection points: 2
#     Edge 21, Type (0, 0), BuildingBlock: OJICUG_clean_linker_0, # of connection points: 2
#     Edge 22, Type (0, 0), BuildingBlock: OJICUG_clean_linker_0, # of connection points: 2
#     Edge 23, Type (0, 0), BuildingBlock: OJICUG_clean_linker_0, # of connection points: 2
#     Edge 24, Type (0, 0), BuildingBlock: OJICUG_clean_linker_0, # of connection points: 2
#     Edge 25, Type (0, 0), BuildingBlock: OJICUG_clean_linker_0, # of connection points: 2
#     Edge 26, Type (0, 0), BuildingBlock: OJICUG_clean_linker_0, # of connection points: 2
#     Edge 27, Type (0, 0), BuildingBlock: OJICUG_clean_linker_0, # of connection points: 2
#     Edge 28, Type (0, 0), BuildingBlock: OJICUG_clean_linker_0, # of connection points: 2
#     Edge 29, Type (0, 0), BuildingBlock: OJICUG_clean_linker_0, # of connection points: 2
#     Edge 30, Type (0, 0), BuildingBlock: OJICUG_clean_linker_0, # of connection points: 2
#     Edge 31, Type (0, 0), BuildingBlock: OJICUG_clean_linker_0, # of connection points: 2
#     Edge 32, Type (0, 0), BuildingBlock: OJICUG_clean_linker_0, # of connection points: 2
#     Edge 33, Type (0, 0), BuildingBlock: OJICUG_clean_linker_0, # of connection points: 2
#     Edge 34, Type (0, 0), BuildingBlock: OJICUG_clean_linker_0, # of connection points: 2
#     Edge 35, Type (0, 0), BuildingBlock: OJICUG_clean_linker_0, # of connection points: 2
#     Edge 36, Type (0, 0), BuildingBlock: OJICUG_clean_linker_0, # of connection points: 2
#     Edge 37, Type (0, 0), BuildingBlock: OJICUG_clean_linker_0, # of connection points: 2
#     Edge 38, Type (0, 0), BuildingBlock: OJICUG_clean_linker_0, # of connection points: 2
#     Edge 39, Type (0, 0), BuildingBlock: OJICUG_clean_linker_0, # of connection points: 2
#     Edge 40, Type (0, 0), BuildingBlock: OJICUG_clean_linker_0, # of connection points: 2
#     Edge 41, Type (0, 0), BuildingBlock: OJICUG_clean_linker_0, # of connection points: 2
#     Edge 42, Type (0, 0), BuildingBlock: OJICUG_clean_linker_0, # of connection points: 2
#     Edge 43, Type (0, 0), BuildingBlock: OJICUG_clean_linker_0, # of connection points: 2
#     Edge 44, Type (0, 0), BuildingBlock: OJICUG_clean_linker_0, # of connection points: 2
#     Edge 45, Type (0, 0), BuildingBlock: OJICUG_clean_linker_0, # of connection points: 2
#     Edge 46, Type (0, 0), BuildingBlock: OJICUG_clean_linker_0, # of connection points: 2
#     Edge 47, Type (0, 0), BuildingBlock: OJICUG_clean_linker_0, # of connection points: 2
# Relax obj value: 0.068
# Max RMSD: 0.083
# Mean RMSD: 0.083
data_MOF--net-tzs--node1-NAHDIM_clean_sbu_0--edge1-OJICUG_clean_linker_0
_symmetry_space_group_name_H-M    P1
_symmetry_Int_Tables_number       1
_symmetry_cell_setting            triclinic
loop_
_symmetry_equiv_pos_as_xyz
'x, y, z'
_cell_length_a     36.25265
_cell_length_b     36.286716
_cell_length_c     28.640581
_cell_angle_alpha  90.046216
_cell_angle_beta   90.049442
_cell_angle_gamma 90.385011
loop_
_atom_site_label
_atom_site_type_symbol
_atom_site_fract_x
_atom_site_fract_y
_atom_site_fract_z
_atom_type_partial_charge
C0 C 0.21893 0.31138 0.22952 0.0
O1 O 0.23012 0.34451 0.21728 0.0
O2 O 0.16455 0.39191 0.23418 0.0
Zn3 Zn 0.15179 0.34348 0.20283 0.0
O4 O 0.15941 0.34767 0.13333 0.0
C5 C 0.0766 0.35898 0.20404 0.0
O6 O 0.09049 0.38724 0.18125 0.0
O7 O 0.18476 0.30359 0.2271 0.0
C8 C 0.13853 0.33174 0.10382 0.0
O9 O 0.11097 0.31123 0.11871 0.0
C10 C 0.16942 0.42137 0.21091 0.0
O11 O 0.16818 0.41998 0.1651 0.0
O12 O 0.09818 0.33353 0.21715 0.0
C13 C 0.69645 0.19865 0.17355 0.0
O14 O 0.67637 0.2062 0.13661 0.0
O15 O 0.59936 0.16005 0.20503 0.0
Zn16 Zn 0.64569 0.1385 0.17705 0.0
O17 O 0.64331 0.13757 0.10641 0.0
C18 C 0.6207 0.06887 0.2108 0.0
O19 O 0.58908 0.08556 0.20454 0.0
O20 O 0.6889 0.16995 0.19724 0.0
C21 C 0.62725 0.11215 0.08333 0.0
O22 O 0.6109 0.08509 0.1058 0.0
C23 C 0.5695 0.16474 0.18256 0.0
O24 O 0.56891 0.15858 0.13738 0.0
O25 O 0.65046 0.08617 0.20144 0.0
C26 C 0.80696 0.69606 0.21326 0.0
O27 O 0.8318 0.71105 0.18568 0.0
O28 O 0.8352 0.57585 0.20686 0.0
Zn29 Zn 0.84415 0.62864 0.18823 0.0
O30 O 0.83724 0.63161 0.11846 0.0
C31 C 0.92254 0.62662 0.18441 0.0
O32 O 0.9144 0.60387 0.15015 0.0
O33 O 0.80742 0.66148 0.22001 0.0
C34 C 0.85441 0.65383 0.0918 0.0
O35 O 0.87821 0.67728 0.10991 0.0
C36 C 0.81208 0.5652 0.23744 0.0
O37 O 0.79197 0.5897 0.25939 0.0
O38 O 0.89642 0.64199 0.20652 0.0
C39 C 0.30492 0.77748 0.20246 0.0
O40 O 0.32778 0.77034 0.16809 0.0
O41 O 0.39889 0.82338 0.23163 0.0
Zn42 Zn 0.35016 0.84153 0.20622 0.0
O43 O 0.35123 0.84437 0.13606 0.0
C44 C 0.3559 0.90299 0.26957 0.0
O45 O 0.3739 0.87876 0.29473 0.0
O46 O 0.30905 0.80723 0.22541 0.0
C47 C 0.36935 0.86958 0.11533 0.0
O48 O 0.38812 0.89366 0.14027 0.0
C49 C 0.42625 0.81381 0.20677 0.0
O50 O 0.42304 0.81356 0.1611 0.0
O51 O 0.34185 0.89294 0.23089 0.0
C52 C 0.19008 0.67252 0.24978 0.0
O53 O 0.18703 0.64154 0.22631 0.0
O54 O 0.14966 0.5888 0.28243 0.0
Zn55 Zn 0.13453 0.63828 0.30812 0.0
O56 O 0.13617 0.63794 0.37834 0.0
C57 C 0.07458 0.63831 0.24404 0.0
O58 O 0.10082 0.62548 0.21704 0.0
O59 O 0.16969 0.67762 0.28527 0.0
C60 C 0.11401 0.61889 0.40295 0.0
O61 O 0.08874 0.59862 0.38208 0.0
C62 C 0.16209 0.56159 0.30534 0.0
O63 O 0.16699 0.56459 0.35062 0.0
O64 O 0.08254 0.64755 0.28571 0.0
C65 C 0.32619 0.20305 0.28598 0.0
O66 O 0.35884 0.21387 0.30073 0.0
O67 O 0.406 0.14775 0.27 0.0
Zn68 Zn 0.35958 0.13536 0.30563 0.0
O69 O 0.36685 0.14359 0.37448 0.0
C70 C 0.36528 0.05775 0.31609 0.0
O71 O 0.39015 0.06867 0.34659 0.0
O72 O 0.31902 0.16875 0.28423 0.0
C73 C 0.34249 0.13222 0.40299 0.0
O74 O 0.31316 0.115 0.38676 0.0
C75 C 0.43468 0.16164 0.28879 0.0
O76 O 0.43461 0.16883 0.33375 0.0
O77 O 0.34725 0.08189 0.2936 0.0
C78 C 0.80761 0.30319 0.23451 0.0
O79 O 0.81711 0.33092 0.20749 0.0
O80 O 0.8356 0.39122 0.27403 0.0
Zn81 Zn 0.8537 0.34256 0.2988 0.0
O82 O 0.85298 0.34421 0.36904 0.0
C83 C 0.92401 0.36355 0.26162 0.0
O84 O 0.90775 0.39576 0.26171 0.0
O85 O 0.82054 0.30172 0.27572 0.0
C86 C 0.86645 0.37209 0.39007 0.0
O87 O 0.88124 0.39887 0.36539 0.0
C88 C 0.81242 0.41241 0.29338 0.0
O89 O 0.79567 0.40166 0.33173 0.0
O90 O 0.90635 0.33546 0.27642 0.0
C91 C 0.68867 0.78351 0.28972 0.0
O92 O 0.66339 0.76825 0.31643 0.0
O93 O 0.5953 0.82513 0.27314 0.0
Zn94 Zn 0.64212 0.84606 0.30162 0.0
O95 O 0.64048 0.84481 0.37217 0.0
C96 C 0.61804 0.91654 0.26968 0.0
O97 O 0.58606 0.89944 0.2721 0.0
O98 O 0.68555 0.81724 0.27866 0.0
C99 C 0.61763 0.8648 0.39417 0.0
O100 O 0.59481 0.88558 0.37041 0.0
C101 C 0.56864 0.81093 0.29583 0.0
O102 O 0.57187 0.80616 0.34109 0.0
O103 O 0.64714 0.89916 0.28059 0.0
C104 C 0.7882 0.68765 0.77598 0.0
O105 O 0.77501 0.66543 0.80814 0.0
O106 O 0.90793 0.66137 0.76784 0.0
Zn107 Zn 0.85763 0.65045 0.79439 0.0
O108 O 0.85835 0.65836 0.86428 0.0
C109 C 0.86197 0.57231 0.80125 0.0
O110 O 0.88566 0.58185 0.8339 0.0
O111 O 0.82194 0.68542 0.7645 0.0
C112 C 0.8369 0.64093 0.89169 0.0
O113 O 0.81289 0.61741 0.87417 0.0
C114 C 0.9371 0.65955 0.79233 0.0
O115 O 0.93452 0.65085 0.83673 0.0
O116 O 0.84518 0.59744 0.77896 0.0
C117 C 0.3053 0.8173 0.75336 0.0
O118 O 0.3147 0.84499 0.72623 0.0
O119 O 0.3267 0.90613 0.79335 0.0
Zn120 Zn 0.34766 0.85895 0.81924 0.0
O121 O 0.34724 0.8584 0.88973 0.0
C122 C 0.41806 0.88379 0.78652 0.0
O123 O 0.40187 0.91575 0.79213 0.0
O124 O 0.3169 0.81677 0.79524 0.0
C125 C 0.37091 0.8763 0.91363 0.0
O126 O 0.39593 0.89626 0.89198 0.0
C127 C 0.31955 0.93503 0.81661 0.0
O128 O 0.32339 0.93472 0.8622 0.0
O129 O 0.40021 0.85443 0.79602 0.0
C130 C 0.17169 0.2881 0.77536 0.0
O131 O 0.13705 0.27822 0.78104 0.0
O132 O 0.09617 0.35232 0.77381 0.0
Zn133 Zn 0.14418 0.35697 0.80879 0.0
O134 O 0.13631 0.34775 0.87729 0.0
C135 C 0.15151 0.43503 0.82321 0.0
O136 O 0.12958 0.42792 0.85861 0.0
O137 O 0.18133 0.32101 0.7846 0.0
C138 C 0.16204 0.35447 0.90626 0.0
O139 O 0.1936 0.36767 0.89085 0.0
C140 C 0.06751 0.33632 0.78964 0.0
O141 O 0.06889 0.32016 0.83063 0.0
O142 O 0.16248 0.40861 0.79774 0.0
C143 C 0.70837 0.18974 0.79386 0.0
O144 O 0.71636 0.16622 0.82717 0.0
O145 O 0.66509 0.09633 0.75976 0.0
Zn146 Zn 0.64562 0.14294 0.78943 0.0
O147 O 0.64522 0.1391 0.85963 0.0
C148 C 0.57508 0.12255 0.75231 0.0
O149 O 0.59139 0.09036 0.75136 0.0
O150 O 0.67837 0.18563 0.77135 0.0
C151 C 0.62431 0.11681 0.88151 0.0
O152 O 0.60227 0.09483 0.85777 0.0
C153 C 0.67866 0.06914 0.78167 0.0
O154 O 0.68362 0.07153 0.827 0.0
O155 O 0.59299 0.15049 0.76716 0.0
C156 C 0.81333 0.30429 0.74579 0.0
O157 O 0.84354 0.30863 0.77061 0.0
O158 O 0.89859 0.34153 0.71122 0.0
Zn159 Zn 0.84917 0.35762 0.68613 0.0
O160 O 0.85035 0.35588 0.61579 0.0
C161 C 0.85135 0.41876 0.74898 0.0
O162 O 0.86606 0.39352 0.77595 0.0
O163 O 0.80926 0.32306 0.70871 0.0
C164 C 0.85748 0.38413 0.59109 0.0
O165 O 0.86385 0.41586 0.61182 0.0
C166 C 0.92804 0.35615 0.6956 0.0
O167 O 0.92579 0.38049 0.66184 0.0
O168 O 0.84031 0.40962 0.70843 0.0
C169 C 0.69894 0.80461 0.69988 0.0
O170 O 0.71276 0.82725 0.66856 0.0
O171 O 0.66226 0.90038 0.71528 0.0
Zn172 Zn 0.63855 0.85357 0.6906 0.0
O173 O 0.639 0.85209 0.61997 0.0
C174 C 0.56935 0.88129 0.72296 0.0
O175 O 0.58679 0.91268 0.71627 0.0
O176 O 0.66656 0.8102 0.71512 0.0
C177 C 0.61348 0.86678 0.59603 0.0
O178 O 0.58645 0.88357 0.61766 0.0
C179 C 0.66976 0.92825 0.69006 0.0
O180 O 0.66437 0.9263 0.64477 0.0
O181 O 0.58593 0.8513 0.71417 0.0
C182 C 0.20189 0.7065 0.68868 0.0
O183 O 0.18504 0.71044 0.64838 0.0
O184 O 0.1068 0.65358 0.72335 0.0
Zn185 Zn 0.15575 0.64173 0.69412 0.0
O186 O 0.15127 0.64025 0.62405 0.0
C187 C 0.16471 0.58535 0.76114 0.0
O188 O 0.15427 0.61249 0.78841 0.0
O189 O 0.19385 0.67899 0.71424 0.0
C190 C 0.12898 0.61807 0.60413 0.0
O191 O 0.10891 0.59568 0.62988 0.0
C192 C 0.07946 0.66802 0.70269 0.0
O193 O 0.08274 0.67831 0.65892 0.0
O194 O 0.16916 0.59156 0.71784 0.0
C195 C 0.2793 0.18109 0.71603 0.0
O196 O 0.26829 0.14925 0.69892 0.0
O197 O 0.33126 0.09994 0.73419 0.0
Zn198 Zn 0.3463 0.14599 0.69958 0.0
O199 O 0.3401 0.13879 0.63031 0.0
C200 C 0.42054 0.128 0.70285 0.0
O201 O 0.4053 0.09916 0.6826 0.0
O202 O 0.31369 0.18732 0.72022 0.0
C203 C 0.36026 0.15615 0.60136 0.0
O204 O 0.38536 0.17933 0.61706 0.0
C205 C 0.31861 0.07126 0.71416 0.0
O206 O 0.31377 0.07145 0.6687 0.0
O207 O 0.40007 0.15486 0.71421 0.0
C208 C 0.26171 0.22004 0.26296 0.0
C209 C 0.29845 0.23053 0.27179 0.0
H210 H 0.20756 0.23744 0.24308 0.0
C211 C 0.30861 0.26778 0.26715 0.0
H212 H 0.25302 0.19155 0.2664 0.0
C213 C 0.2827 0.29395 0.25357 0.0
C214 C 0.24597 0.28353 0.24473 0.0
H215 H 0.33669 0.27677 0.27367 0.0
H216 H 0.29153 0.32239 0.25008 0.0
C217 C 0.23566 0.24633 0.24977 0.0
C218 C 0.76303 0.2795 0.17465 0.0
C219 C 0.78063 0.27526 0.21803 0.0
H220 H 0.72274 0.25872 0.12667 0.0
C221 C 0.77131 0.24475 0.24599 0.0
H222 H 0.76957 0.30266 0.15223 0.0
C223 C 0.74449 0.2194 0.23121 0.0
C224 C 0.72629 0.22417 0.1883 0.0
H225 H 0.78444 0.24062 0.27955 0.0
H226 H 0.73759 0.19645 0.2538 0.0
C227 C 0.73611 0.25431 0.16002 0.0
C228 C 0.75094 0.70265 0.26367 0.0
C229 C 0.77765 0.7188 0.23443 0.0
H230 H 0.70201 0.71037 0.30411 0.0
C231 C 0.77544 0.75666 0.22461 0.0
H232 H 0.75188 0.67356 0.27202 0.0
C233 C 0.74678 0.77776 0.24297 0.0
C234 C 0.71975 0.76148 0.27161 0.0
H235 H 0.79559 0.76997 0.20225 0.0
H236 H 0.74566 0.80679 0.23432 0.0
C237 C 0.72232 0.72376 0.28208 0.0
C238 C 0.27018 0.71876 0.1878 0.0
C239 C 0.27491 0.75119 0.21407 0.0
H240 H 0.23964 0.6687 0.17824 0.0
C241 C 0.25083 0.75806 0.25147 0.0
H242 H 0.28816 0.71267 0.15866 0.0
C243 C 0.22291 0.7328 0.26269 0.0
C244 C 0.21848 0.70015 0.23672 0.0
H245 H 0.25367 0.78282 0.27234 0.0
H246 H 0.20504 0.73872 0.29201 0.0
C247 C 0.24227 0.69355 0.19897 0.0
C248 C 0.70659 0.74955 0.75178 0.0
C249 C 0.72116 0.77373 0.71806 0.0
H250 H 0.71624 0.70329 0.79638 0.0
C251 C 0.75748 0.76855 0.70244 0.0
H252 H 0.67865 0.75274 0.76445 0.0
C253 C 0.779 0.74023 0.72073 0.0
C254 C 0.76468 0.71642 0.75502 0.0
H255 H 0.76952 0.78661 0.67642 0.0
H256 H 0.80704 0.7373 0.7083 0.0
C257 C 0.72812 0.72117 0.77004 0.0
C258 C 0.23927 0.76388 0.67575 0.0
C259 C 0.22929 0.73416 0.70463 0.0
H260 H 0.27124 0.81329 0.66834 0.0
C261 C 0.24536 0.73143 0.74918 0.0
H262 H 0.22749 0.76673 0.64119 0.0
C263 C 0.2704 0.75817 0.76478 0.0
C264 C 0.28002 0.78814 0.73613 0.0
H265 H 0.2383 0.70885 0.77229 0.0
H266 H 0.28197 0.75546 0.79949 0.0
C267 C 0.26442 0.79055 0.6913 0.0
C268 C 0.18809 0.22571 0.74498 0.0
C269 C 0.19927 0.26105 0.75942 0.0
H270 H 0.20456 0.17287 0.71978 0.0
C271 C 0.23705 0.27009 0.75907 0.0
H272 H 0.1592 0.2179 0.74476 0.0
C273 C 0.26313 0.24417 0.74497 0.0
C274 C 0.25192 0.20879 0.73064 0.0
H275 H 0.24656 0.29709 0.77008 0.0
H276 H 0.29205 0.25188 0.74529 0.0
C277 C 0.21412 0.1999 0.7306 0.0
C278 C 0.72775 0.24355 0.74438 0.0
C279 C 0.73436 0.22003 0.78241 0.0
H280 H 0.74744 0.28867 0.70299 0.0
C281 C 0.76647 0.22534 0.80919 0.0
H282 H 0.70323 0.24023 0.7231 0.0
C283 C 0.79171 0.25315 0.7978 0.0
C284 C 0.78549 0.27622 0.75925 0.0
H285 H 0.77234 0.20782 0.83884 0.0
H286 H 0.81636 0.25618 0.81889 0.0
C287 C 0.75309 0.27132 0.73287 0.0
C288 C 0.1244 0.32987 0.97276 0.0
C289 C 0.15626 0.34817 0.95674 0.0
H290 H 0.09394 0.31008 0.03171 0.0
C291 C 0.18242 0.36064 0.98945 0.0
H292 H 0.10375 0.31985 0.94842 0.0
C293 C 0.17668 0.35524 0.0372 0.0
C294 C 0.14481 0.33697 0.05323 0.0
H295 H 0.20722 0.37489 0.97826 0.0
H296 H 0.19728 0.36539 0.06152 0.0
C297 C 0.11881 0.32419 0.02049 0.0
C298 C 0.64614 0.14131 0.95858 0.0
C299 C 0.62509 0.11553 0.93313 0.0
H300 H 0.66322 0.16058 0.02589 0.0
C301 C 0.60481 0.08861 0.95749 0.0
H302 H 0.66207 0.16244 0.94088 0.0
C303 C 0.60562 0.08744 0.00626 0.0
C304 C 0.62655 0.1133 0.03171 0.0
H305 H 0.58836 0.06832 0.93892 0.0
H306 H 0.58969 0.06632 0.02397 0.0
C307 C 0.64677 0.14028 0.00734 0.0
C308 C 0.81835 0.62437 0.97322 0.0
C309 C 0.84028 0.64558 0.94287 0.0
H310 H 0.80556 0.61036 0.04389 0.0
C311 C 0.8661 0.67048 0.96194 0.0
H312 H 0.79817 0.60496 0.95971 0.0
C313 C 0.8703 0.67364 0.01033 0.0
C314 C 0.84885 0.65189 0.04064 0.0
H315 H 0.88339 0.68727 0.93951 0.0
H316 H 0.89073 0.69275 0.0239 0.0
C317 C 0.82262 0.62745 0.02154 0.0
C318 C 0.39302 0.89638 0.04047 0.0
C319 C 0.36962 0.87144 0.06374 0.0
H320 H 0.41188 0.91738 0.97485 0.0
C321 C 0.34648 0.84825 0.03724 0.0
H322 H 0.4112 0.9146 0.05987 0.0
C323 C 0.3467 0.85 0.98851 0.0
C324 C 0.37027 0.87477 0.96522 0.0
H325 H 0.32807 0.82877 0.05411 0.0
H326 H 0.32856 0.83173 0.96912 0.0
C327 C 0.39344 0.89793 0.99172 0.0
C328 C 0.14746 0.64127 0.52516 0.0
C329 C 0.12509 0.61816 0.55268 0.0
H330 H 0.16152 0.65963 0.4565 0.0
C331 C 0.09885 0.59538 0.53056 0.0
H332 H 0.16793 0.65918 0.54107 0.0
C333 C 0.09507 0.59573 0.48195 0.0
C334 C 0.11753 0.61877 0.45445 0.0
H335 H 0.08113 0.5773 0.55075 0.0
H336 H 0.07463 0.57783 0.46597 0.0
C337 C 0.14376 0.64153 0.47662 0.0
C338 C 0.38051 0.16603 0.51871 0.0
C339 C 0.3557 0.15006 0.55061 0.0
H340 H 0.39593 0.17279 0.44711 0.0
C341 C 0.32656 0.12811 0.53356 0.0
H342 H 0.4033 0.18302 0.53072 0.0
C343 C 0.32223 0.12239 0.48561 0.0
C344 C 0.34709 0.13829 0.45372 0.0
H345 H 0.30696 0.11542 0.55722 0.0
H346 H 0.29946 0.10539 0.47361 0.0
C347 C 0.37632 0.16011 0.47078 0.0
C348 C 0.87459 0.4079 0.46414 0.0
C349 C 0.86437 0.375 0.44151 0.0
H350 H 0.88019 0.43669 0.52902 0.0
C351 C 0.85173 0.34514 0.46847 0.0
H352 H 0.88433 0.43147 0.44438 0.0
C353 C 0.84949 0.34809 0.51704 0.0
C354 C 0.85959 0.38105 0.53966 0.0
H355 H 0.84365 0.31941 0.4521 0.0
H356 H 0.83972 0.32455 0.53682 0.0
C357 C 0.87211 0.41094 0.51268 0.0
C358 C 0.58774 0.8845 0.51824 0.0
C359 C 0.61449 0.86574 0.5444 0.0
H360 H 0.56778 0.89894 0.45048 0.0
C361 C 0.64217 0.84623 0.52072 0.0
H362 H 0.56602 0.89977 0.53535 0.0
C363 C 0.64309 0.84562 0.4719 0.0
C364 C 0.61648 0.86468 0.4458 0.0
H365 H 0.66316 0.83143 0.53987 0.0
H366 H 0.66481 0.83045 0.45466 0.0
C367 C 0.58877 0.88405 0.46952 0.0
C368 C 0.17227 0.4933 0.30694 0.0
C369 C 0.16793 0.526 0.28133 0.0
H370 H 0.17617 0.43444 0.30478 0.0
C371 C 0.16707 0.52416 0.23232 0.0
H372 H 0.17309 0.49381 0.34474 0.0
C373 C 0.16911 0.49025 0.20945 0.0
C374 C 0.17171 0.45737 0.23507 0.0
H375 H 0.16403 0.54889 0.21154 0.0
H376 H 0.1674 0.4898 0.17169 0.0
C377 C 0.17397 0.45928 0.28404 0.0
C378 C 0.50052 0.1637 0.18623 0.0
C379 C 0.5346 0.16949 0.20858 0.0
H380 H 0.44222 0.15654 0.19407 0.0
C381 C 0.53509 0.17597 0.25699 0.0
H382 H 0.49913 0.15864 0.14899 0.0
C383 C 0.50242 0.17487 0.28283 0.0
C384 C 0.46861 0.16698 0.26085 0.0
H385 H 0.56089 0.18067 0.27524 0.0
H386 H 0.50389 0.17884 0.32027 0.0
C387 C 0.46789 0.16229 0.21213 0.0
C388 C 0.78766 0.51368 0.28741 0.0
C389 C 0.80933 0.52564 0.24956 0.0
H390 H 0.77139 0.46837 0.3309 0.0
C391 C 0.82956 0.49951 0.22419 0.0
H392 H 0.77162 0.53311 0.30754 0.0
C393 C 0.82925 0.46251 0.23736 0.0
C394 C 0.80882 0.45072 0.27636 0.0
H395 H 0.84629 0.5077 0.1946 0.0
H396 H 0.84591 0.44335 0.21763 0.0
C397 C 0.78746 0.47656 0.30073 0.0
C398 C 0.52957 0.80785 0.22375 0.0
C399 C 0.53245 0.80591 0.27264 0.0
H400 H 0.49374 0.8113 0.16452 0.0
C401 C 0.50005 0.80282 0.2993 0.0
H402 H 0.55403 0.81008 0.20222 0.0
C403 C 0.46546 0.80395 0.27772 0.0
C404 C 0.46258 0.8077 0.229 0.0
H405 H 0.5013 0.80129 0.33703 0.0
H406 H 0.44098 0.80301 0.29937 0.0
C407 C 0.49499 0.8085 0.20213 0.0
C408 C 0.83757 0.52236 0.74862 0.0
C409 C 0.8565 0.53295 0.7894 0.0
H410 H 0.8211 0.47792 0.7037 0.0
C411 C 0.87166 0.50551 0.81803 0.0
H412 H 0.82555 0.54286 0.72584 0.0
C413 C 0.86888 0.46838 0.80557 0.0
C414 C 0.85113 0.45782 0.76398 0.0
H415 H 0.8862 0.51269 0.84985 0.0
H416 H 0.88152 0.44806 0.82806 0.0
C417 C 0.83505 0.48516 0.73592 0.0
C418 C 0.51257 0.91493 0.74665 0.0
C419 C 0.53067 0.88132 0.73933 0.0
H420 H 0.46307 0.942 0.76706 0.0
C421 C 0.5114 0.8482 0.74762 0.0
H422 H 0.52654 0.94097 0.74057 0.0
C423 C 0.47474 0.8488 0.76299 0.0
C424 C 0.45672 0.88252 0.77022 0.0
H425 H 0.5246 0.82185 0.7423 0.0
H426 H 0.46056 0.82289 0.76915 0.0
C427 C 0.47607 0.91552 0.76184 0.0
C428 C 0.14933 0.50274 0.83924 0.0
C429 C 0.15953 0.47358 0.80977 0.0
H430 H 0.1435 0.56099 0.84724 0.0
C431 C 0.17487 0.48172 0.76587 0.0
H432 H 0.13769 0.49739 0.87341 0.0
C433 C 0.17797 0.5182 0.75071 0.0
C434 C 0.16611 0.54727 0.77932 0.0
H435 H 0.18312 0.45987 0.74239 0.0
H436 H 0.18861 0.52351 0.71601 0.0
C437 C 0.15275 0.53922 0.82425 0.0
C438 C 0.47794 0.15869 0.73428 0.0
C439 C 0.46045 0.12796 0.7138 0.0
H440 H 0.52815 0.1813 0.76236 0.0
C441 C 0.48131 0.09628 0.70469 0.0
H442 H 0.46261 0.18354 0.74163 0.0
C443 C 0.51855 0.09496 0.71666 0.0
C444 C 0.53601 0.12535 0.73782 0.0
H445 H 0.4688 0.07212 0.68888 0.0
H446 H 0.53356 0.06985 0.70959 0.0
C447 C 0.51546 0.15744 0.74606 0.0
C448 C 0.68678 0.00062 0.78308 0.0
C449 C 0.68269 0.03334 0.75742 0.0
H450 H 0.68601 0.94163 0.78188 0.0
C451 C 0.67869 0.03112 0.70866 0.0
H452 H 0.69 0.00135 0.82067 0.0
C453 C 0.67665 -0.00311 0.68638 0.0
C454 C 0.67822 0.96413 0.71243 0.0
H455 H 0.67572 0.05582 0.68782 0.0
H456 H 0.67205 0.99618 0.64902 0.0
C457 C 0.6844 0.96636 0.76084 0.0
C458 C 0.97658 0.67542 0.72325 0.0
C459 C 0.97367 0.66478 0.77033 0.0
H460 H 0.01234 0.6852 0.66503 0.0
C461 C 0.00603 0.65773 0.79569 0.0
H462 H 0.95217 0.68125 0.7028 0.0
C463 C 0.04046 0.65989 0.77402 0.0
C464 C 0.04332 0.66938 0.72656 0.0
H465 H 0.00478 0.6496 0.83204 0.0
H466 H 0.0648 0.65338 0.79431 0.0
C467 C 0.01108 0.67781 0.70162 0.0
C468 C 0.31703 0.037 0.79003 0.0
C469 C 0.31355 0.03686 0.74112 0.0
H470 H 0.32103 0.00489 0.85244 0.0
C471 C 0.30787 0.00315 0.718 0.0
H472 H 0.32111 0.06258 0.80892 0.0
C473 C 0.30798 0.97008 0.74292 0.0
C474 C 0.31348 0.97008 0.79153 0.0
H475 H 0.30488 0.0021 0.68039 0.0
H476 H 0.30505 0.94444 0.72384 0.0
C477 C 0.31684 0.00394 0.81501 0.0
C478 C 0.0303 0.35889 0.72193 0.0
C479 C 0.03228 0.33862 0.76366 0.0
H480 H 0.99594 0.38018 0.66772 0.0
C481 C -5e-05 0.3222 0.78132 0.0
H482 H 0.05468 0.37181 0.70724 0.0
C483 C 0.96618 0.32694 0.7585 0.0
C484 C 0.96406 0.3483 0.71765 0.0
H485 H 0.00055 0.30631 0.81331 0.0
H486 H 0.94162 0.31464 0.77354 0.0
C487 C 0.99657 0.36373 0.69925 0.0
C488 C 0.3387 0.006 0.2682 0.0
C489 C 0.36018 0.01798 0.30625 0.0
H490 H 0.32042 0.96024 0.22673 0.0
C491 C 0.3782 0.9916 0.3338 0.0
H492 H 0.32441 0.02563 0.24634 0.0
C493 C 0.37575 0.95416 0.32276 0.0
C494 C 0.35539 0.94225 0.28373 0.0
H495 H 0.39479 -0.00013 0.36354 0.0
H496 H 0.39065 0.93469 0.34419 0.0
C497 C 0.33643 0.96852 0.25696 0.0
C498 C 0.97863 0.39076 0.22146 0.0
C499 C 0.9625 0.3608 0.24502 0.0
H500 H 0.02688 0.41344 0.18975 0.0
C501 C 0.98379 0.32923 0.25338 0.0
H502 H 0.96296 0.41541 0.21415 0.0
C503 C 0.02084 0.32817 0.23951 0.0
C504 C 0.03704 0.35853 0.21668 0.0
H505 H 0.97208 0.30571 0.27146 0.0
H506 H 0.03686 0.30381 0.24712 0.0
C507 C 0.01535 0.38958 0.20731 0.0
C508 C 0.65335 0.97418 0.24874 0.0
C509 C 0.61954 0.95561 0.25512 0.0
H510 H 0.6804 0.02475 0.22954 0.0
C511 C 0.58656 0.97473 0.24736 0.0
H512 H 0.67924 0.96016 0.25448 0.0
C513 C 0.58723 0.01146 0.23339 0.0
C514 C 0.6209 0.03008 0.22659 0.0
H515 H 0.56002 0.96136 0.25209 0.0
H516 H 0.56116 0.02517 0.22767 0.0
C517 C 0.65402 0.01112 0.23447 0.0
C518 C 0.00737 0.65256 0.25533 0.0
C519 C 0.03585 0.63838 0.22742 0.0
H520 H 0.94914 0.66031 0.26348 0.0
C521 C 0.0268 0.62231 0.1842 0.0
H522 H 0.01343 0.66519 0.28877 0.0
C523 C 0.99007 0.61926 0.16993 0.0
C524 C 0.96149 0.63249 0.19833 0.0
H525 H 0.04802 0.61115 0.16177 0.0
H526 H 0.98408 0.60601 0.13686 0.0
C527 C 0.97054 0.6498 0.24082 0.0
loop_
_geom_bond_atom_site_label_1
_geom_bond_atom_site_label_2
_geom_bond_distance
_geom_bond_site_symmetry_2
_ccdc_geom_bond_type
C0 O1 1.160 . S
C0 O7 1.185 . S
O1 C0 1.160 . S
O2 Zn3 1.899 . S
O2 C10 1.284 . S
Zn3 O2 1.899 . S
Zn3 O4 2.032 . S
Zn3 O7 2.086 . S
Zn3 O12 1.977 . S
O4 Zn3 2.032 . S
O4 C8 1.278 . S
C5 O6 1.203 . S
C5 O12 1.267 . S
O6 C5 1.203 . S
O7 C0 1.185 . S
O7 Zn3 2.086 . S
C8 O4 1.278 . S
C8 O9 1.211 . S
O9 C8 1.211 . S
C10 O2 1.284 . S
C10 O11 1.273 . S
O11 C10 1.273 . S
O12 Zn3 1.977 . S
O12 C5 1.267 . S
C13 O14 1.160 . S
C13 O20 1.185 . S
O14 C13 1.160 . S
O15 Zn16 1.899 . S
O15 C23 1.284 . S
Zn16 O15 1.899 . S
Zn16 O17 2.032 . S
Zn16 O20 2.086 . S
Zn16 O25 1.977 . S
O17 Zn16 2.032 . S
O17 C21 1.278 . S
C18 O19 1.203 . S
C18 O25 1.267 . S
O19 C18 1.203 . S
O20 C13 1.185 . S
O20 Zn16 2.086 . S
C21 O17 1.278 . S
C21 O22 1.211 . S
O22 C21 1.211 . S
C23 O15 1.284 . S
C23 O24 1.273 . S
O24 C23 1.273 . S
O25 Zn16 1.977 . S
O25 C18 1.267 . S
C26 O27 1.160 . S
C26 O33 1.185 . S
O27 C26 1.160 . S
O28 Zn29 1.899 . S
O28 C36 1.284 . S
Zn29 O28 1.899 . S
Zn29 O30 2.032 . S
Zn29 O33 2.086 . S
Zn29 O38 1.977 . S
O30 Zn29 2.032 . S
O30 C34 1.278 . S
C31 O32 1.203 . S
C31 O38 1.267 . S
O32 C31 1.203 . S
O33 C26 1.185 . S
O33 Zn29 2.086 . S
C34 O30 1.278 . S
C34 O35 1.211 . S
O35 C34 1.211 . S
C36 O28 1.284 . S
C36 O37 1.273 . S
O37 C36 1.273 . S
O38 Zn29 1.977 . S
O38 C31 1.267 . S
C39 O40 1.160 . S
C39 O46 1.185 . S
O40 C39 1.160 . S
O41 Zn42 1.899 . S
O41 C49 1.284 . S
Zn42 O41 1.899 . S
Zn42 O43 2.032 . S
Zn42 O46 2.086 . S
Zn42 O51 1.977 . S
O43 Zn42 2.032 . S
O43 C47 1.278 . S
C44 O45 1.203 . S
C44 O51 1.267 . S
O45 C44 1.203 . S
O46 C39 1.185 . S
O46 Zn42 2.086 . S
C47 O43 1.278 . S
C47 O48 1.211 . S
O48 C47 1.211 . S
C49 O41 1.284 . S
C49 O50 1.273 . S
O50 C49 1.273 . S
O51 Zn42 1.977 . S
O51 C44 1.267 . S
C52 O53 1.160 . S
C52 O59 1.185 . S
O53 C52 1.160 . S
O54 Zn55 1.899 . S
O54 C62 1.284 . S
Zn55 O54 1.899 . S
Zn55 O56 2.032 . S
Zn55 O59 2.086 . S
Zn55 O64 1.977 . S
O56 Zn55 2.032 . S
O56 C60 1.278 . S
C57 O58 1.203 . S
C57 O64 1.267 . S
O58 C57 1.203 . S
O59 C52 1.185 . S
O59 Zn55 2.086 . S
C60 O56 1.278 . S
C60 O61 1.211 . S
O61 C60 1.211 . S
C62 O54 1.284 . S
C62 O63 1.273 . S
O63 C62 1.273 . S
O64 Zn55 1.977 . S
O64 C57 1.267 . S
C65 O66 1.160 . S
C65 O72 1.185 . S
O66 C65 1.160 . S
O67 Zn68 1.899 . S
O67 C75 1.284 . S
Zn68 O67 1.899 . S
Zn68 O69 2.032 . S
Zn68 O72 2.086 . S
Zn68 O77 1.977 . S
O69 Zn68 2.032 . S
O69 C73 1.278 . S
C70 O71 1.203 . S
C70 O77 1.267 . S
O71 C70 1.203 . S
O72 C65 1.185 . S
O72 Zn68 2.086 . S
C73 O69 1.278 . S
C73 O74 1.211 . S
O74 C73 1.211 . S
C75 O67 1.284 . S
C75 O76 1.273 . S
O76 C75 1.273 . S
O77 Zn68 1.977 . S
O77 C70 1.267 . S
C78 O79 1.160 . S
C78 O85 1.185 . S
O79 C78 1.160 . S
O80 Zn81 1.899 . S
O80 C88 1.284 . S
Zn81 O80 1.899 . S
Zn81 O82 2.032 . S
Zn81 O85 2.086 . S
Zn81 O90 1.977 . S
O82 Zn81 2.032 . S
O82 C86 1.278 . S
C83 O84 1.203 . S
C83 O90 1.267 . S
O84 C83 1.203 . S
O85 C78 1.185 . S
O85 Zn81 2.086 . S
C86 O82 1.278 . S
C86 O87 1.211 . S
O87 C86 1.211 . S
C88 O80 1.284 . S
C88 O89 1.273 . S
O89 C88 1.273 . S
O90 Zn81 1.977 . S
O90 C83 1.267 . S
C91 O92 1.160 . S
C91 O98 1.185 . S
O92 C91 1.160 . S
O93 Zn94 1.899 . S
O93 C101 1.284 . S
Zn94 O93 1.899 . S
Zn94 O95 2.032 . S
Zn94 O98 2.086 . S
Zn94 O103 1.977 . S
O95 Zn94 2.032 . S
O95 C99 1.278 . S
C96 O97 1.203 . S
C96 O103 1.267 . S
O97 C96 1.203 . S
O98 C91 1.185 . S
O98 Zn94 2.086 . S
C99 O95 1.278 . S
C99 O100 1.211 . S
O100 C99 1.211 . S
C101 O93 1.284 . S
C101 O102 1.273 . S
O102 C101 1.273 . S
O103 Zn94 1.977 . S
O103 C96 1.267 . S
C104 O105 1.160 . S
C104 O111 1.185 . S
O105 C104 1.160 . S
O106 Zn107 1.899 . S
O106 C114 1.284 . S
Zn107 O106 1.899 . S
Zn107 O108 2.032 . S
Zn107 O111 2.086 . S
Zn107 O116 1.977 . S
O108 Zn107 2.032 . S
O108 C112 1.278 . S
C109 O110 1.203 . S
C109 O116 1.267 . S
O110 C109 1.203 . S
O111 C104 1.185 . S
O111 Zn107 2.086 . S
C112 O108 1.278 . S
C112 O113 1.211 . S
O113 C112 1.211 . S
C114 O106 1.284 . S
C114 O115 1.273 . S
O115 C114 1.273 . S
O116 Zn107 1.977 . S
O116 C109 1.267 . S
C117 O118 1.160 . S
C117 O124 1.185 . S
O118 C117 1.160 . S
O119 Zn120 1.899 . S
O119 C127 1.284 . S
Zn120 O119 1.899 . S
Zn120 O121 2.032 . S
Zn120 O124 2.086 . S
Zn120 O129 1.977 . S
O121 Zn120 2.032 . S
O121 C125 1.278 . S
C122 O123 1.203 . S
C122 O129 1.267 . S
O123 C122 1.203 . S
O124 C117 1.185 . S
O124 Zn120 2.086 . S
C125 O121 1.278 . S
C125 O126 1.211 . S
O126 C125 1.211 . S
C127 O119 1.284 . S
C127 O128 1.273 . S
O128 C127 1.273 . S
O129 Zn120 1.977 . S
O129 C122 1.267 . S
C130 O131 1.160 . S
C130 O137 1.185 . S
O131 C130 1.160 . S
O132 Zn133 1.899 . S
O132 C140 1.284 . S
Zn133 O132 1.899 . S
Zn133 O134 2.032 . S
Zn133 O137 2.086 . S
Zn133 O142 1.977 . S
O134 Zn133 2.032 . S
O134 C138 1.278 . S
C135 O136 1.203 . S
C135 O142 1.267 . S
O136 C135 1.203 . S
O137 C130 1.185 . S
O137 Zn133 2.086 . S
C138 O134 1.278 . S
C138 O139 1.211 . S
O139 C138 1.211 . S
C140 O132 1.284 . S
C140 O141 1.273 . S
O141 C140 1.273 . S
O142 Zn133 1.977 . S
O142 C135 1.267 . S
C143 O144 1.160 . S
C143 O150 1.185 . S
O144 C143 1.160 . S
O145 Zn146 1.899 . S
O145 C153 1.284 . S
Zn146 O145 1.899 . S
Zn146 O147 2.032 . S
Zn146 O150 2.086 . S
Zn146 O155 1.977 . S
O147 Zn146 2.032 . S
O147 C151 1.278 . S
C148 O149 1.203 . S
C148 O155 1.267 . S
O149 C148 1.203 . S
O150 C143 1.185 . S
O150 Zn146 2.086 . S
C151 O147 1.278 . S
C151 O152 1.211 . S
O152 C151 1.211 . S
C153 O145 1.284 . S
C153 O154 1.273 . S
O154 C153 1.273 . S
O155 Zn146 1.977 . S
O155 C148 1.267 . S
C156 O157 1.160 . S
C156 O163 1.185 . S
O157 C156 1.160 . S
O158 Zn159 1.899 . S
O158 C166 1.284 . S
Zn159 O158 1.899 . S
Zn159 O160 2.032 . S
Zn159 O163 2.086 . S
Zn159 O168 1.977 . S
O160 Zn159 2.032 . S
O160 C164 1.278 . S
C161 O162 1.203 . S
C161 O168 1.267 . S
O162 C161 1.203 . S
O163 C156 1.185 . S
O163 Zn159 2.086 . S
C164 O160 1.278 . S
C164 O165 1.211 . S
O165 C164 1.211 . S
C166 O158 1.284 . S
C166 O167 1.273 . S
O167 C166 1.273 . S
O168 Zn159 1.977 . S
O168 C161 1.267 . S
C169 O170 1.160 . S
C169 O176 1.185 . S
O170 C169 1.160 . S
O171 Zn172 1.899 . S
O171 C179 1.284 . S
Zn172 O171 1.899 . S
Zn172 O173 2.032 . S
Zn172 O176 2.086 . S
Zn172 O181 1.977 . S
O173 Zn172 2.032 . S
O173 C177 1.278 . S
C174 O175 1.203 . S
C174 O181 1.267 . S
O175 C174 1.203 . S
O176 C169 1.185 . S
O176 Zn172 2.086 . S
C177 O173 1.278 . S
C177 O178 1.211 . S
O178 C177 1.211 . S
C179 O171 1.284 . S
C179 O180 1.273 . S
O180 C179 1.273 . S
O181 Zn172 1.977 . S
O181 C174 1.267 . S
C182 O183 1.160 . S
C182 O189 1.185 . S
O183 C182 1.160 . S
O184 Zn185 1.899 . S
O184 C192 1.284 . S
Zn185 O184 1.899 . S
Zn185 O186 2.032 . S
Zn185 O189 2.086 . S
Zn185 O194 1.977 . S
O186 Zn185 2.032 . S
O186 C190 1.278 . S
C187 O188 1.203 . S
C187 O194 1.267 . S
O188 C187 1.203 . S
O189 C182 1.185 . S
O189 Zn185 2.086 . S
C190 O186 1.278 . S
C190 O191 1.211 . S
O191 C190 1.211 . S
C192 O184 1.284 . S
C192 O193 1.273 . S
O193 C192 1.273 . S
O194 Zn185 1.977 . S
O194 C187 1.267 . S
C195 O196 1.160 . S
C195 O202 1.185 . S
O196 C195 1.160 . S
O197 Zn198 1.899 . S
O197 C205 1.284 . S
Zn198 O197 1.899 . S
Zn198 O199 2.032 . S
Zn198 O202 2.086 . S
Zn198 O207 1.977 . S
O199 Zn198 2.032 . S
O199 C203 1.278 . S
C200 O201 1.203 . S
C200 O207 1.267 . S
O201 C200 1.203 . S
O202 C195 1.185 . S
O202 Zn198 2.086 . S
C203 O199 1.278 . S
C203 O204 1.211 . S
O204 C203 1.211 . S
C205 O197 1.284 . S
C205 O206 1.273 . S
O206 C205 1.273 . S
O207 Zn198 1.977 . S
O207 C200 1.267 . S
C208 C209 1.387 . S
C208 H212 0.950 . S
C208 C217 1.390 . S
C209 C208 1.387 . S
C209 C211 1.387 . S
H210 C217 0.950 . S
C211 C209 1.387 . S
C211 C213 1.390 . S
C211 H215 0.950 . S
H212 C208 0.950 . S
C213 C211 1.390 . S
C213 C214 1.387 . S
C213 H216 0.950 . S
C214 C213 1.387 . S
C214 C217 1.387 . S
H215 C211 0.950 . S
H216 C213 0.950 . S
C217 C208 1.390 . S
C217 H210 0.950 . S
C217 C214 1.387 . S
C218 C219 1.387 . S
C218 H222 0.950 . S
C218 C227 1.390 . S
C219 C218 1.387 . S
C219 C221 1.387 . S
H220 C227 0.950 . S
C221 C219 1.387 . S
C221 C223 1.390 . S
C221 H225 0.950 . S
H222 C218 0.950 . S
C223 C221 1.390 . S
C223 C224 1.387 . S
C223 H226 0.950 . S
C224 C223 1.387 . S
C224 C227 1.387 . S
H225 C221 0.950 . S
H226 C223 0.950 . S
C227 C218 1.390 . S
C227 H220 0.950 . S
C227 C224 1.387 . S
C228 C229 1.387 . S
C228 H232 0.950 . S
C228 C237 1.390 . S
C229 C228 1.387 . S
C229 C231 1.387 . S
H230 C237 0.950 . S
C231 C229 1.387 . S
C231 C233 1.390 . S
C231 H235 0.950 . S
H232 C228 0.950 . S
C233 C231 1.390 . S
C233 C234 1.387 . S
C233 H236 0.950 . S
C234 C233 1.387 . S
C234 C237 1.387 . S
H235 C231 0.950 . S
H236 C233 0.950 . S
C237 C228 1.390 . S
C237 H230 0.950 . S
C237 C234 1.387 . S
C238 C239 1.387 . S
C238 H242 0.950 . S
C238 C247 1.390 . S
C239 C238 1.387 . S
C239 C241 1.387 . S
H240 C247 0.950 . S
C241 C239 1.387 . S
C241 C243 1.390 . S
C241 H245 0.950 . S
H242 C238 0.950 . S
C243 C241 1.390 . S
C243 C244 1.387 . S
C243 H246 0.950 . S
C244 C243 1.387 . S
C244 C247 1.387 . S
H245 C241 0.950 . S
H246 C243 0.950 . S
C247 C238 1.390 . S
C247 H240 0.950 . S
C247 C244 1.387 . S
C248 C249 1.387 . S
C248 H252 0.950 . S
C248 C257 1.390 . S
C249 C248 1.387 . S
C249 C251 1.387 . S
H250 C257 0.950 . S
C251 C249 1.387 . S
C251 C253 1.390 . S
C251 H255 0.950 . S
H252 C248 0.950 . S
C253 C251 1.390 . S
C253 C254 1.387 . S
C253 H256 0.950 . S
C254 C253 1.387 . S
C254 C257 1.387 . S
H255 C251 0.950 . S
H256 C253 0.950 . S
C257 C248 1.390 . S
C257 H250 0.950 . S
C257 C254 1.387 . S
C258 C259 1.387 . S
C258 H262 0.950 . S
C258 C267 1.390 . S
C259 C258 1.387 . S
C259 C261 1.387 . S
H260 C267 0.950 . S
C261 C259 1.387 . S
C261 C263 1.390 . S
C261 H265 0.950 . S
H262 C258 0.950 . S
C263 C261 1.390 . S
C263 C264 1.387 . S
C263 H266 0.950 . S
C264 C263 1.387 . S
C264 C267 1.387 . S
H265 C261 0.950 . S
H266 C263 0.950 . S
C267 C258 1.390 . S
C267 H260 0.950 . S
C267 C264 1.387 . S
C268 C269 1.387 . S
C268 H272 0.950 . S
C268 C277 1.390 . S
C269 C268 1.387 . S
C269 C271 1.387 . S
H270 C277 0.950 . S
C271 C269 1.387 . S
C271 C273 1.390 . S
C271 H275 0.950 . S
H272 C268 0.950 . S
C273 C271 1.390 . S
C273 C274 1.387 . S
C273 H276 0.950 . S
C274 C273 1.387 . S
C274 C277 1.387 . S
H275 C271 0.950 . S
H276 C273 0.950 . S
C277 C268 1.390 . S
C277 H270 0.950 . S
C277 C274 1.387 . S
C278 C279 1.387 . S
C278 H282 0.950 . S
C278 C287 1.390 . S
C279 C278 1.387 . S
C279 C281 1.387 . S
H280 C287 0.950 . S
C281 C279 1.387 . S
C281 C283 1.390 . S
C281 H285 0.950 . S
H282 C278 0.950 . S
C283 C281 1.390 . S
C283 C284 1.387 . S
C283 H286 0.950 . S
C284 C283 1.387 . S
C284 C287 1.387 . S
H285 C281 0.950 . S
H286 C283 0.950 . S
C287 C278 1.390 . S
C287 H280 0.950 . S
C287 C284 1.387 . S
C288 C289 1.387 . S
C288 H292 0.950 . S
C288 C297 1.390 1_556 S
C289 C288 1.387 . S
C289 C291 1.387 . S
H290 C297 0.950 . S
C291 C289 1.387 . S
C291 C293 1.390 1_556 S
C291 H295 0.950 . S
H292 C288 0.950 . S
C293 C291 1.390 1_554 S
C293 C294 1.387 . S
C293 H296 0.950 . S
C294 C293 1.387 . S
C294 C297 1.387 . S
H295 C291 0.950 . S
H296 C293 0.950 . S
C297 C288 1.390 1_554 S
C297 H290 0.950 . S
C297 C294 1.387 . S
C298 C299 1.387 . S
C298 H302 0.950 . S
C298 C307 1.390 1_556 S
C299 C298 1.387 . S
C299 C301 1.387 . S
H300 C307 0.950 . S
C301 C299 1.387 . S
C301 C303 1.390 1_556 S
C301 H305 0.950 . S
H302 C298 0.950 . S
C303 C301 1.390 1_554 S
C303 C304 1.387 . S
C303 H306 0.950 . S
C304 C303 1.387 . S
C304 C307 1.387 . S
H305 C301 0.950 . S
H306 C303 0.950 . S
C307 C298 1.390 1_554 S
C307 H300 0.950 . S
C307 C304 1.387 . S
C308 C309 1.387 . S
C308 H312 0.950 . S
C308 C317 1.390 1_556 S
C309 C308 1.387 . S
C309 C311 1.387 . S
H310 C317 0.950 . S
C311 C309 1.387 . S
C311 C313 1.390 1_556 S
C311 H315 0.950 . S
H312 C308 0.950 . S
C313 C311 1.390 1_554 S
C313 C314 1.387 . S
C313 H316 0.950 . S
C314 C313 1.387 . S
C314 C317 1.387 . S
H315 C311 0.950 . S
H316 C313 0.950 . S
C317 C308 1.390 1_554 S
C317 H310 0.950 . S
C317 C314 1.387 . S
C318 C319 1.387 . S
C318 H322 0.950 . S
C318 C327 1.390 1_554 S
C319 C318 1.387 . S
C319 C321 1.387 . S
H320 C327 0.950 . S
C321 C319 1.387 . S
C321 C323 1.390 1_554 S
C321 H325 0.950 . S
H322 C318 0.950 . S
C323 C321 1.390 1_556 S
C323 C324 1.387 . S
C323 H326 0.950 . S
C324 C323 1.387 . S
C324 C327 1.387 . S
H325 C321 0.950 . S
H326 C323 0.950 . S
C327 C318 1.390 1_556 S
C327 H320 0.950 . S
C327 C324 1.387 . S
C328 C329 1.387 . S
C328 H332 0.950 . S
C328 C337 1.390 . S
C329 C328 1.387 . S
C329 C331 1.387 . S
H330 C337 0.950 . S
C331 C329 1.387 . S
C331 C333 1.390 . S
C331 H335 0.950 . S
H332 C328 0.950 . S
C333 C331 1.390 . S
C333 C334 1.387 . S
C333 H336 0.950 . S
C334 C333 1.387 . S
C334 C337 1.387 . S
H335 C331 0.950 . S
H336 C333 0.950 . S
C337 C328 1.390 . S
C337 H330 0.950 . S
C337 C334 1.387 . S
C338 C339 1.387 . S
C338 H342 0.950 . S
C338 C347 1.390 . S
C339 C338 1.387 . S
C339 C341 1.387 . S
H340 C347 0.950 . S
C341 C339 1.387 . S
C341 C343 1.390 . S
C341 H345 0.950 . S
H342 C338 0.950 . S
C343 C341 1.390 . S
C343 C344 1.387 . S
C343 H346 0.950 . S
C344 C343 1.387 . S
C344 C347 1.387 . S
H345 C341 0.950 . S
H346 C343 0.950 . S
C347 C338 1.390 . S
C347 H340 0.950 . S
C347 C344 1.387 . S
C348 C349 1.387 . S
C348 H352 0.950 . S
C348 C357 1.390 . S
C349 C348 1.387 . S
C349 C351 1.387 . S
H350 C357 0.950 . S
C351 C349 1.387 . S
C351 C353 1.390 . S
C351 H355 0.950 . S
H352 C348 0.950 . S
C353 C351 1.390 . S
C353 C354 1.387 . S
C353 H356 0.950 . S
C354 C353 1.387 . S
C354 C357 1.387 . S
H355 C351 0.950 . S
H356 C353 0.950 . S
C357 C348 1.390 . S
C357 H350 0.950 . S
C357 C354 1.387 . S
C358 C359 1.387 . S
C358 H362 0.950 . S
C358 C367 1.390 . S
C359 C358 1.387 . S
C359 C361 1.387 . S
H360 C367 0.950 . S
C361 C359 1.387 . S
C361 C363 1.390 . S
C361 H365 0.950 . S
H362 C358 0.950 . S
C363 C361 1.390 . S
C363 C364 1.387 . S
C363 H366 0.950 . S
C364 C363 1.387 . S
C364 C367 1.387 . S
H365 C361 0.950 . S
H366 C363 0.950 . S
C367 C358 1.390 . S
C367 H360 0.950 . S
C367 C364 1.387 . S
C368 C369 1.387 . S
C368 H372 0.950 . S
C368 C377 1.390 . S
C369 C368 1.387 . S
C369 C371 1.387 . S
H370 C377 0.950 . S
C371 C369 1.387 . S
C371 C373 1.390 . S
C371 H375 0.950 . S
H372 C368 0.950 . S
C373 C371 1.390 . S
C373 C374 1.387 . S
C373 H376 0.950 . S
C374 C373 1.387 . S
C374 C377 1.387 . S
H375 C371 0.950 . S
H376 C373 0.950 . S
C377 C368 1.390 . S
C377 H370 0.950 . S
C377 C374 1.387 . S
C378 C379 1.387 . S
C378 H382 0.950 . S
C378 C387 1.390 . S
C379 C378 1.387 . S
C379 C381 1.387 . S
H380 C387 0.950 . S
C381 C379 1.387 . S
C381 C383 1.390 . S
C381 H385 0.950 . S
H382 C378 0.950 . S
C383 C381 1.390 . S
C383 C384 1.387 . S
C383 H386 0.950 . S
C384 C383 1.387 . S
C384 C387 1.387 . S
H385 C381 0.950 . S
H386 C383 0.950 . S
C387 C378 1.390 . S
C387 H380 0.950 . S
C387 C384 1.387 . S
C388 C389 1.387 . S
C388 H392 0.950 . S
C388 C397 1.390 . S
C389 C388 1.387 . S
C389 C391 1.387 . S
H390 C397 0.950 . S
C391 C389 1.387 . S
C391 C393 1.390 . S
C391 H395 0.950 . S
H392 C388 0.950 . S
C393 C391 1.390 . S
C393 C394 1.387 . S
C393 H396 0.950 . S
C394 C393 1.387 . S
C394 C397 1.387 . S
H395 C391 0.950 . S
H396 C393 0.950 . S
C397 C388 1.390 . S
C397 H390 0.950 . S
C397 C394 1.387 . S
C398 C399 1.387 . S
C398 H402 0.950 . S
C398 C407 1.390 . S
C399 C398 1.387 . S
C399 C401 1.387 . S
H400 C407 0.950 . S
C401 C399 1.387 . S
C401 C403 1.390 . S
C401 H405 0.950 . S
H402 C398 0.950 . S
C403 C401 1.390 . S
C403 C404 1.387 . S
C403 H406 0.950 . S
C404 C403 1.387 . S
C404 C407 1.387 . S
H405 C401 0.950 . S
H406 C403 0.950 . S
C407 C398 1.390 . S
C407 H400 0.950 . S
C407 C404 1.387 . S
C408 C409 1.387 . S
C408 H412 0.950 . S
C408 C417 1.390 . S
C409 C408 1.387 . S
C409 C411 1.387 . S
H410 C417 0.950 . S
C411 C409 1.387 . S
C411 C413 1.390 . S
C411 H415 0.950 . S
H412 C408 0.950 . S
C413 C411 1.390 . S
C413 C414 1.387 . S
C413 H416 0.950 . S
C414 C413 1.387 . S
C414 C417 1.387 . S
H415 C411 0.950 . S
H416 C413 0.950 . S
C417 C408 1.390 . S
C417 H410 0.950 . S
C417 C414 1.387 . S
C418 C419 1.387 . S
C418 H422 0.950 . S
C418 C427 1.390 . S
C419 C418 1.387 . S
C419 C421 1.387 . S
H420 C427 0.950 . S
C421 C419 1.387 . S
C421 C423 1.390 . S
C421 H425 0.950 . S
H422 C418 0.950 . S
C423 C421 1.390 . S
C423 C424 1.387 . S
C423 H426 0.950 . S
C424 C423 1.387 . S
C424 C427 1.387 . S
H425 C421 0.950 . S
H426 C423 0.950 . S
C427 C418 1.390 . S
C427 H420 0.950 . S
C427 C424 1.387 . S
C428 C429 1.387 . S
C428 H432 0.950 . S
C428 C437 1.390 . S
C429 C428 1.387 . S
C429 C431 1.387 . S
H430 C437 0.950 . S
C431 C429 1.387 . S
C431 C433 1.390 . S
C431 H435 0.950 . S
H432 C428 0.950 . S
C433 C431 1.390 . S
C433 C434 1.387 . S
C433 H436 0.950 . S
C434 C433 1.387 . S
C434 C437 1.387 . S
H435 C431 0.950 . S
H436 C433 0.950 . S
C437 C428 1.390 . S
C437 H430 0.950 . S
C437 C434 1.387 . S
C438 C439 1.387 . S
C438 H442 0.950 . S
C438 C447 1.390 . S
C439 C438 1.387 . S
C439 C441 1.387 . S
H440 C447 0.950 . S
C441 C439 1.387 . S
C441 C443 1.390 . S
C441 H445 0.950 . S
H442 C438 0.950 . S
C443 C441 1.390 . S
C443 C444 1.387 . S
C443 H446 0.950 . S
C444 C443 1.387 . S
C444 C447 1.387 . S
H445 C441 0.950 . S
H446 C443 0.950 . S
C447 C438 1.390 . S
C447 H440 0.950 . S
C447 C444 1.387 . S
C448 C449 1.387 . S
C448 H452 0.950 . S
C448 C457 1.390 1_545 S
C449 C448 1.387 . S
C449 C451 1.387 . S
H450 C457 0.950 . S
C451 C449 1.387 . S
C451 C453 1.390 1_545 S
C451 H455 0.950 . S
H452 C448 0.950 . S
C453 C451 1.390 1_565 S
C453 C454 1.387 . S
C453 H456 0.950 . S
C454 C453 1.387 . S
C454 C457 1.387 . S
H455 C451 0.950 . S
H456 C453 0.950 . S
C457 C448 1.390 1_565 S
C457 H450 0.950 . S
C457 C454 1.387 . S
C458 C459 1.387 . S
C458 H462 0.950 . S
C458 C467 1.390 1_655 S
C459 C458 1.387 . S
C459 C461 1.387 . S
H460 C467 0.950 . S
C461 C459 1.387 . S
C461 C463 1.390 1_655 S
C461 H465 0.950 . S
H462 C458 0.950 . S
C463 C461 1.390 1_455 S
C463 C464 1.387 . S
C463 H466 0.950 . S
C464 C463 1.387 . S
C464 C467 1.387 . S
H465 C461 0.950 . S
H466 C463 0.950 . S
C467 C458 1.390 1_455 S
C467 H460 0.950 . S
C467 C464 1.387 . S
C468 C469 1.387 . S
C468 H472 0.950 . S
C468 C477 1.390 1_545 S
C469 C468 1.387 . S
C469 C471 1.387 . S
H470 C477 0.950 . S
C471 C469 1.387 . S
C471 C473 1.390 1_545 S
C471 H475 0.950 . S
H472 C468 0.950 . S
C473 C471 1.390 1_565 S
C473 C474 1.387 . S
C473 H476 0.950 . S
C474 C473 1.387 . S
C474 C477 1.387 . S
H475 C471 0.950 . S
H476 C473 0.950 . S
C477 C468 1.390 1_565 S
C477 H470 0.950 . S
C477 C474 1.387 . S
C478 C479 1.387 . S
C478 H482 0.950 . S
C478 C487 1.390 1_455 S
C479 C478 1.387 . S
C479 C481 1.387 . S
H480 C487 0.950 . S
C481 C479 1.387 . S
C481 C483 1.390 1_455 S
C481 H485 0.950 . S
H482 C478 0.950 . S
C483 C481 1.390 1_655 S
C483 C484 1.387 . S
C483 H486 0.950 . S
C484 C483 1.387 . S
C484 C487 1.387 . S
H485 C481 0.950 . S
H486 C483 0.950 . S
C487 C478 1.390 1_655 S
C487 H480 0.950 . S
C487 C484 1.387 . S
C488 C489 1.387 . S
C488 H492 0.950 . S
C488 C497 1.390 1_545 S
C489 C488 1.387 . S
C489 C491 1.387 . S
H490 C497 0.950 . S
C491 C489 1.387 . S
C491 C493 1.390 1_545 S
C491 H495 0.950 . S
H492 C488 0.950 . S
C493 C491 1.390 1_565 S
C493 C494 1.387 . S
C493 H496 0.950 . S
C494 C493 1.387 . S
C494 C497 1.387 . S
H495 C491 0.950 . S
H496 C493 0.950 . S
C497 C488 1.390 1_565 S
C497 H490 0.950 . S
C497 C494 1.387 . S
C498 C499 1.387 . S
C498 H502 0.950 . S
C498 C507 1.390 1_655 S
C499 C498 1.387 . S
C499 C501 1.387 . S
H500 C507 0.950 . S
C501 C499 1.387 . S
C501 C503 1.390 1_655 S
C501 H505 0.950 . S
H502 C498 0.950 . S
C503 C501 1.390 1_455 S
C503 C504 1.387 . S
C503 H506 0.950 . S
C504 C503 1.387 . S
C504 C507 1.387 . S
H505 C501 0.950 . S
H506 C503 0.950 . S
C507 C498 1.390 1_455 S
C507 H500 0.950 . S
C507 C504 1.387 . S
C508 C509 1.387 . S
C508 H512 0.950 . S
C508 C517 1.390 1_565 S
C509 C508 1.387 . S
C509 C511 1.387 . S
H510 C517 0.950 . S
C511 C509 1.387 . S
C511 C513 1.390 1_565 S
C511 H515 0.950 . S
H512 C508 0.950 . S
C513 C511 1.390 1_545 S
C513 C514 1.387 . S
C513 H516 0.950 . S
C514 C513 1.387 . S
C514 C517 1.387 . S
H515 C511 0.950 . S
H516 C513 0.950 . S
C517 C508 1.390 1_545 S
C517 H510 0.950 . S
C517 C514 1.387 . S
C518 C519 1.387 . S
C518 H522 0.950 . S
C518 C527 1.390 1_455 S
C519 C518 1.387 . S
C519 C521 1.387 . S
H520 C527 0.950 . S
C521 C519 1.387 . S
C521 C523 1.390 1_455 S
C521 H525 0.950 . S
H522 C518 0.950 . S
C523 C521 1.390 1_655 S
C523 C524 1.387 . S
C523 H526 0.950 . S
C524 C523 1.387 . S
C524 C527 1.387 . S
H525 C521 0.950 . S
H526 C523 0.950 . S
C527 C518 1.390 1_655 S
C527 H520 0.950 . S
C527 C524 1.387 . S
C209 C65 1.314 . S
C214 C0 1.314 . S
C219 C78 1.314 . S
C224 C13 1.316 . S
C229 C26 1.314 . S
C234 C91 1.316 . S
C239 C39 1.316 . S
C244 C52 1.314 . S
C249 C169 1.314 . S
C254 C104 1.316 . S
C259 C182 1.316 . S
C264 C117 1.314 . S
C269 C130 1.315 . S
C274 C195 1.315 . S
C279 C143 1.314 . S
C284 C156 1.315 . S
C289 C138 1.465 . S
C294 C8 1.467 . S
C299 C151 1.467 . S
C304 C21 1.465 . S
C309 C112 1.465 . S
C314 C34 1.464 . S
C319 C47 1.465 . S
C324 C125 1.464 . S
C329 C190 1.466 . S
C334 C60 1.467 . S
C339 C203 1.466 . S
C344 C73 1.464 . S
C349 C86 1.464 . S
C354 C164 1.465 . S
C359 C177 1.465 . S
C364 C99 1.464 . S
C369 C62 1.400 . S
C374 C10 1.400 . S
C379 C23 1.400 . S
C384 C75 1.400 . S
C389 C36 1.401 . S
C394 C88 1.401 . S
C399 C101 1.400 . S
C404 C49 1.400 . S
C409 C109 1.431 . S
C414 C161 1.431 . S
C419 C174 1.431 . S
C424 C122 1.431 . S
C429 C135 1.431 . S
C434 C187 1.431 . S
C439 C200 1.431 . S
C444 C148 1.431 . S
C449 C153 1.401 . S
C454 C179 1.401 . S
C459 C114 1.400 . S
C464 C192 1.400 . S
C469 C205 1.400 . S
C474 C127 1.400 . S
C479 C140 1.400 . S
C484 C166 1.400 . S
C489 C70 1.431 . S
C494 C44 1.431 . S
C499 C83 1.431 . S
C504 C5 1.431 . S
C509 C96 1.431 . S
C514 C18 1.431 . S
C519 C57 1.431 . S
C524 C31 1.431 . S
