# Generated by pormake.
# Topology ske, (6)-cn, num edge types: 1
# Building blocks:
#     Node 0, Type 0, BuildingBlock: MIDCAF_clean_sbu_0, # of connection points: 6
#     Node 1, Type 0, BuildingBlock: MIDCAF_clean_sbu_0, # of connection points: 6
#     Node 2, Type 0, BuildingBlock: MIDCAF_clean_sbu_0, # of connection points: 6
#     Node 3, Type 0, BuildingBlock: MIDCAF_clean_sbu_0, # of connection points: 6
#     Node 4, Type 0, BuildingBlock: MIDCAF_clean_sbu_0, # of connection points: 6
#     Node 5, Type 0, BuildingBlock: MIDCAF_clean_sbu_0, # of connection points: 6
#     Node 6, Type 0, BuildingBlock: MIDCAF_clean_sbu_0, # of connection points: 6
#     Node 7, Type 0, BuildingBlock: MIDCAF_clean_sbu_0, # of connection points: 6
#     Edge 8, Type (0, 0), BuildingBlock: KIFKEQ_clean_linker_1, # of connection points: 2
#     Edge 9, Type (0, 0), BuildingBlock: KIFKEQ_clean_linker_1, # of connection points: 2
#     Edge 10, Type (0, 0), BuildingBlock: KIFKEQ_clean_linker_1, # of connection points: 2
#     Edge 11, Type (0, 0), BuildingBlock: KIFKEQ_clean_linker_1, # of connection points: 2
#     Edge 12, Type (0, 0), BuildingBlock: KIFKEQ_clean_linker_1, # of connection points: 2
#     Edge 13, Type (0, 0), BuildingBlock: KIFKEQ_clean_linker_1, # of connection points: 2
#     Edge 14, Type (0, 0), BuildingBlock: KIFKEQ_clean_linker_1, # of connection points: 2
#     Edge 15, Type (0, 0), BuildingBlock: KIFKEQ_clean_linker_1, # of connection points: 2
#     Edge 16, Type (0, 0), BuildingBlock: KIFKEQ_clean_linker_1, # of connection points: 2
#     Edge 17, Type (0, 0), BuildingBlock: KIFKEQ_clean_linker_1, # of connection points: 2
#     Edge 18, Type (0, 0), BuildingBlock: KIFKEQ_clean_linker_1, # of connection points: 2
#     Edge 19, Type (0, 0), BuildingBlock: KIFKEQ_clean_linker_1, # of connection points: 2
#     Edge 20, Type (0, 0), BuildingBlock: KIFKEQ_clean_linker_1, # of connection points: 2
#     Edge 21, Type (0, 0), BuildingBlock: KIFKEQ_clean_linker_1, # of connection points: 2
#     Edge 22, Type (0, 0), BuildingBlock: KIFKEQ_clean_linker_1, # of connection points: 2
#     Edge 23, Type (0, 0), BuildingBlock: KIFKEQ_clean_linker_1, # of connection points: 2
#     Edge 24, Type (0, 0), BuildingBlock: KIFKEQ_clean_linker_1, # of connection points: 2
#     Edge 25, Type (0, 0), BuildingBlock: KIFKEQ_clean_linker_1, # of connection points: 2
#     Edge 26, Type (0, 0), BuildingBlock: KIFKEQ_clean_linker_1, # of connection points: 2
#     Edge 27, Type (0, 0), BuildingBlock: KIFKEQ_clean_linker_1, # of connection points: 2
#     Edge 28, Type (0, 0), BuildingBlock: KIFKEQ_clean_linker_1, # of connection points: 2
#     Edge 29, Type (0, 0), BuildingBlock: KIFKEQ_clean_linker_1, # of connection points: 2
#     Edge 30, Type (0, 0), BuildingBlock: KIFKEQ_clean_linker_1, # of connection points: 2
#     Edge 31, Type (0, 0), BuildingBlock: KIFKEQ_clean_linker_1, # of connection points: 2
# Relax obj value: 0.101
# Max RMSD: 0.160
# Mean RMSD: 0.160
data_MOF--net-ske--node1-MIDCAF_clean_sbu_0--edge1-KIFKEQ_clean_linker_1
_symmetry_space_group_name_H-M    P1
_symmetry_Int_Tables_number       1
_symmetry_cell_setting            triclinic
loop_
_symmetry_equiv_pos_as_xyz
'x, y, z'
_cell_length_a     60.664856
_cell_length_b     30.47986
_cell_length_c     15.468515
_cell_angle_alpha  89.961198
_cell_angle_beta   90.080836
_cell_angle_gamma 90.189311
loop_
_atom_site_label
_atom_site_type_symbol
_atom_site_fract_x
_atom_site_fract_y
_atom_site_fract_z
_atom_type_partial_charge
Zn0 Zn 0.15722 0.17943 0.46113 0.0
Zn1 Zn 0.10206 0.28415 0.59838 0.0
Zn2 Zn 0.13088 0.23542 0.52835 0.0
C3 C 0.07728 0.21599 0.54879 0.0
C4 C 0.12095 0.33242 0.46441 0.0
O5 O 0.15898 0.22648 0.61925 0.0
O6 O 0.17893 0.17536 0.55506 0.0
C7 C 0.11777 0.13583 0.46855 0.0
O8 O 0.09668 0.20549 0.52137 0.0
O9 O 0.07469 0.25035 0.59271 0.0
O10 O 0.10542 0.33399 0.51841 0.0
O11 O 0.13238 0.29723 0.45576 0.0
O12 O 0.13713 0.12984 0.4416 0.0
O13 O 0.11243 0.17287 0.50296 0.0
O14 O 0.14307 0.26431 0.40449 0.0
O15 O 0.16596 0.21326 0.3584 0.0
C16 C 0.15665 0.24976 0.34719 0.0
O17 O 0.14257 0.25101 0.66294 0.0
O18 O 0.11575 0.29315 0.71162 0.0
C19 C 0.17624 0.20189 0.6166 0.0
C20 C 0.1341 0.27479 0.72342 0.0
Zn21 Zn 0.86679 0.3418 0.47227 0.0
Zn22 Zn 0.91317 0.29011 0.66127 0.0
Zn23 Zn 0.8847 0.29823 0.57 0.0
C24 C 0.92975 0.27346 0.50316 0.0
C25 C 0.89726 0.20589 0.61842 0.0
O26 O 0.85122 0.29498 0.62279 0.0
O27 O 0.83904 0.34754 0.53827 0.0
C28 C 0.90156 0.39342 0.52114 0.0
O29 O 0.9097 0.25909 0.49931 0.0
O30 O 0.9347 0.30102 0.56161 0.0
O31 O 0.9053 0.22568 0.68318 0.0
O32 O 0.89317 0.22856 0.54958 0.0
O33 O 0.88743 0.39263 0.46121 0.0
O34 O 0.90258 0.36125 0.57408 0.0
O35 O 0.88713 0.25518 0.453 0.0
O36 O 0.86544 0.29885 0.37745 0.0
C37 C 0.8763 0.26374 0.38301 0.0
O38 O 0.87217 0.28712 0.70075 0.0
O39 O 0.89854 0.33054 0.74691 0.0
C40 C 0.83549 0.32004 0.59788 0.0
C41 C 0.88135 0.30809 0.76335 0.0
Zn42 Zn 0.09586 0.65284 0.3386 0.0
Zn43 Zn 0.16533 0.79431 0.51774 0.0
Zn44 Zn 0.13863 0.73865 0.46339 0.0
C45 C 0.16564 0.7261 0.63932 0.0
C46 C 0.12658 0.83968 0.51768 0.0
O47 O 0.14354 0.71454 0.32282 0.0
O48 O 0.11961 0.66887 0.25168 0.0
C49 C 0.12821 0.65164 0.49062 0.0
O50 O 0.15189 0.70932 0.58479 0.0
O51 O 0.1744 0.76285 0.62352 0.0
O52 O 0.14662 0.84639 0.53502 0.0
O53 O 0.12027 0.8016 0.49059 0.0
O54 O 0.11409 0.67051 0.44344 0.0
O55 O 0.1405 0.67697 0.53532 0.0
O56 O 0.10581 0.7682 0.47459 0.0
O57 O 0.09959 0.70823 0.40766 0.0
C58 C 0.09161 0.74205 0.4425 0.0
O59 O 0.16256 0.7422 0.35884 0.0
O60 O 0.18491 0.79158 0.41641 0.0
C61 C 0.13729 0.69203 0.25504 0.0
C62 C 0.18024 0.7654 0.35591 0.0
Zn63 Zn 0.8937 0.85391 0.43077 0.0
Zn64 Zn 0.85784 0.731 0.57423 0.0
Zn65 Zn 0.87611 0.79292 0.50262 0.0
C66 C 0.85139 0.79653 0.68898 0.0
C67 C 0.89894 0.69939 0.55507 0.0
O68 O 0.85964 0.80505 0.373 0.0
O69 O 0.88161 0.8551 0.31586 0.0
C70 C 0.87678 0.89281 0.57139 0.0
O71 O 0.86393 0.81569 0.63283 0.0
O72 O 0.84499 0.7578 0.67591 0.0
O73 O 0.88168 0.68969 0.59593 0.0
O74 O 0.90017 0.73621 0.5136 0.0
O75 O 0.88479 0.90334 0.49945 0.0
O76 O 0.87323 0.85206 0.58979 0.0
O77 O 0.91195 0.77457 0.48735 0.0
O78 O 0.92448 0.83849 0.44219 0.0
C79 C 0.92826 0.79992 0.46705 0.0
O80 O 0.84696 0.77446 0.42068 0.0
O81 O 0.83605 0.7143 0.4875 0.0
C82 C 0.86504 0.83043 0.30935 0.0
C83 C 0.83344 0.74181 0.42758 0.0
Zn84 Zn 0.61741 0.80959 0.1259 0.0
Zn85 Zn 0.66371 0.69938 0.98637 0.0
Zn86 Zn 0.64053 0.75677 0.05544 0.0
C87 C 0.66581 0.7684 0.87232 0.0
C88 C 0.62311 0.66004 0.99257 0.0
O89 O 0.65398 0.76989 0.18991 0.0
O90 O 0.63419 0.82721 0.22777 0.0
C91 C 0.6311 0.85402 0.98541 0.0
O92 O 0.653 0.78492 0.93029 0.0
O93 O 0.67364 0.73056 0.88315 0.0
O94 O 0.64236 0.65242 0.96616 0.0
O95 O 0.61876 0.69725 0.02878 0.0
O96 O 0.61508 0.85506 0.03702 0.0
O97 O 0.64333 0.81956 0.98196 0.0
O98 O 0.60523 0.73244 0.05903 0.0
O99 O 0.59024 0.77857 0.15138 0.0
C100 C 0.58836 0.74577 0.10262 0.0
O101 O 0.66888 0.74255 0.14399 0.0
O102 O 0.68635 0.69014 0.07386 0.0
C103 C 0.64933 0.80045 0.24493 0.0
C104 C 0.6853 0.71593 0.13733 0.0
Zn105 Zn 0.3533 0.81846 -0.00281 0.0
Zn106 Zn 0.39545 0.70391 0.11914 0.0
Zn107 Zn 0.37656 0.75699 0.05515 0.0
C108 C 0.42676 0.74409 0.0329 0.0
C109 C 0.36611 0.6588 0.02928 0.0
O110 O 0.3488 0.76771 0.14684 0.0
O111 O 0.32917 0.81887 0.08121 0.0
C112 C 0.39525 0.85453 0.01847 0.0
O113 O 0.41245 0.77418 0.04961 0.0
O114 O 0.4213 0.70446 0.04214 0.0
O115 O 0.37365 0.65714 0.10492 0.0
O116 O 0.36919 0.694 0.9843 0.0
O117 O 0.3756 0.86536 0.0028 0.0
O118 O 0.39999 0.81413 0.03565 0.0
O119 O 0.36396 0.73139 0.93313 0.0
O120 O 0.34687 0.79041 0.88428 0.0
C121 C 0.35305 0.75127 0.87356 0.0
O122 O 0.36591 0.74658 0.19049 0.0
O123 O 0.39784 0.72293 0.24011 0.0
C124 C 0.33134 0.79166 0.14199 0.0
C125 C 0.37831 0.73515 0.25429 0.0
Zn126 Zn 0.6164 0.21097 0.8554 0.0
Zn127 Zn 0.66245 0.32269 0.99461 0.0
Zn128 Zn 0.63899 0.26481 0.9261 0.0
C129 C 0.66507 0.25381 0.10849 0.0
C130 C 0.62129 0.36031 0.99073 0.0
O131 O 0.65248 0.25183 0.79159 0.0
O132 O 0.63332 0.19337 0.75401 0.0
C133 C 0.63025 0.16744 0.99664 0.0
O134 O 0.65179 0.23746 0.05158 0.0
O135 O 0.67333 0.29129 0.09631 0.0
O136 O 0.64051 0.36795 0.01786 0.0
O137 O 0.61697 0.32345 0.95289 0.0
O138 O 0.6142 0.16579 0.94502 0.0
O139 O 0.64231 0.20229 -0.00016 0.0
O140 O 0.60348 0.28769 0.92261 0.0
O141 O 0.58911 0.24113 0.82907 0.0
C142 C 0.58682 0.27365 0.8782 0.0
O143 O 0.66683 0.28062 0.83652 0.0
O144 O 0.68413 0.33445 0.90427 0.0
C145 C 0.6482 0.22087 0.7368 0.0
C146 C 0.6828 0.30861 0.84096 0.0
Zn147 Zn 0.39489 0.29824 0.83476 0.0
Zn148 Zn 0.35286 0.18901 0.9648 0.0
Zn149 Zn 0.37523 0.2492 0.90351 0.0
C150 C 0.35214 0.25941 0.08309 0.0
C151 C 0.39446 0.15298 0.94892 0.0
O152 O 0.36508 0.25562 0.76645 0.0
O153 O 0.39886 0.26853 0.72181 0.0
C154 C 0.36494 0.34701 0.91201 0.0
O155 O 0.36273 0.27903 0.02226 0.0
O156 O 0.34652 0.21972 0.07443 0.0
O157 O 0.37486 0.14185 0.96513 0.0
O158 O 0.39896 0.19315 0.92842 0.0
O159 O 0.37228 0.34424 0.83612 0.0
O160 O 0.36808 0.31453 0.96427 0.0
O161 O 0.41125 0.23292 0.9145 0.0
O162 O 0.41942 0.30308 0.91824 0.0
C163 C 0.42514 0.26397 0.93147 0.0
O164 O 0.34752 0.23537 0.81177 0.0
O165 O 0.32848 0.1849 0.88239 0.0
C166 C 0.37895 0.26019 0.70401 0.0
C167 C 0.33037 0.2105 0.81889 0.0
H168 H 0.19811 0.27867 0.63601 0.0
H169 H 0.19878 0.14276 0.7125 0.0
H170 H 0.23708 0.28534 0.67336 0.0
H171 H 0.23721 0.1497 0.75594 0.0
H172 H 0.30905 0.1493 0.72349 0.0
H173 H 0.27035 0.15185 0.68207 0.0
H174 H 0.26705 0.2867 0.76821 0.0
H175 H 0.30627 0.28447 0.80363 0.0
C176 C 0.20635 0.25088 0.66532 0.0
C177 C 0.19552 0.21025 0.67184 0.0
C178 C 0.2288 0.25449 0.68587 0.0
C179 C 0.24067 0.2176 0.7147 0.0
C180 C 0.22898 0.17833 0.73018 0.0
C181 C 0.20677 0.17452 0.70764 0.0
C182 C 0.30023 0.17999 0.72956 0.0
C183 C 0.31062 0.21682 0.76539 0.0
C184 C 0.27787 0.18125 0.70823 0.0
C185 C 0.26519 0.21897 0.72506 0.0
C186 C 0.27612 0.25698 0.75456 0.0
C187 C 0.29869 0.25595 0.77396 0.0
H188 H 0.70545 0.37828 0.78081 0.0
H189 H 0.70359 0.23684 0.77308 0.0
H190 H 0.7422 0.37791 0.71929 0.0
H191 H 0.74078 0.23624 0.70983 0.0
H192 H 0.8183 0.26194 0.71894 0.0
H193 H 0.77947 0.2555 0.76373 0.0
H194 H 0.76229 0.36087 0.58975 0.0
H195 H 0.80033 0.36827 0.54771 0.0
C196 C 0.71269 0.3471 0.76309 0.0
C197 C 0.70164 0.30766 0.78099 0.0
C198 C 0.73382 0.3468 0.72819 0.0
C199 C 0.74454 0.30699 0.7105 0.0
C200 C 0.73304 0.26739 0.72395 0.0
C201 C 0.71165 0.26774 0.75848 0.0
C202 C 0.80619 0.28385 0.69106 0.0
C203 C 0.81257 0.31595 0.63064 0.0
C204 C 0.78395 0.27981 0.71573 0.0
C205 C 0.76781 0.30779 0.68031 0.0
C206 C 0.77428 0.33923 0.61922 0.0
C207 C 0.79625 0.34342 0.59521 0.0
H208 H 0.30394 0.85011 0.21697 0.0
H209 H 0.31345 0.71165 0.17515 0.0
H210 H 0.26569 0.83669 0.25605 0.0
H211 H 0.2747 0.698 0.20955 0.0
H212 H 0.20651 0.69458 0.35328 0.0
H213 H 0.24505 0.69689 0.30873 0.0
H214 H 0.23325 0.82048 0.17949 0.0
H215 H 0.19516 0.81902 0.22931 0.0
C216 C 0.29791 0.81661 0.21854 0.0
C217 C 0.3116 0.78192 0.1937 0.0
C218 C 0.27583 0.80892 0.23867 0.0
C219 C 0.26677 0.76643 0.23235 0.0
C220 C 0.281 0.73118 0.2144 0.0
C221 C 0.30329 0.73887 0.19579 0.0
C222 C 0.21199 0.7211 0.31173 0.0
C223 C 0.19796 0.75654 0.29421 0.0
C224 C 0.23418 0.72278 0.28711 0.0
C225 C 0.24255 0.75976 0.2435 0.0
C226 C 0.22763 0.79237 0.21633 0.0
C227 C 0.20563 0.79108 0.24259 0.0
H228 H 0.71502 0.65197 0.16646 0.0
H229 H 0.70073 0.78673 0.23051 0.0
H230 H 0.75147 0.6596 0.22698 0.0
H231 H 0.73709 0.79368 0.29835 0.0
H232 H 0.81231 0.80515 0.33 0.0
H233 H 0.77557 0.7992 0.26455 0.0
H234 H 0.77126 0.66459 0.35183 0.0
H235 H 0.80798 0.66956 0.40986 0.0
C236 C 0.71944 0.68294 0.19631 0.0
C237 C 0.70485 0.71859 0.19439 0.0
C238 C 0.74044 0.68735 0.23147 0.0
C239 C 0.74743 0.72734 0.26777 0.0
C240 C 0.73245 0.7626 0.2697 0.0
C241 C 0.71138 0.75833 0.23284 0.0
C242 C 0.80373 0.77397 0.33229 0.0
C243 C 0.8132 0.73775 0.37439 0.0
C244 C 0.78247 0.77078 0.29655 0.0
C245 C 0.77025 0.73146 0.3032 0.0
C246 C 0.78012 0.69521 0.34366 0.0
C247 C 0.8013 0.69814 0.37757 0.0
H248 H 0.12568 0.9011 0.64306 0.0
H249 H 0.09385 0.86352 0.40482 0.0
H250 H 0.10985 0.97381 0.63228 0.0
H251 H 0.0779 0.93722 0.39298 0.0
H252 H 0.11152 0.07798 0.33865 0.0
H253 H 0.10072 1.00187 0.35712 0.0
H254 H 0.08071 0.02945 0.61941 0.0
H255 H 0.09162 0.10632 0.60008 0.0
C256 C 0.11454 0.90803 0.58997 0.0
C257 C 0.11129 0.8771 0.524 0.0
C258 C 0.10528 0.94972 0.584 0.0
C259 C 0.09284 0.96171 0.511 0.0
C260 C 0.08758 0.9291 0.44962 0.0
C261 C 0.09663 0.8869 0.45644 0.0
C262 C 0.10375 0.06826 0.39878 0.0
C263 C 0.10277 0.09766 0.46846 0.0
C264 C 0.09746 0.02453 0.40944 0.0
C265 C 0.09036 0.00923 0.49055 0.0
C266 C 0.08646 0.04013 0.55654 0.0
C267 C 0.09254 0.08422 0.54538 0.0
H268 H 0.90517 0.44205 0.6677 0.0
H269 H 0.92511 0.43819 0.40075 0.0
H270 H 0.91478 0.51938 0.67468 0.0
H271 H 0.93654 0.5148 0.40837 0.0
H272 H 0.92313 0.65934 0.67992 0.0
H273 H 0.93468 0.58286 0.67461 0.0
H274 H 0.91815 0.57933 0.40237 0.0
H275 H 0.90836 0.65622 0.40779 0.0
C276 C 0.91271 0.45734 0.61176 0.0
C277 C 0.91428 0.43433 0.53366 0.0
C278 C 0.91831 0.50197 0.61541 0.0
C279 C 0.92605 0.5244 0.54129 0.0
C280 C 0.92992 0.49957 0.46602 0.0
C281 C 0.92371 0.45534 0.46182 0.0
C282 C 0.92331 0.64269 0.61806 0.0
C283 C 0.91499 0.66367 0.54414 0.0
C284 C 0.92941 0.59841 0.6152 0.0
C285 C 0.92659 0.57374 0.5389 0.0
C286 C 0.9207 0.59651 0.46273 0.0
C287 C 0.91515 0.64107 0.46533 0.0
H288 H 0.90423 0.92581 0.6922 0.0
H289 H 0.84105 0.94485 0.57101 0.0
H290 H 0.90763 1.00462 0.71485 0.0
H291 H 0.84412 0.02383 0.59437 0.0
H292 H 0.90589 0.15199 0.75476 0.0
H293 H 0.89619 0.07503 0.7718 0.0
H294 H 0.86838 0.07425 0.51457 0.0
H295 H 0.87777 0.15192 0.49795 0.0
C296 C 0.89036 0.94661 0.67596 0.0
C297 C 0.87233 0.92929 0.63033 0.0
C298 C 0.89246 0.99199 0.68745 0.0
C299 C 0.87647 0.02068 0.65362 0.0
C300 C 0.85701 1.00269 0.61894 0.0
C301 C 0.85494 0.95733 0.60772 0.0
C302 C 0.89778 0.13545 0.70141 0.0
C303 C 0.89273 0.15813 0.62451 0.0
C304 C 0.89217 0.09127 0.71154 0.0
C305 C 0.88129 0.06849 0.64513 0.0
C306 C 0.87633 0.09106 0.5679 0.0
C307 C 0.88199 0.1354 0.55767 0.0
H308 H 0.12553 0.60647 0.3408 0.0
H309 H 0.14306 0.59019 0.60887 0.0
H310 H 0.12928 0.5291 0.31596 0.0
H311 H 0.1468 0.51054 0.58393 0.0
H312 H 0.16073 0.36977 0.49127 0.0
H313 H 0.16742 0.44925 0.49349 0.0
H314 H 0.10407 0.47001 0.37273 0.0
H315 H 0.09732 0.39118 0.37268 0.0
C316 C 0.13008 0.58646 0.39483 0.0
C317 C 0.13316 0.60457 0.47742 0.0
C318 C 0.13248 0.54184 0.38018 0.0
C319 C 0.13798 0.51369 0.44806 0.0
C320 C 0.14257 0.5317 0.53019 0.0
C321 C 0.14027 0.57706 0.54471 0.0
C322 C 0.1488 0.39137 0.46126 0.0
C323 C 0.12866 0.3746 0.43045 0.0
C324 C 0.15242 0.43676 0.46434 0.0
C325 C 0.13614 0.4657 0.43454 0.0
C326 C 0.11696 0.44847 0.39599 0.0
C327 C 0.11317 0.40334 0.39471 0.0
H328 H 0.61589 0.60986 0.85232 0.0
H329 H 0.59563 0.62573 0.1172 0.0
H330 H 0.60334 0.53459 0.85358 0.0
H331 H 0.58205 0.54988 0.11856 0.0
H332 H 0.61381 0.40989 0.13151 0.0
H333 H 0.60231 0.48568 0.12989 0.0
H334 H 0.58188 0.47168 0.86332 0.0
H335 H 0.59445 0.39536 0.86505 0.0
C336 C 0.60766 0.59772 0.90976 0.0
C337 C 0.60704 0.6235 0.98499 0.0
C338 C 0.60035 0.55421 0.91062 0.0
C339 C 0.59218 0.53508 0.98704 0.0
C340 C 0.58885 0.56285 0.0591 0.0
C341 C 0.59628 0.60668 0.05816 0.0
C342 C 0.60594 0.42243 0.07363 0.0
C343 C 0.60534 0.39686 -0.00191 0.0
C344 C 0.59926 0.46627 0.07254 0.0
C345 C 0.59174 0.48587 0.99559 0.0
C346 C 0.58825 0.45833 0.92318 0.0
C347 C 0.59507 0.41422 0.92434 0.0
H348 H 0.40209 0.91157 0.14815 0.0
H349 H 0.42215 0.88215 0.888 0.0
H350 H 0.41267 0.98758 0.12841 0.0
H351 H 0.43399 0.95825 0.86816 0.0
H352 H 0.42041 0.12625 0.08288 0.0
H353 H 0.43271 0.05071 0.10415 0.0
H354 H 0.41364 0.02056 0.84123 0.0
H355 H 0.40263 0.09615 0.82016 0.0
C356 C 0.41016 0.92088 0.0884 0.0
C357 C 0.41151 0.89073 0.02008 0.0
C358 C 0.41617 0.9649 0.07649 0.0
C359 C 0.42377 0.98007 0.9956 0.0
C360 C 0.42764 0.94847 0.93064 0.0
C361 C 0.42135 0.90441 0.94247 0.0
C362 C 0.42019 0.10398 0.02831 0.0
C363 C 0.41089 0.11729 0.94944 0.0
C364 C 0.42676 0.06023 0.04089 0.0
C365 C 0.42364 0.0285 0.97542 0.0
C366 C 0.41655 0.04338 0.8936 0.0
C367 C 0.4103 0.08714 0.88094 0.0
H368 H 0.34181 0.40088 0.80825 0.0
H369 H 0.36674 0.38987 0.06887 0.0
H370 H 0.33538 0.47892 0.82933 0.0
H371 H 0.35992 0.46847 0.09059 0.0
H372 H 0.33796 0.6075 0.11717 0.0
H373 H 0.33107 0.52979 0.09151 0.0
H374 H 0.36437 0.53974 0.84578 0.0
H375 H 0.37157 0.6179 0.87237 0.0
C376 C 0.34531 0.41497 0.87113 0.0
C377 C 0.35504 0.38941 0.93677 0.0
C378 C 0.34175 0.45972 0.88275 0.0
C379 C 0.34752 0.47992 0.96079 0.0
C380 C 0.3553 0.45365 0.02955 0.0
C381 C 0.35908 0.40862 0.01758 0.0
C382 C 0.34313 0.59342 0.05617 0.0
C383 C 0.35541 0.61856 0.99681 0.0
C384 C 0.33937 0.54885 0.0421 0.0
C385 C 0.34757 0.52853 0.96772 0.0
C386 C 0.35786 0.55463 0.9039 0.0
C387 C 0.36181 0.59945 0.91846 0.0
H388 H 0.67049 0.1305 0.97507 0.0
H389 H 0.60603 0.10733 0.0832 0.0
H390 H 0.67553 0.05126 0.9565 0.0
H391 H 0.6111 0.02857 0.06597 0.0
H392 H 0.60649 0.9133 0.89906 0.0
H393 H 0.61113 0.99222 0.91636 0.0
H394 H 0.67578 0.97178 0.02566 0.0
H395 H 0.67116 0.89236 0.00701 0.0
C396 C 0.65799 0.10837 -0.00016 0.0
C397 C 0.63781 0.12494 0.03028 0.0
C398 C 0.66071 0.06307 0.98765 0.0
C399 C 0.64331 0.03406 0.00637 0.0
C400 C 0.62449 0.05039 0.04824 0.0
C401 C 0.62177 0.0954 0.06011 0.0
C402 C 0.62218 0.92578 0.92213 0.0
C403 C 0.63841 0.89679 0.95188 0.0
C404 C 0.62466 0.97087 0.93404 0.0
C405 C 0.64343 0.98784 0.97588 0.0
C406 C 0.661 0.95945 0.99453 0.0
C407 C 0.65852 0.91406 0.9823 0.0
H408 H 0.12739 0.30274 0.26194 0.0
H409 H 0.19127 0.24209 0.23709 0.0
H410 H 0.12684 0.31649 0.10666 0.0
H411 H 0.19097 0.25647 0.08223 0.0
H412 H 0.16043 0.21711 0.81317 0.0
H413 H 0.17042 0.22208 0.96614 0.0
H414 H 0.14133 0.35115 0.97917 0.0
H415 H 0.13105 0.34568 0.82756 0.0
C416 C 0.14169 0.29395 0.22394 0.0
C417 C 0.1592 0.27079 0.26152 0.0
C418 C 0.1414 0.30166 0.13463 0.0
C419 C 0.15869 0.28663 0.08147 0.0
C420 C 0.17715 0.26741 0.12077 0.0
C421 C 0.1774 0.25959 0.20973 0.0
C422 C 0.15676 0.24694 0.84822 0.0
C423 C 0.14471 0.28067 0.80883 0.0
C424 C 0.16245 0.24992 0.93598 0.0
C425 C 0.15631 0.28681 0.98552 0.0
C426 C 0.14584 0.32189 0.94374 0.0
C427 C 0.14006 0.31879 0.85666 0.0
H428 H 0.84459 0.22613 0.28485 0.0
H429 H 0.9141 0.25519 0.29163 0.0
H430 H 0.84486 0.23067 0.12744 0.0
H431 H 0.91452 0.25965 0.13387 0.0
H432 H 0.89683 0.34958 0.90681 0.0
H433 H 0.89744 0.32216 0.05418 0.0
H434 H 0.85785 0.21086 0.97753 0.0
H435 H 0.85733 0.23836 0.82821 0.0
C436 C 0.86025 0.23057 0.25227 0.0
C437 C 0.87933 0.24029 0.30062 0.0
C438 C 0.86033 0.23387 0.1619 0.0
C439 C 0.87953 0.24708 0.11826 0.0
C440 C 0.8993 0.25053 0.16586 0.0
C441 C 0.89923 0.24687 0.25628 0.0
C442 C 0.88796 0.31955 0.92116 0.0
C443 C 0.87704 0.29625 0.85523 0.0
C444 C 0.88864 0.30339 0.00564 0.0
C445 C 0.87831 0.26353 0.0273 0.0
C446 C 0.86623 0.24137 0.96275 0.0
C447 C 0.8657 0.25744 0.87743 0.0
H448 H 0.15718 0.76115 0.17145 0.0
H449 H 0.14645 0.62133 0.15734 0.0
H450 H 0.17006 0.76092 0.02137 0.0
H451 H 0.15915 0.62097 0.00799 0.0
H452 H 0.1976 0.74773 0.75554 0.0
H453 H 0.197 0.73438 0.91067 0.0
H454 H 0.14005 0.65059 0.87858 0.0
H455 H 0.14054 0.66408 0.72301 0.0
C456 C 0.1584 0.73022 0.1374 0.0
C457 C 0.1507 0.69138 0.17555 0.0
C458 C 0.16566 0.72999 0.05134 0.0
C459 C 0.16521 0.69094 0.00238 0.0
C460 C 0.15928 0.65163 0.04339 0.0
C461 C 0.15214 0.65186 0.129 0.0
C462 C 0.18525 0.72553 0.78114 0.0
C463 C 0.16887 0.70748 0.72694 0.0
C464 C 0.18487 0.71817 0.87021 0.0
C465 C 0.16827 0.69216 0.90707 0.0
C466 C 0.15311 0.67078 0.85206 0.0
C467 C 0.15341 0.67837 0.76274 0.0
H468 H 0.81648 0.77666 0.79069 0.0
H469 H 0.87472 0.85841 0.78066 0.0
H470 H 0.81315 0.79033 0.94512 0.0
H471 H 0.87125 0.87244 0.93572 0.0
H472 H 0.85752 0.90156 0.21068 0.0
H473 H 0.84847 0.90248 0.05729 0.0
H474 H 0.83775 0.76237 0.06452 0.0
H475 H 0.847 0.76151 0.21887 0.0
C476 C 0.82824 0.79861 0.8211 0.0
C477 C 0.84609 0.81599 0.77386 0.0
C478 C 0.82636 0.80616 0.90964 0.0
C479 C 0.84214 0.83167 0.95274 0.0
C480 C 0.85878 0.85261 0.90407 0.0
C481 C 0.86075 0.84482 0.81516 0.0
C482 C 0.85261 0.8711 0.17999 0.0
C483 C 0.85316 0.83133 0.2262 0.0
C484 C 0.84757 0.87168 0.09212 0.0
C485 C 0.84283 0.83249 0.04862 0.0
C486 C 0.84131 0.79318 0.09655 0.0
C487 C 0.84649 0.79258 0.18492 0.0
H488 H 0.66921 0.73501 0.33952 0.0
H489 H 0.65137 0.87199 0.34893 0.0
H490 H 0.67783 0.73716 0.49407 0.0
H491 H 0.65969 0.87394 0.50287 0.0
H492 H 0.63904 0.82596 0.7846 0.0
H493 H 0.64014 0.84011 0.62882 0.0
H494 H 0.70153 0.76947 0.61028 0.0
H495 H 0.70048 0.75553 0.76517 0.0
C496 C 0.66778 0.76583 0.37382 0.0
C497 C 0.65948 0.80317 0.33203 0.0
C498 C 0.67263 0.76712 0.46248 0.0
C499 C 0.66911 0.80566 0.51096 0.0
C500 C 0.66221 0.84364 0.46775 0.0
C501 C 0.65756 0.84245 0.37938 0.0
C502 C 0.65317 0.81497 0.74782 0.0
C503 C 0.6695 0.78916 0.78694 0.0
C504 C 0.65377 0.82281 0.65843 0.0
C505 C 0.67071 0.80497 0.60698 0.0
C506 C 0.68804 0.78275 0.64776 0.0
C507 C 0.68749 0.77512 0.73668 0.0
H508 H 0.38103 0.69603 0.79191 0.0
H509 H 0.31927 0.76414 0.76106 0.0
H510 H 0.38273 0.68408 0.63736 0.0
H511 H 0.32005 0.74986 0.60612 0.0
H512 H 0.35104 0.79006 0.34363 0.0
H513 H 0.33981 0.78233 0.49442 0.0
H514 H 0.37217 0.65601 0.50619 0.0
H515 H 0.3847 0.66585 0.3584 0.0
C516 C 0.36729 0.7066 0.75227 0.0
C517 C 0.35025 0.73164 0.78769 0.0
C518 C 0.36819 0.69976 0.66325 0.0
C519 C 0.35176 0.71704 0.60842 0.0
C520 C 0.33337 0.7375 0.64584 0.0
C521 C 0.33276 0.74519 0.73464 0.0
C522 C 0.3556 0.76075 0.37896 0.0
C523 C 0.36924 0.72924 0.34119 0.0
C524 C 0.34897 0.75586 0.46498 0.0
C525 C 0.35538 0.71871 0.51343 0.0
C526 C 0.36754 0.68567 0.47226 0.0
C527 C 0.37469 0.69123 0.38756 0.0
H528 H 0.69948 0.26805 0.21724 0.0
H529 H 0.63832 0.19593 0.19619 0.0
H530 H 0.70038 0.25425 0.37218 0.0
H531 H 0.63927 0.18195 0.35198 0.0
H532 H 0.66825 0.28681 0.64337 0.0
H533 H 0.67689 0.28535 0.48896 0.0
H534 H 0.65857 0.14846 0.47785 0.0
H535 H 0.65021 0.14974 0.63163 0.0
C536 C 0.68651 0.24817 0.24537 0.0
C537 C 0.66865 0.23354 0.1945 0.0
C538 C 0.68697 0.24062 0.33437 0.0
C539 C 0.66969 0.2179 0.37474 0.0
C540 C 0.65287 0.19964 0.32278 0.0
C541 C 0.65235 0.20739 0.23334 0.0
C542 C 0.6668 0.2561 0.60867 0.0
C543 C 0.65841 0.21857 0.64979 0.0
C544 C 0.67164 0.25522 0.52 0.0
C545 C 0.66806 0.21686 0.47082 0.0
C546 C 0.66111 0.17866 0.51342 0.0
C547 C 0.65644 0.17946 0.60176 0.0
H548 H 0.3202 0.24116 0.1999 0.0
H549 H 0.37852 0.32032 0.16153 0.0
H550 H 0.32398 0.24899 0.35539 0.0
H551 H 0.382 0.32936 0.31789 0.0
H552 H 0.40471 0.25567 0.56139 0.0
H553 H 0.3943 0.27025 0.41282 0.0
H554 H 0.32664 0.28856 0.49179 0.0
H555 H 0.33713 0.27338 0.64171 0.0
C556 C 0.33328 0.2619 0.2248 0.0
C557 C 0.34941 0.27922 0.16908 0.0
C558 C 0.33542 0.26645 0.31404 0.0
C559 C 0.35371 0.28853 0.34885 0.0
C560 C 0.36808 0.31107 0.29262 0.0
C561 C 0.36593 0.30647 0.20308 0.0
C562 C 0.38757 0.26253 0.54717 0.0
C563 C 0.37171 0.26307 0.61317 0.0
C564 C 0.38166 0.27167 0.46213 0.0
C565 C 0.35974 0.28172 0.44079 0.0
C566 C 0.3437 0.28122 0.5064 0.0
C567 C 0.34964 0.272 0.59198 0.0
H568 H 0.0442 0.17966 0.64255 0.0
H569 H 0.06425 0.21002 0.38216 0.0
H570 H 1.0057 0.17817 0.59659 0.0
H571 H 0.02557 0.21028 0.3364 0.0
H572 H 0.96462 0.30884 0.41862 0.0
H573 H 1.00061 0.27431 0.40184 0.0
H574 H 0.97343 0.15127 0.49034 0.0
H575 H 0.9371 0.1856 0.50362 0.0
C576 C 0.04042 0.18346 0.57446 0.0
C577 C 0.05714 0.19468 0.5158 0.0
C578 C 0.01836 0.18287 0.54807 0.0
C579 C 0.01263 0.19465 0.46307 0.0
C580 C 0.02954 0.20105 0.40224 0.0
C581 C 0.05168 0.20045 0.42826 0.0
C582 C 0.96608 0.27385 0.42964 0.0
C583 C 0.94811 0.24985 0.46189 0.0
C584 C 0.98668 0.25402 0.42024 0.0
C585 C 0.98985 0.21012 0.44531 0.0
C586 C 0.97142 0.18507 0.47023 0.0
C587 C 0.95061 0.20467 0.47723 0.0
H588 H 0.96272 0.85464 0.48682 0.0
H589 H 0.94713 0.71683 0.46288 0.0
H590 H 1.00143 0.8385 0.48402 0.0
H591 H 0.98675 0.69993 0.46468 0.0
H592 H 0.05874 0.6976 0.35889 0.0
H593 H 0.01901 0.70752 0.37407 0.0
H594 H 0.03071 0.80964 0.56273 0.0
H595 H 0.07027 0.80107 0.54414 0.0
C596 C 0.96757 0.82056 0.4822 0.0
C597 C 0.95171 0.78696 0.47477 0.0
C598 C 0.98995 0.81125 0.48168 0.0
C599 C 0.99739 0.76789 0.47472 0.0
C600 C 0.98159 0.73382 0.46951 0.0
C601 C 0.9589 0.74332 0.46964 0.0
C602 C 0.05275 0.72238 0.40307 0.0
C603 C 0.06759 0.74906 0.44934 0.0
C604 C 0.02997 0.72765 0.41266 0.0
C605 C 0.02155 0.75943 0.46944 0.0
C606 C 0.03652 0.78541 0.51702 0.0
C607 C 0.05924 0.78057 0.50645 0.0
H608 H 0.5555 0.73677 0.21875 0.0
H609 H 0.56979 0.72507 0.94665 0.0
H610 H 0.51629 0.74135 0.18678 0.0
H611 H 0.53027 0.72997 0.91408 0.0
H612 H 0.45333 0.70029 0.92327 0.0
H613 H 0.49335 0.69532 0.9331 0.0
H614 H 0.49364 0.80043 0.1202 0.0
H615 H 0.45337 0.80505 0.1106 0.0
C616 C 0.55014 0.73362 0.15216 0.0
C617 C 0.56568 0.73057 0.08519 0.0
C618 C 0.52772 0.73727 0.13369 0.0
C619 C 0.52026 0.73781 0.04773 0.0
C620 C 0.53557 0.7303 0.98096 0.0
C621 C 0.55815 0.7267 -0.0004 0.0
C622 C 0.46205 0.72345 0.9641 0.0
C623 C 0.4503 0.75298 0.01647 0.0
C624 C 0.48497 0.7204 0.97004 0.0
C625 C 0.4966 0.74658 0.02915 0.0
C626 C 0.48502 0.77902 0.07556 0.0
C627 C 0.46204 0.78233 0.06898 0.0
H628 H 0.45012 0.30972 0.04466 0.0
H629 H 0.4532 0.20471 0.85841 0.0
H630 H 0.49015 0.31756 0.04 0.0
H631 H 0.49342 0.2124 0.85363 0.0
H632 H 0.55436 0.28223 0.76016 0.0
H633 H 0.51509 0.27477 0.78905 0.0
H634 H 0.5278 0.28426 0.06309 0.0
H635 H 0.56742 0.29182 0.03369 0.0
C636 C 0.45951 0.2871 0.00532 0.0
C637 C 0.44861 0.25662 0.95176 0.0
C638 C 0.48242 0.29182 0.00228 0.0
C639 C 0.49487 0.26647 0.94475 0.0
C640 C 0.48415 0.23312 0.8972 0.0
C641 C 0.46119 0.22807 0.90101 0.0
C642 C 0.5487 0.28437 0.82645 0.0
C643 C 0.56393 0.28761 0.89466 0.0
C644 C 0.52626 0.27909 0.84311 0.0
C645 C 0.51847 0.27714 0.92845 0.0
C646 C 0.53339 0.28495 0.99664 0.0
C647 C 0.55601 0.2901 0.97983 0.0
loop_
_geom_bond_atom_site_label_1
_geom_bond_atom_site_label_2
_geom_bond_distance
_geom_bond_site_symmetry_2
_ccdc_geom_bond_type
Zn0 O6 1.920 . S
Zn0 O12 1.898 . S
Zn0 O15 1.905 . S
Zn1 O9 1.905 . S
Zn1 O10 1.898 . S
Zn1 O18 1.920 . S
Zn2 O5 2.080 . S
Zn2 O8 2.114 . S
Zn2 O11 2.120 . S
Zn2 O13 2.120 . S
Zn2 O14 2.114 . S
Zn2 O17 2.080 . S
C3 O8 1.166 . S
C3 O9 1.182 . S
C4 O10 1.167 . S
C4 O11 1.299 . S
O5 Zn2 2.080 . S
O5 C19 1.305 . S
O6 Zn0 1.920 . S
O6 C19 1.234 . S
C7 O12 1.167 . S
C7 O13 1.299 . S
O8 Zn2 2.114 . S
O8 C3 1.166 . S
O9 Zn1 1.905 . S
O9 C3 1.182 . S
O10 Zn1 1.898 . S
O10 C4 1.167 . S
O11 Zn2 2.120 . S
O11 C4 1.299 . S
O12 Zn0 1.898 . S
O12 C7 1.167 . S
O13 Zn2 2.120 . S
O13 C7 1.299 . S
O14 Zn2 2.114 . S
O14 C16 1.166 . S
O15 Zn0 1.905 . S
O15 C16 1.182 . S
C16 O14 1.166 . S
C16 O15 1.182 . S
O17 Zn2 2.080 . S
O17 C20 1.305 . S
O18 Zn1 1.920 . S
O18 C20 1.234 . S
C19 O5 1.305 . S
C19 O6 1.234 . S
C20 O17 1.305 . S
C20 O18 1.234 . S
Zn21 O27 1.920 . S
Zn21 O33 1.898 . S
Zn21 O36 1.905 . S
Zn22 O30 1.905 . S
Zn22 O31 1.898 . S
Zn22 O39 1.920 . S
Zn23 O26 2.080 . S
Zn23 O29 2.114 . S
Zn23 O32 2.120 . S
Zn23 O34 2.120 . S
Zn23 O35 2.114 . S
Zn23 O38 2.080 . S
C24 O29 1.166 . S
C24 O30 1.182 . S
C25 O31 1.167 . S
C25 O32 1.299 . S
O26 Zn23 2.080 . S
O26 C40 1.305 . S
O27 Zn21 1.920 . S
O27 C40 1.234 . S
C28 O33 1.167 . S
C28 O34 1.299 . S
O29 Zn23 2.114 . S
O29 C24 1.166 . S
O30 Zn22 1.905 . S
O30 C24 1.182 . S
O31 Zn22 1.898 . S
O31 C25 1.167 . S
O32 Zn23 2.120 . S
O32 C25 1.299 . S
O33 Zn21 1.898 . S
O33 C28 1.167 . S
O34 Zn23 2.120 . S
O34 C28 1.299 . S
O35 Zn23 2.114 . S
O35 C37 1.166 . S
O36 Zn21 1.905 . S
O36 C37 1.182 . S
C37 O35 1.166 . S
C37 O36 1.182 . S
O38 Zn23 2.080 . S
O38 C41 1.305 . S
O39 Zn22 1.920 . S
O39 C41 1.234 . S
C40 O26 1.305 . S
C40 O27 1.234 . S
C41 O38 1.305 . S
C41 O39 1.234 . S
Zn42 O48 1.920 . S
Zn42 O54 1.898 . S
Zn42 O57 1.905 . S
Zn43 O51 1.905 . S
Zn43 O52 1.898 . S
Zn43 O60 1.920 . S
Zn44 O47 2.080 . S
Zn44 O50 2.114 . S
Zn44 O53 2.120 . S
Zn44 O55 2.120 . S
Zn44 O56 2.114 . S
Zn44 O59 2.080 . S
C45 O50 1.166 . S
C45 O51 1.182 . S
C46 O52 1.167 . S
C46 O53 1.299 . S
O47 Zn44 2.080 . S
O47 C61 1.305 . S
O48 Zn42 1.920 . S
O48 C61 1.234 . S
C49 O54 1.167 . S
C49 O55 1.299 . S
O50 Zn44 2.114 . S
O50 C45 1.166 . S
O51 Zn43 1.905 . S
O51 C45 1.182 . S
O52 Zn43 1.898 . S
O52 C46 1.167 . S
O53 Zn44 2.120 . S
O53 C46 1.299 . S
O54 Zn42 1.898 . S
O54 C49 1.167 . S
O55 Zn44 2.120 . S
O55 C49 1.299 . S
O56 Zn44 2.114 . S
O56 C58 1.166 . S
O57 Zn42 1.905 . S
O57 C58 1.182 . S
C58 O56 1.166 . S
C58 O57 1.182 . S
O59 Zn44 2.080 . S
O59 C62 1.305 . S
O60 Zn43 1.920 . S
O60 C62 1.234 . S
C61 O47 1.305 . S
C61 O48 1.234 . S
C62 O59 1.305 . S
C62 O60 1.234 . S
Zn63 O69 1.920 . S
Zn63 O75 1.898 . S
Zn63 O78 1.905 . S
Zn64 O72 1.905 . S
Zn64 O73 1.898 . S
Zn64 O81 1.920 . S
Zn65 O68 2.080 . S
Zn65 O71 2.114 . S
Zn65 O74 2.120 . S
Zn65 O76 2.120 . S
Zn65 O77 2.114 . S
Zn65 O80 2.080 . S
C66 O71 1.166 . S
C66 O72 1.182 . S
C67 O73 1.167 . S
C67 O74 1.299 . S
O68 Zn65 2.080 . S
O68 C82 1.305 . S
O69 Zn63 1.920 . S
O69 C82 1.234 . S
C70 O75 1.167 . S
C70 O76 1.299 . S
O71 Zn65 2.114 . S
O71 C66 1.166 . S
O72 Zn64 1.905 . S
O72 C66 1.182 . S
O73 Zn64 1.898 . S
O73 C67 1.167 . S
O74 Zn65 2.120 . S
O74 C67 1.299 . S
O75 Zn63 1.898 . S
O75 C70 1.167 . S
O76 Zn65 2.120 . S
O76 C70 1.299 . S
O77 Zn65 2.114 . S
O77 C79 1.166 . S
O78 Zn63 1.905 . S
O78 C79 1.182 . S
C79 O77 1.166 . S
C79 O78 1.182 . S
O80 Zn65 2.080 . S
O80 C83 1.305 . S
O81 Zn64 1.920 . S
O81 C83 1.234 . S
C82 O68 1.305 . S
C82 O69 1.234 . S
C83 O80 1.305 . S
C83 O81 1.234 . S
Zn84 O90 1.920 . S
Zn84 O96 1.898 . S
Zn84 O99 1.905 . S
Zn85 O93 1.905 . S
Zn85 O94 1.898 1_556 S
Zn85 O102 1.920 1_556 S
Zn86 O89 2.080 . S
Zn86 O92 2.114 1_554 S
Zn86 O95 2.120 . S
Zn86 O97 2.120 . S
Zn86 O98 2.114 . S
Zn86 O101 2.080 . S
C87 O92 1.166 . S
C87 O93 1.182 . S
C88 O94 1.167 . S
C88 O95 1.299 . S
O89 Zn86 2.080 . S
O89 C103 1.305 . S
O90 Zn84 1.920 . S
O90 C103 1.234 . S
C91 O96 1.167 . S
C91 O97 1.299 . S
O92 Zn86 2.114 1_556 S
O92 C87 1.166 . S
O93 Zn85 1.905 . S
O93 C87 1.182 . S
O94 Zn85 1.898 1_554 S
O94 C88 1.167 . S
O95 Zn86 2.120 . S
O95 C88 1.299 . S
O96 Zn84 1.898 . S
O96 C91 1.167 . S
O97 Zn86 2.120 . S
O97 C91 1.299 . S
O98 Zn86 2.114 . S
O98 C100 1.166 . S
O99 Zn84 1.905 . S
O99 C100 1.182 . S
C100 O98 1.166 . S
C100 O99 1.182 . S
O101 Zn86 2.080 . S
O101 C104 1.305 . S
O102 Zn85 1.920 1_554 S
O102 C104 1.234 . S
C103 O89 1.305 . S
C103 O90 1.234 . S
C104 O101 1.305 . S
C104 O102 1.234 . S
Zn105 O111 1.920 1_556 S
Zn105 O117 1.898 1_556 S
Zn105 O120 1.905 . S
Zn106 O114 1.905 . S
Zn106 O115 1.898 . S
Zn106 O123 1.920 . S
Zn107 O110 2.080 . S
Zn107 O113 2.114 . S
Zn107 O116 2.120 . S
Zn107 O118 2.120 . S
Zn107 O119 2.114 1_554 S
Zn107 O122 2.080 . S
C108 O113 1.166 . S
C108 O114 1.182 . S
C109 O115 1.167 . S
C109 O116 1.299 . S
O110 Zn107 2.080 . S
O110 C124 1.305 . S
O111 Zn105 1.920 1_554 S
O111 C124 1.234 . S
C112 O117 1.167 . S
C112 O118 1.299 . S
O113 Zn107 2.114 . S
O113 C108 1.166 . S
O114 Zn106 1.905 . S
O114 C108 1.182 . S
O115 Zn106 1.898 . S
O115 C109 1.167 . S
O116 Zn107 2.120 . S
O116 C109 1.299 . S
O117 Zn105 1.898 1_554 S
O117 C112 1.167 . S
O118 Zn107 2.120 . S
O118 C112 1.299 . S
O119 Zn107 2.114 1_556 S
O119 C121 1.166 . S
O120 Zn105 1.905 . S
O120 C121 1.182 . S
C121 O119 1.166 . S
C121 O120 1.182 . S
O122 Zn107 2.080 . S
O122 C125 1.305 . S
O123 Zn106 1.920 . S
O123 C125 1.234 . S
C124 O110 1.305 . S
C124 O111 1.234 . S
C125 O122 1.305 . S
C125 O123 1.234 . S
Zn126 O132 1.920 . S
Zn126 O138 1.898 . S
Zn126 O141 1.905 . S
Zn127 O135 1.905 . S
Zn127 O136 1.898 1_554 S
Zn127 O144 1.920 1_554 S
Zn128 O131 2.080 . S
Zn128 O134 2.114 1_556 S
Zn128 O137 2.120 . S
Zn128 O139 2.120 . S
Zn128 O140 2.114 . S
Zn128 O143 2.080 . S
C129 O134 1.166 . S
C129 O135 1.182 . S
C130 O136 1.167 . S
C130 O137 1.299 . S
O131 Zn128 2.080 . S
O131 C145 1.305 . S
O132 Zn126 1.920 . S
O132 C145 1.234 . S
C133 O138 1.167 . S
C133 O139 1.299 . S
O134 Zn128 2.114 1_554 S
O134 C129 1.166 . S
O135 Zn127 1.905 . S
O135 C129 1.182 . S
O136 Zn127 1.898 1_556 S
O136 C130 1.167 . S
O137 Zn128 2.120 . S
O137 C130 1.299 . S
O138 Zn126 1.898 . S
O138 C133 1.167 . S
O139 Zn128 2.120 . S
O139 C133 1.299 . S
O140 Zn128 2.114 . S
O140 C142 1.166 . S
O141 Zn126 1.905 . S
O141 C142 1.182 . S
C142 O140 1.166 . S
C142 O141 1.182 . S
O143 Zn128 2.080 . S
O143 C146 1.305 . S
O144 Zn127 1.920 1_556 S
O144 C146 1.234 . S
C145 O131 1.305 . S
C145 O132 1.234 . S
C146 O143 1.305 . S
C146 O144 1.234 . S
Zn147 O153 1.920 . S
Zn147 O159 1.898 . S
Zn147 O162 1.905 . S
Zn148 O156 1.905 . S
Zn148 O157 1.898 1_554 S
Zn148 O165 1.920 1_554 S
Zn149 O152 2.080 . S
Zn149 O155 2.114 1_556 S
Zn149 O158 2.120 . S
Zn149 O160 2.120 . S
Zn149 O161 2.114 . S
Zn149 O164 2.080 . S
C150 O155 1.166 . S
C150 O156 1.182 . S
C151 O157 1.167 . S
C151 O158 1.299 . S
O152 Zn149 2.080 . S
O152 C166 1.305 . S
O153 Zn147 1.920 . S
O153 C166 1.234 . S
C154 O159 1.167 . S
C154 O160 1.299 . S
O155 Zn149 2.114 1_554 S
O155 C150 1.166 . S
O156 Zn148 1.905 . S
O156 C150 1.182 . S
O157 Zn148 1.898 1_556 S
O157 C151 1.167 . S
O158 Zn149 2.120 . S
O158 C151 1.299 . S
O159 Zn147 1.898 . S
O159 C154 1.167 . S
O160 Zn149 2.120 . S
O160 C154 1.299 . S
O161 Zn149 2.114 . S
O161 C163 1.166 . S
O162 Zn147 1.905 . S
O162 C163 1.182 . S
C163 O161 1.166 . S
C163 O162 1.182 . S
O164 Zn149 2.080 . S
O164 C167 1.305 . S
O165 Zn148 1.920 1_556 S
O165 C167 1.234 . S
C166 O152 1.305 . S
C166 O153 1.234 . S
C167 O164 1.305 . S
C167 O165 1.234 . S
H168 C176 0.950 . S
H169 C181 0.950 . S
H170 C178 0.950 . S
H171 C180 0.950 . S
H172 C182 0.950 . S
H173 C184 0.950 . S
H174 C186 0.950 . S
H175 C187 0.950 . S
C176 H168 0.950 . S
C176 C177 1.386 . S
C176 C178 1.391 . S
C177 C176 1.386 . S
C177 C181 1.393 . S
C178 H170 0.950 . S
C178 C176 1.391 . S
C178 C179 1.400 . S
C179 C178 1.400 . S
C179 C180 1.398 . S
C179 C185 1.491 . S
C180 H171 0.950 . S
C180 C179 1.398 . S
C180 C181 1.391 . S
C181 H169 0.950 . S
C181 C177 1.393 . S
C181 C180 1.391 . S
C182 H172 0.950 . S
C182 C183 1.386 . S
C182 C184 1.391 . S
C183 C182 1.386 . S
C183 C187 1.393 . S
C184 H173 0.950 . S
C184 C182 1.391 . S
C184 C185 1.400 . S
C185 C179 1.491 . S
C185 C184 1.400 . S
C185 C186 1.398 . S
C186 H174 0.950 . S
C186 C185 1.398 . S
C186 C187 1.391 . S
C187 H175 0.950 . S
C187 C183 1.393 . S
C187 C186 1.391 . S
H188 C196 0.950 . S
H189 C201 0.950 . S
H190 C198 0.950 . S
H191 C200 0.950 . S
H192 C202 0.950 . S
H193 C204 0.950 . S
H194 C206 0.950 . S
H195 C207 0.950 . S
C196 H188 0.950 . S
C196 C197 1.386 . S
C196 C198 1.391 . S
C197 C196 1.386 . S
C197 C201 1.393 . S
C198 H190 0.950 . S
C198 C196 1.391 . S
C198 C199 1.400 . S
C199 C198 1.400 . S
C199 C200 1.398 . S
C199 C205 1.491 . S
C200 H191 0.950 . S
C200 C199 1.398 . S
C200 C201 1.391 . S
C201 H189 0.950 . S
C201 C197 1.393 . S
C201 C200 1.391 . S
C202 H192 0.950 . S
C202 C203 1.386 . S
C202 C204 1.391 . S
C203 C202 1.386 . S
C203 C207 1.393 . S
C204 H193 0.950 . S
C204 C202 1.391 . S
C204 C205 1.400 . S
C205 C199 1.491 . S
C205 C204 1.400 . S
C205 C206 1.398 . S
C206 H194 0.950 . S
C206 C205 1.398 . S
C206 C207 1.391 . S
C207 H195 0.950 . S
C207 C203 1.393 . S
C207 C206 1.391 . S
H208 C216 0.950 . S
H209 C221 0.950 . S
H210 C218 0.950 . S
H211 C220 0.950 . S
H212 C222 0.950 . S
H213 C224 0.950 . S
H214 C226 0.950 . S
H215 C227 0.950 . S
C216 H208 0.950 . S
C216 C217 1.386 . S
C216 C218 1.391 . S
C217 C216 1.386 . S
C217 C221 1.393 . S
C218 H210 0.950 . S
C218 C216 1.391 . S
C218 C219 1.400 . S
C219 C218 1.400 . S
C219 C220 1.398 . S
C219 C225 1.491 . S
C220 H211 0.950 . S
C220 C219 1.398 . S
C220 C221 1.391 . S
C221 H209 0.950 . S
C221 C217 1.393 . S
C221 C220 1.391 . S
C222 H212 0.950 . S
C222 C223 1.386 . S
C222 C224 1.391 . S
C223 C222 1.386 . S
C223 C227 1.393 . S
C224 H213 0.950 . S
C224 C222 1.391 . S
C224 C225 1.400 . S
C225 C219 1.491 . S
C225 C224 1.400 . S
C225 C226 1.398 . S
C226 H214 0.950 . S
C226 C225 1.398 . S
C226 C227 1.391 . S
C227 H215 0.950 . S
C227 C223 1.393 . S
C227 C226 1.391 . S
H228 C236 0.950 . S
H229 C241 0.950 . S
H230 C238 0.950 . S
H231 C240 0.950 . S
H232 C242 0.950 . S
H233 C244 0.950 . S
H234 C246 0.950 . S
H235 C247 0.950 . S
C236 H228 0.950 . S
C236 C237 1.386 . S
C236 C238 1.391 . S
C237 C236 1.386 . S
C237 C241 1.393 . S
C238 H230 0.950 . S
C238 C236 1.391 . S
C238 C239 1.400 . S
C239 C238 1.400 . S
C239 C240 1.398 . S
C239 C245 1.491 . S
C240 H231 0.950 . S
C240 C239 1.398 . S
C240 C241 1.391 . S
C241 H229 0.950 . S
C241 C237 1.393 . S
C241 C240 1.391 . S
C242 H232 0.950 . S
C242 C243 1.386 . S
C242 C244 1.391 . S
C243 C242 1.386 . S
C243 C247 1.393 . S
C244 H233 0.950 . S
C244 C242 1.391 . S
C244 C245 1.400 . S
C245 C239 1.491 . S
C245 C244 1.400 . S
C245 C246 1.398 . S
C246 H234 0.950 . S
C246 C245 1.398 . S
C246 C247 1.391 . S
C247 H235 0.950 . S
C247 C243 1.393 . S
C247 C246 1.391 . S
H248 C256 0.950 . S
H249 C261 0.950 . S
H250 C258 0.950 . S
H251 C260 0.950 . S
H252 C262 0.950 . S
H253 C264 0.950 . S
H254 C266 0.950 . S
H255 C267 0.950 . S
C256 H248 0.950 . S
C256 C257 1.386 . S
C256 C258 1.391 . S
C257 C256 1.386 . S
C257 C261 1.393 . S
C258 H250 0.950 . S
C258 C256 1.391 . S
C258 C259 1.400 . S
C259 C258 1.400 . S
C259 C260 1.398 . S
C259 C265 1.491 1_565 S
C260 H251 0.950 . S
C260 C259 1.398 . S
C260 C261 1.391 . S
C261 H249 0.950 . S
C261 C257 1.393 . S
C261 C260 1.391 . S
C262 H252 0.950 . S
C262 C263 1.386 . S
C262 C264 1.391 . S
C263 C262 1.386 . S
C263 C267 1.393 . S
C264 H253 0.950 . S
C264 C262 1.391 . S
C264 C265 1.400 . S
C265 C259 1.491 1_545 S
C265 C264 1.400 . S
C265 C266 1.398 . S
C266 H254 0.950 . S
C266 C265 1.398 . S
C266 C267 1.391 . S
C267 H255 0.950 . S
C267 C263 1.393 . S
C267 C266 1.391 . S
H268 C276 0.950 . S
H269 C281 0.950 . S
H270 C278 0.950 . S
H271 C280 0.950 . S
H272 C282 0.950 . S
H273 C284 0.950 . S
H274 C286 0.950 . S
H275 C287 0.950 . S
C276 H268 0.950 . S
C276 C277 1.386 . S
C276 C278 1.391 . S
C277 C276 1.386 . S
C277 C281 1.393 . S
C278 H270 0.950 . S
C278 C276 1.391 . S
C278 C279 1.400 . S
C279 C278 1.400 . S
C279 C280 1.398 . S
C279 C285 1.491 . S
C280 H271 0.950 . S
C280 C279 1.398 . S
C280 C281 1.391 . S
C281 H269 0.950 . S
C281 C277 1.393 . S
C281 C280 1.391 . S
C282 H272 0.950 . S
C282 C283 1.386 . S
C282 C284 1.391 . S
C283 C282 1.386 . S
C283 C287 1.393 . S
C284 H273 0.950 . S
C284 C282 1.391 . S
C284 C285 1.400 . S
C285 C279 1.491 . S
C285 C284 1.400 . S
C285 C286 1.398 . S
C286 H274 0.950 . S
C286 C285 1.398 . S
C286 C287 1.391 . S
C287 H275 0.950 . S
C287 C283 1.393 . S
C287 C286 1.391 . S
H288 C296 0.950 . S
H289 C301 0.950 . S
H290 C298 0.950 . S
H291 C300 0.950 . S
H292 C302 0.950 . S
H293 C304 0.950 . S
H294 C306 0.950 . S
H295 C307 0.950 . S
C296 H288 0.950 . S
C296 C297 1.386 . S
C296 C298 1.391 . S
C297 C296 1.386 . S
C297 C301 1.393 . S
C298 H290 0.950 . S
C298 C296 1.391 . S
C298 C299 1.400 . S
C299 C298 1.400 . S
C299 C300 1.398 . S
C299 C305 1.491 1_565 S
C300 H291 0.950 . S
C300 C299 1.398 . S
C300 C301 1.391 . S
C301 H289 0.950 . S
C301 C297 1.393 . S
C301 C300 1.391 . S
C302 H292 0.950 . S
C302 C303 1.386 . S
C302 C304 1.391 . S
C303 C302 1.386 . S
C303 C307 1.393 . S
C304 H293 0.950 . S
C304 C302 1.391 . S
C304 C305 1.400 . S
C305 C299 1.491 1_545 S
C305 C304 1.400 . S
C305 C306 1.398 . S
C306 H294 0.950 . S
C306 C305 1.398 . S
C306 C307 1.391 . S
C307 H295 0.950 . S
C307 C303 1.393 . S
C307 C306 1.391 . S
H308 C316 0.950 . S
H309 C321 0.950 . S
H310 C318 0.950 . S
H311 C320 0.950 . S
H312 C322 0.950 . S
H313 C324 0.950 . S
H314 C326 0.950 . S
H315 C327 0.950 . S
C316 H308 0.950 . S
C316 C317 1.386 . S
C316 C318 1.391 . S
C317 C316 1.386 . S
C317 C321 1.393 . S
C318 H310 0.950 . S
C318 C316 1.391 . S
C318 C319 1.400 . S
C319 C318 1.400 . S
C319 C320 1.398 . S
C319 C325 1.491 . S
C320 H311 0.950 . S
C320 C319 1.398 . S
C320 C321 1.391 . S
C321 H309 0.950 . S
C321 C317 1.393 . S
C321 C320 1.391 . S
C322 H312 0.950 . S
C322 C323 1.386 . S
C322 C324 1.391 . S
C323 C322 1.386 . S
C323 C327 1.393 . S
C324 H313 0.950 . S
C324 C322 1.391 . S
C324 C325 1.400 . S
C325 C319 1.491 . S
C325 C324 1.400 . S
C325 C326 1.398 . S
C326 H314 0.950 . S
C326 C325 1.398 . S
C326 C327 1.391 . S
C327 H315 0.950 . S
C327 C323 1.393 . S
C327 C326 1.391 . S
H328 C336 0.950 1_556 S
H329 C341 0.950 . S
H330 C338 0.950 . S
H331 C340 0.950 . S
H332 C342 0.950 1_554 S
H333 C344 0.950 . S
H334 C346 0.950 . S
H335 C347 0.950 . S
C336 H328 0.950 1_554 S
C336 C337 1.386 . S
C336 C338 1.391 1_554 S
C337 C336 1.386 . S
C337 C341 1.393 . S
C338 H330 0.950 . S
C338 C336 1.391 1_556 S
C338 C339 1.400 1_556 S
C339 C338 1.400 1_554 S
C339 C340 1.398 . S
C339 C345 1.491 1_554 S
C340 H331 0.950 . S
C340 C339 1.398 . S
C340 C341 1.391 . S
C341 H329 0.950 . S
C341 C337 1.393 . S
C341 C340 1.391 . S
C342 H332 0.950 1_556 S
C342 C343 1.386 . S
C342 C344 1.391 1_556 S
C343 C342 1.386 . S
C343 C347 1.393 . S
C344 H333 0.950 . S
C344 C342 1.391 1_554 S
C344 C345 1.400 1_554 S
C345 C339 1.491 1_556 S
C345 C344 1.400 1_556 S
C345 C346 1.398 . S
C346 H334 0.950 . S
C346 C345 1.398 . S
C346 C347 1.391 . S
C347 H335 0.950 . S
C347 C343 1.393 . S
C347 C346 1.391 . S
H348 C356 0.950 . S
H349 C361 0.950 . S
H350 C358 0.950 . S
H351 C360 0.950 . S
H352 C362 0.950 . S
H353 C364 0.950 . S
H354 C366 0.950 . S
H355 C367 0.950 . S
C356 H348 0.950 . S
C356 C357 1.386 . S
C356 C358 1.391 . S
C357 C356 1.386 . S
C357 C361 1.393 . S
C358 H350 0.950 . S
C358 C356 1.391 . S
C358 C359 1.400 . S
C359 C358 1.400 . S
C359 C360 1.398 . S
C359 C365 1.491 1_564 S
C360 H351 0.950 . S
C360 C359 1.398 . S
C360 C361 1.391 . S
C361 H349 0.950 . S
C361 C357 1.393 . S
C361 C360 1.391 . S
C362 H352 0.950 . S
C362 C363 1.386 . S
C362 C364 1.391 . S
C363 C362 1.386 . S
C363 C367 1.393 . S
C364 H353 0.950 . S
C364 C362 1.391 . S
C364 C365 1.400 . S
C365 C359 1.491 1_546 S
C365 C364 1.400 . S
C365 C366 1.398 . S
C366 H354 0.950 . S
C366 C365 1.398 . S
C366 C367 1.391 . S
C367 H355 0.950 . S
C367 C363 1.393 . S
C367 C366 1.391 . S
H368 C376 0.950 . S
H369 C381 0.950 . S
H370 C378 0.950 . S
H371 C380 0.950 . S
H372 C382 0.950 . S
H373 C384 0.950 . S
H374 C386 0.950 . S
H375 C387 0.950 . S
C376 H368 0.950 . S
C376 C377 1.386 . S
C376 C378 1.391 . S
C377 C376 1.386 . S
C377 C381 1.393 1_556 S
C378 H370 0.950 . S
C378 C376 1.391 . S
C378 C379 1.400 . S
C379 C378 1.400 . S
C379 C380 1.398 1_556 S
C379 C385 1.491 1_556 S
C380 H371 0.950 . S
C380 C379 1.398 1_554 S
C380 C381 1.391 . S
C381 H369 0.950 . S
C381 C377 1.393 1_554 S
C381 C380 1.391 . S
C382 H372 0.950 . S
C382 C383 1.386 . S
C382 C384 1.391 . S
C383 C382 1.386 . S
C383 C387 1.393 1_554 S
C384 H373 0.950 . S
C384 C382 1.391 . S
C384 C385 1.400 . S
C385 C379 1.491 1_554 S
C385 C384 1.400 . S
C385 C386 1.398 1_554 S
C386 H374 0.950 . S
C386 C385 1.398 1_556 S
C386 C387 1.391 . S
C387 H375 0.950 . S
C387 C383 1.393 1_556 S
C387 C386 1.391 . S
H388 C396 0.950 . S
H389 C401 0.950 . S
H390 C398 0.950 . S
H391 C400 0.950 . S
H392 C402 0.950 . S
H393 C404 0.950 . S
H394 C406 0.950 . S
H395 C407 0.950 . S
C396 H388 0.950 . S
C396 C397 1.386 . S
C396 C398 1.391 1_556 S
C397 C396 1.386 . S
C397 C401 1.393 . S
C398 H390 0.950 . S
C398 C396 1.391 1_554 S
C398 C399 1.400 1_554 S
C399 C398 1.400 1_556 S
C399 C400 1.398 . S
C399 C405 1.491 1_546 S
C400 H391 0.950 . S
C400 C399 1.398 . S
C400 C401 1.391 . S
C401 H389 0.950 . S
C401 C397 1.393 . S
C401 C400 1.391 . S
C402 H392 0.950 . S
C402 C403 1.386 . S
C402 C404 1.391 1_554 S
C403 C402 1.386 . S
C403 C407 1.393 . S
C404 H393 0.950 . S
C404 C402 1.391 1_556 S
C404 C405 1.400 1_556 S
C405 C399 1.491 1_564 S
C405 C404 1.400 1_554 S
C405 C406 1.398 . S
C406 H394 0.950 . S
C406 C405 1.398 . S
C406 C407 1.391 . S
C407 H395 0.950 . S
C407 C403 1.393 . S
C407 C406 1.391 . S
H408 C416 0.950 . S
H409 C421 0.950 . S
H410 C418 0.950 . S
H411 C420 0.950 . S
H412 C422 0.950 . S
H413 C424 0.950 . S
H414 C426 0.950 . S
H415 C427 0.950 . S
C416 H408 0.950 . S
C416 C417 1.386 . S
C416 C418 1.391 . S
C417 C416 1.386 . S
C417 C421 1.393 . S
C418 H410 0.950 . S
C418 C416 1.391 . S
C418 C419 1.400 . S
C419 C418 1.400 . S
C419 C420 1.398 . S
C419 C425 1.491 . S
C420 H411 0.950 . S
C420 C419 1.398 . S
C420 C421 1.391 . S
C421 H409 0.950 . S
C421 C417 1.393 . S
C421 C420 1.391 . S
C422 H412 0.950 . S
C422 C423 1.386 . S
C422 C424 1.391 1_556 S
C423 C422 1.386 . S
C423 C427 1.393 . S
C424 H413 0.950 . S
C424 C422 1.391 1_554 S
C424 C425 1.400 . S
C425 C419 1.491 . S
C425 C424 1.400 . S
C425 C426 1.398 . S
C426 H414 0.950 . S
C426 C425 1.398 . S
C426 C427 1.391 1_554 S
C427 H415 0.950 . S
C427 C423 1.393 . S
C427 C426 1.391 1_556 S
H428 C436 0.950 . S
H429 C441 0.950 . S
H430 C438 0.950 . S
H431 C440 0.950 . S
H432 C442 0.950 . S
H433 C444 0.950 . S
H434 C446 0.950 . S
H435 C447 0.950 . S
C436 H428 0.950 . S
C436 C437 1.386 . S
C436 C438 1.391 . S
C437 C436 1.386 . S
C437 C441 1.393 . S
C438 H430 0.950 . S
C438 C436 1.391 . S
C438 C439 1.400 . S
C439 C438 1.400 . S
C439 C440 1.398 . S
C439 C445 1.491 . S
C440 H431 0.950 . S
C440 C439 1.398 . S
C440 C441 1.391 . S
C441 H429 0.950 . S
C441 C437 1.393 . S
C441 C440 1.391 . S
C442 H432 0.950 . S
C442 C443 1.386 . S
C442 C444 1.391 1_556 S
C443 C442 1.386 . S
C443 C447 1.393 . S
C444 H433 0.950 . S
C444 C442 1.391 1_554 S
C444 C445 1.400 . S
C445 C439 1.491 . S
C445 C444 1.400 . S
C445 C446 1.398 . S
C446 H434 0.950 . S
C446 C445 1.398 . S
C446 C447 1.391 1_554 S
C447 H435 0.950 . S
C447 C443 1.393 . S
C447 C446 1.391 1_556 S
H448 C456 0.950 . S
H449 C461 0.950 . S
H450 C458 0.950 . S
H451 C460 0.950 . S
H452 C462 0.950 . S
H453 C464 0.950 . S
H454 C466 0.950 . S
H455 C467 0.950 . S
C456 H448 0.950 . S
C456 C457 1.386 . S
C456 C458 1.391 1_554 S
C457 C456 1.386 . S
C457 C461 1.393 . S
C458 H450 0.950 . S
C458 C456 1.391 1_556 S
C458 C459 1.400 . S
C459 C458 1.400 . S
C459 C460 1.398 . S
C459 C465 1.491 . S
C460 H451 0.950 . S
C460 C459 1.398 . S
C460 C461 1.391 1_556 S
C461 H449 0.950 . S
C461 C457 1.393 . S
C461 C460 1.391 1_554 S
C462 H452 0.950 . S
C462 C463 1.386 . S
C462 C464 1.391 . S
C463 C462 1.386 . S
C463 C467 1.393 . S
C464 H453 0.950 . S
C464 C462 1.391 . S
C464 C465 1.400 . S
C465 C459 1.491 . S
C465 C464 1.400 . S
C465 C466 1.398 . S
C466 H454 0.950 . S
C466 C465 1.398 . S
C466 C467 1.391 . S
C467 H455 0.950 . S
C467 C463 1.393 . S
C467 C466 1.391 . S
H468 C476 0.950 . S
H469 C481 0.950 . S
H470 C478 0.950 . S
H471 C480 0.950 . S
H472 C482 0.950 . S
H473 C484 0.950 . S
H474 C486 0.950 . S
H475 C487 0.950 . S
C476 H468 0.950 . S
C476 C477 1.386 . S
C476 C478 1.391 . S
C477 C476 1.386 . S
C477 C481 1.393 . S
C478 H470 0.950 . S
C478 C476 1.391 . S
C478 C479 1.400 . S
C479 C478 1.400 . S
C479 C480 1.398 . S
C479 C485 1.491 . S
C480 H471 0.950 . S
C480 C479 1.398 . S
C480 C481 1.391 . S
C481 H469 0.950 . S
C481 C477 1.393 . S
C481 C480 1.391 . S
C482 H472 0.950 . S
C482 C483 1.386 . S
C482 C484 1.391 1_554 S
C483 C482 1.386 . S
C483 C487 1.393 . S
C484 H473 0.950 . S
C484 C482 1.391 1_556 S
C484 C485 1.400 . S
C485 C479 1.491 . S
C485 C484 1.400 . S
C485 C486 1.398 . S
C486 H474 0.950 . S
C486 C485 1.398 . S
C486 C487 1.391 1_556 S
C487 H475 0.950 . S
C487 C483 1.393 . S
C487 C486 1.391 1_554 S
H488 C496 0.950 . S
H489 C501 0.950 . S
H490 C498 0.950 . S
H491 C500 0.950 . S
H492 C502 0.950 . S
H493 C504 0.950 . S
H494 C506 0.950 . S
H495 C507 0.950 . S
C496 H488 0.950 . S
C496 C497 1.386 . S
C496 C498 1.391 . S
C497 C496 1.386 . S
C497 C501 1.393 . S
C498 H490 0.950 . S
C498 C496 1.391 . S
C498 C499 1.400 . S
C499 C498 1.400 . S
C499 C500 1.398 . S
C499 C505 1.491 . S
C500 H491 0.950 . S
C500 C499 1.398 . S
C500 C501 1.391 . S
C501 H489 0.950 . S
C501 C497 1.393 . S
C501 C500 1.391 . S
C502 H492 0.950 . S
C502 C503 1.386 . S
C502 C504 1.391 . S
C503 C502 1.386 . S
C503 C507 1.393 . S
C504 H493 0.950 . S
C504 C502 1.391 . S
C504 C505 1.400 . S
C505 C499 1.491 . S
C505 C504 1.400 . S
C505 C506 1.398 . S
C506 H494 0.950 . S
C506 C505 1.398 . S
C506 C507 1.391 . S
C507 H495 0.950 . S
C507 C503 1.393 . S
C507 C506 1.391 . S
H508 C516 0.950 . S
H509 C521 0.950 . S
H510 C518 0.950 . S
H511 C520 0.950 . S
H512 C522 0.950 . S
H513 C524 0.950 . S
H514 C526 0.950 . S
H515 C527 0.950 . S
C516 H508 0.950 . S
C516 C517 1.386 . S
C516 C518 1.391 . S
C517 C516 1.386 . S
C517 C521 1.393 . S
C518 H510 0.950 . S
C518 C516 1.391 . S
C518 C519 1.400 . S
C519 C518 1.400 . S
C519 C520 1.398 . S
C519 C525 1.491 . S
C520 H511 0.950 . S
C520 C519 1.398 . S
C520 C521 1.391 . S
C521 H509 0.950 . S
C521 C517 1.393 . S
C521 C520 1.391 . S
C522 H512 0.950 . S
C522 C523 1.386 . S
C522 C524 1.391 . S
C523 C522 1.386 . S
C523 C527 1.393 . S
C524 H513 0.950 . S
C524 C522 1.391 . S
C524 C525 1.400 . S
C525 C519 1.491 . S
C525 C524 1.400 . S
C525 C526 1.398 . S
C526 H514 0.950 . S
C526 C525 1.398 . S
C526 C527 1.391 . S
C527 H515 0.950 . S
C527 C523 1.393 . S
C527 C526 1.391 . S
H528 C536 0.950 . S
H529 C541 0.950 . S
H530 C538 0.950 . S
H531 C540 0.950 . S
H532 C542 0.950 . S
H533 C544 0.950 . S
H534 C546 0.950 . S
H535 C547 0.950 . S
C536 H528 0.950 . S
C536 C537 1.386 . S
C536 C538 1.391 . S
C537 C536 1.386 . S
C537 C541 1.393 . S
C538 H530 0.950 . S
C538 C536 1.391 . S
C538 C539 1.400 . S
C539 C538 1.400 . S
C539 C540 1.398 . S
C539 C545 1.491 . S
C540 H531 0.950 . S
C540 C539 1.398 . S
C540 C541 1.391 . S
C541 H529 0.950 . S
C541 C537 1.393 . S
C541 C540 1.391 . S
C542 H532 0.950 . S
C542 C543 1.386 . S
C542 C544 1.391 . S
C543 C542 1.386 . S
C543 C547 1.393 . S
C544 H533 0.950 . S
C544 C542 1.391 . S
C544 C545 1.400 . S
C545 C539 1.491 . S
C545 C544 1.400 . S
C545 C546 1.398 . S
C546 H534 0.950 . S
C546 C545 1.398 . S
C546 C547 1.391 . S
C547 H535 0.950 . S
C547 C543 1.393 . S
C547 C546 1.391 . S
H548 C556 0.950 . S
H549 C561 0.950 . S
H550 C558 0.950 . S
H551 C560 0.950 . S
H552 C562 0.950 . S
H553 C564 0.950 . S
H554 C566 0.950 . S
H555 C567 0.950 . S
C556 H548 0.950 . S
C556 C557 1.386 . S
C556 C558 1.391 . S
C557 C556 1.386 . S
C557 C561 1.393 . S
C558 H550 0.950 . S
C558 C556 1.391 . S
C558 C559 1.400 . S
C559 C558 1.400 . S
C559 C560 1.398 . S
C559 C565 1.491 . S
C560 H551 0.950 . S
C560 C559 1.398 . S
C560 C561 1.391 . S
C561 H549 0.950 . S
C561 C557 1.393 . S
C561 C560 1.391 . S
C562 H552 0.950 . S
C562 C563 1.386 . S
C562 C564 1.391 . S
C563 C562 1.386 . S
C563 C567 1.393 . S
C564 H553 0.950 . S
C564 C562 1.391 . S
C564 C565 1.400 . S
C565 C559 1.491 . S
C565 C564 1.400 . S
C565 C566 1.398 . S
C566 H554 0.950 . S
C566 C565 1.398 . S
C566 C567 1.391 . S
C567 H555 0.950 . S
C567 C563 1.393 . S
C567 C566 1.391 . S
H568 C576 0.950 . S
H569 C581 0.950 . S
H570 C578 0.950 . S
H571 C580 0.950 . S
H572 C582 0.950 . S
H573 C584 0.950 . S
H574 C586 0.950 . S
H575 C587 0.950 . S
C576 H568 0.950 . S
C576 C577 1.386 . S
C576 C578 1.391 . S
C577 C576 1.386 . S
C577 C581 1.393 . S
C578 H570 0.950 . S
C578 C576 1.391 . S
C578 C579 1.400 . S
C579 C578 1.400 . S
C579 C580 1.398 . S
C579 C585 1.491 1_455 S
C580 H571 0.950 . S
C580 C579 1.398 . S
C580 C581 1.391 . S
C581 H569 0.950 . S
C581 C577 1.393 . S
C581 C580 1.391 . S
C582 H572 0.950 . S
C582 C583 1.386 . S
C582 C584 1.391 . S
C583 C582 1.386 . S
C583 C587 1.393 . S
C584 H573 0.950 . S
C584 C582 1.391 . S
C584 C585 1.400 . S
C585 C579 1.491 1_655 S
C585 C584 1.400 . S
C585 C586 1.398 . S
C586 H574 0.950 . S
C586 C585 1.398 . S
C586 C587 1.391 . S
C587 H575 0.950 . S
C587 C583 1.393 . S
C587 C586 1.391 . S
H588 C596 0.950 . S
H589 C601 0.950 . S
H590 C598 0.950 . S
H591 C600 0.950 . S
H592 C602 0.950 . S
H593 C604 0.950 . S
H594 C606 0.950 . S
H595 C607 0.950 . S
C596 H588 0.950 . S
C596 C597 1.386 . S
C596 C598 1.391 . S
C597 C596 1.386 . S
C597 C601 1.393 . S
C598 H590 0.950 . S
C598 C596 1.391 . S
C598 C599 1.400 . S
C599 C598 1.400 . S
C599 C600 1.398 . S
C599 C605 1.491 1_655 S
C600 H591 0.950 . S
C600 C599 1.398 . S
C600 C601 1.391 . S
C601 H589 0.950 . S
C601 C597 1.393 . S
C601 C600 1.391 . S
C602 H592 0.950 . S
C602 C603 1.386 . S
C602 C604 1.391 . S
C603 C602 1.386 . S
C603 C607 1.393 . S
C604 H593 0.950 . S
C604 C602 1.391 . S
C604 C605 1.400 . S
C605 C599 1.491 1_455 S
C605 C604 1.400 . S
C605 C606 1.398 . S
C606 H594 0.950 . S
C606 C605 1.398 . S
C606 C607 1.391 . S
C607 H595 0.950 . S
C607 C603 1.393 . S
C607 C606 1.391 . S
H608 C616 0.950 . S
H609 C621 0.950 . S
H610 C618 0.950 . S
H611 C620 0.950 . S
H612 C622 0.950 . S
H613 C624 0.950 . S
H614 C626 0.950 . S
H615 C627 0.950 . S
C616 H608 0.950 . S
C616 C617 1.386 . S
C616 C618 1.391 . S
C617 C616 1.386 . S
C617 C621 1.393 . S
C618 H610 0.950 . S
C618 C616 1.391 . S
C618 C619 1.400 . S
C619 C618 1.400 . S
C619 C620 1.398 . S
C619 C625 1.491 . S
C620 H611 0.950 . S
C620 C619 1.398 . S
C620 C621 1.391 . S
C621 H609 0.950 . S
C621 C617 1.393 . S
C621 C620 1.391 . S
C622 H612 0.950 . S
C622 C623 1.386 . S
C622 C624 1.391 . S
C623 C622 1.386 . S
C623 C627 1.393 . S
C624 H613 0.950 . S
C624 C622 1.391 . S
C624 C625 1.400 . S
C625 C619 1.491 . S
C625 C624 1.400 . S
C625 C626 1.398 . S
C626 H614 0.950 . S
C626 C625 1.398 . S
C626 C627 1.391 . S
C627 H615 0.950 . S
C627 C623 1.393 . S
C627 C626 1.391 . S
H628 C636 0.950 1_554 S
H629 C641 0.950 . S
H630 C638 0.945 1_554 S
H631 C640 0.950 . S
H632 C642 0.950 . S
H633 C644 0.950 . S
H634 C646 0.950 . S
H635 C647 0.950 . S
C636 H628 0.950 1_556 S
C636 C637 1.386 . S
C636 C638 1.391 . S
C637 C636 1.386 . S
C637 C641 1.393 . S
C638 H630 0.945 1_556 S
C638 C636 1.391 . S
C638 C639 1.400 . S
C639 C638 1.400 . S
C639 C640 1.398 . S
C639 C645 1.491 . S
C640 H631 0.950 . S
C640 C639 1.398 . S
C640 C641 1.391 . S
C641 H629 0.950 . S
C641 C637 1.393 . S
C641 C640 1.391 . S
C642 H632 0.950 . S
C642 C643 1.386 . S
C642 C644 1.391 . S
C643 C642 1.386 . S
C643 C647 1.393 . S
C644 H633 0.950 . S
C644 C642 1.391 . S
C644 C645 1.400 . S
C645 C639 1.491 . S
C645 C644 1.400 . S
C645 C646 1.398 . S
C646 H634 0.950 . S
C646 C645 1.398 . S
C646 C647 1.391 . S
C647 H635 0.950 . S
C647 C643 1.393 . S
C647 C646 1.391 . S
C177 C19 1.404 . S
C183 C167 1.389 . S
C197 C146 1.375 . S
C203 C40 1.392 . S
C217 C124 1.379 . S
C223 C62 1.372 . S
C237 C104 1.385 . S
C243 C83 1.372 . S
C257 C46 1.571 . S
C263 C7 1.594 . S
C277 C28 1.588 . S
C283 C67 1.581 . S
C297 C70 1.178 . S
C303 C25 1.168 . S
C317 C49 1.194 . S
C323 C4 1.172 . S
C337 C88 1.557 . S
C343 C130 1.578 . S
C357 C112 1.587 . S
C363 C151 1.583 . S
C377 C154 1.193 . S
C383 C109 1.171 . S
C397 C133 1.198 . S
C403 C91 1.208 . S
C417 C16 1.254 . S
C423 C20 1.253 . S
C437 C37 1.228 . S
C443 C41 1.246 . S
C457 C61 1.284 . S
C463 C45 1.259 . S
C477 C66 1.258 . S
C483 C82 1.283 . S
C497 C103 1.266 . S
C503 C87 1.235 . S
C517 C121 1.268 . S
C523 C125 1.271 . S
C537 C129 1.227 . S
C543 C145 1.251 . S
C557 C150 1.228 . S
C563 C166 1.246 . S
C577 C3 1.314 . S
C583 C24 1.334 . S
C597 C79 1.344 . S
C603 C58 1.340 . S
C617 C100 1.298 . S
C623 C108 1.307 . S
C637 C163 1.344 . S
C643 C142 1.337 . S
