# Generated by pormake.
# Topology pcb, (4)-cn, num edge types: 1
# Building blocks:
#     Node 0, Type 0, BuildingBlock: QUQFOY_clean_sbu_3, # of connection points: 4
#     Node 1, Type 0, BuildingBlock: QUQFOY_clean_sbu_3, # of connection points: 4
#     Node 2, Type 0, BuildingBlock: QUQFOY_clean_sbu_3, # of connection points: 4
#     Node 3, Type 0, BuildingBlock: QUQFOY_clean_sbu_3, # of connection points: 4
#     Node 4, Type 0, BuildingBlock: QUQFOY_clean_sbu_3, # of connection points: 4
#     Node 5, Type 0, BuildingBlock: QUQFOY_clean_sbu_3, # of connection points: 4
#     Node 6, Type 0, BuildingBlock: QUQFOY_clean_sbu_3, # of connection points: 4
#     Node 7, Type 0, BuildingBlock: QUQFOY_clean_sbu_3, # of connection points: 4
#     Node 8, Type 0, BuildingBlock: QUQFOY_clean_sbu_3, # of connection points: 4
#     Node 9, Type 0, BuildingBlock: QUQFOY_clean_sbu_3, # of connection points: 4
#     Node 10, Type 0, BuildingBlock: QUQFOY_clean_sbu_3, # of connection points: 4
#     Node 11, Type 0, BuildingBlock: QUQFOY_clean_sbu_3, # of connection points: 4
#     Node 12, Type 0, BuildingBlock: QUQFOY_clean_sbu_3, # of connection points: 4
#     Node 13, Type 0, BuildingBlock: QUQFOY_clean_sbu_3, # of connection points: 4
#     Node 14, Type 0, BuildingBlock: QUQFOY_clean_sbu_3, # of connection points: 4
#     Node 15, Type 0, BuildingBlock: QUQFOY_clean_sbu_3, # of connection points: 4
#     Edge 16, Type (0, 0), BuildingBlock: AJUNOK_clean_linker_0, # of connection points: 2
#     Edge 17, Type (0, 0), BuildingBlock: AJUNOK_clean_linker_0, # of connection points: 2
#     Edge 18, Type (0, 0), BuildingBlock: AJUNOK_clean_linker_0, # of connection points: 2
#     Edge 19, Type (0, 0), BuildingBlock: AJUNOK_clean_linker_0, # of connection points: 2
#     Edge 20, Type (0, 0), BuildingBlock: AJUNOK_clean_linker_0, # of connection points: 2
#     Edge 21, Type (0, 0), BuildingBlock: AJUNOK_clean_linker_0, # of connection points: 2
#     Edge 22, Type (0, 0), BuildingBlock: AJUNOK_clean_linker_0, # of connection points: 2
#     Edge 23, Type (0, 0), BuildingBlock: AJUNOK_clean_linker_0, # of connection points: 2
#     Edge 24, Type (0, 0), BuildingBlock: AJUNOK_clean_linker_0, # of connection points: 2
#     Edge 25, Type (0, 0), BuildingBlock: AJUNOK_clean_linker_0, # of connection points: 2
#     Edge 26, Type (0, 0), BuildingBlock: AJUNOK_clean_linker_0, # of connection points: 2
#     Edge 27, Type (0, 0), BuildingBlock: AJUNOK_clean_linker_0, # of connection points: 2
#     Edge 28, Type (0, 0), BuildingBlock: AJUNOK_clean_linker_0, # of connection points: 2
#     Edge 29, Type (0, 0), BuildingBlock: AJUNOK_clean_linker_0, # of connection points: 2
#     Edge 30, Type (0, 0), BuildingBlock: AJUNOK_clean_linker_0, # of connection points: 2
#     Edge 31, Type (0, 0), BuildingBlock: AJUNOK_clean_linker_0, # of connection points: 2
#     Edge 32, Type (0, 0), BuildingBlock: AJUNOK_clean_linker_0, # of connection points: 2
#     Edge 33, Type (0, 0), BuildingBlock: AJUNOK_clean_linker_0, # of connection points: 2
#     Edge 34, Type (0, 0), BuildingBlock: AJUNOK_clean_linker_0, # of connection points: 2
#     Edge 35, Type (0, 0), BuildingBlock: AJUNOK_clean_linker_0, # of connection points: 2
#     Edge 36, Type (0, 0), BuildingBlock: AJUNOK_clean_linker_0, # of connection points: 2
#     Edge 37, Type (0, 0), BuildingBlock: AJUNOK_clean_linker_0, # of connection points: 2
#     Edge 38, Type (0, 0), BuildingBlock: AJUNOK_clean_linker_0, # of connection points: 2
#     Edge 39, Type (0, 0), BuildingBlock: AJUNOK_clean_linker_0, # of connection points: 2
#     Edge 40, Type (0, 0), BuildingBlock: AJUNOK_clean_linker_0, # of connection points: 2
#     Edge 41, Type (0, 0), BuildingBlock: AJUNOK_clean_linker_0, # of connection points: 2
#     Edge 42, Type (0, 0), BuildingBlock: AJUNOK_clean_linker_0, # of connection points: 2
#     Edge 43, Type (0, 0), BuildingBlock: AJUNOK_clean_linker_0, # of connection points: 2
#     Edge 44, Type (0, 0), BuildingBlock: AJUNOK_clean_linker_0, # of connection points: 2
#     Edge 45, Type (0, 0), BuildingBlock: AJUNOK_clean_linker_0, # of connection points: 2
#     Edge 46, Type (0, 0), BuildingBlock: AJUNOK_clean_linker_0, # of connection points: 2
#     Edge 47, Type (0, 0), BuildingBlock: AJUNOK_clean_linker_0, # of connection points: 2
# Relax obj value: 0.312
# Max RMSD: 0.172
# Mean RMSD: 0.172
data_MOF--net-pcb--node1-QUQFOY_clean_sbu_3--edge1-AJUNOK_clean_linker_0
_symmetry_space_group_name_H-M    P1
_symmetry_Int_Tables_number       1
_symmetry_cell_setting            triclinic
loop_
_symmetry_equiv_pos_as_xyz
'x, y, z'
_cell_length_a     30.423526
_cell_length_b     37.316662
_cell_length_c     37.257289
_cell_angle_alpha  90.02362
_cell_angle_beta   90.076966
_cell_angle_gamma 89.953651
loop_
_atom_site_label
_atom_site_type_symbol
_atom_site_fract_x
_atom_site_fract_y
_atom_site_fract_z
_atom_type_partial_charge
C0 C 0.07795 0.08479 0.14019 0.0
O1 O 0.09253 0.05724 0.12409 0.0
Cd2 Cd 0.16577 0.03577 0.12038 0.0
O3 O 0.10399 0.10509 0.1578 0.0
Cd4 Cd 0.18562 0.10338 0.16903 0.0
C5 C 0.21132 0.10997 0.08135 0.0
O6 O 0.19346 0.04074 0.17961 0.0
O7 O 0.25341 0.0658 0.16384 0.0
O8 O 0.18768 0.12396 0.2314 0.0
C9 C 0.23403 0.03736 0.1736 0.0
O10 O 0.20353 0.07651 0.07893 0.0
C11 C 0.20884 0.15233 0.22395 0.0
O12 O 0.2039 0.12681 0.11037 0.0
O13 O 0.2179 0.15787 0.19122 0.0
C14 C 0.89717 0.11769 0.10301 0.0
O15 O 0.88499 0.10075 0.07517 0.0
Cd16 Cd 0.81716 0.105 0.04419 0.0
O17 O 0.87151 0.14011 0.11823 0.0
Cd18 Cd 0.7932 0.15849 0.10589 0.0
C19 C 0.75628 0.0741 0.11427 0.0
O20 O 0.80028 0.16704 0.04257 0.0
O21 O 0.73417 0.15856 0.05956 0.0
O22 O 0.80698 0.21803 0.13125 0.0
C23 C 0.76024 0.16534 0.03399 0.0
O24 O 0.76698 0.07011 0.08148 0.0
C25 C 0.77071 0.21892 0.14808 0.0
O26 O 0.76632 0.1026 0.13115 0.0
O27 O 0.74611 0.19162 0.14568 0.0
C28 C 0.90344 0.89091 0.13394 0.0
O29 O 0.88863 0.91939 0.1197 0.0
Cd30 Cd 0.81575 0.9423 0.12049 0.0
O31 O 0.87811 0.87055 0.15209 0.0
Cd32 Cd 0.79763 0.87242 0.16727 0.0
C33 C 0.76771 0.86984 0.08003 0.0
O34 O 0.79144 0.93469 0.18037 0.0
O35 O 0.72988 0.91031 0.16774 0.0
O36 O 0.80136 0.84969 0.22855 0.0
C37 C 0.75041 0.93837 0.17709 0.0
O38 O 0.77568 0.90334 0.07873 0.0
C39 C 0.77886 0.82185 0.22171 0.0
O40 O 0.77633 0.85178 0.10811 0.0
O41 O 0.76637 0.81735 0.18953 0.0
C42 C 0.08336 0.85381 0.09477 0.0
O43 O 0.09714 0.86863 0.06624 0.0
Cd44 Cd 0.16775 0.86413 0.03922 0.0
O45 O 0.10862 0.83353 0.11312 0.0
Cd46 Cd 0.18801 0.81613 0.10713 0.0
C47 C 0.22447 0.9018 0.10851 0.0
O48 O 0.1887 0.80301 0.0446 0.0
O49 O 0.25253 0.81376 0.06605 0.0
O50 O 0.18538 0.75461 0.12976 0.0
C51 C 0.22957 0.80459 0.03914 0.0
O52 O 0.21419 0.90384 0.07541 0.0
C53 C 0.20756 0.7619 0.15772 0.0
O54 O 0.21507 0.874 0.12666 0.0
O55 O 0.22008 0.79403 0.16182 0.0
C56 C 0.09124 0.88727 0.8489 0.0
O57 O 0.10526 0.91545 0.8642 0.0
Cd58 Cd 0.1774 0.93889 0.86395 0.0
O59 O 0.11722 0.86807 0.83003 0.0
Cd60 Cd 0.19785 0.87354 0.81444 0.0
C61 C 0.22635 0.86503 0.90079 0.0
O62 O 0.19869 0.93644 0.80275 0.0
O63 O 0.26172 0.91555 0.81636 0.0
O64 O 0.18473 0.84612 0.75589 0.0
C65 C 0.23912 0.94249 0.80699 0.0
O66 O 0.21876 0.89851 0.90349 0.0
C67 C 0.21903 0.82672 0.75724 0.0
O68 O 0.21778 0.84837 0.87188 0.0
O69 O 0.24286 0.82924 0.78507 0.0
C70 C 0.08438 0.12749 0.88138 0.0
O71 O 0.09768 0.11282 0.91015 0.0
Cd72 Cd 0.1671 0.11688 0.9386 0.0
O73 O 0.1099 0.1479 0.86348 0.0
Cd74 Cd 0.18929 0.16451 0.87302 0.0
C75 C 0.22441 0.07916 0.87016 0.0
O76 O 0.18711 0.17832 0.9356 0.0
O77 O 0.25045 0.16154 0.91778 0.0
O78 O 0.18976 0.226 0.85021 0.0
C79 C 0.2269 0.17293 0.94345 0.0
O80 O 0.21471 0.0773 0.90335 0.0
C81 C 0.21622 0.21889 0.82483 0.0
O82 O 0.21455 0.10681 0.85195 0.0
O83 O 0.22904 0.18671 0.82182 0.0
C84 C 0.90643 0.08703 0.83944 0.0
O85 O 0.89262 0.05816 0.85347 0.0
Cd86 Cd 0.82139 0.03252 0.85308 0.0
O87 O 0.88043 0.10696 0.82134 0.0
Cd88 Cd 0.79953 0.10239 0.80778 0.0
C89 C 0.77245 0.10288 0.89548 0.0
O90 O 0.79554 0.04029 0.79359 0.0
O91 O 0.73393 0.06221 0.80976 0.0
O92 O 0.79678 0.12914 0.74782 0.0
C93 C 0.75523 0.03492 0.79932 0.0
O94 O 0.78045 0.06936 0.8962 0.0
C95 C 0.77338 0.15545 0.75809 0.0
O96 O 0.7806 0.12135 0.86765 0.0
O97 O 0.76288 0.15667 0.79097 0.0
C98 C 0.90976 0.851 0.88368 0.0
O99 O 0.89498 0.86753 0.91092 0.0
Cd100 Cd 0.82436 0.86511 0.93786 0.0
O101 O 0.88513 0.8296 0.86601 0.0
Cd102 Cd 0.80473 0.81478 0.87273 0.0
C103 C 0.77012 0.90052 0.86681 0.0
O104 O 0.8033 0.80386 0.93597 0.0
O105 O 0.74036 0.81678 0.91424 0.0
O106 O 0.80295 0.75326 0.84906 0.0
C107 C 0.76271 0.80778 0.94153 0.0
O108 O 0.77809 0.90361 0.90022 0.0
C109 C 0.77833 0.7618 0.82281 0.0
O110 O 0.78117 0.87235 0.84992 0.0
O111 O 0.767 0.79436 0.82026 0.0
C112 C 0.57824 0.58885 0.63935 0.0
O113 O 0.59365 0.56126 0.62385 0.0
Cd114 Cd 0.6668 0.5389 0.62374 0.0
O115 O 0.60345 0.60897 0.65795 0.0
Cd116 Cd 0.685 0.60612 0.67003 0.0
C117 C 0.71497 0.61039 0.58346 0.0
O118 O 0.69264 0.54376 0.68375 0.0
O119 O 0.75168 0.56753 0.66427 0.0
O120 O 0.68949 0.63034 0.73127 0.0
C121 C 0.73288 0.53985 0.67658 0.0
O122 O 0.70853 0.5767 0.58204 0.0
C123 C 0.71131 0.65768 0.72153 0.0
O124 O 0.7043 0.62817 0.6112 0.0
O125 O 0.71984 0.66067 0.68841 0.0
C126 C 0.39684 0.6224 0.60136 0.0
O127 O 0.38403 0.6069 0.57287 0.0
Cd128 Cd 0.31448 0.61098 0.5444 0.0
O129 O 0.371 0.64331 0.61845 0.0
Cd130 Cd 0.29182 0.66119 0.60841 0.0
C131 C 0.25698 0.57652 0.6149 0.0
O132 O 0.29601 0.67292 0.54531 0.0
O133 O 0.23124 0.66074 0.56342 0.0
O134 O 0.30439 0.71958 0.63644 0.0
C135 C 0.25572 0.67033 0.5377 0.0
O136 O 0.26651 0.57374 0.58172 0.0
C137 C 0.26812 0.7193 0.65331 0.0
O138 O 0.2671 0.60457 0.63241 0.0
O139 O 0.24395 0.69189 0.64971 0.0
C140 C 0.40617 0.39361 0.6385 0.0
O141 O 0.392 0.42257 0.62481 0.0
Cd142 Cd 0.31952 0.44616 0.624 0.0
O143 O 0.38019 0.3729 0.65563 0.0
Cd144 Cd 0.29922 0.37496 0.66929 0.0
C145 C 0.27313 0.37437 0.581 0.0
O146 O 0.29221 0.43699 0.68272 0.0
O147 O 0.23134 0.41237 0.6683 0.0
O148 O 0.29923 0.35165 0.73046 0.0
C149 C 0.25132 0.4405 0.6782 0.0
O150 O 0.28166 0.4078 0.58036 0.0
C151 C 0.27739 0.3238 0.72232 0.0
O152 O 0.27994 0.35594 0.60918 0.0
O153 O 0.26722 0.31952 0.68958 0.0
C154 C 0.58534 0.35525 0.5984 0.0
O155 O 0.59917 0.37051 0.57013 0.0
Cd156 Cd 0.66962 0.36601 0.54298 0.0
O157 O 0.61045 0.3344 0.61624 0.0
Cd158 Cd 0.6898 0.31738 0.6088 0.0
C159 C 0.72482 0.40335 0.61255 0.0
O160 O 0.68896 0.30414 0.54605 0.0
O161 O 0.75335 0.31428 0.56676 0.0
O162 O 0.68687 0.25642 0.63281 0.0
C163 C 0.72983 0.3043 0.54048 0.0
O164 O 0.71567 0.40595 0.57929 0.0
C165 C 0.71218 0.26362 0.65899 0.0
O166 O 0.7155 0.37498 0.62971 0.0
O167 O 0.72614 0.29549 0.6616 0.0
C168 C 0.60252 0.33745 0.33412 0.0
O169 O 0.61163 0.34892 0.30321 0.0
Cd170 Cd 0.68897 0.36317 0.32027 0.0
O171 O 0.6341 0.33604 0.35606 0.0
Cd172 Cd 0.70376 0.35775 0.32219 0.0
C173 C 0.73114 0.33767 0.39287 0.0
O174 O 0.69083 0.42406 0.31096 0.0
O175 O 0.74682 0.41106 0.34356 0.0
O176 O 0.75356 0.33078 0.27866 0.0
C177 C 0.72288 0.43516 0.3295 0.0
O178 O 0.70325 0.36226 0.3876 0.0
C179 C 0.72472 0.32387 0.255 0.0
O180 O 0.74511 0.32106 0.36567 0.0
O181 O 0.6857 0.33402 0.26151 0.0
C182 C 0.57748 0.64921 0.39229 0.0
O183 O 0.58717 0.63596 0.42268 0.0
Cd184 Cd 0.65701 0.6286 0.4498 0.0
O185 O 0.6074 0.66201 0.37202 0.0
Cd186 Cd 0.68917 0.66869 0.37807 0.0
C187 C 0.70338 0.57946 0.38137 0.0
O188 O 0.69264 0.68369 0.44007 0.0
O189 O 0.75293 0.66255 0.41986 0.0
O190 O 0.69538 0.72901 0.35409 0.0
C191 C 0.73191 0.6749 0.44652 0.0
O192 O 0.69264 0.58141 0.41438 0.0
C193 C 0.71947 0.71986 0.32783 0.0
O194 O 0.70107 0.60669 0.36092 0.0
O195 O 0.72855 0.68681 0.32465 0.0
C196 C 0.40284 0.6086 0.34907 0.0
O197 O 0.39245 0.58038 0.36604 0.0
Cd198 Cd 0.32765 0.54556 0.3615 0.0
O199 O 0.37645 0.62282 0.32658 0.0
Cd200 Cd 0.29829 0.60734 0.31195 0.0
C201 C 0.26727 0.61102 0.39871 0.0
O202 O 0.30799 0.54511 0.29953 0.0
O203 O 0.2427 0.55826 0.31566 0.0
O204 O 0.29516 0.63286 0.25137 0.0
C205 C 0.26929 0.53436 0.30491 0.0
O206 O 0.27708 0.57792 0.40097 0.0
C207 C 0.2652 0.65516 0.25963 0.0
O208 O 0.27577 0.62853 0.37036 0.0
O209 O 0.25067 0.65425 0.29146 0.0
C210 C 0.42243 0.32566 0.3833 0.0
O211 O 0.41534 0.34317 0.41196 0.0
Cd212 Cd 0.34558 0.3553 0.43872 0.0
O213 O 0.39073 0.3114 0.36596 0.0
Cd214 Cd 0.30918 0.30754 0.37419 0.0
C215 C 0.29496 0.39658 0.36745 0.0
O216 O 0.30744 0.29998 0.43797 0.0
O217 O 0.24644 0.31772 0.41552 0.0
O218 O 0.2989 0.24562 0.35429 0.0
C219 C 0.26779 0.30844 0.44324 0.0
O220 O 0.30767 0.39886 0.39999 0.0
C221 C 0.27505 0.25436 0.32766 0.0
O222 O 0.29624 0.36695 0.35068 0.0
O223 O 0.26788 0.28749 0.32291 0.0
C224 C 0.24657 0.23829 0.26735 0.0
C225 C 0.25712 0.22764 0.3025 0.0
C226 C 0.23044 0.21371 0.24234 0.0
C227 C 0.22337 0.17773 0.25176 0.0
H228 H 0.25162 0.26573 0.25879 0.0
H229 H 0.22349 0.22301 0.21537 0.0
S230 S 0.24414 0.13652 0.34076 0.0
N231 N 0.25863 0.17888 0.3458 0.0
N232 N 0.22723 0.13264 0.29878 0.0
C233 C 0.23277 0.16681 0.28704 0.0
C234 C 0.25003 0.19177 0.31241 0.0
C235 C 0.77969 0.29475 0.2148 0.0
C236 C 0.73543 0.30161 0.22343 0.0
C237 C 0.79095 0.26925 0.1888 0.0
C238 C 0.75833 0.24937 0.17106 0.0
H239 H 0.80592 0.30824 0.2291 0.0
H240 H 0.82542 0.26379 0.18395 0.0
S241 S 0.63769 0.26019 0.18045 0.0
N242 N 0.65878 0.28896 0.20939 0.0
N243 N 0.68011 0.24059 0.16103 0.0
C244 C 0.714 0.25736 0.17789 0.0
C245 C 0.70249 0.28368 0.20393 0.0
C246 C 0.75867 0.7602 0.24064 0.0
C247 C 0.76626 0.7962 0.24984 0.0
C248 C 0.74428 0.73554 0.26629 0.0
C249 C 0.7359 0.74626 0.30179 0.0
H250 H 0.76388 0.75099 0.21338 0.0
H251 H 0.73874 0.70806 0.25804 0.0
S252 S 0.7511 0.83739 0.33958 0.0
N253 N 0.76531 0.84128 0.29699 0.0
N254 N 0.73703 0.79502 0.34513 0.0
C255 C 0.74353 0.78213 0.31142 0.0
C256 C 0.75912 0.8071 0.28545 0.0
C257 C 0.24658 0.67412 0.19717 0.0
C258 C 0.24894 0.68204 0.23401 0.0
C259 C 0.23144 0.69975 0.17257 0.0
C260 C 0.21951 0.7343 0.18405 0.0
H261 H 0.25625 0.64795 0.18737 0.0
H262 H 0.23035 0.69286 0.14434 0.0
S263 S 0.21963 0.76824 0.27755 0.0
N264 N 0.23729 0.72652 0.28082 0.0
N265 N 0.21028 0.77497 0.23441 0.0
C266 C 0.22162 0.74246 0.22076 0.0
C267 C 0.23597 0.71621 0.24583 0.0
C268 C 0.28717 0.76724 0.69698 0.0
C269 C 0.25508 0.74879 0.67719 0.0
C270 C 0.27512 0.79292 0.72251 0.0
C271 C 0.2307 0.80162 0.72834 0.0
H272 H 0.32167 0.76084 0.69372 0.0
H273 H 0.30077 0.80583 0.73802 0.0
S274 S 0.13449 0.76287 0.68117 0.0
N275 N 0.1773 0.74196 0.66372 0.0
N276 N 0.15472 0.79114 0.71103 0.0
C277 C 0.19844 0.78449 0.70757 0.0
C278 C 0.21064 0.75777 0.68216 0.0
C279 C 0.24252 0.23639 0.76434 0.0
C280 C 0.23161 0.24641 0.79957 0.0
C281 C 0.25754 0.26169 0.7396 0.0
C282 C 0.26328 0.2977 0.74952 0.0
H283 H 0.23882 0.20884 0.75561 0.0
H284 H 0.26497 0.25291 0.71255 0.0
S285 S 0.24048 0.33743 0.83884 0.0
N286 N 0.22775 0.29465 0.84336 0.0
N287 N 0.25731 0.34221 0.79698 0.0
C288 C 0.2532 0.30803 0.78484 0.0
C289 C 0.23692 0.28237 0.80985 0.0
C290 C 0.74938 0.17471 0.69706 0.0
C291 C 0.75819 0.1833 0.73309 0.0
C292 C 0.73307 0.20066 0.67333 0.0
C293 C 0.72621 0.23611 0.68477 0.0
H294 H 0.75448 0.14769 0.68729 0.0
H295 H 0.72676 0.19312 0.64573 0.0
S296 S 0.74453 0.27219 0.77631 0.0
N297 N 0.75856 0.22954 0.77914 0.0
N298 N 0.72911 0.27849 0.73428 0.0
C299 C 0.73512 0.24504 0.72064 0.0
C300 C 0.75081 0.21855 0.74491 0.0
C301 C 0.75531 0.69953 0.80696 0.0
C302 C 0.7624 0.73528 0.79661 0.0
C303 C 0.73756 0.67461 0.78278 0.0
C304 C 0.72733 0.68455 0.74733 0.0
H305 H 0.76274 0.69093 0.83406 0.0
H306 H 0.73256 0.6473 0.79169 0.0
S307 S 0.74049 0.77477 0.70696 0.0
N308 N 0.75798 0.77936 0.74866 0.0
N309 N 0.72555 0.73244 0.70309 0.0
C310 C 0.73466 0.72014 0.73664 0.0
C311 C 0.75198 0.74555 0.76133 0.0
C312 C 0.25284 0.12779 0.98743 0.0
C313 C 0.23676 0.16249 0.98066 0.0
C314 C 0.24683 0.1116 0.02098 0.0
C315 C 0.22538 0.12984 0.04901 0.0
H316 H 0.26626 0.11174 0.96581 0.0
H317 H 0.25693 0.08395 0.02436 0.0
S318 S 0.1843 0.22351 0.04625 0.0
N319 N 0.20341 0.21606 0.00546 0.0
N320 N 0.19339 0.18627 0.06902 0.0
C321 C 0.2134 0.16589 0.04358 0.0
C322 C 0.21882 0.18207 0.00923 0.0
C323 C 0.77304 0.15686 0.93468 0.0
C324 C 0.75891 0.12144 0.92866 0.0
C325 C 0.76915 0.17269 0.96856 0.0
C326 C 0.74984 0.15408 -0.00281 0.0
H327 H 0.79036 0.17147 0.91395 0.0
H328 H 0.78406 0.19869 0.97305 0.0
S329 S 0.70099 0.0631 -0.00625 0.0
N330 N 0.72034 0.06985 0.95292 0.0
N331 N 0.71174 0.10012 0.01641 0.0
C332 C 0.7316 0.1201 -0.0094 0.0
C333 C 0.73654 0.10359 0.95634 0.0
C334 C 0.76665 0.79972 0.00726 0.0
C335 C 0.74918 0.81854 0.97789 0.0
C336 C 0.76876 0.81544 0.04133 0.0
C337 C 0.75444 0.85087 0.04691 0.0
H338 H 0.78193 0.77378 0.00327 0.0
H339 H 0.78519 0.8008 0.06257 0.0
S340 S 0.69915 0.90921 0.98012 0.0
N341 N 0.71144 0.87239 0.95764 0.0
N342 N 0.71647 0.90234 0.02157 0.0
C343 C 0.73315 0.86868 0.01856 0.0
C344 C 0.73015 0.85235 0.98402 0.0
C345 C 0.26233 0.84725 -0.00395 0.0
C346 C 0.24387 0.81336 0.00257 0.0
C347 C 0.25975 0.86289 0.96195 0.0
C348 C 0.23935 0.84484 0.93324 0.0
H349 H 0.27461 0.86335 0.01811 0.0
H350 H 0.27111 0.89021 0.95867 0.0
S351 S 0.19374 0.75261 0.93554 0.0
N352 N 0.21005 0.76033 0.97711 0.0
N353 N 0.20643 0.78899 0.91257 0.0
C354 C 0.22552 0.80924 0.93861 0.0
C355 C 0.22747 0.79366 0.97348 0.0
C356 C 0.00278 0.06767 0.12033 0.0
C357 C 0.03049 0.09346 0.13609 0.0
C358 C 0.95943 0.07567 0.11116 0.0
C359 C 0.94143 0.10975 0.11756 0.0
H360 H 0.0149 0.04112 0.11393 0.0
H361 H 0.9401 0.05499 0.09819 0.0
S362 S -0.00184 0.1861 0.1613 0.0
N363 N 0.03566 0.15406 0.16005 0.0
N364 N 0.95337 0.16894 0.143 0.0
C365 C 0.96763 0.13533 0.1352 0.0
C366 C 0.01233 0.12724 0.14441 0.0
C367 C 0.75056 0.00386 0.18615 0.0
C368 C 0.73426 0.97419 0.16711 0.0
C369 C 0.75282 0.03773 0.17012 0.0
C370 C 0.73969 0.04273 0.13425 0.0
H371 H 0.7656 0.00015 0.21227 0.0
H372 H 0.76917 0.05904 0.18468 0.0
S373 S 0.68544 0.9755 0.07586 0.0
N374 N 0.69728 0.95341 0.11304 0.0
N375 N 0.70235 0.017 0.08261 0.0
C376 C 0.71837 0.01434 0.11657 0.0
C377 C 0.71534 0.98 0.13315 0.0
C378 C 0.97448 0.9021 0.10278 0.0
C379 C 0.94999 0.88092 0.12678 0.0
C380 C 0.01728 0.89296 0.09304 0.0
C381 C 0.0381 0.86232 0.10699 0.0
H382 H 0.96038 0.92588 0.09071 0.0
H383 H 0.03415 0.91031 0.07426 0.0
S384 S 0.98964 0.7983 0.17206 0.0
N385 N 0.95037 0.82813 0.16519 0.0
N386 N 0.03156 0.81112 0.14703 0.0
C387 C 0.01468 0.84119 0.13175 0.0
C388 C 0.97053 0.85041 0.14155 0.0
C389 C 0.23576 0.97172 0.18077 0.0
C390 C 0.24915 0.00198 0.16129 0.0
C391 C 0.2322 0.9382 0.16421 0.0
C392 C 0.24096 0.93404 0.12734 0.0
H393 H 0.2241 0.97464 0.2081 0.0
H394 H 0.21852 0.91632 0.17968 0.0
S395 S 0.286 0.00352 0.06646 0.0
N396 N 0.27852 0.02454 0.10499 0.0
N397 N 0.27089 0.9616 0.0735 0.0
C398 C 0.25915 0.96321 0.10865 0.0
C399 C 0.26359 -0.00278 0.12577 0.0
C400 C 0.97478 0.89107 0.88423 0.0
C401 C 0.95543 0.85904 0.87216 0.0
C402 C 0.01799 0.89988 0.87571 0.0
C403 C 0.04449 0.87705 0.8548 0.0
H404 H 0.9564 0.9098 0.90063 0.0
H405 H 0.03074 0.92488 0.8862 0.0
S406 S 0.00935 0.79026 0.81527 0.0
N407 N 0.96552 0.80466 0.83713 0.0
N408 N 0.04761 0.82111 0.82119 0.0
C409 C 0.02546 0.84513 0.84176 0.0
C410 C 0.98081 0.83619 0.85037 0.0
C411 C 0.2349 0.00803 0.79899 0.0
C412 C 0.25157 0.97881 0.81844 0.0
C413 C 0.23022 0.0417 0.81506 0.0
C414 C 0.24103 0.04697 0.85144 0.0
H415 H 0.22194 0.00409 0.77217 0.0
H416 H 0.21433 0.06273 0.79977 0.0
S417 S 0.29337 0.98058 0.91199 0.0
N418 N 0.28518 0.95854 0.87413 0.0
N419 N 0.27535 0.0217 0.90472 0.0
C420 C 0.26186 0.01892 0.87004 0.0
C421 C 0.2675 0.98481 0.85338 0.0
C422 C 0.01781 0.08921 0.88443 0.0
C423 C 0.03946 0.11846 0.86853 0.0
C424 C 0.97558 0.07924 0.87408 0.0
C425 C 0.95237 0.09811 0.84741 0.0
H426 H 0.03356 0.0735 0.90525 0.0
H427 H 0.96088 0.05665 0.8878 0.0
S428 S 0.99432 0.17629 0.79627 0.0
N429 N 0.03496 0.16586 0.82383 0.0
N430 N 0.95463 0.14723 0.80448 0.0
C431 C 0.97355 0.12728 0.83079 0.0
C432 C 0.01725 0.13737 0.84125 0.0
C433 C 0.7667 0.93628 0.8105 0.0
C434 C 0.75369 0.93175 0.84644 0.0
C435 C 0.76158 0.96929 0.79323 0.0
C436 C 0.74262 -0.00135 0.81106 0.0
H437 H 0.78451 0.91531 0.79662 0.0
H438 H 0.7762 0.9728 0.76695 0.0
S439 S 0.69301 -0.00237 0.90198 0.0
N440 N 0.71383 0.95708 0.89692 0.0
N441 N 0.70339 0.01911 0.86418 0.0
C442 C 0.72423 -0.00697 0.84523 0.0
C443 C 0.73015 0.95955 0.86308 0.0
C444 C 0.72191 0.68157 0.51196 0.0
C445 C 0.74228 0.66335 0.48344 0.0
C446 C 0.71625 0.66515 0.54536 0.0
C447 C 0.73028 0.62971 0.55123 0.0
H448 H 0.707 0.70759 0.50755 0.0
H449 H 0.69768 0.67934 0.56569 0.0
S450 S 0.79468 0.57365 0.4882 0.0
N451 N 0.78357 0.61045 0.46529 0.0
N452 N 0.77241 0.57939 0.52817 0.0
C453 C 0.7549 0.61268 0.52428 0.0
C454 C 0.76122 0.62963 0.49035 0.0
C455 C 0.22806 0.62635 0.49348 0.0
C456 C 0.24423 0.6609 0.50065 0.0
C457 C 0.23247 0.61111 0.45932 0.0
C458 C 0.25239 0.63024 0.43119 0.0
H459 H 0.21601 0.60961 0.51517 0.0
H460 H 0.22284 0.58342 0.45558 0.0
S461 S 0.29251 0.72415 0.4353 0.0
N462 N 0.27566 0.71538 0.47647 0.0
N463 N 0.28255 0.68755 0.41173 0.0
C464 C 0.26407 0.6663 0.4372 0.0
C465 C 0.26037 0.68143 0.47216 0.0
C466 C 0.26974 0.30295 0.50934 0.0
C467 C 0.25579 0.32207 0.47896 0.0
C468 C 0.27171 0.31938 0.54307 0.0
C469 C 0.26085 0.35582 0.54735 0.0
H470 H 0.28196 0.2758 0.50659 0.0
H471 H 0.28505 0.30409 0.56527 0.0
S472 S 0.21678 0.41625 0.47688 0.0
N473 N 0.22607 0.37803 0.45585 0.0
N474 N 0.23065 0.40925 0.51917 0.0
C475 C 0.24354 0.37441 0.51769 0.0
C476 C 0.24073 0.35741 0.48346 0.0
C477 C 0.73401 0.29185 0.44093 0.0
C478 C 0.74294 0.32693 0.42945 0.0
C479 C 0.73409 0.28336 0.47758 0.0
C480 C 0.74464 0.30938 0.50344 0.0
H481 H 0.72322 0.27178 0.42185 0.0
H482 H 0.72296 0.25706 0.48587 0.0
S483 S 0.77615 0.40368 0.48628 0.0
N484 N 0.7661 0.3869 0.44606 0.0
N485 N 0.76846 0.37046 0.51487 0.0
C486 C 0.75766 0.34356 0.4919 0.0
C487 C 0.75617 0.3525 0.4548 0.0
C488 C 0.50572 0.57468 0.61173 0.0
C489 C 0.53102 0.59774 0.6334 0.0
C490 C 0.46246 0.58285 0.60245 0.0
C491 C 0.44191 0.61438 0.6145 0.0
H492 H 0.51957 0.55016 0.60103 0.0
H493 H 0.44511 0.56415 0.58527 0.0
S494 S 0.49199 0.68297 0.67394 0.0
N495 N 0.53137 0.65299 0.66822 0.0
N496 N 0.44927 0.66818 0.65086 0.0
C497 C 0.46591 0.63721 0.63736 0.0
C498 C 0.51057 0.62896 0.64673 0.0
C499 C 0.25344 0.5398 0.67052 0.0
C500 C 0.24118 0.54457 0.63441 0.0
C501 C 0.25103 0.50603 0.68668 0.0
C502 C 0.23546 0.47619 0.66754 0.0
H503 H 0.26903 0.56129 0.68535 0.0
H504 H 0.26531 0.50255 0.71312 0.0
S505 S 0.18901 0.47672 0.57546 0.0
N506 N 0.20544 0.51835 0.58223 0.0
N507 N 0.20011 0.4549 0.61294 0.0
C508 C 0.2175 0.48169 0.63318 0.0
C509 C 0.22068 0.51596 0.61646 0.0
C510 C 0.51997 0.39515 0.59764 0.0
C511 C 0.54031 0.36404 0.61101 0.0
C512 C 0.47741 0.40463 0.60768 0.0
C513 C 0.45264 0.38335 0.63139 0.0
H514 H 0.53702 0.4126 0.57907 0.0
H515 H 0.46368 0.42875 0.59598 0.0
S516 S 0.49114 0.29968 0.67536 0.0
N517 N 0.53315 0.31238 0.65036 0.0
N518 N 0.45232 0.33003 0.66905 0.0
C519 C 0.47273 0.3524 0.64566 0.0
C520 C 0.51669 0.34284 0.63556 0.0
C521 C 0.76055 0.49874 0.62955 0.0
C522 C 0.74728 0.50396 0.66532 0.0
C523 C 0.75671 0.46506 0.61321 0.0
C524 C 0.74021 0.43546 0.63232 0.0
H525 H 0.76943 0.52144 0.61293 0.0
H526 H 0.76375 0.46286 0.5848 0.0
S527 S 0.71066 0.43412 0.72906 0.0
N528 N 0.72376 0.47624 0.72085 0.0
N529 N 0.71797 0.41251 0.69084 0.0
C530 C 0.73229 0.43954 0.66938 0.0
C531 C 0.73548 0.47397 0.68573 0.0
C532 C 0.50325 0.32619 0.39412 0.0
C533 C 0.46809 0.32357 0.3697 0.0
C534 C 0.54674 0.3288 0.38225 0.0
C535 C 0.55685 0.32955 0.34543 0.0
H536 H 0.49708 0.32703 0.42274 0.0
H537 H 0.57243 0.33178 0.40219 0.0
S538 S 0.47712 0.32077 0.27044 0.0
N539 N 0.44646 0.31946 0.30697 0.0
N540 N 0.52834 0.32504 0.28455 0.0
C541 C 0.52221 0.32548 0.32066 0.0
C542 C 0.47782 0.32227 0.33282 0.0
C543 C 0.70518 0.49958 0.31903 0.0
C544 C 0.72647 0.47327 0.33978 0.0
C545 C 0.70018 0.53467 0.33179 0.0
C546 C 0.71536 0.54434 0.3661 0.0
H547 H 0.69069 0.49265 0.29336 0.0
H548 H 0.68205 0.55372 0.31557 0.0
S549 S 0.77763 0.4868 0.42928 0.0
N550 N 0.76675 0.46041 0.39482 0.0
N551 N 0.75599 0.52609 0.41913 0.0
C552 C 0.73877 0.51893 0.38625 0.0
C553 C 0.74477 0.48344 0.37296 0.0
C554 C 0.49899 0.63689 0.40546 0.0
C555 C 0.53118 0.64628 0.38005 0.0
C556 C 0.45689 0.62664 0.39492 0.0
C557 C 0.44481 0.62582 0.35857 0.0
H558 H 0.50682 0.63579 0.43382 0.0
H559 H 0.43397 0.61804 0.41543 0.0
S560 S 0.51422 0.65243 0.28151 0.0
N561 N 0.54654 0.65743 0.31685 0.0
N562 N 0.46636 0.63858 0.29719 0.0
C563 C 0.47514 0.63785 0.33292 0.0
C564 C 0.51861 0.64803 0.34364 0.0
C565 C 0.25838 0.4564 0.36735 0.0
C566 C 0.28052 0.42922 0.34848 0.0
C567 C 0.24965 0.48957 0.35126 0.0
C568 C 0.26379 0.49686 0.31607 0.0
H569 H 0.24926 0.45249 0.39518 0.0
H570 H 0.23523 0.51057 0.36754 0.0
S571 S 0.31923 0.4337 0.25423 0.0
N572 N 0.31251 0.41059 0.29162 0.0
N573 N 0.29769 0.4736 0.26197 0.0
C574 C 0.28342 0.46922 0.29624 0.0
C575 C 0.29142 0.43518 0.31231 0.0
loop_
_geom_bond_atom_site_label_1
_geom_bond_atom_site_label_2
_geom_bond_distance
_geom_bond_site_symmetry_2
_ccdc_geom_bond_type
C0 O1 1.306 . S
C0 O3 1.160 . S
O1 C0 1.306 . S
O1 Cd2 2.228 . S
Cd2 O1 2.228 . S
Cd2 O6 2.273 . S
Cd2 O10 2.277 . S
O3 C0 1.160 . S
O3 Cd4 2.203 . S
Cd4 O3 2.203 . S
Cd4 O6 2.411 . S
Cd4 O7 2.333 . S
Cd4 O8 2.352 . S
Cd4 O12 2.277 . S
Cd4 O13 2.356 . S
C5 O10 1.209 . S
C5 O12 1.226 . S
O6 Cd2 2.273 . S
O6 Cd4 2.411 . S
O6 C9 1.320 . S
O7 Cd4 2.333 . S
O7 C9 1.214 . S
O8 Cd4 2.352 . S
O8 C11 1.258 . S
C9 O6 1.320 . S
C9 O7 1.214 . S
O10 Cd2 2.277 . S
O10 C5 1.209 . S
C11 O8 1.258 . S
C11 O13 1.282 . S
O12 Cd4 2.277 . S
O12 C5 1.226 . S
O13 Cd4 2.356 . S
O13 C11 1.282 . S
C14 O15 1.306 . S
C14 O17 1.160 . S
O15 C14 1.306 . S
O15 Cd16 2.228 . S
Cd16 O15 2.228 . S
Cd16 O20 2.273 . S
Cd16 O24 2.277 . S
O17 C14 1.160 . S
O17 Cd18 2.203 . S
Cd18 O17 2.203 . S
Cd18 O20 2.411 . S
Cd18 O21 2.333 . S
Cd18 O22 2.352 . S
Cd18 O26 2.277 . S
Cd18 O27 2.356 . S
C19 O24 1.209 . S
C19 O26 1.226 . S
O20 Cd16 2.273 . S
O20 Cd18 2.411 . S
O20 C23 1.320 . S
O21 Cd18 2.333 . S
O21 C23 1.214 . S
O22 Cd18 2.352 . S
O22 C25 1.258 . S
C23 O20 1.320 . S
C23 O21 1.214 . S
O24 Cd16 2.277 . S
O24 C19 1.209 . S
C25 O22 1.258 . S
C25 O27 1.282 . S
O26 Cd18 2.277 . S
O26 C19 1.226 . S
O27 Cd18 2.356 . S
O27 C25 1.282 . S
C28 O29 1.306 . S
C28 O31 1.160 . S
O29 C28 1.306 . S
O29 Cd30 2.228 . S
Cd30 O29 2.228 . S
Cd30 O34 2.273 . S
Cd30 O38 2.277 . S
O31 C28 1.160 . S
O31 Cd32 2.203 . S
Cd32 O31 2.203 . S
Cd32 O34 2.411 . S
Cd32 O35 2.333 . S
Cd32 O36 2.352 . S
Cd32 O40 2.277 . S
Cd32 O41 2.356 . S
C33 O38 1.209 . S
C33 O40 1.226 . S
O34 Cd30 2.273 . S
O34 Cd32 2.411 . S
O34 C37 1.320 . S
O35 Cd32 2.333 . S
O35 C37 1.214 . S
O36 Cd32 2.352 . S
O36 C39 1.258 . S
C37 O34 1.320 . S
C37 O35 1.214 . S
O38 Cd30 2.277 . S
O38 C33 1.209 . S
C39 O36 1.258 . S
C39 O41 1.282 . S
O40 Cd32 2.277 . S
O40 C33 1.226 . S
O41 Cd32 2.356 . S
O41 C39 1.282 . S
C42 O43 1.306 . S
C42 O45 1.160 . S
O43 C42 1.306 . S
O43 Cd44 2.228 . S
Cd44 O43 2.228 . S
Cd44 O48 2.273 . S
Cd44 O52 2.277 . S
O45 C42 1.160 . S
O45 Cd46 2.203 . S
Cd46 O45 2.203 . S
Cd46 O48 2.411 . S
Cd46 O49 2.333 . S
Cd46 O50 2.352 . S
Cd46 O54 2.277 . S
Cd46 O55 2.356 . S
C47 O52 1.209 . S
C47 O54 1.226 . S
O48 Cd44 2.273 . S
O48 Cd46 2.411 . S
O48 C51 1.320 . S
O49 Cd46 2.333 . S
O49 C51 1.214 . S
O50 Cd46 2.352 . S
O50 C53 1.258 . S
C51 O48 1.320 . S
C51 O49 1.214 . S
O52 Cd44 2.277 . S
O52 C47 1.209 . S
C53 O50 1.258 . S
C53 O55 1.282 . S
O54 Cd46 2.277 . S
O54 C47 1.226 . S
O55 Cd46 2.356 . S
O55 C53 1.282 . S
C56 O57 1.306 . S
C56 O59 1.160 . S
O57 C56 1.306 . S
O57 Cd58 2.228 . S
Cd58 O57 2.228 . S
Cd58 O62 2.273 . S
Cd58 O66 2.277 . S
O59 C56 1.160 . S
O59 Cd60 2.203 . S
Cd60 O59 2.203 . S
Cd60 O62 2.411 . S
Cd60 O63 2.333 . S
Cd60 O64 2.352 . S
Cd60 O68 2.277 . S
Cd60 O69 2.356 . S
C61 O66 1.209 . S
C61 O68 1.226 . S
O62 Cd58 2.273 . S
O62 Cd60 2.411 . S
O62 C65 1.320 . S
O63 Cd60 2.333 . S
O63 C65 1.214 . S
O64 Cd60 2.352 . S
O64 C67 1.258 . S
C65 O62 1.320 . S
C65 O63 1.214 . S
O66 Cd58 2.277 . S
O66 C61 1.209 . S
C67 O64 1.258 . S
C67 O69 1.282 . S
O68 Cd60 2.277 . S
O68 C61 1.226 . S
O69 Cd60 2.356 . S
O69 C67 1.282 . S
C70 O71 1.306 . S
C70 O73 1.160 . S
O71 C70 1.306 . S
O71 Cd72 2.228 . S
Cd72 O71 2.228 . S
Cd72 O76 2.273 . S
Cd72 O80 2.277 . S
O73 C70 1.160 . S
O73 Cd74 2.203 . S
Cd74 O73 2.203 . S
Cd74 O76 2.411 . S
Cd74 O77 2.333 . S
Cd74 O78 2.352 . S
Cd74 O82 2.277 . S
Cd74 O83 2.356 . S
C75 O80 1.209 . S
C75 O82 1.226 . S
O76 Cd72 2.273 . S
O76 Cd74 2.411 . S
O76 C79 1.320 . S
O77 Cd74 2.333 . S
O77 C79 1.214 . S
O78 Cd74 2.352 . S
O78 C81 1.258 . S
C79 O76 1.320 . S
C79 O77 1.214 . S
O80 Cd72 2.277 . S
O80 C75 1.209 . S
C81 O78 1.258 . S
C81 O83 1.282 . S
O82 Cd74 2.277 . S
O82 C75 1.226 . S
O83 Cd74 2.356 . S
O83 C81 1.282 . S
C84 O85 1.306 . S
C84 O87 1.160 . S
O85 C84 1.306 . S
O85 Cd86 2.228 . S
Cd86 O85 2.228 . S
Cd86 O90 2.273 . S
Cd86 O94 2.277 . S
O87 C84 1.160 . S
O87 Cd88 2.203 . S
Cd88 O87 2.203 . S
Cd88 O90 2.411 . S
Cd88 O91 2.333 . S
Cd88 O92 2.352 . S
Cd88 O96 2.277 . S
Cd88 O97 2.356 . S
C89 O94 1.209 . S
C89 O96 1.226 . S
O90 Cd86 2.273 . S
O90 Cd88 2.411 . S
O90 C93 1.320 . S
O91 Cd88 2.333 . S
O91 C93 1.214 . S
O92 Cd88 2.352 . S
O92 C95 1.258 . S
C93 O90 1.320 . S
C93 O91 1.214 . S
O94 Cd86 2.277 . S
O94 C89 1.209 . S
C95 O92 1.258 . S
C95 O97 1.282 . S
O96 Cd88 2.277 . S
O96 C89 1.226 . S
O97 Cd88 2.356 . S
O97 C95 1.282 . S
C98 O99 1.306 . S
C98 O101 1.160 . S
O99 C98 1.306 . S
O99 Cd100 2.228 . S
Cd100 O99 2.228 . S
Cd100 O104 2.273 . S
Cd100 O108 2.277 . S
O101 C98 1.160 . S
O101 Cd102 2.203 . S
Cd102 O101 2.203 . S
Cd102 O104 2.411 . S
Cd102 O105 2.333 . S
Cd102 O106 2.352 . S
Cd102 O110 2.277 . S
Cd102 O111 2.356 . S
C103 O108 1.209 . S
C103 O110 1.226 . S
O104 Cd100 2.273 . S
O104 Cd102 2.411 . S
O104 C107 1.320 . S
O105 Cd102 2.333 . S
O105 C107 1.214 . S
O106 Cd102 2.352 . S
O106 C109 1.258 . S
C107 O104 1.320 . S
C107 O105 1.214 . S
O108 Cd100 2.277 . S
O108 C103 1.209 . S
C109 O106 1.258 . S
C109 O111 1.282 . S
O110 Cd102 2.277 . S
O110 C103 1.226 . S
O111 Cd102 2.356 . S
O111 C109 1.282 . S
C112 O113 1.306 . S
C112 O115 1.160 . S
O113 C112 1.306 . S
O113 Cd114 2.228 . S
Cd114 O113 2.228 . S
Cd114 O118 2.273 . S
Cd114 O122 2.277 . S
O115 C112 1.160 . S
O115 Cd116 2.203 . S
Cd116 O115 2.203 . S
Cd116 O118 2.411 . S
Cd116 O119 2.333 . S
Cd116 O120 2.352 . S
Cd116 O124 2.277 . S
Cd116 O125 2.356 . S
C117 O122 1.209 . S
C117 O124 1.226 . S
O118 Cd114 2.273 . S
O118 Cd116 2.411 . S
O118 C121 1.320 . S
O119 Cd116 2.333 . S
O119 C121 1.214 . S
O120 Cd116 2.352 . S
O120 C123 1.258 . S
C121 O118 1.320 . S
C121 O119 1.214 . S
O122 Cd114 2.277 . S
O122 C117 1.209 . S
C123 O120 1.258 . S
C123 O125 1.282 . S
O124 Cd116 2.277 . S
O124 C117 1.226 . S
O125 Cd116 2.356 . S
O125 C123 1.282 . S
C126 O127 1.306 . S
C126 O129 1.160 . S
O127 C126 1.306 . S
O127 Cd128 2.228 . S
Cd128 O127 2.228 . S
Cd128 O132 2.273 . S
Cd128 O136 2.277 . S
O129 C126 1.160 . S
O129 Cd130 2.203 . S
Cd130 O129 2.203 . S
Cd130 O132 2.411 . S
Cd130 O133 2.333 . S
Cd130 O134 2.352 . S
Cd130 O138 2.277 . S
Cd130 O139 2.356 . S
C131 O136 1.209 . S
C131 O138 1.226 . S
O132 Cd128 2.273 . S
O132 Cd130 2.411 . S
O132 C135 1.320 . S
O133 Cd130 2.333 . S
O133 C135 1.214 . S
O134 Cd130 2.352 . S
O134 C137 1.258 . S
C135 O132 1.320 . S
C135 O133 1.214 . S
O136 Cd128 2.277 . S
O136 C131 1.209 . S
C137 O134 1.258 . S
C137 O139 1.282 . S
O138 Cd130 2.277 . S
O138 C131 1.226 . S
O139 Cd130 2.356 . S
O139 C137 1.282 . S
C140 O141 1.306 . S
C140 O143 1.160 . S
O141 C140 1.306 . S
O141 Cd142 2.228 . S
Cd142 O141 2.228 . S
Cd142 O146 2.273 . S
Cd142 O150 2.277 . S
O143 C140 1.160 . S
O143 Cd144 2.203 . S
Cd144 O143 2.203 . S
Cd144 O146 2.411 . S
Cd144 O147 2.333 . S
Cd144 O148 2.352 . S
Cd144 O152 2.277 . S
Cd144 O153 2.356 . S
C145 O150 1.209 . S
C145 O152 1.226 . S
O146 Cd142 2.273 . S
O146 Cd144 2.411 . S
O146 C149 1.320 . S
O147 Cd144 2.333 . S
O147 C149 1.214 . S
O148 Cd144 2.352 . S
O148 C151 1.258 . S
C149 O146 1.320 . S
C149 O147 1.214 . S
O150 Cd142 2.277 . S
O150 C145 1.209 . S
C151 O148 1.258 . S
C151 O153 1.282 . S
O152 Cd144 2.277 . S
O152 C145 1.226 . S
O153 Cd144 2.356 . S
O153 C151 1.282 . S
C154 O155 1.306 . S
C154 O157 1.160 . S
O155 C154 1.306 . S
O155 Cd156 2.228 . S
Cd156 O155 2.228 . S
Cd156 O160 2.273 . S
Cd156 O164 2.277 . S
O157 C154 1.160 . S
O157 Cd158 2.203 . S
Cd158 O157 2.203 . S
Cd158 O160 2.411 . S
Cd158 O161 2.333 . S
Cd158 O162 2.352 . S
Cd158 O166 2.277 . S
Cd158 O167 2.356 . S
C159 O164 1.209 . S
C159 O166 1.226 . S
O160 Cd156 2.273 . S
O160 Cd158 2.411 . S
O160 C163 1.320 . S
O161 Cd158 2.333 . S
O161 C163 1.214 . S
O162 Cd158 2.352 . S
O162 C165 1.258 . S
C163 O160 1.320 . S
C163 O161 1.214 . S
O164 Cd156 2.277 . S
O164 C159 1.209 . S
C165 O162 1.258 . S
C165 O167 1.282 . S
O166 Cd158 2.277 . S
O166 C159 1.226 . S
O167 Cd158 2.356 . S
O167 C165 1.282 . S
C168 O169 1.306 . S
C168 O171 1.160 . S
O169 C168 1.306 . S
O169 Cd170 2.228 . S
Cd170 O169 2.228 . S
Cd170 O174 2.273 . S
Cd170 O178 2.277 . S
O171 C168 1.160 . S
O171 Cd172 2.203 . S
Cd172 O171 2.203 . S
Cd172 O174 2.411 . S
Cd172 O175 2.333 . S
Cd172 O176 2.352 . S
Cd172 O180 2.277 . S
Cd172 O181 2.356 . S
C173 O178 1.209 . S
C173 O180 1.226 . S
O174 Cd170 2.273 . S
O174 Cd172 2.411 . S
O174 C177 1.320 . S
O175 Cd172 2.333 . S
O175 C177 1.214 . S
O176 Cd172 2.352 . S
O176 C179 1.258 . S
C177 O174 1.320 . S
C177 O175 1.214 . S
O178 Cd170 2.277 . S
O178 C173 1.209 . S
C179 O176 1.258 . S
C179 O181 1.282 . S
O180 Cd172 2.277 . S
O180 C173 1.226 . S
O181 Cd172 2.356 . S
O181 C179 1.282 . S
C182 O183 1.306 . S
C182 O185 1.160 . S
O183 C182 1.306 . S
O183 Cd184 2.228 . S
Cd184 O183 2.228 . S
Cd184 O188 2.273 . S
Cd184 O192 2.277 . S
O185 C182 1.160 . S
O185 Cd186 2.203 . S
Cd186 O185 2.203 . S
Cd186 O188 2.411 . S
Cd186 O189 2.333 . S
Cd186 O190 2.352 . S
Cd186 O194 2.277 . S
Cd186 O195 2.356 . S
C187 O192 1.209 . S
C187 O194 1.226 . S
O188 Cd184 2.273 . S
O188 Cd186 2.411 . S
O188 C191 1.320 . S
O189 Cd186 2.333 . S
O189 C191 1.214 . S
O190 Cd186 2.352 . S
O190 C193 1.258 . S
C191 O188 1.320 . S
C191 O189 1.214 . S
O192 Cd184 2.277 . S
O192 C187 1.209 . S
C193 O190 1.258 . S
C193 O195 1.282 . S
O194 Cd186 2.277 . S
O194 C187 1.226 . S
O195 Cd186 2.356 . S
O195 C193 1.282 . S
C196 O197 1.306 . S
C196 O199 1.160 . S
O197 C196 1.306 . S
O197 Cd198 2.228 . S
Cd198 O197 2.228 . S
Cd198 O202 2.273 . S
Cd198 O206 2.277 . S
O199 C196 1.160 . S
O199 Cd200 2.203 . S
Cd200 O199 2.203 . S
Cd200 O202 2.411 . S
Cd200 O203 2.333 . S
Cd200 O204 2.352 . S
Cd200 O208 2.277 . S
Cd200 O209 2.356 . S
C201 O206 1.209 . S
C201 O208 1.226 . S
O202 Cd198 2.273 . S
O202 Cd200 2.411 . S
O202 C205 1.320 . S
O203 Cd200 2.333 . S
O203 C205 1.214 . S
O204 Cd200 2.352 . S
O204 C207 1.258 . S
C205 O202 1.320 . S
C205 O203 1.214 . S
O206 Cd198 2.277 . S
O206 C201 1.209 . S
C207 O204 1.258 . S
C207 O209 1.282 . S
O208 Cd200 2.277 . S
O208 C201 1.226 . S
O209 Cd200 2.356 . S
O209 C207 1.282 . S
C210 O211 1.306 . S
C210 O213 1.160 . S
O211 C210 1.306 . S
O211 Cd212 2.228 . S
Cd212 O211 2.228 . S
Cd212 O216 2.273 . S
Cd212 O220 2.277 . S
O213 C210 1.160 . S
O213 Cd214 2.203 . S
Cd214 O213 2.203 . S
Cd214 O216 2.411 . S
Cd214 O217 2.333 . S
Cd214 O218 2.352 . S
Cd214 O222 2.277 . S
Cd214 O223 2.356 . S
C215 O220 1.209 . S
C215 O222 1.226 . S
O216 Cd212 2.273 . S
O216 Cd214 2.411 . S
O216 C219 1.320 . S
O217 Cd214 2.333 . S
O217 C219 1.214 . S
O218 Cd214 2.352 . S
O218 C221 1.258 . S
C219 O216 1.320 . S
C219 O217 1.214 . S
O220 Cd212 2.277 . S
O220 C215 1.209 . S
C221 O218 1.258 . S
C221 O223 1.282 . S
O222 Cd214 2.277 . S
O222 C215 1.226 . S
O223 Cd214 2.356 . S
O223 C221 1.282 . S
C224 C225 1.369 . S
C224 C226 1.419 . S
C224 H228 0.930 . S
C225 C224 1.369 . S
C225 C234 1.429 . S
C226 C224 1.419 . S
C226 C227 1.363 . S
C226 H229 0.929 . S
C227 C226 1.363 . S
C227 C233 1.428 . S
H228 C224 0.930 . S
H229 C226 0.929 . S
S230 N231 1.613 . S
S230 N232 1.610 . S
N231 S230 1.613 . S
N231 C234 1.350 . S
N232 S230 1.610 . S
N232 C233 1.351 . S
C233 C227 1.428 . S
C233 N232 1.351 . S
C233 C234 1.434 . S
C234 C225 1.429 . S
C234 N231 1.350 . S
C234 C233 1.434 . S
C235 C236 1.369 . S
C235 C237 1.419 . S
C235 H239 0.930 . S
C236 C235 1.369 . S
C236 C245 1.429 . S
C237 C235 1.419 . S
C237 C238 1.363 . S
C237 H240 0.929 . S
C238 C237 1.363 . S
C238 C244 1.428 . S
H239 C235 0.930 . S
H240 C237 0.929 . S
S241 N242 1.613 . S
S241 N243 1.610 . S
N242 S241 1.613 . S
N242 C245 1.350 . S
N243 S241 1.610 . S
N243 C244 1.351 . S
C244 C238 1.428 . S
C244 N243 1.351 . S
C244 C245 1.434 . S
C245 C236 1.429 . S
C245 N242 1.350 . S
C245 C244 1.434 . S
C246 C247 1.369 . S
C246 C248 1.419 . S
C246 H250 0.930 . S
C247 C246 1.369 . S
C247 C256 1.429 . S
C248 C246 1.419 . S
C248 C249 1.363 . S
C248 H251 0.929 . S
C249 C248 1.363 . S
C249 C255 1.428 . S
H250 C246 0.930 . S
H251 C248 0.929 . S
S252 N253 1.613 . S
S252 N254 1.610 . S
N253 S252 1.613 . S
N253 C256 1.350 . S
N254 S252 1.610 . S
N254 C255 1.351 . S
C255 C249 1.428 . S
C255 N254 1.351 . S
C255 C256 1.434 . S
C256 C247 1.429 . S
C256 N253 1.350 . S
C256 C255 1.434 . S
C257 C258 1.369 . S
C257 C259 1.419 . S
C257 H261 0.930 . S
C258 C257 1.369 . S
C258 C267 1.429 . S
C259 C257 1.419 . S
C259 C260 1.363 . S
C259 H262 0.929 . S
C260 C259 1.363 . S
C260 C266 1.428 . S
H261 C257 0.930 . S
H262 C259 0.929 . S
S263 N264 1.613 . S
S263 N265 1.610 . S
N264 S263 1.613 . S
N264 C267 1.350 . S
N265 S263 1.610 . S
N265 C266 1.351 . S
C266 C260 1.428 . S
C266 N265 1.351 . S
C266 C267 1.434 . S
C267 C258 1.429 . S
C267 N264 1.350 . S
C267 C266 1.434 . S
C268 C269 1.369 . S
C268 C270 1.419 . S
C268 H272 0.930 . S
C269 C268 1.369 . S
C269 C278 1.429 . S
C270 C268 1.419 . S
C270 C271 1.363 . S
C270 H273 0.929 . S
C271 C270 1.363 . S
C271 C277 1.428 . S
H272 C268 0.930 . S
H273 C270 0.929 . S
S274 N275 1.613 . S
S274 N276 1.610 . S
N275 S274 1.613 . S
N275 C278 1.350 . S
N276 S274 1.610 . S
N276 C277 1.351 . S
C277 C271 1.428 . S
C277 N276 1.351 . S
C277 C278 1.434 . S
C278 C269 1.429 . S
C278 N275 1.350 . S
C278 C277 1.434 . S
C279 C280 1.369 . S
C279 C281 1.419 . S
C279 H283 0.930 . S
C280 C279 1.369 . S
C280 C289 1.429 . S
C281 C279 1.419 . S
C281 C282 1.363 . S
C281 H284 0.929 . S
C282 C281 1.363 . S
C282 C288 1.428 . S
H283 C279 0.930 . S
H284 C281 0.929 . S
S285 N286 1.613 . S
S285 N287 1.610 . S
N286 S285 1.613 . S
N286 C289 1.350 . S
N287 S285 1.610 . S
N287 C288 1.351 . S
C288 C282 1.428 . S
C288 N287 1.351 . S
C288 C289 1.434 . S
C289 C280 1.429 . S
C289 N286 1.350 . S
C289 C288 1.434 . S
C290 C291 1.369 . S
C290 C292 1.419 . S
C290 H294 0.930 . S
C291 C290 1.369 . S
C291 C300 1.429 . S
C292 C290 1.419 . S
C292 C293 1.363 . S
C292 H295 0.929 . S
C293 C292 1.363 . S
C293 C299 1.428 . S
H294 C290 0.930 . S
H295 C292 0.929 . S
S296 N297 1.613 . S
S296 N298 1.610 . S
N297 S296 1.613 . S
N297 C300 1.350 . S
N298 S296 1.610 . S
N298 C299 1.351 . S
C299 C293 1.428 . S
C299 N298 1.351 . S
C299 C300 1.434 . S
C300 C291 1.429 . S
C300 N297 1.350 . S
C300 C299 1.434 . S
C301 C302 1.369 . S
C301 C303 1.419 . S
C301 H305 0.930 . S
C302 C301 1.369 . S
C302 C311 1.429 . S
C303 C301 1.419 . S
C303 C304 1.363 . S
C303 H306 0.929 . S
C304 C303 1.363 . S
C304 C310 1.428 . S
H305 C301 0.930 . S
H306 C303 0.929 . S
S307 N308 1.613 . S
S307 N309 1.610 . S
N308 S307 1.613 . S
N308 C311 1.350 . S
N309 S307 1.610 . S
N309 C310 1.351 . S
C310 C304 1.428 . S
C310 N309 1.351 . S
C310 C311 1.434 . S
C311 C302 1.429 . S
C311 N308 1.350 . S
C311 C310 1.434 . S
C312 C313 1.369 . S
C312 C314 1.419 1_556 S
C312 H316 0.930 . S
C313 C312 1.369 . S
C313 C322 1.429 . S
C314 C312 1.419 1_554 S
C314 C315 1.363 . S
C314 H317 0.929 . S
C315 C314 1.363 . S
C315 C321 1.428 . S
H316 C312 0.930 . S
H317 C314 0.929 . S
S318 N319 1.613 1_554 S
S318 N320 1.610 . S
N319 S318 1.613 1_556 S
N319 C322 1.350 . S
N320 S318 1.610 . S
N320 C321 1.351 . S
C321 C315 1.428 . S
C321 N320 1.351 . S
C321 C322 1.434 1_554 S
C322 C313 1.429 . S
C322 N319 1.350 . S
C322 C321 1.434 1_556 S
C323 C324 1.369 . S
C323 C325 1.419 1_556 S
C323 H327 0.930 . S
C324 C323 1.369 . S
C324 C333 1.429 . S
C325 C323 1.419 1_554 S
C325 C326 1.363 . S
C325 H328 0.929 . S
C326 C325 1.363 . S
C326 C332 1.428 . S
H327 C323 0.930 . S
H328 C325 0.929 . S
S329 N330 1.613 1_554 S
S329 N331 1.610 . S
N330 S329 1.613 1_556 S
N330 C333 1.350 . S
N331 S329 1.610 . S
N331 C332 1.351 . S
C332 C326 1.428 . S
C332 N331 1.351 . S
C332 C333 1.434 1_554 S
C333 C324 1.429 . S
C333 N330 1.350 . S
C333 C332 1.434 1_556 S
C334 C335 1.369 . S
C334 C336 1.419 1_556 S
C334 H338 0.930 . S
C335 C334 1.369 . S
C335 C344 1.429 . S
C336 C334 1.419 1_554 S
C336 C337 1.363 . S
C336 H339 0.929 . S
C337 C336 1.363 . S
C337 C343 1.428 . S
H338 C334 0.930 . S
H339 C336 0.929 . S
S340 N341 1.613 1_554 S
S340 N342 1.610 . S
N341 S340 1.613 1_556 S
N341 C344 1.350 . S
N342 S340 1.610 . S
N342 C343 1.351 . S
C343 C337 1.428 . S
C343 N342 1.351 . S
C343 C344 1.434 1_554 S
C344 C335 1.429 . S
C344 N341 1.350 . S
C344 C343 1.434 1_556 S
C345 C346 1.369 . S
C345 C347 1.419 1_554 S
C345 H349 0.930 . S
C346 C345 1.369 . S
C346 C355 1.429 . S
C347 C345 1.419 1_556 S
C347 C348 1.363 . S
C347 H350 0.929 . S
C348 C347 1.363 . S
C348 C354 1.428 . S
H349 C345 0.930 . S
H350 C347 0.929 . S
S351 N352 1.613 . S
S351 N353 1.610 1_554 S
N352 S351 1.613 . S
N352 C355 1.350 . S
N353 S351 1.610 1_556 S
N353 C354 1.351 . S
C354 C348 1.428 . S
C354 N353 1.351 . S
C354 C355 1.434 1_556 S
C355 C346 1.429 . S
C355 N352 1.350 . S
C355 C354 1.434 1_554 S
C356 C357 1.369 . S
C356 C358 1.419 1_455 S
C356 H360 0.930 . S
C357 C356 1.369 . S
C357 C366 1.429 . S
C358 C356 1.419 1_655 S
C358 C359 1.363 . S
C358 H361 0.929 . S
C359 C358 1.363 . S
C359 C365 1.428 . S
H360 C356 0.930 . S
H361 C358 0.929 . S
S362 N363 1.613 1_655 S
S362 N364 1.610 . S
N363 S362 1.613 1_455 S
N363 C366 1.350 . S
N364 S362 1.610 . S
N364 C365 1.351 . S
C365 C359 1.428 . S
C365 N364 1.351 . S
C365 C366 1.434 1_655 S
C366 C357 1.429 . S
C366 N363 1.350 . S
C366 C365 1.434 1_455 S
C367 C368 1.369 . S
C367 C369 1.419 1_565 S
C367 H371 0.930 . S
C368 C367 1.369 . S
C368 C377 1.429 . S
C369 C367 1.419 1_545 S
C369 C370 1.363 . S
C369 H372 0.929 . S
C370 C369 1.363 . S
C370 C376 1.428 . S
H371 C367 0.930 . S
H372 C369 0.929 . S
S373 N374 1.613 1_545 S
S373 N375 1.610 . S
N374 S373 1.613 1_565 S
N374 C377 1.350 . S
N375 S373 1.610 . S
N375 C376 1.351 . S
C376 C370 1.428 . S
C376 N375 1.351 . S
C376 C377 1.434 1_545 S
C377 C368 1.429 . S
C377 N374 1.350 . S
C377 C376 1.434 1_565 S
C378 C379 1.369 . S
C378 C380 1.419 1_655 S
C378 H382 0.930 . S
C379 C378 1.369 . S
C379 C388 1.429 . S
C380 C378 1.419 1_455 S
C380 C381 1.363 . S
C380 H383 0.929 . S
C381 C380 1.363 . S
C381 C387 1.428 . S
H382 C378 0.930 . S
H383 C380 0.929 . S
S384 N385 1.613 1_455 S
S384 N386 1.610 . S
N385 S384 1.613 1_655 S
N385 C388 1.350 . S
N386 S384 1.610 . S
N386 C387 1.351 . S
C387 C381 1.428 . S
C387 N386 1.351 . S
C387 C388 1.434 1_455 S
C388 C379 1.429 . S
C388 N385 1.350 . S
C388 C387 1.434 1_655 S
C389 C390 1.369 . S
C389 C391 1.419 1_545 S
C389 H393 0.930 . S
C390 C389 1.369 . S
C390 C399 1.429 . S
C391 C389 1.419 1_565 S
C391 C392 1.363 . S
C391 H394 0.929 . S
C392 C391 1.363 . S
C392 C398 1.428 . S
H393 C389 0.930 . S
H394 C391 0.929 . S
S395 N396 1.593 1_565 S
S395 N397 1.631 . S
N396 S395 1.593 1_545 S
N396 C399 1.350 . S
N397 S395 1.631 . S
N397 C398 1.351 . S
C398 C392 1.428 . S
C398 N397 1.351 . S
C398 C399 1.434 1_565 S
C399 C390 1.429 . S
C399 N396 1.350 . S
C399 C398 1.434 1_545 S
C400 C401 1.369 . S
C400 C402 1.419 1_655 S
C400 H404 0.930 . S
C401 C400 1.369 . S
C401 C410 1.429 . S
C402 C400 1.419 1_455 S
C402 C403 1.363 . S
C402 H405 0.929 . S
C403 C402 1.363 . S
C403 C409 1.428 . S
H404 C400 0.930 . S
H405 C402 0.929 . S
S406 N407 1.613 . S
S406 N408 1.610 1_655 S
N407 S406 1.613 . S
N407 C410 1.350 . S
N408 S406 1.610 1_455 S
N408 C409 1.351 . S
C409 C403 1.428 . S
C409 N408 1.351 . S
C409 C410 1.434 1_455 S
C410 C401 1.429 . S
C410 N407 1.350 . S
C410 C409 1.434 1_655 S
C411 C412 1.369 . S
C411 C413 1.419 1_565 S
C411 H415 0.930 . S
C412 C411 1.369 . S
C412 C421 1.429 . S
C413 C411 1.419 1_545 S
C413 C414 1.363 . S
C413 H416 0.929 . S
C414 C413 1.363 . S
C414 C420 1.428 . S
H415 C411 0.930 . S
H416 C413 0.929 . S
S417 N418 1.613 1_545 S
S417 N419 1.610 . S
N418 S417 1.613 1_565 S
N418 C421 1.350 . S
N419 S417 1.610 . S
N419 C420 1.351 . S
C420 C414 1.428 . S
C420 N419 1.351 . S
C420 C421 1.434 1_545 S
C421 C412 1.429 . S
C421 N418 1.350 . S
C421 C420 1.434 1_565 S
C422 C423 1.369 . S
C422 C424 1.419 1_455 S
C422 H426 0.930 . S
C423 C422 1.369 . S
C423 C432 1.429 . S
C424 C422 1.419 1_655 S
C424 C425 1.363 . S
C424 H427 0.929 . S
C425 C424 1.363 . S
C425 C431 1.428 . S
H426 C422 0.930 . S
H427 C424 0.929 . S
S428 N429 1.613 1_655 S
S428 N430 1.610 . S
N429 S428 1.613 1_455 S
N429 C432 1.350 . S
N430 S428 1.610 . S
N430 C431 1.351 . S
C431 C425 1.428 . S
C431 N430 1.351 . S
C431 C432 1.434 1_655 S
C432 C423 1.429 . S
C432 N429 1.350 . S
C432 C431 1.434 1_455 S
C433 C434 1.369 . S
C433 C435 1.419 1_565 S
C433 H437 0.930 . S
C434 C433 1.369 . S
C434 C443 1.429 . S
C435 C433 1.419 1_545 S
C435 C436 1.363 . S
C435 H438 0.929 . S
C436 C435 1.363 . S
C436 C442 1.428 . S
H437 C433 0.930 . S
H438 C435 0.929 . S
S439 N440 1.613 1_545 S
S439 N441 1.610 . S
N440 S439 1.613 1_565 S
N440 C443 1.350 . S
N441 S439 1.610 . S
N441 C442 1.351 . S
C442 C436 1.428 . S
C442 N441 1.351 . S
C442 C443 1.434 1_545 S
C443 C434 1.429 . S
C443 N440 1.350 . S
C443 C442 1.434 1_565 S
C444 C445 1.369 . S
C444 C446 1.419 . S
C444 H448 0.930 . S
C445 C444 1.369 . S
C445 C454 1.429 . S
C446 C444 1.419 . S
C446 C447 1.363 . S
C446 H449 0.929 . S
C447 C446 1.363 . S
C447 C453 1.428 . S
H448 C444 0.930 . S
H449 C446 0.929 . S
S450 N451 1.613 . S
S450 N452 1.610 . S
N451 S450 1.613 . S
N451 C454 1.350 . S
N452 S450 1.610 . S
N452 C453 1.351 . S
C453 C447 1.428 . S
C453 N452 1.351 . S
C453 C454 1.434 . S
C454 C445 1.429 . S
C454 N451 1.350 . S
C454 C453 1.434 . S
C455 C456 1.369 . S
C455 C457 1.419 . S
C455 H459 0.930 . S
C456 C455 1.369 . S
C456 C465 1.429 . S
C457 C455 1.419 . S
C457 C458 1.363 . S
C457 H460 0.929 . S
C458 C457 1.363 . S
C458 C464 1.428 . S
H459 C455 0.930 . S
H460 C457 0.929 . S
S461 N462 1.613 . S
S461 N463 1.610 . S
N462 S461 1.613 . S
N462 C465 1.350 . S
N463 S461 1.610 . S
N463 C464 1.351 . S
C464 C458 1.428 . S
C464 N463 1.351 . S
C464 C465 1.434 . S
C465 C456 1.429 . S
C465 N462 1.350 . S
C465 C464 1.434 . S
C466 C467 1.369 . S
C466 C468 1.419 . S
C466 H470 0.930 . S
C467 C466 1.369 . S
C467 C476 1.429 . S
C468 C466 1.419 . S
C468 C469 1.363 . S
C468 H471 0.929 . S
C469 C468 1.363 . S
C469 C475 1.428 . S
H470 C466 0.930 . S
H471 C468 0.929 . S
S472 N473 1.613 . S
S472 N474 1.610 . S
N473 S472 1.613 . S
N473 C476 1.350 . S
N474 S472 1.610 . S
N474 C475 1.351 . S
C475 C469 1.428 . S
C475 N474 1.351 . S
C475 C476 1.434 . S
C476 C467 1.429 . S
C476 N473 1.350 . S
C476 C475 1.434 . S
C477 C478 1.369 . S
C477 C479 1.419 . S
C477 H481 0.930 . S
C478 C477 1.369 . S
C478 C487 1.429 . S
C479 C477 1.419 . S
C479 C480 1.363 . S
C479 H482 0.929 . S
C480 C479 1.363 . S
C480 C486 1.428 . S
H481 C477 0.930 . S
H482 C479 0.929 . S
S483 N484 1.613 . S
S483 N485 1.610 . S
N484 S483 1.613 . S
N484 C487 1.350 . S
N485 S483 1.610 . S
N485 C486 1.351 . S
C486 C480 1.428 . S
C486 N485 1.351 . S
C486 C487 1.434 . S
C487 C478 1.429 . S
C487 N484 1.350 . S
C487 C486 1.434 . S
C488 C489 1.369 . S
C488 C490 1.419 . S
C488 H492 0.930 . S
C489 C488 1.369 . S
C489 C498 1.429 . S
C490 C488 1.419 . S
C490 C491 1.363 . S
C490 H493 0.929 . S
C491 C490 1.363 . S
C491 C497 1.428 . S
H492 C488 0.930 . S
H493 C490 0.929 . S
S494 N495 1.613 . S
S494 N496 1.610 . S
N495 S494 1.613 . S
N495 C498 1.350 . S
N496 S494 1.610 . S
N496 C497 1.351 . S
C497 C491 1.428 . S
C497 N496 1.351 . S
C497 C498 1.434 . S
C498 C489 1.429 . S
C498 N495 1.350 . S
C498 C497 1.434 . S
C499 C500 1.369 . S
C499 C501 1.419 . S
C499 H503 0.930 . S
C500 C499 1.369 . S
C500 C509 1.429 . S
C501 C499 1.419 . S
C501 C502 1.363 . S
C501 H504 0.929 . S
C502 C501 1.363 . S
C502 C508 1.428 . S
H503 C499 0.930 . S
H504 C501 0.929 . S
S505 N506 1.613 . S
S505 N507 1.610 . S
N506 S505 1.613 . S
N506 C509 1.350 . S
N507 S505 1.610 . S
N507 C508 1.351 . S
C508 C502 1.428 . S
C508 N507 1.351 . S
C508 C509 1.434 . S
C509 C500 1.429 . S
C509 N506 1.350 . S
C509 C508 1.434 . S
C510 C511 1.369 . S
C510 C512 1.419 . S
C510 H514 0.930 . S
C511 C510 1.369 . S
C511 C520 1.429 . S
C512 C510 1.419 . S
C512 C513 1.363 . S
C512 H515 0.929 . S
C513 C512 1.363 . S
C513 C519 1.428 . S
H514 C510 0.930 . S
H515 C512 0.929 . S
S516 N517 1.613 . S
S516 N518 1.610 . S
N517 S516 1.613 . S
N517 C520 1.350 . S
N518 S516 1.610 . S
N518 C519 1.351 . S
C519 C513 1.428 . S
C519 N518 1.351 . S
C519 C520 1.434 . S
C520 C511 1.429 . S
C520 N517 1.350 . S
C520 C519 1.434 . S
C521 C522 1.369 . S
C521 C523 1.419 . S
C521 H525 0.930 . S
C522 C521 1.369 . S
C522 C531 1.429 . S
C523 C521 1.419 . S
C523 C524 1.363 . S
C523 H526 0.929 . S
C524 C523 1.363 . S
C524 C530 1.428 . S
H525 C521 0.930 . S
H526 C523 0.929 . S
S527 N528 1.613 . S
S527 N529 1.610 . S
N528 S527 1.613 . S
N528 C531 1.350 . S
N529 S527 1.610 . S
N529 C530 1.351 . S
C530 C524 1.428 . S
C530 N529 1.351 . S
C530 C531 1.434 . S
C531 C522 1.429 . S
C531 N528 1.350 . S
C531 C530 1.434 . S
C532 C533 1.369 . S
C532 C534 1.419 . S
C532 H536 0.930 . S
C533 C532 1.369 . S
C533 C542 1.429 . S
C534 C532 1.419 . S
C534 C535 1.363 . S
C534 H537 0.929 . S
C535 C534 1.363 . S
C535 C541 1.428 . S
H536 C532 0.930 . S
H537 C534 0.929 . S
S538 N539 1.613 . S
S538 N540 1.610 . S
N539 S538 1.613 . S
N539 C542 1.350 . S
N540 S538 1.610 . S
N540 C541 1.351 . S
C541 C535 1.428 . S
C541 N540 1.351 . S
C541 C542 1.434 . S
C542 C533 1.429 . S
C542 N539 1.350 . S
C542 C541 1.434 . S
C543 C544 1.369 . S
C543 C545 1.419 . S
C543 H547 0.930 . S
C544 C543 1.369 . S
C544 C553 1.429 . S
C545 C543 1.419 . S
C545 C546 1.363 . S
C545 H548 0.929 . S
C546 C545 1.363 . S
C546 C552 1.428 . S
H547 C543 0.930 . S
H548 C545 0.929 . S
S549 N550 1.613 . S
S549 N551 1.610 . S
N550 S549 1.613 . S
N550 C553 1.350 . S
N551 S549 1.610 . S
N551 C552 1.351 . S
C552 C546 1.428 . S
C552 N551 1.351 . S
C552 C553 1.434 . S
C553 C544 1.429 . S
C553 N550 1.350 . S
C553 C552 1.434 . S
C554 C555 1.369 . S
C554 C556 1.419 . S
C554 H558 0.930 . S
C555 C554 1.369 . S
C555 C564 1.429 . S
C556 C554 1.419 . S
C556 C557 1.363 . S
C556 H559 0.929 . S
C557 C556 1.363 . S
C557 C563 1.428 . S
H558 C554 0.930 . S
H559 C556 0.929 . S
S560 N561 1.613 . S
S560 N562 1.610 . S
N561 S560 1.613 . S
N561 C564 1.350 . S
N562 S560 1.610 . S
N562 C563 1.351 . S
C563 C557 1.428 . S
C563 N562 1.351 . S
C563 C564 1.434 . S
C564 C555 1.429 . S
C564 N561 1.350 . S
C564 C563 1.434 . S
C565 C566 1.369 . S
C565 C567 1.419 . S
C565 H569 0.930 . S
C566 C565 1.369 . S
C566 C575 1.429 . S
C567 C565 1.419 . S
C567 C568 1.363 . S
C567 H570 0.929 . S
C568 C567 1.363 . S
C568 C574 1.428 . S
H569 C565 0.930 . S
H570 C567 0.929 . S
S571 N572 1.613 . S
S571 N573 1.610 . S
N572 S571 1.613 . S
N572 C575 1.350 . S
N573 S571 1.610 . S
N573 C574 1.351 . S
C574 C568 1.428 . S
C574 N573 1.351 . S
C574 C575 1.434 . S
C575 C566 1.429 . S
C575 N572 1.350 . S
C575 C574 1.434 . S
C225 C221 1.202 . S
C227 C11 1.203 . S
C236 C179 1.198 . S
C238 C25 1.200 . S
C247 C39 1.204 . S
C249 C193 1.202 . S
C258 C207 1.198 . S
C260 C53 1.199 . S
C269 C137 1.204 . S
C271 C67 1.201 . S
C280 C81 1.202 . S
C282 C151 1.203 . S
C291 C95 1.199 . S
C293 C165 1.199 . S
C302 C109 1.200 . S
C304 C123 1.199 . S
C313 C79 1.512 . S
C315 C5 1.560 . S
C324 C89 1.560 . S
C326 C23 1.508 . S
C335 C107 1.513 . S
C337 C33 1.559 . S
C346 C51 1.507 . S
C348 C61 1.560 . S
C357 C0 1.559 . S
C359 C14 1.556 . S
C368 C37 1.512 . S
C370 C19 1.560 . S
C379 C28 1.558 . S
C381 C42 1.558 . S
C390 C9 1.510 . S
C392 C47 1.560 . S
C401 C98 1.551 . S
C403 C56 1.555 . S
C412 C65 1.511 . S
C414 C75 1.560 . S
C423 C70 1.559 . S
C425 C84 1.556 . S
C434 C103 1.560 . S
C436 C93 1.510 . S
C445 C191 1.507 . S
C447 C117 1.560 . S
C456 C135 1.512 . S
C458 C201 1.559 . S
C467 C219 1.511 . S
C469 C145 1.560 . S
C478 C173 1.560 . S
C480 C163 1.510 . S
C489 C112 1.554 . S
C491 C126 1.558 . S
C500 C131 1.560 . S
C502 C149 1.508 . S
C511 C154 1.557 . S
C513 C140 1.558 . S
C522 C121 1.514 . S
C524 C159 1.559 . S
C533 C210 1.556 . S
C535 C168 1.558 . S
C544 C177 1.506 . S
C546 C187 1.560 . S
C555 C182 1.559 . S
C557 C196 1.556 . S
C566 C215 1.559 . S
C568 C205 1.513 . S
