# Generated by pormake.
# Topology tfs, (6)-cn, num edge types: 1
# Building blocks:
#     Node 0, Type 0, BuildingBlock: MIFKUJ_clean_sbu_0, # of connection points: 6
#     Node 1, Type 0, BuildingBlock: MIFKUJ_clean_sbu_0, # of connection points: 6
#     Node 2, Type 0, BuildingBlock: MIFKUJ_clean_sbu_0, # of connection points: 6
#     Node 3, Type 0, BuildingBlock: MIFKUJ_clean_sbu_0, # of connection points: 6
#     Node 4, Type 0, BuildingBlock: MIFKUJ_clean_sbu_0, # of connection points: 6
#     Node 5, Type 0, BuildingBlock: MIFKUJ_clean_sbu_0, # of connection points: 6
#     Edge 6, Type (0, 0), BuildingBlock: KIFKEQ_clean_linker_1, # of connection points: 2
#     Edge 7, Type (0, 0), BuildingBlock: KIFKEQ_clean_linker_1, # of connection points: 2
#     Edge 8, Type (0, 0), BuildingBlock: KIFKEQ_clean_linker_1, # of connection points: 2
#     Edge 9, Type (0, 0), BuildingBlock: KIFKEQ_clean_linker_1, # of connection points: 2
#     Edge 10, Type (0, 0), BuildingBlock: KIFKEQ_clean_linker_1, # of connection points: 2
#     Edge 11, Type (0, 0), BuildingBlock: KIFKEQ_clean_linker_1, # of connection points: 2
#     Edge 12, Type (0, 0), BuildingBlock: KIFKEQ_clean_linker_1, # of connection points: 2
#     Edge 13, Type (0, 0), BuildingBlock: KIFKEQ_clean_linker_1, # of connection points: 2
#     Edge 14, Type (0, 0), BuildingBlock: KIFKEQ_clean_linker_1, # of connection points: 2
#     Edge 15, Type (0, 0), BuildingBlock: KIFKEQ_clean_linker_1, # of connection points: 2
#     Edge 16, Type (0, 0), BuildingBlock: KIFKEQ_clean_linker_1, # of connection points: 2
#     Edge 17, Type (0, 0), BuildingBlock: KIFKEQ_clean_linker_1, # of connection points: 2
#     Edge 18, Type (0, 0), BuildingBlock: KIFKEQ_clean_linker_1, # of connection points: 2
#     Edge 19, Type (0, 0), BuildingBlock: KIFKEQ_clean_linker_1, # of connection points: 2
#     Edge 20, Type (0, 0), BuildingBlock: KIFKEQ_clean_linker_1, # of connection points: 2
#     Edge 21, Type (0, 0), BuildingBlock: KIFKEQ_clean_linker_1, # of connection points: 2
#     Edge 22, Type (0, 0), BuildingBlock: KIFKEQ_clean_linker_1, # of connection points: 2
#     Edge 23, Type (0, 0), BuildingBlock: KIFKEQ_clean_linker_1, # of connection points: 2
# Relax obj value: 0.416
# Max RMSD: 0.244
# Mean RMSD: 0.244
data_MOF--net-tfs--node1-MIFKUJ_clean_sbu_0--edge1-KIFKEQ_clean_linker_1
_symmetry_space_group_name_H-M    P1
_symmetry_Int_Tables_number       1
_symmetry_cell_setting            triclinic
loop_
_symmetry_equiv_pos_as_xyz
'x, y, z'
_cell_length_a     47.879166
_cell_length_b     47.884359
_cell_length_c     14.511782
_cell_angle_alpha  89.889416
_cell_angle_beta   90.005125
_cell_angle_gamma 120.04508
loop_
_atom_site_label
_atom_site_type_symbol
_atom_site_fract_x
_atom_site_fract_y
_atom_site_fract_z
_atom_type_partial_charge
Zn0 Zn 0.21861 0.462 -0.00937 0.0
Zn1 Zn 0.20166 0.37609 0.97669 0.0
C2 C 0.2783 0.50701 0.07752 0.0
O3 O 0.25854 0.51098 0.13155 0.0
C4 C 0.13454 0.33403 0.93586 0.0
O5 O 0.14697 0.33121 0.85809 0.0
O6 O 0.20517 0.4957 0.00395 0.0
O7 O 0.21343 0.44769 0.85984 0.0
O8 O 0.20982 0.39948 0.85622 0.0
C9 C 0.21544 0.51837 0.94488 0.0
O10 O 0.23234 0.5177 0.87443 0.0
O11 O 0.26653 0.48561 0.01501 0.0
C12 C 0.22095 0.33005 0.03288 0.0
O13 O 0.21368 0.33601 0.11509 0.0
O14 O 0.21715 0.34395 0.96313 0.0
O15 O 0.22367 0.40287 0.08741 0.0
O16 O 0.19518 0.42715 0.08356 0.0
O17 O 0.15343 0.35195 -0.00108 0.0
C18 C 0.21253 0.42433 0.81585 0.0
C19 C 0.21332 0.4195 0.12705 0.0
Zn20 Zn 0.75988 0.219 0.94208 0.0
Zn21 Zn 0.82575 0.20003 0.9527 0.0
C22 C 0.79111 0.2815 0.02176 0.0
O23 O 0.77223 0.26475 0.09054 0.0
C24 C 0.80917 0.13378 0.93477 0.0
O25 O 0.82442 0.14484 0.85612 0.0
O26 O 0.71714 0.21765 0.94961 0.0
O27 O 0.76412 0.20319 0.81914 0.0
O28 O 0.80823 0.19881 0.82582 0.0
C29 C 0.68902 0.19322 0.94226 0.0
O30 O 0.68573 0.16479 0.92522 0.0
O31 O 0.79218 0.26651 0.95087 0.0
C32 C 0.89184 0.22266 0.01025 0.0
O33 O 0.87797 0.20956 0.08918 0.0
O34 O 0.87434 0.22139 0.94263 0.0
O35 O 0.81482 0.22182 0.05273 0.0
O36 O 0.76193 0.19457 0.05069 0.0
O37 O 0.80735 0.15334 -0.00977 0.0
C38 C 0.7852 0.19836 0.78079 0.0
C39 C 0.78823 0.20378 0.09321 0.0
Zn40 Zn 0.54916 0.76044 0.97301 0.0
Zn41 Zn 0.63454 0.82628 0.98435 0.0
C42 C 0.51318 0.78805 0.04333 0.0
O43 O 0.5092 0.76804 0.1108 0.0
C44 C 0.68326 0.80873 0.9662 0.0
O45 O 0.68829 0.82512 0.8893 0.0
O46 O 0.50835 0.71721 0.97988 0.0
O47 O 0.56983 0.76492 0.85078 0.0
O48 O 0.61822 0.80921 0.85742 0.0
C49 C 0.50576 0.6902 0.00042 0.0
O50 O 0.53191 0.6884 0.01468 0.0
O51 O 0.53244 0.79156 0.9782 0.0
C52 C 0.67866 0.89276 0.04048 0.0
O53 O 0.67645 0.87972 0.12184 0.0
O54 O 0.66306 0.87467 0.97316 0.0
O55 O 0.60172 0.81634 0.08379 0.0
O56 O 0.57524 0.76341 0.08326 0.0
O57 O 0.66166 0.80657 0.02151 0.0
C58 C 0.59571 0.78617 0.81241 0.0
C59 C 0.59256 0.78977 0.12513 0.0
Zn60 Zn 0.79611 0.54606 0.97244 0.0
Zn61 Zn 0.80972 0.62827 -0.01234 0.0
C62 C 0.7312 0.50576 0.03426 0.0
O63 O 0.74642 0.50153 0.10347 0.0
C64 C 0.87618 0.67727 0.97417 0.0
O65 O 0.86513 0.68393 0.89939 0.0
O66 O 0.80258 0.50767 0.98122 0.0
O67 O 0.81258 0.56811 0.85188 0.0
O68 O 0.81033 0.61343 0.85868 0.0
C69 C 0.82575 0.50454 0.9507 0.0
O70 O 0.84945 0.5285 0.90557 0.0
O71 O 0.74767 0.52615 0.97202 0.0
C72 C 0.78809 0.67219 0.05086 0.0
O73 O 0.79827 0.66839 0.13145 0.0
O74 O 0.79065 0.65755 0.98119 0.0
O75 O 0.78614 0.59451 0.08423 0.0
O76 O 0.8164 0.57209 0.08482 0.0
O77 O 0.85651 0.65444 0.02616 0.0
C78 C 0.81386 0.59264 0.81357 0.0
C79 C 0.80439 0.58677 0.12688 0.0
Zn80 Zn 0.25572 0.79873 -0.01216 0.0
Zn81 Zn 0.1834 0.80639 0.00151 0.0
C82 C 0.23781 0.73518 0.05381 0.0
O83 O 0.25723 0.75191 0.12145 0.0
C84 C 0.20124 0.87252 0.97953 0.0
O85 O 0.18335 0.86028 0.90562 0.0
O86 O 0.30292 0.81225 -0.0052 0.0
O87 O 0.24693 0.81214 0.86647 0.0
O88 O 0.19743 0.80541 0.87259 0.0
C89 C 0.31632 0.80431 0.93266 0.0
O90 O 0.29942 0.7885 0.86009 0.0
O91 O 0.23194 0.75002 -0.00917 0.0
C92 C 0.11735 0.78299 0.06746 0.0
O93 O 0.13087 0.79165 0.14906 0.0
O94 O 0.13497 0.78713 -0.00263 0.0
O95 O 0.19452 0.78364 0.09784 0.0
O96 O 0.24684 0.81699 0.09939 0.0
O97 O 0.20436 0.85366 0.03501 0.0
C98 C 0.22237 0.81056 0.8277 0.0
C99 C 0.22 0.80281 0.14116 0.0
Zn100 Zn 0.45926 0.25248 0.95707 0.0
Zn101 Zn 0.3788 0.18024 0.97089 0.0
C102 C 0.50445 0.23543 0.02709 0.0
O103 O 0.50752 0.25655 0.0898 0.0
C104 C 0.32939 0.1968 0.95117 0.0
O105 O 0.32359 0.17897 0.87713 0.0
O106 O 0.49368 0.29951 0.96354 0.0
O107 O 0.43744 0.24338 0.83504 0.0
O108 O 0.39361 0.19454 0.84165 0.0
C109 C 0.5163 0.31211 0.90446 0.0
O110 O 0.51594 0.29465 0.83424 0.0
O111 O 0.48343 0.22802 0.96419 0.0
C112 C 0.33656 0.11505 0.04046 0.0
O113 O 0.34088 0.12978 0.11991 0.0
O114 O 0.35026 0.13169 0.96888 0.0
O115 O 0.41297 0.19215 0.06663 0.0
O116 O 0.4317 0.24437 0.0676 0.0
O117 O 0.35185 0.2004 0.00525 0.0
C118 C 0.41395 0.2192 0.79651 0.0
C119 C 0.41891 0.21756 0.10958 0.0
H120 H 0.28053 0.19437 0.84778 0.0
H121 H 0.33758 0.23856 0.09137 0.0
H122 H 0.2527 0.22473 0.86959 0.0
H123 H 0.31011 0.26944 0.11216 0.0
H124 H 0.23398 0.29828 0.16815 0.0
H125 H 0.25834 0.26441 0.15114 0.0
H126 H 0.26442 0.28002 0.85677 0.0
H127 H 0.23953 0.31337 0.8735 0.0
C128 C 0.28711 0.21051 0.90615 0.0
C129 C 0.31137 0.21408 0.96767 0.0
C130 C 0.27128 0.2281 0.91829 0.0
C131 C 0.27928 0.2497 -0.00772 0.0
C132 C 0.3031 0.25278 0.05493 0.0
C133 C 0.31897 0.23518 0.04277 0.0
C134 C 0.24035 0.29436 0.09971 0.0
C135 C 0.2348 0.30858 0.02219 0.0
C136 C 0.25452 0.27509 0.09006 0.0
C137 C 0.26341 0.26951 0.00263 0.0
C138 C 0.2575 0.28345 0.92503 0.0
C139 C 0.24338 0.30274 0.93468 0.0
H140 H 0.10055 0.33587 0.08562 0.0
H141 H 0.08802 0.29397 0.81468 0.0
H142 H 0.04208 0.3091 0.10402 0.0
H143 H 0.0297 0.26677 0.83381 0.0
H144 H 0.92812 0.2523 0.85704 0.0
H145 H 0.98656 0.27912 0.84072 0.0
H146 H 0.99472 0.25602 0.12377 0.0
H147 H 0.93625 0.22972 0.1407 0.0
C148 C 0.08535 0.32081 0.03019 0.0
C149 C 0.09902 0.31714 0.94858 0.0
C150 C 0.0518 0.30532 0.04094 0.0
C151 C 0.03113 0.28582 0.97031 0.0
C152 C 0.04486 0.28199 0.88905 0.0
C153 C 0.07836 0.29745 0.87832 0.0
C154 C 0.94234 0.25293 0.91587 0.0
C155 C 0.92744 0.23882 0.00019 0.0
C156 C 0.97588 0.26816 0.90634 0.0
C157 C 0.9954 0.26969 0.98086 0.0
C158 C 0.98048 0.25564 0.06527 0.0
C159 C 0.94691 0.24037 0.0748 0.0
H160 H 0.80777 0.08592 0.82923 0.0
H161 H 0.77229 0.10209 0.08576 0.0
H162 H 0.7777 0.028 0.85728 0.0
H163 H 0.74169 0.04397 0.113 0.0
H164 H 0.71396 0.93871 0.1699 0.0
H165 H 0.74713 0.99692 0.14731 0.0
H166 H 0.72178 0.98511 0.85866 0.0
H167 H 0.68916 0.92703 0.88074 0.0
C168 C 0.79362 0.07715 0.89179 0.0
C169 C 0.79236 0.09869 0.95506 0.0
C170 C 0.77619 0.04388 0.90757 0.0
C171 C 0.75705 0.03127 0.98703 0.0
C172 C 0.75639 0.05286 0.05146 0.0
C173 C 0.77383 0.08619 0.03564 0.0
C174 C 0.71553 0.94853 0.10156 0.0
C175 C 0.6989 0.92815 0.02713 0.0
C176 C 0.73441 0.98193 0.08874 0.0
C177 C 0.7372 0.99573 0.00114 0.0
C178 C 0.72059 0.9753 0.92678 0.0
C179 C 0.70169 0.94196 0.9396 0.0
H180 H 0.76596 0.68608 0.89355 0.0
H181 H 0.77748 0.70584 0.18576 0.0
H182 H 0.74184 0.72008 0.87701 0.0
H183 H 0.75377 0.74039 0.16878 0.0
H184 H 0.67595 0.76909 0.11216 0.0
H185 H 0.70207 0.73694 0.13468 0.0
H186 H 0.75646 0.77639 0.88374 0.0
H187 H 0.73004 0.80801 0.86036 0.0
C188 C 0.76349 0.69778 0.95428 0.0
C189 C 0.77368 0.6932 0.04101 0.0
C190 C 0.74983 0.71748 0.94466 0.0
C191 C 0.74598 0.7331 0.0215 0.0
C192 C 0.75611 0.72848 0.10833 0.0
C193 C 0.76986 0.7088 0.11795 0.0
C194 C 0.69365 0.77106 0.06213 0.0
C195 C 0.70076 0.79101 0.98417 0.0
C196 C 0.70872 0.75272 0.07525 0.0
C197 C 0.7312 0.75389 0.01065 0.0
C198 C 0.73885 0.77446 0.93399 0.0
C199 C 0.72383 0.79278 0.92091 0.0
H200 H 0.08236 0.76383 0.90805 0.0
H201 H 0.07204 0.76893 0.2024 0.0
H202 H 0.02427 0.73935 0.88971 0.0
H203 H 0.01375 0.74485 0.18369 0.0
H204 H 0.90787 0.66726 0.11669 0.0
H205 H 0.96605 0.69356 0.14168 0.0
H206 H 0.98206 0.7531 0.90129 0.0
H207 H 0.92411 0.72652 0.87536 0.0
C208 C 0.06773 0.75987 0.96891 0.0
C209 C 0.08192 0.76838 0.05673 0.0
C210 C 0.03438 0.74601 0.95829 0.0
C211 C 0.01431 0.74025 0.03517 0.0
C212 C 0.02847 0.74868 0.12311 0.0
C213 C 0.06191 0.76265 0.13376 0.0
C214 C 0.9238 0.6861 0.06951 0.0
C215 C 0.91131 0.69464 -0.00631 0.0
C216 C 0.95716 0.70128 0.08408 0.0
C217 C 0.97876 0.72529 0.0231 0.0
C218 C 0.96616 0.73431 0.94866 0.0
C219 C 0.93288 0.71919 0.93414 0.0
H220 H 0.24312 0.90655 0.11943 0.0
H221 H 0.20023 0.91876 0.87171 0.0
H222 H 0.27523 0.96511 0.13624 0.0
H223 H 0.23184 0.97707 0.88938 0.0
H224 H 0.32135 0.07755 0.88614 0.0
H225 H 0.28796 0.01915 0.87525 0.0
H226 H 0.2714 0.01334 0.16904 0.0
H227 H 0.30531 0.07188 0.1803 0.0
C228 C 0.2403 0.92169 0.06907 0.0
C229 C 0.21921 0.90794 -0.00605 0.0
C230 C 0.25861 0.95526 0.07892 0.0
C231 C 0.25629 0.97581 0.01378 0.0
C232 C 0.23465 0.96198 0.93991 0.0
C233 C 0.21635 0.92849 0.93014 0.0
C234 C 0.31061 0.06387 0.94851 0.0
C235 C 0.31602 0.07946 0.0341 0.0
C236 C 0.29127 0.03036 0.94217 0.0
C237 C 0.27686 0.01152 0.02122 0.0
C238 C 0.28236 0.02708 0.10693 0.0
C239 C 0.30167 0.06067 0.11328 0.0
H240 H 0.24617 0.69621 0.17521 0.0
H241 H 0.20529 0.69545 0.90907 0.0
H242 H 0.23514 0.64132 0.14951 0.0
H243 H 0.19398 0.64038 0.88394 0.0
H244 H 0.22933 0.56747 0.82458 0.0
H245 H 0.22895 0.6173 0.85416 0.0
H246 H 0.19297 0.58415 0.12917 0.0
H247 H 0.19361 0.5342 0.09985 0.0
C248 C 0.23433 0.68416 0.11189 0.0
C249 C 0.22691 0.70038 0.04386 0.0
C250 C 0.22785 0.65259 0.09738 0.0
C251 C 0.21392 0.63656 0.01433 0.0
C252 C 0.20514 0.65224 0.9481 0.0
C253 C 0.21147 0.68375 0.9628 0.0
C254 C 0.22096 0.57059 0.89103 0.0
C255 C 0.21167 0.54692 0.95998 0.0
C256 C 0.22054 0.5991 0.90779 0.0
C257 C 0.211 0.60474 -0.00588 0.0
C258 C 0.20073 0.58064 0.06224 0.0
C259 C 0.20092 0.55195 0.04522 0.0
H260 H 0.55413 0.24968 0.14538 0.0
H261 H 0.50881 0.19606 0.89766 0.0
H262 H 0.59702 0.23681 0.1282 0.0
H263 H 0.55211 0.18351 0.88001 0.0
H264 H 0.62495 0.14762 0.92232 0.0
H265 H 0.57817 0.15443 0.94842 0.0
H266 H 0.64192 0.25433 0.01917 0.0
H267 H 0.68836 0.24758 -0.00583 0.0
C268 C 0.55312 0.23488 0.0877 0.0
C269 C 0.52816 0.22415 0.02246 0.0
C270 C 0.57784 0.22767 0.07756 0.0
C271 C 0.57821 0.20951 0.00206 0.0
C272 C 0.55246 0.19745 0.93913 0.0
C273 C 0.5277 0.20474 0.94913 0.0
C274 C 0.62893 0.17101 0.94351 0.0
C275 C 0.66041 0.19703 0.95623 0.0
C276 C 0.60215 0.17492 0.95815 0.0
C277 C 0.60633 0.20485 0.98657 0.0
C278 C 0.63782 0.23081 -0.00108 0.0
C279 C 0.66449 0.22698 0.98382 0.0
H280 H 0.4484 0.6891 0.00954 0.0
H281 H 0.48956 0.62687 0.02372 0.0
H282 H 0.39501 0.64299 0.03683 0.0
H283 H 0.43565 0.58043 0.05102 0.0
H284 H 0.32623 0.50602 0.97661 0.0
H285 H 0.38248 0.54907 0.96314 0.0
H286 H 0.36575 0.60461 0.16703 0.0
H287 H 0.30967 0.5618 0.18069 0.0
C288 C 0.44608 0.66556 0.01825 0.0
C289 C 0.47329 0.66168 0.01436 0.0
C290 C 0.41547 0.63916 0.03469 0.0
C291 C 0.4112 0.60816 0.04689 0.0
C292 C 0.43827 0.60407 0.04176 0.0
C293 C 0.46908 0.63064 0.02631 0.0
C294 C 0.33469 0.52719 0.01965 0.0
C295 C 0.31336 0.5306 0.07907 0.0
C296 C 0.36692 0.55178 0.01208 0.0
C297 C 0.37836 0.58034 0.06316 0.0
C298 C 0.35745 0.58305 0.12575 0.0
C299 C 0.32536 0.55841 0.13393 0.0
H300 H 0.78202 0.45257 0.04991 0.0
H301 H 0.86874 0.48679 0.88705 0.0
H302 H 0.77993 0.40138 0.07271 0.0
H303 H 0.86685 0.43524 0.91133 0.0
H304 H 0.81998 0.32255 0.87585 0.0
H305 H 0.833 0.37862 0.86389 0.0
H306 H 0.80731 0.37693 0.14999 0.0
H307 H 0.79363 0.32074 0.16151 0.0
C308 C 0.80084 0.44929 0.01948 0.0
C309 C 0.82551 0.47381 0.96635 0.0
C310 C 0.7998 0.41996 0.03334 0.0
C311 C 0.82337 0.41426 -0.00552 0.0
C312 C 0.84825 0.43884 0.94185 0.0
C313 C 0.84937 0.46838 0.92818 0.0
C314 C 0.81772 0.33432 0.93674 0.0
C315 C 0.80526 0.31699 0.01927 0.0
C316 C 0.82529 0.36653 0.92991 0.0
C317 C 0.82063 0.38208 0.00553 0.0
C318 C 0.81044 0.36542 0.08984 0.0
C319 C 0.8028 0.33325 0.09659 0.0
H320 H 0.3521 0.79069 0.81355 0.0
H321 H 0.35531 0.83011 0.08354 0.0
H322 H 0.40383 0.79414 0.84278 0.0
H323 H 0.40736 0.83395 0.11222 0.0
H324 H 0.46836 0.78373 0.16759 0.0
H325 H 0.42423 0.7941 0.13997 0.0
H326 H 0.46183 0.83025 0.86811 0.0
H327 H 0.50588 0.81948 0.89522 0.0
C328 C 0.36406 0.80056 0.87861 0.0
C329 C 0.3494 0.80984 0.94647 0.0
C330 C 0.39387 0.80276 0.89513 0.0
C331 C 0.4097 0.81423 0.98001 0.0
C332 C 0.39562 0.82468 0.04654 0.0
C333 C 0.36585 0.82259 0.02988 0.0
C334 C 0.46763 0.7945 0.10257 0.0
C335 C 0.49046 0.8004 0.03325 0.0
C336 C 0.44236 0.80058 0.08686 0.0
C337 C 0.43928 0.81265 0.00138 0.0
C338 C 0.46324 0.82045 0.93414 0.0
C339 C 0.48863 0.81449 0.95 0.0
H340 H 0.68898 0.4598 0.15368 0.0
H341 H 0.69463 0.49929 0.88181 0.0
H342 H 0.63447 0.41637 0.12095 0.0
H343 H 0.63987 0.4559 0.84949 0.0
H344 H 0.56764 0.34688 0.78983 0.0
H345 H 0.6168 0.39751 0.82297 0.0
H346 H 0.57824 0.40172 0.08829 0.0
H347 H 0.52909 0.35085 0.05561 0.0
C348 C 0.67838 0.4596 0.08758 0.0
C349 C 0.69633 0.48287 0.02009 0.0
C350 C 0.64702 0.43474 0.06895 0.0
C351 C 0.63293 0.43249 0.98225 0.0
C352 C 0.65024 0.45672 0.91646 0.0
C353 C 0.68154 0.48171 0.93529 0.0
C354 C 0.56944 0.35878 0.85477 0.0
C355 C 0.54451 0.34466 0.92029 0.0
C356 C 0.59756 0.38794 0.87355 0.0
C357 C 0.6015 0.4036 0.95847 0.0
C358 C 0.57608 0.39007 0.02266 0.0
C359 C 0.54786 0.361 0.00367 0.0
H360 H 0.20759 0.37781 0.69795 0.0
H361 H 0.22343 0.47505 0.70461 0.0
H362 H 0.21179 0.38063 0.53111 0.0
H363 H 0.22824 0.47796 0.53716 0.0
H364 H 0.18976 0.44909 0.23714 0.0
H365 H 0.19253 0.45301 0.40447 0.0
H366 H 0.25163 0.40825 0.40926 0.0
H367 H 0.24827 0.40358 0.24211 0.0
C368 C 0.21217 0.39987 0.66394 0.0
C369 C 0.21508 0.42617 0.71456 0.0
C370 C 0.21485 0.40156 0.56836 0.0
C371 C 0.22057 0.4296 0.52136 0.0
C372 C 0.22361 0.45598 0.57175 0.0
C373 C 0.22088 0.45429 0.66755 0.0
C374 C 0.20358 0.44034 0.27383 0.0
C375 C 0.21829 0.42547 0.22675 0.0
C376 C 0.20534 0.4428 0.36957 0.0
C377 C 0.22196 0.43056 0.41974 0.0
C378 C 0.23812 0.41729 0.37226 0.0
C379 C 0.2363 0.41475 0.2766 0.0
H380 H 0.82552 0.18701 0.67375 0.0
H381 H 0.7413 0.1981 0.66019 0.0
H382 H 0.82527 0.18285 0.50636 0.0
H383 H 0.74153 0.19454 0.49332 0.0
H384 H 0.83916 0.22749 0.21236 0.0
H385 H 0.83705 0.22104 0.37914 0.0
H386 H 0.73367 0.15832 0.36532 0.0
H387 H 0.73562 0.16525 0.19878 0.0
C388 C 0.80685 0.18837 0.63525 0.0
C389 C 0.78359 0.19318 0.68027 0.0
C390 C 0.80681 0.18609 0.53943 0.0
C391 C 0.78349 0.18851 0.4869 0.0
C392 C 0.75959 0.19219 0.53208 0.0
C393 C 0.7596 0.19446 0.62775 0.0
C394 C 0.81603 0.21207 0.2448 0.0
C395 C 0.7875 0.19729 0.19269 0.0
C396 C 0.81486 0.20819 0.34024 0.0
C397 C 0.78515 0.18938 0.38518 0.0
C398 C 0.75683 0.1734 0.33256 0.0
C399 C 0.75798 0.17732 0.23723 0.0
H400 H 0.64723 0.827 0.70516 0.0
H401 H 0.55217 0.74225 0.69186 0.0
H402 H 0.65105 0.82709 0.53765 0.0
H403 H 0.55588 0.74282 0.52496 0.0
H404 H 0.61963 0.84076 0.2441 0.0
H405 H 0.62429 0.83865 0.41084 0.0
H406 H 0.58446 0.73542 0.39671 0.0
H407 H 0.57914 0.73735 0.2304 0.0
C408 C 0.62725 0.80828 0.66669 0.0
C409 C 0.59926 0.78476 0.71181 0.0
C410 C 0.62943 0.80844 0.57082 0.0
C411 C 0.60373 0.78506 0.51839 0.0
C412 C 0.57625 0.76092 0.56364 0.0
C413 C 0.57405 0.76074 0.65935 0.0
C414 C 0.61219 0.81767 0.27649 0.0
C415 C 0.59855 0.78916 0.22444 0.0
C416 C 0.61506 0.8165 0.37187 0.0
C417 C 0.60446 0.78682 0.4167 0.0
C418 C 0.59229 0.75855 0.36405 0.0
C419 C 0.58932 0.75969 0.26885 0.0
H420 H 0.81721 0.64121 0.7059 0.0
H421 H 0.82016 0.55244 0.69316 0.0
H422 H 0.81978 0.64473 0.53821 0.0
H423 H 0.8221 0.55575 0.52619 0.0
H424 H 0.77513 0.60824 0.24625 0.0
H425 H 0.78228 0.61407 0.41284 0.0
H426 H 0.85577 0.58701 0.39685 0.0
H427 H 0.84819 0.5805 0.23096 0.0
C428 C 0.81862 0.62258 0.66751 0.0
C429 C 0.81821 0.59638 0.71284 0.0
C430 C 0.81996 0.62457 0.57156 0.0
C431 C 0.82101 0.60048 0.51931 0.0
C432 C 0.82171 0.57491 0.56473 0.0
C433 C 0.82038 0.5729 0.66048 0.0
C434 C 0.79303 0.60387 0.27826 0.0
C435 C 0.81072 0.59342 0.22592 0.0
C436 C 0.79728 0.60741 0.37349 0.0
C437 C 0.81938 0.6007 0.41772 0.0
C438 C 0.83815 0.59177 0.36468 0.0
C439 C 0.83382 0.58811 0.26972 0.0
H440 H 0.26828 0.84809 0.24671 0.0
H441 H 0.16941 0.76987 0.25934 0.0
H442 H 0.26845 0.85432 0.41295 0.0
H443 H 0.16987 0.7758 0.42632 0.0
H444 H 0.26948 0.81848 0.7071 0.0
H445 H 0.26794 0.82024 0.54008 0.0
H446 H 0.17412 0.81247 0.55257 0.0
H447 H 0.17527 0.81016 0.72022 0.0
C448 C 0.24653 0.83231 0.28497 0.0
C449 C 0.21895 0.80818 0.24038 0.0
C450 C 0.2467 0.83588 0.38005 0.0
C451 C 0.21932 0.81532 0.43229 0.0
C452 C 0.19124 0.79212 0.38741 0.0
C453 C 0.19103 0.7886 0.29204 0.0
C454 C 0.24862 0.81741 0.67449 0.0
C455 C 0.2224 0.81394 0.72687 0.0
C456 C 0.24784 0.81863 0.57881 0.0
C457 C 0.22089 0.81649 0.53368 0.0
C458 C 0.19502 0.81383 0.58588 0.0
C459 C 0.19578 0.81262 0.68173 0.0
H460 H 0.36687 0.17251 0.68901 0.0
H461 H 0.45346 0.26627 0.67588 0.0
H462 H 0.3633 0.17166 0.5214 0.0
H463 H 0.45003 0.26503 0.50888 0.0
H464 H 0.42249 0.266 0.21568 0.0
H465 H 0.41659 0.2661 0.38212 0.0
H466 H 0.39545 0.16721 0.39455 0.0
H467 H 0.4008 0.16683 0.22755 0.0
C468 C 0.38505 0.19298 0.65054 0.0
C469 C 0.41059 0.21939 0.69568 0.0
C470 C 0.38301 0.1924 0.55469 0.0
C471 C 0.40638 0.21823 0.50247 0.0
C472 C 0.43142 0.24497 0.54762 0.0
C473 C 0.43349 0.24556 0.64328 0.0
C474 C 0.41632 0.24417 0.25379 0.0
C475 C 0.41252 0.21652 0.20891 0.0
C476 C 0.413 0.24429 0.34899 0.0
C477 C 0.40591 0.21679 0.40102 0.0
C478 C 0.40069 0.18866 0.35584 0.0
C479 C 0.40394 0.18851 0.26042 0.0
loop_
_geom_bond_atom_site_label_1
_geom_bond_atom_site_label_2
_geom_bond_distance
_geom_bond_site_symmetry_2
_ccdc_geom_bond_type
Zn0 O6 1.969 . S
Zn0 O7 1.965 1_554 S
Zn0 O11 2.024 1_554 S
Zn0 O16 1.969 . S
Zn1 O8 1.969 . S
Zn1 O14 1.969 . S
Zn1 O15 1.965 1_556 S
Zn1 O17 2.024 1_556 S
C2 O3 1.229 . S
C2 O11 1.058 1_554 S
O3 C2 1.229 . S
C4 O5 1.229 . S
C4 O17 1.058 1_556 S
O5 C4 1.229 . S
O6 Zn0 1.969 . S
O6 C9 1.267 1_554 S
O7 Zn0 1.965 1_556 S
O7 C18 1.260 . S
O8 Zn1 1.969 . S
O8 C18 1.258 . S
C9 O6 1.267 1_556 S
C9 O10 1.228 . S
O10 C9 1.228 . S
O11 Zn0 2.024 1_556 S
O11 C2 1.058 1_556 S
C12 O13 1.228 . S
C12 O14 1.267 1_554 S
O13 C12 1.228 . S
O14 Zn1 1.969 . S
O14 C12 1.267 1_556 S
O15 Zn1 1.965 1_554 S
O15 C19 1.260 . S
O16 Zn0 1.969 . S
O16 C19 1.258 . S
O17 Zn1 2.024 1_554 S
O17 C4 1.058 1_554 S
C18 O7 1.260 . S
C18 O8 1.258 . S
C19 O15 1.260 . S
C19 O16 1.258 . S
Zn20 O26 1.969 . S
Zn20 O27 1.965 1_554 S
Zn20 O31 2.024 1_554 S
Zn20 O36 1.969 . S
Zn21 O28 1.969 . S
Zn21 O34 1.969 . S
Zn21 O35 1.965 1_556 S
Zn21 O37 2.024 1_556 S
C22 O23 1.229 . S
C22 O31 1.058 1_554 S
O23 C22 1.229 . S
C24 O25 1.229 . S
C24 O37 1.058 1_556 S
O25 C24 1.229 . S
O26 Zn20 1.969 . S
O26 C29 1.267 1_554 S
O27 Zn20 1.965 1_556 S
O27 C38 1.260 . S
O28 Zn21 1.969 . S
O28 C38 1.258 . S
C29 O26 1.267 1_556 S
C29 O30 1.228 . S
O30 C29 1.228 . S
O31 Zn20 2.024 1_556 S
O31 C22 1.058 1_556 S
C32 O33 1.228 . S
C32 O34 1.267 1_554 S
O33 C32 1.228 . S
O34 Zn21 1.969 . S
O34 C32 1.267 1_556 S
O35 Zn21 1.965 1_554 S
O35 C39 1.260 . S
O36 Zn20 1.969 . S
O36 C39 1.258 . S
O37 Zn21 2.024 1_554 S
O37 C24 1.058 1_554 S
C38 O27 1.260 . S
C38 O28 1.258 . S
C39 O35 1.260 . S
C39 O36 1.258 . S
Zn40 O46 1.969 . S
Zn40 O47 1.965 1_554 S
Zn40 O51 2.024 1_554 S
Zn40 O56 1.969 . S
Zn41 O48 1.969 . S
Zn41 O54 1.969 . S
Zn41 O55 1.965 1_556 S
Zn41 O57 2.024 1_556 S
C42 O43 1.229 . S
C42 O51 1.058 1_554 S
O43 C42 1.229 . S
C44 O45 1.229 . S
C44 O57 1.058 1_556 S
O45 C44 1.229 . S
O46 Zn40 1.969 . S
O46 C49 1.267 1_554 S
O47 Zn40 1.965 1_556 S
O47 C58 1.260 . S
O48 Zn41 1.969 . S
O48 C58 1.258 . S
C49 O46 1.267 1_556 S
C49 O50 1.228 . S
O50 C49 1.228 . S
O51 Zn40 2.024 1_556 S
O51 C42 1.058 1_556 S
C52 O53 1.228 . S
C52 O54 1.267 1_554 S
O53 C52 1.228 . S
O54 Zn41 1.969 . S
O54 C52 1.267 1_556 S
O55 Zn41 1.965 1_554 S
O55 C59 1.260 . S
O56 Zn40 1.969 . S
O56 C59 1.258 . S
O57 Zn41 2.024 1_554 S
O57 C44 1.058 1_554 S
C58 O47 1.260 . S
C58 O48 1.258 . S
C59 O55 1.260 . S
C59 O56 1.258 . S
Zn60 O66 1.969 . S
Zn60 O67 1.965 1_554 S
Zn60 O71 2.024 1_554 S
Zn60 O76 1.969 . S
Zn61 O68 1.969 . S
Zn61 O74 1.969 . S
Zn61 O75 1.965 1_556 S
Zn61 O77 2.024 1_556 S
C62 O63 1.229 . S
C62 O71 1.058 1_554 S
O63 C62 1.229 . S
C64 O65 1.229 . S
C64 O77 1.058 1_556 S
O65 C64 1.229 . S
O66 Zn60 1.969 . S
O66 C69 1.267 1_554 S
O67 Zn60 1.965 1_556 S
O67 C78 1.260 . S
O68 Zn61 1.969 . S
O68 C78 1.258 . S
C69 O66 1.267 1_556 S
C69 O70 1.228 . S
O70 C69 1.228 . S
O71 Zn60 2.024 1_556 S
O71 C62 1.058 1_556 S
C72 O73 1.228 . S
C72 O74 1.267 1_554 S
O73 C72 1.228 . S
O74 Zn61 1.969 . S
O74 C72 1.267 1_556 S
O75 Zn61 1.965 1_554 S
O75 C79 1.260 . S
O76 Zn60 1.969 . S
O76 C79 1.258 . S
O77 Zn61 2.024 1_554 S
O77 C64 1.058 1_554 S
C78 O67 1.260 . S
C78 O68 1.258 . S
C79 O75 1.260 . S
C79 O76 1.258 . S
Zn80 O86 1.969 . S
Zn80 O87 1.965 1_554 S
Zn80 O91 2.024 1_554 S
Zn80 O96 1.969 . S
Zn81 O88 1.969 . S
Zn81 O94 1.969 . S
Zn81 O95 1.965 1_556 S
Zn81 O97 2.024 1_556 S
C82 O83 1.229 . S
C82 O91 1.058 1_554 S
O83 C82 1.229 . S
C84 O85 1.229 . S
C84 O97 1.058 1_556 S
O85 C84 1.229 . S
O86 Zn80 1.969 . S
O86 C89 1.267 1_554 S
O87 Zn80 1.965 1_556 S
O87 C98 1.260 . S
O88 Zn81 1.969 . S
O88 C98 1.258 . S
C89 O86 1.267 1_556 S
C89 O90 1.228 . S
O90 C89 1.228 . S
O91 Zn80 2.024 1_556 S
O91 C82 1.058 1_556 S
C92 O93 1.228 . S
C92 O94 1.267 1_554 S
O93 C92 1.228 . S
O94 Zn81 1.969 . S
O94 C92 1.267 1_556 S
O95 Zn81 1.965 1_554 S
O95 C99 1.260 . S
O96 Zn80 1.969 . S
O96 C99 1.258 . S
O97 Zn81 2.024 1_554 S
O97 C84 1.058 1_554 S
C98 O87 1.260 . S
C98 O88 1.258 . S
C99 O95 1.260 . S
C99 O96 1.258 . S
Zn100 O106 1.969 . S
Zn100 O107 1.965 1_554 S
Zn100 O111 2.024 1_554 S
Zn100 O116 1.969 . S
Zn101 O108 1.969 . S
Zn101 O114 1.969 . S
Zn101 O115 1.965 1_556 S
Zn101 O117 2.024 1_556 S
C102 O103 1.229 . S
C102 O111 1.058 1_554 S
O103 C102 1.229 . S
C104 O105 1.229 . S
C104 O117 1.058 1_556 S
O105 C104 1.229 . S
O106 Zn100 1.969 . S
O106 C109 1.267 1_554 S
O107 Zn100 1.965 1_556 S
O107 C118 1.260 . S
O108 Zn101 1.969 . S
O108 C118 1.258 . S
C109 O106 1.267 1_556 S
C109 O110 1.228 . S
O110 C109 1.228 . S
O111 Zn100 2.024 1_556 S
O111 C102 1.058 1_556 S
C112 O113 1.228 . S
C112 O114 1.267 1_554 S
O113 C112 1.228 . S
O114 Zn101 1.969 . S
O114 C112 1.267 1_556 S
O115 Zn101 1.965 1_554 S
O115 C119 1.260 . S
O116 Zn100 1.969 . S
O116 C119 1.258 . S
O117 Zn101 2.024 1_554 S
O117 C104 1.058 1_554 S
C118 O107 1.260 . S
C118 O108 1.258 . S
C119 O115 1.260 . S
C119 O116 1.258 . S
H120 C128 0.950 . S
H121 C133 0.950 . S
H122 C130 0.950 . S
H123 C132 0.950 . S
H124 C134 0.950 . S
H125 C136 0.950 . S
H126 C138 0.950 . S
H127 C139 0.950 . S
C128 H120 0.950 . S
C128 C129 1.388 . S
C128 C130 1.391 . S
C129 C128 1.388 . S
C129 C133 1.391 1_556 S
C130 H122 0.950 . S
C130 C128 1.391 . S
C130 C131 1.400 1_556 S
C131 C130 1.400 1_554 S
C131 C132 1.398 . S
C131 C137 1.491 . S
C132 H123 0.950 . S
C132 C131 1.398 . S
C132 C133 1.391 . S
C133 H121 0.950 . S
C133 C129 1.391 1_554 S
C133 C132 1.391 . S
C134 H124 0.950 . S
C134 C135 1.386 . S
C134 C136 1.391 . S
C135 C134 1.386 . S
C135 C139 1.393 1_554 S
C136 H125 0.950 . S
C136 C134 1.391 . S
C136 C137 1.400 . S
C137 C131 1.491 . S
C137 C136 1.400 . S
C137 C138 1.398 1_554 S
C138 H126 0.950 . S
C138 C137 1.398 1_556 S
C138 C139 1.391 . S
C139 H127 0.950 . S
C139 C135 1.393 1_556 S
C139 C138 1.391 . S
H140 C148 0.950 . S
H141 C153 0.950 . S
H142 C150 0.950 . S
H143 C152 0.950 . S
H144 C154 0.950 . S
H145 C156 0.950 . S
H146 C158 0.950 . S
H147 C159 0.950 . S
C148 H140 0.950 . S
C148 C149 1.386 1_554 S
C148 C150 1.391 . S
C149 C148 1.386 1_556 S
C149 C153 1.393 . S
C150 H142 0.950 . S
C150 C148 1.391 . S
C150 C151 1.400 . S
C151 C150 1.400 . S
C151 C152 1.398 1_554 S
C151 C157 1.491 1_455 S
C152 H143 0.950 . S
C152 C151 1.398 1_556 S
C152 C153 1.391 . S
C153 H141 0.950 . S
C153 C149 1.393 . S
C153 C152 1.391 . S
C154 H144 0.950 . S
C154 C155 1.386 1_556 S
C154 C156 1.391 . S
C155 C154 1.386 1_554 S
C155 C159 1.393 . S
C156 H145 0.950 . S
C156 C154 1.391 . S
C156 C157 1.400 1_556 S
C157 C151 1.491 1_655 S
C157 C156 1.400 1_554 S
C157 C158 1.398 . S
C158 H146 0.950 . S
C158 C157 1.398 . S
C158 C159 1.391 . S
C159 H147 0.950 . S
C159 C155 1.393 . S
C159 C158 1.391 . S
H160 C168 0.950 . S
H161 C173 0.950 . S
H162 C170 0.950 . S
H163 C172 0.950 . S
H164 C174 0.950 . S
H165 C176 0.950 . S
H166 C178 0.950 . S
H167 C179 0.950 . S
C168 H160 0.950 . S
C168 C169 1.386 . S
C168 C170 1.391 . S
C169 C168 1.386 . S
C169 C173 1.393 1_556 S
C170 H162 0.950 . S
C170 C168 1.391 . S
C170 C171 1.400 1_556 S
C171 C170 1.400 1_554 S
C171 C172 1.398 . S
C171 C177 1.491 1_545 S
C172 H163 0.950 . S
C172 C171 1.398 . S
C172 C173 1.391 . S
C173 H161 0.950 . S
C173 C169 1.393 1_554 S
C173 C172 1.391 . S
C174 H164 0.950 . S
C174 C175 1.386 . S
C174 C176 1.391 . S
C175 C174 1.386 . S
C175 C179 1.393 1_554 S
C176 H165 0.950 . S
C176 C174 1.391 . S
C176 C177 1.400 . S
C177 C171 1.491 1_565 S
C177 C176 1.400 . S
C177 C178 1.398 1_554 S
C178 H166 0.950 . S
C178 C177 1.398 1_556 S
C178 C179 1.391 . S
C179 H167 0.950 . S
C179 C175 1.393 1_556 S
C179 C178 1.391 . S
H180 C188 0.950 . S
H181 C193 0.950 . S
H182 C190 0.950 . S
H183 C192 0.950 . S
H184 C194 0.950 . S
H185 C196 0.950 . S
H186 C198 0.950 . S
H187 C199 0.950 . S
C188 H180 0.950 . S
C188 C189 1.386 1_556 S
C188 C190 1.391 . S
C189 C188 1.386 1_554 S
C189 C193 1.393 . S
C190 H182 0.950 . S
C190 C188 1.391 . S
C190 C191 1.400 1_556 S
C191 C190 1.400 1_554 S
C191 C192 1.398 . S
C191 C197 1.491 . S
C192 H183 0.950 . S
C192 C191 1.398 . S
C192 C193 1.391 . S
C193 H181 0.950 . S
C193 C189 1.393 . S
C193 C192 1.391 . S
C194 H184 0.950 . S
C194 C195 1.386 1_554 S
C194 C196 1.391 . S
C195 C194 1.386 1_556 S
C195 C199 1.393 . S
C196 H185 0.950 . S
C196 C194 1.391 . S
C196 C197 1.400 . S
C197 C191 1.491 . S
C197 C196 1.400 . S
C197 C198 1.398 1_554 S
C198 H186 0.950 . S
C198 C197 1.398 1_556 S
C198 C199 1.391 . S
C199 H187 0.950 . S
C199 C195 1.393 . S
C199 C198 1.391 . S
H200 C208 0.950 . S
H201 C213 0.950 . S
H202 C210 0.950 . S
H203 C212 0.950 . S
H204 C214 0.950 . S
H205 C216 0.950 . S
H206 C218 0.950 . S
H207 C219 0.950 . S
C208 H200 0.950 . S
C208 C209 1.386 1_556 S
C208 C210 1.391 . S
C209 C208 1.386 1_554 S
C209 C213 1.393 . S
C210 H202 0.950 . S
C210 C208 1.391 . S
C210 C211 1.400 1_556 S
C211 C210 1.400 1_554 S
C211 C212 1.398 . S
C211 C217 1.491 1_455 S
C212 H203 0.950 . S
C212 C211 1.398 . S
C212 C213 1.391 . S
C213 H201 0.950 . S
C213 C209 1.393 . S
C213 C212 1.391 . S
C214 H204 0.950 . S
C214 C215 1.386 . S
C214 C216 1.391 . S
C215 C214 1.386 . S
C215 C219 1.393 1_554 S
C216 H205 0.950 . S
C216 C214 1.391 . S
C216 C217 1.400 . S
C217 C211 1.491 1_655 S
C217 C216 1.400 . S
C217 C218 1.398 1_554 S
C218 H206 0.950 . S
C218 C217 1.398 1_556 S
C218 C219 1.391 . S
C219 H207 0.950 . S
C219 C215 1.393 1_556 S
C219 C218 1.391 . S
H220 C228 0.950 . S
H221 C233 0.950 . S
H222 C230 0.950 . S
H223 C232 0.950 . S
H224 C234 0.950 . S
H225 C236 0.950 . S
H226 C238 0.950 . S
H227 C239 0.950 . S
C228 H220 0.950 . S
C228 C229 1.386 1_554 S
C228 C230 1.391 . S
C229 C228 1.386 1_556 S
C229 C233 1.393 . S
C230 H222 0.950 . S
C230 C228 1.391 . S
C230 C231 1.400 . S
C231 C230 1.400 . S
C231 C232 1.398 1_554 S
C231 C237 1.491 1_565 S
C232 H223 0.950 . S
C232 C231 1.398 1_556 S
C232 C233 1.391 . S
C233 H221 0.950 . S
C233 C229 1.393 . S
C233 C232 1.391 . S
C234 H224 0.950 . S
C234 C235 1.386 1_556 S
C234 C236 1.391 . S
C235 C234 1.386 1_554 S
C235 C239 1.393 . S
C236 H225 0.950 . S
C236 C234 1.391 . S
C236 C237 1.400 1_556 S
C237 C231 1.491 1_545 S
C237 C236 1.400 1_554 S
C237 C238 1.398 . S
C238 H226 0.950 . S
C238 C237 1.398 . S
C238 C239 1.391 . S
C239 H227 0.950 . S
C239 C235 1.393 . S
C239 C238 1.391 . S
H240 C248 0.950 . S
H241 C253 0.950 . S
H242 C250 0.950 . S
H243 C252 0.950 . S
H244 C254 0.950 . S
H245 C256 0.950 . S
H246 C258 0.950 1_554 S
H247 C259 0.950 . S
C248 H240 0.950 . S
C248 C249 1.385 1_554 S
C248 C250 1.391 1_554 S
C249 C248 1.385 1_556 S
C249 C253 1.393 . S
C250 H242 0.950 . S
C250 C248 1.391 1_556 S
C250 C251 1.400 . S
C251 C250 1.400 . S
C251 C252 1.398 . S
C251 C257 1.491 . S
C252 H243 0.950 . S
C252 C251 1.398 . S
C252 C253 1.391 . S
C253 H241 0.950 . S
C253 C249 1.393 . S
C253 C252 1.391 . S
C254 H244 0.950 . S
C254 C255 1.386 . S
C254 C256 1.391 . S
C255 C254 1.386 . S
C255 C259 1.393 . S
C256 H245 0.950 . S
C256 C254 1.391 . S
C256 C257 1.400 . S
C257 C251 1.491 . S
C257 C256 1.400 . S
C257 C258 1.398 . S
C258 H246 0.950 1_556 S
C258 C257 1.398 . S
C258 C259 1.391 . S
C259 H247 0.950 . S
C259 C255 1.393 . S
C259 C258 1.391 . S
H260 C268 0.950 . S
H261 C273 0.950 . S
H262 C270 0.950 . S
H263 C272 0.950 . S
H264 C274 0.950 . S
H265 C276 0.950 . S
H266 C278 0.950 . S
H267 C279 0.950 . S
C268 H260 0.950 . S
C268 C269 1.382 1_554 S
C268 C270 1.391 . S
C269 C268 1.382 1_556 S
C269 C273 1.397 . S
C270 H262 0.950 . S
C270 C268 1.391 . S
C270 C271 1.400 1_554 S
C271 C270 1.400 1_556 S
C271 C272 1.398 . S
C271 C277 1.491 . S
C272 H263 0.950 . S
C272 C271 1.398 . S
C272 C273 1.391 . S
C273 H261 0.950 . S
C273 C269 1.397 . S
C273 C272 1.391 . S
C274 H264 0.950 . S
C274 C275 1.386 . S
C274 C276 1.391 . S
C275 C274 1.386 . S
C275 C279 1.393 1_556 S
C276 H265 0.950 . S
C276 C274 1.391 . S
C276 C277 1.400 . S
C277 C271 1.491 . S
C277 C276 1.400 . S
C277 C278 1.398 1_556 S
C278 H266 0.950 . S
C278 C277 1.398 1_554 S
C278 C279 1.391 . S
C279 H267 0.950 . S
C279 C275 1.393 1_554 S
C279 C278 1.391 . S
H280 C288 0.950 . S
H281 C293 0.950 . S
H282 C290 0.950 . S
H283 C292 0.950 . S
H284 C294 0.950 . S
H285 C296 0.950 . S
H286 C298 0.950 . S
H287 C299 0.950 . S
C288 H280 0.950 . S
C288 C289 1.386 1_554 S
C288 C290 1.391 . S
C289 C288 1.386 1_556 S
C289 C293 1.393 . S
C290 H282 0.950 . S
C290 C288 1.391 . S
C290 C291 1.400 1_554 S
C291 C290 1.400 1_556 S
C291 C292 1.398 . S
C291 C297 1.491 . S
C292 H283 0.950 . S
C292 C291 1.398 . S
C292 C293 1.391 . S
C293 H281 0.950 . S
C293 C289 1.393 . S
C293 C292 1.391 . S
C294 H284 0.950 . S
C294 C295 1.386 1_556 S
C294 C296 1.391 . S
C295 C294 1.386 1_554 S
C295 C299 1.393 . S
C296 H285 0.950 . S
C296 C294 1.391 . S
C296 C297 1.400 . S
C297 C291 1.491 . S
C297 C296 1.400 . S
C297 C298 1.398 1_556 S
C298 H286 0.950 . S
C298 C297 1.398 1_554 S
C298 C299 1.391 . S
C299 H287 0.950 . S
C299 C295 1.393 . S
C299 C298 1.391 . S
H300 C308 0.950 . S
H301 C313 0.950 . S
H302 C310 0.950 . S
H303 C312 0.950 . S
H304 C314 0.950 . S
H305 C316 0.950 . S
H306 C318 0.950 . S
H307 C319 0.950 . S
C308 H300 0.950 . S
C308 C309 1.386 1_554 S
C308 C310 1.391 . S
C309 C308 1.386 1_556 S
C309 C313 1.393 . S
C310 H302 0.950 . S
C310 C308 1.391 . S
C310 C311 1.400 1_554 S
C311 C310 1.400 1_556 S
C311 C312 1.398 . S
C311 C317 1.491 . S
C312 H303 0.950 . S
C312 C311 1.398 . S
C312 C313 1.391 . S
C313 H301 0.950 . S
C313 C309 1.393 . S
C313 C312 1.391 . S
C314 H304 0.950 . S
C314 C315 1.386 1_556 S
C314 C316 1.391 . S
C315 C314 1.386 1_554 S
C315 C319 1.393 . S
C316 H305 0.950 . S
C316 C314 1.391 . S
C316 C317 1.400 . S
C317 C311 1.491 . S
C317 C316 1.400 . S
C317 C318 1.398 1_556 S
C318 H306 0.950 . S
C318 C317 1.398 1_554 S
C318 C319 1.391 . S
C319 H307 0.950 . S
C319 C315 1.393 . S
C319 C318 1.391 . S
H320 C328 0.950 . S
H321 C333 0.950 . S
H322 C330 0.950 . S
H323 C332 0.950 . S
H324 C334 0.950 . S
H325 C336 0.950 . S
H326 C338 0.950 . S
H327 C339 0.950 . S
C328 H320 0.950 . S
C328 C329 1.386 . S
C328 C330 1.391 . S
C329 C328 1.386 . S
C329 C333 1.393 1_556 S
C330 H322 0.950 . S
C330 C328 1.391 . S
C330 C331 1.400 . S
C331 C330 1.400 . S
C331 C332 1.398 1_556 S
C331 C337 1.491 . S
C332 H323 0.950 . S
C332 C331 1.398 1_554 S
C332 C333 1.391 . S
C333 H321 0.950 . S
C333 C329 1.393 1_554 S
C333 C332 1.391 . S
C334 H324 0.950 . S
C334 C335 1.386 1_554 S
C334 C336 1.391 . S
C335 C334 1.386 1_556 S
C335 C339 1.393 . S
C336 H325 0.950 . S
C336 C334 1.391 . S
C336 C337 1.400 1_554 S
C337 C331 1.491 . S
C337 C336 1.400 1_556 S
C337 C338 1.398 . S
C338 H326 0.950 . S
C338 C337 1.398 . S
C338 C339 1.391 . S
C339 H327 0.950 . S
C339 C335 1.393 . S
C339 C338 1.391 . S
H340 C348 0.950 . S
H341 C353 0.950 . S
H342 C350 0.950 . S
H343 C352 0.950 . S
H344 C354 0.950 . S
H345 C356 0.950 . S
H346 C358 0.950 1_554 S
H347 C359 0.950 1_554 S
C348 H340 0.950 . S
C348 C349 1.386 . S
C348 C350 1.391 . S
C349 C348 1.386 . S
C349 C353 1.393 1_554 S
C350 H342 0.950 . S
C350 C348 1.391 . S
C350 C351 1.400 1_554 S
C351 C350 1.400 1_556 S
C351 C352 1.398 . S
C351 C357 1.491 . S
C352 H343 0.950 . S
C352 C351 1.398 . S
C352 C353 1.391 . S
C353 H341 0.950 . S
C353 C349 1.393 1_556 S
C353 C352 1.391 . S
C354 H344 0.950 . S
C354 C355 1.386 . S
C354 C356 1.391 . S
C355 C354 1.386 . S
C355 C359 1.393 . S
C356 H345 0.950 . S
C356 C354 1.391 . S
C356 C357 1.400 . S
C357 C351 1.491 . S
C357 C356 1.400 . S
C357 C358 1.398 . S
C358 H346 0.950 1_556 S
C358 C357 1.398 . S
C358 C359 1.391 . S
C359 H347 0.950 1_556 S
C359 C355 1.393 . S
C359 C358 1.391 . S
H360 C368 0.950 . S
H361 C373 0.950 . S
H362 C370 0.950 . S
H363 C372 0.950 . S
H364 C374 0.950 . S
H365 C376 0.950 . S
H366 C378 0.950 . S
H367 C379 0.950 . S
C368 H360 0.950 . S
C368 C369 1.386 . S
C368 C370 1.391 . S
C369 C368 1.386 . S
C369 C373 1.393 . S
C370 H362 0.950 . S
C370 C368 1.391 . S
C370 C371 1.400 . S
C371 C370 1.400 . S
C371 C372 1.398 . S
C371 C377 1.491 . S
C372 H363 0.950 . S
C372 C371 1.398 . S
C372 C373 1.391 . S
C373 H361 0.950 . S
C373 C369 1.393 . S
C373 C372 1.391 . S
C374 H364 0.950 . S
C374 C375 1.386 . S
C374 C376 1.391 . S
C375 C374 1.386 . S
C375 C379 1.393 . S
C376 H365 0.950 . S
C376 C374 1.391 . S
C376 C377 1.400 . S
C377 C371 1.491 . S
C377 C376 1.400 . S
C377 C378 1.398 . S
C378 H366 0.950 . S
C378 C377 1.398 . S
C378 C379 1.391 . S
C379 H367 0.950 . S
C379 C375 1.393 . S
C379 C378 1.391 . S
H380 C388 0.950 . S
H381 C393 0.950 . S
H382 C390 0.950 . S
H383 C392 0.950 . S
H384 C394 0.950 . S
H385 C396 0.950 . S
H386 C398 0.950 . S
H387 C399 0.950 . S
C388 H380 0.950 . S
C388 C389 1.386 . S
C388 C390 1.391 . S
C389 C388 1.386 . S
C389 C393 1.393 . S
C390 H382 0.950 . S
C390 C388 1.391 . S
C390 C391 1.400 . S
C391 C390 1.400 . S
C391 C392 1.398 . S
C391 C397 1.491 . S
C392 H383 0.950 . S
C392 C391 1.398 . S
C392 C393 1.391 . S
C393 H381 0.950 . S
C393 C389 1.393 . S
C393 C392 1.391 . S
C394 H384 0.950 . S
C394 C395 1.386 . S
C394 C396 1.391 . S
C395 C394 1.386 . S
C395 C399 1.393 . S
C396 H385 0.950 . S
C396 C394 1.391 . S
C396 C397 1.400 . S
C397 C391 1.491 . S
C397 C396 1.400 . S
C397 C398 1.398 . S
C398 H386 0.950 . S
C398 C397 1.398 . S
C398 C399 1.391 . S
C399 H387 0.950 . S
C399 C395 1.393 . S
C399 C398 1.391 . S
H400 C408 0.950 . S
H401 C413 0.950 . S
H402 C410 0.950 . S
H403 C412 0.950 . S
H404 C414 0.950 . S
H405 C416 0.950 . S
H406 C418 0.950 . S
H407 C419 0.950 . S
C408 H400 0.950 . S
C408 C409 1.386 . S
C408 C410 1.391 . S
C409 C408 1.386 . S
C409 C413 1.393 . S
C410 H402 0.950 . S
C410 C408 1.391 . S
C410 C411 1.400 . S
C411 C410 1.400 . S
C411 C412 1.398 . S
C411 C417 1.491 . S
C412 H403 0.950 . S
C412 C411 1.398 . S
C412 C413 1.391 . S
C413 H401 0.950 . S
C413 C409 1.393 . S
C413 C412 1.391 . S
C414 H404 0.950 . S
C414 C415 1.386 . S
C414 C416 1.391 . S
C415 C414 1.386 . S
C415 C419 1.393 . S
C416 H405 0.950 . S
C416 C414 1.391 . S
C416 C417 1.400 . S
C417 C411 1.491 . S
C417 C416 1.400 . S
C417 C418 1.398 . S
C418 H406 0.950 . S
C418 C417 1.398 . S
C418 C419 1.391 . S
C419 H407 0.950 . S
C419 C415 1.393 . S
C419 C418 1.391 . S
H420 C428 0.950 . S
H421 C433 0.950 . S
H422 C430 0.950 . S
H423 C432 0.950 . S
H424 C434 0.950 . S
H425 C436 0.950 . S
H426 C438 0.950 . S
H427 C439 0.950 . S
C428 H420 0.950 . S
C428 C429 1.386 . S
C428 C430 1.391 . S
C429 C428 1.386 . S
C429 C433 1.393 . S
C430 H422 0.950 . S
C430 C428 1.391 . S
C430 C431 1.400 . S
C431 C430 1.400 . S
C431 C432 1.398 . S
C431 C437 1.491 . S
C432 H423 0.950 . S
C432 C431 1.398 . S
C432 C433 1.391 . S
C433 H421 0.950 . S
C433 C429 1.393 . S
C433 C432 1.391 . S
C434 H424 0.950 . S
C434 C435 1.386 . S
C434 C436 1.391 . S
C435 C434 1.386 . S
C435 C439 1.393 . S
C436 H425 0.950 . S
C436 C434 1.391 . S
C436 C437 1.400 . S
C437 C431 1.491 . S
C437 C436 1.400 . S
C437 C438 1.398 . S
C438 H426 0.950 . S
C438 C437 1.398 . S
C438 C439 1.391 . S
C439 H427 0.950 . S
C439 C435 1.393 . S
C439 C438 1.391 . S
H440 C448 0.950 . S
H441 C453 0.950 . S
H442 C450 0.950 . S
H443 C452 0.950 . S
H444 C454 0.950 . S
H445 C456 0.950 . S
H446 C458 0.950 . S
H447 C459 0.950 . S
C448 H440 0.950 . S
C448 C449 1.386 . S
C448 C450 1.391 . S
C449 C448 1.386 . S
C449 C453 1.393 . S
C450 H442 0.950 . S
C450 C448 1.391 . S
C450 C451 1.400 . S
C451 C450 1.400 . S
C451 C452 1.398 . S
C451 C457 1.491 . S
C452 H443 0.950 . S
C452 C451 1.398 . S
C452 C453 1.391 . S
C453 H441 0.950 . S
C453 C449 1.393 . S
C453 C452 1.391 . S
C454 H444 0.950 . S
C454 C455 1.386 . S
C454 C456 1.391 . S
C455 C454 1.386 . S
C455 C459 1.393 . S
C456 H445 0.950 . S
C456 C454 1.391 . S
C456 C457 1.400 . S
C457 C451 1.491 . S
C457 C456 1.400 . S
C457 C458 1.398 . S
C458 H446 0.950 . S
C458 C457 1.398 . S
C458 C459 1.391 . S
C459 H447 0.950 . S
C459 C455 1.393 . S
C459 C458 1.391 . S
H460 C468 0.950 . S
H461 C473 0.950 . S
H462 C470 0.950 . S
H463 C472 0.950 . S
H464 C474 0.950 . S
H465 C476 0.950 . S
H466 C478 0.950 . S
H467 C479 0.950 . S
C468 H460 0.950 . S
C468 C469 1.386 . S
C468 C470 1.391 . S
C469 C468 1.386 . S
C469 C473 1.393 . S
C470 H462 0.950 . S
C470 C468 1.391 . S
C470 C471 1.400 . S
C471 C470 1.400 . S
C471 C472 1.398 . S
C471 C477 1.491 . S
C472 H463 0.950 . S
C472 C471 1.398 . S
C472 C473 1.391 . S
C473 H461 0.950 . S
C473 C469 1.393 . S
C473 C472 1.391 . S
C474 H464 0.950 . S
C474 C475 1.386 . S
C474 C476 1.391 . S
C475 C474 1.386 . S
C475 C479 1.393 . S
C476 H465 0.950 . S
C476 C474 1.391 . S
C476 C477 1.400 . S
C477 C471 1.491 . S
C477 C476 1.400 . S
C477 C478 1.398 . S
C478 H466 0.950 . S
C478 C477 1.398 . S
C478 C479 1.391 . S
C479 H467 0.950 . S
C479 C475 1.393 . S
C479 C478 1.391 . S
C129 C104 1.435 . S
C135 C12 1.446 . S
C149 C4 1.444 . S
C155 C32 1.449 . S
C169 C24 1.434 . S
C175 C52 1.446 . S
C189 C72 1.446 . S
C195 C44 1.434 . S
C209 C92 1.446 . S
C215 C64 1.436 1_554 S
C229 C84 1.442 . S
C235 C112 1.448 . S
C249 C82 1.618 1_556 S
C255 C9 1.674 . S
C269 C102 1.631 1_556 S
C275 C29 1.663 . S
C289 C49 1.664 . S
C295 C2 1.629 . S
C309 C69 1.663 . S
C315 C22 1.630 . S
C329 C89 1.678 . S
C335 C42 1.611 1_556 S
C349 C62 1.621 . S
C355 C109 1.668 . S
C369 C18 1.489 . S
C375 C19 1.489 . S
C389 C38 1.497 . S
C395 C39 1.497 . S
C409 C58 1.500 . S
C415 C59 1.500 . S
C429 C78 1.500 . S
C435 C79 1.500 . S
C449 C99 1.494 . S
C455 C98 1.494 . S
C469 C118 1.487 . S
C475 C119 1.487 . S
