# Generated by pormake.
# Topology sow, (4)-cn, num edge types: 1
# Building blocks:
#     Node 0, Type 0, BuildingBlock: NAWXER_clean_sbu_0, # of connection points: 4
#     Node 1, Type 0, BuildingBlock: NAWXER_clean_sbu_0, # of connection points: 4
#     Node 2, Type 0, BuildingBlock: NAWXER_clean_sbu_0, # of connection points: 4
#     Node 3, Type 0, BuildingBlock: NAWXER_clean_sbu_0, # of connection points: 4
#     Node 4, Type 0, BuildingBlock: NAWXER_clean_sbu_0, # of connection points: 4
#     Node 5, Type 0, BuildingBlock: NAWXER_clean_sbu_0, # of connection points: 4
#     Node 6, Type 0, BuildingBlock: NAWXER_clean_sbu_0, # of connection points: 4
#     Node 7, Type 0, BuildingBlock: NAWXER_clean_sbu_0, # of connection points: 4
#     Edge 8, Type (0, 0), BuildingBlock: AJUNOK_clean_linker_0, # of connection points: 2
#     Edge 9, Type (0, 0), BuildingBlock: AJUNOK_clean_linker_0, # of connection points: 2
#     Edge 10, Type (0, 0), BuildingBlock: AJUNOK_clean_linker_0, # of connection points: 2
#     Edge 11, Type (0, 0), BuildingBlock: AJUNOK_clean_linker_0, # of connection points: 2
#     Edge 12, Type (0, 0), BuildingBlock: AJUNOK_clean_linker_0, # of connection points: 2
#     Edge 13, Type (0, 0), BuildingBlock: AJUNOK_clean_linker_0, # of connection points: 2
#     Edge 14, Type (0, 0), BuildingBlock: AJUNOK_clean_linker_0, # of connection points: 2
#     Edge 15, Type (0, 0), BuildingBlock: AJUNOK_clean_linker_0, # of connection points: 2
#     Edge 16, Type (0, 0), BuildingBlock: AJUNOK_clean_linker_0, # of connection points: 2
#     Edge 17, Type (0, 0), BuildingBlock: AJUNOK_clean_linker_0, # of connection points: 2
#     Edge 18, Type (0, 0), BuildingBlock: AJUNOK_clean_linker_0, # of connection points: 2
#     Edge 19, Type (0, 0), BuildingBlock: AJUNOK_clean_linker_0, # of connection points: 2
#     Edge 20, Type (0, 0), BuildingBlock: AJUNOK_clean_linker_0, # of connection points: 2
#     Edge 21, Type (0, 0), BuildingBlock: AJUNOK_clean_linker_0, # of connection points: 2
#     Edge 22, Type (0, 0), BuildingBlock: AJUNOK_clean_linker_0, # of connection points: 2
#     Edge 23, Type (0, 0), BuildingBlock: AJUNOK_clean_linker_0, # of connection points: 2
# Relax obj value: 0.113
# Max RMSD: 0.238
# Mean RMSD: 0.237
data_MOF--net-sow--node1-NAWXER_clean_sbu_0--edge1-AJUNOK_clean_linker_0
_symmetry_space_group_name_H-M    P1
_symmetry_Int_Tables_number       1
_symmetry_cell_setting            triclinic
loop_
_symmetry_equiv_pos_as_xyz
'x, y, z'
_cell_length_a     31.472188
_cell_length_b     14.292511
_cell_length_c     16.750065
_cell_angle_alpha  90.381896
_cell_angle_beta   90.090319
_cell_angle_gamma 90.568774
loop_
_atom_site_label
_atom_site_type_symbol
_atom_site_fract_x
_atom_site_fract_y
_atom_site_fract_z
_atom_type_partial_charge
C0 C 0.21199 0.1804 0.21113 0.0
C1 C 0.09288 0.08714 0.04045 0.0
O2 O 0.19957 0.099 0.19076 0.0
Zn3 Zn 0.15672 0.13373 0.11414 0.0
O4 O 0.19515 0.25173 0.17794 0.0
Zn5 Zn 0.14745 0.27431 0.08689 0.0
O6 O 0.10906 0.35612 0.14224 0.0
O7 O 0.10972 0.20948 0.18443 0.0
O8 O 0.10019 0.17572 0.03713 0.0
O9 O 0.11995 0.03511 0.07431 0.0
O10 O 0.19214 0.17829 0.01102 0.0
O11 O 0.17743 0.32736 0.99801 0.0
C12 C 0.09409 0.29221 0.18684 0.0
C13 C 0.19719 0.25579 0.97391 0.0
C14 C 0.31737 0.30101 0.71129 0.0
C15 C 0.43262 0.40868 0.54037 0.0
O16 O 0.32811 0.38361 0.69206 0.0
Zn17 Zn 0.37049 0.35466 0.61405 0.0
O18 O 0.33529 0.23169 0.67616 0.0
Zn19 Zn 0.38405 0.21517 0.58566 0.0
O20 O 0.42629 0.14207 0.64127 0.0
O21 O 0.4194 0.28768 0.68418 0.0
O22 O 0.42745 0.31954 0.53662 0.0
O23 O 0.40442 0.45792 0.57443 0.0
O24 O 0.33572 0.30349 0.51158 0.0
O25 O 0.35637 0.15838 0.49464 0.0
C26 C 0.43867 0.20899 0.6864 0.0
C27 C 0.33373 0.22622 0.47224 0.0
C28 C 0.72218 0.31918 0.84762 0.0
C29 C 0.59956 0.42322 0.99597 0.0
O30 O 0.71169 0.40191 0.86614 0.0
Zn31 Zn 0.66495 0.37125 0.9347 0.0
O32 O 0.7018 0.24959 0.87753 0.0
Zn33 Zn 0.65025 0.23197 0.96131 0.0
O34 O 0.61151 0.15384 0.9006 0.0
O35 O 0.61957 0.29849 0.85643 0.0
O36 O 0.60404 0.33429 1.0012 0.0
O37 O 0.6296 0.4728 0.96756 0.0
O38 O 0.69493 0.32627 0.04218 0.0
O39 O 0.67524 0.1791 0.05512 0.0
C40 C 0.60091 0.2181 0.85245 0.0
C41 C 0.69635 0.24918 0.08044 0.0
C42 C 0.81467 0.20856 0.34461 0.0
C43 C 0.93353 0.10049 0.49681 0.0
O44 O 0.82495 0.12689 0.36541 0.0
Zn45 Zn 0.86964 0.15781 0.43559 0.0
O46 O 0.83344 0.27953 0.37725 0.0
Zn47 Zn 0.88525 0.2954 0.46449 0.0
O48 O 0.925 0.37228 0.40583 0.0
O49 O 0.91531 0.2288 0.35872 0.0
O50 O 0.93096 0.18993 0.50253 0.0
O51 O 0.90259 0.05396 0.46779 0.0
O52 O 0.83954 0.20344 0.54212 0.0
O53 O 0.86177 0.34788 0.56143 0.0
C54 C 0.93457 0.30841 0.35585 0.0
C55 C 0.83978 0.27838 0.5843 0.0
C56 C 0.9265 0.92433 0.95998 0.0
C57 C 0.81288 0.81788 0.78161 0.0
O58 O 0.92251 0.83474 0.96038 0.0
Zn59 Zn 0.8795 0.73049 0.90679 0.0
O60 O 0.89792 0.9725 0.92639 0.0
Zn61 Zn 0.86525 0.8696 0.8817 0.0
O62 O 0.82947 0.81375 0.98064 0.0
O63 O 0.85145 0.66938 0.99427 0.0
O64 O 0.82306 0.90041 0.80306 0.0
O65 O 0.83115 0.74858 0.81551 0.0
O66 O 0.92145 0.65834 0.85024 0.0
O67 O 0.91527 0.80519 0.81129 0.0
C68 C 0.82763 0.73517 0.01723 0.0
C69 C 0.9344 0.72631 0.80783 0.0
C70 C 0.59578 0.58161 0.45871 0.0
C71 C 0.70731 0.6854 0.27902 0.0
O72 O 0.59935 0.67137 0.45982 0.0
Zn73 Zn 0.6417 0.77599 0.40471 0.0
O74 O 0.62373 0.53386 0.42263 0.0
Zn75 Zn 0.6551 0.63635 0.37867 0.0
O76 O 0.69001 0.69031 0.47882 0.0
O77 O 0.67128 0.83699 0.49287 0.0
O78 O 0.69721 0.60375 0.3015 0.0
O79 O 0.68911 0.75621 0.3115 0.0
O80 O 0.59868 0.84728 0.34988 0.0
O81 O 0.60446 0.69997 0.31032 0.0
C82 C 0.69323 0.76849 0.51632 0.0
C83 C 0.58521 0.77872 0.30781 0.0
C84 C 0.42904 0.5765 1.00278 0.0
C85 C 0.30176 0.67502 0.1398 0.0
O86 O 0.42328 0.66476 0.99613 0.0
Zn87 Zn 0.37587 0.76524 0.0311 0.0
O88 O 0.39884 0.52481 0.02781 0.0
Zn89 Zn 0.36114 0.62461 0.05779 0.0
O90 O 0.33279 0.67079 0.94988 0.0
O91 O 0.3537 0.81655 0.93313 0.0
O92 O 0.31363 0.59251 0.12355 0.0
O93 O 0.32197 0.74501 0.10979 0.0
O94 O 0.41339 0.84265 0.09656 0.0
O95 O 0.40322 0.6984 0.13923 0.0
C96 C 0.3323 0.74616 0.90903 0.0
C97 C 0.42217 0.77795 0.14573 0.0
C98 C 0.09748 0.91794 0.50079 0.0
C99 C 0.2189 0.79564 0.63934 0.0
O100 O 0.09956 0.82875 0.49313 0.0
Zn101 Zn 0.14269 0.71924 0.5279 0.0
O102 O 0.12968 0.96362 0.52618 0.0
Zn103 Zn 0.16288 0.85638 0.55453 0.0
O104 O 0.18794 0.80462 0.44463 0.0
O105 O 0.1626 0.66177 0.43076 0.0
O106 O 0.21168 0.87977 0.62047 0.0
O107 O 0.19603 0.72947 0.60901 0.0
O108 O 0.10242 0.64926 0.59131 0.0
O109 O 0.11753 0.79156 0.63587 0.0
C110 C 0.18528 0.7283 0.40425 0.0
C111 C 0.09577 0.71537 0.64099 0.0
C112 C 0.27391 0.36239 0.82469 0.0
C113 C 0.2859 0.28605 0.77643 0.0
C114 C 0.24528 0.35141 0.88794 0.0
C115 C 0.22716 0.26378 0.90584 0.0
H116 H 0.28722 0.43144 0.81445 0.0
H117 H 0.23789 0.41204 0.92423 0.0
S118 S 0.24672 0.04136 0.79727 0.0
N119 N 0.27667 0.11917 0.75063 0.0
N120 N 0.22268 0.09905 0.86968 0.0
C121 C 0.23868 0.18658 0.85834 0.0
C122 C 0.26798 0.19763 0.7936 0.0
C123 C 0.24266 0.26995 0.32719 0.0
C124 C 0.24458 0.19297 0.27457 0.0
C125 C 0.27193 0.28098 0.39008 0.0
C126 C 0.3044 0.21551 0.40278 0.0
H127 H 0.2176 0.32074 0.3212 0.0
H128 H 0.26848 0.34042 0.42993 0.0
S129 S 0.32639 0.00801 0.27543 0.0
N130 N 0.2835 0.05415 0.23543 0.0
N131 N 0.33868 0.07503 0.35281 0.0
C132 C 0.30744 0.1398 0.34884 0.0
C133 C 0.2775 0.12841 0.28511 0.0
C134 C 0.75975 0.30108 0.26981 0.0
C135 C 0.78412 0.21962 0.27796 0.0
C136 C 0.73113 0.31084 0.20573 0.0
C137 C 0.72571 0.23894 0.1486 0.0
H138 H 0.76265 0.35724 0.31327 0.0
H139 H 0.71288 0.37448 0.20128 0.0
S140 S 0.78673 0.01917 0.13606 0.0
N141 N 0.80411 0.07079 0.21825 0.0
N142 N 0.74997 0.08854 0.09977 0.0
C143 C 0.75062 0.15858 0.15512 0.0
C144 C 0.77989 0.14905 0.21934 0.0
C145 C 0.74931 0.23327 0.72871 0.0
C146 C 0.75525 0.3035 0.78683 0.0
C147 C 0.77754 0.22411 0.66461 0.0
C148 C 0.81286 0.28461 0.65657 0.0
H149 H 0.72168 0.1875 0.7309 0.0
H150 H 0.77077 0.17114 0.61968 0.0
S151 S 0.84692 0.46765 0.8021 0.0
N152 N 0.80172 0.42653 0.83842 0.0
N153 N 0.85526 0.40872 0.71847 0.0
C154 C 0.8206 0.35124 0.71724 0.0
C155 C 0.79165 0.36087 0.78226 0.0
C156 C 0.76494 0.78571 0.09888 0.0
C157 C 0.79769 0.72118 0.085 0.0
C158 C 0.73655 0.77514 0.1629 0.0
C159 C 0.73901 0.69802 0.21434 0.0
H160 H 0.76077 0.84434 0.05918 0.0
H161 H 0.71181 0.82655 0.17084 0.0
S162 S 0.81857 0.50819 0.20437 0.0
N163 N 0.83096 0.57738 0.12923 0.0
N164 N 0.77686 0.55593 0.24751 0.0
C165 C 0.77124 0.63223 0.20076 0.0
C166 C 0.80063 0.64395 0.13653 0.0
C167 C 0.73264 0.86815 0.61679 0.0
C168 C 0.72269 0.77884 0.58564 0.0
C169 C 0.76134 0.87979 0.68046 0.0
C170 C 0.78123 0.80258 0.71623 0.0
H171 H 0.71863 0.93003 0.59114 0.0
H172 H 0.76818 0.95028 0.70126 0.0
S173 S 0.76428 0.55318 0.65954 0.0
N174 N 0.73391 0.61142 0.59735 0.0
N175 N 0.78752 0.63301 0.7168 0.0
C176 C 0.77088 0.71267 0.6866 0.0
C177 C 0.74179 0.70091 0.62149 0.0
C178 C 0.31283 0.82283 0.78004 0.0
C179 C 0.30521 0.75241 0.83678 0.0
C180 C 0.28573 0.83416 0.71426 0.0
C181 C 0.25008 0.77549 0.70282 0.0
H182 H 0.33953 0.87059 0.78707 0.0
H183 H 0.29226 0.89051 0.67295 0.0
S184 S 0.21444 0.58428 0.83598 0.0
N185 N 0.25849 0.62474 0.87789 0.0
N186 N 0.20787 0.64636 0.75437 0.0
C187 C 0.24245 0.70398 0.75822 0.0
C188 C 0.2699 0.69243 0.82523 0.0
C189 C 0.2675 0.77467 0.24346 0.0
C190 C 0.26784 0.6907 0.19947 0.0
C191 C 0.23972 0.78732 0.30774 0.0
C192 C 0.21079 0.71653 0.33033 0.0
H193 H 0.29015 0.82966 0.23022 0.0
H194 H 0.24198 0.85221 0.34136 0.0
S195 S 0.19388 0.48948 0.22508 0.0
N196 N 0.23354 0.53972 0.17666 0.0
N197 N 0.18076 0.56339 0.29687 0.0
C198 C 0.2089 0.63429 0.28345 0.0
C199 C 0.23755 0.62132 0.21825 0.0
C200 C 0.02239 0.2335 0.21826 0.0
C201 C 0.05303 0.30482 0.22695 0.0
C202 C 0.98292 0.23966 0.25517 0.0
C203 C 0.97259 0.31657 0.30411 0.0
H204 H 0.02901 0.17172 0.18268 0.0
H205 H 0.96106 0.18122 0.24762 0.0
S206 S 0.04105 0.52599 0.34058 0.0
N207 N 0.06984 0.45838 0.2818 0.0
N208 N 0.99569 0.46922 0.3548 0.0
C209 C 1.00234 0.39083 0.31044 0.0
C210 C 0.04259 0.38507 0.27107 0.0
C211 C 0.50062 0.29015 0.74748 0.0
C212 C 0.47965 0.2051 0.72985 0.0
C213 C 0.54057 0.29233 0.78324 0.0
C214 C 0.56145 0.20959 0.80445 0.0
H215 H 0.48641 0.35658 0.73264 0.0
H216 H 0.55449 0.36034 0.79644 0.0
S217 S 0.52104 0.96784 0.76991 0.0
N218 N 0.4833 0.03529 0.73393 0.0
N219 N 0.55852 0.03939 0.80414 0.0
C220 C 0.54119 0.12355 0.78692 0.0
C221 C 0.50036 0.1213 0.74885 0.0
C222 C 0.03056 0.63471 0.69528 0.0
C223 C 0.0575 0.71411 0.69277 0.0
C224 C 0.99064 0.63817 0.73282 0.0
C225 C 0.97592 0.7218 0.76708 0.0
H226 H 0.03986 0.57007 0.6664 0.0
H227 H 0.97079 0.57582 0.73329 0.0
S228 S 0.03518 0.94727 0.78302 0.0
N229 N 0.06736 0.87699 0.73416 0.0
N230 N 0.99232 0.88385 0.80121 0.0
C231 C 1.00294 0.80073 0.76696 0.0
C232 C 0.04375 0.79674 0.73088 0.0
C233 C 0.48728 0.86398 0.19659 0.0
C234 C 0.4604 0.78438 0.19784 0.0
C235 C 0.52767 0.86311 0.23297 0.0
C236 C 0.5429 0.78175 0.26955 0.0
H237 H 0.4777 0.92634 0.1652 0.0
H238 H 0.54756 0.92528 0.23023 0.0
S239 S 0.48377 0.55798 0.2967 0.0
N240 N 0.45091 0.62507 0.24684 0.0
N241 N 0.52692 0.62233 0.31035 0.0
C242 C 0.51583 0.70311 0.27358 0.0
C243 C 0.47454 0.70479 0.23917 0.0
C244 C 0.04316 0.95057 0.01826 0.0
C245 C 0.05053 0.04789 0.01638 0.0
C246 C 1.0027 0.91194 0.00326 0.0
C247 C 0.96754 0.9687 0.98566 0.0
H248 H 0.06888 0.90337 0.03171 0.0
H249 H 0.99929 0.83647 0.00391 0.0
S250 S 0.96894 0.22839 0.97692 0.0
N251 N 0.01848 0.20066 0.99783 0.0
N252 N 0.94273 0.12811 0.96957 0.0
C253 C 0.97427 0.0663 0.98446 0.0
C254 C 0.01558 0.10574 0.99958 0.0
C255 C 0.51998 0.59036 0.50484 0.0
C256 C 0.55577 0.53572 0.48648 0.0
C257 C 0.48012 0.54907 0.51992 0.0
C258 C 0.47423 0.4513 0.51734 0.0
H259 H 0.52235 0.66601 0.50538 0.0
H260 H 0.4537 0.59443 0.53354 0.0
S261 S 0.55851 0.27602 0.47872 0.0
N262 N 0.58309 0.37803 0.47115 0.0
N263 N 0.5086 0.30056 0.4994 0.0
C264 C 0.51002 0.39568 0.50088 0.0
C265 C 0.55061 0.43775 0.48575 0.0
C266 C 0.47948 0.44237 0.99289 0.0
C267 C 0.47285 0.53931 0.99799 0.0
C268 C 0.52052 0.4053 0.99628 0.0
C269 C 0.55665 0.46362 0.00536 0.0
H270 H 0.45276 0.39461 0.98604 0.0
H271 H 0.52392 0.33032 0.9894 0.0
S272 S 0.55658 0.72167 0.02967 0.0
N273 N 0.50605 0.69273 0.01805 0.0
N274 N 0.58292 0.62256 0.02414 0.0
C275 C 0.55047 0.56044 0.01247 0.0
C276 C 0.50871 0.59838 0.00875 0.0
C277 C 0.05236 0.06103 0.49082 0.0
C278 C 0.05537 0.96332 0.49766 0.0
C279 C 1.01291 0.10566 0.49505 0.0
C280 C 0.97502 0.05431 0.50705 0.0
H281 H 0.08066 0.10332 0.48155 0.0
H282 H 1.01203 0.18065 0.48619 0.0
S283 S 0.9659 0.79834 0.53861 0.0
N284 N 0.01703 0.81741 0.52345 0.0
N285 N 0.94332 0.90169 0.53191 0.0
C286 C 0.97771 0.95709 0.51681 0.0
C287 C 0.01772 0.91151 0.51186 0.0
loop_
_geom_bond_atom_site_label_1
_geom_bond_atom_site_label_2
_geom_bond_distance
_geom_bond_site_symmetry_2
_ccdc_geom_bond_type
C0 O2 1.247 . S
C0 O4 1.258 . S
C1 O8 1.247 . S
C1 O9 1.258 . S
O2 C0 1.247 . S
O2 Zn3 2.028 . S
Zn3 O2 2.028 . S
Zn3 O7 2.035 . S
Zn3 O9 2.035 . S
Zn3 O10 2.028 . S
O4 C0 1.258 . S
O4 Zn5 2.035 . S
Zn5 O4 2.035 . S
Zn5 O6 2.028 . S
Zn5 O8 2.028 . S
Zn5 O11 2.035 1_554 S
O6 Zn5 2.028 . S
O6 C12 1.247 . S
O7 Zn3 2.035 . S
O7 C12 1.258 . S
O8 C1 1.247 . S
O8 Zn5 2.028 . S
O9 C1 1.258 . S
O9 Zn3 2.035 . S
O10 Zn3 2.028 . S
O10 C13 1.247 1_554 S
O11 Zn5 2.035 1_556 S
O11 C13 1.258 . S
C12 O6 1.247 . S
C12 O7 1.258 . S
C13 O10 1.247 1_556 S
C13 O11 1.258 . S
C14 O16 1.247 . S
C14 O18 1.258 . S
C15 O22 1.247 . S
C15 O23 1.258 . S
O16 C14 1.247 . S
O16 Zn17 2.028 . S
Zn17 O16 2.028 . S
Zn17 O21 2.035 . S
Zn17 O23 2.035 . S
Zn17 O24 2.028 . S
O18 C14 1.258 . S
O18 Zn19 2.035 . S
Zn19 O18 2.035 . S
Zn19 O20 2.028 . S
Zn19 O22 2.028 . S
Zn19 O25 2.035 . S
O20 Zn19 2.028 . S
O20 C26 1.247 . S
O21 Zn17 2.035 . S
O21 C26 1.258 . S
O22 C15 1.247 . S
O22 Zn19 2.028 . S
O23 C15 1.258 . S
O23 Zn17 2.035 . S
O24 Zn17 2.028 . S
O24 C27 1.247 . S
O25 Zn19 2.035 . S
O25 C27 1.258 . S
C26 O20 1.247 . S
C26 O21 1.258 . S
C27 O24 1.247 . S
C27 O25 1.258 . S
C28 O30 1.247 . S
C28 O32 1.258 . S
C29 O36 1.247 . S
C29 O37 1.258 . S
O30 C28 1.247 . S
O30 Zn31 2.028 . S
Zn31 O30 2.028 . S
Zn31 O35 2.035 . S
Zn31 O37 2.035 . S
Zn31 O38 2.028 . S
O32 C28 1.258 . S
O32 Zn33 2.035 . S
Zn33 O32 2.035 . S
Zn33 O34 2.028 . S
Zn33 O36 2.028 . S
Zn33 O39 2.035 1_556 S
O34 Zn33 2.028 . S
O34 C40 1.247 . S
O35 Zn31 2.035 . S
O35 C40 1.258 . S
O36 C29 1.247 . S
O36 Zn33 2.028 . S
O37 C29 1.258 . S
O37 Zn31 2.035 . S
O38 Zn31 2.028 . S
O38 C41 1.247 1_556 S
O39 Zn33 2.035 1_554 S
O39 C41 1.258 . S
C40 O34 1.247 . S
C40 O35 1.258 . S
C41 O38 1.247 1_554 S
C41 O39 1.258 . S
C42 O44 1.247 . S
C42 O46 1.258 . S
C43 O50 1.247 . S
C43 O51 1.258 . S
O44 C42 1.247 . S
O44 Zn45 2.028 . S
Zn45 O44 2.028 . S
Zn45 O49 2.035 . S
Zn45 O51 2.035 . S
Zn45 O52 2.028 . S
O46 C42 1.258 . S
O46 Zn47 2.035 . S
Zn47 O46 2.035 . S
Zn47 O48 2.028 . S
Zn47 O50 2.028 . S
Zn47 O53 2.035 . S
O48 Zn47 2.028 . S
O48 C54 1.247 . S
O49 Zn45 2.035 . S
O49 C54 1.258 . S
O50 C43 1.247 . S
O50 Zn47 2.028 . S
O51 C43 1.258 . S
O51 Zn45 2.035 . S
O52 Zn45 2.028 . S
O52 C55 1.247 . S
O53 Zn47 2.035 . S
O53 C55 1.258 . S
C54 O48 1.247 . S
C54 O49 1.258 . S
C55 O52 1.247 . S
C55 O53 1.258 . S
C56 O58 1.247 . S
C56 O60 1.258 . S
C57 O64 1.247 . S
C57 O65 1.258 . S
O58 C56 1.247 . S
O58 Zn59 2.028 . S
Zn59 O58 2.028 . S
Zn59 O63 2.035 1_556 S
Zn59 O65 2.035 . S
Zn59 O66 2.028 . S
O60 C56 1.258 . S
O60 Zn61 2.035 . S
Zn61 O60 2.035 . S
Zn61 O62 2.028 . S
Zn61 O64 2.028 . S
Zn61 O67 2.035 . S
O62 Zn61 2.028 . S
O62 C68 1.247 1_556 S
O63 Zn59 2.035 1_554 S
O63 C68 1.258 . S
O64 C57 1.247 . S
O64 Zn61 2.028 . S
O65 C57 1.258 . S
O65 Zn59 2.035 . S
O66 Zn59 2.028 . S
O66 C69 1.247 . S
O67 Zn61 2.035 . S
O67 C69 1.258 . S
C68 O62 1.247 1_554 S
C68 O63 1.258 . S
C69 O66 1.247 . S
C69 O67 1.258 . S
C70 O72 1.247 . S
C70 O74 1.258 . S
C71 O78 1.247 . S
C71 O79 1.258 . S
O72 C70 1.247 . S
O72 Zn73 2.028 . S
Zn73 O72 2.028 . S
Zn73 O77 2.035 . S
Zn73 O79 2.035 . S
Zn73 O80 2.028 . S
O74 C70 1.258 . S
O74 Zn75 2.035 . S
Zn75 O74 2.035 . S
Zn75 O76 2.028 . S
Zn75 O78 2.028 . S
Zn75 O81 2.035 . S
O76 Zn75 2.028 . S
O76 C82 1.247 . S
O77 Zn73 2.035 . S
O77 C82 1.258 . S
O78 C71 1.247 . S
O78 Zn75 2.028 . S
O79 C71 1.258 . S
O79 Zn73 2.035 . S
O80 Zn73 2.028 . S
O80 C83 1.247 . S
O81 Zn75 2.035 . S
O81 C83 1.258 . S
C82 O76 1.247 . S
C82 O77 1.258 . S
C83 O80 1.247 . S
C83 O81 1.258 . S
C84 O86 1.247 . S
C84 O88 1.258 . S
C85 O92 1.247 . S
C85 O93 1.258 . S
O86 C84 1.247 . S
O86 Zn87 2.028 . S
Zn87 O86 2.028 . S
Zn87 O91 2.035 1_554 S
Zn87 O93 2.035 . S
Zn87 O94 2.028 . S
O88 C84 1.258 . S
O88 Zn89 2.035 . S
Zn89 O88 2.035 . S
Zn89 O90 2.028 . S
Zn89 O92 2.028 . S
Zn89 O95 2.035 . S
O90 Zn89 2.028 . S
O90 C96 1.247 1_554 S
O91 Zn87 2.035 1_556 S
O91 C96 1.258 . S
O92 C85 1.247 . S
O92 Zn89 2.028 . S
O93 C85 1.258 . S
O93 Zn87 2.035 . S
O94 Zn87 2.028 . S
O94 C97 1.247 . S
O95 Zn89 2.035 . S
O95 C97 1.258 . S
C96 O90 1.247 1_556 S
C96 O91 1.258 . S
C97 O94 1.247 . S
C97 O95 1.258 . S
C98 O100 1.247 . S
C98 O102 1.258 . S
C99 O106 1.247 . S
C99 O107 1.258 . S
O100 C98 1.247 . S
O100 Zn101 2.028 . S
Zn101 O100 2.028 . S
Zn101 O105 2.035 . S
Zn101 O107 2.035 . S
Zn101 O108 2.028 . S
O102 C98 1.258 . S
O102 Zn103 2.035 . S
Zn103 O102 2.035 . S
Zn103 O104 2.028 . S
Zn103 O106 2.028 . S
Zn103 O109 2.035 . S
O104 Zn103 2.028 . S
O104 C110 1.247 . S
O105 Zn101 2.035 . S
O105 C110 1.258 . S
O106 C99 1.247 . S
O106 Zn103 2.028 . S
O107 C99 1.258 . S
O107 Zn101 2.035 . S
O108 Zn101 2.028 . S
O108 C111 1.247 . S
O109 Zn103 2.035 . S
O109 C111 1.258 . S
C110 O104 1.247 . S
C110 O105 1.258 . S
C111 O108 1.247 . S
C111 O109 1.258 . S
C112 C113 1.369 . S
C112 C114 1.419 . S
C112 H116 0.930 . S
C113 C112 1.369 . S
C113 C122 1.429 . S
C114 C112 1.419 . S
C114 C115 1.363 . S
C114 H117 0.929 . S
C115 C114 1.363 . S
C115 C121 1.428 . S
H116 C112 0.930 . S
H117 C114 0.929 . S
S118 N119 1.613 1_565 S
S118 N120 1.610 1_565 S
N119 S118 1.613 1_545 S
N119 C122 1.350 . S
N120 S118 1.610 1_545 S
N120 C121 1.351 . S
C121 C115 1.428 . S
C121 N120 1.351 . S
C121 C122 1.434 . S
C122 C113 1.429 . S
C122 N119 1.350 . S
C122 C121 1.434 . S
C123 C124 1.369 . S
C123 C125 1.419 . S
C123 H127 0.930 . S
C124 C123 1.369 . S
C124 C133 1.429 . S
C125 C123 1.419 . S
C125 C126 1.363 . S
C125 H128 0.929 . S
C126 C125 1.363 . S
C126 C132 1.428 . S
H127 C123 0.930 . S
H128 C125 0.929 . S
S129 N130 1.613 . S
S129 N131 1.610 . S
N130 S129 1.613 . S
N130 C133 1.350 . S
N131 S129 1.610 . S
N131 C132 1.351 . S
C132 C126 1.428 . S
C132 N131 1.351 . S
C132 C133 1.434 . S
C133 C124 1.429 . S
C133 N130 1.350 . S
C133 C132 1.434 . S
C134 C135 1.369 . S
C134 C136 1.419 . S
C134 H138 0.930 . S
C135 C134 1.369 . S
C135 C144 1.429 . S
C136 C134 1.419 . S
C136 C137 1.363 . S
C136 H139 0.929 . S
C137 C136 1.363 . S
C137 C143 1.428 . S
H138 C134 0.930 . S
H139 C136 0.929 . S
S140 N141 1.613 . S
S140 N142 1.610 . S
N141 S140 1.613 . S
N141 C144 1.350 . S
N142 S140 1.610 . S
N142 C143 1.351 . S
C143 C137 1.428 . S
C143 N142 1.351 . S
C143 C144 1.434 . S
C144 C135 1.429 . S
C144 N141 1.350 . S
C144 C143 1.434 . S
C145 C146 1.369 . S
C145 C147 1.419 . S
C145 H149 0.930 . S
C146 C145 1.369 . S
C146 C155 1.429 . S
C147 C145 1.419 . S
C147 C148 1.363 . S
C147 H150 0.929 . S
C148 C147 1.363 . S
C148 C154 1.428 . S
H149 C145 0.930 . S
H150 C147 0.929 . S
S151 N152 1.613 . S
S151 N153 1.610 . S
N152 S151 1.613 . S
N152 C155 1.350 . S
N153 S151 1.610 . S
N153 C154 1.351 . S
C154 C148 1.428 . S
C154 N153 1.351 . S
C154 C155 1.434 . S
C155 C146 1.429 . S
C155 N152 1.350 . S
C155 C154 1.434 . S
C156 C157 1.369 . S
C156 C158 1.419 . S
C156 H160 0.930 . S
C157 C156 1.369 . S
C157 C166 1.429 . S
C158 C156 1.419 . S
C158 C159 1.363 . S
C158 H161 0.929 . S
C159 C158 1.363 . S
C159 C165 1.428 . S
H160 C156 0.930 . S
H161 C158 0.929 . S
S162 N163 1.613 . S
S162 N164 1.610 . S
N163 S162 1.613 . S
N163 C166 1.350 . S
N164 S162 1.610 . S
N164 C165 1.351 . S
C165 C159 1.428 . S
C165 N164 1.351 . S
C165 C166 1.434 . S
C166 C157 1.429 . S
C166 N163 1.350 . S
C166 C165 1.434 . S
C167 C168 1.369 . S
C167 C169 1.419 . S
C167 H171 0.930 . S
C168 C167 1.369 . S
C168 C177 1.429 . S
C169 C167 1.419 . S
C169 C170 1.363 . S
C169 H172 0.929 . S
C170 C169 1.363 . S
C170 C176 1.428 . S
H171 C167 0.930 . S
H172 C169 0.929 . S
S173 N174 1.613 . S
S173 N175 1.610 . S
N174 S173 1.613 . S
N174 C177 1.350 . S
N175 S173 1.610 . S
N175 C176 1.351 . S
C176 C170 1.428 . S
C176 N175 1.351 . S
C176 C177 1.434 . S
C177 C168 1.429 . S
C177 N174 1.350 . S
C177 C176 1.434 . S
C178 C179 1.369 . S
C178 C180 1.419 . S
C178 H182 0.930 . S
C179 C178 1.369 . S
C179 C188 1.429 . S
C180 C178 1.419 . S
C180 C181 1.363 . S
C180 H183 0.929 . S
C181 C180 1.363 . S
C181 C187 1.428 . S
H182 C178 0.930 . S
H183 C180 0.929 . S
S184 N185 1.613 . S
S184 N186 1.610 . S
N185 S184 1.613 . S
N185 C188 1.350 . S
N186 S184 1.610 . S
N186 C187 1.351 . S
C187 C181 1.428 . S
C187 N186 1.351 . S
C187 C188 1.434 . S
C188 C179 1.429 . S
C188 N185 1.350 . S
C188 C187 1.434 . S
C189 C190 1.369 . S
C189 C191 1.419 . S
C189 H193 0.930 . S
C190 C189 1.369 . S
C190 C199 1.429 . S
C191 C189 1.419 . S
C191 C192 1.363 . S
C191 H194 0.929 . S
C192 C191 1.363 . S
C192 C198 1.428 . S
H193 C189 0.930 . S
H194 C191 0.929 . S
S195 N196 1.613 . S
S195 N197 1.610 . S
N196 S195 1.613 . S
N196 C199 1.350 . S
N197 S195 1.610 . S
N197 C198 1.351 . S
C198 C192 1.428 . S
C198 N197 1.351 . S
C198 C199 1.434 . S
C199 C190 1.429 . S
C199 N196 1.350 . S
C199 C198 1.434 . S
C200 C201 1.369 . S
C200 C202 1.419 1_455 S
C200 H204 0.930 . S
C201 C200 1.369 . S
C201 C210 1.429 . S
C202 C200 1.419 1_655 S
C202 C203 1.363 . S
C202 H205 0.929 . S
C203 C202 1.363 . S
C203 C209 1.428 . S
H204 C200 0.930 . S
H205 C202 0.929 . S
S206 N207 1.613 . S
S206 N208 1.610 1_455 S
N207 S206 1.613 . S
N207 C210 1.350 . S
N208 S206 1.610 1_655 S
N208 C209 1.351 . S
C209 C203 1.428 . S
C209 N208 1.351 . S
C209 C210 1.434 1_655 S
C210 C201 1.429 . S
C210 N207 1.350 . S
C210 C209 1.434 1_455 S
C211 C212 1.369 . S
C211 C213 1.419 . S
C211 H215 0.930 . S
C212 C211 1.369 . S
C212 C221 1.429 . S
C213 C211 1.419 . S
C213 C214 1.363 . S
C213 H216 0.929 . S
C214 C213 1.363 . S
C214 C220 1.428 . S
H215 C211 0.930 . S
H216 C213 0.929 . S
S217 N218 1.613 . S
S217 N219 1.610 . S
N218 S217 1.613 . S
N218 C221 1.350 . S
N219 S217 1.610 . S
N219 C220 1.351 . S
C220 C214 1.428 . S
C220 N219 1.351 . S
C220 C221 1.434 . S
C221 C212 1.429 . S
C221 N218 1.350 . S
C221 C220 1.434 . S
C222 C223 1.369 . S
C222 C224 1.419 1_455 S
C222 H226 0.930 . S
C223 C222 1.369 . S
C223 C232 1.429 . S
C224 C222 1.419 1_655 S
C224 C225 1.363 . S
C224 H227 0.929 . S
C225 C224 1.363 . S
C225 C231 1.428 . S
H226 C222 0.930 . S
H227 C224 0.929 . S
S228 N229 1.613 . S
S228 N230 1.610 1_455 S
N229 S228 1.613 . S
N229 C232 1.350 . S
N230 S228 1.610 1_655 S
N230 C231 1.351 . S
C231 C225 1.428 . S
C231 N230 1.351 . S
C231 C232 1.434 1_655 S
C232 C223 1.429 . S
C232 N229 1.350 . S
C232 C231 1.434 1_455 S
C233 C234 1.369 . S
C233 C235 1.419 . S
C233 H237 0.930 . S
C234 C233 1.369 . S
C234 C243 1.429 . S
C235 C233 1.419 . S
C235 C236 1.363 . S
C235 H238 0.929 . S
C236 C235 1.363 . S
C236 C242 1.428 . S
H237 C233 0.930 . S
H238 C235 0.929 . S
S239 N240 1.613 . S
S239 N241 1.610 . S
N240 S239 1.613 . S
N240 C243 1.350 . S
N241 S239 1.610 . S
N241 C242 1.351 . S
C242 C236 1.428 . S
C242 N241 1.351 . S
C242 C243 1.434 . S
C243 C234 1.429 . S
C243 N240 1.350 . S
C243 C242 1.434 . S
C244 C245 1.369 1_554 S
C244 C246 1.419 1_445 S
C244 H248 0.930 . S
C245 C244 1.369 1_556 S
C245 C254 1.429 . S
C246 C244 1.419 1_665 S
C246 C247 1.363 . S
C246 H249 0.929 . S
C247 C246 1.363 . S
C247 C253 1.428 1_554 S
H248 C244 0.930 . S
H249 C246 0.929 . S
S250 N251 1.605 1_655 S
S250 N252 1.610 1_545 S
N251 S250 1.605 1_455 S
N251 C254 1.351 . S
N252 S250 1.610 1_565 S
N252 C253 1.351 . S
C253 C247 1.428 1_556 S
C253 N252 1.351 . S
C253 C254 1.434 1_665 S
C254 C245 1.429 . S
C254 N251 1.351 . S
C254 C253 1.434 1_445 S
C255 C256 1.369 . S
C255 C257 1.419 . S
C255 H259 0.930 . S
C256 C255 1.369 . S
C256 C265 1.429 . S
C257 C255 1.419 . S
C257 C258 1.363 . S
C257 H260 0.929 . S
C258 C257 1.363 . S
C258 C264 1.428 . S
H259 C255 0.930 . S
H260 C257 0.929 . S
S261 N262 1.613 . S
S261 N263 1.610 . S
N262 S261 1.613 . S
N262 C265 1.350 . S
N263 S261 1.610 . S
N263 C264 1.351 . S
C264 C258 1.428 . S
C264 N263 1.351 . S
C264 C265 1.434 . S
C265 C256 1.429 . S
C265 N262 1.350 . S
C265 C264 1.434 . S
C266 C267 1.369 1_554 S
C266 C268 1.419 . S
C266 H270 0.930 . S
C267 C266 1.369 1_556 S
C267 C276 1.429 . S
C268 C266 1.419 . S
C268 C269 1.363 . S
C268 H271 0.929 . S
C269 C268 1.363 . S
C269 C275 1.428 1_554 S
H270 C266 0.930 . S
H271 C268 0.929 . S
S272 N273 1.613 . S
S272 N274 1.610 . S
N273 S272 1.613 . S
N273 C276 1.350 . S
N274 S272 1.610 . S
N274 C275 1.351 . S
C275 C269 1.428 1_556 S
C275 N274 1.351 . S
C275 C276 1.434 . S
C276 C267 1.429 . S
C276 N273 1.350 . S
C276 C275 1.434 . S
C277 C278 1.369 1_545 S
C277 C279 1.419 . S
C277 H281 0.930 . S
C278 C277 1.369 1_565 S
C278 C287 1.429 1_455 S
C279 C277 1.419 . S
C279 C280 1.363 1_455 S
C279 H282 0.929 . S
C280 C279 1.363 1_655 S
C280 C286 1.428 1_545 S
H281 C277 0.930 . S
H282 C279 0.929 . S
S283 N284 1.613 . S
S283 N285 1.610 . S
N284 S283 1.613 . S
N284 C287 1.350 . S
N285 S283 1.610 . S
N285 C286 1.351 . S
C286 C280 1.428 1_565 S
C286 N285 1.351 . S
C286 C287 1.434 . S
C287 C278 1.429 1_655 S
C287 N284 1.350 . S
C287 C286 1.434 . S
C113 C14 1.879 . S
C115 C13 1.928 . S
C124 C0 1.876 . S
C126 C27 1.928 . S
C135 C42 1.872 . S
C137 C41 1.931 . S
C146 C28 1.875 . S
C148 C55 1.929 . S
C157 C68 1.931 . S
C159 C71 1.873 . S
C168 C82 1.930 . S
C170 C57 1.876 . S
C179 C96 1.930 . S
C181 C99 1.876 . S
C190 C85 1.879 . S
C192 C110 1.928 . S
C201 C12 0.938 . S
C203 C54 0.927 . S
C212 C26 0.925 . S
C214 C40 0.936 . S
C223 C111 0.937 . S
C225 C69 0.928 . S
C234 C97 0.937 . S
C236 C83 0.928 . S
C245 C1 1.896 1_556 S
C247 C56 1.888 1_554 S
C256 C70 1.887 . S
C258 C15 1.895 . S
C267 C84 1.895 1_556 S
C269 C29 1.888 1_554 S
C278 C98 1.896 . S
C280 C43 1.888 . S
