# Generated by pormake.
# Topology unm, (4)-cn, num edge types: 1
# Building blocks:
#     Node 0, Type 0, BuildingBlock: NAHDIM_clean_sbu_0, # of connection points: 4
#     Node 1, Type 0, BuildingBlock: NAHDIM_clean_sbu_0, # of connection points: 4
#     Node 2, Type 0, BuildingBlock: NAHDIM_clean_sbu_0, # of connection points: 4
#     Node 3, Type 0, BuildingBlock: NAHDIM_clean_sbu_0, # of connection points: 4
#     Node 4, Type 0, BuildingBlock: NAHDIM_clean_sbu_0, # of connection points: 4
#     Node 5, Type 0, BuildingBlock: NAHDIM_clean_sbu_0, # of connection points: 4
#     Node 6, Type 0, BuildingBlock: NAHDIM_clean_sbu_0, # of connection points: 4
#     Node 7, Type 0, BuildingBlock: NAHDIM_clean_sbu_0, # of connection points: 4
#     Edge 8, Type (0, 0), BuildingBlock: TEMPAE_clean_linker_10, # of connection points: 2
#     Edge 9, Type (0, 0), BuildingBlock: TEMPAE_clean_linker_10, # of connection points: 2
#     Edge 10, Type (0, 0), BuildingBlock: TEMPAE_clean_linker_10, # of connection points: 2
#     Edge 11, Type (0, 0), BuildingBlock: TEMPAE_clean_linker_10, # of connection points: 2
#     Edge 12, Type (0, 0), BuildingBlock: TEMPAE_clean_linker_10, # of connection points: 2
#     Edge 13, Type (0, 0), BuildingBlock: TEMPAE_clean_linker_10, # of connection points: 2
#     Edge 14, Type (0, 0), BuildingBlock: TEMPAE_clean_linker_10, # of connection points: 2
#     Edge 15, Type (0, 0), BuildingBlock: TEMPAE_clean_linker_10, # of connection points: 2
#     Edge 16, Type (0, 0), BuildingBlock: TEMPAE_clean_linker_10, # of connection points: 2
#     Edge 17, Type (0, 0), BuildingBlock: TEMPAE_clean_linker_10, # of connection points: 2
#     Edge 18, Type (0, 0), BuildingBlock: TEMPAE_clean_linker_10, # of connection points: 2
#     Edge 19, Type (0, 0), BuildingBlock: TEMPAE_clean_linker_10, # of connection points: 2
#     Edge 20, Type (0, 0), BuildingBlock: TEMPAE_clean_linker_10, # of connection points: 2
#     Edge 21, Type (0, 0), BuildingBlock: TEMPAE_clean_linker_10, # of connection points: 2
#     Edge 22, Type (0, 0), BuildingBlock: TEMPAE_clean_linker_10, # of connection points: 2
#     Edge 23, Type (0, 0), BuildingBlock: TEMPAE_clean_linker_10, # of connection points: 2
# Relax obj value: 0.220
# Max RMSD: 0.179
# Mean RMSD: 0.179
data_MOF--net-unm--node1-NAHDIM_clean_sbu_0--edge1-TEMPAE_clean_linker_10
_symmetry_space_group_name_H-M    P1
_symmetry_Int_Tables_number       1
_symmetry_cell_setting            triclinic
loop_
_symmetry_equiv_pos_as_xyz
'x, y, z'
_cell_length_a     26.532692
_cell_length_b     26.569975
_cell_length_c     42.105402
_cell_angle_alpha  90.0237
_cell_angle_beta   90.070662
_cell_angle_gamma 89.994818
loop_
_atom_site_label
_atom_site_type_symbol
_atom_site_fract_x
_atom_site_fract_y
_atom_site_fract_z
_atom_type_partial_charge
C0 C 0.21537 0.29408 0.19903 0.0
O1 O 0.17709 0.29532 0.21878 0.0
O2 O 0.0912 0.24703 0.18824 0.0
Zn3 Zn 0.13764 0.26933 0.15304 0.0
O4 O 0.14284 0.21944 0.11694 0.0
C5 C 0.06024 0.34009 0.13715 0.0
O6 O 0.03189 0.30331 0.14779 0.0
O7 O 0.20744 0.28364 0.16998 0.0
C8 C 0.10767 0.21285 0.0968 0.0
O9 O 0.06487 0.2369 0.10052 0.0
C10 C 0.06036 0.21049 0.18715 0.0
O11 O 0.06273 0.17868 0.16332 0.0
O12 O 0.10786 0.33427 0.13644 0.0
C13 C 0.26972 0.62859 0.67694 0.0
O14 O 0.30632 0.62586 0.65604 0.0
O15 O 0.25616 0.47209 0.66633 0.0
Zn16 Zn 0.22984 0.5361 0.64722 0.0
O17 O 0.25944 0.55157 0.60455 0.0
C18 C 0.13206 0.5267 0.61545 0.0
O19 O 0.15641 0.53718 0.58913 0.0
O20 O 0.23591 0.59476 0.67728 0.0
C21 C 0.30519 0.54972 0.59581 0.0
O22 O 0.34018 0.53622 0.6162 0.0
C23 C 0.24386 0.46394 0.69503 0.0
O24 O 0.22011 0.49941 0.71081 0.0
O25 O 0.15591 0.52481 0.6416 0.0
C26 C 0.7931 0.79777 0.19663 0.0
O27 O 0.82267 0.83151 0.20982 0.0
O28 O 0.92905 0.80206 0.19034 0.0
Zn29 Zn 0.88073 0.77668 0.15716 0.0
O30 O 0.8839 0.81594 0.11637 0.0
C31 C 0.90317 0.68228 0.12291 0.0
O32 O 0.88298 0.7032 0.09765 0.0
O33 O 0.80972 0.7716 0.17367 0.0
C34 C 0.92409 0.81711 0.09994 0.0
O35 O 0.96466 0.7945 0.11079 0.0
C36 C 0.95806 0.83995 0.18824 0.0
O37 O 0.95347 0.8706 0.16395 0.0
O38 O 0.9046 0.70649 0.14891 0.0
C39 C 0.72796 0.30376 0.70341 0.0
O40 O 0.74708 0.34409 0.71689 0.0
O41 O 0.67642 0.42925 0.69526 0.0
Zn42 Zn 0.68833 0.37792 0.66074 0.0
O43 O 0.63647 0.37481 0.6257 0.0
C44 C 0.76673 0.44372 0.63855 0.0
O45 O 0.73589 0.47863 0.64902 0.0
O46 O 0.69955 0.30888 0.67929 0.0
C47 C 0.6281 0.41165 0.60714 0.0
O48 O 0.649 0.45536 0.61331 0.0
C49 C 0.6433 0.46368 0.69702 0.0
O50 O 0.6066 0.46499 0.67608 0.0
O51 O 0.75393 0.39773 0.64063 0.0
C52 C 0.72053 0.27036 0.28446 0.0
O53 O 0.68568 0.28725 0.26501 0.0
O54 O 0.58476 0.27622 0.2977 0.0
Zn55 Zn 0.63809 0.26099 0.33037 0.0
O56 O 0.63259 0.30667 0.36829 0.0
C57 C 0.61952 0.17477 0.37276 0.0
O58 O 0.6281 0.20563 0.39653 0.0
O59 O 0.70862 0.25927 0.31281 0.0
C60 C 0.59012 0.31455 0.38137 0.0
O61 O 0.54938 0.29509 0.36853 0.0
C62 C 0.56343 0.31817 0.2923 0.0
O63 O 0.57937 0.35869 0.30711 0.0
O64 O 0.62266 0.19072 0.34438 0.0
C65 C 0.22164 0.11994 0.79354 0.0
O66 O 0.17652 0.10178 0.79931 0.0
O67 O 0.23816 0.97482 0.80844 0.0
Zn68 Zn 0.25805 0.03674 0.83296 0.0
O69 O 0.21442 0.04995 0.8711 0.0
C70 C 0.34373 0.01744 0.87562 0.0
O71 O 0.3104 0.01431 0.89858 0.0
O72 O 0.26 0.09753 0.80471 0.0
C73 C 0.22048 0.09293 0.8838 0.0
O74 O 0.25218 0.12468 0.87066 0.0
C75 C 0.25019 0.93233 0.82009 0.0
O76 O 0.27033 0.93076 0.84859 0.0
O77 O 0.32916 0.02645 0.84743 0.0
C78 C 0.29276 0.7807 0.29126 0.0
O79 O 0.32198 0.74889 0.27606 0.0
O80 O 0.42637 0.76569 0.30139 0.0
Zn81 Zn 0.37636 0.78367 0.33548 0.0
O82 O 0.37136 0.73088 0.36958 0.0
C83 C 0.44435 0.84482 0.37133 0.0
O84 O 0.46573 0.80101 0.37659 0.0
O85 O 0.30805 0.79965 0.31724 0.0
C86 C 0.35435 0.74611 0.39608 0.0
O87 O 0.3395 0.79312 0.39864 0.0
C88 C 0.46332 0.73651 0.30684 0.0
O89 O 0.46525 0.71238 0.33405 0.0
O90 O 0.40409 0.84662 0.35497 0.0
C91 C 0.74086 0.77473 0.81976 0.0
O92 O 0.73059 0.77981 0.85012 0.0
O93 O 0.777 0.93678 0.8048 0.0
Zn94 Zn 0.77369 0.87386 0.83131 0.0
O95 O 0.83046 0.86516 0.86247 0.0
C96 C 0.70404 0.92366 0.87294 0.0
O97 O 0.74009 0.95748 0.87423 0.0
O98 O 0.76238 0.81091 0.80532 0.0
C99 C 0.85521 0.90099 0.87503 0.0
O100 O 0.84803 0.94715 0.86483 0.0
C101 C 0.81216 0.95958 0.79029 0.0
O102 O 0.85784 0.94049 0.79012 0.0
O103 O 0.71091 0.88384 0.85682 0.0
C104 C 0.08139 0.18361 0.0428 0.0
C105 C 0.11723 0.18398 0.06734 0.0
C106 C 0.09286 0.16308 0.01296 0.0
C107 C 0.14122 0.14233 0.00764 0.0
C108 C 0.17624 0.13938 0.03296 0.0
C109 C 0.16385 0.16032 0.06252 0.0
C110 C 0.05441 0.16669 0.98659 0.0
C111 C 0.22805 0.11704 0.0283 0.0
C112 C 0.17125 0.06908 0.93237 0.0
C113 C 0.19611 0.10584 0.9143 0.0
C114 C 0.15197 0.08051 0.9626 0.0
C115 C 0.15764 0.12982 0.97485 0.0
C116 C 0.18116 0.1674 0.95622 0.0
C117 C 0.20015 0.15492 0.92623 0.0
C118 C 0.12699 0.03956 0.9818 0.0
C119 C 0.18754 0.22059 0.9683 0.0
H120 H 0.04508 0.20142 0.04637 0.0
H121 H 0.19156 0.15991 0.08146 0.0
H122 H 0.06665 0.19553 0.96918 0.0
H123 H 0.05135 0.13039 0.97371 0.0
H124 H 0.01653 0.17731 0.9956 0.0
H125 H 0.24847 0.11209 0.05114 0.0
H126 H 0.22538 0.08 0.01626 0.0
H127 H 0.25067 0.14216 0.01282 0.0
H128 H 0.16804 0.03104 0.92328 0.0
H129 H 0.21895 0.18363 0.91232 0.0
H130 H 0.08958 0.05229 0.99036 0.0
H131 H 0.15021 0.03108 0.00307 0.0
H132 H 0.12201 0.00432 0.96794 0.0
H133 H 0.15049 0.23637 0.97535 0.0
H134 H 0.2047 0.24584 0.95029 0.0
H135 H 0.21192 0.22056 0.98973 0.0
C136 C 0.36763 0.58328 0.55651 0.0
C137 C 0.31845 0.56775 0.56368 0.0
C138 C 0.37841 0.60724 0.52755 0.0
C139 C 0.33909 0.61541 0.50535 0.0
C140 C 0.29023 0.59661 0.51161 0.0
C141 C 0.28049 0.57317 0.54072 0.0
C142 C 0.43103 0.62662 0.52163 0.0
C143 C 0.24737 0.60403 0.48842 0.0
C144 C 0.33961 0.73199 0.45381 0.0
C145 C 0.35255 0.71239 0.424 0.0
C146 C 0.33685 0.70096 0.48061 0.0
C147 C 0.34696 0.64888 0.47755 0.0
C148 C 0.36104 0.62888 0.44769 0.0
C149 C 0.3638 0.66096 0.42121 0.0
C150 C 0.32193 0.72382 0.5121 0.0
C151 C 0.37193 0.5735 0.44357 0.0
H152 H 0.39717 0.579 0.57411 0.0
H153 H 0.24254 0.56052 0.54591 0.0
H154 H 0.44354 0.6171 0.49723 0.0
H155 H 0.43122 0.66825 0.52372 0.0
H156 H 0.45867 0.61106 0.53888 0.0
H157 H 0.21329 0.58226 0.49521 0.0
H158 H 0.23716 0.64451 0.48746 0.0
H159 H 0.25893 0.59258 0.46417 0.0
H160 H 0.33132 0.77175 0.45626 0.0
H161 H 0.37404 0.6456 0.39825 0.0
H162 H 0.35038 0.71452 0.53051 0.0
H163 H 0.28542 0.70777 0.51998 0.0
H164 H 0.31806 0.76541 0.51081 0.0
H165 H 0.40029 0.56091 0.46124 0.0
H166 H 0.38602 0.56455 0.41938 0.0
H167 H 0.33708 0.55148 0.44788 0.0
C168 C 0.87786 0.85501 0.05416 0.0
C169 C 0.92337 0.83841 0.06746 0.0
C170 C 0.87503 0.8694 0.0222 0.0
C171 C 0.91889 0.86761 0.0031 0.0
C172 C 0.96559 0.85379 0.01682 0.0
C173 C 0.96725 0.83906 0.04885 0.0
C174 C 0.82444 0.88399 0.00849 0.0
C175 C 0.0133 0.85232 -0.00265 0.0
C176 C 0.88578 0.84272 0.91732 0.0
C177 C 0.88258 0.89177 0.90516 0.0
C178 C 0.90119 0.83403 0.94867 0.0
C179 C 0.91414 0.87537 0.96827 0.0
C180 C 0.9156 0.92446 0.95526 0.0
C181 C 0.89963 0.93214 0.9238 0.0
C182 C 0.89954 0.78098 0.96153 0.0
C183 C 0.93034 0.96933 0.9752 0.0
H184 H 0.84384 0.85495 0.06838 0.0
H185 H 0.00269 0.82673 0.05903 0.0
H186 H 0.82711 0.92084 -0.00375 0.0
H187 H 0.81267 0.85571 0.99054 0.0
H188 H 0.79465 0.88649 0.02694 0.0
H189 H 0.04742 0.84841 0.01247 0.0
H190 H 0.01185 0.8199 0.98077 0.0
H191 H 0.01695 0.88692 0.98279 0.0
H192 H 0.87341 0.81118 0.90295 0.0
H193 H 0.89785 0.97013 0.9145 0.0
H194 H 0.86792 0.77752 0.97862 0.0
H195 H 0.9348 0.77206 0.97452 0.0
H196 H 0.89414 0.7526 0.94244 0.0
H197 H 0.89895 0.97892 0.9915 0.0
H198 H 0.93867 0.00287 0.96035 0.0
H199 H 0.96383 0.96068 0.99002 0.0
C200 C 0.54115 0.34683 0.42802 0.0
C201 C 0.58769 0.33861 0.41306 0.0
C202 C 0.5388 0.3639 0.45958 0.0
C203 C 0.58407 0.37224 0.47658 0.0
C204 C 0.63106 0.36621 0.46111 0.0
C205 C 0.63227 0.34976 0.42951 0.0
C206 C 0.48802 0.3709 0.47508 0.0
C207 C 0.68026 0.37474 0.47841 0.0
C208 C 0.59806 0.44253 0.55427 0.0
C209 C 0.60514 0.40254 0.57558 0.0
C210 C 0.58683 0.43345 0.52218 0.0
C211 C 0.58323 0.38324 0.51119 0.0
C212 C 0.58605 0.34297 0.53313 0.0
C213 C 0.59664 0.35313 0.56512 0.0
C214 C 0.58265 0.47747 0.49968 0.0
C215 C 0.58221 0.28884 0.52241 0.0
H216 H 0.50648 0.33868 0.41537 0.0
H217 H 0.66839 0.34372 0.41814 0.0
H218 H 0.48163 0.34033 0.49254 0.0
H219 H 0.48666 0.40708 0.48822 0.0
H220 H 0.45679 0.37019 0.45748 0.0
H221 H 0.71345 0.37069 0.46256 0.0
H222 H 0.68096 0.41293 0.48905 0.0
H223 H 0.68392 0.34723 0.49811 0.0
H224 H 0.60381 0.4809 0.56225 0.0
H225 H 0.60153 0.32199 0.58146 0.0
H226 H 0.55119 0.47185 0.48266 0.0
H227 H 0.61791 0.48063 0.48567 0.0
H228 H 0.57669 0.5135 0.51254 0.0
H229 H 0.54885 0.28347 0.50689 0.0
H230 H 0.5795 0.26235 0.54274 0.0
H231 H 0.61608 0.27892 0.50828 0.0
C232 C 0.27757 0.30318 0.24333 0.0
C233 C 0.26732 0.30318 0.21066 0.0
C234 C 0.32693 0.30918 0.25473 0.0
C235 C 0.36697 0.31605 0.23294 0.0
C236 C 0.35667 0.31778 0.19997 0.0
C237 C 0.30701 0.31094 0.1892 0.0
C238 C 0.33642 0.30654 0.29007 0.0
C239 C 0.39826 0.32577 0.17606 0.0
C240 C 0.4895 0.36415 0.26885 0.0
C241 C 0.51613 0.31912 0.27349 0.0
C242 C 0.44166 0.36412 0.25442 0.0
C243 C 0.41985 0.31793 0.24473 0.0
C244 C 0.44744 0.27269 0.24819 0.0
C245 C 0.49528 0.27388 0.26232 0.0
C246 C 0.41371 0.41324 0.25064 0.0
C247 C 0.42548 0.22259 0.23832 0.0
H248 H 0.24715 0.2972 0.26007 0.0
H249 H 0.29932 0.31145 0.16391 0.0
H250 H 0.36085 0.27374 0.29551 0.0
H251 H 0.35666 0.34074 0.29818 0.0
H252 H 0.30098 0.30292 0.30391 0.0
H253 H 0.38351 0.3303 0.15152 0.0
H254 H 0.42058 0.35966 0.18235 0.0
H255 H 0.42438 0.29318 0.17644 0.0
H256 H 0.50538 0.39931 0.27726 0.0
H257 H 0.51554 0.23884 0.26566 0.0
H258 H 0.38056 0.41371 0.26667 0.0
H259 H 0.3994 0.41716 0.22599 0.0
H260 H 0.4378 0.44625 0.2563 0.0
H261 H 0.39174 0.2142 0.25294 0.0
H262 H 0.45281 0.19121 0.24111 0.0
H263 H 0.41308 0.22396 0.21317 0.0
C264 C 0.22344 0.67768 0.71839 0.0
C265 C 0.26605 0.67192 0.69898 0.0
C266 C 0.21842 0.7193 0.73865 0.0
C267 C 0.25709 0.75591 0.7397 0.0
C268 C 0.30044 0.7501 0.72044 0.0
C269 C 0.30433 0.70824 0.70022 0.0
C270 C 0.17156 0.72431 0.75874 0.0
C271 C 0.34264 0.78822 0.72113 0.0
C272 C 0.22824 0.88779 0.76945 0.0
C273 C 0.24776 0.88616 0.80042 0.0
C274 C 0.23015 0.84535 0.74962 0.0
C275 C 0.25228 0.80032 0.76098 0.0
C276 C 0.27083 0.79803 0.79247 0.0
C277 C 0.26821 0.84092 0.81183 0.0
C278 C 0.20953 0.84904 0.71625 0.0
C279 C 0.29468 0.75068 0.80543 0.0
H280 H 0.19357 0.64989 0.71755 0.0
H281 H 0.33739 0.70404 0.68536 0.0
H282 H 0.18194 0.72605 0.78424 0.0
H283 H 0.15179 0.75993 0.7529 0.0
H284 H 0.14498 0.6925 0.75517 0.0
H285 H 0.37408 0.77791 0.70497 0.0
H286 H 0.3281 0.82575 0.7141 0.0
H287 H 0.35773 0.79176 0.74561 0.0
H288 H 0.2123 0.92255 0.76046 0.0
H289 H 0.28341 0.83927 0.83571 0.0
H290 H 0.18132 0.81893 0.71208 0.0
H291 H 0.24041 0.84338 0.69887 0.0
H292 H 0.19155 0.88604 0.71152 0.0
H293 H 0.26818 0.71857 0.80319 0.0
H294 H 0.30575 0.75456 0.83077 0.0
H295 H 0.32874 0.74118 0.79138 0.0
C296 C 0.55184 0.71129 0.29407 0.0
C297 C 0.50799 0.73768 0.28575 0.0
C298 C 0.59697 0.71842 0.2773 0.0
C299 C 0.59823 0.7527 0.25158 0.0
C300 C 0.55343 0.77725 0.24192 0.0
C301 C 0.50882 0.76941 0.2591 0.0
C302 C 0.64388 0.69118 0.28816 0.0
C303 C 0.55317 0.81378 0.21446 0.0
C304 C 0.72391 0.81594 0.23536 0.0
C305 C 0.74209 0.78793 0.20957 0.0
C306 C 0.6768 0.80529 0.24891 0.0
C307 C 0.64714 0.76562 0.23639 0.0
C308 C 0.66479 0.73779 0.21 0.0
C309 C 0.71204 0.7493 0.19689 0.0
C310 C 0.65911 0.83599 0.27697 0.0
C311 C 0.63418 0.69532 0.19598 0.0
H312 H 0.55154 0.68651 0.31451 0.0
H313 H 0.47507 0.7898 0.25237 0.0
H314 H 0.66234 0.6722 0.26779 0.0
H315 H 0.67121 0.71874 0.29796 0.0
H316 H 0.63569 0.66263 0.30672 0.0
H317 H 0.51442 0.82591 0.20798 0.0
H318 H 0.57545 0.84765 0.22085 0.0
H319 H 0.57117 0.79663 0.19329 0.0
H320 H 0.74676 0.8459 0.24527 0.0
H321 H 0.72572 0.72745 0.17694 0.0
H322 H 0.65403 0.81117 0.29791 0.0
H323 H 0.62198 0.85328 0.27167 0.0
H324 H 0.68606 0.86636 0.28335 0.0
H325 H 0.62891 0.66531 0.21398 0.0
H326 H 0.65238 0.67859 0.1747 0.0
H327 H 0.59614 0.709 0.18922 0.0
C328 C 0.73359 0.21036 0.69623 0.0
C329 C 0.74138 0.253 0.71527 0.0
C330 C 0.74728 0.16218 0.70691 0.0
C331 C 0.76848 0.15643 0.73757 0.0
C332 C 0.77644 0.19934 0.75689 0.0
C333 C 0.76315 0.24715 0.7454 0.0
C334 C 0.73874 0.1174 0.68548 0.0
C335 C 0.79818 0.19467 0.78992 0.0
C336 C 0.75312 0.03055 0.77886 0.0
C337 C 0.80128 0.00919 0.77561 0.0
C338 C 0.74202 0.07819 0.76645 0.0
C339 C 0.77985 0.10529 0.75013 0.0
C340 C 0.82837 0.08382 0.74632 0.0
C341 C 0.83859 0.03602 0.7592 0.0
C342 C 0.68988 0.09982 0.7712 0.0
C343 C 0.86955 0.11152 0.72886 0.0
H344 H 0.71726 0.21465 0.67277 0.0
H345 H 0.76922 0.27993 0.76026 0.0
H346 H 0.77446 0.09627 0.68231 0.0
H347 H 0.71126 0.09133 0.69655 0.0
H348 H 0.72429 0.12852 0.66172 0.0
H349 H 0.80306 0.23181 0.80165 0.0
H350 H 0.77301 0.17117 0.80483 0.0
H351 H 0.83529 0.17552 0.789 0.0
H352 H 0.72395 0.01029 0.79154 0.0
H353 H 0.87585 0.01985 0.75656 0.0
H354 H 0.6724 0.10838 0.74788 0.0
H355 H 0.69238 0.13573 0.78457 0.0
H356 H 0.66466 0.07379 0.78436 0.0
H357 H 0.85671 0.12127 0.70454 0.0
H358 H 0.90475 0.08907 0.7271 0.0
H359 H 0.87818 0.14737 0.74124 0.0
C360 C 0.78781 0.27794 0.24308 0.0
C361 C 0.77243 0.26068 0.27299 0.0
C362 C 0.83628 0.26738 0.2315 0.0
C363 C 0.86998 0.23839 0.25015 0.0
C364 C 0.85478 0.22101 0.28041 0.0
C365 C 0.80629 0.23259 0.29154 0.0
C366 C 0.85139 0.28716 0.19926 0.0
C367 C 0.88956 0.18979 0.30087 0.0
C368 C 0.97597 0.17714 0.20354 0.0
C369 C 0.01506 0.21206 0.20772 0.0
C370 C 0.92914 0.18392 0.21848 0.0
C371 C 0.92123 0.22674 0.23789 0.0
C372 C 0.96147 0.26042 0.24372 0.0
C373 C 0.00796 0.25253 0.22872 0.0
C374 C 0.88733 0.14671 0.21211 0.0
C375 C 0.95461 0.3065 0.26429 0.0
H376 H 0.76196 0.29976 0.22865 0.0
H377 H 0.79466 0.21885 0.31463 0.0
H378 H 0.88552 0.31107 0.20146 0.0
H379 H 0.86107 0.25534 0.18332 0.0
H380 H 0.82103 0.30968 0.18792 0.0
H381 H 0.87201 0.17917 0.32385 0.0
H382 H 0.90037 0.15491 0.28807 0.0
H383 H 0.92477 0.21092 0.3058 0.0
H384 H 0.98114 0.14563 0.18751 0.0
H385 H 0.03795 0.27966 0.23226 0.0
H386 H 0.8576 0.16494 0.19755 0.0
H387 H 0.86961 0.13466 0.23471 0.0
H388 H 0.90097 0.11281 0.19927 0.0
H389 H 0.92835 0.33305 0.25243 0.0
H390 H 0.99077 0.32636 0.26881 0.0
H391 H 0.93761 0.29609 0.28742 0.0
C392 C 0.23999 0.40585 0.74149 0.0
C393 C 0.24888 0.41312 0.709 0.0
C394 C 0.23846 0.35735 0.75456 0.0
C395 C 0.2455 0.31508 0.73459 0.0
C396 C 0.25616 0.32218 0.70196 0.0
C397 C 0.25802 0.3712 0.68957 0.0
C398 C 0.22781 0.35131 0.78959 0.0
C399 C 0.26369 0.27798 0.67992 0.0
C400 C 0.27585 0.19078 0.77458 0.0
C401 C 0.22805 0.16829 0.77651 0.0
C402 C 0.28227 0.23814 0.76046 0.0
C403 C 0.23995 0.26349 0.74776 0.0
C404 C 0.19183 0.24045 0.74883 0.0
C405 C 0.18642 0.19316 0.7633 0.0
C406 C 0.3341 0.26163 0.75993 0.0
C407 C 0.14587 0.26624 0.73528 0.0
H408 H 0.23318 0.4381 0.75667 0.0
H409 H 0.26469 0.37652 0.6644 0.0
H410 H 0.19128 0.33169 0.7929 0.0
H411 H 0.25734 0.32775 0.80087 0.0
H412 H 0.22615 0.38803 0.80218 0.0
H413 H 0.27431 0.28992 0.65555 0.0
H414 H 0.29347 0.25271 0.6893 0.0
H415 H 0.2284 0.25568 0.67852 0.0
H416 H 0.30828 0.17189 0.78474 0.0
H417 H 0.14943 0.17599 0.76459 0.0
H418 H 0.33403 0.2967 0.77425 0.0
H419 H 0.3445 0.27217 0.73531 0.0
H420 H 0.36349 0.23602 0.76954 0.0
H421 H 0.13845 0.30157 0.74853 0.0
H422 H 0.11169 0.24217 0.73652 0.0
H423 H 0.15257 0.27666 0.71012 0.0
C424 C 0.22523 0.77245 0.2501 0.0
C425 C 0.24278 0.7947 0.27821 0.0
C426 C 0.17787 0.78494 0.23754 0.0
C427 C 0.14731 0.82069 0.2534 0.0
C428 C 0.16495 0.84373 0.2816 0.0
C429 C 0.21247 0.83039 0.29371 0.0
C430 C 0.16029 0.7594 0.20743 0.0
C431 C 0.13346 0.88207 0.2991 0.0
C432 C 0.04322 0.87465 0.20178 0.0
C433 C 0.00305 0.84235 0.20907 0.0
C434 C 0.08982 0.87006 0.2174 0.0
C435 C 0.09624 0.83233 0.2408 0.0
C436 C 0.05474 0.80217 0.24987 0.0
C437 C 0.00863 0.80762 0.23394 0.0
C438 C 0.13304 0.90336 0.20735 0.0
C439 C 0.05988 0.76176 0.27488 0.0
H440 H 0.24837 0.74492 0.23794 0.0
H441 H 0.22579 0.84793 0.3154 0.0
H442 H 0.12526 0.73787 0.21215 0.0
H443 H 0.15127 0.788 0.1891 0.0
H444 H 0.18899 0.7332 0.19766 0.0
H445 H 0.15338 0.89789 0.32006 0.0
H446 H 0.12312 0.91339 0.28293 0.0
H447 H 0.09781 0.86449 0.30723 0.0
H448 H 0.03921 0.90178 0.18273 0.0
H449 H 0.97764 0.78284 0.24 0.0
H450 H 0.16093 0.88069 0.1939 0.0
H451 H 0.15267 0.91903 0.22843 0.0
H452 H 0.12034 0.93497 0.19205 0.0
H453 H 0.08421 0.73104 0.26572 0.0
H454 H 0.02288 0.74542 0.28165 0.0
H455 H 0.07827 0.77705 0.2965 0.0
C456 C 0.69567 0.50785 0.73778 0.0
C457 C 0.65228 0.50685 0.71865 0.0
C458 C 0.70883 0.55094 0.75514 0.0
C459 C 0.67767 0.59407 0.7536 0.0
C460 C 0.6327 0.59269 0.73544 0.0
C461 C 0.62058 0.5491 0.71811 0.0
C462 C 0.75707 0.55085 0.77425 0.0
C463 C 0.59823 0.6378 0.73355 0.0
C464 C 0.69495 0.69263 0.81804 0.0
C465 C 0.72508 0.72856 0.80266 0.0
C466 C 0.67861 0.64909 0.80223 0.0
C467 C 0.69307 0.64099 0.77031 0.0
C468 C 0.72352 0.67703 0.75462 0.0
C469 C 0.73901 0.72051 0.77095 0.0
C470 C 0.64601 0.61166 0.81972 0.0
C471 C 0.74006 0.66945 0.72065 0.0
H472 H 0.72046 0.47543 0.73844 0.0
H473 H 0.58699 0.5487 0.70344 0.0
H474 H 0.78346 0.57931 0.76452 0.0
H475 H 0.74925 0.56141 0.79925 0.0
H476 H 0.77605 0.51359 0.774 0.0
H477 H 0.56321 0.62966 0.72 0.0
H478 H 0.58776 0.65051 0.75776 0.0
H479 H 0.61816 0.66947 0.72187 0.0
H480 H 0.68373 0.69862 0.84249 0.0
H481 H 0.76225 0.74806 0.7589 0.0
H482 H 0.66548 0.57477 0.82107 0.0
H483 H 0.61024 0.60563 0.80659 0.0
H484 H 0.63694 0.62421 0.84422 0.0
H485 H 0.76242 0.6343 0.71866 0.0
H486 H 0.76323 0.70127 0.71174 0.0
H487 H 0.70662 0.66519 0.70504 0.0
C488 C 0.92778 0.60462 0.09269 0.0
C489 C 0.92567 0.63139 0.12138 0.0
C490 C 0.94984 0.55658 0.09133 0.0
C491 C 0.97004 0.53502 0.11933 0.0
C492 C 0.96804 0.56192 0.1483 0.0
C493 C 0.94594 0.6097 0.14895 0.0
C494 C 0.95143 0.52883 0.06006 0.0
C495 C 0.98902 0.54012 0.17872 0.0
C496 C 0.98447 0.39471 0.13097 0.0
C497 C 0.03687 0.38873 0.12856 0.0
C498 C 0.96184 0.44174 0.12628 0.0
C499 C 0.99235 0.48381 0.11896 0.0
C500 C 0.04493 0.47755 0.11482 0.0
C501 C 0.06664 0.43 0.11971 0.0
C502 C 0.90563 0.4469 0.13093 0.0
C503 C 0.0786 0.52158 0.10688 0.0
H504 H 0.91233 0.62121 0.07127 0.0
H505 H 0.94454 0.63006 0.17125 0.0
H506 H 0.99094 0.51926 0.05395 0.0
H507 H 0.93042 0.49288 0.06205 0.0
H508 H 0.93493 0.55121 0.04034 0.0
H509 H 0.98499 0.56624 0.19917 0.0
H510 H 0.96929 0.50447 0.18451 0.0
H511 H 0.02956 0.53109 0.17572 0.0
H512 H 0.9611 0.36293 0.13755 0.0
H513 H 0.10711 0.42558 0.1176 0.0
H514 H 0.88844 0.46731 0.11066 0.0
H515 H 0.89811 0.4693 0.15267 0.0
H516 H 0.8867 0.40981 0.13342 0.0
H517 H 0.06293 0.54314 0.08659 0.0
H518 H 0.11753 0.50949 0.10088 0.0
H519 H 0.08047 0.54751 0.12751 0.0
C520 C 0.83312 0.50798 0.62773 0.0
C521 C 0.81783 0.45746 0.62772 0.0
C522 C 0.8833 0.5211 0.62153 0.0
C523 C 0.91887 0.48274 0.6152 0.0
C524 C 0.90302 0.43199 0.61317 0.0
C525 C 0.85259 0.41993 0.61945 0.0
C526 C 0.8988 0.57568 0.62372 0.0
C527 C 0.9399 0.39007 0.60635 0.0
C528 C 0.05001 0.51738 0.58644 0.0
C529 C 0.07735 0.5163 0.61497 0.0
C530 C -0.00185 0.50677 0.58602 0.0
C531 C 0.97339 0.49484 0.6148 0.0
C532 C 0.00077 0.49398 0.64364 0.0
C533 C 0.05236 0.50472 0.64337 0.0
C534 C 0.96994 0.50808 0.55488 0.0
C535 C 0.97563 0.48143 0.67485 0.0
H536 H 0.80635 0.53726 0.63379 0.0
H537 H 0.84094 0.38083 0.61909 0.0
H538 H 0.92181 0.58147 0.64544 0.0
H539 H 0.92246 0.58633 0.60309 0.0
H540 H 0.86577 0.60133 0.62477 0.0
H541 H 0.92063 0.35366 0.60177 0.0
H542 H 0.9636 0.39952 0.58551 0.0
H543 H 0.96549 0.38525 0.62699 0.0
H544 H 0.06909 0.52633 0.56441 0.0
H545 H 0.07315 0.50383 0.66554 0.0
H546 H 0.93834 0.53533 0.55632 0.0
H547 H 0.95327 0.4706 0.54991 0.0
H548 H 0.99459 0.51875 0.53467 0.0
H549 H 0.94453 0.50832 0.67955 0.0
H550 H 0.00234 0.48269 0.69518 0.0
H551 H 0.95885 0.44323 0.67367 0.0
C552 C 0.58225 0.10892 0.40822 0.0
C553 C 0.60132 0.12306 0.37848 0.0
C554 C 0.55897 0.06193 0.41246 0.0
C555 C 0.55503 0.02856 0.38636 0.0
C556 C 0.57685 0.04155 0.35683 0.0
C557 C 0.59962 0.08867 0.35325 0.0
C558 C 0.53638 0.0491 0.44432 0.0
C559 C 0.57394 0.00673 0.32849 0.0
C560 C 0.51993 0.8908 0.39175 0.0
C561 C 0.47013 0.89189 0.38052 0.0
C562 C 0.54737 0.93547 0.39585 0.0
C563 C 0.52431 0.98208 0.38861 0.0
C564 C 0.47298 0.98355 0.37945 0.0
C565 C 0.44651 0.93839 0.37549 0.0
C566 C 0.60195 0.93248 0.40584 0.0
C567 C 0.44692 0.03261 0.37175 0.0
H568 H 0.58359 0.13533 0.42784 0.0
H569 H 0.6149 0.09911 0.33031 0.0
H570 H 0.49466 0.05012 0.44257 0.0
H571 H 0.54716 0.01043 0.45157 0.0
H572 H 0.54837 0.07588 0.46314 0.0
H573 H 0.59609 0.02088 0.30798 0.0
H574 H 0.58805 0.96876 0.33489 0.0
H575 H 0.53408 0.00253 0.32093 0.0
H576 H 0.53835 0.85499 0.3959 0.0
H577 H 0.40782 0.93954 0.3672 0.0
H578 H 0.61065 0.9614 0.42404 0.0
H579 H 0.62638 0.94002 0.38501 0.0
H580 H 0.61179 0.89481 0.41548 0.0
H581 H 0.45332 0.06049 0.39094 0.0
H582 H 0.40566 0.02776 0.36838 0.0
H583 H 0.46296 0.0485 0.34958 0.0
C584 C 0.43224 0.0107 0.85664 0.0
C585 C 0.39767 0.00744 0.88171 0.0
C586 C 0.4829 -0.00194 0.861 0.0
C587 C 0.49961 0.98189 0.89125 0.0
C588 C 0.46546 0.9802 0.91702 0.0
C589 C 0.41468 0.99293 0.91192 0.0
C590 C 0.51821 0.00052 0.83288 0.0
C591 C 0.48222 0.96357 0.94963 0.0
C592 C 0.61439 0.89991 0.88219 0.0
C593 C 0.65311 0.93558 0.88489 0.0
C594 C 0.56402 0.91356 0.88704 0.0
C595 C 0.55225 0.96402 0.89481 0.0
C596 C 0.59147 -0.00105 0.90056 0.0
C597 C 0.64161 0.98427 0.89552 0.0
C598 C 0.52325 0.87507 0.88093 0.0
C599 C 0.5804 0.05293 0.90928 0.0
H600 H 0.41955 0.02223 0.83327 0.0
H601 H 0.38821 0.99056 0.93144 0.0
H602 H 0.55117 0.0246 0.83856 0.0
H603 H 0.53269 0.96231 0.82739 0.0
H604 H 0.49957 0.0157 0.81127 0.0
H605 H 0.45249 0.9695 0.96781 0.0
H606 H 0.49198 0.92299 0.9491 0.0
H607 H 0.51661 0.98432 0.95696 0.0
H608 H 0.62308 0.86195 0.8745 0.0
H609 H 0.6714 0.01191 0.89805 0.0
H610 H 0.50445 0.88359 0.85799 0.0
H611 H 0.49409 0.87659 0.89974 0.0
H612 H 0.53857 0.83619 0.87974 0.0
H613 H 0.56744 0.07349 0.88783 0.0
H614 H 0.61428 0.07239 0.91877 0.0
H615 H 0.54984 0.0551 0.92718 0.0
loop_
_geom_bond_atom_site_label_1
_geom_bond_atom_site_label_2
_geom_bond_distance
_geom_bond_site_symmetry_2
_ccdc_geom_bond_type
C0 O1 1.160 . S
C0 O7 1.185 . S
O1 C0 1.160 . S
O2 Zn3 1.899 . S
O2 C10 1.284 . S
Zn3 O2 1.899 . S
Zn3 O4 2.032 . S
Zn3 O7 2.086 . S
Zn3 O12 1.977 . S
O4 Zn3 2.032 . S
O4 C8 1.278 . S
C5 O6 1.203 . S
C5 O12 1.267 . S
O6 C5 1.203 . S
O7 C0 1.185 . S
O7 Zn3 2.086 . S
C8 O4 1.278 . S
C8 O9 1.211 . S
O9 C8 1.211 . S
C10 O2 1.284 . S
C10 O11 1.273 . S
O11 C10 1.273 . S
O12 Zn3 1.977 . S
O12 C5 1.267 . S
C13 O14 1.160 . S
C13 O20 1.185 . S
O14 C13 1.160 . S
O15 Zn16 1.899 . S
O15 C23 1.284 . S
Zn16 O15 1.899 . S
Zn16 O17 2.032 . S
Zn16 O20 2.086 . S
Zn16 O25 1.977 . S
O17 Zn16 2.032 . S
O17 C21 1.278 . S
C18 O19 1.203 . S
C18 O25 1.267 . S
O19 C18 1.203 . S
O20 C13 1.185 . S
O20 Zn16 2.086 . S
C21 O17 1.278 . S
C21 O22 1.211 . S
O22 C21 1.211 . S
C23 O15 1.284 . S
C23 O24 1.273 . S
O24 C23 1.273 . S
O25 Zn16 1.977 . S
O25 C18 1.267 . S
C26 O27 1.160 . S
C26 O33 1.185 . S
O27 C26 1.160 . S
O28 Zn29 1.899 . S
O28 C36 1.284 . S
Zn29 O28 1.899 . S
Zn29 O30 2.032 . S
Zn29 O33 2.086 . S
Zn29 O38 1.977 . S
O30 Zn29 2.032 . S
O30 C34 1.278 . S
C31 O32 1.203 . S
C31 O38 1.267 . S
O32 C31 1.203 . S
O33 C26 1.185 . S
O33 Zn29 2.086 . S
C34 O30 1.278 . S
C34 O35 1.211 . S
O35 C34 1.211 . S
C36 O28 1.284 . S
C36 O37 1.273 . S
O37 C36 1.273 . S
O38 Zn29 1.977 . S
O38 C31 1.267 . S
C39 O40 1.160 . S
C39 O46 1.185 . S
O40 C39 1.160 . S
O41 Zn42 1.899 . S
O41 C49 1.284 . S
Zn42 O41 1.899 . S
Zn42 O43 2.032 . S
Zn42 O46 2.086 . S
Zn42 O51 1.977 . S
O43 Zn42 2.032 . S
O43 C47 1.278 . S
C44 O45 1.203 . S
C44 O51 1.267 . S
O45 C44 1.203 . S
O46 C39 1.185 . S
O46 Zn42 2.086 . S
C47 O43 1.278 . S
C47 O48 1.211 . S
O48 C47 1.211 . S
C49 O41 1.284 . S
C49 O50 1.273 . S
O50 C49 1.273 . S
O51 Zn42 1.977 . S
O51 C44 1.267 . S
C52 O53 1.160 . S
C52 O59 1.185 . S
O53 C52 1.160 . S
O54 Zn55 1.899 . S
O54 C62 1.284 . S
Zn55 O54 1.899 . S
Zn55 O56 2.032 . S
Zn55 O59 2.086 . S
Zn55 O64 1.977 . S
O56 Zn55 2.032 . S
O56 C60 1.278 . S
C57 O58 1.203 . S
C57 O64 1.267 . S
O58 C57 1.203 . S
O59 C52 1.185 . S
O59 Zn55 2.086 . S
C60 O56 1.278 . S
C60 O61 1.211 . S
O61 C60 1.211 . S
C62 O54 1.284 . S
C62 O63 1.273 . S
O63 C62 1.273 . S
O64 Zn55 1.977 . S
O64 C57 1.267 . S
C65 O66 1.160 . S
C65 O72 1.185 . S
O66 C65 1.160 . S
O67 Zn68 1.899 . S
O67 C75 1.284 . S
Zn68 O67 1.899 . S
Zn68 O69 2.032 . S
Zn68 O72 2.086 . S
Zn68 O77 1.977 . S
O69 Zn68 2.032 . S
O69 C73 1.278 . S
C70 O71 1.203 . S
C70 O77 1.267 . S
O71 C70 1.203 . S
O72 C65 1.185 . S
O72 Zn68 2.086 . S
C73 O69 1.278 . S
C73 O74 1.211 . S
O74 C73 1.211 . S
C75 O67 1.284 . S
C75 O76 1.273 . S
O76 C75 1.273 . S
O77 Zn68 1.977 . S
O77 C70 1.267 . S
C78 O79 1.160 . S
C78 O85 1.185 . S
O79 C78 1.160 . S
O80 Zn81 1.899 . S
O80 C88 1.284 . S
Zn81 O80 1.899 . S
Zn81 O82 2.032 . S
Zn81 O85 2.086 . S
Zn81 O90 1.977 . S
O82 Zn81 2.032 . S
O82 C86 1.278 . S
C83 O84 1.203 . S
C83 O90 1.267 . S
O84 C83 1.203 . S
O85 C78 1.185 . S
O85 Zn81 2.086 . S
C86 O82 1.278 . S
C86 O87 1.211 . S
O87 C86 1.211 . S
C88 O80 1.284 . S
C88 O89 1.273 . S
O89 C88 1.273 . S
O90 Zn81 1.977 . S
O90 C83 1.267 . S
C91 O92 1.160 . S
C91 O98 1.185 . S
O92 C91 1.160 . S
O93 Zn94 1.899 . S
O93 C101 1.284 . S
Zn94 O93 1.899 . S
Zn94 O95 2.032 . S
Zn94 O98 2.086 . S
Zn94 O103 1.977 . S
O95 Zn94 2.032 . S
O95 C99 1.278 . S
C96 O97 1.203 . S
C96 O103 1.267 . S
O97 C96 1.203 . S
O98 C91 1.185 . S
O98 Zn94 2.086 . S
C99 O95 1.278 . S
C99 O100 1.211 . S
O100 C99 1.211 . S
C101 O93 1.284 . S
C101 O102 1.273 . S
O102 C101 1.273 . S
O103 Zn94 1.977 . S
O103 C96 1.267 . S
C104 C105 1.391 . S
C104 C106 1.394 . S
C104 H120 0.931 . S
C105 C104 1.391 . S
C105 C109 1.376 . S
C106 C104 1.394 . S
C106 C107 1.369 . S
C106 C110 1.531 1_554 S
C107 C106 1.369 . S
C107 C108 1.410 . S
C107 C115 1.503 1_554 S
C108 C107 1.410 . S
C108 C109 1.392 . S
C108 C111 1.511 . S
C109 C105 1.376 . S
C109 C108 1.392 . S
C109 H121 0.929 . S
C110 C106 1.531 1_556 S
C110 H122 0.960 . S
C110 H123 0.962 . S
C110 H124 0.960 . S
C111 C108 1.511 . S
C111 H125 0.961 . S
C111 H126 0.961 . S
C111 H127 0.961 . S
C112 C113 1.370 . S
C112 C114 1.363 . S
C112 H128 0.931 . S
C113 C112 1.370 . S
C113 C117 1.408 . S
C114 C112 1.363 . S
C114 C115 1.370 . S
C114 C118 1.524 . S
C115 C107 1.503 1_556 S
C115 C114 1.370 . S
C115 C116 1.403 . S
C116 C115 1.403 . S
C116 C117 1.404 . S
C116 C119 1.539 . S
C117 C113 1.408 . S
C117 C116 1.404 . S
C117 H129 0.930 . S
C118 C114 1.524 . S
C118 H130 0.956 . S
C118 H131 0.961 1_556 S
C118 H132 0.961 . S
C119 C116 1.539 . S
C119 H133 0.958 . S
C119 H134 0.961 . S
C119 H135 0.960 1_556 S
H120 C104 0.931 . S
H121 C109 0.929 . S
H122 C110 0.960 . S
H123 C110 0.962 . S
H124 C110 0.960 . S
H125 C111 0.961 . S
H126 C111 0.961 . S
H127 C111 0.961 . S
H128 C112 0.931 . S
H129 C117 0.930 . S
H130 C118 0.956 . S
H131 C118 0.961 1_554 S
H132 C118 0.961 . S
H133 C119 0.958 . S
H134 C119 0.961 . S
H135 C119 0.960 1_554 S
C136 C137 1.391 . S
C136 C138 1.394 . S
C136 H152 0.931 . S
C137 C136 1.391 . S
C137 C141 1.376 . S
C138 C136 1.394 . S
C138 C139 1.369 . S
C138 C142 1.531 . S
C139 C138 1.369 . S
C139 C140 1.410 . S
C139 C147 1.503 . S
C140 C139 1.410 . S
C140 C141 1.392 . S
C140 C143 1.511 . S
C141 C137 1.376 . S
C141 C140 1.392 . S
C141 H153 0.929 . S
C142 C138 1.531 . S
C142 H154 0.960 . S
C142 H155 0.962 . S
C142 H156 0.960 . S
C143 C140 1.511 . S
C143 H157 0.961 . S
C143 H158 0.961 . S
C143 H159 0.961 . S
C144 C145 1.370 . S
C144 C146 1.363 . S
C144 H160 0.931 . S
C145 C144 1.370 . S
C145 C149 1.408 . S
C146 C144 1.363 . S
C146 C147 1.370 . S
C146 C150 1.524 . S
C147 C139 1.503 . S
C147 C146 1.370 . S
C147 C148 1.403 . S
C148 C147 1.403 . S
C148 C149 1.404 . S
C148 C151 1.539 . S
C149 C145 1.408 . S
C149 C148 1.404 . S
C149 H161 0.930 . S
C150 C146 1.524 . S
C150 H162 0.956 . S
C150 H163 0.961 . S
C150 H164 0.961 . S
C151 C148 1.539 . S
C151 H165 0.958 . S
C151 H166 0.961 . S
C151 H167 0.960 . S
H152 C136 0.931 . S
H153 C141 0.929 . S
H154 C142 0.960 . S
H155 C142 0.962 . S
H156 C142 0.960 . S
H157 C143 0.961 . S
H158 C143 0.961 . S
H159 C143 0.961 . S
H160 C144 0.931 . S
H161 C149 0.930 . S
H162 C150 0.956 . S
H163 C150 0.961 . S
H164 C150 0.961 . S
H165 C151 0.958 . S
H166 C151 0.961 . S
H167 C151 0.960 . S
C168 C169 1.391 . S
C168 C170 1.394 . S
C168 H184 0.931 . S
C169 C168 1.391 . S
C169 C173 1.376 . S
C170 C168 1.394 . S
C170 C171 1.369 . S
C170 C174 1.531 . S
C171 C170 1.369 . S
C171 C172 1.410 . S
C171 C179 1.503 1_554 S
C172 C171 1.410 . S
C172 C173 1.392 . S
C172 C175 1.511 1_554 S
C173 C169 1.376 . S
C173 C172 1.392 . S
C173 H185 0.929 . S
C174 C170 1.531 . S
C174 H186 0.960 . S
C174 H187 0.962 . S
C174 H188 0.960 . S
C175 C172 1.511 1_556 S
C175 H189 0.961 . S
C175 H190 0.961 . S
C175 H191 0.961 . S
C176 C177 1.370 . S
C176 C178 1.363 . S
C176 H192 0.931 . S
C177 C176 1.370 . S
C177 C181 1.408 . S
C178 C176 1.363 . S
C178 C179 1.370 . S
C178 C182 1.524 . S
C179 C171 1.503 1_556 S
C179 C178 1.370 . S
C179 C180 1.403 . S
C180 C179 1.403 . S
C180 C181 1.404 . S
C180 C183 1.539 . S
C181 C177 1.408 . S
C181 C180 1.404 . S
C181 H193 0.930 . S
C182 C178 1.524 . S
C182 H194 0.956 1_556 S
C182 H195 0.961 . S
C182 H196 0.961 . S
C183 C180 1.539 . S
C183 H197 0.958 . S
C183 H198 0.961 . S
C183 H199 0.960 . S
H184 C168 0.931 . S
H185 C173 0.929 . S
H186 C174 0.960 . S
H187 C174 0.962 . S
H188 C174 0.960 . S
H189 C175 0.961 . S
H190 C175 0.961 . S
H191 C175 0.961 . S
H192 C176 0.931 . S
H193 C181 0.930 . S
H194 C182 0.956 1_554 S
H195 C182 0.961 . S
H196 C182 0.961 . S
H197 C183 0.958 . S
H198 C183 0.961 . S
H199 C183 0.960 . S
C200 C201 1.391 . S
C200 C202 1.394 . S
C200 H216 0.931 . S
C201 C200 1.391 . S
C201 C205 1.376 . S
C202 C200 1.394 . S
C202 C203 1.369 . S
C202 C206 1.531 . S
C203 C202 1.369 . S
C203 C204 1.410 . S
C203 C211 1.503 . S
C204 C203 1.410 . S
C204 C205 1.392 . S
C204 C207 1.511 . S
C205 C201 1.376 . S
C205 C204 1.392 . S
C205 H217 0.929 . S
C206 C202 1.531 . S
C206 H218 0.960 . S
C206 H219 0.962 . S
C206 H220 0.960 . S
C207 C204 1.511 . S
C207 H221 0.961 . S
C207 H222 0.961 . S
C207 H223 0.961 . S
C208 C209 1.370 . S
C208 C210 1.363 . S
C208 H224 0.931 . S
C209 C208 1.370 . S
C209 C213 1.408 . S
C210 C208 1.363 . S
C210 C211 1.370 . S
C210 C214 1.524 . S
C211 C203 1.503 . S
C211 C210 1.370 . S
C211 C212 1.403 . S
C212 C211 1.403 . S
C212 C213 1.404 . S
C212 C215 1.539 . S
C213 C209 1.408 . S
C213 C212 1.404 . S
C213 H225 0.930 . S
C214 C210 1.524 . S
C214 H226 0.956 . S
C214 H227 0.961 . S
C214 H228 0.961 . S
C215 C212 1.539 . S
C215 H229 0.958 . S
C215 H230 0.961 . S
C215 H231 0.960 . S
H216 C200 0.931 . S
H217 C205 0.929 . S
H218 C206 0.960 . S
H219 C206 0.962 . S
H220 C206 0.960 . S
H221 C207 0.961 . S
H222 C207 0.961 . S
H223 C207 0.961 . S
H224 C208 0.931 . S
H225 C213 0.930 . S
H226 C214 0.956 . S
H227 C214 0.961 . S
H228 C214 0.961 . S
H229 C215 0.958 . S
H230 C215 0.961 . S
H231 C215 0.960 . S
C232 C233 1.391 . S
C232 C234 1.394 . S
C232 H248 0.931 . S
C233 C232 1.391 . S
C233 C237 1.376 . S
C234 C232 1.394 . S
C234 C235 1.369 . S
C234 C238 1.531 . S
C235 C234 1.369 . S
C235 C236 1.410 . S
C235 C243 1.503 . S
C236 C235 1.410 . S
C236 C237 1.392 . S
C236 C239 1.511 . S
C237 C233 1.376 . S
C237 C236 1.392 . S
C237 H249 0.929 . S
C238 C234 1.531 . S
C238 H250 0.960 . S
C238 H251 0.962 . S
C238 H252 0.960 . S
C239 C236 1.511 . S
C239 H253 0.961 . S
C239 H254 0.961 . S
C239 H255 0.961 . S
C240 C241 1.370 . S
C240 C242 1.363 . S
C240 H256 0.931 . S
C241 C240 1.370 . S
C241 C245 1.408 . S
C242 C240 1.363 . S
C242 C243 1.370 . S
C242 C246 1.524 . S
C243 C235 1.503 . S
C243 C242 1.370 . S
C243 C244 1.403 . S
C244 C243 1.403 . S
C244 C245 1.404 . S
C244 C247 1.539 . S
C245 C241 1.408 . S
C245 C244 1.404 . S
C245 H257 0.930 . S
C246 C242 1.524 . S
C246 H258 0.956 . S
C246 H259 0.961 . S
C246 H260 0.961 . S
C247 C244 1.539 . S
C247 H261 0.958 . S
C247 H262 0.961 . S
C247 H263 0.960 . S
H248 C232 0.931 . S
H249 C237 0.929 . S
H250 C238 0.960 . S
H251 C238 0.962 . S
H252 C238 0.960 . S
H253 C239 0.961 . S
H254 C239 0.961 . S
H255 C239 0.961 . S
H256 C240 0.931 . S
H257 C245 0.930 . S
H258 C246 0.956 . S
H259 C246 0.961 . S
H260 C246 0.961 . S
H261 C247 0.958 . S
H262 C247 0.961 . S
H263 C247 0.960 . S
C264 C265 1.391 . S
C264 C266 1.394 . S
C264 H280 0.931 . S
C265 C264 1.391 . S
C265 C269 1.376 . S
C266 C264 1.394 . S
C266 C267 1.369 . S
C266 C270 1.531 . S
C267 C266 1.369 . S
C267 C268 1.410 . S
C267 C275 1.503 . S
C268 C267 1.410 . S
C268 C269 1.392 . S
C268 C271 1.511 . S
C269 C265 1.376 . S
C269 C268 1.392 . S
C269 H281 0.929 . S
C270 C266 1.531 . S
C270 H282 0.960 . S
C270 H283 0.962 . S
C270 H284 0.960 . S
C271 C268 1.511 . S
C271 H285 0.961 . S
C271 H286 0.961 . S
C271 H287 0.961 . S
C272 C273 1.370 . S
C272 C274 1.363 . S
C272 H288 0.931 . S
C273 C272 1.370 . S
C273 C277 1.408 . S
C274 C272 1.363 . S
C274 C275 1.370 . S
C274 C278 1.524 . S
C275 C267 1.503 . S
C275 C274 1.370 . S
C275 C276 1.403 . S
C276 C275 1.403 . S
C276 C277 1.404 . S
C276 C279 1.539 . S
C277 C273 1.408 . S
C277 C276 1.404 . S
C277 H289 0.930 . S
C278 C274 1.524 . S
C278 H290 0.956 . S
C278 H291 0.961 . S
C278 H292 0.961 . S
C279 C276 1.539 . S
C279 H293 0.958 . S
C279 H294 0.961 . S
C279 H295 0.960 . S
H280 C264 0.931 . S
H281 C269 0.929 . S
H282 C270 0.960 . S
H283 C270 0.962 . S
H284 C270 0.960 . S
H285 C271 0.961 . S
H286 C271 0.961 . S
H287 C271 0.961 . S
H288 C272 0.931 . S
H289 C277 0.930 . S
H290 C278 0.956 . S
H291 C278 0.961 . S
H292 C278 0.961 . S
H293 C279 0.958 . S
H294 C279 0.961 . S
H295 C279 0.960 . S
C296 C297 1.391 . S
C296 C298 1.394 . S
C296 H312 0.931 . S
C297 C296 1.391 . S
C297 C301 1.376 . S
C298 C296 1.394 . S
C298 C299 1.369 . S
C298 C302 1.531 . S
C299 C298 1.369 . S
C299 C300 1.410 . S
C299 C307 1.503 . S
C300 C299 1.410 . S
C300 C301 1.392 . S
C300 C303 1.511 . S
C301 C297 1.376 . S
C301 C300 1.392 . S
C301 H313 0.929 . S
C302 C298 1.531 . S
C302 H314 0.960 . S
C302 H315 0.962 . S
C302 H316 0.960 . S
C303 C300 1.511 . S
C303 H317 0.961 . S
C303 H318 0.961 . S
C303 H319 0.961 . S
C304 C305 1.370 . S
C304 C306 1.363 . S
C304 H320 0.931 . S
C305 C304 1.370 . S
C305 C309 1.408 . S
C306 C304 1.363 . S
C306 C307 1.370 . S
C306 C310 1.524 . S
C307 C299 1.503 . S
C307 C306 1.370 . S
C307 C308 1.403 . S
C308 C307 1.403 . S
C308 C309 1.404 . S
C308 C311 1.539 . S
C309 C305 1.408 . S
C309 C308 1.404 . S
C309 H321 0.930 . S
C310 C306 1.524 . S
C310 H322 0.956 . S
C310 H323 0.961 . S
C310 H324 0.961 . S
C311 C308 1.539 . S
C311 H325 0.958 . S
C311 H326 0.961 . S
C311 H327 0.960 . S
H312 C296 0.931 . S
H313 C301 0.929 . S
H314 C302 0.960 . S
H315 C302 0.962 . S
H316 C302 0.960 . S
H317 C303 0.961 . S
H318 C303 0.961 . S
H319 C303 0.961 . S
H320 C304 0.931 . S
H321 C309 0.930 . S
H322 C310 0.956 . S
H323 C310 0.961 . S
H324 C310 0.961 . S
H325 C311 0.958 . S
H326 C311 0.961 . S
H327 C311 0.960 . S
C328 C329 1.391 . S
C328 C330 1.394 . S
C328 H344 0.931 . S
C329 C328 1.391 . S
C329 C333 1.376 . S
C330 C328 1.394 . S
C330 C331 1.369 . S
C330 C334 1.531 . S
C331 C330 1.369 . S
C331 C332 1.410 . S
C331 C339 1.503 . S
C332 C331 1.410 . S
C332 C333 1.392 . S
C332 C335 1.511 . S
C333 C329 1.376 . S
C333 C332 1.392 . S
C333 H345 0.929 . S
C334 C330 1.531 . S
C334 H346 0.960 . S
C334 H347 0.962 . S
C334 H348 0.960 . S
C335 C332 1.511 . S
C335 H349 0.961 . S
C335 H350 0.961 . S
C335 H351 0.961 . S
C336 C337 1.370 . S
C336 C338 1.363 . S
C336 H352 0.931 . S
C337 C336 1.370 . S
C337 C341 1.408 . S
C338 C336 1.363 . S
C338 C339 1.370 . S
C338 C342 1.524 . S
C339 C331 1.503 . S
C339 C338 1.370 . S
C339 C340 1.403 . S
C340 C339 1.403 . S
C340 C341 1.404 . S
C340 C343 1.539 . S
C341 C337 1.408 . S
C341 C340 1.404 . S
C341 H353 0.930 . S
C342 C338 1.524 . S
C342 H354 0.956 . S
C342 H355 0.961 . S
C342 H356 0.961 . S
C343 C340 1.539 . S
C343 H357 0.958 . S
C343 H358 0.961 . S
C343 H359 0.960 . S
H344 C328 0.931 . S
H345 C333 0.929 . S
H346 C334 0.960 . S
H347 C334 0.962 . S
H348 C334 0.960 . S
H349 C335 0.961 . S
H350 C335 0.961 . S
H351 C335 0.961 . S
H352 C336 0.931 . S
H353 C341 0.930 . S
H354 C342 0.956 . S
H355 C342 0.961 . S
H356 C342 0.961 . S
H357 C343 0.958 . S
H358 C343 0.961 . S
H359 C343 0.960 . S
C360 C361 1.391 . S
C360 C362 1.394 . S
C360 H376 0.931 . S
C361 C360 1.391 . S
C361 C365 1.376 . S
C362 C360 1.394 . S
C362 C363 1.369 . S
C362 C366 1.531 . S
C363 C362 1.369 . S
C363 C364 1.410 . S
C363 C371 1.503 . S
C364 C363 1.410 . S
C364 C365 1.392 . S
C364 C367 1.511 . S
C365 C361 1.376 . S
C365 C364 1.392 . S
C365 H377 0.929 . S
C366 C362 1.531 . S
C366 H378 0.960 . S
C366 H379 0.962 . S
C366 H380 0.960 . S
C367 C364 1.511 . S
C367 H381 0.961 . S
C367 H382 0.961 . S
C367 H383 0.961 . S
C368 C369 1.370 . S
C368 C370 1.363 . S
C368 H384 0.931 . S
C369 C368 1.370 . S
C369 C373 1.408 . S
C370 C368 1.363 . S
C370 C371 1.370 . S
C370 C374 1.524 . S
C371 C363 1.503 . S
C371 C370 1.370 . S
C371 C372 1.403 . S
C372 C371 1.403 . S
C372 C373 1.404 . S
C372 C375 1.539 . S
C373 C369 1.408 . S
C373 C372 1.404 . S
C373 H385 0.930 1_655 S
C374 C370 1.524 . S
C374 H386 0.956 . S
C374 H387 0.961 . S
C374 H388 0.961 . S
C375 C372 1.539 . S
C375 H389 0.958 . S
C375 H390 0.961 . S
C375 H391 0.960 . S
H376 C360 0.931 . S
H377 C365 0.929 . S
H378 C366 0.960 . S
H379 C366 0.962 . S
H380 C366 0.960 . S
H381 C367 0.961 . S
H382 C367 0.961 . S
H383 C367 0.961 . S
H384 C368 0.931 . S
H385 C373 0.930 1_455 S
H386 C374 0.956 . S
H387 C374 0.961 . S
H388 C374 0.961 . S
H389 C375 0.958 . S
H390 C375 0.961 . S
H391 C375 0.960 . S
C392 C393 1.391 . S
C392 C394 1.394 . S
C392 H408 0.931 . S
C393 C392 1.391 . S
C393 C397 1.376 . S
C394 C392 1.394 . S
C394 C395 1.369 . S
C394 C398 1.531 . S
C395 C394 1.369 . S
C395 C396 1.410 . S
C395 C403 1.503 . S
C396 C395 1.410 . S
C396 C397 1.392 . S
C396 C399 1.511 . S
C397 C393 1.376 . S
C397 C396 1.392 . S
C397 H409 0.929 . S
C398 C394 1.531 . S
C398 H410 0.960 . S
C398 H411 0.962 . S
C398 H412 0.960 . S
C399 C396 1.511 . S
C399 H413 0.961 . S
C399 H414 0.961 . S
C399 H415 0.961 . S
C400 C401 1.370 . S
C400 C402 1.363 . S
C400 H416 0.931 . S
C401 C400 1.370 . S
C401 C405 1.408 . S
C402 C400 1.363 . S
C402 C403 1.370 . S
C402 C406 1.524 . S
C403 C395 1.503 . S
C403 C402 1.370 . S
C403 C404 1.403 . S
C404 C403 1.403 . S
C404 C405 1.404 . S
C404 C407 1.539 . S
C405 C401 1.408 . S
C405 C404 1.404 . S
C405 H417 0.930 . S
C406 C402 1.524 . S
C406 H418 0.956 . S
C406 H419 0.961 . S
C406 H420 0.961 . S
C407 C404 1.539 . S
C407 H421 0.958 . S
C407 H422 0.961 . S
C407 H423 0.960 . S
H408 C392 0.931 . S
H409 C397 0.929 . S
H410 C398 0.960 . S
H411 C398 0.962 . S
H412 C398 0.960 . S
H413 C399 0.961 . S
H414 C399 0.961 . S
H415 C399 0.961 . S
H416 C400 0.931 . S
H417 C405 0.930 . S
H418 C406 0.956 . S
H419 C406 0.961 . S
H420 C406 0.961 . S
H421 C407 0.958 . S
H422 C407 0.961 . S
H423 C407 0.960 . S
C424 C425 1.391 . S
C424 C426 1.394 . S
C424 H440 0.931 . S
C425 C424 1.391 . S
C425 C429 1.376 . S
C426 C424 1.394 . S
C426 C427 1.369 . S
C426 C430 1.531 . S
C427 C426 1.369 . S
C427 C428 1.410 . S
C427 C435 1.503 . S
C428 C427 1.410 . S
C428 C429 1.392 . S
C428 C431 1.511 . S
C429 C425 1.376 . S
C429 C428 1.392 . S
C429 H441 0.929 . S
C430 C426 1.531 . S
C430 H442 0.960 . S
C430 H443 0.962 . S
C430 H444 0.960 . S
C431 C428 1.511 . S
C431 H445 0.961 . S
C431 H446 0.961 . S
C431 H447 0.961 . S
C432 C433 1.370 . S
C432 C434 1.363 . S
C432 H448 0.931 . S
C433 C432 1.370 . S
C433 C437 1.408 . S
C434 C432 1.363 . S
C434 C435 1.370 . S
C434 C438 1.524 . S
C435 C427 1.503 . S
C435 C434 1.370 . S
C435 C436 1.403 . S
C436 C435 1.403 . S
C436 C437 1.404 . S
C436 C439 1.539 . S
C437 C433 1.408 . S
C437 C436 1.404 . S
C437 H449 0.930 . S
C438 C434 1.524 . S
C438 H450 0.956 . S
C438 H451 0.961 . S
C438 H452 0.961 . S
C439 C436 1.539 . S
C439 H453 0.958 . S
C439 H454 0.961 . S
C439 H455 0.960 . S
H440 C424 0.931 . S
H441 C429 0.929 . S
H442 C430 0.960 . S
H443 C430 0.962 . S
H444 C430 0.960 . S
H445 C431 0.961 . S
H446 C431 0.961 . S
H447 C431 0.961 . S
H448 C432 0.931 . S
H449 C437 0.930 . S
H450 C438 0.956 . S
H451 C438 0.961 . S
H452 C438 0.961 . S
H453 C439 0.958 . S
H454 C439 0.961 . S
H455 C439 0.960 . S
C456 C457 1.391 . S
C456 C458 1.394 . S
C456 H472 0.931 . S
C457 C456 1.391 . S
C457 C461 1.376 . S
C458 C456 1.394 . S
C458 C459 1.369 . S
C458 C462 1.531 . S
C459 C458 1.369 . S
C459 C460 1.410 . S
C459 C467 1.503 . S
C460 C459 1.410 . S
C460 C461 1.392 . S
C460 C463 1.511 . S
C461 C457 1.376 . S
C461 C460 1.392 . S
C461 H473 0.929 . S
C462 C458 1.531 . S
C462 H474 0.960 . S
C462 H475 0.962 . S
C462 H476 0.960 . S
C463 C460 1.511 . S
C463 H477 0.961 . S
C463 H478 0.961 . S
C463 H479 0.961 . S
C464 C465 1.370 . S
C464 C466 1.363 . S
C464 H480 0.931 . S
C465 C464 1.370 . S
C465 C469 1.408 . S
C466 C464 1.363 . S
C466 C467 1.370 . S
C466 C470 1.524 . S
C467 C459 1.503 . S
C467 C466 1.370 . S
C467 C468 1.403 . S
C468 C467 1.403 . S
C468 C469 1.404 . S
C468 C471 1.539 . S
C469 C465 1.408 . S
C469 C468 1.404 . S
C469 H481 0.930 . S
C470 C466 1.524 . S
C470 H482 0.956 . S
C470 H483 0.961 . S
C470 H484 0.961 . S
C471 C468 1.539 . S
C471 H485 0.958 . S
C471 H486 0.961 . S
C471 H487 0.960 . S
H472 C456 0.931 . S
H473 C461 0.929 . S
H474 C462 0.960 . S
H475 C462 0.962 . S
H476 C462 0.960 . S
H477 C463 0.961 . S
H478 C463 0.961 . S
H479 C463 0.961 . S
H480 C464 0.931 . S
H481 C469 0.930 . S
H482 C470 0.956 . S
H483 C470 0.961 . S
H484 C470 0.961 . S
H485 C471 0.958 . S
H486 C471 0.961 . S
H487 C471 0.960 . S
C488 C489 1.391 . S
C488 C490 1.394 1_655 S
C488 H504 0.931 . S
C489 C488 1.391 . S
C489 C493 1.376 . S
C490 C488 1.394 1_455 S
C490 C491 1.369 1_455 S
C490 C494 1.531 . S
C491 C490 1.369 1_655 S
C491 C492 1.410 . S
C491 C499 1.503 1_655 S
C492 C491 1.410 . S
C492 C493 1.392 . S
C492 C495 1.511 . S
C493 C489 1.376 . S
C493 C492 1.392 . S
C493 H505 0.929 . S
C494 C490 1.531 . S
C494 H506 0.960 . S
C494 H507 0.962 . S
C494 H508 0.960 . S
C495 C492 1.511 . S
C495 H509 0.961 . S
C495 H510 0.961 . S
C495 H511 0.961 . S
C496 C497 1.370 . S
C496 C498 1.363 . S
C496 H512 0.931 . S
C497 C496 1.370 . S
C497 C501 1.408 . S
C498 C496 1.363 . S
C498 C499 1.370 . S
C498 C502 1.524 1_455 S
C499 C491 1.503 1_455 S
C499 C498 1.370 . S
C499 C500 1.403 . S
C500 C499 1.403 . S
C500 C501 1.404 . S
C500 C503 1.539 . S
C501 C497 1.408 . S
C501 C500 1.404 . S
C501 H513 0.930 . S
C502 C498 1.524 1_655 S
C502 H514 0.956 . S
C502 H515 0.961 . S
C502 H516 0.961 . S
C503 C500 1.539 . S
C503 H517 0.958 . S
C503 H518 0.961 . S
C503 H519 0.960 . S
H504 C488 0.931 . S
H505 C493 0.929 . S
H506 C494 0.960 . S
H507 C494 0.962 . S
H508 C494 0.960 . S
H509 C495 0.961 . S
H510 C495 0.961 . S
H511 C495 0.961 . S
H512 C496 0.931 . S
H513 C501 0.930 . S
H514 C502 0.956 . S
H515 C502 0.961 . S
H516 C502 0.961 . S
H517 C503 0.958 . S
H518 C503 0.961 . S
H519 C503 0.960 . S
C520 C521 1.391 . S
C520 C522 1.394 . S
C520 H536 0.931 . S
C521 C520 1.391 . S
C521 C525 1.376 . S
C522 C520 1.394 . S
C522 C523 1.369 . S
C522 C526 1.531 . S
C523 C522 1.369 . S
C523 C524 1.410 . S
C523 C531 1.503 1_655 S
C524 C523 1.410 . S
C524 C525 1.392 . S
C524 C527 1.511 1_655 S
C525 C521 1.376 . S
C525 C524 1.392 . S
C525 H537 0.929 . S
C526 C522 1.531 . S
C526 H538 0.960 . S
C526 H539 0.962 . S
C526 H540 0.960 . S
C527 C524 1.511 1_455 S
C527 H541 0.961 . S
C527 H542 0.961 . S
C527 H543 0.961 . S
C528 C529 1.370 . S
C528 C530 1.363 . S
C528 H544 0.931 . S
C529 C528 1.370 . S
C529 C533 1.408 . S
C530 C528 1.363 . S
C530 C531 1.370 . S
C530 C534 1.524 1_455 S
C531 C523 1.503 1_455 S
C531 C530 1.370 . S
C531 C532 1.403 . S
C532 C531 1.403 . S
C532 C533 1.404 . S
C532 C535 1.539 . S
C533 C529 1.408 . S
C533 C532 1.404 . S
C533 H545 0.930 . S
C534 C530 1.524 1_655 S
C534 H546 0.956 . S
C534 H547 0.961 . S
C534 H548 0.961 1_655 S
C535 C532 1.539 . S
C535 H549 0.958 . S
C535 H550 0.961 . S
C535 H551 0.960 . S
H536 C520 0.931 . S
H537 C525 0.929 . S
H538 C526 0.960 . S
H539 C526 0.962 . S
H540 C526 0.960 . S
H541 C527 0.961 . S
H542 C527 0.961 . S
H543 C527 0.961 . S
H544 C528 0.931 . S
H545 C533 0.930 . S
H546 C534 0.956 . S
H547 C534 0.961 . S
H548 C534 0.961 1_455 S
H549 C535 0.958 . S
H550 C535 0.961 . S
H551 C535 0.960 . S
C552 C553 1.391 . S
C552 C554 1.394 . S
C552 H568 0.931 . S
C553 C552 1.391 . S
C553 C557 1.376 . S
C554 C552 1.394 . S
C554 C555 1.369 . S
C554 C558 1.531 . S
C555 C554 1.369 . S
C555 C556 1.410 . S
C555 C563 1.503 1_545 S
C556 C555 1.410 . S
C556 C557 1.392 . S
C556 C559 1.511 1_545 S
C557 C553 1.376 . S
C557 C556 1.392 . S
C557 H569 0.929 . S
C558 C554 1.531 . S
C558 H570 0.960 . S
C558 H571 0.962 . S
C558 H572 0.960 . S
C559 C556 1.511 1_565 S
C559 H573 0.961 . S
C559 H574 0.961 . S
C559 H575 0.961 . S
C560 C561 1.370 . S
C560 C562 1.363 . S
C560 H576 0.931 . S
C561 C560 1.370 . S
C561 C565 1.408 . S
C562 C560 1.363 . S
C562 C563 1.370 . S
C562 C566 1.524 . S
C563 C555 1.503 1_565 S
C563 C562 1.370 . S
C563 C564 1.403 . S
C564 C563 1.403 . S
C564 C565 1.404 . S
C564 C567 1.539 . S
C565 C561 1.408 . S
C565 C564 1.404 . S
C565 H577 0.930 . S
C566 C562 1.524 . S
C566 H578 0.956 . S
C566 H579 0.961 . S
C566 H580 0.961 . S
C567 C564 1.539 . S
C567 H581 0.958 1_565 S
C567 H582 0.961 . S
C567 H583 0.960 1_565 S
H568 C552 0.931 . S
H569 C557 0.929 . S
H570 C558 0.960 . S
H571 C558 0.962 . S
H572 C558 0.960 . S
H573 C559 0.961 . S
H574 C559 0.961 . S
H575 C559 0.961 . S
H576 C560 0.931 . S
H577 C565 0.930 . S
H578 C566 0.956 . S
H579 C566 0.961 . S
H580 C566 0.961 . S
H581 C567 0.958 1_545 S
H582 C567 0.961 . S
H583 C567 0.960 1_545 S
C584 C585 1.391 . S
C584 C586 1.394 . S
C584 H600 0.931 . S
C585 C584 1.391 . S
C585 C589 1.376 . S
C586 C584 1.394 . S
C586 C587 1.369 . S
C586 C590 1.531 . S
C587 C586 1.369 . S
C587 C588 1.410 . S
C587 C595 1.503 1_545 S
C588 C587 1.410 . S
C588 C589 1.392 . S
C588 C591 1.508 1_545 S
C589 C585 1.376 . S
C589 C588 1.392 . S
C589 H601 0.929 . S
C590 C586 1.531 . S
C590 H602 0.960 . S
C590 H603 0.962 . S
C590 H604 0.960 . S
C591 C588 1.508 1_565 S
C591 H605 0.962 . S
C591 H606 0.966 . S
C591 H607 0.957 1_565 S
C592 C593 1.370 . S
C592 C594 1.363 . S
C592 H608 0.931 . S
C593 C592 1.370 . S
C593 C597 1.408 . S
C594 C592 1.363 . S
C594 C595 1.370 . S
C594 C598 1.524 . S
C595 C587 1.503 1_565 S
C595 C594 1.370 . S
C595 C596 1.403 1_565 S
C596 C595 1.403 1_545 S
C596 C597 1.404 1_545 S
C596 C599 1.539 . S
C597 C593 1.408 . S
C597 C596 1.404 1_565 S
C597 H609 0.930 . S
C598 C594 1.524 . S
C598 H610 0.956 . S
C598 H611 0.961 . S
C598 H612 0.961 . S
C599 C596 1.539 . S
C599 H613 0.958 . S
C599 H614 0.961 . S
C599 H615 0.960 . S
H600 C584 0.931 . S
H601 C589 0.929 . S
H602 C590 0.960 . S
H603 C590 0.962 . S
H604 C590 0.960 . S
H605 C591 0.962 . S
H606 C591 0.966 . S
H607 C591 0.957 1_545 S
H608 C592 0.931 . S
H609 C597 0.930 . S
H610 C598 0.956 . S
H611 C598 0.961 . S
H612 C598 0.961 . S
H613 C599 0.958 . S
H614 C599 0.961 . S
H615 C599 0.960 . S
C105 C8 1.248 . S
C113 C73 1.256 . S
C137 C21 1.247 . S
C145 C86 1.278 . S
C169 C34 1.283 . S
C177 C99 1.275 . S
C201 C60 1.238 . S
C209 C47 1.260 . S
C233 C0 1.553 . S
C241 C62 1.521 . S
C265 C13 1.531 . S
C273 C75 1.515 1_565 S
C297 C88 1.543 . S
C305 C26 1.550 . S
C329 C39 1.527 . S
C337 C101 1.516 1_545 S
C361 C52 1.554 . S
C369 C10 1.523 1_655 S
C393 C23 1.520 . S
C401 C65 1.551 . S
C425 C78 1.548 . S
C433 C36 1.518 1_455 S
C457 C49 1.517 . S
C465 C91 1.537 . S
C489 C31 0.521 . S
C497 C5 0.618 . S
C521 C44 0.642 . S
C529 C18 0.567 . S
C553 C57 0.553 . S
C561 C83 0.601 . S
C585 C70 0.687 . S
C593 C96 0.569 . S
