# Generated by pormake.
# Topology snw, (6)-cn, num edge types: 1
# Building blocks:
#     Node 0, Type 0, BuildingBlock: IZENUY_clean_sbu_0, # of connection points: 6
#     Node 1, Type 0, BuildingBlock: IZENUY_clean_sbu_0, # of connection points: 6
#     Node 2, Type 0, BuildingBlock: IZENUY_clean_sbu_0, # of connection points: 6
#     Node 3, Type 0, BuildingBlock: IZENUY_clean_sbu_0, # of connection points: 6
#     Node 4, Type 0, BuildingBlock: IZENUY_clean_sbu_0, # of connection points: 6
#     Node 5, Type 0, BuildingBlock: IZENUY_clean_sbu_0, # of connection points: 6
#     Node 6, Type 0, BuildingBlock: IZENUY_clean_sbu_0, # of connection points: 6
#     Node 7, Type 0, BuildingBlock: IZENUY_clean_sbu_0, # of connection points: 6
#     Edge 8, Type (0, 0), BuildingBlock: CIFDUS_clean_linker_0, # of connection points: 2
#     Edge 9, Type (0, 0), BuildingBlock: CIFDUS_clean_linker_0, # of connection points: 2
#     Edge 10, Type (0, 0), BuildingBlock: CIFDUS_clean_linker_0, # of connection points: 2
#     Edge 11, Type (0, 0), BuildingBlock: CIFDUS_clean_linker_0, # of connection points: 2
#     Edge 12, Type (0, 0), BuildingBlock: CIFDUS_clean_linker_0, # of connection points: 2
#     Edge 13, Type (0, 0), BuildingBlock: CIFDUS_clean_linker_0, # of connection points: 2
#     Edge 14, Type (0, 0), BuildingBlock: CIFDUS_clean_linker_0, # of connection points: 2
#     Edge 15, Type (0, 0), BuildingBlock: CIFDUS_clean_linker_0, # of connection points: 2
#     Edge 16, Type (0, 0), BuildingBlock: CIFDUS_clean_linker_0, # of connection points: 2
#     Edge 17, Type (0, 0), BuildingBlock: CIFDUS_clean_linker_0, # of connection points: 2
#     Edge 18, Type (0, 0), BuildingBlock: CIFDUS_clean_linker_0, # of connection points: 2
#     Edge 19, Type (0, 0), BuildingBlock: CIFDUS_clean_linker_0, # of connection points: 2
#     Edge 20, Type (0, 0), BuildingBlock: CIFDUS_clean_linker_0, # of connection points: 2
#     Edge 21, Type (0, 0), BuildingBlock: CIFDUS_clean_linker_0, # of connection points: 2
#     Edge 22, Type (0, 0), BuildingBlock: CIFDUS_clean_linker_0, # of connection points: 2
#     Edge 23, Type (0, 0), BuildingBlock: CIFDUS_clean_linker_0, # of connection points: 2
#     Edge 24, Type (0, 0), BuildingBlock: CIFDUS_clean_linker_0, # of connection points: 2
#     Edge 25, Type (0, 0), BuildingBlock: CIFDUS_clean_linker_0, # of connection points: 2
#     Edge 26, Type (0, 0), BuildingBlock: CIFDUS_clean_linker_0, # of connection points: 2
#     Edge 27, Type (0, 0), BuildingBlock: CIFDUS_clean_linker_0, # of connection points: 2
#     Edge 28, Type (0, 0), BuildingBlock: CIFDUS_clean_linker_0, # of connection points: 2
#     Edge 29, Type (0, 0), BuildingBlock: CIFDUS_clean_linker_0, # of connection points: 2
#     Edge 30, Type (0, 0), BuildingBlock: CIFDUS_clean_linker_0, # of connection points: 2
#     Edge 31, Type (0, 0), BuildingBlock: CIFDUS_clean_linker_0, # of connection points: 2
# Relax obj value: 0.015
# Max RMSD: 0.047
# Mean RMSD: 0.047
data_MOF--net-snw--node1-IZENUY_clean_sbu_0--edge1-CIFDUS_clean_linker_0
_symmetry_space_group_name_H-M    P1
_symmetry_Int_Tables_number       1
_symmetry_cell_setting            triclinic
loop_
_symmetry_equiv_pos_as_xyz
'x, y, z'
_cell_length_a     17.99174
_cell_length_b     17.930209
_cell_length_c     64.705529
_cell_angle_alpha  89.538061
_cell_angle_beta   89.752151
_cell_angle_gamma 90.013303
loop_
_atom_site_label
_atom_site_type_symbol
_atom_site_fract_x
_atom_site_fract_y
_atom_site_fract_z
_atom_type_partial_charge
Fe0 Fe 0.02221 0.25752 0.13889 0.0
Fe1 Fe 0.10527 0.25676 0.09754 0.0
O2 O 0.02069 0.25065 0.11151 0.0
Fe3 Fe 0.93449 0.2391 0.09875 0.0
O4 O 0.89726 0.32475 0.11014 0.0
O5 O 0.92955 0.29449 0.14148 0.0
O6 O 0.05631 0.35233 0.13714 0.0
C7 C 0.11582 0.36962 0.12789 0.0
C8 C 0.92625 0.14255 0.134 0.0
O9 O 0.146 0.32535 0.11512 0.0
C10 C 0.0248 0.14489 0.07616 0.0
O11 O 0.11584 0.22185 0.14225 0.0
O12 O 0.14458 0.17785 0.11186 0.0
O13 O 0.89579 0.17924 0.1194 0.0
O14 O 0.98713 0.16335 0.1418 0.0
C15 C 0.01255 0.34019 0.07236 0.0
O16 O 0.07825 0.19032 0.07769 0.0
O17 O 0.96493 0.1539 0.08614 0.0
C18 C 0.15256 0.17781 0.13122 0.0
O19 O 0.07312 0.33541 0.08207 0.0
O20 O 0.95929 0.29588 0.07608 0.0
C21 C 0.89605 0.33719 0.1293 0.0
Fe22 Fe 0.02392 0.86283 0.34613 0.0
Fe23 Fe 0.01128 0.76647 0.38576 0.0
O24 O 0.01771 0.77388 0.35835 0.0
Fe25 Fe 0.01816 0.69249 0.34287 0.0
O26 O 0.07907 0.73206 0.32262 0.0
O27 O 0.11349 0.84061 0.33474 0.0
O28 O 0.07476 0.9081 0.3672 0.0
C29 C 0.11038 0.88223 0.38247 0.0
C30 C 0.92894 0.78197 0.31939 0.0
O31 O 0.0966 0.81812 0.38955 0.0
C32 C 0.91514 0.65471 0.37486 0.0
O33 O 0.93519 0.89081 0.35666 0.0
O34 O 0.95349 0.85118 0.38859 0.0
O35 O 0.93477 0.72162 0.3294 0.0
O36 O 0.97356 0.8353 0.32263 0.0
C37 C 0.11091 0.64942 0.37442 0.0
O38 O 0.92529 0.71388 0.3848 0.0
O39 O 0.9578 0.63697 0.3601 0.0
C40 C 0.91726 0.89001 0.37553 0.0
O41 O 0.06819 0.68077 0.38743 0.0
O42 O 0.10138 0.65808 0.35525 0.0
C43 C 0.12454 0.78607 0.32293 0.0
Fe44 Fe 0.60104 0.75476 0.5972 0.0
Fe45 Fe 0.43125 0.77168 0.60052 0.0
O46 O 0.51953 0.76381 0.61243 0.0
Fe47 Fe 0.52748 0.76544 0.63969 0.0
O48 O 0.58458 0.84858 0.63851 0.0
O49 O 0.66192 0.80401 0.61541 0.0
O50 O 0.58484 0.84383 0.58476 0.0
C51 C 0.52645 0.86233 0.57528 0.0
C52 C 0.6313 0.65563 0.62804 0.0
O53 O 0.46609 0.82645 0.57804 0.0
C54 C 0.40567 0.67642 0.63553 0.0
O55 O 0.556 0.70427 0.57607 0.0
O56 O 0.44255 0.68359 0.58721 0.0
O57 O 0.60853 0.70399 0.64069 0.0
O58 O 0.62202 0.66486 0.60887 0.0
C59 C 0.41474 0.87111 0.6322 0.0
O60 O 0.38211 0.71821 0.62099 0.0
O61 O 0.47046 0.68331 0.64261 0.0
C62 C 0.49607 0.66741 0.57546 0.0
O63 O 0.4122 0.86036 0.61297 0.0
O64 O 0.44807 0.82601 0.64395 0.0
C65 C 0.64616 0.85119 0.62922 0.0
Fe66 Fe 0.52047 0.3536 0.85049 0.0
Fe67 Fe 0.51472 0.24989 0.88852 0.0
O68 O 0.51783 0.26225 0.86123 0.0
Fe69 Fe 0.51849 0.18311 0.8449 0.0
O70 O 0.60608 0.21017 0.83303 0.0
O71 O 0.57948 0.32884 0.82834 0.0
O72 O 0.60551 0.37538 0.86426 0.0
C73 C 0.61303 0.37043 0.8836 0.0
C74 C 0.425 0.2858 0.82347 0.0
O75 O 0.56754 0.33344 0.8944 0.0
C76 C 0.418 0.13858 0.87446 0.0
O77 O 0.46161 0.39494 0.87075 0.0
O78 O 0.42762 0.3002 0.89052 0.0
O79 O 0.46472 0.22749 0.8241 0.0
O80 O 0.43599 0.33865 0.83585 0.0
C81 C 0.61437 0.14168 0.87787 0.0
O82 O 0.46136 0.16387 0.88794 0.0
O83 O 0.43039 0.15006 0.85549 0.0
C84 C 0.41813 0.36618 0.8841 0.0
O85 O 0.60168 0.19904 0.88848 0.0
O86 O 0.57333 0.12467 0.86272 0.0
C87 C 0.61996 0.27258 0.82474 0.0
Fe88 Fe 0.10265 0.76063 0.96055 0.0
Fe89 Fe 0.93181 0.74496 0.96007 0.0
O90 O 0.01746 0.75864 0.94683 0.0
Fe91 Fe 0.01741 0.77027 0.9195 0.0
O92 O 0.07247 0.6871 0.91604 0.0
O93 O 0.15555 0.71219 0.94008 0.0
O94 O 0.08726 0.66944 0.97193 0.0
C95 C 0.03092 0.64881 0.98206 0.0
C96 C 0.13095 0.86876 0.9315 0.0
O97 O 0.96963 0.68295 0.98028 0.0
C98 C 0.89937 0.8571 0.93005 0.0
O99 O 0.06372 0.80848 0.98333 0.0
O100 O 0.94564 0.82634 0.97581 0.0
O101 O 0.09997 0.82862 0.9182 0.0
O102 O 0.12613 0.85257 0.95043 0.0
C103 C 0.90802 0.66106 0.92574 0.0
O104 O 0.87841 0.80603 0.94249 0.0
O105 O 0.96211 0.85435 0.92128 0.0
C106 C 1.00206 0.84103 0.9865 0.0
O107 O 0.91154 0.66184 0.94519 0.0
O108 O 0.93512 0.71377 0.91517 0.0
C109 C 0.13422 0.6748 0.92457 0.0
Fe110 Fe 0.51932 0.66181 0.20675 0.0
Fe111 Fe 0.52425 0.83385 0.20836 0.0
O112 O 0.5188 0.74969 0.19413 0.0
Fe113 Fe 0.51182 0.75264 0.16682 0.0
O114 O 0.42108 0.70869 0.1677 0.0
O115 O 0.45835 0.61722 0.1879 0.0
O116 O 0.43656 0.6846 0.22134 0.0
C117 C 0.42631 0.7418 0.23225 0.0
C118 C 0.60404 0.6287 0.17317 0.0
O119 O 0.46762 0.79896 0.23027 0.0
C120 C 0.61931 0.85636 0.17338 0.0
O121 O 0.57942 0.69038 0.22797 0.0
O122 O 0.61062 0.80625 0.22087 0.0
O123 O 0.55747 0.66396 0.16246 0.0
O124 O 0.60265 0.63277 0.19267 0.0
C125 C 0.42394 0.87289 0.17819 0.0
O126 O 0.58243 0.88155 0.18865 0.0
O127 O 0.60142 0.79646 0.1646 0.0
C128 C 0.62135 0.746 0.23063 0.0
O129 O 0.43753 0.8692 0.19727 0.0
O130 O 0.46569 0.84175 0.16535 0.0
C131 C 0.41193 0.64435 0.17525 0.0
Fe132 Fe 0.59844 0.26454 0.46192 0.0
Fe133 Fe 0.42823 0.272 0.46052 0.0
O134 O 0.51518 0.27026 0.44744 0.0
Fe135 Fe 0.51937 0.2744 0.41998 0.0
O136 O 0.60257 0.21402 0.41794 0.0
O137 O 0.62373 0.17754 0.44992 0.0
O138 O 0.55822 0.20864 0.48333 0.0
C139 C 0.50033 0.16836 0.48424 0.0
C140 C 0.6362 0.36539 0.42935 0.0
O141 O 0.44544 0.18283 0.4729 0.0
C142 C 0.40163 0.37512 0.43 0.0
O143 O 0.57845 0.35113 0.47467 0.0
O144 O 0.46281 0.32506 0.48305 0.0
O145 O 0.57503 0.35867 0.42015 0.0
O146 O 0.65483 0.31978 0.44348 0.0
C147 C 0.40076 0.18068 0.42537 0.0
O148 O 0.40425 0.36101 0.44909 0.0
O149 O 0.43666 0.3349 0.41715 0.0
C150 C 0.52072 0.36499 0.485 0.0
O151 O 0.37796 0.21974 0.4404 0.0
O152 O 0.46415 0.19091 0.41752 0.0
C153 C 0.63146 0.1684 0.43074 0.0
Fe154 Fe 0.02421 0.17217 0.70889 0.0
Fe155 Fe 0.02174 0.34364 0.71275 0.0
O156 O 0.01798 0.26204 0.69743 0.0
Fe157 Fe 1.00686 0.26943 0.67028 0.0
O158 O 0.9189 0.22047 0.6716 0.0
O159 O 0.96263 0.12701 0.69001 0.0
O160 O 0.94248 0.18815 0.72463 0.0
C161 C 0.9318 0.24296 0.73642 0.0
C162 C 0.10837 0.1513 0.67437 0.0
O163 O 0.97061 0.30197 0.73478 0.0
C164 C 0.10831 0.37935 0.6767 0.0
O165 O 0.08601 0.20031 0.72985 0.0
O166 O 0.11122 0.31843 0.72371 0.0
O167 O 0.05797 0.18411 0.66429 0.0
O168 O 0.10692 0.15072 0.69387 0.0
C169 C 0.91523 0.38446 0.68464 0.0
O170 O 0.07375 0.39845 0.69305 0.0
O171 O 0.0932 0.31948 0.6675 0.0
C172 C 0.12611 0.25731 0.73254 0.0
O173 O 0.93194 0.37605 0.70339 0.0
O174 O 0.9547 0.35592 0.67071 0.0
C175 C 0.91256 0.15512 0.67864 0.0
H176 H 0.1217 0.41009 0.05005 0.0
H177 H 0.88343 0.39716 0.05701 0.0
H178 H 0.86767 0.49026 0.02962 0.0
H179 H 0.92146 0.57671 1.00386 0.0
H180 H 0.15975 0.58558 0.99598 0.0
H181 H 0.17525 0.4927 1.02332 0.0
C182 C 0.06635 0.42781 0.04561 0.0
C183 C 1.00391 0.39687 0.05567 0.0
C184 C 0.05754 0.48058 0.02957 0.0
C185 C 0.93252 0.41986 0.04952 0.0
C186 C 0.9234 0.47322 0.03385 0.0
C187 C 0.97679 0.55818 1.00806 0.0
C188 C 0.03923 0.58864 0.99786 0.0
C189 C 0.98549 0.50407 1.02377 0.0
C190 C 0.11049 0.56331 1.00348 0.0
C191 C 0.11956 0.51024 1.01921 0.0
H192 H 0.7116 0.85733 0.24521 0.0
H193 H 0.6616 0.62305 0.25292 0.0
H194 H 0.75085 0.61392 0.28092 0.0
H195 H 0.84169 0.67189 0.30376 0.0
H196 H 0.89362 0.90562 0.2963 0.0
H197 H 0.80515 0.91521 0.26786 0.0
C198 C 0.72049 0.8042 0.25293 0.0
C199 C 0.6794 0.74115 0.2469 0.0
C200 C 0.77211 0.79911 0.26922 0.0
C201 C 0.69192 0.67276 0.25718 0.0
C202 C 0.74305 0.66734 0.27327 0.0
C203 C 0.83372 0.72505 0.29596 0.0
C204 C 0.87439 0.78789 0.30225 0.0
C205 C 0.78307 0.73017 0.27953 0.0
C206 C 0.86326 0.85618 0.29183 0.0
C207 C 0.81262 0.86177 0.27552 0.0
H208 H 0.59482 0.62829 0.54564 0.0
H209 H 0.3777 0.57261 0.56983 0.0
H210 H 0.36491 0.47487 0.54388 0.0
H211 H 0.41648 0.40407 0.51431 0.0
H212 H 0.63404 0.46282 0.49073 0.0
H213 H 0.64496 0.56012 0.51636 0.0
C214 C 0.54454 0.59494 0.5453 0.0
C215 C 0.4874 0.60804 0.55972 0.0
C216 C 0.53749 0.53904 0.53037 0.0
C217 C 0.42268 0.56402 0.55892 0.0
C218 C 0.41529 0.50799 0.54407 0.0
C219 C 0.46614 0.43828 0.51476 0.0
C220 C 0.52439 0.42541 0.50059 0.0
C221 C 0.47245 0.49485 0.5297 0.0
C222 C 0.58832 0.47065 0.50144 0.0
C223 C 0.59479 0.52664 0.51613 0.0
H224 H 0.68948 0.16051 0.80396 0.0
H225 H 0.68706 0.3998 0.8106 0.0
H226 H 0.78466 0.4118 0.78442 0.0
H227 H 0.86901 0.35462 0.75901 0.0
H228 H 0.86705 0.11566 0.75138 0.0
H229 H 0.77313 0.1035 0.77849 0.0
C230 C 0.71056 0.21528 0.79977 0.0
C231 C 0.68086 0.27912 0.80927 0.0
C232 C 0.76588 0.22195 0.78444 0.0
C233 C 0.70856 0.34969 0.80349 0.0
C234 C 0.7645 0.35665 0.78852 0.0
C235 C 0.84833 0.29985 0.76335 0.0
C236 C 0.87537 0.23621 0.75316 0.0
C237 C 0.7933 0.29321 0.77879 0.0
C238 C 0.84724 0.16572 0.75888 0.0
C239 C 0.79351 0.15861 0.77443 0.0
H240 H 0.37373 0.17808 0.79785 0.0
H241 H 0.34891 0.41182 0.81176 0.0
H242 H 0.25775 0.42495 0.78406 0.0
H243 H 0.18313 0.36933 0.75613 0.0
H244 H 0.20487 0.13433 0.74359 0.0
H245 H 0.29959 0.12277 0.7703 0.0
C246 C 0.34861 0.23204 0.79483 0.0
C247 C 0.36848 0.29385 0.8069 0.0
C248 C 0.29574 0.23908 0.77901 0.0
C249 C 0.33469 0.36316 0.80279 0.0
C250 C 0.28264 0.37081 0.78689 0.0
C251 C 0.20922 0.31582 0.75912 0.0
C252 C 0.18712 0.25283 0.74783 0.0
C253 C 0.26263 0.30912 0.77489 0.0
C254 C 0.22071 0.18363 0.75209 0.0
C255 C 0.27485 0.17693 0.76738 0.0
H256 H 0.39475 0.84623 0.2618 0.0
H257 H 0.32349 0.63228 0.23886 0.0
H258 H 0.22583 0.62685 0.26494 0.0
H259 H 0.15954 0.68232 0.29403 0.0
H260 H 0.2292 0.89604 0.31735 0.0
H261 H 0.32843 0.90159 0.29145 0.0
C262 C 0.35787 0.79843 0.26249 0.0
C263 C 0.36687 0.7398 0.2483 0.0
C264 C 0.30139 0.79538 0.27763 0.0
C265 C 0.31838 0.67826 0.24953 0.0
C266 C 0.26226 0.67499 0.26447 0.0
C267 C 0.19639 0.73019 0.29353 0.0
C268 C 0.18647 0.78874 0.30764 0.0
C269 C 0.25319 0.73317 0.27858 0.0
C270 C 0.2352 0.85013 0.30669 0.0
C271 C 0.29203 0.85342 0.29185 0.0
H272 H 0.6022 0.12707 0.51337 0.0
H273 H 0.38359 0.07275 0.49071 0.0
H274 H 0.37141 0.97487 0.51692 0.0
H275 H 0.42273 0.90392 0.5464 0.0
H276 H 0.64181 0.9585 0.56873 0.0
H277 H 0.65331 0.05656 0.54268 0.0
C278 C 0.55186 0.09385 0.51411 0.0
C279 C 0.49397 0.10773 0.50002 0.0
C280 C 0.54503 0.03744 0.52927 0.0
C281 C 0.42919 0.06375 0.50132 0.0
C282 C 0.42205 1.00759 0.51634 0.0
C283 C 0.47288 0.93739 0.54563 0.0
C284 C 0.53126 0.92335 0.55957 0.0
C285 C 0.47955 0.99393 0.53045 0.0
C286 C 0.59594 0.96745 0.55821 0.0
C287 C 0.6027 0.0238 0.54328 0.0
H288 H 0.91392 0.07127 0.05611 0.0
H289 H 0.15242 0.08123 0.06218 0.0
H290 H 0.16673 0.98655 0.03558 0.0
H291 H 0.11197 0.90433 1.00951 0.0
H292 H 0.87355 0.89865 1.00235 0.0
H293 H 0.85906 0.98789 0.03028 0.0
C294 C 0.96893 0.05211 0.05175 0.0
C295 C 0.03193 0.08335 0.06112 0.0
C296 C 0.97696 0.99867 0.03608 0.0
C297 C 0.10293 0.05843 0.05513 0.0
C298 C 0.11124 1.00425 0.03991 0.0
C299 C 0.05682 0.92231 1.01412 0.0
C300 C 0.99411 0.89461 1.00377 0.0
C301 C 0.04872 0.97459 0.03008 0.0
C302 C 0.92303 0.91906 1.00993 0.0
C303 C 0.91453 0.97012 1.02596 0.0
H304 H 0.3802 0.01243 0.18942 0.0
H305 H 0.33442 0.834 0.14707 0.0
H306 H 0.24897 0.91353 0.12779 0.0
H307 H 0.19108 0.03583 0.12196 0.0
H308 H 0.23563 0.21447 0.16434 0.0
H309 H 0.31849 0.13396 0.18428 0.0
C310 C 0.3501 0.99087 0.17626 0.0
C311 C 0.36301 0.91782 0.16967 0.0
C312 C 0.30225 0.0375 0.1649 0.0
C313 C 0.32493 0.8904 0.15238 0.0
C314 C 0.27658 0.93588 0.14124 0.0
C315 C 0.2198 0.05708 0.1354 0.0
C316 C 0.20817 0.13075 0.14157 0.0
C317 C 0.26599 1.01002 0.14708 0.0
C318 C 0.24425 0.15765 0.15927 0.0
C319 C 0.29124 0.11165 0.17076 0.0
H320 H 0.19782 0.99137 0.36613 0.0
H321 H 0.14133 0.88233 0.42371 0.0
H322 H 0.22344 0.96698 0.44238 0.0
H323 H 0.31121 0.07362 0.44237 0.0
H324 H 0.37567 0.17425 0.3843 0.0
H325 H 0.29074 0.09205 0.36584 0.0
C326 C 0.20365 0.98617 0.38276 0.0
C327 C 0.16328 0.93099 0.39352 0.0
C328 C 0.2523 0.03387 0.39333 0.0
C329 C 0.17207 0.92419 0.41505 0.0
C330 C 0.21876 0.97281 0.42575 0.0
C331 C 0.30626 0.07739 0.42569 0.0
C332 C 0.349 0.13008 0.41469 0.0
C333 C 0.259 0.02814 0.41508 0.0
C334 C 0.34325 0.13393 0.39306 0.0
C335 C 0.29468 0.08704 0.3825 0.0
H336 H 0.23239 0.08504 0.68974 0.0
H337 H 0.10843 0.11708 0.63337 0.0
H338 H 0.19587 0.03823 0.61478 0.0
H339 H 0.30327 0.95367 0.61496 0.0
H340 H 0.42651 0.92172 0.67147 0.0
H341 H 0.34424 1.00754 0.68938 0.0
C342 C 0.2246 0.07488 0.67339 0.0
C343 C 0.16354 0.10615 0.66307 0.0
C344 C 0.27504 0.02949 0.66274 0.0
C345 C 0.15479 0.09332 0.64177 0.0
C346 C 0.20477 0.04821 0.63108 0.0
C347 C 0.31268 0.9663 0.63111 0.0
C348 C 0.3703 0.93063 0.64189 0.0
C349 C 0.26457 0.01517 0.64146 0.0
C350 C 0.38189 0.94771 0.66283 0.0
C351 C 0.33486 0.99674 0.67314 0.0
H352 H 0.16043 0.9085 0.89179 0.0
H353 H 0.21537 0.96319 0.95484 0.0
H354 H 0.30659 0.05419 0.9424 0.0
H355 H 0.37473 0.11243 0.91389 0.0
H356 H 0.32249 0.05585 0.85082 0.0
H357 H 0.22525 0.97083 0.86316 0.0
C358 C 0.19194 0.94055 0.90288 0.0
C359 C 0.18153 0.92852 0.92426 0.0
C360 C 0.24483 0.99185 0.89564 0.0
C361 C 0.22254 0.97101 0.93833 0.0
C362 C 0.27477 0.0229 0.93123 0.0
C363 C 0.34218 0.08162 0.90276 0.0
C364 C 0.35652 0.08977 0.88144 0.0
C365 C 0.28711 0.03275 0.90995 0.0
C366 C 0.31296 0.05021 0.8673 0.0
C367 C 0.25744 1.00164 0.87435 0.0
H368 H 0.87261 0.90792 0.89125 0.0
H369 H 0.80517 0.93452 0.95475 0.0
H370 H 0.71382 0.02892 0.94438 0.0
H371 H 0.65082 0.1014 0.91704 0.0
H372 H 0.709 0.06447 0.85324 0.0
H373 H 0.80628 0.97668 0.86381 0.0
C374 C 0.83819 0.93494 0.90278 0.0
C375 C 0.8458 0.91515 0.92373 0.0
C376 C 0.78404 0.98698 0.8966 0.0
C377 C 0.80008 0.94918 0.93853 0.0
C378 C 0.748 1.00306 0.93261 0.0
C379 C 0.68523 0.07436 0.9055 0.0
C380 C 0.67342 0.08956 0.88442 0.0
C381 C 0.73917 0.02208 0.91168 0.0
C382 C 0.71724 0.05337 0.86956 0.0
C383 C 0.77284 1.00336 0.8756 0.0
H384 H 0.92846 0.01666 0.66345 0.0
H385 H 0.76587 0.18793 0.67493 0.0
H386 H 0.66775 0.10827 0.66084 0.0
H387 H 0.62885 0.98933 0.64527 0.0
H388 H 0.79441 0.8235 0.63087 0.0
H389 H 0.89111 0.90164 0.6459 0.0
C390 C 0.87136 0.03607 0.66296 0.0
C391 C 0.85364 0.10712 0.67044 0.0
C392 C 0.81618 0.99122 0.65418 0.0
C393 C 0.78017 0.13296 0.66932 0.0
C394 C 0.72432 0.08757 0.66127 0.0
C395 C 0.6862 0.97064 0.64541 0.0
C396 C 0.70464 0.90085 0.6371 0.0
C397 C 0.74172 0.01659 0.65365 0.0
C398 C 0.7791 0.87731 0.63709 0.0
C399 C 0.83429 0.92171 0.64577 0.0
H400 H 0.86744 0.91313 0.41501 0.0
H401 H 0.83189 0.98287 0.35177 0.0
H402 H 0.73901 0.07266 0.36307 0.0
H403 H 0.67103 0.13559 0.39095 0.0
H404 H 0.7064 0.0658 0.45418 0.0
H405 H 0.79534 0.97225 0.44277 0.0
C406 C 0.83916 0.94763 0.40367 0.0
C407 C 0.85742 0.94129 0.38257 0.0
C408 C 0.78561 0.99967 0.41025 0.0
C409 C 0.81963 0.9865 0.36814 0.0
C410 C 0.76631 0.03811 0.37457 0.0
C411 C 0.69784 0.09972 0.40224 0.0
C412 C 0.68214 0.10849 0.42342 0.0
C413 C 0.7494 0.04583 0.3956 0.0
C414 C 0.71742 0.06095 0.43778 0.0
C415 C 0.76851 1.00723 0.43128 0.0
H416 H 0.72676 0.93953 0.19165 0.0
H417 H 0.63891 0.87663 0.13237 0.0
H418 H 0.72934 0.95658 0.11483 0.0
H419 H 0.82928 0.04872 0.11635 0.0
H420 H 0.92352 0.10727 0.17517 0.0
H421 H 0.83596 0.02369 0.19291 0.0
C422 C 0.72784 0.94352 0.17491 0.0
C423 C 0.67613 0.90315 0.16328 0.0
C424 C 0.78132 0.98826 0.16487 0.0
C425 C 0.6784 0.90738 0.1416 0.0
C426 C 0.72995 0.95305 0.13156 0.0
C427 C 0.83111 0.04241 0.13304 0.0
C428 C 0.88213 0.08417 0.14447 0.0
C429 C 0.78117 0.99419 0.14304 0.0
C430 C 0.88479 0.07519 0.16605 0.0
C431 C 0.83438 0.02797 0.1762 0.0
H432 H 0.85857 0.39813 0.64632 0.0
H433 H 0.8333 0.48099 0.70845 0.0
H434 H 0.73869 0.56922 0.69639 0.0
H435 H 0.6702 0.62762 0.66784 0.0
H436 H 0.69911 0.54599 0.60565 0.0
H437 H 0.78581 0.4516 0.61827 0.0
C438 C 0.83242 0.43534 0.65731 0.0
C439 C 0.85376 0.43384 0.67822 0.0
C440 C 0.77915 0.48607 0.65026 0.0
C441 C 0.81822 0.48144 0.69226 0.0
C442 C 0.76434 0.53191 0.68536 0.0
C443 C 0.69507 0.58897 0.65702 0.0
C444 C 0.67886 0.59447 0.63576 0.0
C445 C 0.74546 0.53551 0.66433 0.0
C446 C 0.71105 0.54341 0.62203 0.0
C447 C 0.76065 0.4895 0.62923 0.0
H448 H 0.81907 0.554 0.94285 0.0
H449 H 0.8974 0.64108 0.88425 0.0
H450 H 0.81589 0.55625 0.86593 0.0
H451 H 0.71666 0.46296 0.86646 0.0
H452 H 0.6376 0.37645 0.92506 0.0
H453 H 0.72528 0.45502 0.94332 0.0
C454 C 0.81875 0.55395 0.92608 0.0
C455 C 0.86342 0.60447 0.91499 0.0
C456 C 0.77125 0.50542 0.91557 0.0
C457 C 0.86278 0.60336 0.89323 0.0
C458 C 0.81621 0.55485 0.88268 0.0
C459 C 0.71886 0.46103 0.88321 0.0
C460 C 0.66997 0.41468 0.89432 0.0
C461 C 0.76919 0.50664 0.8937 0.0
C462 C 0.67411 0.41223 0.91606 0.0
C463 C 0.72428 0.45712 0.92657 0.0
H464 H 0.73479 0.56902 0.18625 0.0
H465 H 0.58051 0.56937 0.13534 0.0
H466 H 0.65913 0.48337 0.11637 0.0
H467 H 0.77064 0.40443 0.11447 0.0
H468 H 0.92524 0.40532 0.16527 0.0
H469 H 0.84871 0.49473 0.1837 0.0
C470 C 0.71846 0.54991 0.17106 0.0
C471 C 0.65202 0.57514 0.16233 0.0
C472 C 0.76431 0.50092 0.16003 0.0
C473 C 0.63172 0.55078 0.14247 0.0
C474 C 0.6766 0.50159 0.13153 0.0
C475 C 0.78774 0.42506 0.12943 0.0
C476 C 0.85265 0.39779 0.13859 0.0
C477 C 0.74303 0.4761 0.14015 0.0
C478 C 0.87455 0.4248 0.15802 0.0
C479 C 0.83092 0.47589 0.16863 0.0
H480 H 0.87851 0.61633 0.41431 0.0
H481 H 0.82289 0.5725 0.35084 0.0
H482 H 0.72855 0.48202 0.36206 0.0
H483 H 0.66373 0.41306 0.39001 0.0
H484 H 0.72893 0.44731 0.45325 0.0
H485 H 0.81751 0.54354 0.44216 0.0
C486 C 0.84523 0.58729 0.40298 0.0
C487 C 0.85692 0.60154 0.38179 0.0
C488 C 0.79307 0.53336 0.40954 0.0
C489 C 0.81466 0.56249 0.36723 0.0
C490 C 0.76077 0.51082 0.37365 0.0
C491 C 0.69716 0.44195 0.40134 0.0
C492 C 0.68953 0.42357 0.42244 0.0
C493 C 0.74973 0.49546 0.39476 0.0
C494 C 0.734 0.46044 0.43693 0.0
C495 C 0.78449 0.51555 0.43059 0.0
H496 H 0.36458 0.41093 0.39013 0.0
H497 H 0.32047 0.47201 0.45343 0.0
H498 H 0.22793 0.56223 0.44196 0.0
H499 H 0.15586 0.62133 0.41409 0.0
H500 H 0.2004 0.56074 0.35078 0.0
H501 H 0.29582 0.47346 0.36217 0.0
C502 C 0.3352 0.44432 0.40143 0.0
C503 C 0.34956 0.43404 0.42264 0.0
C504 C 0.28145 0.4962 0.39475 0.0
C505 C 0.31065 0.47814 0.437 0.0
C506 C 0.25743 0.52988 0.43047 0.0
C507 C 0.18641 0.58912 0.40277 0.0
C508 C 0.17022 0.59755 0.3816 0.0
C509 C 0.2417 0.53884 0.4094 0.0
C510 C 0.21113 0.55553 0.36719 0.0
C511 C 0.26594 0.50541 0.37368 0.0
H512 H 0.26417 0.38236 0.1277 0.0
H513 H 0.06396 0.49789 0.14552 0.0
H514 H 0.13849 0.5982 0.16062 0.0
H515 H 0.2619 0.64859 0.17052 0.0
H516 H 0.45903 0.52362 0.15521 0.0
H517 H 0.38454 0.4313 0.13718 0.0
C518 C 0.23673 0.43001 0.13461 0.0
C519 C 0.159 0.43326 0.13544 0.0
C520 C 0.2795 0.48533 0.14382 0.0
C521 C 0.12404 0.49453 0.14476 0.0
C522 C 0.16651 0.55163 0.1534 0.0
C523 C 0.2879 0.60122 0.16308 0.0
C524 C 0.36514 0.59207 0.16409 0.0
C525 C 0.24439 0.54698 0.15331 0.0
C526 C 0.39926 0.53083 0.15461 0.0
C527 C 0.35689 0.47831 0.14432 0.0
H528 H 0.20479 0.55527 0.94144 0.0
H529 H 0.17818 0.67919 0.88463 0.0
H530 H 0.26369 0.59456 0.86695 0.0
H531 H 0.34673 0.48574 0.86772 0.0
H532 H 0.36556 0.35496 0.92367 0.0
H533 H 0.28186 0.44077 0.94155 0.0
C534 C 0.21818 0.56353 0.92522 0.0
C535 C 0.1863 0.62348 0.91433 0.0
C536 C 0.26544 0.51311 0.91499 0.0
C537 C 0.20255 0.63331 0.89325 0.0
C538 C 0.25128 0.585 0.88316 0.0
C539 C 0.3322 0.47593 0.8838 0.0
C540 C 0.36256 0.41438 0.89438 0.0
C541 C 0.28307 0.52471 0.89386 0.0
C542 C 0.34262 0.40177 0.91515 0.0
C543 C 0.29511 0.45107 0.92542 0.0
H544 H 0.21037 0.47115 0.69421 0.0
H545 H 0.11871 0.40648 0.63556 0.0
H546 H 0.19998 0.49499 0.61759 0.0
H547 H 0.29837 0.59046 0.61843 0.0
H548 H 0.39839 0.6467 0.67668 0.0
H549 H 0.31322 0.56232 0.69487 0.0
C550 C 0.20833 0.47677 0.67751 0.0
C551 C 0.15867 0.43272 0.66623 0.0
C552 C 0.25685 0.52627 0.66719 0.0
C553 C 0.15693 0.43962 0.64457 0.0
C554 C 0.20318 0.49036 0.63427 0.0
C555 C 0.30114 0.58423 0.6351 0.0
C556 C 0.35408 0.62482 0.64622 0.0
C557 C 0.2535 0.5339 0.6454 0.0
C558 C 0.35811 0.61567 0.66779 0.0
C559 C 0.30935 0.56762 0.67822 0.0
loop_
_geom_bond_atom_site_label_1
_geom_bond_atom_site_label_2
_geom_bond_distance
_geom_bond_site_symmetry_2
_ccdc_geom_bond_type
Fe0 O2 1.918 . S
Fe0 O5 1.997 1_455 S
Fe0 O6 2.002 . S
Fe0 O11 1.976 . S
Fe0 O14 1.996 1_455 S
Fe1 O2 1.918 . S
Fe1 O9 1.997 . S
Fe1 O12 1.996 . S
Fe1 O16 1.976 . S
Fe1 O19 2.002 . S
O2 Fe0 1.918 . S
O2 Fe1 1.918 . S
O2 Fe3 1.918 1_455 S
Fe3 O2 1.918 1_655 S
Fe3 O4 2.002 . S
Fe3 O13 1.976 . S
Fe3 O17 1.996 . S
Fe3 O20 1.997 . S
O4 Fe3 2.002 . S
O4 C21 1.295 . S
O5 Fe0 1.997 1_655 S
O5 C21 1.235 . S
O6 Fe0 2.002 . S
O6 C7 1.295 . S
C7 O6 1.295 . S
C7 O9 1.235 . S
C8 O13 1.287 . S
C8 O14 1.255 . S
O9 Fe1 1.997 . S
O9 C7 1.235 . S
C10 O16 1.287 . S
C10 O17 1.255 1_455 S
O11 Fe0 1.976 . S
O11 C18 1.287 . S
O12 Fe1 1.996 . S
O12 C18 1.255 . S
O13 Fe3 1.976 . S
O13 C8 1.287 . S
O14 Fe0 1.996 1_655 S
O14 C8 1.255 . S
C15 O19 1.295 . S
C15 O20 1.235 1_455 S
O16 Fe1 1.976 . S
O16 C10 1.287 . S
O17 Fe3 1.996 . S
O17 C10 1.255 1_655 S
C18 O11 1.287 . S
C18 O12 1.255 . S
O19 Fe1 2.002 . S
O19 C15 1.295 . S
O20 Fe3 1.997 . S
O20 C15 1.235 1_655 S
C21 O4 1.295 . S
C21 O5 1.235 . S
Fe22 O24 1.918 . S
Fe22 O27 1.997 . S
Fe22 O28 2.002 . S
Fe22 O33 1.976 1_455 S
Fe22 O36 1.996 1_455 S
Fe23 O24 1.918 . S
Fe23 O31 1.997 . S
Fe23 O34 1.996 1_455 S
Fe23 O38 1.976 1_455 S
Fe23 O41 2.002 . S
O24 Fe22 1.918 . S
O24 Fe23 1.918 . S
O24 Fe25 1.918 . S
Fe25 O24 1.918 . S
Fe25 O26 2.002 . S
Fe25 O35 1.976 1_455 S
Fe25 O39 1.996 1_455 S
Fe25 O42 1.997 . S
O26 Fe25 2.002 . S
O26 C43 1.295 . S
O27 Fe22 1.997 . S
O27 C43 1.235 . S
O28 Fe22 2.002 . S
O28 C29 1.295 . S
C29 O28 1.295 . S
C29 O31 1.235 . S
C30 O35 1.287 . S
C30 O36 1.255 . S
O31 Fe23 1.997 . S
O31 C29 1.235 . S
C32 O38 1.287 . S
C32 O39 1.255 . S
O33 Fe22 1.976 1_655 S
O33 C40 1.287 . S
O34 Fe23 1.996 1_655 S
O34 C40 1.255 . S
O35 Fe25 1.976 1_655 S
O35 C30 1.287 . S
O36 Fe22 1.996 1_655 S
O36 C30 1.255 . S
C37 O41 1.295 . S
C37 O42 1.235 . S
O38 Fe23 1.976 1_655 S
O38 C32 1.287 . S
O39 Fe25 1.996 1_655 S
O39 C32 1.255 . S
C40 O33 1.287 . S
C40 O34 1.255 . S
O41 Fe23 2.002 . S
O41 C37 1.295 . S
O42 Fe25 1.997 . S
O42 C37 1.235 . S
C43 O26 1.295 . S
C43 O27 1.235 . S
Fe44 O46 1.918 . S
Fe44 O49 1.997 . S
Fe44 O50 2.002 . S
Fe44 O55 1.976 . S
Fe44 O58 1.996 . S
Fe45 O46 1.918 . S
Fe45 O53 1.997 . S
Fe45 O56 1.996 . S
Fe45 O60 1.976 . S
Fe45 O63 2.002 . S
O46 Fe44 1.918 . S
O46 Fe45 1.918 . S
O46 Fe47 1.918 . S
Fe47 O46 1.918 . S
Fe47 O48 2.002 . S
Fe47 O57 1.976 . S
Fe47 O61 1.996 . S
Fe47 O64 1.997 . S
O48 Fe47 2.002 . S
O48 C65 1.295 . S
O49 Fe44 1.997 . S
O49 C65 1.235 . S
O50 Fe44 2.002 . S
O50 C51 1.295 . S
C51 O50 1.295 . S
C51 O53 1.235 . S
C52 O57 1.287 . S
C52 O58 1.255 . S
O53 Fe45 1.997 . S
O53 C51 1.235 . S
C54 O60 1.287 . S
C54 O61 1.255 . S
O55 Fe44 1.976 . S
O55 C62 1.287 . S
O56 Fe45 1.996 . S
O56 C62 1.255 . S
O57 Fe47 1.976 . S
O57 C52 1.287 . S
O58 Fe44 1.996 . S
O58 C52 1.255 . S
C59 O63 1.295 . S
C59 O64 1.235 . S
O60 Fe45 1.976 . S
O60 C54 1.287 . S
O61 Fe47 1.996 . S
O61 C54 1.255 . S
C62 O55 1.287 . S
C62 O56 1.255 . S
O63 Fe45 2.002 . S
O63 C59 1.295 . S
O64 Fe47 1.997 . S
O64 C59 1.235 . S
C65 O48 1.295 . S
C65 O49 1.235 . S
Fe66 O68 1.918 . S
Fe66 O71 1.997 . S
Fe66 O72 2.002 . S
Fe66 O77 1.976 . S
Fe66 O80 1.996 . S
Fe67 O68 1.918 . S
Fe67 O75 1.997 . S
Fe67 O78 1.996 . S
Fe67 O82 1.976 . S
Fe67 O85 2.002 . S
O68 Fe66 1.918 . S
O68 Fe67 1.918 . S
O68 Fe69 1.918 . S
Fe69 O68 1.918 . S
Fe69 O70 2.002 . S
Fe69 O79 1.976 . S
Fe69 O83 1.996 . S
Fe69 O86 1.997 . S
O70 Fe69 2.002 . S
O70 C87 1.295 . S
O71 Fe66 1.997 . S
O71 C87 1.235 . S
O72 Fe66 2.002 . S
O72 C73 1.295 . S
C73 O72 1.295 . S
C73 O75 1.235 . S
C74 O79 1.287 . S
C74 O80 1.255 . S
O75 Fe67 1.997 . S
O75 C73 1.235 . S
C76 O82 1.287 . S
C76 O83 1.255 . S
O77 Fe66 1.976 . S
O77 C84 1.287 . S
O78 Fe67 1.996 . S
O78 C84 1.255 . S
O79 Fe69 1.976 . S
O79 C74 1.287 . S
O80 Fe66 1.996 . S
O80 C74 1.255 . S
C81 O85 1.295 . S
C81 O86 1.235 . S
O82 Fe67 1.976 . S
O82 C76 1.287 . S
O83 Fe69 1.996 . S
O83 C76 1.255 . S
C84 O77 1.287 . S
C84 O78 1.255 . S
O85 Fe67 2.002 . S
O85 C81 1.295 . S
O86 Fe69 1.997 . S
O86 C81 1.235 . S
C87 O70 1.295 . S
C87 O71 1.235 . S
Fe88 O90 1.918 . S
Fe88 O93 1.997 . S
Fe88 O94 2.002 . S
Fe88 O99 1.976 . S
Fe88 O102 1.996 . S
Fe89 O90 1.918 1_655 S
Fe89 O97 1.997 . S
Fe89 O100 1.996 . S
Fe89 O104 1.976 . S
Fe89 O107 2.002 . S
O90 Fe88 1.918 . S
O90 Fe89 1.918 1_455 S
O90 Fe91 1.918 . S
Fe91 O90 1.918 . S
Fe91 O92 2.002 . S
Fe91 O101 1.976 . S
Fe91 O105 1.996 1_455 S
Fe91 O108 1.997 1_455 S
O92 Fe91 2.002 . S
O92 C109 1.295 . S
O93 Fe88 1.997 . S
O93 C109 1.235 . S
O94 Fe88 2.002 . S
O94 C95 1.295 . S
C95 O94 1.295 . S
C95 O97 1.235 1_455 S
C96 O101 1.287 . S
C96 O102 1.255 . S
O97 Fe89 1.997 . S
O97 C95 1.235 1_655 S
C98 O104 1.287 . S
C98 O105 1.255 . S
O99 Fe88 1.976 . S
O99 C106 1.287 . S
O100 Fe89 1.996 . S
O100 C106 1.255 1_655 S
O101 Fe91 1.976 . S
O101 C96 1.287 . S
O102 Fe88 1.996 . S
O102 C96 1.255 . S
C103 O107 1.295 . S
C103 O108 1.235 . S
O104 Fe89 1.976 . S
O104 C98 1.287 . S
O105 Fe91 1.996 1_655 S
O105 C98 1.255 . S
C106 O99 1.287 . S
C106 O100 1.255 1_455 S
O107 Fe89 2.002 . S
O107 C103 1.295 . S
O108 Fe91 1.997 1_655 S
O108 C103 1.235 . S
C109 O92 1.295 . S
C109 O93 1.235 . S
Fe110 O112 1.918 . S
Fe110 O115 1.997 . S
Fe110 O116 2.002 . S
Fe110 O121 1.976 . S
Fe110 O124 1.996 . S
Fe111 O112 1.918 . S
Fe111 O119 1.997 . S
Fe111 O122 1.996 . S
Fe111 O126 1.976 . S
Fe111 O129 2.002 . S
O112 Fe110 1.918 . S
O112 Fe111 1.918 . S
O112 Fe113 1.918 . S
Fe113 O112 1.918 . S
Fe113 O114 2.002 . S
Fe113 O123 1.976 . S
Fe113 O127 1.996 . S
Fe113 O130 1.997 . S
O114 Fe113 2.002 . S
O114 C131 1.295 . S
O115 Fe110 1.997 . S
O115 C131 1.235 . S
O116 Fe110 2.002 . S
O116 C117 1.295 . S
C117 O116 1.295 . S
C117 O119 1.235 . S
C118 O123 1.287 . S
C118 O124 1.255 . S
O119 Fe111 1.997 . S
O119 C117 1.235 . S
C120 O126 1.287 . S
C120 O127 1.255 . S
O121 Fe110 1.976 . S
O121 C128 1.287 . S
O122 Fe111 1.996 . S
O122 C128 1.255 . S
O123 Fe113 1.976 . S
O123 C118 1.287 . S
O124 Fe110 1.996 . S
O124 C118 1.255 . S
C125 O129 1.295 . S
C125 O130 1.235 . S
O126 Fe111 1.976 . S
O126 C120 1.287 . S
O127 Fe113 1.996 . S
O127 C120 1.255 . S
C128 O121 1.287 . S
C128 O122 1.255 . S
O129 Fe111 2.002 . S
O129 C125 1.295 . S
O130 Fe113 1.997 . S
O130 C125 1.235 . S
C131 O114 1.295 . S
C131 O115 1.235 . S
Fe132 O134 1.918 . S
Fe132 O137 1.997 . S
Fe132 O138 2.002 . S
Fe132 O143 1.976 . S
Fe132 O146 1.996 . S
Fe133 O134 1.918 . S
Fe133 O141 1.997 . S
Fe133 O144 1.996 . S
Fe133 O148 1.976 . S
Fe133 O151 2.002 . S
O134 Fe132 1.918 . S
O134 Fe133 1.918 . S
O134 Fe135 1.918 . S
Fe135 O134 1.918 . S
Fe135 O136 2.002 . S
Fe135 O145 1.976 . S
Fe135 O149 1.996 . S
Fe135 O152 1.997 . S
O136 Fe135 2.002 . S
O136 C153 1.295 . S
O137 Fe132 1.997 . S
O137 C153 1.235 . S
O138 Fe132 2.002 . S
O138 C139 1.295 . S
C139 O138 1.295 . S
C139 O141 1.235 . S
C140 O145 1.287 . S
C140 O146 1.255 . S
O141 Fe133 1.997 . S
O141 C139 1.235 . S
C142 O148 1.287 . S
C142 O149 1.255 . S
O143 Fe132 1.976 . S
O143 C150 1.287 . S
O144 Fe133 1.996 . S
O144 C150 1.255 . S
O145 Fe135 1.976 . S
O145 C140 1.287 . S
O146 Fe132 1.996 . S
O146 C140 1.255 . S
C147 O151 1.295 . S
C147 O152 1.235 . S
O148 Fe133 1.976 . S
O148 C142 1.287 . S
O149 Fe135 1.996 . S
O149 C142 1.255 . S
C150 O143 1.287 . S
C150 O144 1.255 . S
O151 Fe133 2.002 . S
O151 C147 1.295 . S
O152 Fe135 1.997 . S
O152 C147 1.235 . S
C153 O136 1.295 . S
C153 O137 1.235 . S
Fe154 O156 1.918 . S
Fe154 O159 1.997 1_455 S
Fe154 O160 2.002 1_455 S
Fe154 O165 1.976 . S
Fe154 O168 1.996 . S
Fe155 O156 1.918 . S
Fe155 O163 1.997 1_455 S
Fe155 O166 1.996 . S
Fe155 O170 1.976 . S
Fe155 O173 2.002 1_455 S
O156 Fe154 1.918 . S
O156 Fe155 1.918 . S
O156 Fe157 1.918 . S
Fe157 O156 1.918 . S
Fe157 O158 2.002 1_455 S
Fe157 O167 1.976 . S
Fe157 O171 1.996 . S
Fe157 O174 1.997 1_455 S
O158 Fe157 2.002 1_655 S
O158 C175 1.295 . S
O159 Fe154 1.997 1_655 S
O159 C175 1.235 . S
O160 Fe154 2.002 1_655 S
O160 C161 1.295 . S
C161 O160 1.295 . S
C161 O163 1.235 . S
C162 O167 1.287 . S
C162 O168 1.255 . S
O163 Fe155 1.997 1_655 S
O163 C161 1.235 . S
C164 O170 1.287 . S
C164 O171 1.255 . S
O165 Fe154 1.976 . S
O165 C172 1.287 . S
O166 Fe155 1.996 . S
O166 C172 1.255 . S
O167 Fe157 1.976 . S
O167 C162 1.287 . S
O168 Fe154 1.996 . S
O168 C162 1.255 . S
C169 O173 1.295 . S
C169 O174 1.235 . S
O170 Fe155 1.976 . S
O170 C164 1.287 . S
O171 Fe157 1.996 . S
O171 C164 1.255 . S
C172 O165 1.287 . S
C172 O166 1.255 . S
O173 Fe155 2.002 1_655 S
O173 C169 1.295 . S
O174 Fe157 1.997 1_655 S
O174 C169 1.235 . S
C175 O158 1.295 . S
C175 O159 1.235 . S
H176 C182 0.930 . S
H177 C185 0.930 . S
H178 C186 0.930 . S
H179 C187 0.930 . S
H180 C190 0.930 . S
H181 C191 0.930 . S
C182 H176 0.930 . S
C182 C183 1.355 . S
C182 C184 1.415 1_554 S
C183 C182 1.355 . S
C183 C185 1.419 1_455 S
C184 C182 1.415 1_556 S
C184 C189 1.425 1_456 S
C184 C191 1.409 . S
C185 H177 0.930 . S
C185 C183 1.419 1_655 S
C185 C186 1.362 . S
C186 H178 0.930 . S
C186 C185 1.362 . S
C186 C189 1.409 . S
C187 H179 0.930 . S
C187 C188 1.355 1_655 S
C187 C189 1.415 1_556 S
C188 C187 1.355 1_455 S
C188 C190 1.419 . S
C189 C184 1.425 1_654 S
C189 C186 1.409 . S
C189 C187 1.415 1_554 S
C190 H180 0.930 . S
C190 C188 1.419 . S
C190 C191 1.362 . S
C191 H181 0.930 . S
C191 C184 1.409 . S
C191 C190 1.362 . S
H192 C198 0.930 . S
H193 C201 0.930 . S
H194 C202 0.930 . S
H195 C203 0.930 . S
H196 C206 0.930 . S
H197 C207 0.930 . S
C198 H192 0.930 . S
C198 C199 1.355 . S
C198 C200 1.415 . S
C199 C198 1.355 . S
C199 C201 1.419 . S
C200 C198 1.415 . S
C200 C205 1.425 . S
C200 C207 1.409 . S
C201 H193 0.930 . S
C201 C199 1.419 . S
C201 C202 1.362 . S
C202 H194 0.930 . S
C202 C201 1.362 . S
C202 C205 1.409 . S
C203 H195 0.930 . S
C203 C204 1.355 . S
C203 C205 1.415 . S
C204 C203 1.355 . S
C204 C206 1.419 . S
C205 C200 1.425 . S
C205 C202 1.409 . S
C205 C203 1.415 . S
C206 H196 0.930 . S
C206 C204 1.419 . S
C206 C207 1.362 . S
C207 H197 0.930 . S
C207 C200 1.409 . S
C207 C206 1.362 . S
H208 C214 0.930 . S
H209 C217 0.930 . S
H210 C218 0.930 . S
H211 C219 0.930 . S
H212 C222 0.930 . S
H213 C223 0.930 . S
C214 H208 0.930 . S
C214 C215 1.355 . S
C214 C216 1.415 . S
C215 C214 1.355 . S
C215 C217 1.419 . S
C216 C214 1.415 . S
C216 C221 1.425 . S
C216 C223 1.409 . S
C217 H209 0.930 . S
C217 C215 1.419 . S
C217 C218 1.362 . S
C218 H210 0.930 . S
C218 C217 1.362 . S
C218 C221 1.409 . S
C219 H211 0.930 . S
C219 C220 1.355 . S
C219 C221 1.415 . S
C220 C219 1.355 . S
C220 C222 1.419 . S
C221 C216 1.425 . S
C221 C218 1.409 . S
C221 C219 1.415 . S
C222 H212 0.930 . S
C222 C220 1.419 . S
C222 C223 1.362 . S
C223 H213 0.930 . S
C223 C216 1.409 . S
C223 C222 1.362 . S
H224 C230 0.930 . S
H225 C233 0.930 . S
H226 C234 0.930 . S
H227 C235 0.930 . S
H228 C238 0.930 . S
H229 C239 0.930 . S
C230 H224 0.930 . S
C230 C231 1.355 . S
C230 C232 1.415 . S
C231 C230 1.355 . S
C231 C233 1.419 . S
C232 C230 1.415 . S
C232 C237 1.425 . S
C232 C239 1.409 . S
C233 H225 0.930 . S
C233 C231 1.419 . S
C233 C234 1.362 . S
C234 H226 0.930 . S
C234 C233 1.362 . S
C234 C237 1.409 . S
C235 H227 0.930 . S
C235 C236 1.355 . S
C235 C237 1.415 . S
C236 C235 1.355 . S
C236 C238 1.419 . S
C237 C232 1.425 . S
C237 C234 1.409 . S
C237 C235 1.415 . S
C238 H228 0.930 . S
C238 C236 1.419 . S
C238 C239 1.362 . S
C239 H229 0.930 . S
C239 C232 1.409 . S
C239 C238 1.362 . S
H240 C246 0.930 . S
H241 C249 0.930 . S
H242 C250 0.930 . S
H243 C251 0.930 . S
H244 C254 0.930 . S
H245 C255 0.930 . S
C246 H240 0.930 . S
C246 C247 1.355 . S
C246 C248 1.415 . S
C247 C246 1.355 . S
C247 C249 1.419 . S
C248 C246 1.415 . S
C248 C253 1.425 . S
C248 C255 1.409 . S
C249 H241 0.930 . S
C249 C247 1.419 . S
C249 C250 1.362 . S
C250 H242 0.930 . S
C250 C249 1.362 . S
C250 C253 1.409 . S
C251 H243 0.930 . S
C251 C252 1.355 . S
C251 C253 1.415 . S
C252 C251 1.355 . S
C252 C254 1.419 . S
C253 C248 1.425 . S
C253 C250 1.409 . S
C253 C251 1.415 . S
C254 H244 0.930 . S
C254 C252 1.419 . S
C254 C255 1.362 . S
C255 H245 0.930 . S
C255 C248 1.409 . S
C255 C254 1.362 . S
H256 C262 0.930 . S
H257 C265 0.930 . S
H258 C266 0.930 . S
H259 C267 0.930 . S
H260 C270 0.930 . S
H261 C271 0.930 . S
C262 H256 0.930 . S
C262 C263 1.355 . S
C262 C264 1.415 . S
C263 C262 1.355 . S
C263 C265 1.419 . S
C264 C262 1.415 . S
C264 C269 1.425 . S
C264 C271 1.409 . S
C265 H257 0.930 . S
C265 C263 1.419 . S
C265 C266 1.362 . S
C266 H258 0.930 . S
C266 C265 1.362 . S
C266 C269 1.409 . S
C267 H259 0.930 . S
C267 C268 1.355 . S
C267 C269 1.415 . S
C268 C267 1.355 . S
C268 C270 1.419 . S
C269 C264 1.425 . S
C269 C266 1.409 . S
C269 C267 1.415 . S
C270 H260 0.930 . S
C270 C268 1.419 . S
C270 C271 1.362 . S
C271 H261 0.930 . S
C271 C264 1.409 . S
C271 C270 1.362 . S
H272 C278 0.930 . S
H273 C281 0.930 . S
H274 C282 0.930 . S
H275 C283 0.930 . S
H276 C286 0.930 . S
H277 C287 0.930 . S
C278 H272 0.930 . S
C278 C279 1.355 . S
C278 C280 1.415 1_545 S
C279 C278 1.355 . S
C279 C281 1.419 . S
C280 C278 1.415 1_565 S
C280 C285 1.425 1_565 S
C280 C287 1.409 . S
C281 H273 0.930 . S
C281 C279 1.419 . S
C281 C282 1.362 . S
C282 H274 0.930 . S
C282 C281 1.362 . S
C282 C285 1.409 . S
C283 H275 0.930 . S
C283 C284 1.355 . S
C283 C285 1.415 1_565 S
C284 C283 1.355 . S
C284 C286 1.419 . S
C285 C280 1.425 1_545 S
C285 C282 1.409 . S
C285 C283 1.415 1_545 S
C286 H276 0.930 . S
C286 C284 1.419 . S
C286 C287 1.362 . S
C287 H277 0.930 . S
C287 C280 1.409 . S
C287 C286 1.362 . S
H288 C294 0.930 . S
H289 C297 0.930 . S
H290 C298 0.930 . S
H291 C299 0.930 . S
H292 C302 0.930 . S
H293 C303 0.930 . S
C294 H288 0.930 . S
C294 C295 1.355 1_655 S
C294 C296 1.415 1_545 S
C295 C294 1.355 1_455 S
C295 C297 1.419 . S
C296 C294 1.415 1_565 S
C296 C301 1.425 1_664 S
C296 C303 1.409 . S
C297 H289 0.930 . S
C297 C295 1.419 . S
C297 C298 1.362 1_554 S
C298 H290 0.930 . S
C298 C297 1.362 1_556 S
C298 C301 1.409 . S
C299 H291 0.930 . S
C299 C300 1.355 . S
C299 C301 1.415 1_565 S
C300 C299 1.355 . S
C300 C302 1.419 1_455 S
C301 C296 1.425 1_446 S
C301 C298 1.409 . S
C301 C299 1.415 1_545 S
C302 H292 0.930 . S
C302 C300 1.419 1_655 S
C302 C303 1.362 1_556 S
C303 H293 0.930 . S
C303 C296 1.409 . S
C303 C302 1.362 1_554 S
H304 C310 0.930 . S
H305 C313 0.930 . S
H306 C314 0.930 . S
H307 C315 0.930 . S
H308 C318 0.930 . S
H309 C319 0.930 . S
C310 H304 0.930 . S
C310 C311 1.355 . S
C310 C312 1.415 1_565 S
C311 C310 1.355 . S
C311 C313 1.419 . S
C312 C310 1.415 1_545 S
C312 C317 1.425 1_545 S
C312 C319 1.409 . S
C313 H305 0.930 . S
C313 C311 1.419 . S
C313 C314 1.362 . S
C314 H306 0.930 . S
C314 C313 1.362 . S
C314 C317 1.409 . S
C315 H307 0.930 . S
C315 C316 1.355 . S
C315 C317 1.415 1_545 S
C316 C315 1.355 . S
C316 C318 1.419 . S
C317 C312 1.425 1_565 S
C317 C314 1.409 . S
C317 C315 1.415 1_565 S
C318 H308 0.930 . S
C318 C316 1.419 . S
C318 C319 1.362 . S
C319 H309 0.930 . S
C319 C312 1.409 . S
C319 C318 1.362 . S
H320 C326 0.930 . S
H321 C329 0.930 . S
H322 C330 0.930 . S
H323 C331 0.930 . S
H324 C334 0.930 . S
H325 C335 0.930 . S
C326 H320 0.930 . S
C326 C327 1.355 . S
C326 C328 1.415 1_565 S
C327 C326 1.355 . S
C327 C329 1.419 . S
C328 C326 1.415 1_545 S
C328 C333 1.425 1_545 S
C328 C335 1.409 . S
C329 H321 0.930 . S
C329 C327 1.419 . S
C329 C330 1.362 . S
C330 H322 0.930 . S
C330 C329 1.362 . S
C330 C333 1.409 . S
C331 H323 0.930 . S
C331 C332 1.355 . S
C331 C333 1.415 1_545 S
C332 C331 1.355 . S
C332 C334 1.419 . S
C333 C328 1.425 1_565 S
C333 C330 1.409 . S
C333 C331 1.415 1_565 S
C334 H324 0.930 . S
C334 C332 1.419 . S
C334 C335 1.362 . S
C335 H325 0.930 . S
C335 C328 1.409 . S
C335 C334 1.362 . S
H336 C342 0.930 1_565 S
H337 C345 0.930 . S
H338 C346 0.930 . S
H339 C347 0.930 . S
H340 C350 0.930 . S
H341 C351 0.930 . S
C342 H336 0.930 1_545 S
C342 C343 1.355 . S
C342 C344 1.415 1_545 S
C343 C342 1.355 . S
C343 C345 1.419 . S
C344 C342 1.415 1_565 S
C344 C349 1.425 1_565 S
C344 C351 1.409 . S
C345 H337 0.930 . S
C345 C343 1.419 . S
C345 C346 1.362 . S
C346 H338 0.930 . S
C346 C345 1.362 . S
C346 C349 1.409 . S
C347 H339 0.930 . S
C347 C348 1.355 . S
C347 C349 1.415 1_565 S
C348 C347 1.355 . S
C348 C350 1.419 . S
C349 C344 1.425 1_545 S
C349 C346 1.409 . S
C349 C347 1.415 1_545 S
C350 H340 0.930 . S
C350 C348 1.419 . S
C350 C351 1.362 . S
C351 H341 0.930 . S
C351 C344 1.409 . S
C351 C350 1.362 . S
H352 C358 0.930 . S
H353 C361 0.930 . S
H354 C362 0.930 . S
H355 C363 0.930 . S
H356 C366 0.930 1_565 S
H357 C367 0.930 . S
C358 H352 0.930 . S
C358 C359 1.355 . S
C358 C360 1.415 . S
C359 C358 1.355 . S
C359 C361 1.419 . S
C360 C358 1.415 . S
C360 C365 1.425 1_565 S
C360 C367 1.409 . S
C361 H353 0.930 . S
C361 C359 1.419 . S
C361 C362 1.362 1_565 S
C362 H354 0.930 . S
C362 C361 1.362 1_545 S
C362 C365 1.409 . S
C363 H355 0.930 . S
C363 C364 1.355 . S
C363 C365 1.415 . S
C364 C363 1.355 . S
C364 C366 1.419 . S
C365 C360 1.425 1_545 S
C365 C362 1.409 . S
C365 C363 1.415 . S
C366 H356 0.930 1_545 S
C366 C364 1.419 . S
C366 C367 1.362 1_545 S
C367 H357 0.930 . S
C367 C360 1.409 . S
C367 C366 1.362 1_565 S
H368 C374 0.930 . S
H369 C377 0.930 . S
H370 C378 0.930 . S
H371 C379 0.930 1_565 S
H372 C382 0.930 . S
H373 C383 0.930 . S
C374 H368 0.930 . S
C374 C375 1.355 . S
C374 C376 1.415 1_565 S
C375 C374 1.355 . S
C375 C377 1.419 . S
C376 C374 1.415 1_545 S
C376 C381 1.425 1_545 S
C376 C383 1.409 . S
C377 H369 0.930 . S
C377 C375 1.419 . S
C377 C378 1.362 . S
C378 H370 0.930 . S
C378 C377 1.362 . S
C378 C381 1.409 . S
C379 H371 0.930 1_545 S
C379 C380 1.355 . S
C379 C381 1.415 1_545 S
C380 C379 1.355 . S
C380 C382 1.419 . S
C381 C376 1.425 1_565 S
C381 C378 1.409 . S
C381 C379 1.415 1_565 S
C382 H372 0.930 . S
C382 C380 1.419 . S
C382 C383 1.362 . S
C383 H373 0.930 . S
C383 C376 1.409 . S
C383 C382 1.362 . S
H384 C390 0.930 . S
H385 C393 0.930 . S
H386 C394 0.930 . S
H387 C395 0.930 . S
H388 C398 0.930 . S
H389 C399 0.930 . S
C390 H384 0.930 . S
C390 C391 1.355 . S
C390 C392 1.415 1_545 S
C391 C390 1.355 . S
C391 C393 1.419 . S
C392 C390 1.415 1_565 S
C392 C397 1.425 1_565 S
C392 C399 1.409 . S
C393 H385 0.930 . S
C393 C391 1.419 . S
C393 C394 1.362 . S
C394 H386 0.930 . S
C394 C393 1.362 . S
C394 C397 1.409 . S
C395 H387 0.930 . S
C395 C396 1.355 . S
C395 C397 1.415 1_565 S
C396 C395 1.355 . S
C396 C398 1.419 . S
C397 C392 1.425 1_545 S
C397 C394 1.409 . S
C397 C395 1.415 1_545 S
C398 H388 0.930 . S
C398 C396 1.419 . S
C398 C399 1.362 . S
C399 H389 0.930 . S
C399 C392 1.409 . S
C399 C398 1.362 . S
H400 C406 0.930 . S
H401 C409 0.930 . S
H402 C410 0.930 . S
H403 C411 0.930 . S
H404 C414 0.930 . S
H405 C415 0.930 . S
C406 H400 0.930 . S
C406 C407 1.355 . S
C406 C408 1.415 1_565 S
C407 C406 1.355 . S
C407 C409 1.419 . S
C408 C406 1.415 1_545 S
C408 C413 1.425 . S
C408 C415 1.409 . S
C409 H401 0.930 . S
C409 C407 1.419 . S
C409 C410 1.362 . S
C410 H402 0.930 . S
C410 C409 1.362 . S
C410 C413 1.409 1_565 S
C411 H403 0.930 . S
C411 C412 1.355 . S
C411 C413 1.415 . S
C412 C411 1.355 . S
C412 C414 1.419 . S
C413 C408 1.425 . S
C413 C410 1.409 1_545 S
C413 C411 1.415 . S
C414 H404 0.930 . S
C414 C412 1.419 . S
C414 C415 1.362 . S
C415 H405 0.930 . S
C415 C408 1.409 . S
C415 C414 1.362 . S
H416 C422 0.930 . S
H417 C425 0.930 . S
H418 C426 0.930 . S
H419 C427 0.930 . S
H420 C430 0.930 . S
H421 C431 0.930 1_565 S
C422 H416 0.930 . S
C422 C423 1.355 . S
C422 C424 1.415 . S
C423 C422 1.355 . S
C423 C425 1.419 . S
C424 C422 1.415 . S
C424 C429 1.425 1_565 S
C424 C431 1.409 1_565 S
C425 H417 0.930 . S
C425 C423 1.419 . S
C425 C426 1.362 1_565 S
C426 H418 0.930 . S
C426 C425 1.362 1_545 S
C426 C429 1.409 . S
C427 H419 0.930 . S
C427 C428 1.355 . S
C427 C429 1.415 . S
C428 C427 1.355 . S
C428 C430 1.419 . S
C429 C424 1.425 1_545 S
C429 C426 1.409 . S
C429 C427 1.415 . S
C430 H420 0.930 . S
C430 C428 1.419 . S
C430 C431 1.362 . S
C431 H421 0.930 1_545 S
C431 C424 1.409 1_545 S
C431 C430 1.362 . S
H432 C438 0.930 . S
H433 C441 0.930 . S
H434 C442 0.930 . S
H435 C443 0.930 . S
H436 C446 0.930 . S
H437 C447 0.930 . S
C438 H432 0.930 . S
C438 C439 1.355 . S
C438 C440 1.415 . S
C439 C438 1.355 . S
C439 C441 1.419 . S
C440 C438 1.415 . S
C440 C445 1.425 . S
C440 C447 1.409 . S
C441 H433 0.930 . S
C441 C439 1.419 . S
C441 C442 1.362 . S
C442 H434 0.930 . S
C442 C441 1.362 . S
C442 C445 1.409 . S
C443 H435 0.930 . S
C443 C444 1.355 . S
C443 C445 1.415 . S
C444 C443 1.355 . S
C444 C446 1.419 . S
C445 C440 1.425 . S
C445 C442 1.409 . S
C445 C443 1.415 . S
C446 H436 0.930 . S
C446 C444 1.419 . S
C446 C447 1.362 . S
C447 H437 0.930 . S
C447 C440 1.409 . S
C447 C446 1.362 . S
H448 C454 0.930 . S
H449 C457 0.930 . S
H450 C458 0.930 . S
H451 C459 0.930 . S
H452 C462 0.930 . S
H453 C463 0.930 . S
C454 H448 0.930 . S
C454 C455 1.355 . S
C454 C456 1.415 . S
C455 C454 1.355 . S
C455 C457 1.419 . S
C456 C454 1.415 . S
C456 C461 1.425 . S
C456 C463 1.409 . S
C457 H449 0.930 . S
C457 C455 1.419 . S
C457 C458 1.362 . S
C458 H450 0.930 . S
C458 C457 1.362 . S
C458 C461 1.409 . S
C459 H451 0.930 . S
C459 C460 1.355 . S
C459 C461 1.415 . S
C460 C459 1.355 . S
C460 C462 1.419 . S
C461 C456 1.425 . S
C461 C458 1.409 . S
C461 C459 1.415 . S
C462 H452 0.930 . S
C462 C460 1.419 . S
C462 C463 1.362 . S
C463 H453 0.930 . S
C463 C456 1.409 . S
C463 C462 1.362 . S
H464 C470 0.930 . S
H465 C473 0.930 . S
H466 C474 0.930 . S
H467 C475 0.930 . S
H468 C478 0.930 . S
H469 C479 0.930 . S
C470 H464 0.930 . S
C470 C471 1.355 . S
C470 C472 1.415 . S
C471 C470 1.355 . S
C471 C473 1.419 . S
C472 C470 1.415 . S
C472 C477 1.425 . S
C472 C479 1.409 . S
C473 H465 0.930 . S
C473 C471 1.419 . S
C473 C474 1.362 . S
C474 H466 0.930 . S
C474 C473 1.362 . S
C474 C477 1.409 . S
C475 H467 0.930 . S
C475 C476 1.355 . S
C475 C477 1.415 . S
C476 C475 1.355 . S
C476 C478 1.419 . S
C477 C472 1.425 . S
C477 C474 1.409 . S
C477 C475 1.415 . S
C478 H468 0.930 . S
C478 C476 1.419 . S
C478 C479 1.362 . S
C479 H469 0.930 . S
C479 C472 1.409 . S
C479 C478 1.362 . S
H480 C486 0.930 . S
H481 C489 0.930 . S
H482 C490 0.930 . S
H483 C491 0.930 . S
H484 C494 0.930 . S
H485 C495 0.930 . S
C486 H480 0.930 . S
C486 C487 1.355 . S
C486 C488 1.415 . S
C487 C486 1.355 . S
C487 C489 1.419 . S
C488 C486 1.415 . S
C488 C493 1.425 . S
C488 C495 1.409 . S
C489 H481 0.930 . S
C489 C487 1.419 . S
C489 C490 1.362 . S
C490 H482 0.930 . S
C490 C489 1.362 . S
C490 C493 1.409 . S
C491 H483 0.930 . S
C491 C492 1.355 . S
C491 C493 1.415 . S
C492 C491 1.355 . S
C492 C494 1.419 . S
C493 C488 1.425 . S
C493 C490 1.409 . S
C493 C491 1.415 . S
C494 H484 0.930 . S
C494 C492 1.419 . S
C494 C495 1.362 . S
C495 H485 0.930 . S
C495 C488 1.409 . S
C495 C494 1.362 . S
H496 C502 0.930 . S
H497 C505 0.930 . S
H498 C506 0.930 . S
H499 C507 0.930 . S
H500 C510 0.930 . S
H501 C511 0.930 . S
C502 H496 0.930 . S
C502 C503 1.355 . S
C502 C504 1.415 . S
C503 C502 1.355 . S
C503 C505 1.419 . S
C504 C502 1.415 . S
C504 C509 1.425 . S
C504 C511 1.409 . S
C505 H497 0.930 . S
C505 C503 1.419 . S
C505 C506 1.362 . S
C506 H498 0.930 . S
C506 C505 1.362 . S
C506 C509 1.409 . S
C507 H499 0.930 . S
C507 C508 1.355 . S
C507 C509 1.415 . S
C508 C507 1.355 . S
C508 C510 1.419 . S
C509 C504 1.425 . S
C509 C506 1.409 . S
C509 C507 1.415 . S
C510 H500 0.930 . S
C510 C508 1.419 . S
C510 C511 1.362 . S
C511 H501 0.930 . S
C511 C504 1.409 . S
C511 C510 1.362 . S
H512 C518 0.930 . S
H513 C521 0.930 . S
H514 C522 0.930 . S
H515 C523 0.930 . S
H516 C526 0.930 . S
H517 C527 0.930 . S
C518 H512 0.930 . S
C518 C519 1.355 . S
C518 C520 1.415 . S
C519 C518 1.355 . S
C519 C521 1.419 . S
C520 C518 1.415 . S
C520 C525 1.425 . S
C520 C527 1.409 . S
C521 H513 0.930 . S
C521 C519 1.419 . S
C521 C522 1.362 . S
C522 H514 0.930 . S
C522 C521 1.362 . S
C522 C525 1.409 . S
C523 H515 0.930 . S
C523 C524 1.355 . S
C523 C525 1.415 . S
C524 C523 1.355 . S
C524 C526 1.419 . S
C525 C520 1.425 . S
C525 C522 1.409 . S
C525 C523 1.415 . S
C526 H516 0.930 . S
C526 C524 1.419 . S
C526 C527 1.362 . S
C527 H517 0.930 . S
C527 C520 1.409 . S
C527 C526 1.362 . S
H528 C534 0.930 . S
H529 C537 0.930 . S
H530 C538 0.930 . S
H531 C539 0.930 . S
H532 C542 0.930 . S
H533 C543 0.930 . S
C534 H528 0.930 . S
C534 C535 1.355 . S
C534 C536 1.415 . S
C535 C534 1.355 . S
C535 C537 1.419 . S
C536 C534 1.415 . S
C536 C541 1.425 . S
C536 C543 1.409 . S
C537 H529 0.930 . S
C537 C535 1.419 . S
C537 C538 1.362 . S
C538 H530 0.930 . S
C538 C537 1.362 . S
C538 C541 1.409 . S
C539 H531 0.930 . S
C539 C540 1.355 . S
C539 C541 1.415 . S
C540 C539 1.355 . S
C540 C542 1.419 . S
C541 C536 1.425 . S
C541 C538 1.409 . S
C541 C539 1.415 . S
C542 H532 0.930 . S
C542 C540 1.419 . S
C542 C543 1.362 . S
C543 H533 0.930 . S
C543 C536 1.409 . S
C543 C542 1.362 . S
H544 C550 0.930 . S
H545 C553 0.930 . S
H546 C554 0.930 . S
H547 C555 0.930 . S
H548 C558 0.930 . S
H549 C559 0.930 . S
C550 H544 0.930 . S
C550 C551 1.355 . S
C550 C552 1.415 . S
C551 C550 1.355 . S
C551 C553 1.419 . S
C552 C550 1.415 . S
C552 C557 1.425 . S
C552 C559 1.409 . S
C553 H545 0.930 . S
C553 C551 1.419 . S
C553 C554 1.362 . S
C554 H546 0.930 . S
C554 C553 1.362 . S
C554 C557 1.409 . S
C555 H547 0.930 . S
C555 C556 1.355 . S
C555 C557 1.415 . S
C556 C555 1.355 . S
C556 C558 1.419 . S
C557 C552 1.425 . S
C557 C554 1.409 . S
C557 C555 1.415 . S
C558 H548 0.930 . S
C558 C556 1.419 . S
C558 C559 1.362 . S
C559 H549 0.930 . S
C559 C552 1.409 . S
C559 C558 1.362 . S
C183 C15 1.624 . S
C188 C95 1.622 . S
C199 C128 1.521 . S
C204 C30 1.521 . S
C215 C62 1.521 . S
C220 C150 1.525 . S
C231 C87 1.619 . S
C236 C161 1.615 . S
C247 C74 1.523 . S
C252 C172 1.525 . S
C263 C117 1.607 . S
C268 C43 1.611 . S
C279 C139 1.606 . S
C284 C51 1.603 . S
C295 C10 1.523 . S
C300 C106 1.520 . S
C311 C125 1.403 . S
C316 C18 1.403 . S
C327 C29 1.459 . S
C332 C147 1.439 . S
C343 C162 1.408 . S
C348 C59 1.381 . S
C359 C96 1.355 . S
C364 C76 1.348 . S
C375 C98 1.406 . S
C380 C81 1.413 . S
C391 C175 1.461 . S
C396 C65 1.438 . S
C407 C40 1.408 . S
C412 C153 1.391 . S
C423 C120 1.344 . S
C428 C8 1.347 . S
C439 C169 1.406 . S
C444 C52 1.408 . S
C455 C103 1.465 . S
C460 C73 1.439 . S
C471 C118 1.403 . S
C476 C21 1.402 . S
C487 C32 1.348 . S
C492 C140 1.355 . S
C503 C142 1.410 . S
C508 C37 1.400 . S
C519 C7 1.461 . S
C524 C131 1.437 . S
C535 C109 1.394 . S
C540 C84 1.398 . S
C551 C164 1.344 . S
C556 C54 1.347 . S
