# Generated by pormake.
# Topology smg, (6)-cn, num edge types: 1
# Building blocks:
#     Node 0, Type 0, BuildingBlock: OJICUG_clean_sbu_0, # of connection points: 6
#     Node 1, Type 0, BuildingBlock: OJICUG_clean_sbu_0, # of connection points: 6
#     Node 2, Type 0, BuildingBlock: OJICUG_clean_sbu_0, # of connection points: 6
#     Node 3, Type 0, BuildingBlock: OJICUG_clean_sbu_0, # of connection points: 6
#     Node 4, Type 0, BuildingBlock: OJICUG_clean_sbu_0, # of connection points: 6
#     Node 5, Type 0, BuildingBlock: OJICUG_clean_sbu_0, # of connection points: 6
#     Node 6, Type 0, BuildingBlock: OJICUG_clean_sbu_0, # of connection points: 6
#     Node 7, Type 0, BuildingBlock: OJICUG_clean_sbu_0, # of connection points: 6
#     Node 8, Type 0, BuildingBlock: OJICUG_clean_sbu_0, # of connection points: 6
#     Node 9, Type 0, BuildingBlock: OJICUG_clean_sbu_0, # of connection points: 6
#     Node 10, Type 0, BuildingBlock: OJICUG_clean_sbu_0, # of connection points: 6
#     Node 11, Type 0, BuildingBlock: OJICUG_clean_sbu_0, # of connection points: 6
#     Node 12, Type 0, BuildingBlock: OJICUG_clean_sbu_0, # of connection points: 6
#     Node 13, Type 0, BuildingBlock: OJICUG_clean_sbu_0, # of connection points: 6
#     Node 14, Type 0, BuildingBlock: OJICUG_clean_sbu_0, # of connection points: 6
#     Node 15, Type 0, BuildingBlock: OJICUG_clean_sbu_0, # of connection points: 6
#     Node 16, Type 0, BuildingBlock: OJICUG_clean_sbu_0, # of connection points: 6
#     Node 17, Type 0, BuildingBlock: OJICUG_clean_sbu_0, # of connection points: 6
#     Edge 18, Type (0, 0), BuildingBlock: CIFDUS_clean_linker_0, # of connection points: 2
#     Edge 19, Type (0, 0), BuildingBlock: CIFDUS_clean_linker_0, # of connection points: 2
#     Edge 20, Type (0, 0), BuildingBlock: CIFDUS_clean_linker_0, # of connection points: 2
#     Edge 21, Type (0, 0), BuildingBlock: CIFDUS_clean_linker_0, # of connection points: 2
#     Edge 22, Type (0, 0), BuildingBlock: CIFDUS_clean_linker_0, # of connection points: 2
#     Edge 23, Type (0, 0), BuildingBlock: CIFDUS_clean_linker_0, # of connection points: 2
#     Edge 24, Type (0, 0), BuildingBlock: CIFDUS_clean_linker_0, # of connection points: 2
#     Edge 25, Type (0, 0), BuildingBlock: CIFDUS_clean_linker_0, # of connection points: 2
#     Edge 26, Type (0, 0), BuildingBlock: CIFDUS_clean_linker_0, # of connection points: 2
#     Edge 27, Type (0, 0), BuildingBlock: CIFDUS_clean_linker_0, # of connection points: 2
#     Edge 28, Type (0, 0), BuildingBlock: CIFDUS_clean_linker_0, # of connection points: 2
#     Edge 29, Type (0, 0), BuildingBlock: CIFDUS_clean_linker_0, # of connection points: 2
#     Edge 30, Type (0, 0), BuildingBlock: CIFDUS_clean_linker_0, # of connection points: 2
#     Edge 31, Type (0, 0), BuildingBlock: CIFDUS_clean_linker_0, # of connection points: 2
#     Edge 32, Type (0, 0), BuildingBlock: CIFDUS_clean_linker_0, # of connection points: 2
#     Edge 33, Type (0, 0), BuildingBlock: CIFDUS_clean_linker_0, # of connection points: 2
#     Edge 34, Type (0, 0), BuildingBlock: CIFDUS_clean_linker_0, # of connection points: 2
#     Edge 35, Type (0, 0), BuildingBlock: CIFDUS_clean_linker_0, # of connection points: 2
#     Edge 36, Type (0, 0), BuildingBlock: CIFDUS_clean_linker_0, # of connection points: 2
#     Edge 37, Type (0, 0), BuildingBlock: CIFDUS_clean_linker_0, # of connection points: 2
#     Edge 38, Type (0, 0), BuildingBlock: CIFDUS_clean_linker_0, # of connection points: 2
#     Edge 39, Type (0, 0), BuildingBlock: CIFDUS_clean_linker_0, # of connection points: 2
#     Edge 40, Type (0, 0), BuildingBlock: CIFDUS_clean_linker_0, # of connection points: 2
#     Edge 41, Type (0, 0), BuildingBlock: CIFDUS_clean_linker_0, # of connection points: 2
#     Edge 42, Type (0, 0), BuildingBlock: CIFDUS_clean_linker_0, # of connection points: 2
#     Edge 43, Type (0, 0), BuildingBlock: CIFDUS_clean_linker_0, # of connection points: 2
#     Edge 44, Type (0, 0), BuildingBlock: CIFDUS_clean_linker_0, # of connection points: 2
#     Edge 45, Type (0, 0), BuildingBlock: CIFDUS_clean_linker_0, # of connection points: 2
#     Edge 46, Type (0, 0), BuildingBlock: CIFDUS_clean_linker_0, # of connection points: 2
#     Edge 47, Type (0, 0), BuildingBlock: CIFDUS_clean_linker_0, # of connection points: 2
#     Edge 48, Type (0, 0), BuildingBlock: CIFDUS_clean_linker_0, # of connection points: 2
#     Edge 49, Type (0, 0), BuildingBlock: CIFDUS_clean_linker_0, # of connection points: 2
#     Edge 50, Type (0, 0), BuildingBlock: CIFDUS_clean_linker_0, # of connection points: 2
#     Edge 51, Type (0, 0), BuildingBlock: CIFDUS_clean_linker_0, # of connection points: 2
#     Edge 52, Type (0, 0), BuildingBlock: CIFDUS_clean_linker_0, # of connection points: 2
#     Edge 53, Type (0, 0), BuildingBlock: CIFDUS_clean_linker_0, # of connection points: 2
#     Edge 54, Type (0, 0), BuildingBlock: CIFDUS_clean_linker_0, # of connection points: 2
#     Edge 55, Type (0, 0), BuildingBlock: CIFDUS_clean_linker_0, # of connection points: 2
#     Edge 56, Type (0, 0), BuildingBlock: CIFDUS_clean_linker_0, # of connection points: 2
#     Edge 57, Type (0, 0), BuildingBlock: CIFDUS_clean_linker_0, # of connection points: 2
#     Edge 58, Type (0, 0), BuildingBlock: CIFDUS_clean_linker_0, # of connection points: 2
#     Edge 59, Type (0, 0), BuildingBlock: CIFDUS_clean_linker_0, # of connection points: 2
#     Edge 60, Type (0, 0), BuildingBlock: CIFDUS_clean_linker_0, # of connection points: 2
#     Edge 61, Type (0, 0), BuildingBlock: CIFDUS_clean_linker_0, # of connection points: 2
#     Edge 62, Type (0, 0), BuildingBlock: CIFDUS_clean_linker_0, # of connection points: 2
#     Edge 63, Type (0, 0), BuildingBlock: CIFDUS_clean_linker_0, # of connection points: 2
#     Edge 64, Type (0, 0), BuildingBlock: CIFDUS_clean_linker_0, # of connection points: 2
#     Edge 65, Type (0, 0), BuildingBlock: CIFDUS_clean_linker_0, # of connection points: 2
#     Edge 66, Type (0, 0), BuildingBlock: CIFDUS_clean_linker_0, # of connection points: 2
#     Edge 67, Type (0, 0), BuildingBlock: CIFDUS_clean_linker_0, # of connection points: 2
#     Edge 68, Type (0, 0), BuildingBlock: CIFDUS_clean_linker_0, # of connection points: 2
#     Edge 69, Type (0, 0), BuildingBlock: CIFDUS_clean_linker_0, # of connection points: 2
#     Edge 70, Type (0, 0), BuildingBlock: CIFDUS_clean_linker_0, # of connection points: 2
#     Edge 71, Type (0, 0), BuildingBlock: CIFDUS_clean_linker_0, # of connection points: 2
# Relax obj value: 0.210
# Max RMSD: 0.238
# Mean RMSD: 0.238
data_MOF--net-smg--node1-OJICUG_clean_sbu_0--edge1-CIFDUS_clean_linker_0
_symmetry_space_group_name_H-M    P1
_symmetry_Int_Tables_number       1
_symmetry_cell_setting            triclinic
loop_
_symmetry_equiv_pos_as_xyz
'x, y, z'
_cell_length_a     39.93936
_cell_length_b     40.2565
_cell_length_c     40.544572
_cell_angle_alpha  90.127567
_cell_angle_beta   90.036383
_cell_angle_gamma 119.8889
loop_
_atom_site_label
_atom_site_type_symbol
_atom_site_fract_x
_atom_site_fract_y
_atom_site_fract_z
_atom_type_partial_charge
Sc0 Sc 0.99584 0.65754 0.24067 0.0
Sc1 Sc 0.95599 0.56007 0.22521 0.0
Sc2 Sc 0.05204 0.61451 0.25275 0.0
O3 O 0.00134 0.61046 0.23961 0.0
C4 C 0.0836 0.69354 0.21778 0.0
C5 C 0.95781 0.62016 0.17334 0.0
C6 C 0.02652 0.55704 0.19171 0.0
C7 C 0.91152 0.59355 0.26348 0.0
C8 C 0.03842 0.66426 0.30683 0.0
C9 C 0.99106 0.53478 0.28423 0.0
O10 O 0.05483 0.69626 0.22737 0.0
O11 O 0.94212 0.58656 0.18541 0.0
O12 O 0.05068 0.57849 0.21333 0.0
O13 O 0.93572 0.62729 0.25432 0.0
O14 O 0.05849 0.65112 0.29387 0.0
O15 O 0.96516 0.5287 0.26309 0.0
O16 O 0.01071 0.66517 0.29211 0.0
O17 O 0.91668 0.56529 0.25852 0.0
O18 O 0.0237 0.56552 0.28513 0.0
O19 O 0.98161 0.65012 0.1891 0.0
O20 O 0.08528 0.66307 0.22111 0.0
O21 O 0.99146 0.54942 0.19128 0.0
Sc22 Sc 0.42411 0.37943 0.22016 0.0
Sc23 Sc 0.37815 0.42454 0.25672 0.0
Sc24 Sc 0.33007 0.32595 0.2469 0.0
O25 O 0.37774 0.37709 0.24128 0.0
C26 C 0.3536 0.32052 0.17599 0.0
C27 C 0.42489 0.4512 0.18863 0.0
C28 C 0.29306 0.37784 0.23182 0.0
C29 C 0.46191 0.44217 0.27689 0.0
C30 C 0.39584 0.30482 0.2586 0.0
C31 C 0.33937 0.36418 0.31536 0.0
O32 O 0.38861 0.33503 0.18529 0.0
O33 O 0.40994 0.45745 0.214 0.0
O34 O 0.29057 0.34752 0.24355 0.0
O35 O 0.4642 0.42334 0.25268 0.0
O36 O 0.3612 0.29505 0.25128 0.0
O37 O 0.34782 0.396 0.30164 0.0
O38 O 0.42362 0.33845 0.25408 0.0
O39 O 0.43132 0.44325 0.2837 0.0
O40 O 0.33454 0.33493 0.29916 0.0
O41 O 0.42831 0.42155 0.18549 0.0
O42 O 0.32694 0.31874 0.19434 0.0
O43 O 0.32506 0.40908 0.23023 0.0
Sc44 Sc 0.62781 0.06776 0.2111 0.0
Sc45 Sc 0.57583 0.97422 0.24203 0.0
Sc46 Sc 0.67411 0.01623 0.2278 0.0
O47 O 0.62545 0.01942 0.22692 0.0
C48 C 0.67424 0.04712 0.15806 0.0
C49 C 0.5478 0.00355 0.18044 0.0
C50 C 0.61332 0.92983 0.21111 0.0
C51 C 0.57007 0.04453 0.27209 0.0
C52 C 0.70896 0.10431 0.24399 0.0
C53 C 0.6391 0.98758 0.29697 0.0
O54 O 0.66319 0.06973 0.16956 0.0
O55 O 0.54237 0.97823 0.20184 0.0
O56 O 0.64599 0.95524 0.22175 0.0
O57 O 0.59197 0.06861 0.25063 0.0
O58 O 0.71284 0.07659 0.23405 0.0
O59 O 0.60532 0.9677 0.28446 0.0
O60 O 0.67706 0.10382 0.24181 0.0
O61 O 0.56266 0.0099 0.27265 0.0
O62 O 0.66875 0.0099 0.28007 0.0
O63 O 0.578 0.03652 0.17995 0.0
O64 O 0.67738 0.02257 0.17554 0.0
O65 O 0.58404 0.93427 0.21205 0.0
Sc66 Sc 0.00149 0.32482 0.72964 0.0
Sc67 Sc 0.03356 0.41906 0.75256 0.0
Sc68 Sc 0.9433 0.3644 0.71433 0.0
O69 O 0.99272 0.36979 0.73235 0.0
C70 C 0.97288 0.32736 0.65952 0.0
C71 C 0.08811 0.39177 0.7233 0.0
C72 C 0.0075 0.44696 0.68925 0.0
C73 C 0.01956 0.35185 0.80297 0.0
C74 C 0.91031 0.28125 0.73744 0.0
C75 C 0.95644 0.41667 0.77767 0.0
O76 O -0.00063 0.32693 0.6768 0.0
O77 O 0.08049 0.41857 0.72661 0.0
O78 O 0.97481 0.41652 0.68705 0.0
O79 O 0.00286 0.32406 0.78258 0.0
O80 O 0.90755 0.31123 0.73972 0.0
O81 O 0.99198 0.42672 0.78018 0.0
O82 O 0.94161 0.28249 0.72984 0.0
O83 O 0.03663 0.38714 0.79437 0.0
O84 O 0.93484 0.39469 0.75482 0.0
O85 O 0.06316 0.35713 0.72835 0.0
O86 O 0.94753 0.33449 0.67152 0.0
O87 O 0.03162 0.45291 0.71224 0.0
Sc88 Sc 0.58091 0.65035 0.77599 0.0
Sc89 Sc 0.62179 0.59987 0.74008 0.0
Sc90 Sc 0.67609 0.69785 0.75178 0.0
O91 O 0.62589 0.64885 0.75553 0.0
C92 C 0.61575 0.72568 0.73888 0.0
C93 C 0.53952 0.58727 0.72043 0.0
C94 C 0.66561 0.66049 0.68207 0.0
C95 C 0.57787 0.57821 0.80939 0.0
C96 C 0.6503 0.70141 0.82257 0.0
C97 C 0.7075 0.64011 0.7625 0.0
O98 O 0.58608 0.69275 0.74139 0.0
O99 O 0.56894 0.58403 0.71428 0.0
O100 O 0.67348 0.69071 0.6986 0.0
O101 O 0.57413 0.6078 0.81124 0.0
O102 O 0.67681 0.70133 0.80513 0.0
O103 O 0.67438 0.61043 0.76401 0.0
O104 O 0.61809 0.69439 0.81036 0.0
O105 O 0.59146 0.5701 0.78412 0.0
O106 O 0.71213 0.67251 0.75449 0.0
O107 O 0.53828 0.60731 0.74407 0.0
O108 O 0.64901 0.73265 0.74817 0.0
O109 O 0.65184 0.62738 0.6952 0.0
Sc110 Sc 0.39059 0.97028 0.75402 0.0
Sc111 Sc 0.43614 0.06596 0.72745 0.0
Sc112 Sc 0.33854 0.0174 0.74456 0.0
O113 O 0.38885 0.01782 0.7423 0.0
C114 C 0.30719 0.93025 0.72549 0.0
C115 C 0.44344 0.00057 0.68979 0.0
C116 C 0.37057 0.05355 0.67627 0.0
C117 C 0.47089 0.03569 0.78296 0.0
C118 C 0.34239 0.98213 0.81183 0.0
C119 C 0.397 0.10412 0.76369 0.0
O120 O 0.3401 0.93278 0.72527 0.0
O121 O 0.44897 0.03447 0.69193 0.0
O122 O 0.34238 0.027 0.69212 0.0
O123 O 0.44179 0.00203 0.78349 0.0
O124 O 0.33676 0.00682 0.79679 0.0
O125 O 0.42709 0.10121 0.76207 0.0
O126 O 0.3567 0.96337 0.798 0.0
O127 O 0.47352 0.06142 0.76328 0.0
O128 O 0.36442 0.07797 0.75345 0.0
O129 O 0.42459 0.97472 0.71116 0.0
O130 O 0.30226 0.95712 0.73601 0.0
O131 O 0.4036 0.07523 0.68927 0.0
Sc132 Sc 0.65743 9e-05 0.56099 0.0
Sc133 Sc 0.60564 0.90292 0.54188 0.0
Sc134 Sc 0.69816 0.94341 0.57611 0.0
O135 O 0.65377 0.94856 0.55931 0.0
C136 C 0.74407 0.02305 0.54331 0.0
C137 C 0.623 0.97047 0.49143 0.0
C138 C 0.6706 0.88848 0.51303 0.0
C139 C 0.56858 0.94497 0.57716 0.0
C140 C 0.68633 0.99282 0.63055 0.0
C141 C 0.62654 0.86876 0.60401 0.0
O142 O 0.71925 0.03189 0.55307 0.0
O143 O 0.60159 0.93662 0.50236 0.0
O144 O 0.69324 0.90493 0.5372 0.0
O145 O 0.59653 0.97732 0.56875 0.0
O146 O 0.70748 0.98108 0.6173 0.0
O147 O 0.60476 0.86498 0.57972 0.0
O148 O 0.66411 0.00056 0.61378 0.0
O149 O 0.5692 0.91405 0.57328 0.0
O150 O 0.6605 0.89704 0.6073 0.0
O151 O 0.64921 -0.00235 0.50848 0.0
O152 O 0.73868 0.98936 0.54579 0.0
O153 O 0.63853 0.88765 0.50957 0.0
Sc154 Sc 0.00863 0.66275 0.5725 0.0
Sc155 Sc 0.10569 0.71305 0.55304 0.0
Sc156 Sc 0.06202 0.75958 0.59149 0.0
O157 O 0.05917 0.71227 0.57252 0.0
C158 C 0.97862 0.7214 0.56254 0.0
C159 C 0.03741 0.66643 0.50167 0.0
C160 C 0.11206 0.78955 0.52571 0.0
C161 C 0.06738 0.63311 0.58467 0.0
C162 C 0.01559 0.69235 0.64411 0.0
C163 C 0.14292 0.77026 0.61412 0.0
O164 O 0.97272 0.68842 0.57018 0.0
O165 O 0.07122 0.67646 0.51253 0.0
O166 O 0.09526 0.79461 0.55035 0.0
O167 O 0.03484 0.62733 0.57457 0.0
O168 O 0.02956 0.72701 0.63434 0.0
O169 O 0.14514 0.7507 0.59041 0.0
O170 O 0.00829 0.66453 0.62485 0.0
O171 O 0.09753 0.66575 0.58314 0.0
O172 O 0.11351 0.77402 0.61881 0.0
O173 O 0.01002 0.66248 0.52017 0.0
O174 O 0.01162 0.75103 0.56496 0.0
O175 O 0.11672 0.76067 0.52265 0.0
Sc176 Sc 0.36202 0.36204 0.57769 0.0
Sc177 Sc 0.3002 0.39777 0.56699 0.0
Sc178 Sc 0.26531 0.30462 0.59693 0.0
O179 O 0.3087 0.35471 0.58077 0.0
C180 C 0.31285 0.2732 0.56229 0.0
C181 C 0.35185 0.39151 0.51024 0.0
C182 C 0.22728 0.32448 0.53665 0.0
C183 C 0.38156 0.44619 0.59612 0.0
C184 C 0.33566 0.32732 0.64721 0.0
C185 C 0.245 0.36416 0.62969 0.0
O186 O 0.34404 0.30264 0.57078 0.0
O187 O 0.3378 0.41014 0.52456 0.0
O188 O 0.22602 0.30152 0.5588 0.0
O189 O 0.39101 0.42311 0.58378 0.0
O190 O 0.30177 0.30413 0.63634 0.0
O191 O 0.26156 0.38934 0.60738 0.0
O192 O 0.36172 0.35458 0.63019 0.0
O193 O 0.34675 0.43856 0.59768 0.0
O194 O 0.24559 0.33287 0.63013 0.0
O195 O 0.3597 0.3685 0.52539 0.0
O196 O 0.28037 0.27135 0.56496 0.0
O197 O 0.25317 0.35971 0.53564 0.0
Sc198 Sc 0.71869 0.75845 0.09184 0.0
Sc199 Sc 0.62304 0.71605 0.06414 0.0
Sc200 Sc 0.66251 0.66 0.08535 0.0
O201 O 0.66806 0.7121 0.08093 0.0
C202 C 0.75065 0.70673 0.06711 0.0
C203 C 0.69379 0.78418 0.02623 0.0
C204 C 0.63466 0.66199 0.0147 0.0
C205 C 0.65798 0.78143 0.11927 0.0
C206 C 0.69831 0.69899 0.15189 0.0
C207 C 0.57661 0.6399 0.10058 0.0
O208 O 0.75128 0.73837 0.06394 0.0
O209 O 0.65855 0.75823 0.02859 0.0
O210 O 0.65696 0.65536 0.03258 0.0
O211 O 0.69066 0.78306 0.12002 0.0
O212 O 0.67071 0.66974 0.13763 0.0
O213 O 0.58362 0.67417 0.09861 0.0
O214 O 0.7211 0.73023 0.13685 0.0
O215 O 0.63107 0.75971 0.09949 0.0
O216 O 0.6006 0.63008 0.09087 0.0
O217 O 0.71908 0.78952 0.04797 0.0
O218 O 0.72275 0.67823 0.08086 0.0
O219 O 0.61212 0.67283 0.0269 0.0
Sc220 Sc 0.22293 0.96534 0.09249 0.0
Sc221 Sc 0.27039 0.91906 0.05984 0.0
Sc222 Sc 0.32151 0.01641 0.07798 0.0
O223 O 0.2713 0.96649 0.0767 0.0
C224 C 0.26301 0.04568 0.06052 0.0
C225 C 0.19121 0.90811 0.03133 0.0
C226 C 0.32039 0.98507 0.00712 0.0
C227 C 0.21396 0.88813 0.12218 0.0
C228 C 0.28672 0.01382 0.14685 0.0
C229 C 0.35233 0.95858 0.09225 0.0
O230 O 0.23287 0.01299 0.0618 0.0
O231 O 0.22055 0.9037 0.0297 0.0
O232 O 0.32625 0.01332 0.02542 0.0
O233 O 0.20864 0.91679 0.12346 0.0
O234 O 0.31571 0.01787 0.13046 0.0
O235 O 0.31984 0.92844 0.08869 0.0
O236 O 0.25344 0.00204 0.13407 0.0
O237 O 0.23437 0.88422 0.09999 0.0
O238 O 0.35757 0.99148 0.08527 0.0
O239 O 0.18728 0.92828 0.05346 0.0
O240 O 0.29548 0.05161 0.07098 0.0
O241 O 0.30543 0.95068 0.01776 0.0
Sc242 Sc 0.04976 0.27733 0.08219 0.0
Sc243 Sc 0.0873 0.36934 0.04868 0.0
Sc244 Sc 0.99007 0.31498 0.06814 0.0
O245 O 0.04292 0.32072 0.06631 0.0
C246 C 0.96715 0.22926 0.05387 0.0
C247 C 0.10437 0.30584 0.01917 0.0
C248 C 0.01751 0.34637 -0.00218 0.0
C249 C 0.12601 0.3505 0.1095 0.0
C250 C -0.00024 0.28876 0.13755 0.0
C251 C 0.04116 0.40461 0.07948 0.0
O252 O 0.00159 0.23561 0.05299 0.0
O253 O 0.106 0.3382 0.01742 0.0
O254 O 0.99086 0.32 0.01515 0.0
O255 O 0.09931 0.3156 0.11192 0.0
O256 O 0.99176 0.31084 0.12095 0.0
O257 O 0.0734 0.4056 0.07827 0.0
O258 O 0.01374 0.2694 0.12452 0.0
O259 O 0.12628 0.37287 0.08721 0.0
O260 O 0.00978 0.37483 0.0721 0.0
O261 O 0.08642 0.2818 0.0419 0.0
O262 O 0.95891 0.25377 0.06469 0.0
O263 O 0.05154 0.36914 0.00852 0.0
Sc264 Sc 0.36404 0.36675 0.91361 0.0
Sc265 Sc 0.31811 0.26999 0.89606 0.0
Sc266 Sc 0.4047 0.31339 0.93999 0.0
O267 O 0.36225 0.31612 0.91626 0.0
C268 C 0.45248 0.39345 0.91097 0.0
C269 C 0.34861 0.33721 0.84184 0.0
C270 C 0.38818 0.25643 0.87989 0.0
C271 C 0.27405 0.31213 0.91555 0.0
C272 C 0.37712 0.35762 0.98659 0.0
C273 C 0.33026 0.23789 0.96446 0.0
O274 O 0.42585 0.40016 0.9194 0.0
O275 O 0.32434 0.30352 0.85215 0.0
O276 O 0.40838 0.27514 0.90466 0.0
O277 O 0.30296 0.34381 0.90752 0.0
O278 O 0.40422 0.35138 0.97776 0.0
O279 O 0.31058 0.23403 0.93846 0.0
O280 O 0.35684 0.3639 0.96599 0.0
O281 O 0.27612 0.28184 0.91794 0.0
O282 O 0.3641 0.26607 0.9691 0.0
O283 O 0.36953 0.36522 0.86108 0.0
O284 O 0.44776 0.35995 0.91151 0.0
O285 O 0.35583 0.2536 0.87292 0.0
Sc286 Sc 0.76919 0.03148 0.86996 0.0
Sc287 Sc 0.72237 0.07389 0.91 0.0
Sc288 Sc 0.67404 0.9759 0.89626 0.0
O289 O 0.72211 0.02734 0.8921 0.0
C290 C 0.69937 0.97489 0.82381 0.0
C291 C 0.76832 0.10463 0.84268 0.0
C292 C 0.63758 0.02947 0.88434 0.0
C293 C 0.80619 0.09048 0.92954 0.0
C294 C 0.73984 0.95449 0.90732 0.0
C295 C 0.6802 0.01114 0.96601 0.0
O296 O 0.73464 0.99029 0.83252 0.0
O297 O 0.75283 0.10825 0.86871 0.0
O298 O 0.63483 -0.00229 0.89217 0.0
O299 O 0.80892 0.07288 0.90458 0.0
O300 O 0.7051 0.94519 0.901 0.0
O301 O 0.69171 0.04379 0.95305 0.0
O302 O 0.768 0.9877 0.90145 0.0
O303 O 0.77548 0.0912 0.9366 0.0
O304 O 0.67538 0.98205 0.94947 0.0
O305 O 0.77417 0.07661 0.8378 0.0
O306 O 0.67241 0.97044 0.84326 0.0
O307 O 0.66954 0.06072 0.8849 0.0
Sc308 Sc 0.95199 0.70142 0.88884 0.0
Sc309 Sc 0.90415 0.6098 0.92437 0.0
Sc310 Sc 0.00279 0.65472 0.90779 0.0
O311 O 0.95259 0.65517 0.90682 0.0
C312 C 0.00494 0.68697 0.83832 0.0
C313 C 0.87332 0.63269 0.86074 0.0
C314 C 0.94373 0.56615 0.89468 0.0
C315 C 0.89444 0.67965 0.94968 0.0
C316 C 0.03323 0.74331 0.92078 0.0
C317 C 0.96914 0.62738 0.97843 0.0
O318 O 0.98945 0.70594 0.84893 0.0
O319 O 0.86929 0.60975 0.88392 0.0
O320 O 0.9769 0.59386 0.90168 0.0
O321 O 0.91503 0.70195 0.92682 0.0
O322 O 0.03844 0.7155 0.91391 0.0
O323 O 0.93495 0.60705 0.96709 0.0
O324 O 0.0005 0.74102 0.91832 0.0
O325 O 0.88917 0.64592 0.95313 0.0
O326 O -0.00195 0.64884 0.9604 0.0
O327 O 0.90278 0.66604 0.85814 0.0
O328 O 0.0077 0.66174 0.85517 0.0
O329 O 0.91335 0.56862 0.89704 0.0
Sc330 Sc 0.33305 -0.00019 0.41085 0.0
Sc331 Sc 0.38319 0.09798 0.42403 0.0
Sc332 Sc 0.28965 0.05259 0.39163 0.0
O333 O 0.33552 0.05072 0.40913 0.0
C334 C 0.30384 0.0016 0.34107 0.0
C335 C 0.42204 0.05307 0.39639 0.0
C336 C 0.35967 0.12407 0.35767 0.0
C337 C 0.36194 0.0349 0.48076 0.0
C338 C 0.24665 0.97619 0.42717 0.0
C339 C 0.31806 0.11527 0.44867 0.0
O340 O 0.32847 -0.00252 0.35793 0.0
O341 O 0.42081 0.08392 0.3967 0.0
O342 O 0.3253 0.09591 0.35716 0.0
O343 O 0.33871 0.00579 0.46352 0.0
O344 O 0.25193 0.00986 0.42582 0.0
O345 O 0.35077 0.11756 0.45211 0.0
O346 O 0.27098 0.96767 0.41566 0.0
O347 O 0.38431 0.06799 0.46831 0.0
O348 O 0.29405 0.09485 0.42652 0.0
O349 O 0.39413 0.02169 0.40641 0.0
O350 O 0.28022 0.01018 0.3544 0.0
O351 O 0.38333 0.13031 0.38124 0.0
Sc352 Sc 0.9336 0.28244 0.41049 0.0
Sc353 Sc 0.96661 0.21999 0.38763 0.0
Sc354 Sc 0.03042 0.31575 0.39751 0.0
O355 O 0.97599 0.27233 0.39855 0.0
C356 C 0.98811 0.36155 0.3798 0.0
C357 C 0.89814 0.2236 0.35023 0.0
C358 C 0.01957 0.27562 0.33121 0.0
C359 C 0.90552 0.2019 0.4451 0.0
C360 C -7e-05 0.32193 0.46574 0.0
C361 C 0.04514 0.25141 0.42126 0.0
O362 O 0.95486 0.33199 0.37918 0.0
O363 O 0.922 0.21143 0.35317 0.0
O364 O 0.02815 0.30714 0.34552 0.0
O365 O 0.90707 0.2341 0.44291 0.0
O366 O 0.02696 0.32058 0.44995 0.0
O367 O 0.00992 0.22574 0.42304 0.0
O368 O 0.96829 0.31594 0.45224 0.0
O369 O 0.92449 0.19204 0.42618 0.0
O370 O 0.05564 0.27982 0.40241 0.0
O371 O 0.89751 0.24828 0.36971 0.0
O372 O 0.017 0.36067 0.39148 0.0
O373 O 0.00755 0.24406 0.34684 0.0
Sc374 Sc 0.71065 0.60607 0.43109 0.0
Sc375 Sc 0.76039 0.69963 0.40042 0.0
Sc376 Sc 0.66349 0.65693 0.41899 0.0
O377 O 0.7122 0.65433 0.41687 0.0
C378 C 0.62788 0.5698 0.40384 0.0
C379 C 0.76651 0.6302 0.36866 0.0
C380 C 0.69304 0.68249 0.34793 0.0
C381 C 0.79031 0.67129 0.46128 0.0
C382 C 0.66918 0.62853 0.48793 0.0
C383 C 0.72372 0.7444 0.42989 0.0
O384 O 0.66018 0.57122 0.40122 0.0
O385 O 0.77354 0.66462 0.36949 0.0
O386 O 0.66462 0.66005 0.3662 0.0
O387 O 0.76122 0.63758 0.4609 0.0
O388 O 0.66611 0.65392 0.4715 0.0
O389 O 0.75287 0.73988 0.43008 0.0
O390 O 0.67715 0.60435 0.47455 0.0
O391 O 0.79508 0.69696 0.4404 0.0
O392 O 0.69082 0.71804 0.42082 0.0
O393 O 0.74519 0.60521 0.38984 0.0
O394 O 0.62482 0.59618 0.41787 0.0
O395 O 0.72758 0.70337 0.35892 0.0
H396 H 0.09181 0.46323 0.1191 0.0
H397 H 0.98349 0.41987 0.06717 0.0
H398 H 0.97126 0.46642 0.09478 0.0
H399 H 0.98709 0.51357 0.13865 0.0
H400 H 0.09482 0.55665 0.19154 0.0
H401 H 0.11159 0.51668 0.15828 0.0
C402 C 0.06598 0.46458 0.11335 0.0
C403 C 0.0383 0.43767 0.09168 0.0
C404 C 0.05868 0.49109 0.12976 0.0
C405 C 0.00497 0.43982 0.08431 0.0
C406 C -0.00213 0.46643 0.10007 0.0
C407 C 0.01445 0.51462 0.14266 0.0
C408 C 0.03917 0.5375 0.16801 0.0
C409 C 0.02382 0.49123 0.12373 0.0
C410 C 0.07489 0.53897 0.17243 0.0
C411 C 0.08457 0.51602 0.15346 0.0
H412 H 0.44433 0.52636 0.19403 0.0
H413 H 0.44873 0.44494 0.1271 0.0
H414 H 0.49281 0.49702 0.09143 0.0
H415 H 0.53743 0.56539 0.0838 0.0
H416 H 0.53487 0.64753 0.15064 0.0
H417 H 0.48225 0.5954 0.1816 0.0
C418 C 0.45418 0.51991 0.17126 0.0
C419 C 0.44389 0.4818 0.16367 0.0
C420 C 0.48024 0.55013 0.15109 0.0
C421 C 0.45673 0.47402 0.13389 0.0
C422 C 0.48203 0.50379 0.11347 0.0
C423 C 0.5249 0.57189 0.10486 0.0
C424 C 0.54033 0.61003 0.11538 0.0
C425 C 0.49521 0.54192 0.1226 0.0
C426 C 0.52347 0.61828 0.14223 0.0
C427 C 0.49359 0.58849 0.16001 0.0
H428 H 0.47426 0.94208 0.17871 0.0
H429 H 0.55053 0.04808 0.12872 0.0
H430 H 0.4971 0.04123 0.095 0.0
H431 H 0.42801 0.00909 0.08357 0.0
H432 H 0.35068 0.90354 0.13318 0.0
H433 H 0.40541 0.90604 0.16282 0.0
C434 C 0.47936 0.96341 0.16011 0.0
C435 C 0.51639 -0.0041 0.15675 0.0
C436 C 0.44828 0.95956 0.14087 0.0
C437 C 0.52237 0.02304 0.13228 0.0
C438 C 0.49178 0.01921 0.11293 0.0
C439 C 0.42312 0.98639 0.10065 0.0
C440 C 0.38532 0.95648 0.10655 0.0
C441 C 0.4545 0.98822 0.1177 0.0
C442 C 0.37953 0.92693 0.12826 0.0
C443 C 0.41078 0.92848 0.14534 0.0
H444 H 0.47306 0.10237 0.35116 0.0
H445 H 0.44484 0.00072 0.40729 0.0
H446 H 0.49145 0.99149 0.37574 0.0
H447 H 0.53435 0.00779 0.32838 0.0
H448 H 0.56147 0.10799 0.27052 0.0
H449 H 0.52159 0.1225 0.30684 0.0
C450 C 0.47773 0.07869 0.35692 0.0
C451 C 0.45518 0.05203 0.38126 0.0
C452 C 0.50401 0.07297 0.33811 0.0
C453 C 0.46148 0.0214 0.38839 0.0
C454 C 0.48808 0.01602 0.37033 0.0
C455 C 0.53183 0.033 0.3238 0.0
C456 C 0.55033 0.05635 0.29641 0.0
C457 C 0.5085 0.04087 0.34444 0.0
C458 C 0.54734 0.08934 0.2913 0.0
C459 C 0.52442 0.09761 0.312 0.0
H460 H 0.04358 0.52432 0.3185 0.0
H461 H 0.92129 0.47314 0.29961 0.0
H462 H 0.90921 0.4155 0.32899 0.0
H463 H 0.93387 0.3775 0.35589 0.0
H464 H 0.05642 0.42846 0.37371 0.0
H465 H 0.06768 0.4881 0.34898 0.0
C466 C 0.01423 0.50086 0.32132 0.0
C467 C 0.98351 0.50291 0.3066 0.0
C468 C 0.00748 0.46744 0.33769 0.0
C469 C 0.94559 0.47216 0.31042 0.0
C470 C 0.93861 0.4391 0.32715 0.0
C471 C 0.963 0.40169 0.35452 0.0
C472 C 0.99418 0.39824 0.36633 0.0
C473 C 0.96944 0.43603 0.34011 0.0
C474 C 0.03177 0.43009 0.36463 0.0
C475 C 0.03834 0.46434 0.3505 0.0
H476 H 0.4653 0.46854 0.33932 0.0
H477 H 0.5361 0.46186 0.26205 0.0
H478 H 0.59341 0.49638 0.29647 0.0
H479 H 0.62422 0.53248 0.34705 0.0
H480 H 0.55365 0.54062 0.42357 0.0
H481 H 0.49548 0.50079 0.39129 0.0
C482 C 0.49327 0.4747 0.33 0.0
C483 C 0.49642 0.46303 0.29805 0.0
C484 C 0.52617 0.49448 0.34993 0.0
C485 C 0.53283 0.47066 0.28654 0.0
C486 C 0.56567 0.49034 0.30622 0.0
C487 C 0.596 0.52467 0.35694 0.0
C488 C 0.59312 0.53937 0.38753 0.0
C489 C 0.56277 0.50274 0.33782 0.0
C490 C 0.55648 0.5296 0.39995 0.0
C491 C 0.52326 0.50708 0.38145 0.0
H492 H 0.89647 0.51744 0.84652 0.0
H493 H 0.9884 0.53674 0.9136 0.0
H494 H 0.99662 0.48761 0.88577 0.0
H495 H 0.98434 0.44625 0.83804 0.0
H496 H 0.89466 0.428 0.76881 0.0
H497 H 0.87842 0.46889 0.80203 0.0
C498 C 0.91755 0.5101 0.85548 0.0
C499 C 0.94209 0.53096 0.88182 0.0
C500 C 0.92291 0.48236 0.8387 0.0
C501 C 0.96948 0.52137 0.89311 0.0
C502 C 0.97428 0.49334 0.87718 0.0
C503 C 0.96084 0.45073 0.83042 0.0
C504 C 0.94122 0.43464 0.8007 0.0
C505 C 0.95224 0.4748 0.8492 0.0
C506 C 0.91036 0.44016 0.79154 0.0
C507 C 0.90123 0.46377 0.81042 0.0
H508 H 0.57297 0.50835 0.81238 0.0
H509 H 0.54995 0.58615 0.86861 0.0
H510 H 0.5149 0.53641 0.90935 0.0
H511 H 0.48173 0.46857 0.92352 0.0
H512 H 0.5015 0.38965 0.86607 0.0
H513 H 0.54797 0.44251 0.8318 0.0
C514 C 0.56083 0.51469 0.83379 0.0
C515 C 0.56299 0.55054 0.83685 0.0
C516 C 0.54006 0.48575 0.85684 0.0
C517 C 0.54786 0.55849 0.86516 0.0
C518 C 0.52786 0.53009 0.88854 0.0
C519 C 0.49685 0.46308 0.90392 0.0
C520 C 0.48767 0.42533 0.89674 0.0
C521 C 0.52234 0.49323 0.88378 0.0
C522 C 0.50799 0.41854 0.87187 0.0
C523 C 0.53423 0.44868 0.85209 0.0
H524 H 0.47463 0.99035 0.83057 0.0
H525 H 0.54275 0.10003 0.78324 0.0
H526 H 0.60005 0.10968 0.81308 0.0
H527 H 0.63208 0.08391 0.84835 0.0
H528 H 0.56334 0.97319 0.89389 0.0
H529 H 0.50516 0.96728 0.86909 0.0
C530 C 0.50188 0.01659 0.82694 0.0
C531 C 0.50437 0.04411 0.8043 0.0
C532 C 0.5348 0.0217 0.84371 0.0
C533 C 0.53993 0.07816 0.80035 0.0
C534 C 0.57281 0.08369 0.81733 0.0
C535 C 0.60429 0.05878 0.85324 0.0
C536 C 0.60221 0.02885 0.8726 0.0
C537 C 0.57079 0.05519 0.83844 0.0
C538 C 0.56592 -0.00354 0.87871 0.0
C539 C 0.53255 0.99301 0.86457 0.0
H540 H 0.54787 -0.00074 0.57535 0.0
H541 H 0.51667 0.88975 0.61863 0.0
H542 H 0.47127 0.89542 0.65543 0.0
H543 H 0.44724 0.93547 0.67989 0.0
H544 H 0.48059 0.04589 0.63699 0.0
H545 H 0.51829 0.03566 0.59536 0.0
C546 C 0.53078 0.97637 0.59255 0.0
C547 C 0.53609 0.9445 0.59473 0.0
C548 C 0.5055 0.98018 0.61397 0.0
C549 C 0.5132 0.91469 0.61661 0.0
C550 C 0.48746 0.91804 0.63781 0.0
C551 C 0.46233 0.9571 0.6612 0.0
C552 C 0.46176 0.99176 0.66209 0.0
C553 C 0.48443 0.9513 0.63745 0.0
C554 C 0.48108 0.01923 0.63735 0.0
C555 C 0.50265 0.01343 0.61345 0.0
H556 H 0.0712 0.51852 0.68667 0.0
H557 H 0.96624 0.44186 0.63409 0.0
H558 H 0.97925 0.49163 0.59413 0.0
H559 H 0.01632 0.55811 0.5773 0.0
H560 H 0.11983 0.63655 0.63024 0.0
H561 H 0.11209 0.58441 0.66626 0.0
C562 C 0.05132 0.5126 0.66635 0.0
C563 C 0.0174 0.47669 0.66385 0.0
C564 C 0.05876 0.54154 0.64342 0.0
C565 C 0.99224 0.4694 0.63706 0.0
C566 C -0.00032 0.49779 0.61404 0.0
C567 C 0.03754 0.56375 0.59644 0.0
C568 C 0.06823 0.60114 0.60148 0.0
C569 C 0.03226 0.53415 0.61749 0.0
C570 C 0.0959 0.60793 0.62592 0.0
C571 C 0.09125 0.57824 0.64671 0.0
H572 H 0.37885 0.48082 0.65286 0.0
H573 H 0.45439 0.4886 0.57358 0.0
H574 H 0.51033 0.53605 0.60444 0.0
H575 H 0.5383 0.56829 0.65655 0.0
H576 H 0.46392 0.56015 0.73694 0.0
H577 H 0.40693 0.51996 0.70311 0.0
C578 C 0.40746 0.49385 0.64206 0.0
C579 C 0.41272 0.48118 0.61124 0.0
C580 C 0.4397 0.52032 0.66039 0.0
C581 C 0.44987 0.49785 0.59746 0.0
C582 C 0.48184 0.52476 0.61513 0.0
C583 C 0.50959 0.55791 0.66658 0.0
C584 C 0.50519 0.5664 0.69929 0.0
C585 C 0.4772 0.53494 0.64711 0.0
C586 C 0.46793 0.55363 0.71181 0.0
C587 C 0.43538 0.53066 0.69252 0.0
H588 H 0.67658 0.77177 0.41449 0.0
H589 H 0.77618 0.79631 0.47368 0.0
H590 H 0.77117 0.84736 0.50226 0.0
H591 H 0.73295 0.87814 0.51527 0.0
H592 H 0.6313 0.8505 0.45742 0.0
H593 H 0.64287 0.80743 0.42324 0.0
C594 C 0.69753 0.78862 0.43338 0.0
C595 C 0.72625 0.77991 0.44249 0.0
C596 C 0.69381 0.81694 0.45014 0.0
C597 C 0.75372 0.80244 0.4664 0.0
C598 C 0.75066 0.83137 0.48287 0.0
C599 C 0.71355 0.86311 0.49493 0.0
C600 C 0.68081 0.86696 0.48939 0.0
C601 C 0.71993 0.83782 0.47574 0.0
C602 C 0.65636 0.84766 0.46261 0.0
C603 C 0.66293 0.823 0.44303 0.0
H604 H 0.21086 0.90104 0.41344 0.0
H605 H 0.20673 0.98362 0.47872 0.0
H606 H 0.1596 0.93169 0.51358 0.0
H607 H 0.12771 0.8636 0.52947 0.0
H608 H 0.13437 0.7821 0.46413 0.0
H609 H 0.17221 0.83293 0.42514 0.0
C610 C 0.19912 0.90761 0.43502 0.0
C611 C 0.21258 0.94586 0.44397 0.0
C612 C 0.17293 0.87788 0.4551 0.0
C613 C 0.19674 0.95421 0.47151 0.0
C614 C 0.17009 0.92459 0.49154 0.0
C615 C 0.13685 0.85689 0.50643 0.0
C616 C 0.12912 0.81935 0.50012 0.0
C617 C 0.15919 0.8864 0.48423 0.0
C618 C 0.14076 0.81096 0.46998 0.0
C619 C 0.16233 0.83996 0.4476 0.0
H620 H 0.12191 0.29245 0.41284 0.0
H621 H 0.03516 0.21167 0.47909 0.0
H622 H 0.0853 0.22464 0.52031 0.0
H623 H 0.15277 0.26552 0.53979 0.0
H624 H 0.23684 0.35001 0.47388 0.0
H625 H 0.18855 0.32933 0.43032 0.0
C626 C 0.11387 0.2772 0.43613 0.0
C627 C 0.07483 0.25152 0.44309 0.0
C628 C 0.14233 0.28609 0.45999 0.0
C629 C 0.06505 0.23157 0.47314 0.0
C630 C 0.09365 0.23932 0.49682 0.0
C631 C 0.16047 0.27905 0.51576 0.0
C632 C 0.19809 0.30964 0.51017 0.0
C633 C 0.13221 0.26758 0.49093 0.0
C634 C 0.20785 0.32694 0.47896 0.0
C635 C 0.18035 0.31499 0.45398 0.0
H636 H 0.1229 0.3502 0.73381 0.0
H637 H 0.13697 0.44999 0.68233 0.0
H638 H 0.19082 0.45301 0.65088 0.0
H639 H 0.22713 0.42147 0.6328 0.0
H640 H 0.21043 0.32012 0.68377 0.0
H641 H 0.16442 0.3237 0.72071 0.0
C642 C 0.13819 0.37303 0.71609 0.0
C643 C 0.12568 0.39945 0.70997 0.0
C644 C 0.16824 0.37396 0.69768 0.0
C645 C 0.1461 0.42928 0.68742 0.0
C646 C 0.17661 0.43077 0.66924 0.0
C647 C 0.21389 0.40048 0.65228 0.0
C648 C 0.22169 0.37008 0.65497 0.0
C649 C 0.18691 0.40235 0.6733 0.0
C650 C 0.20454 0.34344 0.68067 0.0
C651 C 0.1782 0.34545 0.70189 0.0
H652 H 0.5696 0.71951 0.68761 0.0
H653 H 0.65708 0.80127 0.75326 0.0
H654 H 0.66424 0.85399 0.7188 0.0
H655 H 0.65292 0.87564 0.66622 0.0
H656 H 0.56858 0.79418 0.59823 0.0
H657 H 0.55246 0.74244 0.6376 0.0
C658 C 0.58939 0.74894 0.69474 0.0
C659 C 0.61312 0.75671 0.72253 0.0
C660 C 0.59441 0.77899 0.67414 0.0
C661 C 0.63889 0.79482 0.73164 0.0
C662 C 0.64309 0.82489 0.71193 0.0
C663 C 0.63078 0.84661 0.66009 0.0
C664 C 0.61266 0.83848 0.62912 0.0
C665 C 0.62228 0.81712 0.68242 0.0
C666 C 0.58326 0.80099 0.62184 0.0
C667 C 0.57411 0.77142 0.64428 0.0
H668 H 0.14562 0.8066 0.67118 0.0
H669 H 0.21708 0.7842 0.60539 0.0
H670 H 0.27458 0.829 0.63656 0.0
H671 H 0.30511 0.8801 0.67878 0.0
H672 H 0.23251 0.90349 0.74228 0.0
H673 H 0.17504 0.85266 0.71578 0.0
C674 C 0.17368 0.81114 0.66375 0.0
C675 C 0.17701 0.79248 0.63565 0.0
C676 C 0.20657 0.83744 0.68126 0.0
C677 C 0.21362 0.79832 0.62682 0.0
C678 C 0.24659 0.8241 0.64454 0.0
C679 C 0.27668 0.87355 0.68713 0.0
C680 C 0.27309 0.89584 0.71215 0.0
C681 C 0.24352 0.84466 0.67125 0.0
C682 C 0.23607 0.88712 0.72273 0.0
C683 C 0.20315 0.85803 0.70762 0.0
H684 H 0.664 0.90456 0.2184 0.0
H685 H 0.55824 0.87833 0.16825 0.0
H686 H 0.56131 0.82792 0.13661 0.0
H687 H 0.59747 0.79548 0.11994 0.0
H688 H 0.70431 0.82444 0.16991 0.0
H689 H 0.69731 0.86979 0.20474 0.0
C690 C 0.64135 0.88767 0.20074 0.0
C691 C 0.61115 0.89552 0.19544 0.0
C692 C 0.64373 0.8595 0.18232 0.0
C693 C 0.5818 0.87289 0.17283 0.0
C694 C 0.58372 0.84426 0.15457 0.0
C695 C 0.61906 0.81146 0.13863 0.0
C696 C 0.65165 0.80679 0.14191 0.0
C697 C 0.61509 0.83795 0.15857 0.0
C698 C 0.67919 0.82768 0.16643 0.0
C699 C 0.67521 0.85362 0.18648 0.0
H700 H 0.10176 0.76725 0.22473 0.0
H701 H 0.13617 0.69522 0.1732 0.0
H702 H 0.18247 0.75029 0.14062 0.0
H703 H 0.20844 0.81753 0.12348 0.0
H704 H 0.17254 0.88837 0.17553 0.0
H705 H 0.13169 0.83501 0.21131 0.0
C706 C 0.11958 0.76359 0.20653 0.0
C707 C 0.11517 0.72713 0.20103 0.0
C708 C 0.1457 0.7951 0.18784 0.0
C709 C 0.13898 0.72301 0.17783 0.0
C710 C 0.16529 0.75444 0.1591 0.0
C711 C 0.19208 0.82147 0.1429 0.0
C712 C 0.1932 0.85688 0.14636 0.0
C713 C 0.16821 0.79044 0.16338 0.0
C714 C 0.17195 0.86142 0.17189 0.0
C715 C 0.14851 0.83089 0.19244 0.0
H716 H 0.13 0.32009 0.16827 0.0
H717 H 0.19742 0.41402 0.10221 0.0
H718 H 0.25454 0.43406 0.13663 0.0
H719 H 0.28699 0.42079 0.18242 0.0
H720 H 0.219 0.32623 0.24774 0.0
H721 H 0.16067 0.31112 0.21706 0.0
C722 C 0.1571 0.34514 0.16151 0.0
C723 C 0.15944 0.36511 0.13241 0.0
C724 C 0.18992 0.35647 0.18133 0.0
C725 C 0.19472 0.39792 0.12438 0.0
C726 C 0.22751 0.4094 0.14403 0.0
C727 C 0.25928 0.39748 0.19038 0.0
C728 C 0.25749 0.37446 0.21713 0.0
C729 C 0.22569 0.38838 0.17217 0.0
C730 C 0.22131 0.34419 0.22701 0.0
C731 C 0.18787 0.33539 0.20942 0.0
H732 H 0.15124 0.3512 0.97009 0.0
H733 H 0.10899 0.24037 0.01543 0.0
H734 H 0.15473 0.23021 0.98353 0.0
H735 H 0.21242 0.25642 0.94867 0.0
H736 H 0.25593 0.36819 0.90494 0.0
H737 H 0.20366 0.37394 0.92998 0.0
C738 C 0.15156 0.32455 0.97267 0.0
C739 C 0.12725 0.29703 -0.00432 0.0
C740 C 0.17843 0.31911 0.95473 0.0
C741 C 0.12777 0.26241 -0.00171 0.0
C742 C 0.15399 0.25652 0.98008 0.0
C743 C 0.21004 0.2817 0.94407 0.0
C744 C 0.23845 0.31208 0.92549 0.0
C745 C 0.18036 0.28525 0.95912 0.0
C746 C 0.23479 0.34457 0.91961 0.0
C747 C 0.20492 0.34796 0.93394 0.0
H748 H 0.75596 0.85665 0.01905 0.0
H749 H 0.65571 0.76901 0.96807 0.0
H750 H 0.66628 0.81267 0.92301 0.0
H751 H 0.69731 0.87793 0.90242 0.0
H752 H 0.79507 0.96786 0.95389 0.0
H753 H 0.79288 0.9212 -0.00611 0.0
C754 C 0.73693 0.84699 -0.00222 0.0
C755 C 0.70469 0.80972 -0.0028 0.0
C756 C 0.74258 0.87281 0.97213 0.0
C757 C 0.6804 0.79759 0.96938 0.0
C758 C 0.68639 0.82259 0.94355 0.0
C759 C 0.7187 0.88718 0.92198 0.0
C760 C 0.7459 0.92622 0.92556 0.0
C761 C 0.7164 0.8606 0.94531 0.0
C762 C 0.77382 0.93786 0.95066 0.0
C763 C 0.77228 0.91125 0.97374 0.0
H764 H 0.19195 0.86922 0.97707 0.0
H765 H 0.11752 0.89665 0.03397 0.0
H766 H 0.06187 0.85095 0.00151 0.0
H767 H 0.03334 0.79713 0.96185 0.0
H768 H 0.10847 0.76847 0.90748 0.0
H769 H 0.16479 0.82087 0.93396 0.0
C770 C 0.16366 0.8656 0.9822 0.0
C771 C 0.15884 0.88578 0.00833 0.0
C772 C 0.13177 0.83874 0.96406 0.0
C773 C 0.12205 0.88123 0.01416 0.0
C774 C 0.09014 0.85496 -0.00429 0.0
C775 C 0.06211 0.8029 0.95541 0.0
C776 C 0.06676 0.77866 0.93321 0.0
C777 C 0.09448 0.83262 0.97134 0.0
C778 C 0.10415 0.78638 0.92498 0.0
C779 C 0.13638 0.81633 0.94006 0.0
H780 H 0.36322 0.22913 0.81866 0.0
H781 H 0.44281 0.23602 0.89406 0.0
H782 H 0.4569 0.19276 0.8621 0.0
H783 H 0.44011 0.14673 0.81588 0.0
H784 H 0.35724 0.13807 0.74309 0.0
H785 H 0.35117 0.18856 0.77075 0.0
C786 C 0.3839 0.22145 0.82808 0.0
C787 C 0.40134 0.23512 0.85896 0.0
C788 C 0.39111 0.19607 0.81007 0.0
C789 C 0.42874 0.22561 0.87042 0.0
C790 C 0.43668 0.20076 0.85223 0.0
C791 C 0.42139 0.15657 0.80585 0.0
C792 C 0.39883 0.13861 0.77781 0.0
C793 C 0.41713 0.18489 0.82249 0.0
C794 C 0.37448 0.15127 0.76495 0.0
C795 C 0.37097 0.18007 0.78072 0.0
H796 H 0.81024 0.1138 0.78704 0.0
H797 H 0.75946 0.16762 0.84488 0.0
H798 H 0.79472 0.22622 0.81324 0.0
H799 H 0.84818 0.2655 0.77575 0.0
H800 H 0.89975 0.21189 0.71886 0.0
H801 H 0.85554 0.15003 0.74305 0.0
C802 C 0.8063 0.13806 0.79233 0.0
C803 C 0.78324 0.13663 0.81895 0.0
C804 C 0.82714 0.17203 0.77441 0.0
C805 C 0.77783 0.16814 0.82501 0.0
C806 C 0.79799 0.2018 0.80693 0.0
C807 C 0.84905 0.24011 0.76808 0.0
C808 C 0.87781 0.24342 0.74635 0.0
C809 C 0.82405 0.20463 0.78259 0.0
C810 C 0.8784 0.21021 0.73628 0.0
C811 C 0.85316 0.17478 0.75007 0.0
H812 H 0.87065 0.67262 0.80795 0.0
H813 H 0.80104 0.56921 0.86355 0.0
H814 H 0.7433 0.55952 0.8346 0.0
H815 H 0.71153 0.58568 0.79958 0.0
H816 H 0.78173 0.69074 0.74624 0.0
H817 H 0.84009 0.69427 0.76816 0.0
C818 C 0.84299 0.64759 0.81342 0.0
C819 C 0.84017 0.62222 0.83841 0.0
C820 C 0.80979 0.64271 0.7974 0.0
C821 C 0.80411 0.58954 0.84468 0.0
C822 C 0.77095 0.58403 0.82827 0.0
C823 C 0.73962 0.60893 0.79231 0.0
C824 C 0.74225 0.63828 0.77189 0.0
C825 C 0.77325 0.61127 0.80553 0.0
C826 C 0.77887 0.66814 0.7625 0.0
C827 C 0.81232 0.6702 0.77495 0.0
H828 H 0.85294 0.64466 0.0049 0.0
H829 H 0.89066 0.74542 0.94459 0.0
H830 H 0.85264 0.76496 0.97778 0.0
H831 H 0.80401 0.75056 0.02081 0.0
H832 H 0.76584 0.64931 0.08048 0.0
H833 H 0.80896 0.63333 0.05094 0.0
C834 C 0.8531 0.67104 -0.00087 0.0
C835 C 0.87425 0.69314 0.97197 0.0
C836 C 0.83096 0.68211 0.01818 0.0
C837 C 0.87447 0.72756 0.9652 0.0
C838 C 0.85266 0.73884 0.98415 0.0
C839 C 0.80564 0.7254 0.02773 0.0
C840 C 0.78136 0.701 0.05254 0.0
C841 C 0.83014 0.71593 0.01028 0.0
C842 C 0.78385 0.66843 0.06119 0.0
C843 C 0.80848 0.65916 0.04428 0.0
H844 H 0.268 0.16534 0.95941 0.0
H845 H 0.35813 0.24144 0.02636 0.0
H846 H 0.3408 0.18906 0.06456 0.0
H847 H 0.3068 0.12043 0.07527 0.0
H848 H 0.21776 0.04291 0.00861 0.0
H849 H 0.22738 0.09707 0.97431 0.0
C850 C 0.28337 0.1706 0.98261 0.0
C851 C 0.31487 0.2072 -0.01039 0.0
C852 C 0.27368 0.14 0.00442 0.0
C853 C 0.3342 0.21352 0.02 0.0
C854 C 0.32435 0.18354 0.04194 0.0
C855 C 0.289 0.11547 0.05354 0.0
C856 C 0.26209 0.07786 0.04412 0.0
C857 C 0.2952 0.14647 0.0338 0.0
C858 C 0.23872 0.07172 0.01628 0.0
C859 C 0.24447 0.10263 -0.00345 0.0
H860 H 0.80816 0.11104 -0.00641 0.0
H861 H 0.88155 0.11661 0.91322 0.0
H862 H 0.93881 0.15529 0.94693 0.0
H863 H 0.96808 0.19358 -0.00277 0.0
H864 H 0.89417 0.18883 0.07672 0.0
H865 H 0.83722 0.14301 0.04582 0.0
C866 C 0.83668 0.12056 0.98352 0.0
C867 C 0.84059 0.11155 0.95081 0.0
C868 C 0.86946 0.14272 0.00301 0.0
C869 C 0.87773 0.12341 0.9383 0.0
C870 C 0.91053 0.14552 0.95756 0.0
C871 C 0.93957 0.18148 0.00811 0.0
C872 C 0.93517 0.1945 0.03905 0.0
C873 C 0.90679 0.15606 -0.01028 0.0
C874 C 0.8981 0.17916 0.05281 0.0
C875 C 0.86553 0.15324 0.03508 0.0
H876 H 0.36033 0.16027 0.49976 0.0
H877 H 0.25356 0.12286 0.44664 0.0
H878 H 0.24048 0.16595 0.47954 0.0
H879 H 0.26214 0.21822 0.52025 0.0
H880 H 0.37019 0.25662 0.57142 0.0
H881 H 0.37971 0.2089 0.54255 0.0
C882 C 0.33404 0.16128 0.49543 0.0
C883 C 0.30828 0.1387 0.47045 0.0
C884 C 0.32693 0.18641 0.51404 0.0
C885 C 0.27412 0.14014 0.46554 0.0
C886 C 0.26659 0.16481 0.48432 0.0
C887 C 0.28743 0.21568 0.5254 0.0
C888 C 0.31556 0.24109 0.54765 0.0
C889 C 0.29318 0.18864 0.50819 0.0
C890 C 0.34831 0.23765 0.55406 0.0
C891 C 0.35382 0.21039 0.53759 0.0
H892 H 0.88701 0.12737 0.45359 0.0
H893 H 0.86284 0.21372 0.49136 0.0
H894 H 0.81267 0.16641 0.52676 0.0
H895 H 0.77215 0.09984 0.54369 0.0
H896 H 0.7955 0.01302 0.50603 0.0
H897 H 0.84976 0.06141 0.4742 0.0
C898 C 0.8711 0.13598 0.46981 0.0
C899 C 0.87841 0.17399 0.46934 0.0
C900 C 0.84195 0.10854 0.49003 0.0
C901 C 0.85762 0.18461 0.4908 0.0
C902 C 0.82884 0.15756 0.5111 0.0
C903 C 0.78924 0.09147 0.52872 0.0
C904 C 0.77946 0.05279 0.52697 0.0
C905 C 0.82017 0.11931 0.51034 0.0
C906 C 0.80231 0.04259 0.50779 0.0
C907 C 0.83327 0.07022 0.48947 0.0
H908 H 0.90261 0.67144 0.56942 0.0
H909 H 0.98257 0.77633 0.52027 0.0
H910 H 0.93001 0.77214 0.48609 0.0
H911 H 0.86296 0.73398 0.4656 0.0
H912 H 0.7845 0.62816 0.51484 0.0
H913 H 0.83494 0.63753 0.55344 0.0
C914 C 0.90848 0.69373 0.55157 0.0
C915 C 0.94644 0.7238 0.54702 0.0
C916 C 0.87849 0.69067 0.53163 0.0
C917 C 0.95352 0.75282 0.52421 0.0
C918 C 0.92355 0.75026 0.50446 0.0
C919 C 0.85678 0.71323 0.48502 0.0
C920 C 0.82017 0.68001 0.48676 0.0
C921 C 0.88615 0.71856 0.50719 0.0
C922 C 0.81258 0.65363 0.51237 0.0
C923 C 0.84138 0.65897 0.53461 0.0
H924 H 0.87389 0.63275 0.25521 0.0
H925 H 0.87299 0.54297 0.31355 0.0
H926 H 0.82385 0.54292 0.34994 0.0
H927 H 0.78716 0.57442 0.36877 0.0
H928 H 0.78973 0.66453 0.30926 0.0
H929 H 0.83172 0.65806 0.26962 0.0
C930 C 0.86254 0.61279 0.27564 0.0
C931 C 0.87734 0.5883 0.282 0.0
C932 C 0.83474 0.61318 0.29641 0.0
C933 C 0.86199 0.56213 0.30819 0.0
C934 C 0.8341 0.56229 0.32911 0.0
C935 C 0.79629 0.59202 0.34677 0.0
C936 C 0.7859 0.62042 0.34235 0.0
C937 C 0.82107 0.58852 0.32402 0.0
C938 C 0.79789 0.64295 0.31364 0.0
C939 C 0.82193 0.63931 0.29088 0.0
H940 H 0.35861 0.22933 0.24605 0.0
H941 H 0.44835 0.31611 0.30675 0.0
H942 H 0.44954 0.26643 0.34073 0.0
H943 H 0.41727 0.19876 0.35802 0.0
H944 H 0.32647 0.11277 0.29711 0.0
H945 H 0.33399 0.16173 0.25799 0.0
C946 C 0.37891 0.23729 0.26637 0.0
C947 C 0.4028 0.27604 0.27443 0.0
C948 C 0.37899 0.20876 0.28588 0.0
C949 C 0.42957 0.28628 0.3003 0.0
C950 C 0.43006 0.25792 0.31981 0.0
C951 C 0.39981 0.19065 0.33579 0.0
C952 C 0.37067 0.15239 0.33093 0.0
C953 C 0.40376 0.21909 0.3136 0.0
C954 C 0.3485 0.14221 0.30184 0.0
C955 C 0.35273 0.17015 0.27942 0.0
H956 H 0.82875 0.22162 0.34561 0.0
H957 H 0.90189 0.18738 0.29491 0.0
H958 H 0.85098 0.15158 0.25485 0.0
H959 H 0.78386 0.12407 0.23798 0.0
H960 H 0.70887 0.15546 0.28896 0.0
H961 H 0.76262 0.19904 0.32462 0.0
C962 C 0.83373 0.20683 0.32549 0.0
C963 C 0.86886 0.20662 0.32367 0.0
C964 C 0.80398 0.18566 0.30265 0.0
C965 C 0.8749 0.18744 0.29732 0.0
C966 C 0.84583 0.167 0.27431 0.0
C967 C 0.77931 0.14081 0.25661 0.0
C968 C 0.7423 0.1361 0.26114 0.0
C969 C 0.80993 0.16495 0.27736 0.0
C970 C 0.73708 0.15851 0.28499 0.0
C971 C 0.76774 0.18319 0.30555 0.0
H972 H 0.09167 0.69078 0.45391 0.0
H973 H 0.96833 0.63508 0.46898 0.0
H974 H 0.95812 0.63413 0.40955 0.0
H975 H 0.98422 0.64726 0.3533 0.0
H976 H 0.10723 0.70061 0.33856 0.0
H977 H 0.11773 0.70538 0.39819 0.0
C978 C 0.06249 0.67801 0.44424 0.0
C979 C 0.03081 0.66258 0.46579 0.0
C980 C 0.05685 0.67788 0.41023 0.0
C981 C 0.99324 0.64685 0.45286 0.0
C982 C 0.98736 0.64652 0.41893 0.0
C983 C 0.01332 0.66074 0.36327 0.0
C984 C 0.04498 0.67391 0.34191 0.0
C985 C 0.01897 0.662 0.39742 0.0
C986 C 0.08254 0.69054 0.35482 0.0
C987 C 0.0885 0.69293 0.38877 0.0
H988 H 0.34142 0.33516 0.46801 0.0
H989 H 0.36734 0.45274 0.47161 0.0
H990 H 0.36445 0.45418 0.41143 0.0
H991 H 0.3529 0.42158 0.35826 0.0
H992 H 0.32476 0.30312 0.35464 0.0
H993 H 0.32945 0.30232 0.41458 0.0
C994 C 0.34711 0.36128 0.45554 0.0
C995 C 0.35507 0.39395 0.47406 0.0
C996 C 0.34422 0.36151 0.42109 0.0
C997 C 0.36143 0.42734 0.45775 0.0
C998 C 0.35954 0.42809 0.42342 0.0
C999 C 0.34746 0.39542 0.37049 0.0
C1000 C 0.33835 0.36243 0.35184 0.0
C1001 C 0.35046 0.39519 0.4049 0.0
C1002 C 0.33161 0.32891 0.36828 0.0
C1003 C 0.33454 0.32847 0.40258 0.0
H1004 H 0.68118 0.00829 0.44837 0.0
H1005 H 0.55706 0.94328 0.45595 0.0
H1006 H 0.5512 0.94231 0.3959 0.0
H1007 H 0.58135 0.95664 0.34176 0.0
H1008 H 0.70574 0.01959 0.33354 0.0
H1009 H 0.71156 0.02399 0.39356 0.0
C1010 C 0.65292 0.99474 0.43677 0.0
C1011 C 0.61956 0.97625 0.45623 0.0
C1012 C 0.64986 0.99303 0.4023 0.0
C1013 C 0.58303 0.9579 0.44119 0.0
C1014 C 0.57971 0.95706 0.40697 0.0
C1015 C 0.60981 0.97101 0.35298 0.0
C1016 C 0.64304 0.98736 0.33315 0.0
C1017 C 0.61295 0.97374 0.38733 0.0
C1018 C 0.67965 0.00642 0.34823 0.0
C1019 C 0.68303 0.0092 0.38253 0.0
H1020 H 0.68414 0.06697 0.00518 0.0
H1021 H 0.66655 0.95205 0.00852 0.0
H1022 H 0.66553 0.95398 0.06905 0.0
H1023 H 0.67031 0.98911 0.12058 0.0
H1024 H 0.68928 0.10448 0.11505 0.0
H1025 H 0.69031 0.10182 0.05513 0.0
C1026 C 0.68004 0.0421 0.01888 0.0
C1027 C 0.67546 0.00935 0.00223 0.0
C1028 C 0.68043 0.0438 0.05317 0.0
C1029 C 0.66989 0.97751 0.02069 0.0
C1030 C 0.66965 0.97876 0.05524 0.0
C1031 C 0.6753 0.01388 0.10624 0.0
C1032 C 0.67987 0.04706 0.12221 0.0
C1033 C 0.67526 0.01197 0.07169 0.0
C1034 C 0.6857 0.07868 0.10335 0.0
C1035 C 0.68609 0.07711 0.06912 0.0
H1036 H 0.01309 0.66117 0.12898 0.0
H1037 H 0.89092 0.58274 0.13885 0.0
H1038 H 0.88398 0.57721 0.07883 0.0
H1039 H 0.91317 0.59189 0.02435 0.0
H1040 H 0.03605 0.66828 0.01399 0.0
H1041 H 0.0424 0.67657 0.07378 0.0
C1042 C 0.98486 0.64367 0.11784 0.0
C1043 C 0.9524 0.62286 0.13795 0.0
C1044 C 0.98145 0.6394 0.0835 0.0
C1045 C 0.9161 0.59932 0.12357 0.0
C1046 C 0.91225 0.59587 0.0894 0.0
C1047 C 0.94149 0.61016 0.03503 0.0
C1048 C 0.97412 0.62922 0.01462 0.0
C1049 C 0.94487 0.61512 0.06922 0.0
C1050 C 0.01047 0.65297 0.02908 0.0
C1051 C 0.0141 0.65802 0.06324 0.0
H1052 H 0.32423 0.35069 0.13389 0.0
H1053 H 0.37123 0.27499 0.14005 0.0
H1054 H 0.38192 0.27959 0.08055 0.0
H1055 H 0.3864 0.31219 0.02906 0.0
H1056 H 0.34113 0.38934 0.02172 0.0
H1057 H 0.32192 0.37798 0.07995 0.0
C1058 C 0.33528 0.33403 0.12182 0.0
C1059 C 0.34666 0.31224 0.14084 0.0
C1060 C 0.34307 0.33838 0.08792 0.0
C1061 C 0.36191 0.29147 0.12549 0.0
C1062 C 0.36854 0.2946 0.09168 0.0
C1063 C 0.37242 0.32664 0.04018 0.0
C1064 C 0.36614 0.35239 0.02157 0.0
C1065 C 0.3609 0.31935 0.07306 0.0
C1066 C 0.34694 0.37001 0.03592 0.0
C1067 C 0.33571 0.36326 0.06902 0.0
H1068 H 0.0325 0.3391 0.61922 0.0
H1069 H 0.91086 0.30294 0.61929 0.0
H1070 H 0.9095 0.29999 0.55941 0.0
H1071 H 0.94239 0.30901 0.50755 0.0
H1072 H 0.06369 0.34404 0.50545 0.0
H1073 H 0.0657 0.34658 0.56588 0.0
C1074 C 0.00565 0.33007 0.60608 0.0
C1075 C 0.97186 0.32133 0.62363 0.0
C1076 C 0.0051 0.32888 0.57144 0.0
C1077 C 0.93731 0.31003 0.60633 0.0
C1078 C 0.93649 0.30844 0.5721 0.0
C1079 C 0.96953 0.31767 0.5201 0.0
C1080 C 0.00297 0.32684 0.50194 0.0
C1081 C 0.97027 0.31832 0.55448 0.0
C1082 C 0.03759 0.33722 0.51885 0.0
C1083 C 0.03869 0.33844 0.55337 0.0
H1084 H 0.6583 0.6038 0.6414 0.0
H1085 H 0.68215 0.72092 0.64058 0.0
H1086 H 0.68364 0.72075 0.58017 0.0
H1087 H 0.67728 0.68677 0.52771 0.0
H1088 H 0.6538 0.56979 0.52982 0.0
H1089 H 0.65238 0.57041 0.58991 0.0
C1090 C 0.66396 0.62948 0.62819 0.0
C1091 C 0.67008 0.66236 0.64566 0.0
C1092 C 0.66436 0.62903 0.59369 0.0
C1093 C 0.67756 0.69528 0.62787 0.0
C1094 C 0.67815 0.6951 0.59331 0.0
C1095 C 0.6714 0.66126 0.54131 0.0
C1096 C 0.66534 0.62815 0.52424 0.0
C1097 C 0.67126 0.662 0.57598 0.0
C1098 C 0.65846 0.59559 0.54228 0.0
C1099 C 0.65777 0.59596 0.57665 0.0
H1100 H 0.33178 -0.00411 0.63257 0.0
H1101 H 0.40423 0.11859 0.63973 0.0
H1102 H 0.40881 0.12338 0.57966 0.0
H1103 H 0.39491 0.09259 0.52563 0.0
H1104 H 0.32396 0.96955 0.51793 0.0
H1105 H 0.31674 0.96496 0.57785 0.0
C1106 C 0.3478 0.02371 0.62088 0.0
C1107 C 0.36727 0.05691 0.64041 0.0
C1108 C 0.35139 0.0261 0.58638 0.0
C1109 C 0.38877 0.09272 0.62509 0.0
C1110 C 0.39166 0.09542 0.59082 0.0
C1111 C 0.37815 0.06465 0.53695 0.0
C1112 C 0.36036 0.03144 0.51719 0.0
C1113 C 0.37376 0.06224 0.57129 0.0
C1114 C 0.33827 -0.0044 0.53247 0.0
C1115 C 0.33389 0.99295 0.56674 0.0
H1116 H 0.34778 0.0343 0.85721 0.0
H1117 H 0.32033 0.91672 0.84634 0.0
H1118 H 0.31243 0.90772 0.90592 0.0
H1119 H 0.31419 0.93329 0.96088 0.0
H1120 H 0.3434 0.05145 0.97248 0.0
H1121 H 0.35041 0.0603 0.91284 0.0
C1122 C 0.33957 0.0066 0.86792 0.0
C1123 C 0.3343 0.97611 0.84746 0.0
C1124 C 0.33601 0.00188 0.90229 0.0
C1125 C 0.32445 0.94058 0.86163 0.0
C1126 C 0.32007 0.93545 0.89567 0.0
C1127 C 0.32232 0.9611 0.9505 0.0
C1128 C 0.32828 0.99162 0.97129 0.0
C1129 C 0.32611 0.96598 0.91624 0.0
C1130 C 0.33883 0.02744 0.9572 0.0
C1131 C 0.34261 0.0325 0.92303 0.0
H1132 H 0.99518 0.29249 0.95011 0.0
H1133 H 0.02751 0.4103 0.9681 0.0
H1134 H 0.0307 0.42223 0.9088 0.0
H1135 H 0.02951 0.40069 0.85261 0.0
H1136 H -0.00046 0.28351 0.8334 0.0
H1137 H 0.99075 0.26979 0.89258 0.0
C1138 C 0.00184 0.32038 0.94083 0.0
C1139 C 0.01058 0.35043 0.96303 0.0
C1140 C 0.00512 0.32736 0.90672 0.0
C1141 C 0.02024 0.38679 0.95115 0.0
C1142 C 0.02247 0.39368 0.91737 0.0
C1143 C 0.0214 0.37217 0.86126 0.0
C1144 C 0.01593 0.34337 0.83865 0.0
C1145 C 0.01608 0.36448 0.89504 0.0
C1146 C 0.00441 0.30634 0.85035 0.0
C1147 C -0.00084 0.29843 0.88413 0.0
H1148 H 0.67873 0.66844 0.86399 0.0
H1149 H 0.62571 0.73915 0.86161 0.0
H1150 H 0.61311 0.73001 0.92059 0.0
H1151 H 0.61354 0.69915 0.97178 0.0
H1152 H 0.66843 0.63017 0.97637 0.0
H1153 H 0.68303 0.64049 0.91728 0.0
C1154 C 0.6657 0.68289 0.87673 0.0
C1155 C 0.65351 0.70478 0.85869 0.0
C1156 C 0.65775 0.67679 0.9107 0.0
C1157 C 0.63567 0.72253 0.87517 0.0
C1158 C 0.62804 0.71693 0.90878 0.0
C1159 C 0.62845 0.68603 0.95994 0.0
C1160 C 0.63938 0.66347 0.97842 0.0
C1161 C 0.63806 0.69336 0.92656 0.0
C1162 C 0.65923 0.64727 0.96262 0.0
C1163 C 0.66795 0.65351 0.92894 0.0
H1164 H 0.71105 0.95745 0.6723 0.0
H1165 H 0.65591 0.02639 0.67068 0.0
H1166 H 0.64988 0.02202 0.73089 0.0
H1167 H 0.66343 0.00106 0.78415 0.0
H1168 H 0.72069 0.93429 0.78461 0.0
H1169 H 0.72154 0.93417 0.7243 0.0
C1170 C 0.69805 0.97196 0.685 0.0
C1171 C 0.68471 0.99296 0.66701 0.0
C1172 C 0.69428 0.9689 0.71931 0.0
C1173 C 0.66698 0.01058 0.68397 0.0
C1174 C 0.66327 0.00783 0.71834 0.0
C1175 C 0.67503 0.98561 0.77087 0.0
C1176 C 0.69144 0.96717 0.78847 0.0
C1177 C 0.67695 0.98716 0.73626 0.0
C1178 C 0.70748 0.94817 0.77133 0.0
C1179 C 0.70837 0.94851 0.73697 0.0
H1180 H 0.04482 0.74427 0.69362 0.0
H1181 H 0.97649 0.62269 0.67457 0.0
H1182 H 0.97194 0.60983 0.73366 0.0
H1183 H 0.98474 0.63351 0.79089 0.0
H1184 H 0.05036 0.75505 0.80937 0.0
H1185 H 0.05966 0.76761 0.75016 0.0
C1186 C 0.02864 0.71495 0.70233 0.0
C1187 C 0.0106 0.68456 0.67976 0.0
C1188 C 0.02632 0.70775 0.73618 0.0
C1189 C 0.99038 0.64668 0.69148 0.0
C1190 C 0.98793 0.63925 0.72523 0.0
C1191 C 0.0019 0.66257 0.78178 0.0
C1192 C 0.01728 0.69336 0.80398 0.0
C1193 C 0.00569 0.66957 0.74779 0.0
C1194 C 0.03867 0.73105 0.79234 0.0
C1195 C 0.04362 0.73821 0.75863 0.0
H1196 H 0.37357 0.38458 0.69158 0.0
H1197 H 0.31228 0.26158 0.68083 0.0
H1198 H 0.31273 0.25415 0.74052 0.0
H1199 H 0.325 0.28214 0.79529 0.0
H1200 H 0.38379 0.40505 0.80747 0.0
H1201 H 0.38979 0.41309 0.74749 0.0
C1202 C 0.3612 0.35626 0.7024 0.0
C1203 C 0.34297 0.32363 0.6821 0.0
C1204 C 0.36036 0.35221 0.73682 0.0
C1205 C 0.32642 0.28701 0.69618 0.0
C1206 C 0.32646 0.28277 0.73022 0.0
C1207 C 0.33902 0.31078 0.78495 0.0
C1208 C 0.35321 0.34293 0.8058 0.0
C1209 C 0.34226 0.31511 0.75073 0.0
C1210 C 0.37219 0.37979 0.79192 0.0
C1211 C 0.37572 0.3844 0.75766 0.0
H1212 H 0.00942 0.24183 0.17937 0.0
H1213 H 0.98549 0.33534 0.17758 0.0
H1214 H 0.9918 0.34076 0.23758 0.0
H1215 H 0.00659 0.32053 0.29006 0.0
H1216 H 0.02962 0.22656 0.29153 0.0
H1217 H 0.02221 0.22045 0.23159 0.0
C1218 C 0.00524 0.26326 0.19201 0.0
C1219 C 0.99716 0.28827 0.17391 0.0
C1220 C 0.00961 0.26669 0.22626 0.0
C1221 C 0.99155 0.3156 0.19086 0.0
C1222 C 0.99554 0.31898 0.22512 0.0
C1223 C 0.0106 0.29912 0.27717 0.0
C1224 C 0.01934 0.27446 0.29497 0.0
C1225 C 0.00528 0.29514 0.24295 0.0
C1226 C 0.02333 0.24611 0.27819 0.0
C1227 C 0.01882 0.24245 0.24404 0.0
H1228 H 0.7465 0.72347 0.30131 0.0
H1229 H 0.62549 0.64055 0.31332 0.0
H1230 H 0.61686 0.63663 0.25352 0.0
H1231 H 0.64389 0.65665 0.1977 0.0
H1232 H 0.76474 0.74018 0.18663 0.0
H1233 H 0.77322 0.74341 0.2463 0.0
C1234 C 0.71809 0.70471 0.291 0.0
C1235 C 0.6867 0.6825 0.31192 0.0
C1236 C 0.71338 0.70231 0.25671 0.0
C1237 C 0.65019 0.65822 0.29789 0.0
C1238 C 0.64524 0.65576 0.26366 0.0
C1239 C 0.67214 0.67518 0.20839 0.0
C1240 C 0.70367 0.69799 0.1878 0.0
C1241 C 0.6767 0.67749 0.24282 0.0
C1242 C 0.74001 0.72235 0.20197 0.0
C1243 C 0.74488 0.72432 0.23607 0.0
H1244 H 0.26393 0.02063 0.29877 0.0
H1245 H 0.34631 0.98081 0.30143 0.0
H1246 H 0.35114 0.98476 0.24121 0.0
H1247 H 0.33106 -0.0012 0.18788 0.0
H1248 H 0.24792 0.03756 0.1864 0.0
H1249 H 0.24511 0.03572 0.24654 0.0
C1250 C 0.28271 0.01236 0.28633 0.0
C1251 C 0.30436 -4e-05 0.30465 0.0
C1252 C 0.28577 0.01526 0.25201 0.0
C1253 C 0.32897 0.99002 0.28793 0.0
C1254 C 0.33198 0.99257 0.25354 0.0
C1255 C 0.31295 0.00756 0.20083 0.0
C1256 C 0.28994 0.0186 0.18288 0.0
C1257 C 0.31062 0.00533 0.23536 0.0
C1258 C 0.26596 0.02912 0.19979 0.0
C1259 C 0.26415 0.0278 0.23409 0.0
loop_
_geom_bond_atom_site_label_1
_geom_bond_atom_site_label_2
_geom_bond_distance
_geom_bond_site_symmetry_2
_ccdc_geom_bond_type
Sc0 O3 2.025 . S
Sc0 O10 2.105 . S
Sc0 O13 2.105 1_455 S
Sc0 O16 2.105 . S
Sc0 O19 2.105 1_455 S
Sc1 O3 2.025 1_655 S
Sc1 O11 2.105 . S
Sc1 O15 2.105 . S
Sc1 O17 2.105 . S
Sc1 O21 2.105 . S
Sc2 O3 2.025 . S
Sc2 O12 2.105 . S
Sc2 O14 2.105 . S
Sc2 O18 2.105 . S
Sc2 O20 2.105 . S
O3 Sc0 2.025 . S
O3 Sc1 2.025 1_455 S
O3 Sc2 2.025 . S
C4 O10 1.268 . S
C4 O20 1.268 . S
C5 O11 1.268 . S
C5 O19 1.268 . S
C6 O12 1.268 . S
C6 O21 1.268 1_455 S
C7 O13 1.268 . S
C7 O17 1.268 . S
C8 O14 1.268 . S
C8 O16 1.268 . S
C9 O15 1.268 . S
C9 O18 1.268 1_655 S
O10 Sc0 2.105 . S
O10 C4 1.268 . S
O11 Sc1 2.105 . S
O11 C5 1.268 . S
O12 Sc2 2.105 . S
O12 C6 1.268 . S
O13 Sc0 2.105 1_655 S
O13 C7 1.268 . S
O14 Sc2 2.105 . S
O14 C8 1.268 . S
O15 Sc1 2.105 . S
O15 C9 1.268 . S
O16 Sc0 2.105 . S
O16 C8 1.268 . S
O17 Sc1 2.105 . S
O17 C7 1.268 . S
O18 Sc2 2.105 . S
O18 C9 1.268 1_455 S
O19 Sc0 2.105 1_655 S
O19 C5 1.268 . S
O20 Sc2 2.105 . S
O20 C4 1.268 . S
O21 Sc1 2.105 . S
O21 C6 1.268 1_655 S
Sc22 O25 2.025 . S
Sc22 O32 2.105 . S
Sc22 O35 2.105 . S
Sc22 O38 2.105 . S
Sc22 O41 2.105 . S
Sc23 O25 2.025 . S
Sc23 O33 2.105 . S
Sc23 O37 2.105 . S
Sc23 O39 2.105 . S
Sc23 O43 2.105 . S
Sc24 O25 2.025 . S
Sc24 O34 2.105 . S
Sc24 O36 2.105 . S
Sc24 O40 2.105 . S
Sc24 O42 2.105 . S
O25 Sc22 2.025 . S
O25 Sc23 2.025 . S
O25 Sc24 2.025 . S
C26 O32 1.268 . S
C26 O42 1.268 . S
C27 O33 1.268 . S
C27 O41 1.268 . S
C28 O34 1.268 . S
C28 O43 1.268 . S
C29 O35 1.268 . S
C29 O39 1.268 . S
C30 O36 1.268 . S
C30 O38 1.268 . S
C31 O37 1.268 . S
C31 O40 1.268 . S
O32 Sc22 2.105 . S
O32 C26 1.268 . S
O33 Sc23 2.105 . S
O33 C27 1.268 . S
O34 Sc24 2.105 . S
O34 C28 1.268 . S
O35 Sc22 2.105 . S
O35 C29 1.268 . S
O36 Sc24 2.105 . S
O36 C30 1.268 . S
O37 Sc23 2.105 . S
O37 C31 1.268 . S
O38 Sc22 2.105 . S
O38 C30 1.268 . S
O39 Sc23 2.105 . S
O39 C29 1.268 . S
O40 Sc24 2.105 . S
O40 C31 1.268 . S
O41 Sc22 2.105 . S
O41 C27 1.268 . S
O42 Sc24 2.105 . S
O42 C26 1.268 . S
O43 Sc23 2.105 . S
O43 C28 1.268 . S
Sc44 O47 2.025 . S
Sc44 O54 2.105 . S
Sc44 O57 2.105 . S
Sc44 O60 2.105 . S
Sc44 O63 2.105 . S
Sc45 O47 2.025 1_565 S
Sc45 O55 2.105 . S
Sc45 O59 2.105 . S
Sc45 O61 2.105 . S
Sc45 O65 2.105 . S
Sc46 O47 2.025 . S
Sc46 O56 2.105 1_545 S
Sc46 O58 2.105 . S
Sc46 O62 2.105 1_545 S
Sc46 O64 2.105 . S
O47 Sc44 2.025 . S
O47 Sc45 2.025 1_545 S
O47 Sc46 2.025 . S
C48 O54 1.268 . S
C48 O64 1.268 . S
C49 O55 1.268 . S
C49 O63 1.268 1_565 S
C50 O56 1.268 . S
C50 O65 1.268 . S
C51 O57 1.268 . S
C51 O61 1.268 1_545 S
C52 O58 1.268 . S
C52 O60 1.268 . S
C53 O59 1.268 . S
C53 O62 1.268 . S
O54 Sc44 2.105 . S
O54 C48 1.268 . S
O55 Sc45 2.105 . S
O55 C49 1.268 . S
O56 Sc46 2.105 1_565 S
O56 C50 1.268 . S
O57 Sc44 2.105 . S
O57 C51 1.268 . S
O58 Sc46 2.105 . S
O58 C52 1.268 . S
O59 Sc45 2.105 . S
O59 C53 1.268 . S
O60 Sc44 2.105 . S
O60 C52 1.268 . S
O61 Sc45 2.105 . S
O61 C51 1.268 1_565 S
O62 Sc46 2.105 1_565 S
O62 C53 1.268 . S
O63 Sc44 2.105 . S
O63 C49 1.268 1_545 S
O64 Sc46 2.105 . S
O64 C48 1.268 . S
O65 Sc45 2.105 . S
O65 C50 1.268 . S
Sc66 O69 2.025 . S
Sc66 O76 2.105 1_455 S
Sc66 O79 2.105 . S
Sc66 O82 2.105 1_455 S
Sc66 O85 2.105 . S
Sc67 O69 2.025 . S
Sc67 O77 2.105 . S
Sc67 O81 2.105 . S
Sc67 O83 2.105 . S
Sc67 O87 2.105 . S
Sc68 O69 2.025 1_655 S
Sc68 O78 2.105 . S
Sc68 O80 2.105 . S
Sc68 O84 2.105 . S
Sc68 O86 2.105 . S
O69 Sc66 2.025 . S
O69 Sc67 2.025 . S
O69 Sc68 2.025 1_455 S
C70 O76 1.268 . S
C70 O86 1.268 . S
C71 O77 1.268 . S
C71 O85 1.268 . S
C72 O78 1.268 1_455 S
C72 O87 1.268 . S
C73 O79 1.268 . S
C73 O83 1.268 . S
C74 O80 1.268 . S
C74 O82 1.268 . S
C75 O81 1.268 1_655 S
C75 O84 1.268 . S
O76 Sc66 2.105 1_655 S
O76 C70 1.268 . S
O77 Sc67 2.105 . S
O77 C71 1.268 . S
O78 Sc68 2.105 . S
O78 C72 1.268 1_655 S
O79 Sc66 2.105 . S
O79 C73 1.268 . S
O80 Sc68 2.105 . S
O80 C74 1.268 . S
O81 Sc67 2.105 . S
O81 C75 1.268 1_455 S
O82 Sc66 2.105 1_655 S
O82 C74 1.268 . S
O83 Sc67 2.105 . S
O83 C73 1.268 . S
O84 Sc68 2.105 . S
O84 C75 1.268 . S
O85 Sc66 2.105 . S
O85 C71 1.268 . S
O86 Sc68 2.105 . S
O86 C70 1.268 . S
O87 Sc67 2.105 . S
O87 C72 1.268 . S
Sc88 O91 2.025 . S
Sc88 O98 2.105 . S
Sc88 O101 2.105 . S
Sc88 O104 2.105 . S
Sc88 O107 2.105 . S
Sc89 O91 2.025 . S
Sc89 O99 2.105 . S
Sc89 O103 2.105 . S
Sc89 O105 2.105 . S
Sc89 O109 2.105 . S
Sc90 O91 2.025 . S
Sc90 O100 2.105 . S
Sc90 O102 2.105 . S
Sc90 O106 2.105 . S
Sc90 O108 2.105 . S
O91 Sc88 2.025 . S
O91 Sc89 2.025 . S
O91 Sc90 2.025 . S
C92 O98 1.268 . S
C92 O108 1.268 . S
C93 O99 1.268 . S
C93 O107 1.268 . S
C94 O100 1.268 . S
C94 O109 1.268 . S
C95 O101 1.268 . S
C95 O105 1.268 . S
C96 O102 1.268 . S
C96 O104 1.268 . S
C97 O103 1.268 . S
C97 O106 1.268 . S
O98 Sc88 2.105 . S
O98 C92 1.268 . S
O99 Sc89 2.105 . S
O99 C93 1.268 . S
O100 Sc90 2.105 . S
O100 C94 1.268 . S
O101 Sc88 2.105 . S
O101 C95 1.268 . S
O102 Sc90 2.105 . S
O102 C96 1.268 . S
O103 Sc89 2.105 . S
O103 C97 1.268 . S
O104 Sc88 2.105 . S
O104 C96 1.268 . S
O105 Sc89 2.105 . S
O105 C95 1.268 . S
O106 Sc90 2.105 . S
O106 C97 1.268 . S
O107 Sc88 2.105 . S
O107 C93 1.268 . S
O108 Sc90 2.105 . S
O108 C92 1.268 . S
O109 Sc89 2.105 . S
O109 C94 1.268 . S
Sc110 O113 2.025 1_565 S
Sc110 O120 2.105 . S
Sc110 O123 2.105 . S
Sc110 O126 2.105 . S
Sc110 O129 2.105 . S
Sc111 O113 2.025 . S
Sc111 O121 2.105 . S
Sc111 O125 2.105 . S
Sc111 O127 2.105 . S
Sc111 O131 2.105 . S
Sc112 O113 2.025 . S
Sc112 O122 2.105 . S
Sc112 O124 2.105 1_545 S
Sc112 O128 2.105 . S
Sc112 O130 2.105 1_545 S
O113 Sc110 2.025 1_545 S
O113 Sc111 2.025 . S
O113 Sc112 2.025 . S
C114 O120 1.268 . S
C114 O130 1.268 . S
C115 O121 1.268 1_565 S
C115 O129 1.268 . S
C116 O122 1.268 . S
C116 O131 1.268 . S
C117 O123 1.268 1_545 S
C117 O127 1.268 . S
C118 O124 1.268 . S
C118 O126 1.268 . S
C119 O125 1.268 . S
C119 O128 1.268 . S
O120 Sc110 2.105 . S
O120 C114 1.268 . S
O121 Sc111 2.105 . S
O121 C115 1.268 1_545 S
O122 Sc112 2.105 . S
O122 C116 1.268 . S
O123 Sc110 2.105 . S
O123 C117 1.268 1_565 S
O124 Sc112 2.105 1_565 S
O124 C118 1.268 . S
O125 Sc111 2.105 . S
O125 C119 1.268 . S
O126 Sc110 2.105 . S
O126 C118 1.268 . S
O127 Sc111 2.105 . S
O127 C117 1.268 . S
O128 Sc112 2.105 . S
O128 C119 1.268 . S
O129 Sc110 2.105 . S
O129 C115 1.268 . S
O130 Sc112 2.105 1_565 S
O130 C114 1.268 . S
O131 Sc111 2.105 . S
O131 C116 1.268 . S
Sc132 O135 2.025 . S
Sc132 O142 2.105 1_565 S
Sc132 O145 2.105 . S
Sc132 O148 2.105 . S
Sc132 O151 2.105 . S
Sc133 O135 2.025 . S
Sc133 O143 2.105 . S
Sc133 O147 2.105 . S
Sc133 O149 2.105 . S
Sc133 O153 2.105 . S
Sc134 O135 2.025 . S
Sc134 O144 2.105 . S
Sc134 O146 2.105 . S
Sc134 O150 2.105 . S
Sc134 O152 2.105 . S
O135 Sc132 2.025 . S
O135 Sc133 2.025 . S
O135 Sc134 2.025 . S
C136 O142 1.268 . S
C136 O152 1.268 1_545 S
C137 O143 1.268 . S
C137 O151 1.268 . S
C138 O144 1.268 . S
C138 O153 1.268 . S
C139 O145 1.268 . S
C139 O149 1.268 . S
C140 O146 1.268 . S
C140 O148 1.268 . S
C141 O147 1.268 . S
C141 O150 1.268 . S
O142 Sc132 2.105 1_545 S
O142 C136 1.268 . S
O143 Sc133 2.105 . S
O143 C137 1.268 . S
O144 Sc134 2.105 . S
O144 C138 1.268 . S
O145 Sc132 2.105 . S
O145 C139 1.268 . S
O146 Sc134 2.105 . S
O146 C140 1.268 . S
O147 Sc133 2.105 . S
O147 C141 1.268 . S
O148 Sc132 2.105 . S
O148 C140 1.268 . S
O149 Sc133 2.105 . S
O149 C139 1.268 . S
O150 Sc134 2.105 . S
O150 C141 1.268 . S
O151 Sc132 2.105 . S
O151 C137 1.268 . S
O152 Sc134 2.105 . S
O152 C136 1.268 1_565 S
O153 Sc133 2.105 . S
O153 C138 1.268 . S
Sc154 O157 2.025 . S
Sc154 O164 2.106 . S
Sc154 O167 2.105 . S
Sc154 O170 2.105 . S
Sc154 O173 2.105 . S
Sc155 O157 2.025 . S
Sc155 O165 2.105 . S
Sc155 O169 2.105 . S
Sc155 O171 2.105 . S
Sc155 O175 2.105 . S
Sc156 O157 2.025 . S
Sc156 O166 2.105 . S
Sc156 O168 2.105 . S
Sc156 O172 2.105 . S
Sc156 O174 2.105 . S
O157 Sc154 2.025 . S
O157 Sc155 2.025 . S
O157 Sc156 2.025 . S
C158 O164 1.268 . S
C158 O174 1.268 . S
C159 O165 1.268 . S
C159 O173 1.268 . S
C160 O166 1.268 . S
C160 O175 1.268 . S
C161 O167 1.268 . S
C161 O171 1.268 . S
C162 O168 1.268 . S
C162 O170 1.268 . S
C163 O169 1.268 . S
C163 O172 1.268 . S
O164 Sc154 2.106 . S
O164 C158 1.268 . S
O165 Sc155 2.105 . S
O165 C159 1.268 . S
O166 Sc156 2.105 . S
O166 C160 1.268 . S
O167 Sc154 2.105 . S
O167 C161 1.268 . S
O168 Sc156 2.105 . S
O168 C162 1.268 . S
O169 Sc155 2.105 . S
O169 C163 1.268 . S
O170 Sc154 2.105 . S
O170 C162 1.268 . S
O171 Sc155 2.105 . S
O171 C161 1.268 . S
O172 Sc156 2.105 . S
O172 C163 1.268 . S
O173 Sc154 2.105 . S
O173 C159 1.268 . S
O174 Sc156 2.105 . S
O174 C158 1.268 . S
O175 Sc155 2.105 . S
O175 C160 1.268 . S
Sc176 O179 2.025 . S
Sc176 O186 2.105 . S
Sc176 O189 2.105 . S
Sc176 O192 2.105 . S
Sc176 O195 2.105 . S
Sc177 O179 2.025 . S
Sc177 O187 2.105 . S
Sc177 O191 2.105 . S
Sc177 O193 2.105 . S
Sc177 O197 2.105 . S
Sc178 O179 2.025 . S
Sc178 O188 2.105 . S
Sc178 O190 2.105 . S
Sc178 O194 2.105 . S
Sc178 O196 2.105 . S
O179 Sc176 2.025 . S
O179 Sc177 2.025 . S
O179 Sc178 2.025 . S
C180 O186 1.268 . S
C180 O196 1.268 . S
C181 O187 1.268 . S
C181 O195 1.268 . S
C182 O188 1.268 . S
C182 O197 1.268 . S
C183 O189 1.268 . S
C183 O193 1.268 . S
C184 O190 1.268 . S
C184 O192 1.268 . S
C185 O191 1.268 . S
C185 O194 1.268 . S
O186 Sc176 2.105 . S
O186 C180 1.268 . S
O187 Sc177 2.105 . S
O187 C181 1.268 . S
O188 Sc178 2.105 . S
O188 C182 1.268 . S
O189 Sc176 2.105 . S
O189 C183 1.268 . S
O190 Sc178 2.105 . S
O190 C184 1.268 . S
O191 Sc177 2.105 . S
O191 C185 1.268 . S
O192 Sc176 2.105 . S
O192 C184 1.268 . S
O193 Sc177 2.105 . S
O193 C183 1.268 . S
O194 Sc178 2.105 . S
O194 C185 1.268 . S
O195 Sc176 2.105 . S
O195 C181 1.268 . S
O196 Sc178 2.105 . S
O196 C180 1.268 . S
O197 Sc177 2.105 . S
O197 C182 1.268 . S
Sc198 O201 2.025 . S
Sc198 O208 2.105 . S
Sc198 O211 2.105 . S
Sc198 O214 2.105 . S
Sc198 O217 2.105 . S
Sc199 O201 2.025 . S
Sc199 O209 2.105 . S
Sc199 O213 2.105 . S
Sc199 O215 2.105 . S
Sc199 O219 2.105 . S
Sc200 O201 2.025 . S
Sc200 O210 2.105 . S
Sc200 O212 2.105 . S
Sc200 O216 2.105 . S
Sc200 O218 2.105 . S
O201 Sc198 2.025 . S
O201 Sc199 2.025 . S
O201 Sc200 2.025 . S
C202 O208 1.268 . S
C202 O218 1.268 . S
C203 O209 1.268 . S
C203 O217 1.268 . S
C204 O210 1.268 . S
C204 O219 1.268 . S
C205 O211 1.268 . S
C205 O215 1.268 . S
C206 O212 1.268 . S
C206 O214 1.268 . S
C207 O213 1.268 . S
C207 O216 1.268 . S
O208 Sc198 2.105 . S
O208 C202 1.268 . S
O209 Sc199 2.105 . S
O209 C203 1.268 . S
O210 Sc200 2.105 . S
O210 C204 1.268 . S
O211 Sc198 2.105 . S
O211 C205 1.268 . S
O212 Sc200 2.105 . S
O212 C206 1.268 . S
O213 Sc199 2.105 . S
O213 C207 1.268 . S
O214 Sc198 2.105 . S
O214 C206 1.268 . S
O215 Sc199 2.105 . S
O215 C205 1.268 . S
O216 Sc200 2.105 . S
O216 C207 1.268 . S
O217 Sc198 2.105 . S
O217 C203 1.268 . S
O218 Sc200 2.105 . S
O218 C202 1.268 . S
O219 Sc199 2.105 . S
O219 C204 1.268 . S
Sc220 O223 2.025 . S
Sc220 O230 2.105 . S
Sc220 O233 2.105 . S
Sc220 O236 2.105 . S
Sc220 O239 2.105 . S
Sc221 O223 2.025 . S
Sc221 O231 2.105 . S
Sc221 O235 2.105 . S
Sc221 O237 2.105 . S
Sc221 O241 2.105 . S
Sc222 O223 2.025 . S
Sc222 O232 2.105 . S
Sc222 O234 2.105 . S
Sc222 O238 2.105 . S
Sc222 O240 2.105 1_565 S
O223 Sc220 2.025 . S
O223 Sc221 2.025 . S
O223 Sc222 2.025 . S
C224 O230 1.268 1_545 S
C224 O240 1.268 . S
C225 O231 1.268 . S
C225 O239 1.268 . S
C226 O232 1.268 . S
C226 O241 1.268 . S
C227 O233 1.268 . S
C227 O237 1.268 . S
C228 O234 1.268 . S
C228 O236 1.268 . S
C229 O235 1.268 . S
C229 O238 1.268 . S
O230 Sc220 2.105 . S
O230 C224 1.268 1_565 S
O231 Sc221 2.105 . S
O231 C225 1.268 . S
O232 Sc222 2.105 . S
O232 C226 1.268 . S
O233 Sc220 2.105 . S
O233 C227 1.268 . S
O234 Sc222 2.105 . S
O234 C228 1.268 . S
O235 Sc221 2.105 . S
O235 C229 1.268 . S
O236 Sc220 2.105 . S
O236 C228 1.268 . S
O237 Sc221 2.105 . S
O237 C227 1.268 . S
O238 Sc222 2.105 . S
O238 C229 1.268 . S
O239 Sc220 2.105 . S
O239 C225 1.268 . S
O240 Sc222 2.105 1_545 S
O240 C224 1.268 . S
O241 Sc221 2.105 . S
O241 C226 1.268 . S
Sc242 O245 2.025 . S
Sc242 O252 2.105 . S
Sc242 O255 2.105 . S
Sc242 O258 2.105 . S
Sc242 O261 2.105 . S
Sc243 O245 2.025 . S
Sc243 O253 2.105 . S
Sc243 O257 2.105 . S
Sc243 O259 2.105 . S
Sc243 O263 2.105 . S
Sc244 O245 2.025 . S
Sc244 O254 2.105 . S
Sc244 O256 2.105 . S
Sc244 O260 2.105 . S
Sc244 O262 2.105 . S
O245 Sc242 2.025 . S
O245 Sc243 2.025 . S
O245 Sc244 2.025 . S
C246 O252 1.268 . S
C246 O262 1.269 . S
C247 O253 1.268 . S
C247 O261 1.268 . S
C248 O254 1.268 . S
C248 O263 1.268 . S
C249 O255 1.268 . S
C249 O259 1.268 . S
C250 O256 1.268 . S
C250 O258 1.268 . S
C251 O257 1.268 . S
C251 O260 1.268 . S
O252 Sc242 2.105 . S
O252 C246 1.268 . S
O253 Sc243 2.105 . S
O253 C247 1.268 . S
O254 Sc244 2.105 . S
O254 C248 1.268 . S
O255 Sc242 2.105 . S
O255 C249 1.268 . S
O256 Sc244 2.105 . S
O256 C250 1.268 . S
O257 Sc243 2.105 . S
O257 C251 1.268 . S
O258 Sc242 2.105 . S
O258 C250 1.268 . S
O259 Sc243 2.105 . S
O259 C249 1.268 . S
O260 Sc244 2.105 . S
O260 C251 1.268 . S
O261 Sc242 2.105 . S
O261 C247 1.268 . S
O262 Sc244 2.105 . S
O262 C246 1.269 . S
O263 Sc243 2.105 . S
O263 C248 1.268 . S
Sc264 O267 2.025 . S
Sc264 O274 2.105 . S
Sc264 O277 2.105 . S
Sc264 O280 2.105 . S
Sc264 O283 2.105 . S
Sc265 O267 2.025 . S
Sc265 O275 2.105 . S
Sc265 O279 2.105 . S
Sc265 O281 2.105 . S
Sc265 O285 2.105 . S
Sc266 O267 2.025 . S
Sc266 O276 2.105 . S
Sc266 O278 2.105 . S
Sc266 O282 2.105 . S
Sc266 O284 2.105 . S
O267 Sc264 2.025 . S
O267 Sc265 2.025 . S
O267 Sc266 2.025 . S
C268 O274 1.268 . S
C268 O284 1.268 . S
C269 O275 1.268 . S
C269 O283 1.268 . S
C270 O276 1.268 . S
C270 O285 1.268 . S
C271 O277 1.268 . S
C271 O281 1.268 . S
C272 O278 1.268 . S
C272 O280 1.268 . S
C273 O279 1.268 . S
C273 O282 1.268 . S
O274 Sc264 2.105 . S
O274 C268 1.268 . S
O275 Sc265 2.105 . S
O275 C269 1.268 . S
O276 Sc266 2.105 . S
O276 C270 1.268 . S
O277 Sc264 2.105 . S
O277 C271 1.268 . S
O278 Sc266 2.105 . S
O278 C272 1.268 . S
O279 Sc265 2.105 . S
O279 C273 1.268 . S
O280 Sc264 2.105 . S
O280 C272 1.268 . S
O281 Sc265 2.105 . S
O281 C271 1.268 . S
O282 Sc266 2.105 . S
O282 C273 1.268 . S
O283 Sc264 2.105 . S
O283 C269 1.268 . S
O284 Sc266 2.105 . S
O284 C268 1.268 . S
O285 Sc265 2.105 . S
O285 C270 1.268 . S
Sc286 O289 2.025 . S
Sc286 O296 2.105 . S
Sc286 O299 2.105 . S
Sc286 O302 2.105 . S
Sc286 O305 2.105 . S
Sc287 O289 2.025 . S
Sc287 O297 2.105 . S
Sc287 O301 2.105 . S
Sc287 O303 2.105 . S
Sc287 O307 2.105 . S
Sc288 O289 2.025 . S
Sc288 O298 2.105 . S
Sc288 O300 2.106 . S
Sc288 O304 2.105 . S
Sc288 O306 2.105 . S
O289 Sc286 2.025 . S
O289 Sc287 2.025 . S
O289 Sc288 2.025 . S
C290 O296 1.268 . S
C290 O306 1.268 . S
C291 O297 1.268 . S
C291 O305 1.268 . S
C292 O298 1.268 . S
C292 O307 1.268 . S
C293 O299 1.268 . S
C293 O303 1.268 . S
C294 O300 1.268 . S
C294 O302 1.268 . S
C295 O301 1.268 . S
C295 O304 1.268 . S
O296 Sc286 2.105 . S
O296 C290 1.268 . S
O297 Sc287 2.105 . S
O297 C291 1.268 . S
O298 Sc288 2.105 . S
O298 C292 1.268 . S
O299 Sc286 2.105 . S
O299 C293 1.268 . S
O300 Sc288 2.106 . S
O300 C294 1.268 . S
O301 Sc287 2.105 . S
O301 C295 1.268 . S
O302 Sc286 2.105 . S
O302 C294 1.268 . S
O303 Sc287 2.105 . S
O303 C293 1.268 . S
O304 Sc288 2.105 . S
O304 C295 1.268 . S
O305 Sc286 2.105 . S
O305 C291 1.268 . S
O306 Sc288 2.105 . S
O306 C290 1.268 . S
O307 Sc287 2.105 . S
O307 C292 1.268 . S
Sc308 O311 2.025 . S
Sc308 O318 2.105 . S
Sc308 O321 2.105 . S
Sc308 O324 2.105 . S
Sc308 O327 2.105 . S
Sc309 O311 2.025 . S
Sc309 O319 2.105 . S
Sc309 O323 2.105 . S
Sc309 O325 2.105 . S
Sc309 O329 2.105 . S
Sc310 O311 2.025 . S
Sc310 O320 2.105 . S
Sc310 O322 2.105 1_655 S
Sc310 O326 2.105 . S
Sc310 O328 2.105 . S
O311 Sc308 2.025 . S
O311 Sc309 2.025 . S
O311 Sc310 2.025 . S
C312 O318 1.268 . S
C312 O328 1.268 . S
C313 O319 1.268 . S
C313 O327 1.268 . S
C314 O320 1.268 . S
C314 O329 1.268 . S
C315 O321 1.268 . S
C315 O325 1.268 . S
C316 O322 1.268 . S
C316 O324 1.268 1_455 S
C317 O323 1.268 . S
C317 O326 1.268 . S
O318 Sc308 2.105 . S
O318 C312 1.268 . S
O319 Sc309 2.105 . S
O319 C313 1.268 . S
O320 Sc310 2.105 . S
O320 C314 1.268 . S
O321 Sc308 2.105 . S
O321 C315 1.268 . S
O322 Sc310 2.105 1_455 S
O322 C316 1.268 . S
O323 Sc309 2.105 . S
O323 C317 1.268 . S
O324 Sc308 2.105 . S
O324 C316 1.268 1_655 S
O325 Sc309 2.105 . S
O325 C315 1.268 . S
O326 Sc310 2.105 . S
O326 C317 1.268 . S
O327 Sc308 2.105 . S
O327 C313 1.268 . S
O328 Sc310 2.105 . S
O328 C312 1.268 . S
O329 Sc309 2.105 . S
O329 C314 1.268 . S
Sc330 O333 2.025 . S
Sc330 O340 2.105 . S
Sc330 O343 2.105 . S
Sc330 O346 2.105 . S
Sc330 O349 2.105 . S
Sc331 O333 2.025 . S
Sc331 O341 2.105 . S
Sc331 O345 2.105 . S
Sc331 O347 2.105 . S
Sc331 O351 2.105 . S
Sc332 O333 2.025 . S
Sc332 O342 2.105 . S
Sc332 O344 2.105 . S
Sc332 O348 2.105 . S
Sc332 O350 2.105 . S
O333 Sc330 2.025 . S
O333 Sc331 2.025 . S
O333 Sc332 2.025 . S
C334 O340 1.268 . S
C334 O350 1.268 . S
C335 O341 1.268 . S
C335 O349 1.268 . S
C336 O342 1.268 . S
C336 O351 1.268 . S
C337 O343 1.268 . S
C337 O347 1.268 . S
C338 O344 1.268 . S
C338 O346 1.269 . S
C339 O345 1.268 . S
C339 O348 1.268 . S
O340 Sc330 2.105 . S
O340 C334 1.268 . S
O341 Sc331 2.105 . S
O341 C335 1.268 . S
O342 Sc332 2.105 . S
O342 C336 1.268 . S
O343 Sc330 2.105 . S
O343 C337 1.268 . S
O344 Sc332 2.105 . S
O344 C338 1.268 . S
O345 Sc331 2.105 . S
O345 C339 1.268 . S
O346 Sc330 2.105 . S
O346 C338 1.269 . S
O347 Sc331 2.105 . S
O347 C337 1.268 . S
O348 Sc332 2.105 . S
O348 C339 1.268 . S
O349 Sc330 2.105 . S
O349 C335 1.268 . S
O350 Sc332 2.105 . S
O350 C334 1.268 . S
O351 Sc331 2.105 . S
O351 C336 1.268 . S
Sc352 O355 2.025 . S
Sc352 O362 2.105 . S
Sc352 O365 2.105 . S
Sc352 O368 2.105 . S
Sc352 O371 2.105 . S
Sc353 O355 2.025 . S
Sc353 O363 2.105 . S
Sc353 O367 2.105 . S
Sc353 O369 2.105 . S
Sc353 O373 2.105 . S
Sc354 O355 2.025 . S
Sc354 O364 2.105 . S
Sc354 O366 2.105 . S
Sc354 O370 2.105 1_655 S
Sc354 O372 2.105 . S
O355 Sc352 2.025 . S
O355 Sc353 2.025 . S
O355 Sc354 2.025 . S
C356 O362 1.268 . S
C356 O372 1.268 . S
C357 O363 1.268 . S
C357 O371 1.268 . S
C358 O364 1.268 . S
C358 O373 1.268 . S
C359 O365 1.268 . S
C359 O369 1.268 . S
C360 O366 1.268 . S
C360 O368 1.268 . S
C361 O367 1.268 1_455 S
C361 O370 1.268 . S
O362 Sc352 2.105 . S
O362 C356 1.268 . S
O363 Sc353 2.105 . S
O363 C357 1.268 . S
O364 Sc354 2.105 . S
O364 C358 1.268 . S
O365 Sc352 2.105 . S
O365 C359 1.268 . S
O366 Sc354 2.105 . S
O366 C360 1.268 . S
O367 Sc353 2.105 . S
O367 C361 1.268 1_655 S
O368 Sc352 2.105 . S
O368 C360 1.268 . S
O369 Sc353 2.105 . S
O369 C359 1.268 . S
O370 Sc354 2.105 1_455 S
O370 C361 1.268 . S
O371 Sc352 2.105 . S
O371 C357 1.268 . S
O372 Sc354 2.105 . S
O372 C356 1.268 . S
O373 Sc353 2.105 . S
O373 C358 1.268 . S
Sc374 O377 2.025 . S
Sc374 O384 2.105 . S
Sc374 O387 2.105 . S
Sc374 O390 2.105 . S
Sc374 O393 2.105 . S
Sc375 O377 2.025 . S
Sc375 O385 2.105 . S
Sc375 O389 2.105 . S
Sc375 O391 2.105 . S
Sc375 O395 2.105 . S
Sc376 O377 2.025 . S
Sc376 O386 2.105 . S
Sc376 O388 2.105 . S
Sc376 O392 2.105 . S
Sc376 O394 2.105 . S
O377 Sc374 2.025 . S
O377 Sc375 2.025 . S
O377 Sc376 2.025 . S
C378 O384 1.268 . S
C378 O394 1.268 . S
C379 O385 1.268 . S
C379 O393 1.268 . S
C380 O386 1.268 . S
C380 O395 1.268 . S
C381 O387 1.268 . S
C381 O391 1.268 . S
C382 O388 1.268 . S
C382 O390 1.268 . S
C383 O389 1.268 . S
C383 O392 1.268 . S
O384 Sc374 2.105 . S
O384 C378 1.268 . S
O385 Sc375 2.105 . S
O385 C379 1.268 . S
O386 Sc376 2.105 . S
O386 C380 1.268 . S
O387 Sc374 2.105 . S
O387 C381 1.268 . S
O388 Sc376 2.105 . S
O388 C382 1.268 . S
O389 Sc375 2.105 . S
O389 C383 1.268 . S
O390 Sc374 2.105 . S
O390 C382 1.268 . S
O391 Sc375 2.105 . S
O391 C381 1.268 . S
O392 Sc376 2.105 . S
O392 C383 1.268 . S
O393 Sc374 2.105 . S
O393 C379 1.268 . S
O394 Sc376 2.105 . S
O394 C378 1.268 . S
O395 Sc375 2.105 . S
O395 C380 1.268 . S
H396 C402 0.930 . S
H397 C405 0.930 . S
H398 C406 0.924 1_655 S
H399 C407 0.929 . S
H400 C410 0.930 . S
H401 C411 0.930 . S
C402 H396 0.930 . S
C402 C403 1.355 . S
C402 C404 1.415 . S
C403 C402 1.355 . S
C403 C405 1.419 . S
C404 C402 1.415 . S
C404 C409 1.425 . S
C404 C411 1.409 . S
C405 H397 0.930 . S
C405 C403 1.419 . S
C405 C406 1.362 . S
C406 H398 0.924 1_455 S
C406 C405 1.362 . S
C406 C409 1.409 . S
C407 H399 0.929 . S
C407 C408 1.355 . S
C407 C409 1.415 . S
C408 C407 1.355 . S
C408 C410 1.419 . S
C409 C404 1.425 . S
C409 C406 1.409 . S
C409 C407 1.415 . S
C410 H400 0.930 . S
C410 C408 1.419 . S
C410 C411 1.362 . S
C411 H401 0.930 . S
C411 C404 1.409 . S
C411 C410 1.362 . S
H412 C418 0.930 . S
H413 C421 0.930 . S
H414 C422 0.930 . S
H415 C423 0.930 . S
H416 C426 0.930 . S
H417 C427 0.930 . S
C418 H412 0.930 . S
C418 C419 1.355 . S
C418 C420 1.415 . S
C419 C418 1.355 . S
C419 C421 1.419 . S
C420 C418 1.415 . S
C420 C425 1.425 . S
C420 C427 1.409 . S
C421 H413 0.930 . S
C421 C419 1.419 . S
C421 C422 1.362 . S
C422 H414 0.930 . S
C422 C421 1.362 . S
C422 C425 1.409 . S
C423 H415 0.930 . S
C423 C424 1.355 . S
C423 C425 1.415 . S
C424 C423 1.355 . S
C424 C426 1.419 . S
C425 C420 1.425 . S
C425 C422 1.409 . S
C425 C423 1.415 . S
C426 H416 0.930 . S
C426 C424 1.419 . S
C426 C427 1.362 . S
C427 H417 0.930 . S
C427 C420 1.409 . S
C427 C426 1.362 . S
H428 C434 0.930 . S
H429 C437 0.930 . S
H430 C438 0.930 . S
H431 C439 0.930 . S
H432 C442 0.930 . S
H433 C443 0.930 . S
C434 H428 0.930 . S
C434 C435 1.355 . S
C434 C436 1.415 . S
C435 C434 1.355 . S
C435 C437 1.419 . S
C436 C434 1.415 . S
C436 C441 1.425 . S
C436 C443 1.409 . S
C437 H429 0.930 . S
C437 C435 1.419 . S
C437 C438 1.362 . S
C438 H430 0.930 . S
C438 C437 1.362 . S
C438 C441 1.409 . S
C439 H431 0.930 . S
C439 C440 1.355 . S
C439 C441 1.415 . S
C440 C439 1.355 . S
C440 C442 1.419 . S
C441 C436 1.425 . S
C441 C438 1.409 . S
C441 C439 1.415 . S
C442 H432 0.930 . S
C442 C440 1.419 . S
C442 C443 1.362 . S
C443 H433 0.930 . S
C443 C436 1.409 . S
C443 C442 1.362 . S
H444 C450 0.930 . S
H445 C453 0.930 . S
H446 C454 0.930 . S
H447 C455 0.930 . S
H448 C458 0.930 . S
H449 C459 0.930 . S
C450 H444 0.930 . S
C450 C451 1.355 . S
C450 C452 1.415 . S
C451 C450 1.355 . S
C451 C453 1.419 . S
C452 C450 1.415 . S
C452 C457 1.425 . S
C452 C459 1.409 . S
C453 H445 0.930 . S
C453 C451 1.419 . S
C453 C454 1.362 . S
C454 H446 0.930 . S
C454 C453 1.362 . S
C454 C457 1.409 . S
C455 H447 0.930 . S
C455 C456 1.355 . S
C455 C457 1.415 . S
C456 C455 1.355 . S
C456 C458 1.419 . S
C457 C452 1.425 . S
C457 C454 1.409 . S
C457 C455 1.415 . S
C458 H448 0.930 . S
C458 C456 1.419 . S
C458 C459 1.362 . S
C459 H449 0.930 . S
C459 C452 1.409 . S
C459 C458 1.362 . S
H460 C466 0.930 . S
H461 C469 0.930 . S
H462 C470 0.930 . S
H463 C471 0.930 . S
H464 C474 0.930 . S
H465 C475 0.930 . S
C466 H460 0.930 . S
C466 C467 1.355 . S
C466 C468 1.415 . S
C467 C466 1.355 . S
C467 C469 1.419 . S
C468 C466 1.415 . S
C468 C473 1.425 . S
C468 C475 1.409 . S
C469 H461 0.930 . S
C469 C467 1.419 . S
C469 C470 1.362 . S
C470 H462 0.930 . S
C470 C469 1.362 . S
C470 C473 1.409 . S
C471 H463 0.930 . S
C471 C472 1.355 . S
C471 C473 1.415 . S
C472 C471 1.355 . S
C472 C474 1.419 . S
C473 C468 1.425 . S
C473 C470 1.409 . S
C473 C471 1.415 . S
C474 H464 0.930 . S
C474 C472 1.419 . S
C474 C475 1.362 . S
C475 H465 0.930 . S
C475 C468 1.409 . S
C475 C474 1.362 . S
H476 C482 0.930 . S
H477 C485 0.930 . S
H478 C486 0.930 . S
H479 C487 0.930 . S
H480 C490 0.930 . S
H481 C491 0.930 . S
C482 H476 0.930 . S
C482 C483 1.355 . S
C482 C484 1.415 . S
C483 C482 1.355 . S
C483 C485 1.419 . S
C484 C482 1.415 . S
C484 C489 1.425 . S
C484 C491 1.409 . S
C485 H477 0.930 . S
C485 C483 1.419 . S
C485 C486 1.362 . S
C486 H478 0.930 . S
C486 C485 1.362 . S
C486 C489 1.409 . S
C487 H479 0.930 . S
C487 C488 1.355 . S
C487 C489 1.415 . S
C488 C487 1.355 . S
C488 C490 1.419 . S
C489 C484 1.425 . S
C489 C486 1.409 . S
C489 C487 1.415 . S
C490 H480 0.930 . S
C490 C488 1.419 . S
C490 C491 1.362 . S
C491 H481 0.930 . S
C491 C484 1.409 . S
C491 C490 1.362 . S
H492 C498 0.930 . S
H493 C501 0.930 . S
H494 C502 0.930 . S
H495 C503 0.930 . S
H496 C506 0.930 . S
H497 C507 0.930 . S
C498 H492 0.930 . S
C498 C499 1.355 . S
C498 C500 1.415 . S
C499 C498 1.355 . S
C499 C501 1.419 . S
C500 C498 1.415 . S
C500 C505 1.425 . S
C500 C507 1.409 . S
C501 H493 0.930 . S
C501 C499 1.419 . S
C501 C502 1.362 . S
C502 H494 0.930 . S
C502 C501 1.362 . S
C502 C505 1.409 . S
C503 H495 0.930 . S
C503 C504 1.355 . S
C503 C505 1.415 . S
C504 C503 1.355 . S
C504 C506 1.419 . S
C505 C500 1.425 . S
C505 C502 1.409 . S
C505 C503 1.415 . S
C506 H496 0.930 . S
C506 C504 1.419 . S
C506 C507 1.362 . S
C507 H497 0.930 . S
C507 C500 1.409 . S
C507 C506 1.362 . S
H508 C514 0.930 . S
H509 C517 0.930 . S
H510 C518 0.930 . S
H511 C519 0.930 . S
H512 C522 0.930 . S
H513 C523 0.930 . S
C514 H508 0.930 . S
C514 C515 1.355 . S
C514 C516 1.415 . S
C515 C514 1.355 . S
C515 C517 1.419 . S
C516 C514 1.415 . S
C516 C521 1.425 . S
C516 C523 1.409 . S
C517 H509 0.930 . S
C517 C515 1.419 . S
C517 C518 1.362 . S
C518 H510 0.930 . S
C518 C517 1.362 . S
C518 C521 1.409 . S
C519 H511 0.930 . S
C519 C520 1.355 . S
C519 C521 1.415 . S
C520 C519 1.355 . S
C520 C522 1.419 . S
C521 C516 1.425 . S
C521 C518 1.409 . S
C521 C519 1.415 . S
C522 H512 0.930 . S
C522 C520 1.419 . S
C522 C523 1.362 . S
C523 H513 0.930 . S
C523 C516 1.409 . S
C523 C522 1.362 . S
H524 C530 0.930 . S
H525 C533 0.930 . S
H526 C534 0.930 . S
H527 C535 0.930 . S
H528 C538 0.930 . S
H529 C539 0.930 . S
C530 H524 0.930 . S
C530 C531 1.355 . S
C530 C532 1.415 . S
C531 C530 1.355 . S
C531 C533 1.419 . S
C532 C530 1.415 . S
C532 C537 1.425 . S
C532 C539 1.409 . S
C533 H525 0.930 . S
C533 C531 1.419 . S
C533 C534 1.362 . S
C534 H526 0.930 . S
C534 C533 1.362 . S
C534 C537 1.409 . S
C535 H527 0.930 . S
C535 C536 1.355 . S
C535 C537 1.415 . S
C536 C535 1.355 . S
C536 C538 1.419 . S
C537 C532 1.425 . S
C537 C534 1.409 . S
C537 C535 1.415 . S
C538 H528 0.930 . S
C538 C536 1.419 . S
C538 C539 1.362 . S
C539 H529 0.930 . S
C539 C532 1.409 . S
C539 C538 1.362 . S
H540 C546 0.930 . S
H541 C549 0.930 . S
H542 C550 0.930 . S
H543 C551 0.930 . S
H544 C554 0.930 . S
H545 C555 0.930 . S
C546 H540 0.930 . S
C546 C547 1.355 . S
C546 C548 1.415 . S
C547 C546 1.355 . S
C547 C549 1.419 . S
C548 C546 1.415 . S
C548 C553 1.425 . S
C548 C555 1.409 . S
C549 H541 0.930 . S
C549 C547 1.419 . S
C549 C550 1.362 . S
C550 H542 0.930 . S
C550 C549 1.362 . S
C550 C553 1.409 . S
C551 H543 0.930 . S
C551 C552 1.355 . S
C551 C553 1.415 . S
C552 C551 1.355 . S
C552 C554 1.419 . S
C553 C548 1.425 . S
C553 C550 1.409 . S
C553 C551 1.415 . S
C554 H544 0.930 . S
C554 C552 1.419 . S
C554 C555 1.362 . S
C555 H545 0.930 . S
C555 C548 1.409 . S
C555 C554 1.362 . S
H556 C562 0.930 . S
H557 C565 0.930 1_655 S
H558 C566 0.930 . S
H559 C567 0.930 . S
H560 C570 0.930 . S
H561 C571 0.930 . S
C562 H556 0.930 . S
C562 C563 1.355 . S
C562 C564 1.415 . S
C563 C562 1.355 . S
C563 C565 1.419 . S
C564 C562 1.415 . S
C564 C569 1.425 . S
C564 C571 1.409 . S
C565 H557 0.930 1_455 S
C565 C563 1.419 . S
C565 C566 1.362 . S
C566 H558 0.930 . S
C566 C565 1.362 . S
C566 C569 1.409 . S
C567 H559 0.930 . S
C567 C568 1.355 . S
C567 C569 1.415 . S
C568 C567 1.355 . S
C568 C570 1.419 . S
C569 C564 1.425 . S
C569 C566 1.409 . S
C569 C567 1.415 . S
C570 H560 0.930 . S
C570 C568 1.419 . S
C570 C571 1.362 . S
C571 H561 0.930 . S
C571 C564 1.409 . S
C571 C570 1.362 . S
H572 C578 0.930 . S
H573 C581 0.930 . S
H574 C582 0.930 . S
H575 C583 0.930 . S
H576 C586 0.930 . S
H577 C587 0.930 . S
C578 H572 0.930 . S
C578 C579 1.355 . S
C578 C580 1.415 . S
C579 C578 1.355 . S
C579 C581 1.419 . S
C580 C578 1.415 . S
C580 C585 1.425 . S
C580 C587 1.409 . S
C581 H573 0.930 . S
C581 C579 1.419 . S
C581 C582 1.362 . S
C582 H574 0.930 . S
C582 C581 1.362 . S
C582 C585 1.409 . S
C583 H575 0.930 . S
C583 C584 1.355 . S
C583 C585 1.415 . S
C584 C583 1.355 . S
C584 C586 1.419 . S
C585 C580 1.425 . S
C585 C582 1.409 . S
C585 C583 1.415 . S
C586 H576 0.930 . S
C586 C584 1.419 . S
C586 C587 1.362 . S
C587 H577 0.930 . S
C587 C580 1.409 . S
C587 C586 1.362 . S
H588 C594 0.930 . S
H589 C597 0.930 . S
H590 C598 0.930 . S
H591 C599 0.930 . S
H592 C602 0.930 . S
H593 C603 0.930 . S
C594 H588 0.930 . S
C594 C595 1.355 . S
C594 C596 1.415 . S
C595 C594 1.355 . S
C595 C597 1.419 . S
C596 C594 1.415 . S
C596 C601 1.425 . S
C596 C603 1.409 . S
C597 H589 0.930 . S
C597 C595 1.419 . S
C597 C598 1.362 . S
C598 H590 0.930 . S
C598 C597 1.362 . S
C598 C601 1.409 . S
C599 H591 0.930 . S
C599 C600 1.355 . S
C599 C601 1.415 . S
C600 C599 1.355 . S
C600 C602 1.419 . S
C601 C596 1.425 . S
C601 C598 1.409 . S
C601 C599 1.415 . S
C602 H592 0.930 . S
C602 C600 1.419 . S
C602 C603 1.362 . S
C603 H593 0.930 . S
C603 C596 1.409 . S
C603 C602 1.362 . S
H604 C610 0.930 . S
H605 C613 0.937 . S
H606 C614 0.930 . S
H607 C615 0.930 . S
H608 C618 0.930 . S
H609 C619 0.930 . S
C610 H604 0.930 . S
C610 C611 1.355 . S
C610 C612 1.415 . S
C611 C610 1.355 . S
C611 C613 1.419 . S
C612 C610 1.415 . S
C612 C617 1.425 . S
C612 C619 1.409 . S
C613 H605 0.937 . S
C613 C611 1.419 . S
C613 C614 1.362 . S
C614 H606 0.930 . S
C614 C613 1.362 . S
C614 C617 1.409 . S
C615 H607 0.930 . S
C615 C616 1.355 . S
C615 C617 1.415 . S
C616 C615 1.355 . S
C616 C618 1.419 . S
C617 C612 1.425 . S
C617 C614 1.409 . S
C617 C615 1.415 . S
C618 H608 0.930 . S
C618 C616 1.419 . S
C618 C619 1.362 . S
C619 H609 0.930 . S
C619 C612 1.409 . S
C619 C618 1.362 . S
H620 C626 0.930 . S
H621 C629 0.930 . S
H622 C630 0.930 . S
H623 C631 0.930 . S
H624 C634 0.930 . S
H625 C635 0.930 . S
C626 H620 0.930 . S
C626 C627 1.355 . S
C626 C628 1.415 . S
C627 C626 1.355 . S
C627 C629 1.419 . S
C628 C626 1.415 . S
C628 C633 1.425 . S
C628 C635 1.409 . S
C629 H621 0.930 . S
C629 C627 1.419 . S
C629 C630 1.362 . S
C630 H622 0.930 . S
C630 C629 1.362 . S
C630 C633 1.409 . S
C631 H623 0.930 . S
C631 C632 1.355 . S
C631 C633 1.415 . S
C632 C631 1.355 . S
C632 C634 1.419 . S
C633 C628 1.425 . S
C633 C630 1.409 . S
C633 C631 1.415 . S
C634 H624 0.930 . S
C634 C632 1.419 . S
C634 C635 1.362 . S
C635 H625 0.930 . S
C635 C628 1.409 . S
C635 C634 1.362 . S
H636 C642 0.930 . S
H637 C645 0.930 . S
H638 C646 0.930 . S
H639 C647 0.930 . S
H640 C650 0.930 . S
H641 C651 0.930 . S
C642 H636 0.930 . S
C642 C643 1.355 . S
C642 C644 1.415 . S
C643 C642 1.355 . S
C643 C645 1.419 . S
C644 C642 1.415 . S
C644 C649 1.425 . S
C644 C651 1.409 . S
C645 H637 0.930 . S
C645 C643 1.419 . S
C645 C646 1.362 . S
C646 H638 0.930 . S
C646 C645 1.362 . S
C646 C649 1.409 . S
C647 H639 0.930 . S
C647 C648 1.355 . S
C647 C649 1.415 . S
C648 C647 1.355 . S
C648 C650 1.419 . S
C649 C644 1.425 . S
C649 C646 1.409 . S
C649 C647 1.415 . S
C650 H640 0.930 . S
C650 C648 1.419 . S
C650 C651 1.362 . S
C651 H641 0.930 . S
C651 C644 1.409 . S
C651 C650 1.362 . S
H652 C658 0.930 . S
H653 C661 0.930 . S
H654 C662 0.930 . S
H655 C663 0.930 . S
H656 C666 0.930 . S
H657 C667 0.930 . S
C658 H652 0.930 . S
C658 C659 1.355 . S
C658 C660 1.415 . S
C659 C658 1.355 . S
C659 C661 1.419 . S
C660 C658 1.415 . S
C660 C665 1.425 . S
C660 C667 1.409 . S
C661 H653 0.930 . S
C661 C659 1.419 . S
C661 C662 1.362 . S
C662 H654 0.930 . S
C662 C661 1.362 . S
C662 C665 1.409 . S
C663 H655 0.930 . S
C663 C664 1.355 . S
C663 C665 1.415 . S
C664 C663 1.355 . S
C664 C666 1.419 . S
C665 C660 1.425 . S
C665 C662 1.409 . S
C665 C663 1.415 . S
C666 H656 0.930 . S
C666 C664 1.419 . S
C666 C667 1.362 . S
C667 H657 0.930 . S
C667 C660 1.409 . S
C667 C666 1.362 . S
H668 C674 0.930 . S
H669 C677 0.930 . S
H670 C678 0.930 . S
H671 C679 0.930 . S
H672 C682 0.930 . S
H673 C683 0.930 . S
C674 H668 0.930 . S
C674 C675 1.355 . S
C674 C676 1.415 . S
C675 C674 1.355 . S
C675 C677 1.419 . S
C676 C674 1.415 . S
C676 C681 1.425 . S
C676 C683 1.409 . S
C677 H669 0.930 . S
C677 C675 1.419 . S
C677 C678 1.362 . S
C678 H670 0.930 . S
C678 C677 1.362 . S
C678 C681 1.409 . S
C679 H671 0.930 . S
C679 C680 1.355 . S
C679 C681 1.415 . S
C680 C679 1.355 . S
C680 C682 1.419 . S
C681 C676 1.425 . S
C681 C678 1.409 . S
C681 C679 1.415 . S
C682 H672 0.930 . S
C682 C680 1.419 . S
C682 C683 1.362 . S
C683 H673 0.930 . S
C683 C676 1.409 . S
C683 C682 1.362 . S
H684 C690 0.930 . S
H685 C693 0.930 . S
H686 C694 0.930 . S
H687 C695 0.930 . S
H688 C698 0.930 . S
H689 C699 0.930 . S
C690 H684 0.930 . S
C690 C691 1.355 . S
C690 C692 1.415 . S
C691 C690 1.355 . S
C691 C693 1.419 . S
C692 C690 1.415 . S
C692 C697 1.425 . S
C692 C699 1.409 . S
C693 H685 0.930 . S
C693 C691 1.419 . S
C693 C694 1.362 . S
C694 H686 0.930 . S
C694 C693 1.362 . S
C694 C697 1.409 . S
C695 H687 0.930 . S
C695 C696 1.355 . S
C695 C697 1.415 . S
C696 C695 1.355 . S
C696 C698 1.419 . S
C697 C692 1.425 . S
C697 C694 1.409 . S
C697 C695 1.415 . S
C698 H688 0.930 . S
C698 C696 1.419 . S
C698 C699 1.362 . S
C699 H689 0.930 . S
C699 C692 1.409 . S
C699 C698 1.362 . S
H700 C706 0.930 . S
H701 C709 0.930 . S
H702 C710 0.930 . S
H703 C711 0.930 . S
H704 C714 0.930 . S
H705 C715 0.930 . S
C706 H700 0.930 . S
C706 C707 1.355 . S
C706 C708 1.415 . S
C707 C706 1.355 . S
C707 C709 1.419 . S
C708 C706 1.415 . S
C708 C713 1.425 . S
C708 C715 1.409 . S
C709 H701 0.930 . S
C709 C707 1.419 . S
C709 C710 1.362 . S
C710 H702 0.930 . S
C710 C709 1.362 . S
C710 C713 1.409 . S
C711 H703 0.930 . S
C711 C712 1.355 . S
C711 C713 1.415 . S
C712 C711 1.355 . S
C712 C714 1.419 . S
C713 C708 1.425 . S
C713 C710 1.409 . S
C713 C711 1.415 . S
C714 H704 0.930 . S
C714 C712 1.419 . S
C714 C715 1.362 . S
C715 H705 0.930 . S
C715 C708 1.409 . S
C715 C714 1.362 . S
H716 C722 0.930 . S
H717 C725 0.930 . S
H718 C726 0.930 . S
H719 C727 0.930 . S
H720 C730 0.930 . S
H721 C731 0.930 . S
C722 H716 0.930 . S
C722 C723 1.355 . S
C722 C724 1.415 . S
C723 C722 1.355 . S
C723 C725 1.419 . S
C724 C722 1.415 . S
C724 C729 1.425 . S
C724 C731 1.409 . S
C725 H717 0.930 . S
C725 C723 1.419 . S
C725 C726 1.362 . S
C726 H718 0.930 . S
C726 C725 1.362 . S
C726 C729 1.409 . S
C727 H719 0.930 . S
C727 C728 1.355 . S
C727 C729 1.415 . S
C728 C727 1.355 . S
C728 C730 1.419 . S
C729 C724 1.425 . S
C729 C726 1.409 . S
C729 C727 1.415 . S
C730 H720 0.930 . S
C730 C728 1.419 . S
C730 C731 1.362 . S
C731 H721 0.930 . S
C731 C724 1.409 . S
C731 C730 1.362 . S
H732 C738 0.930 . S
H733 C741 0.930 . S
H734 C742 0.930 . S
H735 C743 0.930 1_554 S
H736 C746 0.930 . S
H737 C747 0.930 . S
C738 H732 0.930 . S
C738 C739 1.355 1_556 S
C738 C740 1.415 . S
C739 C738 1.355 1_554 S
C739 C741 1.419 . S
C740 C738 1.415 . S
C740 C745 1.440 . S
C740 C747 1.409 . S
C741 H733 0.930 . S
C741 C739 1.419 . S
C741 C742 1.362 . S
C742 H734 0.930 . S
C742 C741 1.362 . S
C742 C745 1.388 1_554 S
C743 H735 0.930 1_556 S
C743 C744 1.355 . S
C743 C745 1.422 . S
C744 C743 1.355 . S
C744 C746 1.419 . S
C745 C740 1.440 . S
C745 C742 1.388 1_556 S
C745 C743 1.422 . S
C746 H736 0.930 . S
C746 C744 1.419 . S
C746 C747 1.362 . S
C747 H737 0.930 . S
C747 C740 1.409 . S
C747 C746 1.362 . S
H748 C754 0.930 . S
H749 C757 0.930 . S
H750 C758 0.930 . S
H751 C759 0.930 . S
H752 C762 0.930 1_544 S
H753 C763 0.930 . S
C754 H748 0.930 . S
C754 C755 1.355 . S
C754 C756 1.415 . S
C755 C754 1.355 . S
C755 C757 1.419 1_554 S
C756 C754 1.415 . S
C756 C761 1.425 1_554 S
C756 C763 1.409 . S
C757 H749 0.930 . S
C757 C755 1.419 1_556 S
C757 C758 1.362 . S
C758 H750 0.930 . S
C758 C757 1.362 . S
C758 C761 1.409 . S
C759 H751 0.930 . S
C759 C760 1.355 . S
C759 C761 1.415 . S
C760 C759 1.355 . S
C760 C762 1.419 . S
C761 C756 1.425 1_556 S
C761 C758 1.409 . S
C761 C759 1.415 . S
C762 H752 0.930 1_566 S
C762 C760 1.419 . S
C762 C763 1.362 1_556 S
C763 H753 0.930 . S
C763 C756 1.409 . S
C763 C762 1.362 1_554 S
H764 C770 0.930 . S
H765 C773 0.930 . S
H766 C774 0.930 . S
H767 C775 0.930 . S
H768 C778 0.930 . S
H769 C779 0.930 . S
C770 H764 0.930 . S
C770 C771 1.355 . S
C770 C772 1.415 1_554 S
C771 C770 1.355 . S
C771 C773 1.419 . S
C772 C770 1.415 1_556 S
C772 C777 1.425 . S
C772 C779 1.409 . S
C773 H765 0.930 . S
C773 C771 1.419 . S
C773 C774 1.362 1_554 S
C774 H766 0.930 . S
C774 C773 1.362 1_556 S
C774 C777 1.409 . S
C775 H767 0.930 . S
C775 C776 1.355 . S
C775 C777 1.415 . S
C776 C775 1.355 . S
C776 C778 1.419 . S
C777 C772 1.425 . S
C777 C774 1.409 . S
C777 C775 1.415 . S
C778 H768 0.930 . S
C778 C776 1.419 . S
C778 C779 1.362 . S
C779 H769 0.930 . S
C779 C772 1.409 . S
C779 C778 1.362 . S
H780 C786 0.930 . S
H781 C789 0.930 . S
H782 C790 0.930 . S
H783 C791 0.930 . S
H784 C794 0.930 . S
H785 C795 0.930 . S
C786 H780 0.930 . S
C786 C787 1.355 . S
C786 C788 1.415 . S
C787 C786 1.355 . S
C787 C789 1.419 . S
C788 C786 1.415 . S
C788 C793 1.425 . S
C788 C795 1.409 . S
C789 H781 0.930 . S
C789 C787 1.419 . S
C789 C790 1.362 . S
C790 H782 0.930 . S
C790 C789 1.362 . S
C790 C793 1.409 . S
C791 H783 0.930 . S
C791 C792 1.355 . S
C791 C793 1.415 . S
C792 C791 1.355 . S
C792 C794 1.419 . S
C793 C788 1.425 . S
C793 C790 1.409 . S
C793 C791 1.415 . S
C794 H784 0.930 . S
C794 C792 1.419 . S
C794 C795 1.362 . S
C795 H785 0.930 . S
C795 C788 1.409 . S
C795 C794 1.362 . S
H796 C802 0.930 . S
H797 C805 0.930 . S
H798 C806 0.930 . S
H799 C807 0.930 . S
H800 C810 0.930 . S
H801 C811 0.930 . S
C802 H796 0.930 . S
C802 C803 1.355 . S
C802 C804 1.415 . S
C803 C802 1.355 . S
C803 C805 1.419 . S
C804 C802 1.415 . S
C804 C809 1.425 . S
C804 C811 1.409 . S
C805 H797 0.930 . S
C805 C803 1.419 . S
C805 C806 1.362 . S
C806 H798 0.930 . S
C806 C805 1.362 . S
C806 C809 1.409 . S
C807 H799 0.930 . S
C807 C808 1.355 . S
C807 C809 1.415 . S
C808 C807 1.355 . S
C808 C810 1.419 . S
C809 C804 1.425 . S
C809 C806 1.409 . S
C809 C807 1.415 . S
C810 H800 0.930 . S
C810 C808 1.419 . S
C810 C811 1.362 . S
C811 H801 0.930 . S
C811 C804 1.409 . S
C811 C810 1.362 . S
H812 C818 0.930 . S
H813 C821 0.930 . S
H814 C822 0.930 . S
H815 C823 0.930 . S
H816 C826 0.930 . S
H817 C827 0.930 . S
C818 H812 0.930 . S
C818 C819 1.355 . S
C818 C820 1.415 . S
C819 C818 1.355 . S
C819 C821 1.419 . S
C820 C818 1.415 . S
C820 C825 1.425 . S
C820 C827 1.409 . S
C821 H813 0.930 . S
C821 C819 1.419 . S
C821 C822 1.362 . S
C822 H814 0.930 . S
C822 C821 1.362 . S
C822 C825 1.409 . S
C823 H815 0.930 . S
C823 C824 1.355 . S
C823 C825 1.415 . S
C824 C823 1.355 . S
C824 C826 1.419 . S
C825 C820 1.425 . S
C825 C822 1.409 . S
C825 C823 1.415 . S
C826 H816 0.930 . S
C826 C824 1.419 . S
C826 C827 1.362 . S
C827 H817 0.930 . S
C827 C820 1.409 . S
C827 C826 1.362 . S
H828 C834 0.930 . S
H829 C837 0.930 . S
H830 C838 0.930 . S
H831 C839 0.930 . S
H832 C842 0.930 . S
H833 C843 0.930 . S
C834 H828 0.930 . S
C834 C835 1.355 1_554 S
C834 C836 1.415 . S
C835 C834 1.355 1_556 S
C835 C837 1.419 . S
C836 C834 1.415 . S
C836 C841 1.425 . S
C836 C843 1.409 . S
C837 H829 0.930 . S
C837 C835 1.419 . S
C837 C838 1.362 . S
C838 H830 0.930 . S
C838 C837 1.362 . S
C838 C841 1.409 1_556 S
C839 H831 0.930 . S
C839 C840 1.355 . S
C839 C841 1.415 . S
C840 C839 1.355 . S
C840 C842 1.419 . S
C841 C836 1.425 . S
C841 C838 1.409 1_554 S
C841 C839 1.415 . S
C842 H832 0.930 . S
C842 C840 1.419 . S
C842 C843 1.362 . S
C843 H833 0.930 . S
C843 C836 1.409 . S
C843 C842 1.362 . S
H844 C850 0.930 . S
H845 C853 0.930 . S
H846 C854 0.930 . S
H847 C855 0.930 . S
H848 C858 0.935 1_556 S
H849 C859 0.930 . S
C850 H844 0.930 . S
C850 C851 1.355 . S
C850 C852 1.415 . S
C851 C850 1.355 . S
C851 C853 1.419 1_556 S
C852 C850 1.415 . S
C852 C857 1.425 1_556 S
C852 C859 1.409 . S
C853 H845 0.930 . S
C853 C851 1.419 1_554 S
C853 C854 1.362 . S
C854 H846 0.930 . S
C854 C853 1.362 . S
C854 C857 1.409 . S
C855 H847 0.930 . S
C855 C856 1.355 . S
C855 C857 1.415 . S
C856 C855 1.355 . S
C856 C858 1.419 . S
C857 C852 1.425 1_554 S
C857 C854 1.409 . S
C857 C855 1.415 . S
C858 H848 0.935 1_554 S
C858 C856 1.419 . S
C858 C859 1.362 1_554 S
C859 H849 0.930 . S
C859 C852 1.409 . S
C859 C858 1.362 1_556 S
H860 C866 0.930 . S
H861 C869 0.930 . S
H862 C870 0.930 . S
H863 C871 0.930 . S
H864 C874 0.930 . S
H865 C875 0.930 . S
C866 H860 0.930 . S
C866 C867 1.355 1_554 S
C866 C868 1.415 . S
C867 C866 1.355 1_556 S
C867 C869 1.419 . S
C868 C866 1.415 . S
C868 C873 1.425 . S
C868 C875 1.409 . S
C869 H861 0.930 . S
C869 C867 1.419 . S
C869 C870 1.362 . S
C870 H862 0.930 . S
C870 C869 1.362 . S
C870 C873 1.409 1_556 S
C871 H863 0.930 . S
C871 C872 1.355 . S
C871 C873 1.415 . S
C872 C871 1.355 . S
C872 C874 1.419 . S
C873 C868 1.425 . S
C873 C870 1.409 1_554 S
C873 C871 1.415 . S
C874 H864 0.930 . S
C874 C872 1.419 . S
C874 C875 1.362 . S
C875 H865 0.930 . S
C875 C868 1.409 . S
C875 C874 1.362 . S
H876 C882 0.930 . S
H877 C885 0.930 . S
H878 C886 0.930 . S
H879 C887 0.930 . S
H880 C890 0.930 . S
H881 C891 0.930 . S
C882 H876 0.930 . S
C882 C883 1.355 . S
C882 C884 1.415 . S
C883 C882 1.355 . S
C883 C885 1.419 . S
C884 C882 1.415 . S
C884 C889 1.425 . S
C884 C891 1.409 . S
C885 H877 0.930 . S
C885 C883 1.419 . S
C885 C886 1.362 . S
C886 H878 0.930 . S
C886 C885 1.362 . S
C886 C889 1.409 . S
C887 H879 0.930 . S
C887 C888 1.355 . S
C887 C889 1.415 . S
C888 C887 1.355 . S
C888 C890 1.419 . S
C889 C884 1.425 . S
C889 C886 1.409 . S
C889 C887 1.415 . S
C890 H880 0.930 . S
C890 C888 1.419 . S
C890 C891 1.362 . S
C891 H881 0.930 . S
C891 C884 1.409 . S
C891 C890 1.362 . S
H892 C898 0.930 . S
H893 C901 0.930 . S
H894 C902 0.930 . S
H895 C903 0.930 . S
H896 C906 0.954 . S
H897 C907 0.930 . S
C898 H892 0.930 . S
C898 C899 1.355 . S
C898 C900 1.415 . S
C899 C898 1.355 . S
C899 C901 1.419 . S
C900 C898 1.415 . S
C900 C905 1.425 . S
C900 C907 1.409 . S
C901 H893 0.930 . S
C901 C899 1.419 . S
C901 C902 1.362 . S
C902 H894 0.930 . S
C902 C901 1.362 . S
C902 C905 1.409 . S
C903 H895 0.930 . S
C903 C904 1.355 . S
C903 C905 1.415 . S
C904 C903 1.355 . S
C904 C906 1.419 . S
C905 C900 1.425 . S
C905 C902 1.409 . S
C905 C903 1.415 . S
C906 H896 0.954 . S
C906 C904 1.419 . S
C906 C907 1.362 . S
C907 H897 0.930 . S
C907 C900 1.409 . S
C907 C906 1.362 . S
H908 C914 0.930 . S
H909 C917 0.930 1_455 S
H910 C918 0.930 . S
H911 C919 0.930 . S
H912 C922 0.930 . S
H913 C923 0.930 . S
C914 H908 0.930 . S
C914 C915 1.355 . S
C914 C916 1.415 . S
C915 C914 1.355 . S
C915 C917 1.419 . S
C916 C914 1.415 . S
C916 C921 1.425 . S
C916 C923 1.409 . S
C917 H909 0.930 1_655 S
C917 C915 1.419 . S
C917 C918 1.362 . S
C918 H910 0.930 . S
C918 C917 1.362 . S
C918 C921 1.409 . S
C919 H911 0.930 . S
C919 C920 1.355 . S
C919 C921 1.415 . S
C920 C919 1.355 . S
C920 C922 1.419 . S
C921 C916 1.425 . S
C921 C918 1.409 . S
C921 C919 1.415 . S
C922 H912 0.930 . S
C922 C920 1.419 . S
C922 C923 1.362 . S
C923 H913 0.930 . S
C923 C916 1.409 . S
C923 C922 1.362 . S
H924 C930 0.930 . S
H925 C933 0.930 . S
H926 C934 0.930 . S
H927 C935 0.930 . S
H928 C938 0.930 . S
H929 C939 0.930 . S
C930 H924 0.930 . S
C930 C931 1.355 . S
C930 C932 1.415 . S
C931 C930 1.355 . S
C931 C933 1.419 . S
C932 C930 1.415 . S
C932 C937 1.425 . S
C932 C939 1.409 . S
C933 H925 0.930 . S
C933 C931 1.419 . S
C933 C934 1.362 . S
C934 H926 0.930 . S
C934 C933 1.362 . S
C934 C937 1.409 . S
C935 H927 0.930 . S
C935 C936 1.355 . S
C935 C937 1.415 . S
C936 C935 1.355 . S
C936 C938 1.419 . S
C937 C932 1.425 . S
C937 C934 1.409 . S
C937 C935 1.415 . S
C938 H928 0.930 . S
C938 C936 1.419 . S
C938 C939 1.362 . S
C939 H929 0.930 . S
C939 C932 1.409 . S
C939 C938 1.362 . S
H940 C946 0.930 . S
H941 C949 0.930 . S
H942 C950 0.930 . S
H943 C951 0.930 . S
H944 C954 0.930 . S
H945 C955 0.930 . S
C946 H940 0.930 . S
C946 C947 1.355 . S
C946 C948 1.415 . S
C947 C946 1.355 . S
C947 C949 1.419 . S
C948 C946 1.415 . S
C948 C953 1.425 . S
C948 C955 1.409 . S
C949 H941 0.930 . S
C949 C947 1.419 . S
C949 C950 1.362 . S
C950 H942 0.930 . S
C950 C949 1.362 . S
C950 C953 1.409 . S
C951 H943 0.930 . S
C951 C952 1.355 . S
C951 C953 1.415 . S
C952 C951 1.355 . S
C952 C954 1.419 . S
C953 C948 1.425 . S
C953 C950 1.409 . S
C953 C951 1.415 . S
C954 H944 0.930 . S
C954 C952 1.419 . S
C954 C955 1.362 . S
C955 H945 0.930 . S
C955 C948 1.409 . S
C955 C954 1.362 . S
H956 C962 0.930 . S
H957 C965 0.930 . S
H958 C966 0.930 . S
H959 C967 0.930 . S
H960 C970 0.930 . S
H961 C971 0.930 . S
C962 H956 0.930 . S
C962 C963 1.355 . S
C962 C964 1.415 . S
C963 C962 1.355 . S
C963 C965 1.419 . S
C964 C962 1.415 . S
C964 C969 1.425 . S
C964 C971 1.409 . S
C965 H957 0.930 . S
C965 C963 1.419 . S
C965 C966 1.362 . S
C966 H958 0.930 . S
C966 C965 1.362 . S
C966 C969 1.409 . S
C967 H959 0.930 . S
C967 C968 1.355 . S
C967 C969 1.415 . S
C968 C967 1.355 . S
C968 C970 1.419 . S
C969 C964 1.425 . S
C969 C966 1.409 . S
C969 C967 1.415 . S
C970 H960 0.930 . S
C970 C968 1.419 . S
C970 C971 1.362 . S
C971 H961 0.930 . S
C971 C964 1.409 . S
C971 C970 1.362 . S
H972 C978 0.930 . S
H973 C981 0.930 . S
H974 C982 0.930 1_655 S
H975 C983 0.930 . S
H976 C986 0.930 . S
H977 C987 0.930 . S
C978 H972 0.930 . S
C978 C979 1.355 . S
C978 C980 1.415 . S
C979 C978 1.355 . S
C979 C981 1.419 . S
C980 C978 1.415 . S
C980 C985 1.425 . S
C980 C987 1.409 . S
C981 H973 0.930 . S
C981 C979 1.419 . S
C981 C982 1.362 . S
C982 H974 0.930 1_455 S
C982 C981 1.362 . S
C982 C985 1.409 . S
C983 H975 0.930 . S
C983 C984 1.355 . S
C983 C985 1.415 . S
C984 C983 1.355 . S
C984 C986 1.419 . S
C985 C980 1.425 . S
C985 C982 1.409 . S
C985 C983 1.415 . S
C986 H976 0.930 . S
C986 C984 1.419 . S
C986 C987 1.362 . S
C987 H977 0.930 . S
C987 C980 1.409 . S
C987 C986 1.362 . S
H988 C994 0.930 . S
H989 C997 0.930 . S
H990 C998 0.930 . S
H991 C999 0.930 . S
H992 C1002 0.930 . S
H993 C1003 0.930 . S
C994 H988 0.930 . S
C994 C995 1.355 . S
C994 C996 1.415 . S
C995 C994 1.355 . S
C995 C997 1.419 . S
C996 C994 1.415 . S
C996 C1001 1.425 . S
C996 C1003 1.409 . S
C997 H989 0.930 . S
C997 C995 1.419 . S
C997 C998 1.362 . S
C998 H990 0.930 . S
C998 C997 1.362 . S
C998 C1001 1.409 . S
C999 H991 0.930 . S
C999 C1000 1.355 . S
C999 C1001 1.415 . S
C1000 C999 1.355 . S
C1000 C1002 1.419 . S
C1001 C996 1.425 . S
C1001 C998 1.409 . S
C1001 C999 1.415 . S
C1002 H992 0.930 . S
C1002 C1000 1.419 . S
C1002 C1003 1.362 . S
C1003 H993 0.930 . S
C1003 C996 1.409 . S
C1003 C1002 1.362 . S
H1004 C1010 0.930 1_545 S
H1005 C1013 0.930 . S
H1006 C1014 0.930 . S
H1007 C1015 0.930 . S
H1008 C1018 0.930 . S
H1009 C1019 0.930 . S
C1010 H1004 0.930 1_565 S
C1010 C1011 1.355 . S
C1010 C1012 1.415 . S
C1011 C1010 1.355 . S
C1011 C1013 1.419 . S
C1012 C1010 1.415 . S
C1012 C1017 1.425 . S
C1012 C1019 1.409 1_565 S
C1013 H1005 0.930 . S
C1013 C1011 1.419 . S
C1013 C1014 1.362 . S
C1014 H1006 0.930 . S
C1014 C1013 1.362 . S
C1014 C1017 1.409 . S
C1015 H1007 0.930 . S
C1015 C1016 1.355 . S
C1015 C1017 1.415 . S
C1016 C1015 1.355 . S
C1016 C1018 1.419 1_565 S
C1017 C1012 1.425 . S
C1017 C1014 1.409 . S
C1017 C1015 1.415 . S
C1018 H1008 0.930 . S
C1018 C1016 1.419 1_545 S
C1018 C1019 1.362 . S
C1019 H1009 0.930 . S
C1019 C1012 1.409 1_545 S
C1019 C1018 1.362 . S
H1020 C1026 0.930 . S
H1021 C1029 0.930 . S
H1022 C1030 0.930 . S
H1023 C1031 0.930 . S
H1024 C1034 0.930 1_565 S
H1025 C1035 0.930 1_565 S
C1026 H1020 0.930 . S
C1026 C1027 1.355 . S
C1026 C1028 1.415 . S
C1027 C1026 1.355 . S
C1027 C1029 1.419 . S
C1028 C1026 1.415 . S
C1028 C1033 1.425 . S
C1028 C1035 1.409 . S
C1029 H1021 0.930 . S
C1029 C1027 1.419 . S
C1029 C1030 1.362 . S
C1030 H1022 0.930 . S
C1030 C1029 1.362 . S
C1030 C1033 1.409 . S
C1031 H1023 0.930 . S
C1031 C1032 1.355 . S
C1031 C1033 1.415 . S
C1032 C1031 1.355 . S
C1032 C1034 1.419 . S
C1033 C1028 1.425 . S
C1033 C1030 1.409 . S
C1033 C1031 1.415 . S
C1034 H1024 0.930 1_545 S
C1034 C1032 1.419 . S
C1034 C1035 1.362 . S
C1035 H1025 0.930 1_545 S
C1035 C1028 1.409 . S
C1035 C1034 1.362 . S
H1036 C1042 0.930 1_455 S
H1037 C1045 0.930 . S
H1038 C1046 0.930 . S
H1039 C1047 0.930 . S
H1040 C1050 0.930 . S
H1041 C1051 0.930 1_455 S
C1042 H1036 0.930 1_655 S
C1042 C1043 1.355 . S
C1042 C1044 1.415 . S
C1043 C1042 1.355 . S
C1043 C1045 1.419 . S
C1044 C1042 1.415 . S
C1044 C1049 1.425 . S
C1044 C1051 1.409 . S
C1045 H1037 0.930 . S
C1045 C1043 1.419 . S
C1045 C1046 1.362 . S
C1046 H1038 0.930 . S
C1046 C1045 1.362 . S
C1046 C1049 1.409 . S
C1047 H1039 0.930 . S
C1047 C1048 1.355 . S
C1047 C1049 1.415 . S
C1048 C1047 1.355 . S
C1048 C1050 1.419 . S
C1049 C1044 1.425 . S
C1049 C1046 1.409 . S
C1049 C1047 1.415 . S
C1050 H1040 0.930 . S
C1050 C1048 1.419 . S
C1050 C1051 1.362 . S
C1051 H1041 0.930 1_655 S
C1051 C1044 1.409 . S
C1051 C1050 1.362 . S
H1052 C1058 0.930 . S
H1053 C1061 0.930 . S
H1054 C1062 0.930 . S
H1055 C1063 0.930 . S
H1056 C1066 0.930 . S
H1057 C1067 0.930 . S
C1058 H1052 0.930 . S
C1058 C1059 1.355 . S
C1058 C1060 1.415 . S
C1059 C1058 1.355 . S
C1059 C1061 1.419 . S
C1060 C1058 1.415 . S
C1060 C1065 1.425 . S
C1060 C1067 1.409 . S
C1061 H1053 0.930 . S
C1061 C1059 1.419 . S
C1061 C1062 1.362 . S
C1062 H1054 0.930 . S
C1062 C1061 1.362 . S
C1062 C1065 1.409 . S
C1063 H1055 0.930 . S
C1063 C1064 1.355 . S
C1063 C1065 1.415 . S
C1064 C1063 1.355 . S
C1064 C1066 1.419 . S
C1065 C1060 1.425 . S
C1065 C1062 1.409 . S
C1065 C1063 1.415 . S
C1066 H1056 0.930 . S
C1066 C1064 1.419 . S
C1066 C1067 1.362 . S
C1067 H1057 0.930 . S
C1067 C1060 1.409 . S
C1067 C1066 1.362 . S
H1068 C1074 0.930 1_455 S
H1069 C1077 0.930 . S
H1070 C1078 0.930 . S
H1071 C1079 0.930 . S
H1072 C1082 0.930 1_455 S
H1073 C1083 0.930 . S
C1074 H1068 0.930 1_655 S
C1074 C1075 1.355 . S
C1074 C1076 1.415 . S
C1075 C1074 1.355 . S
C1075 C1077 1.419 . S
C1076 C1074 1.415 . S
C1076 C1081 1.425 . S
C1076 C1083 1.409 1_655 S
C1077 H1069 0.930 . S
C1077 C1075 1.419 . S
C1077 C1078 1.362 . S
C1078 H1070 0.930 . S
C1078 C1077 1.362 . S
C1078 C1081 1.409 . S
C1079 H1071 0.930 . S
C1079 C1080 1.355 . S
C1079 C1081 1.415 . S
C1080 C1079 1.355 . S
C1080 C1082 1.419 . S
C1081 C1076 1.425 . S
C1081 C1078 1.409 . S
C1081 C1079 1.415 . S
C1082 H1072 0.930 1_655 S
C1082 C1080 1.419 . S
C1082 C1083 1.362 1_655 S
C1083 H1073 0.930 . S
C1083 C1076 1.409 1_455 S
C1083 C1082 1.362 1_455 S
H1084 C1090 0.930 . S
H1085 C1093 0.930 . S
H1086 C1094 0.930 . S
H1087 C1095 0.930 . S
H1088 C1098 0.930 . S
H1089 C1099 0.930 . S
C1090 H1084 0.930 . S
C1090 C1091 1.355 . S
C1090 C1092 1.415 . S
C1091 C1090 1.355 . S
C1091 C1093 1.419 . S
C1092 C1090 1.415 . S
C1092 C1097 1.425 . S
C1092 C1099 1.409 . S
C1093 H1085 0.930 . S
C1093 C1091 1.419 . S
C1093 C1094 1.362 . S
C1094 H1086 0.930 . S
C1094 C1093 1.362 . S
C1094 C1097 1.409 . S
C1095 H1087 0.930 . S
C1095 C1096 1.355 . S
C1095 C1097 1.415 . S
C1096 C1095 1.355 . S
C1096 C1098 1.419 . S
C1097 C1092 1.425 . S
C1097 C1094 1.409 . S
C1097 C1095 1.415 . S
C1098 H1088 0.930 . S
C1098 C1096 1.419 . S
C1098 C1099 1.362 . S
C1099 H1089 0.930 . S
C1099 C1092 1.409 . S
C1099 C1098 1.362 . S
H1100 C1106 0.930 . S
H1101 C1109 0.930 . S
H1102 C1110 0.930 . S
H1103 C1111 0.930 . S
H1104 C1114 0.930 . S
H1105 C1115 0.930 . S
C1106 H1100 0.930 . S
C1106 C1107 1.355 . S
C1106 C1108 1.415 . S
C1107 C1106 1.355 . S
C1107 C1109 1.419 . S
C1108 C1106 1.415 . S
C1108 C1113 1.425 . S
C1108 C1115 1.409 . S
C1109 H1101 0.930 . S
C1109 C1107 1.419 . S
C1109 C1110 1.362 . S
C1110 H1102 0.930 . S
C1110 C1109 1.362 . S
C1110 C1113 1.409 . S
C1111 H1103 0.930 . S
C1111 C1112 1.355 . S
C1111 C1113 1.415 . S
C1112 C1111 1.355 . S
C1112 C1114 1.419 . S
C1113 C1108 1.425 . S
C1113 C1110 1.409 . S
C1113 C1111 1.415 . S
C1114 H1104 0.930 . S
C1114 C1112 1.419 . S
C1114 C1115 1.362 . S
C1115 H1105 0.930 . S
C1115 C1108 1.409 . S
C1115 C1114 1.362 . S
H1116 C1122 0.930 1_545 S
H1117 C1125 0.930 . S
H1118 C1126 0.930 . S
H1119 C1127 0.930 . S
H1120 C1130 0.930 1_545 S
H1121 C1131 0.930 . S
C1122 H1116 0.930 1_565 S
C1122 C1123 1.355 . S
C1122 C1124 1.415 . S
C1123 C1122 1.355 . S
C1123 C1125 1.419 . S
C1124 C1122 1.415 . S
C1124 C1129 1.425 . S
C1124 C1131 1.409 1_565 S
C1125 H1117 0.930 . S
C1125 C1123 1.419 . S
C1125 C1126 1.362 . S
C1126 H1118 0.930 . S
C1126 C1125 1.362 . S
C1126 C1129 1.409 . S
C1127 H1119 0.930 . S
C1127 C1128 1.355 . S
C1127 C1129 1.415 . S
C1128 C1127 1.355 . S
C1128 C1130 1.419 . S
C1129 C1124 1.425 . S
C1129 C1126 1.409 . S
C1129 C1127 1.415 . S
C1130 H1120 0.930 1_565 S
C1130 C1128 1.419 . S
C1130 C1131 1.362 1_565 S
C1131 H1121 0.930 . S
C1131 C1124 1.409 1_545 S
C1131 C1130 1.362 1_545 S
H1132 C1138 0.930 . S
H1133 C1141 0.930 . S
H1134 C1142 0.930 . S
H1135 C1143 0.930 . S
H1136 C1146 0.930 1_655 S
H1137 C1147 0.930 1_655 S
C1138 H1132 0.930 . S
C1138 C1139 1.355 . S
C1138 C1140 1.415 . S
C1139 C1138 1.355 . S
C1139 C1141 1.419 . S
C1140 C1138 1.415 . S
C1140 C1145 1.425 . S
C1140 C1147 1.409 . S
C1141 H1133 0.930 . S
C1141 C1139 1.419 . S
C1141 C1142 1.362 . S
C1142 H1134 0.930 . S
C1142 C1141 1.362 . S
C1142 C1145 1.409 . S
C1143 H1135 0.930 . S
C1143 C1144 1.355 . S
C1143 C1145 1.415 . S
C1144 C1143 1.355 . S
C1144 C1146 1.419 . S
C1145 C1140 1.425 . S
C1145 C1142 1.409 . S
C1145 C1143 1.415 . S
C1146 H1136 0.930 1_455 S
C1146 C1144 1.419 . S
C1146 C1147 1.362 . S
C1147 H1137 0.930 1_455 S
C1147 C1140 1.409 . S
C1147 C1146 1.362 . S
H1148 C1154 0.930 . S
H1149 C1157 0.930 . S
H1150 C1158 0.930 . S
H1151 C1159 0.930 . S
H1152 C1162 0.930 . S
H1153 C1163 0.930 . S
C1154 H1148 0.930 . S
C1154 C1155 1.355 . S
C1154 C1156 1.415 . S
C1155 C1154 1.355 . S
C1155 C1157 1.419 . S
C1156 C1154 1.415 . S
C1156 C1161 1.425 . S
C1156 C1163 1.409 . S
C1157 H1149 0.930 . S
C1157 C1155 1.419 . S
C1157 C1158 1.362 . S
C1158 H1150 0.930 . S
C1158 C1157 1.362 . S
C1158 C1161 1.409 . S
C1159 H1151 0.930 . S
C1159 C1160 1.355 . S
C1159 C1161 1.415 . S
C1160 C1159 1.355 . S
C1160 C1162 1.419 . S
C1161 C1156 1.425 . S
C1161 C1158 1.409 . S
C1161 C1159 1.415 . S
C1162 H1152 0.930 . S
C1162 C1160 1.419 . S
C1162 C1163 1.362 . S
C1163 H1153 0.930 . S
C1163 C1156 1.409 . S
C1163 C1162 1.362 . S
H1164 C1170 0.930 . S
H1165 C1173 0.930 . S
H1166 C1174 0.930 . S
H1167 C1175 0.930 . S
H1168 C1178 0.930 . S
H1169 C1179 0.930 . S
C1170 H1164 0.930 . S
C1170 C1171 1.355 1_545 S
C1170 C1172 1.415 . S
C1171 C1170 1.355 1_565 S
C1171 C1173 1.419 . S
C1172 C1170 1.415 . S
C1172 C1177 1.425 1_545 S
C1172 C1179 1.409 . S
C1173 H1165 0.930 . S
C1173 C1171 1.419 . S
C1173 C1174 1.362 . S
C1174 H1166 0.930 . S
C1174 C1173 1.362 . S
C1174 C1177 1.409 . S
C1175 H1167 0.930 . S
C1175 C1176 1.355 1_565 S
C1175 C1177 1.415 . S
C1176 C1175 1.355 1_545 S
C1176 C1178 1.419 . S
C1177 C1172 1.425 1_565 S
C1177 C1174 1.409 . S
C1177 C1175 1.415 . S
C1178 H1168 0.930 . S
C1178 C1176 1.419 . S
C1178 C1179 1.362 . S
C1179 H1169 0.930 . S
C1179 C1172 1.409 . S
C1179 C1178 1.362 . S
H1180 C1186 0.930 1_655 S
H1181 C1189 0.930 . S
H1182 C1190 0.930 . S
H1183 C1191 0.930 . S
H1184 C1194 0.930 . S
H1185 C1195 0.930 . S
C1186 H1180 0.930 1_455 S
C1186 C1187 1.355 . S
C1186 C1188 1.415 1_455 S
C1187 C1186 1.355 . S
C1187 C1189 1.419 . S
C1188 C1186 1.415 1_655 S
C1188 C1193 1.425 1_655 S
C1188 C1195 1.409 . S
C1189 H1181 0.930 . S
C1189 C1187 1.419 . S
C1189 C1190 1.362 . S
C1190 H1182 0.930 . S
C1190 C1189 1.362 . S
C1190 C1193 1.409 . S
C1191 H1183 0.930 . S
C1191 C1192 1.355 1_455 S
C1191 C1193 1.415 . S
C1192 C1191 1.355 1_655 S
C1192 C1194 1.419 . S
C1193 C1188 1.425 1_455 S
C1193 C1190 1.409 . S
C1193 C1191 1.415 . S
C1194 H1184 0.930 . S
C1194 C1192 1.419 . S
C1194 C1195 1.362 . S
C1195 H1185 0.930 . S
C1195 C1188 1.409 . S
C1195 C1194 1.362 . S
H1196 C1202 0.930 . S
H1197 C1205 0.930 . S
H1198 C1206 0.930 . S
H1199 C1207 0.930 . S
H1200 C1210 0.930 . S
H1201 C1211 0.930 . S
C1202 H1196 0.930 . S
C1202 C1203 1.355 . S
C1202 C1204 1.415 . S
C1203 C1202 1.355 . S
C1203 C1205 1.419 . S
C1204 C1202 1.415 . S
C1204 C1209 1.425 . S
C1204 C1211 1.409 . S
C1205 H1197 0.930 . S
C1205 C1203 1.419 . S
C1205 C1206 1.362 . S
C1206 H1198 0.930 . S
C1206 C1205 1.362 . S
C1206 C1209 1.409 . S
C1207 H1199 0.930 . S
C1207 C1208 1.355 . S
C1207 C1209 1.415 . S
C1208 C1207 1.355 . S
C1208 C1210 1.419 . S
C1209 C1204 1.425 . S
C1209 C1206 1.409 . S
C1209 C1207 1.415 . S
C1210 H1200 0.930 . S
C1210 C1208 1.419 . S
C1210 C1211 1.362 . S
C1211 H1201 0.930 . S
C1211 C1204 1.409 . S
C1211 C1210 1.362 . S
H1212 C1218 0.930 . S
H1213 C1221 0.930 . S
H1214 C1222 0.930 . S
H1215 C1223 0.930 . S
H1216 C1226 0.930 . S
H1217 C1227 0.930 . S
C1218 H1212 0.930 . S
C1218 C1219 1.355 . S
C1218 C1220 1.415 . S
C1219 C1218 1.355 . S
C1219 C1221 1.419 1_455 S
C1220 C1218 1.415 . S
C1220 C1225 1.425 1_455 S
C1220 C1227 1.409 . S
C1221 H1213 0.930 . S
C1221 C1219 1.419 1_655 S
C1221 C1222 1.362 . S
C1222 H1214 0.930 . S
C1222 C1221 1.362 . S
C1222 C1225 1.409 . S
C1223 H1215 0.930 . S
C1223 C1224 1.355 . S
C1223 C1225 1.415 . S
C1224 C1223 1.355 . S
C1224 C1226 1.419 1_655 S
C1225 C1220 1.425 1_655 S
C1225 C1222 1.409 . S
C1225 C1223 1.415 . S
C1226 H1216 0.930 . S
C1226 C1224 1.419 1_455 S
C1226 C1227 1.362 . S
C1227 H1217 0.930 . S
C1227 C1220 1.409 . S
C1227 C1226 1.362 . S
H1228 C1234 0.930 . S
H1229 C1237 0.930 . S
H1230 C1238 0.930 . S
H1231 C1239 0.930 . S
H1232 C1242 0.930 . S
H1233 C1243 0.930 . S
C1234 H1228 0.930 . S
C1234 C1235 1.355 . S
C1234 C1236 1.415 . S
C1235 C1234 1.355 . S
C1235 C1237 1.419 . S
C1236 C1234 1.415 . S
C1236 C1241 1.425 . S
C1236 C1243 1.409 . S
C1237 H1229 0.930 . S
C1237 C1235 1.419 . S
C1237 C1238 1.362 . S
C1238 H1230 0.930 . S
C1238 C1237 1.362 . S
C1238 C1241 1.409 . S
C1239 H1231 0.930 . S
C1239 C1240 1.355 . S
C1239 C1241 1.415 . S
C1240 C1239 1.355 . S
C1240 C1242 1.419 . S
C1241 C1236 1.425 . S
C1241 C1238 1.409 . S
C1241 C1239 1.415 . S
C1242 H1232 0.930 . S
C1242 C1240 1.419 . S
C1242 C1243 1.362 . S
C1243 H1233 0.930 . S
C1243 C1236 1.409 . S
C1243 C1242 1.362 . S
H1244 C1250 0.930 . S
H1245 C1253 0.930 . S
H1246 C1254 0.930 . S
H1247 C1255 0.930 . S
H1248 C1258 0.930 . S
H1249 C1259 0.930 . S
C1250 H1244 0.930 . S
C1250 C1251 1.355 . S
C1250 C1252 1.415 . S
C1251 C1250 1.355 . S
C1251 C1253 1.419 1_545 S
C1252 C1250 1.415 . S
C1252 C1257 1.425 1_545 S
C1252 C1259 1.409 . S
C1253 H1245 0.930 . S
C1253 C1251 1.419 1_565 S
C1253 C1254 1.362 . S
C1254 H1246 0.930 . S
C1254 C1253 1.362 . S
C1254 C1257 1.409 . S
C1255 H1247 0.930 . S
C1255 C1256 1.355 . S
C1255 C1257 1.415 . S
C1256 C1255 1.355 . S
C1256 C1258 1.419 1_565 S
C1257 C1252 1.425 1_565 S
C1257 C1254 1.409 . S
C1257 C1255 1.415 . S
C1258 H1248 0.930 . S
C1258 C1256 1.419 1_545 S
C1258 C1259 1.362 . S
C1259 H1249 0.930 . S
C1259 C1252 1.409 . S
C1259 C1258 1.362 . S
C403 C251 1.201 . S
C408 C6 1.247 . S
C419 C27 1.279 . S
C424 C207 1.242 . S
C435 C49 1.275 . S
C440 C229 1.231 . S
C451 C335 1.204 . S
C456 C51 1.207 . S
C467 C9 1.202 . S
C472 C356 1.229 . S
C483 C29 1.255 . S
C488 C378 1.206 . S
C499 C314 1.240 . S
C504 C75 1.205 . S
C515 C95 1.270 . S
C520 C268 1.275 . S
C531 C117 1.213 . S
C536 C292 1.199 . S
C547 C139 1.254 . S
C552 C115 1.281 . S
C563 C72 1.204 . S
C568 C161 1.238 . S
C579 C183 1.220 . S
C584 C93 1.201 . S
C595 C383 1.271 . S
C600 C138 1.275 . S
C611 C338 1.269 1_565 S
C616 C160 1.228 . S
C627 C361 1.235 . S
C632 C182 1.203 . S
C643 C71 1.252 . S
C648 C185 1.281 . S
C659 C92 1.216 . S
C664 C141 1.266 . S
C675 C163 1.224 . S
C680 C114 1.266 . S
C691 C50 1.272 . S
C696 C205 1.274 . S
C707 C4 1.278 . S
C712 C227 1.247 . S
C723 C249 1.201 . S
C728 C28 1.227 . S
C739 C247 1.202 . S
C744 C271 1.214 . S
C755 C203 1.273 . S
C760 C294 1.272 1_565 S
C771 C225 1.262 . S
C776 C316 1.212 . S
C787 C270 1.220 . S
C792 C119 1.196 . S
C803 C291 1.217 . S
C808 C74 1.259 . S
C819 C313 1.210 . S
C824 C97 1.250 . S
C835 C315 1.220 . S
C840 C202 1.196 . S
C851 C273 1.279 . S
C856 C224 1.265 . S
C867 C293 1.208 . S
C872 C246 1.204 1_655 S
C883 C339 1.242 . S
C888 C180 1.199 . S
C899 C359 1.259 . S
C904 C136 1.279 . S
C915 C158 1.255 1_655 S
C920 C381 1.281 . S
C931 C7 1.265 . S
C936 C379 1.223 . S
C947 C30 1.207 . S
C952 C336 1.257 . S
C963 C357 1.258 . S
C968 C52 1.279 . S
C979 C159 1.462 . S
C984 C8 1.453 . S
C995 C181 1.466 . S
C1000 C31 1.460 . S
C1011 C137 1.455 . S
C1016 C53 1.464 . S
C1027 C295 1.456 1_554 S
C1032 C48 1.464 . S
C1043 C5 1.464 . S
C1048 C317 1.464 1_554 S
C1059 C26 1.462 . S
C1064 C272 1.465 1_554 S
C1075 C70 1.454 . S
C1080 C360 1.463 . S
C1091 C94 1.463 . S
C1096 C382 1.465 . S
C1107 C116 1.462 . S
C1112 C337 1.465 . S
C1123 C118 1.457 . S
C1128 C226 1.465 1_556 S
C1139 C248 1.453 1_556 S
C1144 C73 1.461 . S
C1155 C96 1.460 . S
C1160 C204 1.466 1_556 S
C1171 C140 1.454 . S
C1176 C290 1.453 . S
C1187 C162 1.457 . S
C1192 C312 1.452 . S
C1203 C184 1.463 . S
C1208 C269 1.465 . S
C1219 C250 1.460 . S
C1224 C358 1.466 . S
C1235 C380 1.461 . S
C1240 C206 1.453 . S
C1251 C334 1.463 . S
C1256 C228 1.465 . S
