# Generated by pormake.
# Topology wlb, (5)-cn, num edge types: 1
# Building blocks:
#     Node 0, Type 0, BuildingBlock: BEQFEK_clean_sbu_0, # of connection points: 5
#     Node 1, Type 0, BuildingBlock: BEQFEK_clean_sbu_0, # of connection points: 5
#     Node 2, Type 0, BuildingBlock: BEQFEK_clean_sbu_0, # of connection points: 5
#     Node 3, Type 0, BuildingBlock: BEQFEK_clean_sbu_0, # of connection points: 5
#     Node 4, Type 0, BuildingBlock: BEQFEK_clean_sbu_0, # of connection points: 5
#     Node 5, Type 0, BuildingBlock: BEQFEK_clean_sbu_0, # of connection points: 5
#     Node 6, Type 0, BuildingBlock: BEQFEK_clean_sbu_0, # of connection points: 5
#     Node 7, Type 0, BuildingBlock: BEQFEK_clean_sbu_0, # of connection points: 5
#     Node 8, Type 0, BuildingBlock: BEQFEK_clean_sbu_0, # of connection points: 5
#     Node 9, Type 0, BuildingBlock: BEQFEK_clean_sbu_0, # of connection points: 5
#     Node 10, Type 0, BuildingBlock: BEQFEK_clean_sbu_0, # of connection points: 5
#     Node 11, Type 0, BuildingBlock: BEQFEK_clean_sbu_0, # of connection points: 5
#     Node 12, Type 0, BuildingBlock: BEQFEK_clean_sbu_0, # of connection points: 5
#     Node 13, Type 0, BuildingBlock: BEQFEK_clean_sbu_0, # of connection points: 5
#     Node 14, Type 0, BuildingBlock: BEQFEK_clean_sbu_0, # of connection points: 5
#     Node 15, Type 0, BuildingBlock: BEQFEK_clean_sbu_0, # of connection points: 5
#     Node 16, Type 0, BuildingBlock: BEQFEK_clean_sbu_0, # of connection points: 5
#     Node 17, Type 0, BuildingBlock: BEQFEK_clean_sbu_0, # of connection points: 5
#     Edge 18, Type (0, 0), BuildingBlock: ZUJKAS_clean_linker_0, # of connection points: 2
#     Edge 19, Type (0, 0), BuildingBlock: ZUJKAS_clean_linker_0, # of connection points: 2
#     Edge 20, Type (0, 0), BuildingBlock: ZUJKAS_clean_linker_0, # of connection points: 2
#     Edge 21, Type (0, 0), BuildingBlock: ZUJKAS_clean_linker_0, # of connection points: 2
#     Edge 22, Type (0, 0), BuildingBlock: ZUJKAS_clean_linker_0, # of connection points: 2
#     Edge 23, Type (0, 0), BuildingBlock: ZUJKAS_clean_linker_0, # of connection points: 2
#     Edge 24, Type (0, 0), BuildingBlock: ZUJKAS_clean_linker_0, # of connection points: 2
#     Edge 25, Type (0, 0), BuildingBlock: ZUJKAS_clean_linker_0, # of connection points: 2
#     Edge 26, Type (0, 0), BuildingBlock: ZUJKAS_clean_linker_0, # of connection points: 2
#     Edge 27, Type (0, 0), BuildingBlock: ZUJKAS_clean_linker_0, # of connection points: 2
#     Edge 28, Type (0, 0), BuildingBlock: ZUJKAS_clean_linker_0, # of connection points: 2
#     Edge 29, Type (0, 0), BuildingBlock: ZUJKAS_clean_linker_0, # of connection points: 2
#     Edge 30, Type (0, 0), BuildingBlock: ZUJKAS_clean_linker_0, # of connection points: 2
#     Edge 31, Type (0, 0), BuildingBlock: ZUJKAS_clean_linker_0, # of connection points: 2
#     Edge 32, Type (0, 0), BuildingBlock: ZUJKAS_clean_linker_0, # of connection points: 2
#     Edge 33, Type (0, 0), BuildingBlock: ZUJKAS_clean_linker_0, # of connection points: 2
#     Edge 34, Type (0, 0), BuildingBlock: ZUJKAS_clean_linker_0, # of connection points: 2
#     Edge 35, Type (0, 0), BuildingBlock: ZUJKAS_clean_linker_0, # of connection points: 2
#     Edge 36, Type (0, 0), BuildingBlock: ZUJKAS_clean_linker_0, # of connection points: 2
#     Edge 37, Type (0, 0), BuildingBlock: ZUJKAS_clean_linker_0, # of connection points: 2
#     Edge 38, Type (0, 0), BuildingBlock: ZUJKAS_clean_linker_0, # of connection points: 2
#     Edge 39, Type (0, 0), BuildingBlock: ZUJKAS_clean_linker_0, # of connection points: 2
#     Edge 40, Type (0, 0), BuildingBlock: ZUJKAS_clean_linker_0, # of connection points: 2
#     Edge 41, Type (0, 0), BuildingBlock: ZUJKAS_clean_linker_0, # of connection points: 2
#     Edge 42, Type (0, 0), BuildingBlock: ZUJKAS_clean_linker_0, # of connection points: 2
#     Edge 43, Type (0, 0), BuildingBlock: ZUJKAS_clean_linker_0, # of connection points: 2
#     Edge 44, Type (0, 0), BuildingBlock: ZUJKAS_clean_linker_0, # of connection points: 2
#     Edge 45, Type (0, 0), BuildingBlock: ZUJKAS_clean_linker_0, # of connection points: 2
#     Edge 46, Type (0, 0), BuildingBlock: ZUJKAS_clean_linker_0, # of connection points: 2
#     Edge 47, Type (0, 0), BuildingBlock: ZUJKAS_clean_linker_0, # of connection points: 2
#     Edge 48, Type (0, 0), BuildingBlock: ZUJKAS_clean_linker_0, # of connection points: 2
#     Edge 49, Type (0, 0), BuildingBlock: ZUJKAS_clean_linker_0, # of connection points: 2
#     Edge 50, Type (0, 0), BuildingBlock: ZUJKAS_clean_linker_0, # of connection points: 2
#     Edge 51, Type (0, 0), BuildingBlock: ZUJKAS_clean_linker_0, # of connection points: 2
#     Edge 52, Type (0, 0), BuildingBlock: ZUJKAS_clean_linker_0, # of connection points: 2
#     Edge 53, Type (0, 0), BuildingBlock: ZUJKAS_clean_linker_0, # of connection points: 2
#     Edge 54, Type (0, 0), BuildingBlock: ZUJKAS_clean_linker_0, # of connection points: 2
#     Edge 55, Type (0, 0), BuildingBlock: ZUJKAS_clean_linker_0, # of connection points: 2
#     Edge 56, Type (0, 0), BuildingBlock: ZUJKAS_clean_linker_0, # of connection points: 2
#     Edge 57, Type (0, 0), BuildingBlock: ZUJKAS_clean_linker_0, # of connection points: 2
#     Edge 58, Type (0, 0), BuildingBlock: ZUJKAS_clean_linker_0, # of connection points: 2
#     Edge 59, Type (0, 0), BuildingBlock: ZUJKAS_clean_linker_0, # of connection points: 2
#     Edge 60, Type (0, 0), BuildingBlock: ZUJKAS_clean_linker_0, # of connection points: 2
#     Edge 61, Type (0, 0), BuildingBlock: ZUJKAS_clean_linker_0, # of connection points: 2
#     Edge 62, Type (0, 0), BuildingBlock: ZUJKAS_clean_linker_0, # of connection points: 2
# Relax obj value: 0.364
# Max RMSD: 0.213
# Mean RMSD: 0.213
data_MOF--net-wlb--node1-BEQFEK_clean_sbu_0--edge1-ZUJKAS_clean_linker_0
_symmetry_space_group_name_H-M    P1
_symmetry_Int_Tables_number       1
_symmetry_cell_setting            triclinic
loop_
_symmetry_equiv_pos_as_xyz
'x, y, z'
_cell_length_a     66.07732
_cell_length_b     66.124373
_cell_length_c     49.141307
_cell_angle_alpha  89.983969
_cell_angle_beta   90.025541
_cell_angle_gamma 120.02993
loop_
_atom_site_label
_atom_site_type_symbol
_atom_site_fract_x
_atom_site_fract_y
_atom_site_fract_z
_atom_type_partial_charge
Co0 Co 0.0662 0.18437 0.19879 0.0
Co1 Co 0.0386 0.21089 0.20211 0.0
C2 C 0.05129 0.19731 0.148 0.0
O3 O 0.06294 0.18866 0.15857 0.0
O4 O 0.04192 0.20604 0.16298 0.0
C5 C 0.09951 0.16795 0.18993 0.0
O6 O 0.10541 0.18003 0.1672 0.0
C7 C 0.04044 0.25448 0.19241 0.0
C8 C 0.00841 0.25011 0.21204 0.0
C9 C 0.02833 0.26596 0.19804 0.0
N10 N 0.02859 0.23299 0.20314 0.0
N11 N 0.0094 0.23035 0.2148 0.0
C12 C 0.06248 0.26341 0.17619 0.0
H13 H 0.06667 0.24941 0.17238 0.0
H14 H 0.0773 0.27768 0.1874 0.0
H15 H 0.06066 0.2707 0.15658 0.0
C16 C 0.09782 0.22299 0.23711 0.0
N17 N 0.07926 0.21243 0.2201 0.0
N18 N 0.06667 0.22264 0.22258 0.0
C19 C 0.07639 0.23959 0.24162 0.0
C20 C 0.09661 0.24057 0.25145 0.0
C21 C 0.11499 0.21482 0.24139 0.0
H22 H 0.10573 0.19683 0.24979 0.0
H23 H 0.12258 0.21414 0.2215 0.0
H24 H 0.12917 0.22639 0.25557 0.0
O25 O 0.03401 0.16174 0.21185 0.0
O26 O 0.01414 0.18047 0.2162 0.0
H27 H 0.0469 0.24337 0.25216 0.0
H28 H 0.07316 0.26297 0.27036 0.0
C29 C 0.06617 0.25427 0.25061 0.0
H30 H 0.07056 0.26826 0.23548 0.0
H31 H 0.99709 0.21515 0.22468 0.0
O32 O 0.08412 0.16815 0.20521 0.0
C33 C 0.01528 0.16185 0.21786 0.0
Co34 Co 0.81056 0.87987 0.20241 0.0
Co35 Co 0.78637 0.82639 0.21278 0.0
C36 C 0.79918 0.84811 0.15565 0.0
O37 O 0.80595 0.86897 0.16346 0.0
O38 O 0.79175 0.83144 0.1728 0.0
C39 C 0.82774 0.92892 0.18743 0.0
O40 O 0.81822 0.92143 0.16338 0.0
C41 C 0.74315 0.78286 0.20908 0.0
C42 C 0.74789 0.7602 0.23835 0.0
C43 C 0.73141 0.76125 0.22179 0.0
N44 N 0.76515 0.79429 0.2185 0.0
N45 N 0.76805 0.78061 0.23573 0.0
C46 C 0.73389 0.7929 0.18847 0.0
H47 H 0.74829 0.80665 0.17631 0.0
H48 H 0.72494 0.80105 0.19905 0.0
H49 H 0.72126 0.77905 0.17464 0.0
C50 C 0.77033 0.87403 0.23702 0.0
N51 N 0.7825 0.8657 0.22353 0.0
N52 N 0.77334 0.84337 0.22905 0.0
C53 C 0.7555 0.83692 0.24671 0.0
C54 C 0.75255 0.85588 0.25188 0.0
C55 C 0.77595 0.89889 0.23603 0.0
H56 H 0.7795 0.90525 0.2147 0.0
H57 H 0.76146 0.90087 0.24448 0.0
H58 H 0.79204 0.90977 0.24806 0.0
O59 O 0.83432 0.8726 0.21779 0.0
O60 O 0.81689 0.83497 0.22846 0.0
H61 H 0.75557 0.80724 0.26453 0.0
H62 H 0.73733 0.81607 0.28188 0.0
C63 C 0.74348 0.81407 0.26158 0.0
H64 H 0.72798 0.80132 0.24985 0.0
H65 H 0.78345 0.78555 0.24648 0.0
O66 O 0.82574 0.91427 0.20547 0.0
C67 C 0.83514 0.85505 0.22726 0.0
Co68 Co 0.11618 0.92985 0.20306 0.0
Co69 Co 0.17012 0.95798 0.2107 0.0
C70 C 0.14672 0.94738 0.15458 0.0
O71 O 0.12596 0.93482 0.16373 0.0
O72 O 0.16415 0.95661 0.17073 0.0
C73 C 0.06643 0.89741 0.1911 0.0
O74 O 0.07282 0.89285 0.16765 0.0
C75 C 0.21352 0.95776 0.20638 0.0
C76 C 0.23607 0.98453 0.23633 0.0
C77 C 0.23498 0.96714 0.2195 0.0
N78 N 0.20223 0.96843 0.21593 0.0
N79 N 0.21589 0.98467 0.2335 0.0
C80 C 0.20341 0.93876 0.18542 0.0
H81 H 0.19521 0.9215 0.19567 0.0
H82 H 0.21723 0.94021 0.17139 0.0
H83 H 0.1897 0.93959 0.17343 0.0
C84 C 0.12172 0.89581 0.23853 0.0
N85 N 0.13027 0.91596 0.22424 0.0
N86 N 0.15289 0.92859 0.22857 0.0
C87 C 0.15933 0.91713 0.24616 0.0
C88 C 0.14 0.89582 0.25264 0.0
C89 C 0.09655 0.87717 0.23885 0.0
H90 H 0.08632 0.88376 0.2498 0.0
H91 H 0.08986 0.87309 0.21768 0.0
H92 H 0.09406 0.8611 0.24903 0.0
O93 O 0.12456 0.96133 0.21744 0.0
O94 O 0.16271 0.98124 0.22537 0.0
H95 H 0.19037 0.94629 0.26258 0.0
H96 H 0.18157 0.91908 0.27955 0.0
C97 C 0.18283 0.9273 0.25945 0.0
H98 H 0.19462 0.92403 0.24651 0.0
H99 H 0.21102 0.99507 0.24446 0.0
O100 O 0.08187 0.91157 0.20751 0.0
C101 C 0.14279 0.97984 0.2254 0.0
Co102 Co 0.18638 0.06488 0.83594 0.0
Co103 Co 0.20975 0.03497 0.82513 0.0
C104 C 0.19772 0.04372 0.88245 0.0
O105 O 0.19069 0.0575 0.87434 0.0
O106 O 0.20529 0.03447 0.8655 0.0
C107 C 0.15123 0.07459 0.84625 0.0
O108 O 0.14384 0.05468 0.85912 0.0
C109 C 0.25256 0.0339 0.82655 0.0
C110 C 0.24682 0.00692 0.79614 0.0
C111 C 0.26384 0.02426 0.81239 0.0
N112 N 0.23029 0.0235 0.81813 0.0
N113 N 0.22677 0.0071 0.80029 0.0
C114 C 0.26257 0.05296 0.84744 0.0
H115 H 0.27036 0.07018 0.83716 0.0
H116 H 0.27631 0.05214 0.85959 0.0
H117 H 0.24872 0.05158 0.86126 0.0
C118 C 0.22656 0.09919 0.80132 0.0
N119 N 0.21434 0.0787 0.81483 0.0
N120 N 0.22316 0.06528 0.809 0.0
C121 C 0.2408 0.07652 0.79102 0.0
C122 C 0.244 0.09857 0.78605 0.0
C123 C 0.22114 0.11856 0.80245 0.0
H124 H 0.21592 0.12024 0.82342 0.0
H125 H 0.23638 0.13535 0.79585 0.0
H126 H 0.20618 0.1143 0.78872 0.0
O127 O 0.1624 0.03479 0.81929 0.0
O128 O 0.17885 0.01354 0.80959 0.0
H129 H 0.25791 0.07354 0.75503 0.0
H130 H 0.26784 0.0679 0.78648 0.0
C131 C 0.25215 0.06539 0.7754 0.0
H132 H 0.23975 0.04654 0.77251 0.0
H133 H 0.21105 0.99687 0.78999 0.0
O134 O 0.17134 0.08425 0.83528 0.0
C135 C 0.16107 0.0162 0.8099 0.0
Co136 Co 0.92221 0.11041 0.83647 0.0
Co137 Co 0.9566 0.16201 0.82092 0.0
C138 C 0.94749 0.14571 0.87994 0.0
O139 O 0.93216 0.12481 0.87357 0.0
O140 O 0.95749 0.16132 0.86163 0.0
C141 C 0.90412 0.0637 0.85185 0.0
O142 O 0.92343 0.07338 0.86634 0.0
C143 C 0.96777 0.20982 0.81641 0.0
C144 C 0.9911 0.22204 0.78052 0.0
C145 C 0.97871 0.22812 0.79821 0.0
N146 N 0.97294 0.19336 0.80934 0.0
N147 N 0.98743 0.20097 0.78841 0.0
C148 C 0.94974 0.20621 0.83727 0.0
H149 H 0.93863 0.18738 0.84213 0.0
H150 H 0.93865 0.21333 0.83 0.0
H151 H 0.9587 0.21563 0.85616 0.0
C152 C 0.89039 0.11861 0.80024 0.0
N153 N 0.91085 0.12591 0.81348 0.0
N154 N 0.9258 0.14739 0.80587 0.0
C155 C 0.91549 0.15417 0.78702 0.0
C156 C 0.89268 0.13636 0.78307 0.0
C157 C 0.86971 0.09457 0.80255 0.0
H158 H 0.8739 0.08198 0.79277 0.0
H159 H 0.86595 0.0897 0.82434 0.0
H160 H 0.85409 0.09341 0.79255 0.0
O161 O 0.95008 0.11074 0.8203 0.0
O162 O 0.97405 0.14726 0.80761 0.0
H163 H 0.94524 0.18062 0.76553 0.0
H164 H 0.91772 0.17595 0.75276 0.0
C165 C 0.92747 0.17665 0.77144 0.0
H166 H 0.92862 0.19092 0.7843 0.0
H167 H 0.99335 0.19106 0.77823 0.0
O168 O 0.89874 0.0768 0.83852 0.0
C169 C 0.96926 0.12618 0.80976 0.0
Co170 Co 0.87811 0.81029 0.83512 0.0
Co171 Co 0.82414 0.78399 0.82675 0.0
C172 C 0.84621 0.79814 0.88285 0.0
O173 O 0.86705 0.80587 0.87424 0.0
O174 O 0.82902 0.78949 0.8664 0.0
C175 C 0.92516 0.84392 0.84623 0.0
O176 O 0.91508 0.85241 0.86191 0.0
C177 C 0.77796 0.74379 0.83376 0.0
C178 C 0.76049 0.74355 0.79528 0.0
C179 C 0.75818 0.73031 0.81817 0.0
N180 N 0.79193 0.76341 0.81991 0.0
N181 N 0.78114 0.76353 0.79731 0.0
C182 C 0.784 0.73819 0.86108 0.0
H183 H 0.79108 0.7538 0.87432 0.0
H184 H 0.79766 0.73325 0.85865 0.0
H185 H 0.7685 0.72394 0.8714 0.0
C186 C 0.87353 0.77226 0.79781 0.0
N187 N 0.86438 0.78237 0.81378 0.0
N188 N 0.84153 0.77096 0.81102 0.0
C189 C 0.8354 0.75291 0.79376 0.0
C190 C 0.85539 0.75329 0.78435 0.0
C191 C 0.89917 0.78215 0.79344 0.0
H192 H 0.9069 0.80031 0.78575 0.0
H193 H 0.90764 0.7829 0.81321 0.0
H194 H 0.90277 0.77161 0.77875 0.0
O195 O 0.871 0.83368 0.8191 0.0
O196 O 0.83287 0.81472 0.8108 0.0
H197 H 0.80302 0.74365 0.7741 0.0
H198 H 0.80975 0.72039 0.7747 0.0
C199 C 0.81078 0.73521 0.78639 0.0
H200 H 0.8005 0.72789 0.80517 0.0
H201 H 0.78852 0.77653 0.78247 0.0
O202 O 0.91249 0.82496 0.83353 0.0
C203 C 0.85269 0.83339 0.8104 0.0
Co204 Co 0.73466 0.52145 0.53202 0.0
Co205 Co 0.70457 0.54476 0.54224 0.0
C206 C 0.71397 0.53411 0.48522 0.0
O207 O 0.72719 0.52644 0.49359 0.0
O208 O 0.70469 0.54177 0.50199 0.0
C209 C 0.74853 0.48925 0.51847 0.0
O210 O 0.72963 0.48141 0.50342 0.0
C211 C 0.69529 0.58264 0.53745 0.0
C212 C 0.67759 0.58097 0.57629 0.0
C213 C 0.68721 0.59439 0.5532 0.0
N214 N 0.69102 0.56323 0.55077 0.0
N215 N 0.67985 0.56191 0.57362 0.0
C216 C 0.71037 0.59161 0.5126 0.0
H217 H 0.72404 0.58654 0.51308 0.0
H218 H 0.7188 0.61088 0.5109 0.0
H219 H 0.69935 0.58363 0.49433 0.0
C220 C 0.76717 0.55962 0.56989 0.0
N221 N 0.74767 0.54876 0.55434 0.0
N222 N 0.7351 0.55887 0.55811 0.0
C223 C 0.74643 0.57679 0.57572 0.0
C224 C 0.76694 0.57771 0.58419 0.0
C225 C 0.78431 0.55127 0.57286 0.0
H226 H 0.77493 0.53268 0.57926 0.0
H227 H 0.79244 0.5522 0.5528 0.0
H228 H 0.79811 0.56175 0.58797 0.0
O229 O 0.70503 0.49648 0.54789 0.0
O230 O 0.68373 0.51303 0.55667 0.0
H231 H 0.72214 0.58377 0.5965 0.0
H232 H 0.75154 0.60831 0.59581 0.0
C233 C 0.73817 0.59324 0.58403 0.0
H234 H 0.73433 0.60036 0.56567 0.0
H235 H 0.67531 0.5489 0.58826 0.0
O236 O 0.7554 0.50798 0.53189 0.0
C237 C 0.68631 0.4952 0.55666 0.0
Co238 Co 0.47482 0.21328 0.53168 0.0
Co239 Co 0.44931 0.15936 0.5371 0.0
C240 C 0.46323 0.18403 0.48207 0.0
O241 O 0.47108 0.20445 0.49196 0.0
O242 O 0.45465 0.16625 0.49758 0.0
C243 C 0.50911 0.25981 0.52313 0.0
O244 O 0.51692 0.24929 0.50714 0.0
C245 C 0.40686 0.11651 0.52729 0.0
C246 C 0.41244 0.08988 0.54754 0.0
C247 C 0.39644 0.09283 0.53223 0.0
N248 N 0.42785 0.12714 0.5394 0.0
N249 N 0.43112 0.11124 0.55169 0.0
C250 C 0.39783 0.12881 0.50976 0.0
H251 H 0.41127 0.14738 0.50679 0.0
H252 H 0.38247 0.12824 0.51964 0.0
H253 H 0.39213 0.1199 0.48976 0.0
C254 C 0.43532 0.20636 0.56832 0.0
N255 N 0.44649 0.19834 0.55239 0.0
N256 N 0.43666 0.17564 0.55568 0.0
C257 C 0.41936 0.16854 0.57422 0.0
C258 C 0.41772 0.18767 0.58272 0.0
C259 C 0.44283 0.23162 0.57159 0.0
H260 H 0.45965 0.24045 0.58283 0.0
H261 H 0.44583 0.23995 0.55126 0.0
H262 H 0.4296 0.23393 0.58294 0.0
O263 O 0.49799 0.20511 0.54662 0.0
O264 O 0.47976 0.16662 0.55226 0.0
H265 H 0.41697 0.13651 0.58768 0.0
H266 H 0.39673 0.14326 0.60436 0.0
C267 C 0.40546 0.14406 0.58482 0.0
H268 H 0.39166 0.13326 0.5699 0.0
H269 H 0.44626 0.1149 0.56233 0.0
O270 O 0.48989 0.24756 0.53556 0.0
C271 C 0.49815 0.18662 0.55369 0.0
Co272 Co 0.77903 0.25906 0.53289 0.0
Co273 Co 0.83238 0.29046 0.54262 0.0
C274 C 0.81123 0.27956 0.48566 0.0
O275 O 0.79042 0.26599 0.49412 0.0
O276 O 0.82825 0.28919 0.50235 0.0
C277 C 0.73019 0.23159 0.51617 0.0
O278 O 0.7378 0.23713 0.49106 0.0
C279 C 0.87796 0.29524 0.54245 0.0
C280 C 0.89601 0.32133 0.57497 0.0
C281 C 0.89787 0.30539 0.55837 0.0
N282 N 0.86457 0.30422 0.54992 0.0
N283 N 0.87571 0.32034 0.56872 0.0
C284 C 0.86997 0.27471 0.52383 0.0
H285 H 0.85085 0.2661 0.52028 0.0
H286 H 0.8745 0.26193 0.53237 0.0
H287 H 0.87907 0.28085 0.50401 0.0
C288 C 0.78678 0.22654 0.56862 0.0
N289 N 0.79438 0.24673 0.55468 0.0
N290 N 0.81666 0.26069 0.56 0.0
C291 C 0.82375 0.25005 0.57801 0.0
C292 C 0.80532 0.22792 0.58362 0.0
C293 C 0.76222 0.20659 0.56789 0.0
H294 H 0.7557 0.20339 0.54662 0.0
H295 H 0.76101 0.1905 0.57652 0.0
H296 H 0.75095 0.21126 0.57993 0.0
O297 O 0.78387 0.28924 0.54793 0.0
O298 O 0.82171 0.31129 0.55657 0.0
H299 H 0.84519 0.25353 0.61289 0.0
H300 H 0.85974 0.25947 0.58073 0.0
C301 C 0.84672 0.26162 0.59265 0.0
H302 H 0.85285 0.28037 0.59572 0.0
H303 H 0.86861 0.32921 0.57888 0.0
O304 O 0.74481 0.23816 0.53559 0.0
C305 C 0.80117 0.30832 0.55633 0.0
Co306 Co 0.84955 0.39817 0.16699 0.0
Co307 Co 0.87732 0.37177 0.16327 0.0
C308 C 0.86315 0.38269 0.21757 0.0
O309 O 0.85381 0.39372 0.20694 0.0
O310 O 0.87291 0.37428 0.2027 0.0
C311 C 0.83083 0.42921 0.17865 0.0
O312 O 0.84102 0.43303 0.20255 0.0
C313 C 0.91935 0.37028 0.17286 0.0
C314 C 0.9192 0.34785 0.13943 0.0
C315 C 0.93277 0.36244 0.16026 0.0
N316 N 0.89885 0.36114 0.15974 0.0
N317 N 0.89851 0.34719 0.14027 0.0
C318 C 0.92711 0.38893 0.19412 0.0
H319 H 0.91937 0.40015 0.19011 0.0
H320 H 0.94645 0.3998 0.19487 0.0
H321 H 0.92079 0.38053 0.21426 0.0
C322 C 0.88765 0.43073 0.12892 0.0
N323 N 0.87765 0.41205 0.14581 0.0
N324 N 0.88911 0.40061 0.14398 0.0
C325 C 0.90678 0.41167 0.12597 0.0
C326 C 0.90642 0.43103 0.11559 0.0
C327 C 0.87794 0.44653 0.12381 0.0
H328 H 0.85997 0.43613 0.11553 0.0
H329 H 0.87674 0.45424 0.14337 0.0
H330 H 0.88888 0.46066 0.10927 0.0
O331 O 0.82715 0.36655 0.15294 0.0
O332 O 0.84666 0.34745 0.14915 0.0
H333 H 0.91445 0.38591 0.11075 0.0
H334 H 0.93693 0.41549 0.10346 0.0
C335 C 0.92393 0.40399 0.11873 0.0
H336 H 0.9338 0.40457 0.13713 0.0
H337 H 0.88489 0.33864 0.12634 0.0
O338 O 0.83303 0.41591 0.16176 0.0
C339 C 0.82781 0.34813 0.14701 0.0
Co340 Co 0.595 0.45358 0.16753 0.0
Co341 Co 0.62567 0.50689 0.15673 0.0
C342 C 0.61541 0.48616 0.21411 0.0
O343 O 0.60178 0.46531 0.20597 0.0
O344 O 0.62503 0.50296 0.19715 0.0
C345 C 0.5811 0.4069 0.17887 0.0
O346 O 0.60026 0.41735 0.19359 0.0
C347 C 0.62795 0.55141 0.15716 0.0
C348 C 0.65566 0.57204 0.12719 0.0
C349 C 0.63836 0.57231 0.14292 0.0
N350 N 0.63791 0.53899 0.1493 0.0
N351 N 0.65472 0.55149 0.13172 0.0
C352 C 0.60863 0.54294 0.17769 0.0
H353 H 0.60941 0.53034 0.19185 0.0
H354 H 0.59151 0.53382 0.16712 0.0
H355 H 0.60974 0.55776 0.18951 0.0
C356 C 0.56166 0.46007 0.13194 0.0
N357 N 0.58203 0.46814 0.14567 0.0
N358 N 0.59574 0.49032 0.13978 0.0
C359 C 0.58483 0.49687 0.12151 0.0
C360 C 0.56268 0.47818 0.1164 0.0
C361 C 0.54187 0.43546 0.13343 0.0
H362 H 0.53972 0.429 0.15467 0.0
H363 H 0.52534 0.4341 0.12614 0.0
H364 H 0.54604 0.42425 0.12053 0.0
O365 O 0.62537 0.459 0.15228 0.0
O366 O 0.64706 0.49676 0.14277 0.0
H367 H 0.58839 0.51709 0.08544 0.0
H368 H 0.59391 0.53265 0.11688 0.0
C369 C 0.59633 0.51938 0.10593 0.0
H370 H 0.6152 0.52568 0.10333 0.0
H371 H 0.66478 0.54558 0.12188 0.0
O372 O 0.5743 0.41931 0.16651 0.0
C373 C 0.64432 0.4763 0.14353 0.0
Co374 Co 0.54627 0.14718 0.16395 0.0
Co375 Co 0.49238 0.12291 0.15619 0.0
C376 C 0.51434 0.13503 0.21223 0.0
O377 O 0.53505 0.1429 0.20302 0.0
O378 O 0.49685 0.12666 0.19619 0.0
C379 C 0.59475 0.16406 0.18089 0.0
O380 O 0.58673 0.15709 0.20562 0.0
C381 C 0.44532 0.0848 0.16261 0.0
C382 C 0.42852 0.08582 0.12408 0.0
C383 C 0.42523 0.07268 0.1473 0.0
N384 N 0.46012 0.10411 0.14886 0.0
N385 N 0.4498 0.10506 0.12622 0.0
C386 C 0.45203 0.07628 0.18738 0.0
H387 H 0.47079 0.08149 0.18644 0.0
H388 H 0.4413 0.05702 0.18949 0.0
H389 H 0.4493 0.08447 0.20566 0.0
C390 C 0.53974 0.10863 0.12623 0.0
N391 N 0.53139 0.11944 0.14229 0.0
N392 N 0.50855 0.10888 0.13968 0.0
C393 C 0.50159 0.09065 0.12245 0.0
C394 C 0.52107 0.09005 0.11288 0.0
C395 C 0.56522 0.11749 0.12183 0.0
H396 H 0.57387 0.13604 0.11533 0.0
H397 H 0.57329 0.11682 0.14137 0.0
H398 H 0.56825 0.10718 0.10623 0.0
O399 O 0.54071 0.17165 0.14845 0.0
O400 O 0.5025 0.15439 0.14144 0.0
H401 H 0.46927 0.08229 0.1032 0.0
H402 H 0.4748 0.05821 0.10434 0.0
C403 C 0.47664 0.07355 0.11564 0.0
H404 H 0.46648 0.06691 0.13461 0.0
H405 H 0.45793 0.11789 0.11132 0.0
O406 O 0.58056 0.16084 0.16172 0.0
C407 C 0.52276 0.17244 0.14058 0.0
Co408 Co 0.40048 0.8565 0.86419 0.0
Co409 Co 0.36976 0.87879 0.87666 0.0
C410 C 0.37827 0.86771 0.81878 0.0
O411 O 0.39284 0.8614 0.82599 0.0
O412 O 0.36875 0.87439 0.83643 0.0
C413 C 0.4134 0.82365 0.85065 0.0
O414 O 0.39457 0.81631 0.83558 0.0
C415 C 0.36477 0.91949 0.87355 0.0
C416 C 0.34232 0.91534 0.90889 0.0
C417 C 0.35639 0.93114 0.88919 0.0
N418 N 0.35711 0.89829 0.88444 0.0
N419 N 0.34318 0.8956 0.90511 0.0
C420 C 0.38059 0.92845 0.84928 0.0
H421 H 0.39861 0.93326 0.85543 0.0
H422 H 0.38067 0.94381 0.84009 0.0
H423 H 0.37475 0.91463 0.83362 0.0
C424 C 0.43376 0.89501 0.901 0.0
N425 N 0.41378 0.88384 0.88634 0.0
N426 N 0.40054 0.89291 0.89207 0.0
C427 C 0.41165 0.91005 0.91069 0.0
C428 C 0.43303 0.91197 0.91711 0.0
C429 C 0.45191 0.88783 0.90156 0.0
H430 H 0.44418 0.87003 0.91039 0.0
H431 H 0.45739 0.88699 0.88044 0.0
H432 H 0.46735 0.90005 0.91381 0.0
O433 O 0.37086 0.83179 0.8807 0.0
O434 O 0.34931 0.84752 0.8923 0.0
H435 H 0.38414 0.91265 0.93045 0.0
H436 H 0.4129 0.93617 0.93888 0.0
C437 C 0.40193 0.92434 0.92245 0.0
H438 H 0.40116 0.93556 0.90632 0.0
H439 H 0.33548 0.88089 0.91766 0.0
O440 O 0.42076 0.84247 0.86406 0.0
C441 C 0.35235 0.82999 0.89104 0.0
Co442 Co 0.14277 0.54701 0.86823 0.0
Co443 Co 0.11514 0.49292 0.87161 0.0
C444 C 0.13322 0.51937 0.81797 0.0
O445 O 0.14062 0.53971 0.8279 0.0
O446 O 0.12363 0.50152 0.83326 0.0
C447 C 0.18068 0.59243 0.86694 0.0
O448 O 0.19002 0.58089 0.85595 0.0
C449 C 0.07332 0.45318 0.85365 0.0
C450 C 0.07105 0.42374 0.87734 0.0
C451 C 0.05949 0.42936 0.85771 0.0
N452 N 0.09198 0.46118 0.87006 0.0
N453 N 0.09069 0.44359 0.88418 0.0
C454 C 0.06823 0.4688 0.83643 0.0
H455 H 0.07713 0.48681 0.84472 0.0
H456 H 0.04914 0.46213 0.83533 0.0
H457 H 0.07502 0.46959 0.81557 0.0
C458 C 0.10295 0.54068 0.9042 0.0
N459 N 0.11368 0.53253 0.88769 0.0
N460 N 0.10265 0.50965 0.88948 0.0
C461 C 0.08468 0.50245 0.90704 0.0
C462 C 0.08419 0.52182 0.91717 0.0
C463 C 0.11222 0.56605 0.90976 0.0
H464 H 0.12928 0.57328 0.92036 0.0
H465 H 0.11535 0.57556 0.8902 0.0
H466 H 0.10002 0.56888 0.92254 0.0
O467 O 0.16388 0.53641 0.88392 0.0
O468 O 0.14402 0.49785 0.88928 0.0
H469 H 0.07899 0.46921 0.92069 0.0
H470 H 0.0562 0.47523 0.93085 0.0
C471 C 0.06858 0.47737 0.91444 0.0
H472 H 0.05805 0.46795 0.89639 0.0
H473 H 0.10304 0.44517 0.89852 0.0
O474 O 0.1592 0.58131 0.87349 0.0
C475 C 0.16291 0.51742 0.89129 0.0
Co476 Co 0.44255 0.59131 0.86531 0.0
Co477 Co 0.49539 0.62335 0.87793 0.0
C478 C 0.47677 0.61272 0.81989 0.0
O479 O 0.45572 0.59882 0.8273 0.0
O480 O 0.49304 0.62262 0.83745 0.0
C481 C 0.39532 0.57492 0.85227 0.0
O482 O 0.40497 0.5942 0.83776 0.0
C483 C 0.54254 0.6327 0.87556 0.0
C484 C 0.55876 0.65389 0.91244 0.0
C485 C 0.56254 0.64244 0.8912 0.0
N486 N 0.52732 0.63779 0.88716 0.0
N487 N 0.53721 0.65093 0.90884 0.0
C488 C 0.53657 0.6159 0.85243 0.0
H489 H 0.51767 0.60269 0.8528 0.0
H490 H 0.547 0.60698 0.85325 0.0
H491 H 0.54044 0.62567 0.83298 0.0
C492 C 0.4494 0.5592 0.90266 0.0
N493 N 0.45742 0.57927 0.88835 0.0
N494 N 0.47961 0.59316 0.8942 0.0
C495 C 0.48633 0.58249 0.91261 0.0
C496 C 0.4675 0.56066 0.91859 0.0
C497 C 0.42455 0.53983 0.90248 0.0
H498 H 0.41341 0.5461 0.91187 0.0
H499 H 0.41862 0.53483 0.88115 0.0
H500 H 0.4224 0.52439 0.9139 0.0
O501 O 0.4458 0.62089 0.88024 0.0
O502 O 0.4832 0.64324 0.89099 0.0
H503 H 0.51511 0.61024 0.93383 0.0
H504 H 0.51135 0.58181 0.94084 0.0
C505 C 0.51025 0.59304 0.92484 0.0
H506 H 0.52297 0.59542 0.90878 0.0
H507 H 0.52873 0.65659 0.92211 0.0
O508 O 0.40846 0.56918 0.86493 0.0
C509 C 0.46255 0.63996 0.88951 0.0
Co510 Co 0.52068 0.73477 0.50342 0.0
Co511 Co 0.5453 0.70591 0.4928 0.0
C512 C 0.53178 0.71335 0.54992 0.0
O513 O 0.52445 0.72691 0.54185 0.0
O514 O 0.53994 0.70465 0.533 0.0
C515 C 0.48457 0.74339 0.51264 0.0
O516 O 0.47703 0.72314 0.52476 0.0
C517 C 0.58852 0.70551 0.49564 0.0
C518 C 0.58438 0.68016 0.46374 0.0
C519 C 0.60065 0.69687 0.48126 0.0
N520 N 0.56656 0.69521 0.48612 0.0
N521 N 0.56398 0.67975 0.46742 0.0
C522 C 0.59742 0.72357 0.5177 0.0
H523 H 0.58292 0.72155 0.53079 0.0
H524 H 0.60564 0.74124 0.50847 0.0
H525 H 0.61051 0.72218 0.5305 0.0
C526 C 0.56125 0.77018 0.47013 0.0
N527 N 0.54908 0.74943 0.48313 0.0
N528 N 0.55853 0.73652 0.47749 0.0
C529 C 0.5766 0.74842 0.46023 0.0
C530 C 0.57934 0.7703 0.45549 0.0
C531 C 0.55512 0.78907 0.47104 0.0
H532 H 0.55012 0.79088 0.49207 0.0
H533 H 0.56992 0.80596 0.46395 0.0
H534 H 0.5398 0.78413 0.45767 0.0
O535 O 0.49758 0.70483 0.4858 0.0
O536 O 0.51483 0.6843 0.4762 0.0
H537 H 0.57708 0.7194 0.44119 0.0
H538 H 0.59578 0.74705 0.4253 0.0
C539 C 0.58907 0.73818 0.44516 0.0
H540 H 0.60427 0.74057 0.45725 0.0
H541 H 0.54872 0.66985 0.45619 0.0
O542 O 0.50505 0.75364 0.50262 0.0
C543 C 0.49682 0.68659 0.47611 0.0
Co544 Co 0.25413 0.77667 0.50484 0.0
Co545 Co 0.28696 0.82841 0.48846 0.0
C546 C 0.27809 0.8123 0.54783 0.0
O547 O 0.26288 0.79121 0.54205 0.0
O548 O 0.28798 0.82746 0.52906 0.0
C549 C 0.23803 0.72982 0.51884 0.0
O550 O 0.2578 0.73975 0.53247 0.0
C551 C 0.29459 0.87487 0.48704 0.0
C552 C 0.31703 0.89019 0.45082 0.0
C553 C 0.30403 0.89407 0.47006 0.0
N554 N 0.30125 0.86 0.47796 0.0
N555 N 0.31517 0.86943 0.45675 0.0
C556 C 0.27652 0.86895 0.50869 0.0
H557 H 0.26595 0.84976 0.51157 0.0
H558 H 0.26486 0.87596 0.50345 0.0
H559 H 0.28544 0.87698 0.52815 0.0
C560 C 0.22105 0.78307 0.46871 0.0
N561 N 0.24179 0.79104 0.48158 0.0
N562 N 0.25609 0.81263 0.47379 0.0
C563 C 0.24504 0.8189 0.45538 0.0
C564 C 0.22246 0.80059 0.45181 0.0
C565 C 0.20081 0.75882 0.47153 0.0
H566 H 0.19756 0.7541 0.4934 0.0
H567 H 0.18483 0.75717 0.46195 0.0
H568 H 0.20522 0.74644 0.4616 0.0
O569 O 0.28305 0.77881 0.48905 0.0
O570 O 0.30572 0.81516 0.47474 0.0
H571 H 0.27397 0.84592 0.4334 0.0
H572 H 0.24589 0.84012 0.42125 0.0
C573 C 0.25612 0.84134 0.43972 0.0
H574 H 0.25691 0.85541 0.45269 0.0
H575 H 0.32195 0.86097 0.44517 0.0
O576 O 0.23176 0.74272 0.5066 0.0
C577 C 0.30183 0.79443 0.47788 0.0
Co578 Co 0.21345 0.47807 0.49821 0.0
Co579 Co 0.15942 0.45134 0.49468 0.0
C580 C 0.18603 0.46923 0.54829 0.0
O581 O 0.20629 0.47571 0.53864 0.0
O582 O 0.16825 0.46018 0.53287 0.0
C583 C 0.26011 0.51346 0.5043 0.0
O584 O 0.24988 0.52164 0.5202 0.0
C585 C 0.11965 0.40932 0.51209 0.0
C586 C 0.09006 0.40801 0.4897 0.0
C587 C 0.09573 0.39567 0.50818 0.0
N588 N 0.12758 0.4285 0.4966 0.0
N589 N 0.10989 0.42783 0.48334 0.0
C590 C 0.1355 0.4037 0.52814 0.0
H591 H 0.15375 0.41402 0.52079 0.0
H592 H 0.1297 0.38482 0.52667 0.0
H593 H 0.13531 0.40835 0.5498 0.0
C594 C 0.20651 0.4383 0.46182 0.0
N595 N 0.1986 0.44917 0.47845 0.0
N596 N 0.17572 0.43848 0.47662 0.0
C597 C 0.16827 0.42061 0.45887 0.0
C598 C 0.18749 0.41982 0.44868 0.0
C599 C 0.23185 0.44724 0.4563 0.0
H600 H 0.23942 0.46454 0.4462 0.0
H601 H 0.24123 0.44979 0.47586 0.0
H602 H 0.23448 0.43515 0.44308 0.0
O603 O 0.20332 0.49977 0.48302 0.0
O604 O 0.16477 0.48024 0.47692 0.0
H605 H 0.13495 0.41548 0.4462 0.0
H606 H 0.1407 0.3929 0.43449 0.0
C607 C 0.14309 0.40485 0.4515 0.0
H608 H 0.13377 0.39381 0.46926 0.0
H609 H 0.1114 0.44063 0.46979 0.0
O610 O 0.24767 0.49386 0.49274 0.0
C611 C 0.18447 0.49905 0.47541 0.0
H612 H 0.95373 0.354 0.20217 0.0
H613 H 0.99451 0.36442 0.20519 0.0
H614 H 0.00923 0.40378 0.13031 0.0
H615 H 0.96766 0.39172 0.12659 0.0
H616 H 0.02365 0.37699 0.12333 0.0
H617 H 0.05882 0.40989 0.223 0.0
H618 H 0.02985 0.38741 0.23113 0.0
H619 H 0.0342 0.41203 0.21054 0.0
C620 C 0.96587 0.36523 0.18673 0.0
C621 C 0.95783 0.37167 0.16391 0.0
C622 C 0.98937 0.37174 0.18869 0.0
C623 C 0.00535 0.38535 0.16819 0.0
C624 C 0.99741 0.39338 0.14644 0.0
H625 H 0.07022 0.30642 0.20453 0.0
H626 H 0.0796 0.34602 0.19114 0.0
C627 C 0.97371 0.38634 0.14416 0.0
C628 C 0.02789 0.38557 0.16627 0.0
H629 H 0.05676 0.36968 0.21076 0.0
C630 C 0.03197 0.37665 0.14221 0.0
C631 C 0.04045 0.38644 0.18998 0.0
C632 C 0.04072 0.3998 0.21493 0.0
C633 C 0.04288 0.36321 0.1433 0.0
C634 C 0.04914 0.35844 0.16894 0.0
C635 C 0.05063 0.37228 0.19131 0.0
C636 C 0.04528 0.33488 0.17457 0.0
C637 C 0.04405 0.35108 0.1179 0.0
C638 C 0.02275 0.31575 0.1703 0.0
C639 C 0.01737 0.29339 0.17799 0.0
C640 C 0.03445 0.28972 0.18995 0.0
C641 C 0.05701 0.3088 0.19445 0.0
C642 C 0.06237 0.33137 0.18696 0.0
H643 H 0.04832 0.36277 0.09999 0.0
H644 H 0.05731 0.34552 0.11984 0.0
H645 H 0.02671 0.3354 0.11414 0.0
H646 H 0.00905 0.31822 0.16164 0.0
H647 H -0.00016 0.27895 0.17457 0.0
H648 H 0.595 0.56861 0.14821 0.0
H649 H 0.58728 0.60054 0.15702 0.0
H650 H 0.66038 0.6503 0.14464 0.0
H651 H 0.66834 0.6186 0.13723 0.0
H652 H 0.60882 0.62924 0.20164 0.0
H653 H 0.62916 0.68428 0.11093 0.0
H654 H 0.61867 0.65323 0.10885 0.0
H655 H 0.64946 0.67385 0.11278 0.0
C656 C 0.60945 0.58635 0.14761 0.0
C657 C 0.63253 0.59114 0.1435 0.0
C658 C 0.60486 0.60456 0.15195 0.0
C659 C 0.62316 0.62775 0.15123 0.0
C660 C 0.64584 0.63252 0.14469 0.0
H661 H 0.71427 0.71474 0.22591 0.0
H662 H 0.67512 0.68357 0.21473 0.0
C663 C 0.65047 0.61438 0.14078 0.0
C664 C 0.62043 0.64677 0.16294 0.0
H665 H 0.64942 0.70555 0.15419 0.0
C666 C 0.61652 0.64587 0.1911 0.0
C667 C 0.62945 0.66832 0.14921 0.0
C668 C 0.63163 0.66988 0.11868 0.0
C669 C 0.62639 0.66647 0.20643 0.0
C670 C 0.64028 0.68796 0.19303 0.0
C671 C 0.63942 0.68892 0.16456 0.0
C672 C 0.66136 0.70661 0.20637 0.0
C673 C 0.62486 0.66493 0.237 0.0
C674 C 0.66649 0.72986 0.20591 0.0
C675 C 0.68896 0.74777 0.21257 0.0
C676 C 0.70676 0.74266 0.21866 0.0
C677 C 0.70105 0.71927 0.2209 0.0
C678 C 0.67858 0.70142 0.21477 0.0
H679 H 0.60748 0.65049 0.2435 0.0
H680 H 0.6383 0.66107 0.24491 0.0
H681 H 0.62785 0.68157 0.24614 0.0
H682 H 0.65343 0.73417 0.19944 0.0
H683 H 0.69237 0.76554 0.21232 0.0
H684 H 0.41472 0.03469 0.1162 0.0
H685 H 0.38528 0.99382 0.12607 0.0
H686 H 0.3653 0.01645 0.19862 0.0
H687 H 0.39536 0.05676 0.18945 0.0
H688 H 0.36693 0.97589 0.20722 0.0
H689 H 0.31673 0.96765 0.11242 0.0
H690 H 0.34625 0.97315 0.11067 0.0
H691 H 0.34076 0.99587 0.12173 0.0
C692 C 0.40382 0.0307 0.13413 0.0
C693 C 0.40671 0.04858 0.1519 0.0
C694 C 0.38719 0.00745 0.1398 0.0
C695 C 0.37303 0.00207 0.163 0.0
C696 C 0.37623 0.02013 0.18076 0.0
H697 H 0.28116 0.99522 0.22899 0.0
H698 H 0.3127 0.98767 0.2187 0.0
C699 C 0.39308 0.04315 0.17539 0.0
C700 C 0.35322 0.97838 0.16831 0.0
H701 H 0.29552 0.9505 0.15199 0.0
C702 C 0.35138 0.96939 0.19469 0.0
C703 C 0.33309 0.96905 0.15159 0.0
C704 C 0.33412 0.97678 0.12248 0.0
C705 C 0.32943 0.95582 0.20676 0.0
C706 C 0.30935 0.95104 0.19176 0.0
C707 C 0.31118 0.95497 0.16361 0.0
C708 C 0.29001 0.95206 0.20526 0.0
C709 C 0.32795 0.95004 0.23658 0.0
C710 C 0.26681 0.9343 0.20191 0.0
C711 C 0.24862 0.9385 0.2083 0.0
C712 C 0.25349 0.96088 0.21674 0.0
C713 C 0.27675 0.97796 0.22199 0.0
C714 C 0.29482 0.97357 0.21638 0.0
H715 H 0.34217 0.94658 0.24252 0.0
H716 H 0.33009 0.96518 0.24865 0.0
H717 H 0.31077 0.93461 0.24171 0.0
H718 H 0.26282 0.91761 0.19335 0.0
H719 H 0.23092 0.92431 0.20596 0.0
H720 H 0.3026 0.0681 0.81905 0.0
H721 H 0.34244 0.07683 0.82902 0.0
H722 H 0.32143 0.00452 0.81498 0.0
H723 H 0.28155 0.99552 0.80648 0.0
H724 H 0.3492 0.05495 0.87363 0.0
H725 H 0.38769 0.03789 0.78414 0.0
H726 H 0.36688 0.04805 0.78141 0.0
H727 H 0.35697 0.01725 0.78415 0.0
C728 C 0.30644 0.05403 0.81834 0.0
C729 C 0.2887 0.03083 0.8135 0.0
C730 C 0.32936 0.05922 0.82333 0.0
C731 C 0.33495 0.04141 0.82251 0.0
C732 C 0.31766 0.01869 0.81514 0.0
H733 H 0.32805 0.9492 0.89666 0.0
H734 H 0.33712 0.9891 0.88763 0.0
C735 C 0.29476 0.01346 0.81061 0.0
C736 C 0.3566 0.04451 0.835 0.0
H737 H 0.38679 0.01593 0.82686 0.0
C738 C 0.35856 0.04759 0.86333 0.0
C739 C 0.3698 0.03608 0.82164 0.0
C740 C 0.37041 0.03493 0.79107 0.0
C741 C 0.36866 0.03721 0.8789 0.0
C742 C 0.37666 0.02365 0.86554 0.0
C743 C 0.37975 0.02556 0.8372 0.0
C744 C 0.37368 0.0021 0.87823 0.0
C745 C 0.36765 0.03801 0.90947 0.0
C746 C 0.39126 0.99622 0.87643 0.0
C747 C 0.38598 0.97331 0.88152 0.0
C748 C 0.36291 0.95591 0.88763 0.0
C749 C 0.34584 0.96223 0.89154 0.0
C750 C 0.35115 0.98513 0.88674 0.0
H751 H 0.37128 0.05553 0.9163 0.0
H752 H 0.34979 0.02508 0.91648 0.0
H753 H 0.38038 0.03392 0.91916 0.0
H754 H 0.40869 0.00902 0.86979 0.0
H755 H 0.39978 0.9691 0.87972 0.0
H756 H 0.04574 0.431 0.80513 0.0
H757 H 0.01247 0.4005 0.78099 0.0
H758 H 0.99219 0.35777 0.85336 0.0
H759 H 0.02426 0.38907 0.87827 0.0
H760 H 0.01382 0.36434 0.7711 0.0
H761 H 0.92952 0.33203 0.82074 0.0
H762 H 0.95335 0.36135 0.82679 0.0
H763 H 0.94977 0.33723 0.84766 0.0
C764 C 0.03344 0.41581 0.8165 0.0
C765 C 0.03756 0.41263 0.84384 0.0
C766 C 0.01439 0.39822 0.80249 0.0
C767 C -0.00048 0.37686 0.8153 0.0
C768 C 0.00281 0.37427 0.84309 0.0
H769 H 0.97984 0.25757 0.83721 0.0
H770 H 0.97487 0.29145 0.83108 0.0
C771 C 0.02156 0.39203 0.85723 0.0
C772 C 0.98531 0.3556 0.79884 0.0
H773 H 0.94019 0.30055 0.80972 0.0
C774 C 0.99712 0.35058 0.77856 0.0
C775 C 0.96316 0.33775 0.80769 0.0
C776 C 0.9482 0.34259 0.82671 0.0
C777 C 0.9898 0.32751 0.77116 0.0
C778 C 0.96998 0.30925 0.78418 0.0
C779 C 0.9558 0.3146 0.80042 0.0
C780 C 0.96808 0.28622 0.78774 0.0
C781 C 0.00521 0.32287 0.75254 0.0
C782 C 0.96551 0.27184 0.76549 0.0
C783 C 0.96895 0.25281 0.76892 0.0
C784 C 0.97442 0.24769 0.79472 0.0
C785 C 0.97562 0.26124 0.81717 0.0
C786 C 0.97256 0.28042 0.81369 0.0
H787 H 0.02048 0.33923 0.74496 0.0
H788 H 0.01179 0.31257 0.76339 0.0
H789 H 0.99496 0.3126 0.73467 0.0
H790 H 0.96175 0.27585 0.74541 0.0
H791 H 0.96749 0.24218 0.75144 0.0
H792 H 0.57614 0.61936 0.9258 0.0
H793 H 0.60755 0.61022 0.9182 0.0
H794 H 0.62381 0.6474 0.84171 0.0
H795 H 0.59185 0.65526 0.8487 0.0
H796 H 0.62568 0.60686 0.83768 0.0
H797 H 0.67522 0.65728 0.92939 0.0
H798 H 0.64664 0.63199 0.93293 0.0
H799 H 0.64975 0.65844 0.91869 0.0
C800 C 0.58666 0.62558 0.90751 0.0
C801 C 0.58219 0.63836 0.88799 0.0
C802 C 0.60441 0.62028 0.90313 0.0
C803 C 0.61809 0.62821 0.87947 0.0
C804 C 0.6133 0.64083 0.85998 0.0
H805 H 0.71249 0.71132 0.80506 0.0
H806 H 0.68048 0.67305 0.81825 0.0
C807 C 0.59535 0.64565 0.86408 0.0
C808 C 0.63895 0.62586 0.87525 0.0
H809 H 0.69658 0.65915 0.89088 0.0
C810 C 0.64118 0.61741 0.84984 0.0
C811 C 0.65907 0.63873 0.89158 0.0
C812 C 0.65774 0.64716 0.9197 0.0
C813 C 0.66321 0.62593 0.83794 0.0
C814 C 0.68306 0.6427 0.85218 0.0
C815 C 0.68109 0.64674 0.8798 0.0
C816 C 0.70272 0.66179 0.83745 0.0
C817 C 0.66488 0.61964 0.80891 0.0
C818 C 0.72581 0.6678 0.84318 0.0
C819 C 0.74414 0.68964 0.83536 0.0
C820 C 0.73946 0.70604 0.82288 0.0
C821 C 0.71651 0.69921 0.81521 0.0
C822 C 0.69827 0.67724 0.82245 0.0
H823 H 0.6511 0.60139 0.80443 0.0
H824 H 0.66216 0.63134 0.79506 0.0
H825 H 0.68232 0.62169 0.80461 0.0
H826 H 0.72953 0.65611 0.85479 0.0
H827 H 0.76187 0.69392 0.83994 0.0
H828 H 0.71515 0.63272 0.58366 0.0
H829 H 0.7264 0.67347 0.57327 0.0
H830 H 0.68191 0.64978 0.50221 0.0
H831 H 0.67175 0.60961 0.51191 0.0
H832 H 0.7248 0.69001 0.49213 0.0
H833 H 0.68457 0.70057 0.58698 0.0
H834 H 0.70827 0.69455 0.58849 0.0
H835 H 0.67964 0.67197 0.57834 0.0
C836 C 0.70774 0.63646 0.56601 0.0
C837 C 0.69228 0.61833 0.54876 0.0
C838 C 0.71428 0.65963 0.56 0.0
C839 C 0.70501 0.66467 0.53699 0.0
C840 C 0.68956 0.64635 0.51988 0.0
H841 H 0.61939 0.66957 0.47054 0.0
H842 H 0.65895 0.67797 0.47997 0.0
C843 C 0.68343 0.62341 0.52558 0.0
C844 C 0.70911 0.68834 0.53114 0.0
H845 H 0.67933 0.71632 0.54678 0.0
C846 C 0.7159 0.69675 0.5045 0.0
C847 C 0.69855 0.69802 0.54764 0.0
C848 C 0.69236 0.69098 0.577 0.0
C849 C 0.70725 0.70993 0.49205 0.0
C850 C 0.69204 0.7149 0.50694 0.0
C851 C 0.69041 0.71167 0.53522 0.0
C852 C 0.67143 0.71346 0.49357 0.0
C853 C 0.71116 0.71506 0.46206 0.0
C854 C 0.66556 0.73087 0.49726 0.0
C855 C 0.64289 0.72615 0.49145 0.0
C856 C 0.62559 0.70361 0.4832 0.0
C857 C 0.63215 0.68692 0.47744 0.0
C858 C 0.65487 0.69182 0.48253 0.0
H859 H 0.72891 0.71875 0.45608 0.0
H860 H 0.69824 0.69951 0.45045 0.0
H861 H 0.70901 0.73014 0.45642 0.0
H862 H 0.67813 0.74765 0.50577 0.0
H863 H 0.63895 0.74 0.4942 0.0
H864 H 0.30697 0.92151 0.51216 0.0
H865 H 0.30011 0.95426 0.51151 0.0
H866 H 0.27974 0.94061 0.42688 0.0
H867 H 0.28803 0.90832 0.42736 0.0
H868 H 0.30889 0.98213 0.42996 0.0
H869 H 0.25261 0.97264 0.51469 0.0
H870 H 0.27194 0.96406 0.52922 0.0
H871 H 0.2531 0.94744 0.5012 0.0
C872 C 0.30065 0.92531 0.49359 0.0
C873 C 0.29831 0.91281 0.46976 0.0
C874 C 0.29618 0.94374 0.4933 0.0
C875 C 0.28866 0.94965 0.46931 0.0
C876 C 0.28525 0.9363 0.44571 0.0
H877 H 0.35355 0.08988 0.52792 0.0
H878 H 0.31889 0.05944 0.50414 0.0
C879 C 0.29026 0.91811 0.44588 0.0
C880 C 0.28975 0.97258 0.46795 0.0
H881 H 0.29354 0.01134 0.51588 0.0
C882 C 0.30444 0.98841 0.44809 0.0
C883 C 0.28299 0.98123 0.49043 0.0
C884 C 0.26401 0.96524 0.5098 0.0
C885 C 0.3168 0.01236 0.45361 0.0
C886 C 0.3147 0.02012 0.47964 0.0
C887 C 0.29604 0.00512 0.49646 0.0
C888 C 0.33539 0.03956 0.49262 0.0
C889 C 0.33455 0.02867 0.43328 0.0
C890 C 0.35568 0.03786 0.49483 0.0
C891 C 0.37526 0.05498 0.50831 0.0
C892 C 0.37495 0.07416 0.51981 0.0
C893 C 0.35443 0.07561 0.51837 0.0
C894 C 0.33465 0.05828 0.50493 0.0
H895 H 0.32782 0.02348 0.41221 0.0
H896 H 0.33903 0.04704 0.4368 0.0
H897 H 0.35071 0.02755 0.43505 0.0
H898 H 0.3563 0.02305 0.48634 0.0
H899 H 0.39081 0.05342 0.50928 0.0
H900 H 0.05436 0.36296 0.4869 0.0
H901 H 0.02374 0.32834 0.50917 0.0
H902 H 0.06887 0.34056 0.57811 0.0
H903 H 0.09852 0.37654 0.55749 0.0
H904 H 0.01513 0.28686 0.53294 0.0
H905 H 0.01957 0.34926 0.61275 0.0
H906 H 0.03724 0.3602 0.58264 0.0
H907 H 0.04398 0.34485 0.60805 0.0
C908 C 0.05791 0.35825 0.50672 0.0
C909 C 0.07903 0.37274 0.52025 0.0
C910 C 0.0405 0.33819 0.51927 0.0
C911 C 0.04391 0.33203 0.54552 0.0
C912 C 0.06573 0.34519 0.55805 0.0
H913 H 0.91128 0.29395 0.60531 0.0
H914 H 0.94316 0.28556 0.61127 0.0
C915 C 0.08294 0.36571 0.54586 0.0
C916 C 0.0231 0.315 0.56093 0.0
H917 H 0.98357 0.31793 0.60243 0.0
C918 C 0.00836 0.29317 0.54891 0.0
C919 C 0.0145 0.32269 0.58262 0.0
C920 C 0.02954 0.34549 0.59735 0.0
C921 C 0.98434 0.28105 0.55449 0.0
C922 C 0.97514 0.29131 0.57214 0.0
C923 C 0.99053 0.31045 0.58816 0.0
C924 C 0.95136 0.28779 0.56831 0.0
C925 C 0.96883 0.25865 0.53948 0.0
C926 C 0.94472 0.29091 0.54212 0.0
C927 C 0.92649 0.29554 0.53874 0.0
C928 C 0.91495 0.29757 0.56151 0.0
C929 C 0.92039 0.2929 0.58752 0.0
C930 C 0.93831 0.28777 0.59088 0.0
H931 H 0.97704 0.24753 0.53907 0.0
H932 H 0.95127 0.24867 0.54897 0.0
H933 H 0.96686 0.26267 0.51804 0.0
H934 H 0.95488 0.29186 0.52439 0.0
H935 H 0.92251 0.2991 0.51852 0.0
H936 H 0.20457 0.38957 0.44927 0.0
H937 H 0.1984 0.3601 0.41471 0.0
H938 H 0.16134 0.38465 0.36471 0.0
H939 H 0.16916 0.41497 0.39801 0.0
H940 H 0.1614 0.32467 0.39948 0.0
H941 H 0.19627 0.37638 0.30628 0.0
H942 H 0.20179 0.39007 0.33926 0.0
H943 H 0.17556 0.38326 0.32058 0.0
C944 C 0.19584 0.38909 0.43042 0.0
C945 C 0.18723 0.40444 0.42636 0.0
C946 C 0.19209 0.3721 0.41075 0.0
C947 C 0.17957 0.37009 0.38668 0.0
C948 C 0.17167 0.38604 0.38245 0.0
H949 H 0.08471 0.2441 0.30354 0.0
H950 H 0.10769 0.27465 0.33651 0.0
C951 C 0.17588 0.40326 0.40174 0.0
C952 C 0.17278 0.35019 0.36725 0.0
H953 H 0.16472 0.33626 0.2996 0.0
C954 C 0.16259 0.32733 0.37764 0.0
C955 C 0.17478 0.35328 0.33861 0.0
C956 C 0.18797 0.37712 0.32563 0.0
C957 C 0.15321 0.30767 0.3604 0.0
C958 C 0.15286 0.31071 0.33184 0.0
C959 C 0.16434 0.3336 0.32142 0.0
C960 C 0.13955 0.29068 0.3126 0.0
C961 C 0.14395 0.28391 0.3732 0.0
C962 C 0.14934 0.28938 0.28762 0.0
C963 C 0.13577 0.27231 0.2682 0.0
C964 C 0.11217 0.25612 0.2734 0.0
C965 C 0.1028 0.25655 0.29889 0.0
C966 C 0.11612 0.27387 0.31798 0.0
H967 H 0.15401 0.28506 0.39184 0.0
H968 H 0.12552 0.27707 0.37946 0.0
H969 H 0.1448 0.27131 0.35899 0.0
H970 H 0.16732 0.30201 0.28278 0.0
H971 H 0.14343 0.27238 0.24869 0.0
H972 H 0.62605 0.7902 0.46147 0.0
H973 H 0.65617 0.81242 0.42751 0.0
H974 H 0.60391 0.81193 0.37445 0.0
H975 H 0.57368 0.78988 0.40887 0.0
H976 H 0.65502 0.79355 0.378 0.0
H977 H 0.65878 0.87869 0.36431 0.0
H978 H 0.64572 0.86044 0.39385 0.0
H979 H 0.62994 0.8536 0.36226 0.0
C980 C 0.62115 0.79558 0.44295 0.0
C981 C 0.59761 0.78854 0.43785 0.0
C982 C 0.63834 0.80816 0.42348 0.0
C983 C 0.63243 0.81398 0.39837 0.0
C984 C 0.60906 0.80808 0.39382 0.0
H985 H 0.7058 0.82736 0.24822 0.0
H986 H 0.67647 0.81985 0.28316 0.0
C987 C 0.59177 0.79551 0.41348 0.0
C988 C 0.65015 0.82338 0.37606 0.0
H989 H 0.67915 0.86888 0.33153 0.0
C990 C 0.66034 0.8101 0.368 0.0
C991 C 0.65723 0.84501 0.36298 0.0
C992 C 0.64754 0.86042 0.37138 0.0
C993 C 0.67709 0.81762 0.34715 0.0
C994 C 0.68376 0.83893 0.3336 0.0
C995 C 0.67392 0.85249 0.34183 0.0
C996 C 0.7006 0.84676 0.31051 0.0
C997 C 0.6876 0.80266 0.33976 0.0
C998 C 0.72375 0.86513 0.3137 0.0
C999 C 0.74059 0.86955 0.29357 0.0
C1000 C 0.73445 0.85562 0.27005 0.0
C1001 C 0.71096 0.83836 0.26616 0.0
C1002 C 0.69421 0.83401 0.28613 0.0
H1003 H 0.68437 0.78946 0.3557 0.0
H1004 H 0.6797 0.79329 0.32047 0.0
H1005 H 0.70676 0.81362 0.33657 0.0
H1006 H 0.72907 0.87513 0.3324 0.0
H1007 H 0.75863 0.88276 0.29718 0.0
H1008 H 0.16499 0.87403 0.24601 0.0
H1009 H 0.17222 0.85108 0.27961 0.0
H1010 H 0.12445 0.85627 0.33511 0.0
H1011 H 0.11676 0.87883 0.30096 0.0
H1012 H 0.19243 0.86796 0.32754 0.0
H1013 H 0.10646 0.78866 0.34583 0.0
H1014 H 0.1119 0.8075 0.31684 0.0
H1015 H 0.10616 0.81551 0.34971 0.0
C1016 C 0.15547 0.86959 0.26506 0.0
C1017 C 0.14013 0.87794 0.27082 0.0
C1018 C 0.15971 0.8566 0.28434 0.0
C1019 C 0.14883 0.85174 0.30996 0.0
C1020 C 0.13271 0.85928 0.31535 0.0
H1021 H 0.19141 0.81525 0.46146 0.0
H1022 H 0.17061 0.82506 0.42708 0.0
C1023 C 0.12829 0.87217 0.29585 0.0
C1024 C 0.15637 0.84103 0.33164 0.0
H1025 H 0.13718 0.79549 0.37665 0.0
C1026 C 0.1803 0.85203 0.33809 0.0
C1027 C 0.14061 0.82029 0.34566 0.0
C1028 C 0.11487 0.80715 0.33904 0.0
C1029 C 0.18884 0.84299 0.35805 0.0
C1030 C 0.17313 0.8223 0.37199 0.0
C1031 C 0.14918 0.81132 0.36586 0.0
C1032 C 0.18169 0.81221 0.39307 0.0
C1033 C 0.21467 0.85575 0.36436 0.0
C1034 C 0.19412 0.801 0.38544 0.0
C1035 C 0.20574 0.79516 0.40508 0.0
C1036 C 0.20509 0.80042 0.43262 0.0
C1037 C 0.19166 0.81051 0.44041 0.0
C1038 C 0.17991 0.81623 0.42079 0.0
H1039 H 0.22407 0.87316 0.35442 0.0
H1040 H 0.21755 0.85809 0.38668 0.0
H1041 H 0.22241 0.8452 0.35714 0.0
H1042 H 0.19585 0.7979 0.36415 0.0
H1043 H 0.21648 0.78793 0.39856 0.0
H1044 H 0.41986 0.1811 0.63697 0.0
H1045 H 0.38985 0.17335 0.67125 0.0
H1046 H 0.34976 0.18585 0.61116 0.0
H1047 H 0.37973 0.19323 0.5767 0.0
H1048 H 0.36925 0.19801 0.69231 0.0
H1049 H 0.30422 0.11917 0.63578 0.0
H1050 H 0.33493 0.13437 0.62746 0.0
H1051 H 0.31678 0.14607 0.61702 0.0
C1052 C 0.40484 0.18265 0.63129 0.0
C1053 C 0.402 0.18769 0.60427 0.0
C1054 C 0.38767 0.17816 0.65084 0.0
C1055 C 0.36726 0.17853 0.64372 0.0
C1056 C 0.36509 0.18498 0.61704 0.0
H1057 H 0.23786 0.12029 0.74167 0.0
H1058 H 0.26741 0.14364 0.70702 0.0
C1059 C 0.38231 0.18945 0.59745 0.0
C1060 C 0.34787 0.17082 0.6639 0.0
H1061 H 0.29194 0.12732 0.67709 0.0
C1062 C 0.35228 0.18268 0.68886 0.0
C1063 C 0.32564 0.1508 0.6595 0.0
C1064 C 0.32005 0.13669 0.63362 0.0
C1065 C 0.33529 0.17488 0.70959 0.0
C1066 C 0.31337 0.15443 0.70551 0.0
C1067 C 0.30866 0.14306 0.68022 0.0
C1068 C 0.29602 0.14318 0.72796 0.0
C1069 C 0.34107 0.18856 0.73578 0.0
C1070 C 0.30225 0.13542 0.75141 0.0
C1071 C 0.28548 0.1222 0.77105 0.0
C1072 C 0.26205 0.11637 0.76776 0.0
C1073 C 0.25588 0.12488 0.7449 0.0
C1074 C 0.27271 0.13804 0.72504 0.0
H1075 H 0.35458 0.20715 0.73255 0.0
H1076 H 0.3253 0.18781 0.74479 0.0
H1077 H 0.34815 0.18102 0.75061 0.0
H1078 H 0.31989 0.13861 0.75394 0.0
H1079 H 0.29064 0.11566 0.78836 0.0
H1080 H 0.83373 0.20981 0.57811 0.0
H1081 H 0.84228 0.18794 0.61187 0.0
H1082 H 0.7899 0.18693 0.66512 0.0
H1083 H 0.78093 0.20842 0.63077 0.0
H1084 H 0.85998 0.20468 0.66094 0.0
H1085 H 0.77715 0.12074 0.67435 0.0
H1086 H 0.78213 0.13989 0.64581 0.0
H1087 H 0.77428 0.14617 0.67846 0.0
C1088 C 0.82353 0.20424 0.59667 0.0
C1089 C 0.8065 0.21055 0.60174 0.0
C1090 C 0.82852 0.19187 0.61606 0.0
C1091 C 0.81671 0.18559 0.64112 0.0
C1092 C 0.79895 0.19107 0.64579 0.0
H1093 H 0.8572 0.14516 0.79257 0.0
H1094 H 0.83614 0.15486 0.75835 0.0
C1095 C 0.79379 0.20334 0.62617 0.0
C1096 C 0.8248 0.17556 0.66301 0.0
H1097 H 0.80767 0.12891 0.70595 0.0
C1098 C 0.84849 0.18805 0.67063 0.0
C1099 C 0.80987 0.15393 0.67595 0.0
C1100 C 0.78449 0.13926 0.66811 0.0
C1101 C 0.85762 0.17959 0.69058 0.0
C1102 C 0.84279 0.15791 0.70328 0.0
C1103 C 0.81902 0.1455 0.69611 0.0
C1104 C 0.85211 0.14806 0.72379 0.0
C1105 C 0.88314 0.194 0.6981 0.0
C1106 C 0.86739 0.14019 0.71572 0.0
C1107 C 0.87921 0.13447 0.73519 0.0
C1108 C 0.87594 0.1365 0.76307 0.0
C1109 C 0.85967 0.14309 0.77118 0.0
C1110 C 0.84775 0.14873 0.75166 0.0
H1111 H 0.89121 0.21212 0.69013 0.0
H1112 H 0.88536 0.19473 0.72055 0.0
H1113 H 0.89276 0.18572 0.68948 0.0
H1114 H 0.87102 0.13954 0.69434 0.0
H1115 H 0.89195 0.1298 0.72849 0.0
H1116 H 0.83655 0.74766 0.73405 0.0
H1117 H 0.83007 0.71791 0.70049 0.0
H1118 H 0.87079 0.69684 0.7491 0.0
H1119 H 0.87587 0.72582 0.78387 0.0
H1120 H 0.85359 0.70737 0.66822 0.0
H1121 H 0.81267 0.63566 0.74403 0.0
H1122 H 0.82092 0.66533 0.75228 0.0
H1123 H 0.84268 0.65654 0.75099 0.0
C1124 C 0.84425 0.73677 0.7375 0.0
C1125 C 0.85629 0.7387 0.76182 0.0
C1126 C 0.84061 0.71976 0.71822 0.0
C1127 C 0.84928 0.70445 0.72246 0.0
C1128 C 0.86312 0.70774 0.74571 0.0
H1129 H 0.81471 0.60673 0.58274 0.0
H1130 H 0.83907 0.63617 0.61686 0.0
C1131 C 0.86639 0.72458 0.76538 0.0
C1132 C 0.84255 0.68459 0.70305 0.0
H1133 H 0.81365 0.62493 0.69886 0.0
C1134 C 0.84499 0.68934 0.67496 0.0
C1135 C 0.83114 0.66095 0.71168 0.0
C1136 C 0.82647 0.65422 0.74134 0.0
C1137 C 0.83537 0.67135 0.65542 0.0
C1138 C 0.82385 0.6477 0.66405 0.0
C1139 C 0.82252 0.64297 0.69212 0.0
C1140 C 0.81053 0.62774 0.64481 0.0
C1141 C 0.83634 0.67803 0.62586 0.0
C1142 C 0.7868 0.61187 0.64993 0.0
C1143 C 0.7732 0.5946 0.63098 0.0
C1144 C 0.78279 0.59296 0.60614 0.0
C1145 C 0.80684 0.60773 0.60164 0.0
C1146 C 0.82065 0.62482 0.62096 0.0
H1147 H 0.84052 0.69643 0.62345 0.0
H1148 H 0.85021 0.6762 0.61541 0.0
H1149 H 0.81944 0.66656 0.61551 0.0
H1150 H 0.77845 0.61342 0.66815 0.0
H1151 H 0.75479 0.58318 0.63519 0.0
H1152 H 0.9355 0.47861 0.11592 0.0
H1153 H 0.96472 0.50237 0.08129 0.0
H1154 H 0.94145 0.44093 0.03141 0.0
H1155 H 0.91159 0.41781 0.06501 0.0
H1156 H 0.00075 0.50077 0.06609 0.0
H1157 H 0.94851 0.48453 0.97323 0.0
H1158 H 0.93507 0.47627 1.00635 0.0
H1159 H 0.9419 0.45699 0.9875 0.0
C1160 C 0.93618 0.47047 0.09709 0.0
C1161 C 0.92132 0.44639 0.09313 0.0
C1162 C 0.95302 0.48398 0.07738 0.0
C1163 C 0.95531 0.47365 0.05334 0.0
C1164 C 0.9398 0.44968 0.04916 0.0
H1165 H 0.07973 0.50417 0.9681 0.0
H1166 H 0.04948 0.49658 1.00152 0.0
C1167 C 0.92282 0.43635 0.06856 0.0
C1168 C 0.97513 0.48708 0.03393 0.0
H1169 H 0.98885 0.494 0.96619 0.0
C1170 C -0.00197 0.49962 0.04425 0.0
C1171 C 0.97192 0.48633 1.00532 0.0
C1172 C 0.94797 0.47552 0.99255 0.0
C1173 C 0.01764 0.51008 0.02694 0.0
C1174 C 0.01448 0.50718 0.99836 0.0
C1175 C 0.99155 0.49592 0.98802 0.0
C1176 C 0.03445 0.51408 0.97901 0.0
C1177 C 0.04152 0.52414 0.03967 0.0
C1178 C 0.03621 0.52622 0.95472 0.0
C1179 C 0.05328 0.53002 0.93513 0.0
C1180 C 0.06889 0.52176 0.93946 0.0
C1181 C 0.06789 0.51072 0.96425 0.0
C1182 C 0.05069 0.50659 0.98355 0.0
H1183 H 0.04058 0.53261 0.05879 0.0
H1184 H 0.04827 0.5123 0.04506 0.0
H1185 H 0.0541 0.53789 0.0257 0.0
H1186 H 0.02395 0.53217 0.95053 0.0
H1187 H 0.05359 0.53847 0.91612 0.0
H1188 H 0.46516 0.51872 0.91016 0.0
H1189 H 0.47314 0.49594 0.94373 0.0
H1190 H 0.47935 0.54422 1.00664 0.0
H1191 H 0.47101 0.56657 0.97328 0.0
H1192 H 0.51358 0.51236 0.97158 0.0
H1193 H 0.44175 0.48318 0.04604 0.0
H1194 H 0.44031 0.49389 1.0127 0.0
H1195 H 0.45555 0.51401 0.04003 0.0
C1196 C 0.46741 0.52388 0.93137 0.0
C1197 C 0.46719 0.54416 0.93929 0.0
C1198 C 0.47216 0.51101 0.9505 0.0
C1199 C 0.47659 0.51812 0.9779 0.0
C1200 C 0.47541 0.53792 0.98589 0.0
H1201 H 0.54676 0.50873 0.11763 0.0
H1202 H 0.52309 0.51433 0.08343 0.0
C1203 C 0.47068 0.55074 0.96681 0.0
C1204 C 0.48493 0.5066 0.99753 0.0
H1205 H 0.47708 0.48483 0.06226 0.0
C1206 C 0.5053 0.50587 0.99118 0.0
C1207 C 0.47423 0.49815 0.02319 0.0
C1208 C 0.45161 0.49711 0.03079 0.0
C1209 C 0.51593 0.4982 1.01024 0.0
C1210 C 0.50576 0.4907 0.0363 0.0
C1211 C 0.48491 0.49058 0.0423 0.0
C1212 C 0.51775 0.48518 0.05837 0.0
C1213 C 0.53867 0.4994 1.00286 0.0
C1214 C 0.52202 0.4664 0.05623 0.0
C1215 C 0.53553 0.4631 0.07595 0.0
C1216 C 0.54499 0.47857 0.09802 0.0
C1217 C 0.53971 0.49659 0.10077 0.0
C1218 C 0.52618 0.4998 0.08124 0.0
H1219 H 0.54623 0.50929 0.98372 0.0
H1220 H 0.55168 0.50777 0.01945 0.0
H1221 H 0.5356 0.48143 1.00002 0.0
H1222 H 0.51545 0.4547 0.03894 0.0
H1223 H 0.53949 0.44919 0.07326 0.0
H1224 H 0.5417 0.06272 0.11242 0.0
H1225 H 0.53708 0.03388 0.07774 0.0
H1226 H 0.49392 0.05259 0.03026 0.0
H1227 H 0.50015 0.0824 0.06348 0.0
H1228 H 0.50168 0.99637 0.06335 0.0
H1229 H 0.52991 0.04865 0.96994 0.0
H1230 H 0.53529 0.06221 1.00299 0.0
H1231 H 0.50802 0.05317 0.98544 0.0
C1232 C 0.53192 0.06114 0.09407 0.0
C1233 C 0.52124 0.07476 0.09068 0.0
C1234 C 0.52907 0.0445 0.07435 0.0
C1235 C 0.51539 0.04109 0.05091 0.0
C1236 C 0.50521 0.05518 0.04744 0.0
H1237 H 0.42396 0.9137 0.97066 0.0
H1238 H 0.44769 0.94423 1.0032 0.0
C1239 C 0.50849 0.07207 0.06674 0.0
C1240 C 0.50984 0.0216 0.03132 0.0
H1241 H 0.50011 0.00758 0.96382 0.0
C1242 C 0.50184 -0.00102 0.04155 0.0
C1243 C 0.51064 0.0247 1.00269 0.0
C1244 C 0.52172 0.04858 0.98972 0.0
C1245 C 0.49319 0.97941 0.02424 0.0
C1246 C 0.49133 0.98222 0.99588 0.0
C1247 C 0.50086 0.00503 0.98551 0.0
C1248 C 0.47802 0.96196 0.97697 0.0
C1249 C 0.48626 0.95599 0.03676 0.0
C1250 C 0.4867 0.96153 0.95088 0.0
C1251 C 0.47262 0.94439 0.93176 0.0
C1252 C 0.44967 0.92727 0.93842 0.0
C1253 C 0.44158 0.92677 0.96498 0.0
C1254 C 0.45534 0.94414 0.98378 0.0
H1255 H 0.49768 0.95804 0.05439 0.0
H1256 H 0.4681 0.94799 0.04455 0.0
H1257 H 0.48733 0.94392 0.0219 0.0
H1258 H 0.50408 0.97495 0.94492 0.0
H1259 H 0.47926 0.94521 0.9114 0.0
H1260 H 0.03384 0.22017 0.11864 0.0
H1261 H 0.01717 0.21109 0.07298 0.0
H1262 H 0.03778 0.15906 0.06429 0.0
H1263 H 0.05469 0.16809 0.11033 0.0
H1264 H 0.04454 0.18683 0.01614 0.0
H1265 H 0.95498 0.15015 0.05788 0.0
H1266 H 0.97505 0.17929 0.06925 0.0
H1267 H 0.97973 0.15569 0.07875 0.0
C1268 C 0.03518 0.20699 0.10697 0.0
C1269 C 0.04548 0.19472 0.11838 0.0
C1270 C 0.02546 0.20171 0.08086 0.0
C1271 C 0.02566 0.18398 0.06541 0.0
C1272 C 0.0372 0.17266 0.07594 0.0
H1273 H 0.93565 0.11608 0.92398 0.0
H1274 H 0.95437 0.12476 0.96885 0.0
C1275 C 0.047 0.17795 0.10222 0.0
C1276 C 0.01308 0.17689 0.03878 0.0
H1277 H 0.95902 0.15586 1.00997 0.0
C1278 C 0.02583 0.17995 1.01479 0.0
C1279 C 0.98858 0.16758 0.03699 0.0
C1280 C 0.97369 0.16275 0.06208 0.0
C1281 C 0.01489 0.17464 0.98908 0.0
C1282 C 0.99053 0.16627 0.98721 0.0
C1283 C 0.97769 0.16253 1.01128 0.0
C1284 C 0.97813 0.16133 0.96048 0.0
C1285 C 0.02949 0.17782 0.96414 0.0
C1286 C 0.98456 0.17913 0.9411 0.0
C1287 C 0.97381 0.17426 0.91547 0.0
C1288 C 0.95623 0.15144 0.90855 0.0
C1289 C 0.94906 0.13385 0.92849 0.0
C1290 C 0.95984 0.13877 0.95417 0.0
H1291 H 0.04602 0.17817 0.96936 0.0
H1292 H 0.0197 0.16362 0.94917 0.0
H1293 H 0.03409 0.19469 0.9543 0.0
H1294 H -0.00183 0.1968 0.94565 0.0
H1295 H 0.97977 0.18834 0.90081 0.0
H1296 H 0.80623 0.79431 0.90362 0.0
H1297 H 0.79915 0.80378 0.94901 0.0
H1298 H 0.86795 0.81886 0.97389 0.0
H1299 H 0.87571 0.81059 0.92753 0.0
H1300 H 0.79524 0.78624 0.99545 0.0
H1301 H 0.87056 0.87623 1.00169 0.0
H1302 H 0.86285 0.8595 0.97064 0.0
H1303 H 0.87952 0.85502 0.99655 0.0
C1304 C 0.81996 0.79958 0.91865 0.0
C1305 C 0.84163 0.80171 0.91172 0.0
C1306 C 0.81584 0.80505 0.94478 0.0
C1307 C 0.83311 0.81256 0.96504 0.0
C1308 C 0.85453 0.81389 0.95854 0.0
H1309 H 0.79669 0.80846 0.13577 0.0
H1310 H 0.80494 0.80069 0.09008 0.0
C1311 C 0.85887 0.80883 0.93207 0.0
C1312 C 0.82814 0.81845 0.99283 0.0
H1313 H 0.84886 0.86044 0.04248 0.0
C1314 C 0.807 0.80256 1.00558 0.0
C1315 C 0.84308 0.83993 1.0061 0.0
C1316 C 0.86513 0.85875 0.99293 0.0
C1317 C 0.80047 0.80736 0.03095 0.0
C1318 C 0.81597 0.82826 0.04489 0.0
C1319 C 0.83701 0.84431 0.03208 0.0
C1320 C 0.81095 0.83341 0.07299 0.0
C1321 C 0.77662 0.79017 0.04204 0.0
C1322 C 0.81238 0.85487 0.07931 0.0
C1323 C 0.80813 0.85968 0.10594 0.0
C1324 C 0.80219 0.84304 0.12678 0.0
C1325 C 0.80075 0.8216 0.12028 0.0
C1326 C 0.80537 0.81701 0.09394 0.0
H1327 H 0.76418 0.7803 0.02537 0.0
H1328 H 0.77806 0.77729 0.05516 0.0
H1329 H 0.76919 0.79902 0.05424 0.0
H1330 H 0.81681 0.86796 0.06364 0.0
H1331 H 0.80963 0.87645 0.11021 0.0
H1332 H 0.21159 0.01535 0.90684 0.0
H1333 H 0.20223 -0.00134 0.95255 0.0
H1334 H 0.16687 0.03708 0.96972 0.0
H1335 H 0.1763 0.05409 0.92393 0.0
H1336 H 0.19446 0.03749 1.01297 0.0
H1337 H 0.13723 0.94704 0.97601 0.0
H1338 H 0.16614 0.96096 0.96179 0.0
H1339 H 0.14702 0.97226 0.95427 0.0
C1340 C 0.20199 0.02047 0.92034 0.0
C1341 C 0.19461 0.03603 0.91148 0.0
C1342 C 0.19647 0.01071 0.94647 0.0
C1343 C 0.18333 0.01612 0.96443 0.0
C1344 C 0.17682 0.03243 0.95616 0.0
H1345 H 0.11451 0.93998 0.11435 0.0
H1346 H 0.1226 0.9561 0.06802 0.0
C1347 C 0.18232 0.04223 0.92996 0.0
C1348 C 0.17636 0.00469 0.99172 0.0
H1349 H 0.14682 0.9514 0.02318 0.0
C1350 C 0.18397 0.01868 1.01517 0.0
C1351 C 0.16233 0.98013 0.99471 0.0
C1352 C 0.15249 0.9642 0.97038 0.0
C1353 C 0.17852 0.00879 0.04141 0.0
C1354 C 0.16534 0.98417 0.0444 0.0
C1355 C 0.15714 0.97022 0.02096 0.0
C1356 C 0.16021 0.97272 0.0717 0.0
C1357 C 0.18676 0.02485 0.06576 0.0
C1358 C 0.17855 0.97585 0.08885 0.0
C1359 C 0.174 0.96661 0.11522 0.0
C1360 C 0.15093 0.95385 0.12516 0.0
C1361 C 0.13247 0.94967 0.10745 0.0
C1362 C 0.13708 0.95897 0.08096 0.0
H1363 H 0.19091 0.04283 0.06027 0.0
H1364 H 0.17337 0.01819 0.08211 0.0
H1365 H 0.2029 0.02588 0.07397 0.0
H1366 H 0.1965 0.98586 0.08199 0.0
H1367 H 0.1887 0.97006 0.12808 0.0
H1368 H 0.64182 0.52862 0.2389 0.0
H1369 H 0.65851 0.53644 0.28462 0.0
H1370 H 0.62324 0.46254 0.3012 0.0
H1371 H 0.60619 0.45448 0.25541 0.0
H1372 H 0.62169 0.48836 0.34496 0.0
H1373 H 0.71248 0.52653 0.30685 0.0
H1374 H 0.69724 0.54041 0.29332 0.0
H1375 H 0.68729 0.51033 0.28525 0.0
C1376 C 0.63736 0.51396 0.25229 0.0
C1377 C 0.62272 0.49087 0.24326 0.0
C1378 C 0.64713 0.51849 0.27843 0.0
C1379 C 0.64268 0.50008 0.29619 0.0
C1380 C 0.62716 0.47705 0.28779 0.0
H1381 H 0.72282 0.51136 0.44386 0.0
H1382 H 0.70596 0.50286 0.39791 0.0
C1383 C 0.61732 0.47247 0.2616 0.0
C1384 C 0.65439 0.50491 0.32334 0.0
H1385 H 0.70808 0.53106 0.35418 0.0
C1386 C 0.64057 0.49761 0.34695 0.0
C1387 C 0.67906 0.51665 0.32604 0.0
C1388 C 0.69491 0.52374 0.30153 0.0
C1389 C 0.65071 0.5023 0.37307 0.0
C1390 C 0.67538 0.51495 0.37579 0.0
C1391 C 0.6892 0.52164 0.35218 0.0
C1392 C 0.68707 0.52151 0.40297 0.0
C1393 C 0.63484 0.49339 0.39756 0.0
C1394 C 0.68283 0.53556 0.42079 0.0
C1395 C 0.69248 0.5405 0.44697 0.0
C1396 C 0.70678 0.53166 0.45603 0.0
C1397 C 0.71195 0.51852 0.43765 0.0
C1398 C 0.70223 0.51356 0.41138 0.0
H1399 H 0.61721 0.4788 0.39213 0.0
H1400 H 0.64235 0.48728 0.41364 0.0
H1401 H 0.63272 0.50775 0.4061 0.0
H1402 H 0.6717 0.54242 0.4146 0.0
H1403 H 0.68815 0.55077 0.46038 0.0
H1404 H 0.44518 0.14276 0.45434 0.0
H1405 H 0.45543 0.13608 0.40888 0.0
H1406 H 0.49967 0.21026 0.39754 0.0
H1407 H 0.48951 0.21723 0.44335 0.0
H1408 H 0.47167 0.18574 0.35089 0.0
H1409 H 0.52013 0.14376 0.39112 0.0
H1410 H 0.49081 0.13135 0.40383 0.0
H1411 H 0.51209 0.16102 0.41215 0.0
C1412 C 0.45692 0.15777 0.44218 0.0
C1413 C 0.46664 0.18058 0.45274 0.0
C1414 C 0.4629 0.15386 0.41618 0.0
C1415 C 0.47877 0.1726 0.39999 0.0
C1416 C 0.48757 0.19549 0.40977 0.0
H1417 H 0.54697 0.15872 0.25255 0.0
H1418 H 0.53963 0.16858 0.29834 0.0
C1419 C 0.48163 0.19946 0.43593 0.0
C1420 C 0.48632 0.16807 0.37314 0.0
H1421 H 0.5125 0.14015 0.34344 0.0
C1422 C 0.48074 0.17592 0.34928 0.0
C1423 C 0.49845 0.15552 0.37097 0.0
C1424 C 0.50595 0.14759 0.39586 0.0
C1425 C 0.4862 0.17084 0.32338 0.0
C1426 C 0.49738 0.15736 0.32118 0.0
C1427 C 0.50373 0.15025 0.34506 0.0
C1428 C 0.50198 0.14999 0.29425 0.0
C1429 C 0.47996 0.17997 0.29852 0.0
C1430 C 0.48328 0.13551 0.27711 0.0
C1431 C 0.48739 0.12972 0.2511 0.0
C1432 C 0.51034 0.13821 0.24147 0.0
C1433 C 0.52907 0.15181 0.2592 0.0
C1434 C 0.52491 0.15757 0.28537 0.0
H1435 H 0.47725 0.19483 0.30358 0.0
H1436 H 0.49382 0.18576 0.28278 0.0
H1437 H 0.46346 0.16581 0.28969 0.0
H1438 H 0.46543 0.12899 0.28368 0.0
H1439 H 0.47246 0.11912 0.23823 0.0
H1440 H 0.88362 0.36246 0.24661 0.0
H1441 H 0.87332 0.34523 0.2919 0.0
H1442 H 0.82452 0.36998 0.30097 0.0
H1443 H 0.83469 0.38737 0.25525 0.0
H1444 H 0.85298 0.37502 0.34911 0.0
H1445 H 0.8092 0.2852 0.30672 0.0
H1446 H 0.83847 0.30385 0.29459 0.0
H1447 H 0.81598 0.31055 0.28632 0.0
C1448 C 0.87091 0.3646 0.25825 0.0
C1449 C 0.85988 0.37624 0.24703 0.0
C1450 C 0.86492 0.35454 0.28416 0.0
C1451 C 0.84776 0.35581 0.29962 0.0
C1452 C 0.83766 0.36857 0.28929 0.0
H1453 H 0.77921 0.2699 0.44443 0.0
H1454 H 0.78686 0.28782 0.39906 0.0
C1455 C 0.8436 0.37864 0.26319 0.0
C1456 C 0.8401 0.34323 0.32617 0.0
H1457 H 0.81564 0.2887 0.35458 0.0
C1458 C 0.84467 0.35615 0.3503 0.0
C1459 C 0.82896 0.31854 0.32775 0.0
C1460 C 0.82264 0.30364 0.30248 0.0
C1461 C 0.83919 0.34513 0.37595 0.0
C1462 C 0.82901 0.32053 0.37758 0.0
C1463 C 0.82365 0.30754 0.3534 0.0
C1464 C 0.82437 0.30813 0.40424 0.0
C1465 C 0.84432 0.35995 0.40114 0.0
C1466 C 0.84293 0.31279 0.42184 0.0
C1467 C 0.83866 0.30245 0.44763 0.0
C1468 C 0.81566 0.28712 0.45656 0.0
C1469 C 0.79713 0.28154 0.43833 0.0
C1470 C 0.80147 0.29189 0.4124 0.0
H1471 H 0.84637 0.3773 0.39639 0.0
H1472 H 0.83019 0.3511 0.41645 0.0
H1473 H 0.86088 0.36282 0.41038 0.0
H1474 H 0.86079 0.32482 0.41581 0.0
H1475 H 0.85344 0.30712 0.46092 0.0
H1476 H 0.34207 0.87216 0.79882 0.0
H1477 H 0.32517 0.86304 0.75341 0.0
H1478 H 0.37873 0.84824 0.72729 0.0
H1479 H 0.39521 0.85632 0.77337 0.0
H1480 H 0.33868 0.88033 0.70568 0.0
H1481 H 0.3228 0.78984 0.70237 0.0
H1482 H 0.33222 0.80726 0.7329 0.0
H1483 H 0.3531 0.81098 0.707 0.0
C1484 C 0.35041 0.86704 0.78348 0.0
C1485 C 0.36999 0.86483 0.78998 0.0
C1486 C 0.34065 0.86179 0.75738 0.0
C1487 C 0.35022 0.85434 0.73685 0.0
C1488 C 0.37045 0.85316 0.74288 0.0
H1489 H 0.31568 0.85303 0.56537 0.0
H1490 H 0.33232 0.86292 0.61084 0.0
C1491 C 0.38007 0.85809 0.76921 0.0
C1492 C 0.33889 0.84797 0.70934 0.0
H1493 H 0.31654 0.80477 0.66117 0.0
C1494 C 0.33379 0.86374 0.69605 0.0
C1495 C 0.33194 0.82613 0.69679 0.0
C1496 C 0.33505 0.80748 0.71061 0.0
C1497 C 0.32228 0.85849 0.67072 0.0
C1498 C 0.31637 0.83714 0.65756 0.0
C1499 C 0.3212 0.82123 0.67097 0.0
C1500 C 0.30559 0.83115 0.62978 0.0
C1501 C 0.31604 0.8757 0.65879 0.0
C1502 C 0.28522 0.8096 0.62469 0.0
C1503 C 0.2758 0.80361 0.59832 0.0
C1504 C 0.28647 0.81909 0.57641 0.0
C1505 C 0.30669 0.84074 0.58168 0.0
C1506 C 0.31623 0.84654 0.60787 0.0
H1507 H 0.31415 0.8864 0.67493 0.0
H1508 H 0.33026 0.88781 0.64501 0.0
H1509 H 0.29949 0.86673 0.64703 0.0
H1510 H 0.27667 0.7973 0.64113 0.0
H1511 H 0.26034 0.78674 0.59506 0.0
H1512 H 0.21363 0.47705 0.59437 0.0
H1513 H 0.20608 0.48624 0.64068 0.0
H1514 H 0.14434 0.48578 0.61136 0.0
H1515 H 0.15094 0.47554 0.56627 0.0
H1516 H 0.20276 0.52125 0.66329 0.0
H1517 H 0.11627 0.44192 0.67283 0.0
H1518 H 0.13592 0.44574 0.64537 0.0
H1519 H 0.11701 0.45807 0.64325 0.0
C1520 C 0.19832 0.47863 0.59801 0.0
C1521 C 0.1826 0.47492 0.57669 0.0
C1522 C 0.19405 0.48399 0.62443 0.0
C1523 C 0.17417 0.48603 0.62986 0.0
C1524 C 0.15921 0.48338 0.60821 0.0
H1525 H 0.15217 0.55155 0.77566 0.0
H1526 H 0.1625 0.54471 0.72982 0.0
C1527 C 0.16313 0.47756 0.58223 0.0
C1528 C 0.16871 0.49096 0.65784 0.0
H1529 H 0.12391 0.47309 0.70342 0.0
C1530 C 0.18561 0.51056 0.67224 0.0
C1531 C 0.14643 0.47692 0.66989 0.0
C1532 C 0.128 0.45437 0.65713 0.0
C1533 C 0.1807 0.5167 0.69793 0.0
C1534 C 0.15797 0.50338 0.70921 0.0
C1535 C 0.14124 0.48365 0.69485 0.0
C1536 C 0.15137 0.50821 0.73669 0.0
C1537 C 0.20018 0.53701 0.71296 0.0
C1538 C 0.14059 0.4899 0.75555 0.0
C1539 C 0.13395 0.49356 0.7812 0.0
C1540 C 0.13819 0.51582 0.78922 0.0
C1541 C 0.14867 0.53421 0.77027 0.0
C1542 C 0.15493 0.53037 0.74415 0.0
H1543 H 0.21763 0.54081 0.70556 0.0
H1544 H 0.19877 0.55285 0.70951 0.0
H1545 H 0.19917 0.5336 0.73517 0.0
H1546 H 0.13752 0.47262 0.75059 0.0
H1547 H 0.12602 0.47886 0.79506 0.0
H1548 H 0.44638 0.60311 0.77693 0.0
H1549 H 0.4559 0.61968 0.73096 0.0
H1550 H 0.52925 0.65559 0.75102 0.0
H1551 H 0.51996 0.63941 0.79691 0.0
H1552 H 0.5161 0.68485 0.72766 0.0
H1553 H 0.48377 0.60442 0.6656 0.0
H1554 H 0.46245 0.60407 0.68856 0.0
H1555 H 0.48811 0.60473 0.7019 0.0
C1556 C 0.46457 0.61415 0.77142 0.0
C1557 C 0.48237 0.61982 0.79076 0.0
C1558 C 0.47 0.62364 0.74506 0.0
C1559 C 0.49334 0.63884 0.73736 0.0
C1560 C 0.51112 0.64397 0.75639 0.0
H1561 H 0.5474 0.68646 0.57436 0.0
H1562 H 0.53856 0.66963 0.62001 0.0
C1563 C 0.50574 0.63457 0.78268 0.0
C1564 C 0.4993 0.6504 0.71007 0.0
H1565 H 0.49529 0.63969 0.64161 0.0
C1566 C 0.51155 0.67495 0.70885 0.0
C1567 C 0.49362 0.63757 0.68546 0.0
C1568 C 0.48146 0.61125 0.68531 0.0
C1569 C 0.51811 0.68696 0.68383 0.0
C1570 C 0.51197 0.67413 0.6592 0.0
C1571 C 0.49987 0.64958 0.66042 0.0
C1572 C 0.51841 0.68575 0.63196 0.0
C1573 C 0.53204 0.7133 0.68405 0.0
C1574 C 0.51028 0.70073 0.62338 0.0
C1575 C 0.51542 0.71055 0.59718 0.0
C1576 C 0.52867 0.70547 0.57887 0.0
C1577 C 0.53717 0.69085 0.5878 0.0
C1578 C 0.53205 0.68108 0.61394 0.0
H1579 H 0.54046 0.72019 0.70411 0.0
H1580 H 0.5458 0.71997 0.66812 0.0
H1581 H 0.52018 0.72027 0.67984 0.0
H1582 H 0.49939 0.70432 0.63667 0.0
H1583 H 0.50836 0.7215 0.591 0.0
H1584 H 0.10317 0.9828 0.23071 0.0
H1585 H 0.1003 0.01817 0.22902 0.0
H1586 H 0.17545 0.06042 0.22886 0.0
H1587 H 0.1786 0.02509 0.23083 0.0
H1588 H 0.15148 0.07919 0.26046 0.0
H1589 H 0.117 0.05395 0.15542 0.0
H1590 H 0.10111 0.0318 0.18049 0.0
H1591 H 0.13105 0.04045 0.17331 0.0
C1592 C 0.11913 -0.00041 0.2309 0.0
C1593 C 0.14113 0.00106 0.2305 0.0
C1594 C 0.11744 0.01979 0.22981 0.0
C1595 C 0.13766 0.04183 0.22815 0.0
C1596 C 0.15964 0.04352 0.2299 0.0
H1597 H 0.13029 0.16022 0.16051 0.0
H1598 H 0.14339 0.13233 0.17075 0.0
C1599 C 0.16138 0.02329 0.23109 0.0
C1600 C 0.13573 0.06278 0.22237 0.0
H1601 H 0.11488 0.08561 0.17513 0.0
C1602 C 0.14362 0.08072 0.24176 0.0
C1603 C 0.12599 0.06496 0.19766 0.0
C1604 C 0.1185 0.0469 0.17538 0.0
C1605 C 0.14112 0.10039 0.23753 0.0
C1606 C 0.13017 0.10191 0.21345 0.0
C1607 C 0.12314 0.08438 0.19365 0.0
C1608 C 0.12458 0.12077 0.20885 0.0
C1609 C 0.15025 0.11935 0.25883 0.0
C1610 C 0.10979 0.12363 0.22693 0.0
C1611 C 0.10231 0.13953 0.22116 0.0
C1612 C 0.10928 0.15276 0.19702 0.0
C1613 C 0.12459 0.15031 0.17925 0.0
C1614 C 0.1321 0.13438 0.18508 0.0
H1615 H 0.1644 0.11939 0.2711 0.0
H1616 H 0.15703 0.13685 0.24946 0.0
H1617 H 0.13583 0.1162 0.2729 0.0
H1618 H 0.10329 0.11294 0.24505 0.0
H1619 H 0.09051 0.14094 0.23531 0.0
H1620 H 0.96984 0.15233 0.21685 0.0
H1621 H 0.93468 0.11373 0.21571 0.0
H1622 H 0.97674 0.08151 0.22878 0.0
H1623 H 0.01197 0.11991 0.22945 0.0
H1624 H 0.94944 0.06535 0.18322 0.0
H1625 H 0.89613 0.06321 0.27166 0.0
H1626 H 0.90582 0.08823 0.24992 0.0
H1627 H 0.92691 0.08425 0.26871 0.0
C1628 C 0.97157 0.13707 0.22023 0.0
C1629 C 0.99376 0.13921 0.22304 0.0
C1630 C 0.9514 0.11499 0.21963 0.0
C1631 C 0.95308 0.09474 0.2222 0.0
C1632 C 0.97506 0.09692 0.22669 0.0
H1633 H 0.85067 0.94941 0.23461 0.0
H1634 H 0.87911 0.9905 0.24228 0.0
C1635 C 0.99519 0.11891 0.22712 0.0
C1636 C 0.93251 0.0713 0.21719 0.0
H1637 H 0.87786 0.03196 0.24004 0.0
C1638 C 0.93378 0.05805 0.19565 0.0
C1639 C 0.91214 0.06184 0.23344 0.0
C1640 C 0.91014 0.075 0.25739 0.0
C1641 C 0.91539 0.03548 0.19007 0.0
C1642 C 0.89487 0.02606 0.2061 0.0
C1643 C 0.8935 0.03936 0.22757 0.0
C1644 C 0.87553 0.00176 0.20213 0.0
C1645 C 0.91844 0.02162 0.16764 0.0
C1646 C 0.86351 0.99454 0.17725 0.0
C1647 C 0.8473 0.97094 0.17266 0.0
C1648 C 0.84275 0.95422 0.19299 0.0
C1649 C 0.85389 0.96177 0.21839 0.0
C1650 C 0.87011 0.98529 0.22289 0.0
H1651 H 0.93704 0.02931 0.1615 0.0
H1652 H 0.91182 0.00326 0.17406 0.0
H1653 H 0.90835 0.02146 0.14951 0.0
H1654 H 0.86712 0.00707 0.16113 0.0
H1655 H 0.83887 0.96574 0.15298 0.0
H1656 H 0.8776 0.89521 0.23036 0.0
H1657 H 0.91605 0.89844 0.22846 0.0
H1658 H 0.88381 0.82346 0.23256 0.0
H1659 H 0.84525 0.82 0.23501 0.0
H1660 H 0.92596 0.84671 0.26136 0.0
H1661 H 0.93513 0.8813 0.15653 0.0
H1662 H 0.92995 0.89804 0.18145 0.0
H1663 H 0.90782 0.86827 0.17488 0.0
C1664 C 0.87867 0.8794 0.23147 0.0
C1665 C 0.85829 0.85733 0.23242 0.0
C1666 C 0.90066 0.88129 0.23018 0.0
C1667 C 0.90269 0.86116 0.22954 0.0
C1668 C 0.88258 0.8392 0.23272 0.0
H1669 H 0.02798 0.8681 0.16048 0.0
H1670 H 0.98698 0.85533 0.17055 0.0
C1671 C 0.86055 0.83728 0.2342 0.0
C1672 C 0.92552 0.86297 0.22357 0.0
H1673 H 0.96903 0.88342 0.17613 0.0
C1674 C 0.93535 0.85461 0.24268 0.0
C1675 C 0.93741 0.87266 0.19883 0.0
C1676 C 0.92696 0.88036 0.1766 0.0
C1677 C 0.95729 0.85661 0.23818 0.0
C1678 C 0.96982 0.86764 0.21417 0.0
C1679 C 0.95952 0.87513 0.19463 0.0
C1680 C 0.99417 0.87293 0.20949 0.0
C1681 C 0.96674 0.84679 0.25912 0.0
C1682 C 0.01178 0.88692 0.22806 0.0
C1683 C 0.03512 0.89413 0.22244 0.0
C1684 C 0.04142 0.88777 0.19789 0.0
C1685 C 0.02372 0.87331 0.17954 0.0
C1686 C 0.0003 0.866 0.18527 0.0
H1687 H 0.95239 0.83238 0.27084 0.0
H1688 H 0.97748 0.84013 0.24952 0.0
H1689 H 0.97787 0.86076 0.27375 0.0
H1690 H 0.00761 0.89302 0.24652 0.0
H1691 H 0.04828 0.9053 0.23703 0.0
H1692 H 0.01216 0.15433 0.78672 0.0
H1693 H 0.04509 0.1473 0.78507 0.0
H1694 H 0.00161 0.07853 0.81882 0.0
H1695 H 0.96853 0.08516 0.82005 0.0
H1696 H 0.06416 0.14031 0.83008 0.0
H1697 H 0.03631 0.06514 0.76075 0.0
H1698 H 0.02174 0.08206 0.76183 0.0
H1699 H 0.01475 0.05926 0.78638 0.0
C1700 C 0.00941 0.13745 0.79311 0.0
C1701 C 0.9877 0.12034 0.80365 0.0
C1702 C 0.02829 0.13351 0.79221 0.0
C1703 C 0.0258 0.11235 0.80166 0.0
C1704 C 0.00385 0.0948 0.81087 0.0
H1705 H 0.10623 0.05557 0.86365 0.0
H1706 H 0.0778 0.06723 0.85111 0.0
C1707 C 0.98493 0.09868 0.81167 0.0
C1708 C 0.04657 0.10957 0.80492 0.0
H1709 H 0.06674 0.07192 0.7929 0.0
C1710 C 0.06496 0.12562 0.82151 0.0
C1711 C 0.04759 0.0904 0.79372 0.0
C1712 C 0.02914 0.07339 0.77445 0.0
C1713 C 0.08374 0.12232 0.82832 0.0
C1714 C 0.08411 0.10254 0.81819 0.0
C1715 C 0.06624 0.08699 0.80077 0.0
C1716 C 0.10204 0.09678 0.82685 0.0
C1717 C 0.1025 0.13933 0.84729 0.0
C1718 C 0.12518 0.10983 0.81763 0.0
C1719 C 0.14157 0.10322 0.82476 0.0
C1720 C 0.13498 0.08344 0.84119 0.0
C1721 C 0.11191 0.07089 0.85099 0.0
C1722 C 0.09559 0.07745 0.84377 0.0
H1723 H 0.0983 0.15238 0.85574 0.0
H1724 H 0.105 0.12982 0.8644 0.0
H1725 H 0.11932 0.14878 0.83613 0.0
H1726 H 0.13039 0.12475 0.80441 0.0
H1727 H 0.15917 0.11319 0.8168 0.0
H1728 H 0.87091 0.03912 0.81313 0.0
H1729 H 0.85474 0.99793 0.80099 0.0
H1730 H 0.89294 0.98961 0.86704 0.0
H1731 H 0.9092 0.03066 0.87929 0.0
H1732 H 0.88365 0.97873 0.78607 0.0
H1733 H 0.82632 0.93218 0.87375 0.0
H1734 H 0.83546 0.96223 0.8657 0.0
H1735 H 0.85491 0.95513 0.88342 0.0
C1736 C 0.87547 0.0284 0.82545 0.0
C1737 C 0.89139 0.03817 0.84716 0.0
C1738 C 0.86628 0.00491 0.8184 0.0
C1739 C 0.87254 0.99074 0.83321 0.0
C1740 C 0.88763 0.00018 0.85558 0.0
H1741 H 0.89185 0.87633 0.80479 0.0
H1742 H 0.89373 0.91411 0.80469 0.0
C1743 C 0.89697 0.02367 0.8625 0.0
C1744 C 0.86512 0.96669 0.82406 0.0
H1745 H 0.83858 0.91029 0.84624 0.0
C1746 C 0.87343 0.96367 0.79897 0.0
C1747 C 0.8516 0.94708 0.84078 0.0
C1748 C 0.84134 0.94921 0.86731 0.0
C1749 C 0.86971 0.94169 0.79091 0.0
C1750 C 0.85753 0.92237 0.8085 0.0
C1751 C 0.84804 0.92516 0.83283 0.0
C1752 C 0.85624 0.89967 0.80348 0.0
C1753 C 0.87926 0.93943 0.76393 0.0
C1754 C 0.83454 0.87898 0.80229 0.0
C1755 C 0.83338 0.85727 0.80232 0.0
C1756 C 0.85394 0.8559 0.80397 0.0
C1757 C 0.87568 0.87672 0.80351 0.0
C1758 C 0.8768 0.89838 0.80333 0.0
H1759 H 0.88153 0.95339 0.74957 0.0
H1760 H 0.89666 0.94109 0.76719 0.0
H1761 H 0.86761 0.92216 0.75445 0.0
H1762 H 0.81847 0.87962 0.80251 0.0
H1763 H 0.81634 0.84162 0.80272 0.0
H1764 H 0.14905 0.97057 0.80139 0.0
H1765 H 0.10949 0.93674 0.8002 0.0
H1766 H 0.08071 0.98257 0.80338 0.0
H1767 H 0.12003 0.01643 0.80448 0.0
H1768 H 0.07863 0.92802 0.84374 0.0
H1769 H 0.03949 0.93369 0.74634 0.0
H1770 H 0.07071 0.94853 0.75195 0.0
H1771 H 0.05366 0.96078 0.76475 0.0
C1772 C 0.13433 0.97351 0.80102 0.0
C1773 C 0.13772 0.99622 0.8032 0.0
C1774 C 0.11174 0.95413 0.80043 0.0
C1775 C 0.0922 0.95716 0.80157 0.0
C1776 C 0.09554 0.97984 0.80204 0.0
H1777 H 0.95771 0.88301 0.87285 0.0
H1778 H -0.00099 0.90773 0.8613 0.0
C1779 C 0.11807 -0.0008 0.80279 0.0
C1780 C 0.06852 0.93688 0.80586 0.0
H1781 H 0.01262 0.91059 0.78169 0.0
C1782 C 0.06426 0.92392 0.82994 0.0
C1783 C 0.04986 0.93151 0.78778 0.0
C1784 C 0.05365 0.94421 0.76112 0.0
C1785 C 0.04159 0.90651 0.83708 0.0
C1786 C 0.02275 0.90211 0.81977 0.0
C1787 C 0.02714 0.91419 0.79502 0.0
C1788 C -0.00178 0.88611 0.82781 0.0
C1789 C 0.03786 0.89329 0.86335 0.0
C1790 C 0.98417 0.86577 0.8128 0.0
C1791 C 0.96058 0.85152 0.81945 0.0
C1792 C 0.95059 0.85761 0.84096 0.0
C1793 C 0.96487 0.87782 0.85621 0.0
C1794 C 0.98848 0.89193 0.8497 0.0
H1795 H 0.05431 0.89449 0.87079 0.0
H1796 H 0.03157 0.90081 0.87915 0.0
H1797 H 0.02445 0.87459 0.86078 0.0
H1798 H 0.99141 0.86109 0.79577 0.0
H1799 H 0.95003 0.83612 0.80722 0.0
H1800 H 0.76018 0.30922 0.55655 0.0
H1801 H 0.7559 0.34384 0.55567 0.0
H1802 H 0.83022 0.38789 0.56679 0.0
H1803 H 0.8348 0.35343 0.56763 0.0
H1804 H 0.7707 0.38409 0.59216 0.0
H1805 H 0.81465 0.40614 0.491 0.0
H1806 H 0.80334 0.37769 0.50633 0.0
H1807 H 0.83007 0.40195 0.51861 0.0
C1808 C 0.77559 0.32621 0.55941 0.0
C1809 C 0.79788 0.32854 0.56176 0.0
C1810 C 0.77309 0.34597 0.5589 0.0
C1811 C 0.7928 0.36836 0.56066 0.0
C1812 C 0.81485 0.37073 0.56502 0.0
H1813 H 0.78168 0.49542 0.55625 0.0
H1814 H 0.79536 0.46813 0.56742 0.0
C1815 C 0.81738 0.35098 0.56562 0.0
C1816 C 0.79039 0.38908 0.55546 0.0
H1817 H 0.80086 0.43045 0.50731 0.0
C1818 C 0.77753 0.39445 0.57382 0.0
C1819 C 0.79913 0.40231 0.53131 0.0
C1820 C 0.81245 0.39675 0.5105 0.0
C1821 C 0.77284 0.41257 0.56842 0.0
C1822 C 0.78136 0.42561 0.54413 0.0
C1823 C 0.79456 0.4205 0.52601 0.0
C1824 C 0.77498 0.44324 0.53607 0.0
C1825 C 0.75803 0.41704 0.58815 0.0
C1826 C 0.75967 0.43859 0.51415 0.0
C1827 C 0.75183 0.45408 0.50771 0.0
C1828 C 0.75931 0.47458 0.52298 0.0
C1829 C 0.77556 0.47975 0.54412 0.0
C1830 C 0.7833 0.46415 0.55065 0.0
H1831 H 0.74999 0.40321 0.60394 0.0
H1832 H 0.76906 0.43402 0.5985 0.0
H1833 H 0.74391 0.41813 0.57716 0.0
H1834 H 0.75317 0.42257 0.5026 0.0
H1835 H 0.7394 0.44963 0.49125 0.0
H1836 H 0.68571 0.45365 0.56027 0.0
H1837 H 0.65134 0.41462 0.56113 0.0
H1838 H 0.60669 0.44455 0.56793 0.0
H1839 H 0.64099 0.48382 0.56689 0.0
H1840 H 0.61162 0.39 0.59727 0.0
H1841 H 0.5883 0.40787 0.49459 0.0
H1842 H 0.61666 0.42618 0.50968 0.0
H1843 H 0.59187 0.42801 0.52125 0.0
C1844 C 0.66864 0.45201 0.56252 0.0
C1845 C 0.66611 0.47191 0.5631 0.0
C1846 C 0.64901 0.42965 0.56304 0.0
C1847 C 0.62651 0.42677 0.56409 0.0
C1848 C 0.62394 0.44648 0.56672 0.0
H1849 H 0.50209 0.28579 0.56151 0.0
H1850 H 0.52838 0.32698 0.57296 0.0
C1851 C 0.64358 0.4689 0.56626 0.0
C1852 C 0.60598 0.40327 0.55979 0.0
H1853 H 0.56511 0.37006 0.51211 0.0
C1854 C 0.60118 0.38565 0.57888 0.0
C1855 C 0.59265 0.3977 0.53555 0.0
C1856 C 0.59762 0.41582 0.51393 0.0
C1857 C 0.58367 0.36243 0.5741 0.0
C1858 C 0.57064 0.35683 0.54967 0.0
C1859 C 0.57506 0.37453 0.53089 0.0
C1860 C 0.55391 0.33237 0.54206 0.0
C1861 C 0.57992 0.34386 0.59457 0.0
C1862 C 0.55931 0.32206 0.52044 0.0
C1863 C 0.54441 0.29863 0.51385 0.0
C1864 C 0.52371 0.28512 0.52866 0.0
C1865 C 0.51792 0.29573 0.54974 0.0
C1866 C 0.53295 0.31919 0.55642 0.0
H1867 H 0.59365 0.35056 0.61056 0.0
H1868 H 0.5627 0.33734 0.60459 0.0
H1869 H 0.57972 0.32882 0.58425 0.0
H1870 H 0.57538 0.33202 0.50907 0.0
H1871 H 0.54934 0.29103 0.49745 0.0
H1872 H 0.69333 0.21391 0.48049 0.0
H1873 H 0.65261 0.202 0.49078 0.0
H1874 H 0.66965 0.21507 0.57607 0.0
H1875 H 0.71003 0.22612 0.56615 0.0
H1876 H 0.62719 0.17719 0.56916 0.0
H1877 H 0.63462 0.25066 0.50704 0.0
H1878 H 0.63994 0.23068 0.48792 0.0
H1879 H 0.65952 0.24748 0.51502 0.0
C1880 C 0.68832 0.21392 0.50147 0.0
C1881 C 0.70501 0.2213 0.52243 0.0
C1882 C 0.66508 0.20727 0.50731 0.0
C1883 C 0.65824 0.20829 0.53411 0.0
C1884 C 0.67456 0.21432 0.55522 0.0
H1885 H 0.53914 0.22528 0.56845 0.0
H1886 H 0.57807 0.22954 0.5683 0.0
C1887 C 0.69769 0.22068 0.54947 0.0
C1888 C 0.63454 0.20442 0.5401 0.0
H1889 H 0.59716 0.2242 0.52449 0.0
C1890 C 0.6206 0.18749 0.55945 0.0
C1891 C 0.6262 0.21825 0.52792 0.0
C1892 C 0.64092 0.23795 0.50854 0.0
C1893 C 0.5984 0.18377 0.56664 0.0
C1894 C 0.5897 0.19696 0.5536 0.0
C1895 C 0.60377 0.21404 0.53447 0.0
C1896 C 0.56592 0.19327 0.5588 0.0
C1897 C 0.58478 0.16614 0.58851 0.0
C1898 C 0.54604 0.17128 0.55453 0.0
C1899 C 0.52372 0.16871 0.55513 0.0
C1900 C 0.5209 0.1882 0.55938 0.0
C1901 C 0.54073 0.20994 0.56506 0.0
C1902 C 0.563 0.21241 0.56488 0.0
H1903 H 0.59656 0.16354 0.60242 0.0
H1904 H 0.5742 0.17157 0.60077 0.0
H1905 H 0.5728 0.14906 0.57887 0.0
H1906 H 0.5478 0.15635 0.54917 0.0
H1907 H 0.50883 0.15177 0.55039 0.0
H1908 H 0.80576 0.42239 0.13201 0.0
H1909 H 0.777 0.43425 0.12261 0.0
H1910 H 0.79154 0.46907 0.20034 0.0
H1911 H 0.82009 0.45674 0.21028 0.0
H1912 H 0.74557 0.44059 0.19264 0.0
H1913 H 0.78273 0.49573 0.10109 0.0
H1914 H 0.78001 0.46751 0.0971 0.0
H1915 H 0.79953 0.48733 0.12245 0.0
C1916 C 0.80312 0.43284 0.14702 0.0
C1917 C 0.81519 0.43855 0.17198 0.0
C1918 C 0.78677 0.43978 0.14147 0.0
C1919 C 0.78235 0.45286 0.16057 0.0
C1920 C 0.79478 0.4591 0.18523 0.0
H1921 H 0.69024 0.51015 0.13763 0.0
H1922 H 0.72421 0.50479 0.13982 0.0
C1923 C 0.8111 0.45206 0.19088 0.0
C1924 C 0.76328 0.45812 0.15578 0.0
H1925 H 0.74212 0.48189 0.10999 0.0
C1926 C 0.74494 0.44981 0.17469 0.0
C1927 C 0.76256 0.47035 0.13248 0.0
C1928 C 0.78239 0.48095 0.11227 0.0
C1929 C 0.72564 0.45287 0.17065 0.0
C1930 C 0.72431 0.46401 0.14665 0.0
C1931 C 0.74295 0.47294 0.12809 0.0
C1932 C 0.70394 0.46705 0.14106 0.0
C1933 C 0.70699 0.4444 0.19237 0.0
C1934 C 0.68133 0.44757 0.13956 0.0
C1935 C 0.66184 0.45055 0.13848 0.0
C1936 C 0.66465 0.47309 0.13852 0.0
C1937 C 0.68741 0.49254 0.13766 0.0
C1938 C 0.70689 0.48952 0.13898 0.0
H1939 H 0.71362 0.44223 0.2123 0.0
H1940 H 0.70032 0.45671 0.19502 0.0
H1941 H 0.69215 0.42716 0.18632 0.0
H1942 H 0.6787 0.43005 0.14037 0.0
H1943 H 0.64458 0.43518 0.13887 0.0
H1944 H 0.56313 0.21436 0.13502 0.0
H1945 H 0.56708 0.25307 0.13553 0.0
H1946 H 0.4921 0.2219 0.13354 0.0
H1947 H 0.48787 0.18295 0.13326 0.0
H1948 H 0.5501 0.27736 0.10219 0.0
H1949 H 0.51281 0.25813 0.20691 0.0
H1950 H 0.5225 0.2402 0.19014 0.0
H1951 H 0.49531 0.23814 0.18054 0.0
C1952 C 0.54744 0.21566 0.1341 0.0
C1953 C 0.52517 0.19551 0.13454 0.0
C1954 C 0.54976 0.23783 0.13436 0.0
C1955 C 0.52988 0.24028 0.13513 0.0
C1956 C 0.50764 0.22031 0.1334 0.0
H1957 H 0.54611 0.38087 0.1425 0.0
H1958 H 0.53041 0.33963 0.13087 0.0
C1959 C 0.50529 0.19808 0.13307 0.0
C1960 C 0.53265 0.26358 0.14036 0.0
H1961 H 0.5264 0.29603 0.19021 0.0
C1962 C 0.54461 0.28142 0.12122 0.0
C1963 C 0.52571 0.26879 0.16542 0.0
C1964 C 0.51351 0.25042 0.18709 0.0
C1965 C 0.55031 0.30452 0.12675 0.0
C1966 C 0.54371 0.30977 0.15199 0.0
C1967 C 0.53124 0.29183 0.17082 0.0
C1968 C 0.55156 0.33411 0.16023 0.0
C1969 C 0.5643 0.32334 0.10615 0.0
C1970 C 0.56804 0.34435 0.18119 0.0
C1971 C 0.57702 0.36782 0.1879 0.0
C1972 C 0.56955 0.38145 0.17387 0.0
C1973 C 0.55226 0.37086 0.15365 0.0
C1974 C 0.54336 0.34735 0.14686 0.0
H1975 H 0.57095 0.31693 0.08944 0.0
H1976 H 0.55308 0.32966 0.0971 0.0
H1977 H 0.57936 0.33844 0.11613 0.0
H1978 H 0.57449 0.33433 0.19181 0.0
H1979 H 0.59024 0.37541 0.20363 0.0
H1980 H 0.78595 0.3438 0.13237 0.0
H1981 H 0.74762 0.30845 0.13462 0.0
H1982 H 0.78031 0.26783 0.15397 0.0
H1983 H 0.81884 0.30306 0.15119 0.0
H1984 H 0.74048 0.24385 0.12059 0.0
H1985 H 0.72291 0.28294 0.21092 0.0
H1986 H 0.73012 0.30088 0.18107 0.0
H1987 H 0.75159 0.29508 0.19595 0.0
C1988 C 0.78505 0.32727 0.13648 0.0
C1989 C 0.80543 0.32631 0.142 0.0
C1990 C 0.76312 0.30711 0.13792 0.0
C1991 C 0.76113 0.28569 0.14526 0.0
C1992 C 0.78148 0.28426 0.14855 0.0
H1993 H 0.63075 0.17756 0.21731 0.0
H1994 H 0.67244 0.20408 0.20894 0.0
C1995 C 0.80349 0.30442 0.14686 0.0
C1996 C 0.73792 0.26537 0.15171 0.0
H1997 H 0.69071 0.24837 0.19318 0.0
C1998 C 0.72962 0.24473 0.13655 0.0
C1999 C 0.72406 0.26635 0.17307 0.0
C2000 C 0.73268 0.2874 0.19139 0.0
C2001 C 0.70735 0.22536 0.14144 0.0
C2002 C 0.69294 0.2269 0.16171 0.0
C2003 C 0.70167 0.24723 0.17752 0.0
C2004 C 0.6683 0.20833 0.16598 0.0
C2005 C 0.69954 0.20345 0.12496 0.0
C2006 C 0.65216 0.20168 0.14458 0.0
C2007 C 0.6284 0.18648 0.14926 0.0
C2008 C 0.62021 0.17785 0.17556 0.0
C2009 C 0.63647 0.18391 0.19683 0.0
C2010 C 0.6603 0.19907 0.19208 0.0
H2011 H 0.71473 0.20217 0.11749 0.0
H2012 H 0.68804 0.18757 0.13703 0.0
H2013 H 0.68963 0.20384 0.10692 0.0
H2014 H 0.65778 0.20902 0.12443 0.0
H2015 H 0.61638 0.1822 0.13238 0.0
H2016 H 0.40388 0.78426 0.82269 0.0
H2017 H 0.41622 0.75606 0.83412 0.0
H2018 H 0.45732 0.79963 0.90082 0.0
H2019 H 0.44513 0.82808 0.88951 0.0
H2020 H 0.4642 0.7633 0.84101 0.0
H2021 H 0.40872 0.73351 0.93416 0.0
H2022 H 0.40388 0.74909 0.90708 0.0
H2023 H 0.42807 0.76444 0.92987 0.0
C2024 C 0.41578 0.78802 0.83958 0.0
C2025 C 0.42341 0.80833 0.8553 0.0
C2026 C 0.4228 0.77189 0.84607 0.0
C2027 C 0.43738 0.77567 0.8685 0.0
C2028 C 0.44583 0.79634 0.8836 0.0
H2029 H 0.49509 0.68479 0.90353 0.0
H2030 H 0.49019 0.71905 0.90233 0.0
C2031 C 0.43896 0.81261 0.877 0.0
C2032 C 0.44293 0.75745 0.8765 0.0
H2033 H 0.42947 0.71424 0.92318 0.0
C2034 C 0.45688 0.75274 0.85912 0.0
C2035 C 0.43307 0.74361 0.90002 0.0
C2036 C 0.41747 0.7477 0.91888 0.0
C2037 C 0.46099 0.73426 0.86445 0.0
C2038 C 0.45098 0.72028 0.88785 0.0
C2039 C 0.43726 0.72516 0.90542 0.0
C2040 C 0.45326 0.69948 0.89311 0.0
C2041 C 0.4753 0.72925 0.84449 0.0
C2042 C 0.43384 0.67709 0.88968 0.0
C2043 C 0.43652 0.65743 0.89038 0.0
C2044 C 0.4587 0.65987 0.8946 0.0
C2045 C 0.47778 0.68225 0.90006 0.0
C2046 C 0.47507 0.70189 0.89927 0.0
H2047 H 0.47853 0.73927 0.82527 0.0
H2048 H 0.49245 0.73411 0.85377 0.0
H2049 H 0.46635 0.71033 0.83955 0.0
H2050 H 0.41683 0.67492 0.88504 0.0
H2051 H 0.42143 0.64049 0.88621 0.0
H2052 H 0.30751 0.81726 0.9063 0.0
H2053 H 0.27448 0.77748 0.91143 0.0
H2054 H 0.32035 0.74984 0.8967 0.0
H2055 H 0.35335 0.78925 0.89207 0.0
H2056 H 0.25856 0.74518 0.87103 0.0
H2057 H 0.28219 0.70974 0.95947 0.0
H2058 H 0.29634 0.74068 0.9525 0.0
H2059 H 0.30574 0.72266 0.93547 0.0
C2060 C 0.31068 0.80273 0.90487 0.0
C2061 C 0.3331 0.80648 0.8987 0.0
C2062 C 0.29175 0.78001 0.90773 0.0
C2063 C 0.29497 0.76068 0.90476 0.0
C2064 C 0.3175 0.76445 0.89973 0.0
H2065 H 0.22761 0.61971 0.85909 0.0
H2066 H 0.25251 0.66082 0.87088 0.0
C2067 C 0.33637 0.78707 0.89689 0.0
C2068 C 0.27468 0.7366 0.90374 0.0
H2069 H 0.25576 0.68124 0.9267 0.0
C2070 C 0.25759 0.73127 0.88366 0.0
C2071 C 0.27341 0.71846 0.92025 0.0
C2072 C 0.29029 0.72323 0.94331 0.0
C2073 C 0.24021 0.70809 0.87844 0.0
C2074 C 0.23992 0.68989 0.8938 0.0
C2075 C 0.25619 0.69529 0.91483 0.0
C2076 C 0.22433 0.66508 0.88666 0.0
C2077 C 0.2231 0.70302 0.85555 0.0
C2078 C 0.2002 0.65394 0.89162 0.0
C2079 C 0.18584 0.63034 0.88492 0.0
C2080 C 0.19544 0.61761 0.87313 0.0
C2081 C 0.21961 0.62898 0.86807 0.0
C2082 C 0.23391 0.65245 0.87487 0.0
H2083 H 0.227 0.719 0.84397 0.0
H2084 H 0.22334 0.69011 0.84129 0.0
H2085 H 0.20516 0.69526 0.86397 0.0
H2086 H 0.19256 0.66342 0.90087 0.0
H2087 H 0.1673 0.62205 0.88917 0.0
H2088 H 0.17104 0.48065 0.89382 0.0
H2089 H 0.2092 0.48299 0.89422 0.0
H2090 H 0.24315 0.55785 0.90267 0.0
H2091 H 0.20527 0.55572 0.90251 0.0
H2092 H 0.2417 0.50696 0.85388 0.0
H2093 H 0.28058 0.54127 0.95496 0.0
H2094 H 0.24958 0.52795 0.94852 0.0
H2095 H 0.26907 0.55802 0.9396 0.0
C2096 C 0.18657 0.49754 0.89667 0.0
C2097 C 0.18508 0.51802 0.89797 0.0
C2098 C 0.20838 0.49884 0.89677 0.0
C2099 C 0.22901 0.52057 0.89861 0.0
C2100 C 0.22747 0.54085 0.90171 0.0
H2101 H 0.36231 0.58129 0.82661 0.0
H2102 H 0.32094 0.56362 0.83814 0.0
C2103 C 0.20575 0.5396 0.90147 0.0
C2104 C 0.25208 0.5226 0.89363 0.0
H2105 H 0.30772 0.54783 0.91846 0.0
C2106 C 0.25603 0.51546 0.86823 0.0
C2107 C 0.27072 0.53351 0.91241 0.0
C2108 C 0.26724 0.54041 0.94051 0.0
C2109 C 0.27843 0.52024 0.86048 0.0
C2110 C 0.29738 0.53267 0.8785 0.0
C2111 C 0.29319 0.53851 0.90455 0.0
C2112 C 0.32189 0.54147 0.86996 0.0
C2113 C 0.28174 0.51243 0.83282 0.0
C2114 C 0.33615 0.53485 0.88401 0.0
C2115 C 0.35986 0.54491 0.87742 0.0
C2116 C 0.36975 0.56203 0.85692 0.0
C2117 C 0.35524 0.56815 0.84245 0.0
C2118 C 0.33156 0.55798 0.84893 0.0
H2119 H 0.26519 0.49751 0.82507 0.0
H2120 H 0.28745 0.5271 0.81821 0.0
H2121 H 0.29533 0.50724 0.83341 0.0
H2122 H 0.32903 0.52224 0.9004 0.0
H2123 H 0.37057 0.53988 0.88904 0.0
H2124 H 0.34503 0.82361 0.45595 0.0
H2125 H 0.37832 0.81711 0.454 0.0
H2126 H 0.33522 0.74759 0.48593 0.0
H2127 H 0.30182 0.75368 0.48743 0.0
H2128 H 0.39759 0.80932 0.49836 0.0
H2129 H 0.37014 0.7357 0.42676 0.0
H2130 H 0.35542 0.75246 0.42873 0.0
H2131 H 0.34848 0.72913 0.45249 0.0
C2132 C 0.34246 0.80671 0.46189 0.0
C2133 C 0.32073 0.78919 0.47194 0.0
C2134 C 0.36155 0.80306 0.46083 0.0
C2135 C 0.35924 0.78181 0.46961 0.0
C2136 C 0.33733 0.76395 0.47847 0.0
H2137 H 0.43911 0.72352 0.52856 0.0
H2138 H 0.41081 0.7354 0.51624 0.0
C2139 C 0.31823 0.76752 0.47946 0.0
C2140 C 0.38011 0.7791 0.47241 0.0
H2141 H 0.40038 0.74174 0.45888 0.0
C2142 C 0.39845 0.79482 0.48928 0.0
C2143 C 0.38122 0.76019 0.46052 0.0
C2144 C 0.36286 0.74357 0.44089 0.0
C2145 C 0.41721 0.79139 0.49578 0.0
C2146 C 0.41764 0.77182 0.48501 0.0
C2147 C 0.39985 0.75665 0.46726 0.0
C2148 C 0.43546 0.76579 0.49342 0.0
C2149 C 0.43587 0.80801 0.51513 0.0
C2150 C 0.45878 0.77919 0.48491 0.0
C2151 C 0.4751 0.77245 0.49192 0.0
C2152 C 0.46827 0.75219 0.50753 0.0
C2153 C 0.44499 0.73922 0.51655 0.0
C2154 C 0.42874 0.74591 0.50946 0.0
H2155 H 0.43153 0.82077 0.52419 0.0
H2156 H 0.43842 0.79815 0.5318 0.0
H2157 H 0.4527 0.81784 0.50407 0.0
H2158 H 0.46421 0.79452 0.47234 0.0
H2159 H 0.49287 0.78275 0.48456 0.0
H2160 H 0.14768 0.50707 0.47154 0.0
H2161 H 0.14981 0.54508 0.47192 0.0
H2162 H 0.22497 0.57954 0.46693 0.0
H2163 H 0.22307 0.54177 0.46639 0.0
H2164 H 0.17267 0.5765 0.51404 0.0
H2165 H 0.20941 0.61801 0.41462 0.0
H2166 H 0.19592 0.58687 0.42002 0.0
H2167 H 0.22571 0.60608 0.43027 0.0
C2168 C 0.16463 0.5227 0.46964 0.0
C2169 C 0.18522 0.52135 0.46912 0.0
C2170 C 0.1658 0.54442 0.46997 0.0
C2171 C 0.18753 0.56512 0.46935 0.0
C2172 C 0.20799 0.5638 0.46698 0.0
H2173 H 0.24515 0.69717 0.54413 0.0
H2174 H 0.22844 0.65606 0.53186 0.0
C2175 C 0.20686 0.54214 0.4668 0.0
C2176 C 0.18921 0.58795 0.47487 0.0
H2177 H 0.21417 0.64401 0.45163 0.0
C2178 C 0.18133 0.59116 0.50017 0.0
C2179 C 0.20035 0.60701 0.45671 0.0
C2180 C 0.20813 0.6043 0.42877 0.0
C2181 C 0.18552 0.61324 0.50841 0.0
C2182 C 0.19806 0.6326 0.491 0.0
C2183 C 0.20472 0.62915 0.46506 0.0
C2184 C 0.20611 0.65679 0.50011 0.0
C2185 C 0.17698 0.6158 0.53595 0.0
C2186 C 0.19897 0.67078 0.48642 0.0
C2187 C 0.20842 0.69431 0.49348 0.0
C2188 C 0.22547 0.7043 0.51406 0.0
C2189 C 0.23204 0.69002 0.52823 0.0
C2190 C 0.22245 0.66649 0.52131 0.0
H2191 H 0.16233 0.59891 0.54334 0.0
H2192 H 0.1915 0.62186 0.55085 0.0
H2193 H 0.17112 0.62888 0.53534 0.0
H2194 H 0.18646 0.66362 0.46991 0.0
H2195 H 0.20307 0.70486 0.48207 0.0
H2196 H 0.45563 0.68632 0.46983 0.0
H2197 H 0.41655 0.65217 0.46733 0.0
H2198 H 0.44627 0.6072 0.46316 0.0
H2199 H 0.48563 0.64134 0.46588 0.0
H2200 H 0.39276 0.61262 0.43087 0.0
H2201 H 0.40743 0.58894 0.53496 0.0
H2202 H 0.42641 0.61725 0.52016 0.0
H2203 H 0.42815 0.5923 0.5091 0.0
C2204 C 0.45396 0.66923 0.46779 0.0
C2205 C 0.47378 0.66656 0.46846 0.0
C2206 C 0.43157 0.64973 0.46631 0.0
C2207 C 0.42856 0.62719 0.46556 0.0
C2208 C 0.44828 0.62448 0.46411 0.0
H2209 H 0.28571 0.505 0.46676 0.0
H2210 H 0.32719 0.53016 0.45556 0.0
C2211 C 0.47075 0.64403 0.46551 0.0
C2212 C 0.40484 0.6068 0.46914 0.0
H2213 H 0.36984 0.56672 0.51654 0.0
C2214 C 0.38777 0.60227 0.44935 0.0
C2215 C 0.39843 0.59359 0.49349 0.0
C2216 C 0.41595 0.59824 0.5158 0.0
C2217 C 0.36426 0.58525 0.45361 0.0
C2218 C 0.3578 0.57247 0.47823 0.0
C2219 C 0.37497 0.5765 0.49764 0.0
C2220 C 0.33303 0.55657 0.48542 0.0
C2221 C 0.34629 0.58183 0.43242 0.0
C2222 C 0.32282 0.5629 0.50629 0.0
C2223 C 0.29923 0.54866 0.51271 0.0
C2224 C 0.28543 0.5277 0.49851 0.0
C2225 C 0.29587 0.52107 0.47805 0.0
C2226 C 0.31951 0.53544 0.47153 0.0
H2227 H 0.35375 0.59519 0.41605 0.0
H2228 H 0.33926 0.56433 0.42301 0.0
H2229 H 0.33145 0.58257 0.44199 0.0
H2230 H 0.33303 0.57913 0.51728 0.0
H2231 H 0.29177 0.55424 0.52862 0.0
loop_
_geom_bond_atom_site_label_1
_geom_bond_atom_site_label_2
_geom_bond_distance
_geom_bond_site_symmetry_2
_ccdc_geom_bond_type
Co0 O3 1.970 . S
Co0 N17 1.989 . S
Co0 O25 1.967 . S
Co0 O32 1.920 . S
Co1 O4 1.966 . S
Co1 N10 2.022 . S
Co1 N18 1.993 . S
Co1 O26 1.941 . S
C2 O3 1.258 . S
C2 O4 1.263 . S
O3 Co0 1.970 . S
O3 C2 1.258 . S
O4 Co1 1.966 . S
O4 C2 1.263 . S
C5 O6 1.235 . S
C5 O32 1.289 . S
O6 C5 1.235 . S
C7 C9 1.400 . S
C7 N10 1.351 . S
C7 C12 1.501 . S
C8 C9 1.387 . S
C8 N11 1.341 . S
C9 C7 1.400 . S
C9 C8 1.387 . S
N10 Co1 2.022 . S
N10 C7 1.351 . S
N10 N11 1.365 . S
N11 C8 1.341 . S
N11 N10 1.365 . S
N11 H31 0.862 . S
C12 C7 1.501 . S
C12 H13 0.961 . S
C12 H14 0.961 . S
C12 H15 0.960 . S
H13 C12 0.961 . S
H14 C12 0.961 . S
H15 C12 0.960 . S
C16 N17 1.342 . S
C16 C20 1.401 . S
C16 C21 1.499 . S
N17 Co0 1.989 . S
N17 C16 1.342 . S
N17 N18 1.388 . S
N18 Co1 1.993 . S
N18 N17 1.388 . S
N18 C19 1.346 . S
C19 N18 1.346 . S
C19 C20 1.396 . S
C19 C29 1.510 . S
C20 C16 1.401 . S
C20 C19 1.396 . S
C21 C16 1.499 . S
C21 H22 0.959 . S
C21 H23 0.960 . S
C21 H24 0.961 . S
H22 C21 0.959 . S
H23 C21 0.960 . S
H24 C21 0.961 . S
O25 Co0 1.967 . S
O25 C33 1.258 . S
O26 Co1 1.941 . S
O26 C33 1.266 . S
H27 C29 0.959 . S
H28 C29 0.961 . S
C29 C19 1.510 . S
C29 H27 0.959 . S
C29 H28 0.961 . S
C29 H30 0.960 . S
H30 C29 0.960 . S
H31 N11 0.862 . S
O32 Co0 1.920 . S
O32 C5 1.289 . S
C33 O25 1.258 . S
C33 O26 1.266 . S
Co34 O37 1.970 . S
Co34 N51 1.989 . S
Co34 O59 1.967 . S
Co34 O66 1.920 . S
Co35 O38 1.966 . S
Co35 N44 2.022 . S
Co35 N52 1.993 . S
Co35 O60 1.941 . S
C36 O37 1.258 . S
C36 O38 1.263 . S
O37 Co34 1.970 . S
O37 C36 1.258 . S
O38 Co35 1.966 . S
O38 C36 1.263 . S
C39 O40 1.235 . S
C39 O66 1.289 . S
O40 C39 1.235 . S
C41 C43 1.400 . S
C41 N44 1.351 . S
C41 C46 1.501 . S
C42 C43 1.387 . S
C42 N45 1.341 . S
C43 C41 1.400 . S
C43 C42 1.387 . S
N44 Co35 2.022 . S
N44 C41 1.351 . S
N44 N45 1.365 . S
N45 C42 1.341 . S
N45 N44 1.365 . S
N45 H65 0.862 . S
C46 C41 1.501 . S
C46 H47 0.961 . S
C46 H48 0.961 . S
C46 H49 0.960 . S
H47 C46 0.961 . S
H48 C46 0.961 . S
H49 C46 0.960 . S
C50 N51 1.342 . S
C50 C54 1.401 . S
C50 C55 1.499 . S
N51 Co34 1.989 . S
N51 C50 1.342 . S
N51 N52 1.388 . S
N52 Co35 1.993 . S
N52 N51 1.388 . S
N52 C53 1.346 . S
C53 N52 1.346 . S
C53 C54 1.396 . S
C53 C63 1.510 . S
C54 C50 1.401 . S
C54 C53 1.396 . S
C55 C50 1.499 . S
C55 H56 0.959 . S
C55 H57 0.960 . S
C55 H58 0.961 . S
H56 C55 0.959 . S
H57 C55 0.960 . S
H58 C55 0.961 . S
O59 Co34 1.967 . S
O59 C67 1.258 . S
O60 Co35 1.941 . S
O60 C67 1.266 . S
H61 C63 0.959 . S
H62 C63 0.961 . S
C63 C53 1.510 . S
C63 H61 0.959 . S
C63 H62 0.961 . S
C63 H64 0.960 . S
H64 C63 0.960 . S
H65 N45 0.862 . S
O66 Co34 1.920 . S
O66 C39 1.289 . S
C67 O59 1.258 . S
C67 O60 1.266 . S
Co68 O71 1.970 . S
Co68 N85 1.989 . S
Co68 O93 1.967 . S
Co68 O100 1.920 . S
Co69 O72 1.966 . S
Co69 N78 2.022 . S
Co69 N86 1.993 . S
Co69 O94 1.941 . S
C70 O71 1.258 . S
C70 O72 1.263 . S
O71 Co68 1.970 . S
O71 C70 1.258 . S
O72 Co69 1.966 . S
O72 C70 1.263 . S
C73 O74 1.235 . S
C73 O100 1.289 . S
O74 C73 1.235 . S
C75 C77 1.400 . S
C75 N78 1.351 . S
C75 C80 1.501 . S
C76 C77 1.387 . S
C76 N79 1.341 . S
C77 C75 1.400 . S
C77 C76 1.387 . S
N78 Co69 2.022 . S
N78 C75 1.351 . S
N78 N79 1.365 . S
N79 C76 1.341 . S
N79 N78 1.365 . S
N79 H99 0.862 . S
C80 C75 1.501 . S
C80 H81 0.961 . S
C80 H82 0.961 . S
C80 H83 0.960 . S
H81 C80 0.961 . S
H82 C80 0.961 . S
H83 C80 0.960 . S
C84 N85 1.342 . S
C84 C88 1.401 . S
C84 C89 1.499 . S
N85 Co68 1.989 . S
N85 C84 1.342 . S
N85 N86 1.388 . S
N86 Co69 1.993 . S
N86 N85 1.388 . S
N86 C87 1.346 . S
C87 N86 1.346 . S
C87 C88 1.396 . S
C87 C97 1.510 . S
C88 C84 1.401 . S
C88 C87 1.396 . S
C89 C84 1.499 . S
C89 H90 0.959 . S
C89 H91 0.960 . S
C89 H92 0.961 . S
H90 C89 0.959 . S
H91 C89 0.960 . S
H92 C89 0.961 . S
O93 Co68 1.967 . S
O93 C101 1.258 . S
O94 Co69 1.941 . S
O94 C101 1.266 . S
H95 C97 0.959 . S
H96 C97 0.961 . S
C97 C87 1.510 . S
C97 H95 0.959 . S
C97 H96 0.961 . S
C97 H98 0.960 . S
H98 C97 0.960 . S
H99 N79 0.862 . S
O100 Co68 1.920 . S
O100 C73 1.289 . S
C101 O93 1.258 . S
C101 O94 1.266 . S
Co102 O105 1.970 . S
Co102 N119 1.989 . S
Co102 O127 1.967 . S
Co102 O134 1.920 . S
Co103 O106 1.966 . S
Co103 N112 2.022 . S
Co103 N120 1.993 . S
Co103 O128 1.941 . S
C104 O105 1.258 . S
C104 O106 1.263 . S
O105 Co102 1.970 . S
O105 C104 1.258 . S
O106 Co103 1.966 . S
O106 C104 1.263 . S
C107 O108 1.235 . S
C107 O134 1.289 . S
O108 C107 1.235 . S
C109 C111 1.400 . S
C109 N112 1.351 . S
C109 C114 1.501 . S
C110 C111 1.387 . S
C110 N113 1.341 . S
C111 C109 1.400 . S
C111 C110 1.387 . S
N112 Co103 2.022 . S
N112 C109 1.351 . S
N112 N113 1.365 . S
N113 C110 1.341 . S
N113 N112 1.365 . S
N113 H133 0.862 . S
C114 C109 1.501 . S
C114 H115 0.961 . S
C114 H116 0.961 . S
C114 H117 0.960 . S
H115 C114 0.961 . S
H116 C114 0.961 . S
H117 C114 0.960 . S
C118 N119 1.342 . S
C118 C122 1.401 . S
C118 C123 1.499 . S
N119 Co102 1.989 . S
N119 C118 1.342 . S
N119 N120 1.388 . S
N120 Co103 1.993 . S
N120 N119 1.388 . S
N120 C121 1.346 . S
C121 N120 1.346 . S
C121 C122 1.396 . S
C121 C131 1.510 . S
C122 C118 1.401 . S
C122 C121 1.396 . S
C123 C118 1.499 . S
C123 H124 0.959 . S
C123 H125 0.960 . S
C123 H126 0.961 . S
H124 C123 0.959 . S
H125 C123 0.960 . S
H126 C123 0.961 . S
O127 Co102 1.967 . S
O127 C135 1.258 . S
O128 Co103 1.941 . S
O128 C135 1.266 . S
H129 C131 0.959 . S
H130 C131 0.961 . S
C131 C121 1.510 . S
C131 H129 0.959 . S
C131 H130 0.961 . S
C131 H132 0.960 . S
H132 C131 0.960 . S
H133 N113 0.862 . S
O134 Co102 1.920 . S
O134 C107 1.289 . S
C135 O127 1.258 . S
C135 O128 1.266 . S
Co136 O139 1.970 . S
Co136 N153 1.989 . S
Co136 O161 1.967 . S
Co136 O168 1.920 . S
Co137 O140 1.966 . S
Co137 N146 2.022 . S
Co137 N154 1.993 . S
Co137 O162 1.941 . S
C138 O139 1.258 . S
C138 O140 1.263 . S
O139 Co136 1.970 . S
O139 C138 1.258 . S
O140 Co137 1.966 . S
O140 C138 1.263 . S
C141 O142 1.235 . S
C141 O168 1.289 . S
O142 C141 1.235 . S
C143 C145 1.400 . S
C143 N146 1.351 . S
C143 C148 1.501 . S
C144 C145 1.387 . S
C144 N147 1.341 . S
C145 C143 1.400 . S
C145 C144 1.387 . S
N146 Co137 2.022 . S
N146 C143 1.351 . S
N146 N147 1.365 . S
N147 C144 1.341 . S
N147 N146 1.365 . S
N147 H167 0.862 . S
C148 C143 1.501 . S
C148 H149 0.961 . S
C148 H150 0.961 . S
C148 H151 0.960 . S
H149 C148 0.961 . S
H150 C148 0.961 . S
H151 C148 0.960 . S
C152 N153 1.342 . S
C152 C156 1.401 . S
C152 C157 1.499 . S
N153 Co136 1.989 . S
N153 C152 1.342 . S
N153 N154 1.388 . S
N154 Co137 1.993 . S
N154 N153 1.388 . S
N154 C155 1.346 . S
C155 N154 1.346 . S
C155 C156 1.396 . S
C155 C165 1.510 . S
C156 C152 1.401 . S
C156 C155 1.396 . S
C157 C152 1.499 . S
C157 H158 0.959 . S
C157 H159 0.960 . S
C157 H160 0.961 . S
H158 C157 0.959 . S
H159 C157 0.960 . S
H160 C157 0.961 . S
O161 Co136 1.967 . S
O161 C169 1.258 . S
O162 Co137 1.941 . S
O162 C169 1.266 . S
H163 C165 0.959 . S
H164 C165 0.961 . S
C165 C155 1.510 . S
C165 H163 0.959 . S
C165 H164 0.961 . S
C165 H166 0.960 . S
H166 C165 0.960 . S
H167 N147 0.862 . S
O168 Co136 1.920 . S
O168 C141 1.289 . S
C169 O161 1.258 . S
C169 O162 1.266 . S
Co170 O173 1.970 . S
Co170 N187 1.989 . S
Co170 O195 1.967 . S
Co170 O202 1.920 . S
Co171 O174 1.966 . S
Co171 N180 2.022 . S
Co171 N188 1.993 . S
Co171 O196 1.941 . S
C172 O173 1.258 . S
C172 O174 1.263 . S
O173 Co170 1.970 . S
O173 C172 1.258 . S
O174 Co171 1.966 . S
O174 C172 1.263 . S
C175 O176 1.235 . S
C175 O202 1.289 . S
O176 C175 1.235 . S
C177 C179 1.400 . S
C177 N180 1.351 . S
C177 C182 1.501 . S
C178 C179 1.387 . S
C178 N181 1.341 . S
C179 C177 1.400 . S
C179 C178 1.387 . S
N180 Co171 2.022 . S
N180 C177 1.351 . S
N180 N181 1.365 . S
N181 C178 1.341 . S
N181 N180 1.365 . S
N181 H201 0.862 . S
C182 C177 1.501 . S
C182 H183 0.961 . S
C182 H184 0.961 . S
C182 H185 0.960 . S
H183 C182 0.961 . S
H184 C182 0.961 . S
H185 C182 0.960 . S
C186 N187 1.342 . S
C186 C190 1.401 . S
C186 C191 1.499 . S
N187 Co170 1.989 . S
N187 C186 1.342 . S
N187 N188 1.388 . S
N188 Co171 1.993 . S
N188 N187 1.388 . S
N188 C189 1.346 . S
C189 N188 1.346 . S
C189 C190 1.396 . S
C189 C199 1.510 . S
C190 C186 1.401 . S
C190 C189 1.396 . S
C191 C186 1.499 . S
C191 H192 0.959 . S
C191 H193 0.960 . S
C191 H194 0.961 . S
H192 C191 0.959 . S
H193 C191 0.960 . S
H194 C191 0.961 . S
O195 Co170 1.967 . S
O195 C203 1.258 . S
O196 Co171 1.941 . S
O196 C203 1.266 . S
H197 C199 0.959 . S
H198 C199 0.961 . S
C199 C189 1.510 . S
C199 H197 0.959 . S
C199 H198 0.961 . S
C199 H200 0.960 . S
H200 C199 0.960 . S
H201 N181 0.862 . S
O202 Co170 1.920 . S
O202 C175 1.289 . S
C203 O195 1.258 . S
C203 O196 1.266 . S
Co204 O207 1.970 . S
Co204 N221 1.989 . S
Co204 O229 1.967 . S
Co204 O236 1.920 . S
Co205 O208 1.966 . S
Co205 N214 2.022 . S
Co205 N222 1.993 . S
Co205 O230 1.941 . S
C206 O207 1.258 . S
C206 O208 1.263 . S
O207 Co204 1.970 . S
O207 C206 1.258 . S
O208 Co205 1.966 . S
O208 C206 1.263 . S
C209 O210 1.235 . S
C209 O236 1.289 . S
O210 C209 1.235 . S
C211 C213 1.400 . S
C211 N214 1.351 . S
C211 C216 1.501 . S
C212 C213 1.387 . S
C212 N215 1.341 . S
C213 C211 1.400 . S
C213 C212 1.387 . S
N214 Co205 2.022 . S
N214 C211 1.351 . S
N214 N215 1.365 . S
N215 C212 1.341 . S
N215 N214 1.365 . S
N215 H235 0.862 . S
C216 C211 1.501 . S
C216 H217 0.961 . S
C216 H218 0.961 . S
C216 H219 0.960 . S
H217 C216 0.961 . S
H218 C216 0.961 . S
H219 C216 0.960 . S
C220 N221 1.342 . S
C220 C224 1.401 . S
C220 C225 1.499 . S
N221 Co204 1.989 . S
N221 C220 1.342 . S
N221 N222 1.388 . S
N222 Co205 1.993 . S
N222 N221 1.388 . S
N222 C223 1.346 . S
C223 N222 1.346 . S
C223 C224 1.396 . S
C223 C233 1.510 . S
C224 C220 1.401 . S
C224 C223 1.396 . S
C225 C220 1.499 . S
C225 H226 0.959 . S
C225 H227 0.960 . S
C225 H228 0.961 . S
H226 C225 0.959 . S
H227 C225 0.960 . S
H228 C225 0.961 . S
O229 Co204 1.967 . S
O229 C237 1.258 . S
O230 Co205 1.941 . S
O230 C237 1.266 . S
H231 C233 0.959 . S
H232 C233 0.961 . S
C233 C223 1.510 . S
C233 H231 0.959 . S
C233 H232 0.961 . S
C233 H234 0.960 . S
H234 C233 0.960 . S
H235 N215 0.862 . S
O236 Co204 1.920 . S
O236 C209 1.289 . S
C237 O229 1.258 . S
C237 O230 1.266 . S
Co238 O241 1.970 . S
Co238 N255 1.989 . S
Co238 O263 1.967 . S
Co238 O270 1.920 . S
Co239 O242 1.966 . S
Co239 N248 2.022 . S
Co239 N256 1.993 . S
Co239 O264 1.941 . S
C240 O241 1.258 . S
C240 O242 1.263 . S
O241 Co238 1.970 . S
O241 C240 1.258 . S
O242 Co239 1.966 . S
O242 C240 1.263 . S
C243 O244 1.235 . S
C243 O270 1.289 . S
O244 C243 1.235 . S
C245 C247 1.400 . S
C245 N248 1.351 . S
C245 C250 1.501 . S
C246 C247 1.387 . S
C246 N249 1.341 . S
C247 C245 1.400 . S
C247 C246 1.387 . S
N248 Co239 2.022 . S
N248 C245 1.351 . S
N248 N249 1.365 . S
N249 C246 1.341 . S
N249 N248 1.365 . S
N249 H269 0.862 . S
C250 C245 1.501 . S
C250 H251 0.961 . S
C250 H252 0.961 . S
C250 H253 0.960 . S
H251 C250 0.961 . S
H252 C250 0.961 . S
H253 C250 0.960 . S
C254 N255 1.342 . S
C254 C258 1.401 . S
C254 C259 1.499 . S
N255 Co238 1.989 . S
N255 C254 1.342 . S
N255 N256 1.388 . S
N256 Co239 1.993 . S
N256 N255 1.388 . S
N256 C257 1.346 . S
C257 N256 1.346 . S
C257 C258 1.396 . S
C257 C267 1.510 . S
C258 C254 1.401 . S
C258 C257 1.396 . S
C259 C254 1.499 . S
C259 H260 0.959 . S
C259 H261 0.960 . S
C259 H262 0.961 . S
H260 C259 0.959 . S
H261 C259 0.960 . S
H262 C259 0.961 . S
O263 Co238 1.967 . S
O263 C271 1.258 . S
O264 Co239 1.941 . S
O264 C271 1.266 . S
H265 C267 0.959 . S
H266 C267 0.961 . S
C267 C257 1.510 . S
C267 H265 0.959 . S
C267 H266 0.961 . S
C267 H268 0.960 . S
H268 C267 0.960 . S
H269 N249 0.862 . S
O270 Co238 1.920 . S
O270 C243 1.289 . S
C271 O263 1.258 . S
C271 O264 1.266 . S
Co272 O275 1.970 . S
Co272 N289 1.989 . S
Co272 O297 1.967 . S
Co272 O304 1.920 . S
Co273 O276 1.966 . S
Co273 N282 2.022 . S
Co273 N290 1.993 . S
Co273 O298 1.941 . S
C274 O275 1.258 . S
C274 O276 1.263 . S
O275 Co272 1.970 . S
O275 C274 1.258 . S
O276 Co273 1.966 . S
O276 C274 1.263 . S
C277 O278 1.235 . S
C277 O304 1.289 . S
O278 C277 1.235 . S
C279 C281 1.400 . S
C279 N282 1.351 . S
C279 C284 1.501 . S
C280 C281 1.387 . S
C280 N283 1.341 . S
C281 C279 1.400 . S
C281 C280 1.387 . S
N282 Co273 2.022 . S
N282 C279 1.351 . S
N282 N283 1.365 . S
N283 C280 1.341 . S
N283 N282 1.365 . S
N283 H303 0.862 . S
C284 C279 1.501 . S
C284 H285 0.961 . S
C284 H286 0.961 . S
C284 H287 0.960 . S
H285 C284 0.961 . S
H286 C284 0.961 . S
H287 C284 0.960 . S
C288 N289 1.342 . S
C288 C292 1.401 . S
C288 C293 1.499 . S
N289 Co272 1.989 . S
N289 C288 1.342 . S
N289 N290 1.388 . S
N290 Co273 1.993 . S
N290 N289 1.388 . S
N290 C291 1.346 . S
C291 N290 1.346 . S
C291 C292 1.396 . S
C291 C301 1.510 . S
C292 C288 1.401 . S
C292 C291 1.396 . S
C293 C288 1.499 . S
C293 H294 0.959 . S
C293 H295 0.960 . S
C293 H296 0.961 . S
H294 C293 0.959 . S
H295 C293 0.960 . S
H296 C293 0.961 . S
O297 Co272 1.967 . S
O297 C305 1.258 . S
O298 Co273 1.941 . S
O298 C305 1.266 . S
H299 C301 0.959 . S
H300 C301 0.961 . S
C301 C291 1.510 . S
C301 H299 0.959 . S
C301 H300 0.961 . S
C301 H302 0.960 . S
H302 C301 0.960 . S
H303 N283 0.862 . S
O304 Co272 1.920 . S
O304 C277 1.289 . S
C305 O297 1.258 . S
C305 O298 1.266 . S
Co306 O309 1.970 . S
Co306 N323 1.989 . S
Co306 O331 1.967 . S
Co306 O338 1.920 . S
Co307 O310 1.966 . S
Co307 N316 2.022 . S
Co307 N324 1.993 . S
Co307 O332 1.941 . S
C308 O309 1.258 . S
C308 O310 1.263 . S
O309 Co306 1.970 . S
O309 C308 1.258 . S
O310 Co307 1.966 . S
O310 C308 1.263 . S
C311 O312 1.235 . S
C311 O338 1.289 . S
O312 C311 1.235 . S
C313 C315 1.400 . S
C313 N316 1.351 . S
C313 C318 1.501 . S
C314 C315 1.387 . S
C314 N317 1.341 . S
C315 C313 1.400 . S
C315 C314 1.387 . S
N316 Co307 2.022 . S
N316 C313 1.351 . S
N316 N317 1.365 . S
N317 C314 1.341 . S
N317 N316 1.365 . S
N317 H337 0.862 . S
C318 C313 1.501 . S
C318 H319 0.961 . S
C318 H320 0.961 . S
C318 H321 0.960 . S
H319 C318 0.961 . S
H320 C318 0.961 . S
H321 C318 0.960 . S
C322 N323 1.342 . S
C322 C326 1.401 . S
C322 C327 1.499 . S
N323 Co306 1.989 . S
N323 C322 1.342 . S
N323 N324 1.388 . S
N324 Co307 1.993 . S
N324 N323 1.388 . S
N324 C325 1.346 . S
C325 N324 1.346 . S
C325 C326 1.396 . S
C325 C335 1.510 . S
C326 C322 1.401 . S
C326 C325 1.396 . S
C327 C322 1.499 . S
C327 H328 0.959 . S
C327 H329 0.960 . S
C327 H330 0.961 . S
H328 C327 0.959 . S
H329 C327 0.960 . S
H330 C327 0.961 . S
O331 Co306 1.967 . S
O331 C339 1.258 . S
O332 Co307 1.941 . S
O332 C339 1.266 . S
H333 C335 0.959 . S
H334 C335 0.961 . S
C335 C325 1.510 . S
C335 H333 0.959 . S
C335 H334 0.961 . S
C335 H336 0.960 . S
H336 C335 0.960 . S
H337 N317 0.862 . S
O338 Co306 1.920 . S
O338 C311 1.289 . S
C339 O331 1.258 . S
C339 O332 1.266 . S
Co340 O343 1.970 . S
Co340 N357 1.989 . S
Co340 O365 1.967 . S
Co340 O372 1.920 . S
Co341 O344 1.966 . S
Co341 N350 2.022 . S
Co341 N358 1.993 . S
Co341 O366 1.941 . S
C342 O343 1.258 . S
C342 O344 1.263 . S
O343 Co340 1.970 . S
O343 C342 1.258 . S
O344 Co341 1.966 . S
O344 C342 1.263 . S
C345 O346 1.235 . S
C345 O372 1.289 . S
O346 C345 1.235 . S
C347 C349 1.400 . S
C347 N350 1.351 . S
C347 C352 1.501 . S
C348 C349 1.387 . S
C348 N351 1.341 . S
C349 C347 1.400 . S
C349 C348 1.387 . S
N350 Co341 2.022 . S
N350 C347 1.351 . S
N350 N351 1.365 . S
N351 C348 1.341 . S
N351 N350 1.365 . S
N351 H371 0.862 . S
C352 C347 1.501 . S
C352 H353 0.961 . S
C352 H354 0.961 . S
C352 H355 0.960 . S
H353 C352 0.961 . S
H354 C352 0.961 . S
H355 C352 0.960 . S
C356 N357 1.342 . S
C356 C360 1.401 . S
C356 C361 1.499 . S
N357 Co340 1.989 . S
N357 C356 1.342 . S
N357 N358 1.388 . S
N358 Co341 1.993 . S
N358 N357 1.388 . S
N358 C359 1.346 . S
C359 N358 1.346 . S
C359 C360 1.396 . S
C359 C369 1.510 . S
C360 C356 1.401 . S
C360 C359 1.396 . S
C361 C356 1.499 . S
C361 H362 0.959 . S
C361 H363 0.960 . S
C361 H364 0.961 . S
H362 C361 0.959 . S
H363 C361 0.960 . S
H364 C361 0.961 . S
O365 Co340 1.967 . S
O365 C373 1.258 . S
O366 Co341 1.941 . S
O366 C373 1.266 . S
H367 C369 0.959 . S
H368 C369 0.961 . S
C369 C359 1.510 . S
C369 H367 0.959 . S
C369 H368 0.961 . S
C369 H370 0.960 . S
H370 C369 0.960 . S
H371 N351 0.862 . S
O372 Co340 1.920 . S
O372 C345 1.289 . S
C373 O365 1.258 . S
C373 O366 1.266 . S
Co374 O377 1.970 . S
Co374 N391 1.989 . S
Co374 O399 1.967 . S
Co374 O406 1.920 . S
Co375 O378 1.966 . S
Co375 N384 2.022 . S
Co375 N392 1.993 . S
Co375 O400 1.941 . S
C376 O377 1.258 . S
C376 O378 1.263 . S
O377 Co374 1.970 . S
O377 C376 1.258 . S
O378 Co375 1.966 . S
O378 C376 1.263 . S
C379 O380 1.235 . S
C379 O406 1.289 . S
O380 C379 1.235 . S
C381 C383 1.400 . S
C381 N384 1.351 . S
C381 C386 1.501 . S
C382 C383 1.387 . S
C382 N385 1.341 . S
C383 C381 1.400 . S
C383 C382 1.387 . S
N384 Co375 2.022 . S
N384 C381 1.351 . S
N384 N385 1.365 . S
N385 C382 1.341 . S
N385 N384 1.365 . S
N385 H405 0.862 . S
C386 C381 1.501 . S
C386 H387 0.961 . S
C386 H388 0.961 . S
C386 H389 0.960 . S
H387 C386 0.961 . S
H388 C386 0.961 . S
H389 C386 0.960 . S
C390 N391 1.342 . S
C390 C394 1.401 . S
C390 C395 1.499 . S
N391 Co374 1.989 . S
N391 C390 1.342 . S
N391 N392 1.388 . S
N392 Co375 1.993 . S
N392 N391 1.388 . S
N392 C393 1.346 . S
C393 N392 1.346 . S
C393 C394 1.396 . S
C393 C403 1.510 . S
C394 C390 1.401 . S
C394 C393 1.396 . S
C395 C390 1.499 . S
C395 H396 0.959 . S
C395 H397 0.960 . S
C395 H398 0.961 . S
H396 C395 0.959 . S
H397 C395 0.960 . S
H398 C395 0.961 . S
O399 Co374 1.967 . S
O399 C407 1.258 . S
O400 Co375 1.941 . S
O400 C407 1.266 . S
H401 C403 0.959 . S
H402 C403 0.961 . S
C403 C393 1.510 . S
C403 H401 0.959 . S
C403 H402 0.961 . S
C403 H404 0.960 . S
H404 C403 0.960 . S
H405 N385 0.862 . S
O406 Co374 1.920 . S
O406 C379 1.289 . S
C407 O399 1.258 . S
C407 O400 1.266 . S
Co408 O411 1.970 . S
Co408 N425 1.989 . S
Co408 O433 1.967 . S
Co408 O440 1.920 . S
Co409 O412 1.966 . S
Co409 N418 2.022 . S
Co409 N426 1.993 . S
Co409 O434 1.941 . S
C410 O411 1.258 . S
C410 O412 1.263 . S
O411 Co408 1.970 . S
O411 C410 1.258 . S
O412 Co409 1.966 . S
O412 C410 1.263 . S
C413 O414 1.235 . S
C413 O440 1.289 . S
O414 C413 1.235 . S
C415 C417 1.400 . S
C415 N418 1.351 . S
C415 C420 1.501 . S
C416 C417 1.387 . S
C416 N419 1.341 . S
C417 C415 1.400 . S
C417 C416 1.387 . S
N418 Co409 2.022 . S
N418 C415 1.351 . S
N418 N419 1.365 . S
N419 C416 1.341 . S
N419 N418 1.365 . S
N419 H439 0.862 . S
C420 C415 1.501 . S
C420 H421 0.961 . S
C420 H422 0.961 . S
C420 H423 0.960 . S
H421 C420 0.961 . S
H422 C420 0.961 . S
H423 C420 0.960 . S
C424 N425 1.342 . S
C424 C428 1.401 . S
C424 C429 1.499 . S
N425 Co408 1.989 . S
N425 C424 1.342 . S
N425 N426 1.388 . S
N426 Co409 1.993 . S
N426 N425 1.388 . S
N426 C427 1.346 . S
C427 N426 1.346 . S
C427 C428 1.396 . S
C427 C437 1.510 . S
C428 C424 1.401 . S
C428 C427 1.396 . S
C429 C424 1.499 . S
C429 H430 0.959 . S
C429 H431 0.960 . S
C429 H432 0.961 . S
H430 C429 0.959 . S
H431 C429 0.960 . S
H432 C429 0.961 . S
O433 Co408 1.967 . S
O433 C441 1.258 . S
O434 Co409 1.941 . S
O434 C441 1.266 . S
H435 C437 0.959 . S
H436 C437 0.961 . S
C437 C427 1.510 . S
C437 H435 0.959 . S
C437 H436 0.961 . S
C437 H438 0.960 . S
H438 C437 0.960 . S
H439 N419 0.862 . S
O440 Co408 1.920 . S
O440 C413 1.289 . S
C441 O433 1.258 . S
C441 O434 1.266 . S
Co442 O445 1.970 . S
Co442 N459 1.989 . S
Co442 O467 1.967 . S
Co442 O474 1.920 . S
Co443 O446 1.966 . S
Co443 N452 2.022 . S
Co443 N460 1.993 . S
Co443 O468 1.941 . S
C444 O445 1.258 . S
C444 O446 1.263 . S
O445 Co442 1.970 . S
O445 C444 1.258 . S
O446 Co443 1.966 . S
O446 C444 1.263 . S
C447 O448 1.235 . S
C447 O474 1.289 . S
O448 C447 1.235 . S
C449 C451 1.400 . S
C449 N452 1.351 . S
C449 C454 1.501 . S
C450 C451 1.387 . S
C450 N453 1.341 . S
C451 C449 1.400 . S
C451 C450 1.387 . S
N452 Co443 2.022 . S
N452 C449 1.351 . S
N452 N453 1.365 . S
N453 C450 1.341 . S
N453 N452 1.365 . S
N453 H473 0.862 . S
C454 C449 1.501 . S
C454 H455 0.961 . S
C454 H456 0.961 . S
C454 H457 0.960 . S
H455 C454 0.961 . S
H456 C454 0.961 . S
H457 C454 0.960 . S
C458 N459 1.342 . S
C458 C462 1.401 . S
C458 C463 1.499 . S
N459 Co442 1.989 . S
N459 C458 1.342 . S
N459 N460 1.388 . S
N460 Co443 1.993 . S
N460 N459 1.388 . S
N460 C461 1.346 . S
C461 N460 1.346 . S
C461 C462 1.396 . S
C461 C471 1.510 . S
C462 C458 1.401 . S
C462 C461 1.396 . S
C463 C458 1.499 . S
C463 H464 0.959 . S
C463 H465 0.960 . S
C463 H466 0.961 . S
H464 C463 0.959 . S
H465 C463 0.960 . S
H466 C463 0.961 . S
O467 Co442 1.967 . S
O467 C475 1.258 . S
O468 Co443 1.941 . S
O468 C475 1.266 . S
H469 C471 0.959 . S
H470 C471 0.961 . S
C471 C461 1.510 . S
C471 H469 0.959 . S
C471 H470 0.961 . S
C471 H472 0.960 . S
H472 C471 0.960 . S
H473 N453 0.862 . S
O474 Co442 1.920 . S
O474 C447 1.289 . S
C475 O467 1.258 . S
C475 O468 1.266 . S
Co476 O479 1.970 . S
Co476 N493 1.989 . S
Co476 O501 1.967 . S
Co476 O508 1.920 . S
Co477 O480 1.966 . S
Co477 N486 2.022 . S
Co477 N494 1.993 . S
Co477 O502 1.941 . S
C478 O479 1.258 . S
C478 O480 1.263 . S
O479 Co476 1.970 . S
O479 C478 1.258 . S
O480 Co477 1.966 . S
O480 C478 1.263 . S
C481 O482 1.235 . S
C481 O508 1.289 . S
O482 C481 1.235 . S
C483 C485 1.400 . S
C483 N486 1.351 . S
C483 C488 1.501 . S
C484 C485 1.387 . S
C484 N487 1.341 . S
C485 C483 1.400 . S
C485 C484 1.387 . S
N486 Co477 2.022 . S
N486 C483 1.351 . S
N486 N487 1.365 . S
N487 C484 1.341 . S
N487 N486 1.365 . S
N487 H507 0.862 . S
C488 C483 1.501 . S
C488 H489 0.961 . S
C488 H490 0.961 . S
C488 H491 0.960 . S
H489 C488 0.961 . S
H490 C488 0.961 . S
H491 C488 0.960 . S
C492 N493 1.342 . S
C492 C496 1.401 . S
C492 C497 1.499 . S
N493 Co476 1.989 . S
N493 C492 1.342 . S
N493 N494 1.388 . S
N494 Co477 1.993 . S
N494 N493 1.388 . S
N494 C495 1.346 . S
C495 N494 1.346 . S
C495 C496 1.396 . S
C495 C505 1.510 . S
C496 C492 1.401 . S
C496 C495 1.396 . S
C497 C492 1.499 . S
C497 H498 0.959 . S
C497 H499 0.960 . S
C497 H500 0.961 . S
H498 C497 0.959 . S
H499 C497 0.960 . S
H500 C497 0.961 . S
O501 Co476 1.967 . S
O501 C509 1.258 . S
O502 Co477 1.941 . S
O502 C509 1.266 . S
H503 C505 0.959 . S
H504 C505 0.961 . S
C505 C495 1.510 . S
C505 H503 0.959 . S
C505 H504 0.961 . S
C505 H506 0.960 . S
H506 C505 0.960 . S
H507 N487 0.862 . S
O508 Co476 1.920 . S
O508 C481 1.289 . S
C509 O501 1.258 . S
C509 O502 1.266 . S
Co510 O513 1.970 . S
Co510 N527 1.989 . S
Co510 O535 1.967 . S
Co510 O542 1.920 . S
Co511 O514 1.966 . S
Co511 N520 2.022 . S
Co511 N528 1.993 . S
Co511 O536 1.941 . S
C512 O513 1.258 . S
C512 O514 1.263 . S
O513 Co510 1.970 . S
O513 C512 1.258 . S
O514 Co511 1.966 . S
O514 C512 1.263 . S
C515 O516 1.235 . S
C515 O542 1.289 . S
O516 C515 1.235 . S
C517 C519 1.400 . S
C517 N520 1.351 . S
C517 C522 1.501 . S
C518 C519 1.387 . S
C518 N521 1.341 . S
C519 C517 1.400 . S
C519 C518 1.387 . S
N520 Co511 2.022 . S
N520 C517 1.351 . S
N520 N521 1.365 . S
N521 C518 1.341 . S
N521 N520 1.365 . S
N521 H541 0.862 . S
C522 C517 1.501 . S
C522 H523 0.961 . S
C522 H524 0.961 . S
C522 H525 0.960 . S
H523 C522 0.961 . S
H524 C522 0.961 . S
H525 C522 0.960 . S
C526 N527 1.342 . S
C526 C530 1.401 . S
C526 C531 1.499 . S
N527 Co510 1.989 . S
N527 C526 1.342 . S
N527 N528 1.388 . S
N528 Co511 1.993 . S
N528 N527 1.388 . S
N528 C529 1.346 . S
C529 N528 1.346 . S
C529 C530 1.396 . S
C529 C539 1.510 . S
C530 C526 1.401 . S
C530 C529 1.396 . S
C531 C526 1.499 . S
C531 H532 0.959 . S
C531 H533 0.960 . S
C531 H534 0.961 . S
H532 C531 0.959 . S
H533 C531 0.960 . S
H534 C531 0.961 . S
O535 Co510 1.967 . S
O535 C543 1.258 . S
O536 Co511 1.941 . S
O536 C543 1.266 . S
H537 C539 0.959 . S
H538 C539 0.961 . S
C539 C529 1.510 . S
C539 H537 0.959 . S
C539 H538 0.961 . S
C539 H540 0.960 . S
H540 C539 0.960 . S
H541 N521 0.862 . S
O542 Co510 1.920 . S
O542 C515 1.289 . S
C543 O535 1.258 . S
C543 O536 1.266 . S
Co544 O547 1.970 . S
Co544 N561 1.989 . S
Co544 O569 1.967 . S
Co544 O576 1.920 . S
Co545 O548 1.966 . S
Co545 N554 2.022 . S
Co545 N562 1.993 . S
Co545 O570 1.941 . S
C546 O547 1.258 . S
C546 O548 1.263 . S
O547 Co544 1.970 . S
O547 C546 1.258 . S
O548 Co545 1.966 . S
O548 C546 1.263 . S
C549 O550 1.235 . S
C549 O576 1.289 . S
O550 C549 1.235 . S
C551 C553 1.400 . S
C551 N554 1.351 . S
C551 C556 1.501 . S
C552 C553 1.387 . S
C552 N555 1.341 . S
C553 C551 1.400 . S
C553 C552 1.387 . S
N554 Co545 2.022 . S
N554 C551 1.351 . S
N554 N555 1.365 . S
N555 C552 1.341 . S
N555 N554 1.365 . S
N555 H575 0.862 . S
C556 C551 1.501 . S
C556 H557 0.961 . S
C556 H558 0.961 . S
C556 H559 0.960 . S
H557 C556 0.961 . S
H558 C556 0.961 . S
H559 C556 0.960 . S
C560 N561 1.342 . S
C560 C564 1.401 . S
C560 C565 1.499 . S
N561 Co544 1.989 . S
N561 C560 1.342 . S
N561 N562 1.388 . S
N562 Co545 1.993 . S
N562 N561 1.388 . S
N562 C563 1.346 . S
C563 N562 1.346 . S
C563 C564 1.396 . S
C563 C573 1.510 . S
C564 C560 1.401 . S
C564 C563 1.396 . S
C565 C560 1.499 . S
C565 H566 0.959 . S
C565 H567 0.960 . S
C565 H568 0.961 . S
H566 C565 0.959 . S
H567 C565 0.960 . S
H568 C565 0.961 . S
O569 Co544 1.967 . S
O569 C577 1.258 . S
O570 Co545 1.941 . S
O570 C577 1.266 . S
H571 C573 0.959 . S
H572 C573 0.961 . S
C573 C563 1.510 . S
C573 H571 0.959 . S
C573 H572 0.961 . S
C573 H574 0.960 . S
H574 C573 0.960 . S
H575 N555 0.862 . S
O576 Co544 1.920 . S
O576 C549 1.289 . S
C577 O569 1.258 . S
C577 O570 1.266 . S
Co578 O581 1.970 . S
Co578 N595 1.989 . S
Co578 O603 1.967 . S
Co578 O610 1.920 . S
Co579 O582 1.966 . S
Co579 N588 2.022 . S
Co579 N596 1.993 . S
Co579 O604 1.941 . S
C580 O581 1.258 . S
C580 O582 1.263 . S
O581 Co578 1.970 . S
O581 C580 1.258 . S
O582 Co579 1.966 . S
O582 C580 1.263 . S
C583 O584 1.235 . S
C583 O610 1.289 . S
O584 C583 1.235 . S
C585 C587 1.400 . S
C585 N588 1.351 . S
C585 C590 1.501 . S
C586 C587 1.387 . S
C586 N589 1.341 . S
C587 C585 1.400 . S
C587 C586 1.387 . S
N588 Co579 2.022 . S
N588 C585 1.351 . S
N588 N589 1.365 . S
N589 C586 1.341 . S
N589 N588 1.365 . S
N589 H609 0.862 . S
C590 C585 1.501 . S
C590 H591 0.961 . S
C590 H592 0.961 . S
C590 H593 0.960 . S
H591 C590 0.961 . S
H592 C590 0.961 . S
H593 C590 0.960 . S
C594 N595 1.342 . S
C594 C598 1.401 . S
C594 C599 1.499 . S
N595 Co578 1.989 . S
N595 C594 1.342 . S
N595 N596 1.388 . S
N596 Co579 1.993 . S
N596 N595 1.388 . S
N596 C597 1.346 . S
C597 N596 1.346 . S
C597 C598 1.396 . S
C597 C607 1.510 . S
C598 C594 1.401 . S
C598 C597 1.396 . S
C599 C594 1.499 . S
C599 H600 0.959 . S
C599 H601 0.960 . S
C599 H602 0.961 . S
H600 C599 0.959 . S
H601 C599 0.960 . S
H602 C599 0.961 . S
O603 Co578 1.967 . S
O603 C611 1.258 . S
O604 Co579 1.941 . S
O604 C611 1.266 . S
H605 C607 0.959 . S
H606 C607 0.961 . S
C607 C597 1.510 . S
C607 H605 0.959 . S
C607 H606 0.961 . S
C607 H608 0.960 . S
H608 C607 0.960 . S
H609 N589 0.862 . S
O610 Co578 1.920 . S
O610 C583 1.289 . S
C611 O603 1.258 . S
C611 O604 1.266 . S
H612 C620 0.929 . S
H613 C622 0.930 . S
H614 C624 0.930 . S
H615 C627 0.929 . S
H616 C630 0.930 . S
H617 C632 0.960 1_455 S
H618 C632 0.960 . S
H619 C632 0.960 . S
C620 H612 0.929 . S
C620 C621 1.377 . S
C620 C622 1.384 . S
C621 C620 1.377 . S
C621 C627 1.390 . S
C622 H613 0.930 . S
C622 C620 1.384 . S
C622 C623 1.372 . S
C623 C622 1.372 . S
C623 C624 1.400 . S
C623 C628 1.490 . S
C624 H614 0.930 . S
C624 C623 1.400 . S
C624 C627 1.386 . S
H625 C641 0.930 . S
H626 C642 0.931 . S
C627 H615 0.929 . S
C627 C621 1.390 . S
C627 C624 1.386 . S
C628 C623 1.490 . S
C628 C630 1.395 . S
C628 C631 1.403 . S
H629 C635 0.930 1_455 S
C630 H616 0.930 . S
C630 C628 1.395 . S
C630 C633 1.403 . S
C631 C628 1.403 . S
C631 C632 1.524 . S
C631 C635 1.400 . S
C632 H617 0.960 1_655 S
C632 H618 0.960 . S
C632 H619 0.960 . S
C632 C631 1.524 . S
C633 C630 1.403 . S
C633 C634 1.392 . S
C633 C637 1.495 . S
C634 C633 1.392 . S
C634 C635 1.385 . S
C634 C636 1.478 . S
C635 H629 0.930 1_655 S
C635 C631 1.400 . S
C635 C634 1.385 . S
C636 C634 1.478 . S
C636 C638 1.381 . S
C636 C642 1.383 1_655 S
C637 C633 1.495 . S
C637 H643 0.959 . S
C637 H644 0.961 . S
C637 H645 0.960 . S
C638 C636 1.381 . S
C638 C639 1.394 1_655 S
C638 H646 0.930 . S
C639 C638 1.394 1_455 S
C639 C640 1.383 . S
C639 H647 0.929 . S
C640 C639 1.383 . S
C640 C641 1.377 . S
C641 H625 0.930 . S
C641 C640 1.377 . S
C641 C642 1.379 . S
C642 H626 0.931 . S
C642 C636 1.383 1_455 S
C642 C641 1.379 . S
H643 C637 0.959 . S
H644 C637 0.961 . S
H645 C637 0.960 . S
H646 C638 0.930 . S
H647 C639 0.929 . S
H648 C656 0.929 . S
H649 C658 0.930 . S
H650 C660 0.930 . S
H651 C663 0.929 . S
H652 C666 0.930 . S
H653 C668 0.960 . S
H654 C668 0.960 . S
H655 C668 0.960 . S
C656 H648 0.929 . S
C656 C657 1.377 . S
C656 C658 1.384 . S
C657 C656 1.377 . S
C657 C663 1.390 . S
C658 H649 0.930 . S
C658 C656 1.384 . S
C658 C659 1.372 . S
C659 C658 1.372 . S
C659 C660 1.400 . S
C659 C664 1.490 . S
C660 H650 0.930 . S
C660 C659 1.400 . S
C660 C663 1.386 . S
H661 C677 0.930 . S
H662 C678 0.931 . S
C663 H651 0.929 . S
C663 C657 1.390 . S
C663 C660 1.386 . S
C664 C659 1.490 . S
C664 C666 1.395 . S
C664 C667 1.403 . S
H665 C671 0.930 . S
C666 H652 0.930 . S
C666 C664 1.395 . S
C666 C669 1.403 . S
C667 C664 1.403 . S
C667 C668 1.524 . S
C667 C671 1.400 . S
C668 H653 0.960 . S
C668 H654 0.960 . S
C668 H655 0.960 . S
C668 C667 1.524 . S
C669 C666 1.403 . S
C669 C670 1.392 . S
C669 C673 1.495 . S
C670 C669 1.392 . S
C670 C671 1.385 . S
C670 C672 1.478 . S
C671 H665 0.930 . S
C671 C667 1.400 . S
C671 C670 1.385 . S
C672 C670 1.478 . S
C672 C674 1.381 . S
C672 C678 1.383 . S
C673 C669 1.495 . S
C673 H679 0.959 . S
C673 H680 0.961 . S
C673 H681 0.960 . S
C674 C672 1.381 . S
C674 C675 1.394 . S
C674 H682 0.930 . S
C675 C674 1.394 . S
C675 C676 1.383 . S
C675 H683 0.929 . S
C676 C675 1.383 . S
C676 C677 1.377 . S
C677 H661 0.930 . S
C677 C676 1.377 . S
C677 C678 1.379 . S
C678 H662 0.931 . S
C678 C672 1.383 . S
C678 C677 1.379 . S
H679 C673 0.959 . S
H680 C673 0.961 . S
H681 C673 0.960 . S
H682 C674 0.930 . S
H683 C675 0.929 . S
H684 C692 0.929 . S
H685 C694 0.930 . S
H686 C696 0.930 . S
H687 C699 0.929 . S
H688 C702 0.930 . S
H689 C704 0.960 . S
H690 C704 0.960 . S
H691 C704 0.960 . S
C692 H684 0.929 . S
C692 C693 1.377 . S
C692 C694 1.384 . S
C693 C692 1.377 . S
C693 C699 1.390 . S
C694 H685 0.930 . S
C694 C692 1.384 . S
C694 C695 1.372 . S
C695 C694 1.372 . S
C695 C696 1.400 . S
C695 C700 1.490 . S
C696 H686 0.930 . S
C696 C695 1.400 . S
C696 C699 1.386 . S
H697 C713 0.968 . S
H698 C714 0.931 . S
C699 H687 0.929 . S
C699 C693 1.390 . S
C699 C696 1.386 . S
C700 C695 1.490 . S
C700 C702 1.395 . S
C700 C703 1.403 . S
H701 C707 0.930 . S
C702 H688 0.930 . S
C702 C700 1.395 . S
C702 C705 1.403 . S
C703 C700 1.403 . S
C703 C704 1.524 . S
C703 C707 1.400 . S
C704 H689 0.960 . S
C704 H690 0.960 . S
C704 H691 0.960 . S
C704 C703 1.524 . S
C705 C702 1.403 . S
C705 C706 1.392 . S
C705 C709 1.495 1_545 S
C706 C705 1.392 . S
C706 C707 1.385 . S
C706 C708 1.478 . S
C707 H701 0.930 . S
C707 C703 1.400 . S
C707 C706 1.385 . S
C708 C706 1.478 . S
C708 C710 1.386 1_545 S
C708 C714 1.377 . S
C709 C705 1.495 1_565 S
C709 H715 0.959 . S
C709 H716 0.961 . S
C709 H717 0.960 . S
C710 C708 1.386 1_565 S
C710 C711 1.394 . S
C710 H718 0.930 . S
C711 C710 1.394 . S
C711 C712 1.383 . S
C711 H719 0.929 . S
C712 C711 1.383 . S
C712 C713 1.341 1_565 S
C713 H697 0.968 . S
C713 C712 1.341 1_545 S
C713 C714 1.378 . S
C714 H698 0.931 . S
C714 C708 1.377 . S
C714 C713 1.378 . S
H715 C709 0.959 . S
H716 C709 0.961 . S
H717 C709 0.960 . S
H718 C710 0.930 . S
H719 C711 0.929 . S
H720 C728 0.929 . S
H721 C730 0.930 . S
H722 C732 0.930 . S
H723 C735 0.929 . S
H724 C738 0.927 . S
H725 C740 0.960 . S
H726 C740 0.960 . S
H727 C740 0.960 . S
C728 H720 0.929 . S
C728 C729 1.377 . S
C728 C730 1.384 . S
C729 C728 1.377 . S
C729 C735 1.390 1_545 S
C730 H721 0.930 . S
C730 C728 1.384 . S
C730 C731 1.372 1_545 S
C731 C730 1.372 1_565 S
C731 C732 1.400 . S
C731 C736 1.490 . S
C732 H722 0.930 . S
C732 C731 1.400 . S
C732 C735 1.386 . S
H733 C749 0.930 . S
H734 C750 0.931 . S
C735 H723 0.929 . S
C735 C729 1.390 1_565 S
C735 C732 1.386 . S
C736 C731 1.490 . S
C736 C738 1.395 . S
C736 C739 1.403 . S
H737 C743 0.930 . S
C738 H724 0.927 . S
C738 C736 1.395 . S
C738 C741 1.403 . S
C739 C736 1.403 . S
C739 C740 1.524 . S
C739 C743 1.400 . S
C740 H725 0.960 . S
C740 H726 0.960 . S
C740 H727 0.960 . S
C740 C739 1.524 . S
C741 C738 1.403 . S
C741 C742 1.392 . S
C741 C745 1.495 . S
C742 C741 1.392 . S
C742 C743 1.385 . S
C742 C744 1.478 . S
C743 H737 0.930 . S
C743 C739 1.400 . S
C743 C742 1.385 . S
C744 C742 1.478 . S
C744 C746 1.381 . S
C744 C750 1.383 . S
C745 C741 1.495 . S
C745 H751 0.959 . S
C745 H752 0.961 . S
C745 H753 0.960 . S
C746 C744 1.381 . S
C746 C747 1.394 . S
C746 H754 0.930 . S
C747 C746 1.394 . S
C747 C748 1.383 . S
C747 H755 0.929 . S
C748 C747 1.383 . S
C748 C749 1.377 . S
C749 H733 0.930 . S
C749 C748 1.377 . S
C749 C750 1.379 . S
C750 H734 0.931 . S
C750 C744 1.383 . S
C750 C749 1.379 . S
H751 C745 0.959 . S
H752 C745 0.961 . S
H753 C745 0.960 . S
H754 C746 0.930 . S
H755 C747 0.929 . S
H756 C764 0.929 . S
H757 C766 0.930 . S
H758 C768 0.930 . S
H759 C771 0.929 . S
H760 C774 0.930 . S
H761 C776 0.960 1_655 S
H762 C776 0.960 . S
H763 C776 0.960 . S
C764 H756 0.929 . S
C764 C765 1.377 . S
C764 C766 1.384 . S
C765 C764 1.377 . S
C765 C771 1.390 . S
C766 H757 0.930 . S
C766 C764 1.384 . S
C766 C767 1.372 . S
C767 C766 1.372 . S
C767 C768 1.400 . S
C767 C772 1.490 . S
C768 H758 0.930 . S
C768 C767 1.400 . S
C768 C771 1.386 . S
H769 C785 0.930 . S
H770 C786 0.931 . S
C771 H759 0.929 . S
C771 C765 1.390 . S
C771 C768 1.386 . S
C772 C767 1.490 . S
C772 C774 1.395 . S
C772 C775 1.403 . S
H773 C779 0.930 1_655 S
C774 H760 0.930 . S
C774 C772 1.395 . S
C774 C777 1.403 . S
C775 C772 1.403 . S
C775 C776 1.524 . S
C775 C779 1.400 . S
C776 H761 0.960 1_455 S
C776 H762 0.960 . S
C776 H763 0.960 . S
C776 C775 1.524 . S
C777 C774 1.403 . S
C777 C778 1.392 . S
C777 C781 1.495 . S
C778 C777 1.392 . S
C778 C779 1.385 . S
C778 C780 1.478 . S
C779 H773 0.930 1_455 S
C779 C775 1.400 . S
C779 C778 1.385 . S
C780 C778 1.478 . S
C780 C782 1.381 1_455 S
C780 C786 1.383 . S
C781 C777 1.495 . S
C781 H787 0.959 . S
C781 H788 0.961 . S
C781 H789 0.960 . S
C782 C780 1.381 1_655 S
C782 C783 1.394 . S
C782 H790 0.930 . S
C783 C782 1.394 . S
C783 C784 1.383 . S
C783 H791 0.929 . S
C784 C783 1.383 . S
C784 C785 1.377 . S
C785 H769 0.930 . S
C785 C784 1.377 . S
C785 C786 1.379 1_655 S
C786 H770 0.931 . S
C786 C780 1.383 . S
C786 C785 1.379 1_455 S
H787 C781 0.959 . S
H788 C781 0.961 . S
H789 C781 0.960 . S
H790 C782 0.930 . S
H791 C783 0.929 . S
H792 C800 0.929 . S
H793 C802 0.930 . S
H794 C804 0.930 . S
H795 C807 0.929 . S
H796 C810 0.930 . S
H797 C812 0.960 . S
H798 C812 0.960 . S
H799 C812 0.960 . S
C800 H792 0.929 . S
C800 C801 1.377 . S
C800 C802 1.384 . S
C801 C800 1.377 . S
C801 C807 1.390 . S
C802 H793 0.930 . S
C802 C800 1.384 . S
C802 C803 1.372 . S
C803 C802 1.372 . S
C803 C804 1.400 . S
C803 C808 1.490 . S
C804 H794 0.930 . S
C804 C803 1.400 . S
C804 C807 1.386 . S
H805 C821 0.930 . S
H806 C822 0.931 . S
C807 H795 0.929 . S
C807 C801 1.390 . S
C807 C804 1.386 . S
C808 C803 1.490 . S
C808 C810 1.395 . S
C808 C811 1.403 . S
H809 C815 0.930 . S
C810 H796 0.930 . S
C810 C808 1.395 . S
C810 C813 1.403 . S
C811 C808 1.403 . S
C811 C812 1.524 . S
C811 C815 1.400 . S
C812 H797 0.960 . S
C812 H798 0.960 . S
C812 H799 0.960 . S
C812 C811 1.524 . S
C813 C810 1.403 . S
C813 C814 1.392 . S
C813 C817 1.495 . S
C814 C813 1.392 . S
C814 C815 1.385 . S
C814 C816 1.478 . S
C815 H809 0.930 . S
C815 C811 1.400 . S
C815 C814 1.385 . S
C816 C814 1.478 . S
C816 C818 1.381 . S
C816 C822 1.383 . S
C817 C813 1.495 . S
C817 H823 0.959 . S
C817 H824 0.961 . S
C817 H825 0.960 . S
C818 C816 1.381 . S
C818 C819 1.394 . S
C818 H826 0.930 . S
C819 C818 1.394 . S
C819 C820 1.383 . S
C819 H827 0.929 . S
C820 C819 1.383 . S
C820 C821 1.377 . S
C821 H805 0.930 . S
C821 C820 1.377 . S
C821 C822 1.379 . S
C822 H806 0.931 . S
C822 C816 1.383 . S
C822 C821 1.379 . S
H823 C817 0.959 . S
H824 C817 0.961 . S
H825 C817 0.960 . S
H826 C818 0.930 . S
H827 C819 0.929 . S
H828 C836 0.929 . S
H829 C838 0.930 . S
H830 C840 0.930 . S
H831 C843 0.929 . S
H832 C846 0.930 . S
H833 C848 0.960 . S
H834 C848 0.960 . S
H835 C848 0.960 . S
C836 H828 0.929 . S
C836 C837 1.377 . S
C836 C838 1.384 . S
C837 C836 1.377 . S
C837 C843 1.390 . S
C838 H829 0.930 . S
C838 C836 1.384 . S
C838 C839 1.372 . S
C839 C838 1.372 . S
C839 C840 1.400 . S
C839 C844 1.490 . S
C840 H830 0.930 . S
C840 C839 1.400 . S
C840 C843 1.386 . S
H841 C857 0.930 . S
H842 C858 0.931 . S
C843 H831 0.929 . S
C843 C837 1.390 . S
C843 C840 1.386 . S
C844 C839 1.490 . S
C844 C846 1.395 . S
C844 C847 1.403 . S
H845 C851 0.930 . S
C846 H832 0.930 . S
C846 C844 1.395 . S
C846 C849 1.403 . S
C847 C844 1.403 . S
C847 C848 1.524 . S
C847 C851 1.400 . S
C848 H833 0.960 . S
C848 H834 0.960 . S
C848 H835 0.960 . S
C848 C847 1.524 . S
C849 C846 1.403 . S
C849 C850 1.392 . S
C849 C853 1.495 . S
C850 C849 1.392 . S
C850 C851 1.385 . S
C850 C852 1.478 . S
C851 H845 0.930 . S
C851 C847 1.400 . S
C851 C850 1.385 . S
C852 C850 1.478 . S
C852 C854 1.381 . S
C852 C858 1.383 . S
C853 C849 1.495 . S
C853 H859 0.959 . S
C853 H860 0.961 . S
C853 H861 0.960 . S
C854 C852 1.381 . S
C854 C855 1.394 . S
C854 H862 0.930 . S
C855 C854 1.394 . S
C855 C856 1.383 . S
C855 H863 0.929 . S
C856 C855 1.383 . S
C856 C857 1.377 . S
C857 H841 0.930 . S
C857 C856 1.377 . S
C857 C858 1.379 . S
C858 H842 0.931 . S
C858 C852 1.383 . S
C858 C857 1.379 . S
H859 C853 0.959 . S
H860 C853 0.961 . S
H861 C853 0.960 . S
H862 C854 0.930 . S
H863 C855 0.929 . S
H864 C872 0.929 . S
H865 C874 0.930 . S
H866 C876 0.930 . S
H867 C879 0.929 . S
H868 C882 0.930 . S
H869 C884 0.960 . S
H870 C884 0.960 . S
H871 C884 0.960 . S
C872 H864 0.929 . S
C872 C873 1.377 . S
C872 C874 1.384 . S
C873 C872 1.377 . S
C873 C879 1.390 . S
C874 H865 0.930 . S
C874 C872 1.384 . S
C874 C875 1.372 . S
C875 C874 1.372 . S
C875 C876 1.400 . S
C875 C880 1.490 . S
C876 H866 0.930 . S
C876 C875 1.400 . S
C876 C879 1.386 . S
H877 C893 0.930 . S
H878 C894 0.931 . S
C879 H867 0.929 . S
C879 C873 1.390 . S
C879 C876 1.386 . S
C880 C875 1.490 . S
C880 C882 1.395 . S
C880 C883 1.403 . S
H881 C887 0.930 . S
C882 H868 0.930 . S
C882 C880 1.395 . S
C882 C885 1.403 1_565 S
C883 C880 1.403 . S
C883 C884 1.524 . S
C883 C887 1.400 1_565 S
C884 H869 0.960 . S
C884 H870 0.960 . S
C884 H871 0.960 . S
C884 C883 1.524 . S
C885 C882 1.403 1_545 S
C885 C886 1.392 . S
C885 C889 1.495 . S
C886 C885 1.392 . S
C886 C887 1.385 . S
C886 C888 1.478 . S
C887 H881 0.930 . S
C887 C883 1.400 1_545 S
C887 C886 1.385 . S
C888 C886 1.478 . S
C888 C890 1.381 . S
C888 C894 1.383 . S
C889 C885 1.495 . S
C889 H895 0.959 . S
C889 H896 0.961 . S
C889 H897 0.960 . S
C890 C888 1.381 . S
C890 C891 1.394 . S
C890 H898 0.930 . S
C891 C890 1.394 . S
C891 C892 1.383 . S
C891 H899 0.929 . S
C892 C891 1.383 . S
C892 C893 1.377 . S
C893 H877 0.930 . S
C893 C892 1.377 . S
C893 C894 1.379 . S
C894 H878 0.931 . S
C894 C888 1.383 . S
C894 C893 1.379 . S
H895 C889 0.959 . S
H896 C889 0.961 . S
H897 C889 0.960 . S
H898 C890 0.930 . S
H899 C891 0.929 . S
H900 C908 0.929 . S
H901 C910 0.930 . S
H902 C912 0.930 . S
H903 C915 0.929 . S
H904 C918 0.930 . S
H905 C920 0.960 . S
H906 C920 0.960 . S
H907 C920 0.960 . S
C908 H900 0.929 . S
C908 C909 1.377 . S
C908 C910 1.384 . S
C909 C908 1.377 . S
C909 C915 1.390 . S
C910 H901 0.930 . S
C910 C908 1.384 . S
C910 C911 1.372 . S
C911 C910 1.372 . S
C911 C912 1.400 . S
C911 C916 1.490 . S
C912 H902 0.930 . S
C912 C911 1.400 . S
C912 C915 1.386 . S
H913 C929 0.930 . S
H914 C930 0.931 . S
C915 H903 0.929 . S
C915 C909 1.390 . S
C915 C912 1.386 . S
C916 C911 1.490 . S
C916 C918 1.395 . S
C916 C919 1.403 . S
H917 C923 0.930 . S
C918 H904 0.930 . S
C918 C916 1.395 . S
C918 C921 1.403 1_455 S
C919 C916 1.403 . S
C919 C920 1.524 . S
C919 C923 1.400 1_455 S
C920 H905 0.960 . S
C920 H906 0.960 . S
C920 H907 0.960 . S
C920 C919 1.524 . S
C921 C918 1.403 1_655 S
C921 C922 1.392 . S
C921 C925 1.495 . S
C922 C921 1.392 . S
C922 C923 1.385 . S
C922 C924 1.478 . S
C923 H917 0.930 . S
C923 C919 1.400 1_655 S
C923 C922 1.385 . S
C924 C922 1.478 . S
C924 C926 1.381 . S
C924 C930 1.383 . S
C925 C921 1.495 . S
C925 H931 0.959 . S
C925 H932 0.961 . S
C925 H933 0.960 . S
C926 C924 1.381 . S
C926 C927 1.394 . S
C926 H934 0.930 . S
C927 C926 1.394 . S
C927 C928 1.383 . S
C927 H935 0.929 . S
C928 C927 1.383 . S
C928 C929 1.377 . S
C929 H913 0.930 . S
C929 C928 1.377 . S
C929 C930 1.379 . S
C930 H914 0.931 . S
C930 C924 1.383 . S
C930 C929 1.379 . S
H931 C925 0.959 . S
H932 C925 0.961 . S
H933 C925 0.960 . S
H934 C926 0.930 . S
H935 C927 0.929 . S
H936 C944 0.929 . S
H937 C946 0.930 . S
H938 C948 0.930 . S
H939 C951 0.929 . S
H940 C954 0.930 . S
H941 C956 0.960 . S
H942 C956 0.960 . S
H943 C956 0.960 . S
C944 H936 0.929 . S
C944 C945 1.377 . S
C944 C946 1.384 . S
C945 C944 1.377 . S
C945 C951 1.390 . S
C946 H937 0.930 . S
C946 C944 1.384 . S
C946 C947 1.372 . S
C947 C946 1.372 . S
C947 C948 1.400 . S
C947 C952 1.490 . S
C948 H938 0.930 . S
C948 C947 1.400 . S
C948 C951 1.386 . S
H949 C965 0.930 . S
H950 C966 0.931 . S
C951 H939 0.929 . S
C951 C945 1.390 . S
C951 C948 1.386 . S
C952 C947 1.490 . S
C952 C954 1.395 . S
C952 C955 1.403 . S
H953 C959 0.930 . S
C954 H940 0.930 . S
C954 C952 1.395 . S
C954 C957 1.403 . S
C955 C952 1.403 . S
C955 C956 1.524 . S
C955 C959 1.400 . S
C956 H941 0.960 . S
C956 H942 0.960 . S
C956 H943 0.960 . S
C956 C955 1.524 . S
C957 C954 1.403 . S
C957 C958 1.392 . S
C957 C961 1.495 . S
C958 C957 1.392 . S
C958 C959 1.385 . S
C958 C960 1.478 . S
C959 H953 0.930 . S
C959 C955 1.400 . S
C959 C958 1.385 . S
C960 C958 1.478 . S
C960 C962 1.381 . S
C960 C966 1.383 . S
C961 C957 1.495 . S
C961 H967 0.959 . S
C961 H968 0.961 . S
C961 H969 0.960 . S
C962 C960 1.381 . S
C962 C963 1.394 . S
C962 H970 0.930 . S
C963 C962 1.394 . S
C963 C964 1.383 . S
C963 H971 0.929 . S
C964 C963 1.383 . S
C964 C965 1.377 . S
C965 H949 0.930 . S
C965 C964 1.377 . S
C965 C966 1.379 . S
C966 H950 0.931 . S
C966 C960 1.383 . S
C966 C965 1.379 . S
H967 C961 0.959 . S
H968 C961 0.961 . S
H969 C961 0.960 . S
H970 C962 0.930 . S
H971 C963 0.929 . S
H972 C980 0.929 . S
H973 C982 0.930 . S
H974 C984 0.930 . S
H975 C987 0.929 . S
H976 C990 0.930 . S
H977 C992 0.960 . S
H978 C992 0.960 . S
H979 C992 0.960 . S
C980 H972 0.929 . S
C980 C981 1.377 . S
C980 C982 1.384 . S
C981 C980 1.377 . S
C981 C987 1.390 . S
C982 H973 0.930 . S
C982 C980 1.384 . S
C982 C983 1.372 . S
C983 C982 1.372 . S
C983 C984 1.400 . S
C983 C988 1.490 . S
C984 H974 0.930 . S
C984 C983 1.400 . S
C984 C987 1.386 . S
H985 C1001 0.930 . S
H986 C1002 0.931 . S
C987 H975 0.929 . S
C987 C981 1.390 . S
C987 C984 1.386 . S
C988 C983 1.490 . S
C988 C990 1.395 . S
C988 C991 1.403 . S
H989 C995 0.930 . S
C990 H976 0.930 . S
C990 C988 1.395 . S
C990 C993 1.403 . S
C991 C988 1.403 . S
C991 C992 1.524 . S
C991 C995 1.400 . S
C992 H977 0.960 . S
C992 H978 0.960 . S
C992 H979 0.960 . S
C992 C991 1.524 . S
C993 C990 1.403 . S
C993 C994 1.392 . S
C993 C997 1.495 . S
C994 C993 1.392 . S
C994 C995 1.385 . S
C994 C996 1.478 . S
C995 H989 0.930 . S
C995 C991 1.400 . S
C995 C994 1.385 . S
C996 C994 1.478 . S
C996 C998 1.381 . S
C996 C1002 1.383 . S
C997 C993 1.495 . S
C997 H1003 0.959 . S
C997 H1004 0.961 . S
C997 H1005 0.960 . S
C998 C996 1.381 . S
C998 C999 1.394 . S
C998 H1006 0.930 . S
C999 C998 1.394 . S
C999 C1000 1.383 . S
C999 H1007 0.929 . S
C1000 C999 1.383 . S
C1000 C1001 1.377 . S
C1001 H985 0.930 . S
C1001 C1000 1.377 . S
C1001 C1002 1.379 . S
C1002 H986 0.931 . S
C1002 C996 1.383 . S
C1002 C1001 1.379 . S
H1003 C997 0.959 . S
H1004 C997 0.961 . S
H1005 C997 0.960 . S
H1006 C998 0.930 . S
H1007 C999 0.929 . S
H1008 C1016 0.929 . S
H1009 C1018 0.930 . S
H1010 C1020 0.930 . S
H1011 C1023 0.929 . S
H1012 C1026 0.930 . S
H1013 C1028 0.960 . S
H1014 C1028 0.960 . S
H1015 C1028 0.960 . S
C1016 H1008 0.929 . S
C1016 C1017 1.377 . S
C1016 C1018 1.384 . S
C1017 C1016 1.377 . S
C1017 C1023 1.390 . S
C1018 H1009 0.930 . S
C1018 C1016 1.384 . S
C1018 C1019 1.372 . S
C1019 C1018 1.372 . S
C1019 C1020 1.400 . S
C1019 C1024 1.490 . S
C1020 H1010 0.930 . S
C1020 C1019 1.400 . S
C1020 C1023 1.386 . S
H1021 C1037 0.930 . S
H1022 C1038 0.931 . S
C1023 H1011 0.929 . S
C1023 C1017 1.390 . S
C1023 C1020 1.386 . S
C1024 C1019 1.490 . S
C1024 C1026 1.395 . S
C1024 C1027 1.403 . S
H1025 C1031 0.930 . S
C1026 H1012 0.930 . S
C1026 C1024 1.395 . S
C1026 C1029 1.403 . S
C1027 C1024 1.403 . S
C1027 C1028 1.524 . S
C1027 C1031 1.400 . S
C1028 H1013 0.960 . S
C1028 H1014 0.960 . S
C1028 H1015 0.960 . S
C1028 C1027 1.524 . S
C1029 C1026 1.403 . S
C1029 C1030 1.392 . S
C1029 C1033 1.495 . S
C1030 C1029 1.392 . S
C1030 C1031 1.385 . S
C1030 C1032 1.478 . S
C1031 H1025 0.930 . S
C1031 C1027 1.400 . S
C1031 C1030 1.385 . S
C1032 C1030 1.478 . S
C1032 C1034 1.381 . S
C1032 C1038 1.383 . S
C1033 C1029 1.495 . S
C1033 H1039 0.959 . S
C1033 H1040 0.961 . S
C1033 H1041 0.960 . S
C1034 C1032 1.381 . S
C1034 C1035 1.394 . S
C1034 H1042 0.930 . S
C1035 C1034 1.394 . S
C1035 C1036 1.383 . S
C1035 H1043 0.929 . S
C1036 C1035 1.383 . S
C1036 C1037 1.377 . S
C1037 H1021 0.930 . S
C1037 C1036 1.377 . S
C1037 C1038 1.379 . S
C1038 H1022 0.931 . S
C1038 C1032 1.383 . S
C1038 C1037 1.379 . S
H1039 C1033 0.959 . S
H1040 C1033 0.961 . S
H1041 C1033 0.960 . S
H1042 C1034 0.930 . S
H1043 C1035 0.929 . S
H1044 C1052 0.929 . S
H1045 C1054 0.930 . S
H1046 C1056 0.930 . S
H1047 C1059 0.929 . S
H1048 C1062 0.930 . S
H1049 C1064 0.960 . S
H1050 C1064 0.960 . S
H1051 C1064 0.960 . S
C1052 H1044 0.929 . S
C1052 C1053 1.377 . S
C1052 C1054 1.384 . S
C1053 C1052 1.377 . S
C1053 C1059 1.390 . S
C1054 H1045 0.930 . S
C1054 C1052 1.384 . S
C1054 C1055 1.372 . S
C1055 C1054 1.372 . S
C1055 C1056 1.400 . S
C1055 C1060 1.490 . S
C1056 H1046 0.930 . S
C1056 C1055 1.400 . S
C1056 C1059 1.386 . S
H1057 C1073 0.930 . S
H1058 C1074 0.931 . S
C1059 H1047 0.929 . S
C1059 C1053 1.390 . S
C1059 C1056 1.386 . S
C1060 C1055 1.490 . S
C1060 C1062 1.395 . S
C1060 C1063 1.403 . S
H1061 C1067 0.930 . S
C1062 H1048 0.930 . S
C1062 C1060 1.395 . S
C1062 C1065 1.403 . S
C1063 C1060 1.403 . S
C1063 C1064 1.524 . S
C1063 C1067 1.400 . S
C1064 H1049 0.960 . S
C1064 H1050 0.960 . S
C1064 H1051 0.960 . S
C1064 C1063 1.524 . S
C1065 C1062 1.403 . S
C1065 C1066 1.392 . S
C1065 C1069 1.495 . S
C1066 C1065 1.392 . S
C1066 C1067 1.385 . S
C1066 C1068 1.478 . S
C1067 H1061 0.930 . S
C1067 C1063 1.400 . S
C1067 C1066 1.385 . S
C1068 C1066 1.478 . S
C1068 C1070 1.381 . S
C1068 C1074 1.383 . S
C1069 C1065 1.495 . S
C1069 H1075 0.959 . S
C1069 H1076 0.961 . S
C1069 H1077 0.960 . S
C1070 C1068 1.381 . S
C1070 C1071 1.394 . S
C1070 H1078 0.930 . S
C1071 C1070 1.394 . S
C1071 C1072 1.383 . S
C1071 H1079 0.929 . S
C1072 C1071 1.383 . S
C1072 C1073 1.377 . S
C1073 H1057 0.930 . S
C1073 C1072 1.377 . S
C1073 C1074 1.379 . S
C1074 H1058 0.931 . S
C1074 C1068 1.383 . S
C1074 C1073 1.379 . S
H1075 C1069 0.959 . S
H1076 C1069 0.961 . S
H1077 C1069 0.960 . S
H1078 C1070 0.930 . S
H1079 C1071 0.929 . S
H1080 C1088 0.929 . S
H1081 C1090 0.930 . S
H1082 C1092 0.930 . S
H1083 C1095 0.929 . S
H1084 C1098 0.930 . S
H1085 C1100 0.960 . S
H1086 C1100 0.960 . S
H1087 C1100 0.960 . S
C1088 H1080 0.929 . S
C1088 C1089 1.377 . S
C1088 C1090 1.384 . S
C1089 C1088 1.377 . S
C1089 C1095 1.390 . S
C1090 H1081 0.930 . S
C1090 C1088 1.384 . S
C1090 C1091 1.372 . S
C1091 C1090 1.372 . S
C1091 C1092 1.400 . S
C1091 C1096 1.490 . S
C1092 H1082 0.930 . S
C1092 C1091 1.400 . S
C1092 C1095 1.386 . S
H1093 C1109 0.930 . S
H1094 C1110 0.931 . S
C1095 H1083 0.929 . S
C1095 C1089 1.390 . S
C1095 C1092 1.386 . S
C1096 C1091 1.490 . S
C1096 C1098 1.395 . S
C1096 C1099 1.403 . S
H1097 C1103 0.930 . S
C1098 H1084 0.930 . S
C1098 C1096 1.395 . S
C1098 C1101 1.403 . S
C1099 C1096 1.403 . S
C1099 C1100 1.524 . S
C1099 C1103 1.400 . S
C1100 H1085 0.960 . S
C1100 H1086 0.960 . S
C1100 H1087 0.960 . S
C1100 C1099 1.524 . S
C1101 C1098 1.403 . S
C1101 C1102 1.392 . S
C1101 C1105 1.495 . S
C1102 C1101 1.392 . S
C1102 C1103 1.385 . S
C1102 C1104 1.478 . S
C1103 H1097 0.930 . S
C1103 C1099 1.400 . S
C1103 C1102 1.385 . S
C1104 C1102 1.478 . S
C1104 C1106 1.381 . S
C1104 C1110 1.383 . S
C1105 C1101 1.495 . S
C1105 H1111 0.959 . S
C1105 H1112 0.961 . S
C1105 H1113 0.960 . S
C1106 C1104 1.381 . S
C1106 C1107 1.394 . S
C1106 H1114 0.930 . S
C1107 C1106 1.394 . S
C1107 C1108 1.383 . S
C1107 H1115 0.929 . S
C1108 C1107 1.383 . S
C1108 C1109 1.377 . S
C1109 H1093 0.930 . S
C1109 C1108 1.377 . S
C1109 C1110 1.379 . S
C1110 H1094 0.931 . S
C1110 C1104 1.383 . S
C1110 C1109 1.379 . S
H1111 C1105 0.959 . S
H1112 C1105 0.961 . S
H1113 C1105 0.960 . S
H1114 C1106 0.930 . S
H1115 C1107 0.929 . S
H1116 C1124 0.929 . S
H1117 C1126 0.930 . S
H1118 C1128 0.930 . S
H1119 C1131 0.929 . S
H1120 C1134 0.930 . S
H1121 C1136 0.960 . S
H1122 C1136 0.960 . S
H1123 C1136 0.960 . S
C1124 H1116 0.929 . S
C1124 C1125 1.377 . S
C1124 C1126 1.384 . S
C1125 C1124 1.377 . S
C1125 C1131 1.390 . S
C1126 H1117 0.930 . S
C1126 C1124 1.384 . S
C1126 C1127 1.372 . S
C1127 C1126 1.372 . S
C1127 C1128 1.400 . S
C1127 C1132 1.490 . S
C1128 H1118 0.930 . S
C1128 C1127 1.400 . S
C1128 C1131 1.386 . S
H1129 C1145 0.930 . S
H1130 C1146 0.931 . S
C1131 H1119 0.929 . S
C1131 C1125 1.390 . S
C1131 C1128 1.386 . S
C1132 C1127 1.490 . S
C1132 C1134 1.395 . S
C1132 C1135 1.403 . S
H1133 C1139 0.930 . S
C1134 H1120 0.930 . S
C1134 C1132 1.395 . S
C1134 C1137 1.403 . S
C1135 C1132 1.403 . S
C1135 C1136 1.524 . S
C1135 C1139 1.400 . S
C1136 H1121 0.960 . S
C1136 H1122 0.960 . S
C1136 H1123 0.960 . S
C1136 C1135 1.524 . S
C1137 C1134 1.403 . S
C1137 C1138 1.392 . S
C1137 C1141 1.495 . S
C1138 C1137 1.392 . S
C1138 C1139 1.385 . S
C1138 C1140 1.478 . S
C1139 H1133 0.930 . S
C1139 C1135 1.400 . S
C1139 C1138 1.385 . S
C1140 C1138 1.478 . S
C1140 C1142 1.381 . S
C1140 C1146 1.383 . S
C1141 C1137 1.495 . S
C1141 H1147 0.959 . S
C1141 H1148 0.961 . S
C1141 H1149 0.960 . S
C1142 C1140 1.381 . S
C1142 C1143 1.394 . S
C1142 H1150 0.930 . S
C1143 C1142 1.394 . S
C1143 C1144 1.383 . S
C1143 H1151 0.929 . S
C1144 C1143 1.383 . S
C1144 C1145 1.377 . S
C1145 H1129 0.930 . S
C1145 C1144 1.377 . S
C1145 C1146 1.379 . S
C1146 H1130 0.931 . S
C1146 C1140 1.383 . S
C1146 C1145 1.379 . S
H1147 C1141 0.959 . S
H1148 C1141 0.961 . S
H1149 C1141 0.960 . S
H1150 C1142 0.930 . S
H1151 C1143 0.929 . S
H1152 C1160 0.929 . S
H1153 C1162 0.930 . S
H1154 C1164 0.930 . S
H1155 C1167 0.929 . S
H1156 C1170 0.930 . S
H1157 C1172 0.960 . S
H1158 C1172 0.960 . S
H1159 C1172 0.960 . S
C1160 H1152 0.929 . S
C1160 C1161 1.377 . S
C1160 C1162 1.384 . S
C1161 C1160 1.377 . S
C1161 C1167 1.390 . S
C1162 H1153 0.930 . S
C1162 C1160 1.384 . S
C1162 C1163 1.372 . S
C1163 C1162 1.372 . S
C1163 C1164 1.400 . S
C1163 C1168 1.490 . S
C1164 H1154 0.930 . S
C1164 C1163 1.400 . S
C1164 C1167 1.386 . S
H1165 C1181 0.930 . S
H1166 C1182 0.931 . S
C1167 H1155 0.929 . S
C1167 C1161 1.390 . S
C1167 C1164 1.386 . S
C1168 C1163 1.490 . S
C1168 C1170 1.395 1_655 S
C1168 C1171 1.403 1_554 S
H1169 C1175 0.929 . S
C1170 H1156 0.930 . S
C1170 C1168 1.395 1_455 S
C1170 C1173 1.403 . S
C1171 C1168 1.403 1_556 S
C1171 C1172 1.524 . S
C1171 C1175 1.435 . S
C1172 H1157 0.960 . S
C1172 H1158 0.960 . S
C1172 H1159 0.960 . S
C1172 C1171 1.524 . S
C1173 C1170 1.403 . S
C1173 C1174 1.392 1_554 S
C1173 C1177 1.495 . S
C1174 C1173 1.392 1_556 S
C1174 C1175 1.354 1_455 S
C1174 C1176 1.478 . S
C1175 H1169 0.929 . S
C1175 C1171 1.435 . S
C1175 C1174 1.354 1_655 S
C1176 C1174 1.478 . S
C1176 C1178 1.381 . S
C1176 C1182 1.383 . S
C1177 C1173 1.495 . S
C1177 H1183 0.959 . S
C1177 H1184 0.961 . S
C1177 H1185 0.960 . S
C1178 C1176 1.381 . S
C1178 C1179 1.394 . S
C1178 H1186 0.930 . S
C1179 C1178 1.394 . S
C1179 C1180 1.383 . S
C1179 H1187 0.929 . S
C1180 C1179 1.383 . S
C1180 C1181 1.377 . S
C1181 H1165 0.930 . S
C1181 C1180 1.377 . S
C1181 C1182 1.379 . S
C1182 H1166 0.931 . S
C1182 C1176 1.383 . S
C1182 C1181 1.379 . S
H1183 C1177 0.959 . S
H1184 C1177 0.961 . S
H1185 C1177 0.960 . S
H1186 C1178 0.930 . S
H1187 C1179 0.929 . S
H1188 C1196 0.929 . S
H1189 C1198 0.930 . S
H1190 C1200 0.930 . S
H1191 C1203 0.929 . S
H1192 C1206 0.930 . S
H1193 C1208 0.960 . S
H1194 C1208 0.960 . S
H1195 C1208 0.960 . S
C1196 H1188 0.929 . S
C1196 C1197 1.377 . S
C1196 C1198 1.384 . S
C1197 C1196 1.377 . S
C1197 C1203 1.390 . S
C1198 H1189 0.930 . S
C1198 C1196 1.384 . S
C1198 C1199 1.372 . S
C1199 C1198 1.372 . S
C1199 C1200 1.400 . S
C1199 C1204 1.490 . S
C1200 H1190 0.930 . S
C1200 C1199 1.400 . S
C1200 C1203 1.386 . S
H1201 C1217 0.930 . S
H1202 C1218 0.931 . S
C1203 H1191 0.929 . S
C1203 C1197 1.390 . S
C1203 C1200 1.386 . S
C1204 C1199 1.490 . S
C1204 C1206 1.395 . S
C1204 C1207 1.403 1_556 S
H1205 C1211 0.930 . S
C1206 H1192 0.930 . S
C1206 C1204 1.395 . S
C1206 C1209 1.403 . S
C1207 C1204 1.403 1_554 S
C1207 C1208 1.524 . S
C1207 C1211 1.400 . S
C1208 H1193 0.960 . S
C1208 H1194 0.960 . S
C1208 H1195 0.960 . S
C1208 C1207 1.524 . S
C1209 C1206 1.403 . S
C1209 C1210 1.392 1_556 S
C1209 C1213 1.495 . S
C1210 C1209 1.392 1_554 S
C1210 C1211 1.385 . S
C1210 C1212 1.478 . S
C1211 H1205 0.930 . S
C1211 C1207 1.400 . S
C1211 C1210 1.385 . S
C1212 C1210 1.478 . S
C1212 C1214 1.381 . S
C1212 C1218 1.383 . S
C1213 C1209 1.495 . S
C1213 H1219 0.959 . S
C1213 H1220 0.961 . S
C1213 H1221 0.960 . S
C1214 C1212 1.381 . S
C1214 C1215 1.394 . S
C1214 H1222 0.930 . S
C1215 C1214 1.394 . S
C1215 C1216 1.383 . S
C1215 H1223 0.929 . S
C1216 C1215 1.383 . S
C1216 C1217 1.377 . S
C1217 H1201 0.930 . S
C1217 C1216 1.377 . S
C1217 C1218 1.379 . S
C1218 H1202 0.931 . S
C1218 C1212 1.383 . S
C1218 C1217 1.379 . S
H1219 C1213 0.959 . S
H1220 C1213 0.961 . S
H1221 C1213 0.960 . S
H1222 C1214 0.930 . S
H1223 C1215 0.929 . S
H1224 C1232 0.929 . S
H1225 C1234 0.930 . S
H1226 C1236 0.930 . S
H1227 C1239 0.929 . S
H1228 C1242 0.927 . S
H1229 C1244 0.960 . S
H1230 C1244 0.960 . S
H1231 C1244 0.960 1_554 S
C1232 H1224 0.929 . S
C1232 C1233 1.377 . S
C1232 C1234 1.384 . S
C1233 C1232 1.377 . S
C1233 C1239 1.390 . S
C1234 H1225 0.930 . S
C1234 C1232 1.384 . S
C1234 C1235 1.372 . S
C1235 C1234 1.372 . S
C1235 C1236 1.400 . S
C1235 C1240 1.490 . S
C1236 H1226 0.930 . S
C1236 C1235 1.400 . S
C1236 C1239 1.386 . S
H1237 C1253 0.930 . S
H1238 C1254 0.931 . S
C1239 H1227 0.929 . S
C1239 C1233 1.390 . S
C1239 C1236 1.386 . S
C1240 C1235 1.490 . S
C1240 C1242 1.409 . S
C1240 C1243 1.403 1_554 S
H1241 C1247 0.930 . S
C1242 H1228 0.927 . S
C1242 C1240 1.409 . S
C1242 C1245 1.393 1_545 S
C1243 C1240 1.403 1_556 S
C1243 C1244 1.524 . S
C1243 C1247 1.400 1_545 S
C1244 H1229 0.960 . S
C1244 H1230 0.960 . S
C1244 H1231 0.960 1_556 S
C1244 C1243 1.524 . S
C1245 C1242 1.393 1_565 S
C1245 C1246 1.392 1_554 S
C1245 C1249 1.495 . S
C1246 C1245 1.392 1_556 S
C1246 C1247 1.385 . S
C1246 C1248 1.478 . S
C1247 H1241 0.930 . S
C1247 C1243 1.400 1_565 S
C1247 C1246 1.385 . S
C1248 C1246 1.478 . S
C1248 C1250 1.381 . S
C1248 C1254 1.383 . S
C1249 C1245 1.495 . S
C1249 H1255 0.959 . S
C1249 H1256 0.961 . S
C1249 H1257 0.960 1_554 S
C1250 C1248 1.381 . S
C1250 C1251 1.394 . S
C1250 H1258 0.930 . S
C1251 C1250 1.394 . S
C1251 C1252 1.383 . S
C1251 H1259 0.929 . S
C1252 C1251 1.383 . S
C1252 C1253 1.377 . S
C1253 H1237 0.930 . S
C1253 C1252 1.377 . S
C1253 C1254 1.379 . S
C1254 H1238 0.931 . S
C1254 C1248 1.383 . S
C1254 C1253 1.379 . S
H1255 C1249 0.959 . S
H1256 C1249 0.961 . S
H1257 C1249 0.960 1_556 S
H1258 C1250 0.930 . S
H1259 C1251 0.929 . S
H1260 C1268 0.929 . S
H1261 C1270 0.930 . S
H1262 C1272 0.930 . S
H1263 C1275 0.929 . S
H1264 C1278 0.930 . S
H1265 C1280 0.960 . S
H1266 C1280 0.960 . S
H1267 C1280 0.960 . S
C1268 H1260 0.929 . S
C1268 C1269 1.377 . S
C1268 C1270 1.384 . S
C1269 C1268 1.377 . S
C1269 C1275 1.390 . S
C1270 H1261 0.930 . S
C1270 C1268 1.384 . S
C1270 C1271 1.372 . S
C1271 C1270 1.372 . S
C1271 C1272 1.400 . S
C1271 C1276 1.490 . S
C1272 H1262 0.930 . S
C1272 C1271 1.400 . S
C1272 C1275 1.386 . S
H1273 C1289 0.930 . S
H1274 C1290 0.931 . S
C1275 H1263 0.929 . S
C1275 C1269 1.390 . S
C1275 C1272 1.386 . S
C1276 C1271 1.490 . S
C1276 C1278 1.395 . S
C1276 C1279 1.403 1_455 S
H1277 C1283 0.930 . S
C1278 H1264 0.930 . S
C1278 C1276 1.395 . S
C1278 C1281 1.403 1_554 S
C1279 C1276 1.403 1_655 S
C1279 C1280 1.524 . S
C1279 C1283 1.400 1_554 S
C1280 H1265 0.960 . S
C1280 H1266 0.960 . S
C1280 H1267 0.960 . S
C1280 C1279 1.524 . S
C1281 C1278 1.403 1_556 S
C1281 C1282 1.392 1_455 S
C1281 C1285 1.495 . S
C1282 C1281 1.392 1_655 S
C1282 C1283 1.385 . S
C1282 C1284 1.478 . S
C1283 H1277 0.930 . S
C1283 C1279 1.400 1_556 S
C1283 C1282 1.385 . S
C1284 C1282 1.478 . S
C1284 C1286 1.381 . S
C1284 C1290 1.383 . S
C1285 C1281 1.495 . S
C1285 H1291 0.959 . S
C1285 H1292 0.961 . S
C1285 H1293 0.960 . S
C1286 C1284 1.381 . S
C1286 C1287 1.394 . S
C1286 H1294 0.930 . S
C1287 C1286 1.394 . S
C1287 C1288 1.383 . S
C1287 H1295 0.929 . S
C1288 C1287 1.383 . S
C1288 C1289 1.377 . S
C1289 H1273 0.930 . S
C1289 C1288 1.377 . S
C1289 C1290 1.379 . S
C1290 H1274 0.931 . S
C1290 C1284 1.383 . S
C1290 C1289 1.379 . S
H1291 C1285 0.959 . S
H1292 C1285 0.961 . S
H1293 C1285 0.960 . S
H1294 C1286 0.930 . S
H1295 C1287 0.929 . S
H1296 C1304 0.929 . S
H1297 C1306 0.930 . S
H1298 C1308 0.930 . S
H1299 C1311 0.929 . S
H1300 C1314 0.930 . S
H1301 C1316 0.960 1_554 S
H1302 C1316 0.960 . S
H1303 C1316 0.960 . S
C1304 H1296 0.929 . S
C1304 C1305 1.377 . S
C1304 C1306 1.384 . S
C1305 C1304 1.377 . S
C1305 C1311 1.390 . S
C1306 H1297 0.930 . S
C1306 C1304 1.384 . S
C1306 C1307 1.372 . S
C1307 C1306 1.372 . S
C1307 C1308 1.400 . S
C1307 C1312 1.490 . S
C1308 H1298 0.930 . S
C1308 C1307 1.400 . S
C1308 C1311 1.386 . S
H1309 C1325 0.930 . S
H1310 C1326 0.931 . S
C1311 H1299 0.929 . S
C1311 C1305 1.390 . S
C1311 C1308 1.386 . S
C1312 C1307 1.490 . S
C1312 C1314 1.395 . S
C1312 C1315 1.403 . S
H1313 C1319 0.930 . S
C1314 H1300 0.930 . S
C1314 C1312 1.395 . S
C1314 C1317 1.400 1_556 S
C1315 C1312 1.403 . S
C1315 C1316 1.524 . S
C1315 C1319 1.400 1_556 S
C1316 H1301 0.960 1_556 S
C1316 H1302 0.960 . S
C1316 H1303 0.960 . S
C1316 C1315 1.524 . S
C1317 C1314 1.400 1_554 S
C1317 C1318 1.396 . S
C1317 C1321 1.495 . S
C1318 C1317 1.396 . S
C1318 C1319 1.385 . S
C1318 C1320 1.478 . S
C1319 H1313 0.930 . S
C1319 C1315 1.400 1_554 S
C1319 C1318 1.385 . S
C1320 C1318 1.478 . S
C1320 C1322 1.381 . S
C1320 C1326 1.383 . S
C1321 C1317 1.495 . S
C1321 H1327 0.926 1_554 S
C1321 H1328 0.986 . S
C1321 H1329 0.970 . S
C1322 C1320 1.381 . S
C1322 C1323 1.394 . S
C1322 H1330 0.930 . S
C1323 C1322 1.394 . S
C1323 C1324 1.383 . S
C1323 H1331 0.929 . S
C1324 C1323 1.383 . S
C1324 C1325 1.377 . S
C1325 H1309 0.930 . S
C1325 C1324 1.377 . S
C1325 C1326 1.379 . S
C1326 H1310 0.931 . S
C1326 C1320 1.383 . S
C1326 C1325 1.379 . S
H1327 C1321 0.926 1_556 S
H1328 C1321 0.986 . S
H1329 C1321 0.970 . S
H1330 C1322 0.930 . S
H1331 C1323 0.929 . S
H1332 C1340 0.929 . S
H1333 C1342 0.930 . S
H1334 C1344 0.930 . S
H1335 C1347 0.929 . S
H1336 C1350 0.935 . S
H1337 C1352 0.960 . S
H1338 C1352 0.960 . S
H1339 C1352 0.960 . S
C1340 H1332 0.929 . S
C1340 C1341 1.377 . S
C1340 C1342 1.384 . S
C1341 C1340 1.377 . S
C1341 C1347 1.390 . S
C1342 H1333 0.930 . S
C1342 C1340 1.384 . S
C1342 C1343 1.372 . S
C1343 C1342 1.372 . S
C1343 C1344 1.400 . S
C1343 C1348 1.490 . S
C1344 H1334 0.930 . S
C1344 C1343 1.400 . S
C1344 C1347 1.386 . S
H1345 C1361 0.930 . S
H1346 C1362 0.931 . S
C1347 H1335 0.929 . S
C1347 C1341 1.390 . S
C1347 C1344 1.386 . S
C1348 C1343 1.490 . S
C1348 C1350 1.425 . S
C1348 C1351 1.403 1_545 S
H1349 C1355 0.930 . S
C1350 H1336 0.935 . S
C1350 C1348 1.425 . S
C1350 C1353 1.370 1_556 S
C1351 C1348 1.403 1_565 S
C1351 C1352 1.524 . S
C1351 C1355 1.400 1_556 S
C1352 H1337 0.960 . S
C1352 H1338 0.960 . S
C1352 H1339 0.960 . S
C1352 C1351 1.524 . S
C1353 C1350 1.370 1_554 S
C1353 C1354 1.392 1_545 S
C1353 C1357 1.495 . S
C1354 C1353 1.392 1_565 S
C1354 C1355 1.385 . S
C1354 C1356 1.478 . S
C1355 H1349 0.930 . S
C1355 C1351 1.400 1_554 S
C1355 C1354 1.385 . S
C1356 C1354 1.478 . S
C1356 C1358 1.381 . S
C1356 C1362 1.383 . S
C1357 C1353 1.495 . S
C1357 H1363 0.959 . S
C1357 H1364 0.961 . S
C1357 H1365 0.960 . S
C1358 C1356 1.381 . S
C1358 C1359 1.394 . S
C1358 H1366 0.930 . S
C1359 C1358 1.394 . S
C1359 C1360 1.383 . S
C1359 H1367 0.929 . S
C1360 C1359 1.383 . S
C1360 C1361 1.377 . S
C1361 H1345 0.930 . S
C1361 C1360 1.377 . S
C1361 C1362 1.379 . S
C1362 H1346 0.931 . S
C1362 C1356 1.383 . S
C1362 C1361 1.379 . S
H1363 C1357 0.959 . S
H1364 C1357 0.961 . S
H1365 C1357 0.960 . S
H1366 C1358 0.930 . S
H1367 C1359 0.929 . S
H1368 C1376 0.929 . S
H1369 C1378 0.930 . S
H1370 C1380 0.930 . S
H1371 C1383 0.929 . S
H1372 C1386 0.930 . S
H1373 C1388 0.960 . S
H1374 C1388 0.960 . S
H1375 C1388 0.960 . S
C1376 H1368 0.929 . S
C1376 C1377 1.377 . S
C1376 C1378 1.384 . S
C1377 C1376 1.377 . S
C1377 C1383 1.390 . S
C1378 H1369 0.930 . S
C1378 C1376 1.384 . S
C1378 C1379 1.372 . S
C1379 C1378 1.372 . S
C1379 C1380 1.400 . S
C1379 C1384 1.490 . S
C1380 H1370 0.930 . S
C1380 C1379 1.400 . S
C1380 C1383 1.386 . S
H1381 C1397 0.930 . S
H1382 C1398 0.931 . S
C1383 H1371 0.929 . S
C1383 C1377 1.390 . S
C1383 C1380 1.386 . S
C1384 C1379 1.490 . S
C1384 C1386 1.395 . S
C1384 C1387 1.403 . S
H1385 C1391 0.930 . S
C1386 H1372 0.930 . S
C1386 C1384 1.395 . S
C1386 C1389 1.403 . S
C1387 C1384 1.403 . S
C1387 C1388 1.524 . S
C1387 C1391 1.400 . S
C1388 H1373 0.960 . S
C1388 H1374 0.960 . S
C1388 H1375 0.960 . S
C1388 C1387 1.524 . S
C1389 C1386 1.403 . S
C1389 C1390 1.392 . S
C1389 C1393 1.495 . S
C1390 C1389 1.392 . S
C1390 C1391 1.385 . S
C1390 C1392 1.478 . S
C1391 H1385 0.930 . S
C1391 C1387 1.400 . S
C1391 C1390 1.385 . S
C1392 C1390 1.478 . S
C1392 C1394 1.381 . S
C1392 C1398 1.383 . S
C1393 C1389 1.495 . S
C1393 H1399 0.959 . S
C1393 H1400 0.961 . S
C1393 H1401 0.960 . S
C1394 C1392 1.381 . S
C1394 C1395 1.394 . S
C1394 H1402 0.930 . S
C1395 C1394 1.394 . S
C1395 C1396 1.383 . S
C1395 H1403 0.929 . S
C1396 C1395 1.383 . S
C1396 C1397 1.377 . S
C1397 H1381 0.930 . S
C1397 C1396 1.377 . S
C1397 C1398 1.379 . S
C1398 H1382 0.931 . S
C1398 C1392 1.383 . S
C1398 C1397 1.379 . S
H1399 C1393 0.959 . S
H1400 C1393 0.961 . S
H1401 C1393 0.960 . S
H1402 C1394 0.930 . S
H1403 C1395 0.929 . S
H1404 C1412 0.929 . S
H1405 C1414 0.930 . S
H1406 C1416 0.930 . S
H1407 C1419 0.929 . S
H1408 C1422 0.930 . S
H1409 C1424 0.960 . S
H1410 C1424 0.960 . S
H1411 C1424 0.960 . S
C1412 H1404 0.929 . S
C1412 C1413 1.377 . S
C1412 C1414 1.384 . S
C1413 C1412 1.377 . S
C1413 C1419 1.390 . S
C1414 H1405 0.930 . S
C1414 C1412 1.384 . S
C1414 C1415 1.372 . S
C1415 C1414 1.372 . S
C1415 C1416 1.400 . S
C1415 C1420 1.490 . S
C1416 H1406 0.930 . S
C1416 C1415 1.400 . S
C1416 C1419 1.386 . S
H1417 C1433 0.930 . S
H1418 C1434 0.931 . S
C1419 H1407 0.929 . S
C1419 C1413 1.390 . S
C1419 C1416 1.386 . S
C1420 C1415 1.490 . S
C1420 C1422 1.395 . S
C1420 C1423 1.403 . S
H1421 C1427 0.930 . S
C1422 H1408 0.930 . S
C1422 C1420 1.395 . S
C1422 C1425 1.403 . S
C1423 C1420 1.403 . S
C1423 C1424 1.524 . S
C1423 C1427 1.400 . S
C1424 H1409 0.960 . S
C1424 H1410 0.960 . S
C1424 H1411 0.960 . S
C1424 C1423 1.524 . S
C1425 C1422 1.403 . S
C1425 C1426 1.392 . S
C1425 C1429 1.495 . S
C1426 C1425 1.392 . S
C1426 C1427 1.385 . S
C1426 C1428 1.478 . S
C1427 H1421 0.930 . S
C1427 C1423 1.400 . S
C1427 C1426 1.385 . S
C1428 C1426 1.478 . S
C1428 C1430 1.381 . S
C1428 C1434 1.383 . S
C1429 C1425 1.495 . S
C1429 H1435 0.959 . S
C1429 H1436 0.961 . S
C1429 H1437 0.960 . S
C1430 C1428 1.381 . S
C1430 C1431 1.394 . S
C1430 H1438 0.930 . S
C1431 C1430 1.394 . S
C1431 C1432 1.383 . S
C1431 H1439 0.929 . S
C1432 C1431 1.383 . S
C1432 C1433 1.377 . S
C1433 H1417 0.930 . S
C1433 C1432 1.377 . S
C1433 C1434 1.379 . S
C1434 H1418 0.931 . S
C1434 C1428 1.383 . S
C1434 C1433 1.379 . S
H1435 C1429 0.959 . S
H1436 C1429 0.961 . S
H1437 C1429 0.960 . S
H1438 C1430 0.930 . S
H1439 C1431 0.929 . S
H1440 C1448 0.929 . S
H1441 C1450 0.930 . S
H1442 C1452 0.930 . S
H1443 C1455 0.929 . S
H1444 C1458 0.930 . S
H1445 C1460 0.960 . S
H1446 C1460 0.960 . S
H1447 C1460 0.960 . S
C1448 H1440 0.929 . S
C1448 C1449 1.377 . S
C1448 C1450 1.384 . S
C1449 C1448 1.377 . S
C1449 C1455 1.390 . S
C1450 H1441 0.930 . S
C1450 C1448 1.384 . S
C1450 C1451 1.372 . S
C1451 C1450 1.372 . S
C1451 C1452 1.400 . S
C1451 C1456 1.490 . S
C1452 H1442 0.930 . S
C1452 C1451 1.400 . S
C1452 C1455 1.386 . S
H1453 C1469 0.930 . S
H1454 C1470 0.931 . S
C1455 H1443 0.929 . S
C1455 C1449 1.390 . S
C1455 C1452 1.386 . S
C1456 C1451 1.490 . S
C1456 C1458 1.395 . S
C1456 C1459 1.403 . S
H1457 C1463 0.930 . S
C1458 H1444 0.930 . S
C1458 C1456 1.395 . S
C1458 C1461 1.403 . S
C1459 C1456 1.403 . S
C1459 C1460 1.524 . S
C1459 C1463 1.400 . S
C1460 H1445 0.960 . S
C1460 H1446 0.960 . S
C1460 H1447 0.960 . S
C1460 C1459 1.524 . S
C1461 C1458 1.403 . S
C1461 C1462 1.392 . S
C1461 C1465 1.495 . S
C1462 C1461 1.392 . S
C1462 C1463 1.385 . S
C1462 C1464 1.478 . S
C1463 H1457 0.930 . S
C1463 C1459 1.400 . S
C1463 C1462 1.385 . S
C1464 C1462 1.478 . S
C1464 C1466 1.381 . S
C1464 C1470 1.383 . S
C1465 C1461 1.495 . S
C1465 H1471 0.959 . S
C1465 H1472 0.961 . S
C1465 H1473 0.960 . S
C1466 C1464 1.381 . S
C1466 C1467 1.394 . S
C1466 H1474 0.930 . S
C1467 C1466 1.394 . S
C1467 C1468 1.383 . S
C1467 H1475 0.929 . S
C1468 C1467 1.383 . S
C1468 C1469 1.377 . S
C1469 H1453 0.930 . S
C1469 C1468 1.377 . S
C1469 C1470 1.379 . S
C1470 H1454 0.931 . S
C1470 C1464 1.383 . S
C1470 C1469 1.379 . S
H1471 C1465 0.959 . S
H1472 C1465 0.961 . S
H1473 C1465 0.960 . S
H1474 C1466 0.930 . S
H1475 C1467 0.929 . S
H1476 C1484 0.929 . S
H1477 C1486 0.930 . S
H1478 C1488 0.930 . S
H1479 C1491 0.929 . S
H1480 C1494 0.930 . S
H1481 C1496 0.960 . S
H1482 C1496 0.960 . S
H1483 C1496 0.960 . S
C1484 H1476 0.929 . S
C1484 C1485 1.377 . S
C1484 C1486 1.384 . S
C1485 C1484 1.377 . S
C1485 C1491 1.390 . S
C1486 H1477 0.930 . S
C1486 C1484 1.384 . S
C1486 C1487 1.372 . S
C1487 C1486 1.372 . S
C1487 C1488 1.400 . S
C1487 C1492 1.490 . S
C1488 H1478 0.930 . S
C1488 C1487 1.400 . S
C1488 C1491 1.386 . S
H1489 C1505 0.930 . S
H1490 C1506 0.931 . S
C1491 H1479 0.929 . S
C1491 C1485 1.390 . S
C1491 C1488 1.386 . S
C1492 C1487 1.490 . S
C1492 C1494 1.395 . S
C1492 C1495 1.403 . S
H1493 C1499 0.930 . S
C1494 H1480 0.930 . S
C1494 C1492 1.395 . S
C1494 C1497 1.403 . S
C1495 C1492 1.403 . S
C1495 C1496 1.524 . S
C1495 C1499 1.400 . S
C1496 H1481 0.960 . S
C1496 H1482 0.960 . S
C1496 H1483 0.960 . S
C1496 C1495 1.524 . S
C1497 C1494 1.403 . S
C1497 C1498 1.392 . S
C1497 C1501 1.495 . S
C1498 C1497 1.392 . S
C1498 C1499 1.385 . S
C1498 C1500 1.478 . S
C1499 H1493 0.930 . S
C1499 C1495 1.400 . S
C1499 C1498 1.385 . S
C1500 C1498 1.478 . S
C1500 C1502 1.381 . S
C1500 C1506 1.383 . S
C1501 C1497 1.495 . S
C1501 H1507 0.959 . S
C1501 H1508 0.961 . S
C1501 H1509 0.960 . S
C1502 C1500 1.381 . S
C1502 C1503 1.394 . S
C1502 H1510 0.930 . S
C1503 C1502 1.394 . S
C1503 C1504 1.383 . S
C1503 H1511 0.929 . S
C1504 C1503 1.383 . S
C1504 C1505 1.377 . S
C1505 H1489 0.930 . S
C1505 C1504 1.377 . S
C1505 C1506 1.379 . S
C1506 H1490 0.931 . S
C1506 C1500 1.383 . S
C1506 C1505 1.379 . S
H1507 C1501 0.959 . S
H1508 C1501 0.961 . S
H1509 C1501 0.960 . S
H1510 C1502 0.930 . S
H1511 C1503 0.929 . S
H1512 C1520 0.929 . S
H1513 C1522 0.930 . S
H1514 C1524 0.930 . S
H1515 C1527 0.929 . S
H1516 C1530 0.930 . S
H1517 C1532 0.960 . S
H1518 C1532 0.960 . S
H1519 C1532 0.960 . S
C1520 H1512 0.929 . S
C1520 C1521 1.377 . S
C1520 C1522 1.384 . S
C1521 C1520 1.377 . S
C1521 C1527 1.390 . S
C1522 H1513 0.930 . S
C1522 C1520 1.384 . S
C1522 C1523 1.372 . S
C1523 C1522 1.372 . S
C1523 C1524 1.400 . S
C1523 C1528 1.490 . S
C1524 H1514 0.930 . S
C1524 C1523 1.400 . S
C1524 C1527 1.386 . S
H1525 C1541 0.930 . S
H1526 C1542 0.931 . S
C1527 H1515 0.929 . S
C1527 C1521 1.390 . S
C1527 C1524 1.386 . S
C1528 C1523 1.490 . S
C1528 C1530 1.395 . S
C1528 C1531 1.403 . S
H1529 C1535 0.930 . S
C1530 H1516 0.930 . S
C1530 C1528 1.395 . S
C1530 C1533 1.403 . S
C1531 C1528 1.403 . S
C1531 C1532 1.524 . S
C1531 C1535 1.400 . S
C1532 H1517 0.960 . S
C1532 H1518 0.960 . S
C1532 H1519 0.960 . S
C1532 C1531 1.524 . S
C1533 C1530 1.403 . S
C1533 C1534 1.392 . S
C1533 C1537 1.495 . S
C1534 C1533 1.392 . S
C1534 C1535 1.385 . S
C1534 C1536 1.478 . S
C1535 H1529 0.930 . S
C1535 C1531 1.400 . S
C1535 C1534 1.385 . S
C1536 C1534 1.478 . S
C1536 C1538 1.381 . S
C1536 C1542 1.383 . S
C1537 C1533 1.495 . S
C1537 H1543 0.959 . S
C1537 H1544 0.961 . S
C1537 H1545 0.960 . S
C1538 C1536 1.381 . S
C1538 C1539 1.394 . S
C1538 H1546 0.930 . S
C1539 C1538 1.394 . S
C1539 C1540 1.383 . S
C1539 H1547 0.929 . S
C1540 C1539 1.383 . S
C1540 C1541 1.377 . S
C1541 H1525 0.930 . S
C1541 C1540 1.377 . S
C1541 C1542 1.379 . S
C1542 H1526 0.931 . S
C1542 C1536 1.383 . S
C1542 C1541 1.379 . S
H1543 C1537 0.959 . S
H1544 C1537 0.961 . S
H1545 C1537 0.960 . S
H1546 C1538 0.930 . S
H1547 C1539 0.929 . S
H1548 C1556 0.929 . S
H1549 C1558 0.930 . S
H1550 C1560 0.930 . S
H1551 C1563 0.929 . S
H1552 C1566 0.930 . S
H1553 C1568 0.960 . S
H1554 C1568 0.960 . S
H1555 C1568 0.960 . S
C1556 H1548 0.929 . S
C1556 C1557 1.377 . S
C1556 C1558 1.384 . S
C1557 C1556 1.377 . S
C1557 C1563 1.390 . S
C1558 H1549 0.930 . S
C1558 C1556 1.384 . S
C1558 C1559 1.372 . S
C1559 C1558 1.372 . S
C1559 C1560 1.400 . S
C1559 C1564 1.490 . S
C1560 H1550 0.930 . S
C1560 C1559 1.400 . S
C1560 C1563 1.386 . S
H1561 C1577 0.930 . S
H1562 C1578 0.931 . S
C1563 H1551 0.929 . S
C1563 C1557 1.390 . S
C1563 C1560 1.386 . S
C1564 C1559 1.490 . S
C1564 C1566 1.395 . S
C1564 C1567 1.403 . S
H1565 C1571 0.930 . S
C1566 H1552 0.930 . S
C1566 C1564 1.395 . S
C1566 C1569 1.403 . S
C1567 C1564 1.403 . S
C1567 C1568 1.524 . S
C1567 C1571 1.400 . S
C1568 H1553 0.960 . S
C1568 H1554 0.960 . S
C1568 H1555 0.960 . S
C1568 C1567 1.524 . S
C1569 C1566 1.403 . S
C1569 C1570 1.392 . S
C1569 C1573 1.495 . S
C1570 C1569 1.392 . S
C1570 C1571 1.385 . S
C1570 C1572 1.478 . S
C1571 H1565 0.930 . S
C1571 C1567 1.400 . S
C1571 C1570 1.385 . S
C1572 C1570 1.478 . S
C1572 C1574 1.381 . S
C1572 C1578 1.383 . S
C1573 C1569 1.495 . S
C1573 H1579 0.959 . S
C1573 H1580 0.961 . S
C1573 H1581 0.960 . S
C1574 C1572 1.381 . S
C1574 C1575 1.394 . S
C1574 H1582 0.930 . S
C1575 C1574 1.394 . S
C1575 C1576 1.383 . S
C1575 H1583 0.929 . S
C1576 C1575 1.383 . S
C1576 C1577 1.377 . S
C1577 H1561 0.930 . S
C1577 C1576 1.377 . S
C1577 C1578 1.379 . S
C1578 H1562 0.931 . S
C1578 C1572 1.383 . S
C1578 C1577 1.379 . S
H1579 C1573 0.959 . S
H1580 C1573 0.961 . S
H1581 C1573 0.960 . S
H1582 C1574 0.930 . S
H1583 C1575 0.929 . S
H1584 C1592 0.929 . S
H1585 C1594 0.930 . S
H1586 C1596 0.930 . S
H1587 C1599 0.929 . S
H1588 C1602 0.930 . S
H1589 C1604 0.960 . S
H1590 C1604 0.960 . S
H1591 C1604 0.960 . S
C1592 H1584 0.929 . S
C1592 C1593 1.377 . S
C1592 C1594 1.384 1_565 S
C1593 C1592 1.377 . S
C1593 C1599 1.390 1_565 S
C1594 H1585 0.930 . S
C1594 C1592 1.384 1_545 S
C1594 C1595 1.372 . S
C1595 C1594 1.372 . S
C1595 C1596 1.400 . S
C1595 C1600 1.490 . S
C1596 H1586 0.930 . S
C1596 C1595 1.400 . S
C1596 C1599 1.386 . S
H1597 C1613 0.930 . S
H1598 C1614 0.931 . S
C1599 H1587 0.929 . S
C1599 C1593 1.390 1_545 S
C1599 C1596 1.386 . S
C1600 C1595 1.490 . S
C1600 C1602 1.395 . S
C1600 C1603 1.403 . S
H1601 C1607 0.930 . S
C1602 H1588 0.930 . S
C1602 C1600 1.395 . S
C1602 C1605 1.403 . S
C1603 C1600 1.403 . S
C1603 C1604 1.524 . S
C1603 C1607 1.400 . S
C1604 H1589 0.960 . S
C1604 H1590 0.960 . S
C1604 H1591 0.960 . S
C1604 C1603 1.524 . S
C1605 C1602 1.403 . S
C1605 C1606 1.392 . S
C1605 C1609 1.495 . S
C1606 C1605 1.392 . S
C1606 C1607 1.385 . S
C1606 C1608 1.478 . S
C1607 H1601 0.930 . S
C1607 C1603 1.400 . S
C1607 C1606 1.385 . S
C1608 C1606 1.478 . S
C1608 C1610 1.381 . S
C1608 C1614 1.383 . S
C1609 C1605 1.495 . S
C1609 H1615 0.959 . S
C1609 H1616 0.961 . S
C1609 H1617 0.960 . S
C1610 C1608 1.381 . S
C1610 C1611 1.394 . S
C1610 H1618 0.930 . S
C1611 C1610 1.394 . S
C1611 C1612 1.383 . S
C1611 H1619 0.929 . S
C1612 C1611 1.383 . S
C1612 C1613 1.377 . S
C1613 H1597 0.930 . S
C1613 C1612 1.377 . S
C1613 C1614 1.379 . S
C1614 H1598 0.931 . S
C1614 C1608 1.383 . S
C1614 C1613 1.379 . S
H1615 C1609 0.959 . S
H1616 C1609 0.961 . S
H1617 C1609 0.960 . S
H1618 C1610 0.930 . S
H1619 C1611 0.929 . S
H1620 C1628 0.929 . S
H1621 C1630 0.930 . S
H1622 C1632 0.930 . S
H1623 C1635 0.929 . S
H1624 C1638 0.930 . S
H1625 C1640 0.960 . S
H1626 C1640 0.960 . S
H1627 C1640 0.960 . S
C1628 H1620 0.929 . S
C1628 C1629 1.377 1_655 S
C1628 C1630 1.384 . S
C1629 C1628 1.377 1_455 S
C1629 C1635 1.390 . S
C1630 H1621 0.930 . S
C1630 C1628 1.384 . S
C1630 C1631 1.372 . S
C1631 C1630 1.372 . S
C1631 C1632 1.400 . S
C1631 C1636 1.490 . S
C1632 H1622 0.930 . S
C1632 C1631 1.400 . S
C1632 C1635 1.386 1_655 S
H1633 C1649 0.930 . S
H1634 C1650 0.931 . S
C1635 H1623 0.929 . S
C1635 C1629 1.390 . S
C1635 C1632 1.386 1_455 S
C1636 C1631 1.490 . S
C1636 C1638 1.395 . S
C1636 C1639 1.403 . S
H1637 C1643 0.930 . S
C1638 H1624 0.930 . S
C1638 C1636 1.395 . S
C1638 C1641 1.403 . S
C1639 C1636 1.403 . S
C1639 C1640 1.524 . S
C1639 C1643 1.400 . S
C1640 H1625 0.960 . S
C1640 H1626 0.960 . S
C1640 H1627 0.960 . S
C1640 C1639 1.524 . S
C1641 C1638 1.403 . S
C1641 C1642 1.392 . S
C1641 C1645 1.495 . S
C1642 C1641 1.392 . S
C1642 C1643 1.385 . S
C1642 C1644 1.479 . S
C1643 H1637 0.930 . S
C1643 C1639 1.400 . S
C1643 C1642 1.385 . S
C1644 C1642 1.479 . S
C1644 C1646 1.382 1_545 S
C1644 C1650 1.380 1_545 S
C1645 C1641 1.495 . S
C1645 H1651 0.959 . S
C1645 H1652 0.961 . S
C1645 H1653 0.960 . S
C1646 C1644 1.382 1_565 S
C1646 C1647 1.394 . S
C1646 H1654 0.930 1_565 S
C1647 C1646 1.394 . S
C1647 C1648 1.383 . S
C1647 H1655 0.929 . S
C1648 C1647 1.383 . S
C1648 C1649 1.377 . S
C1649 H1633 0.930 . S
C1649 C1648 1.377 . S
C1649 C1650 1.379 . S
C1650 H1634 0.931 . S
C1650 C1644 1.380 1_565 S
C1650 C1649 1.379 . S
H1651 C1645 0.959 . S
H1652 C1645 0.961 . S
H1653 C1645 0.960 . S
H1654 C1646 0.930 1_545 S
H1655 C1647 0.929 . S
H1656 C1664 0.929 . S
H1657 C1666 0.930 . S
H1658 C1668 0.930 . S
H1659 C1671 0.929 . S
H1660 C1674 0.930 . S
H1661 C1676 0.960 . S
H1662 C1676 0.960 . S
H1663 C1676 0.960 . S
C1664 H1656 0.929 . S
C1664 C1665 1.377 . S
C1664 C1666 1.384 . S
C1665 C1664 1.377 . S
C1665 C1671 1.390 . S
C1666 H1657 0.930 . S
C1666 C1664 1.384 . S
C1666 C1667 1.372 . S
C1667 C1666 1.372 . S
C1667 C1668 1.400 . S
C1667 C1672 1.490 . S
C1668 H1658 0.930 . S
C1668 C1667 1.400 . S
C1668 C1671 1.386 . S
H1669 C1685 0.930 . S
H1670 C1686 0.931 1_655 S
C1671 H1659 0.929 . S
C1671 C1665 1.390 . S
C1671 C1668 1.386 . S
C1672 C1667 1.490 . S
C1672 C1674 1.395 . S
C1672 C1675 1.403 . S
H1673 C1679 0.930 . S
C1674 H1660 0.930 . S
C1674 C1672 1.395 . S
C1674 C1677 1.403 . S
C1675 C1672 1.403 . S
C1675 C1676 1.524 . S
C1675 C1679 1.400 . S
C1676 H1661 0.960 . S
C1676 H1662 0.960 . S
C1676 H1663 0.960 . S
C1676 C1675 1.524 . S
C1677 C1674 1.403 . S
C1677 C1678 1.392 . S
C1677 C1681 1.495 . S
C1678 C1677 1.392 . S
C1678 C1679 1.385 . S
C1678 C1680 1.467 1_655 S
C1679 H1673 0.930 . S
C1679 C1675 1.400 . S
C1679 C1678 1.385 . S
C1680 C1678 1.467 1_455 S
C1680 C1682 1.386 . S
C1680 C1686 1.389 . S
C1681 C1677 1.495 . S
C1681 H1687 0.959 . S
C1681 H1688 0.961 . S
C1681 H1689 0.960 . S
C1682 C1680 1.386 . S
C1682 C1683 1.394 . S
C1682 H1690 0.930 . S
C1683 C1682 1.394 . S
C1683 C1684 1.383 . S
C1683 H1691 0.929 . S
C1684 C1683 1.383 . S
C1684 C1685 1.377 . S
C1685 H1669 0.930 . S
C1685 C1684 1.377 . S
C1685 C1686 1.379 . S
C1686 H1670 0.931 1_455 S
C1686 C1680 1.389 . S
C1686 C1685 1.379 . S
H1687 C1681 0.959 . S
H1688 C1681 0.961 . S
H1689 C1681 0.960 . S
H1690 C1682 0.930 . S
H1691 C1683 0.929 . S
H1692 C1700 0.929 . S
H1693 C1702 0.930 . S
H1694 C1704 0.930 . S
H1695 C1707 0.927 1_655 S
H1696 C1710 0.930 . S
H1697 C1712 0.960 . S
H1698 C1712 0.960 . S
H1699 C1712 0.960 . S
C1700 H1692 0.929 . S
C1700 C1701 1.377 1_455 S
C1700 C1702 1.384 . S
C1701 C1700 1.377 1_655 S
C1701 C1707 1.388 1_655 S
C1702 H1693 0.930 . S
C1702 C1700 1.384 . S
C1702 C1703 1.372 . S
C1703 C1702 1.372 . S
C1703 C1704 1.400 . S
C1703 C1708 1.490 . S
C1704 H1694 0.930 . S
C1704 C1703 1.400 . S
C1704 C1707 1.390 . S
H1705 C1721 0.930 . S
H1706 C1722 0.931 . S
C1707 H1695 0.927 1_455 S
C1707 C1701 1.388 1_455 S
C1707 C1704 1.390 . S
C1708 C1703 1.490 . S
C1708 C1710 1.395 . S
C1708 C1711 1.403 . S
H1709 C1715 0.930 . S
C1710 H1696 0.930 . S
C1710 C1708 1.395 . S
C1710 C1713 1.403 . S
C1711 C1708 1.403 . S
C1711 C1712 1.524 . S
C1711 C1715 1.400 . S
C1712 H1697 0.960 . S
C1712 H1698 0.960 . S
C1712 H1699 0.960 . S
C1712 C1711 1.524 . S
C1713 C1710 1.403 . S
C1713 C1714 1.392 . S
C1713 C1717 1.495 . S
C1714 C1713 1.392 . S
C1714 C1715 1.385 . S
C1714 C1716 1.478 . S
C1715 H1709 0.930 . S
C1715 C1711 1.400 . S
C1715 C1714 1.385 . S
C1716 C1714 1.478 . S
C1716 C1718 1.381 . S
C1716 C1722 1.383 . S
C1717 C1713 1.495 . S
C1717 H1723 0.959 . S
C1717 H1724 0.961 . S
C1717 H1725 0.960 . S
C1718 C1716 1.381 . S
C1718 C1719 1.394 . S
C1718 H1726 0.930 . S
C1719 C1718 1.394 . S
C1719 C1720 1.383 . S
C1719 H1727 0.929 . S
C1720 C1719 1.383 . S
C1720 C1721 1.377 . S
C1721 H1705 0.930 . S
C1721 C1720 1.377 . S
C1721 C1722 1.379 . S
C1722 H1706 0.931 . S
C1722 C1716 1.383 . S
C1722 C1721 1.379 . S
H1723 C1717 0.959 . S
H1724 C1717 0.961 . S
H1725 C1717 0.960 . S
H1726 C1718 0.930 . S
H1727 C1719 0.929 . S
H1728 C1736 0.929 . S
H1729 C1738 0.930 1_565 S
H1730 C1740 0.930 . S
H1731 C1743 0.929 . S
H1732 C1746 0.930 . S
H1733 C1748 0.960 . S
H1734 C1748 0.960 . S
H1735 C1748 0.960 . S
C1736 H1728 0.929 . S
C1736 C1737 1.377 . S
C1736 C1738 1.384 . S
C1737 C1736 1.377 . S
C1737 C1743 1.390 . S
C1738 H1729 0.930 1_545 S
C1738 C1736 1.384 . S
C1738 C1739 1.372 1_545 S
C1739 C1738 1.372 1_565 S
C1739 C1740 1.400 1_565 S
C1739 C1744 1.490 . S
C1740 H1730 0.930 . S
C1740 C1739 1.400 1_545 S
C1740 C1743 1.386 . S
H1741 C1757 0.930 . S
H1742 C1758 0.931 . S
C1743 H1731 0.929 . S
C1743 C1737 1.390 . S
C1743 C1740 1.386 . S
C1744 C1739 1.490 . S
C1744 C1746 1.395 . S
C1744 C1747 1.403 . S
H1745 C1751 0.930 . S
C1746 H1732 0.930 . S
C1746 C1744 1.395 . S
C1746 C1749 1.403 . S
C1747 C1744 1.403 . S
C1747 C1748 1.524 . S
C1747 C1751 1.400 . S
C1748 H1733 0.960 . S
C1748 H1734 0.960 . S
C1748 H1735 0.960 . S
C1748 C1747 1.524 . S
C1749 C1746 1.403 . S
C1749 C1750 1.392 . S
C1749 C1753 1.495 . S
C1750 C1749 1.392 . S
C1750 C1751 1.385 . S
C1750 C1752 1.478 . S
C1751 H1745 0.930 . S
C1751 C1747 1.400 . S
C1751 C1750 1.385 . S
C1752 C1750 1.478 . S
C1752 C1754 1.381 . S
C1752 C1758 1.383 . S
C1753 C1749 1.495 . S
C1753 H1759 0.959 . S
C1753 H1760 0.961 . S
C1753 H1761 0.960 . S
C1754 C1752 1.381 . S
C1754 C1755 1.394 . S
C1754 H1762 0.930 . S
C1755 C1754 1.394 . S
C1755 C1756 1.383 . S
C1755 H1763 0.929 . S
C1756 C1755 1.383 . S
C1756 C1757 1.377 . S
C1757 H1741 0.930 . S
C1757 C1756 1.377 . S
C1757 C1758 1.379 . S
C1758 H1742 0.931 . S
C1758 C1752 1.383 . S
C1758 C1757 1.379 . S
H1759 C1753 0.959 . S
H1760 C1753 0.961 . S
H1761 C1753 0.960 . S
H1762 C1754 0.930 . S
H1763 C1755 0.929 . S
H1764 C1772 0.929 . S
H1765 C1774 0.930 . S
H1766 C1776 0.930 . S
H1767 C1779 0.929 . S
H1768 C1782 0.930 . S
H1769 C1784 0.960 . S
H1770 C1784 0.960 . S
H1771 C1784 0.960 . S
C1772 H1764 0.929 . S
C1772 C1773 1.377 1_565 S
C1772 C1774 1.384 . S
C1773 C1772 1.377 1_545 S
C1773 C1779 1.390 . S
C1774 H1765 0.930 . S
C1774 C1772 1.384 . S
C1774 C1775 1.372 . S
C1775 C1774 1.372 . S
C1775 C1776 1.400 . S
C1775 C1780 1.490 . S
C1776 H1766 0.930 . S
C1776 C1775 1.400 . S
C1776 C1779 1.386 1_565 S
H1777 C1793 0.930 . S
H1778 C1794 0.931 . S
C1779 H1767 0.929 . S
C1779 C1773 1.390 . S
C1779 C1776 1.386 1_545 S
C1780 C1775 1.490 . S
C1780 C1782 1.395 . S
C1780 C1783 1.403 . S
H1781 C1787 0.930 . S
C1782 H1768 0.930 . S
C1782 C1780 1.395 . S
C1782 C1785 1.403 . S
C1783 C1780 1.403 . S
C1783 C1784 1.524 . S
C1783 C1787 1.400 . S
C1784 H1769 0.960 . S
C1784 H1770 0.960 . S
C1784 H1771 0.960 . S
C1784 C1783 1.524 . S
C1785 C1782 1.403 . S
C1785 C1786 1.392 . S
C1785 C1789 1.495 . S
C1786 C1785 1.392 . S
C1786 C1787 1.385 . S
C1786 C1788 1.478 . S
C1787 H1781 0.930 . S
C1787 C1783 1.400 . S
C1787 C1786 1.385 . S
C1788 C1786 1.478 . S
C1788 C1790 1.381 1_455 S
C1788 C1794 1.383 1_455 S
C1789 C1785 1.495 . S
C1789 H1795 0.959 . S
C1789 H1796 0.961 . S
C1789 H1797 0.960 . S
C1790 C1788 1.381 1_655 S
C1790 C1791 1.394 . S
C1790 H1798 0.930 1_655 S
C1791 C1790 1.394 . S
C1791 C1792 1.383 . S
C1791 H1799 0.929 . S
C1792 C1791 1.383 . S
C1792 C1793 1.377 . S
C1793 H1777 0.930 . S
C1793 C1792 1.377 . S
C1793 C1794 1.379 . S
C1794 H1778 0.931 . S
C1794 C1788 1.383 1_655 S
C1794 C1793 1.379 . S
H1795 C1789 0.959 . S
H1796 C1789 0.961 . S
H1797 C1789 0.960 . S
H1798 C1790 0.930 1_455 S
H1799 C1791 0.929 . S
H1800 C1808 0.929 . S
H1801 C1810 0.930 . S
H1802 C1812 0.930 . S
H1803 C1815 0.929 . S
H1804 C1818 0.930 . S
H1805 C1820 0.960 . S
H1806 C1820 0.960 . S
H1807 C1820 0.960 . S
C1808 H1800 0.929 . S
C1808 C1809 1.377 . S
C1808 C1810 1.384 . S
C1809 C1808 1.377 . S
C1809 C1815 1.390 . S
C1810 H1801 0.930 . S
C1810 C1808 1.384 . S
C1810 C1811 1.372 . S
C1811 C1810 1.372 . S
C1811 C1812 1.400 . S
C1811 C1816 1.490 . S
C1812 H1802 0.930 . S
C1812 C1811 1.400 . S
C1812 C1815 1.386 . S
H1813 C1829 0.930 . S
H1814 C1830 0.931 . S
C1815 H1803 0.929 . S
C1815 C1809 1.390 . S
C1815 C1812 1.386 . S
C1816 C1811 1.490 . S
C1816 C1818 1.395 . S
C1816 C1819 1.403 . S
H1817 C1823 0.930 . S
C1818 H1804 0.930 . S
C1818 C1816 1.395 . S
C1818 C1821 1.403 . S
C1819 C1816 1.403 . S
C1819 C1820 1.524 . S
C1819 C1823 1.400 . S
C1820 H1805 0.960 . S
C1820 H1806 0.960 . S
C1820 H1807 0.960 . S
C1820 C1819 1.524 . S
C1821 C1818 1.403 . S
C1821 C1822 1.392 . S
C1821 C1825 1.495 . S
C1822 C1821 1.392 . S
C1822 C1823 1.385 . S
C1822 C1824 1.478 . S
C1823 H1817 0.930 . S
C1823 C1819 1.400 . S
C1823 C1822 1.385 . S
C1824 C1822 1.478 . S
C1824 C1826 1.381 . S
C1824 C1830 1.383 . S
C1825 C1821 1.495 . S
C1825 H1831 0.959 . S
C1825 H1832 0.961 . S
C1825 H1833 0.960 . S
C1826 C1824 1.381 . S
C1826 C1827 1.394 . S
C1826 H1834 0.930 . S
C1827 C1826 1.394 . S
C1827 C1828 1.383 . S
C1827 H1835 0.929 . S
C1828 C1827 1.383 . S
C1828 C1829 1.377 . S
C1829 H1813 0.930 . S
C1829 C1828 1.377 . S
C1829 C1830 1.379 . S
C1830 H1814 0.931 . S
C1830 C1824 1.383 . S
C1830 C1829 1.379 . S
H1831 C1825 0.959 . S
H1832 C1825 0.961 . S
H1833 C1825 0.960 . S
H1834 C1826 0.930 . S
H1835 C1827 0.929 . S
H1836 C1844 0.929 . S
H1837 C1846 0.930 . S
H1838 C1848 0.930 . S
H1839 C1851 0.929 . S
H1840 C1854 0.930 . S
H1841 C1856 0.960 . S
H1842 C1856 0.960 . S
H1843 C1856 0.960 . S
C1844 H1836 0.929 . S
C1844 C1845 1.377 . S
C1844 C1846 1.384 . S
C1845 C1844 1.377 . S
C1845 C1851 1.390 . S
C1846 H1837 0.930 . S
C1846 C1844 1.384 . S
C1846 C1847 1.372 . S
C1847 C1846 1.372 . S
C1847 C1848 1.400 . S
C1847 C1852 1.490 . S
C1848 H1838 0.930 . S
C1848 C1847 1.400 . S
C1848 C1851 1.386 . S
H1849 C1865 0.930 . S
H1850 C1866 0.931 . S
C1851 H1839 0.929 . S
C1851 C1845 1.390 . S
C1851 C1848 1.386 . S
C1852 C1847 1.490 . S
C1852 C1854 1.395 . S
C1852 C1855 1.403 . S
H1853 C1859 0.930 . S
C1854 H1840 0.930 . S
C1854 C1852 1.395 . S
C1854 C1857 1.403 . S
C1855 C1852 1.403 . S
C1855 C1856 1.524 . S
C1855 C1859 1.400 . S
C1856 H1841 0.960 . S
C1856 H1842 0.960 . S
C1856 H1843 0.960 . S
C1856 C1855 1.524 . S
C1857 C1854 1.403 . S
C1857 C1858 1.392 . S
C1857 C1861 1.495 . S
C1858 C1857 1.392 . S
C1858 C1859 1.385 . S
C1858 C1860 1.478 . S
C1859 H1853 0.930 . S
C1859 C1855 1.400 . S
C1859 C1858 1.385 . S
C1860 C1858 1.478 . S
C1860 C1862 1.381 . S
C1860 C1866 1.383 . S
C1861 C1857 1.495 . S
C1861 H1867 0.959 . S
C1861 H1868 0.961 . S
C1861 H1869 0.960 . S
C1862 C1860 1.381 . S
C1862 C1863 1.394 . S
C1862 H1870 0.930 . S
C1863 C1862 1.394 . S
C1863 C1864 1.383 . S
C1863 H1871 0.929 . S
C1864 C1863 1.383 . S
C1864 C1865 1.377 . S
C1865 H1849 0.930 . S
C1865 C1864 1.377 . S
C1865 C1866 1.379 . S
C1866 H1850 0.931 . S
C1866 C1860 1.383 . S
C1866 C1865 1.379 . S
H1867 C1861 0.959 . S
H1868 C1861 0.961 . S
H1869 C1861 0.960 . S
H1870 C1862 0.930 . S
H1871 C1863 0.929 . S
H1872 C1880 0.929 . S
H1873 C1882 0.930 . S
H1874 C1884 0.930 . S
H1875 C1887 0.929 . S
H1876 C1890 0.930 . S
H1877 C1892 0.960 . S
H1878 C1892 0.960 . S
H1879 C1892 0.960 . S
C1880 H1872 0.929 . S
C1880 C1881 1.377 . S
C1880 C1882 1.384 . S
C1881 C1880 1.377 . S
C1881 C1887 1.390 . S
C1882 H1873 0.930 . S
C1882 C1880 1.384 . S
C1882 C1883 1.372 . S
C1883 C1882 1.372 . S
C1883 C1884 1.400 . S
C1883 C1888 1.490 . S
C1884 H1874 0.930 . S
C1884 C1883 1.400 . S
C1884 C1887 1.386 . S
H1885 C1901 0.930 . S
H1886 C1902 0.931 . S
C1887 H1875 0.929 . S
C1887 C1881 1.390 . S
C1887 C1884 1.386 . S
C1888 C1883 1.490 . S
C1888 C1890 1.395 . S
C1888 C1891 1.403 . S
H1889 C1895 0.930 . S
C1890 H1876 0.930 . S
C1890 C1888 1.395 . S
C1890 C1893 1.403 . S
C1891 C1888 1.403 . S
C1891 C1892 1.524 . S
C1891 C1895 1.400 . S
C1892 H1877 0.960 . S
C1892 H1878 0.960 . S
C1892 H1879 0.960 . S
C1892 C1891 1.524 . S
C1893 C1890 1.403 . S
C1893 C1894 1.392 . S
C1893 C1897 1.495 . S
C1894 C1893 1.392 . S
C1894 C1895 1.385 . S
C1894 C1896 1.478 . S
C1895 H1889 0.930 . S
C1895 C1891 1.400 . S
C1895 C1894 1.385 . S
C1896 C1894 1.478 . S
C1896 C1898 1.381 . S
C1896 C1902 1.383 . S
C1897 C1893 1.495 . S
C1897 H1903 0.959 . S
C1897 H1904 0.961 . S
C1897 H1905 0.960 . S
C1898 C1896 1.381 . S
C1898 C1899 1.394 . S
C1898 H1906 0.930 . S
C1899 C1898 1.394 . S
C1899 C1900 1.383 . S
C1899 H1907 0.929 . S
C1900 C1899 1.383 . S
C1900 C1901 1.377 . S
C1901 H1885 0.930 . S
C1901 C1900 1.377 . S
C1901 C1902 1.379 . S
C1902 H1886 0.931 . S
C1902 C1896 1.383 . S
C1902 C1901 1.379 . S
H1903 C1897 0.959 . S
H1904 C1897 0.961 . S
H1905 C1897 0.960 . S
H1906 C1898 0.930 . S
H1907 C1899 0.929 . S
H1908 C1916 0.929 . S
H1909 C1918 0.930 . S
H1910 C1920 0.930 . S
H1911 C1923 0.929 . S
H1912 C1926 0.930 . S
H1913 C1928 0.960 . S
H1914 C1928 0.960 . S
H1915 C1928 0.960 . S
C1916 H1908 0.929 . S
C1916 C1917 1.377 . S
C1916 C1918 1.384 . S
C1917 C1916 1.377 . S
C1917 C1923 1.390 . S
C1918 H1909 0.930 . S
C1918 C1916 1.384 . S
C1918 C1919 1.372 . S
C1919 C1918 1.372 . S
C1919 C1920 1.400 . S
C1919 C1924 1.490 . S
C1920 H1910 0.930 . S
C1920 C1919 1.400 . S
C1920 C1923 1.386 . S
H1921 C1937 0.930 . S
H1922 C1938 0.931 . S
C1923 H1911 0.929 . S
C1923 C1917 1.390 . S
C1923 C1920 1.386 . S
C1924 C1919 1.490 . S
C1924 C1926 1.395 . S
C1924 C1927 1.403 . S
H1925 C1931 0.930 . S
C1926 H1912 0.930 . S
C1926 C1924 1.395 . S
C1926 C1929 1.403 . S
C1927 C1924 1.403 . S
C1927 C1928 1.524 . S
C1927 C1931 1.400 . S
C1928 H1913 0.960 . S
C1928 H1914 0.960 . S
C1928 H1915 0.960 . S
C1928 C1927 1.524 . S
C1929 C1926 1.403 . S
C1929 C1930 1.392 . S
C1929 C1933 1.495 . S
C1930 C1929 1.392 . S
C1930 C1931 1.385 . S
C1930 C1932 1.478 . S
C1931 H1925 0.930 . S
C1931 C1927 1.400 . S
C1931 C1930 1.385 . S
C1932 C1930 1.478 . S
C1932 C1934 1.381 . S
C1932 C1938 1.383 . S
C1933 C1929 1.495 . S
C1933 H1939 0.959 . S
C1933 H1940 0.961 . S
C1933 H1941 0.960 . S
C1934 C1932 1.381 . S
C1934 C1935 1.394 . S
C1934 H1942 0.930 . S
C1935 C1934 1.394 . S
C1935 C1936 1.383 . S
C1935 H1943 0.929 . S
C1936 C1935 1.383 . S
C1936 C1937 1.377 . S
C1937 H1921 0.930 . S
C1937 C1936 1.377 . S
C1937 C1938 1.379 . S
C1938 H1922 0.931 . S
C1938 C1932 1.383 . S
C1938 C1937 1.379 . S
H1939 C1933 0.959 . S
H1940 C1933 0.961 . S
H1941 C1933 0.960 . S
H1942 C1934 0.930 . S
H1943 C1935 0.929 . S
H1944 C1952 0.929 . S
H1945 C1954 0.930 . S
H1946 C1956 0.930 . S
H1947 C1959 0.929 . S
H1948 C1962 0.930 . S
H1949 C1964 0.960 . S
H1950 C1964 0.960 . S
H1951 C1964 0.960 . S
C1952 H1944 0.929 . S
C1952 C1953 1.377 . S
C1952 C1954 1.384 . S
C1953 C1952 1.377 . S
C1953 C1959 1.390 . S
C1954 H1945 0.930 . S
C1954 C1952 1.384 . S
C1954 C1955 1.372 . S
C1955 C1954 1.372 . S
C1955 C1956 1.400 . S
C1955 C1960 1.490 . S
C1956 H1946 0.930 . S
C1956 C1955 1.400 . S
C1956 C1959 1.386 . S
H1957 C1973 0.930 . S
H1958 C1974 0.931 . S
C1959 H1947 0.929 . S
C1959 C1953 1.390 . S
C1959 C1956 1.386 . S
C1960 C1955 1.490 . S
C1960 C1962 1.395 . S
C1960 C1963 1.403 . S
H1961 C1967 0.930 . S
C1962 H1948 0.930 . S
C1962 C1960 1.395 . S
C1962 C1965 1.403 . S
C1963 C1960 1.403 . S
C1963 C1964 1.524 . S
C1963 C1967 1.400 . S
C1964 H1949 0.960 . S
C1964 H1950 0.960 . S
C1964 H1951 0.960 . S
C1964 C1963 1.524 . S
C1965 C1962 1.403 . S
C1965 C1966 1.392 . S
C1965 C1969 1.495 . S
C1966 C1965 1.392 . S
C1966 C1967 1.385 . S
C1966 C1968 1.478 . S
C1967 H1961 0.930 . S
C1967 C1963 1.400 . S
C1967 C1966 1.385 . S
C1968 C1966 1.478 . S
C1968 C1970 1.381 . S
C1968 C1974 1.383 . S
C1969 C1965 1.495 . S
C1969 H1975 0.959 . S
C1969 H1976 0.961 . S
C1969 H1977 0.960 . S
C1970 C1968 1.381 . S
C1970 C1971 1.394 . S
C1970 H1978 0.930 . S
C1971 C1970 1.394 . S
C1971 C1972 1.383 . S
C1971 H1979 0.929 . S
C1972 C1971 1.383 . S
C1972 C1973 1.377 . S
C1973 H1957 0.930 . S
C1973 C1972 1.377 . S
C1973 C1974 1.379 . S
C1974 H1958 0.931 . S
C1974 C1968 1.383 . S
C1974 C1973 1.379 . S
H1975 C1969 0.959 . S
H1976 C1969 0.961 . S
H1977 C1969 0.960 . S
H1978 C1970 0.930 . S
H1979 C1971 0.929 . S
H1980 C1988 0.929 . S
H1981 C1990 0.930 . S
H1982 C1992 0.930 . S
H1983 C1995 0.929 . S
H1984 C1998 0.930 . S
H1985 C2000 0.960 . S
H1986 C2000 0.960 . S
H1987 C2000 0.960 . S
C1988 H1980 0.929 . S
C1988 C1989 1.377 . S
C1988 C1990 1.384 . S
C1989 C1988 1.377 . S
C1989 C1995 1.390 . S
C1990 H1981 0.930 . S
C1990 C1988 1.384 . S
C1990 C1991 1.372 . S
C1991 C1990 1.372 . S
C1991 C1992 1.400 . S
C1991 C1996 1.490 . S
C1992 H1982 0.930 . S
C1992 C1991 1.400 . S
C1992 C1995 1.386 . S
H1993 C2009 0.930 . S
H1994 C2010 0.931 . S
C1995 H1983 0.929 . S
C1995 C1989 1.390 . S
C1995 C1992 1.386 . S
C1996 C1991 1.490 . S
C1996 C1998 1.395 . S
C1996 C1999 1.403 . S
H1997 C2003 0.930 . S
C1998 H1984 0.930 . S
C1998 C1996 1.395 . S
C1998 C2001 1.403 . S
C1999 C1996 1.403 . S
C1999 C2000 1.524 . S
C1999 C2003 1.400 . S
C2000 H1985 0.960 . S
C2000 H1986 0.960 . S
C2000 H1987 0.960 . S
C2000 C1999 1.524 . S
C2001 C1998 1.403 . S
C2001 C2002 1.392 . S
C2001 C2005 1.495 . S
C2002 C2001 1.392 . S
C2002 C2003 1.385 . S
C2002 C2004 1.478 . S
C2003 H1997 0.930 . S
C2003 C1999 1.400 . S
C2003 C2002 1.385 . S
C2004 C2002 1.478 . S
C2004 C2006 1.381 . S
C2004 C2010 1.383 . S
C2005 C2001 1.495 . S
C2005 H2011 0.959 . S
C2005 H2012 0.961 . S
C2005 H2013 0.960 . S
C2006 C2004 1.381 . S
C2006 C2007 1.394 . S
C2006 H2014 0.930 . S
C2007 C2006 1.394 . S
C2007 C2008 1.383 . S
C2007 H2015 0.929 . S
C2008 C2007 1.383 . S
C2008 C2009 1.377 . S
C2009 H1993 0.930 . S
C2009 C2008 1.377 . S
C2009 C2010 1.379 . S
C2010 H1994 0.931 . S
C2010 C2004 1.383 . S
C2010 C2009 1.379 . S
H2011 C2005 0.959 . S
H2012 C2005 0.961 . S
H2013 C2005 0.960 . S
H2014 C2006 0.930 . S
H2015 C2007 0.929 . S
H2016 C2024 0.929 . S
H2017 C2026 0.930 . S
H2018 C2028 0.930 . S
H2019 C2031 0.929 . S
H2020 C2034 0.930 . S
H2021 C2036 0.960 . S
H2022 C2036 0.960 . S
H2023 C2036 0.960 . S
C2024 H2016 0.929 . S
C2024 C2025 1.377 . S
C2024 C2026 1.384 . S
C2025 C2024 1.377 . S
C2025 C2031 1.390 . S
C2026 H2017 0.930 . S
C2026 C2024 1.384 . S
C2026 C2027 1.372 . S
C2027 C2026 1.372 . S
C2027 C2028 1.400 . S
C2027 C2032 1.490 . S
C2028 H2018 0.930 . S
C2028 C2027 1.400 . S
C2028 C2031 1.386 . S
H2029 C2045 0.930 . S
H2030 C2046 0.931 . S
C2031 H2019 0.929 . S
C2031 C2025 1.390 . S
C2031 C2028 1.386 . S
C2032 C2027 1.490 . S
C2032 C2034 1.395 . S
C2032 C2035 1.403 . S
H2033 C2039 0.930 . S
C2034 H2020 0.930 . S
C2034 C2032 1.395 . S
C2034 C2037 1.403 . S
C2035 C2032 1.403 . S
C2035 C2036 1.524 . S
C2035 C2039 1.400 . S
C2036 H2021 0.960 . S
C2036 H2022 0.960 . S
C2036 H2023 0.960 . S
C2036 C2035 1.524 . S
C2037 C2034 1.403 . S
C2037 C2038 1.392 . S
C2037 C2041 1.495 . S
C2038 C2037 1.392 . S
C2038 C2039 1.385 . S
C2038 C2040 1.478 . S
C2039 H2033 0.930 . S
C2039 C2035 1.400 . S
C2039 C2038 1.385 . S
C2040 C2038 1.478 . S
C2040 C2042 1.381 . S
C2040 C2046 1.383 . S
C2041 C2037 1.495 . S
C2041 H2047 0.959 . S
C2041 H2048 0.961 . S
C2041 H2049 0.960 . S
C2042 C2040 1.381 . S
C2042 C2043 1.394 . S
C2042 H2050 0.930 . S
C2043 C2042 1.394 . S
C2043 C2044 1.383 . S
C2043 H2051 0.929 . S
C2044 C2043 1.383 . S
C2044 C2045 1.377 . S
C2045 H2029 0.930 . S
C2045 C2044 1.377 . S
C2045 C2046 1.379 . S
C2046 H2030 0.931 . S
C2046 C2040 1.383 . S
C2046 C2045 1.379 . S
H2047 C2041 0.959 . S
H2048 C2041 0.961 . S
H2049 C2041 0.960 . S
H2050 C2042 0.930 . S
H2051 C2043 0.929 . S
H2052 C2060 0.929 . S
H2053 C2062 0.930 . S
H2054 C2064 0.930 . S
H2055 C2067 0.929 . S
H2056 C2070 0.930 . S
H2057 C2072 0.960 . S
H2058 C2072 0.960 . S
H2059 C2072 0.960 . S
C2060 H2052 0.929 . S
C2060 C2061 1.377 . S
C2060 C2062 1.384 . S
C2061 C2060 1.377 . S
C2061 C2067 1.390 . S
C2062 H2053 0.930 . S
C2062 C2060 1.384 . S
C2062 C2063 1.372 . S
C2063 C2062 1.372 . S
C2063 C2064 1.400 . S
C2063 C2068 1.490 . S
C2064 H2054 0.930 . S
C2064 C2063 1.400 . S
C2064 C2067 1.386 . S
H2065 C2081 0.930 . S
H2066 C2082 0.931 . S
C2067 H2055 0.929 . S
C2067 C2061 1.390 . S
C2067 C2064 1.386 . S
C2068 C2063 1.490 . S
C2068 C2070 1.395 . S
C2068 C2071 1.403 . S
H2069 C2075 0.930 . S
C2070 H2056 0.930 . S
C2070 C2068 1.395 . S
C2070 C2073 1.403 . S
C2071 C2068 1.403 . S
C2071 C2072 1.524 . S
C2071 C2075 1.400 . S
C2072 H2057 0.960 . S
C2072 H2058 0.960 . S
C2072 H2059 0.960 . S
C2072 C2071 1.524 . S
C2073 C2070 1.403 . S
C2073 C2074 1.392 . S
C2073 C2077 1.495 . S
C2074 C2073 1.392 . S
C2074 C2075 1.385 . S
C2074 C2076 1.478 . S
C2075 H2069 0.930 . S
C2075 C2071 1.400 . S
C2075 C2074 1.385 . S
C2076 C2074 1.478 . S
C2076 C2078 1.381 . S
C2076 C2082 1.383 . S
C2077 C2073 1.495 . S
C2077 H2083 0.959 . S
C2077 H2084 0.961 . S
C2077 H2085 0.960 . S
C2078 C2076 1.381 . S
C2078 C2079 1.394 . S
C2078 H2086 0.930 . S
C2079 C2078 1.394 . S
C2079 C2080 1.383 . S
C2079 H2087 0.929 . S
C2080 C2079 1.383 . S
C2080 C2081 1.377 . S
C2081 H2065 0.930 . S
C2081 C2080 1.377 . S
C2081 C2082 1.379 . S
C2082 H2066 0.931 . S
C2082 C2076 1.383 . S
C2082 C2081 1.379 . S
H2083 C2077 0.959 . S
H2084 C2077 0.961 . S
H2085 C2077 0.960 . S
H2086 C2078 0.930 . S
H2087 C2079 0.929 . S
H2088 C2096 0.929 . S
H2089 C2098 0.930 . S
H2090 C2100 0.930 . S
H2091 C2103 0.929 . S
H2092 C2106 0.930 . S
H2093 C2108 0.960 . S
H2094 C2108 0.960 . S
H2095 C2108 0.960 . S
C2096 H2088 0.929 . S
C2096 C2097 1.377 . S
C2096 C2098 1.384 . S
C2097 C2096 1.377 . S
C2097 C2103 1.390 . S
C2098 H2089 0.930 . S
C2098 C2096 1.384 . S
C2098 C2099 1.372 . S
C2099 C2098 1.372 . S
C2099 C2100 1.400 . S
C2099 C2104 1.490 . S
C2100 H2090 0.930 . S
C2100 C2099 1.400 . S
C2100 C2103 1.386 . S
H2101 C2117 0.930 . S
H2102 C2118 0.931 . S
C2103 H2091 0.929 . S
C2103 C2097 1.390 . S
C2103 C2100 1.386 . S
C2104 C2099 1.490 . S
C2104 C2106 1.395 . S
C2104 C2107 1.403 . S
H2105 C2111 0.930 . S
C2106 H2092 0.930 . S
C2106 C2104 1.395 . S
C2106 C2109 1.403 . S
C2107 C2104 1.403 . S
C2107 C2108 1.524 . S
C2107 C2111 1.400 . S
C2108 H2093 0.960 . S
C2108 H2094 0.960 . S
C2108 H2095 0.960 . S
C2108 C2107 1.524 . S
C2109 C2106 1.403 . S
C2109 C2110 1.392 . S
C2109 C2113 1.495 . S
C2110 C2109 1.392 . S
C2110 C2111 1.385 . S
C2110 C2112 1.478 . S
C2111 H2105 0.930 . S
C2111 C2107 1.400 . S
C2111 C2110 1.385 . S
C2112 C2110 1.478 . S
C2112 C2114 1.381 . S
C2112 C2118 1.383 . S
C2113 C2109 1.495 . S
C2113 H2119 0.959 . S
C2113 H2120 0.961 . S
C2113 H2121 0.960 . S
C2114 C2112 1.381 . S
C2114 C2115 1.394 . S
C2114 H2122 0.930 . S
C2115 C2114 1.394 . S
C2115 C2116 1.383 . S
C2115 H2123 0.929 . S
C2116 C2115 1.383 . S
C2116 C2117 1.377 . S
C2117 H2101 0.930 . S
C2117 C2116 1.377 . S
C2117 C2118 1.379 . S
C2118 H2102 0.931 . S
C2118 C2112 1.383 . S
C2118 C2117 1.379 . S
H2119 C2113 0.959 . S
H2120 C2113 0.961 . S
H2121 C2113 0.960 . S
H2122 C2114 0.930 . S
H2123 C2115 0.929 . S
H2124 C2132 0.929 . S
H2125 C2134 0.930 . S
H2126 C2136 0.930 . S
H2127 C2139 0.929 . S
H2128 C2142 0.930 . S
H2129 C2144 0.960 . S
H2130 C2144 0.960 . S
H2131 C2144 0.960 . S
C2132 H2124 0.929 . S
C2132 C2133 1.377 . S
C2132 C2134 1.384 . S
C2133 C2132 1.377 . S
C2133 C2139 1.390 . S
C2134 H2125 0.930 . S
C2134 C2132 1.384 . S
C2134 C2135 1.372 . S
C2135 C2134 1.372 . S
C2135 C2136 1.400 . S
C2135 C2140 1.490 . S
C2136 H2126 0.930 . S
C2136 C2135 1.400 . S
C2136 C2139 1.386 . S
H2137 C2153 0.930 . S
H2138 C2154 0.931 . S
C2139 H2127 0.929 . S
C2139 C2133 1.390 . S
C2139 C2136 1.386 . S
C2140 C2135 1.490 . S
C2140 C2142 1.395 . S
C2140 C2143 1.403 . S
H2141 C2147 0.930 . S
C2142 H2128 0.930 . S
C2142 C2140 1.395 . S
C2142 C2145 1.403 . S
C2143 C2140 1.403 . S
C2143 C2144 1.524 . S
C2143 C2147 1.400 . S
C2144 H2129 0.960 . S
C2144 H2130 0.960 . S
C2144 H2131 0.960 . S
C2144 C2143 1.524 . S
C2145 C2142 1.403 . S
C2145 C2146 1.392 . S
C2145 C2149 1.495 . S
C2146 C2145 1.392 . S
C2146 C2147 1.385 . S
C2146 C2148 1.478 . S
C2147 H2141 0.930 . S
C2147 C2143 1.400 . S
C2147 C2146 1.385 . S
C2148 C2146 1.478 . S
C2148 C2150 1.381 . S
C2148 C2154 1.383 . S
C2149 C2145 1.495 . S
C2149 H2155 0.959 . S
C2149 H2156 0.961 . S
C2149 H2157 0.960 . S
C2150 C2148 1.381 . S
C2150 C2151 1.394 . S
C2150 H2158 0.930 . S
C2151 C2150 1.394 . S
C2151 C2152 1.383 . S
C2151 H2159 0.929 . S
C2152 C2151 1.383 . S
C2152 C2153 1.377 . S
C2153 H2137 0.930 . S
C2153 C2152 1.377 . S
C2153 C2154 1.379 . S
C2154 H2138 0.931 . S
C2154 C2148 1.383 . S
C2154 C2153 1.379 . S
H2155 C2149 0.959 . S
H2156 C2149 0.961 . S
H2157 C2149 0.960 . S
H2158 C2150 0.930 . S
H2159 C2151 0.929 . S
H2160 C2168 0.929 . S
H2161 C2170 0.930 . S
H2162 C2172 0.930 . S
H2163 C2175 0.929 . S
H2164 C2178 0.930 . S
H2165 C2180 0.960 . S
H2166 C2180 0.960 . S
H2167 C2180 0.960 . S
C2168 H2160 0.929 . S
C2168 C2169 1.377 . S
C2168 C2170 1.384 . S
C2169 C2168 1.377 . S
C2169 C2175 1.390 . S
C2170 H2161 0.930 . S
C2170 C2168 1.384 . S
C2170 C2171 1.372 . S
C2171 C2170 1.372 . S
C2171 C2172 1.400 . S
C2171 C2176 1.490 . S
C2172 H2162 0.930 . S
C2172 C2171 1.400 . S
C2172 C2175 1.386 . S
H2173 C2189 0.930 . S
H2174 C2190 0.931 . S
C2175 H2163 0.929 . S
C2175 C2169 1.390 . S
C2175 C2172 1.386 . S
C2176 C2171 1.490 . S
C2176 C2178 1.395 . S
C2176 C2179 1.403 . S
H2177 C2183 0.930 . S
C2178 H2164 0.930 . S
C2178 C2176 1.395 . S
C2178 C2181 1.403 . S
C2179 C2176 1.403 . S
C2179 C2180 1.524 . S
C2179 C2183 1.400 . S
C2180 H2165 0.960 . S
C2180 H2166 0.960 . S
C2180 H2167 0.960 . S
C2180 C2179 1.524 . S
C2181 C2178 1.403 . S
C2181 C2182 1.392 . S
C2181 C2185 1.495 . S
C2182 C2181 1.392 . S
C2182 C2183 1.385 . S
C2182 C2184 1.478 . S
C2183 H2177 0.930 . S
C2183 C2179 1.400 . S
C2183 C2182 1.385 . S
C2184 C2182 1.478 . S
C2184 C2186 1.381 . S
C2184 C2190 1.383 . S
C2185 C2181 1.495 . S
C2185 H2191 0.959 . S
C2185 H2192 0.961 . S
C2185 H2193 0.960 . S
C2186 C2184 1.381 . S
C2186 C2187 1.394 . S
C2186 H2194 0.930 . S
C2187 C2186 1.394 . S
C2187 C2188 1.383 . S
C2187 H2195 0.929 . S
C2188 C2187 1.383 . S
C2188 C2189 1.377 . S
C2189 H2173 0.930 . S
C2189 C2188 1.377 . S
C2189 C2190 1.379 . S
C2190 H2174 0.931 . S
C2190 C2184 1.383 . S
C2190 C2189 1.379 . S
H2191 C2185 0.959 . S
H2192 C2185 0.961 . S
H2193 C2185 0.960 . S
H2194 C2186 0.930 . S
H2195 C2187 0.929 . S
H2196 C2204 0.929 . S
H2197 C2206 0.930 . S
H2198 C2208 0.930 . S
H2199 C2211 0.929 . S
H2200 C2214 0.930 . S
H2201 C2216 0.960 . S
H2202 C2216 0.960 . S
H2203 C2216 0.960 . S
C2204 H2196 0.929 . S
C2204 C2205 1.377 . S
C2204 C2206 1.384 . S
C2205 C2204 1.377 . S
C2205 C2211 1.390 . S
C2206 H2197 0.930 . S
C2206 C2204 1.384 . S
C2206 C2207 1.372 . S
C2207 C2206 1.372 . S
C2207 C2208 1.400 . S
C2207 C2212 1.490 . S
C2208 H2198 0.930 . S
C2208 C2207 1.400 . S
C2208 C2211 1.386 . S
H2209 C2225 0.930 . S
H2210 C2226 0.931 . S
C2211 H2199 0.929 . S
C2211 C2205 1.390 . S
C2211 C2208 1.386 . S
C2212 C2207 1.490 . S
C2212 C2214 1.395 . S
C2212 C2215 1.403 . S
H2213 C2219 0.930 . S
C2214 H2200 0.930 . S
C2214 C2212 1.395 . S
C2214 C2217 1.403 . S
C2215 C2212 1.403 . S
C2215 C2216 1.524 . S
C2215 C2219 1.400 . S
C2216 H2201 0.960 . S
C2216 H2202 0.960 . S
C2216 H2203 0.960 . S
C2216 C2215 1.524 . S
C2217 C2214 1.403 . S
C2217 C2218 1.392 . S
C2217 C2221 1.495 . S
C2218 C2217 1.392 . S
C2218 C2219 1.385 . S
C2218 C2220 1.478 . S
C2219 H2213 0.930 . S
C2219 C2215 1.400 . S
C2219 C2218 1.385 . S
C2220 C2218 1.478 . S
C2220 C2222 1.381 . S
C2220 C2226 1.383 . S
C2221 C2217 1.495 . S
C2221 H2227 0.959 . S
C2221 H2228 0.961 . S
C2221 H2229 0.960 . S
C2222 C2220 1.381 . S
C2222 C2223 1.394 . S
C2222 H2230 0.930 . S
C2223 C2222 1.394 . S
C2223 C2224 1.383 . S
C2223 H2231 0.929 . S
C2224 C2223 1.383 . S
C2224 C2225 1.377 . S
C2225 H2209 0.930 . S
C2225 C2224 1.377 . S
C2225 C2226 1.379 . S
C2226 H2210 0.931 . S
C2226 C2220 1.383 . S
C2226 C2225 1.379 . S
H2227 C2221 0.959 . S
H2228 C2221 0.961 . S
H2229 C2221 0.960 . S
H2230 C2222 0.930 . S
H2231 C2223 0.929 . S
C621 C315 0.457 . S
C640 C9 0.379 . S
C657 C349 0.434 . S
C676 C43 0.473 . S
C693 C383 0.438 . S
C712 C77 0.454 . S
C729 C111 0.442 . S
C748 C417 0.436 . S
C765 C451 0.460 . S
C784 C145 0.344 . S
C801 C485 0.424 . S
C820 C179 0.518 . S
C837 C213 0.433 . S
C856 C519 0.475 . S
C873 C553 0.454 . S
C892 C247 0.394 . S
C909 C587 0.419 . S
C928 C281 0.540 . S
C945 C598 1.883 . S
C964 C20 1.885 . S
C981 C530 1.880 . S
C1000 C54 1.868 . S
C1017 C88 1.880 . S
C1036 C564 1.869 . S
C1053 C258 1.879 . S
C1072 C122 1.869 . S
C1089 C292 1.879 . S
C1108 C156 1.867 . S
C1125 C190 1.878 . S
C1144 C224 1.864 . S
C1161 C326 1.884 . S
C1180 C462 1.889 . S
C1197 C496 1.883 . S
C1216 C360 1.883 . S
C1233 C394 1.883 . S
C1252 C428 1.890 . S
C1269 C2 1.768 . S
C1288 C138 1.752 . S
C1305 C172 1.770 . S
C1324 C36 1.780 . S
C1341 C104 1.769 . S
C1360 C70 1.750 . S
C1377 C342 1.768 . S
C1396 C206 1.751 . S
C1413 C240 1.767 . S
C1432 C376 1.752 . S
C1449 C308 1.768 . S
C1468 C274 1.750 . S
C1485 C410 1.768 . S
C1504 C546 1.772 . S
C1521 C580 1.770 . S
C1540 C444 1.751 . S
C1557 C478 1.773 . S
C1576 C512 1.784 . S
C1593 C101 1.120 . S
C1612 C5 1.118 . S
C1629 C33 1.123 . S
C1648 C39 1.118 . S
C1665 C67 1.120 . S
C1684 C73 1.114 . S
C1701 C169 1.125 . S
C1720 C107 1.140 . S
C1737 C141 1.122 . S
C1756 C203 1.141 . S
C1773 C135 1.125 . S
C1792 C175 1.137 . S
C1809 C305 1.116 . S
C1828 C209 1.092 . S
C1845 C237 1.117 . S
C1864 C243 1.101 . S
C1881 C277 1.117 . S
C1900 C271 1.126 . S
C1917 C311 1.117 . S
C1936 C373 1.112 . S
C1953 C407 1.117 . S
C1972 C345 1.091 . S
C1989 C339 1.123 . S
C2008 C379 1.132 . S
C2025 C413 1.113 . S
C2044 C509 1.107 . S
C2061 C441 1.125 . S
C2080 C447 1.139 . S
C2097 C475 1.124 . S
C2116 C481 1.137 . S
C2133 C577 1.123 . S
C2152 C515 1.132 . S
C2169 C611 1.125 . S
C2188 C549 1.135 . S
C2205 C543 1.117 . S
C2224 C583 1.094 . S
