# Generated by pormake.
# Topology vby, (6)-cn, num edge types: 1
# Building blocks:
#     Node 0, Type 0, BuildingBlock: HISSIN_clean_sbu_0, # of connection points: 6
#     Node 1, Type 0, BuildingBlock: HISSIN_clean_sbu_0, # of connection points: 6
#     Node 2, Type 0, BuildingBlock: HISSIN_clean_sbu_0, # of connection points: 6
#     Node 3, Type 0, BuildingBlock: HISSIN_clean_sbu_0, # of connection points: 6
#     Node 4, Type 0, BuildingBlock: HISSIN_clean_sbu_0, # of connection points: 6
#     Node 5, Type 0, BuildingBlock: HISSIN_clean_sbu_0, # of connection points: 6
#     Node 6, Type 0, BuildingBlock: HISSIN_clean_sbu_0, # of connection points: 6
#     Node 7, Type 0, BuildingBlock: HISSIN_clean_sbu_0, # of connection points: 6
#     Edge 8, Type (0, 0), BuildingBlock: TEMPAE_clean_linker_10, # of connection points: 2
#     Edge 9, Type (0, 0), BuildingBlock: TEMPAE_clean_linker_10, # of connection points: 2
#     Edge 10, Type (0, 0), BuildingBlock: TEMPAE_clean_linker_10, # of connection points: 2
#     Edge 11, Type (0, 0), BuildingBlock: TEMPAE_clean_linker_10, # of connection points: 2
#     Edge 12, Type (0, 0), BuildingBlock: TEMPAE_clean_linker_10, # of connection points: 2
#     Edge 13, Type (0, 0), BuildingBlock: TEMPAE_clean_linker_10, # of connection points: 2
#     Edge 14, Type (0, 0), BuildingBlock: TEMPAE_clean_linker_10, # of connection points: 2
#     Edge 15, Type (0, 0), BuildingBlock: TEMPAE_clean_linker_10, # of connection points: 2
#     Edge 16, Type (0, 0), BuildingBlock: TEMPAE_clean_linker_10, # of connection points: 2
#     Edge 17, Type (0, 0), BuildingBlock: TEMPAE_clean_linker_10, # of connection points: 2
#     Edge 18, Type (0, 0), BuildingBlock: TEMPAE_clean_linker_10, # of connection points: 2
#     Edge 19, Type (0, 0), BuildingBlock: TEMPAE_clean_linker_10, # of connection points: 2
#     Edge 20, Type (0, 0), BuildingBlock: TEMPAE_clean_linker_10, # of connection points: 2
#     Edge 21, Type (0, 0), BuildingBlock: TEMPAE_clean_linker_10, # of connection points: 2
#     Edge 22, Type (0, 0), BuildingBlock: TEMPAE_clean_linker_10, # of connection points: 2
#     Edge 23, Type (0, 0), BuildingBlock: TEMPAE_clean_linker_10, # of connection points: 2
#     Edge 24, Type (0, 0), BuildingBlock: TEMPAE_clean_linker_10, # of connection points: 2
#     Edge 25, Type (0, 0), BuildingBlock: TEMPAE_clean_linker_10, # of connection points: 2
#     Edge 26, Type (0, 0), BuildingBlock: TEMPAE_clean_linker_10, # of connection points: 2
#     Edge 27, Type (0, 0), BuildingBlock: TEMPAE_clean_linker_10, # of connection points: 2
#     Edge 28, Type (0, 0), BuildingBlock: TEMPAE_clean_linker_10, # of connection points: 2
#     Edge 29, Type (0, 0), BuildingBlock: TEMPAE_clean_linker_10, # of connection points: 2
#     Edge 30, Type (0, 0), BuildingBlock: TEMPAE_clean_linker_10, # of connection points: 2
#     Edge 31, Type (0, 0), BuildingBlock: TEMPAE_clean_linker_10, # of connection points: 2
# Relax obj value: 0.199
# Max RMSD: 0.218
# Mean RMSD: 0.218
data_MOF--net-vby--node1-HISSIN_clean_sbu_0--edge1-TEMPAE_clean_linker_10
_symmetry_space_group_name_H-M    P1
_symmetry_Int_Tables_number       1
_symmetry_cell_setting            triclinic
loop_
_symmetry_equiv_pos_as_xyz
'x, y, z'
_cell_length_a     15.696816
_cell_length_b     104.41538
_cell_length_c     30.755464
_cell_angle_alpha  89.952186
_cell_angle_beta   91.497215
_cell_angle_gamma 89.949293
loop_
_atom_site_label
_atom_site_type_symbol
_atom_site_fract_x
_atom_site_fract_y
_atom_site_fract_z
_atom_type_partial_charge
Eu0 Eu 0.07034 0.37138 0.98041 0.0
Eu1 Eu 0.07413 0.40286 0.96933 0.0
C2 C 0.06485 0.38456 0.88743 0.0
C3 C 0.10761 0.33502 0.00715 0.0
C4 C 0.18358 0.33077 -0.01126 0.0
C5 C 0.10174 0.3153 0.0491 0.0
C6 C 0.21708 0.31874 -0.00037 0.0
C7 C 0.06821 0.32731 0.03814 0.0
C8 C 0.17522 0.31072 0.02905 0.0
C9 C 0.06269 0.34656 -0.00903 0.0
O10 O 0.9348 0.39795 0.95902 0.0
O11 O 0.93485 0.37784 -0.01012 0.0
C12 C 0.89434 0.38796 0.97441 0.0
O13 O 0.11138 0.38032 0.04432 0.0
O14 O 0.0476 0.42024 0.9316 0.0
O15 O 0.12022 0.42131 -0.00726 0.0
O16 O 1.03054 0.3984 0.0367 0.0
C17 C 0.06928 0.38985 0.06142 0.0
O18 O 0.20749 0.37572 0.96565 0.0
O19 O 0.20915 0.39683 0.98646 0.0
O20 O 0.10606 0.39422 0.90508 0.0
O21 O 1.03595 0.35476 0.01955 0.0
O22 O 0.0901 0.35208 0.9559 0.0
O23 O 1.02919 0.37578 0.91136 0.0
C24 C 0.05447 0.44068 0.96693 0.0
C25 C 0.06107 0.44653 0.00804 0.0
C26 C 1.01555 0.46124 0.93503 0.0
C27 C 0.04724 0.4597 0.01234 0.0
C28 C 1.0293 0.4481 0.93074 0.0
C29 C 1.02714 0.46725 0.9756 0.0
C30 C 0.08728 0.42763 0.95973 0.0
C31 C 0.24908 0.38625 0.97609 0.0
H32 H 0.21529 0.33649 0.96464 0.0
H33 H 0.06874 0.30945 0.07236 0.0
H34 H 0.27337 0.31546 0.98329 0.0
H35 H 1.0094 0.33036 0.05267 0.0
H36 H 0.08109 0.4411 0.03652 0.0
H37 H 0.99879 0.46678 0.90626 0.0
H38 H 0.05708 0.46407 0.044 0.0
H39 H 1.02448 0.44385 0.89863 0.0
Eu40 Eu 0.99616 0.62743 0.02005 0.0
Eu41 Eu 1.00288 0.65856 0.00776 0.0
C42 C 1.00272 0.63992 0.92683 0.0
C43 C 1.01291 0.58979 0.02161 0.0
C44 C 1.00679 0.58488 0.9791 0.0
C45 C 0.04999 0.56855 0.04837 0.0
C46 C 1.01956 0.57183 0.97155 0.0
C47 C 1.03682 0.58158 0.05594 0.0
C48 C 0.0388 0.56347 0.0063 0.0
C49 C 0.98194 0.60275 0.03187 0.0
O50 O 0.86517 0.65442 0.02267 0.0
O51 O 0.86274 0.63351 0.00031 0.0
C52 C 0.82294 0.64405 0.01116 0.0
O53 O 0.95999 0.63684 0.08267 0.0
O54 O 1.03422 0.67535 0.96876 0.0
O55 O 0.98703 0.67772 0.03405 0.0
O56 O 0.05039 0.65358 0.07551 0.0
C57 C 1.00766 0.64581 0.10024 0.0
O58 O 0.13642 0.63222 0.02921 0.0
O59 O 0.13706 0.65199 -0.00393 0.0
O60 O 0.96277 0.64975 0.94344 0.0
O61 O 1.0287 0.61009 0.05722 0.0
O62 O 0.9417 0.60912 0.00112 0.0
O63 O 0.03878 0.6312 0.95193 0.0
C64 C 0.96177 0.69473 0.98401 0.0
C65 C 0.87666 0.69661 -0.0045 0.0
C66 C 0.96306 0.71591 0.95148 0.0
C67 C 0.83579 0.70822 0.98597 0.0
C68 C 1.00387 0.70434 0.96113 0.0
C69 C 0.87927 0.71811 0.96472 0.0
C70 C 1.01058 0.68341 -0.00148 0.0
C71 C 0.17738 0.64196 0.01231 0.0
H72 H 0.98842 0.59098 0.95193 0.0
H73 H 0.06416 0.56233 0.07584 0.0
H74 H 1.01174 0.5682 0.9387 0.0
H75 H 0.041 0.58511 0.08905 0.0
H76 H 0.84268 0.68927 0.01294 0.0
H77 H 0.99862 0.72337 0.93552 0.0
H78 H 0.77083 0.70959 -0.00391 0.0
H79 H 0.06963 0.70307 0.9521 0.0
Eu80 Eu 0.07535 0.62751 0.51388 0.0
Eu81 Eu 0.06769 0.65917 0.51715 0.0
C82 C 0.06913 0.64253 0.60274 0.0
C83 C 0.05424 0.58965 0.50838 0.0
C84 C 1.00797 0.58368 0.54127 0.0
C85 C 0.06301 0.5692 0.47089 0.0
C86 C 0.99186 0.57053 0.53965 0.0
C87 C 0.07936 0.58235 0.47256 0.0
C88 C 1.02187 0.56308 0.50522 0.0
C89 C 0.09033 0.60258 0.51516 0.0
O90 O 0.20721 0.65433 0.52866 0.0
O91 O 0.20802 0.63412 0.4993 0.0
C92 C 0.24826 0.64435 0.51361 0.0
O93 O 1.03534 0.63408 0.44664 0.0
O94 O 0.09116 0.67693 0.5529 0.0
O95 O 1.02789 0.67747 0.48925 0.0
O96 O 0.0994 0.65385 0.44863 0.0
C97 C 0.06556 0.64421 0.42688 0.0
O98 O 0.93579 0.63178 0.52381 0.0
O99 O 0.9325 0.65295 0.50253 0.0
O100 O 1.02845 0.65172 0.58207 0.0
O101 O 0.10839 0.60959 0.48149 0.0
O102 O 0.06472 0.60935 0.54796 0.0
O103 O 0.11243 0.63396 0.5815 0.0
C104 C 0.10332 0.69619 0.51248 0.0
C105 C 0.12549 0.69966 0.47007 0.0
C106 C 0.15099 0.71697 0.53848 0.0
C107 C 0.15916 0.71182 0.46191 0.0
C108 C 0.11744 0.70488 0.54658 0.0
C109 C 0.17066 0.72068 0.49597 0.0
C110 C 0.05895 0.68412 0.52189 0.0
C111 C 0.89367 0.64225 0.51265 0.0
H112 H 0.98821 0.589 0.56949 0.0
H113 H 0.08748 0.56371 0.44409 0.0
H114 H 0.95894 0.56609 0.56626 0.0
H115 H 0.11622 0.58663 0.44706 0.0
H116 H 0.11503 0.69313 0.44311 0.0
H117 H 0.16075 0.72349 0.56554 0.0
H118 H 0.1736 0.71442 0.42881 0.0
H119 H 0.10064 0.70242 0.57951 0.0
Eu120 Eu 1.0201 0.37073 0.47072 0.0
Eu121 Eu 1.01412 0.40222 0.47633 0.0
C122 C 1.0234 0.38506 0.56089 0.0
C123 C 0.98952 0.33348 0.47033 0.0
C124 C 0.94003 0.3308 0.5066 0.0
C125 C 0.96994 0.31167 0.44514 0.0
C126 C 0.90634 0.31851 0.51227 0.0
C127 C 1.00333 0.32389 0.43952 0.0
C128 C 0.92212 0.30878 0.48185 0.0
C129 C 1.0318 0.34586 0.46444 0.0
O130 O 0.1529 0.39792 0.46461 0.0
O131 O 0.15543 0.37681 0.48627 0.0
C132 C 0.19478 0.38743 0.47568 0.0
O133 O 0.05795 0.37858 0.40613 0.0
O134 O 0.97099 0.41938 0.50963 0.0
O135 O 1.03527 0.4211 0.44805 0.0
O136 O 0.97689 0.39667 0.40791 0.0
C137 C 1.01774 0.38795 0.38611 0.0
O138 O 0.88106 0.37548 0.45806 0.0
O139 O 0.88071 0.39545 0.48926 0.0
O140 O 0.0603 0.39469 0.54144 0.0
O141 O 1.00295 0.35319 0.43301 0.0
O142 O 0.05543 0.35229 0.49908 0.0
O143 O 0.98263 0.3762 0.53845 0.0
C144 C 1.0286 0.44002 0.4924 0.0
C145 C 0.07139 0.44766 0.46233 0.0
C146 C 1.01018 0.45878 0.53805 0.0
C147 C 0.08126 0.4608 0.46947 0.0
C148 C 1.00042 0.44565 0.53096 0.0
C149 C 0.04794 0.46657 0.50664 0.0
C150 C 0.99862 0.42711 0.47975 0.0
C151 C 0.84014 0.38538 0.47371 0.0
H152 H 0.92866 0.3381 0.53077 0.0
H153 H 0.98175 0.30445 0.42074 0.0
H154 H 0.86983 0.31653 0.54091 0.0
H155 H 0.04125 0.32581 0.41129 0.0
H156 H 0.09269 0.44366 0.432 0.0
H157 H 0.98499 0.46294 0.56731 0.0
H158 H 0.11008 0.46656 0.4445 0.0
H159 H 0.96643 0.44006 0.55458 0.0
Eu160 Eu 0.57771 0.87067 0.00538 0.0
Eu161 Eu 0.58756 0.90215 0.01135 0.0
C162 C 0.57554 0.88796 0.91981 0.0
C163 C 0.61519 0.83397 -0.01038 0.0
C164 C 0.5943 0.82803 0.94973 0.0
C165 C 0.70638 0.81584 0.0085 0.0
C166 C 0.62819 0.81605 0.9396 0.0
C167 C 0.67255 0.82782 0.01863 0.0
C168 C 0.68327 0.80971 0.96925 0.0
C169 C 0.5695 0.84567 0.00292 0.0
O170 O 0.44695 0.89774 0.0181 0.0
O171 O 0.44309 0.87716 -0.00886 0.0
C172 C 0.4045 0.88763 0.00384 0.0
O173 O 0.5319 0.87711 0.07041 0.0
O174 O 0.63911 0.92034 -0.01007 0.0
O175 O 0.56034 0.91978 0.04696 0.0
O176 O 0.62622 0.89344 0.07589 0.0
C177 C 0.57652 0.88512 0.09434 0.0
O178 O 0.71741 0.87506 0.0191 0.0
O179 O 0.71898 0.89571 -0.00627 0.0
O180 O 0.54698 0.89768 0.94234 0.0
O181 O 0.60015 0.85211 0.03617 0.0
O182 O 0.53828 0.85311 0.97231 0.0
O183 O 0.60933 0.8778 0.93876 0.0
C184 C 0.57122 0.93989 0.0099 0.0
C185 C 0.541 0.94764 0.04345 0.0
C186 C 0.56808 0.95839 0.96172 0.0
C187 C 0.52627 0.96069 0.03654 0.0
C188 C 0.58255 0.94532 0.9686 0.0
C189 C 0.54215 0.96628 -0.00403 0.0
C190 C 0.60336 0.92693 0.02052 0.0
C191 C 0.75902 0.88523 0.00594 0.0
H192 H 0.54958 0.83246 0.92687 0.0
H193 H 0.74767 0.81114 0.03235 0.0
H194 H 0.60987 0.81163 0.90891 0.0
H195 H 0.68901 0.83203 0.0499 0.0
H196 H 0.53292 0.94375 0.07575 0.0
H197 H 0.57974 0.96241 0.92994 0.0
H198 H 0.50709 0.96653 0.0637 0.0
H199 H 0.60616 0.93963 0.94207 0.0
Eu200 Eu 0.49017 0.12745 -0.00886 0.0
Eu201 Eu 0.49852 0.15887 -0.00196 0.0
C202 C 0.49765 0.14464 0.90853 0.0
C203 C 0.50981 0.08957 0.98564 0.0
C204 C 0.53949 0.08324 0.94867 0.0
C205 C 0.51582 0.06936 0.02514 0.0
C206 C 0.55501 0.07007 0.94957 0.0
C207 C 0.50011 0.08255 0.02422 0.0
C208 C 0.54079 0.06292 0.98741 0.0
C209 C 0.47511 0.10269 0.98122 0.0
O210 O 0.35915 0.15453 0.98351 0.0
O211 O 0.35797 0.13379 0.00832 0.0
C212 C 0.31771 0.14429 -0.00376 0.0
O213 O 0.53406 0.1322 0.0594 0.0
O214 O 0.48838 0.17733 0.96508 0.0
O215 O 0.52729 0.17653 0.03337 0.0
O216 O 0.46293 0.15128 0.06355 0.0
C217 C 0.50045 0.14141 0.08242 0.0
O218 O 0.62971 0.13213 0.98227 0.0
O219 O 0.63277 0.1522 0.01318 0.0
O220 O 0.54228 0.15262 0.93252 0.0
O221 O 0.45151 0.1088 0.01592 0.0
O222 O 0.50645 0.11027 0.95191 0.0
O223 O 0.44954 0.13615 0.92715 0.0
C224 C 0.46673 0.19603 0.00668 0.0
C225 C 0.40036 0.19732 0.03608 0.0
C226 C 0.45528 0.2186 -0.01094 0.0
C227 C 0.36172 0.20929 0.04199 0.0
C228 C 0.49371 0.20672 0.9833 0.0
C229 C 0.38873 0.22004 0.01836 0.0
C230 C 0.51074 0.18382 -0.00029 0.0
C231 C 0.67198 0.14204 -0.00174 0.0
H232 H 0.54663 0.08835 0.9183 0.0
H233 H 0.50369 0.0641 0.05471 0.0
H234 H 0.57538 0.0654 0.92017 0.0
H235 H 0.47619 0.0871 0.05311 0.0
H236 H 0.37862 0.18914 0.05437 0.0
H237 H 0.47858 0.22672 0.97095 0.0
H238 H 0.31024 0.21011 0.0646 0.0
H239 H 0.5452 0.20589 0.96065 0.0
Eu240 Eu 0.56558 0.1277 0.50005 0.0
Eu241 Eu 0.55602 0.15896 0.49493 0.0
C242 C 0.55648 0.14429 0.58361 0.0
C243 C 0.55493 0.08977 0.49958 0.0
C244 C 0.54977 0.0814 0.53507 0.0
C245 C 0.53632 0.07168 0.45044 0.0
C246 C 0.5408 0.06827 0.52841 0.0
C247 C 0.5458 0.08487 0.45713 0.0
C248 C 0.53684 0.06325 0.48608 0.0
C249 C 0.5836 0.10297 0.50806 0.0
O250 O 0.69514 0.15466 0.51049 0.0
O251 O 0.69667 0.13438 0.48228 0.0
C252 C 0.73696 0.14467 0.49606 0.0
O253 O 0.52042 0.13245 0.43212 0.0
O254 O 0.55322 0.17687 0.53095 0.0
O255 O 0.53966 0.17716 0.46056 0.0
O256 O 0.58826 0.1518 0.42825 0.0
C257 C 0.55203 0.14186 0.40925 0.0
O258 O 0.42533 0.13229 0.50806 0.0
O259 O 0.42213 0.15252 0.47825 0.0
O260 O 0.51106 0.15218 0.55961 0.0
O261 O 0.61398 0.10961 0.47603 0.0
O262 O 0.54276 0.10995 0.53589 0.0
O263 O 0.60519 0.1359 0.56493 0.0
C264 C 0.59663 0.19579 0.49593 0.0
C265 C 0.6512 0.19883 0.46197 0.0
C266 C 0.6296 0.21621 0.53006 0.0
C267 C 0.69401 0.21059 0.46191 0.0
C268 C 0.5867 0.20454 0.53001 0.0
C269 C 0.68308 0.21943 0.49584 0.0
C270 C 0.54592 0.18395 0.49614 0.0
C271 C 0.38292 0.14227 0.49246 0.0
H272 H 0.55719 0.08495 0.56806 0.0
H273 H 0.53332 0.06802 0.41749 0.0
H274 H 0.53999 0.06198 0.55643 0.0
H275 H 0.54999 0.09113 0.42916 0.0
H276 H 0.66005 0.19224 0.4353 0.0
H277 H 0.61891 0.22289 0.55631 0.0
H278 H 0.73544 0.21278 0.43529 0.0
H279 H 0.54437 0.20242 0.55636 0.0
Eu280 Eu 0.5133 0.8716 0.50743 0.0
Eu281 Eu 0.50215 0.90297 0.50738 0.0
C282 C 0.51757 0.88737 0.59338 0.0
C283 C 0.47471 0.83466 0.50322 0.0
C284 C 0.44549 0.82761 0.53872 0.0
C285 C 0.42931 0.81735 0.45495 0.0
C286 C 0.40957 0.81552 0.53254 0.0
C287 C 0.46533 0.82949 0.46113 0.0
C288 C 0.40275 0.81014 0.49074 0.0
C289 C 0.52265 0.84663 0.51136 0.0
O290 O 0.64375 0.89881 0.51598 0.0
O291 O 0.64625 0.87789 0.49237 0.0
C292 C 0.68549 0.88856 0.50337 0.0
O293 O 0.47883 0.87746 0.43881 0.0
O294 O 0.52624 0.92097 0.5418 0.0
O295 O 0.45256 0.92088 0.48085 0.0
O296 O 0.53902 0.89752 0.4398 0.0
C297 C 0.51045 0.88742 0.4186 0.0
O298 O 0.37412 0.87607 0.51887 0.0
O299 O 0.36998 0.89621 0.48925 0.0
O300 O 0.466 0.89522 0.57263 0.0
O301 O 0.5464 0.85333 0.47795 0.0
O302 O 0.4989 0.85381 0.54359 0.0
O303 O 0.56311 0.87927 0.57147 0.0
C304 C 0.51613 0.94076 0.50261 0.0
C305 C 0.51136 0.94579 0.46016 0.0
C306 C 0.54944 0.96197 0.53037 0.0
C307 C 0.52328 0.95891 0.45311 0.0
C308 C 0.53779 0.94891 0.53739 0.0
C309 C 0.5393 0.96717 0.48841 0.0
C310 C 0.48505 0.92779 0.51248 0.0
C311 C 0.33111 0.88597 0.50338 0.0
H312 H 0.45255 0.83129 0.57154 0.0
H313 H 0.42526 0.81341 0.42239 0.0
H314 H 0.38834 0.81028 0.56068 0.0
H315 H 0.48802 0.83463 0.43312 0.0
H316 H 0.49422 0.93975 0.43271 0.0
H317 H 0.56311 0.96811 0.55807 0.0
H318 H 0.51503 0.96268 0.42045 0.0
H319 H 0.54123 0.9453 0.57043 0.0
C320 C 0.38932 0.39572 -0.0001 0.0
C321 C 0.34378 0.38631 0.97647 0.0
C322 C 0.47882 0.39611 8e-05 0.0
C323 C 0.52421 0.38702 0.97554 0.0
C324 C 0.47864 0.37752 0.95167 0.0
C325 C 0.38907 0.3772 0.95277 0.0
C326 C 0.52486 0.40622 0.02676 0.0
C327 C 0.5245 0.36777 0.9246 0.0
C328 C 0.75172 0.39543 0.94534 0.0
C329 C 0.79979 0.38801 0.97505 0.0
C330 C 0.66204 0.39509 0.94478 0.0
C331 C 0.61938 0.38738 0.97531 0.0
C332 C 0.66775 0.38006 0.00589 0.0
C333 C 0.75718 0.38036 0.00508 0.0
C334 C 0.6129 0.40287 0.91118 0.0
C335 C 0.62503 0.37195 0.03965 0.0
H336 H 0.35495 0.40274 0.01857 0.0
H337 H 0.35442 0.36995 0.93434 0.0
H338 H 0.56958 0.4016 0.05053 0.0
H339 H 0.56335 0.41235 0.00533 0.0
H340 H 0.48034 0.41242 0.04475 0.0
H341 H 0.4798 0.3612 0.90711 0.0
H342 H 0.5641 0.37272 0.90039 0.0
H343 H 0.56817 0.36198 0.94565 0.0
H344 H 0.78422 0.40129 0.92186 0.0
H345 H 0.79388 0.37468 0.02842 0.0
H346 H 0.57124 0.40988 0.92748 0.0
H347 H 0.57093 0.3965 0.89131 0.0
H348 H 0.65547 0.40816 0.88915 0.0
H349 H 0.58266 0.378 0.05941 0.0
H350 H 0.67174 0.36708 0.06182 0.0
H351 H 0.58451 0.36457 0.02349 0.0
C352 C 0.32023 0.63461 0.04167 0.0
C353 C 0.27198 0.64187 0.01155 0.0
C354 C 0.40993 0.63505 0.04238 0.0
C355 C 0.45246 0.64272 0.01167 0.0
C356 C 0.40394 0.64987 0.98069 0.0
C357 C 0.3145 0.64945 0.98128 0.0
C358 C 0.45923 0.62742 0.07632 0.0
C359 C 0.44649 0.65794 0.94677 0.0
C360 C 0.68256 0.65314 0.03402 0.0
C361 C 0.72817 0.64402 0.01052 0.0
C362 C 0.59295 0.65275 0.0351 0.0
C363 C 0.54768 0.64316 0.01149 0.0
C364 C 0.5934 0.63407 0.98715 0.0
C365 C 0.68288 0.63454 0.98727 0.0
C366 C 0.54672 0.66253 0.06189 0.0
C367 C 0.54777 0.62385 0.96079 0.0
H368 H 0.28784 0.62882 0.06537 0.0
H369 H 0.27773 0.65501 0.95765 0.0
H370 H 0.50143 0.62043 0.06034 0.0
H371 H 0.50067 0.63391 0.09608 0.0
H372 H 0.41677 0.62214 0.09843 0.0
H373 H 0.39969 0.66272 0.92441 0.0
H374 H 0.4866 0.6654 0.9628 0.0
H375 H 0.48922 0.65189 0.92723 0.0
H376 H 0.71697 0.66044 0.05231 0.0
H377 H 0.71744 0.62749 0.96878 0.0
H378 H 0.50745 0.65761 0.0863 0.0
H379 H 0.50268 0.66821 0.04068 0.0
H380 H 0.59116 0.6692 0.07911 0.0
H381 H 0.5095 0.61774 0.98242 0.0
H382 H 0.59252 0.61763 0.94301 0.0
H383 H 0.50288 0.62836 0.93687 0.0
C384 C 0.75368 0.63356 0.53737 0.0
C385 C 0.79898 0.64221 0.51187 0.0
C386 C 0.66409 0.63399 0.53849 0.0
C387 C 0.61858 0.64311 0.51275 0.0
C388 C 0.66404 0.6517 0.48633 0.0
C389 C 0.75352 0.65123 0.48655 0.0
C390 C 0.61816 0.62479 0.56761 0.0
C391 C 0.61814 0.66137 0.45763 0.0
C392 C 0.3855 0.63621 0.48443 0.0
C393 C 0.34289 0.64441 0.51278 0.0
C394 C 0.47492 0.63578 0.48384 0.0
C395 C 0.52338 0.64356 0.51292 0.0
C396 C 0.48081 0.65185 0.54171 0.0
C397 C 0.39109 0.65228 0.54097 0.0
C398 C 0.51755 0.62703 0.45192 0.0
C399 C 0.53007 0.66015 0.57367 0.0
H400 H 0.78835 0.62664 0.5573 0.0
H401 H 0.78796 0.65791 0.46651 0.0
H402 H 0.5789 0.6302 0.59082 0.0
H403 H 0.57416 0.61869 0.54787 0.0
H404 H 0.6628 0.61848 0.58635 0.0
H405 H 0.66271 0.66719 0.43831 0.0
H406 H 0.57316 0.65639 0.43493 0.0
H407 H 0.57995 0.66791 0.47778 0.0
H408 H 0.3488 0.63016 0.4623 0.0
H409 H 0.35869 0.65857 0.56319 0.0
H410 H 0.55784 0.61992 0.46966 0.0
H411 H 0.56012 0.63267 0.43094 0.0
H412 H 0.47079 0.62181 0.4308 0.0
H413 H 0.57179 0.65409 0.59488 0.0
H414 H 0.48758 0.66587 0.59452 0.0
H415 H 0.572 0.66681 0.55599 0.0
C416 C 0.70292 0.39346 0.50314 0.0
C417 C 0.7455 0.38534 0.4745 0.0
C418 C 0.6135 0.39384 0.50391 0.0
C419 C 0.565 0.38609 0.47475 0.0
C420 C 0.60753 0.37788 0.44567 0.0
C421 C 0.69725 0.37751 0.4462 0.0
C422 C 0.57091 0.40251 0.5361 0.0
C423 C 0.55821 0.36961 0.41365 0.0
C424 C 0.33502 0.37834 0.50129 0.0
C425 C 0.28945 0.3874 0.4762 0.0
C426 C 0.42451 0.37788 0.50137 0.0
C427 C 0.46982 0.38652 0.47503 0.0
C428 C 0.42417 0.39567 0.44951 0.0
C429 C 0.33461 0.39609 0.45075 0.0
C430 C 0.47059 0.36818 0.52984 0.0
C431 C 0.46992 0.40493 0.42051 0.0
H432 H 0.73961 0.39947 0.52539 0.0
H433 H 0.7296 0.37128 0.42379 0.0
H434 H 0.5304 0.40964 0.51857 0.0
H435 H 0.52857 0.39682 0.55702 0.0
H436 H 0.61771 0.40771 0.55726 0.0
H437 H 0.60066 0.36394 0.39265 0.0
H438 H 0.51648 0.36292 0.43128 0.0
H439 H 0.51628 0.37569 0.3926 0.0
H440 H 0.30068 0.37165 0.52131 0.0
H441 H 0.29985 0.40304 0.431 0.0
H442 H 0.51552 0.37312 0.55264 0.0
H443 H 0.50885 0.36168 0.50954 0.0
H444 H 0.42612 0.3623 0.54905 0.0
H445 H 0.51386 0.41101 0.44033 0.0
H446 H 0.42516 0.41124 0.40189 0.0
H447 H 0.50921 0.39956 0.39719 0.0
C448 C 0.90212 0.87665 0.03088 0.0
C449 C 0.85369 0.88515 0.00494 0.0
C450 C 0.99189 0.87708 0.03158 0.0
C451 C 1.03424 0.88605 0.00506 0.0
C452 C 0.98553 0.89448 0.97824 0.0
C453 C 0.89613 0.894 0.97881 0.0
C454 C 0.04143 0.86805 0.06109 0.0
C455 C 1.02786 0.904 0.94878 0.0
C456 C 0.26466 0.89561 0.03132 0.0
C457 C 0.30979 0.88768 0.00321 0.0
C458 C 0.17512 0.89505 0.03276 0.0
C459 C 0.12945 0.88655 0.0048 0.0
C460 C 0.17474 0.8787 0.97582 0.0
C461 C 0.26418 0.87927 0.97569 0.0
C462 C 0.12942 0.90345 0.06457 0.0
C463 C 0.12869 0.86971 0.94479 0.0
H464 H 0.86989 0.86985 0.05139 0.0
H465 H 0.85933 0.90055 0.95841 0.0
H466 H 0.08342 0.86188 0.04159 0.0
H467 H 0.08313 0.8736 0.08386 0.0
H468 H 0.99914 0.86183 0.08033 0.0
H469 H 0.98092 0.90971 0.92926 0.0
H470 H 0.06821 0.91066 0.96838 0.0
H471 H 0.07032 0.89891 0.92623 0.0
H472 H 0.29946 0.90203 0.053 0.0
H473 H 0.29849 0.87314 0.9537 0.0
H474 H 0.09063 0.89745 0.08631 0.0
H475 H 0.085 0.91 0.04679 0.0
H476 H 0.17419 0.90929 0.08488 0.0
H477 H 0.09084 0.86269 0.96325 0.0
H478 H 0.17314 0.86438 0.92386 0.0
H479 H 0.08338 0.87518 0.9236 0.0
C480 C 0.17474 0.15299 0.97167 0.0
C481 C 0.22302 0.14436 -0.00285 0.0
C482 C 0.08497 0.15261 0.971 0.0
C483 C 0.04242 0.14356 -0.00289 0.0
C484 C 0.09097 0.13499 0.02347 0.0
C485 C 0.1804 0.13542 0.02286 0.0
C486 C 1.03563 0.1618 0.94197 0.0
C487 C 0.04844 0.12537 0.05248 0.0
C488 C 0.81248 0.15032 0.02671 0.0
C489 C 0.76674 0.14205 -0.00128 0.0
C490 C 0.90195 0.15086 0.02665 0.0
C491 C 0.94718 0.14311 -0.00267 0.0
C492 C 0.9014 0.13476 0.96888 0.0
C493 C 0.81184 0.13424 0.97021 0.0
C494 C 0.94813 0.15968 0.05817 0.0
C495 C 0.94702 0.12647 0.9367 0.0
H496 H 0.20709 0.15987 0.95148 0.0
H497 H 0.21707 0.12876 0.04293 0.0
H498 H 0.9938 0.15638 0.91892 0.0
H499 H 0.9938 0.16791 0.9618 0.0
H500 H 0.07806 0.16809 0.92305 0.0
H501 H 0.09526 0.11956 0.07172 0.0
H502 H 1.00612 0.13038 0.07528 0.0
H503 H 1.00791 0.11881 0.03258 0.0
H504 H 0.77826 0.15635 0.04903 0.0
H505 H 0.77704 0.12792 0.9482 0.0
H506 H 0.98627 0.16676 0.0401 0.0
H507 H 0.99319 0.1541 0.07914 0.0
H508 H 0.90375 0.16495 0.07932 0.0
H509 H 0.98608 0.13254 0.91531 0.0
H510 H 0.90218 0.12074 0.91605 0.0
H511 H 0.99117 0.11983 0.9542 0.0
C512 C 0.24228 0.15087 0.46507 0.0
C513 C 0.2881 0.14231 0.49205 0.0
C514 C 0.15281 0.15148 0.46544 0.0
C515 C 0.10764 0.14348 0.49403 0.0
C516 C 0.1535 0.13482 0.52142 0.0
C517 C 0.24303 0.13425 0.51982 0.0
C518 C 0.10657 0.16065 0.43504 0.0
C519 C 0.10798 0.12623 0.55277 0.0
C520 C 0.8802 0.15313 0.5213 0.0
C521 C 0.83169 0.14478 0.49494 0.0
C522 C 0.97 0.15275 0.52169 0.0
C523 C 1.01236 0.14397 0.49446 0.0
C524 C 0.96357 0.13569 0.46723 0.0
C525 C 0.87416 0.13612 0.46809 0.0
C526 C 1.01959 0.16162 0.55162 0.0
C527 C 1.00584 0.12636 0.43705 0.0
H528 H 0.27642 0.1571 0.44334 0.0
H529 H 0.27786 0.12769 0.54107 0.0
H530 H 0.06128 0.15531 0.41352 0.0
H531 H 0.06867 0.16755 0.45398 0.0
H532 H 0.1509 0.16611 0.41443 0.0
H533 H 0.15285 0.12028 0.57268 0.0
H534 H 0.06922 0.13211 0.5749 0.0
H535 H 0.06355 0.1198 0.53463 0.0
H536 H 0.848 0.15979 0.54234 0.0
H537 H 0.83736 0.12968 0.44735 0.0
H538 H 0.06143 0.1679 0.53242 0.0
H539 H 0.06143 0.15596 0.57404 0.0
H540 H 0.97733 0.16775 0.57125 0.0
H541 H 0.04807 0.1316 0.41478 0.0
H542 H 0.95886 0.12077 0.41723 0.0
H543 H 0.0464 0.11958 0.45613 0.0
C544 C 0.82268 0.88001 0.47558 0.0
C545 C 0.78008 0.88868 0.50233 0.0
C546 C 0.9121 0.87946 0.47538 0.0
C547 C 0.96059 0.88761 0.50321 0.0
C548 C 0.91801 0.8964 0.53031 0.0
C549 C 0.82828 0.89692 0.52922 0.0
C550 C 0.95467 0.87016 0.44525 0.0
C551 C 0.96728 0.90513 0.56089 0.0
C552 C 0.19067 0.87779 0.52971 0.0
C553 C 0.23631 0.88593 0.50251 0.0
C554 C 0.10104 0.87833 0.53071 0.0
C555 C 0.05583 0.88706 0.50329 0.0
C556 C 0.10161 0.89513 0.47523 0.0
C557 C 0.19105 0.89455 0.47545 0.0
C558 C 0.05472 0.86967 0.56147 0.0
C559 C 0.05609 0.90439 0.44482 0.0
H560 H 0.78596 0.87366 0.45448 0.0
H561 H 0.79584 0.90355 0.55026 0.0
H562 H 0.99766 0.8754 0.42337 0.0
H563 H 0.99451 0.8633 0.4644 0.0
H564 H 0.90789 0.86466 0.42501 0.0
H565 H 0.9248 0.91123 0.58049 0.0
H566 H 1.00836 0.89935 0.58333 0.0
H567 H 1.00984 0.91143 0.54219 0.0
H568 H 0.22508 0.87118 0.55097 0.0
H569 H 0.22562 0.90084 0.45411 0.0
H570 H 1.01045 0.86331 0.54288 0.0
H571 H 1.01568 0.87549 0.58364 0.0
H572 H 0.0991 0.86362 0.58136 0.0
H573 H 1.01104 0.89911 0.42297 0.0
H574 H 0.10089 0.90987 0.42454 0.0
H575 H 1.01801 0.91127 0.46374 0.0
C576 C 0.10311 0.54177 0.01947 0.0
C577 C 0.03992 0.54941 -0.00055 0.0
C578 C 0.10136 0.52839 0.01529 0.0
C579 C 1.03444 0.52252 -0.0092 0.0
C580 C 0.97089 0.5302 0.97023 0.0
C581 C 0.97453 0.54355 0.97472 0.0
C582 C 0.17073 0.52051 0.03732 0.0
C583 C 0.89831 0.52429 0.94403 0.0
C584 C 0.06796 0.48887 0.94813 0.0
C585 C 1.02563 0.48144 0.97885 0.0
C586 C 0.07116 0.50225 0.9516 0.0
C587 C 1.0309 0.50835 0.9866 0.0
C588 C 0.9874 0.50093 0.01754 0.0
C589 C 0.98552 0.48754 0.01338 0.0
C590 C 0.11857 0.50983 0.9181 0.0
C591 C 0.94316 0.50713 0.05512 0.0
H592 H 0.15399 0.54628 0.0384 0.0
H593 H 0.9247 0.5494 0.95981 0.0
H594 H 0.14249 0.51387 0.06115 0.0
H595 H 0.20337 0.51456 0.01293 0.0
H596 H 0.21902 0.52655 0.05456 0.0
H597 H 0.85445 0.53162 0.92976 0.0
H598 H 0.92363 0.5184 0.9173 0.0
H599 H 0.86122 0.51782 0.965 0.0
H600 H 0.10048 0.48419 0.92184 0.0
H601 H 0.95235 0.48183 0.03704 0.0
H602 H 0.17115 0.51529 0.9342 0.0
H603 H 0.07519 0.5169 0.90213 0.0
H604 H 0.14583 0.50362 0.89264 0.0
H605 H 0.99 0.51257 0.07545 0.0
H606 H 0.91121 0.50001 0.07604 0.0
H607 H 0.89479 0.51407 0.04272 0.0
C608 C 0.11517 0.48824 0.49944 0.0
C609 C 0.04486 0.48074 0.51037 0.0
C610 C 0.11025 0.50167 0.49967 0.0
C611 C 1.03303 0.50771 0.51087 0.0
C612 C 0.96229 0.50019 0.52257 0.0
C613 C 0.96909 0.4868 0.52222 0.0
C614 C 0.1873 0.50938 0.48739 0.0
C615 C 0.87881 0.50628 0.53454 0.0
C616 C 0.04229 0.54253 0.54584 0.0
C617 C 1.01832 0.54889 0.50722 0.0
C618 C 0.0465 0.52912 0.54761 0.0
C619 C 1.026 0.5219 0.50988 0.0
C620 C 0.99999 0.52825 0.47102 0.0
C621 C 0.99676 0.54169 0.47011 0.0
C622 C 0.07486 0.5227 0.58957 0.0
C623 C 0.97678 0.52085 0.43025 0.0
H624 H 0.17398 0.4836 0.49053 0.0
H625 H 0.91401 0.48105 0.52993 0.0
H626 H 0.17204 0.51521 0.45802 0.0
H627 H 0.20504 0.51613 0.51397 0.0
H628 H 0.2432 0.50323 0.48064 0.0
H629 H 0.83058 0.49908 0.54396 0.0
H630 H 0.88906 0.51304 0.56197 0.0
H631 H 0.85272 0.5119 0.50659 0.0
H632 H 0.0605 0.54805 0.57441 0.0
H633 H 0.97773 0.54657 0.44029 0.0
H634 H 0.1346 0.51727 0.58454 0.0
H635 H 1.02608 0.51572 0.59984 0.0
H636 H 0.08621 0.52968 0.61634 0.0
H637 H 1.03266 0.51527 0.41961 0.0
H638 H 0.95527 0.52721 0.40313 0.0
H639 H 0.92528 0.51391 0.43692 0.0
C640 C 0.60532 0.98686 0.97039 0.0
C641 C 0.53876 0.98042 -0.00931 0.0
C642 C 0.60712 1.00028 0.96828 0.0
C643 C 0.54064 1.00743 0.98684 0.0
C644 C 0.47225 1.00099 0.0065 0.0
C645 C 0.47224 0.98755 0.00829 0.0
C646 C 0.68122 1.00681 0.94713 0.0
C647 C 0.39976 1.00829 0.02624 0.0
C648 C 0.58274 0.04186 0.02114 0.0
C649 C 0.54493 0.04871 0.98648 0.0
C650 C 0.58267 0.02841 0.02143 0.0
C651 C 0.54337 0.02167 0.98636 0.0
C652 C 0.50585 0.02853 0.95109 0.0
C653 C 0.50716 0.04196 0.95156 0.0
C654 C 0.62397 0.02141 0.05946 0.0
C655 C 0.46297 0.02169 0.91322 0.0
H656 H 0.65762 0.98142 0.95734 0.0
H657 H 0.42033 0.98261 0.02368 0.0
H658 H 0.65773 1.01333 0.92095 0.0
H659 H 0.71637 1.01276 0.97148 0.0
H660 H 0.7264 0.99986 0.93301 0.0
H661 H 0.35006 1.00183 0.03905 0.0
H662 H 0.42451 1.01439 0.05325 0.0
H663 H 0.3697 1.01474 0.00161 0.0
H664 H 0.61251 0.04704 0.04803 0.0
H665 H 0.47651 0.0472 0.92502 0.0
H666 H 0.67384 1.01481 0.04779 0.0
H667 H 0.57581 0.0155 0.07595 0.0
H668 H 0.65347 0.02806 0.08367 0.0
H669 H 0.50838 1.01499 0.89811 0.0
H670 H 0.43847 0.02843 0.88787 0.0
H671 H 0.40893 0.01589 0.92488 0.0
C672 C 0.60134 0.04197 0.50269 0.0
C673 C 0.53994 0.04921 0.47967 0.0
C674 C 0.60332 0.02861 0.49933 0.0
C675 C 0.54196 0.02231 0.47249 0.0
C676 C 0.48166 0.0296 0.44786 0.0
C677 C 0.48165 0.04301 0.45158 0.0
C678 C 0.66917 0.0212 0.52582 0.0
C679 C 0.41503 0.0232 0.41908 0.0
C680 C 0.58371 0.98713 0.44939 0.0
C681 C 0.53793 0.98125 0.48244 0.0
C682 C 0.58386 1.00052 0.44479 0.0
C683 C 0.53647 1.00812 0.47369 0.0
C684 C 0.488 1.00217 0.50616 0.0
C685 C 0.48951 0.98882 0.51018 0.0
C686 C 0.63666 1.00656 0.40997 0.0
C687 C 0.43609 1.00992 0.53741 0.0
H688 H 0.64761 0.04678 0.52374 0.0
H689 H 0.43429 0.04863 0.43371 0.0
H690 H 0.63717 0.01548 0.55103 0.0
H691 H 0.70343 1.01441 0.50476 0.0
H692 H 0.71661 0.02758 0.54222 0.0
H693 H 0.37805 0.03022 0.39903 0.0
H694 H 0.44522 0.01619 0.39717 0.0
H695 H 0.37013 0.01781 0.4395 0.0
H696 H 0.62106 0.98127 0.42789 0.0
H697 H 0.45251 0.98427 0.53515 0.0
H698 H 0.68913 1.01221 0.42535 0.0
H699 H 0.59719 1.01328 0.39005 0.0
H700 H 0.66478 0.99931 0.38815 0.0
H701 H 0.47907 0.01595 0.55798 0.0
H702 H 0.3979 1.00377 0.55905 0.0
H703 H 0.39226 0.01645 0.51921 0.0
C704 C 0.29092 0.29428 0.03927 0.0
C705 C 0.2039 0.29728 0.03581 0.0
C706 C 0.31868 0.2815 0.04082 0.0
C707 C 0.25794 0.27148 0.03883 0.0
C708 C 0.16995 0.27444 0.03733 0.0
C709 C 0.144 0.2873 0.03574 0.0
C710 C 0.41312 0.27872 0.04263 0.0
C711 C 0.10322 0.26403 0.03517 0.0
C712 C 0.33043 0.24049 0.98747 0.0
C713 C 0.34893 0.23282 0.02399 0.0
C714 C 0.29968 0.253 -0.00804 0.0
C715 C 0.28659 0.25799 0.03404 0.0
C716 C 0.30255 0.25018 0.07106 0.0
C717 C 0.33358 0.23767 0.06559 0.0
C718 C 0.28284 0.26097 0.95161 0.0
C719 C 0.28886 0.25517 0.1164 0.0
H720 H 0.33747 0.30195 0.03996 0.0
H721 H 0.07665 0.2895 0.03251 0.0
H722 H 0.42866 0.27186 0.06922 0.0
H723 H 0.43205 0.27419 0.01171 0.0
H724 H 0.45176 0.28753 0.04775 0.0
H725 H 0.03779 0.26788 0.03885 0.0
H726 H 0.10596 0.25905 0.00338 0.0
H727 H 0.11579 0.25678 0.0609 0.0
H728 H 0.34077 0.23671 0.95521 0.0
H729 H 0.34834 0.23182 0.09393 0.0
H730 H 0.32454 0.26955 0.95228 0.0
H731 H 0.21592 0.26441 0.9507 0.0
H732 H 0.29443 0.25556 0.92126 0.0
H733 H 0.33283 0.26327 0.12328 0.0
H734 H 0.29984 0.24768 0.14161 0.0
H735 H 0.22297 0.25888 0.11909 0.0
C736 C 0.65393 0.78722 0.94463 0.0
C737 C 0.71188 0.79638 0.96092 0.0
C738 C 0.67751 0.77432 0.94068 0.0
C739 C 0.76088 0.77047 0.95353 0.0
C740 C 0.82062 0.77974 0.96842 0.0
C741 C 0.79542 0.79258 0.97189 0.0
C742 C 0.61214 0.76472 0.92452 0.0
C743 C 0.91031 0.77602 0.98224 0.0
C744 C 0.79987 0.73671 -0.00512 0.0
C745 C 0.84079 0.73104 0.95976 0.0
C746 C 0.77145 0.74943 -0.00726 0.0
C747 C 0.78408 0.75666 0.95451 0.0
C748 C 0.82248 0.75087 0.91832 0.0
C749 C 0.85061 0.73812 0.92142 0.0
C750 C 0.73088 0.75527 0.03208 0.0
C751 C 0.83613 0.75825 0.87685 0.0
H752 H 0.58896 0.79005 0.93657 0.0
H753 H 0.84084 0.79964 0.98386 0.0
H754 H 0.63868 0.75874 0.89833 0.0
H755 H 0.59535 0.75819 0.95145 0.0
H756 H 0.55291 0.76941 0.91193 0.0
H757 H 0.95041 0.78447 -0.0094 0.0
H758 H 0.90854 0.76964 0.01107 0.0
H759 H 0.94107 0.77059 0.95591 0.0
H760 H 0.79317 0.73135 0.02481 0.0
H761 H 0.88141 0.73374 0.89402 0.0
H762 H 0.66808 0.75949 0.02286 0.0
H763 H 0.77161 0.76314 0.04504 0.0
H764 H 0.72166 0.74816 0.05843 0.0
H765 H 0.77542 0.76265 0.86509 0.0
H766 H 0.86133 0.7521 0.85067 0.0
H767 H 0.88188 0.76616 0.88323 0.0
C768 C 0.16206 0.74428 0.50802 0.0
C769 C 0.201 0.73388 0.48759 0.0
C770 C 0.19368 0.75673 0.50365 0.0
C771 C 0.26586 0.75887 0.47802 0.0
C772 C 0.30311 0.74852 0.4556 0.0
C773 C 0.2702 0.73612 0.46068 0.0
C774 C 0.15193 0.76751 0.52798 0.0
C775 C 0.37985 0.75047 0.42778 0.0
C776 C 0.31262 0.79369 0.45169 0.0
C777 C 0.37135 0.79683 0.48514 0.0
C778 C 0.27976 0.78121 0.44785 0.0
C779 C 0.30641 0.77172 0.47819 0.0
C780 C 0.36785 0.77475 0.51105 0.0
C781 C 0.39963 0.78725 0.51406 0.0
C782 C 0.21455 0.7783 0.4123 0.0
C783 C 0.39815 0.76488 0.54396 0.0
H784 H 0.1073 0.74264 0.52805 0.0
H785 H 0.30057 0.72811 0.44487 0.0
H786 H 0.19696 0.77128 0.55327 0.0
H787 H 0.13596 0.77553 0.50552 0.0
H788 H 0.09283 0.7644 0.54403 0.0
H789 H 0.39535 0.74176 0.40879 0.0
H790 H 0.36892 0.75856 0.40493 0.0
H791 H 0.43593 0.75295 0.4488 0.0
H792 H 0.29049 0.80107 0.42931 0.0
H793 H 0.44651 0.78955 0.53935 0.0
H794 H 0.15205 0.77631 0.42689 0.0
H795 H 0.23319 0.76961 0.39415 0.0
H796 H 0.20655 0.78637 0.38897 0.0
H797 H 0.34403 0.76181 0.56399 0.0
H798 H 0.44954 0.76861 0.566 0.0
H799 H 0.42218 0.75626 0.52715 0.0
C800 C 0.94316 0.28506 0.48028 0.0
C801 C 0.89001 0.29557 0.48814 0.0
C802 C 0.91266 0.2725 0.48318 0.0
C803 C 0.82694 0.27039 0.49428 0.0
C804 C 0.77357 0.28094 0.50352 0.0
C805 C 0.80584 0.29343 0.50039 0.0
C806 C 0.97165 0.26149 0.47344 0.0
C807 C 0.6818 0.27904 0.51555 0.0
C808 C 0.722 0.23949 0.45663 0.0
C809 C 0.72412 0.2322 0.49494 0.0
C810 C 0.75554 0.25192 0.45598 0.0
C811 C 0.79225 0.25717 0.49454 0.0
C812 C 0.79587 0.24979 0.53315 0.0
C813 C 0.76166 0.23739 0.53289 0.0
C814 C 0.75054 0.25952 0.41418 0.0
C815 C 0.83518 0.25504 0.57478 0.0
H816 H 1.00876 0.28668 0.47157 0.0
H817 H 0.76447 0.30153 0.50624 0.0
H818 H 0.97376 0.25463 0.50103 0.0
H819 H 0.94722 0.2562 0.44443 0.0
H820 H 1.0376 0.26474 0.46722 0.0
H821 H 0.64998 0.2882 0.52375 0.0
H822 H 0.64601 0.27451 0.48804 0.0
H823 H 0.67799 0.27247 0.54379 0.0
H824 H 0.69202 0.23558 0.42739 0.0
H825 H 0.76419 0.23172 0.56245 0.0
H826 H 0.81534 0.2625 0.40476 0.0
H827 H 0.71283 0.26838 0.419 0.0
H828 H 0.72079 0.254 0.38693 0.0
H829 H 0.90224 0.25787 0.56954 0.0
H830 H 0.834 0.24799 0.60184 0.0
H831 H 0.80043 0.26377 0.58472 0.0
C832 C 0.98257 0.39335 0.12674 0.0
C833 C 0.06151 0.39054 0.10885 0.0
C834 C 0.97256 0.39324 0.17192 0.0
C835 C 0.04408 0.39074 0.19967 0.0
C836 C 0.12468 0.38835 0.18161 0.0
C837 C 0.13202 0.38801 0.13626 0.0
C838 C 0.88504 0.39536 0.18987 0.0
C839 C 0.20298 0.38609 0.21017 0.0
C840 C 1.03154 0.40066 0.31815 0.0
C841 C 1.02067 0.38879 0.33848 0.0
C842 C 0.03998 0.40145 0.2729 0.0
C843 C 1.03411 0.39015 0.24752 0.0
C844 C 1.02024 0.3782 0.26796 0.0
C845 C 1.0154 0.37764 0.31336 0.0
C846 C 0.05757 0.41429 0.25243 0.0
C847 C 1.01066 0.36601 0.24189 0.0
H848 H 0.92794 0.39517 0.10529 0.0
H849 H 0.19312 0.38592 0.12219 0.0
H850 H 0.86577 0.38683 0.20877 0.0
H851 H 0.886 0.40363 0.21249 0.0
H852 H 0.83608 0.39716 0.16384 0.0
H853 H 0.26192 0.38542 0.19107 0.0
H854 H 0.21059 0.39396 0.23417 0.0
H855 H 0.1958 0.37706 0.22876 0.0
H856 H 1.03645 0.40925 0.33782 0.0
H857 H 1.00637 0.36848 0.32926 0.0
H858 H 1.00719 0.41664 0.22775 0.0
H859 H 0.11893 0.41392 0.23534 0.0
H860 H 0.06082 0.42214 0.2768 0.0
H861 H 0.9603 0.36721 0.2162 0.0
H862 H 0.99407 0.35768 0.26249 0.0
H863 H 0.07096 0.36384 0.22539 0.0
C864 C 0.09503 0.64971 0.16775 0.0
C865 C 1.01634 0.64664 0.14795 0.0
C866 C 0.10563 0.64958 0.21324 0.0
C867 C 1.03502 0.64675 0.23934 0.0
C868 C 0.95464 0.6441 0.21936 0.0
C869 C 0.94668 0.64385 0.17383 0.0
C870 C 0.19288 0.65207 0.23327 0.0
C871 C 0.87719 0.64146 0.24606 0.0
C872 C 0.06774 0.63379 0.354 0.0
C873 C 0.05996 0.64491 0.379 0.0
C874 C 0.06221 0.63432 0.30841 0.0
C875 C 0.0455 0.64619 0.28752 0.0
C876 C 1.03692 0.65744 0.31274 0.0
C877 C 0.0457 0.65669 0.35821 0.0
C878 C 0.0743 0.62218 0.28261 0.0
C879 C 1.01649 0.6702 0.29177 0.0
H880 H 0.14909 0.65174 0.14762 0.0
H881 H 0.88567 0.64156 0.1584 0.0
H882 H 0.19039 0.66027 0.25607 0.0
H883 H 0.21425 0.64359 0.25242 0.0
H884 H 0.24107 0.65416 0.20842 0.0
H885 H 0.8182 0.64051 0.22556 0.0
H886 H 0.88662 0.63247 0.26483 0.0
H887 H 0.86805 0.64929 0.26986 0.0
H888 H 0.07951 0.62469 0.37011 0.0
H889 H 0.03896 0.66528 0.37763 0.0
H890 H 0.12469 0.6236 0.25842 0.0
H891 H 1.01462 0.61979 0.26431 0.0
H892 H 0.0922 0.61391 0.30367 0.0
H893 H 0.06639 0.67278 0.26847 0.0
H894 H 1.01143 0.67802 0.31604 0.0
H895 H 0.95529 0.66954 0.27301 0.0
C896 C 0.94282 0.64174 0.85134 0.0
C897 C 1.01227 0.6392 0.87947 0.0
C898 C 0.95213 0.64153 0.80607 0.0
C899 C 1.03366 0.63929 0.78883 0.0
C900 C 0.10409 0.63679 0.81732 0.0
C901 C 0.0921 0.63652 0.86237 0.0
C902 C 0.87491 0.64377 0.77674 0.0
C903 C 0.19255 0.63483 0.80033 0.0
C904 C 0.05258 0.62969 0.67026 0.0
C905 C 0.06373 0.64162 0.65033 0.0
C906 C 0.04182 0.62878 0.71534 0.0
C907 C 0.0457 0.64002 0.74108 0.0
C908 C 0.05974 0.65204 0.72109 0.0
C909 C 0.0668 0.65272 0.67577 0.0
C910 C 1.02396 0.61587 0.73521 0.0
C911 C 0.06732 0.66418 0.74756 0.0
H912 H 0.88105 0.64375 0.86479 0.0
H913 H 0.14592 0.63472 0.88437 0.0
H914 H 0.88225 0.65288 0.75864 0.0
H915 H 0.8689 0.63598 0.75235 0.0
H916 H 0.81507 0.64427 0.79518 0.0
H917 H 0.24047 0.63302 0.82685 0.0
H918 H 0.19307 0.62663 0.77745 0.0
H919 H 0.21214 0.64344 0.78194 0.0
H920 H 0.04929 0.62113 0.65035 0.0
H921 H 0.07596 0.66192 0.66021 0.0
H922 H 0.9619 0.61613 0.75167 0.0
H923 H 0.0735 0.6135 0.76031 0.0
H924 H 1.02201 0.60809 0.71059 0.0
H925 H 1.00611 0.66622 0.76339 0.0
H926 H 0.0843 0.67259 0.72739 0.0
H927 H 0.1166 0.66299 0.7738 0.0
C928 C 0.95749 0.38042 0.63195 0.0
C929 C 1.02873 0.38413 0.60858 0.0
C930 C 0.96091 0.38005 0.67759 0.0
C931 C 0.03842 0.38297 0.70004 0.0
C932 C 0.11138 0.38627 0.67632 0.0
C933 C 0.10513 0.38707 0.63083 0.0
C934 C 0.88104 0.37693 0.70178 0.0
C935 C 0.19587 0.38904 0.69898 0.0
C936 C 0.03889 0.39515 0.81611 0.0
C937 C 0.05602 0.38394 0.83978 0.0
C938 C 1.03025 0.39487 0.77066 0.0
C939 C 0.04243 0.38318 0.74837 0.0
C940 C 0.06043 0.37183 0.77222 0.0
C941 C 0.06535 0.37231 0.81787 0.0
C942 C 1.00807 0.40708 0.74655 0.0
C943 C 0.07668 0.35928 0.74951 0.0
H944 H 0.89832 0.37824 0.61454 0.0
H945 H 0.16041 0.38979 0.61253 0.0
H946 H 0.89212 0.36856 0.72338 0.0
H947 H 0.86399 0.38513 0.72279 0.0
H948 H 0.82611 0.37481 0.67944 0.0
H949 H 0.24799 0.39037 0.67565 0.0
H950 H 0.19082 0.39784 0.71888 0.0
H951 H 0.2134 0.38107 0.72143 0.0
H952 H 1.03078 0.40412 0.8333 0.0
H953 H 0.07912 0.36368 0.83638 0.0
H954 H 0.95127 0.40555 0.72494 0.0
H955 H 0.06141 0.40989 0.72561 0.0
H956 H 0.99475 0.41514 0.76895 0.0
H957 H 1.02063 0.3566 0.72882 0.0
H958 H 0.0905 0.35137 0.7728 0.0
H959 H 0.13156 0.36032 0.72775 0.0
C960 C 0.63589 0.88829 0.16945 0.0
C961 C 0.56661 0.88531 0.14175 0.0
C962 C 0.62693 0.88845 0.21472 0.0
C963 C 0.54602 0.88603 0.23235 0.0
C964 C 0.47551 0.88324 0.20431 0.0
C965 C 0.48705 0.8827 0.1593 0.0
C966 C 0.70409 0.89108 0.24368 0.0
C967 C 0.38773 0.88101 0.2218 0.0
C968 C 0.53173 0.87539 0.3499 0.0
C969 C 0.5168 0.88704 0.37094 0.0
C970 C 0.54235 0.87495 0.3048 0.0
C971 C 0.53518 0.88637 0.28015 0.0
C972 C 0.51805 0.89812 0.30118 0.0
C973 C 0.51045 0.89834 0.34653 0.0
C974 C 0.56286 0.8623 0.28367 0.0
C975 C 0.50744 0.91043 0.2758 0.0
H976 H 0.69748 0.89024 0.15573 0.0
H977 H 0.43326 0.88054 0.1377 0.0
H978 H 0.69382 0.89989 0.26299 0.0
H979 H 0.71392 0.88308 0.26706 0.0
H980 H 0.76301 0.8923 0.22487 0.0
H981 H 0.33907 0.87944 0.19547 0.0
H982 H 0.38855 0.87254 0.24358 0.0
H983 H 0.36817 0.88937 0.24147 0.0
H984 H 0.53757 0.86667 0.36891 0.0
H985 H 0.49836 0.90734 0.36285 0.0
H986 H 0.62392 0.86306 0.26646 0.0
H987 H 0.51276 0.85983 0.25901 0.0
H988 H 0.5681 0.85435 0.30764 0.0
H989 H 0.56742 0.91277 0.25928 0.0
H990 H 0.49032 0.91863 0.29686 0.0
H991 H 0.45701 0.90928 0.25014 0.0
C992 C 0.45511 0.14882 0.15536 0.0
C993 C 0.50657 0.14087 0.13035 0.0
C994 C 0.46174 0.14867 0.20088 0.0
C995 C 0.52208 0.14051 0.22177 0.0
C996 C 0.57397 0.13242 0.19673 0.0
C997 C 0.56518 0.13263 0.15125 0.0
C998 C 0.40455 0.15731 0.22661 0.0
C999 C 0.63967 0.1237 0.21795 0.0
C1000 C 0.59399 0.14969 0.33612 0.0
C1001 C 0.546 0.1413 0.3613 0.0
C1002 C 0.58785 0.14939 0.29059 0.0
C1003 C 0.53161 0.14059 0.26986 0.0
C1004 C 0.48324 0.13206 0.29507 0.0
C1005 C 0.4914 0.13246 0.34054 0.0
C1006 C 0.64115 0.15853 0.26466 0.0
C1007 C 0.42195 0.12264 0.27402 0.0
H1008 H 0.40931 0.15514 0.13938 0.0
H1009 H 0.60547 0.12652 0.13204 0.0
H1010 H 0.3677 0.15155 0.24991 0.0
H1011 H 0.44368 0.1642 0.24592 0.0
H1012 H 0.35913 0.16278 0.20542 0.0
H1013 H 0.67448 0.11792 0.19382 0.0
H1014 H 0.68656 0.12946 0.23715 0.0
H1015 H 0.6086 0.11709 0.24091 0.0
H1016 H 0.63671 0.15648 0.35198 0.0
H1017 H 0.45384 0.12599 0.35982 0.0
H1018 H 0.59908 0.16499 0.24512 0.0
H1019 H 0.68061 0.15311 0.24156 0.0
H1020 H 0.6839 0.16447 0.28574 0.0
H1021 H 0.37258 0.12787 0.25458 0.0
H1022 H 0.38976 0.11656 0.29828 0.0
H1023 H 0.4562 0.11633 0.25134 0.0
C1024 C 0.45869 0.13606 0.8349 0.0
C1025 C 0.5051 0.14477 0.86081 0.0
C1026 C 0.46707 0.13588 0.78965 0.0
C1027 C 0.52325 0.14461 0.77001 0.0
C1028 C 0.57004 0.15346 0.79594 0.0
C1029 C 0.56032 0.15344 0.84108 0.0
C1030 C 0.41596 0.12635 0.76287 0.0
C1031 C 0.63057 0.1629 0.776 0.0
C1032 C 0.60221 0.13674 0.65772 0.0
C1033 C 0.54927 0.14448 0.63133 0.0
C1034 C 0.59471 0.13673 0.70304 0.0
C1035 C 0.53249 0.14458 0.7222 0.0
C1036 C 0.47897 0.15242 0.69575 0.0
C1037 C 0.4882 0.1523 0.65059 0.0
C1038 C 0.65319 0.12831 0.73041 0.0
C1039 C 0.41165 0.16087 0.71512 0.0
H1040 H 0.41595 0.12933 0.84994 0.0
H1041 H 0.5965 0.16019 0.86091 0.0
H1042 H 0.37487 0.13146 0.73861 0.0
H1043 H 0.45944 0.12008 0.74457 0.0
H1044 H 0.37497 0.12022 0.78319 0.0
H1045 H 0.66252 0.16911 0.80079 0.0
H1046 H 0.68014 0.15771 0.75793 0.0
H1047 H 0.59556 0.16909 0.75226 0.0
H1048 H 0.64965 0.13069 0.643 0.0
H1049 H 0.44686 0.15828 0.63037 0.0
H1050 H 0.61509 0.12141 0.74928 0.0
H1051 H 0.68999 0.13423 0.7542 0.0
H1052 H 0.69869 0.12285 0.71046 0.0
H1053 H 0.36636 0.15495 0.73357 0.0
H1054 H 0.37514 0.16638 0.68995 0.0
H1055 H 0.44169 0.16772 0.73841 0.0
C1056 C 0.45489 0.89033 0.66619 0.0
C1057 C 0.52615 0.88789 0.64106 0.0
C1058 C 0.46197 0.89051 0.71176 0.0
C1059 C 0.54284 0.88867 0.73235 0.0
C1060 C 0.61541 0.88656 0.7069 0.0
C1061 C 0.60586 0.88596 0.66148 0.0
C1062 C 0.38275 0.89237 0.73786 0.0
C1063 C 0.70308 0.88496 0.72761 0.0
C1064 C 0.57027 0.89987 0.84936 0.0
C1065 C 0.56775 0.88824 0.87197 0.0
C1066 C 0.56345 0.90016 0.80377 0.0
C1067 C 0.55121 0.88857 0.78056 0.0
C1068 C 0.54727 0.87682 0.8034 0.0
C1069 C 0.55687 0.87678 0.84883 0.0
C1070 C 0.57035 0.91283 0.78041 0.0
C1071 C 0.53203 0.8643 0.7799 0.0
H1072 H 0.39319 0.89175 0.65022 0.0
H1073 H 0.66107 0.88422 0.64185 0.0
H1074 H 0.37383 0.88401 0.75961 0.0
H1075 H 0.38966 0.90095 0.75886 0.0
H1076 H 0.3246 0.89351 0.71684 0.0
H1077 H 0.75355 0.88422 0.70307 0.0
H1078 H 0.71786 0.89321 0.74926 0.0
H1079 H 0.70503 0.87621 0.74805 0.0
H1080 H 0.57922 0.90873 0.86729 0.0
H1081 H 0.55399 0.86778 0.86636 0.0
H1082 H 0.51076 0.9148 0.76142 0.0
H1083 H 0.62289 0.91243 0.757 0.0
H1084 H 0.58238 0.92092 0.80319 0.0
H1085 H 0.47215 0.86486 0.75999 0.0
H1086 H 0.52747 0.85607 0.80264 0.0
H1087 H 0.58456 0.86241 0.75734 0.0
loop_
_geom_bond_atom_site_label_1
_geom_bond_atom_site_label_2
_geom_bond_distance
_geom_bond_site_symmetry_2
_ccdc_geom_bond_type
Eu0 C9 2.828 . S
Eu0 O11 2.392 1_455 S
Eu0 O13 2.418 . S
Eu0 O18 2.373 . S
Eu0 O21 2.488 . S
Eu0 O22 2.471 1_554 S
Eu0 O23 2.349 1_554 S
Eu1 O10 2.373 1_455 S
Eu1 O14 2.488 . S
Eu1 O15 2.471 1_556 S
Eu1 O16 2.349 1_556 S
Eu1 O19 2.392 . S
Eu1 O20 2.418 . S
Eu1 C30 2.828 1_556 S
C2 O20 1.244 . S
C2 O23 1.265 . S
C3 C4 1.371 1_554 S
C3 C7 1.379 . S
C3 C9 1.506 . S
C4 C3 1.371 1_556 S
C4 C6 1.369 . S
C4 H32 0.930 . S
C5 C7 1.383 . S
C5 C8 1.382 1_554 S
C5 H33 0.930 . S
C6 C4 1.369 . S
C6 C8 1.392 . S
C6 H34 0.930 . S
C7 C3 1.379 . S
C7 C5 1.383 . S
C7 H35 0.931 . S
C8 C5 1.382 1_556 S
C8 C6 1.392 . S
C9 Eu0 2.828 . S
C9 C3 1.506 . S
C9 O21 1.249 . S
C9 O22 1.244 1_554 S
O10 Eu1 2.373 1_655 S
O10 C12 1.258 1_556 S
O11 Eu0 2.392 1_655 S
O11 C12 1.242 . S
C12 O10 1.258 1_554 S
C12 O11 1.242 . S
O13 Eu0 2.418 . S
O13 C17 1.244 . S
O14 Eu1 2.488 . S
O14 C30 1.249 1_556 S
O15 Eu1 2.471 1_554 S
O15 C30 1.244 . S
O16 Eu1 2.349 1_554 S
O16 C17 1.265 . S
C17 O13 1.244 . S
C17 O16 1.265 . S
O18 Eu0 2.373 . S
O18 C31 1.258 . S
O19 Eu1 2.392 . S
O19 C31 1.242 1_556 S
O20 Eu1 2.418 . S
O20 C2 1.244 . S
O21 Eu0 2.488 . S
O21 C9 1.249 . S
O22 Eu0 2.471 1_556 S
O22 C9 1.244 1_556 S
O23 Eu0 2.349 1_556 S
O23 C2 1.265 . S
C24 C25 1.379 . S
C24 C28 1.373 1_554 S
C24 C30 1.505 1_655 S
C25 C24 1.379 . S
C25 C27 1.369 . S
C25 H36 0.930 . S
C26 C28 1.383 . S
C26 C29 1.382 1_556 S
C26 H37 0.930 . S
C27 C25 1.369 . S
C27 C29 1.392 . S
C27 H38 0.930 . S
C28 C24 1.373 1_556 S
C28 C26 1.383 . S
C28 H39 0.931 . S
C29 C26 1.382 1_554 S
C29 C27 1.392 . S
C30 Eu1 2.828 1_554 S
C30 O14 1.249 1_554 S
C30 O15 1.244 . S
C30 C24 1.505 1_455 S
C31 O18 1.258 . S
C31 O19 1.242 1_554 S
H32 C4 0.930 . S
H33 C5 0.930 . S
H34 C6 0.930 . S
H35 C7 0.931 . S
H36 C25 0.930 . S
H37 C26 0.930 . S
H38 C27 0.930 . S
H39 C28 0.931 . S
Eu40 C49 2.828 . S
Eu40 O51 2.392 . S
Eu40 O53 2.418 . S
Eu40 O58 2.373 1_655 S
Eu40 O61 2.488 . S
Eu40 O62 2.471 1_554 S
Eu40 O63 2.349 1_554 S
Eu41 O50 2.373 . S
Eu41 O54 2.488 . S
Eu41 O55 2.471 1_556 S
Eu41 O56 2.349 1_556 S
Eu41 O59 2.392 1_655 S
Eu41 O60 2.418 . S
Eu41 C70 2.828 1_556 S
C42 O60 1.244 . S
C42 O63 1.265 . S
C43 C44 1.385 . S
C43 C47 1.368 1_556 S
C43 C49 1.504 1_456 S
C44 C43 1.385 . S
C44 C46 1.369 . S
C44 H72 0.930 . S
C45 C47 1.383 . S
C45 C48 1.382 1_554 S
C45 H73 0.930 . S
C46 C44 1.369 . S
C46 C48 1.392 . S
C46 H74 0.930 . S
C47 C43 1.368 1_554 S
C47 C45 1.383 . S
C47 H75 0.931 . S
C48 C45 1.382 1_556 S
C48 C46 1.392 . S
C49 Eu40 2.828 . S
C49 C43 1.504 1_654 S
C49 O61 1.249 . S
C49 O62 1.244 1_554 S
O50 Eu41 2.373 . S
O50 C52 1.258 1_556 S
O51 Eu40 2.392 . S
O51 C52 1.242 . S
C52 O50 1.258 1_554 S
C52 O51 1.242 . S
O53 Eu40 2.418 . S
O53 C57 1.244 . S
O54 Eu41 2.488 . S
O54 C70 1.249 1_556 S
O55 Eu41 2.471 1_554 S
O55 C70 1.244 . S
O56 Eu41 2.349 1_554 S
O56 C57 1.265 . S
C57 O53 1.244 . S
C57 O56 1.265 . S
O58 Eu40 2.373 1_455 S
O58 C71 1.258 . S
O59 Eu41 2.392 1_455 S
O59 C71 1.242 1_556 S
O60 Eu41 2.418 . S
O60 C42 1.244 . S
O61 Eu40 2.488 . S
O61 C49 1.249 . S
O62 Eu40 2.471 1_556 S
O62 C49 1.244 1_556 S
O63 Eu40 2.349 1_556 S
O63 C42 1.265 . S
C64 C65 1.379 . S
C64 C68 1.373 1_554 S
C64 C70 1.505 . S
C65 C64 1.379 . S
C65 C67 1.369 . S
C65 H76 0.930 . S
C66 C68 1.383 . S
C66 C69 1.382 1_556 S
C66 H77 0.930 . S
C67 C65 1.369 . S
C67 C69 1.392 . S
C67 H78 0.930 . S
C68 C64 1.373 1_556 S
C68 C66 1.383 . S
C68 H79 0.931 . S
C69 C66 1.382 1_554 S
C69 C67 1.392 . S
C70 Eu41 2.828 1_554 S
C70 O54 1.249 1_554 S
C70 O55 1.244 . S
C70 C64 1.505 . S
C71 O58 1.258 . S
C71 O59 1.242 1_554 S
H72 C44 0.930 . S
H73 C45 0.930 . S
H74 C46 0.930 . S
H75 C47 0.931 . S
H76 C65 0.930 . S
H77 C66 0.930 . S
H78 C67 0.930 . S
H79 C68 0.931 . S
Eu80 C89 2.828 . S
Eu80 O91 2.392 . S
Eu80 O93 2.418 . S
Eu80 O98 2.373 1_455 S
Eu80 O101 2.488 . S
Eu80 O102 2.471 . S
Eu80 O103 2.349 . S
Eu81 O90 2.373 . S
Eu81 O94 2.488 . S
Eu81 O95 2.471 . S
Eu81 O96 2.349 . S
Eu81 O99 2.392 1_455 S
Eu81 O100 2.418 . S
Eu81 C110 2.828 . S
C82 O100 1.244 . S
C82 O103 1.265 . S
C83 C84 1.379 . S
C83 C87 1.373 . S
C83 C89 1.505 1_655 S
C84 C83 1.379 . S
C84 C86 1.369 . S
C84 H112 0.930 . S
C85 C87 1.383 . S
C85 C88 1.382 . S
C85 H113 0.930 . S
C86 C84 1.369 . S
C86 C88 1.392 . S
C86 H114 0.930 . S
C87 C83 1.373 . S
C87 C85 1.383 . S
C87 H115 0.931 . S
C88 C85 1.382 . S
C88 C86 1.392 . S
C89 Eu80 2.828 . S
C89 C83 1.505 1_455 S
C89 O101 1.249 . S
C89 O102 1.244 . S
O90 Eu81 2.373 . S
O90 C92 1.258 . S
O91 Eu80 2.392 . S
O91 C92 1.242 . S
C92 O90 1.258 . S
C92 O91 1.242 . S
O93 Eu80 2.418 . S
O93 C97 1.244 . S
O94 Eu81 2.488 . S
O94 C110 1.249 . S
O95 Eu81 2.471 . S
O95 C110 1.244 . S
O96 Eu81 2.349 . S
O96 C97 1.265 . S
C97 O93 1.244 . S
C97 O96 1.265 . S
O98 Eu80 2.373 1_655 S
O98 C111 1.258 . S
O99 Eu81 2.392 1_655 S
O99 C111 1.242 . S
O100 Eu81 2.418 . S
O100 C82 1.244 . S
O101 Eu80 2.488 . S
O101 C89 1.249 . S
O102 Eu80 2.471 . S
O102 C89 1.244 . S
O103 Eu80 2.349 . S
O103 C82 1.265 . S
C104 C105 1.379 . S
C104 C108 1.373 . S
C104 C110 1.505 . S
C105 C104 1.379 . S
C105 C107 1.369 . S
C105 H116 0.930 . S
C106 C108 1.383 . S
C106 C109 1.382 . S
C106 H117 0.930 . S
C107 C105 1.369 . S
C107 C109 1.392 . S
C107 H118 0.930 . S
C108 C104 1.373 . S
C108 C106 1.383 . S
C108 H119 0.931 . S
C109 C106 1.382 . S
C109 C107 1.392 . S
C110 Eu81 2.828 . S
C110 O94 1.249 . S
C110 O95 1.244 . S
C110 C104 1.505 . S
C111 O98 1.258 . S
C111 O99 1.242 . S
H112 C84 0.930 . S
H113 C85 0.930 . S
H114 C86 0.930 . S
H115 C87 0.931 . S
H116 C105 0.930 . S
H117 C106 0.930 . S
H118 C107 0.930 . S
H119 C108 0.931 . S
Eu120 C129 2.828 . S
Eu120 O131 2.392 1_655 S
Eu120 O133 2.418 . S
Eu120 O138 2.373 . S
Eu120 O141 2.488 . S
Eu120 O142 2.471 . S
Eu120 O143 2.349 . S
Eu121 O130 2.373 1_655 S
Eu121 O134 2.488 . S
Eu121 O135 2.471 . S
Eu121 O136 2.349 . S
Eu121 O139 2.392 . S
Eu121 O140 2.418 . S
Eu121 C150 2.828 . S
C122 O140 1.244 . S
C122 O143 1.265 . S
C123 C124 1.379 . S
C123 C127 1.373 . S
C123 C129 1.505 . S
C124 C123 1.379 . S
C124 C126 1.369 . S
C124 H152 0.930 . S
C125 C127 1.383 . S
C125 C128 1.382 . S
C125 H153 0.930 . S
C126 C124 1.369 . S
C126 C128 1.392 . S
C126 H154 0.930 . S
C127 C123 1.373 . S
C127 C125 1.383 . S
C127 H155 0.931 . S
C128 C125 1.382 . S
C128 C126 1.392 . S
C129 Eu120 2.828 . S
C129 C123 1.505 . S
C129 O141 1.249 . S
C129 O142 1.244 . S
O130 Eu121 2.373 1_455 S
O130 C132 1.258 . S
O131 Eu120 2.392 1_455 S
O131 C132 1.242 . S
C132 O130 1.258 . S
C132 O131 1.242 . S
O133 Eu120 2.418 . S
O133 C137 1.244 . S
O134 Eu121 2.488 . S
O134 C150 1.249 . S
O135 Eu121 2.471 . S
O135 C150 1.244 . S
O136 Eu121 2.349 . S
O136 C137 1.265 . S
C137 O133 1.244 . S
C137 O136 1.265 . S
O138 Eu120 2.373 . S
O138 C151 1.258 . S
O139 Eu121 2.392 . S
O139 C151 1.242 . S
O140 Eu121 2.418 . S
O140 C122 1.244 . S
O141 Eu120 2.488 . S
O141 C129 1.249 . S
O142 Eu120 2.471 . S
O142 C129 1.244 . S
O143 Eu120 2.349 . S
O143 C122 1.265 . S
C144 C145 1.379 . S
C144 C148 1.373 . S
C144 C150 1.505 1_455 S
C145 C144 1.379 . S
C145 C147 1.369 . S
C145 H156 0.930 . S
C146 C148 1.383 . S
C146 C149 1.382 . S
C146 H157 0.930 . S
C147 C145 1.369 . S
C147 C149 1.392 . S
C147 H158 0.930 . S
C148 C144 1.373 . S
C148 C146 1.383 . S
C148 H159 0.931 . S
C149 C146 1.382 . S
C149 C147 1.392 . S
C150 Eu121 2.828 . S
C150 O134 1.249 . S
C150 O135 1.244 . S
C150 C144 1.505 1_655 S
C151 O138 1.258 . S
C151 O139 1.242 . S
H152 C124 0.930 . S
H153 C125 0.930 . S
H154 C126 0.930 . S
H155 C127 0.931 . S
H156 C145 0.930 . S
H157 C146 0.930 . S
H158 C147 0.930 . S
H159 C148 0.931 . S
Eu160 C169 2.828 . S
Eu160 O171 2.392 . S
Eu160 O173 2.418 . S
Eu160 O178 2.373 . S
Eu160 O181 2.488 . S
Eu160 O182 2.471 1_554 S
Eu160 O183 2.349 1_554 S
Eu161 O170 2.373 . S
Eu161 O174 2.488 . S
Eu161 O175 2.471 1_556 S
Eu161 O176 2.349 1_556 S
Eu161 O179 2.392 . S
Eu161 O180 2.418 . S
Eu161 C190 2.828 1_556 S
C162 O180 1.244 . S
C162 O183 1.265 . S
C163 C164 1.371 1_554 S
C163 C167 1.379 . S
C163 C169 1.506 . S
C164 C163 1.371 1_556 S
C164 C166 1.369 . S
C164 H192 0.930 . S
C165 C167 1.383 . S
C165 C168 1.382 1_554 S
C165 H193 0.930 . S
C166 C164 1.369 . S
C166 C168 1.392 . S
C166 H194 0.930 . S
C167 C163 1.379 . S
C167 C165 1.383 . S
C167 H195 0.931 . S
C168 C165 1.382 1_556 S
C168 C166 1.392 . S
C169 Eu160 2.828 . S
C169 C163 1.506 . S
C169 O181 1.249 . S
C169 O182 1.244 1_554 S
O170 Eu161 2.373 . S
O170 C172 1.258 1_556 S
O171 Eu160 2.392 . S
O171 C172 1.242 . S
C172 O170 1.258 1_554 S
C172 O171 1.242 . S
O173 Eu160 2.418 . S
O173 C177 1.244 . S
O174 Eu161 2.488 . S
O174 C190 1.249 1_556 S
O175 Eu161 2.471 1_554 S
O175 C190 1.244 . S
O176 Eu161 2.349 1_554 S
O176 C177 1.265 . S
C177 O173 1.244 . S
C177 O176 1.265 . S
O178 Eu160 2.373 . S
O178 C191 1.258 . S
O179 Eu161 2.392 . S
O179 C191 1.242 1_556 S
O180 Eu161 2.418 . S
O180 C162 1.244 . S
O181 Eu160 2.488 . S
O181 C169 1.249 . S
O182 Eu160 2.471 1_556 S
O182 C169 1.244 1_556 S
O183 Eu160 2.349 1_556 S
O183 C162 1.265 . S
C184 C185 1.379 . S
C184 C188 1.373 1_554 S
C184 C190 1.505 . S
C185 C184 1.379 . S
C185 C187 1.369 . S
C185 H196 0.930 . S
C186 C188 1.383 . S
C186 C189 1.382 1_556 S
C186 H197 0.930 . S
C187 C185 1.369 . S
C187 C189 1.392 . S
C187 H198 0.930 . S
C188 C184 1.373 1_556 S
C188 C186 1.383 . S
C188 H199 0.931 . S
C189 C186 1.382 1_554 S
C189 C187 1.392 . S
C190 Eu161 2.828 1_554 S
C190 O174 1.249 1_554 S
C190 O175 1.244 . S
C190 C184 1.505 . S
C191 O178 1.258 . S
C191 O179 1.242 1_554 S
H192 C164 0.930 . S
H193 C165 0.930 . S
H194 C166 0.930 . S
H195 C167 0.931 . S
H196 C185 0.930 . S
H197 C186 0.930 . S
H198 C187 0.930 . S
H199 C188 0.931 . S
Eu200 C209 2.828 . S
Eu200 O211 2.392 . S
Eu200 O213 2.418 . S
Eu200 O218 2.373 . S
Eu200 O221 2.488 . S
Eu200 O222 2.471 1_554 S
Eu200 O223 2.349 1_554 S
Eu201 O210 2.373 . S
Eu201 O214 2.488 . S
Eu201 O215 2.471 1_556 S
Eu201 O216 2.349 1_556 S
Eu201 O219 2.392 . S
Eu201 O220 2.418 . S
Eu201 C230 2.828 1_556 S
C202 O220 1.244 . S
C202 O223 1.265 . S
C203 C204 1.384 . S
C203 C207 1.368 1_556 S
C203 C209 1.504 1_556 S
C204 C203 1.384 . S
C204 C206 1.369 . S
C204 H232 0.930 . S
C205 C207 1.383 . S
C205 C208 1.382 1_554 S
C205 H233 0.930 . S
C206 C204 1.369 . S
C206 C208 1.392 . S
C206 H234 0.930 . S
C207 C203 1.368 1_554 S
C207 C205 1.383 . S
C207 H235 0.931 . S
C208 C205 1.382 1_556 S
C208 C206 1.392 . S
C209 Eu200 2.828 . S
C209 C203 1.504 1_554 S
C209 O221 1.249 . S
C209 O222 1.244 1_554 S
O210 Eu201 2.373 . S
O210 C212 1.258 1_556 S
O211 Eu200 2.392 . S
O211 C212 1.242 . S
C212 O210 1.258 1_554 S
C212 O211 1.242 . S
O213 Eu200 2.418 . S
O213 C217 1.244 . S
O214 Eu201 2.488 . S
O214 C230 1.249 1_556 S
O215 Eu201 2.471 1_554 S
O215 C230 1.244 . S
O216 Eu201 2.349 1_554 S
O216 C217 1.265 . S
C217 O213 1.244 . S
C217 O216 1.265 . S
O218 Eu200 2.373 . S
O218 C231 1.258 . S
O219 Eu201 2.392 . S
O219 C231 1.242 1_556 S
O220 Eu201 2.418 . S
O220 C202 1.244 . S
O221 Eu200 2.488 . S
O221 C209 1.249 . S
O222 Eu200 2.471 1_556 S
O222 C209 1.244 1_556 S
O223 Eu200 2.349 1_556 S
O223 C202 1.265 . S
C224 C225 1.379 . S
C224 C228 1.373 1_554 S
C224 C230 1.505 . S
C225 C224 1.379 . S
C225 C227 1.369 . S
C225 H236 0.930 . S
C226 C228 1.383 . S
C226 C229 1.382 1_556 S
C226 H237 0.930 . S
C227 C225 1.369 . S
C227 C229 1.392 . S
C227 H238 0.930 . S
C228 C224 1.373 1_556 S
C228 C226 1.383 . S
C228 H239 0.931 . S
C229 C226 1.382 1_554 S
C229 C227 1.392 . S
C230 Eu201 2.828 1_554 S
C230 O214 1.249 1_554 S
C230 O215 1.244 . S
C230 C224 1.505 . S
C231 O218 1.258 . S
C231 O219 1.242 1_554 S
H232 C204 0.930 . S
H233 C205 0.930 . S
H234 C206 0.930 . S
H235 C207 0.931 . S
H236 C225 0.930 . S
H237 C226 0.930 . S
H238 C227 0.930 . S
H239 C228 0.931 . S
Eu240 C249 2.828 . S
Eu240 O251 2.392 . S
Eu240 O253 2.418 . S
Eu240 O258 2.373 . S
Eu240 O261 2.488 . S
Eu240 O262 2.471 . S
Eu240 O263 2.349 . S
Eu241 O250 2.373 . S
Eu241 O254 2.488 . S
Eu241 O255 2.471 . S
Eu241 O256 2.349 . S
Eu241 O259 2.392 . S
Eu241 O260 2.418 . S
Eu241 C270 2.828 . S
C242 O260 1.244 . S
C242 O263 1.265 . S
C243 C244 1.379 . S
C243 C247 1.373 . S
C243 C249 1.505 . S
C244 C243 1.379 . S
C244 C246 1.369 . S
C244 H272 0.930 . S
C245 C247 1.383 . S
C245 C248 1.382 . S
C245 H273 0.930 . S
C246 C244 1.369 . S
C246 C248 1.392 . S
C246 H274 0.930 . S
C247 C243 1.373 . S
C247 C245 1.383 . S
C247 H275 0.931 . S
C248 C245 1.382 . S
C248 C246 1.392 . S
C249 Eu240 2.828 . S
C249 C243 1.505 . S
C249 O261 1.249 . S
C249 O262 1.244 . S
O250 Eu241 2.373 . S
O250 C252 1.258 . S
O251 Eu240 2.392 . S
O251 C252 1.242 . S
C252 O250 1.258 . S
C252 O251 1.242 . S
O253 Eu240 2.418 . S
O253 C257 1.244 . S
O254 Eu241 2.488 . S
O254 C270 1.249 . S
O255 Eu241 2.471 . S
O255 C270 1.244 . S
O256 Eu241 2.349 . S
O256 C257 1.265 . S
C257 O253 1.244 . S
C257 O256 1.265 . S
O258 Eu240 2.373 . S
O258 C271 1.258 . S
O259 Eu241 2.392 . S
O259 C271 1.242 . S
O260 Eu241 2.418 . S
O260 C242 1.244 . S
O261 Eu240 2.488 . S
O261 C249 1.249 . S
O262 Eu240 2.471 . S
O262 C249 1.244 . S
O263 Eu240 2.349 . S
O263 C242 1.265 . S
C264 C265 1.379 . S
C264 C268 1.373 . S
C264 C270 1.505 . S
C265 C264 1.379 . S
C265 C267 1.369 . S
C265 H276 0.930 . S
C266 C268 1.383 . S
C266 C269 1.382 . S
C266 H277 0.930 . S
C267 C265 1.369 . S
C267 C269 1.392 . S
C267 H278 0.930 . S
C268 C264 1.373 . S
C268 C266 1.383 . S
C268 H279 0.931 . S
C269 C266 1.382 . S
C269 C267 1.392 . S
C270 Eu241 2.828 . S
C270 O254 1.249 . S
C270 O255 1.244 . S
C270 C264 1.505 . S
C271 O258 1.258 . S
C271 O259 1.242 . S
H272 C244 0.930 . S
H273 C245 0.930 . S
H274 C246 0.930 . S
H275 C247 0.931 . S
H276 C265 0.930 . S
H277 C266 0.930 . S
H278 C267 0.930 . S
H279 C268 0.931 . S
Eu280 C289 2.828 . S
Eu280 O291 2.392 . S
Eu280 O293 2.418 . S
Eu280 O298 2.373 . S
Eu280 O301 2.488 . S
Eu280 O302 2.471 . S
Eu280 O303 2.349 . S
Eu281 O290 2.373 . S
Eu281 O294 2.488 . S
Eu281 O295 2.471 . S
Eu281 O296 2.349 . S
Eu281 O299 2.392 . S
Eu281 O300 2.418 . S
Eu281 C310 2.828 . S
C282 O300 1.244 . S
C282 O303 1.265 . S
C283 C284 1.379 . S
C283 C287 1.373 . S
C283 C289 1.505 . S
C284 C283 1.379 . S
C284 C286 1.369 . S
C284 H312 0.930 . S
C285 C287 1.383 . S
C285 C288 1.382 . S
C285 H313 0.930 . S
C286 C284 1.369 . S
C286 C288 1.392 . S
C286 H314 0.930 . S
C287 C283 1.373 . S
C287 C285 1.383 . S
C287 H315 0.931 . S
C288 C285 1.382 . S
C288 C286 1.392 . S
C289 Eu280 2.828 . S
C289 C283 1.505 . S
C289 O301 1.249 . S
C289 O302 1.244 . S
O290 Eu281 2.373 . S
O290 C292 1.258 . S
O291 Eu280 2.392 . S
O291 C292 1.242 . S
C292 O290 1.258 . S
C292 O291 1.242 . S
O293 Eu280 2.418 . S
O293 C297 1.244 . S
O294 Eu281 2.488 . S
O294 C310 1.249 . S
O295 Eu281 2.471 . S
O295 C310 1.244 . S
O296 Eu281 2.349 . S
O296 C297 1.265 . S
C297 O293 1.244 . S
C297 O296 1.265 . S
O298 Eu280 2.373 . S
O298 C311 1.258 . S
O299 Eu281 2.392 . S
O299 C311 1.242 . S
O300 Eu281 2.418 . S
O300 C282 1.244 . S
O301 Eu280 2.488 . S
O301 C289 1.249 . S
O302 Eu280 2.471 . S
O302 C289 1.244 . S
O303 Eu280 2.349 . S
O303 C282 1.265 . S
C304 C305 1.379 . S
C304 C308 1.373 . S
C304 C310 1.505 . S
C305 C304 1.379 . S
C305 C307 1.369 . S
C305 H316 0.930 . S
C306 C308 1.383 . S
C306 C309 1.382 . S
C306 H317 0.930 . S
C307 C305 1.369 . S
C307 C309 1.392 . S
C307 H318 0.930 . S
C308 C304 1.373 . S
C308 C306 1.383 . S
C308 H319 0.931 . S
C309 C306 1.382 . S
C309 C307 1.392 . S
C310 Eu281 2.828 . S
C310 O294 1.249 . S
C310 O295 1.244 . S
C310 C304 1.505 . S
C311 O298 1.258 . S
C311 O299 1.242 . S
H312 C284 0.930 . S
H313 C285 0.930 . S
H314 C286 0.930 . S
H315 C287 0.931 . S
H316 C305 0.930 . S
H317 C306 0.930 . S
H318 C307 0.930 . S
H319 C308 0.931 . S
C320 C321 1.391 . S
C320 C322 1.394 . S
C320 H336 0.931 . S
C321 C320 1.391 . S
C321 C325 1.376 . S
C322 C320 1.394 . S
C322 C323 1.369 . S
C322 C326 1.531 . S
C323 C322 1.369 . S
C323 C324 1.410 . S
C323 C331 1.503 . S
C324 C323 1.410 . S
C324 C325 1.392 . S
C324 C327 1.511 . S
C325 C321 1.376 . S
C325 C324 1.392 . S
C325 H337 0.929 . S
C326 C322 1.531 . S
C326 H338 0.960 . S
C326 H339 0.962 1_554 S
C326 H340 0.960 . S
C327 C324 1.511 . S
C327 H341 0.961 . S
C327 H342 0.961 . S
C327 H343 0.961 . S
C328 C329 1.370 1_556 S
C328 C330 1.363 . S
C328 H344 0.931 . S
C329 C328 1.370 1_554 S
C329 C333 1.408 . S
C330 C328 1.363 . S
C330 C331 1.370 1_556 S
C330 C334 1.524 . S
C331 C323 1.503 . S
C331 C330 1.370 1_554 S
C331 C332 1.403 . S
C332 C331 1.403 . S
C332 C333 1.404 . S
C332 C335 1.539 . S
C333 C329 1.408 . S
C333 C332 1.404 . S
C333 H345 0.930 . S
C334 C330 1.524 . S
C334 H346 0.956 . S
C334 H347 0.961 . S
C334 H348 0.961 . S
C335 C332 1.539 . S
C335 H349 0.958 . S
C335 H350 0.961 . S
C335 H351 0.960 . S
H336 C320 0.931 . S
H337 C325 0.929 . S
H338 C326 0.960 . S
H339 C326 0.962 1_556 S
H340 C326 0.960 . S
H341 C327 0.961 . S
H342 C327 0.961 . S
H343 C327 0.961 . S
H344 C328 0.931 . S
H345 C333 0.930 . S
H346 C334 0.956 . S
H347 C334 0.961 . S
H348 C334 0.961 . S
H349 C335 0.958 . S
H350 C335 0.961 . S
H351 C335 0.960 . S
C352 C353 1.391 . S
C352 C354 1.394 . S
C352 H368 0.931 . S
C353 C352 1.391 . S
C353 C357 1.376 1_554 S
C354 C352 1.394 . S
C354 C355 1.386 . S
C354 C358 1.531 . S
C355 C354 1.386 . S
C355 C356 1.394 1_554 S
C355 C363 1.503 . S
C356 C355 1.394 1_556 S
C356 C357 1.392 . S
C356 C359 1.511 . S
C357 C353 1.376 1_556 S
C357 C356 1.392 . S
C357 H369 0.929 . S
C358 C354 1.531 . S
C358 H370 0.960 . S
C358 H371 0.962 . S
C358 H372 0.960 . S
C359 C356 1.511 . S
C359 H373 0.961 . S
C359 H374 0.961 . S
C359 H375 0.961 . S
C360 C361 1.370 . S
C360 C362 1.363 . S
C360 H376 0.931 . S
C361 C360 1.370 . S
C361 C365 1.408 1_554 S
C362 C360 1.363 . S
C362 C363 1.370 . S
C362 C366 1.524 . S
C363 C355 1.503 . S
C363 C362 1.370 . S
C363 C364 1.403 1_554 S
C364 C363 1.403 1_556 S
C364 C365 1.404 . S
C364 C367 1.539 . S
C365 C361 1.408 1_556 S
C365 C364 1.404 . S
C365 H377 0.930 . S
C366 C362 1.524 . S
C366 H378 0.956 . S
C366 H379 0.961 . S
C366 H380 0.961 . S
C367 C364 1.539 . S
C367 H381 0.958 . S
C367 H382 0.961 . S
C367 H383 0.960 . S
H368 C352 0.931 . S
H369 C357 0.929 . S
H370 C358 0.960 . S
H371 C358 0.962 . S
H372 C358 0.960 . S
H373 C359 0.961 . S
H374 C359 0.961 . S
H375 C359 0.961 . S
H376 C360 0.931 . S
H377 C365 0.930 . S
H378 C366 0.956 . S
H379 C366 0.961 . S
H380 C366 0.961 . S
H381 C367 0.958 . S
H382 C367 0.961 . S
H383 C367 0.960 . S
C384 C385 1.391 . S
C384 C386 1.394 . S
C384 H400 0.931 . S
C385 C384 1.391 . S
C385 C389 1.376 . S
C386 C384 1.394 . S
C386 C387 1.369 . S
C386 C390 1.531 . S
C387 C386 1.369 . S
C387 C388 1.410 . S
C387 C395 1.503 . S
C388 C387 1.410 . S
C388 C389 1.392 . S
C388 C391 1.511 . S
C389 C385 1.376 . S
C389 C388 1.392 . S
C389 H401 0.929 . S
C390 C386 1.531 . S
C390 H402 0.960 . S
C390 H403 0.962 . S
C390 H404 0.960 . S
C391 C388 1.511 . S
C391 H405 0.961 . S
C391 H406 0.961 . S
C391 H407 0.961 . S
C392 C393 1.370 . S
C392 C394 1.363 . S
C392 H408 0.931 . S
C393 C392 1.370 . S
C393 C397 1.408 . S
C394 C392 1.363 . S
C394 C395 1.370 . S
C394 C398 1.524 . S
C395 C387 1.503 . S
C395 C394 1.370 . S
C395 C396 1.403 . S
C396 C395 1.403 . S
C396 C397 1.404 . S
C396 C399 1.539 . S
C397 C393 1.408 . S
C397 C396 1.404 . S
C397 H409 0.930 . S
C398 C394 1.524 . S
C398 H410 0.956 . S
C398 H411 0.961 . S
C398 H412 0.961 . S
C399 C396 1.539 . S
C399 H413 0.958 . S
C399 H414 0.961 . S
C399 H415 0.960 . S
H400 C384 0.931 . S
H401 C389 0.929 . S
H402 C390 0.960 . S
H403 C390 0.962 . S
H404 C390 0.960 . S
H405 C391 0.961 . S
H406 C391 0.961 . S
H407 C391 0.961 . S
H408 C392 0.931 . S
H409 C397 0.930 . S
H410 C398 0.956 . S
H411 C398 0.961 . S
H412 C398 0.961 . S
H413 C399 0.958 . S
H414 C399 0.961 . S
H415 C399 0.960 . S
C416 C417 1.391 . S
C416 C418 1.394 . S
C416 H432 0.931 . S
C417 C416 1.391 . S
C417 C421 1.376 . S
C418 C416 1.394 . S
C418 C419 1.369 . S
C418 C422 1.531 . S
C419 C418 1.369 . S
C419 C420 1.410 . S
C419 C427 1.503 . S
C420 C419 1.410 . S
C420 C421 1.392 . S
C420 C423 1.511 . S
C421 C417 1.376 . S
C421 C420 1.392 . S
C421 H433 0.929 . S
C422 C418 1.531 . S
C422 H434 0.960 . S
C422 H435 0.962 . S
C422 H436 0.960 . S
C423 C420 1.511 . S
C423 H437 0.961 . S
C423 H438 0.961 . S
C423 H439 0.961 . S
C424 C425 1.370 . S
C424 C426 1.363 . S
C424 H440 0.931 . S
C425 C424 1.370 . S
C425 C429 1.408 . S
C426 C424 1.363 . S
C426 C427 1.370 . S
C426 C430 1.524 . S
C427 C419 1.503 . S
C427 C426 1.370 . S
C427 C428 1.403 . S
C428 C427 1.403 . S
C428 C429 1.404 . S
C428 C431 1.539 . S
C429 C425 1.408 . S
C429 C428 1.404 . S
C429 H441 0.930 . S
C430 C426 1.524 . S
C430 H442 0.956 . S
C430 H443 0.961 . S
C430 H444 0.961 . S
C431 C428 1.539 . S
C431 H445 0.958 . S
C431 H446 0.961 . S
C431 H447 0.960 . S
H432 C416 0.931 . S
H433 C421 0.929 . S
H434 C422 0.960 . S
H435 C422 0.962 . S
H436 C422 0.960 . S
H437 C423 0.961 . S
H438 C423 0.961 . S
H439 C423 0.961 . S
H440 C424 0.931 . S
H441 C429 0.930 . S
H442 C430 0.956 . S
H443 C430 0.961 . S
H444 C430 0.961 . S
H445 C431 0.958 . S
H446 C431 0.961 . S
H447 C431 0.960 . S
C448 C449 1.391 . S
C448 C450 1.394 . S
C448 H464 0.931 . S
C449 C448 1.391 . S
C449 C453 1.376 1_554 S
C450 C448 1.394 . S
C450 C451 1.369 1_655 S
C450 C454 1.531 1_655 S
C451 C450 1.369 1_455 S
C451 C452 1.410 1_454 S
C451 C459 1.503 . S
C452 C451 1.410 1_656 S
C452 C453 1.392 . S
C452 C455 1.511 . S
C453 C449 1.376 1_556 S
C453 C452 1.392 . S
C453 H465 0.929 . S
C454 C450 1.531 1_455 S
C454 H466 0.960 . S
C454 H467 0.962 . S
C454 H468 0.960 . S
C455 C452 1.511 . S
C455 H469 0.961 . S
C455 H470 0.961 1_655 S
C455 H471 0.961 1_655 S
C456 C457 1.370 . S
C456 C458 1.363 . S
C456 H472 0.931 . S
C457 C456 1.370 . S
C457 C461 1.408 1_554 S
C458 C456 1.363 . S
C458 C459 1.370 . S
C458 C462 1.524 . S
C459 C451 1.503 . S
C459 C458 1.370 . S
C459 C460 1.403 1_554 S
C460 C459 1.403 1_556 S
C460 C461 1.404 . S
C460 C463 1.539 . S
C461 C457 1.408 1_556 S
C461 C460 1.404 . S
C461 H473 0.930 . S
C462 C458 1.524 . S
C462 H474 0.956 . S
C462 H475 0.961 . S
C462 H476 0.961 . S
C463 C460 1.539 . S
C463 H477 0.958 . S
C463 H478 0.961 . S
C463 H479 0.960 . S
H464 C448 0.931 . S
H465 C453 0.929 . S
H466 C454 0.960 . S
H467 C454 0.962 . S
H468 C454 0.960 . S
H469 C455 0.961 . S
H470 C455 0.961 1_455 S
H471 C455 0.961 1_455 S
H472 C456 0.931 . S
H473 C461 0.930 . S
H474 C462 0.956 . S
H475 C462 0.961 . S
H476 C462 0.961 . S
H477 C463 0.958 . S
H478 C463 0.961 . S
H479 C463 0.960 . S
C480 C481 1.391 1_556 S
C480 C482 1.394 . S
C480 H496 0.931 . S
C481 C480 1.391 1_554 S
C481 C485 1.376 . S
C482 C480 1.394 . S
C482 C483 1.369 1_456 S
C482 C486 1.531 1_455 S
C483 C482 1.369 1_654 S
C483 C484 1.410 1_655 S
C483 C491 1.503 . S
C484 C483 1.410 1_455 S
C484 C485 1.392 . S
C484 C487 1.513 . S
C485 C481 1.376 . S
C485 C484 1.392 . S
C485 H497 0.929 . S
C486 C482 1.531 1_655 S
C486 H498 0.960 . S
C486 H499 0.962 . S
C486 H500 0.960 . S
C487 C484 1.513 . S
C487 H501 0.963 . S
C487 H502 0.957 1_455 S
C487 H503 0.961 . S
C488 C489 1.370 . S
C488 C490 1.363 . S
C488 H504 0.931 . S
C489 C488 1.370 . S
C489 C493 1.408 1_554 S
C490 C488 1.363 . S
C490 C491 1.370 . S
C490 C494 1.524 . S
C491 C483 1.503 . S
C491 C490 1.370 . S
C491 C492 1.403 1_554 S
C492 C491 1.403 1_556 S
C492 C493 1.404 . S
C492 C495 1.539 . S
C493 C489 1.408 1_556 S
C493 C492 1.404 . S
C493 H505 0.930 . S
C494 C490 1.524 . S
C494 H506 0.956 . S
C494 H507 0.961 . S
C494 H508 0.961 . S
C495 C492 1.539 . S
C495 H509 0.958 . S
C495 H510 0.961 . S
C495 H511 0.960 . S
H496 C480 0.931 . S
H497 C485 0.929 . S
H498 C486 0.960 . S
H499 C486 0.962 . S
H500 C486 0.960 . S
H501 C487 0.963 . S
H502 C487 0.957 1_655 S
H503 C487 0.961 . S
H504 C488 0.931 . S
H505 C493 0.930 . S
H506 C494 0.956 . S
H507 C494 0.961 . S
H508 C494 0.961 . S
H509 C495 0.958 . S
H510 C495 0.961 . S
H511 C495 0.960 . S
C512 C513 1.391 . S
C512 C514 1.394 . S
C512 H528 0.931 . S
C513 C512 1.391 . S
C513 C517 1.376 . S
C514 C512 1.394 . S
C514 C515 1.369 . S
C514 C518 1.531 . S
C515 C514 1.369 . S
C515 C516 1.410 . S
C515 C523 1.503 . S
C516 C515 1.410 . S
C516 C517 1.392 . S
C516 C519 1.511 . S
C517 C513 1.376 . S
C517 C516 1.392 . S
C517 H529 0.929 . S
C518 C514 1.531 . S
C518 H530 0.960 . S
C518 H531 0.962 . S
C518 H532 0.960 . S
C519 C516 1.511 . S
C519 H533 0.961 . S
C519 H534 0.961 . S
C519 H535 0.961 . S
C520 C521 1.370 . S
C520 C522 1.363 . S
C520 H536 0.931 . S
C521 C520 1.370 . S
C521 C525 1.408 . S
C522 C520 1.363 . S
C522 C523 1.370 1_655 S
C522 C526 1.524 1_655 S
C523 C515 1.503 . S
C523 C522 1.370 1_455 S
C523 C524 1.403 1_455 S
C524 C523 1.403 1_655 S
C524 C525 1.404 . S
C524 C527 1.543 . S
C525 C521 1.408 . S
C525 C524 1.404 . S
C525 H537 0.930 . S
C526 C522 1.524 1_455 S
C526 H538 0.956 . S
C526 H539 0.961 . S
C526 H540 0.961 . S
C527 C524 1.543 . S
C527 H541 0.956 1_655 S
C527 H542 0.968 . S
C527 H543 0.952 1_655 S
H528 C512 0.931 . S
H529 C517 0.929 . S
H530 C518 0.960 . S
H531 C518 0.962 . S
H532 C518 0.960 . S
H533 C519 0.961 . S
H534 C519 0.961 . S
H535 C519 0.961 . S
H536 C520 0.931 . S
H537 C525 0.930 . S
H538 C526 0.956 . S
H539 C526 0.961 . S
H540 C526 0.961 . S
H541 C527 0.956 1_455 S
H542 C527 0.968 . S
H543 C527 0.952 1_455 S
C544 C545 1.391 . S
C544 C546 1.394 . S
C544 H560 0.931 . S
C545 C544 1.391 . S
C545 C549 1.376 . S
C546 C544 1.394 . S
C546 C547 1.369 . S
C546 C550 1.531 . S
C547 C546 1.369 . S
C547 C548 1.410 . S
C547 C555 1.503 . S
C548 C547 1.410 . S
C548 C549 1.392 . S
C548 C551 1.511 . S
C549 C545 1.376 . S
C549 C548 1.392 . S
C549 H561 0.929 . S
C550 C546 1.531 . S
C550 H562 0.960 . S
C550 H563 0.962 . S
C550 H564 0.960 . S
C551 C548 1.511 . S
C551 H565 0.961 . S
C551 H566 0.961 . S
C551 H567 0.961 . S
C552 C553 1.370 . S
C552 C554 1.363 . S
C552 H568 0.931 . S
C553 C552 1.370 . S
C553 C557 1.408 . S
C554 C552 1.363 . S
C554 C555 1.370 1_455 S
C554 C558 1.524 1_455 S
C555 C547 1.503 . S
C555 C554 1.370 1_655 S
C555 C556 1.403 1_655 S
C556 C555 1.403 1_455 S
C556 C557 1.404 . S
C556 C559 1.539 . S
C557 C553 1.408 . S
C557 C556 1.404 . S
C557 H569 0.930 . S
C558 C554 1.524 1_655 S
C558 H570 0.956 . S
C558 H571 0.961 . S
C558 H572 0.961 . S
C559 C556 1.539 . S
C559 H573 0.958 1_455 S
C559 H574 0.961 . S
C559 H575 0.960 1_455 S
H560 C544 0.931 . S
H561 C549 0.929 . S
H562 C550 0.960 . S
H563 C550 0.962 . S
H564 C550 0.960 . S
H565 C551 0.961 . S
H566 C551 0.961 . S
H567 C551 0.961 . S
H568 C552 0.931 . S
H569 C557 0.930 . S
H570 C558 0.956 . S
H571 C558 0.961 . S
H572 C558 0.961 . S
H573 C559 0.958 1_655 S
H574 C559 0.961 . S
H575 C559 0.960 1_655 S
C576 C577 1.391 1_554 S
C576 C578 1.394 . S
C576 H592 0.931 . S
C577 C576 1.391 1_556 S
C577 C581 1.376 . S
C578 C576 1.394 . S
C578 C579 1.369 . S
C578 C582 1.531 . S
C579 C578 1.369 . S
C579 C580 1.410 1_454 S
C579 C587 1.503 1_455 S
C580 C579 1.410 1_656 S
C580 C581 1.392 1_655 S
C580 C583 1.511 . S
C581 C577 1.376 . S
C581 C580 1.392 1_455 S
C581 H593 0.929 1_455 S
C582 C578 1.531 . S
C582 H594 0.960 . S
C582 H595 0.962 . S
C582 H596 0.960 . S
C583 C580 1.511 . S
C583 H597 0.961 . S
C583 H598 0.961 . S
C583 H599 0.961 . S
C584 C585 1.370 1_556 S
C584 C586 1.363 . S
C584 H600 0.931 . S
C585 C584 1.370 1_554 S
C585 C589 1.408 . S
C586 C584 1.363 . S
C586 C587 1.370 1_556 S
C586 C590 1.524 1_655 S
C587 C579 1.503 1_655 S
C587 C586 1.370 1_554 S
C587 C588 1.403 . S
C588 C587 1.403 . S
C588 C589 1.404 . S
C588 C591 1.539 . S
C589 C585 1.408 . S
C589 C588 1.404 . S
C589 H601 0.930 . S
C590 C586 1.524 1_455 S
C590 H602 0.956 . S
C590 H603 0.961 . S
C590 H604 0.961 . S
C591 C588 1.539 . S
C591 H605 0.958 . S
C591 H606 0.961 . S
C591 H607 0.960 . S
H592 C576 0.931 . S
H593 C581 0.929 1_655 S
H594 C582 0.960 . S
H595 C582 0.962 . S
H596 C582 0.960 . S
H597 C583 0.961 . S
H598 C583 0.961 . S
H599 C583 0.961 . S
H600 C584 0.931 . S
H601 C589 0.930 . S
H602 C590 0.956 . S
H603 C590 0.961 . S
H604 C590 0.961 . S
H605 C591 0.958 . S
H606 C591 0.961 . S
H607 C591 0.960 . S
C608 C609 1.391 . S
C608 C610 1.394 . S
C608 H624 0.931 . S
C609 C608 1.391 . S
C609 C613 1.376 . S
C610 C608 1.394 . S
C610 C611 1.369 . S
C610 C614 1.531 . S
C611 C610 1.369 . S
C611 C612 1.410 1_455 S
C611 C619 1.503 1_455 S
C612 C611 1.410 1_655 S
C612 C613 1.392 1_655 S
C612 C615 1.511 . S
C613 C609 1.376 . S
C613 C612 1.392 1_455 S
C613 H625 0.929 1_455 S
C614 C610 1.531 . S
C614 H626 0.960 . S
C614 H627 0.962 . S
C614 H628 0.960 . S
C615 C612 1.511 . S
C615 H629 0.961 . S
C615 H630 0.961 . S
C615 H631 0.961 . S
C616 C617 1.370 . S
C616 C618 1.363 . S
C616 H632 0.931 . S
C617 C616 1.370 . S
C617 C621 1.408 . S
C618 C616 1.363 . S
C618 C619 1.370 . S
C618 C622 1.524 1_655 S
C619 C611 1.503 1_655 S
C619 C618 1.370 . S
C619 C620 1.403 . S
C620 C619 1.403 . S
C620 C621 1.404 . S
C620 C623 1.539 . S
C621 C617 1.408 . S
C621 C620 1.404 . S
C621 H633 0.930 . S
C622 C618 1.524 1_455 S
C622 H634 0.956 . S
C622 H635 0.961 . S
C622 H636 0.961 . S
C623 C620 1.539 . S
C623 H637 0.958 . S
C623 H638 0.961 . S
C623 H639 0.960 . S
H624 C608 0.931 . S
H625 C613 0.929 1_655 S
H626 C614 0.960 . S
H627 C614 0.962 . S
H628 C614 0.960 . S
H629 C615 0.961 . S
H630 C615 0.961 . S
H631 C615 0.961 . S
H632 C616 0.931 . S
H633 C621 0.930 . S
H634 C622 0.956 . S
H635 C622 0.961 . S
H636 C622 0.961 . S
H637 C623 0.958 . S
H638 C623 0.961 . S
H639 C623 0.960 . S
C640 C641 1.391 1_556 S
C640 C642 1.394 . S
C640 H656 0.931 . S
C641 C640 1.391 1_554 S
C641 C645 1.376 . S
C642 C640 1.394 . S
C642 C643 1.369 1_556 S
C642 C646 1.531 . S
C643 C642 1.369 1_554 S
C643 C644 1.410 . S
C643 C651 1.503 1_564 S
C644 C643 1.410 . S
C644 C645 1.392 . S
C644 C647 1.511 1_565 S
C645 C641 1.376 . S
C645 C644 1.392 . S
C645 H657 0.929 . S
C646 C642 1.531 . S
C646 H658 0.960 . S
C646 H659 0.962 . S
C646 H660 0.960 . S
C647 C644 1.511 1_545 S
C647 H661 0.961 . S
C647 H662 0.961 . S
C647 H663 0.961 . S
C648 C649 1.370 1_554 S
C648 C650 1.363 . S
C648 H664 0.931 . S
C649 C648 1.370 1_556 S
C649 C653 1.408 . S
C650 C648 1.363 . S
C650 C651 1.370 1_554 S
C650 C654 1.560 . S
C651 C643 1.503 1_546 S
C651 C650 1.370 1_556 S
C651 C652 1.403 . S
C652 C651 1.403 . S
C652 C653 1.404 . S
C652 C655 1.539 . S
C653 C649 1.408 . S
C653 C652 1.404 . S
C653 H665 0.930 . S
C654 C650 1.560 . S
C654 H666 0.910 1_545 S
C654 H667 0.949 1_545 S
C654 H668 0.987 . S
C655 C652 1.539 . S
C655 H669 0.958 . S
C655 H670 0.961 . S
C655 H671 0.960 . S
H656 C640 0.931 . S
H657 C645 0.929 . S
H658 C646 0.960 . S
H659 C646 0.962 . S
H660 C646 0.960 . S
H661 C647 0.961 . S
H662 C647 0.961 . S
H663 C647 0.961 . S
H664 C648 0.931 . S
H665 C653 0.930 . S
H666 C654 0.910 1_565 S
H667 C654 0.949 1_565 S
H668 C654 0.987 . S
H669 C655 0.958 . S
H670 C655 0.961 . S
H671 C655 0.960 . S
C672 C673 1.391 . S
C672 C674 1.394 . S
C672 H688 0.931 . S
C673 C672 1.391 . S
C673 C677 1.376 . S
C674 C672 1.394 . S
C674 C675 1.369 . S
C674 C678 1.531 . S
C675 C674 1.369 . S
C675 C676 1.410 . S
C675 C683 1.503 1_545 S
C676 C675 1.410 . S
C676 C677 1.392 . S
C676 C679 1.511 1_545 S
C677 C673 1.376 . S
C677 C676 1.392 . S
C677 H689 0.929 . S
C678 C674 1.531 . S
C678 H690 0.960 . S
C678 H691 0.962 . S
C678 H692 0.960 . S
C679 C676 1.511 1_565 S
C679 H693 0.948 1_565 S
C679 H694 0.961 . S
C679 H695 0.961 . S
C680 C681 1.370 . S
C680 C682 1.363 . S
C680 H696 0.931 . S
C681 C680 1.370 . S
C681 C685 1.408 . S
C682 C680 1.363 . S
C682 C683 1.370 . S
C682 C686 1.524 1_565 S
C683 C675 1.503 1_565 S
C683 C682 1.370 . S
C683 C684 1.403 . S
C684 C683 1.403 . S
C684 C685 1.404 . S
C684 C687 1.539 . S
C685 C681 1.408 . S
C685 C684 1.404 . S
C685 H697 0.930 . S
C686 C682 1.524 1_545 S
C686 H698 0.956 . S
C686 H699 0.961 . S
C686 H700 0.946 1_545 S
C687 C684 1.539 . S
C687 H701 0.958 . S
C687 H702 0.961 . S
C687 H703 0.960 . S
H688 C672 0.931 . S
H689 C677 0.929 . S
H690 C678 0.960 . S
H691 C678 0.962 . S
H692 C678 0.960 . S
H693 C679 0.948 1_545 S
H694 C679 0.961 . S
H695 C679 0.961 . S
H696 C680 0.931 . S
H697 C685 0.930 . S
H698 C686 0.956 . S
H699 C686 0.961 . S
H700 C686 0.946 1_565 S
H701 C687 0.958 . S
H702 C687 0.961 . S
H703 C687 0.960 . S
C704 C705 1.391 1_554 S
C704 C706 1.394 . S
C704 H720 0.931 . S
C705 C704 1.391 1_556 S
C705 C709 1.376 . S
C706 C704 1.394 . S
C706 C707 1.369 . S
C706 C710 1.531 . S
C707 C706 1.369 . S
C707 C708 1.410 1_554 S
C707 C715 1.503 . S
C708 C707 1.410 1_556 S
C708 C709 1.392 . S
C708 C711 1.511 . S
C709 C705 1.376 . S
C709 C708 1.392 . S
C709 H721 0.929 . S
C710 C706 1.531 . S
C710 H722 0.960 . S
C710 H723 0.962 . S
C710 H724 0.960 . S
C711 C708 1.511 . S
C711 H725 0.961 . S
C711 H726 0.961 . S
C711 H727 0.961 1_556 S
C712 C713 1.370 1_556 S
C712 C714 1.363 . S
C712 H728 0.931 . S
C713 C712 1.370 1_554 S
C713 C717 1.408 . S
C714 C712 1.363 . S
C714 C715 1.370 1_556 S
C714 C718 1.524 . S
C715 C707 1.503 . S
C715 C714 1.370 1_554 S
C715 C716 1.403 . S
C716 C715 1.403 . S
C716 C717 1.404 . S
C716 C719 1.539 . S
C717 C713 1.408 . S
C717 C716 1.404 . S
C717 H729 0.930 . S
C718 C714 1.524 . S
C718 H730 0.956 . S
C718 H731 0.961 . S
C718 H732 0.961 . S
C719 C716 1.539 . S
C719 H733 0.958 . S
C719 H734 0.961 . S
C719 H735 0.960 . S
H720 C704 0.931 . S
H721 C709 0.929 . S
H722 C710 0.960 . S
H723 C710 0.962 . S
H724 C710 0.960 . S
H725 C711 0.961 . S
H726 C711 0.961 . S
H727 C711 0.961 1_554 S
H728 C712 0.931 . S
H729 C717 0.930 . S
H730 C718 0.956 . S
H731 C718 0.961 . S
H732 C718 0.961 . S
H733 C719 0.958 . S
H734 C719 0.961 . S
H735 C719 0.960 . S
C736 C737 1.391 . S
C736 C738 1.394 . S
C736 H752 0.931 . S
C737 C736 1.391 . S
C737 C741 1.376 1_556 S
C738 C736 1.394 . S
C738 C739 1.369 . S
C738 C742 1.531 . S
C739 C738 1.369 . S
C739 C740 1.410 1_556 S
C739 C747 1.503 1_556 S
C740 C739 1.410 1_554 S
C740 C741 1.392 . S
C740 C743 1.511 . S
C741 C737 1.376 1_554 S
C741 C740 1.392 . S
C741 H753 0.929 . S
C742 C738 1.531 . S
C742 H754 0.960 . S
C742 H755 0.962 . S
C742 H756 0.960 . S
C743 C740 1.511 . S
C743 H757 0.961 . S
C743 H758 0.961 . S
C743 H759 0.961 1_554 S
C744 C745 1.370 . S
C744 C746 1.363 . S
C744 H760 0.931 . S
C745 C744 1.370 . S
C745 C749 1.408 1_554 S
C746 C744 1.363 . S
C746 C747 1.370 . S
C746 C750 1.524 . S
C747 C739 1.503 1_554 S
C747 C746 1.370 . S
C747 C748 1.403 1_554 S
C748 C747 1.403 1_556 S
C748 C749 1.404 . S
C748 C751 1.539 . S
C749 C745 1.408 1_556 S
C749 C748 1.404 . S
C749 H761 0.930 . S
C750 C746 1.524 . S
C750 H762 0.956 . S
C750 H763 0.961 . S
C750 H764 0.961 . S
C751 C748 1.539 . S
C751 H765 0.958 . S
C751 H766 0.961 . S
C751 H767 0.960 . S
H752 C736 0.931 . S
H753 C741 0.929 . S
H754 C742 0.960 . S
H755 C742 0.962 . S
H756 C742 0.960 . S
H757 C743 0.961 . S
H758 C743 0.961 . S
H759 C743 0.961 1_556 S
H760 C744 0.931 . S
H761 C749 0.930 . S
H762 C750 0.956 . S
H763 C750 0.961 . S
H764 C750 0.961 . S
H765 C751 0.958 . S
H766 C751 0.961 . S
H767 C751 0.960 . S
C768 C769 1.391 . S
C768 C770 1.394 . S
C768 H784 0.931 . S
C769 C768 1.391 . S
C769 C773 1.376 . S
C770 C768 1.394 . S
C770 C771 1.369 . S
C770 C774 1.531 . S
C771 C770 1.369 . S
C771 C772 1.410 . S
C771 C779 1.503 . S
C772 C771 1.410 . S
C772 C773 1.392 . S
C772 C775 1.511 . S
C773 C769 1.376 . S
C773 C772 1.392 . S
C773 H785 0.929 . S
C774 C770 1.531 . S
C774 H786 0.960 . S
C774 H787 0.962 . S
C774 H788 0.960 . S
C775 C772 1.511 . S
C775 H789 0.961 . S
C775 H790 0.961 . S
C775 H791 0.961 . S
C776 C777 1.370 . S
C776 C778 1.363 . S
C776 H792 0.931 . S
C777 C776 1.370 . S
C777 C781 1.408 . S
C778 C776 1.363 . S
C778 C779 1.370 . S
C778 C782 1.524 . S
C779 C771 1.503 . S
C779 C778 1.370 . S
C779 C780 1.403 . S
C780 C779 1.403 . S
C780 C781 1.404 . S
C780 C783 1.539 . S
C781 C777 1.408 . S
C781 C780 1.404 . S
C781 H793 0.930 . S
C782 C778 1.524 . S
C782 H794 0.956 . S
C782 H795 0.961 . S
C782 H796 0.961 . S
C783 C780 1.539 . S
C783 H797 0.958 . S
C783 H798 0.961 . S
C783 H799 0.960 . S
H784 C768 0.931 . S
H785 C773 0.929 . S
H786 C774 0.960 . S
H787 C774 0.962 . S
H788 C774 0.960 . S
H789 C775 0.961 . S
H790 C775 0.961 . S
H791 C775 0.961 . S
H792 C776 0.931 . S
H793 C781 0.930 . S
H794 C782 0.956 . S
H795 C782 0.961 . S
H796 C782 0.961 . S
H797 C783 0.958 . S
H798 C783 0.961 . S
H799 C783 0.960 . S
C800 C801 1.391 . S
C800 C802 1.394 . S
C800 H816 0.931 . S
C801 C800 1.391 . S
C801 C805 1.376 . S
C802 C800 1.394 . S
C802 C803 1.369 . S
C802 C806 1.531 . S
C803 C802 1.369 . S
C803 C804 1.410 . S
C803 C811 1.503 . S
C804 C803 1.410 . S
C804 C805 1.392 . S
C804 C807 1.511 . S
C805 C801 1.376 . S
C805 C804 1.392 . S
C805 H817 0.929 . S
C806 C802 1.531 . S
C806 H818 0.960 . S
C806 H819 0.962 . S
C806 H820 0.960 . S
C807 C804 1.511 . S
C807 H821 0.961 . S
C807 H822 0.961 . S
C807 H823 0.961 . S
C808 C809 1.370 . S
C808 C810 1.363 . S
C808 H824 0.931 . S
C809 C808 1.370 . S
C809 C813 1.408 . S
C810 C808 1.363 . S
C810 C811 1.370 . S
C810 C814 1.524 . S
C811 C803 1.503 . S
C811 C810 1.370 . S
C811 C812 1.403 . S
C812 C811 1.403 . S
C812 C813 1.404 . S
C812 C815 1.539 . S
C813 C809 1.408 . S
C813 C812 1.404 . S
C813 H825 0.930 . S
C814 C810 1.524 . S
C814 H826 0.956 . S
C814 H827 0.961 . S
C814 H828 0.961 . S
C815 C812 1.539 . S
C815 H829 0.958 . S
C815 H830 0.961 . S
C815 H831 0.960 . S
H816 C800 0.931 . S
H817 C805 0.929 . S
H818 C806 0.960 . S
H819 C806 0.962 . S
H820 C806 0.960 . S
H821 C807 0.961 . S
H822 C807 0.961 . S
H823 C807 0.961 . S
H824 C808 0.931 . S
H825 C813 0.930 . S
H826 C814 0.956 . S
H827 C814 0.961 . S
H828 C814 0.961 . S
H829 C815 0.958 . S
H830 C815 0.961 . S
H831 C815 0.960 . S
C832 C833 1.391 1_655 S
C832 C834 1.394 . S
C832 H848 0.931 . S
C833 C832 1.391 1_455 S
C833 C837 1.376 . S
C834 C832 1.394 . S
C834 C835 1.369 1_655 S
C834 C838 1.531 . S
C835 C834 1.369 1_455 S
C835 C836 1.410 . S
C835 C843 1.503 1_455 S
C836 C835 1.410 . S
C836 C837 1.392 . S
C836 C839 1.511 . S
C837 C833 1.376 . S
C837 C836 1.392 . S
C837 H849 0.929 . S
C838 C834 1.531 . S
C838 H850 0.960 . S
C838 H851 0.962 . S
C838 H852 0.960 . S
C839 C836 1.511 . S
C839 H853 0.961 . S
C839 H854 0.961 . S
C839 H855 0.961 . S
C840 C841 1.370 . S
C840 C842 1.363 . S
C840 H856 0.931 . S
C841 C840 1.370 . S
C841 C845 1.408 . S
C842 C840 1.363 . S
C842 C843 1.370 . S
C842 C846 1.524 . S
C843 C835 1.503 1_655 S
C843 C842 1.370 . S
C843 C844 1.403 . S
C844 C843 1.403 . S
C844 C845 1.404 . S
C844 C847 1.539 . S
C845 C841 1.408 . S
C845 C844 1.404 . S
C845 H857 0.930 . S
C846 C842 1.524 . S
C846 H858 0.956 . S
C846 H859 0.961 1_655 S
C846 H860 0.961 . S
C847 C844 1.539 . S
C847 H861 0.958 . S
C847 H862 0.961 1_655 S
C847 H863 0.960 1_655 S
H848 C832 0.931 . S
H849 C837 0.929 . S
H850 C838 0.960 . S
H851 C838 0.962 . S
H852 C838 0.960 . S
H853 C839 0.961 . S
H854 C839 0.961 . S
H855 C839 0.961 . S
H856 C840 0.931 . S
H857 C845 0.930 . S
H858 C846 0.956 . S
H859 C846 0.961 1_455 S
H860 C846 0.961 . S
H861 C847 0.958 . S
H862 C847 0.961 1_455 S
H863 C847 0.960 1_455 S
C864 C865 1.391 1_455 S
C864 C866 1.394 . S
C864 H880 0.931 . S
C865 C864 1.391 1_655 S
C865 C869 1.376 . S
C866 C864 1.394 . S
C866 C867 1.369 1_455 S
C866 C870 1.531 . S
C867 C866 1.369 1_655 S
C867 C868 1.410 . S
C867 C875 1.503 1_655 S
C868 C867 1.410 . S
C868 C869 1.392 . S
C868 C871 1.511 . S
C869 C865 1.376 . S
C869 C868 1.392 . S
C869 H881 0.929 . S
C870 C866 1.531 . S
C870 H882 0.960 . S
C870 H883 0.962 . S
C870 H884 0.960 . S
C871 C868 1.511 . S
C871 H885 0.961 . S
C871 H886 0.961 . S
C871 H887 0.961 . S
C872 C873 1.370 . S
C872 C874 1.363 . S
C872 H888 0.931 . S
C873 C872 1.370 . S
C873 C877 1.408 . S
C874 C872 1.363 . S
C874 C875 1.370 . S
C874 C878 1.524 . S
C875 C867 1.503 1_455 S
C875 C874 1.370 . S
C875 C876 1.404 . S
C876 C875 1.404 . S
C876 C877 1.406 . S
C876 C879 1.535 1_455 S
C877 C873 1.408 . S
C877 C876 1.406 . S
C877 H889 0.930 . S
C878 C874 1.524 . S
C878 H890 0.956 . S
C878 H891 0.961 1_455 S
C878 H892 0.961 . S
C879 C876 1.535 1_655 S
C879 H893 0.958 1_655 S
C879 H894 0.961 . S
C879 H895 0.960 . S
H880 C864 0.931 . S
H881 C869 0.929 . S
H882 C870 0.960 . S
H883 C870 0.962 . S
H884 C870 0.960 . S
H885 C871 0.961 . S
H886 C871 0.961 . S
H887 C871 0.961 . S
H888 C872 0.931 . S
H889 C877 0.930 . S
H890 C878 0.956 . S
H891 C878 0.961 1_655 S
H892 C878 0.961 . S
H893 C879 0.958 1_455 S
H894 C879 0.961 . S
H895 C879 0.960 . S
C896 C897 1.391 . S
C896 C898 1.394 . S
C896 H912 0.931 . S
C897 C896 1.391 . S
C897 C901 1.376 1_655 S
C898 C896 1.394 . S
C898 C899 1.369 . S
C898 C902 1.531 . S
C899 C898 1.369 . S
C899 C900 1.410 1_655 S
C899 C907 1.503 1_655 S
C900 C899 1.410 1_455 S
C900 C901 1.392 . S
C900 C903 1.511 . S
C901 C897 1.376 1_455 S
C901 C900 1.392 . S
C901 H913 0.929 . S
C902 C898 1.531 . S
C902 H914 0.960 . S
C902 H915 0.962 . S
C902 H916 0.960 . S
C903 C900 1.511 . S
C903 H917 0.961 . S
C903 H918 0.961 . S
C903 H919 0.961 . S
C904 C905 1.370 . S
C904 C906 1.363 . S
C904 H920 0.931 . S
C905 C904 1.370 . S
C905 C909 1.408 . S
C906 C904 1.363 . S
C906 C907 1.370 . S
C906 C910 1.524 . S
C907 C899 1.503 1_455 S
C907 C906 1.370 . S
C907 C908 1.403 . S
C908 C907 1.403 . S
C908 C909 1.404 . S
C908 C911 1.539 . S
C909 C905 1.408 . S
C909 C908 1.404 . S
C909 H921 0.930 . S
C910 C906 1.524 . S
C910 H922 0.956 1_455 S
C910 H923 0.961 . S
C910 H924 0.961 . S
C911 C908 1.539 . S
C911 H925 0.958 1_455 S
C911 H926 0.961 . S
C911 H927 0.960 . S
H912 C896 0.931 . S
H913 C901 0.929 . S
H914 C902 0.960 . S
H915 C902 0.962 . S
H916 C902 0.960 . S
H917 C903 0.961 . S
H918 C903 0.961 . S
H919 C903 0.961 . S
H920 C904 0.931 . S
H921 C909 0.930 . S
H922 C910 0.956 1_655 S
H923 C910 0.961 . S
H924 C910 0.961 . S
H925 C911 0.958 1_655 S
H926 C911 0.961 . S
H927 C911 0.960 . S
C928 C929 1.391 . S
C928 C930 1.394 . S
C928 H944 0.931 . S
C929 C928 1.391 . S
C929 C933 1.376 1_655 S
C930 C928 1.394 . S
C930 C931 1.369 . S
C930 C934 1.531 . S
C931 C930 1.369 . S
C931 C932 1.410 1_655 S
C931 C939 1.503 1_655 S
C932 C931 1.410 1_455 S
C932 C933 1.392 . S
C932 C935 1.511 . S
C933 C929 1.376 1_455 S
C933 C932 1.392 . S
C933 H945 0.929 . S
C934 C930 1.531 . S
C934 H946 0.960 . S
C934 H947 0.962 . S
C934 H948 0.960 . S
C935 C932 1.511 . S
C935 H949 0.961 . S
C935 H950 0.961 . S
C935 H951 0.961 . S
C936 C937 1.370 . S
C936 C938 1.363 1_455 S
C936 H952 0.931 1_455 S
C937 C936 1.370 . S
C937 C941 1.408 . S
C938 C936 1.363 1_655 S
C938 C939 1.370 1_655 S
C938 C942 1.524 . S
C939 C931 1.503 1_455 S
C939 C938 1.370 1_455 S
C939 C940 1.403 . S
C940 C939 1.403 . S
C940 C941 1.404 . S
C940 C943 1.539 . S
C941 C937 1.408 . S
C941 C940 1.404 . S
C941 H953 0.930 . S
C942 C938 1.524 . S
C942 H954 0.956 . S
C942 H955 0.961 . S
C942 H956 0.961 . S
C943 C940 1.539 . S
C943 H957 0.958 . S
C943 H958 0.961 . S
C943 H959 0.960 . S
H944 C928 0.931 . S
H945 C933 0.929 . S
H946 C934 0.960 . S
H947 C934 0.962 . S
H948 C934 0.960 . S
H949 C935 0.961 . S
H950 C935 0.961 . S
H951 C935 0.961 . S
H952 C936 0.931 1_655 S
H953 C941 0.930 . S
H954 C942 0.956 . S
H955 C942 0.961 . S
H956 C942 0.961 . S
H957 C943 0.958 . S
H958 C943 0.961 . S
H959 C943 0.960 . S
C960 C961 1.391 . S
C960 C962 1.394 . S
C960 H976 0.931 . S
C961 C960 1.391 . S
C961 C965 1.376 . S
C962 C960 1.394 . S
C962 C963 1.369 . S
C962 C966 1.531 . S
C963 C962 1.369 . S
C963 C964 1.410 . S
C963 C971 1.503 . S
C964 C963 1.410 . S
C964 C965 1.392 . S
C964 C967 1.511 . S
C965 C961 1.376 . S
C965 C964 1.392 . S
C965 H977 0.929 . S
C966 C962 1.531 . S
C966 H978 0.960 . S
C966 H979 0.962 . S
C966 H980 0.960 . S
C967 C964 1.511 . S
C967 H981 0.961 . S
C967 H982 0.961 . S
C967 H983 0.961 . S
C968 C969 1.370 . S
C968 C970 1.363 . S
C968 H984 0.931 . S
C969 C968 1.370 . S
C969 C973 1.408 . S
C970 C968 1.363 . S
C970 C971 1.370 . S
C970 C974 1.524 . S
C971 C963 1.503 . S
C971 C970 1.370 . S
C971 C972 1.403 . S
C972 C971 1.403 . S
C972 C973 1.404 . S
C972 C975 1.539 . S
C973 C969 1.408 . S
C973 C972 1.404 . S
C973 H985 0.930 . S
C974 C970 1.524 . S
C974 H986 0.956 . S
C974 H987 0.961 . S
C974 H988 0.961 . S
C975 C972 1.539 . S
C975 H989 0.958 . S
C975 H990 0.961 . S
C975 H991 0.960 . S
H976 C960 0.931 . S
H977 C965 0.929 . S
H978 C966 0.960 . S
H979 C966 0.962 . S
H980 C966 0.960 . S
H981 C967 0.961 . S
H982 C967 0.961 . S
H983 C967 0.961 . S
H984 C968 0.931 . S
H985 C973 0.930 . S
H986 C974 0.956 . S
H987 C974 0.961 . S
H988 C974 0.961 . S
H989 C975 0.958 . S
H990 C975 0.961 . S
H991 C975 0.960 . S
C992 C993 1.391 . S
C992 C994 1.394 . S
C992 H1008 0.931 . S
C993 C992 1.391 . S
C993 C997 1.376 . S
C994 C992 1.394 . S
C994 C995 1.369 . S
C994 C998 1.531 . S
C995 C994 1.369 . S
C995 C996 1.410 . S
C995 C1003 1.503 . S
C996 C995 1.410 . S
C996 C997 1.392 . S
C996 C999 1.511 . S
C997 C993 1.376 . S
C997 C996 1.392 . S
C997 H1009 0.929 . S
C998 C994 1.531 . S
C998 H1010 0.960 . S
C998 H1011 0.962 . S
C998 H1012 0.960 . S
C999 C996 1.511 . S
C999 H1013 0.961 . S
C999 H1014 0.961 . S
C999 H1015 0.961 . S
C1000 C1001 1.370 . S
C1000 C1002 1.363 . S
C1000 H1016 0.931 . S
C1001 C1000 1.370 . S
C1001 C1005 1.408 . S
C1002 C1000 1.363 . S
C1002 C1003 1.370 . S
C1002 C1006 1.524 . S
C1003 C995 1.503 . S
C1003 C1002 1.370 . S
C1003 C1004 1.403 . S
C1004 C1003 1.403 . S
C1004 C1005 1.404 . S
C1004 C1007 1.539 . S
C1005 C1001 1.408 . S
C1005 C1004 1.404 . S
C1005 H1017 0.930 . S
C1006 C1002 1.524 . S
C1006 H1018 0.956 . S
C1006 H1019 0.961 . S
C1006 H1020 0.961 . S
C1007 C1004 1.539 . S
C1007 H1021 0.958 . S
C1007 H1022 0.961 . S
C1007 H1023 0.960 . S
H1008 C992 0.931 . S
H1009 C997 0.929 . S
H1010 C998 0.960 . S
H1011 C998 0.962 . S
H1012 C998 0.960 . S
H1013 C999 0.961 . S
H1014 C999 0.961 . S
H1015 C999 0.961 . S
H1016 C1000 0.931 . S
H1017 C1005 0.930 . S
H1018 C1006 0.956 . S
H1019 C1006 0.961 . S
H1020 C1006 0.961 . S
H1021 C1007 0.958 . S
H1022 C1007 0.961 . S
H1023 C1007 0.960 . S
C1024 C1025 1.391 . S
C1024 C1026 1.394 . S
C1024 H1040 0.931 . S
C1025 C1024 1.391 . S
C1025 C1029 1.376 . S
C1026 C1024 1.394 . S
C1026 C1027 1.369 . S
C1026 C1030 1.531 . S
C1027 C1026 1.369 . S
C1027 C1028 1.410 . S
C1027 C1035 1.503 . S
C1028 C1027 1.410 . S
C1028 C1029 1.392 . S
C1028 C1031 1.511 . S
C1029 C1025 1.376 . S
C1029 C1028 1.392 . S
C1029 H1041 0.929 . S
C1030 C1026 1.531 . S
C1030 H1042 0.960 . S
C1030 H1043 0.962 . S
C1030 H1044 0.960 . S
C1031 C1028 1.511 . S
C1031 H1045 0.961 . S
C1031 H1046 0.961 . S
C1031 H1047 0.961 . S
C1032 C1033 1.370 . S
C1032 C1034 1.363 . S
C1032 H1048 0.931 . S
C1033 C1032 1.370 . S
C1033 C1037 1.408 . S
C1034 C1032 1.363 . S
C1034 C1035 1.370 . S
C1034 C1038 1.524 . S
C1035 C1027 1.503 . S
C1035 C1034 1.370 . S
C1035 C1036 1.403 . S
C1036 C1035 1.403 . S
C1036 C1037 1.404 . S
C1036 C1039 1.539 . S
C1037 C1033 1.408 . S
C1037 C1036 1.404 . S
C1037 H1049 0.930 . S
C1038 C1034 1.524 . S
C1038 H1050 0.956 . S
C1038 H1051 0.961 . S
C1038 H1052 0.961 . S
C1039 C1036 1.539 . S
C1039 H1053 0.958 . S
C1039 H1054 0.961 . S
C1039 H1055 0.960 . S
H1040 C1024 0.931 . S
H1041 C1029 0.929 . S
H1042 C1030 0.960 . S
H1043 C1030 0.962 . S
H1044 C1030 0.960 . S
H1045 C1031 0.961 . S
H1046 C1031 0.961 . S
H1047 C1031 0.961 . S
H1048 C1032 0.931 . S
H1049 C1037 0.930 . S
H1050 C1038 0.956 . S
H1051 C1038 0.961 . S
H1052 C1038 0.961 . S
H1053 C1039 0.958 . S
H1054 C1039 0.961 . S
H1055 C1039 0.960 . S
C1056 C1057 1.391 . S
C1056 C1058 1.394 . S
C1056 H1072 0.931 . S
C1057 C1056 1.391 . S
C1057 C1061 1.376 . S
C1058 C1056 1.394 . S
C1058 C1059 1.369 . S
C1058 C1062 1.531 . S
C1059 C1058 1.369 . S
C1059 C1060 1.410 . S
C1059 C1067 1.503 . S
C1060 C1059 1.410 . S
C1060 C1061 1.392 . S
C1060 C1063 1.511 . S
C1061 C1057 1.376 . S
C1061 C1060 1.392 . S
C1061 H1073 0.929 . S
C1062 C1058 1.531 . S
C1062 H1074 0.960 . S
C1062 H1075 0.962 . S
C1062 H1076 0.960 . S
C1063 C1060 1.511 . S
C1063 H1077 0.961 . S
C1063 H1078 0.961 . S
C1063 H1079 0.961 . S
C1064 C1065 1.370 . S
C1064 C1066 1.363 . S
C1064 H1080 0.931 . S
C1065 C1064 1.370 . S
C1065 C1069 1.408 . S
C1066 C1064 1.363 . S
C1066 C1067 1.370 . S
C1066 C1070 1.524 . S
C1067 C1059 1.503 . S
C1067 C1066 1.370 . S
C1067 C1068 1.403 . S
C1068 C1067 1.403 . S
C1068 C1069 1.404 . S
C1068 C1071 1.539 . S
C1069 C1065 1.408 . S
C1069 C1068 1.404 . S
C1069 H1081 0.930 . S
C1070 C1066 1.524 . S
C1070 H1082 0.956 . S
C1070 H1083 0.961 . S
C1070 H1084 0.961 . S
C1071 C1068 1.539 . S
C1071 H1085 0.958 . S
C1071 H1086 0.961 . S
C1071 H1087 0.960 . S
H1072 C1056 0.931 . S
H1073 C1061 0.929 . S
H1074 C1062 0.960 . S
H1075 C1062 0.962 . S
H1076 C1062 0.960 . S
H1077 C1063 0.961 . S
H1078 C1063 0.961 . S
H1079 C1063 0.961 . S
H1080 C1064 0.931 . S
H1081 C1069 0.930 . S
H1082 C1070 0.956 . S
H1083 C1070 0.961 . S
H1084 C1070 0.961 . S
H1085 C1071 0.958 . S
H1086 C1071 0.961 . S
H1087 C1071 0.960 . S
C321 C31 2.292 . S
C329 C12 2.294 . S
C353 C71 2.301 . S
C361 C52 2.292 . S
C385 C111 2.283 . S
C393 C92 2.299 . S
C417 C151 2.275 . S
C425 C132 2.301 . S
C449 C191 2.300 . S
C457 C172 2.292 . S
C481 C212 2.276 . S
C489 C231 2.302 . S
C513 C271 2.293 . S
C521 C252 2.293 . S
C545 C292 2.300 . S
C553 C311 2.290 . S
C577 C48 2.512 . S
C585 C29 2.550 . S
C609 C149 2.527 . S
C617 C88 2.544 . S
C641 C189 2.547 . S
C649 C208 2.532 . S
C673 C248 2.555 . S
C681 C309 2.529 . S
C705 C8 1.788 . S
C713 C229 1.823 . S
C737 C168 1.830 . S
C745 C69 1.803 . S
C769 C109 1.819 . S
C777 C288 1.806 . S
C801 C128 1.817 . S
C809 C269 1.808 . S
C833 C17 1.551 . S
C841 C137 1.570 . S
C865 C57 1.538 . S
C873 C97 1.523 . S
C897 C42 1.550 . S
C905 C82 1.572 . S
C929 C122 1.531 . S
C937 C2 1.524 . S
C961 C177 1.609 . S
C969 C297 1.590 . S
C993 C217 1.484 . S
C1001 C257 1.502 . S
C1025 C202 1.606 . S
C1033 C242 1.579 . S
C1057 C282 1.529 . S
C1065 C162 1.523 . S
