# Generated by pormake.
# Topology ukv, (4)-cn, num edge types: 1
# Building blocks:
#     Node 0, Type 0, BuildingBlock: AZAVOO_clean_sbu_0, # of connection points: 4
#     Node 1, Type 0, BuildingBlock: AZAVOO_clean_sbu_0, # of connection points: 4
#     Node 2, Type 0, BuildingBlock: AZAVOO_clean_sbu_0, # of connection points: 4
#     Node 3, Type 0, BuildingBlock: AZAVOO_clean_sbu_0, # of connection points: 4
#     Node 4, Type 0, BuildingBlock: AZAVOO_clean_sbu_0, # of connection points: 4
#     Node 5, Type 0, BuildingBlock: AZAVOO_clean_sbu_0, # of connection points: 4
#     Node 6, Type 0, BuildingBlock: AZAVOO_clean_sbu_0, # of connection points: 4
#     Node 7, Type 0, BuildingBlock: AZAVOO_clean_sbu_0, # of connection points: 4
#     Node 8, Type 0, BuildingBlock: AZAVOO_clean_sbu_0, # of connection points: 4
#     Node 9, Type 0, BuildingBlock: AZAVOO_clean_sbu_0, # of connection points: 4
#     Node 10, Type 0, BuildingBlock: AZAVOO_clean_sbu_0, # of connection points: 4
#     Node 11, Type 0, BuildingBlock: AZAVOO_clean_sbu_0, # of connection points: 4
#     Node 12, Type 0, BuildingBlock: AZAVOO_clean_sbu_0, # of connection points: 4
#     Node 13, Type 0, BuildingBlock: AZAVOO_clean_sbu_0, # of connection points: 4
#     Node 14, Type 0, BuildingBlock: AZAVOO_clean_sbu_0, # of connection points: 4
#     Node 15, Type 0, BuildingBlock: AZAVOO_clean_sbu_0, # of connection points: 4
#     Node 16, Type 0, BuildingBlock: AZAVOO_clean_sbu_0, # of connection points: 4
#     Node 17, Type 0, BuildingBlock: AZAVOO_clean_sbu_0, # of connection points: 4
#     Node 18, Type 0, BuildingBlock: AZAVOO_clean_sbu_0, # of connection points: 4
#     Node 19, Type 0, BuildingBlock: AZAVOO_clean_sbu_0, # of connection points: 4
#     Node 20, Type 0, BuildingBlock: AZAVOO_clean_sbu_0, # of connection points: 4
#     Node 21, Type 0, BuildingBlock: AZAVOO_clean_sbu_0, # of connection points: 4
#     Node 22, Type 0, BuildingBlock: AZAVOO_clean_sbu_0, # of connection points: 4
#     Node 23, Type 0, BuildingBlock: AZAVOO_clean_sbu_0, # of connection points: 4
#     Node 24, Type 0, BuildingBlock: AZAVOO_clean_sbu_0, # of connection points: 4
#     Node 25, Type 0, BuildingBlock: AZAVOO_clean_sbu_0, # of connection points: 4
#     Node 26, Type 0, BuildingBlock: AZAVOO_clean_sbu_0, # of connection points: 4
#     Node 27, Type 0, BuildingBlock: AZAVOO_clean_sbu_0, # of connection points: 4
#     Node 28, Type 0, BuildingBlock: AZAVOO_clean_sbu_0, # of connection points: 4
#     Node 29, Type 0, BuildingBlock: AZAVOO_clean_sbu_0, # of connection points: 4
#     Node 30, Type 0, BuildingBlock: AZAVOO_clean_sbu_0, # of connection points: 4
#     Node 31, Type 0, BuildingBlock: AZAVOO_clean_sbu_0, # of connection points: 4
#     Node 32, Type 0, BuildingBlock: AZAVOO_clean_sbu_0, # of connection points: 4
#     Node 33, Type 0, BuildingBlock: AZAVOO_clean_sbu_0, # of connection points: 4
#     Node 34, Type 0, BuildingBlock: AZAVOO_clean_sbu_0, # of connection points: 4
#     Node 35, Type 0, BuildingBlock: AZAVOO_clean_sbu_0, # of connection points: 4
#     Edge 36, Type (0, 0), BuildingBlock: UVAHIK_clean_linker_0, # of connection points: 2
#     Edge 37, Type (0, 0), BuildingBlock: UVAHIK_clean_linker_0, # of connection points: 2
#     Edge 38, Type (0, 0), BuildingBlock: UVAHIK_clean_linker_0, # of connection points: 2
#     Edge 39, Type (0, 0), BuildingBlock: UVAHIK_clean_linker_0, # of connection points: 2
#     Edge 40, Type (0, 0), BuildingBlock: UVAHIK_clean_linker_0, # of connection points: 2
#     Edge 41, Type (0, 0), BuildingBlock: UVAHIK_clean_linker_0, # of connection points: 2
#     Edge 42, Type (0, 0), BuildingBlock: UVAHIK_clean_linker_0, # of connection points: 2
#     Edge 43, Type (0, 0), BuildingBlock: UVAHIK_clean_linker_0, # of connection points: 2
#     Edge 44, Type (0, 0), BuildingBlock: UVAHIK_clean_linker_0, # of connection points: 2
#     Edge 45, Type (0, 0), BuildingBlock: UVAHIK_clean_linker_0, # of connection points: 2
#     Edge 46, Type (0, 0), BuildingBlock: UVAHIK_clean_linker_0, # of connection points: 2
#     Edge 47, Type (0, 0), BuildingBlock: UVAHIK_clean_linker_0, # of connection points: 2
#     Edge 48, Type (0, 0), BuildingBlock: UVAHIK_clean_linker_0, # of connection points: 2
#     Edge 49, Type (0, 0), BuildingBlock: UVAHIK_clean_linker_0, # of connection points: 2
#     Edge 50, Type (0, 0), BuildingBlock: UVAHIK_clean_linker_0, # of connection points: 2
#     Edge 51, Type (0, 0), BuildingBlock: UVAHIK_clean_linker_0, # of connection points: 2
#     Edge 52, Type (0, 0), BuildingBlock: UVAHIK_clean_linker_0, # of connection points: 2
#     Edge 53, Type (0, 0), BuildingBlock: UVAHIK_clean_linker_0, # of connection points: 2
#     Edge 54, Type (0, 0), BuildingBlock: UVAHIK_clean_linker_0, # of connection points: 2
#     Edge 55, Type (0, 0), BuildingBlock: UVAHIK_clean_linker_0, # of connection points: 2
#     Edge 56, Type (0, 0), BuildingBlock: UVAHIK_clean_linker_0, # of connection points: 2
#     Edge 57, Type (0, 0), BuildingBlock: UVAHIK_clean_linker_0, # of connection points: 2
#     Edge 58, Type (0, 0), BuildingBlock: UVAHIK_clean_linker_0, # of connection points: 2
#     Edge 59, Type (0, 0), BuildingBlock: UVAHIK_clean_linker_0, # of connection points: 2
#     Edge 60, Type (0, 0), BuildingBlock: UVAHIK_clean_linker_0, # of connection points: 2
#     Edge 61, Type (0, 0), BuildingBlock: UVAHIK_clean_linker_0, # of connection points: 2
#     Edge 62, Type (0, 0), BuildingBlock: UVAHIK_clean_linker_0, # of connection points: 2
#     Edge 63, Type (0, 0), BuildingBlock: UVAHIK_clean_linker_0, # of connection points: 2
#     Edge 64, Type (0, 0), BuildingBlock: UVAHIK_clean_linker_0, # of connection points: 2
#     Edge 65, Type (0, 0), BuildingBlock: UVAHIK_clean_linker_0, # of connection points: 2
#     Edge 66, Type (0, 0), BuildingBlock: UVAHIK_clean_linker_0, # of connection points: 2
#     Edge 67, Type (0, 0), BuildingBlock: UVAHIK_clean_linker_0, # of connection points: 2
#     Edge 68, Type (0, 0), BuildingBlock: UVAHIK_clean_linker_0, # of connection points: 2
#     Edge 69, Type (0, 0), BuildingBlock: UVAHIK_clean_linker_0, # of connection points: 2
#     Edge 70, Type (0, 0), BuildingBlock: UVAHIK_clean_linker_0, # of connection points: 2
#     Edge 71, Type (0, 0), BuildingBlock: UVAHIK_clean_linker_0, # of connection points: 2
#     Edge 72, Type (0, 0), BuildingBlock: UVAHIK_clean_linker_0, # of connection points: 2
#     Edge 73, Type (0, 0), BuildingBlock: UVAHIK_clean_linker_0, # of connection points: 2
#     Edge 74, Type (0, 0), BuildingBlock: UVAHIK_clean_linker_0, # of connection points: 2
#     Edge 75, Type (0, 0), BuildingBlock: UVAHIK_clean_linker_0, # of connection points: 2
#     Edge 76, Type (0, 0), BuildingBlock: UVAHIK_clean_linker_0, # of connection points: 2
#     Edge 77, Type (0, 0), BuildingBlock: UVAHIK_clean_linker_0, # of connection points: 2
#     Edge 78, Type (0, 0), BuildingBlock: UVAHIK_clean_linker_0, # of connection points: 2
#     Edge 79, Type (0, 0), BuildingBlock: UVAHIK_clean_linker_0, # of connection points: 2
#     Edge 80, Type (0, 0), BuildingBlock: UVAHIK_clean_linker_0, # of connection points: 2
#     Edge 81, Type (0, 0), BuildingBlock: UVAHIK_clean_linker_0, # of connection points: 2
#     Edge 82, Type (0, 0), BuildingBlock: UVAHIK_clean_linker_0, # of connection points: 2
#     Edge 83, Type (0, 0), BuildingBlock: UVAHIK_clean_linker_0, # of connection points: 2
#     Edge 84, Type (0, 0), BuildingBlock: UVAHIK_clean_linker_0, # of connection points: 2
#     Edge 85, Type (0, 0), BuildingBlock: UVAHIK_clean_linker_0, # of connection points: 2
#     Edge 86, Type (0, 0), BuildingBlock: UVAHIK_clean_linker_0, # of connection points: 2
#     Edge 87, Type (0, 0), BuildingBlock: UVAHIK_clean_linker_0, # of connection points: 2
#     Edge 88, Type (0, 0), BuildingBlock: UVAHIK_clean_linker_0, # of connection points: 2
#     Edge 89, Type (0, 0), BuildingBlock: UVAHIK_clean_linker_0, # of connection points: 2
#     Edge 90, Type (0, 0), BuildingBlock: UVAHIK_clean_linker_0, # of connection points: 2
#     Edge 91, Type (0, 0), BuildingBlock: UVAHIK_clean_linker_0, # of connection points: 2
#     Edge 92, Type (0, 0), BuildingBlock: UVAHIK_clean_linker_0, # of connection points: 2
#     Edge 93, Type (0, 0), BuildingBlock: UVAHIK_clean_linker_0, # of connection points: 2
#     Edge 94, Type (0, 0), BuildingBlock: UVAHIK_clean_linker_0, # of connection points: 2
#     Edge 95, Type (0, 0), BuildingBlock: UVAHIK_clean_linker_0, # of connection points: 2
#     Edge 96, Type (0, 0), BuildingBlock: UVAHIK_clean_linker_0, # of connection points: 2
#     Edge 97, Type (0, 0), BuildingBlock: UVAHIK_clean_linker_0, # of connection points: 2
#     Edge 98, Type (0, 0), BuildingBlock: UVAHIK_clean_linker_0, # of connection points: 2
#     Edge 99, Type (0, 0), BuildingBlock: UVAHIK_clean_linker_0, # of connection points: 2
#     Edge 100, Type (0, 0), BuildingBlock: UVAHIK_clean_linker_0, # of connection points: 2
#     Edge 101, Type (0, 0), BuildingBlock: UVAHIK_clean_linker_0, # of connection points: 2
#     Edge 102, Type (0, 0), BuildingBlock: UVAHIK_clean_linker_0, # of connection points: 2
#     Edge 103, Type (0, 0), BuildingBlock: UVAHIK_clean_linker_0, # of connection points: 2
#     Edge 104, Type (0, 0), BuildingBlock: UVAHIK_clean_linker_0, # of connection points: 2
#     Edge 105, Type (0, 0), BuildingBlock: UVAHIK_clean_linker_0, # of connection points: 2
#     Edge 106, Type (0, 0), BuildingBlock: UVAHIK_clean_linker_0, # of connection points: 2
#     Edge 107, Type (0, 0), BuildingBlock: UVAHIK_clean_linker_0, # of connection points: 2
# Relax obj value: 0.321
# Max RMSD: 0.206
# Mean RMSD: 0.206
data_MOF--net-ukv--node1-AZAVOO_clean_sbu_0--edge1-UVAHIK_clean_linker_0
_symmetry_space_group_name_H-M    P1
_symmetry_Int_Tables_number       1
_symmetry_cell_setting            triclinic
loop_
_symmetry_equiv_pos_as_xyz
'x, y, z'
_cell_length_a     126.09353
_cell_length_b     126.06352
_cell_length_c     24.670638
_cell_angle_alpha  89.989605
_cell_angle_beta   90.022102
_cell_angle_gamma 119.9921
loop_
_atom_site_label
_atom_site_type_symbol
_atom_site_fract_x
_atom_site_fract_y
_atom_site_fract_z
_atom_type_partial_charge
Mg0 Mg 0.26041 0.07002 0.14086 0.0
O1 O 0.2545 0.07732 0.06842 0.0
O2 O 0.23542 0.07331 0.0857 0.0
Mg3 Mg 0.22933 0.06397 0.16772 0.0
C4 C 0.24487 0.07768 0.05527 0.0
C5 C 0.28585 0.0736 0.12142 0.0
O6 O 0.28521 0.0738 0.17455 0.0
O7 O 0.24829 0.05052 0.112 0.0
O8 O 0.22969 0.04715 0.13403 0.0
O9 O 0.26798 0.088 0.18159 0.0
O10 O 0.24879 0.07302 0.19035 0.0
C11 C 0.23673 0.04349 0.11483 0.0
C12 C 0.25703 0.08424 0.19967 0.0
O13 O 0.27659 0.07174 0.09364 0.0
Mg14 Mg 0.92754 0.19267 0.14952 0.0
O15 O 0.92411 0.18698 0.06085 0.0
O16 O 0.92757 0.17146 0.04779 0.0
Mg17 Mg 0.93299 0.16703 0.12951 0.0
C18 C 0.92463 0.17915 0.02998 0.0
C19 C 0.91953 0.21226 0.14774 0.0
O20 O 0.91204 0.20475 0.18469 0.0
O21 O 0.94799 0.20179 0.13534 0.0
O22 O 0.9508 0.1857 0.12806 0.0
O23 O 0.90817 0.17913 0.16946 0.0
O24 O 0.92326 0.17503 0.17232 0.0
C25 C 0.95498 0.19726 0.12934 0.0
C26 C 0.91174 0.17124 0.17714 0.0
O27 O 0.9274 0.21003 0.12665 0.0
Mg28 Mg 0.81733 0.74831 0.07501 0.0
O29 O 0.83006 0.75209 0.00268 0.0
O30 O 0.84675 0.77038 0.01544 0.0
Mg31 Mg 0.84468 0.77819 0.09558 0.0
C32 C 0.84055 0.76066 0.98745 0.0
C33 C 0.79558 0.72248 0.05018 0.0
O34 O 0.79827 0.72083 0.09979 0.0
O35 O 0.81213 0.76182 0.04274 0.0
O36 O 0.8286 0.77993 0.06079 0.0
O37 O 0.82649 0.7396 0.11753 0.0
O38 O 0.83236 0.7593 0.12382 0.0
C39 C 0.81769 0.77349 0.04259 0.0
C40 C 0.83437 0.75045 0.13471 0.0
O41 O 0.80179 0.73294 0.0283 0.0
Mg42 Mg 0.06256 0.24864 0.46068 0.0
O43 O 0.07664 0.24443 0.49979 0.0
O44 O 0.07508 0.22748 0.46203 0.0
Mg45 Mg 0.05876 0.2194 0.40401 0.0
C46 C 0.08017 0.23655 0.49478 0.0
C47 C 0.06423 0.2717 0.50856 0.0
O48 O 0.06085 0.27183 0.45827 0.0
O49 O 0.04761 0.23368 0.51208 0.0
O50 O 0.04749 0.21787 0.47931 0.0
O51 O 0.07598 0.25871 0.39536 0.0
O52 O 0.063 0.23878 0.39185 0.0
C53 C 0.04269 0.22463 0.47996 0.0
C54 C 0.07229 0.2483 0.37144 0.0
O55 O 0.06582 0.26298 0.52386 0.0
Mg56 Mg 0.74088 0.8033 0.34612 0.0
O57 O 0.74513 0.81789 0.41168 0.0
O58 O 0.76223 0.83557 0.39275 0.0
Mg59 Mg 0.77157 0.83103 0.32508 0.0
C60 C 0.75271 0.82916 0.42177 0.0
C61 C 0.71762 0.7925 0.41539 0.0
O62 O 0.71925 0.80333 0.40259 0.0
O63 O 0.75386 0.79803 0.38598 0.0
O64 O 0.7694 0.81618 0.38388 0.0
O65 O 0.73305 0.81224 0.29582 0.0
O66 O 0.75273 0.81791 0.29335 0.0
C67 C 0.76417 0.80536 0.36533 0.0
C68 C 0.74401 0.81985 0.27895 0.0
O69 O 0.72499 0.78929 0.39676 0.0
Mg70 Mg 0.18649 0.93293 0.4098 0.0
O71 O 0.16865 0.92044 0.45733 0.0
O72 O 0.15349 0.92313 0.42489 0.0
Mg73 Mg 0.16166 0.93907 0.36555 0.0
C74 C 0.1574 0.91776 0.45633 0.0
C75 C 0.20375 0.92394 0.44241 0.0
O76 O 0.20271 0.92244 0.38961 0.0
O77 O 0.18964 0.94926 0.46084 0.0
O78 O 0.17348 0.94973 0.43799 0.0
O79 O 0.18042 0.91866 0.34687 0.0
O80 O 0.17511 0.93292 0.34567 0.0
C81 C 0.18493 0.95419 0.43228 0.0
C82 C 0.17394 0.92294 0.32566 0.0
O83 O 0.19804 0.92854 0.46611 0.0
Mg84 Mg 0.73378 0.91983 0.85385 0.0
O85 O 0.74254 0.91295 0.91591 0.0
O86 O 0.75917 0.91406 0.87813 0.0
Mg87 Mg 0.7611 0.92169 0.79256 0.0
C88 C 0.75179 0.91138 0.91791 0.0
C89 C 0.71266 0.92186 0.90506 0.0
O90 O 0.71124 0.92327 0.8533 0.0
O91 O 0.74857 0.93965 0.8681 0.0
O92 O 0.76445 0.94003 0.82603 0.0
O93 O 0.72306 0.90082 0.82129 0.0
O94 O 0.74128 0.91478 0.79106 0.0
C95 C 0.75968 0.94539 0.85193 0.0
C96 C 0.73238 0.90364 0.79024 0.0
O97 O 0.72164 0.92062 0.91966 0.0
Mg98 Mg 0.062 0.81509 0.91166 0.0
O99 O 0.07544 0.8327 0.95801 0.0
O100 O 0.07431 0.84862 0.92338 0.0
Mg101 Mg 0.05879 0.84137 0.86174 0.0
C102 C 0.07898 0.84417 0.95604 0.0
C103 C 0.06322 0.79305 0.94789 0.0
O104 O 0.05966 0.79093 0.89703 0.0
O105 O 0.04613 0.81382 0.9604 0.0
O106 O 0.04685 0.83033 0.93338 0.0
O107 O 0.07628 0.81948 0.8502 0.0
O108 O 0.06348 0.82666 0.8458 0.0
C109 C 0.04185 0.81878 0.92936 0.0
C110 C 0.07306 0.82668 0.82725 0.0
O111 O 0.06477 0.80282 0.97004 0.0
Mg112 Mg 0.17913 0.24146 0.96082 0.0
O113 O 0.16141 0.23872 0.00144 0.0
O114 O 0.14509 0.22282 0.96257 0.0
Mg115 Mg 0.15199 0.21358 0.90421 0.0
C116 C 0.14981 0.23175 0.99617 0.0
C117 C 0.20174 0.26339 0.00892 0.0
O118 O 0.20536 0.26271 0.95973 0.0
O119 O 0.17809 0.22573 0.01013 0.0
O120 O 0.16115 0.21112 0.97944 0.0
O121 O 0.17684 0.25251 0.89726 0.0
O122 O 0.16826 0.23235 0.89185 0.0
C123 C 0.17276 0.21664 0.97842 0.0
C124 C 0.16943 0.2424 0.8726 0.0
O125 O 0.19103 0.25541 0.02383 0.0
Mg126 Mg 0.93186 0.73946 0.56859 0.0
O127 O 0.92615 0.74804 0.50077 0.0
O128 O 0.92834 0.76568 0.53171 0.0
Mg129 Mg 0.93548 0.76842 0.61828 0.0
C130 C 0.92536 0.75767 0.49439 0.0
C131 C 0.93666 0.71938 0.52302 0.0
O132 O 0.9406 0.72018 0.57299 0.0
O133 O 0.95197 0.75307 0.55453 0.0
O134 O 0.95356 0.77022 0.58861 0.0
O135 O 0.91269 0.73008 0.59899 0.0
O136 O 0.9271 0.7484 0.62623 0.0
C137 C 0.95832 0.7644 0.56655 0.0
C138 C 0.91576 0.7399 0.62688 0.0
O139 O 0.93252 0.72627 0.5082 0.0
Mg140 Mg 0.25449 0.186 0.63182 0.0
O141 O 0.24723 0.1721 0.56193 0.0
O142 O 0.22965 0.15603 0.58971 0.0
Mg143 Mg 0.2253 0.15989 0.67438 0.0
C144 C 0.238 0.16144 0.55411 0.0
C145 C 0.27898 0.20734 0.59838 0.0
O146 O 0.28033 0.20594 0.65023 0.0
O147 O 0.24074 0.19205 0.61292 0.0
O148 O 0.22343 0.17607 0.64315 0.0
O149 O 0.26396 0.17664 0.66559 0.0
O150 O 0.24509 0.17189 0.68748 0.0
C151 C 0.22926 0.18676 0.62212 0.0
C152 C 0.25388 0.16949 0.69097 0.0
O153 O 0.26867 0.2004 0.57634 0.0
Mg154 Mg 0.82315 0.09461 0.65352 0.0
O155 O 0.83235 0.09273 0.577 0.0
O156 O 0.8495 0.09305 0.60281 0.0
Mg157 Mg 0.85163 0.09593 0.69472 0.0
C158 C 0.84204 0.09233 0.56599 0.0
C159 C 0.79613 0.0868 0.63424 0.0
O160 O 0.79696 0.08808 0.6872 0.0
O161 O 0.81721 0.07512 0.67974 0.0
O162 O 0.83476 0.07726 0.71183 0.0
O163 O 0.83329 0.11488 0.6428 0.0
O164 O 0.84029 0.10467 0.68936 0.0
C165 C 0.82323 0.07086 0.70396 0.0
C166 C 0.84216 0.11491 0.66933 0.0
O167 O 0.80544 0.08837 0.60771 0.0
Mg168 Mg 0.92557 0.39196 0.42561 0.0
O169 O 0.9181 0.39934 0.35924 0.0
O170 O 0.89975 0.39575 0.38754 0.0
Mg171 Mg 0.89552 0.3864 0.46972 0.0
C172 C 0.90837 0.39996 0.35261 0.0
C173 C 0.94983 0.39461 0.39653 0.0
O174 O 0.94909 0.39356 0.44959 0.0
O175 O 0.91274 0.37225 0.39995 0.0
O176 O 0.89498 0.36951 0.43201 0.0
O177 O 0.93393 0.41006 0.46639 0.0
O178 O 0.91529 0.39478 0.48367 0.0
C179 C 0.90127 0.36548 0.40832 0.0
C180 C 0.92358 0.40604 0.49126 0.0
O181 O 0.94074 0.39378 0.37054 0.0
Mg182 Mg 0.57772 0.50926 0.49786 0.0
O183 O 0.57364 0.49565 0.42821 0.0
O184 O 0.57426 0.47949 0.46186 0.0
Mg185 Mg 0.57815 0.48247 0.55261 0.0
C186 C 0.57272 0.48514 0.42238 0.0
C187 C 0.57794 0.53188 0.45006 0.0
O188 O 0.57308 0.53115 0.498 0.0
O189 O 0.59776 0.51474 0.49829 0.0
O190 O 0.59751 0.49853 0.53642 0.0
O191 O 0.55777 0.50026 0.5156 0.0
O192 O 0.57043 0.49473 0.55135 0.0
C193 C 0.60328 0.50934 0.51665 0.0
C194 C 0.55942 0.49263 0.5445 0.0
O195 O 0.58118 0.52415 0.43744 0.0
Mg196 Mg 0.48121 0.0708 0.42552 0.0
O197 O 0.49491 0.0794 0.35587 0.0
O198 O 0.51063 0.09705 0.38512 0.0
Mg199 Mg 0.50694 0.09972 0.47299 0.0
C200 C 0.50525 0.08904 0.3481 0.0
C201 C 0.45574 0.05164 0.37972 0.0
O202 O 0.45253 0.05283 0.42901 0.0
O203 O 0.47476 0.08449 0.41398 0.0
O204 O 0.49051 0.10169 0.44646 0.0
O205 O 0.49112 0.06131 0.45254 0.0
O206 O 0.4954 0.07966 0.48119 0.0
C207 C 0.4798 0.09583 0.42577 0.0
C208 C 0.49817 0.0711 0.48004 0.0
O209 O 0.46693 0.05782 0.366 0.0
Mg210 Mg 0.75566 0.60341 0.66962 0.0
O211 O 0.75965 0.59468 0.74278 0.0
O212 O 0.75955 0.57783 0.71384 0.0
Mg213 Mg 0.75583 0.57597 0.62298 0.0
C214 C 0.76076 0.58529 0.75151 0.0
C215 C 0.74786 0.62196 0.70857 0.0
O216 O 0.74565 0.62183 0.65645 0.0
O217 O 0.73562 0.58867 0.66916 0.0
O218 O 0.73639 0.57248 0.63727 0.0
O219 O 0.77566 0.61428 0.6537 0.0
O220 O 0.76335 0.59598 0.61861 0.0
C221 C 0.73037 0.57751 0.65391 0.0
C222 C 0.77432 0.60498 0.62575 0.0
O223 O 0.75183 0.61516 0.72663 0.0
Mg224 Mg 0.41808 0.1448 0.74501 0.0
O225 O 0.42237 0.16245 0.79108 0.0
O226 O 0.43863 0.17891 0.75511 0.0
Mg227 Mg 0.44713 0.17162 0.69482 0.0
C228 C 0.42973 0.17403 0.78876 0.0
C229 C 0.39581 0.13616 0.81976 0.0
O230 O 0.39663 0.14604 0.79781 0.0
O231 O 0.4329 0.14365 0.79264 0.0
O232 O 0.44793 0.16098 0.76791 0.0
O233 O 0.40797 0.14919 0.68452 0.0
O234 O 0.42793 0.15638 0.67853 0.0
C235 C 0.44233 0.14942 0.76322 0.0
C236 C 0.41831 0.15646 0.66124 0.0
O237 O 0.40357 0.13299 0.80667 0.0
Mg238 Mg 0.84903 0.26855 0.77133 0.0
O239 O 0.83118 0.25581 0.81688 0.0
O240 O 0.8153 0.25616 0.77745 0.0
Mg241 Mg 0.82296 0.2708 0.71115 0.0
C242 C 0.81971 0.25209 0.81325 0.0
C243 C 0.87181 0.27102 0.82982 0.0
O244 O 0.87663 0.2765 0.78363 0.0
O245 O 0.84988 0.28512 0.81226 0.0
O246 O 0.83364 0.28411 0.77974 0.0
O247 O 0.84482 0.2533 0.71443 0.0
O248 O 0.838 0.26624 0.70237 0.0
C249 C 0.8452 0.28896 0.77742 0.0
C250 C 0.83796 0.25642 0.68764 0.0
O251 O 0.86044 0.26678 0.83785 0.0
Mg252 Mg 0.41069 0.26259 0.24428 0.0
O253 O 0.41618 0.25147 0.29948 0.0
O254 O 0.43446 0.25485 0.27117 0.0
Mg255 Mg 0.44045 0.26775 0.19863 0.0
C256 C 0.42531 0.24973 0.30323 0.0
C257 C 0.38675 0.26045 0.28005 0.0
O258 O 0.38709 0.26245 0.22763 0.0
O259 O 0.42428 0.28003 0.28655 0.0
O260 O 0.44217 0.28341 0.25329 0.0
O261 O 0.40157 0.24674 0.18917 0.0
O262 O 0.421 0.26127 0.18165 0.0
C263 C 0.43589 0.28658 0.28294 0.0
C264 C 0.41212 0.25081 0.16599 0.0
O265 O 0.39564 0.26001 0.30198 0.0
Mg266 Mg 0.72757 0.1466 0.26848 0.0
O267 O 0.74109 0.16391 0.31608 0.0
O268 O 0.74042 0.18019 0.28323 0.0
Mg269 Mg 0.7249 0.17341 0.22145 0.0
C270 C 0.7449 0.17543 0.3152 0.0
C271 C 0.73211 0.1262 0.30853 0.0
O272 O 0.73282 0.12542 0.25568 0.0
O273 O 0.71167 0.1454 0.317 0.0
O274 O 0.71261 0.16211 0.29176 0.0
O275 O 0.74203 0.15136 0.20671 0.0
O276 O 0.72915 0.15845 0.20378 0.0
C277 C 0.70753 0.15058 0.28649 0.0
C278 C 0.73875 0.15861 0.18475 0.0
O279 O 0.7299 0.13423 0.32795 0.0
Mg280 Mg 0.86497 0.5909 0.17462 0.0
O281 O 0.85516 0.59022 0.25357 0.0
O282 O 0.83691 0.57311 0.25368 0.0
Mg283 Mg 0.8351 0.56275 0.17559 0.0
C284 C 0.84493 0.58303 0.27609 0.0
C285 C 0.88754 0.61674 0.18759 0.0
O286 O 0.88292 0.61802 0.14194 0.0
O287 O 0.86916 0.57654 0.20733 0.0
O288 O 0.85064 0.55971 0.20528 0.0
O289 O 0.856 0.60018 0.13436 0.0
O290 O 0.84819 0.58011 0.13612 0.0
C291 C 0.86211 0.56509 0.21549 0.0
C292 C 0.84699 0.58936 0.12335 0.0
O293 O 0.88246 0.60633 0.21058 0.0
Mg294 Mg 0.60078 0.07553 0.93271 0.0
O295 O 0.59405 0.08011 0.85461 0.0
O296 O 0.59643 0.09879 0.8645 0.0
Mg297 Mg 0.60469 0.10616 0.94767 0.0
C298 C 0.59304 0.08907 0.83673 0.0
C299 C 0.59491 0.04909 0.91398 0.0
O300 O 0.58974 0.04827 0.96121 0.0
O301 O 0.62058 0.08821 0.90936 0.0
O302 O 0.62256 0.10658 0.9242 0.0
O303 O 0.58208 0.06782 0.96712 0.0
O304 O 0.59666 0.08715 0.97651 0.0
C305 C 0.62708 0.09986 0.91091 0.0
C306 C 0.58541 0.07879 0.98381 0.0
O307 O 0.60061 0.05945 0.89073 0.0
Mg308 Mg 0.90674 0.50366 0.92992 0.0
O309 O 0.90459 0.48832 0.87237 0.0
O310 O 0.88868 0.47027 0.89828 0.0
Mg311 Mg 0.87871 0.474 0.96617 0.0
C312 C 0.89783 0.4767 0.86727 0.0
C313 C 0.92974 0.5168 0.85829 0.0
O314 O 0.92955 0.50652 0.8696 0.0
O315 O 0.89128 0.5042 0.88487 0.0
O316 O 0.87661 0.48615 0.90354 0.0
O317 O 0.91737 0.49879 0.98582 0.0
O318 O 0.89716 0.48972 0.98868 0.0
C319 C 0.88198 0.49752 0.91385 0.0
C320 C 0.90709 0.49015 0.00493 0.0
O321 O 0.92124 0.51846 0.87631 0.0
Mg322 Mg 0.46204 0.39187 0.00877 0.0
O323 O 0.47545 0.39976 0.93673 0.0
O324 O 0.49272 0.39931 0.95405 0.0
Mg325 Mg 0.48823 0.38631 0.02503 0.0
C326 C 0.4864 0.40247 0.92466 0.0
C327 C 0.44531 0.4023 0.9749 0.0
O328 O 0.45036 0.40882 0.0187 0.0
O329 O 0.4542 0.37241 0.97729 0.0
O330 O 0.47186 0.37386 0.97266 0.0
O331 O 0.47332 0.40957 0.05102 0.0
O332 O 0.47708 0.39425 0.05771 0.0
C333 C 0.4615 0.36912 0.99562 0.0
C334 C 0.48037 0.40552 0.06782 0.0
O335 O 0.44799 0.39423 0.96083 0.0
Mg336 Mg 0.59246 0.72838 0.80907 0.0
O337 O 0.58508 0.73588 0.7427 0.0
O338 O 0.56739 0.73444 0.76963 0.0
Mg339 Mg 0.56136 0.72283 0.84604 0.0
C340 C 0.57615 0.73785 0.73556 0.0
C341 C 0.61718 0.73115 0.7736 0.0
O342 O 0.61806 0.73075 0.82656 0.0
O343 O 0.57983 0.7089 0.78076 0.0
O344 O 0.56312 0.7092 0.79192 0.0
O345 O 0.60034 0.74635 0.84975 0.0
O346 O 0.5814 0.73141 0.86537 0.0
C347 C 0.57025 0.70556 0.8087 0.0
C348 C 0.58977 0.74271 0.87201 0.0
O349 O 0.60748 0.73015 0.75319 0.0
Mg350 Mg 0.25547 0.83915 0.77608 0.0
O351 O 0.24679 0.82434 0.71035 0.0
O352 O 0.24954 0.80885 0.73577 0.0
Mg353 Mg 0.25982 0.81362 0.81601 0.0
C354 C 0.24545 0.81372 0.70252 0.0
C355 C 0.24819 0.8577 0.74361 0.0
O356 O 0.24361 0.85413 0.79239 0.0
O357 O 0.2743 0.84448 0.7445 0.0
O358 O 0.27689 0.82919 0.77406 0.0
O359 O 0.23785 0.83046 0.81944 0.0
O360 O 0.25227 0.82565 0.83348 0.0
C361 C 0.28082 0.83941 0.74948 0.0
C362 C 0.24126 0.82344 0.8425 0.0
O363 O 0.25425 0.85319 0.72243 0.0
Mg364 Mg 0.14578 0.4079 0.78384 0.0
O365 O 0.15111 0.41128 0.6947 0.0
O366 O 0.16817 0.42944 0.68699 0.0
Mg367 Mg 0.1738 0.43758 0.77199 0.0
C368 C 0.15952 0.41968 0.66599 0.0
C369 C 0.1223 0.38302 0.79246 0.0
O370 O 0.12751 0.38395 0.83973 0.0
O371 O 0.13899 0.42142 0.77883 0.0
O372 O 0.15649 0.43935 0.77602 0.0
O373 O 0.15728 0.39931 0.79482 0.0
O374 O 0.16399 0.41904 0.80718 0.0
C375 C 0.1448 0.4331 0.77719 0.0
C376 C 0.16628 0.41015 0.80568 0.0
O377 O 0.12733 0.39196 0.75962 0.0
Mg378 Mg 0.38751 0.92462 0.01439 0.0
O379 O 0.39853 0.92426 0.08713 0.0
O380 O 0.39993 0.90722 0.08921 0.0
Mg381 Mg 0.38706 0.89476 0.0225 0.0
C382 C 0.40252 0.91768 0.10837 0.0
C383 C 0.39484 0.95195 0.02892 0.0
O384 O 0.40103 0.95279 0.98475 0.0
O385 O 0.36989 0.91218 0.05954 0.0
O386 O 0.37265 0.89683 0.06966 0.0
O387 O 0.40427 0.93158 0.96404 0.0
O388 O 0.39141 0.91179 0.97552 0.0
C389 C 0.36725 0.90153 0.04442 0.0
C390 C 0.40162 0.92037 0.95624 0.0
O391 O 0.38798 0.94147 0.04962 0.0
Mg392 Mg 0.08646 0.48742 0.09371 0.0
O393 O 0.08766 0.50378 0.14037 0.0
O394 O 0.1035 0.5212 0.10799 0.0
Mg395 Mg 0.11429 0.51624 0.04871 0.0
C396 C 0.09421 0.51548 0.13917 0.0
C397 C 0.06309 0.46466 0.12471 0.0
O398 O 0.06345 0.4643 0.07155 0.0
O399 O 0.10174 0.48871 0.14708 0.0
O400 O 0.11653 0.50599 0.12025 0.0
O401 O 0.07588 0.4903 0.02973 0.0
O402 O 0.09611 0.49988 0.0297 0.0
C403 C 0.11111 0.4944 0.1173 0.0
C404 C 0.08614 0.49872 0.00959 0.0
O405 O 0.07186 0.47355 0.14954 0.0
Mg406 Mg 0.52925 0.59972 0.99507 0.0
O407 O 0.51397 0.58807 0.05493 0.0
O408 O 0.49812 0.59096 0.04002 0.0
Mg409 Mg 0.50362 0.60508 0.97258 0.0
C410 C 0.50314 0.58583 0.06564 0.0
C411 C 0.53907 0.58479 0.05164 0.0
O412 O 0.52886 0.57626 0.02948 0.0
O413 O 0.53401 0.61644 0.04559 0.0
O414 O 0.51844 0.61964 0.02872 0.0
O415 O 0.52098 0.58449 0.93642 0.0
O416 O 0.51616 0.59911 0.94097 0.0
C417 C 0.52857 0.62256 0.05234 0.0
C418 C 0.5139 0.58867 0.9217 0.0
O419 O 0.54221 0.59595 0.04444 0.0
Mg420 Mg 0.06914 0.60009 0.59673 0.0
O421 O 0.07567 0.59048 0.65632 0.0
O422 O 0.09452 0.59524 0.62992 0.0
Mg423 Mg 0.09972 0.60704 0.55404 0.0
C424 C 0.08541 0.58981 0.66203 0.0
C425 C 0.0449 0.59761 0.62759 0.0
O426 O 0.04654 0.60118 0.57671 0.0
O427 O 0.08168 0.61858 0.63516 0.0
O428 O 0.0998 0.62273 0.60184 0.0
O429 O 0.06094 0.58371 0.54398 0.0
O430 O 0.08006 0.59886 0.53636 0.0
C431 C 0.09316 0.62578 0.62937 0.0
C432 C 0.07157 0.58815 0.52123 0.0
O433 O 0.05334 0.59671 0.6515 0.0
Mg434 Mg 0.4105 0.47923 0.51446 0.0
O435 O 0.41772 0.49567 0.57189 0.0
O436 O 0.41591 0.51055 0.53167 0.0
Mg437 Mg 0.40734 0.5035 0.44842 0.0
C438 C 0.41913 0.50643 0.57186 0.0
C439 C 0.40596 0.456 0.57685 0.0
O440 O 0.40147 0.45123 0.52913 0.0
O441 O 0.39084 0.47411 0.53132 0.0
O442 O 0.38939 0.48882 0.48719 0.0
O443 O 0.42909 0.48722 0.478 0.0
O444 O 0.4146 0.49079 0.44841 0.0
C445 C 0.38465 0.47902 0.51553 0.0
C446 C 0.42574 0.49307 0.44545 0.0
O447 O 0.41034 0.46741 0.584 0.0
Mg448 Mg 0.51 0.94059 0.5118 0.0
O449 O 0.49435 0.92919 0.57095 0.0
O450 O 0.47791 0.91626 0.52277 0.0
Mg451 Mg 0.48318 0.9193 0.43299 0.0
C452 C 0.48315 0.92075 0.56805 0.0
C453 C 0.53485 0.95145 0.56951 0.0
O454 O 0.53787 0.95092 0.51902 0.0
O455 O 0.51313 0.92465 0.49495 0.0
O456 O 0.49677 0.91239 0.4445 0.0
O457 O 0.50321 0.95387 0.50718 0.0
O458 O 0.49766 0.93814 0.45147 0.0
C459 C 0.5069 0.91494 0.46699 0.0
C460 C 0.49649 0.94721 0.46735 0.0
O461 O 0.52364 0.94736 0.58101 0.0
Mg462 Mg 0.23717 0.39638 0.2958 0.0
O463 O 0.24036 0.40545 0.21216 0.0
O464 O 0.24191 0.42373 0.22404 0.0
Mg465 Mg 0.23979 0.42636 0.31412 0.0
C466 C 0.24179 0.41552 0.19333 0.0
C467 C 0.2371 0.37221 0.28881 0.0
O468 O 0.23106 0.37105 0.33387 0.0
O469 O 0.25697 0.40874 0.32016 0.0
O470 O 0.25762 0.42653 0.33495 0.0
O471 O 0.21709 0.38823 0.28415 0.0
O472 O 0.22903 0.40627 0.32215 0.0
C473 C 0.26267 0.41992 0.33517 0.0
C474 C 0.21835 0.39826 0.30453 0.0
O475 O 0.24134 0.38213 0.26219 0.0
Mg476 Mg 0.58765 0.84525 0.30337 0.0
O477 O 0.58072 0.83218 0.23059 0.0
O478 O 0.56275 0.81598 0.25296 0.0
Mg479 Mg 0.55803 0.81879 0.33902 0.0
C480 C 0.57146 0.82177 0.2193 0.0
C481 C 0.61295 0.86586 0.26803 0.0
O482 O 0.61521 0.86307 0.31636 0.0
O483 O 0.57408 0.8517 0.28737 0.0
O484 O 0.55645 0.83547 0.31354 0.0
O485 O 0.59665 0.8352 0.33492 0.0
O486 O 0.57774 0.83062 0.35544 0.0
C487 C 0.56257 0.84645 0.29589 0.0
C488 C 0.58636 0.82797 0.35875 0.0
O489 O 0.60205 0.86017 0.25008 0.0
Mg490 Mg 0.13165 0.72271 0.2816 0.0
O491 O 0.14748 0.73073 0.21925 0.0
O492 O 0.16275 0.72768 0.24659 0.0
Mg493 Mg 0.15552 0.71457 0.31806 0.0
C494 C 0.15826 0.73224 0.21363 0.0
C495 C 0.12431 0.73728 0.20534 0.0
O496 O 0.13594 0.74518 0.21398 0.0
O497 O 0.12422 0.70366 0.24605 0.0
O498 O 0.14027 0.70227 0.25955 0.0
O499 O 0.14184 0.73963 0.32957 0.0
O500 O 0.14476 0.72382 0.33936 0.0
C501 C 0.12949 0.69924 0.27425 0.0
C502 C 0.14808 0.73505 0.35064 0.0
O503 O 0.1196 0.72673 0.22684 0.0
C504 C 0.18431 0.96267 0.34155 0.0
C505 C 0.18997 0.95831 0.37711 0.0
C506 C 0.18929 0.96719 0.2906 0.0
C507 C 0.21911 0.98318 0.22714 0.0
H508 H 0.19972 0.98353 0.10588 0.0
C509 C 0.23912 0.02515 0.09924 0.0
C510 C 0.23147 0.03025 0.10394 0.0
C511 C 0.23432 0.01256 0.10586 0.0
C512 C 0.20532 0.9834 0.13891 0.0
H513 H 0.20534 0.9552 0.3865 0.0
H514 H 0.21404 0.96311 0.29736 0.0
H515 H 0.19028 0.96752 0.17462 0.0
H516 H 0.21257 0.02596 0.11001 0.0
H517 H 0.20428 0.00422 0.12273 0.0
H518 H 0.23386 -0.00048 0.1944 0.0
C519 C 0.20567 0.96293 0.30896 0.0
C520 C 0.1999 0.97426 0.17834 0.0
C521 C 0.20068 0.95843 0.36009 0.0
C522 C 0.21876 0.02236 0.10753 0.0
C523 C 0.21397 0.0098 0.1142 0.0
C524 C 0.22451 0.99229 0.18784 0.0
C525 C 0.20016 0.96759 0.27406 0.0
C526 C 0.20656 0.97455 0.22463 0.0
C527 C 0.22181 0.00489 0.11736 0.0
C528 C 0.21745 0.99299 0.14529 0.0
H529 H 0.17618 0.96292 0.35371 0.0
H530 H 0.18498 0.97099 0.26541 0.0
H531 H 0.22452 0.9837 0.2622 0.0
H532 H 0.24895 0.03096 0.09533 0.0
H533 H 0.24055 0.00899 0.10675 0.0
C534 C 0.97338 0.21806 0.14266 0.0
C535 C 0.9684 0.2055 0.13177 0.0
C536 C 0.98555 0.22513 0.15931 0.0
C537 C 0.01391 0.22366 0.19064 0.0
H538 H 0.01094 0.23651 0.32901 0.0
C539 C 0.03433 0.21774 0.38644 0.0
C540 C 0.03808 0.22657 0.42773 0.0
C541 C 0.02952 0.21927 0.33805 0.0
C542 C 0.01217 0.23329 0.29009 0.0
H543 H 0.97276 0.19099 0.12209 0.0
H544 H 0.99373 0.20313 0.15236 0.0
H545 H 0.99609 0.23254 0.25873 0.0
H546 H 0.03966 0.24397 0.45035 0.0
H547 H 0.03136 0.24665 0.36574 0.0
H548 H 0.02959 0.22365 0.22411 0.0
C549 C 0.98836 0.20761 0.14812 0.0
C550 C 0.00363 0.23105 0.24945 0.0
C551 C 0.97623 0.20057 0.13126 0.0
C552 C 0.03697 0.23702 0.41929 0.0
C553 C 0.03221 0.23857 0.37078 0.0
C554 C 0.02247 0.2259 0.23147 0.0
C555 C 0.99292 0.21974 0.16558 0.0
C556 C 0.00401 0.22559 0.20033 0.0
C557 C 0.02824 0.22962 0.33 0.0
C558 C 0.0213 0.23015 0.28255 0.0
H559 H 0.96767 0.22223 0.14229 0.0
H560 H 0.98891 0.23455 0.17121 0.0
H561 H 0.01459 0.21967 0.15282 0.0
H562 H 0.03483 0.20948 0.39196 0.0
H563 H 0.02627 0.21205 0.30804 0.0
C564 C 0.75652 0.79468 0.27558 0.0
C565 C 0.76583 0.80404 0.30682 0.0
C566 C 0.7586 0.7931 0.22134 0.0
C567 C 0.76969 0.78512 0.13373 0.0
H568 H 0.7951 0.8109 0.04669 0.0
C569 C 0.79848 0.77267 0.01024 0.0
C570 C 0.81056 0.77957 0.02963 0.0
C571 C 0.79045 0.77724 0.01431 0.0
C572 C 0.78784 0.80358 0.06989 0.0
H573 H 0.7845 0.8192 0.30531 0.0
H574 H 0.78829 0.81618 0.21179 0.0
H575 H 0.78467 0.81608 0.11627 0.0
H576 H 0.82422 0.79741 0.05987 0.0
H577 H 0.81023 0.80518 0.06858 0.0
H578 H 0.77337 0.77271 0.09074 0.0
C579 C 0.77923 0.81032 0.22824 0.0
C580 C 0.7819 0.80654 0.10989 0.0
C581 C 0.77711 0.81197 0.2822 0.0
C582 C 0.81491 0.79175 0.04561 0.0
C583 C 0.80686 0.79627 0.05011 0.0
C584 C 0.77558 0.78216 0.09377 0.0
C585 C 0.77011 0.80068 0.19749 0.0
C586 C 0.77337 0.79742 0.14466 0.0
C587 C 0.79434 0.78871 0.03839 0.0
C588 C 0.78531 0.79144 0.06401 0.0
H589 H 0.74768 0.78844 0.29317 0.0
H590 H 0.75134 0.78566 0.19865 0.0
H591 H 0.76318 0.77782 0.15959 0.0
H592 H 0.79493 0.76335 0.99621 0.0
H593 H 0.78094 0.77133 0.00343 0.0
C594 C 0.77897 0.96521 0.83706 0.0
C595 C 0.76695 0.95888 0.85733 0.0
C596 C 0.78521 0.97792 0.83281 0.0
C597 C 0.7789 0.00327 0.8183 0.0
H598 H 0.81435 0.02235 0.81974 0.0
C599 C 0.8053 0.04947 0.70636 0.0
C600 C 0.81661 0.05844 0.72742 0.0
C601 C 0.7991 0.0378 0.72967 0.0
C602 C 0.80444 0.01729 0.81997 0.0
H603 H 0.75242 0.96105 0.89311 0.0
H604 H 0.76353 0.98338 0.88707 0.0
H605 H 0.80415 0.00163 0.8545 0.0
H606 H 0.83007 0.06243 0.79058 0.0
H607 H 0.81908 0.04237 0.83246 0.0
H608 H 0.7792 0.01909 0.78523 0.0
C609 C 0.76796 0.97843 0.87298 0.0
C610 C 0.79858 0.00529 0.83929 0.0
C611 C 0.76165 0.96564 0.87688 0.0
C612 C 0.82147 0.05562 0.77278 0.0
C613 C 0.81517 0.04408 0.79674 0.0
C614 C 0.78477 0.01537 0.7998 0.0
C615 C 0.77968 0.98468 0.84932 0.0
C616 C 0.78576 0.99801 0.83721 0.0
C617 C 0.80396 0.03495 0.77522 0.0
C618 C 0.79763 0.02244 0.79912 0.0
H619 H 0.78339 0.96034 0.82188 0.0
H620 H 0.79415 0.98235 0.81374 0.0
H621 H 0.76902 0.99792 0.81563 0.0
H622 H 0.80135 0.05141 0.6714 0.0
H623 H 0.79061 0.03096 0.71128 0.0
C624 C 0.0373 0.80235 0.86022 0.0
C625 C 0.03796 0.81348 0.87437 0.0
C626 C 0.03334 0.79731 0.80872 0.0
C627 C 0.02486 0.80367 0.67196 0.0
H628 H -0.00022 0.76946 0.67994 0.0
C629 C 0.97884 0.78325 0.57182 0.0
C630 C 0.97182 0.77053 0.56409 0.0
C631 C 0.99108 0.78862 0.58732 0.0
C632 C 0.00701 0.77891 0.67598 0.0
H633 H 0.03465 0.82783 0.84578 0.0
H634 H 0.02734 0.81886 0.75695 0.0
H635 H 0.01361 0.77877 0.7553 0.0
H636 H 0.97259 0.75375 0.55816 0.0
H637 H 0.99401 0.76316 0.58544 0.0
H638 H 0.01747 0.80394 0.59405 0.0
C639 C 0.03041 0.81429 0.78463 0.0
C640 C 0.01496 0.78429 0.71955 0.0
C641 C 0.03449 0.81938 0.83588 0.0
C642 C 0.97771 0.76356 0.56467 0.0
C643 C 0.98998 0.76894 0.58045 0.0
C644 C 0.01683 0.79829 0.62837 0.0
C645 C 0.02964 0.80311 0.7706 0.0
C646 C 0.02354 0.79688 0.71928 0.0
C647 C 0.99651 0.78135 0.59555 0.0
C648 C 0.0074 0.78601 0.63128 0.0
H649 H 0.03978 0.79746 0.88897 0.0
H650 H 0.03291 0.78872 0.79918 0.0
H651 H 0.03161 0.81333 0.66991 0.0
H652 H 0.9746 0.7889 0.57062 0.0
H653 H 0.99582 0.79821 0.59847 0.0
C654 C 0.21019 0.18807 0.62552 0.0
C655 C 0.22294 0.19394 0.61845 0.0
C656 C 0.20463 0.19479 0.64087 0.0
C657 C 0.21389 0.21998 0.7311 0.0
H658 H 0.17968 0.21083 0.72176 0.0
C659 C 0.19016 0.22759 0.91238 0.0
C660 C 0.17854 0.21762 0.92492 0.0
C661 C 0.19549 0.22836 0.86187 0.0
C662 C 0.18927 0.21351 0.72486 0.0
H663 H 0.23956 0.21164 0.61311 0.0
H664 H 0.22983 0.22335 0.6402 0.0
H665 H 0.18922 0.20596 0.6469 0.0
H666 H 0.16365 0.20045 0.89476 0.0
H667 H 0.17316 0.20148 0.80794 0.0
H668 H 0.2138 0.22655 0.81048 0.0
C669 C 0.22418 0.21354 0.63483 0.0
C670 C 0.19474 0.21082 0.68176 0.0
C671 C 0.22974 0.20682 0.61918 0.0
C672 C 0.1725 0.20837 0.88604 0.0
C673 C 0.17791 0.20904 0.83589 0.0
C674 C 0.20841 0.22255 0.77428 0.0
C675 C 0.21175 0.20748 0.64956 0.0
C676 C 0.20695 0.21352 0.68561 0.0
C677 C 0.18952 0.21899 0.82327 0.0
C678 C 0.19588 0.21881 0.77279 0.0
H679 H 0.20465 0.17818 0.62417 0.0
H680 H 0.19502 0.18983 0.65169 0.0
H681 H 0.22328 0.22206 0.73579 0.0
H682 H 0.19516 0.23484 0.94149 0.0
H683 H 0.2044 0.23621 0.85346 0.0
C684 C 0.84514 0.2945 0.67993 0.0
C685 C 0.85084 0.29188 0.72269 0.0
C686 C 0.85051 0.2975 0.62861 0.0
C687 C 0.88086 0.31148 0.56663 0.0
H688 H 0.86194 0.30644 0.43557 0.0
C689 C 0.90258 0.34637 0.40587 0.0
C690 C 0.89548 0.35208 0.40144 0.0
C691 C 0.89712 0.33412 0.42219 0.0
C692 C 0.8674 0.30777 0.47152 0.0
H693 H 0.86681 0.29056 0.74488 0.0
H694 H 0.87599 0.29549 0.65516 0.0
H695 H 0.85207 0.29398 0.51571 0.0
H696 H 0.87694 0.34892 0.39971 0.0
H697 H 0.86749 0.32779 0.42859 0.0
H698 H 0.89596 0.32573 0.52428 0.0
C699 C 0.86736 0.29523 0.66131 0.0
C700 C 0.86173 0.30071 0.51756 0.0
C701 C 0.86206 0.29236 0.7128 0.0
C702 C 0.88267 0.34483 0.40417 0.0
C703 C 0.87723 0.33262 0.42038 0.0
C704 C 0.88652 0.31847 0.52071 0.0
C705 C 0.86175 0.29803 0.61876 0.0
C706 C 0.86825 0.303 0.56654 0.0
C707 C 0.88454 0.32749 0.4342 0.0
C708 C 0.87968 0.31722 0.47366 0.0
H709 H 0.83663 0.29446 0.68636 0.0
H710 H 0.84607 0.29993 0.59734 0.0
H711 H 0.8862 0.31357 0.60352 0.0
H712 H 0.91247 0.35166 0.40308 0.0
H713 H 0.90294 0.33029 0.43106 0.0
C714 C 0.62312 0.52915 0.5188 0.0
C715 C 0.61676 0.51629 0.52135 0.0
C716 C 0.63552 0.53583 0.53228 0.0
C717 C 0.6585 0.53257 0.61212 0.0
H718 H 0.68137 0.56333 0.54354 0.0
C719 C 0.71082 0.55765 0.64419 0.0
C720 C 0.71689 0.57045 0.64995 0.0
C721 C 0.69833 0.5511 0.63251 0.0
C722 C 0.67502 0.55482 0.56344 0.0
H723 H 0.61863 0.50033 0.53607 0.0
H724 H 0.64036 0.51198 0.55776 0.0
H725 H 0.66047 0.55158 0.50921 0.0
H726 H 0.71452 0.58637 0.65041 0.0
H727 H 0.69265 0.57486 0.6295 0.0
H728 H 0.6732 0.53573 0.6655 0.0
C729 C 0.63567 0.51692 0.54725 0.0
C730 C 0.66307 0.54808 0.54377 0.0
C731 C 0.62324 0.51024 0.53434 0.0
C732 C 0.7101 0.57651 0.64626 0.0
C733 C 0.69762 0.56995 0.63388 0.0
C734 C 0.67049 0.53925 0.6314 0.0
C735 C 0.64186 0.52979 0.54801 0.0
C736 C 0.65467 0.53686 0.56783 0.0
C737 C 0.6917 0.55723 0.62581 0.0
C738 C 0.67885 0.55043 0.60724 0.0
H739 H 0.61839 0.5341 0.50914 0.0
H740 H 0.63997 0.54573 0.53277 0.0
H741 H 0.6522 0.52411 0.63244 0.0
H742 H 0.71579 0.55273 0.64706 0.0
H743 H 0.69398 0.54129 0.62631 0.0
C744 C 0.43195 0.13327 0.69129 0.0
C745 C 0.44196 0.14446 0.70839 0.0
C746 C 0.43209 0.12838 0.64069 0.0
C747 C 0.45019 0.13499 0.51213 0.0
H748 H 0.44121 0.10089 0.52581 0.0
C749 C 0.47804 0.11465 0.43247 0.0
C750 C 0.47245 0.102 0.42295 0.0
C751 C 0.47095 0.12 0.44444 0.0
C752 C 0.44345 0.1103 0.52019 0.0
H753 H 0.45991 0.15926 0.68565 0.0
H754 H 0.46039 0.15051 0.59867 0.0
H755 H 0.43476 0.1101 0.59444 0.0
H756 H 0.45502 0.08533 0.41118 0.0
H757 H 0.44263 0.09469 0.4325 0.0
H758 H 0.45978 0.13532 0.43987 0.0
C759 C 0.4522 0.14573 0.62317 0.0
C760 C 0.43974 0.11563 0.55983 0.0
C761 C 0.452 0.1507 0.6734 0.0
C762 C 0.45961 0.09508 0.41917 0.0
C763 C 0.45251 0.10042 0.43143 0.0
C764 C 0.45399 0.12966 0.47259 0.0
C765 C 0.44235 0.13439 0.60659 0.0
C766 C 0.4436 0.12819 0.55778 0.0
C767 C 0.45813 0.11277 0.4473 0.0
C768 C 0.45117 0.11742 0.4778 0.0
H769 H 0.42405 0.12819 0.71719 0.0
H770 H 0.42428 0.1197 0.62898 0.0
H771 H 0.45302 0.14461 0.50857 0.0
H772 H 0.48792 0.12029 0.43471 0.0
H773 H 0.47558 0.12953 0.45655 0.0
C774 C 0.43501 0.30336 0.33347 0.0
C775 C 0.44193 0.29912 0.30574 0.0
C776 C 0.43939 0.31592 0.3384 0.0
C777 C 0.46483 0.34636 0.28909 0.0
H778 H 0.43782 0.34559 0.2108 0.0
C779 C 0.45291 0.36788 0.0892 0.0
C780 C 0.46129 0.36694 0.05468 0.0
C781 C 0.45234 0.36493 0.14417 0.0
C782 C 0.44547 0.34629 0.23369 0.0
H783 H 0.45975 0.30465 0.27093 0.0
H784 H 0.46716 0.32633 0.27767 0.0
H785 H 0.43374 0.32993 0.27649 0.0
H786 H 0.47581 0.36251 0.05109 0.0
H787 H 0.47463 0.35711 0.146 0.0
H788 H 0.47661 0.3622 0.24187 0.0
C789 C 0.45836 0.32013 0.29565 0.0
C790 C 0.44312 0.33724 0.27189 0.0
C791 C 0.45404 0.3076 0.29115 0.0
C792 C 0.46934 0.36343 0.07669 0.0
C793 C 0.46876 0.36048 0.13142 0.0
C794 C 0.46719 0.35544 0.25073 0.0
C795 C 0.45067 0.3244 0.31503 0.0
C796 C 0.45284 0.33655 0.29642 0.0
C797 C 0.46003 0.36087 0.16557 0.0
C798 C 0.45758 0.35485 0.21946 0.0
H799 H 0.42577 0.29704 0.34683 0.0
H800 H 0.43341 0.31892 0.35528 0.0
H801 H 0.4725 0.34632 0.30868 0.0
H802 H 0.44662 0.37064 0.07364 0.0
H803 H 0.44554 0.36536 0.16946 0.0
C804 C 0.70069 0.15183 0.19262 0.0
C805 C 0.70381 0.14559 0.23091 0.0
C806 C 0.69699 0.14712 0.1405 0.0
C807 C 0.69255 0.13738 0.02604 0.0
H808 H 0.66708 0.10327 0.02771 0.0
C809 C 0.64793 0.11836 0.91486 0.0
C810 C 0.64058 0.10562 0.90823 0.0
C811 C 0.66004 0.12342 0.93207 0.0
C812 C 0.67443 0.11269 0.02546 0.0
H813 H 0.70529 0.12934 0.2443 0.0
H814 H 0.69902 0.12126 0.15314 0.0
H815 H 0.68005 0.11189 0.10605 0.0
H816 H 0.64082 0.08854 0.90437 0.0
H817 H 0.66201 0.09742 0.93387 0.0
H818 H 0.6862 0.1383 0.94654 0.0
C819 C 0.69948 0.12982 0.16347 0.0
C820 C 0.68189 0.11768 0.07082 0.0
C821 C 0.70309 0.13448 0.21577 0.0
C822 C 0.64614 0.09835 0.91048 0.0
C823 C 0.65829 0.10343 0.92755 0.0
C824 C 0.68504 0.13238 0.98055 0.0
C825 C 0.69622 0.136 0.12542 0.0
C826 C 0.69059 0.13022 0.07276 0.0
C827 C 0.66502 0.11583 0.94269 0.0
C828 C 0.67546 0.12014 0.98101 0.0
H829 H 0.70091 0.16027 0.20322 0.0
H830 H 0.69423 0.15197 0.11281 0.0
H831 H 0.69941 0.14701 0.02578 0.0
H832 H 0.64402 0.12428 0.91215 0.0
H833 H 0.66495 0.13303 0.94286 0.0
C834 C 0.87924 0.56064 0.21122 0.0
C835 C 0.86745 0.55738 0.22939 0.0
C836 C 0.88282 0.55181 0.20826 0.0
C837 C 0.86625 0.51947 0.17752 0.0
H838 H 0.89907 0.52569 0.1485 0.0
C839 C 0.87355 0.49335 0.00852 0.0
C840 C 0.88243 0.50124 0.97121 0.0
C841 C 0.87331 0.49731 0.06116 0.0
C842 C 0.88983 0.52373 0.15685 0.0
H843 H 0.85102 0.54306 0.26754 0.0
H844 H 0.85745 0.52778 0.26422 0.0
H845 H 0.89603 0.53871 0.21254 0.0
H846 H 0.89821 0.51941 0.96065 0.0
H847 H 0.89751 0.52641 0.05123 0.0
H848 H 0.86007 0.50515 0.11923 0.0
C849 C 0.86373 0.53696 0.25002 0.0
C850 C 0.88809 0.53117 0.19359 0.0
C851 C 0.86005 0.54571 0.25202 0.0
C852 C 0.89128 0.51304 0.98832 0.0
C853 C 0.89098 0.51702 0.04072 0.0
C854 C 0.86798 0.51206 0.14097 0.0
C855 C 0.87472 0.53964 0.22409 0.0
C856 C 0.87635 0.5296 0.20165 0.0
C857 C 0.88178 0.50933 0.0773 0.0
C858 C 0.87985 0.51459 0.12767 0.0
H859 H 0.88519 0.5696 0.19397 0.0
H860 H 0.89138 0.55427 0.18816 0.0
H861 H 0.85706 0.51795 0.18217 0.0
H862 H 0.86652 0.48425 0.99658 0.0
H863 H 0.86615 0.49112 0.08846 0.0
C864 C 0.58209 0.70644 0.89257 0.0
C865 C 0.57122 0.70464 0.86814 0.0
C866 C 0.5823 0.70392 0.94762 0.0
C867 C 0.57526 0.68482 0.03373 0.0
H868 H 0.54886 0.67989 0.12965 0.0
C869 C 0.54652 0.63817 0.10595 0.0
C870 C 0.53499 0.63429 0.08239 0.0
C871 C 0.55412 0.65046 0.11996 0.0
C872 C 0.55647 0.68131 0.10424 0.0
H873 H 0.55232 0.69953 0.88301 0.0
H874 H 0.55249 0.69467 0.97762 0.0
H875 H 0.55828 0.6978 0.07068 0.0
H876 H 0.52155 0.63973 0.06422 0.0
H877 H 0.5348 0.66103 0.08631 0.0
H878 H 0.57283 0.66792 0.06295 0.0
C879 C 0.56101 0.6984 0.95533 0.0
C880 C 0.56185 0.69157 0.07028 0.0
C881 C 0.56084 0.70103 0.90061 0.0
C882 C 0.53051 0.64248 0.08082 0.0
C883 C 0.53813 0.65476 0.09436 0.0
C884 C 0.56994 0.67463 0.06769 0.0
C885 C 0.57157 0.69927 0.97904 0.0
C886 C 0.57039 0.69268 0.03073 0.0
C887 C 0.55037 0.65908 0.10978 0.0
C888 C 0.5596 0.67211 0.09892 0.0
H889 H 0.59032 0.70936 0.86886 0.0
H890 H 0.59064 0.70488 0.96471 0.0
H891 H 0.58198 0.68543 0.00471 0.0
H892 H 0.5501 0.63198 0.10941 0.0
H893 H 0.56336 0.65341 0.13342 0.0
C894 C 0.36451 0.90708 0.94951 0.0
C895 C 0.36486 0.89867 0.98593 0.0
C896 C 0.36092 0.90375 0.89577 0.0
C897 C 0.34141 0.8904 0.81267 0.0
H898 H 0.34092 0.86274 0.74169 0.0
C899 C 0.29856 0.85785 0.70757 0.0
C900 C 0.29387 0.84644 0.73358 0.0
C901 C 0.31116 0.86605 0.70679 0.0
C902 C 0.34109 0.87059 0.76032 0.0
H903 H 0.36222 0.88039 0.99384 0.0
H904 H 0.35536 0.87436 0.90129 0.0
H905 H 0.35736 0.87519 0.80524 0.0
H906 H 0.2988 0.83394 0.77118 0.0
H907 H 0.32057 0.84828 0.77167 0.0
H908 H 0.32477 0.88541 0.77146 0.0
C909 C 0.35829 0.88368 0.91329 0.0
C910 C 0.35047 0.8777 0.79691 0.0
C911 C 0.36209 0.88708 0.96674 0.0
C912 C 0.30208 0.84276 0.75187 0.0
C913 C 0.31466 0.85099 0.75157 0.0
C914 C 0.3321 0.88336 0.77611 0.0
C915 C 0.35724 0.89183 0.87763 0.0
C916 C 0.35021 0.88712 0.82636 0.0
C917 C 0.31924 0.86304 0.73265 0.0
C918 C 0.33133 0.87284 0.75259 0.0
H919 H 0.36666 0.91613 0.96274 0.0
H920 H 0.36043 0.91033 0.86919 0.0
H921 H 0.34084 0.89756 0.83434 0.0
H922 H 0.29248 0.86084 0.69164 0.0
H923 H 0.31444 0.87514 0.69044 0.0
C924 C 0.14409 0.45248 0.78751 0.0
C925 C 0.13785 0.43965 0.78262 0.0
C926 C 0.13786 0.45849 0.80388 0.0
C927 C 0.11275 0.45156 0.89375 0.0
H928 H 0.12165 0.4853 0.86633 0.0
C929 C 0.12049 0.49494 0.02715 0.0
C930 C 0.11075 0.48888 0.06383 0.0
C931 C 0.12089 0.48913 0.9796 0.0
C932 C 0.11906 0.47587 0.87443 0.0
H933 H 0.11993 0.42324 0.78459 0.0
H934 H 0.10909 0.43376 0.81302 0.0
H935 H 0.1275 0.47447 0.80139 0.0
H936 H 0.09351 0.47207 0.07794 0.0
H937 H 0.0939 0.46231 0.99413 0.0
H938 H 0.10511 0.45306 0.96817 0.0
C939 C 0.11884 0.43912 0.80527 0.0
C940 C 0.12235 0.46966 0.83712 0.0
C941 C 0.12506 0.43311 0.78901 0.0
C942 C 0.10115 0.47709 0.05065 0.0
C943 C 0.10141 0.47142 0.00264 0.0
C944 C 0.10956 0.45776 0.93107 0.0
C945 C 0.12528 0.45178 0.81553 0.0
C946 C 0.11956 0.45757 0.84737 0.0
C947 C 0.11151 0.47716 0.96751 0.0
C948 C 0.11302 0.47012 0.92283 0.0
H949 H 0.15392 0.45784 0.78216 0.0
H950 H 0.14312 0.46824 0.8116 0.0
H951 H 0.11065 0.44233 0.90346 0.0
H952 H 0.12808 0.50397 0.03637 0.0
H953 H 0.12891 0.49378 0.95398 0.0
C954 C 0.11102 0.64694 0.63583 0.0
C955 C 0.09848 0.63885 0.64431 0.0
C956 C 0.11532 0.65937 0.62749 0.0
C957 C 0.10138 0.67428 0.55703 0.0
H958 H 0.13563 0.69833 0.5368 0.0
C959 C 0.13358 0.69436 0.36744 0.0
C960 C 0.12698 0.69793 0.33336 0.0
C961 C 0.13103 0.69261 0.42273 0.0
C962 C 0.12599 0.69183 0.54256 0.0
H963 H 0.08114 0.63779 0.6627 0.0
H964 H 0.08872 0.65955 0.6492 0.0
H965 H 0.12924 0.6855 0.61784 0.0
H966 H 0.11247 0.70245 0.33107 0.0
H967 H 0.10786 0.69913 0.42778 0.0
H968 H 0.09823 0.67995 0.48016 0.0
C969 C 0.09514 0.65623 0.64656 0.0
C970 C 0.12232 0.68448 0.58898 0.0
C971 C 0.0908 0.64374 0.65454 0.0
C972 C 0.11779 0.69978 0.35613 0.0
C973 C 0.11518 0.69794 0.41156 0.0
C974 C 0.10503 0.68167 0.51097 0.0
C975 C 0.10715 0.66393 0.62775 0.0
C976 C 0.11013 0.67492 0.59441 0.0
C977 C 0.12166 0.69416 0.4453 0.0
C978 C 0.11749 0.68985 0.50136 0.0
H979 H 0.11727 0.64351 0.62939 0.0
H980 H 0.12469 0.66497 0.61401 0.0
H981 H 0.09189 0.66709 0.55947 0.0
H982 H 0.14052 0.6926 0.35115 0.0
H983 H 0.13595 0.68936 0.44723 0.0
C984 C 0.36495 0.45959 0.53207 0.0
C985 C 0.37123 0.4723 0.52287 0.0
C986 C 0.35225 0.45275 0.52576 0.0
C987 C 0.32414 0.45473 0.50678 0.0
H988 H 0.31585 0.42912 0.40023 0.0
C989 C 0.28202 0.4377 0.37002 0.0
C990 C 0.2751 0.42512 0.35835 0.0
C991 C 0.2932 0.44247 0.39704 0.0
C992 C 0.31791 0.43607 0.43071 0.0
H993 H 0.36903 0.48797 0.5057 0.0
H994 H 0.34692 0.47607 0.49508 0.0
H995 H 0.33595 0.43895 0.4428 0.0
H996 H 0.27465 0.40773 0.36498 0.0
H997 H 0.29413 0.41606 0.41261 0.0
H998 H 0.30618 0.45202 0.49389 0.0
C999 C 0.35177 0.47136 0.50672 0.0
C1000 C 0.32942 0.44168 0.45525 0.0
C1001 C 0.36446 0.47818 0.5125 0.0
C1002 C 0.27978 0.41747 0.37305 0.0
C1003 C 0.29095 0.42225 0.40041 0.0
C1004 C 0.31259 0.44907 0.4825 0.0
C1005 C 0.34562 0.45854 0.51087 0.0
C1006 C 0.33276 0.45127 0.4925 0.0
C1007 C 0.2977 0.43477 0.41333 0.0
C1008 C 0.30947 0.4399 0.4431 0.0
H1009 H 0.36989 0.45479 0.54034 0.0
H1010 H 0.34768 0.44289 0.52989 0.0
H1011 H 0.32644 0.46202 0.53576 0.0
H1012 H 0.27874 0.44387 0.35894 0.0
H1013 H 0.29832 0.45222 0.40511 0.0
C1014 C 0.52487 0.91176 0.45779 0.0
C1015 C 0.51216 0.90706 0.45459 0.0
C1016 C 0.53005 0.90502 0.43754 0.0
C1017 C 0.52354 0.87426 0.40079 0.0
H1018 H 0.5504 0.89105 0.29936 0.0
C1019 C 0.54359 0.84802 0.29457 0.0
C1020 C 0.55644 0.85382 0.29428 0.0
C1021 C 0.53775 0.85468 0.30591 0.0
C1022 C 0.54298 0.88625 0.32791 0.0
H1023 H 0.49486 0.89134 0.43074 0.0
H1024 H 0.50391 0.8795 0.3965 0.0
H1025 H 0.5414 0.90216 0.34213 0.0
H1026 H 0.57321 0.87132 0.30145 0.0
H1027 H 0.56306 0.88287 0.32259 0.0
H1028 H 0.52529 0.85846 0.3883 0.0
C1029 C 0.50985 0.88844 0.41406 0.0
C1030 C 0.53785 0.89262 0.35241 0.0
C1031 C 0.50468 0.89522 0.43358 0.0
C1032 C 0.5633 0.86658 0.30127 0.0
C1033 C 0.55745 0.87321 0.31337 0.0
C1034 C 0.52875 0.86792 0.37683 0.0
C1035 C 0.5226 0.89341 0.41457 0.0
C1036 C 0.52812 0.88669 0.3892 0.0
C1037 C 0.54462 0.86725 0.31796 0.0
C1038 C 0.53856 0.87384 0.34018 0.0
H1039 H 0.53088 0.92086 0.47358 0.0
H1040 H 0.5399 0.90898 0.439 0.0
H1041 H 0.51609 0.86951 0.4293 0.0
H1042 H 0.53806 0.83821 0.2886 0.0
H1043 H 0.52784 0.84987 0.30744 0.0
C1044 C 0.262 0.15616 0.72418 0.0
C1045 C 0.25233 0.15865 0.7208 0.0
C1046 C 0.26069 0.14617 0.75416 0.0
C1047 C 0.24224 0.12588 0.86579 0.0
H1048 H 0.25687 0.10647 0.82246 0.0
C1049 C 0.23429 0.08446 0.99003 0.0
C1050 C 0.24495 0.08435 0.00576 0.0
C1051 C 0.23468 0.09217 0.94868 0.0
C1052 C 0.25277 0.11185 0.83498 0.0
H1053 H 0.23362 0.15246 0.74552 0.0
H1054 H 0.23119 0.13486 0.79605 0.0
H1055 H 0.25844 0.12269 0.76263 0.0
H1056 H 0.26422 0.09164 0.98762 0.0
H1057 H 0.26488 0.1052 0.91527 0.0
H1058 H 0.23658 0.11511 0.93799 0.0
C1059 C 0.23989 0.14076 0.77653 0.0
C1060 C 0.2537 0.12115 0.80092 0.0
C1061 C 0.24124 0.1508 0.74705 0.0
C1062 C 0.25585 0.09154 0.97668 0.0
C1063 C 0.25623 0.09927 0.93512 0.0
C1064 C 0.24124 0.11656 0.89947 0.0
C1065 C 0.24965 0.13842 0.78114 0.0
C1066 C 0.24846 0.12829 0.81607 0.0
C1067 C 0.24574 0.09994 0.92204 0.0
C1068 C 0.2465 0.10946 0.88452 0.0
H1069 H 0.27068 0.16206 0.70446 0.0
H1070 H 0.26844 0.14473 0.7574 0.0
H1071 H 0.23835 0.13138 0.87941 0.0
H1072 H 0.22569 0.07891 0.01097 0.0
H1073 H 0.2264 0.09234 0.93865 0.0
C1074 C 0.85462 0.13776 0.67512 0.0
C1075 C 0.85397 0.12631 0.67702 0.0
C1076 C 0.86533 0.14835 0.69107 0.0
C1077 C 0.89781 0.16011 0.73293 0.0
H1078 H 0.88905 0.17392 0.85343 0.0
C1079 C 0.92087 0.16961 0.93787 0.0
C1080 C 0.92102 0.17853 0.97247 0.0
C1081 C 0.91595 0.16795 0.88586 0.0
C1082 C 0.89181 0.17052 0.8191 0.0
H1083 H 0.86441 0.11718 0.69127 0.0
H1084 H 0.88286 0.13541 0.71947 0.0
H1085 H 0.87388 0.16224 0.78497 0.0
H1086 H 0.91708 0.19343 0.97778 0.0
H1087 H 0.90846 0.19047 0.8869 0.0
H1088 H 0.91552 0.16768 0.7696 0.0
C1089 C 0.87519 0.13633 0.70587 0.0
C1090 C 0.88308 0.1638 0.77964 0.0
C1091 C 0.86449 0.12578 0.69053 0.0
C1092 C 0.91694 0.18634 0.95248 0.0
C1093 C 0.91201 0.18466 0.90038 0.0
C1094 C 0.90656 0.16684 0.77244 0.0
C1095 C 0.87558 0.14765 0.70842 0.0
C1096 C 0.88577 0.15791 0.73805 0.0
C1097 C 0.91108 0.17518 0.86722 0.0
C1098 C 0.90341 0.17147 0.81762 0.0
H1099 H 0.84665 0.13845 0.66438 0.0
H1100 H 0.8654 0.15698 0.6923 0.0
H1101 H 0.9002 0.15587 0.70062 0.0
H1102 H 0.92404 0.16351 0.95172 0.0
H1103 H 0.91524 0.16045 0.86168 0.0
C1104 C 0.91008 0.75237 0.68602 0.0
C1105 C 0.90648 0.74172 0.65536 0.0
C1106 C 0.90139 0.7542 0.71271 0.0
C1107 C 0.88055 0.75868 0.74043 0.0
H1108 H 0.85729 0.73275 0.83394 0.0
C1109 C 0.85806 0.76775 0.92261 0.0
C1110 C 0.84612 0.75891 0.93791 0.0
C1111 C 0.86387 0.76556 0.87956 0.0
C1112 C 0.86353 0.74001 0.80718 0.0
H1113 H 0.89092 0.72455 0.62905 0.0
H1114 H 0.87569 0.72771 0.6766 0.0
H1115 H 0.87039 0.72889 0.77424 0.0
H1116 H 0.83067 0.74106 0.91793 0.0
H1117 H 0.84081 0.73731 0.84226 0.0
H1118 H 0.87389 0.76989 0.77402 0.0
C1119 C 0.88527 0.73466 0.67952 0.0
C1120 C 0.87105 0.73779 0.77308 0.0
C1121 C 0.89398 0.73287 0.65232 0.0
C1122 C 0.83992 0.74804 0.90751 0.0
C1123 C 0.84573 0.74585 0.86431 0.0
C1124 C 0.87299 0.76088 0.77426 0.0
C1125 C 0.8889 0.74537 0.70983 0.0
C1126 C 0.87986 0.74721 0.74048 0.0
C1127 C 0.85787 0.75449 0.85058 0.0
C1128 C 0.86463 0.75167 0.8091 0.0
H1129 H 0.91963 0.75927 0.69002 0.0
H1130 H 0.90448 0.76243 0.73671 0.0
H1131 H 0.88713 0.76604 0.71498 0.0
H1132 H 0.86312 0.77623 0.94502 0.0
H1133 H 0.87328 0.77234 0.87056 0.0
C1134 C 0.15421 0.23158 0.79842 0.0
C1135 C 0.16157 0.24232 0.82811 0.0
C1136 C 0.14625 0.23141 0.75855 0.0
C1137 C 0.12908 0.24666 0.72244 0.0
H1138 H 0.12546 0.2315 0.58178 0.0
C1139 C 0.09753 0.24855 0.55904 0.0
C1140 C 0.09039 0.23782 0.52894 0.0
C1141 C 0.10692 0.24956 0.59258 0.0
C1142 C 0.12628 0.23566 0.6211 0.0
H1143 H 0.16663 0.26138 0.83834 0.0
H1144 H 0.15272 0.26104 0.769 0.0
H1145 H 0.14058 0.23222 0.64589 0.0
H1146 H 0.0876 0.21977 0.5101 0.0
H1147 H 0.10374 0.22143 0.56951 0.0
H1148 H 0.11463 0.24985 0.69863 0.0
C1149 C 0.15303 0.25275 0.77682 0.0
C1150 C 0.13495 0.23609 0.65768 0.0
C1151 C 0.16105 0.25295 0.8163 0.0
C1152 C 0.09295 0.22819 0.53257 0.0
C1153 C 0.10227 0.22917 0.56641 0.0
C1154 C 0.12036 0.24615 0.68611 0.0
C1155 C 0.14545 0.24195 0.74803 0.0
C1156 C 0.13642 0.2416 0.70868 0.0
C1157 C 0.10931 0.23983 0.59712 0.0
C1158 C 0.11884 0.24064 0.63502 0.0
H1159 H 0.1545 0.22328 0.80635 0.0
H1160 H 0.14046 0.22295 0.73708 0.0
H1161 H 0.12989 0.25079 0.76184 0.0
H1162 H 0.09588 0.25619 0.55681 0.0
H1163 H 0.11231 0.25799 0.61492 0.0
C1164 C 0.73968 0.82843 0.50016 0.0
C1165 C 0.75025 0.83503 0.4682 0.0
C1166 C 0.73721 0.83413 0.54293 0.0
C1167 C 0.75187 0.86139 0.6317 0.0
H1168 H 0.7194 0.85754 0.64013 0.0
C1169 C 0.7248 0.88174 0.76429 0.0
C1170 C 0.73342 0.89426 0.75869 0.0
C1171 C 0.72621 0.87297 0.7354 0.0
C1172 C 0.72844 0.85852 0.63892 0.0
H1173 H 0.76659 0.85276 0.45683 0.0
H1174 H 0.76222 0.86268 0.5308 0.0
H1175 H 0.72324 0.8448 0.57749 0.0
H1176 H 0.74999 0.90741 0.7169 0.0
H1177 H 0.75252 0.89219 0.66757 0.0
H1178 H 0.75719 0.87544 0.69144 0.0
C1179 C 0.75592 0.85306 0.52329 0.0
C1180 C 0.73064 0.85124 0.60315 0.0
C1181 C 0.75838 0.84739 0.48055 0.0
C1182 C 0.74333 0.89784 0.72317 0.0
C1183 C 0.7448 0.88912 0.69489 0.0
C1184 C 0.74968 0.86867 0.66719 0.0
C1185 C 0.74529 0.84652 0.55475 0.0
C1186 C 0.74248 0.85288 0.59803 0.0
C1187 C 0.73633 0.87661 0.70098 0.0
C1188 C 0.73805 0.86757 0.6699 0.0
H1189 H 0.73324 0.81887 0.49197 0.0
H1190 H 0.72899 0.82885 0.56675 0.0
H1191 H 0.76101 0.86266 0.62951 0.0
H1192 H 0.71704 0.87871 0.79128 0.0
H1193 H 0.71953 0.86336 0.74055 0.0
C1194 C 0.13657 0.90627 0.49812 0.0
C1195 C 0.1485 0.90814 0.49307 0.0
C1196 C 0.1281 0.89727 0.53269 0.0
C1197 C 0.12088 0.86853 0.59999 0.0
H1198 H 0.10132 0.87629 0.69581 0.0
C1199 C 0.09237 0.83663 0.77357 0.0
C1200 C 0.08094 0.83545 0.78541 0.0
C1201 C 0.10016 0.84521 0.7358 0.0
C1202 C 0.10657 0.87391 0.66871 0.0
H1203 H 0.16085 0.90193 0.52038 0.0
H1204 H 0.14599 0.88614 0.58081 0.0
H1205 H 0.116 0.89193 0.63455 0.0
H1206 H 0.06854 0.84214 0.76595 0.0
H1207 H 0.08212 0.85709 0.69912 0.0
H1208 H 0.11143 0.8505 0.63375 0.0
C1209 C 0.14323 0.89166 0.55768 0.0
C1210 C 0.115 0.88289 0.6338 0.0
C1211 C 0.15175 0.90074 0.52333 0.0
C1212 C 0.07735 0.84291 0.758 0.0
C1213 C 0.08514 0.8515 0.7199 0.0
C1214 C 0.1124 0.85953 0.63464 0.0
C1215 C 0.13134 0.88986 0.56277 0.0
C1216 C 0.1223 0.8803 0.59937 0.0
C1217 C 0.09667 0.85278 0.70863 0.0
C1218 C 0.10521 0.86215 0.66974 0.0
H1219 H 0.13373 0.9118 0.47549 0.0
H1220 H 0.11897 0.896 0.53538 0.0
H1221 H 0.12625 0.86623 0.57324 0.0
H1222 H 0.09544 0.83105 0.79417 0.0
H1223 H 0.10904 0.84609 0.72882 0.0
C1224 C 0.74391 0.89925 0.00373 0.0
C1225 C 0.75338 0.90516 0.96562 0.0
C1226 C 0.74468 0.89192 0.04428 0.0
C1227 C 0.75967 0.87374 0.07007 0.0
H1228 H 0.74475 0.86928 0.21184 0.0
C1229 C 0.75803 0.83843 0.22446 0.0
C1230 C 0.74652 0.83093 0.24825 0.0
C1231 C 0.76028 0.84881 0.19483 0.0
C1232 C 0.74894 0.87042 0.17233 0.0
H1233 H 0.77148 0.90869 0.94269 0.0
H1234 H 0.77293 0.89614 0.01408 0.0
H1235 H 0.7465 0.88561 0.15271 0.0
H1236 H 0.7284 0.82851 0.26046 0.0
H1237 H 0.73231 0.84657 0.20871 0.0
H1238 H 0.76193 0.85844 0.08943 0.0
C1239 C 0.76475 0.89689 0.01172 0.0
C1240 C 0.74993 0.87976 0.13843 0.0
C1241 C 0.76395 0.90415 0.97095 0.0
C1242 C 0.73736 0.83409 0.2425 0.0
C1243 C 0.73963 0.8445 0.21326 0.0
C1244 C 0.75874 0.86446 0.10408 0.0
C1245 C 0.75498 0.89041 0.04792 0.0
C1246 C 0.7551 0.88139 0.08646 0.0
C1247 C 0.75108 0.85193 0.18881 0.0
C1248 C 0.75315 0.86255 0.15513 0.0
H1249 H 0.73563 0.89981 0.00083 0.0
H1250 H 0.73693 0.88698 0.07109 0.0
H1251 H 0.76351 0.87458 0.03002 0.0
H1252 H 0.76527 0.83622 0.22815 0.0
H1253 H 0.76921 0.85441 0.17666 0.0
C1254 C 0.09578 0.84879 0.02266 0.0
C1255 C 0.08887 0.85269 0.99272 0.0
C1256 C 0.10524 0.85696 0.05649 0.0
C1257 C 0.11621 0.88555 0.13249 0.0
H1258 H 0.14742 0.88652 0.12899 0.0
C1259 C 0.15795 0.92049 0.25823 0.0
C1260 C 0.16469 0.91581 0.28397 0.0
C1261 C 0.14899 0.91342 0.21988 0.0
C1262 C 0.13873 0.88629 0.13082 0.0
H1263 H 0.0864 0.86823 0.9754 0.0
H1264 H 0.10287 0.88241 0.03462 0.0
H1265 H 0.13099 0.87264 0.06873 0.0
H1266 H 0.16737 0.90012 0.2897 0.0
H1267 H 0.15169 0.88781 0.22403 0.0
H1268 H 0.12384 0.89901 0.1954 0.0
C1269 C 0.10094 0.87303 0.03191 0.0
C1270 C 0.12933 0.87834 0.0963 0.0
C1271 C 0.09156 0.86491 0.99777 0.0
C1272 C 0.16238 0.90403 0.27039 0.0
C1273 C 0.15343 0.89698 0.23241 0.0
C1274 C 0.12559 0.89345 0.16734 0.0
C1275 C 0.10791 0.86916 0.0614 0.0
C1276 C 0.11795 0.87782 0.09712 0.0
C1277 C 0.14662 0.90157 0.2067 0.0
C1278 C 0.13691 0.89382 0.16727 0.0
H1279 H 0.09396 0.83945 0.0197 0.0
H1280 H 0.1104 0.8537 0.07924 0.0
H1281 H 0.10748 0.88526 0.13421 0.0
H1282 H 0.1596 0.92958 0.26761 0.0
H1283 H 0.14398 0.91726 0.20032 0.0
C1284 C 0.14598 0.24454 0.06272 0.0
C1285 C 0.14148 0.23393 0.03069 0.0
C1286 C 0.13808 0.24641 0.09592 0.0
C1287 C 0.10889 0.22961 0.16763 0.0
H1288 H 0.11035 0.26105 0.17467 0.0
C1289 C 0.07464 0.23625 0.29663 0.0
C1290 C 0.0794 0.24714 0.32667 0.0
C1291 C 0.08173 0.23487 0.25677 0.0
C1292 C 0.10991 0.25225 0.1736 0.0
H1293 H 0.12509 0.21701 0.00817 0.0
H1294 H 0.11139 0.22027 0.06631 0.0
H1295 H 0.12392 0.25828 0.11299 0.0
H1296 H 0.0952 0.26524 0.33781 0.0
H1297 H 0.10766 0.26274 0.2693 0.0
H1298 H 0.09514 0.22361 0.22903 0.0
C1299 C 0.12103 0.22711 0.06582 0.0
C1300 C 0.11767 0.25067 0.13821 0.0
C1301 C 0.12889 0.22528 0.03232 0.0
C1302 C 0.09126 0.25674 0.31517 0.0
C1303 C 0.09839 0.25533 0.27565 0.0
C1304 C 0.10121 0.23121 0.2033 0.0
C1305 C 0.12555 0.23766 0.09812 0.0
C1306 C 0.11724 0.23934 0.13497 0.0
C1307 C 0.09376 0.24432 0.2464 0.0
C1308 C 0.10164 0.24255 0.20684 0.0
H1309 H 0.15562 0.2514 0.06232 0.0
H1310 H 0.14182 0.25458 0.12075 0.0
H1311 H 0.10848 0.22083 0.1665 0.0
H1312 H 0.06547 0.22875 0.30414 0.0
H1313 H 0.07779 0.22637 0.23425 0.0
C1314 C 0.84832 0.7432 0.16899 0.0
C1315 C 0.84561 0.75268 0.16314 0.0
C1316 C 0.85876 0.74517 0.19715 0.0
C1317 C 0.87975 0.76471 0.30319 0.0
H1318 H 0.89929 0.75037 0.25787 0.0
C1319 C 0.91944 0.76993 0.43473 0.0
C1320 C 0.91958 0.75902 0.44462 0.0
C1321 C 0.91235 0.77058 0.39282 0.0
C1322 C 0.8939 0.7544 0.27109 0.0
H1323 H 0.85182 0.77172 0.18163 0.0
H1324 H 0.87009 0.77519 0.2305 0.0
H1325 H 0.88295 0.74875 0.19902 0.0
H1326 H 0.913 0.74048 0.41594 0.0
H1327 H 0.90047 0.74155 0.34348 0.0
H1328 H 0.89037 0.77004 0.37583 0.0
C1329 C 0.86409 0.76621 0.21359 0.0
C1330 C 0.88455 0.75347 0.23744 0.0
C1331 C 0.85366 0.76423 0.18533 0.0
C1332 C 0.91308 0.74902 0.40951 0.0
C1333 C 0.90593 0.74966 0.36775 0.0
C1334 C 0.88906 0.76562 0.33681 0.0
C1335 C 0.8667 0.75667 0.22021 0.0
C1336 C 0.87727 0.75847 0.25352 0.0
C1337 C 0.90519 0.76032 0.36004 0.0
C1338 C 0.89615 0.76034 0.32152 0.0
H1339 H 0.8423 0.73419 0.15231 0.0
H1340 H 0.86042 0.73759 0.20218 0.0
H1341 H 0.87418 0.76849 0.31713 0.0
H1342 H 0.92446 0.77786 0.46055 0.0
H1343 H 0.91218 0.77902 0.38715 0.0
C1344 C 0.24264 0.09194 0.22032 0.0
C1345 C 0.2541 0.09283 0.22703 0.0
C1346 C 0.24008 0.10033 0.24568 0.0
C1347 C 0.25521 0.13025 0.32007 0.0
H1348 H 0.22251 0.11824 0.37666 0.0
C1349 C 0.24504 0.16054 0.45992 0.0
C1350 C 0.2376 0.15456 0.5049 0.0
C1351 C 0.24572 0.15377 0.41649 0.0
C1352 C 0.23173 0.12175 0.3615 0.0
H1353 H 0.27187 0.10306 0.26526 0.0
H1354 H 0.26725 0.11723 0.31206 0.0
H1355 H 0.22675 0.10488 0.32163 0.0
H1356 H 0.22472 0.13681 0.53874 0.0
H1357 H 0.22629 0.12508 0.46497 0.0
H1358 H 0.26044 0.14674 0.36371 0.0
C1359 C 0.26033 0.11042 0.28569 0.0
C1360 C 0.23412 0.11412 0.32901 0.0
C1361 C 0.26296 0.10222 0.25936 0.0
C1362 C 0.23049 0.14173 0.50457 0.0
C1363 C 0.23133 0.13497 0.4618 0.0
C1364 C 0.25288 0.13778 0.35353 0.0
C1365 C 0.24886 0.10963 0.27916 0.0
C1366 C 0.24598 0.11817 0.30889 0.0
C1367 C 0.23914 0.14087 0.41762 0.0
C1368 C 0.24117 0.13353 0.37582 0.0
H1369 H 0.23575 0.08497 0.19454 0.0
H1370 H 0.23124 0.09955 0.23863 0.0
H1371 H 0.26437 0.13385 0.30409 0.0
H1372 H 0.25054 0.17044 0.45878 0.0
H1373 H 0.25161 0.15866 0.38265 0.0
C1374 C 0.85576 0.09158 0.4945 0.0
C1375 C 0.84585 0.09318 0.50862 0.0
C1376 C 0.86134 0.09535 0.44377 0.0
C1377 C 0.8598 0.10912 0.31092 0.0
H1378 H 0.89477 0.12917 0.33443 0.0
C1379 C 0.89063 0.15478 0.20265 0.0
C1380 C 0.90304 0.15853 0.19412 0.0
C1381 C 0.88283 0.14351 0.22716 0.0
C1382 C 0.88508 0.12342 0.32638 0.0
H1383 H 0.83326 0.09882 0.47849 0.0
H1384 H 0.84317 0.10573 0.39118 0.0
H1385 H 0.88219 0.11457 0.40286 0.0
H1386 H 0.91674 0.15298 0.20072 0.0
H1387 H 0.9031 0.1333 0.24298 0.0
H1388 H 0.86276 0.11868 0.23553 0.0
C1389 C 0.8466 0.10143 0.41866 0.0
C1390 C 0.87781 0.11497 0.36578 0.0
C1391 C 0.84091 0.09751 0.46908 0.0
C1392 C 0.90726 0.15042 0.20705 0.0
C1393 C 0.89945 0.13915 0.2315 0.0
C1394 C 0.8671 0.11766 0.27151 0.0
C1395 C 0.85725 0.10096 0.40641 0.0
C1396 C 0.86503 0.10798 0.35945 0.0
C1397 C 0.88727 0.13577 0.24363 0.0
C1398 C 0.87977 0.12517 0.27966 0.0
H1399 H 0.85966 0.08808 0.52373 0.0
H1400 H 0.86931 0.09451 0.43509 0.0
H1401 H 0.85002 0.10374 0.30424 0.0
H1402 H 0.88708 0.16079 0.19291 0.0
H1403 H 0.87353 0.14125 0.2363 0.0
C1404 C 0.8962 0.40617 0.29423 0.0
C1405 C 0.90742 0.40682 0.30596 0.0
C1406 C 0.89558 0.41402 0.25614 0.0
C1407 C 0.91242 0.43596 0.14551 0.0
H1408 H 0.89406 0.45132 0.19438 0.0
C1409 C 0.91749 0.47975 0.0471 0.0
C1410 C 0.90677 0.48033 0.03876 0.0
C1411 C 0.91716 0.47018 0.07697 0.0
C1412 C 0.89908 0.447 0.17975 0.0
H1413 H 0.92667 0.41575 0.28451 0.0
H1414 H 0.92561 0.42957 0.21832 0.0
H1415 H 0.89408 0.43524 0.24875 0.0
H1416 H 0.88733 0.47146 0.05613 0.0
H1417 H 0.88673 0.45469 0.10796 0.0
H1418 H 0.91756 0.44791 0.07682 0.0
C1419 C 0.91726 0.42292 0.23837 0.0
C1420 C 0.89909 0.43776 0.21086 0.0
C1421 C 0.91788 0.41501 0.27639 0.0
C1422 C 0.89573 0.47123 0.06153 0.0
C1423 C 0.89541 0.46166 0.09151 0.0
C1424 C 0.91243 0.44522 0.11436 0.0
C1425 C 0.90617 0.42275 0.22904 0.0
C1426 C 0.90579 0.43216 0.19424 0.0
C1427 C 0.90611 0.46101 0.09932 0.0
C1428 C 0.90581 0.45089 0.13134 0.0
H1429 H 0.88793 0.39986 0.31574 0.0
H1430 H 0.88684 0.41346 0.24891 0.0
H1431 H 0.91757 0.43173 0.13134 0.0
H1432 H 0.92616 0.48663 0.03014 0.0
H1433 H 0.9256 0.47005 0.08302 0.0
C1434 C 0.56758 0.46725 0.36192 0.0
C1435 C 0.56805 0.4785 0.37047 0.0
C1436 C 0.56092 0.45972 0.31861 0.0
C1437 C 0.54359 0.45803 0.19315 0.0
H1438 H 0.52183 0.42485 0.24266 0.0
C1439 C 0.4964 0.42642 0.09774 0.0
C1440 C 0.49225 0.41382 0.09386 0.0
C1441 C 0.50747 0.43427 0.12348 0.0
C1442 C 0.52797 0.434 0.22764 0.0
H1443 H 0.56273 0.49113 0.33746 0.0
H1444 H 0.55095 0.47793 0.26267 0.0
H1445 H 0.53862 0.43895 0.30013 0.0
H1446 H 0.49655 0.3996 0.1131 0.0
H1447 H 0.51592 0.41333 0.1579 0.0
H1448 H 0.53255 0.45312 0.1214 0.0
C1449 C 0.55581 0.47493 0.28909 0.0
C1450 C 0.53764 0.4421 0.2606 0.0
C1451 C 0.56254 0.4825 0.33222 0.0
C1452 C 0.4995 0.40926 0.11541 0.0
C1453 C 0.51057 0.41712 0.14127 0.0
C1454 C 0.53387 0.44992 0.16016 0.0
C1455 C 0.55452 0.46325 0.28307 0.0
C1456 C 0.54542 0.45429 0.24431 0.0
C1457 C 0.51462 0.42969 0.14605 0.0
C1458 C 0.5258 0.43789 0.17763 0.0
H1459 H 0.57188 0.46397 0.39016 0.0
H1460 H 0.56036 0.4509 0.31434 0.0
H1461 H 0.54951 0.46731 0.17907 0.0
H1462 H 0.49104 0.43022 0.08142 0.0
H1463 H 0.51023 0.44387 0.12717 0.0
C1464 C 0.56417 0.07261 0.01426 0.0
C1465 C 0.57654 0.08168 0.00906 0.0
C1466 C 0.55595 0.07513 0.04132 0.0
C1467 C 0.55574 0.09537 0.14696 0.0
H1468 H 0.52167 0.08165 0.10579 0.0
C1469 C 0.52279 0.10128 0.28528 0.0
C1470 C 0.51183 0.09039 0.29664 0.0
C1471 C 0.53006 0.1019 0.24139 0.0
C1472 C 0.53116 0.08554 0.11778 0.0
H1473 H 0.5899 0.10062 0.02674 0.0
H1474 H 0.57554 0.10506 0.07321 0.0
H1475 H 0.53579 0.07951 0.04491 0.0
H1476 H 0.49949 0.0719 0.26846 0.0
H1477 H 0.51228 0.07291 0.19263 0.0
H1478 H 0.55112 0.10103 0.22043 0.0
C1479 C 0.57222 0.09595 0.05693 0.0
C1480 C 0.53923 0.0843 0.08299 0.0
C1481 C 0.58044 0.09343 0.02998 0.0
C1482 C 0.5079 0.08042 0.26099 0.0
C1483 C 0.51521 0.08102 0.21726 0.0
C1484 C 0.54769 0.09659 0.18166 0.0
C1485 C 0.55994 0.08677 0.06375 0.0
C1486 C 0.55156 0.08904 0.09766 0.0
C1487 C 0.52657 0.09163 0.20809 0.0
C1488 C 0.53527 0.09152 0.16793 0.0
H1489 H 0.56088 0.06347 -0.0015 0.0
H1490 H 0.54658 0.06782 0.04645 0.0
H1491 H 0.56512 0.09894 0.15994 0.0
H1492 H 0.52601 0.1092 0.31146 0.0
H1493 H 0.53863 0.1103 0.23465 0.0
C1494 C 0.77165 0.59393 0.83929 0.0
C1495 C 0.76509 0.58377 0.8051 0.0
C1496 C 0.77791 0.59308 0.88437 0.0
C1497 C 0.79218 0.57517 0.92679 0.0
H1498 H 0.80005 0.59485 0.0572 0.0
C1499 C 0.8264 0.57592 0.08196 0.0
C1500 C 0.83558 0.58764 0.09828 0.0
C1501 C 0.81599 0.57436 0.05489 0.0
C1502 C 0.79793 0.58931 0.02093 0.0
H1503 H 0.75888 0.56447 0.79442 0.0
H1504 H 0.76944 0.56288 0.87398 0.0
H1505 H 0.78429 0.59366 0.99557 0.0
H1506 H 0.84084 0.60685 0.10077 0.0
H1507 H 0.8227 0.60414 0.05283 0.0
H1508 H 0.80594 0.57101 0.95129 0.0
C1509 C 0.77015 0.57162 0.86492 0.0
C1510 C 0.78891 0.58863 0.98564 0.0
C1511 C 0.76404 0.57251 0.8195 0.0
C1512 C 0.83394 0.59771 0.08856 0.0
C1513 C 0.82351 0.59614 0.0615 0.0
C1514 C 0.80111 0.57579 0.9621 0.0
C1515 C 0.77761 0.58203 0.89651 0.0
C1516 C 0.78607 0.5817 0.93765 0.0
C1517 C 0.81453 0.58448 0.04347 0.0
C1518 C 0.80423 0.58302 0.0091 0.0
H1519 H 0.77265 0.60275 0.82927 0.0
H1520 H 0.78361 0.6013 0.90753 0.0
H1521 H 0.79048 0.56997 0.8897 0.0
H1522 H 0.82737 0.56797 0.08877 0.0
H1523 H 0.80917 0.56524 0.04202 0.0
C1524 C 0.41754 0.1773 0.86027 0.0
C1525 C 0.42792 0.18209 0.82663 0.0
C1526 C 0.4159 0.18489 0.89632 0.0
C1527 C 0.41832 0.20117 0.99098 0.0
H1528 H 0.42674 0.23409 0.94848 0.0
C1529 C 0.40495 0.23097 0.11785 0.0
C1530 C 0.41407 0.24322 0.12622 0.0
C1531 C 0.4068 0.22365 0.08106 0.0
C1532 C 0.42447 0.22496 0.96101 0.0
H1533 H 0.44472 0.19863 0.80468 0.0
H1534 H 0.44196 0.21179 0.8683 0.0
H1535 H 0.42948 0.22096 0.88412 0.0
H1536 H 0.4322 0.25747 0.10203 0.0
H1537 H 0.43542 0.24465 0.03749 0.0
H1538 H 0.41315 0.20514 0.06762 0.0
C1539 C 0.43498 0.20222 0.86608 0.0
C1540 C 0.42604 0.21744 0.92425 0.0
C1541 C 0.43659 0.19464 0.8298 0.0
C1542 C 0.42503 0.24805 0.09663 0.0
C1543 C 0.42685 0.24074 0.05947 0.0
C1544 C 0.41667 0.20866 0.02757 0.0
C1545 C 0.42462 0.19743 0.89982 0.0
C1546 C 0.42297 0.20545 0.9388 0.0
C1547 C 0.41777 0.22846 0.05159 0.0
C1548 C 0.41971 0.22061 0.01291 0.0
H1549 H 0.41064 0.16769 0.85876 0.0
H1550 H 0.40772 0.18095 0.92111 0.0
H1551 H 0.41608 0.19207 0.00385 0.0
H1552 H 0.3964 0.22698 0.13999 0.0
H1553 H 0.3996 0.21425 0.07529 0.0
C1554 C 0.79888 0.23958 0.85466 0.0
C1555 C 0.81121 0.24258 0.85146 0.0
C1556 C 0.79085 0.23052 0.89038 0.0
C1557 C 0.79035 0.2133 0.01293 0.0
H1558 H 0.75698 0.1908 0.96793 0.0
C1559 C 0.75842 0.16985 0.1338 0.0
C1560 C 0.74653 0.1677 0.14376 0.0
C1561 C 0.76608 0.17892 0.09734 0.0
C1562 C 0.76625 0.19709 0.98114 0.0
H1563 H 0.82471 0.23831 0.88307 0.0
H1564 H 0.81065 0.22236 0.9444 0.0
H1565 H 0.7709 0.20685 0.90597 0.0
H1566 H 0.7332 0.17307 0.12216 0.0
H1567 H 0.74663 0.18892 0.05805 0.0
H1568 H 0.78573 0.20339 0.08775 0.0
C1569 C 0.80725 0.22719 0.92017 0.0
C1570 C 0.77421 0.2063 0.94578 0.0
C1571 C 0.8153 0.2363 0.88476 0.0
C1572 C 0.74235 0.17459 0.11554 0.0
C1573 C 0.75 0.1836 0.07865 0.0
C1574 C 0.78242 0.20404 0.04806 0.0
C1575 C 0.79492 0.2242 0.92347 0.0
C1576 C 0.78638 0.2145 0.96123 0.0
C1577 C 0.76198 0.18595 0.06972 0.0
C1578 C 0.77031 0.19583 0.03246 0.0
H1579 H 0.79544 0.24428 0.82981 0.0
H1580 H 0.78147 0.22859 0.89248 0.0
H1581 H 0.79958 0.21959 0.02658 0.0
H1582 H 0.7619 0.16468 0.15488 0.0
H1583 H 0.77523 0.18044 0.09068 0.0
C1584 C 0.41436 0.23355 0.37393 0.0
C1585 C 0.42504 0.24098 0.34399 0.0
C1586 C 0.41384 0.22462 0.40911 0.0
C1587 C 0.43297 0.21517 0.48486 0.0
H1588 H 0.40415 0.18285 0.4772 0.0
C1589 C 0.43024 0.17341 0.59493 0.0
C1590 C 0.41917 0.16562 0.62153 0.0
C1591 C 0.43111 0.18254 0.55993 0.0
C1592 C 0.41221 0.19185 0.48025 0.0
H1593 H 0.4437 0.2451 0.32902 0.0
H1594 H 0.44276 0.22953 0.39032 0.0
H1595 H 0.40536 0.19932 0.42105 0.0
H1596 H 0.40029 0.16117 0.63168 0.0
H1597 H 0.40185 0.17712 0.57138 0.0
H1598 H 0.43979 0.20772 0.54436 0.0
C1599 C 0.43481 0.23064 0.38667 0.0
C1600 C 0.41289 0.20129 0.44814 0.0
C1601 C 0.43531 0.23953 0.35132 0.0
C1602 C 0.40894 0.16699 0.61165 0.0
C1603 C 0.40982 0.17611 0.57685 0.0
C1604 C 0.43227 0.20574 0.51716 0.0
C1605 C 0.42402 0.22298 0.41532 0.0
C1606 C 0.42326 0.21305 0.45019 0.0
C1607 C 0.42093 0.18404 0.55087 0.0
C1608 C 0.42187 0.19398 0.51531 0.0
H1609 H 0.40629 0.23443 0.36937 0.0
H1610 H 0.40546 0.21894 0.43127 0.0
H1611 H 0.44103 0.22418 0.48763 0.0
H1612 H 0.43825 0.1725 0.6013 0.0
H1613 H 0.43975 0.18839 0.53986 0.0
C1614 C 0.82292 0.25227 0.61318 0.0
C1615 C 0.82944 0.24831 0.64558 0.0
C1616 C 0.81441 0.24438 0.5752 0.0
C1617 C 0.79448 0.21171 0.5463 0.0
H1618 H 0.79223 0.22305 0.40293 0.0
C1619 C 0.76111 0.17912 0.38379 0.0
C1620 C 0.75493 0.18362 0.35219 0.0
C1621 C 0.77065 0.18694 0.41822 0.0
C1622 C 0.79266 0.21978 0.44301 0.0
H1623 H 0.83237 0.2331 0.66287 0.0
H1624 H 0.81752 0.21933 0.59648 0.0
H1625 H 0.8082 0.23696 0.4651 0.0
H1626 H 0.75392 0.19988 0.33242 0.0
H1627 H 0.77035 0.21339 0.39304 0.0
H1628 H 0.77883 0.1946 0.52472 0.0
C1629 C 0.81891 0.22849 0.60082 0.0
C1630 C 0.80182 0.22774 0.47853 0.0
C1631 C 0.82746 0.2364 0.63857 0.0
C1632 C 0.7585 0.1961 0.35593 0.0
C1633 C 0.76799 0.20389 0.39046 0.0
C1634 C 0.78529 0.20376 0.51088 0.0
C1635 C 0.81223 0.23236 0.56905 0.0
C1636 C 0.80278 0.22381 0.53063 0.0
C1637 C 0.7742 0.19941 0.42194 0.0
C1638 C 0.78422 0.20772 0.45894 0.0
H1639 H 0.82431 0.26143 0.61738 0.0
H1640 H 0.80933 0.24759 0.55154 0.0
H1641 H 0.7949 0.20848 0.58649 0.0
H1642 H 0.75865 0.16958 0.38171 0.0
H1643 H 0.77534 0.18323 0.44144 0.0
C1644 C 0.797 0.61425 0.61245 0.0
C1645 C 0.78503 0.60433 0.60584 0.0
C1646 C 0.80703 0.61361 0.59223 0.0
C1647 C 0.81661 0.59187 0.548 0.0
H1648 H 0.83459 0.61493 0.43318 0.0
C1649 C 0.83146 0.57809 0.35729 0.0
C1650 C 0.84201 0.58648 0.32898 0.0
C1651 C 0.82802 0.58157 0.40465 0.0
C1652 C 0.82996 0.6086 0.46614 0.0
H1653 H 0.77429 0.58603 0.57243 0.0
H1654 H 0.79168 0.58479 0.53912 0.0
H1655 H 0.82187 0.61902 0.49446 0.0
H1656 H 0.8576 0.60497 0.3298 0.0
H1657 H 0.85149 0.61108 0.41281 0.0
H1658 H 0.82416 0.58113 0.51818 0.0
C1659 C 0.79332 0.593 0.5603 0.0
C1660 C 0.82267 0.61095 0.50116 0.0
C1661 C 0.78333 0.59374 0.57938 0.0
C1662 C 0.84937 0.5983 0.3505 0.0
C1663 C 0.84587 0.60182 0.39795 0.0
C1664 C 0.82396 0.58957 0.51335 0.0
C1665 C 0.80524 0.60293 0.5662 0.0
C1666 C 0.81545 0.60228 0.54043 0.0
C1667 C 0.83503 0.59355 0.42493 0.0
C1668 C 0.83016 0.59758 0.47019 0.0
H1669 H 0.7986 0.62257 0.63247 0.0
H1670 H 0.81616 0.62142 0.59668 0.0
H1671 H 0.81122 0.58513 0.57853 0.0
H1672 H 0.82563 0.56889 0.34211 0.0
H1673 H 0.8195 0.57503 0.42387 0.0
C1674 C 0.58434 0.09699 0.76692 0.0
C1675 C 0.58656 0.08769 0.7848 0.0
C1676 C 0.57666 0.09505 0.72281 0.0
C1677 C 0.55058 0.06976 0.65332 0.0
H1678 H 0.55382 0.09588 0.55936 0.0
C1679 C 0.51265 0.06357 0.50276 0.0
C1680 C 0.50944 0.07274 0.50624 0.0
C1681 C 0.52323 0.06508 0.52825 0.0
C1682 C 0.55281 0.0885 0.58527 0.0
H1683 H 0.58313 0.06934 0.76773 0.0
H1684 H 0.56985 0.06604 0.69004 0.0
H1685 H 0.57096 0.09919 0.61692 0.0
H1686 H 0.51481 0.09066 0.53952 0.0
H1687 H 0.53327 0.09335 0.58325 0.0
H1688 H 0.53235 0.05917 0.62233 0.0
C1689 C 0.57386 0.07474 0.71102 0.0
C1690 C 0.56261 0.09039 0.61827 0.0
C1691 C 0.58153 0.07667 0.75536 0.0
C1692 C 0.51708 0.08349 0.53532 0.0
C1693 C 0.52769 0.08505 0.56029 0.0
C1694 C 0.54082 0.06785 0.62 0.0
C1695 C 0.57105 0.08378 0.69524 0.0
C1696 C 0.56148 0.08116 0.65387 0.0
C1697 C 0.53085 0.07585 0.55725 0.0
C1698 C 0.54173 0.07731 0.58681 0.0
H1699 H 0.58809 0.10562 0.78843 0.0
H1700 H 0.57461 0.10218 0.71225 0.0
H1701 H 0.54932 0.06251 0.68071 0.0
H1702 H 0.50696 0.05517 0.48065 0.0
H1703 H 0.52547 0.05785 0.52521 0.0
C1704 C 0.9295 0.42688 0.52666 0.0
C1705 C 0.9211 0.41425 0.52471 0.0
C1706 C 0.92716 0.43459 0.5589 0.0
C1707 C 0.90213 0.43616 0.62944 0.0
H1708 H 0.92821 0.4603 0.71987 0.0
C1709 C 0.89295 0.4578 0.81489 0.0
C1710 C 0.90066 0.47041 0.82383 0.0
C1711 C 0.8956 0.45181 0.7742 0.0
C1712 C 0.92088 0.45373 0.69427 0.0
H1713 H 0.90372 0.39977 0.55537 0.0
H1714 H 0.89969 0.41317 0.61176 0.0
H1715 H 0.93258 0.44824 0.65581 0.0
H1716 H 0.91721 0.48663 0.79657 0.0
H1717 H 0.92183 0.47609 0.72553 0.0
H1718 H 0.89037 0.44146 0.66877 0.0
C1719 C 0.90797 0.41717 0.58764 0.0
C1720 C 0.92338 0.44683 0.65757 0.0
C1721 C 0.91031 0.40948 0.55546 0.0
C1722 C 0.91108 0.4769 0.79094 0.0
C1723 C 0.91376 0.47087 0.75035 0.0
C1724 C 0.89962 0.44303 0.66619 0.0
C1725 C 0.91638 0.42981 0.58979 0.0
C1726 C 0.91398 0.43783 0.62544 0.0
C1727 C 0.90604 0.45827 0.74161 0.0
C1728 C 0.90893 0.45174 0.69958 0.0
H1729 H 0.93789 0.43083 0.50327 0.0
H1730 H 0.93376 0.44431 0.55939 0.0
H1731 H 0.89474 0.42947 0.60445 0.0
H1732 H 0.88485 0.45251 0.83942 0.0
H1733 H 0.88957 0.44205 0.76889 0.0
C1734 C 0.5483 0.47015 0.55847 0.0
C1735 C 0.54903 0.48149 0.56636 0.0
C1736 C 0.53921 0.45971 0.58422 0.0
C1737 C 0.51145 0.44819 0.67326 0.0
H1738 H 0.52384 0.42778 0.72969 0.0
C1739 C 0.48492 0.41068 0.83413 0.0
C1740 C 0.49211 0.40978 0.87546 0.0
C1741 C 0.49044 0.41775 0.78801 0.0
C1742 C 0.52025 0.43342 0.71459 0.0
H1743 H 0.54068 0.49093 0.60466 0.0
H1744 H 0.52524 0.47291 0.65283 0.0
H1745 H 0.53572 0.44337 0.66364 0.0
H1746 H 0.51069 0.41567 0.90121 0.0
H1747 H 0.52031 0.42831 0.82236 0.0
H1748 H 0.49645 0.43884 0.72811 0.0
C1749 C 0.53133 0.47184 0.62537 0.0
C1750 C 0.52697 0.44226 0.67567 0.0
C1751 C 0.54023 0.48221 0.59822 0.0
C1752 C 0.50489 0.41606 0.86982 0.0
C1753 C 0.5104 0.42325 0.82425 0.0
C1754 C 0.50482 0.43948 0.71311 0.0
C1755 C 0.53092 0.4605 0.61988 0.0
C1756 C 0.52282 0.44998 0.65538 0.0
C1757 C 0.50327 0.42417 0.78268 0.0
C1758 C 0.50933 0.43224 0.73534 0.0
H1759 H 0.55486 0.46938 0.53292 0.0
H1760 H 0.53893 0.45109 0.5774 0.0
H1761 H 0.50781 0.45375 0.65772 0.0
H1762 H 0.47503 0.40586 0.83723 0.0
H1763 H 0.48467 0.41815 0.75654 0.0
C1764 C 0.57326 0.8094 0.41422 0.0
C1765 C 0.58441 0.81691 0.38773 0.0
C1766 C 0.57161 0.79938 0.44464 0.0
C1767 C 0.58421 0.77904 0.47366 0.0
H1768 H 0.56915 0.77631 0.61389 0.0
C1769 C 0.58659 0.75081 0.65411 0.0
C1770 C 0.57615 0.74476 0.68721 0.0
C1771 C 0.58691 0.75828 0.61155 0.0
C1772 C 0.57319 0.77681 0.57455 0.0
H1773 H 0.60249 0.8196 0.37102 0.0
H1774 H 0.5997 0.80221 0.42553 0.0
H1775 H 0.57103 0.79186 0.55047 0.0
H1776 H 0.55758 0.74118 0.69931 0.0
H1777 H 0.55814 0.75409 0.62495 0.0
H1778 H 0.58658 0.76406 0.49882 0.0
C1779 C 0.59216 0.80398 0.42192 0.0
C1780 C 0.57427 0.78572 0.53816 0.0
C1781 C 0.59379 0.81398 0.39107 0.0
C1782 C 0.56584 0.74585 0.67518 0.0
C1783 C 0.56616 0.75327 0.63263 0.0
C1784 C 0.58314 0.77009 0.5103 0.0
C1785 C 0.58113 0.79672 0.44985 0.0
C1786 C 0.57978 0.78695 0.48733 0.0
C1787 C 0.5768 0.75981 0.60131 0.0
C1788 C 0.57762 0.7689 0.56111 0.0
H1789 H 0.56585 0.81138 0.41268 0.0
H1790 H 0.56293 0.79384 0.46495 0.0
H1791 H 0.58842 0.77972 0.4346 0.0
H1792 H 0.59467 0.75013 0.66218 0.0
H1793 H 0.59526 0.76327 0.58825 0.0
C1794 C 0.23656 0.79464 0.64637 0.0
C1795 C 0.23809 0.80633 0.65584 0.0
C1796 C 0.22842 0.787 0.60678 0.0
C1797 C 0.21011 0.78612 0.48788 0.0
H1798 H 0.18767 0.75313 0.53773 0.0
C1799 C 0.16347 0.75547 0.3873 0.0
C1800 C 0.1593 0.7429 0.38194 0.0
C1801 C 0.17414 0.76303 0.41615 0.0
C1802 C 0.19398 0.76223 0.52275 0.0
H1803 H 0.23275 0.8194 0.62896 0.0
H1804 H 0.21848 0.806 0.56015 0.0
H1805 H 0.20486 0.76691 0.59466 0.0
H1806 H 0.16303 0.72836 0.40284 0.0
H1807 H 0.18179 0.74163 0.45297 0.0
H1808 H 0.19907 0.78149 0.41637 0.0
C1809 C 0.22363 0.80278 0.5832 0.0
C1810 C 0.20384 0.77013 0.55536 0.0
C1811 C 0.23178 0.81044 0.62285 0.0
C1812 C 0.16604 0.73802 0.40608 0.0
C1813 C 0.17674 0.74561 0.43501 0.0
C1814 C 0.20026 0.7782 0.45518 0.0
C1815 C 0.22165 0.79087 0.57573 0.0
C1816 C 0.2119 0.78222 0.53866 0.0
C1817 C 0.1809 0.75819 0.44035 0.0
C1818 C 0.19197 0.76624 0.4727 0.0
H1819 H 0.24136 0.79121 0.67061 0.0
H1820 H 0.22724 0.77794 0.60126 0.0
H1821 H 0.21627 0.79533 0.47364 0.0
H1822 H 0.15849 0.75951 0.36925 0.0
H1823 H 0.17697 0.77264 0.42035 0.0
C1824 C 0.16922 0.42639 0.57462 0.0
C1825 C 0.15965 0.41769 0.60693 0.0
C1826 C 0.17035 0.42377 0.52074 0.0
C1827 C 0.16413 0.39705 0.44258 0.0
H1828 H 0.18254 0.42189 0.33461 0.0
C1829 C 0.19581 0.39065 0.30089 0.0
C1830 C 0.20783 0.40031 0.30926 0.0
C1831 C 0.18581 0.39204 0.31461 0.0
C1832 C 0.17721 0.41477 0.3638 0.0
H1833 H 0.14307 0.39987 0.60642 0.0
H1834 H 0.14509 0.39532 0.5122 0.0
H1835 H 0.1714 0.42594 0.40497 0.0
H1836 H 0.21873 0.41931 0.33387 0.0
H1837 H 0.20149 0.42173 0.35758 0.0
H1838 H 0.17065 0.38625 0.40425 0.0
C1839 C 0.15181 0.40409 0.5289 0.0
C1840 C 0.17087 0.4171 0.40414 0.0
C1841 C 0.15068 0.40671 0.58292 0.0
C1842 C 0.20964 0.41166 0.32713 0.0
C1843 C 0.19969 0.41309 0.34025 0.0
C1844 C 0.17044 0.39472 0.40225 0.0
C1845 C 0.16192 0.4124 0.49786 0.0
C1846 C 0.16496 0.40857 0.44601 0.0
C1847 C 0.18768 0.40315 0.33635 0.0
C1848 C 0.17771 0.40388 0.36473 0.0
H1849 H 0.17621 0.43499 0.59159 0.0
H1850 H 0.17834 0.43034 0.49831 0.0
H1851 H 0.15969 0.39027 0.47417 0.0
H1852 H 0.19412 0.3818 0.28675 0.0
H1853 H 0.17665 0.38424 0.31095 0.0
C1854 C 0.4869 0.94994 0.38574 0.0
C1855 C 0.48714 0.94922 0.44228 0.0
C1856 C 0.47699 0.94971 0.35989 0.0
C1857 C 0.44471 0.93493 0.37243 0.0
H1858 H 0.44734 0.9541 0.2449 0.0
C1859 C 0.41419 0.91519 0.18493 0.0
C1860 C 0.41047 0.92247 0.15675 0.0
C1861 C 0.422 0.91991 0.22954 0.0
C1862 C 0.44636 0.94878 0.28097 0.0
H1863 H 0.47754 0.94794 0.51686 0.0
H1864 H 0.45976 0.9471 0.47111 0.0
H1865 H 0.46465 0.96132 0.30702 0.0
H1866 H 0.41177 0.94033 0.15452 0.0
H1867 H 0.42552 0.94855 0.23199 0.0
H1868 H 0.42668 0.92201 0.3446 0.0
C1869 C 0.46742 0.94816 0.44707 0.0
C1870 C 0.45627 0.95291 0.31637 0.0
C1871 C 0.47755 0.9487 0.47311 0.0
C1872 C 0.4145 0.93447 0.17504 0.0
C1873 C 0.42238 0.93921 0.21942 0.0
C1874 C 0.43483 0.93073 0.33671 0.0
C1875 C 0.46699 0.94844 0.39016 0.0
C1876 C 0.45568 0.94579 0.36126 0.0
C1877 C 0.42631 0.93202 0.2467 0.0
C1878 C 0.43574 0.93742 0.28964 0.0
H1879 H 0.4942 0.95022 0.36141 0.0
H1880 H 0.4768 0.94974 0.31598 0.0
H1881 H 0.44408 0.92923 0.40657 0.0
H1882 H 0.4112 0.9059 0.17215 0.0
H1883 H 0.42503 0.91422 0.24937 0.0
C1884 C 0.06397 0.57147 0.4525 0.0
C1885 C 0.07383 0.58086 0.481 0.0
C1886 C 0.06595 0.5645 0.41426 0.0
C1887 C 0.09054 0.56421 0.3321 0.0
H1888 H 0.0663 0.52986 0.31572 0.0
C1889 C 0.09476 0.53495 0.16397 0.0
C1890 C 0.09112 0.52272 0.17616 0.0
C1891 C 0.09221 0.54195 0.1998 0.0
C1892 C 0.07324 0.5394 0.32013 0.0
H1893 H 0.09348 0.59015 0.49253 0.0
H1894 H 0.09694 0.5777 0.42764 0.0
H1895 H 0.0631 0.54212 0.38243 0.0
H1896 H 0.08198 0.5082 0.2353 0.0
H1897 H 0.07797 0.52052 0.29892 0.0
H1898 H 0.10101 0.56134 0.27198 0.0
C1899 C 0.08769 0.57596 0.43329 0.0
C1900 C 0.07131 0.5465 0.35787 0.0
C1901 C 0.08572 0.58309 0.47083 0.0
C1902 C 0.08481 0.51759 0.22466 0.0
C1903 C 0.08245 0.52465 0.26099 0.0
C1904 C 0.09257 0.55706 0.295 0.0
C1905 C 0.07783 0.56659 0.40437 0.0
C1906 C 0.07991 0.55902 0.36427 0.0
C1907 C 0.08616 0.53694 0.24913 0.0
C1908 C 0.08394 0.54457 0.28841 0.0
H1909 H 0.0547 0.56962 0.45917 0.0
H1910 H 0.05815 0.55755 0.39206 0.0
H1911 H 0.09729 0.57385 0.33521 0.0
H1912 H 0.09952 0.53911 0.12653 0.0
H1913 H 0.09495 0.55128 0.18863 0.0
C1914 C 0.43029 0.50803 0.37072 0.0
C1915 C 0.43448 0.50252 0.40796 0.0
C1916 C 0.43839 0.5169 0.33479 0.0
C1917 C 0.47097 0.53903 0.31172 0.0
H1918 H 0.45972 0.53844 0.16479 0.0
C1919 C 0.50147 0.57139 0.13951 0.0
C1920 C 0.49603 0.57666 0.10779 0.0
C1921 C 0.49454 0.56232 0.17755 0.0
C1922 C 0.46295 0.53876 0.20578 0.0
H1923 H 0.45045 0.50196 0.43671 0.0
H1924 H 0.46464 0.51742 0.37298 0.0
H1925 H 0.44663 0.52236 0.22799 0.0
H1926 H 0.4791 0.57671 0.09204 0.0
H1927 H 0.46707 0.5609 0.15821 0.0
H1928 H 0.48735 0.55548 0.28896 0.0
C1929 C 0.45509 0.51496 0.37227 0.0
C1930 C 0.45546 0.52957 0.24199 0.0
C1931 C 0.44696 0.50607 0.40849 0.0
C1932 C 0.48358 0.57283 0.1156 0.0
C1933 C 0.47666 0.56372 0.15328 0.0
C1934 C 0.47851 0.54822 0.27525 0.0
C1935 C 0.45086 0.52041 0.33485 0.0
C1936 C 0.45929 0.52971 0.29563 0.0
C1937 C 0.48204 0.5583 0.18419 0.0
C1938 C 0.47447 0.54826 0.22224 0.0
H1939 H 0.42073 0.50546 0.36889 0.0
H1940 H 0.43486 0.52107 0.30711 0.0
H1941 H 0.47413 0.53943 0.3529 0.0
H1942 H 0.51105 0.57416 0.13459 0.0
H1943 H 0.49889 0.55824 0.20076 0.0
C1944 C 0.07529 0.5732 0.73183 0.0
C1945 C 0.08593 0.58178 0.70446 0.0
C1946 C 0.07562 0.5647 0.76719 0.0
C1947 C 0.09369 0.54955 0.79386 0.0
H1948 H 0.07475 0.539 0.9266 0.0
C1949 C 0.09732 0.5169 0.94831 0.0
C1950 C 0.0863 0.5078 0.97122 0.0
C1951 C 0.09749 0.52606 0.91574 0.0
C1952 C 0.08 0.54178 0.88937 0.0
H1953 H 0.10541 0.58857 0.69516 0.0
H1954 H 0.10601 0.57393 0.75739 0.0
H1955 H 0.07476 0.55518 0.87231 0.0
H1956 H 0.06674 0.50095 0.97651 0.0
H1957 H 0.06704 0.51683 0.9194 0.0
H1958 H 0.09892 0.53615 0.81095 0.0
C1959 C 0.09734 0.57356 0.75051 0.0
C1960 C 0.08001 0.55105 0.8583 0.0
C1961 C 0.09701 0.582 0.71507 0.0
C1962 C 0.0754 0.50785 0.95966 0.0
C1963 C 0.07558 0.51702 0.92732 0.0
C1964 C 0.09371 0.54031 0.82501 0.0
C1965 C 0.08661 0.56463 0.77608 0.0
C1966 C 0.08682 0.55502 0.81008 0.0
C1967 C 0.08664 0.52631 0.90558 0.0
C1968 C 0.08682 0.53628 0.87294 0.0
H1969 H 0.0666 0.57275 0.72449 0.0
H1970 H 0.06717 0.55789 0.78598 0.0
H1971 H 0.09886 0.55224 0.75642 0.0
H1972 H 0.10584 0.51705 0.95607 0.0
H1973 H 0.10616 0.53313 0.89964 0.0
C1974 C 0.49871 0.5684 0.88301 0.0
C1975 C 0.50273 0.58091 0.88985 0.0
C1976 C 0.48796 0.56086 0.85464 0.0
C1977 C 0.46813 0.56113 0.74861 0.0
H1978 H 0.44534 0.5287 0.80334 0.0
C1979 C 0.42736 0.52665 0.61943 0.0
C1980 C 0.42572 0.51476 0.61763 0.0
C1981 C 0.43489 0.53501 0.65877 0.0
C1982 C 0.45163 0.5377 0.78737 0.0
H1983 H 0.49868 0.59536 0.8719 0.0
H1984 H 0.4799 0.58212 0.82115 0.0
H1985 H 0.46241 0.54302 0.85991 0.0
H1986 H 0.43026 0.5022 0.65759 0.0
H1987 H 0.44353 0.5168 0.72515 0.0
H1988 H 0.45776 0.55568 0.67516 0.0
C1989 C 0.48508 0.5782 0.83826 0.0
C1990 C 0.46137 0.5459 0.81982 0.0
C1991 C 0.4958 0.58575 0.86733 0.0
C1992 C 0.43131 0.51127 0.65768 0.0
C1993 C 0.43888 0.51964 0.69676 0.0
C1994 C 0.45844 0.55289 0.71592 0.0
C1995 C 0.48103 0.56566 0.83195 0.0
C1996 C 0.46988 0.55759 0.80027 0.0
C1997 C 0.44099 0.53171 0.69706 0.0
C1998 C 0.45024 0.54097 0.73443 0.0
H1999 H 0.50381 0.56438 0.90003 0.0
H2000 H 0.48516 0.55127 0.84969 0.0
H2001 H 0.47461 0.57005 0.73239 0.0
H2002 H 0.42311 0.52962 0.58952 0.0
H2003 H 0.43614 0.54416 0.65846 0.0
C2004 C 0.47949 0.92475 0.66365 0.0
C2005 C 0.4756 0.91707 0.61796 0.0
C2006 C 0.47159 0.92242 0.70741 0.0
C2007 C 0.43836 0.90659 0.73635 0.0
H2008 H 0.44976 0.91822 0.88209 0.0
C2009 C 0.40609 0.90596 0.90444 0.0
C2010 C 0.4102 0.91758 0.92736 0.0
C2011 C 0.41401 0.90372 0.87299 0.0
C2012 C 0.44645 0.91487 0.84161 0.0
H2013 H 0.46071 0.90034 0.58431 0.0
H2014 H 0.4471 0.89599 0.66153 0.0
H2015 H 0.46385 0.91762 0.81589 0.0
H2016 H 0.4259 0.93576 0.93767 0.0
H2017 H 0.43975 0.93178 0.88361 0.0
H2018 H 0.42098 0.90392 0.76228 0.0
C2019 C 0.45609 0.90409 0.66279 0.0
C2020 C 0.45452 0.91459 0.80353 0.0
C2021 C 0.46393 0.90653 0.61862 0.0
C2022 C 0.42247 0.92673 0.92026 0.0
C2023 C 0.43042 0.92443 0.88967 0.0
C2024 C 0.43026 0.9067 0.77466 0.0
C2025 C 0.45965 0.91223 0.70698 0.0
C2026 C 0.45068 0.91079 0.74987 0.0
C2027 C 0.42621 0.91299 0.86486 0.0
C2028 C 0.43431 0.91116 0.82719 0.0
H2029 H 0.4884 0.93298 0.66444 0.0
H2030 H 0.47466 0.92901 0.74018 0.0
H2031 H 0.43506 0.90379 0.69539 0.0
H2032 H 0.39667 0.89873 0.90925 0.0
H2033 H 0.41055 0.89481 0.85438 0.0
C2034 C 0.18108 0.40249 0.81307 0.0
C2035 C 0.17854 0.41208 0.81912 0.0
C2036 C 0.19185 0.40356 0.83421 0.0
C2037 C 0.22149 0.42513 0.90243 0.0
H2038 H 0.21332 0.39664 0.99089 0.0
C2039 C 0.24129 0.42727 0.11252 0.0
C2040 C 0.24127 0.41691 0.13385 0.0
C2041 C 0.23763 0.42729 0.05913 0.0
C2042 C 0.21597 0.40459 0.96548 0.0
H2043 H 0.18569 0.43064 0.84837 0.0
H2044 H 0.20428 0.43239 0.88652 0.0
H2045 H 0.19907 0.39548 0.92246 0.0
H2046 H 0.23891 0.3991 0.11356 0.0
H2047 H 0.23269 0.39924 0.02015 0.0
H2048 H 0.23814 0.4344 0.94821 0.0
C2049 C 0.1981 0.42411 0.86477 0.0
C2050 C 0.20775 0.40392 0.92603 0.0
C2051 C 0.18737 0.42308 0.84321 0.0
C2052 C 0.23884 0.40716 0.09878 0.0
C2053 C 0.23521 0.40721 0.04525 0.0
C2054 C 0.22975 0.42579 0.94208 0.0
C2055 C 0.20025 0.41418 0.86233 0.0
C2056 C 0.21017 0.41431 0.89546 0.0
C2057 C 0.23393 0.41699 0.02578 0.0
C2058 C 0.22685 0.41566 0.97551 0.0
H2059 H 0.17452 0.39396 0.79399 0.0
H2060 H 0.19334 0.39584 0.83062 0.0
H2061 H 0.22374 0.43323 0.87883 0.0
H2062 H 0.24325 0.43502 0.1381 0.0
H2063 H 0.23673 0.43499 0.04569 0.0
C2064 C 0.59578 0.76413 0.89802 0.0
C2065 C 0.58716 0.75156 0.8996 0.0
C2066 C 0.59346 0.77257 0.92414 0.0
C2067 C 0.56879 0.77663 0.98428 0.0
H2068 H 0.59546 0.80184 0.06844 0.0
C2069 C 0.56229 0.80336 0.15862 0.0
C2070 C 0.57159 0.81547 0.16877 0.0
C2071 C 0.56351 0.79657 0.11681 0.0
C2072 C 0.58797 0.79503 0.04429 0.0
H2073 H 0.56928 0.73797 0.92949 0.0
H2074 H 0.56528 0.75272 0.97594 0.0
H2075 H 0.59896 0.78783 0.01407 0.0
H2076 H 0.58898 0.83027 0.13973 0.0
H2077 H 0.591 0.81847 0.06636 0.0
H2078 H 0.55773 0.78371 0.01586 0.0
C2079 C 0.57376 0.75606 0.95368 0.0
C2080 C 0.58997 0.78696 0.01318 0.0
C2081 C 0.57608 0.7476 0.92737 0.0
C2082 C 0.5817 0.82093 0.13352 0.0
C2083 C 0.5829 0.81414 0.09164 0.0
C2084 C 0.56678 0.78472 0.01551 0.0
C2085 C 0.58247 0.76864 0.95271 0.0
C2086 C 0.58038 0.77758 0.98328 0.0
C2087 C 0.57404 0.80175 0.0841 0.0
C2088 C 0.57632 0.79393 0.04636 0.0
H2089 H 0.60436 0.7675 0.87653 0.0
H2090 H 0.60028 0.78221 0.92191 0.0
H2091 H 0.56126 0.76961 0.96105 0.0
H2092 H 0.55434 0.79886 0.18472 0.0
H2093 H 0.55653 0.78704 0.11231 0.0
C2094 C 0.22017 0.80988 0.87744 0.0
C2095 C 0.2325 0.81292 0.87543 0.0
C2096 C 0.21184 0.80029 0.90997 0.0
C2097 C 0.20672 0.77268 0.98389 0.0
H2098 H 0.18429 0.77873 0.068 0.0
C2099 C 0.17811 0.74225 0.16279 0.0
C2100 C 0.16608 0.74004 0.16887 0.0
C2101 C 0.18582 0.7503 0.12313 0.0
C2102 C 0.19036 0.77682 0.0442 0.0
H2103 H 0.24576 0.80815 0.90518 0.0
H2104 H 0.23118 0.7914 0.96287 0.0
H2105 H 0.19869 0.79444 0.0067 0.0
H2106 H 0.15259 0.74424 0.13639 0.0
H2107 H 0.16605 0.75826 0.06702 0.0
H2108 H 0.19844 0.75508 0.02223 0.0
C2109 C 0.22795 0.79638 0.93865 0.0
C2110 C 0.19862 0.78583 0.00911 0.0
C2111 C 0.2363 0.80599 0.90583 0.0
C2112 C 0.16182 0.74579 0.13319 0.0
C2113 C 0.16955 0.75386 0.09357 0.0
C2114 C 0.19844 0.76366 0.01915 0.0
C2115 C 0.21566 0.79354 0.94152 0.0
C2116 C 0.20689 0.78386 0.97854 0.0
C2117 C 0.18168 0.75634 0.08868 0.0
C2118 C 0.19018 0.76565 0.04968 0.0
H2119 H 0.21691 0.81496 0.85407 0.0
H2120 H 0.20239 0.79818 0.91049 0.0
H2121 H 0.21288 0.77085 0.9604 0.0
H2122 H 0.18171 0.73796 0.18947 0.0
H2123 H 0.19515 0.75211 0.12067 0.0
C2124 C 0.38273 0.11662 0.87025 0.0
C2125 C 0.38572 0.12867 0.85747 0.0
C2126 C 0.37271 0.10936 0.90362 0.0
C2127 C 0.35255 0.111 0.00655 0.0
H2128 H 0.32813 0.07894 0.95392 0.0
C2129 C 0.30831 0.08106 0.12539 0.0
C2130 C 0.29758 0.07696 0.09453 0.0
C2131 C 0.31966 0.0857 0.09992 0.0
C2132 C 0.33491 0.08784 0.96922 0.0
H2133 H 0.38081 0.14268 0.87079 0.0
H2134 H 0.36343 0.13006 0.92934 0.0
H2135 H 0.34729 0.09084 0.90385 0.0
H2136 H 0.29026 0.07381 0.0128 0.0
H2137 H 0.31009 0.08192 0.96839 0.0
H2138 H 0.34007 0.10822 0.07088 0.0
C2139 C 0.36881 0.12623 0.91357 0.0
C2140 C 0.34589 0.0946 0.94086 0.0
C2141 C 0.37871 0.13342 0.87975 0.0
C2142 C 0.29836 0.07696 0.03771 0.0
C2143 C 0.30971 0.08153 0.01225 0.0
C2144 C 0.34164 0.10421 0.03513 0.0
C2145 C 0.36564 0.1141 0.92539 0.0
C2146 C 0.35468 0.10635 0.95865 0.0
C2147 C 0.3205 0.08624 0.04313 0.0
C2148 C 0.3326 0.09268 0.01616 0.0
H2149 H 0.38797 0.11271 0.8536 0.0
H2150 H 0.37048 0.10005 0.91237 0.0
H2151 H 0.35922 0.11999 0.02134 0.0
H2152 H 0.30801 0.08111 0.16926 0.0
H2153 H 0.32782 0.08914 0.12467 0.0
C2154 C 0.9258 0.23023 0.08624 0.0
C2155 C 0.91782 0.22222 0.12592 0.0
C2156 C 0.92329 0.2386 0.06055 0.0
C2157 C 0.90328 0.25254 0.06529 0.0
H2158 H 0.906 0.25233 0.90878 0.0
C2159 C 0.874 0.26279 0.91886 0.0
C2160 C 0.87925 0.2689 0.87 0.0
C2161 C 0.88068 0.25978 0.95457 0.0
C2162 C 0.9054 0.25271 0.95247 0.0
H2163 H 0.90131 0.21719 0.17193 0.0
H2164 H 0.89679 0.23159 0.12642 0.0
H2165 H 0.91436 0.24232 0.96411 0.0
H2166 H 0.89584 0.27719 0.82158 0.0
H2167 H 0.9075 0.27191 0.88405 0.0
H2168 H 0.89384 0.26252 0.05311 0.0
C2169 C 0.90508 0.23154 0.11554 0.0
C2170 C 0.91022 0.24698 0.98428 0.0
C2171 C 0.90763 0.22321 0.14143 0.0
C2172 C 0.89149 0.27239 0.8587 0.0
C2173 C 0.89816 0.26934 0.89436 0.0
C2174 C 0.89842 0.25824 0.03338 0.0
C2175 C 0.91271 0.23911 0.0738 0.0
C2176 C 0.90899 0.24659 0.041 0.0
C2177 C 0.89274 0.26279 0.94214 0.0
C2178 C 0.8992 0.25816 0.97657 0.0
H2179 H 0.93381 0.22978 0.07378 0.0
H2180 H 0.92947 0.24446 0.02928 0.0
H2181 H 0.90236 0.25257 0.10892 0.0
H2182 H 0.8646 0.26001 0.92889 0.0
H2183 H 0.8762 0.25461 0.99077 0.0
C2184 C 0.74903 0.63063 0.80088 0.0
C2185 C 0.74721 0.63095 0.74484 0.0
C2186 C 0.75017 0.64007 0.83435 0.0
C2187 C 0.76164 0.67266 0.82602 0.0
H2188 H 0.7512 0.66901 0.97601 0.0
C2189 C 0.78228 0.71409 0.96812 0.0
C2190 C 0.78616 0.71209 0.01854 0.0
C2191 C 0.7743 0.70421 0.9357 0.0
C2192 C 0.75419 0.67018 0.93421 0.0
H2193 H 0.7443 0.64095 0.6805 0.0
H2194 H 0.74638 0.6575 0.7391 0.0
H2195 H 0.74251 0.65112 0.91645 0.0
H2196 H 0.78427 0.69818 0.07572 0.0
H2197 H 0.77069 0.68096 0.01859 0.0
H2198 H 0.77382 0.69149 0.84401 0.0
C2199 C 0.74701 0.64999 0.75694 0.0
C2200 C 0.74919 0.65995 0.90012 0.0
C2201 C 0.74579 0.6405 0.72346 0.0
C2202 C 0.78146 0.70002 0.03701 0.0
C2203 C 0.77358 0.69014 0.00436 0.0
C2204 C 0.7667 0.68285 0.8601 0.0
C2205 C 0.74957 0.65004 0.81242 0.0
C2206 C 0.75311 0.66105 0.84608 0.0
C2207 C 0.77014 0.69212 0.95275 0.0
C2208 C 0.7633 0.68167 0.915 0.0
H2209 H 0.75007 0.62334 0.81868 0.0
H2210 H 0.75224 0.6399 0.87685 0.0
H2211 H 0.76499 0.67377 0.78479 0.0
H2212 H 0.78561 0.7233 0.9531 0.0
H2213 H 0.77164 0.70607 0.89665 0.0
C2214 C 0.10791 0.36067 0.80712 0.0
C2215 C 0.11204 0.37111 0.7743 0.0
C2216 C 0.09974 0.34907 0.7866 0.0
C2217 C 0.07874 0.33232 0.67294 0.0
H2218 H 0.09123 0.31 0.69142 0.0
C2219 C 0.06728 0.29258 0.52596 0.0
C2220 C 0.06674 0.28188 0.54578 0.0
C2221 C 0.07049 0.30255 0.56021 0.0
C2222 C 0.08741 0.31596 0.68671 0.0
H2223 H 0.11011 0.37769 0.69567 0.0
H2224 H 0.09588 0.35744 0.65988 0.0
H2225 H 0.10049 0.32914 0.74142 0.0
H2226 H 0.06853 0.27298 0.61764 0.0
H2227 H 0.07387 0.29028 0.67773 0.0
H2228 H 0.06579 0.31921 0.61731 0.0
C2229 C 0.09894 0.35821 0.70147 0.0
C2230 C 0.09274 0.32696 0.71541 0.0
C2231 C 0.10716 0.36981 0.72189 0.0
C2232 C 0.06901 0.28117 0.60102 0.0
C2233 C 0.07211 0.2911 0.63541 0.0
C2234 C 0.07333 0.32125 0.64445 0.0
C2235 C 0.09548 0.34769 0.73299 0.0
C2236 C 0.08864 0.33537 0.70799 0.0
C2237 C 0.07313 0.30201 0.61519 0.0
C2238 C 0.07779 0.31306 0.65008 0.0
H2239 H 0.11141 0.36136 0.84785 0.0
H2240 H 0.09708 0.34112 0.81204 0.0
H2241 H 0.07532 0.33859 0.66687 0.0
H2242 H 0.06558 0.29342 0.48356 0.0
H2243 H 0.07135 0.31085 0.54299 0.0
C2244 C 0.70168 0.7893 0.48344 0.0
C2245 C 0.70779 0.78452 0.45332 0.0
C2246 C 0.69261 0.78197 0.52051 0.0
C2247 C 0.66997 0.75041 0.55158 0.0
H2248 H 0.66959 0.76385 0.69255 0.0
C2249 C 0.62671 0.73418 0.68186 0.0
C2250 C 0.62779 0.73406 0.73853 0.0
C2251 C 0.63702 0.73831 0.64886 0.0
C2252 C 0.66966 0.75987 0.65372 0.0
H2253 H 0.70911 0.76828 0.438 0.0
H2254 H 0.69303 0.75535 0.50254 0.0
H2255 H 0.68686 0.77536 0.63171 0.0
H2256 H 0.64042 0.73749 0.80486 0.0
H2257 H 0.65845 0.74477 0.74707 0.0
H2258 H 0.65257 0.73507 0.57314 0.0
C2259 C 0.69535 0.76481 0.49743 0.0
C2260 C 0.67947 0.76652 0.61872 0.0
C2261 C 0.70456 0.77221 0.46069 0.0
C2262 C 0.63929 0.73756 0.76135 0.0
C2263 C 0.64962 0.74176 0.72833 0.0
C2264 C 0.66008 0.74379 0.58648 0.0
C2265 C 0.68937 0.76967 0.52792 0.0
C2266 C 0.6796 0.76198 0.56692 0.0
C2267 C 0.64863 0.74245 0.67187 0.0
C2268 C 0.65972 0.74858 0.6375 0.0
H2269 H 0.70399 0.79877 0.47885 0.0
H2270 H 0.68802 0.7859 0.54298 0.0
H2271 H 0.66985 0.74672 0.51178 0.0
H2272 H 0.61796 0.73148 0.663 0.0
H2273 H 0.63598 0.73884 0.60552 0.0
C2274 C 0.21286 0.91051 0.45149 0.0
C2275 C 0.21081 0.91959 0.4735 0.0
C2276 C 0.21901 0.90584 0.4813 0.0
C2277 C 0.22756 0.90334 0.62274 0.0
H2278 H 0.24461 0.88903 0.54951 0.0
C2279 C 0.23568 0.8676 0.72777 0.0
C2280 C 0.24582 0.86644 0.7138 0.0
C2281 C 0.23315 0.87568 0.69973 0.0
C2282 C 0.24011 0.89317 0.571 0.0
H2283 H 0.214 0.9313 0.543 0.0
H2284 H 0.22529 0.9236 0.59436 0.0
H2285 H 0.23794 0.90103 0.49817 0.0
H2286 H 0.2615 0.87299 0.66045 0.0
H2287 H 0.25744 0.88758 0.61275 0.0
H2288 H 0.23024 0.89599 0.69597 0.0
C2289 C 0.22177 0.91972 0.55481 0.0
C2290 C 0.23605 0.89989 0.54123 0.0
C2291 C 0.21535 0.9242 0.52534 0.0
C2292 C 0.25354 0.87365 0.67169 0.0
C2293 C 0.25117 0.88196 0.64427 0.0
C2294 C 0.23187 0.89688 0.65269 0.0
C2295 C 0.22352 0.91034 0.5335 0.0
C2296 C 0.22935 0.90471 0.56635 0.0
C2297 C 0.24088 0.88303 0.65772 0.0
C2298 C 0.23782 0.89132 0.62697 0.0
H2299 H 0.20937 0.9067 0.41174 0.0
H2300 H 0.21985 0.89843 0.4638 0.0
H2301 H 0.2224 0.90683 0.64376 0.0
H2302 H 0.22949 0.86206 0.75972 0.0
H2303 H 0.22495 0.87592 0.71042 0.0
C2304 C 0.70435 0.91805 -0.00035 0.0
C2305 C 0.70314 0.92018 0.94467 0.0
C2306 C 0.6947 0.91495 0.03576 0.0
C2307 C 0.66139 0.89969 0.0353 0.0
H2308 H 0.66537 0.90987 0.18577 0.0
C2309 C 0.63529 0.87956 0.25012 0.0
C2310 C 0.62308 0.8748 0.23358 0.0
C2311 C 0.64491 0.88719 0.21578 0.0
C2312 C 0.66412 0.9069 0.1439 0.0
H2313 H 0.69114 0.92145 0.88516 0.0
H2314 H 0.67432 0.91604 0.94829 0.0
H2315 H 0.68278 0.91977 0.12385 0.0
H2316 H 0.61137 0.8748 0.16911 0.0
H2317 H 0.62818 0.88831 0.10953 0.0
H2318 H 0.64293 0.8865 0.0554 0.0
C2319 C 0.68267 0.91662 0.96324 0.0
C2320 C 0.67408 0.91259 0.10847 0.0
C2321 C 0.69233 0.91977 0.92717 0.0
C2322 C 0.62069 0.87823 0.18283 0.0
C2323 C 0.63032 0.88593 0.1486 0.0
C2324 C 0.65147 0.89396 0.0707 0.0
C2325 C 0.68365 0.91389 0.01759 0.0
C2326 C 0.67286 0.9089 0.05401 0.0
C2327 C 0.64255 0.89031 0.16423 0.0
C2328 C 0.65276 0.89734 0.12566 0.0
H2329 H 0.71258 0.91834 0.01449 0.0
H2330 H 0.69569 0.9128 0.07731 0.0
H2331 H 0.6602 0.89651 0.99377 0.0
H2332 H 0.63745 0.8771 0.28897 0.0
H2333 H 0.6542 0.89025 0.2289 0.0
C2334 C 0.12224 0.75173 0.14294 0.0
C2335 C 0.11669 0.741 0.17435 0.0
C2336 C 0.11512 0.75574 0.11636 0.0
C2337 C 0.08591 0.75486 0.1256 0.0
H2338 H 0.09288 0.76675 0.97756 0.0
C2339 C 0.07085 0.78722 0.03018 0.0
C2340 C 0.06673 0.78493 0.97621 0.0
C2341 C 0.07537 0.78027 0.05471 0.0
C2342 C 0.09074 0.76335 0.01874 0.0
H2343 H 0.09931 0.72595 0.2019 0.0
H2344 H 0.08685 0.73309 0.15581 0.0
H2345 H 0.10397 0.75743 0.01772 0.0
H2346 H 0.0636 0.7732 0.90651 0.0
H2347 H 0.07156 0.76118 0.9493 0.0
H2348 H 0.07286 0.76104 0.12692 0.0
C2349 C 0.09672 0.73835 0.15184 0.0
C2350 C 0.09715 0.75811 0.0418 0.0
C2351 C 0.10385 0.73424 0.1779 0.0
C2352 C 0.06677 0.77525 0.94805 0.0
C2353 C 0.07137 0.76839 0.97241 0.0
C2354 C 0.07959 0.76023 0.10271 0.0
C2355 C 0.1023 0.74918 0.12115 0.0
C2356 C 0.09488 0.75392 0.09558 0.0
C2357 C 0.07593 0.77099 0.02558 0.0
C2358 C 0.08201 0.7646 0.04918 0.0
H2359 H 0.13212 0.75711 0.13934 0.0
H2360 H 0.11966 0.76417 0.0933 0.0
H2361 H 0.08406 0.75178 0.16731 0.0
H2362 H 0.07091 0.79459 0.05298 0.0
H2363 H 0.07889 0.78251 0.09568 0.0
C2364 C 0.23101 0.35007 0.29048 0.0
C2365 C 0.23783 0.3617 0.26674 0.0
C2366 C 0.23053 0.33983 0.26629 0.0
C2367 C 0.2337 0.32927 0.13178 0.0
H2368 H 0.22817 0.30051 0.21226 0.0
C2369 C 0.22018 0.28405 0.02313 0.0
C2370 C 0.2094 0.27408 0.04369 0.0
C2371 C 0.22655 0.29482 0.05324 0.0
C2372 C 0.22976 0.3085 0.1893 0.0
H2373 H 0.25019 0.37187 0.20101 0.0
H2374 H 0.24959 0.35403 0.15938 0.0
H2375 H 0.23455 0.31972 0.26029 0.0
H2376 H 0.19731 0.26729 0.11336 0.0
H2377 H 0.20843 0.2861 0.16581 0.0
H2378 H 0.22865 0.31799 0.06105 0.0
C2379 C 0.24434 0.35276 0.19595 0.0
C2380 C 0.23338 0.31948 0.21674 0.0
C2381 C 0.24472 0.363 0.21992 0.0
C2382 C 0.20554 0.27484 0.09626 0.0
C2383 C 0.21196 0.28558 0.12648 0.0
C2384 C 0.2302 0.31833 0.10437 0.0
C2385 C 0.23697 0.34101 0.21804 0.0
C2386 C 0.23504 0.32991 0.18848 0.0
C2387 C 0.22233 0.2958 0.10464 0.0
C2388 C 0.22787 0.30775 0.133 0.0
H2389 H 0.2256 0.34875 0.3266 0.0
H2390 H 0.22464 0.33093 0.28412 0.0
H2391 H 0.23471 0.33702 0.10871 0.0
H2392 H 0.22344 0.28373 0.9829 0.0
H2393 H 0.23459 0.30252 0.03568 0.0
C2394 C 0.90081 0.63941 0.19724 0.0
C2395 C 0.8973 0.62757 0.21579 0.0
C2396 C 0.90864 0.64966 0.22813 0.0
C2397 C 0.91723 0.65773 0.3706 0.0
H2398 H 0.93845 0.68998 0.31017 0.0
C2399 C 0.9384 0.70077 0.50476 0.0
C2400 C 0.93613 0.70996 0.48572 0.0
C2401 C 0.93671 0.69118 0.47072 0.0
C2402 C 0.9326 0.68101 0.32759 0.0
H2403 H 0.90002 0.61723 0.27914 0.0
H2404 H 0.91392 0.63514 0.33247 0.0
H2405 H 0.93028 0.672 0.25137 0.0
H2406 H 0.93099 0.71669 0.41528 0.0
H2407 H 0.92803 0.69997 0.35605 0.0
H2408 H 0.91929 0.66675 0.44644 0.0
C2409 C 0.91035 0.63649 0.29478 0.0
C2410 C 0.92789 0.67073 0.29396 0.0
C2411 C 0.90243 0.62623 0.26408 0.0
C2412 C 0.93274 0.7097 0.43127 0.0
C2413 C 0.93114 0.70018 0.39718 0.0
C2414 C 0.92201 0.66799 0.40422 0.0
C2415 C 0.91322 0.6483 0.27805 0.0
C2416 C 0.91986 0.65899 0.31478 0.0
C2417 C 0.93285 0.69068 0.41688 0.0
C2418 C 0.92945 0.67977 0.38278 0.0
H2419 H 0.89704 0.64077 0.16016 0.0
H2420 H 0.91053 0.65858 0.21419 0.0
H2421 H 0.91093 0.64888 0.38797 0.0
H2422 H 0.94109 0.70074 0.54643 0.0
H2423 H 0.93818 0.68403 0.48681 0.0
C2424 C 0.28819 0.21785 0.5104 0.0
C2425 C 0.2896 0.21596 0.56543 0.0
C2426 C 0.29843 0.22507 0.47821 0.0
C2427 C 0.32134 0.23213 0.41348 0.0
H2428 H 0.351 0.25992 0.46917 0.0
C2429 C 0.36533 0.25664 0.286 0.0
C2430 C 0.37586 0.25801 0.31207 0.0
C2431 C 0.35472 0.25346 0.31558 0.0
C2432 C 0.34277 0.25217 0.45315 0.0
H2433 H 0.3028 0.22056 0.63038 0.0
H2434 H 0.32062 0.23283 0.57417 0.0
H2435 H 0.33226 0.25111 0.52311 0.0
H2436 H 0.38369 0.25763 0.38987 0.0
H2437 H 0.36513 0.25208 0.44154 0.0
H2438 H 0.33189 0.23311 0.34386 0.0
C2439 C 0.31163 0.22896 0.55588 0.0
C2440 C 0.33205 0.24711 0.484 0.0
C2441 C 0.3014 0.22183 0.5881 0.0
C2442 C 0.37571 0.25658 0.3686 0.0
C2443 C 0.36511 0.2535 0.39824 0.0
C2444 C 0.33202 0.23726 0.38249 0.0
C2445 C 0.3103 0.23048 0.5003 0.0
C2446 C 0.32128 0.23685 0.46503 0.0
C2447 C 0.35446 0.25169 0.37186 0.0
C2448 C 0.3429 0.24717 0.40248 0.0
H2449 H 0.2792 0.21354 0.49188 0.0
H2450 H 0.29707 0.22624 0.43577 0.0
H2451 H 0.3133 0.22411 0.39793 0.0
H2452 H 0.36517 0.25773 0.24251 0.0
H2453 H 0.34666 0.25223 0.29434 0.0
C2454 C 0.77622 0.08667 0.63356 0.0
C2455 C 0.78531 0.08558 0.60528 0.0
C2456 C 0.76713 0.08764 0.60539 0.0
C2457 C 0.75281 0.08452 0.47076 0.0
H2458 H 0.75234 0.11387 0.51376 0.0
C2459 C 0.73996 0.11177 0.32429 0.0
C2460 C 0.73466 0.11843 0.34486 0.0
C2461 C 0.74339 0.10528 0.35918 0.0
C2462 C 0.75207 0.10547 0.50175 0.0
H2463 H 0.79139 0.08362 0.52555 0.0
H2464 H 0.77554 0.08532 0.47647 0.0
H2465 H 0.76285 0.10624 0.57003 0.0
H2466 H 0.72811 0.12293 0.41767 0.0
H2467 H 0.73378 0.11134 0.47845 0.0
H2468 H 0.74223 0.08392 0.40176 0.0
C2469 C 0.77544 0.08544 0.52037 0.0
C2470 C 0.75813 0.10111 0.5341 0.0
C2471 C 0.78457 0.08455 0.5485 0.0
C2472 C 0.73232 0.11801 0.4007 0.0
C2473 C 0.73562 0.1114 0.43555 0.0
C2474 C 0.74664 0.08883 0.43855 0.0
C2475 C 0.7669 0.08743 0.54845 0.0
C2476 C 0.75883 0.09077 0.51827 0.0
C2477 C 0.74147 0.1052 0.41538 0.0
C2478 C 0.74648 0.09956 0.45294 0.0
H2479 H 0.77647 0.08739 0.67735 0.0
H2480 H 0.76056 0.08901 0.62805 0.0
H2481 H 0.75311 0.07646 0.45791 0.0
H2482 H 0.74189 0.11191 0.28143 0.0
H2483 H 0.74802 0.10076 0.3422 0.0
C2484 C 0.97216 0.40158 0.39971 0.0
C2485 C 0.96158 0.39837 0.36896 0.0
C2486 C 0.98359 0.40671 0.37475 0.0
C2487 C -0.00041 0.41152 0.24481 0.0
H2488 H 0.02333 0.44271 0.30741 0.0
C2489 C 0.0415 0.44742 0.1262 0.0
C2490 C 0.0523 0.45529 0.15441 0.0
C2491 C 0.03099 0.43906 0.15415 0.0
C2492 C 0.01696 0.4339 0.28994 0.0
H2493 H 0.95461 0.3973 0.28754 0.0
H2494 H 0.97465 0.40619 0.24385 0.0
H2495 H 0.00387 0.43012 0.35279 0.0
H2496 H 0.06076 0.46019 0.23382 0.0
H2497 H 0.04253 0.44531 0.28267 0.0
H2498 H 0.01267 0.41527 0.18189 0.0
C2499 C 0.97405 0.40476 0.2873 0.0
C2500 C 0.00578 0.42671 0.31592 0.0
C2501 C 0.9626 0.39973 0.31234 0.0
C2502 C 0.05252 0.45433 0.21105 0.0
C2503 C 0.04205 0.44584 0.23901 0.0
C2504 C 0.01086 0.41864 0.2191 0.0
C2505 C 0.98468 0.40861 0.31851 0.0
C2506 C 0.99691 0.41555 0.29317 0.0
C2507 C 0.03109 0.43824 0.21098 0.0
C2508 C 0.0196 0.43004 0.24084 0.0
H2509 H 0.97169 0.40059 0.44339 0.0
H2510 H 0.99165 0.40949 0.39961 0.0
H2511 H 0.99293 0.40289 0.22674 0.0
H2512 H 0.04102 0.44796 0.08252 0.0
H2513 H 0.02269 0.43353 0.13119 0.0
C2514 C 0.55702 0.59031 0.11269 0.0
C2515 C 0.54636 0.58133 0.0867 0.0
C2516 C 0.56346 0.5869 0.1481 0.0
C2517 C 0.56682 0.56038 0.18894 0.0
H2518 H 0.57603 0.5767 0.32841 0.0
C2519 C 0.58402 0.54182 0.3588 0.0
C2520 C 0.57839 0.54068 0.40928 0.0
C2521 C 0.5832 0.54905 0.31799 0.0
C2522 C 0.57354 0.57207 0.28961 0.0
H2523 H 0.53424 0.56177 0.07664 0.0
H2524 H 0.54532 0.55587 0.13868 0.0
H2525 H 0.56842 0.58463 0.25747 0.0
H2526 H 0.56806 0.54676 0.45758 0.0
H2527 H 0.56634 0.55909 0.38615 0.0
H2528 H 0.57118 0.54737 0.22188 0.0
C2529 C 0.54885 0.56553 0.13119 0.0
C2530 C 0.56931 0.5767 0.24874 0.0
C2531 C 0.54243 0.56892 0.09589 0.0
C2532 C 0.57247 0.54742 0.41907 0.0
C2533 C 0.57157 0.55458 0.37816 0.0
C2534 C 0.57098 0.55572 0.22981 0.0
C2535 C 0.55938 0.57446 0.15806 0.0
C2536 C 0.56556 0.57068 0.19849 0.0
C2537 C 0.57666 0.55523 0.32669 0.0
C2538 C 0.57407 0.56131 0.28113 0.0
H2539 H 0.56029 0.59996 0.10629 0.0
H2540 H 0.5716 0.59399 0.16787 0.0
H2541 H 0.56421 0.55567 0.15032 0.0
H2542 H 0.58879 0.53685 0.35024 0.0
H2543 H 0.58742 0.54954 0.27914 0.0
C2544 C 0.39066 0.96221 0.10619 0.0
C2545 C 0.39719 0.9631 0.05863 0.0
C2546 C 0.39407 0.97252 0.13854 0.0
C2547 C 0.41418 0.00649 0.14359 0.0
H2548 H 0.41696 0.00044 0.29564 0.0
C2549 C 0.44986 0.04241 0.28725 0.0
C2550 C 0.44661 0.04275 0.34142 0.0
C2551 C 0.44157 0.03348 0.25185 0.0
C2552 C 0.41603 0.00228 0.25355 0.0
H2553 H 0.41194 0.97563 0.006 0.0
H2554 H 0.41806 0.99351 0.06285 0.0
H2555 H 0.40617 0.98324 0.23418 0.0
H2556 H 0.43194 0.03429 0.40043 0.0
H2557 H 0.41746 0.01859 0.33848 0.0
H2558 H 0.42461 0.02559 0.16293 0.0
C2559 C 0.4102 0.98492 0.07495 0.0
C2560 C 0.40981 0.99241 0.21823 0.0
C2561 C 0.40673 0.97463 0.04246 0.0
C2562 C 0.43474 0.03423 0.35898 0.0
C2563 C 0.42646 0.02523 0.32361 0.0
C2564 C 0.42046 0.01637 0.17893 0.0
C2565 C 0.40413 0.98391 0.12416 0.0
C2566 C 0.40909 0.99439 0.16257 0.0
C2567 C 0.42986 0.02466 0.26992 0.0
C2568 C 0.42171 0.01435 0.23399 0.0
H2569 H 0.38316 0.95347 0.11947 0.0
H2570 H 0.38906 0.97148 0.17565 0.0
H2571 H 0.41359 0.00832 0.10115 0.0
H2572 H 0.45892 0.04888 0.27238 0.0
H2573 H 0.44451 0.03319 0.2109 0.0
C2574 C 0.58383 0.02635 0.90341 0.0
C2575 C 0.59299 0.03794 0.88572 0.0
C2576 C 0.58088 0.01591 0.87293 0.0
C2577 C 0.58224 0.00757 0.73138 0.0
H2578 H 0.5669 0.97481 0.79186 0.0
C2579 C 0.5567 0.9658 0.59438 0.0
C2580 C 0.54442 0.95847 0.61031 0.0
C2581 C 0.56537 0.9741 0.63073 0.0
C2582 C 0.57127 0.98391 0.77444 0.0
H2583 H 0.60691 0.04759 0.82462 0.0
H2584 H 0.60204 0.02931 0.77222 0.0
H2585 H 0.57778 0.99252 0.85155 0.0
H2586 H 0.53183 0.95328 0.6781 0.0
H2587 H 0.54698 0.96775 0.74148 0.0
H2588 H 0.57547 -0.001 0.65461 0.0
C2589 C 0.59684 0.02831 0.8087 0.0
C2590 C 0.57744 0.99406 0.80856 0.0
C2591 C 0.59968 0.03879 0.83882 0.0
C2592 C 0.5412 0.95889 0.66447 0.0
C2593 C 0.5499 0.96711 0.70092 0.0
C2594 C 0.57621 0.99745 0.69731 0.0
C2595 C 0.58714 0.01679 0.8244 0.0
C2596 C 0.58262 0.00603 0.78768 0.0
C2597 C 0.56195 0.97512 0.68381 0.0
C2598 C 0.57031 0.98554 0.71871 0.0
H2599 H 0.57852 0.02539 0.93944 0.0
H2600 H 0.57325 0.00725 0.88606 0.0
H2601 H 0.58592 0.0166 0.71375 0.0
H2602 H 0.55949 0.96562 0.55304 0.0
H2603 H 0.57464 0.98009 0.6167 0.0
C2604 C 0.02283 0.59168 0.62262 0.0
C2605 C 0.03279 0.59293 0.65332 0.0
C2606 C 0.011 0.58556 0.64391 0.0
C2607 C 0.99281 0.57363 0.76894 0.0
H2608 H 0.97006 0.547 0.67656 0.0
C2609 C 0.94299 0.53885 0.83272 0.0
C2610 C 0.94021 0.5266 0.82863 0.0
C2611 C 0.95356 0.54822 0.80849 0.0
C2612 C 0.97629 0.55445 0.70257 0.0
H2613 H 0.03826 0.5895 0.73176 0.0
H2614 H 0.01756 0.57884 0.76905 0.0
H2615 H 0.99023 0.56191 0.64182 0.0
H2616 H 0.94602 0.51449 0.79431 0.0
H2617 H 0.96433 0.53081 0.75118 0.0
H2618 H 0.97891 0.56591 0.8302 0.0
C2619 C 0.01893 0.58259 0.72847 0.0
C2620 C 0.98778 0.56304 0.68263 0.0
C2621 C 0.03077 0.58863 0.70701 0.0
C2622 C 0.94795 0.52385 0.79828 0.0
C2623 C 0.95838 0.53317 0.77337 0.0
C2624 C 0.98123 0.56512 0.78869 0.0
C2625 C 0.0089 0.58067 0.6965 0.0
C2626 C 0.99625 0.57256 0.71597 0.0
C2627 C 0.96139 0.54545 0.77895 0.0
C2628 C 0.97299 0.5553 0.75603 0.0
H2629 H 0.02408 0.59496 0.58123 0.0
H2630 H 0.00343 0.58432 0.61867 0.0
H2631 H -0.00085 0.58092 0.79535 0.0
H2632 H 0.9372 0.54124 0.85602 0.0
H2633 H 0.95567 0.55762 0.81312 0.0
C2634 C 0.40352 0.43617 0.61073 0.0
C2635 C 0.4066 0.44835 0.62073 0.0
C2636 C 0.40503 0.42926 0.65115 0.0
C2637 C 0.4095 0.42782 0.7986 0.0
H2638 H 0.42767 0.41188 0.75533 0.0
C2639 C 0.43651 0.41552 0.94938 0.0
C2640 C 0.43763 0.40516 0.93936 0.0
C2641 C 0.43038 0.419 0.91265 0.0
C2642 C 0.42236 0.41604 0.76808 0.0
H2643 H 0.41318 0.46268 0.68164 0.0
H2644 H 0.41582 0.45064 0.75198 0.0
H2645 H 0.421 0.42116 0.68685 0.0
H2646 H 0.4326 0.38991 0.88453 0.0
H2647 H 0.4217 0.39586 0.82096 0.0
H2648 H 0.41105 0.42288 0.88002 0.0
C2649 C 0.4122 0.44641 0.71303 0.0
C2650 C 0.41856 0.42138 0.72875 0.0
C2651 C 0.41077 0.45333 0.67256 0.0
C2652 C 0.43199 0.39802 0.89315 0.0
C2653 C 0.4258 0.40146 0.85657 0.0
C2654 C 0.41324 0.42241 0.83797 0.0
C2655 C 0.40954 0.43437 0.70246 0.0
C2656 C 0.41231 0.42754 0.74369 0.0
C2657 C 0.42517 0.41215 0.86524 0.0
C2658 C 0.41994 0.41668 0.82326 0.0
H2659 H 0.40023 0.43204 0.5713 0.0
H2660 H 0.4028 0.41996 0.64207 0.0
H2661 H 0.40455 0.43237 0.81117 0.0
H2662 H 0.44075 0.42122 0.98461 0.0
H2663 H 0.4302 0.42737 0.92034 0.0
loop_
_geom_bond_atom_site_label_1
_geom_bond_atom_site_label_2
_geom_bond_distance
_geom_bond_site_symmetry_2
_ccdc_geom_bond_type
Mg0 O1 2.028 . S
Mg0 O7 1.986 . S
Mg0 O9 2.114 . S
Mg0 O10 2.251 . S
Mg0 O13 2.010 . S
O1 Mg0 2.028 . S
O1 C4 1.250 . S
O2 Mg3 2.028 . S
O2 C4 1.248 . S
Mg3 O2 2.028 . S
Mg3 O8 2.032 . S
Mg3 O10 2.079 . S
C4 O1 1.250 . S
C4 O2 1.248 . S
C5 O6 1.264 . S
C5 O13 1.249 . S
O6 C5 1.264 . S
O7 Mg0 1.986 . S
O7 C11 1.246 . S
O8 Mg3 2.032 . S
O8 C11 1.259 . S
O9 Mg0 2.114 . S
O9 C12 1.252 . S
O10 Mg0 2.251 . S
O10 Mg3 2.079 . S
O10 C12 1.273 . S
C11 O7 1.246 . S
C11 O8 1.259 . S
C12 O9 1.252 . S
C12 O10 1.273 . S
O13 Mg0 2.010 . S
O13 C5 1.249 . S
Mg14 O15 2.028 . S
Mg14 O21 1.986 . S
Mg14 O23 2.114 . S
Mg14 O24 2.251 . S
Mg14 O27 2.010 . S
O15 Mg14 2.028 . S
O15 C18 1.250 . S
O16 Mg17 2.028 . S
O16 C18 1.248 . S
Mg17 O16 2.028 . S
Mg17 O22 2.032 . S
Mg17 O24 2.079 . S
C18 O15 1.250 . S
C18 O16 1.248 . S
C19 O20 1.264 . S
C19 O27 1.249 . S
O20 C19 1.264 . S
O21 Mg14 1.986 . S
O21 C25 1.246 . S
O22 Mg17 2.032 . S
O22 C25 1.259 . S
O23 Mg14 2.114 . S
O23 C26 1.252 . S
O24 Mg14 2.251 . S
O24 Mg17 2.079 . S
O24 C26 1.273 . S
C25 O21 1.246 . S
C25 O22 1.259 . S
C26 O23 1.252 . S
C26 O24 1.273 . S
O27 Mg14 2.010 . S
O27 C19 1.249 . S
Mg28 O29 2.028 . S
Mg28 O35 1.986 . S
Mg28 O37 2.114 . S
Mg28 O38 2.251 . S
Mg28 O41 2.010 . S
O29 Mg28 2.028 . S
O29 C32 1.250 . S
O30 Mg31 2.028 . S
O30 C32 1.248 . S
Mg31 O30 2.028 . S
Mg31 O36 2.032 . S
Mg31 O38 2.079 . S
C32 O29 1.250 . S
C32 O30 1.248 . S
C33 O34 1.264 . S
C33 O41 1.249 . S
O34 C33 1.264 . S
O35 Mg28 1.986 . S
O35 C39 1.246 . S
O36 Mg31 2.032 . S
O36 C39 1.259 . S
O37 Mg28 2.114 . S
O37 C40 1.252 . S
O38 Mg28 2.251 . S
O38 Mg31 2.079 . S
O38 C40 1.273 . S
C39 O35 1.246 . S
C39 O36 1.259 . S
C40 O37 1.252 . S
C40 O38 1.273 . S
O41 Mg28 2.010 . S
O41 C33 1.249 . S
Mg42 O43 2.028 . S
Mg42 O49 1.986 . S
Mg42 O51 2.114 . S
Mg42 O52 2.251 . S
Mg42 O55 2.010 . S
O43 Mg42 2.028 . S
O43 C46 1.250 . S
O44 Mg45 2.028 . S
O44 C46 1.248 . S
Mg45 O44 2.028 . S
Mg45 O50 2.032 . S
Mg45 O52 2.079 . S
C46 O43 1.250 . S
C46 O44 1.248 . S
C47 O48 1.264 . S
C47 O55 1.249 . S
O48 C47 1.264 . S
O49 Mg42 1.986 . S
O49 C53 1.246 . S
O50 Mg45 2.032 . S
O50 C53 1.259 . S
O51 Mg42 2.114 . S
O51 C54 1.252 . S
O52 Mg42 2.251 . S
O52 Mg45 2.079 . S
O52 C54 1.273 . S
C53 O49 1.246 . S
C53 O50 1.259 . S
C54 O51 1.252 . S
C54 O52 1.273 . S
O55 Mg42 2.010 . S
O55 C47 1.249 . S
Mg56 O57 2.028 . S
Mg56 O63 1.986 . S
Mg56 O65 2.114 . S
Mg56 O66 2.251 . S
Mg56 O69 2.010 . S
O57 Mg56 2.028 . S
O57 C60 1.250 . S
O58 Mg59 2.028 . S
O58 C60 1.248 . S
Mg59 O58 2.028 . S
Mg59 O64 2.032 . S
Mg59 O66 2.079 . S
C60 O57 1.250 . S
C60 O58 1.248 . S
C61 O62 1.264 . S
C61 O69 1.249 . S
O62 C61 1.264 . S
O63 Mg56 1.986 . S
O63 C67 1.246 . S
O64 Mg59 2.032 . S
O64 C67 1.259 . S
O65 Mg56 2.114 . S
O65 C68 1.252 . S
O66 Mg56 2.251 . S
O66 Mg59 2.079 . S
O66 C68 1.273 . S
C67 O63 1.246 . S
C67 O64 1.259 . S
C68 O65 1.252 . S
C68 O66 1.273 . S
O69 Mg56 2.010 . S
O69 C61 1.249 . S
Mg70 O71 2.028 . S
Mg70 O77 1.986 . S
Mg70 O79 2.114 . S
Mg70 O80 2.251 . S
Mg70 O83 2.010 . S
O71 Mg70 2.028 . S
O71 C74 1.250 . S
O72 Mg73 2.028 . S
O72 C74 1.248 . S
Mg73 O72 2.028 . S
Mg73 O78 2.032 . S
Mg73 O80 2.079 . S
C74 O71 1.250 . S
C74 O72 1.248 . S
C75 O76 1.264 . S
C75 O83 1.249 . S
O76 C75 1.264 . S
O77 Mg70 1.986 . S
O77 C81 1.246 . S
O78 Mg73 2.032 . S
O78 C81 1.259 . S
O79 Mg70 2.114 . S
O79 C82 1.252 . S
O80 Mg70 2.251 . S
O80 Mg73 2.079 . S
O80 C82 1.273 . S
C81 O77 1.246 . S
C81 O78 1.259 . S
C82 O79 1.252 . S
C82 O80 1.273 . S
O83 Mg70 2.010 . S
O83 C75 1.249 . S
Mg84 O85 2.028 . S
Mg84 O91 1.986 . S
Mg84 O93 2.114 . S
Mg84 O94 2.251 . S
Mg84 O97 2.010 . S
O85 Mg84 2.028 . S
O85 C88 1.250 . S
O86 Mg87 2.028 . S
O86 C88 1.248 . S
Mg87 O86 2.028 . S
Mg87 O92 2.032 . S
Mg87 O94 2.079 . S
C88 O85 1.250 . S
C88 O86 1.248 . S
C89 O90 1.264 . S
C89 O97 1.249 . S
O90 C89 1.264 . S
O91 Mg84 1.986 . S
O91 C95 1.246 . S
O92 Mg87 2.032 . S
O92 C95 1.259 . S
O93 Mg84 2.114 . S
O93 C96 1.252 . S
O94 Mg84 2.251 . S
O94 Mg87 2.079 . S
O94 C96 1.273 . S
C95 O91 1.246 . S
C95 O92 1.259 . S
C96 O93 1.252 . S
C96 O94 1.273 . S
O97 Mg84 2.010 . S
O97 C89 1.249 . S
Mg98 O99 2.028 . S
Mg98 O105 1.986 . S
Mg98 O107 2.114 . S
Mg98 O108 2.251 . S
Mg98 O111 2.010 . S
O99 Mg98 2.028 . S
O99 C102 1.250 . S
O100 Mg101 2.028 . S
O100 C102 1.248 . S
Mg101 O100 2.028 . S
Mg101 O106 2.032 . S
Mg101 O108 2.079 . S
C102 O99 1.250 . S
C102 O100 1.248 . S
C103 O104 1.264 . S
C103 O111 1.249 . S
O104 C103 1.264 . S
O105 Mg98 1.986 . S
O105 C109 1.246 . S
O106 Mg101 2.032 . S
O106 C109 1.259 . S
O107 Mg98 2.114 . S
O107 C110 1.252 . S
O108 Mg98 2.251 . S
O108 Mg101 2.079 . S
O108 C110 1.273 . S
C109 O105 1.246 . S
C109 O106 1.259 . S
C110 O107 1.252 . S
C110 O108 1.273 . S
O111 Mg98 2.010 . S
O111 C103 1.249 . S
Mg112 O113 2.028 . S
Mg112 O119 1.986 . S
Mg112 O121 2.114 . S
Mg112 O122 2.251 . S
Mg112 O125 2.010 . S
O113 Mg112 2.028 . S
O113 C116 1.250 . S
O114 Mg115 2.028 . S
O114 C116 1.248 . S
Mg115 O114 2.028 . S
Mg115 O120 2.032 . S
Mg115 O122 2.079 . S
C116 O113 1.250 . S
C116 O114 1.248 . S
C117 O118 1.264 . S
C117 O125 1.249 . S
O118 C117 1.264 . S
O119 Mg112 1.986 . S
O119 C123 1.246 . S
O120 Mg115 2.032 . S
O120 C123 1.259 . S
O121 Mg112 2.114 . S
O121 C124 1.252 . S
O122 Mg112 2.251 . S
O122 Mg115 2.079 . S
O122 C124 1.273 . S
C123 O119 1.246 . S
C123 O120 1.259 . S
C124 O121 1.252 . S
C124 O122 1.273 . S
O125 Mg112 2.010 . S
O125 C117 1.249 . S
Mg126 O127 2.028 . S
Mg126 O133 1.986 . S
Mg126 O135 2.114 . S
Mg126 O136 2.251 . S
Mg126 O139 2.010 . S
O127 Mg126 2.028 . S
O127 C130 1.250 . S
O128 Mg129 2.028 . S
O128 C130 1.248 . S
Mg129 O128 2.028 . S
Mg129 O134 2.032 . S
Mg129 O136 2.079 . S
C130 O127 1.250 . S
C130 O128 1.248 . S
C131 O132 1.264 . S
C131 O139 1.249 . S
O132 C131 1.264 . S
O133 Mg126 1.986 . S
O133 C137 1.246 . S
O134 Mg129 2.032 . S
O134 C137 1.259 . S
O135 Mg126 2.114 . S
O135 C138 1.252 . S
O136 Mg126 2.251 . S
O136 Mg129 2.079 . S
O136 C138 1.273 . S
C137 O133 1.246 . S
C137 O134 1.259 . S
C138 O135 1.252 . S
C138 O136 1.273 . S
O139 Mg126 2.010 . S
O139 C131 1.249 . S
Mg140 O141 2.028 . S
Mg140 O147 1.986 . S
Mg140 O149 2.114 . S
Mg140 O150 2.251 . S
Mg140 O153 2.010 . S
O141 Mg140 2.028 . S
O141 C144 1.250 . S
O142 Mg143 2.028 . S
O142 C144 1.248 . S
Mg143 O142 2.028 . S
Mg143 O148 2.032 . S
Mg143 O150 2.079 . S
C144 O141 1.250 . S
C144 O142 1.248 . S
C145 O146 1.264 . S
C145 O153 1.249 . S
O146 C145 1.264 . S
O147 Mg140 1.986 . S
O147 C151 1.246 . S
O148 Mg143 2.032 . S
O148 C151 1.259 . S
O149 Mg140 2.114 . S
O149 C152 1.252 . S
O150 Mg140 2.251 . S
O150 Mg143 2.079 . S
O150 C152 1.273 . S
C151 O147 1.246 . S
C151 O148 1.259 . S
C152 O149 1.252 . S
C152 O150 1.273 . S
O153 Mg140 2.010 . S
O153 C145 1.249 . S
Mg154 O155 2.028 . S
Mg154 O161 1.986 . S
Mg154 O163 2.114 . S
Mg154 O164 2.251 . S
Mg154 O167 2.010 . S
O155 Mg154 2.028 . S
O155 C158 1.250 . S
O156 Mg157 2.028 . S
O156 C158 1.248 . S
Mg157 O156 2.028 . S
Mg157 O162 2.032 . S
Mg157 O164 2.079 . S
C158 O155 1.250 . S
C158 O156 1.248 . S
C159 O160 1.264 . S
C159 O167 1.249 . S
O160 C159 1.264 . S
O161 Mg154 1.986 . S
O161 C165 1.246 . S
O162 Mg157 2.032 . S
O162 C165 1.259 . S
O163 Mg154 2.114 . S
O163 C166 1.252 . S
O164 Mg154 2.251 . S
O164 Mg157 2.079 . S
O164 C166 1.273 . S
C165 O161 1.246 . S
C165 O162 1.259 . S
C166 O163 1.252 . S
C166 O164 1.273 . S
O167 Mg154 2.010 . S
O167 C159 1.249 . S
Mg168 O169 2.028 . S
Mg168 O175 1.986 . S
Mg168 O177 2.114 . S
Mg168 O178 2.251 . S
Mg168 O181 2.010 . S
O169 Mg168 2.028 . S
O169 C172 1.250 . S
O170 Mg171 2.028 . S
O170 C172 1.248 . S
Mg171 O170 2.028 . S
Mg171 O176 2.032 . S
Mg171 O178 2.079 . S
C172 O169 1.250 . S
C172 O170 1.248 . S
C173 O174 1.264 . S
C173 O181 1.249 . S
O174 C173 1.264 . S
O175 Mg168 1.986 . S
O175 C179 1.246 . S
O176 Mg171 2.032 . S
O176 C179 1.259 . S
O177 Mg168 2.114 . S
O177 C180 1.252 . S
O178 Mg168 2.251 . S
O178 Mg171 2.079 . S
O178 C180 1.273 . S
C179 O175 1.246 . S
C179 O176 1.259 . S
C180 O177 1.252 . S
C180 O178 1.273 . S
O181 Mg168 2.010 . S
O181 C173 1.249 . S
Mg182 O183 2.028 . S
Mg182 O189 1.986 . S
Mg182 O191 2.114 . S
Mg182 O192 2.251 . S
Mg182 O195 2.010 . S
O183 Mg182 2.028 . S
O183 C186 1.250 . S
O184 Mg185 2.028 . S
O184 C186 1.248 . S
Mg185 O184 2.028 . S
Mg185 O190 2.032 . S
Mg185 O192 2.079 . S
C186 O183 1.250 . S
C186 O184 1.248 . S
C187 O188 1.264 . S
C187 O195 1.249 . S
O188 C187 1.264 . S
O189 Mg182 1.986 . S
O189 C193 1.246 . S
O190 Mg185 2.032 . S
O190 C193 1.259 . S
O191 Mg182 2.114 . S
O191 C194 1.252 . S
O192 Mg182 2.251 . S
O192 Mg185 2.079 . S
O192 C194 1.273 . S
C193 O189 1.246 . S
C193 O190 1.259 . S
C194 O191 1.252 . S
C194 O192 1.273 . S
O195 Mg182 2.010 . S
O195 C187 1.249 . S
Mg196 O197 2.028 . S
Mg196 O203 1.986 . S
Mg196 O205 2.114 . S
Mg196 O206 2.251 . S
Mg196 O209 2.010 . S
O197 Mg196 2.028 . S
O197 C200 1.250 . S
O198 Mg199 2.028 . S
O198 C200 1.248 . S
Mg199 O198 2.028 . S
Mg199 O204 2.032 . S
Mg199 O206 2.079 . S
C200 O197 1.250 . S
C200 O198 1.248 . S
C201 O202 1.264 . S
C201 O209 1.249 . S
O202 C201 1.264 . S
O203 Mg196 1.986 . S
O203 C207 1.246 . S
O204 Mg199 2.032 . S
O204 C207 1.259 . S
O205 Mg196 2.114 . S
O205 C208 1.252 . S
O206 Mg196 2.251 . S
O206 Mg199 2.079 . S
O206 C208 1.273 . S
C207 O203 1.246 . S
C207 O204 1.259 . S
C208 O205 1.252 . S
C208 O206 1.273 . S
O209 Mg196 2.010 . S
O209 C201 1.249 . S
Mg210 O211 2.028 . S
Mg210 O217 1.986 . S
Mg210 O219 2.114 . S
Mg210 O220 2.251 . S
Mg210 O223 2.010 . S
O211 Mg210 2.028 . S
O211 C214 1.250 . S
O212 Mg213 2.028 . S
O212 C214 1.248 . S
Mg213 O212 2.028 . S
Mg213 O218 2.032 . S
Mg213 O220 2.079 . S
C214 O211 1.250 . S
C214 O212 1.248 . S
C215 O216 1.264 . S
C215 O223 1.249 . S
O216 C215 1.264 . S
O217 Mg210 1.986 . S
O217 C221 1.246 . S
O218 Mg213 2.032 . S
O218 C221 1.259 . S
O219 Mg210 2.114 . S
O219 C222 1.252 . S
O220 Mg210 2.251 . S
O220 Mg213 2.079 . S
O220 C222 1.273 . S
C221 O217 1.246 . S
C221 O218 1.259 . S
C222 O219 1.252 . S
C222 O220 1.273 . S
O223 Mg210 2.010 . S
O223 C215 1.249 . S
Mg224 O225 2.028 . S
Mg224 O231 1.986 . S
Mg224 O233 2.114 . S
Mg224 O234 2.251 . S
Mg224 O237 2.010 . S
O225 Mg224 2.028 . S
O225 C228 1.250 . S
O226 Mg227 2.028 . S
O226 C228 1.248 . S
Mg227 O226 2.028 . S
Mg227 O232 2.032 . S
Mg227 O234 2.079 . S
C228 O225 1.250 . S
C228 O226 1.248 . S
C229 O230 1.264 . S
C229 O237 1.249 . S
O230 C229 1.264 . S
O231 Mg224 1.986 . S
O231 C235 1.246 . S
O232 Mg227 2.032 . S
O232 C235 1.259 . S
O233 Mg224 2.114 . S
O233 C236 1.252 . S
O234 Mg224 2.251 . S
O234 Mg227 2.079 . S
O234 C236 1.273 . S
C235 O231 1.246 . S
C235 O232 1.259 . S
C236 O233 1.252 . S
C236 O234 1.273 . S
O237 Mg224 2.010 . S
O237 C229 1.249 . S
Mg238 O239 2.028 . S
Mg238 O245 1.986 . S
Mg238 O247 2.114 . S
Mg238 O248 2.251 . S
Mg238 O251 2.010 . S
O239 Mg238 2.028 . S
O239 C242 1.250 . S
O240 Mg241 2.028 . S
O240 C242 1.248 . S
Mg241 O240 2.028 . S
Mg241 O246 2.032 . S
Mg241 O248 2.079 . S
C242 O239 1.250 . S
C242 O240 1.248 . S
C243 O244 1.264 . S
C243 O251 1.249 . S
O244 C243 1.264 . S
O245 Mg238 1.986 . S
O245 C249 1.246 . S
O246 Mg241 2.032 . S
O246 C249 1.259 . S
O247 Mg238 2.114 . S
O247 C250 1.252 . S
O248 Mg238 2.251 . S
O248 Mg241 2.079 . S
O248 C250 1.273 . S
C249 O245 1.246 . S
C249 O246 1.259 . S
C250 O247 1.252 . S
C250 O248 1.273 . S
O251 Mg238 2.010 . S
O251 C243 1.249 . S
Mg252 O253 2.028 . S
Mg252 O259 1.986 . S
Mg252 O261 2.114 . S
Mg252 O262 2.251 . S
Mg252 O265 2.010 . S
O253 Mg252 2.028 . S
O253 C256 1.250 . S
O254 Mg255 2.028 . S
O254 C256 1.248 . S
Mg255 O254 2.028 . S
Mg255 O260 2.032 . S
Mg255 O262 2.079 . S
C256 O253 1.250 . S
C256 O254 1.248 . S
C257 O258 1.264 . S
C257 O265 1.249 . S
O258 C257 1.264 . S
O259 Mg252 1.986 . S
O259 C263 1.246 . S
O260 Mg255 2.032 . S
O260 C263 1.259 . S
O261 Mg252 2.114 . S
O261 C264 1.252 . S
O262 Mg252 2.251 . S
O262 Mg255 2.079 . S
O262 C264 1.273 . S
C263 O259 1.246 . S
C263 O260 1.259 . S
C264 O261 1.252 . S
C264 O262 1.273 . S
O265 Mg252 2.010 . S
O265 C257 1.249 . S
Mg266 O267 2.028 . S
Mg266 O273 1.986 . S
Mg266 O275 2.114 . S
Mg266 O276 2.251 . S
Mg266 O279 2.010 . S
O267 Mg266 2.028 . S
O267 C270 1.250 . S
O268 Mg269 2.028 . S
O268 C270 1.248 . S
Mg269 O268 2.028 . S
Mg269 O274 2.032 . S
Mg269 O276 2.079 . S
C270 O267 1.250 . S
C270 O268 1.248 . S
C271 O272 1.264 . S
C271 O279 1.249 . S
O272 C271 1.264 . S
O273 Mg266 1.986 . S
O273 C277 1.246 . S
O274 Mg269 2.032 . S
O274 C277 1.259 . S
O275 Mg266 2.114 . S
O275 C278 1.252 . S
O276 Mg266 2.251 . S
O276 Mg269 2.079 . S
O276 C278 1.273 . S
C277 O273 1.246 . S
C277 O274 1.259 . S
C278 O275 1.252 . S
C278 O276 1.273 . S
O279 Mg266 2.010 . S
O279 C271 1.249 . S
Mg280 O281 2.028 . S
Mg280 O287 1.986 . S
Mg280 O289 2.114 . S
Mg280 O290 2.251 . S
Mg280 O293 2.010 . S
O281 Mg280 2.028 . S
O281 C284 1.250 . S
O282 Mg283 2.028 . S
O282 C284 1.248 . S
Mg283 O282 2.028 . S
Mg283 O288 2.032 . S
Mg283 O290 2.079 . S
C284 O281 1.250 . S
C284 O282 1.248 . S
C285 O286 1.264 . S
C285 O293 1.249 . S
O286 C285 1.264 . S
O287 Mg280 1.986 . S
O287 C291 1.246 . S
O288 Mg283 2.032 . S
O288 C291 1.259 . S
O289 Mg280 2.114 . S
O289 C292 1.252 . S
O290 Mg280 2.251 . S
O290 Mg283 2.079 . S
O290 C292 1.273 . S
C291 O287 1.246 . S
C291 O288 1.259 . S
C292 O289 1.252 . S
C292 O290 1.273 . S
O293 Mg280 2.010 . S
O293 C285 1.249 . S
Mg294 O295 2.028 . S
Mg294 O301 1.986 . S
Mg294 O303 2.114 . S
Mg294 O304 2.251 1_556 S
Mg294 O307 2.010 . S
O295 Mg294 2.028 . S
O295 C298 1.250 . S
O296 Mg297 2.028 . S
O296 C298 1.248 . S
Mg297 O296 2.028 . S
Mg297 O302 2.032 . S
Mg297 O304 2.079 1_556 S
C298 O295 1.250 . S
C298 O296 1.248 . S
C299 O300 1.264 . S
C299 O307 1.249 . S
O300 C299 1.264 . S
O301 Mg294 1.986 . S
O301 C305 1.246 . S
O302 Mg297 2.032 . S
O302 C305 1.259 . S
O303 Mg294 2.114 . S
O303 C306 1.252 1_556 S
O304 Mg294 2.251 1_554 S
O304 Mg297 2.079 1_554 S
O304 C306 1.273 . S
C305 O301 1.246 . S
C305 O302 1.259 . S
C306 O303 1.252 1_554 S
C306 O304 1.273 . S
O307 Mg294 2.010 . S
O307 C299 1.249 . S
Mg308 O309 2.028 . S
Mg308 O315 1.986 . S
Mg308 O317 2.114 . S
Mg308 O318 2.251 1_556 S
Mg308 O321 2.010 . S
O309 Mg308 2.028 . S
O309 C312 1.250 . S
O310 Mg311 2.028 . S
O310 C312 1.248 . S
Mg311 O310 2.028 . S
Mg311 O316 2.032 . S
Mg311 O318 2.079 1_556 S
C312 O309 1.250 . S
C312 O310 1.248 . S
C313 O314 1.264 . S
C313 O321 1.249 . S
O314 C313 1.264 . S
O315 Mg308 1.986 . S
O315 C319 1.246 . S
O316 Mg311 2.032 . S
O316 C319 1.259 . S
O317 Mg308 2.114 . S
O317 C320 1.252 1_556 S
O318 Mg308 2.251 1_554 S
O318 Mg311 2.079 1_554 S
O318 C320 1.273 . S
C319 O315 1.246 . S
C319 O316 1.259 . S
C320 O317 1.252 1_554 S
C320 O318 1.273 . S
O321 Mg308 2.010 . S
O321 C313 1.249 . S
Mg322 O323 2.028 . S
Mg322 O329 1.986 . S
Mg322 O331 2.114 . S
Mg322 O332 2.251 1_556 S
Mg322 O335 2.010 . S
O323 Mg322 2.028 . S
O323 C326 1.250 . S
O324 Mg325 2.028 . S
O324 C326 1.248 . S
Mg325 O324 2.028 . S
Mg325 O330 2.032 . S
Mg325 O332 2.079 1_556 S
C326 O323 1.250 . S
C326 O324 1.248 . S
C327 O328 1.264 . S
C327 O335 1.249 . S
O328 C327 1.264 . S
O329 Mg322 1.986 . S
O329 C333 1.246 . S
O330 Mg325 2.032 . S
O330 C333 1.259 . S
O331 Mg322 2.114 . S
O331 C334 1.252 1_556 S
O332 Mg322 2.251 1_554 S
O332 Mg325 2.079 1_554 S
O332 C334 1.273 . S
C333 O329 1.246 . S
C333 O330 1.259 . S
C334 O331 1.252 1_554 S
C334 O332 1.273 . S
O335 Mg322 2.010 . S
O335 C327 1.249 . S
Mg336 O337 2.028 . S
Mg336 O343 1.986 . S
Mg336 O345 2.114 . S
Mg336 O346 2.251 . S
Mg336 O349 2.010 . S
O337 Mg336 2.028 . S
O337 C340 1.250 . S
O338 Mg339 2.028 . S
O338 C340 1.248 . S
Mg339 O338 2.028 . S
Mg339 O344 2.032 . S
Mg339 O346 2.079 . S
C340 O337 1.250 . S
C340 O338 1.248 . S
C341 O342 1.264 . S
C341 O349 1.249 . S
O342 C341 1.264 . S
O343 Mg336 1.986 . S
O343 C347 1.246 . S
O344 Mg339 2.032 . S
O344 C347 1.259 . S
O345 Mg336 2.114 . S
O345 C348 1.252 . S
O346 Mg336 2.251 . S
O346 Mg339 2.079 . S
O346 C348 1.273 . S
C347 O343 1.246 . S
C347 O344 1.259 . S
C348 O345 1.252 . S
C348 O346 1.273 . S
O349 Mg336 2.010 . S
O349 C341 1.249 . S
Mg350 O351 2.028 . S
Mg350 O357 1.986 . S
Mg350 O359 2.114 . S
Mg350 O360 2.251 . S
Mg350 O363 2.010 . S
O351 Mg350 2.028 . S
O351 C354 1.250 . S
O352 Mg353 2.028 . S
O352 C354 1.248 . S
Mg353 O352 2.028 . S
Mg353 O358 2.032 . S
Mg353 O360 2.079 . S
C354 O351 1.250 . S
C354 O352 1.248 . S
C355 O356 1.264 . S
C355 O363 1.249 . S
O356 C355 1.264 . S
O357 Mg350 1.986 . S
O357 C361 1.246 . S
O358 Mg353 2.032 . S
O358 C361 1.259 . S
O359 Mg350 2.114 . S
O359 C362 1.252 . S
O360 Mg350 2.251 . S
O360 Mg353 2.079 . S
O360 C362 1.273 . S
C361 O357 1.246 . S
C361 O358 1.259 . S
C362 O359 1.252 . S
C362 O360 1.273 . S
O363 Mg350 2.010 . S
O363 C355 1.249 . S
Mg364 O365 2.028 . S
Mg364 O371 1.986 . S
Mg364 O373 2.114 . S
Mg364 O374 2.251 . S
Mg364 O377 2.010 . S
O365 Mg364 2.028 . S
O365 C368 1.250 . S
O366 Mg367 2.028 . S
O366 C368 1.248 . S
Mg367 O366 2.028 . S
Mg367 O372 2.032 . S
Mg367 O374 2.079 . S
C368 O365 1.250 . S
C368 O366 1.248 . S
C369 O370 1.264 . S
C369 O377 1.249 . S
O370 C369 1.264 . S
O371 Mg364 1.986 . S
O371 C375 1.246 . S
O372 Mg367 2.032 . S
O372 C375 1.259 . S
O373 Mg364 2.114 . S
O373 C376 1.252 . S
O374 Mg364 2.251 . S
O374 Mg367 2.079 . S
O374 C376 1.273 . S
C375 O371 1.246 . S
C375 O372 1.259 . S
C376 O373 1.252 . S
C376 O374 1.273 . S
O377 Mg364 2.010 . S
O377 C369 1.249 . S
Mg378 O379 2.028 . S
Mg378 O385 1.986 . S
Mg378 O387 2.114 . S
Mg378 O388 2.251 1_554 S
Mg378 O391 2.010 . S
O379 Mg378 2.028 . S
O379 C382 1.250 . S
O380 Mg381 2.028 . S
O380 C382 1.248 . S
Mg381 O380 2.028 . S
Mg381 O386 2.032 . S
Mg381 O388 2.079 1_554 S
C382 O379 1.250 . S
C382 O380 1.248 . S
C383 O384 1.264 . S
C383 O391 1.249 . S
O384 C383 1.264 . S
O385 Mg378 1.986 . S
O385 C389 1.246 . S
O386 Mg381 2.032 . S
O386 C389 1.259 . S
O387 Mg378 2.114 . S
O387 C390 1.252 1_554 S
O388 Mg378 2.251 1_556 S
O388 Mg381 2.079 1_556 S
O388 C390 1.273 . S
C389 O385 1.246 . S
C389 O386 1.259 . S
C390 O387 1.252 1_556 S
C390 O388 1.273 . S
O391 Mg378 2.010 . S
O391 C383 1.249 . S
Mg392 O393 2.028 . S
Mg392 O399 1.986 . S
Mg392 O401 2.114 . S
Mg392 O402 2.251 1_554 S
Mg392 O405 2.010 . S
O393 Mg392 2.028 . S
O393 C396 1.250 . S
O394 Mg395 2.028 . S
O394 C396 1.248 . S
Mg395 O394 2.028 . S
Mg395 O400 2.032 . S
Mg395 O402 2.079 1_554 S
C396 O393 1.250 . S
C396 O394 1.248 . S
C397 O398 1.264 . S
C397 O405 1.249 . S
O398 C397 1.264 . S
O399 Mg392 1.986 . S
O399 C403 1.246 . S
O400 Mg395 2.032 . S
O400 C403 1.259 . S
O401 Mg392 2.114 . S
O401 C404 1.252 1_554 S
O402 Mg392 2.251 1_556 S
O402 Mg395 2.079 1_556 S
O402 C404 1.273 . S
C403 O399 1.246 . S
C403 O400 1.259 . S
C404 O401 1.252 1_556 S
C404 O402 1.273 . S
O405 Mg392 2.010 . S
O405 C397 1.249 . S
Mg406 O407 2.028 . S
Mg406 O413 1.986 . S
Mg406 O415 2.114 . S
Mg406 O416 2.251 1_554 S
Mg406 O419 2.010 . S
O407 Mg406 2.028 . S
O407 C410 1.250 . S
O408 Mg409 2.028 . S
O408 C410 1.248 . S
Mg409 O408 2.028 . S
Mg409 O414 2.032 . S
Mg409 O416 2.079 1_554 S
C410 O407 1.250 . S
C410 O408 1.248 . S
C411 O412 1.264 . S
C411 O419 1.249 . S
O412 C411 1.264 . S
O413 Mg406 1.986 . S
O413 C417 1.246 . S
O414 Mg409 2.032 . S
O414 C417 1.259 . S
O415 Mg406 2.114 . S
O415 C418 1.252 1_554 S
O416 Mg406 2.251 1_556 S
O416 Mg409 2.079 1_556 S
O416 C418 1.273 . S
C417 O413 1.246 . S
C417 O414 1.259 . S
C418 O415 1.252 1_556 S
C418 O416 1.273 . S
O419 Mg406 2.010 . S
O419 C411 1.249 . S
Mg420 O421 2.028 . S
Mg420 O427 1.986 . S
Mg420 O429 2.114 . S
Mg420 O430 2.251 . S
Mg420 O433 2.010 . S
O421 Mg420 2.028 . S
O421 C424 1.250 . S
O422 Mg423 2.028 . S
O422 C424 1.248 . S
Mg423 O422 2.028 . S
Mg423 O428 2.032 . S
Mg423 O430 2.079 . S
C424 O421 1.250 . S
C424 O422 1.248 . S
C425 O426 1.264 . S
C425 O433 1.249 . S
O426 C425 1.264 . S
O427 Mg420 1.986 . S
O427 C431 1.246 . S
O428 Mg423 2.032 . S
O428 C431 1.259 . S
O429 Mg420 2.114 . S
O429 C432 1.252 . S
O430 Mg420 2.251 . S
O430 Mg423 2.079 . S
O430 C432 1.273 . S
C431 O427 1.246 . S
C431 O428 1.259 . S
C432 O429 1.252 . S
C432 O430 1.273 . S
O433 Mg420 2.010 . S
O433 C425 1.249 . S
Mg434 O435 2.028 . S
Mg434 O441 1.986 . S
Mg434 O443 2.114 . S
Mg434 O444 2.251 . S
Mg434 O447 2.010 . S
O435 Mg434 2.028 . S
O435 C438 1.250 . S
O436 Mg437 2.028 . S
O436 C438 1.248 . S
Mg437 O436 2.028 . S
Mg437 O442 2.032 . S
Mg437 O444 2.079 . S
C438 O435 1.250 . S
C438 O436 1.248 . S
C439 O440 1.264 . S
C439 O447 1.249 . S
O440 C439 1.264 . S
O441 Mg434 1.986 . S
O441 C445 1.246 . S
O442 Mg437 2.032 . S
O442 C445 1.259 . S
O443 Mg434 2.114 . S
O443 C446 1.252 . S
O444 Mg434 2.251 . S
O444 Mg437 2.079 . S
O444 C446 1.273 . S
C445 O441 1.246 . S
C445 O442 1.259 . S
C446 O443 1.252 . S
C446 O444 1.273 . S
O447 Mg434 2.010 . S
O447 C439 1.249 . S
Mg448 O449 2.028 . S
Mg448 O455 1.986 . S
Mg448 O457 2.114 . S
Mg448 O458 2.251 . S
Mg448 O461 2.010 . S
O449 Mg448 2.028 . S
O449 C452 1.250 . S
O450 Mg451 2.028 . S
O450 C452 1.248 . S
Mg451 O450 2.028 . S
Mg451 O456 2.032 . S
Mg451 O458 2.079 . S
C452 O449 1.250 . S
C452 O450 1.248 . S
C453 O454 1.264 . S
C453 O461 1.249 . S
O454 C453 1.264 . S
O455 Mg448 1.986 . S
O455 C459 1.246 . S
O456 Mg451 2.032 . S
O456 C459 1.259 . S
O457 Mg448 2.114 . S
O457 C460 1.252 . S
O458 Mg448 2.251 . S
O458 Mg451 2.079 . S
O458 C460 1.273 . S
C459 O455 1.246 . S
C459 O456 1.259 . S
C460 O457 1.252 . S
C460 O458 1.273 . S
O461 Mg448 2.010 . S
O461 C453 1.249 . S
Mg462 O463 2.028 . S
Mg462 O469 1.986 . S
Mg462 O471 2.114 . S
Mg462 O472 2.251 . S
Mg462 O475 2.010 . S
O463 Mg462 2.028 . S
O463 C466 1.250 . S
O464 Mg465 2.028 . S
O464 C466 1.248 . S
Mg465 O464 2.028 . S
Mg465 O470 2.032 . S
Mg465 O472 2.079 . S
C466 O463 1.250 . S
C466 O464 1.248 . S
C467 O468 1.264 . S
C467 O475 1.249 . S
O468 C467 1.264 . S
O469 Mg462 1.986 . S
O469 C473 1.246 . S
O470 Mg465 2.032 . S
O470 C473 1.259 . S
O471 Mg462 2.114 . S
O471 C474 1.252 . S
O472 Mg462 2.251 . S
O472 Mg465 2.079 . S
O472 C474 1.273 . S
C473 O469 1.246 . S
C473 O470 1.259 . S
C474 O471 1.252 . S
C474 O472 1.273 . S
O475 Mg462 2.010 . S
O475 C467 1.249 . S
Mg476 O477 2.028 . S
Mg476 O483 1.986 . S
Mg476 O485 2.114 . S
Mg476 O486 2.251 . S
Mg476 O489 2.010 . S
O477 Mg476 2.028 . S
O477 C480 1.250 . S
O478 Mg479 2.028 . S
O478 C480 1.248 . S
Mg479 O478 2.028 . S
Mg479 O484 2.032 . S
Mg479 O486 2.079 . S
C480 O477 1.250 . S
C480 O478 1.248 . S
C481 O482 1.264 . S
C481 O489 1.249 . S
O482 C481 1.264 . S
O483 Mg476 1.986 . S
O483 C487 1.246 . S
O484 Mg479 2.032 . S
O484 C487 1.259 . S
O485 Mg476 2.114 . S
O485 C488 1.252 . S
O486 Mg476 2.251 . S
O486 Mg479 2.079 . S
O486 C488 1.273 . S
C487 O483 1.246 . S
C487 O484 1.259 . S
C488 O485 1.252 . S
C488 O486 1.273 . S
O489 Mg476 2.010 . S
O489 C481 1.249 . S
Mg490 O491 2.028 . S
Mg490 O497 1.986 . S
Mg490 O499 2.114 . S
Mg490 O500 2.251 . S
Mg490 O503 2.010 . S
O491 Mg490 2.028 . S
O491 C494 1.250 . S
O492 Mg493 2.028 . S
O492 C494 1.248 . S
Mg493 O492 2.028 . S
Mg493 O498 2.032 . S
Mg493 O500 2.079 . S
C494 O491 1.250 . S
C494 O492 1.248 . S
C495 O496 1.264 . S
C495 O503 1.249 . S
O496 C495 1.264 . S
O497 Mg490 1.986 . S
O497 C501 1.246 . S
O498 Mg493 2.032 . S
O498 C501 1.259 . S
O499 Mg490 2.114 . S
O499 C502 1.252 . S
O500 Mg490 2.251 . S
O500 Mg493 2.079 . S
O500 C502 1.273 . S
C501 O497 1.246 . S
C501 O498 1.259 . S
C502 O499 1.252 . S
C502 O500 1.273 . S
O503 Mg490 2.010 . S
O503 C495 1.249 . S
C504 C505 1.349 . S
C504 C506 1.327 . S
C504 H529 0.950 . S
C505 C504 1.349 . S
C505 C521 1.349 . S
C506 C504 1.327 . S
C506 C525 1.429 . S
C506 H530 0.950 . S
C507 C524 1.574 1_565 S
C507 C526 1.368 . S
C507 H531 0.949 . S
H508 C512 0.949 . S
C509 C510 1.349 . S
C509 C511 1.327 . S
C509 H532 0.950 . S
C510 C509 1.349 . S
C510 C522 1.349 . S
C511 C509 1.327 . S
C511 C527 1.429 . S
C511 H533 0.950 . S
C512 H508 0.949 . S
C512 C520 1.574 1_545 S
C512 C528 1.368 . S
H513 C521 0.950 . S
H514 C519 0.950 . S
H515 C520 0.949 . S
H516 C522 0.950 . S
H517 C523 0.950 . S
H518 C524 0.949 . S
C519 H514 0.950 . S
C519 C521 1.327 . S
C519 C525 1.429 . S
C520 C512 1.574 1_565 S
C520 H515 0.949 . S
C520 C526 1.368 . S
C521 C505 1.349 . S
C521 H513 0.950 . S
C521 C519 1.327 . S
C522 C510 1.349 . S
C522 H516 0.950 . S
C522 C523 1.327 . S
C523 H517 0.950 . S
C523 C522 1.327 . S
C523 C527 1.429 . S
C524 C507 1.574 1_545 S
C524 H518 0.949 . S
C524 C528 1.368 . S
C525 C506 1.429 . S
C525 C519 1.429 . S
C525 C526 1.523 . S
C526 C507 1.368 . S
C526 C520 1.368 . S
C526 C525 1.523 . S
C527 C511 1.429 . S
C527 C523 1.429 . S
C527 C528 1.523 . S
C528 C512 1.368 . S
C528 C524 1.368 . S
C528 C527 1.523 . S
H529 C504 0.950 . S
H530 C506 0.950 . S
H531 C507 0.949 . S
H532 C509 0.950 . S
H533 C511 0.950 . S
C534 C535 1.349 . S
C534 C536 1.327 . S
C534 H559 0.950 . S
C535 C534 1.349 . S
C535 C551 1.349 . S
C536 C534 1.327 . S
C536 C555 1.429 . S
C536 H560 0.950 . S
C537 C554 1.574 1_655 S
C537 C556 1.368 . S
C537 H561 0.949 . S
H538 C542 0.949 . S
C539 C540 1.349 . S
C539 C541 1.327 . S
C539 H562 0.950 . S
C540 C539 1.349 . S
C540 C552 1.349 . S
C541 C539 1.327 . S
C541 C557 1.429 . S
C541 H563 0.950 . S
C542 H538 0.949 . S
C542 C550 1.574 1_455 S
C542 C558 1.368 . S
H543 C551 0.950 . S
H544 C549 0.950 . S
H545 C550 0.949 . S
H546 C552 0.950 . S
H547 C553 0.950 . S
H548 C554 0.949 . S
C549 H544 0.950 . S
C549 C551 1.327 . S
C549 C555 1.429 . S
C550 C542 1.574 1_655 S
C550 H545 0.949 . S
C550 C556 1.368 . S
C551 C535 1.349 . S
C551 H543 0.950 . S
C551 C549 1.327 . S
C552 C540 1.349 . S
C552 H546 0.950 . S
C552 C553 1.327 . S
C553 H547 0.950 . S
C553 C552 1.327 . S
C553 C557 1.429 . S
C554 C537 1.574 1_455 S
C554 H548 0.949 . S
C554 C558 1.368 . S
C555 C536 1.429 . S
C555 C549 1.429 . S
C555 C556 1.523 . S
C556 C537 1.368 . S
C556 C550 1.368 . S
C556 C555 1.523 . S
C557 C541 1.429 . S
C557 C553 1.429 . S
C557 C558 1.523 . S
C558 C542 1.368 . S
C558 C554 1.368 . S
C558 C557 1.523 . S
H559 C534 0.950 . S
H560 C536 0.950 . S
H561 C537 0.949 . S
H562 C539 0.950 . S
H563 C541 0.950 . S
C564 C565 1.349 . S
C564 C566 1.327 . S
C564 H589 0.950 . S
C565 C564 1.349 . S
C565 C581 1.349 . S
C566 C564 1.327 . S
C566 C585 1.429 . S
C566 H590 0.950 . S
C567 C584 1.574 . S
C567 C586 1.368 . S
C567 H591 0.949 . S
H568 C572 0.949 . S
C569 C570 1.349 . S
C569 C571 1.327 . S
C569 H592 0.950 . S
C570 C569 1.349 . S
C570 C582 1.349 . S
C571 C569 1.327 . S
C571 C587 1.429 . S
C571 H593 0.950 . S
C572 H568 0.949 . S
C572 C580 1.574 . S
C572 C588 1.368 . S
H573 C581 0.950 . S
H574 C579 0.950 . S
H575 C580 0.949 . S
H576 C582 0.950 . S
H577 C583 0.950 . S
H578 C584 0.949 . S
C579 H574 0.950 . S
C579 C581 1.327 . S
C579 C585 1.429 . S
C580 C572 1.574 . S
C580 H575 0.949 . S
C580 C586 1.368 . S
C581 C565 1.349 . S
C581 H573 0.950 . S
C581 C579 1.327 . S
C582 C570 1.349 . S
C582 H576 0.950 . S
C582 C583 1.327 . S
C583 H577 0.950 . S
C583 C582 1.327 . S
C583 C587 1.429 . S
C584 C567 1.574 . S
C584 H578 0.949 . S
C584 C588 1.368 . S
C585 C566 1.429 . S
C585 C579 1.429 . S
C585 C586 1.523 . S
C586 C567 1.368 . S
C586 C580 1.368 . S
C586 C585 1.523 . S
C587 C571 1.429 . S
C587 C583 1.429 . S
C587 C588 1.523 . S
C588 C572 1.368 . S
C588 C584 1.368 . S
C588 C587 1.523 . S
H589 C564 0.950 . S
H590 C566 0.950 . S
H591 C567 0.949 . S
H592 C569 0.950 . S
H593 C571 0.950 . S
C594 C595 1.349 . S
C594 C596 1.327 . S
C594 H619 0.950 . S
C595 C594 1.349 . S
C595 C611 1.349 . S
C596 C594 1.327 . S
C596 C615 1.429 . S
C596 H620 0.950 . S
C597 C614 1.574 1_565 S
C597 C616 1.368 . S
C597 H621 0.949 . S
H598 C602 0.949 . S
C599 C600 1.349 . S
C599 C601 1.327 . S
C599 H622 0.950 . S
C600 C599 1.349 . S
C600 C612 1.349 . S
C601 C599 1.327 . S
C601 C617 1.429 . S
C601 H623 0.950 . S
C602 H598 0.949 . S
C602 C610 1.574 1_545 S
C602 C618 1.368 . S
H603 C611 0.950 . S
H604 C609 0.950 . S
H605 C610 0.949 . S
H606 C612 0.950 . S
H607 C613 0.950 . S
H608 C614 0.949 . S
C609 H604 0.950 . S
C609 C611 1.327 . S
C609 C615 1.429 . S
C610 C602 1.574 1_565 S
C610 H605 0.949 . S
C610 C616 1.368 . S
C611 C595 1.349 . S
C611 H603 0.950 . S
C611 C609 1.327 . S
C612 C600 1.349 . S
C612 H606 0.950 . S
C612 C613 1.327 . S
C613 H607 0.950 . S
C613 C612 1.327 . S
C613 C617 1.429 . S
C614 C597 1.574 1_545 S
C614 H608 0.949 . S
C614 C618 1.368 . S
C615 C596 1.429 . S
C615 C609 1.429 . S
C615 C616 1.523 . S
C616 C597 1.368 . S
C616 C610 1.368 . S
C616 C615 1.523 . S
C617 C601 1.429 . S
C617 C613 1.429 . S
C617 C618 1.523 . S
C618 C602 1.368 . S
C618 C614 1.368 . S
C618 C617 1.523 . S
H619 C594 0.950 . S
H620 C596 0.950 . S
H621 C597 0.949 . S
H622 C599 0.950 . S
H623 C601 0.950 . S
C624 C625 1.349 . S
C624 C626 1.327 . S
C624 H649 0.950 . S
C625 C624 1.349 . S
C625 C641 1.349 . S
C626 C624 1.327 . S
C626 C645 1.429 . S
C626 H650 0.950 . S
C627 C644 1.539 1_455 S
C627 C646 1.368 . S
C627 H651 0.949 . S
H628 C632 0.949 . S
C629 C630 1.349 . S
C629 C631 1.327 . S
C629 H652 0.950 . S
C630 C629 1.349 . S
C630 C642 1.349 . S
C631 C629 1.327 . S
C631 C647 1.429 . S
C631 H653 0.950 . S
C632 H628 0.949 . S
C632 C640 1.537 1_655 S
C632 C648 1.368 . S
H633 C641 0.950 . S
H634 C639 0.950 . S
H635 C640 0.961 . S
H636 C642 0.950 . S
H637 C643 0.950 . S
H638 C644 0.961 . S
C639 H634 0.950 . S
C639 C641 1.327 . S
C639 C645 1.429 . S
C640 C632 1.537 1_455 S
C640 H635 0.961 . S
C640 C646 1.393 . S
C641 C625 1.349 . S
C641 H633 0.950 . S
C641 C639 1.327 . S
C642 C630 1.349 . S
C642 H636 0.950 . S
C642 C643 1.327 . S
C643 H637 0.950 . S
C643 C642 1.327 . S
C643 C647 1.429 . S
C644 C627 1.539 1_655 S
C644 H638 0.961 . S
C644 C648 1.392 . S
C645 C626 1.429 . S
C645 C639 1.429 . S
C645 C646 1.523 . S
C646 C627 1.368 . S
C646 C640 1.393 . S
C646 C645 1.523 . S
C647 C631 1.429 . S
C647 C643 1.429 . S
C647 C648 1.523 . S
C648 C632 1.368 . S
C648 C644 1.392 . S
C648 C647 1.523 . S
H649 C624 0.950 . S
H650 C626 0.950 . S
H651 C627 0.949 . S
H652 C629 0.950 . S
H653 C631 0.950 . S
C654 C655 1.349 . S
C654 C656 1.327 . S
C654 H679 0.950 . S
C655 C654 1.349 . S
C655 C671 1.349 . S
C656 C654 1.327 . S
C656 C675 1.429 . S
C656 H680 0.950 . S
C657 C674 1.574 . S
C657 C676 1.368 . S
C657 H681 0.949 . S
H658 C662 0.949 . S
C659 C660 1.349 . S
C659 C661 1.327 . S
C659 H682 0.950 . S
C660 C659 1.349 . S
C660 C672 1.349 . S
C661 C659 1.327 . S
C661 C677 1.429 . S
C661 H683 0.950 . S
C662 H658 0.949 . S
C662 C670 1.574 . S
C662 C678 1.368 . S
H663 C671 0.950 . S
H664 C669 0.950 . S
H665 C670 0.949 . S
H666 C672 0.950 . S
H667 C673 0.950 . S
H668 C674 0.949 . S
C669 H664 0.950 . S
C669 C671 1.327 . S
C669 C675 1.429 . S
C670 C662 1.574 . S
C670 H665 0.949 . S
C670 C676 1.368 . S
C671 C655 1.349 . S
C671 H663 0.950 . S
C671 C669 1.327 . S
C672 C660 1.349 . S
C672 H666 0.950 . S
C672 C673 1.327 . S
C673 H667 0.950 . S
C673 C672 1.327 . S
C673 C677 1.429 . S
C674 C657 1.574 . S
C674 H668 0.949 . S
C674 C678 1.368 . S
C675 C656 1.429 . S
C675 C669 1.429 . S
C675 C676 1.523 . S
C676 C657 1.368 . S
C676 C670 1.368 . S
C676 C675 1.523 . S
C677 C661 1.429 . S
C677 C673 1.429 . S
C677 C678 1.523 . S
C678 C662 1.368 . S
C678 C674 1.368 . S
C678 C677 1.523 . S
H679 C654 0.950 . S
H680 C656 0.950 . S
H681 C657 0.949 . S
H682 C659 0.950 . S
H683 C661 0.950 . S
C684 C685 1.349 . S
C684 C686 1.327 . S
C684 H709 0.950 . S
C685 C684 1.349 . S
C685 C701 1.349 . S
C686 C684 1.327 . S
C686 C705 1.429 . S
C686 H710 0.950 . S
C687 C704 1.574 . S
C687 C706 1.368 . S
C687 H711 0.949 . S
H688 C692 0.949 . S
C689 C690 1.349 . S
C689 C691 1.327 . S
C689 H712 0.950 . S
C690 C689 1.349 . S
C690 C702 1.349 . S
C691 C689 1.327 . S
C691 C707 1.429 . S
C691 H713 0.950 . S
C692 H688 0.949 . S
C692 C700 1.574 . S
C692 C708 1.368 . S
H693 C701 0.950 . S
H694 C699 0.950 . S
H695 C700 0.949 . S
H696 C702 0.950 . S
H697 C703 0.950 . S
H698 C704 0.949 . S
C699 H694 0.950 . S
C699 C701 1.327 . S
C699 C705 1.429 . S
C700 C692 1.574 . S
C700 H695 0.949 . S
C700 C706 1.368 . S
C701 C685 1.349 . S
C701 H693 0.950 . S
C701 C699 1.327 . S
C702 C690 1.349 . S
C702 H696 0.950 . S
C702 C703 1.327 . S
C703 H697 0.950 . S
C703 C702 1.327 . S
C703 C707 1.429 . S
C704 C687 1.574 . S
C704 H698 0.949 . S
C704 C708 1.368 . S
C705 C686 1.429 . S
C705 C699 1.429 . S
C705 C706 1.523 . S
C706 C687 1.368 . S
C706 C700 1.368 . S
C706 C705 1.523 . S
C707 C691 1.429 . S
C707 C703 1.429 . S
C707 C708 1.523 . S
C708 C692 1.368 . S
C708 C704 1.368 . S
C708 C707 1.523 . S
H709 C684 0.950 . S
H710 C686 0.950 . S
H711 C687 0.949 . S
H712 C689 0.950 . S
H713 C691 0.950 . S
C714 C715 1.349 . S
C714 C716 1.327 . S
C714 H739 0.950 . S
C715 C714 1.349 . S
C715 C731 1.349 . S
C716 C714 1.327 . S
C716 C735 1.429 . S
C716 H740 0.950 . S
C717 C734 1.574 . S
C717 C736 1.368 . S
C717 H741 0.949 . S
H718 C722 0.949 . S
C719 C720 1.349 . S
C719 C721 1.327 . S
C719 H742 0.950 . S
C720 C719 1.349 . S
C720 C732 1.349 . S
C721 C719 1.327 . S
C721 C737 1.429 . S
C721 H743 0.950 . S
C722 H718 0.949 . S
C722 C730 1.574 . S
C722 C738 1.368 . S
H723 C731 0.950 . S
H724 C729 0.950 . S
H725 C730 0.949 . S
H726 C732 0.950 . S
H727 C733 0.950 . S
H728 C734 0.949 . S
C729 H724 0.950 . S
C729 C731 1.327 . S
C729 C735 1.429 . S
C730 C722 1.574 . S
C730 H725 0.949 . S
C730 C736 1.368 . S
C731 C715 1.349 . S
C731 H723 0.950 . S
C731 C729 1.327 . S
C732 C720 1.349 . S
C732 H726 0.950 . S
C732 C733 1.327 . S
C733 H727 0.950 . S
C733 C732 1.327 . S
C733 C737 1.429 . S
C734 C717 1.574 . S
C734 H728 0.949 . S
C734 C738 1.368 . S
C735 C716 1.429 . S
C735 C729 1.429 . S
C735 C736 1.523 . S
C736 C717 1.368 . S
C736 C730 1.368 . S
C736 C735 1.523 . S
C737 C721 1.429 . S
C737 C733 1.429 . S
C737 C738 1.523 . S
C738 C722 1.368 . S
C738 C734 1.368 . S
C738 C737 1.523 . S
H739 C714 0.950 . S
H740 C716 0.950 . S
H741 C717 0.949 . S
H742 C719 0.950 . S
H743 C721 0.950 . S
C744 C745 1.349 . S
C744 C746 1.327 . S
C744 H769 0.950 . S
C745 C744 1.349 . S
C745 C761 1.349 . S
C746 C744 1.327 . S
C746 C765 1.429 . S
C746 H770 0.950 . S
C747 C764 1.574 . S
C747 C766 1.368 . S
C747 H771 0.949 . S
H748 C752 0.949 . S
C749 C750 1.349 . S
C749 C751 1.327 . S
C749 H772 0.950 . S
C750 C749 1.349 . S
C750 C762 1.349 . S
C751 C749 1.327 . S
C751 C767 1.429 . S
C751 H773 0.950 . S
C752 H748 0.949 . S
C752 C760 1.574 . S
C752 C768 1.368 . S
H753 C761 0.950 . S
H754 C759 0.950 . S
H755 C760 0.949 . S
H756 C762 0.950 . S
H757 C763 0.950 . S
H758 C764 0.949 . S
C759 H754 0.950 . S
C759 C761 1.327 . S
C759 C765 1.429 . S
C760 C752 1.574 . S
C760 H755 0.949 . S
C760 C766 1.368 . S
C761 C745 1.349 . S
C761 H753 0.950 . S
C761 C759 1.327 . S
C762 C750 1.349 . S
C762 H756 0.950 . S
C762 C763 1.327 . S
C763 H757 0.950 . S
C763 C762 1.327 . S
C763 C767 1.429 . S
C764 C747 1.574 . S
C764 H758 0.949 . S
C764 C768 1.368 . S
C765 C746 1.429 . S
C765 C759 1.429 . S
C765 C766 1.523 . S
C766 C747 1.368 . S
C766 C760 1.368 . S
C766 C765 1.523 . S
C767 C751 1.429 . S
C767 C763 1.429 . S
C767 C768 1.523 . S
C768 C752 1.368 . S
C768 C764 1.368 . S
C768 C767 1.523 . S
H769 C744 0.950 . S
H770 C746 0.950 . S
H771 C747 0.949 . S
H772 C749 0.950 . S
H773 C751 0.950 . S
C774 C775 1.349 . S
C774 C776 1.327 . S
C774 H799 0.950 . S
C775 C774 1.349 . S
C775 C791 1.349 . S
C776 C774 1.327 . S
C776 C795 1.429 . S
C776 H800 0.950 . S
C777 C794 1.574 . S
C777 C796 1.368 . S
C777 H801 0.949 . S
H778 C782 0.949 1_556 S
C779 C780 1.349 1_554 S
C779 C781 1.327 . S
C779 H802 0.950 . S
C780 C779 1.349 1_556 S
C780 C792 1.349 . S
C781 C779 1.327 . S
C781 C797 1.429 . S
C781 H803 0.950 . S
C782 H778 0.949 1_554 S
C782 C790 1.574 . S
C782 C798 1.368 . S
H783 C791 0.950 . S
H784 C789 0.950 . S
H785 C790 0.949 . S
H786 C792 0.950 . S
H787 C793 0.950 . S
H788 C794 0.949 . S
C789 H784 0.950 . S
C789 C791 1.327 . S
C789 C795 1.429 . S
C790 C782 1.574 . S
C790 H785 0.949 . S
C790 C796 1.368 . S
C791 C775 1.349 . S
C791 H783 0.950 . S
C791 C789 1.327 . S
C792 C780 1.349 . S
C792 H786 0.950 . S
C792 C793 1.327 . S
C793 H787 0.950 . S
C793 C792 1.327 . S
C793 C797 1.429 1_556 S
C794 C777 1.574 . S
C794 H788 0.949 . S
C794 C798 1.368 . S
C795 C776 1.429 . S
C795 C789 1.429 . S
C795 C796 1.523 . S
C796 C777 1.368 . S
C796 C790 1.368 . S
C796 C795 1.523 . S
C797 C781 1.429 . S
C797 C793 1.429 1_554 S
C797 C798 1.523 . S
C798 C782 1.368 . S
C798 C794 1.368 . S
C798 C797 1.523 . S
H799 C774 0.950 . S
H800 C776 0.950 . S
H801 C777 0.949 . S
H802 C779 0.950 . S
H803 C781 0.950 . S
C804 C805 1.349 . S
C804 C806 1.327 . S
C804 H829 0.950 . S
C805 C804 1.349 . S
C805 C821 1.349 . S
C806 C804 1.327 . S
C806 C825 1.429 . S
C806 H830 0.950 . S
C807 C824 1.574 . S
C807 C826 1.368 . S
C807 H831 0.949 . S
H808 C812 0.949 . S
C809 C810 1.349 . S
C809 C811 1.327 . S
C809 H832 0.950 . S
C810 C809 1.349 . S
C810 C822 1.349 1_556 S
C811 C809 1.327 . S
C811 C827 1.429 1_556 S
C811 H833 0.950 . S
C812 H808 0.949 . S
C812 C820 1.574 . S
C812 C828 1.368 . S
H813 C821 0.950 . S
H814 C819 0.950 . S
H815 C820 0.949 . S
H816 C822 0.950 . S
H817 C823 0.950 . S
H818 C824 0.949 1_556 S
C819 H814 0.950 . S
C819 C821 1.327 . S
C819 C825 1.429 . S
C820 C812 1.574 . S
C820 H815 0.949 . S
C820 C826 1.368 . S
C821 C805 1.349 . S
C821 H813 0.950 . S
C821 C819 1.327 . S
C822 C810 1.349 1_554 S
C822 H816 0.950 . S
C822 C823 1.327 . S
C823 H817 0.950 . S
C823 C822 1.327 . S
C823 C827 1.429 . S
C824 C807 1.574 . S
C824 H818 0.949 1_554 S
C824 C828 1.368 . S
C825 C806 1.429 . S
C825 C819 1.429 . S
C825 C826 1.523 . S
C826 C807 1.368 . S
C826 C820 1.368 . S
C826 C825 1.523 . S
C827 C811 1.429 1_554 S
C827 C823 1.429 . S
C827 C828 1.523 . S
C828 C812 1.368 . S
C828 C824 1.368 . S
C828 C827 1.523 . S
H829 C804 0.950 . S
H830 C806 0.950 . S
H831 C807 0.949 . S
H832 C809 0.950 . S
H833 C811 0.950 . S
C834 C835 1.349 . S
C834 C836 1.327 . S
C834 H859 0.950 . S
C835 C834 1.349 . S
C835 C851 1.349 . S
C836 C834 1.327 . S
C836 C855 1.429 . S
C836 H860 0.950 . S
C837 C854 1.574 . S
C837 C856 1.368 . S
C837 H861 0.949 . S
H838 C842 0.949 . S
C839 C840 1.349 . S
C839 C841 1.327 . S
C839 H862 0.950 . S
C840 C839 1.349 . S
C840 C852 1.349 1_556 S
C841 C839 1.327 . S
C841 C857 1.429 1_556 S
C841 H863 0.950 . S
C842 H838 0.949 . S
C842 C850 1.574 . S
C842 C858 1.368 . S
H843 C851 0.950 . S
H844 C849 0.950 . S
H845 C850 0.949 . S
H846 C852 0.950 . S
H847 C853 0.950 . S
H848 C854 0.949 1_556 S
C849 H844 0.950 . S
C849 C851 1.327 . S
C849 C855 1.429 . S
C850 C842 1.574 . S
C850 H845 0.949 . S
C850 C856 1.368 . S
C851 C835 1.349 . S
C851 H843 0.950 . S
C851 C849 1.327 . S
C852 C840 1.349 1_554 S
C852 H846 0.950 . S
C852 C853 1.327 . S
C853 H847 0.950 . S
C853 C852 1.327 . S
C853 C857 1.429 . S
C854 C837 1.574 . S
C854 H848 0.949 1_554 S
C854 C858 1.368 . S
C855 C836 1.429 . S
C855 C849 1.429 . S
C855 C856 1.523 . S
C856 C837 1.368 . S
C856 C850 1.368 . S
C856 C855 1.523 . S
C857 C841 1.429 1_554 S
C857 C853 1.429 . S
C857 C858 1.523 . S
C858 C842 1.368 . S
C858 C854 1.368 . S
C858 C857 1.523 . S
H859 C834 0.950 . S
H860 C836 0.950 . S
H861 C837 0.949 . S
H862 C839 0.950 . S
H863 C841 0.950 . S
C864 C865 1.349 . S
C864 C866 1.327 . S
C864 H889 0.950 . S
C865 C864 1.349 . S
C865 C881 1.349 . S
C866 C864 1.327 . S
C866 C885 1.429 . S
C866 H890 0.950 . S
C867 C884 1.574 . S
C867 C886 1.368 . S
C867 H891 0.949 . S
H868 C872 0.949 1_554 S
C869 C870 1.349 1_556 S
C869 C871 1.327 . S
C869 H892 0.950 . S
C870 C869 1.349 1_554 S
C870 C882 1.349 . S
C871 C869 1.327 . S
C871 C887 1.429 . S
C871 H893 0.950 . S
C872 H868 0.949 1_556 S
C872 C880 1.574 . S
C872 C888 1.368 . S
H873 C881 0.950 . S
H874 C879 0.950 . S
H875 C880 0.949 . S
H876 C882 0.950 . S
H877 C883 0.950 . S
H878 C884 0.949 . S
C879 H874 0.950 . S
C879 C881 1.327 . S
C879 C885 1.429 . S
C880 C872 1.574 . S
C880 H875 0.949 . S
C880 C886 1.368 . S
C881 C865 1.349 . S
C881 H873 0.950 . S
C881 C879 1.327 . S
C882 C870 1.349 . S
C882 H876 0.950 . S
C882 C883 1.327 . S
C883 H877 0.950 . S
C883 C882 1.327 . S
C883 C887 1.429 1_554 S
C884 C867 1.574 . S
C884 H878 0.949 . S
C884 C888 1.368 . S
C885 C866 1.429 . S
C885 C879 1.429 . S
C885 C886 1.523 . S
C886 C867 1.368 . S
C886 C880 1.368 . S
C886 C885 1.523 . S
C887 C871 1.429 . S
C887 C883 1.429 1_556 S
C887 C888 1.523 . S
C888 C872 1.368 . S
C888 C884 1.368 . S
C888 C887 1.523 . S
H889 C864 0.950 . S
H890 C866 0.950 . S
H891 C867 0.949 . S
H892 C869 0.950 . S
H893 C871 0.950 . S
C894 C895 1.349 1_556 S
C894 C896 1.327 . S
C894 H919 0.950 . S
C895 C894 1.349 1_554 S
C895 C911 1.349 . S
C896 C894 1.327 . S
C896 C915 1.429 . S
C896 H920 0.950 . S
C897 C914 1.574 . S
C897 C916 1.368 . S
C897 H921 0.949 1_556 S
H898 C902 0.949 . S
C899 C900 1.349 . S
C899 C901 1.327 . S
C899 H922 0.950 . S
C900 C899 1.349 . S
C900 C912 1.349 . S
C901 C899 1.327 . S
C901 C917 1.429 . S
C901 H923 0.950 . S
C902 H898 0.949 . S
C902 C910 1.574 . S
C902 C918 1.368 . S
H903 C911 0.950 . S
H904 C909 0.950 . S
H905 C910 0.949 . S
H906 C912 0.950 . S
H907 C913 0.950 . S
H908 C914 0.949 . S
C909 H904 0.950 . S
C909 C911 1.327 . S
C909 C915 1.429 1_554 S
C910 C902 1.574 . S
C910 H905 0.949 . S
C910 C916 1.368 . S
C911 C895 1.349 . S
C911 H903 0.950 . S
C911 C909 1.327 . S
C912 C900 1.349 . S
C912 H906 0.950 . S
C912 C913 1.327 . S
C913 H907 0.950 . S
C913 C912 1.327 . S
C913 C917 1.429 . S
C914 C897 1.574 . S
C914 H908 0.949 . S
C914 C918 1.368 . S
C915 C896 1.429 . S
C915 C909 1.429 1_556 S
C915 C916 1.523 . S
C916 C897 1.368 . S
C916 C910 1.368 . S
C916 C915 1.523 . S
C917 C901 1.429 . S
C917 C913 1.429 . S
C917 C918 1.523 . S
C918 C902 1.368 . S
C918 C914 1.368 . S
C918 C917 1.523 . S
H919 C894 0.950 . S
H920 C896 0.950 . S
H921 C897 0.949 1_554 S
H922 C899 0.950 . S
H923 C901 0.950 . S
C924 C925 1.349 . S
C924 C926 1.327 . S
C924 H949 0.950 . S
C925 C924 1.349 . S
C925 C941 1.349 . S
C926 C924 1.327 . S
C926 C945 1.429 . S
C926 H950 0.950 . S
C927 C944 1.574 . S
C927 C946 1.368 . S
C927 H951 0.949 . S
H928 C932 0.949 . S
C929 C930 1.349 . S
C929 C931 1.327 . S
C929 H952 0.950 . S
C930 C929 1.349 . S
C930 C942 1.349 1_554 S
C931 C929 1.327 . S
C931 C947 1.429 1_554 S
C931 H953 0.950 . S
C932 H928 0.949 . S
C932 C940 1.574 . S
C932 C948 1.368 . S
H933 C941 0.950 . S
H934 C939 0.950 . S
H935 C940 0.949 . S
H936 C942 0.950 . S
H937 C943 0.950 . S
H938 C944 0.949 1_554 S
C939 H934 0.950 . S
C939 C941 1.327 . S
C939 C945 1.429 . S
C940 C932 1.574 . S
C940 H935 0.949 . S
C940 C946 1.368 . S
C941 C925 1.349 . S
C941 H933 0.950 . S
C941 C939 1.327 . S
C942 C930 1.349 1_556 S
C942 H936 0.950 . S
C942 C943 1.327 . S
C943 H937 0.950 . S
C943 C942 1.327 . S
C943 C947 1.429 . S
C944 C927 1.574 . S
C944 H938 0.949 1_556 S
C944 C948 1.368 . S
C945 C926 1.429 . S
C945 C939 1.429 . S
C945 C946 1.523 . S
C946 C927 1.368 . S
C946 C940 1.368 . S
C946 C945 1.523 . S
C947 C931 1.429 1_556 S
C947 C943 1.429 . S
C947 C948 1.523 . S
C948 C932 1.368 . S
C948 C944 1.368 . S
C948 C947 1.523 . S
H949 C924 0.950 . S
H950 C926 0.950 . S
H951 C927 0.949 . S
H952 C929 0.950 . S
H953 C931 0.950 . S
C954 C955 1.349 . S
C954 C956 1.327 . S
C954 H979 0.950 . S
C955 C954 1.349 . S
C955 C971 1.349 . S
C956 C954 1.327 . S
C956 C975 1.429 . S
C956 H980 0.950 . S
C957 C974 1.574 . S
C957 C976 1.368 . S
C957 H981 0.949 . S
H958 C962 0.949 . S
C959 C960 1.349 . S
C959 C961 1.327 . S
C959 H982 0.950 . S
C960 C959 1.349 . S
C960 C972 1.349 . S
C961 C959 1.327 . S
C961 C977 1.429 . S
C961 H983 0.950 . S
C962 H958 0.949 . S
C962 C970 1.574 . S
C962 C978 1.368 . S
H963 C971 0.950 . S
H964 C969 0.950 . S
H965 C970 0.949 . S
H966 C972 0.950 . S
H967 C973 0.950 . S
H968 C974 0.949 . S
C969 H964 0.950 . S
C969 C971 1.327 . S
C969 C975 1.429 . S
C970 C962 1.574 . S
C970 H965 0.949 . S
C970 C976 1.368 . S
C971 C955 1.349 . S
C971 H963 0.950 . S
C971 C969 1.327 . S
C972 C960 1.349 . S
C972 H966 0.950 . S
C972 C973 1.327 . S
C973 H967 0.950 . S
C973 C972 1.327 . S
C973 C977 1.429 . S
C974 C957 1.574 . S
C974 H968 0.949 . S
C974 C978 1.368 . S
C975 C956 1.429 . S
C975 C969 1.429 . S
C975 C976 1.523 . S
C976 C957 1.368 . S
C976 C970 1.368 . S
C976 C975 1.523 . S
C977 C961 1.429 . S
C977 C973 1.429 . S
C977 C978 1.523 . S
C978 C962 1.368 . S
C978 C974 1.368 . S
C978 C977 1.523 . S
H979 C954 0.950 . S
H980 C956 0.950 . S
H981 C957 0.949 . S
H982 C959 0.950 . S
H983 C961 0.950 . S
C984 C985 1.349 . S
C984 C986 1.327 . S
C984 H1009 0.950 . S
C985 C984 1.349 . S
C985 C1001 1.349 . S
C986 C984 1.327 . S
C986 C1005 1.429 . S
C986 H1010 0.950 . S
C987 C1004 1.574 . S
C987 C1006 1.368 . S
C987 H1011 0.949 . S
H988 C992 0.949 . S
C989 C990 1.349 . S
C989 C991 1.327 . S
C989 H1012 0.950 . S
C990 C989 1.349 . S
C990 C1002 1.349 . S
C991 C989 1.327 . S
C991 C1007 1.429 . S
C991 H1013 0.950 . S
C992 H988 0.949 . S
C992 C1000 1.574 . S
C992 C1008 1.368 . S
H993 C1001 0.950 . S
H994 C999 0.950 . S
H995 C1000 0.949 . S
H996 C1002 0.950 . S
H997 C1003 0.950 . S
H998 C1004 0.949 . S
C999 H994 0.950 . S
C999 C1001 1.327 . S
C999 C1005 1.429 . S
C1000 C992 1.574 . S
C1000 H995 0.949 . S
C1000 C1006 1.368 . S
C1001 C985 1.349 . S
C1001 H993 0.950 . S
C1001 C999 1.327 . S
C1002 C990 1.349 . S
C1002 H996 0.950 . S
C1002 C1003 1.327 . S
C1003 H997 0.950 . S
C1003 C1002 1.327 . S
C1003 C1007 1.429 . S
C1004 C987 1.574 . S
C1004 H998 0.949 . S
C1004 C1008 1.368 . S
C1005 C986 1.429 . S
C1005 C999 1.429 . S
C1005 C1006 1.523 . S
C1006 C987 1.368 . S
C1006 C1000 1.368 . S
C1006 C1005 1.523 . S
C1007 C991 1.429 . S
C1007 C1003 1.429 . S
C1007 C1008 1.523 . S
C1008 C992 1.368 . S
C1008 C1004 1.368 . S
C1008 C1007 1.523 . S
H1009 C984 0.950 . S
H1010 C986 0.950 . S
H1011 C987 0.949 . S
H1012 C989 0.950 . S
H1013 C991 0.950 . S
C1014 C1015 1.349 . S
C1014 C1016 1.327 . S
C1014 H1039 0.950 . S
C1015 C1014 1.349 . S
C1015 C1031 1.349 . S
C1016 C1014 1.327 . S
C1016 C1035 1.429 . S
C1016 H1040 0.950 . S
C1017 C1034 1.574 . S
C1017 C1036 1.368 . S
C1017 H1041 0.949 . S
H1018 C1022 0.949 . S
C1019 C1020 1.349 . S
C1019 C1021 1.327 . S
C1019 H1042 0.950 . S
C1020 C1019 1.349 . S
C1020 C1032 1.349 . S
C1021 C1019 1.327 . S
C1021 C1037 1.429 . S
C1021 H1043 0.950 . S
C1022 H1018 0.949 . S
C1022 C1030 1.574 . S
C1022 C1038 1.368 . S
H1023 C1031 0.950 . S
H1024 C1029 0.950 . S
H1025 C1030 0.949 . S
H1026 C1032 0.950 . S
H1027 C1033 0.950 . S
H1028 C1034 0.949 . S
C1029 H1024 0.950 . S
C1029 C1031 1.327 . S
C1029 C1035 1.429 . S
C1030 C1022 1.574 . S
C1030 H1025 0.949 . S
C1030 C1036 1.368 . S
C1031 C1015 1.349 . S
C1031 H1023 0.950 . S
C1031 C1029 1.327 . S
C1032 C1020 1.349 . S
C1032 H1026 0.950 . S
C1032 C1033 1.327 . S
C1033 H1027 0.950 . S
C1033 C1032 1.327 . S
C1033 C1037 1.429 . S
C1034 C1017 1.574 . S
C1034 H1028 0.949 . S
C1034 C1038 1.368 . S
C1035 C1016 1.429 . S
C1035 C1029 1.429 . S
C1035 C1036 1.523 . S
C1036 C1017 1.368 . S
C1036 C1030 1.368 . S
C1036 C1035 1.523 . S
C1037 C1021 1.429 . S
C1037 C1033 1.429 . S
C1037 C1038 1.523 . S
C1038 C1022 1.368 . S
C1038 C1034 1.368 . S
C1038 C1037 1.523 . S
H1039 C1014 0.950 . S
H1040 C1016 0.950 . S
H1041 C1017 0.949 . S
H1042 C1019 0.950 . S
H1043 C1021 0.950 . S
C1044 C1045 1.349 . S
C1044 C1046 1.327 . S
C1044 H1069 0.950 . S
C1045 C1044 1.349 . S
C1045 C1061 1.349 . S
C1046 C1044 1.327 . S
C1046 C1065 1.429 . S
C1046 H1070 0.950 . S
C1047 C1064 1.574 . S
C1047 C1066 1.368 . S
C1047 H1071 0.949 . S
H1048 C1052 0.949 . S
C1049 C1050 1.349 . S
C1049 C1051 1.327 1_554 S
C1049 H1072 0.950 . S
C1050 C1049 1.349 . S
C1050 C1062 1.349 1_554 S
C1051 C1049 1.327 1_556 S
C1051 C1067 1.429 . S
C1051 H1073 0.950 1_556 S
C1052 H1048 0.949 . S
C1052 C1060 1.574 . S
C1052 C1068 1.368 . S
H1053 C1061 0.950 . S
H1054 C1059 0.950 . S
H1055 C1060 0.949 . S
H1056 C1062 0.950 . S
H1057 C1063 0.950 . S
H1058 C1064 0.949 . S
C1059 H1054 0.950 . S
C1059 C1061 1.327 . S
C1059 C1065 1.429 . S
C1060 C1052 1.574 . S
C1060 H1055 0.949 . S
C1060 C1066 1.368 . S
C1061 C1045 1.349 . S
C1061 H1053 0.950 . S
C1061 C1059 1.327 . S
C1062 C1050 1.349 1_556 S
C1062 H1056 0.950 . S
C1062 C1063 1.327 . S
C1063 H1057 0.950 . S
C1063 C1062 1.327 . S
C1063 C1067 1.429 . S
C1064 C1047 1.574 . S
C1064 H1058 0.949 . S
C1064 C1068 1.368 . S
C1065 C1046 1.429 . S
C1065 C1059 1.429 . S
C1065 C1066 1.523 . S
C1066 C1047 1.368 . S
C1066 C1060 1.368 . S
C1066 C1065 1.523 . S
C1067 C1051 1.429 . S
C1067 C1063 1.429 . S
C1067 C1068 1.523 . S
C1068 C1052 1.368 . S
C1068 C1064 1.368 . S
C1068 C1067 1.523 . S
H1069 C1044 0.950 . S
H1070 C1046 0.950 . S
H1071 C1047 0.949 . S
H1072 C1049 0.950 . S
H1073 C1051 0.950 1_554 S
C1074 C1075 1.349 . S
C1074 C1076 1.327 . S
C1074 H1099 0.950 . S
C1075 C1074 1.349 . S
C1075 C1091 1.349 . S
C1076 C1074 1.327 . S
C1076 C1095 1.429 . S
C1076 H1100 0.950 . S
C1077 C1094 1.574 . S
C1077 C1096 1.368 . S
C1077 H1101 0.949 . S
H1078 C1082 0.949 . S
C1079 C1080 1.349 1_556 S
C1079 C1081 1.327 . S
C1079 H1102 0.950 . S
C1080 C1079 1.349 1_554 S
C1080 C1092 1.349 1_554 S
C1081 C1079 1.327 . S
C1081 C1097 1.429 . S
C1081 H1103 0.950 . S
C1082 H1078 0.949 . S
C1082 C1090 1.574 . S
C1082 C1098 1.368 . S
H1083 C1091 0.950 . S
H1084 C1089 0.950 . S
H1085 C1090 0.949 . S
H1086 C1092 0.950 1_554 S
H1087 C1093 0.950 . S
H1088 C1094 0.949 . S
C1089 H1084 0.950 . S
C1089 C1091 1.327 . S
C1089 C1095 1.429 . S
C1090 C1082 1.574 . S
C1090 H1085 0.949 . S
C1090 C1096 1.368 . S
C1091 C1075 1.349 . S
C1091 H1083 0.950 . S
C1091 C1089 1.327 . S
C1092 C1080 1.349 1_556 S
C1092 H1086 0.950 1_556 S
C1092 C1093 1.327 . S
C1093 H1087 0.950 . S
C1093 C1092 1.327 . S
C1093 C1097 1.429 . S
C1094 C1077 1.574 . S
C1094 H1088 0.949 . S
C1094 C1098 1.368 . S
C1095 C1076 1.429 . S
C1095 C1089 1.429 . S
C1095 C1096 1.523 . S
C1096 C1077 1.368 . S
C1096 C1090 1.368 . S
C1096 C1095 1.523 . S
C1097 C1081 1.429 . S
C1097 C1093 1.429 . S
C1097 C1098 1.523 . S
C1098 C1082 1.368 . S
C1098 C1094 1.368 . S
C1098 C1097 1.523 . S
H1099 C1074 0.950 . S
H1100 C1076 0.950 . S
H1101 C1077 0.949 . S
H1102 C1079 0.950 . S
H1103 C1081 0.950 . S
C1104 C1105 1.349 . S
C1104 C1106 1.327 . S
C1104 H1129 0.950 . S
C1105 C1104 1.349 . S
C1105 C1121 1.349 . S
C1106 C1104 1.327 . S
C1106 C1125 1.429 . S
C1106 H1130 0.950 . S
C1107 C1124 1.574 . S
C1107 C1126 1.368 . S
C1107 H1131 0.949 . S
H1108 C1112 0.949 . S
C1109 C1110 1.349 1_556 S
C1109 C1111 1.327 . S
C1109 H1132 0.950 . S
C1110 C1109 1.349 1_554 S
C1110 C1122 1.349 . S
C1111 C1109 1.327 . S
C1111 C1127 1.429 . S
C1111 H1133 0.950 . S
C1112 H1108 0.949 . S
C1112 C1120 1.574 . S
C1112 C1128 1.368 . S
H1113 C1121 0.950 . S
H1114 C1119 0.950 . S
H1115 C1120 0.949 . S
H1116 C1122 0.950 . S
H1117 C1123 0.950 . S
H1118 C1124 0.949 . S
C1119 H1114 0.950 . S
C1119 C1121 1.327 . S
C1119 C1125 1.429 . S
C1120 C1112 1.574 . S
C1120 H1115 0.949 . S
C1120 C1126 1.368 . S
C1121 C1105 1.349 . S
C1121 H1113 0.950 . S
C1121 C1119 1.327 . S
C1122 C1110 1.349 . S
C1122 H1116 0.950 . S
C1122 C1123 1.327 1_554 S
C1123 H1117 0.950 . S
C1123 C1122 1.327 1_556 S
C1123 C1127 1.429 . S
C1124 C1107 1.574 . S
C1124 H1118 0.949 . S
C1124 C1128 1.368 . S
C1125 C1106 1.429 . S
C1125 C1119 1.429 . S
C1125 C1126 1.523 . S
C1126 C1107 1.368 . S
C1126 C1120 1.368 . S
C1126 C1125 1.523 . S
C1127 C1111 1.429 . S
C1127 C1123 1.429 . S
C1127 C1128 1.523 . S
C1128 C1112 1.368 . S
C1128 C1124 1.368 . S
C1128 C1127 1.523 . S
H1129 C1104 0.950 . S
H1130 C1106 0.950 . S
H1131 C1107 0.949 . S
H1132 C1109 0.950 . S
H1133 C1111 0.950 . S
C1134 C1135 1.349 . S
C1134 C1136 1.327 . S
C1134 H1159 0.950 . S
C1135 C1134 1.349 . S
C1135 C1151 1.349 . S
C1136 C1134 1.327 . S
C1136 C1155 1.429 . S
C1136 H1160 0.950 . S
C1137 C1154 1.574 . S
C1137 C1156 1.368 . S
C1137 H1161 0.949 . S
H1138 C1142 0.949 . S
C1139 C1140 1.349 . S
C1139 C1141 1.327 . S
C1139 H1162 0.950 . S
C1140 C1139 1.349 . S
C1140 C1152 1.349 . S
C1141 C1139 1.327 . S
C1141 C1157 1.429 . S
C1141 H1163 0.950 . S
C1142 H1138 0.949 . S
C1142 C1150 1.574 . S
C1142 C1158 1.368 . S
H1143 C1151 0.950 . S
H1144 C1149 0.950 . S
H1145 C1150 0.949 . S
H1146 C1152 0.950 . S
H1147 C1153 0.950 . S
H1148 C1154 0.949 . S
C1149 H1144 0.950 . S
C1149 C1151 1.327 . S
C1149 C1155 1.429 . S
C1150 C1142 1.574 . S
C1150 H1145 0.949 . S
C1150 C1156 1.368 . S
C1151 C1135 1.349 . S
C1151 H1143 0.950 . S
C1151 C1149 1.327 . S
C1152 C1140 1.349 . S
C1152 H1146 0.950 . S
C1152 C1153 1.327 . S
C1153 H1147 0.950 . S
C1153 C1152 1.327 . S
C1153 C1157 1.429 . S
C1154 C1137 1.574 . S
C1154 H1148 0.949 . S
C1154 C1158 1.368 . S
C1155 C1136 1.429 . S
C1155 C1149 1.429 . S
C1155 C1156 1.523 . S
C1156 C1137 1.368 . S
C1156 C1150 1.368 . S
C1156 C1155 1.523 . S
C1157 C1141 1.429 . S
C1157 C1153 1.429 . S
C1157 C1158 1.523 . S
C1158 C1142 1.368 . S
C1158 C1154 1.368 . S
C1158 C1157 1.523 . S
H1159 C1134 0.950 . S
H1160 C1136 0.950 . S
H1161 C1137 0.949 . S
H1162 C1139 0.950 . S
H1163 C1141 0.950 . S
C1164 C1165 1.349 . S
C1164 C1166 1.327 . S
C1164 H1189 0.950 . S
C1165 C1164 1.349 . S
C1165 C1181 1.349 . S
C1166 C1164 1.327 . S
C1166 C1185 1.429 . S
C1166 H1190 0.950 . S
C1167 C1184 1.574 . S
C1167 C1186 1.368 . S
C1167 H1191 0.949 . S
H1168 C1172 0.949 . S
C1169 C1170 1.349 . S
C1169 C1171 1.327 . S
C1169 H1192 0.950 . S
C1170 C1169 1.349 . S
C1170 C1182 1.349 . S
C1171 C1169 1.327 . S
C1171 C1187 1.429 . S
C1171 H1193 0.950 . S
C1172 H1168 0.949 . S
C1172 C1180 1.574 . S
C1172 C1188 1.368 . S
H1173 C1181 0.950 . S
H1174 C1179 0.950 . S
H1175 C1180 0.949 . S
H1176 C1182 0.950 . S
H1177 C1183 0.950 . S
H1178 C1184 0.949 . S
C1179 H1174 0.950 . S
C1179 C1181 1.327 . S
C1179 C1185 1.429 . S
C1180 C1172 1.574 . S
C1180 H1175 0.949 . S
C1180 C1186 1.368 . S
C1181 C1165 1.349 . S
C1181 H1173 0.950 . S
C1181 C1179 1.327 . S
C1182 C1170 1.349 . S
C1182 H1176 0.950 . S
C1182 C1183 1.327 . S
C1183 H1177 0.950 . S
C1183 C1182 1.327 . S
C1183 C1187 1.429 . S
C1184 C1167 1.574 . S
C1184 H1178 0.949 . S
C1184 C1188 1.368 . S
C1185 C1166 1.429 . S
C1185 C1179 1.429 . S
C1185 C1186 1.523 . S
C1186 C1167 1.368 . S
C1186 C1180 1.368 . S
C1186 C1185 1.523 . S
C1187 C1171 1.429 . S
C1187 C1183 1.429 . S
C1187 C1188 1.523 . S
C1188 C1172 1.368 . S
C1188 C1184 1.368 . S
C1188 C1187 1.523 . S
H1189 C1164 0.950 . S
H1190 C1166 0.950 . S
H1191 C1167 0.949 . S
H1192 C1169 0.950 . S
H1193 C1171 0.950 . S
C1194 C1195 1.349 . S
C1194 C1196 1.327 . S
C1194 H1219 0.950 . S
C1195 C1194 1.349 . S
C1195 C1211 1.349 . S
C1196 C1194 1.327 . S
C1196 C1215 1.429 . S
C1196 H1220 0.950 . S
C1197 C1214 1.574 . S
C1197 C1216 1.368 . S
C1197 H1221 0.949 . S
H1198 C1202 0.949 . S
C1199 C1200 1.349 . S
C1199 C1201 1.327 . S
C1199 H1222 0.950 . S
C1200 C1199 1.349 . S
C1200 C1212 1.349 . S
C1201 C1199 1.327 . S
C1201 C1217 1.429 . S
C1201 H1223 0.950 . S
C1202 H1198 0.949 . S
C1202 C1210 1.574 . S
C1202 C1218 1.368 . S
H1203 C1211 0.950 . S
H1204 C1209 0.950 . S
H1205 C1210 0.949 . S
H1206 C1212 0.950 . S
H1207 C1213 0.950 . S
H1208 C1214 0.949 . S
C1209 H1204 0.950 . S
C1209 C1211 1.327 . S
C1209 C1215 1.429 . S
C1210 C1202 1.574 . S
C1210 H1205 0.949 . S
C1210 C1216 1.368 . S
C1211 C1195 1.349 . S
C1211 H1203 0.950 . S
C1211 C1209 1.327 . S
C1212 C1200 1.349 . S
C1212 H1206 0.950 . S
C1212 C1213 1.327 . S
C1213 H1207 0.950 . S
C1213 C1212 1.327 . S
C1213 C1217 1.429 . S
C1214 C1197 1.574 . S
C1214 H1208 0.949 . S
C1214 C1218 1.368 . S
C1215 C1196 1.429 . S
C1215 C1209 1.429 . S
C1215 C1216 1.523 . S
C1216 C1197 1.368 . S
C1216 C1210 1.368 . S
C1216 C1215 1.523 . S
C1217 C1201 1.429 . S
C1217 C1213 1.429 . S
C1217 C1218 1.523 . S
C1218 C1202 1.368 . S
C1218 C1214 1.368 . S
C1218 C1217 1.523 . S
H1219 C1194 0.950 . S
H1220 C1196 0.950 . S
H1221 C1197 0.949 . S
H1222 C1199 0.950 . S
H1223 C1201 0.950 . S
C1224 C1225 1.349 1_554 S
C1224 C1226 1.327 . S
C1224 H1249 0.950 . S
C1225 C1224 1.349 1_556 S
C1225 C1241 1.349 . S
C1226 C1224 1.327 . S
C1226 C1245 1.429 . S
C1226 H1250 0.950 . S
C1227 C1244 1.574 . S
C1227 C1246 1.368 . S
C1227 H1251 0.949 . S
H1228 C1232 0.949 . S
C1229 C1230 1.349 . S
C1229 C1231 1.327 . S
C1229 H1252 0.950 . S
C1230 C1229 1.349 . S
C1230 C1242 1.349 . S
C1231 C1229 1.327 . S
C1231 C1247 1.429 . S
C1231 H1253 0.950 . S
C1232 H1228 0.949 . S
C1232 C1240 1.574 . S
C1232 C1248 1.368 . S
H1233 C1241 0.950 . S
H1234 C1239 0.950 . S
H1235 C1240 0.949 . S
H1236 C1242 0.950 . S
H1237 C1243 0.950 . S
H1238 C1244 0.949 . S
C1239 H1234 0.950 . S
C1239 C1241 1.327 1_554 S
C1239 C1245 1.429 . S
C1240 C1232 1.574 . S
C1240 H1235 0.949 . S
C1240 C1246 1.368 . S
C1241 C1225 1.349 . S
C1241 H1233 0.950 . S
C1241 C1239 1.327 1_556 S
C1242 C1230 1.349 . S
C1242 H1236 0.950 . S
C1242 C1243 1.327 . S
C1243 H1237 0.950 . S
C1243 C1242 1.327 . S
C1243 C1247 1.429 . S
C1244 C1227 1.574 . S
C1244 H1238 0.949 . S
C1244 C1248 1.368 . S
C1245 C1226 1.429 . S
C1245 C1239 1.429 . S
C1245 C1246 1.523 . S
C1246 C1227 1.368 . S
C1246 C1240 1.368 . S
C1246 C1245 1.523 . S
C1247 C1231 1.429 . S
C1247 C1243 1.429 . S
C1247 C1248 1.523 . S
C1248 C1232 1.368 . S
C1248 C1244 1.368 . S
C1248 C1247 1.523 . S
H1249 C1224 0.950 . S
H1250 C1226 0.950 . S
H1251 C1227 0.949 . S
H1252 C1229 0.950 . S
H1253 C1231 0.950 . S
C1254 C1255 1.349 1_554 S
C1254 C1256 1.327 . S
C1254 H1279 0.950 1_554 S
C1255 C1254 1.349 1_556 S
C1255 C1271 1.349 1_556 S
C1256 C1254 1.327 . S
C1256 C1275 1.429 . S
C1256 H1280 0.950 . S
C1257 C1274 1.574 . S
C1257 C1276 1.368 . S
C1257 H1281 0.949 . S
H1258 C1262 0.949 . S
C1259 C1260 1.349 . S
C1259 C1261 1.327 . S
C1259 H1282 0.950 . S
C1260 C1259 1.349 . S
C1260 C1272 1.349 . S
C1261 C1259 1.327 . S
C1261 C1277 1.429 . S
C1261 H1283 0.950 . S
C1262 H1258 0.949 . S
C1262 C1270 1.574 . S
C1262 C1278 1.368 . S
H1263 C1271 0.950 . S
H1264 C1269 0.950 . S
H1265 C1270 0.949 . S
H1266 C1272 0.950 . S
H1267 C1273 0.950 . S
H1268 C1274 0.949 . S
C1269 H1264 0.950 . S
C1269 C1271 1.327 . S
C1269 C1275 1.429 . S
C1270 C1262 1.574 . S
C1270 H1265 0.949 . S
C1270 C1276 1.368 . S
C1271 C1255 1.349 1_554 S
C1271 H1263 0.950 . S
C1271 C1269 1.327 . S
C1272 C1260 1.349 . S
C1272 H1266 0.950 . S
C1272 C1273 1.327 . S
C1273 H1267 0.950 . S
C1273 C1272 1.327 . S
C1273 C1277 1.429 . S
C1274 C1257 1.574 . S
C1274 H1268 0.949 . S
C1274 C1278 1.368 . S
C1275 C1256 1.429 . S
C1275 C1269 1.429 . S
C1275 C1276 1.523 . S
C1276 C1257 1.368 . S
C1276 C1270 1.368 . S
C1276 C1275 1.523 . S
C1277 C1261 1.429 . S
C1277 C1273 1.429 . S
C1277 C1278 1.523 . S
C1278 C1262 1.368 . S
C1278 C1274 1.368 . S
C1278 C1277 1.523 . S
H1279 C1254 0.950 1_556 S
H1280 C1256 0.950 . S
H1281 C1257 0.949 . S
H1282 C1259 0.950 . S
H1283 C1261 0.950 . S
C1284 C1285 1.349 . S
C1284 C1286 1.327 1_556 S
C1284 H1309 0.950 . S
C1285 C1284 1.349 . S
C1285 C1301 1.349 1_556 S
C1286 C1284 1.327 1_554 S
C1286 C1305 1.429 . S
C1286 H1310 0.950 . S
C1287 C1304 1.574 . S
C1287 C1306 1.368 . S
C1287 H1311 0.949 . S
H1288 C1292 0.949 . S
C1289 C1290 1.349 . S
C1289 C1291 1.327 . S
C1289 H1312 0.950 . S
C1290 C1289 1.349 . S
C1290 C1302 1.349 . S
C1291 C1289 1.327 . S
C1291 C1307 1.429 . S
C1291 H1313 0.950 . S
C1292 H1288 0.949 . S
C1292 C1300 1.574 . S
C1292 C1308 1.368 . S
H1293 C1301 0.950 . S
H1294 C1299 0.950 . S
H1295 C1300 0.949 . S
H1296 C1302 0.950 . S
H1297 C1303 0.950 . S
H1298 C1304 0.949 . S
C1299 H1294 0.950 . S
C1299 C1301 1.327 . S
C1299 C1305 1.429 . S
C1300 C1292 1.574 . S
C1300 H1295 0.949 . S
C1300 C1306 1.368 . S
C1301 C1285 1.349 1_554 S
C1301 H1293 0.950 . S
C1301 C1299 1.327 . S
C1302 C1290 1.349 . S
C1302 H1296 0.950 . S
C1302 C1303 1.327 . S
C1303 H1297 0.950 . S
C1303 C1302 1.327 . S
C1303 C1307 1.429 . S
C1304 C1287 1.574 . S
C1304 H1298 0.949 . S
C1304 C1308 1.368 . S
C1305 C1286 1.429 . S
C1305 C1299 1.429 . S
C1305 C1306 1.523 . S
C1306 C1287 1.368 . S
C1306 C1300 1.368 . S
C1306 C1305 1.523 . S
C1307 C1291 1.429 . S
C1307 C1303 1.429 . S
C1307 C1308 1.523 . S
C1308 C1292 1.368 . S
C1308 C1304 1.368 . S
C1308 C1307 1.523 . S
H1309 C1284 0.950 . S
H1310 C1286 0.950 . S
H1311 C1287 0.949 . S
H1312 C1289 0.950 . S
H1313 C1291 0.950 . S
C1314 C1315 1.349 . S
C1314 C1316 1.327 . S
C1314 H1339 0.950 . S
C1315 C1314 1.349 . S
C1315 C1331 1.349 . S
C1316 C1314 1.327 . S
C1316 C1335 1.429 . S
C1316 H1340 0.950 . S
C1317 C1334 1.574 . S
C1317 C1336 1.368 . S
C1317 H1341 0.949 . S
H1318 C1322 0.949 . S
C1319 C1320 1.349 . S
C1319 C1321 1.327 . S
C1319 H1342 0.950 . S
C1320 C1319 1.349 . S
C1320 C1332 1.349 . S
C1321 C1319 1.327 . S
C1321 C1337 1.429 . S
C1321 H1343 0.950 . S
C1322 H1318 0.949 . S
C1322 C1330 1.574 . S
C1322 C1338 1.368 . S
H1323 C1331 0.950 . S
H1324 C1329 0.950 . S
H1325 C1330 0.949 . S
H1326 C1332 0.950 . S
H1327 C1333 0.950 . S
H1328 C1334 0.949 . S
C1329 H1324 0.950 . S
C1329 C1331 1.327 . S
C1329 C1335 1.429 . S
C1330 C1322 1.574 . S
C1330 H1325 0.949 . S
C1330 C1336 1.368 . S
C1331 C1315 1.349 . S
C1331 H1323 0.950 . S
C1331 C1329 1.327 . S
C1332 C1320 1.349 . S
C1332 H1326 0.950 . S
C1332 C1333 1.327 . S
C1333 H1327 0.950 . S
C1333 C1332 1.327 . S
C1333 C1337 1.429 . S
C1334 C1317 1.574 . S
C1334 H1328 0.949 . S
C1334 C1338 1.368 . S
C1335 C1316 1.429 . S
C1335 C1329 1.429 . S
C1335 C1336 1.523 . S
C1336 C1317 1.368 . S
C1336 C1330 1.368 . S
C1336 C1335 1.523 . S
C1337 C1321 1.429 . S
C1337 C1333 1.429 . S
C1337 C1338 1.523 . S
C1338 C1322 1.368 . S
C1338 C1334 1.368 . S
C1338 C1337 1.523 . S
H1339 C1314 0.950 . S
H1340 C1316 0.950 . S
H1341 C1317 0.949 . S
H1342 C1319 0.950 . S
H1343 C1321 0.950 . S
C1344 C1345 1.349 . S
C1344 C1346 1.327 . S
C1344 H1369 0.950 . S
C1345 C1344 1.349 . S
C1345 C1361 1.349 . S
C1346 C1344 1.327 . S
C1346 C1365 1.429 . S
C1346 H1370 0.950 . S
C1347 C1364 1.574 . S
C1347 C1366 1.368 . S
C1347 H1371 0.949 . S
H1348 C1352 0.949 . S
C1349 C1350 1.349 . S
C1349 C1351 1.327 . S
C1349 H1372 0.950 . S
C1350 C1349 1.349 . S
C1350 C1362 1.349 . S
C1351 C1349 1.327 . S
C1351 C1367 1.429 . S
C1351 H1373 0.950 . S
C1352 H1348 0.949 . S
C1352 C1360 1.574 . S
C1352 C1368 1.368 . S
H1353 C1361 0.950 . S
H1354 C1359 0.950 . S
H1355 C1360 0.949 . S
H1356 C1362 0.950 . S
H1357 C1363 0.950 . S
H1358 C1364 0.949 . S
C1359 H1354 0.950 . S
C1359 C1361 1.327 . S
C1359 C1365 1.429 . S
C1360 C1352 1.574 . S
C1360 H1355 0.949 . S
C1360 C1366 1.368 . S
C1361 C1345 1.349 . S
C1361 H1353 0.950 . S
C1361 C1359 1.327 . S
C1362 C1350 1.349 . S
C1362 H1356 0.950 . S
C1362 C1363 1.327 . S
C1363 H1357 0.950 . S
C1363 C1362 1.327 . S
C1363 C1367 1.429 . S
C1364 C1347 1.574 . S
C1364 H1358 0.949 . S
C1364 C1368 1.368 . S
C1365 C1346 1.429 . S
C1365 C1359 1.429 . S
C1365 C1366 1.523 . S
C1366 C1347 1.368 . S
C1366 C1360 1.368 . S
C1366 C1365 1.523 . S
C1367 C1351 1.429 . S
C1367 C1363 1.429 . S
C1367 C1368 1.523 . S
C1368 C1352 1.368 . S
C1368 C1364 1.368 . S
C1368 C1367 1.523 . S
H1369 C1344 0.950 . S
H1370 C1346 0.950 . S
H1371 C1347 0.949 . S
H1372 C1349 0.950 . S
H1373 C1351 0.950 . S
C1374 C1375 1.349 . S
C1374 C1376 1.327 . S
C1374 H1399 0.950 . S
C1375 C1374 1.349 . S
C1375 C1391 1.349 . S
C1376 C1374 1.327 . S
C1376 C1395 1.429 . S
C1376 H1400 0.950 . S
C1377 C1394 1.574 . S
C1377 C1396 1.368 . S
C1377 H1401 0.949 . S
H1378 C1382 0.949 . S
C1379 C1380 1.349 . S
C1379 C1381 1.327 . S
C1379 H1402 0.950 . S
C1380 C1379 1.349 . S
C1380 C1392 1.349 . S
C1381 C1379 1.327 . S
C1381 C1397 1.429 . S
C1381 H1403 0.950 . S
C1382 H1378 0.949 . S
C1382 C1390 1.574 . S
C1382 C1398 1.368 . S
H1383 C1391 0.950 . S
H1384 C1389 0.950 . S
H1385 C1390 0.949 . S
H1386 C1392 0.950 . S
H1387 C1393 0.950 . S
H1388 C1394 0.949 . S
C1389 H1384 0.950 . S
C1389 C1391 1.327 . S
C1389 C1395 1.429 . S
C1390 C1382 1.574 . S
C1390 H1385 0.949 . S
C1390 C1396 1.368 . S
C1391 C1375 1.349 . S
C1391 H1383 0.950 . S
C1391 C1389 1.327 . S
C1392 C1380 1.349 . S
C1392 H1386 0.950 . S
C1392 C1393 1.327 . S
C1393 H1387 0.950 . S
C1393 C1392 1.327 . S
C1393 C1397 1.429 . S
C1394 C1377 1.574 . S
C1394 H1388 0.949 . S
C1394 C1398 1.368 . S
C1395 C1376 1.429 . S
C1395 C1389 1.429 . S
C1395 C1396 1.523 . S
C1396 C1377 1.368 . S
C1396 C1390 1.368 . S
C1396 C1395 1.523 . S
C1397 C1381 1.429 . S
C1397 C1393 1.429 . S
C1397 C1398 1.523 . S
C1398 C1382 1.368 . S
C1398 C1394 1.368 . S
C1398 C1397 1.523 . S
H1399 C1374 0.950 . S
H1400 C1376 0.950 . S
H1401 C1377 0.949 . S
H1402 C1379 0.950 . S
H1403 C1381 0.950 . S
C1404 C1405 1.349 . S
C1404 C1406 1.327 . S
C1404 H1429 0.950 . S
C1405 C1404 1.349 . S
C1405 C1421 1.349 . S
C1406 C1404 1.327 . S
C1406 C1425 1.429 . S
C1406 H1430 0.950 . S
C1407 C1424 1.574 . S
C1407 C1426 1.368 . S
C1407 H1431 0.949 . S
H1408 C1412 0.949 . S
C1409 C1410 1.349 . S
C1409 C1411 1.327 . S
C1409 H1432 0.950 1_554 S
C1410 C1409 1.349 . S
C1410 C1422 1.349 . S
C1411 C1409 1.327 . S
C1411 C1427 1.429 . S
C1411 H1433 0.950 . S
C1412 H1408 0.949 . S
C1412 C1420 1.574 . S
C1412 C1428 1.368 . S
H1413 C1421 0.950 . S
H1414 C1419 0.950 . S
H1415 C1420 0.949 . S
H1416 C1422 0.950 . S
H1417 C1423 0.950 . S
H1418 C1424 0.949 . S
C1419 H1414 0.950 . S
C1419 C1421 1.327 . S
C1419 C1425 1.429 . S
C1420 C1412 1.574 . S
C1420 H1415 0.949 . S
C1420 C1426 1.368 . S
C1421 C1405 1.349 . S
C1421 H1413 0.950 . S
C1421 C1419 1.327 . S
C1422 C1410 1.349 . S
C1422 H1416 0.950 . S
C1422 C1423 1.327 . S
C1423 H1417 0.950 . S
C1423 C1422 1.327 . S
C1423 C1427 1.429 . S
C1424 C1407 1.574 . S
C1424 H1418 0.949 . S
C1424 C1428 1.368 . S
C1425 C1406 1.429 . S
C1425 C1419 1.429 . S
C1425 C1426 1.523 . S
C1426 C1407 1.368 . S
C1426 C1420 1.368 . S
C1426 C1425 1.523 . S
C1427 C1411 1.429 . S
C1427 C1423 1.429 . S
C1427 C1428 1.523 . S
C1428 C1412 1.368 . S
C1428 C1424 1.368 . S
C1428 C1427 1.523 . S
H1429 C1404 0.950 . S
H1430 C1406 0.950 . S
H1431 C1407 0.949 . S
H1432 C1409 0.950 1_556 S
H1433 C1411 0.950 . S
C1434 C1435 1.349 . S
C1434 C1436 1.327 . S
C1434 H1459 0.950 . S
C1435 C1434 1.349 . S
C1435 C1451 1.349 . S
C1436 C1434 1.327 . S
C1436 C1455 1.429 . S
C1436 H1460 0.950 . S
C1437 C1454 1.574 . S
C1437 C1456 1.368 . S
C1437 H1461 0.949 . S
H1438 C1442 0.949 . S
C1439 C1440 1.349 . S
C1439 C1441 1.327 . S
C1439 H1462 0.950 1_554 S
C1440 C1439 1.349 . S
C1440 C1452 1.349 . S
C1441 C1439 1.327 . S
C1441 C1457 1.429 . S
C1441 H1463 0.950 . S
C1442 H1438 0.949 . S
C1442 C1450 1.574 . S
C1442 C1458 1.368 . S
H1443 C1451 0.950 . S
H1444 C1449 0.950 . S
H1445 C1450 0.949 . S
H1446 C1452 0.950 . S
H1447 C1453 0.950 . S
H1448 C1454 0.949 . S
C1449 H1444 0.950 . S
C1449 C1451 1.327 . S
C1449 C1455 1.429 . S
C1450 C1442 1.574 . S
C1450 H1445 0.949 . S
C1450 C1456 1.368 . S
C1451 C1435 1.349 . S
C1451 H1443 0.950 . S
C1451 C1449 1.327 . S
C1452 C1440 1.349 . S
C1452 H1446 0.950 . S
C1452 C1453 1.327 . S
C1453 H1447 0.950 . S
C1453 C1452 1.327 . S
C1453 C1457 1.429 . S
C1454 C1437 1.574 . S
C1454 H1448 0.949 . S
C1454 C1458 1.368 . S
C1455 C1436 1.429 . S
C1455 C1449 1.429 . S
C1455 C1456 1.523 . S
C1456 C1437 1.368 . S
C1456 C1450 1.368 . S
C1456 C1455 1.523 . S
C1457 C1441 1.429 . S
C1457 C1453 1.429 . S
C1457 C1458 1.523 . S
C1458 C1442 1.368 . S
C1458 C1454 1.368 . S
C1458 C1457 1.523 . S
H1459 C1434 0.950 . S
H1460 C1436 0.950 . S
H1461 C1437 0.949 . S
H1462 C1439 0.950 1_556 S
H1463 C1441 0.950 . S
C1464 C1465 1.349 . S
C1464 C1466 1.327 . S
C1464 H1489 0.950 1_554 S
C1465 C1464 1.349 . S
C1465 C1481 1.349 . S
C1466 C1464 1.327 . S
C1466 C1485 1.429 . S
C1466 H1490 0.950 . S
C1467 C1484 1.574 . S
C1467 C1486 1.368 . S
C1467 H1491 0.949 . S
H1468 C1472 0.949 . S
C1469 C1470 1.349 . S
C1469 C1471 1.327 . S
C1469 H1492 0.950 . S
C1470 C1469 1.349 . S
C1470 C1482 1.349 . S
C1471 C1469 1.327 . S
C1471 C1487 1.429 . S
C1471 H1493 0.950 . S
C1472 H1468 0.949 . S
C1472 C1480 1.574 . S
C1472 C1488 1.368 . S
H1473 C1481 0.950 . S
H1474 C1479 0.950 . S
H1475 C1480 0.949 . S
H1476 C1482 0.950 . S
H1477 C1483 0.950 . S
H1478 C1484 0.949 . S
C1479 H1474 0.950 . S
C1479 C1481 1.327 . S
C1479 C1485 1.429 . S
C1480 C1472 1.574 . S
C1480 H1475 0.949 . S
C1480 C1486 1.368 . S
C1481 C1465 1.349 . S
C1481 H1473 0.950 . S
C1481 C1479 1.327 . S
C1482 C1470 1.349 . S
C1482 H1476 0.950 . S
C1482 C1483 1.327 . S
C1483 H1477 0.950 . S
C1483 C1482 1.327 . S
C1483 C1487 1.429 . S
C1484 C1467 1.574 . S
C1484 H1478 0.949 . S
C1484 C1488 1.368 . S
C1485 C1466 1.429 . S
C1485 C1479 1.429 . S
C1485 C1486 1.523 . S
C1486 C1467 1.368 . S
C1486 C1480 1.368 . S
C1486 C1485 1.523 . S
C1487 C1471 1.429 . S
C1487 C1483 1.429 . S
C1487 C1488 1.523 . S
C1488 C1472 1.368 . S
C1488 C1484 1.368 . S
C1488 C1487 1.523 . S
H1489 C1464 0.950 1_556 S
H1490 C1466 0.950 . S
H1491 C1467 0.949 . S
H1492 C1469 0.950 . S
H1493 C1471 0.950 . S
C1494 C1495 1.349 . S
C1494 C1496 1.327 . S
C1494 H1519 0.950 . S
C1495 C1494 1.349 . S
C1495 C1511 1.349 . S
C1496 C1494 1.327 . S
C1496 C1515 1.429 . S
C1496 H1520 0.950 . S
C1497 C1514 1.574 . S
C1497 C1516 1.368 . S
C1497 H1521 0.949 . S
H1498 C1502 0.949 . S
C1499 C1500 1.349 . S
C1499 C1501 1.327 . S
C1499 H1522 0.950 . S
C1500 C1499 1.349 . S
C1500 C1512 1.349 . S
C1501 C1499 1.327 . S
C1501 C1517 1.429 . S
C1501 H1523 0.950 . S
C1502 H1498 0.949 . S
C1502 C1510 1.574 1_554 S
C1502 C1518 1.368 . S
H1503 C1511 0.950 . S
H1504 C1509 0.950 . S
H1505 C1510 0.949 . S
H1506 C1512 0.950 . S
H1507 C1513 0.950 . S
H1508 C1514 0.949 . S
C1509 H1504 0.950 . S
C1509 C1511 1.327 . S
C1509 C1515 1.429 . S
C1510 C1502 1.574 1_556 S
C1510 H1505 0.949 . S
C1510 C1516 1.368 . S
C1511 C1495 1.349 . S
C1511 H1503 0.950 . S
C1511 C1509 1.327 . S
C1512 C1500 1.349 . S
C1512 H1506 0.950 . S
C1512 C1513 1.327 . S
C1513 H1507 0.950 . S
C1513 C1512 1.327 . S
C1513 C1517 1.429 . S
C1514 C1497 1.574 . S
C1514 H1508 0.949 . S
C1514 C1518 1.368 1_556 S
C1515 C1496 1.429 . S
C1515 C1509 1.429 . S
C1515 C1516 1.523 . S
C1516 C1497 1.368 . S
C1516 C1510 1.368 . S
C1516 C1515 1.523 . S
C1517 C1501 1.429 . S
C1517 C1513 1.429 . S
C1517 C1518 1.523 . S
C1518 C1502 1.368 . S
C1518 C1514 1.368 1_554 S
C1518 C1517 1.523 . S
H1519 C1494 0.950 . S
H1520 C1496 0.950 . S
H1521 C1497 0.949 . S
H1522 C1499 0.950 . S
H1523 C1501 0.950 . S
C1524 C1525 1.349 . S
C1524 C1526 1.327 . S
C1524 H1549 0.950 . S
C1525 C1524 1.349 . S
C1525 C1541 1.349 . S
C1526 C1524 1.327 . S
C1526 C1545 1.429 . S
C1526 H1550 0.950 . S
C1527 C1544 1.574 1_556 S
C1527 C1546 1.368 . S
C1527 H1551 0.949 1_556 S
H1528 C1532 0.949 . S
C1529 C1530 1.349 . S
C1529 C1531 1.327 . S
C1529 H1552 0.950 . S
C1530 C1529 1.349 . S
C1530 C1542 1.349 . S
C1531 C1529 1.327 . S
C1531 C1547 1.429 . S
C1531 H1553 0.950 . S
C1532 H1528 0.949 . S
C1532 C1540 1.574 . S
C1532 C1548 1.368 1_556 S
H1533 C1541 0.950 . S
H1534 C1539 0.950 . S
H1535 C1540 0.949 . S
H1536 C1542 0.950 . S
H1537 C1543 0.950 . S
H1538 C1544 0.949 . S
C1539 H1534 0.950 . S
C1539 C1541 1.327 . S
C1539 C1545 1.429 . S
C1540 C1532 1.574 . S
C1540 H1535 0.949 . S
C1540 C1546 1.368 . S
C1541 C1525 1.349 . S
C1541 H1533 0.950 . S
C1541 C1539 1.327 . S
C1542 C1530 1.349 . S
C1542 H1536 0.950 . S
C1542 C1543 1.327 . S
C1543 H1537 0.950 . S
C1543 C1542 1.327 . S
C1543 C1547 1.429 . S
C1544 C1527 1.574 1_554 S
C1544 H1538 0.949 . S
C1544 C1548 1.368 . S
C1545 C1526 1.429 . S
C1545 C1539 1.429 . S
C1545 C1546 1.523 . S
C1546 C1527 1.368 . S
C1546 C1540 1.368 . S
C1546 C1545 1.523 . S
C1547 C1531 1.429 . S
C1547 C1543 1.429 . S
C1547 C1548 1.523 . S
C1548 C1532 1.368 1_554 S
C1548 C1544 1.368 . S
C1548 C1547 1.523 . S
H1549 C1524 0.950 . S
H1550 C1526 0.950 . S
H1551 C1527 0.949 1_554 S
H1552 C1529 0.950 . S
H1553 C1531 0.950 . S
C1554 C1555 1.349 . S
C1554 C1556 1.327 . S
C1554 H1579 0.950 . S
C1555 C1554 1.349 . S
C1555 C1571 1.349 . S
C1556 C1554 1.327 . S
C1556 C1575 1.429 . S
C1556 H1580 0.950 . S
C1557 C1574 1.574 1_556 S
C1557 C1576 1.368 . S
C1557 H1581 0.949 . S
H1558 C1562 0.949 . S
C1559 C1560 1.349 . S
C1559 C1561 1.327 . S
C1559 H1582 0.950 . S
C1560 C1559 1.349 . S
C1560 C1572 1.349 . S
C1561 C1559 1.327 . S
C1561 C1577 1.429 . S
C1561 H1583 0.950 . S
C1562 H1558 0.949 . S
C1562 C1570 1.574 . S
C1562 C1578 1.368 1_556 S
H1563 C1571 0.950 . S
H1564 C1569 0.950 . S
H1565 C1570 0.949 . S
H1566 C1572 0.950 . S
H1567 C1573 0.950 . S
H1568 C1574 0.949 . S
C1569 H1564 0.950 . S
C1569 C1571 1.327 . S
C1569 C1575 1.429 . S
C1570 C1562 1.574 . S
C1570 H1565 0.949 . S
C1570 C1576 1.368 . S
C1571 C1555 1.349 . S
C1571 H1563 0.950 . S
C1571 C1569 1.327 . S
C1572 C1560 1.349 . S
C1572 H1566 0.950 . S
C1572 C1573 1.327 . S
C1573 H1567 0.950 . S
C1573 C1572 1.327 . S
C1573 C1577 1.429 . S
C1574 C1557 1.574 1_554 S
C1574 H1568 0.949 . S
C1574 C1578 1.368 . S
C1575 C1556 1.429 . S
C1575 C1569 1.429 . S
C1575 C1576 1.523 . S
C1576 C1557 1.368 . S
C1576 C1570 1.368 . S
C1576 C1575 1.523 . S
C1577 C1561 1.429 . S
C1577 C1573 1.429 . S
C1577 C1578 1.523 . S
C1578 C1562 1.368 1_554 S
C1578 C1574 1.368 . S
C1578 C1577 1.523 . S
H1579 C1554 0.950 . S
H1580 C1556 0.950 . S
H1581 C1557 0.949 . S
H1582 C1559 0.950 . S
H1583 C1561 0.950 . S
C1584 C1585 1.349 . S
C1584 C1586 1.327 . S
C1584 H1609 0.950 . S
C1585 C1584 1.349 . S
C1585 C1601 1.349 . S
C1586 C1584 1.327 . S
C1586 C1605 1.429 . S
C1586 H1610 0.950 . S
C1587 C1604 1.574 . S
C1587 C1606 1.368 . S
C1587 H1611 0.949 . S
H1588 C1592 0.949 . S
C1589 C1590 1.349 . S
C1589 C1591 1.327 . S
C1589 H1612 0.950 . S
C1590 C1589 1.349 . S
C1590 C1602 1.349 . S
C1591 C1589 1.327 . S
C1591 C1607 1.429 . S
C1591 H1613 0.950 . S
C1592 H1588 0.949 . S
C1592 C1600 1.574 . S
C1592 C1608 1.368 . S
H1593 C1601 0.950 . S
H1594 C1599 0.950 . S
H1595 C1600 0.949 . S
H1596 C1602 0.950 . S
H1597 C1603 0.950 . S
H1598 C1604 0.949 . S
C1599 H1594 0.950 . S
C1599 C1601 1.327 . S
C1599 C1605 1.429 . S
C1600 C1592 1.574 . S
C1600 H1595 0.949 . S
C1600 C1606 1.368 . S
C1601 C1585 1.349 . S
C1601 H1593 0.950 . S
C1601 C1599 1.327 . S
C1602 C1590 1.349 . S
C1602 H1596 0.950 . S
C1602 C1603 1.327 . S
C1603 H1597 0.950 . S
C1603 C1602 1.327 . S
C1603 C1607 1.429 . S
C1604 C1587 1.574 . S
C1604 H1598 0.949 . S
C1604 C1608 1.368 . S
C1605 C1586 1.429 . S
C1605 C1599 1.429 . S
C1605 C1606 1.523 . S
C1606 C1587 1.368 . S
C1606 C1600 1.368 . S
C1606 C1605 1.523 . S
C1607 C1591 1.429 . S
C1607 C1603 1.429 . S
C1607 C1608 1.523 . S
C1608 C1592 1.368 . S
C1608 C1604 1.368 . S
C1608 C1607 1.523 . S
H1609 C1584 0.950 . S
H1610 C1586 0.950 . S
H1611 C1587 0.949 . S
H1612 C1589 0.950 . S
H1613 C1591 0.950 . S
C1614 C1615 1.349 . S
C1614 C1616 1.327 . S
C1614 H1639 0.950 . S
C1615 C1614 1.349 . S
C1615 C1631 1.349 . S
C1616 C1614 1.327 . S
C1616 C1635 1.429 . S
C1616 H1640 0.950 . S
C1617 C1634 1.574 . S
C1617 C1636 1.368 . S
C1617 H1641 0.949 . S
H1618 C1622 0.949 . S
C1619 C1620 1.349 . S
C1619 C1621 1.327 . S
C1619 H1642 0.950 . S
C1620 C1619 1.349 . S
C1620 C1632 1.349 . S
C1621 C1619 1.327 . S
C1621 C1637 1.429 . S
C1621 H1643 0.950 . S
C1622 H1618 0.949 . S
C1622 C1630 1.574 . S
C1622 C1638 1.368 . S
H1623 C1631 0.950 . S
H1624 C1629 0.950 . S
H1625 C1630 0.949 . S
H1626 C1632 0.950 . S
H1627 C1633 0.950 . S
H1628 C1634 0.949 . S
C1629 H1624 0.950 . S
C1629 C1631 1.327 . S
C1629 C1635 1.429 . S
C1630 C1622 1.574 . S
C1630 H1625 0.949 . S
C1630 C1636 1.368 . S
C1631 C1615 1.349 . S
C1631 H1623 0.950 . S
C1631 C1629 1.327 . S
C1632 C1620 1.349 . S
C1632 H1626 0.950 . S
C1632 C1633 1.327 . S
C1633 H1627 0.950 . S
C1633 C1632 1.327 . S
C1633 C1637 1.429 . S
C1634 C1617 1.574 . S
C1634 H1628 0.949 . S
C1634 C1638 1.368 . S
C1635 C1616 1.429 . S
C1635 C1629 1.429 . S
C1635 C1636 1.523 . S
C1636 C1617 1.368 . S
C1636 C1630 1.368 . S
C1636 C1635 1.523 . S
C1637 C1621 1.429 . S
C1637 C1633 1.429 . S
C1637 C1638 1.523 . S
C1638 C1622 1.368 . S
C1638 C1634 1.368 . S
C1638 C1637 1.523 . S
H1639 C1614 0.950 . S
H1640 C1616 0.950 . S
H1641 C1617 0.949 . S
H1642 C1619 0.950 . S
H1643 C1621 0.950 . S
C1644 C1645 1.349 . S
C1644 C1646 1.327 . S
C1644 H1669 0.950 . S
C1645 C1644 1.349 . S
C1645 C1661 1.349 . S
C1646 C1644 1.327 . S
C1646 C1665 1.429 . S
C1646 H1670 0.950 . S
C1647 C1664 1.574 . S
C1647 C1666 1.368 . S
C1647 H1671 0.949 . S
H1648 C1652 0.949 . S
C1649 C1650 1.349 . S
C1649 C1651 1.327 . S
C1649 H1672 0.950 . S
C1650 C1649 1.349 . S
C1650 C1662 1.349 . S
C1651 C1649 1.327 . S
C1651 C1667 1.429 . S
C1651 H1673 0.950 . S
C1652 H1648 0.949 . S
C1652 C1660 1.574 . S
C1652 C1668 1.368 . S
H1653 C1661 0.950 . S
H1654 C1659 0.950 . S
H1655 C1660 0.949 . S
H1656 C1662 0.950 . S
H1657 C1663 0.950 . S
H1658 C1664 0.949 . S
C1659 H1654 0.950 . S
C1659 C1661 1.327 . S
C1659 C1665 1.429 . S
C1660 C1652 1.574 . S
C1660 H1655 0.949 . S
C1660 C1666 1.368 . S
C1661 C1645 1.349 . S
C1661 H1653 0.950 . S
C1661 C1659 1.327 . S
C1662 C1650 1.349 . S
C1662 H1656 0.950 . S
C1662 C1663 1.327 . S
C1663 H1657 0.950 . S
C1663 C1662 1.327 . S
C1663 C1667 1.429 . S
C1664 C1647 1.574 . S
C1664 H1658 0.949 . S
C1664 C1668 1.368 . S
C1665 C1646 1.429 . S
C1665 C1659 1.429 . S
C1665 C1666 1.523 . S
C1666 C1647 1.368 . S
C1666 C1660 1.368 . S
C1666 C1665 1.523 . S
C1667 C1651 1.429 . S
C1667 C1663 1.429 . S
C1667 C1668 1.523 . S
C1668 C1652 1.368 . S
C1668 C1664 1.368 . S
C1668 C1667 1.523 . S
H1669 C1644 0.950 . S
H1670 C1646 0.950 . S
H1671 C1647 0.949 . S
H1672 C1649 0.950 . S
H1673 C1651 0.950 . S
C1674 C1675 1.349 . S
C1674 C1676 1.327 . S
C1674 H1699 0.950 . S
C1675 C1674 1.349 . S
C1675 C1691 1.349 . S
C1676 C1674 1.327 . S
C1676 C1695 1.429 . S
C1676 H1700 0.950 . S
C1677 C1694 1.574 . S
C1677 C1696 1.368 . S
C1677 H1701 0.949 . S
H1678 C1682 0.949 . S
C1679 C1680 1.349 . S
C1679 C1681 1.327 . S
C1679 H1702 0.950 . S
C1680 C1679 1.349 . S
C1680 C1692 1.349 . S
C1681 C1679 1.327 . S
C1681 C1697 1.429 . S
C1681 H1703 0.950 . S
C1682 H1678 0.949 . S
C1682 C1690 1.574 . S
C1682 C1698 1.368 . S
H1683 C1691 0.950 . S
H1684 C1689 0.950 . S
H1685 C1690 0.949 . S
H1686 C1692 0.950 . S
H1687 C1693 0.950 . S
H1688 C1694 0.949 . S
C1689 H1684 0.950 . S
C1689 C1691 1.327 . S
C1689 C1695 1.429 . S
C1690 C1682 1.574 . S
C1690 H1685 0.949 . S
C1690 C1696 1.368 . S
C1691 C1675 1.349 . S
C1691 H1683 0.950 . S
C1691 C1689 1.327 . S
C1692 C1680 1.349 . S
C1692 H1686 0.950 . S
C1692 C1693 1.327 . S
C1693 H1687 0.950 . S
C1693 C1692 1.327 . S
C1693 C1697 1.429 . S
C1694 C1677 1.574 . S
C1694 H1688 0.949 . S
C1694 C1698 1.368 . S
C1695 C1676 1.429 . S
C1695 C1689 1.429 . S
C1695 C1696 1.523 . S
C1696 C1677 1.368 . S
C1696 C1690 1.368 . S
C1696 C1695 1.523 . S
C1697 C1681 1.429 . S
C1697 C1693 1.429 . S
C1697 C1698 1.523 . S
C1698 C1682 1.368 . S
C1698 C1694 1.368 . S
C1698 C1697 1.523 . S
H1699 C1674 0.950 . S
H1700 C1676 0.950 . S
H1701 C1677 0.949 . S
H1702 C1679 0.950 . S
H1703 C1681 0.950 . S
C1704 C1705 1.349 . S
C1704 C1706 1.327 . S
C1704 H1729 0.950 . S
C1705 C1704 1.349 . S
C1705 C1721 1.349 . S
C1706 C1704 1.327 . S
C1706 C1725 1.429 . S
C1706 H1730 0.950 . S
C1707 C1724 1.574 . S
C1707 C1726 1.368 . S
C1707 H1731 0.949 . S
H1708 C1712 0.949 . S
C1709 C1710 1.349 . S
C1709 C1711 1.327 . S
C1709 H1732 0.950 . S
C1710 C1709 1.349 . S
C1710 C1722 1.349 . S
C1711 C1709 1.327 . S
C1711 C1727 1.429 . S
C1711 H1733 0.950 . S
C1712 H1708 0.949 . S
C1712 C1720 1.574 . S
C1712 C1728 1.368 . S
H1713 C1721 0.950 . S
H1714 C1719 0.950 . S
H1715 C1720 0.949 . S
H1716 C1722 0.950 . S
H1717 C1723 0.950 . S
H1718 C1724 0.949 . S
C1719 H1714 0.950 . S
C1719 C1721 1.327 . S
C1719 C1725 1.429 . S
C1720 C1712 1.574 . S
C1720 H1715 0.949 . S
C1720 C1726 1.368 . S
C1721 C1705 1.349 . S
C1721 H1713 0.950 . S
C1721 C1719 1.327 . S
C1722 C1710 1.349 . S
C1722 H1716 0.950 . S
C1722 C1723 1.327 . S
C1723 H1717 0.950 . S
C1723 C1722 1.327 . S
C1723 C1727 1.429 . S
C1724 C1707 1.574 . S
C1724 H1718 0.949 . S
C1724 C1728 1.368 . S
C1725 C1706 1.429 . S
C1725 C1719 1.429 . S
C1725 C1726 1.523 . S
C1726 C1707 1.368 . S
C1726 C1720 1.368 . S
C1726 C1725 1.523 . S
C1727 C1711 1.429 . S
C1727 C1723 1.429 . S
C1727 C1728 1.523 . S
C1728 C1712 1.368 . S
C1728 C1724 1.368 . S
C1728 C1727 1.523 . S
H1729 C1704 0.950 . S
H1730 C1706 0.950 . S
H1731 C1707 0.949 . S
H1732 C1709 0.950 . S
H1733 C1711 0.950 . S
C1734 C1735 1.349 . S
C1734 C1736 1.327 . S
C1734 H1759 0.950 . S
C1735 C1734 1.349 . S
C1735 C1751 1.349 . S
C1736 C1734 1.327 . S
C1736 C1755 1.429 . S
C1736 H1760 0.950 . S
C1737 C1754 1.574 . S
C1737 C1756 1.368 . S
C1737 H1761 0.949 . S
H1738 C1742 0.949 . S
C1739 C1740 1.349 . S
C1739 C1741 1.327 . S
C1739 H1762 0.950 . S
C1740 C1739 1.349 . S
C1740 C1752 1.349 . S
C1741 C1739 1.327 . S
C1741 C1757 1.429 . S
C1741 H1763 0.950 . S
C1742 H1738 0.949 . S
C1742 C1750 1.574 . S
C1742 C1758 1.368 . S
H1743 C1751 0.950 . S
H1744 C1749 0.950 . S
H1745 C1750 0.949 . S
H1746 C1752 0.950 . S
H1747 C1753 0.950 . S
H1748 C1754 0.949 . S
C1749 H1744 0.950 . S
C1749 C1751 1.327 . S
C1749 C1755 1.429 . S
C1750 C1742 1.574 . S
C1750 H1745 0.949 . S
C1750 C1756 1.368 . S
C1751 C1735 1.349 . S
C1751 H1743 0.950 . S
C1751 C1749 1.327 . S
C1752 C1740 1.349 . S
C1752 H1746 0.950 . S
C1752 C1753 1.327 . S
C1753 H1747 0.950 . S
C1753 C1752 1.327 . S
C1753 C1757 1.429 . S
C1754 C1737 1.574 . S
C1754 H1748 0.949 . S
C1754 C1758 1.368 . S
C1755 C1736 1.429 . S
C1755 C1749 1.429 . S
C1755 C1756 1.523 . S
C1756 C1737 1.368 . S
C1756 C1750 1.368 . S
C1756 C1755 1.523 . S
C1757 C1741 1.429 . S
C1757 C1753 1.429 . S
C1757 C1758 1.523 . S
C1758 C1742 1.368 . S
C1758 C1754 1.368 . S
C1758 C1757 1.523 . S
H1759 C1734 0.950 . S
H1760 C1736 0.950 . S
H1761 C1737 0.949 . S
H1762 C1739 0.950 . S
H1763 C1741 0.950 . S
C1764 C1765 1.349 . S
C1764 C1766 1.327 . S
C1764 H1789 0.950 . S
C1765 C1764 1.349 . S
C1765 C1781 1.349 . S
C1766 C1764 1.327 . S
C1766 C1785 1.429 . S
C1766 H1790 0.950 . S
C1767 C1784 1.574 . S
C1767 C1786 1.368 . S
C1767 H1791 0.949 . S
H1768 C1772 0.949 . S
C1769 C1770 1.349 . S
C1769 C1771 1.327 . S
C1769 H1792 0.950 . S
C1770 C1769 1.349 . S
C1770 C1782 1.349 . S
C1771 C1769 1.327 . S
C1771 C1787 1.429 . S
C1771 H1793 0.950 . S
C1772 H1768 0.949 . S
C1772 C1780 1.574 . S
C1772 C1788 1.368 . S
H1773 C1781 0.950 . S
H1774 C1779 0.950 . S
H1775 C1780 0.949 . S
H1776 C1782 0.950 . S
H1777 C1783 0.950 . S
H1778 C1784 0.949 . S
C1779 H1774 0.950 . S
C1779 C1781 1.327 . S
C1779 C1785 1.429 . S
C1780 C1772 1.574 . S
C1780 H1775 0.949 . S
C1780 C1786 1.368 . S
C1781 C1765 1.349 . S
C1781 H1773 0.950 . S
C1781 C1779 1.327 . S
C1782 C1770 1.349 . S
C1782 H1776 0.950 . S
C1782 C1783 1.327 . S
C1783 H1777 0.950 . S
C1783 C1782 1.327 . S
C1783 C1787 1.429 . S
C1784 C1767 1.574 . S
C1784 H1778 0.949 . S
C1784 C1788 1.368 . S
C1785 C1766 1.429 . S
C1785 C1779 1.429 . S
C1785 C1786 1.523 . S
C1786 C1767 1.368 . S
C1786 C1780 1.368 . S
C1786 C1785 1.523 . S
C1787 C1771 1.429 . S
C1787 C1783 1.429 . S
C1787 C1788 1.523 . S
C1788 C1772 1.368 . S
C1788 C1784 1.368 . S
C1788 C1787 1.523 . S
H1789 C1764 0.950 . S
H1790 C1766 0.950 . S
H1791 C1767 0.949 . S
H1792 C1769 0.950 . S
H1793 C1771 0.950 . S
C1794 C1795 1.349 . S
C1794 C1796 1.327 . S
C1794 H1819 0.950 . S
C1795 C1794 1.349 . S
C1795 C1811 1.349 . S
C1796 C1794 1.327 . S
C1796 C1815 1.429 . S
C1796 H1820 0.950 . S
C1797 C1814 1.574 . S
C1797 C1816 1.368 . S
C1797 H1821 0.949 . S
H1798 C1802 0.949 . S
C1799 C1800 1.349 . S
C1799 C1801 1.327 . S
C1799 H1822 0.950 . S
C1800 C1799 1.349 . S
C1800 C1812 1.349 . S
C1801 C1799 1.327 . S
C1801 C1817 1.429 . S
C1801 H1823 0.950 . S
C1802 H1798 0.949 . S
C1802 C1810 1.574 . S
C1802 C1818 1.368 . S
H1803 C1811 0.950 . S
H1804 C1809 0.950 . S
H1805 C1810 0.949 . S
H1806 C1812 0.950 . S
H1807 C1813 0.950 . S
H1808 C1814 0.949 . S
C1809 H1804 0.950 . S
C1809 C1811 1.327 . S
C1809 C1815 1.429 . S
C1810 C1802 1.574 . S
C1810 H1805 0.949 . S
C1810 C1816 1.368 . S
C1811 C1795 1.349 . S
C1811 H1803 0.950 . S
C1811 C1809 1.327 . S
C1812 C1800 1.349 . S
C1812 H1806 0.950 . S
C1812 C1813 1.327 . S
C1813 H1807 0.950 . S
C1813 C1812 1.327 . S
C1813 C1817 1.429 . S
C1814 C1797 1.574 . S
C1814 H1808 0.949 . S
C1814 C1818 1.368 . S
C1815 C1796 1.429 . S
C1815 C1809 1.429 . S
C1815 C1816 1.523 . S
C1816 C1797 1.368 . S
C1816 C1810 1.368 . S
C1816 C1815 1.523 . S
C1817 C1801 1.429 . S
C1817 C1813 1.429 . S
C1817 C1818 1.523 . S
C1818 C1802 1.368 . S
C1818 C1814 1.368 . S
C1818 C1817 1.523 . S
H1819 C1794 0.950 . S
H1820 C1796 0.950 . S
H1821 C1797 0.949 . S
H1822 C1799 0.950 . S
H1823 C1801 0.950 . S
C1824 C1825 1.349 . S
C1824 C1826 1.327 . S
C1824 H1849 0.950 . S
C1825 C1824 1.349 . S
C1825 C1841 1.349 . S
C1826 C1824 1.327 . S
C1826 C1845 1.429 . S
C1826 H1850 0.950 . S
C1827 C1844 1.574 . S
C1827 C1846 1.368 . S
C1827 H1851 0.949 . S
H1828 C1832 0.949 . S
C1829 C1830 1.349 . S
C1829 C1831 1.327 . S
C1829 H1852 0.950 . S
C1830 C1829 1.349 . S
C1830 C1842 1.349 . S
C1831 C1829 1.327 . S
C1831 C1847 1.429 . S
C1831 H1853 0.950 . S
C1832 H1828 0.949 . S
C1832 C1840 1.574 . S
C1832 C1848 1.368 . S
H1833 C1841 0.950 . S
H1834 C1839 0.950 . S
H1835 C1840 0.949 . S
H1836 C1842 0.950 . S
H1837 C1843 0.950 . S
H1838 C1844 0.949 . S
C1839 H1834 0.950 . S
C1839 C1841 1.327 . S
C1839 C1845 1.429 . S
C1840 C1832 1.574 . S
C1840 H1835 0.949 . S
C1840 C1846 1.368 . S
C1841 C1825 1.349 . S
C1841 H1833 0.950 . S
C1841 C1839 1.327 . S
C1842 C1830 1.349 . S
C1842 H1836 0.950 . S
C1842 C1843 1.327 . S
C1843 H1837 0.950 . S
C1843 C1842 1.327 . S
C1843 C1847 1.429 . S
C1844 C1827 1.574 . S
C1844 H1838 0.949 . S
C1844 C1848 1.368 . S
C1845 C1826 1.429 . S
C1845 C1839 1.429 . S
C1845 C1846 1.523 . S
C1846 C1827 1.368 . S
C1846 C1840 1.368 . S
C1846 C1845 1.523 . S
C1847 C1831 1.429 . S
C1847 C1843 1.429 . S
C1847 C1848 1.523 . S
C1848 C1832 1.368 . S
C1848 C1844 1.368 . S
C1848 C1847 1.523 . S
H1849 C1824 0.950 . S
H1850 C1826 0.950 . S
H1851 C1827 0.949 . S
H1852 C1829 0.950 . S
H1853 C1831 0.950 . S
C1854 C1855 1.349 . S
C1854 C1856 1.327 . S
C1854 H1879 0.950 . S
C1855 C1854 1.349 . S
C1855 C1871 1.349 . S
C1856 C1854 1.327 . S
C1856 C1875 1.429 . S
C1856 H1880 0.950 . S
C1857 C1874 1.574 . S
C1857 C1876 1.368 . S
C1857 H1881 0.949 . S
H1858 C1862 0.949 . S
C1859 C1860 1.349 . S
C1859 C1861 1.327 . S
C1859 H1882 0.950 . S
C1860 C1859 1.349 . S
C1860 C1872 1.349 . S
C1861 C1859 1.327 . S
C1861 C1877 1.429 . S
C1861 H1883 0.950 . S
C1862 H1858 0.949 . S
C1862 C1870 1.574 . S
C1862 C1878 1.368 . S
H1863 C1871 0.950 . S
H1864 C1869 0.950 . S
H1865 C1870 0.949 . S
H1866 C1872 0.950 . S
H1867 C1873 0.950 . S
H1868 C1874 0.949 . S
C1869 H1864 0.950 . S
C1869 C1871 1.327 . S
C1869 C1875 1.429 . S
C1870 C1862 1.574 . S
C1870 H1865 0.949 . S
C1870 C1876 1.368 . S
C1871 C1855 1.349 . S
C1871 H1863 0.950 . S
C1871 C1869 1.327 . S
C1872 C1860 1.349 . S
C1872 H1866 0.950 . S
C1872 C1873 1.327 . S
C1873 H1867 0.950 . S
C1873 C1872 1.327 . S
C1873 C1877 1.429 . S
C1874 C1857 1.574 . S
C1874 H1868 0.949 . S
C1874 C1878 1.368 . S
C1875 C1856 1.429 . S
C1875 C1869 1.429 . S
C1875 C1876 1.523 . S
C1876 C1857 1.368 . S
C1876 C1870 1.368 . S
C1876 C1875 1.523 . S
C1877 C1861 1.429 . S
C1877 C1873 1.429 . S
C1877 C1878 1.523 . S
C1878 C1862 1.368 . S
C1878 C1874 1.368 . S
C1878 C1877 1.523 . S
H1879 C1854 0.950 . S
H1880 C1856 0.950 . S
H1881 C1857 0.949 . S
H1882 C1859 0.950 . S
H1883 C1861 0.950 . S
C1884 C1885 1.349 . S
C1884 C1886 1.327 . S
C1884 H1909 0.950 . S
C1885 C1884 1.349 . S
C1885 C1901 1.349 . S
C1886 C1884 1.327 . S
C1886 C1905 1.429 . S
C1886 H1910 0.950 . S
C1887 C1904 1.574 . S
C1887 C1906 1.368 . S
C1887 H1911 0.949 . S
H1888 C1892 0.949 . S
C1889 C1890 1.349 . S
C1889 C1891 1.327 . S
C1889 H1912 0.950 . S
C1890 C1889 1.349 . S
C1890 C1902 1.349 . S
C1891 C1889 1.327 . S
C1891 C1907 1.429 . S
C1891 H1913 0.950 . S
C1892 H1888 0.949 . S
C1892 C1900 1.574 . S
C1892 C1908 1.368 . S
H1893 C1901 0.950 . S
H1894 C1899 0.950 . S
H1895 C1900 0.949 . S
H1896 C1902 0.950 . S
H1897 C1903 0.950 . S
H1898 C1904 0.949 . S
C1899 H1894 0.950 . S
C1899 C1901 1.327 . S
C1899 C1905 1.429 . S
C1900 C1892 1.574 . S
C1900 H1895 0.949 . S
C1900 C1906 1.368 . S
C1901 C1885 1.349 . S
C1901 H1893 0.950 . S
C1901 C1899 1.327 . S
C1902 C1890 1.349 . S
C1902 H1896 0.950 . S
C1902 C1903 1.327 . S
C1903 H1897 0.950 . S
C1903 C1902 1.327 . S
C1903 C1907 1.429 . S
C1904 C1887 1.574 . S
C1904 H1898 0.949 . S
C1904 C1908 1.368 . S
C1905 C1886 1.429 . S
C1905 C1899 1.429 . S
C1905 C1906 1.523 . S
C1906 C1887 1.368 . S
C1906 C1900 1.368 . S
C1906 C1905 1.523 . S
C1907 C1891 1.429 . S
C1907 C1903 1.429 . S
C1907 C1908 1.523 . S
C1908 C1892 1.368 . S
C1908 C1904 1.368 . S
C1908 C1907 1.523 . S
H1909 C1884 0.950 . S
H1910 C1886 0.950 . S
H1911 C1887 0.949 . S
H1912 C1889 0.950 . S
H1913 C1891 0.950 . S
C1914 C1915 1.349 . S
C1914 C1916 1.327 . S
C1914 H1939 0.950 . S
C1915 C1914 1.349 . S
C1915 C1931 1.349 . S
C1916 C1914 1.327 . S
C1916 C1935 1.429 . S
C1916 H1940 0.950 . S
C1917 C1934 1.574 . S
C1917 C1936 1.368 . S
C1917 H1941 0.949 . S
H1918 C1922 0.949 . S
C1919 C1920 1.349 . S
C1919 C1921 1.327 . S
C1919 H1942 0.950 . S
C1920 C1919 1.349 . S
C1920 C1932 1.349 . S
C1921 C1919 1.327 . S
C1921 C1937 1.429 . S
C1921 H1943 0.950 . S
C1922 H1918 0.949 . S
C1922 C1930 1.574 . S
C1922 C1938 1.368 . S
H1923 C1931 0.950 . S
H1924 C1929 0.950 . S
H1925 C1930 0.949 . S
H1926 C1932 0.950 . S
H1927 C1933 0.950 . S
H1928 C1934 0.949 . S
C1929 H1924 0.950 . S
C1929 C1931 1.327 . S
C1929 C1935 1.429 . S
C1930 C1922 1.574 . S
C1930 H1925 0.949 . S
C1930 C1936 1.368 . S
C1931 C1915 1.349 . S
C1931 H1923 0.950 . S
C1931 C1929 1.327 . S
C1932 C1920 1.349 . S
C1932 H1926 0.950 . S
C1932 C1933 1.327 . S
C1933 H1927 0.950 . S
C1933 C1932 1.327 . S
C1933 C1937 1.429 . S
C1934 C1917 1.574 . S
C1934 H1928 0.949 . S
C1934 C1938 1.368 . S
C1935 C1916 1.429 . S
C1935 C1929 1.429 . S
C1935 C1936 1.523 . S
C1936 C1917 1.368 . S
C1936 C1930 1.368 . S
C1936 C1935 1.523 . S
C1937 C1921 1.429 . S
C1937 C1933 1.429 . S
C1937 C1938 1.523 . S
C1938 C1922 1.368 . S
C1938 C1934 1.368 . S
C1938 C1937 1.523 . S
H1939 C1914 0.950 . S
H1940 C1916 0.950 . S
H1941 C1917 0.949 . S
H1942 C1919 0.950 . S
H1943 C1921 0.950 . S
C1944 C1945 1.349 . S
C1944 C1946 1.327 . S
C1944 H1969 0.950 . S
C1945 C1944 1.349 . S
C1945 C1961 1.349 . S
C1946 C1944 1.327 . S
C1946 C1965 1.429 . S
C1946 H1970 0.950 . S
C1947 C1964 1.574 . S
C1947 C1966 1.368 . S
C1947 H1971 0.949 . S
H1948 C1952 0.949 . S
C1949 C1950 1.349 . S
C1949 C1951 1.327 . S
C1949 H1972 0.950 . S
C1950 C1949 1.349 . S
C1950 C1962 1.349 . S
C1951 C1949 1.327 . S
C1951 C1967 1.429 . S
C1951 H1973 0.950 . S
C1952 H1948 0.949 . S
C1952 C1960 1.574 . S
C1952 C1968 1.368 . S
H1953 C1961 0.950 . S
H1954 C1959 0.950 . S
H1955 C1960 0.949 . S
H1956 C1962 0.950 1_554 S
H1957 C1963 0.950 . S
H1958 C1964 0.949 . S
C1959 H1954 0.950 . S
C1959 C1961 1.327 . S
C1959 C1965 1.429 . S
C1960 C1952 1.574 . S
C1960 H1955 0.949 . S
C1960 C1966 1.368 . S
C1961 C1945 1.349 . S
C1961 H1953 0.950 . S
C1961 C1959 1.327 . S
C1962 C1950 1.349 . S
C1962 H1956 0.950 1_556 S
C1962 C1963 1.327 . S
C1963 H1957 0.950 . S
C1963 C1962 1.327 . S
C1963 C1967 1.429 . S
C1964 C1947 1.574 . S
C1964 H1958 0.949 . S
C1964 C1968 1.368 . S
C1965 C1946 1.429 . S
C1965 C1959 1.429 . S
C1965 C1966 1.523 . S
C1966 C1947 1.368 . S
C1966 C1960 1.368 . S
C1966 C1965 1.523 . S
C1967 C1951 1.429 . S
C1967 C1963 1.429 . S
C1967 C1968 1.523 . S
C1968 C1952 1.368 . S
C1968 C1964 1.368 . S
C1968 C1967 1.523 . S
H1969 C1944 0.950 . S
H1970 C1946 0.950 . S
H1971 C1947 0.949 . S
H1972 C1949 0.950 . S
H1973 C1951 0.950 . S
C1974 C1975 1.349 . S
C1974 C1976 1.327 . S
C1974 H1999 0.950 1_556 S
C1975 C1974 1.349 . S
C1975 C1991 1.349 . S
C1976 C1974 1.327 . S
C1976 C1995 1.429 . S
C1976 H2000 0.950 . S
C1977 C1994 1.574 . S
C1977 C1996 1.368 . S
C1977 H2001 0.949 . S
H1978 C1982 0.949 . S
C1979 C1980 1.349 . S
C1979 C1981 1.327 . S
C1979 H2002 0.950 . S
C1980 C1979 1.349 . S
C1980 C1992 1.349 . S
C1981 C1979 1.327 . S
C1981 C1997 1.429 . S
C1981 H2003 0.950 . S
C1982 H1978 0.949 . S
C1982 C1990 1.574 . S
C1982 C1998 1.368 . S
H1983 C1991 0.950 . S
H1984 C1989 0.950 . S
H1985 C1990 0.949 . S
H1986 C1992 0.950 . S
H1987 C1993 0.950 . S
H1988 C1994 0.949 . S
C1989 H1984 0.950 . S
C1989 C1991 1.327 . S
C1989 C1995 1.429 . S
C1990 C1982 1.574 . S
C1990 H1985 0.949 . S
C1990 C1996 1.368 . S
C1991 C1975 1.349 . S
C1991 H1983 0.950 . S
C1991 C1989 1.327 . S
C1992 C1980 1.349 . S
C1992 H1986 0.950 . S
C1992 C1993 1.327 . S
C1993 H1987 0.950 . S
C1993 C1992 1.327 . S
C1993 C1997 1.429 . S
C1994 C1977 1.574 . S
C1994 H1988 0.949 . S
C1994 C1998 1.368 . S
C1995 C1976 1.429 . S
C1995 C1989 1.429 . S
C1995 C1996 1.523 . S
C1996 C1977 1.368 . S
C1996 C1990 1.368 . S
C1996 C1995 1.523 . S
C1997 C1981 1.429 . S
C1997 C1993 1.429 . S
C1997 C1998 1.523 . S
C1998 C1982 1.368 . S
C1998 C1994 1.368 . S
C1998 C1997 1.523 . S
H1999 C1974 0.950 1_554 S
H2000 C1976 0.950 . S
H2001 C1977 0.949 . S
H2002 C1979 0.950 . S
H2003 C1981 0.950 . S
C2004 C2005 1.349 . S
C2004 C2006 1.327 . S
C2004 H2029 0.950 . S
C2005 C2004 1.349 . S
C2005 C2021 1.349 . S
C2006 C2004 1.327 . S
C2006 C2025 1.429 . S
C2006 H2030 0.950 . S
C2007 C2024 1.574 . S
C2007 C2026 1.368 . S
C2007 H2031 0.949 . S
H2008 C2012 0.949 . S
C2009 C2010 1.349 . S
C2009 C2011 1.327 . S
C2009 H2032 0.950 . S
C2010 C2009 1.349 . S
C2010 C2022 1.349 . S
C2011 C2009 1.327 . S
C2011 C2027 1.429 . S
C2011 H2033 0.950 . S
C2012 H2008 0.949 . S
C2012 C2020 1.574 . S
C2012 C2028 1.368 . S
H2013 C2021 0.950 . S
H2014 C2019 0.950 . S
H2015 C2020 0.949 . S
H2016 C2022 0.950 . S
H2017 C2023 0.950 . S
H2018 C2024 0.949 . S
C2019 H2014 0.950 . S
C2019 C2021 1.327 . S
C2019 C2025 1.429 . S
C2020 C2012 1.574 . S
C2020 H2015 0.949 . S
C2020 C2026 1.368 . S
C2021 C2005 1.349 . S
C2021 H2013 0.950 . S
C2021 C2019 1.327 . S
C2022 C2010 1.349 . S
C2022 H2016 0.950 . S
C2022 C2023 1.327 . S
C2023 H2017 0.950 . S
C2023 C2022 1.327 . S
C2023 C2027 1.429 . S
C2024 C2007 1.574 . S
C2024 H2018 0.949 . S
C2024 C2028 1.368 . S
C2025 C2006 1.429 . S
C2025 C2019 1.429 . S
C2025 C2026 1.523 . S
C2026 C2007 1.368 . S
C2026 C2020 1.368 . S
C2026 C2025 1.523 . S
C2027 C2011 1.429 . S
C2027 C2023 1.429 . S
C2027 C2028 1.523 . S
C2028 C2012 1.368 . S
C2028 C2024 1.368 . S
C2028 C2027 1.523 . S
H2029 C2004 0.950 . S
H2030 C2006 0.950 . S
H2031 C2007 0.949 . S
H2032 C2009 0.950 . S
H2033 C2011 0.950 . S
C2034 C2035 1.349 . S
C2034 C2036 1.327 . S
C2034 H2059 0.950 . S
C2035 C2034 1.349 . S
C2035 C2051 1.349 . S
C2036 C2034 1.327 . S
C2036 C2055 1.429 . S
C2036 H2060 0.950 . S
C2037 C2054 1.574 1_556 S
C2037 C2056 1.368 . S
C2037 H2061 0.949 . S
H2038 C2042 0.949 . S
C2039 C2040 1.349 . S
C2039 C2041 1.327 . S
C2039 H2062 0.950 . S
C2040 C2039 1.349 . S
C2040 C2052 1.349 . S
C2041 C2039 1.327 . S
C2041 C2057 1.429 . S
C2041 H2063 0.950 . S
C2042 H2038 0.949 . S
C2042 C2050 1.574 . S
C2042 C2058 1.368 . S
H2043 C2051 0.950 . S
H2044 C2049 0.950 . S
H2045 C2050 0.949 1_556 S
H2046 C2052 0.950 . S
H2047 C2053 0.950 . S
H2048 C2054 0.949 . S
C2049 H2044 0.950 . S
C2049 C2051 1.327 . S
C2049 C2055 1.429 . S
C2050 C2042 1.574 . S
C2050 H2045 0.949 1_554 S
C2050 C2056 1.368 1_554 S
C2051 C2035 1.349 . S
C2051 H2043 0.950 . S
C2051 C2049 1.327 . S
C2052 C2040 1.349 . S
C2052 H2046 0.950 . S
C2052 C2053 1.327 . S
C2053 H2047 0.950 . S
C2053 C2052 1.327 . S
C2053 C2057 1.429 . S
C2054 C2037 1.574 1_554 S
C2054 H2048 0.949 . S
C2054 C2058 1.368 . S
C2055 C2036 1.429 . S
C2055 C2049 1.429 . S
C2055 C2056 1.523 . S
C2056 C2037 1.368 . S
C2056 C2050 1.368 1_556 S
C2056 C2055 1.523 . S
C2057 C2041 1.429 . S
C2057 C2053 1.429 . S
C2057 C2058 1.523 . S
C2058 C2042 1.368 . S
C2058 C2054 1.368 . S
C2058 C2057 1.523 . S
H2059 C2034 0.950 . S
H2060 C2036 0.950 . S
H2061 C2037 0.949 . S
H2062 C2039 0.950 . S
H2063 C2041 0.950 . S
C2064 C2065 1.349 . S
C2064 C2066 1.327 . S
C2064 H2089 0.950 . S
C2065 C2064 1.349 . S
C2065 C2081 1.349 . S
C2066 C2064 1.327 . S
C2066 C2085 1.429 . S
C2066 H2090 0.950 . S
C2067 C2084 1.574 1_556 S
C2067 C2086 1.368 . S
C2067 H2091 0.949 . S
H2068 C2072 0.949 . S
C2069 C2070 1.349 . S
C2069 C2071 1.327 . S
C2069 H2092 0.950 . S
C2070 C2069 1.349 . S
C2070 C2082 1.349 . S
C2071 C2069 1.327 . S
C2071 C2087 1.429 . S
C2071 H2093 0.950 . S
C2072 H2068 0.949 . S
C2072 C2080 1.574 . S
C2072 C2088 1.368 . S
H2073 C2081 0.950 . S
H2074 C2079 0.950 . S
H2075 C2080 0.949 . S
H2076 C2082 0.950 . S
H2077 C2083 0.950 . S
H2078 C2084 0.949 . S
C2079 H2074 0.950 . S
C2079 C2081 1.327 . S
C2079 C2085 1.429 . S
C2080 C2072 1.574 . S
C2080 H2075 0.949 . S
C2080 C2086 1.368 1_554 S
C2081 C2065 1.349 . S
C2081 H2073 0.950 . S
C2081 C2079 1.327 . S
C2082 C2070 1.349 . S
C2082 H2076 0.950 . S
C2082 C2083 1.327 . S
C2083 H2077 0.950 . S
C2083 C2082 1.327 . S
C2083 C2087 1.429 . S
C2084 C2067 1.574 1_554 S
C2084 H2078 0.949 . S
C2084 C2088 1.368 . S
C2085 C2066 1.429 . S
C2085 C2079 1.429 . S
C2085 C2086 1.523 . S
C2086 C2067 1.368 . S
C2086 C2080 1.368 1_556 S
C2086 C2085 1.523 . S
C2087 C2071 1.429 . S
C2087 C2083 1.429 . S
C2087 C2088 1.523 . S
C2088 C2072 1.368 . S
C2088 C2084 1.368 . S
C2088 C2087 1.523 . S
H2089 C2064 0.950 . S
H2090 C2066 0.950 . S
H2091 C2067 0.949 . S
H2092 C2069 0.950 . S
H2093 C2071 0.950 . S
C2094 C2095 1.349 . S
C2094 C2096 1.327 . S
C2094 H2119 0.950 . S
C2095 C2094 1.349 . S
C2095 C2111 1.349 . S
C2096 C2094 1.327 . S
C2096 C2115 1.429 . S
C2096 H2120 0.950 . S
C2097 C2114 1.565 1_556 S
C2097 C2116 1.372 . S
C2097 H2121 0.954 . S
H2098 C2102 0.949 . S
C2099 C2100 1.349 . S
C2099 C2101 1.327 . S
C2099 H2122 0.950 . S
C2100 C2099 1.349 . S
C2100 C2112 1.349 . S
C2101 C2099 1.327 . S
C2101 C2117 1.429 . S
C2101 H2123 0.950 . S
C2102 H2098 0.949 . S
C2102 C2110 1.574 . S
C2102 C2118 1.368 . S
H2103 C2111 0.950 . S
H2104 C2109 0.950 . S
H2105 C2110 0.949 1_556 S
H2106 C2112 0.950 . S
H2107 C2113 0.950 . S
H2108 C2114 0.949 . S
C2109 H2104 0.950 . S
C2109 C2111 1.327 . S
C2109 C2115 1.429 . S
C2110 C2102 1.574 . S
C2110 H2105 0.949 1_554 S
C2110 C2116 1.368 1_554 S
C2111 C2095 1.349 . S
C2111 H2103 0.950 . S
C2111 C2109 1.327 . S
C2112 C2100 1.349 . S
C2112 H2106 0.950 . S
C2112 C2113 1.327 . S
C2113 H2107 0.950 . S
C2113 C2112 1.327 . S
C2113 C2117 1.429 . S
C2114 C2097 1.565 1_554 S
C2114 H2108 0.949 . S
C2114 C2118 1.368 . S
C2115 C2096 1.429 . S
C2115 C2109 1.429 . S
C2115 C2116 1.523 . S
C2116 C2097 1.372 . S
C2116 C2110 1.368 1_556 S
C2116 C2115 1.523 . S
C2117 C2101 1.429 . S
C2117 C2113 1.429 . S
C2117 C2118 1.523 . S
C2118 C2102 1.368 . S
C2118 C2114 1.368 . S
C2118 C2117 1.523 . S
H2119 C2094 0.950 . S
H2120 C2096 0.950 . S
H2121 C2097 0.954 . S
H2122 C2099 0.950 . S
H2123 C2101 0.950 . S
C2124 C2125 1.349 . S
C2124 C2126 1.327 . S
C2124 H2149 0.950 . S
C2125 C2124 1.349 . S
C2125 C2141 1.349 . S
C2126 C2124 1.327 . S
C2126 C2145 1.429 . S
C2126 H2150 0.950 . S
C2127 C2144 1.574 . S
C2127 C2146 1.368 . S
C2127 H2151 0.949 . S
H2128 C2132 0.949 . S
C2129 C2130 1.349 . S
C2129 C2131 1.327 1_554 S
C2129 H2152 0.950 . S
C2130 C2129 1.349 . S
C2130 C2142 1.349 . S
C2131 C2129 1.327 1_556 S
C2131 C2147 1.429 . S
C2131 H2153 0.950 . S
C2132 H2128 0.949 . S
C2132 C2140 1.574 . S
C2132 C2148 1.368 . S
H2133 C2141 0.950 . S
H2134 C2139 0.950 . S
H2135 C2140 0.949 . S
H2136 C2142 0.950 . S
H2137 C2143 0.950 . S
H2138 C2144 0.949 . S
C2139 H2134 0.950 . S
C2139 C2141 1.327 . S
C2139 C2145 1.429 . S
C2140 C2132 1.574 . S
C2140 H2135 0.949 . S
C2140 C2146 1.368 . S
C2141 C2125 1.349 . S
C2141 H2133 0.950 . S
C2141 C2139 1.327 . S
C2142 C2130 1.349 . S
C2142 H2136 0.950 . S
C2142 C2143 1.327 1_554 S
C2143 H2137 0.950 . S
C2143 C2142 1.327 1_556 S
C2143 C2147 1.429 . S
C2144 C2127 1.574 . S
C2144 H2138 0.949 . S
C2144 C2148 1.368 . S
C2145 C2126 1.429 . S
C2145 C2139 1.429 . S
C2145 C2146 1.523 . S
C2146 C2127 1.368 . S
C2146 C2140 1.368 . S
C2146 C2145 1.523 . S
C2147 C2131 1.429 . S
C2147 C2143 1.429 . S
C2147 C2148 1.523 . S
C2148 C2132 1.368 . S
C2148 C2144 1.368 . S
C2148 C2147 1.523 . S
H2149 C2124 0.950 . S
H2150 C2126 0.950 . S
H2151 C2127 0.949 . S
H2152 C2129 0.950 . S
H2153 C2131 0.950 . S
C2154 C2155 1.349 1_556 S
C2154 C2156 1.327 . S
C2154 H2179 0.950 . S
C2155 C2154 1.349 1_554 S
C2155 C2171 1.349 . S
C2156 C2154 1.327 . S
C2156 C2175 1.429 . S
C2156 H2180 0.950 . S
C2157 C2174 1.574 . S
C2157 C2176 1.368 . S
C2157 H2181 0.949 1_556 S
H2158 C2162 0.949 . S
C2159 C2160 1.349 . S
C2159 C2161 1.327 . S
C2159 H2182 0.950 . S
C2160 C2159 1.349 . S
C2160 C2172 1.349 . S
C2161 C2159 1.327 . S
C2161 C2177 1.429 . S
C2161 H2183 0.950 . S
C2162 H2158 0.949 . S
C2162 C2170 1.574 . S
C2162 C2178 1.368 . S
H2163 C2171 0.950 . S
H2164 C2169 0.950 . S
H2165 C2170 0.949 . S
H2166 C2172 0.950 . S
H2167 C2173 0.950 . S
H2168 C2174 0.949 . S
C2169 H2164 0.950 . S
C2169 C2171 1.327 . S
C2169 C2175 1.429 1_554 S
C2170 C2162 1.574 . S
C2170 H2165 0.949 . S
C2170 C2176 1.368 . S
C2171 C2155 1.349 . S
C2171 H2163 0.950 . S
C2171 C2169 1.327 . S
C2172 C2160 1.349 . S
C2172 H2166 0.950 . S
C2172 C2173 1.327 . S
C2173 H2167 0.950 . S
C2173 C2172 1.327 . S
C2173 C2177 1.429 . S
C2174 C2157 1.574 . S
C2174 H2168 0.949 . S
C2174 C2178 1.368 . S
C2175 C2156 1.429 . S
C2175 C2169 1.429 1_556 S
C2175 C2176 1.523 . S
C2176 C2157 1.368 . S
C2176 C2170 1.368 . S
C2176 C2175 1.523 . S
C2177 C2161 1.429 . S
C2177 C2173 1.429 . S
C2177 C2178 1.523 . S
C2178 C2162 1.368 . S
C2178 C2174 1.368 . S
C2178 C2177 1.523 . S
H2179 C2154 0.950 . S
H2180 C2156 0.950 . S
H2181 C2157 0.949 1_554 S
H2182 C2159 0.950 . S
H2183 C2161 0.950 . S
C2184 C2185 1.349 . S
C2184 C2186 1.327 . S
C2184 H2209 0.950 . S
C2185 C2184 1.349 . S
C2185 C2201 1.349 . S
C2186 C2184 1.327 . S
C2186 C2205 1.429 . S
C2186 H2210 0.950 . S
C2187 C2204 1.574 . S
C2187 C2206 1.368 . S
C2187 H2211 0.949 . S
H2188 C2192 0.949 . S
C2189 C2190 1.349 1_556 S
C2189 C2191 1.327 . S
C2189 H2212 0.950 . S
C2190 C2189 1.349 1_554 S
C2190 C2202 1.349 . S
C2191 C2189 1.327 . S
C2191 C2207 1.429 . S
C2191 H2213 0.950 . S
C2192 H2188 0.949 . S
C2192 C2200 1.574 . S
C2192 C2208 1.368 . S
H2193 C2201 0.950 . S
H2194 C2199 0.950 . S
H2195 C2200 0.949 . S
H2196 C2202 0.950 . S
H2197 C2203 0.950 . S
H2198 C2204 0.949 . S
C2199 H2194 0.950 . S
C2199 C2201 1.327 . S
C2199 C2205 1.429 . S
C2200 C2192 1.574 . S
C2200 H2195 0.949 . S
C2200 C2206 1.368 . S
C2201 C2185 1.349 . S
C2201 H2193 0.950 . S
C2201 C2199 1.327 . S
C2202 C2190 1.349 . S
C2202 H2196 0.950 . S
C2202 C2203 1.327 . S
C2203 H2197 0.950 . S
C2203 C2202 1.327 . S
C2203 C2207 1.429 1_554 S
C2204 C2187 1.574 . S
C2204 H2198 0.949 . S
C2204 C2208 1.368 . S
C2205 C2186 1.429 . S
C2205 C2199 1.429 . S
C2205 C2206 1.523 . S
C2206 C2187 1.368 . S
C2206 C2200 1.368 . S
C2206 C2205 1.523 . S
C2207 C2191 1.429 . S
C2207 C2203 1.429 1_556 S
C2207 C2208 1.523 . S
C2208 C2192 1.368 . S
C2208 C2204 1.368 . S
C2208 C2207 1.523 . S
H2209 C2184 0.950 . S
H2210 C2186 0.950 . S
H2211 C2187 0.949 . S
H2212 C2189 0.950 . S
H2213 C2191 0.950 . S
C2214 C2215 1.349 . S
C2214 C2216 1.327 . S
C2214 H2239 0.950 . S
C2215 C2214 1.349 . S
C2215 C2231 1.349 . S
C2216 C2214 1.327 . S
C2216 C2235 1.429 . S
C2216 H2240 0.950 . S
C2217 C2234 1.574 . S
C2217 C2236 1.368 . S
C2217 H2241 0.949 . S
H2218 C2222 0.949 . S
C2219 C2220 1.349 . S
C2219 C2221 1.327 . S
C2219 H2242 0.950 . S
C2220 C2219 1.349 . S
C2220 C2232 1.349 . S
C2221 C2219 1.327 . S
C2221 C2237 1.429 . S
C2221 H2243 0.950 . S
C2222 H2218 0.949 . S
C2222 C2230 1.574 . S
C2222 C2238 1.368 . S
H2223 C2231 0.950 . S
H2224 C2229 0.950 . S
H2225 C2230 0.949 . S
H2226 C2232 0.950 . S
H2227 C2233 0.950 . S
H2228 C2234 0.949 . S
C2229 H2224 0.950 . S
C2229 C2231 1.327 . S
C2229 C2235 1.429 . S
C2230 C2222 1.574 . S
C2230 H2225 0.949 . S
C2230 C2236 1.368 . S
C2231 C2215 1.349 . S
C2231 H2223 0.950 . S
C2231 C2229 1.327 . S
C2232 C2220 1.349 . S
C2232 H2226 0.950 . S
C2232 C2233 1.327 . S
C2233 H2227 0.950 . S
C2233 C2232 1.327 . S
C2233 C2237 1.429 . S
C2234 C2217 1.574 . S
C2234 H2228 0.949 . S
C2234 C2238 1.368 . S
C2235 C2216 1.429 . S
C2235 C2229 1.429 . S
C2235 C2236 1.523 . S
C2236 C2217 1.368 . S
C2236 C2230 1.368 . S
C2236 C2235 1.523 . S
C2237 C2221 1.429 . S
C2237 C2233 1.429 . S
C2237 C2238 1.523 . S
C2238 C2222 1.368 . S
C2238 C2234 1.368 . S
C2238 C2237 1.523 . S
H2239 C2214 0.950 . S
H2240 C2216 0.950 . S
H2241 C2217 0.949 . S
H2242 C2219 0.950 . S
H2243 C2221 0.950 . S
C2244 C2245 1.349 . S
C2244 C2246 1.327 . S
C2244 H2269 0.950 . S
C2245 C2244 1.349 . S
C2245 C2261 1.349 . S
C2246 C2244 1.327 . S
C2246 C2265 1.429 . S
C2246 H2270 0.950 . S
C2247 C2264 1.574 . S
C2247 C2266 1.368 . S
C2247 H2271 0.949 . S
H2248 C2252 0.949 . S
C2249 C2250 1.349 . S
C2249 C2251 1.327 . S
C2249 H2272 0.950 . S
C2250 C2249 1.349 . S
C2250 C2262 1.349 . S
C2251 C2249 1.327 . S
C2251 C2267 1.429 . S
C2251 H2273 0.950 . S
C2252 H2248 0.949 . S
C2252 C2260 1.574 . S
C2252 C2268 1.368 . S
H2253 C2261 0.950 . S
H2254 C2259 0.950 . S
H2255 C2260 0.949 . S
H2256 C2262 0.950 . S
H2257 C2263 0.950 . S
H2258 C2264 0.949 . S
C2259 H2254 0.950 . S
C2259 C2261 1.327 . S
C2259 C2265 1.429 . S
C2260 C2252 1.574 . S
C2260 H2255 0.949 . S
C2260 C2266 1.368 . S
C2261 C2245 1.349 . S
C2261 H2253 0.950 . S
C2261 C2259 1.327 . S
C2262 C2250 1.349 . S
C2262 H2256 0.950 . S
C2262 C2263 1.327 . S
C2263 H2257 0.950 . S
C2263 C2262 1.327 . S
C2263 C2267 1.429 . S
C2264 C2247 1.574 . S
C2264 H2258 0.949 . S
C2264 C2268 1.368 . S
C2265 C2246 1.429 . S
C2265 C2259 1.429 . S
C2265 C2266 1.523 . S
C2266 C2247 1.368 . S
C2266 C2260 1.368 . S
C2266 C2265 1.523 . S
C2267 C2251 1.429 . S
C2267 C2263 1.429 . S
C2267 C2268 1.523 . S
C2268 C2252 1.368 . S
C2268 C2264 1.368 . S
C2268 C2267 1.523 . S
H2269 C2244 0.950 . S
H2270 C2246 0.950 . S
H2271 C2247 0.949 . S
H2272 C2249 0.950 . S
H2273 C2251 0.950 . S
C2274 C2275 1.349 . S
C2274 C2276 1.327 . S
C2274 H2299 0.950 . S
C2275 C2274 1.349 . S
C2275 C2291 1.349 . S
C2276 C2274 1.327 . S
C2276 C2295 1.429 . S
C2276 H2300 0.950 . S
C2277 C2294 1.574 . S
C2277 C2296 1.368 . S
C2277 H2301 0.949 . S
H2278 C2282 0.949 . S
C2279 C2280 1.349 . S
C2279 C2281 1.327 . S
C2279 H2302 0.950 . S
C2280 C2279 1.349 . S
C2280 C2292 1.349 . S
C2281 C2279 1.327 . S
C2281 C2297 1.429 . S
C2281 H2303 0.950 . S
C2282 H2278 0.949 . S
C2282 C2290 1.574 . S
C2282 C2298 1.368 . S
H2283 C2291 0.950 . S
H2284 C2289 0.950 . S
H2285 C2290 0.949 . S
H2286 C2292 0.950 . S
H2287 C2293 0.950 . S
H2288 C2294 0.949 . S
C2289 H2284 0.950 . S
C2289 C2291 1.327 . S
C2289 C2295 1.429 . S
C2290 C2282 1.574 . S
C2290 H2285 0.949 . S
C2290 C2296 1.368 . S
C2291 C2275 1.349 . S
C2291 H2283 0.950 . S
C2291 C2289 1.327 . S
C2292 C2280 1.349 . S
C2292 H2286 0.950 . S
C2292 C2293 1.327 . S
C2293 H2287 0.950 . S
C2293 C2292 1.327 . S
C2293 C2297 1.429 . S
C2294 C2277 1.574 . S
C2294 H2288 0.949 . S
C2294 C2298 1.368 . S
C2295 C2276 1.429 . S
C2295 C2289 1.429 . S
C2295 C2296 1.523 . S
C2296 C2277 1.368 . S
C2296 C2290 1.368 . S
C2296 C2295 1.523 . S
C2297 C2281 1.429 . S
C2297 C2293 1.429 . S
C2297 C2298 1.523 . S
C2298 C2282 1.368 . S
C2298 C2294 1.368 . S
C2298 C2297 1.523 . S
H2299 C2274 0.950 . S
H2300 C2276 0.950 . S
H2301 C2277 0.949 . S
H2302 C2279 0.950 . S
H2303 C2281 0.950 . S
C2304 C2305 1.349 . S
C2304 C2306 1.327 1_556 S
C2304 H2329 0.950 . S
C2305 C2304 1.349 . S
C2305 C2321 1.349 . S
C2306 C2304 1.327 1_554 S
C2306 C2325 1.429 . S
C2306 H2330 0.950 . S
C2307 C2324 1.574 . S
C2307 C2326 1.368 . S
C2307 H2331 0.949 . S
H2308 C2312 0.949 . S
C2309 C2310 1.349 . S
C2309 C2311 1.327 . S
C2309 H2332 0.950 . S
C2310 C2309 1.349 . S
C2310 C2322 1.349 . S
C2311 C2309 1.327 . S
C2311 C2327 1.429 . S
C2311 H2333 0.950 . S
C2312 H2308 0.949 . S
C2312 C2320 1.574 . S
C2312 C2328 1.368 . S
H2313 C2321 0.950 . S
H2314 C2319 0.949 1_554 S
H2315 C2320 0.949 . S
H2316 C2322 0.950 . S
H2317 C2323 0.950 . S
H2318 C2324 0.949 . S
C2319 H2314 0.949 1_556 S
C2319 C2321 1.334 . S
C2319 C2325 1.423 1_556 S
C2320 C2312 1.574 . S
C2320 H2315 0.949 . S
C2320 C2326 1.368 . S
C2321 C2305 1.349 . S
C2321 H2313 0.950 . S
C2321 C2319 1.334 . S
C2322 C2310 1.349 . S
C2322 H2316 0.950 . S
C2322 C2323 1.327 . S
C2323 H2317 0.950 . S
C2323 C2322 1.327 . S
C2323 C2327 1.429 . S
C2324 C2307 1.574 . S
C2324 H2318 0.949 . S
C2324 C2328 1.368 . S
C2325 C2306 1.429 . S
C2325 C2319 1.423 1_554 S
C2325 C2326 1.523 . S
C2326 C2307 1.368 . S
C2326 C2320 1.368 . S
C2326 C2325 1.523 . S
C2327 C2311 1.429 . S
C2327 C2323 1.429 . S
C2327 C2328 1.523 . S
C2328 C2312 1.368 . S
C2328 C2324 1.368 . S
C2328 C2327 1.523 . S
H2329 C2304 0.950 . S
H2330 C2306 0.950 . S
H2331 C2307 0.949 . S
H2332 C2309 0.950 . S
H2333 C2311 0.950 . S
C2334 C2335 1.349 . S
C2334 C2336 1.327 . S
C2334 H2359 0.950 . S
C2335 C2334 1.349 . S
C2335 C2351 1.349 . S
C2336 C2334 1.327 . S
C2336 C2355 1.429 . S
C2336 H2360 0.950 . S
C2337 C2354 1.574 . S
C2337 C2356 1.368 . S
C2337 H2361 0.949 . S
H2338 C2342 0.949 . S
C2339 C2340 1.349 . S
C2339 C2341 1.320 1_556 S
C2339 H2362 0.950 . S
C2340 C2339 1.349 . S
C2340 C2352 1.349 . S
C2341 C2339 1.320 1_554 S
C2341 C2357 1.435 . S
C2341 H2363 0.951 . S
C2342 H2338 0.949 . S
C2342 C2350 1.574 . S
C2342 C2358 1.368 . S
H2343 C2351 0.950 . S
H2344 C2349 0.950 . S
H2345 C2350 0.949 . S
H2346 C2352 0.950 . S
H2347 C2353 0.950 . S
H2348 C2354 0.949 . S
C2349 H2344 0.950 . S
C2349 C2351 1.327 . S
C2349 C2355 1.429 . S
C2350 C2342 1.574 . S
C2350 H2345 0.949 . S
C2350 C2356 1.368 . S
C2351 C2335 1.349 . S
C2351 H2343 0.950 . S
C2351 C2349 1.327 . S
C2352 C2340 1.349 . S
C2352 H2346 0.950 . S
C2352 C2353 1.327 1_556 S
C2353 H2347 0.950 . S
C2353 C2352 1.327 1_554 S
C2353 C2357 1.429 . S
C2354 C2337 1.574 . S
C2354 H2348 0.949 . S
C2354 C2358 1.368 . S
C2355 C2336 1.429 . S
C2355 C2349 1.429 . S
C2355 C2356 1.523 . S
C2356 C2337 1.368 . S
C2356 C2350 1.368 . S
C2356 C2355 1.523 . S
C2357 C2341 1.435 . S
C2357 C2353 1.429 . S
C2357 C2358 1.523 . S
C2358 C2342 1.368 . S
C2358 C2354 1.368 . S
C2358 C2357 1.523 . S
H2359 C2334 0.950 . S
H2360 C2336 0.950 . S
H2361 C2337 0.949 . S
H2362 C2339 0.950 . S
H2363 C2341 0.951 . S
C2364 C2365 1.349 . S
C2364 C2366 1.327 . S
C2364 H2389 0.950 . S
C2365 C2364 1.349 . S
C2365 C2381 1.349 . S
C2366 C2364 1.327 . S
C2366 C2385 1.429 . S
C2366 H2390 0.950 . S
C2367 C2384 1.574 . S
C2367 C2386 1.368 . S
C2367 H2391 0.949 . S
H2368 C2372 0.949 . S
C2369 C2370 1.349 . S
C2369 C2371 1.327 . S
C2369 H2392 0.950 . S
C2370 C2369 1.349 . S
C2370 C2382 1.349 1_556 S
C2371 C2369 1.327 . S
C2371 C2387 1.429 1_556 S
C2371 H2393 0.950 . S
C2372 H2368 0.949 . S
C2372 C2380 1.574 . S
C2372 C2388 1.368 . S
H2373 C2381 0.950 . S
H2374 C2379 0.950 . S
H2375 C2380 0.949 . S
H2376 C2382 0.950 . S
H2377 C2383 0.950 . S
H2378 C2384 0.949 . S
C2379 H2374 0.950 . S
C2379 C2381 1.327 . S
C2379 C2385 1.429 . S
C2380 C2372 1.574 . S
C2380 H2375 0.949 . S
C2380 C2386 1.368 . S
C2381 C2365 1.349 . S
C2381 H2373 0.950 . S
C2381 C2379 1.327 . S
C2382 C2370 1.349 1_554 S
C2382 H2376 0.950 . S
C2382 C2383 1.327 . S
C2383 H2377 0.950 . S
C2383 C2382 1.327 . S
C2383 C2387 1.429 . S
C2384 C2367 1.574 . S
C2384 H2378 0.949 . S
C2384 C2388 1.368 . S
C2385 C2366 1.429 . S
C2385 C2379 1.429 . S
C2385 C2386 1.523 . S
C2386 C2367 1.368 . S
C2386 C2380 1.368 . S
C2386 C2385 1.523 . S
C2387 C2371 1.429 1_554 S
C2387 C2383 1.429 . S
C2387 C2388 1.523 . S
C2388 C2372 1.368 . S
C2388 C2384 1.368 . S
C2388 C2387 1.523 . S
H2389 C2364 0.950 . S
H2390 C2366 0.950 . S
H2391 C2367 0.949 . S
H2392 C2369 0.950 . S
H2393 C2371 0.950 . S
C2394 C2395 1.349 . S
C2394 C2396 1.327 . S
C2394 H2419 0.950 . S
C2395 C2394 1.349 . S
C2395 C2411 1.349 . S
C2396 C2394 1.327 . S
C2396 C2415 1.429 . S
C2396 H2420 0.950 . S
C2397 C2414 1.574 . S
C2397 C2416 1.368 . S
C2397 H2421 0.949 . S
H2398 C2402 0.949 . S
C2399 C2400 1.349 . S
C2399 C2401 1.327 . S
C2399 H2422 0.950 . S
C2400 C2399 1.349 . S
C2400 C2412 1.349 . S
C2401 C2399 1.327 . S
C2401 C2417 1.429 . S
C2401 H2423 0.950 . S
C2402 H2398 0.949 . S
C2402 C2410 1.574 . S
C2402 C2418 1.368 . S
H2403 C2411 0.950 . S
H2404 C2409 0.950 . S
H2405 C2410 0.949 . S
H2406 C2412 0.950 . S
H2407 C2413 0.950 . S
H2408 C2414 0.949 . S
C2409 H2404 0.950 . S
C2409 C2411 1.327 . S
C2409 C2415 1.429 . S
C2410 C2402 1.574 . S
C2410 H2405 0.949 . S
C2410 C2416 1.368 . S
C2411 C2395 1.349 . S
C2411 H2403 0.950 . S
C2411 C2409 1.327 . S
C2412 C2400 1.349 . S
C2412 H2406 0.950 . S
C2412 C2413 1.327 . S
C2413 H2407 0.950 . S
C2413 C2412 1.327 . S
C2413 C2417 1.429 . S
C2414 C2397 1.574 . S
C2414 H2408 0.949 . S
C2414 C2418 1.368 . S
C2415 C2396 1.429 . S
C2415 C2409 1.429 . S
C2415 C2416 1.523 . S
C2416 C2397 1.368 . S
C2416 C2410 1.368 . S
C2416 C2415 1.523 . S
C2417 C2401 1.429 . S
C2417 C2413 1.429 . S
C2417 C2418 1.523 . S
C2418 C2402 1.368 . S
C2418 C2414 1.368 . S
C2418 C2417 1.523 . S
H2419 C2394 0.950 . S
H2420 C2396 0.950 . S
H2421 C2397 0.949 . S
H2422 C2399 0.950 . S
H2423 C2401 0.950 . S
C2424 C2425 1.349 . S
C2424 C2426 1.327 . S
C2424 H2449 0.950 . S
C2425 C2424 1.349 . S
C2425 C2441 1.349 . S
C2426 C2424 1.327 . S
C2426 C2445 1.429 . S
C2426 H2450 0.950 . S
C2427 C2444 1.574 . S
C2427 C2446 1.368 . S
C2427 H2451 0.949 . S
H2428 C2432 0.949 . S
C2429 C2430 1.349 . S
C2429 C2431 1.327 . S
C2429 H2452 0.950 . S
C2430 C2429 1.349 . S
C2430 C2442 1.349 . S
C2431 C2429 1.327 . S
C2431 C2447 1.429 . S
C2431 H2453 0.950 . S
C2432 H2428 0.949 . S
C2432 C2440 1.574 . S
C2432 C2448 1.368 . S
H2433 C2441 0.950 . S
H2434 C2439 0.950 . S
H2435 C2440 0.949 . S
H2436 C2442 0.950 . S
H2437 C2443 0.950 . S
H2438 C2444 0.949 . S
C2439 H2434 0.950 . S
C2439 C2441 1.327 . S
C2439 C2445 1.429 . S
C2440 C2432 1.574 . S
C2440 H2435 0.949 . S
C2440 C2446 1.368 . S
C2441 C2425 1.349 . S
C2441 H2433 0.950 . S
C2441 C2439 1.327 . S
C2442 C2430 1.349 . S
C2442 H2436 0.950 . S
C2442 C2443 1.327 . S
C2443 H2437 0.950 . S
C2443 C2442 1.327 . S
C2443 C2447 1.429 . S
C2444 C2427 1.574 . S
C2444 H2438 0.949 . S
C2444 C2448 1.368 . S
C2445 C2426 1.429 . S
C2445 C2439 1.429 . S
C2445 C2446 1.523 . S
C2446 C2427 1.368 . S
C2446 C2440 1.368 . S
C2446 C2445 1.523 . S
C2447 C2431 1.429 . S
C2447 C2443 1.429 . S
C2447 C2448 1.523 . S
C2448 C2432 1.368 . S
C2448 C2444 1.368 . S
C2448 C2447 1.523 . S
H2449 C2424 0.950 . S
H2450 C2426 0.950 . S
H2451 C2427 0.949 . S
H2452 C2429 0.950 . S
H2453 C2431 0.950 . S
C2454 C2455 1.349 . S
C2454 C2456 1.327 . S
C2454 H2479 0.950 . S
C2455 C2454 1.349 . S
C2455 C2471 1.349 . S
C2456 C2454 1.327 . S
C2456 C2475 1.429 . S
C2456 H2480 0.950 . S
C2457 C2474 1.574 . S
C2457 C2476 1.368 . S
C2457 H2481 0.949 . S
H2458 C2462 0.949 . S
C2459 C2460 1.349 . S
C2459 C2461 1.327 . S
C2459 H2482 0.950 . S
C2460 C2459 1.349 . S
C2460 C2472 1.349 . S
C2461 C2459 1.327 . S
C2461 C2477 1.429 . S
C2461 H2483 0.950 . S
C2462 H2458 0.949 . S
C2462 C2470 1.574 . S
C2462 C2478 1.368 . S
H2463 C2471 0.950 . S
H2464 C2469 0.950 . S
H2465 C2470 0.949 . S
H2466 C2472 0.950 . S
H2467 C2473 0.950 . S
H2468 C2474 0.949 . S
C2469 H2464 0.950 . S
C2469 C2471 1.327 . S
C2469 C2475 1.429 . S
C2470 C2462 1.574 . S
C2470 H2465 0.949 . S
C2470 C2476 1.368 . S
C2471 C2455 1.349 . S
C2471 H2463 0.950 . S
C2471 C2469 1.327 . S
C2472 C2460 1.349 . S
C2472 H2466 0.950 . S
C2472 C2473 1.327 . S
C2473 H2467 0.950 . S
C2473 C2472 1.327 . S
C2473 C2477 1.429 . S
C2474 C2457 1.574 . S
C2474 H2468 0.949 . S
C2474 C2478 1.368 . S
C2475 C2456 1.429 . S
C2475 C2469 1.429 . S
C2475 C2476 1.523 . S
C2476 C2457 1.368 . S
C2476 C2470 1.368 . S
C2476 C2475 1.523 . S
C2477 C2461 1.429 . S
C2477 C2473 1.429 . S
C2477 C2478 1.523 . S
C2478 C2462 1.368 . S
C2478 C2474 1.368 . S
C2478 C2477 1.523 . S
H2479 C2454 0.950 . S
H2480 C2456 0.950 . S
H2481 C2457 0.949 . S
H2482 C2459 0.950 . S
H2483 C2461 0.950 . S
C2484 C2485 1.349 . S
C2484 C2486 1.327 . S
C2484 H2509 0.950 . S
C2485 C2484 1.349 . S
C2485 C2501 1.349 . S
C2486 C2484 1.327 . S
C2486 C2505 1.429 . S
C2486 H2510 0.950 . S
C2487 C2504 1.574 1_655 S
C2487 C2506 1.368 . S
C2487 H2511 0.949 . S
H2488 C2492 0.949 . S
C2489 C2490 1.349 . S
C2489 C2491 1.327 . S
C2489 H2512 0.950 . S
C2490 C2489 1.349 . S
C2490 C2502 1.349 . S
C2491 C2489 1.327 . S
C2491 C2507 1.429 . S
C2491 H2513 0.950 . S
C2492 H2488 0.949 . S
C2492 C2500 1.574 1_455 S
C2492 C2508 1.368 . S
H2493 C2501 0.950 . S
H2494 C2499 0.950 . S
H2495 C2500 0.949 . S
H2496 C2502 0.950 . S
H2497 C2503 0.950 . S
H2498 C2504 0.949 . S
C2499 H2494 0.950 . S
C2499 C2501 1.327 . S
C2499 C2505 1.429 . S
C2500 C2492 1.574 1_655 S
C2500 H2495 0.949 . S
C2500 C2506 1.368 . S
C2501 C2485 1.349 . S
C2501 H2493 0.950 . S
C2501 C2499 1.327 . S
C2502 C2490 1.349 . S
C2502 H2496 0.950 . S
C2502 C2503 1.327 . S
C2503 H2497 0.950 . S
C2503 C2502 1.327 . S
C2503 C2507 1.429 . S
C2504 C2487 1.574 1_455 S
C2504 H2498 0.949 . S
C2504 C2508 1.368 . S
C2505 C2486 1.429 . S
C2505 C2499 1.429 . S
C2505 C2506 1.523 . S
C2506 C2487 1.368 . S
C2506 C2500 1.368 . S
C2506 C2505 1.523 . S
C2507 C2491 1.429 . S
C2507 C2503 1.429 . S
C2507 C2508 1.523 . S
C2508 C2492 1.368 . S
C2508 C2504 1.368 . S
C2508 C2507 1.523 . S
H2509 C2484 0.950 . S
H2510 C2486 0.950 . S
H2511 C2487 0.949 . S
H2512 C2489 0.950 . S
H2513 C2491 0.950 . S
C2514 C2515 1.349 . S
C2514 C2516 1.327 . S
C2514 H2539 0.950 . S
C2515 C2514 1.349 . S
C2515 C2531 1.349 . S
C2516 C2514 1.327 . S
C2516 C2535 1.429 . S
C2516 H2540 0.950 . S
C2517 C2534 1.574 . S
C2517 C2536 1.368 . S
C2517 H2541 0.949 . S
H2518 C2522 0.949 . S
C2519 C2520 1.349 . S
C2519 C2521 1.327 . S
C2519 H2542 0.950 . S
C2520 C2519 1.349 . S
C2520 C2532 1.349 . S
C2521 C2519 1.327 . S
C2521 C2537 1.429 . S
C2521 H2543 0.950 . S
C2522 H2518 0.949 . S
C2522 C2530 1.574 . S
C2522 C2538 1.368 . S
H2523 C2531 0.950 . S
H2524 C2529 0.950 . S
H2525 C2530 0.949 . S
H2526 C2532 0.950 . S
H2527 C2533 0.950 . S
H2528 C2534 0.949 . S
C2529 H2524 0.950 . S
C2529 C2531 1.327 . S
C2529 C2535 1.429 . S
C2530 C2522 1.574 . S
C2530 H2525 0.949 . S
C2530 C2536 1.368 . S
C2531 C2515 1.349 . S
C2531 H2523 0.950 . S
C2531 C2529 1.327 . S
C2532 C2520 1.349 . S
C2532 H2526 0.950 . S
C2532 C2533 1.327 . S
C2533 H2527 0.950 . S
C2533 C2532 1.327 . S
C2533 C2537 1.429 . S
C2534 C2517 1.574 . S
C2534 H2528 0.949 . S
C2534 C2538 1.368 . S
C2535 C2516 1.429 . S
C2535 C2529 1.429 . S
C2535 C2536 1.523 . S
C2536 C2517 1.368 . S
C2536 C2530 1.368 . S
C2536 C2535 1.523 . S
C2537 C2521 1.429 . S
C2537 C2533 1.429 . S
C2537 C2538 1.523 . S
C2538 C2522 1.368 . S
C2538 C2534 1.368 . S
C2538 C2537 1.523 . S
H2539 C2514 0.950 . S
H2540 C2516 0.950 . S
H2541 C2517 0.949 . S
H2542 C2519 0.950 . S
H2543 C2521 0.950 . S
C2544 C2545 1.349 . S
C2544 C2546 1.327 . S
C2544 H2569 0.950 . S
C2545 C2544 1.349 . S
C2545 C2561 1.349 . S
C2546 C2544 1.327 . S
C2546 C2565 1.429 . S
C2546 H2570 0.950 . S
C2547 C2564 1.548 1_565 S
C2547 C2566 1.392 . S
C2547 H2571 0.947 . S
H2548 C2552 0.947 . S
C2549 C2550 1.349 . S
C2549 C2551 1.327 . S
C2549 H2572 0.950 . S
C2550 C2549 1.349 . S
C2550 C2562 1.349 . S
C2551 C2549 1.327 . S
C2551 C2567 1.429 . S
C2551 H2573 0.950 . S
C2552 H2548 0.947 . S
C2552 C2560 1.550 1_545 S
C2552 C2568 1.390 . S
H2553 C2561 0.950 . S
H2554 C2559 0.950 . S
H2555 C2560 0.949 . S
H2556 C2562 0.950 . S
H2557 C2563 0.950 . S
H2558 C2564 0.949 . S
C2559 H2554 0.950 . S
C2559 C2561 1.327 . S
C2559 C2565 1.429 . S
C2560 C2552 1.550 1_565 S
C2560 H2555 0.949 . S
C2560 C2566 1.368 . S
C2561 C2545 1.349 . S
C2561 H2553 0.950 . S
C2561 C2559 1.327 . S
C2562 C2550 1.349 . S
C2562 H2556 0.950 . S
C2562 C2563 1.327 . S
C2563 H2557 0.950 . S
C2563 C2562 1.327 . S
C2563 C2567 1.429 . S
C2564 C2547 1.548 1_545 S
C2564 H2558 0.949 . S
C2564 C2568 1.368 . S
C2565 C2546 1.429 . S
C2565 C2559 1.429 . S
C2565 C2566 1.523 . S
C2566 C2547 1.392 . S
C2566 C2560 1.368 . S
C2566 C2565 1.523 . S
C2567 C2551 1.429 . S
C2567 C2563 1.429 . S
C2567 C2568 1.523 . S
C2568 C2552 1.390 . S
C2568 C2564 1.368 . S
C2568 C2567 1.523 . S
H2569 C2544 0.950 . S
H2570 C2546 0.950 . S
H2571 C2547 0.947 . S
H2572 C2549 0.950 . S
H2573 C2551 0.950 . S
C2574 C2575 1.349 . S
C2574 C2576 1.327 . S
C2574 H2599 0.950 . S
C2575 C2574 1.349 . S
C2575 C2591 1.349 . S
C2576 C2574 1.327 . S
C2576 C2595 1.429 . S
C2576 H2600 0.950 . S
C2577 C2594 1.574 1_545 S
C2577 C2596 1.368 . S
C2577 H2601 0.949 . S
H2578 C2582 0.949 . S
C2579 C2580 1.349 . S
C2579 C2581 1.327 . S
C2579 H2602 0.950 . S
C2580 C2579 1.349 . S
C2580 C2592 1.349 . S
C2581 C2579 1.327 . S
C2581 C2597 1.429 . S
C2581 H2603 0.950 . S
C2582 H2578 0.949 . S
C2582 C2590 1.574 1_565 S
C2582 C2598 1.368 . S
H2583 C2591 0.950 . S
H2584 C2589 0.950 . S
H2585 C2590 0.949 . S
H2586 C2592 0.950 . S
H2587 C2593 0.950 . S
H2588 C2594 0.949 . S
C2589 H2584 0.950 . S
C2589 C2591 1.327 . S
C2589 C2595 1.429 . S
C2590 C2582 1.574 1_545 S
C2590 H2585 0.949 . S
C2590 C2596 1.368 . S
C2591 C2575 1.349 . S
C2591 H2583 0.950 . S
C2591 C2589 1.327 . S
C2592 C2580 1.349 . S
C2592 H2586 0.950 . S
C2592 C2593 1.327 . S
C2593 H2587 0.950 . S
C2593 C2592 1.327 . S
C2593 C2597 1.429 . S
C2594 C2577 1.574 1_565 S
C2594 H2588 0.949 . S
C2594 C2598 1.368 . S
C2595 C2576 1.429 . S
C2595 C2589 1.429 . S
C2595 C2596 1.523 . S
C2596 C2577 1.368 . S
C2596 C2590 1.368 . S
C2596 C2595 1.523 . S
C2597 C2581 1.429 . S
C2597 C2593 1.429 . S
C2597 C2598 1.523 . S
C2598 C2582 1.368 . S
C2598 C2594 1.368 . S
C2598 C2597 1.523 . S
H2599 C2574 0.950 . S
H2600 C2576 0.950 . S
H2601 C2577 0.949 . S
H2602 C2579 0.950 . S
H2603 C2581 0.950 . S
C2604 C2605 1.349 . S
C2604 C2606 1.327 . S
C2604 H2629 0.950 . S
C2605 C2604 1.349 . S
C2605 C2621 1.349 . S
C2606 C2604 1.327 . S
C2606 C2625 1.429 . S
C2606 H2630 0.950 . S
C2607 C2624 1.574 1_455 S
C2607 C2626 1.368 . S
C2607 H2631 0.949 . S
H2608 C2612 0.949 . S
C2609 C2610 1.349 . S
C2609 C2611 1.327 . S
C2609 H2632 0.950 . S
C2610 C2609 1.349 . S
C2610 C2622 1.349 . S
C2611 C2609 1.327 . S
C2611 C2627 1.429 . S
C2611 H2633 0.950 . S
C2612 H2608 0.949 . S
C2612 C2620 1.574 1_655 S
C2612 C2628 1.368 . S
H2613 C2621 0.950 . S
H2614 C2619 0.950 . S
H2615 C2620 0.949 . S
H2616 C2622 0.950 . S
H2617 C2623 0.950 . S
H2618 C2624 0.949 . S
C2619 H2614 0.950 . S
C2619 C2621 1.327 . S
C2619 C2625 1.429 . S
C2620 C2612 1.574 1_455 S
C2620 H2615 0.949 . S
C2620 C2626 1.368 . S
C2621 C2605 1.349 . S
C2621 H2613 0.950 . S
C2621 C2619 1.327 . S
C2622 C2610 1.349 . S
C2622 H2616 0.950 . S
C2622 C2623 1.327 . S
C2623 H2617 0.950 . S
C2623 C2622 1.327 . S
C2623 C2627 1.429 . S
C2624 C2607 1.574 1_655 S
C2624 H2618 0.949 . S
C2624 C2628 1.368 . S
C2625 C2606 1.429 . S
C2625 C2619 1.429 . S
C2625 C2626 1.523 . S
C2626 C2607 1.368 . S
C2626 C2620 1.368 . S
C2626 C2625 1.523 . S
C2627 C2611 1.429 . S
C2627 C2623 1.429 . S
C2627 C2628 1.523 . S
C2628 C2612 1.368 . S
C2628 C2624 1.368 . S
C2628 C2627 1.523 . S
H2629 C2604 0.950 . S
H2630 C2606 0.950 . S
H2631 C2607 0.949 . S
H2632 C2609 0.950 . S
H2633 C2611 0.950 . S
C2634 C2635 1.349 . S
C2634 C2636 1.327 . S
C2634 H2659 0.950 . S
C2635 C2634 1.349 . S
C2635 C2651 1.349 . S
C2636 C2634 1.327 . S
C2636 C2655 1.429 . S
C2636 H2660 0.950 . S
C2637 C2654 1.574 . S
C2637 C2656 1.368 . S
C2637 H2661 0.949 . S
H2638 C2642 0.949 . S
C2639 C2640 1.349 . S
C2639 C2641 1.327 . S
C2639 H2662 0.950 . S
C2640 C2639 1.349 . S
C2640 C2652 1.349 . S
C2641 C2639 1.327 . S
C2641 C2657 1.429 . S
C2641 H2663 0.950 . S
C2642 H2638 0.949 . S
C2642 C2650 1.574 . S
C2642 C2658 1.368 . S
H2643 C2651 0.950 . S
H2644 C2649 0.950 . S
H2645 C2650 0.949 . S
H2646 C2652 0.950 . S
H2647 C2653 0.950 . S
H2648 C2654 0.949 . S
C2649 H2644 0.950 . S
C2649 C2651 1.327 . S
C2649 C2655 1.429 . S
C2650 C2642 1.574 . S
C2650 H2645 0.949 . S
C2650 C2656 1.368 . S
C2651 C2635 1.349 . S
C2651 H2643 0.950 . S
C2651 C2649 1.327 . S
C2652 C2640 1.349 . S
C2652 H2646 0.950 . S
C2652 C2653 1.327 . S
C2653 H2647 0.950 . S
C2653 C2652 1.327 . S
C2653 C2657 1.429 . S
C2654 C2637 1.574 . S
C2654 H2648 0.949 . S
C2654 C2658 1.368 . S
C2655 C2636 1.429 . S
C2655 C2649 1.429 . S
C2655 C2656 1.523 . S
C2656 C2637 1.368 . S
C2656 C2650 1.368 . S
C2656 C2655 1.523 . S
C2657 C2641 1.429 . S
C2657 C2653 1.429 . S
C2657 C2658 1.523 . S
C2658 C2642 1.368 . S
C2658 C2654 1.368 . S
C2658 C2657 1.523 . S
H2659 C2634 0.950 . S
H2660 C2636 0.950 . S
H2661 C2637 0.949 . S
H2662 C2639 0.950 . S
H2663 C2641 0.950 . S
C505 C81 1.040 . S
C510 C11 1.040 . S
C535 C25 1.041 . S
C540 C53 1.041 . S
C565 C67 1.041 . S
C570 C39 1.041 . S
C595 C95 1.040 . S
C600 C165 1.040 . S
C625 C109 1.041 . S
C630 C137 1.041 . S
C655 C151 1.041 . S
C660 C123 1.041 . S
C685 C249 1.041 . S
C690 C179 1.041 . S
C715 C193 1.040 . S
C720 C221 1.040 . S
C745 C235 1.040 . S
C750 C207 1.040 . S
C775 C263 1.040 . S
C780 C333 1.040 . S
C805 C277 1.041 . S
C810 C305 1.041 . S
C835 C291 1.040 . S
C840 C319 1.040 . S
C865 C347 1.040 . S
C870 C417 1.040 . S
C895 C389 1.041 . S
C900 C361 1.041 . S
C925 C375 1.040 . S
C930 C403 1.040 . S
C955 C431 1.041 . S
C960 C501 1.041 . S
C985 C445 1.040 . S
C990 C473 1.040 . S
C1015 C459 1.040 . S
C1020 C487 1.040 . S
C1045 C152 0.673 . S
C1050 C4 0.680 . S
C1075 C166 0.672 . S
C1080 C18 0.679 . S
C1105 C138 0.673 . S
C1110 C32 0.680 . S
C1135 C124 0.673 . S
C1140 C46 0.680 . S
C1165 C60 0.680 . S
C1170 C96 0.673 . S
C1195 C74 0.680 . S
C1200 C110 0.673 . S
C1225 C88 0.680 . S
C1230 C68 0.673 . S
C1255 C102 0.679 . S
C1260 C82 0.672 . S
C1285 C116 0.680 . S
C1290 C54 0.673 . S
C1315 C40 0.673 . S
C1320 C130 0.680 . S
C1345 C12 0.673 . S
C1350 C144 0.680 . S
C1375 C158 0.680 . S
C1380 C26 0.673 . S
C1405 C172 0.680 . S
C1410 C320 0.673 . S
C1435 C186 0.679 . S
C1440 C334 0.672 . S
C1465 C306 0.673 . S
C1470 C200 0.680 . S
C1495 C214 0.680 . S
C1500 C292 0.673 . S
C1525 C228 0.679 . S
C1530 C264 0.673 . S
C1555 C242 0.680 . S
C1560 C278 0.673 . S
C1585 C256 0.680 . S
C1590 C236 0.673 . S
C1615 C250 0.673 . S
C1620 C270 0.679 . S
C1645 C222 0.673 . S
C1650 C284 0.680 . S
C1675 C298 0.679 . S
C1680 C208 0.673 . S
C1705 C180 0.673 . S
C1710 C312 0.680 . S
C1735 C194 0.673 . S
C1740 C326 0.679 . S
C1765 C488 0.673 . S
C1770 C340 0.680 . S
C1795 C354 0.679 . S
C1800 C502 0.673 . S
C1825 C368 0.679 . S
C1830 C474 0.673 . S
C1855 C460 0.672 . S
C1860 C382 0.679 . S
C1885 C432 0.673 . S
C1890 C396 0.679 . S
C1915 C446 0.673 . S
C1920 C410 0.679 . S
C1945 C424 0.680 . S
C1950 C404 0.673 . S
C1975 C418 0.672 . S
C1980 C438 0.679 . S
C2005 C452 0.680 . S
C2010 C390 0.673 . S
C2035 C376 0.673 . S
C2040 C466 0.680 . S
C2065 C348 0.673 . S
C2070 C480 0.679 . S
C2095 C362 0.673 . S
C2100 C494 0.680 . S
C2125 C229 1.354 . S
C2130 C5 1.354 . S
C2155 C19 1.354 . S
C2160 C243 1.354 . S
C2185 C215 1.354 . S
C2190 C33 1.354 . S
C2215 C369 1.354 . S
C2220 C47 1.354 . S
C2245 C61 1.354 . S
C2250 C341 1.354 . S
C2275 C75 1.354 . S
C2280 C355 1.354 . S
C2305 C89 1.354 . S
C2310 C481 1.354 . S
C2335 C495 1.354 . S
C2340 C103 1.354 . S
C2365 C467 1.354 . S
C2370 C117 1.354 . S
C2395 C285 1.354 . S
C2400 C131 1.354 . S
C2425 C145 1.354 . S
C2430 C257 1.354 . S
C2455 C159 1.354 . S
C2460 C271 1.354 . S
C2485 C173 1.354 . S
C2490 C397 1.354 . S
C2515 C411 1.354 . S
C2520 C187 1.354 . S
C2545 C383 1.354 . S
C2550 C201 1.354 . S
C2575 C299 1.354 . S
C2580 C453 1.354 . S
C2605 C425 1.354 . S
C2610 C313 1.354 . S
C2635 C439 1.354 . S
C2640 C327 1.354 . S
