# Generated by pormake.
# Topology uoj, (4)-cn, num edge types: 1
# Building blocks:
#     Node 0, Type 0, BuildingBlock: KOZSID_clean_sbu_0, # of connection points: 4
#     Node 1, Type 0, BuildingBlock: KOZSID_clean_sbu_0, # of connection points: 4
#     Node 2, Type 0, BuildingBlock: KOZSID_clean_sbu_0, # of connection points: 4
#     Node 3, Type 0, BuildingBlock: KOZSID_clean_sbu_0, # of connection points: 4
#     Node 4, Type 0, BuildingBlock: KOZSID_clean_sbu_0, # of connection points: 4
#     Node 5, Type 0, BuildingBlock: KOZSID_clean_sbu_0, # of connection points: 4
#     Node 6, Type 0, BuildingBlock: KOZSID_clean_sbu_0, # of connection points: 4
#     Node 7, Type 0, BuildingBlock: KOZSID_clean_sbu_0, # of connection points: 4
#     Edge 8, Type (0, 0), None
#     Edge 9, Type (0, 0), None
#     Edge 10, Type (0, 0), None
#     Edge 11, Type (0, 0), None
#     Edge 12, Type (0, 0), None
#     Edge 13, Type (0, 0), None
#     Edge 14, Type (0, 0), None
#     Edge 15, Type (0, 0), None
#     Edge 16, Type (0, 0), None
#     Edge 17, Type (0, 0), None
#     Edge 18, Type (0, 0), None
#     Edge 19, Type (0, 0), None
#     Edge 20, Type (0, 0), None
#     Edge 21, Type (0, 0), None
#     Edge 22, Type (0, 0), None
#     Edge 23, Type (0, 0), None
# Relax obj value: 0.055
# Max RMSD: 0.346
# Mean RMSD: 0.312
data_MOF--net-uoj--node1-KOZSID_clean_sbu_0--edge1-none
_symmetry_space_group_name_H-M    P1
_symmetry_Int_Tables_number       1
_symmetry_cell_setting            triclinic
loop_
_symmetry_equiv_pos_as_xyz
'x, y, z'
_cell_length_a     19.294784
_cell_length_b     21.290994
_cell_length_c     26.536218
_cell_angle_alpha  89.999695
_cell_angle_beta   90.000281
_cell_angle_gamma 97.25523
loop_
_atom_site_label
_atom_site_type_symbol
_atom_site_fract_x
_atom_site_fract_y
_atom_site_fract_z
_atom_type_partial_charge
C0 C 0.19804 0.37408 0.36658 0.0
C1 C 0.24726 0.42663 0.37347 0.0
C2 C 0.24546 0.44227 0.4237 0.0
C3 C 0.19515 0.39865 0.4448 0.0
N4 N 0.16624 0.35555 0.41129 0.0
Co5 Co 0.08127 0.29393 0.42529 0.0
N6 N 0.08165 0.30905 0.50042 0.0
C7 C 0.12454 0.35494 0.52364 0.0
C8 C 0.1112 0.35868 0.57437 0.0
C9 C 0.0563 0.31244 0.58397 0.0
C10 C 1.03856 0.2824 0.53859 0.0
N11 N 0.99397 0.23371 0.43795 0.0
C12 C 0.96678 0.20686 0.48149 0.0
C13 C 0.9177 0.15555 0.47197 0.0
C14 C 0.90855 0.15208 0.42134 0.0
C15 C 0.95505 0.19999 0.40248 0.0
N16 N 0.08007 0.27302 0.3514 0.0
C17 C 1.03123 0.23339 0.32709 0.0
C18 C 1.04629 0.223 0.27766 0.0
C19 C 0.10832 0.25926 0.26931 0.0
C20 C 0.12701 0.29039 0.31432 0.0
N21 N 0.14117 0.22493 0.43748 0.0
C22 C 0.23087 0.13288 0.46268 0.0
C23 C 0.16653 0.11557 0.43807 0.0
C24 C 0.1231 0.16232 0.42504 0.0
C25 C 0.24983 0.19721 0.47216 0.0
C26 C 0.20467 0.24139 0.46031 0.0
N27 N 1.02913 0.36983 0.41396 0.0
C28 C 1.04421 0.46859 0.36554 0.0
C29 C 1.03927 0.50597 0.40892 0.0
C30 C 1.01792 0.47207 0.453 0.0
C31 C 1.01194 0.40519 0.45443 0.0
C32 C 1.03694 0.40149 0.36865 0.0
H33 H 0.99931 0.38371 0.49031 0.0
H34 H 1.04391 0.37642 0.33437 0.0
H35 H 0.07422 0.14705 0.40658 0.0
H36 H 0.22131 0.28883 0.47206 0.0
C37 C 0.17364 0.3955 0.49562 0.0
C38 C 0.1805 0.34512 0.31665 0.0
C39 C 0.9782 0.23091 0.53312 0.0
C40 C 0.97437 0.20304 0.35242 0.0
H41 H 0.27982 0.45174 0.34487 0.0
H42 H 0.27632 0.48147 0.44237 0.0
H43 H 0.13722 0.39206 0.60113 0.0
H44 H 1.03109 0.30276 0.62006 0.0
H45 H 0.89292 0.12404 0.50004 0.0
H46 H 0.8765 0.1158 0.40033 0.0
H47 H 1.01573 0.19271 0.25089 0.0
H48 H 0.13487 0.26472 0.23335 0.0
H49 H 0.14809 0.06613 0.43135 0.0
H50 H 0.29763 0.21304 0.49245 0.0
H51 H 0.05708 0.49052 0.32943 0.0
H52 H 1.00761 0.49686 0.48724 0.0
C53 C 0.50512 0.97234 0.58774 0.0
C54 C 0.5604 0.95296 0.56072 0.0
C55 C 0.53418 0.90031 0.53457 0.0
C56 C 0.46472 0.89053 0.54683 0.0
N57 N 0.44406 0.934 0.57852 0.0
Co58 Co 0.34588 0.93378 0.60498 0.0
N59 N 0.30702 0.86299 0.55901 0.0
C60 C 0.34573 0.82631 0.5323 0.0
C61 C 0.3074 0.78013 0.50464 0.0
C62 C 0.23972 0.78769 0.51409 0.0
C63 C 0.24017 0.83828 0.54704 0.0
N64 N 0.24672 0.93249 0.62908 0.0
C65 C 0.18391 0.90493 0.6092 0.0
C66 C 0.12906 0.91869 0.63925 0.0
C67 C 0.15799 0.9543 0.67917 0.0
C68 C 0.2291 0.96104 0.6716 0.0
N69 N 0.38659 1.00277 0.65193 0.0
C70 C 0.3524 1.02086 0.69269 0.0
C71 C 0.39357 0.0635 0.72233 0.0
C72 C 0.45816 0.07175 0.69955 0.0
C73 C 0.45351 1.03352 0.65703 0.0
N74 N 0.32601 0.99915 0.55503 0.0
C75 C 0.26775 0.08649 0.49194 0.0
C76 C 0.26365 0.08992 0.54409 0.0
C77 C 0.2939 0.04778 0.57423 0.0
C78 C 0.30817 1.04162 0.47145 0.0
C79 C 0.33616 0.99735 0.50385 0.0
N80 N 0.36244 0.87309 0.65978 0.0
C81 C 0.30366 0.83122 0.7358 0.0
C82 C 0.36064 0.85684 0.76554 0.0
C83 C 0.42238 0.87975 0.74002 0.0
C84 C 0.42287 0.88496 0.68724 0.0
C85 C 0.3063 0.83852 0.6828 0.0
H86 H 0.4703 0.90659 0.67003 0.0
H87 H 0.25967 0.82296 0.66144 0.0
H88 H 0.28751 0.05378 0.61368 0.0
H89 H 0.36282 0.96053 0.48757 0.0
C90 C 0.41742 0.84163 0.52847 0.0
C91 C 0.51599 1.02198 0.62648 0.0
C92 C 0.17476 0.86025 0.56519 0.0
C93 C 0.28068 0.99898 0.69988 0.0
H94 H 0.61477 0.97323 0.56154 0.0
H95 H 0.5626 0.87192 0.51008 0.0
H96 H 0.3264 0.74667 0.47896 0.0
H97 H 0.19507 0.76022 0.49746 0.0
H98 H 0.07402 0.90329 0.6335 0.0
H99 H 0.1302 0.97385 0.70965 0.0
H100 H 0.37875 0.08547 0.7568 0.0
H101 H 0.50439 0.10036 0.71379 0.0
H102 H 0.2356 0.1249 0.56204 0.0
H103 H 0.31571 1.03912 0.43114 0.0
H104 H 0.25573 0.8099 0.75334 0.0
H105 H 0.46944 0.89636 0.76086 0.0
C106 C 0.89636 0.71046 0.36659 0.0
C107 C 0.84714 0.65791 0.37347 0.0
C108 C 0.84893 0.64227 0.42371 0.0
C109 C 0.89922 0.68589 0.44481 0.0
N110 N 0.92815 0.72899 0.41131 0.0
Co111 Co 1.01311 0.79061 0.42531 0.0
N112 N 1.01272 0.77547 0.50045 0.0
C113 C 0.96981 0.7296 0.52366 0.0
C114 C 0.98314 0.72586 0.5744 0.0
C115 C 1.03805 0.77208 0.584 0.0
C116 C 0.0558 0.80211 0.53862 0.0
N117 N 0.10042 0.85083 0.43797 0.0
C118 C 0.12764 0.87764 0.48151 0.0
C119 C 0.17673 0.92895 0.47201 0.0
C120 C 0.18585 0.93246 0.42138 0.0
C121 C 0.13933 0.88457 0.40251 0.0
N122 N 1.01432 0.81153 0.35143 0.0
C123 C 0.06314 0.85118 0.32712 0.0
C124 C 0.04809 0.86158 0.27769 0.0
C125 C 0.98607 0.8253 0.26933 0.0
C126 C 0.96739 0.79415 0.31434 0.0
N127 N 0.95321 0.85961 0.4375 0.0
C128 C 0.86351 0.95165 0.46271 0.0
C129 C 0.92786 0.96897 0.43811 0.0
C130 C 0.97129 0.92222 0.42507 0.0
C131 C 0.84455 0.88732 0.47218 0.0
C132 C 0.8897 0.84314 0.46033 0.0
N133 N 0.06526 0.71471 0.41398 0.0
C134 C 0.05019 0.61596 0.36555 0.0
C135 C 0.05512 0.57857 0.40893 0.0
C136 C 0.07645 0.61247 0.45301 0.0
C137 C 0.08243 0.67935 0.45445 0.0
C138 C 0.05747 0.68306 0.36866 0.0
H139 H 0.09506 0.70082 0.49033 0.0
H140 H 0.0505 0.70814 0.33439 0.0
H141 H 1.02017 0.9375 0.40662 0.0
H142 H 0.87306 0.7957 0.47206 0.0
C143 C 0.92072 0.68903 0.49564 0.0
C144 C 0.91391 0.73942 0.31666 0.0
C145 C 0.11621 0.85354 0.53313 0.0
C146 C 0.12001 0.88153 0.35245 0.0
H147 H 0.81458 0.6328 0.34487 0.0
H148 H 0.81806 0.60307 0.44237 0.0
H149 H 0.95711 0.69247 0.60115 0.0
H150 H 0.06326 0.78175 0.62009 0.0
H151 H 0.20153 0.96043 0.50009 0.0
H152 H 0.21791 0.96874 0.40037 0.0
H153 H 0.07865 0.89188 0.25093 0.0
H154 H 0.95952 0.81984 0.23338 0.0
H155 H 0.9463 1.01841 0.43139 0.0
H156 H 0.79675 0.87149 0.49245 0.0
H157 H 1.03733 0.59403 0.32943 0.0
H158 H 0.08675 0.58766 0.48726 0.0
C159 C 0.58928 0.11222 0.58776 0.0
C160 C 0.53399 0.13162 0.56076 0.0
C161 C 0.56021 0.18428 0.53462 0.0
C162 C 0.62967 0.19404 0.54686 0.0
N163 N 0.65034 0.15055 0.57854 0.0
Co164 Co 0.74853 0.15076 0.605 0.0
N165 N 0.78738 0.22154 0.55902 0.0
C166 C 0.74867 0.25824 0.53232 0.0
C167 C 0.78702 0.30439 0.50463 0.0
C168 C 0.85469 0.29679 0.51405 0.0
C169 C 0.85424 0.24621 0.54702 0.0
N170 N 0.84768 0.15204 0.6291 0.0
C171 C 0.91049 0.17958 0.60921 0.0
C172 C 0.96534 0.16583 0.63926 0.0
C173 C 0.93641 0.13024 0.6792 0.0
C174 C 0.8653 0.12351 0.67163 0.0
N175 N 0.70781 0.08178 0.65195 0.0
C176 C 0.74199 0.0637 0.69272 0.0
C177 C 0.70082 1.02107 0.72236 0.0
C178 C 0.63623 1.01281 0.69957 0.0
C179 C 0.64089 0.05103 0.65705 0.0
N180 N 0.76838 0.08538 0.55505 0.0
C181 C 0.82663 0.99804 0.49197 0.0
C182 C 0.83071 0.9946 0.54412 0.0
C183 C 0.80047 1.03675 0.57426 0.0
C184 C 0.78623 0.04293 0.47147 0.0
C185 C 0.75825 0.0872 0.50387 0.0
N186 N 0.73198 0.21146 0.65979 0.0
C187 C 0.79076 0.25334 0.7358 0.0
C188 C 0.73378 0.22772 0.76554 0.0
C189 C 0.67204 0.20482 0.74003 0.0
C190 C 0.67154 0.1996 0.68725 0.0
C191 C 0.78811 0.24603 0.6828 0.0
H192 H 0.62411 0.17797 0.67004 0.0
H193 H 0.83475 0.26158 0.66144 0.0
H194 H 0.80686 1.03075 0.61371 0.0
H195 H 0.7316 0.12403 0.48759 0.0
C196 C 0.67698 0.24294 0.5285 0.0
C197 C 0.57843 0.06255 0.62647 0.0
C198 C 0.91961 0.22419 0.56516 0.0
C199 C 0.81371 0.08557 0.69991 0.0
H200 H 0.47963 0.11134 0.56158 0.0
H201 H 0.53179 0.21268 0.51014 0.0
H202 H 0.76803 0.33784 0.47894 0.0
H203 H 0.89934 0.32422 0.49739 0.0
H204 H 1.02038 0.18121 0.6335 0.0
H205 H 0.9642 0.1107 0.70967 0.0
H206 H 0.71564 0.99911 0.75684 0.0
H207 H 0.59 0.9842 0.71382 0.0
H208 H 0.85875 0.95961 0.56207 0.0
H209 H 0.77871 0.04543 0.43116 0.0
H210 H 0.8387 0.27466 0.75334 0.0
H211 H 0.62498 0.18821 0.76087 0.0
C212 C 0.36925 0.72653 1.02014 0.0
C213 C 0.329 0.71182 0.063 0.0
C214 C 0.32306 0.76717 0.08699 0.0
C215 C 0.36126 0.81242 0.05842 0.0
N216 N 0.39187 0.78987 1.01771 0.0
Co217 Co 0.4612 0.84121 0.9723 0.0
N218 N 0.45862 0.92217 1.01266 0.0
C219 C 0.41824 0.92701 0.05366 0.0
C220 C 0.42018 0.98689 0.0726 0.0
C221 C 0.46393 1.02377 0.04161 0.0
C222 C 0.48777 0.98408 1.00561 0.0
N223 N 0.5293 0.89604 0.92702 0.0
C224 C 0.55182 0.96079 0.92624 0.0
C225 C 0.59086 0.97685 0.8832 0.0
C226 C 0.59003 0.9227 0.85507 0.0
C227 C 0.55149 0.87578 0.88236 0.0
N228 N 0.46294 0.76078 0.93262 0.0
C229 C 0.49388 0.75823 0.88736 0.0
C230 C 0.48407 0.69876 0.86639 0.0
C231 C 0.44359 0.66141 0.90022 0.0
C232 C 0.43076 0.69996 0.94036 0.0
N233 N 0.38476 0.86195 0.92655 0.0
C234 C 0.35715 0.86135 0.82224 0.0
C235 C 0.33026 0.81003 0.85264 0.0
C236 C 0.34239 0.81238 0.90516 0.0
C237 C 0.38396 0.91742 0.84726 0.0
C238 C 0.39358 0.91741 0.89987 0.0
N239 N 0.54032 0.81352 1.01376 0.0
C240 C 0.64129 0.75533 1.00867 0.0
C241 C 0.63932 0.73985 0.06007 0.0
C242 C 0.58591 0.76337 0.08825 0.0
C243 C 0.53659 0.79893 0.06442 0.0
C244 C 0.59463 0.79344 0.98741 0.0
H245 H 0.49549 0.81392 0.08721 0.0
H246 H 0.60186 0.80404 0.94834 0.0
H247 H 0.32612 0.7703 0.92673 0.0
H248 H 0.41637 0.96053 0.91739 0.0
C249 C 0.37545 0.87525 0.072 0.0
C250 C 0.38163 0.67866 0.98223 0.0
C251 C 0.5327 1.00989 0.96304 0.0
C252 C 0.53201 0.81284 0.86652 0.0
H253 H 0.3067 0.66579 0.07627 0.0
H254 H 0.29632 0.77338 0.12217 0.0
H255 H 0.39091 1.00229 0.1041 0.0
H256 H 0.47489 0.07477 0.04426 0.0
H257 H 0.61444 1.02358 0.87203 0.0
H258 H 0.61268 0.91861 0.81808 0.0
H259 H 0.50317 0.68435 0.83038 0.0
H260 H 0.42381 0.61197 0.89515 0.0
H261 H 0.30511 0.7667 0.83583 0.0
H262 H 0.40042 0.96026 0.82613 0.0
H263 H 0.68146 0.74003 0.98471 0.0
H264 H 0.58258 0.75514 0.12848 0.0
C265 C 0.69913 0.64933 0.10997 0.0
C266 C 0.63838 0.61708 0.12973 0.0
C267 C 0.65644 0.5627 0.15141 0.0
C268 C 0.72715 0.56423 0.1436 0.0
N269 N 0.75511 0.61598 0.11845 0.0
Co270 Co 0.85607 0.63157 0.09641 0.0
N271 N 0.88359 0.55085 0.12537 0.0
C272 C 0.83945 0.50852 0.15103 0.0
C273 C 0.871 0.45891 0.16938 0.0
C274 C 0.93963 0.47058 0.15461 0.0
C275 C 0.94684 0.52649 0.12705 0.0
N276 N 0.95737 0.6492 0.0736 0.0
C277 C 1.01475 0.61767 0.0799 0.0
C278 C 0.07278 0.64864 0.05504 0.0
C279 C 0.05323 0.70203 0.03464 0.0
C280 C 0.98434 0.70052 0.04698 0.0
N281 N 0.83179 0.71378 0.06772 0.0
C282 C 0.87764 0.7594 0.04689 0.0
C283 C 0.85124 0.81481 0.03713 0.0
C284 C 0.78355 0.80416 0.05221 0.0
C285 C 0.772 0.74189 0.06906 0.0
N286 N 0.8794 0.67355 0.16309 0.0
C287 C 0.89462 0.70724 0.267 0.0
C288 C 0.94349 0.67488 0.24205 0.0
C289 C 0.93547 0.65931 0.19069 0.0
C290 C 0.83923 0.72443 0.23814 0.0
C291 C 0.83267 0.7074 0.18679 0.0
N292 N 0.82683 0.58346 0.03251 0.0
C293 C 0.82783 0.47981 0.99398 0.0
C294 C 0.75464 0.47222 0.98669 0.0
C295 C 0.72206 0.5269 0.99374 0.0
C296 C 0.75989 0.58257 1.01428 0.0
C297 C 0.86253 0.53522 1.01697 0.0
H298 H 0.73218 0.62264 1.01954 0.0
H299 H 0.91678 0.53612 0.02652 0.0
H300 H 0.97501 0.63522 0.17398 0.0
H301 H 0.78892 0.72158 0.16683 0.0
C302 C 0.76909 0.51772 0.15743 0.0
C303 C 0.70192 0.71122 0.08275 0.0
C304 C 1.01651 0.55711 0.10703 0.0
C305 C 0.94549 0.74923 0.03735 0.0
H306 H 0.58652 0.63128 0.1284 0.0
H307 H 0.62179 0.52599 0.17008 0.0
H308 H 0.84719 0.41926 0.19153 0.0
H309 H 0.98016 0.44167 0.16377 0.0
H310 H 0.12454 0.63502 0.052 0.0
H311 H 0.08584 0.73839 1.01399 0.0
H312 H 0.87818 0.85794 1.02118 0.0
H313 H 0.74642 0.83818 0.05019 0.0
H314 H 0.98963 0.66381 0.26157 0.0
H315 H 0.80243 0.7529 0.25468 0.0
H316 H 0.85697 0.44037 0.98717 0.0
H317 H 0.66657 0.52557 0.98688 0.0
C318 C 0.72516 0.35804 1.02013 0.0
C319 C 0.76541 0.37274 0.063 0.0
C320 C 0.77135 0.3174 0.08699 0.0
C321 C 0.73315 0.27214 0.05842 0.0
N322 N 0.70254 0.29469 1.0177 0.0
Co323 Co 0.63322 0.24335 0.97229 0.0
N324 N 0.63581 0.16239 1.01265 0.0
C325 C 0.67619 0.15754 0.05364 0.0
C326 C 0.67426 0.09766 0.07257 0.0
C327 C 0.63051 0.06078 0.04159 0.0
C328 C 0.60665 0.10048 1.0056 0.0
N329 N 0.56513 0.18853 0.92701 0.0
C330 C 0.5426 0.12377 0.92623 0.0
C331 C 0.50358 0.10771 0.88318 0.0
C332 C 0.50442 0.16186 0.85505 0.0
C333 C 0.54294 0.20878 0.88234 0.0
N334 N 0.63148 0.32379 0.93261 0.0
C335 C 0.60055 0.32633 0.88735 0.0
C336 C 0.61035 0.38581 0.86638 0.0
C337 C 0.65083 0.42315 0.90021 0.0
C338 C 0.66366 0.38461 0.94035 0.0
N339 N 0.70967 0.22261 0.92655 0.0
C340 C 0.73728 0.22321 0.82224 0.0
C341 C 0.76417 0.27454 0.85264 0.0
C342 C 0.75204 0.27219 0.90516 0.0
C343 C 0.71048 0.16714 0.84727 0.0
C344 C 0.70086 0.16715 0.89987 0.0
N345 N 0.5541 0.27104 1.01375 0.0
C346 C 0.45312 0.32922 1.00866 0.0
C347 C 0.45509 0.3447 0.06005 0.0
C348 C 0.5085 0.32118 0.08824 0.0
C349 C 0.55782 0.28562 0.06441 0.0
C350 C 0.49979 0.29112 0.98739 0.0
H351 H 0.59892 0.27063 0.0872 0.0
H352 H 0.49256 0.28052 0.94832 0.0
H353 H 0.7683 0.31427 0.92673 0.0
H354 H 0.67805 0.12404 0.9174 0.0
C355 C 0.71897 0.20931 0.07199 0.0
C356 C 0.71279 0.4059 0.98222 0.0
C357 C 0.56169 0.07469 0.96305 0.0
C358 C 0.56242 0.27173 0.86651 0.0
H359 H 0.78771 0.41877 0.07626 0.0
H360 H 0.79809 0.31118 0.12216 0.0
H361 H 0.70354 0.08226 0.10408 0.0
H362 H 0.61954 1.00979 0.04424 0.0
H363 H 0.47999 0.06099 0.87201 0.0
H364 H 0.48177 0.16595 0.81806 0.0
H365 H 0.59126 0.40022 0.83037 0.0
H366 H 0.67062 0.4726 0.89515 0.0
H367 H 0.78931 0.31787 0.83583 0.0
H368 H 0.69402 0.12431 0.82614 0.0
H369 H 0.41296 0.34452 0.9847 0.0
H370 H 0.51183 0.32941 0.12847 0.0
C371 C 0.39529 0.43522 0.10996 0.0
C372 C 0.45604 0.46746 0.12972 0.0
C373 C 0.43799 0.52184 0.15141 0.0
C374 C 0.36727 0.52032 0.1436 0.0
N375 N 0.33931 0.46857 0.11844 0.0
Co376 Co 0.23835 0.45299 0.09641 0.0
N377 N 0.21084 0.53371 0.12537 0.0
C378 C 0.25498 0.57603 0.15104 0.0
C379 C 0.22343 0.62565 0.16938 0.0
C380 C 0.15481 0.61399 0.15461 0.0
C381 C 0.14759 0.55807 0.12705 0.0
N382 N 0.13705 0.43536 0.07359 0.0
C383 C 0.07967 0.46689 0.07989 0.0
C384 C 1.02163 0.43592 0.05505 0.0
C385 C 1.04117 0.38254 0.03464 0.0
C386 C 0.11006 0.38404 0.04698 0.0
N387 N 0.26262 0.37077 0.06771 0.0
C388 C 0.21676 0.32516 0.04688 0.0
C389 C 0.24317 0.26975 0.03712 0.0
C390 C 0.31086 0.28039 0.05219 0.0
C391 C 0.32242 0.34266 0.06904 0.0
N392 N 0.21501 0.41101 0.16309 0.0
C393 C 0.1998 0.3773 0.26699 0.0
C394 C 0.15093 0.40967 0.24204 0.0
C395 C 0.15895 0.42525 0.19069 0.0
C396 C 0.25518 0.36011 0.23812 0.0
C397 C 0.26175 0.37715 0.18678 0.0
N398 N 0.26759 0.5011 0.0325 0.0
C399 C 0.26659 0.60475 0.99399 0.0
C400 C 0.33978 0.61234 0.98671 0.0
C401 C 0.37236 0.55766 0.99374 0.0
C402 C 0.33453 0.50198 1.01427 0.0
C403 C 0.23189 0.54934 1.01697 0.0
H404 H 0.36223 0.46191 1.01953 0.0
H405 H 0.17763 0.54844 0.02651 0.0
H406 H 0.11942 0.44935 0.17398 0.0
H407 H 0.30549 0.36296 0.16682 0.0
C408 C 0.32534 0.56682 0.15743 0.0
C409 C 0.39249 0.37334 0.08273 0.0
C410 C 0.07793 0.52747 0.10701 0.0
C411 C 0.14891 0.33533 0.03735 0.0
H412 H 0.5079 0.45326 0.12839 0.0
H413 H 0.47264 0.55855 0.17008 0.0
H414 H 0.24725 0.66529 0.19154 0.0
H415 H 0.11428 0.6429 0.16377 0.0
H416 H 0.96988 0.44955 0.052 0.0
H417 H 1.00856 0.34617 1.014 0.0
H418 H 0.21622 0.22662 1.02117 0.0
H419 H 0.34798 0.24637 0.05016 0.0
H420 H 0.10479 0.42075 0.26157 0.0
H421 H 0.29197 0.33163 0.25466 0.0
H422 H 0.23746 0.6442 0.98717 0.0
H423 H 0.42785 0.55899 0.98688 0.0
loop_
_geom_bond_atom_site_label_1
_geom_bond_atom_site_label_2
_geom_bond_distance
_geom_bond_site_symmetry_2
_ccdc_geom_bond_type
C0 C1 1.443 . S
C0 N4 1.376 . S
C0 C38 1.389 . S
C1 C0 1.443 . S
C1 C2 1.340 . S
C1 H41 0.951 . S
C2 C1 1.340 . S
C2 C3 1.439 . S
C2 H42 0.950 . S
C3 C2 1.439 . S
C3 N4 1.374 . S
C3 C37 1.395 . S
N4 C0 1.376 . S
N4 C3 1.374 . S
N4 Co5 2.008 . S
Co5 N4 2.008 . S
Co5 N6 1.995 . S
Co5 N11 2.008 1_455 S
Co5 N16 1.995 . S
Co5 N21 2.282 . S
Co5 N27 2.282 1_455 S
N6 Co5 1.995 . S
N6 C7 1.376 . S
N6 C10 1.383 1_455 S
C7 N6 1.376 . S
C7 C8 1.446 . S
C7 C37 1.391 . S
C8 C7 1.446 . S
C8 C9 1.339 1_455 S
C8 H43 0.949 . S
C9 C8 1.339 1_655 S
C9 C10 1.439 . S
C9 H44 0.950 . S
C10 N6 1.383 1_655 S
C10 C9 1.439 . S
C10 C39 1.392 . S
N11 Co5 2.008 1_655 S
N11 C12 1.376 . S
N11 C15 1.374 . S
C12 N11 1.376 . S
C12 C13 1.443 . S
C12 C39 1.389 . S
C13 C12 1.443 . S
C13 C14 1.340 . S
C13 H45 0.951 . S
C14 C13 1.340 . S
C14 C15 1.439 . S
C14 H46 0.950 . S
C15 N11 1.374 . S
C15 C14 1.439 . S
C15 C40 1.395 . S
N16 Co5 1.995 . S
N16 C17 1.376 1_455 S
N16 C20 1.383 . S
C17 N16 1.376 1_655 S
C17 C18 1.446 . S
C17 C40 1.391 . S
C18 C17 1.446 . S
C18 C19 1.339 1_655 S
C18 H47 0.949 . S
C19 C18 1.339 1_455 S
C19 C20 1.439 . S
C19 H48 0.950 . S
C20 N16 1.383 . S
C20 C19 1.439 . S
C20 C38 1.392 . S
N21 Co5 2.282 . S
N21 C24 1.332 . S
N21 C26 1.332 . S
C22 C23 1.386 . S
C22 C25 1.388 . S
C23 C22 1.386 . S
C23 C24 1.382 . S
C23 H49 0.950 . S
C24 N21 1.332 . S
C24 C23 1.382 . S
C24 H35 0.952 . S
C25 C22 1.388 . S
C25 C26 1.382 . S
C25 H50 0.950 . S
C26 N21 1.332 . S
C26 C25 1.382 . S
C26 H36 0.948 . S
N27 Co5 2.282 1_655 S
N27 C31 1.332 . S
N27 C32 1.332 . S
C28 C29 1.388 . S
C28 C32 1.382 . S
C28 H51 0.950 . S
C29 C28 1.388 . S
C29 C30 1.386 . S
C30 C29 1.386 . S
C30 C31 1.382 . S
C30 H52 0.950 . S
C31 N27 1.332 . S
C31 C30 1.382 . S
C31 H33 0.952 1_655 S
C32 N27 1.332 . S
C32 C28 1.382 . S
C32 H34 0.948 . S
H33 C31 0.952 1_455 S
H34 C32 0.948 . S
H35 C24 0.952 . S
H36 C26 0.948 . S
C37 C3 1.395 . S
C37 C7 1.391 . S
C38 C0 1.389 . S
C38 C20 1.392 . S
C39 C10 1.392 . S
C39 C12 1.389 . S
C40 C15 1.395 . S
C40 C17 1.391 . S
H41 C1 0.951 . S
H42 C2 0.950 . S
H43 C8 0.949 . S
H44 C9 0.950 . S
H45 C13 0.951 . S
H46 C14 0.950 . S
H47 C18 0.949 . S
H48 C19 0.950 . S
H49 C23 0.950 . S
H50 C25 0.950 . S
H51 C28 0.950 . S
H52 C30 0.950 . S
C53 C54 1.443 . S
C53 N57 1.376 . S
C53 C91 1.389 1_565 S
C54 C53 1.443 . S
C54 C55 1.340 . S
C54 H94 0.951 . S
C55 C54 1.340 . S
C55 C56 1.439 . S
C55 H95 0.950 . S
C56 C55 1.439 . S
C56 N57 1.374 . S
C56 C90 1.395 . S
N57 C53 1.376 . S
N57 C56 1.374 . S
N57 Co58 2.008 . S
Co58 N57 2.008 . S
Co58 N59 1.995 . S
Co58 N64 2.008 . S
Co58 N69 1.995 . S
Co58 N74 2.282 . S
Co58 N80 2.282 . S
N59 Co58 1.995 . S
N59 C60 1.376 . S
N59 C63 1.383 . S
C60 N59 1.376 . S
C60 C61 1.446 . S
C60 C90 1.391 . S
C61 C60 1.446 . S
C61 C62 1.339 . S
C61 H96 0.949 . S
C62 C61 1.339 . S
C62 C63 1.439 . S
C62 H97 0.950 . S
C63 N59 1.383 . S
C63 C62 1.439 . S
C63 C92 1.392 . S
N64 Co58 2.008 . S
N64 C65 1.376 . S
N64 C68 1.374 . S
C65 N64 1.376 . S
C65 C66 1.443 . S
C65 C92 1.389 . S
C66 C65 1.443 . S
C66 C67 1.340 . S
C66 H98 0.951 . S
C67 C66 1.340 . S
C67 C68 1.439 . S
C67 H99 0.950 . S
C68 N64 1.374 . S
C68 C67 1.439 . S
C68 C93 1.395 1_565 S
N69 Co58 1.995 . S
N69 C70 1.376 1_565 S
N69 C73 1.383 1_565 S
C70 N69 1.376 1_545 S
C70 C71 1.446 . S
C70 C93 1.391 . S
C71 C70 1.446 . S
C71 C72 1.339 . S
C71 H100 0.949 . S
C72 C71 1.339 . S
C72 C73 1.439 . S
C72 H101 0.950 . S
C73 N69 1.383 1_545 S
C73 C72 1.439 . S
C73 C91 1.392 . S
N74 Co58 2.282 . S
N74 C77 1.332 1_565 S
N74 C79 1.332 . S
C75 C76 1.386 . S
C75 C78 1.388 1_545 S
C76 C75 1.386 . S
C76 C77 1.382 . S
C76 H102 0.950 . S
C77 N74 1.332 1_545 S
C77 C76 1.382 . S
C77 H88 0.952 . S
C78 C75 1.388 1_565 S
C78 C79 1.382 . S
C78 H103 0.950 . S
C79 N74 1.332 . S
C79 C78 1.382 . S
C79 H89 0.948 . S
N80 Co58 2.282 . S
N80 C84 1.332 . S
N80 C85 1.332 . S
C81 C82 1.388 . S
C81 C85 1.382 . S
C81 H104 0.950 . S
C82 C81 1.388 . S
C82 C83 1.386 . S
C83 C82 1.386 . S
C83 C84 1.382 . S
C83 H105 0.950 . S
C84 N80 1.332 . S
C84 C83 1.382 . S
C84 H86 0.952 . S
C85 N80 1.332 . S
C85 C81 1.382 . S
C85 H87 0.948 . S
H86 C84 0.952 . S
H87 C85 0.948 . S
H88 C77 0.952 . S
H89 C79 0.948 . S
C90 C56 1.395 . S
C90 C60 1.391 . S
C91 C53 1.389 1_545 S
C91 C73 1.392 . S
C92 C63 1.392 . S
C92 C65 1.389 . S
C93 C68 1.395 1_545 S
C93 C70 1.391 . S
H94 C54 0.951 . S
H95 C55 0.950 . S
H96 C61 0.949 . S
H97 C62 0.950 . S
H98 C66 0.951 . S
H99 C67 0.950 . S
H100 C71 0.949 . S
H101 C72 0.950 . S
H102 C76 0.950 . S
H103 C78 0.950 . S
H104 C81 0.950 . S
H105 C83 0.950 . S
C106 C107 1.443 . S
C106 N110 1.376 . S
C106 C144 1.389 . S
C107 C106 1.443 . S
C107 C108 1.340 . S
C107 H147 0.951 . S
C108 C107 1.340 . S
C108 C109 1.439 . S
C108 H148 0.950 . S
C109 C108 1.439 . S
C109 N110 1.374 . S
C109 C143 1.395 . S
N110 C106 1.376 . S
N110 C109 1.374 . S
N110 Co111 2.008 . S
Co111 N110 2.008 . S
Co111 N112 1.995 . S
Co111 N117 2.008 1_655 S
Co111 N122 1.995 . S
Co111 N127 2.282 . S
Co111 N133 2.282 1_655 S
N112 Co111 1.995 . S
N112 C113 1.376 . S
N112 C116 1.383 1_655 S
C113 N112 1.376 . S
C113 C114 1.446 . S
C113 C143 1.391 . S
C114 C113 1.446 . S
C114 C115 1.339 1_655 S
C114 H149 0.949 . S
C115 C114 1.339 1_455 S
C115 C116 1.439 . S
C115 H150 0.950 . S
C116 N112 1.383 1_455 S
C116 C115 1.439 . S
C116 C145 1.392 . S
N117 Co111 2.008 1_455 S
N117 C118 1.376 . S
N117 C121 1.374 . S
C118 N117 1.376 . S
C118 C119 1.443 . S
C118 C145 1.389 . S
C119 C118 1.443 . S
C119 C120 1.340 . S
C119 H151 0.951 . S
C120 C119 1.340 . S
C120 C121 1.439 . S
C120 H152 0.950 . S
C121 N117 1.374 . S
C121 C120 1.439 . S
C121 C146 1.395 . S
N122 Co111 1.995 . S
N122 C123 1.376 1_655 S
N122 C126 1.383 . S
C123 N122 1.376 1_455 S
C123 C124 1.446 . S
C123 C146 1.391 . S
C124 C123 1.446 . S
C124 C125 1.339 1_455 S
C124 H153 0.949 . S
C125 C124 1.339 1_655 S
C125 C126 1.439 . S
C125 H154 0.950 . S
C126 N122 1.383 . S
C126 C125 1.439 . S
C126 C144 1.392 . S
N127 Co111 2.282 . S
N127 C130 1.332 . S
N127 C132 1.332 . S
C128 C129 1.386 . S
C128 C131 1.388 . S
C129 C128 1.386 . S
C129 C130 1.382 . S
C129 H155 0.950 . S
C130 N127 1.332 . S
C130 C129 1.382 . S
C130 H141 0.952 . S
C131 C128 1.388 . S
C131 C132 1.382 . S
C131 H156 0.950 . S
C132 N127 1.332 . S
C132 C131 1.382 . S
C132 H142 0.948 . S
N133 Co111 2.282 1_455 S
N133 C137 1.332 . S
N133 C138 1.332 . S
C134 C135 1.388 . S
C134 C138 1.382 . S
C134 H157 0.950 . S
C135 C134 1.388 . S
C135 C136 1.386 . S
C136 C135 1.386 . S
C136 C137 1.382 . S
C136 H158 0.950 . S
C137 N133 1.332 . S
C137 C136 1.382 . S
C137 H139 0.952 1_455 S
C138 N133 1.332 . S
C138 C134 1.382 . S
C138 H140 0.948 . S
H139 C137 0.952 1_655 S
H140 C138 0.948 . S
H141 C130 0.952 . S
H142 C132 0.948 . S
C143 C109 1.395 . S
C143 C113 1.391 . S
C144 C106 1.389 . S
C144 C126 1.392 . S
C145 C116 1.392 . S
C145 C118 1.389 . S
C146 C121 1.395 . S
C146 C123 1.391 . S
H147 C107 0.951 . S
H148 C108 0.950 . S
H149 C114 0.949 . S
H150 C115 0.950 . S
H151 C119 0.951 . S
H152 C120 0.950 . S
H153 C124 0.949 . S
H154 C125 0.950 . S
H155 C129 0.950 . S
H156 C131 0.950 . S
H157 C134 0.950 . S
H158 C136 0.950 . S
C159 C160 1.443 . S
C159 N163 1.376 . S
C159 C197 1.389 1_545 S
C160 C159 1.443 . S
C160 C161 1.340 . S
C160 H200 0.951 . S
C161 C160 1.340 . S
C161 C162 1.439 . S
C161 H201 0.950 . S
C162 C161 1.439 . S
C162 N163 1.374 . S
C162 C196 1.395 . S
N163 C159 1.376 . S
N163 C162 1.374 . S
N163 Co164 2.008 . S
Co164 N163 2.008 . S
Co164 N165 1.995 . S
Co164 N170 2.008 . S
Co164 N175 1.995 . S
Co164 N180 2.282 . S
Co164 N186 2.282 . S
N165 Co164 1.995 . S
N165 C166 1.376 . S
N165 C169 1.383 . S
C166 N165 1.376 . S
C166 C167 1.446 . S
C166 C196 1.391 . S
C167 C166 1.446 . S
C167 C168 1.339 . S
C167 H202 0.949 . S
C168 C167 1.339 . S
C168 C169 1.439 . S
C168 H203 0.950 . S
C169 N165 1.383 . S
C169 C168 1.439 . S
C169 C198 1.392 . S
N170 Co164 2.008 . S
N170 C171 1.376 . S
N170 C174 1.374 . S
C171 N170 1.376 . S
C171 C172 1.443 . S
C171 C198 1.389 . S
C172 C171 1.443 . S
C172 C173 1.340 . S
C172 H204 0.951 . S
C173 C172 1.340 . S
C173 C174 1.439 . S
C173 H205 0.950 . S
C174 N170 1.374 . S
C174 C173 1.439 . S
C174 C199 1.395 1_545 S
N175 Co164 1.995 . S
N175 C176 1.376 1_545 S
N175 C179 1.383 1_545 S
C176 N175 1.376 1_565 S
C176 C177 1.446 . S
C176 C199 1.391 . S
C177 C176 1.446 . S
C177 C178 1.339 . S
C177 H206 0.949 . S
C178 C177 1.339 . S
C178 C179 1.439 . S
C178 H207 0.950 . S
C179 N175 1.383 1_565 S
C179 C178 1.439 . S
C179 C197 1.392 . S
N180 Co164 2.282 . S
N180 C183 1.332 1_545 S
N180 C185 1.332 . S
C181 C182 1.386 . S
C181 C184 1.388 1_565 S
C182 C181 1.386 . S
C182 C183 1.382 . S
C182 H208 0.950 . S
C183 N180 1.332 1_565 S
C183 C182 1.382 . S
C183 H194 0.952 . S
C184 C181 1.388 1_545 S
C184 C185 1.382 . S
C184 H209 0.950 . S
C185 N180 1.332 . S
C185 C184 1.382 . S
C185 H195 0.948 . S
N186 Co164 2.282 . S
N186 C190 1.332 . S
N186 C191 1.332 . S
C187 C188 1.388 . S
C187 C191 1.382 . S
C187 H210 0.950 . S
C188 C187 1.388 . S
C188 C189 1.386 . S
C189 C188 1.386 . S
C189 C190 1.382 . S
C189 H211 0.950 . S
C190 N186 1.332 . S
C190 C189 1.382 . S
C190 H192 0.952 . S
C191 N186 1.332 . S
C191 C187 1.382 . S
C191 H193 0.948 . S
H192 C190 0.952 . S
H193 C191 0.948 . S
H194 C183 0.952 . S
H195 C185 0.948 . S
C196 C162 1.395 . S
C196 C166 1.391 . S
C197 C159 1.389 1_565 S
C197 C179 1.392 . S
C198 C169 1.392 . S
C198 C171 1.389 . S
C199 C174 1.395 1_565 S
C199 C176 1.391 . S
H200 C160 0.951 . S
H201 C161 0.950 . S
H202 C167 0.949 . S
H203 C168 0.950 . S
H204 C172 0.951 . S
H205 C173 0.950 . S
H206 C177 0.949 . S
H207 C178 0.950 . S
H208 C182 0.950 . S
H209 C184 0.950 . S
H210 C187 0.950 . S
H211 C189 0.950 . S
C212 C213 1.443 1_556 S
C212 N216 1.376 . S
C212 C250 1.389 . S
C213 C212 1.443 1_554 S
C213 C214 1.340 . S
C213 H253 0.951 . S
C214 C213 1.340 . S
C214 C215 1.439 . S
C214 H254 0.950 . S
C215 C214 1.439 . S
C215 N216 1.374 1_554 S
C215 C249 1.395 . S
N216 C212 1.376 . S
N216 C215 1.374 1_556 S
N216 Co217 2.008 . S
Co217 N216 2.008 . S
Co217 N218 1.995 . S
Co217 N223 2.008 . S
Co217 N228 1.995 . S
Co217 N233 2.282 . S
Co217 N239 2.282 . S
N218 Co217 1.995 . S
N218 C219 1.376 1_556 S
N218 C222 1.383 . S
C219 N218 1.376 1_554 S
C219 C220 1.446 . S
C219 C249 1.391 . S
C220 C219 1.446 . S
C220 C221 1.339 1_554 S
C220 H255 0.949 . S
C221 C220 1.339 1_556 S
C221 C222 1.439 . S
C221 H256 0.950 1_565 S
C222 N218 1.383 . S
C222 C221 1.439 . S
C222 C251 1.392 . S
N223 Co217 2.008 . S
N223 C224 1.376 . S
N223 C227 1.374 . S
C224 N223 1.376 . S
C224 C225 1.443 . S
C224 C251 1.389 . S
C225 C224 1.443 . S
C225 C226 1.340 . S
C225 H257 0.951 . S
C226 C225 1.340 . S
C226 C227 1.439 . S
C226 H258 0.950 . S
C227 N223 1.374 . S
C227 C226 1.439 . S
C227 C252 1.395 . S
N228 Co217 1.995 . S
N228 C229 1.376 . S
N228 C232 1.383 . S
C229 N228 1.376 . S
C229 C230 1.446 . S
C229 C252 1.391 . S
C230 C229 1.446 . S
C230 C231 1.339 . S
C230 H259 0.949 . S
C231 C230 1.339 . S
C231 C232 1.439 . S
C231 H260 0.950 . S
C232 N228 1.383 . S
C232 C231 1.439 . S
C232 C250 1.392 . S
N233 Co217 2.282 . S
N233 C236 1.332 . S
N233 C238 1.332 . S
C234 C235 1.386 . S
C234 C237 1.388 . S
C235 C234 1.386 . S
C235 C236 1.382 . S
C235 H261 0.950 . S
C236 N233 1.332 . S
C236 C235 1.382 . S
C236 H247 0.952 . S
C237 C234 1.388 . S
C237 C238 1.382 . S
C237 H262 0.950 . S
C238 N233 1.332 . S
C238 C237 1.382 . S
C238 H248 0.948 . S
N239 Co217 2.282 . S
N239 C243 1.332 1_556 S
N239 C244 1.332 . S
C240 C241 1.388 . S
C240 C244 1.382 1_554 S
C240 H263 0.950 . S
C241 C240 1.388 . S
C241 C242 1.386 . S
C242 C241 1.386 . S
C242 C243 1.382 . S
C242 H264 0.950 . S
C243 N239 1.332 1_554 S
C243 C242 1.382 . S
C243 H245 0.952 . S
C244 N239 1.332 . S
C244 C240 1.382 1_556 S
C244 H246 0.948 . S
H245 C243 0.952 . S
H246 C244 0.948 . S
H247 C236 0.952 . S
H248 C238 0.948 . S
C249 C215 1.395 . S
C249 C219 1.391 . S
C250 C212 1.389 . S
C250 C232 1.392 . S
C251 C222 1.392 . S
C251 C224 1.389 . S
C252 C227 1.395 . S
C252 C229 1.391 . S
H253 C213 0.951 . S
H254 C214 0.950 . S
H255 C220 0.949 . S
H256 C221 0.950 1_545 S
H257 C225 0.951 . S
H258 C226 0.950 . S
H259 C230 0.949 . S
H260 C231 0.950 . S
H261 C235 0.950 . S
H262 C237 0.950 . S
H263 C240 0.950 . S
H264 C242 0.950 . S
C265 C266 1.443 . S
C265 N269 1.376 . S
C265 C303 1.389 . S
C266 C265 1.443 . S
C266 C267 1.340 . S
C266 H306 0.951 . S
C267 C266 1.340 . S
C267 C268 1.439 . S
C267 H307 0.950 . S
C268 C267 1.439 . S
C268 N269 1.374 . S
C268 C302 1.395 . S
N269 C265 1.376 . S
N269 C268 1.374 . S
N269 Co270 2.008 . S
Co270 N269 2.008 . S
Co270 N271 1.995 . S
Co270 N276 2.008 . S
Co270 N281 1.995 . S
Co270 N286 2.282 . S
Co270 N292 2.282 . S
N271 Co270 1.995 . S
N271 C272 1.376 . S
N271 C275 1.383 . S
C272 N271 1.376 . S
C272 C273 1.446 . S
C272 C302 1.391 . S
C273 C272 1.446 . S
C273 C274 1.339 . S
C273 H308 0.949 . S
C274 C273 1.339 . S
C274 C275 1.439 . S
C274 H309 0.950 . S
C275 N271 1.383 . S
C275 C274 1.439 . S
C275 C304 1.392 . S
N276 Co270 2.008 . S
N276 C277 1.376 . S
N276 C280 1.374 . S
C277 N276 1.376 . S
C277 C278 1.443 1_655 S
C277 C304 1.389 . S
C278 C277 1.443 1_455 S
C278 C279 1.340 1_455 S
C278 H310 0.951 . S
C279 C278 1.340 1_655 S
C279 C280 1.439 . S
C279 H311 0.950 1_655 S
C280 N276 1.374 . S
C280 C279 1.439 . S
C280 C305 1.395 . S
N281 Co270 1.995 . S
N281 C282 1.376 . S
N281 C285 1.383 . S
C282 N281 1.376 . S
C282 C283 1.446 1_554 S
C282 C305 1.391 . S
C283 C282 1.446 1_556 S
C283 C284 1.339 1_556 S
C283 H312 0.949 . S
C284 C283 1.339 1_554 S
C284 C285 1.439 . S
C284 H313 0.950 1_554 S
C285 N281 1.383 . S
C285 C284 1.439 . S
C285 C303 1.392 . S
N286 Co270 2.282 . S
N286 C289 1.332 . S
N286 C291 1.332 . S
C287 C288 1.386 . S
C287 C290 1.388 . S
C288 C287 1.386 . S
C288 C289 1.382 . S
C288 H314 0.950 . S
C289 N286 1.332 . S
C289 C288 1.382 . S
C289 H300 0.952 . S
C290 C287 1.388 . S
C290 C291 1.382 . S
C290 H315 0.950 . S
C291 N286 1.332 . S
C291 C290 1.382 . S
C291 H301 0.948 . S
N292 Co270 2.282 . S
N292 C296 1.332 . S
N292 C297 1.332 1_554 S
C293 C294 1.388 . S
C293 C297 1.382 . S
C293 H316 0.950 . S
C294 C293 1.388 . S
C294 C295 1.386 1_556 S
C295 C294 1.386 1_554 S
C295 C296 1.382 . S
C295 H317 0.950 . S
C296 N292 1.332 . S
C296 C295 1.382 . S
C296 H298 0.952 . S
C297 N292 1.332 1_556 S
C297 C293 1.382 . S
C297 H299 0.948 . S
H298 C296 0.952 . S
H299 C297 0.948 . S
H300 C289 0.952 . S
H301 C291 0.948 . S
C302 C268 1.395 . S
C302 C272 1.391 . S
C303 C265 1.389 . S
C303 C285 1.392 . S
C304 C275 1.392 . S
C304 C277 1.389 . S
C305 C280 1.395 . S
C305 C282 1.391 . S
H306 C266 0.951 . S
H307 C267 0.950 . S
H308 C273 0.949 . S
H309 C274 0.950 . S
H310 C278 0.951 . S
H311 C279 0.950 1_455 S
H312 C283 0.949 . S
H313 C284 0.950 1_556 S
H314 C288 0.950 . S
H315 C290 0.950 . S
H316 C293 0.950 . S
H317 C295 0.950 . S
C318 C319 1.443 1_556 S
C318 N322 1.376 . S
C318 C356 1.389 . S
C319 C318 1.443 1_554 S
C319 C320 1.340 . S
C319 H359 0.951 . S
C320 C319 1.340 . S
C320 C321 1.439 . S
C320 H360 0.950 . S
C321 C320 1.439 . S
C321 N322 1.374 1_554 S
C321 C355 1.395 . S
N322 C318 1.376 . S
N322 C321 1.374 1_556 S
N322 Co323 2.008 . S
Co323 N322 2.008 . S
Co323 N324 1.995 . S
Co323 N329 2.008 . S
Co323 N334 1.995 . S
Co323 N339 2.282 . S
Co323 N345 2.282 . S
N324 Co323 1.995 . S
N324 C325 1.376 1_556 S
N324 C328 1.383 . S
C325 N324 1.376 1_554 S
C325 C326 1.446 . S
C325 C355 1.391 . S
C326 C325 1.446 . S
C326 C327 1.339 1_554 S
C326 H361 0.949 . S
C327 C326 1.339 1_556 S
C327 C328 1.439 . S
C327 H362 0.950 1_545 S
C328 N324 1.383 . S
C328 C327 1.439 . S
C328 C357 1.392 . S
N329 Co323 2.008 . S
N329 C330 1.376 . S
N329 C333 1.374 . S
C330 N329 1.376 . S
C330 C331 1.443 . S
C330 C357 1.389 . S
C331 C330 1.443 . S
C331 C332 1.340 . S
C331 H363 0.951 . S
C332 C331 1.340 . S
C332 C333 1.439 . S
C332 H364 0.950 . S
C333 N329 1.374 . S
C333 C332 1.439 . S
C333 C358 1.395 . S
N334 Co323 1.995 . S
N334 C335 1.376 . S
N334 C338 1.383 . S
C335 N334 1.376 . S
C335 C336 1.446 . S
C335 C358 1.391 . S
C336 C335 1.446 . S
C336 C337 1.339 . S
C336 H365 0.949 . S
C337 C336 1.339 . S
C337 C338 1.439 . S
C337 H366 0.950 . S
C338 N334 1.383 . S
C338 C337 1.439 . S
C338 C356 1.392 . S
N339 Co323 2.282 . S
N339 C342 1.332 . S
N339 C344 1.332 . S
C340 C341 1.386 . S
C340 C343 1.388 . S
C341 C340 1.386 . S
C341 C342 1.382 . S
C341 H367 0.950 . S
C342 N339 1.332 . S
C342 C341 1.382 . S
C342 H353 0.952 . S
C343 C340 1.388 . S
C343 C344 1.382 . S
C343 H368 0.950 . S
C344 N339 1.332 . S
C344 C343 1.382 . S
C344 H354 0.948 . S
N345 Co323 2.282 . S
N345 C349 1.332 1_556 S
N345 C350 1.332 . S
C346 C347 1.388 . S
C346 C350 1.382 1_554 S
C346 H369 0.950 . S
C347 C346 1.388 . S
C347 C348 1.386 . S
C348 C347 1.386 . S
C348 C349 1.382 . S
C348 H370 0.950 . S
C349 N345 1.332 1_554 S
C349 C348 1.382 . S
C349 H351 0.952 . S
C350 N345 1.332 . S
C350 C346 1.382 1_556 S
C350 H352 0.948 . S
H351 C349 0.952 . S
H352 C350 0.948 . S
H353 C342 0.952 . S
H354 C344 0.948 . S
C355 C321 1.395 . S
C355 C325 1.391 . S
C356 C318 1.389 . S
C356 C338 1.392 . S
C357 C328 1.392 . S
C357 C330 1.389 . S
C358 C333 1.395 . S
C358 C335 1.391 . S
H359 C319 0.951 . S
H360 C320 0.950 . S
H361 C326 0.949 . S
H362 C327 0.950 1_565 S
H363 C331 0.951 . S
H364 C332 0.950 . S
H365 C336 0.949 . S
H366 C337 0.950 . S
H367 C341 0.950 . S
H368 C343 0.950 . S
H369 C346 0.950 . S
H370 C348 0.950 . S
C371 C372 1.443 . S
C371 N375 1.376 . S
C371 C409 1.389 . S
C372 C371 1.443 . S
C372 C373 1.340 . S
C372 H412 0.951 . S
C373 C372 1.340 . S
C373 C374 1.439 . S
C373 H413 0.950 . S
C374 C373 1.439 . S
C374 N375 1.374 . S
C374 C408 1.395 . S
N375 C371 1.376 . S
N375 C374 1.374 . S
N375 Co376 2.008 . S
Co376 N375 2.008 . S
Co376 N377 1.995 . S
Co376 N382 2.008 . S
Co376 N387 1.995 . S
Co376 N392 2.282 . S
Co376 N398 2.282 . S
N377 Co376 1.995 . S
N377 C378 1.376 . S
N377 C381 1.383 . S
C378 N377 1.376 . S
C378 C379 1.446 . S
C378 C408 1.391 . S
C379 C378 1.446 . S
C379 C380 1.339 . S
C379 H414 0.949 . S
C380 C379 1.339 . S
C380 C381 1.439 . S
C380 H415 0.950 . S
C381 N377 1.383 . S
C381 C380 1.439 . S
C381 C410 1.392 . S
N382 Co376 2.008 . S
N382 C383 1.376 . S
N382 C386 1.374 . S
C383 N382 1.376 . S
C383 C384 1.443 1_455 S
C383 C410 1.389 . S
C384 C383 1.443 1_655 S
C384 C385 1.340 1_655 S
C384 H416 0.951 . S
C385 C384 1.340 1_455 S
C385 C386 1.439 . S
C385 H417 0.950 1_455 S
C386 N382 1.374 . S
C386 C385 1.439 . S
C386 C411 1.395 . S
N387 Co376 1.995 . S
N387 C388 1.376 . S
N387 C391 1.383 . S
C388 N387 1.376 . S
C388 C389 1.446 1_554 S
C388 C411 1.391 . S
C389 C388 1.446 1_556 S
C389 C390 1.339 1_556 S
C389 H418 0.949 . S
C390 C389 1.339 1_554 S
C390 C391 1.439 . S
C390 H419 0.950 1_554 S
C391 N387 1.383 . S
C391 C390 1.439 . S
C391 C409 1.392 . S
N392 Co376 2.282 . S
N392 C395 1.332 . S
N392 C397 1.332 . S
C393 C394 1.386 . S
C393 C396 1.388 . S
C394 C393 1.386 . S
C394 C395 1.382 . S
C394 H420 0.950 . S
C395 N392 1.332 . S
C395 C394 1.382 . S
C395 H406 0.952 . S
C396 C393 1.388 . S
C396 C397 1.382 . S
C396 H421 0.950 . S
C397 N392 1.332 . S
C397 C396 1.382 . S
C397 H407 0.948 . S
N398 Co376 2.282 . S
N398 C402 1.332 . S
N398 C403 1.332 1_554 S
C399 C400 1.388 . S
C399 C403 1.382 . S
C399 H422 0.950 . S
C400 C399 1.388 . S
C400 C401 1.386 1_556 S
C401 C400 1.386 1_554 S
C401 C402 1.382 . S
C401 H423 0.950 . S
C402 N398 1.332 . S
C402 C401 1.382 . S
C402 H404 0.952 . S
C403 N398 1.332 1_556 S
C403 C399 1.382 . S
C403 H405 0.948 . S
H404 C402 0.952 . S
H405 C403 0.948 . S
H406 C395 0.952 . S
H407 C397 0.948 . S
C408 C374 1.395 . S
C408 C378 1.391 . S
C409 C371 1.389 . S
C409 C391 1.392 . S
C410 C381 1.392 . S
C410 C383 1.389 . S
C411 C386 1.395 . S
C411 C388 1.391 . S
H412 C372 0.951 . S
H413 C373 0.950 . S
H414 C379 0.949 . S
H415 C380 0.950 . S
H416 C384 0.951 . S
H417 C385 0.950 1_655 S
H418 C389 0.949 . S
H419 C390 0.950 1_556 S
H420 C394 0.950 . S
H421 C396 0.950 . S
H422 C399 0.950 . S
H423 C401 0.950 . S
C393 C38 2.751 . S
C82 C234 3.801 . S
C144 C287 2.751 . S
C340 C188 3.801 . S
C75 C22 2.484 . S
C92 C145 2.014 . S
C181 C128 2.484 . S
C198 C39 2.014 . S
C400 C250 2.327 . S
C303 C241 2.801 . S
C294 C356 2.327 . S
C347 C409 2.801 . S
C135 C29 3.323 1_455 S
C197 C91 2.600 1_565 S
C357 C251 3.940 1_545 S
C410 C304 2.493 1_455 S
