# Generated by pormake.
# Topology smu, (6)-cn, num edge types: 1
# Building blocks:
#     Node 0, Type 0, BuildingBlock: BETDEL_clean_sbu_0, # of connection points: 6
#     Node 1, Type 0, BuildingBlock: BETDEL_clean_sbu_0, # of connection points: 6
#     Node 2, Type 0, BuildingBlock: BETDEL_clean_sbu_0, # of connection points: 6
#     Node 3, Type 0, BuildingBlock: BETDEL_clean_sbu_0, # of connection points: 6
#     Node 4, Type 0, BuildingBlock: BETDEL_clean_sbu_0, # of connection points: 6
#     Node 5, Type 0, BuildingBlock: BETDEL_clean_sbu_0, # of connection points: 6
#     Edge 6, Type (0, 0), BuildingBlock: XIVTED_clean_linker_0, # of connection points: 2
#     Edge 7, Type (0, 0), BuildingBlock: XIVTED_clean_linker_0, # of connection points: 2
#     Edge 8, Type (0, 0), BuildingBlock: XIVTED_clean_linker_0, # of connection points: 2
#     Edge 9, Type (0, 0), BuildingBlock: XIVTED_clean_linker_0, # of connection points: 2
#     Edge 10, Type (0, 0), BuildingBlock: XIVTED_clean_linker_0, # of connection points: 2
#     Edge 11, Type (0, 0), BuildingBlock: XIVTED_clean_linker_0, # of connection points: 2
#     Edge 12, Type (0, 0), BuildingBlock: XIVTED_clean_linker_0, # of connection points: 2
#     Edge 13, Type (0, 0), BuildingBlock: XIVTED_clean_linker_0, # of connection points: 2
#     Edge 14, Type (0, 0), BuildingBlock: XIVTED_clean_linker_0, # of connection points: 2
#     Edge 15, Type (0, 0), BuildingBlock: XIVTED_clean_linker_0, # of connection points: 2
#     Edge 16, Type (0, 0), BuildingBlock: XIVTED_clean_linker_0, # of connection points: 2
#     Edge 17, Type (0, 0), BuildingBlock: XIVTED_clean_linker_0, # of connection points: 2
#     Edge 18, Type (0, 0), BuildingBlock: XIVTED_clean_linker_0, # of connection points: 2
#     Edge 19, Type (0, 0), BuildingBlock: XIVTED_clean_linker_0, # of connection points: 2
#     Edge 20, Type (0, 0), BuildingBlock: XIVTED_clean_linker_0, # of connection points: 2
#     Edge 21, Type (0, 0), BuildingBlock: XIVTED_clean_linker_0, # of connection points: 2
#     Edge 22, Type (0, 0), BuildingBlock: XIVTED_clean_linker_0, # of connection points: 2
#     Edge 23, Type (0, 0), BuildingBlock: XIVTED_clean_linker_0, # of connection points: 2
# Relax obj value: 0.190
# Max RMSD: 0.265
# Mean RMSD: 0.265
data_MOF--net-smu--node1-BETDEL_clean_sbu_0--edge1-XIVTED_clean_linker_0
_symmetry_space_group_name_H-M    P1
_symmetry_Int_Tables_number       1
_symmetry_cell_setting            triclinic
loop_
_symmetry_equiv_pos_as_xyz
'x, y, z'
_cell_length_a     32.05686
_cell_length_b     32.104377
_cell_length_c     26.676347
_cell_angle_alpha  89.85608
_cell_angle_beta   90.265534
_cell_angle_gamma 120.12338
loop_
_atom_site_label
_atom_site_type_symbol
_atom_site_fract_x
_atom_site_fract_y
_atom_site_fract_z
_atom_type_partial_charge
Dy0 Dy 0.367 0.08582 0.29007 0.0
C1 C 0.23509 0.15746 0.30571 0.0
C2 C 0.44334 0.07215 0.26959 0.0
Dy3 Dy 0.28924 0.11431 0.29498 0.0
O4 O 0.4158 0.05577 0.30886 0.0
O5 O 0.42625 0.0921 0.23991 0.0
O6 O 0.3893 0.11362 0.36948 0.0
O7 O 0.31875 0.08494 0.34841 0.0
C8 C 0.34675 0.10304 0.38499 0.0
C9 C 0.29114 0.07551 0.20749 0.0
O10 O 0.35629 0.18463 0.3074 0.0
O11 O 0.40991 0.165 0.27354 0.0
O12 O 0.25998 0.16018 0.26644 0.0
O13 O 0.23874 0.12999 0.33947 0.0
O14 O 0.2531 0.07389 0.22622 0.0
O15 O 0.32844 0.10351 0.23332 0.0
O16 O 0.29898 0.01271 0.28442 0.0
O17 O 0.24714 0.03728 0.31765 0.0
C18 C 0.39896 0.19739 0.2888 0.0
C19 C 0.25653 0.00313 0.30334 0.0
Dy20 Dy 0.71671 0.63163 0.28165 0.0
C21 C 0.91652 0.76471 0.30107 0.0
C22 C 0.63204 0.55063 0.25475 0.0
Dy23 Dy 0.81936 0.70968 0.28963 0.0
O24 O 0.63732 0.57907 0.29163 0.0
O25 O 0.67249 0.56808 0.23083 0.0
O26 O 0.69918 0.63871 0.36013 0.0
O27 O 0.7704 0.6556 0.34336 0.0
C28 C 0.74292 0.65726 0.37669 0.0
C29 C 0.77718 0.7153 0.20488 0.0
O30 O 0.83112 0.6476 0.2799 0.0
O31 O 0.75194 0.58588 0.28098 0.0
O32 O 0.89444 0.74191 0.26065 0.0
O33 O 0.88537 0.75866 0.33568 0.0
O34 O 0.81089 0.75208 0.22857 0.0
O35 O 0.76997 0.67636 0.22506 0.0
O36 O 0.71035 0.6988 0.27881 0.0
O37 O 0.78188 0.74527 0.32234 0.0
C38 C 0.79873 0.60144 0.27842 0.0
C39 C 0.73958 0.73752 0.30594 0.0
Dy40 Dy 0.91272 0.28338 0.28828 0.0
C41 C 0.84494 0.07867 0.30918 0.0
C42 C 0.91484 0.36454 0.25246 0.0
Dy43 Dy 0.88825 0.17593 0.30029 0.0
O44 O 0.94485 0.36426 0.28537 0.0
O45 O 0.88653 0.32094 0.23681 0.0
O46 O 0.91501 0.30148 0.37049 0.0
O47 O 0.89601 0.23295 0.34918 0.0
C48 C 0.90582 0.25971 0.38727 0.0
C49 C 0.93266 0.2183 0.21404 0.0
O50 O 0.81454 0.16683 0.30343 0.0
O51 O 0.83144 0.24408 0.28357 0.0
O52 O 0.84173 0.10169 0.27072 0.0
O53 O 0.87314 0.10901 0.34337 0.0
O54 O 0.9356 0.1838 0.23606 0.0
O55 O 0.90176 0.22543 0.2364 0.0
O56 O 0.98608 0.28848 0.28885 0.0
O57 O 0.96213 0.21608 0.33171 0.0
C58 C 0.80048 0.19805 0.29269 0.0
C59 C 0.99596 0.25892 0.31528 0.0
Dy60 Dy 0.05049 0.29756 0.79328 0.0
C61 C 0.25225 0.43491 0.79432 0.0
C62 C 0.96002 0.22508 0.76987 0.0
Dy63 Dy 0.15536 0.36906 0.7878 0.0
O64 O 0.9716 0.25009 0.81129 0.0
O65 O 0.99701 0.24283 0.74025 0.0
O66 O 0.06168 0.26798 0.86406 0.0
O67 O 0.10313 0.34187 0.85186 0.0
C68 C 0.09358 0.30857 0.88345 0.0
C69 C 0.1065 0.33491 0.69901 0.0
O70 O 0.15841 0.30434 0.8076 0.0
O71 O 0.08641 0.25498 0.76918 0.0
O72 O 0.22348 0.43382 0.75916 0.0
O73 O 0.22772 0.40106 0.82658 0.0
O74 O 0.14897 0.34037 0.70677 0.0
O75 O 0.09444 0.3478 0.73752 0.0
O76 O 0.04687 0.36672 0.79803 0.0
O77 O 0.12978 0.41929 0.80831 0.0
C78 C 0.12821 0.26278 0.78744 0.0
C79 C 0.08479 0.41059 0.80672 0.0
Dy80 Dy 0.25755 0.95713 0.78697 0.0
C81 C 0.18716 0.75652 0.79337 0.0
C82 C 0.26408 0.04334 0.76425 0.0
Dy83 Dy 0.21985 0.85369 0.78687 0.0
O84 O 0.28018 0.03407 0.80506 0.0
O85 O 0.24721 0.00637 0.73465 0.0
O86 O 0.2938 0.96828 0.8593 0.0
O87 O 0.22652 0.90403 0.84879 0.0
C88 C 0.26216 0.92754 0.87882 0.0
C89 C 0.23427 0.89802 0.69531 0.0
O90 O 0.1557 0.85148 0.81819 0.0
O91 O 0.17557 0.92294 0.78069 0.0
O92 O 0.17278 0.77687 0.76107 0.0
O93 O 0.22047 0.78945 0.82166 0.0
O94 O 0.19532 0.85813 0.70606 0.0
O95 O 0.26088 0.9106 0.73264 0.0
O96 O 0.32695 0.95739 0.77142 0.0
O97 O 0.29778 0.87955 0.80093 0.0
C98 C 0.14303 0.88183 0.80141 0.0
C99 C 0.33404 0.92215 0.7877 0.0
Dy100 Dy 0.71285 0.75646 0.78714 0.0
C101 C 0.57107 0.81359 0.78036 0.0
C102 C 0.78731 0.74012 0.77164 0.0
Dy103 Dy 0.63833 0.78559 0.77469 0.0
O104 O 0.75987 0.72631 0.81127 0.0
O105 O 0.77131 0.75924 0.73952 0.0
O106 O 0.73625 0.79651 0.85895 0.0
O107 O 0.66315 0.76092 0.84073 0.0
C108 C 0.69375 0.78574 0.87427 0.0
C109 C 0.67969 0.77589 0.68976 0.0
O110 O 0.70052 0.85465 0.79742 0.0
O111 O 0.75501 0.83586 0.76527 0.0
O112 O 0.57584 0.7908 0.74259 0.0
O113 O 0.60179 0.81944 0.81529 0.0
O114 O 0.67052 0.81068 0.69553 0.0
O115 O 0.66571 0.75001 0.72768 0.0
O116 O 0.64495 0.68211 0.78748 0.0
O117 O 0.58827 0.70789 0.78774 0.0
C118 C 0.74403 0.86811 0.78165 0.0
C119 C 0.59951 0.67345 0.78932 0.0
H120 H 0.33605 0.94843 0.94141 0.0
H121 H 0.20885 0.00822 0.16367 0.0
H122 H 0.18621 0.90865 0.94093 0.0
H123 H 0.36318 0.07126 0.15295 0.0
H124 H 0.19853 0.95877 0.09092 0.0
H125 H 0.34379 0.97768 1.02748 0.0
C126 C 0.30421 0.94402 0.9603 0.0
C127 C 0.26033 0.92585 0.93412 0.0
C128 C 0.23471 0.98316 0.10436 0.0
C129 C 0.26939 0.96091 1.0321 0.0
C130 C 0.24082 0.01175 0.14598 0.0
C131 C 0.28715 0.04471 0.16416 0.0
C132 C 0.27518 0.98721 0.08005 0.0
C133 C 0.32689 0.04676 0.13998 0.0
C134 C 0.3089 0.96146 1.00915 0.0
C135 C 0.22048 0.92174 0.95991 0.0
N136 N 0.32001 0.01864 0.09882 0.0
N137 N 0.22616 0.93988 1.00724 0.0
H138 H 0.68431 0.69515 0.67852 0.0
H139 H 0.80888 0.74943 0.40985 0.0
H140 H 0.72116 0.82751 0.6014 0.0
H141 H 0.70075 0.60878 0.46088 0.0
H142 H 0.80002 0.78413 0.48857 0.0
H143 H 0.7134 0.66988 0.6078 0.0
C144 C 0.69878 0.71921 0.64668 0.0
C145 C 0.69972 0.76345 0.64583 0.0
C146 C 0.77914 0.74557 0.48277 0.0
C147 C 0.73368 0.73424 0.56406 0.0
C148 C 0.78447 0.72558 0.43807 0.0
C149 C 0.75503 0.67604 0.42849 0.0
C150 C 0.74537 0.71541 0.51854 0.0
C151 C 0.72434 0.64705 0.46677 0.0
C152 C 0.71549 0.7046 0.60627 0.0
C153 C 0.71931 0.79295 0.60342 0.0
N154 N 0.72016 0.6671 0.50983 0.0
N155 N 0.73541 0.7777 0.5639 0.0
H156 H 0.92689 0.28247 0.14667 0.0
H157 H 0.11456 0.26732 0.96084 0.0
H158 H 0.00816 0.21194 0.18009 0.0
H159 H 0.05275 0.35639 0.92797 0.0
H160 H 0.08135 0.25432 0.04539 0.0
H161 H 0.97577 0.31619 0.06987 0.0
C162 C 0.95514 0.27446 0.1382 0.0
C163 C 0.9629 0.24375 0.16957 0.0
C164 C 0.07576 0.27764 1.02029 0.0
C165 C 0.01889 0.28211 0.08232 0.0
C166 C 0.09541 0.28557 0.97215 0.0
C167 C 0.08735 0.31376 0.9377 0.0
C168 C 0.04638 0.29684 1.03398 0.0
C169 C 0.06077 0.33528 0.95384 0.0
C170 C 0.98306 0.29369 0.09445 0.0
C171 C 1.00019 0.23477 0.15683 0.0
N172 N 0.04054 0.32575 1.00049 0.0
N173 N 0.02629 0.25346 0.11443 0.0
H174 H 0.25381 0.05481 0.41937 0.0
H175 H 0.32418 0.9656 0.66948 0.0
H176 H 0.39974 0.10106 0.46565 0.0
H177 H 0.17763 0.89866 0.61534 0.0
H178 H 0.35057 0.01982 0.59835 0.0
H179 H 0.22402 0.00412 0.49439 0.0
C180 C 0.2797 0.05508 0.44578 0.0
C181 C 0.32951 0.08212 0.43579 0.0
C182 C 0.31262 0.99335 0.60159 0.0
C183 C 0.29536 0.02368 0.52188 0.0
C184 C 0.29735 0.96212 0.64239 0.0
C185 C 0.24847 0.92728 0.64856 0.0
C186 C 0.27894 0.99039 0.56603 0.0
C187 C 0.21567 0.92466 0.61189 0.0
C188 C 0.26253 0.02574 0.48843 0.0
C189 C 0.36114 0.081 0.47156 0.0
N190 N 0.23148 0.95598 0.57218 0.0
N191 N 0.34354 0.05208 0.51266 0.0
H192 H 0.72915 0.84839 0.95166 0.0
H193 H 0.7128 0.64597 0.13821 0.0
H194 H 0.64328 0.69712 0.91815 0.0
H195 H 0.78504 0.798 0.17086 0.0
H196 H 0.67832 0.66105 0.06194 0.0
H197 H 0.73906 0.82842 1.0376 0.0
C198 C 0.71082 0.81094 0.96311 0.0
C199 C 0.68487 0.77445 0.92812 0.0
C200 C 0.70132 0.69093 0.08623 0.0
C201 C 0.69834 0.75083 1.02574 0.0
C202 C 0.72107 0.6823 0.12957 0.0
C203 C 0.75244 0.72087 0.16043 0.0
C204 C 0.71306 0.73837 0.07409 0.0
C205 C 0.76168 0.76721 0.1478 0.0
C206 C 0.71702 0.79937 1.01201 0.0
C207 C 0.6629 0.72634 0.9444 0.0
N208 N 0.74244 0.77461 0.1057 0.0
N209 N 0.67095 0.71585 0.9918 0.0
H210 H 0.94198 0.20044 0.42095 0.0
H211 H 0.0263 0.33994 0.68281 0.0
H212 H 0.91262 0.3112 0.46907 0.0
H213 H 0.11282 0.28849 0.61247 0.0
H214 H 0.97194 0.31213 0.61146 0.0
H215 H 0.99177 0.21498 0.49696 0.0
C216 C 0.94544 0.22737 0.44742 0.0
C217 C 0.92407 0.25565 0.43763 0.0
C218 C 0.0027 0.30675 0.61131 0.0
C219 C 0.97968 0.27132 0.52529 0.0
C220 C 0.03401 0.32272 0.65221 0.0
C221 C 0.07473 0.3171 0.65369 0.0
C222 C 0.01138 0.28444 0.5708 0.0
C223 C 0.08221 0.29406 0.61273 0.0
C224 C 0.97401 0.2357 0.49081 0.0
C225 C 0.92871 0.28884 0.47453 0.0
N226 N 0.0508 0.27855 0.57279 0.0
N227 N 0.9559 0.29578 0.51624 0.0
H228 H 0.48855 0.03818 0.33136 0.0
H229 H 0.75309 0.23971 0.2469 0.0
H230 H 0.51434 0.13258 0.20558 0.0
H231 H 0.72688 0.11362 0.33051 0.0
H232 H 0.66563 0.20543 0.23799 0.0
H233 H 0.57562 0.06798 0.3366 0.0
C234 C 0.51239 0.06446 0.30427 0.0
C235 C 0.49405 0.08264 0.26778 0.0
C236 C 0.6791 0.1853 0.25826 0.0
C237 C 0.59386 0.11815 0.27462 0.0
C238 C 0.72905 0.20504 0.2637 0.0
C239 C 0.74758 0.17959 0.28945 0.0
C240 C 0.64726 0.14008 0.27936 0.0
C241 C 0.71443 0.13457 0.31016 0.0
C242 C 0.56212 0.08172 0.30747 0.0
C243 C 0.52677 0.11723 0.23407 0.0
N244 N 0.66606 0.11643 0.30489 0.0
N245 N 0.57501 0.13426 0.23868 0.0
H246 H 0.54638 0.50848 0.30455 0.0
H247 H 0.48573 0.24061 0.23882 0.0
H248 H 0.62898 0.47765 0.19927 0.0
H249 H 0.39134 0.27331 0.32367 0.0
H250 H 0.53964 0.32705 0.22496 0.0
H251 H 0.48856 0.42224 0.31102 0.0
C252 C 0.55179 0.48356 0.28204 0.0
C253 C 0.59239 0.50017 0.25126 0.0
C254 C 0.50707 0.31521 0.24655 0.0
C255 C 0.52714 0.40127 0.25944 0.0
C256 C 0.47645 0.26587 0.2548 0.0
C257 C 0.43391 0.24953 0.28254 0.0
C258 C 0.49523 0.34848 0.26644 0.0
C259 C 0.42367 0.28405 0.30204 0.0
C260 C 0.51897 0.43428 0.28598 0.0
C261 C 0.59794 0.46632 0.22323 0.0
N262 N 0.45407 0.33172 0.2937 0.0
N263 N 0.56598 0.41841 0.22841 0.0
H264 H 0.83883 0.36089 0.20229 0.0
H265 H 0.8897 0.61833 0.29732 0.0
H266 H 0.96247 0.45567 0.29246 0.0
H267 H 0.74925 0.50627 0.24835 0.0
H268 H 0.92072 0.56345 0.28609 0.0
H269 H 0.81058 0.41881 0.20718 0.0
C270 C 0.86061 0.39439 0.22226 0.0
C271 C 0.90318 0.40352 0.24696 0.0
C272 C 0.88311 0.55079 0.27784 0.0
C273 C 0.87059 0.46972 0.25323 0.0
C274 C 0.86525 0.58211 0.2842 0.0
C275 C 0.81663 0.56694 0.27379 0.0
C276 C 0.85245 0.5039 0.26027 0.0
C277 C 0.78685 0.51947 0.2571 0.0
C278 C 0.84413 0.42718 0.22547 0.0
C279 C 0.92961 0.4473 0.27268 0.0
N280 N 0.8053 0.48972 0.25058 0.0
N281 N 0.91281 0.4787 0.27529 0.0
H282 H 0.04459 0.44788 0.74256 0.0
H283 H 0.20635 0.70811 0.86602 0.0
H284 H 0.11888 0.47301 0.88389 0.0
H285 H 0.11946 0.68492 0.73386 0.0
H286 H 0.17008 0.62087 0.87533 0.0
H287 H 0.06388 0.53243 0.74204 0.0
C288 C 0.06311 0.47065 0.77446 0.0
C289 C 0.07976 0.45347 0.81358 0.0
C290 C 0.15869 0.63472 0.84434 0.0
C291 C 0.10381 0.55039 0.81235 0.0
C292 C 0.17968 0.6846 0.8389 0.0
C293 C 0.16617 0.70377 0.79894 0.0
C294 C 0.12409 0.60357 0.80934 0.0
C295 C 0.1311 0.67159 0.76509 0.0
C296 C 0.07487 0.51911 0.77382 0.0
C297 C 0.10507 0.48485 0.85323 0.0
N298 N 0.1115 0.62312 0.77084 0.0
N299 N 0.11683 0.53178 0.8513 0.0
H300 H 0.38769 0.93125 0.70543 0.0
H301 H 0.55376 0.85522 0.85994 0.0
H302 H 0.38444 0.91712 0.86615 0.0
H303 H 0.51948 0.82261 0.70323 0.0
H304 H 0.50543 0.89469 0.86107 0.0
H305 H 0.45202 0.91075 0.70229 0.0
C306 C 0.40206 0.92581 0.74011 0.0
C307 C 0.38161 0.9264 0.78617 0.0
C308 C 0.50852 0.87897 0.82641 0.0
C309 C 0.4534 0.90172 0.78293 0.0
C310 C 0.53585 0.85625 0.8258 0.0
C311 C 0.54 0.83518 0.78157 0.0
C312 C 0.48557 0.88105 0.78232 0.0
C313 C 0.51658 0.83793 0.73823 0.0
C314 C 0.43804 0.91336 0.7383 0.0
C315 C 0.4 0.91757 0.83005 0.0
N316 N 0.49028 0.86051 0.73966 0.0
N317 N 0.4347 0.90527 0.82737 0.0
H318 H 0.31518 0.44739 0.87031 0.0
H319 H 0.54958 0.62151 0.70886 0.0
H320 H 0.31051 0.49201 0.71883 0.0
H321 H 0.55138 0.61843 0.8701 0.0
H322 H 0.46463 0.55787 0.70952 0.0
H323 H 0.40362 0.49661 0.86891 0.0
C324 C 0.33279 0.46764 0.83681 0.0
C325 C 0.30548 0.46602 0.79477 0.0
C326 C 0.4839 0.57008 0.74477 0.0
C327 C 0.40656 0.52135 0.7925 0.0
C328 C 0.53262 0.60568 0.74434 0.0
C329 C 0.55775 0.62424 0.78944 0.0
C330 C 0.45998 0.5531 0.79073 0.0
C331 C 0.53355 0.60406 0.83452 0.0
C332 C 0.38321 0.49553 0.83599 0.0
C333 C 0.33013 0.49262 0.75222 0.0
N334 N 0.48585 0.56982 0.8341 0.0
N335 N 0.37921 0.51904 0.75212 0.0
H336 H 0.22607 0.21458 0.23627 0.0
H337 H 0.0364 0.2465 0.3989 0.0
H338 H 0.18363 0.15989 0.38644 0.0
H339 H 0.06624 0.28875 0.24393 0.0
H340 H 0.10423 0.23221 0.4007 0.0
H341 H 0.17967 0.25576 0.24316 0.0
C342 C 0.20707 0.21139 0.27082 0.0
C343 C 0.2081 0.1833 0.31067 0.0
C344 C 0.09679 0.24565 0.36654 0.0
C345 C 0.15529 0.23072 0.31895 0.0
C346 C 0.05841 0.25438 0.36569 0.0
C347 C 0.04564 0.26849 0.32111 0.0
C348 C 0.12217 0.25037 0.3222 0.0
C349 C 0.07509 0.27801 0.27906 0.0
C350 C 0.18077 0.23511 0.27477 0.0
C351 C 0.1833 0.18078 0.35468 0.0
N352 N 0.11148 0.26775 0.28028 0.0
N353 N 0.15762 0.20393 0.35752 0.0
H354 H 0.9704 0.81141 0.38395 0.0
H355 H 0.21651 0.93341 0.23157 0.0
H356 H 0.98229 0.77769 0.23012 0.0
H357 H 0.20455 0.963 0.38663 0.0
H358 H 0.13414 0.8643 0.23482 0.0
H359 H 0.05858 0.85736 0.38981 0.0
C360 C 0.99165 0.81364 0.35153 0.0
C361 C 0.9693 0.79151 0.30634 0.0
C362 C 0.15 0.88507 0.26857 0.0
C363 C 0.06979 0.84351 0.31257 0.0
C364 C 0.19719 0.924 0.26681 0.0
C365 C 0.21678 0.95363 0.30884 0.0
C366 C 0.12269 0.87642 0.31257 0.0
C367 C 0.19025 0.94086 0.35341 0.0
C368 C 0.04191 0.83955 0.35488 0.0
C369 C 0.99828 0.79483 0.26552 0.0
N370 N 0.14422 0.90366 0.35392 0.0
N371 N 0.04704 0.82076 0.26944 0.0
H372 H 0.78653 0.01524 0.23864 0.0
H373 H 0.75067 0.78651 0.39164 0.0
H374 H 0.84257 0.02172 0.38752 0.0
H375 H 0.71161 0.78131 0.23615 0.0
H376 H 0.76602 0.86885 0.39693 0.0
H377 H 0.74421 0.92746 0.24248 0.0
C378 C 0.78979 0.9981 0.27229 0.0
C379 C 0.8186 0.02569 0.31265 0.0
C380 C 0.75305 0.84949 0.36189 0.0
C381 C 0.76982 0.92514 0.31739 0.0
C382 C 0.74376 0.8023 0.35902 0.0
C383 C 0.73031 0.77746 0.31328 0.0
C384 C 0.74946 0.8722 0.31845 0.0
C385 C 0.72186 0.79935 0.27209 0.0
C386 C 0.76542 0.94797 0.27449 0.0
C387 C 0.82115 0.00171 0.35542 0.0
N388 N 0.7326 0.84602 0.27533 0.0
N389 N 0.7973 0.95272 0.35655 0.0
H390 H 0.09761 0.18612 0.72167 0.0
H391 H 0.29375 0.12117 0.825 0.0
H392 H 0.19737 0.25968 0.84292 0.0
H393 H 0.2038 0.0507 0.69643 0.0
H394 H 0.25981 0.17413 0.82926 0.0
H395 H 0.13428 0.1351 0.71101 0.0
C396 C 0.12671 0.19114 0.74633 0.0
C397 C 0.14456 0.22727 0.78308 0.0
C398 C 0.24774 0.14748 0.79968 0.0
C399 C 0.18696 0.16999 0.77074 0.0
C400 C 0.26752 0.11754 0.79703 0.0
C401 C 0.25161 0.08164 0.76033 0.0
C402 C 0.21132 0.14119 0.76569 0.0
C403 C 0.2172 0.07819 0.7252 0.0
C404 C 0.14794 0.16243 0.73995 0.0
C405 C 0.18263 0.23257 0.81378 0.0
N406 N 0.19775 0.10725 0.72905 0.0
N407 N 0.20249 0.20445 0.80684 0.0
H408 H 0.0755 0.82007 0.86654 0.0
H409 H 0.85336 0.78385 0.69756 0.0
H410 H 0.09215 0.90436 0.73414 0.0
H411 H 0.83682 0.72429 0.84613 0.0
H412 H 0.94083 0.82073 0.70581 0.0
H413 H 0.98812 0.78061 0.85724 0.0
C414 C 0.06065 0.83082 0.83589 0.0
C415 C 0.09105 0.86562 0.80109 0.0
C416 C 0.91807 0.79918 0.7364 0.0
C417 C 0.9909 0.8196 0.78948 0.0
C418 C 0.8681 0.77756 0.73149 0.0
C419 C 0.83783 0.75106 0.77133 0.0
C420 C 0.93791 0.79405 0.78138 0.0
C421 C 0.85885 0.74431 0.81448 0.0
C422 C 0.01074 0.80804 0.83045 0.0
C423 C 0.06995 0.87808 0.76206 0.0
N424 N 0.90767 0.766 0.81852 0.0
N425 N 0.02105 0.85468 0.75698 0.0
H426 H 0.94282 0.1627 0.69295 0.0
H427 H 0.74637 0.93406 0.84593 0.0
H428 H 0.88946 0.17186 0.83824 0.0
H429 H 0.81912 0.92146 0.71624 0.0
H430 H 0.7944 0.02132 0.84001 0.0
H431 H 0.89121 0.07503 0.6954 0.0
C432 C 0.91933 0.14635 0.72486 0.0
C433 C 0.92043 0.17462 0.76554 0.0
C434 C 0.80025 0.9997 0.81294 0.0
C435 C 0.86208 0.07423 0.76895 0.0
C436 C 0.77293 0.94977 0.81636 0.0
C437 C 0.77879 0.92045 0.78147 0.0
C438 C 0.8336 0.02091 0.77396 0.0
C439 C 0.81381 0.94278 0.74412 0.0
C440 C 0.89037 0.09624 0.72647 0.0
C441 C 0.88959 0.15149 0.80601 0.0
N442 N 0.83971 0.99184 0.74107 0.0
N443 N 0.86194 0.10264 0.80683 0.0
loop_
_geom_bond_atom_site_label_1
_geom_bond_atom_site_label_2
_geom_bond_distance
_geom_bond_site_symmetry_2
_ccdc_geom_bond_type
Dy0 O4 2.398 . S
Dy0 O5 2.491 . S
Dy0 O6 2.403 . S
Dy0 O7 2.664 . S
Dy0 O11 2.326 . S
Dy0 O15 2.310 . S
Dy0 O16 2.351 . S
C1 O12 1.185 . S
C1 O13 1.355 . S
C2 O4 1.185 . S
C2 O5 1.355 . S
Dy3 O7 2.310 . S
Dy3 O10 2.351 . S
Dy3 O12 2.398 . S
Dy3 O13 2.491 . S
Dy3 O14 2.403 . S
Dy3 O15 2.664 . S
Dy3 O17 2.326 . S
O4 Dy0 2.398 . S
O4 C2 1.185 . S
O5 Dy0 2.491 . S
O5 C2 1.355 . S
O6 Dy0 2.403 . S
O6 C8 1.254 . S
O7 Dy0 2.664 . S
O7 Dy3 2.310 . S
O7 C8 1.268 . S
C8 O6 1.254 . S
C8 O7 1.268 . S
C9 O14 1.254 . S
C9 O15 1.268 . S
O10 Dy3 2.351 . S
O10 C18 1.249 . S
O11 Dy0 2.326 . S
O11 C18 1.267 . S
O12 C1 1.185 . S
O12 Dy3 2.398 . S
O13 C1 1.355 . S
O13 Dy3 2.491 . S
O14 Dy3 2.403 . S
O14 C9 1.254 . S
O15 Dy0 2.310 . S
O15 Dy3 2.664 . S
O15 C9 1.268 . S
O16 Dy0 2.351 . S
O16 C19 1.249 . S
O17 Dy3 2.326 . S
O17 C19 1.267 . S
C18 O10 1.249 . S
C18 O11 1.267 . S
C19 O16 1.249 . S
C19 O17 1.267 . S
Dy20 O24 2.398 . S
Dy20 O25 2.491 . S
Dy20 O26 2.403 . S
Dy20 O27 2.664 . S
Dy20 O31 2.326 . S
Dy20 O35 2.310 . S
Dy20 O36 2.351 . S
C21 O32 1.185 . S
C21 O33 1.355 . S
C22 O24 1.185 . S
C22 O25 1.355 . S
Dy23 O27 2.310 . S
Dy23 O30 2.351 . S
Dy23 O32 2.398 . S
Dy23 O33 2.491 . S
Dy23 O34 2.403 . S
Dy23 O35 2.664 . S
Dy23 O37 2.326 . S
O24 Dy20 2.398 . S
O24 C22 1.185 . S
O25 Dy20 2.491 . S
O25 C22 1.355 . S
O26 Dy20 2.403 . S
O26 C28 1.254 . S
O27 Dy20 2.664 . S
O27 Dy23 2.310 . S
O27 C28 1.268 . S
C28 O26 1.254 . S
C28 O27 1.268 . S
C29 O34 1.254 . S
C29 O35 1.268 . S
O30 Dy23 2.351 . S
O30 C38 1.249 . S
O31 Dy20 2.326 . S
O31 C38 1.267 . S
O32 C21 1.185 . S
O32 Dy23 2.398 . S
O33 C21 1.355 . S
O33 Dy23 2.491 . S
O34 Dy23 2.403 . S
O34 C29 1.254 . S
O35 Dy20 2.310 . S
O35 Dy23 2.664 . S
O35 C29 1.268 . S
O36 Dy20 2.351 . S
O36 C39 1.249 . S
O37 Dy23 2.326 . S
O37 C39 1.267 . S
C38 O30 1.249 . S
C38 O31 1.267 . S
C39 O36 1.249 . S
C39 O37 1.267 . S
Dy40 O44 2.398 . S
Dy40 O45 2.491 . S
Dy40 O46 2.403 . S
Dy40 O47 2.664 . S
Dy40 O51 2.326 . S
Dy40 O55 2.310 . S
Dy40 O56 2.351 . S
C41 O52 1.185 . S
C41 O53 1.355 . S
C42 O44 1.185 . S
C42 O45 1.355 . S
Dy43 O47 2.310 . S
Dy43 O50 2.351 . S
Dy43 O52 2.398 . S
Dy43 O53 2.491 . S
Dy43 O54 2.403 . S
Dy43 O55 2.664 . S
Dy43 O57 2.326 . S
O44 Dy40 2.398 . S
O44 C42 1.185 . S
O45 Dy40 2.491 . S
O45 C42 1.355 . S
O46 Dy40 2.403 . S
O46 C48 1.254 . S
O47 Dy40 2.664 . S
O47 Dy43 2.310 . S
O47 C48 1.268 . S
C48 O46 1.254 . S
C48 O47 1.268 . S
C49 O54 1.254 . S
C49 O55 1.268 . S
O50 Dy43 2.351 . S
O50 C58 1.249 . S
O51 Dy40 2.326 . S
O51 C58 1.267 . S
O52 C41 1.185 . S
O52 Dy43 2.398 . S
O53 C41 1.355 . S
O53 Dy43 2.491 . S
O54 Dy43 2.403 . S
O54 C49 1.254 . S
O55 Dy40 2.310 . S
O55 Dy43 2.664 . S
O55 C49 1.268 . S
O56 Dy40 2.351 . S
O56 C59 1.249 . S
O57 Dy43 2.326 . S
O57 C59 1.267 . S
C58 O50 1.249 . S
C58 O51 1.267 . S
C59 O56 1.249 . S
C59 O57 1.267 . S
Dy60 O64 2.398 1_455 S
Dy60 O65 2.491 1_455 S
Dy60 O66 2.403 . S
Dy60 O67 2.664 . S
Dy60 O71 2.326 . S
Dy60 O75 2.310 . S
Dy60 O76 2.351 . S
C61 O72 1.185 . S
C61 O73 1.355 . S
C62 O64 1.185 . S
C62 O65 1.355 . S
Dy63 O67 2.310 . S
Dy63 O70 2.351 . S
Dy63 O72 2.398 . S
Dy63 O73 2.491 . S
Dy63 O74 2.403 . S
Dy63 O75 2.664 . S
Dy63 O77 2.326 . S
O64 Dy60 2.398 1_655 S
O64 C62 1.185 . S
O65 Dy60 2.491 1_655 S
O65 C62 1.355 . S
O66 Dy60 2.403 . S
O66 C68 1.254 . S
O67 Dy60 2.664 . S
O67 Dy63 2.310 . S
O67 C68 1.268 . S
C68 O66 1.254 . S
C68 O67 1.268 . S
C69 O74 1.254 . S
C69 O75 1.268 . S
O70 Dy63 2.351 . S
O70 C78 1.249 . S
O71 Dy60 2.326 . S
O71 C78 1.267 . S
O72 C61 1.185 . S
O72 Dy63 2.398 . S
O73 C61 1.355 . S
O73 Dy63 2.491 . S
O74 Dy63 2.403 . S
O74 C69 1.254 . S
O75 Dy60 2.310 . S
O75 Dy63 2.664 . S
O75 C69 1.268 . S
O76 Dy60 2.351 . S
O76 C79 1.249 . S
O77 Dy63 2.326 . S
O77 C79 1.267 . S
C78 O70 1.249 . S
C78 O71 1.267 . S
C79 O76 1.249 . S
C79 O77 1.267 . S
Dy80 O84 2.398 1_565 S
Dy80 O85 2.491 1_565 S
Dy80 O86 2.403 . S
Dy80 O87 2.664 . S
Dy80 O91 2.326 . S
Dy80 O95 2.310 . S
Dy80 O96 2.351 . S
C81 O92 1.185 . S
C81 O93 1.355 . S
C82 O84 1.185 . S
C82 O85 1.355 . S
Dy83 O87 2.310 . S
Dy83 O90 2.351 . S
Dy83 O92 2.398 . S
Dy83 O93 2.491 . S
Dy83 O94 2.403 . S
Dy83 O95 2.664 . S
Dy83 O97 2.326 . S
O84 Dy80 2.398 1_545 S
O84 C82 1.185 . S
O85 Dy80 2.491 1_545 S
O85 C82 1.355 . S
O86 Dy80 2.403 . S
O86 C88 1.254 . S
O87 Dy80 2.664 . S
O87 Dy83 2.310 . S
O87 C88 1.268 . S
C88 O86 1.254 . S
C88 O87 1.268 . S
C89 O94 1.254 . S
C89 O95 1.268 . S
O90 Dy83 2.351 . S
O90 C98 1.249 . S
O91 Dy80 2.326 . S
O91 C98 1.267 . S
O92 C81 1.185 . S
O92 Dy83 2.398 . S
O93 C81 1.355 . S
O93 Dy83 2.491 . S
O94 Dy83 2.403 . S
O94 C89 1.254 . S
O95 Dy80 2.310 . S
O95 Dy83 2.664 . S
O95 C89 1.268 . S
O96 Dy80 2.351 . S
O96 C99 1.249 . S
O97 Dy83 2.326 . S
O97 C99 1.267 . S
C98 O90 1.249 . S
C98 O91 1.267 . S
C99 O96 1.249 . S
C99 O97 1.267 . S
Dy100 O104 2.398 . S
Dy100 O105 2.491 . S
Dy100 O106 2.403 . S
Dy100 O107 2.664 . S
Dy100 O111 2.326 . S
Dy100 O115 2.310 . S
Dy100 O116 2.351 . S
C101 O112 1.185 . S
C101 O113 1.355 . S
C102 O104 1.185 . S
C102 O105 1.355 . S
Dy103 O107 2.310 . S
Dy103 O110 2.351 . S
Dy103 O112 2.398 . S
Dy103 O113 2.491 . S
Dy103 O114 2.403 . S
Dy103 O115 2.664 . S
Dy103 O117 2.326 . S
O104 Dy100 2.398 . S
O104 C102 1.185 . S
O105 Dy100 2.491 . S
O105 C102 1.355 . S
O106 Dy100 2.403 . S
O106 C108 1.254 . S
O107 Dy100 2.664 . S
O107 Dy103 2.310 . S
O107 C108 1.268 . S
C108 O106 1.254 . S
C108 O107 1.268 . S
C109 O114 1.254 . S
C109 O115 1.268 . S
O110 Dy103 2.351 . S
O110 C118 1.249 . S
O111 Dy100 2.326 . S
O111 C118 1.267 . S
O112 C101 1.185 . S
O112 Dy103 2.398 . S
O113 C101 1.355 . S
O113 Dy103 2.491 . S
O114 Dy103 2.403 . S
O114 C109 1.254 . S
O115 Dy100 2.310 . S
O115 Dy103 2.664 . S
O115 C109 1.268 . S
O116 Dy100 2.351 . S
O116 C119 1.249 . S
O117 Dy103 2.326 . S
O117 C119 1.267 . S
C118 O110 1.249 . S
C118 O111 1.267 . S
C119 O116 1.249 . S
C119 O117 1.267 . S
H120 C126 0.930 . S
H121 C130 0.930 . S
H122 C135 0.929 . S
H123 C133 0.929 . S
H124 C128 0.929 1_556 S
H125 C134 0.929 1_554 S
C126 H120 0.930 . S
C126 C127 1.367 . S
C126 C134 1.378 . S
C127 C126 1.367 . S
C127 C135 1.433 . S
C128 H124 0.929 1_554 S
C128 C130 1.378 . S
C128 C132 1.350 . S
C129 C132 1.463 1_566 S
C129 C134 1.350 . S
C129 N137 1.427 1_565 S
C130 H121 0.930 . S
C130 C128 1.378 . S
C130 C131 1.367 . S
C131 C130 1.367 . S
C131 C133 1.433 . S
C132 C128 1.350 . S
C132 C129 1.463 1_544 S
C132 N136 1.427 1_545 S
C133 H123 0.929 . S
C133 C131 1.433 . S
C133 N136 1.384 1_545 S
C134 H125 0.929 1_556 S
C134 C126 1.378 . S
C134 C129 1.350 . S
C135 H122 0.929 . S
C135 C127 1.433 . S
C135 N137 1.384 1_565 S
N136 C132 1.427 1_565 S
N136 C133 1.384 1_565 S
N137 C129 1.427 1_545 S
N137 C135 1.384 1_545 S
H138 C144 0.930 . S
H139 C148 0.930 . S
H140 C153 0.929 . S
H141 C151 0.929 . S
H142 C146 0.929 . S
H143 C152 0.929 . S
C144 H138 0.930 . S
C144 C145 1.367 . S
C144 C152 1.378 . S
C145 C144 1.367 . S
C145 C153 1.433 . S
C146 H142 0.929 . S
C146 C148 1.378 . S
C146 C150 1.350 . S
C147 C150 1.463 . S
C147 C152 1.350 . S
C147 N155 1.427 . S
C148 H139 0.930 . S
C148 C146 1.378 . S
C148 C149 1.367 . S
C149 C148 1.367 . S
C149 C151 1.433 . S
C150 C146 1.350 . S
C150 C147 1.463 . S
C150 N154 1.427 . S
C151 H141 0.929 . S
C151 C149 1.433 . S
C151 N154 1.384 . S
C152 H143 0.929 . S
C152 C144 1.378 . S
C152 C147 1.350 . S
C153 H140 0.929 . S
C153 C145 1.433 . S
C153 N155 1.384 . S
N154 C150 1.427 . S
N154 C151 1.384 . S
N155 C147 1.427 . S
N155 C153 1.384 . S
H156 C162 0.930 . S
H157 C166 0.930 . S
H158 C171 0.929 . S
H159 C169 0.929 . S
H160 C164 0.929 . S
H161 C170 0.929 . S
C162 H156 0.930 . S
C162 C163 1.367 . S
C162 C170 1.378 . S
C163 C162 1.367 . S
C163 C171 1.433 . S
C164 H160 0.929 . S
C164 C166 1.378 . S
C164 C168 1.350 . S
C165 C168 1.463 1_654 S
C165 C170 1.350 . S
C165 N173 1.427 . S
C166 H157 0.930 . S
C166 C164 1.378 . S
C166 C167 1.367 . S
C167 C166 1.367 . S
C167 C169 1.433 . S
C168 C164 1.350 . S
C168 C165 1.463 1_456 S
C168 N172 1.427 . S
C169 H159 0.929 . S
C169 C167 1.433 . S
C169 N172 1.384 . S
C170 H161 0.929 . S
C170 C162 1.378 . S
C170 C165 1.350 . S
C171 H158 0.929 . S
C171 C163 1.433 . S
C171 N173 1.384 . S
N172 C168 1.427 . S
N172 C169 1.384 . S
N173 C165 1.427 . S
N173 C171 1.384 . S
H174 C180 0.930 . S
H175 C184 0.930 . S
H176 C189 0.929 . S
H177 C187 0.929 . S
H178 C182 0.929 . S
H179 C188 0.929 . S
C180 H174 0.930 . S
C180 C181 1.367 . S
C180 C188 1.378 1_545 S
C181 C180 1.367 . S
C181 C189 1.433 . S
C182 H178 0.929 . S
C182 C184 1.378 1_545 S
C182 C186 1.350 1_545 S
C183 C186 1.463 1_545 S
C183 C188 1.350 1_545 S
C183 N191 1.427 . S
C184 H175 0.930 . S
C184 C182 1.378 1_565 S
C184 C185 1.367 . S
C185 C184 1.367 . S
C185 C187 1.433 . S
C186 C182 1.350 1_565 S
C186 C183 1.463 1_565 S
C186 N190 1.427 . S
C187 H177 0.929 . S
C187 C185 1.433 . S
C187 N190 1.384 . S
C188 H179 0.929 . S
C188 C180 1.378 1_565 S
C188 C183 1.350 1_565 S
C189 H176 0.929 . S
C189 C181 1.433 . S
C189 N191 1.384 . S
N190 C186 1.427 . S
N190 C187 1.384 . S
N191 C183 1.427 . S
N191 C189 1.384 . S
H192 C198 0.930 . S
H193 C202 0.930 . S
H194 C207 0.929 . S
H195 C205 0.929 . S
H196 C200 0.929 1_556 S
H197 C206 0.929 1_554 S
C198 H192 0.930 . S
C198 C199 1.367 . S
C198 C206 1.378 . S
C199 C198 1.367 . S
C199 C207 1.433 . S
C200 H196 0.929 1_554 S
C200 C202 1.378 . S
C200 C204 1.350 . S
C201 C204 1.463 1_556 S
C201 C206 1.350 . S
C201 N209 1.427 . S
C202 H193 0.930 . S
C202 C200 1.378 . S
C202 C203 1.367 . S
C203 C202 1.367 . S
C203 C205 1.433 . S
C204 C200 1.350 . S
C204 C201 1.463 1_554 S
C204 N208 1.427 . S
C205 H195 0.929 . S
C205 C203 1.433 . S
C205 N208 1.384 . S
C206 H197 0.929 1_556 S
C206 C198 1.378 . S
C206 C201 1.350 . S
C207 H194 0.929 . S
C207 C199 1.433 . S
C207 N209 1.384 . S
N208 C204 1.427 . S
N208 C205 1.384 . S
N209 C201 1.427 . S
N209 C207 1.384 . S
H210 C216 0.930 . S
H211 C220 0.930 . S
H212 C225 0.929 . S
H213 C223 0.929 . S
H214 C218 0.929 . S
H215 C224 0.929 . S
C216 H210 0.930 . S
C216 C217 1.367 . S
C216 C224 1.378 . S
C217 C216 1.367 . S
C217 C225 1.433 . S
C218 H214 0.929 . S
C218 C220 1.378 . S
C218 C222 1.350 . S
C219 C222 1.463 1_655 S
C219 C224 1.350 . S
C219 N227 1.427 . S
C220 H211 0.930 . S
C220 C218 1.378 . S
C220 C221 1.367 . S
C221 C220 1.367 . S
C221 C223 1.433 . S
C222 C218 1.350 . S
C222 C219 1.463 1_455 S
C222 N226 1.427 . S
C223 H213 0.929 . S
C223 C221 1.433 . S
C223 N226 1.384 . S
C224 H215 0.929 . S
C224 C216 1.378 . S
C224 C219 1.350 . S
C225 H212 0.929 . S
C225 C217 1.433 . S
C225 N227 1.384 . S
N226 C222 1.427 . S
N226 C223 1.384 . S
N227 C219 1.427 . S
N227 C225 1.384 . S
H228 C234 0.930 . S
H229 C238 0.930 . S
H230 C243 0.929 . S
H231 C241 0.929 . S
H232 C236 0.929 . S
H233 C242 0.929 . S
C234 H228 0.930 . S
C234 C235 1.367 . S
C234 C242 1.378 . S
C235 C234 1.367 . S
C235 C243 1.433 . S
C236 H232 0.929 . S
C236 C238 1.378 . S
C236 C240 1.350 . S
C237 C240 1.463 . S
C237 C242 1.350 . S
C237 N245 1.427 . S
C238 H229 0.930 . S
C238 C236 1.378 . S
C238 C239 1.367 . S
C239 C238 1.367 . S
C239 C241 1.433 . S
C240 C236 1.350 . S
C240 C237 1.463 . S
C240 N244 1.427 . S
C241 H231 0.929 . S
C241 C239 1.433 . S
C241 N244 1.384 . S
C242 H233 0.929 . S
C242 C234 1.378 . S
C242 C237 1.350 . S
C243 H230 0.929 . S
C243 C235 1.433 . S
C243 N245 1.384 . S
N244 C240 1.427 . S
N244 C241 1.384 . S
N245 C237 1.427 . S
N245 C243 1.384 . S
H246 C252 0.930 . S
H247 C256 0.930 . S
H248 C261 0.929 . S
H249 C259 0.929 . S
H250 C254 0.929 . S
H251 C260 0.929 . S
C252 H246 0.930 . S
C252 C253 1.367 . S
C252 C260 1.378 . S
C253 C252 1.367 . S
C253 C261 1.433 . S
C254 H250 0.929 . S
C254 C256 1.378 . S
C254 C258 1.350 . S
C255 C258 1.463 . S
C255 C260 1.350 . S
C255 N263 1.427 . S
C256 H247 0.930 . S
C256 C254 1.378 . S
C256 C257 1.367 . S
C257 C256 1.367 . S
C257 C259 1.433 . S
C258 C254 1.350 . S
C258 C255 1.463 . S
C258 N262 1.427 . S
C259 H249 0.929 . S
C259 C257 1.433 . S
C259 N262 1.384 . S
C260 H251 0.929 . S
C260 C252 1.378 . S
C260 C255 1.350 . S
C261 H248 0.929 . S
C261 C253 1.433 . S
C261 N263 1.384 . S
N262 C258 1.427 . S
N262 C259 1.384 . S
N263 C255 1.427 . S
N263 C261 1.384 . S
H264 C270 0.930 . S
H265 C274 0.930 . S
H266 C279 0.929 . S
H267 C277 0.929 . S
H268 C272 0.929 . S
H269 C278 0.929 . S
C270 H264 0.930 . S
C270 C271 1.367 . S
C270 C278 1.378 . S
C271 C270 1.367 . S
C271 C279 1.433 . S
C272 H268 0.929 . S
C272 C274 1.378 . S
C272 C276 1.350 . S
C273 C276 1.463 . S
C273 C278 1.350 . S
C273 N281 1.427 . S
C274 H265 0.930 . S
C274 C272 1.378 . S
C274 C275 1.367 . S
C275 C274 1.367 . S
C275 C277 1.433 . S
C276 C272 1.350 . S
C276 C273 1.463 . S
C276 N280 1.427 . S
C277 H267 0.929 . S
C277 C275 1.433 . S
C277 N280 1.384 . S
C278 H269 0.929 . S
C278 C270 1.378 . S
C278 C273 1.350 . S
C279 H266 0.929 . S
C279 C271 1.433 . S
C279 N281 1.384 . S
N280 C276 1.427 . S
N280 C277 1.384 . S
N281 C273 1.427 . S
N281 C279 1.384 . S
H282 C288 0.930 . S
H283 C292 0.930 . S
H284 C297 0.929 . S
H285 C295 0.929 . S
H286 C290 0.929 . S
H287 C296 0.929 . S
C288 H282 0.930 . S
C288 C289 1.367 . S
C288 C296 1.378 . S
C289 C288 1.367 . S
C289 C297 1.433 . S
C290 H286 0.929 . S
C290 C292 1.378 . S
C290 C294 1.350 . S
C291 C294 1.463 . S
C291 C296 1.350 . S
C291 N299 1.427 . S
C292 H283 0.930 . S
C292 C290 1.378 . S
C292 C293 1.367 . S
C293 C292 1.367 . S
C293 C295 1.433 . S
C294 C290 1.350 . S
C294 C291 1.463 . S
C294 N298 1.427 . S
C295 H285 0.929 . S
C295 C293 1.433 . S
C295 N298 1.384 . S
C296 H287 0.929 . S
C296 C288 1.378 . S
C296 C291 1.350 . S
C297 H284 0.929 . S
C297 C289 1.433 . S
C297 N299 1.384 . S
N298 C294 1.427 . S
N298 C295 1.384 . S
N299 C291 1.427 . S
N299 C297 1.384 . S
H300 C306 0.930 . S
H301 C310 0.930 . S
H302 C315 0.929 . S
H303 C313 0.929 . S
H304 C308 0.929 . S
H305 C314 0.929 . S
C306 H300 0.930 . S
C306 C307 1.367 . S
C306 C314 1.378 . S
C307 C306 1.367 . S
C307 C315 1.433 . S
C308 H304 0.929 . S
C308 C310 1.378 . S
C308 C312 1.350 . S
C309 C312 1.463 . S
C309 C314 1.350 . S
C309 N317 1.427 . S
C310 H301 0.930 . S
C310 C308 1.378 . S
C310 C311 1.367 . S
C311 C310 1.367 . S
C311 C313 1.433 . S
C312 C308 1.350 . S
C312 C309 1.463 . S
C312 N316 1.427 . S
C313 H303 0.929 . S
C313 C311 1.433 . S
C313 N316 1.384 . S
C314 H305 0.929 . S
C314 C306 1.378 . S
C314 C309 1.350 . S
C315 H302 0.929 . S
C315 C307 1.433 . S
C315 N317 1.384 . S
N316 C312 1.427 . S
N316 C313 1.384 . S
N317 C309 1.427 . S
N317 C315 1.384 . S
H318 C324 0.930 . S
H319 C328 0.930 . S
H320 C333 0.929 . S
H321 C331 0.929 . S
H322 C326 0.929 . S
H323 C332 0.929 . S
C324 H318 0.930 . S
C324 C325 1.367 . S
C324 C332 1.378 . S
C325 C324 1.367 . S
C325 C333 1.433 . S
C326 H322 0.929 . S
C326 C328 1.378 . S
C326 C330 1.350 . S
C327 C330 1.463 . S
C327 C332 1.350 . S
C327 N335 1.427 . S
C328 H319 0.930 . S
C328 C326 1.378 . S
C328 C329 1.367 . S
C329 C328 1.367 . S
C329 C331 1.433 . S
C330 C326 1.350 . S
C330 C327 1.463 . S
C330 N334 1.427 . S
C331 H321 0.929 . S
C331 C329 1.433 . S
C331 N334 1.384 . S
C332 H323 0.929 . S
C332 C324 1.378 . S
C332 C327 1.350 . S
C333 H320 0.929 . S
C333 C325 1.433 . S
C333 N335 1.384 . S
N334 C330 1.427 . S
N334 C331 1.384 . S
N335 C327 1.427 . S
N335 C333 1.384 . S
H336 C342 0.930 . S
H337 C346 0.930 1_655 S
H338 C351 0.929 . S
H339 C349 0.929 . S
H340 C344 0.929 . S
H341 C350 0.929 . S
C342 H336 0.930 . S
C342 C343 1.367 . S
C342 C350 1.378 . S
C343 C342 1.367 . S
C343 C351 1.433 . S
C344 H340 0.929 . S
C344 C346 1.378 . S
C344 C348 1.350 . S
C345 C348 1.463 . S
C345 C350 1.350 . S
C345 N353 1.427 . S
C346 H337 0.930 1_455 S
C346 C344 1.378 . S
C346 C347 1.367 . S
C347 C346 1.367 . S
C347 C349 1.433 . S
C348 C344 1.350 . S
C348 C345 1.463 . S
C348 N352 1.427 . S
C349 H339 0.929 . S
C349 C347 1.433 . S
C349 N352 1.384 . S
C350 H341 0.929 . S
C350 C342 1.378 . S
C350 C345 1.350 . S
C351 H338 0.929 . S
C351 C343 1.433 . S
C351 N353 1.384 . S
N352 C348 1.427 . S
N352 C349 1.384 . S
N353 C345 1.427 . S
N353 C351 1.384 . S
H354 C360 0.930 . S
H355 C364 0.930 . S
H356 C369 0.929 . S
H357 C367 0.929 1_545 S
H358 C362 0.929 . S
H359 C368 0.929 . S
C360 H354 0.930 . S
C360 C361 1.367 . S
C360 C368 1.378 1_655 S
C361 C360 1.367 . S
C361 C369 1.433 . S
C362 H358 0.929 . S
C362 C364 1.378 . S
C362 C366 1.350 . S
C363 C366 1.463 . S
C363 C368 1.350 . S
C363 N371 1.427 . S
C364 H355 0.930 . S
C364 C362 1.378 . S
C364 C365 1.367 . S
C365 C364 1.367 . S
C365 C367 1.433 . S
C366 C362 1.350 . S
C366 C363 1.463 . S
C366 N370 1.427 . S
C367 H357 0.929 1_565 S
C367 C365 1.433 . S
C367 N370 1.384 . S
C368 H359 0.929 . S
C368 C360 1.378 1_455 S
C368 C363 1.350 . S
C369 H356 0.929 . S
C369 C361 1.433 . S
C369 N371 1.384 1_655 S
N370 C366 1.427 . S
N370 C367 1.384 . S
N371 C363 1.427 . S
N371 C369 1.384 1_455 S
H372 C378 0.930 . S
H373 C382 0.930 . S
H374 C387 0.929 . S
H375 C385 0.929 . S
H376 C380 0.929 . S
H377 C386 0.929 . S
C378 H372 0.930 . S
C378 C379 1.367 . S
C378 C386 1.378 1_545 S
C379 C378 1.367 . S
C379 C387 1.433 . S
C380 H376 0.929 . S
C380 C382 1.378 . S
C380 C384 1.350 . S
C381 C384 1.463 . S
C381 C386 1.350 . S
C381 N389 1.427 . S
C382 H373 0.930 . S
C382 C380 1.378 . S
C382 C383 1.367 . S
C383 C382 1.367 . S
C383 C385 1.433 . S
C384 C380 1.350 . S
C384 C381 1.463 . S
C384 N388 1.427 . S
C385 H375 0.929 . S
C385 C383 1.433 . S
C385 N388 1.384 . S
C386 H377 0.929 . S
C386 C378 1.378 1_565 S
C386 C381 1.350 . S
C387 H374 0.929 . S
C387 C379 1.433 . S
C387 N389 1.384 1_545 S
N388 C384 1.427 . S
N388 C385 1.384 . S
N389 C381 1.427 . S
N389 C387 1.384 1_565 S
H390 C396 0.930 . S
H391 C400 0.930 . S
H392 C405 0.929 . S
H393 C403 0.929 . S
H394 C398 0.929 . S
H395 C404 0.929 . S
C396 H390 0.930 . S
C396 C397 1.367 . S
C396 C404 1.378 . S
C397 C396 1.367 . S
C397 C405 1.433 . S
C398 H394 0.929 . S
C398 C400 1.378 . S
C398 C402 1.350 . S
C399 C402 1.463 . S
C399 C404 1.350 . S
C399 N407 1.427 . S
C400 H391 0.930 . S
C400 C398 1.378 . S
C400 C401 1.367 . S
C401 C400 1.367 . S
C401 C403 1.433 . S
C402 C398 1.350 . S
C402 C399 1.463 . S
C402 N406 1.427 . S
C403 H393 0.929 . S
C403 C401 1.433 . S
C403 N406 1.384 . S
C404 H395 0.929 . S
C404 C396 1.378 . S
C404 C399 1.350 . S
C405 H392 0.929 . S
C405 C397 1.433 . S
C405 N407 1.384 . S
N406 C402 1.427 . S
N406 C403 1.384 . S
N407 C399 1.427 . S
N407 C405 1.384 . S
H408 C414 0.930 . S
H409 C418 0.930 . S
H410 C423 0.929 . S
H411 C421 0.929 . S
H412 C416 0.929 . S
H413 C422 0.929 . S
C414 H408 0.930 . S
C414 C415 1.367 . S
C414 C422 1.378 . S
C415 C414 1.367 . S
C415 C423 1.433 . S
C416 H412 0.929 . S
C416 C418 1.378 . S
C416 C420 1.350 . S
C417 C420 1.463 1_455 S
C417 C422 1.350 . S
C417 N425 1.427 . S
C418 H409 0.930 . S
C418 C416 1.378 . S
C418 C419 1.367 . S
C419 C418 1.367 . S
C419 C421 1.433 . S
C420 C416 1.350 . S
C420 C417 1.463 1_655 S
C420 N424 1.427 . S
C421 H411 0.929 . S
C421 C419 1.433 . S
C421 N424 1.384 . S
C422 H413 0.929 . S
C422 C414 1.378 . S
C422 C417 1.350 . S
C423 H410 0.929 . S
C423 C415 1.433 . S
C423 N425 1.384 . S
N424 C420 1.427 . S
N424 C421 1.384 . S
N425 C417 1.427 . S
N425 C423 1.384 . S
H426 C432 0.930 . S
H427 C436 0.930 . S
H428 C441 0.929 . S
H429 C439 0.929 . S
H430 C434 0.929 . S
H431 C440 0.929 . S
C432 H426 0.930 . S
C432 C433 1.367 . S
C432 C440 1.378 . S
C433 C432 1.367 . S
C433 C441 1.433 . S
C434 H430 0.929 . S
C434 C436 1.378 . S
C434 C438 1.350 . S
C435 C438 1.463 1_545 S
C435 C440 1.350 . S
C435 N443 1.427 . S
C436 H427 0.930 . S
C436 C434 1.378 . S
C436 C437 1.367 . S
C437 C436 1.367 . S
C437 C439 1.433 . S
C438 C434 1.350 . S
C438 C435 1.463 1_565 S
C438 N442 1.427 . S
C439 H429 0.929 . S
C439 C437 1.433 . S
C439 N442 1.384 . S
C440 H431 0.929 . S
C440 C432 1.378 . S
C440 C435 1.350 . S
C441 H428 0.929 . S
C441 C433 1.433 . S
C441 N443 1.384 . S
N442 C438 1.427 . S
N442 C439 1.384 . S
N443 C435 1.427 . S
N443 C441 1.384 . S
C127 C88 1.958 . S
C131 C9 2.185 . S
C145 C109 2.175 . S
C149 C28 1.959 . S
C163 C49 2.189 . S
C167 C68 1.955 . S
C181 C8 1.953 . S
C185 C89 2.174 . S
C199 C108 1.957 . S
C203 C29 2.189 . S
C217 C48 1.965 . S
C221 C69 2.175 . S
C235 C2 1.708 . S
C239 C58 1.658 . S
C253 C22 1.707 . S
C257 C18 1.660 . S
C271 C42 1.705 . S
C275 C38 1.648 . S
C289 C79 1.679 . S
C293 C81 1.610 . S
C307 C99 1.682 . S
C311 C101 1.613 . S
C325 C61 1.599 . S
C329 C119 1.676 . S
C343 C1 1.004 . S
C347 C59 1.054 1_455 S
C361 C21 1.019 . S
C365 C19 1.051 1_565 S
C379 C41 1.019 . S
C383 C39 1.060 . S
C397 C78 1.044 . S
C401 C82 1.064 . S
C415 C98 1.038 . S
C419 C102 1.070 . S
C433 C62 1.064 . S
C437 C118 1.030 . S
