# Generated by pormake.
# Topology ske, (6)-cn, num edge types: 1
# Building blocks:
#     Node 0, Type 0, BuildingBlock: MIFKUJ_clean_sbu_0, # of connection points: 6
#     Node 1, Type 0, BuildingBlock: MIFKUJ_clean_sbu_0, # of connection points: 6
#     Node 2, Type 0, BuildingBlock: MIFKUJ_clean_sbu_0, # of connection points: 6
#     Node 3, Type 0, BuildingBlock: MIFKUJ_clean_sbu_0, # of connection points: 6
#     Node 4, Type 0, BuildingBlock: MIFKUJ_clean_sbu_0, # of connection points: 6
#     Node 5, Type 0, BuildingBlock: MIFKUJ_clean_sbu_0, # of connection points: 6
#     Node 6, Type 0, BuildingBlock: MIFKUJ_clean_sbu_0, # of connection points: 6
#     Node 7, Type 0, BuildingBlock: MIFKUJ_clean_sbu_0, # of connection points: 6
#     Edge 8, Type (0, 0), BuildingBlock: TEMPAE_clean_linker_10, # of connection points: 2
#     Edge 9, Type (0, 0), BuildingBlock: TEMPAE_clean_linker_10, # of connection points: 2
#     Edge 10, Type (0, 0), BuildingBlock: TEMPAE_clean_linker_10, # of connection points: 2
#     Edge 11, Type (0, 0), BuildingBlock: TEMPAE_clean_linker_10, # of connection points: 2
#     Edge 12, Type (0, 0), BuildingBlock: TEMPAE_clean_linker_10, # of connection points: 2
#     Edge 13, Type (0, 0), BuildingBlock: TEMPAE_clean_linker_10, # of connection points: 2
#     Edge 14, Type (0, 0), BuildingBlock: TEMPAE_clean_linker_10, # of connection points: 2
#     Edge 15, Type (0, 0), BuildingBlock: TEMPAE_clean_linker_10, # of connection points: 2
#     Edge 16, Type (0, 0), BuildingBlock: TEMPAE_clean_linker_10, # of connection points: 2
#     Edge 17, Type (0, 0), BuildingBlock: TEMPAE_clean_linker_10, # of connection points: 2
#     Edge 18, Type (0, 0), BuildingBlock: TEMPAE_clean_linker_10, # of connection points: 2
#     Edge 19, Type (0, 0), BuildingBlock: TEMPAE_clean_linker_10, # of connection points: 2
#     Edge 20, Type (0, 0), BuildingBlock: TEMPAE_clean_linker_10, # of connection points: 2
#     Edge 21, Type (0, 0), BuildingBlock: TEMPAE_clean_linker_10, # of connection points: 2
#     Edge 22, Type (0, 0), BuildingBlock: TEMPAE_clean_linker_10, # of connection points: 2
#     Edge 23, Type (0, 0), BuildingBlock: TEMPAE_clean_linker_10, # of connection points: 2
#     Edge 24, Type (0, 0), BuildingBlock: TEMPAE_clean_linker_10, # of connection points: 2
#     Edge 25, Type (0, 0), BuildingBlock: TEMPAE_clean_linker_10, # of connection points: 2
#     Edge 26, Type (0, 0), BuildingBlock: TEMPAE_clean_linker_10, # of connection points: 2
#     Edge 27, Type (0, 0), BuildingBlock: TEMPAE_clean_linker_10, # of connection points: 2
#     Edge 28, Type (0, 0), BuildingBlock: TEMPAE_clean_linker_10, # of connection points: 2
#     Edge 29, Type (0, 0), BuildingBlock: TEMPAE_clean_linker_10, # of connection points: 2
#     Edge 30, Type (0, 0), BuildingBlock: TEMPAE_clean_linker_10, # of connection points: 2
#     Edge 31, Type (0, 0), BuildingBlock: TEMPAE_clean_linker_10, # of connection points: 2
# Relax obj value: 0.137
# Max RMSD: 0.177
# Mean RMSD: 0.155
data_MOF--net-ske--node1-MIFKUJ_clean_sbu_0--edge1-TEMPAE_clean_linker_10
_symmetry_space_group_name_H-M    P1
_symmetry_Int_Tables_number       1
_symmetry_cell_setting            triclinic
loop_
_symmetry_equiv_pos_as_xyz
'x, y, z'
_cell_length_a     72.494449
_cell_length_b     28.381737
_cell_length_c     17.528274
_cell_angle_alpha  91.052978
_cell_angle_beta   89.945481
_cell_angle_gamma 84.51727
loop_
_atom_site_label
_atom_site_type_symbol
_atom_site_fract_x
_atom_site_fract_y
_atom_site_fract_z
_atom_type_partial_charge
Zn0 Zn 0.14876 0.23515 0.60758 0.0
Zn1 Zn 0.10851 0.24213 0.4685 0.0
C2 C 0.14086 0.27196 0.75516 0.0
O3 O 0.15538 0.29374 0.73673 0.0
C4 C 0.11049 0.23256 0.30948 0.0
O5 O 0.10485 0.19193 0.32961 0.0
O6 O 0.17505 0.2295 0.64431 0.0
O7 O 0.14535 0.17208 0.55849 0.0
O8 O 0.12175 0.17687 0.47701 0.0
C9 C 0.18961 0.22581 0.60362 0.0
O10 O 0.18815 0.22534 0.52891 0.0
O11 O 0.1339 0.24558 0.70552 0.0
C12 C 0.07017 0.27381 0.46417 0.0
O13 O 0.07714 0.31385 0.44999 0.0
O14 O 0.08115 0.23701 0.47568 0.0
O15 O 0.11498 0.29121 0.5456 0.0
O16 O 0.14513 0.29238 0.54116 0.0
O17 O 0.11328 0.26306 0.36126 0.0
C18 C 0.13516 0.15336 0.5099 0.0
C19 C 0.12902 0.31246 0.5295 0.0
Zn20 Zn 0.89428 0.25951 0.48478 0.0
Zn21 Zn 0.85173 0.25457 0.63363 0.0
C22 C 0.87374 0.27358 0.3446 0.0
O23 O 0.86203 0.24859 0.37938 0.0
C24 C 0.85922 0.29561 0.77577 0.0
O25 O 0.84646 0.32693 0.74892 0.0
O26 O 0.92158 0.26255 0.50226 0.0
O27 O 0.87898 0.29165 0.56473 0.0
O28 O 0.8501 0.31604 0.57851 0.0
C29 C 0.93206 0.25312 0.44467 0.0
O30 O 0.92462 0.24086 0.37983 0.0
O31 O 0.88797 0.28474 0.38033 0.0
C32 C 0.81249 0.23013 0.63304 0.0
O33 O 0.81483 0.21241 0.56354 0.0
O34 O 0.82594 0.24654 0.66745 0.0
O35 O 0.86328 0.19715 0.57009 0.0
O36 O 0.88739 0.19249 0.48885 0.0
O37 O 0.86523 0.26073 0.73312 0.0
C38 C 0.86558 0.32163 0.54901 0.0
C39 C 0.87447 0.17367 0.52352 0.0
Zn40 Zn 0.14982 0.74184 0.42689 0.0
Zn41 Zn 0.10305 0.74387 0.56769 0.0
C42 C 0.14579 0.72758 0.2731 0.0
O43 O 0.15839 0.6936 0.29269 0.0
C44 C 0.11893 0.76633 0.71407 0.0
O45 O 0.12837 0.79441 0.67389 0.0
O46 O 0.1773 0.74813 0.41898 0.0
O47 O 0.13618 0.7791 0.51036 0.0
O48 O 0.10767 0.80794 0.52948 0.0
C49 C 0.18312 0.77693 0.37177 0.0
O50 O 0.17103 0.80654 0.3369 0.0
O51 O 0.13881 0.75605 0.32448 0.0
C52 C 0.0665 0.71478 0.5955 0.0
O53 O 0.07444 0.69636 0.65685 0.0
O54 O 0.07627 0.7346 0.54753 0.0
O55 O 0.12086 0.69378 0.51621 0.0
O56 O 0.14588 0.67387 0.44656 0.0
O57 O 0.10748 0.7418 0.68065 0.0
C58 C 0.12353 0.81265 0.50159 0.0
C59 C 0.13201 0.66224 0.48399 0.0
Zn60 Zn 0.84893 0.73935 0.39882 0.0
Zn61 Zn 0.89005 0.72956 0.53498 0.0
C62 C 0.86056 0.75313 0.24946 0.0
O63 O 0.85136 0.79415 0.26647 0.0
C64 C 0.89439 0.70277 0.69448 0.0
O65 O 0.91129 0.68793 0.67231 0.0
O66 O 0.82218 0.74433 0.36585 0.0
O67 O 0.85341 0.68677 0.47402 0.0
O68 O 0.8838 0.67365 0.47006 0.0
C69 C 0.81036 0.71614 0.38396 0.0
O70 O 0.81495 0.68241 0.43265 0.0
O71 O 0.86254 0.72186 0.30058 0.0
C72 C 0.92691 0.75869 0.56401 0.0
O73 O 0.91782 0.79455 0.60051 0.0
O74 O 0.91788 0.72788 0.53113 0.0
O75 O 0.87972 0.79569 0.50769 0.0
O76 O 0.85494 0.80409 0.43267 0.0
O77 O 0.88276 0.71995 0.64555 0.0
C78 C 0.86791 0.65922 0.46085 0.0
C79 C 0.86729 0.82156 0.47277 0.0
Zn80 Zn 0.6479 0.74406 0.09993 0.0
Zn81 Zn 0.60451 0.74422 0.97465 0.0
C82 C 0.64429 0.7294 0.25843 0.0
O83 O 0.65897 0.70053 0.2405 0.0
C84 C 0.60781 0.72856 0.81463 0.0
O85 O 0.5998 0.69135 0.83621 0.0
O86 O 0.67508 0.74702 0.12323 0.0
O87 O 0.6441 0.67938 0.05622 0.0
O88 O 0.61679 0.67956 0.99672 0.0
C89 C 0.68806 0.71459 0.10963 0.0
O90 O 0.68438 0.67623 0.07178 0.0
O91 O 0.63569 0.75234 0.20527 0.0
C92 C 0.56595 0.76713 0.93518 0.0
O93 O 0.57306 0.79512 0.88654 0.0
O94 O 0.57673 0.74187 0.97864 0.0
O95 O 0.6107 0.79543 0.04748 0.0
O96 O 0.64055 0.79952 0.03325 0.0
O97 O 0.61162 0.75881 0.86536 0.0
C98 C 0.63165 0.65816 0.02243 0.0
C99 C 0.62401 0.81763 0.0256 0.0
Zn100 Zn 0.39092 0.73696 0.9778 0.0
Zn101 Zn 0.34987 0.73565 0.122 0.0
C102 C 0.39502 0.75036 0.81539 0.0
O103 O 0.41251 0.73887 0.83177 0.0
C104 C 0.36031 0.78043 0.26112 0.0
O105 O 0.34812 0.81452 0.23845 0.0
O106 O 0.41887 0.73565 0.98212 0.0
O107 O 0.38002 0.78829 0.04806 0.0
O108 O 0.34977 0.79128 0.05398 0.0
C109 C 0.42707 0.77304 0.99095 0.0
O110 O 0.41717 0.8138 0.00259 0.0
O111 O 0.38297 0.75166 0.86856 0.0
C112 C 0.30969 0.72214 0.12891 0.0
O113 O 0.31125 0.70431 0.05924 0.0
O114 O 0.32388 0.73558 0.16219 0.0
O115 O 0.35884 0.67165 0.07812 0.0
O116 O 0.38393 0.67206 0.00331 0.0
O117 O 0.36443 0.74482 0.21726 0.0
C118 C 0.36425 0.80883 0.03215 0.0
C119 C 0.37184 0.65058 0.03781 0.0
Zn120 Zn 0.65294 0.23823 0.9262 0.0
Zn121 Zn 0.60682 0.24646 0.06363 0.0
C122 C 0.64867 0.22717 0.77154 0.0
O123 O 0.66123 0.19276 0.78984 0.0
C124 C 0.62172 0.27125 0.21266 0.0
O125 O 0.62897 0.30485 0.17569 0.0
O126 O 0.68027 0.24255 0.91632 0.0
O127 O 0.64122 0.27758 0.01221 0.0
O128 O 0.61271 0.30906 0.02309 0.0
C129 C 0.68577 0.27501 0.87543 0.0
O130 O 0.67352 0.30811 0.84996 0.0
O131 O 0.64175 0.25487 0.82416 0.0
C132 C 0.56853 0.24602 0.10121 0.0
O133 O 0.57484 0.25795 0.16833 0.0
O134 O 0.57982 0.23843 0.04578 0.0
O135 O 0.62351 0.1952 0.01169 0.0
O136 O 0.64816 0.17096 0.94341 0.0
O137 O 0.61218 0.24296 0.17648 0.0
C138 C 0.62912 0.31173 0.99939 0.0
C139 C 0.63376 0.16193 0.97958 0.0
Zn140 Zn 0.34958 0.24362 0.89108 0.0
Zn141 Zn 0.39354 0.23741 0.0341 0.0
C142 C 0.35264 0.27997 0.74257 0.0
O143 O 0.33943 0.31024 0.77084 0.0
C144 C 0.37251 0.24725 0.17452 0.0
O145 O 0.36224 0.21856 0.13801 0.0
O146 O 0.32235 0.24061 0.87537 0.0
O147 O 0.36109 0.18328 0.94127 0.0
O148 O 0.38531 0.17266 0.01996 0.0
C149 C 0.31631 0.20511 0.84202 0.0
O150 O 0.32798 0.16853 0.82281 0.0
O151 O 0.36011 0.24787 0.78537 0.0
C152 C 0.42994 0.26861 0.0423 0.0
O153 O 0.42061 0.30919 0.06075 0.0
O154 O 0.42118 0.23304 0.0264 0.0
O155 O 0.38158 0.27517 0.95171 0.0
O156 O 0.35273 0.30338 0.94944 0.0
O157 O 0.38619 0.26217 0.14002 0.0
C158 C 0.37218 0.15663 0.98204 0.0
C159 C 0.3691 0.30712 0.97164 0.0
C160 C 0.22431 0.21835 0.59783 0.0
C161 C 0.20796 0.22229 0.64117 0.0
C162 C 0.24172 0.21522 0.63335 0.0
C163 C 0.24277 0.21589 0.71405 0.0
C164 C 0.22634 0.21977 0.75812 0.0
C165 C 0.20913 0.22298 0.72118 0.0
C166 C 0.259 0.21143 0.58456 0.0
C167 C 0.22691 0.22055 0.84429 0.0
C168 C 0.28855 0.16623 0.79899 0.0
C169 C 0.29692 0.20767 0.81586 0.0
C170 C 0.27063 0.16841 0.76817 0.0
C171 C 0.26112 0.21305 0.75222 0.0
C172 C 0.26939 0.25501 0.77048 0.0
C173 C 0.28713 0.25181 0.80287 0.0
C174 C 0.26204 0.12296 0.75118 0.0
C175 C 0.25979 0.30325 0.75342 0.0
H176 H 0.22352 0.21782 0.53608 0.0
H177 H 0.19657 0.22607 0.75526 0.0
H178 H 0.26731 0.24137 0.59806 0.0
H179 H 0.26776 0.17831 0.59732 0.0
H180 H 0.25581 0.21162 0.52259 0.0
H181 H 0.21284 0.22317 0.87017 0.0
H182 H 0.2349 0.18796 0.86483 0.0
H183 H 0.23412 0.25105 0.86507 0.0
H184 H 0.29607 0.13208 0.80947 0.0
H185 H 0.29362 0.28394 0.81525 0.0
H186 H 0.26002 0.11889 0.68877 0.0
H187 H 0.24819 0.12404 0.77844 0.0
H188 H 0.27075 0.09137 0.77161 0.0
H189 H 0.25768 0.30653 0.69097 0.0
H190 H 0.26784 0.33243 0.77367 0.0
H191 H 0.2459 0.30771 0.78065 0.0
C192 C 0.71029 0.30198 0.79066 0.0
C193 C 0.70499 0.27068 0.84583 0.0
C194 C 0.72779 0.29516 0.75576 0.0
C195 C 0.74028 0.2562 0.77676 0.0
C196 C 0.7352 0.22514 0.83367 0.0
C197 C 0.71762 0.23277 0.86758 0.0
C198 C 0.73278 0.32918 0.69553 0.0
C199 C 0.74823 0.18339 0.85786 0.0
C200 C 0.77904 0.21402 0.63822 0.0
C201 C 0.79404 0.23503 0.67016 0.0
C202 C 0.76144 0.22023 0.67272 0.0
C203 C 0.75883 0.24842 0.74014 0.0
C204 C 0.77393 0.26952 0.77267 0.0
C205 C 0.79134 0.26238 0.73756 0.0
C206 C 0.74562 0.19691 0.63688 0.0
C207 C 0.77167 0.3001 0.84418 0.0
H208 H 0.70061 0.33129 0.77333 0.0
H209 H 0.71363 0.20837 0.91009 0.0
H210 H 0.74562 0.34514 0.71197 0.0
H211 H 0.73562 0.30984 0.64054 0.0
H212 H 0.7216 0.3581 0.68653 0.0
H213 H 0.74222 0.16284 0.90348 0.0
H214 H 0.75168 0.15941 0.80813 0.0
H215 H 0.76141 0.19571 0.8789 0.0
H216 H 0.78104 0.1928 0.5863 0.0
H217 H 0.80282 0.27899 0.76261 0.0
H218 H 0.73441 0.22427 0.62074 0.0
H219 H 0.73966 0.17365 0.67869 0.0
H220 H 0.75 0.17542 0.58525 0.0
H221 H 0.76131 0.33075 0.83444 0.0
H222 H 0.78488 0.31365 0.8625 0.0
H223 H 0.76639 0.27963 0.89147 0.0
C224 C 0.27561 0.71277 0.13451 0.0
C225 C 0.29145 0.72896 0.16803 0.0
C226 C 0.25824 0.72049 0.17066 0.0
C227 C 0.25668 0.74518 0.24174 0.0
C228 C 0.27263 0.76124 0.27607 0.0
C229 C 0.2898 0.75283 0.23898 0.0
C230 C 0.24152 0.7026 0.13253 0.0
C231 C 0.27152 0.78788 0.3516 0.0
C232 C 0.20915 0.80439 0.29604 0.0
C233 C 0.20266 0.77146 0.34578 0.0
C234 C 0.22684 0.79669 0.26289 0.0
C235 C 0.23829 0.75494 0.2796 0.0
C236 C 0.23206 0.72226 0.33156 0.0
C237 C 0.21435 0.73101 0.36432 0.0
C238 C 0.23307 0.83264 0.20837 0.0
C239 C 0.24386 0.6773 0.35069 0.0
H240 H 0.27676 0.69423 0.07986 0.0
H241 H 0.30194 0.76558 0.2654 0.0
H242 H 0.23486 0.67878 0.17132 0.0
H243 H 0.23112 0.73277 0.12033 0.0
H244 H 0.24512 0.68307 0.07822 0.0
H245 H 0.28528 0.79738 0.37121 0.0
H246 H 0.2621 0.82086 0.34666 0.0
H247 H 0.26564 0.76619 0.39589 0.0
H248 H 0.20024 0.8358 0.28159 0.0
H249 H 0.20941 0.70525 0.40236 0.0
H250 H 0.23517 0.81625 0.15068 0.0
H251 H 0.24657 0.84431 0.22694 0.0
H252 H 0.22288 0.86428 0.20415 0.0
H253 H 0.2463 0.65489 0.29845 0.0
H254 H 0.2373 0.65646 0.39448 0.0
H255 H 0.2576 0.68572 0.37193 0.0
C256 C 0.7212 0.68307 0.12883 0.0
C257 C 0.70652 0.7177 0.14476 0.0
C258 C 0.7383 0.68381 0.16631 0.0
C259 C 0.7407 0.71976 0.22154 0.0
C260 C 0.72604 0.75527 0.23689 0.0
C261 C 0.70918 0.75396 0.19807 0.0
C262 C 0.75371 0.64568 0.14769 0.0
C263 C 0.728 0.79399 0.29579 0.0
C264 C 0.77789 0.69357 0.37179 0.0
C265 C 0.79221 0.7187 0.34469 0.0
C266 C 0.76095 0.6941 0.33276 0.0
C267 C 0.75841 0.71975 0.26438 0.0
C268 C 0.7728 0.74531 0.23693 0.0
C269 C 0.78946 0.74479 0.27772 0.0
C270 C 0.7458 0.66706 0.36449 0.0
C271 C 0.77072 0.7726 0.16378 0.0
H272 H 0.71929 0.65501 0.08766 0.0
H273 H 0.6979 0.7808 0.21107 0.0
H274 H 0.76641 0.66193 0.13101 0.0
H275 H 0.75715 0.62429 0.19897 0.0
H276 H 0.74994 0.62161 0.10074 0.0
H277 H 0.71544 0.8196 0.29972 0.0
H278 H 0.73064 0.77817 0.35264 0.0
H279 H 0.74006 0.81359 0.28186 0.0
H280 H 0.7799 0.67345 0.42359 0.0
H281 H 0.80051 0.76402 0.25603 0.0
H282 H 0.74241 0.63924 0.32294 0.0
H283 H 0.733 0.69124 0.37364 0.0
H284 H 0.74977 0.65002 0.4194 0.0
H285 H 0.76805 0.74826 0.11564 0.0
H286 H 0.78323 0.79063 0.15022 0.0
H287 H 0.75863 0.79963 0.16794 0.0
C288 C 0.14605 0.87004 0.46433 0.0
C289 C 0.12771 0.85938 0.47396 0.0
C290 C 0.15011 0.91691 0.45366 0.0
C291 C 0.13551 0.95383 0.45556 0.0
C292 C 0.11691 0.94268 0.45913 0.0
C293 C 0.11325 0.89552 0.46715 0.0
C294 C 0.17008 0.92701 0.446 0.0
C295 C 0.10088 0.98087 0.46187 0.0
C296 C 0.14122 0.07088 0.55437 0.0
C297 C 0.13829 0.10217 0.49396 0.0
C298 C 0.14144 0.02193 0.54184 0.0
C299 C 0.1394 0.00396 0.4666 0.0
C300 C 0.1382 0.03533 0.40457 0.0
C301 C 0.13718 0.08433 0.4192 0.0
C302 C 0.14241 0.98985 0.60985 0.0
C303 C 0.13709 0.01743 0.32328 0.0
H304 H 0.1573 0.84234 0.46968 0.0
H305 H 0.09901 0.88744 0.47334 0.0
H306 H 0.17145 0.95676 0.40683 0.0
H307 H 0.17541 0.93716 0.50265 0.0
H308 H 0.17891 0.89535 0.42459 0.0
H309 H 0.08724 0.96608 0.45996 0.0
H310 H 0.10159 0.00222 0.51531 0.0
H311 H 0.10165 0.00519 0.41349 0.0
H312 H 0.14211 0.08487 0.61211 0.0
H313 H 0.13526 0.10872 0.37233 0.0
H314 H 0.15371 0.96097 0.60215 0.0
H315 H 0.12923 0.97318 0.61499 0.0
H316 H 0.1448 0.0092 0.66408 0.0
H317 H 0.14663 0.98484 0.31396 0.0
H318 H 0.14055 0.04447 0.28191 0.0
H319 H 0.12283 0.00841 0.31115 0.0
C320 C 0.85271 0.38591 0.46416 0.0
C321 C 0.86793 0.36313 0.50217 0.0
C322 C 0.85322 0.43206 0.43761 0.0
C323 C 0.86908 0.45625 0.45217 0.0
C324 C 0.88517 0.43145 0.48315 0.0
C325 C 0.88447 0.38471 0.50678 0.0
C326 C 0.83613 0.45638 0.4011 0.0
C327 C 0.90234 0.45587 0.50025 0.0
C328 C 0.87365 0.58239 0.39037 0.0
C329 C 0.86674 0.60804 0.45491 0.0
C330 C 0.87377 0.53285 0.38669 0.0
C331 C 0.86754 0.50879 0.45045 0.0
C332 C 0.86039 0.535 0.51544 0.0
C333 C 0.8598 0.58446 0.51626 0.0
C334 C 0.8808 0.50634 0.31541 0.0
C335 C 0.85394 0.51074 0.58532 0.0
H336 H 0.84001 0.36874 0.4592 0.0
H337 H 0.8963 0.36691 0.53579 0.0
H338 H 0.82815 0.4789 0.44446 0.0
H339 H 0.8399 0.47964 0.3545 0.0
H340 H 0.82698 0.43039 0.37772 0.0
H341 H 0.9145 0.43012 0.51183 0.0
H342 H 0.90579 0.47842 0.45234 0.0
H343 H 0.89977 0.47924 0.55139 0.0
H344 H 0.87896 0.60111 0.34294 0.0
H345 H 0.85461 0.60467 0.56621 0.0
H346 H 0.87105 0.48046 0.29726 0.0
H347 H 0.89431 0.48607 0.32715 0.0
H348 H 0.8827 0.53056 0.26754 0.0
H349 H 0.84232 0.48962 0.57022 0.0
H350 H 0.84923 0.5363 0.63171 0.0
H351 H 0.86537 0.48594 0.60748 0.0
C352 C 0.86199 0.90187 0.41632 0.0
C353 C 0.86736 0.8735 0.47859 0.0
C354 C 0.86277 0.95112 0.42016 0.0
C355 C 0.86855 0.97247 0.48863 0.0
C356 C 0.87355 0.94399 0.55225 0.0
C357 C 0.87315 0.89474 0.54607 0.0
C358 C 0.85772 0.98019 0.35065 0.0
C359 C 0.87939 0.96553 0.62678 0.0
C360 C 0.8878 0.09225 0.48427 0.0
C361 C 0.8727 0.12255 0.5113 0.0
C362 C 0.88656 0.0434 0.47572 0.0
C363 C 0.86974 0.02448 0.49362 0.0
C364 C 0.85428 0.05507 0.51891 0.0
C365 C 0.85599 0.1037 0.52801 0.0
C366 C 0.90338 0.01189 0.44901 0.0
C367 C 0.83604 0.03633 0.5376 0.0
H368 H 0.85767 0.88539 0.36385 0.0
H369 H 0.87717 0.87283 0.59445 0.0
H370 H 0.84631 0.00789 0.36462 0.0
H371 H 0.86977 -0.00143 0.33237 0.0
H372 H 0.85334 0.95823 0.30202 0.0
H373 H 0.88226 0.93863 0.67155 0.0
H374 H 0.89205 0.98386 0.61796 0.0
H375 H 0.86837 0.99248 0.64782 0.0
H376 H 0.90078 0.10655 0.4715 0.0
H377 H 0.8442 0.127 0.54817 0.0
H378 H 0.89987 0.99064 0.39823 0.0
H379 H 0.90793 0.98666 0.49443 0.0
H380 H 0.91517 0.03236 0.43429 0.0
H381 H 0.83114 0.01609 0.48808 0.0
H382 H 0.82512 0.06507 0.55323 0.0
H383 H 0.8379 0.01159 0.58587 0.0
C384 C 0.14393 0.5823 0.5259 0.0
C385 C 0.12962 0.61207 0.49406 0.0
C386 C 0.14221 0.53387 0.53358 0.0
C387 C 0.12613 0.5147 0.50567 0.0
C388 C 0.11159 0.54489 0.47366 0.0
C389 C 0.11337 0.59362 0.46959 0.0
C390 C 0.15771 0.50316 0.57075 0.0
C391 C 0.09451 0.52553 0.44116 0.0
C392 C 0.13472 0.38384 0.45689 0.0
C393 C 0.12685 0.36385 0.5199 0.0
C394 C 0.13358 0.43314 0.44927 0.0
C395 C 0.12502 0.46277 0.50771 0.0
C396 C 0.11675 0.44245 0.57087 0.0
C397 C 0.11751 0.39303 0.57554 0.0
C398 C 0.14196 0.4535 0.37976 0.0
C399 C 0.10799 0.47271 0.63541 0.0
H400 H 0.1564 0.59706 0.5453 0.0
H401 H 0.1024 0.61703 0.44463 0.0
H402 H 0.1521 0.48226 0.61681 0.0
H403 H 0.16441 0.47767 0.52811 0.0
H404 H 0.16847 0.52427 0.5954 0.0
H405 H 0.08417 0.55399 0.42099 0.0
H406 H 0.09852 0.50115 0.39244 0.0
H407 H 0.08786 0.50471 0.48451 0.0
H408 H 0.14177 0.36088 0.4137 0.0
H409 H 0.11153 0.37714 0.62441 0.0
H410 H 0.15445 0.4709 0.3965 0.0
H411 H 0.13199 0.48091 0.35434 0.0
H412 H 0.14604 0.42591 0.33554 0.0
H413 H 0.11881 0.49109 0.6653 0.0
H414 H 0.10104 0.45154 0.67758 0.0
H415 H 0.09767 0.5004 0.61313 0.0
C416 C 0.64978 0.58444 0.97556 0.0
C417 C 0.63424 0.60656 0.0137 0.0
C418 C 0.65167 0.53517 0.96319 0.0
C419 C 0.63802 0.50779 0.99238 0.0
C420 C 0.62255 0.53023 0.03274 0.0
C421 C 0.62067 0.57954 0.04148 0.0
C422 C 0.66794 0.51263 0.91747 0.0
C423 C 0.608 0.50219 0.06701 0.0
C424 C 0.6267 0.38653 0.92763 0.0
C425 C 0.63499 0.35871 0.98545 0.0
C426 C 0.62933 0.43476 0.92405 0.0
C427 C 0.63968 0.45559 0.98202 0.0
C428 C 0.649 0.42673 0.03769 0.0
C429 C 0.64679 0.37826 0.03779 0.0
C430 C 0.61986 0.46402 0.86181 0.0
C431 C 0.65964 0.44762 0.10197 0.0
H432 H 0.66012 0.60585 0.95345 0.0
H433 H 0.6087 0.59706 0.07112 0.0
H434 H 0.67591 0.48496 0.95113 0.0
H435 H 0.66285 0.49491 0.8657 0.0
H436 H 0.67744 0.53888 0.89962 0.0
H437 H 0.59756 0.52485 0.10106 0.0
H438 H 0.60067 0.48415 0.02108 0.0
H439 H 0.61463 0.47436 0.10444 0.0
H440 H 0.61765 0.37098 0.88706 0.0
H441 H 0.65305 0.35643 0.08279 0.0
H442 H 0.62908 0.4898 0.83996 0.0
H443 H 0.60722 0.4844 0.88513 0.0
H444 H 0.6157 0.44153 0.81344 0.0
H445 H 0.66895 0.4731 0.08015 0.0
H446 H 0.66803 0.41994 0.13431 0.0
H447 H 0.64971 0.46736 0.14205 0.0
C448 C 0.37217 0.87495 0.95164 0.0
C449 C 0.36291 0.85925 0.01493 0.0
C450 C 0.37237 0.9235 0.93869 0.0
C451 C 0.3638 0.95658 0.99232 0.0
C452 C 0.35413 0.94062 0.05558 0.0
C453 C 0.35354 0.89198 0.0654 0.0
C454 C 0.38228 0.93931 0.86924 0.0
C455 C 0.34529 0.97473 0.11518 0.0
C456 C 0.38356 0.07435 0.01885 0.0
C457 C 0.37008 0.10535 0.98362 0.0
C458 C 0.38182 0.02568 0.02069 0.0
C459 C 0.36625 0.00757 0.98632 0.0
C460 C 0.3527 0.03846 0.94987 0.0
C461 C 0.35474 0.08706 0.9493 0.0
C462 C 0.39651 0.99374 0.06054 0.0
C463 C 0.33598 0.02026 0.91215 0.0
H464 H 0.37936 0.84927 0.91278 0.0
H465 H 0.34656 0.87945 0.11476 0.0
H466 H 0.37344 0.96721 0.83934 0.0
H467 H 0.39511 0.95483 0.88703 0.0
H468 H 0.3861 0.90953 0.82845 0.0
H469 H 0.33756 0.95663 0.15891 0.0
H470 H 0.35617 0.99331 0.14432 0.0
H471 H 0.33564 0.00209 0.08802 0.0
H472 H 0.39551 0.08807 0.04524 0.0
H473 H 0.3442 0.11073 0.92244 0.0
H474 H 0.40261 0.96586 0.02035 0.0
H475 H 0.39018 0.97565 0.10817 0.0
H476 H 0.40785 0.01342 0.08379 0.0
H477 H 0.34045 0.99163 0.87027 0.0
H478 H 0.3273 0.04859 0.88234 0.0
H479 H 0.32731 0.00483 0.95555 0.0
C480 C 0.36189 0.37712 0.05706 0.0
C481 C 0.37394 0.3519 0.0053 0.0
C482 C 0.36396 0.42459 0.07524 0.0
C483 C 0.37796 0.44734 0.03828 0.0
C484 C 0.39112 0.4207 0.99113 0.0
C485 C 0.38906 0.37291 0.97588 0.0
C486 C 0.35017 0.45135 0.12853 0.0
C487 C 0.40616 0.44362 0.95008 0.0
C488 C 0.36392 0.57407 0.98365 0.0
C489 C 0.37383 0.59894 0.03645 0.0
C490 C 0.36535 0.52451 0.98341 0.0
C491 C 0.3768 0.49973 0.03799 0.0
C492 C 0.38687 0.525 0.0914 0.0
C493 C 0.38529 0.5746 0.08978 0.0
C494 C 0.35456 0.4987 0.92495 0.0
C495 C 0.39901 0.49978 0.15077 0.0
H496 H 0.35033 0.3604 0.08037 0.0
H497 H 0.39833 0.35322 0.93554 0.0
H498 H 0.35714 0.47552 0.16699 0.0
H499 H 0.33979 0.47329 0.09468 0.0
H500 H 0.34273 0.42703 0.16376 0.0
H501 H 0.41708 0.41697 0.92711 0.0
H502 H 0.39993 0.46416 0.90167 0.0
H503 H 0.41272 0.46865 0.98834 0.0
H504 H 0.35506 0.59344 0.94278 0.0
H505 H 0.39282 0.59448 0.13072 0.0
H506 H 0.34443 0.47818 0.95411 0.0
H507 H 0.36407 0.47313 0.89162 0.0
H508 H 0.3469 0.52322 0.88473 0.0
H509 H 0.3904 0.48007 0.18897 0.0
H510 H 0.40652 0.52465 0.18602 0.0
H511 H 0.4093 0.47343 0.12312 0.0
C512 C 0.61246 0.09905 0.9661 0.0
C513 C 0.6297 0.11291 0.98818 0.0
C514 C 0.60893 0.05138 0.969 0.0
C515 C 0.62277 0.01771 0.99743 0.0
C516 C 0.63991 0.03226 0.02293 0.0
C517 C 0.64332 0.07969 0.0164 0.0
C518 C 0.59076 0.03684 0.93896 0.0
C519 C 0.65476 -0.00234 0.05621 0.0
C520 C 0.6123 0.89837 0.06901 0.0
C521 C 0.62093 0.86845 0.01265 0.0
C522 C 0.61192 0.9476 0.06319 0.0
C523 C 0.61986 0.96682 0.99829 0.0
C524 C 0.62722 0.9365 0.93836 0.0
C525 C 0.62802 0.88741 0.94706 0.0
C526 C 0.6044 0.97867 0.12913 0.0
C527 C 0.63517 0.95581 0.86705 0.0
H528 H 0.60204 0.12519 0.94388 0.0
H529 H 0.65657 0.09099 0.03397 0.0
H530 H 0.5934 0.01348 0.88787 0.0
H531 H 0.58394 0.01623 0.98209 0.0
H532 H 0.58107 0.06778 0.92296 0.0
H533 H 0.66655 0.01557 0.07968 0.0
H534 H 0.64886 0.97744 0.10244 0.0
H535 H 0.66016 0.97178 0.01151 0.0
H536 H 0.60692 0.88322 0.11984 0.0
H537 H 0.63452 0.8638 0.90337 0.0
H538 H 0.595 0.00886 0.10856 0.0
H539 H 0.61607 0.99361 0.15907 0.0
H540 H 0.59678 0.95876 0.1709 0.0
H541 H 0.62578 0.98564 0.84508 0.0
H542 H 0.63753 0.92826 0.82131 0.0
H543 H 0.64862 0.96966 0.88054 0.0
C544 C 0.11531 0.20356 0.17521 0.0
C545 C 0.11391 0.2415 0.22797 0.0
C546 C 0.11892 0.21057 0.09789 0.0
C547 C 0.12085 0.25683 0.07222 0.0
C548 C 0.1191 0.29551 0.12486 0.0
C549 C 0.11583 0.28732 0.20239 0.0
C550 C 0.12114 0.1682 0.04406 0.0
C551 C 0.12078 0.34543 0.09932 0.0
C552 C 0.14909 0.26708 0.89213 0.0
C553 C 0.13532 0.27087 0.83597 0.0
C554 C 0.14455 0.26277 0.96924 0.0
C555 C 0.1257 0.26406 0.99102 0.0
C556 C 0.11167 0.26961 0.93469 0.0
C557 C 0.11668 0.27195 0.85737 0.0
C558 C 0.15997 0.25514 0.02696 0.0
C559 C 0.09142 0.27262 0.95608 0.0
H560 H 0.11395 0.168 0.1946 0.0
H561 H 0.11465 0.31682 0.24284 0.0
H562 H 0.11102 0.17281 0.99677 0.0
H563 H 0.1352 0.16506 0.01822 0.0
H564 H 0.11913 0.1346 0.07313 0.0
H565 H 0.11792 0.3719 0.14635 0.0
H566 H 0.13495 0.34842 0.07723 0.0
H567 H 0.11099 0.3543 0.05191 0.0
H568 H 0.16354 0.26564 0.87535 0.0
H569 H 0.10605 0.27512 0.81378 0.0
H570 H 0.15917 0.22074 0.05528 0.0
H571 H 0.15843 0.28317 0.07204 0.0
H572 H 0.17391 0.2552 1.00058 0.0
H573 H 0.08809 0.23852 0.97999 0.0
H574 H 0.08223 0.28088 0.90643 0.0
H575 H 0.0883 0.30031 1.00101 0.0
C576 C 0.85641 0.26932 0.22175 0.0
C577 C 0.87177 0.2831 0.26203 0.0
C578 C 0.8552 0.27385 0.14229 0.0
C579 C 0.86972 0.29257 0.10209 0.0
C580 C 0.88504 0.30765 0.14255 0.0
C581 C 0.88586 0.30288 0.22209 0.0
C582 C 0.83857 0.25762 0.10114 0.0
C583 C 0.90079 0.32772 0.1016 0.0
C584 C 0.87368 0.25776 0.89205 0.0
C585 C 0.86414 0.29714 0.85773 0.0
C586 C 0.87611 0.25638 0.97148 0.0
C587 C 0.86893 0.29544 0.0175 0.0
C588 C 0.86008 0.33616 0.98285 0.0
C589 C 0.85775 0.33648 0.9034 0.0
C590 C 0.88566 0.21233 0.0064 0.0
C591 C 0.85237 0.37863 0.02995 0.0
H592 H 0.84544 0.25409 0.25211 0.0
H593 H 0.89781 0.31357 0.2527 0.0
H594 H 0.83172 0.28697 0.06734 0.0
H595 H 0.84307 0.22831 0.06053 0.0
H596 H 0.82822 0.24515 0.14098 0.0
H597 H 0.9114 0.33933 0.14164 0.0
H598 H 0.90759 0.30062 0.06167 0.0
H599 H 0.89542 0.35836 0.067 0.0
H600 H 0.87864 0.22718 0.85724 0.0
H601 H 0.85045 0.36716 0.87731 0.0
H602 H 0.87561 0.19497 0.04153 0.0
H603 H 0.89695 0.22166 0.04484 0.0
H604 H 0.89158 0.18643 0.96253 0.0
H605 H 0.84082 0.36878 0.06614 0.0
H606 H 0.84711 0.4088 0.99397 0.0
H607 H 0.86316 0.39049 0.06876 0.0
C608 C 0.14963 0.70361 0.13633 0.0
C609 C 0.14069 0.73362 0.19218 0.0
C610 C 0.14553 0.70949 0.05892 0.0
C611 C 0.13212 0.74616 0.03691 0.0
C612 C 0.12286 0.77626 0.09294 0.0
C613 C 0.1273 0.76969 0.17014 0.0
C614 C 0.15573 0.67679 1.00064 0.0
C615 C 0.10841 0.81556 0.07124 0.0
C616 C 0.13517 0.78763 0.83362 0.0
C617 C 0.12181 0.76258 0.79722 0.0
C618 C 0.13843 0.78327 0.91207 0.0
C619 C 0.12804 0.75327 0.95494 0.0
C620 C 0.11432 0.72853 0.91889 0.0
C621 C 0.11138 0.73343 0.84033 0.0
C622 C 0.15324 0.81001 0.94878 0.0
C623 C 0.10298 0.69628 0.96304 0.0
H624 H 0.16001 0.67568 0.15293 0.0
H625 H 0.12034 0.79296 0.21311 0.0
H626 H 0.1457 0.65849 0.96588 0.0
H627 H 0.16355 0.69762 0.96106 0.0
H628 H 0.16559 0.64964 0.02742 0.0
H629 H 0.10216 0.83511 0.12188 0.0
H630 H 0.11471 0.84101 0.03424 0.0
H631 H 0.09721 0.80088 0.03789 0.0
H632 H 0.14326 0.81026 0.8007 0.0
H633 H 0.10099 0.71408 0.81262 0.0
H634 H 0.16429 0.78463 0.9723 0.0
H635 H 0.1473 0.83224 0.99717 0.0
H636 H 0.15965 0.83312 0.90791 0.0
H637 H 0.11219 0.66664 0.98664 0.0
H638 H 0.09228 0.68124 0.92711 0.0
H639 H 0.09601 0.7159 0.01205 0.0
C640 C 0.87113 0.70685 0.80095 0.0
C641 C 0.88965 0.70414 0.77673 0.0
C642 C 0.86656 0.71102 0.8789 0.0
C643 C 0.88082 0.71375 0.9336 0.0
C644 C 0.89954 0.71029 0.90948 0.0
C645 C 0.90373 0.70497 0.83144 0.0
C646 C 0.84645 0.7136 0.90261 0.0
C647 C 0.91511 0.71408 0.96584 0.0
C648 C 0.86783 0.77976 0.11907 0.0
C649 C 0.86687 0.74264 0.17015 0.0
C650 C 0.87253 0.77077 0.04224 0.0
C651 C 0.87612 0.72341 0.01544 0.0
C652 C 0.8753 0.6857 0.06681 0.0
C653 C 0.87083 0.69578 0.14383 0.0
C654 C 0.87356 0.81202 0.98966 0.0
C655 C 0.87879 0.63475 0.0401 0.0
H656 H 0.86021 0.70589 0.75891 0.0
H657 H 0.91807 0.70324 0.81308 0.0
H658 H 0.84456 0.68735 0.94742 0.0
H659 H 0.84208 0.74915 0.92744 0.0
H660 H 0.8372 0.70692 0.85391 0.0
H661 H 0.92897 0.70887 0.93821 0.0
H662 H 0.91358 0.74952 0.99423 0.0
H663 H 0.91447 0.68746 0.01106 0.0
H664 H 0.86483 0.81604 0.13913 0.0
H665 H 0.86994 0.66693 0.18293 0.0
H666 H 0.86321 0.81035 0.94333 0.0
H667 H 0.88743 0.81015 0.9624 0.0
H668 H 0.87092 0.84672 0.02005 0.0
H669 H 0.86868 0.62724 0.99501 0.0
H670 H 0.87763 0.60954 0.08722 0.0
H671 H 0.89282 0.62825 0.0145 0.0
C672 C 0.62146 0.75939 0.3611 0.0
C673 C 0.63858 0.73552 0.3398 0.0
C674 C 0.61597 0.76322 0.43831 0.0
C675 C 0.62793 0.74304 0.49547 0.0
C676 C 0.64549 0.72046 0.47434 0.0
C677 C 0.65054 0.71681 0.39703 0.0
C678 C 0.59713 0.78754 0.45853 0.0
C679 C 0.65877 0.69881 0.53325 0.0
C680 C 0.62076 0.77358 0.70723 0.0
C681 C 0.61232 0.73418 0.73265 0.0
C682 C 0.62545 0.77781 0.62974 0.0
C683 C 0.62165 0.74177 0.57655 0.0
C684 C 0.61283 0.70246 0.6018 0.0
C685 C 0.60828 0.69919 0.67922 0.0
C686 C 0.63486 0.82026 0.60509 0.0
C687 C 0.6086 0.66308 0.54729 0.0
H688 H 0.61219 0.77418 0.31736 0.0
H689 H 0.66392 0.69887 0.38145 0.0
H690 H 0.58826 0.76132 0.48148 0.0
H691 H 0.5984 0.81483 0.50387 0.0
H692 H 0.59008 0.80461 0.40851 0.0
H693 H 0.67241 0.68559 0.50812 0.0
H694 H 0.66105 0.72517 0.57893 0.0
H695 H 0.65274 0.66878 0.56048 0.0
H696 H 0.62389 0.80089 0.74796 0.0
H697 H 0.60173 0.66864 0.69798 0.0
H698 H 0.62726 0.8377 0.55674 0.0
H699 H 0.64909 0.80867 0.58468 0.0
H700 H 0.63575 0.84668 0.65219 0.0
H701 H 0.60032 0.67776 0.49853 0.0
H702 H 0.60086 0.63613 0.57518 0.0
H703 H 0.62171 0.6452 0.52369 0.0
C704 C 0.37099 0.76283 0.71275 0.0
C705 C 0.38961 0.76009 0.73531 0.0
C706 C 0.36605 0.76893 0.63576 0.0
C707 C 0.38005 0.77292 0.58044 0.0
C708 C 0.39878 0.77179 0.60334 0.0
C709 C 0.40334 0.76517 0.68034 0.0
C710 C 0.34593 0.76951 0.61324 0.0
C711 C 0.41409 0.77638 0.54617 0.0
C712 C 0.37157 0.73567 0.37558 0.0
C713 C 0.36654 0.77927 0.34133 0.0
C714 C 0.37573 0.73316 0.45354 0.0
C715 C 0.37531 0.77539 0.498 0.0
C716 C 0.37069 0.81966 0.46339 0.0
C717 C 0.36612 0.82103 0.38551 0.0
C718 C 0.38026 0.68521 0.48857 0.0
C719 C 0.37051 0.86546 0.50866 0.0
H720 H 0.36031 0.75896 0.75488 0.0
H721 H 0.41775 0.76354 0.69731 0.0
H722 H 0.34158 0.80183 0.58073 0.0
H723 H 0.34406 0.73863 0.57523 0.0
H724 H 0.33664 0.76825 0.66347 0.0
H725 H 0.42778 0.77813 0.57394 0.0
H726 H 0.41508 0.74561 0.50592 0.0
H727 H 0.41094 0.80866 0.51197 0.0
H728 H 0.37165 0.70321 0.34195 0.0
H729 H 0.36222 0.85477 0.35916 0.0
H730 H 0.37047 0.68041 0.53585 0.0
H731 H 0.3944 0.68279 0.51325 0.0
H732 H 0.37955 0.65573 0.44642 0.0
H733 H 0.36025 0.86597 0.55573 0.0
H734 H 0.36703 0.89695 0.47285 0.0
H735 H 0.38427 0.86829 0.53508 0.0
C736 C 0.6375 0.29211 0.33363 0.0
C737 C 0.6246 0.26632 0.29573 0.0
C738 C 0.64069 0.28696 0.41206 0.0
C739 C 0.6306 0.25562 0.4536 0.0
C740 C 0.6173 0.23016 0.41602 0.0
C741 C 0.61453 0.23563 0.33738 0.0
C742 C 0.65514 0.31428 0.45014 0.0
C743 C 0.6062 0.19665 0.45866 0.0
C744 C 0.65256 0.20506 0.63394 0.0
C745 C 0.64346 0.23407 0.69072 0.0
C746 C 0.64838 0.2115 0.55668 0.0
C747 C 0.63467 0.2477 0.53558 0.0
C748 C 0.62521 0.27672 0.59252 0.0
C749 C 0.62977 0.26967 0.66961 0.0
C750 C 0.65883 0.17995 0.49757 0.0
C751 C 0.61038 0.31538 0.57191 0.0
H752 H 0.64535 0.31583 0.30179 0.0
H753 H 0.60444 0.21581 0.30855 0.0
H754 H 0.64891 0.3357 0.49885 0.0
H755 H 0.66635 0.28927 0.47342 0.0
H756 H 0.66139 0.33824 0.4102 0.0
H757 H 0.59573 0.18139 0.42183 0.0
H758 H 0.61562 0.16721 0.48168 0.0
H759 H 0.599 0.21533 0.50799 0.0
H760 H 0.66318 0.17746 0.6497 0.0
H761 H 0.62266 0.29213 0.71323 0.0
H762 H 0.66641 0.20172 0.45858 0.0
H763 H 0.64899 0.16134 0.46232 0.0
H764 H 0.66893 0.15307 0.52363 0.0
H765 H 0.61641 0.34183 0.53598 0.0
H766 H 0.60392 0.33386 0.62308 0.0
H767 H 0.5994 0.30031 0.5378 0.0
C768 C 0.38081 0.28657 0.29764 0.0
C769 C 0.36946 0.2575 0.25711 0.0
C770 C 0.37892 0.29335 0.37701 0.0
C771 C 0.36539 0.27049 0.4167 0.0
C772 C 0.35367 0.24187 0.37593 0.0
C773 C 0.35582 0.23583 0.29671 0.0
C774 C 0.39161 0.32426 0.41861 0.0
C775 C 0.33906 0.2169 0.41621 0.0
C776 C 0.37022 0.24552 0.62827 0.0
C777 C 0.35731 0.28033 0.66025 0.0
C778 C 0.37344 0.24286 0.54924 0.0
C779 C 0.36353 0.27581 0.50106 0.0
C780 C 0.35098 0.31205 0.53325 0.0
C781 C 0.34803 0.31389 0.61244 0.0
C782 C 0.38698 0.20375 0.51708 0.0
C783 C 0.34017 0.34786 0.48376 0.0
H784 H 0.39138 0.30348 0.26756 0.0
H785 H 0.347 0.21326 0.26604 0.0
H786 H 0.38333 0.35291 0.45089 0.0
H787 H 0.40006 0.30299 0.46071 0.0
H788 H 0.4011 0.34052 0.3792 0.0
H789 H 0.33086 0.19654 0.37605 0.0
H790 H 0.3457 0.19216 0.45859 0.0
H791 H 0.32944 0.24302 0.44793 0.0
H792 H 0.37748 0.21952 0.66475 0.0
H793 H 0.33807 0.34102 0.6366 0.0
H794 H 0.39725 0.21866 0.47977 0.0
H795 H 0.37945 0.17922 0.48137 0.0
H796 H 0.39451 0.18308 0.56254 0.0
H797 H 0.34969 0.36501 0.44581 0.0
H798 H 0.33195 0.37578 0.51798 0.0
H799 H 0.33056 0.32971 0.44664 0.0
C800 C 0.04247 0.22784 0.47296 0.0
C801 C 0.04986 0.27136 0.46442 0.0
C802 C 0.02327 0.22486 0.47127 0.0
C803 C 0.01116 0.26641 0.46101 0.0
C804 C 0.01851 0.31051 0.453 0.0
C805 C 0.03778 0.31244 0.45472 0.0
C806 C 0.01594 0.17716 0.47964 0.0
C807 C 0.00603 0.35557 0.44184 0.0
C808 C 0.96318 0.25189 0.38309 0.0
C809 C 0.95227 0.25668 0.44944 0.0
C810 C 0.98233 0.25536 0.38601 0.0
C811 C 0.99082 0.26352 0.45708 0.0
C812 C 0.9799 0.26843 0.5243 0.0
C813 C 0.96073 0.26511 0.51966 0.0
C814 C 0.99349 0.25022 0.31299 0.0
C815 C 0.9885 0.27695 0.60113 0.0
H816 H 0.05171 0.1959 0.48028 0.0
H817 H 0.04337 0.34622 0.44812 0.0
H818 H 0.00617 0.1782 0.52853 0.0
H819 H 0.00811 0.1684 0.42775 0.0
H820 H 0.02718 0.14838 0.48869 0.0
H821 H 0.01393 0.38712 0.43797 0.0
H822 H 0.99784 0.35261 0.38884 0.0
H823 H 0.99605 0.36124 0.48988 0.0
H824 H 0.95675 0.24562 0.3285 0.0
H825 H 0.95239 0.26884 0.57116 0.0
H826 H 0.00426 0.21985 0.31692 0.0
H827 H 0.00076 0.28238 0.30426 0.0
H828 H 0.98474 0.24459 0.26225 0.0
H829 H 0.9991 0.24734 0.61403 0.0
H830 H 0.97808 0.28027 0.64791 0.0
H831 H 0.99567 0.30977 0.60018 0.0
C832 C 0.95759 0.78536 0.60268 0.0
C833 C 0.94743 0.7521 0.56558 0.0
C834 C 0.97702 0.77853 0.60655 0.0
C835 C 0.98649 0.73744 0.57259 0.0
C836 C 0.97632 0.70387 0.5348 0.0
C837 C 0.95694 0.71162 0.53167 0.0
C838 C 0.9874 0.81513 0.64738 0.0
C839 C 0.98592 0.65961 0.498 0.0
C840 C 0.03744 0.74095 0.5247 0.0
C841 C 0.04609 0.71742 0.58673 0.0
C842 C 0.01806 0.74727 0.51899 0.0
C843 C 0.00705 0.72957 0.5766 0.0
C844 C 0.01567 0.70485 0.63846 0.0
C845 C 0.03509 0.69904 0.64276 0.0
C846 C 0.00936 0.77369 0.45204 0.0
C847 C 0.00438 0.68537 0.70091 0.0
H848 H 0.95037 0.81669 0.62912 0.0
H849 H 0.94922 0.68563 0.50307 0.0
H850 H 0.9955 0.79857 0.69521 0.0
H851 H 0.99741 0.82916 0.6078 0.0
H852 H 0.97799 0.84522 0.67049 0.0
H853 H 0.97601 0.63709 0.47053 0.0
H854 H 0.9959 0.66921 0.45421 0.0
H855 H 0.99396 0.63842 0.5414 0.0
H856 H 0.04581 0.75529 0.48113 0.0
H857 H 0.04164 0.68081 0.6909 0.0
H858 H 0.00095 0.80616 0.47265 0.0
H859 H 0.99985 0.75149 0.42144 0.0
H860 H 0.01986 0.78405 0.41096 0.0
H861 H 0.99583 0.71476 0.73036 0.0
H862 H 0.0132 0.6658 0.74393 0.0
H863 H 0.99473 0.66119 0.67614 0.0
C864 C 0.53389 0.78844 0.88578 0.0
C865 C 0.54559 0.76604 0.94063 0.0
C866 C 0.51454 0.78874 0.8913 0.0
C867 C 0.50671 0.76664 0.95372 0.0
C868 C 0.51846 0.7436 0.00885 0.0
C869 C 0.53775 0.74332 1.00139 0.0
C870 C 0.50249 0.81297 0.83063 0.0
C871 C 0.51063 0.71999 0.07656 0.0
C872 C 0.45711 0.80815 0.01086 0.0
C873 C 0.44745 0.77115 0.98235 0.0
C874 C 0.47641 0.80704 0.0021 0.0
C875 C 0.48622 0.76849 0.9625 0.0
C876 C 0.47648 0.73143 0.93247 0.0
C877 C 0.45724 0.73296 0.94348 0.0
C878 C 0.48634 0.84693 0.03582 0.0
C879 C 0.48636 0.69031 0.88829 0.0
H880 H 0.53983 0.8058 0.83834 0.0
H881 H 0.54669 0.72598 0.04405 0.0
H882 H 0.49313 0.78803 0.80588 0.0
H883 H 0.49362 0.84315 0.85635 0.0
H884 H 0.51077 0.82646 0.78382 0.0
H885 H 0.52164 0.70328 0.11405 0.0
H886 H 0.50172 0.74645 0.11081 0.0
H887 H 0.50178 0.6924 0.05687 0.0
H888 H 0.44961 0.83777 0.04089 0.0
H889 H 0.44981 0.70456 0.92036 0.0
H890 H 0.49369 0.86435 0.99026 0.0
H891 H 0.49695 0.83266 0.07709 0.0
H892 H 0.47673 0.87411 0.06556 0.0
H893 H 0.4939 0.70352 0.83916 0.0
H894 H 0.47668 0.66513 0.86656 0.0
H895 H 0.4968 0.67082 0.92512 0.0
C896 C 0.46029 0.30347 0.04778 0.0
C897 C 0.4504 0.2634 0.04522 0.0
C898 C 0.47968 0.29893 0.05377 0.0
C899 C 0.48932 0.25327 0.05844 0.0
C900 C 0.47941 0.21268 0.05534 0.0
C901 C 0.46007 0.21824 0.04816 0.0
C902 C 0.48982 0.34301 0.05615 0.0
C903 C 0.48919 0.16347 0.06144 0.0
C904 C 0.54096 0.24166 0.01631 0.0
C905 C 0.54839 0.24444 0.08991 0.0
C906 C 0.52172 0.24372 0.00517 0.0
C907 C 0.50972 0.24819 0.06918 0.0
C908 C 0.51718 0.24941 0.14367 0.0
C909 C 0.53642 0.24772 0.1531 0.0
C910 C 0.51423 0.24244 0.9249 0.0
C911 C 0.50483 0.2535 0.21339 0.0
H912 H 0.45289 0.33844 0.0452 0.0
H913 H 0.45248 0.18713 0.04674 0.0
H914 H 0.49703 0.34573 0.11162 0.0
H915 H 0.50056 0.34099 0.01074 0.0
H916 H 0.48035 0.37574 0.04857 0.0
H917 H 0.47949 0.13556 0.05632 0.0
H918 H 0.49992 0.15725 0.01627 0.0
H919 H 0.49639 0.15986 0.11718 0.0
H920 H 0.55013 0.2391 0.96723 0.0
H921 H 0.54207 0.24948 0.21021 0.0
H922 H 0.50574 0.27619 0.9133 0.0
H923 H 0.50502 0.21358 0.91838 0.0
H924 H 0.52542 0.23707 0.88141 0.0
H925 H 0.49608 0.28777 0.2133 0.0
H926 H 0.51287 0.25131 0.26735 0.0
H927 H 0.49536 0.225 0.21237 0.0
loop_
_geom_bond_atom_site_label_1
_geom_bond_atom_site_label_2
_geom_bond_distance
_geom_bond_site_symmetry_2
_ccdc_geom_bond_type
Zn0 O6 1.969 . S
Zn0 O7 1.965 . S
Zn0 O11 2.024 . S
Zn0 O16 1.969 . S
Zn1 O8 1.969 . S
Zn1 O14 1.969 . S
Zn1 O15 1.965 . S
Zn1 O17 2.024 . S
C2 O3 1.229 . S
C2 O11 1.058 . S
O3 C2 1.229 . S
C4 O5 1.229 . S
C4 O17 1.058 . S
O5 C4 1.229 . S
O6 Zn0 1.969 . S
O6 C9 1.267 . S
O7 Zn0 1.965 . S
O7 C18 1.260 . S
O8 Zn1 1.969 . S
O8 C18 1.258 . S
C9 O6 1.267 . S
C9 O10 1.228 . S
O10 C9 1.228 . S
O11 Zn0 2.024 . S
O11 C2 1.058 . S
C12 O13 1.228 . S
C12 O14 1.267 . S
O13 C12 1.228 . S
O14 Zn1 1.969 . S
O14 C12 1.267 . S
O15 Zn1 1.965 . S
O15 C19 1.260 . S
O16 Zn0 1.969 . S
O16 C19 1.258 . S
O17 Zn1 2.024 . S
O17 C4 1.058 . S
C18 O7 1.260 . S
C18 O8 1.258 . S
C19 O15 1.260 . S
C19 O16 1.258 . S
Zn20 O26 1.969 . S
Zn20 O27 1.965 . S
Zn20 O31 2.024 . S
Zn20 O36 1.969 . S
Zn21 O28 1.969 . S
Zn21 O34 1.969 . S
Zn21 O35 1.965 . S
Zn21 O37 2.024 . S
C22 O23 1.229 . S
C22 O31 1.058 . S
O23 C22 1.229 . S
C24 O25 1.229 . S
C24 O37 1.058 . S
O25 C24 1.229 . S
O26 Zn20 1.969 . S
O26 C29 1.267 . S
O27 Zn20 1.965 . S
O27 C38 1.260 . S
O28 Zn21 1.969 . S
O28 C38 1.258 . S
C29 O26 1.267 . S
C29 O30 1.228 . S
O30 C29 1.228 . S
O31 Zn20 2.024 . S
O31 C22 1.058 . S
C32 O33 1.228 . S
C32 O34 1.267 . S
O33 C32 1.228 . S
O34 Zn21 1.969 . S
O34 C32 1.267 . S
O35 Zn21 1.965 . S
O35 C39 1.260 . S
O36 Zn20 1.969 . S
O36 C39 1.258 . S
O37 Zn21 2.024 . S
O37 C24 1.058 . S
C38 O27 1.260 . S
C38 O28 1.258 . S
C39 O35 1.260 . S
C39 O36 1.258 . S
Zn40 O46 1.969 . S
Zn40 O47 1.965 . S
Zn40 O51 2.024 . S
Zn40 O56 1.969 . S
Zn41 O48 1.969 . S
Zn41 O54 1.969 . S
Zn41 O55 1.965 . S
Zn41 O57 2.024 . S
C42 O43 1.229 . S
C42 O51 1.058 . S
O43 C42 1.229 . S
C44 O45 1.229 . S
C44 O57 1.058 . S
O45 C44 1.229 . S
O46 Zn40 1.969 . S
O46 C49 1.267 . S
O47 Zn40 1.965 . S
O47 C58 1.260 . S
O48 Zn41 1.969 . S
O48 C58 1.258 . S
C49 O46 1.267 . S
C49 O50 1.228 . S
O50 C49 1.228 . S
O51 Zn40 2.024 . S
O51 C42 1.058 . S
C52 O53 1.228 . S
C52 O54 1.267 . S
O53 C52 1.228 . S
O54 Zn41 1.969 . S
O54 C52 1.267 . S
O55 Zn41 1.965 . S
O55 C59 1.260 . S
O56 Zn40 1.969 . S
O56 C59 1.258 . S
O57 Zn41 2.024 . S
O57 C44 1.058 . S
C58 O47 1.260 . S
C58 O48 1.258 . S
C59 O55 1.260 . S
C59 O56 1.258 . S
Zn60 O66 1.969 . S
Zn60 O67 1.965 . S
Zn60 O71 2.024 . S
Zn60 O76 1.969 . S
Zn61 O68 1.969 . S
Zn61 O74 1.969 . S
Zn61 O75 1.965 . S
Zn61 O77 2.024 . S
C62 O63 1.229 . S
C62 O71 1.058 . S
O63 C62 1.229 . S
C64 O65 1.229 . S
C64 O77 1.058 . S
O65 C64 1.229 . S
O66 Zn60 1.969 . S
O66 C69 1.267 . S
O67 Zn60 1.965 . S
O67 C78 1.260 . S
O68 Zn61 1.969 . S
O68 C78 1.258 . S
C69 O66 1.267 . S
C69 O70 1.228 . S
O70 C69 1.228 . S
O71 Zn60 2.024 . S
O71 C62 1.058 . S
C72 O73 1.228 . S
C72 O74 1.267 . S
O73 C72 1.228 . S
O74 Zn61 1.969 . S
O74 C72 1.267 . S
O75 Zn61 1.965 . S
O75 C79 1.260 . S
O76 Zn60 1.969 . S
O76 C79 1.258 . S
O77 Zn61 2.024 . S
O77 C64 1.058 . S
C78 O67 1.260 . S
C78 O68 1.258 . S
C79 O75 1.260 . S
C79 O76 1.258 . S
Zn80 O86 1.969 . S
Zn80 O87 1.965 . S
Zn80 O91 2.024 . S
Zn80 O96 1.969 . S
Zn81 O88 1.969 . S
Zn81 O94 1.969 . S
Zn81 O95 1.965 1_556 S
Zn81 O97 2.024 . S
C82 O83 1.229 . S
C82 O91 1.058 . S
O83 C82 1.229 . S
C84 O85 1.229 . S
C84 O97 1.058 . S
O85 C84 1.229 . S
O86 Zn80 1.969 . S
O86 C89 1.267 . S
O87 Zn80 1.965 . S
O87 C98 1.260 1_554 S
O88 Zn81 1.969 . S
O88 C98 1.258 . S
C89 O86 1.267 . S
C89 O90 1.228 . S
O90 C89 1.228 . S
O91 Zn80 2.024 . S
O91 C82 1.058 . S
C92 O93 1.228 . S
C92 O94 1.267 . S
O93 C92 1.228 . S
O94 Zn81 1.969 . S
O94 C92 1.267 . S
O95 Zn81 1.965 1_554 S
O95 C99 1.260 . S
O96 Zn80 1.969 . S
O96 C99 1.258 . S
O97 Zn81 2.024 . S
O97 C84 1.058 . S
C98 O87 1.260 1_556 S
C98 O88 1.258 . S
C99 O95 1.260 . S
C99 O96 1.258 . S
Zn100 O106 1.969 . S
Zn100 O107 1.965 1_556 S
Zn100 O111 2.024 . S
Zn100 O116 1.969 . S
Zn101 O108 1.969 . S
Zn101 O114 1.969 . S
Zn101 O115 1.965 . S
Zn101 O117 2.024 . S
C102 O103 1.229 . S
C102 O111 1.058 . S
O103 C102 1.229 . S
C104 O105 1.229 . S
C104 O117 1.058 . S
O105 C104 1.229 . S
O106 Zn100 1.969 . S
O106 C109 1.267 . S
O107 Zn100 1.965 1_554 S
O107 C118 1.260 . S
O108 Zn101 1.969 . S
O108 C118 1.258 . S
C109 O106 1.267 . S
C109 O110 1.228 . S
O110 C109 1.228 . S
O111 Zn100 2.024 . S
O111 C102 1.058 . S
C112 O113 1.228 . S
C112 O114 1.267 . S
O113 C112 1.228 . S
O114 Zn101 1.969 . S
O114 C112 1.267 . S
O115 Zn101 1.965 . S
O115 C119 1.260 1_554 S
O116 Zn100 1.969 . S
O116 C119 1.258 . S
O117 Zn101 2.024 . S
O117 C104 1.058 . S
C118 O107 1.260 . S
C118 O108 1.258 . S
C119 O115 1.260 1_556 S
C119 O116 1.258 . S
Zn120 O126 1.969 . S
Zn120 O127 1.965 . S
Zn120 O131 2.024 . S
Zn120 O136 1.969 . S
Zn121 O128 1.969 . S
Zn121 O134 1.969 . S
Zn121 O135 1.965 1_554 S
Zn121 O137 2.024 . S
C122 O123 1.229 . S
C122 O131 1.058 . S
O123 C122 1.229 . S
C124 O125 1.229 . S
C124 O137 1.058 . S
O125 C124 1.229 . S
O126 Zn120 1.969 . S
O126 C129 1.267 . S
O127 Zn120 1.965 . S
O127 C138 1.260 1_556 S
O128 Zn121 1.969 . S
O128 C138 1.258 . S
C129 O126 1.267 . S
C129 O130 1.228 . S
O130 C129 1.228 . S
O131 Zn120 2.024 . S
O131 C122 1.058 . S
C132 O133 1.228 . S
C132 O134 1.267 . S
O133 C132 1.228 . S
O134 Zn121 1.969 . S
O134 C132 1.267 . S
O135 Zn121 1.965 1_556 S
O135 C139 1.260 . S
O136 Zn120 1.969 . S
O136 C139 1.258 . S
O137 Zn121 2.024 . S
O137 C124 1.058 . S
C138 O127 1.260 1_554 S
C138 O128 1.258 . S
C139 O135 1.260 . S
C139 O136 1.258 . S
Zn140 O146 1.969 . S
Zn140 O147 1.965 . S
Zn140 O151 2.024 . S
Zn140 O156 1.969 . S
Zn141 O148 1.969 . S
Zn141 O154 1.969 . S
Zn141 O155 1.965 1_554 S
Zn141 O157 2.024 . S
C142 O143 1.229 . S
C142 O151 1.058 . S
O143 C142 1.229 . S
C144 O145 1.229 . S
C144 O157 1.058 . S
O145 C144 1.229 . S
O146 Zn140 1.969 . S
O146 C149 1.267 . S
O147 Zn140 1.965 . S
O147 C158 1.260 1_556 S
O148 Zn141 1.969 . S
O148 C158 1.258 . S
C149 O146 1.267 . S
C149 O150 1.228 . S
O150 C149 1.228 . S
O151 Zn140 2.024 . S
O151 C142 1.058 . S
C152 O153 1.228 . S
C152 O154 1.267 . S
O153 C152 1.228 . S
O154 Zn141 1.969 . S
O154 C152 1.267 . S
O155 Zn141 1.965 1_556 S
O155 C159 1.260 . S
O156 Zn140 1.969 . S
O156 C159 1.258 . S
O157 Zn141 2.024 . S
O157 C144 1.058 . S
C158 O147 1.260 1_554 S
C158 O148 1.258 . S
C159 O155 1.260 . S
C159 O156 1.258 . S
C160 C161 1.391 . S
C160 C162 1.394 . S
C160 H176 0.931 . S
C161 C160 1.391 . S
C161 C165 1.376 . S
C162 C160 1.394 . S
C162 C163 1.369 . S
C162 C166 1.531 . S
C163 C162 1.369 . S
C163 C164 1.410 . S
C163 C171 1.503 . S
C164 C163 1.410 . S
C164 C165 1.392 . S
C164 C167 1.511 . S
C165 C161 1.376 . S
C165 C164 1.392 . S
C165 H177 0.929 . S
C166 C162 1.531 . S
C166 H178 0.960 . S
C166 H179 0.962 . S
C166 H180 0.960 . S
C167 C164 1.511 . S
C167 H181 0.961 . S
C167 H182 0.961 . S
C167 H183 0.961 . S
C168 C169 1.370 . S
C168 C170 1.363 . S
C168 H184 0.931 . S
C169 C168 1.370 . S
C169 C173 1.408 . S
C170 C168 1.363 . S
C170 C171 1.370 . S
C170 C174 1.524 . S
C171 C163 1.503 . S
C171 C170 1.370 . S
C171 C172 1.403 . S
C172 C171 1.403 . S
C172 C173 1.404 . S
C172 C175 1.539 . S
C173 C169 1.408 . S
C173 C172 1.404 . S
C173 H185 0.930 . S
C174 C170 1.524 . S
C174 H186 0.956 . S
C174 H187 0.961 . S
C174 H188 0.961 . S
C175 C172 1.539 . S
C175 H189 0.958 . S
C175 H190 0.961 . S
C175 H191 0.960 . S
H176 C160 0.931 . S
H177 C165 0.929 . S
H178 C166 0.960 . S
H179 C166 0.962 . S
H180 C166 0.960 . S
H181 C167 0.961 . S
H182 C167 0.961 . S
H183 C167 0.961 . S
H184 C168 0.931 . S
H185 C173 0.930 . S
H186 C174 0.956 . S
H187 C174 0.961 . S
H188 C174 0.961 . S
H189 C175 0.958 . S
H190 C175 0.961 . S
H191 C175 0.960 . S
C192 C193 1.391 . S
C192 C194 1.394 . S
C192 H208 0.931 . S
C193 C192 1.391 . S
C193 C197 1.376 . S
C194 C192 1.394 . S
C194 C195 1.369 . S
C194 C198 1.531 . S
C195 C194 1.369 . S
C195 C196 1.410 . S
C195 C203 1.503 . S
C196 C195 1.410 . S
C196 C197 1.392 . S
C196 C199 1.511 . S
C197 C193 1.376 . S
C197 C196 1.392 . S
C197 H209 0.929 . S
C198 C194 1.531 . S
C198 H210 0.960 . S
C198 H211 0.962 . S
C198 H212 0.960 . S
C199 C196 1.511 . S
C199 H213 0.961 . S
C199 H214 0.961 . S
C199 H215 0.961 . S
C200 C201 1.370 . S
C200 C202 1.363 . S
C200 H216 0.931 . S
C201 C200 1.370 . S
C201 C205 1.408 . S
C202 C200 1.363 . S
C202 C203 1.370 . S
C202 C206 1.524 . S
C203 C195 1.503 . S
C203 C202 1.370 . S
C203 C204 1.403 . S
C204 C203 1.403 . S
C204 C205 1.404 . S
C204 C207 1.539 . S
C205 C201 1.408 . S
C205 C204 1.404 . S
C205 H217 0.930 . S
C206 C202 1.524 . S
C206 H218 0.956 . S
C206 H219 0.961 . S
C206 H220 0.961 . S
C207 C204 1.539 . S
C207 H221 0.958 . S
C207 H222 0.961 . S
C207 H223 0.960 . S
H208 C192 0.931 . S
H209 C197 0.929 . S
H210 C198 0.960 . S
H211 C198 0.962 . S
H212 C198 0.960 . S
H213 C199 0.961 . S
H214 C199 0.961 . S
H215 C199 0.961 . S
H216 C200 0.931 . S
H217 C205 0.930 . S
H218 C206 0.956 . S
H219 C206 0.961 . S
H220 C206 0.961 . S
H221 C207 0.958 . S
H222 C207 0.961 . S
H223 C207 0.960 . S
C224 C225 1.391 . S
C224 C226 1.394 . S
C224 H240 0.931 . S
C225 C224 1.391 . S
C225 C229 1.376 . S
C226 C224 1.394 . S
C226 C227 1.369 . S
C226 C230 1.531 . S
C227 C226 1.369 . S
C227 C228 1.410 . S
C227 C235 1.503 . S
C228 C227 1.410 . S
C228 C229 1.392 . S
C228 C231 1.511 . S
C229 C225 1.376 . S
C229 C228 1.392 . S
C229 H241 0.929 . S
C230 C226 1.531 . S
C230 H242 0.960 . S
C230 H243 0.962 . S
C230 H244 0.960 . S
C231 C228 1.511 . S
C231 H245 0.961 . S
C231 H246 0.961 . S
C231 H247 0.961 . S
C232 C233 1.370 . S
C232 C234 1.363 . S
C232 H248 0.931 . S
C233 C232 1.370 . S
C233 C237 1.408 . S
C234 C232 1.363 . S
C234 C235 1.370 . S
C234 C238 1.524 . S
C235 C227 1.503 . S
C235 C234 1.370 . S
C235 C236 1.403 . S
C236 C235 1.403 . S
C236 C237 1.404 . S
C236 C239 1.539 . S
C237 C233 1.408 . S
C237 C236 1.404 . S
C237 H249 0.930 . S
C238 C234 1.524 . S
C238 H250 0.956 . S
C238 H251 0.961 . S
C238 H252 0.961 . S
C239 C236 1.539 . S
C239 H253 0.958 . S
C239 H254 0.961 . S
C239 H255 0.960 . S
H240 C224 0.931 . S
H241 C229 0.929 . S
H242 C230 0.960 . S
H243 C230 0.962 . S
H244 C230 0.960 . S
H245 C231 0.961 . S
H246 C231 0.961 . S
H247 C231 0.961 . S
H248 C232 0.931 . S
H249 C237 0.930 . S
H250 C238 0.956 . S
H251 C238 0.961 . S
H252 C238 0.961 . S
H253 C239 0.958 . S
H254 C239 0.961 . S
H255 C239 0.960 . S
C256 C257 1.391 . S
C256 C258 1.394 . S
C256 H272 0.931 . S
C257 C256 1.391 . S
C257 C261 1.376 . S
C258 C256 1.394 . S
C258 C259 1.369 . S
C258 C262 1.531 . S
C259 C258 1.369 . S
C259 C260 1.410 . S
C259 C267 1.503 . S
C260 C259 1.410 . S
C260 C261 1.392 . S
C260 C263 1.511 . S
C261 C257 1.376 . S
C261 C260 1.392 . S
C261 H273 0.929 . S
C262 C258 1.531 . S
C262 H274 0.960 . S
C262 H275 0.962 . S
C262 H276 0.960 . S
C263 C260 1.511 . S
C263 H277 0.961 . S
C263 H278 0.961 . S
C263 H279 0.961 . S
C264 C265 1.370 . S
C264 C266 1.363 . S
C264 H280 0.931 . S
C265 C264 1.370 . S
C265 C269 1.408 . S
C266 C264 1.363 . S
C266 C267 1.370 . S
C266 C270 1.524 . S
C267 C259 1.503 . S
C267 C266 1.370 . S
C267 C268 1.403 . S
C268 C267 1.403 . S
C268 C269 1.404 . S
C268 C271 1.539 . S
C269 C265 1.408 . S
C269 C268 1.404 . S
C269 H281 0.930 . S
C270 C266 1.524 . S
C270 H282 0.956 . S
C270 H283 0.961 . S
C270 H284 0.961 . S
C271 C268 1.539 . S
C271 H285 0.958 . S
C271 H286 0.961 . S
C271 H287 0.960 . S
H272 C256 0.931 . S
H273 C261 0.929 . S
H274 C262 0.960 . S
H275 C262 0.962 . S
H276 C262 0.960 . S
H277 C263 0.961 . S
H278 C263 0.961 . S
H279 C263 0.961 . S
H280 C264 0.931 . S
H281 C269 0.930 . S
H282 C270 0.956 . S
H283 C270 0.961 . S
H284 C270 0.961 . S
H285 C271 0.958 . S
H286 C271 0.961 . S
H287 C271 0.960 . S
C288 C289 1.391 . S
C288 C290 1.394 . S
C288 H304 0.931 . S
C289 C288 1.391 . S
C289 C293 1.376 . S
C290 C288 1.394 . S
C290 C291 1.369 . S
C290 C294 1.531 . S
C291 C290 1.369 . S
C291 C292 1.410 . S
C291 C299 1.503 1_565 S
C292 C291 1.410 . S
C292 C293 1.392 . S
C292 C295 1.511 . S
C293 C289 1.376 . S
C293 C292 1.392 . S
C293 H305 0.929 . S
C294 C290 1.531 . S
C294 H306 0.960 . S
C294 H307 0.962 . S
C294 H308 0.960 . S
C295 C292 1.511 . S
C295 H309 0.961 . S
C295 H310 0.961 1_565 S
C295 H311 0.961 . S
C296 C297 1.370 . S
C296 C298 1.363 . S
C296 H312 0.931 . S
C297 C296 1.370 . S
C297 C301 1.408 . S
C298 C296 1.363 . S
C298 C299 1.370 . S
C298 C302 1.524 . S
C299 C291 1.503 1_545 S
C299 C298 1.370 . S
C299 C300 1.403 . S
C300 C299 1.403 . S
C300 C301 1.404 . S
C300 C303 1.539 . S
C301 C297 1.408 . S
C301 C300 1.404 . S
C301 H313 0.930 . S
C302 C298 1.524 . S
C302 H314 0.956 1_545 S
C302 H315 0.961 1_545 S
C302 H316 0.961 . S
C303 C300 1.539 . S
C303 H317 0.958 . S
C303 H318 0.961 . S
C303 H319 0.960 . S
H304 C288 0.931 . S
H305 C293 0.929 . S
H306 C294 0.960 . S
H307 C294 0.962 . S
H308 C294 0.960 . S
H309 C295 0.961 . S
H310 C295 0.961 1_545 S
H311 C295 0.961 . S
H312 C296 0.931 . S
H313 C301 0.930 . S
H314 C302 0.956 1_565 S
H315 C302 0.961 1_565 S
H316 C302 0.961 . S
H317 C303 0.958 . S
H318 C303 0.961 . S
H319 C303 0.960 . S
C320 C321 1.391 . S
C320 C322 1.394 . S
C320 H336 0.931 . S
C321 C320 1.391 . S
C321 C325 1.376 . S
C322 C320 1.394 . S
C322 C323 1.369 . S
C322 C326 1.531 . S
C323 C322 1.369 . S
C323 C324 1.410 . S
C323 C331 1.503 . S
C324 C323 1.410 . S
C324 C325 1.392 . S
C324 C327 1.511 . S
C325 C321 1.376 . S
C325 C324 1.392 . S
C325 H337 0.929 . S
C326 C322 1.531 . S
C326 H338 0.960 . S
C326 H339 0.962 . S
C326 H340 0.960 . S
C327 C324 1.511 . S
C327 H341 0.961 . S
C327 H342 0.961 . S
C327 H343 0.961 . S
C328 C329 1.370 . S
C328 C330 1.363 . S
C328 H344 0.931 . S
C329 C328 1.370 . S
C329 C333 1.408 . S
C330 C328 1.363 . S
C330 C331 1.370 . S
C330 C334 1.524 . S
C331 C323 1.503 . S
C331 C330 1.370 . S
C331 C332 1.403 . S
C332 C331 1.403 . S
C332 C333 1.404 . S
C332 C335 1.539 . S
C333 C329 1.408 . S
C333 C332 1.404 . S
C333 H345 0.930 . S
C334 C330 1.524 . S
C334 H346 0.956 . S
C334 H347 0.961 . S
C334 H348 0.961 . S
C335 C332 1.539 . S
C335 H349 0.958 . S
C335 H350 0.961 . S
C335 H351 0.960 . S
H336 C320 0.931 . S
H337 C325 0.929 . S
H338 C326 0.960 . S
H339 C326 0.962 . S
H340 C326 0.960 . S
H341 C327 0.961 . S
H342 C327 0.961 . S
H343 C327 0.961 . S
H344 C328 0.931 . S
H345 C333 0.930 . S
H346 C334 0.956 . S
H347 C334 0.961 . S
H348 C334 0.961 . S
H349 C335 0.958 . S
H350 C335 0.961 . S
H351 C335 0.960 . S
C352 C353 1.391 . S
C352 C354 1.394 . S
C352 H368 0.931 . S
C353 C352 1.391 . S
C353 C357 1.376 . S
C354 C352 1.394 . S
C354 C355 1.369 . S
C354 C358 1.531 . S
C355 C354 1.369 . S
C355 C356 1.410 . S
C355 C363 1.503 1_565 S
C356 C355 1.410 . S
C356 C357 1.392 . S
C356 C359 1.511 . S
C357 C353 1.376 . S
C357 C356 1.392 . S
C357 H369 0.929 . S
C358 C354 1.531 . S
C358 H370 0.960 1_565 S
C358 H371 0.962 . S
C358 H372 0.960 . S
C359 C356 1.511 . S
C359 H373 0.961 . S
C359 H374 0.961 1_565 S
C359 H375 0.961 . S
C360 C361 1.370 . S
C360 C362 1.363 . S
C360 H376 0.931 . S
C361 C360 1.370 . S
C361 C365 1.408 . S
C362 C360 1.363 . S
C362 C363 1.370 . S
C362 C366 1.524 . S
C363 C355 1.503 1_545 S
C363 C362 1.370 . S
C363 C364 1.403 . S
C364 C363 1.403 . S
C364 C365 1.404 . S
C364 C367 1.539 . S
C365 C361 1.408 . S
C365 C364 1.404 . S
C365 H377 0.930 . S
C366 C362 1.524 . S
C366 H378 0.956 1_545 S
C366 H379 0.961 1_545 S
C366 H380 0.961 . S
C367 C364 1.539 . S
C367 H381 0.958 . S
C367 H382 0.961 . S
C367 H383 0.960 . S
H368 C352 0.931 . S
H369 C357 0.929 . S
H370 C358 0.960 1_545 S
H371 C358 0.962 . S
H372 C358 0.960 . S
H373 C359 0.961 . S
H374 C359 0.961 1_545 S
H375 C359 0.961 . S
H376 C360 0.931 . S
H377 C365 0.930 . S
H378 C366 0.956 1_565 S
H379 C366 0.961 1_565 S
H380 C366 0.961 . S
H381 C367 0.958 . S
H382 C367 0.961 . S
H383 C367 0.960 . S
C384 C385 1.391 . S
C384 C386 1.394 . S
C384 H400 0.931 . S
C385 C384 1.391 . S
C385 C389 1.376 . S
C386 C384 1.394 . S
C386 C387 1.369 . S
C386 C390 1.531 . S
C387 C386 1.369 . S
C387 C388 1.410 . S
C387 C395 1.503 . S
C388 C387 1.410 . S
C388 C389 1.392 . S
C388 C391 1.511 . S
C389 C385 1.376 . S
C389 C388 1.392 . S
C389 H401 0.929 . S
C390 C386 1.531 . S
C390 H402 0.960 . S
C390 H403 0.962 . S
C390 H404 0.960 . S
C391 C388 1.511 . S
C391 H405 0.961 . S
C391 H406 0.961 . S
C391 H407 0.961 . S
C392 C393 1.370 . S
C392 C394 1.363 . S
C392 H408 0.931 . S
C393 C392 1.370 . S
C393 C397 1.408 . S
C394 C392 1.363 . S
C394 C395 1.370 . S
C394 C398 1.524 . S
C395 C387 1.503 . S
C395 C394 1.370 . S
C395 C396 1.403 . S
C396 C395 1.403 . S
C396 C397 1.404 . S
C396 C399 1.539 . S
C397 C393 1.408 . S
C397 C396 1.404 . S
C397 H409 0.930 . S
C398 C394 1.524 . S
C398 H410 0.956 . S
C398 H411 0.961 . S
C398 H412 0.961 . S
C399 C396 1.539 . S
C399 H413 0.958 . S
C399 H414 0.961 . S
C399 H415 0.960 . S
H400 C384 0.931 . S
H401 C389 0.929 . S
H402 C390 0.960 . S
H403 C390 0.962 . S
H404 C390 0.960 . S
H405 C391 0.961 . S
H406 C391 0.961 . S
H407 C391 0.961 . S
H408 C392 0.931 . S
H409 C397 0.930 . S
H410 C398 0.956 . S
H411 C398 0.961 . S
H412 C398 0.961 . S
H413 C399 0.958 . S
H414 C399 0.961 . S
H415 C399 0.960 . S
C416 C417 1.391 1_556 S
C416 C418 1.394 . S
C416 H432 0.931 . S
C417 C416 1.391 1_554 S
C417 C421 1.376 . S
C418 C416 1.394 . S
C418 C419 1.369 1_556 S
C418 C422 1.531 . S
C419 C418 1.369 1_554 S
C419 C420 1.410 . S
C419 C427 1.503 . S
C420 C419 1.410 . S
C420 C421 1.392 . S
C420 C423 1.511 . S
C421 C417 1.376 . S
C421 C420 1.392 . S
C421 H433 0.929 . S
C422 C418 1.531 . S
C422 H434 0.960 . S
C422 H435 0.962 . S
C422 H436 0.960 . S
C423 C420 1.511 . S
C423 H437 0.961 . S
C423 H438 0.961 . S
C423 H439 0.961 . S
C424 C425 1.370 . S
C424 C426 1.363 . S
C424 H440 0.931 . S
C425 C424 1.370 . S
C425 C429 1.408 1_556 S
C426 C424 1.363 . S
C426 C427 1.370 1_556 S
C426 C430 1.524 . S
C427 C419 1.503 . S
C427 C426 1.370 1_554 S
C427 C428 1.403 . S
C428 C427 1.403 . S
C428 C429 1.404 . S
C428 C431 1.539 . S
C429 C425 1.408 1_554 S
C429 C428 1.404 . S
C429 H441 0.930 . S
C430 C426 1.524 . S
C430 H442 0.956 . S
C430 H443 0.961 . S
C430 H444 0.961 . S
C431 C428 1.539 . S
C431 H445 0.958 . S
C431 H446 0.961 . S
C431 H447 0.960 . S
H432 C416 0.931 . S
H433 C421 0.929 . S
H434 C422 0.960 . S
H435 C422 0.962 . S
H436 C422 0.960 . S
H437 C423 0.961 . S
H438 C423 0.961 . S
H439 C423 0.961 . S
H440 C424 0.931 . S
H441 C429 0.930 . S
H442 C430 0.956 . S
H443 C430 0.961 . S
H444 C430 0.961 . S
H445 C431 0.958 . S
H446 C431 0.961 . S
H447 C431 0.960 . S
C448 C449 1.391 1_556 S
C448 C450 1.394 . S
C448 H464 0.931 . S
C449 C448 1.391 1_554 S
C449 C453 1.376 . S
C450 C448 1.394 . S
C450 C451 1.369 . S
C450 C454 1.531 . S
C451 C450 1.369 . S
C451 C452 1.410 1_556 S
C451 C459 1.503 1_565 S
C452 C451 1.410 1_554 S
C452 C453 1.392 . S
C452 C455 1.511 . S
C453 C449 1.376 . S
C453 C452 1.392 . S
C453 H465 0.929 . S
C454 C450 1.531 . S
C454 H466 0.973 . S
C454 H467 0.962 . S
C454 H468 0.960 . S
C455 C452 1.511 . S
C455 H469 0.961 . S
C455 H470 0.961 1_565 S
C455 H471 0.961 . S
C456 C457 1.370 1_554 S
C456 C458 1.363 . S
C456 H472 0.931 . S
C457 C456 1.370 1_556 S
C457 C461 1.408 . S
C458 C456 1.363 . S
C458 C459 1.370 1_554 S
C458 C462 1.524 . S
C459 C451 1.503 1_545 S
C459 C458 1.370 1_556 S
C459 C460 1.403 . S
C460 C459 1.403 . S
C460 C461 1.404 . S
C460 C463 1.539 . S
C461 C457 1.408 . S
C461 C460 1.404 . S
C461 H473 0.930 . S
C462 C458 1.524 . S
C462 H474 0.953 1_544 S
C462 H475 0.961 1_545 S
C462 H476 0.961 . S
C463 C460 1.539 . S
C463 H477 0.958 . S
C463 H478 0.961 . S
C463 H479 0.960 . S
H464 C448 0.931 . S
H465 C453 0.929 . S
H466 C454 0.973 . S
H467 C454 0.962 . S
H468 C454 0.960 . S
H469 C455 0.961 . S
H470 C455 0.961 1_545 S
H471 C455 0.961 . S
H472 C456 0.931 . S
H473 C461 0.930 . S
H474 C462 0.953 1_566 S
H475 C462 0.961 1_565 S
H476 C462 0.961 . S
H477 C463 0.958 . S
H478 C463 0.961 . S
H479 C463 0.960 . S
C480 C481 1.391 1_554 S
C480 C482 1.394 . S
C480 H496 0.931 . S
C481 C480 1.391 1_556 S
C481 C485 1.376 . S
C482 C480 1.394 . S
C482 C483 1.369 . S
C482 C486 1.531 . S
C483 C482 1.369 . S
C483 C484 1.410 1_554 S
C483 C491 1.503 . S
C484 C483 1.410 1_556 S
C484 C485 1.392 . S
C484 C487 1.511 . S
C485 C481 1.376 . S
C485 C484 1.392 . S
C485 H497 0.929 . S
C486 C482 1.531 . S
C486 H498 0.960 . S
C486 H499 0.962 . S
C486 H500 0.960 . S
C487 C484 1.511 . S
C487 H501 0.961 . S
C487 H502 0.961 . S
C487 H503 0.961 . S
C488 C489 1.370 1_556 S
C488 C490 1.363 . S
C488 H504 0.931 . S
C489 C488 1.370 1_554 S
C489 C493 1.408 . S
C490 C488 1.363 . S
C490 C491 1.370 1_556 S
C490 C494 1.524 . S
C491 C483 1.503 . S
C491 C490 1.370 1_554 S
C491 C492 1.403 . S
C492 C491 1.403 . S
C492 C493 1.404 . S
C492 C495 1.539 . S
C493 C489 1.408 . S
C493 C492 1.404 . S
C493 H505 0.930 . S
C494 C490 1.524 . S
C494 H506 0.956 . S
C494 H507 0.961 . S
C494 H508 0.961 . S
C495 C492 1.539 . S
C495 H509 0.958 . S
C495 H510 0.961 . S
C495 H511 0.960 . S
H496 C480 0.931 . S
H497 C485 0.929 . S
H498 C486 0.960 . S
H499 C486 0.962 . S
H500 C486 0.960 . S
H501 C487 0.961 . S
H502 C487 0.961 . S
H503 C487 0.961 . S
H504 C488 0.931 . S
H505 C493 0.930 . S
H506 C494 0.956 . S
H507 C494 0.961 . S
H508 C494 0.961 . S
H509 C495 0.958 . S
H510 C495 0.961 . S
H511 C495 0.960 . S
C512 C513 1.391 . S
C512 C514 1.394 . S
C512 H528 0.931 . S
C513 C512 1.391 . S
C513 C517 1.376 1_556 S
C514 C512 1.394 . S
C514 C515 1.369 . S
C514 C518 1.531 . S
C515 C514 1.369 . S
C515 C516 1.410 1_556 S
C515 C523 1.503 1_545 S
C516 C515 1.410 1_554 S
C516 C517 1.392 . S
C516 C519 1.511 . S
C517 C513 1.376 1_554 S
C517 C516 1.392 . S
C517 H529 0.929 . S
C518 C514 1.531 . S
C518 H530 0.960 1_545 S
C518 H531 0.962 . S
C518 H532 0.960 . S
C519 C516 1.511 . S
C519 H533 0.961 . S
C519 H534 0.961 1_545 S
C519 H535 0.961 1_554 S
C520 C521 1.370 . S
C520 C522 1.363 . S
C520 H536 0.931 . S
C521 C520 1.370 . S
C521 C525 1.408 1_554 S
C522 C520 1.363 . S
C522 C523 1.370 1_554 S
C522 C526 1.524 . S
C523 C515 1.503 1_565 S
C523 C522 1.370 1_556 S
C523 C524 1.403 . S
C524 C523 1.403 . S
C524 C525 1.404 . S
C524 C527 1.539 . S
C525 C521 1.408 1_556 S
C525 C524 1.404 . S
C525 H537 0.930 . S
C526 C522 1.524 . S
C526 H538 0.956 1_565 S
C526 H539 0.961 1_565 S
C526 H540 0.961 . S
C527 C524 1.539 . S
C527 H541 0.958 . S
C527 H542 0.961 . S
C527 H543 0.960 . S
H528 C512 0.931 . S
H529 C517 0.929 . S
H530 C518 0.960 1_565 S
H531 C518 0.962 . S
H532 C518 0.960 . S
H533 C519 0.961 . S
H534 C519 0.961 1_565 S
H535 C519 0.961 1_556 S
H536 C520 0.931 . S
H537 C525 0.930 . S
H538 C526 0.956 1_545 S
H539 C526 0.961 1_545 S
H540 C526 0.961 . S
H541 C527 0.958 . S
H542 C527 0.961 . S
H543 C527 0.960 . S
C544 C545 1.391 . S
C544 C546 1.394 . S
C544 H560 0.931 . S
C545 C544 1.391 . S
C545 C549 1.376 . S
C546 C544 1.394 . S
C546 C547 1.369 . S
C546 C550 1.531 . S
C547 C546 1.369 . S
C547 C548 1.410 . S
C547 C555 1.503 1_554 S
C548 C547 1.410 . S
C548 C549 1.392 . S
C548 C551 1.511 . S
C549 C545 1.376 . S
C549 C548 1.392 . S
C549 H561 0.929 . S
C550 C546 1.531 . S
C550 H562 0.960 1_554 S
C550 H563 0.962 . S
C550 H564 0.960 . S
C551 C548 1.511 . S
C551 H565 0.961 . S
C551 H566 0.961 . S
C551 H567 0.961 . S
C552 C553 1.370 . S
C552 C554 1.363 . S
C552 H568 0.931 . S
C553 C552 1.370 . S
C553 C557 1.408 . S
C554 C552 1.363 . S
C554 C555 1.370 . S
C554 C558 1.524 . S
C555 C547 1.503 1_556 S
C555 C554 1.370 . S
C555 C556 1.403 . S
C556 C555 1.403 . S
C556 C557 1.404 . S
C556 C559 1.539 . S
C557 C553 1.408 . S
C557 C556 1.404 . S
C557 H569 0.930 . S
C558 C554 1.524 . S
C558 H570 0.956 1_556 S
C558 H571 0.961 1_556 S
C558 H572 0.961 . S
C559 C556 1.539 . S
C559 H573 0.958 . S
C559 H574 0.961 . S
C559 H575 0.960 . S
H560 C544 0.931 . S
H561 C549 0.929 . S
H562 C550 0.960 1_556 S
H563 C550 0.962 . S
H564 C550 0.960 . S
H565 C551 0.961 . S
H566 C551 0.961 . S
H567 C551 0.961 . S
H568 C552 0.931 . S
H569 C557 0.930 . S
H570 C558 0.956 1_554 S
H571 C558 0.961 1_554 S
H572 C558 0.961 . S
H573 C559 0.958 . S
H574 C559 0.961 . S
H575 C559 0.960 . S
C576 C577 1.391 . S
C576 C578 1.394 . S
C576 H592 0.931 . S
C577 C576 1.391 . S
C577 C581 1.376 . S
C578 C576 1.394 . S
C578 C579 1.369 . S
C578 C582 1.531 . S
C579 C578 1.369 . S
C579 C580 1.410 . S
C579 C587 1.503 1_554 S
C580 C579 1.410 . S
C580 C581 1.392 . S
C580 C583 1.511 . S
C581 C577 1.376 . S
C581 C580 1.392 . S
C581 H593 0.929 . S
C582 C578 1.531 . S
C582 H594 0.960 . S
C582 H595 0.962 . S
C582 H596 0.960 . S
C583 C580 1.511 . S
C583 H597 0.961 . S
C583 H598 0.961 1_554 S
C583 H599 0.961 . S
C584 C585 1.370 . S
C584 C586 1.363 . S
C584 H600 0.931 . S
C585 C584 1.370 . S
C585 C589 1.408 . S
C586 C584 1.363 . S
C586 C587 1.370 . S
C586 C590 1.524 . S
C587 C579 1.503 1_556 S
C587 C586 1.370 . S
C587 C588 1.403 . S
C588 C587 1.403 . S
C588 C589 1.404 . S
C588 C591 1.539 . S
C589 C585 1.408 . S
C589 C588 1.404 . S
C589 H601 0.930 . S
C590 C586 1.524 . S
C590 H602 0.956 1_556 S
C590 H603 0.961 1_556 S
C590 H604 0.961 . S
C591 C588 1.539 . S
C591 H605 0.958 . S
C591 H606 0.961 . S
C591 H607 0.960 1_556 S
H592 C576 0.931 . S
H593 C581 0.929 . S
H594 C582 0.960 . S
H595 C582 0.962 . S
H596 C582 0.960 . S
H597 C583 0.961 . S
H598 C583 0.961 1_556 S
H599 C583 0.961 . S
H600 C584 0.931 . S
H601 C589 0.930 . S
H602 C590 0.956 1_554 S
H603 C590 0.961 1_554 S
H604 C590 0.961 . S
H605 C591 0.958 . S
H606 C591 0.961 . S
H607 C591 0.960 1_554 S
C608 C609 1.391 . S
C608 C610 1.394 . S
C608 H624 0.931 . S
C609 C608 1.391 . S
C609 C613 1.376 . S
C610 C608 1.394 . S
C610 C611 1.369 . S
C610 C614 1.531 . S
C611 C610 1.369 . S
C611 C612 1.410 . S
C611 C619 1.503 1_554 S
C612 C611 1.410 . S
C612 C613 1.392 . S
C612 C615 1.511 . S
C613 C609 1.376 . S
C613 C612 1.392 . S
C613 H625 0.929 . S
C614 C610 1.531 . S
C614 H626 0.960 1_554 S
C614 H627 0.958 1_554 S
C614 H628 0.960 . S
C615 C612 1.511 . S
C615 H629 0.961 . S
C615 H630 0.961 1_554 S
C615 H631 0.961 . S
C616 C617 1.370 . S
C616 C618 1.363 . S
C616 H632 0.931 . S
C617 C616 1.370 . S
C617 C621 1.408 . S
C618 C616 1.363 . S
C618 C619 1.370 . S
C618 C622 1.524 . S
C619 C611 1.503 1_556 S
C619 C618 1.370 . S
C619 C620 1.403 . S
C620 C619 1.403 . S
C620 C621 1.404 . S
C620 C623 1.539 . S
C621 C617 1.408 . S
C621 C620 1.404 . S
C621 H633 0.930 . S
C622 C618 1.524 . S
C622 H634 0.956 . S
C622 H635 0.961 . S
C622 H636 0.961 . S
C623 C620 1.539 . S
C623 H637 0.958 . S
C623 H638 0.961 . S
C623 H639 0.960 1_556 S
H624 C608 0.931 . S
H625 C613 0.929 . S
H626 C614 0.960 1_556 S
H627 C614 0.958 1_556 S
H628 C614 0.960 . S
H629 C615 0.961 . S
H630 C615 0.961 1_556 S
H631 C615 0.961 . S
H632 C616 0.931 . S
H633 C621 0.930 . S
H634 C622 0.956 . S
H635 C622 0.961 . S
H636 C622 0.961 . S
H637 C623 0.958 . S
H638 C623 0.961 . S
H639 C623 0.960 1_554 S
C640 C641 1.391 . S
C640 C642 1.394 . S
C640 H656 0.931 . S
C641 C640 1.391 . S
C641 C645 1.376 . S
C642 C640 1.394 . S
C642 C643 1.369 . S
C642 C646 1.531 . S
C643 C642 1.369 . S
C643 C644 1.410 . S
C643 C651 1.503 1_556 S
C644 C643 1.410 . S
C644 C645 1.392 . S
C644 C647 1.511 . S
C645 C641 1.376 . S
C645 C644 1.392 . S
C645 H657 0.929 . S
C646 C642 1.531 . S
C646 H658 0.960 . S
C646 H659 0.962 . S
C646 H660 0.960 . S
C647 C644 1.511 . S
C647 H661 0.961 . S
C647 H662 0.961 1_556 S
C647 H663 0.961 . S
C648 C649 1.370 . S
C648 C650 1.363 . S
C648 H664 0.931 . S
C649 C648 1.370 . S
C649 C653 1.408 . S
C650 C648 1.363 . S
C650 C651 1.370 . S
C650 C654 1.524 . S
C651 C643 1.503 1_554 S
C651 C650 1.370 . S
C651 C652 1.403 . S
C652 C651 1.403 . S
C652 C653 1.404 . S
C652 C655 1.539 . S
C653 C649 1.408 . S
C653 C652 1.404 . S
C653 H665 0.930 . S
C654 C650 1.524 . S
C654 H666 0.956 1_554 S
C654 H667 0.961 1_554 S
C654 H668 0.961 . S
C655 C652 1.539 . S
C655 H669 0.958 . S
C655 H670 0.961 . S
C655 H671 0.960 1_554 S
H656 C640 0.931 . S
H657 C645 0.929 . S
H658 C646 0.960 . S
H659 C646 0.962 . S
H660 C646 0.960 . S
H661 C647 0.961 . S
H662 C647 0.961 1_554 S
H663 C647 0.961 . S
H664 C648 0.931 . S
H665 C653 0.930 . S
H666 C654 0.956 1_556 S
H667 C654 0.961 1_556 S
H668 C654 0.961 . S
H669 C655 0.958 . S
H670 C655 0.961 . S
H671 C655 0.960 1_556 S
C672 C673 1.391 . S
C672 C674 1.394 . S
C672 H688 0.931 . S
C673 C672 1.391 . S
C673 C677 1.376 . S
C674 C672 1.394 . S
C674 C675 1.369 . S
C674 C678 1.531 . S
C675 C674 1.369 . S
C675 C676 1.410 . S
C675 C683 1.503 . S
C676 C675 1.410 . S
C676 C677 1.392 . S
C676 C679 1.511 . S
C677 C673 1.376 . S
C677 C676 1.392 . S
C677 H689 0.929 . S
C678 C674 1.531 . S
C678 H690 0.960 . S
C678 H691 0.962 . S
C678 H692 0.960 . S
C679 C676 1.511 . S
C679 H693 0.961 . S
C679 H694 0.961 . S
C679 H695 0.961 . S
C680 C681 1.370 . S
C680 C682 1.363 . S
C680 H696 0.931 . S
C681 C680 1.370 . S
C681 C685 1.408 . S
C682 C680 1.363 . S
C682 C683 1.370 . S
C682 C686 1.524 . S
C683 C675 1.503 . S
C683 C682 1.370 . S
C683 C684 1.403 . S
C684 C683 1.403 . S
C684 C685 1.404 . S
C684 C687 1.539 . S
C685 C681 1.408 . S
C685 C684 1.404 . S
C685 H697 0.930 . S
C686 C682 1.524 . S
C686 H698 0.956 . S
C686 H699 0.961 . S
C686 H700 0.961 . S
C687 C684 1.539 . S
C687 H701 0.958 . S
C687 H702 0.961 . S
C687 H703 0.960 . S
H688 C672 0.931 . S
H689 C677 0.929 . S
H690 C678 0.960 . S
H691 C678 0.962 . S
H692 C678 0.960 . S
H693 C679 0.961 . S
H694 C679 0.961 . S
H695 C679 0.961 . S
H696 C680 0.931 . S
H697 C685 0.930 . S
H698 C686 0.956 . S
H699 C686 0.961 . S
H700 C686 0.961 . S
H701 C687 0.958 . S
H702 C687 0.961 . S
H703 C687 0.960 . S
C704 C705 1.391 . S
C704 C706 1.394 . S
C704 H720 0.931 . S
C705 C704 1.391 . S
C705 C709 1.376 . S
C706 C704 1.394 . S
C706 C707 1.369 . S
C706 C710 1.531 . S
C707 C706 1.369 . S
C707 C708 1.410 . S
C707 C715 1.503 . S
C708 C707 1.410 . S
C708 C709 1.392 . S
C708 C711 1.511 . S
C709 C705 1.376 . S
C709 C708 1.392 . S
C709 H721 0.929 . S
C710 C706 1.531 . S
C710 H722 0.960 . S
C710 H723 0.962 . S
C710 H724 0.960 . S
C711 C708 1.511 . S
C711 H725 0.961 . S
C711 H726 0.961 . S
C711 H727 0.961 . S
C712 C713 1.370 . S
C712 C714 1.363 . S
C712 H728 0.931 . S
C713 C712 1.370 . S
C713 C717 1.408 . S
C714 C712 1.363 . S
C714 C715 1.370 . S
C714 C718 1.524 . S
C715 C707 1.503 . S
C715 C714 1.370 . S
C715 C716 1.403 . S
C716 C715 1.403 . S
C716 C717 1.404 . S
C716 C719 1.539 . S
C717 C713 1.408 . S
C717 C716 1.404 . S
C717 H729 0.930 . S
C718 C714 1.524 . S
C718 H730 0.956 . S
C718 H731 0.961 . S
C718 H732 0.961 . S
C719 C716 1.539 . S
C719 H733 0.958 . S
C719 H734 0.961 . S
C719 H735 0.960 . S
H720 C704 0.931 . S
H721 C709 0.929 . S
H722 C710 0.960 . S
H723 C710 0.962 . S
H724 C710 0.960 . S
H725 C711 0.961 . S
H726 C711 0.961 . S
H727 C711 0.961 . S
H728 C712 0.931 . S
H729 C717 0.930 . S
H730 C718 0.956 . S
H731 C718 0.961 . S
H732 C718 0.961 . S
H733 C719 0.958 . S
H734 C719 0.961 . S
H735 C719 0.960 . S
C736 C737 1.391 . S
C736 C738 1.394 . S
C736 H752 0.931 . S
C737 C736 1.391 . S
C737 C741 1.376 . S
C738 C736 1.394 . S
C738 C739 1.369 . S
C738 C742 1.531 . S
C739 C738 1.369 . S
C739 C740 1.410 . S
C739 C747 1.503 . S
C740 C739 1.410 . S
C740 C741 1.392 . S
C740 C743 1.511 . S
C741 C737 1.376 . S
C741 C740 1.392 . S
C741 H753 0.929 . S
C742 C738 1.531 . S
C742 H754 0.960 . S
C742 H755 0.962 . S
C742 H756 0.960 . S
C743 C740 1.511 . S
C743 H757 0.961 . S
C743 H758 0.961 . S
C743 H759 0.961 . S
C744 C745 1.370 . S
C744 C746 1.363 . S
C744 H760 0.931 . S
C745 C744 1.370 . S
C745 C749 1.408 . S
C746 C744 1.363 . S
C746 C747 1.370 . S
C746 C750 1.524 . S
C747 C739 1.503 . S
C747 C746 1.370 . S
C747 C748 1.403 . S
C748 C747 1.403 . S
C748 C749 1.404 . S
C748 C751 1.539 . S
C749 C745 1.408 . S
C749 C748 1.404 . S
C749 H761 0.930 . S
C750 C746 1.524 . S
C750 H762 0.956 . S
C750 H763 0.961 . S
C750 H764 0.961 . S
C751 C748 1.539 . S
C751 H765 0.958 . S
C751 H766 0.961 . S
C751 H767 0.960 . S
H752 C736 0.931 . S
H753 C741 0.929 . S
H754 C742 0.960 . S
H755 C742 0.962 . S
H756 C742 0.960 . S
H757 C743 0.961 . S
H758 C743 0.961 . S
H759 C743 0.961 . S
H760 C744 0.931 . S
H761 C749 0.930 . S
H762 C750 0.956 . S
H763 C750 0.961 . S
H764 C750 0.961 . S
H765 C751 0.958 . S
H766 C751 0.961 . S
H767 C751 0.960 . S
C768 C769 1.391 . S
C768 C770 1.394 . S
C768 H784 0.931 . S
C769 C768 1.391 . S
C769 C773 1.376 . S
C770 C768 1.394 . S
C770 C771 1.369 . S
C770 C774 1.531 . S
C771 C770 1.369 . S
C771 C772 1.410 . S
C771 C779 1.503 . S
C772 C771 1.410 . S
C772 C773 1.392 . S
C772 C775 1.511 . S
C773 C769 1.376 . S
C773 C772 1.392 . S
C773 H785 0.929 . S
C774 C770 1.531 . S
C774 H786 0.960 . S
C774 H787 0.962 . S
C774 H788 0.960 . S
C775 C772 1.511 . S
C775 H789 0.961 . S
C775 H790 0.961 . S
C775 H791 0.961 . S
C776 C777 1.370 . S
C776 C778 1.363 . S
C776 H792 0.931 . S
C777 C776 1.370 . S
C777 C781 1.408 . S
C778 C776 1.363 . S
C778 C779 1.370 . S
C778 C782 1.524 . S
C779 C771 1.503 . S
C779 C778 1.370 . S
C779 C780 1.403 . S
C780 C779 1.403 . S
C780 C781 1.404 . S
C780 C783 1.539 . S
C781 C777 1.408 . S
C781 C780 1.404 . S
C781 H793 0.930 . S
C782 C778 1.524 . S
C782 H794 0.956 . S
C782 H795 0.961 . S
C782 H796 0.961 . S
C783 C780 1.539 . S
C783 H797 0.958 . S
C783 H798 0.961 . S
C783 H799 0.960 . S
H784 C768 0.931 . S
H785 C773 0.929 . S
H786 C774 0.960 . S
H787 C774 0.962 . S
H788 C774 0.960 . S
H789 C775 0.961 . S
H790 C775 0.961 . S
H791 C775 0.961 . S
H792 C776 0.931 . S
H793 C781 0.930 . S
H794 C782 0.956 . S
H795 C782 0.961 . S
H796 C782 0.961 . S
H797 C783 0.958 . S
H798 C783 0.961 . S
H799 C783 0.960 . S
C800 C801 1.391 . S
C800 C802 1.394 . S
C800 H816 0.931 . S
C801 C800 1.391 . S
C801 C805 1.376 . S
C802 C800 1.394 . S
C802 C803 1.369 . S
C802 C806 1.531 . S
C803 C802 1.369 . S
C803 C804 1.410 . S
C803 C811 1.503 1_455 S
C804 C803 1.410 . S
C804 C805 1.392 . S
C804 C807 1.511 . S
C805 C801 1.376 . S
C805 C804 1.392 . S
C805 H817 0.929 . S
C806 C802 1.531 . S
C806 H818 0.960 . S
C806 H819 0.962 . S
C806 H820 0.960 . S
C807 C804 1.511 . S
C807 H821 0.961 . S
C807 H822 0.961 1_455 S
C807 H823 0.961 . S
C808 C809 1.370 . S
C808 C810 1.363 . S
C808 H824 0.931 . S
C809 C808 1.370 . S
C809 C813 1.408 . S
C810 C808 1.363 . S
C810 C811 1.370 . S
C810 C814 1.524 . S
C811 C803 1.503 1_655 S
C811 C810 1.370 . S
C811 C812 1.403 . S
C812 C811 1.403 . S
C812 C813 1.404 . S
C812 C815 1.539 . S
C813 C809 1.408 . S
C813 C812 1.404 . S
C813 H825 0.930 . S
C814 C810 1.524 . S
C814 H826 0.959 1_655 S
C814 H827 0.968 . S
C814 H828 0.961 . S
C815 C812 1.539 . S
C815 H829 0.958 . S
C815 H830 0.961 . S
C815 H831 0.960 . S
H816 C800 0.931 . S
H817 C805 0.929 . S
H818 C806 0.960 . S
H819 C806 0.962 . S
H820 C806 0.960 . S
H821 C807 0.961 . S
H822 C807 0.961 1_655 S
H823 C807 0.961 . S
H824 C808 0.931 . S
H825 C813 0.930 . S
H826 C814 0.959 1_455 S
H827 C814 0.968 . S
H828 C814 0.961 . S
H829 C815 0.958 . S
H830 C815 0.961 . S
H831 C815 0.960 . S
C832 C833 1.391 . S
C832 C834 1.394 . S
C832 H848 0.931 . S
C833 C832 1.391 . S
C833 C837 1.376 . S
C834 C832 1.394 . S
C834 C835 1.369 . S
C834 C838 1.531 . S
C835 C834 1.369 . S
C835 C836 1.410 . S
C835 C843 1.503 1_655 S
C836 C835 1.410 . S
C836 C837 1.392 . S
C836 C839 1.511 . S
C837 C833 1.376 . S
C837 C836 1.392 . S
C837 H849 0.929 . S
C838 C834 1.531 . S
C838 H850 0.947 1_655 S
C838 H851 0.962 . S
C838 H852 0.960 . S
C839 C836 1.511 . S
C839 H853 0.961 . S
C839 H854 0.961 1_655 S
C839 H855 0.961 . S
C840 C841 1.370 . S
C840 C842 1.363 . S
C840 H856 0.931 . S
C841 C840 1.370 . S
C841 C845 1.408 . S
C842 C840 1.363 . S
C842 C843 1.370 . S
C842 C846 1.524 . S
C843 C835 1.503 1_455 S
C843 C842 1.370 . S
C843 C844 1.403 . S
C844 C843 1.403 . S
C844 C845 1.404 . S
C844 C847 1.539 . S
C845 C841 1.408 . S
C845 C844 1.404 . S
C845 H857 0.930 . S
C846 C842 1.524 . S
C846 H858 0.946 1_455 S
C846 H859 0.961 1_455 S
C846 H860 0.961 . S
C847 C844 1.539 . S
C847 H861 0.958 . S
C847 H862 0.961 . S
C847 H863 0.960 . S
H848 C832 0.931 . S
H849 C837 0.929 . S
H850 C838 0.947 1_455 S
H851 C838 0.962 . S
H852 C838 0.960 . S
H853 C839 0.961 . S
H854 C839 0.961 1_455 S
H855 C839 0.961 . S
H856 C840 0.931 . S
H857 C845 0.930 . S
H858 C846 0.946 1_655 S
H859 C846 0.961 1_655 S
H860 C846 0.961 . S
H861 C847 0.958 . S
H862 C847 0.961 . S
H863 C847 0.960 . S
C864 C865 1.391 . S
C864 C866 1.394 . S
C864 H880 0.931 . S
C865 C864 1.391 . S
C865 C869 1.376 . S
C866 C864 1.394 . S
C866 C867 1.369 . S
C866 C870 1.531 . S
C867 C866 1.369 . S
C867 C868 1.410 . S
C867 C875 1.503 . S
C868 C867 1.410 . S
C868 C869 1.392 . S
C868 C871 1.511 1_556 S
C869 C865 1.376 . S
C869 C868 1.392 . S
C869 H881 0.929 . S
C870 C866 1.531 . S
C870 H882 0.960 . S
C870 H883 0.962 . S
C870 H884 0.960 . S
C871 C868 1.511 1_554 S
C871 H885 0.961 . S
C871 H886 0.961 . S
C871 H887 0.961 1_554 S
C872 C873 1.370 . S
C872 C874 1.363 . S
C872 H888 0.931 . S
C873 C872 1.370 . S
C873 C877 1.408 . S
C874 C872 1.363 . S
C874 C875 1.370 . S
C874 C878 1.524 1_556 S
C875 C867 1.503 . S
C875 C874 1.370 . S
C875 C876 1.403 . S
C876 C875 1.403 . S
C876 C877 1.404 . S
C876 C879 1.539 . S
C877 C873 1.408 . S
C877 C876 1.404 . S
C877 H889 0.930 . S
C878 C874 1.524 1_554 S
C878 H890 0.956 1_554 S
C878 H891 0.961 . S
C878 H892 0.961 . S
C879 C876 1.539 . S
C879 H893 0.958 . S
C879 H894 0.961 . S
C879 H895 0.960 . S
H880 C864 0.931 . S
H881 C869 0.929 . S
H882 C870 0.960 . S
H883 C870 0.962 . S
H884 C870 0.960 . S
H885 C871 0.961 . S
H886 C871 0.961 . S
H887 C871 0.961 1_556 S
H888 C872 0.931 . S
H889 C877 0.930 . S
H890 C878 0.956 1_556 S
H891 C878 0.961 . S
H892 C878 0.961 . S
H893 C879 0.958 . S
H894 C879 0.961 . S
H895 C879 0.960 . S
C896 C897 1.391 . S
C896 C898 1.394 . S
C896 H912 0.931 . S
C897 C896 1.391 . S
C897 C901 1.376 . S
C898 C896 1.394 . S
C898 C899 1.369 . S
C898 C902 1.531 . S
C899 C898 1.369 . S
C899 C900 1.410 . S
C899 C907 1.503 . S
C900 C899 1.410 . S
C900 C901 1.392 . S
C900 C903 1.511 . S
C901 C897 1.376 . S
C901 C900 1.392 . S
C901 H913 0.929 . S
C902 C898 1.531 . S
C902 H914 0.960 . S
C902 H915 0.962 . S
C902 H916 0.960 . S
C903 C900 1.511 . S
C903 H917 0.961 . S
C903 H918 0.961 . S
C903 H919 0.961 . S
C904 C905 1.370 . S
C904 C906 1.363 . S
C904 H920 0.931 1_554 S
C905 C904 1.370 . S
C905 C909 1.408 . S
C906 C904 1.363 . S
C906 C907 1.370 . S
C906 C910 1.524 1_554 S
C907 C899 1.503 . S
C907 C906 1.370 . S
C907 C908 1.403 . S
C908 C907 1.403 . S
C908 C909 1.404 . S
C908 C911 1.539 . S
C909 C905 1.408 . S
C909 C908 1.404 . S
C909 H921 0.930 . S
C910 C906 1.524 1_556 S
C910 H922 0.956 . S
C910 H923 0.961 . S
C910 H924 0.961 . S
C911 C908 1.539 . S
C911 H925 0.958 . S
C911 H926 0.961 . S
C911 H927 0.960 . S
H912 C896 0.931 . S
H913 C901 0.929 . S
H914 C902 0.960 . S
H915 C902 0.962 . S
H916 C902 0.960 . S
H917 C903 0.961 . S
H918 C903 0.961 . S
H919 C903 0.961 . S
H920 C904 0.931 1_556 S
H921 C909 0.930 . S
H922 C910 0.956 . S
H923 C910 0.961 . S
H924 C910 0.961 . S
H925 C911 0.958 . S
H926 C911 0.961 . S
H927 C911 0.960 . S
C161 C9 1.687 . S
C169 C149 1.684 . S
C193 C129 1.680 . S
C201 C32 1.650 . S
C225 C112 1.637 . S
C233 C49 1.671 . S
C257 C89 1.710 . S
C265 C69 1.672 . S
C289 C58 1.493 . S
C297 C18 1.459 . S
C321 C38 1.159 . S
C329 C78 1.161 . S
C353 C79 1.785 . S
C361 C39 1.790 . S
C385 C59 1.525 . S
C393 C19 1.505 . S
C417 C98 1.489 1_554 S
C425 C138 1.467 1_556 S
C449 C118 1.181 . S
C457 C158 1.177 1_556 S
C481 C159 1.806 . S
C489 C119 1.790 1_554 S
C513 C139 1.495 . S
C521 C99 1.511 . S
C545 C4 1.436 . S
C553 C2 1.473 . S
C577 C22 1.470 . S
C585 C24 1.457 . S
C609 C42 1.472 . S
C617 C44 1.452 . S
C641 C64 1.442 . S
C649 C62 1.464 . S
C673 C82 1.476 . S
C681 C84 1.459 . S
C705 C102 1.462 . S
C713 C104 1.461 . S
C737 C124 1.436 . S
C745 C122 1.469 . S
C769 C144 1.475 . S
C777 C142 1.448 . S
C801 C12 1.957 . S
C809 C29 1.954 . S
C833 C72 1.924 . S
C841 C52 1.929 . S
C865 C92 1.949 . S
C873 C109 1.954 . S
C897 C152 1.921 . S
C905 C132 1.930 . S
