# Generated by pormake.
# Topology umc, (4)-cn, num edge types: 1
# Building blocks:
#     Node 0, Type 0, BuildingBlock: QUQFOY_clean_sbu_3, # of connection points: 4
#     Node 1, Type 0, BuildingBlock: QUQFOY_clean_sbu_3, # of connection points: 4
#     Node 2, Type 0, BuildingBlock: QUQFOY_clean_sbu_3, # of connection points: 4
#     Node 3, Type 0, BuildingBlock: QUQFOY_clean_sbu_3, # of connection points: 4
#     Node 4, Type 0, BuildingBlock: QUQFOY_clean_sbu_3, # of connection points: 4
#     Node 5, Type 0, BuildingBlock: QUQFOY_clean_sbu_3, # of connection points: 4
#     Node 6, Type 0, BuildingBlock: QUQFOY_clean_sbu_3, # of connection points: 4
#     Node 7, Type 0, BuildingBlock: QUQFOY_clean_sbu_3, # of connection points: 4
#     Node 8, Type 0, BuildingBlock: QUQFOY_clean_sbu_3, # of connection points: 4
#     Node 9, Type 0, BuildingBlock: QUQFOY_clean_sbu_3, # of connection points: 4
#     Node 10, Type 0, BuildingBlock: QUQFOY_clean_sbu_3, # of connection points: 4
#     Node 11, Type 0, BuildingBlock: QUQFOY_clean_sbu_3, # of connection points: 4
#     Node 12, Type 0, BuildingBlock: QUQFOY_clean_sbu_3, # of connection points: 4
#     Node 13, Type 0, BuildingBlock: QUQFOY_clean_sbu_3, # of connection points: 4
#     Node 14, Type 0, BuildingBlock: QUQFOY_clean_sbu_3, # of connection points: 4
#     Node 15, Type 0, BuildingBlock: QUQFOY_clean_sbu_3, # of connection points: 4
#     Edge 16, Type (0, 0), BuildingBlock: XIVTED_clean_linker_0, # of connection points: 2
#     Edge 17, Type (0, 0), BuildingBlock: XIVTED_clean_linker_0, # of connection points: 2
#     Edge 18, Type (0, 0), BuildingBlock: XIVTED_clean_linker_0, # of connection points: 2
#     Edge 19, Type (0, 0), BuildingBlock: XIVTED_clean_linker_0, # of connection points: 2
#     Edge 20, Type (0, 0), BuildingBlock: XIVTED_clean_linker_0, # of connection points: 2
#     Edge 21, Type (0, 0), BuildingBlock: XIVTED_clean_linker_0, # of connection points: 2
#     Edge 22, Type (0, 0), BuildingBlock: XIVTED_clean_linker_0, # of connection points: 2
#     Edge 23, Type (0, 0), BuildingBlock: XIVTED_clean_linker_0, # of connection points: 2
#     Edge 24, Type (0, 0), BuildingBlock: XIVTED_clean_linker_0, # of connection points: 2
#     Edge 25, Type (0, 0), BuildingBlock: XIVTED_clean_linker_0, # of connection points: 2
#     Edge 26, Type (0, 0), BuildingBlock: XIVTED_clean_linker_0, # of connection points: 2
#     Edge 27, Type (0, 0), BuildingBlock: XIVTED_clean_linker_0, # of connection points: 2
#     Edge 28, Type (0, 0), BuildingBlock: XIVTED_clean_linker_0, # of connection points: 2
#     Edge 29, Type (0, 0), BuildingBlock: XIVTED_clean_linker_0, # of connection points: 2
#     Edge 30, Type (0, 0), BuildingBlock: XIVTED_clean_linker_0, # of connection points: 2
#     Edge 31, Type (0, 0), BuildingBlock: XIVTED_clean_linker_0, # of connection points: 2
#     Edge 32, Type (0, 0), BuildingBlock: XIVTED_clean_linker_0, # of connection points: 2
#     Edge 33, Type (0, 0), BuildingBlock: XIVTED_clean_linker_0, # of connection points: 2
#     Edge 34, Type (0, 0), BuildingBlock: XIVTED_clean_linker_0, # of connection points: 2
#     Edge 35, Type (0, 0), BuildingBlock: XIVTED_clean_linker_0, # of connection points: 2
#     Edge 36, Type (0, 0), BuildingBlock: XIVTED_clean_linker_0, # of connection points: 2
#     Edge 37, Type (0, 0), BuildingBlock: XIVTED_clean_linker_0, # of connection points: 2
#     Edge 38, Type (0, 0), BuildingBlock: XIVTED_clean_linker_0, # of connection points: 2
#     Edge 39, Type (0, 0), BuildingBlock: XIVTED_clean_linker_0, # of connection points: 2
#     Edge 40, Type (0, 0), BuildingBlock: XIVTED_clean_linker_0, # of connection points: 2
#     Edge 41, Type (0, 0), BuildingBlock: XIVTED_clean_linker_0, # of connection points: 2
#     Edge 42, Type (0, 0), BuildingBlock: XIVTED_clean_linker_0, # of connection points: 2
#     Edge 43, Type (0, 0), BuildingBlock: XIVTED_clean_linker_0, # of connection points: 2
#     Edge 44, Type (0, 0), BuildingBlock: XIVTED_clean_linker_0, # of connection points: 2
#     Edge 45, Type (0, 0), BuildingBlock: XIVTED_clean_linker_0, # of connection points: 2
#     Edge 46, Type (0, 0), BuildingBlock: XIVTED_clean_linker_0, # of connection points: 2
#     Edge 47, Type (0, 0), BuildingBlock: XIVTED_clean_linker_0, # of connection points: 2
# Relax obj value: 0.085
# Max RMSD: 0.168
# Mean RMSD: 0.168
data_MOF--net-umc--node1-QUQFOY_clean_sbu_3--edge1-XIVTED_clean_linker_0
_symmetry_space_group_name_H-M    P1
_symmetry_Int_Tables_number       1
_symmetry_cell_setting            triclinic
loop_
_symmetry_equiv_pos_as_xyz
'x, y, z'
_cell_length_a     45.103238
_cell_length_b     35.268992
_cell_length_c     58.634333
_cell_angle_alpha  89.896247
_cell_angle_beta   90.047074
_cell_angle_gamma 89.868949
loop_
_atom_site_label
_atom_site_type_symbol
_atom_site_fract_x
_atom_site_fract_y
_atom_site_fract_z
_atom_type_partial_charge
C0 C 0.30125 0.98599 0.30731 0.0
O1 O 0.30657 0.95477 0.31729 0.0
Cd2 Cd 0.33803 0.95514 0.35064 0.0
O3 O 0.31132 0.01669 0.31543 0.0
Cd4 Cd 0.33846 0.0413 0.34802 0.0
C5 C 0.40184 -0.00149 0.33205 0.0
O6 O 0.32119 -0.0003 0.37906 0.0
O7 O 0.36086 0.03299 0.38477 0.0
O8 O 0.29791 0.08579 0.35202 0.0
C9 C 0.34089 0.01156 0.39281 0.0
O10 O 0.38916 0.96848 0.33914 0.0
C11 C 0.31323 0.11569 0.35005 0.0
O12 O 0.38778 0.02992 0.33152 0.0
O13 O 0.34101 0.11135 0.34724 0.0
C14 C 0.72032 0.98939 0.3079 0.0
O15 O 0.71785 0.02155 0.31736 0.0
Cd16 Cd 0.68715 0.02707 0.3509 0.0
O17 O 0.709 0.9603 0.31719 0.0
Cd18 Cd 0.68365 0.93965 0.35165 0.0
C19 C 0.62203 0.98416 0.3335 0.0
O20 O 0.70077 0.98422 0.38118 0.0
O21 O 0.66017 0.95286 0.38721 0.0
O22 O 0.72396 0.89532 0.35721 0.0
C23 C 0.67981 0.97535 0.39466 0.0
O24 O 0.63615 0.01406 0.339 0.0
C25 C 0.7084 0.86545 0.35649 0.0
O26 O 0.63445 0.95167 0.33486 0.0
O27 O 0.68059 0.86979 0.3538 0.0
C28 C 0.28595 -0.00356 0.14501 0.0
O29 O 0.29121 0.02694 0.13428 0.0
Cd30 Cd 0.32251 0.02417 0.10092 0.0
O31 O 0.29507 0.96497 0.13721 0.0
Cd32 Cd 0.31966 0.93609 0.1047 0.0
C33 C 0.38379 0.97589 0.1216 0.0
O34 O 0.30615 0.97862 0.07306 0.0
O35 O 0.34366 0.94074 0.06856 0.0
O36 O 0.27665 0.896 0.10068 0.0
C37 C 0.32607 0.96504 0.06005 0.0
O38 O 0.37196 0.00658 0.1145 0.0
C39 C 0.29 0.86468 0.10354 0.0
O40 O 0.36924 0.94488 0.12144 0.0
O41 O 0.31789 0.86615 0.10679 0.0
C42 C 0.70452 0.97213 0.14606 0.0
O43 O 0.69894 0.94192 0.1352 0.0
Cd44 Cd 0.66672 0.94684 0.10233 0.0
O45 O 0.69417 0.00358 0.13911 0.0
Cd46 Cd 0.66605 0.03275 0.10838 0.0
C47 C 0.60337 0.98793 0.12375 0.0
O48 O 0.68284 0.99488 0.0755 0.0
O49 O 0.64384 0.03027 0.07136 0.0
O50 O 0.7069 0.07681 0.10747 0.0
C51 C 0.66334 0.00915 0.06235 0.0
O52 O 0.61611 0.9587 0.11557 0.0
C53 C 0.69168 0.10674 0.11003 0.0
O54 O 0.61712 0.01943 0.12491 0.0
O55 O 0.66374 0.10269 0.11173 0.0
C56 C 0.70347 0.00598 0.64777 0.0
O57 O 0.69983 0.03846 0.63888 0.0
Cd58 Cd 0.66883 0.04366 0.60548 0.0
O59 O 0.69249 0.97692 0.63827 0.0
Cd60 Cd 0.66609 0.95816 0.60384 0.0
C61 C 0.60357 0.00086 0.62142 0.0
O62 O 0.6854 0.00273 0.57503 0.0
O63 O 0.64486 0.97244 0.5673 0.0
O64 O 0.70578 0.91296 0.59873 0.0
C65 C 0.66575 0.99362 0.56051 0.0
O66 O 0.61722 0.03127 0.61623 0.0
C67 C 0.68982 0.88344 0.59886 0.0
O68 O 0.6167 0.96889 0.62012 0.0
O69 O 0.662 0.88834 0.60105 0.0
C70 C 0.28492 0.00019 0.64515 0.0
O71 O 0.28997 0.9694 0.63469 0.0
Cd72 Cd 0.32076 0.97069 0.60099 0.0
O73 O 0.29443 0.03133 0.63716 0.0
Cd74 Cd 0.31983 0.05892 0.60464 0.0
C75 C 0.38347 0.01627 0.62074 0.0
O76 O 0.30476 0.01692 0.57323 0.0
O77 O 0.34275 0.05359 0.56817 0.0
O78 O 0.27803 0.1017 0.60162 0.0
C79 C 0.32463 0.02982 0.55994 0.0
O80 O 0.37095 0.98611 0.6137 0.0
C81 C 0.29268 0.13211 0.60389 0.0
O82 O 0.36943 0.04774 0.62093 0.0
O83 O 0.32061 0.1288 0.6063 0.0
C84 C 0.71726 0.98849 0.80998 0.0
O85 O 0.71156 0.9588 0.82139 0.0
Cd86 Cd 0.68097 0.96474 0.85507 0.0
O87 O 0.70835 0.02061 0.81694 0.0
Cd88 Cd 0.68328 0.05276 0.848 0.0
C89 C 0.61915 0.0101 0.8332 0.0
O90 O 0.69789 0.01344 0.88087 0.0
O91 O 0.66102 0.05244 0.88487 0.0
O92 O 0.72563 0.09485 0.84884 0.0
C93 C 0.67865 0.02865 0.89383 0.0
O94 O 0.63117 0.98031 0.84142 0.0
C95 C 0.7112 0.12528 0.84559 0.0
O96 O 0.63359 0.04113 0.83204 0.0
O97 O 0.6832 0.12231 0.84356 0.0
C98 C 0.29856 0.00982 0.80707 0.0
O99 O 0.30374 0.04111 0.81689 0.0
Cd100 Cd 0.33574 0.04061 0.84993 0.0
O101 O 0.30897 0.97922 0.81523 0.0
Cd102 Cd 0.33657 0.95448 0.84768 0.0
C103 C 0.39941 -0.00278 0.83079 0.0
O104 O 0.31949 -0.00384 0.87875 0.0
O105 O 0.35892 0.96215 0.88439 0.0
O106 O 0.29581 0.91064 0.85108 0.0
C107 C 0.33915 0.98389 0.89247 0.0
O108 O 0.38653 0.02735 0.83755 0.0
C109 C 0.31099 0.88048 0.84961 0.0
O110 O 0.38571 0.96563 0.83094 0.0
O111 O 0.33889 0.88431 0.84739 0.0
C112 C 0.78932 0.48507 0.30761 0.0
O113 O 0.79263 0.4527 0.31672 0.0
Cd114 Cd 0.82363 0.44767 0.35015 0.0
O115 O 0.80061 0.51411 0.3169 0.0
Cd116 Cd 0.82724 0.53318 0.35115 0.0
C117 C 0.88921 0.48907 0.3336 0.0
O118 O 0.80833 0.48942 0.38059 0.0
O119 O 0.84942 0.5192 0.38732 0.0
O120 O 0.78748 0.57821 0.35644 0.0
C121 C 0.82859 0.49842 0.39465 0.0
O122 O 0.87521 0.45908 0.33907 0.0
C123 C 0.80328 0.60786 0.35603 0.0
O124 O 0.8765 0.52137 0.33468 0.0
O125 O 0.83109 0.60315 0.35358 0.0
C126 C 0.20795 0.49379 0.31127 0.0
O127 O 0.20272 0.52461 0.32164 0.0
Cd128 Cd 0.17134 0.52316 0.35498 0.0
O129 O 0.19848 0.46264 0.31928 0.0
Cd130 Cd 0.17324 0.43463 0.35179 0.0
C131 C 0.10934 0.4759 0.33497 0.0
O132 O 0.18726 0.47742 0.38299 0.0
O133 O 0.14974 0.43993 0.38811 0.0
O134 O 0.21647 0.39507 0.35629 0.0
C135 C 0.16744 0.46431 0.39625 0.0
O136 O 0.12175 0.50632 0.3417 0.0
C137 C 0.20364 0.36352 0.35341 0.0
O138 O 0.1234 0.44442 0.3353 0.0
O139 O 0.17576 0.36448 0.34994 0.0
C140 C 0.78224 0.49753 0.1455 0.0
O141 O 0.78827 0.52726 0.13424 0.0
Cd142 Cd 0.8198 0.52166 0.10106 0.0
O143 O 0.79157 0.46548 0.13877 0.0
Cd144 Cd 0.81822 0.43402 0.10818 0.0
C145 C 0.88169 0.47758 0.12355 0.0
O146 O 0.80388 0.47281 0.07497 0.0
O147 O 0.84134 0.43457 0.07164 0.0
O148 O 0.77649 0.39109 0.10669 0.0
C149 C 0.82357 0.45778 0.06232 0.0
O150 O 0.86955 0.50713 0.11515 0.0
C151 C 0.79121 0.36093 0.11008 0.0
O152 O 0.86748 0.44638 0.1247 0.0
O153 O 0.8191 0.36445 0.11254 0.0
C154 C 0.2018 0.48362 0.14892 0.0
O155 O 0.19707 0.45221 0.13909 0.0
Cd156 Cd 0.16565 0.45174 0.10575 0.0
O157 O 0.19122 0.51403 0.14062 0.0
Cd158 Cd 0.1636 0.53782 0.10791 0.0
C159 C 0.10125 0.49352 0.12456 0.0
O160 O 0.18162 0.49652 0.077 0.0
O161 O 0.14144 0.52898 0.07115 0.0
O162 O 0.2029 0.58389 0.10378 0.0
C163 C 0.16177 0.50795 0.06319 0.0
O164 O 0.11451 0.46363 0.11785 0.0
C165 C 0.18675 0.61313 0.10586 0.0
O166 O 0.11457 0.52537 0.12441 0.0
O167 O 0.15913 0.60766 0.10874 0.0
C168 C 0.19841 0.51187 0.64896 0.0
O169 O 0.19327 0.54302 0.63886 0.0
Cd170 Cd 0.1612 0.54233 0.60587 0.0
O171 O 0.18797 0.48121 0.64106 0.0
Cd172 Cd 0.16046 0.45636 0.60868 0.0
C173 C 0.09748 0.49932 0.62506 0.0
O174 O 0.17723 0.4976 0.57722 0.0
O175 O 0.1377 0.46379 0.5721 0.0
O176 O 0.20143 0.41269 0.6052 0.0
C177 C 0.15738 0.48531 0.56373 0.0
O178 O 0.11041 0.52928 0.61815 0.0
C179 C 0.18646 0.38246 0.60687 0.0
O180 O 0.1112 0.46765 0.62524 0.0
O181 O 0.15856 0.38617 0.60927 0.0
C182 C 0.78019 0.50282 0.64809 0.0
O183 O 0.7837 0.47094 0.63849 0.0
Cd184 Cd 0.81362 0.46714 0.6045 0.0
O185 O 0.79012 0.5327 0.63876 0.0
Cd186 Cd 0.81408 0.55455 0.6039 0.0
C187 C 0.87744 0.51321 0.62137 0.0
O188 O 0.79711 0.5093 0.57471 0.0
O189 O 0.83653 0.54244 0.56773 0.0
O190 O 0.77319 0.59851 0.59925 0.0
C191 C 0.81713 0.51928 0.56069 0.0
O192 O 0.86449 0.48247 0.61585 0.0
C193 C 0.78871 0.62844 0.59943 0.0
O194 O 0.86372 0.54484 0.62017 0.0
O195 O 0.81662 0.62423 0.60151 0.0
C196 C 0.21816 0.49409 0.81045 0.0
O197 O 0.21193 0.46333 0.82058 0.0
Cd198 Cd 0.18178 0.46539 0.85467 0.0
O199 O 0.20964 0.52554 0.81864 0.0
Cd200 Cd 0.18411 0.55328 0.851 0.0
C201 C 0.11989 0.51238 0.83476 0.0
O202 O 0.19858 0.51085 0.88256 0.0
O203 O 0.16085 0.54823 0.88736 0.0
O204 O 0.2259 0.59595 0.85414 0.0
C205 C 0.17881 0.52427 0.89576 0.0
O206 O 0.13164 0.48193 0.84227 0.0
C207 C 0.21117 0.62639 0.85187 0.0
O208 O 0.13468 0.54318 0.8342 0.0
O209 O 0.18326 0.62312 0.84937 0.0
C210 C 0.79925 0.5136 0.81036 0.0
O211 O 0.80387 0.54344 0.82183 0.0
Cd212 Cd 0.83588 0.5383 0.85475 0.0
O213 O 0.81027 0.48222 0.8168 0.0
Cd214 Cd 0.83841 0.45204 0.84723 0.0
C215 C 0.90018 0.49969 0.83285 0.0
O216 O 0.82058 0.48826 0.88039 0.0
O217 O 0.85986 0.45338 0.88456 0.0
O218 O 0.79761 0.40807 0.84688 0.0
C219 C 0.84005 0.47402 0.89358 0.0
O220 O 0.88652 0.52804 0.84127 0.0
C221 C 0.81281 0.37811 0.84441 0.0
O222 O 0.88741 0.46756 0.83127 0.0
O223 O 0.84082 0.38205 0.84324 0.0
H224 H 0.38619 0.01755 0.42294 0.0
H225 H 0.28332 0.99428 0.53282 0.0
H226 H 0.29385 0.98661 0.41849 0.0
H227 H 0.37283 0.03728 0.5329 0.0
H228 H 0.28835 0.98013 0.49193 0.0
H229 H 0.3835 0.01257 0.4642 0.0
C230 C 0.36536 0.00937 0.4307 0.0
C231 C 0.34007 0.00311 0.41738 0.0
C232 C 0.30693 0.99228 0.50103 0.0
C233 C 0.33664 -0.00209 0.46473 0.0
C234 C 0.30408 0.0003 0.5243 0.0
C235 C 0.32754 0.0175 0.53608 0.0
C236 C 0.3335 0.00128 0.48975 0.0
C237 C 0.35401 0.02461 0.52437 0.0
C238 C 0.3638 0.00653 0.45429 0.0
C239 C 0.31378 0.99196 0.42825 0.0
N240 N 0.35618 0.01667 0.50187 0.0
N241 N 0.31258 0.99028 0.45142 0.0
H242 H 0.71489 0.01622 0.5364 0.0
H243 H 0.62965 0.98461 0.41918 0.0
H244 H 0.6211 0.99515 0.52962 0.0
H245 H 0.7243 0.00085 0.4228 0.0
H246 H 0.62559 0.00147 0.45918 0.0
H247 H 0.71829 0.02325 0.49478 0.0
C248 C 0.69496 0.01383 0.52619 0.0
C249 C 0.66777 0.00441 0.53631 0.0
C250 C 0.64729 0.00175 0.4513 0.0
C251 C 0.67146 0.01234 0.48906 0.0
C252 C 0.6496 0.99204 0.42844 0.0
C253 C 0.67741 0.99067 0.41788 0.0
C254 C 0.67306 0.00943 0.46391 0.0
C255 C 0.70248 0.00128 0.43048 0.0
C256 C 0.69692 0.01772 0.50249 0.0
C257 C 0.6426 0.00171 0.52243 0.0
N258 N 0.69981 0.00957 0.45306 0.0
N259 N 0.64512 0.00528 0.49953 0.0
H260 H 0.37494 0.95736 0.03372 0.0
H261 H 0.29299 0.01238 0.91791 0.0
H262 H 0.28519 -2e-05 0.03215 0.0
H263 H 0.38348 0.97319 0.92304 0.0
H264 H 0.29085 0.01638 0.9597 0.0
H265 H 0.37973 0.97125 -0.00664 0.0
C266 C 0.35623 0.96985 0.02483 0.0
C267 C 0.32948 0.97703 0.03616 0.0
C268 C 0.31126 0.00741 0.95161 0.0
C269 C 0.33467 0.99274 -0.01029 0.0
C270 C 0.31251 0.00521 0.92781 0.0
C271 C 0.3383 0.99185 0.9171 0.0
C272 C 0.33601 -0.00375 0.96458 0.0
C273 C 0.36299 0.98303 0.93062 0.0
C274 C 0.35899 0.9779 0.00176 0.0
C275 C 0.30613 0.99381 0.02392 0.0
N276 N 0.36113 0.98508 0.95362 0.0
N277 N 0.3091 0.00064 0.00118 0.0
H278 H 0.71772 0.98879 0.921 0.0
H279 H 0.61958 0.02607 0.03228 0.0
H280 H 0.6332 0.04646 0.92204 0.0
H281 H 0.70838 0.98048 0.0358 0.0
H282 H 0.62212 0.02434 -0.00904 0.0
H283 H 0.71293 0.97709 0.96221 0.0
C284 C 0.69812 -0.0013 0.92985 0.0
C285 C 0.67597 0.01896 0.91819 0.0
C286 C 0.64107 0.01448 0.00068 0.0
C287 C 0.67029 0.00557 0.96493 0.0
C288 C 0.63961 0.01544 0.02431 0.0
C289 C 0.66396 0.00387 0.03745 0.0
C290 C 0.66719 0.00218 -0.01003 0.0
C291 C 0.68918 0.98987 0.02622 0.0
C292 C 0.69541 0.99207 0.9533 0.0
C293 C 0.65099 0.03111 0.93037 0.0
N294 N 0.6903 0.98981 0.00302 0.0
N295 N 0.64891 0.02433 0.95303 0.0
H296 H 0.7725 0.48835 0.5347 0.0
H297 H 0.87487 0.49349 0.4239 0.0
H298 H 0.86554 0.51653 0.53355 0.0
H299 H 0.77995 0.47973 0.42048 0.0
H300 H 0.87263 0.48696 0.46513 0.0
H301 H 0.77554 0.47151 0.49405 0.0
C302 C 0.7936 0.49042 0.52598 0.0
C303 C 0.81869 0.50445 0.53728 0.0
C304 C 0.85224 0.48495 0.45544 0.0
C305 C 0.82237 0.48514 0.49124 0.0
C306 C 0.85354 0.48865 0.43188 0.0
C307 C 0.82749 0.48784 0.4189 0.0
C308 C 0.82461 0.48111 0.4662 0.0
C309 C 0.80051 0.48082 0.43 0.0
C310 C 0.79531 0.48089 0.50285 0.0
C311 C 0.84553 0.5065 0.52535 0.0
N312 N 0.79965 0.47842 0.45316 0.0
N313 N 0.84659 0.49723 0.50299 0.0
H314 H 0.2032 0.51292 0.53765 0.0
H315 H 0.11897 0.45757 0.42311 0.0
H316 H 0.11239 0.47513 0.53374 0.0
H317 H 0.20885 0.49927 0.42346 0.0
H318 H 0.11489 0.47215 0.4634 0.0
H319 H 0.20457 0.51652 0.49582 0.0
C320 C 0.18346 0.50598 0.52801 0.0
C321 C 0.1578 0.4931 0.53907 0.0
C322 C 0.13551 0.47846 0.45475 0.0
C323 C 0.1592 0.49705 0.49156 0.0
C324 C 0.13786 0.47001 0.43171 0.0
C325 C 0.16444 0.47672 0.42007 0.0
C326 C 0.16008 0.49321 0.46644 0.0
C327 C 0.18803 0.49345 0.43194 0.0
C328 C 0.18426 0.50796 0.50419 0.0
C329 C 0.1328 0.48458 0.52587 0.0
N330 N 0.18547 0.50065 0.45465 0.0
N331 N 0.13423 0.48639 0.50285 0.0
H332 H 0.88316 0.45586 0.92397 0.0
H333 H 0.78453 0.49656 0.03456 0.0
H334 H 0.79502 0.5034 0.91985 0.0
H335 H 0.86929 0.43942 0.03451 0.0
H336 H 0.78954 0.50694 -0.00675 0.0
H337 H 0.88029 0.45802 0.96526 0.0
C338 C 0.8632 0.46698 0.93179 0.0
C339 C 0.83914 0.47904 0.91849 0.0
C340 C 0.80706 0.49237 0.0024 0.0
C341 C 0.83554 0.48128 0.96596 0.0
C342 C 0.80423 0.48649 0.02591 0.0
C343 C 0.82639 0.46677 0.03788 0.0
C344 C 0.83229 0.47862 -0.00899 0.0
C345 C 0.8515 0.45438 0.02593 0.0
C346 C 0.86155 0.4682 0.95542 0.0
C347 C 0.814 0.49362 0.92955 0.0
N348 N 0.85368 0.4604 0.00321 0.0
N349 N 0.81269 0.49399 0.95274 0.0
H350 H 0.11673 0.51419 0.0328 0.0
H351 H 0.21999 0.48877 0.92323 0.0
H352 H 0.2091 0.48301 0.03773 0.0
H353 H 0.13065 0.53287 0.92274 0.0
H354 H 0.21489 0.47552 0.96427 0.0
H355 H 0.11972 0.50909 -0.00843 0.0
C356 C 0.13764 0.50594 0.02516 0.0
C357 C 0.16284 0.49961 0.03862 0.0
C358 C 0.19637 0.48772 0.95504 0.0
C359 C 0.16659 0.49423 -0.00872 0.0
C360 C 0.19925 0.49522 0.93169 0.0
C361 C 0.17586 0.51243 0.91973 0.0
C362 C 0.16983 0.49726 0.96623 0.0
C363 C 0.14942 0.52013 0.93138 0.0
C364 C 0.13936 0.50304 0.00159 0.0
C365 C 0.18922 0.4884 0.02787 0.0
N366 N 0.14722 0.51268 0.95396 0.0
N367 N 0.19057 0.4866 0.0047 0.0
H368 H 0.58998 0.04901 0.32641 0.0
H369 H 0.43703 0.05581 0.3154 0.0
H370 H 0.58124 0.92717 0.32699 0.0
H371 H 0.43987 0.93809 0.33557 0.0
H372 H 0.49053 0.05448 0.31004 0.0
H373 H 0.53689 0.05494 0.32152 0.0
C374 C 0.57691 0.02338 0.32508 0.0
C375 C 0.59021 0.98751 0.3273 0.0
C376 C 0.4797 0.02897 0.31589 0.0
C377 C 0.52868 0.99401 0.32122 0.0
C378 C 0.44892 0.02966 0.31871 0.0
C379 C 0.43388 -0.00278 0.32632 0.0
C380 C 0.4957 0.9957 0.32106 0.0
C381 C 0.45048 0.96397 0.32994 0.0
C382 C 0.54634 0.02679 0.32207 0.0
C383 C 0.57202 0.95542 0.32542 0.0
N384 N 0.48043 0.9642 0.32749 0.0
N385 N 0.54219 0.95946 0.32277 0.0
H386 H 0.42105 0.9152 0.129 0.0
H387 H 0.56567 0.04609 0.13542 0.0
H388 H 0.41903 0.03759 0.12923 0.0
H389 H 0.56824 0.92475 0.1259 0.0
H390 H 0.5119 0.04246 0.14023 0.0
H391 H 0.47478 0.91733 0.13486 0.0
C392 C 0.43179 0.9425 0.13061 0.0
C393 C 0.4155 0.97626 0.12831 0.0
C394 C 0.52429 0.01658 0.13733 0.0
C395 C 0.47701 0.9789 0.13492 0.0
C396 C 0.55503 0.01862 0.13465 0.0
C397 C 0.57152 0.98575 0.12994 0.0
C398 C 0.50989 0.98143 0.1353 0.0
C399 C 0.55645 0.95092 0.12923 0.0
C400 C 0.4625 0.9437 0.13387 0.0
C401 C 0.43068 0.01081 0.1306 0.0
N402 N 0.5265 0.94973 0.13166 0.0
N403 N 0.46055 0.01123 0.13357 0.0
H404 H 0.56517 0.9419 0.62931 0.0
H405 H 0.42146 0.07564 0.62906 0.0
H406 H 0.56876 0.06415 0.62637 0.0
H407 H 0.41844 0.95339 0.6261 0.0
H408 H 0.47529 0.07208 0.63406 0.0
H409 H 0.51143 0.94577 0.63409 0.0
C410 C 0.55475 0.96958 0.62993 0.0
C411 C 0.57156 0.00272 0.62716 0.0
C412 C 0.46278 0.04603 0.63254 0.0
C413 C 0.5099 0.00735 0.63249 0.0
C414 C 0.43201 0.04805 0.62977 0.0
C415 C 0.41538 0.0148 0.62687 0.0
C416 C 0.47703 0.01052 0.63245 0.0
C417 C 0.43033 0.97983 0.62799 0.0
C418 C 0.52401 0.97177 0.63261 0.0
C419 C 0.55674 0.0378 0.62821 0.0
N420 N 0.46026 0.97864 0.63049 0.0
N421 N 0.52678 0.03917 0.63059 0.0
H422 H 0.58175 0.06961 0.82319 0.0
H423 H 0.43733 0.93788 0.82207 0.0
H424 H 0.58395 0.94752 0.82853 0.0
H425 H 0.43449 0.06006 0.82608 0.0
H426 H 0.49115 0.94104 0.81748 0.0
H427 H 0.52804 0.06661 0.81737 0.0
C428 C 0.57105 0.04215 0.82283 0.0
C429 C 0.58739 0.00881 0.82665 0.0
C430 C 0.4787 0.96718 0.81913 0.0
C431 C 0.5259 0.00519 0.82009 0.0
C432 C 0.44792 0.9654 0.82167 0.0
C433 C 0.43133 -0.00128 0.82477 0.0
C434 C 0.49303 0.00253 0.81965 0.0
C435 C 0.44636 0.03358 0.82402 0.0
C436 C 0.54036 0.04047 0.81958 0.0
C437 C 0.57227 0.97403 0.82594 0.0
N438 N 0.47634 0.03455 0.82175 0.0
N439 N 0.54241 0.97316 0.82294 0.0
H440 H 0.92289 0.42481 0.32858 0.0
H441 H 0.0755 0.53871 0.32646 0.0
H442 H 0.92873 0.54691 0.3258 0.0
H443 H 0.07042 0.41658 0.32919 0.0
H444 H 0.02196 0.54165 0.32125 0.0
H445 H 0.97657 0.42082 0.32396 0.0
C446 C 0.93538 0.45083 0.32675 0.0
C447 C 0.9212 0.48632 0.32785 0.0
C448 C 0.03252 0.51416 0.32275 0.0
C449 C 0.98291 0.48184 0.32267 0.0
C450 C 0.06317 0.51242 0.32573 0.0
C451 C 0.07753 0.47732 0.32855 0.0
C452 C 0.01588 0.48058 0.32276 0.0
C453 C 0.06033 0.44426 0.3272 0.0
C454 C 0.9661 0.44848 0.32412 0.0
C455 C 0.93864 0.51895 0.32521 0.0
N456 N 0.03037 0.44672 0.32468 0.0
N457 N 0.96857 0.51592 0.32298 0.0
H458 H 0.0629 0.55214 0.13386 0.0
H459 H 0.9196 0.41848 0.13329 0.0
H460 H 0.06671 0.43008 0.12896 0.0
H461 H 0.91634 0.54059 0.1285 0.0
H462 H 0.97335 0.42212 0.13874 0.0
H463 H 0.00921 0.54814 0.13893 0.0
C464 C 0.05255 0.52447 0.13414 0.0
C465 C 0.06937 0.49144 0.13068 0.0
C466 C 0.96079 0.44812 0.13674 0.0
C467 C 0.0078 0.48668 0.13636 0.0
C468 C 0.93007 0.44607 0.13372 0.0
C469 C 0.91343 0.47924 0.13013 0.0
C470 C 0.97495 0.48359 0.13625 0.0
C471 C 0.92827 0.51421 0.1309 0.0
C472 C 0.02184 0.52221 0.13697 0.0
C473 C 0.05465 0.45636 0.13131 0.0
N474 N 0.95815 0.51544 0.13368 0.0
N475 N 0.02472 0.45493 0.13386 0.0
H476 H 0.91523 0.57302 0.62885 0.0
H477 H 0.0594 0.44035 0.63402 0.0
H478 H 0.91252 0.45065 0.62798 0.0
H479 H 0.06233 0.56242 0.62877 0.0
H480 H 0.00548 0.44395 0.63795 0.0
H481 H 0.96887 0.56992 0.63479 0.0
C482 C 0.92581 0.5455 0.63016 0.0
C483 C 0.90931 0.51206 0.62763 0.0
C484 C 0.01797 0.46997 0.63617 0.0
C485 C 0.97079 0.50832 0.63434 0.0
C486 C 0.0488 0.46794 0.63401 0.0
C487 C 0.06546 0.50109 0.63077 0.0
C488 C 0.00366 0.50539 0.63509 0.0
C489 C 0.05043 0.53605 0.63097 0.0
C490 C 0.95648 0.54375 0.63351 0.0
C491 C 0.92431 0.47722 0.62958 0.0
N492 N 0.02041 0.53725 0.63286 0.0
N493 N 0.95417 0.47627 0.63263 0.0
H494 H 0.08538 0.57185 0.81967 0.0
H495 H 0.93244 0.56509 0.83026 0.0
H496 H 0.08163 0.45222 0.83511 0.0
H497 H 0.94062 0.4439 0.82219 0.0
H498 H 0.98566 0.57117 0.82599 0.0
H499 H 0.03195 0.57168 0.81328 0.0
C500 C 0.07333 0.54553 0.82171 0.0
C501 C 0.08804 0.51217 0.82836 0.0
C502 C 0.976 0.54328 0.82447 0.0
C503 C 0.02643 0.51192 0.82184 0.0
C504 C 0.9454 0.53974 0.82713 0.0
C505 C 0.93194 0.50386 0.82677 0.0
C506 C 0.99349 0.51065 0.82142 0.0
C507 C 0.94998 0.47212 0.82264 0.0
C508 C 0.04264 0.5455 0.8183 0.0
C509 C 0.07127 0.47879 0.83034 0.0
N510 N 0.97984 0.47623 0.82045 0.0
N511 N 0.04141 0.47961 0.8273 0.0
H512 H 0.26274 0.35495 0.36167 0.0
H513 H 0.33924 0.18559 0.34534 0.0
H514 H 0.18402 0.29074 0.34591 0.0
H515 H 0.25454 0.13176 0.35606 0.0
H516 H 0.31465 0.24725 0.3459 0.0
H517 H 0.29154 0.29672 0.3615 0.0
C518 C 0.25152 0.32853 0.35797 0.0
C519 C 0.2209 0.32779 0.35365 0.0
C520 C 0.30142 0.22213 0.34861 0.0
C521 C 0.25411 0.26062 0.35273 0.0
C522 C 0.31551 0.1868 0.34808 0.0
C523 C 0.29898 0.15349 0.35082 0.0
C524 C 0.27055 0.22414 0.35207 0.0
C525 C 0.26821 0.15671 0.354 0.0
C526 C 0.26813 0.29517 0.35762 0.0
C527 C 0.20758 0.29266 0.34925 0.0
N528 N 0.25502 0.19136 0.35449 0.0
N529 N 0.22428 0.26046 0.34893 0.0
H530 H 0.76742 0.84921 0.36026 0.0
H531 H 0.74442 0.62442 0.35983 0.0
H532 H 0.68167 0.79552 0.35622 0.0
H533 H 0.83034 0.67771 0.35598 0.0
H534 H 0.72123 0.68684 0.36125 0.0
H535 H 0.79082 0.7868 0.36142 0.0
C536 C 0.75346 0.82427 0.3597 0.0
C537 C 0.72249 0.82761 0.35808 0.0
C538 C 0.74515 0.68495 0.36014 0.0
C539 C 0.74926 0.75595 0.35939 0.0
C540 C 0.75846 0.64928 0.35936 0.0
C541 C 0.78942 0.64581 0.35772 0.0
C542 C 0.76286 0.71757 0.35932 0.0
C543 C 0.80642 0.67906 0.3572 0.0
C544 C 0.76689 0.78863 0.36033 0.0
C545 C 0.7056 0.79429 0.35743 0.0
N546 N 0.7929 0.71358 0.35796 0.0
N547 N 0.71921 0.75985 0.35806 0.0
H548 H 0.15882 0.68181 0.11114 0.0
H549 H 0.23082 0.85466 0.09619 0.0
H550 H 0.24488 0.63169 0.09959 0.0
H551 H 0.31128 0.79243 0.11031 0.0
H552 H 0.20335 0.7955 0.09616 0.0
H553 H 0.18166 0.74443 0.11097 0.0
C554 C 0.18248 0.68405 0.1083 0.0
C555 C 0.19991 0.65149 0.10522 0.0
C556 C 0.22686 0.79459 0.09972 0.0
C557 C 0.22633 0.72326 0.10443 0.0
C558 C 0.24269 0.82849 0.09949 0.0
C559 C 0.27341 0.82855 0.10338 0.0
C560 C 0.2418 0.76033 0.10405 0.0
C561 C 0.28762 0.79373 0.10731 0.0
C562 C 0.19557 0.71993 0.10799 0.0
C563 C 0.23054 0.65602 0.10191 0.0
N564 N 0.27169 0.76102 0.1075 0.0
N565 N 0.24274 0.69118 0.10166 0.0
H566 H 0.75097 0.12144 0.11034 0.0
H567 H 0.73176 0.34676 0.10819 0.0
H568 H 0.66577 0.17735 0.11186 0.0
H569 H 0.81646 0.29034 0.11408 0.0
H570 H 0.70718 0.2852 0.10906 0.0
H571 H 0.7752 0.18308 0.11125 0.0
C572 C 0.73732 0.14672 0.11087 0.0
C573 C 0.70625 0.14423 0.11095 0.0
C574 C 0.73113 0.28625 0.11022 0.0
C575 C 0.73398 0.2151 0.11196 0.0
C576 C 0.74522 0.3214 0.10969 0.0
C577 C 0.77626 0.32369 0.111 0.0
C578 C 0.74817 0.25303 0.11197 0.0
C579 C 0.7925 0.2899 0.113 0.0
C580 C 0.75121 0.18195 0.11143 0.0
C581 C 0.68976 0.17797 0.11175 0.0
N582 N 0.77827 0.25595 0.11334 0.0
N583 N 0.70383 0.21205 0.11214 0.0
H584 H 0.66237 0.81389 0.59891 0.0
H585 H 0.8156 0.69812 0.59836 0.0
H586 H 0.7486 0.86641 0.59522 0.0
H587 H 0.72958 0.64478 0.5969 0.0
H588 H 0.79131 0.76016 0.59685 0.0
H589 H 0.68639 0.75152 0.59776 0.0
C590 C 0.68631 0.81231 0.59777 0.0
C591 C 0.70349 0.84539 0.59723 0.0
C592 C 0.77775 0.73488 0.59678 0.0
C593 C 0.73112 0.77427 0.596 0.0
C594 C 0.79162 0.69946 0.59765 0.0
C595 C 0.77461 0.66624 0.59781 0.0
C596 C 0.74661 0.7371 0.59615 0.0
C597 C 0.74359 0.66966 0.59684 0.0
C598 C 0.70002 0.77673 0.59711 0.0
C599 C 0.73445 0.84168 0.59573 0.0
N600 N 0.7306 0.70443 0.59613 0.0
N601 N 0.74724 0.80682 0.59525 0.0
H602 H 0.16113 0.31161 0.60782 0.0
H603 H 0.31756 0.20292 0.60649 0.0
H604 H 0.24579 0.36821 0.60459 0.0
H605 H 0.23316 0.14598 0.60174 0.0
H606 H 0.29152 0.26386 0.60715 0.0
H607 H 0.18698 0.25041 0.60695 0.0
C608 C 0.18511 0.31117 0.60692 0.0
C609 C 0.20131 0.34505 0.60625 0.0
C610 C 0.2787 0.23802 0.60592 0.0
C611 C 0.23101 0.2753 0.60533 0.0
C612 C 0.29358 0.20324 0.60556 0.0
C613 C 0.27753 0.16934 0.60403 0.0
C614 C 0.24755 0.23888 0.60486 0.0
C615 C 0.24645 0.17143 0.60289 0.0
C616 C 0.19986 0.27626 0.6064 0.0
C617 C 0.23237 0.34281 0.6051 0.0
N618 N 0.23248 0.20558 0.60337 0.0
N619 N 0.24618 0.30859 0.60471 0.0
H620 H 0.77083 0.13851 0.84726 0.0
H621 H 0.75351 0.36402 0.84275 0.0
H622 H 0.68669 0.19619 0.84103 0.0
H623 H 0.83836 0.30714 0.84337 0.0
H624 H 0.72889 0.30268 0.84196 0.0
H625 H 0.79603 0.19966 0.84578 0.0
C626 C 0.75763 0.16405 0.84556 0.0
C627 C 0.72656 0.16224 0.84434 0.0
C628 C 0.75289 0.30351 0.84221 0.0
C629 C 0.75535 0.23241 0.84266 0.0
C630 C 0.76701 0.33858 0.84269 0.0
C631 C 0.79809 0.34073 0.84322 0.0
C632 C 0.76988 0.27014 0.84237 0.0
C633 C 0.81436 0.30679 0.843 0.0
C634 C 0.77207 0.19896 0.84468 0.0
C635 C 0.71065 0.19625 0.84207 0.0
N636 N 0.80005 0.27285 0.84269 0.0
N637 N 0.72523 0.22993 0.84137 0.0
H638 H 0.27062 0.64043 0.85431 0.0
H639 H 0.25174 0.86591 0.85165 0.0
H640 H 0.18595 0.69717 0.84934 0.0
H641 H 0.33679 0.80972 0.84892 0.0
H642 H 0.22744 0.80431 0.85237 0.0
H643 H 0.29527 0.70198 0.8539 0.0
C644 C 0.25718 0.66586 0.85317 0.0
C645 C 0.22614 0.66365 0.85187 0.0
C646 C 0.25141 0.80537 0.8516 0.0
C647 C 0.2543 0.73428 0.8514 0.0
C648 C 0.26535 0.84057 0.85123 0.0
C649 C 0.29639 0.84298 0.85023 0.0
C650 C 0.26857 0.77216 0.85106 0.0
C651 C 0.31282 0.80917 0.84969 0.0
C652 C 0.27131 0.701 0.8529 0.0
C653 C 0.20991 0.69754 0.85037 0.0
N654 N 0.29869 0.77512 0.85014 0.0
N655 N 0.22419 0.73145 0.85021 0.0
H656 H 0.2829 0.92622 0.28083 0.0
H657 H 0.27548 0.05805 0.17248 0.0
H658 H 0.2837 0.04858 0.28342 0.0
H659 H 0.26707 0.93619 0.17029 0.0
H660 H 0.26639 0.05608 0.21352 0.0
H661 H 0.26557 0.92978 0.24139 0.0
C662 C 0.27895 0.95381 0.27325 0.0
C663 C 0.28557 0.98712 0.2852 0.0
C664 C 0.26592 0.02982 0.20398 0.0
C665 C 0.26602 0.99146 0.24009 0.0
C666 C 0.27102 0.03099 0.18052 0.0
C667 C 0.27296 -0.00285 0.1681 0.0
C668 C 0.26306 0.99456 0.21502 0.0
C669 C 0.26661 0.96291 0.17934 0.0
C670 C 0.26903 0.95586 0.25072 0.0
C671 C 0.27961 0.02211 0.27465 0.0
N672 N 0.26259 0.96241 0.20225 0.0
N673 N 0.27072 0.02337 0.25257 0.0
H674 H 0.71748 0.91073 0.17328 0.0
H675 H 0.73859 0.04606 0.27897 0.0
H676 H 0.72864 0.03202 0.16857 0.0
H677 H 0.73059 0.92433 0.28397 0.0
H678 H 0.74793 0.03964 0.23816 0.0
H679 H 0.73483 0.9131 0.21279 0.0
C680 C 0.72417 0.93771 0.18039 0.0
C681 C 0.7208 0.97135 0.16789 0.0
C682 C 0.74468 0.01425 0.24826 0.0
C683 C 0.74033 0.97439 0.213 0.0
C684 C 0.73941 0.01794 0.2716 0.0
C685 C 0.73289 0.9858 0.28475 0.0
C686 C 0.74309 0.97824 0.23805 0.0
C687 C 0.73471 0.95001 0.27435 0.0
C688 C 0.73403 0.9391 0.20296 0.0
C689 C 0.73012 0.0055 0.17783 0.0
N690 N 0.73901 0.94725 0.25152 0.0
N691 N 0.73893 0.00624 0.19993 0.0
H692 H 0.72243 0.92624 0.78217 0.0
H693 H 0.7271 0.06142 0.67511 0.0
H694 H 0.74176 0.04592 0.78537 0.0
H695 H 0.71409 0.94032 0.67118 0.0
H696 H 0.74394 0.05389 0.71445 0.0
H697 H 0.73144 0.92787 0.74107 0.0
C698 C 0.72936 0.95262 0.77434 0.0
C699 C 0.73049 0.98622 0.78703 0.0
C700 C 0.73786 0.02887 0.70486 0.0
C701 C 0.74027 0.9885 0.74011 0.0
C702 C 0.72819 0.03321 0.68239 0.0
C703 C 0.71841 0.00161 0.67005 0.0
C704 C 0.73739 0.99277 0.71508 0.0
C705 C 0.72077 0.96563 0.68023 0.0
C706 C 0.73436 0.95362 0.75085 0.0
C707 C 0.73983 0.01954 0.77608 0.0
N708 N 0.72949 0.96227 0.70229 0.0
N709 N 0.74375 0.02002 0.75317 0.0
H710 H 0.2782 0.94715 0.78486 0.0
H711 H 0.26416 0.06102 0.669 0.0
H712 H 0.2826 0.06909 0.77914 0.0
H713 H 0.27547 0.93966 0.67374 0.0
H714 H 0.25442 0.06328 0.70984 0.0
H715 H 0.26118 0.94377 0.74549 0.0
C716 C 0.27516 0.97332 0.77543 0.0
C717 C 0.28266 0.00844 0.78508 0.0
C718 C 0.25844 0.03606 0.70188 0.0
C719 C 0.26327 0.00463 0.73997 0.0
C720 C 0.264 0.03469 0.67855 0.0
C721 C 0.27153 0.00019 0.6681 0.0
C722 C 0.26065 0.00274 0.71486 0.0
C723 C 0.2703 0.96695 0.68119 0.0
C724 C 0.26537 0.97131 0.75295 0.0
C725 C 0.2776 0.04139 0.77224 0.0
N726 N 0.26564 0.96914 0.70404 0.0
N727 N 0.26874 0.03863 0.75015 0.0
H728 H 0.75541 0.44032 0.16884 0.0
H729 H 0.77622 0.55079 0.28498 0.0
H730 H 0.77673 0.55928 0.17362 0.0
H731 H 0.76899 0.42911 0.27911 0.0
H732 H 0.76098 0.55713 0.24528 0.0
H733 H 0.7442 0.43955 0.20947 0.0
C734 C 0.75712 0.46652 0.17836 0.0
C735 C 0.76784 0.49969 0.16802 0.0
C736 C 0.76222 0.52909 0.25278 0.0
C737 C 0.75545 0.49881 0.21456 0.0
C738 C 0.77099 0.52537 0.27546 0.0
C739 C 0.7747 0.48924 0.2852 0.0
C740 C 0.75727 0.49645 0.23972 0.0
C741 C 0.76698 0.45747 0.27217 0.0
C742 C 0.75074 0.46602 0.20158 0.0
C743 C 0.76899 0.53296 0.18102 0.0
N744 N 0.75913 0.46179 0.24995 0.0
N745 N 0.76355 0.53149 0.2038 0.0
H746 H 0.22931 0.43286 0.28784 0.0
H747 H 0.22079 0.54655 0.1716 0.0
H748 H 0.2182 0.5542 0.28276 0.0
H749 H 0.2172 0.42454 0.17716 0.0
H750 H 0.2357 0.55012 0.21148 0.0
H751 H 0.24097 0.43057 0.2473 0.0
C752 C 0.22987 0.45917 0.27828 0.0
C753 C 0.22192 0.49369 0.28853 0.0
C754 C 0.23218 0.52253 0.20388 0.0
C755 C 0.23501 0.49111 0.2421 0.0
C756 C 0.22362 0.52041 0.1811 0.0
C757 C 0.21691 0.4852 0.17123 0.0
C758 C 0.23383 0.48923 0.21692 0.0
C759 C 0.22162 0.45231 0.1842 0.0
C760 C 0.23654 0.45779 0.25513 0.0
C761 C 0.22369 0.52691 0.27545 0.0
N762 N 0.22925 0.45517 0.20655 0.0
N763 N 0.22945 0.52471 0.25275 0.0
H764 H 0.24695 0.55199 0.78907 0.0
H765 H 0.215 0.57153 0.67608 0.0
H766 H 0.21855 0.43644 0.77922 0.0
H767 H 0.21844 0.44942 0.6718 0.0
H768 H 0.23292 0.56769 0.71511 0.0
H769 H 0.2555 0.55775 0.74822 0.0
C770 C 0.24289 0.52763 0.77828 0.0
C771 C 0.23114 0.49404 0.7874 0.0
C772 C 0.23079 0.54168 0.70554 0.0
C773 C 0.2394 0.50103 0.74049 0.0
C774 C 0.22027 0.54395 0.68319 0.0
C775 C 0.21457 0.51076 0.67086 0.0
C776 C 0.23565 0.50587 0.71558 0.0
C777 C 0.22191 0.47576 0.68087 0.0
C778 C 0.24739 0.53111 0.75487 0.0
C779 C 0.22712 0.46306 0.77283 0.0
N780 N 0.23153 0.47422 0.70276 0.0
N781 N 0.23061 0.46759 0.74998 0.0
H782 H 0.76336 0.44465 0.67642 0.0
H783 H 0.785 0.57578 0.78416 0.0
H784 H 0.77003 0.56668 0.67325 0.0
H785 H 0.77645 0.45396 0.78683 0.0
H786 H 0.76713 0.5747 0.74475 0.0
H787 H 0.75522 0.44909 0.71747 0.0
C788 C 0.76251 0.47242 0.68426 0.0
C789 C 0.76828 0.50524 0.67151 0.0
C790 C 0.76864 0.54828 0.75412 0.0
C791 C 0.75946 0.51053 0.71848 0.0
C792 C 0.7788 0.54892 0.77662 0.0
C793 C 0.783 0.51483 0.78853 0.0
C794 C 0.76283 0.51329 0.74354 0.0
C795 C 0.77431 0.48086 0.77804 0.0
C796 C 0.75792 0.47497 0.70773 0.0
C797 C 0.76645 0.54052 0.68252 0.0
N798 N 0.76513 0.48089 0.75603 0.0
N799 N 0.76283 0.54218 0.70546 0.0
loop_
_geom_bond_atom_site_label_1
_geom_bond_atom_site_label_2
_geom_bond_distance
_geom_bond_site_symmetry_2
_ccdc_geom_bond_type
C0 O1 1.306 1_545 S
C0 O3 1.160 . S
O1 C0 1.306 1_565 S
O1 Cd2 2.228 . S
Cd2 O1 2.228 . S
Cd2 O6 2.273 1_565 S
Cd2 O10 2.277 1_565 S
O3 C0 1.160 . S
O3 Cd4 2.203 . S
Cd4 O3 2.203 . S
Cd4 O6 2.411 . S
Cd4 O7 2.333 . S
Cd4 O8 2.352 . S
Cd4 O12 2.277 . S
Cd4 O13 2.356 . S
C5 O10 1.209 . S
C5 O12 1.226 . S
O6 Cd2 2.273 1_545 S
O6 Cd4 2.411 . S
O6 C9 1.320 . S
O7 Cd4 2.333 . S
O7 C9 1.214 . S
O8 Cd4 2.352 . S
O8 C11 1.258 . S
C9 O6 1.320 . S
C9 O7 1.214 . S
O10 Cd2 2.277 1_545 S
O10 C5 1.209 . S
C11 O8 1.258 . S
C11 O13 1.282 . S
O12 Cd4 2.277 . S
O12 C5 1.226 . S
O13 Cd4 2.356 . S
O13 C11 1.282 . S
C14 O15 1.306 1_565 S
C14 O17 1.160 . S
O15 C14 1.306 1_545 S
O15 Cd16 2.228 . S
Cd16 O15 2.228 . S
Cd16 O20 2.273 1_545 S
Cd16 O24 2.277 1_545 S
O17 C14 1.160 . S
O17 Cd18 2.203 . S
Cd18 O17 2.203 . S
Cd18 O20 2.411 . S
Cd18 O21 2.333 . S
Cd18 O22 2.352 . S
Cd18 O26 2.277 . S
Cd18 O27 2.356 . S
C19 O24 1.209 . S
C19 O26 1.226 . S
O20 Cd16 2.273 1_565 S
O20 Cd18 2.411 . S
O20 C23 1.320 . S
O21 Cd18 2.333 . S
O21 C23 1.214 . S
O22 Cd18 2.352 . S
O22 C25 1.258 . S
C23 O20 1.320 . S
C23 O21 1.214 . S
O24 Cd16 2.277 1_565 S
O24 C19 1.209 . S
C25 O22 1.258 . S
C25 O27 1.282 . S
O26 Cd18 2.277 . S
O26 C19 1.226 . S
O27 Cd18 2.356 . S
O27 C25 1.282 . S
C28 O29 1.306 1_565 S
C28 O31 1.160 . S
O29 C28 1.306 1_545 S
O29 Cd30 2.228 . S
Cd30 O29 2.228 . S
Cd30 O34 2.273 1_545 S
Cd30 O38 2.277 1_545 S
O31 C28 1.160 . S
O31 Cd32 2.203 . S
Cd32 O31 2.203 . S
Cd32 O34 2.411 . S
Cd32 O35 2.333 . S
Cd32 O36 2.352 . S
Cd32 O40 2.277 . S
Cd32 O41 2.356 . S
C33 O38 1.209 . S
C33 O40 1.226 . S
O34 Cd30 2.273 1_565 S
O34 Cd32 2.411 . S
O34 C37 1.320 . S
O35 Cd32 2.333 . S
O35 C37 1.214 . S
O36 Cd32 2.352 . S
O36 C39 1.258 . S
C37 O34 1.320 . S
C37 O35 1.214 . S
O38 Cd30 2.277 1_565 S
O38 C33 1.209 . S
C39 O36 1.258 . S
C39 O41 1.282 . S
O40 Cd32 2.277 . S
O40 C33 1.226 . S
O41 Cd32 2.356 . S
O41 C39 1.282 . S
C42 O43 1.306 1_545 S
C42 O45 1.160 . S
O43 C42 1.306 1_565 S
O43 Cd44 2.228 . S
Cd44 O43 2.228 . S
Cd44 O48 2.273 1_565 S
Cd44 O52 2.277 1_565 S
O45 C42 1.160 . S
O45 Cd46 2.203 . S
Cd46 O45 2.203 . S
Cd46 O48 2.411 . S
Cd46 O49 2.333 . S
Cd46 O50 2.352 . S
Cd46 O54 2.277 . S
Cd46 O55 2.356 . S
C47 O52 1.209 . S
C47 O54 1.226 . S
O48 Cd44 2.273 1_545 S
O48 Cd46 2.411 . S
O48 C51 1.320 . S
O49 Cd46 2.333 . S
O49 C51 1.214 . S
O50 Cd46 2.352 . S
O50 C53 1.258 . S
C51 O48 1.320 . S
C51 O49 1.214 . S
O52 Cd44 2.277 1_545 S
O52 C47 1.209 . S
C53 O50 1.258 . S
C53 O55 1.282 . S
O54 Cd46 2.277 . S
O54 C47 1.226 . S
O55 Cd46 2.356 . S
O55 C53 1.282 . S
C56 O57 1.306 1_565 S
C56 O59 1.160 . S
O57 C56 1.306 1_545 S
O57 Cd58 2.228 . S
Cd58 O57 2.228 . S
Cd58 O62 2.273 1_545 S
Cd58 O66 2.277 1_545 S
O59 C56 1.160 . S
O59 Cd60 2.203 . S
Cd60 O59 2.203 . S
Cd60 O62 2.411 . S
Cd60 O63 2.333 . S
Cd60 O64 2.352 . S
Cd60 O68 2.277 . S
Cd60 O69 2.356 . S
C61 O66 1.209 . S
C61 O68 1.226 . S
O62 Cd58 2.273 1_565 S
O62 Cd60 2.411 . S
O62 C65 1.320 . S
O63 Cd60 2.333 . S
O63 C65 1.214 . S
O64 Cd60 2.352 . S
O64 C67 1.258 . S
C65 O62 1.320 . S
C65 O63 1.214 . S
O66 Cd58 2.277 1_565 S
O66 C61 1.209 . S
C67 O64 1.258 . S
C67 O69 1.282 . S
O68 Cd60 2.277 . S
O68 C61 1.226 . S
O69 Cd60 2.356 . S
O69 C67 1.282 . S
C70 O71 1.306 1_545 S
C70 O73 1.160 . S
O71 C70 1.306 1_565 S
O71 Cd72 2.228 . S
Cd72 O71 2.228 . S
Cd72 O76 2.273 1_565 S
Cd72 O80 2.277 1_565 S
O73 C70 1.160 . S
O73 Cd74 2.203 . S
Cd74 O73 2.203 . S
Cd74 O76 2.411 . S
Cd74 O77 2.333 . S
Cd74 O78 2.352 . S
Cd74 O82 2.277 . S
Cd74 O83 2.356 . S
C75 O80 1.209 . S
C75 O82 1.226 . S
O76 Cd72 2.273 1_545 S
O76 Cd74 2.411 . S
O76 C79 1.320 . S
O77 Cd74 2.333 . S
O77 C79 1.214 . S
O78 Cd74 2.352 . S
O78 C81 1.258 . S
C79 O76 1.320 . S
C79 O77 1.214 . S
O80 Cd72 2.277 1_545 S
O80 C75 1.209 . S
C81 O78 1.258 . S
C81 O83 1.282 . S
O82 Cd74 2.277 . S
O82 C75 1.226 . S
O83 Cd74 2.356 . S
O83 C81 1.282 . S
C84 O85 1.306 1_545 S
C84 O87 1.160 . S
O85 C84 1.306 1_565 S
O85 Cd86 2.228 . S
Cd86 O85 2.228 . S
Cd86 O90 2.273 1_565 S
Cd86 O94 2.277 1_565 S
O87 C84 1.160 . S
O87 Cd88 2.203 . S
Cd88 O87 2.203 . S
Cd88 O90 2.411 . S
Cd88 O91 2.333 . S
Cd88 O92 2.352 . S
Cd88 O96 2.277 . S
Cd88 O97 2.356 . S
C89 O94 1.209 . S
C89 O96 1.226 . S
O90 Cd86 2.273 1_545 S
O90 Cd88 2.411 . S
O90 C93 1.320 . S
O91 Cd88 2.333 . S
O91 C93 1.214 . S
O92 Cd88 2.352 . S
O92 C95 1.258 . S
C93 O90 1.320 . S
C93 O91 1.214 . S
O94 Cd86 2.277 1_545 S
O94 C89 1.209 . S
C95 O92 1.258 . S
C95 O97 1.282 . S
O96 Cd88 2.277 . S
O96 C89 1.226 . S
O97 Cd88 2.356 . S
O97 C95 1.282 . S
C98 O99 1.306 1_565 S
C98 O101 1.160 . S
O99 C98 1.306 1_545 S
O99 Cd100 2.228 . S
Cd100 O99 2.228 . S
Cd100 O104 2.273 1_545 S
Cd100 O108 2.277 1_545 S
O101 C98 1.160 . S
O101 Cd102 2.203 . S
Cd102 O101 2.203 . S
Cd102 O104 2.411 . S
Cd102 O105 2.333 . S
Cd102 O106 2.352 . S
Cd102 O110 2.277 . S
Cd102 O111 2.356 . S
C103 O108 1.209 . S
C103 O110 1.226 . S
O104 Cd100 2.273 1_565 S
O104 Cd102 2.411 . S
O104 C107 1.320 . S
O105 Cd102 2.333 . S
O105 C107 1.214 . S
O106 Cd102 2.352 . S
O106 C109 1.258 . S
C107 O104 1.320 . S
C107 O105 1.214 . S
O108 Cd100 2.277 1_565 S
O108 C103 1.209 . S
C109 O106 1.258 . S
C109 O111 1.282 . S
O110 Cd102 2.277 . S
O110 C103 1.226 . S
O111 Cd102 2.356 . S
O111 C109 1.282 . S
C112 O113 1.306 . S
C112 O115 1.160 . S
O113 C112 1.306 . S
O113 Cd114 2.228 . S
Cd114 O113 2.228 . S
Cd114 O118 2.273 . S
Cd114 O122 2.277 . S
O115 C112 1.160 . S
O115 Cd116 2.203 . S
Cd116 O115 2.203 . S
Cd116 O118 2.411 . S
Cd116 O119 2.333 . S
Cd116 O120 2.352 . S
Cd116 O124 2.277 . S
Cd116 O125 2.356 . S
C117 O122 1.209 . S
C117 O124 1.226 . S
O118 Cd114 2.273 . S
O118 Cd116 2.411 . S
O118 C121 1.320 . S
O119 Cd116 2.333 . S
O119 C121 1.214 . S
O120 Cd116 2.352 . S
O120 C123 1.258 . S
C121 O118 1.320 . S
C121 O119 1.214 . S
O122 Cd114 2.277 . S
O122 C117 1.209 . S
C123 O120 1.258 . S
C123 O125 1.282 . S
O124 Cd116 2.277 . S
O124 C117 1.226 . S
O125 Cd116 2.356 . S
O125 C123 1.282 . S
C126 O127 1.306 . S
C126 O129 1.160 . S
O127 C126 1.306 . S
O127 Cd128 2.228 . S
Cd128 O127 2.228 . S
Cd128 O132 2.273 . S
Cd128 O136 2.277 . S
O129 C126 1.160 . S
O129 Cd130 2.203 . S
Cd130 O129 2.203 . S
Cd130 O132 2.411 . S
Cd130 O133 2.333 . S
Cd130 O134 2.352 . S
Cd130 O138 2.277 . S
Cd130 O139 2.356 . S
C131 O136 1.209 . S
C131 O138 1.226 . S
O132 Cd128 2.273 . S
O132 Cd130 2.411 . S
O132 C135 1.320 . S
O133 Cd130 2.333 . S
O133 C135 1.214 . S
O134 Cd130 2.352 . S
O134 C137 1.258 . S
C135 O132 1.320 . S
C135 O133 1.214 . S
O136 Cd128 2.277 . S
O136 C131 1.209 . S
C137 O134 1.258 . S
C137 O139 1.282 . S
O138 Cd130 2.277 . S
O138 C131 1.226 . S
O139 Cd130 2.356 . S
O139 C137 1.282 . S
C140 O141 1.306 . S
C140 O143 1.160 . S
O141 C140 1.306 . S
O141 Cd142 2.228 . S
Cd142 O141 2.228 . S
Cd142 O146 2.273 . S
Cd142 O150 2.277 . S
O143 C140 1.160 . S
O143 Cd144 2.203 . S
Cd144 O143 2.203 . S
Cd144 O146 2.411 . S
Cd144 O147 2.333 . S
Cd144 O148 2.352 . S
Cd144 O152 2.277 . S
Cd144 O153 2.356 . S
C145 O150 1.209 . S
C145 O152 1.226 . S
O146 Cd142 2.273 . S
O146 Cd144 2.411 . S
O146 C149 1.320 . S
O147 Cd144 2.333 . S
O147 C149 1.214 . S
O148 Cd144 2.352 . S
O148 C151 1.258 . S
C149 O146 1.320 . S
C149 O147 1.214 . S
O150 Cd142 2.277 . S
O150 C145 1.209 . S
C151 O148 1.258 . S
C151 O153 1.282 . S
O152 Cd144 2.277 . S
O152 C145 1.226 . S
O153 Cd144 2.356 . S
O153 C151 1.282 . S
C154 O155 1.306 . S
C154 O157 1.160 . S
O155 C154 1.306 . S
O155 Cd156 2.228 . S
Cd156 O155 2.228 . S
Cd156 O160 2.273 . S
Cd156 O164 2.277 . S
O157 C154 1.160 . S
O157 Cd158 2.203 . S
Cd158 O157 2.203 . S
Cd158 O160 2.411 . S
Cd158 O161 2.333 . S
Cd158 O162 2.352 . S
Cd158 O166 2.277 . S
Cd158 O167 2.356 . S
C159 O164 1.209 . S
C159 O166 1.226 . S
O160 Cd156 2.273 . S
O160 Cd158 2.411 . S
O160 C163 1.320 . S
O161 Cd158 2.333 . S
O161 C163 1.214 . S
O162 Cd158 2.352 . S
O162 C165 1.258 . S
C163 O160 1.320 . S
C163 O161 1.214 . S
O164 Cd156 2.277 . S
O164 C159 1.209 . S
C165 O162 1.258 . S
C165 O167 1.282 . S
O166 Cd158 2.277 . S
O166 C159 1.226 . S
O167 Cd158 2.356 . S
O167 C165 1.282 . S
C168 O169 1.306 . S
C168 O171 1.160 . S
O169 C168 1.306 . S
O169 Cd170 2.228 . S
Cd170 O169 2.228 . S
Cd170 O174 2.273 . S
Cd170 O178 2.277 . S
O171 C168 1.160 . S
O171 Cd172 2.203 . S
Cd172 O171 2.203 . S
Cd172 O174 2.411 . S
Cd172 O175 2.333 . S
Cd172 O176 2.352 . S
Cd172 O180 2.277 . S
Cd172 O181 2.356 . S
C173 O178 1.209 . S
C173 O180 1.226 . S
O174 Cd170 2.273 . S
O174 Cd172 2.411 . S
O174 C177 1.320 . S
O175 Cd172 2.333 . S
O175 C177 1.214 . S
O176 Cd172 2.352 . S
O176 C179 1.258 . S
C177 O174 1.320 . S
C177 O175 1.214 . S
O178 Cd170 2.277 . S
O178 C173 1.209 . S
C179 O176 1.258 . S
C179 O181 1.282 . S
O180 Cd172 2.277 . S
O180 C173 1.226 . S
O181 Cd172 2.356 . S
O181 C179 1.282 . S
C182 O183 1.306 . S
C182 O185 1.160 . S
O183 C182 1.306 . S
O183 Cd184 2.228 . S
Cd184 O183 2.228 . S
Cd184 O188 2.273 . S
Cd184 O192 2.277 . S
O185 C182 1.160 . S
O185 Cd186 2.203 . S
Cd186 O185 2.203 . S
Cd186 O188 2.411 . S
Cd186 O189 2.333 . S
Cd186 O190 2.352 . S
Cd186 O194 2.277 . S
Cd186 O195 2.356 . S
C187 O192 1.209 . S
C187 O194 1.226 . S
O188 Cd184 2.273 . S
O188 Cd186 2.411 . S
O188 C191 1.320 . S
O189 Cd186 2.333 . S
O189 C191 1.214 . S
O190 Cd186 2.352 . S
O190 C193 1.258 . S
C191 O188 1.320 . S
C191 O189 1.214 . S
O192 Cd184 2.277 . S
O192 C187 1.209 . S
C193 O190 1.258 . S
C193 O195 1.282 . S
O194 Cd186 2.277 . S
O194 C187 1.226 . S
O195 Cd186 2.356 . S
O195 C193 1.282 . S
C196 O197 1.306 . S
C196 O199 1.160 . S
O197 C196 1.306 . S
O197 Cd198 2.228 . S
Cd198 O197 2.228 . S
Cd198 O202 2.273 . S
Cd198 O206 2.277 . S
O199 C196 1.160 . S
O199 Cd200 2.203 . S
Cd200 O199 2.203 . S
Cd200 O202 2.411 . S
Cd200 O203 2.333 . S
Cd200 O204 2.352 . S
Cd200 O208 2.277 . S
Cd200 O209 2.356 . S
C201 O206 1.209 . S
C201 O208 1.226 . S
O202 Cd198 2.273 . S
O202 Cd200 2.411 . S
O202 C205 1.320 . S
O203 Cd200 2.333 . S
O203 C205 1.214 . S
O204 Cd200 2.352 . S
O204 C207 1.258 . S
C205 O202 1.320 . S
C205 O203 1.214 . S
O206 Cd198 2.277 . S
O206 C201 1.209 . S
C207 O204 1.258 . S
C207 O209 1.282 . S
O208 Cd200 2.277 . S
O208 C201 1.226 . S
O209 Cd200 2.356 . S
O209 C207 1.282 . S
C210 O211 1.306 . S
C210 O213 1.160 . S
O211 C210 1.306 . S
O211 Cd212 2.228 . S
Cd212 O211 2.228 . S
Cd212 O216 2.273 . S
Cd212 O220 2.277 . S
O213 C210 1.160 . S
O213 Cd214 2.203 . S
Cd214 O213 2.203 . S
Cd214 O216 2.411 . S
Cd214 O217 2.333 . S
Cd214 O218 2.352 . S
Cd214 O222 2.277 . S
Cd214 O223 2.356 . S
C215 O220 1.209 . S
C215 O222 1.226 . S
O216 Cd212 2.273 . S
O216 Cd214 2.411 . S
O216 C219 1.320 . S
O217 Cd214 2.333 . S
O217 C219 1.214 . S
O218 Cd214 2.352 . S
O218 C221 1.258 . S
C219 O216 1.320 . S
C219 O217 1.214 . S
O220 Cd212 2.277 . S
O220 C215 1.209 . S
C221 O218 1.258 . S
C221 O223 1.282 . S
O222 Cd214 2.277 . S
O222 C215 1.226 . S
O223 Cd214 2.356 . S
O223 C221 1.282 . S
H224 C230 0.930 . S
H225 C234 0.930 . S
H226 C239 0.929 . S
H227 C237 0.929 . S
H228 C232 0.929 . S
H229 C238 0.929 . S
C230 H224 0.930 . S
C230 C231 1.367 . S
C230 C238 1.378 . S
C231 C230 1.367 . S
C231 C239 1.433 . S
C232 H228 0.929 . S
C232 C234 1.378 . S
C232 C236 1.350 . S
C233 C236 1.463 . S
C233 C238 1.350 . S
C233 N241 1.427 . S
C234 H225 0.930 . S
C234 C232 1.378 . S
C234 C235 1.367 . S
C235 C234 1.367 . S
C235 C237 1.433 . S
C236 C232 1.350 . S
C236 C233 1.463 . S
C236 N240 1.427 . S
C237 H227 0.929 . S
C237 C235 1.433 . S
C237 N240 1.384 . S
C238 H229 0.929 . S
C238 C230 1.378 . S
C238 C233 1.350 . S
C239 H226 0.929 . S
C239 C231 1.433 . S
C239 N241 1.384 . S
N240 C236 1.427 . S
N240 C237 1.384 . S
N241 C233 1.427 . S
N241 C239 1.384 . S
H242 C248 0.930 . S
H243 C252 0.930 1_545 S
H244 C257 0.929 1_545 S
H245 C255 0.929 . S
H246 C250 0.929 1_545 S
H247 C256 0.929 . S
C248 H242 0.930 . S
C248 C249 1.367 . S
C248 C256 1.378 . S
C249 C248 1.367 . S
C249 C257 1.433 . S
C250 H246 0.929 1_565 S
C250 C252 1.378 . S
C250 C254 1.350 . S
C251 C254 1.463 . S
C251 C256 1.350 . S
C251 N259 1.427 . S
C252 H243 0.930 1_565 S
C252 C250 1.378 . S
C252 C253 1.367 . S
C253 C252 1.367 . S
C253 C255 1.433 . S
C254 C250 1.350 . S
C254 C251 1.463 . S
C254 N258 1.427 . S
C255 H245 0.929 . S
C255 C253 1.433 . S
C255 N258 1.384 . S
C256 H247 0.929 . S
C256 C248 1.378 . S
C256 C251 1.350 . S
C257 H244 0.929 1_565 S
C257 C249 1.433 . S
C257 N259 1.384 . S
N258 C254 1.427 . S
N258 C255 1.384 . S
N259 C251 1.427 . S
N259 C257 1.384 . S
H260 C266 0.930 . S
H261 C270 0.930 . S
H262 C275 0.929 . S
H263 C273 0.929 . S
H264 C268 0.929 . S
H265 C274 0.929 . S
C266 H260 0.930 . S
C266 C267 1.367 . S
C266 C274 1.378 . S
C267 C266 1.367 . S
C267 C275 1.433 1_565 S
C268 H264 0.929 . S
C268 C270 1.378 . S
C268 C272 1.350 1_545 S
C269 C272 1.463 1_554 S
C269 C274 1.350 . S
C269 N277 1.427 1_565 S
C270 H261 0.930 . S
C270 C268 1.378 . S
C270 C271 1.367 1_545 S
C271 C270 1.367 1_565 S
C271 C273 1.433 . S
C272 C268 1.350 1_565 S
C272 C269 1.463 1_556 S
C272 N276 1.427 . S
C273 H263 0.929 . S
C273 C271 1.433 . S
C273 N276 1.384 . S
C274 H265 0.929 . S
C274 C266 1.378 . S
C274 C269 1.350 . S
C275 H262 0.929 . S
C275 C267 1.433 1_545 S
C275 N277 1.384 . S
N276 C272 1.427 . S
N276 C273 1.384 . S
N277 C269 1.427 1_545 S
N277 C275 1.384 . S
H278 C284 0.930 . S
H279 C288 0.930 . S
H280 C293 0.929 . S
H281 C291 0.929 . S
H282 C286 0.929 . S
H283 C292 0.929 . S
C284 H278 0.930 . S
C284 C285 1.367 1_565 S
C284 C292 1.378 . S
C285 C284 1.367 1_545 S
C285 C293 1.433 . S
C286 H282 0.929 . S
C286 C288 1.378 . S
C286 C290 1.350 . S
C287 C290 1.463 1_556 S
C287 C292 1.350 1_545 S
C287 N295 1.427 . S
C288 H279 0.930 . S
C288 C286 1.378 . S
C288 C289 1.367 . S
C289 C288 1.367 . S
C289 C291 1.433 1_545 S
C290 C286 1.350 . S
C290 C287 1.463 1_554 S
C290 N294 1.427 1_545 S
C291 H281 0.929 . S
C291 C289 1.433 1_565 S
C291 N294 1.384 . S
C292 H283 0.929 . S
C292 C284 1.378 . S
C292 C287 1.350 1_565 S
C293 H280 0.929 . S
C293 C285 1.433 . S
C293 N295 1.384 . S
N294 C290 1.427 1_565 S
N294 C291 1.384 . S
N295 C287 1.427 . S
N295 C293 1.384 . S
H296 C302 0.930 . S
H297 C306 0.930 . S
H298 C311 0.929 . S
H299 C309 0.929 . S
H300 C304 0.929 . S
H301 C310 0.929 . S
C302 H296 0.930 . S
C302 C303 1.367 . S
C302 C310 1.378 . S
C303 C302 1.367 . S
C303 C311 1.433 . S
C304 H300 0.929 . S
C304 C306 1.378 . S
C304 C308 1.350 . S
C305 C308 1.463 . S
C305 C310 1.350 . S
C305 N313 1.427 . S
C306 H297 0.930 . S
C306 C304 1.378 . S
C306 C307 1.367 . S
C307 C306 1.367 . S
C307 C309 1.433 . S
C308 C304 1.350 . S
C308 C305 1.463 . S
C308 N312 1.427 . S
C309 H299 0.929 . S
C309 C307 1.433 . S
C309 N312 1.384 . S
C310 H301 0.929 . S
C310 C302 1.378 . S
C310 C305 1.350 . S
C311 H298 0.929 . S
C311 C303 1.433 . S
C311 N313 1.384 . S
N312 C308 1.427 . S
N312 C309 1.384 . S
N313 C305 1.427 . S
N313 C311 1.384 . S
H314 C320 0.930 . S
H315 C324 0.930 . S
H316 C329 0.929 . S
H317 C327 0.929 . S
H318 C322 0.929 . S
H319 C328 0.929 . S
C320 H314 0.930 . S
C320 C321 1.367 . S
C320 C328 1.378 . S
C321 C320 1.367 . S
C321 C329 1.433 . S
C322 H318 0.929 . S
C322 C324 1.378 . S
C322 C326 1.350 . S
C323 C326 1.463 . S
C323 C328 1.350 . S
C323 N331 1.427 . S
C324 H315 0.930 . S
C324 C322 1.378 . S
C324 C325 1.367 . S
C325 C324 1.367 . S
C325 C327 1.433 . S
C326 C322 1.350 . S
C326 C323 1.463 . S
C326 N330 1.427 . S
C327 H317 0.929 . S
C327 C325 1.433 . S
C327 N330 1.384 . S
C328 H319 0.929 . S
C328 C320 1.378 . S
C328 C323 1.350 . S
C329 H316 0.929 . S
C329 C321 1.433 . S
C329 N331 1.384 . S
N330 C326 1.427 . S
N330 C327 1.384 . S
N331 C323 1.427 . S
N331 C329 1.384 . S
H332 C338 0.930 . S
H333 C342 0.930 . S
H334 C347 0.929 . S
H335 C345 0.929 . S
H336 C340 0.929 . S
H337 C346 0.929 . S
C338 H332 0.930 . S
C338 C339 1.367 . S
C338 C346 1.378 . S
C339 C338 1.367 . S
C339 C347 1.433 . S
C340 H336 0.929 . S
C340 C342 1.378 . S
C340 C344 1.350 . S
C341 C344 1.463 1_556 S
C341 C346 1.350 . S
C341 N349 1.427 . S
C342 H333 0.930 . S
C342 C340 1.378 . S
C342 C343 1.367 . S
C343 C342 1.367 . S
C343 C345 1.433 . S
C344 C340 1.350 . S
C344 C341 1.463 1_554 S
C344 N348 1.427 . S
C345 H335 0.929 . S
C345 C343 1.433 . S
C345 N348 1.384 . S
C346 H337 0.929 . S
C346 C338 1.378 . S
C346 C341 1.350 . S
C347 H334 0.929 . S
C347 C339 1.433 . S
C347 N349 1.384 . S
N348 C344 1.427 . S
N348 C345 1.384 . S
N349 C341 1.427 . S
N349 C347 1.384 . S
H350 C356 0.930 . S
H351 C360 0.930 . S
H352 C365 0.929 . S
H353 C363 0.929 . S
H354 C358 0.929 . S
H355 C364 0.929 . S
C356 H350 0.930 . S
C356 C357 1.367 . S
C356 C364 1.378 . S
C357 C356 1.367 . S
C357 C365 1.433 . S
C358 H354 0.929 . S
C358 C360 1.378 . S
C358 C362 1.350 . S
C359 C362 1.463 1_554 S
C359 C364 1.350 . S
C359 N367 1.427 . S
C360 H351 0.930 . S
C360 C358 1.378 . S
C360 C361 1.367 . S
C361 C360 1.367 . S
C361 C363 1.433 . S
C362 C358 1.350 . S
C362 C359 1.463 1_556 S
C362 N366 1.427 . S
C363 H353 0.929 . S
C363 C361 1.433 . S
C363 N366 1.384 . S
C364 H355 0.929 . S
C364 C356 1.378 . S
C364 C359 1.350 . S
C365 H352 0.929 . S
C365 C357 1.433 . S
C365 N367 1.384 . S
N366 C362 1.427 . S
N366 C363 1.384 . S
N367 C359 1.427 . S
N367 C365 1.384 . S
H368 C374 0.930 . S
H369 C378 0.930 . S
H370 C383 0.929 . S
H371 C381 0.929 . S
H372 C376 0.929 . S
H373 C382 0.929 . S
C374 H368 0.930 . S
C374 C375 1.367 . S
C374 C382 1.378 . S
C375 C374 1.367 . S
C375 C383 1.433 . S
C376 H372 0.929 . S
C376 C378 1.378 . S
C376 C380 1.350 . S
C377 C380 1.463 1_565 S
C377 C382 1.350 . S
C377 N385 1.427 . S
C378 H369 0.930 . S
C378 C376 1.378 . S
C378 C379 1.367 . S
C379 C378 1.367 . S
C379 C381 1.433 . S
C380 C376 1.350 . S
C380 C377 1.463 1_545 S
C380 N384 1.427 . S
C381 H371 0.929 . S
C381 C379 1.433 . S
C381 N384 1.384 . S
C382 H373 0.929 . S
C382 C374 1.378 . S
C382 C377 1.350 . S
C383 H370 0.929 . S
C383 C375 1.433 . S
C383 N385 1.384 . S
N384 C380 1.427 . S
N384 C381 1.384 . S
N385 C377 1.427 . S
N385 C383 1.384 . S
H386 C392 0.930 . S
H387 C396 0.930 . S
H388 C401 0.929 . S
H389 C399 0.929 . S
H390 C394 0.929 . S
H391 C400 0.929 . S
C392 H386 0.930 . S
C392 C393 1.367 . S
C392 C400 1.378 . S
C393 C392 1.367 . S
C393 C401 1.433 1_565 S
C394 H390 0.929 . S
C394 C396 1.378 . S
C394 C398 1.350 . S
C395 C398 1.463 1_565 S
C395 C400 1.350 . S
C395 N403 1.427 1_565 S
C396 H387 0.930 . S
C396 C394 1.378 . S
C396 C397 1.367 . S
C397 C396 1.367 . S
C397 C399 1.433 1_545 S
C398 C394 1.350 . S
C398 C395 1.463 1_545 S
C398 N402 1.427 1_545 S
C399 H389 0.929 . S
C399 C397 1.433 1_565 S
C399 N402 1.384 . S
C400 H391 0.929 . S
C400 C392 1.378 . S
C400 C395 1.350 . S
C401 H388 0.929 . S
C401 C393 1.433 1_545 S
C401 N403 1.384 . S
N402 C398 1.427 1_565 S
N402 C399 1.384 . S
N403 C395 1.427 1_545 S
N403 C401 1.384 . S
H404 C410 0.930 . S
H405 C414 0.930 . S
H406 C419 0.927 1_545 S
H407 C417 0.927 1_565 S
H408 C412 0.929 . S
H409 C418 0.929 . S
C410 H404 0.930 . S
C410 C411 1.367 . S
C410 C418 1.378 . S
C411 C410 1.367 . S
C411 C419 1.433 . S
C412 H408 0.929 . S
C412 C414 1.378 . S
C412 C416 1.350 . S
C413 C416 1.463 1_565 S
C413 C418 1.350 . S
C413 N421 1.427 1_565 S
C414 H405 0.930 . S
C414 C412 1.378 . S
C414 C415 1.367 . S
C415 C414 1.367 . S
C415 C417 1.433 . S
C416 C412 1.350 . S
C416 C413 1.463 1_545 S
C416 N420 1.427 1_545 S
C417 H407 0.927 1_545 S
C417 C415 1.433 . S
C417 N420 1.384 1_545 S
C418 H409 0.929 . S
C418 C410 1.378 . S
C418 C413 1.350 . S
C419 H406 0.927 1_565 S
C419 C411 1.433 . S
C419 N421 1.384 1_565 S
N420 C416 1.427 1_565 S
N420 C417 1.384 1_565 S
N421 C413 1.427 1_545 S
N421 C419 1.384 1_545 S
H422 C428 0.930 . S
H423 C432 0.930 . S
H424 C437 0.929 . S
H425 C435 0.929 . S
H426 C430 0.929 . S
H427 C436 0.929 . S
C428 H422 0.930 . S
C428 C429 1.367 . S
C428 C436 1.378 . S
C429 C428 1.367 . S
C429 C437 1.433 . S
C430 H426 0.929 . S
C430 C432 1.378 . S
C430 C434 1.350 . S
C431 C434 1.463 1_545 S
C431 C436 1.350 . S
C431 N439 1.427 1_545 S
C432 H423 0.930 . S
C432 C430 1.378 . S
C432 C433 1.367 . S
C433 C432 1.367 . S
C433 C435 1.433 . S
C434 C430 1.350 . S
C434 C431 1.463 1_565 S
C434 N438 1.427 1_565 S
C435 H425 0.929 . S
C435 C433 1.433 . S
C435 N438 1.384 1_565 S
C436 H427 0.929 . S
C436 C428 1.378 . S
C436 C431 1.350 . S
C437 H424 0.929 . S
C437 C429 1.433 . S
C437 N439 1.384 1_545 S
N438 C434 1.427 1_545 S
N438 C435 1.384 1_545 S
N439 C431 1.427 1_565 S
N439 C437 1.384 1_565 S
H440 C446 0.930 . S
H441 C450 0.930 . S
H442 C455 0.929 . S
H443 C453 0.929 . S
H444 C448 0.929 . S
H445 C454 0.929 . S
C446 H440 0.930 . S
C446 C447 1.367 . S
C446 C454 1.378 . S
C447 C446 1.367 . S
C447 C455 1.433 . S
C448 H444 0.929 . S
C448 C450 1.378 . S
C448 C452 1.350 . S
C449 C452 1.463 1_655 S
C449 C454 1.350 . S
C449 N457 1.427 . S
C450 H441 0.930 . S
C450 C448 1.378 . S
C450 C451 1.367 . S
C451 C450 1.367 . S
C451 C453 1.433 . S
C452 C448 1.350 . S
C452 C449 1.463 1_455 S
C452 N456 1.427 . S
C453 H443 0.929 . S
C453 C451 1.433 . S
C453 N456 1.384 . S
C454 H445 0.929 . S
C454 C446 1.378 . S
C454 C449 1.350 . S
C455 H442 0.929 . S
C455 C447 1.433 . S
C455 N457 1.384 . S
N456 C452 1.427 . S
N456 C453 1.384 . S
N457 C449 1.427 . S
N457 C455 1.384 . S
H458 C464 0.930 . S
H459 C468 0.930 . S
H460 C473 0.929 . S
H461 C471 0.929 . S
H462 C466 0.929 . S
H463 C472 0.929 . S
C464 H458 0.930 . S
C464 C465 1.367 . S
C464 C472 1.378 . S
C465 C464 1.367 . S
C465 C473 1.433 . S
C466 H462 0.929 . S
C466 C468 1.378 . S
C466 C470 1.350 . S
C467 C470 1.463 1_455 S
C467 C472 1.350 . S
C467 N475 1.427 . S
C468 H459 0.930 . S
C468 C466 1.378 . S
C468 C469 1.367 . S
C469 C468 1.367 . S
C469 C471 1.433 . S
C470 C466 1.350 . S
C470 C467 1.463 1_655 S
C470 N474 1.427 . S
C471 H461 0.929 . S
C471 C469 1.433 . S
C471 N474 1.384 . S
C472 H463 0.929 . S
C472 C464 1.378 . S
C472 C467 1.350 . S
C473 H460 0.929 . S
C473 C465 1.433 . S
C473 N475 1.384 . S
N474 C470 1.427 . S
N474 C471 1.384 . S
N475 C467 1.427 . S
N475 C473 1.384 . S
H476 C482 0.930 . S
H477 C486 0.930 . S
H478 C491 0.929 . S
H479 C489 0.929 . S
H480 C484 0.929 . S
H481 C490 0.929 . S
C482 H476 0.930 . S
C482 C483 1.367 . S
C482 C490 1.378 . S
C483 C482 1.367 . S
C483 C491 1.433 . S
C484 H480 0.929 . S
C484 C486 1.378 . S
C484 C488 1.350 . S
C485 C488 1.463 1_655 S
C485 C490 1.350 . S
C485 N493 1.427 . S
C486 H477 0.930 . S
C486 C484 1.378 . S
C486 C487 1.367 . S
C487 C486 1.367 . S
C487 C489 1.433 . S
C488 C484 1.350 . S
C488 C485 1.463 1_455 S
C488 N492 1.427 . S
C489 H479 0.929 . S
C489 C487 1.433 . S
C489 N492 1.384 . S
C490 H481 0.929 . S
C490 C482 1.378 . S
C490 C485 1.350 . S
C491 H478 0.929 . S
C491 C483 1.433 . S
C491 N493 1.384 . S
N492 C488 1.427 . S
N492 C489 1.384 . S
N493 C485 1.427 . S
N493 C491 1.384 . S
H494 C500 0.930 . S
H495 C504 0.930 . S
H496 C509 0.929 . S
H497 C507 0.929 . S
H498 C502 0.929 . S
H499 C508 0.929 . S
C500 H494 0.930 . S
C500 C501 1.367 . S
C500 C508 1.378 . S
C501 C500 1.367 . S
C501 C509 1.433 . S
C502 H498 0.929 . S
C502 C504 1.378 . S
C502 C506 1.350 . S
C503 C506 1.463 1_455 S
C503 C508 1.350 . S
C503 N511 1.427 . S
C504 H495 0.930 . S
C504 C502 1.378 . S
C504 C505 1.367 . S
C505 C504 1.367 . S
C505 C507 1.433 . S
C506 C502 1.350 . S
C506 C503 1.463 1_655 S
C506 N510 1.427 . S
C507 H497 0.929 . S
C507 C505 1.433 . S
C507 N510 1.384 . S
C508 H499 0.929 . S
C508 C500 1.378 . S
C508 C503 1.350 . S
C509 H496 0.929 . S
C509 C501 1.433 . S
C509 N511 1.384 . S
N510 C506 1.427 . S
N510 C507 1.384 . S
N511 C503 1.427 . S
N511 C509 1.384 . S
H512 C518 0.930 . S
H513 C522 0.930 . S
H514 C527 0.929 . S
H515 C525 0.929 . S
H516 C520 0.929 . S
H517 C526 0.929 . S
C518 H512 0.930 . S
C518 C519 1.367 . S
C518 C526 1.378 . S
C519 C518 1.367 . S
C519 C527 1.433 . S
C520 H516 0.929 . S
C520 C522 1.378 . S
C520 C524 1.350 . S
C521 C524 1.463 . S
C521 C526 1.350 . S
C521 N529 1.427 . S
C522 H513 0.930 . S
C522 C520 1.378 . S
C522 C523 1.367 . S
C523 C522 1.367 . S
C523 C525 1.433 . S
C524 C520 1.350 . S
C524 C521 1.463 . S
C524 N528 1.427 . S
C525 H515 0.929 . S
C525 C523 1.433 . S
C525 N528 1.384 . S
C526 H517 0.929 . S
C526 C518 1.378 . S
C526 C521 1.350 . S
C527 H514 0.929 . S
C527 C519 1.433 . S
C527 N529 1.384 . S
N528 C524 1.427 . S
N528 C525 1.384 . S
N529 C521 1.427 . S
N529 C527 1.384 . S
H530 C536 0.930 . S
H531 C540 0.930 . S
H532 C545 0.929 . S
H533 C543 0.929 . S
H534 C538 0.929 . S
H535 C544 0.929 . S
C536 H530 0.930 . S
C536 C537 1.367 . S
C536 C544 1.378 . S
C537 C536 1.367 . S
C537 C545 1.433 . S
C538 H534 0.929 . S
C538 C540 1.378 . S
C538 C542 1.350 . S
C539 C542 1.463 . S
C539 C544 1.350 . S
C539 N547 1.427 . S
C540 H531 0.930 . S
C540 C538 1.378 . S
C540 C541 1.367 . S
C541 C540 1.367 . S
C541 C543 1.433 . S
C542 C538 1.350 . S
C542 C539 1.463 . S
C542 N546 1.427 . S
C543 H533 0.929 . S
C543 C541 1.433 . S
C543 N546 1.384 . S
C544 H535 0.929 . S
C544 C536 1.378 . S
C544 C539 1.350 . S
C545 H532 0.929 . S
C545 C537 1.433 . S
C545 N547 1.384 . S
N546 C542 1.427 . S
N546 C543 1.384 . S
N547 C539 1.427 . S
N547 C545 1.384 . S
H548 C554 0.930 . S
H549 C558 0.930 . S
H550 C563 0.929 . S
H551 C561 0.929 . S
H552 C556 0.929 . S
H553 C562 0.929 . S
C554 H548 0.930 . S
C554 C555 1.367 . S
C554 C562 1.378 . S
C555 C554 1.367 . S
C555 C563 1.433 . S
C556 H552 0.929 . S
C556 C558 1.378 . S
C556 C560 1.350 . S
C557 C560 1.463 . S
C557 C562 1.350 . S
C557 N565 1.427 . S
C558 H549 0.930 . S
C558 C556 1.378 . S
C558 C559 1.367 . S
C559 C558 1.367 . S
C559 C561 1.433 . S
C560 C556 1.350 . S
C560 C557 1.463 . S
C560 N564 1.427 . S
C561 H551 0.929 . S
C561 C559 1.433 . S
C561 N564 1.384 . S
C562 H553 0.929 . S
C562 C554 1.378 . S
C562 C557 1.350 . S
C563 H550 0.929 . S
C563 C555 1.433 . S
C563 N565 1.384 . S
N564 C560 1.427 . S
N564 C561 1.384 . S
N565 C557 1.427 . S
N565 C563 1.384 . S
H566 C572 0.930 . S
H567 C576 0.930 . S
H568 C581 0.929 . S
H569 C579 0.929 . S
H570 C574 0.929 . S
H571 C580 0.929 . S
C572 H566 0.930 . S
C572 C573 1.367 . S
C572 C580 1.378 . S
C573 C572 1.367 . S
C573 C581 1.433 . S
C574 H570 0.929 . S
C574 C576 1.378 . S
C574 C578 1.350 . S
C575 C578 1.463 . S
C575 C580 1.350 . S
C575 N583 1.427 . S
C576 H567 0.930 . S
C576 C574 1.378 . S
C576 C577 1.367 . S
C577 C576 1.367 . S
C577 C579 1.433 . S
C578 C574 1.350 . S
C578 C575 1.463 . S
C578 N582 1.427 . S
C579 H569 0.929 . S
C579 C577 1.433 . S
C579 N582 1.384 . S
C580 H571 0.929 . S
C580 C572 1.378 . S
C580 C575 1.350 . S
C581 H568 0.929 . S
C581 C573 1.433 . S
C581 N583 1.384 . S
N582 C578 1.427 . S
N582 C579 1.384 . S
N583 C575 1.427 . S
N583 C581 1.384 . S
H584 C590 0.930 . S
H585 C594 0.930 . S
H586 C599 0.929 . S
H587 C597 0.929 . S
H588 C592 0.929 . S
H589 C598 0.929 . S
C590 H584 0.930 . S
C590 C591 1.367 . S
C590 C598 1.378 . S
C591 C590 1.367 . S
C591 C599 1.433 . S
C592 H588 0.929 . S
C592 C594 1.378 . S
C592 C596 1.350 . S
C593 C596 1.463 . S
C593 C598 1.350 . S
C593 N601 1.427 . S
C594 H585 0.930 . S
C594 C592 1.378 . S
C594 C595 1.367 . S
C595 C594 1.367 . S
C595 C597 1.433 . S
C596 C592 1.350 . S
C596 C593 1.463 . S
C596 N600 1.427 . S
C597 H587 0.929 . S
C597 C595 1.433 . S
C597 N600 1.384 . S
C598 H589 0.929 . S
C598 C590 1.378 . S
C598 C593 1.350 . S
C599 H586 0.929 . S
C599 C591 1.433 . S
C599 N601 1.384 . S
N600 C596 1.427 . S
N600 C597 1.384 . S
N601 C593 1.427 . S
N601 C599 1.384 . S
H602 C608 0.930 . S
H603 C612 0.930 . S
H604 C617 0.929 . S
H605 C615 0.929 . S
H606 C610 0.929 . S
H607 C616 0.929 . S
C608 H602 0.930 . S
C608 C609 1.367 . S
C608 C616 1.378 . S
C609 C608 1.367 . S
C609 C617 1.433 . S
C610 H606 0.929 . S
C610 C612 1.378 . S
C610 C614 1.350 . S
C611 C614 1.463 . S
C611 C616 1.350 . S
C611 N619 1.427 . S
C612 H603 0.930 . S
C612 C610 1.378 . S
C612 C613 1.367 . S
C613 C612 1.367 . S
C613 C615 1.433 . S
C614 C610 1.350 . S
C614 C611 1.463 . S
C614 N618 1.427 . S
C615 H605 0.929 . S
C615 C613 1.433 . S
C615 N618 1.384 . S
C616 H607 0.929 . S
C616 C608 1.378 . S
C616 C611 1.350 . S
C617 H604 0.929 . S
C617 C609 1.433 . S
C617 N619 1.384 . S
N618 C614 1.427 . S
N618 C615 1.384 . S
N619 C611 1.427 . S
N619 C617 1.384 . S
H620 C626 0.930 . S
H621 C630 0.930 . S
H622 C635 0.929 . S
H623 C633 0.929 . S
H624 C628 0.929 . S
H625 C634 0.929 . S
C626 H620 0.930 . S
C626 C627 1.367 . S
C626 C634 1.378 . S
C627 C626 1.367 . S
C627 C635 1.433 . S
C628 H624 0.929 . S
C628 C630 1.378 . S
C628 C632 1.350 . S
C629 C632 1.463 . S
C629 C634 1.350 . S
C629 N637 1.427 . S
C630 H621 0.930 . S
C630 C628 1.378 . S
C630 C631 1.367 . S
C631 C630 1.367 . S
C631 C633 1.433 . S
C632 C628 1.350 . S
C632 C629 1.463 . S
C632 N636 1.427 . S
C633 H623 0.929 . S
C633 C631 1.433 . S
C633 N636 1.384 . S
C634 H625 0.929 . S
C634 C626 1.378 . S
C634 C629 1.350 . S
C635 H622 0.929 . S
C635 C627 1.433 . S
C635 N637 1.384 . S
N636 C632 1.427 . S
N636 C633 1.384 . S
N637 C629 1.427 . S
N637 C635 1.384 . S
H638 C644 0.930 . S
H639 C648 0.930 . S
H640 C653 0.929 . S
H641 C651 0.929 . S
H642 C646 0.929 . S
H643 C652 0.929 . S
C644 H638 0.930 . S
C644 C645 1.367 . S
C644 C652 1.378 . S
C645 C644 1.367 . S
C645 C653 1.433 . S
C646 H642 0.929 . S
C646 C648 1.378 . S
C646 C650 1.350 . S
C647 C650 1.463 . S
C647 C652 1.350 . S
C647 N655 1.427 . S
C648 H639 0.930 . S
C648 C646 1.378 . S
C648 C649 1.367 . S
C649 C648 1.367 . S
C649 C651 1.433 . S
C650 C646 1.350 . S
C650 C647 1.463 . S
C650 N654 1.427 . S
C651 H641 0.929 . S
C651 C649 1.433 . S
C651 N654 1.384 . S
C652 H643 0.929 . S
C652 C644 1.378 . S
C652 C647 1.350 . S
C653 H640 0.929 . S
C653 C645 1.433 . S
C653 N655 1.384 . S
N654 C650 1.427 . S
N654 C651 1.384 . S
N655 C647 1.427 . S
N655 C653 1.384 . S
H656 C662 0.930 . S
H657 C666 0.930 . S
H658 C671 0.929 . S
H659 C669 0.929 . S
H660 C664 0.929 . S
H661 C670 0.929 . S
C662 H656 0.930 . S
C662 C663 1.367 1_565 S
C662 C670 1.378 . S
C663 C662 1.367 1_545 S
C663 C671 1.433 . S
C664 H660 0.929 . S
C664 C666 1.378 . S
C664 C668 1.352 . S
C665 C668 1.462 1_565 S
C665 C670 1.352 . S
C665 N673 1.425 1_565 S
C666 H657 0.930 . S
C666 C664 1.378 . S
C666 C667 1.367 1_545 S
C667 C666 1.367 1_565 S
C667 C669 1.433 . S
C668 C664 1.352 . S
C668 C665 1.462 1_545 S
C668 N672 1.425 1_545 S
C669 H659 0.929 . S
C669 C667 1.433 . S
C669 N672 1.384 . S
C670 H661 0.929 . S
C670 C662 1.378 . S
C670 C665 1.352 . S
C671 H658 0.929 . S
C671 C663 1.433 . S
C671 N673 1.384 . S
N672 C668 1.425 1_565 S
N672 C669 1.384 . S
N673 C665 1.425 1_545 S
N673 C671 1.384 . S
H674 C680 0.930 . S
H675 C684 0.930 . S
H676 C689 0.929 . S
H677 C687 0.929 . S
H678 C682 0.929 . S
H679 C688 0.929 . S
C680 H674 0.930 . S
C680 C681 1.367 1_565 S
C680 C688 1.378 . S
C681 C680 1.367 1_545 S
C681 C689 1.433 . S
C682 H678 0.929 . S
C682 C684 1.378 . S
C682 C686 1.349 1_545 S
C683 C686 1.462 1_545 S
C683 C688 1.349 1_545 S
C683 N691 1.428 . S
C684 H675 0.930 . S
C684 C682 1.378 . S
C684 C685 1.367 1_545 S
C685 C684 1.367 1_565 S
C685 C687 1.433 . S
C686 C682 1.349 1_565 S
C686 C683 1.462 1_565 S
C686 N690 1.428 . S
C687 H677 0.929 . S
C687 C685 1.433 . S
C687 N690 1.384 . S
C688 H679 0.929 . S
C688 C680 1.378 . S
C688 C683 1.349 1_565 S
C689 H676 0.929 . S
C689 C681 1.433 . S
C689 N691 1.384 . S
N690 C686 1.428 . S
N690 C687 1.384 . S
N691 C683 1.428 . S
N691 C689 1.384 . S
H692 C698 0.930 . S
H693 C702 0.930 . S
H694 C707 0.929 . S
H695 C705 0.929 . S
H696 C700 0.928 1_545 S
H697 C706 0.928 1_565 S
C698 H692 0.930 . S
C698 C699 1.367 . S
C698 C706 1.378 . S
C699 C698 1.367 . S
C699 C707 1.433 . S
C700 H696 0.928 1_565 S
C700 C702 1.378 . S
C700 C704 1.350 . S
C701 C704 1.461 1_545 S
C701 C706 1.350 . S
C701 N709 1.430 . S
C702 H693 0.930 . S
C702 C700 1.378 . S
C702 C703 1.367 . S
C703 C702 1.367 . S
C703 C705 1.433 . S
C704 C700 1.350 . S
C704 C701 1.461 1_565 S
C704 N708 1.430 . S
C705 H695 0.929 . S
C705 C703 1.433 . S
C705 N708 1.384 . S
C706 H697 0.928 1_545 S
C706 C698 1.378 . S
C706 C701 1.350 . S
C707 H694 0.929 . S
C707 C699 1.433 . S
C707 N709 1.384 . S
N708 C704 1.430 . S
N708 C705 1.384 . S
N709 C701 1.430 . S
N709 C707 1.384 . S
H710 C716 0.930 . S
H711 C720 0.930 . S
H712 C725 0.929 . S
H713 C723 0.929 . S
H714 C718 0.929 . S
H715 C724 0.929 . S
C716 H710 0.930 . S
C716 C717 1.367 . S
C716 C724 1.378 . S
C717 C716 1.367 . S
C717 C725 1.433 1_565 S
C718 H714 0.929 . S
C718 C720 1.378 . S
C718 C722 1.350 . S
C719 C722 1.463 1_565 S
C719 C724 1.350 . S
C719 N727 1.427 1_565 S
C720 H711 0.930 . S
C720 C718 1.378 . S
C720 C721 1.367 . S
C721 C720 1.367 . S
C721 C723 1.433 1_545 S
C722 C718 1.350 . S
C722 C719 1.463 1_545 S
C722 N726 1.427 1_545 S
C723 H713 0.929 . S
C723 C721 1.433 1_565 S
C723 N726 1.384 . S
C724 H715 0.929 . S
C724 C716 1.378 . S
C724 C719 1.350 . S
C725 H712 0.929 . S
C725 C717 1.433 1_545 S
C725 N727 1.384 . S
N726 C722 1.427 1_565 S
N726 C723 1.384 . S
N727 C719 1.427 1_545 S
N727 C725 1.384 . S
H728 C734 0.930 . S
H729 C738 0.930 . S
H730 C743 0.929 . S
H731 C741 0.929 . S
H732 C736 0.929 . S
H733 C742 0.929 . S
C734 H728 0.930 . S
C734 C735 1.367 . S
C734 C742 1.378 . S
C735 C734 1.367 . S
C735 C743 1.433 . S
C736 H732 0.929 . S
C736 C738 1.378 . S
C736 C740 1.350 . S
C737 C740 1.463 . S
C737 C742 1.350 . S
C737 N745 1.427 . S
C738 H729 0.930 . S
C738 C736 1.378 . S
C738 C739 1.367 . S
C739 C738 1.367 . S
C739 C741 1.433 . S
C740 C736 1.350 . S
C740 C737 1.463 . S
C740 N744 1.427 . S
C741 H731 0.929 . S
C741 C739 1.433 . S
C741 N744 1.384 . S
C742 H733 0.929 . S
C742 C734 1.378 . S
C742 C737 1.350 . S
C743 H730 0.929 . S
C743 C735 1.433 . S
C743 N745 1.384 . S
N744 C740 1.427 . S
N744 C741 1.384 . S
N745 C737 1.427 . S
N745 C743 1.384 . S
H746 C752 0.930 . S
H747 C756 0.930 . S
H748 C761 0.929 . S
H749 C759 0.929 . S
H750 C754 0.929 . S
H751 C760 0.929 . S
C752 H746 0.930 . S
C752 C753 1.367 . S
C752 C760 1.378 . S
C753 C752 1.367 . S
C753 C761 1.433 . S
C754 H750 0.929 . S
C754 C756 1.378 . S
C754 C758 1.350 . S
C755 C758 1.463 . S
C755 C760 1.350 . S
C755 N763 1.427 . S
C756 H747 0.930 . S
C756 C754 1.378 . S
C756 C757 1.367 . S
C757 C756 1.367 . S
C757 C759 1.433 . S
C758 C754 1.350 . S
C758 C755 1.463 . S
C758 N762 1.427 . S
C759 H749 0.929 . S
C759 C757 1.433 . S
C759 N762 1.384 . S
C760 H751 0.929 . S
C760 C752 1.378 . S
C760 C755 1.350 . S
C761 H748 0.929 . S
C761 C753 1.433 . S
C761 N763 1.384 . S
N762 C758 1.427 . S
N762 C759 1.384 . S
N763 C755 1.427 . S
N763 C761 1.384 . S
H764 C770 0.930 . S
H765 C774 0.930 . S
H766 C779 0.929 . S
H767 C777 0.929 . S
H768 C772 0.929 . S
H769 C778 0.929 . S
C770 H764 0.930 . S
C770 C771 1.367 . S
C770 C778 1.378 . S
C771 C770 1.367 . S
C771 C779 1.433 . S
C772 H768 0.929 . S
C772 C774 1.378 . S
C772 C776 1.350 . S
C773 C776 1.463 . S
C773 C778 1.350 . S
C773 N781 1.427 . S
C774 H765 0.930 . S
C774 C772 1.378 . S
C774 C775 1.367 . S
C775 C774 1.367 . S
C775 C777 1.433 . S
C776 C772 1.350 . S
C776 C773 1.463 . S
C776 N780 1.427 . S
C777 H767 0.929 . S
C777 C775 1.433 . S
C777 N780 1.384 . S
C778 H769 0.929 . S
C778 C770 1.378 . S
C778 C773 1.350 . S
C779 H766 0.929 . S
C779 C771 1.433 . S
C779 N781 1.384 . S
N780 C776 1.427 . S
N780 C777 1.384 . S
N781 C773 1.427 . S
N781 C779 1.384 . S
H782 C788 0.930 . S
H783 C792 0.930 . S
H784 C797 0.929 . S
H785 C795 0.929 . S
H786 C790 0.929 . S
H787 C796 0.929 . S
C788 H782 0.930 . S
C788 C789 1.367 . S
C788 C796 1.378 . S
C789 C788 1.367 . S
C789 C797 1.433 . S
C790 H786 0.929 . S
C790 C792 1.378 . S
C790 C794 1.350 . S
C791 C794 1.463 . S
C791 C796 1.350 . S
C791 N799 1.427 . S
C792 H783 0.930 . S
C792 C790 1.378 . S
C792 C793 1.367 . S
C793 C792 1.367 . S
C793 C795 1.433 . S
C794 C790 1.350 . S
C794 C791 1.463 . S
C794 N798 1.427 . S
C795 H785 0.929 . S
C795 C793 1.433 . S
C795 N798 1.384 . S
C796 H787 0.929 . S
C796 C788 1.378 . S
C796 C791 1.350 . S
C797 H784 0.929 . S
C797 C789 1.433 . S
C797 N799 1.384 . S
N798 C794 1.427 . S
N798 C795 1.384 . S
N799 C791 1.427 . S
N799 C797 1.384 . S
C231 C9 1.221 . S
C235 C79 1.232 . S
C249 C65 1.225 . S
C253 C23 1.228 . S
C267 C37 1.221 . S
C271 C107 1.232 . S
C285 C93 1.234 . S
C289 C51 1.218 . S
C303 C191 1.234 . S
C307 C121 1.218 . S
C321 C177 1.234 . S
C325 C135 1.218 . S
C339 C219 1.218 . S
C343 C149 1.234 . S
C357 C163 1.220 . S
C361 C205 1.232 . S
C375 C19 1.503 . S
C379 C5 1.504 . S
C393 C33 1.504 . S
C397 C47 1.504 . S
C411 C61 1.504 . S
C415 C75 1.504 . S
C429 C89 1.504 . S
C433 C103 1.504 . S
C447 C117 1.503 . S
C451 C131 1.503 . S
C465 C159 1.505 . S
C469 C145 1.505 . S
C483 C187 1.504 . S
C487 C173 1.504 . S
C501 C201 1.504 . S
C505 C215 1.503 . S
C519 C137 1.519 . S
C523 C11 1.516 . S
C537 C25 1.519 . S
C541 C123 1.519 . S
C555 C165 1.516 . S
C559 C39 1.519 . S
C573 C53 1.519 . S
C577 C151 1.517 . S
C591 C67 1.518 . S
C595 C193 1.515 . S
C609 C179 1.515 . S
C613 C81 1.516 . S
C627 C95 1.519 . S
C631 C221 1.519 . S
C645 C207 1.516 . S
C649 C109 1.519 . S
C663 C0 1.289 . S
C667 C28 1.290 . S
C681 C42 1.292 . S
C685 C14 1.285 . S
C699 C84 1.280 . S
C703 C56 1.291 . S
C717 C98 1.281 . S
C721 C70 1.281 . S
C735 C140 1.280 . S
C739 C112 1.283 . S
C753 C126 1.281 . S
C757 C154 1.281 . S
C771 C196 1.290 . S
C775 C168 1.280 . S
C789 C182 1.287 . S
C793 C210 1.291 . S
