# Generated by pormake.
# Topology wmc, (6)-cn, num edge types: 1
# Building blocks:
#     Node 0, Type 0, BuildingBlock: MIFKUJ_clean_sbu_0, # of connection points: 6
#     Node 1, Type 0, BuildingBlock: MIFKUJ_clean_sbu_0, # of connection points: 6
#     Node 2, Type 0, BuildingBlock: MIFKUJ_clean_sbu_0, # of connection points: 6
#     Node 3, Type 0, BuildingBlock: MIFKUJ_clean_sbu_0, # of connection points: 6
#     Node 4, Type 0, BuildingBlock: MIFKUJ_clean_sbu_0, # of connection points: 6
#     Node 5, Type 0, BuildingBlock: MIFKUJ_clean_sbu_0, # of connection points: 6
#     Node 6, Type 0, BuildingBlock: MIFKUJ_clean_sbu_0, # of connection points: 6
#     Node 7, Type 0, BuildingBlock: MIFKUJ_clean_sbu_0, # of connection points: 6
#     Node 8, Type 0, BuildingBlock: MIFKUJ_clean_sbu_0, # of connection points: 6
#     Node 9, Type 0, BuildingBlock: MIFKUJ_clean_sbu_0, # of connection points: 6
#     Node 10, Type 0, BuildingBlock: MIFKUJ_clean_sbu_0, # of connection points: 6
#     Node 11, Type 0, BuildingBlock: MIFKUJ_clean_sbu_0, # of connection points: 6
#     Node 12, Type 0, BuildingBlock: MIFKUJ_clean_sbu_0, # of connection points: 6
#     Node 13, Type 0, BuildingBlock: MIFKUJ_clean_sbu_0, # of connection points: 6
#     Node 14, Type 0, BuildingBlock: MIFKUJ_clean_sbu_0, # of connection points: 6
#     Node 15, Type 0, BuildingBlock: MIFKUJ_clean_sbu_0, # of connection points: 6
#     Node 16, Type 0, BuildingBlock: MIFKUJ_clean_sbu_0, # of connection points: 6
#     Node 17, Type 0, BuildingBlock: MIFKUJ_clean_sbu_0, # of connection points: 6
#     Edge 18, Type (0, 0), BuildingBlock: CIFDUS_clean_linker_0, # of connection points: 2
#     Edge 19, Type (0, 0), BuildingBlock: CIFDUS_clean_linker_0, # of connection points: 2
#     Edge 20, Type (0, 0), BuildingBlock: CIFDUS_clean_linker_0, # of connection points: 2
#     Edge 21, Type (0, 0), BuildingBlock: CIFDUS_clean_linker_0, # of connection points: 2
#     Edge 22, Type (0, 0), BuildingBlock: CIFDUS_clean_linker_0, # of connection points: 2
#     Edge 23, Type (0, 0), BuildingBlock: CIFDUS_clean_linker_0, # of connection points: 2
#     Edge 24, Type (0, 0), BuildingBlock: CIFDUS_clean_linker_0, # of connection points: 2
#     Edge 25, Type (0, 0), BuildingBlock: CIFDUS_clean_linker_0, # of connection points: 2
#     Edge 26, Type (0, 0), BuildingBlock: CIFDUS_clean_linker_0, # of connection points: 2
#     Edge 27, Type (0, 0), BuildingBlock: CIFDUS_clean_linker_0, # of connection points: 2
#     Edge 28, Type (0, 0), BuildingBlock: CIFDUS_clean_linker_0, # of connection points: 2
#     Edge 29, Type (0, 0), BuildingBlock: CIFDUS_clean_linker_0, # of connection points: 2
#     Edge 30, Type (0, 0), BuildingBlock: CIFDUS_clean_linker_0, # of connection points: 2
#     Edge 31, Type (0, 0), BuildingBlock: CIFDUS_clean_linker_0, # of connection points: 2
#     Edge 32, Type (0, 0), BuildingBlock: CIFDUS_clean_linker_0, # of connection points: 2
#     Edge 33, Type (0, 0), BuildingBlock: CIFDUS_clean_linker_0, # of connection points: 2
#     Edge 34, Type (0, 0), BuildingBlock: CIFDUS_clean_linker_0, # of connection points: 2
#     Edge 35, Type (0, 0), BuildingBlock: CIFDUS_clean_linker_0, # of connection points: 2
#     Edge 36, Type (0, 0), BuildingBlock: CIFDUS_clean_linker_0, # of connection points: 2
#     Edge 37, Type (0, 0), BuildingBlock: CIFDUS_clean_linker_0, # of connection points: 2
#     Edge 38, Type (0, 0), BuildingBlock: CIFDUS_clean_linker_0, # of connection points: 2
#     Edge 39, Type (0, 0), BuildingBlock: CIFDUS_clean_linker_0, # of connection points: 2
#     Edge 40, Type (0, 0), BuildingBlock: CIFDUS_clean_linker_0, # of connection points: 2
#     Edge 41, Type (0, 0), BuildingBlock: CIFDUS_clean_linker_0, # of connection points: 2
#     Edge 42, Type (0, 0), BuildingBlock: CIFDUS_clean_linker_0, # of connection points: 2
#     Edge 43, Type (0, 0), BuildingBlock: CIFDUS_clean_linker_0, # of connection points: 2
#     Edge 44, Type (0, 0), BuildingBlock: CIFDUS_clean_linker_0, # of connection points: 2
#     Edge 45, Type (0, 0), BuildingBlock: CIFDUS_clean_linker_0, # of connection points: 2
#     Edge 46, Type (0, 0), BuildingBlock: CIFDUS_clean_linker_0, # of connection points: 2
#     Edge 47, Type (0, 0), BuildingBlock: CIFDUS_clean_linker_0, # of connection points: 2
#     Edge 48, Type (0, 0), BuildingBlock: CIFDUS_clean_linker_0, # of connection points: 2
#     Edge 49, Type (0, 0), BuildingBlock: CIFDUS_clean_linker_0, # of connection points: 2
#     Edge 50, Type (0, 0), BuildingBlock: CIFDUS_clean_linker_0, # of connection points: 2
#     Edge 51, Type (0, 0), BuildingBlock: CIFDUS_clean_linker_0, # of connection points: 2
#     Edge 52, Type (0, 0), BuildingBlock: CIFDUS_clean_linker_0, # of connection points: 2
#     Edge 53, Type (0, 0), BuildingBlock: CIFDUS_clean_linker_0, # of connection points: 2
#     Edge 54, Type (0, 0), BuildingBlock: CIFDUS_clean_linker_0, # of connection points: 2
#     Edge 55, Type (0, 0), BuildingBlock: CIFDUS_clean_linker_0, # of connection points: 2
#     Edge 56, Type (0, 0), BuildingBlock: CIFDUS_clean_linker_0, # of connection points: 2
#     Edge 57, Type (0, 0), BuildingBlock: CIFDUS_clean_linker_0, # of connection points: 2
#     Edge 58, Type (0, 0), BuildingBlock: CIFDUS_clean_linker_0, # of connection points: 2
#     Edge 59, Type (0, 0), BuildingBlock: CIFDUS_clean_linker_0, # of connection points: 2
#     Edge 60, Type (0, 0), BuildingBlock: CIFDUS_clean_linker_0, # of connection points: 2
#     Edge 61, Type (0, 0), BuildingBlock: CIFDUS_clean_linker_0, # of connection points: 2
#     Edge 62, Type (0, 0), BuildingBlock: CIFDUS_clean_linker_0, # of connection points: 2
#     Edge 63, Type (0, 0), BuildingBlock: CIFDUS_clean_linker_0, # of connection points: 2
#     Edge 64, Type (0, 0), BuildingBlock: CIFDUS_clean_linker_0, # of connection points: 2
#     Edge 65, Type (0, 0), BuildingBlock: CIFDUS_clean_linker_0, # of connection points: 2
#     Edge 66, Type (0, 0), BuildingBlock: CIFDUS_clean_linker_0, # of connection points: 2
#     Edge 67, Type (0, 0), BuildingBlock: CIFDUS_clean_linker_0, # of connection points: 2
#     Edge 68, Type (0, 0), BuildingBlock: CIFDUS_clean_linker_0, # of connection points: 2
#     Edge 69, Type (0, 0), BuildingBlock: CIFDUS_clean_linker_0, # of connection points: 2
#     Edge 70, Type (0, 0), BuildingBlock: CIFDUS_clean_linker_0, # of connection points: 2
#     Edge 71, Type (0, 0), BuildingBlock: CIFDUS_clean_linker_0, # of connection points: 2
# Relax obj value: 0.351
# Max RMSD: 0.275
# Mean RMSD: 0.275
data_MOF--net-wmc--node1-MIFKUJ_clean_sbu_0--edge1-CIFDUS_clean_linker_0
_symmetry_space_group_name_H-M    P1
_symmetry_Int_Tables_number       1
_symmetry_cell_setting            triclinic
loop_
_symmetry_equiv_pos_as_xyz
'x, y, z'
_cell_length_a     39.496056
_cell_length_b     39.481167
_cell_length_c     32.596989
_cell_angle_alpha  89.993842
_cell_angle_beta   90.076376
_cell_angle_gamma 119.98442
loop_
_atom_site_label
_atom_site_type_symbol
_atom_site_fract_x
_atom_site_fract_y
_atom_site_fract_z
_atom_type_partial_charge
Zn0 Zn 0.59339 0.12116 0.04127 0.0
Zn1 Zn 0.59297 0.13393 0.94195 0.0
C2 C 0.64543 0.09925 0.08495 0.0
O3 O 0.62252 0.09363 0.11642 0.0
C4 C 0.57861 0.19584 0.95553 0.0
O5 O 0.6114 0.21315 0.93468 0.0
O6 O 0.57615 0.12757 0.09768 0.0
O7 O 0.62582 0.1765 0.01896 0.0
O8 O 0.6475 0.16211 0.96331 0.0
C9 C 0.60076 0.15375 0.12164 0.0
O10 O 0.63654 0.17698 0.10854 0.0
O11 O 0.63561 0.10555 0.04964 0.0
C12 C 0.56153 0.13799 0.86584 0.0
O13 O 0.53177 0.12867 0.89033 0.0
O14 O 0.59292 0.14133 0.88053 0.0
O15 O 0.56483 0.07677 0.95093 0.0
O16 O 0.54248 0.08011 0.0116 0.0
O17 O 0.5635 0.15982 0.96462 0.0
C18 C 0.65303 0.18514 0.99298 0.0
C19 C 0.53764 0.06289 0.97718 0.0
Zn20 Zn 0.87796 0.4928 0.055 0.0
Zn21 Zn 0.86711 0.47541 0.95011 0.0
C22 C 0.91353 0.57092 0.08911 0.0
O23 O 0.93135 0.55779 0.11285 0.0
C24 C 0.83865 0.39307 0.94677 0.0
O25 O 0.86325 0.40367 0.91591 0.0
O26 O 0.87531 0.47754 0.11442 0.0
O27 O 0.82353 0.46666 0.03129 0.0
O28 O 0.83925 0.50148 0.97419 0.0
C29 C 0.84903 0.44845 0.13396 0.0
O30 O 0.81757 0.42228 0.11454 0.0
O31 O 0.89366 0.5502 0.05872 0.0
C32 C 0.8938 0.49276 0.86517 0.0
O33 O 0.92689 0.51789 0.8828 0.0
O34 O 0.86365 0.47336 0.88745 0.0
O35 O 0.92309 0.49673 0.96455 0.0
O36 O 0.91734 0.48002 0.02988 0.0
O37 O 0.83673 0.41924 0.96761 0.0
C38 C 0.81469 0.48263 0.00243 0.0
C39 C 0.93451 0.4857 0.99549 0.0
Zn40 Zn 0.5125 0.41171 0.05476 0.0
Zn41 Zn 0.52219 0.41439 0.95359 0.0
C42 C 0.43433 0.35714 0.08567 0.0
O43 O 0.44559 0.38114 0.11713 0.0
C44 C 0.60038 0.43226 0.94104 0.0
O45 O 0.58315 0.40682 0.91137 0.0
O46 O 0.52865 0.4196 0.11416 0.0
O47 O 0.54282 0.38886 0.02961 0.0
O48 O 0.50116 0.36067 0.97904 0.0
C49 C 0.5248 0.39021 0.1341 0.0
O50 O 0.51178 0.35664 0.11498 0.0
O51 O 0.45567 0.36714 0.05364 0.0
C52 C 0.53781 0.44252 0.87348 0.0
O53 O 0.55994 0.47392 0.8954 0.0
O54 O 0.5162 0.41032 0.89185 0.0
O55 O 0.50321 0.45142 0.96902 0.0
O56 O 0.52397 0.46475 0.03297 0.0
O57 O 0.5803 0.44125 0.96434 0.0
C58 C 0.52512 0.36029 0.005 0.0
C59 C 0.51586 0.47503 0.99906 0.0
Zn60 Zn 0.8701 0.44509 0.45518 0.0
Zn61 Zn 0.90805 0.40789 0.56152 0.0
C62 C 0.81543 0.46671 0.45038 0.0
O63 O 0.8019 0.43509 0.42767 0.0
C64 C 0.91397 0.34664 0.60549 0.0
O65 O 0.91583 0.36706 0.63806 0.0
O66 O 0.87909 0.44323 0.39435 0.0
O67 O 0.912 0.45132 0.49282 0.0
O68 O 0.95605 0.45584 0.53515 0.0
C69 C 0.89809 0.47418 0.37324 0.0
O70 O 0.91513 0.50822 0.39185 0.0
O71 O 0.84914 0.4809 0.46637 0.0
C72 C 0.86695 0.40797 0.63685 0.0
O73 O 0.83737 0.37645 0.62096 0.0
O74 O 0.89874 0.42583 0.61675 0.0
O75 O 0.85875 0.38701 0.52555 0.0
O76 O 0.82714 0.39273 0.47234 0.0
O77 O 0.9143 0.36036 0.57004 0.0
C78 C 0.94683 0.47035 0.50526 0.0
C79 C 0.82802 0.37374 0.5035 0.0
Zn80 Zn 0.57955 0.46245 0.45406 0.0
Zn81 Zn 0.57976 0.49835 0.55537 0.0
C82 C 0.58361 0.39079 0.45449 0.0
O83 O 0.6054 0.40614 0.42179 0.0
C84 C 0.63685 0.57564 0.58766 0.0
O85 O 0.61288 0.56596 0.61896 0.0
O86 O 0.58572 0.46505 0.39265 0.0
O87 O 0.5313 0.46435 0.46437 0.0
O88 O 0.53009 0.48937 0.52507 0.0
C89 C 0.55842 0.4365 0.37324 0.0
O90 O 0.52963 0.40836 0.39405 0.0
O91 O 0.57002 0.40962 0.47329 0.0
C92 C 0.59353 0.4849 0.63704 0.0
O93 O 0.62799 0.49662 0.62059 0.0
O94 O 0.56598 0.48233 0.61457 0.0
O95 O 0.60588 0.46853 0.53641 0.0
O96 O 0.62746 0.50453 0.48155 0.0
O97 O 0.62557 0.55453 0.55544 0.0
C98 C 0.51445 0.47466 0.49047 0.0
C99 C 0.63361 0.48777 0.51139 0.0
Zn100 Zn 0.54733 0.13495 0.4409 0.0
Zn101 Zn 0.50609 0.10574 0.54622 0.0
C102 C 0.62313 0.18139 0.4857 0.0
O103 O 0.62317 0.14883 0.49389 0.0
C104 C 0.435 0.08823 0.59225 0.0
O105 O 0.45546 0.089 0.62433 0.0
O106 O 0.55285 0.14064 0.37948 0.0
O107 O 0.54348 0.08461 0.45502 0.0
O108 O 0.51562 0.06471 0.5163 0.0
C109 C 0.5858 0.14761 0.36563 0.0
O110 O 0.61238 0.14995 0.39156 0.0
O111 O 0.59532 0.18029 0.46507 0.0
C112 C 0.53945 0.14269 0.62403 0.0
O113 O 0.52892 0.16773 0.6115 0.0
O114 O 0.53305 0.11408 0.60104 0.0
O115 O 0.527 0.15941 0.52139 0.0
O116 O 0.50201 0.13891 0.46053 0.0
O117 O 0.44856 0.08949 0.5564 0.0
C118 C 0.53047 0.05951 0.48365 0.0
C119 C 0.51557 0.16577 0.4873 0.0
Zn120 Zn 0.25676 0.44353 0.37597 0.0
Zn121 Zn 0.24728 0.48069 0.27621 0.0
C122 C 0.3018 0.4084 0.40367 0.0
O123 O 0.27175 0.38843 0.4279 0.0
C124 C 0.20765 0.52163 0.30884 0.0
O125 O 0.17456 0.48861 0.30434 0.0
O126 O 0.24332 0.44166 0.43555 0.0
O127 O 0.28488 0.50081 0.35913 0.0
O128 O 0.29929 0.49077 0.29709 0.0
C129 C 0.23272 0.46318 0.45391 0.0
O130 O 0.22896 0.48959 0.43303 0.0
O131 O 0.30013 0.43054 0.37642 0.0
C132 C 0.21408 0.47017 0.19762 0.0
O133 O 0.18322 0.45701 0.22136 0.0
O134 O 0.24764 0.48404 0.21411 0.0
O135 O 0.20141 0.42922 0.29009 0.0
O136 O 0.20602 0.40237 0.34794 0.0
O137 O 0.23963 0.52356 0.29874 0.0
C138 C 0.30867 0.51183 0.32915 0.0
C139 C 0.18734 0.40137 0.31564 0.0
Zn140 Zn 0.57132 0.82192 0.38431 0.0
Zn141 Zn 0.54604 0.8047 0.2841 0.0
C142 C 0.5723 0.88713 0.42416 0.0
O143 O 0.55807 0.86078 0.45334 0.0
C144 C 0.47939 0.72709 0.27925 0.0
O145 O 0.46961 0.74444 0.25114 0.0
O146 O 0.57494 0.80424 0.44086 0.0
O147 O 0.51451 0.79411 0.3663 0.0
O148 O 0.52934 0.83677 0.31691 0.0
C149 C 0.54718 0.78139 0.46427 0.0
O150 O 0.51099 0.76441 0.4508 0.0
O151 O 0.58364 0.87888 0.39082 0.0
C152 C 0.54539 0.78568 0.20336 0.0
O153 O 0.55614 0.76355 0.22311 0.0
O154 O 0.53837 0.80896 0.22371 0.0
O155 O 0.60183 0.81905 0.28651 0.0
O156 O 0.6122 0.81461 0.35237 0.0
O157 O 0.51116 0.7468 0.2991 0.0
C158 C 0.50538 0.81485 0.34402 0.0
C159 C 0.62243 0.8169 0.315 0.0
Zn160 Zn 0.15155 0.74105 0.38482 0.0
Zn161 Zn 0.22667 0.78466 0.27943 0.0
C162 C 0.06686 0.68323 0.40579 0.0
O163 O 0.0577 0.71095 0.40469 0.0
C164 C 0.30134 0.79486 0.28741 0.0
O165 O 0.28362 0.7636 0.26415 0.0
O166 O 0.17989 0.75482 0.43888 0.0
O167 O 0.17771 0.72781 0.34084 0.0
O168 O 0.21025 0.72788 0.28714 0.0
C169 C 0.20718 0.7495 0.452 0.0
O170 O 0.22314 0.73508 0.42737 0.0
O171 O 0.10137 0.69119 0.39705 0.0
C172 C 0.25146 0.81762 0.19901 0.0
O173 O 0.28403 0.8404 0.21888 0.0
O174 O 0.22167 0.79297 0.21904 0.0
O175 O 0.19179 0.79552 0.31646 0.0
O176 O 0.15068 0.79001 0.36463 0.0
O177 O 0.28332 0.81272 0.29778 0.0
C178 C 0.19018 0.7103 0.31842 0.0
C179 C 0.17338 0.80966 0.33508 0.0
Zn180 Zn 0.54581 0.74378 0.79107 0.0
Zn181 Zn 0.55678 0.74562 0.88837 0.0
C182 C 0.48574 0.7649 0.78747 0.0
O183 O 0.47796 0.74473 0.75332 0.0
C184 C 0.58155 0.69347 0.92641 0.0
O185 O 0.59152 0.71719 0.95802 0.0
O186 O 0.53759 0.73494 0.73042 0.0
O187 O 0.6024 0.77778 0.79955 0.0
O188 O 0.59833 0.79793 0.86142 0.0
C189 C 0.55852 0.76292 0.70632 0.0
O190 O 0.58613 0.79616 0.72154 0.0
O191 O 0.51451 0.7697 0.80946 0.0
C192 C 0.52391 0.72939 0.9673 0.0
O193 O 0.50409 0.69474 0.95012 0.0
O194 O 0.54892 0.75797 0.94609 0.0
O195 O 0.5019 0.71383 0.86514 0.0
O196 O 0.52471 0.69218 0.81698 0.0
O197 O 0.57247 0.70343 0.89275 0.0
C198 C 0.61611 0.80365 0.82725 0.0
C199 C 0.49708 0.68675 0.84059 0.0
Zn200 Zn 0.25624 0.79234 0.7736 0.0
Zn201 Zn 0.272 0.83446 0.87863 0.0
C202 C 0.21951 0.71272 0.80825 0.0
O203 O 0.18644 0.71308 0.80698 0.0
C204 C 0.31486 0.91093 0.91853 0.0
O205 O 0.28457 0.89671 0.94323 0.0
O206 O 0.25418 0.78849 0.71157 0.0
O207 O 0.2115 0.79825 0.7907 0.0
O208 O 0.21932 0.82407 0.85294 0.0
C209 C 0.22019 0.76951 0.6959 0.0
O210 O 0.18971 0.75285 0.72026 0.0
O211 O 0.25082 0.74247 0.79606 0.0
C212 C 0.29051 0.82223 0.95836 0.0
O213 O 0.32443 0.83621 0.93981 0.0
O214 O 0.26069 0.81526 0.93709 0.0
O215 O 0.30385 0.81205 0.85308 0.0
O216 O 0.30735 0.83656 0.79203 0.0
O217 O 0.31291 0.89203 0.88605 0.0
C218 C 0.19917 0.81006 0.82017 0.0
C219 C 0.32152 0.82403 0.81897 0.0
Zn220 Zn 0.22102 0.45837 0.77393 0.0
Zn221 Zn 0.15325 0.42854 0.88439 0.0
C222 C 0.29764 0.51184 0.75757 0.0
O223 O 0.27948 0.51614 0.72595 0.0
C224 C 0.08327 0.41558 0.92546 0.0
O225 O 0.10046 0.41052 0.95748 0.0
O226 O 0.20807 0.44249 0.71486 0.0
O227 O 0.19104 0.41707 0.8156 0.0
O228 O 0.15786 0.38084 0.86691 0.0
C229 C 0.22642 0.42894 0.69515 0.0
O230 O 0.25134 0.42189 0.71474 0.0
O231 O 0.27833 0.48474 0.78324 0.0
C232 C 0.21055 0.47374 0.95258 0.0
O233 O 0.23551 0.49868 0.92597 0.0
O234 O 0.17822 0.44545 0.94018 0.0
O235 O 0.1784 0.47191 0.84219 0.0
O236 O 0.2102 0.50165 0.78622 0.0
O237 O 0.09832 0.41901 0.89014 0.0
C238 C 0.17857 0.38542 0.83526 0.0
C239 C 0.19263 0.50164 0.81883 0.0
Zn240 Zn 0.92219 0.77239 0.7205 0.0
Zn241 Zn 0.92241 0.78239 0.61873 0.0
C242 C 0.98735 0.774 0.75876 0.0
O243 O 0.97965 0.79559 0.78334 0.0
C244 C 0.90998 0.8477 0.60913 0.0
O245 O 0.93481 0.85547 0.57899 0.0
O246 O 0.90431 0.77291 0.7778 0.0
O247 O 0.95275 0.82714 0.69687 0.0
O248 O 0.9735 0.80321 0.64841 0.0
C249 C 0.90315 0.79878 0.79987 0.0
O250 O 0.91449 0.83366 0.78469 0.0
O251 O 0.96478 0.7574 0.72809 0.0
C252 C 0.89956 0.77721 0.53795 0.0
O253 O 0.86736 0.76724 0.55861 0.0
O254 O 0.93058 0.78536 0.55756 0.0
O255 O 0.88084 0.72734 0.62762 0.0
O256 O 0.87075 0.73223 0.6932 0.0
O257 O 0.90033 0.818 0.63176 0.0
C258 C 0.97962 0.83112 0.67237 0.0
C259 C 0.85864 0.71552 0.6586 0.0
Zn260 Zn 0.22503 0.16557 0.71506 0.0
Zn261 Zn 0.19664 0.13082 0.61282 0.0
C262 C 0.252 0.24311 0.75009 0.0
O263 O 0.26451 0.22991 0.78004 0.0
C264 C 0.15336 0.04837 0.63392 0.0
O265 O 0.18472 0.04867 0.62 0.0
O266 O 0.21733 0.14698 0.77385 0.0
O267 O 0.171 0.13985 0.69073 0.0
O268 O 0.18823 0.17382 0.634 0.0
C269 C 0.19347 0.15217 0.79539 0.0
O270 O 0.17419 0.16757 0.77812 0.0
O271 O 0.23978 0.22321 0.71715 0.0
C272 C 0.21986 0.14939 0.52814 0.0
O273 O 0.25286 0.17607 0.54473 0.0
O274 O 0.19133 0.12764 0.55135 0.0
O275 O 0.24757 0.1339 0.62561 0.0
O276 O 0.26611 0.15469 0.68933 0.0
O277 O 0.15232 0.07998 0.63415 0.0
C278 C 0.16602 0.16117 0.66506 0.0
C279 C 0.27154 0.14248 0.65507 0.0
Zn280 Zn 0.84885 0.06348 0.72586 0.0
Zn281 Zn 0.86752 0.06985 0.62345 0.0
C282 C 0.77335 0.0236 0.76796 0.0
O283 O 0.78863 0.05423 0.7923 0.0
C284 C 0.94868 0.12168 0.65706 0.0
O285 O 0.94418 0.15235 0.65384 0.0
O286 O 0.87224 0.07659 0.7822 0.0
O287 O 0.86968 0.03127 0.69943 0.0
O288 O 0.83508 0.01439 0.64238 0.0
C289 C 0.86576 0.04835 0.80573 0.0
O290 O 0.8468 0.01251 0.79121 0.0
O291 O 0.79177 0.02411 0.73571 0.0
C292 C 0.89793 0.10662 0.54917 0.0
O293 O 0.91333 0.13526 0.57593 0.0
O294 O 0.87445 0.07217 0.56177 0.0
O295 O 0.8497 0.1079 0.63502 0.0
O296 O 0.85881 0.11539 0.70199 0.0
O297 O 0.92122 0.08805 0.64671 0.0
C298 C 0.85196 0.00646 0.671 0.0
C299 C 0.85537 0.12801 0.66722 0.0
Zn300 Zn 0.20213 0.08155 0.11221 0.0
Zn301 Zn 0.21499 0.07828 0.21632 0.0
C302 C 0.13477 0.08947 0.12008 0.0
O303 O 0.11878 0.05482 0.10277 0.0
C304 C 0.23511 0.02532 0.25788 0.0
O305 O 0.24006 0.04811 0.28931 0.0
O306 O 0.19803 0.07695 0.05054 0.0
O307 O 0.25854 0.11911 0.1227 0.0
O308 O 0.25664 0.12905 0.18917 0.0
C309 C 0.20308 0.1076 0.03225 0.0
O310 O 0.21031 0.13844 0.05417 0.0
O311 O 0.1711 0.10749 0.12822 0.0
C312 C 0.18055 0.07323 0.29657 0.0
O313 O 0.15286 0.03943 0.28256 0.0
O314 O 0.2093 0.09482 0.27347 0.0
O315 O 0.16043 0.04919 0.19249 0.0
O316 O 0.17622 0.02775 0.13764 0.0
O317 O 0.22936 0.0352 0.22245 0.0
C318 C 0.27264 0.14061 0.15414 0.0
C319 C 0.15215 0.02225 0.16629 0.0
Zn320 Zn 0.92447 0.13998 0.11728 0.0
Zn321 Zn 0.92089 0.15916 0.22601 0.0
C322 C 0.8879 0.05954 0.15038 0.0
O323 O 0.86997 0.06968 0.17746 0.0
C324 C 0.97197 0.24797 0.23699 0.0
O325 O 0.94424 0.25401 0.22295 0.0
O326 O 0.93327 0.14739 0.05628 0.0
O327 O 0.87705 0.14408 0.12975 0.0
O328 O 0.87348 0.15564 0.19574 0.0
C329 C 0.90417 0.11988 0.03764 0.0
O330 O 0.87376 0.09489 0.05919 0.0
O331 O 0.91088 0.08432 0.12451 0.0
C332 C 0.92686 0.14001 0.30796 0.0
O333 O 0.96399 0.16067 0.29804 0.0
O334 O 0.90111 0.13419 0.28116 0.0
O335 O 0.94728 0.13145 0.2024 0.0
O336 O 0.97332 0.17155 0.15064 0.0
O337 O 0.96623 0.21338 0.23874 0.0
C338 C 0.85939 0.14929 0.15945 0.0
C339 C 0.97475 0.14818 0.17647 0.0
Zn340 Zn 0.85687 0.79591 0.12435 0.0
Zn341 Zn 0.85392 0.78233 0.22185 0.0
C342 C 0.93802 0.85245 0.11136 0.0
O343 O 0.92306 0.85954 0.07876 0.0
C344 C 0.77672 0.74852 0.26045 0.0
O345 O 0.79031 0.73195 0.28537 0.0
O346 O 0.85113 0.80173 0.06379 0.0
O347 O 0.83295 0.73852 0.1341 0.0
O348 O 0.8658 0.74407 0.19056 0.0
C349 C 0.86073 0.78243 0.04005 0.0
O350 O 0.87103 0.75837 0.05608 0.0
O351 O 0.91566 0.82582 0.13637 0.0
C352 C 0.86665 0.80795 0.30329 0.0
O353 O 0.85025 0.82706 0.28801 0.0
O354 O 0.8735 0.78646 0.27965 0.0
O355 O 0.8771 0.83805 0.20251 0.0
O356 O 0.83303 0.82263 0.15392 0.0
O357 O 0.79618 0.76563 0.22837 0.0
C358 C 0.85011 0.7261 0.15731 0.0
C359 C 0.85465 0.8459 0.18169 0.0
H360 H 0.60368 0.2551 0.00906 0.0
H361 H 0.51158 0.18723 0.92294 0.0
H362 H 0.4856 0.23182 0.93112 0.0
H363 H 0.4922 0.29288 0.95957 0.0
H364 H 0.58393 0.35922 0.04737 0.0
H365 H 0.60655 0.31231 0.04225 0.0
C366 C 0.57744 0.24978 0.99285 0.0
C367 C 0.55918 0.21807 0.96583 0.0
C368 C 0.56282 0.27541 0.9978 0.0
C369 C 0.52552 0.2113 0.94446 0.0
C370 C 0.51095 0.23693 0.94888 0.0
C371 C 0.51697 0.29691 0.97773 0.0
C372 C 0.5366 0.32986 0.00335 0.0
C373 C 0.52981 0.26954 0.97493 0.0
C374 C 0.5684 0.33437 0.02709 0.0
C375 C 0.58144 0.30753 0.02424 0.0
H376 H 0.7131 0.21418 0.93862 0.0
H377 H 0.67218 0.24459 0.0477 0.0
H378 H 0.72794 0.31103 0.04482 0.0
H379 H 0.78578 0.36151 0.00872 0.0
H380 H 0.82574 0.331 0.89898 0.0
H381 H 0.77288 0.26344 0.90497 0.0
C382 C 0.71644 0.23521 0.96197 0.0
C383 C 0.68827 0.22448 0.99312 0.0
C384 C 0.74832 0.27338 0.95995 0.0
C385 C 0.69328 0.2521 0.02324 0.0
C386 C 0.72514 0.29013 0.0216 0.0
C387 C 0.78319 0.34 0.98635 0.0
C388 C 0.80958 0.35137 0.95334 0.0
C389 C 0.75248 0.30125 0.98971 0.0
C390 C 0.8059 0.32308 0.92473 0.0
C391 C 0.77556 0.28444 0.92801 0.0
H392 H 0.63635 0.43358 0.01188 0.0
H393 H 0.65736 0.46637 0.88442 0.0
H394 H 0.72692 0.48834 0.89315 0.0
H395 H 0.78032 0.49357 0.93567 0.0
H396 H 0.75846 0.45527 0.06179 0.0
H397 H 0.69056 0.43985 0.05505 0.0
C398 C 0.65647 0.44615 0.98636 0.0
C399 C 0.64236 0.44882 0.94771 0.0
C400 C 0.69597 0.45718 0.99126 0.0
C401 C 0.66805 0.46425 0.91441 0.0
C402 C 0.70763 0.47668 0.91939 0.0
C403 C 0.76085 0.48224 0.96183 0.0
C404 C 0.77438 0.47555 0.99914 0.0
C405 C 0.72174 0.47257 0.95746 0.0
C406 C 0.74867 0.46053 0.03265 0.0
C407 C 0.70988 0.45175 0.02886 0.0
H408 H 0.70559 0.53623 0.48179 0.0
H409 H 0.634 0.42151 0.53395 0.0
H410 H 0.68519 0.40546 0.52041 0.0
H411 H 0.74834 0.42267 0.48948 0.0
H412 H 0.82242 0.5386 0.44181 0.0
H413 H 0.77237 0.55615 0.45831 0.0
C414 C 0.70149 0.50787 0.49043 0.0
C415 C 0.66597 0.47972 0.50793 0.0
C416 C 0.73134 0.49925 0.48339 0.0
C417 C 0.66103 0.44341 0.52002 0.0
C418 C 0.69021 0.43423 0.51224 0.0
C419 C 0.7535 0.45187 0.48314 0.0
C420 C 0.78833 0.47932 0.46414 0.0
C421 C 0.72511 0.46167 0.49328 0.0
C422 C 0.79549 0.51723 0.45642 0.0
C423 C 0.76694 0.52709 0.46568 0.0
H424 H 0.52764 0.22624 0.53589 0.0
H425 H 0.53592 0.1968 0.41028 0.0
H426 H 0.56063 0.26463 0.38976 0.0
H427 H 0.57798 0.33194 0.40712 0.0
H428 H 0.56418 0.36027 0.5315 0.0
H429 H 0.54372 0.29339 0.55302 0.0
C430 C 0.53495 0.23479 0.50406 0.0
C431 C 0.53 0.20664 0.47467 0.0
C432 C 0.54816 0.27363 0.49231 0.0
C433 C 0.53923 0.21789 0.43344 0.0
C434 C 0.55349 0.2567 0.42171 0.0
C435 C 0.57081 0.32351 0.439 0.0
C436 C 0.57281 0.35094 0.46776 0.0
C437 C 0.55784 0.28475 0.45083 0.0
C438 C 0.56285 0.33957 0.50883 0.0
C439 C 0.55114 0.30138 0.52113 0.0
H440 H 0.69509 0.19813 0.51461 0.0
H441 H 0.62656 0.25159 0.48092 0.0
H442 H 0.68364 0.31615 0.48827 0.0
H443 H 0.75403 0.35714 0.49613 0.0
H444 H 0.82414 0.30596 0.53012 0.0
H445 H 0.76537 0.24075 0.53142 0.0
C446 C 0.69258 0.22393 0.50953 0.0
C447 C 0.65679 0.21996 0.4964 0.0
C448 C 0.72579 0.26131 0.51358 0.0
C449 C 0.65389 0.2537 0.4903 0.0
C450 C 0.68651 0.29072 0.49453 0.0
C451 C 0.75629 0.33171 0.50447 0.0
C452 C 0.79308 0.33594 0.51243 0.0
C453 C 0.72274 0.29478 0.50485 0.0
C454 C 0.7959 0.30315 0.52384 0.0
C455 C 0.7624 0.26595 0.52428 0.0
H456 H 0.2449 0.69326 0.33893 0.0
H457 H 0.12127 0.64097 0.31726 0.0
H458 H 0.11452 0.57556 0.31683 0.0
H459 H 0.14617 0.53502 0.31317 0.0
H460 H 0.27061 0.58935 0.33395 0.0
H461 H 0.27467 0.6522 0.34496 0.0
C462 C 0.21636 0.66732 0.33527 0.0
C463 C 0.18362 0.67135 0.32814 0.0
C464 C 0.21303 0.63038 0.33444 0.0
C465 C 0.1467 0.63806 0.32317 0.0
C466 C 0.14299 0.60087 0.32256 0.0
C467 C 0.17399 0.56048 0.32085 0.0
C468 C 0.20816 0.5577 0.32185 0.0
C469 C 0.17626 0.59685 0.32671 0.0
C470 C 0.24399 0.59086 0.33216 0.0
C471 C 0.24639 0.62684 0.33855 0.0
H472 H 0.44255 0.68834 0.34897 0.0
H473 H 0.45986 0.67133 0.22187 0.0
H474 H 0.41074 0.60191 0.22704 0.0
H475 H 0.35849 0.54794 0.26556 0.0
H476 H 0.33621 0.56614 0.39094 0.0
H477 H 0.39087 0.63329 0.38843 0.0
C478 C 0.43568 0.66926 0.32264 0.0
C479 C 0.45446 0.68466 0.28507 0.0
C480 C 0.40596 0.62983 0.32532 0.0
C481 C 0.44554 0.65985 0.25105 0.0
C482 C 0.41737 0.6203 0.25395 0.0
C483 C 0.36564 0.56646 0.29247 0.0
C484 C 0.34299 0.552 0.32827 0.0
C485 C 0.3966 0.60524 0.29057 0.0
C486 C 0.35293 0.57651 0.36286 0.0
C487 C 0.38427 0.61494 0.36149 0.0
H488 H 0.48028 0.8653 0.32474 0.0
H489 H 0.43934 0.74532 0.35795 0.0
H490 H 0.37193 0.72878 0.34433 0.0
H491 H 0.32544 0.74773 0.31827 0.0
H492 H 0.36484 0.86847 0.29033 0.0
H493 H 0.4323 0.88594 0.3073 0.0
C494 C 0.45646 0.83566 0.32937 0.0
C495 C 0.46461 0.80627 0.34142 0.0
C496 C 0.41775 0.8267 0.32249 0.0
C497 C 0.43367 0.76818 0.3482 0.0
C498 C 0.3952 0.75877 0.3404 0.0
C499 C 0.34884 0.77793 0.31637 0.0
C500 C 0.34071 0.80683 0.30269 0.0
C501 C 0.38705 0.78764 0.32677 0.0
C502 C 0.37077 0.84592 0.30085 0.0
C503 C 0.40921 0.85578 0.31032 0.0
H504 H 0.44108 0.78197 0.73884 0.0
H505 H 0.47128 0.78007 0.86565 0.0
H506 H 0.42266 0.79793 0.88692 0.0
H507 H 0.36967 0.8117 0.86912 0.0
H508 H 0.34231 0.81584 0.74157 0.0
H509 H 0.39165 0.79945 0.72099 0.0
C510 C 0.43717 0.78566 0.77115 0.0
C511 C 0.45951 0.77949 0.80065 0.0
C512 C 0.40949 0.7961 0.78301 0.0
C513 C 0.45451 0.78485 0.84236 0.0
C514 C 0.42656 0.79481 0.85451 0.0
C515 C 0.37454 0.80894 0.83685 0.0
C516 C 0.35207 0.81465 0.80698 0.0
C517 C 0.40353 0.80006 0.82509 0.0
C518 C 0.3591 0.81157 0.76524 0.0
C519 C 0.38731 0.80216 0.75339 0.0
H520 H 0.25261 0.57397 0.82691 0.0
H521 H 0.12694 0.50695 0.83111 0.0
H522 H 0.12381 0.56764 0.83208 0.0
H523 H 0.1574 0.63958 0.82296 0.0
H524 H 0.28365 0.70529 0.81943 0.0
H525 H 0.28606 0.64534 0.82784 0.0
C526 C 0.22462 0.57283 0.82899 0.0
C527 C 0.19007 0.53653 0.82867 0.0
C528 C 0.22322 0.60754 0.82929 0.0
C529 C 0.15385 0.53487 0.83153 0.0
C530 C 0.15213 0.56949 0.83175 0.0
C531 C 0.18542 0.64081 0.82466 0.0
C532 C 0.22026 0.67681 0.8196 0.0
C533 C 0.18667 0.60601 0.82928 0.0
C534 C 0.25635 0.67795 0.8224 0.0
C535 C 0.25782 0.64367 0.82725 0.0
H536 H 0.32891 0.53862 0.83252 0.0
H537 H 0.35475 0.55513 0.70308 0.0
H538 H 0.41929 0.61109 0.7178 0.0
H539 H 0.46729 0.65588 0.76715 0.0
H540 H 0.44021 0.6434 0.89626 0.0
H541 H 0.37663 0.58517 0.88214 0.0
C542 C 0.34905 0.5541 0.80768 0.0
C543 C 0.33772 0.54254 0.76685 0.0
C544 C 0.38539 0.58702 0.81632 0.0
C545 C 0.3633 0.5634 0.73474 0.0
C546 C 0.39999 0.59541 0.74311 0.0
C547 C 0.44746 0.64025 0.79218 0.0
C548 C 0.45818 0.6533 0.83267 0.0
C549 C 0.41113 0.60757 0.78372 0.0
C550 C 0.43221 0.63362 0.86487 0.0
C551 C 0.39613 0.60035 0.8568 0.0
H552 H 0.84671 0.96534 0.60197 0.0
H553 H 0.87196 0.97226 0.73152 0.0
H554 H 0.88868 0.92073 0.72467 0.0
H555 H 0.90081 0.87695 0.6808 0.0
H556 H 0.88123 0.87471 0.55051 0.0
H557 H 0.8571 0.92059 0.55863 0.0
C558 C 0.85531 0.95517 0.6288 0.0
C559 C 0.85809 0.97259 0.66717 0.0
C560 C 0.86605 0.9264 0.62442 0.0
C561 C 0.86972 0.95938 0.70158 0.0
C562 C 0.87932 0.92994 0.69771 0.0
C563 C 0.89074 0.88625 0.65441 0.0
C564 C 0.89266 0.87272 0.61518 0.0
C565 C 0.87829 0.91373 0.65915 0.0
C566 C 0.88014 0.88514 0.58097 0.0
C567 C 0.86636 0.91129 0.5856 0.0
H568 H 0.14448 0.97562 0.63258 0.0
H569 H 0.08402 0.03779 0.66395 0.0
H570 H 0.02552 0.97617 0.68138 0.0
H571 H 0.99038 0.90405 0.68445 0.0
H572 H 0.05046 0.84235 0.65008 0.0
H573 H 0.1103 0.9043 0.63749 0.0
C574 C 0.11863 0.97578 0.64349 0.0
C575 C 0.11868 0.01128 0.64681 0.0
C576 C 0.08495 0.94024 0.65295 0.0
C577 C 0.08484 0.01088 0.66103 0.0
C578 C 0.05131 0.97563 0.671 0.0
C579 C 0.01677 0.90432 0.67472 0.0
C580 C 0.01614 0.86884 0.66814 0.0
C581 C 0.05089 0.94008 0.66667 0.0
C582 C 0.05028 0.8694 0.65504 0.0
C583 C 0.08448 0.90477 0.64786 0.0
H584 H 0.02032 0.18411 0.64199 0.0
H585 H 0.96228 0.06817 0.69409 0.0
H586 H 0.02516 0.07148 0.70406 0.0
H587 H 0.09595 0.10539 0.69369 0.0
H588 H 0.15379 0.21869 0.63574 0.0
H589 H 0.09177 0.21864 0.63256 0.0
C590 C 0.02163 0.15995 0.65624 0.0
C591 C 0.98693 0.1261 0.66758 0.0
C592 C 0.05775 0.16148 0.66047 0.0
C593 C 0.98875 0.09458 0.68523 0.0
C594 C 0.02462 0.0964 0.69084 0.0
C595 C 0.09499 0.13021 0.68072 0.0
C596 C 0.12916 0.16197 0.66487 0.0
C597 C 0.0592 0.12939 0.67789 0.0
C598 C 0.12761 0.1938 0.64778 0.0
C599 C 0.09226 0.1938 0.64606 0.0
H600 H 0.0629 0.05328 0.15321 0.0
H601 H 0.15287 0.16487 0.10818 0.0
H602 H 0.11056 0.19292 0.12011 0.0
H603 H 0.04727 0.18503 0.14266 0.0
H604 H 0.96043 0.07476 0.19417 0.0
H605 H 1.00198 0.04676 0.18037 0.0
C606 C 0.07313 0.08375 0.14615 0.0
C607 C 0.11056 0.10704 0.12963 0.0
C608 C 0.04914 0.09978 0.15411 0.0
C609 C 0.12405 0.1466 0.12109 0.0
C610 C 0.09985 0.16252 0.12774 0.0
C611 C 0.03753 0.15488 0.15072 0.0
C612 C 1.0006 0.13183 0.16871 0.0
C613 C 0.06223 0.13931 0.14406 0.0
C614 C 0.98857 0.09303 0.17988 0.0
C615 C 0.01233 0.07697 0.17208 0.0
H616 H 0.88028 0.89841 0.12127 0.0
H617 H 0.83881 0.87956 0.24588 0.0
H618 H 0.84419 0.94424 0.24717 0.0
H619 H 0.86068 0.00602 0.21214 0.0
H620 H 0.90506 0.02507 0.08822 0.0
H621 H 0.89878 0.96052 0.08729 0.0
C622 C 0.87258 0.90873 0.14864 0.0
C623 C 0.8593 0.88491 0.18343 0.0
C624 C 0.87623 0.94582 0.14918 0.0
C625 C 0.84951 0.89803 0.21898 0.0
C626 C 0.85238 0.93477 0.21959 0.0
C627 C 0.86869 0.99585 0.18491 0.0
C628 C 0.88295 0.02005 0.15023 0.0
C629 C 0.86564 0.95889 0.18478 0.0
C630 C 0.8939 0.00689 0.11532 0.0
C631 C 0.89034 0.97002 0.1147 0.0
H632 H 0.11822 0.97034 0.10376 0.0
H633 H 0.09582 0.99703 0.22564 0.0
H634 H 0.02844 0.94317 0.22162 0.0
H635 H 0.97412 0.89153 0.18109 0.0
H636 H 0.99573 0.86966 0.05709 0.0
H637 H 0.06511 0.91797 0.06442 0.0
C638 C 0.09879 0.96413 0.12967 0.0
C639 C 0.11215 0.98777 0.16494 0.0
C640 C 0.05979 0.9338 0.12673 0.0
C641 C 0.08635 0.9794 0.19806 0.0
C642 C 0.04775 0.94857 0.1958 0.0
C643 C 0.99435 0.89685 0.15616 0.0
C644 C 0.98025 0.87692 0.11881 0.0
C645 C 0.03393 0.92594 0.16002 0.0
C646 C 0.00625 0.8846 0.08619 0.0
C647 C 0.0458 0.91231 0.09031 0.0
H648 H 0.53461 0.13028 0.30203 0.0
H649 H 0.657 0.17722 0.32964 0.0
H650 H 0.6725 0.18557 0.25675 0.0
H651 H 0.65141 0.17785 0.18518 0.0
H652 H 0.52894 0.12722 0.15643 0.0
H653 H 0.51336 0.12234 0.2297 0.0
C654 C 0.56467 0.14253 0.29205 0.0
C655 C 0.59459 0.15315 0.32126 0.0
C656 C 0.57339 0.14671 0.2499 0.0
C657 C 0.63337 0.16869 0.30784 0.0
C658 C 0.64232 0.17357 0.26613 0.0
C659 C 0.62136 0.16623 0.19493 0.0
C660 C 0.59139 0.15326 0.16554 0.0
C661 C 0.61258 0.16253 0.23692 0.0
C662 C 0.5525 0.1375 0.17859 0.0
C663 C 0.5436 0.13464 0.22043 0.0
H664 H 0.84286 0.41707 0.32488 0.0
H665 H 0.95008 0.52809 0.3201 0.0
H666 H 0.94518 0.52882 0.2454 0.0
H667 H 0.90883 0.49986 0.18217 0.0
H668 H 0.7998 0.39039 0.18658 0.0
H669 H 0.80697 0.38718 0.26081 0.0
C670 C 0.86542 0.44113 0.30739 0.0
C671 C 0.89687 0.47245 0.32793 0.0
C672 C 0.86187 0.44184 0.26451 0.0
C673 C 0.92558 0.50371 0.30497 0.0
C674 C 0.92275 0.50416 0.2623 0.0
C675 C 0.88665 0.47512 0.19922 0.0
C676 C 0.85375 0.44542 0.17873 0.0
C677 C 0.89072 0.47371 0.24184 0.0
C678 C 0.82537 0.41368 0.2015 0.0
C679 C 0.82947 0.41182 0.24397 0.0
H680 H 0.52039 0.37189 0.32611 0.0
H681 H 0.59716 0.49675 0.31918 0.0
H682 H 0.59416 0.49348 0.24415 0.0
H683 H 0.56763 0.45516 0.18063 0.0
H684 H 0.49309 0.32992 0.18831 0.0
H685 H 0.49741 0.33329 0.263 0.0
C686 C 0.53651 0.39839 0.30817 0.0
C687 C 0.55865 0.43455 0.32805 0.0
C688 C 0.53504 0.3962 0.26523 0.0
C689 C 0.5799 0.46857 0.30449 0.0
C690 C 0.5781 0.46672 0.26164 0.0
C691 C 0.55253 0.42863 0.19872 0.0
C692 C 0.52998 0.39239 0.17904 0.0
C693 C 0.55547 0.43072 0.2417 0.0
C694 C 0.51081 0.35817 0.20274 0.0
C695 C 0.51311 0.36007 0.24545 0.0
H696 H 0.83363 0.43567 0.82024 0.0
H697 H 0.95302 0.52981 0.81005 0.0
H698 H 0.9548 0.51271 0.73859 0.0
H699 H 0.92367 0.46962 0.67961 0.0
H700 H 0.80461 0.37487 0.6894 0.0
H701 H 0.80157 0.39376 0.76008 0.0
C702 C 0.8599 0.45273 0.80228 0.0
C703 C 0.89312 0.48405 0.82069 0.0
C704 C 0.86091 0.44253 0.76105 0.0
C705 C 0.92697 0.5056 0.79686 0.0
C706 C 0.92808 0.4958 0.7559 0.0
C707 C 0.89692 0.4532 0.69705 0.0
C708 C 0.86445 0.4208 0.67907 0.0
C709 C 0.8954 0.46409 0.73779 0.0
C710 C 0.8301 0.39992 0.70232 0.0
C711 C 0.82832 0.41069 0.74284 0.0
H712 H 0.52821 0.43499 0.67982 0.0
H713 H 0.64867 0.5253 0.69441 0.0
H714 H 0.64163 0.52058 0.76887 0.0
H715 H 0.60136 0.49132 0.8297 0.0
H716 H 0.48235 0.39754 0.81658 0.0
H717 H 0.4886 0.40278 0.74162 0.0
C718 C 0.55281 0.4535 0.69945 0.0
C719 C 0.58884 0.48047 0.68186 0.0
C720 C 0.5488 0.44999 0.74235 0.0
C721 C 0.62073 0.50411 0.70738 0.0
C722 C 0.6167 0.50155 0.74991 0.0
C723 C 0.57673 0.47211 0.81041 0.0
C724 C 0.5413 0.44443 0.82842 0.0
C725 C 0.58089 0.47469 0.76768 0.0
C726 C 0.50988 0.41914 0.80322 0.0
C727 C 0.51344 0.4222 0.76046 0.0
H728 H 0.59178 0.11985 0.80011 0.0
H729 H 0.52331 0.1728 0.8344 0.0
H730 H 0.51378 0.18257 0.76224 0.0
H731 H 0.52136 0.17236 0.68958 0.0
H732 H 0.58405 0.11351 0.65458 0.0
H733 H 0.5996 0.10982 0.72664 0.0
C734 C 0.57519 0.1339 0.79159 0.0
C735 C 0.55831 0.14568 0.82225 0.0
C736 C 0.56868 0.13818 0.74997 0.0
C737 C 0.53637 0.16334 0.81113 0.0
C738 C 0.53096 0.16897 0.76995 0.0
C739 C 0.53895 0.15929 0.69769 0.0
C740 C 0.55185 0.14353 0.66692 0.0
C741 C 0.54649 0.15601 0.73912 0.0
C742 C 0.5739 0.12591 0.67786 0.0
C743 C 0.58273 0.12375 0.719 0.0
H744 H 0.24311 0.41493 0.50506 0.0
H745 H 0.20842 0.50275 0.50379 0.0
H746 H 0.20042 0.49755 0.57831 0.0
H747 H 0.20608 0.47008 0.644 0.0
H748 H 0.24398 0.38478 0.64508 0.0
H749 H 0.24742 0.38661 0.57018 0.0
C750 C 0.23355 0.43281 0.52096 0.0
C751 C 0.22637 0.45922 0.49881 0.0
C752 C 0.22947 0.43001 0.56373 0.0
C753 C 0.21415 0.48221 0.52004 0.0
C754 C 0.20955 0.47924 0.56265 0.0
C755 C 0.21452 0.45146 0.62778 0.0
C756 C 0.22459 0.42716 0.64994 0.0
C757 C 0.21742 0.45345 0.58482 0.0
C758 C 0.2361 0.40369 0.62863 0.0
C759 C 0.23816 0.40481 0.58586 0.0
H760 H 0.49701 0.73463 0.52387 0.0
H761 H 0.61682 0.82465 0.5032 0.0
H762 H 0.63072 0.82641 0.576 0.0
H763 H 0.60874 0.8044 0.6459 0.0
H764 H 0.49003 0.71304 0.66761 0.0
H765 H 0.47586 0.70978 0.59412 0.0
C766 C 0.52621 0.75436 0.53528 0.0
C767 C 0.55572 0.77947 0.50807 0.0
C768 C 0.53423 0.75516 0.57739 0.0
C769 C 0.59348 0.80486 0.52335 0.0
C770 C 0.60152 0.80605 0.56507 0.0
C771 C 0.57982 0.78367 0.63449 0.0
C772 C 0.55047 0.75913 0.66195 0.0
C773 C 0.57207 0.78165 0.59238 0.0
C774 C 0.51318 0.73212 0.64687 0.0
C775 C 0.50503 0.73034 0.60493 0.0
H776 H 0.26753 0.7683 0.63551 0.0
H777 H 0.15897 0.76693 0.65619 0.0
H778 H 0.14676 0.76293 0.58254 0.0
H779 H 0.16553 0.75784 0.5128 0.0
H780 H 0.27129 0.7541 0.49061 0.0
H781 H 0.286 0.76197 0.56429 0.0
C782 C 0.24138 0.76734 0.6237 0.0
C783 C 0.2142 0.76796 0.65111 0.0
C784 C 0.23398 0.76398 0.58117 0.0
C785 C 0.18017 0.76624 0.63565 0.0
C786 C 0.1732 0.76404 0.59356 0.0
C787 C 0.19203 0.75907 0.5239 0.0
C788 C 0.21745 0.7557 0.49617 0.0
C789 C 0.19972 0.76261 0.56612 0.0
C790 C 0.2513 0.75674 0.5113 0.0
C791 C 0.2597 0.76122 0.55341 0.0
H792 H 0.53821 0.79407 0.01059 0.0
H793 H 0.50749 0.67326 0.024 0.0
H794 H 0.51095 0.68017 0.09843 0.0
H795 H 0.52523 0.72095 0.15937 0.0
H796 H 0.55261 0.84079 0.14767 0.0
H797 H 0.54756 0.83388 0.07273 0.0
C798 C 0.53197 0.76928 0.02996 0.0
C799 C 0.52264 0.73326 0.01204 0.0
C800 C 0.53349 0.7733 0.07283 0.0
C801 C 0.51435 0.70117 0.03721 0.0
C802 C 0.51655 0.70514 0.07972 0.0
C803 C 0.53002 0.74554 0.14039 0.0
C804 C 0.53975 0.78144 0.15868 0.0
C805 C 0.52648 0.74113 0.09778 0.0
C806 C 0.54515 0.81289 0.13402 0.0
C807 C 0.54239 0.80897 0.09129 0.0
H808 H 0.22577 0.79273 0.00739 0.0
H809 H 0.35194 0.85262 0.01126 0.0
H810 H 0.35072 0.85838 0.08545 0.0
H811 H 0.3144 0.84701 0.14918 0.0
H812 H 0.1883 0.78481 0.14714 0.0
H813 H 0.18896 0.77972 0.07227 0.0
C814 C 0.25295 0.80676 0.02453 0.0
C815 C 0.28886 0.82209 0.00371 0.0
C816 C 0.25212 0.80994 0.06747 0.0
C817 C 0.32384 0.84023 0.0264 0.0
C818 C 0.32324 0.84381 0.06889 0.0
C819 C 0.28701 0.83264 0.13239 0.0
C820 C 0.25137 0.81662 0.15365 0.0
C821 C 0.28761 0.82899 0.08968 0.0
C822 C 0.21615 0.79755 0.13144 0.0
C823 C 0.21652 0.79451 0.08867 0.0
H824 H 0.16134 0.4312 0.01361 0.0
H825 H 0.27809 0.52696 0.99223 0.0
H826 H 0.29027 0.53388 0.06638 0.0
H827 H 0.26704 0.51267 0.13765 0.0
H828 H 0.14891 0.41856 0.15681 0.0
H829 H 0.13812 0.41101 0.08309 0.0
C830 C 0.18956 0.45364 0.02495 0.0
C831 C 0.21878 0.47845 0.99727 0.0
C832 C 0.19611 0.45771 0.06734 0.0
C833 C 0.25506 0.50741 0.01281 0.0
C834 C 0.26204 0.51137 0.05521 0.0
C835 C 0.23905 0.49049 0.12554 0.0
C836 C 0.20881 0.46626 0.15265 0.0
C837 C 0.23272 0.48667 0.08282 0.0
C838 C 0.17256 0.43781 0.13665 0.0
C839 C 0.16636 0.43337 0.09446 0.0
H840 H 0.89298 0.84365 0.85728 0.0
H841 H 0.88893 0.73306 0.84075 0.0
H842 H 0.87408 0.71796 0.91286 0.0
H843 H 0.86445 0.73653 0.98118 0.0
H844 H 0.86705 0.84601 0.99929 0.0
H845 H 0.87993 0.86094 0.92613 0.0
C846 C 0.88864 0.8162 0.86947 0.0
C847 C 0.89223 0.78969 0.84354 0.0
C848 C 0.87982 0.8074 0.91129 0.0
C849 C 0.88637 0.75412 0.85984 0.0
C850 C 0.8779 0.74537 0.90119 0.0
C851 C 0.86757 0.76356 0.96908 0.0
C852 C 0.86487 0.79011 0.99552 0.0
C853 C 0.87487 0.77186 0.92722 0.0
C854 C 0.86874 0.82492 0.97942 0.0
C855 C 0.87632 0.83358 0.93765 0.0
H856 H 0.20836 0.10201 0.83871 0.0
H857 H 0.17466 0.18989 0.85251 0.0
H858 H 0.17471 0.18372 0.92695 0.0
H859 H 0.18564 0.15457 0.98809 0.0
H860 H 0.21581 0.06412 0.97544 0.0
H861 H 0.21562 0.06984 0.90055 0.0
C862 C 0.20087 0.11962 0.85811 0.0
C863 C 0.19153 0.14634 0.84022 0.0
C864 C 0.20035 0.11548 0.901 0.0
C865 C 0.18162 0.16885 0.86556 0.0
C866 C 0.18182 0.16549 0.90813 0.0
C867 C 0.19213 0.13606 0.96893 0.0
C868 C 0.20101 0.10918 0.98714 0.0
C869 C 0.19132 0.13907 0.92615 0.0
C870 C 0.20882 0.08499 0.96202 0.0
C871 C 0.20883 0.08835 0.91927 0.0
H872 H 0.91356 0.11729 0.84451 0.0
H873 H 0.8342 0.99453 0.86666 0.0
H874 H 0.84003 0.00619 0.94036 0.0
H875 H 0.8645 0.05137 0.99812 0.0
H876 H 0.94558 0.17383 0.97781 0.0
H877 H 0.94244 0.16218 0.90353 0.0
C878 C 0.89788 0.09308 0.86554 0.0
C879 C 0.87332 0.05514 0.85015 0.0
C880 C 0.90145 0.09996 0.90803 0.0
C881 C 0.8534 0.02397 0.87768 0.0
C882 C 0.85653 0.03063 0.91984 0.0
C883 C 0.88152 0.07557 0.97745 0.0
C884 C 0.90474 0.1135 0.99317 0.0
C885 C 0.87992 0.06854 0.93525 0.0
C886 C 0.92733 0.14441 0.96623 0.0
C887 C 0.92548 0.13774 0.92387 0.0
H888 H 0.23722 0.13658 0.33718 0.0
H889 H 0.12379 0.03396 0.3539 0.0
H890 H 0.12521 0.04951 0.42657 0.0
H891 H 0.15967 0.0907 0.48587 0.0
H892 H 0.27382 0.1924 0.46955 0.0
H893 H 0.27092 0.17879 0.39617 0.0
C894 C 0.21264 0.11775 0.35661 0.0
C895 C 0.18045 0.08413 0.34004 0.0
C896 C 0.21379 0.12663 0.39849 0.0
C897 C 0.14896 0.06002 0.36578 0.0
C898 C 0.14974 0.06886 0.40739 0.0
C899 C 0.18381 0.11011 0.46625 0.0
C900 C 0.21693 0.14252 0.48327 0.0
C901 C 0.18216 0.10187 0.42415 0.0
C902 C 0.24798 0.16722 0.45734 0.0
C903 C 0.24638 0.15944 0.41534 0.0
H904 H 0.96997 0.17236 0.37571 0.0
H905 H 0.85837 0.07806 0.33558 0.0
H906 H 0.84007 0.0573 0.40696 0.0
H907 H 0.8555 0.06762 0.48129 0.0
H908 H 0.96563 0.16559 0.51985 0.0
H909 H 0.98484 0.18322 0.44866 0.0
C910 C 0.94174 0.14707 0.38255 0.0
C911 C 0.91564 0.1266 0.35058 0.0
C912 C 0.93115 0.13606 0.42343 0.0
C913 C 0.87891 0.09429 0.35985 0.0
C914 C 0.86849 0.08241 0.40058 0.0
C915 C 0.88378 0.09256 0.47393 0.0
C916 C 0.90918 0.11518 0.50568 0.0
C917 C 0.89432 0.10326 0.43271 0.0
C918 C 0.94553 0.14779 0.4959 0.0
C919 C 0.95659 0.1579 0.45521 0.0
H920 H 0.91577 0.79055 0.34515 0.0
H921 H 0.82601 0.82132 0.36161 0.0
H922 H 0.82832 0.8142 0.43562 0.0
H923 H 0.85426 0.79753 0.49538 0.0
H924 H 0.94659 0.77036 0.48089 0.0
H925 H 0.94507 0.77792 0.40627 0.0
C926 C 0.89695 0.79589 0.36507 0.0
C927 C 0.87075 0.80637 0.34804 0.0
C928 C 0.89877 0.79224 0.40778 0.0
C929 C 0.84666 0.81352 0.37404 0.0
C930 C 0.84778 0.80925 0.41634 0.0
C931 C 0.87398 0.79315 0.47586 0.0
C932 C 0.90009 0.78286 0.49329 0.0
C933 C 0.87344 0.79831 0.43346 0.0
C934 C 0.92613 0.77814 0.46791 0.0
C935 C 0.92521 0.7824 0.42537 0.0
H936 H 0.38678 0.93347 0.88661 0.0
H937 H 0.32986 0.95869 0.98514 0.0
H938 H 0.39347 0.00586 0.01392 0.0
H939 H 0.46577 0.04028 0.01106 0.0
H940 H 0.5217 0.01377 0.91244 0.0
H941 H 0.45819 0.96659 0.88437 0.0
C942 C 0.38818 0.94962 0.91408 0.0
C943 C 0.35341 0.94278 0.93329 0.0
C944 C 0.42485 0.97619 0.93093 0.0
C945 C 0.35604 0.96358 0.96935 0.0
C946 C 0.39248 0.99042 0.98605 0.0
C947 C 0.46404 0.02377 0.98379 0.0
C948 C 0.49865 0.03063 0.96406 0.0
C949 C 0.42716 0.99683 0.96726 0.0
C950 C 0.4957 0.00919 0.9284 0.0
C951 C 0.45931 0.98227 0.9121 0.0
H952 H 0.96466 0.47826 0.9234 0.0
H953 H 0.97014 0.46471 0.05431 0.0
H954 H 0.01446 0.43913 0.04387 0.0
H955 H 0.05171 0.42083 0.99764 0.0
H956 H 0.04588 0.43437 0.86677 0.0
H957 H 1.00098 0.45913 0.87726 0.0
C958 C 0.97585 0.47018 0.94978 0.0
C959 C 0.96435 0.47385 0.98965 0.0
C960 C 1.00079 0.45492 0.94354 0.0
C961 C 0.97874 0.46256 0.02332 0.0
C962 C 0.0039 0.44768 0.01736 0.0
C963 C 0.04031 0.42877 0.97133 0.0
C964 C 0.05214 0.42561 0.93146 0.0
C965 C 0.01495 0.44357 0.97759 0.0
C966 C 0.03714 0.43624 0.89779 0.0
C967 C 0.01167 0.45069 0.90376 0.0
H968 H 0.57773 0.65708 0.9988 0.0
H969 H 0.56095 0.63616 0.86839 0.0
H970 H 0.53709 0.56661 0.87961 0.0
H971 H 0.51996 0.51151 0.92645 0.0
H972 H 0.53707 0.53259 0.05682 0.0
H973 H 0.56102 0.6021 0.04555 0.0
C974 C 0.56938 0.63748 0.9727 0.0
C975 C 0.57155 0.65212 0.93271 0.0
C976 C 0.55503 0.59734 0.97942 0.0
C977 C 0.55996 0.62594 0.89945 0.0
C978 C 0.54602 0.58604 0.90587 0.0
C979 C 0.52857 0.53116 0.95252 0.0
C980 C 0.52643 0.51655 0.99253 0.0
C981 C 0.54305 0.57134 0.94575 0.0
C982 C 0.53814 0.54278 0.02575 0.0
C983 C 0.5521 0.58266 0.01929 0.0
H984 H 0.92982 0.52341 0.47428 0.0
H985 H 0.02599 0.50348 0.49679 0.0
H986 H 0.07136 0.56707 0.46616 0.0
H987 H 0.08341 0.62824 0.43362 0.0
H988 H 0.98747 0.64949 0.41408 0.0
H989 H 0.94197 0.58504 0.44248 0.0
C990 C 0.96067 0.53285 0.472 0.0
C991 C 0.97455 0.50862 0.48703 0.0
C992 C 0.98645 0.56955 0.45491 0.0
C993 C 0.01468 0.5216 0.48516 0.0
C994 C 0.04053 0.55786 0.46759 0.0
C995 C 0.0525 0.61873 0.43526 0.0
C996 C 0.03882 0.64363 0.42147 0.0
C997 C 0.0267 0.58204 0.45237 0.0
C998 C 0.99876 0.63095 0.4244 0.0
C999 C 0.97276 0.59413 0.44068 0.0
H1000 H 0.45986 0.41399 0.44682 0.0
H1001 H 0.48046 0.51847 0.51029 0.0
H1002 H 0.41646 0.50754 0.48749 0.0
H1003 H 0.35516 0.46856 0.4483 0.0
H1004 H 0.33346 0.36227 0.38846 0.0
H1005 H 0.39765 0.37346 0.41096 0.0
C1006 C 0.45028 0.43435 0.45575 0.0
C1007 C 0.47486 0.46718 0.47996 0.0
C1008 C 0.41347 0.42753 0.44302 0.0
C1009 C 0.46194 0.49297 0.49184 0.0
C1010 C 0.4255 0.4868 0.47862 0.0
C1011 C 0.36476 0.44803 0.4402 0.0
C1012 C 0.3403 0.41496 0.4164 0.0
C1013 C 0.40118 0.45433 0.45399 0.0
C1014 C 0.35226 0.38806 0.40641 0.0
C1015 C 0.38878 0.39445 0.41935 0.0
H1016 H 0.55511 0.91336 0.49351 0.0
H1017 H 0.58188 0.94104 0.36528 0.0
H1018 H 0.56998 0.99597 0.37243 0.0
H1019 H 0.55058 0.03494 0.41465 0.0
H1020 H 0.52283 0.00649 0.54267 0.0
H1021 H 0.53601 0.95245 0.53577 0.0
C1022 C 0.55863 0.93151 0.46708 0.0
C1023 C 0.56953 0.92308 0.42887 0.0
C1024 C 0.55112 0.96256 0.47129 0.0
C1025 C 0.57395 0.94704 0.39509 0.0
C1026 C 0.56683 0.97826 0.39912 0.0
C1027 C 0.54726 0.01691 0.44113 0.0
C1028 C 0.53555 0.02482 0.47919 0.0
C1029 C 0.55508 0.98605 0.43698 0.0
C1030 C 0.53138 1.00095 0.51298 0.0
C1031 C 0.53918 0.97019 0.5091 0.0
H1032 H 0.12888 0.40434 0.27611 0.0
H1033 H 0.15634 0.32397 0.33679 0.0
H1034 H 0.09182 0.26923 0.31787 0.0
H1035 H 0.0286 0.24439 0.28186 0.0
H1036 H 1.00123 0.32601 0.22345 0.0
H1037 H 0.06497 0.38025 0.24371 0.0
C1038 C 0.12083 0.37483 0.28516 0.0
C1039 C 0.14757 0.36813 0.30735 0.0
C1040 C 0.08378 0.34381 0.27449 0.0
C1041 C 0.13631 0.32986 0.31969 0.0
C1042 C 0.09951 0.29861 0.30871 0.0
C1043 C 0.03653 0.27405 0.27356 0.0
C1044 C 0.01017 0.28103 0.25075 0.0
C1045 C 0.07316 0.30523 0.28574 0.0
C1046 C 0.02084 0.31971 0.24081 0.0
C1047 C 0.05734 0.35076 0.25236 0.0
H1048 H 0.64764 0.77125 0.3514 0.0
H1049 H 0.67079 0.84988 0.2499 0.0
H1050 H 0.71944 0.83469 0.2231 0.0
H1051 H 0.75386 0.79742 0.22706 0.0
H1052 H 0.72937 0.71699 0.3273 0.0
H1053 H 0.68246 0.73393 0.35545 0.0
C1054 C 0.66392 0.7856 0.32388 0.0
C1055 C 0.65597 0.81205 0.30297 0.0
C1056 C 0.691 0.7757 0.30783 0.0
C1057 C 0.67661 0.82967 0.26675 0.0
C1058 C 0.70421 0.82076 0.25122 0.0
C1059 C 0.73793 0.78317 0.25478 0.0
C1060 C 0.74497 0.7556 0.27471 0.0
C1061 C 0.71119 0.79332 0.27109 0.0
C1062 C 0.72439 0.73802 0.31101 0.0
C1063 C 0.6977 0.74791 0.32735 0.0
H1064 H 0.20506 0.85187 0.26492 0.0
H1065 H 0.15931 0.85737 0.38341 0.0
H1066 H 0.1766 0.92498 0.37058 0.0
H1067 H 0.20509 0.98267 0.32648 0.0
H1068 H 0.24633 0.97703 0.2057 0.0
H1069 H 0.23067 0.9094 0.21866 0.0
C1070 C 0.19865 0.86783 0.28778 0.0
C1071 C 0.1809 0.84952 0.32513 0.0
C1072 C 0.2082 0.90674 0.27995 0.0
C1073 C 0.17264 0.87055 0.35434 0.0
C1074 C 0.18276 0.90934 0.34714 0.0
C1075 C 0.21107 0.96684 0.30308 0.0
C1076 C 0.22757 0.98509 0.26546 0.0
C1077 C 0.20076 0.92778 0.31024 0.0
C1078 C 0.23405 0.96374 0.23506 0.0
C1079 C 0.22497 0.92507 0.24245 0.0
H1080 H 0.75408 0.95087 0.74233 0.0
H1081 H 0.72019 0.01155 0.82831 0.0
H1082 H 0.67029 0.94889 0.85697 0.0
H1083 H 0.63584 0.8763 0.85704 0.0
H1084 H 0.67185 0.81723 0.77111 0.0
H1085 H 0.72179 0.87976 0.74373 0.0
C1086 C 0.73549 0.9505 0.767 0.0
C1087 C 0.74052 0.98589 0.78274 0.0
C1088 C 0.70763 0.91455 0.78391 0.0
C1089 C 0.71667 0.98472 0.81535 0.0
C1090 C 0.68831 0.94889 0.83194 0.0
C1091 C 0.65514 0.87722 0.83289 0.0
C1092 C 0.65014 0.84207 0.81629 0.0
C1093 C 0.68365 0.91354 0.81664 0.0
C1094 C 0.67504 0.84379 0.78451 0.0
C1095 C 0.70349 0.87956 0.7686 0.0
H1096 H 0.03001 0.79057 0.82869 0.0
H1097 H 0.02935 0.75934 0.70171 0.0
H1098 H 0.09527 0.76895 0.70965 0.0
H1099 H 0.15364 0.78886 0.75167 0.0
H1100 H 0.15447 0.8194 0.87903 0.0
H1101 H 0.08783 0.80799 0.87168 0.0
C1102 C 0.04412 0.78548 0.8028 0.0
C1103 C 0.02471 0.77417 0.7646 0.0
C1104 C 0.08212 0.79144 0.80755 0.0
C1105 C 0.04337 0.76756 0.73149 0.0
C1106 C 0.0812 0.77343 0.73596 0.0
C1107 C 0.13938 0.79292 0.77804 0.0
C1108 C 0.15935 0.80511 0.81594 0.0
C1109 C 0.10099 0.78583 0.77369 0.0
C1110 C 0.14015 0.81043 0.84946 0.0
C1111 C 0.10192 0.80366 0.8453 0.0
H1112 H 0.24021 0.26596 0.8244 0.0
H1113 H 0.23955 0.28844 0.69499 0.0
H1114 H 0.21688 0.33477 0.70974 0.0
H1115 H 0.19499 0.36725 0.75989 0.0
H1116 H 0.19193 0.34058 0.88847 0.0
H1117 H 0.21762 0.29703 0.87363 0.0
C1118 C 0.23579 0.28146 0.79938 0.0
C1119 C 0.24229 0.27425 0.75866 0.0
C1120 C 0.22149 0.3069 0.808 0.0
C1121 C 0.23527 0.29382 0.72663 0.0
C1122 C 0.22209 0.32015 0.73505 0.0
C1123 C 0.20034 0.35211 0.78452 0.0
C1124 C 0.1919 0.35735 0.8252 0.0
C1125 C 0.21476 0.32667 0.77564 0.0
C1126 C 0.19793 0.33683 0.85688 0.0
C1127 C 0.21289 0.31214 0.84845 0.0
H1128 H 0.67484 0.60689 0.65957 0.0
H1129 H 0.6944 0.60653 0.52935 0.0
H1130 H 0.76483 0.64751 0.54018 0.0
H1131 H 0.82079 0.68326 0.58656 0.0
H1132 H 0.80117 0.68295 0.71692 0.0
H1133 H 0.73087 0.64171 0.70603 0.0
C1134 C 0.69439 0.61619 0.63342 0.0
C1135 C 0.67914 0.60403 0.59358 0.0
C1136 C 0.73495 0.63908 0.63996 0.0
C1137 C 0.70517 0.61578 0.56026 0.0
C1138 C 0.74552 0.639 0.56648 0.0
C1139 C 0.80128 0.67387 0.61275 0.0
C1140 C 0.81652 0.68625 0.65261 0.0
C1141 C 0.76075 0.65061 0.60622 0.0
C1142 C 0.79049 0.67383 0.68596 0.0
C1143 C 0.75018 0.65044 0.67972 0.0
H1144 H 0.29105 0.11662 0.58635 0.0
H1145 H 0.32662 0.15092 0.71197 0.0
H1146 H 0.37856 0.13488 0.7041 0.0
H1147 H 0.41398 0.11134 0.66164 0.0
H1148 H 0.37959 0.07879 0.53555 0.0
H1149 H 0.32663 0.0934 0.54384 0.0
C1150 C 0.31019 0.12078 0.61208 0.0
C1151 C 0.30478 0.1351 0.64977 0.0
C1152 C 0.33996 0.11139 0.60739 0.0
C1153 C 0.33004 0.14017 0.6826 0.0
C1154 C 0.35968 0.13081 0.67816 0.0
C1155 C 0.39464 0.10695 0.63603 0.0
C1156 C 0.40061 0.09358 0.59805 0.0
C1157 C 0.3648 0.11624 0.64077 0.0
C1158 C 0.37559 0.08878 0.56513 0.0
C1159 C 0.3454 0.09732 0.56982 0.0
H1160 H 0.90601 0.30706 0.67654 0.0
H1161 H 0.90074 0.29348 0.54482 0.0
H1162 H 0.87994 0.2243 0.55256 0.0
H1163 H 0.86264 0.16767 0.59645 0.0
H1164 H 0.86857 0.18107 0.72822 0.0
H1165 H 0.88909 0.25027 0.72057 0.0
C1166 C 0.90062 0.28909 0.64947 0.0
C1167 C 0.90511 0.30562 0.61014 0.0
C1168 C 0.88825 0.24918 0.65412 0.0
C1169 C 0.89781 0.28172 0.57546 0.0
C1170 C 0.88565 0.24205 0.57985 0.0
C1171 C 0.86801 0.18552 0.62362 0.0
C1172 C 0.86374 0.16893 0.66292 0.0
C1173 C 0.88048 0.22542 0.61901 0.0
C1174 C 0.87128 0.19284 0.69762 0.0
C1175 C 0.88328 0.23252 0.69326 0.0
H1176 H 0.31106 0.17598 0.08328 0.0
H1177 H 0.30606 0.19837 0.2122 0.0
H1178 H 0.35355 0.26742 0.20173 0.0
H1179 H 0.39594 0.32167 0.15609 0.0
H1180 H 0.40204 0.29934 0.02744 0.0
H1181 H 0.35428 0.23018 0.03774 0.0
C1182 C 0.32059 0.1958 0.10926 0.0
C1183 C 0.30495 0.18167 0.14859 0.0
C1184 C 0.34773 0.23568 0.10298 0.0
C1185 C 0.31768 0.20811 0.18168 0.0
C1186 C 0.34468 0.24776 0.17566 0.0
C1187 C 0.38654 0.30185 0.13012 0.0
C1188 C 0.40236 0.31596 0.0909 0.0
C1189 C 0.35964 0.26193 0.13641 0.0
C1190 C 0.39015 0.28951 0.05786 0.0
C1191 C 0.36299 0.24985 0.06379 0.0
H1192 H 0.81971 0.1324 0.0867 0.0
H1193 H 0.8086 0.15194 0.21513 0.0
H1194 H 0.74119 0.13638 0.20354 0.0
H1195 H 0.68505 0.11634 0.1573 0.0
H1196 H 0.69659 0.0985 0.02863 0.0
H1197 H 0.76406 0.11376 0.04019 0.0
C1198 C 0.80275 0.13358 0.11223 0.0
C1199 C 0.81953 0.14345 0.15185 0.0
C1200 C 0.76384 0.12436 0.1054 0.0
C1201 C 0.79677 0.14465 0.18435 0.0
C1202 C 0.75805 0.13552 0.17777 0.0
C1203 C 0.70212 0.11532 0.13179 0.0
C1204 C 0.68547 0.10572 0.09216 0.0
C1205 C 0.74117 0.12498 0.13852 0.0
C1206 C 0.70846 0.10545 0.05943 0.0
C1207 C 0.74712 0.11435 0.06603 0.0
H1208 H 0.85875 0.58971 0.06534 0.0
H1209 H 0.95792 0.62654 0.14583 0.0
H1210 H 0.94607 0.67649 0.17562 0.0
H1211 H 0.90654 0.70891 0.17998 0.0
H1212 H 0.80735 0.67158 0.09938 0.0
H1213 H 0.81981 0.62234 0.06916 0.0
C1214 C 0.87817 0.60903 0.08896 0.0
C1215 C 0.90938 0.60448 0.10309 0.0
C1216 C 0.87072 0.63721 0.10657 0.0
C1217 C 0.93379 0.62946 0.13421 0.0
C1218 C 0.92688 0.6579 0.15148 0.0
C1219 C 0.88739 0.68968 0.15616 0.0
C1220 C 0.85586 0.69381 0.14225 0.0
C1221 C 0.89511 0.66173 0.1383 0.0
C1222 C 0.83174 0.66901 0.11083 0.0
C1223 C 0.83895 0.64093 0.09333 0.0
loop_
_geom_bond_atom_site_label_1
_geom_bond_atom_site_label_2
_geom_bond_distance
_geom_bond_site_symmetry_2
_ccdc_geom_bond_type
Zn0 O6 1.969 . S
Zn0 O7 1.965 . S
Zn0 O11 2.024 . S
Zn0 O16 1.969 . S
Zn1 O8 1.969 . S
Zn1 O14 1.969 . S
Zn1 O15 1.965 . S
Zn1 O17 2.024 . S
C2 O3 1.229 . S
C2 O11 1.058 . S
O3 C2 1.229 . S
C4 O5 1.229 . S
C4 O17 1.058 . S
O5 C4 1.229 . S
O6 Zn0 1.969 . S
O6 C9 1.267 . S
O7 Zn0 1.965 . S
O7 C18 1.260 . S
O8 Zn1 1.969 . S
O8 C18 1.258 1_556 S
C9 O6 1.267 . S
C9 O10 1.228 . S
O10 C9 1.228 . S
O11 Zn0 2.024 . S
O11 C2 1.058 . S
C12 O13 1.228 . S
C12 O14 1.267 . S
O13 C12 1.228 . S
O14 Zn1 1.969 . S
O14 C12 1.267 . S
O15 Zn1 1.965 . S
O15 C19 1.260 . S
O16 Zn0 1.969 . S
O16 C19 1.258 1_554 S
O17 Zn1 2.024 . S
O17 C4 1.058 . S
C18 O7 1.260 . S
C18 O8 1.258 1_554 S
C19 O15 1.260 . S
C19 O16 1.258 1_556 S
Zn20 O26 1.969 . S
Zn20 O27 1.965 . S
Zn20 O31 2.024 . S
Zn20 O36 1.969 . S
Zn21 O28 1.969 . S
Zn21 O34 1.969 . S
Zn21 O35 1.965 . S
Zn21 O37 2.024 . S
C22 O23 1.229 . S
C22 O31 1.058 . S
O23 C22 1.229 . S
C24 O25 1.229 . S
C24 O37 1.058 . S
O25 C24 1.229 . S
O26 Zn20 1.969 . S
O26 C29 1.267 . S
O27 Zn20 1.965 . S
O27 C38 1.260 . S
O28 Zn21 1.969 . S
O28 C38 1.258 1_556 S
C29 O26 1.267 . S
C29 O30 1.228 . S
O30 C29 1.228 . S
O31 Zn20 2.024 . S
O31 C22 1.058 . S
C32 O33 1.228 . S
C32 O34 1.267 . S
O33 C32 1.228 . S
O34 Zn21 1.969 . S
O34 C32 1.267 . S
O35 Zn21 1.965 . S
O35 C39 1.260 . S
O36 Zn20 1.969 . S
O36 C39 1.258 1_554 S
O37 Zn21 2.024 . S
O37 C24 1.058 . S
C38 O27 1.260 . S
C38 O28 1.258 1_554 S
C39 O35 1.260 . S
C39 O36 1.258 1_556 S
Zn40 O46 1.969 . S
Zn40 O47 1.965 . S
Zn40 O51 2.024 . S
Zn40 O56 1.969 . S
Zn41 O48 1.969 . S
Zn41 O54 1.969 . S
Zn41 O55 1.965 . S
Zn41 O57 2.024 . S
C42 O43 1.229 . S
C42 O51 1.058 . S
O43 C42 1.229 . S
C44 O45 1.229 . S
C44 O57 1.058 . S
O45 C44 1.229 . S
O46 Zn40 1.969 . S
O46 C49 1.267 . S
O47 Zn40 1.965 . S
O47 C58 1.260 . S
O48 Zn41 1.969 . S
O48 C58 1.258 1_556 S
C49 O46 1.267 . S
C49 O50 1.228 . S
O50 C49 1.228 . S
O51 Zn40 2.024 . S
O51 C42 1.058 . S
C52 O53 1.228 . S
C52 O54 1.267 . S
O53 C52 1.228 . S
O54 Zn41 1.969 . S
O54 C52 1.267 . S
O55 Zn41 1.965 . S
O55 C59 1.260 . S
O56 Zn40 1.969 . S
O56 C59 1.258 1_554 S
O57 Zn41 2.024 . S
O57 C44 1.058 . S
C58 O47 1.260 . S
C58 O48 1.258 1_554 S
C59 O55 1.260 . S
C59 O56 1.258 1_556 S
Zn60 O66 1.969 . S
Zn60 O67 1.965 . S
Zn60 O71 2.024 . S
Zn60 O76 1.969 . S
Zn61 O68 1.969 . S
Zn61 O74 1.969 . S
Zn61 O75 1.965 . S
Zn61 O77 2.024 . S
C62 O63 1.229 . S
C62 O71 1.058 . S
O63 C62 1.229 . S
C64 O65 1.229 . S
C64 O77 1.058 . S
O65 C64 1.229 . S
O66 Zn60 1.969 . S
O66 C69 1.267 . S
O67 Zn60 1.965 . S
O67 C78 1.260 . S
O68 Zn61 1.969 . S
O68 C78 1.258 . S
C69 O66 1.267 . S
C69 O70 1.228 . S
O70 C69 1.228 . S
O71 Zn60 2.024 . S
O71 C62 1.058 . S
C72 O73 1.228 . S
C72 O74 1.267 . S
O73 C72 1.228 . S
O74 Zn61 1.969 . S
O74 C72 1.267 . S
O75 Zn61 1.965 . S
O75 C79 1.260 . S
O76 Zn60 1.969 . S
O76 C79 1.258 . S
O77 Zn61 2.024 . S
O77 C64 1.058 . S
C78 O67 1.260 . S
C78 O68 1.258 . S
C79 O75 1.260 . S
C79 O76 1.258 . S
Zn80 O86 1.969 . S
Zn80 O87 1.965 . S
Zn80 O91 2.024 . S
Zn80 O96 1.969 . S
Zn81 O88 1.969 . S
Zn81 O94 1.969 . S
Zn81 O95 1.965 . S
Zn81 O97 2.024 . S
C82 O83 1.229 . S
C82 O91 1.058 . S
O83 C82 1.229 . S
C84 O85 1.229 . S
C84 O97 1.058 . S
O85 C84 1.229 . S
O86 Zn80 1.969 . S
O86 C89 1.267 . S
O87 Zn80 1.965 . S
O87 C98 1.260 . S
O88 Zn81 1.969 . S
O88 C98 1.258 . S
C89 O86 1.267 . S
C89 O90 1.228 . S
O90 C89 1.228 . S
O91 Zn80 2.024 . S
O91 C82 1.058 . S
C92 O93 1.228 . S
C92 O94 1.267 . S
O93 C92 1.228 . S
O94 Zn81 1.969 . S
O94 C92 1.267 . S
O95 Zn81 1.965 . S
O95 C99 1.260 . S
O96 Zn80 1.969 . S
O96 C99 1.258 . S
O97 Zn81 2.024 . S
O97 C84 1.058 . S
C98 O87 1.260 . S
C98 O88 1.258 . S
C99 O95 1.260 . S
C99 O96 1.258 . S
Zn100 O106 1.969 . S
Zn100 O107 1.965 . S
Zn100 O111 2.024 . S
Zn100 O116 1.969 . S
Zn101 O108 1.969 . S
Zn101 O114 1.969 . S
Zn101 O115 1.965 . S
Zn101 O117 2.024 . S
C102 O103 1.229 . S
C102 O111 1.058 . S
O103 C102 1.229 . S
C104 O105 1.229 . S
C104 O117 1.058 . S
O105 C104 1.229 . S
O106 Zn100 1.969 . S
O106 C109 1.267 . S
O107 Zn100 1.965 . S
O107 C118 1.260 . S
O108 Zn101 1.969 . S
O108 C118 1.258 . S
C109 O106 1.267 . S
C109 O110 1.228 . S
O110 C109 1.228 . S
O111 Zn100 2.024 . S
O111 C102 1.058 . S
C112 O113 1.228 . S
C112 O114 1.267 . S
O113 C112 1.228 . S
O114 Zn101 1.969 . S
O114 C112 1.267 . S
O115 Zn101 1.965 . S
O115 C119 1.260 . S
O116 Zn100 1.969 . S
O116 C119 1.258 . S
O117 Zn101 2.024 . S
O117 C104 1.058 . S
C118 O107 1.260 . S
C118 O108 1.258 . S
C119 O115 1.260 . S
C119 O116 1.258 . S
Zn120 O126 1.969 . S
Zn120 O127 1.965 . S
Zn120 O131 2.024 . S
Zn120 O136 1.969 . S
Zn121 O128 1.969 . S
Zn121 O134 1.969 . S
Zn121 O135 1.965 . S
Zn121 O137 2.024 . S
C122 O123 1.229 . S
C122 O131 1.058 . S
O123 C122 1.229 . S
C124 O125 1.229 . S
C124 O137 1.058 . S
O125 C124 1.229 . S
O126 Zn120 1.969 . S
O126 C129 1.267 . S
O127 Zn120 1.965 . S
O127 C138 1.260 . S
O128 Zn121 1.969 . S
O128 C138 1.258 . S
C129 O126 1.267 . S
C129 O130 1.228 . S
O130 C129 1.228 . S
O131 Zn120 2.024 . S
O131 C122 1.058 . S
C132 O133 1.228 . S
C132 O134 1.267 . S
O133 C132 1.228 . S
O134 Zn121 1.969 . S
O134 C132 1.267 . S
O135 Zn121 1.965 . S
O135 C139 1.260 . S
O136 Zn120 1.969 . S
O136 C139 1.258 . S
O137 Zn121 2.024 . S
O137 C124 1.058 . S
C138 O127 1.260 . S
C138 O128 1.258 . S
C139 O135 1.260 . S
C139 O136 1.258 . S
Zn140 O146 1.969 . S
Zn140 O147 1.965 . S
Zn140 O151 2.024 . S
Zn140 O156 1.969 . S
Zn141 O148 1.969 . S
Zn141 O154 1.969 . S
Zn141 O155 1.965 . S
Zn141 O157 2.024 . S
C142 O143 1.229 . S
C142 O151 1.058 . S
O143 C142 1.229 . S
C144 O145 1.229 . S
C144 O157 1.058 . S
O145 C144 1.229 . S
O146 Zn140 1.969 . S
O146 C149 1.267 . S
O147 Zn140 1.965 . S
O147 C158 1.260 . S
O148 Zn141 1.969 . S
O148 C158 1.258 . S
C149 O146 1.267 . S
C149 O150 1.228 . S
O150 C149 1.228 . S
O151 Zn140 2.024 . S
O151 C142 1.058 . S
C152 O153 1.228 . S
C152 O154 1.267 . S
O153 C152 1.228 . S
O154 Zn141 1.969 . S
O154 C152 1.267 . S
O155 Zn141 1.965 . S
O155 C159 1.260 . S
O156 Zn140 1.969 . S
O156 C159 1.258 . S
O157 Zn141 2.024 . S
O157 C144 1.058 . S
C158 O147 1.260 . S
C158 O148 1.258 . S
C159 O155 1.260 . S
C159 O156 1.258 . S
Zn160 O166 1.969 . S
Zn160 O167 1.965 . S
Zn160 O171 2.024 . S
Zn160 O176 1.969 . S
Zn161 O168 1.969 . S
Zn161 O174 1.969 . S
Zn161 O175 1.965 . S
Zn161 O177 2.024 . S
C162 O163 1.229 . S
C162 O171 1.058 . S
O163 C162 1.229 . S
C164 O165 1.229 . S
C164 O177 1.058 . S
O165 C164 1.229 . S
O166 Zn160 1.969 . S
O166 C169 1.267 . S
O167 Zn160 1.965 . S
O167 C178 1.260 . S
O168 Zn161 1.969 . S
O168 C178 1.258 . S
C169 O166 1.267 . S
C169 O170 1.228 . S
O170 C169 1.228 . S
O171 Zn160 2.024 . S
O171 C162 1.058 . S
C172 O173 1.228 . S
C172 O174 1.267 . S
O173 C172 1.228 . S
O174 Zn161 1.969 . S
O174 C172 1.267 . S
O175 Zn161 1.965 . S
O175 C179 1.260 . S
O176 Zn160 1.969 . S
O176 C179 1.258 . S
O177 Zn161 2.024 . S
O177 C164 1.058 . S
C178 O167 1.260 . S
C178 O168 1.258 . S
C179 O175 1.260 . S
C179 O176 1.258 . S
Zn180 O186 1.969 . S
Zn180 O187 1.965 . S
Zn180 O191 2.024 . S
Zn180 O196 1.969 . S
Zn181 O188 1.969 . S
Zn181 O194 1.969 . S
Zn181 O195 1.965 . S
Zn181 O197 2.024 . S
C182 O183 1.229 . S
C182 O191 1.058 . S
O183 C182 1.229 . S
C184 O185 1.229 . S
C184 O197 1.058 . S
O185 C184 1.229 . S
O186 Zn180 1.969 . S
O186 C189 1.267 . S
O187 Zn180 1.965 . S
O187 C198 1.260 . S
O188 Zn181 1.969 . S
O188 C198 1.258 . S
C189 O186 1.267 . S
C189 O190 1.228 . S
O190 C189 1.228 . S
O191 Zn180 2.024 . S
O191 C182 1.058 . S
C192 O193 1.228 . S
C192 O194 1.267 . S
O193 C192 1.228 . S
O194 Zn181 1.969 . S
O194 C192 1.267 . S
O195 Zn181 1.965 . S
O195 C199 1.260 . S
O196 Zn180 1.969 . S
O196 C199 1.258 . S
O197 Zn181 2.024 . S
O197 C184 1.058 . S
C198 O187 1.260 . S
C198 O188 1.258 . S
C199 O195 1.260 . S
C199 O196 1.258 . S
Zn200 O206 1.969 . S
Zn200 O207 1.965 . S
Zn200 O211 2.024 . S
Zn200 O216 1.969 . S
Zn201 O208 1.969 . S
Zn201 O214 1.969 . S
Zn201 O215 1.965 . S
Zn201 O217 2.024 . S
C202 O203 1.229 . S
C202 O211 1.058 . S
O203 C202 1.229 . S
C204 O205 1.229 . S
C204 O217 1.058 . S
O205 C204 1.229 . S
O206 Zn200 1.969 . S
O206 C209 1.267 . S
O207 Zn200 1.965 . S
O207 C218 1.260 . S
O208 Zn201 1.969 . S
O208 C218 1.258 . S
C209 O206 1.267 . S
C209 O210 1.228 . S
O210 C209 1.228 . S
O211 Zn200 2.024 . S
O211 C202 1.058 . S
C212 O213 1.228 . S
C212 O214 1.267 . S
O213 C212 1.228 . S
O214 Zn201 1.969 . S
O214 C212 1.267 . S
O215 Zn201 1.965 . S
O215 C219 1.260 . S
O216 Zn200 1.969 . S
O216 C219 1.258 . S
O217 Zn201 2.024 . S
O217 C204 1.058 . S
C218 O207 1.260 . S
C218 O208 1.258 . S
C219 O215 1.260 . S
C219 O216 1.258 . S
Zn220 O226 1.969 . S
Zn220 O227 1.965 . S
Zn220 O231 2.024 . S
Zn220 O236 1.969 . S
Zn221 O228 1.969 . S
Zn221 O234 1.969 . S
Zn221 O235 1.965 . S
Zn221 O237 2.024 . S
C222 O223 1.229 . S
C222 O231 1.058 . S
O223 C222 1.229 . S
C224 O225 1.229 . S
C224 O237 1.058 . S
O225 C224 1.229 . S
O226 Zn220 1.969 . S
O226 C229 1.267 . S
O227 Zn220 1.965 . S
O227 C238 1.260 . S
O228 Zn221 1.969 . S
O228 C238 1.258 . S
C229 O226 1.267 . S
C229 O230 1.228 . S
O230 C229 1.228 . S
O231 Zn220 2.024 . S
O231 C222 1.058 . S
C232 O233 1.228 . S
C232 O234 1.267 . S
O233 C232 1.228 . S
O234 Zn221 1.969 . S
O234 C232 1.267 . S
O235 Zn221 1.965 . S
O235 C239 1.260 . S
O236 Zn220 1.969 . S
O236 C239 1.258 . S
O237 Zn221 2.024 . S
O237 C224 1.058 . S
C238 O227 1.260 . S
C238 O228 1.258 . S
C239 O235 1.260 . S
C239 O236 1.258 . S
Zn240 O246 1.969 . S
Zn240 O247 1.965 . S
Zn240 O251 2.024 . S
Zn240 O256 1.969 . S
Zn241 O248 1.969 . S
Zn241 O254 1.969 . S
Zn241 O255 1.965 . S
Zn241 O257 2.024 . S
C242 O243 1.229 . S
C242 O251 1.058 . S
O243 C242 1.229 . S
C244 O245 1.229 . S
C244 O257 1.058 . S
O245 C244 1.229 . S
O246 Zn240 1.969 . S
O246 C249 1.267 . S
O247 Zn240 1.965 . S
O247 C258 1.260 . S
O248 Zn241 1.969 . S
O248 C258 1.258 . S
C249 O246 1.267 . S
C249 O250 1.228 . S
O250 C249 1.228 . S
O251 Zn240 2.024 . S
O251 C242 1.058 . S
C252 O253 1.228 . S
C252 O254 1.267 . S
O253 C252 1.228 . S
O254 Zn241 1.969 . S
O254 C252 1.267 . S
O255 Zn241 1.965 . S
O255 C259 1.260 . S
O256 Zn240 1.969 . S
O256 C259 1.258 . S
O257 Zn241 2.024 . S
O257 C244 1.058 . S
C258 O247 1.260 . S
C258 O248 1.258 . S
C259 O255 1.260 . S
C259 O256 1.258 . S
Zn260 O266 1.969 . S
Zn260 O267 1.965 . S
Zn260 O271 2.024 . S
Zn260 O276 1.969 . S
Zn261 O268 1.969 . S
Zn261 O274 1.969 . S
Zn261 O275 1.965 . S
Zn261 O277 2.024 . S
C262 O263 1.229 . S
C262 O271 1.058 . S
O263 C262 1.229 . S
C264 O265 1.229 . S
C264 O277 1.058 . S
O265 C264 1.229 . S
O266 Zn260 1.969 . S
O266 C269 1.267 . S
O267 Zn260 1.965 . S
O267 C278 1.260 . S
O268 Zn261 1.969 . S
O268 C278 1.258 . S
C269 O266 1.267 . S
C269 O270 1.228 . S
O270 C269 1.228 . S
O271 Zn260 2.024 . S
O271 C262 1.058 . S
C272 O273 1.228 . S
C272 O274 1.267 . S
O273 C272 1.228 . S
O274 Zn261 1.969 . S
O274 C272 1.267 . S
O275 Zn261 1.965 . S
O275 C279 1.260 . S
O276 Zn260 1.969 . S
O276 C279 1.258 . S
O277 Zn261 2.024 . S
O277 C264 1.058 . S
C278 O267 1.260 . S
C278 O268 1.258 . S
C279 O275 1.260 . S
C279 O276 1.258 . S
Zn280 O286 1.969 . S
Zn280 O287 1.965 . S
Zn280 O291 2.024 . S
Zn280 O296 1.969 . S
Zn281 O288 1.969 . S
Zn281 O294 1.969 . S
Zn281 O295 1.965 . S
Zn281 O297 2.024 . S
C282 O283 1.229 . S
C282 O291 1.058 . S
O283 C282 1.229 . S
C284 O285 1.229 . S
C284 O297 1.058 . S
O285 C284 1.229 . S
O286 Zn280 1.969 . S
O286 C289 1.267 . S
O287 Zn280 1.965 . S
O287 C298 1.260 . S
O288 Zn281 1.969 . S
O288 C298 1.258 . S
C289 O286 1.267 . S
C289 O290 1.228 . S
O290 C289 1.228 . S
O291 Zn280 2.024 . S
O291 C282 1.058 . S
C292 O293 1.228 . S
C292 O294 1.267 . S
O293 C292 1.228 . S
O294 Zn281 1.969 . S
O294 C292 1.267 . S
O295 Zn281 1.965 . S
O295 C299 1.260 . S
O296 Zn280 1.969 . S
O296 C299 1.258 . S
O297 Zn281 2.024 . S
O297 C284 1.058 . S
C298 O287 1.260 . S
C298 O288 1.258 . S
C299 O295 1.260 . S
C299 O296 1.258 . S
Zn300 O306 1.969 . S
Zn300 O307 1.965 . S
Zn300 O311 2.024 . S
Zn300 O316 1.969 . S
Zn301 O308 1.969 . S
Zn301 O314 1.969 . S
Zn301 O315 1.965 . S
Zn301 O317 2.024 . S
C302 O303 1.229 . S
C302 O311 1.058 . S
O303 C302 1.229 . S
C304 O305 1.229 . S
C304 O317 1.058 . S
O305 C304 1.229 . S
O306 Zn300 1.969 . S
O306 C309 1.267 . S
O307 Zn300 1.965 . S
O307 C318 1.260 . S
O308 Zn301 1.969 . S
O308 C318 1.258 . S
C309 O306 1.267 . S
C309 O310 1.228 . S
O310 C309 1.228 . S
O311 Zn300 2.024 . S
O311 C302 1.058 . S
C312 O313 1.228 . S
C312 O314 1.267 . S
O313 C312 1.228 . S
O314 Zn301 1.969 . S
O314 C312 1.267 . S
O315 Zn301 1.965 . S
O315 C319 1.260 . S
O316 Zn300 1.969 . S
O316 C319 1.258 . S
O317 Zn301 2.024 . S
O317 C304 1.058 . S
C318 O307 1.260 . S
C318 O308 1.258 . S
C319 O315 1.260 . S
C319 O316 1.258 . S
Zn320 O326 1.969 . S
Zn320 O327 1.965 . S
Zn320 O331 2.024 . S
Zn320 O336 1.969 . S
Zn321 O328 1.969 . S
Zn321 O334 1.969 . S
Zn321 O335 1.965 . S
Zn321 O337 2.024 . S
C322 O323 1.229 . S
C322 O331 1.058 . S
O323 C322 1.229 . S
C324 O325 1.229 . S
C324 O337 1.058 . S
O325 C324 1.229 . S
O326 Zn320 1.969 . S
O326 C329 1.267 . S
O327 Zn320 1.965 . S
O327 C338 1.260 . S
O328 Zn321 1.969 . S
O328 C338 1.258 . S
C329 O326 1.267 . S
C329 O330 1.228 . S
O330 C329 1.228 . S
O331 Zn320 2.024 . S
O331 C322 1.058 . S
C332 O333 1.228 . S
C332 O334 1.267 . S
O333 C332 1.228 . S
O334 Zn321 1.969 . S
O334 C332 1.267 . S
O335 Zn321 1.965 . S
O335 C339 1.260 . S
O336 Zn320 1.969 . S
O336 C339 1.258 . S
O337 Zn321 2.024 . S
O337 C324 1.058 . S
C338 O327 1.260 . S
C338 O328 1.258 . S
C339 O335 1.260 . S
C339 O336 1.258 . S
Zn340 O346 1.969 . S
Zn340 O347 1.965 . S
Zn340 O351 2.024 . S
Zn340 O356 1.969 . S
Zn341 O348 1.969 . S
Zn341 O354 1.969 . S
Zn341 O355 1.965 . S
Zn341 O357 2.024 . S
C342 O343 1.229 . S
C342 O351 1.058 . S
O343 C342 1.229 . S
C344 O345 1.229 . S
C344 O357 1.058 . S
O345 C344 1.229 . S
O346 Zn340 1.969 . S
O346 C349 1.267 . S
O347 Zn340 1.965 . S
O347 C358 1.260 . S
O348 Zn341 1.969 . S
O348 C358 1.258 . S
C349 O346 1.267 . S
C349 O350 1.228 . S
O350 C349 1.228 . S
O351 Zn340 2.024 . S
O351 C342 1.058 . S
C352 O353 1.228 . S
C352 O354 1.267 . S
O353 C352 1.228 . S
O354 Zn341 1.969 . S
O354 C352 1.267 . S
O355 Zn341 1.965 . S
O355 C359 1.260 . S
O356 Zn340 1.969 . S
O356 C359 1.258 . S
O357 Zn341 2.024 . S
O357 C344 1.058 . S
C358 O347 1.260 . S
C358 O348 1.258 . S
C359 O355 1.260 . S
C359 O356 1.258 . S
H360 C366 0.930 . S
H361 C369 0.930 . S
H362 C370 0.930 . S
H363 C371 0.930 . S
H364 C374 0.930 . S
H365 C375 0.930 . S
C366 H360 0.930 . S
C366 C367 1.355 1_554 S
C366 C368 1.415 . S
C367 C366 1.355 1_556 S
C367 C369 1.419 . S
C368 C366 1.415 . S
C368 C373 1.425 1_554 S
C368 C375 1.409 . S
C369 H361 0.930 . S
C369 C367 1.419 . S
C369 C370 1.362 . S
C370 H362 0.930 . S
C370 C369 1.362 . S
C370 C373 1.409 . S
C371 H363 0.930 . S
C371 C372 1.355 1_556 S
C371 C373 1.415 . S
C372 C371 1.355 1_554 S
C372 C374 1.419 . S
C373 C368 1.425 1_556 S
C373 C370 1.409 . S
C373 C371 1.415 . S
C374 H364 0.930 . S
C374 C372 1.419 . S
C374 C375 1.362 . S
C375 H365 0.930 . S
C375 C368 1.409 . S
C375 C374 1.362 . S
H376 C382 0.930 . S
H377 C385 0.930 . S
H378 C386 0.930 . S
H379 C387 0.930 1_554 S
H380 C390 0.930 . S
H381 C391 0.930 . S
C382 H376 0.930 . S
C382 C383 1.355 1_556 S
C382 C384 1.415 . S
C383 C382 1.355 1_554 S
C383 C385 1.419 . S
C384 C382 1.415 . S
C384 C389 1.425 1_556 S
C384 C391 1.409 . S
C385 H377 0.930 . S
C385 C383 1.419 . S
C385 C386 1.362 . S
C386 H378 0.930 . S
C386 C385 1.362 . S
C386 C389 1.409 . S
C387 H379 0.930 1_556 S
C387 C388 1.355 . S
C387 C389 1.415 1_556 S
C388 C387 1.355 . S
C388 C390 1.419 . S
C389 C384 1.425 1_554 S
C389 C386 1.409 . S
C389 C387 1.415 1_554 S
C390 H380 0.930 . S
C390 C388 1.419 . S
C390 C391 1.362 . S
C391 H381 0.930 . S
C391 C384 1.409 . S
C391 C390 1.362 . S
H392 C398 0.930 1_554 S
H393 C401 0.930 . S
H394 C402 0.930 . S
H395 C403 0.930 . S
H396 C406 0.930 . S
H397 C407 0.930 . S
C398 H392 0.930 1_556 S
C398 C399 1.355 . S
C398 C400 1.415 1_556 S
C399 C398 1.355 . S
C399 C401 1.419 . S
C400 C398 1.415 1_554 S
C400 C405 1.425 1_554 S
C400 C407 1.409 . S
C401 H393 0.930 . S
C401 C399 1.419 . S
C401 C402 1.362 . S
C402 H394 0.930 . S
C402 C401 1.362 . S
C402 C405 1.409 . S
C403 H395 0.930 . S
C403 C404 1.355 1_556 S
C403 C405 1.415 . S
C404 C403 1.355 1_554 S
C404 C406 1.419 . S
C405 C400 1.425 1_556 S
C405 C402 1.409 . S
C405 C403 1.415 . S
C406 H396 0.930 . S
C406 C404 1.419 . S
C406 C407 1.362 . S
C407 H397 0.930 . S
C407 C400 1.409 . S
C407 C406 1.362 . S
H408 C414 0.930 . S
H409 C417 0.930 . S
H410 C418 0.930 . S
H411 C419 0.930 . S
H412 C422 0.930 . S
H413 C423 0.930 . S
C414 H408 0.930 . S
C414 C415 1.355 . S
C414 C416 1.415 . S
C415 C414 1.355 . S
C415 C417 1.419 . S
C416 C414 1.415 . S
C416 C421 1.425 . S
C416 C423 1.409 . S
C417 H409 0.930 . S
C417 C415 1.419 . S
C417 C418 1.362 . S
C418 H410 0.930 . S
C418 C417 1.362 . S
C418 C421 1.409 . S
C419 H411 0.930 . S
C419 C420 1.355 . S
C419 C421 1.415 . S
C420 C419 1.355 . S
C420 C422 1.419 . S
C421 C416 1.425 . S
C421 C418 1.409 . S
C421 C419 1.415 . S
C422 H412 0.930 . S
C422 C420 1.419 . S
C422 C423 1.362 . S
C423 H413 0.930 . S
C423 C416 1.409 . S
C423 C422 1.362 . S
H424 C430 0.930 . S
H425 C433 0.930 . S
H426 C434 0.930 . S
H427 C435 0.930 . S
H428 C438 0.930 . S
H429 C439 0.930 . S
C430 H424 0.930 . S
C430 C431 1.355 . S
C430 C432 1.415 . S
C431 C430 1.355 . S
C431 C433 1.419 . S
C432 C430 1.415 . S
C432 C437 1.425 . S
C432 C439 1.409 . S
C433 H425 0.930 . S
C433 C431 1.419 . S
C433 C434 1.362 . S
C434 H426 0.930 . S
C434 C433 1.362 . S
C434 C437 1.409 . S
C435 H427 0.930 . S
C435 C436 1.355 . S
C435 C437 1.415 . S
C436 C435 1.355 . S
C436 C438 1.419 . S
C437 C432 1.425 . S
C437 C434 1.409 . S
C437 C435 1.415 . S
C438 H428 0.930 . S
C438 C436 1.419 . S
C438 C439 1.362 . S
C439 H429 0.930 . S
C439 C432 1.409 . S
C439 C438 1.362 . S
H440 C446 0.930 . S
H441 C449 0.930 . S
H442 C450 0.930 . S
H443 C451 0.930 . S
H444 C454 0.930 . S
H445 C455 0.930 . S
C446 H440 0.930 . S
C446 C447 1.355 . S
C446 C448 1.415 . S
C447 C446 1.355 . S
C447 C449 1.419 . S
C448 C446 1.415 . S
C448 C453 1.425 . S
C448 C455 1.409 . S
C449 H441 0.930 . S
C449 C447 1.419 . S
C449 C450 1.362 . S
C450 H442 0.930 . S
C450 C449 1.362 . S
C450 C453 1.409 . S
C451 H443 0.930 . S
C451 C452 1.355 . S
C451 C453 1.415 . S
C452 C451 1.355 . S
C452 C454 1.419 . S
C453 C448 1.425 . S
C453 C450 1.409 . S
C453 C451 1.415 . S
C454 H444 0.930 . S
C454 C452 1.419 . S
C454 C455 1.362 . S
C455 H445 0.930 . S
C455 C448 1.409 . S
C455 C454 1.362 . S
H456 C462 0.930 . S
H457 C465 0.930 . S
H458 C466 0.930 . S
H459 C467 0.930 . S
H460 C470 0.930 . S
H461 C471 0.930 . S
C462 H456 0.930 . S
C462 C463 1.355 . S
C462 C464 1.415 . S
C463 C462 1.355 . S
C463 C465 1.419 . S
C464 C462 1.415 . S
C464 C469 1.425 . S
C464 C471 1.409 . S
C465 H457 0.930 . S
C465 C463 1.419 . S
C465 C466 1.362 . S
C466 H458 0.930 . S
C466 C465 1.362 . S
C466 C469 1.409 . S
C467 H459 0.930 . S
C467 C468 1.355 . S
C467 C469 1.415 . S
C468 C467 1.355 . S
C468 C470 1.419 . S
C469 C464 1.425 . S
C469 C466 1.409 . S
C469 C467 1.415 . S
C470 H460 0.930 . S
C470 C468 1.419 . S
C470 C471 1.362 . S
C471 H461 0.930 . S
C471 C464 1.409 . S
C471 C470 1.362 . S
H472 C478 0.930 . S
H473 C481 0.930 . S
H474 C482 0.930 . S
H475 C483 0.930 . S
H476 C486 0.930 . S
H477 C487 0.930 . S
C478 H472 0.930 . S
C478 C479 1.355 . S
C478 C480 1.415 . S
C479 C478 1.355 . S
C479 C481 1.419 . S
C480 C478 1.415 . S
C480 C485 1.425 . S
C480 C487 1.409 . S
C481 H473 0.930 . S
C481 C479 1.419 . S
C481 C482 1.362 . S
C482 H474 0.930 . S
C482 C481 1.362 . S
C482 C485 1.409 . S
C483 H475 0.930 . S
C483 C484 1.355 . S
C483 C485 1.415 . S
C484 C483 1.355 . S
C484 C486 1.419 . S
C485 C480 1.425 . S
C485 C482 1.409 . S
C485 C483 1.415 . S
C486 H476 0.930 . S
C486 C484 1.419 . S
C486 C487 1.362 . S
C487 H477 0.930 . S
C487 C480 1.409 . S
C487 C486 1.362 . S
H488 C494 0.930 . S
H489 C497 0.930 . S
H490 C498 0.930 . S
H491 C499 0.930 . S
H492 C502 0.930 . S
H493 C503 0.930 . S
C494 H488 0.930 . S
C494 C495 1.355 . S
C494 C496 1.415 . S
C495 C494 1.355 . S
C495 C497 1.419 . S
C496 C494 1.415 . S
C496 C501 1.425 . S
C496 C503 1.409 . S
C497 H489 0.930 . S
C497 C495 1.419 . S
C497 C498 1.362 . S
C498 H490 0.930 . S
C498 C497 1.362 . S
C498 C501 1.409 . S
C499 H491 0.930 . S
C499 C500 1.355 . S
C499 C501 1.415 . S
C500 C499 1.355 . S
C500 C502 1.419 . S
C501 C496 1.425 . S
C501 C498 1.409 . S
C501 C499 1.415 . S
C502 H492 0.930 . S
C502 C500 1.419 . S
C502 C503 1.362 . S
C503 H493 0.930 . S
C503 C496 1.409 . S
C503 C502 1.362 . S
H504 C510 0.930 . S
H505 C513 0.930 . S
H506 C514 0.930 . S
H507 C515 0.930 . S
H508 C518 0.930 . S
H509 C519 0.930 . S
C510 H504 0.930 . S
C510 C511 1.355 . S
C510 C512 1.415 . S
C511 C510 1.355 . S
C511 C513 1.419 . S
C512 C510 1.415 . S
C512 C517 1.425 . S
C512 C519 1.409 . S
C513 H505 0.930 . S
C513 C511 1.419 . S
C513 C514 1.362 . S
C514 H506 0.930 . S
C514 C513 1.362 . S
C514 C517 1.409 . S
C515 H507 0.930 . S
C515 C516 1.355 . S
C515 C517 1.415 . S
C516 C515 1.355 . S
C516 C518 1.419 . S
C517 C512 1.425 . S
C517 C514 1.409 . S
C517 C515 1.415 . S
C518 H508 0.930 . S
C518 C516 1.419 . S
C518 C519 1.362 . S
C519 H509 0.930 . S
C519 C512 1.409 . S
C519 C518 1.362 . S
H520 C526 0.930 . S
H521 C529 0.930 . S
H522 C530 0.930 . S
H523 C531 0.930 . S
H524 C534 0.930 . S
H525 C535 0.930 . S
C526 H520 0.930 . S
C526 C527 1.355 . S
C526 C528 1.415 . S
C527 C526 1.355 . S
C527 C529 1.419 . S
C528 C526 1.415 . S
C528 C533 1.425 . S
C528 C535 1.409 . S
C529 H521 0.930 . S
C529 C527 1.419 . S
C529 C530 1.362 . S
C530 H522 0.930 . S
C530 C529 1.362 . S
C530 C533 1.409 . S
C531 H523 0.930 . S
C531 C532 1.355 . S
C531 C533 1.415 . S
C532 C531 1.355 . S
C532 C534 1.419 . S
C533 C528 1.425 . S
C533 C530 1.409 . S
C533 C531 1.415 . S
C534 H524 0.930 . S
C534 C532 1.419 . S
C534 C535 1.362 . S
C535 H525 0.930 . S
C535 C528 1.409 . S
C535 C534 1.362 . S
H536 C542 0.930 . S
H537 C545 0.930 . S
H538 C546 0.930 . S
H539 C547 0.930 . S
H540 C550 0.930 . S
H541 C551 0.930 . S
C542 H536 0.930 . S
C542 C543 1.355 . S
C542 C544 1.415 . S
C543 C542 1.355 . S
C543 C545 1.419 . S
C544 C542 1.415 . S
C544 C549 1.425 . S
C544 C551 1.409 . S
C545 H537 0.930 . S
C545 C543 1.419 . S
C545 C546 1.362 . S
C546 H538 0.930 . S
C546 C545 1.362 . S
C546 C549 1.409 . S
C547 H539 0.930 . S
C547 C548 1.355 . S
C547 C549 1.415 . S
C548 C547 1.355 . S
C548 C550 1.419 . S
C549 C544 1.425 . S
C549 C546 1.409 . S
C549 C547 1.415 . S
C550 H540 0.930 . S
C550 C548 1.419 . S
C550 C551 1.362 . S
C551 H541 0.930 . S
C551 C544 1.409 . S
C551 C550 1.362 . S
H552 C558 0.930 . S
H553 C561 0.930 1_545 S
H554 C562 0.930 . S
H555 C563 0.930 . S
H556 C566 0.930 . S
H557 C567 0.930 . S
C558 H552 0.930 . S
C558 C559 1.355 1_565 S
C558 C560 1.415 . S
C559 C558 1.355 1_545 S
C559 C561 1.419 1_545 S
C560 C558 1.415 . S
C560 C565 1.425 . S
C560 C567 1.409 . S
C561 H553 0.930 1_565 S
C561 C559 1.419 1_565 S
C561 C562 1.362 . S
C562 H554 0.930 . S
C562 C561 1.362 . S
C562 C565 1.409 . S
C563 H555 0.930 . S
C563 C564 1.355 . S
C563 C565 1.415 . S
C564 C563 1.355 . S
C564 C566 1.419 . S
C565 C560 1.425 . S
C565 C562 1.409 . S
C565 C563 1.415 . S
C566 H556 0.930 . S
C566 C564 1.419 . S
C566 C567 1.362 . S
C567 H557 0.930 . S
C567 C560 1.409 . S
C567 C566 1.362 . S
H568 C574 0.930 . S
H569 C577 0.930 . S
H570 C578 0.930 . S
H571 C579 0.930 1_655 S
H572 C582 0.930 . S
H573 C583 0.930 . S
C574 H568 0.930 . S
C574 C575 1.355 . S
C574 C576 1.415 . S
C575 C574 1.355 . S
C575 C577 1.419 1_565 S
C576 C574 1.415 . S
C576 C581 1.425 . S
C576 C583 1.409 . S
C577 H569 0.930 . S
C577 C575 1.419 1_545 S
C577 C578 1.362 1_545 S
C578 H570 0.930 . S
C578 C577 1.362 1_565 S
C578 C581 1.409 . S
C579 H571 0.930 1_455 S
C579 C580 1.355 1_455 S
C579 C581 1.415 . S
C580 C579 1.355 1_655 S
C580 C582 1.419 1_655 S
C581 C576 1.425 . S
C581 C578 1.409 . S
C581 C579 1.415 . S
C582 H572 0.930 . S
C582 C580 1.419 1_455 S
C582 C583 1.362 . S
C583 H573 0.930 . S
C583 C576 1.409 . S
C583 C582 1.362 . S
H584 C590 0.930 . S
H585 C593 0.930 . S
H586 C594 0.930 . S
H587 C595 0.930 . S
H588 C598 0.930 . S
H589 C599 0.930 . S
C590 H584 0.930 . S
C590 C591 1.355 . S
C590 C592 1.415 . S
C591 C590 1.355 . S
C591 C593 1.419 1_455 S
C592 C590 1.415 . S
C592 C597 1.425 . S
C592 C599 1.409 . S
C593 H585 0.930 . S
C593 C591 1.419 1_655 S
C593 C594 1.362 1_655 S
C594 H586 0.930 . S
C594 C593 1.362 1_455 S
C594 C597 1.409 . S
C595 H587 0.930 . S
C595 C596 1.355 . S
C595 C597 1.415 . S
C596 C595 1.355 . S
C596 C598 1.419 . S
C597 C592 1.425 . S
C597 C594 1.409 . S
C597 C595 1.415 . S
C598 H588 0.930 . S
C598 C596 1.419 . S
C598 C599 1.362 . S
C599 H589 0.930 . S
C599 C592 1.409 . S
C599 C598 1.362 . S
H600 C606 0.930 . S
H601 C609 0.930 . S
H602 C610 0.930 . S
H603 C611 0.930 . S
H604 C614 0.930 1_655 S
H605 C615 0.930 . S
C606 H600 0.930 . S
C606 C607 1.355 . S
C606 C608 1.415 . S
C607 C606 1.355 . S
C607 C609 1.419 . S
C608 C606 1.415 . S
C608 C613 1.425 . S
C608 C615 1.409 . S
C609 H601 0.930 . S
C609 C607 1.419 . S
C609 C610 1.362 . S
C610 H602 0.930 . S
C610 C609 1.362 . S
C610 C613 1.409 . S
C611 H603 0.930 . S
C611 C612 1.355 1_455 S
C611 C613 1.415 . S
C612 C611 1.355 1_655 S
C612 C614 1.419 1_655 S
C613 C608 1.425 . S
C613 C610 1.409 . S
C613 C611 1.415 . S
C614 H604 0.930 1_455 S
C614 C612 1.419 1_455 S
C614 C615 1.362 . S
C615 H605 0.930 . S
C615 C608 1.409 . S
C615 C614 1.362 . S
H616 C622 0.930 . S
H617 C625 0.930 . S
H618 C626 0.930 . S
H619 C627 0.930 . S
H620 C630 0.930 1_545 S
H621 C631 0.930 . S
C622 H616 0.930 . S
C622 C623 1.355 . S
C622 C624 1.415 . S
C623 C622 1.355 . S
C623 C625 1.419 . S
C624 C622 1.415 . S
C624 C629 1.425 . S
C624 C631 1.409 . S
C625 H617 0.930 . S
C625 C623 1.419 . S
C625 C626 1.362 . S
C626 H618 0.930 . S
C626 C625 1.362 . S
C626 C629 1.409 . S
C627 H619 0.930 . S
C627 C628 1.355 . S
C627 C629 1.415 . S
C628 C627 1.355 . S
C628 C630 1.419 . S
C629 C624 1.425 . S
C629 C626 1.409 . S
C629 C627 1.415 . S
C630 H620 0.930 1_565 S
C630 C628 1.419 . S
C630 C631 1.362 . S
C631 H621 0.930 . S
C631 C624 1.409 . S
C631 C630 1.362 . S
H632 C638 0.930 1_545 S
H633 C641 0.930 . S
H634 C642 0.930 . S
H635 C643 0.935 . S
H636 C646 0.930 . S
H637 C647 0.930 . S
C638 H632 0.930 1_565 S
C638 C639 1.355 1_565 S
C638 C640 1.415 . S
C639 C638 1.355 1_545 S
C639 C641 1.419 1_545 S
C640 C638 1.415 . S
C640 C645 1.425 . S
C640 C647 1.409 . S
C641 H633 0.930 . S
C641 C639 1.419 1_565 S
C641 C642 1.362 . S
C642 H634 0.930 . S
C642 C641 1.362 . S
C642 C645 1.409 . S
C643 H635 0.935 . S
C643 C644 1.355 . S
C643 C645 1.415 . S
C644 C643 1.355 . S
C644 C646 1.419 . S
C645 C640 1.425 . S
C645 C642 1.409 . S
C645 C643 1.415 . S
C646 H636 0.930 . S
C646 C644 1.419 . S
C646 C647 1.362 . S
C647 H637 0.930 . S
C647 C640 1.409 . S
C647 C646 1.362 . S
H648 C654 0.930 . S
H649 C657 0.930 . S
H650 C658 0.930 . S
H651 C659 0.930 . S
H652 C662 0.930 . S
H653 C663 0.930 . S
C654 H648 0.930 . S
C654 C655 1.355 . S
C654 C656 1.415 . S
C655 C654 1.355 . S
C655 C657 1.419 . S
C656 C654 1.415 . S
C656 C661 1.425 . S
C656 C663 1.409 . S
C657 H649 0.930 . S
C657 C655 1.419 . S
C657 C658 1.362 . S
C658 H650 0.930 . S
C658 C657 1.362 . S
C658 C661 1.409 . S
C659 H651 0.930 . S
C659 C660 1.355 . S
C659 C661 1.415 . S
C660 C659 1.355 . S
C660 C662 1.419 . S
C661 C656 1.425 . S
C661 C658 1.409 . S
C661 C659 1.415 . S
C662 H652 0.930 . S
C662 C660 1.419 . S
C662 C663 1.362 . S
C663 H653 0.930 . S
C663 C656 1.409 . S
C663 C662 1.362 . S
H664 C670 0.930 . S
H665 C673 0.930 . S
H666 C674 0.930 . S
H667 C675 0.930 . S
H668 C678 0.930 . S
H669 C679 0.930 . S
C670 H664 0.930 . S
C670 C671 1.355 . S
C670 C672 1.415 . S
C671 C670 1.355 . S
C671 C673 1.419 . S
C672 C670 1.415 . S
C672 C677 1.425 . S
C672 C679 1.409 . S
C673 H665 0.930 . S
C673 C671 1.419 . S
C673 C674 1.362 . S
C674 H666 0.930 . S
C674 C673 1.362 . S
C674 C677 1.409 . S
C675 H667 0.930 . S
C675 C676 1.355 . S
C675 C677 1.415 . S
C676 C675 1.355 . S
C676 C678 1.419 . S
C677 C672 1.425 . S
C677 C674 1.409 . S
C677 C675 1.415 . S
C678 H668 0.930 . S
C678 C676 1.419 . S
C678 C679 1.362 . S
C679 H669 0.930 . S
C679 C672 1.409 . S
C679 C678 1.362 . S
H680 C686 0.930 . S
H681 C689 0.930 . S
H682 C690 0.930 . S
H683 C691 0.930 . S
H684 C694 0.930 . S
H685 C695 0.930 . S
C686 H680 0.930 . S
C686 C687 1.355 . S
C686 C688 1.415 . S
C687 C686 1.355 . S
C687 C689 1.419 . S
C688 C686 1.415 . S
C688 C693 1.425 . S
C688 C695 1.409 . S
C689 H681 0.930 . S
C689 C687 1.419 . S
C689 C690 1.362 . S
C690 H682 0.930 . S
C690 C689 1.362 . S
C690 C693 1.409 . S
C691 H683 0.930 . S
C691 C692 1.355 . S
C691 C693 1.415 . S
C692 C691 1.355 . S
C692 C694 1.419 . S
C693 C688 1.425 . S
C693 C690 1.409 . S
C693 C691 1.415 . S
C694 H684 0.930 . S
C694 C692 1.419 . S
C694 C695 1.362 . S
C695 H685 0.930 . S
C695 C688 1.409 . S
C695 C694 1.362 . S
H696 C702 0.930 . S
H697 C705 0.930 . S
H698 C706 0.930 . S
H699 C707 0.930 . S
H700 C710 0.930 . S
H701 C711 0.930 . S
C702 H696 0.930 . S
C702 C703 1.355 . S
C702 C704 1.415 . S
C703 C702 1.355 . S
C703 C705 1.419 . S
C704 C702 1.415 . S
C704 C709 1.425 . S
C704 C711 1.409 . S
C705 H697 0.930 . S
C705 C703 1.419 . S
C705 C706 1.362 . S
C706 H698 0.930 . S
C706 C705 1.362 . S
C706 C709 1.409 . S
C707 H699 0.930 . S
C707 C708 1.355 . S
C707 C709 1.415 . S
C708 C707 1.355 . S
C708 C710 1.419 . S
C709 C704 1.425 . S
C709 C706 1.409 . S
C709 C707 1.415 . S
C710 H700 0.930 . S
C710 C708 1.419 . S
C710 C711 1.362 . S
C711 H701 0.930 . S
C711 C704 1.409 . S
C711 C710 1.362 . S
H712 C718 0.930 . S
H713 C721 0.930 . S
H714 C722 0.930 . S
H715 C723 0.930 . S
H716 C726 0.930 . S
H717 C727 0.930 . S
C718 H712 0.930 . S
C718 C719 1.355 . S
C718 C720 1.415 . S
C719 C718 1.355 . S
C719 C721 1.419 . S
C720 C718 1.415 . S
C720 C725 1.425 . S
C720 C727 1.409 . S
C721 H713 0.930 . S
C721 C719 1.419 . S
C721 C722 1.362 . S
C722 H714 0.930 . S
C722 C721 1.362 . S
C722 C725 1.409 . S
C723 H715 0.930 . S
C723 C724 1.355 . S
C723 C725 1.415 . S
C724 C723 1.355 . S
C724 C726 1.419 . S
C725 C720 1.425 . S
C725 C722 1.409 . S
C725 C723 1.415 . S
C726 H716 0.930 . S
C726 C724 1.419 . S
C726 C727 1.362 . S
C727 H717 0.930 . S
C727 C720 1.409 . S
C727 C726 1.362 . S
H728 C734 0.930 . S
H729 C737 0.930 . S
H730 C738 0.930 . S
H731 C739 0.930 . S
H732 C742 0.930 . S
H733 C743 0.930 . S
C734 H728 0.930 . S
C734 C735 1.355 . S
C734 C736 1.415 . S
C735 C734 1.355 . S
C735 C737 1.419 . S
C736 C734 1.415 . S
C736 C741 1.425 . S
C736 C743 1.409 . S
C737 H729 0.930 . S
C737 C735 1.419 . S
C737 C738 1.362 . S
C738 H730 0.930 . S
C738 C737 1.362 . S
C738 C741 1.409 . S
C739 H731 0.930 . S
C739 C740 1.355 . S
C739 C741 1.415 . S
C740 C739 1.355 . S
C740 C742 1.419 . S
C741 C736 1.425 . S
C741 C738 1.409 . S
C741 C739 1.415 . S
C742 H732 0.930 . S
C742 C740 1.419 . S
C742 C743 1.362 . S
C743 H733 0.930 . S
C743 C736 1.409 . S
C743 C742 1.362 . S
H744 C750 0.930 . S
H745 C753 0.930 . S
H746 C754 0.930 . S
H747 C755 0.930 . S
H748 C758 0.930 . S
H749 C759 0.930 . S
C750 H744 0.930 . S
C750 C751 1.355 . S
C750 C752 1.415 . S
C751 C750 1.355 . S
C751 C753 1.419 . S
C752 C750 1.415 . S
C752 C757 1.425 . S
C752 C759 1.409 . S
C753 H745 0.930 . S
C753 C751 1.419 . S
C753 C754 1.362 . S
C754 H746 0.930 . S
C754 C753 1.362 . S
C754 C757 1.409 . S
C755 H747 0.930 . S
C755 C756 1.355 . S
C755 C757 1.415 . S
C756 C755 1.355 . S
C756 C758 1.419 . S
C757 C752 1.425 . S
C757 C754 1.409 . S
C757 C755 1.415 . S
C758 H748 0.930 . S
C758 C756 1.419 . S
C758 C759 1.362 . S
C759 H749 0.930 . S
C759 C752 1.409 . S
C759 C758 1.362 . S
H760 C766 0.930 . S
H761 C769 0.930 . S
H762 C770 0.930 . S
H763 C771 0.930 . S
H764 C774 0.930 . S
H765 C775 0.930 . S
C766 H760 0.930 . S
C766 C767 1.355 . S
C766 C768 1.415 . S
C767 C766 1.355 . S
C767 C769 1.419 . S
C768 C766 1.415 . S
C768 C773 1.425 . S
C768 C775 1.409 . S
C769 H761 0.930 . S
C769 C767 1.419 . S
C769 C770 1.362 . S
C770 H762 0.930 . S
C770 C769 1.362 . S
C770 C773 1.409 . S
C771 H763 0.930 . S
C771 C772 1.355 . S
C771 C773 1.415 . S
C772 C771 1.355 . S
C772 C774 1.419 . S
C773 C768 1.425 . S
C773 C770 1.409 . S
C773 C771 1.415 . S
C774 H764 0.930 . S
C774 C772 1.419 . S
C774 C775 1.362 . S
C775 H765 0.930 . S
C775 C768 1.409 . S
C775 C774 1.362 . S
H776 C782 0.930 . S
H777 C785 0.930 . S
H778 C786 0.930 . S
H779 C787 0.930 . S
H780 C790 0.930 . S
H781 C791 0.930 . S
C782 H776 0.930 . S
C782 C783 1.355 . S
C782 C784 1.415 . S
C783 C782 1.355 . S
C783 C785 1.419 . S
C784 C782 1.415 . S
C784 C789 1.425 . S
C784 C791 1.409 . S
C785 H777 0.930 . S
C785 C783 1.419 . S
C785 C786 1.362 . S
C786 H778 0.930 . S
C786 C785 1.362 . S
C786 C789 1.409 . S
C787 H779 0.930 . S
C787 C788 1.355 . S
C787 C789 1.415 . S
C788 C787 1.355 . S
C788 C790 1.419 . S
C789 C784 1.425 . S
C789 C786 1.409 . S
C789 C787 1.415 . S
C790 H780 0.930 . S
C790 C788 1.419 . S
C790 C791 1.362 . S
C791 H781 0.930 . S
C791 C784 1.409 . S
C791 C790 1.362 . S
H792 C798 0.930 . S
H793 C801 0.930 . S
H794 C802 0.930 . S
H795 C803 0.930 . S
H796 C806 0.930 . S
H797 C807 0.930 . S
C798 H792 0.930 . S
C798 C799 1.355 . S
C798 C800 1.415 . S
C799 C798 1.355 . S
C799 C801 1.419 . S
C800 C798 1.415 . S
C800 C805 1.425 . S
C800 C807 1.409 . S
C801 H793 0.930 . S
C801 C799 1.419 . S
C801 C802 1.362 . S
C802 H794 0.930 . S
C802 C801 1.362 . S
C802 C805 1.409 . S
C803 H795 0.930 . S
C803 C804 1.355 . S
C803 C805 1.415 . S
C804 C803 1.355 . S
C804 C806 1.419 . S
C805 C800 1.425 . S
C805 C802 1.409 . S
C805 C803 1.415 . S
C806 H796 0.930 . S
C806 C804 1.419 . S
C806 C807 1.362 . S
C807 H797 0.930 . S
C807 C800 1.409 . S
C807 C806 1.362 . S
H808 C814 0.930 . S
H809 C817 0.930 . S
H810 C818 0.930 . S
H811 C819 0.930 . S
H812 C822 0.930 . S
H813 C823 0.930 . S
C814 H808 0.930 . S
C814 C815 1.355 . S
C814 C816 1.415 . S
C815 C814 1.355 . S
C815 C817 1.419 . S
C816 C814 1.415 . S
C816 C821 1.425 . S
C816 C823 1.409 . S
C817 H809 0.930 . S
C817 C815 1.419 . S
C817 C818 1.362 . S
C818 H810 0.930 . S
C818 C817 1.362 . S
C818 C821 1.409 . S
C819 H811 0.930 . S
C819 C820 1.355 . S
C819 C821 1.415 . S
C820 C819 1.355 . S
C820 C822 1.419 . S
C821 C816 1.425 . S
C821 C818 1.409 . S
C821 C819 1.415 . S
C822 H812 0.930 . S
C822 C820 1.419 . S
C822 C823 1.362 . S
C823 H813 0.930 . S
C823 C816 1.409 . S
C823 C822 1.362 . S
H824 C830 0.930 . S
H825 C833 0.930 1_556 S
H826 C834 0.930 . S
H827 C835 0.930 . S
H828 C838 0.930 . S
H829 C839 0.930 . S
C830 H824 0.930 . S
C830 C831 1.355 . S
C830 C832 1.415 . S
C831 C830 1.355 . S
C831 C833 1.419 . S
C832 C830 1.415 . S
C832 C837 1.425 . S
C832 C839 1.409 . S
C833 H825 0.930 1_554 S
C833 C831 1.419 . S
C833 C834 1.362 . S
C834 H826 0.930 . S
C834 C833 1.362 . S
C834 C837 1.409 . S
C835 H827 0.930 . S
C835 C836 1.355 . S
C835 C837 1.415 . S
C836 C835 1.355 . S
C836 C838 1.419 . S
C837 C832 1.425 . S
C837 C834 1.409 . S
C837 C835 1.415 . S
C838 H828 0.930 . S
C838 C836 1.419 . S
C838 C839 1.362 . S
C839 H829 0.930 . S
C839 C832 1.409 . S
C839 C838 1.362 . S
H840 C846 0.930 . S
H841 C849 0.930 . S
H842 C850 0.930 . S
H843 C851 0.930 . S
H844 C854 0.930 . S
H845 C855 0.930 . S
C846 H840 0.930 . S
C846 C847 1.355 . S
C846 C848 1.415 . S
C847 C846 1.355 . S
C847 C849 1.419 . S
C848 C846 1.415 . S
C848 C853 1.425 . S
C848 C855 1.409 . S
C849 H841 0.930 . S
C849 C847 1.419 . S
C849 C850 1.362 . S
C850 H842 0.930 . S
C850 C849 1.362 . S
C850 C853 1.409 . S
C851 H843 0.930 . S
C851 C852 1.355 . S
C851 C853 1.415 . S
C852 C851 1.355 . S
C852 C854 1.419 . S
C853 C848 1.425 . S
C853 C850 1.409 . S
C853 C851 1.415 . S
C854 H844 0.930 . S
C854 C852 1.419 . S
C854 C855 1.362 . S
C855 H845 0.930 . S
C855 C848 1.409 . S
C855 C854 1.362 . S
H856 C862 0.930 . S
H857 C865 0.930 . S
H858 C866 0.930 . S
H859 C867 0.930 . S
H860 C870 0.930 . S
H861 C871 0.930 . S
C862 H856 0.930 . S
C862 C863 1.355 . S
C862 C864 1.415 . S
C863 C862 1.355 . S
C863 C865 1.419 . S
C864 C862 1.415 . S
C864 C869 1.425 . S
C864 C871 1.409 . S
C865 H857 0.930 . S
C865 C863 1.419 . S
C865 C866 1.362 . S
C866 H858 0.930 . S
C866 C865 1.362 . S
C866 C869 1.409 . S
C867 H859 0.930 . S
C867 C868 1.355 . S
C867 C869 1.415 . S
C868 C867 1.355 . S
C868 C870 1.419 . S
C869 C864 1.425 . S
C869 C866 1.409 . S
C869 C867 1.415 . S
C870 H860 0.930 . S
C870 C868 1.419 . S
C870 C871 1.362 . S
C871 H861 0.930 . S
C871 C864 1.409 . S
C871 C870 1.362 . S
H872 C878 0.930 . S
H873 C881 0.930 . S
H874 C882 0.930 . S
H875 C883 0.930 . S
H876 C886 0.930 . S
H877 C887 0.930 . S
C878 H872 0.930 . S
C878 C879 1.355 . S
C878 C880 1.415 . S
C879 C878 1.355 . S
C879 C881 1.419 . S
C880 C878 1.415 . S
C880 C885 1.425 . S
C880 C887 1.409 . S
C881 H873 0.930 . S
C881 C879 1.419 . S
C881 C882 1.362 . S
C882 H874 0.930 . S
C882 C881 1.362 . S
C882 C885 1.409 . S
C883 H875 0.930 . S
C883 C884 1.355 . S
C883 C885 1.415 . S
C884 C883 1.355 . S
C884 C886 1.419 . S
C885 C880 1.425 . S
C885 C882 1.409 . S
C885 C883 1.415 . S
C886 H876 0.930 . S
C886 C884 1.419 . S
C886 C887 1.362 . S
C887 H877 0.930 . S
C887 C880 1.409 . S
C887 C886 1.362 . S
H888 C894 0.930 . S
H889 C897 0.930 . S
H890 C898 0.930 . S
H891 C899 0.930 . S
H892 C902 0.930 . S
H893 C903 0.930 . S
C894 H888 0.930 . S
C894 C895 1.355 . S
C894 C896 1.415 . S
C895 C894 1.355 . S
C895 C897 1.419 . S
C896 C894 1.415 . S
C896 C901 1.425 . S
C896 C903 1.409 . S
C897 H889 0.930 . S
C897 C895 1.419 . S
C897 C898 1.362 . S
C898 H890 0.930 . S
C898 C897 1.362 . S
C898 C901 1.409 . S
C899 H891 0.930 . S
C899 C900 1.355 . S
C899 C901 1.415 . S
C900 C899 1.355 . S
C900 C902 1.419 . S
C901 C896 1.425 . S
C901 C898 1.409 . S
C901 C899 1.415 . S
C902 H892 0.930 . S
C902 C900 1.419 . S
C902 C903 1.362 . S
C903 H893 0.930 . S
C903 C896 1.409 . S
C903 C902 1.362 . S
H904 C910 0.930 . S
H905 C913 0.930 . S
H906 C914 0.930 . S
H907 C915 0.930 . S
H908 C918 0.930 . S
H909 C919 0.930 . S
C910 H904 0.930 . S
C910 C911 1.355 . S
C910 C912 1.415 . S
C911 C910 1.355 . S
C911 C913 1.419 . S
C912 C910 1.415 . S
C912 C917 1.425 . S
C912 C919 1.409 . S
C913 H905 0.930 . S
C913 C911 1.419 . S
C913 C914 1.362 . S
C914 H906 0.930 . S
C914 C913 1.362 . S
C914 C917 1.409 . S
C915 H907 0.930 . S
C915 C916 1.355 . S
C915 C917 1.415 . S
C916 C915 1.355 . S
C916 C918 1.419 . S
C917 C912 1.425 . S
C917 C914 1.409 . S
C917 C915 1.415 . S
C918 H908 0.930 . S
C918 C916 1.419 . S
C918 C919 1.362 . S
C919 H909 0.930 . S
C919 C912 1.409 . S
C919 C918 1.362 . S
H920 C926 0.930 . S
H921 C929 0.930 . S
H922 C930 0.930 . S
H923 C931 0.930 . S
H924 C934 0.930 . S
H925 C935 0.930 . S
C926 H920 0.930 . S
C926 C927 1.355 . S
C926 C928 1.415 . S
C927 C926 1.355 . S
C927 C929 1.419 . S
C928 C926 1.415 . S
C928 C933 1.425 . S
C928 C935 1.409 . S
C929 H921 0.930 . S
C929 C927 1.419 . S
C929 C930 1.362 . S
C930 H922 0.930 . S
C930 C929 1.362 . S
C930 C933 1.409 . S
C931 H923 0.930 . S
C931 C932 1.355 . S
C931 C933 1.415 . S
C932 C931 1.355 . S
C932 C934 1.419 . S
C933 C928 1.425 . S
C933 C930 1.409 . S
C933 C931 1.415 . S
C934 H924 0.930 . S
C934 C932 1.419 . S
C934 C935 1.362 . S
C935 H925 0.930 . S
C935 C928 1.409 . S
C935 C934 1.362 . S
H936 C942 0.930 . S
H937 C945 0.930 . S
H938 C946 0.909 1_554 S
H939 C947 0.930 1_554 S
H940 C950 0.930 . S
H941 C951 0.930 . S
C942 H936 0.930 . S
C942 C943 1.355 . S
C942 C944 1.415 1_565 S
C943 C942 1.355 . S
C943 C945 1.419 . S
C944 C942 1.415 1_545 S
C944 C949 1.425 1_545 S
C944 C951 1.409 . S
C945 H937 0.930 . S
C945 C943 1.419 . S
C945 C946 1.362 . S
C946 H938 0.909 1_556 S
C946 C945 1.362 . S
C946 C949 1.409 . S
C947 H939 0.930 1_556 S
C947 C948 1.355 . S
C947 C949 1.415 1_545 S
C948 C947 1.355 . S
C948 C950 1.419 . S
C949 C944 1.425 1_565 S
C949 C946 1.409 . S
C949 C947 1.415 1_565 S
C950 H940 0.930 . S
C950 C948 1.419 . S
C950 C951 1.362 . S
C951 H941 0.930 . S
C951 C944 1.409 . S
C951 C950 1.362 . S
H952 C958 0.930 1_455 S
H953 C961 0.930 . S
H954 C962 0.930 . S
H955 C963 0.930 . S
H956 C966 0.930 . S
H957 C967 0.930 . S
C958 H952 0.930 1_655 S
C958 C959 1.355 . S
C958 C960 1.415 1_655 S
C959 C958 1.355 . S
C959 C961 1.419 . S
C960 C958 1.415 1_455 S
C960 C965 1.425 1_455 S
C960 C967 1.409 . S
C961 H953 0.930 . S
C961 C959 1.419 . S
C961 C962 1.362 . S
C962 H954 0.930 . S
C962 C961 1.362 . S
C962 C965 1.409 . S
C963 H955 0.930 . S
C963 C964 1.355 . S
C963 C965 1.415 1_455 S
C964 C963 1.355 . S
C964 C966 1.419 . S
C965 C960 1.425 1_655 S
C965 C962 1.409 . S
C965 C963 1.415 1_655 S
C966 H956 0.930 . S
C966 C964 1.419 . S
C966 C967 1.362 . S
C967 H957 0.930 . S
C967 C960 1.409 . S
C967 C966 1.362 . S
H968 C974 0.930 . S
H969 C977 0.930 . S
H970 C978 0.930 . S
H971 C979 0.930 . S
H972 C982 0.930 . S
H973 C983 0.930 1_554 S
C974 H968 0.930 . S
C974 C975 1.355 . S
C974 C976 1.415 . S
C975 C974 1.355 . S
C975 C977 1.419 . S
C976 C974 1.415 . S
C976 C981 1.425 . S
C976 C983 1.409 . S
C977 H969 0.930 . S
C977 C975 1.419 . S
C977 C978 1.362 . S
C978 H970 0.930 . S
C978 C977 1.362 . S
C978 C981 1.409 . S
C979 H971 0.930 . S
C979 C980 1.355 . S
C979 C981 1.415 . S
C980 C979 1.355 . S
C980 C982 1.419 1_556 S
C981 C976 1.425 . S
C981 C978 1.409 . S
C981 C979 1.415 . S
C982 H972 0.930 . S
C982 C980 1.419 1_554 S
C982 C983 1.362 1_554 S
C983 H973 0.930 1_556 S
C983 C976 1.409 . S
C983 C982 1.362 1_556 S
H984 C990 0.930 . S
H985 C993 0.930 1_455 S
H986 C994 0.930 . S
H987 C995 0.930 . S
H988 C998 0.930 . S
H989 C999 0.930 . S
C990 H984 0.930 . S
C990 C991 1.355 . S
C990 C992 1.415 . S
C991 C990 1.355 . S
C991 C993 1.419 . S
C992 C990 1.415 . S
C992 C997 1.425 1_655 S
C992 C999 1.409 . S
C993 H985 0.930 1_655 S
C993 C991 1.419 . S
C993 C994 1.362 1_655 S
C994 H986 0.930 . S
C994 C993 1.362 1_455 S
C994 C997 1.409 . S
C995 H987 0.930 . S
C995 C996 1.355 . S
C995 C997 1.415 . S
C996 C995 1.355 . S
C996 C998 1.419 . S
C997 C992 1.425 1_455 S
C997 C994 1.409 . S
C997 C995 1.415 . S
C998 H988 0.930 . S
C998 C996 1.419 . S
C998 C999 1.362 1_455 S
C999 H989 0.930 . S
C999 C992 1.409 . S
C999 C998 1.362 1_655 S
H1000 C1006 0.930 . S
H1001 C1009 0.930 . S
H1002 C1010 0.930 . S
H1003 C1011 0.930 . S
H1004 C1014 0.930 . S
H1005 C1015 0.930 . S
C1006 H1000 0.930 . S
C1006 C1007 1.355 . S
C1006 C1008 1.415 . S
C1007 C1006 1.355 . S
C1007 C1009 1.419 . S
C1008 C1006 1.415 . S
C1008 C1013 1.425 . S
C1008 C1015 1.409 . S
C1009 H1001 0.930 . S
C1009 C1007 1.419 . S
C1009 C1010 1.362 . S
C1010 H1002 0.930 . S
C1010 C1009 1.362 . S
C1010 C1013 1.409 . S
C1011 H1003 0.930 . S
C1011 C1012 1.355 . S
C1011 C1013 1.415 . S
C1012 C1011 1.355 . S
C1012 C1014 1.419 . S
C1013 C1008 1.425 . S
C1013 C1010 1.409 . S
C1013 C1011 1.415 . S
C1014 H1004 0.930 . S
C1014 C1012 1.419 . S
C1014 C1015 1.362 . S
C1015 H1005 0.930 . S
C1015 C1008 1.409 . S
C1015 C1014 1.362 . S
H1016 C1022 0.930 . S
H1017 C1025 0.930 . S
H1018 C1026 0.930 . S
H1019 C1027 0.930 . S
H1020 C1030 0.930 . S
H1021 C1031 0.930 . S
C1022 H1016 0.930 . S
C1022 C1023 1.355 . S
C1022 C1024 1.415 1_565 S
C1023 C1022 1.355 . S
C1023 C1025 1.419 . S
C1024 C1022 1.415 1_545 S
C1024 C1029 1.425 1_545 S
C1024 C1031 1.409 . S
C1025 H1017 0.930 . S
C1025 C1023 1.419 . S
C1025 C1026 1.362 . S
C1026 H1018 0.930 . S
C1026 C1025 1.362 . S
C1026 C1029 1.409 . S
C1027 H1019 0.930 . S
C1027 C1028 1.355 . S
C1027 C1029 1.415 1_545 S
C1028 C1027 1.355 . S
C1028 C1030 1.419 . S
C1029 C1024 1.425 1_565 S
C1029 C1026 1.409 . S
C1029 C1027 1.415 1_565 S
C1030 H1020 0.930 . S
C1030 C1028 1.419 . S
C1030 C1031 1.362 . S
C1031 H1021 0.930 . S
C1031 C1024 1.409 . S
C1031 C1030 1.362 . S
H1032 C1038 0.930 . S
H1033 C1041 0.930 . S
H1034 C1042 0.930 . S
H1035 C1043 0.930 . S
H1036 C1046 0.930 . S
H1037 C1047 0.930 . S
C1038 H1032 0.930 . S
C1038 C1039 1.355 . S
C1038 C1040 1.415 . S
C1039 C1038 1.355 . S
C1039 C1041 1.419 . S
C1040 C1038 1.415 . S
C1040 C1045 1.425 . S
C1040 C1047 1.409 . S
C1041 H1033 0.930 . S
C1041 C1039 1.419 . S
C1041 C1042 1.362 . S
C1042 H1034 0.930 . S
C1042 C1041 1.362 . S
C1042 C1045 1.409 . S
C1043 H1035 0.930 . S
C1043 C1044 1.355 . S
C1043 C1045 1.415 . S
C1044 C1043 1.355 . S
C1044 C1046 1.419 . S
C1045 C1040 1.425 . S
C1045 C1042 1.409 . S
C1045 C1043 1.415 . S
C1046 H1036 0.930 . S
C1046 C1044 1.419 . S
C1046 C1047 1.362 . S
C1047 H1037 0.930 . S
C1047 C1040 1.409 . S
C1047 C1046 1.362 . S
H1048 C1054 0.930 . S
H1049 C1057 0.930 . S
H1050 C1058 0.930 . S
H1051 C1059 0.930 . S
H1052 C1062 0.930 . S
H1053 C1063 0.930 . S
C1054 H1048 0.930 . S
C1054 C1055 1.355 . S
C1054 C1056 1.415 . S
C1055 C1054 1.355 . S
C1055 C1057 1.419 . S
C1056 C1054 1.415 . S
C1056 C1061 1.425 . S
C1056 C1063 1.409 . S
C1057 H1049 0.930 . S
C1057 C1055 1.419 . S
C1057 C1058 1.362 . S
C1058 H1050 0.930 . S
C1058 C1057 1.362 . S
C1058 C1061 1.409 . S
C1059 H1051 0.930 . S
C1059 C1060 1.355 . S
C1059 C1061 1.415 . S
C1060 C1059 1.355 . S
C1060 C1062 1.419 . S
C1061 C1056 1.425 . S
C1061 C1058 1.409 . S
C1061 C1059 1.415 . S
C1062 H1052 0.930 . S
C1062 C1060 1.419 . S
C1062 C1063 1.362 . S
C1063 H1053 0.930 . S
C1063 C1056 1.409 . S
C1063 C1062 1.362 . S
H1064 C1070 0.930 . S
H1065 C1073 0.930 . S
H1066 C1074 0.930 . S
H1067 C1075 0.930 . S
H1068 C1078 0.930 . S
H1069 C1079 0.930 . S
C1070 H1064 0.930 . S
C1070 C1071 1.355 . S
C1070 C1072 1.415 . S
C1071 C1070 1.355 . S
C1071 C1073 1.419 . S
C1072 C1070 1.415 . S
C1072 C1077 1.425 . S
C1072 C1079 1.409 . S
C1073 H1065 0.930 . S
C1073 C1071 1.419 . S
C1073 C1074 1.362 . S
C1074 H1066 0.930 . S
C1074 C1073 1.362 . S
C1074 C1077 1.409 . S
C1075 H1067 0.930 . S
C1075 C1076 1.355 . S
C1075 C1077 1.415 . S
C1076 C1075 1.355 . S
C1076 C1078 1.419 . S
C1077 C1072 1.425 . S
C1077 C1074 1.409 . S
C1077 C1075 1.415 . S
C1078 H1068 0.930 . S
C1078 C1076 1.419 . S
C1078 C1079 1.362 . S
C1079 H1069 0.930 . S
C1079 C1072 1.409 . S
C1079 C1078 1.362 . S
H1080 C1086 0.930 . S
H1081 C1089 0.930 1_545 S
H1082 C1090 0.930 . S
H1083 C1091 0.930 . S
H1084 C1094 0.930 . S
H1085 C1095 0.930 . S
C1086 H1080 0.930 . S
C1086 C1087 1.355 . S
C1086 C1088 1.415 . S
C1087 C1086 1.355 . S
C1087 C1089 1.419 . S
C1088 C1086 1.415 . S
C1088 C1093 1.425 . S
C1088 C1095 1.409 . S
C1089 H1081 0.930 1_565 S
C1089 C1087 1.419 . S
C1089 C1090 1.362 . S
C1090 H1082 0.930 . S
C1090 C1089 1.362 . S
C1090 C1093 1.409 . S
C1091 H1083 0.930 . S
C1091 C1092 1.355 . S
C1091 C1093 1.415 . S
C1092 C1091 1.355 . S
C1092 C1094 1.419 . S
C1093 C1088 1.425 . S
C1093 C1090 1.409 . S
C1093 C1091 1.415 . S
C1094 H1084 0.930 . S
C1094 C1092 1.419 . S
C1094 C1095 1.362 . S
C1095 H1085 0.930 . S
C1095 C1088 1.409 . S
C1095 C1094 1.362 . S
H1096 C1102 0.930 . S
H1097 C1105 0.930 . S
H1098 C1106 0.930 . S
H1099 C1107 0.930 . S
H1100 C1110 0.930 . S
H1101 C1111 0.930 . S
C1102 H1096 0.930 . S
C1102 C1103 1.355 . S
C1102 C1104 1.415 . S
C1103 C1102 1.355 . S
C1103 C1105 1.419 . S
C1104 C1102 1.415 . S
C1104 C1109 1.425 . S
C1104 C1111 1.409 . S
C1105 H1097 0.930 . S
C1105 C1103 1.419 . S
C1105 C1106 1.362 . S
C1106 H1098 0.930 . S
C1106 C1105 1.362 . S
C1106 C1109 1.409 . S
C1107 H1099 0.930 . S
C1107 C1108 1.355 . S
C1107 C1109 1.415 . S
C1108 C1107 1.355 . S
C1108 C1110 1.419 . S
C1109 C1104 1.425 . S
C1109 C1106 1.409 . S
C1109 C1107 1.415 . S
C1110 H1100 0.930 . S
C1110 C1108 1.419 . S
C1110 C1111 1.362 . S
C1111 H1101 0.930 . S
C1111 C1104 1.409 . S
C1111 C1110 1.362 . S
H1112 C1118 0.930 . S
H1113 C1121 0.930 . S
H1114 C1122 0.930 . S
H1115 C1123 0.930 . S
H1116 C1126 0.930 . S
H1117 C1127 0.930 . S
C1118 H1112 0.930 . S
C1118 C1119 1.355 . S
C1118 C1120 1.415 . S
C1119 C1118 1.355 . S
C1119 C1121 1.419 . S
C1120 C1118 1.415 . S
C1120 C1125 1.425 . S
C1120 C1127 1.409 . S
C1121 H1113 0.930 . S
C1121 C1119 1.419 . S
C1121 C1122 1.362 . S
C1122 H1114 0.930 . S
C1122 C1121 1.362 . S
C1122 C1125 1.409 . S
C1123 H1115 0.930 . S
C1123 C1124 1.355 . S
C1123 C1125 1.415 . S
C1124 C1123 1.355 . S
C1124 C1126 1.419 . S
C1125 C1120 1.425 . S
C1125 C1122 1.409 . S
C1125 C1123 1.415 . S
C1126 H1116 0.930 . S
C1126 C1124 1.419 . S
C1126 C1127 1.362 . S
C1127 H1117 0.930 . S
C1127 C1120 1.409 . S
C1127 C1126 1.362 . S
H1128 C1134 0.930 . S
H1129 C1137 0.930 . S
H1130 C1138 0.930 . S
H1131 C1139 0.930 . S
H1132 C1142 0.930 . S
H1133 C1143 0.930 . S
C1134 H1128 0.930 . S
C1134 C1135 1.355 . S
C1134 C1136 1.415 . S
C1135 C1134 1.355 . S
C1135 C1137 1.419 . S
C1136 C1134 1.415 . S
C1136 C1141 1.425 . S
C1136 C1143 1.409 . S
C1137 H1129 0.930 . S
C1137 C1135 1.419 . S
C1137 C1138 1.362 . S
C1138 H1130 0.930 . S
C1138 C1137 1.362 . S
C1138 C1141 1.409 . S
C1139 H1131 0.930 . S
C1139 C1140 1.355 . S
C1139 C1141 1.415 . S
C1140 C1139 1.355 . S
C1140 C1142 1.419 . S
C1141 C1136 1.425 . S
C1141 C1138 1.409 . S
C1141 C1139 1.415 . S
C1142 H1132 0.930 . S
C1142 C1140 1.419 . S
C1142 C1143 1.362 . S
C1143 H1133 0.930 . S
C1143 C1136 1.409 . S
C1143 C1142 1.362 . S
H1144 C1150 0.930 . S
H1145 C1153 0.930 . S
H1146 C1154 0.930 . S
H1147 C1155 0.930 . S
H1148 C1158 0.930 . S
H1149 C1159 0.930 . S
C1150 H1144 0.930 . S
C1150 C1151 1.355 . S
C1150 C1152 1.415 . S
C1151 C1150 1.355 . S
C1151 C1153 1.419 . S
C1152 C1150 1.415 . S
C1152 C1157 1.425 . S
C1152 C1159 1.409 . S
C1153 H1145 0.930 . S
C1153 C1151 1.419 . S
C1153 C1154 1.362 . S
C1154 H1146 0.930 . S
C1154 C1153 1.362 . S
C1154 C1157 1.409 . S
C1155 H1147 0.930 . S
C1155 C1156 1.355 . S
C1155 C1157 1.415 . S
C1156 C1155 1.355 . S
C1156 C1158 1.419 . S
C1157 C1152 1.425 . S
C1157 C1154 1.409 . S
C1157 C1155 1.415 . S
C1158 H1148 0.930 . S
C1158 C1156 1.419 . S
C1158 C1159 1.362 . S
C1159 H1149 0.930 . S
C1159 C1152 1.409 . S
C1159 C1158 1.362 . S
H1160 C1166 0.930 . S
H1161 C1169 0.930 . S
H1162 C1170 0.930 . S
H1163 C1171 0.930 . S
H1164 C1174 0.930 . S
H1165 C1175 0.930 . S
C1166 H1160 0.930 . S
C1166 C1167 1.355 . S
C1166 C1168 1.415 . S
C1167 C1166 1.355 . S
C1167 C1169 1.419 . S
C1168 C1166 1.415 . S
C1168 C1173 1.425 . S
C1168 C1175 1.409 . S
C1169 H1161 0.930 . S
C1169 C1167 1.419 . S
C1169 C1170 1.362 . S
C1170 H1162 0.930 . S
C1170 C1169 1.362 . S
C1170 C1173 1.409 . S
C1171 H1163 0.930 . S
C1171 C1172 1.355 . S
C1171 C1173 1.415 . S
C1172 C1171 1.355 . S
C1172 C1174 1.419 . S
C1173 C1168 1.425 . S
C1173 C1170 1.409 . S
C1173 C1171 1.415 . S
C1174 H1164 0.930 . S
C1174 C1172 1.419 . S
C1174 C1175 1.362 . S
C1175 H1165 0.930 . S
C1175 C1168 1.409 . S
C1175 C1174 1.362 . S
H1176 C1182 0.930 . S
H1177 C1185 0.930 . S
H1178 C1186 0.930 . S
H1179 C1187 0.930 . S
H1180 C1190 0.930 . S
H1181 C1191 0.930 . S
C1182 H1176 0.930 . S
C1182 C1183 1.355 . S
C1182 C1184 1.415 . S
C1183 C1182 1.355 . S
C1183 C1185 1.419 . S
C1184 C1182 1.415 . S
C1184 C1189 1.425 . S
C1184 C1191 1.409 . S
C1185 H1177 0.930 . S
C1185 C1183 1.419 . S
C1185 C1186 1.362 . S
C1186 H1178 0.930 . S
C1186 C1185 1.362 . S
C1186 C1189 1.409 . S
C1187 H1179 0.930 . S
C1187 C1188 1.355 . S
C1187 C1189 1.415 . S
C1188 C1187 1.355 . S
C1188 C1190 1.419 . S
C1189 C1184 1.425 . S
C1189 C1186 1.409 . S
C1189 C1187 1.415 . S
C1190 H1180 0.930 . S
C1190 C1188 1.419 . S
C1190 C1191 1.362 . S
C1191 H1181 0.930 . S
C1191 C1184 1.409 . S
C1191 C1190 1.362 . S
H1192 C1198 0.930 . S
H1193 C1201 0.930 . S
H1194 C1202 0.930 . S
H1195 C1203 0.930 . S
H1196 C1206 0.930 . S
H1197 C1207 0.930 . S
C1198 H1192 0.930 . S
C1198 C1199 1.355 . S
C1198 C1200 1.415 . S
C1199 C1198 1.355 . S
C1199 C1201 1.419 . S
C1200 C1198 1.415 . S
C1200 C1205 1.425 . S
C1200 C1207 1.409 . S
C1201 H1193 0.930 . S
C1201 C1199 1.419 . S
C1201 C1202 1.362 . S
C1202 H1194 0.930 . S
C1202 C1201 1.362 . S
C1202 C1205 1.409 . S
C1203 H1195 0.930 . S
C1203 C1204 1.355 . S
C1203 C1205 1.415 . S
C1204 C1203 1.355 . S
C1204 C1206 1.419 . S
C1205 C1200 1.425 . S
C1205 C1202 1.409 . S
C1205 C1203 1.415 . S
C1206 H1196 0.930 . S
C1206 C1204 1.419 . S
C1206 C1207 1.362 . S
C1207 H1197 0.930 . S
C1207 C1200 1.409 . S
C1207 C1206 1.362 . S
H1208 C1214 0.930 . S
H1209 C1217 0.930 . S
H1210 C1218 0.930 . S
H1211 C1219 0.930 . S
H1212 C1222 0.930 . S
H1213 C1223 0.930 . S
C1214 H1208 0.930 . S
C1214 C1215 1.355 . S
C1214 C1216 1.415 . S
C1215 C1214 1.355 . S
C1215 C1217 1.419 . S
C1216 C1214 1.415 . S
C1216 C1221 1.425 . S
C1216 C1223 1.409 . S
C1217 H1209 0.930 . S
C1217 C1215 1.419 . S
C1217 C1218 1.362 . S
C1218 H1210 0.930 . S
C1218 C1217 1.362 . S
C1218 C1221 1.409 . S
C1219 H1211 0.930 . S
C1219 C1220 1.355 . S
C1219 C1221 1.415 . S
C1220 C1219 1.355 . S
C1220 C1222 1.419 . S
C1221 C1216 1.425 . S
C1221 C1218 1.409 . S
C1221 C1219 1.415 . S
C1222 H1212 0.930 . S
C1222 C1220 1.419 . S
C1222 C1223 1.362 . S
C1223 H1213 0.930 . S
C1223 C1216 1.409 . S
C1223 C1222 1.362 . S
C367 C4 1.001 . S
C372 C58 1.066 . S
C383 C18 1.049 . S
C388 C24 0.910 . S
C399 C44 1.046 . S
C404 C38 1.033 . S
C415 C99 1.001 . S
C420 C62 1.058 . S
C431 C119 0.960 . S
C436 C82 0.976 . S
C447 C102 0.933 . S
C452 C79 0.984 . S
C463 C178 0.959 . S
C468 C124 0.981 . S
C479 C144 1.058 . S
C484 C138 0.999 . S
C495 C158 0.995 . S
C500 C164 1.058 . S
C511 C182 1.010 . S
C516 C219 0.955 . S
C527 C239 1.015 . S
C532 C202 0.909 . S
C543 C222 0.913 . S
C548 C199 1.053 . S
C559 C298 1.062 . S
C564 C244 1.009 . S
C575 C264 0.916 1_565 S
C580 C258 1.057 . S
C591 C284 0.911 1_455 S
C596 C278 1.051 . S
C607 C302 1.011 . S
C612 C339 1.062 . S
C623 C359 1.070 . S
C628 C322 0.940 1_565 S
C639 C319 1.063 . S
C644 C342 1.007 1_455 S
C655 C109 1.347 . S
C660 C9 1.486 . S
C671 C69 1.377 . S
C676 C29 1.480 . S
C687 C89 1.440 . S
C692 C49 1.482 . S
C703 C32 1.382 . S
C708 C72 1.480 . S
C719 C92 1.486 . S
C724 C52 1.440 . S
C735 C12 1.376 . S
C740 C112 1.492 . S
C751 C129 1.485 . S
C756 C229 1.347 . S
C767 C149 1.491 . S
C772 C189 1.408 . S
C783 C209 1.375 . S
C788 C169 1.480 . S
C799 C192 1.484 1_554 S
C804 C152 1.441 . S
C815 C212 1.486 1_554 S
C820 C172 1.439 . S
C831 C232 1.481 1_554 S
C836 C132 1.370 . S
C847 C249 1.489 . S
C852 C349 1.430 1_556 S
C863 C269 1.480 . S
C868 C309 1.427 1_556 S
C879 C289 1.480 . S
C884 C329 1.430 1_556 S
C895 C312 1.479 . S
C900 C272 1.421 . S
C911 C332 1.483 . S
C916 C292 1.353 . S
C927 C352 1.486 . S
C932 C252 1.440 . S
C943 C204 1.955 . S
C948 C19 2.200 . S
C959 C39 2.205 . S
C964 C224 1.964 . S
C975 C184 2.034 . S
C980 C59 2.217 . S
C991 C78 2.210 . S
C996 C162 2.024 . S
C1007 C98 2.211 . S
C1012 C122 2.027 . S
C1023 C142 1.971 . S
C1028 C118 2.206 . S
C1039 C139 2.214 . S
C1044 C324 2.036 1_455 S
C1055 C159 2.200 . S
C1060 C344 1.970 . S
C1071 C179 2.216 . S
C1076 C304 2.023 1_565 S
C1087 C282 1.993 1_565 S
C1092 C198 2.203 . S
C1103 C242 2.024 1_455 S
C1108 C218 2.216 . S
C1119 C262 1.974 . S
C1124 C238 2.207 . S
C1135 C84 2.016 . S
C1140 C259 2.215 . S
C1151 C279 2.217 . S
C1156 C104 2.036 . S
C1167 C64 2.015 . S
C1172 C299 2.215 . S
C1183 C318 2.207 . S
C1188 C42 1.972 . S
C1199 C338 2.214 . S
C1204 C2 2.035 . S
C1215 C22 2.027 . S
C1220 C358 2.211 . S
