# Generated by pormake.
# Topology ung, (4)-cn, num edge types: 1
# Building blocks:
#     Node 0, Type 0, BuildingBlock: NAWXER_clean_sbu_0, # of connection points: 4
#     Node 1, Type 0, BuildingBlock: NAWXER_clean_sbu_0, # of connection points: 4
#     Node 2, Type 0, BuildingBlock: NAWXER_clean_sbu_0, # of connection points: 4
#     Node 3, Type 0, BuildingBlock: NAWXER_clean_sbu_0, # of connection points: 4
#     Node 4, Type 0, BuildingBlock: NAWXER_clean_sbu_0, # of connection points: 4
#     Node 5, Type 0, BuildingBlock: NAWXER_clean_sbu_0, # of connection points: 4
#     Node 6, Type 0, BuildingBlock: NAWXER_clean_sbu_0, # of connection points: 4
#     Node 7, Type 0, BuildingBlock: NAWXER_clean_sbu_0, # of connection points: 4
#     Node 8, Type 0, BuildingBlock: NAWXER_clean_sbu_0, # of connection points: 4
#     Node 9, Type 0, BuildingBlock: NAWXER_clean_sbu_0, # of connection points: 4
#     Node 10, Type 0, BuildingBlock: NAWXER_clean_sbu_0, # of connection points: 4
#     Node 11, Type 0, BuildingBlock: NAWXER_clean_sbu_0, # of connection points: 4
#     Node 12, Type 0, BuildingBlock: NAWXER_clean_sbu_0, # of connection points: 4
#     Node 13, Type 0, BuildingBlock: NAWXER_clean_sbu_0, # of connection points: 4
#     Node 14, Type 0, BuildingBlock: NAWXER_clean_sbu_0, # of connection points: 4
#     Node 15, Type 0, BuildingBlock: NAWXER_clean_sbu_0, # of connection points: 4
#     Node 16, Type 0, BuildingBlock: NAWXER_clean_sbu_0, # of connection points: 4
#     Node 17, Type 0, BuildingBlock: NAWXER_clean_sbu_0, # of connection points: 4
#     Edge 18, Type (0, 0), BuildingBlock: TEMPAE_clean_linker_10, # of connection points: 2
#     Edge 19, Type (0, 0), BuildingBlock: TEMPAE_clean_linker_10, # of connection points: 2
#     Edge 20, Type (0, 0), BuildingBlock: TEMPAE_clean_linker_10, # of connection points: 2
#     Edge 21, Type (0, 0), BuildingBlock: TEMPAE_clean_linker_10, # of connection points: 2
#     Edge 22, Type (0, 0), BuildingBlock: TEMPAE_clean_linker_10, # of connection points: 2
#     Edge 23, Type (0, 0), BuildingBlock: TEMPAE_clean_linker_10, # of connection points: 2
#     Edge 24, Type (0, 0), BuildingBlock: TEMPAE_clean_linker_10, # of connection points: 2
#     Edge 25, Type (0, 0), BuildingBlock: TEMPAE_clean_linker_10, # of connection points: 2
#     Edge 26, Type (0, 0), BuildingBlock: TEMPAE_clean_linker_10, # of connection points: 2
#     Edge 27, Type (0, 0), BuildingBlock: TEMPAE_clean_linker_10, # of connection points: 2
#     Edge 28, Type (0, 0), BuildingBlock: TEMPAE_clean_linker_10, # of connection points: 2
#     Edge 29, Type (0, 0), BuildingBlock: TEMPAE_clean_linker_10, # of connection points: 2
#     Edge 30, Type (0, 0), BuildingBlock: TEMPAE_clean_linker_10, # of connection points: 2
#     Edge 31, Type (0, 0), BuildingBlock: TEMPAE_clean_linker_10, # of connection points: 2
#     Edge 32, Type (0, 0), BuildingBlock: TEMPAE_clean_linker_10, # of connection points: 2
#     Edge 33, Type (0, 0), BuildingBlock: TEMPAE_clean_linker_10, # of connection points: 2
#     Edge 34, Type (0, 0), BuildingBlock: TEMPAE_clean_linker_10, # of connection points: 2
#     Edge 35, Type (0, 0), BuildingBlock: TEMPAE_clean_linker_10, # of connection points: 2
#     Edge 36, Type (0, 0), BuildingBlock: TEMPAE_clean_linker_10, # of connection points: 2
#     Edge 37, Type (0, 0), BuildingBlock: TEMPAE_clean_linker_10, # of connection points: 2
#     Edge 38, Type (0, 0), BuildingBlock: TEMPAE_clean_linker_10, # of connection points: 2
#     Edge 39, Type (0, 0), BuildingBlock: TEMPAE_clean_linker_10, # of connection points: 2
#     Edge 40, Type (0, 0), BuildingBlock: TEMPAE_clean_linker_10, # of connection points: 2
#     Edge 41, Type (0, 0), BuildingBlock: TEMPAE_clean_linker_10, # of connection points: 2
#     Edge 42, Type (0, 0), BuildingBlock: TEMPAE_clean_linker_10, # of connection points: 2
#     Edge 43, Type (0, 0), BuildingBlock: TEMPAE_clean_linker_10, # of connection points: 2
#     Edge 44, Type (0, 0), BuildingBlock: TEMPAE_clean_linker_10, # of connection points: 2
#     Edge 45, Type (0, 0), BuildingBlock: TEMPAE_clean_linker_10, # of connection points: 2
#     Edge 46, Type (0, 0), BuildingBlock: TEMPAE_clean_linker_10, # of connection points: 2
#     Edge 47, Type (0, 0), BuildingBlock: TEMPAE_clean_linker_10, # of connection points: 2
#     Edge 48, Type (0, 0), BuildingBlock: TEMPAE_clean_linker_10, # of connection points: 2
#     Edge 49, Type (0, 0), BuildingBlock: TEMPAE_clean_linker_10, # of connection points: 2
#     Edge 50, Type (0, 0), BuildingBlock: TEMPAE_clean_linker_10, # of connection points: 2
#     Edge 51, Type (0, 0), BuildingBlock: TEMPAE_clean_linker_10, # of connection points: 2
#     Edge 52, Type (0, 0), BuildingBlock: TEMPAE_clean_linker_10, # of connection points: 2
#     Edge 53, Type (0, 0), BuildingBlock: TEMPAE_clean_linker_10, # of connection points: 2
# Relax obj value: 0.020
# Max RMSD: 0.247
# Mean RMSD: 0.247
data_MOF--net-ung--node1-NAWXER_clean_sbu_0--edge1-TEMPAE_clean_linker_10
_symmetry_space_group_name_H-M    P1
_symmetry_Int_Tables_number       1
_symmetry_cell_setting            triclinic
loop_
_symmetry_equiv_pos_as_xyz
'x, y, z'
_cell_length_a     78.948356
_cell_length_b     78.955741
_cell_length_c     21.751003
_cell_angle_alpha  89.997664
_cell_angle_beta   89.991954
_cell_angle_gamma 119.97929
loop_
_atom_site_label
_atom_site_type_symbol
_atom_site_fract_x
_atom_site_fract_y
_atom_site_fract_z
_atom_type_partial_charge
C0 C 0.08002 0.6253 0.33567 0.0
C1 C 0.05962 0.65978 0.19719 0.0
O2 O 0.06346 0.62397 0.32889 0.0
Zn3 Zn 0.07054 0.64246 0.26413 0.0
O4 O 0.09448 0.63719 0.3018 0.0
Zn5 Zn 0.09836 0.65738 0.22675 0.0
O6 O 0.11835 0.68188 0.25681 0.0
O7 O 0.09055 0.67054 0.30735 0.0
O8 O 0.07772 0.6652 0.18855 0.0
O9 O 0.04984 0.6464 0.23592 0.0
O10 O 0.07566 0.62745 0.18885 0.0
O11 O 0.10571 0.64759 0.15729 0.0
C12 C 0.1084 0.68403 0.29865 0.0
C13 C 0.08994 0.63142 0.15226 0.0
C14 C 0.47818 0.50406 0.29931 0.0
C15 C 0.53022 0.53686 0.15015 0.0
O16 O 0.48018 0.51582 0.25651 0.0
Zn17 Zn 0.50445 0.51987 0.22564 0.0
O18 O 0.49157 0.49955 0.30786 0.0
Zn19 Zn 0.51931 0.50694 0.26343 0.0
O20 O 0.53813 0.51857 0.32726 0.0
O21 O 0.52496 0.53639 0.29973 0.0
O22 O 0.53418 0.52663 0.18713 0.0
O23 O 0.51415 0.53667 0.15538 0.0
O24 O 0.49625 0.49119 0.18867 0.0
O25 O 0.51493 0.48202 0.23637 0.0
C26 C 0.53691 0.53389 0.33348 0.0
C27 C 0.5015 0.4784 0.19781 0.0
C28 C 0.65914 0.05344 0.2969 0.0
C29 C 0.62478 0.07177 0.15073 0.0
O30 O 0.64707 0.04348 0.25501 0.0
Zn31 Zn 0.64235 0.06338 0.22527 0.0
O32 O 0.66331 0.07122 0.3059 0.0
Zn33 Zn 0.65503 0.09112 0.26305 0.0
O34 O 0.64344 0.09797 0.32783 0.0
O35 O 0.62585 0.06699 0.30029 0.0
O36 O 0.63498 0.08601 0.18754 0.0
O37 O 0.62527 0.05603 0.15566 0.0
O38 O 0.67077 0.08424 0.18739 0.0
O39 O 0.67962 0.11199 0.23529 0.0
C40 C 0.62827 0.08136 0.33433 0.0
C41 C 0.68334 0.10235 0.19639 0.0
C42 C 0.05769 0.47886 0.69498 0.0
C43 C 0.07947 0.53315 0.83647 0.0
O44 O 0.0759 0.4912 0.68659 0.0
Zn45 Zn 0.09721 0.51908 0.72671 0.0
O46 O 0.04826 0.48244 0.73509 0.0
Zn47 Zn 0.06945 0.50657 0.76425 0.0
O48 O 0.07504 0.52706 0.68951 0.0
O49 O 0.10503 0.53657 0.6581 0.0
O50 O 0.06279 0.51809 0.82968 0.0
O51 O 0.09381 0.53551 0.80236 0.0
O52 O 0.11669 0.5136 0.75575 0.0
O53 O 0.08884 0.49745 0.80611 0.0
C54 C 0.08941 0.53728 0.65314 0.0
C55 C 0.10653 0.50135 0.79698 0.0
C56 C 0.65904 0.68354 0.7986 0.0
C57 C 0.62475 0.63131 0.6509 0.0
O58 O 0.66328 0.66994 0.80688 0.0
Zn59 Zn 0.65509 0.64195 0.76294 0.0
O60 O 0.64708 0.6816 0.75655 0.0
Zn61 Zn 0.64233 0.65704 0.72583 0.0
O62 O 0.62586 0.6367 0.80033 0.0
O63 O 0.6435 0.62328 0.82717 0.0
O64 O 0.62513 0.64747 0.65649 0.0
O65 O 0.63501 0.62722 0.68726 0.0
O66 O 0.67963 0.64568 0.73446 0.0
O67 O 0.67056 0.66443 0.68665 0.0
C68 C 0.6283 0.62467 0.8339 0.0
C69 C 0.68314 0.65886 0.69505 0.0
C70 C 0.53069 0.07168 0.65159 0.0
C71 C 0.47801 0.05457 0.79694 0.0
O72 O 0.53487 0.0861 0.68776 0.0
Zn73 Zn 0.52007 0.09175 0.76263 0.0
O74 O 0.5144 0.05605 0.65687 0.0
Zn75 Zn 0.50481 0.06392 0.72562 0.0
O76 O 0.49795 0.08504 0.68558 0.0
O77 O 0.51689 0.1128 0.73332 0.0
O78 O 0.48001 0.0444 0.75552 0.0
O79 O 0.49175 0.07231 0.80552 0.0
O80 O 0.53845 0.09861 0.82759 0.0
O81 O 0.52484 0.06754 0.80089 0.0
C82 C 0.50376 0.10325 0.69366 0.0
C83 C 0.53687 0.08195 0.83462 0.0
C84 C 0.74071 0.95658 0.68581 0.0
C85 C 0.72284 0.99081 0.53771 0.0
O86 O 0.72466 0.9562 0.677 0.0
Zn87 Zn 0.73262 0.974 0.60951 0.0
O88 O 0.75545 0.96758 0.65163 0.0
Zn89 Zn 0.76072 0.98737 0.57492 0.0
O90 O 0.78101 0.01201 0.60359 0.0
O91 O 0.75283 1.00243 0.64986 0.0
O92 O 0.74081 0.99543 0.53024 0.0
O93 O 0.71268 0.97839 0.57855 0.0
O94 O 0.73721 0.95832 0.53448 0.0
O95 O 0.76847 0.97619 0.5109 0.0
C96 C 0.77093 0.01531 0.64199 0.0
C97 C 0.75198 0.96107 0.50204 0.0
C98 C 0.14637 0.83479 0.63941 0.0
C99 C 0.20124 0.86915 0.5008 0.0
O100 O 0.14989 0.84804 0.60027 0.0
Zn101 Zn 0.17458 0.85203 0.5723 0.0
O102 O 0.15911 0.82946 0.64837 0.0
Zn103 Zn 0.18756 0.83726 0.61028 0.0
O104 O 0.20464 0.84718 0.6798 0.0
O105 O 0.19467 0.86722 0.64752 0.0
O106 O 0.20385 0.85736 0.53502 0.0
O107 O 0.18595 0.87041 0.50727 0.0
O108 O 0.16665 0.82391 0.52962 0.0
O109 O 0.18314 0.81272 0.58078 0.0
C110 C 0.20497 0.86333 0.68441 0.0
C111 C 0.17105 0.81047 0.53875 0.0
C112 C 0.35156 0.43945 0.53862 0.0
C113 C 0.297 0.41736 0.67968 0.0
O114 O 0.3485 0.44867 0.58083 0.0
Zn115 Zn 0.32383 0.42766 0.60804 0.0
O116 O 0.33863 0.42158 0.52777 0.0
Zn117 Zn 0.31036 0.40051 0.56561 0.0
O118 O 0.29354 0.39447 0.49635 0.0
O119 O 0.30361 0.42403 0.53352 0.0
O120 O 0.29375 0.40382 0.64066 0.0
O121 O 0.31303 0.4334 0.67792 0.0
O122 O 0.33185 0.40703 0.64461 0.0
O123 O 0.3147 0.37985 0.59197 0.0
C124 C 0.29335 0.41042 0.49469 0.0
C125 C 0.32721 0.38925 0.63344 0.0
C126 C 0.77238 0.83547 0.14024 0.0
C127 C 0.74954 0.86777 1.00134 0.0
O128 O 0.75435 0.82999 0.15055 0.0
Zn129 Zn 0.73289 0.83666 0.11298 0.0
O130 O 0.78151 0.84809 0.09879 0.0
Zn131 Zn 0.76023 0.85136 0.0716 0.0
O132 O 0.75571 0.86697 0.14692 0.0
O133 O 0.72615 0.84678 0.18267 0.0
O134 O 0.76606 0.8688 0.00406 0.0
O135 O 0.73582 0.8566 0.03857 0.0
O136 O 0.71282 0.81168 0.08503 0.0
O137 O 0.74012 0.82291 0.03202 0.0
C138 C 0.74186 0.86312 0.1853 0.0
C139 C 0.72245 0.80934 0.04251 0.0
C140 C 0.32635 0.0155 0.14212 0.0
C141 C 0.29296 0.9614 1.00031 0.0
O142 O 0.33196 0.00294 0.15014 0.0
Zn143 Zn 0.32485 0.97494 0.10975 0.0
O144 O 0.31333 0.01214 0.10227 0.0
Zn145 Zn 0.30991 0.98784 0.07271 0.0
O146 O 0.29484 0.96735 0.14731 0.0
O147 O 0.31505 0.95743 0.17829 0.0
O148 O 0.29163 0.97662 0.00741 0.0
O149 O 0.30481 0.95878 0.03421 0.0
O150 O 0.3496 0.97995 0.08011 0.0
O151 O 0.33821 0.99644 0.03013 0.0
C152 C 0.29884 0.95696 0.18346 0.0
C153 C 0.35179 0.99221 0.0388 0.0
C154 C 0.1694 0.43697 0.03341 0.0
C155 C 0.20516 0.42 0.17818 0.0
O156 O 0.16458 0.41891 0.02688 0.0
Zn157 Zn 0.17319 0.39932 0.07084 0.0
O158 O 0.18244 0.44742 0.07228 0.0
Zn159 Zn 0.18727 0.4277 0.10295 0.0
O160 O 0.20189 0.42241 0.02656 0.0
O161 O 0.18372 0.39098 0.00624 0.0
O162 O 0.20631 0.43629 0.16712 0.0
O163 O 0.19329 0.40488 0.14685 0.0
O164 O 0.14897 0.3793 0.10216 0.0
O165 O 0.15938 0.40772 0.14796 0.0
C166 C 0.19875 0.40734 0.99513 0.0
C167 C 0.14635 0.38958 0.14165 0.0
C168 C 0.40864 0.29023 0.01182 0.0
C169 C 0.39082 0.32473 0.86492 0.0
O170 O 0.39227 0.28889 1.00072 0.0
Zn171 Zn 0.40059 0.30769 0.93594 0.0
O172 O 0.42369 0.30212 0.98026 0.0
Zn173 Zn 0.42896 0.32195 0.90366 0.0
O174 O 0.4487 0.34648 0.93408 0.0
O175 O 0.42023 0.3359 0.97973 0.0
O176 O 0.40896 0.32982 0.85856 0.0
O177 O 0.38057 0.31189 0.90458 0.0
O178 O 0.40613 0.29305 0.86012 0.0
O179 O 0.43753 0.31143 0.83966 0.0
C180 C 0.4383 0.34911 0.97304 0.0
C181 C 0.42125 0.29628 0.82879 0.0
C182 C 0.81287 0.16874 0.97318 0.0
C183 C 0.86534 0.20345 0.82712 0.0
O184 O 0.81553 0.18168 0.93381 0.0
Zn185 Zn 0.83984 0.186 0.90302 0.0
O186 O 0.82598 0.16374 0.97996 0.0
Zn187 Zn 0.85402 0.17184 0.93555 0.0
O188 O 0.87302 0.18246 0.99974 0.0
O189 O 0.85989 0.20073 0.97897 0.0
O190 O 0.86855 0.19162 0.85882 0.0
O191 O 0.85028 0.20474 0.83811 0.0
O192 O 0.83139 0.15775 0.85963 0.0
O193 O 0.8494 0.14735 0.90545 0.0
C194 C 0.8718 0.19757 0.01045 0.0
C195 C 0.8363 0.14459 0.86658 0.0
C196 C 0.99395 0.7236 0.97339 0.0
C197 C 0.95863 0.74136 0.82965 0.0
O198 O 0.98095 0.71336 0.93414 0.0
Zn199 Zn 0.97639 0.7333 0.90429 0.0
O200 O 0.99889 0.74167 0.98059 0.0
Zn201 Zn 0.99058 0.76159 0.93723 0.0
O202 O 0.98011 0.76985 1.0022 0.0
O203 O 0.96183 0.73849 0.98109 0.0
O204 O 0.97054 0.75638 0.86131 0.0
O205 O 0.95741 0.72502 0.8401 0.0
O206 O 0.00441 0.75325 0.85992 0.0
O207 O 0.01492 0.78156 0.90652 0.0
C208 C 0.96504 0.7535 0.01298 0.0
C209 C 0.01754 0.77133 0.86683 0.0
C210 C 0.39011 0.14394 0.37183 0.0
C211 C 0.41177 0.19853 0.51251 0.0
O212 O 0.40794 0.15696 0.3609 0.0
Zn213 Zn 0.42884 0.18533 0.39857 0.0
O214 O 0.38084 0.14696 0.41397 0.0
Zn215 Zn 0.40169 0.17174 0.44102 0.0
O216 O 0.40519 0.19189 0.36647 0.0
O217 O 0.43478 0.2021 0.32926 0.0
O218 O 0.39577 0.18245 0.5107 0.0
O219 O 0.42535 0.20186 0.47357 0.0
O220 O 0.44966 0.1813 0.42522 0.0
O221 O 0.42255 0.16411 0.47816 0.0
C222 C 0.41879 0.20221 0.32763 0.0
C223 C 0.44037 0.16891 0.46712 0.0
C224 C 0.99212 0.35005 0.46774 0.0
C225 C 0.95993 0.29565 0.32613 0.0
O226 O 0.99714 0.33717 0.47844 0.0
Zn227 Zn 0.99006 0.30896 0.44034 0.0
O228 O 0.97981 0.34695 0.4256 0.0
Zn229 Zn 0.9763 0.32238 0.39812 0.0
O230 O 0.95975 0.30202 0.47237 0.0
O231 O 0.97934 0.29204 0.50936 0.0
O232 O 0.95982 0.31163 0.32816 0.0
O233 O 0.97024 0.2924 0.36506 0.0
O234 O 0.01509 0.31341 0.41403 0.0
O235 O 0.00499 0.33053 0.36154 0.0
C236 C 0.96314 0.29175 0.51103 0.0
C237 C 0.01817 0.32594 0.37267 0.0
C238 C 0.83781 0.77267 0.37126 0.0
C239 C 0.87045 0.75115 0.51364 0.0
O240 O 0.83289 0.75477 0.36105 0.0
Zn241 Zn 0.84016 0.73385 0.39992 0.0
O242 O 0.85004 0.78199 0.41346 0.0
Zn243 Zn 0.85377 0.76112 0.44158 0.0
O244 O 0.87036 0.75729 0.36745 0.0
O245 O 0.85093 0.72761 0.33111 0.0
O246 O 0.8704 0.76716 0.51135 0.0
O247 O 0.86017 0.73748 0.47501 0.0
O248 O 0.81528 0.71319 0.42699 0.0
O249 O 0.82524 0.74048 0.4789 0.0
C250 C 0.86704 0.74357 0.32911 0.0
C251 C 0.81219 0.72263 0.46836 0.0
C252 C 0.09871 0.55782 0.91775 0.0
C253 C 0.08184 0.54813 0.88159 0.0
C254 C 0.10038 0.57135 0.9629 0.0
C255 C 0.08514 0.57574 0.97016 0.0
C256 C 0.06834 0.56637 0.9323 0.0
C257 C 0.06676 0.55242 0.88929 0.0
C258 C 0.11824 0.5806 0.00365 0.0
C259 C 0.05208 0.57112 0.93699 0.0
C260 C 0.07865 0.59715 0.1191 0.0
C261 C 0.08835 0.61716 0.10551 0.0
C262 C 0.078 0.58355 0.0761 0.0
C263 C 0.08662 0.59009 0.01739 0.0
C264 C 0.0961 0.61029 0.00315 0.0
C265 C 0.09718 0.62362 0.04786 0.0
C266 C 0.06826 0.56222 0.09371 0.0
C267 C 0.10482 0.61778 0.94038 0.0
H268 H 0.1103 0.55438 0.91201 0.0
H269 H 0.05378 0.54504 0.86083 0.0
H270 H 0.12608 0.59672 0.9982 0.0
H271 H 0.11375 0.57739 0.05257 0.0
H272 H 0.12854 0.57526 0.99315 0.0
H273 H 0.04052 0.5633 0.90187 0.0
H274 H 0.04525 0.5671 0.98318 0.0
H275 H 0.05807 0.58708 0.93127 0.0
H276 H 0.07204 0.5922 0.16403 0.0
H277 H 0.10462 0.63912 0.03733 0.0
H278 H 0.07854 0.55666 0.08664 0.0
H279 H 0.0554 0.55351 0.06379 0.0
H280 H 0.06333 0.5597 0.14238 0.0
H281 H 0.11636 0.61406 0.93061 0.0
H282 H 0.1113 0.63387 0.93627 0.0
H283 H 0.09339 0.6106 0.90458 0.0
C284 C 0.60364 0.61896 0.91545 0.0
C285 C 0.61331 0.61188 0.87873 0.0
C286 C 0.59015 0.60701 0.96048 0.0
C287 C 0.58574 0.58735 0.96705 0.0
C288 C 0.59509 0.58002 0.9286 0.0
C289 C 0.60902 0.5925 0.88573 0.0
C290 C 0.58094 0.61552 1.00187 0.0
C291 C 0.59031 0.55899 0.93255 0.0
C292 C 0.56449 0.55943 0.11606 0.0
C293 C 0.54445 0.5493 0.10294 0.0
C294 C 0.57807 0.57226 0.07279 0.0
C295 C 0.57145 0.5744 0.01428 0.0
C296 C 0.55122 0.56381 1.00044 0.0
C297 C 0.53792 0.55167 0.04541 0.0
C298 C 0.59944 0.58372 0.08998 0.0
C299 C 0.54365 0.56512 0.9379 0.0
H300 H 0.60709 0.63402 0.91027 0.0
H301 H 0.6164 0.58698 0.85684 0.0
H302 H 0.56482 0.60727 0.99657 0.0
H303 H 0.5842 0.61411 0.05063 0.0
H304 H 0.58629 0.63119 0.99185 0.0
H305 H 0.59808 0.55533 0.897 0.0
H306 H 0.59439 0.55606 0.97848 0.0
H307 H 0.57434 0.54906 0.92698 0.0
H308 H 0.5695 0.55777 0.16089 0.0
H309 H 0.5224 0.54375 0.03525 0.0
H310 H 0.60504 0.59959 0.08349 0.0
H311 H 0.60806 0.57962 0.05942 0.0
H312 H 0.60205 0.58115 0.1384 0.0
H313 H 0.5473 0.58038 0.92853 0.0
H314 H 0.52756 0.55547 0.93392 0.0
H315 H 0.55083 0.56098 0.90176 0.0
C316 C 0.60201 0.08328 0.11704 0.0
C317 C 0.61213 0.07335 0.10387 0.0
C318 C 0.58908 0.08394 0.07396 0.0
C319 C 0.58683 0.07508 0.01557 0.0
C320 C 0.59736 0.06538 1.00173 0.0
C321 C 0.6096 0.06431 0.04652 0.0
C322 C 0.5777 0.09394 0.09114 0.0
C323 C 0.59593 0.05638 0.93932 0.0
C324 C 0.54234 0.06293 0.91659 0.0
C325 C 0.54953 0.07965 0.87971 0.0
C326 C 0.55422 0.06134 0.96176 0.0
C327 C 0.57393 0.0765 0.96832 0.0
C328 C 0.58136 0.09313 0.92972 0.0
C329 C 0.56896 0.09466 0.8867 0.0
C330 C 0.5456 0.04366 0.0033 0.0
C331 C 0.60243 0.10929 0.93364 0.0
H332 H 0.60378 0.09006 0.16172 0.0
H333 H 0.61751 0.0567 0.03629 0.0
H334 H 0.58187 0.10668 0.06062 0.0
H335 H 0.56181 0.08374 0.08458 0.0
H336 H 0.58026 0.0991 0.13957 0.0
H337 H 0.60544 0.04977 0.93545 0.0
H338 H 0.58062 0.04488 0.93004 0.0
H339 H 0.60018 0.06768 0.90305 0.0
H340 H 0.52726 0.05141 0.9114 0.0
H341 H 0.57457 0.10752 0.85769 0.0
H342 H 0.54703 0.04837 0.05202 0.0
H343 H 0.55376 0.03568 0.99815 0.0
H344 H 0.52992 0.03342 0.9933 0.0
H345 H 0.6054 0.11632 0.97953 0.0
H346 H 0.60617 0.12071 0.89803 0.0
H347 H 0.61229 0.10315 0.92813 0.0
C348 C 0.60374 0.06228 0.41606 0.0
C349 C 0.6133 0.07905 0.3794 0.0
C350 C 0.59031 0.06069 0.46143 0.0
C351 C 0.58586 0.07591 0.46842 0.0
C352 C 0.59509 0.09259 0.43001 0.0
C353 C 0.60897 0.09411 0.38679 0.0
C354 C 0.58122 0.04296 0.50276 0.0
C355 C 0.59028 0.10882 0.4344 0.0
C356 C 0.53819 0.06398 0.5474 0.0
C357 C 0.54482 0.07301 0.60471 0.0
C358 C 0.5514 0.06494 0.5024 0.0
C359 C 0.57165 0.07453 0.51598 0.0
C360 C 0.57836 0.08334 0.57437 0.0
C361 C 0.56488 0.08279 0.61767 0.0
C362 C 0.54372 0.05601 0.43999 0.0
C363 C 0.59975 0.09319 0.59129 0.0
H364 H 0.60724 0.05072 0.41058 0.0
H365 H 0.61626 0.10701 0.35796 0.0
H366 H 0.5846 0.0476 0.5515 0.0
H367 H 0.56508 0.03508 0.49789 0.0
H368 H 0.58655 0.03265 0.49232 0.0
H369 H 0.59794 0.12025 0.39881 0.0
H370 H 0.57429 0.10275 0.42923 0.0
H371 H 0.59446 0.11581 0.48032 0.0
H372 H 0.52267 0.0565 0.53733 0.0
H373 H 0.56996 0.08956 0.66231 0.0
H374 H 0.54751 0.04451 0.43032 0.0
H375 H 0.55073 0.06734 0.4038 0.0
H376 H 0.52761 0.04944 0.43641 0.0
H377 H 0.60535 0.08294 0.58422 0.0
H378 H 0.60241 0.09825 0.63983 0.0
H379 H 0.60833 0.10598 0.56098 0.0
C380 C 0.09897 0.61972 0.41758 0.0
C381 C 0.0822 0.6126 0.38096 0.0
C382 C 0.10047 0.60785 0.46304 0.0
C383 C 0.08515 0.58825 0.47016 0.0
C384 C 0.06846 0.58089 0.43185 0.0
C385 C 0.06703 0.59328 0.38853 0.0
C386 C 0.11822 0.6164 0.50425 0.0
C387 C 0.05213 0.55991 0.43638 0.0
C388 C 0.09696 0.55238 0.54884 0.0
C389 C 0.08804 0.55007 0.60631 0.0
C390 C 0.09598 0.56462 0.50387 0.0
C391 C 0.08649 0.57536 0.51764 0.0
C392 C 0.07777 0.57333 0.57616 0.0
C393 C 0.07833 0.56041 0.61944 0.0
C394 C 0.10481 0.5658 0.44132 0.0
C395 C 0.06802 0.58496 0.59327 0.0
H396 H 0.11061 0.63473 0.41197 0.0
H397 H 0.05413 0.58774 0.35974 0.0
H398 H 0.11361 0.61513 0.55304 0.0
H399 H 0.12604 0.60809 0.49917 0.0
H400 H 0.12857 0.63203 0.49387 0.0
H401 H 0.04066 0.55621 0.40098 0.0
H402 H 0.05808 0.54989 0.43101 0.0
H403 H 0.0452 0.55714 0.48241 0.0
H404 H 0.10439 0.54429 0.53863 0.0
H405 H 0.07164 0.55878 0.6642 0.0
H406 H 0.11639 0.58104 0.43159 0.0
H407 H 0.09345 0.56156 0.40528 0.0
H408 H 0.11126 0.55615 0.43756 0.0
H409 H 0.07833 0.60079 0.58622 0.0
H410 H 0.06298 0.58257 0.64183 0.0
H411 H 0.05523 0.58083 0.56304 0.0
C412 C 0.60219 0.59712 0.61604 0.0
C413 C 0.61218 0.61721 0.60363 0.0
C414 C 0.58938 0.58365 0.57255 0.0
C415 C 0.58709 0.59043 0.5145 0.0
C416 C 0.5975 0.61071 0.50138 0.0
C417 C 0.60964 0.62389 0.54658 0.0
C418 C 0.57811 0.56221 0.58898 0.0
C419 C 0.59604 0.61846 0.43934 0.0
C420 C 0.56916 0.55332 0.38468 0.0
C421 C 0.54971 0.54887 0.37825 0.0
C422 C 0.58161 0.56718 0.42775 0.0
C423 C 0.57419 0.57626 0.46698 0.0
C424 C 0.55446 0.57169 0.46094 0.0
C425 C 0.54253 0.55829 0.4157 0.0
C426 C 0.60271 0.57215 0.43112 0.0
C427 C 0.54584 0.58059 0.50317 0.0
H428 H 0.60399 0.59199 0.66048 0.0
H429 H 0.61745 0.63944 0.53692 0.0
H430 H 0.56221 0.55648 0.58268 0.0
H431 H 0.58232 0.55381 0.55786 0.0
H432 H 0.58074 0.55946 0.63718 0.0
H433 H 0.60552 0.63459 0.43592 0.0
H434 H 0.60029 0.61154 0.40265 0.0
H435 H 0.58071 0.61466 0.43029 0.0
H436 H 0.57473 0.54612 0.35524 0.0
H437 H 0.52742 0.55469 0.41096 0.0
H438 H 0.60574 0.56793 0.47666 0.0
H439 H 0.61251 0.58817 0.42615 0.0
H440 H 0.60644 0.56463 0.39493 0.0
H441 H 0.54732 0.57716 0.55168 0.0
H442 H 0.53014 0.57516 0.49341 0.0
H443 H 0.55397 0.59674 0.49853 0.0
C444 C 0.73593 0.87146 0.29056 0.0
C445 C 0.74387 0.87763 0.23172 0.0
C446 C 0.73727 0.88496 0.33502 0.0
C447 C 0.7461 0.90502 0.31944 0.0
C448 C 0.75389 0.91128 0.25964 0.0
C449 C 0.753 0.89753 0.21679 0.0
C450 C 0.72941 0.87777 0.39883 0.0
C451 C 0.7629 0.93243 0.24067 0.0
C452 C 0.73318 0.93636 0.42044 0.0
C453 C 0.75018 0.94657 0.45577 0.0
C454 C 0.73179 0.92309 0.37485 0.0
C455 C 0.74751 0.91947 0.36616 0.0
C456 C 0.76453 0.92948 0.40278 0.0
C457 C 0.76579 0.94316 0.44636 0.0
C458 C 0.71365 0.91314 0.33547 0.0
C459 C 0.78133 0.92556 0.39651 0.0
H460 H 0.72894 0.85606 0.30211 0.0
H461 H 0.75892 0.90224 0.17097 0.0
H462 H 0.74115 0.88562 0.43333 0.0
H463 H 0.71753 0.88093 0.40951 0.0
H464 H 0.72362 0.86181 0.4041 0.0
H465 H 0.76743 0.93475 0.19162 0.0
H466 H 0.75229 0.93757 0.24816 0.0
H467 H 0.77589 0.94166 0.26949 0.0
H468 H 0.72117 0.93913 0.42739 0.0
H469 H 0.77888 0.95094 0.47409 0.0
H470 H 0.70621 0.89708 0.34228 0.0
H471 H 0.71771 0.91601 0.28616 0.0
H472 H 0.70313 0.91819 0.34619 0.0
H473 H 0.77602 0.90977 0.40357 0.0
H474 H 0.79322 0.93408 0.43 0.0
H475 H 0.78751 0.92932 0.34944 0.0
C476 C 0.22588 0.87474 0.41929 0.0
C477 C 0.2161 0.88182 0.45547 0.0
C478 C 0.23926 0.88657 0.37383 0.0
C479 C 0.24344 0.90613 0.36626 0.0
C480 C 0.23397 0.91346 0.4041 0.0
C481 C 0.22015 0.9011 0.44743 0.0
C482 C 0.2486 0.87805 0.33309 0.0
C483 C 0.2385 0.9344 0.3991 0.0
C484 C 0.29117 0.94204 0.28798 0.0
C485 C 0.28463 0.94425 0.23027 0.0
C486 C 0.27791 0.92984 0.33292 0.0
C487 C 0.2577 0.91901 0.31885 0.0
C488 C 0.25108 0.92092 0.26007 0.0
C489 C 0.26461 0.93383 0.21684 0.0
C490 C 0.28548 0.92879 0.39572 0.0
C491 C 0.22975 0.90919 0.24264 0.0
H492 H 0.2226 0.85976 0.42525 0.0
H493 H 0.21269 0.90662 0.47588 0.0
H494 H 0.24534 0.87925 0.28417 0.0
H495 H 0.26472 0.88642 0.33844 0.0
H496 H 0.24337 0.86244 0.34371 0.0
H497 H 0.23062 0.93809 0.43416 0.0
H498 H 0.25444 0.9445 0.40467 0.0
H499 H 0.23439 0.93708 0.35286 0.0
H500 H 0.30667 0.95019 0.29839 0.0
H501 H 0.2596 0.93538 0.17188 0.0
H502 H 0.2819 0.91358 0.40573 0.0
H503 H 0.27823 0.93299 0.43145 0.0
H504 H 0.30156 0.93852 0.39973 0.0
H505 H 0.2243 0.89338 0.24992 0.0
H506 H 0.22716 0.9115 0.19394 0.0
H507 H 0.22098 0.91329 0.27252 0.0
C508 C 0.27034 0.42205 0.46433 0.0
C509 C 0.28109 0.41296 0.4486 0.0
C510 C 0.25749 0.42313 0.42185 0.0
C511 C 0.25595 0.41558 0.36169 0.0
C512 C 0.26725 0.4069 0.34523 0.0
C513 C 0.27941 0.40537 0.38927 0.0
C514 C 0.24525 0.43195 0.44172 0.0
C515 C 0.26658 0.39929 0.28104 0.0
C516 C 0.21141 0.40189 0.26131 0.0
C517 C 0.21791 0.41877 0.22555 0.0
C518 C 0.22343 0.40086 0.30713 0.0
C519 C 0.24263 0.41682 0.31567 0.0
C520 C 0.24931 0.43378 0.27893 0.0
C521 C 0.23674 0.43467 0.23508 0.0
C522 C 0.21557 0.38275 0.34658 0.0
C523 C 0.26987 0.45083 0.28504 0.0
H524 H 0.27148 0.42769 0.51052 0.0
H525 H 0.28781 0.39841 0.3771 0.0
H526 H 0.24861 0.4448 0.41266 0.0
H527 H 0.22951 0.42115 0.43534 0.0
H528 H 0.24775 0.43665 0.49061 0.0
H529 H 0.27701 0.39385 0.27487 0.0
H530 H 0.25163 0.38719 0.27069 0.0
H531 H 0.27007 0.41103 0.2469 0.0
H532 H 0.19679 0.38965 0.25428 0.0
H533 H 0.24184 0.44768 0.20704 0.0
H534 H 0.21705 0.38682 0.39593 0.0
H535 H 0.22421 0.37538 0.33878 0.0
H536 H 0.19996 0.37217 0.33672 0.0
H537 H 0.27237 0.45679 0.33241 0.0
H538 H 0.2729 0.46281 0.25224 0.0
H539 H 0.28056 0.44585 0.27673 0.0
C540 C 0.21594 0.39285 0.93881 0.0
C541 C 0.21281 0.40866 0.9479 0.0
C542 C 0.22948 0.39381 0.89518 0.0
C543 C 0.23965 0.41073 0.85822 0.0
C544 C 0.23623 0.42659 0.86632 0.0
C545 C 0.2231 0.42551 0.91195 0.0
C546 C 0.2332 0.37687 0.88956 0.0
C547 C 0.24636 0.44465 0.82661 0.0
C548 C 0.288 0.42241 0.78498 0.0
C549 C 0.28215 0.41469 0.72577 0.0
C550 C 0.27427 0.42086 0.82887 0.0
C551 C 0.25428 0.41202 0.81236 0.0
C552 C 0.24832 0.40432 0.75232 0.0
C553 C 0.26231 0.40544 0.71001 0.0
C554 C 0.28115 0.42862 0.89295 0.0
C555 C 0.22725 0.39532 0.7324 0.0
H556 H 0.20811 0.37987 0.96703 0.0
H557 H 0.22056 0.43767 0.91867 0.0
H558 H 0.22978 0.37081 0.8423 0.0
H559 H 0.2489 0.38201 0.89794 0.0
H560 H 0.22433 0.36493 0.92255 0.0
H561 H 0.24121 0.45515 0.83618 0.0
H562 H 0.26237 0.45214 0.83444 0.0
H563 H 0.2438 0.4405 0.77732 0.0
H564 H 0.30336 0.4295 0.79717 0.0
H565 H 0.25785 0.39971 0.66389 0.0
H566 H 0.27296 0.41693 0.9273 0.0
H567 H 0.27818 0.44067 0.90293 0.0
H568 H 0.29704 0.43419 0.8992 0.0
H569 H 0.21783 0.38251 0.76167 0.0
H570 H 0.2251 0.39053 0.68361 0.0
H571 H 0.22219 0.40605 0.73842 0.0
C572 C 0.7412 0.87386 0.89663 0.0
C573 C 0.74664 0.88014 0.9572 0.0
C574 C 0.74004 0.88627 0.85263 0.0
C575 C 0.74465 0.90543 0.86981 0.0
C576 C 0.75002 0.91171 0.93137 0.0
C577 C 0.75093 0.89894 0.97443 0.0
C578 C 0.73413 0.87898 0.78764 0.0
C579 C 0.75509 0.93201 0.95148 0.0
C580 C 0.75946 0.94365 0.74341 0.0
C581 C 0.74204 0.94397 0.73398 0.0
C582 C 0.76056 0.93126 0.78772 0.0
C583 C 0.74385 0.91889 0.82338 0.0
C584 C 0.72629 0.91926 0.8144 0.0
C585 C 0.72561 0.93179 0.76994 0.0
C586 C 0.77957 0.93131 0.79611 0.0
C587 C 0.70815 0.9063 0.85143 0.0
H588 H 0.7381 0.85932 0.88361 0.0
H589 H 0.75537 0.90375 0.02138 0.0
H590 H 0.72115 0.88004 0.77405 0.0
H591 H 0.74612 0.88828 0.75545 0.0
H592 H 0.73062 0.86357 0.78209 0.0
H593 H 0.75873 0.93453 1.0012 0.0
H594 H 0.76779 0.94306 0.92467 0.0
H595 H 0.74267 0.93446 0.94211 0.0
H596 H 0.77222 0.95298 0.71588 0.0
H597 H 0.71207 0.9319 0.7631 0.0
H598 H 0.77735 0.91654 0.78651 0.0
H599 H 0.78456 0.9349 0.84448 0.0
H600 H 0.79131 0.942 0.76544 0.0
H601 H 0.70369 0.89072 0.84377 0.0
H602 H 0.6957 0.90846 0.83925 0.0
H603 H 0.71126 0.90929 0.90122 0.0
C604 C 0.28695 0.93602 0.92087 0.0
C605 C 0.28027 0.94659 0.95482 0.0
C606 C 0.27505 0.92255 0.8757 0.0
C607 C 0.25582 0.91913 0.86608 0.0
C608 C 0.24889 0.92944 0.90155 0.0
C609 C 0.26131 0.94328 0.94469 0.0
C610 C 0.28316 0.91226 0.83754 0.0
C611 C 0.22829 0.92576 0.89429 0.0
C612 C 0.2287 0.89752 0.71615 0.0
C613 C 0.21756 0.87766 0.73106 0.0
C614 C 0.24166 0.91111 0.75912 0.0
C615 C 0.24286 0.90475 0.81907 0.0
C616 C 0.23126 0.88472 0.83462 0.0
C617 C 0.21904 0.87135 0.78996 0.0
C618 C 0.25422 0.93222 0.74015 0.0
C619 C 0.23154 0.87746 0.89863 0.0
H620 H 0.30166 0.93869 0.92843 0.0
H621 H 0.25607 0.95133 0.97141 0.0
H622 H 0.27422 0.89623 0.84425 0.0
H623 H 0.28239 0.9152 0.78802 0.0
H624 H 0.29858 0.917 0.84941 0.0
H625 H 0.22488 0.93433 0.92751 0.0
H626 H 0.22615 0.92964 0.84707 0.0
H627 H 0.21764 0.90999 0.90098 0.0
H628 H 0.22772 0.90232 0.67024 0.0
H629 H 0.21033 0.85596 0.80143 0.0
H630 H 0.26986 0.93709 0.74863 0.0
H631 H 0.25051 0.94164 0.76824 0.0
H632 H 0.25235 0.93457 0.69084 0.0
H633 H 0.24646 0.88044 0.91014 0.0
H634 H 0.22121 0.86153 0.90371 0.0
H635 H 0.22762 0.88541 0.93268 0.0
C636 C 0.43593 0.27929 0.77235 0.0
C637 C 0.42002 0.28225 0.78162 0.0
C638 C 0.43506 0.26582 0.7286 0.0
C639 C 0.41813 0.25556 0.69173 0.0
C640 C 0.40217 0.25882 0.70004 0.0
C641 C 0.40317 0.27188 0.74575 0.0
C642 C 0.45211 0.26228 0.72274 0.0
C643 C 0.3841 0.24859 0.66042 0.0
C644 C 0.42349 0.23314 0.54311 0.0
C645 C 0.41436 0.2133 0.55874 0.0
C646 C 0.42456 0.24706 0.58563 0.0
C647 C 0.41694 0.24102 0.64571 0.0
C648 C 0.40823 0.22103 0.66208 0.0
C649 C 0.40672 0.20737 0.618 0.0
C650 C 0.43343 0.26813 0.56586 0.0
C651 C 0.40055 0.21407 0.7262 0.0
H652 H 0.44891 0.28719 0.80048 0.0
H653 H 0.39093 0.27429 0.7526 0.0
H654 H 0.44709 0.24659 0.73098 0.0
H655 H 0.45814 0.26576 0.67545 0.0
H656 H 0.46404 0.27119 0.7557 0.0
H657 H 0.3735 0.25361 0.67019 0.0
H658 H 0.38822 0.25121 0.61111 0.0
H659 H 0.37673 0.23258 0.66814 0.0
H660 H 0.42917 0.23766 0.49696 0.0
H661 H 0.39972 0.19201 0.63008 0.0
H662 H 0.44623 0.27759 0.5951 0.0
H663 H 0.42261 0.27307 0.57206 0.0
H664 H 0.4382 0.27035 0.51704 0.0
H665 H 0.41225 0.22231 0.76046 0.0
H666 H 0.39511 0.19821 0.73233 0.0
H667 H 0.38842 0.21691 0.7364 0.0
C668 C 0.88962 0.20953 0.74382 0.0
C669 C 0.87933 0.21612 0.77968 0.0
C670 C 0.90268 0.22151 0.69796 0.0
C671 C 0.90603 0.24075 0.68954 0.0
C672 C 0.89585 0.24753 0.72639 0.0
C673 C 0.88238 0.235 0.77025 0.0
C674 C 0.91283 0.21356 0.65837 0.0
C675 C 0.89948 0.26814 0.72042 0.0
C676 C 0.95426 0.27753 0.61611 0.0
C677 C 0.94835 0.27936 0.55694 0.0
C678 C 0.94059 0.26528 0.66 0.0
C679 C 0.92061 0.25404 0.64353 0.0
C680 C 0.91459 0.25571 0.5835 0.0
C681 C 0.92852 0.26865 0.54118 0.0
C682 C 0.94752 0.26447 0.72408 0.0
C683 C 0.89352 0.24355 0.56365 0.0
H684 H 0.88714 0.19486 0.7508 0.0
H685 H 0.87454 0.24017 0.7984 0.0
H686 H 0.91022 0.21508 0.60905 0.0
H687 H 0.92884 0.22212 0.66607 0.0
H688 H 0.90772 0.19793 0.66817 0.0
H689 H 0.89061 0.27123 0.75334 0.0
H690 H 0.91518 0.27875 0.72863 0.0
H691 H 0.89602 0.27069 0.67311 0.0
H692 H 0.96962 0.2859 0.6283 0.0
H693 H 0.92402 0.26991 0.49511 0.0
H694 H 0.94456 0.24947 0.73424 0.0
H695 H 0.93935 0.26802 0.75838 0.0
H696 H 0.96341 0.27479 0.7302 0.0
H697 H 0.88853 0.22779 0.57003 0.0
H698 H 0.89136 0.24608 0.51475 0.0
H699 H 0.88408 0.24697 0.5927 0.0
C700 C 0.95244 0.75961 0.7468 0.0
C701 C 0.94586 0.74275 0.78273 0.0
C702 C 0.9404 0.76071 0.70119 0.0
C703 C 0.92112 0.74487 0.69309 0.0
C704 C 0.91434 0.72795 0.73013 0.0
C705 C 0.92692 0.72697 0.77372 0.0
C706 C 0.94836 0.77876 0.6614 0.0
C707 C 0.89368 0.71104 0.72451 0.0
C708 C 0.8845 0.75645 0.61899 0.0
C709 C 0.88268 0.74864 0.55993 0.0
C710 C 0.89666 0.75497 0.66311 0.0
C711 C 0.90784 0.74613 0.64697 0.0
C712 C 0.90616 0.73836 0.58707 0.0
C713 C 0.8933 0.73939 0.54454 0.0
C714 C 0.89748 0.76281 0.72705 0.0
C715 C 0.91826 0.72934 0.56755 0.0
H716 H 0.96715 0.77174 0.75346 0.0
H717 H 0.92176 0.71399 0.80193 0.0
H718 H 0.94685 0.77458 0.61213 0.0
H719 H 0.9398 0.78623 0.66889 0.0
H720 H 0.96399 0.78929 0.67117 0.0
H721 H 0.89056 0.69915 0.75777 0.0
H722 H 0.88313 0.71622 0.73246 0.0
H723 H 0.89109 0.7049 0.67736 0.0
H724 H 0.8762 0.76354 0.63088 0.0
H725 H 0.89206 0.73359 0.49854 0.0
H726 H 0.91249 0.77485 0.73711 0.0
H727 H 0.89392 0.75114 0.76155 0.0
H728 H 0.88717 0.76841 0.73297 0.0
H729 H 0.93403 0.74006 0.57382 0.0
H730 H 0.91571 0.72455 0.51875 0.0
H731 H 0.9148 0.71652 0.59688 0.0
C732 C 0.87594 0.73818 0.22411 0.0
C733 C 0.88184 0.746 0.28318 0.0
C734 C 0.88964 0.73968 0.18018 0.0
C735 C 0.90964 0.74857 0.19654 0.0
C736 C 0.91565 0.75632 0.2565 0.0
C737 C 0.90169 0.75526 0.29884 0.0
C738 C 0.88272 0.73186 0.11618 0.0
C739 C 0.93674 0.76538 0.27625 0.0
C740 C 0.94084 0.73525 0.09639 0.0
C741 C 0.95101 0.75211 0.0604 0.0
C742 C 0.92774 0.73412 0.14224 0.0
C743 C 0.92425 0.74993 0.15052 0.0
C744 C 0.93432 0.76686 0.11353 0.0
C745 C 0.94783 0.76787 0.06969 0.0
C746 C 0.91773 0.71606 0.182 0.0
C747 C 0.93052 0.78374 0.11934 0.0
H748 H 0.86058 0.7311 0.212 0.0
H749 H 0.90619 0.76108 0.34484 0.0
H750 H 0.8908 0.74356 0.08176 0.0
H751 H 0.88579 0.71989 0.10612 0.0
H752 H 0.8668 0.72618 0.11013 0.0
H753 H 0.9389 0.7701 0.32511 0.0
H754 H 0.94186 0.75471 0.26992 0.0
H755 H 0.94609 0.77824 0.2471 0.0
H756 H 0.94342 0.72313 0.08951 0.0
H757 H 0.95558 0.78086 0.04144 0.0
H758 H 0.90171 0.70849 0.17436 0.0
H759 H 0.92033 0.72022 0.23128 0.0
H760 H 0.92295 0.70561 0.17229 0.0
H761 H 0.91479 0.77853 0.11119 0.0
H762 H 0.93931 0.79569 0.08628 0.0
H763 H 0.93398 0.7898 0.16658 0.0
C764 C 0.40699 0.2251 0.29751 0.0
C765 C 0.41619 0.21446 0.28166 0.0
C766 C 0.40586 0.23796 0.25519 0.0
C767 C 0.41349 0.23963 0.19507 0.0
C768 C 0.42229 0.22844 0.17849 0.0
C769 C 0.42386 0.21628 0.22238 0.0
C770 C 0.39691 0.25007 0.27516 0.0
C771 C 0.42997 0.22926 0.11432 0.0
C772 C 0.39418 0.25866 0.06864 0.0
C773 C 0.40999 0.27756 0.05921 0.0
C774 C 0.39518 0.24613 0.1124 0.0
C775 C 0.41214 0.25291 0.14915 0.0
C776 C 0.42801 0.27217 0.14073 0.0
C777 C 0.42688 0.28416 0.09499 0.0
C778 C 0.37823 0.2255 0.11837 0.0
C779 C 0.44612 0.28013 0.18021 0.0
H780 H 0.40129 0.22386 0.34367 0.0
H781 H 0.4309 0.20796 0.21013 0.0
H782 H 0.40763 0.26584 0.26886 0.0
H783 H 0.38404 0.24664 0.24612 0.0
H784 H 0.3922 0.24751 0.32405 0.0
H785 H 0.43554 0.21893 0.10808 0.0
H786 H 0.41823 0.22571 0.08013 0.0
H787 H 0.442 0.24426 0.10411 0.0
H788 H 0.38117 0.25348 0.04056 0.0
H789 H 0.43905 0.29883 0.08801 0.0
H790 H 0.37225 0.22293 0.16573 0.0
H791 H 0.38335 0.21492 0.10999 0.0
H792 H 0.36624 0.22241 0.08556 0.0
H793 H 0.44202 0.27859 0.22956 0.0
H794 H 0.45661 0.29577 0.17045 0.0
H795 H 0.4536 0.2716 0.17235 0.0
C796 C 0.94579 0.28679 0.22091 0.0
C797 C 0.94782 0.28085 0.27983 0.0
C798 C 0.93366 0.2731 0.17689 0.0
C799 C 0.92272 0.25306 0.19297 0.0
C800 C 0.92464 0.24701 0.25269 0.0
C801 C 0.93746 0.26097 0.29514 0.0
C802 C 0.93258 0.28008 0.11313 0.0
C803 C 0.91281 0.22587 0.27216 0.0
C804 C 0.87796 0.22177 0.09401 0.0
C805 C 0.8846 0.21167 0.05744 0.0
C806 C 0.89003 0.23488 0.13962 0.0
C807 C 0.9094 0.23848 0.14704 0.0
C808 C 0.91622 0.22851 0.10938 0.0
C809 C 0.90361 0.21497 0.06581 0.0
C810 C 0.88203 0.24479 0.18009 0.0
C811 C 0.93696 0.23243 0.11425 0.0
H812 H 0.95389 0.30218 0.20906 0.0
H813 H 0.93886 0.25644 0.34102 0.0
H814 H 0.93612 0.27205 0.07831 0.0
H815 H 0.9175 0.277 0.10364 0.0
H816 H 0.94277 0.29601 0.10715 0.0
H817 H 0.9156 0.22365 0.32073 0.0
H818 H 0.89698 0.22068 0.26661 0.0
H819 H 0.91628 0.21663 0.2423 0.0
H820 H 0.86319 0.21909 0.08784 0.0
H821 H 0.90881 0.20728 0.03711 0.0
H822 H 0.8904 0.26082 0.17263 0.0
H823 H 0.88375 0.24213 0.2292 0.0
H824 H 0.86633 0.23952 0.17092 0.0
H825 H 0.94738 0.24818 0.10617 0.0
H826 H 0.94009 0.22374 0.0807 0.0
H827 H 0.93976 0.22894 0.16123 0.0
C828 C 0.13568 0.71797 0.31901 0.0
C829 C 0.11716 0.7024 0.33487 0.0
C830 C 0.14407 0.73571 0.35123 0.0
C831 C 0.13379 0.73795 0.40094 0.0
C832 C 0.11512 0.72231 0.41738 0.0
C833 C 0.10698 0.70472 0.38398 0.0
C834 C 0.16398 0.75207 0.3321 0.0
C835 C 0.10381 0.72411 0.47049 0.0
C836 C 0.16443 0.77649 0.51938 0.0
C837 C 0.16157 0.79206 0.50274 0.0
C838 C 0.15522 0.75872 0.48725 0.0
C839 C 0.14296 0.75647 0.43681 0.0
C840 C 0.13999 0.77211 0.41962 0.0
C841 C 0.14928 0.78971 0.45296 0.0
C842 C 0.15868 0.74237 0.50721 0.0
C843 C 0.12714 0.77029 0.36572 0.0
H844 H 0.14363 0.71638 0.28091 0.0
H845 H 0.09267 0.69279 0.39648 0.0
H846 H 0.1632 0.76539 0.32122 0.0
H847 H 0.17449 0.75581 0.37057 0.0
H848 H 0.16981 0.74817 0.29133 0.0
H849 H 0.08936 0.7107 0.47691 0.0
H850 H 0.11235 0.72703 0.51358 0.0
H851 H 0.10145 0.73668 0.46291 0.0
H852 H 0.17378 0.77809 0.55802 0.0
H853 H 0.14697 0.80165 0.43985 0.0
H854 H 0.16566 0.73863 0.46937 0.0
H855 H 0.14452 0.72904 0.51754 0.0
H856 H 0.16817 0.74627 0.54854 0.0
H857 H 0.133 0.7674 0.32309 0.0
H858 H 0.12611 0.78368 0.35883 0.0
H859 H 0.1122 0.7577 0.37271 0.0
C860 C 0.44461 0.49818 0.32177 0.0
C861 C 0.46009 0.49501 0.33692 0.0
C862 C 0.42701 0.48914 0.35485 0.0
C863 C 0.42484 0.4767 0.40471 0.0
C864 C 0.44047 0.4736 0.42085 0.0
C865 C 0.4579 0.48274 0.3866 0.0
C866 C 0.41066 0.49274 0.336 0.0
C867 C 0.43873 0.46056 0.47409 0.0
C868 C 0.38544 0.46747 0.52184 0.0
C869 C 0.37022 0.44901 0.50391 0.0
C870 C 0.40339 0.47651 0.49055 0.0
C871 C 0.40615 0.46695 0.43975 0.0
C872 C 0.39086 0.44833 0.42132 0.0
C873 C 0.3731 0.43955 0.45375 0.0
C874 C 0.41939 0.49632 0.51177 0.0
C875 C 0.3932 0.43776 0.36702 0.0
H876 H 0.44611 0.50758 0.28334 0.0
H877 H 0.46977 0.48022 0.39865 0.0
H878 H 0.39747 0.47869 0.32376 0.0
H879 H 0.40662 0.49906 0.37501 0.0
H880 H 0.41469 0.50282 0.29612 0.0
H881 H 0.45233 0.45993 0.4814 0.0
H882 H 0.43531 0.46589 0.51691 0.0
H883 H 0.42649 0.4455 0.46582 0.0
H884 H 0.38341 0.47484 0.56076 0.0
H885 H 0.36143 0.42529 0.4396 0.0
H886 H 0.42317 0.5072 0.47442 0.0
H887 H 0.43281 0.4957 0.52258 0.0
H888 H 0.41511 0.50156 0.55312 0.0
H889 H 0.3962 0.44673 0.32486 0.0
H890 H 0.37999 0.42327 0.35903 0.0
H891 H 0.4059 0.4356 0.37437 0.0
C892 C 0.72433 0.01302 0.45253 0.0
C893 C 0.71409 1.00039 0.50132 0.0
C894 C 0.71612 0.02236 0.41887 0.0
C895 C 0.69732 0.01911 0.43477 0.0
C896 C 0.687 0.00651 0.48423 0.0
C897 C 0.69546 0.99726 0.51666 0.0
C898 C 0.72747 0.03557 0.36601 0.0
C899 C 0.66696 1.00273 0.50284 0.0
C900 C 0.68112 0.05483 0.38258 0.0
C901 C 0.66891 0.04478 0.3328 0.0
C902 C 0.69066 0.04677 0.41586 0.0
C903 C 0.68804 0.02831 0.39859 0.0
C904 C 0.67589 0.0182 0.34805 0.0
C905 C 0.66641 0.0265 0.316 0.0
C906 C 0.70338 0.05789 0.46988 0.0
C907 C 0.67278 0.99853 0.32801 0.0
H908 H 0.73873 0.01555 0.44043 0.0
H909 H 0.68746 0.98764 0.55453 0.0
H910 H 0.71907 0.02989 0.3227 0.0
H911 H 0.72959 0.05041 0.3735 0.0
H912 H 0.74202 0.03681 0.36008 0.0
H913 H 0.66114 0.99299 0.54358 0.0
H914 H 0.66754 0.01674 0.51354 0.0
H915 H 0.65656 0.99587 0.46417 0.0
H916 H 0.68316 0.06897 0.39579 0.0
H917 H 0.65712 0.01867 0.27733 0.0
H918 H 0.71839 0.06038 0.46323 0.0
H919 H 0.69751 0.04914 0.5125 0.0
H920 H 0.70425 0.07225 0.47659 0.0
H921 H 0.68706 0.99957 0.31817 0.0
H922 H 0.66344 0.9929 0.28638 0.0
H923 H 0.66578 0.98773 0.36563 0.0
C924 C 0.70588 0.10221 0.1153 0.0
C925 C 0.70242 0.11173 0.16403 0.0
C926 C 0.72404 0.11095 0.08509 0.0
C927 C 0.73916 0.12953 0.10456 0.0
C928 C 0.73584 0.13908 0.15423 0.0
C929 C 0.71749 0.13013 0.18309 0.0
C930 C 0.72697 0.10043 0.03178 0.0
C931 C 0.75163 0.15884 0.17665 0.0
C932 C 0.79165 0.14626 0.05714 0.0
C933 C 0.79427 0.1589 0.00818 0.0
C934 C 0.77379 0.13658 0.08913 0.0
C935 C 0.75816 0.13946 0.07116 0.0
C936 C 0.76071 0.15213 0.02163 0.0
C937 C 0.77874 0.16177 0.99106 0.0
C938 C 0.77166 0.12335 0.14224 0.0
C939 C 0.74436 0.15547 1.00069 0.0
H940 H 0.69433 0.08799 0.10035 0.0
H941 H 0.71503 0.13753 0.22106 0.0
H942 H 0.73022 0.10936 0.98943 0.0
H943 H 0.73971 0.09844 0.04063 0.0
H944 H 0.71392 0.08587 0.02325 0.0
H945 H 0.74699 0.1639 0.21763 0.0
H946 H 0.76499 0.15824 0.18849 0.0
H947 H 0.75564 0.16984 0.13957 0.0
H948 H 0.80358 0.14397 0.07064 0.0
H949 H 0.78054 0.17139 0.953 0.0
H950 H 0.75949 0.10833 0.13316 0.0
H951 H 0.76792 0.12855 0.18474 0.0
H952 H 0.78522 0.12272 0.1506 0.0
H953 H 0.73135 0.14132 0.98805 0.0
H954 H 0.74859 0.16546 0.96053 0.0
H955 H 0.73995 0.16179 0.03876 0.0
C956 C 1.00117 0.69655 0.99012 0.0
C957 C 1.00383 0.71481 0.00802 0.0
C958 C 0.01073 0.68808 0.02068 0.0
C959 C 0.02312 0.69796 0.07099 0.0
C960 C 0.02583 0.71635 0.08964 0.0
C961 C 0.01624 0.72463 0.05765 0.0
C962 C 0.00758 0.66853 0.99897 0.0
C963 C 0.03875 0.7272 0.14357 0.0
C964 C 0.03186 0.66615 0.18266 0.0
C965 C 0.05039 0.66959 0.16457 0.0
C966 C 0.02305 0.67564 0.15353 0.0
C967 C 0.03287 0.68874 0.1046 0.0
C968 C 0.05158 0.69232 0.08611 0.0
C969 C 0.06017 0.68278 0.11653 0.0
C970 C 1.00314 0.67154 0.17489 0.0
C971 C 0.06241 0.70602 0.03362 0.0
H972 H 0.99173 0.6889 0.95153 0.0
H973 H 0.01837 0.73873 0.07176 0.0
H974 H 0.02182 0.66975 0.98711 0.0
H975 H 1.00102 0.65759 0.0364 0.0
H976 H 0.99786 0.66299 0.95814 0.0
H977 H 0.03936 0.74136 0.15222 0.0
H978 H 0.03328 0.71808 0.18565 0.0
H979 H 0.05383 0.73006 0.1353 0.0
H980 H 0.02425 0.65612 0.22007 0.0
H981 H 0.07449 0.68554 0.10232 0.0
H982 H 0.99237 0.66472 0.13711 0.0
H983 H 1.00363 0.68541 0.18714 0.0
H984 H 0.99783 0.66163 0.21536 0.0
H985 H 0.05373 0.70054 0.99073 0.0
H986 H 0.07703 0.70758 0.02579 0.0
H987 H 0.06433 0.72069 0.04293 0.0
C988 C 0.43674 0.3703 0.05661 0.0
C989 C 0.44691 0.36772 0.00801 0.0
C990 C 0.44485 0.38811 0.08887 0.0
C991 C 0.46345 0.40373 0.07161 0.0
C992 C 0.4737 0.40122 0.02238 0.0
C993 C 0.46537 0.38325 0.99149 0.0
C994 C 0.43359 0.39019 0.14162 0.0
C995 C 0.49349 0.41756 1.00217 0.0
C996 C 0.47874 0.45603 0.11659 0.0
C997 C 0.49157 0.4593 0.16559 0.0
C998 C 0.46924 0.43792 0.08609 0.0
C999 C 0.47249 0.42265 0.10552 0.0
C1000 C 0.48517 0.42576 0.15557 0.0
C1001 C 0.49464 0.44406 0.18472 0.0
C1002 C 0.456 0.43522 0.03241 0.0
C1003 C 0.4889 0.40981 0.178 0.0
H1004 H 0.42248 0.35838 0.06967 0.0
H1005 H 0.47331 0.38148 0.95373 0.0
H1006 H 0.44233 0.3937 0.18448 0.0
H1007 H 0.43091 0.40248 0.13264 0.0
H1008 H 0.41931 0.37668 0.14927 0.0
H1009 H 0.49934 0.41339 0.96207 0.0
H1010 H 0.49249 0.43066 0.98976 0.0
H1011 H 0.50409 0.42178 0.04058 0.0
H1012 H 0.47627 0.46771 0.10156 0.0
H1013 H 0.50438 0.44637 0.2229 0.0
H1014 H 0.44123 0.42249 0.04061 0.0
H1015 H 0.46182 0.4321 0.99013 0.0
H1016 H 0.45457 0.44834 0.02412 0.0
H1017 H 0.47486 0.39646 0.18913 0.0
H1018 H 0.4984 0.41426 0.21941 0.0
H1019 H 0.49603 0.40585 0.14117 0.0
C1020 C 0.99826 0.38407 0.48344 0.0
C1021 C 1.00127 0.36876 0.50215 0.0
C1022 C 0.00747 0.40217 0.51377 0.0
C1023 C 0.01985 0.40501 0.56445 0.0
C1024 C 0.0228 0.38957 0.58402 0.0
C1025 C 0.01354 0.37165 0.55247 0.0
C1026 C 1.00405 0.41832 0.4913 0.0
C1027 C 0.03575 0.39198 0.63829 0.0
C1028 C 0.05738 0.45691 0.61112 0.0
C1029 C 0.0479 0.46022 0.66028 0.0
C1030 C 0.04838 0.43904 0.57924 0.0
C1031 C 0.02955 0.42408 0.59737 0.0
C1032 C 0.01991 0.42734 0.64689 0.0
C1033 C 0.02915 0.44539 0.67751 0.0
C1034 C 0.05903 0.43615 0.52621 0.0
C1035 C 0.99988 0.4117 0.6679 0.0
H1036 H 0.98889 0.38201 0.44441 0.0
H1037 H 0.01594 0.35991 0.56727 0.0
H1038 H 0.99758 0.42286 0.5286 0.0
H1039 H 0.01819 0.43132 0.47855 0.0
H1040 H 0.99415 0.41383 0.45083 0.0
H1041 H 0.03639 0.3785 0.64804 0.0
H1042 H 0.05081 0.40414 0.62956 0.0
H1043 H 0.0303 0.39588 0.6799 0.0
H1044 H 0.07185 0.46829 0.59747 0.0
H1045 H 0.02174 0.44776 0.71565 0.0
H1046 H 0.05006 0.43257 0.48382 0.0
H1047 H 0.0613 0.42363 0.53582 0.0
H1048 H 0.07348 0.44933 0.51732 0.0
H1049 H 0.98927 0.40754 0.62958 0.0
H1050 H 0.99443 0.41651 0.70747 0.0
H1051 H 1.00032 0.39838 0.68149 0.0
C1052 C 0.70491 0.68057 0.61091 0.0
C1053 C 0.70191 0.66816 0.66091 0.0
C1054 C 0.7228 0.68966 0.57906 0.0
C1055 C 0.73811 0.68643 0.59816 0.0
C1056 C 0.73519 0.674 0.64877 0.0
C1057 C 0.71711 0.66493 0.67927 0.0
C1058 C 0.72529 0.70265 0.52485 0.0
C1059 C 0.75121 0.67032 0.6709 0.0
C1060 C 0.77821 0.69477 0.48497 0.0
C1061 C 0.79339 0.71332 0.50241 0.0
C1062 C 0.76011 0.68595 0.51537 0.0
C1063 C 0.75712 0.69583 0.56479 0.0
C1064 C 0.77239 0.7145 0.5829 0.0
C1065 C 0.79032 0.72306 0.55135 0.0
C1066 C 0.74416 0.66607 0.49447 0.0
C1067 C 0.76981 0.7254 0.63575 0.0
H1068 H 0.69324 0.68312 0.59638 0.0
H1069 H 0.71499 0.65547 0.71812 0.0
H1070 H 0.73769 0.71761 0.5332 0.0
H1071 H 0.72887 0.697 0.48304 0.0
H1072 H 0.71195 0.7036 0.51566 0.0
H1073 H 0.74671 0.66053 0.71162 0.0
H1074 H 0.75547 0.66361 0.63359 0.0
H1075 H 0.76439 0.68438 0.68312 0.0
H1076 H 0.78039 0.68716 0.44704 0.0
H1077 H 0.80195 0.73738 0.56515 0.0
H1078 H 0.73093 0.66678 0.4815 0.0
H1079 H 0.73995 0.65541 0.53269 0.0
H1080 H 0.7487 0.66049 0.45455 0.0
H1081 H 0.75738 0.72783 0.62634 0.0
H1082 H 0.78311 0.73979 0.64414 0.0
H1083 H 0.76625 0.71654 0.67836 0.0
C1084 C 0.44051 0.14744 0.55181 0.0
C1085 C 0.4498 0.15953 0.50107 0.0
C1086 C 0.44913 0.1381 0.58326 0.0
C1087 C 0.46737 0.14078 0.56311 0.0
C1088 C 0.47679 0.15294 0.51186 0.0
C1089 C 0.46795 0.16223 0.48168 0.0
C1090 C 0.43873 0.12541 0.63814 0.0
C1091 C 0.49618 0.15605 0.48873 0.0
C1092 C 0.49881 0.13177 0.67561 0.0
C1093 C 0.49475 0.11292 0.65906 0.0
C1094 C 0.48992 0.14094 0.645 0.0
C1095 C 0.47677 0.13112 0.59617 0.0
C1096 C 0.47273 0.11217 0.57878 0.0
C1097 C 0.4817 0.10326 0.61064 0.0
C1098 C 0.49449 0.1611 0.66521 0.0
C1099 C 0.45894 0.10133 0.52652 0.0
H1100 H 0.42651 0.14528 0.56714 0.0
H1101 H 0.47519 0.17146 0.44229 0.0
H1102 H 0.43575 0.11029 0.63003 0.0
H1103 H 0.44822 0.13102 0.6794 0.0
H1104 H 0.42468 0.12488 0.64809 0.0
H1105 H 0.50144 0.1657 0.44767 0.0
H1106 H 0.50738 0.16268 0.52544 0.0
H1107 H 0.49488 0.14179 0.47669 0.0
H1108 H 0.50879 0.13933 0.71318 0.0
H1109 H 0.47849 0.08871 0.59751 0.0
H1110 H 0.48083 0.16083 0.67903 0.0
H1111 H 0.50087 0.17153 0.62639 0.0
H1112 H 0.50489 0.16667 0.7044 0.0
H1113 H 0.44424 0.09923 0.53656 0.0
H1114 H 0.45751 0.08678 0.51826 0.0
H1115 H 0.46419 0.11006 0.48365 0.0
C1116 C 0.38587 0.99916 0.01894 0.0
C1117 C 0.37023 1.00197 0.00284 0.0
C1118 C 0.40359 0.00844 0.98651 0.0
C1119 C 0.40573 0.02075 0.93629 0.0
C1120 C 0.39005 0.02372 0.91978 0.0
C1121 C 0.37249 0.01435 0.95342 0.0
C1122 C 0.41998 0.00495 0.00577 0.0
C1123 C 0.39175 0.03662 0.86616 0.0
C1124 C 0.45749 0.0564 0.8822 0.0
C1125 C 0.45962 0.04611 0.83306 0.0
C1126 C 0.43995 0.04845 0.91588 0.0
C1127 C 0.42415 0.02983 0.89973 0.0
C1128 C 0.42617 0.01947 0.84984 0.0
C1129 C 0.44386 0.02768 0.81734 0.0
C1130 C 0.43839 0.05985 0.96913 0.0
C1131 C 0.40965 0.99962 0.83098 0.0
H1132 H 0.38434 0.98973 0.0573 0.0
H1133 H 0.36051 0.01663 0.94071 0.0
H1134 H 0.42352 0.99787 0.96775 0.0
H1135 H 0.43338 0.01909 0.01559 0.0
H1136 H 0.41622 0.99552 0.04722 0.0
H1137 H 0.3784 0.03779 0.8601 0.0
H1138 H 0.40446 0.05151 0.8728 0.0
H1139 H 0.39437 0.03069 0.82321 0.0
H1140 H 0.46956 0.07065 0.8946 0.0
H1141 H 0.44529 0.01964 0.77922 0.0
H1142 H 0.43567 0.05138 0.0123 0.0
H1143 H 0.42579 0.0622 0.96221 0.0
H1144 H 0.45184 0.0743 0.97499 0.0
H1145 H 0.40601 0.98908 0.86931 0.0
H1146 H 0.41334 0.99377 0.7898 0.0
H1147 H 0.39633 1.00049 0.82089 0.0
C1148 C 0.13298 0.49324 0.81439 0.0
C1149 C 0.11493 0.49116 0.83207 0.0
C1150 C 0.14115 0.48355 0.84596 0.0
C1151 C 0.13114 0.47157 0.89696 0.0
C1152 C 0.11287 0.46931 0.915 0.0
C1153 C 0.10493 0.47906 0.88215 0.0
C1154 C 0.1606 0.48627 0.82502 0.0
C1155 C 0.10186 0.45681 0.96953 0.0
C1156 C 0.14638 0.43516 0.95039 0.0
C1157 C 0.15942 0.44556 0.99812 0.0
C1158 C 0.13685 0.44333 0.91742 0.0
C1159 C 0.14033 0.46223 0.93296 0.0
C1160 C 0.15329 0.47266 0.98157 0.0
C1161 C 0.16272 0.46426 0.01329 0.0
C1162 C 0.12326 0.43184 0.86546 0.0
C1163 C 0.15733 0.49281 0.99985 0.0
H1164 H 0.14077 0.50242 0.77547 0.0
H1165 H 0.09097 0.47734 0.89605 0.0
H1166 H 0.17163 0.49336 0.86198 0.0
H1167 H 0.15931 0.47186 0.81566 0.0
H1168 H 0.16609 0.49539 0.78288 0.0
H1169 H 0.08758 0.45609 0.97658 0.0
H1170 H 0.09923 0.44174 0.9633 0.0
H1171 H 0.11077 0.46277 0.01181 0.0
H1172 H 0.14372 0.42071 0.93844 0.0
H1173 H 0.17265 0.47237 0.05039 0.0
H1174 H 0.12882 0.43999 0.82166 0.0
H1175 H 0.10857 0.43002 0.87352 0.0
H1176 H 0.12174 0.41715 0.86008 0.0
H1177 H 0.16415 0.50309 0.96088 0.0
H1178 H 0.1672 0.49865 0.04027 0.0
H1179 H 0.14342 0.49243 0.0109 0.0
C1180 C 0.66511 0.71714 0.8219 0.0
C1181 C 0.66847 0.7017 0.8359 0.0
C1182 C 0.67425 0.73468 0.85523 0.0
C1183 C 0.68701 0.73687 0.90413 0.0
C1184 C 0.69043 0.72135 0.91878 0.0
C1185 C 0.68116 0.70396 0.88436 0.0
C1186 C 0.67027 0.7509 0.83801 0.0
C1187 C 0.70384 0.72311 0.9709 0.0
C1188 C 0.72318 0.78868 0.95599 0.0
C1189 C 0.71351 0.79085 0.00687 0.0
C1190 C 0.71483 0.77112 0.92244 0.0
C1191 C 0.69645 0.75532 0.94048 0.0
C1192 C 0.68671 0.75737 0.99212 0.0
C1193 C 0.69531 0.77511 0.02449 0.0
C1194 C 0.72558 0.76953 0.86731 0.0
C1195 C 0.66713 0.74085 0.01299 0.0
H1196 H 0.6554 0.7156 0.78441 0.0
H1197 H 0.68386 0.69213 0.89547 0.0
H1198 H 0.66371 0.75442 0.87761 0.0
H1199 H 0.68418 0.76436 0.82657 0.0
H1200 H 0.66021 0.747 0.79811 0.0
H1201 H 0.70502 0.70975 0.97634 0.0
H1202 H 0.71868 0.73576 0.96286 0.0
H1203 H 0.69841 0.72588 0.01465 0.0
H1204 H 0.73724 0.80074 0.94207 0.0
H1205 H 0.68776 0.77659 0.06396 0.0
H1206 H 0.71655 0.76671 0.82536 0.0
H1207 H 0.72807 0.75698 0.87305 0.0
H1208 H 0.73991 0.783 0.85999 0.0
H1209 H 0.65613 0.73711 0.97607 0.0
H1210 H 0.66177 0.74457 0.05524 0.0
H1211 H 0.66818 0.72758 0.02214 0.0
C1212 C 0.77013 0.03732 0.72392 0.0
C1213 C 0.77987 0.03428 0.67496 0.0
C1214 C 0.77855 0.05537 0.75477 0.0
C1215 C 0.79703 0.0708 0.73568 0.0
C1216 C 0.80677 0.06789 0.68571 0.0
C1217 C 0.79815 0.04966 0.65626 0.0
C1218 C 0.76784 0.05786 0.80837 0.0
C1219 C 0.82641 0.08401 0.66362 0.0
C1220 C 0.81337 0.12314 0.78385 0.0
C1221 C 0.82626 0.12588 0.8322 0.0
C1222 C 0.80363 0.10524 0.75212 0.0
C1223 C 0.80669 0.08969 0.76969 0.0
C1224 C 0.81954 0.09234 0.81879 0.0
C1225 C 0.82922 0.1104 0.84914 0.0
C1226 C 0.79021 0.10301 0.69948 0.0
C1227 C 0.8231 0.07609 0.83926 0.0
H1228 H 0.756 0.02552 0.73857 0.0
H1229 H 0.80572 0.04753 0.6181 0.0
H1230 H 0.77676 0.06105 0.85074 0.0
H1231 H 0.76562 0.07048 0.80021 0.0
H1232 H 0.75337 0.04463 0.81648 0.0
H1233 H 0.83163 0.07968 0.62229 0.0
H1234 H 0.82555 0.09727 0.65245 0.0
H1235 H 0.83744 0.08805 0.70063 0.0
H1236 H 0.81099 0.13501 0.77051 0.0
H1237 H 0.83902 0.1123 0.88675 0.0
H1238 H 0.77532 0.09056 0.70839 0.0
H1239 H 0.79554 0.09965 0.65653 0.0
H1240 H 0.78921 0.1164 0.69199 0.0
H1241 H 0.80903 0.06291 0.85138 0.0
H1242 H 0.83302 0.08031 0.87961 0.0
H1243 H 0.82964 0.07197 0.80108 0.0
C1244 C 0.11214 0.82815 0.65355 0.0
C1245 C 0.12738 0.82504 0.67231 0.0
C1246 C 0.0939 0.81873 0.68306 0.0
C1247 C 0.09085 0.80606 0.73309 0.0
C1248 C 0.10615 0.80282 0.75226 0.0
C1249 C 0.1242 0.81226 0.72141 0.0
C1250 C 0.07791 0.82246 0.66095 0.0
C1251 C 0.10353 0.78959 0.80591 0.0
C1252 C 0.05152 0.79865 0.84778 0.0
C1253 C 0.03605 0.78014 0.83133 0.0
C1254 C 0.06944 0.80711 0.81656 0.0
C1255 C 0.07196 0.79695 0.76709 0.0
C1256 C 0.05639 0.77832 0.74982 0.0
C1257 C 0.03863 0.77008 0.7824 0.0
C1258 C 0.08572 0.82693 0.83675 0.0
C1259 C 0.05849 0.76716 0.69683 0.0
H1260 H 0.11439 0.83786 0.61531 0.0
H1261 H 0.13589 0.80977 0.73616 0.0
H1262 H 0.06459 0.80841 0.64965 0.0
H1263 H 0.07393 0.82949 0.698 0.0
H1264 H 0.08234 0.83203 0.6197 0.0
H1265 H 0.11669 0.78825 0.81419 0.0
H1266 H 0.10034 0.79534 0.84821 0.0
H1267 H 0.09086 0.77479 0.79765 0.0
H1268 H 0.04974 0.80651 0.88577 0.0
H1269 H 0.02676 0.75578 0.7694 0.0
H1270 H 0.08991 0.83753 0.79836 0.0
H1271 H 0.09886 0.82598 0.84911 0.0
H1272 H 0.08152 0.83273 0.87688 0.0
H1273 H 0.062 0.77597 0.6541 0.0
H1274 H 0.04499 0.75289 0.68902 0.0
H1275 H 0.07079 0.76447 0.70565 0.0
C1276 C 0.33438 0.36198 0.64706 0.0
C1277 C 0.3369 0.38002 0.66676 0.0
C1278 C 0.34378 0.35321 0.67709 0.0
C1279 C 0.35585 0.3626 0.72852 0.0
C1280 C 0.35849 0.38084 0.74862 0.0
C1281 C 0.34906 0.38937 0.71732 0.0
C1282 C 0.34069 0.33382 0.65403 0.0
C1283 C 0.37108 0.39119 0.8037 0.0
C1284 C 0.3631 0.3306 0.84332 0.0
C1285 C 0.38194 0.33421 0.82862 0.0
C1286 C 0.35454 0.33984 0.81133 0.0
C1287 C 0.36496 0.3529 0.76294 0.0
C1288 C 0.38392 0.35652 0.74738 0.0
C1289 C 0.39223 0.34719 0.78063 0.0
C1290 C 0.33436 0.33569 0.82965 0.0
C1291 C 0.39539 0.37022 0.69562 0.0
H1292 H 0.32514 0.35471 0.60774 0.0
H1293 H 0.35111 0.40332 0.73281 0.0
H1294 H 0.35498 0.33494 0.64384 0.0
H1295 H 0.33349 0.32251 0.69016 0.0
H1296 H 0.33152 0.32883 0.6119 0.0
H1297 H 0.37201 0.40549 0.81261 0.0
H1298 H 0.36505 0.38189 0.8452 0.0
H1299 H 0.38608 0.3937 0.79671 0.0
H1300 H 0.35504 0.32068 0.88052 0.0
H1301 H 0.40678 0.35006 0.76897 0.0
H1302 H 0.3242 0.32944 0.79012 0.0
H1303 H 0.33482 0.3495 0.84269 0.0
H1304 H 0.3283 0.32532 0.86885 0.0
H1305 H 0.38699 0.36511 0.6521 0.0
H1306 H 0.40986 0.37133 0.68889 0.0
H1307 H 0.3977 0.38503 0.70511 0.0
C1308 C 0.03988 0.34785 0.28886 0.0
C1309 C 0.03709 0.33569 0.33941 0.0
C1310 C 0.05785 0.35731 0.25758 0.0
C1311 C 0.07345 0.35469 0.27768 0.0
C1312 C 0.0708 0.34262 0.32911 0.0
C1313 C 0.05264 0.3332 0.35913 0.0
C1314 C 0.06006 0.3699 0.20249 0.0
C1315 C 0.08711 0.33955 0.35218 0.0
C1316 C 0.11273 0.3619 0.16306 0.0
C1317 C 0.12796 0.38073 0.1778 0.0
C1318 C 0.09492 0.35337 0.19493 0.0
C1319 C 0.09226 0.3638 0.24325 0.0
C1320 C 0.10759 0.38275 0.25882 0.0
C1321 C 0.12525 0.39104 0.22568 0.0
C1322 C 0.0789 0.33319 0.1766 0.0
C1323 C 0.10534 0.39423 0.3105 0.0
H1324 H 0.02796 0.34987 0.27336 0.0
H1325 H 0.05068 0.32396 0.39844 0.0
H1326 H 0.07255 0.38489 0.20943 0.0
H1327 H 0.06332 0.36386 0.16098 0.0
H1328 H 0.04669 0.37082 0.19362 0.0
H1329 H 0.08295 0.3304 0.39435 0.0
H1330 H 0.09124 0.33235 0.31609 0.0
H1331 H 0.10027 0.35386 0.36232 0.0
H1332 H 0.11461 0.35383 0.12593 0.0
H1333 H 0.13693 0.40558 0.23737 0.0
H1334 H 0.06555 0.33366 0.1636 0.0
H1335 H 0.075 0.32303 0.21613 0.0
H1336 H 0.08321 0.32714 0.13738 0.0
H1337 H 0.09282 0.39652 0.301 0.0
H1338 H 0.11867 0.40871 0.31716 0.0
H1339 H 0.10207 0.38586 0.35407 0.0
C1340 C 0.81642 0.77258 0.2859 0.0
C1341 C 0.82876 0.78216 0.3359 0.0
C1342 C 0.8073 0.78121 0.25337 0.0
C1343 C 0.81048 0.7998 0.27159 0.0
C1344 C 0.82297 0.80958 0.32184 0.0
C1345 C 0.83202 0.80068 0.3532 0.0
C1346 C 0.7942 0.77042 0.19966 0.0
C1347 C 0.82663 0.82936 0.34288 0.0
C1348 C 0.80088 0.83034 0.15689 0.0
C1349 C 0.78226 0.82667 0.1748 0.0
C1350 C 0.81018 0.82161 0.18777 0.0
C1351 C 0.80072 0.80904 0.23816 0.0
C1352 C 0.78201 0.80541 0.25686 0.0
C1353 C 0.77297 0.8142 0.2248 0.0
C1354 C 0.83007 0.82575 0.1662 0.0
C1355 C 0.77155 0.79223 0.31076 0.0
H1356 H 0.81384 0.75829 0.27214 0.0
H1357 H 0.84146 0.80818 0.39192 0.0
H1358 H 0.77918 0.7676 0.20855 0.0
H1359 H 0.79956 0.77953 0.15755 0.0
H1360 H 0.7935 0.75623 0.1907 0.0
H1361 H 0.83674 0.83502 0.3828 0.0
H1362 H 0.83296 0.84007 0.30473 0.0
H1363 H 0.81261 0.82843 0.35594 0.0
H1364 H 0.80814 0.83988 0.11813 0.0
H1365 H 0.7586 0.8113 0.23902 0.0
H1366 H 0.82951 0.81187 0.15346 0.0
H1367 H 0.84086 0.83242 0.20398 0.0
H1368 H 0.83538 0.83574 0.12595 0.0
H1369 H 0.76922 0.77737 0.30205 0.0
H1370 H 0.75714 0.79104 0.31982 0.0
H1371 H 0.78067 0.79787 0.35276 0.0
C1372 C 0.33155 0.04903 0.16089 0.0
C1373 C 0.33546 0.03411 0.1771 0.0
C1374 C 0.3405 0.06701 0.19195 0.0
C1375 C 0.35355 0.07012 0.24086 0.0
C1376 C 0.35745 0.05508 0.25788 0.0
C1377 C 0.34842 0.03728 0.22559 0.0
C1378 C 0.33607 0.08273 0.17214 0.0
C1379 C 0.37115 0.0578 0.3102 0.0
C1380 C 0.38996 0.12248 0.28659 0.0
C1381 C 0.38065 0.12523 0.33742 0.0
C1382 C 0.38131 0.10462 0.25469 0.0
C1383 C 0.363 0.08908 0.27444 0.0
C1384 C 0.35356 0.09175 0.32576 0.0
C1385 C 0.36244 0.1098 0.35642 0.0
C1386 C 0.39173 0.10239 0.19976 0.0
C1387 C 0.3341 0.07549 0.34846 0.0
H1388 H 0.32163 0.04678 0.12328 0.0
H1389 H 0.35151 0.02583 0.23846 0.0
H1390 H 0.32968 0.08673 0.21106 0.0
H1391 H 0.34979 0.09611 0.1587 0.0
H1392 H 0.32573 0.07806 0.13281 0.0
H1393 H 0.37249 0.04461 0.31808 0.0
H1394 H 0.3859 0.07038 0.30051 0.0
H1395 H 0.36588 0.0612 0.35318 0.0
H1396 H 0.40401 0.13431 0.27156 0.0
H1397 H 0.35518 0.11173 0.39585 0.0
H1398 H 0.38231 0.09869 0.15838 0.0
H1399 H 0.39461 0.09017 0.20753 0.0
H1400 H 0.40585 0.11589 0.19018 0.0
H1401 H 0.32296 0.07109 0.31163 0.0
H1402 H 0.32882 0.07982 0.38964 0.0
H1403 H 0.3353 0.06245 0.36014 0.0
loop_
_geom_bond_atom_site_label_1
_geom_bond_atom_site_label_2
_geom_bond_distance
_geom_bond_site_symmetry_2
_ccdc_geom_bond_type
C0 O2 1.247 . S
C0 O4 1.258 . S
C1 O8 1.247 . S
C1 O9 1.258 . S
O2 C0 1.247 . S
O2 Zn3 2.028 . S
Zn3 O2 2.028 . S
Zn3 O7 2.035 . S
Zn3 O9 2.035 . S
Zn3 O10 2.028 . S
O4 C0 1.258 . S
O4 Zn5 2.035 . S
Zn5 O4 2.035 . S
Zn5 O6 2.028 . S
Zn5 O8 2.028 . S
Zn5 O11 2.035 . S
O6 Zn5 2.028 . S
O6 C12 1.247 . S
O7 Zn3 2.035 . S
O7 C12 1.258 . S
O8 C1 1.247 . S
O8 Zn5 2.028 . S
O9 C1 1.258 . S
O9 Zn3 2.035 . S
O10 Zn3 2.028 . S
O10 C13 1.247 . S
O11 Zn5 2.035 . S
O11 C13 1.258 . S
C12 O6 1.247 . S
C12 O7 1.258 . S
C13 O10 1.247 . S
C13 O11 1.258 . S
C14 O16 1.247 . S
C14 O18 1.258 . S
C15 O22 1.247 . S
C15 O23 1.258 . S
O16 C14 1.247 . S
O16 Zn17 2.028 . S
Zn17 O16 2.028 . S
Zn17 O21 2.035 . S
Zn17 O23 2.035 . S
Zn17 O24 2.028 . S
O18 C14 1.258 . S
O18 Zn19 2.035 . S
Zn19 O18 2.035 . S
Zn19 O20 2.028 . S
Zn19 O22 2.028 . S
Zn19 O25 2.035 . S
O20 Zn19 2.028 . S
O20 C26 1.247 . S
O21 Zn17 2.035 . S
O21 C26 1.258 . S
O22 C15 1.247 . S
O22 Zn19 2.028 . S
O23 C15 1.258 . S
O23 Zn17 2.035 . S
O24 Zn17 2.028 . S
O24 C27 1.247 . S
O25 Zn19 2.035 . S
O25 C27 1.258 . S
C26 O20 1.247 . S
C26 O21 1.258 . S
C27 O24 1.247 . S
C27 O25 1.258 . S
C28 O30 1.247 . S
C28 O32 1.258 . S
C29 O36 1.247 . S
C29 O37 1.258 . S
O30 C28 1.247 . S
O30 Zn31 2.028 . S
Zn31 O30 2.028 . S
Zn31 O35 2.035 . S
Zn31 O37 2.035 . S
Zn31 O38 2.028 . S
O32 C28 1.258 . S
O32 Zn33 2.035 . S
Zn33 O32 2.035 . S
Zn33 O34 2.028 . S
Zn33 O36 2.028 . S
Zn33 O39 2.035 . S
O34 Zn33 2.028 . S
O34 C40 1.247 . S
O35 Zn31 2.035 . S
O35 C40 1.258 . S
O36 C29 1.247 . S
O36 Zn33 2.028 . S
O37 C29 1.258 . S
O37 Zn31 2.035 . S
O38 Zn31 2.028 . S
O38 C41 1.247 . S
O39 Zn33 2.035 . S
O39 C41 1.258 . S
C40 O34 1.247 . S
C40 O35 1.258 . S
C41 O38 1.247 . S
C41 O39 1.258 . S
C42 O44 1.247 . S
C42 O46 1.258 . S
C43 O50 1.247 . S
C43 O51 1.258 . S
O44 C42 1.247 . S
O44 Zn45 2.028 . S
Zn45 O44 2.028 . S
Zn45 O49 2.035 . S
Zn45 O51 2.035 . S
Zn45 O52 2.028 . S
O46 C42 1.258 . S
O46 Zn47 2.035 . S
Zn47 O46 2.035 . S
Zn47 O48 2.028 . S
Zn47 O50 2.028 . S
Zn47 O53 2.035 . S
O48 Zn47 2.028 . S
O48 C54 1.247 . S
O49 Zn45 2.035 . S
O49 C54 1.258 . S
O50 C43 1.247 . S
O50 Zn47 2.028 . S
O51 C43 1.258 . S
O51 Zn45 2.035 . S
O52 Zn45 2.028 . S
O52 C55 1.247 . S
O53 Zn47 2.035 . S
O53 C55 1.258 . S
C54 O48 1.247 . S
C54 O49 1.258 . S
C55 O52 1.247 . S
C55 O53 1.258 . S
C56 O58 1.247 . S
C56 O60 1.258 . S
C57 O64 1.247 . S
C57 O65 1.258 . S
O58 C56 1.247 . S
O58 Zn59 2.028 . S
Zn59 O58 2.028 . S
Zn59 O63 2.035 . S
Zn59 O65 2.035 . S
Zn59 O66 2.028 . S
O60 C56 1.258 . S
O60 Zn61 2.035 . S
Zn61 O60 2.035 . S
Zn61 O62 2.028 . S
Zn61 O64 2.028 . S
Zn61 O67 2.035 . S
O62 Zn61 2.028 . S
O62 C68 1.247 . S
O63 Zn59 2.035 . S
O63 C68 1.258 . S
O64 C57 1.247 . S
O64 Zn61 2.028 . S
O65 C57 1.258 . S
O65 Zn59 2.035 . S
O66 Zn59 2.028 . S
O66 C69 1.247 . S
O67 Zn61 2.035 . S
O67 C69 1.258 . S
C68 O62 1.247 . S
C68 O63 1.258 . S
C69 O66 1.247 . S
C69 O67 1.258 . S
C70 O72 1.247 . S
C70 O74 1.258 . S
C71 O78 1.247 . S
C71 O79 1.258 . S
O72 C70 1.247 . S
O72 Zn73 2.028 . S
Zn73 O72 2.028 . S
Zn73 O77 2.035 . S
Zn73 O79 2.035 . S
Zn73 O80 2.028 . S
O74 C70 1.258 . S
O74 Zn75 2.035 . S
Zn75 O74 2.035 . S
Zn75 O76 2.028 . S
Zn75 O78 2.028 . S
Zn75 O81 2.035 . S
O76 Zn75 2.028 . S
O76 C82 1.247 . S
O77 Zn73 2.035 . S
O77 C82 1.258 . S
O78 C71 1.247 . S
O78 Zn75 2.028 . S
O79 C71 1.258 . S
O79 Zn73 2.035 . S
O80 Zn73 2.028 . S
O80 C83 1.247 . S
O81 Zn75 2.035 . S
O81 C83 1.258 . S
C82 O76 1.247 . S
C82 O77 1.258 . S
C83 O80 1.247 . S
C83 O81 1.258 . S
C84 O86 1.247 . S
C84 O88 1.258 . S
C85 O92 1.245 . S
C85 O93 1.257 1_545 S
O86 C84 1.247 . S
O86 Zn87 2.028 . S
Zn87 O86 2.028 . S
Zn87 O91 2.035 . S
Zn87 O93 2.035 . S
Zn87 O94 2.028 . S
O88 C84 1.258 . S
O88 Zn89 2.035 . S
Zn89 O88 2.035 . S
Zn89 O90 2.028 1_565 S
Zn89 O92 2.028 1_565 S
Zn89 O95 2.035 . S
O90 Zn89 2.028 1_545 S
O90 C96 1.247 . S
O91 Zn87 2.035 . S
O91 C96 1.258 1_565 S
O92 C85 1.245 . S
O92 Zn89 2.028 1_545 S
O93 C85 1.257 1_565 S
O93 Zn87 2.035 . S
O94 Zn87 2.028 . S
O94 C97 1.247 . S
O95 Zn89 2.035 . S
O95 C97 1.258 . S
C96 O90 1.247 . S
C96 O91 1.258 1_545 S
C97 O94 1.247 . S
C97 O95 1.258 . S
C98 O100 1.247 . S
C98 O102 1.258 . S
C99 O106 1.247 . S
C99 O107 1.258 . S
O100 C98 1.247 . S
O100 Zn101 2.028 . S
Zn101 O100 2.028 . S
Zn101 O105 2.035 . S
Zn101 O107 2.035 . S
Zn101 O108 2.028 . S
O102 C98 1.258 . S
O102 Zn103 2.035 . S
Zn103 O102 2.035 . S
Zn103 O104 2.028 . S
Zn103 O106 2.028 . S
Zn103 O109 2.035 . S
O104 Zn103 2.028 . S
O104 C110 1.247 . S
O105 Zn101 2.035 . S
O105 C110 1.258 . S
O106 C99 1.247 . S
O106 Zn103 2.028 . S
O107 C99 1.258 . S
O107 Zn101 2.035 . S
O108 Zn101 2.028 . S
O108 C111 1.247 . S
O109 Zn103 2.035 . S
O109 C111 1.258 . S
C110 O104 1.247 . S
C110 O105 1.258 . S
C111 O108 1.247 . S
C111 O109 1.258 . S
C112 O114 1.247 . S
C112 O116 1.258 . S
C113 O120 1.247 . S
C113 O121 1.258 . S
O114 C112 1.247 . S
O114 Zn115 2.028 . S
Zn115 O114 2.028 . S
Zn115 O119 2.035 . S
Zn115 O121 2.035 . S
Zn115 O122 2.028 . S
O116 C112 1.258 . S
O116 Zn117 2.035 . S
Zn117 O116 2.035 . S
Zn117 O118 2.028 . S
Zn117 O120 2.028 . S
Zn117 O123 2.035 . S
O118 Zn117 2.028 . S
O118 C124 1.247 . S
O119 Zn115 2.035 . S
O119 C124 1.258 . S
O120 C113 1.247 . S
O120 Zn117 2.028 . S
O121 C113 1.258 . S
O121 Zn115 2.035 . S
O122 Zn115 2.028 . S
O122 C125 1.247 . S
O123 Zn117 2.035 . S
O123 C125 1.258 . S
C124 O118 1.247 . S
C124 O119 1.258 . S
C125 O122 1.247 . S
C125 O123 1.258 . S
C126 O128 1.247 . S
C126 O130 1.258 . S
C127 O134 1.247 . S
C127 O135 1.258 . S
O128 C126 1.247 . S
O128 Zn129 2.028 . S
Zn129 O128 2.028 . S
Zn129 O133 2.035 . S
Zn129 O135 2.035 . S
Zn129 O136 2.028 . S
O130 C126 1.258 . S
O130 Zn131 2.035 . S
Zn131 O130 2.035 . S
Zn131 O132 2.028 . S
Zn131 O134 2.028 . S
Zn131 O137 2.035 . S
O132 Zn131 2.028 . S
O132 C138 1.247 . S
O133 Zn129 2.035 . S
O133 C138 1.258 . S
O134 C127 1.247 . S
O134 Zn131 2.028 . S
O135 C127 1.258 . S
O135 Zn129 2.035 . S
O136 Zn129 2.028 . S
O136 C139 1.247 . S
O137 Zn131 2.035 . S
O137 C139 1.258 . S
C138 O132 1.247 . S
C138 O133 1.258 . S
C139 O136 1.247 . S
C139 O137 1.258 . S
C140 O142 1.247 1_545 S
C140 O144 1.258 . S
C141 O148 1.247 . S
C141 O149 1.258 . S
O142 C140 1.247 1_565 S
O142 Zn143 2.028 . S
Zn143 O142 2.028 . S
Zn143 O147 2.035 . S
Zn143 O149 2.035 . S
Zn143 O150 2.028 . S
O144 C140 1.258 . S
O144 Zn145 2.035 1_545 S
Zn145 O144 2.035 1_565 S
Zn145 O146 2.028 . S
Zn145 O148 2.028 . S
Zn145 O151 2.035 1_565 S
O146 Zn145 2.028 . S
O146 C152 1.247 . S
O147 Zn143 2.035 . S
O147 C152 1.258 . S
O148 C141 1.247 . S
O148 Zn145 2.028 . S
O149 C141 1.258 . S
O149 Zn143 2.035 . S
O150 Zn143 2.028 . S
O150 C153 1.251 1_565 S
O151 Zn145 2.035 1_545 S
O151 C153 1.255 . S
C152 O146 1.247 . S
C152 O147 1.258 . S
C153 O150 1.251 1_545 S
C153 O151 1.255 . S
C154 O156 1.247 . S
C154 O158 1.258 . S
C155 O162 1.247 . S
C155 O163 1.258 . S
O156 C154 1.247 . S
O156 Zn157 2.028 . S
Zn157 O156 2.028 . S
Zn157 O161 2.035 . S
Zn157 O163 2.035 . S
Zn157 O164 2.028 . S
O158 C154 1.258 . S
O158 Zn159 2.035 . S
Zn159 O158 2.035 . S
Zn159 O160 2.028 . S
Zn159 O162 2.028 . S
Zn159 O165 2.035 . S
O160 Zn159 2.028 . S
O160 C166 1.247 . S
O161 Zn157 2.035 . S
O161 C166 1.258 . S
O162 C155 1.247 . S
O162 Zn159 2.028 . S
O163 C155 1.258 . S
O163 Zn157 2.035 . S
O164 Zn157 2.028 . S
O164 C167 1.247 . S
O165 Zn159 2.035 . S
O165 C167 1.258 . S
C166 O160 1.247 . S
C166 O161 1.258 . S
C167 O164 1.247 . S
C167 O165 1.258 . S
C168 O170 1.247 . S
C168 O172 1.258 . S
C169 O176 1.247 . S
C169 O177 1.258 . S
O170 C168 1.247 . S
O170 Zn171 2.028 . S
Zn171 O170 2.028 . S
Zn171 O175 2.035 . S
Zn171 O177 2.035 . S
Zn171 O178 2.028 . S
O172 C168 1.258 . S
O172 Zn173 2.035 . S
Zn173 O172 2.035 . S
Zn173 O174 2.028 . S
Zn173 O176 2.028 . S
Zn173 O179 2.035 . S
O174 Zn173 2.028 . S
O174 C180 1.247 . S
O175 Zn171 2.035 . S
O175 C180 1.258 . S
O176 C169 1.247 . S
O176 Zn173 2.028 . S
O177 C169 1.258 . S
O177 Zn171 2.035 . S
O178 Zn171 2.028 . S
O178 C181 1.247 . S
O179 Zn173 2.035 . S
O179 C181 1.258 . S
C180 O174 1.247 . S
C180 O175 1.258 . S
C181 O178 1.247 . S
C181 O179 1.258 . S
C182 O184 1.247 . S
C182 O186 1.258 . S
C183 O190 1.247 . S
C183 O191 1.258 . S
O184 C182 1.247 . S
O184 Zn185 2.028 . S
Zn185 O184 2.028 . S
Zn185 O189 2.035 . S
Zn185 O191 2.035 . S
Zn185 O192 2.028 . S
O186 C182 1.258 . S
O186 Zn187 2.035 . S
Zn187 O186 2.035 . S
Zn187 O188 2.028 . S
Zn187 O190 2.028 . S
Zn187 O193 2.035 . S
O188 Zn187 2.028 . S
O188 C194 1.247 . S
O189 Zn185 2.035 . S
O189 C194 1.258 . S
O190 C183 1.247 . S
O190 Zn187 2.028 . S
O191 C183 1.258 . S
O191 Zn185 2.035 . S
O192 Zn185 2.028 . S
O192 C195 1.247 . S
O193 Zn187 2.035 . S
O193 C195 1.258 . S
C194 O188 1.247 . S
C194 O189 1.258 . S
C195 O192 1.247 . S
C195 O193 1.258 . S
C196 O198 1.247 1_455 S
C196 O200 1.259 . S
C197 O204 1.247 . S
C197 O205 1.258 . S
O198 C196 1.247 1_655 S
O198 Zn199 2.028 . S
Zn199 O198 2.028 . S
Zn199 O203 2.035 . S
Zn199 O205 2.035 . S
Zn199 O206 2.028 . S
O200 C196 1.259 . S
O200 Zn201 2.035 1_455 S
Zn201 O200 2.035 1_655 S
Zn201 O202 2.028 . S
Zn201 O204 2.028 . S
Zn201 O207 2.035 1_655 S
O202 Zn201 2.028 . S
O202 C208 1.247 . S
O203 Zn199 2.035 . S
O203 C208 1.258 . S
O204 C197 1.247 . S
O204 Zn201 2.028 . S
O205 C197 1.258 . S
O205 Zn199 2.035 . S
O206 Zn199 2.028 . S
O206 C209 1.247 1_655 S
O207 Zn201 2.035 1_455 S
O207 C209 1.258 . S
C208 O202 1.247 . S
C208 O203 1.258 . S
C209 O206 1.247 1_455 S
C209 O207 1.258 . S
C210 O212 1.247 . S
C210 O214 1.258 . S
C211 O218 1.247 . S
C211 O219 1.258 . S
O212 C210 1.247 . S
O212 Zn213 2.028 . S
Zn213 O212 2.028 . S
Zn213 O217 2.035 . S
Zn213 O219 2.035 . S
Zn213 O220 2.028 . S
O214 C210 1.258 . S
O214 Zn215 2.035 . S
Zn215 O214 2.035 . S
Zn215 O216 2.028 . S
Zn215 O218 2.028 . S
Zn215 O221 2.035 . S
O216 Zn215 2.028 . S
O216 C222 1.247 . S
O217 Zn213 2.035 . S
O217 C222 1.258 . S
O218 C211 1.247 . S
O218 Zn215 2.028 . S
O219 C211 1.258 . S
O219 Zn213 2.035 . S
O220 Zn213 2.028 . S
O220 C223 1.247 . S
O221 Zn215 2.035 . S
O221 C223 1.258 . S
C222 O216 1.247 . S
C222 O217 1.258 . S
C223 O220 1.247 . S
C223 O221 1.258 . S
C224 O226 1.247 . S
C224 O228 1.258 1_455 S
C225 O232 1.247 . S
C225 O233 1.258 . S
O226 C224 1.247 . S
O226 Zn227 2.028 1_455 S
Zn227 O226 2.028 1_655 S
Zn227 O231 2.035 . S
Zn227 O233 2.035 . S
Zn227 O234 2.028 1_655 S
O228 C224 1.258 1_655 S
O228 Zn229 2.035 . S
Zn229 O228 2.035 . S
Zn229 O230 2.028 . S
Zn229 O232 2.028 . S
Zn229 O235 2.035 . S
O230 Zn229 2.028 . S
O230 C236 1.247 . S
O231 Zn227 2.035 . S
O231 C236 1.258 . S
O232 C225 1.247 . S
O232 Zn229 2.028 . S
O233 C225 1.258 . S
O233 Zn227 2.035 . S
O234 Zn227 2.028 1_455 S
O234 C237 1.247 . S
O235 Zn229 2.035 . S
O235 C237 1.258 1_655 S
C236 O230 1.247 . S
C236 O231 1.258 . S
C237 O234 1.247 . S
C237 O235 1.258 1_455 S
C238 O240 1.247 . S
C238 O242 1.258 . S
C239 O246 1.247 . S
C239 O247 1.258 . S
O240 C238 1.247 . S
O240 Zn241 2.028 . S
Zn241 O240 2.028 . S
Zn241 O245 2.035 . S
Zn241 O247 2.035 . S
Zn241 O248 2.028 . S
O242 C238 1.258 . S
O242 Zn243 2.035 . S
Zn243 O242 2.035 . S
Zn243 O244 2.028 . S
Zn243 O246 2.028 . S
Zn243 O249 2.035 . S
O244 Zn243 2.028 . S
O244 C250 1.247 . S
O245 Zn241 2.035 . S
O245 C250 1.258 . S
O246 C239 1.247 . S
O246 Zn243 2.028 . S
O247 C239 1.258 . S
O247 Zn241 2.035 . S
O248 Zn241 2.028 . S
O248 C251 1.247 . S
O249 Zn243 2.035 . S
O249 C251 1.258 . S
C250 O244 1.247 . S
C250 O245 1.258 . S
C251 O248 1.247 . S
C251 O249 1.258 . S
C252 C253 1.391 . S
C252 C254 1.394 . S
C252 H268 0.931 . S
C253 C252 1.391 . S
C253 C257 1.376 . S
C254 C252 1.394 . S
C254 C255 1.369 . S
C254 C258 1.531 . S
C255 C254 1.369 . S
C255 C256 1.410 . S
C255 C263 1.503 1_556 S
C256 C255 1.410 . S
C256 C257 1.392 . S
C256 C259 1.511 . S
C257 C253 1.376 . S
C257 C256 1.392 . S
C257 H269 0.929 . S
C258 C254 1.531 . S
C258 H270 0.960 . S
C258 H271 0.962 1_556 S
C258 H272 0.960 . S
C259 C256 1.511 . S
C259 H273 0.961 . S
C259 H274 0.961 . S
C259 H275 0.961 . S
C260 C261 1.370 . S
C260 C262 1.363 . S
C260 H276 0.931 . S
C261 C260 1.370 . S
C261 C265 1.408 . S
C262 C260 1.363 . S
C262 C263 1.370 . S
C262 C266 1.524 . S
C263 C255 1.503 1_554 S
C263 C262 1.370 . S
C263 C264 1.403 . S
C264 C263 1.403 . S
C264 C265 1.404 . S
C264 C267 1.539 1_554 S
C265 C261 1.408 . S
C265 C264 1.404 . S
C265 H277 0.930 . S
C266 C262 1.524 . S
C266 H278 0.956 . S
C266 H279 0.961 . S
C266 H280 0.961 . S
C267 C264 1.539 1_556 S
C267 H281 0.958 . S
C267 H282 0.961 . S
C267 H283 0.960 . S
H268 C252 0.931 . S
H269 C257 0.929 . S
H270 C258 0.960 . S
H271 C258 0.962 1_554 S
H272 C258 0.960 . S
H273 C259 0.961 . S
H274 C259 0.961 . S
H275 C259 0.961 . S
H276 C260 0.931 . S
H277 C265 0.930 . S
H278 C266 0.956 . S
H279 C266 0.961 . S
H280 C266 0.961 . S
H281 C267 0.958 . S
H282 C267 0.961 . S
H283 C267 0.960 . S
C284 C285 1.391 . S
C284 C286 1.394 . S
C284 H300 0.931 . S
C285 C284 1.391 . S
C285 C289 1.376 . S
C286 C284 1.394 . S
C286 C287 1.369 . S
C286 C290 1.531 1_556 S
C287 C286 1.369 . S
C287 C288 1.410 . S
C287 C295 1.503 1_556 S
C288 C287 1.410 . S
C288 C289 1.392 . S
C288 C291 1.511 . S
C289 C285 1.376 . S
C289 C288 1.392 . S
C289 H301 0.929 . S
C290 C286 1.531 1_554 S
C290 H302 0.960 . S
C290 H303 0.962 . S
C290 H304 0.960 . S
C291 C288 1.511 . S
C291 H305 0.961 . S
C291 H306 0.961 . S
C291 H307 0.961 . S
C292 C293 1.370 . S
C292 C294 1.363 . S
C292 H308 0.931 . S
C293 C292 1.370 . S
C293 C297 1.408 . S
C294 C292 1.363 . S
C294 C295 1.370 . S
C294 C298 1.524 . S
C295 C287 1.503 1_554 S
C295 C294 1.370 . S
C295 C296 1.403 . S
C296 C295 1.403 . S
C296 C297 1.404 . S
C296 C299 1.539 1_554 S
C297 C293 1.408 . S
C297 C296 1.404 . S
C297 H309 0.930 . S
C298 C294 1.524 . S
C298 H310 0.956 . S
C298 H311 0.961 . S
C298 H312 0.961 . S
C299 C296 1.539 1_556 S
C299 H313 0.958 . S
C299 H314 0.961 . S
C299 H315 0.960 . S
H300 C284 0.931 . S
H301 C289 0.929 . S
H302 C290 0.960 . S
H303 C290 0.962 . S
H304 C290 0.960 . S
H305 C291 0.961 . S
H306 C291 0.961 . S
H307 C291 0.961 . S
H308 C292 0.931 . S
H309 C297 0.930 . S
H310 C298 0.956 . S
H311 C298 0.961 . S
H312 C298 0.961 . S
H313 C299 0.958 . S
H314 C299 0.961 . S
H315 C299 0.960 . S
C316 C317 1.391 . S
C316 C318 1.394 . S
C316 H332 0.931 . S
C317 C316 1.391 . S
C317 C321 1.376 . S
C318 C316 1.394 . S
C318 C319 1.369 . S
C318 C322 1.531 . S
C319 C318 1.369 . S
C319 C320 1.410 . S
C319 C327 1.503 1_554 S
C320 C319 1.410 . S
C320 C321 1.392 . S
C320 C323 1.511 1_554 S
C321 C317 1.376 . S
C321 C320 1.392 . S
C321 H333 0.929 . S
C322 C318 1.531 . S
C322 H334 0.960 . S
C322 H335 0.962 . S
C322 H336 0.960 . S
C323 C320 1.511 1_556 S
C323 H337 0.961 . S
C323 H338 0.961 . S
C323 H339 0.961 . S
C324 C325 1.370 . S
C324 C326 1.363 . S
C324 H340 0.931 . S
C325 C324 1.370 . S
C325 C329 1.408 . S
C326 C324 1.363 . S
C326 C327 1.370 . S
C326 C330 1.524 1_556 S
C327 C319 1.503 1_556 S
C327 C326 1.370 . S
C327 C328 1.403 . S
C328 C327 1.403 . S
C328 C329 1.404 . S
C328 C331 1.539 . S
C329 C325 1.408 . S
C329 C328 1.404 . S
C329 H341 0.930 . S
C330 C326 1.524 1_554 S
C330 H342 0.956 . S
C330 H343 0.961 . S
C330 H344 0.961 . S
C331 C328 1.539 . S
C331 H345 0.958 . S
C331 H346 0.961 . S
C331 H347 0.960 . S
H332 C316 0.931 . S
H333 C321 0.929 . S
H334 C322 0.960 . S
H335 C322 0.962 . S
H336 C322 0.960 . S
H337 C323 0.961 . S
H338 C323 0.961 . S
H339 C323 0.961 . S
H340 C324 0.931 . S
H341 C329 0.930 . S
H342 C330 0.956 . S
H343 C330 0.961 . S
H344 C330 0.961 . S
H345 C331 0.958 . S
H346 C331 0.961 . S
H347 C331 0.960 . S
C348 C349 1.391 . S
C348 C350 1.394 . S
C348 H364 0.931 . S
C349 C348 1.391 . S
C349 C353 1.376 . S
C350 C348 1.394 . S
C350 C351 1.369 . S
C350 C354 1.531 . S
C351 C350 1.369 . S
C351 C352 1.410 . S
C351 C359 1.503 . S
C352 C351 1.410 . S
C352 C353 1.392 . S
C352 C355 1.511 . S
C353 C349 1.376 . S
C353 C352 1.392 . S
C353 H365 0.929 . S
C354 C350 1.531 . S
C354 H366 0.960 . S
C354 H367 0.962 . S
C354 H368 0.960 . S
C355 C352 1.511 . S
C355 H369 0.961 . S
C355 H370 0.961 . S
C355 H371 0.961 . S
C356 C357 1.370 . S
C356 C358 1.363 . S
C356 H372 0.931 . S
C357 C356 1.370 . S
C357 C361 1.408 . S
C358 C356 1.363 . S
C358 C359 1.370 . S
C358 C362 1.524 . S
C359 C351 1.503 . S
C359 C358 1.370 . S
C359 C360 1.403 . S
C360 C359 1.403 . S
C360 C361 1.404 . S
C360 C363 1.539 . S
C361 C357 1.408 . S
C361 C360 1.404 . S
C361 H373 0.930 . S
C362 C358 1.524 . S
C362 H374 0.956 . S
C362 H375 0.961 . S
C362 H376 0.961 . S
C363 C360 1.539 . S
C363 H377 0.958 . S
C363 H378 0.961 . S
C363 H379 0.960 . S
H364 C348 0.931 . S
H365 C353 0.929 . S
H366 C354 0.960 . S
H367 C354 0.962 . S
H368 C354 0.960 . S
H369 C355 0.961 . S
H370 C355 0.961 . S
H371 C355 0.961 . S
H372 C356 0.931 . S
H373 C361 0.930 . S
H374 C362 0.956 . S
H375 C362 0.961 . S
H376 C362 0.961 . S
H377 C363 0.958 . S
H378 C363 0.961 . S
H379 C363 0.960 . S
C380 C381 1.391 . S
C380 C382 1.394 . S
C380 H396 0.931 . S
C381 C380 1.391 . S
C381 C385 1.376 . S
C382 C380 1.394 . S
C382 C383 1.369 . S
C382 C386 1.531 . S
C383 C382 1.369 . S
C383 C384 1.410 . S
C383 C391 1.503 . S
C384 C383 1.410 . S
C384 C385 1.392 . S
C384 C387 1.511 . S
C385 C381 1.376 . S
C385 C384 1.392 . S
C385 H397 0.929 . S
C386 C382 1.531 . S
C386 H398 0.960 . S
C386 H399 0.962 . S
C386 H400 0.960 . S
C387 C384 1.511 . S
C387 H401 0.961 . S
C387 H402 0.961 . S
C387 H403 0.961 . S
C388 C389 1.370 . S
C388 C390 1.363 . S
C388 H404 0.931 . S
C389 C388 1.370 . S
C389 C393 1.408 . S
C390 C388 1.363 . S
C390 C391 1.370 . S
C390 C394 1.524 . S
C391 C383 1.503 . S
C391 C390 1.370 . S
C391 C392 1.403 . S
C392 C391 1.403 . S
C392 C393 1.404 . S
C392 C395 1.539 . S
C393 C389 1.408 . S
C393 C392 1.404 . S
C393 H405 0.930 . S
C394 C390 1.524 . S
C394 H406 0.956 . S
C394 H407 0.961 . S
C394 H408 0.961 . S
C395 C392 1.539 . S
C395 H409 0.958 . S
C395 H410 0.961 . S
C395 H411 0.960 . S
H396 C380 0.931 . S
H397 C385 0.929 . S
H398 C386 0.960 . S
H399 C386 0.962 . S
H400 C386 0.960 . S
H401 C387 0.961 . S
H402 C387 0.961 . S
H403 C387 0.961 . S
H404 C388 0.931 . S
H405 C393 0.930 . S
H406 C394 0.956 . S
H407 C394 0.961 . S
H408 C394 0.961 . S
H409 C395 0.958 . S
H410 C395 0.961 . S
H411 C395 0.960 . S
C412 C413 1.391 . S
C412 C414 1.394 . S
C412 H428 0.931 . S
C413 C412 1.391 . S
C413 C417 1.376 . S
C414 C412 1.394 . S
C414 C415 1.369 . S
C414 C418 1.531 . S
C415 C414 1.369 . S
C415 C416 1.410 . S
C415 C423 1.503 . S
C416 C415 1.410 . S
C416 C417 1.392 . S
C416 C419 1.511 . S
C417 C413 1.376 . S
C417 C416 1.392 . S
C417 H429 0.929 . S
C418 C414 1.531 . S
C418 H430 0.960 . S
C418 H431 0.962 . S
C418 H432 0.960 . S
C419 C416 1.511 . S
C419 H433 0.961 . S
C419 H434 0.961 . S
C419 H435 0.961 . S
C420 C421 1.370 . S
C420 C422 1.363 . S
C420 H436 0.931 . S
C421 C420 1.370 . S
C421 C425 1.408 . S
C422 C420 1.363 . S
C422 C423 1.370 . S
C422 C426 1.524 . S
C423 C415 1.503 . S
C423 C422 1.370 . S
C423 C424 1.403 . S
C424 C423 1.403 . S
C424 C425 1.404 . S
C424 C427 1.539 . S
C425 C421 1.408 . S
C425 C424 1.404 . S
C425 H437 0.930 . S
C426 C422 1.524 . S
C426 H438 0.956 . S
C426 H439 0.961 . S
C426 H440 0.961 . S
C427 C424 1.539 . S
C427 H441 0.958 . S
C427 H442 0.961 . S
C427 H443 0.960 . S
H428 C412 0.931 . S
H429 C417 0.929 . S
H430 C418 0.960 . S
H431 C418 0.962 . S
H432 C418 0.960 . S
H433 C419 0.961 . S
H434 C419 0.961 . S
H435 C419 0.961 . S
H436 C420 0.931 . S
H437 C425 0.930 . S
H438 C426 0.956 . S
H439 C426 0.961 . S
H440 C426 0.961 . S
H441 C427 0.958 . S
H442 C427 0.961 . S
H443 C427 0.960 . S
C444 C445 1.391 . S
C444 C446 1.394 . S
C444 H460 0.931 . S
C445 C444 1.391 . S
C445 C449 1.376 . S
C446 C444 1.394 . S
C446 C447 1.369 . S
C446 C450 1.531 . S
C447 C446 1.369 . S
C447 C448 1.410 . S
C447 C455 1.503 . S
C448 C447 1.410 . S
C448 C449 1.392 . S
C448 C451 1.511 . S
C449 C445 1.376 . S
C449 C448 1.392 . S
C449 H461 0.929 . S
C450 C446 1.531 . S
C450 H462 0.960 . S
C450 H463 0.962 . S
C450 H464 0.960 . S
C451 C448 1.511 . S
C451 H465 0.961 . S
C451 H466 0.961 . S
C451 H467 0.961 . S
C452 C453 1.370 . S
C452 C454 1.363 . S
C452 H468 0.931 . S
C453 C452 1.370 . S
C453 C457 1.408 . S
C454 C452 1.363 . S
C454 C455 1.370 . S
C454 C458 1.524 . S
C455 C447 1.503 . S
C455 C454 1.370 . S
C455 C456 1.403 . S
C456 C455 1.403 . S
C456 C457 1.404 . S
C456 C459 1.539 . S
C457 C453 1.408 . S
C457 C456 1.404 . S
C457 H469 0.930 . S
C458 C454 1.524 . S
C458 H470 0.956 . S
C458 H471 0.961 . S
C458 H472 0.961 . S
C459 C456 1.539 . S
C459 H473 0.958 . S
C459 H474 0.961 . S
C459 H475 0.960 . S
H460 C444 0.931 . S
H461 C449 0.929 . S
H462 C450 0.960 . S
H463 C450 0.962 . S
H464 C450 0.960 . S
H465 C451 0.961 . S
H466 C451 0.961 . S
H467 C451 0.961 . S
H468 C452 0.931 . S
H469 C457 0.930 . S
H470 C458 0.956 . S
H471 C458 0.961 . S
H472 C458 0.961 . S
H473 C459 0.958 . S
H474 C459 0.961 . S
H475 C459 0.960 . S
C476 C477 1.391 . S
C476 C478 1.394 . S
C476 H492 0.931 . S
C477 C476 1.391 . S
C477 C481 1.376 . S
C478 C476 1.394 . S
C478 C479 1.369 . S
C478 C482 1.531 . S
C479 C478 1.369 . S
C479 C480 1.410 . S
C479 C487 1.503 . S
C480 C479 1.410 . S
C480 C481 1.392 . S
C480 C483 1.511 . S
C481 C477 1.376 . S
C481 C480 1.392 . S
C481 H493 0.929 . S
C482 C478 1.531 . S
C482 H494 0.960 . S
C482 H495 0.962 . S
C482 H496 0.960 . S
C483 C480 1.511 . S
C483 H497 0.961 . S
C483 H498 0.961 . S
C483 H499 0.961 . S
C484 C485 1.370 . S
C484 C486 1.363 . S
C484 H500 0.931 . S
C485 C484 1.370 . S
C485 C489 1.408 . S
C486 C484 1.363 . S
C486 C487 1.370 . S
C486 C490 1.524 . S
C487 C479 1.503 . S
C487 C486 1.370 . S
C487 C488 1.403 . S
C488 C487 1.403 . S
C488 C489 1.404 . S
C488 C491 1.539 . S
C489 C485 1.408 . S
C489 C488 1.404 . S
C489 H501 0.930 . S
C490 C486 1.524 . S
C490 H502 0.956 . S
C490 H503 0.961 . S
C490 H504 0.961 . S
C491 C488 1.539 . S
C491 H505 0.958 . S
C491 H506 0.961 . S
C491 H507 0.960 . S
H492 C476 0.931 . S
H493 C481 0.929 . S
H494 C482 0.960 . S
H495 C482 0.962 . S
H496 C482 0.960 . S
H497 C483 0.961 . S
H498 C483 0.961 . S
H499 C483 0.961 . S
H500 C484 0.931 . S
H501 C489 0.930 . S
H502 C490 0.956 . S
H503 C490 0.961 . S
H504 C490 0.961 . S
H505 C491 0.958 . S
H506 C491 0.961 . S
H507 C491 0.960 . S
C508 C509 1.391 . S
C508 C510 1.394 . S
C508 H524 0.931 . S
C509 C508 1.391 . S
C509 C513 1.376 . S
C510 C508 1.394 . S
C510 C511 1.369 . S
C510 C514 1.531 . S
C511 C510 1.369 . S
C511 C512 1.410 . S
C511 C519 1.503 . S
C512 C511 1.410 . S
C512 C513 1.392 . S
C512 C515 1.511 . S
C513 C509 1.376 . S
C513 C512 1.392 . S
C513 H525 0.929 . S
C514 C510 1.531 . S
C514 H526 0.960 . S
C514 H527 0.962 . S
C514 H528 0.960 . S
C515 C512 1.511 . S
C515 H529 0.961 . S
C515 H530 0.961 . S
C515 H531 0.961 . S
C516 C517 1.370 . S
C516 C518 1.363 . S
C516 H532 0.931 . S
C517 C516 1.370 . S
C517 C521 1.408 . S
C518 C516 1.363 . S
C518 C519 1.370 . S
C518 C522 1.524 . S
C519 C511 1.503 . S
C519 C518 1.370 . S
C519 C520 1.403 . S
C520 C519 1.403 . S
C520 C521 1.404 . S
C520 C523 1.539 . S
C521 C517 1.408 . S
C521 C520 1.404 . S
C521 H533 0.930 . S
C522 C518 1.524 . S
C522 H534 0.956 . S
C522 H535 0.961 . S
C522 H536 0.961 . S
C523 C520 1.539 . S
C523 H537 0.958 . S
C523 H538 0.961 . S
C523 H539 0.960 . S
H524 C508 0.931 . S
H525 C513 0.929 . S
H526 C514 0.960 . S
H527 C514 0.962 . S
H528 C514 0.960 . S
H529 C515 0.961 . S
H530 C515 0.961 . S
H531 C515 0.961 . S
H532 C516 0.931 . S
H533 C521 0.930 . S
H534 C522 0.956 . S
H535 C522 0.961 . S
H536 C522 0.961 . S
H537 C523 0.958 . S
H538 C523 0.961 . S
H539 C523 0.960 . S
C540 C541 1.391 . S
C540 C542 1.394 . S
C540 H556 0.931 . S
C541 C540 1.391 . S
C541 C545 1.376 . S
C542 C540 1.394 . S
C542 C543 1.369 . S
C542 C546 1.531 . S
C543 C542 1.369 . S
C543 C544 1.410 . S
C543 C551 1.503 . S
C544 C543 1.410 . S
C544 C545 1.392 . S
C544 C547 1.511 . S
C545 C541 1.376 . S
C545 C544 1.392 . S
C545 H557 0.929 . S
C546 C542 1.531 . S
C546 H558 0.960 . S
C546 H559 0.962 . S
C546 H560 0.960 . S
C547 C544 1.511 . S
C547 H561 0.961 . S
C547 H562 0.961 . S
C547 H563 0.961 . S
C548 C549 1.370 . S
C548 C550 1.363 . S
C548 H564 0.931 . S
C549 C548 1.370 . S
C549 C553 1.408 . S
C550 C548 1.363 . S
C550 C551 1.370 . S
C550 C554 1.524 . S
C551 C543 1.503 . S
C551 C550 1.370 . S
C551 C552 1.403 . S
C552 C551 1.403 . S
C552 C553 1.404 . S
C552 C555 1.539 . S
C553 C549 1.408 . S
C553 C552 1.404 . S
C553 H565 0.930 . S
C554 C550 1.524 . S
C554 H566 0.956 . S
C554 H567 0.961 . S
C554 H568 0.961 . S
C555 C552 1.539 . S
C555 H569 0.958 . S
C555 H570 0.961 . S
C555 H571 0.960 . S
H556 C540 0.931 . S
H557 C545 0.929 . S
H558 C546 0.960 . S
H559 C546 0.962 . S
H560 C546 0.960 . S
H561 C547 0.961 . S
H562 C547 0.961 . S
H563 C547 0.961 . S
H564 C548 0.931 . S
H565 C553 0.930 . S
H566 C554 0.956 . S
H567 C554 0.961 . S
H568 C554 0.961 . S
H569 C555 0.958 . S
H570 C555 0.961 . S
H571 C555 0.960 . S
C572 C573 1.391 . S
C572 C574 1.394 . S
C572 H588 0.931 . S
C573 C572 1.391 . S
C573 C577 1.376 . S
C574 C572 1.394 . S
C574 C575 1.369 . S
C574 C578 1.531 . S
C575 C574 1.369 . S
C575 C576 1.410 . S
C575 C583 1.503 . S
C576 C575 1.410 . S
C576 C577 1.392 . S
C576 C579 1.511 . S
C577 C573 1.376 . S
C577 C576 1.392 . S
C577 H589 0.929 1_556 S
C578 C574 1.531 . S
C578 H590 0.960 . S
C578 H591 0.962 . S
C578 H592 0.960 . S
C579 C576 1.511 . S
C579 H593 0.961 . S
C579 H594 0.961 . S
C579 H595 0.961 . S
C580 C581 1.370 . S
C580 C582 1.363 . S
C580 H596 0.931 . S
C581 C580 1.370 . S
C581 C585 1.408 . S
C582 C580 1.363 . S
C582 C583 1.370 . S
C582 C586 1.524 . S
C583 C575 1.503 . S
C583 C582 1.370 . S
C583 C584 1.403 . S
C584 C583 1.403 . S
C584 C585 1.404 . S
C584 C587 1.539 . S
C585 C581 1.408 . S
C585 C584 1.404 . S
C585 H597 0.930 . S
C586 C582 1.524 . S
C586 H598 0.956 . S
C586 H599 0.961 . S
C586 H600 0.961 . S
C587 C584 1.539 . S
C587 H601 0.958 . S
C587 H602 0.961 . S
C587 H603 0.960 . S
H588 C572 0.931 . S
H589 C577 0.929 1_554 S
H590 C578 0.960 . S
H591 C578 0.962 . S
H592 C578 0.960 . S
H593 C579 0.961 . S
H594 C579 0.961 . S
H595 C579 0.961 . S
H596 C580 0.931 . S
H597 C585 0.930 . S
H598 C586 0.956 . S
H599 C586 0.961 . S
H600 C586 0.961 . S
H601 C587 0.958 . S
H602 C587 0.961 . S
H603 C587 0.960 . S
C604 C605 1.391 . S
C604 C606 1.394 . S
C604 H620 0.931 . S
C605 C604 1.391 . S
C605 C609 1.376 . S
C606 C604 1.394 . S
C606 C607 1.369 . S
C606 C610 1.531 . S
C607 C606 1.369 . S
C607 C608 1.410 . S
C607 C615 1.503 . S
C608 C607 1.410 . S
C608 C609 1.392 . S
C608 C611 1.511 . S
C609 C605 1.376 . S
C609 C608 1.392 . S
C609 H621 0.929 . S
C610 C606 1.531 . S
C610 H622 0.960 . S
C610 H623 0.962 . S
C610 H624 0.960 . S
C611 C608 1.511 . S
C611 H625 0.961 . S
C611 H626 0.961 . S
C611 H627 0.961 . S
C612 C613 1.370 . S
C612 C614 1.363 . S
C612 H628 0.931 . S
C613 C612 1.370 . S
C613 C617 1.408 . S
C614 C612 1.363 . S
C614 C615 1.370 . S
C614 C618 1.524 . S
C615 C607 1.503 . S
C615 C614 1.370 . S
C615 C616 1.403 . S
C616 C615 1.403 . S
C616 C617 1.404 . S
C616 C619 1.539 . S
C617 C613 1.408 . S
C617 C616 1.404 . S
C617 H629 0.930 . S
C618 C614 1.524 . S
C618 H630 0.956 . S
C618 H631 0.961 . S
C618 H632 0.961 . S
C619 C616 1.539 . S
C619 H633 0.958 . S
C619 H634 0.961 . S
C619 H635 0.960 . S
H620 C604 0.931 . S
H621 C609 0.929 . S
H622 C610 0.960 . S
H623 C610 0.962 . S
H624 C610 0.960 . S
H625 C611 0.961 . S
H626 C611 0.961 . S
H627 C611 0.961 . S
H628 C612 0.931 . S
H629 C617 0.930 . S
H630 C618 0.956 . S
H631 C618 0.961 . S
H632 C618 0.961 . S
H633 C619 0.958 . S
H634 C619 0.961 . S
H635 C619 0.960 . S
C636 C637 1.391 . S
C636 C638 1.394 . S
C636 H652 0.931 . S
C637 C636 1.391 . S
C637 C641 1.376 . S
C638 C636 1.394 . S
C638 C639 1.369 . S
C638 C642 1.531 . S
C639 C638 1.369 . S
C639 C640 1.410 . S
C639 C647 1.503 . S
C640 C639 1.410 . S
C640 C641 1.392 . S
C640 C643 1.511 . S
C641 C637 1.376 . S
C641 C640 1.392 . S
C641 H653 0.929 . S
C642 C638 1.531 . S
C642 H654 0.960 . S
C642 H655 0.962 . S
C642 H656 0.960 . S
C643 C640 1.511 . S
C643 H657 0.961 . S
C643 H658 0.961 . S
C643 H659 0.961 . S
C644 C645 1.370 . S
C644 C646 1.363 . S
C644 H660 0.931 . S
C645 C644 1.370 . S
C645 C649 1.408 . S
C646 C644 1.363 . S
C646 C647 1.370 . S
C646 C650 1.524 . S
C647 C639 1.503 . S
C647 C646 1.370 . S
C647 C648 1.403 . S
C648 C647 1.403 . S
C648 C649 1.404 . S
C648 C651 1.539 . S
C649 C645 1.408 . S
C649 C648 1.404 . S
C649 H661 0.930 . S
C650 C646 1.524 . S
C650 H662 0.956 . S
C650 H663 0.961 . S
C650 H664 0.961 . S
C651 C648 1.539 . S
C651 H665 0.958 . S
C651 H666 0.961 . S
C651 H667 0.960 . S
H652 C636 0.931 . S
H653 C641 0.929 . S
H654 C642 0.960 . S
H655 C642 0.962 . S
H656 C642 0.960 . S
H657 C643 0.961 . S
H658 C643 0.961 . S
H659 C643 0.961 . S
H660 C644 0.931 . S
H661 C649 0.930 . S
H662 C650 0.956 . S
H663 C650 0.961 . S
H664 C650 0.961 . S
H665 C651 0.958 . S
H666 C651 0.961 . S
H667 C651 0.960 . S
C668 C669 1.391 . S
C668 C670 1.394 . S
C668 H684 0.931 . S
C669 C668 1.391 . S
C669 C673 1.376 . S
C670 C668 1.394 . S
C670 C671 1.369 . S
C670 C674 1.531 . S
C671 C670 1.369 . S
C671 C672 1.410 . S
C671 C679 1.503 . S
C672 C671 1.410 . S
C672 C673 1.392 . S
C672 C675 1.511 . S
C673 C669 1.376 . S
C673 C672 1.392 . S
C673 H685 0.929 . S
C674 C670 1.531 . S
C674 H686 0.960 . S
C674 H687 0.962 . S
C674 H688 0.960 . S
C675 C672 1.511 . S
C675 H689 0.961 . S
C675 H690 0.961 . S
C675 H691 0.961 . S
C676 C677 1.370 . S
C676 C678 1.363 . S
C676 H692 0.931 . S
C677 C676 1.370 . S
C677 C681 1.408 . S
C678 C676 1.363 . S
C678 C679 1.370 . S
C678 C682 1.524 . S
C679 C671 1.503 . S
C679 C678 1.370 . S
C679 C680 1.403 . S
C680 C679 1.403 . S
C680 C681 1.404 . S
C680 C683 1.539 . S
C681 C677 1.408 . S
C681 C680 1.404 . S
C681 H693 0.930 . S
C682 C678 1.524 . S
C682 H694 0.956 . S
C682 H695 0.961 . S
C682 H696 0.961 . S
C683 C680 1.539 . S
C683 H697 0.958 . S
C683 H698 0.961 . S
C683 H699 0.960 . S
H684 C668 0.931 . S
H685 C673 0.929 . S
H686 C674 0.960 . S
H687 C674 0.962 . S
H688 C674 0.960 . S
H689 C675 0.961 . S
H690 C675 0.961 . S
H691 C675 0.961 . S
H692 C676 0.931 . S
H693 C681 0.930 . S
H694 C682 0.956 . S
H695 C682 0.961 . S
H696 C682 0.961 . S
H697 C683 0.958 . S
H698 C683 0.961 . S
H699 C683 0.960 . S
C700 C701 1.391 . S
C700 C702 1.394 . S
C700 H716 0.931 . S
C701 C700 1.391 . S
C701 C705 1.376 . S
C702 C700 1.394 . S
C702 C703 1.369 . S
C702 C706 1.531 . S
C703 C702 1.369 . S
C703 C704 1.410 . S
C703 C711 1.503 . S
C704 C703 1.410 . S
C704 C705 1.392 . S
C704 C707 1.511 . S
C705 C701 1.376 . S
C705 C704 1.392 . S
C705 H717 0.929 . S
C706 C702 1.531 . S
C706 H718 0.960 . S
C706 H719 0.962 . S
C706 H720 0.960 . S
C707 C704 1.511 . S
C707 H721 0.961 . S
C707 H722 0.961 . S
C707 H723 0.961 . S
C708 C709 1.370 . S
C708 C710 1.363 . S
C708 H724 0.931 . S
C709 C708 1.370 . S
C709 C713 1.408 . S
C710 C708 1.363 . S
C710 C711 1.370 . S
C710 C714 1.524 . S
C711 C703 1.503 . S
C711 C710 1.370 . S
C711 C712 1.403 . S
C712 C711 1.403 . S
C712 C713 1.404 . S
C712 C715 1.539 . S
C713 C709 1.408 . S
C713 C712 1.404 . S
C713 H725 0.930 . S
C714 C710 1.524 . S
C714 H726 0.956 . S
C714 H727 0.961 . S
C714 H728 0.961 . S
C715 C712 1.539 . S
C715 H729 0.958 . S
C715 H730 0.961 . S
C715 H731 0.960 . S
H716 C700 0.931 . S
H717 C705 0.929 . S
H718 C706 0.960 . S
H719 C706 0.962 . S
H720 C706 0.960 . S
H721 C707 0.961 . S
H722 C707 0.961 . S
H723 C707 0.961 . S
H724 C708 0.931 . S
H725 C713 0.930 . S
H726 C714 0.956 . S
H727 C714 0.961 . S
H728 C714 0.961 . S
H729 C715 0.958 . S
H730 C715 0.961 . S
H731 C715 0.960 . S
C732 C733 1.391 . S
C732 C734 1.394 . S
C732 H748 0.931 . S
C733 C732 1.391 . S
C733 C737 1.376 . S
C734 C732 1.394 . S
C734 C735 1.369 . S
C734 C738 1.531 . S
C735 C734 1.369 . S
C735 C736 1.410 . S
C735 C743 1.503 . S
C736 C735 1.410 . S
C736 C737 1.392 . S
C736 C739 1.511 . S
C737 C733 1.376 . S
C737 C736 1.392 . S
C737 H749 0.929 . S
C738 C734 1.531 . S
C738 H750 0.960 . S
C738 H751 0.962 . S
C738 H752 0.960 . S
C739 C736 1.511 . S
C739 H753 0.961 . S
C739 H754 0.961 . S
C739 H755 0.961 . S
C740 C741 1.370 . S
C740 C742 1.363 . S
C740 H756 0.931 . S
C741 C740 1.370 . S
C741 C745 1.408 . S
C742 C740 1.363 . S
C742 C743 1.370 . S
C742 C746 1.524 . S
C743 C735 1.503 . S
C743 C742 1.370 . S
C743 C744 1.403 . S
C744 C743 1.403 . S
C744 C745 1.404 . S
C744 C747 1.539 . S
C745 C741 1.408 . S
C745 C744 1.404 . S
C745 H757 0.930 . S
C746 C742 1.524 . S
C746 H758 0.956 . S
C746 H759 0.961 . S
C746 H760 0.961 . S
C747 C744 1.539 . S
C747 H761 0.958 . S
C747 H762 0.961 . S
C747 H763 0.960 . S
H748 C732 0.931 . S
H749 C737 0.929 . S
H750 C738 0.960 . S
H751 C738 0.962 . S
H752 C738 0.960 . S
H753 C739 0.961 . S
H754 C739 0.961 . S
H755 C739 0.961 . S
H756 C740 0.931 . S
H757 C745 0.930 . S
H758 C746 0.956 . S
H759 C746 0.961 . S
H760 C746 0.961 . S
H761 C747 0.958 . S
H762 C747 0.961 . S
H763 C747 0.960 . S
C764 C765 1.391 . S
C764 C766 1.394 . S
C764 H780 0.931 . S
C765 C764 1.391 . S
C765 C769 1.376 . S
C766 C764 1.394 . S
C766 C767 1.369 . S
C766 C770 1.531 . S
C767 C766 1.369 . S
C767 C768 1.410 . S
C767 C775 1.503 . S
C768 C767 1.410 . S
C768 C769 1.392 . S
C768 C771 1.511 . S
C769 C765 1.376 . S
C769 C768 1.392 . S
C769 H781 0.929 . S
C770 C766 1.531 . S
C770 H782 0.960 . S
C770 H783 0.962 . S
C770 H784 0.960 . S
C771 C768 1.511 . S
C771 H785 0.961 . S
C771 H786 0.961 . S
C771 H787 0.961 . S
C772 C773 1.370 . S
C772 C774 1.363 . S
C772 H788 0.931 . S
C773 C772 1.370 . S
C773 C777 1.408 . S
C774 C772 1.363 . S
C774 C775 1.370 . S
C774 C778 1.524 . S
C775 C767 1.503 . S
C775 C774 1.370 . S
C775 C776 1.403 . S
C776 C775 1.403 . S
C776 C777 1.404 . S
C776 C779 1.539 . S
C777 C773 1.408 . S
C777 C776 1.404 . S
C777 H789 0.930 . S
C778 C774 1.524 . S
C778 H790 0.956 . S
C778 H791 0.961 . S
C778 H792 0.961 . S
C779 C776 1.539 . S
C779 H793 0.958 . S
C779 H794 0.961 . S
C779 H795 0.960 . S
H780 C764 0.931 . S
H781 C769 0.929 . S
H782 C770 0.960 . S
H783 C770 0.962 . S
H784 C770 0.960 . S
H785 C771 0.961 . S
H786 C771 0.961 . S
H787 C771 0.961 . S
H788 C772 0.931 . S
H789 C777 0.930 . S
H790 C778 0.956 . S
H791 C778 0.961 . S
H792 C778 0.961 . S
H793 C779 0.958 . S
H794 C779 0.961 . S
H795 C779 0.960 . S
C796 C797 1.391 . S
C796 C798 1.394 . S
C796 H812 0.931 . S
C797 C796 1.391 . S
C797 C801 1.376 . S
C798 C796 1.394 . S
C798 C799 1.369 . S
C798 C802 1.531 . S
C799 C798 1.369 . S
C799 C800 1.410 . S
C799 C807 1.503 . S
C800 C799 1.410 . S
C800 C801 1.392 . S
C800 C803 1.511 . S
C801 C797 1.376 . S
C801 C800 1.392 . S
C801 H813 0.929 . S
C802 C798 1.531 . S
C802 H814 0.960 . S
C802 H815 0.962 . S
C802 H816 0.960 . S
C803 C800 1.511 . S
C803 H817 0.961 . S
C803 H818 0.961 . S
C803 H819 0.961 . S
C804 C805 1.370 . S
C804 C806 1.363 . S
C804 H820 0.931 . S
C805 C804 1.370 . S
C805 C809 1.408 . S
C806 C804 1.363 . S
C806 C807 1.370 . S
C806 C810 1.524 . S
C807 C799 1.503 . S
C807 C806 1.370 . S
C807 C808 1.403 . S
C808 C807 1.403 . S
C808 C809 1.404 . S
C808 C811 1.539 . S
C809 C805 1.408 . S
C809 C808 1.404 . S
C809 H821 0.930 1_554 S
C810 C806 1.524 . S
C810 H822 0.956 . S
C810 H823 0.961 . S
C810 H824 0.961 . S
C811 C808 1.539 . S
C811 H825 0.958 . S
C811 H826 0.961 . S
C811 H827 0.960 . S
H812 C796 0.931 . S
H813 C801 0.929 . S
H814 C802 0.960 . S
H815 C802 0.962 . S
H816 C802 0.960 . S
H817 C803 0.961 . S
H818 C803 0.961 . S
H819 C803 0.961 . S
H820 C804 0.931 . S
H821 C809 0.930 1_556 S
H822 C810 0.956 . S
H823 C810 0.961 . S
H824 C810 0.961 . S
H825 C811 0.958 . S
H826 C811 0.961 . S
H827 C811 0.960 . S
C828 C829 1.391 . S
C828 C830 1.394 . S
C828 H844 0.931 . S
C829 C828 1.391 . S
C829 C833 1.376 . S
C830 C828 1.394 . S
C830 C831 1.369 . S
C830 C834 1.531 . S
C831 C830 1.369 . S
C831 C832 1.410 . S
C831 C839 1.503 . S
C832 C831 1.410 . S
C832 C833 1.392 . S
C832 C835 1.511 . S
C833 C829 1.376 . S
C833 C832 1.392 . S
C833 H845 0.929 . S
C834 C830 1.531 . S
C834 H846 0.960 . S
C834 H847 0.962 . S
C834 H848 0.960 . S
C835 C832 1.511 . S
C835 H849 0.961 . S
C835 H850 0.961 . S
C835 H851 0.961 . S
C836 C837 1.370 . S
C836 C838 1.363 . S
C836 H852 0.931 . S
C837 C836 1.370 . S
C837 C841 1.408 . S
C838 C836 1.363 . S
C838 C839 1.370 . S
C838 C842 1.524 . S
C839 C831 1.503 . S
C839 C838 1.370 . S
C839 C840 1.403 . S
C840 C839 1.403 . S
C840 C841 1.404 . S
C840 C843 1.539 . S
C841 C837 1.408 . S
C841 C840 1.404 . S
C841 H853 0.930 . S
C842 C838 1.524 . S
C842 H854 0.956 . S
C842 H855 0.961 . S
C842 H856 0.961 . S
C843 C840 1.539 . S
C843 H857 0.958 . S
C843 H858 0.961 . S
C843 H859 0.960 . S
H844 C828 0.931 . S
H845 C833 0.929 . S
H846 C834 0.960 . S
H847 C834 0.962 . S
H848 C834 0.960 . S
H849 C835 0.961 . S
H850 C835 0.961 . S
H851 C835 0.961 . S
H852 C836 0.931 . S
H853 C841 0.930 . S
H854 C842 0.956 . S
H855 C842 0.961 . S
H856 C842 0.961 . S
H857 C843 0.958 . S
H858 C843 0.961 . S
H859 C843 0.960 . S
C860 C861 1.391 . S
C860 C862 1.394 . S
C860 H876 0.931 . S
C861 C860 1.391 . S
C861 C865 1.376 . S
C862 C860 1.394 . S
C862 C863 1.369 . S
C862 C866 1.531 . S
C863 C862 1.369 . S
C863 C864 1.410 . S
C863 C871 1.503 . S
C864 C863 1.410 . S
C864 C865 1.392 . S
C864 C867 1.511 . S
C865 C861 1.376 . S
C865 C864 1.392 . S
C865 H877 0.929 . S
C866 C862 1.531 . S
C866 H878 0.960 . S
C866 H879 0.962 . S
C866 H880 0.960 . S
C867 C864 1.511 . S
C867 H881 0.961 . S
C867 H882 0.961 . S
C867 H883 0.961 . S
C868 C869 1.370 . S
C868 C870 1.363 . S
C868 H884 0.931 . S
C869 C868 1.370 . S
C869 C873 1.408 . S
C870 C868 1.363 . S
C870 C871 1.370 . S
C870 C874 1.524 . S
C871 C863 1.503 . S
C871 C870 1.370 . S
C871 C872 1.403 . S
C872 C871 1.403 . S
C872 C873 1.404 . S
C872 C875 1.539 . S
C873 C869 1.408 . S
C873 C872 1.404 . S
C873 H885 0.930 . S
C874 C870 1.524 . S
C874 H886 0.956 . S
C874 H887 0.961 . S
C874 H888 0.961 . S
C875 C872 1.539 . S
C875 H889 0.958 . S
C875 H890 0.961 . S
C875 H891 0.960 . S
H876 C860 0.931 . S
H877 C865 0.929 . S
H878 C866 0.960 . S
H879 C866 0.962 . S
H880 C866 0.960 . S
H881 C867 0.961 . S
H882 C867 0.961 . S
H883 C867 0.961 . S
H884 C868 0.931 . S
H885 C873 0.930 . S
H886 C874 0.956 . S
H887 C874 0.961 . S
H888 C874 0.961 . S
H889 C875 0.958 . S
H890 C875 0.961 . S
H891 C875 0.960 . S
C892 C893 1.391 . S
C892 C894 1.394 . S
C892 H908 0.931 . S
C893 C892 1.391 . S
C893 C897 1.376 . S
C894 C892 1.394 . S
C894 C895 1.369 . S
C894 C898 1.531 . S
C895 C894 1.369 . S
C895 C896 1.410 . S
C895 C903 1.503 . S
C896 C895 1.410 . S
C896 C897 1.392 . S
C896 C899 1.511 . S
C897 C893 1.376 . S
C897 C896 1.392 . S
C897 H909 0.929 1_545 S
C898 C894 1.531 . S
C898 H910 0.960 . S
C898 H911 0.962 . S
C898 H912 0.960 . S
C899 C896 1.511 . S
C899 H913 0.961 . S
C899 H914 0.961 . S
C899 H915 0.961 1_545 S
C900 C901 1.370 . S
C900 C902 1.363 . S
C900 H916 0.931 . S
C901 C900 1.370 . S
C901 C905 1.408 . S
C902 C900 1.363 . S
C902 C903 1.370 . S
C902 C906 1.524 . S
C903 C895 1.503 . S
C903 C902 1.370 . S
C903 C904 1.403 . S
C904 C903 1.403 . S
C904 C905 1.404 . S
C904 C907 1.539 . S
C905 C901 1.408 . S
C905 C904 1.404 . S
C905 H917 0.930 . S
C906 C902 1.524 . S
C906 H918 0.956 . S
C906 H919 0.961 . S
C906 H920 0.961 . S
C907 C904 1.539 . S
C907 H921 0.958 . S
C907 H922 0.961 . S
C907 H923 0.960 . S
H908 C892 0.931 . S
H909 C897 0.929 1_565 S
H910 C898 0.960 . S
H911 C898 0.962 . S
H912 C898 0.960 . S
H913 C899 0.961 . S
H914 C899 0.961 . S
H915 C899 0.961 1_565 S
H916 C900 0.931 . S
H917 C905 0.930 . S
H918 C906 0.956 . S
H919 C906 0.961 . S
H920 C906 0.961 . S
H921 C907 0.958 . S
H922 C907 0.961 . S
H923 C907 0.960 . S
C924 C925 1.391 . S
C924 C926 1.394 . S
C924 H940 0.931 . S
C925 C924 1.391 . S
C925 C929 1.376 . S
C926 C924 1.394 . S
C926 C927 1.369 . S
C926 C930 1.531 . S
C927 C926 1.369 . S
C927 C928 1.410 . S
C927 C935 1.503 . S
C928 C927 1.410 . S
C928 C929 1.392 . S
C928 C931 1.511 . S
C929 C925 1.376 . S
C929 C928 1.392 . S
C929 H941 0.929 . S
C930 C926 1.531 . S
C930 H942 0.960 . S
C930 H943 0.962 . S
C930 H944 0.960 . S
C931 C928 1.511 . S
C931 H945 0.961 . S
C931 H946 0.961 . S
C931 H947 0.961 1_554 S
C932 C933 1.370 . S
C932 C934 1.363 . S
C932 H948 0.931 . S
C933 C932 1.370 . S
C933 C937 1.408 1_554 S
C934 C932 1.363 . S
C934 C935 1.370 . S
C934 C938 1.524 . S
C935 C927 1.503 . S
C935 C934 1.370 . S
C935 C936 1.403 . S
C936 C935 1.403 . S
C936 C937 1.404 1_554 S
C936 C939 1.539 1_554 S
C937 C933 1.408 1_556 S
C937 C936 1.404 1_556 S
C937 H949 0.930 . S
C938 C934 1.524 . S
C938 H950 0.956 . S
C938 H951 0.961 . S
C938 H952 0.961 . S
C939 C936 1.539 1_556 S
C939 H953 0.958 . S
C939 H954 0.961 . S
C939 H955 0.960 . S
H940 C924 0.931 . S
H941 C929 0.929 . S
H942 C930 0.960 . S
H943 C930 0.962 . S
H944 C930 0.960 . S
H945 C931 0.961 . S
H946 C931 0.961 . S
H947 C931 0.961 1_556 S
H948 C932 0.931 . S
H949 C937 0.930 . S
H950 C938 0.956 . S
H951 C938 0.961 . S
H952 C938 0.961 . S
H953 C939 0.958 . S
H954 C939 0.961 . S
H955 C939 0.960 . S
C956 C957 1.391 . S
C956 C958 1.394 . S
C956 H972 0.931 1_554 S
C957 C956 1.391 . S
C957 C961 1.376 . S
C958 C956 1.394 . S
C958 C959 1.369 . S
C958 C962 1.531 1_554 S
C959 C958 1.369 . S
C959 C960 1.410 . S
C959 C967 1.503 . S
C960 C959 1.410 . S
C960 C961 1.392 . S
C960 C963 1.511 . S
C961 C957 1.376 . S
C961 C960 1.392 . S
C961 H973 0.929 1_455 S
C962 C958 1.531 1_556 S
C962 H974 0.960 1_556 S
C962 H975 0.962 . S
C962 H976 0.960 . S
C963 C960 1.511 . S
C963 H977 0.961 1_455 S
C963 H978 0.961 . S
C963 H979 0.961 . S
C964 C965 1.370 . S
C964 C966 1.363 . S
C964 H980 0.931 . S
C965 C964 1.370 . S
C965 C969 1.408 . S
C966 C964 1.363 . S
C966 C967 1.370 . S
C966 C970 1.524 . S
C967 C959 1.503 . S
C967 C966 1.370 . S
C967 C968 1.403 . S
C968 C967 1.403 . S
C968 C969 1.404 . S
C968 C971 1.539 . S
C969 C965 1.408 . S
C969 C968 1.404 . S
C969 H981 0.930 . S
C970 C966 1.524 . S
C970 H982 0.956 1_554 S
C970 H983 0.961 . S
C970 H984 0.961 . S
C971 C968 1.539 . S
C971 H985 0.958 . S
C971 H986 0.961 . S
C971 H987 0.960 . S
H972 C956 0.931 1_556 S
H973 C961 0.929 1_655 S
H974 C962 0.960 1_554 S
H975 C962 0.962 . S
H976 C962 0.960 . S
H977 C963 0.961 1_655 S
H978 C963 0.961 . S
H979 C963 0.961 . S
H980 C964 0.931 . S
H981 C969 0.930 . S
H982 C970 0.956 1_556 S
H983 C970 0.961 . S
H984 C970 0.961 . S
H985 C971 0.958 . S
H986 C971 0.961 . S
H987 C971 0.960 . S
C988 C989 1.391 . S
C988 C990 1.394 . S
C988 H1004 0.931 . S
C989 C988 1.391 . S
C989 C993 1.376 1_554 S
C990 C988 1.394 . S
C990 C991 1.369 . S
C990 C994 1.531 . S
C991 C990 1.369 . S
C991 C992 1.410 . S
C991 C999 1.503 . S
C992 C991 1.410 . S
C992 C993 1.392 1_554 S
C992 C995 1.511 1_554 S
C993 C989 1.376 1_556 S
C993 C992 1.392 1_556 S
C993 H1005 0.929 . S
C994 C990 1.531 . S
C994 H1006 0.960 . S
C994 H1007 0.962 . S
C994 H1008 0.960 . S
C995 C992 1.511 1_556 S
C995 H1009 0.961 . S
C995 H1010 0.961 . S
C995 H1011 0.961 1_556 S
C996 C997 1.370 . S
C996 C998 1.363 . S
C996 H1012 0.931 . S
C997 C996 1.370 . S
C997 C1001 1.408 . S
C998 C996 1.363 . S
C998 C999 1.370 . S
C998 C1002 1.524 . S
C999 C991 1.503 . S
C999 C998 1.370 . S
C999 C1000 1.403 . S
C1000 C999 1.403 . S
C1000 C1001 1.404 . S
C1000 C1003 1.539 . S
C1001 C997 1.408 . S
C1001 C1000 1.404 . S
C1001 H1013 0.930 . S
C1002 C998 1.524 . S
C1002 H1014 0.956 . S
C1002 H1015 0.961 . S
C1002 H1016 0.961 . S
C1003 C1000 1.539 . S
C1003 H1017 0.958 . S
C1003 H1018 0.961 . S
C1003 H1019 0.960 . S
H1004 C988 0.931 . S
H1005 C993 0.929 . S
H1006 C994 0.960 . S
H1007 C994 0.962 . S
H1008 C994 0.960 . S
H1009 C995 0.961 . S
H1010 C995 0.961 . S
H1011 C995 0.961 1_554 S
H1012 C996 0.931 . S
H1013 C1001 0.930 . S
H1014 C1002 0.956 . S
H1015 C1002 0.961 . S
H1016 C1002 0.961 . S
H1017 C1003 0.958 . S
H1018 C1003 0.961 . S
H1019 C1003 0.960 . S
C1020 C1021 1.391 . S
C1020 C1022 1.394 . S
C1020 H1036 0.931 1_455 S
C1021 C1020 1.391 . S
C1021 C1025 1.376 . S
C1022 C1020 1.394 . S
C1022 C1023 1.369 . S
C1022 C1026 1.531 . S
C1023 C1022 1.369 . S
C1023 C1024 1.410 . S
C1023 C1031 1.503 . S
C1024 C1023 1.410 . S
C1024 C1025 1.392 . S
C1024 C1027 1.511 . S
C1025 C1021 1.376 . S
C1025 C1024 1.392 . S
C1025 H1037 0.929 . S
C1026 C1022 1.531 . S
C1026 H1038 0.960 . S
C1026 H1039 0.962 1_455 S
C1026 H1040 0.960 1_455 S
C1027 C1024 1.511 . S
C1027 H1041 0.961 . S
C1027 H1042 0.961 . S
C1027 H1043 0.961 . S
C1028 C1029 1.370 . S
C1028 C1030 1.363 . S
C1028 H1044 0.931 . S
C1029 C1028 1.370 . S
C1029 C1033 1.408 . S
C1030 C1028 1.363 . S
C1030 C1031 1.370 . S
C1030 C1034 1.524 . S
C1031 C1023 1.503 . S
C1031 C1030 1.370 . S
C1031 C1032 1.403 . S
C1032 C1031 1.403 . S
C1032 C1033 1.404 . S
C1032 C1035 1.539 . S
C1033 C1029 1.408 . S
C1033 C1032 1.404 . S
C1033 H1045 0.930 . S
C1034 C1030 1.524 . S
C1034 H1046 0.956 . S
C1034 H1047 0.961 . S
C1034 H1048 0.961 . S
C1035 C1032 1.539 . S
C1035 H1049 0.958 . S
C1035 H1050 0.961 . S
C1035 H1051 0.960 . S
H1036 C1020 0.931 1_655 S
H1037 C1025 0.929 . S
H1038 C1026 0.960 . S
H1039 C1026 0.962 1_655 S
H1040 C1026 0.960 1_655 S
H1041 C1027 0.961 . S
H1042 C1027 0.961 . S
H1043 C1027 0.961 . S
H1044 C1028 0.931 . S
H1045 C1033 0.930 . S
H1046 C1034 0.956 . S
H1047 C1034 0.961 . S
H1048 C1034 0.961 . S
H1049 C1035 0.958 . S
H1050 C1035 0.961 . S
H1051 C1035 0.960 . S
C1052 C1053 1.391 . S
C1052 C1054 1.394 . S
C1052 H1068 0.931 . S
C1053 C1052 1.391 . S
C1053 C1057 1.376 . S
C1054 C1052 1.394 . S
C1054 C1055 1.369 . S
C1054 C1058 1.531 . S
C1055 C1054 1.369 . S
C1055 C1056 1.410 . S
C1055 C1063 1.503 . S
C1056 C1055 1.410 . S
C1056 C1057 1.392 . S
C1056 C1059 1.511 . S
C1057 C1053 1.376 . S
C1057 C1056 1.392 . S
C1057 H1069 0.929 . S
C1058 C1054 1.531 . S
C1058 H1070 0.960 . S
C1058 H1071 0.962 . S
C1058 H1072 0.960 . S
C1059 C1056 1.511 . S
C1059 H1073 0.961 . S
C1059 H1074 0.961 . S
C1059 H1075 0.961 . S
C1060 C1061 1.370 . S
C1060 C1062 1.363 . S
C1060 H1076 0.931 . S
C1061 C1060 1.370 . S
C1061 C1065 1.408 . S
C1062 C1060 1.363 . S
C1062 C1063 1.370 . S
C1062 C1066 1.524 . S
C1063 C1055 1.503 . S
C1063 C1062 1.370 . S
C1063 C1064 1.403 . S
C1064 C1063 1.403 . S
C1064 C1065 1.404 . S
C1064 C1067 1.539 . S
C1065 C1061 1.408 . S
C1065 C1064 1.404 . S
C1065 H1077 0.930 . S
C1066 C1062 1.524 . S
C1066 H1078 0.956 . S
C1066 H1079 0.961 . S
C1066 H1080 0.961 . S
C1067 C1064 1.539 . S
C1067 H1081 0.958 . S
C1067 H1082 0.961 . S
C1067 H1083 0.960 . S
H1068 C1052 0.931 . S
H1069 C1057 0.929 . S
H1070 C1058 0.960 . S
H1071 C1058 0.962 . S
H1072 C1058 0.960 . S
H1073 C1059 0.961 . S
H1074 C1059 0.961 . S
H1075 C1059 0.961 . S
H1076 C1060 0.931 . S
H1077 C1065 0.930 . S
H1078 C1066 0.956 . S
H1079 C1066 0.961 . S
H1080 C1066 0.961 . S
H1081 C1067 0.958 . S
H1082 C1067 0.961 . S
H1083 C1067 0.960 . S
C1084 C1085 1.391 . S
C1084 C1086 1.394 . S
C1084 H1100 0.931 . S
C1085 C1084 1.391 . S
C1085 C1089 1.376 . S
C1086 C1084 1.394 . S
C1086 C1087 1.369 . S
C1086 C1090 1.531 . S
C1087 C1086 1.369 . S
C1087 C1088 1.410 . S
C1087 C1095 1.503 . S
C1088 C1087 1.410 . S
C1088 C1089 1.392 . S
C1088 C1091 1.511 . S
C1089 C1085 1.376 . S
C1089 C1088 1.392 . S
C1089 H1101 0.929 . S
C1090 C1086 1.531 . S
C1090 H1102 0.960 . S
C1090 H1103 0.962 . S
C1090 H1104 0.960 . S
C1091 C1088 1.511 . S
C1091 H1105 0.961 . S
C1091 H1106 0.961 . S
C1091 H1107 0.961 . S
C1092 C1093 1.370 . S
C1092 C1094 1.363 . S
C1092 H1108 0.931 . S
C1093 C1092 1.370 . S
C1093 C1097 1.408 . S
C1094 C1092 1.363 . S
C1094 C1095 1.370 . S
C1094 C1098 1.524 . S
C1095 C1087 1.503 . S
C1095 C1094 1.370 . S
C1095 C1096 1.403 . S
C1096 C1095 1.403 . S
C1096 C1097 1.404 . S
C1096 C1099 1.539 . S
C1097 C1093 1.408 . S
C1097 C1096 1.404 . S
C1097 H1109 0.930 . S
C1098 C1094 1.524 . S
C1098 H1110 0.956 . S
C1098 H1111 0.961 . S
C1098 H1112 0.961 . S
C1099 C1096 1.539 . S
C1099 H1113 0.958 . S
C1099 H1114 0.961 . S
C1099 H1115 0.960 . S
H1100 C1084 0.931 . S
H1101 C1089 0.929 . S
H1102 C1090 0.960 . S
H1103 C1090 0.962 . S
H1104 C1090 0.960 . S
H1105 C1091 0.961 . S
H1106 C1091 0.961 . S
H1107 C1091 0.961 . S
H1108 C1092 0.931 . S
H1109 C1097 0.930 . S
H1110 C1098 0.956 . S
H1111 C1098 0.961 . S
H1112 C1098 0.961 . S
H1113 C1099 0.958 . S
H1114 C1099 0.961 . S
H1115 C1099 0.960 . S
C1116 C1117 1.391 1_554 S
C1116 C1118 1.394 1_554 S
C1116 H1132 0.931 . S
C1117 C1116 1.391 1_556 S
C1117 C1121 1.376 . S
C1118 C1116 1.394 1_556 S
C1118 C1119 1.369 . S
C1118 C1122 1.531 1_556 S
C1119 C1118 1.369 . S
C1119 C1120 1.410 . S
C1119 C1127 1.503 . S
C1120 C1119 1.410 . S
C1120 C1121 1.392 . S
C1120 C1123 1.511 . S
C1121 C1117 1.376 . S
C1121 C1120 1.392 . S
C1121 H1133 0.929 . S
C1122 C1118 1.531 1_554 S
C1122 H1134 0.960 . S
C1122 H1135 0.962 . S
C1122 H1136 0.960 . S
C1123 C1120 1.511 . S
C1123 H1137 0.961 . S
C1123 H1138 0.961 . S
C1123 H1139 0.961 . S
C1124 C1125 1.370 . S
C1124 C1126 1.363 . S
C1124 H1140 0.931 . S
C1125 C1124 1.370 . S
C1125 C1129 1.408 . S
C1126 C1124 1.363 . S
C1126 C1127 1.370 . S
C1126 C1130 1.524 . S
C1127 C1119 1.503 . S
C1127 C1126 1.370 . S
C1127 C1128 1.403 . S
C1128 C1127 1.403 . S
C1128 C1129 1.404 . S
C1128 C1131 1.539 . S
C1129 C1125 1.408 . S
C1129 C1128 1.404 . S
C1129 H1141 0.930 . S
C1130 C1126 1.524 . S
C1130 H1142 0.956 . S
C1130 H1143 0.961 . S
C1130 H1144 0.961 . S
C1131 C1128 1.539 . S
C1131 H1145 0.958 . S
C1131 H1146 0.961 . S
C1131 H1147 0.960 . S
H1132 C1116 0.931 . S
H1133 C1121 0.929 . S
H1134 C1122 0.960 . S
H1135 C1122 0.962 . S
H1136 C1122 0.960 . S
H1137 C1123 0.961 . S
H1138 C1123 0.961 . S
H1139 C1123 0.961 . S
H1140 C1124 0.931 . S
H1141 C1129 0.930 . S
H1142 C1130 0.956 . S
H1143 C1130 0.961 . S
H1144 C1130 0.961 . S
H1145 C1131 0.958 . S
H1146 C1131 0.961 . S
H1147 C1131 0.960 . S
C1148 C1149 1.391 . S
C1148 C1150 1.394 . S
C1148 H1164 0.931 . S
C1149 C1148 1.391 . S
C1149 C1153 1.376 . S
C1150 C1148 1.394 . S
C1150 C1151 1.369 . S
C1150 C1154 1.531 . S
C1151 C1150 1.369 . S
C1151 C1152 1.410 . S
C1151 C1159 1.503 . S
C1152 C1151 1.410 . S
C1152 C1153 1.392 . S
C1152 C1155 1.511 1_556 S
C1153 C1149 1.376 . S
C1153 C1152 1.392 . S
C1153 H1165 0.929 . S
C1154 C1150 1.531 . S
C1154 H1166 0.960 . S
C1154 H1167 0.962 . S
C1154 H1168 0.960 . S
C1155 C1152 1.511 1_554 S
C1155 H1169 0.961 . S
C1155 H1170 0.961 . S
C1155 H1171 0.961 . S
C1156 C1157 1.370 . S
C1156 C1158 1.363 . S
C1156 H1172 0.931 . S
C1157 C1156 1.370 . S
C1157 C1161 1.408 . S
C1158 C1156 1.363 . S
C1158 C1159 1.370 . S
C1158 C1162 1.524 . S
C1159 C1151 1.503 . S
C1159 C1158 1.370 . S
C1159 C1160 1.403 . S
C1160 C1159 1.403 . S
C1160 C1161 1.404 . S
C1160 C1163 1.539 . S
C1161 C1157 1.408 . S
C1161 C1160 1.404 . S
C1161 H1173 0.930 1_556 S
C1162 C1158 1.524 . S
C1162 H1174 0.956 . S
C1162 H1175 0.961 . S
C1162 H1176 0.961 . S
C1163 C1160 1.539 . S
C1163 H1177 0.958 . S
C1163 H1178 0.961 1_556 S
C1163 H1179 0.960 . S
H1164 C1148 0.931 . S
H1165 C1153 0.929 . S
H1166 C1154 0.960 . S
H1167 C1154 0.962 . S
H1168 C1154 0.960 . S
H1169 C1155 0.961 . S
H1170 C1155 0.961 . S
H1171 C1155 0.961 . S
H1172 C1156 0.931 . S
H1173 C1161 0.930 1_554 S
H1174 C1162 0.956 . S
H1175 C1162 0.961 . S
H1176 C1162 0.961 . S
H1177 C1163 0.958 . S
H1178 C1163 0.961 1_554 S
H1179 C1163 0.960 . S
C1180 C1181 1.391 . S
C1180 C1182 1.394 . S
C1180 H1196 0.931 . S
C1181 C1180 1.391 . S
C1181 C1185 1.376 . S
C1182 C1180 1.394 . S
C1182 C1183 1.369 . S
C1182 C1186 1.531 . S
C1183 C1182 1.369 . S
C1183 C1184 1.410 . S
C1183 C1191 1.503 . S
C1184 C1183 1.410 . S
C1184 C1185 1.392 . S
C1184 C1187 1.511 . S
C1185 C1181 1.376 . S
C1185 C1184 1.392 . S
C1185 H1197 0.929 . S
C1186 C1182 1.531 . S
C1186 H1198 0.960 1_556 S
C1186 H1199 0.962 . S
C1186 H1200 0.960 1_556 S
C1187 C1184 1.511 . S
C1187 H1201 0.961 . S
C1187 H1202 0.961 . S
C1187 H1203 0.961 . S
C1188 C1189 1.370 . S
C1188 C1190 1.363 . S
C1188 H1204 0.931 . S
C1189 C1188 1.370 . S
C1189 C1193 1.408 1_556 S
C1190 C1188 1.363 . S
C1190 C1191 1.370 . S
C1190 C1194 1.524 . S
C1191 C1183 1.503 . S
C1191 C1190 1.370 . S
C1191 C1192 1.403 . S
C1192 C1191 1.403 . S
C1192 C1193 1.404 1_556 S
C1192 C1195 1.539 1_556 S
C1193 C1189 1.408 1_554 S
C1193 C1192 1.404 1_554 S
C1193 H1205 0.930 . S
C1194 C1190 1.524 . S
C1194 H1206 0.956 . S
C1194 H1207 0.961 . S
C1194 H1208 0.961 . S
C1195 C1192 1.539 1_554 S
C1195 H1209 0.958 . S
C1195 H1210 0.961 . S
C1195 H1211 0.960 1_554 S
H1196 C1180 0.931 . S
H1197 C1185 0.929 . S
H1198 C1186 0.960 1_554 S
H1199 C1186 0.962 . S
H1200 C1186 0.960 1_554 S
H1201 C1187 0.961 . S
H1202 C1187 0.961 . S
H1203 C1187 0.961 . S
H1204 C1188 0.931 . S
H1205 C1193 0.930 . S
H1206 C1194 0.956 . S
H1207 C1194 0.961 . S
H1208 C1194 0.961 . S
H1209 C1195 0.958 . S
H1210 C1195 0.961 . S
H1211 C1195 0.960 1_556 S
C1212 C1213 1.391 . S
C1212 C1214 1.394 . S
C1212 H1228 0.931 . S
C1213 C1212 1.391 . S
C1213 C1217 1.376 . S
C1214 C1212 1.394 . S
C1214 C1215 1.369 . S
C1214 C1218 1.531 . S
C1215 C1214 1.369 . S
C1215 C1216 1.410 . S
C1215 C1223 1.503 . S
C1216 C1215 1.410 . S
C1216 C1217 1.392 . S
C1216 C1219 1.511 . S
C1217 C1213 1.376 . S
C1217 C1216 1.392 . S
C1217 H1229 0.929 . S
C1218 C1214 1.531 . S
C1218 H1230 0.960 . S
C1218 H1231 0.962 . S
C1218 H1232 0.960 . S
C1219 C1216 1.511 . S
C1219 H1233 0.961 . S
C1219 H1234 0.961 . S
C1219 H1235 0.961 . S
C1220 C1221 1.370 . S
C1220 C1222 1.363 . S
C1220 H1236 0.931 . S
C1221 C1220 1.370 . S
C1221 C1225 1.408 . S
C1222 C1220 1.363 . S
C1222 C1223 1.370 . S
C1222 C1226 1.524 . S
C1223 C1215 1.503 . S
C1223 C1222 1.370 . S
C1223 C1224 1.403 . S
C1224 C1223 1.403 . S
C1224 C1225 1.404 . S
C1224 C1227 1.539 . S
C1225 C1221 1.408 . S
C1225 C1224 1.404 . S
C1225 H1237 0.930 . S
C1226 C1222 1.524 . S
C1226 H1238 0.956 . S
C1226 H1239 0.961 . S
C1226 H1240 0.961 . S
C1227 C1224 1.539 . S
C1227 H1241 0.958 . S
C1227 H1242 0.961 . S
C1227 H1243 0.960 . S
H1228 C1212 0.931 . S
H1229 C1217 0.929 . S
H1230 C1218 0.960 . S
H1231 C1218 0.962 . S
H1232 C1218 0.960 . S
H1233 C1219 0.961 . S
H1234 C1219 0.961 . S
H1235 C1219 0.961 . S
H1236 C1220 0.931 . S
H1237 C1225 0.930 . S
H1238 C1226 0.956 . S
H1239 C1226 0.961 . S
H1240 C1226 0.961 . S
H1241 C1227 0.958 . S
H1242 C1227 0.961 . S
H1243 C1227 0.960 . S
C1244 C1245 1.391 . S
C1244 C1246 1.394 . S
C1244 H1260 0.931 . S
C1245 C1244 1.391 . S
C1245 C1249 1.376 . S
C1246 C1244 1.394 . S
C1246 C1247 1.369 . S
C1246 C1250 1.531 . S
C1247 C1246 1.369 . S
C1247 C1248 1.410 . S
C1247 C1255 1.503 . S
C1248 C1247 1.410 . S
C1248 C1249 1.392 . S
C1248 C1251 1.511 . S
C1249 C1245 1.376 . S
C1249 C1248 1.392 . S
C1249 H1261 0.929 . S
C1250 C1246 1.531 . S
C1250 H1262 0.960 . S
C1250 H1263 0.962 . S
C1250 H1264 0.960 . S
C1251 C1248 1.511 . S
C1251 H1265 0.961 . S
C1251 H1266 0.961 . S
C1251 H1267 0.961 . S
C1252 C1253 1.370 . S
C1252 C1254 1.363 . S
C1252 H1268 0.931 . S
C1253 C1252 1.370 . S
C1253 C1257 1.408 . S
C1254 C1252 1.363 . S
C1254 C1255 1.370 . S
C1254 C1258 1.524 . S
C1255 C1247 1.503 . S
C1255 C1254 1.370 . S
C1255 C1256 1.403 . S
C1256 C1255 1.403 . S
C1256 C1257 1.404 . S
C1256 C1259 1.539 . S
C1257 C1253 1.408 . S
C1257 C1256 1.404 . S
C1257 H1269 0.930 . S
C1258 C1254 1.524 . S
C1258 H1270 0.956 . S
C1258 H1271 0.961 . S
C1258 H1272 0.961 . S
C1259 C1256 1.539 . S
C1259 H1273 0.958 . S
C1259 H1274 0.961 . S
C1259 H1275 0.960 . S
H1260 C1244 0.931 . S
H1261 C1249 0.929 . S
H1262 C1250 0.960 . S
H1263 C1250 0.962 . S
H1264 C1250 0.960 . S
H1265 C1251 0.961 . S
H1266 C1251 0.961 . S
H1267 C1251 0.961 . S
H1268 C1252 0.931 . S
H1269 C1257 0.930 . S
H1270 C1258 0.956 . S
H1271 C1258 0.961 . S
H1272 C1258 0.961 . S
H1273 C1259 0.958 . S
H1274 C1259 0.961 . S
H1275 C1259 0.960 . S
C1276 C1277 1.391 . S
C1276 C1278 1.394 . S
C1276 H1292 0.931 . S
C1277 C1276 1.391 . S
C1277 C1281 1.376 . S
C1278 C1276 1.394 . S
C1278 C1279 1.369 . S
C1278 C1282 1.531 . S
C1279 C1278 1.369 . S
C1279 C1280 1.410 . S
C1279 C1287 1.503 . S
C1280 C1279 1.410 . S
C1280 C1281 1.392 . S
C1280 C1283 1.511 . S
C1281 C1277 1.376 . S
C1281 C1280 1.392 . S
C1281 H1293 0.929 . S
C1282 C1278 1.531 . S
C1282 H1294 0.960 . S
C1282 H1295 0.962 . S
C1282 H1296 0.960 . S
C1283 C1280 1.511 . S
C1283 H1297 0.961 . S
C1283 H1298 0.961 . S
C1283 H1299 0.961 . S
C1284 C1285 1.370 . S
C1284 C1286 1.363 . S
C1284 H1300 0.931 . S
C1285 C1284 1.370 . S
C1285 C1289 1.408 . S
C1286 C1284 1.363 . S
C1286 C1287 1.370 . S
C1286 C1290 1.524 . S
C1287 C1279 1.503 . S
C1287 C1286 1.370 . S
C1287 C1288 1.403 . S
C1288 C1287 1.403 . S
C1288 C1289 1.404 . S
C1288 C1291 1.539 . S
C1289 C1285 1.408 . S
C1289 C1288 1.404 . S
C1289 H1301 0.930 . S
C1290 C1286 1.524 . S
C1290 H1302 0.956 . S
C1290 H1303 0.961 . S
C1290 H1304 0.961 . S
C1291 C1288 1.539 . S
C1291 H1305 0.958 . S
C1291 H1306 0.961 . S
C1291 H1307 0.960 . S
H1292 C1276 0.931 . S
H1293 C1281 0.929 . S
H1294 C1282 0.960 . S
H1295 C1282 0.962 . S
H1296 C1282 0.960 . S
H1297 C1283 0.961 . S
H1298 C1283 0.961 . S
H1299 C1283 0.961 . S
H1300 C1284 0.931 . S
H1301 C1289 0.930 . S
H1302 C1290 0.956 . S
H1303 C1290 0.961 . S
H1304 C1290 0.961 . S
H1305 C1291 0.958 . S
H1306 C1291 0.961 . S
H1307 C1291 0.960 . S
C1308 C1309 1.391 . S
C1308 C1310 1.394 . S
C1308 H1324 0.931 . S
C1309 C1308 1.391 . S
C1309 C1313 1.376 . S
C1310 C1308 1.394 . S
C1310 C1311 1.369 . S
C1310 C1314 1.531 . S
C1311 C1310 1.369 . S
C1311 C1312 1.410 . S
C1311 C1319 1.503 . S
C1312 C1311 1.410 . S
C1312 C1313 1.392 . S
C1312 C1315 1.511 . S
C1313 C1309 1.376 . S
C1313 C1312 1.392 . S
C1313 H1325 0.929 . S
C1314 C1310 1.531 . S
C1314 H1326 0.960 . S
C1314 H1327 0.962 . S
C1314 H1328 0.960 . S
C1315 C1312 1.511 . S
C1315 H1329 0.961 . S
C1315 H1330 0.961 . S
C1315 H1331 0.961 . S
C1316 C1317 1.370 . S
C1316 C1318 1.363 . S
C1316 H1332 0.931 . S
C1317 C1316 1.370 . S
C1317 C1321 1.408 . S
C1318 C1316 1.363 . S
C1318 C1319 1.370 . S
C1318 C1322 1.524 . S
C1319 C1311 1.503 . S
C1319 C1318 1.370 . S
C1319 C1320 1.403 . S
C1320 C1319 1.403 . S
C1320 C1321 1.404 . S
C1320 C1323 1.539 . S
C1321 C1317 1.408 . S
C1321 C1320 1.404 . S
C1321 H1333 0.930 . S
C1322 C1318 1.524 . S
C1322 H1334 0.956 . S
C1322 H1335 0.961 . S
C1322 H1336 0.961 . S
C1323 C1320 1.539 . S
C1323 H1337 0.958 . S
C1323 H1338 0.961 . S
C1323 H1339 0.960 . S
H1324 C1308 0.931 . S
H1325 C1313 0.929 . S
H1326 C1314 0.960 . S
H1327 C1314 0.962 . S
H1328 C1314 0.960 . S
H1329 C1315 0.961 . S
H1330 C1315 0.961 . S
H1331 C1315 0.961 . S
H1332 C1316 0.931 . S
H1333 C1321 0.930 . S
H1334 C1322 0.956 . S
H1335 C1322 0.961 . S
H1336 C1322 0.961 . S
H1337 C1323 0.958 . S
H1338 C1323 0.961 . S
H1339 C1323 0.960 . S
C1340 C1341 1.391 . S
C1340 C1342 1.394 . S
C1340 H1356 0.931 . S
C1341 C1340 1.391 . S
C1341 C1345 1.376 . S
C1342 C1340 1.394 . S
C1342 C1343 1.369 . S
C1342 C1346 1.531 . S
C1343 C1342 1.369 . S
C1343 C1344 1.410 . S
C1343 C1351 1.503 . S
C1344 C1343 1.410 . S
C1344 C1345 1.392 . S
C1344 C1347 1.511 . S
C1345 C1341 1.376 . S
C1345 C1344 1.392 . S
C1345 H1357 0.929 . S
C1346 C1342 1.531 . S
C1346 H1358 0.960 . S
C1346 H1359 0.962 . S
C1346 H1360 0.960 . S
C1347 C1344 1.511 . S
C1347 H1361 0.961 . S
C1347 H1362 0.961 . S
C1347 H1363 0.961 . S
C1348 C1349 1.370 . S
C1348 C1350 1.363 . S
C1348 H1364 0.931 . S
C1349 C1348 1.370 . S
C1349 C1353 1.408 . S
C1350 C1348 1.363 . S
C1350 C1351 1.370 . S
C1350 C1354 1.524 . S
C1351 C1343 1.503 . S
C1351 C1350 1.370 . S
C1351 C1352 1.403 . S
C1352 C1351 1.403 . S
C1352 C1353 1.404 . S
C1352 C1355 1.539 . S
C1353 C1349 1.408 . S
C1353 C1352 1.404 . S
C1353 H1365 0.930 . S
C1354 C1350 1.524 . S
C1354 H1366 0.956 . S
C1354 H1367 0.961 . S
C1354 H1368 0.961 . S
C1355 C1352 1.539 . S
C1355 H1369 0.958 . S
C1355 H1370 0.961 . S
C1355 H1371 0.960 . S
H1356 C1340 0.931 . S
H1357 C1345 0.929 . S
H1358 C1346 0.960 . S
H1359 C1346 0.962 . S
H1360 C1346 0.960 . S
H1361 C1347 0.961 . S
H1362 C1347 0.961 . S
H1363 C1347 0.961 . S
H1364 C1348 0.931 . S
H1365 C1353 0.930 . S
H1366 C1354 0.956 . S
H1367 C1354 0.961 . S
H1368 C1354 0.961 . S
H1369 C1355 0.958 . S
H1370 C1355 0.961 . S
H1371 C1355 0.960 . S
C1372 C1373 1.391 . S
C1372 C1374 1.394 . S
C1372 H1388 0.931 . S
C1373 C1372 1.391 . S
C1373 C1377 1.376 . S
C1374 C1372 1.394 . S
C1374 C1375 1.369 . S
C1374 C1378 1.531 . S
C1375 C1374 1.369 . S
C1375 C1376 1.410 . S
C1375 C1383 1.503 . S
C1376 C1375 1.410 . S
C1376 C1377 1.392 . S
C1376 C1379 1.511 . S
C1377 C1373 1.376 . S
C1377 C1376 1.392 . S
C1377 H1389 0.929 . S
C1378 C1374 1.531 . S
C1378 H1390 0.960 . S
C1378 H1391 0.962 . S
C1378 H1392 0.960 . S
C1379 C1376 1.511 . S
C1379 H1393 0.961 . S
C1379 H1394 0.961 . S
C1379 H1395 0.961 . S
C1380 C1381 1.370 . S
C1380 C1382 1.363 . S
C1380 H1396 0.931 . S
C1381 C1380 1.370 . S
C1381 C1385 1.408 . S
C1382 C1380 1.363 . S
C1382 C1383 1.370 . S
C1382 C1386 1.524 . S
C1383 C1375 1.503 . S
C1383 C1382 1.370 . S
C1383 C1384 1.403 . S
C1384 C1383 1.403 . S
C1384 C1385 1.404 . S
C1384 C1387 1.539 . S
C1385 C1381 1.408 . S
C1385 C1384 1.404 . S
C1385 H1397 0.930 . S
C1386 C1382 1.524 . S
C1386 H1398 0.956 . S
C1386 H1399 0.961 . S
C1386 H1400 0.961 . S
C1387 C1384 1.539 . S
C1387 H1401 0.958 . S
C1387 H1402 0.961 . S
C1387 H1403 0.960 . S
H1388 C1372 0.931 . S
H1389 C1377 0.929 . S
H1390 C1378 0.960 . S
H1391 C1378 0.962 . S
H1392 C1378 0.960 . S
H1393 C1379 0.961 . S
H1394 C1379 0.961 . S
H1395 C1379 0.961 . S
H1396 C1380 0.931 . S
H1397 C1385 0.930 . S
H1398 C1386 0.956 . S
H1399 C1386 0.961 . S
H1400 C1386 0.961 . S
H1401 C1387 0.958 . S
H1402 C1387 0.961 . S
H1403 C1387 0.960 . S
C253 C43 1.868 . S
C261 C13 1.862 . S
C285 C68 1.880 . S
C293 C15 1.859 . S
C317 C29 1.871 . S
C325 C83 1.862 . S
C349 C40 1.844 . S
C357 C70 1.872 . S
C381 C0 1.844 . S
C389 C54 1.874 . S
C413 C57 1.856 . S
C421 C26 1.866 . S
C445 C138 1.878 . S
C453 C97 1.857 . S
C477 C99 1.852 . S
C485 C152 1.871 . S
C509 C124 1.876 . S
C517 C155 1.859 . S
C541 C166 1.841 1_556 S
C549 C113 1.873 . S
C573 C127 1.880 1_556 S
C581 C84 1.855 . S
C605 C141 1.866 1_556 S
C613 C110 1.862 . S
C637 C181 1.877 . S
C645 C211 1.855 . S
C669 C183 1.844 . S
C677 C236 1.874 . S
C701 C197 1.846 . S
C709 C239 1.872 . S
C733 C250 1.871 . S
C741 C208 1.857 1_554 S
C765 C222 1.853 . S
C773 C168 1.869 1_554 S
C797 C225 1.855 . S
C805 C194 1.864 1_554 S
C829 C12 1.606 . S
C837 C111 1.625 . S
C861 C14 1.611 . S
C869 C112 1.624 . S
C893 C85 1.619 . S
C901 C28 1.609 . S
C925 C41 1.630 . S
C933 C182 1.613 1_554 S
C957 C196 1.629 1_554 S
C965 C1 1.618 . S
C989 C180 1.609 1_554 S
C997 C27 1.612 . S
C1021 C224 1.631 . S
C1029 C42 1.618 . S
C1053 C69 1.630 . S
C1061 C251 1.619 . S
C1085 C223 1.616 . S
C1093 C82 1.625 . S
C1117 C153 1.598 1_556 S
C1125 C71 1.611 . S
C1149 C55 1.607 . S
C1157 C154 1.611 1_556 S
C1181 C56 1.631 . S
C1189 C139 1.618 1_556 S
C1213 C96 1.595 . S
C1221 C195 1.617 . S
C1245 C98 1.610 . S
C1253 C209 1.625 . S
C1277 C125 1.617 . S
C1285 C169 1.625 . S
C1309 C237 1.620 . S
C1317 C167 1.624 . S
C1341 C238 1.605 . S
C1349 C126 1.623 . S
C1373 C140 1.622 . S
C1381 C210 1.613 . S
