# Generated by pormake.
# Topology bcs, (6)-cn, num edge types: 1
# Building blocks:
#     Node 0, Type 0, BuildingBlock: CUWYAW_clean_sbu_0, # of connection points: 6
#     Node 1, Type 0, BuildingBlock: CUWYAW_clean_sbu_0, # of connection points: 6
#     Node 2, Type 0, BuildingBlock: CUWYAW_clean_sbu_0, # of connection points: 6
#     Node 3, Type 0, BuildingBlock: CUWYAW_clean_sbu_0, # of connection points: 6
#     Node 4, Type 0, BuildingBlock: CUWYAW_clean_sbu_0, # of connection points: 6
#     Node 5, Type 0, BuildingBlock: CUWYAW_clean_sbu_0, # of connection points: 6
#     Node 6, Type 0, BuildingBlock: CUWYAW_clean_sbu_0, # of connection points: 6
#     Node 7, Type 0, BuildingBlock: CUWYAW_clean_sbu_0, # of connection points: 6
#     Node 8, Type 0, BuildingBlock: CUWYAW_clean_sbu_0, # of connection points: 6
#     Node 9, Type 0, BuildingBlock: CUWYAW_clean_sbu_0, # of connection points: 6
#     Node 10, Type 0, BuildingBlock: CUWYAW_clean_sbu_0, # of connection points: 6
#     Node 11, Type 0, BuildingBlock: CUWYAW_clean_sbu_0, # of connection points: 6
#     Node 12, Type 0, BuildingBlock: CUWYAW_clean_sbu_0, # of connection points: 6
#     Node 13, Type 0, BuildingBlock: CUWYAW_clean_sbu_0, # of connection points: 6
#     Node 14, Type 0, BuildingBlock: CUWYAW_clean_sbu_0, # of connection points: 6
#     Node 15, Type 0, BuildingBlock: CUWYAW_clean_sbu_0, # of connection points: 6
#     Edge 16, Type (0, 0), BuildingBlock: XIVTED_clean_linker_0, # of connection points: 2
#     Edge 17, Type (0, 0), BuildingBlock: XIVTED_clean_linker_0, # of connection points: 2
#     Edge 18, Type (0, 0), BuildingBlock: XIVTED_clean_linker_0, # of connection points: 2
#     Edge 19, Type (0, 0), BuildingBlock: XIVTED_clean_linker_0, # of connection points: 2
#     Edge 20, Type (0, 0), BuildingBlock: XIVTED_clean_linker_0, # of connection points: 2
#     Edge 21, Type (0, 0), BuildingBlock: XIVTED_clean_linker_0, # of connection points: 2
#     Edge 22, Type (0, 0), BuildingBlock: XIVTED_clean_linker_0, # of connection points: 2
#     Edge 23, Type (0, 0), BuildingBlock: XIVTED_clean_linker_0, # of connection points: 2
#     Edge 24, Type (0, 0), BuildingBlock: XIVTED_clean_linker_0, # of connection points: 2
#     Edge 25, Type (0, 0), BuildingBlock: XIVTED_clean_linker_0, # of connection points: 2
#     Edge 26, Type (0, 0), BuildingBlock: XIVTED_clean_linker_0, # of connection points: 2
#     Edge 27, Type (0, 0), BuildingBlock: XIVTED_clean_linker_0, # of connection points: 2
#     Edge 28, Type (0, 0), BuildingBlock: XIVTED_clean_linker_0, # of connection points: 2
#     Edge 29, Type (0, 0), BuildingBlock: XIVTED_clean_linker_0, # of connection points: 2
#     Edge 30, Type (0, 0), BuildingBlock: XIVTED_clean_linker_0, # of connection points: 2
#     Edge 31, Type (0, 0), BuildingBlock: XIVTED_clean_linker_0, # of connection points: 2
#     Edge 32, Type (0, 0), BuildingBlock: XIVTED_clean_linker_0, # of connection points: 2
#     Edge 33, Type (0, 0), BuildingBlock: XIVTED_clean_linker_0, # of connection points: 2
#     Edge 34, Type (0, 0), BuildingBlock: XIVTED_clean_linker_0, # of connection points: 2
#     Edge 35, Type (0, 0), BuildingBlock: XIVTED_clean_linker_0, # of connection points: 2
#     Edge 36, Type (0, 0), BuildingBlock: XIVTED_clean_linker_0, # of connection points: 2
#     Edge 37, Type (0, 0), BuildingBlock: XIVTED_clean_linker_0, # of connection points: 2
#     Edge 38, Type (0, 0), BuildingBlock: XIVTED_clean_linker_0, # of connection points: 2
#     Edge 39, Type (0, 0), BuildingBlock: XIVTED_clean_linker_0, # of connection points: 2
#     Edge 40, Type (0, 0), BuildingBlock: XIVTED_clean_linker_0, # of connection points: 2
#     Edge 41, Type (0, 0), BuildingBlock: XIVTED_clean_linker_0, # of connection points: 2
#     Edge 42, Type (0, 0), BuildingBlock: XIVTED_clean_linker_0, # of connection points: 2
#     Edge 43, Type (0, 0), BuildingBlock: XIVTED_clean_linker_0, # of connection points: 2
#     Edge 44, Type (0, 0), BuildingBlock: XIVTED_clean_linker_0, # of connection points: 2
#     Edge 45, Type (0, 0), BuildingBlock: XIVTED_clean_linker_0, # of connection points: 2
#     Edge 46, Type (0, 0), BuildingBlock: XIVTED_clean_linker_0, # of connection points: 2
#     Edge 47, Type (0, 0), BuildingBlock: XIVTED_clean_linker_0, # of connection points: 2
#     Edge 48, Type (0, 0), BuildingBlock: XIVTED_clean_linker_0, # of connection points: 2
#     Edge 49, Type (0, 0), BuildingBlock: XIVTED_clean_linker_0, # of connection points: 2
#     Edge 50, Type (0, 0), BuildingBlock: XIVTED_clean_linker_0, # of connection points: 2
#     Edge 51, Type (0, 0), BuildingBlock: XIVTED_clean_linker_0, # of connection points: 2
#     Edge 52, Type (0, 0), BuildingBlock: XIVTED_clean_linker_0, # of connection points: 2
#     Edge 53, Type (0, 0), BuildingBlock: XIVTED_clean_linker_0, # of connection points: 2
#     Edge 54, Type (0, 0), BuildingBlock: XIVTED_clean_linker_0, # of connection points: 2
#     Edge 55, Type (0, 0), BuildingBlock: XIVTED_clean_linker_0, # of connection points: 2
#     Edge 56, Type (0, 0), BuildingBlock: XIVTED_clean_linker_0, # of connection points: 2
#     Edge 57, Type (0, 0), BuildingBlock: XIVTED_clean_linker_0, # of connection points: 2
#     Edge 58, Type (0, 0), BuildingBlock: XIVTED_clean_linker_0, # of connection points: 2
#     Edge 59, Type (0, 0), BuildingBlock: XIVTED_clean_linker_0, # of connection points: 2
#     Edge 60, Type (0, 0), BuildingBlock: XIVTED_clean_linker_0, # of connection points: 2
#     Edge 61, Type (0, 0), BuildingBlock: XIVTED_clean_linker_0, # of connection points: 2
#     Edge 62, Type (0, 0), BuildingBlock: XIVTED_clean_linker_0, # of connection points: 2
#     Edge 63, Type (0, 0), BuildingBlock: XIVTED_clean_linker_0, # of connection points: 2
# Relax obj value: 0.260
# Max RMSD: 0.225
# Mean RMSD: 0.162
data_MOF--net-bcs--node1-CUWYAW_clean_sbu_0--edge1-XIVTED_clean_linker_0
_symmetry_space_group_name_H-M    P1
_symmetry_Int_Tables_number       1
_symmetry_cell_setting            triclinic
loop_
_symmetry_equiv_pos_as_xyz
'x, y, z'
_cell_length_a     42.114003
_cell_length_b     41.763732
_cell_length_c     39.686664
_cell_angle_alpha  79.984254
_cell_angle_beta   113.12719
_cell_angle_gamma 106.7649
loop_
_atom_site_label
_atom_site_type_symbol
_atom_site_fract_x
_atom_site_fract_y
_atom_site_fract_z
_atom_type_partial_charge
C0 C 1.05356 0.08607 0.08052 0.0
Eu1 Eu 0.077 0.05298 0.04517 0.0
C2 C 1.03726 0.10276 0.10094 0.0
C3 C 1.04941 0.13711 0.10905 0.0
C4 C 1.03195 0.1529 0.12413 0.0
C5 C 1.00142 0.13544 0.13319 0.0
C6 C 0.9898 0.10089 0.12573 0.0
C7 C 1.00665 0.08537 0.10972 0.0
C8 C 0.11745 0.08075 0.99345 0.0
C9 C 1.01805 0.05388 0.95967 0.0
C10 C 0.08968 0.96234 0.95952 0.0
Eu11 Eu 0.06566 0.99511 0.99451 0.0
C12 C 0.1068 0.94575 0.93997 0.0
C13 C 0.09161 0.91328 0.92617 0.0
C14 C 0.10929 0.8974 0.91146 0.0
C15 C 0.14329 0.91297 0.9087 0.0
C16 C 0.15807 0.9457 0.92196 0.0
C17 C 0.14077 0.96122 0.93736 0.0
C18 C 1.02562 0.96673 0.04629 0.0
C19 C 0.12439 0.99425 0.08005 0.0
O20 O 1.03373 0.06285 0.05756 0.0
O21 O 0.08755 0.09072 0.08577 0.0
O22 O 0.11586 0.09517 0.01971 0.0
O23 O 0.09704 0.05079 0.99815 0.0
O24 O 1.03106 0.06352 0.99348 0.0
O25 O 1.0283 0.02896 0.95201 0.0
O26 O 0.10927 0.98508 0.98312 0.0
O27 O 1.05553 0.95791 0.95343 0.0
O28 O 1.02722 0.95264 0.01982 0.0
O29 O 1.0457 0.99699 0.04177 0.0
O30 O 0.11155 0.98476 0.04621 0.0
O31 O 0.11407 1.01905 0.08777 0.0
H32 H 0.07222 0.1524 0.10276 0.0
H33 H 1.04286 0.17925 0.12897 0.0
H34 H 0.96666 0.08559 0.13139 0.0
H35 H 0.99528 0.05922 0.10403 0.0
H36 H 0.066 0.89949 0.92745 0.0
H37 H 0.09578 0.87257 0.90187 0.0
H38 H 0.18392 0.95946 0.92137 0.0
H39 H 0.15449 0.98583 0.94754 0.0
C40 C 0.40764 0.83642 0.25062 0.0
Eu41 Eu 0.35093 0.79532 0.25709 0.0
C42 C 0.41319 0.87195 0.23686 0.0
C43 C 0.39269 0.8813 0.20088 0.0
C44 C 0.39628 0.9149 0.18847 0.0
C45 C 0.42022 0.94021 0.21174 0.0
C46 C 0.44032 0.9309 0.24806 0.0
C47 C 0.43686 0.89703 0.26047 0.0
C48 C 0.29938 0.75105 0.21047 0.0
C49 C 0.28076 0.8264 0.23109 0.0
C50 C 0.23902 0.71622 0.29354 0.0
Eu51 Eu 0.29553 0.75653 0.28553 0.0
C52 C 0.23267 0.6808 0.30774 0.0
C53 C 0.24996 0.67192 0.34495 0.0
C54 C 0.24509 0.63847 0.35814 0.0
C55 C 0.22287 0.61289 0.3345 0.0
C56 C 0.20605 0.62167 0.29706 0.0
C57 C 0.21091 0.65536 0.2838 0.0
C58 C 0.34618 0.80294 0.33063 0.0
C59 C 0.36528 0.72492 0.31067 0.0
O60 O 0.40216 0.83011 0.28163 0.0
O61 O 0.38627 0.81449 0.22648 0.0
O62 O 0.31445 0.78066 0.19978 0.0
O63 O 0.31357 0.74552 0.24479 0.0
O64 O 0.31402 0.83201 0.23247 0.0
O65 O 0.26749 0.79829 0.24818 0.0
O66 O 0.24382 0.72196 0.2622 0.0
O67 O 0.26121 0.73816 0.3173 0.0
O68 O 0.33244 0.77325 0.34242 0.0
O69 O 0.33155 0.80692 0.29629 0.0
O70 O 0.33218 0.7195 0.30971 0.0
O71 O 0.37851 0.75307 0.29366 0.0
H72 H 0.37383 0.86269 0.18205 0.0
H73 H 0.38108 0.92082 0.16002 0.0
H74 H 0.45897 0.9497 0.26673 0.0
H75 H 0.45254 0.89042 0.28856 0.0
H76 H 0.26713 0.69079 0.36419 0.0
H77 H 0.25769 0.63289 0.38733 0.0
H78 H 0.18874 0.60259 0.27816 0.0
H79 H 0.19762 0.66154 0.25486 0.0
C80 C 0.58133 0.02739 0.42664 0.0
Eu81 Eu 0.56886 0.04186 0.48073 0.0
C82 C 0.57654 0.99606 0.41165 0.0
C83 C 0.58022 0.99702 0.37798 0.0
C84 C 0.57474 0.96726 0.36287 0.0
C85 C 0.56552 0.93609 0.3813 0.0
C86 C 0.56094 0.93526 0.41468 0.0
C87 C 0.56623 0.9651 0.42967 0.0
C88 C 0.60854 0.0917 0.52714 0.0
C89 C 0.59987 0.99465 0.55608 0.0
C90 C 0.5334 0.05584 0.59428 0.0
Eu91 Eu 0.54459 0.03939 0.54049 0.0
C92 C 0.55465 0.06716 0.63145 0.0
C93 C 0.54083 0.05528 0.65931 0.0
C94 C 0.55701 0.07006 0.69281 0.0
C95 C 0.5872 0.09723 0.69892 0.0
C96 C 0.60276 0.10719 0.67205 0.0
C97 C 0.58667 0.09217 0.63858 0.0
C98 C 0.50655 0.9877 0.49673 0.0
C99 C 0.51258 0.087 0.46387 0.0
O100 O 0.55173 0.03409 0.42298 0.0
O101 O 0.6058 0.03302 0.45923 0.0
O102 O 0.60023 0.09593 0.49184 0.0
O103 O 0.59709 0.06154 0.53611 0.0
O104 O 0.58928 0.99729 0.51954 0.0
O105 O 0.59034 1.01383 0.57192 0.0
O106 O 0.52992 1.02472 0.58913 0.0
O107 O 0.5383 0.07689 0.5672 0.0
O108 O 0.51343 0.98533 0.53175 0.0
O109 O 0.5169 1.0177 0.48602 0.0
O110 O 0.51414 0.0768 0.4981 0.0
O111 O 0.53124 0.0761 0.45018 0.0
H112 H 0.58765 1.02078 0.36355 0.0
H113 H 0.57912 0.96872 0.33746 0.0
H114 H 0.55376 0.9116 0.42937 0.0
H115 H 0.56247 0.96404 0.45536 0.0
H116 H 0.51628 0.03593 0.65437 0.0
H117 H 0.54402 0.062 0.71266 0.0
H118 H 0.62614 0.12785 0.6761 0.0
H119 H 0.59818 0.10141 0.6176 0.0
C120 C 0.27557 0.33947 0.76437 0.0
Eu121 Eu 0.30743 0.29544 0.76259 0.0
C122 C 0.25182 0.33718 0.78406 0.0
C123 C 0.22103 0.34915 0.76706 0.0
C124 C 0.19772 0.34538 0.78545 0.0
C125 C 0.20466 0.32906 0.82093 0.0
C126 C 0.23535 0.31667 0.83743 0.0
C127 C 0.25885 0.32107 0.81944 0.0
C128 C 0.27701 0.24609 0.71541 0.0
C129 C 0.28092 0.22808 0.82131 0.0
C130 C 0.38091 0.20468 0.79026 0.0
Eu131 Eu 0.34559 0.24866 0.78414 0.0
C132 C 0.41706 0.20474 0.79343 0.0
C133 C 0.44032 0.19322 0.82675 0.0
C134 C 0.47405 0.19155 0.82999 0.0
C135 C 0.4851 0.20103 0.7998 0.0
C136 C 0.46214 0.21351 0.76676 0.0
C137 C 0.42849 0.21539 0.7636 0.0
C138 C 0.37651 0.29922 0.83037 0.0
C139 C 0.36994 0.31563 0.72309 0.0
O140 O 0.30856 0.33967 0.78522 0.0
O141 O 0.26308 0.31967 0.73759 0.0
O142 O 0.28269 0.27782 0.70504 0.0
O143 O 0.28868 0.24177 0.75 0.0
O144 O 0.28049 0.26003 0.80649 0.0
O145 O 0.30368 0.21623 0.81336 0.0
O146 O 0.35962 0.21514 0.75872 0.0
O147 O 0.37874 0.21514 0.81821 0.0
O148 O 0.37118 0.26782 0.84136 0.0
O149 O 0.36458 0.30234 0.79585 0.0
O150 O 0.37317 0.28479 0.74067 0.0
O151 O 0.34518 0.32637 0.72872 0.0
H152 H 0.21512 0.36156 0.73972 0.0
H153 H 0.17482 0.35601 0.77218 0.0
H154 H 0.2415 0.30373 0.86446 0.0
H155 H 0.28258 0.31177 0.8334 0.0
H156 H 0.43219 0.18495 0.85021 0.0
H157 H 0.49117 0.18215 0.85592 0.0
H158 H 0.46945 0.22046 0.74271 0.0
H159 H 0.41123 0.22447 0.73756 0.0
C160 C 0.17251 0.03187 0.5336 0.0
Eu161 Eu 0.1058 1.02489 0.52051 0.0
C162 C 0.19601 0.05828 0.51846 0.0
C163 C 0.21234 0.04921 0.49811 0.0
C164 C 0.22526 0.0729 0.47417 0.0
C165 C 0.22224 0.10617 0.47037 0.0
C166 C 0.209 0.11585 0.49344 0.0
C167 C 0.19588 0.0921 0.51719 0.0
C168 C 1.0517 0.97214 0.48942 0.0
C169 C 0.0749 0.07 0.44563 0.0
C170 C 0.96373 0.02994 0.47601 0.0
Eu171 Eu 1.03127 0.03453 0.49855 0.0
C172 C 0.94122 1.01876 0.49843 0.0
C173 C 0.95266 0.03164 0.53285 0.0
C174 C 0.93881 1.01415 0.5593 0.0
C175 C 0.91349 0.98333 0.55197 0.0
C176 C 0.89986 0.97192 0.51654 0.0
C177 C 0.91351 0.98961 0.48991 0.0
C178 C 0.08381 0.07777 0.54706 0.0
C179 C 1.06496 0.99664 0.57526 0.0
O180 O 0.16137 0.04101 0.5562 0.0
O181 O 0.147 1.01234 0.50907 0.0
O182 O 0.08047 0.96864 0.51679 0.0
O183 O 1.05345 1.00264 0.47963 0.0
O184 O 0.10321 0.06142 0.47095 0.0
O185 O 1.04336 0.06098 0.44884 0.0
O186 O 0.97686 1.00631 0.47267 0.0
O187 O 0.98743 0.05874 0.48291 0.0
O188 O 1.05264 0.0647 0.54913 0.0
O189 O 0.08525 0.06814 0.51957 0.0
O190 O 1.03553 0.99532 0.54607 0.0
O191 O 0.09641 1.01238 0.57366 0.0
H192 H 0.21245 1.02324 0.49844 0.0
H193 H 0.23506 0.06444 0.45668 0.0
H194 H 0.20703 0.14142 0.49178 0.0
H195 H 0.18348 0.09985 0.53261 0.0
H196 H 0.97431 0.0538 0.5405 0.0
H197 H 0.94997 1.02351 0.5864 0.0
H198 H 0.87993 0.94848 0.51 0.0
H199 H 0.90449 0.97904 0.46369 0.0
C200 C 0.37463 0.72856 0.86339 0.0
Eu201 Eu 0.33186 0.75373 0.80566 0.0
C202 C 0.40452 0.71696 0.86317 0.0
C203 C 0.40161 0.68257 0.86394 0.0
C204 C 0.42524 0.67152 0.85471 0.0
C205 C 0.45225 0.69465 0.84448 0.0
C206 C 0.45625 0.729 0.84547 0.0
C207 C 0.43276 0.74005 0.85483 0.0
C208 C 0.27227 0.72214 0.75357 0.0
C209 C 0.36551 0.74807 0.74123 0.0
C210 C 0.27372 0.82222 0.6802 0.0
Eu211 Eu 0.31407 0.79507 0.73887 0.0
C212 C 0.24939 0.84215 0.67803 0.0
C213 C 0.25863 0.86337 0.70596 0.0
C214 C 0.23279 0.87549 0.70982 0.0
C215 C 0.19716 0.86668 0.68585 0.0
C216 C 0.18846 0.84693 0.65659 0.0
C217 C 0.21434 0.83463 0.65288 0.0
C218 C 0.37297 0.82705 0.79182 0.0
C219 C 0.28011 0.80003 0.80352 0.0
O220 O 0.37751 0.76086 0.85681 0.0
O221 O 0.3427 0.71105 0.84517 0.0
O222 O 0.2761 0.72026 0.78805 0.0
O223 O 0.30024 0.74001 0.74866 0.0
O224 O 0.36511 0.74023 0.7754 0.0
O225 O 0.34631 0.76944 0.72 0.0
O226 O 0.26444 0.79101 0.69202 0.0
O227 O 0.30787 0.83558 0.69566 0.0
O228 O 0.36982 0.82899 0.7576 0.0
O229 O 0.34484 0.80877 0.79586 0.0
O230 O 0.28248 0.80968 0.77025 0.0
O231 O 0.29742 0.77702 0.82396 0.0
H232 H 0.38012 0.66424 0.87011 0.0
H233 H 0.42221 0.64479 0.85542 0.0
H234 H 0.4769 0.74739 0.83798 0.0
H235 H 0.43579 0.76683 0.85368 0.0
H236 H 0.28544 0.86917 0.72612 0.0
H237 H 0.24065 0.89084 0.7324 0.0
H238 H 0.1616 0.84065 0.63669 0.0
H239 H 0.20663 0.81797 0.6314 0.0
C240 C 0.5703 0.12867 0.98517 0.0
Eu241 Eu 0.56393 0.06503 1.00438 0.0
C242 C 0.56533 0.15473 1.0018 0.0
C243 C 0.5555 0.18327 0.98064 0.0
C244 C 0.54607 0.20565 0.99539 0.0
C245 C 0.5459 0.19952 0.0314 0.0
C246 C 0.55708 0.17139 0.05281 0.0
C247 C 0.56684 0.14937 0.03822 0.0
C248 C 0.52401 1.01391 0.95968 0.0
C249 C 0.50804 0.04152 0.04641 0.0
C250 C 0.5493 0.93338 0.06226 0.0
Eu251 Eu 0.55516 0.99696 0.04427 0.0
C252 C 0.5566 0.90891 0.04533 0.0
C253 C 0.58299 0.89178 0.06649 0.0
C254 C 0.5967 0.87545 0.04938 0.0
C255 C 0.58418 0.87609 1.01084 0.0
C256 C 0.55577 0.89089 0.98995 0.0
C257 C 0.5422 0.90722 1.007 0.0
C258 C 0.59605 0.04774 0.0891 0.0
C259 C 0.61329 1.02159 1.00505 0.0
O260 O 0.59736 0.1158 1.00519 0.0
O261 O 0.54132 0.10577 0.97028 0.0
O262 O 0.54577 0.03999 0.95109 0.0
O263 O 0.52289 1.01687 0.99027 0.0
O264 O 0.53172 0.06661 0.03811 0.0
O265 O 0.50768 1.01013 0.04509 0.0
O266 O 0.522 0.94592 0.04208 0.0
O267 O 0.57737 0.95633 0.0791 0.0
O268 O 0.57457 1.02158 0.09804 0.0
O269 O 0.59647 0.04486 0.05818 0.0
O270 O 0.58924 0.99599 1.01208 0.0
O271 O 0.61262 0.05273 1.00593 0.0
H272 H 0.55409 0.18771 0.95242 0.0
H273 H 0.53814 0.22729 0.97829 0.0
H274 H 0.5567 0.16533 0.08033 0.0
H275 H 0.57427 0.1274 0.05504 0.0
H276 H 0.59467 0.89296 0.09606 0.0
H277 H 0.6187 0.86435 0.0662 0.0
H278 H 0.5451 0.89122 0.96024 0.0
H279 H 0.52192 0.92018 0.98987 0.0
C280 C 0.29269 0.29576 0.3546 0.0
Eu281 Eu 0.30267 0.29863 0.29329 0.0
C282 C 0.26268 0.29225 0.36597 0.0
C283 C 0.26826 0.28941 0.40337 0.0
C284 C 0.23981 0.28541 0.41471 0.0
C285 C 0.20512 0.28378 0.38875 0.0
C286 C 0.19967 0.28604 0.35114 0.0
C287 C 0.22829 0.29053 0.33986 0.0
C288 C 0.35499 0.33995 0.2717 0.0
C289 C 0.25584 0.33212 0.21611 0.0
C290 C 0.31688 0.28276 0.16276 0.0
Eu291 Eu 0.30683 0.28036 0.22397 0.0
C292 C 0.34512 0.2814 0.1507 0.0
C293 C 0.33752 0.27983 0.11333 0.0
C294 C 0.36399 0.27822 0.10129 0.0
C295 C 0.39875 0.27857 0.12646 0.0
C296 C 0.40628 0.28073 0.16398 0.0
C297 C 0.37957 0.28175 0.17601 0.0
C298 C 0.25607 0.23764 0.24681 0.0
C299 C 0.3527 0.24589 0.30137 0.0
O300 O 0.29216 0.26956 0.34039 0.0
O301 O 0.30207 0.32397 0.33662 0.0
O302 O 0.33805 0.35022 0.28716 0.0
O303 O 0.3453 0.30862 0.27121 0.0
O304 O 0.25912 0.32322 0.251 0.0
O305 O 0.27345 0.32046 0.20132 0.0
O306 O 0.32263 0.30933 0.17958 0.0
O307 O 0.3029 0.25505 0.17834 0.0
O308 O 0.27242 0.22862 0.22969 0.0
O309 O 0.26455 0.2691 0.24693 0.0
O310 O 0.34957 0.25452 0.26641 0.0
O311 O 0.33539 0.25815 0.31598 0.0
H312 H 0.29471 0.29061 0.42384 0.0
H313 H 0.24528 0.28454 0.44384 0.0
H314 H 0.17335 0.28452 0.33037 0.0
H315 H 0.22363 0.29274 0.31081 0.0
H316 H 0.31095 0.27941 0.09347 0.0
H317 H 0.35685 0.27582 0.07234 0.0
H318 H 0.43275 0.28153 0.18414 0.0
H319 H 0.38574 0.28263 0.20504 0.0
C320 C 0.6847 0.54417 0.04846 0.0
Eu321 Eu 0.61572 0.52938 0.02497 0.0
C322 C 0.70861 0.5692 0.03228 0.0
C323 C 0.72201 0.55886 1.00981 0.0
C324 C 0.73622 0.58221 0.98654 0.0
C325 C 0.7376 0.61641 0.98554 0.0
C326 C 0.72771 0.62709 1.01085 0.0
C327 C 0.71344 0.60372 0.03409 0.0
C328 C 0.56954 0.47399 0.99065 0.0
C329 C 0.57465 0.55714 0.94558 0.0
C330 C 0.46982 0.511 0.98499 0.0
Eu331 Eu 0.53858 0.52553 1.00664 0.0
C332 C 0.4482 0.48724 1.00427 0.0
C333 C 0.41978 0.49537 1.00803 0.0
C334 C 0.40487 0.47678 0.03348 0.0
C335 C 0.41849 0.45003 0.05575 0.0
C336 C 0.44552 0.44083 0.05015 0.0
C337 C 0.46015 0.4592 0.02471 0.0
C338 C 0.5849 0.58064 0.04149 0.0
C339 C 0.57933 0.49719 0.08593 0.0
O340 O 0.66695 0.55607 0.06196 0.0
O341 O 0.66472 0.51848 0.02897 0.0
O342 O 0.59778 0.49026 0.98366 0.0
O343 O 0.56772 0.48679 1.01609 0.0
O344 O 0.60597 0.5619 0.97245 0.0
O345 O 0.54526 0.54059 0.95161 0.0
O346 O 0.48674 0.49784 0.97163 0.0
O347 O 0.4901 0.53767 1.00255 0.0
O348 O 0.55661 0.56423 0.04828 0.0
O349 O 0.58667 0.56816 1.0158 0.0
O350 O 0.54809 0.49325 0.05907 0.0
O351 O 0.6089 0.51325 0.08 0.0
H352 H 0.71918 0.53248 1.00826 0.0
H353 H 0.74364 0.57303 0.96749 0.0
H354 H 0.72944 0.65337 1.01152 0.0
H355 H 0.70432 0.61266 0.05187 0.0
H356 H 0.41042 0.51711 0.99278 0.0
H357 H 0.38366 0.48417 0.0367 0.0
H358 H 0.45713 0.4208 0.06707 0.0
H359 H 0.48243 0.4527 0.02282 0.0
C360 C 0.88833 0.24386 0.36857 0.0
Eu361 Eu 0.83806 0.25722 0.309 0.0
C362 C 0.92057 0.23451 0.37168 0.0
C363 C 0.91777 0.2069 0.3541 0.0
C364 C 0.9474 0.20265 0.34952 0.0
C365 C 0.98045 0.22608 0.36199 0.0
C366 C 0.98356 0.25298 0.38088 0.0
C367 C 0.95391 0.25711 0.38577 0.0
C368 C 0.77896 0.21908 0.2626 0.0
C369 C 0.86645 0.24842 0.2411 0.0
C370 C 0.76097 0.30802 0.17698 0.0
Eu371 Eu 0.8099 0.29151 0.23575 0.0
C372 C 0.7319 0.32193 0.17557 0.0
C373 C 0.73832 0.3561 0.18001 0.0
C374 C 0.71415 0.36785 0.18747 0.0
C375 C 0.68302 0.34573 0.19071 0.0
C376 C 0.67554 0.31192 0.18413 0.0
C377 C 0.69966 0.30017 0.17645 0.0
C378 C 0.86838 0.33002 0.28287 0.0
C379 C 0.781 0.29969 0.30354 0.0
O380 O 0.88732 0.2743 0.35408 0.0
O381 O 0.85759 0.22215 0.35543 0.0
O382 O 0.78527 0.21814 0.29771 0.0
O383 O 0.80473 0.23844 0.2549 0.0
O384 O 0.86901 0.24314 0.27647 0.0
O385 O 0.84425 0.26693 0.21857 0.0
O386 O 0.75929 0.27714 0.19119 0.0
O387 O 0.79338 0.32724 0.18907 0.0
O388 O 0.86261 0.33106 0.24793 0.0
O389 O 0.84246 0.31024 0.28983 0.0
O390 O 0.77791 0.30451 0.26798 0.0
O391 O 0.80387 0.28186 0.32615 0.0
H392 H 0.89243 0.18921 0.34258 0.0
H393 H 0.94429 0.18086 0.33613 0.0
H394 H 1.00864 0.27125 0.39112 0.0
H395 H 0.95663 0.27891 0.39896 0.0
H396 H 0.76269 0.37361 0.17923 0.0
H397 H 0.72002 0.39435 0.1909 0.0
H398 H 0.65158 0.29436 0.18594 0.0
H399 H 0.69383 0.27366 0.17301 0.0
C400 C 0.08055 0.6248 0.48226 0.0
Eu401 Eu 0.07518 0.56107 0.49787 0.0
C402 C 0.0708 0.64742 0.49915 0.0
C403 C 1.04809 0.66783 0.47689 0.0
C404 C 1.03208 0.68334 0.49225 0.0
C405 C 1.03851 0.67857 0.53014 0.0
C406 C 1.06305 0.65986 0.55262 0.0
C407 C 0.07887 0.64431 0.53729 0.0
C408 C 1.03511 0.51109 0.45196 0.0
C409 C 1.01611 0.53465 0.53569 0.0
C410 C 1.05827 0.42767 0.5535 0.0
Eu411 Eu 0.06622 0.49179 0.53646 0.0
C412 C 1.05903 0.40133 0.53392 0.0
C413 C 1.06368 0.37008 0.55179 0.0
C414 C 0.06785 0.34645 0.53375 0.0
C415 C 0.06773 0.35393 0.49766 0.0
C416 C 1.06181 0.385 0.47962 0.0
C417 C 1.05741 0.40834 0.49752 0.0
C418 C 0.10659 0.54242 0.58187 0.0
C419 C 0.12261 0.51709 0.49501 0.0
O420 O 0.1077 0.61241 0.50342 0.0
O421 O 1.05361 0.60212 0.46323 0.0
O422 O 1.05627 0.53782 0.4434 0.0
O423 O 1.03442 0.51304 0.48303 0.0
O424 O 1.04025 0.56063 0.52956 0.0
O425 O 1.01719 0.50374 0.53444 0.0
O426 O 1.03159 0.44176 0.53679 0.0
O427 O 0.08862 0.44962 0.56655 0.0
O428 O 0.08532 0.51598 0.59069 0.0
O429 O 0.10711 0.5397 0.55101 0.0
O430 O 0.09878 0.49156 0.50253 0.0
O431 O 0.12281 0.54836 0.49688 0.0
H432 H 1.04111 0.67016 0.44738 0.0
H433 H 1.0131 0.69739 0.47414 0.0
H434 H 0.06906 0.65618 0.58197 0.0
H435 H 0.09592 0.6284 0.55516 0.0
H436 H 1.06494 0.36428 0.57991 0.0
H437 H 0.07192 0.32265 0.54832 0.0
H438 H 1.06224 0.39212 0.45221 0.0
H439 H 1.05389 0.43238 0.48327 0.0
C440 C 0.77692 0.8444 0.26839 0.0
Eu441 Eu 0.80457 0.79883 0.26204 0.0
C442 C 0.74519 0.84223 0.27667 0.0
C443 C 0.71099 0.82575 0.25403 0.0
C444 C 0.6816 0.8219 0.26383 0.0
C445 C 0.68603 0.83401 0.29662 0.0
C446 C 0.72018 0.85054 0.31911 0.0
C447 C 0.74945 0.85474 0.30913 0.0
C448 C 0.76958 0.75336 0.20996 0.0
C449 C 0.77673 0.7298 0.3185 0.0
C450 C 0.85529 0.69638 0.26356 0.0
Eu451 Eu 0.83754 0.74672 0.27591 0.0
C452 C 0.83824 0.67738 0.23066 0.0
C453 C 0.84241 0.64516 0.23184 0.0
C454 C 0.82666 0.62773 0.19998 0.0
C455 C 0.8064 0.6423 0.16653 0.0
C456 C 0.80092 0.674 0.16601 0.0
C457 C 0.8168 0.6914 0.19781 0.0
C458 C 0.87394 0.79098 0.32853 0.0
C459 C 0.86501 0.8167 0.21993 0.0
O460 O 0.80278 0.83406 0.29535 0.0
O461 O 0.77147 0.83439 0.2367 0.0
O462 O 0.77542 0.78547 0.20225 0.0
O463 O 0.78185 0.74717 0.24409 0.0
O464 O 0.77575 0.76167 0.30349 0.0
O465 O 0.79929 0.71769 0.31043 0.0
O466 O 0.83566 0.69323 0.2829 0.0
O467 O 0.87135 0.72753 0.25865 0.0
O468 O 0.87085 0.75893 0.33506 0.0
O469 O 0.86041 0.79816 0.29459 0.0
O470 O 0.86233 0.78335 0.23074 0.0
O471 O 0.84591 0.82986 0.23205 0.0
H472 H 0.7069 0.81551 0.22897 0.0
H473 H 0.6555 0.8092 0.24601 0.0
H474 H 0.72418 0.86077 0.34416 0.0
H475 H 0.77553 0.86746 0.32702 0.0
H476 H 0.85853 0.63386 0.2571 0.0
H477 H 0.83194 0.60359 0.20117 0.0
H478 H 0.78534 0.68578 0.14078 0.0
H479 H 0.81307 0.71623 0.19657 0.0
C480 C 0.90068 0.34124 0.74763 0.0
Eu481 Eu 0.84971 0.29275 0.75798 0.0
C482 C 0.9024 0.37479 0.72883 0.0
C483 C 0.8712 0.38404 0.70493 0.0
C484 C 0.8728 0.41583 0.68669 0.0
C485 C 0.90586 0.43866 0.69105 0.0
C486 C 0.93706 0.42948 0.71604 0.0
C487 C 0.93526 0.3979 0.73495 0.0
C488 C 0.80119 0.24698 0.71098 0.0
C489 C 0.77685 0.32412 0.73283 0.0
C490 C 0.73739 0.20654 0.78911 0.0
Eu491 Eu 0.7901 0.25427 0.78117 0.0
C492 C 0.73191 0.17225 0.80582 0.0
C493 C 0.76063 0.15739 0.82446 0.0
C494 C 0.7554 0.12558 0.84251 0.0
C495 C 0.72132 0.10825 0.84229 0.0
C496 C 0.69236 0.12268 0.82193 0.0
C497 C 0.69763 0.15441 0.80381 0.0
C498 C 0.83708 0.30186 0.82655 0.0
C499 C 0.86344 0.22331 0.80734 0.0
O500 O 0.89236 0.3372 0.77681 0.0
O501 O 0.88387 0.31606 0.72661 0.0
O502 O 0.83528 0.25221 0.71925 0.0
O503 O 0.79462 0.26647 0.72689 0.0
O504 O 0.81064 0.32886 0.73567 0.0
O505 O 0.76155 0.29539 0.74688 0.0
O506 O 0.74673 0.21084 0.76055 0.0
O507 O 0.75533 0.2304 0.81176 0.0
O508 O 0.80287 0.29555 0.81823 0.0
O509 O 0.8447 0.28193 0.81208 0.0
O510 O 0.82968 0.21854 0.80472 0.0
O511 O 0.87844 0.25181 0.79263 0.0
H512 H 0.84567 0.36635 0.69958 0.0
H513 H 0.84816 0.42201 0.66821 0.0
H514 H 0.96312 0.44591 0.71972 0.0
H515 H 0.95962 0.39117 0.7535 0.0
H516 H 0.7872 0.17073 0.82599 0.0
H517 H 0.77819 0.1151 0.85773 0.0
H518 H 0.66591 0.1104 0.82182 0.0
H519 H 0.67514 0.16549 0.78933 0.0
C520 C 0.80961 0.80884 0.85627 0.0
Eu521 Eu 0.8111 0.80426 0.79234 0.0
C522 C 0.78342 0.81222 0.87013 0.0
C523 C 0.79092 0.80896 0.90799 0.0
C524 C 0.76641 0.81285 0.92157 0.0
C525 C 0.73409 0.82012 0.89737 0.0
C526 C 0.72644 0.8227 0.85931 0.0
C527 C 0.75093 0.81869 0.84578 0.0
C528 C 0.8581 0.84281 0.76219 0.0
C529 C 0.75915 0.83441 0.71558 0.0
C530 C 0.80774 0.77324 0.65875 0.0
Eu531 Eu 0.80548 0.77916 0.72197 0.0
C532 C 0.83331 0.76583 0.64658 0.0
C533 C 0.82827 0.76984 0.60921 0.0
C534 C 0.85238 0.76252 0.59734 0.0
C535 C 0.88181 0.75099 0.62274 0.0
C536 C 0.88691 0.74739 0.66029 0.0
C537 C 0.86288 0.75485 0.67212 0.0
C538 C 0.75972 0.74059 0.75405 0.0
C539 C 0.856 0.74782 0.79863 0.0
O540 O 0.80277 0.78035 0.84247 0.0
O541 O 0.82072 0.83463 0.83631 0.0
O542 O 0.84494 0.8542 0.78081 0.0
O543 O 0.84871 0.81121 0.76361 0.0
O544 O 0.76636 0.82879 0.75168 0.0
O545 O 0.77307 0.81967 0.69941 0.0
O546 O 0.81785 0.80187 0.67348 0.0
O547 O 0.79262 0.74865 0.67699 0.0
O548 O 0.77289 0.72898 0.73554 0.0
O549 O 0.76835 0.77214 0.75096 0.0
O550 O 0.84939 0.75379 0.76268 0.0
O551 O 0.84231 0.76285 0.81472 0.0
H552 H 0.81591 0.80379 0.92705 0.0
H553 H 0.77315 0.81104 0.95102 0.0
H554 H 0.70155 0.82784 0.84003 0.0
H555 H 0.74468 0.8209 0.81638 0.0
H556 H 0.80557 0.77841 0.58922 0.0
H557 H 0.84758 0.76522 0.56822 0.0
H558 H 0.90959 0.73898 0.68052 0.0
H559 H 0.86728 0.75194 0.70116 0.0
C560 C 0.55369 0.586 0.5815 0.0
Eu561 Eu 0.57746 0.55337 0.54599 0.0
C562 C 0.53715 0.60238 0.60195 0.0
C563 C 0.54933 0.63657 0.61073 0.0
C564 C 0.5317 0.65202 0.62599 0.0
C565 C 0.50094 0.63434 0.63454 0.0
C566 C 0.48926 0.59997 0.62633 0.0
C567 C 0.50628 0.58481 0.61019 0.0
C568 C 0.61748 0.58159 0.49393 0.0
C569 C 0.51917 0.55458 0.46065 0.0
C570 C 0.59074 0.46373 0.45913 0.0
Eu571 Eu 0.5669 0.49567 0.4952 0.0
C572 C 0.60839 0.44559 0.44158 0.0
C573 C 0.591 0.43129 0.40686 0.0
C574 C 0.60838 0.41583 0.39128 0.0
C575 C 0.64445 0.41303 0.40932 0.0
C576 C 0.66154 0.42721 0.44416 0.0
C577 C 0.64435 0.44294 0.45946 0.0
C578 C 0.52707 0.46681 0.54704 0.0
C579 C 0.62539 0.49513 0.58075 0.0
O580 O 0.53402 0.5628 0.55845 0.0
O581 O 0.58772 0.59089 0.58675 0.0
O582 O 0.61581 0.59592 0.52021 0.0
O583 O 0.5975 0.55148 0.49886 0.0
O584 O 0.53134 0.56359 0.49459 0.0
O585 O 0.53001 0.53013 0.45291 0.0
O586 O 0.61035 0.48257 0.48666 0.0
O587 O 0.5566 0.46212 0.4503 0.0
O588 O 0.52883 0.45278 0.52061 0.0
O589 O 0.54673 0.49722 0.54235 0.0
O590 O 0.61332 0.4861 0.54678 0.0
O591 O 0.61448 0.51948 0.58851 0.0
H592 H 0.57234 0.652 0.60489 0.0
H593 H 0.54268 0.67824 0.6314 0.0
H594 H 0.46595 0.58451 0.63155 0.0
H595 H 0.49487 0.55878 0.60399 0.0
H596 H 0.56362 0.43222 0.39123 0.0
H597 H 0.59293 0.40563 0.36477 0.0
H598 H 0.689 0.42679 0.45996 0.0
H599 H 0.65975 0.45323 0.48596 0.0
C600 C 0.09202 0.53294 0.93457 0.0
Eu601 Eu 0.06984 0.54399 0.98268 0.0
C602 C 0.09428 0.50094 0.9264 0.0
C603 C 0.12662 0.49769 0.92696 0.0
C604 C 0.13026 0.46648 0.9234 0.0
C605 C 0.1015 0.43814 0.91897 0.0
C606 C 0.06889 0.44143 0.91769 0.0
C607 C 0.06538 0.47257 0.92176 0.0
C608 C 0.10344 0.59226 0.03161 0.0
C609 C 0.09795 0.4933 0.056 0.0
C610 C 1.00959 0.53996 0.08057 0.0
Eu611 Eu 1.0391 0.53394 0.03649 0.0
C612 C 0.97429 0.54574 0.0726 0.0
C613 C 0.94291 0.52058 0.0586 0.0
C614 C 0.90961 0.52705 0.04912 0.0
C615 C 0.90703 0.5588 0.05321 0.0
C616 C 0.93838 0.58395 0.06697 0.0
C617 C 0.97164 0.57744 0.0767 0.0
C618 C 1.00751 0.48515 0.98832 0.0
C619 C 1.01078 0.5856 0.96227 0.0
O620 O 1.05991 0.53633 0.92633 0.0
O621 O 0.11372 0.54328 0.96683 0.0
O622 O 0.0962 0.59788 0.99653 0.0
O623 O 0.09346 0.56137 0.03959 0.0
O624 O 0.09035 0.49882 0.01992 0.0
O625 O 0.08478 0.50928 0.07146 0.0
O626 O 1.03218 0.56485 0.07083 0.0
O627 O 1.00992 0.51096 0.07275 0.0
O628 O 1.0155 0.47949 0.02339 0.0
O629 O 1.01577 0.51616 0.98005 0.0
O630 O 1.01025 0.57307 0.99534 0.0
O631 O 1.03168 0.57695 0.94974 0.0
H632 H 0.14924 0.51915 0.93088 0.0
H633 H 0.1555 0.46453 0.92376 0.0
H634 H 1.04641 0.41988 0.91416 0.0
H635 H 1.04024 0.47425 0.92189 0.0
H636 H 0.94396 0.4959 0.05481 0.0
H637 H 0.88588 0.50718 0.03878 0.0
H638 H 0.93727 0.60844 0.07134 0.0
H639 H 0.99534 0.59727 0.08737 0.0
H640 H 0.23879 0.24571 0.85727 0.0
H641 H 0.14429 0.05814 0.94283 0.0
H642 H 0.26223 0.15565 0.84673 0.0
H643 H 0.14828 0.15121 0.97757 0.0
H644 H 0.18046 0.09007 0.9053 0.0
H645 H 0.20318 0.21289 0.8946 0.0
C646 C 0.23705 0.21911 0.8621 0.0
C647 C 0.25605 0.20568 0.8465 0.0
C648 C 0.17368 0.1042 0.92081 0.0
C649 C 0.21045 0.16378 0.89306 0.0
C650 C 0.15197 0.08518 0.94317 0.0
C651 C 0.14079 0.10001 0.96585 0.0
C652 C 0.18599 0.14041 0.91827 0.0
C653 C 0.15435 0.13635 0.96218 0.0
C654 C 0.21575 0.19954 0.88443 0.0
C655 C 0.24987 0.1696 0.85644 0.0
N656 N 0.17458 0.15389 0.94008 0.0
N657 N 0.22871 0.15129 0.87751 0.0
H658 H 0.12622 0.95967 0.14896 0.0
H659 H 0.29251 0.87987 0.18058 0.0
H660 H 0.18213 0.9801 0.07434 0.0
H661 H 0.21704 0.83415 0.23353 0.0
H662 H 0.25711 0.9211 0.14759 0.0
H663 H 0.16299 0.91978 0.18578 0.0
C664 C 0.14681 0.95677 0.1407 0.0
C665 C 0.1511 0.97469 0.10836 0.0
C666 C 0.24812 0.90217 0.16644 0.0
C667 C 0.19385 0.92742 0.15099 0.0
C668 C 0.26859 0.87829 0.18559 0.0
C669 C 0.25837 0.85256 0.21041 0.0
C670 C 0.21676 0.90167 0.17198 0.0
C671 C 0.22656 0.85288 0.2149 0.0
C672 C 0.16767 0.93334 0.16166 0.0
C673 C 0.17777 0.96793 0.0991 0.0
N674 N 0.20742 0.87672 0.19638 0.0
N675 N 0.19777 0.94555 0.11998 0.0
H676 H 0.48008 0.92269 0.51648 0.0
H677 H 0.37352 0.86775 0.3098 0.0
H678 H 0.48335 0.98971 0.42146 0.0
H679 H 0.37636 0.79994 0.40566 0.0
H680 H 0.41435 0.91252 0.34978 0.0
H681 H 0.44277 0.87737 0.47614 0.0
C682 C 0.47292 0.92786 0.48707 0.0
C683 C 0.48457 0.96008 0.47228 0.0
C684 C 0.40614 0.88785 0.3621 0.0
C685 C 0.44179 0.9082 0.42576 0.0
C686 C 0.38284 0.86225 0.33928 0.0
C687 C 0.37149 0.83006 0.35446 0.0
C688 C 0.41803 0.8813 0.40045 0.0
C689 C 0.38436 0.8244 0.39281 0.0
C690 C 0.45164 0.90194 0.46402 0.0
C691 C 0.47473 0.96528 0.43398 0.0
N692 N 0.40679 0.84976 0.41445 0.0
N693 N 0.4538 0.93966 0.41203 0.0
H694 H 0.53322 0.23956 0.76889 0.0
H695 H 0.59349 0.07809 0.77074 0.0
H696 H 0.51291 0.14697 0.83358 0.0
H697 H 0.6024 0.16557 0.69595 0.0
H698 H 0.58636 0.11145 0.81092 0.0
H699 H 0.57862 0.22106 0.75881 0.0
C700 C 0.53873 0.21562 0.78153 0.0
C701 C 0.51838 0.19434 0.80112 0.0
C702 C 0.59087 0.1236 0.78622 0.0
C703 C 0.57036 0.1731 0.78983 0.0
C704 C 0.595 0.10455 0.7633 0.0
C705 C 0.59712 0.11874 0.72928 0.0
C706 C 0.58832 0.15684 0.77463 0.0
C707 C 0.60012 0.15337 0.72158 0.0
C708 C 0.56483 0.20518 0.77598 0.0
C709 C 0.52755 0.16412 0.81793 0.0
N710 N 0.59455 0.17103 0.74353 0.0
N711 N 0.5523 0.15409 0.81122 0.0
H712 H 0.10144 1.0139 0.64546 0.0
H713 H 0.12626 0.83529 0.67132 0.0
H714 H 1.02846 0.93182 0.58096 0.0
H715 H 0.20466 0.92645 0.71179 0.0
H716 H 0.07944 0.86214 0.66447 0.0
H717 H 0.12289 0.97394 0.69635 0.0
C718 C 0.08888 0.98741 0.64268 0.0
C719 C 1.06446 0.97579 0.60876 0.0
C720 C 0.10702 0.87576 0.67601 0.0
C721 C 0.09017 0.93029 0.6655 0.0
C722 C 0.13378 0.86072 0.67929 0.0
C723 C 0.16946 0.87922 0.69021 0.0
C724 C 0.1161 0.90948 0.68364 0.0
C725 C 0.17764 0.91127 0.70234 0.0
C726 C 0.10116 0.96457 0.67164 0.0
C727 C 1.04826 0.94151 0.60654 0.0
N728 N 0.15111 0.92559 0.69796 0.0
N729 N 1.06247 0.91966 0.63414 0.0
H730 H 0.42877 0.87755 0.78378 0.0
H731 H 0.47061 0.96141 0.96913 0.0
H732 H 0.3749 0.83491 0.85976 0.0
H733 H 0.52909 1.00103 0.89689 0.0
H734 H 0.43605 0.91448 0.92995 0.0
H735 H 0.46685 0.92212 0.82531 0.0
C736 C 0.42517 0.87739 0.80928 0.0
C737 C 0.39852 0.85249 0.81814 0.0
C738 C 0.45644 0.93337 0.92262 0.0
C739 C 0.44184 0.9037 0.86591 0.0
C740 C 0.47617 0.96024 0.945 0.0
C741 C 0.50275 0.98524 0.93624 0.0
C742 C 0.46314 0.9315 0.89104 0.0
C743 C 0.50879 0.98241 0.90461 0.0
C744 C 0.44683 0.9029 0.83305 0.0
C745 C 0.39509 0.85364 0.8517 0.0
N746 N 0.48914 0.95613 0.88317 0.0
N747 N 0.41625 0.87881 0.87418 0.0
H748 H 0.56772 0.21723 0.10224 0.0
H749 H 0.40883 0.30322 0.06132 0.0
H750 H 0.49013 0.22915 0.99341 0.0
H751 H 0.4518 0.24522 0.16243 0.0
H752 H 0.44973 0.29079 0.03835 0.0
H753 H 0.53652 0.24283 0.12661 0.0
C754 C 0.54435 0.22542 0.08337 0.0
C755 C 0.53121 0.22032 0.04571 0.0
C756 C 0.45033 0.28119 0.06571 0.0
C757 C 0.49606 0.2504 0.07348 0.0
C758 C 0.42685 0.28801 0.0788 0.0
C759 C 0.4263 0.27482 0.11374 0.0
C760 C 0.47388 0.26154 0.0879 0.0
C761 C 0.45124 0.25621 0.13549 0.0
C762 C 0.52672 0.24016 0.09734 0.0
C763 C 0.50145 0.23257 0.02255 0.0
N764 N 0.47388 0.25 0.12214 0.0
N765 N 0.48471 0.24679 0.03686 0.0
H766 H 0.18409 0.15112 0.42661 0.0
H767 H 0.27994 0.18271 0.28224 0.0
H768 H 0.27481 0.11333 0.44321 0.0
H769 H 0.21173 0.24377 0.27899 0.0
H770 H 0.2725 0.15247 0.33792 0.0
H771 H 0.19043 0.18317 0.37104 0.0
C772 C 0.20571 0.14994 0.41899 0.0
C773 C 0.22883 0.12922 0.43958 0.0
C774 C 0.25898 0.17237 0.32503 0.0
C775 C 0.23539 0.16501 0.37534 0.0
C776 C 0.26283 0.18934 0.29297 0.0
C777 C 0.24657 0.21588 0.27636 0.0
C778 C 0.23836 0.18173 0.34035 0.0
C779 C 0.22493 0.22362 0.29146 0.0
C780 C 0.20904 0.16801 0.38702 0.0
C781 C 0.25595 0.12838 0.42789 0.0
N782 N 0.22148 0.20665 0.32283 0.0
N783 N 0.25827 0.14576 0.39639 0.0
H784 H 0.89757 0.19272 0.26973 0.0
H785 H 0.99109 0.20169 0.12071 0.0
H786 H 0.88446 0.2649 0.17692 0.0
H787 H 0.96568 0.11026 0.18417 0.0
H788 H 0.95994 0.22791 0.14554 0.0
H789 H 0.9287 0.16626 0.24497 0.0
C790 C 0.90127 0.20351 0.2443 0.0
C791 C 0.88755 0.2319 0.22614 0.0
C792 C 0.96109 0.20211 0.15429 0.0
C793 C 0.92511 0.2006 0.19659 0.0
C794 C 0.97937 0.18679 0.13999 0.0
C795 C 0.98192 0.15285 0.14952 0.0
C796 C 0.9451 0.1844 0.17985 0.0
C797 C 0.96501 0.13608 0.17496 0.0
C798 C 0.91921 0.18794 0.22983 0.0
C799 C 0.89388 0.24341 0.19273 0.0
N800 N 0.94819 0.15175 0.18903 0.0
N801 N 0.91197 0.2283 0.1797 0.0
H802 H 0.19265 0.54579 0.50919 0.0
H803 H 0.15758 0.56816 0.3161 0.0
H804 H 0.10254 0.47639 0.44007 0.0
H805 H 0.26672 0.57838 0.39005 0.0
H806 H 0.13896 0.52373 0.35765 0.0
H807 H 0.22414 0.54871 0.46822 0.0
C808 C 0.18004 0.53035 0.48593 0.0
C809 C 0.14498 0.51132 0.47743 0.0
C810 C 0.16717 0.53472 0.36419 0.0
C811 C 0.17997 0.51542 0.42978 0.0
C812 C 0.17789 0.56019 0.34031 0.0
C813 C 0.21362 0.57824 0.35058 0.0
C814 C 0.19223 0.52819 0.3988 0.0
C815 C 0.23863 0.56629 0.3821 0.0
C816 C 0.19801 0.5318 0.46262 0.0
C817 C 0.1296 0.49159 0.44718 0.0
N818 N 0.22735 0.54291 0.40597 0.0
N819 N 0.14674 0.49509 0.42353 0.0
H820 H 0.62465 0.98169 0.63194 0.0
H821 H 0.73609 0.84929 0.64008 0.0
H822 H 0.62873 0.95193 0.53541 0.0
H823 H 0.72612 0.87342 0.73611 0.0
H824 H 0.69812 0.88688 0.60216 0.0
H825 H 0.66194 0.94347 0.67004 0.0
C826 C 0.63325 0.9672 0.6185 0.0
C827 C 0.62297 0.97056 0.57982 0.0
C828 C 0.70408 0.88404 0.63149 0.0
C829 C 0.6668 0.92584 0.62441 0.0
C830 C 0.72598 0.86234 0.65346 0.0
C831 C 0.73482 0.85754 0.69195 0.0
C832 C 0.6904 0.90185 0.64752 0.0
C833 C 0.72039 0.87579 0.70684 0.0
C834 C 0.65476 0.94517 0.64055 0.0
C835 C 0.63554 0.95062 0.56481 0.0
N836 N 0.69926 0.89687 0.68487 0.0
N837 N 0.65654 0.92948 0.58687 0.0
H838 H 0.51963 0.4251 1.01062 0.0
H839 H 0.40979 0.36116 0.80875 0.0
H840 H 0.55408 0.4635 0.91935 0.0
H841 H 0.40357 0.29837 0.90556 0.0
H842 H 0.45643 0.40381 0.84807 0.0
H843 H 0.47097 0.38292 0.97181 0.0
C844 C 0.5168 0.4247 0.98236 0.0
C845 C 0.54078 0.44778 0.96809 0.0
C846 C 0.44479 0.38074 0.86071 0.0
C847 C 0.48526 0.39996 0.92357 0.0
C848 C 0.41804 0.35647 0.8383 0.0
C849 C 0.4029 0.32611 0.85394 0.0
C850 C 0.45613 0.37493 0.8991 0.0
C851 C 0.41467 0.32137 0.89241 0.0
C852 C 0.48921 0.40057 0.96033 0.0
C853 C 0.53628 0.446 0.93146 0.0
N854 N 0.44051 0.34556 0.9137 0.0
N855 N 0.50893 0.42269 0.91039 0.0
H856 H 0.9194 0.78107 0.39946 0.0
H857 H 0.99568 0.9782 0.4264 0.0
H858 H 0.88381 0.85864 0.31767 0.0
H859 H 1.04368 0.90392 0.50402 0.0
H860 H 0.95068 0.93366 0.38952 0.0
H861 H 0.96146 0.82451 0.44111 0.0
C862 C 0.92032 0.80721 0.39037 0.0
C863 C 0.89827 0.81632 0.355 0.0
C864 C 0.97092 0.92694 0.41465 0.0
C865 C 0.94606 0.86599 0.40237 0.0
C866 C 0.99659 0.95242 0.43584 0.0
C867 C 1.02351 0.94475 0.4683 0.0
C868 C 0.97204 0.89334 0.42583 0.0
C869 C 1.02342 0.91088 0.47907 0.0
C870 C 0.94434 0.83196 0.41409 0.0
C871 C 0.90046 0.8505 0.34461 0.0
N872 N 0.99813 0.88636 0.4578 0.0
N873 N 0.92391 0.87401 0.36811 0.0
H874 H 0.46437 0.60741 0.68427 0.0
H875 H 0.38671 0.76775 0.67956 0.0
H876 H 0.49111 0.7009 0.62448 0.0
H877 H 0.39364 0.68992 0.76676 0.0
H878 H 0.41888 0.74194 0.65556 0.0
H879 H 0.43408 0.63384 0.70997 0.0
C880 C 0.464 0.63343 0.67603 0.0
C881 C 0.48134 0.65115 0.65137 0.0
C882 C 0.41353 0.73028 0.67998 0.0
C883 C 0.44444 0.68274 0.68161 0.0
C884 C 0.39478 0.74524 0.69401 0.0
C885 C 0.3867 0.73186 0.72606 0.0
C886 C 0.42448 0.70041 0.69693 0.0
C887 C 0.39874 0.70212 0.74238 0.0
C888 C 0.44643 0.6488 0.69118 0.0
C889 C 0.47903 0.68533 0.64316 0.0
N890 N 0.4162 0.68773 0.72777 0.0
N891 N 0.46113 0.69936 0.65755 0.0
H892 H 0.59997 0.97845 0.9541 0.0
H893 H 0.76529 0.09701 0.91292 0.0
H894 H 0.68288 0.05336 0.02264 0.0
H895 H 0.66621 0.05144 0.83021 0.0
H896 H 0.74809 0.05818 0.95955 0.0
H897 H 0.63658 0.98343 0.91724 0.0
C898 C 0.62647 0.99492 0.96222 0.0
C899 C 0.63835 1.01617 0.9907 0.0
C900 C 0.73059 0.05597 0.93103 0.0
C901 C 0.67995 1.02186 0.9492 0.0
C902 C 0.74048 0.07805 0.90425 0.0
C903 C 0.71654 0.07828 0.86772 0.0
C904 C 0.69643 0.03438 0.92126 0.0
C905 C 0.68484 0.05293 0.85832 0.0
C906 C 0.64724 0.99782 0.94117 0.0
C907 C 0.67269 0.0371 1.0003 0.0
N908 N 0.6752 0.03254 0.88511 0.0
N909 N 0.69212 0.03982 0.97921 0.0
H910 H 0.13247 0.45694 0.03476 0.0
H911 H 0.21682 0.36451 0.23594 0.0
H912 H 0.11701 0.47348 0.13078 0.0
H913 H 0.23935 0.35424 0.14201 0.0
H914 H 0.17924 0.40268 0.19793 0.0
H915 H 0.16978 0.41848 0.07264 0.0
C916 C 0.13674 0.45261 0.06375 0.0
C917 C 0.12107 0.46903 0.07909 0.0
C918 C 0.19231 0.3921 0.18549 0.0
C919 C 0.1646 0.424 0.12351 0.0
C920 C 0.21395 0.37005 0.20735 0.0
C921 C 0.23177 0.35553 0.19269 0.0
C922 C 0.1878 0.40016 0.14806 0.0
C923 C 0.22648 0.36437 0.15508 0.0
C924 C 0.15828 0.43045 0.08555 0.0
C925 C 0.12816 0.46181 0.1172 0.0
N926 N 0.20526 0.38573 0.13443 0.0
N927 N 0.14905 0.44013 0.13772 0.0
H928 H 0.70389 0.66565 0.94617 0.0
H929 H 0.78235 0.68508 0.78939 0.0
H930 H 0.78666 0.61968 0.95469 0.0
H931 H 0.72451 0.75353 0.79347 0.0
H932 H 0.77973 0.65799 0.84798 0.0
H933 H 0.70907 0.69733 0.88999 0.0
C934 C 0.72372 0.66271 0.93673 0.0
C935 C 0.74474 0.63972 0.95514 0.0
C936 C 0.76745 0.67883 0.83609 0.0
C937 C 0.74981 0.67511 0.89013 0.0
C938 C 0.76853 0.69405 0.80238 0.0
C939 C 0.75358 0.72155 0.78667 0.0
C940 C 0.75084 0.69084 0.85405 0.0
C941 C 0.73627 0.73231 0.80481 0.0
C942 C 0.72634 0.68058 0.9044 0.0
C943 C 0.76944 0.63659 0.9411 0.0
N944 N 0.73538 0.7169 0.83771 0.0
N945 N 0.771 0.65379 0.90924 0.0
H946 H 0.61005 0.32915 0.16014 0.0
H947 H 0.63351 0.50887 0.15219 0.0
H948 H 0.69782 0.39179 0.23976 0.0
H949 H 0.53168 0.44186 0.10048 0.0
H950 H 0.64772 0.46651 0.20242 0.0
H951 H 0.57187 0.36401 0.15747 0.0
C952 C 0.62111 0.34965 0.17798 0.0
C953 C 0.65768 0.35891 0.19845 0.0
C954 C 0.62173 0.46125 0.18076 0.0
C955 C 0.61448 0.39978 0.19435 0.0
C956 C 0.61374 0.4855 0.15195 0.0
C957 C 0.58232 0.47797 0.1213 0.0
C958 C 0.59885 0.42892 0.17768 0.0
C959 C 0.55696 0.44802 0.12298 0.0
C960 C 0.59921 0.36971 0.17647 0.0
C961 C 0.67017 0.38511 0.22179 0.0
N962 N 0.56632 0.42395 0.15005 0.0
N963 N 0.6489 0.40543 0.21817 0.0
H964 H 1.03416 0.50303 0.38448 0.0
H965 H 0.87523 0.33629 0.35272 0.0
H966 H 0.98514 0.45632 0.46365 0.0
H967 H 0.92264 0.38124 0.27182 0.0
H968 H 0.91735 0.37881 0.39442 0.0
H969 H 0.99572 0.45794 0.34371 0.0
C970 C 1.01531 0.48326 0.39329 0.0
C971 C 1.01268 0.48355 0.42742 0.0
C972 C 0.91878 0.37941 0.36766 0.0
C973 C 0.96864 0.43178 0.38095 0.0
C974 C 0.89476 0.35498 0.34379 0.0
C975 C 0.89543 0.35508 0.30867 0.0
C976 C 0.94379 0.40449 0.35646 0.0
C977 C 0.92118 0.38019 0.29863 0.0
C978 C 0.99341 0.4575 0.37002 0.0
C979 C 0.98799 0.45719 0.43755 0.0
N980 N 0.94424 0.40396 0.32234 0.0
N981 N 0.96693 0.43249 0.41443 0.0
H982 H 0.64371 0.55936 0.44264 0.0
H983 H 0.73523 0.74739 0.35536 0.0
H984 H 0.6474 0.65218 0.4777 0.0
H985 H 0.75901 0.65758 0.34434 0.0
H986 H 0.70049 0.71428 0.39348 0.0
H987 H 0.67899 0.5916 0.40437 0.0
C988 C 0.65117 0.5864 0.44291 0.0
C989 C 0.64023 0.60107 0.46591 0.0
C990 C 0.71297 0.70107 0.38302 0.0
C991 C 0.68425 0.64183 0.41744 0.0
C992 C 0.73373 0.72078 0.36023 0.0
C993 C 0.75249 0.70745 0.34425 0.0
C994 C 0.70807 0.66535 0.39175 0.0
C995 C 0.74674 0.67142 0.35431 0.0
C996 C 0.67232 0.6056 0.42011 0.0
C997 C 0.65337 0.63744 0.46209 0.0
N998 N 0.7261 0.653 0.37583 0.0
N999 N 0.67309 0.65516 0.43957 0.0
H1000 H 0.90749 0.30552 0.86682 0.0
H1001 H 0.95848 0.49349 0.91935 0.0
H1002 H 0.82688 0.3604 0.83736 0.0
H1003 H 1.00428 0.41836 0.99742 0.0
H1004 H 0.9173 0.44907 0.87836 0.0
H1005 H 0.95081 0.35102 0.90494 0.0
C1006 C 0.89899 0.3272 0.86831 0.0
C1007 C 0.86354 0.32914 0.84929 0.0
C1008 C 0.93657 0.44247 0.90439 0.0
C1009 C 0.91298 0.38141 0.89177 0.0
C1010 C 0.96012 0.46772 0.92762 0.0
C1011 C 0.98455 0.45943 0.96185 0.0
C1012 C 0.93828 0.40894 0.91506 0.0
C1013 C 0.98559 0.42567 0.97134 0.0
C1014 C 0.92364 0.35303 0.89002 0.0
C1015 C 0.85389 0.35782 0.85197 0.0
N1016 N 0.96293 0.40165 0.94799 0.0
N1017 N 0.87854 0.383 0.87258 0.0
H1018 H 0.8871 0.88942 0.20148 0.0
H1019 H 0.99395 0.89648 0.05812 0.0
H1020 H 0.90219 0.80052 0.1763 0.0
H1021 H 1.00036 0.98641 0.10094 0.0
H1022 H 0.95948 0.86356 0.09614 0.0
H1023 H 0.92282 0.92351 0.16477 0.0
C1024 C 0.89738 0.87608 0.18861 0.0
C1025 C 0.88931 0.83977 0.1945 0.0
C1026 C 0.96803 0.89046 0.09787 0.0
C1027 C 0.9341 0.8827 0.14763 0.0
C1028 C 0.98867 0.91029 0.07522 0.0
C1029 C 1.00262 0.94641 0.0739 0.0
C1030 C 0.95828 0.90484 0.12171 0.0
C1031 C 0.99221 0.95957 0.09879 0.0
C1032 C 0.91875 0.89657 0.16673 0.0
C1033 C 0.90577 0.82737 0.17478 0.0
N1034 N 0.97172 0.93976 0.12005 0.0
N1035 N 0.92583 0.84771 0.15348 0.0
H1036 H 0.92813 0.21736 0.80698 0.0
H1037 H 0.95666 0.0626 0.9627 0.0
H1038 H 0.85004 0.16692 0.85539 0.0
H1039 H 1.01903 0.0936 0.89394 0.0
H1040 H 0.91941 0.10133 0.92576 0.0
H1041 H 0.96278 0.17529 0.83957 0.0
C1042 C 0.91795 0.19758 0.82436 0.0
C1043 C 0.88527 0.19652 0.82764 0.0
C1044 C 0.94081 0.09951 0.91813 0.0
C1045 C 0.92641 0.14696 0.86661 0.0
C1046 C 0.96219 0.07685 0.93924 0.0
C1047 C 0.99094 0.07312 0.93133 0.0
C1048 C 0.94813 0.12043 0.88868 0.0
C1049 C 0.9968 0.09404 0.90096 0.0
C1050 C 0.93804 0.1732 0.84313 0.0
C1051 C 0.87452 0.16949 0.85115 0.0
N1052 N 0.97613 0.11653 0.88136 0.0
N1053 N 0.89479 0.1465 0.86951 0.0
H1054 H 0.80497 0.18881 0.69168 0.0
H1055 H 0.62533 0.16037 0.51968 0.0
H1056 H 0.73433 0.25354 0.66771 0.0
H1057 H 0.65535 0.07685 0.59463 0.0
H1058 H 0.67246 0.19896 0.56459 0.0
H1059 H 0.75748 0.15075 0.64657 0.0
C1060 C 0.77958 0.19508 0.67671 0.0
C1061 C 0.77344 0.22423 0.68335 0.0
C1062 C 0.6686 0.17215 0.57101 0.0
C1063 C 0.71968 0.18151 0.63147 0.0
C1064 C 0.64192 0.15022 0.54547 0.0
C1065 C 0.63651 0.11547 0.55355 0.0
C1066 C 0.69064 0.15912 0.60419 0.0
C1067 C 0.65861 0.10351 0.58741 0.0
C1068 C 0.75256 0.17339 0.65121 0.0
C1069 C 0.74002 0.2312 0.66342 0.0
N1070 N 0.68501 0.12528 0.61132 0.0
N1071 N 0.71447 0.21019 0.63804 0.0
H1072 H 0.53536 0.91669 0.31066 0.0
H1073 H 0.67898 0.81364 0.36306 0.0
H1074 H 0.59611 0.88553 0.42124 0.0
H1075 H 0.62302 0.84939 0.25276 0.0
H1076 H 0.6342 0.82283 0.38251 0.0
H1077 H 0.55152 0.87556 0.28748 0.0
C1078 C 0.55139 0.9006 0.33007 0.0
C1079 C 0.56544 0.90522 0.3678 0.0
C1080 C 0.63119 0.82797 0.35386 0.0
C1081 C 0.58429 0.85855 0.34162 0.0
C1082 C 0.65681 0.82283 0.34282 0.0
C1083 C 0.65511 0.8317 0.30655 0.0
C1084 C 0.60417 0.8427 0.32854 0.0
C1085 C 0.62549 0.84268 0.28113 0.0
C1086 C 0.56056 0.8771 0.31687 0.0
C1087 C 0.58516 0.88313 0.39189 0.0
N1088 N 0.60159 0.84866 0.29281 0.0
N1089 N 0.59477 0.86131 0.37832 0.0
H1090 H 0.98378 0.20322 0.30288 0.0
H1091 H 0.12992 0.12504 0.45239 0.0
H1092 H 1.04925 0.23593 0.4116 0.0
H1093 H 1.03054 0.07454 0.37421 0.0
H1094 H 0.12499 0.17748 0.41428 0.0
H1095 H 1.02693 0.17278 0.30712 0.0
C1096 C 1.00778 0.20491 0.32717 0.0
C1097 C 1.01181 0.22016 0.35797 0.0
C1098 C 0.10526 0.15455 0.40453 0.0
C1099 C 1.06126 0.18617 0.36251 0.0
C1100 C 0.108 0.12462 0.42623 0.0
C1101 C 0.07981 0.09598 0.41686 0.0
C1102 C 0.0742 0.15535 0.37357 0.0
C1103 C 1.05219 0.09654 0.38277 0.0
C1104 C 1.0326 0.18792 0.32931 0.0
C1105 C 1.0443 0.22331 0.38778 0.0
N1106 N 1.04964 0.12606 0.36262 0.0
N1107 N 0.06738 0.20549 0.38981 0.0
H1108 H 0.76914 0.21358 0.1916 0.0
H1109 H 0.60057 0.05529 0.15818 0.0
H1110 H 0.72314 0.17022 0.27392 0.0
H1111 H 0.64758 0.10074 0.07713 0.0
H1112 H 0.64328 0.09797 0.20024 0.0
H1113 H 0.72322 0.17363 0.1489 0.0
C1114 C 0.74919 0.19575 0.20067 0.0
C1115 C 0.75 0.19535 0.23646 0.0
C1116 C 0.64421 0.09869 0.17323 0.0
C1117 C 0.69716 0.14895 0.18746 0.0
C1118 C 0.61984 0.07431 0.14921 0.0
C1119 C 0.6207 0.0743 0.11418 0.0
C1120 C 0.66969 0.12332 0.16219 0.0
C1121 C 0.64605 0.09969 0.10391 0.0
C1122 C 0.72294 0.17282 0.17621 0.0
C1123 C 0.72353 0.17144 0.24661 0.0
N1124 N 0.66955 0.12302 0.12779 0.0
N1125 N 0.69826 0.14914 0.22229 0.0
H1126 H 0.69841 0.86974 0.87442 0.0
H1127 H 0.61017 0.81964 0.02779 0.0
H1128 H 0.71335 0.78502 0.95348 0.0
H1129 H 0.6022 0.90755 0.95242 0.0
H1130 H 0.64478 0.8041 0.99871 0.0
H1131 H 0.65925 0.88131 0.90007 0.0
C1132 C 0.69312 0.85335 0.89695 0.0
C1133 C 0.70913 0.82638 0.91185 0.0
C1134 C 0.63521 0.82666 0.98842 0.0
C1135 C 0.66467 0.83971 0.94172 0.0
C1136 C 0.61555 0.83554 1.00504 0.0
C1137 C 0.60309 0.86478 0.99235 0.0
C1138 C 0.64255 0.84727 0.95906 0.0
C1139 C 0.61066 0.88443 0.96266 0.0
C1140 C 0.67095 0.86009 0.91176 0.0
C1141 C 0.70183 0.8063 0.94146 0.0
N1142 N 0.62997 0.87537 0.94714 0.0
N1143 N 0.68015 0.81341 0.95549 0.0
H1144 H 0.90921 0.91613 0.56773 0.0
H1145 H 0.8622 0.90914 0.74551 0.0
H1146 H 0.89849 1.00165 0.60601 0.0
H1147 H 0.88528 0.82552 0.71703 0.0
H1148 H 0.87667 0.94336 0.69495 0.0
H1149 H 0.89937 0.88191 0.62106 0.0
C1150 C 0.90429 0.9276 0.5871 0.0
C1151 C 0.90442 0.96176 0.58233 0.0
C1152 C 0.87875 0.91759 0.6997 0.0
C1153 C 0.89396 0.92297 0.64373 0.0
C1154 C 0.87063 0.89803 0.72872 0.0
C1155 C 0.87181 0.86425 0.73488 0.0
C1156 C 0.88805 0.90328 0.6765 0.0
C1157 C 0.88331 0.85131 0.71258 0.0
C1158 C 0.89913 0.90815 0.61775 0.0
C1159 C 0.89874 0.97548 0.60869 0.0
N1160 N 0.89059 0.87077 0.68396 0.0
N1161 N 0.89371 0.95603 0.6382 0.0
H1162 H 0.2689 0.86531 0.78994 0.0
H1163 H 0.14113 0.84401 0.90842 0.0
H1164 H 0.24378 0.77431 0.85374 0.0
H1165 H 0.19225 0.94071 0.87145 0.0
H1166 H 0.17271 0.81767 0.88434 0.0
H1167 H 0.23678 0.89155 0.81364 0.0
C1168 C 0.2562 0.85035 0.80837 0.0
C1169 C 0.25932 0.8167 0.81859 0.0
C1170 C 0.17717 0.84469 0.88131 0.0
C1171 C 0.22131 0.84789 0.84752 0.0
C1172 C 0.15866 0.86013 0.89515 0.0
C1173 C 0.16307 0.89552 0.8928 0.0
C1174 C 0.2007 0.86396 0.86355 0.0
C1175 C 0.18726 0.91369 0.87497 0.0
C1176 C 0.23792 0.86575 0.82251 0.0
C1177 C 0.24269 0.80001 0.8442 0.0
N1178 N 0.20435 0.89806 0.86123 0.0
N1179 N 0.22466 0.81532 0.85709 0.0
H1180 H 1.02621 0.57602 0.58714 0.0
H1181 H 0.86302 0.44748 0.61882 0.0
H1182 H 0.94629 0.50322 0.51353 0.0
H1183 H 0.95445 0.50019 0.70459 0.0
H1184 H 0.87847 0.48929 0.57377 0.0
H1185 H 0.98669 0.56891 0.62128 0.0
C1186 C 0.99977 0.55956 0.57737 0.0
C1187 C 0.98959 0.53935 0.54836 0.0
C1188 C 0.8947 0.49223 0.60255 0.0
C1189 C 0.94474 0.53116 0.5868 0.0
C1190 C 0.88576 0.46834 0.62858 0.0
C1191 C 0.90845 0.46925 0.66569 0.0
C1192 C 0.92704 0.51658 0.61349 0.0
C1193 C 0.93727 0.49739 0.67609 0.0
C1194 C 0.97732 0.55545 0.59684 0.0
C1195 C 0.95524 0.51855 0.53645 0.0
N1196 N 0.94648 0.51937 0.64999 0.0
N1197 N 0.93422 0.51454 0.55611 0.0
H1198 H 0.50185 0.11214 0.39159 0.0
H1199 H 0.36366 0.22097 0.37371 0.0
H1200 H 0.46871 0.11667 0.48008 0.0
H1201 H 0.39648 0.21618 0.28507 0.0
H1202 H 0.40144 0.18341 0.4124 0.0
H1203 H 0.46406 0.14969 0.35287 0.0
C1204 C 0.48675 0.12092 0.40315 0.0
C1205 C 0.48905 0.11067 0.43978 0.0
C1206 C 0.40053 0.1905 0.38454 0.0
C1207 C 0.44467 0.15472 0.39441 0.0
C1208 C 0.37879 0.21222 0.36215 0.0
C1209 C 0.37644 0.22244 0.32551 0.0
C1210 C 0.42072 0.17828 0.37081 0.0
C1211 C 0.39703 0.20948 0.31285 0.0
C1212 C 0.46494 0.14258 0.38073 0.0
C1213 C 0.46827 0.12346 0.45234 0.0
N1214 N 0.418 0.18842 0.3352 0.0
N1215 N 0.44729 0.14451 0.42998 0.0
H1216 H 0.63826 0.62803 0.02453 0.0
H1217 H 0.73991 0.68881 0.22713 0.0
H1218 H 0.59668 0.59188 0.11125 0.0
H1219 H 0.74266 0.75904 0.13416 0.0
H1220 H 0.69654 0.64675 0.18519 0.0
H1221 H 0.68531 0.67067 0.06459 0.0
C1222 C 0.63905 0.62911 0.05194 0.0
C1223 C 0.61345 0.60662 0.06459 0.0
C1224 C 0.70666 0.67135 0.17395 0.0
C1225 C 0.66724 0.65451 0.11043 0.0
C1226 C 0.73145 0.69537 0.19783 0.0
C1227 C 0.7445 0.72766 0.1841 0.0
C1228 C 0.6952 0.6793 0.13592 0.0
C1229 C 0.73287 0.73457 0.14584 0.0
C1230 C 0.66575 0.65341 0.07464 0.0
C1231 C 0.6157 0.60891 0.10032 0.0
N1232 N 0.70887 0.71052 0.12297 0.0
N1233 N 0.64224 0.6322 0.12206 0.0
H1234 H 0.24172 0.1843 0.73514 0.0
H1235 H 0.1368 0.12509 0.53123 0.0
H1236 H 0.2516 0.24842 0.64026 0.0
H1237 H 0.09661 0.08615 0.61854 0.0
H1238 H 0.18527 0.16547 0.57229 0.0
H1239 H 0.19487 0.14283 0.69428 0.0
C1240 C 0.23425 0.18952 0.7057 0.0
C1241 C 0.2505 0.21989 0.69102 0.0
C1242 C 0.16586 0.1481 0.58246 0.0
C1243 C 0.1971 0.17246 0.64421 0.0
C1244 C 0.13837 0.12496 0.55917 0.0
C1245 C 0.11282 0.10229 0.57165 0.0
C1246 C 0.16817 0.14818 0.61873 0.0
C1247 C 0.11573 0.10338 0.60788 0.0
C1248 C 0.20737 0.16594 0.68244 0.0
C1249 C 0.23967 0.22537 0.65268 0.0
N1250 N 0.14308 0.12579 0.63028 0.0
N1251 N 0.21374 0.20184 0.63058 0.0
H1252 H 0.78755 0.30378 0.37657 0.0
H1253 H 0.63077 0.40179 0.335 0.0
H1254 H 0.72542 0.33414 0.26689 0.0
H1255 H 0.70434 0.38371 0.44381 0.0
H1256 H 0.66179 0.37567 0.31001 0.0
H1257 H 0.75597 0.33006 0.40068 0.0
C1258 C 0.76721 0.31572 0.35712 0.0
C1259 C 0.75997 0.3159 0.31889 0.0
C1260 C 0.67133 0.37729 0.33943 0.0
C1261 C 0.7219 0.34731 0.34765 0.0
C1262 C 0.65318 0.39239 0.35416 0.0
C1263 C 0.66391 0.39594 0.39249 0.0
C1264 C 0.70116 0.36444 0.3625 0.0
C1265 C 0.69416 0.38271 0.41432 0.0
C1266 C 0.74891 0.33108 0.37126 0.0
C1267 C 0.73274 0.33263 0.29634 0.0
N1268 N 0.71095 0.36792 0.39938 0.0
N1269 N 0.71516 0.34709 0.31073 0.0
H1270 H 0.5317 0.08257 0.10165 0.0
H1271 H 0.37252 0.9739 0.16025 0.0
H1272 H 0.4383 1.01374 0.03582 0.0
H1273 H 0.48419 0.98715 0.22679 0.0
H1274 H 0.3881 1.01949 0.11744 0.0
H1275 H 0.50377 0.0774 0.14686 0.0
C1276 C 0.50461 0.06769 0.09588 0.0
C1277 C 0.48733 0.04792 0.06561 0.0
C1278 C 0.40894 1.0133 0.14234 0.0
C1279 C 0.45544 0.04249 0.11638 0.0
C1280 C 0.4002 0.98708 0.1666 0.0
C1281 C 0.42728 0.97532 0.19592 0.0
C1282 C 0.44485 0.02806 0.14799 0.0
C1283 C 0.46243 0.99453 0.20391 0.0
C1284 C 0.48879 0.0648 0.12162 0.0
C1285 C 0.45252 0.02886 0.05928 0.0
N1286 N 0.47035 1.01943 0.17941 0.0
N1287 N 0.43783 1.02619 0.08484 0.0
H1288 H 0.96585 0.61342 0.97858 0.0
H1289 H 0.89607 0.71544 0.78003 0.0
H1290 H 1.00158 0.61292 0.89083 0.0
H1291 H 0.86909 0.724 0.87159 0.0
H1292 H 0.93272 0.67671 0.81893 0.0
H1293 H 0.92899 0.6519 0.93955 0.0
C1294 C 0.9661 0.62125 0.95118 0.0
C1295 C 0.98744 0.60945 0.93854 0.0
C1296 C 0.91886 0.68705 0.83063 0.0
C1297 C 0.9443 0.65427 0.89273 0.0
C1298 C 0.89772 0.70936 0.80823 0.0
C1299 C 0.87915 0.72372 0.82208 0.0
C1300 C 0.92169 0.67831 0.86758 0.0
C1301 C 0.88279 0.71418 0.85923 0.0
C1302 C 0.94487 0.64344 0.92872 0.0
C1303 C 0.986 0.621 0.90234 0.0
N1304 N 0.90328 0.69238 0.88028 0.0
N1305 N 0.96507 0.64238 0.88107 0.0
H1306 H 0.40988 0.38384 0.08195 0.0
H1307 H 0.34706 0.40212 0.23983 0.0
H1308 H 0.40305 0.47963 0.10207 0.0
H1309 H 0.39856 0.32501 0.24494 0.0
H1310 H 0.36347 0.43037 0.18734 0.0
H1311 H 0.3993 0.35973 0.13831 0.0
C1312 C 0.4061 0.39983 0.09811 0.0
C1313 C 0.40755 0.43392 0.08722 0.0
C1314 C 0.37157 0.40749 0.20028 0.0
C1315 C 0.39522 0.40635 0.15164 0.0
C1316 C 0.36249 0.39156 0.23035 0.0
C1317 C 0.37107 0.36099 0.24609 0.0
C1318 C 0.38894 0.39244 0.18592 0.0
C1319 C 0.39096 0.34825 0.23287 0.0
C1320 C 0.40017 0.38604 0.13033 0.0
C1321 C 0.40167 0.45316 0.10898 0.0
N1322 N 0.39876 0.36374 0.20309 0.0
N1323 N 0.39574 0.43909 0.14016 0.0
H1324 H 0.52436 0.5396 0.87884 0.0
H1325 H 0.52449 0.71929 0.86467 0.0
H1326 H 0.6158 0.61757 0.93105 0.0
H1327 H 0.43744 0.64303 0.80212 0.0
H1328 H 0.56612 0.68926 0.86491 0.0
H1329 H 0.5035 0.57965 0.82799 0.0
C1330 C 0.54062 0.565 0.87895 0.0
C1331 C 0.57068 0.57593 0.90989 0.0
C1332 C 0.53798 0.67945 0.85017 0.0
C1333 C 0.54619 0.62213 0.85309 0.0
C1334 C 0.5141 0.69669 0.85003 0.0
C1335 C 0.47737 0.68254 0.83519 0.0
C1336 C 0.52485 0.64741 0.83657 0.0
C1337 C 0.46558 0.65371 0.81582 0.0
C1338 C 0.52875 0.58796 0.8499 0.0
C1339 C 0.5916 0.60857 0.90822 0.0
N1340 N 0.48921 0.63649 0.81802 0.0
N1341 N 0.57822 0.63102 0.88092 0.0
H1342 H 0.15815 0.59534 0.57002 0.0
H1343 H 0.21624 0.67312 0.76314 0.0
H1344 H 0.10705 0.55309 0.64839 0.0
H1345 H 0.266 0.7154 0.68363 0.0
H1346 H 0.17428 0.63055 0.72063 0.0
H1347 H 0.19611 0.64076 0.61018 0.0
C1348 C 0.15485 0.59568 0.59566 0.0
C1349 C 0.12942 0.57032 0.60588 0.0
C1350 C 0.19424 0.64923 0.71238 0.0
C1351 C 0.17309 0.62229 0.65234 0.0
C1352 C 0.21818 0.67361 0.73663 0.0
C1353 C 0.24481 0.69782 0.72703 0.0
C1354 C 0.1969 0.64893 0.67818 0.0
C1355 C 0.246 0.6972 0.69227 0.0
C1356 C 0.17658 0.62163 0.61865 0.0
C1357 C 0.12642 0.57203 0.6395 0.0
N1358 N 0.22257 0.67312 0.66926 0.0
N1359 N 0.14801 0.59746 0.66154 0.0
H1360 H 0.38262 0.38677 0.69556 0.0
H1361 H 0.50136 0.39615 0.56385 0.0
H1362 H 0.4156 0.30124 0.68801 0.0
H1363 H 0.49752 0.48642 0.5978 0.0
H1364 H 0.46786 0.36295 0.6027 0.0
H1365 H 0.4177 0.42122 0.6584 0.0
C1366 C 0.3968 0.37426 0.68654 0.0
C1367 C 0.39393 0.33881 0.69748 0.0
C1368 C 0.47394 0.38998 0.60228 0.0
C1369 C 0.43775 0.38203 0.64992 0.0
C1370 C 0.49398 0.40997 0.57914 0.0
C1371 C 0.50484 0.44628 0.5752 0.0
C1372 C 0.46152 0.40435 0.62374 0.0
C1373 C 0.49191 0.45945 0.59787 0.0
C1374 C 0.41775 0.39495 0.66439 0.0
C1375 C 0.415 0.32739 0.68239 0.0
N1376 N 0.47191 0.43945 0.61949 0.0
N1377 N 0.43441 0.3478 0.66053 0.0
H1378 H 0.26698 0.68614 0.22675 0.0
H1379 H 0.13351 0.658 0.01813 0.0
H1380 H 0.26446 0.76147 0.13698 0.0
H1381 H 0.1339 0.58147 0.10647 0.0
H1382 H 0.1802 0.69665 0.06211 0.0
H1383 H 0.21743 0.6477 0.18413 0.0
C1384 C 0.25598 0.69459 0.19809 0.0
C1385 C 0.26985 0.72706 0.18537 0.0
C1386 C 0.17006 0.67146 0.07201 0.0
C1387 C 0.2133 0.68323 0.13642 0.0
C1388 C 0.14332 0.64939 0.04686 0.0
C1389 C 0.12991 0.61643 0.05861 0.0
C1390 C 0.18369 0.66057 0.10932 0.0
C1391 C 0.14356 0.60667 0.09622 0.0
C1392 C 0.22771 0.67264 0.17377 0.0
C1393 C 0.25468 0.73665 0.14796 0.0
N1394 N 0.16981 0.62857 0.12022 0.0
N1395 N 0.22733 0.71488 0.12488 0.0
H1396 H 0.71164 0.32973 0.73207 0.0
H1397 H 0.68715 0.48644 0.57885 0.0
H1398 H 0.79162 0.38124 0.68649 0.0
H1399 H 0.62276 0.45497 0.64557 0.0
H1400 H 0.72363 0.44719 0.61597 0.0
H1401 H 0.67755 0.37227 0.69958 0.0
C1402 C 0.72234 0.34984 0.71535 0.0
C1403 C 0.75536 0.35108 0.71277 0.0
C1404 C 0.70195 0.44903 0.62312 0.0
C1405 C 0.715 0.40107 0.67401 0.0
C1406 C 0.68103 0.47197 0.60192 0.0
C1407 C 0.65199 0.47567 0.60925 0.0
C1408 C 0.69379 0.42784 0.65199 0.0
C1409 C 0.64529 0.45451 0.63909 0.0
C1410 C 0.7026 0.37446 0.69665 0.0
C1411 C 0.76685 0.3785 0.69011 0.0
N1412 N 0.66551 0.43173 0.65877 0.0
N1413 N 0.74693 0.4017 0.67182 0.0
H1414 H 0.77809 0.57595 0.15172 0.0
H1415 H 0.88095 0.61375 0.01872 0.0
H1416 H 0.81267 0.67348 0.1022 0.0
H1417 H 0.8542 0.51779 0.07518 0.0
H1418 H 0.83379 0.63031 0.02758 0.0
H1419 H 0.78268 0.55013 0.10364 0.0
C1420 C 0.78573 0.59191 0.13017 0.0
C1421 C 0.7965 0.62684 0.13181 0.0
C1422 C 0.83758 0.60528 0.03717 0.0
C1423 C 0.80235 0.59764 0.07727 0.0
C1424 C 0.86454 0.59588 0.03219 0.0
C1425 C 0.87235 0.56491 0.0476 0.0
C1426 C 0.81908 0.58382 0.05845 0.0
C1427 C 0.84959 0.54223 0.06361 0.0
C1428 C 0.78837 0.57719 0.10274 0.0
C1429 C 0.80489 0.6464 0.10252 0.0
N1430 N 0.82461 0.5525 0.06959 0.0
N1431 N 0.8087 0.63152 0.07703 0.0
H1432 H 1.00937 0.64526 0.58082 0.0
H1433 H 0.90988 0.78512 0.57122 0.0
H1434 H 1.01901 0.73855 0.5144 0.0
H1435 H 0.91002 0.69619 0.64523 0.0
H1436 H 0.94949 0.76864 0.54957 0.0
H1437 H 0.9731 0.66388 0.60474 0.0
C1438 C 1.00429 0.6699 0.57162 0.0
C1439 C 1.01755 0.69051 0.54575 0.0
C1440 C 0.94096 0.75281 0.57065 0.0
C1441 C 0.97523 0.71172 0.57255 0.0
C1442 C 0.91821 0.7621 0.58286 0.0
C1443 C 0.90663 0.74196 0.61004 0.0
C1444 C 0.95201 0.72305 0.58556 0.0
C1445 C 0.91861 0.71264 0.62453 0.0
C1446 C 0.9833 0.68042 0.58511 0.0
C1447 C 1.00917 0.72177 0.53411 0.0
N1448 N 0.94051 0.70401 0.61201 0.0
N1449 N 0.98848 0.73142 0.54757 0.0
H1450 H 0.45712 0.56246 0.46269 0.0
H1451 H 0.43044 0.71989 0.30996 0.0
H1452 H 0.52158 0.59573 0.39611 0.0
H1453 H 0.35246 0.66849 0.35824 0.0
H1454 H 0.46515 0.67763 0.34194 0.0
H1455 H 0.42046 0.60178 0.42636 0.0
C1456 C 0.46322 0.57733 0.43979 0.0
C1457 C 0.49236 0.57406 0.43229 0.0
C1458 C 0.44045 0.67542 0.34563 0.0
C1459 C 0.45024 0.62205 0.3904 0.0
C1460 C 0.42036 0.69991 0.32724 0.0
C1461 C 0.38774 0.69862 0.33075 0.0
C1462 C 0.42878 0.64885 0.36882 0.0
C1463 C 0.37702 0.67131 0.35401 0.0
C1464 C 0.4422 0.60034 0.41904 0.0
C1465 C 0.49899 0.59579 0.40271 0.0
N1466 N 0.39721 0.64823 0.3719 0.0
N1467 N 0.47861 0.61858 0.38343 0.0
H1468 H 0.22531 0.33326 0.89512 0.0
H1469 H 1.05904 0.39665 0.86391 0.0
H1470 H 0.132 0.32163 0.79537 0.0
H1471 H 0.15332 0.40648 0.96213 0.0
H1472 H 0.0757 0.35212 0.84676 0.0
H1473 H 0.19042 0.34139 0.92728 0.0
C1474 C 0.19726 0.33157 0.87997 0.0
C1475 C 0.18193 0.32774 0.84199 0.0
C1476 C 0.09224 0.36332 0.87258 0.0
C1477 C 0.14206 0.33874 0.87878 0.0
C1478 C 0.08267 0.38863 0.88239 0.0
C1479 C 0.10558 0.40577 0.91378 0.0
C1480 C 0.12501 0.35562 0.89425 0.0
C1481 C 0.13563 0.39442 0.93707 0.0
C1482 C 0.17729 0.33648 0.89849 0.0
C1483 C 0.14538 0.32599 0.82426 0.0
N1484 N 0.14492 0.37048 0.92644 0.0
N1485 N 0.12686 0.3324 0.84259 0.0
H1486 H 0.19259 0.24989 0.45018 0.0
H1487 H 1.04153 0.34124 0.42459 0.0
H1488 H 0.14993 0.31471 0.35533 0.0
H1489 H 0.11621 0.31519 0.53019 0.0
H1490 H 0.06744 0.31462 0.395 0.0
H1491 H 0.1505 0.25694 0.47511 0.0
C1492 C 0.17424 0.26533 0.43439 0.0
C1493 C 0.17557 0.28247 0.401 0.0
C1494 C 0.0776 0.31423 0.42469 0.0
C1495 C 0.12688 0.28983 0.42903 0.0
C1496 C 1.06302 0.32959 0.44165 0.0
C1497 C 0.07732 0.33137 0.47999 0.0
C1498 C 0.10619 0.29996 0.44618 0.0
C1499 C 0.10428 0.31462 0.50062 0.0
C1500 C 0.1501 0.26911 0.44857 0.0
C1501 C 0.15012 0.30105 0.38117 0.0
N1502 N 0.11814 0.29997 0.48342 0.0
N1503 N 0.12713 0.30456 0.3957 0.0
loop_
_geom_bond_atom_site_label_1
_geom_bond_atom_site_label_2
_geom_bond_distance
_geom_bond_site_symmetry_2
_ccdc_geom_bond_type
C0 Eu1 2.835 1_655 S
C0 C2 1.500 . S
C0 O20 1.257 . S
C0 O21 1.260 1_655 S
Eu1 C0 2.835 1_455 S
Eu1 O20 2.473 1_455 S
Eu1 O21 2.480 . S
Eu1 O22 2.430 . S
Eu1 O23 2.670 1_554 S
Eu1 O24 2.394 1_454 S
Eu1 O29 2.355 1_445 S
Eu1 O31 2.374 1_545 S
C2 C0 1.500 . S
C2 C3 1.377 . S
C2 C7 1.377 . S
C3 C2 1.377 . S
C3 C4 1.395 . S
C3 H32 0.931 1_655 S
C4 C3 1.395 . S
C4 C5 1.383 . S
C4 H33 0.935 . S
C5 C4 1.383 . S
C5 C6 1.394 . S
C6 C5 1.394 . S
C6 C7 1.378 . S
C6 H34 0.931 . S
C7 C2 1.377 . S
C7 C6 1.378 . S
C7 H35 0.931 . S
C8 O22 1.259 1_556 S
C8 O23 1.270 . S
C9 O24 1.251 . S
C9 O25 1.251 . S
C10 Eu11 2.835 1_455 S
C10 C12 1.500 . S
C10 O26 1.257 . S
C10 O27 1.260 1_455 S
Eu11 C10 2.835 1_655 S
Eu11 O23 2.355 1_665 S
Eu11 O25 2.374 1_565 S
Eu11 O26 2.473 1_655 S
Eu11 O27 2.480 . S
Eu11 O28 2.430 . S
Eu11 O29 2.670 1_556 S
Eu11 O30 2.394 1_656 S
C12 C10 1.500 . S
C12 C13 1.377 . S
C12 C17 1.377 . S
C13 C12 1.377 . S
C13 C14 1.395 . S
C13 H36 0.931 1_455 S
C14 C13 1.395 . S
C14 C15 1.383 . S
C14 H37 0.937 . S
C15 C14 1.383 . S
C15 C16 1.394 . S
C16 C15 1.394 . S
C16 C17 1.378 . S
C16 H38 0.931 . S
C17 C12 1.377 . S
C17 C16 1.378 . S
C17 H39 0.931 . S
C18 O28 1.259 1_554 S
C18 O29 1.270 . S
C19 O30 1.251 . S
C19 O31 1.251 . S
O20 C0 1.257 . S
O20 Eu1 2.473 1_655 S
O21 C0 1.260 1_455 S
O21 Eu1 2.480 . S
O22 Eu1 2.430 . S
O22 C8 1.259 1_554 S
O23 Eu1 2.670 1_556 S
O23 C8 1.270 . S
O23 Eu11 2.355 1_445 S
O24 Eu1 2.394 1_656 S
O24 C9 1.251 . S
O25 C9 1.251 . S
O25 Eu11 2.374 1_545 S
O26 C10 1.257 . S
O26 Eu11 2.473 1_455 S
O27 C10 1.260 1_655 S
O27 Eu11 2.480 . S
O28 Eu11 2.430 . S
O28 C18 1.259 1_556 S
O29 Eu1 2.355 1_665 S
O29 Eu11 2.670 1_554 S
O29 C18 1.270 . S
O30 Eu11 2.394 1_454 S
O30 C19 1.251 . S
O31 Eu1 2.374 1_565 S
O31 C19 1.251 . S
H32 C3 0.931 1_455 S
H33 C4 0.935 . S
H34 C6 0.931 . S
H35 C7 0.931 . S
H36 C13 0.931 1_655 S
H37 C14 0.937 . S
H38 C16 0.931 . S
H39 C17 0.931 . S
C40 Eu41 2.835 . S
C40 C42 1.500 . S
C40 O60 1.257 . S
C40 O61 1.260 . S
Eu41 C40 2.835 . S
Eu41 O60 2.473 . S
Eu41 O61 2.480 . S
Eu41 O62 2.430 . S
Eu41 O63 2.670 . S
Eu41 O64 2.394 . S
Eu41 O69 2.355 . S
Eu41 O71 2.374 . S
C42 C40 1.500 . S
C42 C43 1.377 . S
C42 C47 1.377 . S
C43 C42 1.377 . S
C43 C44 1.395 . S
C43 H72 0.931 . S
C44 C43 1.395 . S
C44 C45 1.383 . S
C44 H73 0.931 . S
C45 C44 1.383 . S
C45 C46 1.394 . S
C46 C45 1.394 . S
C46 C47 1.378 . S
C46 H74 0.931 . S
C47 C42 1.377 . S
C47 C46 1.378 . S
C47 H75 0.931 . S
C48 O62 1.259 . S
C48 O63 1.270 . S
C49 O64 1.251 . S
C49 O65 1.251 . S
C50 Eu51 2.835 . S
C50 C52 1.500 . S
C50 O66 1.257 . S
C50 O67 1.260 . S
Eu51 C50 2.835 . S
Eu51 O63 2.355 . S
Eu51 O65 2.374 . S
Eu51 O66 2.473 . S
Eu51 O67 2.480 . S
Eu51 O68 2.430 . S
Eu51 O69 2.670 . S
Eu51 O70 2.394 . S
C52 C50 1.500 . S
C52 C53 1.377 . S
C52 C57 1.377 . S
C53 C52 1.377 . S
C53 C54 1.395 . S
C53 H76 0.931 . S
C54 C53 1.395 . S
C54 C55 1.383 . S
C54 H77 0.931 . S
C55 C54 1.383 . S
C55 C56 1.394 . S
C56 C55 1.394 . S
C56 C57 1.378 . S
C56 H78 0.931 . S
C57 C52 1.377 . S
C57 C56 1.378 . S
C57 H79 0.931 . S
C58 O68 1.259 . S
C58 O69 1.270 . S
C59 O70 1.251 . S
C59 O71 1.251 . S
O60 C40 1.257 . S
O60 Eu41 2.473 . S
O61 C40 1.260 . S
O61 Eu41 2.480 . S
O62 Eu41 2.430 . S
O62 C48 1.259 . S
O63 Eu41 2.670 . S
O63 C48 1.270 . S
O63 Eu51 2.355 . S
O64 Eu41 2.394 . S
O64 C49 1.251 . S
O65 C49 1.251 . S
O65 Eu51 2.374 . S
O66 C50 1.257 . S
O66 Eu51 2.473 . S
O67 C50 1.260 . S
O67 Eu51 2.480 . S
O68 Eu51 2.430 . S
O68 C58 1.259 . S
O69 Eu41 2.355 . S
O69 Eu51 2.670 . S
O69 C58 1.270 . S
O70 Eu51 2.394 . S
O70 C59 1.251 . S
O71 Eu41 2.374 . S
O71 C59 1.251 . S
H72 C43 0.931 . S
H73 C44 0.931 . S
H74 C46 0.931 . S
H75 C47 0.931 . S
H76 C53 0.931 . S
H77 C54 0.931 . S
H78 C56 0.931 . S
H79 C57 0.931 . S
C80 Eu81 2.835 1_565 S
C80 C82 1.500 . S
C80 O100 1.257 . S
C80 O101 1.260 1_565 S
Eu81 C80 2.835 1_545 S
Eu81 O100 2.473 1_545 S
Eu81 O101 2.480 . S
Eu81 O102 2.430 . S
Eu81 O103 2.670 . S
Eu81 O104 2.394 1_545 S
Eu81 O109 2.355 1_545 S
Eu81 O111 2.374 . S
C82 C80 1.500 . S
C82 C83 1.377 . S
C82 C87 1.377 . S
C83 C82 1.377 . S
C83 C84 1.395 . S
C83 H112 0.931 . S
C84 C83 1.395 . S
C84 C85 1.383 . S
C84 H113 0.931 . S
C85 C84 1.383 . S
C85 C86 1.394 . S
C86 C85 1.394 . S
C86 C87 1.378 . S
C86 H114 0.931 . S
C87 C82 1.377 . S
C87 C86 1.378 . S
C87 H115 0.931 . S
C88 O102 1.259 . S
C88 O103 1.270 . S
C89 O104 1.251 . S
C89 O105 1.251 . S
C90 Eu91 2.835 1_545 S
C90 C92 1.500 . S
C90 O106 1.257 . S
C90 O107 1.260 1_545 S
Eu91 C90 2.835 1_565 S
Eu91 O103 2.355 1_565 S
Eu91 O105 2.374 . S
Eu91 O106 2.473 1_565 S
Eu91 O107 2.480 . S
Eu91 O108 2.430 . S
Eu91 O109 2.670 . S
Eu91 O110 2.394 1_565 S
C92 C90 1.500 . S
C92 C93 1.377 . S
C92 C97 1.377 . S
C93 C92 1.377 . S
C93 C94 1.395 . S
C93 H116 0.931 . S
C94 C93 1.395 . S
C94 C95 1.383 . S
C94 H117 0.931 . S
C95 C94 1.383 . S
C95 C96 1.394 . S
C96 C95 1.394 . S
C96 C97 1.378 . S
C96 H118 0.931 . S
C97 C92 1.377 . S
C97 C96 1.378 . S
C97 H119 0.931 . S
C98 O108 1.259 . S
C98 O109 1.270 . S
C99 O110 1.251 . S
C99 O111 1.251 . S
O100 C80 1.257 . S
O100 Eu81 2.473 1_565 S
O101 C80 1.260 1_545 S
O101 Eu81 2.480 . S
O102 Eu81 2.430 . S
O102 C88 1.259 . S
O103 Eu81 2.670 . S
O103 C88 1.270 . S
O103 Eu91 2.355 1_545 S
O104 Eu81 2.394 1_565 S
O104 C89 1.251 . S
O105 C89 1.251 . S
O105 Eu91 2.374 . S
O106 C90 1.257 . S
O106 Eu91 2.473 1_545 S
O107 C90 1.260 1_565 S
O107 Eu91 2.480 . S
O108 Eu91 2.430 . S
O108 C98 1.259 . S
O109 Eu81 2.355 1_565 S
O109 Eu91 2.670 . S
O109 C98 1.270 . S
O110 Eu91 2.394 1_545 S
O110 C99 1.251 . S
O111 Eu81 2.374 . S
O111 C99 1.251 . S
H112 C83 0.931 . S
H113 C84 0.931 . S
H114 C86 0.931 . S
H115 C87 0.931 . S
H116 C93 0.931 . S
H117 C94 0.931 . S
H118 C96 0.931 . S
H119 C97 0.931 . S
C120 Eu121 2.835 . S
C120 C122 1.500 . S
C120 O140 1.257 . S
C120 O141 1.260 . S
Eu121 C120 2.835 . S
Eu121 O140 2.473 . S
Eu121 O141 2.480 . S
Eu121 O142 2.430 . S
Eu121 O143 2.670 . S
Eu121 O144 2.394 . S
Eu121 O149 2.355 . S
Eu121 O151 2.374 . S
C122 C120 1.500 . S
C122 C123 1.377 . S
C122 C127 1.377 . S
C123 C122 1.377 . S
C123 C124 1.395 . S
C123 H152 0.931 . S
C124 C123 1.395 . S
C124 C125 1.383 . S
C124 H153 0.931 . S
C125 C124 1.383 . S
C125 C126 1.394 . S
C126 C125 1.394 . S
C126 C127 1.378 . S
C126 H154 0.931 . S
C127 C122 1.377 . S
C127 C126 1.378 . S
C127 H155 0.931 . S
C128 O142 1.259 . S
C128 O143 1.270 . S
C129 O144 1.251 . S
C129 O145 1.251 . S
C130 Eu131 2.835 . S
C130 C132 1.500 . S
C130 O146 1.257 . S
C130 O147 1.260 . S
Eu131 C130 2.835 . S
Eu131 O143 2.355 . S
Eu131 O145 2.374 . S
Eu131 O146 2.473 . S
Eu131 O147 2.480 . S
Eu131 O148 2.430 . S
Eu131 O149 2.670 . S
Eu131 O150 2.394 . S
C132 C130 1.500 . S
C132 C133 1.377 . S
C132 C137 1.377 . S
C133 C132 1.377 . S
C133 C134 1.395 . S
C133 H156 0.931 . S
C134 C133 1.395 . S
C134 C135 1.383 . S
C134 H157 0.931 . S
C135 C134 1.383 . S
C135 C136 1.394 . S
C136 C135 1.394 . S
C136 C137 1.378 . S
C136 H158 0.931 . S
C137 C132 1.377 . S
C137 C136 1.378 . S
C137 H159 0.931 . S
C138 O148 1.259 . S
C138 O149 1.270 . S
C139 O150 1.251 . S
C139 O151 1.251 . S
O140 C120 1.257 . S
O140 Eu121 2.473 . S
O141 C120 1.260 . S
O141 Eu121 2.480 . S
O142 Eu121 2.430 . S
O142 C128 1.259 . S
O143 Eu121 2.670 . S
O143 C128 1.270 . S
O143 Eu131 2.355 . S
O144 Eu121 2.394 . S
O144 C129 1.251 . S
O145 C129 1.251 . S
O145 Eu131 2.374 . S
O146 C130 1.257 . S
O146 Eu131 2.473 . S
O147 C130 1.260 . S
O147 Eu131 2.480 . S
O148 Eu131 2.430 . S
O148 C138 1.259 . S
O149 Eu121 2.355 . S
O149 Eu131 2.670 . S
O149 C138 1.270 . S
O150 Eu131 2.394 . S
O150 C139 1.251 . S
O151 Eu121 2.374 . S
O151 C139 1.251 . S
H152 C123 0.931 . S
H153 C124 0.931 . S
H154 C126 0.931 . S
H155 C127 0.931 . S
H156 C133 0.931 . S
H157 C134 0.931 . S
H158 C136 0.931 . S
H159 C137 0.931 . S
C160 Eu161 2.835 . S
C160 C162 1.500 . S
C160 O180 1.257 . S
C160 O181 1.260 . S
Eu161 C160 2.835 . S
Eu161 O180 2.473 . S
Eu161 O181 2.480 . S
Eu161 O182 2.430 1_445 S
Eu161 O183 2.670 1_445 S
Eu161 O184 2.394 1_455 S
Eu161 O189 2.355 . S
Eu161 O191 2.374 1_545 S
C162 C160 1.500 . S
C162 C163 1.377 . S
C162 C167 1.377 . S
C163 C162 1.377 . S
C163 C164 1.395 . S
C163 H192 0.931 . S
C164 C163 1.395 . S
C164 C165 1.383 . S
C164 H193 0.931 . S
C165 C164 1.383 . S
C165 C166 1.394 . S
C166 C165 1.394 . S
C166 C167 1.378 . S
C166 H194 0.931 . S
C167 C162 1.377 . S
C167 C166 1.378 . S
C167 H195 0.931 . S
C168 O182 1.259 . S
C168 O183 1.270 . S
C169 O184 1.251 . S
C169 O185 1.251 . S
C170 Eu171 2.835 . S
C170 C172 1.500 . S
C170 O186 1.257 . S
C170 O187 1.260 . S
Eu171 C170 2.835 . S
Eu171 O183 2.355 . S
Eu171 O185 2.374 1_565 S
Eu171 O186 2.473 . S
Eu171 O187 2.480 . S
Eu171 O188 2.430 1_665 S
Eu171 O189 2.670 1_665 S
Eu171 O190 2.394 1_655 S
C172 C170 1.500 . S
C172 C173 1.377 . S
C172 C177 1.377 . S
C173 C172 1.377 . S
C173 C174 1.395 . S
C173 H196 0.931 . S
C174 C173 1.395 . S
C174 C175 1.383 . S
C174 H197 0.931 . S
C175 C174 1.383 . S
C175 C176 1.394 . S
C176 C175 1.394 . S
C176 C177 1.378 . S
C176 H198 0.931 . S
C177 C172 1.377 . S
C177 C176 1.378 . S
C177 H199 0.931 . S
C178 O188 1.259 . S
C178 O189 1.270 . S
C179 O190 1.251 . S
C179 O191 1.251 . S
O180 C160 1.257 . S
O180 Eu161 2.473 . S
O181 C160 1.260 . S
O181 Eu161 2.480 . S
O182 Eu161 2.430 1_665 S
O182 C168 1.259 . S
O183 Eu161 2.670 1_665 S
O183 C168 1.270 . S
O183 Eu171 2.355 . S
O184 Eu161 2.394 1_655 S
O184 C169 1.251 . S
O185 C169 1.251 . S
O185 Eu171 2.374 1_545 S
O186 C170 1.257 . S
O186 Eu171 2.473 . S
O187 C170 1.260 . S
O187 Eu171 2.480 . S
O188 Eu171 2.430 1_445 S
O188 C178 1.259 . S
O189 Eu161 2.355 . S
O189 Eu171 2.670 1_445 S
O189 C178 1.270 . S
O190 Eu171 2.394 1_455 S
O190 C179 1.251 . S
O191 Eu161 2.374 1_565 S
O191 C179 1.251 . S
H192 C163 0.931 . S
H193 C164 0.931 . S
H194 C166 0.931 . S
H195 C167 0.931 . S
H196 C173 0.931 . S
H197 C174 0.931 . S
H198 C176 0.931 . S
H199 C177 0.931 . S
C200 Eu201 2.835 . S
C200 C202 1.500 . S
C200 O220 1.257 . S
C200 O221 1.260 . S
Eu201 C200 2.835 . S
Eu201 O220 2.473 . S
Eu201 O221 2.480 . S
Eu201 O222 2.430 . S
Eu201 O223 2.670 . S
Eu201 O224 2.394 . S
Eu201 O229 2.355 . S
Eu201 O231 2.374 . S
C202 C200 1.500 . S
C202 C203 1.377 . S
C202 C207 1.377 . S
C203 C202 1.377 . S
C203 C204 1.395 . S
C203 H232 0.931 . S
C204 C203 1.395 . S
C204 C205 1.383 . S
C204 H233 0.931 . S
C205 C204 1.383 . S
C205 C206 1.394 . S
C206 C205 1.394 . S
C206 C207 1.378 . S
C206 H234 0.931 . S
C207 C202 1.377 . S
C207 C206 1.378 . S
C207 H235 0.931 . S
C208 O222 1.259 . S
C208 O223 1.270 . S
C209 O224 1.251 . S
C209 O225 1.251 . S
C210 Eu211 2.835 . S
C210 C212 1.500 . S
C210 O226 1.257 . S
C210 O227 1.260 . S
Eu211 C210 2.835 . S
Eu211 O223 2.355 . S
Eu211 O225 2.374 . S
Eu211 O226 2.473 . S
Eu211 O227 2.480 . S
Eu211 O228 2.430 . S
Eu211 O229 2.670 . S
Eu211 O230 2.394 . S
C212 C210 1.500 . S
C212 C213 1.377 . S
C212 C217 1.377 . S
C213 C212 1.377 . S
C213 C214 1.395 . S
C213 H236 0.931 . S
C214 C213 1.395 . S
C214 C215 1.383 . S
C214 H237 0.931 . S
C215 C214 1.383 . S
C215 C216 1.394 . S
C216 C215 1.394 . S
C216 C217 1.378 . S
C216 H238 0.931 . S
C217 C212 1.377 . S
C217 C216 1.378 . S
C217 H239 0.931 . S
C218 O228 1.259 . S
C218 O229 1.270 . S
C219 O230 1.251 . S
C219 O231 1.251 . S
O220 C200 1.257 . S
O220 Eu201 2.473 . S
O221 C200 1.260 . S
O221 Eu201 2.480 . S
O222 Eu201 2.430 . S
O222 C208 1.259 . S
O223 Eu201 2.670 . S
O223 C208 1.270 . S
O223 Eu211 2.355 . S
O224 Eu201 2.394 . S
O224 C209 1.251 . S
O225 C209 1.251 . S
O225 Eu211 2.374 . S
O226 C210 1.257 . S
O226 Eu211 2.473 . S
O227 C210 1.260 . S
O227 Eu211 2.480 . S
O228 Eu211 2.430 . S
O228 C218 1.259 . S
O229 Eu201 2.355 . S
O229 Eu211 2.670 . S
O229 C218 1.270 . S
O230 Eu211 2.394 . S
O230 C219 1.251 . S
O231 Eu201 2.374 . S
O231 C219 1.251 . S
H232 C203 0.931 . S
H233 C204 0.931 . S
H234 C206 0.931 . S
H235 C207 0.931 . S
H236 C213 0.931 . S
H237 C214 0.931 . S
H238 C216 0.931 . S
H239 C217 0.931 . S
C240 Eu241 2.835 1_554 S
C240 C242 1.500 . S
C240 O260 1.257 . S
C240 O261 1.260 1_554 S
Eu241 C240 2.835 1_556 S
Eu241 O260 2.473 1_556 S
Eu241 O261 2.480 . S
Eu241 O262 2.430 1_545 S
Eu241 O263 2.670 1_545 S
Eu241 O264 2.394 1_546 S
Eu241 O269 2.355 1_556 S
Eu241 O271 2.374 . S
C242 C240 1.500 . S
C242 C243 1.377 . S
C242 C247 1.377 . S
C243 C242 1.377 . S
C243 C244 1.395 . S
C243 H272 0.931 1_554 S
C244 C243 1.395 . S
C244 C245 1.383 . S
C244 H273 0.931 . S
C245 C244 1.383 . S
C245 C246 1.394 . S
C246 C245 1.394 . S
C246 C247 1.378 . S
C246 H274 0.931 . S
C247 C242 1.377 . S
C247 C246 1.378 . S
C247 H275 0.931 . S
C248 O262 1.259 . S
C248 O263 1.270 . S
C249 O264 1.251 . S
C249 O265 1.251 . S
C250 Eu251 2.835 1_556 S
C250 C252 1.500 . S
C250 O266 1.257 . S
C250 O267 1.260 1_556 S
Eu251 C250 2.835 1_554 S
Eu251 O263 2.355 1_554 S
Eu251 O265 2.374 . S
Eu251 O266 2.473 1_554 S
Eu251 O267 2.480 . S
Eu251 O268 2.430 1_565 S
Eu251 O269 2.670 1_565 S
Eu251 O270 2.394 1_564 S
C252 C250 1.500 . S
C252 C253 1.377 . S
C252 C257 1.377 . S
C253 C252 1.377 . S
C253 C254 1.395 . S
C253 H276 0.931 1_556 S
C254 C253 1.395 . S
C254 C255 1.383 . S
C254 H277 0.931 . S
C255 C254 1.383 . S
C255 C256 1.394 . S
C256 C255 1.394 . S
C256 C257 1.378 . S
C256 H278 0.931 . S
C257 C252 1.377 . S
C257 C256 1.378 . S
C257 H279 0.931 . S
C258 O268 1.259 . S
C258 O269 1.270 . S
C259 O270 1.251 . S
C259 O271 1.251 . S
O260 C240 1.257 . S
O260 Eu241 2.473 1_554 S
O261 C240 1.260 1_556 S
O261 Eu241 2.480 . S
O262 Eu241 2.430 1_565 S
O262 C248 1.259 . S
O263 Eu241 2.670 1_565 S
O263 C248 1.270 . S
O263 Eu251 2.355 1_556 S
O264 Eu241 2.394 1_564 S
O264 C249 1.251 . S
O265 C249 1.251 . S
O265 Eu251 2.374 . S
O266 C250 1.257 . S
O266 Eu251 2.473 1_556 S
O267 C250 1.260 1_554 S
O267 Eu251 2.480 . S
O268 Eu251 2.430 1_545 S
O268 C258 1.259 . S
O269 Eu241 2.355 1_554 S
O269 Eu251 2.670 1_545 S
O269 C258 1.270 . S
O270 Eu251 2.394 1_546 S
O270 C259 1.251 . S
O271 Eu241 2.374 . S
O271 C259 1.251 . S
H272 C243 0.931 1_556 S
H273 C244 0.931 . S
H274 C246 0.931 . S
H275 C247 0.931 . S
H276 C253 0.931 1_554 S
H277 C254 0.931 . S
H278 C256 0.931 . S
H279 C257 0.931 . S
C280 Eu281 2.835 . S
C280 C282 1.500 . S
C280 O300 1.257 . S
C280 O301 1.260 . S
Eu281 C280 2.835 . S
Eu281 O300 2.473 . S
Eu281 O301 2.480 . S
Eu281 O302 2.430 . S
Eu281 O303 2.670 . S
Eu281 O304 2.394 . S
Eu281 O309 2.355 . S
Eu281 O311 2.374 . S
C282 C280 1.500 . S
C282 C283 1.377 . S
C282 C287 1.377 . S
C283 C282 1.377 . S
C283 C284 1.395 . S
C283 H312 0.931 . S
C284 C283 1.395 . S
C284 C285 1.383 . S
C284 H313 0.931 . S
C285 C284 1.383 . S
C285 C286 1.394 . S
C286 C285 1.394 . S
C286 C287 1.378 . S
C286 H314 0.931 . S
C287 C282 1.377 . S
C287 C286 1.378 . S
C287 H315 0.931 . S
C288 O302 1.259 . S
C288 O303 1.270 . S
C289 O304 1.251 . S
C289 O305 1.251 . S
C290 Eu291 2.835 . S
C290 C292 1.500 . S
C290 O306 1.257 . S
C290 O307 1.260 . S
Eu291 C290 2.835 . S
Eu291 O303 2.355 . S
Eu291 O305 2.374 . S
Eu291 O306 2.473 . S
Eu291 O307 2.480 . S
Eu291 O308 2.430 . S
Eu291 O309 2.670 . S
Eu291 O310 2.394 . S
C292 C290 1.500 . S
C292 C293 1.377 . S
C292 C297 1.377 . S
C293 C292 1.377 . S
C293 C294 1.395 . S
C293 H316 0.931 . S
C294 C293 1.395 . S
C294 C295 1.383 . S
C294 H317 0.931 . S
C295 C294 1.383 . S
C295 C296 1.394 . S
C296 C295 1.394 . S
C296 C297 1.378 . S
C296 H318 0.931 . S
C297 C292 1.377 . S
C297 C296 1.378 . S
C297 H319 0.931 . S
C298 O308 1.259 . S
C298 O309 1.270 . S
C299 O310 1.251 . S
C299 O311 1.251 . S
O300 C280 1.257 . S
O300 Eu281 2.473 . S
O301 C280 1.260 . S
O301 Eu281 2.480 . S
O302 Eu281 2.430 . S
O302 C288 1.259 . S
O303 Eu281 2.670 . S
O303 C288 1.270 . S
O303 Eu291 2.355 . S
O304 Eu281 2.394 . S
O304 C289 1.251 . S
O305 C289 1.251 . S
O305 Eu291 2.374 . S
O306 C290 1.257 . S
O306 Eu291 2.473 . S
O307 C290 1.260 . S
O307 Eu291 2.480 . S
O308 Eu291 2.430 . S
O308 C298 1.259 . S
O309 Eu281 2.355 . S
O309 Eu291 2.670 . S
O309 C298 1.270 . S
O310 Eu291 2.394 . S
O310 C299 1.251 . S
O311 Eu281 2.374 . S
O311 C299 1.251 . S
H312 C283 0.931 . S
H313 C284 0.931 . S
H314 C286 0.931 . S
H315 C287 0.931 . S
H316 C293 0.931 . S
H317 C294 0.931 . S
H318 C296 0.931 . S
H319 C297 0.931 . S
C320 Eu321 2.835 . S
C320 C322 1.500 . S
C320 O340 1.257 . S
C320 O341 1.260 . S
Eu321 C320 2.835 . S
Eu321 O340 2.473 . S
Eu321 O341 2.480 . S
Eu321 O342 2.430 . S
Eu321 O343 2.670 . S
Eu321 O344 2.394 . S
Eu321 O349 2.355 1_556 S
Eu321 O351 2.374 1_556 S
C322 C320 1.500 . S
C322 C323 1.377 . S
C322 C327 1.377 . S
C323 C322 1.377 . S
C323 C324 1.395 . S
C323 H352 0.931 . S
C324 C323 1.395 . S
C324 C325 1.383 . S
C324 H353 0.931 . S
C325 C324 1.383 . S
C325 C326 1.394 . S
C326 C325 1.394 . S
C326 C327 1.378 . S
C326 H354 0.931 . S
C327 C322 1.377 . S
C327 C326 1.378 . S
C327 H355 0.931 . S
C328 O342 1.259 . S
C328 O343 1.270 . S
C329 O344 1.251 . S
C329 O345 1.251 . S
C330 Eu331 2.835 . S
C330 C332 1.500 . S
C330 O346 1.257 . S
C330 O347 1.260 . S
Eu331 C330 2.835 . S
Eu331 O343 2.355 1_554 S
Eu331 O345 2.374 1_554 S
Eu331 O346 2.473 . S
Eu331 O347 2.480 . S
Eu331 O348 2.430 . S
Eu331 O349 2.670 . S
Eu331 O350 2.394 . S
C332 C330 1.500 . S
C332 C333 1.377 . S
C332 C337 1.377 . S
C333 C332 1.377 . S
C333 C334 1.395 . S
C333 H356 0.931 . S
C334 C333 1.395 . S
C334 C335 1.383 . S
C334 H357 0.931 . S
C335 C334 1.383 . S
C335 C336 1.394 . S
C336 C335 1.394 . S
C336 C337 1.378 . S
C336 H358 0.931 . S
C337 C332 1.377 . S
C337 C336 1.378 . S
C337 H359 0.931 . S
C338 O348 1.259 . S
C338 O349 1.270 . S
C339 O350 1.251 . S
C339 O351 1.251 . S
O340 C320 1.257 . S
O340 Eu321 2.473 . S
O341 C320 1.260 . S
O341 Eu321 2.480 . S
O342 Eu321 2.430 . S
O342 C328 1.259 . S
O343 Eu321 2.670 . S
O343 C328 1.270 . S
O343 Eu331 2.355 1_556 S
O344 Eu321 2.394 . S
O344 C329 1.251 . S
O345 C329 1.251 . S
O345 Eu331 2.374 1_556 S
O346 C330 1.257 . S
O346 Eu331 2.473 . S
O347 C330 1.260 . S
O347 Eu331 2.480 . S
O348 Eu331 2.430 . S
O348 C338 1.259 . S
O349 Eu321 2.355 1_554 S
O349 Eu331 2.670 . S
O349 C338 1.270 . S
O350 Eu331 2.394 . S
O350 C339 1.251 . S
O351 Eu321 2.374 1_554 S
O351 C339 1.251 . S
H352 C323 0.931 . S
H353 C324 0.931 . S
H354 C326 0.931 . S
H355 C327 0.931 . S
H356 C333 0.931 . S
H357 C334 0.931 . S
H358 C336 0.931 . S
H359 C337 0.931 . S
C360 Eu361 2.835 . S
C360 C362 1.500 . S
C360 O380 1.257 . S
C360 O381 1.260 . S
Eu361 C360 2.835 . S
Eu361 O380 2.473 . S
Eu361 O381 2.480 . S
Eu361 O382 2.430 . S
Eu361 O383 2.670 . S
Eu361 O384 2.394 . S
Eu361 O389 2.355 . S
Eu361 O391 2.374 . S
C362 C360 1.500 . S
C362 C363 1.377 . S
C362 C367 1.377 . S
C363 C362 1.377 . S
C363 C364 1.395 . S
C363 H392 0.931 . S
C364 C363 1.395 . S
C364 C365 1.383 . S
C364 H393 0.931 . S
C365 C364 1.383 . S
C365 C366 1.394 . S
C366 C365 1.394 . S
C366 C367 1.378 . S
C366 H394 0.931 . S
C367 C362 1.377 . S
C367 C366 1.378 . S
C367 H395 0.931 . S
C368 O382 1.259 . S
C368 O383 1.270 . S
C369 O384 1.251 . S
C369 O385 1.251 . S
C370 Eu371 2.835 . S
C370 C372 1.500 . S
C370 O386 1.257 . S
C370 O387 1.260 . S
Eu371 C370 2.835 . S
Eu371 O383 2.355 . S
Eu371 O385 2.374 . S
Eu371 O386 2.473 . S
Eu371 O387 2.480 . S
Eu371 O388 2.430 . S
Eu371 O389 2.670 . S
Eu371 O390 2.394 . S
C372 C370 1.500 . S
C372 C373 1.377 . S
C372 C377 1.377 . S
C373 C372 1.377 . S
C373 C374 1.395 . S
C373 H396 0.931 . S
C374 C373 1.395 . S
C374 C375 1.383 . S
C374 H397 0.931 . S
C375 C374 1.383 . S
C375 C376 1.394 . S
C376 C375 1.394 . S
C376 C377 1.378 . S
C376 H398 0.931 . S
C377 C372 1.377 . S
C377 C376 1.378 . S
C377 H399 0.931 . S
C378 O388 1.259 . S
C378 O389 1.270 . S
C379 O390 1.251 . S
C379 O391 1.251 . S
O380 C360 1.257 . S
O380 Eu361 2.473 . S
O381 C360 1.260 . S
O381 Eu361 2.480 . S
O382 Eu361 2.430 . S
O382 C368 1.259 . S
O383 Eu361 2.670 . S
O383 C368 1.270 . S
O383 Eu371 2.355 . S
O384 Eu361 2.394 . S
O384 C369 1.251 . S
O385 C369 1.251 . S
O385 Eu371 2.374 . S
O386 C370 1.257 . S
O386 Eu371 2.473 . S
O387 C370 1.260 . S
O387 Eu371 2.480 . S
O388 Eu371 2.430 . S
O388 C378 1.259 . S
O389 Eu361 2.355 . S
O389 Eu371 2.670 . S
O389 C378 1.270 . S
O390 Eu371 2.394 . S
O390 C379 1.251 . S
O391 Eu361 2.374 . S
O391 C379 1.251 . S
H392 C363 0.931 . S
H393 C364 0.931 . S
H394 C366 0.931 . S
H395 C367 0.931 . S
H396 C373 0.931 . S
H397 C374 0.931 . S
H398 C376 0.931 . S
H399 C377 0.931 . S
C400 Eu401 2.835 . S
C400 C402 1.500 . S
C400 O420 1.257 . S
C400 O421 1.260 . S
Eu401 C400 2.835 . S
Eu401 O420 2.473 . S
Eu401 O421 2.480 . S
Eu401 O422 2.430 . S
Eu401 O423 2.670 . S
Eu401 O424 2.394 . S
Eu401 O429 2.355 1_655 S
Eu401 O431 2.374 1_655 S
C402 C400 1.500 . S
C402 C403 1.377 . S
C402 C407 1.377 . S
C403 C402 1.377 . S
C403 C404 1.395 . S
C403 H432 0.931 . S
C404 C403 1.395 . S
C404 C405 1.383 . S
C404 H433 0.931 . S
C405 C404 1.383 . S
C405 C406 1.394 . S
C406 C405 1.394 . S
C406 C407 1.378 . S
C406 H434 0.931 . S
C407 C402 1.377 . S
C407 C406 1.378 . S
C407 H435 0.931 . S
C408 O422 1.259 . S
C408 O423 1.270 . S
C409 O424 1.251 . S
C409 O425 1.251 . S
C410 Eu411 2.835 . S
C410 C412 1.500 . S
C410 O426 1.257 . S
C410 O427 1.260 . S
Eu411 C410 2.835 . S
Eu411 O423 2.355 1_455 S
Eu411 O425 2.374 1_455 S
Eu411 O426 2.473 . S
Eu411 O427 2.480 . S
Eu411 O428 2.430 . S
Eu411 O429 2.670 . S
Eu411 O430 2.394 . S
C412 C410 1.500 . S
C412 C413 1.377 . S
C412 C417 1.377 . S
C413 C412 1.377 . S
C413 C414 1.395 . S
C413 H436 0.931 . S
C414 C413 1.395 . S
C414 C415 1.383 . S
C414 H437 0.931 . S
C415 C414 1.383 . S
C415 C416 1.394 . S
C416 C415 1.394 . S
C416 C417 1.378 . S
C416 H438 0.931 . S
C417 C412 1.377 . S
C417 C416 1.378 . S
C417 H439 0.931 . S
C418 O428 1.259 . S
C418 O429 1.270 . S
C419 O430 1.251 . S
C419 O431 1.251 . S
O420 C400 1.257 . S
O420 Eu401 2.473 . S
O421 C400 1.260 . S
O421 Eu401 2.480 . S
O422 Eu401 2.430 . S
O422 C408 1.259 . S
O423 Eu401 2.670 . S
O423 C408 1.270 . S
O423 Eu411 2.355 1_655 S
O424 Eu401 2.394 . S
O424 C409 1.251 . S
O425 C409 1.251 . S
O425 Eu411 2.374 1_655 S
O426 C410 1.257 . S
O426 Eu411 2.473 . S
O427 C410 1.260 . S
O427 Eu411 2.480 . S
O428 Eu411 2.430 . S
O428 C418 1.259 . S
O429 Eu401 2.355 1_455 S
O429 Eu411 2.670 . S
O429 C418 1.270 . S
O430 Eu411 2.394 . S
O430 C419 1.251 . S
O431 Eu401 2.374 1_455 S
O431 C419 1.251 . S
H432 C403 0.931 . S
H433 C404 0.931 . S
H434 C406 0.931 . S
H435 C407 0.931 . S
H436 C413 0.931 . S
H437 C414 0.931 . S
H438 C416 0.931 . S
H439 C417 0.931 . S
C440 Eu441 2.835 . S
C440 C442 1.500 . S
C440 O460 1.257 . S
C440 O461 1.260 . S
Eu441 C440 2.835 . S
Eu441 O460 2.473 . S
Eu441 O461 2.480 . S
Eu441 O462 2.430 . S
Eu441 O463 2.670 . S
Eu441 O464 2.394 . S
Eu441 O469 2.355 . S
Eu441 O471 2.374 . S
C442 C440 1.500 . S
C442 C443 1.377 . S
C442 C447 1.377 . S
C443 C442 1.377 . S
C443 C444 1.395 . S
C443 H472 0.931 . S
C444 C443 1.395 . S
C444 C445 1.383 . S
C444 H473 0.931 . S
C445 C444 1.383 . S
C445 C446 1.394 . S
C446 C445 1.394 . S
C446 C447 1.378 . S
C446 H474 0.931 . S
C447 C442 1.377 . S
C447 C446 1.378 . S
C447 H475 0.931 . S
C448 O462 1.259 . S
C448 O463 1.270 . S
C449 O464 1.251 . S
C449 O465 1.251 . S
C450 Eu451 2.835 . S
C450 C452 1.500 . S
C450 O466 1.257 . S
C450 O467 1.260 . S
Eu451 C450 2.835 . S
Eu451 O463 2.355 . S
Eu451 O465 2.374 . S
Eu451 O466 2.473 . S
Eu451 O467 2.480 . S
Eu451 O468 2.430 . S
Eu451 O469 2.670 . S
Eu451 O470 2.394 . S
C452 C450 1.500 . S
C452 C453 1.377 . S
C452 C457 1.377 . S
C453 C452 1.377 . S
C453 C454 1.395 . S
C453 H476 0.931 . S
C454 C453 1.395 . S
C454 C455 1.383 . S
C454 H477 0.931 . S
C455 C454 1.383 . S
C455 C456 1.394 . S
C456 C455 1.394 . S
C456 C457 1.378 . S
C456 H478 0.931 . S
C457 C452 1.377 . S
C457 C456 1.378 . S
C457 H479 0.931 . S
C458 O468 1.259 . S
C458 O469 1.270 . S
C459 O470 1.251 . S
C459 O471 1.251 . S
O460 C440 1.257 . S
O460 Eu441 2.473 . S
O461 C440 1.260 . S
O461 Eu441 2.480 . S
O462 Eu441 2.430 . S
O462 C448 1.259 . S
O463 Eu441 2.670 . S
O463 C448 1.270 . S
O463 Eu451 2.355 . S
O464 Eu441 2.394 . S
O464 C449 1.251 . S
O465 C449 1.251 . S
O465 Eu451 2.374 . S
O466 C450 1.257 . S
O466 Eu451 2.473 . S
O467 C450 1.260 . S
O467 Eu451 2.480 . S
O468 Eu451 2.430 . S
O468 C458 1.259 . S
O469 Eu441 2.355 . S
O469 Eu451 2.670 . S
O469 C458 1.270 . S
O470 Eu451 2.394 . S
O470 C459 1.251 . S
O471 Eu441 2.374 . S
O471 C459 1.251 . S
H472 C443 0.931 . S
H473 C444 0.931 . S
H474 C446 0.931 . S
H475 C447 0.931 . S
H476 C453 0.931 . S
H477 C454 0.931 . S
H478 C456 0.931 . S
H479 C457 0.931 . S
C480 Eu481 2.835 . S
C480 C482 1.500 . S
C480 O500 1.257 . S
C480 O501 1.260 . S
Eu481 C480 2.835 . S
Eu481 O500 2.473 . S
Eu481 O501 2.480 . S
Eu481 O502 2.430 . S
Eu481 O503 2.670 . S
Eu481 O504 2.394 . S
Eu481 O509 2.355 . S
Eu481 O511 2.374 . S
C482 C480 1.500 . S
C482 C483 1.377 . S
C482 C487 1.377 . S
C483 C482 1.377 . S
C483 C484 1.395 . S
C483 H512 0.931 . S
C484 C483 1.395 . S
C484 C485 1.383 . S
C484 H513 0.931 . S
C485 C484 1.383 . S
C485 C486 1.394 . S
C486 C485 1.394 . S
C486 C487 1.378 . S
C486 H514 0.931 . S
C487 C482 1.377 . S
C487 C486 1.378 . S
C487 H515 0.931 . S
C488 O502 1.259 . S
C488 O503 1.270 . S
C489 O504 1.251 . S
C489 O505 1.251 . S
C490 Eu491 2.835 . S
C490 C492 1.500 . S
C490 O506 1.257 . S
C490 O507 1.260 . S
Eu491 C490 2.835 . S
Eu491 O503 2.355 . S
Eu491 O505 2.374 . S
Eu491 O506 2.473 . S
Eu491 O507 2.480 . S
Eu491 O508 2.430 . S
Eu491 O509 2.670 . S
Eu491 O510 2.394 . S
C492 C490 1.500 . S
C492 C493 1.377 . S
C492 C497 1.377 . S
C493 C492 1.377 . S
C493 C494 1.395 . S
C493 H516 0.931 . S
C494 C493 1.395 . S
C494 C495 1.383 . S
C494 H517 0.931 . S
C495 C494 1.383 . S
C495 C496 1.394 . S
C496 C495 1.394 . S
C496 C497 1.378 . S
C496 H518 0.931 . S
C497 C492 1.377 . S
C497 C496 1.378 . S
C497 H519 0.931 . S
C498 O508 1.259 . S
C498 O509 1.270 . S
C499 O510 1.251 . S
C499 O511 1.251 . S
O500 C480 1.257 . S
O500 Eu481 2.473 . S
O501 C480 1.260 . S
O501 Eu481 2.480 . S
O502 Eu481 2.430 . S
O502 C488 1.259 . S
O503 Eu481 2.670 . S
O503 C488 1.270 . S
O503 Eu491 2.355 . S
O504 Eu481 2.394 . S
O504 C489 1.251 . S
O505 C489 1.251 . S
O505 Eu491 2.374 . S
O506 C490 1.257 . S
O506 Eu491 2.473 . S
O507 C490 1.260 . S
O507 Eu491 2.480 . S
O508 Eu491 2.430 . S
O508 C498 1.259 . S
O509 Eu481 2.355 . S
O509 Eu491 2.670 . S
O509 C498 1.270 . S
O510 Eu491 2.394 . S
O510 C499 1.251 . S
O511 Eu481 2.374 . S
O511 C499 1.251 . S
H512 C483 0.931 . S
H513 C484 0.931 . S
H514 C486 0.931 . S
H515 C487 0.931 . S
H516 C493 0.931 . S
H517 C494 0.931 . S
H518 C496 0.931 . S
H519 C497 0.931 . S
C520 Eu521 2.835 . S
C520 C522 1.500 . S
C520 O540 1.257 . S
C520 O541 1.260 . S
Eu521 C520 2.835 . S
Eu521 O540 2.473 . S
Eu521 O541 2.480 . S
Eu521 O542 2.430 . S
Eu521 O543 2.670 . S
Eu521 O544 2.394 . S
Eu521 O549 2.355 . S
Eu521 O551 2.374 . S
C522 C520 1.500 . S
C522 C523 1.377 . S
C522 C527 1.377 . S
C523 C522 1.377 . S
C523 C524 1.395 . S
C523 H552 0.931 . S
C524 C523 1.395 . S
C524 C525 1.383 . S
C524 H553 0.931 . S
C525 C524 1.383 . S
C525 C526 1.394 . S
C526 C525 1.394 . S
C526 C527 1.378 . S
C526 H554 0.931 . S
C527 C522 1.377 . S
C527 C526 1.378 . S
C527 H555 0.931 . S
C528 O542 1.259 . S
C528 O543 1.270 . S
C529 O544 1.251 . S
C529 O545 1.251 . S
C530 Eu531 2.835 . S
C530 C532 1.500 . S
C530 O546 1.257 . S
C530 O547 1.260 . S
Eu531 C530 2.835 . S
Eu531 O543 2.355 . S
Eu531 O545 2.374 . S
Eu531 O546 2.473 . S
Eu531 O547 2.480 . S
Eu531 O548 2.430 . S
Eu531 O549 2.670 . S
Eu531 O550 2.394 . S
C532 C530 1.500 . S
C532 C533 1.377 . S
C532 C537 1.377 . S
C533 C532 1.377 . S
C533 C534 1.395 . S
C533 H556 0.931 . S
C534 C533 1.395 . S
C534 C535 1.383 . S
C534 H557 0.931 . S
C535 C534 1.383 . S
C535 C536 1.394 . S
C536 C535 1.394 . S
C536 C537 1.378 . S
C536 H558 0.931 . S
C537 C532 1.377 . S
C537 C536 1.378 . S
C537 H559 0.931 . S
C538 O548 1.259 . S
C538 O549 1.270 . S
C539 O550 1.251 . S
C539 O551 1.251 . S
O540 C520 1.257 . S
O540 Eu521 2.473 . S
O541 C520 1.260 . S
O541 Eu521 2.480 . S
O542 Eu521 2.430 . S
O542 C528 1.259 . S
O543 Eu521 2.670 . S
O543 C528 1.270 . S
O543 Eu531 2.355 . S
O544 Eu521 2.394 . S
O544 C529 1.251 . S
O545 C529 1.251 . S
O545 Eu531 2.374 . S
O546 C530 1.257 . S
O546 Eu531 2.473 . S
O547 C530 1.260 . S
O547 Eu531 2.480 . S
O548 Eu531 2.430 . S
O548 C538 1.259 . S
O549 Eu521 2.355 . S
O549 Eu531 2.670 . S
O549 C538 1.270 . S
O550 Eu531 2.394 . S
O550 C539 1.251 . S
O551 Eu521 2.374 . S
O551 C539 1.251 . S
H552 C523 0.931 . S
H553 C524 0.931 . S
H554 C526 0.931 . S
H555 C527 0.931 . S
H556 C533 0.931 . S
H557 C534 0.931 . S
H558 C536 0.931 . S
H559 C537 0.931 . S
C560 Eu561 2.835 . S
C560 C562 1.500 . S
C560 O580 1.257 . S
C560 O581 1.260 . S
Eu561 C560 2.835 . S
Eu561 O580 2.473 . S
Eu561 O581 2.480 . S
Eu561 O582 2.430 . S
Eu561 O583 2.670 . S
Eu561 O584 2.394 . S
Eu561 O589 2.355 . S
Eu561 O591 2.374 . S
C562 C560 1.500 . S
C562 C563 1.377 . S
C562 C567 1.377 . S
C563 C562 1.377 . S
C563 C564 1.395 . S
C563 H592 0.931 . S
C564 C563 1.395 . S
C564 C565 1.383 . S
C564 H593 0.931 . S
C565 C564 1.383 . S
C565 C566 1.394 . S
C566 C565 1.394 . S
C566 C567 1.378 . S
C566 H594 0.931 . S
C567 C562 1.377 . S
C567 C566 1.378 . S
C567 H595 0.931 . S
C568 O582 1.259 . S
C568 O583 1.270 . S
C569 O584 1.251 . S
C569 O585 1.251 . S
C570 Eu571 2.835 . S
C570 C572 1.500 . S
C570 O586 1.257 . S
C570 O587 1.260 . S
Eu571 C570 2.835 . S
Eu571 O583 2.355 . S
Eu571 O585 2.374 . S
Eu571 O586 2.473 . S
Eu571 O587 2.480 . S
Eu571 O588 2.430 . S
Eu571 O589 2.670 . S
Eu571 O590 2.394 . S
C572 C570 1.500 . S
C572 C573 1.377 . S
C572 C577 1.377 . S
C573 C572 1.377 . S
C573 C574 1.395 . S
C573 H596 0.931 . S
C574 C573 1.395 . S
C574 C575 1.383 . S
C574 H597 0.931 . S
C575 C574 1.383 . S
C575 C576 1.394 . S
C576 C575 1.394 . S
C576 C577 1.378 . S
C576 H598 0.931 . S
C577 C572 1.377 . S
C577 C576 1.378 . S
C577 H599 0.931 . S
C578 O588 1.259 . S
C578 O589 1.270 . S
C579 O590 1.251 . S
C579 O591 1.251 . S
O580 C560 1.257 . S
O580 Eu561 2.473 . S
O581 C560 1.260 . S
O581 Eu561 2.480 . S
O582 Eu561 2.430 . S
O582 C568 1.259 . S
O583 Eu561 2.670 . S
O583 C568 1.270 . S
O583 Eu571 2.355 . S
O584 Eu561 2.394 . S
O584 C569 1.251 . S
O585 C569 1.251 . S
O585 Eu571 2.374 . S
O586 C570 1.257 . S
O586 Eu571 2.473 . S
O587 C570 1.260 . S
O587 Eu571 2.480 . S
O588 Eu571 2.430 . S
O588 C578 1.259 . S
O589 Eu561 2.355 . S
O589 Eu571 2.670 . S
O589 C578 1.270 . S
O590 Eu571 2.394 . S
O590 C579 1.251 . S
O591 Eu561 2.374 . S
O591 C579 1.251 . S
H592 C563 0.931 . S
H593 C564 0.931 . S
H594 C566 0.931 . S
H595 C567 0.931 . S
H596 C573 0.931 . S
H597 C574 0.931 . S
H598 C576 0.931 . S
H599 C577 0.931 . S
C600 Eu601 2.835 . S
C600 C602 1.500 . S
C600 O620 1.257 . S
C600 O621 1.260 . S
Eu601 C600 2.835 . S
Eu601 O620 2.473 . S
Eu601 O621 2.480 . S
Eu601 O622 2.430 1_556 S
Eu601 O623 2.670 1_556 S
Eu601 O624 2.394 1_556 S
Eu601 O629 2.355 1_455 S
Eu601 O631 2.374 1_455 S
C602 C600 1.500 . S
C602 C603 1.377 . S
C602 C607 1.377 . S
C603 C602 1.377 . S
C603 C604 1.395 . S
C603 H632 0.931 . S
C604 C603 1.395 . S
C604 C605 1.383 . S
C604 H633 0.931 . S
C605 C604 1.383 . S
C605 C606 1.394 . S
C606 C605 1.394 . S
C606 C607 1.378 . S
C606 H634 0.931 . S
C607 C602 1.377 . S
C607 C606 1.378 . S
C607 H635 0.931 . S
C608 O622 1.259 . S
C608 O623 1.270 . S
C609 O624 1.251 . S
C609 O625 1.251 . S
C610 Eu611 2.835 . S
C610 C612 1.500 . S
C610 O626 1.257 . S
C610 O627 1.260 . S
Eu611 C610 2.835 . S
Eu611 O623 2.355 1_655 S
Eu611 O625 2.374 1_655 S
Eu611 O626 2.473 . S
Eu611 O627 2.480 . S
Eu611 O628 2.430 1_554 S
Eu611 O629 2.670 1_554 S
Eu611 O630 2.394 1_554 S
C612 C610 1.500 . S
C612 C613 1.377 . S
C612 C617 1.377 . S
C613 C612 1.377 . S
C613 C614 1.395 . S
C613 H636 0.931 . S
C614 C613 1.395 . S
C614 C615 1.383 . S
C614 H637 0.931 . S
C615 C614 1.383 . S
C615 C616 1.394 . S
C616 C615 1.394 . S
C616 C617 1.378 . S
C616 H638 0.931 . S
C617 C612 1.377 . S
C617 C616 1.378 . S
C617 H639 0.931 . S
C618 O628 1.259 . S
C618 O629 1.270 . S
C619 O630 1.251 . S
C619 O631 1.251 . S
O620 C600 1.257 . S
O620 Eu601 2.473 . S
O621 C600 1.260 . S
O621 Eu601 2.480 . S
O622 Eu601 2.430 1_554 S
O622 C608 1.259 . S
O623 Eu601 2.670 1_554 S
O623 C608 1.270 . S
O623 Eu611 2.355 1_455 S
O624 Eu601 2.394 1_554 S
O624 C609 1.251 . S
O625 C609 1.251 . S
O625 Eu611 2.374 1_455 S
O626 C610 1.257 . S
O626 Eu611 2.473 . S
O627 C610 1.260 . S
O627 Eu611 2.480 . S
O628 Eu611 2.430 1_556 S
O628 C618 1.259 . S
O629 Eu601 2.355 1_655 S
O629 Eu611 2.670 1_556 S
O629 C618 1.270 . S
O630 Eu611 2.394 1_556 S
O630 C619 1.251 . S
O631 Eu601 2.374 1_655 S
O631 C619 1.251 . S
H632 C603 0.931 . S
H633 C604 0.931 . S
H634 C606 0.931 . S
H635 C607 0.931 . S
H636 C613 0.931 . S
H637 C614 0.931 . S
H638 C616 0.931 . S
H639 C617 0.931 . S
H640 C646 0.930 . S
H641 C650 0.930 . S
H642 C655 0.929 . S
H643 C653 0.929 . S
H644 C648 0.929 . S
H645 C654 0.929 . S
C646 H640 0.930 . S
C646 C647 1.367 . S
C646 C654 1.378 . S
C647 C646 1.367 . S
C647 C655 1.433 . S
C648 H644 0.929 . S
C648 C650 1.378 . S
C648 C652 1.350 . S
C649 C652 1.463 . S
C649 C654 1.350 . S
C649 N657 1.427 . S
C650 H641 0.930 . S
C650 C648 1.378 . S
C650 C651 1.367 . S
C651 C650 1.367 . S
C651 C653 1.433 . S
C652 C648 1.350 . S
C652 C649 1.463 . S
C652 N656 1.427 . S
C653 H643 0.929 . S
C653 C651 1.433 . S
C653 N656 1.384 . S
C654 H645 0.929 . S
C654 C646 1.378 . S
C654 C649 1.350 . S
C655 H642 0.929 . S
C655 C647 1.433 . S
C655 N657 1.384 . S
N656 C652 1.427 . S
N656 C653 1.384 . S
N657 C649 1.427 . S
N657 C655 1.384 . S
H658 C664 0.930 . S
H659 C668 0.930 . S
H660 C673 0.929 . S
H661 C671 0.929 . S
H662 C666 0.929 . S
H663 C672 0.929 . S
C664 H658 0.930 . S
C664 C665 1.367 . S
C664 C672 1.378 . S
C665 C664 1.367 . S
C665 C673 1.433 . S
C666 H662 0.929 . S
C666 C668 1.378 . S
C666 C670 1.350 . S
C667 C670 1.463 . S
C667 C672 1.350 . S
C667 N675 1.427 . S
C668 H659 0.930 . S
C668 C666 1.378 . S
C668 C669 1.367 . S
C669 C668 1.367 . S
C669 C671 1.433 . S
C670 C666 1.350 . S
C670 C667 1.463 . S
C670 N674 1.427 . S
C671 H661 0.929 . S
C671 C669 1.433 . S
C671 N674 1.384 . S
C672 H663 0.929 . S
C672 C664 1.378 . S
C672 C667 1.350 . S
C673 H660 0.929 . S
C673 C665 1.433 . S
C673 N675 1.384 . S
N674 C670 1.427 . S
N674 C671 1.384 . S
N675 C667 1.427 . S
N675 C673 1.384 . S
H676 C682 0.930 . S
H677 C686 0.930 . S
H678 C691 0.929 . S
H679 C689 0.929 . S
H680 C684 0.929 . S
H681 C690 0.929 . S
C682 H676 0.930 . S
C682 C683 1.367 . S
C682 C690 1.378 . S
C683 C682 1.367 . S
C683 C691 1.433 . S
C684 H680 0.929 . S
C684 C686 1.378 . S
C684 C688 1.350 . S
C685 C688 1.463 . S
C685 C690 1.350 . S
C685 N693 1.427 . S
C686 H677 0.930 . S
C686 C684 1.378 . S
C686 C687 1.367 . S
C687 C686 1.367 . S
C687 C689 1.433 . S
C688 C684 1.350 . S
C688 C685 1.463 . S
C688 N692 1.427 . S
C689 H679 0.929 . S
C689 C687 1.433 . S
C689 N692 1.384 . S
C690 H681 0.929 . S
C690 C682 1.378 . S
C690 C685 1.350 . S
C691 H678 0.929 . S
C691 C683 1.433 . S
C691 N693 1.384 . S
N692 C688 1.427 . S
N692 C689 1.384 . S
N693 C685 1.427 . S
N693 C691 1.384 . S
H694 C700 0.930 . S
H695 C704 0.930 . S
H696 C709 0.929 . S
H697 C707 0.929 . S
H698 C702 0.929 . S
H699 C708 0.929 . S
C700 H694 0.930 . S
C700 C701 1.367 . S
C700 C708 1.378 . S
C701 C700 1.367 . S
C701 C709 1.433 . S
C702 H698 0.929 . S
C702 C704 1.378 . S
C702 C706 1.350 . S
C703 C706 1.463 . S
C703 C708 1.350 . S
C703 N711 1.427 . S
C704 H695 0.930 . S
C704 C702 1.378 . S
C704 C705 1.367 . S
C705 C704 1.367 . S
C705 C707 1.433 . S
C706 C702 1.350 . S
C706 C703 1.463 . S
C706 N710 1.427 . S
C707 H697 0.929 . S
C707 C705 1.433 . S
C707 N710 1.384 . S
C708 H699 0.929 . S
C708 C700 1.378 . S
C708 C703 1.350 . S
C709 H696 0.929 . S
C709 C701 1.433 . S
C709 N711 1.384 . S
N710 C706 1.427 . S
N710 C707 1.384 . S
N711 C703 1.427 . S
N711 C709 1.384 . S
H712 C718 0.930 . S
H713 C722 0.930 . S
H714 C727 0.929 1_655 S
H715 C725 0.929 . S
H716 C720 0.929 . S
H717 C726 0.929 . S
C718 H712 0.930 . S
C718 C719 1.367 . S
C718 C726 1.378 . S
C719 C718 1.367 . S
C719 C727 1.433 . S
C720 H716 0.929 . S
C720 C722 1.378 . S
C720 C724 1.350 . S
C721 C724 1.463 . S
C721 C726 1.350 . S
C721 N729 1.427 . S
C722 H713 0.930 . S
C722 C720 1.378 . S
C722 C723 1.367 . S
C723 C722 1.367 . S
C723 C725 1.433 . S
C724 C720 1.350 . S
C724 C721 1.463 . S
C724 N728 1.427 . S
C725 H715 0.929 . S
C725 C723 1.433 . S
C725 N728 1.384 . S
C726 H717 0.929 . S
C726 C718 1.378 . S
C726 C721 1.350 . S
C727 H714 0.929 1_455 S
C727 C719 1.433 . S
C727 N729 1.384 . S
N728 C724 1.427 . S
N728 C725 1.384 . S
N729 C721 1.427 . S
N729 C727 1.384 . S
H730 C736 0.930 . S
H731 C740 0.930 . S
H732 C745 0.929 . S
H733 C743 0.929 . S
H734 C738 0.929 . S
H735 C744 0.929 . S
C736 H730 0.930 . S
C736 C737 1.367 . S
C736 C744 1.378 . S
C737 C736 1.367 . S
C737 C745 1.433 . S
C738 H734 0.929 . S
C738 C740 1.378 . S
C738 C742 1.350 . S
C739 C742 1.463 . S
C739 C744 1.350 . S
C739 N747 1.427 . S
C740 H731 0.930 . S
C740 C738 1.378 . S
C740 C741 1.367 . S
C741 C740 1.367 . S
C741 C743 1.433 . S
C742 C738 1.350 . S
C742 C739 1.463 . S
C742 N746 1.427 . S
C743 H733 0.929 . S
C743 C741 1.433 . S
C743 N746 1.384 . S
C744 H735 0.929 . S
C744 C736 1.378 . S
C744 C739 1.350 . S
C745 H732 0.929 . S
C745 C737 1.433 . S
C745 N747 1.384 . S
N746 C742 1.427 . S
N746 C743 1.384 . S
N747 C739 1.427 . S
N747 C745 1.384 . S
H748 C754 0.930 . S
H749 C758 0.930 . S
H750 C763 0.929 . S
H751 C761 0.929 . S
H752 C756 0.929 . S
H753 C762 0.929 . S
C754 H748 0.930 . S
C754 C755 1.367 . S
C754 C762 1.378 . S
C755 C754 1.367 . S
C755 C763 1.433 . S
C756 H752 0.929 . S
C756 C758 1.378 . S
C756 C760 1.350 . S
C757 C760 1.463 . S
C757 C762 1.350 . S
C757 N765 1.427 . S
C758 H749 0.930 . S
C758 C756 1.378 . S
C758 C759 1.367 . S
C759 C758 1.367 . S
C759 C761 1.433 . S
C760 C756 1.350 . S
C760 C757 1.463 . S
C760 N764 1.427 . S
C761 H751 0.929 . S
C761 C759 1.433 . S
C761 N764 1.384 . S
C762 H753 0.929 . S
C762 C754 1.378 . S
C762 C757 1.350 . S
C763 H750 0.929 . S
C763 C755 1.433 . S
C763 N765 1.384 . S
N764 C760 1.427 . S
N764 C761 1.384 . S
N765 C757 1.427 . S
N765 C763 1.384 . S
H766 C772 0.930 . S
H767 C776 0.930 . S
H768 C781 0.929 . S
H769 C779 0.929 . S
H770 C774 0.929 . S
H771 C780 0.929 . S
C772 H766 0.930 . S
C772 C773 1.367 . S
C772 C780 1.378 . S
C773 C772 1.367 . S
C773 C781 1.433 . S
C774 H770 0.929 . S
C774 C776 1.378 . S
C774 C778 1.350 . S
C775 C778 1.463 . S
C775 C780 1.350 . S
C775 N783 1.427 . S
C776 H767 0.930 . S
C776 C774 1.378 . S
C776 C777 1.367 . S
C777 C776 1.367 . S
C777 C779 1.433 . S
C778 C774 1.350 . S
C778 C775 1.463 . S
C778 N782 1.427 . S
C779 H769 0.929 . S
C779 C777 1.433 . S
C779 N782 1.384 . S
C780 H771 0.929 . S
C780 C772 1.378 . S
C780 C775 1.350 . S
C781 H768 0.929 . S
C781 C773 1.433 . S
C781 N783 1.384 . S
N782 C778 1.427 . S
N782 C779 1.384 . S
N783 C775 1.427 . S
N783 C781 1.384 . S
H784 C790 0.930 . S
H785 C794 0.930 . S
H786 C799 0.929 . S
H787 C797 0.929 . S
H788 C792 0.929 . S
H789 C798 0.929 . S
C790 H784 0.930 . S
C790 C791 1.367 . S
C790 C798 1.378 . S
C791 C790 1.367 . S
C791 C799 1.433 . S
C792 H788 0.929 . S
C792 C794 1.378 . S
C792 C796 1.350 . S
C793 C796 1.463 . S
C793 C798 1.350 . S
C793 N801 1.427 . S
C794 H785 0.930 . S
C794 C792 1.378 . S
C794 C795 1.367 . S
C795 C794 1.367 . S
C795 C797 1.433 . S
C796 C792 1.350 . S
C796 C793 1.463 . S
C796 N800 1.427 . S
C797 H787 0.929 . S
C797 C795 1.433 . S
C797 N800 1.384 . S
C798 H789 0.929 . S
C798 C790 1.378 . S
C798 C793 1.350 . S
C799 H786 0.929 . S
C799 C791 1.433 . S
C799 N801 1.384 . S
N800 C796 1.427 . S
N800 C797 1.384 . S
N801 C793 1.427 . S
N801 C799 1.384 . S
H802 C808 0.930 . S
H803 C812 0.930 . S
H804 C817 0.929 . S
H805 C815 0.929 . S
H806 C810 0.929 . S
H807 C816 0.929 . S
C808 H802 0.930 . S
C808 C809 1.367 . S
C808 C816 1.378 . S
C809 C808 1.367 . S
C809 C817 1.433 . S
C810 H806 0.929 . S
C810 C812 1.378 . S
C810 C814 1.350 . S
C811 C814 1.463 . S
C811 C816 1.350 . S
C811 N819 1.427 . S
C812 H803 0.930 . S
C812 C810 1.378 . S
C812 C813 1.367 . S
C813 C812 1.367 . S
C813 C815 1.433 . S
C814 C810 1.350 . S
C814 C811 1.463 . S
C814 N818 1.427 . S
C815 H805 0.929 . S
C815 C813 1.433 . S
C815 N818 1.384 . S
C816 H807 0.929 . S
C816 C808 1.378 . S
C816 C811 1.350 . S
C817 H804 0.929 . S
C817 C809 1.433 . S
C817 N819 1.384 . S
N818 C814 1.427 . S
N818 C815 1.384 . S
N819 C811 1.427 . S
N819 C817 1.384 . S
H820 C826 0.930 . S
H821 C830 0.930 . S
H822 C835 0.929 . S
H823 C833 0.929 . S
H824 C828 0.929 . S
H825 C834 0.929 . S
C826 H820 0.930 . S
C826 C827 1.367 . S
C826 C834 1.378 . S
C827 C826 1.367 . S
C827 C835 1.433 . S
C828 H824 0.929 . S
C828 C830 1.378 . S
C828 C832 1.350 . S
C829 C832 1.463 . S
C829 C834 1.350 . S
C829 N837 1.427 . S
C830 H821 0.930 . S
C830 C828 1.378 . S
C830 C831 1.367 . S
C831 C830 1.367 . S
C831 C833 1.433 . S
C832 C828 1.350 . S
C832 C829 1.463 . S
C832 N836 1.427 . S
C833 H823 0.929 . S
C833 C831 1.433 . S
C833 N836 1.384 . S
C834 H825 0.929 . S
C834 C826 1.378 . S
C834 C829 1.350 . S
C835 H822 0.929 . S
C835 C827 1.433 . S
C835 N837 1.384 . S
N836 C832 1.427 . S
N836 C833 1.384 . S
N837 C829 1.427 . S
N837 C835 1.384 . S
H838 C844 0.930 . S
H839 C848 0.930 . S
H840 C853 0.929 . S
H841 C851 0.929 . S
H842 C846 0.929 . S
H843 C852 0.929 . S
C844 H838 0.930 . S
C844 C845 1.367 . S
C844 C852 1.378 . S
C845 C844 1.367 . S
C845 C853 1.433 . S
C846 H842 0.929 . S
C846 C848 1.378 . S
C846 C850 1.350 . S
C847 C850 1.463 . S
C847 C852 1.350 . S
C847 N855 1.427 . S
C848 H839 0.930 . S
C848 C846 1.378 . S
C848 C849 1.367 . S
C849 C848 1.367 . S
C849 C851 1.433 . S
C850 C846 1.350 . S
C850 C847 1.463 . S
C850 N854 1.427 . S
C851 H841 0.929 . S
C851 C849 1.433 . S
C851 N854 1.384 . S
C852 H843 0.929 . S
C852 C844 1.378 . S
C852 C847 1.350 . S
C853 H840 0.929 . S
C853 C845 1.433 . S
C853 N855 1.384 . S
N854 C850 1.427 . S
N854 C851 1.384 . S
N855 C847 1.427 . S
N855 C853 1.384 . S
H856 C862 0.930 . S
H857 C866 0.930 . S
H858 C871 0.929 . S
H859 C869 0.929 . S
H860 C864 0.929 . S
H861 C870 0.929 . S
C862 H856 0.930 . S
C862 C863 1.367 . S
C862 C870 1.378 . S
C863 C862 1.367 . S
C863 C871 1.433 . S
C864 H860 0.929 . S
C864 C866 1.378 . S
C864 C868 1.350 . S
C865 C868 1.463 . S
C865 C870 1.350 . S
C865 N873 1.427 . S
C866 H857 0.930 . S
C866 C864 1.378 . S
C866 C867 1.367 . S
C867 C866 1.367 . S
C867 C869 1.433 . S
C868 C864 1.350 . S
C868 C865 1.463 . S
C868 N872 1.427 . S
C869 H859 0.929 . S
C869 C867 1.433 . S
C869 N872 1.384 . S
C870 H861 0.929 . S
C870 C862 1.378 . S
C870 C865 1.350 . S
C871 H858 0.929 . S
C871 C863 1.433 . S
C871 N873 1.384 . S
N872 C868 1.427 . S
N872 C869 1.384 . S
N873 C865 1.427 . S
N873 C871 1.384 . S
H874 C880 0.930 . S
H875 C884 0.930 . S
H876 C889 0.929 . S
H877 C887 0.929 . S
H878 C882 0.929 . S
H879 C888 0.929 . S
C880 H874 0.930 . S
C880 C881 1.367 . S
C880 C888 1.378 . S
C881 C880 1.367 . S
C881 C889 1.433 . S
C882 H878 0.929 . S
C882 C884 1.378 . S
C882 C886 1.350 . S
C883 C886 1.463 . S
C883 C888 1.350 . S
C883 N891 1.427 . S
C884 H875 0.930 . S
C884 C882 1.378 . S
C884 C885 1.367 . S
C885 C884 1.367 . S
C885 C887 1.433 . S
C886 C882 1.350 . S
C886 C883 1.463 . S
C886 N890 1.427 . S
C887 H877 0.929 . S
C887 C885 1.433 . S
C887 N890 1.384 . S
C888 H879 0.929 . S
C888 C880 1.378 . S
C888 C883 1.350 . S
C889 H876 0.929 . S
C889 C881 1.433 . S
C889 N891 1.384 . S
N890 C886 1.427 . S
N890 C887 1.384 . S
N891 C883 1.427 . S
N891 C889 1.384 . S
H892 C898 0.930 . S
H893 C902 0.930 . S
H894 C907 0.929 . S
H895 C905 0.929 . S
H896 C900 0.929 . S
H897 C906 0.929 . S
C898 H892 0.930 . S
C898 C899 1.367 . S
C898 C906 1.378 . S
C899 C898 1.367 . S
C899 C907 1.433 . S
C900 H896 0.929 . S
C900 C902 1.378 . S
C900 C904 1.350 . S
C901 C904 1.463 . S
C901 C906 1.350 . S
C901 N909 1.427 . S
C902 H893 0.930 . S
C902 C900 1.378 . S
C902 C903 1.367 . S
C903 C902 1.367 . S
C903 C905 1.433 . S
C904 C900 1.350 . S
C904 C901 1.463 . S
C904 N908 1.427 . S
C905 H895 0.929 . S
C905 C903 1.433 . S
C905 N908 1.384 . S
C906 H897 0.929 . S
C906 C898 1.378 . S
C906 C901 1.350 . S
C907 H894 0.929 . S
C907 C899 1.433 . S
C907 N909 1.384 . S
N908 C904 1.427 . S
N908 C905 1.384 . S
N909 C901 1.427 . S
N909 C907 1.384 . S
H910 C916 0.930 . S
H911 C920 0.930 . S
H912 C925 0.929 . S
H913 C923 0.929 . S
H914 C918 0.929 . S
H915 C924 0.929 . S
C916 H910 0.930 . S
C916 C917 1.367 . S
C916 C924 1.378 . S
C917 C916 1.367 . S
C917 C925 1.433 . S
C918 H914 0.929 . S
C918 C920 1.378 . S
C918 C922 1.350 . S
C919 C922 1.463 . S
C919 C924 1.350 . S
C919 N927 1.427 . S
C920 H911 0.930 . S
C920 C918 1.378 . S
C920 C921 1.367 . S
C921 C920 1.367 . S
C921 C923 1.433 . S
C922 C918 1.350 . S
C922 C919 1.463 . S
C922 N926 1.427 . S
C923 H913 0.929 . S
C923 C921 1.433 . S
C923 N926 1.384 . S
C924 H915 0.929 . S
C924 C916 1.378 . S
C924 C919 1.350 . S
C925 H912 0.929 . S
C925 C917 1.433 . S
C925 N927 1.384 . S
N926 C922 1.427 . S
N926 C923 1.384 . S
N927 C919 1.427 . S
N927 C925 1.384 . S
H928 C934 0.930 . S
H929 C938 0.930 . S
H930 C943 0.929 . S
H931 C941 0.929 . S
H932 C936 0.929 . S
H933 C942 0.929 . S
C934 H928 0.930 . S
C934 C935 1.367 . S
C934 C942 1.378 . S
C935 C934 1.367 . S
C935 C943 1.433 . S
C936 H932 0.929 . S
C936 C938 1.378 . S
C936 C940 1.350 . S
C937 C940 1.463 . S
C937 C942 1.350 . S
C937 N945 1.427 . S
C938 H929 0.930 . S
C938 C936 1.378 . S
C938 C939 1.367 . S
C939 C938 1.367 . S
C939 C941 1.433 . S
C940 C936 1.350 . S
C940 C937 1.463 . S
C940 N944 1.427 . S
C941 H931 0.929 . S
C941 C939 1.433 . S
C941 N944 1.384 . S
C942 H933 0.929 . S
C942 C934 1.378 . S
C942 C937 1.350 . S
C943 H930 0.929 . S
C943 C935 1.433 . S
C943 N945 1.384 . S
N944 C940 1.427 . S
N944 C941 1.384 . S
N945 C937 1.427 . S
N945 C943 1.384 . S
H946 C952 0.930 . S
H947 C956 0.930 . S
H948 C961 0.929 . S
H949 C959 0.929 . S
H950 C954 0.929 . S
H951 C960 0.929 . S
C952 H946 0.930 . S
C952 C953 1.367 . S
C952 C960 1.378 . S
C953 C952 1.367 . S
C953 C961 1.433 . S
C954 H950 0.929 . S
C954 C956 1.378 . S
C954 C958 1.350 . S
C955 C958 1.463 . S
C955 C960 1.350 . S
C955 N963 1.427 . S
C956 H947 0.930 . S
C956 C954 1.378 . S
C956 C957 1.367 . S
C957 C956 1.367 . S
C957 C959 1.433 . S
C958 C954 1.350 . S
C958 C955 1.463 . S
C958 N962 1.427 . S
C959 H949 0.929 . S
C959 C957 1.433 . S
C959 N962 1.384 . S
C960 H951 0.929 . S
C960 C952 1.378 . S
C960 C955 1.350 . S
C961 H948 0.929 . S
C961 C953 1.433 . S
C961 N963 1.384 . S
N962 C958 1.427 . S
N962 C959 1.384 . S
N963 C955 1.427 . S
N963 C961 1.384 . S
H964 C970 0.930 . S
H965 C974 0.930 . S
H966 C979 0.929 . S
H967 C977 0.929 . S
H968 C972 0.929 . S
H969 C978 0.929 . S
C970 H964 0.930 . S
C970 C971 1.367 . S
C970 C978 1.378 . S
C971 C970 1.367 . S
C971 C979 1.433 . S
C972 H968 0.929 . S
C972 C974 1.378 . S
C972 C976 1.350 . S
C973 C976 1.463 . S
C973 C978 1.350 . S
C973 N981 1.427 . S
C974 H965 0.930 . S
C974 C972 1.378 . S
C974 C975 1.367 . S
C975 C974 1.367 . S
C975 C977 1.433 . S
C976 C972 1.350 . S
C976 C973 1.463 . S
C976 N980 1.427 . S
C977 H967 0.929 . S
C977 C975 1.433 . S
C977 N980 1.384 . S
C978 H969 0.929 . S
C978 C970 1.378 . S
C978 C973 1.350 . S
C979 H966 0.929 . S
C979 C971 1.433 . S
C979 N981 1.384 . S
N980 C976 1.427 . S
N980 C977 1.384 . S
N981 C973 1.427 . S
N981 C979 1.384 . S
H982 C988 0.930 . S
H983 C992 0.930 . S
H984 C997 0.929 . S
H985 C995 0.929 . S
H986 C990 0.929 . S
H987 C996 0.929 . S
C988 H982 0.930 . S
C988 C989 1.367 . S
C988 C996 1.378 . S
C989 C988 1.367 . S
C989 C997 1.433 . S
C990 H986 0.929 . S
C990 C992 1.378 . S
C990 C994 1.350 . S
C991 C994 1.463 . S
C991 C996 1.350 . S
C991 N999 1.427 . S
C992 H983 0.930 . S
C992 C990 1.378 . S
C992 C993 1.367 . S
C993 C992 1.367 . S
C993 C995 1.433 . S
C994 C990 1.350 . S
C994 C991 1.463 . S
C994 N998 1.427 . S
C995 H985 0.929 . S
C995 C993 1.433 . S
C995 N998 1.384 . S
C996 H987 0.929 . S
C996 C988 1.378 . S
C996 C991 1.350 . S
C997 H984 0.929 . S
C997 C989 1.433 . S
C997 N999 1.384 . S
N998 C994 1.427 . S
N998 C995 1.384 . S
N999 C991 1.427 . S
N999 C997 1.384 . S
H1000 C1006 0.930 . S
H1001 C1010 0.930 . S
H1002 C1015 0.929 . S
H1003 C1013 0.929 . S
H1004 C1008 0.929 . S
H1005 C1014 0.929 . S
C1006 H1000 0.930 . S
C1006 C1007 1.367 . S
C1006 C1014 1.378 . S
C1007 C1006 1.367 . S
C1007 C1015 1.433 . S
C1008 H1004 0.929 . S
C1008 C1010 1.378 . S
C1008 C1012 1.350 . S
C1009 C1012 1.463 . S
C1009 C1014 1.350 . S
C1009 N1017 1.427 . S
C1010 H1001 0.930 . S
C1010 C1008 1.378 . S
C1010 C1011 1.367 . S
C1011 C1010 1.367 . S
C1011 C1013 1.433 . S
C1012 C1008 1.350 . S
C1012 C1009 1.463 . S
C1012 N1016 1.427 . S
C1013 H1003 0.929 . S
C1013 C1011 1.433 . S
C1013 N1016 1.384 . S
C1014 H1005 0.929 . S
C1014 C1006 1.378 . S
C1014 C1009 1.350 . S
C1015 H1002 0.929 . S
C1015 C1007 1.433 . S
C1015 N1017 1.384 . S
N1016 C1012 1.427 . S
N1016 C1013 1.384 . S
N1017 C1009 1.427 . S
N1017 C1015 1.384 . S
H1018 C1024 0.930 . S
H1019 C1028 0.930 . S
H1020 C1033 0.929 . S
H1021 C1031 0.929 . S
H1022 C1026 0.929 . S
H1023 C1032 0.929 . S
C1024 H1018 0.930 . S
C1024 C1025 1.367 . S
C1024 C1032 1.378 . S
C1025 C1024 1.367 . S
C1025 C1033 1.433 . S
C1026 H1022 0.929 . S
C1026 C1028 1.378 . S
C1026 C1030 1.350 . S
C1027 C1030 1.463 . S
C1027 C1032 1.350 . S
C1027 N1035 1.427 . S
C1028 H1019 0.930 . S
C1028 C1026 1.378 . S
C1028 C1029 1.367 . S
C1029 C1028 1.367 . S
C1029 C1031 1.433 . S
C1030 C1026 1.350 . S
C1030 C1027 1.463 . S
C1030 N1034 1.427 . S
C1031 H1021 0.929 . S
C1031 C1029 1.433 . S
C1031 N1034 1.384 . S
C1032 H1023 0.929 . S
C1032 C1024 1.378 . S
C1032 C1027 1.350 . S
C1033 H1020 0.929 . S
C1033 C1025 1.433 . S
C1033 N1035 1.384 . S
N1034 C1030 1.427 . S
N1034 C1031 1.384 . S
N1035 C1027 1.427 . S
N1035 C1033 1.384 . S
H1036 C1042 0.930 . S
H1037 C1046 0.930 . S
H1038 C1051 0.929 . S
H1039 C1049 0.929 . S
H1040 C1044 0.929 . S
H1041 C1050 0.929 . S
C1042 H1036 0.930 . S
C1042 C1043 1.367 . S
C1042 C1050 1.378 . S
C1043 C1042 1.367 . S
C1043 C1051 1.433 . S
C1044 H1040 0.929 . S
C1044 C1046 1.378 . S
C1044 C1048 1.350 . S
C1045 C1048 1.463 . S
C1045 C1050 1.350 . S
C1045 N1053 1.427 . S
C1046 H1037 0.930 . S
C1046 C1044 1.378 . S
C1046 C1047 1.367 . S
C1047 C1046 1.367 . S
C1047 C1049 1.433 . S
C1048 C1044 1.350 . S
C1048 C1045 1.463 . S
C1048 N1052 1.427 . S
C1049 H1039 0.929 . S
C1049 C1047 1.433 . S
C1049 N1052 1.384 . S
C1050 H1041 0.929 . S
C1050 C1042 1.378 . S
C1050 C1045 1.350 . S
C1051 H1038 0.929 . S
C1051 C1043 1.433 . S
C1051 N1053 1.384 . S
N1052 C1048 1.427 . S
N1052 C1049 1.384 . S
N1053 C1045 1.427 . S
N1053 C1051 1.384 . S
H1054 C1060 0.930 . S
H1055 C1064 0.930 . S
H1056 C1069 0.929 . S
H1057 C1067 0.929 . S
H1058 C1062 0.929 . S
H1059 C1068 0.929 . S
C1060 H1054 0.930 . S
C1060 C1061 1.367 . S
C1060 C1068 1.378 . S
C1061 C1060 1.367 . S
C1061 C1069 1.433 . S
C1062 H1058 0.929 . S
C1062 C1064 1.378 . S
C1062 C1066 1.350 . S
C1063 C1066 1.463 . S
C1063 C1068 1.350 . S
C1063 N1071 1.427 . S
C1064 H1055 0.930 . S
C1064 C1062 1.378 . S
C1064 C1065 1.367 . S
C1065 C1064 1.367 . S
C1065 C1067 1.433 . S
C1066 C1062 1.350 . S
C1066 C1063 1.463 . S
C1066 N1070 1.427 . S
C1067 H1057 0.929 . S
C1067 C1065 1.433 . S
C1067 N1070 1.384 . S
C1068 H1059 0.929 . S
C1068 C1060 1.378 . S
C1068 C1063 1.350 . S
C1069 H1056 0.929 . S
C1069 C1061 1.433 . S
C1069 N1071 1.384 . S
N1070 C1066 1.427 . S
N1070 C1067 1.384 . S
N1071 C1063 1.427 . S
N1071 C1069 1.384 . S
H1072 C1078 0.930 . S
H1073 C1082 0.930 . S
H1074 C1087 0.929 . S
H1075 C1085 0.929 . S
H1076 C1080 0.929 . S
H1077 C1086 0.929 . S
C1078 H1072 0.930 . S
C1078 C1079 1.367 . S
C1078 C1086 1.378 . S
C1079 C1078 1.367 . S
C1079 C1087 1.433 . S
C1080 H1076 0.929 . S
C1080 C1082 1.378 . S
C1080 C1084 1.350 . S
C1081 C1084 1.463 . S
C1081 C1086 1.350 . S
C1081 N1089 1.427 . S
C1082 H1073 0.930 . S
C1082 C1080 1.378 . S
C1082 C1083 1.367 . S
C1083 C1082 1.367 . S
C1083 C1085 1.433 . S
C1084 C1080 1.350 . S
C1084 C1081 1.463 . S
C1084 N1088 1.427 . S
C1085 H1075 0.929 . S
C1085 C1083 1.433 . S
C1085 N1088 1.384 . S
C1086 H1077 0.929 . S
C1086 C1078 1.378 . S
C1086 C1081 1.350 . S
C1087 H1074 0.929 . S
C1087 C1079 1.433 . S
C1087 N1089 1.384 . S
N1088 C1084 1.427 . S
N1088 C1085 1.384 . S
N1089 C1081 1.427 . S
N1089 C1087 1.384 . S
H1090 C1096 0.930 . S
H1091 C1100 0.930 . S
H1092 C1105 0.929 . S
H1093 C1103 0.929 . S
H1094 C1098 0.929 . S
H1095 C1104 0.929 . S
C1096 H1090 0.930 . S
C1096 C1097 1.367 . S
C1096 C1104 1.378 . S
C1097 C1096 1.367 . S
C1097 C1105 1.433 . S
C1098 H1094 0.929 . S
C1098 C1100 1.378 . S
C1098 C1102 1.350 . S
C1099 C1102 1.463 . S
C1099 C1104 1.350 . S
C1099 N1107 1.427 . S
C1100 H1091 0.930 . S
C1100 C1098 1.378 . S
C1100 C1101 1.367 . S
C1101 C1100 1.367 . S
C1101 C1103 1.433 . S
C1102 C1098 1.350 . S
C1102 C1099 1.463 . S
C1102 N1106 1.427 . S
C1103 H1093 0.929 . S
C1103 C1101 1.433 . S
C1103 N1106 1.384 . S
C1104 H1095 0.929 . S
C1104 C1096 1.378 . S
C1104 C1099 1.350 . S
C1105 H1092 0.929 . S
C1105 C1097 1.433 . S
C1105 N1107 1.384 . S
N1106 C1102 1.427 . S
N1106 C1103 1.384 . S
N1107 C1099 1.427 . S
N1107 C1105 1.384 . S
H1108 C1114 0.930 . S
H1109 C1118 0.930 . S
H1110 C1123 0.929 . S
H1111 C1121 0.929 . S
H1112 C1116 0.929 . S
H1113 C1122 0.929 . S
C1114 H1108 0.930 . S
C1114 C1115 1.367 . S
C1114 C1122 1.378 . S
C1115 C1114 1.367 . S
C1115 C1123 1.433 . S
C1116 H1112 0.929 . S
C1116 C1118 1.378 . S
C1116 C1120 1.350 . S
C1117 C1120 1.463 . S
C1117 C1122 1.350 . S
C1117 N1125 1.427 . S
C1118 H1109 0.930 . S
C1118 C1116 1.378 . S
C1118 C1119 1.367 . S
C1119 C1118 1.367 . S
C1119 C1121 1.433 . S
C1120 C1116 1.350 . S
C1120 C1117 1.463 . S
C1120 N1124 1.427 . S
C1121 H1111 0.929 . S
C1121 C1119 1.433 . S
C1121 N1124 1.384 . S
C1122 H1113 0.929 . S
C1122 C1114 1.378 . S
C1122 C1117 1.350 . S
C1123 H1110 0.929 . S
C1123 C1115 1.433 . S
C1123 N1125 1.384 . S
N1124 C1120 1.427 . S
N1124 C1121 1.384 . S
N1125 C1117 1.427 . S
N1125 C1123 1.384 . S
H1126 C1132 0.930 . S
H1127 C1136 0.930 . S
H1128 C1141 0.929 . S
H1129 C1139 0.929 . S
H1130 C1134 0.929 . S
H1131 C1140 0.929 . S
C1132 H1126 0.930 . S
C1132 C1133 1.367 . S
C1132 C1140 1.378 . S
C1133 C1132 1.367 . S
C1133 C1141 1.433 . S
C1134 H1130 0.929 . S
C1134 C1136 1.378 . S
C1134 C1138 1.350 . S
C1135 C1138 1.463 . S
C1135 C1140 1.350 . S
C1135 N1143 1.427 . S
C1136 H1127 0.930 . S
C1136 C1134 1.378 . S
C1136 C1137 1.367 . S
C1137 C1136 1.367 . S
C1137 C1139 1.433 . S
C1138 C1134 1.350 . S
C1138 C1135 1.463 . S
C1138 N1142 1.427 . S
C1139 H1129 0.929 . S
C1139 C1137 1.433 . S
C1139 N1142 1.384 . S
C1140 H1131 0.929 . S
C1140 C1132 1.378 . S
C1140 C1135 1.350 . S
C1141 H1128 0.929 . S
C1141 C1133 1.433 . S
C1141 N1143 1.384 . S
N1142 C1138 1.427 . S
N1142 C1139 1.384 . S
N1143 C1135 1.427 . S
N1143 C1141 1.384 . S
H1144 C1150 0.930 . S
H1145 C1154 0.930 . S
H1146 C1159 0.929 . S
H1147 C1157 0.929 . S
H1148 C1152 0.929 . S
H1149 C1158 0.929 . S
C1150 H1144 0.930 . S
C1150 C1151 1.367 . S
C1150 C1158 1.378 . S
C1151 C1150 1.367 . S
C1151 C1159 1.433 . S
C1152 H1148 0.929 . S
C1152 C1154 1.378 . S
C1152 C1156 1.350 . S
C1153 C1156 1.463 . S
C1153 C1158 1.350 . S
C1153 N1161 1.427 . S
C1154 H1145 0.930 . S
C1154 C1152 1.378 . S
C1154 C1155 1.367 . S
C1155 C1154 1.367 . S
C1155 C1157 1.433 . S
C1156 C1152 1.350 . S
C1156 C1153 1.463 . S
C1156 N1160 1.427 . S
C1157 H1147 0.929 . S
C1157 C1155 1.433 . S
C1157 N1160 1.384 . S
C1158 H1149 0.929 . S
C1158 C1150 1.378 . S
C1158 C1153 1.350 . S
C1159 H1146 0.929 . S
C1159 C1151 1.433 . S
C1159 N1161 1.384 . S
N1160 C1156 1.427 . S
N1160 C1157 1.384 . S
N1161 C1153 1.427 . S
N1161 C1159 1.384 . S
H1162 C1168 0.930 . S
H1163 C1172 0.930 . S
H1164 C1177 0.929 . S
H1165 C1175 0.929 . S
H1166 C1170 0.929 . S
H1167 C1176 0.929 . S
C1168 H1162 0.930 . S
C1168 C1169 1.367 . S
C1168 C1176 1.378 . S
C1169 C1168 1.367 . S
C1169 C1177 1.433 . S
C1170 H1166 0.929 . S
C1170 C1172 1.378 . S
C1170 C1174 1.350 . S
C1171 C1174 1.463 . S
C1171 C1176 1.350 . S
C1171 N1179 1.427 . S
C1172 H1163 0.930 . S
C1172 C1170 1.378 . S
C1172 C1173 1.367 . S
C1173 C1172 1.367 . S
C1173 C1175 1.433 . S
C1174 C1170 1.350 . S
C1174 C1171 1.463 . S
C1174 N1178 1.427 . S
C1175 H1165 0.929 . S
C1175 C1173 1.433 . S
C1175 N1178 1.384 . S
C1176 H1167 0.929 . S
C1176 C1168 1.378 . S
C1176 C1171 1.350 . S
C1177 H1164 0.929 . S
C1177 C1169 1.433 . S
C1177 N1179 1.384 . S
N1178 C1174 1.427 . S
N1178 C1175 1.384 . S
N1179 C1171 1.427 . S
N1179 C1177 1.384 . S
H1180 C1186 0.930 . S
H1181 C1190 0.930 . S
H1182 C1195 0.929 . S
H1183 C1193 0.929 . S
H1184 C1188 0.929 . S
H1185 C1194 0.929 . S
C1186 H1180 0.930 . S
C1186 C1187 1.367 . S
C1186 C1194 1.378 . S
C1187 C1186 1.367 . S
C1187 C1195 1.433 . S
C1188 H1184 0.929 . S
C1188 C1190 1.378 . S
C1188 C1192 1.350 . S
C1189 C1192 1.463 . S
C1189 C1194 1.350 . S
C1189 N1197 1.427 . S
C1190 H1181 0.930 . S
C1190 C1188 1.378 . S
C1190 C1191 1.367 . S
C1191 C1190 1.367 . S
C1191 C1193 1.433 . S
C1192 C1188 1.350 . S
C1192 C1189 1.463 . S
C1192 N1196 1.427 . S
C1193 H1183 0.929 . S
C1193 C1191 1.433 . S
C1193 N1196 1.384 . S
C1194 H1185 0.929 . S
C1194 C1186 1.378 . S
C1194 C1189 1.350 . S
C1195 H1182 0.929 . S
C1195 C1187 1.433 . S
C1195 N1197 1.384 . S
N1196 C1192 1.427 . S
N1196 C1193 1.384 . S
N1197 C1189 1.427 . S
N1197 C1195 1.384 . S
H1198 C1204 0.930 . S
H1199 C1208 0.930 . S
H1200 C1213 0.929 . S
H1201 C1211 0.929 . S
H1202 C1206 0.929 . S
H1203 C1212 0.929 . S
C1204 H1198 0.930 . S
C1204 C1205 1.367 . S
C1204 C1212 1.378 . S
C1205 C1204 1.367 . S
C1205 C1213 1.433 . S
C1206 H1202 0.929 . S
C1206 C1208 1.378 . S
C1206 C1210 1.350 . S
C1207 C1210 1.463 . S
C1207 C1212 1.350 . S
C1207 N1215 1.427 . S
C1208 H1199 0.930 . S
C1208 C1206 1.378 . S
C1208 C1209 1.367 . S
C1209 C1208 1.367 . S
C1209 C1211 1.433 . S
C1210 C1206 1.350 . S
C1210 C1207 1.463 . S
C1210 N1214 1.427 . S
C1211 H1201 0.929 . S
C1211 C1209 1.433 . S
C1211 N1214 1.384 . S
C1212 H1203 0.929 . S
C1212 C1204 1.378 . S
C1212 C1207 1.350 . S
C1213 H1200 0.929 . S
C1213 C1205 1.433 . S
C1213 N1215 1.384 . S
N1214 C1210 1.427 . S
N1214 C1211 1.384 . S
N1215 C1207 1.427 . S
N1215 C1213 1.384 . S
H1216 C1222 0.930 . S
H1217 C1226 0.930 . S
H1218 C1231 0.929 . S
H1219 C1229 0.929 . S
H1220 C1224 0.929 . S
H1221 C1230 0.929 . S
C1222 H1216 0.930 . S
C1222 C1223 1.367 . S
C1222 C1230 1.378 . S
C1223 C1222 1.367 . S
C1223 C1231 1.433 . S
C1224 H1220 0.929 . S
C1224 C1226 1.378 . S
C1224 C1228 1.350 . S
C1225 C1228 1.463 . S
C1225 C1230 1.350 . S
C1225 N1233 1.427 . S
C1226 H1217 0.930 . S
C1226 C1224 1.378 . S
C1226 C1227 1.367 . S
C1227 C1226 1.367 . S
C1227 C1229 1.433 . S
C1228 C1224 1.350 . S
C1228 C1225 1.463 . S
C1228 N1232 1.427 . S
C1229 H1219 0.929 . S
C1229 C1227 1.433 . S
C1229 N1232 1.384 . S
C1230 H1221 0.929 . S
C1230 C1222 1.378 . S
C1230 C1225 1.350 . S
C1231 H1218 0.929 . S
C1231 C1223 1.433 . S
C1231 N1233 1.384 . S
N1232 C1228 1.427 . S
N1232 C1229 1.384 . S
N1233 C1225 1.427 . S
N1233 C1231 1.384 . S
H1234 C1240 0.930 . S
H1235 C1244 0.930 . S
H1236 C1249 0.929 . S
H1237 C1247 0.929 . S
H1238 C1242 0.929 . S
H1239 C1248 0.929 . S
C1240 H1234 0.930 . S
C1240 C1241 1.367 . S
C1240 C1248 1.378 . S
C1241 C1240 1.367 . S
C1241 C1249 1.433 . S
C1242 H1238 0.929 . S
C1242 C1244 1.378 . S
C1242 C1246 1.350 . S
C1243 C1246 1.463 . S
C1243 C1248 1.350 . S
C1243 N1251 1.427 . S
C1244 H1235 0.930 . S
C1244 C1242 1.378 . S
C1244 C1245 1.367 . S
C1245 C1244 1.367 . S
C1245 C1247 1.433 . S
C1246 C1242 1.350 . S
C1246 C1243 1.463 . S
C1246 N1250 1.427 . S
C1247 H1237 0.929 . S
C1247 C1245 1.433 . S
C1247 N1250 1.384 . S
C1248 H1239 0.929 . S
C1248 C1240 1.378 . S
C1248 C1243 1.350 . S
C1249 H1236 0.929 . S
C1249 C1241 1.433 . S
C1249 N1251 1.384 . S
N1250 C1246 1.427 . S
N1250 C1247 1.384 . S
N1251 C1243 1.427 . S
N1251 C1249 1.384 . S
H1252 C1258 0.930 . S
H1253 C1262 0.930 . S
H1254 C1267 0.929 . S
H1255 C1265 0.929 . S
H1256 C1260 0.929 . S
H1257 C1266 0.929 . S
C1258 H1252 0.930 . S
C1258 C1259 1.367 . S
C1258 C1266 1.378 . S
C1259 C1258 1.367 . S
C1259 C1267 1.433 . S
C1260 H1256 0.929 . S
C1260 C1262 1.378 . S
C1260 C1264 1.350 . S
C1261 C1264 1.463 . S
C1261 C1266 1.350 . S
C1261 N1269 1.427 . S
C1262 H1253 0.930 . S
C1262 C1260 1.378 . S
C1262 C1263 1.367 . S
C1263 C1262 1.367 . S
C1263 C1265 1.433 . S
C1264 C1260 1.350 . S
C1264 C1261 1.463 . S
C1264 N1268 1.427 . S
C1265 H1255 0.929 . S
C1265 C1263 1.433 . S
C1265 N1268 1.384 . S
C1266 H1257 0.929 . S
C1266 C1258 1.378 . S
C1266 C1261 1.350 . S
C1267 H1254 0.929 . S
C1267 C1259 1.433 . S
C1267 N1269 1.384 . S
N1268 C1264 1.427 . S
N1268 C1265 1.384 . S
N1269 C1261 1.427 . S
N1269 C1267 1.384 . S
H1270 C1276 0.930 . S
H1271 C1280 0.930 . S
H1272 C1285 0.929 . S
H1273 C1283 0.929 . S
H1274 C1278 0.929 . S
H1275 C1284 0.929 . S
C1276 H1270 0.930 . S
C1276 C1277 1.367 . S
C1276 C1284 1.378 . S
C1277 C1276 1.367 . S
C1277 C1285 1.433 . S
C1278 H1274 0.929 . S
C1278 C1280 1.378 . S
C1278 C1282 1.350 . S
C1279 C1282 1.463 . S
C1279 C1284 1.350 . S
C1279 N1287 1.427 . S
C1280 H1271 0.930 . S
C1280 C1278 1.378 . S
C1280 C1281 1.367 . S
C1281 C1280 1.367 . S
C1281 C1283 1.433 . S
C1282 C1278 1.350 . S
C1282 C1279 1.463 . S
C1282 N1286 1.427 . S
C1283 H1273 0.929 . S
C1283 C1281 1.433 . S
C1283 N1286 1.384 . S
C1284 H1275 0.929 . S
C1284 C1276 1.378 . S
C1284 C1279 1.350 . S
C1285 H1272 0.929 . S
C1285 C1277 1.433 . S
C1285 N1287 1.384 . S
N1286 C1282 1.427 . S
N1286 C1283 1.384 . S
N1287 C1279 1.427 . S
N1287 C1285 1.384 . S
H1288 C1294 0.930 . S
H1289 C1298 0.930 . S
H1290 C1303 0.929 . S
H1291 C1301 0.929 . S
H1292 C1296 0.929 . S
H1293 C1302 0.929 . S
C1294 H1288 0.930 . S
C1294 C1295 1.367 . S
C1294 C1302 1.378 . S
C1295 C1294 1.367 . S
C1295 C1303 1.433 . S
C1296 H1292 0.929 . S
C1296 C1298 1.378 . S
C1296 C1300 1.350 . S
C1297 C1300 1.463 . S
C1297 C1302 1.350 . S
C1297 N1305 1.427 . S
C1298 H1289 0.930 . S
C1298 C1296 1.378 . S
C1298 C1299 1.367 . S
C1299 C1298 1.367 . S
C1299 C1301 1.433 . S
C1300 C1296 1.350 . S
C1300 C1297 1.463 . S
C1300 N1304 1.427 . S
C1301 H1291 0.929 . S
C1301 C1299 1.433 . S
C1301 N1304 1.384 . S
C1302 H1293 0.929 . S
C1302 C1294 1.378 . S
C1302 C1297 1.350 . S
C1303 H1290 0.929 . S
C1303 C1295 1.433 . S
C1303 N1305 1.384 . S
N1304 C1300 1.427 . S
N1304 C1301 1.384 . S
N1305 C1297 1.427 . S
N1305 C1303 1.384 . S
H1306 C1312 0.930 . S
H1307 C1316 0.930 . S
H1308 C1321 0.929 . S
H1309 C1319 0.929 . S
H1310 C1314 0.929 . S
H1311 C1320 0.929 . S
C1312 H1306 0.930 . S
C1312 C1313 1.367 . S
C1312 C1320 1.378 . S
C1313 C1312 1.367 . S
C1313 C1321 1.433 . S
C1314 H1310 0.929 . S
C1314 C1316 1.378 . S
C1314 C1318 1.350 . S
C1315 C1318 1.463 . S
C1315 C1320 1.350 . S
C1315 N1323 1.427 . S
C1316 H1307 0.930 . S
C1316 C1314 1.378 . S
C1316 C1317 1.367 . S
C1317 C1316 1.367 . S
C1317 C1319 1.433 . S
C1318 C1314 1.350 . S
C1318 C1315 1.463 . S
C1318 N1322 1.427 . S
C1319 H1309 0.929 . S
C1319 C1317 1.433 . S
C1319 N1322 1.384 . S
C1320 H1311 0.929 . S
C1320 C1312 1.378 . S
C1320 C1315 1.350 . S
C1321 H1308 0.929 . S
C1321 C1313 1.433 . S
C1321 N1323 1.384 . S
N1322 C1318 1.427 . S
N1322 C1319 1.384 . S
N1323 C1315 1.427 . S
N1323 C1321 1.384 . S
H1324 C1330 0.930 . S
H1325 C1334 0.930 . S
H1326 C1339 0.929 1_554 S
H1327 C1337 0.929 . S
H1328 C1332 0.929 . S
H1329 C1338 0.929 . S
C1330 H1324 0.930 . S
C1330 C1331 1.367 . S
C1330 C1338 1.378 . S
C1331 C1330 1.367 . S
C1331 C1339 1.433 . S
C1332 H1328 0.929 . S
C1332 C1334 1.378 . S
C1332 C1336 1.350 . S
C1333 C1336 1.463 . S
C1333 C1338 1.350 . S
C1333 N1341 1.427 . S
C1334 H1325 0.930 . S
C1334 C1332 1.378 . S
C1334 C1335 1.367 . S
C1335 C1334 1.367 . S
C1335 C1337 1.433 . S
C1336 C1332 1.350 . S
C1336 C1333 1.463 . S
C1336 N1340 1.427 . S
C1337 H1327 0.929 . S
C1337 C1335 1.433 . S
C1337 N1340 1.384 . S
C1338 H1329 0.929 . S
C1338 C1330 1.378 . S
C1338 C1333 1.350 . S
C1339 H1326 0.929 1_556 S
C1339 C1331 1.433 . S
C1339 N1341 1.384 . S
N1340 C1336 1.427 . S
N1340 C1337 1.384 . S
N1341 C1333 1.427 . S
N1341 C1339 1.384 . S
H1342 C1348 0.930 . S
H1343 C1352 0.930 . S
H1344 C1357 0.929 . S
H1345 C1355 0.929 . S
H1346 C1350 0.929 . S
H1347 C1356 0.929 . S
C1348 H1342 0.930 . S
C1348 C1349 1.367 . S
C1348 C1356 1.378 . S
C1349 C1348 1.367 . S
C1349 C1357 1.433 . S
C1350 H1346 0.929 . S
C1350 C1352 1.378 . S
C1350 C1354 1.350 . S
C1351 C1354 1.463 . S
C1351 C1356 1.350 . S
C1351 N1359 1.427 . S
C1352 H1343 0.930 . S
C1352 C1350 1.378 . S
C1352 C1353 1.367 . S
C1353 C1352 1.367 . S
C1353 C1355 1.433 . S
C1354 C1350 1.350 . S
C1354 C1351 1.463 . S
C1354 N1358 1.427 . S
C1355 H1345 0.929 . S
C1355 C1353 1.433 . S
C1355 N1358 1.384 . S
C1356 H1347 0.929 . S
C1356 C1348 1.378 . S
C1356 C1351 1.350 . S
C1357 H1344 0.929 . S
C1357 C1349 1.433 . S
C1357 N1359 1.384 . S
N1358 C1354 1.427 . S
N1358 C1355 1.384 . S
N1359 C1351 1.427 . S
N1359 C1357 1.384 . S
H1360 C1366 0.930 . S
H1361 C1370 0.930 . S
H1362 C1375 0.929 . S
H1363 C1373 0.929 . S
H1364 C1368 0.929 . S
H1365 C1374 0.929 . S
C1366 H1360 0.930 . S
C1366 C1367 1.367 . S
C1366 C1374 1.378 . S
C1367 C1366 1.367 . S
C1367 C1375 1.433 . S
C1368 H1364 0.929 . S
C1368 C1370 1.378 . S
C1368 C1372 1.350 . S
C1369 C1372 1.463 . S
C1369 C1374 1.350 . S
C1369 N1377 1.427 . S
C1370 H1361 0.930 . S
C1370 C1368 1.378 . S
C1370 C1371 1.367 . S
C1371 C1370 1.367 . S
C1371 C1373 1.433 . S
C1372 C1368 1.350 . S
C1372 C1369 1.463 . S
C1372 N1376 1.427 . S
C1373 H1363 0.929 . S
C1373 C1371 1.433 . S
C1373 N1376 1.384 . S
C1374 H1365 0.929 . S
C1374 C1366 1.378 . S
C1374 C1369 1.350 . S
C1375 H1362 0.929 . S
C1375 C1367 1.433 . S
C1375 N1377 1.384 . S
N1376 C1372 1.427 . S
N1376 C1373 1.384 . S
N1377 C1369 1.427 . S
N1377 C1375 1.384 . S
H1378 C1384 0.930 . S
H1379 C1388 0.930 . S
H1380 C1393 0.929 . S
H1381 C1391 0.929 . S
H1382 C1386 0.929 . S
H1383 C1392 0.929 . S
C1384 H1378 0.930 . S
C1384 C1385 1.367 . S
C1384 C1392 1.378 . S
C1385 C1384 1.367 . S
C1385 C1393 1.433 . S
C1386 H1382 0.929 . S
C1386 C1388 1.378 . S
C1386 C1390 1.350 . S
C1387 C1390 1.463 . S
C1387 C1392 1.350 . S
C1387 N1395 1.427 . S
C1388 H1379 0.930 . S
C1388 C1386 1.378 . S
C1388 C1389 1.367 . S
C1389 C1388 1.367 . S
C1389 C1391 1.433 . S
C1390 C1386 1.350 . S
C1390 C1387 1.463 . S
C1390 N1394 1.427 . S
C1391 H1381 0.929 . S
C1391 C1389 1.433 . S
C1391 N1394 1.384 . S
C1392 H1383 0.929 . S
C1392 C1384 1.378 . S
C1392 C1387 1.350 . S
C1393 H1380 0.929 . S
C1393 C1385 1.433 . S
C1393 N1395 1.384 . S
N1394 C1390 1.427 . S
N1394 C1391 1.384 . S
N1395 C1387 1.427 . S
N1395 C1393 1.384 . S
H1396 C1402 0.930 . S
H1397 C1406 0.930 . S
H1398 C1411 0.929 . S
H1399 C1409 0.929 . S
H1400 C1404 0.929 . S
H1401 C1410 0.929 . S
C1402 H1396 0.930 . S
C1402 C1403 1.367 . S
C1402 C1410 1.378 . S
C1403 C1402 1.367 . S
C1403 C1411 1.433 . S
C1404 H1400 0.929 . S
C1404 C1406 1.378 . S
C1404 C1408 1.350 . S
C1405 C1408 1.463 . S
C1405 C1410 1.350 . S
C1405 N1413 1.427 . S
C1406 H1397 0.930 . S
C1406 C1404 1.378 . S
C1406 C1407 1.367 . S
C1407 C1406 1.367 . S
C1407 C1409 1.433 . S
C1408 C1404 1.350 . S
C1408 C1405 1.463 . S
C1408 N1412 1.427 . S
C1409 H1399 0.929 . S
C1409 C1407 1.433 . S
C1409 N1412 1.384 . S
C1410 H1401 0.929 . S
C1410 C1402 1.378 . S
C1410 C1405 1.350 . S
C1411 H1398 0.929 . S
C1411 C1403 1.433 . S
C1411 N1413 1.384 . S
N1412 C1408 1.427 . S
N1412 C1409 1.384 . S
N1413 C1405 1.427 . S
N1413 C1411 1.384 . S
H1414 C1420 0.930 . S
H1415 C1424 0.930 . S
H1416 C1429 0.929 . S
H1417 C1427 0.929 . S
H1418 C1422 0.929 . S
H1419 C1428 0.929 . S
C1420 H1414 0.930 . S
C1420 C1421 1.367 . S
C1420 C1428 1.378 . S
C1421 C1420 1.367 . S
C1421 C1429 1.433 . S
C1422 H1418 0.929 . S
C1422 C1424 1.378 . S
C1422 C1426 1.350 . S
C1423 C1426 1.463 . S
C1423 C1428 1.350 . S
C1423 N1431 1.427 . S
C1424 H1415 0.930 . S
C1424 C1422 1.378 . S
C1424 C1425 1.367 . S
C1425 C1424 1.367 . S
C1425 C1427 1.433 . S
C1426 C1422 1.350 . S
C1426 C1423 1.463 . S
C1426 N1430 1.427 . S
C1427 H1417 0.929 . S
C1427 C1425 1.433 . S
C1427 N1430 1.384 . S
C1428 H1419 0.929 . S
C1428 C1420 1.378 . S
C1428 C1423 1.350 . S
C1429 H1416 0.929 . S
C1429 C1421 1.433 . S
C1429 N1431 1.384 . S
N1430 C1426 1.427 . S
N1430 C1427 1.384 . S
N1431 C1423 1.427 . S
N1431 C1429 1.384 . S
H1432 C1438 0.930 . S
H1433 C1442 0.930 . S
H1434 C1447 0.929 . S
H1435 C1445 0.929 . S
H1436 C1440 0.929 . S
H1437 C1446 0.929 . S
C1438 H1432 0.930 . S
C1438 C1439 1.367 . S
C1438 C1446 1.378 . S
C1439 C1438 1.367 . S
C1439 C1447 1.433 . S
C1440 H1436 0.929 . S
C1440 C1442 1.378 . S
C1440 C1444 1.350 . S
C1441 C1444 1.463 . S
C1441 C1446 1.350 . S
C1441 N1449 1.427 . S
C1442 H1433 0.930 . S
C1442 C1440 1.378 . S
C1442 C1443 1.367 . S
C1443 C1442 1.367 . S
C1443 C1445 1.433 . S
C1444 C1440 1.350 . S
C1444 C1441 1.463 . S
C1444 N1448 1.427 . S
C1445 H1435 0.929 . S
C1445 C1443 1.433 . S
C1445 N1448 1.384 . S
C1446 H1437 0.929 . S
C1446 C1438 1.378 . S
C1446 C1441 1.350 . S
C1447 H1434 0.929 . S
C1447 C1439 1.433 . S
C1447 N1449 1.384 . S
N1448 C1444 1.427 . S
N1448 C1445 1.384 . S
N1449 C1441 1.427 . S
N1449 C1447 1.384 . S
H1450 C1456 0.930 . S
H1451 C1460 0.930 . S
H1452 C1465 0.929 . S
H1453 C1463 0.929 . S
H1454 C1458 0.929 . S
H1455 C1464 0.929 . S
C1456 H1450 0.930 . S
C1456 C1457 1.367 . S
C1456 C1464 1.378 . S
C1457 C1456 1.367 . S
C1457 C1465 1.433 . S
C1458 H1454 0.929 . S
C1458 C1460 1.378 . S
C1458 C1462 1.350 . S
C1459 C1462 1.463 . S
C1459 C1464 1.350 . S
C1459 N1467 1.427 . S
C1460 H1451 0.930 . S
C1460 C1458 1.378 . S
C1460 C1461 1.367 . S
C1461 C1460 1.367 . S
C1461 C1463 1.433 . S
C1462 C1458 1.350 . S
C1462 C1459 1.463 . S
C1462 N1466 1.427 . S
C1463 H1453 0.929 . S
C1463 C1461 1.433 . S
C1463 N1466 1.384 . S
C1464 H1455 0.929 . S
C1464 C1456 1.378 . S
C1464 C1459 1.350 . S
C1465 H1452 0.929 . S
C1465 C1457 1.433 . S
C1465 N1467 1.384 . S
N1466 C1462 1.427 . S
N1466 C1463 1.384 . S
N1467 C1459 1.427 . S
N1467 C1465 1.384 . S
H1468 C1474 0.930 . S
H1469 C1478 0.930 . S
H1470 C1483 0.929 . S
H1471 C1481 0.929 . S
H1472 C1476 0.929 . S
H1473 C1482 0.929 . S
C1474 H1468 0.930 . S
C1474 C1475 1.367 . S
C1474 C1482 1.378 . S
C1475 C1474 1.367 . S
C1475 C1483 1.433 . S
C1476 H1472 0.929 . S
C1476 C1478 1.378 . S
C1476 C1480 1.350 . S
C1477 C1480 1.463 . S
C1477 C1482 1.350 . S
C1477 N1485 1.427 . S
C1478 H1469 0.930 . S
C1478 C1476 1.378 . S
C1478 C1479 1.367 . S
C1479 C1478 1.367 . S
C1479 C1481 1.433 . S
C1480 C1476 1.350 . S
C1480 C1477 1.463 . S
C1480 N1484 1.427 . S
C1481 H1471 0.929 . S
C1481 C1479 1.433 . S
C1481 N1484 1.384 . S
C1482 H1473 0.929 . S
C1482 C1474 1.378 . S
C1482 C1477 1.350 . S
C1483 H1470 0.929 . S
C1483 C1475 1.433 . S
C1483 N1485 1.384 . S
N1484 C1480 1.427 . S
N1484 C1481 1.384 . S
N1485 C1477 1.427 . S
N1485 C1483 1.384 . S
H1486 C1492 0.930 . S
H1487 C1496 0.930 . S
H1488 C1501 0.929 . S
H1489 C1499 0.929 . S
H1490 C1494 0.929 . S
H1491 C1500 0.929 . S
C1492 H1486 0.930 . S
C1492 C1493 1.367 . S
C1492 C1500 1.378 . S
C1493 C1492 1.367 . S
C1493 C1501 1.433 . S
C1494 H1490 0.929 . S
C1494 C1496 1.378 . S
C1494 C1498 1.350 . S
C1495 C1498 1.463 . S
C1495 C1500 1.350 . S
C1495 N1503 1.427 . S
C1496 H1487 0.930 . S
C1496 C1494 1.378 . S
C1496 C1497 1.367 . S
C1497 C1496 1.367 . S
C1497 C1499 1.433 . S
C1498 C1494 1.350 . S
C1498 C1495 1.463 . S
C1498 N1502 1.427 . S
C1499 H1489 0.929 . S
C1499 C1497 1.433 . S
C1499 N1502 1.384 . S
C1500 H1491 0.929 . S
C1500 C1492 1.378 . S
C1500 C1495 1.350 . S
C1501 H1488 0.929 . S
C1501 C1493 1.433 . S
C1501 N1503 1.384 . S
N1502 C1498 1.427 . S
N1502 C1499 1.384 . S
N1503 C1495 1.427 . S
N1503 C1501 1.384 . S
C647 C129 3.580 . S
C651 C8 3.599 . S
C665 C19 3.026 . S
C669 C49 3.043 . S
C683 C98 1.059 . S
C687 C58 1.032 . S
C701 C135 0.564 . S
C705 C95 0.560 . S
C719 C179 0.320 . S
C723 C215 0.130 . S
C737 C218 1.074 . S
C741 C248 1.122 . S
C755 C245 0.436 . S
C759 C295 0.479 . S
C773 C165 0.809 . S
C777 C298 0.802 . S
C791 C369 3.301 . S
C795 C5 3.296 . S
C809 C419 0.696 . S
C813 C55 0.694 . S
C827 C89 3.036 . S
C831 C529 2.992 . S
C845 C328 1.065 . S
C849 C138 1.071 . S
C863 C458 1.067 . S
C867 C168 1.062 . S
C881 C565 3.292 . S
C885 C209 3.299 . S
C899 C259 0.700 . S
C903 C495 0.693 . S
C917 C609 3.037 . S
C921 C289 2.998 . S
C935 C325 0.805 . S
C939 C538 0.798 . S
C953 C375 0.146 . S
C957 C339 0.336 . S
C971 C408 1.115 . S
C975 C378 1.092 . S
C989 C568 3.599 . S
C993 C449 3.579 . S
C1007 C498 1.048 . S
C1011 C618 1.055 . S
C1025 C459 3.579 . S
C1029 C18 3.599 . S
C1043 C499 3.043 . S
C1047 C9 3.028 . S
C1061 C488 1.037 . S
C1065 C88 1.054 . S
C1079 C85 0.550 . S
C1083 C445 0.553 . S
C1097 C365 0.116 . S
C1101 C169 0.335 . S
C1115 C368 1.094 . S
C1119 C258 1.112 . S
C1133 C525 0.485 . S
C1137 C255 0.453 . S
C1151 C175 0.807 . S
C1155 C528 0.799 . S
C1169 C219 3.299 . S
C1173 C15 3.297 . S
C1187 C409 0.721 . S
C1191 C485 0.706 . S
C1205 C99 3.034 . S
C1209 C299 2.997 . S
C1223 C338 1.065 . S
C1227 C448 1.071 . S
C1241 C128 1.079 . S
C1245 C178 1.054 . S
C1259 C379 3.298 . S
C1263 C575 3.294 . S
C1277 C249 0.723 . S
C1281 C45 0.719 . S
C1295 C619 3.038 . S
C1299 C539 2.994 . S
C1313 C335 0.804 . S
C1317 C288 0.797 . S
C1331 C329 0.347 . S
C1335 C205 0.152 . S
C1349 C418 1.117 . S
C1353 C208 1.081 . S
C1367 C139 3.575 . S
C1371 C578 3.596 . S
C1385 C48 1.035 . S
C1389 C608 1.056 . S
C1403 C489 3.042 . S
C1407 C579 3.029 . S
C1421 C455 0.553 . S
C1425 C615 0.549 . S
C1439 C405 0.431 . S
C1443 C535 0.464 . S
C1457 C569 3.029 . S
C1461 C59 3.041 . S
C1475 C125 0.551 . S
C1479 C605 0.547 . S
C1493 C285 0.484 . S
C1497 C415 0.440 . S
