# Generated by pormake.
# Topology uow, (4)-cn, num edge types: 1
# Building blocks:
#     Node 0, Type 0, BuildingBlock: QUQFOY_clean_sbu_1, # of connection points: 4
#     Node 1, Type 0, BuildingBlock: QUQFOY_clean_sbu_1, # of connection points: 4
#     Node 2, Type 0, BuildingBlock: QUQFOY_clean_sbu_1, # of connection points: 4
#     Node 3, Type 0, BuildingBlock: QUQFOY_clean_sbu_1, # of connection points: 4
#     Node 4, Type 0, BuildingBlock: QUQFOY_clean_sbu_1, # of connection points: 4
#     Node 5, Type 0, BuildingBlock: QUQFOY_clean_sbu_1, # of connection points: 4
#     Node 6, Type 0, BuildingBlock: QUQFOY_clean_sbu_1, # of connection points: 4
#     Node 7, Type 0, BuildingBlock: QUQFOY_clean_sbu_1, # of connection points: 4
#     Node 8, Type 0, BuildingBlock: QUQFOY_clean_sbu_1, # of connection points: 4
#     Node 9, Type 0, BuildingBlock: QUQFOY_clean_sbu_1, # of connection points: 4
#     Node 10, Type 0, BuildingBlock: QUQFOY_clean_sbu_1, # of connection points: 4
#     Node 11, Type 0, BuildingBlock: QUQFOY_clean_sbu_1, # of connection points: 4
#     Node 12, Type 0, BuildingBlock: QUQFOY_clean_sbu_1, # of connection points: 4
#     Node 13, Type 0, BuildingBlock: QUQFOY_clean_sbu_1, # of connection points: 4
#     Node 14, Type 0, BuildingBlock: QUQFOY_clean_sbu_1, # of connection points: 4
#     Node 15, Type 0, BuildingBlock: QUQFOY_clean_sbu_1, # of connection points: 4
#     Node 16, Type 0, BuildingBlock: QUQFOY_clean_sbu_1, # of connection points: 4
#     Node 17, Type 0, BuildingBlock: QUQFOY_clean_sbu_1, # of connection points: 4
#     Node 18, Type 0, BuildingBlock: QUQFOY_clean_sbu_1, # of connection points: 4
#     Node 19, Type 0, BuildingBlock: QUQFOY_clean_sbu_1, # of connection points: 4
#     Node 20, Type 0, BuildingBlock: QUQFOY_clean_sbu_1, # of connection points: 4
#     Node 21, Type 0, BuildingBlock: QUQFOY_clean_sbu_1, # of connection points: 4
#     Node 22, Type 0, BuildingBlock: QUQFOY_clean_sbu_1, # of connection points: 4
#     Node 23, Type 0, BuildingBlock: QUQFOY_clean_sbu_1, # of connection points: 4
#     Node 24, Type 0, BuildingBlock: QUQFOY_clean_sbu_1, # of connection points: 4
#     Node 25, Type 0, BuildingBlock: QUQFOY_clean_sbu_1, # of connection points: 4
#     Node 26, Type 0, BuildingBlock: QUQFOY_clean_sbu_1, # of connection points: 4
#     Node 27, Type 0, BuildingBlock: QUQFOY_clean_sbu_1, # of connection points: 4
#     Node 28, Type 0, BuildingBlock: QUQFOY_clean_sbu_1, # of connection points: 4
#     Node 29, Type 0, BuildingBlock: QUQFOY_clean_sbu_1, # of connection points: 4
#     Node 30, Type 0, BuildingBlock: QUQFOY_clean_sbu_1, # of connection points: 4
#     Node 31, Type 0, BuildingBlock: QUQFOY_clean_sbu_1, # of connection points: 4
#     Edge 32, Type (0, 0), BuildingBlock: EZIPEK_clean_linker_0, # of connection points: 2
#     Edge 33, Type (0, 0), BuildingBlock: EZIPEK_clean_linker_0, # of connection points: 2
#     Edge 34, Type (0, 0), BuildingBlock: EZIPEK_clean_linker_0, # of connection points: 2
#     Edge 35, Type (0, 0), BuildingBlock: EZIPEK_clean_linker_0, # of connection points: 2
#     Edge 36, Type (0, 0), BuildingBlock: EZIPEK_clean_linker_0, # of connection points: 2
#     Edge 37, Type (0, 0), BuildingBlock: EZIPEK_clean_linker_0, # of connection points: 2
#     Edge 38, Type (0, 0), BuildingBlock: EZIPEK_clean_linker_0, # of connection points: 2
#     Edge 39, Type (0, 0), BuildingBlock: EZIPEK_clean_linker_0, # of connection points: 2
#     Edge 40, Type (0, 0), BuildingBlock: EZIPEK_clean_linker_0, # of connection points: 2
#     Edge 41, Type (0, 0), BuildingBlock: EZIPEK_clean_linker_0, # of connection points: 2
#     Edge 42, Type (0, 0), BuildingBlock: EZIPEK_clean_linker_0, # of connection points: 2
#     Edge 43, Type (0, 0), BuildingBlock: EZIPEK_clean_linker_0, # of connection points: 2
#     Edge 44, Type (0, 0), BuildingBlock: EZIPEK_clean_linker_0, # of connection points: 2
#     Edge 45, Type (0, 0), BuildingBlock: EZIPEK_clean_linker_0, # of connection points: 2
#     Edge 46, Type (0, 0), BuildingBlock: EZIPEK_clean_linker_0, # of connection points: 2
#     Edge 47, Type (0, 0), BuildingBlock: EZIPEK_clean_linker_0, # of connection points: 2
#     Edge 48, Type (0, 0), BuildingBlock: EZIPEK_clean_linker_0, # of connection points: 2
#     Edge 49, Type (0, 0), BuildingBlock: EZIPEK_clean_linker_0, # of connection points: 2
#     Edge 50, Type (0, 0), BuildingBlock: EZIPEK_clean_linker_0, # of connection points: 2
#     Edge 51, Type (0, 0), BuildingBlock: EZIPEK_clean_linker_0, # of connection points: 2
#     Edge 52, Type (0, 0), BuildingBlock: EZIPEK_clean_linker_0, # of connection points: 2
#     Edge 53, Type (0, 0), BuildingBlock: EZIPEK_clean_linker_0, # of connection points: 2
#     Edge 54, Type (0, 0), BuildingBlock: EZIPEK_clean_linker_0, # of connection points: 2
#     Edge 55, Type (0, 0), BuildingBlock: EZIPEK_clean_linker_0, # of connection points: 2
#     Edge 56, Type (0, 0), BuildingBlock: EZIPEK_clean_linker_0, # of connection points: 2
#     Edge 57, Type (0, 0), BuildingBlock: EZIPEK_clean_linker_0, # of connection points: 2
#     Edge 58, Type (0, 0), BuildingBlock: EZIPEK_clean_linker_0, # of connection points: 2
#     Edge 59, Type (0, 0), BuildingBlock: EZIPEK_clean_linker_0, # of connection points: 2
#     Edge 60, Type (0, 0), BuildingBlock: EZIPEK_clean_linker_0, # of connection points: 2
#     Edge 61, Type (0, 0), BuildingBlock: EZIPEK_clean_linker_0, # of connection points: 2
#     Edge 62, Type (0, 0), BuildingBlock: EZIPEK_clean_linker_0, # of connection points: 2
#     Edge 63, Type (0, 0), BuildingBlock: EZIPEK_clean_linker_0, # of connection points: 2
#     Edge 64, Type (0, 0), BuildingBlock: EZIPEK_clean_linker_0, # of connection points: 2
#     Edge 65, Type (0, 0), BuildingBlock: EZIPEK_clean_linker_0, # of connection points: 2
#     Edge 66, Type (0, 0), BuildingBlock: EZIPEK_clean_linker_0, # of connection points: 2
#     Edge 67, Type (0, 0), BuildingBlock: EZIPEK_clean_linker_0, # of connection points: 2
#     Edge 68, Type (0, 0), BuildingBlock: EZIPEK_clean_linker_0, # of connection points: 2
#     Edge 69, Type (0, 0), BuildingBlock: EZIPEK_clean_linker_0, # of connection points: 2
#     Edge 70, Type (0, 0), BuildingBlock: EZIPEK_clean_linker_0, # of connection points: 2
#     Edge 71, Type (0, 0), BuildingBlock: EZIPEK_clean_linker_0, # of connection points: 2
#     Edge 72, Type (0, 0), BuildingBlock: EZIPEK_clean_linker_0, # of connection points: 2
#     Edge 73, Type (0, 0), BuildingBlock: EZIPEK_clean_linker_0, # of connection points: 2
#     Edge 74, Type (0, 0), BuildingBlock: EZIPEK_clean_linker_0, # of connection points: 2
#     Edge 75, Type (0, 0), BuildingBlock: EZIPEK_clean_linker_0, # of connection points: 2
#     Edge 76, Type (0, 0), BuildingBlock: EZIPEK_clean_linker_0, # of connection points: 2
#     Edge 77, Type (0, 0), BuildingBlock: EZIPEK_clean_linker_0, # of connection points: 2
#     Edge 78, Type (0, 0), BuildingBlock: EZIPEK_clean_linker_0, # of connection points: 2
#     Edge 79, Type (0, 0), BuildingBlock: EZIPEK_clean_linker_0, # of connection points: 2
#     Edge 80, Type (0, 0), BuildingBlock: EZIPEK_clean_linker_0, # of connection points: 2
#     Edge 81, Type (0, 0), BuildingBlock: EZIPEK_clean_linker_0, # of connection points: 2
#     Edge 82, Type (0, 0), BuildingBlock: EZIPEK_clean_linker_0, # of connection points: 2
#     Edge 83, Type (0, 0), BuildingBlock: EZIPEK_clean_linker_0, # of connection points: 2
#     Edge 84, Type (0, 0), BuildingBlock: EZIPEK_clean_linker_0, # of connection points: 2
#     Edge 85, Type (0, 0), BuildingBlock: EZIPEK_clean_linker_0, # of connection points: 2
#     Edge 86, Type (0, 0), BuildingBlock: EZIPEK_clean_linker_0, # of connection points: 2
#     Edge 87, Type (0, 0), BuildingBlock: EZIPEK_clean_linker_0, # of connection points: 2
#     Edge 88, Type (0, 0), BuildingBlock: EZIPEK_clean_linker_0, # of connection points: 2
#     Edge 89, Type (0, 0), BuildingBlock: EZIPEK_clean_linker_0, # of connection points: 2
#     Edge 90, Type (0, 0), BuildingBlock: EZIPEK_clean_linker_0, # of connection points: 2
#     Edge 91, Type (0, 0), BuildingBlock: EZIPEK_clean_linker_0, # of connection points: 2
#     Edge 92, Type (0, 0), BuildingBlock: EZIPEK_clean_linker_0, # of connection points: 2
#     Edge 93, Type (0, 0), BuildingBlock: EZIPEK_clean_linker_0, # of connection points: 2
#     Edge 94, Type (0, 0), BuildingBlock: EZIPEK_clean_linker_0, # of connection points: 2
#     Edge 95, Type (0, 0), BuildingBlock: EZIPEK_clean_linker_0, # of connection points: 2
# Relax obj value: 0.144
# Max RMSD: 0.131
# Mean RMSD: 0.131
data_MOF--net-uow--node1-QUQFOY_clean_sbu_1--edge1-EZIPEK_clean_linker_0
_symmetry_space_group_name_H-M    P1
_symmetry_Int_Tables_number       1
_symmetry_cell_setting            triclinic
loop_
_symmetry_equiv_pos_as_xyz
'x, y, z'
_cell_length_a     47.613559
_cell_length_b     47.633835
_cell_length_c     32.86822
_cell_angle_alpha  89.902552
_cell_angle_beta   89.981085
_cell_angle_gamma 90.114383
loop_
_atom_site_label
_atom_site_type_symbol
_atom_site_fract_x
_atom_site_fract_y
_atom_site_fract_z
_atom_type_partial_charge
O0 O 0.00976 0.39556 0.34544 0.0
Cd1 Cd 0.04927 0.41023 0.32957 0.0
Cd2 Cd 0.04543 0.36791 0.27667 0.0
O3 O 1.00308 0.37016 0.29016 0.0
O4 O 0.05165 0.45147 0.33938 0.0
O5 O 0.05361 0.43216 0.2779 0.0
C6 C 0.05338 0.45443 0.30037 0.0
C7 C 0.06101 0.35629 0.21122 0.0
C8 C 0.99406 0.38008 0.32361 0.0
C9 C 0.08456 0.36268 0.34972 0.0
O10 O 0.07041 0.35103 0.32163 0.0
O11 O 0.0824 0.3889 0.35593 0.0
O12 O 0.04853 0.33816 0.234 0.0
O13 O 0.06358 0.38163 0.2246 0.0
O14 O 0.87597 0.75876 0.5845 0.0
Cd15 Cd 0.8607 0.79835 0.57127 0.0
Cd16 Cd 0.90737 0.80071 0.52441 0.0
O17 O 0.90843 0.75803 0.53653 0.0
O18 O 0.81905 0.79865 0.57887 0.0
O19 O 0.83991 0.80625 0.51939 0.0
C20 C 0.81705 0.80379 0.54039 0.0
C21 C 0.91931 0.81684 0.45918 0.0
C22 C 0.8956 0.7461 0.56584 0.0
C23 C 0.90494 0.83598 0.60148 0.0
O24 O 0.91944 0.82626 0.57225 0.0
O25 O 0.87914 0.82962 0.60533 0.0
O26 O 0.93802 0.80705 0.4836 0.0
O27 O 0.89351 0.81713 0.47131 0.0
O28 O 0.50408 0.62218 0.83958 0.0
Cd29 Cd 0.46456 0.6074 0.8254 0.0
Cd30 Cd 0.46436 0.65253 0.77657 0.0
O31 O 0.50723 0.65165 0.78793 0.0
O32 O 0.46375 0.56571 0.83198 0.0
O33 O 0.45829 0.58742 0.7726 0.0
C34 C 0.4602 0.56429 0.79307 0.0
C35 C 0.44769 0.66385 0.71156 0.0
C36 C 0.51809 0.63996 0.819 0.0
C37 C 0.4279 0.65284 0.85265 0.0
O38 O 0.43929 0.66655 0.82382 0.0
O39 O 0.4327 0.62678 0.85724 0.0
O40 O 0.45888 0.68257 0.73467 0.0
O41 O 0.44659 0.63831 0.72466 0.0
O42 O 0.64775 0.25196 0.08215 0.0
Cd43 Cd 0.65711 0.21071 0.06833 0.0
Cd44 Cd 0.60547 0.21365 0.03182 0.0
O45 O 0.60601 0.2545 0.05309 0.0
O46 O 0.69825 0.20776 0.07959 0.0
O47 O 0.67999 0.20197 0.01821 0.0
C48 C 0.70192 0.20341 0.04127 0.0
C49 C 0.59388 0.20185 0.96486 0.0
C50 C 0.62533 0.26545 0.07467 0.0
C51 C 0.61132 0.17433 0.10286 0.0
O52 O 0.59544 0.18472 0.07576 0.0
O53 O 0.63727 0.18072 0.10449 0.0
O54 O 0.57499 0.21021 0.99019 0.0
O55 O 0.61968 0.2011 0.97701 0.0
O56 O 1.00458 0.6162 0.17974 0.0
Cd57 Cd 0.04587 0.608 0.19514 0.0
Cd58 Cd 0.03799 0.65316 0.24257 0.0
O59 O 0.99616 0.64649 0.2284 0.0
O60 O 0.0521 0.56688 0.18767 0.0
O61 O 0.05228 0.58795 0.24793 0.0
C62 C 0.05373 0.56512 0.22681 0.0
C63 C 0.05243 0.66523 0.30836 0.0
C64 C 0.98719 0.63112 0.19953 0.0
C65 C 0.07754 0.65819 0.17039 0.0
O66 O 0.06263 0.67016 0.1973 0.0
O67 O 0.07671 0.63165 0.16628 0.0
O68 O 0.03919 0.68283 0.28564 0.0
O69 O 0.05652 0.64019 0.2946 0.0
O70 O 0.65342 0.75737 0.42822 0.0
Cd71 Cd 0.66127 0.79904 0.44116 0.0
Cd72 Cd 0.61296 0.79355 0.48314 0.0
O73 O 0.61383 0.75248 0.46234 0.0
O74 O 0.70233 0.8036 0.4302 0.0
O75 O 0.68359 0.80793 0.4916 0.0
C76 C 0.7057 0.80706 0.46881 0.0
C77 C 0.60257 0.80715 0.5498 0.0
C78 C 0.63217 0.74267 0.43799 0.0
C79 C 0.61233 0.83196 0.41024 0.0
O80 O 0.59903 0.82061 0.43939 0.0
O81 O 0.6385 0.82749 0.40545 0.0
O82 O 0.58357 0.79663 0.52641 0.0
O83 O 0.62801 0.80858 0.53627 0.0
O84 O 0.50546 0.3961 0.67208 0.0
Cd85 Cd 0.4659 0.41144 0.68465 0.0
Cd86 Cd 0.46505 0.36815 0.73693 0.0
O87 O 0.50736 0.36591 0.72311 0.0
O88 O 0.46548 0.45295 0.67665 0.0
O89 O 0.45871 0.43225 0.73654 0.0
C90 C 0.46117 0.45504 0.71536 0.0
C91 C 0.45036 0.35497 0.80273 0.0
C92 C 0.5186 0.37746 0.69216 0.0
C93 C 0.42923 0.36579 0.65957 0.0
O94 O 0.43953 0.35388 0.69074 0.0
O95 O 0.43489 0.39131 0.65174 0.0
O96 O 0.459 0.33687 0.77664 0.0
O97 O 0.45059 0.38103 0.79193 0.0
O98 O 0.86486 0.25562 0.93265 0.0
Cd99 Cd 0.85775 0.21353 0.94404 0.0
Cd100 Cd 0.90719 0.21871 0.98464 0.0
O101 O 0.9054 0.25992 0.96454 0.0
O102 O 0.81655 0.20843 0.93502 0.0
O103 O 0.83707 0.2026 0.99502 0.0
C104 C 0.81436 0.20355 0.9735 0.0
C105 C 0.9196 0.20615 0.05114 0.0
C106 C 0.88628 0.27021 0.94193 0.0
C107 C 0.90612 0.18098 0.91093 0.0
O108 O 0.91994 0.19165 0.94008 0.0
O109 O 0.88002 0.18598 0.90675 0.0
O110 O 0.93789 0.2162 0.02614 0.0
O111 O 0.89384 0.20422 0.0391 0.0
O112 O 0.01244 0.61615 0.67976 0.0
Cd113 Cd 0.97076 0.60605 0.68921 0.0
Cd114 Cd 0.9733 0.65109 0.73782 0.0
O115 O 0.01592 0.6495 0.72546 0.0
O116 O 0.96709 0.56466 0.68105 0.0
O117 O 0.96064 0.58559 0.74064 0.0
C118 C 0.96224 0.56272 0.71962 0.0
C119 C 0.95773 0.66256 0.80368 0.0
C120 C 0.02745 0.6338 0.69899 0.0
C121 C 0.93849 0.65441 0.65997 0.0
O122 O 0.94917 0.66636 0.69083 0.0
O123 O 0.9426 0.62842 0.65353 0.0
O124 O 0.96792 0.68122 0.7794 0.0
O125 O 0.95698 0.63694 0.79095 0.0
O126 O 0.15079 0.25445 0.42446 0.0
Cd127 Cd 0.1605 0.21358 0.44023 0.0
Cd128 Cd 0.11241 0.21895 0.48287 0.0
O129 O 0.11288 0.25988 0.46231 0.0
O130 O 0.20203 0.21001 0.43337 0.0
O131 O 0.18045 0.20695 0.4931 0.0
C132 C 0.20354 0.20755 0.47242 0.0
C133 C 0.10185 0.20556 0.54957 0.0
C134 C 0.13016 0.26934 0.43608 0.0
C135 C 0.113 0.17827 0.41224 0.0
O136 O 0.09938 0.19105 0.43972 0.0
O137 O 0.13931 0.18219 0.40819 0.0
O138 O 0.08277 0.21542 0.52573 0.0
O139 O 0.12739 0.20466 0.53644 0.0
O140 O 0.50918 0.39307 0.17099 0.0
Cd141 Cd 0.54906 0.40753 0.18486 0.0
Cd142 Cd 0.5462 0.36544 0.23865 0.0
O143 O 0.50361 0.36773 0.22675 0.0
O144 O 0.55192 0.44868 0.17391 0.0
O145 O 0.55442 0.42998 0.23578 0.0
C146 C 0.55422 0.45204 0.21278 0.0
C147 C 0.56276 0.35451 0.30393 0.0
C148 C 0.49394 0.37756 0.19357 0.0
C149 C 0.58331 0.35935 0.16358 0.0
O150 O 0.57006 0.34799 0.19288 0.0
O151 O 0.58115 0.38555 0.15699 0.0
O152 O 0.55006 0.33612 0.28197 0.0
O153 O 0.56518 0.37969 0.28976 0.0
O154 O 0.36378 0.75544 0.92548 0.0
Cd155 Cd 0.35445 0.79734 0.93448 0.0
Cd156 Cd 0.4007 0.79432 0.98211 0.0
O157 O 0.39794 0.75172 0.96994 0.0
O158 O 0.31301 0.80138 0.92704 0.0
O159 O 0.33471 0.80818 0.98602 0.0
C160 C 0.31158 0.80666 0.9655 0.0
C161 C 0.4141 0.80963 0.04739 0.0
C162 C 0.38144 0.74026 0.94439 0.0
C163 C 0.4028 0.82965 0.90448 0.0
O164 O 0.4152 0.81869 0.93476 0.0
O165 O 0.37674 0.82547 0.89855 0.0
O166 O 0.43196 0.79928 0.02215 0.0
O167 O 0.38816 0.81062 0.03601 0.0
O168 O 1.0043 0.3962 0.84764 0.0
Cd169 Cd 0.96475 0.41139 0.83341 0.0
Cd170 Cd 0.96621 0.36839 0.78068 0.0
O171 O 0.00849 0.36815 0.79455 0.0
O172 O 0.96357 0.45314 0.83892 0.0
O173 O 0.9589 0.43076 0.77999 0.0
C174 C 0.96039 0.45412 0.79989 0.0
C175 C 0.95177 0.35532 0.71481 0.0
C176 C 0.01868 0.37902 0.82665 0.0
C177 C 0.92807 0.36526 0.85594 0.0
O178 O 0.94019 0.35351 0.82605 0.0
O179 O 0.93217 0.39115 0.86314 0.0
O180 O 0.96111 0.33726 0.74055 0.0
O181 O 0.95143 0.3813 0.72589 0.0
O182 O 0.3723 0.25716 0.58988 0.0
Cd183 Cd 0.35761 0.21728 0.57681 0.0
Cd184 Cd 0.40172 0.21845 0.52467 0.0
O185 O 0.40147 0.26089 0.53787 0.0
O186 O 0.31624 0.21591 0.58581 0.0
O187 O 0.33627 0.2102 0.52528 0.0
C188 C 0.31373 0.21176 0.54715 0.0
C189 C 0.41587 0.20388 0.45917 0.0
C190 C 0.3898 0.27144 0.56913 0.0
C191 C 0.40355 0.18096 0.60096 0.0
O192 O 0.41576 0.19259 0.57092 0.0
O193 O 0.37768 0.18537 0.60767 0.0
O194 O 0.43352 0.21319 0.48553 0.0
O195 O 0.38971 0.20358 0.46948 0.0
O196 O 0.5095 0.6142 0.33785 0.0
Cd197 Cd 0.55006 0.60532 0.31943 0.0
Cd198 Cd 0.54324 0.6547 0.27892 0.0
O199 O 0.50283 0.65275 0.30165 0.0
O200 O 0.5552 0.56387 0.32544 0.0
O201 O 0.55513 0.58581 0.2658 0.0
C202 C 0.55633 0.56264 0.28626 0.0
C203 C 0.55467 0.6677 0.21223 0.0
C204 C 0.49414 0.63486 0.32763 0.0
C205 C 0.58569 0.65281 0.34733 0.0
O206 O 0.57217 0.66698 0.32117 0.0
O207 O 0.58199 0.62641 0.35045 0.0
O208 O 0.55645 0.6418 0.22369 0.0
O209 O 0.54495 0.68574 0.23777 0.0
O210 O 0.14636 0.76319 0.08832 0.0
Cd211 Cd 0.15709 0.8035 0.07013 0.0
Cd212 Cd 0.10851 0.79777 0.02801 0.0
O213 O 0.10815 0.7575 0.05111 0.0
O214 O 0.19848 0.80701 0.07901 0.0
O215 O 0.17866 0.809 0.01802 0.0
C216 C 0.20114 0.80902 0.04004 0.0
C217 C 0.09712 0.80916 0.96078 0.0
C218 C 0.12526 0.74845 0.0778 0.0
C219 C 0.11028 0.84027 0.09636 0.0
O220 O 0.0963 0.82709 0.06962 0.0
O221 O 0.1365 0.83594 0.10047 0.0
O222 O 0.0783 0.80027 0.98589 0.0
O223 O 0.12287 0.81021 0.97302 0.0
O224 O 0.5092 0.89073 0.83542 0.0
Cd225 Cd 0.54899 0.90613 0.82286 0.0
Cd226 Cd 0.54836 0.86232 0.77041 0.0
O227 O 0.50562 0.86338 0.78152 0.0
O228 O 0.55008 0.94719 0.83456 0.0
O229 O 0.55616 0.92925 0.77283 0.0
C230 C 0.55444 0.95103 0.79616 0.0
C231 C 0.56456 0.84962 0.70547 0.0
C232 C 0.49499 0.87388 0.81357 0.0
C233 C 0.58451 0.85959 0.84745 0.0
O234 O 0.57268 0.84727 0.81771 0.0
O235 O 0.58083 0.88567 0.85327 0.0
O236 O 0.55293 0.83159 0.72933 0.0
O237 O 0.56646 0.87528 0.71778 0.0
O238 O 0.37179 0.25714 0.09015 0.0
Cd239 Cd 0.35596 0.29672 0.07824 0.0
Cd240 Cd 0.39916 0.29855 0.02575 0.0
O241 O 0.402 0.25618 0.03913 0.0
O242 O 0.3143 0.29707 0.08537 0.0
O243 O 0.33561 0.3044 0.02608 0.0
C244 C 0.31261 0.30188 0.04674 0.0
C245 C 0.41141 0.31385 0.95988 0.0
C246 C 0.39062 0.24446 0.06984 0.0
C247 C 0.40113 0.33429 0.10308 0.0
O248 O 0.41319 0.32432 0.07185 0.0
O249 O 0.37581 0.3279 0.11116 0.0
O250 O 0.42994 0.30532 0.98548 0.0
O251 O 0.38547 0.3131 0.97118 0.0
O252 O 1.00547 0.11564 0.3311 0.0
Cd253 Cd 0.96348 0.10944 0.31793 0.0
Cd254 Cd 0.9708 0.15802 0.27672 0.0
O255 O 0.01176 0.15535 0.29766 0.0
O256 O 0.95686 0.06873 0.329 0.0
O257 O 0.95375 0.0876 0.26746 0.0
C258 C 0.9534 0.06553 0.29037 0.0
C259 C 0.95836 0.16932 0.20983 0.0
C260 C 0.02094 0.1364 0.32156 0.0
C261 C 0.93212 0.15902 0.34933 0.0
O262 O 0.94393 0.17228 0.3205 0.0
O263 O 0.93579 0.13272 0.35369 0.0
O264 O 0.96911 0.18784 0.2338 0.0
O265 O 0.95585 0.14388 0.22306 0.0
O266 O 0.1445 0.76185 0.58118 0.0
Cd267 Cd 0.15506 0.72071 0.56907 0.0
Cd268 Cd 0.10524 0.72207 0.52844 0.0
O269 O 0.10761 0.76462 0.54138 0.0
O270 O 0.19651 0.71795 0.57755 0.0
O271 O 0.17618 0.71261 0.51737 0.0
C272 C 0.19886 0.71397 0.53889 0.0
C273 C 0.09288 0.70621 0.46358 0.0
C274 C 0.12519 0.77648 0.565 0.0
C275 C 0.10945 0.68497 0.60294 0.0
O276 O 0.09397 0.69594 0.57582 0.0
O277 O 0.13558 0.69041 0.60456 0.0
O278 O 0.07442 0.71675 0.48779 0.0
O279 O 0.11871 0.70536 0.47555 0.0
O280 O 0.5092 0.11457 0.68367 0.0
Cd281 Cd 0.55078 0.10654 0.69674 0.0
Cd282 Cd 0.54672 0.15608 0.73615 0.0
O283 O 0.50591 0.15557 0.71434 0.0
O284 O 0.55467 0.06516 0.68867 0.0
O285 O 0.56 0.08597 0.74849 0.0
C286 C 0.55863 0.06314 0.72737 0.0
C287 C 0.55846 0.16725 0.80341 0.0
C288 C 0.49532 0.13661 0.69174 0.0
C289 C 0.58535 0.15387 0.66366 0.0
O290 O 0.57493 0.16815 0.69249 0.0
O291 O 0.57949 0.1279 0.65977 0.0
O292 O 0.54941 0.18614 0.77857 0.0
O293 O 0.55986 0.14164 0.79068 0.0
O294 O 0.1439 0.26083 0.92664 0.0
Cd295 Cd 0.15846 0.30037 0.94131 0.0
Cd296 Cd 0.11532 0.29801 0.99315 0.0
O297 O 0.11588 0.25556 0.97968 0.0
O298 O 0.19989 0.30175 0.93219 0.0
O299 O 0.18002 0.30604 0.99305 0.0
C300 C 0.20252 0.30454 0.97111 0.0
C301 C 0.10356 0.31411 0.05827 0.0
C302 C 0.12687 0.24595 0.94725 0.0
C303 C 0.11119 0.33508 0.91752 0.0
O304 O 0.09938 0.32248 0.94701 0.0
O305 O 0.13729 0.33194 0.91082 0.0
O306 O 0.08522 0.30234 0.03516 0.0
O307 O 0.12911 0.31583 0.04535 0.0
O308 O 1.00408 0.90569 0.17596 0.0
Cd309 Cd 0.96212 0.91137 0.1895 0.0
Cd310 Cd 0.97007 0.86452 0.23344 0.0
O311 O 0.01085 0.86707 0.2117 0.0
O312 O 0.95468 0.95224 0.18095 0.0
O313 O 0.95257 0.93136 0.24131 0.0
C314 C 0.95148 0.9541 0.21984 0.0
C315 C 0.95799 0.8541 0.30079 0.0
C316 C 0.01974 0.88536 0.18645 0.0
C317 C 0.93128 0.86069 0.16113 0.0
O318 O 0.94323 0.84862 0.19086 0.0
O319 O 0.93463 0.88688 0.15495 0.0
O320 O 0.96901 0.83543 0.27743 0.0
O321 O 0.95512 0.87927 0.28676 0.0
O322 O 0.36918 0.7534 0.41969 0.0
Cd323 Cd 0.35404 0.71433 0.43695 0.0
Cd324 Cd 0.39648 0.71838 0.4896 0.0
O325 O 0.39503 0.76046 0.47453 0.0
O326 O 0.31268 0.71186 0.42735 0.0
O327 O 0.3322 0.7113 0.48882 0.0
C328 C 0.30987 0.71094 0.46643 0.0
C329 C 0.40729 0.7037 0.55587 0.0
C330 C 0.38512 0.76911 0.44082 0.0
C331 C 0.40153 0.67859 0.41755 0.0
O332 O 0.41334 0.69287 0.44534 0.0
O333 O 0.37525 0.68073 0.41161 0.0
O334 O 0.42582 0.71548 0.53297 0.0
O335 O 0.38205 0.70123 0.54201 0.0
O336 O 0.51095 0.11263 0.17989 0.0
Cd337 Cd 0.469 0.10425 0.19005 0.0
Cd338 Cd 0.47406 0.14969 0.23847 0.0
O339 O 0.51657 0.14538 0.22608 0.0
O340 O 0.46411 0.06295 0.18252 0.0
O341 O 0.45894 0.0845 0.24194 0.0
C342 C 0.45987 0.06143 0.22126 0.0
C343 C 0.4588 0.16302 0.30384 0.0
C344 C 0.52706 0.12912 0.19939 0.0
C345 C 0.43824 0.15366 0.16138 0.0
O346 O 0.4502 0.16539 0.19143 0.0
O347 O 0.44099 0.12745 0.15528 0.0
O348 O 0.47008 0.18072 0.27906 0.0
O349 O 0.45704 0.13723 0.29204 0.0
O350 O 0.64956 0.75485 0.93485 0.0
Cd351 Cd 0.65671 0.71327 0.9485 0.0
Cd352 Cd 0.60727 0.71859 0.98817 0.0
O353 O 0.60865 0.75925 0.96565 0.0
O354 O 0.69801 0.70861 0.94047 0.0
O355 O 0.67701 0.70391 1.00037 0.0
C356 C 0.6999 0.70485 0.97924 0.0
C357 C 0.59414 0.70674 0.05474 0.0
C358 C 0.62775 0.76918 0.94257 0.0
C359 C 0.60867 0.68008 0.91553 0.0
O360 O 0.59479 0.69078 0.94456 0.0
O361 O 0.63479 0.68517 0.91147 0.0
O362 O 0.57616 0.71658 0.02917 0.0
O363 O 0.62004 0.70489 0.04334 0.0
O364 O 1.0046 0.89923 0.68388 0.0
Cd365 Cd 0.04612 0.90863 0.6954 0.0
Cd366 Cd 0.04302 0.85941 0.73755 0.0
O367 O 1.00053 0.86301 0.72479 0.0
O368 O 0.04957 0.94986 0.68528 0.0
O369 O 0.05561 0.93046 0.74601 0.0
C370 C 0.05417 0.95279 0.72371 0.0
C371 C 0.05857 0.8473 0.80277 0.0
C372 C 0.9893 0.88059 0.70056 0.0
C373 C 0.07949 0.86129 0.66218 0.0
O374 O 0.06821 0.84661 0.69005 0.0
O375 O 0.0752 0.8876 0.65987 0.0
O376 O 0.04712 0.82897 0.77919 0.0
O377 O 0.0606 0.87287 0.78986 0.0
O378 O 0.87004 0.26177 0.42611 0.0
Cd379 Cd 0.85512 0.30132 0.43979 0.0
Cd380 Cd 0.89813 0.3005 0.4923 0.0
O381 O 0.8989 0.25812 0.47844 0.0
O382 O 0.81351 0.30231 0.43287 0.0
O383 O 0.83502 0.30782 0.4924 0.0
C384 C 0.81196 0.30589 0.47177 0.0
C385 C 0.91113 0.31499 0.55822 0.0
C386 C 0.88775 0.24771 0.44664 0.0
C387 C 0.90134 0.3375 0.41593 0.0
O388 O 0.91313 0.32604 0.44636 0.0
O389 O 0.87562 0.33279 0.40823 0.0
O390 O 0.92925 0.30586 0.53245 0.0
O391 O 0.88515 0.3152 0.54707 0.0
O392 O 0.50699 0.89213 0.33676 0.0
Cd393 Cd 0.46702 0.90652 0.32363 0.0
Cd394 Cd 0.46837 0.86374 0.27024 0.0
O395 O 0.51085 0.86364 0.28414 0.0
O396 O 0.46532 0.94777 0.33361 0.0
O397 O 0.45983 0.92848 0.27258 0.0
C398 C 0.46134 0.95075 0.29496 0.0
C399 C 0.45416 0.85083 0.20405 0.0
C400 C 0.52128 0.87481 0.31591 0.0
C401 C 0.43121 0.85964 0.34643 0.0
O402 O 0.44279 0.84818 0.31587 0.0
O403 O 0.43583 0.88528 0.35464 0.0
O404 O 0.46346 0.83274 0.22979 0.0
O405 O 0.45363 0.87675 0.21539 0.0
O406 O 0.87144 0.7536 0.08981 0.0
Cd407 Cd 0.85631 0.71391 0.07667 0.0
Cd408 Cd 0.90225 0.71278 0.02763 0.0
O409 O 0.90317 0.75526 0.04087 0.0
O410 O 0.81506 0.71339 0.08728 0.0
O411 O 0.83374 0.70656 0.02617 0.0
C412 C 0.81168 0.7087 0.04891 0.0
C413 C 0.91608 0.69873 0.96191 0.0
C414 C 0.8905 0.76681 0.07053 0.0
C415 C 0.90094 0.67597 0.10386 0.0
O416 O 0.91472 0.68625 0.07424 0.0
O417 O 0.87526 0.68217 0.10912 0.0
O418 O 0.93399 0.70694 0.98868 0.0
O419 O 0.8899 0.69885 0.97216 0.0
O420 O 0.01046 0.12202 0.83694 0.0
Cd421 Cd 0.05054 0.1081 0.82425 0.0
Cd422 Cd 0.04862 0.15101 0.77126 0.0
O423 O 1.00583 0.14859 0.7823 0.0
O424 O 0.05244 0.0667 0.8335 0.0
O425 O 0.05784 0.08677 0.77287 0.0
C426 C 0.0562 0.06422 0.79474 0.0
C427 C 0.06456 0.16361 0.70608 0.0
C428 C 0.99567 0.13815 0.81482 0.0
C429 C 0.08378 0.15617 0.84904 0.0
O430 O 0.07172 0.16764 0.81877 0.0
O431 O 0.08101 0.13002 0.8557 0.0
O432 O 0.05225 0.18143 0.72936 0.0
O433 O 0.06739 0.13821 0.71916 0.0
O434 O 0.64391 0.25807 0.58925 0.0
Cd435 Cd 0.65788 0.29813 0.57639 0.0
Cd436 Cd 0.61629 0.29564 0.52227 0.0
O437 O 0.61866 0.2528 0.53351 0.0
O438 O 0.69916 0.30045 0.58613 0.0
O439 O 0.6795 0.3053 0.52515 0.0
C440 C 0.7019 0.30407 0.54734 0.0
C441 C 0.60509 0.31258 0.45721 0.0
C442 C 0.62841 0.24295 0.56665 0.0
C443 C 0.60951 0.33113 0.59925 0.0
O444 O 0.59865 0.31867 0.5689 0.0
O445 O 0.63557 0.32869 0.60682 0.0
O446 O 0.5868 0.2997 0.47922 0.0
O447 O 0.63028 0.31509 0.47124 0.0
C448 C 0.06331 0.35833 0.13474 0.0
C449 C 0.07363 0.34743 0.172 0.0
C450 C 0.10429 0.3149 0.13479 0.0
C451 C 0.09483 0.32661 0.09758 0.0
N452 N 0.06999 0.36321 0.06189 0.0
N453 N 0.10796 0.31971 0.20802 0.0
C454 C 0.0757 0.34947 0.0975 0.0
C455 C 0.09533 0.32698 0.17216 0.0
N456 N 0.04084 0.37617 0.1348 0.0
N457 N 0.12084 0.29147 0.13446 0.0
H458 H 0.10211 0.32826 0.23595 0.0
H459 H 0.12583 0.30722 0.20979 0.0
H460 H 0.12805 0.2822 0.10772 0.0
H461 H 0.1257 0.27997 0.16048 0.0
H462 H 0.03025 0.38226 0.10853 0.0
H463 H 0.03131 0.38324 0.16145 0.0
H464 H 0.05855 0.38179 0.06038 0.0
H465 H 0.07886 0.35749 0.03409 0.0
C466 C 0.95845 0.85795 0.37728 0.0
C467 C 0.94693 0.84606 0.34144 0.0
C468 C 0.9173 0.81476 0.38273 0.0
C469 C 0.9276 0.82777 0.41854 0.0
N470 N 0.95357 0.86549 0.44992 0.0
N471 N 0.91102 0.81776 0.3097 0.0
C472 C 0.94693 0.85047 0.41582 0.0
C473 C 0.92506 0.82579 0.34407 0.0
N474 N 0.98114 0.87549 0.37465 0.0
N475 N 0.90113 0.79108 0.38551 0.0
H476 H 0.91574 0.82565 0.28087 0.0
H477 H 0.89297 0.80537 0.31019 0.0
H478 H 0.89505 0.78222 0.41318 0.0
H479 H 0.89574 0.77881 0.36049 0.0
H480 H 0.99249 0.8823 0.39985 0.0
H481 H 0.99009 0.88149 0.347 0.0
H482 H 0.96523 0.88401 0.44929 0.0
H483 H 0.94521 0.86094 0.47853 0.0
C484 C 0.44771 0.66184 0.63509 0.0
C485 C 0.43563 0.67199 0.67163 0.0
C486 C 0.40435 0.70283 0.6324 0.0
C487 C 0.41559 0.69177 0.59584 0.0
N488 N 0.4434 0.65653 0.56201 0.0
N489 N 0.39863 0.69746 0.70536 0.0
C490 C 0.43594 0.67 0.59709 0.0
C491 C 0.41279 0.69112 0.67036 0.0
N492 N 0.47123 0.64544 0.63657 0.0
N493 N 0.3866 0.72533 0.63098 0.0
H494 H 0.404 0.68905 0.73363 0.0
H495 H 0.38005 0.70895 0.70592 0.0
H496 H 0.37984 0.73438 0.60379 0.0
H497 H 0.38027 0.73641 0.65667 0.0
H498 H 0.48294 0.64012 0.61097 0.0
H499 H 0.48042 0.6389 0.66377 0.0
H500 H 0.45584 0.63858 0.56139 0.0
H501 H 0.43501 0.6617 0.53367 0.0
C502 C 0.59015 0.1953 0.84916 0.0
C503 C 0.56824 0.1752 0.84482 0.0
C504 C 0.56629 0.1698 0.91905 0.0
C505 C 0.58575 0.19227 0.92343 0.0
N506 N 0.61298 0.22943 0.89271 0.0
N507 N 0.53239 0.14637 0.87574 0.0
C508 C 0.59689 0.20581 0.88849 0.0
C509 C 0.55551 0.16319 0.87981 0.0
N510 N 0.6053 0.20357 0.81586 0.0
N511 N 0.5589 0.15404 0.95219 0.0
H512 H 0.52369 0.14123 0.8476 0.0
H513 H 0.52033 0.13957 0.90032 0.0
H514 H 0.56678 0.15776 0.9813 0.0
H515 H 0.54717 0.13562 0.9502 0.0
H516 H 0.62337 0.21585 0.81775 0.0
H517 H 0.60151 0.19592 0.78666 0.0
H518 H 0.61905 0.242 0.86827 0.0
H519 H 0.6182 0.23795 0.92092 0.0
C520 C 0.05399 0.6623 0.38486 0.0
C521 C 0.0641 0.67431 0.34814 0.0
C522 C 0.09318 0.70745 0.38705 0.0
C523 C 0.08418 0.69449 0.42369 0.0
N524 N 0.06055 0.65619 0.45754 0.0
N525 N 0.09741 0.70429 0.31368 0.0
C526 C 0.06588 0.67091 0.42261 0.0
C527 C 0.0849 0.69575 0.34907 0.0
N528 N 0.03223 0.64355 0.38381 0.0
N529 N 0.10864 0.73165 0.38851 0.0
H530 H 0.09207 0.6961 0.28531 0.0
H531 H 0.11478 0.71759 0.31269 0.0
H532 H 0.11526 0.74078 0.4157 0.0
H533 H 0.11306 0.7439 0.36303 0.0
H534 H 0.02176 0.63649 0.4097 0.0
H535 H 0.02307 0.63666 0.35677 0.0
H536 H 0.04981 0.63714 0.45813 0.0
H537 H 0.06906 0.6617 0.48568 0.0
C538 C 0.57567 0.84231 0.59093 0.0
C539 C 0.59465 0.81933 0.58979 0.0
C540 C 0.59763 0.82006 0.66433 0.0
C541 C 0.576 0.84057 0.66553 0.0
N542 N 0.54177 0.86879 0.63021 0.0
N543 N 0.62158 0.78417 0.62519 0.0
C544 C 0.5644 0.8512 0.62888 0.0
C545 C 0.60523 0.80771 0.62644 0.0
N546 N 0.56909 0.85625 0.5558 0.0
N547 N 0.61152 0.81303 0.6993 0.0
H548 H 0.62767 0.77464 0.59805 0.0
H549 H 0.6273 0.77281 0.65098 0.0
H550 H 0.60683 0.82192 0.72748 0.0
H551 H 0.62935 0.80041 0.69987 0.0
H552 H 0.55778 0.87494 0.55519 0.0
H553 H 0.57721 0.85068 0.52747 0.0
H554 H 0.53033 0.87459 0.60455 0.0
H555 H 0.53289 0.87583 0.65734 0.0
C556 C 0.40832 0.34898 0.90184 0.0
C557 C 0.42019 0.32425 0.91896 0.0
C558 C 0.45494 0.32366 0.86403 0.0
C559 C 0.44047 0.3456 0.84365 0.0
N560 N 0.39853 0.37421 0.83964 0.0
N561 N 0.45005 0.2838 0.90883 0.0
C562 C 0.41575 0.35694 0.86149 0.0
C563 C 0.44211 0.31031 0.89785 0.0
N564 N 0.39104 0.36572 0.92438 0.0
N565 N 0.48145 0.31621 0.8524 0.0
H566 H 0.43985 0.2723 0.93147 0.0
H567 H 0.46438 0.27205 0.892 0.0
H568 H 0.4926 0.32682 0.82979 0.0
H569 H 0.49357 0.30187 0.8687 0.0
H570 H 0.3841 0.38525 0.91415 0.0
H571 H 0.38627 0.36183 0.9548 0.0
H572 H 0.37902 0.38077 0.85039 0.0
H573 H 0.40203 0.37934 0.80924 0.0
C574 C 0.91779 0.20861 0.12765 0.0
C575 C 0.92844 0.19586 0.09189 0.0
C576 C 0.9596 0.16624 0.13333 0.0
C577 C 0.94761 0.17768 0.16913 0.0
N578 N 0.91132 0.20547 0.20068 0.0
N579 N 0.95519 0.15868 0.06067 0.0
C580 C 0.92556 0.19768 0.16638 0.0
C581 C 0.94816 0.17356 0.09472 0.0
N582 N 0.90117 0.2319 0.12472 0.0
N583 N 0.98263 0.14924 0.13606 0.0
H584 H 0.94696 0.16308 0.03196 0.0
H585 H 0.9671 0.14038 0.06142 0.0
H586 H 0.99159 0.1434 0.16375 0.0
H587 H 0.99427 0.14284 0.11092 0.0
H588 H 0.8954 0.24404 0.14967 0.0
H589 H 0.89504 0.24056 0.09695 0.0
H590 H 0.89316 0.21762 0.20012 0.0
H591 H 0.91605 0.19765 0.22953 0.0
C592 C 0.96157 0.69167 0.86736 0.0
C593 C 0.94712 0.67077 0.84474 0.0
C594 C 0.91389 0.66561 0.90144 0.0
C595 C 0.92575 0.68955 0.9208 0.0
N596 N 0.95629 0.73003 0.91446 0.0
N597 N 0.9046 0.6432 0.83698 0.0
C598 C 0.94825 0.70399 0.90152 0.0
C599 C 0.92185 0.65919 0.86077 0.0
N600 N 0.98847 0.69906 0.85755 0.0
N601 N 0.89609 0.64815 0.92208 0.0
H602 H 0.90837 0.63945 0.80626 0.0
H603 H 0.88481 0.63652 0.84661 0.0
H604 H 0.89102 0.65079 0.95266 0.0
H605 H 0.88905 0.62915 0.91007 0.0
H606 H 1.00046 0.71262 0.87542 0.0
H607 H 0.99997 0.68904 0.83484 0.0
H608 H 0.97113 0.74214 0.89899 0.0
H609 H 0.94571 0.74096 0.93723 0.0
C610 C 0.07575 0.17003 0.59142 0.0
C611 C 0.09401 0.19365 0.58978 0.0
C612 C 0.09671 0.19394 0.66431 0.0
C613 C 0.07579 0.17264 0.66596 0.0
N614 N 0.04268 0.1427 0.63129 0.0
N615 N 0.11959 0.23023 0.6243 0.0
C616 C 0.06468 0.16115 0.62956 0.0
C617 C 0.10403 0.20611 0.62614 0.0
N618 N 0.06971 0.15552 0.55662 0.0
N619 N 0.11022 0.20191 0.69915 0.0
H620 H 0.12548 0.23967 0.59692 0.0
H621 H 0.1248 0.24212 0.64977 0.0
H622 H 0.10573 0.19318 0.72756 0.0
H623 H 0.12762 0.21518 0.69946 0.0
H624 H 0.059 0.13643 0.55642 0.0
H625 H 0.07767 0.16113 0.52817 0.0
H626 H 0.03154 0.13614 0.60574 0.0
H627 H 0.03397 0.13563 0.65857 0.0
C628 C 0.57679 0.3476 0.41782 0.0
C629 C 0.59663 0.32535 0.41787 0.0
C630 C 0.59797 0.32644 0.34328 0.0
C631 C 0.57559 0.34614 0.34325 0.0
N632 N 0.5417 0.37375 0.38003 0.0
N633 N 0.6244 0.29159 0.38112 0.0
C634 C 0.5646 0.35646 0.3804 0.0
C635 C 0.60697 0.31437 0.38072 0.0
N636 N 0.57019 0.36075 0.45352 0.0
N637 N 0.61109 0.31985 0.30754 0.0
H638 H 0.6317 0.28239 0.40792 0.0
H639 H 0.63002 0.28052 0.35509 0.0
H640 H 0.60518 0.32841 0.2796 0.0
H641 H 0.62936 0.30792 0.3059 0.0
H642 H 0.55814 0.37893 0.45508 0.0
H643 H 0.57888 0.35497 0.48144 0.0
H644 H 0.53063 0.37933 0.40609 0.0
H645 H 0.53242 0.38094 0.35324 0.0
C646 C 0.41965 0.85319 0.14506 0.0
C647 C 0.44419 0.84157 0.16308 0.0
C648 C 0.44519 0.80604 0.10928 0.0
C649 C 0.42354 0.82029 0.08791 0.0
N650 N 0.39574 0.86268 0.08177 0.0
N651 N 0.48485 0.81175 0.15412 0.0
C652 C 0.4123 0.84541 0.10466 0.0
C653 C 0.45835 0.81942 0.14276 0.0
N654 N 0.40243 0.87053 0.16674 0.0
N655 N 0.45251 0.77925 0.09905 0.0
H656 H 0.49631 0.82245 0.17626 0.0
H657 H 0.49667 0.79715 0.13788 0.0
H658 H 0.44189 0.76763 0.07703 0.0
H659 H 0.4667 0.76744 0.1161 0.0
H660 H 0.38309 0.87735 0.15565 0.0
H661 H 0.40563 0.87534 0.19728 0.0
H662 H 0.38923 0.88235 0.09192 0.0
H663 H 0.39139 0.85912 0.05116 0.0
C664 C 0.91651 0.3574 0.65692 0.0
C665 C 0.94144 0.34602 0.67412 0.0
C666 C 0.94243 0.31099 0.61967 0.0
C667 C 0.9204 0.32515 0.59903 0.0
N668 N 0.8916 0.36697 0.59448 0.0
N669 N 0.98229 0.31663 0.66416 0.0
C670 C 0.90882 0.34984 0.61657 0.0
C671 C 0.95566 0.32417 0.65325 0.0
N672 N 0.89932 0.37428 0.67936 0.0
N673 N 0.95009 0.28446 0.60855 0.0
H674 H 0.99374 0.32715 0.68649 0.0
H675 H 0.99418 0.30233 0.64749 0.0
H676 H 0.93952 0.27303 0.58626 0.0
H677 H 0.96454 0.27261 0.62505 0.0
H678 H 0.87973 0.38089 0.66894 0.0
H679 H 0.90286 0.37891 0.70989 0.0
H680 H 0.88483 0.38641 0.60517 0.0
H681 H 0.88682 0.36354 0.56397 0.0
C682 C 0.46227 0.19385 0.36601 0.0
C683 C 0.44784 0.17252 0.34418 0.0
C684 C 0.41403 0.16921 0.40044 0.0
C685 C 0.42584 0.19358 0.41871 0.0
N686 N 0.45677 0.23363 0.41052 0.0
N687 N 0.40482 0.14563 0.33689 0.0
C688 C 0.44867 0.20728 0.39905 0.0
C689 C 0.42221 0.16177 0.36024 0.0
N690 N 0.48941 0.20061 0.35661 0.0
N691 N 0.39609 0.15224 0.4217 0.0
H692 H 0.40862 0.14132 0.30633 0.0
H693 H 0.38487 0.13948 0.34658 0.0
H694 H 0.39103 0.15545 0.45216 0.0
H695 H 0.38904 0.13303 0.41043 0.0
H696 H 0.50129 0.21453 0.37402 0.0
H697 H 0.50112 0.18974 0.33497 0.0
H698 H 0.47192 0.24512 0.3947 0.0
H699 H 0.44597 0.24534 0.43223 0.0
C700 C 0.58774 0.69665 0.16973 0.0
C701 C 0.56525 0.677 0.17182 0.0
C702 C 0.56455 0.67424 0.0973 0.0
C703 C 0.58476 0.69622 0.09518 0.0
N704 N 0.61262 0.73133 0.1293 0.0
N705 N 0.52939 0.65009 0.13779 0.0
C706 C 0.59563 0.70821 0.13139 0.0
C707 C 0.5529 0.66654 0.13564 0.0
N708 N 0.60232 0.70346 0.20419 0.0
N709 N 0.5573 0.65989 0.06284 0.0
H710 H 0.52021 0.64406 0.16527 0.0
H711 H 0.51757 0.64445 0.11241 0.0
H712 H 0.56577 0.6644 0.0343 0.0
H713 H 0.545 0.64179 0.06311 0.0
H714 H 0.62074 0.71529 0.20393 0.0
H715 H 0.59761 0.69509 0.23274 0.0
H716 H 0.61864 0.7429 0.15472 0.0
H717 H 0.61876 0.74049 0.10185 0.0
C718 C 0.05851 0.85073 0.87922 0.0
C719 C 0.06969 0.83879 0.84319 0.0
C720 C 0.09865 0.80675 0.88418 0.0
C721 C 0.08875 0.81989 0.9201 0.0
N722 N 0.06414 0.85841 0.95162 0.0
N723 N 0.1046 0.80963 0.81101 0.0
C724 C 0.07008 0.84307 0.91756 0.0
C725 C 0.09099 0.81797 0.84556 0.0
N726 N 0.03598 0.86842 0.87703 0.0
N727 N 0.11443 0.78288 0.8869 0.0
H728 H 0.09996 0.81772 0.78228 0.0
H729 H 0.12223 0.79673 0.81121 0.0
H730 H 0.12049 0.77407 0.9146 0.0
H731 H 0.11958 0.77053 0.86188 0.0
H732 H 0.0249 0.87522 0.90249 0.0
H733 H 0.02675 0.87443 0.84961 0.0
H734 H 0.05309 0.87726 0.95094 0.0
H735 H 0.07256 0.85383 0.98017 0.0
C736 C 0.1004 0.34222 0.41736 0.0
C737 C 0.10331 0.3445 0.37444 0.0
C738 C 0.12603 0.2987 0.37211 0.0
C739 C 0.12414 0.29651 0.41528 0.0
N740 N 0.11774 0.32051 0.47923 0.0
N741 N 0.12862 0.33032 0.31461 0.0
C742 C 0.11405 0.31975 0.43804 0.0
C743 C 0.11975 0.32465 0.35327 0.0
N744 N 0.08334 0.36015 0.43821 0.0
N745 N 0.13097 0.27567 0.34838 0.0
H746 H 0.12457 0.34953 0.30043 0.0
H747 H 0.14248 0.31734 0.29886 0.0
H748 H 0.1325 0.25529 0.35959 0.0
H749 H 0.1299 0.27631 0.31672 0.0
H750 H 0.07797 0.35714 0.46865 0.0
H751 H 0.07296 0.37694 0.42464 0.0
H752 H 0.11286 0.33801 0.49681 0.0
H753 H 0.12856 0.30488 0.49501 0.0
C754 C 0.92553 0.83904 0.67154 0.0
C755 C 0.9195 0.85215 0.63362 0.0
C756 C 0.94921 0.89208 0.65267 0.0
C757 C 0.95975 0.8761 0.68574 0.0
N758 N 0.94616 0.84398 0.73867 0.0
N759 N 0.92346 0.89207 0.5889 0.0
C760 C 0.94418 0.85249 0.6991 0.0
C761 C 0.93035 0.87922 0.62473 0.0
N762 N 0.91517 0.81288 0.68 0.0
N763 N 0.95581 0.91991 0.6497 0.0
H764 H 0.90857 0.8838 0.5689 0.0
H765 H 0.93333 0.91016 0.57821 0.0
H766 H 0.96672 0.93037 0.67269 0.0
H767 H 0.94742 0.93331 0.62783 0.0
H768 H 0.9218 0.80088 0.70469 0.0
H769 H 0.90124 0.80229 0.66095 0.0
H770 H 0.93376 0.82816 0.75125 0.0
H771 H 0.95747 0.85547 0.76018 0.0
C772 C 0.37113 0.69928 0.89752 0.0
C773 C 0.38617 0.7104 0.93111 0.0
C774 C 0.4229 0.67514 0.92134 0.0
C775 C 0.41099 0.66842 0.88291 0.0
N776 N 0.37285 0.67218 0.83509 0.0
N777 N 0.41624 0.69761 0.98686 0.0
C778 C 0.38454 0.67958 0.87149 0.0
C779 C 0.40902 0.6948 0.94689 0.0
N780 N 0.34353 0.70613 0.89231 0.0
N781 N 0.44838 0.6643 0.93224 0.0
H782 H 0.40422 0.70948 0.00703 0.0
H783 H 0.43141 0.68534 1.00113 0.0
H784 H 0.45904 0.64948 0.91481 0.0
H785 H 0.45976 0.67125 0.95734 0.0
H786 H 0.33075 0.69734 0.87002 0.0
H787 H 0.33249 0.7177 0.91397 0.0
H788 H 0.35545 0.68221 0.82259 0.0
H789 H 0.38146 0.65672 0.81641 0.0
C790 C 0.59277 0.16888 0.17386 0.0
C791 C 0.59814 0.15692 0.13501 0.0
C792 C 0.56713 0.11747 0.15173 0.0
C793 C 0.55694 0.13289 0.1855 0.0
N794 N 0.57153 0.16275 0.24048 0.0
N795 N 0.59318 0.11842 0.08821 0.0
C796 C 0.57341 0.15539 0.20046 0.0
C797 C 0.58655 0.13044 0.12467 0.0
N798 N 0.60453 0.19408 0.18414 0.0
N799 N 0.55938 0.09006 0.14708 0.0
H800 H 0.60848 0.12679 0.06889 0.0
H801 H 0.58286 0.10093 0.07648 0.0
H802 H 0.54768 0.07949 0.1692 0.0
H803 H 0.56739 0.07696 0.12459 0.0
H804 H 0.59849 0.20562 0.20955 0.0
H805 H 0.61941 0.20424 0.16609 0.0
H806 H 0.58441 0.17772 0.2541 0.0
H807 H 0.55974 0.15102 0.26121 0.0
C808 C 0.09401 0.67673 0.10181 0.0
C809 C 0.0961 0.67623 0.14495 0.0
C810 C 0.11917 0.72204 0.14404 0.0
C811 C 0.11831 0.72229 0.10071 0.0
N812 N 0.11243 0.69586 0.03874 0.0
N813 N 0.11993 0.6932 0.20462 0.0
C814 C 0.10821 0.69826 0.07968 0.0
C815 C 0.11205 0.69707 0.16506 0.0
N816 N 0.07719 0.65795 0.082 0.0
N817 N 0.12408 0.74607 0.16567 0.0
H818 H 0.11544 0.67472 0.2205 0.0
H819 H 0.1335 0.70685 0.21978 0.0
H820 H 0.1265 0.76581 0.15251 0.0
H821 H 0.12219 0.747 0.19723 0.0
H822 H 0.07243 0.6596 0.05114 0.0
H823 H 0.06631 0.64191 0.09674 0.0
H824 H 0.10765 0.67771 0.02248 0.0
H825 H 0.12352 0.71084 0.02195 0.0
C826 C 0.56898 0.88335 0.34742 0.0
C827 C 0.54833 0.86422 0.33274 0.0
C828 C 0.57765 0.82502 0.35543 0.0
C829 C 0.59505 0.84394 0.37699 0.0
N830 N 0.60765 0.89123 0.39452 0.0
N831 N 0.53088 0.81625 0.33093 0.0
C832 C 0.59108 0.87323 0.3729 0.0
C833 C 0.55226 0.83482 0.33819 0.0
N834 N 0.56761 0.91101 0.33662 0.0
N835 N 0.58504 0.79739 0.35259 0.0
H836 H 0.51078 0.82214 0.32189 0.0
H837 H 0.53202 0.79506 0.33865 0.0
H838 H 0.60348 0.78955 0.36539 0.0
H839 H 0.57446 0.78311 0.33407 0.0
H840 H 0.58321 0.92557 0.34362 0.0
H841 H 0.55207 0.91882 0.3173 0.0
H842 H 0.60386 0.9127 0.39659 0.0
H843 H 0.62453 0.88424 0.41207 0.0
C844 C 0.37974 0.31936 0.5984 0.0
C845 C 0.39957 0.299 0.58511 0.0
C846 C 0.43779 0.32988 0.60715 0.0
C847 C 0.41813 0.34714 0.62743 0.0
N848 N 0.37034 0.35875 0.64343 0.0
N849 N 0.448 0.28297 0.58471 0.0
C850 C 0.389 0.34222 0.62302 0.0
C851 C 0.42881 0.30389 0.59086 0.0
N852 N 0.35225 0.31702 0.58698 0.0
N853 N 0.46528 0.33801 0.60454 0.0
H854 H 0.44271 0.2626 0.57621 0.0
H855 H 0.46908 0.28485 0.59275 0.0
H856 H 0.47258 0.35695 0.61652 0.0
H857 H 0.48007 0.32743 0.58693 0.0
H858 H 0.33725 0.33235 0.59294 0.0
H859 H 0.34505 0.30095 0.5681 0.0
H860 H 0.34894 0.35437 0.64527 0.0
H861 H 0.37671 0.37621 0.66025 0.0
C862 C 0.94832 0.1296 0.84698 0.0
C863 C 0.9686 0.14877 0.83128 0.0
C864 C 0.93952 0.18795 0.85448 0.0
C865 C 0.9227 0.16903 0.87705 0.0
N866 N 0.91042 0.12177 0.89545 0.0
N867 N 0.98564 0.19685 0.8275 0.0
C868 C 0.92663 0.13973 0.87308 0.0
C869 C 0.96458 0.17819 0.83622 0.0
N870 N 0.94977 0.10188 0.83665 0.0
N871 N 0.93193 0.21554 0.85165 0.0
H872 H 1.00548 0.19109 0.81722 0.0
H873 H 0.98457 0.21807 0.83497 0.0
H874 H 0.91372 0.22333 0.86517 0.0
H875 H 0.94204 0.22981 0.8325 0.0
H876 H 0.93442 0.08723 0.84444 0.0
H877 H 0.96511 0.0941 0.81701 0.0
H878 H 0.91423 0.1003 0.89757 0.0
H879 H 0.8938 0.12878 0.91347 0.0
C880 C 0.94633 0.69222 0.60975 0.0
C881 C 0.92735 0.6729 0.6275 0.0
C882 C 0.88829 0.69715 0.59395 0.0
C883 C 0.90681 0.71946 0.58317 0.0
N884 N 0.95329 0.74023 0.58947 0.0
N885 N 0.88004 0.65663 0.6376 0.0
C886 C 0.93591 0.71742 0.59274 0.0
C887 C 0.89821 0.67502 0.61953 0.0
N888 N 0.97449 0.6867 0.60992 0.0
N889 N 0.86146 0.69697 0.57927 0.0
H890 H 0.88694 0.63981 0.65533 0.0
H891 H 0.8583 0.65892 0.63676 0.0
H892 H 0.85389 0.71252 0.55977 0.0
H893 H 0.84767 0.68019 0.58326 0.0
H894 H 0.98907 0.6989 0.59409 0.0
H895 H 0.98282 0.66826 0.62215 0.0
H896 H 0.9739 0.74023 0.60012 0.0
H897 H 0.94657 0.76017 0.58095 0.0
C898 C 0.05111 0.13577 0.38529 0.0
C899 C 0.04849 0.14054 0.34256 0.0
C900 C 0.09429 0.16448 0.34282 0.0
C901 C 0.09664 0.1593 0.38525 0.0
N902 N 0.08309 0.13058 0.44206 0.0
N903 N 0.07214 0.1509 0.27933 0.0
C904 C 0.07716 0.14126 0.40447 0.0
C905 C 0.07166 0.15204 0.32083 0.0
N906 N 0.02836 0.129 0.4088 0.0
N907 N 0.11234 0.18257 0.32389 0.0
H908 H 0.05639 0.141 0.26253 0.0
H909 H 0.08952 0.15694 0.26211 0.0
H910 H 0.12952 0.19165 0.33842 0.0
H911 H 0.10928 0.18975 0.29425 0.0
H912 H 0.02927 0.12811 0.44045 0.0
H913 H 0.00787 0.12774 0.39805 0.0
H914 H 0.0705 0.11557 0.45634 0.0
H915 H 0.10217 0.13457 0.45664 0.0
C916 C 0.60776 0.31532 0.07338 0.0
C917 C 0.62007 0.29279 0.09534 0.0
C918 C 0.61866 0.32155 0.15707 0.0
C919 C 0.60068 0.34083 0.13738 0.0
N920 N 0.57638 0.35518 0.07614 0.0
N921 N 0.63263 0.27317 0.16127 0.0
C922 C 0.5951 0.33785 0.09512 0.0
C923 C 0.62482 0.29565 0.13796 0.0
N924 N 0.60838 0.31533 0.03184 0.0
N925 N 0.62933 0.32779 0.19456 0.0
H926 H 0.63511 0.25293 0.15007 0.0
H927 H 0.63343 0.27392 0.19294 0.0
H928 H 0.62534 0.3469 0.20895 0.0
H929 H 0.64442 0.31545 0.20898 0.0
H930 H 0.6019 0.33238 0.01432 0.0
H931 H 0.6182 0.29953 0.01513 0.0
H932 H 0.56907 0.35164 0.04671 0.0
H933 H 0.5666 0.37196 0.09056 0.0
C934 C 0.42464 0.87126 0.86875 0.0
C935 C 0.42075 0.84189 0.87222 0.0
C936 C 0.46387 0.83341 0.83403 0.0
C937 C 0.46781 0.8629 0.82944 0.0
N938 N 0.44845 0.90955 0.83389 0.0
N939 N 0.43106 0.7956 0.84724 0.0
C940 C 0.44699 0.88176 0.84405 0.0
C941 C 0.43839 0.82326 0.85073 0.0
N942 N 0.40772 0.88895 0.89026 0.0
N943 N 0.48529 0.81503 0.82636 0.0
H944 H 0.41247 0.78754 0.85945 0.0
H945 H 0.44184 0.78154 0.82869 0.0
H946 H 0.50537 0.82112 0.81743 0.0
H947 H 0.48416 0.79374 0.83348 0.0
H948 H 0.4114 0.91043 0.89283 0.0
H949 H 0.39064 0.88171 0.90725 0.0
H950 H 0.43274 0.92395 0.84079 0.0
H951 H 0.46421 0.91765 0.81516 0.0
C952 C 0.88564 0.30215 0.87997 0.0
C953 C 0.89076 0.29821 0.92238 0.0
C954 C 0.91558 0.34348 0.92425 0.0
C955 C 0.90992 0.3473 0.88213 0.0
N956 N 0.88041 0.33581 0.82525 0.0
N957 N 0.90214 0.31977 0.98668 0.0
C958 C 0.89149 0.3286 0.86213 0.0
C959 C 0.90291 0.32047 0.94516 0.0
N960 N 0.87796 0.28026 0.85546 0.0
N961 N 0.93433 0.36044 0.94384 0.0
H962 H 0.89212 0.30372 1.00278 0.0
H963 H 0.9086 0.33653 1.00476 0.0
H964 H 0.94392 0.37771 0.93021 0.0
H965 H 0.94173 0.35624 0.97306 0.0
H966 H 0.87688 0.28202 0.82389 0.0
H967 H 0.87596 0.2596 0.86526 0.0
H968 H 0.86503 0.32388 0.8107 0.0
H969 H 0.8844 0.35527 0.81171 0.0
C970 C 0.44589 0.15535 0.69231 0.0
C971 C 0.46799 0.14193 0.67083 0.0
C972 C 0.43905 0.14349 0.60916 0.0
C973 C 0.42084 0.16289 0.62801 0.0
N974 N 0.4078 0.18876 0.68847 0.0
N975 N 0.48668 0.12735 0.60506 0.0
C976 C 0.42408 0.16889 0.6701 0.0
C977 C 0.46474 0.13652 0.62836 0.0
N978 N 0.4456 0.15497 0.73386 0.0
N979 N 0.4321 0.13236 0.57223 0.0
H980 H 0.50689 0.124 0.61586 0.0
H981 H 0.48563 0.12614 0.57344 0.0
H982 H 0.41317 0.13708 0.55772 0.0
H983 H 0.44353 0.11628 0.55858 0.0
H984 H 0.42879 0.16241 0.751 0.0
H985 H 0.46072 0.14433 0.7509 0.0
H986 H 0.41176 0.19622 0.71771 0.0
H987 H 0.39157 0.19927 0.67376 0.0
C988 C 0.63096 0.71295 0.37382 0.0
C989 C 0.62674 0.71547 0.41672 0.0
C990 C 0.6009 0.67073 0.41641 0.0
C991 C 0.60546 0.6685 0.37386 0.0
N992 N 0.63378 0.68132 0.31634 0.0
N993 N 0.61602 0.69186 0.47988 0.0
C994 C 0.62396 0.68737 0.35436 0.0
C995 C 0.61448 0.69267 0.43841 0.0
N996 N 0.63876 0.73546 0.35047 0.0
N997 N 0.58234 0.65322 0.43548 0.0
H998 H 0.62676 0.70705 0.49665 0.0
H999 H 0.60942 0.67465 0.49703 0.0
H1000 H 0.57241 0.63658 0.42081 0.0
H1001 H 0.57564 0.65626 0.46533 0.0
H1002 H 0.63908 0.73482 0.31879 0.0
H1003 H 0.64164 0.75569 0.36144 0.0
H1004 H 0.64918 0.69328 0.30182 0.0
H1005 H 0.62867 0.6626 0.30153 0.0
C1006 C 0.09244 0.85616 0.16533 0.0
C1007 C 0.09448 0.86014 0.12259 0.0
C1008 C 0.04942 0.88436 0.12212 0.0
C1009 C 0.04709 0.88073 0.16514 0.0
N1010 N 0.07124 0.8719 0.22841 0.0
N1011 N 0.08101 0.88762 0.06454 0.0
C1012 C 0.07029 0.86956 0.18703 0.0
C1013 C 0.07519 0.87799 0.10278 0.0
N1014 N 0.11028 0.83828 0.18494 0.0
N1015 N 0.02662 0.89087 0.09863 0.0
H1016 H 0.09989 0.88297 0.04985 0.0
H1017 H 0.0686 0.90248 0.04971 0.0
H1018 H 1.00625 0.89282 0.10958 0.0
H1019 H 0.02729 0.89088 0.06694 0.0
H1020 H 0.10733 0.83198 0.21503 0.0
H1021 H 0.1271 0.82846 0.17064 0.0
H1022 H 0.08869 0.86611 0.24558 0.0
H1023 H 0.05587 0.88255 0.24491 0.0
C1024 C 0.62805 0.79823 0.87762 0.0
C1025 C 0.62271 0.79605 0.9203 0.0
C1026 C 0.59609 0.84011 0.91741 0.0
C1027 C 0.6021 0.84232 0.87515 0.0
N1028 N 0.63241 0.82945 0.81977 0.0
N1029 N 0.60989 0.81998 0.98218 0.0
C1030 C 0.62127 0.82349 0.85711 0.0
C1031 C 0.60948 0.81874 0.94068 0.0
N1032 N 0.637 0.7757 0.85539 0.0
N1033 N 0.57634 0.85694 0.93499 0.0
H1034 H 0.62041 0.80517 0.99994 0.0
H1035 H 0.60261 0.83724 0.99848 0.0
H1036 H 0.56583 0.8728 0.91944 0.0
H1037 H 0.5689 0.85375 0.96447 0.0
H1038 H 0.63804 0.77598 0.82372 0.0
H1039 H 0.64035 0.75574 0.86715 0.0
H1040 H 0.64836 0.81754 0.80662 0.0
H1041 H 0.62789 0.84806 0.80427 0.0
C1042 C 0.44642 0.38613 0.16199 0.0
C1043 C 0.46672 0.36701 0.17743 0.0
C1044 C 0.43683 0.32766 0.15659 0.0
C1045 C 0.41947 0.34647 0.1348 0.0
N1046 N 0.4073 0.39356 0.11557 0.0
N1047 N 0.48342 0.31896 0.18203 0.0
C1048 C 0.42392 0.37579 0.1375 0.0
C1049 C 0.46234 0.33756 0.17347 0.0
N1050 N 0.44852 0.41401 0.17117 0.0
N1051 N 0.42926 0.30005 0.16018 0.0
H1052 H 0.50341 0.32486 0.19159 0.0
H1053 H 0.48215 0.29764 0.1752 0.0
H1054 H 0.41076 0.29203 0.1477 0.0
H1055 H 0.43978 0.2859 0.17895 0.0
H1056 H 0.4332 0.4287 0.16369 0.0
H1057 H 0.46449 0.42202 0.18959 0.0
H1058 H 0.41132 0.41495 0.11244 0.0
H1059 H 0.39007 0.38645 0.09882 0.0
C1060 C 0.88047 0.20001 0.41497 0.0
C1061 C 0.89907 0.22132 0.42901 0.0
C1062 C 0.93892 0.19416 0.40352 0.0
C1063 C 0.9202 0.17614 0.38268 0.0
N1064 N 0.87304 0.16142 0.36768 0.0
N1065 N 0.94622 0.24096 0.42873 0.0
C1066 C 0.89087 0.17864 0.38855 0.0
C1067 C 0.92845 0.21885 0.42186 0.0
N1068 N 0.85307 0.20011 0.42724 0.0
N1069 N 0.96692 0.18794 0.40495 0.0
H1070 H 0.9397 0.26057 0.43889 0.0
H1071 H 0.96721 0.24092 0.41972 0.0
H1072 H 0.97526 0.16991 0.39164 0.0
H1073 H 0.98116 0.19902 0.42292 0.0
H1074 H 0.839 0.18395 0.42079 0.0
H1075 H 0.84511 0.21518 0.44714 0.0
H1076 H 0.85135 0.16417 0.36701 0.0
H1077 H 0.88026 0.14512 0.34928 0.0
C1078 C 0.09009 0.67826 0.67326 0.0
C1079 C 0.09605 0.66699 0.6342 0.0
C1080 C 0.06779 0.62543 0.65041 0.0
C1081 C 0.05689 0.63975 0.68473 0.0
N1082 N 0.06962 0.67021 0.73998 0.0
N1083 N 0.09296 0.62886 0.58636 0.0
C1084 C 0.07181 0.66328 0.69983 0.0
C1085 C 0.08601 0.63998 0.6233 0.0
N1086 N 0.10034 0.70405 0.68387 0.0
N1087 N 0.06197 0.59759 0.6453 0.0
H1088 H 0.10738 0.63841 0.56679 0.0
H1089 H 0.08357 0.61092 0.5744 0.0
H1090 H 0.0513 0.58598 0.66743 0.0
H1091 H 0.0707 0.58533 0.62239 0.0
H1092 H 0.09384 0.71492 0.70965 0.0
H1093 H 0.1143 0.71535 0.66565 0.0
H1094 H 0.08144 0.68597 0.75372 0.0
H1095 H 0.05876 0.65754 0.76063 0.0
C1096 C 0.63727 0.19628 0.60049 0.0
C1097 C 0.61801 0.21564 0.58292 0.0
C1098 C 0.57904 0.18562 0.60504 0.0
C1099 C 0.59777 0.16993 0.62946 0.0
N1100 N 0.6448 0.15965 0.65104 0.0
N1101 N 0.56955 0.23084 0.57548 0.0
C1102 C 0.62703 0.1748 0.62698 0.0
C1103 C 0.58859 0.21065 0.58623 0.0
N1104 N 0.66522 0.1984 0.59159 0.0
N1105 N 0.55177 0.17707 0.60108 0.0
H1106 H 0.57497 0.25064 0.56462 0.0
H1107 H 0.54816 0.22915 0.58174 0.0
H1108 H 0.54411 0.15895 0.61511 0.0
H1109 H 0.53777 0.18625 0.58064 0.0
H1110 H 0.68005 0.1837 0.60085 0.0
H1111 H 0.67311 0.21354 0.57161 0.0
H1112 H 0.66608 0.16425 0.65422 0.0
H1113 H 0.63775 0.14314 0.66933 0.0
C1114 C 0.0667 0.38696 0.85724 0.0
C1115 C 0.04552 0.36811 0.84349 0.0
C1116 C 0.07434 0.32845 0.86567 0.0
C1117 C 0.09256 0.3472 0.88609 0.0
N1118 N 0.10642 0.39436 0.90257 0.0
N1119 N 0.02707 0.32053 0.84252 0.0
C1120 C 0.08908 0.37656 0.88186 0.0
C1121 C 0.0489 0.33868 0.84918 0.0
N1122 N 0.06559 0.41461 0.84624 0.0
N1123 N 0.08116 0.30065 0.86277 0.0
H1124 H 1.00706 0.32683 0.83362 0.0
H1125 H 0.02782 0.29936 0.85045 0.0
H1126 H 0.0998 0.29249 0.87456 0.0
H1127 H 0.06985 0.28645 0.84505 0.0
H1128 H 0.08158 0.42891 0.85241 0.0
H1129 H 0.04978 0.42263 0.82759 0.0
H1130 H 0.10308 0.41592 0.90453 0.0
H1131 H 0.12346 0.38719 0.91962 0.0
C1132 C 0.93002 0.79822 0.0937 0.0
C1133 C 0.90077 0.79418 0.0867 0.0
C1134 C 0.89087 0.83813 0.12331 0.0
C1135 C 0.92005 0.84216 0.12886 0.0
N1136 N 0.96718 0.83155 0.10736 0.0
N1137 N 0.85412 0.81393 0.08586 0.0
C1138 C 0.93946 0.82416 0.10951 0.0
C1139 C 0.88138 0.81536 0.09863 0.0
N1140 N 0.94866 0.7766 0.0893 0.0
N1141 N 0.87234 0.85532 0.14278 0.0
H1142 H 0.84681 0.79802 0.0668 0.0
H1143 H 0.83957 0.82985 0.09084 0.0
H1144 H 0.8789 0.87263 0.15976 0.0
H1145 H 0.85079 0.85159 0.14374 0.0
H1146 H 0.96964 0.7781 0.09806 0.0
H1147 H 0.9429 0.75616 0.08188 0.0
H1148 H 0.98185 0.82035 0.09035 0.0
H1149 H 0.97475 0.85049 0.11895 0.0
C1150 C 0.44027 0.64413 0.4127 0.0
C1151 C 0.41968 0.66017 0.39224 0.0
C1152 C 0.44341 0.64982 0.32771 0.0
C1153 C 0.46724 0.64012 0.34955 0.0
N1154 N 0.48947 0.63325 0.41551 0.0
N1155 N 0.40261 0.67995 0.32896 0.0
C1156 C 0.46592 0.63813 0.39278 0.0
C1157 C 0.42112 0.66311 0.34921 0.0
N1158 N 0.43555 0.63533 0.45167 0.0
N1159 N 0.44194 0.64615 0.28657 0.0
H1160 H 0.38596 0.69019 0.34302 0.0
H1161 H 0.40505 0.68536 0.29842 0.0
H1162 H 0.4575 0.63567 0.2702 0.0
H1163 H 0.42401 0.65069 0.26964 0.0
H1164 H 0.44904 0.62172 0.467 0.0
H1165 H 0.41659 0.63914 0.46665 0.0
H1166 H 0.48954 0.63436 0.44717 0.0
H1167 H 0.50959 0.63159 0.4034 0.0
C1168 C 0.44388 0.1925 0.11199 0.0
C1169 C 0.42591 0.17229 0.12994 0.0
C1170 C 0.38543 0.19531 0.09801 0.0
C1171 C 0.40298 0.21826 0.08677 0.0
N1172 N 0.44868 0.24077 0.09149 0.0
N1173 N 0.37932 0.15433 0.14144 0.0
C1174 C 0.43225 0.21731 0.09543 0.0
C1175 C 0.39657 0.17339 0.12293 0.0
N1176 N 0.47223 0.18807 0.1112 0.0
N1177 N 0.35834 0.19435 0.08445 0.0
H1178 H 0.38701 0.13773 0.15891 0.0
H1179 H 0.35751 0.15587 0.14133 0.0
H1180 H 0.34984 0.20986 0.06569 0.0
H1181 H 0.34519 0.17709 0.08865 0.0
H1182 H 0.4861 0.20095 0.09516 0.0
H1183 H 0.48144 0.16987 0.1228 0.0
H1184 H 0.46939 0.24165 0.10167 0.0
H1185 H 0.44109 0.26033 0.08264 0.0
C1186 C 0.56572 0.63043 0.84964 0.0
C1187 C 0.54546 0.65008 0.83536 0.0
C1188 C 0.57536 0.68843 0.85952 0.0
C1189 C 0.592 0.66891 0.88116 0.0
N1190 N 0.60373 0.62119 0.89731 0.0
N1191 N 0.52913 0.69843 0.83406 0.0
C1192 C 0.58766 0.63977 0.87596 0.0
C1193 C 0.54997 0.67934 0.84142 0.0
N1194 N 0.56408 0.60303 0.83771 0.0
N1195 N 0.58336 0.71597 0.85765 0.0
H1196 H 0.50902 0.69314 0.82434 0.0
H1197 H 0.53069 0.7195 0.84224 0.0
H1198 H 0.60173 0.72329 0.87131 0.0
H1199 H 0.5734 0.7307 0.83914 0.0
H1200 H 0.57939 0.58817 0.8445 0.0
H1201 H 0.5487 0.59584 0.81761 0.0
H1202 H 0.59961 0.59972 0.89849 0.0
H1203 H 0.62052 0.62768 0.91544 0.0
C1204 C 0.12292 0.83605 0.63976 0.0
C1205 C 0.0959 0.84669 0.63038 0.0
C1206 C 0.09647 0.82122 0.5656 0.0
C1207 C 0.12017 0.80602 0.57944 0.0
N1208 N 0.16396 0.8111 0.61532 0.0
N1209 N 0.05718 0.85108 0.58338 0.0
C1210 C 0.13602 0.81714 0.61225 0.0
C1211 C 0.08303 0.84033 0.59249 0.0
N1212 N 0.13549 0.84315 0.67567 0.0
N1213 N 0.08798 0.81855 0.52613 0.0
H1214 H 0.04698 0.86568 0.60179 0.0
H1215 H 0.04515 0.84441 0.55877 0.0
H1216 H 0.09955 0.80705 0.50497 0.0
H1217 H 0.07206 0.83053 0.51312 0.0
H1218 H 0.15351 0.83339 0.68668 0.0
H1219 H 0.12703 0.85803 0.69544 0.0
H1220 H 0.17717 0.81998 0.63701 0.0
H1221 H 0.17466 0.80029 0.59251 0.0
C1222 C 0.92453 0.37881 0.3812 0.0
C1223 C 0.92001 0.34951 0.38438 0.0
C1224 C 0.96266 0.3403 0.3453 0.0
C1225 C 0.96706 0.36971 0.34079 0.0
N1226 N 0.94908 0.41681 0.3467 0.0
N1227 N 0.92954 0.30296 0.35952 0.0
C1228 C 0.94693 0.38897 0.35629 0.0
C1229 C 0.93724 0.33054 0.36271 0.0
N1230 N 0.90808 0.39674 0.40309 0.0
N1231 N 0.98361 0.32162 0.33658 0.0
H1232 H 0.91105 0.29505 0.37222 0.0
H1233 H 0.93994 0.28869 0.34083 0.0
H1234 H 1.00352 0.32746 0.3265 0.0
H1235 H 0.98237 0.30034 0.34372 0.0
H1236 H 0.91219 0.41813 0.40583 0.0
H1237 H 0.89097 0.38976 0.42023 0.0
H1238 H 0.93385 0.43158 0.35417 0.0
H1239 H 0.96497 0.4247 0.328 0.0
C1240 C 0.43704 0.82231 0.39806 0.0
C1241 C 0.41868 0.84079 0.37736 0.0
C1242 C 0.37822 0.81631 0.40721 0.0
C1243 C 0.39658 0.79517 0.42219 0.0
N1244 N 0.44356 0.77557 0.42438 0.0
N1245 N 0.37185 0.8556 0.36066 0.0
C1246 C 0.42607 0.79764 0.41616 0.0
C1247 C 0.38922 0.83807 0.3818 0.0
N1248 N 0.46513 0.82826 0.40007 0.0
N1249 N 0.35048 0.81574 0.41778 0.0
H1250 H 0.37946 0.8722 0.34302 0.0
H1251 H 0.35019 0.85285 0.3589 0.0
H1252 H 0.34201 0.80025 0.43667 0.0
H1253 H 0.33645 0.83178 0.41082 0.0
H1254 H 0.4791 0.81695 0.41815 0.0
H1255 H 0.47395 0.84623 0.38706 0.0
H1256 H 0.46469 0.77537 0.41616 0.0
H1257 H 0.43667 0.75618 0.43521 0.0
C1258 C 0.94872 0.62014 0.14858 0.0
C1259 C 0.95763 0.63447 0.18411 0.0
C1260 C 0.92106 0.66975 0.17397 0.0
C1261 C 0.91618 0.65881 0.13433 0.0
N1262 N 0.92279 0.62208 0.08497 0.0
N1263 N 0.94054 0.66117 0.24097 0.0
C1264 C 0.92892 0.63322 0.12222 0.0
C1265 C 0.94008 0.65566 0.20024 0.0
N1266 N 0.95782 0.59339 0.14176 0.0
N1267 N 0.90936 0.69468 0.18552 0.0
H1268 H 0.952 0.64884 0.26128 0.0
H1269 H 0.92668 0.67496 0.2551 0.0
H1270 H 0.89535 0.70594 0.16748 0.0
H1271 H 0.91514 0.70525 0.21196 0.0
H1272 H 0.9509 0.58091 0.11782 0.0
H1273 H 0.96959 0.58243 0.16332 0.0
H1274 H 0.93381 0.6055 0.07203 0.0
H1275 H 0.90711 0.63025 0.0662 0.0
C1276 C 0.13427 0.19832 0.91571 0.0
C1277 C 0.11564 0.21983 0.92867 0.0
C1278 C 0.07606 0.19364 0.89995 0.0
C1279 C 0.09507 0.17494 0.88102 0.0
N1280 N 0.14239 0.15928 0.86951 0.0
N1281 N 0.06907 0.24038 0.92574 0.0
C1282 C 0.12426 0.17696 0.8889 0.0
C1283 C 0.08651 0.21801 0.91937 0.0
N1284 N 0.16135 0.19824 0.9294 0.0
N1285 N 0.04785 0.18813 0.89922 0.0
H1286 H 0.07565 0.25951 0.93773 0.0
H1287 H 0.0485 0.24107 0.91496 0.0
H1288 H 0.03941 0.17025 0.88552 0.0
H1289 H 0.03325 0.19966 0.91586 0.0
H1290 H 0.17537 0.18193 0.92396 0.0
H1291 H 0.16906 0.21345 0.94933 0.0
H1292 H 0.16413 0.1616 0.87033 0.0
H1293 H 0.13551 0.14309 0.85062 0.0
C1294 C 0.58924 0.37227 0.6381 0.0
C1295 C 0.59012 0.34308 0.6299 0.0
C1296 C 0.5452 0.3363 0.66448 0.0
C1297 C 0.54458 0.36534 0.67447 0.0
N1298 N 0.56859 0.40985 0.67809 0.0
N1299 N 0.57394 0.29645 0.64653 0.0
C1300 C 0.5675 0.38301 0.6636 0.0
C1301 C 0.56978 0.32485 0.64703 0.0
N1302 N 0.60835 0.38977 0.62018 0.0
N1303 N 0.52166 0.31995 0.6683 0.0
H1304 H 0.59201 0.28727 0.63448 0.0
H1305 H 0.56098 0.28234 0.66197 0.0
H1306 H 0.50234 0.32741 0.67838 0.0
H1307 H 0.52042 0.29956 0.65701 0.0
H1308 H 0.60698 0.41157 0.62123 0.0
H1309 H 0.62476 0.38239 0.6021 0.0
H1310 H 0.58586 0.42303 0.67425 0.0
H1311 H 0.55314 0.41809 0.69716 0.0
C1312 C 0.02971 0.5003 0.28546 0.0
C1313 C 0.05376 0.48285 0.28173 0.0
C1314 C 0.07838 0.51985 0.24332 0.0
C1315 C 0.05433 0.53725 0.24704 0.0
N1316 N 1.00581 0.54333 0.26615 0.0
N1317 N 0.102 0.47639 0.26187 0.0
C1318 C 0.02974 0.52741 0.26708 0.0
C1319 C 0.07833 0.49264 0.26161 0.0
N1320 N 1.00684 0.49088 0.3068 0.0
N1321 N 0.10108 0.52932 0.22169 0.0
H1322 H 0.10271 0.45649 0.2751 0.0
H1323 H 0.12152 0.48294 0.25128 0.0
H1324 H 0.10242 0.54965 0.21001 0.0
H1325 H 0.11817 0.51696 0.21368 0.0
H1326 H 0.99011 0.50352 0.31552 0.0
H1327 H 1.0049 0.47038 0.3176 0.0
H1328 H 0.98622 0.53639 0.27595 0.0
H1329 H 1.00485 0.56323 0.25296 0.0
C1330 C 0.77115 0.82873 0.52859 0.0
C1331 C 0.78904 0.80551 0.52068 0.0
C1332 C 0.75151 0.78271 0.48159 0.0
C1333 C 0.73436 0.80684 0.48678 0.0
N1334 N 0.72889 0.85437 0.51027 0.0
N1335 N 0.79791 0.76203 0.4854 0.0
C1336 C 0.74441 0.83026 0.50911 0.0
C1337 C 0.77976 0.7831 0.49563 0.0
N1338 N 0.77969 0.84924 0.5549 0.0
N1339 N 0.74026 0.75871 0.46548 0.0
H1340 H 0.81823 0.7605 0.49697 0.0
H1341 H 0.79353 0.74707 0.46321 0.0
H1342 H 0.71944 0.75711 0.4559 0.0
H1343 H 0.75064 0.7395 0.46515 0.0
H1344 H 0.76652 0.86493 0.5658 0.0
H1345 H 0.7997 0.8497 0.56782 0.0
H1346 H 0.7362 0.87321 0.52231 0.0
H1347 H 0.70934 0.85622 0.49623 0.0
C1348 C 0.4847 0.50061 0.73296 0.0
C1349 C 0.4606 0.48304 0.7352 0.0
C1350 C 0.43662 0.51824 0.7773 0.0
C1351 C 0.45987 0.53665 0.77226 0.0
N1352 N 0.50476 0.54705 0.74155 0.0
N1353 N 0.41215 0.4764 0.75424 0.0
C1354 C 0.48344 0.52839 0.74872 0.0
C1355 C 0.43618 0.49213 0.75614 0.0
N1356 N 0.50935 0.49017 0.71786 0.0
N1357 N 0.41501 0.52568 0.80245 0.0
H1358 H 0.41097 0.45734 0.73877 0.0
H1359 H 0.39278 0.48319 0.76506 0.0
H1360 H 0.4138 0.54525 0.81654 0.0
H1361 H 0.39912 0.51194 0.81135 0.0
H1362 H 0.52846 0.50076 0.71955 0.0
H1363 H 0.51142 0.46974 0.70693 0.0
H1364 H 0.52073 0.54354 0.72052 0.0
H1365 H 0.50563 0.56697 0.75458 0.0
C1366 C 0.76803 0.17918 0.98534 0.0
C1367 C 0.7862 0.20228 0.99283 0.0
C1368 C 0.74826 0.22679 0.02865 0.0
C1369 C 0.73076 0.20283 0.024 0.0
N1370 N 0.72485 0.15474 1.00306 0.0
N1371 N 0.79507 0.24668 0.02593 0.0
C1372 C 0.74083 0.17862 1.00358 0.0
C1373 C 0.7768 0.22555 0.01608 0.0
N1374 N 0.77674 0.15788 0.96057 0.0
N1375 N 0.73712 0.2514 0.04276 0.0
H1376 H 0.81565 0.24773 0.01521 0.0
H1377 H 0.79048 0.26225 0.04709 0.0
H1378 H 0.71611 0.25357 0.05116 0.0
H1379 H 0.74786 0.27045 0.04248 0.0
H1380 H 0.76349 0.14211 0.94993 0.0
H1381 H 0.79702 0.15681 0.94866 0.0
H1382 H 0.73206 0.13547 0.9925 0.0
H1383 H 0.70493 0.15359 0.01619 0.0
C1384 C 0.93695 0.5 0.78261 0.0
C1385 C 0.96016 0.48153 0.77828 0.0
C1386 C 0.98527 0.51716 0.73819 0.0
C1387 C 0.96124 0.53478 0.73979 0.0
N1388 N 0.91287 0.54181 0.75859 0.0
N1389 N 1.00511 0.47083 0.74808 0.0
C1390 C 0.93672 0.52594 0.76084 0.0
C1391 C 0.98383 0.48955 0.75464 0.0
N1392 N 0.91518 0.49276 0.80768 0.0
N1393 N 0.01006 0.52743 0.72315 0.0
H1394 H 1.00594 0.45108 0.76175 0.0
H1395 H 0.02108 0.4741 0.72695 0.0
H1396 H 0.01235 0.54776 0.71178 0.0
H1397 H 0.02911 0.51685 0.72536 0.0
H1398 H 0.89926 0.50653 0.81605 0.0
H1399 H 0.91383 0.4733 0.82218 0.0
H1400 H 0.89342 0.53526 0.76954 0.0
H1401 H 0.91194 0.56079 0.74277 0.0
C1402 C 0.2675 0.23397 0.53038 0.0
C1403 C 0.28548 0.21029 0.52818 0.0
C1404 C 0.25001 0.18488 0.48821 0.0
C1405 C 0.23128 0.2078 0.49303 0.0
N1406 N 0.22066 0.25301 0.52242 0.0
N1407 N 0.29284 0.16181 0.51034 0.0
C1408 C 0.23951 0.23191 0.51551 0.0
C1409 C 0.27652 0.18537 0.50836 0.0
N1410 N 0.27771 0.259 0.54456 0.0
N1411 N 0.24247 0.16268 0.46423 0.0
H1412 H 0.31228 0.16137 0.52495 0.0
H1413 H 0.2863 0.14213 0.50039 0.0
H1414 H 0.22261 0.16075 0.45113 0.0
H1415 H 0.25632 0.14695 0.45537 0.0
H1416 H 0.26679 0.27786 0.54268 0.0
H1417 H 0.29824 0.26161 0.55496 0.0
H1418 H 0.22418 0.26929 0.54291 0.0
H1419 H 0.20061 0.25347 0.50972 0.0
C1420 C 0.53161 0.52527 0.2463 0.0
C1421 C 0.5565 0.53502 0.26545 0.0
C1422 C 0.57967 0.48995 0.25157 0.0
C1423 C 0.55522 0.48069 0.23065 0.0
N1424 N 0.5087 0.49001 0.20468 0.0
N1425 N 0.60528 0.52881 0.28212 0.0
C1426 C 0.5315 0.4986 0.22677 0.0
C1427 C 0.58082 0.51789 0.26706 0.0
N1428 N 0.50757 0.54091 0.24875 0.0
N1429 N 0.60174 0.47196 0.25672 0.0
H1430 H 0.60676 0.54916 0.29365 0.0
H1431 H 0.6246 0.51871 0.28056 0.0
H1432 H 0.60252 0.45209 0.24351 0.0
H1433 H 0.61874 0.47601 0.27571 0.0
H1434 H 0.48786 0.53368 0.23993 0.0
H1435 H 0.50676 0.56063 0.26243 0.0
H1436 H 0.49246 0.5033 0.19596 0.0
H1437 H 0.50648 0.46977 0.19311 0.0
C1438 C 0.24707 0.78519 0.02655 0.0
C1439 C 0.22949 0.80895 0.02111 0.0
C1440 C 0.26551 0.83114 0.97804 0.0
C1441 C 0.28383 0.80829 0.98604 0.0
N1442 N 0.29359 0.76494 0.02154 0.0
N1443 N 0.22293 0.85615 0.99654 0.0
C1444 C 0.27512 0.78584 0.01165 0.0
C1445 C 0.23891 0.83235 0.998 0.0
N1446 N 0.2364 0.76128 0.04385 0.0
N1447 N 0.27349 0.85161 0.95119 0.0
H1448 H 0.20343 0.85775 0.01083 0.0
H1449 H 0.22977 0.87501 0.98393 0.0
H1450 H 0.2934 0.85232 0.93796 0.0
H1451 H 0.25998 0.86701 0.94023 0.0
H1452 H 0.247 0.74219 0.04447 0.0
H1453 H 0.21579 0.75961 0.05436 0.0
H1454 H 0.28974 0.7501 0.04417 0.0
H1455 H 0.31365 0.76333 0.00908 0.0
C1456 C 0.53266 0.99811 0.78327 0.0
C1457 C 0.55607 0.97991 0.77915 0.0
C1458 C 0.58135 0.0163 0.74056 0.0
C1459 C 0.55873 0.03511 0.74724 0.0
N1460 N 0.51426 0.04543 0.77927 0.0
N1461 N 0.60433 0.97275 0.75967 0.0
C1462 C 0.53492 0.02652 0.7702 0.0
C1463 C 0.58086 0.98926 0.75922 0.0
N1464 N 0.50764 0.98777 0.79741 0.0
N1465 N 0.60323 0.02425 0.71614 0.0
H1466 H 0.60482 0.95297 0.77332 0.0
H1467 H 0.62394 0.97945 0.74955 0.0
H1468 H 0.60514 0.04442 0.70402 0.0
H1469 H 0.61866 0.01048 0.70597 0.0
H1470 H 0.48892 0.99902 0.79679 0.0
H1471 H 0.50482 0.96694 0.80635 0.0
H1472 H 0.49829 0.04143 0.80014 0.0
H1473 H 0.51399 0.06593 0.76816 0.0
C1474 C 0.26669 0.32636 0.03346 0.0
C1475 C 0.28478 0.30319 0.02641 0.0
C1476 C 0.24808 0.28015 0.98589 0.0
C1477 C 0.2308 0.30424 0.99027 0.0
N1478 N 0.22488 0.35191 0.01307 0.0
N1479 N 0.29438 0.25947 0.99213 0.0
C1480 C 0.24038 0.32777 0.01284 0.0
C1481 C 0.27602 0.28061 1.00125 0.0
N1482 N 0.27464 0.34697 0.06 0.0
N1483 N 0.23722 0.25619 0.96914 0.0
H1484 H 0.31442 0.258 1.00471 0.0
H1485 H 0.29049 0.24435 0.96999 0.0
H1486 H 0.21666 0.25468 0.95839 0.0
H1487 H 0.24759 0.23697 0.96921 0.0
H1488 H 0.26118 0.36261 0.0703 0.0
H1489 H 0.29437 0.34754 0.07377 0.0
H1490 H 0.23198 0.3708 0.0252 0.0
H1491 H 0.20566 0.35378 0.9981 0.0
C1492 C 0.92756 0.02711 0.25313 0.0
C1493 C 0.95237 0.03691 0.27249 0.0
C1494 C 0.9758 0.99188 0.25903 0.0
C1495 C 0.95098 0.98205 0.23967 0.0
N1496 N 0.90425 0.99018 0.21453 0.0
N1497 N 0.99963 0.02884 0.29637 0.0
C1498 C 0.9271 0.99966 0.23569 0.0
C1499 C 0.97632 0.01928 0.27624 0.0
N1500 N 0.9041 0.04365 0.25318 0.0
N1501 N 0.99952 0.97561 0.25849 0.0
H1502 H 1.00221 0.04961 0.30558 0.0
H1503 H 0.01622 0.01614 0.3055 0.0
H1504 H 1.00014 0.95541 0.24638 0.0
H1505 H 0.01928 0.98244 0.26763 0.0
H1506 H 0.88444 0.03718 0.24307 0.0
H1507 H 0.90378 0.06376 0.2657 0.0
H1508 H 0.88718 1.00259 0.20651 0.0
H1509 H 0.90279 0.96977 0.20324 0.0
C1510 C 0.2712 0.73699 0.50137 0.0
C1511 C 0.28153 0.71145 0.48512 0.0
C1512 C 0.23674 0.68802 0.50084 0.0
C1513 C 0.22707 0.71308 0.51954 0.0
N1514 N 0.23518 0.7611 0.54002 0.0
N1515 N 0.27608 0.66198 0.47258 0.0
C1516 C 0.2444 0.73744 0.52063 0.0
C1517 C 0.26476 0.68679 0.48551 0.0
N1518 N 0.28655 0.76112 0.49675 0.0
N1519 N 0.21911 0.66542 0.49773 0.0
H1520 H 0.2964 0.66046 0.46087 0.0
H1521 H 0.26629 0.64257 0.47586 0.0
H1522 H 0.19913 0.66493 0.51072 0.0
H1523 H 0.2235 0.64768 0.48048 0.0
H1524 H 0.27903 0.78107 0.50349 0.0
H1525 H 0.3064 0.76159 0.48331 0.0
H1526 H 0.248 0.77816 0.54686 0.0
H1527 H 0.21479 0.76339 0.55112 0.0
C1528 C 0.48281 0.02508 0.26518 0.0
C1529 C 0.45921 0.03368 0.24186 0.0
C1530 C 0.43593 0.98856 0.2559 0.0
C1531 C 0.46042 0.97923 0.27651 0.0
N1532 N 0.50901 0.98645 0.29452 0.0
N1533 N 0.4145 0.02307 0.21115 0.0
C1534 C 0.4843 0.99698 0.27974 0.0
C1535 C 0.43613 0.0152 0.23599 0.0
N1536 N 0.50401 0.04371 0.27318 0.0
N1537 N 0.41214 0.97246 0.25683 0.0
H1538 H 0.41318 0.04298 0.19801 0.0
H1539 H 0.3987 0.00945 0.20164 0.0
H1540 H 0.4112 0.95296 0.27126 0.0
H1541 H 0.39271 0.97924 0.24618 0.0
H1542 H 0.51988 0.03989 0.29425 0.0
H1543 H 0.50492 0.06386 0.26085 0.0
H1544 H 0.52803 0.99723 0.29335 0.0
H1545 H 0.51126 0.96581 0.30463 0.0
C1546 C 0.77352 0.68234 0.01188 0.0
C1547 C 0.78298 0.70724 0.03131 0.0
C1548 C 0.73662 0.72872 0.02147 0.0
C1549 C 0.72788 0.70472 0.99914 0.0
N1550 N 0.7385 0.65987 0.9691 0.0
N1551 N 0.77553 0.75593 0.04816 0.0
C1552 C 0.74654 0.6819 0.99307 0.0
C1553 C 0.765 0.73086 0.03464 0.0
N1554 N 0.78984 0.65876 0.01295 0.0
N1555 N 0.71787 0.74966 0.02985 0.0
H1556 H 0.79637 0.75865 0.05712 0.0
H1557 H 0.76447 0.77474 0.04697 0.0
H1558 H 0.69742 0.75002 0.01858 0.0
H1559 H 0.72194 0.76584 0.05028 0.0
H1560 H 0.78301 0.63912 1.00324 0.0
H1561 H 0.80959 0.65824 0.02666 0.0
H1562 H 0.75218 0.64424 0.95938 0.0
H1563 H 0.71836 0.65804 0.95689 0.0
C1564 C 0.03273 0.02712 0.75271 0.0
C1565 C 0.05643 0.036 0.77558 0.0
C1566 C 0.07963 0.99082 0.76243 0.0
C1567 C 0.05512 0.98127 0.74209 0.0
N1568 N 1.00637 0.98812 0.72469 0.0
N1569 N 0.1012 0.02575 0.80632 0.0
C1570 C 0.03118 0.99889 0.73884 0.0
C1571 C 0.07949 0.01762 0.78178 0.0
N1572 N 0.01155 0.04563 0.74439 0.0
N1573 N 0.10341 0.97477 0.76174 0.0
H1574 H 0.10258 0.04574 0.81907 0.0
H1575 H 0.11702 0.01225 0.81602 0.0
H1576 H 0.10427 0.95515 0.74776 0.0
H1577 H 0.12287 0.98168 0.77214 0.0
H1578 H 0.99557 0.04155 0.72359 0.0
H1579 H 0.0108 0.06593 0.75615 0.0
H1580 H 0.98736 0.99885 0.72585 0.0
H1581 H 1.00402 0.96736 0.71524 0.0
C1582 C 0.74807 0.28122 0.53172 0.0
C1583 C 0.73025 0.305 0.5285 0.0
C1584 C 0.76566 0.32912 0.48663 0.0
C1585 C 0.78423 0.30616 0.49241 0.0
N1586 N 0.79477 0.26171 0.52427 0.0
N1587 N 0.7232 0.3531 0.50819 0.0
C1588 C 0.77598 0.28271 0.51636 0.0
C1589 C 0.73929 0.32935 0.50722 0.0
N1590 N 0.73776 0.25661 0.54734 0.0
N1591 N 0.77319 0.35065 0.46129 0.0
H1592 H 0.70391 0.35407 0.52317 0.0
H1593 H 0.72984 0.37247 0.49707 0.0
H1594 H 0.79294 0.35207 0.44767 0.0
H1595 H 0.75941 0.3663 0.45183 0.0
H1596 H 0.74855 0.23764 0.5463 0.0
H1597 H 0.71728 0.25438 0.55812 0.0
H1598 H 0.79125 0.24593 0.54563 0.0
H1599 H 0.81479 0.26093 0.51147 0.0
loop_
_geom_bond_atom_site_label_1
_geom_bond_atom_site_label_2
_geom_bond_distance
_geom_bond_site_symmetry_2
_ccdc_geom_bond_type
O0 Cd1 2.223 . S
O0 C8 1.315 1_455 S
Cd1 O0 2.223 . S
Cd1 O4 2.297 . S
Cd1 O5 2.439 . S
Cd1 O11 2.240 . S
Cd2 O3 2.239 . S
Cd2 O10 2.223 . S
Cd2 O12 2.297 . S
Cd2 O13 2.439 . S
O3 Cd2 2.239 . S
O3 C8 1.280 1_455 S
O4 Cd1 2.297 . S
O4 C6 1.247 . S
O5 Cd1 2.439 . S
O5 C6 1.208 . S
C6 O4 1.247 . S
C6 O5 1.208 . S
C7 O12 1.247 . S
C7 O13 1.208 . S
C8 O0 1.315 1_655 S
C8 O3 1.280 1_655 S
C9 O10 1.315 . S
C9 O11 1.279 . S
O10 Cd2 2.223 . S
O10 C9 1.315 . S
O11 Cd1 2.240 . S
O11 C9 1.279 . S
O12 Cd2 2.297 . S
O12 C7 1.247 . S
O13 Cd2 2.439 . S
O13 C7 1.208 . S
O14 Cd15 2.223 . S
O14 C22 1.315 . S
Cd15 O14 2.223 . S
Cd15 O18 2.297 . S
Cd15 O19 2.439 . S
Cd15 O25 2.240 . S
Cd16 O17 2.240 . S
Cd16 O24 2.223 . S
Cd16 O26 2.297 . S
Cd16 O27 2.439 . S
O17 Cd16 2.240 . S
O17 C22 1.279 . S
O18 Cd15 2.297 . S
O18 C20 1.247 . S
O19 Cd15 2.439 . S
O19 C20 1.208 . S
C20 O18 1.247 . S
C20 O19 1.208 . S
C21 O26 1.247 . S
C21 O27 1.208 . S
C22 O14 1.315 . S
C22 O17 1.279 . S
C23 O24 1.315 . S
C23 O25 1.279 . S
O24 Cd16 2.223 . S
O24 C23 1.315 . S
O25 Cd15 2.240 . S
O25 C23 1.279 . S
O26 Cd16 2.297 . S
O26 C21 1.247 . S
O27 Cd16 2.439 . S
O27 C21 1.208 . S
O28 Cd29 2.223 . S
O28 C36 1.315 . S
Cd29 O28 2.223 . S
Cd29 O32 2.297 . S
Cd29 O33 2.439 . S
Cd29 O39 2.240 . S
Cd30 O31 2.240 . S
Cd30 O38 2.223 . S
Cd30 O40 2.297 . S
Cd30 O41 2.439 . S
O31 Cd30 2.240 . S
O31 C36 1.279 . S
O32 Cd29 2.297 . S
O32 C34 1.247 . S
O33 Cd29 2.439 . S
O33 C34 1.208 . S
C34 O32 1.247 . S
C34 O33 1.208 . S
C35 O40 1.247 . S
C35 O41 1.208 . S
C36 O28 1.315 . S
C36 O31 1.279 . S
C37 O38 1.315 . S
C37 O39 1.279 . S
O38 Cd30 2.223 . S
O38 C37 1.315 . S
O39 Cd29 2.240 . S
O39 C37 1.279 . S
O40 Cd30 2.297 . S
O40 C35 1.247 . S
O41 Cd30 2.439 . S
O41 C35 1.208 . S
O42 Cd43 2.223 . S
O42 C50 1.315 . S
Cd43 O42 2.223 . S
Cd43 O46 2.297 . S
Cd43 O47 2.439 . S
Cd43 O53 2.240 . S
Cd44 O45 2.240 . S
Cd44 O52 2.223 . S
Cd44 O54 2.297 1_554 S
Cd44 O55 2.439 1_554 S
O45 Cd44 2.240 . S
O45 C50 1.279 . S
O46 Cd43 2.297 . S
O46 C48 1.247 . S
O47 Cd43 2.439 . S
O47 C48 1.208 . S
C48 O46 1.247 . S
C48 O47 1.208 . S
C49 O54 1.247 . S
C49 O55 1.208 . S
C50 O42 1.315 . S
C50 O45 1.279 . S
C51 O52 1.315 . S
C51 O53 1.279 . S
O52 Cd44 2.223 . S
O52 C51 1.315 . S
O53 Cd43 2.240 . S
O53 C51 1.279 . S
O54 Cd44 2.297 1_556 S
O54 C49 1.247 . S
O55 Cd44 2.439 1_556 S
O55 C49 1.208 . S
O56 Cd57 2.223 . S
O56 C64 1.315 1_455 S
Cd57 O56 2.223 . S
Cd57 O60 2.297 . S
Cd57 O61 2.439 . S
Cd57 O67 2.240 . S
Cd58 O59 2.239 . S
Cd58 O66 2.223 . S
Cd58 O68 2.297 . S
Cd58 O69 2.439 . S
O59 Cd58 2.239 . S
O59 C64 1.280 1_455 S
O60 Cd57 2.297 . S
O60 C62 1.247 . S
O61 Cd57 2.439 . S
O61 C62 1.208 . S
C62 O60 1.247 . S
C62 O61 1.208 . S
C63 O68 1.247 . S
C63 O69 1.208 . S
C64 O56 1.315 1_655 S
C64 O59 1.280 1_655 S
C65 O66 1.315 . S
C65 O67 1.279 . S
O66 Cd58 2.223 . S
O66 C65 1.315 . S
O67 Cd57 2.240 . S
O67 C65 1.279 . S
O68 Cd58 2.297 . S
O68 C63 1.247 . S
O69 Cd58 2.439 . S
O69 C63 1.208 . S
O70 Cd71 2.223 . S
O70 C78 1.315 . S
Cd71 O70 2.223 . S
Cd71 O74 2.297 . S
Cd71 O75 2.439 . S
Cd71 O81 2.240 . S
Cd72 O73 2.240 . S
Cd72 O80 2.223 . S
Cd72 O82 2.297 . S
Cd72 O83 2.439 . S
O73 Cd72 2.240 . S
O73 C78 1.279 . S
O74 Cd71 2.297 . S
O74 C76 1.247 . S
O75 Cd71 2.439 . S
O75 C76 1.208 . S
C76 O74 1.247 . S
C76 O75 1.208 . S
C77 O82 1.247 . S
C77 O83 1.208 . S
C78 O70 1.315 . S
C78 O73 1.279 . S
C79 O80 1.315 . S
C79 O81 1.279 . S
O80 Cd72 2.223 . S
O80 C79 1.315 . S
O81 Cd71 2.240 . S
O81 C79 1.279 . S
O82 Cd72 2.297 . S
O82 C77 1.247 . S
O83 Cd72 2.439 . S
O83 C77 1.208 . S
O84 Cd85 2.223 . S
O84 C92 1.315 . S
Cd85 O84 2.223 . S
Cd85 O88 2.297 . S
Cd85 O89 2.439 . S
Cd85 O95 2.240 . S
Cd86 O87 2.240 . S
Cd86 O94 2.223 . S
Cd86 O96 2.297 . S
Cd86 O97 2.439 . S
O87 Cd86 2.240 . S
O87 C92 1.279 . S
O88 Cd85 2.297 . S
O88 C90 1.247 . S
O89 Cd85 2.439 . S
O89 C90 1.208 . S
C90 O88 1.247 . S
C90 O89 1.208 . S
C91 O96 1.247 . S
C91 O97 1.208 . S
C92 O84 1.315 . S
C92 O87 1.279 . S
C93 O94 1.315 . S
C93 O95 1.279 . S
O94 Cd86 2.223 . S
O94 C93 1.315 . S
O95 Cd85 2.240 . S
O95 C93 1.279 . S
O96 Cd86 2.297 . S
O96 C91 1.247 . S
O97 Cd86 2.439 . S
O97 C91 1.208 . S
O98 Cd99 2.223 . S
O98 C106 1.315 . S
Cd99 O98 2.223 . S
Cd99 O102 2.297 . S
Cd99 O103 2.439 . S
Cd99 O109 2.240 . S
Cd100 O101 2.240 . S
Cd100 O108 2.223 . S
Cd100 O110 2.297 1_556 S
Cd100 O111 2.439 1_556 S
O101 Cd100 2.240 . S
O101 C106 1.279 . S
O102 Cd99 2.297 . S
O102 C104 1.247 . S
O103 Cd99 2.439 . S
O103 C104 1.208 . S
C104 O102 1.247 . S
C104 O103 1.208 . S
C105 O110 1.247 . S
C105 O111 1.208 . S
C106 O98 1.315 . S
C106 O101 1.279 . S
C107 O108 1.315 . S
C107 O109 1.279 . S
O108 Cd100 2.223 . S
O108 C107 1.315 . S
O109 Cd99 2.240 . S
O109 C107 1.279 . S
O110 Cd100 2.297 1_554 S
O110 C105 1.247 . S
O111 Cd100 2.439 1_554 S
O111 C105 1.208 . S
O112 Cd113 2.223 . S
O112 C120 1.315 1_655 S
Cd113 O112 2.223 . S
Cd113 O116 2.297 . S
Cd113 O117 2.439 . S
Cd113 O123 2.240 . S
Cd114 O115 2.239 . S
Cd114 O122 2.223 . S
Cd114 O124 2.297 . S
Cd114 O125 2.439 . S
O115 Cd114 2.239 . S
O115 C120 1.280 1_655 S
O116 Cd113 2.297 . S
O116 C118 1.247 . S
O117 Cd113 2.439 . S
O117 C118 1.208 . S
C118 O116 1.247 . S
C118 O117 1.208 . S
C119 O124 1.247 . S
C119 O125 1.208 . S
C120 O112 1.315 1_455 S
C120 O115 1.280 1_455 S
C121 O122 1.315 . S
C121 O123 1.279 . S
O122 Cd114 2.223 . S
O122 C121 1.315 . S
O123 Cd113 2.240 . S
O123 C121 1.279 . S
O124 Cd114 2.297 . S
O124 C119 1.247 . S
O125 Cd114 2.439 . S
O125 C119 1.208 . S
O126 Cd127 2.223 . S
O126 C134 1.315 . S
Cd127 O126 2.223 . S
Cd127 O130 2.297 . S
Cd127 O131 2.439 . S
Cd127 O137 2.240 . S
Cd128 O129 2.240 . S
Cd128 O136 2.223 . S
Cd128 O138 2.297 . S
Cd128 O139 2.439 . S
O129 Cd128 2.240 . S
O129 C134 1.279 . S
O130 Cd127 2.297 . S
O130 C132 1.247 . S
O131 Cd127 2.439 . S
O131 C132 1.208 . S
C132 O130 1.247 . S
C132 O131 1.208 . S
C133 O138 1.247 . S
C133 O139 1.208 . S
C134 O126 1.315 . S
C134 O129 1.279 . S
C135 O136 1.315 . S
C135 O137 1.279 . S
O136 Cd128 2.223 . S
O136 C135 1.315 . S
O137 Cd127 2.240 . S
O137 C135 1.279 . S
O138 Cd128 2.297 . S
O138 C133 1.247 . S
O139 Cd128 2.439 . S
O139 C133 1.208 . S
O140 Cd141 2.223 . S
O140 C148 1.315 . S
Cd141 O140 2.223 . S
Cd141 O144 2.297 . S
Cd141 O145 2.439 . S
Cd141 O151 2.240 . S
Cd142 O143 2.240 . S
Cd142 O150 2.223 . S
Cd142 O152 2.297 . S
Cd142 O153 2.439 . S
O143 Cd142 2.240 . S
O143 C148 1.279 . S
O144 Cd141 2.297 . S
O144 C146 1.247 . S
O145 Cd141 2.439 . S
O145 C146 1.208 . S
C146 O144 1.247 . S
C146 O145 1.208 . S
C147 O152 1.247 . S
C147 O153 1.208 . S
C148 O140 1.315 . S
C148 O143 1.279 . S
C149 O150 1.315 . S
C149 O151 1.279 . S
O150 Cd142 2.223 . S
O150 C149 1.315 . S
O151 Cd141 2.240 . S
O151 C149 1.279 . S
O152 Cd142 2.297 . S
O152 C147 1.247 . S
O153 Cd142 2.439 . S
O153 C147 1.208 . S
O154 Cd155 2.223 . S
O154 C162 1.315 . S
Cd155 O154 2.223 . S
Cd155 O158 2.297 . S
Cd155 O159 2.439 . S
Cd155 O165 2.240 . S
Cd156 O157 2.240 . S
Cd156 O164 2.223 . S
Cd156 O166 2.297 1_556 S
Cd156 O167 2.439 1_556 S
O157 Cd156 2.240 . S
O157 C162 1.279 . S
O158 Cd155 2.297 . S
O158 C160 1.247 . S
O159 Cd155 2.439 . S
O159 C160 1.208 . S
C160 O158 1.247 . S
C160 O159 1.208 . S
C161 O166 1.247 . S
C161 O167 1.208 . S
C162 O154 1.315 . S
C162 O157 1.279 . S
C163 O164 1.315 . S
C163 O165 1.279 . S
O164 Cd156 2.223 . S
O164 C163 1.315 . S
O165 Cd155 2.240 . S
O165 C163 1.279 . S
O166 Cd156 2.297 1_554 S
O166 C161 1.247 . S
O167 Cd156 2.439 1_554 S
O167 C161 1.208 . S
O168 Cd169 2.223 . S
O168 C176 1.315 1_655 S
Cd169 O168 2.223 . S
Cd169 O172 2.297 . S
Cd169 O173 2.439 . S
Cd169 O179 2.240 . S
Cd170 O171 2.239 . S
Cd170 O178 2.223 . S
Cd170 O180 2.297 . S
Cd170 O181 2.439 . S
O171 Cd170 2.239 . S
O171 C176 1.280 1_655 S
O172 Cd169 2.297 . S
O172 C174 1.247 . S
O173 Cd169 2.439 . S
O173 C174 1.208 . S
C174 O172 1.247 . S
C174 O173 1.208 . S
C175 O180 1.247 . S
C175 O181 1.208 . S
C176 O168 1.315 1_455 S
C176 O171 1.280 1_455 S
C177 O178 1.315 . S
C177 O179 1.279 . S
O178 Cd170 2.223 . S
O178 C177 1.315 . S
O179 Cd169 2.240 . S
O179 C177 1.279 . S
O180 Cd170 2.297 . S
O180 C175 1.247 . S
O181 Cd170 2.439 . S
O181 C175 1.208 . S
O182 Cd183 2.223 . S
O182 C190 1.315 . S
Cd183 O182 2.223 . S
Cd183 O186 2.297 . S
Cd183 O187 2.439 . S
Cd183 O193 2.240 . S
Cd184 O185 2.240 . S
Cd184 O192 2.223 . S
Cd184 O194 2.297 . S
Cd184 O195 2.439 . S
O185 Cd184 2.240 . S
O185 C190 1.279 . S
O186 Cd183 2.297 . S
O186 C188 1.247 . S
O187 Cd183 2.439 . S
O187 C188 1.208 . S
C188 O186 1.247 . S
C188 O187 1.208 . S
C189 O194 1.247 . S
C189 O195 1.208 . S
C190 O182 1.315 . S
C190 O185 1.279 . S
C191 O192 1.315 . S
C191 O193 1.279 . S
O192 Cd184 2.223 . S
O192 C191 1.315 . S
O193 Cd183 2.240 . S
O193 C191 1.279 . S
O194 Cd184 2.297 . S
O194 C189 1.247 . S
O195 Cd184 2.439 . S
O195 C189 1.208 . S
O196 Cd197 2.223 . S
O196 C204 1.315 . S
Cd197 O196 2.223 . S
Cd197 O200 2.297 . S
Cd197 O201 2.439 . S
Cd197 O207 2.240 . S
Cd198 O199 2.240 . S
Cd198 O206 2.223 . S
Cd198 O208 2.297 . S
Cd198 O209 2.439 . S
O199 Cd198 2.240 . S
O199 C204 1.279 . S
O200 Cd197 2.297 . S
O200 C202 1.247 . S
O201 Cd197 2.439 . S
O201 C202 1.208 . S
C202 O200 1.247 . S
C202 O201 1.208 . S
C203 O208 1.247 . S
C203 O209 1.208 . S
C204 O196 1.315 . S
C204 O199 1.279 . S
C205 O206 1.315 . S
C205 O207 1.279 . S
O206 Cd198 2.223 . S
O206 C205 1.315 . S
O207 Cd197 2.240 . S
O207 C205 1.279 . S
O208 Cd198 2.297 . S
O208 C203 1.247 . S
O209 Cd198 2.439 . S
O209 C203 1.208 . S
O210 Cd211 2.223 . S
O210 C218 1.315 . S
Cd211 O210 2.223 . S
Cd211 O214 2.297 . S
Cd211 O215 2.439 . S
Cd211 O221 2.240 . S
Cd212 O213 2.240 . S
Cd212 O220 2.223 . S
Cd212 O222 2.297 1_554 S
Cd212 O223 2.439 1_554 S
O213 Cd212 2.240 . S
O213 C218 1.279 . S
O214 Cd211 2.297 . S
O214 C216 1.247 . S
O215 Cd211 2.439 . S
O215 C216 1.208 . S
C216 O214 1.247 . S
C216 O215 1.208 . S
C217 O222 1.247 . S
C217 O223 1.208 . S
C218 O210 1.315 . S
C218 O213 1.279 . S
C219 O220 1.315 . S
C219 O221 1.279 . S
O220 Cd212 2.223 . S
O220 C219 1.315 . S
O221 Cd211 2.240 . S
O221 C219 1.279 . S
O222 Cd212 2.297 1_556 S
O222 C217 1.247 . S
O223 Cd212 2.439 1_556 S
O223 C217 1.208 . S
O224 Cd225 2.223 . S
O224 C232 1.315 . S
Cd225 O224 2.223 . S
Cd225 O228 2.297 . S
Cd225 O229 2.439 . S
Cd225 O235 2.240 . S
Cd226 O227 2.240 . S
Cd226 O234 2.223 . S
Cd226 O236 2.297 . S
Cd226 O237 2.439 . S
O227 Cd226 2.240 . S
O227 C232 1.279 . S
O228 Cd225 2.297 . S
O228 C230 1.247 . S
O229 Cd225 2.439 . S
O229 C230 1.208 . S
C230 O228 1.247 . S
C230 O229 1.208 . S
C231 O236 1.247 . S
C231 O237 1.208 . S
C232 O224 1.315 . S
C232 O227 1.279 . S
C233 O234 1.315 . S
C233 O235 1.279 . S
O234 Cd226 2.223 . S
O234 C233 1.315 . S
O235 Cd225 2.240 . S
O235 C233 1.279 . S
O236 Cd226 2.297 . S
O236 C231 1.247 . S
O237 Cd226 2.439 . S
O237 C231 1.208 . S
O238 Cd239 2.223 . S
O238 C246 1.315 . S
Cd239 O238 2.223 . S
Cd239 O242 2.297 . S
Cd239 O243 2.439 . S
Cd239 O249 2.240 . S
Cd240 O241 2.240 . S
Cd240 O248 2.223 . S
Cd240 O250 2.297 1_554 S
Cd240 O251 2.439 1_554 S
O241 Cd240 2.240 . S
O241 C246 1.279 . S
O242 Cd239 2.297 . S
O242 C244 1.247 . S
O243 Cd239 2.439 . S
O243 C244 1.208 . S
C244 O242 1.247 . S
C244 O243 1.208 . S
C245 O250 1.247 . S
C245 O251 1.208 . S
C246 O238 1.315 . S
C246 O241 1.279 . S
C247 O248 1.315 . S
C247 O249 1.279 . S
O248 Cd240 2.223 . S
O248 C247 1.315 . S
O249 Cd239 2.240 . S
O249 C247 1.279 . S
O250 Cd240 2.297 1_556 S
O250 C245 1.247 . S
O251 Cd240 2.439 1_556 S
O251 C245 1.208 . S
O252 Cd253 2.223 . S
O252 C260 1.315 1_655 S
Cd253 O252 2.223 . S
Cd253 O256 2.297 . S
Cd253 O257 2.439 . S
Cd253 O263 2.240 . S
Cd254 O255 2.239 . S
Cd254 O262 2.223 . S
Cd254 O264 2.297 . S
Cd254 O265 2.439 . S
O255 Cd254 2.239 . S
O255 C260 1.280 1_655 S
O256 Cd253 2.297 . S
O256 C258 1.247 . S
O257 Cd253 2.439 . S
O257 C258 1.208 . S
C258 O256 1.247 . S
C258 O257 1.208 . S
C259 O264 1.247 . S
C259 O265 1.208 . S
C260 O252 1.315 1_455 S
C260 O255 1.280 1_455 S
C261 O262 1.315 . S
C261 O263 1.279 . S
O262 Cd254 2.223 . S
O262 C261 1.315 . S
O263 Cd253 2.240 . S
O263 C261 1.279 . S
O264 Cd254 2.297 . S
O264 C259 1.247 . S
O265 Cd254 2.439 . S
O265 C259 1.208 . S
O266 Cd267 2.223 . S
O266 C274 1.315 . S
Cd267 O266 2.223 . S
Cd267 O270 2.297 . S
Cd267 O271 2.439 . S
Cd267 O277 2.240 . S
Cd268 O269 2.240 . S
Cd268 O276 2.223 . S
Cd268 O278 2.297 . S
Cd268 O279 2.439 . S
O269 Cd268 2.240 . S
O269 C274 1.279 . S
O270 Cd267 2.297 . S
O270 C272 1.247 . S
O271 Cd267 2.439 . S
O271 C272 1.208 . S
C272 O270 1.247 . S
C272 O271 1.208 . S
C273 O278 1.247 . S
C273 O279 1.208 . S
C274 O266 1.315 . S
C274 O269 1.279 . S
C275 O276 1.315 . S
C275 O277 1.279 . S
O276 Cd268 2.223 . S
O276 C275 1.315 . S
O277 Cd267 2.240 . S
O277 C275 1.279 . S
O278 Cd268 2.297 . S
O278 C273 1.247 . S
O279 Cd268 2.439 . S
O279 C273 1.208 . S
O280 Cd281 2.223 . S
O280 C288 1.315 . S
Cd281 O280 2.223 . S
Cd281 O284 2.297 . S
Cd281 O285 2.439 . S
Cd281 O291 2.240 . S
Cd282 O283 2.240 . S
Cd282 O290 2.223 . S
Cd282 O292 2.297 . S
Cd282 O293 2.439 . S
O283 Cd282 2.240 . S
O283 C288 1.279 . S
O284 Cd281 2.297 . S
O284 C286 1.247 . S
O285 Cd281 2.439 . S
O285 C286 1.208 . S
C286 O284 1.247 . S
C286 O285 1.208 . S
C287 O292 1.247 . S
C287 O293 1.208 . S
C288 O280 1.315 . S
C288 O283 1.279 . S
C289 O290 1.315 . S
C289 O291 1.279 . S
O290 Cd282 2.223 . S
O290 C289 1.315 . S
O291 Cd281 2.240 . S
O291 C289 1.279 . S
O292 Cd282 2.297 . S
O292 C287 1.247 . S
O293 Cd282 2.439 . S
O293 C287 1.208 . S
O294 Cd295 2.223 . S
O294 C302 1.315 . S
Cd295 O294 2.223 . S
Cd295 O298 2.297 . S
Cd295 O299 2.439 . S
Cd295 O305 2.240 . S
Cd296 O297 2.240 . S
Cd296 O304 2.223 . S
Cd296 O306 2.297 1_556 S
Cd296 O307 2.439 1_556 S
O297 Cd296 2.240 . S
O297 C302 1.279 . S
O298 Cd295 2.297 . S
O298 C300 1.247 . S
O299 Cd295 2.439 . S
O299 C300 1.208 . S
C300 O298 1.247 . S
C300 O299 1.208 . S
C301 O306 1.247 . S
C301 O307 1.208 . S
C302 O294 1.315 . S
C302 O297 1.279 . S
C303 O304 1.315 . S
C303 O305 1.279 . S
O304 Cd296 2.223 . S
O304 C303 1.315 . S
O305 Cd295 2.240 . S
O305 C303 1.279 . S
O306 Cd296 2.297 1_554 S
O306 C301 1.247 . S
O307 Cd296 2.439 1_554 S
O307 C301 1.208 . S
O308 Cd309 2.223 . S
O308 C316 1.315 1_655 S
Cd309 O308 2.223 . S
Cd309 O312 2.297 . S
Cd309 O313 2.439 . S
Cd309 O319 2.240 . S
Cd310 O311 2.239 . S
Cd310 O318 2.223 . S
Cd310 O320 2.297 . S
Cd310 O321 2.439 . S
O311 Cd310 2.239 . S
O311 C316 1.280 1_655 S
O312 Cd309 2.297 . S
O312 C314 1.247 . S
O313 Cd309 2.439 . S
O313 C314 1.208 . S
C314 O312 1.247 . S
C314 O313 1.208 . S
C315 O320 1.247 . S
C315 O321 1.208 . S
C316 O308 1.315 1_455 S
C316 O311 1.280 1_455 S
C317 O318 1.315 . S
C317 O319 1.279 . S
O318 Cd310 2.223 . S
O318 C317 1.315 . S
O319 Cd309 2.240 . S
O319 C317 1.279 . S
O320 Cd310 2.297 . S
O320 C315 1.247 . S
O321 Cd310 2.439 . S
O321 C315 1.208 . S
O322 Cd323 2.223 . S
O322 C330 1.315 . S
Cd323 O322 2.223 . S
Cd323 O326 2.297 . S
Cd323 O327 2.439 . S
Cd323 O333 2.240 . S
Cd324 O325 2.240 . S
Cd324 O332 2.223 . S
Cd324 O334 2.297 . S
Cd324 O335 2.439 . S
O325 Cd324 2.240 . S
O325 C330 1.279 . S
O326 Cd323 2.297 . S
O326 C328 1.247 . S
O327 Cd323 2.439 . S
O327 C328 1.208 . S
C328 O326 1.247 . S
C328 O327 1.208 . S
C329 O334 1.247 . S
C329 O335 1.208 . S
C330 O322 1.315 . S
C330 O325 1.279 . S
C331 O332 1.315 . S
C331 O333 1.279 . S
O332 Cd324 2.223 . S
O332 C331 1.315 . S
O333 Cd323 2.240 . S
O333 C331 1.279 . S
O334 Cd324 2.297 . S
O334 C329 1.247 . S
O335 Cd324 2.439 . S
O335 C329 1.208 . S
O336 Cd337 2.223 . S
O336 C344 1.315 . S
Cd337 O336 2.223 . S
Cd337 O340 2.297 . S
Cd337 O341 2.439 . S
Cd337 O347 2.240 . S
Cd338 O339 2.240 . S
Cd338 O346 2.223 . S
Cd338 O348 2.297 . S
Cd338 O349 2.439 . S
O339 Cd338 2.240 . S
O339 C344 1.279 . S
O340 Cd337 2.297 . S
O340 C342 1.247 . S
O341 Cd337 2.439 . S
O341 C342 1.208 . S
C342 O340 1.247 . S
C342 O341 1.208 . S
C343 O348 1.247 . S
C343 O349 1.208 . S
C344 O336 1.315 . S
C344 O339 1.279 . S
C345 O346 1.315 . S
C345 O347 1.279 . S
O346 Cd338 2.223 . S
O346 C345 1.315 . S
O347 Cd337 2.240 . S
O347 C345 1.279 . S
O348 Cd338 2.297 . S
O348 C343 1.247 . S
O349 Cd338 2.439 . S
O349 C343 1.208 . S
O350 Cd351 2.223 . S
O350 C358 1.315 . S
Cd351 O350 2.223 . S
Cd351 O354 2.297 . S
Cd351 O355 2.439 . S
Cd351 O361 2.240 . S
Cd352 O353 2.240 . S
Cd352 O360 2.223 . S
Cd352 O362 2.297 1_556 S
Cd352 O363 2.439 1_556 S
O353 Cd352 2.240 . S
O353 C358 1.279 . S
O354 Cd351 2.297 . S
O354 C356 1.247 . S
O355 Cd351 2.439 . S
O355 C356 1.208 . S
C356 O354 1.247 . S
C356 O355 1.208 . S
C357 O362 1.247 . S
C357 O363 1.208 . S
C358 O350 1.315 . S
C358 O353 1.279 . S
C359 O360 1.315 . S
C359 O361 1.279 . S
O360 Cd352 2.223 . S
O360 C359 1.315 . S
O361 Cd351 2.240 . S
O361 C359 1.279 . S
O362 Cd352 2.297 1_554 S
O362 C357 1.247 . S
O363 Cd352 2.439 1_554 S
O363 C357 1.208 . S
O364 Cd365 2.223 . S
O364 C372 1.315 1_455 S
Cd365 O364 2.223 . S
Cd365 O368 2.297 . S
Cd365 O369 2.439 . S
Cd365 O375 2.240 . S
Cd366 O367 2.239 . S
Cd366 O374 2.223 . S
Cd366 O376 2.297 . S
Cd366 O377 2.439 . S
O367 Cd366 2.239 . S
O367 C372 1.280 1_455 S
O368 Cd365 2.297 . S
O368 C370 1.247 . S
O369 Cd365 2.439 . S
O369 C370 1.208 . S
C370 O368 1.247 . S
C370 O369 1.208 . S
C371 O376 1.247 . S
C371 O377 1.208 . S
C372 O364 1.315 1_655 S
C372 O367 1.280 1_655 S
C373 O374 1.315 . S
C373 O375 1.279 . S
O374 Cd366 2.223 . S
O374 C373 1.315 . S
O375 Cd365 2.240 . S
O375 C373 1.279 . S
O376 Cd366 2.297 . S
O376 C371 1.247 . S
O377 Cd366 2.439 . S
O377 C371 1.208 . S
O378 Cd379 2.223 . S
O378 C386 1.315 . S
Cd379 O378 2.223 . S
Cd379 O382 2.297 . S
Cd379 O383 2.439 . S
Cd379 O389 2.240 . S
Cd380 O381 2.240 . S
Cd380 O388 2.223 . S
Cd380 O390 2.297 . S
Cd380 O391 2.439 . S
O381 Cd380 2.240 . S
O381 C386 1.279 . S
O382 Cd379 2.297 . S
O382 C384 1.247 . S
O383 Cd379 2.439 . S
O383 C384 1.208 . S
C384 O382 1.247 . S
C384 O383 1.208 . S
C385 O390 1.247 . S
C385 O391 1.208 . S
C386 O378 1.315 . S
C386 O381 1.279 . S
C387 O388 1.315 . S
C387 O389 1.279 . S
O388 Cd380 2.223 . S
O388 C387 1.315 . S
O389 Cd379 2.240 . S
O389 C387 1.279 . S
O390 Cd380 2.297 . S
O390 C385 1.247 . S
O391 Cd380 2.439 . S
O391 C385 1.208 . S
O392 Cd393 2.223 . S
O392 C400 1.315 . S
Cd393 O392 2.223 . S
Cd393 O396 2.297 . S
Cd393 O397 2.439 . S
Cd393 O403 2.240 . S
Cd394 O395 2.240 . S
Cd394 O402 2.223 . S
Cd394 O404 2.297 . S
Cd394 O405 2.439 . S
O395 Cd394 2.240 . S
O395 C400 1.279 . S
O396 Cd393 2.297 . S
O396 C398 1.247 . S
O397 Cd393 2.439 . S
O397 C398 1.208 . S
C398 O396 1.247 . S
C398 O397 1.208 . S
C399 O404 1.247 . S
C399 O405 1.208 . S
C400 O392 1.315 . S
C400 O395 1.279 . S
C401 O402 1.315 . S
C401 O403 1.279 . S
O402 Cd394 2.223 . S
O402 C401 1.315 . S
O403 Cd393 2.240 . S
O403 C401 1.279 . S
O404 Cd394 2.297 . S
O404 C399 1.247 . S
O405 Cd394 2.439 . S
O405 C399 1.208 . S
O406 Cd407 2.223 . S
O406 C414 1.315 . S
Cd407 O406 2.223 . S
Cd407 O410 2.297 . S
Cd407 O411 2.439 . S
Cd407 O417 2.240 . S
Cd408 O409 2.240 . S
Cd408 O416 2.223 . S
Cd408 O418 2.297 1_554 S
Cd408 O419 2.439 1_554 S
O409 Cd408 2.240 . S
O409 C414 1.279 . S
O410 Cd407 2.297 . S
O410 C412 1.247 . S
O411 Cd407 2.439 . S
O411 C412 1.208 . S
C412 O410 1.247 . S
C412 O411 1.208 . S
C413 O418 1.247 . S
C413 O419 1.208 . S
C414 O406 1.315 . S
C414 O409 1.279 . S
C415 O416 1.315 . S
C415 O417 1.279 . S
O416 Cd408 2.223 . S
O416 C415 1.315 . S
O417 Cd407 2.240 . S
O417 C415 1.279 . S
O418 Cd408 2.297 1_556 S
O418 C413 1.247 . S
O419 Cd408 2.439 1_556 S
O419 C413 1.208 . S
O420 Cd421 2.223 . S
O420 C428 1.315 1_455 S
Cd421 O420 2.223 . S
Cd421 O424 2.297 . S
Cd421 O425 2.439 . S
Cd421 O431 2.240 . S
Cd422 O423 2.239 . S
Cd422 O430 2.223 . S
Cd422 O432 2.297 . S
Cd422 O433 2.439 . S
O423 Cd422 2.239 . S
O423 C428 1.280 1_455 S
O424 Cd421 2.297 . S
O424 C426 1.247 . S
O425 Cd421 2.439 . S
O425 C426 1.208 . S
C426 O424 1.247 . S
C426 O425 1.208 . S
C427 O432 1.247 . S
C427 O433 1.208 . S
C428 O420 1.315 1_655 S
C428 O423 1.280 1_655 S
C429 O430 1.315 . S
C429 O431 1.279 . S
O430 Cd422 2.223 . S
O430 C429 1.315 . S
O431 Cd421 2.240 . S
O431 C429 1.279 . S
O432 Cd422 2.297 . S
O432 C427 1.247 . S
O433 Cd422 2.439 . S
O433 C427 1.208 . S
O434 Cd435 2.223 . S
O434 C442 1.315 . S
Cd435 O434 2.223 . S
Cd435 O438 2.297 . S
Cd435 O439 2.439 . S
Cd435 O445 2.240 . S
Cd436 O437 2.240 . S
Cd436 O444 2.223 . S
Cd436 O446 2.297 . S
Cd436 O447 2.439 . S
O437 Cd436 2.240 . S
O437 C442 1.279 . S
O438 Cd435 2.297 . S
O438 C440 1.247 . S
O439 Cd435 2.439 . S
O439 C440 1.208 . S
C440 O438 1.247 . S
C440 O439 1.208 . S
C441 O446 1.247 . S
C441 O447 1.208 . S
C442 O434 1.315 . S
C442 O437 1.279 . S
C443 O444 1.315 . S
C443 O445 1.279 . S
O444 Cd436 2.223 . S
O444 C443 1.315 . S
O445 Cd435 2.240 . S
O445 C443 1.279 . S
O446 Cd436 2.297 . S
O446 C441 1.247 . S
O447 Cd436 2.439 . S
O447 C441 1.208 . S
C448 C449 1.363 . S
C448 C454 1.379 . S
C448 N456 1.356 . S
C449 C448 1.363 . S
C449 C455 1.363 . S
C450 C451 1.363 . S
C450 C455 1.379 . S
C450 N457 1.356 . S
C451 C450 1.363 . S
C451 C454 1.363 . S
N452 C454 1.356 . S
N452 H464 0.984 . S
N452 H465 0.985 . S
N453 C455 1.356 . S
N453 H458 0.984 . S
N453 H459 0.985 . S
C454 C448 1.379 . S
C454 C451 1.363 . S
C454 N452 1.356 . S
C455 C449 1.363 . S
C455 C450 1.379 . S
C455 N453 1.356 . S
N456 C448 1.356 . S
N456 H462 0.984 . S
N456 H463 0.984 . S
N457 C450 1.356 . S
N457 H460 0.984 . S
N457 H461 0.985 . S
H458 N453 0.984 . S
H459 N453 0.985 . S
H460 N457 0.984 . S
H461 N457 0.985 . S
H462 N456 0.984 . S
H463 N456 0.984 . S
H464 N452 0.984 . S
H465 N452 0.985 . S
C466 C467 1.363 . S
C466 C472 1.379 . S
C466 N474 1.356 . S
C467 C466 1.363 . S
C467 C473 1.363 . S
C468 C469 1.363 . S
C468 C473 1.379 . S
C468 N475 1.356 . S
C469 C468 1.363 . S
C469 C472 1.363 . S
N470 C472 1.356 . S
N470 H482 0.984 . S
N470 H483 0.985 . S
N471 C473 1.356 . S
N471 H476 0.984 . S
N471 H477 0.985 . S
C472 C466 1.379 . S
C472 C469 1.363 . S
C472 N470 1.356 . S
C473 C467 1.363 . S
C473 C468 1.379 . S
C473 N471 1.356 . S
N474 C466 1.356 . S
N474 H480 0.984 . S
N474 H481 0.984 . S
N475 C468 1.356 . S
N475 H478 0.984 . S
N475 H479 0.985 . S
H476 N471 0.984 . S
H477 N471 0.985 . S
H478 N475 0.984 . S
H479 N475 0.985 . S
H480 N474 0.984 . S
H481 N474 0.984 . S
H482 N470 0.984 . S
H483 N470 0.985 . S
C484 C485 1.363 . S
C484 C490 1.379 . S
C484 N492 1.356 . S
C485 C484 1.363 . S
C485 C491 1.363 . S
C486 C487 1.363 . S
C486 C491 1.379 . S
C486 N493 1.356 . S
C487 C486 1.363 . S
C487 C490 1.363 . S
N488 C490 1.356 . S
N488 H500 0.984 . S
N488 H501 0.985 . S
N489 C491 1.356 . S
N489 H494 0.984 . S
N489 H495 0.985 . S
C490 C484 1.379 . S
C490 C487 1.363 . S
C490 N488 1.356 . S
C491 C485 1.363 . S
C491 C486 1.379 . S
C491 N489 1.356 . S
N492 C484 1.356 . S
N492 H498 0.984 . S
N492 H499 0.984 . S
N493 C486 1.356 . S
N493 H496 0.984 . S
N493 H497 0.985 . S
H494 N489 0.984 . S
H495 N489 0.985 . S
H496 N493 0.984 . S
H497 N493 0.985 . S
H498 N492 0.984 . S
H499 N492 0.984 . S
H500 N488 0.984 . S
H501 N488 0.985 . S
C502 C503 1.363 . S
C502 C508 1.379 . S
C502 N510 1.356 . S
C503 C502 1.363 . S
C503 C509 1.363 . S
C504 C505 1.363 . S
C504 C509 1.379 . S
C504 N511 1.356 . S
C505 C504 1.363 . S
C505 C508 1.363 . S
N506 C508 1.356 . S
N506 H518 0.984 . S
N506 H519 0.985 . S
N507 C509 1.356 . S
N507 H512 0.984 . S
N507 H513 0.985 . S
C508 C502 1.379 . S
C508 C505 1.363 . S
C508 N506 1.356 . S
C509 C503 1.363 . S
C509 C504 1.379 . S
C509 N507 1.356 . S
N510 C502 1.356 . S
N510 H516 0.984 . S
N510 H517 0.984 . S
N511 C504 1.356 . S
N511 H514 0.984 . S
N511 H515 0.985 . S
H512 N507 0.984 . S
H513 N507 0.985 . S
H514 N511 0.984 . S
H515 N511 0.985 . S
H516 N510 0.984 . S
H517 N510 0.984 . S
H518 N506 0.984 . S
H519 N506 0.985 . S
C520 C521 1.363 . S
C520 C526 1.379 . S
C520 N528 1.356 . S
C521 C520 1.363 . S
C521 C527 1.363 . S
C522 C523 1.363 . S
C522 C527 1.379 . S
C522 N529 1.356 . S
C523 C522 1.363 . S
C523 C526 1.363 . S
N524 C526 1.356 . S
N524 H536 0.984 . S
N524 H537 0.985 . S
N525 C527 1.356 . S
N525 H530 0.984 . S
N525 H531 0.985 . S
C526 C520 1.379 . S
C526 C523 1.363 . S
C526 N524 1.356 . S
C527 C521 1.363 . S
C527 C522 1.379 . S
C527 N525 1.356 . S
N528 C520 1.356 . S
N528 H534 0.984 . S
N528 H535 0.984 . S
N529 C522 1.356 . S
N529 H532 0.984 . S
N529 H533 0.985 . S
H530 N525 0.984 . S
H531 N525 0.985 . S
H532 N529 0.984 . S
H533 N529 0.985 . S
H534 N528 0.984 . S
H535 N528 0.984 . S
H536 N524 0.984 . S
H537 N524 0.985 . S
C538 C539 1.363 . S
C538 C544 1.379 . S
C538 N546 1.356 . S
C539 C538 1.363 . S
C539 C545 1.363 . S
C540 C541 1.363 . S
C540 C545 1.379 . S
C540 N547 1.356 . S
C541 C540 1.363 . S
C541 C544 1.363 . S
N542 C544 1.356 . S
N542 H554 0.984 . S
N542 H555 0.985 . S
N543 C545 1.356 . S
N543 H548 0.984 . S
N543 H549 0.985 . S
C544 C538 1.379 . S
C544 C541 1.363 . S
C544 N542 1.356 . S
C545 C539 1.363 . S
C545 C540 1.379 . S
C545 N543 1.356 . S
N546 C538 1.356 . S
N546 H552 0.984 . S
N546 H553 0.984 . S
N547 C540 1.356 . S
N547 H550 0.984 . S
N547 H551 0.985 . S
H548 N543 0.984 . S
H549 N543 0.985 . S
H550 N547 0.984 . S
H551 N547 0.985 . S
H552 N546 0.984 . S
H553 N546 0.984 . S
H554 N542 0.984 . S
H555 N542 0.985 . S
C556 C557 1.363 . S
C556 C562 1.379 . S
C556 N564 1.356 . S
C557 C556 1.363 . S
C557 C563 1.363 . S
C558 C559 1.363 . S
C558 C563 1.379 . S
C558 N565 1.356 . S
C559 C558 1.363 . S
C559 C562 1.363 . S
N560 C562 1.356 . S
N560 H572 0.984 . S
N560 H573 0.985 . S
N561 C563 1.356 . S
N561 H566 0.984 . S
N561 H567 0.985 . S
C562 C556 1.379 . S
C562 C559 1.363 . S
C562 N560 1.356 . S
C563 C557 1.363 . S
C563 C558 1.379 . S
C563 N561 1.356 . S
N564 C556 1.356 . S
N564 H570 0.984 . S
N564 H571 0.984 . S
N565 C558 1.356 . S
N565 H568 0.984 . S
N565 H569 0.985 . S
H566 N561 0.984 . S
H567 N561 0.985 . S
H568 N565 0.984 . S
H569 N565 0.985 . S
H570 N564 0.984 . S
H571 N564 0.984 . S
H572 N560 0.984 . S
H573 N560 0.985 . S
C574 C575 1.363 . S
C574 C580 1.379 . S
C574 N582 1.356 . S
C575 C574 1.363 . S
C575 C581 1.363 . S
C576 C577 1.363 . S
C576 C581 1.379 . S
C576 N583 1.356 . S
C577 C576 1.363 . S
C577 C580 1.363 . S
N578 C580 1.356 . S
N578 H590 0.984 . S
N578 H591 0.985 . S
N579 C581 1.356 . S
N579 H584 0.984 . S
N579 H585 0.985 . S
C580 C574 1.379 . S
C580 C577 1.363 . S
C580 N578 1.356 . S
C581 C575 1.363 . S
C581 C576 1.379 . S
C581 N579 1.356 . S
N582 C574 1.356 . S
N582 H588 0.984 . S
N582 H589 0.984 . S
N583 C576 1.356 . S
N583 H586 0.984 . S
N583 H587 0.985 . S
H584 N579 0.984 . S
H585 N579 0.985 . S
H586 N583 0.984 . S
H587 N583 0.985 . S
H588 N582 0.984 . S
H589 N582 0.984 . S
H590 N578 0.984 . S
H591 N578 0.985 . S
C592 C593 1.363 . S
C592 C598 1.379 . S
C592 N600 1.356 . S
C593 C592 1.363 . S
C593 C599 1.363 . S
C594 C595 1.363 . S
C594 C599 1.379 . S
C594 N601 1.356 . S
C595 C594 1.363 . S
C595 C598 1.363 . S
N596 C598 1.356 . S
N596 H608 0.984 . S
N596 H609 0.985 . S
N597 C599 1.356 . S
N597 H602 0.984 . S
N597 H603 0.985 . S
C598 C592 1.379 . S
C598 C595 1.363 . S
C598 N596 1.356 . S
C599 C593 1.363 . S
C599 C594 1.379 . S
C599 N597 1.356 . S
N600 C592 1.356 . S
N600 H606 0.984 . S
N600 H607 0.984 . S
N601 C594 1.356 . S
N601 H604 0.984 . S
N601 H605 0.985 . S
H602 N597 0.984 . S
H603 N597 0.985 . S
H604 N601 0.984 . S
H605 N601 0.985 . S
H606 N600 0.984 . S
H607 N600 0.984 . S
H608 N596 0.984 . S
H609 N596 0.985 . S
C610 C611 1.363 . S
C610 C616 1.379 . S
C610 N618 1.356 . S
C611 C610 1.363 . S
C611 C617 1.363 . S
C612 C613 1.363 . S
C612 C617 1.379 . S
C612 N619 1.356 . S
C613 C612 1.363 . S
C613 C616 1.363 . S
N614 C616 1.356 . S
N614 H626 0.984 . S
N614 H627 0.985 . S
N615 C617 1.356 . S
N615 H620 0.984 . S
N615 H621 0.985 . S
C616 C610 1.379 . S
C616 C613 1.363 . S
C616 N614 1.356 . S
C617 C611 1.363 . S
C617 C612 1.379 . S
C617 N615 1.356 . S
N618 C610 1.356 . S
N618 H624 0.984 . S
N618 H625 0.984 . S
N619 C612 1.356 . S
N619 H622 0.984 . S
N619 H623 0.985 . S
H620 N615 0.984 . S
H621 N615 0.985 . S
H622 N619 0.984 . S
H623 N619 0.985 . S
H624 N618 0.984 . S
H625 N618 0.984 . S
H626 N614 0.984 . S
H627 N614 0.985 . S
C628 C629 1.363 . S
C628 C634 1.379 . S
C628 N636 1.356 . S
C629 C628 1.363 . S
C629 C635 1.363 . S
C630 C631 1.363 . S
C630 C635 1.379 . S
C630 N637 1.356 . S
C631 C630 1.363 . S
C631 C634 1.363 . S
N632 C634 1.356 . S
N632 H644 0.984 . S
N632 H645 0.985 . S
N633 C635 1.356 . S
N633 H638 0.984 . S
N633 H639 0.985 . S
C634 C628 1.379 . S
C634 C631 1.363 . S
C634 N632 1.356 . S
C635 C629 1.363 . S
C635 C630 1.379 . S
C635 N633 1.356 . S
N636 C628 1.356 . S
N636 H642 0.984 . S
N636 H643 0.984 . S
N637 C630 1.356 . S
N637 H640 0.984 . S
N637 H641 0.985 . S
H638 N633 0.984 . S
H639 N633 0.985 . S
H640 N637 0.984 . S
H641 N637 0.985 . S
H642 N636 0.984 . S
H643 N636 0.984 . S
H644 N632 0.984 . S
H645 N632 0.985 . S
C646 C647 1.363 . S
C646 C652 1.379 . S
C646 N654 1.356 . S
C647 C646 1.363 . S
C647 C653 1.363 . S
C648 C649 1.363 . S
C648 C653 1.379 . S
C648 N655 1.356 . S
C649 C648 1.363 . S
C649 C652 1.363 . S
N650 C652 1.356 . S
N650 H662 0.984 . S
N650 H663 0.985 . S
N651 C653 1.356 . S
N651 H656 0.984 . S
N651 H657 0.985 . S
C652 C646 1.379 . S
C652 C649 1.363 . S
C652 N650 1.356 . S
C653 C647 1.363 . S
C653 C648 1.379 . S
C653 N651 1.356 . S
N654 C646 1.356 . S
N654 H660 0.984 . S
N654 H661 0.984 . S
N655 C648 1.356 . S
N655 H658 0.984 . S
N655 H659 0.985 . S
H656 N651 0.984 . S
H657 N651 0.985 . S
H658 N655 0.984 . S
H659 N655 0.985 . S
H660 N654 0.984 . S
H661 N654 0.984 . S
H662 N650 0.984 . S
H663 N650 0.985 . S
C664 C665 1.363 . S
C664 C670 1.379 . S
C664 N672 1.356 . S
C665 C664 1.363 . S
C665 C671 1.363 . S
C666 C667 1.363 . S
C666 C671 1.379 . S
C666 N673 1.356 . S
C667 C666 1.363 . S
C667 C670 1.363 . S
N668 C670 1.356 . S
N668 H680 0.984 . S
N668 H681 0.985 . S
N669 C671 1.356 . S
N669 H674 0.984 . S
N669 H675 0.985 . S
C670 C664 1.379 . S
C670 C667 1.363 . S
C670 N668 1.356 . S
C671 C665 1.363 . S
C671 C666 1.379 . S
C671 N669 1.356 . S
N672 C664 1.356 . S
N672 H678 0.984 . S
N672 H679 0.984 . S
N673 C666 1.356 . S
N673 H676 0.984 . S
N673 H677 0.985 . S
H674 N669 0.984 . S
H675 N669 0.985 . S
H676 N673 0.984 . S
H677 N673 0.985 . S
H678 N672 0.984 . S
H679 N672 0.984 . S
H680 N668 0.984 . S
H681 N668 0.985 . S
C682 C683 1.363 . S
C682 C688 1.379 . S
C682 N690 1.356 . S
C683 C682 1.363 . S
C683 C689 1.363 . S
C684 C685 1.363 . S
C684 C689 1.379 . S
C684 N691 1.356 . S
C685 C684 1.363 . S
C685 C688 1.363 . S
N686 C688 1.356 . S
N686 H698 0.984 . S
N686 H699 0.985 . S
N687 C689 1.356 . S
N687 H692 0.984 . S
N687 H693 0.985 . S
C688 C682 1.379 . S
C688 C685 1.363 . S
C688 N686 1.356 . S
C689 C683 1.363 . S
C689 C684 1.379 . S
C689 N687 1.356 . S
N690 C682 1.356 . S
N690 H696 0.984 . S
N690 H697 0.984 . S
N691 C684 1.356 . S
N691 H694 0.984 . S
N691 H695 0.985 . S
H692 N687 0.984 . S
H693 N687 0.985 . S
H694 N691 0.984 . S
H695 N691 0.985 . S
H696 N690 0.984 . S
H697 N690 0.984 . S
H698 N686 0.984 . S
H699 N686 0.985 . S
C700 C701 1.363 . S
C700 C706 1.379 . S
C700 N708 1.356 . S
C701 C700 1.363 . S
C701 C707 1.363 . S
C702 C703 1.363 . S
C702 C707 1.379 . S
C702 N709 1.356 . S
C703 C702 1.363 . S
C703 C706 1.363 . S
N704 C706 1.356 . S
N704 H716 0.984 . S
N704 H717 0.985 . S
N705 C707 1.356 . S
N705 H710 0.984 . S
N705 H711 0.985 . S
C706 C700 1.379 . S
C706 C703 1.363 . S
C706 N704 1.356 . S
C707 C701 1.363 . S
C707 C702 1.379 . S
C707 N705 1.356 . S
N708 C700 1.356 . S
N708 H714 0.984 . S
N708 H715 0.984 . S
N709 C702 1.356 . S
N709 H712 0.984 . S
N709 H713 0.985 . S
H710 N705 0.984 . S
H711 N705 0.985 . S
H712 N709 0.984 . S
H713 N709 0.985 . S
H714 N708 0.984 . S
H715 N708 0.984 . S
H716 N704 0.984 . S
H717 N704 0.985 . S
C718 C719 1.363 . S
C718 C724 1.379 . S
C718 N726 1.356 . S
C719 C718 1.363 . S
C719 C725 1.363 . S
C720 C721 1.363 . S
C720 C725 1.379 . S
C720 N727 1.356 . S
C721 C720 1.363 . S
C721 C724 1.363 . S
N722 C724 1.356 . S
N722 H734 0.984 . S
N722 H735 0.985 . S
N723 C725 1.356 . S
N723 H728 0.984 . S
N723 H729 0.985 . S
C724 C718 1.379 . S
C724 C721 1.363 . S
C724 N722 1.356 . S
C725 C719 1.363 . S
C725 C720 1.379 . S
C725 N723 1.356 . S
N726 C718 1.356 . S
N726 H732 0.984 . S
N726 H733 0.984 . S
N727 C720 1.356 . S
N727 H730 0.984 . S
N727 H731 0.985 . S
H728 N723 0.984 . S
H729 N723 0.985 . S
H730 N727 0.984 . S
H731 N727 0.985 . S
H732 N726 0.984 . S
H733 N726 0.984 . S
H734 N722 0.984 . S
H735 N722 0.985 . S
C736 C737 1.363 . S
C736 C742 1.379 . S
C736 N744 1.356 . S
C737 C736 1.363 . S
C737 C743 1.363 . S
C738 C739 1.363 . S
C738 C743 1.379 . S
C738 N745 1.356 . S
C739 C738 1.363 . S
C739 C742 1.363 . S
N740 C742 1.356 . S
N740 H752 0.984 . S
N740 H753 0.985 . S
N741 C743 1.356 . S
N741 H746 0.984 . S
N741 H747 0.985 . S
C742 C736 1.379 . S
C742 C739 1.363 . S
C742 N740 1.356 . S
C743 C737 1.363 . S
C743 C738 1.379 . S
C743 N741 1.356 . S
N744 C736 1.356 . S
N744 H750 0.984 . S
N744 H751 0.984 . S
N745 C738 1.356 . S
N745 H748 0.984 . S
N745 H749 0.985 . S
H746 N741 0.984 . S
H747 N741 0.985 . S
H748 N745 0.984 . S
H749 N745 0.985 . S
H750 N744 0.984 . S
H751 N744 0.984 . S
H752 N740 0.984 . S
H753 N740 0.985 . S
C754 C755 1.363 . S
C754 C760 1.379 . S
C754 N762 1.356 . S
C755 C754 1.363 . S
C755 C761 1.363 . S
C756 C757 1.363 . S
C756 C761 1.379 . S
C756 N763 1.356 . S
C757 C756 1.363 . S
C757 C760 1.363 . S
N758 C760 1.356 . S
N758 H770 0.984 . S
N758 H771 0.985 . S
N759 C761 1.356 . S
N759 H764 0.984 . S
N759 H765 0.985 . S
C760 C754 1.379 . S
C760 C757 1.363 . S
C760 N758 1.356 . S
C761 C755 1.363 . S
C761 C756 1.379 . S
C761 N759 1.356 . S
N762 C754 1.356 . S
N762 H768 0.984 . S
N762 H769 0.984 . S
N763 C756 1.356 . S
N763 H766 0.984 1_655 S
N763 H767 0.985 . S
H764 N759 0.984 . S
H765 N759 0.985 . S
H766 N763 0.984 1_455 S
H767 N763 0.985 . S
H768 N762 0.984 . S
H769 N762 0.984 . S
H770 N758 0.984 . S
H771 N758 0.985 . S
C772 C773 1.363 . S
C772 C778 1.379 . S
C772 N780 1.356 . S
C773 C772 1.363 . S
C773 C779 1.363 . S
C774 C775 1.363 . S
C774 C779 1.379 . S
C774 N781 1.356 . S
C775 C774 1.363 . S
C775 C778 1.363 . S
N776 C778 1.356 . S
N776 H788 0.984 . S
N776 H789 0.985 . S
N777 C779 1.356 . S
N777 H782 0.984 . S
N777 H783 0.985 . S
C778 C772 1.379 . S
C778 C775 1.363 . S
C778 N776 1.356 . S
C779 C773 1.363 . S
C779 C774 1.379 . S
C779 N777 1.356 . S
N780 C772 1.356 . S
N780 H786 0.984 . S
N780 H787 0.984 . S
N781 C774 1.356 . S
N781 H784 0.984 . S
N781 H785 0.985 . S
H782 N777 0.984 . S
H783 N777 0.985 . S
H784 N781 0.984 . S
H785 N781 0.985 . S
H786 N780 0.984 . S
H787 N780 0.984 . S
H788 N776 0.984 . S
H789 N776 0.985 . S
C790 C791 1.363 . S
C790 C796 1.379 . S
C790 N798 1.356 . S
C791 C790 1.363 . S
C791 C797 1.363 . S
C792 C793 1.363 . S
C792 C797 1.379 . S
C792 N799 1.356 . S
C793 C792 1.363 . S
C793 C796 1.363 . S
N794 C796 1.356 . S
N794 H806 0.984 . S
N794 H807 0.985 . S
N795 C797 1.356 . S
N795 H800 0.984 . S
N795 H801 0.985 . S
C796 C790 1.379 . S
C796 C793 1.363 . S
C796 N794 1.356 . S
C797 C791 1.363 . S
C797 C792 1.379 . S
C797 N795 1.356 . S
N798 C790 1.356 . S
N798 H804 0.984 . S
N798 H805 0.984 . S
N799 C792 1.356 . S
N799 H802 0.984 . S
N799 H803 0.985 . S
H800 N795 0.984 . S
H801 N795 0.985 . S
H802 N799 0.984 . S
H803 N799 0.985 . S
H804 N798 0.984 . S
H805 N798 0.984 . S
H806 N794 0.984 . S
H807 N794 0.985 . S
C808 C809 1.363 . S
C808 C814 1.379 . S
C808 N816 1.356 . S
C809 C808 1.363 . S
C809 C815 1.363 . S
C810 C811 1.363 . S
C810 C815 1.379 . S
C810 N817 1.356 . S
C811 C810 1.363 . S
C811 C814 1.363 . S
N812 C814 1.356 . S
N812 H824 0.984 . S
N812 H825 0.985 . S
N813 C815 1.356 . S
N813 H818 0.984 . S
N813 H819 0.985 . S
C814 C808 1.379 . S
C814 C811 1.363 . S
C814 N812 1.356 . S
C815 C809 1.363 . S
C815 C810 1.379 . S
C815 N813 1.356 . S
N816 C808 1.356 . S
N816 H822 0.984 . S
N816 H823 0.984 . S
N817 C810 1.356 . S
N817 H820 0.984 . S
N817 H821 0.985 . S
H818 N813 0.984 . S
H819 N813 0.985 . S
H820 N817 0.984 . S
H821 N817 0.985 . S
H822 N816 0.984 . S
H823 N816 0.984 . S
H824 N812 0.984 . S
H825 N812 0.985 . S
C826 C827 1.363 . S
C826 C832 1.379 . S
C826 N834 1.356 . S
C827 C826 1.363 . S
C827 C833 1.363 . S
C828 C829 1.363 . S
C828 C833 1.379 . S
C828 N835 1.356 . S
C829 C828 1.363 . S
C829 C832 1.363 . S
N830 C832 1.356 . S
N830 H842 0.984 . S
N830 H843 0.985 . S
N831 C833 1.356 . S
N831 H836 0.984 . S
N831 H837 0.985 . S
C832 C826 1.379 . S
C832 C829 1.363 . S
C832 N830 1.356 . S
C833 C827 1.363 . S
C833 C828 1.379 . S
C833 N831 1.356 . S
N834 C826 1.356 . S
N834 H840 0.984 . S
N834 H841 0.984 . S
N835 C828 1.356 . S
N835 H838 0.984 . S
N835 H839 0.985 . S
H836 N831 0.984 . S
H837 N831 0.985 . S
H838 N835 0.984 . S
H839 N835 0.985 . S
H840 N834 0.984 . S
H841 N834 0.984 . S
H842 N830 0.984 . S
H843 N830 0.985 . S
C844 C845 1.363 . S
C844 C850 1.379 . S
C844 N852 1.356 . S
C845 C844 1.363 . S
C845 C851 1.363 . S
C846 C847 1.363 . S
C846 C851 1.379 . S
C846 N853 1.356 . S
C847 C846 1.363 . S
C847 C850 1.363 . S
N848 C850 1.356 . S
N848 H860 0.984 . S
N848 H861 0.985 . S
N849 C851 1.356 . S
N849 H854 0.984 . S
N849 H855 0.985 . S
C850 C844 1.379 . S
C850 C847 1.363 . S
C850 N848 1.356 . S
C851 C845 1.363 . S
C851 C846 1.379 . S
C851 N849 1.356 . S
N852 C844 1.356 . S
N852 H858 0.984 . S
N852 H859 0.984 . S
N853 C846 1.356 . S
N853 H856 0.984 . S
N853 H857 0.985 . S
H854 N849 0.984 . S
H855 N849 0.985 . S
H856 N853 0.984 . S
H857 N853 0.985 . S
H858 N852 0.984 . S
H859 N852 0.984 . S
H860 N848 0.984 . S
H861 N848 0.985 . S
C862 C863 1.363 . S
C862 C868 1.379 . S
C862 N870 1.356 . S
C863 C862 1.363 . S
C863 C869 1.363 . S
C864 C865 1.363 . S
C864 C869 1.379 . S
C864 N871 1.356 . S
C865 C864 1.363 . S
C865 C868 1.363 . S
N866 C868 1.356 . S
N866 H878 0.984 . S
N866 H879 0.985 . S
N867 C869 1.356 . S
N867 H872 0.984 . S
N867 H873 0.985 . S
C868 C862 1.379 . S
C868 C865 1.363 . S
C868 N866 1.356 . S
C869 C863 1.363 . S
C869 C864 1.379 . S
C869 N867 1.356 . S
N870 C862 1.356 . S
N870 H876 0.984 . S
N870 H877 0.984 . S
N871 C864 1.356 . S
N871 H874 0.984 . S
N871 H875 0.985 . S
H872 N867 0.984 . S
H873 N867 0.985 . S
H874 N871 0.984 . S
H875 N871 0.985 . S
H876 N870 0.984 . S
H877 N870 0.984 . S
H878 N866 0.984 . S
H879 N866 0.985 . S
C880 C881 1.363 . S
C880 C886 1.379 . S
C880 N888 1.356 . S
C881 C880 1.363 . S
C881 C887 1.363 . S
C882 C883 1.363 . S
C882 C887 1.379 . S
C882 N889 1.356 . S
C883 C882 1.363 . S
C883 C886 1.363 . S
N884 C886 1.356 . S
N884 H896 0.984 . S
N884 H897 0.985 . S
N885 C887 1.356 . S
N885 H890 0.984 . S
N885 H891 0.985 . S
C886 C880 1.379 . S
C886 C883 1.363 . S
C886 N884 1.356 . S
C887 C881 1.363 . S
C887 C882 1.379 . S
C887 N885 1.356 . S
N888 C880 1.356 . S
N888 H894 0.984 . S
N888 H895 0.984 . S
N889 C882 1.356 . S
N889 H892 0.984 . S
N889 H893 0.985 . S
H890 N885 0.984 . S
H891 N885 0.985 . S
H892 N889 0.984 . S
H893 N889 0.985 . S
H894 N888 0.984 . S
H895 N888 0.984 . S
H896 N884 0.984 . S
H897 N884 0.985 . S
C898 C899 1.363 . S
C898 C904 1.379 . S
C898 N906 1.356 . S
C899 C898 1.363 . S
C899 C905 1.363 . S
C900 C901 1.363 . S
C900 C905 1.379 . S
C900 N907 1.356 . S
C901 C900 1.363 . S
C901 C904 1.363 . S
N902 C904 1.356 . S
N902 H914 0.984 . S
N902 H915 0.985 . S
N903 C905 1.356 . S
N903 H908 0.984 . S
N903 H909 0.985 . S
C904 C898 1.379 . S
C904 C901 1.363 . S
C904 N902 1.356 . S
C905 C899 1.363 . S
C905 C900 1.379 . S
C905 N903 1.356 . S
N906 C898 1.356 . S
N906 H912 0.984 1_455 S
N906 H913 0.984 1_455 S
N907 C900 1.356 . S
N907 H910 0.984 . S
N907 H911 0.985 . S
H908 N903 0.984 . S
H909 N903 0.985 . S
H910 N907 0.984 . S
H911 N907 0.985 . S
H912 N906 0.984 1_655 S
H913 N906 0.984 1_655 S
H914 N902 0.984 . S
H915 N902 0.985 . S
C916 C917 1.363 . S
C916 C922 1.379 . S
C916 N924 1.356 . S
C917 C916 1.363 . S
C917 C923 1.363 . S
C918 C919 1.363 . S
C918 C923 1.379 . S
C918 N925 1.356 . S
C919 C918 1.363 . S
C919 C922 1.363 . S
N920 C922 1.356 . S
N920 H932 0.984 . S
N920 H933 0.985 . S
N921 C923 1.356 . S
N921 H926 0.984 . S
N921 H927 0.985 . S
C922 C916 1.379 . S
C922 C919 1.363 . S
C922 N920 1.356 . S
C923 C917 1.363 . S
C923 C918 1.379 . S
C923 N921 1.356 . S
N924 C916 1.356 . S
N924 H930 0.984 . S
N924 H931 0.984 . S
N925 C918 1.356 . S
N925 H928 0.984 . S
N925 H929 0.985 . S
H926 N921 0.984 . S
H927 N921 0.985 . S
H928 N925 0.984 . S
H929 N925 0.985 . S
H930 N924 0.984 . S
H931 N924 0.984 . S
H932 N920 0.984 . S
H933 N920 0.985 . S
C934 C935 1.363 . S
C934 C940 1.379 . S
C934 N942 1.356 . S
C935 C934 1.363 . S
C935 C941 1.363 . S
C936 C937 1.363 . S
C936 C941 1.379 . S
C936 N943 1.356 . S
C937 C936 1.363 . S
C937 C940 1.363 . S
N938 C940 1.356 . S
N938 H950 0.984 . S
N938 H951 0.985 . S
N939 C941 1.356 . S
N939 H944 0.984 . S
N939 H945 0.985 . S
C940 C934 1.379 . S
C940 C937 1.363 . S
C940 N938 1.356 . S
C941 C935 1.363 . S
C941 C936 1.379 . S
C941 N939 1.356 . S
N942 C934 1.356 . S
N942 H948 0.984 . S
N942 H949 0.984 . S
N943 C936 1.356 . S
N943 H946 0.984 . S
N943 H947 0.985 . S
H944 N939 0.984 . S
H945 N939 0.985 . S
H946 N943 0.984 . S
H947 N943 0.985 . S
H948 N942 0.984 . S
H949 N942 0.984 . S
H950 N938 0.984 . S
H951 N938 0.985 . S
C952 C953 1.363 . S
C952 C958 1.379 . S
C952 N960 1.356 . S
C953 C952 1.363 . S
C953 C959 1.363 . S
C954 C955 1.363 . S
C954 C959 1.379 . S
C954 N961 1.356 . S
C955 C954 1.363 . S
C955 C958 1.363 . S
N956 C958 1.356 . S
N956 H968 0.984 . S
N956 H969 0.985 . S
N957 C959 1.356 . S
N957 H962 0.984 . S
N957 H963 0.985 . S
C958 C952 1.379 . S
C958 C955 1.363 . S
C958 N956 1.356 . S
C959 C953 1.363 . S
C959 C954 1.379 . S
C959 N957 1.356 . S
N960 C952 1.356 . S
N960 H966 0.984 . S
N960 H967 0.984 . S
N961 C954 1.356 . S
N961 H964 0.984 . S
N961 H965 0.985 . S
H962 N957 0.984 . S
H963 N957 0.985 . S
H964 N961 0.984 . S
H965 N961 0.985 . S
H966 N960 0.984 . S
H967 N960 0.984 . S
H968 N956 0.984 . S
H969 N956 0.985 . S
C970 C971 1.363 . S
C970 C976 1.379 . S
C970 N978 1.356 . S
C971 C970 1.363 . S
C971 C977 1.363 . S
C972 C973 1.363 . S
C972 C977 1.379 . S
C972 N979 1.356 . S
C973 C972 1.363 . S
C973 C976 1.363 . S
N974 C976 1.356 . S
N974 H986 0.984 . S
N974 H987 0.985 . S
N975 C977 1.356 . S
N975 H980 0.984 . S
N975 H981 0.985 . S
C976 C970 1.379 . S
C976 C973 1.363 . S
C976 N974 1.356 . S
C977 C971 1.363 . S
C977 C972 1.379 . S
C977 N975 1.356 . S
N978 C970 1.356 . S
N978 H984 0.984 . S
N978 H985 0.984 . S
N979 C972 1.356 . S
N979 H982 0.984 . S
N979 H983 0.985 . S
H980 N975 0.984 . S
H981 N975 0.985 . S
H982 N979 0.984 . S
H983 N979 0.985 . S
H984 N978 0.984 . S
H985 N978 0.984 . S
H986 N974 0.984 . S
H987 N974 0.985 . S
C988 C989 1.363 . S
C988 C994 1.379 . S
C988 N996 1.356 . S
C989 C988 1.363 . S
C989 C995 1.363 . S
C990 C991 1.363 . S
C990 C995 1.379 . S
C990 N997 1.356 . S
C991 C990 1.363 . S
C991 C994 1.363 . S
N992 C994 1.356 . S
N992 H1004 0.984 . S
N992 H1005 0.985 . S
N993 C995 1.356 . S
N993 H998 0.984 . S
N993 H999 0.985 . S
C994 C988 1.379 . S
C994 C991 1.363 . S
C994 N992 1.356 . S
C995 C989 1.363 . S
C995 C990 1.379 . S
C995 N993 1.356 . S
N996 C988 1.356 . S
N996 H1002 0.984 . S
N996 H1003 0.984 . S
N997 C990 1.356 . S
N997 H1000 0.984 . S
N997 H1001 0.985 . S
H998 N993 0.984 . S
H999 N993 0.985 . S
H1000 N997 0.984 . S
H1001 N997 0.985 . S
H1002 N996 0.984 . S
H1003 N996 0.984 . S
H1004 N992 0.984 . S
H1005 N992 0.985 . S
C1006 C1007 1.363 . S
C1006 C1012 1.379 . S
C1006 N1014 1.356 . S
C1007 C1006 1.363 . S
C1007 C1013 1.363 . S
C1008 C1009 1.363 . S
C1008 C1013 1.379 . S
C1008 N1015 1.356 . S
C1009 C1008 1.363 . S
C1009 C1012 1.363 . S
N1010 C1012 1.356 . S
N1010 H1022 0.984 . S
N1010 H1023 0.985 . S
N1011 C1013 1.356 . S
N1011 H1016 0.984 . S
N1011 H1017 0.985 . S
C1012 C1006 1.379 . S
C1012 C1009 1.363 . S
C1012 N1010 1.356 . S
C1013 C1007 1.363 . S
C1013 C1008 1.379 . S
C1013 N1011 1.356 . S
N1014 C1006 1.356 . S
N1014 H1020 0.984 . S
N1014 H1021 0.984 . S
N1015 C1008 1.356 . S
N1015 H1018 0.984 1_455 S
N1015 H1019 0.985 1_455 S
H1016 N1011 0.984 . S
H1017 N1011 0.985 . S
H1018 N1015 0.984 1_655 S
H1019 N1015 0.985 1_655 S
H1020 N1014 0.984 . S
H1021 N1014 0.984 . S
H1022 N1010 0.984 . S
H1023 N1010 0.985 . S
C1024 C1025 1.363 . S
C1024 C1030 1.379 . S
C1024 N1032 1.356 . S
C1025 C1024 1.363 . S
C1025 C1031 1.363 . S
C1026 C1027 1.363 . S
C1026 C1031 1.379 . S
C1026 N1033 1.356 . S
C1027 C1026 1.363 . S
C1027 C1030 1.363 . S
N1028 C1030 1.356 . S
N1028 H1040 0.984 . S
N1028 H1041 0.985 . S
N1029 C1031 1.356 . S
N1029 H1034 0.984 . S
N1029 H1035 0.985 . S
C1030 C1024 1.379 . S
C1030 C1027 1.363 . S
C1030 N1028 1.356 . S
C1031 C1025 1.363 . S
C1031 C1026 1.379 . S
C1031 N1029 1.356 . S
N1032 C1024 1.356 . S
N1032 H1038 0.984 . S
N1032 H1039 0.984 . S
N1033 C1026 1.356 . S
N1033 H1036 0.984 . S
N1033 H1037 0.985 . S
H1034 N1029 0.984 . S
H1035 N1029 0.985 . S
H1036 N1033 0.984 . S
H1037 N1033 0.985 . S
H1038 N1032 0.984 . S
H1039 N1032 0.984 . S
H1040 N1028 0.984 . S
H1041 N1028 0.985 . S
C1042 C1043 1.363 . S
C1042 C1048 1.379 . S
C1042 N1050 1.356 . S
C1043 C1042 1.363 . S
C1043 C1049 1.363 . S
C1044 C1045 1.363 . S
C1044 C1049 1.379 . S
C1044 N1051 1.356 . S
C1045 C1044 1.363 . S
C1045 C1048 1.363 . S
N1046 C1048 1.356 . S
N1046 H1058 0.984 . S
N1046 H1059 0.985 . S
N1047 C1049 1.356 . S
N1047 H1052 0.984 . S
N1047 H1053 0.985 . S
C1048 C1042 1.379 . S
C1048 C1045 1.363 . S
C1048 N1046 1.356 . S
C1049 C1043 1.363 . S
C1049 C1044 1.379 . S
C1049 N1047 1.356 . S
N1050 C1042 1.356 . S
N1050 H1056 0.984 . S
N1050 H1057 0.984 . S
N1051 C1044 1.356 . S
N1051 H1054 0.984 . S
N1051 H1055 0.985 . S
H1052 N1047 0.984 . S
H1053 N1047 0.985 . S
H1054 N1051 0.984 . S
H1055 N1051 0.985 . S
H1056 N1050 0.984 . S
H1057 N1050 0.984 . S
H1058 N1046 0.984 . S
H1059 N1046 0.985 . S
C1060 C1061 1.363 . S
C1060 C1066 1.379 . S
C1060 N1068 1.356 . S
C1061 C1060 1.363 . S
C1061 C1067 1.363 . S
C1062 C1063 1.363 . S
C1062 C1067 1.379 . S
C1062 N1069 1.356 . S
C1063 C1062 1.363 . S
C1063 C1066 1.363 . S
N1064 C1066 1.356 . S
N1064 H1076 0.984 . S
N1064 H1077 0.985 . S
N1065 C1067 1.356 . S
N1065 H1070 0.984 . S
N1065 H1071 0.985 . S
C1066 C1060 1.379 . S
C1066 C1063 1.363 . S
C1066 N1064 1.356 . S
C1067 C1061 1.363 . S
C1067 C1062 1.379 . S
C1067 N1065 1.356 . S
N1068 C1060 1.356 . S
N1068 H1074 0.984 . S
N1068 H1075 0.984 . S
N1069 C1062 1.356 . S
N1069 H1072 0.984 . S
N1069 H1073 0.985 . S
H1070 N1065 0.984 . S
H1071 N1065 0.985 . S
H1072 N1069 0.984 . S
H1073 N1069 0.985 . S
H1074 N1068 0.984 . S
H1075 N1068 0.984 . S
H1076 N1064 0.984 . S
H1077 N1064 0.985 . S
C1078 C1079 1.363 . S
C1078 C1084 1.379 . S
C1078 N1086 1.356 . S
C1079 C1078 1.363 . S
C1079 C1085 1.363 . S
C1080 C1081 1.363 . S
C1080 C1085 1.379 . S
C1080 N1087 1.356 . S
C1081 C1080 1.363 . S
C1081 C1084 1.363 . S
N1082 C1084 1.356 . S
N1082 H1094 0.984 . S
N1082 H1095 0.985 . S
N1083 C1085 1.356 . S
N1083 H1088 0.984 . S
N1083 H1089 0.985 . S
C1084 C1078 1.379 . S
C1084 C1081 1.363 . S
C1084 N1082 1.356 . S
C1085 C1079 1.363 . S
C1085 C1080 1.379 . S
C1085 N1083 1.356 . S
N1086 C1078 1.356 . S
N1086 H1092 0.984 . S
N1086 H1093 0.984 . S
N1087 C1080 1.356 . S
N1087 H1090 0.984 1_455 S
N1087 H1091 0.985 . S
H1088 N1083 0.984 . S
H1089 N1083 0.985 . S
H1090 N1087 0.984 1_655 S
H1091 N1087 0.985 . S
H1092 N1086 0.984 . S
H1093 N1086 0.984 . S
H1094 N1082 0.984 . S
H1095 N1082 0.985 . S
C1096 C1097 1.363 . S
C1096 C1102 1.379 . S
C1096 N1104 1.356 . S
C1097 C1096 1.363 . S
C1097 C1103 1.363 . S
C1098 C1099 1.363 . S
C1098 C1103 1.379 . S
C1098 N1105 1.356 . S
C1099 C1098 1.363 . S
C1099 C1102 1.363 . S
N1100 C1102 1.356 . S
N1100 H1112 0.984 . S
N1100 H1113 0.985 . S
N1101 C1103 1.356 . S
N1101 H1106 0.984 . S
N1101 H1107 0.985 . S
C1102 C1096 1.379 . S
C1102 C1099 1.363 . S
C1102 N1100 1.356 . S
C1103 C1097 1.363 . S
C1103 C1098 1.379 . S
C1103 N1101 1.356 . S
N1104 C1096 1.356 . S
N1104 H1110 0.984 . S
N1104 H1111 0.984 . S
N1105 C1098 1.356 . S
N1105 H1108 0.984 . S
N1105 H1109 0.985 . S
H1106 N1101 0.984 . S
H1107 N1101 0.985 . S
H1108 N1105 0.984 . S
H1109 N1105 0.985 . S
H1110 N1104 0.984 . S
H1111 N1104 0.984 . S
H1112 N1100 0.984 . S
H1113 N1100 0.985 . S
C1114 C1115 1.363 . S
C1114 C1120 1.379 . S
C1114 N1122 1.356 . S
C1115 C1114 1.363 . S
C1115 C1121 1.363 . S
C1116 C1117 1.363 . S
C1116 C1121 1.379 . S
C1116 N1123 1.356 . S
C1117 C1116 1.363 . S
C1117 C1120 1.363 . S
N1118 C1120 1.356 . S
N1118 H1130 0.984 . S
N1118 H1131 0.985 . S
N1119 C1121 1.356 . S
N1119 H1124 0.984 . S
N1119 H1125 0.985 . S
C1120 C1114 1.379 . S
C1120 C1117 1.363 . S
C1120 N1118 1.356 . S
C1121 C1115 1.363 . S
C1121 C1116 1.379 . S
C1121 N1119 1.356 . S
N1122 C1114 1.356 . S
N1122 H1128 0.984 . S
N1122 H1129 0.984 . S
N1123 C1116 1.356 . S
N1123 H1126 0.984 . S
N1123 H1127 0.985 . S
H1124 N1119 0.984 . S
H1125 N1119 0.985 . S
H1126 N1123 0.984 . S
H1127 N1123 0.985 . S
H1128 N1122 0.984 . S
H1129 N1122 0.984 . S
H1130 N1118 0.984 . S
H1131 N1118 0.985 . S
C1132 C1133 1.363 . S
C1132 C1138 1.379 . S
C1132 N1140 1.356 . S
C1133 C1132 1.363 . S
C1133 C1139 1.363 . S
C1134 C1135 1.363 . S
C1134 C1139 1.379 . S
C1134 N1141 1.356 . S
C1135 C1134 1.363 . S
C1135 C1138 1.363 . S
N1136 C1138 1.356 . S
N1136 H1148 0.984 . S
N1136 H1149 0.985 . S
N1137 C1139 1.356 . S
N1137 H1142 0.984 . S
N1137 H1143 0.985 . S
C1138 C1132 1.379 . S
C1138 C1135 1.363 . S
C1138 N1136 1.356 . S
C1139 C1133 1.363 . S
C1139 C1134 1.379 . S
C1139 N1137 1.356 . S
N1140 C1132 1.356 . S
N1140 H1146 0.984 . S
N1140 H1147 0.984 . S
N1141 C1134 1.356 . S
N1141 H1144 0.984 . S
N1141 H1145 0.985 . S
H1142 N1137 0.984 . S
H1143 N1137 0.985 . S
H1144 N1141 0.984 . S
H1145 N1141 0.985 . S
H1146 N1140 0.984 . S
H1147 N1140 0.984 . S
H1148 N1136 0.984 . S
H1149 N1136 0.985 . S
C1150 C1151 1.363 . S
C1150 C1156 1.379 . S
C1150 N1158 1.356 . S
C1151 C1150 1.363 . S
C1151 C1157 1.363 . S
C1152 C1153 1.363 . S
C1152 C1157 1.379 . S
C1152 N1159 1.356 . S
C1153 C1152 1.363 . S
C1153 C1156 1.363 . S
N1154 C1156 1.356 . S
N1154 H1166 0.984 . S
N1154 H1167 0.985 . S
N1155 C1157 1.356 . S
N1155 H1160 0.984 . S
N1155 H1161 0.985 . S
C1156 C1150 1.379 . S
C1156 C1153 1.363 . S
C1156 N1154 1.356 . S
C1157 C1151 1.363 . S
C1157 C1152 1.379 . S
C1157 N1155 1.356 . S
N1158 C1150 1.356 . S
N1158 H1164 0.984 . S
N1158 H1165 0.984 . S
N1159 C1152 1.356 . S
N1159 H1162 0.984 . S
N1159 H1163 0.985 . S
H1160 N1155 0.984 . S
H1161 N1155 0.985 . S
H1162 N1159 0.984 . S
H1163 N1159 0.985 . S
H1164 N1158 0.984 . S
H1165 N1158 0.984 . S
H1166 N1154 0.984 . S
H1167 N1154 0.985 . S
C1168 C1169 1.363 . S
C1168 C1174 1.379 . S
C1168 N1176 1.356 . S
C1169 C1168 1.363 . S
C1169 C1175 1.363 . S
C1170 C1171 1.363 . S
C1170 C1175 1.379 . S
C1170 N1177 1.356 . S
C1171 C1170 1.363 . S
C1171 C1174 1.363 . S
N1172 C1174 1.356 . S
N1172 H1184 0.984 . S
N1172 H1185 0.985 . S
N1173 C1175 1.356 . S
N1173 H1178 0.984 . S
N1173 H1179 0.985 . S
C1174 C1168 1.379 . S
C1174 C1171 1.363 . S
C1174 N1172 1.356 . S
C1175 C1169 1.363 . S
C1175 C1170 1.379 . S
C1175 N1173 1.356 . S
N1176 C1168 1.356 . S
N1176 H1182 0.984 . S
N1176 H1183 0.984 . S
N1177 C1170 1.356 . S
N1177 H1180 0.984 . S
N1177 H1181 0.985 . S
H1178 N1173 0.984 . S
H1179 N1173 0.985 . S
H1180 N1177 0.984 . S
H1181 N1177 0.985 . S
H1182 N1176 0.984 . S
H1183 N1176 0.984 . S
H1184 N1172 0.984 . S
H1185 N1172 0.985 . S
C1186 C1187 1.363 . S
C1186 C1192 1.379 . S
C1186 N1194 1.356 . S
C1187 C1186 1.363 . S
C1187 C1193 1.363 . S
C1188 C1189 1.363 . S
C1188 C1193 1.379 . S
C1188 N1195 1.356 . S
C1189 C1188 1.363 . S
C1189 C1192 1.363 . S
N1190 C1192 1.356 . S
N1190 H1202 0.984 . S
N1190 H1203 0.985 . S
N1191 C1193 1.356 . S
N1191 H1196 0.984 . S
N1191 H1197 0.985 . S
C1192 C1186 1.379 . S
C1192 C1189 1.363 . S
C1192 N1190 1.356 . S
C1193 C1187 1.363 . S
C1193 C1188 1.379 . S
C1193 N1191 1.356 . S
N1194 C1186 1.356 . S
N1194 H1200 0.984 . S
N1194 H1201 0.984 . S
N1195 C1188 1.356 . S
N1195 H1198 0.984 . S
N1195 H1199 0.985 . S
H1196 N1191 0.984 . S
H1197 N1191 0.985 . S
H1198 N1195 0.984 . S
H1199 N1195 0.985 . S
H1200 N1194 0.984 . S
H1201 N1194 0.984 . S
H1202 N1190 0.984 . S
H1203 N1190 0.985 . S
C1204 C1205 1.363 . S
C1204 C1210 1.379 . S
C1204 N1212 1.356 . S
C1205 C1204 1.363 . S
C1205 C1211 1.363 . S
C1206 C1207 1.363 . S
C1206 C1211 1.379 . S
C1206 N1213 1.356 . S
C1207 C1206 1.363 . S
C1207 C1210 1.363 . S
N1208 C1210 1.356 . S
N1208 H1220 0.984 . S
N1208 H1221 0.985 . S
N1209 C1211 1.356 . S
N1209 H1214 0.984 . S
N1209 H1215 0.985 . S
C1210 C1204 1.379 . S
C1210 C1207 1.363 . S
C1210 N1208 1.356 . S
C1211 C1205 1.363 . S
C1211 C1206 1.379 . S
C1211 N1209 1.356 . S
N1212 C1204 1.356 . S
N1212 H1218 0.984 . S
N1212 H1219 0.984 . S
N1213 C1206 1.356 . S
N1213 H1216 0.984 . S
N1213 H1217 0.985 . S
H1214 N1209 0.984 . S
H1215 N1209 0.985 . S
H1216 N1213 0.984 . S
H1217 N1213 0.985 . S
H1218 N1212 0.984 . S
H1219 N1212 0.984 . S
H1220 N1208 0.984 . S
H1221 N1208 0.985 . S
C1222 C1223 1.363 . S
C1222 C1228 1.379 . S
C1222 N1230 1.356 . S
C1223 C1222 1.363 . S
C1223 C1229 1.363 . S
C1224 C1225 1.363 . S
C1224 C1229 1.379 . S
C1224 N1231 1.356 . S
C1225 C1224 1.363 . S
C1225 C1228 1.363 . S
N1226 C1228 1.356 . S
N1226 H1238 0.984 . S
N1226 H1239 0.985 . S
N1227 C1229 1.356 . S
N1227 H1232 0.984 . S
N1227 H1233 0.985 . S
C1228 C1222 1.379 . S
C1228 C1225 1.363 . S
C1228 N1226 1.356 . S
C1229 C1223 1.363 . S
C1229 C1224 1.379 . S
C1229 N1227 1.356 . S
N1230 C1222 1.356 . S
N1230 H1236 0.984 . S
N1230 H1237 0.984 . S
N1231 C1224 1.356 . S
N1231 H1234 0.984 1_655 S
N1231 H1235 0.985 . S
H1232 N1227 0.984 . S
H1233 N1227 0.985 . S
H1234 N1231 0.984 1_455 S
H1235 N1231 0.985 . S
H1236 N1230 0.984 . S
H1237 N1230 0.984 . S
H1238 N1226 0.984 . S
H1239 N1226 0.985 . S
C1240 C1241 1.363 . S
C1240 C1246 1.379 . S
C1240 N1248 1.356 . S
C1241 C1240 1.363 . S
C1241 C1247 1.363 . S
C1242 C1243 1.363 . S
C1242 C1247 1.379 . S
C1242 N1249 1.356 . S
C1243 C1242 1.363 . S
C1243 C1246 1.363 . S
N1244 C1246 1.356 . S
N1244 H1256 0.984 . S
N1244 H1257 0.985 . S
N1245 C1247 1.356 . S
N1245 H1250 0.984 . S
N1245 H1251 0.985 . S
C1246 C1240 1.379 . S
C1246 C1243 1.363 . S
C1246 N1244 1.356 . S
C1247 C1241 1.363 . S
C1247 C1242 1.379 . S
C1247 N1245 1.356 . S
N1248 C1240 1.356 . S
N1248 H1254 0.984 . S
N1248 H1255 0.984 . S
N1249 C1242 1.356 . S
N1249 H1252 0.984 . S
N1249 H1253 0.985 . S
H1250 N1245 0.984 . S
H1251 N1245 0.985 . S
H1252 N1249 0.984 . S
H1253 N1249 0.985 . S
H1254 N1248 0.984 . S
H1255 N1248 0.984 . S
H1256 N1244 0.984 . S
H1257 N1244 0.985 . S
C1258 C1259 1.363 . S
C1258 C1264 1.379 . S
C1258 N1266 1.356 . S
C1259 C1258 1.363 . S
C1259 C1265 1.363 . S
C1260 C1261 1.363 . S
C1260 C1265 1.379 . S
C1260 N1267 1.356 . S
C1261 C1260 1.363 . S
C1261 C1264 1.363 . S
N1262 C1264 1.356 . S
N1262 H1274 0.984 . S
N1262 H1275 0.985 . S
N1263 C1265 1.356 . S
N1263 H1268 0.984 . S
N1263 H1269 0.985 . S
C1264 C1258 1.379 . S
C1264 C1261 1.363 . S
C1264 N1262 1.356 . S
C1265 C1259 1.363 . S
C1265 C1260 1.379 . S
C1265 N1263 1.356 . S
N1266 C1258 1.356 . S
N1266 H1272 0.984 . S
N1266 H1273 0.984 1_655 S
N1267 C1260 1.356 . S
N1267 H1270 0.984 . S
N1267 H1271 0.985 . S
H1268 N1263 0.984 . S
H1269 N1263 0.985 . S
H1270 N1267 0.984 . S
H1271 N1267 0.985 . S
H1272 N1266 0.984 . S
H1273 N1266 0.984 1_455 S
H1274 N1262 0.984 . S
H1275 N1262 0.985 . S
C1276 C1277 1.363 . S
C1276 C1282 1.379 . S
C1276 N1284 1.356 . S
C1277 C1276 1.363 . S
C1277 C1283 1.363 . S
C1278 C1279 1.363 . S
C1278 C1283 1.379 . S
C1278 N1285 1.356 . S
C1279 C1278 1.363 . S
C1279 C1282 1.363 . S
N1280 C1282 1.356 . S
N1280 H1292 0.984 . S
N1280 H1293 0.985 . S
N1281 C1283 1.356 . S
N1281 H1286 0.984 . S
N1281 H1287 0.985 . S
C1282 C1276 1.379 . S
C1282 C1279 1.363 . S
C1282 N1280 1.356 . S
C1283 C1277 1.363 . S
C1283 C1278 1.379 . S
C1283 N1281 1.356 . S
N1284 C1276 1.356 . S
N1284 H1290 0.984 . S
N1284 H1291 0.984 . S
N1285 C1278 1.356 . S
N1285 H1288 0.984 . S
N1285 H1289 0.985 . S
H1286 N1281 0.984 . S
H1287 N1281 0.985 . S
H1288 N1285 0.984 . S
H1289 N1285 0.985 . S
H1290 N1284 0.984 . S
H1291 N1284 0.984 . S
H1292 N1280 0.984 . S
H1293 N1280 0.985 . S
C1294 C1295 1.363 . S
C1294 C1300 1.379 . S
C1294 N1302 1.356 . S
C1295 C1294 1.363 . S
C1295 C1301 1.363 . S
C1296 C1297 1.363 . S
C1296 C1301 1.379 . S
C1296 N1303 1.356 . S
C1297 C1296 1.363 . S
C1297 C1300 1.363 . S
N1298 C1300 1.356 . S
N1298 H1310 0.984 . S
N1298 H1311 0.985 . S
N1299 C1301 1.356 . S
N1299 H1304 0.984 . S
N1299 H1305 0.985 . S
C1300 C1294 1.379 . S
C1300 C1297 1.363 . S
C1300 N1298 1.356 . S
C1301 C1295 1.363 . S
C1301 C1296 1.379 . S
C1301 N1299 1.356 . S
N1302 C1294 1.356 . S
N1302 H1308 0.984 . S
N1302 H1309 0.984 . S
N1303 C1296 1.356 . S
N1303 H1306 0.984 . S
N1303 H1307 0.985 . S
H1304 N1299 0.984 . S
H1305 N1299 0.985 . S
H1306 N1303 0.984 . S
H1307 N1303 0.985 . S
H1308 N1302 0.984 . S
H1309 N1302 0.984 . S
H1310 N1298 0.984 . S
H1311 N1298 0.985 . S
C1312 C1313 1.363 . S
C1312 C1318 1.379 . S
C1312 N1320 1.356 1_455 S
C1313 C1312 1.363 . S
C1313 C1319 1.363 . S
C1314 C1315 1.363 . S
C1314 C1319 1.379 . S
C1314 N1321 1.356 . S
C1315 C1314 1.363 . S
C1315 C1318 1.363 . S
N1316 C1318 1.356 1_655 S
N1316 H1328 0.984 . S
N1316 H1329 0.984 1_655 S
N1317 C1319 1.356 . S
N1317 H1322 0.984 . S
N1317 H1323 0.985 . S
C1318 C1312 1.379 . S
C1318 C1315 1.363 . S
C1318 N1316 1.356 1_455 S
C1319 C1313 1.363 . S
C1319 C1314 1.379 . S
C1319 N1317 1.356 . S
N1320 C1312 1.356 1_655 S
N1320 H1326 0.984 . S
N1320 H1327 0.984 1_655 S
N1321 C1314 1.356 . S
N1321 H1324 0.984 . S
N1321 H1325 0.985 . S
H1322 N1317 0.984 . S
H1323 N1317 0.985 . S
H1324 N1321 0.984 . S
H1325 N1321 0.985 . S
H1326 N1320 0.984 . S
H1327 N1320 0.984 1_455 S
H1328 N1316 0.984 . S
H1329 N1316 0.984 1_455 S
C1330 C1331 1.363 . S
C1330 C1336 1.379 . S
C1330 N1338 1.356 . S
C1331 C1330 1.363 . S
C1331 C1337 1.363 . S
C1332 C1333 1.363 . S
C1332 C1337 1.379 . S
C1332 N1339 1.356 . S
C1333 C1332 1.363 . S
C1333 C1336 1.363 . S
N1334 C1336 1.356 . S
N1334 H1346 0.984 . S
N1334 H1347 0.985 . S
N1335 C1337 1.356 . S
N1335 H1340 0.984 . S
N1335 H1341 0.985 . S
C1336 C1330 1.379 . S
C1336 C1333 1.363 . S
C1336 N1334 1.356 . S
C1337 C1331 1.363 . S
C1337 C1332 1.379 . S
C1337 N1335 1.356 . S
N1338 C1330 1.356 . S
N1338 H1344 0.984 . S
N1338 H1345 0.984 . S
N1339 C1332 1.356 . S
N1339 H1342 0.984 . S
N1339 H1343 0.985 . S
H1340 N1335 0.984 . S
H1341 N1335 0.985 . S
H1342 N1339 0.984 . S
H1343 N1339 0.985 . S
H1344 N1338 0.984 . S
H1345 N1338 0.984 . S
H1346 N1334 0.984 . S
H1347 N1334 0.985 . S
C1348 C1349 1.363 . S
C1348 C1354 1.379 . S
C1348 N1356 1.356 . S
C1349 C1348 1.363 . S
C1349 C1355 1.363 . S
C1350 C1351 1.363 . S
C1350 C1355 1.379 . S
C1350 N1357 1.356 . S
C1351 C1350 1.363 . S
C1351 C1354 1.363 . S
N1352 C1354 1.356 . S
N1352 H1364 0.984 . S
N1352 H1365 0.985 . S
N1353 C1355 1.356 . S
N1353 H1358 0.984 . S
N1353 H1359 0.985 . S
C1354 C1348 1.379 . S
C1354 C1351 1.363 . S
C1354 N1352 1.356 . S
C1355 C1349 1.363 . S
C1355 C1350 1.379 . S
C1355 N1353 1.356 . S
N1356 C1348 1.356 . S
N1356 H1362 0.984 . S
N1356 H1363 0.984 . S
N1357 C1350 1.356 . S
N1357 H1360 0.984 . S
N1357 H1361 0.985 . S
H1358 N1353 0.984 . S
H1359 N1353 0.985 . S
H1360 N1357 0.984 . S
H1361 N1357 0.985 . S
H1362 N1356 0.984 . S
H1363 N1356 0.984 . S
H1364 N1352 0.984 . S
H1365 N1352 0.985 . S
C1366 C1367 1.363 . S
C1366 C1372 1.379 . S
C1366 N1374 1.356 . S
C1367 C1366 1.363 . S
C1367 C1373 1.363 1_556 S
C1368 C1369 1.363 . S
C1368 C1373 1.379 . S
C1368 N1375 1.356 . S
C1369 C1368 1.363 . S
C1369 C1372 1.363 1_554 S
N1370 C1372 1.356 . S
N1370 H1382 0.984 . S
N1370 H1383 0.985 1_556 S
N1371 C1373 1.356 . S
N1371 H1376 0.984 1_554 S
N1371 H1377 0.985 . S
C1372 C1366 1.379 . S
C1372 C1369 1.363 1_556 S
C1372 N1370 1.356 . S
C1373 C1367 1.363 1_554 S
C1373 C1368 1.379 . S
C1373 N1371 1.356 . S
N1374 C1366 1.356 . S
N1374 H1380 0.984 . S
N1374 H1381 0.984 . S
N1375 C1368 1.356 . S
N1375 H1378 0.984 . S
N1375 H1379 0.985 . S
H1376 N1371 0.984 1_556 S
H1377 N1371 0.985 . S
H1378 N1375 0.984 . S
H1379 N1375 0.985 . S
H1380 N1374 0.984 . S
H1381 N1374 0.984 . S
H1382 N1370 0.984 . S
H1383 N1370 0.985 1_554 S
C1384 C1385 1.363 . S
C1384 C1390 1.379 . S
C1384 N1392 1.356 . S
C1385 C1384 1.363 . S
C1385 C1391 1.363 . S
C1386 C1387 1.363 . S
C1386 C1391 1.379 . S
C1386 N1393 1.356 1_655 S
C1387 C1386 1.363 . S
C1387 C1390 1.363 . S
N1388 C1390 1.356 . S
N1388 H1400 0.984 . S
N1388 H1401 0.985 . S
N1389 C1391 1.356 1_455 S
N1389 H1394 0.984 1_455 S
N1389 H1395 0.985 . S
C1390 C1384 1.379 . S
C1390 C1387 1.363 . S
C1390 N1388 1.356 . S
C1391 C1385 1.363 . S
C1391 C1386 1.379 . S
C1391 N1389 1.356 1_655 S
N1392 C1384 1.356 . S
N1392 H1398 0.984 . S
N1392 H1399 0.984 . S
N1393 C1386 1.356 1_455 S
N1393 H1396 0.984 1_455 S
N1393 H1397 0.985 . S
H1394 N1389 0.984 1_655 S
H1395 N1389 0.985 . S
H1396 N1393 0.984 1_655 S
H1397 N1393 0.985 . S
H1398 N1392 0.984 . S
H1399 N1392 0.984 . S
H1400 N1388 0.984 . S
H1401 N1388 0.985 . S
C1402 C1403 1.363 . S
C1402 C1408 1.379 . S
C1402 N1410 1.356 . S
C1403 C1402 1.363 . S
C1403 C1409 1.363 . S
C1404 C1405 1.363 . S
C1404 C1409 1.379 . S
C1404 N1411 1.356 . S
C1405 C1404 1.363 . S
C1405 C1408 1.363 . S
N1406 C1408 1.356 . S
N1406 H1418 0.984 . S
N1406 H1419 0.985 . S
N1407 C1409 1.356 . S
N1407 H1412 0.984 . S
N1407 H1413 0.985 . S
C1408 C1402 1.379 . S
C1408 C1405 1.363 . S
C1408 N1406 1.356 . S
C1409 C1403 1.363 . S
C1409 C1404 1.379 . S
C1409 N1407 1.356 . S
N1410 C1402 1.356 . S
N1410 H1416 0.984 . S
N1410 H1417 0.984 . S
N1411 C1404 1.356 . S
N1411 H1414 0.984 . S
N1411 H1415 0.985 . S
H1412 N1407 0.984 . S
H1413 N1407 0.985 . S
H1414 N1411 0.984 . S
H1415 N1411 0.985 . S
H1416 N1410 0.984 . S
H1417 N1410 0.984 . S
H1418 N1406 0.984 . S
H1419 N1406 0.985 . S
C1420 C1421 1.363 . S
C1420 C1426 1.379 . S
C1420 N1428 1.356 . S
C1421 C1420 1.363 . S
C1421 C1427 1.363 . S
C1422 C1423 1.363 . S
C1422 C1427 1.379 . S
C1422 N1429 1.356 . S
C1423 C1422 1.363 . S
C1423 C1426 1.363 . S
N1424 C1426 1.356 . S
N1424 H1436 0.984 . S
N1424 H1437 0.985 . S
N1425 C1427 1.356 . S
N1425 H1430 0.984 . S
N1425 H1431 0.985 . S
C1426 C1420 1.379 . S
C1426 C1423 1.363 . S
C1426 N1424 1.356 . S
C1427 C1421 1.363 . S
C1427 C1422 1.379 . S
C1427 N1425 1.356 . S
N1428 C1420 1.356 . S
N1428 H1434 0.984 . S
N1428 H1435 0.984 . S
N1429 C1422 1.356 . S
N1429 H1432 0.984 . S
N1429 H1433 0.985 . S
H1430 N1425 0.984 . S
H1431 N1425 0.985 . S
H1432 N1429 0.984 . S
H1433 N1429 0.985 . S
H1434 N1428 0.984 . S
H1435 N1428 0.984 . S
H1436 N1424 0.984 . S
H1437 N1424 0.985 . S
C1438 C1439 1.363 . S
C1438 C1444 1.379 . S
C1438 N1446 1.356 . S
C1439 C1438 1.363 . S
C1439 C1445 1.363 1_554 S
C1440 C1441 1.363 . S
C1440 C1445 1.379 . S
C1440 N1447 1.356 . S
C1441 C1440 1.363 . S
C1441 C1444 1.363 1_556 S
N1442 C1444 1.356 . S
N1442 H1454 0.984 . S
N1442 H1455 0.985 1_554 S
N1443 C1445 1.356 . S
N1443 H1448 0.984 1_556 S
N1443 H1449 0.985 . S
C1444 C1438 1.379 . S
C1444 C1441 1.363 1_554 S
C1444 N1442 1.356 . S
C1445 C1439 1.363 1_556 S
C1445 C1440 1.379 . S
C1445 N1443 1.356 . S
N1446 C1438 1.356 . S
N1446 H1452 0.984 . S
N1446 H1453 0.984 . S
N1447 C1440 1.356 . S
N1447 H1450 0.984 . S
N1447 H1451 0.985 . S
H1448 N1443 0.984 1_554 S
H1449 N1443 0.985 . S
H1450 N1447 0.984 . S
H1451 N1447 0.985 . S
H1452 N1446 0.984 . S
H1453 N1446 0.984 . S
H1454 N1442 0.984 . S
H1455 N1442 0.985 1_556 S
C1456 C1457 1.363 . S
C1456 C1462 1.379 1_565 S
C1456 N1464 1.356 . S
C1457 C1456 1.363 . S
C1457 C1463 1.363 . S
C1458 C1459 1.363 . S
C1458 C1463 1.379 1_545 S
C1458 N1465 1.356 . S
C1459 C1458 1.363 . S
C1459 C1462 1.363 . S
N1460 C1462 1.356 . S
N1460 H1472 0.984 . S
N1460 H1473 0.985 . S
N1461 C1463 1.356 . S
N1461 H1466 0.984 . S
N1461 H1467 0.985 . S
C1462 C1456 1.379 1_545 S
C1462 C1459 1.363 . S
C1462 N1460 1.356 . S
C1463 C1457 1.363 . S
C1463 C1458 1.379 1_565 S
C1463 N1461 1.356 . S
N1464 C1456 1.356 . S
N1464 H1470 0.984 . S
N1464 H1471 0.984 . S
N1465 C1458 1.356 . S
N1465 H1468 0.984 . S
N1465 H1469 0.985 . S
H1466 N1461 0.984 . S
H1467 N1461 0.985 . S
H1468 N1465 0.984 . S
H1469 N1465 0.985 . S
H1470 N1464 0.984 . S
H1471 N1464 0.984 . S
H1472 N1460 0.984 . S
H1473 N1460 0.985 . S
C1474 C1475 1.363 . S
C1474 C1480 1.379 . S
C1474 N1482 1.356 . S
C1475 C1474 1.363 . S
C1475 C1481 1.363 1_554 S
C1476 C1477 1.363 . S
C1476 C1481 1.379 . S
C1476 N1483 1.356 . S
C1477 C1476 1.363 . S
C1477 C1480 1.363 1_556 S
N1478 C1480 1.356 . S
N1478 H1490 0.984 . S
N1478 H1491 0.985 1_554 S
N1479 C1481 1.356 . S
N1479 H1484 0.984 1_556 S
N1479 H1485 0.985 . S
C1480 C1474 1.379 . S
C1480 C1477 1.363 1_554 S
C1480 N1478 1.356 . S
C1481 C1475 1.363 1_556 S
C1481 C1476 1.379 . S
C1481 N1479 1.356 . S
N1482 C1474 1.356 . S
N1482 H1488 0.984 . S
N1482 H1489 0.984 . S
N1483 C1476 1.356 . S
N1483 H1486 0.984 . S
N1483 H1487 0.985 . S
H1484 N1479 0.984 1_554 S
H1485 N1479 0.985 . S
H1486 N1483 0.984 . S
H1487 N1483 0.985 . S
H1488 N1482 0.984 . S
H1489 N1482 0.984 . S
H1490 N1478 0.984 . S
H1491 N1478 0.985 1_556 S
C1492 C1493 1.363 . S
C1492 C1498 1.379 1_545 S
C1492 N1500 1.356 . S
C1493 C1492 1.363 . S
C1493 C1499 1.363 . S
C1494 C1495 1.363 . S
C1494 C1499 1.379 1_565 S
C1494 N1501 1.356 1_655 S
C1495 C1494 1.363 . S
C1495 C1498 1.363 . S
N1496 C1498 1.356 . S
N1496 H1508 0.984 . S
N1496 H1509 0.985 . S
N1497 C1499 1.356 1_455 S
N1497 H1502 0.984 . S
N1497 H1503 0.985 . S
C1498 C1492 1.379 1_565 S
C1498 C1495 1.363 . S
C1498 N1496 1.356 . S
C1499 C1493 1.363 . S
C1499 C1494 1.379 1_545 S
C1499 N1497 1.356 1_655 S
N1500 C1492 1.356 . S
N1500 H1506 0.984 . S
N1500 H1507 0.984 . S
N1501 C1494 1.356 1_455 S
N1501 H1504 0.984 . S
N1501 H1505 0.985 . S
H1502 N1497 0.984 . S
H1503 N1497 0.985 . S
H1504 N1501 0.984 . S
H1505 N1501 0.985 . S
H1506 N1500 0.984 . S
H1507 N1500 0.984 . S
H1508 N1496 0.984 . S
H1509 N1496 0.985 . S
C1510 C1511 1.363 . S
C1510 C1516 1.379 . S
C1510 N1518 1.356 . S
C1511 C1510 1.363 . S
C1511 C1517 1.363 . S
C1512 C1513 1.363 . S
C1512 C1517 1.379 . S
C1512 N1519 1.356 . S
C1513 C1512 1.363 . S
C1513 C1516 1.363 . S
N1514 C1516 1.356 . S
N1514 H1526 0.984 . S
N1514 H1527 0.985 . S
N1515 C1517 1.356 . S
N1515 H1520 0.984 . S
N1515 H1521 0.985 . S
C1516 C1510 1.379 . S
C1516 C1513 1.363 . S
C1516 N1514 1.356 . S
C1517 C1511 1.363 . S
C1517 C1512 1.379 . S
C1517 N1515 1.356 . S
N1518 C1510 1.356 . S
N1518 H1524 0.984 . S
N1518 H1525 0.984 . S
N1519 C1512 1.356 . S
N1519 H1522 0.984 . S
N1519 H1523 0.985 . S
H1520 N1515 0.984 . S
H1521 N1515 0.985 . S
H1522 N1519 0.984 . S
H1523 N1519 0.985 . S
H1524 N1518 0.984 . S
H1525 N1518 0.984 . S
H1526 N1514 0.984 . S
H1527 N1514 0.985 . S
C1528 C1529 1.363 . S
C1528 C1534 1.379 1_545 S
C1528 N1536 1.356 . S
C1529 C1528 1.363 . S
C1529 C1535 1.363 . S
C1530 C1531 1.363 . S
C1530 C1535 1.379 1_565 S
C1530 N1537 1.356 . S
C1531 C1530 1.363 . S
C1531 C1534 1.363 . S
N1532 C1534 1.356 . S
N1532 H1544 0.984 . S
N1532 H1545 0.985 . S
N1533 C1535 1.356 . S
N1533 H1538 0.984 . S
N1533 H1539 0.985 . S
C1534 C1528 1.379 1_565 S
C1534 C1531 1.363 . S
C1534 N1532 1.356 . S
C1535 C1529 1.363 . S
C1535 C1530 1.379 1_545 S
C1535 N1533 1.356 . S
N1536 C1528 1.356 . S
N1536 H1542 0.984 . S
N1536 H1543 0.984 . S
N1537 C1530 1.356 . S
N1537 H1540 0.984 . S
N1537 H1541 0.985 . S
H1538 N1533 0.984 . S
H1539 N1533 0.985 . S
H1540 N1537 0.984 . S
H1541 N1537 0.985 . S
H1542 N1536 0.984 . S
H1543 N1536 0.984 . S
H1544 N1532 0.984 . S
H1545 N1532 0.985 . S
C1546 C1547 1.363 1_556 S
C1546 C1552 1.379 . S
C1546 N1554 1.356 . S
C1547 C1546 1.363 1_554 S
C1547 C1553 1.363 . S
C1548 C1549 1.363 1_554 S
C1548 C1553 1.379 . S
C1548 N1555 1.356 . S
C1549 C1548 1.363 1_556 S
C1549 C1552 1.363 . S
N1550 C1552 1.356 . S
N1550 H1562 0.984 . S
N1550 H1563 0.985 . S
N1551 C1553 1.356 . S
N1551 H1556 0.984 . S
N1551 H1557 0.985 . S
C1552 C1546 1.379 . S
C1552 C1549 1.363 . S
C1552 N1550 1.356 . S
C1553 C1547 1.363 . S
C1553 C1548 1.379 . S
C1553 N1551 1.356 . S
N1554 C1546 1.356 . S
N1554 H1560 0.984 . S
N1554 H1561 0.984 1_556 S
N1555 C1548 1.356 . S
N1555 H1558 0.984 1_554 S
N1555 H1559 0.985 . S
H1556 N1551 0.984 . S
H1557 N1551 0.985 . S
H1558 N1555 0.984 1_556 S
H1559 N1555 0.985 . S
H1560 N1554 0.984 . S
H1561 N1554 0.984 1_554 S
H1562 N1550 0.984 . S
H1563 N1550 0.985 . S
C1564 C1565 1.363 . S
C1564 C1570 1.379 1_545 S
C1564 N1572 1.356 . S
C1565 C1564 1.363 . S
C1565 C1571 1.363 . S
C1566 C1567 1.363 . S
C1566 C1571 1.379 1_565 S
C1566 N1573 1.356 . S
C1567 C1566 1.363 . S
C1567 C1570 1.363 . S
N1568 C1570 1.356 . S
N1568 H1580 0.984 1_455 S
N1568 H1581 0.985 . S
N1569 C1571 1.356 . S
N1569 H1574 0.984 . S
N1569 H1575 0.985 . S
C1570 C1564 1.379 1_565 S
C1570 C1567 1.363 . S
C1570 N1568 1.356 . S
C1571 C1565 1.363 . S
C1571 C1566 1.379 1_545 S
C1571 N1569 1.356 . S
N1572 C1564 1.356 . S
N1572 H1578 0.984 1_455 S
N1572 H1579 0.984 . S
N1573 C1566 1.356 . S
N1573 H1576 0.984 . S
N1573 H1577 0.985 . S
H1574 N1569 0.984 . S
H1575 N1569 0.985 . S
H1576 N1573 0.984 . S
H1577 N1573 0.985 . S
H1578 N1572 0.984 1_655 S
H1579 N1572 0.984 . S
H1580 N1568 0.984 1_655 S
H1581 N1568 0.985 . S
C1582 C1583 1.363 . S
C1582 C1588 1.379 . S
C1582 N1590 1.356 . S
C1583 C1582 1.363 . S
C1583 C1589 1.363 . S
C1584 C1585 1.363 . S
C1584 C1589 1.379 . S
C1584 N1591 1.356 . S
C1585 C1584 1.363 . S
C1585 C1588 1.363 . S
N1586 C1588 1.356 . S
N1586 H1598 0.984 . S
N1586 H1599 0.985 . S
N1587 C1589 1.356 . S
N1587 H1592 0.984 . S
N1587 H1593 0.985 . S
C1588 C1582 1.379 . S
C1588 C1585 1.363 . S
C1588 N1586 1.356 . S
C1589 C1583 1.363 . S
C1589 C1584 1.379 . S
C1589 N1587 1.356 . S
N1590 C1582 1.356 . S
N1590 H1596 0.984 . S
N1590 H1597 0.984 . S
N1591 C1584 1.356 . S
N1591 H1594 0.984 . S
N1591 H1595 0.985 . S
H1592 N1587 0.984 . S
H1593 N1587 0.985 . S
H1594 N1591 0.984 . S
H1595 N1591 0.985 . S
H1596 N1590 0.984 . S
H1597 N1590 0.984 . S
H1598 N1586 0.984 . S
H1599 N1586 0.985 . S
C449 C7 1.185 . S
C451 C301 1.185 . S
C467 C315 1.185 . S
C469 C21 1.185 . S
C485 C35 1.185 . S
C487 C329 1.185 . S
C503 C287 1.185 . S
C505 C49 1.185 . S
C521 C63 1.185 . S
C523 C273 1.185 . S
C539 C77 1.185 . S
C541 C231 1.185 . S
C557 C245 1.185 . S
C559 C91 1.185 . S
C575 C105 1.185 . S
C577 C259 1.185 . S
C593 C119 1.185 . S
C595 C413 1.185 . S
C611 C133 1.185 . S
C613 C427 1.185 . S
C629 C441 1.185 . S
C631 C147 1.185 . S
C647 C399 1.185 . S
C649 C161 1.185 . S
C665 C175 1.185 . S
C667 C385 1.185 . S
C683 C343 1.185 . S
C685 C189 1.185 . S
C701 C203 1.185 . S
C703 C357 1.185 . S
C719 C371 1.185 . S
C721 C217 1.185 . S
C737 C9 1.549 . S
C739 C134 1.557 . S
C755 C23 1.549 . S
C757 C372 1.557 . S
C773 C162 1.557 . S
C775 C37 1.549 . S
C791 C51 1.549 . S
C793 C344 1.557 . S
C809 C65 1.549 . S
C811 C218 1.557 . S
C827 C400 1.557 . S
C829 C79 1.549 . S
C845 C190 1.557 . S
C847 C93 1.549 . S
C863 C428 1.557 . S
C865 C107 1.549 . S
C881 C121 1.549 . S
C883 C22 1.557 . S
C899 C260 1.557 . S
C901 C135 1.549 . S
C917 C50 1.557 . S
C919 C149 1.549 . S
C935 C163 1.549 . S
C937 C232 1.557 . S
C953 C106 1.557 . S
C955 C177 1.549 . S
C971 C288 1.557 . S
C973 C191 1.549 . S
C989 C78 1.557 . S
C991 C205 1.549 . S
C1007 C219 1.549 . S
C1009 C316 1.557 . S
C1025 C358 1.557 . S
C1027 C233 1.549 . S
C1043 C148 1.557 . S
C1045 C247 1.549 . S
C1061 C386 1.557 . S
C1063 C261 1.549 . S
C1079 C275 1.549 . S
C1081 C120 1.557 . S
C1097 C442 1.557 . S
C1099 C289 1.549 . S
C1115 C176 1.557 . S
C1117 C303 1.549 . S
C1133 C414 1.557 . S
C1135 C317 1.549 . S
C1151 C331 1.549 . S
C1153 C204 1.557 . S
C1169 C345 1.549 . S
C1171 C246 1.557 . S
C1187 C36 1.557 . S
C1189 C359 1.549 . S
C1205 C373 1.549 . S
C1207 C274 1.557 . S
C1223 C387 1.549 . S
C1225 C8 1.557 . S
C1241 C401 1.549 . S
C1243 C330 1.557 . S
C1259 C64 1.557 . S
C1261 C415 1.549 . S
C1277 C302 1.557 . S
C1279 C429 1.549 . S
C1295 C443 1.549 . S
C1297 C92 1.557 . S
C1313 C6 1.530 . S
C1315 C62 1.530 . S
C1331 C20 1.530 . S
C1333 C76 1.530 . S
C1349 C90 1.530 . S
C1351 C34 1.530 . S
C1367 C104 1.530 . S
C1369 C48 1.530 . S
C1385 C174 1.530 . S
C1387 C118 1.530 . S
C1403 C188 1.530 . S
C1405 C132 1.530 . S
C1421 C202 1.530 . S
C1423 C146 1.530 . S
C1439 C216 1.530 . S
C1441 C160 1.530 . S
C1457 C230 1.530 . S
C1459 C286 1.530 . S
C1475 C244 1.530 . S
C1477 C300 1.530 . S
C1493 C258 1.530 . S
C1495 C314 1.530 . S
C1511 C328 1.530 . S
C1513 C272 1.530 . S
C1529 C342 1.530 . S
C1531 C398 1.530 . S
C1547 C412 1.530 . S
C1549 C356 1.530 . S
C1565 C426 1.530 . S
C1567 C370 1.530 . S
C1583 C440 1.530 . S
C1585 C384 1.530 . S
