# Generated by pormake.
# Topology svj, (7)-cn, num edge types: 1
# Building blocks:
#     Node 0, Type 0, BuildingBlock: HICVOG_clean_sbu_0, # of connection points: 7
#     Node 1, Type 0, BuildingBlock: HICVOG_clean_sbu_0, # of connection points: 7
#     Node 2, Type 0, BuildingBlock: HICVOG_clean_sbu_0, # of connection points: 7
#     Node 3, Type 0, BuildingBlock: HICVOG_clean_sbu_0, # of connection points: 7
#     Node 4, Type 0, BuildingBlock: HICVOG_clean_sbu_0, # of connection points: 7
#     Node 5, Type 0, BuildingBlock: HICVOG_clean_sbu_0, # of connection points: 7
#     Edge 6, Type (0, 0), BuildingBlock: XUDNAN_clean_linker_2, # of connection points: 2
#     Edge 7, Type (0, 0), BuildingBlock: XUDNAN_clean_linker_2, # of connection points: 2
#     Edge 8, Type (0, 0), BuildingBlock: XUDNAN_clean_linker_2, # of connection points: 2
#     Edge 9, Type (0, 0), BuildingBlock: XUDNAN_clean_linker_2, # of connection points: 2
#     Edge 10, Type (0, 0), BuildingBlock: XUDNAN_clean_linker_2, # of connection points: 2
#     Edge 11, Type (0, 0), BuildingBlock: XUDNAN_clean_linker_2, # of connection points: 2
#     Edge 12, Type (0, 0), BuildingBlock: XUDNAN_clean_linker_2, # of connection points: 2
#     Edge 13, Type (0, 0), BuildingBlock: XUDNAN_clean_linker_2, # of connection points: 2
#     Edge 14, Type (0, 0), BuildingBlock: XUDNAN_clean_linker_2, # of connection points: 2
#     Edge 15, Type (0, 0), BuildingBlock: XUDNAN_clean_linker_2, # of connection points: 2
#     Edge 16, Type (0, 0), BuildingBlock: XUDNAN_clean_linker_2, # of connection points: 2
#     Edge 17, Type (0, 0), BuildingBlock: XUDNAN_clean_linker_2, # of connection points: 2
#     Edge 18, Type (0, 0), BuildingBlock: XUDNAN_clean_linker_2, # of connection points: 2
#     Edge 19, Type (0, 0), BuildingBlock: XUDNAN_clean_linker_2, # of connection points: 2
#     Edge 20, Type (0, 0), BuildingBlock: XUDNAN_clean_linker_2, # of connection points: 2
#     Edge 21, Type (0, 0), BuildingBlock: XUDNAN_clean_linker_2, # of connection points: 2
#     Edge 22, Type (0, 0), BuildingBlock: XUDNAN_clean_linker_2, # of connection points: 2
#     Edge 23, Type (0, 0), BuildingBlock: XUDNAN_clean_linker_2, # of connection points: 2
#     Edge 24, Type (0, 0), BuildingBlock: XUDNAN_clean_linker_2, # of connection points: 2
#     Edge 25, Type (0, 0), BuildingBlock: XUDNAN_clean_linker_2, # of connection points: 2
#     Edge 26, Type (0, 0), BuildingBlock: XUDNAN_clean_linker_2, # of connection points: 2
# Relax obj value: 0.274
# Max RMSD: 0.258
# Mean RMSD: 0.241
data_MOF--net-svj--node1-HICVOG_clean_sbu_0--edge1-XUDNAN_clean_linker_2
_symmetry_space_group_name_H-M    P1
_symmetry_Int_Tables_number       1
_symmetry_cell_setting            triclinic
loop_
_symmetry_equiv_pos_as_xyz
'x, y, z'
_cell_length_a     40.908573
_cell_length_b     41.021073
_cell_length_c     20.151736
_cell_angle_alpha  90.109194
_cell_angle_beta   90.057866
_cell_angle_gamma 119.99873
loop_
_atom_site_label
_atom_site_type_symbol
_atom_site_fract_x
_atom_site_fract_y
_atom_site_fract_z
_atom_type_partial_charge
Zn0 Zn 0.20889 0.44637 0.9756 0.0
C1 C 0.11779 0.44615 0.04727 0.0
N2 N 0.13064 0.47783 0.01167 0.0
C3 C 0.1638 0.48331 0.98838 0.0
N4 N 0.17083 0.45623 1.00962 0.0
N5 N 0.14242 0.43341 0.04819 0.0
C6 C 0.07396 0.33826 0.07822 0.0
O7 O 0.09366 0.34484 0.02352 0.0
O8 O 0.25459 0.49417 0.94486 0.0
Zn9 Zn 0.14371 0.40154 0.11809 0.0
N10 N 0.18627 0.40957 0.90439 0.0
C11 C 0.14757 0.34404 0.88276 0.0
C12 C 0.16492 0.37385 0.92718 0.0
C13 C 0.19081 0.41686 0.8379 0.0
N14 N 0.15241 0.35105 0.81684 0.0
C15 C 0.1735 0.38656 0.7925 0.0
O16 O 0.18113 0.38237 0.1066 0.0
C17 C 0.21445 0.39616 0.08313 0.0
O18 O 0.22808 0.42311 0.04166 0.0
H19 H 0.1616 0.36857 0.97978 0.0
H20 H 0.20827 0.44552 0.82093 0.0
C21 C 0.15666 0.41618 0.25951 0.0
C22 C 0.17004 0.43937 0.31654 0.0
C23 C 0.18687 0.49277 0.24869 0.0
C24 C 0.17467 0.46987 0.1926 0.0
N25 N 0.15934 0.43201 0.19891 0.0
N26 N 0.18443 0.4771 0.30896 0.0
H27 H 0.14429 0.38599 0.26263 0.0
C28 C 0.27083 0.51758 0.99172 0.0
O29 O 0.25612 0.50901 0.05148 0.0
O30 O 0.09009 0.35825 0.12918 0.0
H31 H 0.17753 0.48233 0.14438 0.0
H32 H 0.13058 0.31549 0.90047 0.0
H33 H 0.19872 0.52288 0.24428 0.0
Zn34 Zn 0.65136 0.1214 0.2617 0.0
C35 C 0.70993 0.21343 0.15233 0.0
N36 N 0.67912 0.21717 0.15429 0.0
C37 C 0.65293 0.18485 0.18214 0.0
N38 N 0.66716 0.16234 0.19781 0.0
N39 N 0.70233 0.17951 0.17578 0.0
C40 C 0.79816 0.19419 0.13501 0.0
O41 O 0.78973 0.18897 0.19836 0.0
O42 O 0.59547 0.09618 0.28467 0.0
Zn43 Zn 0.71655 0.15042 0.11884 0.0
N44 N 0.68518 0.14329 0.33712 0.0
C45 C 0.75053 0.17346 0.36426 0.0
C46 C 0.72133 0.15489 0.31895 0.0
C47 C 0.67672 0.14841 0.40044 0.0
N48 N 0.74241 0.17912 0.42683 0.0
C49 C 0.70636 0.16697 0.44687 0.0
O50 O 0.70543 0.09933 0.15368 0.0
C51 C 0.68217 0.07396 0.19282 0.0
O52 O 0.66038 0.07935 0.23069 0.0
H53 H 0.72736 0.14995 0.26899 0.0
H54 H 0.64771 0.13882 0.414 0.0
C55 C 0.69543 0.15236 0.97938 0.0
C56 C 0.66878 0.13939 0.92704 0.0
C57 C 0.6216 0.0978 1.00215 0.0
C58 C 0.64805 0.11036 0.05314 0.0
N59 N 0.68426 0.13742 0.04116 0.0
N60 N 0.63257 0.11242 0.94058 0.0
H61 H 0.72471 0.17316 0.97122 0.0
C62 C 0.57356 0.08708 0.23472 0.0
O63 O 0.58845 0.096 0.17524 0.0
O64 O 0.77164 0.18063 0.09228 0.0
H65 H 0.64004 0.09839 0.10211 0.0
H66 H 0.77945 0.18326 0.34994 0.0
H67 H 0.59265 0.0763 1.01119 0.0
Zn68 Zn 0.60897 0.73472 0.13152 0.0
C69 C 0.5333 0.68365 0.98781 0.0
N70 N 0.53869 0.65474 1.00282 0.0
C71 C 0.56942 0.67097 0.042 0.0
N72 N 0.58173 0.70774 0.05243 0.0
N73 N 0.55985 0.71597 0.01645 0.0
C74 C 0.51236 0.77638 0.98921 0.0
O75 O 0.52187 0.78099 0.05227 0.0
O76 O 0.64872 0.71955 0.14933 0.0
Zn77 Zn 0.57606 0.76527 0.98111 0.0
N78 N 0.57235 0.71745 0.20385 0.0
C79 C 0.50766 0.68577 0.23593 0.0
C80 C 0.53522 0.69577 0.18754 0.0
C81 C 0.58294 0.72996 0.26736 0.0
N82 N 0.51811 0.69877 0.29866 0.0
C83 C 0.555 0.72071 0.31612 0.0
O84 O 0.6059 0.8077 0.04553 0.0
C85 C 0.62612 0.81632 0.09778 0.0
O86 O 0.63052 0.79197 0.13004 0.0
H87 H 0.52677 0.68654 0.13717 0.0
H88 H 0.6125 0.7483 0.27889 0.0
C89 C 0.59518 0.76882 0.84321 0.0
C90 C 0.61887 0.77322 0.78912 0.0
C91 C 0.66733 0.7826 0.86511 0.0
C92 C 0.64385 0.77864 0.91828 0.0
N93 N 0.60833 0.77187 0.90627 0.0
N94 N 0.65437 0.77981 0.80208 0.0
H95 H 0.56636 0.76231 0.83585 0.0
C96 C 0.67802 0.73764 0.18515 0.0
O97 O 0.68427 0.76904 0.21384 0.0
O98 O 0.53159 0.76936 0.9482 0.0
H99 H 0.65365 0.78064 0.96882 0.0
H100 H 0.47809 0.6685 0.22343 0.0
H101 H 0.69566 0.78784 0.87382 0.0
Zn102 Zn 0.90108 0.53027 0.25657 0.0
C103 C 0.79759 0.49474 0.23992 0.0
N104 N 0.7957 0.46355 0.26553 0.0
C105 C 0.82953 0.46756 0.25135 0.0
N106 N 0.85133 0.50022 0.21936 0.0
N107 N 0.83088 0.51651 0.20878 0.0
C108 C 0.83243 0.61398 0.17929 0.0
O109 O 0.86613 0.62592 0.20462 0.0
O110 O 0.92648 0.49886 0.26455 0.0
Zn111 Zn 0.84478 0.55343 0.13673 0.0
N112 N 0.89522 0.55104 0.34116 0.0
C113 C 0.88112 0.59743 0.38067 0.0
C114 C 0.88678 0.57854 0.32863 0.0
C115 C 0.89788 0.54126 0.40514 0.0
N116 N 0.88411 0.58818 0.44396 0.0
C117 C 0.89225 0.56063 0.45824 0.0
O118 O 0.90154 0.59179 0.13465 0.0
C119 C 0.933 0.59709 0.15737 0.0
O120 O 0.93496 0.57496 0.1994 0.0
H121 H 0.88442 0.58563 0.278 0.0
H122 H 0.90442 0.51919 0.41456 0.0
C123 C 0.84814 0.53987 0.99185 0.0
C124 C 0.83714 0.51652 0.93447 0.0
C125 C 0.79353 0.46511 1.0005 0.0
C126 C 0.80462 0.48803 0.05647 0.0
N127 N 0.83135 0.52504 0.05166 0.0
N128 N 0.8099 0.47979 0.94136 0.0
H129 H 0.86945 0.56931 0.98918 0.0
C130 C 0.92373 0.48002 0.2125 0.0
O131 O 0.90519 0.48224 0.16107 0.0
O132 O 0.81684 0.58316 0.14685 0.0
H133 H 0.79189 0.4761 0.10364 0.0
H134 H 0.87445 0.61938 0.37088 0.0
H135 H 0.77215 0.43572 1.00402 0.0
Zn136 Zn 0.26875 0.86485 0.14409 0.0
C137 C 0.33661 0.85509 1.0112 0.0
N138 N 0.36364 0.88536 0.04327 0.0
C139 C 0.34367 0.89341 0.08647 0.0
N140 N 0.3063 0.86893 0.08203 0.0
N141 N 0.30197 0.84504 0.03428 0.0
C142 C 0.25827 0.7467 0.99335 0.0
O143 O 0.25661 0.75524 0.05565 0.0
O144 O 0.28228 0.91781 0.16874 0.0
Zn145 Zn 0.25618 0.81226 0.98897 0.0
N146 N 0.27577 0.84131 0.22122 0.0
C147 C 0.28568 0.79316 0.26498 0.0
C148 C 0.28003 0.81091 0.21099 0.0
C149 C 0.27696 0.85486 0.28332 0.0
N150 N 0.28698 0.80665 0.32705 0.0
C151 C 0.28299 0.83725 0.33815 0.0
O152 O 0.2094 0.78951 0.04562 0.0
C153 C 0.19415 0.80051 0.08843 0.0
O154 O 0.21275 0.8317 0.11954 0.0
H155 H 0.27917 0.80072 0.1612 0.0
H156 H 0.27281 0.87873 0.28943 0.0
C157 C 0.25986 0.84374 0.85823 0.0
C158 C 0.25701 0.86904 0.81466 0.0
C159 C 0.23448 0.89055 0.90348 0.0
C160 C 0.23742 0.8656 0.94629 0.0
N161 N 0.24996 0.84271 0.92298 0.0
N162 N 0.24441 0.89178 0.83899 0.0
H163 H 0.2708 0.82593 0.84174 0.0
C164 C 0.29179 0.94354 0.12548 0.0
O165 O 0.28914 0.93472 0.06224 0.0
O166 O 0.25937 0.76898 0.9486 0.0
H167 H 0.23043 0.86492 0.99812 0.0
H168 H 0.28908 0.76889 0.25767 0.0
H169 H 0.22473 0.90909 0.92142 0.0
Zn170 Zn 0.46019 0.29231 0.1268 0.0
C171 C 0.54066 0.35554 0.25538 0.0
N172 N 0.54431 0.32516 0.26555 0.0
C173 C 0.51364 0.29747 0.23503 0.0
N174 N 0.49274 0.31055 0.20547 0.0
N175 N 0.50888 0.34653 0.22151 0.0
C176 C 0.52073 0.43644 0.20002 0.0
O177 O 0.51025 0.41293 0.14964 0.0
O178 O 0.43436 0.2356 0.12429 0.0
Zn179 Zn 0.47872 0.36671 0.2547 0.0
N180 N 0.49295 0.31457 0.04812 0.0
C181 C 0.55671 0.34823 1.01052 0.0
C182 C 0.53047 0.32923 0.06021 0.0
C183 C 0.48064 0.31792 0.98653 0.0
N184 N 0.54465 0.35222 0.95013 0.0
C185 C 0.50738 0.33761 0.93602 0.0
O186 O 0.43438 0.35466 0.19572 0.0
C187 C 0.41292 0.33182 0.1514 0.0
O188 O 0.41897 0.30686 0.12565 0.0
H189 H 0.54034 0.32686 0.10856 0.0
H190 H 0.4508 0.30664 0.97764 0.0
C191 C 0.47161 0.35394 0.40254 0.0
C192 C 0.45243 0.33092 0.45804 0.0
C193 C 0.40646 0.2858 0.38447 0.0
C194 C 0.42532 0.30842 0.33056 0.0
N195 N 0.45732 0.34204 0.34006 0.0
N196 N 0.42035 0.29751 0.44635 0.0
H197 H 0.4977 0.38032 0.40834 0.0
C198 C 0.41975 0.2184 0.17816 0.0
O199 O 0.42184 0.23799 0.23125 0.0
O200 O 0.51005 0.42338 0.25811 0.0
H201 H 0.4147 0.299 0.28096 0.0
H202 H 0.58657 0.3602 0.02013 0.0
H203 H 0.381 0.25896 0.37726 0.0
H204 H 0.40649 0.39434 0.13679 0.0
H205 H 0.34187 0.27248 0.12852 0.0
H206 H 0.28299 0.2752 0.11451 0.0
H207 H 0.34123 0.40974 0.22596 0.0
H208 H 0.34961 0.45073 0.17958 0.0
H209 H 0.3865 0.43919 0.18773 0.0
H210 H 0.39255 0.43849 0.05985 0.0
H211 H 0.35617 0.45072 0.05126 0.0
H212 H 0.35122 0.40936 1.01041 0.0
H213 H 0.23058 0.29194 0.11108 0.0
H214 H 0.19045 0.32117 0.09911 0.0
H215 H 0.2906 0.4318 0.1009 0.0
C216 C 0.37995 0.36825 0.13121 0.0
C217 C 0.37855 0.33318 0.1338 0.0
C218 C 0.34346 0.29962 0.12605 0.0
C219 C 0.30992 0.30092 0.11868 0.0
C220 C 0.31218 0.33603 0.11788 0.0
C221 C 0.34647 0.36909 0.12227 0.0
C222 C 0.34158 0.40325 0.1179 0.0
C223 C 0.35556 0.42712 0.18159 0.0
C224 C 0.36155 0.42683 0.05617 0.0
C225 C 0.29911 0.38433 0.11131 0.0
C226 C 0.2825 0.34556 0.11242 0.0
C227 C 0.24336 0.32226 0.10939 0.0
C228 C 0.22077 0.33905 0.10323 0.0
C229 C 0.23749 0.37865 0.09898 0.0
C230 C 0.27712 0.40142 0.10372 0.0
H231 H 0.0221 0.32308 0.1782 0.0
H232 H 0.03196 0.2952 0.97388 0.0
H233 H 0.96278 0.25639 0.96612 0.0
H234 H 0.94363 0.23136 0.22225 0.0
H235 H 0.9212 0.25039 0.27388 0.0
H236 H 0.97172 0.27583 0.26399 0.0
H237 H 0.96904 0.33466 0.2232 0.0
H238 H 0.91858 0.30912 0.23441 0.0
H239 H 0.93824 0.32949 0.15503 0.0
H240 H 0.89263 0.22309 0.97799 0.0
H241 H 0.82585 0.19287 0.01223 0.0
H242 H 0.86085 0.24019 0.20981 0.0
C243 C 1.00974 0.30839 0.13213 0.0
C244 C 0.03258 0.31214 0.07671 0.0
C245 C 0.01518 0.29275 0.01713 0.0
C246 C 0.97584 0.27072 0.01207 0.0
C247 C 0.95415 0.26813 0.06709 0.0
C248 C 0.97039 0.28609 0.12623 0.0
C249 C 0.94043 0.27845 0.17784 0.0
C250 C 0.9445 0.25777 0.23804 0.0
C251 C 0.94168 0.31512 0.1989 0.0
C252 C 0.90491 0.25324 0.13846 0.0
C253 C 0.91351 0.24804 0.07447 0.0
C254 C 0.88551 0.22671 0.02813 0.0
C255 C 0.84765 0.20978 0.04795 0.0
C256 C 0.83813 0.21393 0.11375 0.0
C257 C 0.86725 0.23618 0.15934 0.0
H258 H 0.64369 0.88073 0.02897 0.0
H259 H 0.64265 0.8394 0.2274 0.0
H260 H 0.66011 0.90201 0.27353 0.0
H261 H 0.72467 0.97641 0.05706 0.0
H262 H 0.70484 0.99797 1.00527 0.0
H263 H 0.69466 0.95067 0.98807 0.0
H264 H 0.62304 0.92731 0.99405 0.0
H265 H 0.63296 0.97441 0.01179 0.0
H266 H 0.60396 0.9366 0.06763 0.0
H267 H 0.66928 0.96681 0.29862 0.0
H268 H 0.67736 0.03089 0.29955 0.0
H269 H 0.67802 0.03173 0.08457 0.0
C270 C 0.64781 0.88503 0.08205 0.0
C271 C 0.64184 0.85512 0.12459 0.0
C272 C 0.64743 0.86193 0.19377 0.0
C273 C 0.65715 0.89737 0.22044 0.0
C274 C 0.66196 0.92599 0.17721 0.0
C275 C 0.65825 0.92041 0.10934 0.0
C276 C 0.66445 0.9556 0.07366 0.0
C277 C 0.69923 0.97108 0.02834 0.0
C278 C 0.62899 0.94801 0.0345 0.0
C279 C 0.67135 0.98162 0.13209 0.0
C280 C 0.66945 0.96391 0.19149 0.0
C281 C 0.6717 0.98121 0.25237 0.0
C282 C 0.67616 0.01751 0.2525 0.0
C283 C 0.67907 0.03641 0.19222 0.0
C284 C 0.67691 0.01826 0.13136 0.0
H285 H 0.76216 0.59916 0.134 0.0
H286 H 0.86021 0.6806 0.24573 0.0
H287 H 0.83077 0.7197 0.26108 0.0
H288 H 0.74579 0.66604 0.04896 0.0
H289 H 0.6951 0.63888 0.053 0.0
H290 H 0.7223 0.61537 0.05203 0.0
H291 H 0.69111 0.58094 0.16047 0.0
H292 H 0.66338 0.60386 0.16383 0.0
H293 H 0.69294 0.60767 0.23294 0.0
H294 H 0.79178 0.75094 0.26319 0.0
H295 H 0.7456 0.77248 0.25107 0.0
H296 H 0.67228 0.67161 0.13799 0.0
C297 C 0.77739 0.62517 0.16178 0.0
C298 C 0.81363 0.63673 0.18852 0.0
C299 C 0.8325 0.67101 0.22464 0.0
C300 C 0.81599 0.6935 0.23375 0.0
C301 C 0.78045 0.68147 0.20662 0.0
C302 C 0.76128 0.64814 0.17142 0.0
C303 C 0.72353 0.64213 0.14694 0.0
C304 C 0.72157 0.6405 0.07071 0.0
C305 C 0.69082 0.60652 0.17788 0.0
C306 C 0.72477 0.6775 0.17322 0.0
C307 C 0.75782 0.69965 0.20779 0.0
C308 C 0.76573 0.73382 0.23631 0.0
C309 C 0.73927 0.74583 0.22913 0.0
C310 C 0.70525 0.72387 0.19344 0.0
C311 C 0.69799 0.68913 0.16542 0.0
H312 H 0.15518 0.7241 0.09896 0.0
H313 H 0.14105 0.82196 0.10491 0.0
H314 H 0.07183 0.78021 0.11684 0.0
H315 H 0.07093 0.66184 1.00975 0.0
H316 H 0.06099 0.62094 0.05798 0.0
H317 H 0.109 0.65837 0.04772 0.0
H318 H 0.11773 0.6649 0.17529 0.0
H319 H 0.0699 0.62719 0.18592 0.0
H320 H 0.08523 0.67219 0.22477 0.0
H321 H 1.00346 0.7268 0.12162 0.0
H322 H 0.94298 0.66737 0.13741 0.0
H323 H 1.00303 0.60522 0.13918 0.0
C324 C 0.13745 0.73668 0.10285 0.0
C325 C 0.15324 0.77617 0.10051 0.0
C326 C 0.12938 0.79175 0.10676 0.0
C327 C 0.09009 0.76825 0.11307 0.0
C328 C 0.07531 0.72932 0.11439 0.0
C329 C 0.09841 0.71373 0.11095 0.0
C330 C 0.07587 0.67125 0.11739 0.0
C331 C 0.07942 0.65198 0.05445 0.0
C332 C 0.08789 0.65812 0.17955 0.0
C333 C 0.03637 0.66524 0.12456 0.0
C334 C 0.0365 0.69898 0.1214 0.0
C335 C 1.00312 0.7003 0.12478 0.0
C336 C 0.96889 0.66641 0.13324 0.0
C337 C 0.9684 0.6318 0.13965 0.0
C338 C 1.00262 0.63133 0.13471 0.0
H339 H 0.30924 1.00546 0.04842 0.0
H340 H 0.31723 0.97204 0.24946 0.0
H341 H 0.35098 0.03864 0.28391 0.0
H342 H 0.40107 0.093 0.04016 0.0
H343 H 0.38036 0.11499 0.99277 0.0
H344 H 0.36033 0.0647 0.98864 0.0
H345 H 0.29612 0.06135 0.02058 0.0
H346 H 0.31954 0.11171 0.03081 0.0
H347 H 0.2931 0.08134 0.09852 0.0
H348 H 0.38418 0.10841 0.29694 0.0
H349 H 0.4142 0.17751 0.28783 0.0
H350 H 0.38554 0.16635 0.07847 0.0
C351 C 0.318 0.01217 0.09972 0.0
C352 C 0.31032 0.98348 0.14637 0.0
C353 C 0.3223 0.99343 0.21302 0.0
C354 C 0.34166 0.03121 0.23304 0.0
C355 C 0.34875 0.05876 0.18593 0.0
C356 C 0.33729 0.04983 0.12065 0.0
C357 C 0.34773 0.08498 0.08051 0.0
C358 C 0.37388 0.08956 0.02214 0.0
C359 C 0.31199 0.08483 0.05619 0.0
C360 C 0.36819 0.11504 0.13289 0.0
C361 C 0.36802 0.09922 0.19348 0.0
C362 C 0.38449 0.12114 0.24979 0.0
C363 C 0.4014 0.16031 0.24417 0.0
C364 C 0.40215 0.17713 0.18251 0.0
C365 C 0.38558 0.15418 0.12609 0.0
H366 H 0.17727 0.44411 0.71434 0.0
H367 H 0.17742 0.33844 0.70511 0.0
H368 H 0.17706 0.34057 0.58308 0.0
H369 H 0.11444 0.42491 0.57976 0.0
H370 H 0.13792 0.47223 0.54769 0.0
H371 H 0.14096 0.46427 0.63475 0.0
H372 H 0.21397 0.501 0.62825 0.0
H373 H 0.21117 0.50946 0.54128 0.0
H374 H 0.23737 0.48723 0.56801 0.0
H375 H 0.17411 0.35235 0.46251 0.0
H376 H 0.17104 0.37432 0.35058 0.0
H377 H 0.17109 0.4717 0.43637 0.0
C378 C 0.17813 0.42192 0.68663 0.0
C379 C 0.17765 0.39122 0.71941 0.0
C380 C 0.17775 0.36222 0.68116 0.0
C381 C 0.17759 0.36316 0.61175 0.0
C382 C 0.17721 0.39327 0.58093 0.0
C383 C 0.17772 0.42227 0.6169 0.0
C384 C 0.17588 0.4506 0.57103 0.0
C385 C 0.14017 0.45313 0.5841 0.0
C386 C 0.21174 0.48937 0.57753 0.0
C387 C 0.17396 0.43274 0.50401 0.0
C388 C 0.17485 0.39975 0.51095 0.0
C389 C 0.17326 0.37812 0.45633 0.0
C390 C 0.17103 0.39069 0.39269 0.0
C391 C 0.17013 0.42455 0.384 0.0
C392 C 0.17163 0.44567 0.44089 0.0
H393 H 0.6518 0.11744 0.53289 0.0
H394 H 0.7494 0.22955 0.52026 0.0
H395 H 0.74817 0.23674 0.64165 0.0
H396 H 0.60463 0.13701 0.67411 0.0
H397 H 0.58902 0.09142 0.7103 0.0
H398 H 0.59422 0.09732 0.62161 0.0
H399 H 0.63889 0.06957 0.62251 0.0
H400 H 0.63431 0.06412 0.71115 0.0
H401 H 0.68042 0.09095 0.67436 0.0
H402 H 0.74076 0.22926 0.76525 0.0
H403 H 0.72563 0.20862 0.88163 0.0
H404 H 0.63377 0.10079 0.81412 0.0
C405 C 0.67195 0.144 0.55547 0.0
C406 C 0.70035 0.17318 0.51713 0.0
C407 C 0.72721 0.20698 0.54877 0.0
C408 C 0.72676 0.21134 0.61768 0.0
C409 C 0.69927 0.18159 0.65447 0.0
C410 C 0.6721 0.14869 0.62451 0.0
C411 C 0.64761 0.11995 0.67599 0.0
C412 C 0.60643 0.1109 0.67015 0.0
C413 C 0.65051 0.08404 0.67066 0.0
C414 C 0.66582 0.1415 0.73927 0.0
C415 C 0.6954 0.17707 0.72587 0.0
C416 C 0.71744 0.20152 0.77643 0.0
C417 C 0.7089 0.18934 0.84251 0.0
C418 C 0.67867 0.15288 0.85747 0.0
C419 C 0.65688 0.12894 0.80473 0.0
H420 H 0.64394 0.75186 0.68015 0.0
H421 H 0.56585 0.78954 0.73815 0.0
H422 H 0.54424 0.78329 0.6226 0.0
H423 H 0.66922 0.79974 0.51976 0.0
H424 H 0.67182 0.76203 0.4787 0.0
H425 H 0.6823 0.77042 0.56604 0.0
H426 H 0.63174 0.70138 0.59143 0.0
H427 H 0.62121 0.69276 0.50425 0.0
H428 H 0.58407 0.68345 0.56231 0.0
H429 H 0.52825 0.7697 0.50294 0.0
H430 H 0.51928 0.75003 0.3855 0.0
H431 H 0.60932 0.72373 0.40184 0.0
C432 C 0.62249 0.75909 0.66856 0.0
C433 C 0.60618 0.7705 0.719 0.0
C434 C 0.57814 0.77964 0.70138 0.0
C435 C 0.56593 0.77663 0.63549 0.0
C436 C 0.58224 0.76485 0.58742 0.0
C437 C 0.61002 0.75636 0.60289 0.0
C438 C 0.6221 0.74336 0.54179 0.0
C439 C 0.66384 0.77052 0.52563 0.0
C440 C 0.6143 0.70283 0.55048 0.0
C441 C 0.59635 0.74538 0.48976 0.0
C442 C 0.57369 0.75795 0.51737 0.0
C443 C 0.54613 0.76026 0.48056 0.0
C444 C 0.5412 0.74896 0.41399 0.0
C445 C 0.56388 0.73581 0.38456 0.0
C446 C 0.5922 0.73449 0.42275 0.0
H447 H 0.80423 0.48616 0.81473 0.0
H448 H 0.90834 0.57557 0.89967 0.0
H449 H 0.93564 0.59272 0.78709 0.0
H450 H 0.84678 0.45803 0.68718 0.0
H451 H 0.81066 0.44881 0.62667 0.0
H452 H 0.79938 0.44346 0.71382 0.0
H453 H 0.7741 0.48994 0.70417 0.0
H454 H 0.78469 0.4949 0.61688 0.0
H455 H 0.80395 0.536 0.66945 0.0
H456 H 0.95126 0.60051 0.66315 0.0
H457 H 0.95156 0.60155 0.54018 0.0
H458 H 0.83783 0.50647 0.53704 0.0
C459 C 0.83285 0.5094 0.81008 0.0
C460 C 0.85389 0.52956 0.86684 0.0
C461 C 0.89116 0.55993 0.8576 0.0
C462 C 0.90712 0.56964 0.79362 0.0
C463 C 0.88563 0.54873 0.73912 0.0
C464 C 0.84913 0.51943 0.74684 0.0
C465 C 0.83137 0.50202 0.68038 0.0
C466 C 0.82147 0.46062 0.67684 0.0
C467 C 0.79648 0.50597 0.66694 0.0
C468 C 0.86344 0.52624 0.6336 0.0
C469 C 0.89466 0.55284 0.66846 0.0
C470 C 0.92713 0.57946 0.63567 0.0
C471 C 0.92725 0.57962 0.56583 0.0
C472 C 0.89529 0.55323 0.52927 0.0
C473 C 0.86319 0.52594 0.56378 0.0
H474 H 0.26374 0.79505 0.45115 0.0
H475 H 0.30654 0.90964 0.38229 0.0
H476 H 0.3071 0.93022 0.49738 0.0
H477 H 0.20282 0.79574 0.57509 0.0
H478 H 0.21205 0.76806 0.63349 0.0
H479 H 0.21629 0.76256 0.54584 0.0
H480 H 0.28503 0.77695 0.56332 0.0
H481 H 0.28104 0.78263 0.6511 0.0
H482 H 0.31856 0.81997 0.60432 0.0
H483 H 0.30033 0.93789 0.61899 0.0
H484 H 0.28688 0.93223 0.73898 0.0
H485 H 0.24979 0.81294 0.72915 0.0
C486 C 0.27353 0.82456 0.46019 0.0
C487 C 0.28444 0.85052 0.40726 0.0
C488 C 0.29699 0.88888 0.42144 0.0
C489 C 0.29784 0.90098 0.48688 0.0
C490 C 0.28642 0.87451 0.53763 0.0
C491 C 0.27462 0.83713 0.52513 0.0
C492 C 0.26285 0.8142 0.58842 0.0
C493 C 0.22102 0.78333 0.58551 0.0
C494 C 0.2884 0.79746 0.60261 0.0
C495 C 0.26936 0.84447 0.63843 0.0
C496 C 0.28313 0.87907 0.60807 0.0
C497 C 0.28988 0.91103 0.64342 0.0
C498 C 0.28202 0.90747 0.7115 0.0
C499 C 0.26768 0.87225 0.74372 0.0
C500 C 0.2616 0.84044 0.70652 0.0
H501 H 0.43218 0.28282 0.56393 0.0
H502 H 0.50101 0.40134 0.51437 0.0
H503 H 0.51874 0.41573 0.63229 0.0
H504 H 0.397 0.29598 0.71962 0.0
H505 H 0.39836 0.25746 0.75984 0.0
H506 H 0.39111 0.2563 0.67146 0.0
H507 H 0.44856 0.24714 0.65173 0.0
H508 H 0.45572 0.24783 0.73999 0.0
H509 H 0.49365 0.28025 0.6873 0.0
H510 H 0.53017 0.417 0.75613 0.0
H511 H 0.53658 0.4048 0.8741 0.0
H512 H 0.45832 0.2859 0.84428 0.0
C513 C 0.45095 0.31195 0.5774 0.0
C514 C 0.46529 0.34082 0.5287 0.0
C515 C 0.48998 0.37841 0.54952 0.0
C516 C 0.49995 0.38696 0.61687 0.0
C517 C 0.48493 0.35777 0.66319 0.0
C518 C 0.46105 0.32098 0.64422 0.0
C519 C 0.44928 0.29458 0.70339 0.0
C520 C 0.40639 0.27493 0.7142 0.0
C521 C 0.46261 0.26576 0.6951 0.0
C522 C 0.47046 0.32222 0.75898 0.0
C523 C 0.49078 0.35856 0.73462 0.0
C524 C 0.51406 0.38874 0.77567 0.0
C525 C 0.51739 0.38156 0.84269 0.0
C526 C 0.49735 0.34456 0.86866 0.0
C527 C 0.47306 0.3146 0.82632 0.0
H528 H 0.24911 0.69249 0.08003 0.0
H529 H 0.26148 0.71879 0.87003 0.0
H530 H 0.2506 0.65485 0.84514 0.0
H531 H 0.29162 0.63516 0.08324 0.0
H532 H 0.25786 0.59977 0.13886 0.0
H533 H 0.26874 0.648 0.14533 0.0
H534 H 0.2009 0.63294 0.12972 0.0
H535 H 0.18668 0.58388 0.13109 0.0
H536 H 0.17299 0.6027 0.06259 0.0
H537 H 0.22595 0.58406 0.84355 0.0
H538 H 0.19076 0.51526 0.86595 0.0
H539 H 0.19893 0.53814 0.07658 0.0
C540 C 0.25044 0.68528 0.02876 0.0
C541 C 0.25619 0.7106 0.97698 0.0
C542 C 0.25721 0.69978 0.91056 0.0
C543 C 0.25121 0.6636 0.89604 0.0
C544 C 0.2446 0.63888 0.94856 0.0
C545 C 0.2443 0.64954 0.01359 0.0
C546 C 0.23252 0.61723 0.06102 0.0
C547 C 0.26458 0.62541 0.10995 0.0
C548 C 0.19613 0.6087 0.0982 0.0
C549 C 0.22541 0.58615 0.0126 0.0
C550 C 0.23246 0.59894 0.94777 0.0
C551 C 0.2216 0.5739 0.8941 0.0
C552 C 0.20177 0.53494 0.90703 0.0
C553 C 0.19353 0.52181 0.97295 0.0
C554 C 0.20659 0.54771 0.02595 0.0
H555 H 0.51945 0.26128 0.12546 0.0
H556 H 0.50114 0.25106 0.33722 0.0
H557 H 0.52018 0.20292 0.34158 0.0
H558 H 0.49849 0.15625 0.09782 0.0
H559 H 0.53511 0.17335 0.03594 0.0
H560 H 0.5059 0.19458 0.04455 0.0
H561 H 0.56587 0.25985 0.05873 0.0
H562 H 0.59518 0.23915 0.05131 0.0
H563 H 0.59904 0.26668 0.12384 0.0
H564 H 0.56242 0.17666 0.33091 0.0
H565 H 0.6173 0.16936 0.30283 0.0
H566 H 0.60699 0.19261 0.09722 0.0
C567 C 0.51701 0.24691 0.17166 0.0
C568 C 0.50828 0.25926 0.23078 0.0
C569 C 0.50695 0.24122 0.29119 0.0
C570 C 0.51785 0.21387 0.2941 0.0
C571 C 0.52969 0.20454 0.2359 0.0
C572 C 0.52811 0.21959 0.17515 0.0
C573 C 0.54861 0.21034 0.12233 0.0
C574 C 0.52034 0.18193 0.07219 0.0
C575 C 0.57897 0.24613 0.08713 0.0
C576 C 0.56595 0.19225 0.16444 0.0
C577 C 0.55363 0.18782 0.22942 0.0
C578 C 0.57084 0.17808 0.27963 0.0
C579 C 0.60194 0.17382 0.26344 0.0
C580 C 0.61511 0.17884 0.19751 0.0
C581 C 0.59619 0.18706 0.14747 0.0
H582 H 0.32651 0.53312 0.90024 0.0
H583 H 0.29597 0.58119 0.06329 0.0
H584 H 0.35803 0.63899 0.05735 0.0
H585 H 0.41271 0.55845 0.96042 0.0
H586 H 0.43737 0.56832 0.88241 0.0
H587 H 0.38746 0.53613 0.88514 0.0
H588 H 0.3768 0.57598 0.79729 0.0
H589 H 0.42694 0.60853 0.79457 0.0
H590 H 0.39478 0.62542 0.81223 0.0
H591 H 0.4253 0.68315 0.05299 0.0
H592 H 0.49381 0.70919 0.05488 0.0
H593 H 0.48483 0.63477 0.89505 0.0
C594 C 0.33251 0.55659 0.93256 0.0
C595 C 0.30615 0.55344 0.98098 0.0
C596 C 0.31545 0.58376 0.02475 0.0
C597 C 0.35063 0.61666 0.02156 0.0
C598 C 0.3766 0.61863 0.97479 0.0
C599 C 0.36813 0.58936 0.93111 0.0
C600 C 0.40325 0.59559 0.89467 0.0
C601 C 0.41062 0.56269 0.90643 0.0
C602 C 0.40025 0.60175 0.82026 0.0
C603 C 0.43304 0.63155 0.92782 0.0
C604 C 0.41675 0.64495 0.97226 0.0
C605 C 0.43841 0.67427 0.01601 0.0
C606 C 0.47756 0.68951 0.01596 0.0
C607 C 0.49494 0.67602 0.97182 0.0
C608 C 0.47238 0.64713 0.92638 0.0
H609 H 0.81047 0.42903 0.13709 0.0
H610 H 0.84891 0.42753 0.3362 0.0
H611 H 0.83753 0.36282 0.31704 0.0
H612 H 0.73427 0.34434 0.14466 0.0
H613 H 0.7341 0.33095 0.05932 0.0
H614 H 0.75644 0.37976 0.08142 0.0
H615 H 0.81878 0.39059 0.02819 0.0
H616 H 0.79654 0.34135 1.0066 0.0
H617 H 0.83935 0.36291 0.05514 0.0
H618 H 0.80958 0.29486 0.28457 0.0
H619 H 0.76215 0.2307 0.24997 0.0
H620 H 0.73831 0.27513 0.07367 0.0
C621 C 0.81822 0.41563 0.17532 0.0
C622 C 0.83168 0.4334 0.23726 0.0
C623 C 0.83963 0.41459 0.28779 0.0
C624 C 0.83331 0.37793 0.27708 0.0
C625 C 0.8186 0.36046 0.21587 0.0
C626 C 0.81114 0.37888 0.16582 0.0
C627 C 0.78866 0.35221 0.11 0.0
C628 C 0.75117 0.35178 0.09826 0.0
C629 C 0.81225 0.36237 0.04619 0.0
C630 C 0.78219 0.31525 0.13821 0.0
C631 C 0.80103 0.32075 0.19799 0.0
C632 C 0.79567 0.29038 0.23697 0.0
C633 C 0.76891 0.25379 0.21646 0.0
C634 C 0.74738 0.24785 0.15801 0.0
C635 C 0.75542 0.27887 0.11718 0.0
H636 H 0.44814 0.7551 0.05902 0.0
H637 H 0.50159 0.80177 0.87048 0.0
H638 H 0.44919 0.81286 0.841 0.0
H639 H 0.34517 0.71215 0.99227 0.0
H640 H 0.33119 0.72226 0.07091 0.0
H641 H 0.36751 0.70964 0.0677 0.0
H642 H 0.41241 0.77131 0.13189 0.0
H643 H 0.37617 0.78363 0.13382 0.0
H644 H 0.42153 0.81584 0.09841 0.0
H645 H 0.40201 0.83429 0.84647 0.0
H646 H 0.36373 0.86192 0.88541 0.0
H647 H 0.33669 0.79595 0.0646 0.0
C648 C 0.44806 0.76653 1.01067 0.0
C649 C 0.47878 0.77787 0.96713 0.0
C650 C 0.4781 0.79282 0.90435 0.0
C651 C 0.44834 0.79895 0.88708 0.0
C652 C 0.41887 0.7886 0.93215 0.0
C653 C 0.41804 0.77173 0.99204 0.0
C654 C 0.38572 0.76712 0.03506 0.0
C655 C 0.35562 0.72531 0.04182 0.0
C656 C 0.39983 0.78562 0.10374 0.0
C657 C 0.37116 0.78787 0.99343 0.0
C658 C 0.38978 0.79904 0.93318 0.0
C659 C 0.38596 0.8243 0.89191 0.0
C660 C 0.36409 0.8398 0.9141 0.0
C661 C 0.34614 0.8296 0.97643 0.0
C662 C 0.34848 0.8023 0.01505 0.0
H663 H 0.75089 0.47999 0.34186 0.0
H664 H 0.76616 0.51404 0.13611 0.0
H665 H 0.6991 0.49587 0.1287 0.0
H666 H 0.67673 0.40014 0.32059 0.0
H667 H 0.65107 0.39739 0.39504 0.0
H668 H 0.70134 0.42657 0.39362 0.0
H669 H 0.69617 0.48472 0.42747 0.0
H670 H 0.64548 0.45545 0.43051 0.0
H671 H 0.66671 0.4972 0.37988 0.0
H672 H 0.63009 0.45515 0.13228 0.0
H673 H 0.56651 0.40093 0.14821 0.0
H674 H 0.59357 0.39111 0.35185 0.0
C675 C 0.74045 0.48566 0.29644 0.0
C676 C 0.76375 0.49883 0.23981 0.0
C677 C 0.74922 0.5049 0.18051 0.0
C678 C 0.7109 0.49438 0.17592 0.0
C679 C 0.68776 0.47819 0.23128 0.0
C680 C 0.70227 0.4747 0.29113 0.0
C681 C 0.6711 0.44992 0.33907 0.0
C682 C 0.67533 0.41655 0.36337 0.0
C683 C 0.66979 0.47322 0.3977 0.0
C684 C 0.63689 0.43693 0.29483 0.0
C685 C 0.64696 0.45458 0.23362 0.0
C686 C 0.62144 0.44275 0.18101 0.0
C687 C 0.58514 0.41201 0.19069 0.0
C688 C 0.57449 0.39328 0.25248 0.0
C689 C 0.60052 0.40632 0.30537 0.0
H690 H 0.99383 0.49955 0.25893 0.0
H691 H 0.89948 0.4143 0.14625 0.0
H692 H 0.93768 0.38584 0.11325 0.0
H693 H 0.05787 0.51803 0.14269 0.0
H694 H 0.09695 0.52664 0.19567 0.0
H695 H 0.05967 0.53316 0.22736 0.0
H696 H 0.04872 0.48657 0.32295 0.0
H697 H 0.08613 0.47982 0.29113 0.0
H698 H 0.03973 0.43983 0.30389 0.0
H699 H 0.98861 0.3756 0.07202 0.0
H700 H 0.04846 0.38701 0.02186 0.0
H701 H 0.11098 0.47906 0.15841 0.0
C702 C 0.98079 0.4737 0.23032 0.0
C703 C 0.94365 0.4586 0.20606 0.0
C704 C 0.92781 0.42589 0.16597 0.0
C705 C 0.94924 0.40937 0.14745 0.0
C706 C 0.9865 0.42584 0.16953 0.0
C707 C 1.00217 0.45727 0.21044 0.0
C708 C 0.0445 0.47387 0.21672 0.0
C709 C 0.06597 0.51533 0.19422 0.0
C710 C 0.0554 0.46976 0.28792 0.0
C711 C 0.0505 0.4486 0.16938 0.0
C712 C 0.01656 0.42022 0.14448 0.0
C713 C 0.01523 0.39668 0.09315 0.0
C714 C 0.04932 0.40307 0.06521 0.0
C715 C 0.08411 0.43248 0.08897 0.0
C716 C 0.0847 0.45499 0.14235 0.0
H717 H 0.52164 0.08295 0.14689 0.0
H718 H 0.53246 0.03811 0.33475 0.0
H719 H 0.46474 0.98953 0.32977 0.0
H720 H 0.4191 0.05776 0.1687 0.0
H721 H 0.40806 0.04423 0.08287 0.0
H722 H 0.45417 0.08241 0.10582 0.0
H723 H 0.48751 0.05073 0.0496 0.0
H724 H 0.44259 0.01385 0.02139 0.0
H725 H 0.47289 1.00242 0.06884 0.0
H726 H 0.40193 0.93706 0.28979 0.0
H727 H 0.35255 0.88744 0.21935 0.0
H728 H 0.38179 0.96693 0.05912 0.0
C729 C 0.50935 0.06375 0.18821 0.0
C730 C 0.53211 0.06413 0.24109 0.0
C731 C 0.51533 0.0385 0.29408 0.0
C732 C 0.47685 0.01084 0.29162 0.0
C733 C 0.45552 0.00984 0.23661 0.0
C734 C 0.4712 0.0362 0.18641 0.0
C735 C 0.4446 0.0261 0.12804 0.0
C736 C 0.43069 0.05439 0.12097 0.0
C737 C 0.46299 0.02306 0.06325 0.0
C738 C 0.4129 0.98826 0.1503 0.0
C739 C 0.41889 0.97979 0.21405 0.0
C740 C 0.39612 0.94403 0.24106 0.0
C741 C 0.36777 0.916 0.20104 0.0
C742 C 0.36255 0.92403 0.13503 0.0
C743 C 0.38444 0.96081 0.11047 0.0
H744 H 0.51426 0.49379 0.25564 0.0
H745 H 0.57729 0.46946 0.11082 0.0
H746 H 0.6104 0.53563 0.07542 0.0
H747 H 0.49251 0.54303 0.15033 0.0
H748 H 0.49452 0.57751 0.20834 0.0
H749 H 0.48506 0.53236 0.23766 0.0
H750 H 0.5419 0.56508 0.31861 0.0
H751 H 0.55163 0.61051 0.28878 0.0
H752 H 0.58801 0.59796 0.28677 0.0
H753 H 0.62584 0.59833 0.03839 0.0
H754 H 0.61986 0.65202 0.99848 0.0
H755 H 0.54327 0.63519 0.15946 0.0
C756 C 0.53636 0.50306 0.21877 0.0
C757 C 0.54429 0.47703 0.18745 0.0
C758 C 0.57174 0.48932 0.13674 0.0
C759 C 0.59071 0.52689 0.11635 0.0
C760 C 0.58132 0.55174 0.14616 0.0
C761 C 0.55468 0.54039 0.19624 0.0
C762 C 0.54427 0.57038 0.21045 0.0
C763 C 0.50159 0.55489 0.20106 0.0
C764 C 0.55724 0.58696 0.28032 0.0
C765 C 0.56729 0.59907 0.15774 0.0
C766 C 0.58953 0.5884 0.12289 0.0
C767 C 0.6097 0.60782 0.0667 0.0
C768 C 0.60624 0.63827 0.04441 0.0
C769 C 0.58235 0.64846 0.07765 0.0
C770 C 0.56337 0.62925 0.13569 0.0
loop_
_geom_bond_atom_site_label_1
_geom_bond_atom_site_label_2
_geom_bond_distance
_geom_bond_site_symmetry_2
_ccdc_geom_bond_type
Zn0 N4 2.020 1_556 S
Zn0 O8 2.019 . S
Zn0 N10 2.119 . S
Zn0 O18 1.975 1_556 S
C1 N2 1.334 . S
C1 N5 1.336 . S
N2 C1 1.334 . S
N2 C3 1.334 . S
C3 N2 1.334 . S
C3 N4 1.336 . S
N4 Zn0 2.020 1_554 S
N4 C3 1.336 . S
N4 N5 1.354 . S
N5 C1 1.336 . S
N5 N4 1.354 . S
N5 Zn9 2.020 . S
C6 O7 1.244 . S
C6 O30 1.257 . S
O7 C6 1.244 . S
O8 Zn0 2.019 . S
O8 C28 1.257 1_556 S
Zn9 N5 2.020 . S
Zn9 O16 1.975 . S
Zn9 N25 2.119 . S
Zn9 O30 2.019 . S
N10 Zn0 2.119 . S
N10 C12 1.334 . S
N10 C13 1.328 . S
C11 C12 1.391 . S
C11 N14 1.329 . S
C11 H32 0.930 . S
C12 N10 1.334 . S
C12 C11 1.391 . S
C12 H19 0.930 . S
C13 N10 1.328 . S
C13 C15 1.392 . S
C13 H20 0.930 . S
N14 C11 1.329 . S
N14 C15 1.331 . S
C15 C13 1.392 . S
C15 N14 1.331 . S
O16 Zn9 1.975 . S
O16 C17 1.252 . S
C17 O16 1.252 . S
C17 O18 1.252 . S
O18 Zn0 1.975 1_554 S
O18 C17 1.252 . S
H19 C12 0.930 . S
H20 C13 0.930 . S
C21 C22 1.392 . S
C21 N25 1.328 . S
C21 H27 0.930 . S
C22 C21 1.392 . S
C22 N26 1.331 . S
C23 C24 1.391 . S
C23 N26 1.329 . S
C23 H33 0.930 . S
C24 C23 1.391 . S
C24 N25 1.334 . S
C24 H31 0.930 . S
N25 Zn9 2.119 . S
N25 C21 1.328 . S
N25 C24 1.334 . S
N26 C22 1.331 . S
N26 C23 1.329 . S
H27 C21 0.930 . S
C28 O8 1.257 1_554 S
C28 O29 1.244 . S
O29 C28 1.244 . S
O30 C6 1.257 . S
O30 Zn9 2.019 . S
H31 C24 0.930 . S
H32 C11 0.930 . S
H33 C23 0.930 . S
Zn34 N38 2.020 . S
Zn34 O42 2.019 . S
Zn34 N44 2.119 . S
Zn34 O52 1.975 . S
C35 N36 1.334 . S
C35 N39 1.336 . S
N36 C35 1.334 . S
N36 C37 1.334 . S
C37 N36 1.334 . S
C37 N38 1.336 . S
N38 Zn34 2.020 . S
N38 C37 1.336 . S
N38 N39 1.354 . S
N39 C35 1.336 . S
N39 N38 1.354 . S
N39 Zn43 2.020 . S
C40 O41 1.244 . S
C40 O64 1.257 . S
O41 C40 1.244 . S
O42 Zn34 2.019 . S
O42 C62 1.257 . S
Zn43 N39 2.020 . S
Zn43 O50 1.975 . S
Zn43 N59 2.119 . S
Zn43 O64 2.019 . S
N44 Zn34 2.119 . S
N44 C46 1.334 . S
N44 C47 1.328 . S
C45 C46 1.391 . S
C45 N48 1.329 . S
C45 H66 0.930 . S
C46 N44 1.334 . S
C46 C45 1.391 . S
C46 H53 0.930 . S
C47 N44 1.328 . S
C47 C49 1.392 . S
C47 H54 0.930 . S
N48 C45 1.329 . S
N48 C49 1.331 . S
C49 C47 1.392 . S
C49 N48 1.331 . S
O50 Zn43 1.975 . S
O50 C51 1.252 . S
C51 O50 1.252 . S
C51 O52 1.252 . S
O52 Zn34 1.975 . S
O52 C51 1.252 . S
H53 C46 0.930 . S
H54 C47 0.930 . S
C55 C56 1.392 . S
C55 N59 1.328 1_556 S
C55 H61 0.930 . S
C56 C55 1.392 . S
C56 N60 1.331 . S
C57 C58 1.391 1_556 S
C57 N60 1.329 . S
C57 H67 0.930 . S
C58 C57 1.391 1_554 S
C58 N59 1.334 . S
C58 H65 0.930 . S
N59 Zn43 2.119 . S
N59 C55 1.328 1_554 S
N59 C58 1.334 . S
N60 C56 1.331 . S
N60 C57 1.329 . S
H61 C55 0.930 . S
C62 O42 1.257 . S
C62 O63 1.244 . S
O63 C62 1.244 . S
O64 C40 1.257 . S
O64 Zn43 2.019 . S
H65 C58 0.930 . S
H66 C45 0.930 . S
H67 C57 0.930 . S
Zn68 N72 2.020 . S
Zn68 O76 2.019 . S
Zn68 N78 2.119 . S
Zn68 O86 1.975 . S
C69 N70 1.334 . S
C69 N73 1.336 . S
N70 C69 1.334 . S
N70 C71 1.334 . S
C71 N70 1.334 . S
C71 N72 1.336 . S
N72 Zn68 2.020 . S
N72 C71 1.336 . S
N72 N73 1.354 . S
N73 C69 1.336 . S
N73 N72 1.354 . S
N73 Zn77 2.020 1_554 S
C74 O75 1.244 . S
C74 O98 1.257 1_554 S
O75 C74 1.244 . S
O76 Zn68 2.019 . S
O76 C96 1.257 . S
Zn77 N73 2.020 1_556 S
Zn77 O84 1.975 1_556 S
Zn77 N93 2.119 . S
Zn77 O98 2.019 . S
N78 Zn68 2.119 . S
N78 C80 1.334 . S
N78 C81 1.328 . S
C79 C80 1.391 . S
C79 N82 1.329 . S
C79 H100 0.930 . S
C80 N78 1.334 . S
C80 C79 1.391 . S
C80 H87 0.930 . S
C81 N78 1.328 . S
C81 C83 1.392 . S
C81 H88 0.930 . S
N82 C79 1.329 . S
N82 C83 1.331 . S
C83 C81 1.392 . S
C83 N82 1.331 . S
O84 Zn77 1.975 1_554 S
O84 C85 1.252 . S
C85 O84 1.252 . S
C85 O86 1.252 . S
O86 Zn68 1.975 . S
O86 C85 1.252 . S
H87 C80 0.930 . S
H88 C81 0.930 . S
C89 C90 1.392 . S
C89 N93 1.328 . S
C89 H95 0.930 . S
C90 C89 1.392 . S
C90 N94 1.331 . S
C91 C92 1.391 . S
C91 N94 1.329 . S
C91 H101 0.930 . S
C92 C91 1.391 . S
C92 N93 1.334 . S
C92 H99 0.930 . S
N93 Zn77 2.119 . S
N93 C89 1.328 . S
N93 C92 1.334 . S
N94 C90 1.331 . S
N94 C91 1.329 . S
H95 C89 0.930 . S
C96 O76 1.257 . S
C96 O97 1.244 . S
O97 C96 1.244 . S
O98 C74 1.257 1_556 S
O98 Zn77 2.019 . S
H99 C92 0.930 . S
H100 C79 0.930 . S
H101 C91 0.930 . S
Zn102 N106 2.020 . S
Zn102 O110 2.019 . S
Zn102 N112 2.119 . S
Zn102 O120 1.975 . S
C103 N104 1.334 . S
C103 N107 1.336 . S
N104 C103 1.334 . S
N104 C105 1.334 . S
C105 N104 1.334 . S
C105 N106 1.336 . S
N106 Zn102 2.020 . S
N106 C105 1.336 . S
N106 N107 1.354 . S
N107 C103 1.336 . S
N107 N106 1.354 . S
N107 Zn111 2.020 . S
C108 O109 1.244 . S
C108 O132 1.257 . S
O109 C108 1.244 . S
O110 Zn102 2.019 . S
O110 C130 1.257 . S
Zn111 N107 2.020 . S
Zn111 O118 1.975 . S
Zn111 N127 2.119 . S
Zn111 O132 2.019 . S
N112 Zn102 2.119 . S
N112 C114 1.334 . S
N112 C115 1.328 . S
C113 C114 1.391 . S
C113 N116 1.329 . S
C113 H134 0.930 . S
C114 N112 1.334 . S
C114 C113 1.391 . S
C114 H121 0.930 . S
C115 N112 1.328 . S
C115 C117 1.392 . S
C115 H122 0.930 . S
N116 C113 1.329 . S
N116 C117 1.331 . S
C117 C115 1.392 . S
C117 N116 1.331 . S
O118 Zn111 1.975 . S
O118 C119 1.252 . S
C119 O118 1.252 . S
C119 O120 1.252 . S
O120 Zn102 1.975 . S
O120 C119 1.252 . S
H121 C114 0.930 . S
H122 C115 0.930 . S
C123 C124 1.392 . S
C123 N127 1.328 1_556 S
C123 H129 0.930 . S
C124 C123 1.392 . S
C124 N128 1.331 . S
C125 C126 1.391 1_556 S
C125 N128 1.329 . S
C125 H135 0.930 . S
C126 C125 1.391 1_554 S
C126 N127 1.334 . S
C126 H133 0.930 . S
N127 Zn111 2.119 . S
N127 C123 1.328 1_554 S
N127 C126 1.334 . S
N128 C124 1.331 . S
N128 C125 1.329 . S
H129 C123 0.930 . S
C130 O110 1.257 . S
C130 O131 1.244 . S
O131 C130 1.244 . S
O132 C108 1.257 . S
O132 Zn111 2.019 . S
H133 C126 0.930 . S
H134 C113 0.930 . S
H135 C125 0.930 . S
Zn136 N140 2.020 . S
Zn136 O144 2.019 . S
Zn136 N146 2.119 . S
Zn136 O154 1.975 . S
C137 N138 1.334 . S
C137 N141 1.336 . S
N138 C137 1.334 . S
N138 C139 1.334 . S
C139 N138 1.334 . S
C139 N140 1.336 . S
N140 Zn136 2.020 . S
N140 C139 1.336 . S
N140 N141 1.354 . S
N141 C137 1.336 . S
N141 N140 1.354 . S
N141 Zn145 2.020 1_554 S
C142 O143 1.244 . S
C142 O166 1.257 1_554 S
O143 C142 1.244 . S
O144 Zn136 2.019 . S
O144 C164 1.257 . S
Zn145 N141 2.020 1_556 S
Zn145 O152 1.975 1_556 S
Zn145 N161 2.119 . S
Zn145 O166 2.019 . S
N146 Zn136 2.119 . S
N146 C148 1.334 . S
N146 C149 1.328 . S
C147 C148 1.391 . S
C147 N150 1.329 . S
C147 H168 0.930 . S
C148 N146 1.334 . S
C148 C147 1.391 . S
C148 H155 0.930 . S
C149 N146 1.328 . S
C149 C151 1.392 . S
C149 H156 0.930 . S
N150 C147 1.329 . S
N150 C151 1.331 . S
C151 C149 1.392 . S
C151 N150 1.331 . S
O152 Zn145 1.975 1_554 S
O152 C153 1.252 . S
C153 O152 1.252 . S
C153 O154 1.252 . S
O154 Zn136 1.975 . S
O154 C153 1.252 . S
H155 C148 0.930 . S
H156 C149 0.930 . S
C157 C158 1.392 . S
C157 N161 1.328 . S
C157 H163 0.930 . S
C158 C157 1.392 . S
C158 N162 1.331 . S
C159 C160 1.391 . S
C159 N162 1.329 . S
C159 H169 0.930 . S
C160 C159 1.391 . S
C160 N161 1.334 . S
C160 H167 0.930 . S
N161 Zn145 2.119 . S
N161 C157 1.328 . S
N161 C160 1.334 . S
N162 C158 1.331 . S
N162 C159 1.329 . S
H163 C157 0.930 . S
C164 O144 1.257 . S
C164 O165 1.244 . S
O165 C164 1.244 . S
O166 C142 1.257 1_556 S
O166 Zn145 2.019 . S
H167 C160 0.930 . S
H168 C147 0.930 . S
H169 C159 0.930 . S
Zn170 N174 2.020 . S
Zn170 O178 2.019 . S
Zn170 N180 2.119 . S
Zn170 O188 1.975 . S
C171 N172 1.334 . S
C171 N175 1.336 . S
N172 C171 1.334 . S
N172 C173 1.334 . S
C173 N172 1.334 . S
C173 N174 1.336 . S
N174 Zn170 2.020 . S
N174 C173 1.336 . S
N174 N175 1.354 . S
N175 C171 1.336 . S
N175 N174 1.354 . S
N175 Zn179 2.020 . S
C176 O177 1.244 . S
C176 O200 1.257 . S
O177 C176 1.244 . S
O178 Zn170 2.019 . S
O178 C198 1.257 . S
Zn179 N175 2.020 . S
Zn179 O186 1.975 . S
Zn179 N195 2.119 . S
Zn179 O200 2.019 . S
N180 Zn170 2.119 . S
N180 C182 1.334 . S
N180 C183 1.328 1_554 S
C181 C182 1.391 1_556 S
C181 N184 1.329 . S
C181 H202 0.930 . S
C182 N180 1.334 . S
C182 C181 1.391 1_554 S
C182 H189 0.930 . S
C183 N180 1.328 1_556 S
C183 C185 1.392 . S
C183 H190 0.930 . S
N184 C181 1.329 . S
N184 C185 1.331 . S
C185 C183 1.392 . S
C185 N184 1.331 . S
O186 Zn179 1.975 . S
O186 C187 1.252 . S
C187 O186 1.252 . S
C187 O188 1.252 . S
O188 Zn170 1.975 . S
O188 C187 1.252 . S
H189 C182 0.930 . S
H190 C183 0.930 . S
C191 C192 1.392 . S
C191 N195 1.328 . S
C191 H197 0.930 . S
C192 C191 1.392 . S
C192 N196 1.331 . S
C193 C194 1.391 . S
C193 N196 1.329 . S
C193 H203 0.930 . S
C194 C193 1.391 . S
C194 N195 1.334 . S
C194 H201 0.930 . S
N195 Zn179 2.119 . S
N195 C191 1.328 . S
N195 C194 1.334 . S
N196 C192 1.331 . S
N196 C193 1.329 . S
H197 C191 0.930 . S
C198 O178 1.257 . S
C198 O199 1.244 . S
O199 C198 1.244 . S
O200 C176 1.257 . S
O200 Zn179 2.019 . S
H201 C194 0.930 . S
H202 C181 0.930 . S
H203 C193 0.930 . S
H204 C216 0.930 . S
H205 C218 0.930 . S
H206 C219 0.930 . S
H207 C223 0.959 . S
H208 C223 0.959 . S
H209 C223 0.961 . S
H210 C224 0.960 . S
H211 C224 0.961 . S
H212 C224 0.959 . S
H213 C227 0.929 . S
H214 C228 0.931 1_556 S
H215 C230 0.930 . S
C216 H204 0.930 . S
C216 C217 1.399 . S
C216 C221 1.399 . S
C217 C216 1.399 . S
C217 C218 1.376 . S
C218 H205 0.930 . S
C218 C217 1.376 . S
C218 C219 1.388 . S
C219 H206 0.930 . S
C219 C218 1.388 . S
C219 C220 1.390 . S
C220 C219 1.390 . S
C220 C221 1.394 . S
C220 C226 1.465 . S
C221 C216 1.399 . S
C221 C220 1.394 . S
C221 C222 1.516 . S
C222 C221 1.516 . S
C222 C223 1.502 . S
C222 C224 1.561 . S
C222 C225 1.526 . S
C223 H207 0.959 . S
C223 H208 0.959 . S
C223 H209 0.961 . S
C223 C222 1.502 . S
C224 H210 0.960 . S
C224 H211 0.961 . S
C224 H212 0.959 . S
C224 C222 1.561 . S
C225 C222 1.526 . S
C225 C226 1.396 . S
C225 C230 1.390 . S
C226 C220 1.465 . S
C226 C225 1.396 . S
C226 C227 1.399 . S
C227 H213 0.929 . S
C227 C226 1.399 . S
C227 C228 1.385 . S
C228 H214 0.931 1_554 S
C228 C227 1.385 . S
C228 C229 1.389 . S
C229 C228 1.389 . S
C229 C230 1.387 . S
C230 H215 0.930 . S
C230 C225 1.390 . S
C230 C229 1.387 . S
H231 C243 0.930 . S
H232 C245 0.930 . S
H233 C246 0.930 . S
H234 C250 0.959 . S
H235 C250 0.959 . S
H236 C250 0.961 . S
H237 C251 0.960 . S
H238 C251 0.961 . S
H239 C251 0.959 . S
H240 C254 0.929 . S
H241 C255 0.931 . S
H242 C257 0.930 . S
C243 H231 0.930 . S
C243 C244 1.399 . S
C243 C248 1.399 1_455 S
C244 C243 1.399 . S
C244 C245 1.376 . S
C245 H232 0.930 . S
C245 C244 1.376 . S
C245 C246 1.388 1_455 S
C246 H233 0.930 . S
C246 C245 1.388 1_655 S
C246 C247 1.390 . S
C247 C246 1.390 . S
C247 C248 1.394 . S
C247 C253 1.465 . S
C248 C243 1.399 1_655 S
C248 C247 1.394 . S
C248 C249 1.516 . S
C249 C248 1.516 . S
C249 C250 1.502 . S
C249 C251 1.561 . S
C249 C252 1.526 . S
C250 H234 0.959 . S
C250 H235 0.959 . S
C250 H236 0.961 . S
C250 C249 1.502 . S
C251 H237 0.960 . S
C251 H238 0.961 . S
C251 H239 0.959 . S
C251 C249 1.561 . S
C252 C249 1.526 . S
C252 C253 1.396 . S
C252 C257 1.390 . S
C253 C247 1.465 . S
C253 C252 1.396 . S
C253 C254 1.399 . S
C254 H240 0.929 . S
C254 C253 1.399 . S
C254 C255 1.385 . S
C255 H241 0.931 . S
C255 C254 1.385 . S
C255 C256 1.389 . S
C256 C255 1.389 . S
C256 C257 1.387 . S
C257 H242 0.930 . S
C257 C252 1.390 . S
C257 C256 1.387 . S
H258 C270 0.930 . S
H259 C272 0.930 . S
H260 C273 0.930 . S
H261 C277 0.959 . S
H262 C277 0.959 1_545 S
H263 C277 0.961 . S
H264 C278 0.960 . S
H265 C278 0.961 . S
H266 C278 0.959 . S
H267 C281 0.929 . S
H268 C282 0.931 . S
H269 C284 0.930 . S
C270 H258 0.930 . S
C270 C271 1.399 . S
C270 C275 1.399 . S
C271 C270 1.399 . S
C271 C272 1.376 . S
C272 H259 0.930 . S
C272 C271 1.376 . S
C272 C273 1.388 . S
C273 H260 0.930 . S
C273 C272 1.388 . S
C273 C274 1.390 . S
C274 C273 1.390 . S
C274 C275 1.394 . S
C274 C280 1.465 . S
C275 C270 1.399 . S
C275 C274 1.394 . S
C275 C276 1.516 . S
C276 C275 1.516 . S
C276 C277 1.502 . S
C276 C278 1.561 1_554 S
C276 C279 1.526 . S
C277 H261 0.959 . S
C277 H262 0.959 1_565 S
C277 H263 0.961 . S
C277 C276 1.502 . S
C278 H264 0.960 . S
C278 H265 0.961 . S
C278 H266 0.959 . S
C278 C276 1.561 1_556 S
C279 C276 1.526 . S
C279 C280 1.396 . S
C279 C284 1.390 1_565 S
C280 C274 1.465 . S
C280 C279 1.396 . S
C280 C281 1.399 . S
C281 H267 0.929 . S
C281 C280 1.399 . S
C281 C282 1.385 1_565 S
C282 H268 0.931 . S
C282 C281 1.385 1_545 S
C282 C283 1.389 . S
C283 C282 1.389 . S
C283 C284 1.387 . S
C284 H269 0.930 . S
C284 C279 1.390 1_545 S
C284 C283 1.387 . S
H285 C297 0.930 . S
H286 C299 0.930 . S
H287 C300 0.930 . S
H288 C304 0.959 . S
H289 C304 0.959 . S
H290 C304 0.961 . S
H291 C305 0.960 . S
H292 C305 0.961 . S
H293 C305 0.959 . S
H294 C308 0.929 . S
H295 C309 0.931 . S
H296 C311 0.930 . S
C297 H285 0.930 . S
C297 C298 1.399 . S
C297 C302 1.399 . S
C298 C297 1.399 . S
C298 C299 1.376 . S
C299 H286 0.930 . S
C299 C298 1.376 . S
C299 C300 1.388 . S
C300 H287 0.930 . S
C300 C299 1.388 . S
C300 C301 1.390 . S
C301 C300 1.390 . S
C301 C302 1.394 . S
C301 C307 1.465 . S
C302 C297 1.399 . S
C302 C301 1.394 . S
C302 C303 1.516 . S
C303 C302 1.516 . S
C303 C304 1.502 . S
C303 C305 1.561 . S
C303 C306 1.526 . S
C304 H288 0.959 . S
C304 H289 0.959 . S
C304 H290 0.961 . S
C304 C303 1.502 . S
C305 H291 0.960 . S
C305 H292 0.961 . S
C305 H293 0.959 . S
C305 C303 1.561 . S
C306 C303 1.526 . S
C306 C307 1.396 . S
C306 C311 1.390 . S
C307 C301 1.465 . S
C307 C306 1.396 . S
C307 C308 1.399 . S
C308 H294 0.929 . S
C308 C307 1.399 . S
C308 C309 1.385 . S
C309 H295 0.931 . S
C309 C308 1.385 . S
C309 C310 1.389 . S
C310 C309 1.389 . S
C310 C311 1.387 . S
C311 H296 0.930 . S
C311 C306 1.390 . S
C311 C310 1.387 . S
H312 C324 0.930 1_556 S
H313 C326 0.930 . S
H314 C327 0.930 . S
H315 C331 0.959 . S
H316 C331 0.959 . S
H317 C331 0.961 . S
H318 C332 0.960 1_556 S
H319 C332 0.961 . S
H320 C332 0.959 . S
H321 C335 0.929 . S
H322 C336 0.931 . S
H323 C338 0.930 . S
C324 H312 0.930 1_554 S
C324 C325 1.399 . S
C324 C329 1.399 . S
C325 C324 1.399 . S
C325 C326 1.376 . S
C326 H313 0.930 . S
C326 C325 1.376 . S
C326 C327 1.388 . S
C327 H314 0.930 . S
C327 C326 1.388 . S
C327 C328 1.390 . S
C328 C327 1.390 . S
C328 C329 1.394 . S
C328 C334 1.465 . S
C329 C324 1.399 . S
C329 C328 1.394 . S
C329 C330 1.516 . S
C330 C329 1.516 . S
C330 C331 1.502 1_554 S
C330 C332 1.561 . S
C330 C333 1.526 . S
C331 H315 0.959 . S
C331 H316 0.959 . S
C331 H317 0.961 . S
C331 C330 1.502 1_556 S
C332 H318 0.960 1_554 S
C332 H319 0.961 . S
C332 H320 0.959 . S
C332 C330 1.561 . S
C333 C330 1.526 . S
C333 C334 1.396 . S
C333 C338 1.390 1_455 S
C334 C328 1.465 . S
C334 C333 1.396 . S
C334 C335 1.399 . S
C335 H321 0.929 . S
C335 C334 1.399 . S
C335 C336 1.385 1_455 S
C336 H322 0.931 . S
C336 C335 1.385 1_655 S
C336 C337 1.389 . S
C337 C336 1.389 . S
C337 C338 1.387 . S
C338 H323 0.930 . S
C338 C333 1.390 1_655 S
C338 C337 1.387 . S
H339 C351 0.924 1_565 S
H340 C353 0.930 . S
H341 C354 0.930 . S
H342 C358 0.959 . S
H343 C358 0.959 . S
H344 C358 0.961 . S
H345 C359 0.960 . S
H346 C359 0.961 . S
H347 C359 0.959 . S
H348 C362 0.929 . S
H349 C363 0.931 . S
H350 C365 0.930 . S
C351 H339 0.924 1_545 S
C351 C352 1.394 1_545 S
C351 C356 1.410 . S
C352 C351 1.394 1_565 S
C352 C353 1.376 . S
C353 H340 0.930 . S
C353 C352 1.376 . S
C353 C354 1.388 1_565 S
C354 H341 0.930 . S
C354 C353 1.388 1_545 S
C354 C355 1.390 . S
C355 C354 1.390 . S
C355 C356 1.394 . S
C355 C361 1.465 . S
C356 C351 1.410 . S
C356 C355 1.394 . S
C356 C357 1.516 . S
C357 C356 1.516 . S
C357 C358 1.502 . S
C357 C359 1.561 1_554 S
C357 C360 1.526 . S
C358 H342 0.959 . S
C358 H343 0.959 . S
C358 H344 0.961 . S
C358 C357 1.502 . S
C359 H345 0.960 . S
C359 H346 0.961 . S
C359 H347 0.959 . S
C359 C357 1.561 1_556 S
C360 C357 1.526 . S
C360 C361 1.396 . S
C360 C365 1.390 . S
C361 C355 1.465 . S
C361 C360 1.396 . S
C361 C362 1.399 . S
C362 H348 0.929 . S
C362 C361 1.399 . S
C362 C363 1.385 . S
C363 H349 0.931 . S
C363 C362 1.385 . S
C363 C364 1.389 . S
C364 C363 1.389 . S
C364 C365 1.387 . S
C365 H350 0.930 . S
C365 C360 1.390 . S
C365 C364 1.387 . S
H366 C378 0.930 . S
H367 C380 0.930 . S
H368 C381 0.930 . S
H369 C385 0.959 . S
H370 C385 0.959 . S
H371 C385 0.961 . S
H372 C386 0.960 . S
H373 C386 0.961 . S
H374 C386 0.959 . S
H375 C389 0.929 . S
H376 C390 0.931 . S
H377 C392 0.930 . S
C378 H366 0.930 . S
C378 C379 1.399 . S
C378 C383 1.399 . S
C379 C378 1.399 . S
C379 C380 1.376 . S
C380 H367 0.930 . S
C380 C379 1.376 . S
C380 C381 1.388 . S
C381 H368 0.930 . S
C381 C380 1.388 . S
C381 C382 1.390 . S
C382 C381 1.390 . S
C382 C383 1.394 . S
C382 C388 1.465 . S
C383 C378 1.399 . S
C383 C382 1.394 . S
C383 C384 1.516 . S
C384 C383 1.516 . S
C384 C385 1.502 . S
C384 C386 1.561 . S
C384 C387 1.526 . S
C385 H369 0.959 . S
C385 H370 0.959 . S
C385 H371 0.961 . S
C385 C384 1.502 . S
C386 H372 0.960 . S
C386 H373 0.961 . S
C386 H374 0.959 . S
C386 C384 1.561 . S
C387 C384 1.526 . S
C387 C388 1.396 . S
C387 C392 1.390 . S
C388 C382 1.465 . S
C388 C387 1.396 . S
C388 C389 1.399 . S
C389 H375 0.929 . S
C389 C388 1.399 . S
C389 C390 1.385 . S
C390 H376 0.931 . S
C390 C389 1.385 . S
C390 C391 1.389 . S
C391 C390 1.389 . S
C391 C392 1.387 . S
C392 H377 0.930 . S
C392 C387 1.390 . S
C392 C391 1.387 . S
H393 C405 0.930 . S
H394 C407 0.930 . S
H395 C408 0.930 . S
H396 C412 0.959 . S
H397 C412 0.959 . S
H398 C412 0.961 . S
H399 C413 0.960 . S
H400 C413 0.961 . S
H401 C413 0.959 . S
H402 C416 0.929 . S
H403 C417 0.931 . S
H404 C419 0.930 . S
C405 H393 0.930 . S
C405 C406 1.399 . S
C405 C410 1.399 . S
C406 C405 1.399 . S
C406 C407 1.376 . S
C407 H394 0.930 . S
C407 C406 1.376 . S
C407 C408 1.388 . S
C408 H395 0.930 . S
C408 C407 1.388 . S
C408 C409 1.390 . S
C409 C408 1.390 . S
C409 C410 1.394 . S
C409 C415 1.465 . S
C410 C405 1.399 . S
C410 C409 1.394 . S
C410 C411 1.516 . S
C411 C410 1.516 . S
C411 C412 1.502 . S
C411 C413 1.561 . S
C411 C414 1.526 . S
C412 H396 0.959 . S
C412 H397 0.959 . S
C412 H398 0.961 . S
C412 C411 1.502 . S
C413 H399 0.960 . S
C413 H400 0.961 . S
C413 H401 0.959 . S
C413 C411 1.561 . S
C414 C411 1.526 . S
C414 C415 1.396 . S
C414 C419 1.390 . S
C415 C409 1.465 . S
C415 C414 1.396 . S
C415 C416 1.399 . S
C416 H402 0.929 . S
C416 C415 1.399 . S
C416 C417 1.385 . S
C417 H403 0.931 . S
C417 C416 1.385 . S
C417 C418 1.389 . S
C418 C417 1.389 . S
C418 C419 1.387 . S
C419 H404 0.930 . S
C419 C414 1.390 . S
C419 C418 1.387 . S
H420 C432 0.930 . S
H421 C434 0.930 . S
H422 C435 0.930 . S
H423 C439 0.959 . S
H424 C439 0.959 . S
H425 C439 0.961 . S
H426 C440 0.960 . S
H427 C440 0.961 . S
H428 C440 0.959 . S
H429 C443 0.929 . S
H430 C444 0.931 . S
H431 C446 0.930 . S
C432 H420 0.930 . S
C432 C433 1.399 . S
C432 C437 1.399 . S
C433 C432 1.399 . S
C433 C434 1.376 . S
C434 H421 0.930 . S
C434 C433 1.376 . S
C434 C435 1.388 . S
C435 H422 0.930 . S
C435 C434 1.388 . S
C435 C436 1.390 . S
C436 C435 1.390 . S
C436 C437 1.394 . S
C436 C442 1.465 . S
C437 C432 1.399 . S
C437 C436 1.394 . S
C437 C438 1.516 . S
C438 C437 1.516 . S
C438 C439 1.502 . S
C438 C440 1.561 . S
C438 C441 1.526 . S
C439 H423 0.959 . S
C439 H424 0.959 . S
C439 H425 0.961 . S
C439 C438 1.502 . S
C440 H426 0.960 . S
C440 H427 0.961 . S
C440 H428 0.959 . S
C440 C438 1.561 . S
C441 C438 1.526 . S
C441 C442 1.396 . S
C441 C446 1.390 . S
C442 C436 1.465 . S
C442 C441 1.396 . S
C442 C443 1.399 . S
C443 H429 0.929 . S
C443 C442 1.399 . S
C443 C444 1.385 . S
C444 H430 0.931 . S
C444 C443 1.385 . S
C444 C445 1.389 . S
C445 C444 1.389 . S
C445 C446 1.387 . S
C446 H431 0.930 . S
C446 C441 1.390 . S
C446 C445 1.387 . S
H447 C459 0.930 . S
H448 C461 0.930 . S
H449 C462 0.930 . S
H450 C466 0.959 . S
H451 C466 0.959 . S
H452 C466 0.961 . S
H453 C467 0.960 . S
H454 C467 0.961 . S
H455 C467 0.959 . S
H456 C470 0.929 . S
H457 C471 0.931 . S
H458 C473 0.930 . S
C459 H447 0.930 . S
C459 C460 1.399 . S
C459 C464 1.399 . S
C460 C459 1.399 . S
C460 C461 1.376 . S
C461 H448 0.930 . S
C461 C460 1.376 . S
C461 C462 1.388 . S
C462 H449 0.930 . S
C462 C461 1.388 . S
C462 C463 1.390 . S
C463 C462 1.390 . S
C463 C464 1.394 . S
C463 C469 1.465 . S
C464 C459 1.399 . S
C464 C463 1.394 . S
C464 C465 1.516 . S
C465 C464 1.516 . S
C465 C466 1.502 . S
C465 C467 1.561 . S
C465 C468 1.526 . S
C466 H450 0.959 . S
C466 H451 0.959 . S
C466 H452 0.961 . S
C466 C465 1.502 . S
C467 H453 0.960 . S
C467 H454 0.961 . S
C467 H455 0.959 . S
C467 C465 1.561 . S
C468 C465 1.526 . S
C468 C469 1.396 . S
C468 C473 1.390 . S
C469 C463 1.465 . S
C469 C468 1.396 . S
C469 C470 1.399 . S
C470 H456 0.929 . S
C470 C469 1.399 . S
C470 C471 1.385 . S
C471 H457 0.931 . S
C471 C470 1.385 . S
C471 C472 1.389 . S
C472 C471 1.389 . S
C472 C473 1.387 . S
C473 H458 0.930 . S
C473 C468 1.390 . S
C473 C472 1.387 . S
H474 C486 0.930 . S
H475 C488 0.930 . S
H476 C489 0.930 . S
H477 C493 0.959 . S
H478 C493 0.959 . S
H479 C493 0.961 . S
H480 C494 0.960 . S
H481 C494 0.961 . S
H482 C494 0.959 . S
H483 C497 0.929 . S
H484 C498 0.931 . S
H485 C500 0.930 . S
C486 H474 0.930 . S
C486 C487 1.399 . S
C486 C491 1.399 . S
C487 C486 1.399 . S
C487 C488 1.376 . S
C488 H475 0.930 . S
C488 C487 1.376 . S
C488 C489 1.388 . S
C489 H476 0.930 . S
C489 C488 1.388 . S
C489 C490 1.390 . S
C490 C489 1.390 . S
C490 C491 1.394 . S
C490 C496 1.465 . S
C491 C486 1.399 . S
C491 C490 1.394 . S
C491 C492 1.516 . S
C492 C491 1.516 . S
C492 C493 1.502 . S
C492 C494 1.561 . S
C492 C495 1.526 . S
C493 H477 0.959 . S
C493 H478 0.959 . S
C493 H479 0.961 . S
C493 C492 1.502 . S
C494 H480 0.960 . S
C494 H481 0.961 . S
C494 H482 0.959 . S
C494 C492 1.561 . S
C495 C492 1.526 . S
C495 C496 1.396 . S
C495 C500 1.390 . S
C496 C490 1.465 . S
C496 C495 1.396 . S
C496 C497 1.399 . S
C497 H483 0.929 . S
C497 C496 1.399 . S
C497 C498 1.385 . S
C498 H484 0.931 . S
C498 C497 1.385 . S
C498 C499 1.389 . S
C499 C498 1.389 . S
C499 C500 1.387 . S
C500 H485 0.930 . S
C500 C495 1.390 . S
C500 C499 1.387 . S
H501 C513 0.930 . S
H502 C515 0.930 . S
H503 C516 0.930 . S
H504 C520 0.959 . S
H505 C520 0.959 . S
H506 C520 0.961 . S
H507 C521 0.960 . S
H508 C521 0.961 . S
H509 C521 0.959 . S
H510 C524 0.929 . S
H511 C525 0.931 . S
H512 C527 0.930 . S
C513 H501 0.930 . S
C513 C514 1.399 . S
C513 C518 1.399 . S
C514 C513 1.399 . S
C514 C515 1.376 . S
C515 H502 0.930 . S
C515 C514 1.376 . S
C515 C516 1.388 . S
C516 H503 0.930 . S
C516 C515 1.388 . S
C516 C517 1.390 . S
C517 C516 1.390 . S
C517 C518 1.394 . S
C517 C523 1.465 . S
C518 C513 1.399 . S
C518 C517 1.394 . S
C518 C519 1.516 . S
C519 C518 1.516 . S
C519 C520 1.502 . S
C519 C521 1.561 . S
C519 C522 1.526 . S
C520 H504 0.959 . S
C520 H505 0.959 . S
C520 H506 0.961 . S
C520 C519 1.502 . S
C521 H507 0.960 . S
C521 H508 0.961 . S
C521 H509 0.959 . S
C521 C519 1.561 . S
C522 C519 1.526 . S
C522 C523 1.396 . S
C522 C527 1.390 . S
C523 C517 1.465 . S
C523 C522 1.396 . S
C523 C524 1.399 . S
C524 H510 0.929 . S
C524 C523 1.399 . S
C524 C525 1.385 . S
C525 H511 0.931 . S
C525 C524 1.385 . S
C525 C526 1.389 . S
C526 C525 1.389 . S
C526 C527 1.387 . S
C527 H512 0.930 . S
C527 C522 1.390 . S
C527 C526 1.387 . S
H528 C540 0.930 . S
H529 C542 0.930 . S
H530 C543 0.930 . S
H531 C547 0.959 . S
H532 C547 0.959 . S
H533 C547 0.961 . S
H534 C548 0.960 . S
H535 C548 0.961 . S
H536 C548 0.959 . S
H537 C551 0.929 . S
H538 C552 0.931 . S
H539 C554 0.930 . S
C540 H528 0.930 . S
C540 C541 1.399 1_554 S
C540 C545 1.399 . S
C541 C540 1.399 1_556 S
C541 C542 1.376 . S
C542 H529 0.930 . S
C542 C541 1.376 . S
C542 C543 1.388 . S
C543 H530 0.930 . S
C543 C542 1.388 . S
C543 C544 1.390 . S
C544 C543 1.390 . S
C544 C545 1.394 1_556 S
C544 C550 1.465 . S
C545 C540 1.399 . S
C545 C544 1.394 1_554 S
C545 C546 1.516 . S
C546 C545 1.516 . S
C546 C547 1.502 . S
C546 C548 1.561 . S
C546 C549 1.526 . S
C547 H531 0.959 . S
C547 H532 0.959 . S
C547 H533 0.961 . S
C547 C546 1.502 . S
C548 H534 0.960 . S
C548 H535 0.961 . S
C548 H536 0.959 . S
C548 C546 1.561 . S
C549 C546 1.526 . S
C549 C550 1.396 1_554 S
C549 C554 1.390 . S
C550 C544 1.465 . S
C550 C549 1.396 1_556 S
C550 C551 1.399 . S
C551 H537 0.929 . S
C551 C550 1.399 . S
C551 C552 1.385 . S
C552 H538 0.931 . S
C552 C551 1.385 . S
C552 C553 1.389 . S
C553 C552 1.389 . S
C553 C554 1.387 1_556 S
C554 H539 0.930 . S
C554 C549 1.390 . S
C554 C553 1.387 1_554 S
H555 C567 0.930 . S
H556 C569 0.930 . S
H557 C570 0.930 . S
H558 C574 0.959 . S
H559 C574 0.959 . S
H560 C574 0.961 . S
H561 C575 0.960 . S
H562 C575 0.961 . S
H563 C575 0.959 . S
H564 C578 0.929 . S
H565 C579 0.931 . S
H566 C581 0.930 . S
C567 H555 0.930 . S
C567 C568 1.399 . S
C567 C572 1.399 . S
C568 C567 1.399 . S
C568 C569 1.376 . S
C569 H556 0.930 . S
C569 C568 1.376 . S
C569 C570 1.388 . S
C570 H557 0.930 . S
C570 C569 1.388 . S
C570 C571 1.390 . S
C571 C570 1.390 . S
C571 C572 1.394 . S
C571 C577 1.465 . S
C572 C567 1.399 . S
C572 C571 1.394 . S
C572 C573 1.516 . S
C573 C572 1.516 . S
C573 C574 1.502 . S
C573 C575 1.561 . S
C573 C576 1.526 . S
C574 H558 0.959 . S
C574 H559 0.959 . S
C574 H560 0.961 . S
C574 C573 1.502 . S
C575 H561 0.960 . S
C575 H562 0.961 . S
C575 H563 0.959 . S
C575 C573 1.561 . S
C576 C573 1.526 . S
C576 C577 1.396 . S
C576 C581 1.390 . S
C577 C571 1.465 . S
C577 C576 1.396 . S
C577 C578 1.399 . S
C578 H564 0.929 . S
C578 C577 1.399 . S
C578 C579 1.385 . S
C579 H565 0.931 . S
C579 C578 1.385 . S
C579 C580 1.389 . S
C580 C579 1.389 . S
C580 C581 1.387 . S
C581 H566 0.930 . S
C581 C576 1.390 . S
C581 C580 1.387 . S
H582 C594 0.930 . S
H583 C596 0.930 . S
H584 C597 0.930 . S
H585 C601 0.959 . S
H586 C601 0.959 . S
H587 C601 0.961 . S
H588 C602 0.960 . S
H589 C602 0.961 . S
H590 C602 0.959 . S
H591 C605 0.929 . S
H592 C606 0.931 . S
H593 C608 0.930 . S
C594 H582 0.930 . S
C594 C595 1.399 1_556 S
C594 C599 1.399 . S
C595 C594 1.399 1_554 S
C595 C596 1.376 . S
C596 H583 0.930 . S
C596 C595 1.376 . S
C596 C597 1.388 . S
C597 H584 0.930 . S
C597 C596 1.388 . S
C597 C598 1.390 . S
C598 C597 1.390 . S
C598 C599 1.394 1_554 S
C598 C604 1.465 . S
C599 C594 1.399 . S
C599 C598 1.394 1_556 S
C599 C600 1.516 . S
C600 C599 1.516 . S
C600 C601 1.502 . S
C600 C602 1.561 . S
C600 C603 1.526 . S
C601 H585 0.959 . S
C601 H586 0.959 . S
C601 H587 0.961 . S
C601 C600 1.502 . S
C602 H588 0.960 . S
C602 H589 0.961 . S
C602 H590 0.959 . S
C602 C600 1.561 . S
C603 C600 1.526 . S
C603 C604 1.396 1_556 S
C603 C608 1.390 . S
C604 C598 1.465 . S
C604 C603 1.396 1_554 S
C604 C605 1.399 . S
C605 H591 0.929 . S
C605 C604 1.399 . S
C605 C606 1.385 . S
C606 H592 0.931 . S
C606 C605 1.385 . S
C606 C607 1.389 . S
C607 C606 1.389 . S
C607 C608 1.387 1_554 S
C608 H593 0.930 . S
C608 C603 1.390 . S
C608 C607 1.387 1_556 S
H609 C621 0.930 . S
H610 C623 0.930 . S
H611 C624 0.930 . S
H612 C628 0.959 . S
H613 C628 0.959 . S
H614 C628 0.961 . S
H615 C629 0.960 . S
H616 C629 0.961 . S
H617 C629 0.959 . S
H618 C632 0.929 . S
H619 C633 0.931 . S
H620 C635 0.930 . S
C621 H609 0.930 . S
C621 C622 1.399 . S
C621 C626 1.399 . S
C622 C621 1.399 . S
C622 C623 1.376 . S
C623 H610 0.930 . S
C623 C622 1.376 . S
C623 C624 1.388 . S
C624 H611 0.930 . S
C624 C623 1.388 . S
C624 C625 1.390 . S
C625 C624 1.390 . S
C625 C626 1.394 . S
C625 C631 1.465 . S
C626 C621 1.399 . S
C626 C625 1.394 . S
C626 C627 1.516 . S
C627 C626 1.516 . S
C627 C628 1.502 . S
C627 C629 1.561 . S
C627 C630 1.526 . S
C628 H612 0.959 . S
C628 H613 0.959 . S
C628 H614 0.961 . S
C628 C627 1.502 . S
C629 H615 0.960 . S
C629 H616 0.961 . S
C629 H617 0.959 . S
C629 C627 1.561 . S
C630 C627 1.526 . S
C630 C631 1.396 . S
C630 C635 1.390 . S
C631 C625 1.465 . S
C631 C630 1.396 . S
C631 C632 1.399 . S
C632 H618 0.929 . S
C632 C631 1.399 . S
C632 C633 1.385 . S
C633 H619 0.931 . S
C633 C632 1.385 . S
C633 C634 1.389 . S
C634 C633 1.389 . S
C634 C635 1.387 . S
C635 H620 0.930 . S
C635 C630 1.390 . S
C635 C634 1.387 . S
H636 C648 0.930 . S
H637 C650 0.930 . S
H638 C651 0.930 . S
H639 C655 0.959 . S
H640 C655 0.959 . S
H641 C655 0.961 . S
H642 C656 0.960 . S
H643 C656 0.961 . S
H644 C656 0.959 . S
H645 C659 0.929 . S
H646 C660 0.931 . S
H647 C662 0.930 . S
C648 H636 0.930 . S
C648 C649 1.399 1_554 S
C648 C653 1.399 . S
C649 C648 1.399 1_556 S
C649 C650 1.376 . S
C650 H637 0.930 . S
C650 C649 1.376 . S
C650 C651 1.388 . S
C651 H638 0.930 . S
C651 C650 1.388 . S
C651 C652 1.390 . S
C652 C651 1.390 . S
C652 C653 1.394 1_556 S
C652 C658 1.465 . S
C653 C648 1.399 . S
C653 C652 1.394 1_554 S
C653 C654 1.516 . S
C654 C653 1.516 . S
C654 C655 1.502 . S
C654 C656 1.561 . S
C654 C657 1.526 . S
C655 H639 0.959 . S
C655 H640 0.959 . S
C655 H641 0.961 . S
C655 C654 1.502 . S
C656 H642 0.960 . S
C656 H643 0.961 . S
C656 H644 0.959 . S
C656 C654 1.561 . S
C657 C654 1.526 . S
C657 C658 1.396 1_554 S
C657 C662 1.390 . S
C658 C652 1.465 . S
C658 C657 1.396 1_556 S
C658 C659 1.399 . S
C659 H645 0.929 . S
C659 C658 1.399 . S
C659 C660 1.385 . S
C660 H646 0.931 . S
C660 C659 1.385 . S
C660 C661 1.389 . S
C661 C660 1.389 . S
C661 C662 1.387 1_556 S
C662 H647 0.930 . S
C662 C657 1.390 . S
C662 C661 1.387 1_554 S
H663 C675 0.930 . S
H664 C677 0.930 . S
H665 C678 0.930 . S
H666 C682 0.959 . S
H667 C682 0.959 . S
H668 C682 0.961 . S
H669 C683 0.960 . S
H670 C683 0.961 . S
H671 C683 0.959 . S
H672 C686 0.929 . S
H673 C687 0.931 . S
H674 C689 0.930 . S
C675 H663 0.930 . S
C675 C676 1.399 . S
C675 C680 1.399 . S
C676 C675 1.399 . S
C676 C677 1.376 . S
C677 H664 0.930 . S
C677 C676 1.376 . S
C677 C678 1.388 . S
C678 H665 0.930 . S
C678 C677 1.388 . S
C678 C679 1.390 . S
C679 C678 1.390 . S
C679 C680 1.394 . S
C679 C685 1.465 . S
C680 C675 1.399 . S
C680 C679 1.394 . S
C680 C681 1.516 . S
C681 C680 1.516 . S
C681 C682 1.502 . S
C681 C683 1.561 . S
C681 C684 1.526 . S
C682 H666 0.959 . S
C682 H667 0.959 . S
C682 H668 0.961 . S
C682 C681 1.502 . S
C683 H669 0.960 . S
C683 H670 0.961 . S
C683 H671 0.959 . S
C683 C681 1.561 . S
C684 C681 1.526 . S
C684 C685 1.396 . S
C684 C689 1.390 . S
C685 C679 1.465 . S
C685 C684 1.396 . S
C685 C686 1.399 . S
C686 H672 0.929 . S
C686 C685 1.399 . S
C686 C687 1.385 . S
C687 H673 0.931 . S
C687 C686 1.385 . S
C687 C688 1.389 . S
C688 C687 1.389 . S
C688 C689 1.387 . S
C689 H674 0.930 . S
C689 C684 1.390 . S
C689 C688 1.387 . S
H690 C702 0.930 . S
H691 C704 0.930 . S
H692 C705 0.930 . S
H693 C709 0.959 . S
H694 C709 0.959 . S
H695 C709 0.961 . S
H696 C710 0.960 1_655 S
H697 C710 0.961 . S
H698 C710 0.959 1_655 S
H699 C713 0.929 . S
H700 C714 0.942 . S
H701 C716 0.930 . S
C702 H690 0.930 . S
C702 C703 1.399 . S
C702 C707 1.399 1_655 S
C703 C702 1.399 . S
C703 C704 1.376 . S
C704 H691 0.930 . S
C704 C703 1.376 . S
C704 C705 1.388 . S
C705 H692 0.930 . S
C705 C704 1.388 . S
C705 C706 1.390 1_655 S
C706 C705 1.390 1_455 S
C706 C707 1.394 . S
C706 C712 1.465 . S
C707 C702 1.399 1_455 S
C707 C706 1.394 . S
C707 C708 1.516 . S
C708 C707 1.516 . S
C708 C709 1.502 . S
C708 C710 1.561 . S
C708 C711 1.526 . S
C709 H693 0.959 . S
C709 H694 0.959 . S
C709 H695 0.961 . S
C709 C708 1.502 . S
C710 H696 0.960 1_455 S
C710 H697 0.961 . S
C710 H698 0.959 1_455 S
C710 C708 1.561 . S
C711 C708 1.526 . S
C711 C712 1.396 . S
C711 C716 1.390 . S
C712 C706 1.465 . S
C712 C711 1.396 . S
C712 C713 1.399 . S
C713 H699 0.929 . S
C713 C712 1.399 . S
C713 C714 1.385 . S
C714 H700 0.942 . S
C714 C713 1.385 . S
C714 C715 1.389 . S
C715 C714 1.389 . S
C715 C716 1.387 . S
C716 H701 0.930 . S
C716 C711 1.390 . S
C716 C715 1.387 . S
H717 C729 0.930 . S
H718 C731 0.930 . S
H719 C732 0.930 . S
H720 C736 0.959 1_565 S
H721 C736 0.959 . S
H722 C736 0.961 . S
H723 C737 0.960 . S
H724 C737 0.961 . S
H725 C737 0.959 . S
H726 C740 0.929 . S
H727 C741 0.931 . S
H728 C743 0.930 . S
C729 H717 0.930 . S
C729 C730 1.399 . S
C729 C734 1.399 . S
C730 C729 1.399 . S
C730 C731 1.376 1_545 S
C731 H718 0.930 . S
C731 C730 1.376 1_565 S
C731 C732 1.388 . S
C732 H719 0.930 . S
C732 C731 1.388 . S
C732 C733 1.390 . S
C733 C732 1.390 . S
C733 C734 1.394 1_565 S
C733 C739 1.465 . S
C734 C729 1.399 . S
C734 C733 1.394 1_545 S
C734 C735 1.505 . S
C735 C734 1.505 . S
C735 C736 1.509 . S
C735 C737 1.580 . S
C735 C738 1.510 1_545 S
C736 H720 0.959 1_545 S
C736 H721 0.959 . S
C736 H722 0.961 . S
C736 C735 1.509 . S
C737 H723 0.960 . S
C737 H724 0.961 . S
C737 H725 0.959 . S
C737 C735 1.580 . S
C738 C735 1.510 1_565 S
C738 C739 1.396 . S
C738 C743 1.390 . S
C739 C733 1.465 . S
C739 C738 1.396 . S
C739 C740 1.399 . S
C740 H726 0.929 . S
C740 C739 1.399 . S
C740 C741 1.385 . S
C741 H727 0.931 . S
C741 C740 1.385 . S
C741 C742 1.389 . S
C742 C741 1.389 . S
C742 C743 1.387 . S
C743 H728 0.930 . S
C743 C738 1.390 . S
C743 C742 1.387 . S
H744 C756 0.930 . S
H745 C758 0.930 . S
H746 C759 0.930 . S
H747 C763 0.959 . S
H748 C763 0.959 . S
H749 C763 0.961 . S
H750 C764 0.960 . S
H751 C764 0.961 . S
H752 C764 0.959 . S
H753 C767 0.929 . S
H754 C768 0.931 . S
H755 C770 0.930 . S
C756 H744 0.930 . S
C756 C757 1.399 . S
C756 C761 1.399 . S
C757 C756 1.399 . S
C757 C758 1.376 . S
C758 H745 0.930 . S
C758 C757 1.376 . S
C758 C759 1.388 . S
C759 H746 0.930 . S
C759 C758 1.388 . S
C759 C760 1.390 . S
C760 C759 1.390 . S
C760 C761 1.394 . S
C760 C766 1.465 . S
C761 C756 1.399 . S
C761 C760 1.394 . S
C761 C762 1.516 . S
C762 C761 1.516 . S
C762 C763 1.502 . S
C762 C764 1.561 . S
C762 C765 1.526 . S
C763 H747 0.959 . S
C763 H748 0.959 . S
C763 H749 0.961 . S
C763 C762 1.502 . S
C764 H750 0.960 . S
C764 H751 0.961 . S
C764 H752 0.959 . S
C764 C762 1.561 . S
C765 C762 1.526 . S
C765 C766 1.396 . S
C765 C770 1.390 . S
C766 C760 1.465 . S
C766 C765 1.396 . S
C766 C767 1.399 . S
C767 H753 0.929 . S
C767 C766 1.399 . S
C767 C768 1.385 . S
C768 H754 0.931 . S
C768 C767 1.385 . S
C768 C769 1.389 . S
C769 C768 1.389 . S
C769 C770 1.387 . S
C770 H755 0.930 . S
C770 C765 1.390 . S
C770 C769 1.387 . S
C217 C187 1.472 . S
C229 C17 1.477 . S
C244 C6 1.129 . S
C256 C40 1.179 . S
C271 C85 1.400 . S
C283 C51 1.478 . S
C298 C108 1.200 . S
C310 C96 1.202 . S
C325 C153 1.416 . S
C337 C119 1.496 . S
C352 C164 1.200 . S
C364 C198 1.200 . S
C379 C15 1.651 . S
C391 C22 1.673 . S
C406 C49 1.751 . S
C418 C56 1.859 . S
C433 C90 1.704 . S
C445 C83 1.602 . S
C460 C124 1.852 . S
C472 C117 1.780 . S
C487 C151 1.679 . S
C499 C158 1.609 . S
C514 C192 1.854 . S
C526 C185 1.758 . S
C541 C142 1.422 1_556 S
C553 C3 1.296 1_556 S
C568 C173 1.829 . S
C580 C37 1.879 . S
C595 C28 1.397 . S
C607 C69 1.233 . S
C622 C105 1.930 . S
C634 C35 1.860 . S
C649 C74 1.422 1_556 S
C661 C137 1.280 1_556 S
C676 C103 1.922 . S
C688 C171 1.869 . S
C703 C130 1.405 . S
C715 C1 1.296 . S
C730 C62 1.411 . S
C742 C139 1.262 . S
C757 C176 1.414 . S
C769 C71 1.335 . S
