# Generated by pormake.
# Topology snp, (6)-cn, num edge types: 1
# Building blocks:
#     Node 0, Type 0, BuildingBlock: BETFEN_clean_sbu_0, # of connection points: 6
#     Node 1, Type 0, BuildingBlock: BETFEN_clean_sbu_0, # of connection points: 6
#     Node 2, Type 0, BuildingBlock: BETFEN_clean_sbu_0, # of connection points: 6
#     Node 3, Type 0, BuildingBlock: BETFEN_clean_sbu_0, # of connection points: 6
#     Edge 4, Type (0, 0), BuildingBlock: TEMPAE_clean_linker_10, # of connection points: 2
#     Edge 5, Type (0, 0), BuildingBlock: TEMPAE_clean_linker_10, # of connection points: 2
#     Edge 6, Type (0, 0), BuildingBlock: TEMPAE_clean_linker_10, # of connection points: 2
#     Edge 7, Type (0, 0), BuildingBlock: TEMPAE_clean_linker_10, # of connection points: 2
#     Edge 8, Type (0, 0), BuildingBlock: TEMPAE_clean_linker_10, # of connection points: 2
#     Edge 9, Type (0, 0), BuildingBlock: TEMPAE_clean_linker_10, # of connection points: 2
#     Edge 10, Type (0, 0), BuildingBlock: TEMPAE_clean_linker_10, # of connection points: 2
#     Edge 11, Type (0, 0), BuildingBlock: TEMPAE_clean_linker_10, # of connection points: 2
#     Edge 12, Type (0, 0), BuildingBlock: TEMPAE_clean_linker_10, # of connection points: 2
#     Edge 13, Type (0, 0), BuildingBlock: TEMPAE_clean_linker_10, # of connection points: 2
#     Edge 14, Type (0, 0), BuildingBlock: TEMPAE_clean_linker_10, # of connection points: 2
#     Edge 15, Type (0, 0), BuildingBlock: TEMPAE_clean_linker_10, # of connection points: 2
# Relax obj value: 0.242
# Max RMSD: 0.218
# Mean RMSD: 0.218
data_MOF--net-snp--node1-BETFEN_clean_sbu_0--edge1-TEMPAE_clean_linker_10
_symmetry_space_group_name_H-M    P1
_symmetry_Int_Tables_number       1
_symmetry_cell_setting            triclinic
loop_
_symmetry_equiv_pos_as_xyz
'x, y, z'
_cell_length_a     25.538564
_cell_length_b     25.649453
_cell_length_c     36.423481
_cell_angle_alpha  84.0
_cell_angle_beta   84.287715
_cell_angle_gamma 94.71404
loop_
_atom_site_label
_atom_site_type_symbol
_atom_site_fract_x
_atom_site_fract_y
_atom_site_fract_z
_atom_type_partial_charge
Pr0 Pr 0.2087 -0.00678 0.22492 0.0
Pr1 Pr 0.26744 0.8987 0.19153 0.0
C2 C 0.15655 0.05752 0.26723 0.0
C3 C 0.13584 0.06428 0.30584 0.0
C4 C 0.14109 0.02712 0.33621 0.0
C5 C 0.1261 0.03766 0.37281 0.0
C6 C 0.10621 0.08585 0.37975 0.0
C7 C 0.0998 0.12207 0.34906 0.0
C8 C 0.11437 0.11138 0.31268 0.0
C9 C 0.31311 0.01672 0.19415 0.0
C10 C 0.24778 0.89535 0.28297 0.0
C11 C 0.32801 0.8378 0.15386 0.0
C12 C 0.32369 0.82477 0.11529 0.0
C13 C 0.30734 0.77318 0.10865 0.0
C14 C 0.29459 0.76255 0.07335 0.0
C15 C 0.29766 0.80336 0.04397 0.0
C16 C 0.31645 0.85436 0.05023 0.0
C17 C 0.32919 0.86499 0.08533 0.0
C18 C 0.15812 0.88678 0.19604 0.0
C19 C 0.21433 -0.0113 0.13495 0.0
O20 O 0.13222 0.02182 0.25004 0.0
O21 O 0.20796 0.06098 0.25989 0.0
O22 O 0.29511 0.97481 0.21419 0.0
O23 O 0.27725 0.04943 0.19041 0.0
O24 O 0.26864 0.87116 0.25527 0.0
O25 O 0.22486 0.9395 0.27763 0.0
O26 O 0.34364 0.88694 0.15741 0.0
O27 O 0.28891 0.81782 0.17883 0.0
O28 O 0.18503 0.90663 0.21915 0.0
O29 O 0.18853 0.86696 0.17153 0.0
O30 O 0.18555 0.0031 0.16394 0.0
O31 O 0.25287 0.95742 0.13921 0.0
H32 H 0.15791 -0.0094 0.33169 0.0
H33 H 0.13177 0.0089 0.39568 0.0
H34 H 0.08384 0.15913 0.35317 0.0
H35 H 0.11003 0.14069 0.28978 0.0
H36 H 0.30241 0.74142 0.13113 0.0
H37 H 0.28026 0.72279 0.06947 0.0
H38 H 0.32063 0.88635 1.02799 0.0
H39 H 0.34161 0.90528 0.08916 0.0
Pr40 Pr 0.93599 0.27976 0.68508 0.0
Pr41 Pr 0.01269 0.20153 0.72712 0.0
C42 C 0.89457 0.35211 0.64075 0.0
C43 C 0.88174 0.34754 0.60239 0.0
C44 C 0.87954 0.29791 0.58928 0.0
C45 C 0.86968 0.29239 0.55278 0.0
C46 C 0.86181 0.33642 0.52823 0.0
C47 C 0.8636 0.38625 0.54147 0.0
C48 C 0.87375 0.39178 0.57821 0.0
C49 C 0.89471 0.17586 0.70049 0.0
C50 C 0.00795 0.20125 0.63527 0.0
C51 C 0.06367 0.12825 0.76488 0.0
C52 C 0.07876 0.11537 0.80292 0.0
C53 C 0.08758 0.15464 0.82639 0.0
C54 C 0.10291 0.14176 0.86199 0.0
C55 C 0.10956 0.08924 0.87511 0.0
C56 C 0.09993 0.05003 0.85156 0.0
C57 C 0.08473 0.06297 0.81598 0.0
C58 C 0.05076 0.30625 0.70618 0.0
C59 C 0.93353 0.27048 0.77762 0.0
O60 O 0.94501 0.35468 0.64504 0.0
O61 O 0.86569 0.31998 0.66677 0.0
O62 O 0.92427 0.19999 0.72026 0.0
O63 O 0.87785 0.20914 0.67605 0.0
O64 O 0.02313 0.1773 0.66606 0.0
O65 O 0.97864 0.24159 0.63552 0.0
O66 O 0.01331 0.12173 0.76072 0.0
O67 O 0.08785 0.17068 0.74522 0.0
O68 O 0.02453 0.277 0.68787 0.0
O69 O 0.05937 0.28141 0.7377 0.0
O70 O 0.92296 0.3 0.74738 0.0
O71 O 0.96151 0.2294 0.77633 0.0
H72 H 0.88564 0.26316 0.60731 0.0
H73 H 0.86768 0.25335 0.5439 0.0
H74 H 0.85809 0.42105 0.52325 0.0
H75 H 0.87576 0.43051 0.58762 0.0
H76 H 0.08269 0.19532 0.81719 0.0
H77 H 0.10899 0.17297 0.87941 0.0
H78 H 0.10503 0.00928 0.86035 0.0
H79 H 0.078 0.03195 0.79848 0.0
Pr80 Pr 0.77909 0.13365 0.12625 0.0
Pr81 Pr 0.79751 0.02881 0.08433 0.0
C82 C 0.74824 0.21301 0.16361 0.0
C83 C 0.75941 0.23088 0.19987 0.0
C84 C 0.81151 0.24427 0.20746 0.0
C85 C 0.82171 0.25886 0.24227 0.0
C86 C 0.78019 0.26011 0.27053 0.0
C87 C 0.72808 0.24693 0.26285 0.0
C88 C 0.71784 0.23266 0.22792 0.0
C89 C 0.88299 0.10938 0.11669 0.0
C90 C 0.79172 0.02047 0.17875 0.0
C91 C 0.83287 0.95074 0.04593 0.0
C92 C 0.84079 0.93314 1.008 0.0
C93 C 0.79837 0.91802 0.98828 0.0
C94 C 0.80764 0.90006 0.95313 0.0
C95 C 0.85954 0.89675 0.93667 0.0
C96 C 0.90175 0.91203 0.95656 0.0
C97 C 0.8925 0.92976 0.9916 0.0
C98 C 0.6942 0.05669 0.09412 0.0
C99 C 0.79219 0.14379 0.03342 0.0
O100 O 0.71924 0.16809 0.16499 0.0
O101 O 0.78736 0.21913 0.13687 0.0
O102 O 0.8488 0.10205 0.09459 0.0
O103 O 0.8651 0.13561 0.14306 0.0
O104 O 0.80057 -0.00347 0.14825 0.0
O105 O 0.77931 0.06978 0.17736 0.0
O106 O 0.86298 -0.00802 0.05197 0.0
O107 O 0.78498 0.94851 0.06317 0.0
O108 O 0.7275 0.05964 0.11726 0.0
O109 O 0.7128 0.03513 0.06539 0.0
O110 O 0.77308 0.1647 0.06326 0.0
O111 O 0.80878 0.09619 0.03538 0.0
H112 H 0.84464 0.24284 0.18669 0.0
H113 H 0.86235 0.26803 0.2473 0.0
H114 H 0.6951 0.24793 0.28382 0.0
H115 H 0.67734 0.22248 0.22292 0.0
H116 H 0.758 0.91995 0.99999 0.0
H117 H 0.77402 0.88921 0.9387 0.0
H118 H 0.94223 0.90932 0.94541 0.0
H119 H 0.9261 0.94045 1.00615 0.0
Pr120 Pr 0.96808 0.77049 0.59319 0.0
Pr121 Pr 0.07718 0.76066 0.63283 0.0
C122 C 0.89557 0.80198 0.54785 0.0
C123 C 0.88776 0.81943 0.50837 0.0
C124 C 0.85046 0.79104 0.49032 0.0
C125 C 0.83931 0.80921 0.45437 0.0
C126 C 0.86494 0.85661 0.43533 0.0
C127 C 0.90273 0.88468 0.45341 0.0
C128 C 0.91398 0.8664 0.48926 0.0
C129 C -0.00598 0.67017 0.61466 0.0
C130 C 0.0881 0.77771 0.54213 0.0
C131 C 0.14948 0.73038 0.67792 0.0
C132 C 0.16256 0.73737 0.71589 0.0
C133 C 0.12389 0.74795 0.74367 0.0
C134 C 0.137 0.75435 0.77954 0.0
C135 C 0.1892 0.75079 0.78829 0.0
C136 C 0.22778 0.74046 0.76024 0.0
C137 C 0.21454 0.73375 0.72448 0.0
C138 C 0.04592 0.86104 0.61745 0.0
C139 C 0.95999 0.7682 0.68559 0.0
O140 O 0.92408 0.83401 0.56534 0.0
O141 O 0.90178 0.75231 0.55734 0.0
O142 O 0.02655 0.70824 0.60036 0.0
O143 O 0.9452 0.68194 0.61549 0.0
O144 O 0.11081 0.75791 0.57098 0.0
O145 O 0.03866 0.79048 0.54539 0.0
O146 O 0.1055 0.70152 0.6752 0.0
O147 O 0.15792 0.77214 0.65333 0.0
O148 O 0.01768 0.81899 0.62715 0.0
O149 O 0.09549 0.85338 0.61906 0.0
O150 O 0.93596 0.7805 0.65539 0.0
O151 O 0.009 0.75371 0.68322 0.0
H152 H 0.82924 0.75494 0.50429 0.0
H153 H 0.8106 0.78586 0.44149 0.0
H154 H 0.92291 0.9217 0.44026 0.0
H155 H 0.94263 0.88975 0.50223 0.0
H156 H 0.08361 0.75145 0.7376 0.0
H157 H 0.10641 0.76289 0.80027 0.0
H158 H 0.26818 0.73687 0.76604 0.0
H159 H 0.24499 0.72564 0.7035 0.0
C160 C 0.97173 0.09691 0.13541 0.0
C161 C 0.92588 0.07632 0.1222 0.0
C162 C 0.00849 0.06355 0.1479 0.0
C163 C -0.00311 0.00817 0.14902 0.0
C164 C 0.94982 -0.01237 0.13631 0.0
C165 C 0.91661 0.02235 0.12133 0.0
C166 C 0.05799 0.08884 0.16077 0.0
C167 C 0.93256 0.92933 0.13921 0.0
C168 C 0.09879 0.91034 0.14926 0.0
C169 C 0.10894 0.9066 0.18641 0.0
C170 C 0.06274 0.94382 0.13648 0.0
C171 C 0.03406 0.97153 0.16216 0.0
C172 C 0.03985 0.96278 0.20051 0.0
C173 C 0.07804 0.93071 0.21219 0.0
C174 C 0.05725 0.94981 0.09536 0.0
C175 C 0.00689 -0.01187 0.22908 0.0
H176 H 0.97847 0.13901 0.13652 0.0
H177 H 0.88121 0.00658 0.11166 0.0
H178 H 0.08662 0.06062 0.16863 0.0
H179 H 0.07792 0.11916 0.13873 0.0
H180 H 0.04692 0.11006 0.18503 0.0
H181 H 0.95305 0.90521 0.15936 0.0
H182 H 0.88938 0.922 0.14766 0.0
H183 H 0.93962 0.91552 0.11145 0.0
H184 H 0.12223 0.89071 0.12936 0.0
H185 H 0.08535 0.92624 0.24112 0.0
H186 H 0.04279 -0.01214 0.08562 0.0
H187 H 0.02933 0.91736 0.08909 0.0
H188 H 0.09559 0.94616 0.079 0.0
H189 H 0.01663 0.03128 0.22549 0.0
H190 H 0.0143 0.97368 0.25769 0.0
H191 H 0.9643 0.98039 0.22571 0.0
C192 C 0.96795 0.9087 0.62847 0.0
C193 C 0.0232 0.91035 0.62284 0.0
C194 C 0.94332 0.94837 0.64431 0.0
C195 C 0.97467 -0.00724 0.65202 0.0
C196 C 0.03051 -0.00356 0.64445 0.0
C197 C 0.05436 0.95456 0.63012 0.0
C198 C 0.88406 0.94133 0.6547 0.0
C199 C 0.06574 0.0424 0.65347 0.0
C200 C 0.90373 0.11446 0.65343 0.0
C201 C 0.90367 0.12344 0.69075 0.0
C202 C 0.92716 0.07193 0.64049 0.0
C203 C 0.94806 0.03624 0.666 0.0
C204 C 0.9429 0.0419 0.70438 0.0
C205 C 0.9211 0.08626 0.71636 0.0
C206 C 0.93303 0.06742 0.59921 0.0
C207 C 0.96247 0.00268 0.7324 0.0
H208 H 0.9437 0.87442 0.62311 0.0
H209 H 0.09709 0.9554 0.6264 0.0
H210 H 0.87491 0.94617 0.68451 0.0
H211 H 0.86461 0.97182 0.63863 0.0
H212 H 0.86624 0.90209 0.64964 0.0
H213 H 0.10032 0.05162 0.63207 0.0
H214 H 0.04479 0.07818 0.65585 0.0
H215 H 0.08121 0.0315 0.68036 0.0
H216 H 0.8898 0.14313 0.63353 0.0
H217 H 0.91933 0.09286 0.74534 0.0
H218 H 0.91458 0.09886 0.58315 0.0
H219 H 0.91483 0.02896 0.59327 0.0
H220 H 0.97563 0.06954 0.58897 0.0
H221 H 0.9453 0.00646 0.76115 0.0
H222 H 0.0061 0.00955 0.73115 0.0
H223 H 0.95266 0.96181 0.72612 0.0
C224 C 0.62044 0.07943 0.13752 0.0
C225 C 0.63757 0.06137 0.1038 0.0
C226 C 0.56655 0.07769 0.14972 0.0
C227 C 0.52906 0.05645 0.1279 0.0
C228 C 0.546 0.04047 0.09295 0.0
C229 C 0.60027 0.04346 0.08116 0.0
C230 C 0.54998 0.0958 0.18693 0.0
C231 C 0.50708 0.01727 0.0691 0.0
C232 C 0.40368 -0.01085 0.18251 0.0
C233 C 0.36786 0.02678 0.17652 0.0
C234 C 0.45594 -0.00214 0.16596 0.0
C235 C 0.47292 0.04589 0.14352 0.0
C236 C 0.4369 0.08413 0.13739 0.0
C237 C 0.38452 0.07396 0.15387 0.0
C238 C 0.49313 0.9559 0.17287 0.0
C239 C 0.45393 0.136 0.114 0.0
H240 H 0.64919 0.09303 0.15514 0.0
H241 H 0.61349 0.02952 0.05502 0.0
H242 H 0.51767 0.12196 0.18467 0.0
H243 H 0.53461 0.06119 0.2071 0.0
H244 H 0.58333 0.11718 0.1982 0.0
H245 H 0.52609 0.01174 0.04116 0.0
H246 H 0.48904 0.97844 0.08293 0.0
H247 H 0.47455 0.04289 0.0657 0.0
H248 H 0.39092 0.95286 0.20031 0.0
H249 H 0.35676 0.10314 0.1493 0.0
H250 H 0.52567 0.97126 0.18796 0.0
H251 H 0.51128 0.94515 0.14606 0.0
H252 H 0.47287 0.9197 0.1894 0.0
H253 H 0.48526 0.1581 0.12675 0.0
H254 H 0.42065 0.16087 0.11106 0.0
H255 H 0.47109 0.1291 0.08593 0.0
C256 C 0.06035 0.3815 0.65773 0.0
C257 C 0.06035 0.36308 0.69525 0.0
C258 C 0.05692 0.43467 0.64655 0.0
C259 C 0.05449 0.47031 0.67363 0.0
C260 C 0.05967 0.45271 0.71119 0.0
C261 C 0.06235 0.39878 0.7217 0.0
C262 C 0.05114 0.45167 0.60625 0.0
C263 C 0.05841 0.49004 0.74056 0.0
C264 C 0.0634 0.61206 0.63142 0.0
C265 C 0.00979 0.62024 0.63168 0.0
C266 C 0.07892 0.56453 0.64746 0.0
C267 C 0.03975 0.52393 0.66297 0.0
C268 C 0.98554 0.53249 0.66398 0.0
C269 C 0.97124 0.58079 0.64845 0.0
C270 C 0.13705 0.5571 0.6465 0.0
C271 C 0.9425 0.48974 0.67963 0.0
H272 H 0.05963 0.35366 0.63727 0.0
H273 H 0.06263 0.38432 0.75073 0.0
H274 H 0.01033 0.46245 0.60371 0.0
H275 H 0.07863 0.48693 0.59564 0.0
H276 H 0.05882 0.42006 0.58831 0.0
H277 H 0.07201 0.47236 0.76671 0.0
H278 H 0.08352 0.52716 0.73053 0.0
H279 H 0.01738 0.50036 0.74685 0.0
H280 H 0.09329 0.64262 0.61834 0.0
H281 H 0.92977 0.5872 0.64873 0.0
H282 H 0.14788 0.53047 0.62543 0.0
H283 H 0.14611 0.53844 0.67373 0.0
H284 H 0.16213 0.595 0.63935 0.0
H285 H 0.94174 0.45813 0.66106 0.0
H286 H 0.90282 0.50465 0.68219 0.0
H287 H 0.95039 0.47184 0.70735 0.0
C288 C -0.00839 0.18929 0.56959 0.0
C289 C 0.02338 0.18205 0.59872 0.0
C290 C 0.00449 0.17046 0.53514 0.0
C291 C 0.05144 0.14526 0.52885 0.0
C292 C 0.08416 0.13861 0.55798 0.0
C293 C 0.06962 0.15678 0.59251 0.0
C294 C 0.96772 0.17773 0.50542 0.0
C295 C 0.1349 0.11274 0.55254 0.0
C296 C 0.066 0.06309 0.4467 0.0
C297 C 0.09376 0.09965 0.41858 0.0
C298 C 0.05244 0.07698 0.48276 0.0
C299 C 0.06746 0.12855 0.49123 0.0
C300 C 0.09658 0.16509 0.46318 0.0
C301 C 0.10909 0.15035 0.42739 0.0
C302 C 0.02051 0.03695 0.51143 0.0
C303 C 0.11434 0.22012 0.47089 0.0
H304 H 0.9557 0.20859 0.57401 0.0
H305 H 0.09511 0.15216 0.61446 0.0
H306 H 0.92909 0.18996 0.51649 0.0
H307 H 0.98627 0.20834 0.48312 0.0
H308 H 0.96045 0.14073 0.49268 0.0
H309 H 0.15757 0.11331 0.57701 0.0
H310 H 0.12595 0.07121 0.54747 0.0
H311 H 0.16023 0.13293 0.52777 0.0
H312 H 0.05358 0.02398 0.44023 0.0
H313 H 0.13135 0.17868 0.4062 0.0
H314 H 0.98086 0.0504 0.51831 0.0
H315 H 0.03971 0.03318 0.53747 0.0
H316 H 0.01532 -0.00249 0.50155 0.0
H317 H 0.07936 0.24161 0.47782 0.0
H318 H 0.13912 0.24295 0.44681 0.0
H319 H 0.13728 0.21847 0.49524 0.0
C320 C 0.85557 0.28331 0.82235 0.0
C321 C 0.90981 0.27852 0.81519 0.0
C322 C 0.82983 0.27283 0.85886 0.0
C323 C 0.85917 0.25729 0.88863 0.0
C324 C 0.91483 0.25811 0.88177 0.0
C325 C 0.93933 0.26857 0.84522 0.0
C326 C 0.77064 0.27343 0.86493 0.0
C327 C 0.94809 0.24233 0.91241 0.0
C328 C 0.80676 0.23009 0.9916 0.0
C329 C 0.79936 0.17485 0.99606 0.0
C330 C 0.823 0.25827 0.95629 0.0
C331 C 0.83198 0.2305 0.92487 0.0
C332 C 0.82093 0.17504 0.92903 0.0
C333 C 0.80481 0.14811 0.96438 0.0
C334 C 0.8336 0.31736 0.95309 0.0
C335 C 0.82949 0.14348 0.8965 0.0
H336 H 0.83247 0.29054 0.79923 0.0
H337 H 0.98135 0.26499 0.83979 0.0
H338 H 0.75181 0.23251 0.86702 0.0
H339 H 0.75852 0.28958 0.89125 0.0
H340 H 0.75541 0.29699 0.84162 0.0
H341 H -0.00899 0.25209 0.90365 0.0
H342 H 0.9371 0.2621 0.93735 0.0
H343 H 0.94087 0.1992 0.92054 0.0
H344 H 0.80266 0.25115 1.01587 0.0
H345 H 0.7984 0.10549 0.96737 0.0
H346 H 0.81882 0.33603 0.92773 0.0
H347 H 0.87686 0.32816 0.95078 0.0
H348 H 0.81497 0.33377 0.9777 0.0
H349 H 0.80903 0.15973 0.873 0.0
H350 H 0.81499 0.10126 0.90376 0.0
H351 H 0.87231 0.1461 0.88675 0.0
C352 C 0.8006 0.87077 0.38676 0.0
C353 C 0.8523 0.87701 0.39707 0.0
C354 C 0.78852 0.89092 0.35122 0.0
C355 C 0.82879 0.91854 0.32502 0.0
C356 C 0.88088 0.92461 0.33527 0.0
C357 C 0.89203 0.90359 0.37068 0.0
C358 C 0.73237 0.88327 0.34186 0.0
C359 C 0.92546 0.95246 0.30848 0.0
C360 C 0.81164 0.94028 0.2207 0.0
C361 C 0.79817 -0.00753 0.2163 0.0
C362 C 0.8207 0.91538 0.25579 0.0
C363 C 0.81636 0.94307 0.28762 0.0
C364 C 0.80212 -0.00453 0.28339 0.0
C365 C 0.79318 0.01927 0.24813 0.0
C366 C 0.83586 0.85961 0.25865 0.0
C367 C 0.79775 0.02716 0.31607 0.0
H368 H 0.76912 0.85098 0.40674 0.0
H369 H 0.93238 0.9077 0.37752 0.0
H370 H 0.7166 0.92209 0.33674 0.0
H371 H 0.73126 0.86414 0.31596 0.0
H372 H 0.70599 0.85884 0.36441 0.0
H373 H 0.96207 0.96013 0.32195 0.0
H374 H 0.93398 0.92721 0.28613 0.0
H375 H 0.91427 -0.00955 0.2955 0.0
H376 H 0.81557 0.91886 0.19664 0.0
H377 H 0.78309 0.05961 0.24552 0.0
H378 H 0.81005 0.83477 0.28124 0.0
H379 H 0.87706 0.85907 0.26574 0.0
H380 H 0.83307 0.84179 0.23231 0.0
H381 H 0.76946 0.00587 0.33887 0.0
H382 H 0.78453 0.06673 0.30866 0.0
H383 H 0.83673 0.03221 0.32692 0.0
C384 C 0.25055 0.78777 0.83118 0.0
C385 C 0.20357 0.75795 0.8264 0.0
C386 C 0.26491 0.79458 0.86681 0.0
C387 C 0.23179 0.77073 0.89867 0.0
C388 C 0.18421 0.74075 0.89408 0.0
C389 C 0.17062 0.73485 0.85809 0.0
C390 C 0.31542 0.82768 0.87038 0.0
C391 C 0.1475 0.71513 0.92725 0.0
C392 C 0.29421 0.75025 0.98959 0.0
C393 C 0.27953 0.79368 1.0073 0.0
C394 C 0.27845 0.74198 0.95449 0.0
C395 C 0.24678 0.77768 0.93673 0.0
C396 C 0.23063 0.82078 0.95501 0.0
C397 C 0.24747 0.82839 0.98983 0.0
C398 C 0.29636 0.69543 0.93614 0.0
C399 C 0.19661 0.85984 0.93758 0.0
H400 H 0.27587 0.8065 0.80695 0.0
H401 H 0.13447 0.71142 0.85476 0.0
H402 H 0.30632 0.86155 0.88576 0.0
H403 H 0.34161 0.80414 0.88659 0.0
H404 H 0.33725 0.843 0.84295 0.0
H405 H 0.11229 0.69263 0.91908 0.0
H406 H 0.16882 0.68802 0.94487 0.0
H407 H 0.13394 0.74566 0.9445 0.0
H408 H 0.31906 0.72334 1.00282 0.0
H409 H 0.2351 0.86149 1.00362 0.0
H410 H 0.32127 0.7094 0.90966 0.0
H411 H 0.26163 0.67088 0.92925 0.0
H412 H 0.3194 0.67038 0.95402 0.0
H413 H 0.22201 0.88891 0.91733 0.0
H414 H 0.17606 0.88155 0.95868 0.0
H415 H 0.16641 0.84029 0.92243 0.0
C416 C 0.83812 0.83459 0.88915 0.0
C417 C 0.86997 0.87703 0.89924 0.0
C418 C 0.8489 0.81453 0.85476 0.0
C419 C 0.89245 0.83746 0.82932 0.0
C420 C 0.92431 0.88077 0.83912 0.0
C421 C 0.91285 0.89975 0.87375 0.0
C422 C 0.81424 0.76795 0.84594 0.0
C423 C 0.97182 0.90642 0.81373 0.0
C424 C 0.95706 0.75997 0.75536 0.0
C425 C 0.93647 0.77996 0.72291 0.0
C426 C 0.94202 0.77711 0.79012 0.0
C427 C 0.90538 0.81554 0.79293 0.0
C428 C 0.8831 0.83465 0.7605 0.0
C429 C 0.89867 0.81655 0.72606 0.0
C430 C 0.96692 0.75535 0.82365 0.0
C431 C 0.84493 0.87646 0.76174 0.0
H432 H 0.80538 0.81601 0.90859 0.0
H433 H 0.93764 0.93281 0.88076 0.0
H434 H 0.79707 0.77803 0.81959 0.0
H435 H 0.83836 0.73451 0.84192 0.0
H436 H 0.7815 0.75491 0.86827 0.0
H437 H 0.98197 0.94763 0.81925 0.0
H438 H 0.00632 0.88401 0.81859 0.0
H439 H 0.96545 0.9064 0.78408 0.0
H440 H 0.98615 0.73162 0.75349 0.0
H441 H 0.88296 0.83296 0.70129 0.0
H442 H 0.93595 0.74104 0.8469 0.0
H443 H -0.00724 0.78705 0.8331 0.0
H444 H -0.00888 0.72254 0.81767 0.0
H445 H 0.81371 0.86624 0.78543 0.0
H446 H 0.82575 0.88214 0.73573 0.0
H447 H 0.86652 0.91436 0.76593 0.0
C448 C 0.24232 0.90398 0.35052 0.0
C449 C 0.24367 0.87104 0.32206 0.0
C450 C 0.22414 0.88435 0.38738 0.0
C451 C 0.20655 0.83028 0.39618 0.0
C452 C 0.21182 0.796 0.36812 0.0
C453 C 0.23055 0.8168 0.33131 0.0
C454 C 0.21977 0.92241 0.41627 0.0
C455 C 0.19355 0.73814 0.37627 0.0
C456 C 0.17291 0.7813 0.49933 0.0
C457 C 0.11856 0.78727 0.50454 0.0
C458 C 0.20197 0.79341 0.46402 0.0
C459 C 0.17613 0.81178 0.43315 0.0
C460 C 0.12104 0.81641 0.43811 0.0
C461 C 0.09311 0.80419 0.47356 0.0
C462 C 0.26062 0.78817 0.45996 0.0
C463 C 0.09168 0.83593 0.40611 0.0
H464 H 0.25265 0.94597 0.34355 0.0
H465 H 0.23093 0.79123 0.3094 0.0
H466 H 0.17748 0.92678 0.42453 0.0
H467 H 0.237 0.9071 0.44156 0.0
H468 H 0.23996 0.96199 0.40588 0.0
H469 H 0.20788 0.71555 0.35347 0.0
H470 H 0.2073 0.72127 0.40252 0.0
H471 H 0.1497 0.73299 0.37983 0.0
H472 H 0.19306 0.76825 0.52297 0.0
H473 H 0.05114 0.80872 0.47699 0.0
H474 H 0.28248 0.82777 0.45325 0.0
H475 H 0.27136 0.76509 0.43667 0.0
H476 H 0.27397 0.76885 0.48569 0.0
H477 H 0.10643 0.87735 0.39594 0.0
H478 H 0.04836 0.83416 0.41404 0.0
H479 H 0.09892 0.8122 0.38265 0.0
C480 C 0.16485 0.10807 0.9271 0.0
C481 C 0.12653 0.07537 0.91304 0.0
C482 C 0.18115 0.09538 0.96259 0.0
C483 C 0.1587 0.04879 0.98497 0.0
C484 C 0.12034 0.01538 0.97081 0.0
C485 C 0.10465 0.02915 0.93531 0.0
C486 C 0.22266 0.13186 0.97611 0.0
C487 C 0.09436 0.9657 0.99345 0.0
C488 C 0.22939 -0.01107 0.06514 0.0
C489 C 0.20225 0.00664 0.09634 0.0
C490 C 0.21651 0.0033 1.02886 0.0
C491 C 0.17474 0.03542 1.0233 0.0
C492 C 0.14778 0.05409 0.05449 0.0
C493 C 0.16224 0.04009 0.09038 0.0
C494 C 0.24711 0.98352 0.99638 0.0
C495 C 0.10282 0.08809 0.04996 0.0
H496 H 0.18277 0.14344 0.91009 0.0
H497 H 0.07438 0.00392 0.92524 0.0
H498 H 0.20625 0.14706 1.00182 0.0
H499 H 0.25673 0.11002 0.98314 0.0
H500 H 0.23723 0.16587 0.95512 0.0
H501 H 0.0746 0.93878 0.97599 0.0
H502 H 0.12343 0.94418 1.00823 0.0
H503 H 0.06392 0.97639 1.01454 0.0
H504 H 0.26058 0.96334 0.069 0.0
H505 H 0.14127 0.05448 0.11389 0.0
H506 H 0.26319 0.01698 0.97543 0.0
H507 H 0.22029 0.95746 0.98267 0.0
H508 H 0.28037 0.9615 1.00483 0.0
H509 H 0.11778 0.12609 0.03339 0.0
H510 H 0.08312 0.09631 0.07697 0.0
H511 H 0.07281 0.06856 0.03462 0.0
C512 C 0.82912 0.31602 0.31145 0.0
C513 C 0.79144 0.27422 0.308 0.0
C514 C 0.84103 0.32887 0.34654 0.0
C515 C 0.8149 0.29911 0.37916 0.0
C516 C 0.7766 0.25709 0.37587 0.0
C517 C 0.76526 0.24528 0.34044 0.0
C518 C 0.88191 0.37411 0.3487 0.0
C519 C 0.74813 0.224 0.40983 0.0
C520 C 0.88031 0.29548 0.46898 0.0
C521 C 0.85171 0.32965 0.48915 0.0
C522 C 0.86919 0.28573 0.43314 0.0
C523 C 0.82855 0.31093 0.41669 0.0
C524 C 0.80039 0.34651 0.43648 0.0
C525 C 0.81229 0.35545 0.4724 0.0
C526 C 0.90045 0.24772 0.4131 0.0
C527 C 0.7569 0.37435 0.41998 0.0
H528 H 0.84913 0.33903 0.28662 0.0
H529 H 0.73664 0.2125 0.33813 0.0
H530 H 0.86446 0.40342 0.36541 0.0
H531 H 0.91524 0.3596 0.36292 0.0
H532 H 0.8978 0.39419 0.32084 0.0
H533 H 0.71859 0.19352 0.40265 0.0
H534 H 0.77711 0.20416 0.42581 0.0
H535 H 0.72765 0.24944 0.42833 0.0
H536 H 0.91157 0.27623 0.4813 0.0
H537 H 0.78971 0.38161 0.48778 0.0
H538 H 0.91879 0.26702 0.38563 0.0
H539 H 0.87362 0.21358 0.408 0.0
H540 H 0.93208 0.23288 0.42906 0.0
H541 H 0.7721 0.39625 0.3926 0.0
H542 H 0.74016 0.40237 0.43821 0.0
H543 H 0.7246 0.34499 0.41523 0.0
loop_
_geom_bond_atom_site_label_1
_geom_bond_atom_site_label_2
_geom_bond_distance
_geom_bond_site_symmetry_2
_ccdc_geom_bond_type
Pr0 C2 2.880 . S
Pr0 O20 2.562 . S
Pr0 O21 2.490 . S
Pr0 O22 2.695 . S
Pr0 O23 2.512 . S
Pr0 O25 2.437 . S
Pr0 O28 2.436 . S
Pr0 O30 2.438 . S
Pr1 C11 2.880 . S
Pr1 O22 2.436 1_565 S
Pr1 O24 2.438 . S
Pr1 O26 2.562 . S
Pr1 O27 2.490 . S
Pr1 O28 2.695 1_565 S
Pr1 O29 2.512 . S
Pr1 O31 2.437 1_565 S
C2 Pr0 2.880 . S
C2 C3 1.491 . S
C2 O20 1.254 . S
C2 O21 1.225 . S
C3 C2 1.491 . S
C3 C4 1.392 . S
C3 C8 1.356 . S
C4 C3 1.392 . S
C4 C5 1.368 . S
C4 H32 0.929 . S
C5 C4 1.368 . S
C5 C6 1.386 . S
C5 H33 0.929 . S
C6 C5 1.386 . S
C6 C7 1.373 . S
C7 C6 1.373 . S
C7 C8 1.409 . S
C7 H34 0.931 . S
C8 C3 1.356 . S
C8 C7 1.409 . S
C8 H35 0.930 . S
C9 O22 1.270 . S
C9 O23 1.248 . S
C10 O24 1.267 . S
C10 O25 1.278 1_565 S
C11 Pr1 2.880 . S
C11 C12 1.491 . S
C11 O26 1.254 . S
C11 O27 1.225 . S
C12 C11 1.491 . S
C12 C13 1.392 . S
C12 C17 1.356 . S
C13 C12 1.392 . S
C13 C14 1.368 1_554 S
C13 H36 0.929 . S
C14 C13 1.368 1_556 S
C14 C15 1.386 . S
C14 H37 0.929 . S
C15 C14 1.386 . S
C15 C16 1.373 . S
C16 C15 1.373 . S
C16 C17 1.409 1_556 S
C16 H38 0.931 . S
C17 C12 1.356 . S
C17 C16 1.409 1_554 S
C17 H39 0.930 . S
C18 O28 1.270 . S
C18 O29 1.248 1_545 S
C19 O30 1.267 . S
C19 O31 1.278 . S
O20 Pr0 2.562 . S
O20 C2 1.254 . S
O21 Pr0 2.490 . S
O21 C2 1.225 . S
O22 Pr0 2.695 . S
O22 Pr1 2.436 1_545 S
O22 C9 1.270 . S
O23 Pr0 2.512 . S
O23 C9 1.248 . S
O24 Pr1 2.438 . S
O24 C10 1.267 . S
O25 Pr0 2.437 . S
O25 C10 1.278 1_545 S
O26 Pr1 2.562 . S
O26 C11 1.254 . S
O27 Pr1 2.490 . S
O27 C11 1.225 . S
O28 Pr0 2.436 . S
O28 Pr1 2.695 1_545 S
O28 C18 1.270 . S
O29 Pr1 2.512 . S
O29 C18 1.248 1_565 S
O30 Pr0 2.438 . S
O30 C19 1.267 . S
O31 Pr1 2.437 1_545 S
O31 C19 1.278 . S
H32 C4 0.929 . S
H33 C5 0.929 . S
H34 C7 0.931 . S
H35 C8 0.930 . S
H36 C13 0.929 . S
H37 C14 0.929 . S
H38 C16 0.931 . S
H39 C17 0.930 . S
Pr40 C42 2.880 . S
Pr40 O60 2.562 . S
Pr40 O61 2.490 . S
Pr40 O62 2.695 1_655 S
Pr40 O63 2.512 . S
Pr40 O65 2.437 1_655 S
Pr40 O68 2.436 1_655 S
Pr40 O70 2.438 . S
Pr41 C51 2.880 . S
Pr41 O62 2.436 . S
Pr41 O64 2.438 . S
Pr41 O66 2.562 . S
Pr41 O67 2.490 . S
Pr41 O68 2.695 . S
Pr41 O69 2.512 . S
Pr41 O71 2.437 . S
C42 Pr40 2.880 . S
C42 C43 1.491 . S
C42 O60 1.254 . S
C42 O61 1.225 . S
C43 C42 1.491 . S
C43 C44 1.392 . S
C43 C48 1.356 . S
C44 C43 1.392 . S
C44 C45 1.368 . S
C44 H72 0.929 . S
C45 C44 1.368 . S
C45 C46 1.386 . S
C45 H73 0.929 . S
C46 C45 1.386 . S
C46 C47 1.373 . S
C47 C46 1.373 . S
C47 C48 1.409 . S
C47 H74 0.931 . S
C48 C43 1.356 . S
C48 C47 1.409 . S
C48 H75 0.930 . S
C49 O62 1.270 . S
C49 O63 1.248 1_455 S
C50 O64 1.267 . S
C50 O65 1.278 . S
C51 Pr41 2.880 . S
C51 C52 1.491 . S
C51 O66 1.254 . S
C51 O67 1.225 . S
C52 C51 1.491 . S
C52 C53 1.392 . S
C52 C57 1.356 . S
C53 C52 1.392 . S
C53 C54 1.368 . S
C53 H76 0.929 . S
C54 C53 1.368 . S
C54 C55 1.386 . S
C54 H77 0.929 . S
C55 C54 1.386 . S
C55 C56 1.373 . S
C56 C55 1.373 . S
C56 C57 1.409 . S
C56 H78 0.931 . S
C57 C52 1.356 . S
C57 C56 1.409 . S
C57 H79 0.930 . S
C58 O68 1.270 . S
C58 O69 1.248 . S
C59 O70 1.267 . S
C59 O71 1.278 1_655 S
O60 Pr40 2.562 . S
O60 C42 1.254 . S
O61 Pr40 2.490 . S
O61 C42 1.225 . S
O62 Pr40 2.695 1_455 S
O62 Pr41 2.436 . S
O62 C49 1.270 . S
O63 Pr40 2.512 . S
O63 C49 1.248 1_655 S
O64 Pr41 2.438 . S
O64 C50 1.267 . S
O65 Pr40 2.437 1_455 S
O65 C50 1.278 . S
O66 Pr41 2.562 . S
O66 C51 1.254 . S
O67 Pr41 2.490 . S
O67 C51 1.225 . S
O68 Pr40 2.436 1_455 S
O68 Pr41 2.695 . S
O68 C58 1.270 . S
O69 Pr41 2.512 . S
O69 C58 1.248 . S
O70 Pr40 2.438 . S
O70 C59 1.267 . S
O71 Pr41 2.437 . S
O71 C59 1.278 1_455 S
H72 C44 0.929 . S
H73 C45 0.929 . S
H74 C47 0.931 . S
H75 C48 0.930 . S
H76 C53 0.929 . S
H77 C54 0.929 . S
H78 C56 0.931 . S
H79 C57 0.930 . S
Pr80 C82 2.880 . S
Pr80 O100 2.562 . S
Pr80 O101 2.490 . S
Pr80 O102 2.695 . S
Pr80 O103 2.512 . S
Pr80 O105 2.437 . S
Pr80 O108 2.436 . S
Pr80 O110 2.438 . S
Pr81 C91 2.880 1_554 S
Pr81 O102 2.436 1_565 S
Pr81 O104 2.438 . S
Pr81 O106 2.562 . S
Pr81 O107 2.490 . S
Pr81 O108 2.695 1_565 S
Pr81 O109 2.512 . S
Pr81 O111 2.437 1_565 S
C82 Pr80 2.880 . S
C82 C83 1.491 . S
C82 O100 1.254 . S
C82 O101 1.225 . S
C83 C82 1.491 . S
C83 C84 1.392 . S
C83 C88 1.356 . S
C84 C83 1.392 . S
C84 C85 1.368 . S
C84 H112 0.929 . S
C85 C84 1.368 . S
C85 C86 1.386 . S
C85 H113 0.929 . S
C86 C85 1.386 . S
C86 C87 1.373 . S
C87 C86 1.373 . S
C87 C88 1.409 . S
C87 H114 0.931 . S
C88 C83 1.356 . S
C88 C87 1.409 . S
C88 H115 0.930 . S
C89 O102 1.270 . S
C89 O103 1.248 . S
C90 O104 1.267 . S
C90 O105 1.278 1_565 S
C91 Pr81 2.880 1_556 S
C91 C92 1.491 . S
C91 O106 1.254 1_556 S
C91 O107 1.225 1_556 S
C92 C91 1.491 . S
C92 C93 1.392 . S
C92 C97 1.356 . S
C93 C92 1.392 . S
C93 C94 1.368 . S
C93 H116 0.929 . S
C94 C93 1.368 . S
C94 C95 1.386 . S
C94 H117 0.929 . S
C95 C94 1.386 . S
C95 C96 1.373 . S
C96 C95 1.373 . S
C96 C97 1.409 . S
C96 H118 0.931 . S
C97 C92 1.356 . S
C97 C96 1.409 . S
C97 H119 0.930 . S
C98 O108 1.270 . S
C98 O109 1.248 1_545 S
C99 O110 1.267 . S
C99 O111 1.278 . S
O100 Pr80 2.562 . S
O100 C82 1.254 . S
O101 Pr80 2.490 . S
O101 C82 1.225 . S
O102 Pr80 2.695 . S
O102 Pr81 2.436 1_545 S
O102 C89 1.270 . S
O103 Pr80 2.512 . S
O103 C89 1.248 . S
O104 Pr81 2.438 . S
O104 C90 1.267 . S
O105 Pr80 2.437 . S
O105 C90 1.278 1_545 S
O106 Pr81 2.562 . S
O106 C91 1.254 1_554 S
O107 Pr81 2.490 . S
O107 C91 1.225 1_554 S
O108 Pr80 2.436 . S
O108 Pr81 2.695 1_545 S
O108 C98 1.270 . S
O109 Pr81 2.512 . S
O109 C98 1.248 1_565 S
O110 Pr80 2.438 . S
O110 C99 1.267 . S
O111 Pr81 2.437 1_545 S
O111 C99 1.278 . S
H112 C84 0.929 . S
H113 C85 0.929 . S
H114 C87 0.931 . S
H115 C88 0.930 . S
H116 C93 0.929 . S
H117 C94 0.929 . S
H118 C96 0.931 . S
H119 C97 0.930 . S
Pr120 C122 2.880 . S
Pr120 O140 2.562 . S
Pr120 O141 2.490 . S
Pr120 O142 2.695 1_655 S
Pr120 O143 2.512 . S
Pr120 O145 2.437 1_655 S
Pr120 O148 2.436 1_655 S
Pr120 O150 2.438 . S
Pr121 C131 2.880 . S
Pr121 O142 2.436 . S
Pr121 O144 2.438 . S
Pr121 O146 2.562 . S
Pr121 O147 2.490 . S
Pr121 O148 2.695 . S
Pr121 O149 2.512 . S
Pr121 O151 2.437 . S
C122 Pr120 2.880 . S
C122 C123 1.491 . S
C122 O140 1.254 . S
C122 O141 1.225 . S
C123 C122 1.491 . S
C123 C124 1.392 . S
C123 C128 1.356 . S
C124 C123 1.392 . S
C124 C125 1.368 . S
C124 H152 0.929 . S
C125 C124 1.368 . S
C125 C126 1.386 . S
C125 H153 0.929 . S
C126 C125 1.386 . S
C126 C127 1.373 . S
C127 C126 1.373 . S
C127 C128 1.409 . S
C127 H154 0.931 . S
C128 C123 1.356 . S
C128 C127 1.409 . S
C128 H155 0.930 . S
C129 O142 1.270 . S
C129 O143 1.248 1_455 S
C130 O144 1.267 . S
C130 O145 1.278 . S
C131 Pr121 2.880 . S
C131 C132 1.491 . S
C131 O146 1.254 . S
C131 O147 1.225 . S
C132 C131 1.491 . S
C132 C133 1.392 . S
C132 C137 1.356 . S
C133 C132 1.392 . S
C133 C134 1.368 . S
C133 H156 0.929 . S
C134 C133 1.368 . S
C134 C135 1.386 . S
C134 H157 0.929 . S
C135 C134 1.386 . S
C135 C136 1.373 . S
C136 C135 1.373 . S
C136 C137 1.409 . S
C136 H158 0.931 . S
C137 C132 1.356 . S
C137 C136 1.409 . S
C137 H159 0.930 . S
C138 O148 1.270 . S
C138 O149 1.248 . S
C139 O150 1.267 . S
C139 O151 1.278 1_655 S
O140 Pr120 2.562 . S
O140 C122 1.254 . S
O141 Pr120 2.490 . S
O141 C122 1.225 . S
O142 Pr120 2.695 1_455 S
O142 Pr121 2.436 . S
O142 C129 1.270 . S
O143 Pr120 2.512 . S
O143 C129 1.248 1_655 S
O144 Pr121 2.438 . S
O144 C130 1.267 . S
O145 Pr120 2.437 1_455 S
O145 C130 1.278 . S
O146 Pr121 2.562 . S
O146 C131 1.254 . S
O147 Pr121 2.490 . S
O147 C131 1.225 . S
O148 Pr120 2.436 1_455 S
O148 Pr121 2.695 . S
O148 C138 1.270 . S
O149 Pr121 2.512 . S
O149 C138 1.248 . S
O150 Pr120 2.438 . S
O150 C139 1.267 . S
O151 Pr121 2.437 . S
O151 C139 1.278 1_455 S
H152 C124 0.929 . S
H153 C125 0.929 . S
H154 C127 0.931 . S
H155 C128 0.930 . S
H156 C133 0.929 . S
H157 C134 0.929 . S
H158 C136 0.931 . S
H159 C137 0.930 . S
C160 C161 1.391 . S
C160 C162 1.394 1_655 S
C160 H176 0.931 . S
C161 C160 1.391 . S
C161 C165 1.376 . S
C162 C160 1.394 1_455 S
C162 C163 1.369 1_455 S
C162 C166 1.531 . S
C163 C162 1.369 1_655 S
C163 C164 1.408 . S
C163 C171 1.504 1_655 S
C164 C163 1.408 . S
C164 C165 1.392 . S
C164 C167 1.511 . S
C165 C161 1.376 . S
C165 C164 1.392 . S
C165 H177 0.929 . S
C166 C162 1.531 . S
C166 H178 0.960 . S
C166 H179 0.981 . S
C166 H180 0.960 . S
C167 C164 1.511 . S
C167 H181 0.961 . S
C167 H182 0.961 . S
C167 H183 0.961 . S
C168 C169 1.370 1_565 S
C168 C170 1.363 . S
C168 H184 0.931 . S
C169 C168 1.370 1_545 S
C169 C173 1.408 . S
C170 C168 1.363 . S
C170 C171 1.370 1_565 S
C170 C174 1.524 . S
C171 C163 1.504 1_455 S
C171 C170 1.370 1_545 S
C171 C172 1.403 . S
C172 C171 1.403 . S
C172 C173 1.404 . S
C172 C175 1.539 . S
C173 C169 1.408 . S
C173 C172 1.404 . S
C173 H185 0.930 . S
C174 C170 1.524 . S
C174 H186 0.956 . S
C174 H187 0.961 1_455 S
C174 H188 0.961 . S
C175 C172 1.539 . S
C175 H189 0.958 . S
C175 H190 0.961 . S
C175 H191 0.960 . S
H176 C160 0.931 . S
H177 C165 0.929 . S
H178 C166 0.960 . S
H179 C166 0.981 . S
H180 C166 0.960 . S
H181 C167 0.961 . S
H182 C167 0.961 . S
H183 C167 0.961 . S
H184 C168 0.931 . S
H185 C173 0.930 . S
H186 C174 0.956 . S
H187 C174 0.961 1_655 S
H188 C174 0.961 . S
H189 C175 0.958 . S
H190 C175 0.961 . S
H191 C175 0.960 . S
C192 C193 1.391 . S
C192 C194 1.394 . S
C192 H208 0.931 1_455 S
C193 C192 1.391 . S
C193 C197 1.376 . S
C194 C192 1.394 . S
C194 C195 1.369 . S
C194 C198 1.531 1_455 S
C195 C194 1.369 . S
C195 C196 1.410 1_565 S
C195 C203 1.503 1_565 S
C196 C195 1.410 1_545 S
C196 C197 1.392 1_545 S
C196 C199 1.511 . S
C197 C193 1.376 . S
C197 C196 1.392 1_565 S
C197 H209 0.929 . S
C198 C194 1.531 1_655 S
C198 H210 0.960 1_655 S
C198 H211 0.962 . S
C198 H212 0.960 . S
C199 C196 1.511 . S
C199 H213 0.961 . S
C199 H214 0.961 . S
C199 H215 0.961 . S
C200 C201 1.370 1_655 S
C200 C202 1.363 . S
C200 H216 0.931 . S
C201 C200 1.370 1_455 S
C201 C205 1.408 . S
C202 C200 1.363 . S
C202 C203 1.370 1_655 S
C202 C206 1.524 . S
C203 C195 1.503 1_545 S
C203 C202 1.370 1_455 S
C203 C204 1.403 . S
C204 C203 1.403 . S
C204 C205 1.404 . S
C204 C207 1.539 . S
C205 C201 1.408 . S
C205 C204 1.404 . S
C205 H217 0.930 . S
C206 C202 1.524 . S
C206 H218 0.956 . S
C206 H219 0.961 . S
C206 H220 0.961 . S
C207 C204 1.539 . S
C207 H221 0.958 1_545 S
C207 H222 0.961 . S
C207 H223 0.960 . S
H208 C192 0.931 1_655 S
H209 C197 0.929 . S
H210 C198 0.960 1_455 S
H211 C198 0.962 . S
H212 C198 0.960 . S
H213 C199 0.961 . S
H214 C199 0.961 . S
H215 C199 0.961 . S
H216 C200 0.931 . S
H217 C205 0.930 . S
H218 C206 0.956 . S
H219 C206 0.961 . S
H220 C206 0.961 . S
H221 C207 0.958 1_565 S
H222 C207 0.961 . S
H223 C207 0.960 . S
C224 C225 1.391 . S
C224 C226 1.394 . S
C224 H240 0.931 . S
C225 C224 1.391 . S
C225 C229 1.376 1_545 S
C226 C224 1.394 . S
C226 C227 1.369 . S
C226 C230 1.531 . S
C227 C226 1.369 . S
C227 C228 1.410 1_545 S
C227 C235 1.503 . S
C228 C227 1.410 1_565 S
C228 C229 1.392 . S
C228 C231 1.511 . S
C229 C225 1.376 1_565 S
C229 C228 1.392 . S
C229 H241 0.929 . S
C230 C226 1.531 . S
C230 H242 0.960 . S
C230 H243 0.962 . S
C230 H244 0.960 . S
C231 C228 1.511 . S
C231 H245 0.961 . S
C231 H246 0.961 . S
C231 H247 0.961 . S
C232 C233 1.370 . S
C232 C234 1.363 . S
C232 H248 0.931 . S
C233 C232 1.370 . S
C233 C237 1.408 . S
C234 C232 1.363 . S
C234 C235 1.370 . S
C234 C238 1.524 . S
C235 C227 1.503 . S
C235 C234 1.370 . S
C235 C236 1.403 . S
C236 C235 1.403 . S
C236 C237 1.404 . S
C236 C239 1.539 . S
C237 C233 1.408 . S
C237 C236 1.404 . S
C237 H249 0.930 . S
C238 C234 1.524 . S
C238 H250 0.956 . S
C238 H251 0.945 1_545 S
C238 H252 0.961 . S
C239 C236 1.539 . S
C239 H253 0.958 . S
C239 H254 0.961 1_545 S
C239 H255 0.960 1_545 S
H240 C224 0.931 . S
H241 C229 0.929 . S
H242 C230 0.960 . S
H243 C230 0.962 . S
H244 C230 0.960 . S
H245 C231 0.961 . S
H246 C231 0.961 . S
H247 C231 0.961 . S
H248 C232 0.931 . S
H249 C237 0.930 . S
H250 C238 0.956 . S
H251 C238 0.945 1_565 S
H252 C238 0.961 . S
H253 C239 0.958 . S
H254 C239 0.961 1_565 S
H255 C239 0.960 1_565 S
C256 C257 1.391 . S
C256 C258 1.394 . S
C256 H272 0.931 . S
C257 C256 1.391 . S
C257 C261 1.376 1_455 S
C258 C256 1.394 . S
C258 C259 1.369 . S
C258 C262 1.531 . S
C259 C258 1.369 . S
C259 C260 1.410 1_455 S
C259 C267 1.503 . S
C260 C259 1.410 1_655 S
C260 C261 1.392 . S
C260 C263 1.511 . S
C261 C257 1.376 1_655 S
C261 C260 1.392 . S
C261 H273 0.929 . S
C262 C258 1.531 . S
C262 H274 0.960 . S
C262 H275 0.962 . S
C262 H276 0.960 . S
C263 C260 1.511 . S
C263 H277 0.961 . S
C263 H278 0.961 . S
C263 H279 0.961 . S
C264 C265 1.370 . S
C264 C266 1.363 . S
C264 H280 0.931 . S
C265 C264 1.370 . S
C265 C269 1.408 . S
C266 C264 1.363 . S
C266 C267 1.370 . S
C266 C270 1.524 . S
C267 C259 1.503 . S
C267 C266 1.370 . S
C267 C268 1.403 . S
C268 C267 1.403 . S
C268 C269 1.404 . S
C268 C271 1.539 1_455 S
C269 C265 1.408 . S
C269 C268 1.404 . S
C269 H281 0.930 1_455 S
C270 C266 1.524 . S
C270 H282 0.956 . S
C270 H283 0.961 . S
C270 H284 0.961 . S
C271 C268 1.539 1_655 S
C271 H285 0.958 1_655 S
C271 H286 0.961 . S
C271 H287 0.960 . S
H272 C256 0.931 . S
H273 C261 0.929 . S
H274 C262 0.960 . S
H275 C262 0.962 . S
H276 C262 0.960 . S
H277 C263 0.961 . S
H278 C263 0.961 . S
H279 C263 0.961 . S
H280 C264 0.931 . S
H281 C269 0.930 1_655 S
H282 C270 0.956 . S
H283 C270 0.961 . S
H284 C270 0.961 . S
H285 C271 0.958 1_455 S
H286 C271 0.961 . S
H287 C271 0.960 . S
C288 C289 1.391 . S
C288 C290 1.394 . S
C288 H304 0.931 . S
C289 C288 1.391 . S
C289 C293 1.376 . S
C290 C288 1.394 . S
C290 C291 1.369 . S
C290 C294 1.531 . S
C291 C290 1.369 . S
C291 C292 1.410 . S
C291 C299 1.503 . S
C292 C291 1.410 . S
C292 C293 1.392 . S
C292 C295 1.511 . S
C293 C289 1.376 . S
C293 C292 1.392 . S
C293 H305 0.929 . S
C294 C290 1.531 . S
C294 H306 0.960 . S
C294 H307 0.962 . S
C294 H308 0.960 . S
C295 C292 1.511 . S
C295 H309 0.961 . S
C295 H310 0.961 . S
C295 H311 0.961 . S
C296 C297 1.370 . S
C296 C298 1.363 . S
C296 H312 0.931 . S
C297 C296 1.370 . S
C297 C301 1.408 . S
C298 C296 1.363 . S
C298 C299 1.370 . S
C298 C302 1.524 . S
C299 C291 1.503 . S
C299 C298 1.370 . S
C299 C300 1.403 . S
C300 C299 1.403 . S
C300 C301 1.404 . S
C300 C303 1.539 . S
C301 C297 1.408 . S
C301 C300 1.404 . S
C301 H313 0.930 . S
C302 C298 1.524 . S
C302 H314 0.956 . S
C302 H315 0.961 . S
C302 H316 0.961 . S
C303 C300 1.539 . S
C303 H317 0.958 . S
C303 H318 0.961 . S
C303 H319 0.960 . S
H304 C288 0.931 . S
H305 C293 0.929 . S
H306 C294 0.960 . S
H307 C294 0.962 . S
H308 C294 0.960 . S
H309 C295 0.961 . S
H310 C295 0.961 . S
H311 C295 0.961 . S
H312 C296 0.931 . S
H313 C301 0.930 . S
H314 C302 0.956 . S
H315 C302 0.961 . S
H316 C302 0.961 . S
H317 C303 0.958 . S
H318 C303 0.961 . S
H319 C303 0.960 . S
C320 C321 1.391 . S
C320 C322 1.394 . S
C320 H336 0.931 . S
C321 C320 1.391 . S
C321 C325 1.376 . S
C322 C320 1.394 . S
C322 C323 1.369 . S
C322 C326 1.531 . S
C323 C322 1.369 . S
C323 C324 1.410 . S
C323 C331 1.503 . S
C324 C323 1.410 . S
C324 C325 1.392 . S
C324 C327 1.511 . S
C325 C321 1.376 . S
C325 C324 1.392 . S
C325 H337 0.929 1_655 S
C326 C322 1.531 . S
C326 H338 0.960 . S
C326 H339 0.962 . S
C326 H340 0.960 . S
C327 C324 1.511 . S
C327 H341 0.961 1_655 S
C327 H342 0.961 . S
C327 H343 0.961 1_655 S
C328 C329 1.370 . S
C328 C330 1.363 . S
C328 H344 0.931 . S
C329 C328 1.370 . S
C329 C333 1.408 . S
C330 C328 1.363 . S
C330 C331 1.370 . S
C330 C334 1.524 . S
C331 C323 1.503 . S
C331 C330 1.370 . S
C331 C332 1.403 . S
C332 C331 1.403 . S
C332 C333 1.404 . S
C332 C335 1.539 . S
C333 C329 1.408 . S
C333 C332 1.404 . S
C333 H345 0.930 . S
C334 C330 1.524 . S
C334 H346 0.956 . S
C334 H347 0.961 . S
C334 H348 0.961 . S
C335 C332 1.539 . S
C335 H349 0.958 . S
C335 H350 0.961 . S
C335 H351 0.960 . S
H336 C320 0.931 . S
H337 C325 0.929 1_455 S
H338 C326 0.960 . S
H339 C326 0.962 . S
H340 C326 0.960 . S
H341 C327 0.961 1_455 S
H342 C327 0.961 . S
H343 C327 0.961 1_455 S
H344 C328 0.931 . S
H345 C333 0.930 . S
H346 C334 0.956 . S
H347 C334 0.961 . S
H348 C334 0.961 . S
H349 C335 0.958 . S
H350 C335 0.961 . S
H351 C335 0.960 . S
C352 C353 1.391 . S
C352 C354 1.394 . S
C352 H368 0.931 . S
C353 C352 1.391 . S
C353 C357 1.376 . S
C354 C352 1.394 . S
C354 C355 1.369 . S
C354 C358 1.531 . S
C355 C354 1.369 . S
C355 C356 1.410 . S
C355 C363 1.503 . S
C356 C355 1.410 . S
C356 C357 1.392 . S
C356 C359 1.511 . S
C357 C353 1.376 . S
C357 C356 1.392 . S
C357 H369 0.929 . S
C358 C354 1.531 . S
C358 H370 0.960 . S
C358 H371 0.962 . S
C358 H372 0.960 . S
C359 C356 1.511 . S
C359 H373 0.961 . S
C359 H374 0.961 . S
C359 H375 0.961 . S
C360 C361 1.370 . S
C360 C362 1.363 . S
C360 H376 0.931 . S
C361 C360 1.370 . S
C361 C365 1.408 . S
C362 C360 1.363 . S
C362 C363 1.370 . S
C362 C366 1.524 . S
C363 C355 1.503 . S
C363 C362 1.370 . S
C363 C364 1.403 . S
C364 C363 1.403 . S
C364 C365 1.404 . S
C364 C367 1.539 1_565 S
C365 C361 1.408 . S
C365 C364 1.404 . S
C365 H377 0.930 1_565 S
C366 C362 1.524 . S
C366 H378 0.956 . S
C366 H379 0.961 . S
C366 H380 0.961 . S
C367 C364 1.539 1_545 S
C367 H381 0.958 . S
C367 H382 0.961 . S
C367 H383 0.960 1_545 S
H368 C352 0.931 . S
H369 C357 0.929 . S
H370 C358 0.960 . S
H371 C358 0.962 . S
H372 C358 0.960 . S
H373 C359 0.961 . S
H374 C359 0.961 . S
H375 C359 0.961 . S
H376 C360 0.931 . S
H377 C365 0.930 1_545 S
H378 C366 0.956 . S
H379 C366 0.961 . S
H380 C366 0.961 . S
H381 C367 0.958 . S
H382 C367 0.961 . S
H383 C367 0.960 1_565 S
C384 C385 1.391 . S
C384 C386 1.394 . S
C384 H400 0.931 . S
C385 C384 1.391 . S
C385 C389 1.376 . S
C386 C384 1.394 . S
C386 C387 1.369 . S
C386 C390 1.531 . S
C387 C386 1.369 . S
C387 C388 1.410 . S
C387 C395 1.503 . S
C388 C387 1.410 . S
C388 C389 1.392 . S
C388 C391 1.511 . S
C389 C385 1.376 . S
C389 C388 1.392 . S
C389 H401 0.929 . S
C390 C386 1.531 . S
C390 H402 0.960 . S
C390 H403 0.962 . S
C390 H404 0.960 . S
C391 C388 1.511 . S
C391 H405 0.961 . S
C391 H406 0.961 . S
C391 H407 0.961 . S
C392 C393 1.370 . S
C392 C394 1.363 . S
C392 H408 0.931 . S
C393 C392 1.370 . S
C393 C397 1.408 . S
C394 C392 1.363 . S
C394 C395 1.370 . S
C394 C398 1.524 . S
C395 C387 1.503 . S
C395 C394 1.370 . S
C395 C396 1.403 . S
C396 C395 1.403 . S
C396 C397 1.404 . S
C396 C399 1.539 . S
C397 C393 1.408 . S
C397 C396 1.404 . S
C397 H409 0.930 . S
C398 C394 1.524 . S
C398 H410 0.956 . S
C398 H411 0.961 . S
C398 H412 0.961 . S
C399 C396 1.539 . S
C399 H413 0.958 . S
C399 H414 0.961 . S
C399 H415 0.960 . S
H400 C384 0.931 . S
H401 C389 0.929 . S
H402 C390 0.960 . S
H403 C390 0.962 . S
H404 C390 0.960 . S
H405 C391 0.961 . S
H406 C391 0.961 . S
H407 C391 0.961 . S
H408 C392 0.931 . S
H409 C397 0.930 . S
H410 C398 0.956 . S
H411 C398 0.961 . S
H412 C398 0.961 . S
H413 C399 0.958 . S
H414 C399 0.961 . S
H415 C399 0.960 . S
C416 C417 1.391 . S
C416 C418 1.394 . S
C416 H432 0.931 . S
C417 C416 1.391 . S
C417 C421 1.376 . S
C418 C416 1.394 . S
C418 C419 1.369 . S
C418 C422 1.531 . S
C419 C418 1.369 . S
C419 C420 1.410 . S
C419 C427 1.503 . S
C420 C419 1.410 . S
C420 C421 1.392 . S
C420 C423 1.511 . S
C421 C417 1.376 . S
C421 C420 1.392 . S
C421 H433 0.929 . S
C422 C418 1.531 . S
C422 H434 0.960 . S
C422 H435 0.962 . S
C422 H436 0.960 . S
C423 C420 1.511 . S
C423 H437 0.961 . S
C423 H438 0.961 . S
C423 H439 0.961 . S
C424 C425 1.370 . S
C424 C426 1.363 . S
C424 H440 0.931 . S
C425 C424 1.370 . S
C425 C429 1.408 . S
C426 C424 1.363 . S
C426 C427 1.370 . S
C426 C430 1.524 . S
C427 C419 1.503 . S
C427 C426 1.370 . S
C427 C428 1.403 . S
C428 C427 1.403 . S
C428 C429 1.404 . S
C428 C431 1.539 . S
C429 C425 1.408 . S
C429 C428 1.404 . S
C429 H441 0.930 . S
C430 C426 1.524 . S
C430 H442 0.956 . S
C430 H443 0.961 . S
C430 H444 0.961 . S
C431 C428 1.539 . S
C431 H445 0.958 . S
C431 H446 0.961 . S
C431 H447 0.960 . S
H432 C416 0.931 . S
H433 C421 0.929 . S
H434 C422 0.960 . S
H435 C422 0.962 . S
H436 C422 0.960 . S
H437 C423 0.961 . S
H438 C423 0.961 . S
H439 C423 0.961 . S
H440 C424 0.931 . S
H441 C429 0.930 . S
H442 C430 0.956 . S
H443 C430 0.961 . S
H444 C430 0.961 . S
H445 C431 0.958 . S
H446 C431 0.961 . S
H447 C431 0.960 . S
C448 C449 1.391 . S
C448 C450 1.394 . S
C448 H464 0.931 . S
C449 C448 1.391 . S
C449 C453 1.376 . S
C450 C448 1.394 . S
C450 C451 1.369 . S
C450 C454 1.531 . S
C451 C450 1.369 . S
C451 C452 1.410 . S
C451 C459 1.503 . S
C452 C451 1.410 . S
C452 C453 1.392 . S
C452 C455 1.511 . S
C453 C449 1.376 . S
C453 C452 1.392 . S
C453 H465 0.929 . S
C454 C450 1.531 . S
C454 H466 0.960 . S
C454 H467 0.962 . S
C454 H468 0.960 . S
C455 C452 1.511 . S
C455 H469 0.961 . S
C455 H470 0.961 . S
C455 H471 0.961 . S
C456 C457 1.370 . S
C456 C458 1.363 . S
C456 H472 0.931 . S
C457 C456 1.370 . S
C457 C461 1.408 . S
C458 C456 1.363 . S
C458 C459 1.370 . S
C458 C462 1.524 . S
C459 C451 1.503 . S
C459 C458 1.370 . S
C459 C460 1.403 . S
C460 C459 1.403 . S
C460 C461 1.404 . S
C460 C463 1.539 . S
C461 C457 1.408 . S
C461 C460 1.404 . S
C461 H473 0.930 . S
C462 C458 1.524 . S
C462 H474 0.956 . S
C462 H475 0.961 . S
C462 H476 0.961 . S
C463 C460 1.539 . S
C463 H477 0.958 . S
C463 H478 0.961 . S
C463 H479 0.960 . S
H464 C448 0.931 . S
H465 C453 0.929 . S
H466 C454 0.960 . S
H467 C454 0.962 . S
H468 C454 0.960 . S
H469 C455 0.961 . S
H470 C455 0.961 . S
H471 C455 0.961 . S
H472 C456 0.931 . S
H473 C461 0.930 . S
H474 C462 0.956 . S
H475 C462 0.961 . S
H476 C462 0.961 . S
H477 C463 0.958 . S
H478 C463 0.961 . S
H479 C463 0.960 . S
C480 C481 1.391 . S
C480 C482 1.394 . S
C480 H496 0.931 . S
C481 C480 1.391 . S
C481 C485 1.376 . S
C482 C480 1.394 . S
C482 C483 1.369 . S
C482 C486 1.531 . S
C483 C482 1.369 . S
C483 C484 1.410 . S
C483 C491 1.528 . S
C484 C483 1.410 . S
C484 C485 1.392 . S
C484 C487 1.511 . S
C485 C481 1.376 . S
C485 C484 1.392 . S
C485 H497 0.929 . S
C486 C482 1.531 . S
C486 H498 0.960 . S
C486 H499 0.962 . S
C486 H500 0.960 . S
C487 C484 1.511 . S
C487 H501 0.961 . S
C487 H502 0.961 . S
C487 H503 0.961 . S
C488 C489 1.370 . S
C488 C490 1.370 . S
C488 H504 0.931 . S
C489 C488 1.370 . S
C489 C493 1.408 . S
C490 C488 1.370 . S
C490 C491 1.369 1_554 S
C490 C494 1.518 1_554 S
C491 C483 1.528 . S
C491 C490 1.369 1_556 S
C491 C492 1.379 1_556 S
C492 C491 1.379 1_554 S
C492 C493 1.404 . S
C492 C495 1.539 . S
C493 C489 1.408 . S
C493 C492 1.404 . S
C493 H505 0.930 . S
C494 C490 1.518 1_556 S
C494 H506 0.956 . S
C494 H507 0.961 . S
C494 H508 0.961 . S
C495 C492 1.539 . S
C495 H509 0.958 . S
C495 H510 0.961 . S
C495 H511 0.960 . S
H496 C480 0.931 . S
H497 C485 0.929 . S
H498 C486 0.960 . S
H499 C486 0.962 . S
H500 C486 0.960 . S
H501 C487 0.961 . S
H502 C487 0.961 . S
H503 C487 0.961 . S
H504 C488 0.931 . S
H505 C493 0.930 . S
H506 C494 0.956 . S
H507 C494 0.961 . S
H508 C494 0.961 . S
H509 C495 0.958 . S
H510 C495 0.961 . S
H511 C495 0.960 . S
C512 C513 1.391 . S
C512 C514 1.394 . S
C512 H528 0.931 . S
C513 C512 1.391 . S
C513 C517 1.376 . S
C514 C512 1.394 . S
C514 C515 1.369 . S
C514 C518 1.531 . S
C515 C514 1.369 . S
C515 C516 1.410 . S
C515 C523 1.503 . S
C516 C515 1.410 . S
C516 C517 1.392 . S
C516 C519 1.511 . S
C517 C513 1.376 . S
C517 C516 1.392 . S
C517 H529 0.929 . S
C518 C514 1.531 . S
C518 H530 0.960 . S
C518 H531 0.962 . S
C518 H532 0.960 . S
C519 C516 1.511 . S
C519 H533 0.961 . S
C519 H534 0.961 . S
C519 H535 0.961 . S
C520 C521 1.370 . S
C520 C522 1.363 . S
C520 H536 0.931 . S
C521 C520 1.370 . S
C521 C525 1.408 . S
C522 C520 1.363 . S
C522 C523 1.370 . S
C522 C526 1.524 . S
C523 C515 1.503 . S
C523 C522 1.370 . S
C523 C524 1.403 . S
C524 C523 1.403 . S
C524 C525 1.404 . S
C524 C527 1.539 . S
C525 C521 1.408 . S
C525 C524 1.404 . S
C525 H537 0.930 . S
C526 C522 1.524 . S
C526 H538 0.956 . S
C526 H539 0.961 . S
C526 H540 0.961 . S
C527 C524 1.539 . S
C527 H541 0.958 . S
C527 H542 0.961 . S
C527 H543 0.960 . S
H528 C512 0.931 . S
H529 C517 0.929 . S
H530 C518 0.960 . S
H531 C518 0.962 . S
H532 C518 0.960 . S
H533 C519 0.961 . S
H534 C519 0.961 . S
H535 C519 0.961 . S
H536 C520 0.931 . S
H537 C525 0.930 . S
H538 C526 0.956 . S
H539 C526 0.961 . S
H540 C526 0.961 . S
H541 C527 0.958 . S
H542 C527 0.961 . S
H543 C527 0.960 . S
C161 C89 0.617 . S
C169 C18 0.698 . S
C193 C138 0.570 . S
C201 C49 0.704 . S
C225 C98 0.996 . S
C233 C9 1.011 . S
C257 C58 1.019 . S
C265 C129 0.998 . S
C289 C50 1.525 . S
C297 C6 1.547 . S
C321 C59 2.290 . S
C329 C99 2.297 1_556 S
C353 C126 1.530 . S
C361 C90 1.520 . S
C385 C135 0.872 . S
C393 C15 0.898 . S
C417 C95 1.552 . S
C425 C139 1.516 . S
C449 C10 2.290 . S
C457 C130 2.297 . S
C481 C55 1.550 . S
C489 C19 1.515 . S
C513 C86 0.929 . S
C521 C46 0.906 . S
