# Generated by pormake.
# Topology gsi, (4)-cn, num edge types: 1
# Building blocks:
#     Node 0, Type 0, BuildingBlock: UXUYUI_clean_sbu_0, # of connection points: 4
#     Node 1, Type 0, BuildingBlock: UXUYUI_clean_sbu_0, # of connection points: 4
#     Node 2, Type 0, BuildingBlock: UXUYUI_clean_sbu_0, # of connection points: 4
#     Node 3, Type 0, BuildingBlock: UXUYUI_clean_sbu_0, # of connection points: 4
#     Node 4, Type 0, BuildingBlock: UXUYUI_clean_sbu_0, # of connection points: 4
#     Node 5, Type 0, BuildingBlock: UXUYUI_clean_sbu_0, # of connection points: 4
#     Node 6, Type 0, BuildingBlock: UXUYUI_clean_sbu_0, # of connection points: 4
#     Node 7, Type 0, BuildingBlock: UXUYUI_clean_sbu_0, # of connection points: 4
#     Node 8, Type 0, BuildingBlock: UXUYUI_clean_sbu_0, # of connection points: 4
#     Node 9, Type 0, BuildingBlock: UXUYUI_clean_sbu_0, # of connection points: 4
#     Node 10, Type 0, BuildingBlock: UXUYUI_clean_sbu_0, # of connection points: 4
#     Node 11, Type 0, BuildingBlock: UXUYUI_clean_sbu_0, # of connection points: 4
#     Node 12, Type 0, BuildingBlock: UXUYUI_clean_sbu_0, # of connection points: 4
#     Node 13, Type 0, BuildingBlock: UXUYUI_clean_sbu_0, # of connection points: 4
#     Node 14, Type 0, BuildingBlock: UXUYUI_clean_sbu_0, # of connection points: 4
#     Node 15, Type 0, BuildingBlock: UXUYUI_clean_sbu_0, # of connection points: 4
#     Edge 16, Type (0, 0), BuildingBlock: AJUNOK_clean_linker_0, # of connection points: 2
#     Edge 17, Type (0, 0), BuildingBlock: AJUNOK_clean_linker_0, # of connection points: 2
#     Edge 18, Type (0, 0), BuildingBlock: AJUNOK_clean_linker_0, # of connection points: 2
#     Edge 19, Type (0, 0), BuildingBlock: AJUNOK_clean_linker_0, # of connection points: 2
#     Edge 20, Type (0, 0), BuildingBlock: AJUNOK_clean_linker_0, # of connection points: 2
#     Edge 21, Type (0, 0), BuildingBlock: AJUNOK_clean_linker_0, # of connection points: 2
#     Edge 22, Type (0, 0), BuildingBlock: AJUNOK_clean_linker_0, # of connection points: 2
#     Edge 23, Type (0, 0), BuildingBlock: AJUNOK_clean_linker_0, # of connection points: 2
#     Edge 24, Type (0, 0), BuildingBlock: AJUNOK_clean_linker_0, # of connection points: 2
#     Edge 25, Type (0, 0), BuildingBlock: AJUNOK_clean_linker_0, # of connection points: 2
#     Edge 26, Type (0, 0), BuildingBlock: AJUNOK_clean_linker_0, # of connection points: 2
#     Edge 27, Type (0, 0), BuildingBlock: AJUNOK_clean_linker_0, # of connection points: 2
#     Edge 28, Type (0, 0), BuildingBlock: AJUNOK_clean_linker_0, # of connection points: 2
#     Edge 29, Type (0, 0), BuildingBlock: AJUNOK_clean_linker_0, # of connection points: 2
#     Edge 30, Type (0, 0), BuildingBlock: AJUNOK_clean_linker_0, # of connection points: 2
#     Edge 31, Type (0, 0), BuildingBlock: AJUNOK_clean_linker_0, # of connection points: 2
#     Edge 32, Type (0, 0), BuildingBlock: AJUNOK_clean_linker_0, # of connection points: 2
#     Edge 33, Type (0, 0), BuildingBlock: AJUNOK_clean_linker_0, # of connection points: 2
#     Edge 34, Type (0, 0), BuildingBlock: AJUNOK_clean_linker_0, # of connection points: 2
#     Edge 35, Type (0, 0), BuildingBlock: AJUNOK_clean_linker_0, # of connection points: 2
#     Edge 36, Type (0, 0), BuildingBlock: AJUNOK_clean_linker_0, # of connection points: 2
#     Edge 37, Type (0, 0), BuildingBlock: AJUNOK_clean_linker_0, # of connection points: 2
#     Edge 38, Type (0, 0), BuildingBlock: AJUNOK_clean_linker_0, # of connection points: 2
#     Edge 39, Type (0, 0), BuildingBlock: AJUNOK_clean_linker_0, # of connection points: 2
#     Edge 40, Type (0, 0), BuildingBlock: AJUNOK_clean_linker_0, # of connection points: 2
#     Edge 41, Type (0, 0), BuildingBlock: AJUNOK_clean_linker_0, # of connection points: 2
#     Edge 42, Type (0, 0), BuildingBlock: AJUNOK_clean_linker_0, # of connection points: 2
#     Edge 43, Type (0, 0), BuildingBlock: AJUNOK_clean_linker_0, # of connection points: 2
#     Edge 44, Type (0, 0), BuildingBlock: AJUNOK_clean_linker_0, # of connection points: 2
#     Edge 45, Type (0, 0), BuildingBlock: AJUNOK_clean_linker_0, # of connection points: 2
#     Edge 46, Type (0, 0), BuildingBlock: AJUNOK_clean_linker_0, # of connection points: 2
#     Edge 47, Type (0, 0), BuildingBlock: AJUNOK_clean_linker_0, # of connection points: 2
# Relax obj value: 0.073
# Max RMSD: 0.058
# Mean RMSD: 0.058
data_MOF--net-gsi--node1-UXUYUI_clean_sbu_0--edge1-AJUNOK_clean_linker_0
_symmetry_space_group_name_H-M    P1
_symmetry_Int_Tables_number       1
_symmetry_cell_setting            triclinic
loop_
_symmetry_equiv_pos_as_xyz
'x, y, z'
_cell_length_a     50.669015
_cell_length_b     50.58775
_cell_length_c     50.678969
_cell_angle_alpha  90.013583
_cell_angle_beta   90.006116
_cell_angle_gamma 90.041012
loop_
_atom_site_label
_atom_site_type_symbol
_atom_site_fract_x
_atom_site_fract_y
_atom_site_fract_z
_atom_type_partial_charge
Li0 Li 0.13626 0.17781 0.15429 0.0
Li1 Li 0.18005 0.17967 0.17756 0.0
Li2 Li 0.17612 0.15724 0.13567 0.0
Li3 Li 0.15861 0.13703 0.17504 0.0
C4 C 0.17835 0.20753 0.1217 0.0
N5 N 0.19791 0.23031 0.07623 0.0
C6 C 0.20419 0.21715 0.12107 0.0
C7 C 0.16236 0.20964 0.09933 0.0
C8 C 0.21374 0.22855 0.09784 0.0
C9 C 0.17264 0.2212 0.07651 0.0
C10 C 0.14437 0.18329 0.21549 0.0
C11 C 0.16016 0.18975 0.25994 0.0
N12 N 0.14496 0.21181 0.262 0.0
C13 C 0.12875 0.2059 0.21811 0.0
C14 C 0.16004 0.175 0.23663 0.0
C15 C 0.12937 0.22008 0.24177 0.0
C16 C 0.08041 0.18668 0.15049 0.0
N17 N 0.10478 0.19782 0.14894 0.0
C18 C 0.08584 0.24082 0.14367 0.0
C19 C 0.10784 0.22431 0.1455 0.0
C20 C 0.06038 0.22999 0.14539 0.0
C21 C 0.0578 0.20251 0.14877 0.0
H22 H 0.07855 0.1656 0.15357 0.0
H23 H 0.12746 0.23273 0.14493 0.0
C24 C 0.225 0.19408 0.20733 0.0
N25 N 0.20127 0.20252 0.19814 0.0
C26 C 0.2403 0.21056 0.22325 0.0
C27 C 0.20671 0.2443 0.21938 0.0
C28 C 0.19217 0.22725 0.20334 0.0
C29 C 0.23096 0.23584 0.22971 0.0
H30 H 0.23201 0.17455 0.20237 0.0
H31 H 0.1735 0.23361 0.19521 0.0
C32 C 0.13508 0.12766 0.11735 0.0
N33 N 0.12478 0.10062 0.07114 0.0
C34 C 0.1488 0.10443 0.11153 0.0
C35 C 0.11602 0.13709 0.09979 0.0
C36 C 0.14335 0.09107 0.08802 0.0
C37 C 0.11111 0.12312 0.07651 0.0
C38 C 0.20974 0.12415 0.17487 0.0
C39 C 0.21824 0.10565 0.15622 0.0
C40 C 0.21525 0.12003 0.20159 0.0
C41 C 0.23206 0.0833 0.16463 0.0
C42 C 0.22905 0.09739 0.20922 0.0
N43 N 0.23711 0.07966 0.19074 0.0
C44 C 0.22283 0.15493 0.10673 0.0
C45 C 0.18554 0.15013 0.07896 0.0
C46 C 0.23976 0.15407 0.08501 0.0
N47 N 0.19625 0.15277 0.10347 0.0
C48 C 0.20181 0.1488 0.05668 0.0
C49 C 0.22929 0.15083 0.05962 0.0
H50 H 0.23089 0.15786 0.12627 0.0
H51 H 0.16442 0.14983 0.07648 0.0
C52 C 0.13943 0.10745 0.2185 0.0
N53 N 0.15225 0.10514 0.19501 0.0
C54 C 0.13691 0.08565 0.23527 0.0
C55 C 0.16026 0.0592 0.2032 0.0
C56 C 0.1619 0.0814 0.18683 0.0
C57 C 0.14785 0.06129 0.22786 0.0
H58 H 0.13164 0.12638 0.22452 0.0
H59 H 0.17159 0.07978 0.16796 0.0
O60 O 0.16893 0.19553 0.14394 0.0
O61 O 0.14452 0.16949 0.19226 0.0
O62 O 0.13995 0.14094 0.1403 0.0
O63 O 0.19617 0.14618 0.16703 0.0
H64 H 0.2168 0.21553 0.13824 0.0
H65 H 0.14237 0.20208 0.09951 0.0
H66 H 0.23377 0.23593 0.09697 0.0
H67 H 0.16057 0.22282 0.05897 0.0
H68 H 0.17237 0.18369 0.27636 0.0
H69 H 0.11644 0.21255 0.202 0.0
H70 H 0.17218 0.15752 0.23495 0.0
H71 H 0.1175 0.2377 0.24403 0.0
H72 H 0.08876 0.26194 0.14176 0.0
H73 H 0.0385 0.1934 0.15025 0.0
H74 H 0.25902 0.20349 0.23078 0.0
H75 H 0.19919 0.2639 0.22354 0.0
H76 H 0.16369 0.09698 0.12486 0.0
H77 H 0.10523 0.15505 0.10406 0.0
H78 H 0.15393 0.07315 0.08316 0.0
H79 H 0.09647 0.13021 0.06268 0.0
H80 H 0.2139 0.10827 0.1355 0.0
H81 H 0.20875 0.13405 0.21632 0.0
H82 H 0.23866 0.06878 0.15042 0.0
H83 H 0.23331 0.0939 0.22984 0.0
H84 H 0.26084 0.15595 0.08803 0.0
H85 H 0.19299 0.14698 0.0373 0.0
H86 H 0.12729 0.088 0.25421 0.0
H87 H 0.16877 0.04065 0.19678 0.0
Li88 Li 0.84966 0.35116 0.17848 0.0
Li89 Li 0.89129 0.35054 0.15668 0.0
Li90 Li 0.87109 0.3932 0.17594 0.0
Li91 Li 0.85153 0.37004 0.13595 0.0
C92 C 0.88623 0.3485 0.2174 0.0
N93 N 0.88954 0.3229 0.26543 0.0
C94 C 0.88814 0.32096 0.21836 0.0
C95 C 0.8862 0.36306 0.24085 0.0
C96 C 0.88971 0.30838 0.24284 0.0
C97 C 0.88786 0.34974 0.26494 0.0
C98 C 0.86411 0.31891 0.12265 0.0
C99 C 0.88463 0.31678 0.07973 0.0
N100 N 0.8757 0.29159 0.07683 0.0
C101 C 0.85517 0.29298 0.11923 0.0
C102 C 0.87901 0.33089 0.10274 0.0
C103 C 0.86122 0.27951 0.09594 0.0
C104 C 0.81588 0.30885 0.19006 0.0
N105 N 0.82753 0.33045 0.20096 0.0
C106 C 0.80682 0.32176 0.2424 0.0
C107 C 0.82324 0.33718 0.22659 0.0
C108 C 0.79458 0.29934 0.23165 0.0
C109 C 0.79933 0.29285 0.20515 0.0
H110 H 0.81939 0.30412 0.16958 0.0
H111 H 0.83233 0.35468 0.23472 0.0
C112 C 0.94688 0.34207 0.14781 0.0
N113 N 0.92301 0.33043 0.1518 0.0
C114 C 0.96971 0.32655 0.14565 0.0
C115 C 0.94284 0.28752 0.15146 0.0
C116 C 0.92067 0.30371 0.15356 0.0
C117 C 0.96782 0.29885 0.14757 0.0
H118 H 0.94826 0.36338 0.14672 0.0
H119 H 0.90153 0.29489 0.15692 0.0
C120 C 0.81022 0.38431 0.18015 0.0
N121 N 0.76277 0.38074 0.20686 0.0
C122 C 0.78869 0.37146 0.1686 0.0
C123 C 0.80754 0.39548 0.20525 0.0
C124 C 0.7649 0.36979 0.18245 0.0
C125 C 0.7834 0.39347 0.21842 0.0
C126 C 0.89332 0.40693 0.12343 0.0
C127 C 0.87997 0.43094 0.12613 0.0
C128 C 0.91252 0.4041 0.10384 0.0
C129 C 0.88597 0.45175 0.10903 0.0
C130 C 0.91791 0.42536 0.08709 0.0
N131 N 0.90464 0.44855 0.09001 0.0
C132 C 0.90045 0.42909 0.20789 0.0
C133 C 0.85798 0.44407 0.19535 0.0
C134 C 0.90386 0.45114 0.22425 0.0
N135 N 0.87758 0.42575 0.19424 0.0
C136 C 0.86047 0.46627 0.21156 0.0
C137 C 0.88341 0.46977 0.22676 0.0
H138 H 0.91573 0.41421 0.20668 0.0
H139 H 0.83998 0.44098 0.1843 0.0
C140 C 0.81361 0.35399 0.09956 0.0
N141 N 0.83167 0.37351 0.10352 0.0
C142 C 0.79742 0.35411 0.07729 0.0
C143 C 0.81848 0.39453 0.06324 0.0
C144 C 0.83438 0.3936 0.08584 0.0
C145 C 0.79979 0.37451 0.0587 0.0
H146 H 0.81159 0.3383 0.1139 0.0
H147 H 0.84872 0.40896 0.08914 0.0
O148 O 0.8845 0.36119 0.19364 0.0
O149 O 0.85827 0.33226 0.14547 0.0
O150 O 0.83384 0.38567 0.16709 0.0
O151 O 0.88808 0.38643 0.14021 0.0
H152 H 0.88792 0.30941 0.20043 0.0
H153 H 0.88465 0.38438 0.24047 0.0
H154 H 0.89098 0.28706 0.24389 0.0
H155 H 0.88774 0.36073 0.28325 0.0
H156 H 0.8961 0.32586 0.06417 0.0
H157 H 0.84375 0.28328 0.13444 0.0
H158 H 0.88613 0.35086 0.10488 0.0
H159 H 0.85443 0.25944 0.09306 0.0
H160 H 0.80347 0.32745 0.26274 0.0
H161 H 0.79058 0.27545 0.19628 0.0
H162 H 0.98865 0.33614 0.14315 0.0
H163 H 0.94046 0.26629 0.15293 0.0
H164 H 0.79036 0.36265 0.14928 0.0
H165 H 0.82408 0.40503 0.21478 0.0
H166 H 0.74815 0.35974 0.17379 0.0
H167 H 0.78114 0.40184 0.23793 0.0
H168 H 0.86481 0.43331 0.14091 0.0
H169 H 0.92316 0.38568 0.10163 0.0
H170 H 0.87568 0.4704 0.11079 0.0
H171 H 0.93269 0.42345 0.0718 0.0
H172 H 0.92216 0.4534 0.23504 0.0
H173 H 0.84421 0.48009 0.21287 0.0
H174 H 0.78289 0.33858 0.07485 0.0
H175 H 0.82092 0.41061 0.04934 0.0
Li176 Li 0.15938 0.89652 0.35347 0.0
Li177 Li 0.17644 0.87528 0.39277 0.0
Li178 Li 0.18085 0.85378 0.35033 0.0
Li179 Li 0.1369 0.85507 0.37286 0.0
C180 C 0.21159 0.90873 0.35548 0.0
N181 N 0.24183 0.95237 0.34264 0.0
C182 C 0.2201 0.92608 0.37522 0.0
C183 C 0.21858 0.91353 0.32923 0.0
C184 C 0.23537 0.94802 0.36833 0.0
C185 C 0.23381 0.93574 0.32313 0.0
C186 C 0.13573 0.90625 0.41011 0.0
C187 C 0.11193 0.91362 0.45064 0.0
N188 N 0.1262 0.93604 0.45477 0.0
C189 C 0.15007 0.92939 0.41467 0.0
C190 C 0.11645 0.89828 0.42816 0.0
C191 C 0.14501 0.94416 0.43741 0.0
C192 C 0.13837 0.92694 0.31156 0.0
N193 N 0.15324 0.92871 0.33386 0.0
C194 C 0.16302 0.97409 0.32448 0.0
C195 C 0.16483 0.95196 0.34091 0.0
C196 C 0.14849 0.9725 0.30097 0.0
C197 C 0.13565 0.94872 0.29479 0.0
H198 H 0.12908 0.90841 0.30643 0.0
H199 H 0.17612 0.95325 0.35889 0.0
C200 C 0.22262 0.8745 0.42213 0.0
N201 N 0.19629 0.87878 0.42516 0.0
C202 C 0.23953 0.87496 0.44387 0.0
C203 C 0.20201 0.88401 0.4718 0.0
C204 C 0.18573 0.88308 0.44949 0.0
C205 C 0.22929 0.87995 0.46908 0.0
H206 H 0.23047 0.87039 0.40271 0.0
H207 H 0.16469 0.88519 0.45182 0.0
C208 C 0.14614 0.85263 0.31102 0.0
N209 N 0.14779 0.82843 0.26217 0.0
C210 C 0.13056 0.83038 0.30601 0.0
C211 C 0.1623 0.86277 0.2911 0.0
C212 C 0.13173 0.81838 0.2812 0.0
C213 C 0.16295 0.85019 0.26657 0.0
C214 C 0.17421 0.82478 0.40701 0.0
C215 C 0.19821 0.81185 0.41114 0.0
C216 C 0.15535 0.82544 0.42712 0.0
C217 C 0.20299 0.79979 0.43548 0.0
C218 C 0.16088 0.81313 0.45116 0.0
N219 N 0.18438 0.80068 0.45481 0.0
C220 C 0.22709 0.83974 0.32272 0.0
C221 C 0.19319 0.80738 0.32239 0.0
C222 C 0.24325 0.82358 0.30737 0.0
N223 N 0.20252 0.83152 0.32963 0.0
C224 C 0.20857 0.79068 0.30681 0.0
C225 C 0.23395 0.79875 0.29924 0.0
H226 H 0.23419 0.8588 0.3292 0.0
H227 H 0.17377 0.80116 0.32871 0.0
C228 C 0.08128 0.84508 0.38078 0.0
N229 N 0.10567 0.83443 0.37732 0.0
C230 C 0.05913 0.8286 0.38292 0.0
C231 C 0.08768 0.7907 0.3778 0.0
C232 C 0.10919 0.80783 0.37583 0.0
C233 C 0.06222 0.80098 0.38149 0.0
H234 H 0.079 0.86632 0.38167 0.0
H235 H 0.12876 0.79993 0.37265 0.0
O236 O 0.19673 0.88704 0.36184 0.0
O237 O 0.14028 0.89159 0.38795 0.0
O238 O 0.14567 0.86435 0.33535 0.0
O239 O 0.16944 0.83731 0.38362 0.0
H240 H 0.21473 0.92287 0.39561 0.0
H241 H 0.21223 0.90034 0.3137 0.0
H242 H 0.242 0.96165 0.38339 0.0
H243 H 0.23925 0.93975 0.30288 0.0
H244 H 0.09711 0.90769 0.46482 0.0
H245 H 0.16513 0.93572 0.40096 0.0
H246 H 0.10519 0.88039 0.42489 0.0
H247 H 0.15606 0.96205 0.44128 0.0
H248 H 0.17302 0.9922 0.32996 0.0
H249 H 0.12435 0.94675 0.27675 0.0
H250 H 0.26043 0.87152 0.441 0.0
H251 H 0.19329 0.88722 0.49105 0.0
H252 H 0.11783 0.82236 0.32115 0.0
H253 H 0.17434 0.88007 0.29461 0.0
H254 H 0.1199 0.80106 0.27709 0.0
H255 H 0.17551 0.85772 0.25103 0.0
H256 H 0.21304 0.81134 0.39577 0.0
H257 H 0.1368 0.83565 0.42431 0.0
H258 H 0.22151 0.78977 0.43902 0.0
H259 H 0.14652 0.81357 0.46696 0.0
H260 H 0.26268 0.83048 0.30169 0.0
H261 H 0.20089 0.77155 0.30101 0.0
H262 H 0.03981 0.83732 0.38568 0.0
H263 H 0.0909 0.76963 0.37586 0.0
Li264 Li 0.85662 0.65522 0.39174 0.0
Li265 Li 0.8746 0.63533 0.35237 0.0
Li266 Li 0.89644 0.67622 0.37328 0.0
Li267 Li 0.85283 0.67767 0.3498 0.0
C268 C 0.89878 0.62734 0.4107 0.0
N269 N 0.91119 0.60283 0.45777 0.0
C270 C 0.88715 0.60315 0.41721 0.0
C271 C 0.91683 0.63902 0.42801 0.0
C272 C 0.89363 0.5911 0.44115 0.0
C273 C 0.92283 0.6263 0.45173 0.0
C274 C 0.824 0.62146 0.35286 0.0
C275 C 0.80505 0.59355 0.31922 0.0
N276 N 0.79806 0.57573 0.33805 0.0
C277 C 0.81661 0.60287 0.3719 0.0
C278 C 0.81812 0.61682 0.32631 0.0
C279 C 0.80349 0.57988 0.36401 0.0
C280 C 0.80958 0.65369 0.41995 0.0
N281 N 0.83599 0.65054 0.42365 0.0
C282 C 0.82924 0.64505 0.47014 0.0
C283 C 0.84604 0.64672 0.44827 0.0
C284 C 0.80183 0.64798 0.46683 0.0
C285 C 0.79216 0.6527 0.44127 0.0
H286 H 0.80208 0.65766 0.40037 0.0
H287 H 0.86706 0.64555 0.4512 0.0
C288 C 0.89253 0.60607 0.30819 0.0
N289 N 0.88122 0.60349 0.33239 0.0
C290 C 0.89506 0.5842 0.29151 0.0
C291 C 0.87497 0.55711 0.32518 0.0
C292 C 0.87311 0.57946 0.34133 0.0
C293 C 0.88588 0.55933 0.29976 0.0
H294 H 0.89922 0.62522 0.30158 0.0
H295 H 0.86433 0.57773 0.36065 0.0
C296 C 0.8537 0.70562 0.40552 0.0
N297 N 0.83322 0.72865 0.45045 0.0
C298 C 0.82804 0.71571 0.40541 0.0
C299 C 0.86904 0.70739 0.42837 0.0
C300 C 0.81802 0.72724 0.42836 0.0
C301 C 0.8583 0.71907 0.45091 0.0
C302 C 0.88864 0.6819 0.31214 0.0
C303 C 0.90466 0.70425 0.30952 0.0
C304 C 0.87257 0.67406 0.29111 0.0
C305 C 0.9041 0.71858 0.28597 0.0
C306 C 0.87253 0.68895 0.2679 0.0
N307 N 0.88815 0.71073 0.26584 0.0
C308 C 0.9522 0.68603 0.37678 0.0
C309 C 0.92413 0.72303 0.3826 0.0
C310 C 0.97454 0.70227 0.37854 0.0
N311 N 0.92764 0.69666 0.37875 0.0
C312 C 0.94584 0.73994 0.38444 0.0
C313 C 0.97147 0.72966 0.38228 0.0
H314 H 0.9544 0.66505 0.37325 0.0
H315 H 0.90438 0.73104 0.38363 0.0
C316 C 0.80774 0.69188 0.32022 0.0
N317 N 0.83148 0.7004 0.32933 0.0
C318 C 0.79208 0.70853 0.30486 0.0
C319 C 0.82557 0.74241 0.30875 0.0
C320 C 0.84044 0.72521 0.32426 0.0
C321 C 0.80098 0.73416 0.29898 0.0
H322 H 0.80091 0.67222 0.32498 0.0
H323 H 0.85928 0.7315 0.33209 0.0
O324 O 0.89298 0.63931 0.38726 0.0
O325 O 0.83693 0.64406 0.36016 0.0
O326 O 0.86357 0.69355 0.38353 0.0
O327 O 0.88851 0.66791 0.33524 0.0
H328 H 0.87307 0.59394 0.40407 0.0
H329 H 0.92602 0.65772 0.42321 0.0
H330 H 0.88468 0.57245 0.44654 0.0
H331 H 0.93671 0.63512 0.46537 0.0
H332 H 0.80051 0.58964 0.29873 0.0
H333 H 0.82125 0.60593 0.3925 0.0
H334 H 0.8238 0.63091 0.3113 0.0
H335 H 0.79776 0.56529 0.37851 0.0
H336 H 0.83767 0.6417 0.48948 0.0
H337 H 0.7714 0.65629 0.43777 0.0
H338 H 0.90384 0.5868 0.27221 0.0
H339 H 0.8671 0.5385 0.33223 0.0
H340 H 0.81593 0.71437 0.38785 0.0
H341 H 0.8889 0.6995 0.42875 0.0
H342 H 0.79814 0.735 0.42865 0.0
H343 H 0.86986 0.72043 0.46881 0.0
H344 H 0.91727 0.71056 0.32554 0.0
H345 H 0.86003 0.65684 0.29282 0.0
H346 H 0.9163 0.73599 0.28371 0.0
H347 H 0.86003 0.68323 0.25156 0.0
H348 H 0.99394 0.69361 0.37623 0.0
H349 H 0.94261 0.7609 0.38734 0.0
H350 H 0.77312 0.70154 0.29787 0.0
H351 H 0.83338 0.76182 0.30424 0.0
Li352 Li 0.35163 0.85177 0.67874 0.0
Li353 Li 0.39293 0.85173 0.65629 0.0
Li354 Li 0.37297 0.89405 0.67645 0.0
Li355 Li 0.35278 0.87147 0.6364 0.0
C356 C 0.39084 0.84781 0.71602 0.0
N357 N 0.39924 0.81955 0.76188 0.0
C358 C 0.39224 0.82023 0.71527 0.0
C359 C 0.39383 0.86105 0.74004 0.0
C360 C 0.39645 0.80629 0.73869 0.0
C361 C 0.39805 0.84639 0.76302 0.0
C362 C 0.36502 0.8205 0.62216 0.0
C363 C 0.38532 0.81856 0.57913 0.0
N364 N 0.37552 0.79376 0.57575 0.0
C365 C 0.35515 0.79498 0.61823 0.0
C366 C 0.38025 0.83239 0.60244 0.0
C367 C 0.36068 0.78179 0.59465 0.0
C368 C 0.31687 0.81019 0.6905 0.0
N369 N 0.33026 0.83071 0.70148 0.0
C370 C 0.3128 0.82055 0.74404 0.0
C371 C 0.32833 0.83628 0.72766 0.0
C372 C 0.29914 0.79894 0.73332 0.0
C373 C 0.30105 0.79396 0.70615 0.0
H374 H 0.31845 0.8065 0.66956 0.0
H375 H 0.33863 0.8531 0.73581 0.0
C376 C 0.44892 0.84314 0.65037 0.0
N377 N 0.42471 0.83154 0.65128 0.0
C378 C 0.47175 0.82756 0.64861 0.0
C379 C 0.44425 0.78857 0.64824 0.0
C380 C 0.42211 0.80479 0.65036 0.0
C381 C 0.46958 0.79981 0.64751 0.0
H382 H 0.45053 0.86443 0.65161 0.0
H383 H 0.4028 0.79587 0.65181 0.0
C384 C 0.31181 0.88404 0.68084 0.0
N385 N 0.26421 0.87819 0.70687 0.0
C386 C 0.29036 0.87221 0.66811 0.0
C387 C 0.30898 0.89303 0.70678 0.0
C388 C 0.26649 0.86938 0.68161 0.0
C389 C 0.28477 0.88987 0.7196 0.0
C390 C 0.3939 0.90898 0.62403 0.0
C391 C 0.38065 0.93285 0.62815 0.0
C392 C 0.41223 0.9069 0.60354 0.0
C393 C 0.38585 0.95425 0.61152 0.0
C394 C 0.41683 0.92874 0.5873 0.0
N395 N 0.40366 0.95176 0.5916 0.0
C396 C 0.40314 0.93109 0.70703 0.0
C397 C 0.35867 0.94309 0.69887 0.0
C398 C 0.40648 0.95312 0.7235 0.0
N399 N 0.37938 0.92634 0.69541 0.0
C400 C 0.361 0.96499 0.71548 0.0
C401 C 0.38502 0.97 0.72822 0.0
H402 H 0.41924 0.91736 0.70414 0.0
H403 H 0.34006 0.93903 0.68926 0.0
C404 C 0.31528 0.85545 0.5991 0.0
N405 N 0.33237 0.87558 0.60428 0.0
C406 C 0.29887 0.85625 0.57699 0.0
C407 C 0.31748 0.89871 0.56578 0.0
C408 C 0.33376 0.89698 0.58805 0.0
C409 C 0.29967 0.87819 0.56012 0.0
H410 H 0.31405 0.83883 0.61243 0.0
H411 H 0.34726 0.91285 0.59233 0.0
O412 O 0.38646 0.86183 0.69339 0.0
O413 O 0.35969 0.83356 0.64525 0.0
O414 O 0.33553 0.88642 0.66811 0.0
O415 O 0.38949 0.88791 0.64034 0.0
H416 H 0.3896 0.8097 0.6969 0.0
H417 H 0.39273 0.8824 0.74094 0.0
H418 H 0.39739 0.78493 0.73844 0.0
H419 H 0.40033 0.85635 0.78178 0.0
H420 H 0.39706 0.82755 0.56373 0.0
H421 H 0.3434 0.78541 0.63329 0.0
H422 H 0.38806 0.85205 0.605 0.0
H423 H 0.35317 0.76204 0.59138 0.0
H424 H 0.31125 0.82539 0.7648 0.0
H425 H 0.29068 0.77751 0.6972 0.0
H426 H 0.49087 0.83713 0.64884 0.0
H427 H 0.44154 0.76735 0.64738 0.0
H428 H 0.29215 0.8651 0.64811 0.0
H429 H 0.32546 0.90175 0.71717 0.0
H430 H 0.24979 0.86013 0.67203 0.0
H431 H 0.28239 0.89652 0.73974 0.0
H432 H 0.36615 0.93468 0.64366 0.0
H433 H 0.42282 0.88861 0.60025 0.0
H434 H 0.37562 0.9728 0.61437 0.0
H435 H 0.43092 0.9274 0.57132 0.0
H436 H 0.42527 0.95644 0.73315 0.0
H437 H 0.3441 0.97772 0.71864 0.0
H438 H 0.28529 0.8401 0.5734 0.0
H439 H 0.31889 0.91584 0.55303 0.0
Li440 Li 0.85444 0.87354 0.8958 0.0
Li441 Li 0.87184 0.89387 0.85313 0.0
Li442 Li 0.85145 0.85026 0.85389 0.0
Li443 Li 0.89474 0.85519 0.87288 0.0
C444 C 0.81017 0.8813 0.85447 0.0
N445 N 0.76029 0.87192 0.83456 0.0
C446 C 0.80276 0.89197 0.83013 0.0
C447 C 0.79215 0.86611 0.86881 0.0
C448 C 0.77746 0.88693 0.82037 0.0
C449 C 0.76703 0.86153 0.85838 0.0
C450 C 0.91354 0.90467 0.88862 0.0
C451 C 0.95247 0.91924 0.86543 0.0
N452 N 0.96143 0.93079 0.88796 0.0
C453 C 0.92312 0.91666 0.91154 0.0
C454 C 0.92831 0.90594 0.86536 0.0
C455 C 0.94738 0.92978 0.91081 0.0
C456 C 0.84072 0.86396 0.94956 0.0
N457 N 0.83623 0.87979 0.92835 0.0
C458 C 0.80034 0.90087 0.95069 0.0
C459 C 0.81688 0.89839 0.92874 0.0
C460 C 0.8034 0.8837 0.9723 0.0
C461 C 0.82438 0.86549 0.97178 0.0
H462 H 0.85618 0.84925 0.94871 0.0
H463 H 0.81375 0.91077 0.91162 0.0
C464 C 0.87091 0.92091 0.80543 0.0
N465 N 0.87478 0.92489 0.83167 0.0
C466 C 0.87136 0.94214 0.78786 0.0
C467 C 0.88005 0.9714 0.82453 0.0
C468 C 0.87947 0.94949 0.84148 0.0
C469 C 0.87555 0.96788 0.79735 0.0
H470 H 0.86708 0.90116 0.79819 0.0
H471 H 0.8824 0.95215 0.86246 0.0
C472 C 0.85607 0.81175 0.89523 0.0
N473 N 0.84001 0.76158 0.90978 0.0
C474 C 0.87078 0.78965 0.88764 0.0
C475 C 0.83328 0.80831 0.91043 0.0
C476 C 0.8623 0.76446 0.89512 0.0
C477 C 0.82547 0.78279 0.91754 0.0
C478 C 0.89544 0.84568 0.81733 0.0
C479 C 0.89273 0.81824 0.81871 0.0
C480 C 0.91014 0.85697 0.79689 0.0
C481 C 0.90491 0.80247 0.79964 0.0
C482 C 0.92204 0.84053 0.77822 0.0
N483 N 0.91921 0.81385 0.77996 0.0
C484 C 0.82814 0.83624 0.80615 0.0
C485 C 0.81615 0.80706 0.84073 0.0
C486 C 0.81254 0.8222 0.78831 0.0
N487 N 0.82968 0.82851 0.83183 0.0
C488 C 0.80071 0.79219 0.82348 0.0
C489 C 0.79877 0.79984 0.79702 0.0
H490 H 0.83893 0.85349 0.79961 0.0
H491 H 0.817 0.80148 0.86114 0.0
C492 C 0.93082 0.82113 0.89899 0.0
N493 N 0.92789 0.83722 0.87768 0.0
C494 C 0.95275 0.80442 0.90101 0.0
C495 C 0.96889 0.82206 0.85978 0.0
C496 C 0.94677 0.8385 0.85863 0.0
C497 C 0.97186 0.80438 0.88093 0.0
H498 H 0.91553 0.82042 0.91387 0.0
H499 H 0.94431 0.85168 0.84206 0.0
O500 O 0.83516 0.88513 0.8639 0.0
O501 O 0.88988 0.89166 0.8891 0.0
O502 O 0.86423 0.83664 0.8884 0.0
O503 O 0.88378 0.86155 0.83582 0.0
H504 H 0.81651 0.90372 0.81877 0.0
H505 H 0.79763 0.85764 0.88763 0.0
H506 H 0.77152 0.89487 0.80147 0.0
H507 H 0.75295 0.84964 0.86917 0.0
H508 H 0.96411 0.92038 0.84757 0.0
H509 H 0.91191 0.9158 0.92972 0.0
H510 H 0.92123 0.8968 0.84742 0.0
H511 H 0.95505 0.93915 0.9284 0.0
H512 H 0.78503 0.91579 0.95053 0.0
H513 H 0.82752 0.85184 0.98793 0.0
H514 H 0.86839 0.93843 0.76702 0.0
H515 H 0.88335 0.99093 0.83264 0.0
H516 H 0.88864 0.79184 0.87618 0.0
H517 H 0.82143 0.82507 0.91626 0.0
H518 H 0.87348 0.74721 0.88931 0.0
H519 H 0.80779 0.77985 0.92914 0.0
H520 H 0.88119 0.80923 0.83418 0.0
H521 H 0.91253 0.87819 0.79561 0.0
H522 H 0.90295 0.78119 0.80046 0.0
H523 H 0.93356 0.84898 0.76235 0.0
H524 H 0.81142 0.82855 0.76793 0.0
H525 H 0.79006 0.77511 0.83078 0.0
H526 H 0.95415 0.79091 0.91752 0.0
H527 H 0.98334 0.82282 0.84405 0.0
Li528 Li 0.1345 0.67543 0.87142 0.0
Li529 Li 0.18007 0.67809 0.85146 0.0
Li530 Li 0.15751 0.63614 0.85458 0.0
Li531 Li 0.17604 0.65597 0.89372 0.0
C532 C 0.13536 0.65825 0.81282 0.0
N533 N 0.11428 0.6349 0.76831 0.0
C534 C 0.15116 0.65409 0.79061 0.0
C535 C 0.10881 0.65079 0.81237 0.0
C536 C 0.14014 0.64216 0.76831 0.0
C537 C 0.09852 0.63898 0.78967 0.0
C538 C 0.17746 0.7184 0.8855 0.0
C539 C 0.21491 0.7477 0.88877 0.0
N540 N 0.19874 0.76871 0.88449 0.0
C541 C 0.16118 0.74031 0.88137 0.0
C542 C 0.20451 0.72213 0.88947 0.0
C543 C 0.17232 0.76557 0.88085 0.0
C544 C 0.08731 0.69476 0.89688 0.0
N545 N 0.10263 0.69535 0.87485 0.0
C546 C 0.07525 0.72871 0.85566 0.0
C547 C 0.09688 0.71168 0.85435 0.0
C548 C 0.05922 0.72897 0.87828 0.0
C549 C 0.06528 0.71139 0.89895 0.0
H550 H 0.09237 0.68162 0.91294 0.0
H551 H 0.10958 0.71196 0.83719 0.0
C552 C 0.22585 0.69093 0.82267 0.0
N553 N 0.20151 0.69965 0.82977 0.0
C554 C 0.24218 0.7067 0.80711 0.0
C555 C 0.20775 0.73976 0.80574 0.0
C556 C 0.19203 0.72328 0.82125 0.0
C557 C 0.23329 0.73161 0.79879 0.0
H558 H 0.23252 0.67166 0.82893 0.0
H559 H 0.1723 0.72936 0.82663 0.0
C560 C 0.12698 0.61714 0.8938 0.0
N561 N 0.10155 0.56953 0.90182 0.0
C562 C 0.1416 0.59428 0.8988 0.0
C563 C 0.09944 0.61588 0.89305 0.0
C564 C 0.12837 0.57037 0.90272 0.0
C565 C 0.08694 0.59159 0.89714 0.0
C566 C 0.21705 0.6314 0.87069 0.0
C567 C 0.21795 0.6038 0.8721 0.0
C568 C 0.23893 0.64619 0.87874 0.0
C569 C 0.24071 0.5915 0.88165 0.0
C570 C 0.26129 0.63316 0.88824 0.0
N571 N 0.26171 0.60631 0.88949 0.0
C572 C 0.17388 0.59806 0.81819 0.0
C573 C 0.1299 0.59041 0.83199 0.0
C574 C 0.17255 0.57691 0.80055 0.0
N575 N 0.15285 0.60435 0.83365 0.0
C576 C 0.12774 0.56895 0.81465 0.0
C577 C 0.14919 0.56214 0.79845 0.0
H578 H 0.19165 0.60987 0.81917 0.0
H579 H 0.11299 0.59633 0.84347 0.0
C580 C 0.19764 0.67388 0.94195 0.0
N581 N 0.19402 0.65175 0.92711 0.0
C582 C 0.21315 0.67308 0.96474 0.0
C583 C 0.22044 0.62653 0.95719 0.0
C584 C 0.20444 0.62814 0.93474 0.0
C585 C 0.22512 0.64927 0.97235 0.0
H586 H 0.18895 0.69236 0.93581 0.0
H587 H 0.20095 0.61065 0.92308 0.0
O588 O 0.14601 0.66896 0.83516 0.0
O589 O 0.16698 0.69345 0.88566 0.0
O590 O 0.13952 0.64074 0.89 0.0
O591 O 0.19494 0.64383 0.86134 0.0
H592 H 0.17179 0.65969 0.79076 0.0
H593 H 0.09641 0.65375 0.82952 0.0
H594 H 0.15216 0.63858 0.75104 0.0
H595 H 0.07806 0.63292 0.78907 0.0
H596 H 0.23583 0.75084 0.89163 0.0
H597 H 0.14019 0.73785 0.8785 0.0
H598 H 0.21734 0.70545 0.89295 0.0
H599 H 0.15997 0.78269 0.87754 0.0
H600 H 0.07149 0.74201 0.83935 0.0
H601 H 0.05314 0.71048 0.91651 0.0
H602 H 0.26145 0.69939 0.80143 0.0
H603 H 0.20015 0.75876 0.7995 0.0
H604 H 0.16291 0.59496 0.89938 0.0
H605 H 0.08786 0.63344 0.88921 0.0
H606 H 0.13943 0.55247 0.90645 0.0
H607 H 0.06564 0.59027 0.89654 0.0
H608 H 0.20117 0.59198 0.86623 0.0
H609 H 0.23867 0.66752 0.87773 0.0
H610 H 0.24163 0.57018 0.88295 0.0
H611 H 0.27831 0.64439 0.89463 0.0
H612 H 0.18966 0.57214 0.78867 0.0
H613 H 0.1093 0.55819 0.81342 0.0
H614 H 0.2164 0.69107 0.97586 0.0
H615 H 0.22918 0.60776 0.96259 0.0
Li616 Li 0.85052 0.18174 0.67785 0.0
Li617 Li 0.87017 0.13608 0.67497 0.0
Li618 Li 0.89299 0.17786 0.65684 0.0
Li619 Li 0.85441 0.15993 0.63565 0.0
C620 C 0.88205 0.1778 0.71913 0.0
N621 N 0.87667 0.19744 0.76974 0.0
C622 C 0.87621 0.16076 0.74003 0.0
C623 C 0.88547 0.20479 0.72403 0.0
C624 C 0.87351 0.17108 0.76547 0.0
C625 C 0.88256 0.21435 0.74972 0.0
C626 C 0.81132 0.13887 0.65687 0.0
C627 C 0.78571 0.10363 0.63763 0.0
N628 N 0.76546 0.12081 0.63359 0.0
C629 C 0.79023 0.15616 0.65272 0.0
C630 C 0.80906 0.11238 0.64942 0.0
C631 C 0.76722 0.14665 0.64083 0.0
C632 C 0.82358 0.22819 0.69318 0.0
N633 N 0.8283 0.20252 0.69943 0.0
C634 C 0.8011 0.20576 0.73774 0.0
C635 C 0.8172 0.19102 0.72098 0.0
C636 C 0.79612 0.23242 0.73193 0.0
C637 C 0.80757 0.24366 0.70936 0.0
H638 H 0.83209 0.23662 0.67557 0.0
H639 H 0.82105 0.17042 0.72521 0.0
C640 C 0.89518 0.08918 0.69578 0.0
N641 N 0.87262 0.10366 0.69426 0.0
C642 C 0.89616 0.06654 0.71171 0.0
C643 C 0.85081 0.0743 0.72417 0.0
C644 C 0.85068 0.09665 0.70803 0.0
C645 C 0.87371 0.05881 0.72612 0.0
H646 H 0.91247 0.09537 0.68488 0.0
H647 H 0.83319 0.10885 0.70694 0.0
C648 C 0.87191 0.21905 0.63211 0.0
N649 N 0.89393 0.2628 0.60789 0.0
C650 C 0.87443 0.21991 0.60464 0.0
C651 C 0.88059 0.24049 0.64723 0.0
C652 C 0.88557 0.24221 0.59278 0.0
C653 C 0.8917 0.26239 0.63463 0.0
C654 C 0.89275 0.12823 0.61763 0.0
C655 C 0.89818 0.14202 0.59436 0.0
C656 C 0.89085 0.10068 0.61716 0.0
C657 C 0.90132 0.12796 0.57084 0.0
C658 C 0.89419 0.08734 0.59325 0.0
N659 N 0.89927 0.10114 0.57078 0.0
C660 C 0.93961 0.20152 0.67644 0.0
C661 C 0.93523 0.20538 0.63012 0.0
C662 C 0.96159 0.21822 0.67624 0.0
N663 N 0.9264 0.19607 0.65372 0.0
C664 C 0.95686 0.22257 0.62906 0.0
C665 C 0.96994 0.22981 0.65246 0.0
H666 H 0.93276 0.19337 0.6949 0.0
H667 H 0.92488 0.20037 0.61219 0.0
C668 C 0.81978 0.17716 0.59604 0.0
N669 N 0.83403 0.15561 0.60343 0.0
C670 C 0.80264 0.17595 0.57449 0.0
C671 C 0.81441 0.13011 0.56868 0.0
C672 C 0.83138 0.13221 0.5904 0.0
C673 C 0.79978 0.15222 0.56044 0.0
H674 H 0.82126 0.19525 0.60729 0.0
H675 H 0.84167 0.1149 0.59733 0.0
O676 O 0.8842 0.16815 0.69397 0.0
O677 O 0.83428 0.14798 0.6677 0.0
O678 O 0.86107 0.19735 0.64413 0.0
O679 O 0.88965 0.14158 0.64084 0.0
H680 H 0.87365 0.13982 0.73668 0.0
H681 H 0.89008 0.21824 0.70812 0.0
H682 H 0.86885 0.15814 0.78181 0.0
H683 H 0.88495 0.23521 0.75374 0.0
H684 H 0.78372 0.08322 0.63158 0.0
H685 H 0.79177 0.17676 0.65831 0.0
H686 H 0.82532 0.09882 0.65236 0.0
H687 H 0.7508 0.15983 0.63729 0.0
H688 H 0.79285 0.19651 0.75516 0.0
H689 H 0.8039 0.26409 0.70412 0.0
H690 H 0.91424 0.05517 0.71274 0.0
H691 H 0.8333 0.06954 0.73547 0.0
H692 H 0.86826 0.2034 0.59258 0.0
H693 H 0.87904 0.24016 0.66848 0.0
H694 H 0.88772 0.24308 0.57156 0.0
H695 H 0.89862 0.27903 0.64612 0.0
H696 H 0.89969 0.16334 0.59444 0.0
H697 H 0.88669 0.08975 0.63505 0.0
H698 H 0.90535 0.13837 0.55264 0.0
H699 H 0.89267 0.06602 0.59254 0.0
H700 H 0.97175 0.22219 0.69461 0.0
H701 H 0.96273 0.23076 0.61022 0.0
H702 H 0.79162 0.19343 0.56895 0.0
H703 H 0.81218 0.11118 0.55894 0.0
Li704 Li 0.15606 0.39442 0.67629 0.0
Li705 Li 0.17884 0.3516 0.67927 0.0
Li706 Li 0.17609 0.37398 0.63698 0.0
Li707 Li 0.13693 0.35404 0.65811 0.0
C708 C 0.20746 0.40912 0.66477 0.0
N709 N 0.2349 0.45533 0.6552 0.0
C710 C 0.23241 0.41296 0.67585 0.0
C711 C 0.19645 0.42875 0.64878 0.0
C712 C 0.24598 0.43646 0.67078 0.0
C713 C 0.21064 0.45199 0.6442 0.0
C714 C 0.12234 0.35564 0.70788 0.0
C715 C 0.09332 0.32295 0.72682 0.0
N716 N 0.075 0.34208 0.7313 0.0
C717 C 0.1033 0.375 0.71277 0.0
C718 C 0.11742 0.32943 0.7151 0.0
C719 C 0.07948 0.36773 0.72463 0.0
C720 C 0.13895 0.44813 0.68651 0.0
N721 N 0.15124 0.42622 0.69604 0.0
C722 C 0.16015 0.44798 0.73698 0.0
C723 C 0.16168 0.42576 0.72073 0.0
C724 C 0.14785 0.47104 0.72772 0.0
C725 C 0.137 0.47091 0.70215 0.0
H726 H 0.13082 0.44795 0.66677 0.0
H727 H 0.17144 0.40807 0.7277 0.0
C728 C 0.22501 0.32305 0.69171 0.0
N729 N 0.20147 0.3317 0.70125 0.0
C730 C 0.24125 0.30723 0.70732 0.0
C731 C 0.20946 0.31098 0.74277 0.0
C732 C 0.19358 0.32629 0.72631 0.0
C733 C 0.23338 0.3011 0.73309 0.0
H734 H 0.23089 0.32804 0.6718 0.0
H735 H 0.17491 0.33375 0.73343 0.0
C736 C 0.12695 0.39002 0.6169 0.0
N737 N 0.1014 0.39003 0.56873 0.0
C738 C 0.12555 0.36683 0.60192 0.0
C739 C 0.11532 0.41317 0.6074 0.0
C740 C 0.11253 0.36725 0.57762 0.0
C741 C 0.10253 0.41279 0.58298 0.0
C742 C 0.18162 0.31248 0.64386 0.0
C743 C 0.20017 0.30722 0.62414 0.0
C744 C 0.17607 0.29312 0.66278 0.0
C745 C 0.21326 0.28293 0.62399 0.0
C746 C 0.18961 0.26909 0.66199 0.0
N747 N 0.20779 0.26454 0.64279 0.0
C748 C 0.22309 0.37286 0.60924 0.0
C749 C 0.18843 0.38904 0.58239 0.0
C750 C 0.2408 0.37431 0.58819 0.0
N751 N 0.19734 0.3797 0.60595 0.0
C752 C 0.20552 0.39077 0.56072 0.0
C753 C 0.23199 0.38286 0.56336 0.0
H754 H 0.22977 0.36573 0.62822 0.0
H755 H 0.16808 0.39489 0.58018 0.0
C756 C 0.08057 0.34581 0.6557 0.0
N757 N 0.10468 0.33431 0.65292 0.0
C758 C 0.05758 0.33043 0.65458 0.0
C759 C 0.0846 0.29192 0.64682 0.0
C760 C 0.10693 0.30801 0.64791 0.0
C761 C 0.05948 0.30294 0.65064 0.0
H762 H 0.07923 0.36684 0.65935 0.0
H763 H 0.12613 0.29932 0.64521 0.0
O764 O 0.19404 0.38615 0.66952 0.0
O765 O 0.14555 0.36226 0.69579 0.0
O766 O 0.13929 0.39019 0.64091 0.0
O767 O 0.16869 0.33625 0.64434 0.0
H768 H 0.2412 0.39789 0.68822 0.0
H769 H 0.1772 0.42611 0.63996 0.0
H770 H 0.26533 0.43971 0.67922 0.0
H771 H 0.20237 0.46735 0.63189 0.0
H772 H 0.08916 0.30271 0.73233 0.0
H773 H 0.10674 0.39536 0.70721 0.0
H774 H 0.13195 0.3142 0.71145 0.0
H775 H 0.0645 0.38248 0.72841 0.0
H776 H 0.16892 0.44729 0.75646 0.0
H777 H 0.12698 0.48814 0.6944 0.0
H778 H 0.25975 0.29993 0.69945 0.0
H779 H 0.203 0.30655 0.76266 0.0
H780 H 0.1345 0.34873 0.60881 0.0
H781 H 0.1162 0.43126 0.61878 0.0
H782 H 0.11133 0.34947 0.56581 0.0
H783 H 0.09348 0.43058 0.57536 0.0
H784 H 0.20426 0.32162 0.60893 0.0
H785 H 0.16173 0.29677 0.67815 0.0
H786 H 0.22772 0.27866 0.60887 0.0
H787 H 0.18569 0.25408 0.67668 0.0
H788 H 0.26118 0.36869 0.5913 0.0
H789 H 0.19797 0.39764 0.54195 0.0
H790 H 0.03859 0.33993 0.65687 0.0
H791 H 0.08706 0.27089 0.64368 0.0
Li792 Li 0.63375 0.17788 0.37238 0.0
Li793 Li 0.67773 0.17904 0.35249 0.0
Li794 Li 0.65397 0.13637 0.35554 0.0
Li795 Li 0.67426 0.15721 0.39475 0.0
C796 C 0.62322 0.16695 0.31898 0.0
N797 N 0.58076 0.1632 0.28501 0.0
C798 C 0.62275 0.18183 0.29576 0.0
C799 C 0.6022 0.15009 0.32488 0.0
C800 C 0.60107 0.1797 0.27886 0.0
C801 C 0.5809 0.14847 0.30746 0.0
C802 C 0.67908 0.21878 0.38544 0.0
C803 C 0.71927 0.24432 0.38702 0.0
N804 N 0.70522 0.26658 0.38166 0.0
C805 C 0.66501 0.24193 0.38017 0.0
C806 C 0.7064 0.21998 0.38913 0.0
C807 C 0.6786 0.2659 0.37827 0.0
C808 C 0.5852 0.19634 0.39608 0.0
N809 N 0.60225 0.19861 0.37547 0.0
C810 C 0.57597 0.23293 0.35639 0.0
C811 C 0.59815 0.21661 0.35596 0.0
C812 C 0.5578 0.23086 0.37718 0.0
C813 C 0.56272 0.21245 0.39737 0.0
H814 H 0.58909 0.18213 0.41154 0.0
H815 H 0.61237 0.21855 0.34018 0.0
C816 C 0.72436 0.19349 0.32515 0.0
N817 N 0.69891 0.20019 0.33021 0.0
C818 C 0.73986 0.20943 0.30889 0.0
C819 C 0.70254 0.2387 0.30325 0.0
C820 C 0.68774 0.22213 0.31951 0.0
C821 C 0.72891 0.23232 0.29768 0.0
H822 H 0.73258 0.17573 0.33363 0.0
H823 H 0.66737 0.22682 0.32382 0.0
C824 C 0.62314 0.12176 0.39989 0.0
N825 N 0.59462 0.07898 0.41827 0.0
C826 C 0.63597 0.101 0.41276 0.0
C827 C 0.59576 0.1209 0.39661 0.0
C828 C 0.62122 0.07952 0.42187 0.0
C829 C 0.58171 0.09905 0.40594 0.0
C830 C 0.71247 0.12866 0.37003 0.0
C831 C 0.71027 0.10112 0.3694 0.0
C832 C 0.73588 0.14031 0.37892 0.0
C833 C 0.7315 0.08568 0.37788 0.0
C834 C 0.75661 0.12418 0.38731 0.0
N835 N 0.75401 0.09743 0.38662 0.0
C836 C 0.65804 0.10666 0.31 0.0
C837 C 0.63582 0.08243 0.34324 0.0
C838 C 0.65633 0.08531 0.2926 0.0
N839 N 0.64804 0.10488 0.33485 0.0
C840 C 0.63388 0.06046 0.32652 0.0
C841 C 0.64445 0.06168 0.30091 0.0
H842 H 0.66768 0.12472 0.3038 0.0
H843 H 0.62778 0.0813 0.36287 0.0
C844 C 0.69662 0.17458 0.44288 0.0
N845 N 0.69299 0.1526 0.42782 0.0
C846 C 0.71289 0.17381 0.46516 0.0
C847 C 0.7206 0.12748 0.45691 0.0
C848 C 0.70409 0.12912 0.43484 0.0
C849 C 0.72564 0.15017 0.47206 0.0
H850 H 0.68745 0.193 0.43719 0.0
H851 H 0.70093 0.11176 0.4229 0.0
O852 O 0.64418 0.16905 0.33586 0.0
O853 O 0.66623 0.19501 0.38673 0.0
O854 O 0.6372 0.14311 0.39114 0.0
O855 O 0.69189 0.1441 0.36183 0.0
H856 H 0.63891 0.19497 0.29093 0.0
H857 H 0.6024 0.13832 0.34264 0.0
H858 H 0.60038 0.19116 0.26085 0.0
H859 H 0.56448 0.13549 0.31177 0.0
H860 H 0.74043 0.2455 0.38961 0.0
H861 H 0.64386 0.2414 0.37744 0.0
H862 H 0.71756 0.20226 0.39329 0.0
H863 H 0.66798 0.28396 0.37405 0.0
H864 H 0.57325 0.2473 0.34079 0.0
H865 H 0.5492 0.21037 0.41379 0.0
H866 H 0.76009 0.20381 0.30489 0.0
H867 H 0.69355 0.25644 0.29539 0.0
H868 H 0.65709 0.10132 0.41542 0.0
H869 H 0.58543 0.13695 0.38701 0.0
H870 H 0.63093 0.06324 0.43173 0.0
H871 H 0.56053 0.09807 0.40345 0.0
H872 H 0.69233 0.09173 0.36264 0.0
H873 H 0.73792 0.16157 0.37962 0.0
H874 H 0.73003 0.06434 0.37759 0.0
H875 H 0.77475 0.13294 0.39443 0.0
H876 H 0.66481 0.08702 0.27306 0.0
H877 H 0.62423 0.04269 0.33353 0.0
H878 H 0.71617 0.19175 0.47636 0.0
H879 H 0.72958 0.1087 0.46188 0.0
Li880 Li 0.63746 0.67781 0.65499 0.0
Li881 Li 0.68077 0.6803 0.67724 0.0
Li882 Li 0.67777 0.65894 0.63441 0.0
Li883 Li 0.65919 0.63712 0.67511 0.0
C884 C 0.66428 0.71156 0.62177 0.0
N885 N 0.6523 0.742 0.57815 0.0
C886 C 0.67269 0.73784 0.62045 0.0
C887 C 0.64976 0.70076 0.60095 0.0
C888 C 0.66644 0.75291 0.59821 0.0
C889 C 0.64391 0.71647 0.57905 0.0
C890 C 0.63742 0.6705 0.71734 0.0
C891 C 0.64115 0.65767 0.76301 0.0
N892 N 0.61943 0.67236 0.76876 0.0
C893 C 0.61508 0.68539 0.72367 0.0
C894 C 0.65056 0.65649 0.73713 0.0
C895 C 0.60632 0.68612 0.7498 0.0
C896 C 0.58196 0.68696 0.64492 0.0
N897 N 0.60578 0.6979 0.65076 0.0
C898 C 0.58656 0.74103 0.65304 0.0
C899 C 0.60837 0.72433 0.65499 0.0
C900 C 0.56171 0.73041 0.6471 0.0
C901 C 0.55944 0.70298 0.64316 0.0
H902 H 0.5804 0.66585 0.64191 0.0
H903 H 0.62742 0.73242 0.66021 0.0
C904 C 0.72684 0.70883 0.69004 0.0
N905 N 0.70188 0.70325 0.69821 0.0
C906 C 0.7431 0.72515 0.70515 0.0
C907 C 0.70703 0.73133 0.73577 0.0
C908 C 0.69164 0.71447 0.72035 0.0
C909 C 0.73313 0.73653 0.72828 0.0
H910 H 0.73416 0.70054 0.67181 0.0
H911 H 0.67151 0.71053 0.72601 0.0
C912 C 0.63806 0.62115 0.62214 0.0
N913 N 0.63036 0.57953 0.58768 0.0
C914 C 0.64986 0.59667 0.62705 0.0
C915 C 0.62214 0.6244 0.59986 0.0
C916 C 0.64576 0.57588 0.60936 0.0
C917 C 0.61857 0.60314 0.58262 0.0
C918 C 0.72162 0.64548 0.67536 0.0
C919 C 0.74283 0.64698 0.65778 0.0
C920 C 0.7265 0.64374 0.70245 0.0
C921 C 0.76858 0.64707 0.66764 0.0
C922 C 0.75253 0.64393 0.71154 0.0
N923 N 0.77285 0.64559 0.6941 0.0
C924 C 0.712 0.67607 0.59399 0.0
C925 C 0.70008 0.63111 0.58929 0.0
C926 C 0.72813 0.67468 0.5717 0.0
N927 N 0.69793 0.65464 0.60214 0.0
C928 C 0.71641 0.62869 0.56711 0.0
C929 C 0.73058 0.65076 0.55785 0.0
H930 H 0.71126 0.69424 0.60512 0.0
H931 H 0.6898 0.61396 0.59659 0.0
C932 C 0.62969 0.5977 0.70378 0.0
N933 N 0.65397 0.60513 0.69503 0.0
C934 C 0.62686 0.57533 0.7199 0.0
C935 C 0.67401 0.56886 0.71774 0.0
C936 C 0.67588 0.59107 0.70151 0.0
C937 C 0.64925 0.56054 0.72712 0.0
H938 H 0.61258 0.60937 0.69858 0.0
H939 H 0.69497 0.59736 0.69442 0.0
O940 O 0.67009 0.69664 0.64352 0.0
O941 O 0.64637 0.66986 0.69188 0.0
O942 O 0.64148 0.64166 0.63939 0.0
O943 O 0.69625 0.64547 0.66603 0.0
H944 H 0.6839 0.74648 0.63647 0.0
H945 H 0.64312 0.68048 0.60168 0.0
H946 H 0.67281 0.77328 0.59691 0.0
H947 H 0.6327 0.70836 0.56279 0.0
H948 H 0.65112 0.64691 0.77852 0.0
H949 H 0.60468 0.69637 0.70858 0.0
H950 H 0.66778 0.64478 0.73259 0.0
H951 H 0.58911 0.69764 0.755 0.0
H952 H 0.58899 0.76198 0.65674 0.0
H953 H 0.54051 0.69409 0.63869 0.0
H954 H 0.76313 0.72906 0.69875 0.0
H955 H 0.69879 0.73992 0.75353 0.0
H956 H 0.66241 0.59385 0.64405 0.0
H957 H 0.61255 0.64311 0.59597 0.0
H958 H 0.65492 0.55688 0.61281 0.0
H959 H 0.60636 0.60539 0.56525 0.0
H960 H 0.7395 0.64809 0.63674 0.0
H961 H 0.71039 0.64249 0.71634 0.0
H962 H 0.78517 0.64832 0.65427 0.0
H963 H 0.75656 0.64278 0.73247 0.0
H964 H 0.73874 0.6922 0.5655 0.0
H965 H 0.71843 0.60955 0.55779 0.0
H966 H 0.60739 0.5697 0.72668 0.0
H967 H 0.69194 0.5587 0.72338 0.0
Li968 Li 0.65551 0.39707 0.85442 0.0
Li969 Li 0.67563 0.37437 0.89216 0.0
Li970 Li 0.67649 0.35337 0.84951 0.0
Li971 Li 0.63408 0.35627 0.87469 0.0
C972 C 0.71267 0.39254 0.84223 0.0
N973 N 0.75243 0.40209 0.80615 0.0
C974 C 0.73842 0.39727 0.85091 0.0
C975 C 0.70712 0.3928 0.81522 0.0
C976 C 0.75826 0.40203 0.83235 0.0
C977 C 0.72748 0.39763 0.79729 0.0
C978 C 0.63983 0.41514 0.90508 0.0
C979 C 0.61951 0.44447 0.93658 0.0
N980 N 0.64019 0.46143 0.93399 0.0
C981 C 0.66093 0.4328 0.90276 0.0
C982 C 0.61896 0.42096 0.92213 0.0
C983 C 0.66072 0.45613 0.91751 0.0
C984 C 0.62671 0.43523 0.82378 0.0
N985 N 0.6501 0.42994 0.8359 0.0
C986 C 0.66988 0.46799 0.81593 0.0
C987 C 0.67124 0.44628 0.8329 0.0
C988 C 0.6464 0.47325 0.80231 0.0
C989 C 0.62436 0.45706 0.80687 0.0
H990 H 0.61022 0.42188 0.82634 0.0
H991 H 0.68954 0.44198 0.84293 0.0
C992 C 0.72252 0.36989 0.92035 0.0
N993 N 0.69709 0.37794 0.9232 0.0
C994 C 0.73961 0.36965 0.94193 0.0
C995 C 0.7042 0.38634 0.96915 0.0
C996 C 0.68769 0.38616 0.94698 0.0
C997 C 0.73043 0.37764 0.9668 0.0
H998 H 0.72931 0.36292 0.90137 0.0
H999 H 0.66725 0.39196 0.94891 0.0
C1000 C 0.62998 0.35743 0.81396 0.0
N1001 N 0.60749 0.34114 0.76699 0.0
C1002 C 0.61601 0.33362 0.81274 0.0
C1003 C 0.63243 0.373 0.79129 0.0
C1004 C 0.6048 0.32572 0.78881 0.0
C1005 C 0.62095 0.3644 0.76774 0.0
C1006 C 0.67405 0.32453 0.90615 0.0
C1007 C 0.69753 0.31011 0.90744 0.0
C1008 C 0.65833 0.32711 0.92867 0.0
C1009 C 0.70507 0.29874 0.93141 0.0
C1010 C 0.66655 0.31542 0.95225 0.0
N1011 N 0.68957 0.30163 0.95313 0.0
C1012 C 0.72234 0.32642 0.83553 0.0
C1013 C 0.68785 0.32104 0.80438 0.0
C1014 C 0.73886 0.31007 0.82075 0.0
N1015 N 0.69732 0.33145 0.82724 0.0
C1016 C 0.70365 0.30457 0.78903 0.0
C1017 C 0.72938 0.29871 0.79735 0.0
H1018 H 0.7294 0.33509 0.85372 0.0
H1019 H 0.66811 0.32536 0.79794 0.0
C1020 C 0.57796 0.34695 0.87869 0.0
N1021 N 0.60251 0.33629 0.88075 0.0
C1022 C 0.55557 0.33074 0.88058 0.0
C1023 C 0.58419 0.29311 0.88692 0.0
C1024 C 0.60592 0.30994 0.8849 0.0
C1025 C 0.55859 0.30337 0.88457 0.0
H1026 H 0.57579 0.36788 0.87487 0.0
H1027 H 0.6256 0.3018 0.88585 0.0
O1028 O 0.69307 0.38723 0.86005 0.0
O1029 O 0.63981 0.3919 0.89132 0.0
O1030 O 0.64104 0.36554 0.83723 0.0
O1031 O 0.66679 0.3367 0.88317 0.0
H1032 H 0.74307 0.39738 0.87173 0.0
H1033 H 0.68734 0.38904 0.8082 0.0
H1034 H 0.77829 0.40569 0.83879 0.0
H1035 H 0.72347 0.39777 0.77632 0.0
H1036 H 0.60352 0.44921 0.9499 0.0
H1037 H 0.67743 0.42842 0.88996 0.0
H1038 H 0.60259 0.40735 0.92426 0.0
H1039 H 0.67693 0.46997 0.91595 0.0
H1040 H 0.6872 0.4802 0.81298 0.0
H1041 H 0.60596 0.46058 0.79659 0.0
H1042 H 0.75978 0.36312 0.93921 0.0
H1043 H 0.69637 0.39251 0.98806 0.0
H1044 H 0.61411 0.32118 0.82996 0.0
H1045 H 0.64312 0.39149 0.79179 0.0
H1046 H 0.59403 0.30729 0.78757 0.0
H1047 H 0.62274 0.37623 0.75005 0.0
H1048 H 0.70992 0.30793 0.89021 0.0
H1049 H 0.6402 0.3384 0.92802 0.0
H1050 H 0.72329 0.2877 0.93277 0.0
H1051 H 0.65469 0.31742 0.96988 0.0
H1052 H 0.75867 0.30604 0.82771 0.0
H1053 H 0.69589 0.29665 0.77075 0.0
H1054 H 0.53619 0.33939 0.87812 0.0
H1055 H 0.58742 0.27217 0.89001 0.0
Li1056 Li 0.35281 0.15838 0.89244 0.0
Li1057 Li 0.37311 0.1357 0.8526 0.0
Li1058 Li 0.39306 0.178 0.87272 0.0
Li1059 Li 0.35171 0.1781 0.84992 0.0
C1060 C 0.39341 0.12084 0.90529 0.0
N1061 N 0.40217 0.07811 0.93806 0.0
C1062 C 0.3803 0.09694 0.90079 0.0
C1063 C 0.41108 0.12298 0.92635 0.0
C1064 C 0.38498 0.07557 0.91759 0.0
C1065 C 0.41519 0.10117 0.94275 0.0
C1066 C 0.31205 0.14601 0.84772 0.0
C1067 C 0.28618 0.14323 0.80784 0.0
N1068 N 0.26483 0.15249 0.82121 0.0
C1069 C 0.28982 0.15537 0.86108 0.0
C1070 C 0.31022 0.13979 0.8209 0.0
C1071 C 0.26613 0.15856 0.84732 0.0
C1072 C 0.31524 0.17472 0.92953 0.0
N1073 N 0.3322 0.15448 0.92443 0.0
C1074 C 0.31697 0.13142 0.96284 0.0
C1075 C 0.33332 0.13304 0.94062 0.0
C1076 C 0.29944 0.15213 0.96852 0.0
C1077 C 0.29884 0.17408 0.95166 0.0
H1078 H 0.31411 0.1913 0.91614 0.0
H1079 H 0.34663 0.11703 0.93633 0.0
C1080 C 0.40355 0.09695 0.8242 0.0
N1081 N 0.37929 0.10328 0.83379 0.0
C1082 C 0.40683 0.07456 0.8082 0.0
C1083 C 0.36024 0.06556 0.81257 0.0
C1084 C 0.35795 0.08779 0.82873 0.0
C1085 C 0.38484 0.05882 0.80167 0.0
H1086 H 0.42024 0.10956 0.82854 0.0
H1087 H 0.33893 0.09301 0.83682 0.0
C1088 C 0.36493 0.20976 0.90617 0.0
N1089 N 0.37504 0.23769 0.95194 0.0
C1090 C 0.35517 0.2354 0.90926 0.0
C1091 C 0.37987 0.19833 0.92636 0.0
C1092 C 0.36049 0.2492 0.93255 0.0
C1093 C 0.38475 0.21277 0.94935 0.0
C1094 C 0.39225 0.18025 0.81231 0.0
C1095 C 0.3943 0.20777 0.81128 0.0
C1096 C 0.39593 0.16536 0.78937 0.0
C1097 C 0.39993 0.22 0.78722 0.0
C1098 C 0.40157 0.17833 0.76569 0.0
N1099 N 0.40343 0.20516 0.76512 0.0
C1100 C 0.44853 0.18788 0.88277 0.0
C1101 C 0.42129 0.22534 0.87619 0.0
C1102 C 0.47079 0.20418 0.88542 0.0
N1103 N 0.4244 0.1987 0.87816 0.0
C1104 C 0.44286 0.24227 0.87874 0.0
C1105 C 0.46804 0.2318 0.88346 0.0
H1106 H 0.45053 0.16663 0.88412 0.0
H1107 H 0.40201 0.23353 0.87221 0.0
C1108 C 0.31418 0.21715 0.84016 0.0
N1109 N 0.33019 0.19957 0.82775 0.0
C1110 C 0.29787 0.23382 0.82554 0.0
C1111 C 0.31478 0.21394 0.78561 0.0
C1112 C 0.33037 0.19732 0.80101 0.0
C1113 C 0.29843 0.23269 0.79785 0.0
H1114 H 0.31392 0.21801 0.86148 0.0
H1115 H 0.34248 0.18254 0.79158 0.0
O1116 O 0.3895 0.14189 0.88883 0.0
O1117 O 0.3356 0.14344 0.8607 0.0
O1118 O 0.3599 0.19614 0.88335 0.0
O1119 O 0.3866 0.16783 0.83559 0.0
H1120 H 0.36628 0.09505 0.88483 0.0
H1121 H 0.42155 0.1413 0.92996 0.0
H1122 H 0.37486 0.057 0.91444 0.0
H1123 H 0.42876 0.10255 0.95916 0.0
H1124 H 0.28455 0.13872 0.78704 0.0
H1125 H 0.29084 0.16027 0.8818 0.0
H1126 H 0.32734 0.13294 0.81012 0.0
H1127 H 0.24881 0.1659 0.8574 0.0
H1128 H 0.31812 0.11424 0.97555 0.0
H1129 H 0.28542 0.19034 0.95528 0.0
H1130 H 0.42634 0.06976 0.80095 0.0
H1131 H 0.34269 0.05417 0.80812 0.0
H1132 H 0.34364 0.24457 0.89379 0.0
H1133 H 0.38761 0.17857 0.92438 0.0
H1134 H 0.35306 0.26906 0.9352 0.0
H1135 H 0.39627 0.20415 0.96512 0.0
H1136 H 0.39101 0.21959 0.82872 0.0
H1137 H 0.3943 0.14404 0.78982 0.0
H1138 H 0.4014 0.24131 0.7861 0.0
H1139 H 0.40442 0.16708 0.74776 0.0
H1140 H 0.48992 0.19532 0.88896 0.0
H1141 H 0.43993 0.26334 0.87641 0.0
H1142 H 0.28482 0.24726 0.83584 0.0
H1143 H 0.31568 0.21226 0.76432 0.0
Li1144 Li 0.37317 0.3949 0.35475 0.0
Li1145 Li 0.35211 0.37578 0.39457 0.0
Li1146 Li 0.39143 0.35494 0.37425 0.0
Li1147 Li 0.34827 0.35319 0.3529 0.0
C1148 C 0.39966 0.41439 0.3957 0.0
N1149 N 0.42096 0.46398 0.40387 0.0
C1150 C 0.38732 0.43212 0.41287 0.0
C1151 C 0.42292 0.42177 0.38284 0.0
C1152 C 0.3984 0.45713 0.41672 0.0
C1153 C 0.43333 0.44697 0.38716 0.0
C1154 C 0.31277 0.38967 0.34717 0.0
C1155 C 0.26846 0.37461 0.3382 0.0
N1156 N 0.26848 0.38868 0.31534 0.0
C1157 C 0.31231 0.40405 0.32363 0.0
C1158 C 0.29062 0.37493 0.3546 0.0
C1159 C 0.28973 0.40329 0.30781 0.0
C1160 C 0.38775 0.42388 0.3093 0.0
N1161 N 0.37968 0.42659 0.33476 0.0
C1162 C 0.37499 0.47333 0.32895 0.0
C1163 C 0.37337 0.45072 0.34477 0.0
C1164 C 0.38232 0.47102 0.30227 0.0
C1165 C 0.38923 0.4459 0.29267 0.0
H1166 H 0.39197 0.40444 0.30153 0.0
H1167 H 0.36631 0.45236 0.36482 0.0
C1168 C 0.34441 0.37695 0.4506 0.0
N1169 N 0.33337 0.38283 0.42685 0.0
C1170 C 0.32925 0.37812 0.47367 0.0
C1171 C 0.29223 0.3931 0.44765 0.0
C1172 C 0.30803 0.39151 0.42512 0.0
C1173 C 0.30259 0.38565 0.47223 0.0
H1174 H 0.36469 0.37038 0.45152 0.0
H1175 H 0.29979 0.39647 0.40612 0.0
C1176 C 0.4021 0.34902 0.32371 0.0
N1177 N 0.44272 0.32162 0.29979 0.0
C1178 C 0.39785 0.32345 0.31416 0.0
C1179 C 0.42692 0.36076 0.32091 0.0
C1180 C 0.41867 0.3099 0.30216 0.0
C1181 C 0.44723 0.34655 0.30881 0.0
C1182 C 0.35176 0.32568 0.40988 0.0
C1183 C 0.37133 0.31781 0.42765 0.0
C1184 C 0.32518 0.32212 0.41642 0.0
C1185 C 0.36397 0.30649 0.4517 0.0
C1186 C 0.31863 0.31082 0.44071 0.0
N1187 N 0.338 0.30329 0.45769 0.0
C1188 C 0.44645 0.34384 0.38541 0.0
C1189 C 0.41918 0.30746 0.37408 0.0
C1190 C 0.46867 0.32736 0.38618 0.0
N1191 N 0.42239 0.33367 0.3791 0.0
C1192 C 0.44081 0.29041 0.37441 0.0
C1193 C 0.46601 0.30038 0.38012 0.0
H1194 H 0.44849 0.36477 0.38923 0.0
H1195 H 0.39981 0.29992 0.36916 0.0
C1196 C 0.32507 0.33829 0.30481 0.0
N1197 N 0.32659 0.3321 0.33087 0.0
C1198 C 0.3091 0.32341 0.28799 0.0
C1199 C 0.29685 0.29597 0.32511 0.0
C1200 C 0.31315 0.31128 0.34118 0.0
C1201 C 0.29462 0.30211 0.2982 0.0
H1202 H 0.33622 0.35485 0.29718 0.0
H1203 H 0.31515 0.30651 0.36183 0.0
O1204 O 0.38905 0.38991 0.39156 0.0
O1205 O 0.33496 0.38957 0.36258 0.0
O1206 O 0.38224 0.36228 0.33629 0.0
O1207 O 0.35856 0.33717 0.38638 0.0
H1208 H 0.36931 0.42669 0.42299 0.0
H1209 H 0.43266 0.40826 0.36947 0.0
H1210 H 0.38903 0.47111 0.42987 0.0
H1211 H 0.45123 0.45303 0.37722 0.0
H1212 H 0.25131 0.36307 0.34358 0.0
H1213 H 0.32924 0.41552 0.3175 0.0
H1214 H 0.29074 0.36338 0.37257 0.0
H1215 H 0.28914 0.41425 0.28949 0.0
H1216 H 0.37007 0.49234 0.33743 0.0
H1217 H 0.39476 0.4431 0.27222 0.0
H1218 H 0.33815 0.37275 0.49234 0.0
H1219 H 0.27181 0.39912 0.44572 0.0
H1220 H 0.37881 0.31401 0.31633 0.0
H1221 H 0.43053 0.38051 0.32828 0.0
H1222 H 0.41574 0.29003 0.29485 0.0
H1223 H 0.46659 0.3553 0.30668 0.0
H1224 H 0.39198 0.32066 0.4231 0.0
H1225 H 0.30974 0.3285 0.40314 0.0
H1226 H 0.37892 0.30038 0.46567 0.0
H1227 H 0.29815 0.30817 0.44613 0.0
H1228 H 0.48784 0.33573 0.39067 0.0
H1229 H 0.4379 0.26966 0.37002 0.0
H1230 H 0.3079 0.32861 0.26729 0.0
H1231 H 0.28639 0.27929 0.33352 0.0
Li1232 Li 0.35078 0.67946 0.17755 0.0
Li1233 Li 0.3718 0.63418 0.17334 0.0
Li1234 Li 0.39383 0.67675 0.15509 0.0
Li1235 Li 0.35466 0.65793 0.13493 0.0
C1236 C 0.38855 0.67632 0.21693 0.0
N1237 N 0.39486 0.69614 0.26736 0.0
C1238 C 0.38419 0.66009 0.23883 0.0
C1239 C 0.39643 0.70253 0.22069 0.0
C1240 C 0.38741 0.6705 0.26416 0.0
C1241 C 0.39942 0.71221 0.24633 0.0
C1242 C 0.31107 0.6391 0.15598 0.0
C1243 C 0.28309 0.60915 0.13164 0.0
N1244 N 0.26354 0.62757 0.13177 0.0
C1245 C 0.29066 0.65768 0.15595 0.0
C1246 C 0.30725 0.6146 0.14377 0.0
C1247 C 0.26679 0.65149 0.14358 0.0
C1248 C 0.31804 0.72283 0.18995 0.0
N1249 N 0.32918 0.70047 0.19982 0.0
C1250 C 0.30917 0.70796 0.24182 0.0
C1251 C 0.3245 0.69247 0.22499 0.0
C1252 C 0.29814 0.73154 0.23237 0.0
C1253 C 0.30234 0.73877 0.206 0.0
H1254 H 0.32117 0.72819 0.16956 0.0
H1255 H 0.3325 0.67397 0.23195 0.0
C1256 C 0.39964 0.59678 0.20543 0.0
N1257 N 0.37648 0.60201 0.19288 0.0
C1258 C 0.40154 0.57537 0.2229 0.0
C1259 C 0.35615 0.5645 0.21325 0.0
C1260 C 0.35502 0.58624 0.19632 0.0
C1261 C 0.37937 0.55923 0.22746 0.0
H1262 H 0.41631 0.60989 0.20273 0.0
H1263 H 0.33669 0.59102 0.18661 0.0
C1264 C 0.36699 0.72006 0.13501 0.0
N1265 N 0.37921 0.7703 0.11734 0.0
C1266 C 0.36706 0.72564 0.10798 0.0
C1267 C 0.37302 0.7401 0.15303 0.0
C1268 C 0.37331 0.75114 0.09945 0.0
C1269 C 0.37919 0.76534 0.14372 0.0
C1270 C 0.3955 0.63115 0.11418 0.0
C1271 C 0.39964 0.64874 0.09334 0.0
C1272 C 0.39666 0.60393 0.10967 0.0
C1273 C 0.40461 0.63875 0.06813 0.0
C1274 C 0.40175 0.59472 0.08418 0.0
N1275 N 0.40555 0.61217 0.06411 0.0
C1276 C 0.44454 0.69424 0.1716 0.0
C1277 C 0.43145 0.71152 0.13028 0.0
C1278 C 0.46702 0.71035 0.17169 0.0
N1279 N 0.42687 0.69562 0.15144 0.0
C1280 C 0.45327 0.72845 0.12988 0.0
C1281 C 0.47116 0.72855 0.15109 0.0
H1282 H 0.4409 0.681 0.18795 0.0
H1283 H 0.41784 0.71168 0.11395 0.0
C1284 C 0.31872 0.67522 0.09702 0.0
N1285 N 0.33444 0.6542 0.10266 0.0
C1286 C 0.30111 0.6743 0.07588 0.0
C1287 C 0.31576 0.62987 0.06659 0.0
C1288 C 0.3333 0.63172 0.0879 0.0
C1289 C 0.29907 0.65123 0.06061 0.0
H1290 H 0.31929 0.69256 0.10946 0.0
H1291 H 0.34512 0.61482 0.09325 0.0
O1292 O 0.3853 0.66651 0.19197 0.0
O1293 O 0.33488 0.64517 0.16722 0.0
O1294 O 0.36098 0.69515 0.14372 0.0
O1295 O 0.3905 0.64052 0.13895 0.0
H1296 H 0.378 0.63978 0.23631 0.0
H1297 H 0.40031 0.71524 0.20401 0.0
H1298 H 0.38391 0.65822 0.28128 0.0
H1299 H 0.40542 0.73249 0.24952 0.0
H1300 H 0.27996 0.59038 0.1219 0.0
H1301 H 0.2933 0.6768 0.1651 0.0
H1302 H 0.323 0.60019 0.14305 0.0
H1303 H 0.2509 0.66575 0.14328 0.0
H1304 H 0.30571 0.70145 0.26189 0.0
H1305 H 0.29383 0.7567 0.198 0.0
H1306 H 0.41984 0.57205 0.23343 0.0
H1307 H 0.3388 0.5522 0.21552 0.0
H1308 H 0.3628 0.71034 0.09368 0.0
H1309 H 0.37282 0.73624 0.17399 0.0
H1310 H 0.37358 0.75568 0.07859 0.0
H1311 H 0.38392 0.781 0.15746 0.0
H1312 H 0.39872 0.66986 0.09657 0.0
H1313 H 0.39353 0.5901 0.12567 0.0
H1314 H 0.40769 0.65212 0.05176 0.0
H1315 H 0.40261 0.5737 0.08033 0.0
H1316 H 0.48084 0.70864 0.18788 0.0
H1317 H 0.45564 0.74185 0.11339 0.0
H1318 H 0.28905 0.69145 0.07169 0.0
H1319 H 0.31467 0.61163 0.05546 0.0
Li1320 Li 0.65787 0.89742 0.17466 0.0
Li1321 Li 0.68044 0.85294 0.17984 0.0
Li1322 Li 0.67701 0.87372 0.13733 0.0
Li1323 Li 0.63762 0.85431 0.15614 0.0
C1324 C 0.71636 0.89965 0.15809 0.0
N1325 N 0.75838 0.92353 0.13285 0.0
C1326 C 0.74042 0.88637 0.15574 0.0
C1327 C 0.71371 0.92514 0.14781 0.0
C1328 C 0.76142 0.89876 0.14284 0.0
C1329 C 0.73519 0.93687 0.13508 0.0
C1330 C 0.63573 0.86004 0.21783 0.0
C1331 C 0.6105 0.83355 0.24837 0.0
N1332 N 0.6163 0.85094 0.268 0.0
C1333 C 0.64131 0.87772 0.23831 0.0
C1334 C 0.62009 0.83782 0.22288 0.0
C1335 C 0.63136 0.87274 0.26353 0.0
C1336 C 0.6289 0.94185 0.19638 0.0
N1337 N 0.65272 0.92971 0.19377 0.0
C1338 C 0.67247 0.96016 0.22403 0.0
C1339 C 0.67435 0.93865 0.20693 0.0
C1340 C 0.64805 0.97265 0.22779 0.0
C1341 C 0.62616 0.96366 0.21328 0.0
H1342 H 0.61192 0.93417 0.18593 0.0
H1343 H 0.69298 0.92848 0.20481 0.0
C1344 C 0.72203 0.81842 0.19087 0.0
N1345 N 0.70234 0.83253 0.2024 0.0
C1346 C 0.73882 0.80288 0.20621 0.0
C1347 C 0.71465 0.81659 0.24499 0.0
C1348 C 0.69847 0.83199 0.22893 0.0
C1349 C 0.73527 0.80196 0.23367 0.0
H1350 H 0.72465 0.81924 0.1697 0.0
H1351 H 0.68286 0.84339 0.23771 0.0
C1352 C 0.63285 0.89588 0.11459 0.0
N1353 N 0.61723 0.90703 0.06361 0.0
C1354 C 0.62954 0.87541 0.09638 0.0
C1355 C 0.62811 0.922 0.10699 0.0
C1356 C 0.62167 0.88147 0.07066 0.0
C1357 C 0.62025 0.92723 0.08108 0.0
C1358 C 0.66962 0.80924 0.14751 0.0
C1359 C 0.67765 0.79352 0.1263 0.0
C1360 C 0.66018 0.79728 0.17049 0.0
C1361 C 0.67588 0.76603 0.12838 0.0
C1362 C 0.65872 0.76974 0.17183 0.0
N1363 N 0.66652 0.75481 0.15091 0.0
C1364 C 0.71541 0.85839 0.10094 0.0
C1365 C 0.69548 0.89899 0.08891 0.0
C1366 C 0.7325 0.8598 0.07937 0.0
N1367 N 0.69736 0.87779 0.10536 0.0
C1368 C 0.71196 0.90099 0.06681 0.0
C1369 C 0.73082 0.88125 0.06192 0.0
H1370 H 0.7169 0.84202 0.11459 0.0
H1371 H 0.68164 0.91463 0.09318 0.0
C1372 C 0.58328 0.84246 0.1648 0.0
N1373 N 0.60513 0.83495 0.15114 0.0
C1374 C 0.56046 0.8268 0.16439 0.0
C1375 C 0.58273 0.7964 0.13526 0.0
C1376 C 0.60483 0.81292 0.13574 0.0
C1377 C 0.56026 0.80286 0.1502 0.0
H1378 H 0.58381 0.86026 0.17663 0.0
H1379 H 0.622 0.80766 0.12431 0.0
O1380 O 0.69529 0.88754 0.16982 0.0
O1381 O 0.64513 0.86476 0.19292 0.0
O1382 O 0.64095 0.89043 0.1397 0.0
O1383 O 0.67129 0.83617 0.14571 0.0
H1384 H 0.74275 0.8666 0.16352 0.0
H1385 H 0.69512 0.93558 0.14929 0.0
H1386 H 0.7801 0.88866 0.14069 0.0
H1387 H 0.73337 0.95651 0.12686 0.0
H1388 H 0.59842 0.81641 0.25253 0.0
H1389 H 0.6535 0.8949 0.23492 0.0
H1390 H 0.6153 0.82399 0.20734 0.0
H1391 H 0.63566 0.8862 0.27957 0.0
H1392 H 0.68991 0.96677 0.2345 0.0
H1393 H 0.607 0.97284 0.21566 0.0
H1394 H 0.75452 0.79187 0.19675 0.0
H1395 H 0.71086 0.81592 0.26601 0.0
H1396 H 0.6333 0.85511 0.10197 0.0
H1397 H 0.63067 0.93803 0.12091 0.0
H1398 H 0.61914 0.86585 0.05629 0.0
H1399 H 0.6166 0.94735 0.07486 0.0
H1400 H 0.68503 0.80247 0.10836 0.0
H1401 H 0.65424 0.80912 0.18716 0.0
H1402 H 0.68193 0.75362 0.11209 0.0
H1403 H 0.65145 0.76024 0.18951 0.0
H1404 H 0.74682 0.84422 0.07626 0.0
H1405 H 0.71039 0.91805 0.054 0.0
H1406 H 0.5433 0.83332 0.1753 0.0
H1407 H 0.58358 0.77833 0.12384 0.0
C1408 C 0.27318 0.25857 0.24123 0.0
C1409 C 0.24659 0.25329 0.24714 0.0
C1410 C 0.28847 0.27476 0.25765 0.0
C1411 C 0.27777 0.28589 0.28071 0.0
H1412 H 0.28218 0.25022 0.22372 0.0
H1413 H 0.30894 0.27823 0.25251 0.0
S1414 S 0.20915 0.27812 0.30489 0.0
N1415 N 0.21016 0.26041 0.27753 0.0
N1416 N 0.23894 0.29092 0.30841 0.0
C1417 C 0.25119 0.28083 0.28679 0.0
C1418 C 0.23557 0.26454 0.26997 0.0
C1419 C 0.78615 0.27383 0.27299 0.0
C1420 C 0.77728 0.28257 0.24819 0.0
C1421 C 0.77039 0.25754 0.28882 0.0
C1422 C 0.74513 0.24956 0.2805 0.0
H1423 H 0.80556 0.27936 0.28007 0.0
H1424 H 0.77796 0.2513 0.30782 0.0
S1425 S 0.71263 0.26738 0.21737 0.0
N1426 N 0.74147 0.28255 0.21625 0.0
N1427 N 0.71202 0.25145 0.2458 0.0
C1428 C 0.73597 0.25827 0.2558 0.0
C1429 C 0.75203 0.27484 0.23967 0.0
C1430 C 0.25636 0.75571 0.24231 0.0
C1431 C 0.28206 0.74846 0.24985 0.0
C1432 C 0.24078 0.77175 0.25858 0.0
C1433 C 0.25056 0.78139 0.2827 0.0
H1434 H 0.24818 0.74874 0.22382 0.0
H1435 H 0.22108 0.77696 0.2521 0.0
S1436 S 0.31663 0.76821 0.31123 0.0
N1437 N 0.31664 0.7521 0.28287 0.0
N1438 N 0.28736 0.78239 0.31346 0.0
C1439 C 0.27624 0.77433 0.29042 0.0
C1440 C 0.29198 0.75778 0.27399 0.0
C1441 C 0.77341 0.74263 0.25893 0.0
C1442 C 0.78466 0.75203 0.28252 0.0
C1443 C 0.75774 0.759 0.24311 0.0
C1444 C 0.75265 0.78535 0.25034 0.0
H1445 H 0.77686 0.72248 0.25257 0.0
H1446 H 0.74921 0.75083 0.22528 0.0
S1447 S 0.77771 0.81966 0.31003 0.0
N1448 N 0.78949 0.78934 0.31244 0.0
N1449 N 0.76069 0.82036 0.28226 0.0
C1450 C 0.76397 0.79509 0.27375 0.0
C1451 C 0.77986 0.77839 0.28991 0.0
C1452 C 0.25651 0.77618 0.74325 0.0
C1453 C 0.28276 0.78176 0.75034 0.0
C1454 C 0.24057 0.76011 0.75915 0.0
C1455 C 0.25041 0.74887 0.78254 0.0
H1456 H 0.24817 0.7845 0.72541 0.0
H1457 H 0.22049 0.75619 0.75292 0.0
S1458 S 0.31786 0.75737 0.80975 0.0
N1459 N 0.318 0.77464 0.7821 0.0
N1460 N 0.2879 0.74474 0.81222 0.0
C1461 C 0.27663 0.75431 0.78984 0.0
C1462 C 0.29282 0.77072 0.77371 0.0
C1463 C 0.77273 0.74258 0.75671 0.0
C1464 C 0.75008 0.75336 0.7449 0.0
C1465 C 0.78848 0.75783 0.77357 0.0
C1466 C 0.78232 0.78443 0.77865 0.0
H1467 H 0.77795 0.7221 0.7533 0.0
H1468 H 0.8056 0.74882 0.78268 0.0
S1469 S 0.72556 0.82197 0.75197 0.0
N1470 N 0.72238 0.79211 0.73912 0.0
N1471 N 0.75242 0.82101 0.77045 0.0
C1472 C 0.76002 0.79555 0.76659 0.0
C1473 C 0.74374 0.77991 0.7498 0.0
C1474 C 0.77181 0.28932 0.77409 0.0
C1475 C 0.74636 0.28106 0.78145 0.0
C1476 C 0.78782 0.2734 0.75814 0.0
C1477 C 0.77903 0.24857 0.74923 0.0
H1478 H 0.77921 0.30844 0.78031 0.0
H1479 H 0.80727 0.28053 0.75278 0.0
S1480 S 0.71425 0.21761 0.76364 0.0
N1481 N 0.71335 0.24622 0.77931 0.0
N1482 N 0.74334 0.21642 0.74901 0.0
C1483 C 0.75376 0.23994 0.75675 0.0
C1484 C 0.73743 0.25618 0.7729 0.0
C1485 C 0.25242 0.25716 0.74398 0.0
C1486 C 0.24999 0.28415 0.7498 0.0
C1487 C 0.26795 0.24063 0.75976 0.0
C1488 C 0.28183 0.25064 0.7817 0.0
H1489 H 0.24201 0.24877 0.72728 0.0
H1490 H 0.2689 0.2198 0.75487 0.0
S1491 S 0.28302 0.32064 0.8038 0.0
N1492 N 0.26289 0.32052 0.77817 0.0
N1493 N 0.29301 0.28978 0.80742 0.0
C1494 C 0.27975 0.27782 0.78739 0.0
C1495 C 0.26362 0.29451 0.7715 0.0
C1496 C 0.17139 1.00569 0.27239 0.0
C1497 C 0.14771 0.99521 0.28245 0.0
C1498 C 0.17121 0.0268 0.25441 0.0
C1499 C 0.14738 0.03848 0.24625 0.0
H1500 H 0.19017 0.99729 0.27823 0.0
H1501 H 0.18987 0.03429 0.2471 0.0
S1502 S 0.08012 0.01853 0.26703 0.0
N1503 N 0.09987 0.99802 0.28295 0.0
N1504 N 0.09956 0.03805 0.24954 0.0
C1505 C 0.12361 0.02831 0.2563 0.0
C1506 C 0.12377 1.00655 0.27427 0.0
C1507 C 0.87768 0.51792 0.23749 0.0
C1508 C 0.88545 0.49244 0.2455 0.0
C1509 C 0.87824 0.53937 0.25504 0.0
C1510 C 0.88653 0.53628 0.28139 0.0
H1511 H 0.87104 0.52133 0.21746 0.0
H1512 H 0.87161 0.55846 0.248 0.0
S1513 S 0.90917 0.47374 0.31226 0.0
N1514 N 0.90155 0.46533 0.28172 0.0
N1515 N 0.90342 0.50579 0.3144 0.0
C1516 C 0.89466 0.51097 0.28959 0.0
C1517 C 0.894 0.48908 0.27173 0.0
C1518 C 0.28167 0.17189 1.01021 0.0
C1519 C 0.2817 0.15104 0.99183 0.0
C1520 C 0.26481 0.17155 0.03218 0.0
C1521 C 0.24703 0.15058 0.0363 0.0
H1522 H 0.29493 0.18851 1.00767 0.0
H1523 H 0.26545 0.18799 0.04588 0.0
S1524 S 0.2391 0.09144 0.99381 0.0
N1525 N 0.2624 0.10893 0.97913 0.0
N1526 N 0.23051 0.10844 0.02028 0.0
C1527 C 0.24675 0.1297 0.01801 0.0
C1528 C 0.26417 0.12986 0.99584 0.0
C1529 C 0.76832 0.39804 0.02845 0.0
C1530 C 0.78254 0.37504 0.03493 0.0
C1531 C 0.75126 0.39867 1.0066 0.0
C1532 C 0.74808 0.37643 0.99022 0.0
H1533 H 0.7701 0.41558 0.0406 0.0
H1534 H 0.74072 0.41679 1.0023 0.0
S1535 S 0.78086 0.3114 0.99853 0.0
N1536 N 0.79245 0.32956 0.02302 0.0
N1537 N 0.76025 0.33066 0.9822 0.0
C1538 C 0.76222 0.35334 0.99646 0.0
C1539 C 0.77945 0.35265 0.01874 0.0
C1540 C 0.28092 0.85811 0.51897 0.0
C1541 C 0.28189 0.87941 0.53681 0.0
C1542 C 0.26397 0.85853 0.49707 0.0
C1543 C 0.24705 0.88008 0.49242 0.0
H1544 H 0.2935 0.84105 0.52187 0.0
H1545 H 0.26387 0.8417 0.48384 0.0
S1546 S 0.2418 0.94063 0.53333 0.0
N1547 N 0.26436 0.92258 0.54844 0.0
N1548 N 0.23242 0.9233 0.50733 0.0
C1549 C 0.24774 0.90144 0.51015 0.0
C1550 C 0.26522 0.90116 0.53228 0.0
C1551 C 0.77351 0.66128 0.53525 0.0
C1552 C 0.74857 0.64893 0.53455 0.0
C1553 C 0.79059 0.66061 0.51348 0.0
C1554 C 0.78362 0.64741 0.49003 0.0
H1555 H 0.77998 0.67159 0.55283 0.0
H1556 H 0.80925 0.67097 0.51493 0.0
S1557 S 0.72094 0.61117 0.47808 0.0
N1558 N 0.71777 0.62312 0.50823 0.0
N1559 N 0.75039 0.62066 0.46786 0.0
C1560 C 0.75895 0.63452 0.48919 0.0
C1561 C 0.74139 0.63548 0.51129 0.0
C1562 C 0.99515 0.26149 0.16527 0.0
C1563 C 0.99168 0.28166 0.14642 0.0
C1564 C 0.0172 0.24474 0.16458 0.0
C1565 C 0.03673 0.24747 0.14503 0.0
H1566 H 0.98085 0.25882 0.18094 0.0
H1567 H 0.01919 0.22982 0.17978 0.0
S1568 S 0.03608 0.2958 0.08995 0.0
N1569 N 1.00904 0.30251 0.10686 0.0
N1570 N 0.05051 0.27109 0.1056 0.0
C1571 C 0.03338 0.26734 0.12588 0.0
C1572 C 1.01089 0.28441 0.12658 0.0
C1573 C 0.9948 0.77083 0.3674 0.0
C1574 C 0.99471 0.74771 0.38289 0.0
C1575 C 0.01649 0.78811 0.36737 0.0
C1576 C 0.03898 0.78297 0.38283 0.0
H1577 H 0.97813 0.7754 0.35482 0.0
H1578 H 0.01585 0.80534 0.3547 0.0
S1579 S 0.0477 0.72642 0.42867 0.0
N1580 N 0.0184 0.72145 0.41526 0.0
N1581 N 0.05912 0.7539 0.4153 0.0
C1582 C 0.03893 0.76019 0.3988 0.0
C1583 C 0.01685 0.74258 0.3988 0.0
C1584 C 0.51626 0.74256 0.66222 0.0
C1585 C 0.53817 0.74789 0.64609 0.0
C1586 C 0.49436 0.75952 0.66263 0.0
C1587 C 0.49335 0.78238 0.64671 0.0
H1588 H 0.51628 0.72543 0.67506 0.0
H1589 H 0.47823 0.75484 0.67585 0.0
S1590 S 0.54501 0.80388 0.59939 0.0
N1591 N 0.55726 0.77691 0.61304 0.0
N1592 N 0.51585 0.80845 0.61321 0.0
C1593 C 0.51503 0.78762 0.63012 0.0
C1594 C 0.53745 0.77046 0.62993 0.0
C1595 C 0.89488 0.03154 0.76186 0.0
C1596 C 0.87422 0.0351 0.7436 0.0
C1597 C 0.89509 1.00994 0.77932 0.0
C1598 C 0.8748 0.9909 0.77899 0.0
H1599 H 0.91079 0.04581 0.76298 0.0
H1600 H 0.91139 1.00799 0.79301 0.0
S1601 S 0.81632 0.99098 0.73486 0.0
N1602 N 0.83319 0.01746 0.72602 0.0
N1603 N 0.83332 0.97728 0.75904 0.0
C1604 C 0.8541 0.9942 0.76077 0.0
C1605 C 0.85386 0.01617 0.74306 0.0
C1606 C 0.13886 0.51468 0.78835 0.0
C1607 C 0.1474 0.53965 0.77959 0.0
C1608 C 0.13867 0.49276 0.77135 0.0
C1609 C 0.14672 0.49499 0.74483 0.0
H1610 H 0.13293 0.51191 0.8087 0.0
H1611 H 0.1323 0.47384 0.77908 0.0
S1612 S 0.16965 0.55634 0.71185 0.0
N1613 N 0.16305 0.56561 0.74239 0.0
N1614 N 0.163 0.5244 0.71055 0.0
C1615 C 0.1547 0.52 0.73566 0.0
C1616 C 0.15501 0.54229 0.75301 0.0
C1617 C 0.77637 0.88131 0.04258 0.0
C1618 C 0.74891 0.88295 0.0389 0.0
C1619 C 0.79382 0.882 0.02105 0.0
C1620 C 0.78448 0.88412 0.99493 0.0
H1621 H 0.78444 0.87957 0.0623 0.0
H1622 H 0.81481 0.88091 0.02493 0.0
S1623 S 0.71401 0.88702 0.97477 0.0
N1624 N 0.71305 0.8859 1.00731 0.0
N1625 N 0.7456 0.88646 0.96677 0.0
C1626 C 0.75695 0.88555 0.99105 0.0
C1627 C 0.73924 0.88514 1.01302 0.0
C1628 C 0.26911 0.63905 0.99265 0.0
C1629 C 0.24313 0.64846 0.99548 0.0
C1630 C 0.28696 0.63962 0.01386 0.0
C1631 C 0.27946 0.64951 0.03873 0.0
H1632 H 0.27588 0.63185 0.97369 0.0
H1633 H 0.30698 0.63288 1.01057 0.0
S1634 S 0.21265 0.67339 0.05713 0.0
N1635 N 0.21019 0.6661 0.02546 0.0
N1636 N 0.24342 0.66664 0.06547 0.0
C1637 C 0.2532 0.65805 0.04202 0.0
C1638 C 0.23514 0.65767 0.02037 0.0
C1639 C 0.73753 0.16061 0.51905 0.0
C1640 C 0.74455 0.1495 0.49458 0.0
C1641 C 0.75536 0.16109 0.54025 0.0
C1642 C 0.78099 0.15057 0.53784 0.0
H1643 H 0.71805 0.16895 0.52187 0.0
H1644 H 0.74898 0.16972 0.55875 0.0
S1645 S 0.80969 0.12074 0.47742 0.0
N1646 N 0.77925 0.12861 0.46886 0.0
N1647 N 0.81275 0.12959 0.50864 0.0
C1648 C 0.78827 0.13943 0.51346 0.0
C1649 C 0.77009 0.1389 0.49188 0.0
C1650 C 0.25178 0.4057 0.52396 0.0
C1651 C 0.25028 0.38327 0.54033 0.0
C1652 C 0.26892 0.40646 0.50218 0.0
C1653 C 0.28526 0.38484 0.49595 0.0
H1654 H 0.23978 0.42291 0.52815 0.0
H1655 H 0.2695 0.42418 0.49019 0.0
S1656 S 0.28708 0.32051 0.53104 0.0
N1657 N 0.26549 0.33829 0.54778 0.0
N1658 N 0.29768 0.33979 0.50699 0.0
C1659 C 0.28371 0.36218 0.51195 0.0
C1660 C 0.26625 0.36137 0.53407 0.0
C1661 C 0.0197 0.75115 0.85815 0.0
C1662 C 0.03651 0.74769 0.88002 0.0
C1663 C 0.99895 0.76947 0.85868 0.0
C1664 C 0.994 0.78505 0.88114 0.0
H1665 H 0.02256 0.73951 0.84043 0.0
H1666 H 0.9865 0.77131 0.84139 0.0
S1667 S 0.03282 0.78476 0.94317 0.0
N1668 N 0.04727 0.76225 0.92451 0.0
N1669 N 1.00796 0.79637 0.92557 0.0
C1670 C 1.01052 0.78179 0.9032 0.0
C1671 C 0.0318 0.76321 0.90263 0.0
C1672 C 0.03295 0.26545 0.63173 0.0
C1673 C 0.03572 0.2855 0.65084 0.0
C1674 C 1.01162 0.24775 0.63229 0.0
C1675 C 0.9921 0.24929 0.65199 0.0
H1676 H 0.04748 0.26333 0.61619 0.0
H1677 H 1.01071 0.23241 0.6174 0.0
S1678 S 0.98964 0.29868 0.70623 0.0
N1679 N 0.017 0.30585 0.69006 0.0
N1680 N 0.97635 0.2734 0.69047 0.0
C1681 C 0.99434 0.26959 0.67095 0.0
C1682 C 0.0162 0.2875 0.67048 0.0
C1683 C 0.5283 0.2634 0.4003 0.0
C1684 C 0.53403 0.24811 0.3778 0.0
C1685 C 0.50649 0.28056 0.40084 0.0
C1686 C 0.4894 0.28271 0.37905 0.0
H1687 H 0.541 0.26239 0.41746 0.0
H1688 H 0.50278 0.29201 0.41852 0.0
S1689 S 0.49558 0.24687 0.31549 0.0
N1690 N 0.5207 0.23616 0.33328 0.0
N1691 N 0.47983 0.26834 0.33431 0.0
C1692 C 0.49486 0.26745 0.35651 0.0
C1693 C 0.51714 0.2502 0.35587 0.0
C1694 C 0.63127 0.53843 0.76797 0.0
C1695 C 0.6471 0.5372 0.74509 0.0
C1696 C 0.63051 0.51741 0.78615 0.0
C1697 C 0.64572 0.49454 0.78221 0.0
H1698 H 0.61996 0.55607 0.77229 0.0
H1699 H 0.61854 0.51936 0.80376 0.0
S1700 S 0.68802 0.47989 0.72443 0.0
N1701 N 0.67635 0.50979 0.71855 0.0
N1702 N 0.67554 0.47093 0.75316 0.0
C1703 C 0.66095 0.49265 0.75917 0.0
C1704 C 0.6615 0.51381 0.74052 0.0
C1705 C 0.37292 1.01226 0.78882 0.0
C1706 C 0.38702 0.0357 0.78338 0.0
C1707 C 0.37277 0.99099 0.77106 0.0
C1708 C 0.38702 0.99209 0.74733 0.0
H1709 H 0.36167 1.01039 0.8069 0.0
H1710 H 0.36125 0.97358 0.77583 0.0
S1711 S 0.42683 0.04845 0.7231 0.0
N1712 N 0.41522 0.05859 0.75183 0.0
N1713 N 0.4156 0.01806 0.71908 0.0
C1714 C 0.40165 1.01495 0.74176 0.0
C1715 C 0.40154 0.03685 0.75964 0.0
C1716 C 0.51402 0.24445 0.87001 0.0
C1717 C 0.49135 0.24969 0.88514 0.0
C1718 C 0.5356 0.26187 0.87 0.0
C1719 C 0.5354 0.28523 0.88516 0.0
H1720 H 0.51486 0.22705 0.85757 0.0
H1721 H 0.5524 0.25722 0.85764 0.0
S1722 S 0.48181 0.30685 0.93008 0.0
N1723 N 0.47069 0.27911 0.91697 0.0
N1724 N 0.51123 0.3118 0.91694 0.0
C1725 C 0.51308 0.29044 0.90079 0.0
C1726 C 0.4911 0.27269 0.90081 0.0
C1727 C 0.40164 0.51976 0.24802 0.0
C1728 C 0.3802 0.53743 0.24732 0.0
C1729 C 0.40233 0.4986 0.26599 0.0
C1730 C 0.38168 0.49431 0.28412 0.0
H1731 H 0.41782 0.52198 0.23423 0.0
H1732 H 0.41921 0.48548 0.26565 0.0
S1733 S 0.32135 0.53541 0.29098 0.0
N1734 N 0.33832 0.54986 0.26722 0.0
N1735 N 0.33908 0.50963 0.30011 0.0
C1736 C 0.36026 0.51203 0.28382 0.0
C1737 C 0.35964 0.53364 0.26565 0.0
C1738 C 0.63453 0.0407 0.25702 0.0
C1739 C 0.64394 0.0383 0.28307 0.0
C1740 C 0.63515 0.01919 0.23945 0.0
C1741 C 0.64563 0.99463 0.24717 0.0
H1742 H 0.62674 0.05941 0.25013 0.0
H1743 H 0.62806 0.022 0.21948 0.0
S1744 S 0.6723 0.97788 0.31327 0.0
N1745 N 0.66366 1.00925 0.31575 0.0
N1746 N 0.66479 0.96891 0.28285 0.0
C1747 C 0.65472 0.99188 0.27326 0.0
C1748 C 0.65386 1.01366 0.29118 0.0
C1749 C 0.52888 0.77127 0.12792 0.0
C1750 C 0.53711 0.78444 0.15102 0.0
C1751 C 0.50784 0.75321 0.12821 0.0
C1752 C 0.49381 0.74761 0.15155 0.0
H1753 H 0.53872 0.77499 0.10932 0.0
H1754 H 0.50271 0.74338 0.10993 0.0
S1755 S 0.50704 0.77698 0.21749 0.0
N1756 N 0.52976 0.79004 0.19815 0.0
N1757 N 0.48919 0.75756 0.19833 0.0
C1758 C 0.50158 0.76088 0.17477 0.0
C1759 C 0.52335 0.77896 0.17457 0.0
loop_
_geom_bond_atom_site_label_1
_geom_bond_atom_site_label_2
_geom_bond_distance
_geom_bond_site_symmetry_2
_ccdc_geom_bond_type
Li0 N17 1.990 . S
Li0 O60 1.956 . S
Li0 O61 1.970 . S
Li0 O62 1.961 . S
Li1 N25 1.990 . S
Li1 O60 1.970 . S
Li1 O61 1.956 . S
Li1 O63 1.961 . S
Li2 N47 1.990 . S
Li2 O60 1.961 . S
Li2 O62 1.956 . S
Li2 O63 1.970 . S
Li3 N53 1.990 . S
Li3 O61 1.961 . S
Li3 O62 1.970 . S
Li3 O63 1.956 . S
C4 C6 1.348 . S
C4 C7 1.356 . S
C4 O60 1.325 . S
N5 C8 1.314 . S
N5 C9 1.279 . S
C6 C4 1.348 . S
C6 C8 1.353 . S
C6 H64 0.929 . S
C7 C4 1.356 . S
C7 C9 1.358 . S
C7 H65 0.930 . S
C8 N5 1.314 . S
C8 C6 1.353 . S
C8 H66 0.930 . S
C9 N5 1.279 . S
C9 C7 1.358 . S
C9 H67 0.930 . S
C10 C13 1.348 . S
C10 C14 1.356 . S
C10 O61 1.325 . S
C11 N12 1.279 . S
C11 C14 1.358 . S
C11 H68 0.930 . S
N12 C11 1.279 . S
N12 C15 1.314 . S
C13 C10 1.348 . S
C13 C15 1.353 . S
C13 H69 0.929 . S
C14 C10 1.356 . S
C14 C11 1.358 . S
C14 H70 0.930 . S
C15 N12 1.314 . S
C15 C13 1.353 . S
C15 H71 0.930 . S
C16 N17 1.314 . S
C16 C21 1.353 . S
C16 H22 0.930 . S
N17 Li0 1.990 . S
N17 C16 1.314 . S
N17 C19 1.279 . S
C18 C19 1.358 . S
C18 C20 1.356 . S
C18 H72 0.930 . S
C19 N17 1.279 . S
C19 C18 1.358 . S
C19 H23 0.930 . S
C20 C18 1.356 . S
C20 C21 1.348 . S
C21 C16 1.353 . S
C21 C20 1.348 . S
C21 H73 0.929 . S
H22 C16 0.930 . S
H23 C19 0.930 . S
C24 N25 1.314 . S
C24 C26 1.353 . S
C24 H30 0.930 . S
N25 Li1 1.990 . S
N25 C24 1.314 . S
N25 C28 1.279 . S
C26 C24 1.353 . S
C26 C29 1.348 . S
C26 H74 0.929 . S
C27 C28 1.358 . S
C27 C29 1.356 . S
C27 H75 0.930 . S
C28 N25 1.279 . S
C28 C27 1.358 . S
C28 H31 0.930 . S
C29 C26 1.348 . S
C29 C27 1.356 . S
H30 C24 0.930 . S
H31 C28 0.930 . S
C32 C34 1.348 . S
C32 C35 1.356 . S
C32 O62 1.325 . S
N33 C36 1.314 . S
N33 C37 1.279 . S
C34 C32 1.348 . S
C34 C36 1.353 . S
C34 H76 0.929 . S
C35 C32 1.356 . S
C35 C37 1.358 . S
C35 H77 0.930 . S
C36 N33 1.314 . S
C36 C34 1.353 . S
C36 H78 0.930 . S
C37 N33 1.279 . S
C37 C35 1.358 . S
C37 H79 0.930 . S
C38 C39 1.348 . S
C38 C40 1.356 . S
C38 O63 1.325 . S
C39 C38 1.348 . S
C39 C41 1.353 . S
C39 H80 0.929 . S
C40 C38 1.356 . S
C40 C42 1.358 . S
C40 H81 0.930 . S
C41 C39 1.353 . S
C41 N43 1.314 . S
C41 H82 0.930 . S
C42 C40 1.358 . S
C42 N43 1.279 . S
C42 H83 0.930 . S
N43 C41 1.314 . S
N43 C42 1.279 . S
C44 C46 1.353 . S
C44 N47 1.314 . S
C44 H50 0.930 . S
C45 N47 1.279 . S
C45 C48 1.358 . S
C45 H51 0.930 . S
C46 C44 1.353 . S
C46 C49 1.348 . S
C46 H84 0.929 . S
N47 Li2 1.990 . S
N47 C44 1.314 . S
N47 C45 1.279 . S
C48 C45 1.358 . S
C48 C49 1.356 . S
C48 H85 0.930 . S
C49 C46 1.348 . S
C49 C48 1.356 . S
H50 C44 0.930 . S
H51 C45 0.930 . S
C52 N53 1.314 . S
C52 C54 1.353 . S
C52 H58 0.930 . S
N53 Li3 1.990 . S
N53 C52 1.314 . S
N53 C56 1.279 . S
C54 C52 1.353 . S
C54 C57 1.348 . S
C54 H86 0.929 . S
C55 C56 1.358 . S
C55 C57 1.356 . S
C55 H87 0.930 . S
C56 N53 1.279 . S
C56 C55 1.358 . S
C56 H59 0.930 . S
C57 C54 1.348 . S
C57 C55 1.356 . S
H58 C52 0.930 . S
H59 C56 0.930 . S
O60 Li0 1.956 . S
O60 Li1 1.970 . S
O60 Li2 1.961 . S
O60 C4 1.325 . S
O61 Li0 1.970 . S
O61 Li1 1.956 . S
O61 Li3 1.961 . S
O61 C10 1.325 . S
O62 Li0 1.961 . S
O62 Li2 1.956 . S
O62 Li3 1.970 . S
O62 C32 1.325 . S
O63 Li1 1.961 . S
O63 Li2 1.970 . S
O63 Li3 1.956 . S
O63 C38 1.325 . S
H64 C6 0.929 . S
H65 C7 0.930 . S
H66 C8 0.930 . S
H67 C9 0.930 . S
H68 C11 0.930 . S
H69 C13 0.929 . S
H70 C14 0.930 . S
H71 C15 0.930 . S
H72 C18 0.930 . S
H73 C21 0.929 . S
H74 C26 0.929 . S
H75 C27 0.930 . S
H76 C34 0.929 . S
H77 C35 0.930 . S
H78 C36 0.930 . S
H79 C37 0.930 . S
H80 C39 0.929 . S
H81 C40 0.930 . S
H82 C41 0.930 . S
H83 C42 0.930 . S
H84 C46 0.929 . S
H85 C48 0.930 . S
H86 C54 0.929 . S
H87 C55 0.930 . S
Li88 N105 1.990 . S
Li88 O148 1.956 . S
Li88 O149 1.970 . S
Li88 O150 1.961 . S
Li89 N113 1.990 . S
Li89 O148 1.970 . S
Li89 O149 1.956 . S
Li89 O151 1.961 . S
Li90 N135 1.990 . S
Li90 O148 1.961 . S
Li90 O150 1.956 . S
Li90 O151 1.970 . S
Li91 N141 1.990 . S
Li91 O149 1.961 . S
Li91 O150 1.970 . S
Li91 O151 1.956 . S
C92 C94 1.348 . S
C92 C95 1.356 . S
C92 O148 1.325 . S
N93 C96 1.314 . S
N93 C97 1.279 . S
C94 C92 1.348 . S
C94 C96 1.353 . S
C94 H152 0.929 . S
C95 C92 1.356 . S
C95 C97 1.358 . S
C95 H153 0.930 . S
C96 N93 1.314 . S
C96 C94 1.353 . S
C96 H154 0.930 . S
C97 N93 1.279 . S
C97 C95 1.358 . S
C97 H155 0.930 . S
C98 C101 1.348 . S
C98 C102 1.356 . S
C98 O149 1.325 . S
C99 N100 1.279 . S
C99 C102 1.358 . S
C99 H156 0.930 . S
N100 C99 1.279 . S
N100 C103 1.314 . S
C101 C98 1.348 . S
C101 C103 1.353 . S
C101 H157 0.929 . S
C102 C98 1.356 . S
C102 C99 1.358 . S
C102 H158 0.930 . S
C103 N100 1.314 . S
C103 C101 1.353 . S
C103 H159 0.930 . S
C104 N105 1.314 . S
C104 C109 1.353 . S
C104 H110 0.930 . S
N105 Li88 1.990 . S
N105 C104 1.314 . S
N105 C107 1.279 . S
C106 C107 1.358 . S
C106 C108 1.356 . S
C106 H160 0.930 . S
C107 N105 1.279 . S
C107 C106 1.358 . S
C107 H111 0.930 . S
C108 C106 1.356 . S
C108 C109 1.348 . S
C109 C104 1.353 . S
C109 C108 1.348 . S
C109 H161 0.929 . S
H110 C104 0.930 . S
H111 C107 0.930 . S
C112 N113 1.314 . S
C112 C114 1.353 . S
C112 H118 0.930 . S
N113 Li89 1.990 . S
N113 C112 1.314 . S
N113 C116 1.279 . S
C114 C112 1.353 . S
C114 C117 1.348 . S
C114 H162 0.929 . S
C115 C116 1.358 . S
C115 C117 1.356 . S
C115 H163 0.930 . S
C116 N113 1.279 . S
C116 C115 1.358 . S
C116 H119 0.930 . S
C117 C114 1.348 . S
C117 C115 1.356 . S
H118 C112 0.930 . S
H119 C116 0.930 . S
C120 C122 1.348 . S
C120 C123 1.356 . S
C120 O150 1.325 . S
N121 C124 1.314 . S
N121 C125 1.279 . S
C122 C120 1.348 . S
C122 C124 1.353 . S
C122 H164 0.929 . S
C123 C120 1.356 . S
C123 C125 1.358 . S
C123 H165 0.930 . S
C124 N121 1.314 . S
C124 C122 1.353 . S
C124 H166 0.930 . S
C125 N121 1.279 . S
C125 C123 1.358 . S
C125 H167 0.930 . S
C126 C127 1.348 . S
C126 C128 1.356 . S
C126 O151 1.325 . S
C127 C126 1.348 . S
C127 C129 1.353 . S
C127 H168 0.929 . S
C128 C126 1.356 . S
C128 C130 1.358 . S
C128 H169 0.930 . S
C129 C127 1.353 . S
C129 N131 1.314 . S
C129 H170 0.930 . S
C130 C128 1.358 . S
C130 N131 1.279 . S
C130 H171 0.930 . S
N131 C129 1.314 . S
N131 C130 1.279 . S
C132 C134 1.353 . S
C132 N135 1.314 . S
C132 H138 0.930 . S
C133 N135 1.279 . S
C133 C136 1.358 . S
C133 H139 0.930 . S
C134 C132 1.353 . S
C134 C137 1.348 . S
C134 H172 0.929 . S
N135 Li90 1.990 . S
N135 C132 1.314 . S
N135 C133 1.279 . S
C136 C133 1.358 . S
C136 C137 1.356 . S
C136 H173 0.930 . S
C137 C134 1.348 . S
C137 C136 1.356 . S
H138 C132 0.930 . S
H139 C133 0.930 . S
C140 N141 1.314 . S
C140 C142 1.353 . S
C140 H146 0.930 . S
N141 Li91 1.990 . S
N141 C140 1.314 . S
N141 C144 1.279 . S
C142 C140 1.353 . S
C142 C145 1.348 . S
C142 H174 0.929 . S
C143 C144 1.358 . S
C143 C145 1.356 . S
C143 H175 0.930 . S
C144 N141 1.279 . S
C144 C143 1.358 . S
C144 H147 0.930 . S
C145 C142 1.348 . S
C145 C143 1.356 . S
H146 C140 0.930 . S
H147 C144 0.930 . S
O148 Li88 1.956 . S
O148 Li89 1.970 . S
O148 Li90 1.961 . S
O148 C92 1.325 . S
O149 Li88 1.970 . S
O149 Li89 1.956 . S
O149 Li91 1.961 . S
O149 C98 1.325 . S
O150 Li88 1.961 . S
O150 Li90 1.956 . S
O150 Li91 1.970 . S
O150 C120 1.325 . S
O151 Li89 1.961 . S
O151 Li90 1.970 . S
O151 Li91 1.956 . S
O151 C126 1.325 . S
H152 C94 0.929 . S
H153 C95 0.930 . S
H154 C96 0.930 . S
H155 C97 0.930 . S
H156 C99 0.930 . S
H157 C101 0.929 . S
H158 C102 0.930 . S
H159 C103 0.930 . S
H160 C106 0.930 . S
H161 C109 0.929 . S
H162 C114 0.929 . S
H163 C115 0.930 . S
H164 C122 0.929 . S
H165 C123 0.930 . S
H166 C124 0.930 . S
H167 C125 0.930 . S
H168 C127 0.929 . S
H169 C128 0.930 . S
H170 C129 0.930 . S
H171 C130 0.930 . S
H172 C134 0.929 . S
H173 C136 0.930 . S
H174 C142 0.929 . S
H175 C143 0.930 . S
Li176 N193 1.990 . S
Li176 O236 1.956 . S
Li176 O237 1.970 . S
Li176 O238 1.961 . S
Li177 N201 1.990 . S
Li177 O236 1.970 . S
Li177 O237 1.956 . S
Li177 O239 1.961 . S
Li178 N223 1.990 . S
Li178 O236 1.961 . S
Li178 O238 1.956 . S
Li178 O239 1.970 . S
Li179 N229 1.990 . S
Li179 O237 1.961 . S
Li179 O238 1.970 . S
Li179 O239 1.956 . S
C180 C182 1.348 . S
C180 C183 1.356 . S
C180 O236 1.325 . S
N181 C184 1.314 . S
N181 C185 1.279 . S
C182 C180 1.348 . S
C182 C184 1.353 . S
C182 H240 0.929 . S
C183 C180 1.356 . S
C183 C185 1.358 . S
C183 H241 0.930 . S
C184 N181 1.314 . S
C184 C182 1.353 . S
C184 H242 0.930 . S
C185 N181 1.279 . S
C185 C183 1.358 . S
C185 H243 0.930 . S
C186 C189 1.348 . S
C186 C190 1.356 . S
C186 O237 1.325 . S
C187 N188 1.279 . S
C187 C190 1.358 . S
C187 H244 0.930 . S
N188 C187 1.279 . S
N188 C191 1.314 . S
C189 C186 1.348 . S
C189 C191 1.353 . S
C189 H245 0.929 . S
C190 C186 1.356 . S
C190 C187 1.358 . S
C190 H246 0.930 . S
C191 N188 1.314 . S
C191 C189 1.353 . S
C191 H247 0.930 . S
C192 N193 1.314 . S
C192 C197 1.353 . S
C192 H198 0.930 . S
N193 Li176 1.990 . S
N193 C192 1.314 . S
N193 C195 1.279 . S
C194 C195 1.358 . S
C194 C196 1.356 . S
C194 H248 0.930 . S
C195 N193 1.279 . S
C195 C194 1.358 . S
C195 H199 0.930 . S
C196 C194 1.356 . S
C196 C197 1.348 . S
C197 C192 1.353 . S
C197 C196 1.348 . S
C197 H249 0.929 . S
H198 C192 0.930 . S
H199 C195 0.930 . S
C200 N201 1.314 . S
C200 C202 1.353 . S
C200 H206 0.930 . S
N201 Li177 1.990 . S
N201 C200 1.314 . S
N201 C204 1.279 . S
C202 C200 1.353 . S
C202 C205 1.348 . S
C202 H250 0.929 . S
C203 C204 1.358 . S
C203 C205 1.356 . S
C203 H251 0.930 . S
C204 N201 1.279 . S
C204 C203 1.358 . S
C204 H207 0.930 . S
C205 C202 1.348 . S
C205 C203 1.356 . S
H206 C200 0.930 . S
H207 C204 0.930 . S
C208 C210 1.348 . S
C208 C211 1.356 . S
C208 O238 1.325 . S
N209 C212 1.314 . S
N209 C213 1.279 . S
C210 C208 1.348 . S
C210 C212 1.353 . S
C210 H252 0.929 . S
C211 C208 1.356 . S
C211 C213 1.358 . S
C211 H253 0.930 . S
C212 N209 1.314 . S
C212 C210 1.353 . S
C212 H254 0.930 . S
C213 N209 1.279 . S
C213 C211 1.358 . S
C213 H255 0.930 . S
C214 C215 1.348 . S
C214 C216 1.356 . S
C214 O239 1.325 . S
C215 C214 1.348 . S
C215 C217 1.353 . S
C215 H256 0.929 . S
C216 C214 1.356 . S
C216 C218 1.358 . S
C216 H257 0.930 . S
C217 C215 1.353 . S
C217 N219 1.314 . S
C217 H258 0.930 . S
C218 C216 1.358 . S
C218 N219 1.279 . S
C218 H259 0.930 . S
N219 C217 1.314 . S
N219 C218 1.279 . S
C220 C222 1.353 . S
C220 N223 1.314 . S
C220 H226 0.930 . S
C221 N223 1.279 . S
C221 C224 1.358 . S
C221 H227 0.930 . S
C222 C220 1.353 . S
C222 C225 1.348 . S
C222 H260 0.929 . S
N223 Li178 1.990 . S
N223 C220 1.314 . S
N223 C221 1.279 . S
C224 C221 1.358 . S
C224 C225 1.356 . S
C224 H261 0.930 . S
C225 C222 1.348 . S
C225 C224 1.356 . S
H226 C220 0.930 . S
H227 C221 0.930 . S
C228 N229 1.314 . S
C228 C230 1.353 . S
C228 H234 0.930 . S
N229 Li179 1.990 . S
N229 C228 1.314 . S
N229 C232 1.279 . S
C230 C228 1.353 . S
C230 C233 1.348 . S
C230 H262 0.929 . S
C231 C232 1.358 . S
C231 C233 1.356 . S
C231 H263 0.930 . S
C232 N229 1.279 . S
C232 C231 1.358 . S
C232 H235 0.930 . S
C233 C230 1.348 . S
C233 C231 1.356 . S
H234 C228 0.930 . S
H235 C232 0.930 . S
O236 Li176 1.956 . S
O236 Li177 1.970 . S
O236 Li178 1.961 . S
O236 C180 1.325 . S
O237 Li176 1.970 . S
O237 Li177 1.956 . S
O237 Li179 1.961 . S
O237 C186 1.325 . S
O238 Li176 1.961 . S
O238 Li178 1.956 . S
O238 Li179 1.970 . S
O238 C208 1.325 . S
O239 Li177 1.961 . S
O239 Li178 1.970 . S
O239 Li179 1.956 . S
O239 C214 1.325 . S
H240 C182 0.929 . S
H241 C183 0.930 . S
H242 C184 0.930 . S
H243 C185 0.930 . S
H244 C187 0.930 . S
H245 C189 0.929 . S
H246 C190 0.930 . S
H247 C191 0.930 . S
H248 C194 0.930 . S
H249 C197 0.929 . S
H250 C202 0.929 . S
H251 C203 0.930 . S
H252 C210 0.929 . S
H253 C211 0.930 . S
H254 C212 0.930 . S
H255 C213 0.930 . S
H256 C215 0.929 . S
H257 C216 0.930 . S
H258 C217 0.930 . S
H259 C218 0.930 . S
H260 C222 0.929 . S
H261 C224 0.930 . S
H262 C230 0.929 . S
H263 C231 0.930 . S
Li264 N281 1.990 . S
Li264 O324 1.956 . S
Li264 O325 1.970 . S
Li264 O326 1.961 . S
Li265 N289 1.990 . S
Li265 O324 1.970 . S
Li265 O325 1.956 . S
Li265 O327 1.961 . S
Li266 N311 1.990 . S
Li266 O324 1.961 . S
Li266 O326 1.956 . S
Li266 O327 1.970 . S
Li267 N317 1.990 . S
Li267 O325 1.961 . S
Li267 O326 1.970 . S
Li267 O327 1.956 . S
C268 C270 1.348 . S
C268 C271 1.356 . S
C268 O324 1.325 . S
N269 C272 1.314 . S
N269 C273 1.279 . S
C270 C268 1.348 . S
C270 C272 1.353 . S
C270 H328 0.929 . S
C271 C268 1.356 . S
C271 C273 1.358 . S
C271 H329 0.930 . S
C272 N269 1.314 . S
C272 C270 1.353 . S
C272 H330 0.930 . S
C273 N269 1.279 . S
C273 C271 1.358 . S
C273 H331 0.930 . S
C274 C277 1.348 . S
C274 C278 1.356 . S
C274 O325 1.325 . S
C275 N276 1.279 . S
C275 C278 1.358 . S
C275 H332 0.930 . S
N276 C275 1.279 . S
N276 C279 1.314 . S
C277 C274 1.348 . S
C277 C279 1.353 . S
C277 H333 0.929 . S
C278 C274 1.356 . S
C278 C275 1.358 . S
C278 H334 0.930 . S
C279 N276 1.314 . S
C279 C277 1.353 . S
C279 H335 0.930 . S
C280 N281 1.314 . S
C280 C285 1.353 . S
C280 H286 0.930 . S
N281 Li264 1.990 . S
N281 C280 1.314 . S
N281 C283 1.279 . S
C282 C283 1.358 . S
C282 C284 1.356 . S
C282 H336 0.930 . S
C283 N281 1.279 . S
C283 C282 1.358 . S
C283 H287 0.930 . S
C284 C282 1.356 . S
C284 C285 1.348 . S
C285 C280 1.353 . S
C285 C284 1.348 . S
C285 H337 0.929 . S
H286 C280 0.930 . S
H287 C283 0.930 . S
C288 N289 1.314 . S
C288 C290 1.353 . S
C288 H294 0.930 . S
N289 Li265 1.990 . S
N289 C288 1.314 . S
N289 C292 1.279 . S
C290 C288 1.353 . S
C290 C293 1.348 . S
C290 H338 0.929 . S
C291 C292 1.358 . S
C291 C293 1.356 . S
C291 H339 0.930 . S
C292 N289 1.279 . S
C292 C291 1.358 . S
C292 H295 0.930 . S
C293 C290 1.348 . S
C293 C291 1.356 . S
H294 C288 0.930 . S
H295 C292 0.930 . S
C296 C298 1.348 . S
C296 C299 1.356 . S
C296 O326 1.325 . S
N297 C300 1.314 . S
N297 C301 1.279 . S
C298 C296 1.348 . S
C298 C300 1.353 . S
C298 H340 0.929 . S
C299 C296 1.356 . S
C299 C301 1.358 . S
C299 H341 0.930 . S
C300 N297 1.314 . S
C300 C298 1.353 . S
C300 H342 0.930 . S
C301 N297 1.279 . S
C301 C299 1.358 . S
C301 H343 0.930 . S
C302 C303 1.348 . S
C302 C304 1.356 . S
C302 O327 1.325 . S
C303 C302 1.348 . S
C303 C305 1.353 . S
C303 H344 0.929 . S
C304 C302 1.356 . S
C304 C306 1.358 . S
C304 H345 0.930 . S
C305 C303 1.353 . S
C305 N307 1.314 . S
C305 H346 0.930 . S
C306 C304 1.358 . S
C306 N307 1.279 . S
C306 H347 0.930 . S
N307 C305 1.314 . S
N307 C306 1.279 . S
C308 C310 1.353 . S
C308 N311 1.314 . S
C308 H314 0.930 . S
C309 N311 1.279 . S
C309 C312 1.358 . S
C309 H315 0.930 . S
C310 C308 1.353 . S
C310 C313 1.348 . S
C310 H348 0.929 . S
N311 Li266 1.990 . S
N311 C308 1.314 . S
N311 C309 1.279 . S
C312 C309 1.358 . S
C312 C313 1.356 . S
C312 H349 0.930 . S
C313 C310 1.348 . S
C313 C312 1.356 . S
H314 C308 0.930 . S
H315 C309 0.930 . S
C316 N317 1.314 . S
C316 C318 1.353 . S
C316 H322 0.930 . S
N317 Li267 1.990 . S
N317 C316 1.314 . S
N317 C320 1.279 . S
C318 C316 1.353 . S
C318 C321 1.348 . S
C318 H350 0.929 . S
C319 C320 1.358 . S
C319 C321 1.356 . S
C319 H351 0.930 . S
C320 N317 1.279 . S
C320 C319 1.358 . S
C320 H323 0.930 . S
C321 C318 1.348 . S
C321 C319 1.356 . S
H322 C316 0.930 . S
H323 C320 0.930 . S
O324 Li264 1.956 . S
O324 Li265 1.970 . S
O324 Li266 1.961 . S
O324 C268 1.325 . S
O325 Li264 1.970 . S
O325 Li265 1.956 . S
O325 Li267 1.961 . S
O325 C274 1.325 . S
O326 Li264 1.961 . S
O326 Li266 1.956 . S
O326 Li267 1.970 . S
O326 C296 1.325 . S
O327 Li265 1.961 . S
O327 Li266 1.970 . S
O327 Li267 1.956 . S
O327 C302 1.325 . S
H328 C270 0.929 . S
H329 C271 0.930 . S
H330 C272 0.930 . S
H331 C273 0.930 . S
H332 C275 0.930 . S
H333 C277 0.929 . S
H334 C278 0.930 . S
H335 C279 0.930 . S
H336 C282 0.930 . S
H337 C285 0.929 . S
H338 C290 0.929 . S
H339 C291 0.930 . S
H340 C298 0.929 . S
H341 C299 0.930 . S
H342 C300 0.930 . S
H343 C301 0.930 . S
H344 C303 0.929 . S
H345 C304 0.930 . S
H346 C305 0.930 . S
H347 C306 0.930 . S
H348 C310 0.929 . S
H349 C312 0.930 . S
H350 C318 0.929 . S
H351 C319 0.930 . S
Li352 N369 1.990 . S
Li352 O412 1.956 . S
Li352 O413 1.970 . S
Li352 O414 1.961 . S
Li353 N377 1.990 . S
Li353 O412 1.970 . S
Li353 O413 1.956 . S
Li353 O415 1.961 . S
Li354 N399 1.990 . S
Li354 O412 1.961 . S
Li354 O414 1.956 . S
Li354 O415 1.970 . S
Li355 N405 1.990 . S
Li355 O413 1.961 . S
Li355 O414 1.970 . S
Li355 O415 1.956 . S
C356 C358 1.348 . S
C356 C359 1.356 . S
C356 O412 1.325 . S
N357 C360 1.314 . S
N357 C361 1.279 . S
C358 C356 1.348 . S
C358 C360 1.353 . S
C358 H416 0.929 . S
C359 C356 1.356 . S
C359 C361 1.358 . S
C359 H417 0.930 . S
C360 N357 1.314 . S
C360 C358 1.353 . S
C360 H418 0.930 . S
C361 N357 1.279 . S
C361 C359 1.358 . S
C361 H419 0.930 . S
C362 C365 1.348 . S
C362 C366 1.356 . S
C362 O413 1.325 . S
C363 N364 1.279 . S
C363 C366 1.358 . S
C363 H420 0.930 . S
N364 C363 1.279 . S
N364 C367 1.314 . S
C365 C362 1.348 . S
C365 C367 1.353 . S
C365 H421 0.929 . S
C366 C362 1.356 . S
C366 C363 1.358 . S
C366 H422 0.930 . S
C367 N364 1.314 . S
C367 C365 1.353 . S
C367 H423 0.930 . S
C368 N369 1.314 . S
C368 C373 1.353 . S
C368 H374 0.930 . S
N369 Li352 1.990 . S
N369 C368 1.314 . S
N369 C371 1.279 . S
C370 C371 1.358 . S
C370 C372 1.356 . S
C370 H424 0.930 . S
C371 N369 1.279 . S
C371 C370 1.358 . S
C371 H375 0.930 . S
C372 C370 1.356 . S
C372 C373 1.348 . S
C373 C368 1.353 . S
C373 C372 1.348 . S
C373 H425 0.929 . S
H374 C368 0.930 . S
H375 C371 0.930 . S
C376 N377 1.314 . S
C376 C378 1.353 . S
C376 H382 0.930 . S
N377 Li353 1.990 . S
N377 C376 1.314 . S
N377 C380 1.279 . S
C378 C376 1.353 . S
C378 C381 1.348 . S
C378 H426 0.929 . S
C379 C380 1.358 . S
C379 C381 1.356 . S
C379 H427 0.930 . S
C380 N377 1.279 . S
C380 C379 1.358 . S
C380 H383 0.930 . S
C381 C378 1.348 . S
C381 C379 1.356 . S
H382 C376 0.930 . S
H383 C380 0.930 . S
C384 C386 1.348 . S
C384 C387 1.356 . S
C384 O414 1.325 . S
N385 C388 1.314 . S
N385 C389 1.279 . S
C386 C384 1.348 . S
C386 C388 1.353 . S
C386 H428 0.929 . S
C387 C384 1.356 . S
C387 C389 1.358 . S
C387 H429 0.930 . S
C388 N385 1.314 . S
C388 C386 1.353 . S
C388 H430 0.930 . S
C389 N385 1.279 . S
C389 C387 1.358 . S
C389 H431 0.930 . S
C390 C391 1.348 . S
C390 C392 1.356 . S
C390 O415 1.325 . S
C391 C390 1.348 . S
C391 C393 1.353 . S
C391 H432 0.929 . S
C392 C390 1.356 . S
C392 C394 1.358 . S
C392 H433 0.930 . S
C393 C391 1.353 . S
C393 N395 1.314 . S
C393 H434 0.930 . S
C394 C392 1.358 . S
C394 N395 1.279 . S
C394 H435 0.930 . S
N395 C393 1.314 . S
N395 C394 1.279 . S
C396 C398 1.353 . S
C396 N399 1.314 . S
C396 H402 0.930 . S
C397 N399 1.279 . S
C397 C400 1.358 . S
C397 H403 0.930 . S
C398 C396 1.353 . S
C398 C401 1.348 . S
C398 H436 0.929 . S
N399 Li354 1.990 . S
N399 C396 1.314 . S
N399 C397 1.279 . S
C400 C397 1.358 . S
C400 C401 1.356 . S
C400 H437 0.930 . S
C401 C398 1.348 . S
C401 C400 1.356 . S
H402 C396 0.930 . S
H403 C397 0.930 . S
C404 N405 1.314 . S
C404 C406 1.353 . S
C404 H410 0.930 . S
N405 Li355 1.990 . S
N405 C404 1.314 . S
N405 C408 1.279 . S
C406 C404 1.353 . S
C406 C409 1.348 . S
C406 H438 0.929 . S
C407 C408 1.358 . S
C407 C409 1.356 . S
C407 H439 0.930 . S
C408 N405 1.279 . S
C408 C407 1.358 . S
C408 H411 0.930 . S
C409 C406 1.348 . S
C409 C407 1.356 . S
H410 C404 0.930 . S
H411 C408 0.930 . S
O412 Li352 1.956 . S
O412 Li353 1.970 . S
O412 Li354 1.961 . S
O412 C356 1.325 . S
O413 Li352 1.970 . S
O413 Li353 1.956 . S
O413 Li355 1.961 . S
O413 C362 1.325 . S
O414 Li352 1.961 . S
O414 Li354 1.956 . S
O414 Li355 1.970 . S
O414 C384 1.325 . S
O415 Li353 1.961 . S
O415 Li354 1.970 . S
O415 Li355 1.956 . S
O415 C390 1.325 . S
H416 C358 0.929 . S
H417 C359 0.930 . S
H418 C360 0.930 . S
H419 C361 0.930 . S
H420 C363 0.930 . S
H421 C365 0.929 . S
H422 C366 0.930 . S
H423 C367 0.930 . S
H424 C370 0.930 . S
H425 C373 0.929 . S
H426 C378 0.929 . S
H427 C379 0.930 . S
H428 C386 0.929 . S
H429 C387 0.930 . S
H430 C388 0.930 . S
H431 C389 0.930 . S
H432 C391 0.929 . S
H433 C392 0.930 . S
H434 C393 0.930 . S
H435 C394 0.930 . S
H436 C398 0.929 . S
H437 C400 0.930 . S
H438 C406 0.929 . S
H439 C407 0.930 . S
Li440 N457 1.990 . S
Li440 O500 1.956 . S
Li440 O501 1.970 . S
Li440 O502 1.961 . S
Li441 N465 1.990 . S
Li441 O500 1.970 . S
Li441 O501 1.956 . S
Li441 O503 1.961 . S
Li442 N487 1.990 . S
Li442 O500 1.961 . S
Li442 O502 1.956 . S
Li442 O503 1.970 . S
Li443 N493 1.990 . S
Li443 O501 1.961 . S
Li443 O502 1.970 . S
Li443 O503 1.956 . S
C444 C446 1.348 . S
C444 C447 1.356 . S
C444 O500 1.325 . S
N445 C448 1.314 . S
N445 C449 1.279 . S
C446 C444 1.348 . S
C446 C448 1.353 . S
C446 H504 0.929 . S
C447 C444 1.356 . S
C447 C449 1.358 . S
C447 H505 0.930 . S
C448 N445 1.314 . S
C448 C446 1.353 . S
C448 H506 0.930 . S
C449 N445 1.279 . S
C449 C447 1.358 . S
C449 H507 0.930 . S
C450 C453 1.348 . S
C450 C454 1.356 . S
C450 O501 1.325 . S
C451 N452 1.279 . S
C451 C454 1.358 . S
C451 H508 0.930 . S
N452 C451 1.279 . S
N452 C455 1.314 . S
C453 C450 1.348 . S
C453 C455 1.353 . S
C453 H509 0.929 . S
C454 C450 1.356 . S
C454 C451 1.358 . S
C454 H510 0.930 . S
C455 N452 1.314 . S
C455 C453 1.353 . S
C455 H511 0.930 . S
C456 N457 1.314 . S
C456 C461 1.353 . S
C456 H462 0.930 . S
N457 Li440 1.990 . S
N457 C456 1.314 . S
N457 C459 1.279 . S
C458 C459 1.358 . S
C458 C460 1.356 . S
C458 H512 0.930 . S
C459 N457 1.279 . S
C459 C458 1.358 . S
C459 H463 0.930 . S
C460 C458 1.356 . S
C460 C461 1.348 . S
C461 C456 1.353 . S
C461 C460 1.348 . S
C461 H513 0.929 . S
H462 C456 0.930 . S
H463 C459 0.930 . S
C464 N465 1.314 . S
C464 C466 1.353 . S
C464 H470 0.930 . S
N465 Li441 1.990 . S
N465 C464 1.314 . S
N465 C468 1.279 . S
C466 C464 1.353 . S
C466 C469 1.348 . S
C466 H514 0.929 . S
C467 C468 1.358 . S
C467 C469 1.356 . S
C467 H515 0.930 . S
C468 N465 1.279 . S
C468 C467 1.358 . S
C468 H471 0.930 . S
C469 C466 1.348 . S
C469 C467 1.356 . S
H470 C464 0.930 . S
H471 C468 0.930 . S
C472 C474 1.348 . S
C472 C475 1.356 . S
C472 O502 1.325 . S
N473 C476 1.314 . S
N473 C477 1.279 . S
C474 C472 1.348 . S
C474 C476 1.353 . S
C474 H516 0.929 . S
C475 C472 1.356 . S
C475 C477 1.358 . S
C475 H517 0.930 . S
C476 N473 1.314 . S
C476 C474 1.353 . S
C476 H518 0.930 . S
C477 N473 1.279 . S
C477 C475 1.358 . S
C477 H519 0.930 . S
C478 C479 1.348 . S
C478 C480 1.356 . S
C478 O503 1.325 . S
C479 C478 1.348 . S
C479 C481 1.353 . S
C479 H520 0.929 . S
C480 C478 1.356 . S
C480 C482 1.358 . S
C480 H521 0.930 . S
C481 C479 1.353 . S
C481 N483 1.314 . S
C481 H522 0.930 . S
C482 C480 1.358 . S
C482 N483 1.279 . S
C482 H523 0.930 . S
N483 C481 1.314 . S
N483 C482 1.279 . S
C484 C486 1.353 . S
C484 N487 1.314 . S
C484 H490 0.930 . S
C485 N487 1.279 . S
C485 C488 1.358 . S
C485 H491 0.930 . S
C486 C484 1.353 . S
C486 C489 1.348 . S
C486 H524 0.929 . S
N487 Li442 1.990 . S
N487 C484 1.314 . S
N487 C485 1.279 . S
C488 C485 1.358 . S
C488 C489 1.356 . S
C488 H525 0.930 . S
C489 C486 1.348 . S
C489 C488 1.356 . S
H490 C484 0.930 . S
H491 C485 0.930 . S
C492 N493 1.314 . S
C492 C494 1.353 . S
C492 H498 0.930 . S
N493 Li443 1.990 . S
N493 C492 1.314 . S
N493 C496 1.279 . S
C494 C492 1.353 . S
C494 C497 1.348 . S
C494 H526 0.929 . S
C495 C496 1.358 . S
C495 C497 1.356 . S
C495 H527 0.930 . S
C496 N493 1.279 . S
C496 C495 1.358 . S
C496 H499 0.930 . S
C497 C494 1.348 . S
C497 C495 1.356 . S
H498 C492 0.930 . S
H499 C496 0.930 . S
O500 Li440 1.956 . S
O500 Li441 1.970 . S
O500 Li442 1.961 . S
O500 C444 1.325 . S
O501 Li440 1.970 . S
O501 Li441 1.956 . S
O501 Li443 1.961 . S
O501 C450 1.325 . S
O502 Li440 1.961 . S
O502 Li442 1.956 . S
O502 Li443 1.970 . S
O502 C472 1.325 . S
O503 Li441 1.961 . S
O503 Li442 1.970 . S
O503 Li443 1.956 . S
O503 C478 1.325 . S
H504 C446 0.929 . S
H505 C447 0.930 . S
H506 C448 0.930 . S
H507 C449 0.930 . S
H508 C451 0.930 . S
H509 C453 0.929 . S
H510 C454 0.930 . S
H511 C455 0.930 . S
H512 C458 0.930 . S
H513 C461 0.929 . S
H514 C466 0.929 . S
H515 C467 0.930 . S
H516 C474 0.929 . S
H517 C475 0.930 . S
H518 C476 0.930 . S
H519 C477 0.930 . S
H520 C479 0.929 . S
H521 C480 0.930 . S
H522 C481 0.930 . S
H523 C482 0.930 . S
H524 C486 0.929 . S
H525 C488 0.930 . S
H526 C494 0.929 . S
H527 C495 0.930 . S
Li528 N545 1.990 . S
Li528 O588 1.956 . S
Li528 O589 1.970 . S
Li528 O590 1.961 . S
Li529 N553 1.990 . S
Li529 O588 1.970 . S
Li529 O589 1.956 . S
Li529 O591 1.961 . S
Li530 N575 1.990 . S
Li530 O588 1.961 . S
Li530 O590 1.956 . S
Li530 O591 1.970 . S
Li531 N581 1.990 . S
Li531 O589 1.961 . S
Li531 O590 1.970 . S
Li531 O591 1.956 . S
C532 C534 1.348 . S
C532 C535 1.356 . S
C532 O588 1.325 . S
N533 C536 1.314 . S
N533 C537 1.279 . S
C534 C532 1.348 . S
C534 C536 1.353 . S
C534 H592 0.929 . S
C535 C532 1.356 . S
C535 C537 1.358 . S
C535 H593 0.930 . S
C536 N533 1.314 . S
C536 C534 1.353 . S
C536 H594 0.930 . S
C537 N533 1.279 . S
C537 C535 1.358 . S
C537 H595 0.930 . S
C538 C541 1.348 . S
C538 C542 1.356 . S
C538 O589 1.325 . S
C539 N540 1.279 . S
C539 C542 1.358 . S
C539 H596 0.930 . S
N540 C539 1.279 . S
N540 C543 1.314 . S
C541 C538 1.348 . S
C541 C543 1.353 . S
C541 H597 0.929 . S
C542 C538 1.356 . S
C542 C539 1.358 . S
C542 H598 0.930 . S
C543 N540 1.314 . S
C543 C541 1.353 . S
C543 H599 0.930 . S
C544 N545 1.314 . S
C544 C549 1.353 . S
C544 H550 0.930 . S
N545 Li528 1.990 . S
N545 C544 1.314 . S
N545 C547 1.279 . S
C546 C547 1.358 . S
C546 C548 1.356 . S
C546 H600 0.930 . S
C547 N545 1.279 . S
C547 C546 1.358 . S
C547 H551 0.930 . S
C548 C546 1.356 . S
C548 C549 1.348 . S
C549 C544 1.353 . S
C549 C548 1.348 . S
C549 H601 0.929 . S
H550 C544 0.930 . S
H551 C547 0.930 . S
C552 N553 1.314 . S
C552 C554 1.353 . S
C552 H558 0.930 . S
N553 Li529 1.990 . S
N553 C552 1.314 . S
N553 C556 1.279 . S
C554 C552 1.353 . S
C554 C557 1.348 . S
C554 H602 0.929 . S
C555 C556 1.358 . S
C555 C557 1.356 . S
C555 H603 0.930 . S
C556 N553 1.279 . S
C556 C555 1.358 . S
C556 H559 0.930 . S
C557 C554 1.348 . S
C557 C555 1.356 . S
H558 C552 0.930 . S
H559 C556 0.930 . S
C560 C562 1.348 . S
C560 C563 1.356 . S
C560 O590 1.325 . S
N561 C564 1.314 . S
N561 C565 1.279 . S
C562 C560 1.348 . S
C562 C564 1.353 . S
C562 H604 0.929 . S
C563 C560 1.356 . S
C563 C565 1.358 . S
C563 H605 0.930 . S
C564 N561 1.314 . S
C564 C562 1.353 . S
C564 H606 0.930 . S
C565 N561 1.279 . S
C565 C563 1.358 . S
C565 H607 0.930 . S
C566 C567 1.348 . S
C566 C568 1.356 . S
C566 O591 1.325 . S
C567 C566 1.348 . S
C567 C569 1.353 . S
C567 H608 0.929 . S
C568 C566 1.356 . S
C568 C570 1.358 . S
C568 H609 0.930 . S
C569 C567 1.353 . S
C569 N571 1.314 . S
C569 H610 0.930 . S
C570 C568 1.358 . S
C570 N571 1.279 . S
C570 H611 0.930 . S
N571 C569 1.314 . S
N571 C570 1.279 . S
C572 C574 1.353 . S
C572 N575 1.314 . S
C572 H578 0.930 . S
C573 N575 1.279 . S
C573 C576 1.358 . S
C573 H579 0.930 . S
C574 C572 1.353 . S
C574 C577 1.348 . S
C574 H612 0.929 . S
N575 Li530 1.990 . S
N575 C572 1.314 . S
N575 C573 1.279 . S
C576 C573 1.358 . S
C576 C577 1.356 . S
C576 H613 0.930 . S
C577 C574 1.348 . S
C577 C576 1.356 . S
H578 C572 0.930 . S
H579 C573 0.930 . S
C580 N581 1.314 . S
C580 C582 1.353 . S
C580 H586 0.930 . S
N581 Li531 1.990 . S
N581 C580 1.314 . S
N581 C584 1.279 . S
C582 C580 1.353 . S
C582 C585 1.348 . S
C582 H614 0.929 . S
C583 C584 1.358 . S
C583 C585 1.356 . S
C583 H615 0.930 . S
C584 N581 1.279 . S
C584 C583 1.358 . S
C584 H587 0.930 . S
C585 C582 1.348 . S
C585 C583 1.356 . S
H586 C580 0.930 . S
H587 C584 0.930 . S
O588 Li528 1.956 . S
O588 Li529 1.970 . S
O588 Li530 1.961 . S
O588 C532 1.325 . S
O589 Li528 1.970 . S
O589 Li529 1.956 . S
O589 Li531 1.961 . S
O589 C538 1.325 . S
O590 Li528 1.961 . S
O590 Li530 1.956 . S
O590 Li531 1.970 . S
O590 C560 1.325 . S
O591 Li529 1.961 . S
O591 Li530 1.970 . S
O591 Li531 1.956 . S
O591 C566 1.325 . S
H592 C534 0.929 . S
H593 C535 0.930 . S
H594 C536 0.930 . S
H595 C537 0.930 . S
H596 C539 0.930 . S
H597 C541 0.929 . S
H598 C542 0.930 . S
H599 C543 0.930 . S
H600 C546 0.930 . S
H601 C549 0.929 . S
H602 C554 0.929 . S
H603 C555 0.930 . S
H604 C562 0.929 . S
H605 C563 0.930 . S
H606 C564 0.930 . S
H607 C565 0.930 . S
H608 C567 0.929 . S
H609 C568 0.930 . S
H610 C569 0.930 . S
H611 C570 0.930 . S
H612 C574 0.929 . S
H613 C576 0.930 . S
H614 C582 0.929 . S
H615 C583 0.930 . S
Li616 N633 1.990 . S
Li616 O676 1.956 . S
Li616 O677 1.970 . S
Li616 O678 1.961 . S
Li617 N641 1.990 . S
Li617 O676 1.970 . S
Li617 O677 1.956 . S
Li617 O679 1.961 . S
Li618 N663 1.990 . S
Li618 O676 1.961 . S
Li618 O678 1.956 . S
Li618 O679 1.970 . S
Li619 N669 1.990 . S
Li619 O677 1.961 . S
Li619 O678 1.970 . S
Li619 O679 1.956 . S
C620 C622 1.348 . S
C620 C623 1.356 . S
C620 O676 1.325 . S
N621 C624 1.314 . S
N621 C625 1.279 . S
C622 C620 1.348 . S
C622 C624 1.353 . S
C622 H680 0.929 . S
C623 C620 1.356 . S
C623 C625 1.358 . S
C623 H681 0.930 . S
C624 N621 1.314 . S
C624 C622 1.353 . S
C624 H682 0.930 . S
C625 N621 1.279 . S
C625 C623 1.358 . S
C625 H683 0.930 . S
C626 C629 1.348 . S
C626 C630 1.356 . S
C626 O677 1.325 . S
C627 N628 1.279 . S
C627 C630 1.358 . S
C627 H684 0.930 . S
N628 C627 1.279 . S
N628 C631 1.314 . S
C629 C626 1.348 . S
C629 C631 1.353 . S
C629 H685 0.929 . S
C630 C626 1.356 . S
C630 C627 1.358 . S
C630 H686 0.930 . S
C631 N628 1.314 . S
C631 C629 1.353 . S
C631 H687 0.930 . S
C632 N633 1.314 . S
C632 C637 1.353 . S
C632 H638 0.930 . S
N633 Li616 1.990 . S
N633 C632 1.314 . S
N633 C635 1.279 . S
C634 C635 1.358 . S
C634 C636 1.356 . S
C634 H688 0.930 . S
C635 N633 1.279 . S
C635 C634 1.358 . S
C635 H639 0.930 . S
C636 C634 1.356 . S
C636 C637 1.348 . S
C637 C632 1.353 . S
C637 C636 1.348 . S
C637 H689 0.929 . S
H638 C632 0.930 . S
H639 C635 0.930 . S
C640 N641 1.314 . S
C640 C642 1.353 . S
C640 H646 0.930 . S
N641 Li617 1.990 . S
N641 C640 1.314 . S
N641 C644 1.279 . S
C642 C640 1.353 . S
C642 C645 1.348 . S
C642 H690 0.929 . S
C643 C644 1.358 . S
C643 C645 1.356 . S
C643 H691 0.930 . S
C644 N641 1.279 . S
C644 C643 1.358 . S
C644 H647 0.930 . S
C645 C642 1.348 . S
C645 C643 1.356 . S
H646 C640 0.930 . S
H647 C644 0.930 . S
C648 C650 1.348 . S
C648 C651 1.356 . S
C648 O678 1.325 . S
N649 C652 1.314 . S
N649 C653 1.279 . S
C650 C648 1.348 . S
C650 C652 1.353 . S
C650 H692 0.929 . S
C651 C648 1.356 . S
C651 C653 1.358 . S
C651 H693 0.930 . S
C652 N649 1.314 . S
C652 C650 1.353 . S
C652 H694 0.930 . S
C653 N649 1.279 . S
C653 C651 1.358 . S
C653 H695 0.930 . S
C654 C655 1.348 . S
C654 C656 1.356 . S
C654 O679 1.325 . S
C655 C654 1.348 . S
C655 C657 1.353 . S
C655 H696 0.929 . S
C656 C654 1.356 . S
C656 C658 1.358 . S
C656 H697 0.930 . S
C657 C655 1.353 . S
C657 N659 1.314 . S
C657 H698 0.930 . S
C658 C656 1.358 . S
C658 N659 1.279 . S
C658 H699 0.930 . S
N659 C657 1.314 . S
N659 C658 1.279 . S
C660 C662 1.353 . S
C660 N663 1.314 . S
C660 H666 0.930 . S
C661 N663 1.279 . S
C661 C664 1.358 . S
C661 H667 0.930 . S
C662 C660 1.353 . S
C662 C665 1.348 . S
C662 H700 0.929 . S
N663 Li618 1.990 . S
N663 C660 1.314 . S
N663 C661 1.279 . S
C664 C661 1.358 . S
C664 C665 1.356 . S
C664 H701 0.930 . S
C665 C662 1.348 . S
C665 C664 1.356 . S
H666 C660 0.930 . S
H667 C661 0.930 . S
C668 N669 1.314 . S
C668 C670 1.353 . S
C668 H674 0.930 . S
N669 Li619 1.990 . S
N669 C668 1.314 . S
N669 C672 1.279 . S
C670 C668 1.353 . S
C670 C673 1.348 . S
C670 H702 0.929 . S
C671 C672 1.358 . S
C671 C673 1.356 . S
C671 H703 0.930 . S
C672 N669 1.279 . S
C672 C671 1.358 . S
C672 H675 0.930 . S
C673 C670 1.348 . S
C673 C671 1.356 . S
H674 C668 0.930 . S
H675 C672 0.930 . S
O676 Li616 1.956 . S
O676 Li617 1.970 . S
O676 Li618 1.961 . S
O676 C620 1.325 . S
O677 Li616 1.970 . S
O677 Li617 1.956 . S
O677 Li619 1.961 . S
O677 C626 1.325 . S
O678 Li616 1.961 . S
O678 Li618 1.956 . S
O678 Li619 1.970 . S
O678 C648 1.325 . S
O679 Li617 1.961 . S
O679 Li618 1.970 . S
O679 Li619 1.956 . S
O679 C654 1.325 . S
H680 C622 0.929 . S
H681 C623 0.930 . S
H682 C624 0.930 . S
H683 C625 0.930 . S
H684 C627 0.930 . S
H685 C629 0.929 . S
H686 C630 0.930 . S
H687 C631 0.930 . S
H688 C634 0.930 . S
H689 C637 0.929 . S
H690 C642 0.929 . S
H691 C643 0.930 . S
H692 C650 0.929 . S
H693 C651 0.930 . S
H694 C652 0.930 . S
H695 C653 0.930 . S
H696 C655 0.929 . S
H697 C656 0.930 . S
H698 C657 0.930 . S
H699 C658 0.930 . S
H700 C662 0.929 . S
H701 C664 0.930 . S
H702 C670 0.929 . S
H703 C671 0.930 . S
Li704 N721 1.990 . S
Li704 O764 1.956 . S
Li704 O765 1.970 . S
Li704 O766 1.961 . S
Li705 N729 1.990 . S
Li705 O764 1.970 . S
Li705 O765 1.956 . S
Li705 O767 1.961 . S
Li706 N751 1.990 . S
Li706 O764 1.961 . S
Li706 O766 1.956 . S
Li706 O767 1.970 . S
Li707 N757 1.990 . S
Li707 O765 1.961 . S
Li707 O766 1.970 . S
Li707 O767 1.956 . S
C708 C710 1.348 . S
C708 C711 1.356 . S
C708 O764 1.325 . S
N709 C712 1.314 . S
N709 C713 1.279 . S
C710 C708 1.348 . S
C710 C712 1.353 . S
C710 H768 0.929 . S
C711 C708 1.356 . S
C711 C713 1.358 . S
C711 H769 0.930 . S
C712 N709 1.314 . S
C712 C710 1.353 . S
C712 H770 0.930 . S
C713 N709 1.279 . S
C713 C711 1.358 . S
C713 H771 0.930 . S
C714 C717 1.348 . S
C714 C718 1.356 . S
C714 O765 1.325 . S
C715 N716 1.279 . S
C715 C718 1.358 . S
C715 H772 0.930 . S
N716 C715 1.279 . S
N716 C719 1.314 . S
C717 C714 1.348 . S
C717 C719 1.353 . S
C717 H773 0.929 . S
C718 C714 1.356 . S
C718 C715 1.358 . S
C718 H774 0.930 . S
C719 N716 1.314 . S
C719 C717 1.353 . S
C719 H775 0.930 . S
C720 N721 1.314 . S
C720 C725 1.353 . S
C720 H726 0.930 . S
N721 Li704 1.990 . S
N721 C720 1.314 . S
N721 C723 1.279 . S
C722 C723 1.358 . S
C722 C724 1.356 . S
C722 H776 0.930 . S
C723 N721 1.279 . S
C723 C722 1.358 . S
C723 H727 0.930 . S
C724 C722 1.356 . S
C724 C725 1.348 . S
C725 C720 1.353 . S
C725 C724 1.348 . S
C725 H777 0.929 . S
H726 C720 0.930 . S
H727 C723 0.930 . S
C728 N729 1.314 . S
C728 C730 1.353 . S
C728 H734 0.930 . S
N729 Li705 1.990 . S
N729 C728 1.314 . S
N729 C732 1.279 . S
C730 C728 1.353 . S
C730 C733 1.348 . S
C730 H778 0.929 . S
C731 C732 1.358 . S
C731 C733 1.356 . S
C731 H779 0.930 . S
C732 N729 1.279 . S
C732 C731 1.358 . S
C732 H735 0.930 . S
C733 C730 1.348 . S
C733 C731 1.356 . S
H734 C728 0.930 . S
H735 C732 0.930 . S
C736 C738 1.348 . S
C736 C739 1.356 . S
C736 O766 1.325 . S
N737 C740 1.314 . S
N737 C741 1.279 . S
C738 C736 1.348 . S
C738 C740 1.353 . S
C738 H780 0.929 . S
C739 C736 1.356 . S
C739 C741 1.358 . S
C739 H781 0.930 . S
C740 N737 1.314 . S
C740 C738 1.353 . S
C740 H782 0.930 . S
C741 N737 1.279 . S
C741 C739 1.358 . S
C741 H783 0.930 . S
C742 C743 1.348 . S
C742 C744 1.356 . S
C742 O767 1.325 . S
C743 C742 1.348 . S
C743 C745 1.353 . S
C743 H784 0.929 . S
C744 C742 1.356 . S
C744 C746 1.358 . S
C744 H785 0.930 . S
C745 C743 1.353 . S
C745 N747 1.314 . S
C745 H786 0.930 . S
C746 C744 1.358 . S
C746 N747 1.279 . S
C746 H787 0.930 . S
N747 C745 1.314 . S
N747 C746 1.279 . S
C748 C750 1.353 . S
C748 N751 1.314 . S
C748 H754 0.930 . S
C749 N751 1.279 . S
C749 C752 1.358 . S
C749 H755 0.930 . S
C750 C748 1.353 . S
C750 C753 1.348 . S
C750 H788 0.929 . S
N751 Li706 1.990 . S
N751 C748 1.314 . S
N751 C749 1.279 . S
C752 C749 1.358 . S
C752 C753 1.356 . S
C752 H789 0.930 . S
C753 C750 1.348 . S
C753 C752 1.356 . S
H754 C748 0.930 . S
H755 C749 0.930 . S
C756 N757 1.314 . S
C756 C758 1.353 . S
C756 H762 0.930 . S
N757 Li707 1.990 . S
N757 C756 1.314 . S
N757 C760 1.279 . S
C758 C756 1.353 . S
C758 C761 1.348 . S
C758 H790 0.929 . S
C759 C760 1.358 . S
C759 C761 1.356 . S
C759 H791 0.930 . S
C760 N757 1.279 . S
C760 C759 1.358 . S
C760 H763 0.930 . S
C761 C758 1.348 . S
C761 C759 1.356 . S
H762 C756 0.930 . S
H763 C760 0.930 . S
O764 Li704 1.956 . S
O764 Li705 1.970 . S
O764 Li706 1.961 . S
O764 C708 1.325 . S
O765 Li704 1.970 . S
O765 Li705 1.956 . S
O765 Li707 1.961 . S
O765 C714 1.325 . S
O766 Li704 1.961 . S
O766 Li706 1.956 . S
O766 Li707 1.970 . S
O766 C736 1.325 . S
O767 Li705 1.961 . S
O767 Li706 1.970 . S
O767 Li707 1.956 . S
O767 C742 1.325 . S
H768 C710 0.929 . S
H769 C711 0.930 . S
H770 C712 0.930 . S
H771 C713 0.930 . S
H772 C715 0.930 . S
H773 C717 0.929 . S
H774 C718 0.930 . S
H775 C719 0.930 . S
H776 C722 0.930 . S
H777 C725 0.929 . S
H778 C730 0.929 . S
H779 C731 0.930 . S
H780 C738 0.929 . S
H781 C739 0.930 . S
H782 C740 0.930 . S
H783 C741 0.930 . S
H784 C743 0.929 . S
H785 C744 0.930 . S
H786 C745 0.930 . S
H787 C746 0.930 . S
H788 C750 0.929 . S
H789 C752 0.930 . S
H790 C758 0.929 . S
H791 C759 0.930 . S
Li792 N809 1.990 . S
Li792 O852 1.956 . S
Li792 O853 1.970 . S
Li792 O854 1.961 . S
Li793 N817 1.990 . S
Li793 O852 1.970 . S
Li793 O853 1.956 . S
Li793 O855 1.961 . S
Li794 N839 1.990 . S
Li794 O852 1.961 . S
Li794 O854 1.956 . S
Li794 O855 1.970 . S
Li795 N845 1.990 . S
Li795 O853 1.961 . S
Li795 O854 1.970 . S
Li795 O855 1.956 . S
C796 C798 1.348 . S
C796 C799 1.356 . S
C796 O852 1.325 . S
N797 C800 1.314 . S
N797 C801 1.279 . S
C798 C796 1.348 . S
C798 C800 1.353 . S
C798 H856 0.929 . S
C799 C796 1.356 . S
C799 C801 1.358 . S
C799 H857 0.930 . S
C800 N797 1.314 . S
C800 C798 1.353 . S
C800 H858 0.930 . S
C801 N797 1.279 . S
C801 C799 1.358 . S
C801 H859 0.930 . S
C802 C805 1.348 . S
C802 C806 1.356 . S
C802 O853 1.325 . S
C803 N804 1.279 . S
C803 C806 1.358 . S
C803 H860 0.930 . S
N804 C803 1.279 . S
N804 C807 1.314 . S
C805 C802 1.348 . S
C805 C807 1.353 . S
C805 H861 0.929 . S
C806 C802 1.356 . S
C806 C803 1.358 . S
C806 H862 0.930 . S
C807 N804 1.314 . S
C807 C805 1.353 . S
C807 H863 0.930 . S
C808 N809 1.314 . S
C808 C813 1.353 . S
C808 H814 0.930 . S
N809 Li792 1.990 . S
N809 C808 1.314 . S
N809 C811 1.279 . S
C810 C811 1.358 . S
C810 C812 1.356 . S
C810 H864 0.930 . S
C811 N809 1.279 . S
C811 C810 1.358 . S
C811 H815 0.930 . S
C812 C810 1.356 . S
C812 C813 1.348 . S
C813 C808 1.353 . S
C813 C812 1.348 . S
C813 H865 0.929 . S
H814 C808 0.930 . S
H815 C811 0.930 . S
C816 N817 1.314 . S
C816 C818 1.353 . S
C816 H822 0.930 . S
N817 Li793 1.990 . S
N817 C816 1.314 . S
N817 C820 1.279 . S
C818 C816 1.353 . S
C818 C821 1.348 . S
C818 H866 0.929 . S
C819 C820 1.358 . S
C819 C821 1.356 . S
C819 H867 0.930 . S
C820 N817 1.279 . S
C820 C819 1.358 . S
C820 H823 0.930 . S
C821 C818 1.348 . S
C821 C819 1.356 . S
H822 C816 0.930 . S
H823 C820 0.930 . S
C824 C826 1.348 . S
C824 C827 1.356 . S
C824 O854 1.325 . S
N825 C828 1.314 . S
N825 C829 1.279 . S
C826 C824 1.348 . S
C826 C828 1.353 . S
C826 H868 0.929 . S
C827 C824 1.356 . S
C827 C829 1.358 . S
C827 H869 0.930 . S
C828 N825 1.314 . S
C828 C826 1.353 . S
C828 H870 0.930 . S
C829 N825 1.279 . S
C829 C827 1.358 . S
C829 H871 0.930 . S
C830 C831 1.348 . S
C830 C832 1.356 . S
C830 O855 1.325 . S
C831 C830 1.348 . S
C831 C833 1.353 . S
C831 H872 0.929 . S
C832 C830 1.356 . S
C832 C834 1.358 . S
C832 H873 0.930 . S
C833 C831 1.353 . S
C833 N835 1.314 . S
C833 H874 0.930 . S
C834 C832 1.358 . S
C834 N835 1.279 . S
C834 H875 0.930 . S
N835 C833 1.314 . S
N835 C834 1.279 . S
C836 C838 1.353 . S
C836 N839 1.314 . S
C836 H842 0.930 . S
C837 N839 1.279 . S
C837 C840 1.358 . S
C837 H843 0.930 . S
C838 C836 1.353 . S
C838 C841 1.348 . S
C838 H876 0.929 . S
N839 Li794 1.990 . S
N839 C836 1.314 . S
N839 C837 1.279 . S
C840 C837 1.358 . S
C840 C841 1.356 . S
C840 H877 0.930 . S
C841 C838 1.348 . S
C841 C840 1.356 . S
H842 C836 0.930 . S
H843 C837 0.930 . S
C844 N845 1.314 . S
C844 C846 1.353 . S
C844 H850 0.930 . S
N845 Li795 1.990 . S
N845 C844 1.314 . S
N845 C848 1.279 . S
C846 C844 1.353 . S
C846 C849 1.348 . S
C846 H878 0.929 . S
C847 C848 1.358 . S
C847 C849 1.356 . S
C847 H879 0.930 . S
C848 N845 1.279 . S
C848 C847 1.358 . S
C848 H851 0.930 . S
C849 C846 1.348 . S
C849 C847 1.356 . S
H850 C844 0.930 . S
H851 C848 0.930 . S
O852 Li792 1.956 . S
O852 Li793 1.970 . S
O852 Li794 1.961 . S
O852 C796 1.325 . S
O853 Li792 1.970 . S
O853 Li793 1.956 . S
O853 Li795 1.961 . S
O853 C802 1.325 . S
O854 Li792 1.961 . S
O854 Li794 1.956 . S
O854 Li795 1.970 . S
O854 C824 1.325 . S
O855 Li793 1.961 . S
O855 Li794 1.970 . S
O855 Li795 1.956 . S
O855 C830 1.325 . S
H856 C798 0.929 . S
H857 C799 0.930 . S
H858 C800 0.930 . S
H859 C801 0.930 . S
H860 C803 0.930 . S
H861 C805 0.929 . S
H862 C806 0.930 . S
H863 C807 0.930 . S
H864 C810 0.930 . S
H865 C813 0.929 . S
H866 C818 0.929 . S
H867 C819 0.930 . S
H868 C826 0.929 . S
H869 C827 0.930 . S
H870 C828 0.930 . S
H871 C829 0.930 . S
H872 C831 0.929 . S
H873 C832 0.930 . S
H874 C833 0.930 . S
H875 C834 0.930 . S
H876 C838 0.929 . S
H877 C840 0.930 . S
H878 C846 0.929 . S
H879 C847 0.930 . S
Li880 N897 1.990 . S
Li880 O940 1.956 . S
Li880 O941 1.970 . S
Li880 O942 1.961 . S
Li881 N905 1.990 . S
Li881 O940 1.970 . S
Li881 O941 1.956 . S
Li881 O943 1.961 . S
Li882 N927 1.990 . S
Li882 O940 1.961 . S
Li882 O942 1.956 . S
Li882 O943 1.970 . S
Li883 N933 1.990 . S
Li883 O941 1.961 . S
Li883 O942 1.970 . S
Li883 O943 1.956 . S
C884 C886 1.348 . S
C884 C887 1.356 . S
C884 O940 1.325 . S
N885 C888 1.314 . S
N885 C889 1.279 . S
C886 C884 1.348 . S
C886 C888 1.353 . S
C886 H944 0.929 . S
C887 C884 1.356 . S
C887 C889 1.358 . S
C887 H945 0.930 . S
C888 N885 1.314 . S
C888 C886 1.353 . S
C888 H946 0.930 . S
C889 N885 1.279 . S
C889 C887 1.358 . S
C889 H947 0.930 . S
C890 C893 1.348 . S
C890 C894 1.356 . S
C890 O941 1.325 . S
C891 N892 1.279 . S
C891 C894 1.358 . S
C891 H948 0.930 . S
N892 C891 1.279 . S
N892 C895 1.314 . S
C893 C890 1.348 . S
C893 C895 1.353 . S
C893 H949 0.929 . S
C894 C890 1.356 . S
C894 C891 1.358 . S
C894 H950 0.930 . S
C895 N892 1.314 . S
C895 C893 1.353 . S
C895 H951 0.930 . S
C896 N897 1.314 . S
C896 C901 1.353 . S
C896 H902 0.930 . S
N897 Li880 1.990 . S
N897 C896 1.314 . S
N897 C899 1.279 . S
C898 C899 1.358 . S
C898 C900 1.356 . S
C898 H952 0.930 . S
C899 N897 1.279 . S
C899 C898 1.358 . S
C899 H903 0.930 . S
C900 C898 1.356 . S
C900 C901 1.348 . S
C901 C896 1.353 . S
C901 C900 1.348 . S
C901 H953 0.929 . S
H902 C896 0.930 . S
H903 C899 0.930 . S
C904 N905 1.314 . S
C904 C906 1.353 . S
C904 H910 0.930 . S
N905 Li881 1.990 . S
N905 C904 1.314 . S
N905 C908 1.279 . S
C906 C904 1.353 . S
C906 C909 1.348 . S
C906 H954 0.929 . S
C907 C908 1.358 . S
C907 C909 1.356 . S
C907 H955 0.930 . S
C908 N905 1.279 . S
C908 C907 1.358 . S
C908 H911 0.930 . S
C909 C906 1.348 . S
C909 C907 1.356 . S
H910 C904 0.930 . S
H911 C908 0.930 . S
C912 C914 1.348 . S
C912 C915 1.356 . S
C912 O942 1.325 . S
N913 C916 1.314 . S
N913 C917 1.279 . S
C914 C912 1.348 . S
C914 C916 1.353 . S
C914 H956 0.929 . S
C915 C912 1.356 . S
C915 C917 1.358 . S
C915 H957 0.930 . S
C916 N913 1.314 . S
C916 C914 1.353 . S
C916 H958 0.930 . S
C917 N913 1.279 . S
C917 C915 1.358 . S
C917 H959 0.930 . S
C918 C919 1.348 . S
C918 C920 1.356 . S
C918 O943 1.325 . S
C919 C918 1.348 . S
C919 C921 1.353 . S
C919 H960 0.929 . S
C920 C918 1.356 . S
C920 C922 1.358 . S
C920 H961 0.930 . S
C921 C919 1.353 . S
C921 N923 1.314 . S
C921 H962 0.930 . S
C922 C920 1.358 . S
C922 N923 1.279 . S
C922 H963 0.930 . S
N923 C921 1.314 . S
N923 C922 1.279 . S
C924 C926 1.353 . S
C924 N927 1.314 . S
C924 H930 0.930 . S
C925 N927 1.279 . S
C925 C928 1.358 . S
C925 H931 0.930 . S
C926 C924 1.353 . S
C926 C929 1.348 . S
C926 H964 0.929 . S
N927 Li882 1.990 . S
N927 C924 1.314 . S
N927 C925 1.279 . S
C928 C925 1.358 . S
C928 C929 1.356 . S
C928 H965 0.930 . S
C929 C926 1.348 . S
C929 C928 1.356 . S
H930 C924 0.930 . S
H931 C925 0.930 . S
C932 N933 1.314 . S
C932 C934 1.353 . S
C932 H938 0.930 . S
N933 Li883 1.990 . S
N933 C932 1.314 . S
N933 C936 1.279 . S
C934 C932 1.353 . S
C934 C937 1.348 . S
C934 H966 0.929 . S
C935 C936 1.358 . S
C935 C937 1.356 . S
C935 H967 0.930 . S
C936 N933 1.279 . S
C936 C935 1.358 . S
C936 H939 0.930 . S
C937 C934 1.348 . S
C937 C935 1.356 . S
H938 C932 0.930 . S
H939 C936 0.930 . S
O940 Li880 1.956 . S
O940 Li881 1.970 . S
O940 Li882 1.961 . S
O940 C884 1.325 . S
O941 Li880 1.970 . S
O941 Li881 1.956 . S
O941 Li883 1.961 . S
O941 C890 1.325 . S
O942 Li880 1.961 . S
O942 Li882 1.956 . S
O942 Li883 1.970 . S
O942 C912 1.325 . S
O943 Li881 1.961 . S
O943 Li882 1.970 . S
O943 Li883 1.956 . S
O943 C918 1.325 . S
H944 C886 0.929 . S
H945 C887 0.930 . S
H946 C888 0.930 . S
H947 C889 0.930 . S
H948 C891 0.930 . S
H949 C893 0.929 . S
H950 C894 0.930 . S
H951 C895 0.930 . S
H952 C898 0.930 . S
H953 C901 0.929 . S
H954 C906 0.929 . S
H955 C907 0.930 . S
H956 C914 0.929 . S
H957 C915 0.930 . S
H958 C916 0.930 . S
H959 C917 0.930 . S
H960 C919 0.929 . S
H961 C920 0.930 . S
H962 C921 0.930 . S
H963 C922 0.930 . S
H964 C926 0.929 . S
H965 C928 0.930 . S
H966 C934 0.929 . S
H967 C935 0.930 . S
Li968 N985 1.990 . S
Li968 O1028 1.956 . S
Li968 O1029 1.970 . S
Li968 O1030 1.961 . S
Li969 N993 1.990 . S
Li969 O1028 1.970 . S
Li969 O1029 1.956 . S
Li969 O1031 1.961 . S
Li970 N1015 1.990 . S
Li970 O1028 1.961 . S
Li970 O1030 1.956 . S
Li970 O1031 1.970 . S
Li971 N1021 1.990 . S
Li971 O1029 1.961 . S
Li971 O1030 1.970 . S
Li971 O1031 1.956 . S
C972 C974 1.348 . S
C972 C975 1.356 . S
C972 O1028 1.325 . S
N973 C976 1.314 . S
N973 C977 1.279 . S
C974 C972 1.348 . S
C974 C976 1.353 . S
C974 H1032 0.929 . S
C975 C972 1.356 . S
C975 C977 1.358 . S
C975 H1033 0.930 . S
C976 N973 1.314 . S
C976 C974 1.353 . S
C976 H1034 0.930 . S
C977 N973 1.279 . S
C977 C975 1.358 . S
C977 H1035 0.930 . S
C978 C981 1.348 . S
C978 C982 1.356 . S
C978 O1029 1.325 . S
C979 N980 1.279 . S
C979 C982 1.358 . S
C979 H1036 0.930 . S
N980 C979 1.279 . S
N980 C983 1.314 . S
C981 C978 1.348 . S
C981 C983 1.353 . S
C981 H1037 0.929 . S
C982 C978 1.356 . S
C982 C979 1.358 . S
C982 H1038 0.930 . S
C983 N980 1.314 . S
C983 C981 1.353 . S
C983 H1039 0.930 . S
C984 N985 1.314 . S
C984 C989 1.353 . S
C984 H990 0.930 . S
N985 Li968 1.990 . S
N985 C984 1.314 . S
N985 C987 1.279 . S
C986 C987 1.358 . S
C986 C988 1.356 . S
C986 H1040 0.930 . S
C987 N985 1.279 . S
C987 C986 1.358 . S
C987 H991 0.930 . S
C988 C986 1.356 . S
C988 C989 1.348 . S
C989 C984 1.353 . S
C989 C988 1.348 . S
C989 H1041 0.929 . S
H990 C984 0.930 . S
H991 C987 0.930 . S
C992 N993 1.314 . S
C992 C994 1.353 . S
C992 H998 0.930 . S
N993 Li969 1.990 . S
N993 C992 1.314 . S
N993 C996 1.279 . S
C994 C992 1.353 . S
C994 C997 1.348 . S
C994 H1042 0.929 . S
C995 C996 1.358 . S
C995 C997 1.356 . S
C995 H1043 0.930 . S
C996 N993 1.279 . S
C996 C995 1.358 . S
C996 H999 0.930 . S
C997 C994 1.348 . S
C997 C995 1.356 . S
H998 C992 0.930 . S
H999 C996 0.930 . S
C1000 C1002 1.348 . S
C1000 C1003 1.356 . S
C1000 O1030 1.325 . S
N1001 C1004 1.314 . S
N1001 C1005 1.279 . S
C1002 C1000 1.348 . S
C1002 C1004 1.353 . S
C1002 H1044 0.929 . S
C1003 C1000 1.356 . S
C1003 C1005 1.358 . S
C1003 H1045 0.930 . S
C1004 N1001 1.314 . S
C1004 C1002 1.353 . S
C1004 H1046 0.930 . S
C1005 N1001 1.279 . S
C1005 C1003 1.358 . S
C1005 H1047 0.930 . S
C1006 C1007 1.348 . S
C1006 C1008 1.356 . S
C1006 O1031 1.325 . S
C1007 C1006 1.348 . S
C1007 C1009 1.353 . S
C1007 H1048 0.929 . S
C1008 C1006 1.356 . S
C1008 C1010 1.358 . S
C1008 H1049 0.930 . S
C1009 C1007 1.353 . S
C1009 N1011 1.314 . S
C1009 H1050 0.930 . S
C1010 C1008 1.358 . S
C1010 N1011 1.279 . S
C1010 H1051 0.930 . S
N1011 C1009 1.314 . S
N1011 C1010 1.279 . S
C1012 C1014 1.353 . S
C1012 N1015 1.314 . S
C1012 H1018 0.930 . S
C1013 N1015 1.279 . S
C1013 C1016 1.358 . S
C1013 H1019 0.930 . S
C1014 C1012 1.353 . S
C1014 C1017 1.348 . S
C1014 H1052 0.929 . S
N1015 Li970 1.990 . S
N1015 C1012 1.314 . S
N1015 C1013 1.279 . S
C1016 C1013 1.358 . S
C1016 C1017 1.356 . S
C1016 H1053 0.930 . S
C1017 C1014 1.348 . S
C1017 C1016 1.356 . S
H1018 C1012 0.930 . S
H1019 C1013 0.930 . S
C1020 N1021 1.314 . S
C1020 C1022 1.353 . S
C1020 H1026 0.930 . S
N1021 Li971 1.990 . S
N1021 C1020 1.314 . S
N1021 C1024 1.279 . S
C1022 C1020 1.353 . S
C1022 C1025 1.348 . S
C1022 H1054 0.929 . S
C1023 C1024 1.358 . S
C1023 C1025 1.356 . S
C1023 H1055 0.930 . S
C1024 N1021 1.279 . S
C1024 C1023 1.358 . S
C1024 H1027 0.930 . S
C1025 C1022 1.348 . S
C1025 C1023 1.356 . S
H1026 C1020 0.930 . S
H1027 C1024 0.930 . S
O1028 Li968 1.956 . S
O1028 Li969 1.970 . S
O1028 Li970 1.961 . S
O1028 C972 1.325 . S
O1029 Li968 1.970 . S
O1029 Li969 1.956 . S
O1029 Li971 1.961 . S
O1029 C978 1.325 . S
O1030 Li968 1.961 . S
O1030 Li970 1.956 . S
O1030 Li971 1.970 . S
O1030 C1000 1.325 . S
O1031 Li969 1.961 . S
O1031 Li970 1.970 . S
O1031 Li971 1.956 . S
O1031 C1006 1.325 . S
H1032 C974 0.929 . S
H1033 C975 0.930 . S
H1034 C976 0.930 . S
H1035 C977 0.930 . S
H1036 C979 0.930 . S
H1037 C981 0.929 . S
H1038 C982 0.930 . S
H1039 C983 0.930 . S
H1040 C986 0.930 . S
H1041 C989 0.929 . S
H1042 C994 0.929 . S
H1043 C995 0.930 . S
H1044 C1002 0.929 . S
H1045 C1003 0.930 . S
H1046 C1004 0.930 . S
H1047 C1005 0.930 . S
H1048 C1007 0.929 . S
H1049 C1008 0.930 . S
H1050 C1009 0.930 . S
H1051 C1010 0.930 . S
H1052 C1014 0.929 . S
H1053 C1016 0.930 . S
H1054 C1022 0.929 . S
H1055 C1023 0.930 . S
Li1056 N1073 1.990 . S
Li1056 O1116 1.956 . S
Li1056 O1117 1.970 . S
Li1056 O1118 1.961 . S
Li1057 N1081 1.990 . S
Li1057 O1116 1.970 . S
Li1057 O1117 1.956 . S
Li1057 O1119 1.961 . S
Li1058 N1103 1.990 . S
Li1058 O1116 1.961 . S
Li1058 O1118 1.956 . S
Li1058 O1119 1.970 . S
Li1059 N1109 1.990 . S
Li1059 O1117 1.961 . S
Li1059 O1118 1.970 . S
Li1059 O1119 1.956 . S
C1060 C1062 1.348 . S
C1060 C1063 1.356 . S
C1060 O1116 1.325 . S
N1061 C1064 1.314 . S
N1061 C1065 1.279 . S
C1062 C1060 1.348 . S
C1062 C1064 1.353 . S
C1062 H1120 0.929 . S
C1063 C1060 1.356 . S
C1063 C1065 1.358 . S
C1063 H1121 0.930 . S
C1064 N1061 1.314 . S
C1064 C1062 1.353 . S
C1064 H1122 0.930 . S
C1065 N1061 1.279 . S
C1065 C1063 1.358 . S
C1065 H1123 0.930 . S
C1066 C1069 1.348 . S
C1066 C1070 1.356 . S
C1066 O1117 1.325 . S
C1067 N1068 1.279 . S
C1067 C1070 1.358 . S
C1067 H1124 0.930 . S
N1068 C1067 1.279 . S
N1068 C1071 1.314 . S
C1069 C1066 1.348 . S
C1069 C1071 1.353 . S
C1069 H1125 0.929 . S
C1070 C1066 1.356 . S
C1070 C1067 1.358 . S
C1070 H1126 0.930 . S
C1071 N1068 1.314 . S
C1071 C1069 1.353 . S
C1071 H1127 0.930 . S
C1072 N1073 1.314 . S
C1072 C1077 1.353 . S
C1072 H1078 0.930 . S
N1073 Li1056 1.990 . S
N1073 C1072 1.314 . S
N1073 C1075 1.279 . S
C1074 C1075 1.358 . S
C1074 C1076 1.356 . S
C1074 H1128 0.930 . S
C1075 N1073 1.279 . S
C1075 C1074 1.358 . S
C1075 H1079 0.930 . S
C1076 C1074 1.356 . S
C1076 C1077 1.348 . S
C1077 C1072 1.353 . S
C1077 C1076 1.348 . S
C1077 H1129 0.929 . S
H1078 C1072 0.930 . S
H1079 C1075 0.930 . S
C1080 N1081 1.314 . S
C1080 C1082 1.353 . S
C1080 H1086 0.930 . S
N1081 Li1057 1.990 . S
N1081 C1080 1.314 . S
N1081 C1084 1.279 . S
C1082 C1080 1.353 . S
C1082 C1085 1.348 . S
C1082 H1130 0.929 . S
C1083 C1084 1.358 . S
C1083 C1085 1.356 . S
C1083 H1131 0.930 . S
C1084 N1081 1.279 . S
C1084 C1083 1.358 . S
C1084 H1087 0.930 . S
C1085 C1082 1.348 . S
C1085 C1083 1.356 . S
H1086 C1080 0.930 . S
H1087 C1084 0.930 . S
C1088 C1090 1.348 . S
C1088 C1091 1.356 . S
C1088 O1118 1.325 . S
N1089 C1092 1.314 . S
N1089 C1093 1.279 . S
C1090 C1088 1.348 . S
C1090 C1092 1.353 . S
C1090 H1132 0.929 . S
C1091 C1088 1.356 . S
C1091 C1093 1.358 . S
C1091 H1133 0.930 . S
C1092 N1089 1.314 . S
C1092 C1090 1.353 . S
C1092 H1134 0.930 . S
C1093 N1089 1.279 . S
C1093 C1091 1.358 . S
C1093 H1135 0.930 . S
C1094 C1095 1.348 . S
C1094 C1096 1.356 . S
C1094 O1119 1.325 . S
C1095 C1094 1.348 . S
C1095 C1097 1.353 . S
C1095 H1136 0.929 . S
C1096 C1094 1.356 . S
C1096 C1098 1.358 . S
C1096 H1137 0.930 . S
C1097 C1095 1.353 . S
C1097 N1099 1.314 . S
C1097 H1138 0.930 . S
C1098 C1096 1.358 . S
C1098 N1099 1.279 . S
C1098 H1139 0.930 . S
N1099 C1097 1.314 . S
N1099 C1098 1.279 . S
C1100 C1102 1.353 . S
C1100 N1103 1.314 . S
C1100 H1106 0.930 . S
C1101 N1103 1.279 . S
C1101 C1104 1.358 . S
C1101 H1107 0.930 . S
C1102 C1100 1.353 . S
C1102 C1105 1.348 . S
C1102 H1140 0.929 . S
N1103 Li1058 1.990 . S
N1103 C1100 1.314 . S
N1103 C1101 1.279 . S
C1104 C1101 1.358 . S
C1104 C1105 1.356 . S
C1104 H1141 0.930 . S
C1105 C1102 1.348 . S
C1105 C1104 1.356 . S
H1106 C1100 0.930 . S
H1107 C1101 0.930 . S
C1108 N1109 1.314 . S
C1108 C1110 1.353 . S
C1108 H1114 0.930 . S
N1109 Li1059 1.990 . S
N1109 C1108 1.314 . S
N1109 C1112 1.279 . S
C1110 C1108 1.353 . S
C1110 C1113 1.348 . S
C1110 H1142 0.929 . S
C1111 C1112 1.358 . S
C1111 C1113 1.356 . S
C1111 H1143 0.930 . S
C1112 N1109 1.279 . S
C1112 C1111 1.358 . S
C1112 H1115 0.930 . S
C1113 C1110 1.348 . S
C1113 C1111 1.356 . S
H1114 C1108 0.930 . S
H1115 C1112 0.930 . S
O1116 Li1056 1.956 . S
O1116 Li1057 1.970 . S
O1116 Li1058 1.961 . S
O1116 C1060 1.325 . S
O1117 Li1056 1.970 . S
O1117 Li1057 1.956 . S
O1117 Li1059 1.961 . S
O1117 C1066 1.325 . S
O1118 Li1056 1.961 . S
O1118 Li1058 1.956 . S
O1118 Li1059 1.970 . S
O1118 C1088 1.325 . S
O1119 Li1057 1.961 . S
O1119 Li1058 1.970 . S
O1119 Li1059 1.956 . S
O1119 C1094 1.325 . S
H1120 C1062 0.929 . S
H1121 C1063 0.930 . S
H1122 C1064 0.930 . S
H1123 C1065 0.930 . S
H1124 C1067 0.930 . S
H1125 C1069 0.929 . S
H1126 C1070 0.930 . S
H1127 C1071 0.930 . S
H1128 C1074 0.930 . S
H1129 C1077 0.929 . S
H1130 C1082 0.929 . S
H1131 C1083 0.930 . S
H1132 C1090 0.929 . S
H1133 C1091 0.930 . S
H1134 C1092 0.930 . S
H1135 C1093 0.930 . S
H1136 C1095 0.929 . S
H1137 C1096 0.930 . S
H1138 C1097 0.930 . S
H1139 C1098 0.930 . S
H1140 C1102 0.929 . S
H1141 C1104 0.930 . S
H1142 C1110 0.929 . S
H1143 C1111 0.930 . S
Li1144 N1161 1.990 . S
Li1144 O1204 1.956 . S
Li1144 O1205 1.970 . S
Li1144 O1206 1.961 . S
Li1145 N1169 1.990 . S
Li1145 O1204 1.970 . S
Li1145 O1205 1.956 . S
Li1145 O1207 1.961 . S
Li1146 N1191 1.990 . S
Li1146 O1204 1.961 . S
Li1146 O1206 1.956 . S
Li1146 O1207 1.970 . S
Li1147 N1197 1.990 . S
Li1147 O1205 1.961 . S
Li1147 O1206 1.970 . S
Li1147 O1207 1.956 . S
C1148 C1150 1.348 . S
C1148 C1151 1.356 . S
C1148 O1204 1.325 . S
N1149 C1152 1.314 . S
N1149 C1153 1.279 . S
C1150 C1148 1.348 . S
C1150 C1152 1.353 . S
C1150 H1208 0.929 . S
C1151 C1148 1.356 . S
C1151 C1153 1.358 . S
C1151 H1209 0.930 . S
C1152 N1149 1.314 . S
C1152 C1150 1.353 . S
C1152 H1210 0.930 . S
C1153 N1149 1.279 . S
C1153 C1151 1.358 . S
C1153 H1211 0.930 . S
C1154 C1157 1.348 . S
C1154 C1158 1.356 . S
C1154 O1205 1.325 . S
C1155 N1156 1.279 . S
C1155 C1158 1.358 . S
C1155 H1212 0.930 . S
N1156 C1155 1.279 . S
N1156 C1159 1.314 . S
C1157 C1154 1.348 . S
C1157 C1159 1.353 . S
C1157 H1213 0.929 . S
C1158 C1154 1.356 . S
C1158 C1155 1.358 . S
C1158 H1214 0.930 . S
C1159 N1156 1.314 . S
C1159 C1157 1.353 . S
C1159 H1215 0.930 . S
C1160 N1161 1.314 . S
C1160 C1165 1.353 . S
C1160 H1166 0.930 . S
N1161 Li1144 1.990 . S
N1161 C1160 1.314 . S
N1161 C1163 1.279 . S
C1162 C1163 1.358 . S
C1162 C1164 1.356 . S
C1162 H1216 0.930 . S
C1163 N1161 1.279 . S
C1163 C1162 1.358 . S
C1163 H1167 0.930 . S
C1164 C1162 1.356 . S
C1164 C1165 1.348 . S
C1165 C1160 1.353 . S
C1165 C1164 1.348 . S
C1165 H1217 0.929 . S
H1166 C1160 0.930 . S
H1167 C1163 0.930 . S
C1168 N1169 1.314 . S
C1168 C1170 1.353 . S
C1168 H1174 0.930 . S
N1169 Li1145 1.990 . S
N1169 C1168 1.314 . S
N1169 C1172 1.279 . S
C1170 C1168 1.353 . S
C1170 C1173 1.348 . S
C1170 H1218 0.929 . S
C1171 C1172 1.358 . S
C1171 C1173 1.356 . S
C1171 H1219 0.930 . S
C1172 N1169 1.279 . S
C1172 C1171 1.358 . S
C1172 H1175 0.930 . S
C1173 C1170 1.348 . S
C1173 C1171 1.356 . S
H1174 C1168 0.930 . S
H1175 C1172 0.930 . S
C1176 C1178 1.348 . S
C1176 C1179 1.356 . S
C1176 O1206 1.325 . S
N1177 C1180 1.314 . S
N1177 C1181 1.279 . S
C1178 C1176 1.348 . S
C1178 C1180 1.353 . S
C1178 H1220 0.929 . S
C1179 C1176 1.356 . S
C1179 C1181 1.358 . S
C1179 H1221 0.930 . S
C1180 N1177 1.314 . S
C1180 C1178 1.353 . S
C1180 H1222 0.930 . S
C1181 N1177 1.279 . S
C1181 C1179 1.358 . S
C1181 H1223 0.930 . S
C1182 C1183 1.348 . S
C1182 C1184 1.356 . S
C1182 O1207 1.325 . S
C1183 C1182 1.348 . S
C1183 C1185 1.353 . S
C1183 H1224 0.929 . S
C1184 C1182 1.356 . S
C1184 C1186 1.358 . S
C1184 H1225 0.930 . S
C1185 C1183 1.353 . S
C1185 N1187 1.314 . S
C1185 H1226 0.930 . S
C1186 C1184 1.358 . S
C1186 N1187 1.279 . S
C1186 H1227 0.930 . S
N1187 C1185 1.314 . S
N1187 C1186 1.279 . S
C1188 C1190 1.353 . S
C1188 N1191 1.314 . S
C1188 H1194 0.930 . S
C1189 N1191 1.279 . S
C1189 C1192 1.358 . S
C1189 H1195 0.930 . S
C1190 C1188 1.353 . S
C1190 C1193 1.348 . S
C1190 H1228 0.929 . S
N1191 Li1146 1.990 . S
N1191 C1188 1.314 . S
N1191 C1189 1.279 . S
C1192 C1189 1.358 . S
C1192 C1193 1.356 . S
C1192 H1229 0.930 . S
C1193 C1190 1.348 . S
C1193 C1192 1.356 . S
H1194 C1188 0.930 . S
H1195 C1189 0.930 . S
C1196 N1197 1.314 . S
C1196 C1198 1.353 . S
C1196 H1202 0.930 . S
N1197 Li1147 1.990 . S
N1197 C1196 1.314 . S
N1197 C1200 1.279 . S
C1198 C1196 1.353 . S
C1198 C1201 1.348 . S
C1198 H1230 0.929 . S
C1199 C1200 1.358 . S
C1199 C1201 1.356 . S
C1199 H1231 0.930 . S
C1200 N1197 1.279 . S
C1200 C1199 1.358 . S
C1200 H1203 0.930 . S
C1201 C1198 1.348 . S
C1201 C1199 1.356 . S
H1202 C1196 0.930 . S
H1203 C1200 0.930 . S
O1204 Li1144 1.956 . S
O1204 Li1145 1.970 . S
O1204 Li1146 1.961 . S
O1204 C1148 1.325 . S
O1205 Li1144 1.970 . S
O1205 Li1145 1.956 . S
O1205 Li1147 1.961 . S
O1205 C1154 1.325 . S
O1206 Li1144 1.961 . S
O1206 Li1146 1.956 . S
O1206 Li1147 1.970 . S
O1206 C1176 1.325 . S
O1207 Li1145 1.961 . S
O1207 Li1146 1.970 . S
O1207 Li1147 1.956 . S
O1207 C1182 1.325 . S
H1208 C1150 0.929 . S
H1209 C1151 0.930 . S
H1210 C1152 0.930 . S
H1211 C1153 0.930 . S
H1212 C1155 0.930 . S
H1213 C1157 0.929 . S
H1214 C1158 0.930 . S
H1215 C1159 0.930 . S
H1216 C1162 0.930 . S
H1217 C1165 0.929 . S
H1218 C1170 0.929 . S
H1219 C1171 0.930 . S
H1220 C1178 0.929 . S
H1221 C1179 0.930 . S
H1222 C1180 0.930 . S
H1223 C1181 0.930 . S
H1224 C1183 0.929 . S
H1225 C1184 0.930 . S
H1226 C1185 0.930 . S
H1227 C1186 0.930 . S
H1228 C1190 0.929 . S
H1229 C1192 0.930 . S
H1230 C1198 0.929 . S
H1231 C1199 0.930 . S
Li1232 N1249 1.990 . S
Li1232 O1292 1.956 . S
Li1232 O1293 1.970 . S
Li1232 O1294 1.961 . S
Li1233 N1257 1.990 . S
Li1233 O1292 1.970 . S
Li1233 O1293 1.956 . S
Li1233 O1295 1.961 . S
Li1234 N1279 1.990 . S
Li1234 O1292 1.961 . S
Li1234 O1294 1.956 . S
Li1234 O1295 1.970 . S
Li1235 N1285 1.990 . S
Li1235 O1293 1.961 . S
Li1235 O1294 1.970 . S
Li1235 O1295 1.956 . S
C1236 C1238 1.348 . S
C1236 C1239 1.356 . S
C1236 O1292 1.325 . S
N1237 C1240 1.314 . S
N1237 C1241 1.279 . S
C1238 C1236 1.348 . S
C1238 C1240 1.353 . S
C1238 H1296 0.929 . S
C1239 C1236 1.356 . S
C1239 C1241 1.358 . S
C1239 H1297 0.930 . S
C1240 N1237 1.314 . S
C1240 C1238 1.353 . S
C1240 H1298 0.930 . S
C1241 N1237 1.279 . S
C1241 C1239 1.358 . S
C1241 H1299 0.930 . S
C1242 C1245 1.348 . S
C1242 C1246 1.356 . S
C1242 O1293 1.325 . S
C1243 N1244 1.279 . S
C1243 C1246 1.358 . S
C1243 H1300 0.930 . S
N1244 C1243 1.279 . S
N1244 C1247 1.314 . S
C1245 C1242 1.348 . S
C1245 C1247 1.353 . S
C1245 H1301 0.929 . S
C1246 C1242 1.356 . S
C1246 C1243 1.358 . S
C1246 H1302 0.930 . S
C1247 N1244 1.314 . S
C1247 C1245 1.353 . S
C1247 H1303 0.930 . S
C1248 N1249 1.314 . S
C1248 C1253 1.353 . S
C1248 H1254 0.930 . S
N1249 Li1232 1.990 . S
N1249 C1248 1.314 . S
N1249 C1251 1.279 . S
C1250 C1251 1.358 . S
C1250 C1252 1.356 . S
C1250 H1304 0.930 . S
C1251 N1249 1.279 . S
C1251 C1250 1.358 . S
C1251 H1255 0.930 . S
C1252 C1250 1.356 . S
C1252 C1253 1.348 . S
C1253 C1248 1.353 . S
C1253 C1252 1.348 . S
C1253 H1305 0.929 . S
H1254 C1248 0.930 . S
H1255 C1251 0.930 . S
C1256 N1257 1.314 . S
C1256 C1258 1.353 . S
C1256 H1262 0.930 . S
N1257 Li1233 1.990 . S
N1257 C1256 1.314 . S
N1257 C1260 1.279 . S
C1258 C1256 1.353 . S
C1258 C1261 1.348 . S
C1258 H1306 0.929 . S
C1259 C1260 1.358 . S
C1259 C1261 1.356 . S
C1259 H1307 0.930 . S
C1260 N1257 1.279 . S
C1260 C1259 1.358 . S
C1260 H1263 0.930 . S
C1261 C1258 1.348 . S
C1261 C1259 1.356 . S
H1262 C1256 0.930 . S
H1263 C1260 0.930 . S
C1264 C1266 1.348 . S
C1264 C1267 1.356 . S
C1264 O1294 1.325 . S
N1265 C1268 1.314 . S
N1265 C1269 1.279 . S
C1266 C1264 1.348 . S
C1266 C1268 1.353 . S
C1266 H1308 0.929 . S
C1267 C1264 1.356 . S
C1267 C1269 1.358 . S
C1267 H1309 0.930 . S
C1268 N1265 1.314 . S
C1268 C1266 1.353 . S
C1268 H1310 0.930 . S
C1269 N1265 1.279 . S
C1269 C1267 1.358 . S
C1269 H1311 0.930 . S
C1270 C1271 1.348 . S
C1270 C1272 1.356 . S
C1270 O1295 1.325 . S
C1271 C1270 1.348 . S
C1271 C1273 1.353 . S
C1271 H1312 0.929 . S
C1272 C1270 1.356 . S
C1272 C1274 1.358 . S
C1272 H1313 0.930 . S
C1273 C1271 1.353 . S
C1273 N1275 1.314 . S
C1273 H1314 0.930 . S
C1274 C1272 1.358 . S
C1274 N1275 1.279 . S
C1274 H1315 0.930 . S
N1275 C1273 1.314 . S
N1275 C1274 1.279 . S
C1276 C1278 1.353 . S
C1276 N1279 1.314 . S
C1276 H1282 0.930 . S
C1277 N1279 1.279 . S
C1277 C1280 1.358 . S
C1277 H1283 0.930 . S
C1278 C1276 1.353 . S
C1278 C1281 1.348 . S
C1278 H1316 0.929 . S
N1279 Li1234 1.990 . S
N1279 C1276 1.314 . S
N1279 C1277 1.279 . S
C1280 C1277 1.358 . S
C1280 C1281 1.356 . S
C1280 H1317 0.930 . S
C1281 C1278 1.348 . S
C1281 C1280 1.356 . S
H1282 C1276 0.930 . S
H1283 C1277 0.930 . S
C1284 N1285 1.314 . S
C1284 C1286 1.353 . S
C1284 H1290 0.930 . S
N1285 Li1235 1.990 . S
N1285 C1284 1.314 . S
N1285 C1288 1.279 . S
C1286 C1284 1.353 . S
C1286 C1289 1.348 . S
C1286 H1318 0.929 . S
C1287 C1288 1.358 . S
C1287 C1289 1.356 . S
C1287 H1319 0.930 . S
C1288 N1285 1.279 . S
C1288 C1287 1.358 . S
C1288 H1291 0.930 . S
C1289 C1286 1.348 . S
C1289 C1287 1.356 . S
H1290 C1284 0.930 . S
H1291 C1288 0.930 . S
O1292 Li1232 1.956 . S
O1292 Li1233 1.970 . S
O1292 Li1234 1.961 . S
O1292 C1236 1.325 . S
O1293 Li1232 1.970 . S
O1293 Li1233 1.956 . S
O1293 Li1235 1.961 . S
O1293 C1242 1.325 . S
O1294 Li1232 1.961 . S
O1294 Li1234 1.956 . S
O1294 Li1235 1.970 . S
O1294 C1264 1.325 . S
O1295 Li1233 1.961 . S
O1295 Li1234 1.970 . S
O1295 Li1235 1.956 . S
O1295 C1270 1.325 . S
H1296 C1238 0.929 . S
H1297 C1239 0.930 . S
H1298 C1240 0.930 . S
H1299 C1241 0.930 . S
H1300 C1243 0.930 . S
H1301 C1245 0.929 . S
H1302 C1246 0.930 . S
H1303 C1247 0.930 . S
H1304 C1250 0.930 . S
H1305 C1253 0.929 . S
H1306 C1258 0.929 . S
H1307 C1259 0.930 . S
H1308 C1266 0.929 . S
H1309 C1267 0.930 . S
H1310 C1268 0.930 . S
H1311 C1269 0.930 . S
H1312 C1271 0.929 . S
H1313 C1272 0.930 . S
H1314 C1273 0.930 . S
H1315 C1274 0.930 . S
H1316 C1278 0.929 . S
H1317 C1280 0.930 . S
H1318 C1286 0.929 . S
H1319 C1287 0.930 . S
Li1320 N1337 1.990 . S
Li1320 O1380 1.956 . S
Li1320 O1381 1.970 . S
Li1320 O1382 1.961 . S
Li1321 N1345 1.990 . S
Li1321 O1380 1.970 . S
Li1321 O1381 1.956 . S
Li1321 O1383 1.961 . S
Li1322 N1367 1.990 . S
Li1322 O1380 1.961 . S
Li1322 O1382 1.956 . S
Li1322 O1383 1.970 . S
Li1323 N1373 1.990 . S
Li1323 O1381 1.961 . S
Li1323 O1382 1.970 . S
Li1323 O1383 1.956 . S
C1324 C1326 1.348 . S
C1324 C1327 1.356 . S
C1324 O1380 1.325 . S
N1325 C1328 1.314 . S
N1325 C1329 1.279 . S
C1326 C1324 1.348 . S
C1326 C1328 1.353 . S
C1326 H1384 0.929 . S
C1327 C1324 1.356 . S
C1327 C1329 1.358 . S
C1327 H1385 0.930 . S
C1328 N1325 1.314 . S
C1328 C1326 1.353 . S
C1328 H1386 0.930 . S
C1329 N1325 1.279 . S
C1329 C1327 1.358 . S
C1329 H1387 0.930 . S
C1330 C1333 1.348 . S
C1330 C1334 1.356 . S
C1330 O1381 1.325 . S
C1331 N1332 1.279 . S
C1331 C1334 1.358 . S
C1331 H1388 0.930 . S
N1332 C1331 1.279 . S
N1332 C1335 1.314 . S
C1333 C1330 1.348 . S
C1333 C1335 1.353 . S
C1333 H1389 0.929 . S
C1334 C1330 1.356 . S
C1334 C1331 1.358 . S
C1334 H1390 0.930 . S
C1335 N1332 1.314 . S
C1335 C1333 1.353 . S
C1335 H1391 0.930 . S
C1336 N1337 1.314 . S
C1336 C1341 1.353 . S
C1336 H1342 0.930 . S
N1337 Li1320 1.990 . S
N1337 C1336 1.314 . S
N1337 C1339 1.279 . S
C1338 C1339 1.358 . S
C1338 C1340 1.356 . S
C1338 H1392 0.930 . S
C1339 N1337 1.279 . S
C1339 C1338 1.358 . S
C1339 H1343 0.930 . S
C1340 C1338 1.356 . S
C1340 C1341 1.348 . S
C1341 C1336 1.353 . S
C1341 C1340 1.348 . S
C1341 H1393 0.929 . S
H1342 C1336 0.930 . S
H1343 C1339 0.930 . S
C1344 N1345 1.314 . S
C1344 C1346 1.353 . S
C1344 H1350 0.930 . S
N1345 Li1321 1.990 . S
N1345 C1344 1.314 . S
N1345 C1348 1.279 . S
C1346 C1344 1.353 . S
C1346 C1349 1.348 . S
C1346 H1394 0.929 . S
C1347 C1348 1.358 . S
C1347 C1349 1.356 . S
C1347 H1395 0.930 . S
C1348 N1345 1.279 . S
C1348 C1347 1.358 . S
C1348 H1351 0.930 . S
C1349 C1346 1.348 . S
C1349 C1347 1.356 . S
H1350 C1344 0.930 . S
H1351 C1348 0.930 . S
C1352 C1354 1.348 . S
C1352 C1355 1.356 . S
C1352 O1382 1.325 . S
N1353 C1356 1.314 . S
N1353 C1357 1.279 . S
C1354 C1352 1.348 . S
C1354 C1356 1.353 . S
C1354 H1396 0.929 . S
C1355 C1352 1.356 . S
C1355 C1357 1.358 . S
C1355 H1397 0.930 . S
C1356 N1353 1.314 . S
C1356 C1354 1.353 . S
C1356 H1398 0.930 . S
C1357 N1353 1.279 . S
C1357 C1355 1.358 . S
C1357 H1399 0.930 . S
C1358 C1359 1.348 . S
C1358 C1360 1.356 . S
C1358 O1383 1.325 . S
C1359 C1358 1.348 . S
C1359 C1361 1.353 . S
C1359 H1400 0.929 . S
C1360 C1358 1.356 . S
C1360 C1362 1.358 . S
C1360 H1401 0.930 . S
C1361 C1359 1.353 . S
C1361 N1363 1.314 . S
C1361 H1402 0.930 . S
C1362 C1360 1.358 . S
C1362 N1363 1.279 . S
C1362 H1403 0.930 . S
N1363 C1361 1.314 . S
N1363 C1362 1.279 . S
C1364 C1366 1.353 . S
C1364 N1367 1.314 . S
C1364 H1370 0.930 . S
C1365 N1367 1.279 . S
C1365 C1368 1.358 . S
C1365 H1371 0.930 . S
C1366 C1364 1.353 . S
C1366 C1369 1.348 . S
C1366 H1404 0.929 . S
N1367 Li1322 1.990 . S
N1367 C1364 1.314 . S
N1367 C1365 1.279 . S
C1368 C1365 1.358 . S
C1368 C1369 1.356 . S
C1368 H1405 0.930 . S
C1369 C1366 1.348 . S
C1369 C1368 1.356 . S
H1370 C1364 0.930 . S
H1371 C1365 0.930 . S
C1372 N1373 1.314 . S
C1372 C1374 1.353 . S
C1372 H1378 0.930 . S
N1373 Li1323 1.990 . S
N1373 C1372 1.314 . S
N1373 C1376 1.279 . S
C1374 C1372 1.353 . S
C1374 C1377 1.348 . S
C1374 H1406 0.929 . S
C1375 C1376 1.358 . S
C1375 C1377 1.356 . S
C1375 H1407 0.930 . S
C1376 N1373 1.279 . S
C1376 C1375 1.358 . S
C1376 H1379 0.930 . S
C1377 C1374 1.348 . S
C1377 C1375 1.356 . S
H1378 C1372 0.930 . S
H1379 C1376 0.930 . S
O1380 Li1320 1.956 . S
O1380 Li1321 1.970 . S
O1380 Li1322 1.961 . S
O1380 C1324 1.325 . S
O1381 Li1320 1.970 . S
O1381 Li1321 1.956 . S
O1381 Li1323 1.961 . S
O1381 C1330 1.325 . S
O1382 Li1320 1.961 . S
O1382 Li1322 1.956 . S
O1382 Li1323 1.970 . S
O1382 C1352 1.325 . S
O1383 Li1321 1.961 . S
O1383 Li1322 1.970 . S
O1383 Li1323 1.956 . S
O1383 C1358 1.325 . S
H1384 C1326 0.929 . S
H1385 C1327 0.930 . S
H1386 C1328 0.930 . S
H1387 C1329 0.930 . S
H1388 C1331 0.930 . S
H1389 C1333 0.929 . S
H1390 C1334 0.930 . S
H1391 C1335 0.930 . S
H1392 C1338 0.930 . S
H1393 C1341 0.929 . S
H1394 C1346 0.929 . S
H1395 C1347 0.930 . S
H1396 C1354 0.929 . S
H1397 C1355 0.930 . S
H1398 C1356 0.930 . S
H1399 C1357 0.930 . S
H1400 C1359 0.929 . S
H1401 C1360 0.930 . S
H1402 C1361 0.930 . S
H1403 C1362 0.930 . S
H1404 C1366 0.929 . S
H1405 C1368 0.930 . S
H1406 C1374 0.929 . S
H1407 C1375 0.930 . S
C1408 C1409 1.369 . S
C1408 C1410 1.419 . S
C1408 H1412 0.930 . S
C1409 C1408 1.369 . S
C1409 C1418 1.429 . S
C1410 C1408 1.419 . S
C1410 C1411 1.363 . S
C1410 H1413 0.929 . S
C1411 C1410 1.363 . S
C1411 C1417 1.428 . S
H1412 C1408 0.930 . S
H1413 C1410 0.929 . S
S1414 N1415 1.613 . S
S1414 N1416 1.610 . S
N1415 S1414 1.613 . S
N1415 C1418 1.350 . S
N1416 S1414 1.610 . S
N1416 C1417 1.351 . S
C1417 C1411 1.428 . S
C1417 N1416 1.351 . S
C1417 C1418 1.434 . S
C1418 C1409 1.429 . S
C1418 N1415 1.350 . S
C1418 C1417 1.434 . S
C1419 C1420 1.369 . S
C1419 C1421 1.419 . S
C1419 H1423 0.930 . S
C1420 C1419 1.369 . S
C1420 C1429 1.429 . S
C1421 C1419 1.419 . S
C1421 C1422 1.363 . S
C1421 H1424 0.929 . S
C1422 C1421 1.363 . S
C1422 C1428 1.428 . S
H1423 C1419 0.930 . S
H1424 C1421 0.929 . S
S1425 N1426 1.613 . S
S1425 N1427 1.610 . S
N1426 S1425 1.613 . S
N1426 C1429 1.350 . S
N1427 S1425 1.610 . S
N1427 C1428 1.351 . S
C1428 C1422 1.428 . S
C1428 N1427 1.351 . S
C1428 C1429 1.434 . S
C1429 C1420 1.429 . S
C1429 N1426 1.350 . S
C1429 C1428 1.434 . S
C1430 C1431 1.369 . S
C1430 C1432 1.419 . S
C1430 H1434 0.930 . S
C1431 C1430 1.369 . S
C1431 C1440 1.429 . S
C1432 C1430 1.419 . S
C1432 C1433 1.363 . S
C1432 H1435 0.929 . S
C1433 C1432 1.363 . S
C1433 C1439 1.428 . S
H1434 C1430 0.930 . S
H1435 C1432 0.929 . S
S1436 N1437 1.613 . S
S1436 N1438 1.610 . S
N1437 S1436 1.613 . S
N1437 C1440 1.350 . S
N1438 S1436 1.610 . S
N1438 C1439 1.351 . S
C1439 C1433 1.428 . S
C1439 N1438 1.351 . S
C1439 C1440 1.434 . S
C1440 C1431 1.429 . S
C1440 N1437 1.350 . S
C1440 C1439 1.434 . S
C1441 C1442 1.369 . S
C1441 C1443 1.419 . S
C1441 H1445 0.930 . S
C1442 C1441 1.369 . S
C1442 C1451 1.429 . S
C1443 C1441 1.419 . S
C1443 C1444 1.363 . S
C1443 H1446 0.929 . S
C1444 C1443 1.363 . S
C1444 C1450 1.428 . S
H1445 C1441 0.930 . S
H1446 C1443 0.929 . S
S1447 N1448 1.613 . S
S1447 N1449 1.610 . S
N1448 S1447 1.613 . S
N1448 C1451 1.350 . S
N1449 S1447 1.610 . S
N1449 C1450 1.351 . S
C1450 C1444 1.428 . S
C1450 N1449 1.351 . S
C1450 C1451 1.434 . S
C1451 C1442 1.429 . S
C1451 N1448 1.350 . S
C1451 C1450 1.434 . S
C1452 C1453 1.369 . S
C1452 C1454 1.419 . S
C1452 H1456 0.930 . S
C1453 C1452 1.369 . S
C1453 C1462 1.429 . S
C1454 C1452 1.419 . S
C1454 C1455 1.363 . S
C1454 H1457 0.929 . S
C1455 C1454 1.363 . S
C1455 C1461 1.428 . S
H1456 C1452 0.930 . S
H1457 C1454 0.929 . S
S1458 N1459 1.613 . S
S1458 N1460 1.610 . S
N1459 S1458 1.613 . S
N1459 C1462 1.350 . S
N1460 S1458 1.610 . S
N1460 C1461 1.351 . S
C1461 C1455 1.428 . S
C1461 N1460 1.351 . S
C1461 C1462 1.434 . S
C1462 C1453 1.429 . S
C1462 N1459 1.350 . S
C1462 C1461 1.434 . S
C1463 C1464 1.369 . S
C1463 C1465 1.419 . S
C1463 H1467 0.930 . S
C1464 C1463 1.369 . S
C1464 C1473 1.429 . S
C1465 C1463 1.419 . S
C1465 C1466 1.363 . S
C1465 H1468 0.929 . S
C1466 C1465 1.363 . S
C1466 C1472 1.428 . S
H1467 C1463 0.930 . S
H1468 C1465 0.929 . S
S1469 N1470 1.613 . S
S1469 N1471 1.610 . S
N1470 S1469 1.613 . S
N1470 C1473 1.350 . S
N1471 S1469 1.610 . S
N1471 C1472 1.351 . S
C1472 C1466 1.428 . S
C1472 N1471 1.351 . S
C1472 C1473 1.434 . S
C1473 C1464 1.429 . S
C1473 N1470 1.350 . S
C1473 C1472 1.434 . S
C1474 C1475 1.369 . S
C1474 C1476 1.419 . S
C1474 H1478 0.930 . S
C1475 C1474 1.369 . S
C1475 C1484 1.429 . S
C1476 C1474 1.419 . S
C1476 C1477 1.363 . S
C1476 H1479 0.929 . S
C1477 C1476 1.363 . S
C1477 C1483 1.428 . S
H1478 C1474 0.930 . S
H1479 C1476 0.929 . S
S1480 N1481 1.613 . S
S1480 N1482 1.610 . S
N1481 S1480 1.613 . S
N1481 C1484 1.350 . S
N1482 S1480 1.610 . S
N1482 C1483 1.351 . S
C1483 C1477 1.428 . S
C1483 N1482 1.351 . S
C1483 C1484 1.434 . S
C1484 C1475 1.429 . S
C1484 N1481 1.350 . S
C1484 C1483 1.434 . S
C1485 C1486 1.369 . S
C1485 C1487 1.419 . S
C1485 H1489 0.930 . S
C1486 C1485 1.369 . S
C1486 C1495 1.429 . S
C1487 C1485 1.419 . S
C1487 C1488 1.363 . S
C1487 H1490 0.929 . S
C1488 C1487 1.363 . S
C1488 C1494 1.428 . S
H1489 C1485 0.930 . S
H1490 C1487 0.929 . S
S1491 N1492 1.613 . S
S1491 N1493 1.610 . S
N1492 S1491 1.613 . S
N1492 C1495 1.350 . S
N1493 S1491 1.610 . S
N1493 C1494 1.351 . S
C1494 C1488 1.428 . S
C1494 N1493 1.351 . S
C1494 C1495 1.434 . S
C1495 C1486 1.429 . S
C1495 N1492 1.350 . S
C1495 C1494 1.434 . S
C1496 C1497 1.369 . S
C1496 C1498 1.419 1_565 S
C1496 H1500 0.930 . S
C1497 C1496 1.369 . S
C1497 C1506 1.429 . S
C1498 C1496 1.419 1_545 S
C1498 C1499 1.363 . S
C1498 H1501 0.929 . S
C1499 C1498 1.363 . S
C1499 C1505 1.428 . S
H1500 C1496 0.930 . S
H1501 C1498 0.929 . S
S1502 N1503 1.613 . S
S1502 N1504 1.610 1_565 S
N1503 S1502 1.613 . S
N1503 C1506 1.350 . S
N1504 S1502 1.610 1_545 S
N1504 C1505 1.351 . S
C1505 C1499 1.428 . S
C1505 N1504 1.351 . S
C1505 C1506 1.434 1_545 S
C1506 C1497 1.429 . S
C1506 N1503 1.350 . S
C1506 C1505 1.434 1_565 S
C1507 C1508 1.369 . S
C1507 C1509 1.419 . S
C1507 H1511 0.930 . S
C1508 C1507 1.369 . S
C1508 C1517 1.429 . S
C1509 C1507 1.419 . S
C1509 C1510 1.363 . S
C1509 H1512 0.929 . S
C1510 C1509 1.363 . S
C1510 C1516 1.428 . S
H1511 C1507 0.930 . S
H1512 C1509 0.929 . S
S1513 N1514 1.613 . S
S1513 N1515 1.610 . S
N1514 S1513 1.613 . S
N1514 C1517 1.350 . S
N1515 S1513 1.610 . S
N1515 C1516 1.351 . S
C1516 C1510 1.428 . S
C1516 N1515 1.351 . S
C1516 C1517 1.434 . S
C1517 C1508 1.429 . S
C1517 N1514 1.350 . S
C1517 C1516 1.434 . S
C1518 C1519 1.369 . S
C1518 C1520 1.401 1_556 S
C1518 H1522 0.930 . S
C1519 C1518 1.369 . S
C1519 C1528 1.429 . S
C1520 C1518 1.401 1_554 S
C1520 C1521 1.381 . S
C1520 H1523 0.929 . S
C1521 C1520 1.381 . S
C1521 C1527 1.428 . S
H1522 C1518 0.930 . S
H1523 C1520 0.929 . S
S1524 N1525 1.599 1_554 S
S1524 N1526 1.610 . S
N1525 S1524 1.599 1_556 S
N1525 C1528 1.351 . S
N1526 S1524 1.610 . S
N1526 C1527 1.351 . S
C1527 C1521 1.428 . S
C1527 N1526 1.351 . S
C1527 C1528 1.434 1_554 S
C1528 C1519 1.429 . S
C1528 N1525 1.351 . S
C1528 C1527 1.434 1_556 S
C1529 C1530 1.369 . S
C1529 C1531 1.393 1_554 S
C1529 H1533 0.930 . S
C1530 C1529 1.369 . S
C1530 C1539 1.404 1_554 S
C1531 C1529 1.393 1_556 S
C1531 C1532 1.390 . S
C1531 H1534 0.929 . S
C1532 C1531 1.390 . S
C1532 C1538 1.428 . S
H1533 C1529 0.930 . S
H1534 C1531 0.929 . S
S1535 N1536 1.613 . S
S1535 N1537 1.610 . S
N1536 S1535 1.613 . S
N1536 C1539 1.356 . S
N1537 S1535 1.610 . S
N1537 C1538 1.351 . S
C1538 C1532 1.428 . S
C1538 N1537 1.351 . S
C1538 C1539 1.458 . S
C1539 C1530 1.404 1_556 S
C1539 N1536 1.356 . S
C1539 C1538 1.458 . S
C1540 C1541 1.369 . S
C1540 C1542 1.419 . S
C1540 H1544 0.930 . S
C1541 C1540 1.369 . S
C1541 C1550 1.429 . S
C1542 C1540 1.419 . S
C1542 C1543 1.363 . S
C1542 H1545 0.929 . S
C1543 C1542 1.363 . S
C1543 C1549 1.428 . S
H1544 C1540 0.930 . S
H1545 C1542 0.929 . S
S1546 N1547 1.613 . S
S1546 N1548 1.610 . S
N1547 S1546 1.613 . S
N1547 C1550 1.350 . S
N1548 S1546 1.610 . S
N1548 C1549 1.351 . S
C1549 C1543 1.428 . S
C1549 N1548 1.351 . S
C1549 C1550 1.434 . S
C1550 C1541 1.429 . S
C1550 N1547 1.350 . S
C1550 C1549 1.434 . S
C1551 C1552 1.369 . S
C1551 C1553 1.419 . S
C1551 H1555 0.930 . S
C1552 C1551 1.369 . S
C1552 C1561 1.429 . S
C1553 C1551 1.419 . S
C1553 C1554 1.363 . S
C1553 H1556 0.929 . S
C1554 C1553 1.363 . S
C1554 C1560 1.428 . S
H1555 C1551 0.930 . S
H1556 C1553 0.929 . S
S1557 N1558 1.613 . S
S1557 N1559 1.610 . S
N1558 S1557 1.613 . S
N1558 C1561 1.350 . S
N1559 S1557 1.610 . S
N1559 C1560 1.351 . S
C1560 C1554 1.428 . S
C1560 N1559 1.351 . S
C1560 C1561 1.434 . S
C1561 C1552 1.429 . S
C1561 N1558 1.350 . S
C1561 C1560 1.434 . S
C1562 C1563 1.369 . S
C1562 C1564 1.419 . S
C1562 H1566 0.930 . S
C1563 C1562 1.369 . S
C1563 C1572 1.429 1_655 S
C1564 C1562 1.419 . S
C1564 C1565 1.363 1_655 S
C1564 H1567 0.929 . S
C1565 C1564 1.363 1_455 S
C1565 C1571 1.428 . S
H1566 C1562 0.930 . S
H1567 C1564 0.929 . S
S1568 N1569 1.613 . S
S1568 N1570 1.610 . S
N1569 S1568 1.613 . S
N1569 C1572 1.350 . S
N1570 S1568 1.610 . S
N1570 C1571 1.351 . S
C1571 C1565 1.428 . S
C1571 N1570 1.351 . S
C1571 C1572 1.434 . S
C1572 C1563 1.429 1_455 S
C1572 N1569 1.350 . S
C1572 C1571 1.434 . S
C1573 C1574 1.369 . S
C1573 C1575 1.419 . S
C1573 H1577 0.930 . S
C1574 C1573 1.369 . S
C1574 C1583 1.429 1_655 S
C1575 C1573 1.419 . S
C1575 C1576 1.363 1_655 S
C1575 H1578 0.929 . S
C1576 C1575 1.363 1_455 S
C1576 C1582 1.428 . S
H1577 C1573 0.930 . S
H1578 C1575 0.929 . S
S1579 N1580 1.613 . S
S1579 N1581 1.610 . S
N1580 S1579 1.613 . S
N1580 C1583 1.350 . S
N1581 S1579 1.610 . S
N1581 C1582 1.351 . S
C1582 C1576 1.428 . S
C1582 N1581 1.351 . S
C1582 C1583 1.434 . S
C1583 C1574 1.429 1_455 S
C1583 N1580 1.350 . S
C1583 C1582 1.434 . S
C1584 C1585 1.369 . S
C1584 C1586 1.419 . S
C1584 H1588 0.930 . S
C1585 C1584 1.369 . S
C1585 C1594 1.429 . S
C1586 C1584 1.419 . S
C1586 C1587 1.363 . S
C1586 H1589 0.929 . S
C1587 C1586 1.363 . S
C1587 C1593 1.428 . S
H1588 C1584 0.930 . S
H1589 C1586 0.929 . S
S1590 N1591 1.613 . S
S1590 N1592 1.610 . S
N1591 S1590 1.613 . S
N1591 C1594 1.350 . S
N1592 S1590 1.610 . S
N1592 C1593 1.351 . S
C1593 C1587 1.428 . S
C1593 N1592 1.351 . S
C1593 C1594 1.434 . S
C1594 C1585 1.429 . S
C1594 N1591 1.350 . S
C1594 C1593 1.434 . S
C1595 C1596 1.369 . S
C1595 C1597 1.419 1_545 S
C1595 H1599 0.930 . S
C1596 C1595 1.369 . S
C1596 C1605 1.429 . S
C1597 C1595 1.419 1_565 S
C1597 C1598 1.363 . S
C1597 H1600 0.929 . S
C1598 C1597 1.363 . S
C1598 C1604 1.428 . S
H1599 C1595 0.930 . S
H1600 C1597 0.929 . S
S1601 N1602 1.613 1_565 S
S1601 N1603 1.610 . S
N1602 S1601 1.613 1_545 S
N1602 C1605 1.350 . S
N1603 S1601 1.610 . S
N1603 C1604 1.351 . S
C1604 C1598 1.428 . S
C1604 N1603 1.351 . S
C1604 C1605 1.434 1_565 S
C1605 C1596 1.429 . S
C1605 N1602 1.350 . S
C1605 C1604 1.434 1_545 S
C1606 C1607 1.369 . S
C1606 C1608 1.419 . S
C1606 H1610 0.930 . S
C1607 C1606 1.369 . S
C1607 C1616 1.429 . S
C1608 C1606 1.419 . S
C1608 C1609 1.363 . S
C1608 H1611 0.929 . S
C1609 C1608 1.363 . S
C1609 C1615 1.428 . S
H1610 C1606 0.930 . S
H1611 C1608 0.929 . S
S1612 N1613 1.613 . S
S1612 N1614 1.610 . S
N1613 S1612 1.613 . S
N1613 C1616 1.350 . S
N1614 S1612 1.610 . S
N1614 C1615 1.351 . S
C1615 C1609 1.428 . S
C1615 N1614 1.351 . S
C1615 C1616 1.434 . S
C1616 C1607 1.429 . S
C1616 N1613 1.350 . S
C1616 C1615 1.434 . S
C1617 C1618 1.369 . S
C1617 C1619 1.419 . S
C1617 H1621 0.930 . S
C1618 C1617 1.369 . S
C1618 C1627 1.429 1_554 S
C1619 C1617 1.419 . S
C1619 C1620 1.363 1_554 S
C1619 H1622 0.929 . S
C1620 C1619 1.363 1_556 S
C1620 C1626 1.428 . S
H1621 C1617 0.930 . S
H1622 C1619 0.929 . S
S1623 N1624 1.613 . S
S1623 N1625 1.610 . S
N1624 S1623 1.613 . S
N1624 C1627 1.350 . S
N1625 S1623 1.610 . S
N1625 C1626 1.351 . S
C1626 C1620 1.428 . S
C1626 N1625 1.351 . S
C1626 C1627 1.434 . S
C1627 C1618 1.429 1_556 S
C1627 N1624 1.350 . S
C1627 C1626 1.434 . S
C1628 C1629 1.369 . S
C1628 C1630 1.419 . S
C1628 H1632 0.930 . S
C1629 C1628 1.369 . S
C1629 C1638 1.429 1_556 S
C1630 C1628 1.419 . S
C1630 C1631 1.363 1_556 S
C1630 H1633 0.929 . S
C1631 C1630 1.363 1_554 S
C1631 C1637 1.428 . S
H1632 C1628 0.930 . S
H1633 C1630 0.929 . S
S1634 N1635 1.613 . S
S1634 N1636 1.610 . S
N1635 S1634 1.613 . S
N1635 C1638 1.350 . S
N1636 S1634 1.610 . S
N1636 C1637 1.351 . S
C1637 C1631 1.428 . S
C1637 N1636 1.351 . S
C1637 C1638 1.434 . S
C1638 C1629 1.429 1_554 S
C1638 N1635 1.350 . S
C1638 C1637 1.434 . S
C1639 C1640 1.369 . S
C1639 C1641 1.419 . S
C1639 H1643 0.930 . S
C1640 C1639 1.369 . S
C1640 C1649 1.429 . S
C1641 C1639 1.419 . S
C1641 C1642 1.363 . S
C1641 H1644 0.929 . S
C1642 C1641 1.363 . S
C1642 C1648 1.428 . S
H1643 C1639 0.930 . S
H1644 C1641 0.929 . S
S1645 N1646 1.613 . S
S1645 N1647 1.610 . S
N1646 S1645 1.613 . S
N1646 C1649 1.350 . S
N1647 S1645 1.610 . S
N1647 C1648 1.351 . S
C1648 C1642 1.428 . S
C1648 N1647 1.351 . S
C1648 C1649 1.434 . S
C1649 C1640 1.429 . S
C1649 N1646 1.350 . S
C1649 C1648 1.434 . S
C1650 C1651 1.369 . S
C1650 C1652 1.419 . S
C1650 H1654 0.930 . S
C1651 C1650 1.369 . S
C1651 C1660 1.429 . S
C1652 C1650 1.419 . S
C1652 C1653 1.363 . S
C1652 H1655 0.929 . S
C1653 C1652 1.363 . S
C1653 C1659 1.428 . S
H1654 C1650 0.930 . S
H1655 C1652 0.929 . S
S1656 N1657 1.613 . S
S1656 N1658 1.610 . S
N1657 S1656 1.613 . S
N1657 C1660 1.350 . S
N1658 S1656 1.610 . S
N1658 C1659 1.351 . S
C1659 C1653 1.428 . S
C1659 N1658 1.351 . S
C1659 C1660 1.434 . S
C1660 C1651 1.429 . S
C1660 N1657 1.350 . S
C1660 C1659 1.434 . S
C1661 C1662 1.369 . S
C1661 C1663 1.419 1_455 S
C1661 H1665 0.930 . S
C1662 C1661 1.369 . S
C1662 C1671 1.429 . S
C1663 C1661 1.419 1_655 S
C1663 C1664 1.363 . S
C1663 H1666 0.929 . S
C1664 C1663 1.363 . S
C1664 C1670 1.450 . S
H1665 C1661 0.930 . S
H1666 C1663 0.929 . S
S1667 N1668 1.613 . S
S1667 N1669 1.612 1_455 S
N1668 S1667 1.613 . S
N1668 C1671 1.350 . S
N1669 S1667 1.612 1_655 S
N1669 C1670 1.350 . S
C1670 C1664 1.450 . S
C1670 N1669 1.350 . S
C1670 C1671 1.412 1_655 S
C1671 C1662 1.429 . S
C1671 N1668 1.350 . S
C1671 C1670 1.412 1_455 S
C1672 C1673 1.369 . S
C1672 C1674 1.419 . S
C1672 H1676 0.930 . S
C1673 C1672 1.369 . S
C1673 C1682 1.429 1_455 S
C1674 C1672 1.419 . S
C1674 C1675 1.363 1_455 S
C1674 H1677 0.929 . S
C1675 C1674 1.363 1_655 S
C1675 C1681 1.428 . S
H1676 C1672 0.930 . S
H1677 C1674 0.929 . S
S1678 N1679 1.613 . S
S1678 N1680 1.610 . S
N1679 S1678 1.613 . S
N1679 C1682 1.350 . S
N1680 S1678 1.610 . S
N1680 C1681 1.351 . S
C1681 C1675 1.428 . S
C1681 N1680 1.351 . S
C1681 C1682 1.434 . S
C1682 C1673 1.429 1_655 S
C1682 N1679 1.350 . S
C1682 C1681 1.434 . S
C1683 C1684 1.369 . S
C1683 C1685 1.419 . S
C1683 H1687 0.930 . S
C1684 C1683 1.369 . S
C1684 C1693 1.429 . S
C1685 C1683 1.419 . S
C1685 C1686 1.363 . S
C1685 H1688 0.929 . S
C1686 C1685 1.363 . S
C1686 C1692 1.428 . S
H1687 C1683 0.930 . S
H1688 C1685 0.929 . S
S1689 N1690 1.613 . S
S1689 N1691 1.610 . S
N1690 S1689 1.613 . S
N1690 C1693 1.350 . S
N1691 S1689 1.610 . S
N1691 C1692 1.351 . S
C1692 C1686 1.428 . S
C1692 N1691 1.351 . S
C1692 C1693 1.434 . S
C1693 C1684 1.429 . S
C1693 N1690 1.350 . S
C1693 C1692 1.434 . S
C1694 C1695 1.369 . S
C1694 C1696 1.419 . S
C1694 H1698 0.930 . S
C1695 C1694 1.369 . S
C1695 C1704 1.429 . S
C1696 C1694 1.419 . S
C1696 C1697 1.363 . S
C1696 H1699 0.929 . S
C1697 C1696 1.363 . S
C1697 C1703 1.428 . S
H1698 C1694 0.930 . S
H1699 C1696 0.929 . S
S1700 N1701 1.613 . S
S1700 N1702 1.610 . S
N1701 S1700 1.613 . S
N1701 C1704 1.350 . S
N1702 S1700 1.610 . S
N1702 C1703 1.351 . S
C1703 C1697 1.428 . S
C1703 N1702 1.351 . S
C1703 C1704 1.434 . S
C1704 C1695 1.429 . S
C1704 N1701 1.350 . S
C1704 C1703 1.434 . S
C1705 C1706 1.354 1_565 S
C1705 C1707 1.432 . S
C1705 H1709 0.932 . S
C1706 C1705 1.354 1_545 S
C1706 C1715 1.429 . S
C1707 C1705 1.432 . S
C1707 C1708 1.363 . S
C1707 H1710 0.929 . S
C1708 C1707 1.363 . S
C1708 C1714 1.428 1_565 S
H1709 C1705 0.932 . S
H1710 C1707 0.929 . S
S1711 N1712 1.613 . S
S1711 N1713 1.610 . S
N1712 S1711 1.613 . S
N1712 C1715 1.350 . S
N1713 S1711 1.610 . S
N1713 C1714 1.351 . S
C1714 C1708 1.428 1_545 S
C1714 N1713 1.351 . S
C1714 C1715 1.434 . S
C1715 C1706 1.429 . S
C1715 N1712 1.350 . S
C1715 C1714 1.434 . S
C1716 C1717 1.369 . S
C1716 C1718 1.419 . S
C1716 H1720 0.930 . S
C1717 C1716 1.369 . S
C1717 C1726 1.429 . S
C1718 C1716 1.419 . S
C1718 C1719 1.363 . S
C1718 H1721 0.929 . S
C1719 C1718 1.363 . S
C1719 C1725 1.428 . S
H1720 C1716 0.930 . S
H1721 C1718 0.929 . S
S1722 N1723 1.613 . S
S1722 N1724 1.610 . S
N1723 S1722 1.613 . S
N1723 C1726 1.350 . S
N1724 S1722 1.610 . S
N1724 C1725 1.351 . S
C1725 C1719 1.428 . S
C1725 N1724 1.351 . S
C1725 C1726 1.434 . S
C1726 C1717 1.429 . S
C1726 N1723 1.350 . S
C1726 C1725 1.434 . S
C1727 C1728 1.369 . S
C1727 C1729 1.419 . S
C1727 H1731 0.930 . S
C1728 C1727 1.369 . S
C1728 C1737 1.429 . S
C1729 C1727 1.419 . S
C1729 C1730 1.363 . S
C1729 H1732 0.929 . S
C1730 C1729 1.363 . S
C1730 C1736 1.428 . S
H1731 C1727 0.930 . S
H1732 C1729 0.929 . S
S1733 N1734 1.613 . S
S1733 N1735 1.610 . S
N1734 S1733 1.613 . S
N1734 C1737 1.350 . S
N1735 S1733 1.610 . S
N1735 C1736 1.351 . S
C1736 C1730 1.428 . S
C1736 N1735 1.351 . S
C1736 C1737 1.434 . S
C1737 C1728 1.429 . S
C1737 N1734 1.350 . S
C1737 C1736 1.434 . S
C1738 C1739 1.369 . S
C1738 C1740 1.419 . S
C1738 H1742 0.930 . S
C1739 C1738 1.369 . S
C1739 C1748 1.429 1_545 S
C1740 C1738 1.419 . S
C1740 C1741 1.363 1_545 S
C1740 H1743 0.929 . S
C1741 C1740 1.363 1_565 S
C1741 C1747 1.428 . S
H1742 C1738 0.930 . S
H1743 C1740 0.929 . S
S1744 N1745 1.613 . S
S1744 N1746 1.610 . S
N1745 S1744 1.613 . S
N1745 C1748 1.350 . S
N1746 S1744 1.610 . S
N1746 C1747 1.351 . S
C1747 C1741 1.428 . S
C1747 N1746 1.351 . S
C1747 C1748 1.434 . S
C1748 C1739 1.429 1_565 S
C1748 N1745 1.350 . S
C1748 C1747 1.434 . S
C1749 C1750 1.369 . S
C1749 C1751 1.419 . S
C1749 H1753 0.930 . S
C1750 C1749 1.369 . S
C1750 C1759 1.429 . S
C1751 C1749 1.419 . S
C1751 C1752 1.363 . S
C1751 H1754 0.929 . S
C1752 C1751 1.363 . S
C1752 C1758 1.428 . S
H1753 C1749 0.930 . S
H1754 C1751 0.929 . S
S1755 N1756 1.613 . S
S1755 N1757 1.610 . S
N1756 S1755 1.613 . S
N1756 C1759 1.350 . S
N1757 S1755 1.610 . S
N1757 C1758 1.351 . S
C1758 C1752 1.428 . S
C1758 N1757 1.351 . S
C1758 C1759 1.434 . S
C1759 C1750 1.429 . S
C1759 N1756 1.350 . S
C1759 C1758 1.434 . S
C1409 C29 0.806 . S
C1411 C1201 0.806 . S
C1420 C108 0.806 . S
C1422 C821 0.807 . S
C1431 C1252 0.795 . S
C1433 C225 0.795 . S
C1442 C321 0.795 . S
C1444 C1349 0.795 . S
C1453 C372 0.807 . S
C1455 C557 0.807 . S
C1464 C909 0.807 . S
C1466 C489 0.807 . S
C1475 C1017 0.796 . S
C1477 C636 0.795 . S
C1486 C733 0.795 . S
C1488 C1113 0.795 . S
C1497 C196 1.761 . S
C1499 C57 1.763 . S
C1508 C137 1.757 . S
C1510 C293 1.764 . S
C1519 C1076 1.769 . S
C1521 C49 1.769 . S
C1530 C145 1.770 . S
C1532 C997 1.766 . S
C1541 C409 1.768 . S
C1543 C205 1.769 . S
C1552 C929 1.771 . S
C1554 C284 1.766 . S
C1563 C117 1.766 . S
C1565 C20 1.763 . S
C1574 C313 1.739 . S
C1576 C233 1.734 . S
C1585 C900 1.761 . S
C1587 C381 1.767 . S
C1596 C645 1.753 . S
C1598 C469 1.752 . S
C1607 C577 1.749 . S
C1609 C724 1.757 . S
C1618 C1369 1.767 . S
C1620 C460 1.749 . S
C1629 C585 1.755 . S
C1631 C1289 1.762 . S
C1640 C849 1.749 . S
C1642 C673 1.767 . S
C1651 C753 1.762 . S
C1653 C1173 1.753 . S
C1662 C548 1.770 . S
C1664 C497 1.770 . S
C1673 C761 1.766 . S
C1675 C665 1.765 . S
C1684 C812 1.767 . S
C1686 C1193 1.769 . S
C1695 C937 1.763 . S
C1697 C988 1.759 . S
C1706 C1085 1.759 . S
C1708 C401 1.764 . S
C1717 C1105 1.733 . S
C1719 C1025 1.738 . S
C1728 C1261 1.751 . S
C1730 C1164 1.755 . S
C1739 C841 1.755 . S
C1741 C1340 1.752 . S
C1750 C1377 1.764 . S
C1752 C1281 1.766 . S
