# Generated by pormake.
# Topology ukk, (4)-cn, num edge types: 1
# Building blocks:
#     Node 0, Type 0, BuildingBlock: KOZSID_clean_sbu_0, # of connection points: 4
#     Node 1, Type 0, BuildingBlock: KOZSID_clean_sbu_0, # of connection points: 4
#     Node 2, Type 0, BuildingBlock: KOZSID_clean_sbu_0, # of connection points: 4
#     Node 3, Type 0, BuildingBlock: KOZSID_clean_sbu_0, # of connection points: 4
#     Node 4, Type 0, BuildingBlock: KOZSID_clean_sbu_0, # of connection points: 4
#     Node 5, Type 0, BuildingBlock: KOZSID_clean_sbu_0, # of connection points: 4
#     Node 6, Type 0, BuildingBlock: KOZSID_clean_sbu_0, # of connection points: 4
#     Node 7, Type 0, BuildingBlock: KOZSID_clean_sbu_0, # of connection points: 4
#     Node 8, Type 0, BuildingBlock: KOZSID_clean_sbu_0, # of connection points: 4
#     Node 9, Type 0, BuildingBlock: KOZSID_clean_sbu_0, # of connection points: 4
#     Node 10, Type 0, BuildingBlock: KOZSID_clean_sbu_0, # of connection points: 4
#     Node 11, Type 0, BuildingBlock: KOZSID_clean_sbu_0, # of connection points: 4
#     Node 12, Type 0, BuildingBlock: KOZSID_clean_sbu_0, # of connection points: 4
#     Node 13, Type 0, BuildingBlock: KOZSID_clean_sbu_0, # of connection points: 4
#     Node 14, Type 0, BuildingBlock: KOZSID_clean_sbu_0, # of connection points: 4
#     Node 15, Type 0, BuildingBlock: KOZSID_clean_sbu_0, # of connection points: 4
#     Edge 16, Type (0, 0), BuildingBlock: KIFKEQ_clean_linker_1, # of connection points: 2
#     Edge 17, Type (0, 0), BuildingBlock: KIFKEQ_clean_linker_1, # of connection points: 2
#     Edge 18, Type (0, 0), BuildingBlock: KIFKEQ_clean_linker_1, # of connection points: 2
#     Edge 19, Type (0, 0), BuildingBlock: KIFKEQ_clean_linker_1, # of connection points: 2
#     Edge 20, Type (0, 0), BuildingBlock: KIFKEQ_clean_linker_1, # of connection points: 2
#     Edge 21, Type (0, 0), BuildingBlock: KIFKEQ_clean_linker_1, # of connection points: 2
#     Edge 22, Type (0, 0), BuildingBlock: KIFKEQ_clean_linker_1, # of connection points: 2
#     Edge 23, Type (0, 0), BuildingBlock: KIFKEQ_clean_linker_1, # of connection points: 2
#     Edge 24, Type (0, 0), BuildingBlock: KIFKEQ_clean_linker_1, # of connection points: 2
#     Edge 25, Type (0, 0), BuildingBlock: KIFKEQ_clean_linker_1, # of connection points: 2
#     Edge 26, Type (0, 0), BuildingBlock: KIFKEQ_clean_linker_1, # of connection points: 2
#     Edge 27, Type (0, 0), BuildingBlock: KIFKEQ_clean_linker_1, # of connection points: 2
#     Edge 28, Type (0, 0), BuildingBlock: KIFKEQ_clean_linker_1, # of connection points: 2
#     Edge 29, Type (0, 0), BuildingBlock: KIFKEQ_clean_linker_1, # of connection points: 2
#     Edge 30, Type (0, 0), BuildingBlock: KIFKEQ_clean_linker_1, # of connection points: 2
#     Edge 31, Type (0, 0), BuildingBlock: KIFKEQ_clean_linker_1, # of connection points: 2
#     Edge 32, Type (0, 0), BuildingBlock: KIFKEQ_clean_linker_1, # of connection points: 2
#     Edge 33, Type (0, 0), BuildingBlock: KIFKEQ_clean_linker_1, # of connection points: 2
#     Edge 34, Type (0, 0), BuildingBlock: KIFKEQ_clean_linker_1, # of connection points: 2
#     Edge 35, Type (0, 0), BuildingBlock: KIFKEQ_clean_linker_1, # of connection points: 2
#     Edge 36, Type (0, 0), BuildingBlock: KIFKEQ_clean_linker_1, # of connection points: 2
#     Edge 37, Type (0, 0), BuildingBlock: KIFKEQ_clean_linker_1, # of connection points: 2
#     Edge 38, Type (0, 0), BuildingBlock: KIFKEQ_clean_linker_1, # of connection points: 2
#     Edge 39, Type (0, 0), BuildingBlock: KIFKEQ_clean_linker_1, # of connection points: 2
#     Edge 40, Type (0, 0), BuildingBlock: KIFKEQ_clean_linker_1, # of connection points: 2
#     Edge 41, Type (0, 0), BuildingBlock: KIFKEQ_clean_linker_1, # of connection points: 2
#     Edge 42, Type (0, 0), BuildingBlock: KIFKEQ_clean_linker_1, # of connection points: 2
#     Edge 43, Type (0, 0), BuildingBlock: KIFKEQ_clean_linker_1, # of connection points: 2
#     Edge 44, Type (0, 0), BuildingBlock: KIFKEQ_clean_linker_1, # of connection points: 2
#     Edge 45, Type (0, 0), BuildingBlock: KIFKEQ_clean_linker_1, # of connection points: 2
#     Edge 46, Type (0, 0), BuildingBlock: KIFKEQ_clean_linker_1, # of connection points: 2
#     Edge 47, Type (0, 0), BuildingBlock: KIFKEQ_clean_linker_1, # of connection points: 2
# Relax obj value: 0.060
# Max RMSD: 0.202
# Mean RMSD: 0.202
data_MOF--net-ukk--node1-KOZSID_clean_sbu_0--edge1-KIFKEQ_clean_linker_1
_symmetry_space_group_name_H-M    P1
_symmetry_Int_Tables_number       1
_symmetry_cell_setting            triclinic
loop_
_symmetry_equiv_pos_as_xyz
'x, y, z'
_cell_length_a     66.02094
_cell_length_b     66.037862
_cell_length_c     26.617695
_cell_angle_alpha  89.990429
_cell_angle_beta   89.973215
_cell_angle_gamma 89.99643
loop_
_atom_site_label
_atom_site_type_symbol
_atom_site_fract_x
_atom_site_fract_y
_atom_site_fract_z
_atom_type_partial_charge
C0 C 0.36757 0.0929 0.17789 0.0
C1 C 0.35536 0.08596 0.21678 0.0
C2 C 0.34358 0.10196 0.23153 0.0
C3 C 0.34934 0.1178 0.20138 0.0
N4 N 0.36411 0.11283 0.16879 0.0
Co5 Co 0.37712 0.13151 0.11986 0.0
N6 N 0.3671 0.15582 0.15614 0.0
C7 C 0.35163 0.15607 0.18915 0.0
C8 C 0.34719 0.17508 0.2066 0.0
C9 C 0.36059 0.18767 0.18286 0.0
C10 C 0.37264 0.17555 0.1523 0.0
N11 N 0.39017 0.15027 0.07114 0.0
C12 C 0.39428 0.17041 0.07496 0.0
C13 C 0.40405 0.17729 0.03204 0.0
C14 C 0.40553 0.16107 0.99997 0.0
C15 C 0.39682 0.14513 0.02506 0.0
N16 N 0.38683 0.10705 0.08361 0.0
C17 C 0.39336 0.10662 0.03574 0.0
C18 C 0.39898 0.08755 0.02049 0.0
C19 C 0.39567 0.07523 0.06128 0.0
C20 C 0.38825 0.08751 0.09933 0.0
N21 N 0.35225 0.13144 0.07801 0.0
C22 C 0.31953 0.13088 0.00902 0.0
C23 C 0.32584 0.11318 0.03386 0.0
C24 C 0.34218 0.11376 0.06783 0.0
C25 C 0.3296 0.14896 0.02116 0.0
C26 C 0.34566 0.14895 0.05576 0.0
N27 N 0.40219 0.13155 0.1603 0.0
C28 C 0.43856 0.12762 0.1637 0.0
C29 C 0.43872 0.13106 0.21562 0.0
C30 C 0.42007 0.13498 0.23925 0.0
C31 C 0.40198 0.13497 0.21104 0.0
C32 C 0.42034 0.1281 0.13693 0.0
H33 H 0.38784 0.13768 0.23025 0.0
H34 H 0.42105 0.12566 0.09702 0.0
H35 H 0.34698 0.09974 0.08489 0.0
H36 H 0.35302 0.16316 0.06356 0.0
C37 C 0.34368 0.138 0.20799 0.0
C38 C 0.38126 0.07993 0.14839 0.0
C39 C 0.38777 0.18358 0.11688 0.0
C40 C 0.3973 0.12475 0.01004 0.0
H41 H 0.35493 0.07094 0.23293 0.0
H42 H 0.33271 0.10221 0.26198 0.0
H43 H 0.33588 0.17926 0.23415 0.0
H44 H 0.36111 0.20396 0.18698 0.0
H45 H 0.40947 0.19243 0.0244 0.0
H46 H 0.41273 0.16082 0.96344 0.0
H47 H 0.40545 0.08322 0.9847 0.0
H48 H 0.39831 0.05906 0.06281 0.0
H49 H 0.31865 0.0988 0.0259 0.0
H50 H 0.32513 0.16313 1.00393 0.0
H51 H 0.45253 0.12487 0.1435 0.0
H52 H 0.4194 0.13769 0.27934 0.0
C53 C 0.08927 0.63361 0.91112 0.0
C54 C 0.07807 0.62481 0.94947 0.0
C55 C 0.09104 0.62223 0.98931 0.0
C56 C 0.10945 0.6294 0.97314 0.0
N57 N 0.10887 0.6362 0.92554 0.0
Co58 Co 0.13237 0.64697 0.8871 0.0
N59 N 0.1524 0.63502 0.93433 0.0
C60 C 0.14823 0.62835 0.98101 0.0
C61 C 0.16488 0.62037 1.0047 0.0
C62 C 0.18052 0.62237 0.97108 0.0
C63 C 0.17262 0.63172 0.92866 0.0
N64 N 0.15566 0.65774 0.84809 0.0
C65 C 0.17562 0.65282 0.84968 0.0
C66 C 0.18675 0.66516 0.81756 0.0
C67 C 0.17331 0.67814 0.79532 0.0
C68 C 0.15478 0.67317 0.81508 0.0
N69 N 0.1125 0.65919 0.84015 0.0
C70 C 0.11624 0.67462 0.80844 0.0
C71 C 0.09948 0.68048 0.78167 0.0
C72 C 0.0842 0.66801 0.7977 0.0
C73 C 0.09257 0.65512 0.83333 0.0
N74 N 0.13189 0.67191 0.92861 0.0
C75 C 0.13127 0.70498 0.9971 0.0
C76 C 0.14958 0.69677 0.97908 0.0
C77 C 0.14956 0.68029 0.94568 0.0
C78 C 0.11326 0.69646 0.97804 0.0
C79 C 0.11391 0.68028 0.94368 0.0
N80 N 0.13278 0.62182 0.84706 0.0
C81 C 0.13341 0.60387 0.76778 0.0
C82 C 0.13214 0.58504 0.7925 0.0
C83 C 0.13156 0.58528 0.84517 0.0
C84 C 0.13181 0.6036 0.87139 0.0
C85 C 0.13372 0.62204 0.79568 0.0
H86 H 0.13112 0.60291 0.91171 0.0
H87 H 0.13454 0.63626 0.77576 0.0
H88 H 0.16398 0.67412 0.93445 0.0
H89 H 0.09974 0.67419 0.93036 0.0
C90 C 0.1281 0.62662 0.99745 0.0
C91 C 0.0808 0.64035 0.86256 0.0
C92 C 0.18484 0.63836 0.88507 0.0
C93 C 0.13612 0.68087 0.79922 0.0
H94 H 0.06225 0.62058 0.94886 0.0
H95 H 0.08764 0.61508 0.02492 0.0
H96 H 0.16543 0.61315 0.04118 0.0
H97 H 0.19593 0.61742 0.97728 0.0
H98 H 0.20297 0.66519 0.81171 0.0
H99 H 0.17662 0.68962 0.76747 0.0
H100 H 0.0986 0.69199 0.7528 0.0
H101 H 0.06864 0.66853 0.78499 0.0
H102 H 0.16404 0.70287 0.99063 0.0
H103 H 0.09859 0.70178 0.99036 0.0
H104 H 0.13382 0.60465 0.72717 0.0
H105 H 0.13111 0.57133 0.86651 0.0
C106 C 0.65532 0.93071 0.18095 0.0
C107 C 0.66658 0.93763 0.22158 0.0
C108 C 0.67786 0.92161 0.23825 0.0
C109 C 0.67275 0.90576 0.20752 0.0
N110 N 0.65883 0.91072 0.17267 0.0
Co111 Co 0.64665 0.8919 0.12271 0.0
N112 N 0.65602 0.86763 0.16042 0.0
C113 C 0.67042 0.86746 0.19623 0.0
C114 C 0.67386 0.84857 0.21589 0.0
C115 C 0.66096 0.83598 0.19061 0.0
C116 C 0.65037 0.84793 0.15659 0.0
N117 N 0.63444 0.87303 0.07295 0.0
C118 C 0.63073 0.8528 0.07607 0.0
C119 C 0.62261 0.84558 0.03148 0.0
C120 C 0.6214 0.86181 0.99934 0.0
C121 C 0.62883 0.87801 0.02594 0.0
N122 N 0.63751 0.91629 0.08514 0.0
C123 C 0.63178 0.91656 0.03664 0.0
C124 C 0.62655 0.93559 0.02029 0.0
C125 C 0.62931 0.94807 0.06098 0.0
C126 C 0.63603 0.93593 0.10009 0.0
N127 N 0.67218 0.89189 0.08327 0.0
C128 C 0.70564 0.89229 0.01589 0.0
C129 C 0.69886 0.91008 0.03985 0.0
C130 C 0.68223 0.90956 0.07304 0.0
C131 C 0.69554 0.87421 0.0284 0.0
C132 C 0.67917 0.87431 0.06215 0.0
N133 N 0.62093 0.89187 0.16064 0.0
C134 C 0.58444 0.89472 0.16002 0.0
C135 C 0.58328 0.89083 0.21182 0.0
C136 C 0.60171 0.88783 0.2375 0.0
C137 C 0.62029 0.88851 0.21136 0.0
C138 C 0.60316 0.89498 0.13539 0.0
H139 H 0.63411 0.8861 0.23212 0.0
H140 H 0.60315 0.89765 0.09552 0.0
H141 H 0.67724 0.92362 0.08956 0.0
H142 H 0.67178 0.8601 0.06985 0.0
C143 C 0.67798 0.88555 0.21569 0.0
C144 C 0.64251 0.94379 0.14933 0.0
C145 C 0.6365 0.8397 0.11855 0.0
C146 C 0.62847 0.89836 0.01069 0.0
H147 H 0.66666 0.95264 0.23781 0.0
H148 H 0.6879 0.92134 0.27039 0.0
H149 H 0.68404 0.84454 0.24615 0.0
H150 H 0.65967 0.8198 0.19626 0.0
H151 H 0.61834 0.83015 0.02283 0.0
H152 H 0.61542 0.86184 0.96148 0.0
H153 H 0.6208 0.93981 0.98368 0.0
H154 H 0.62685 0.96428 0.06166 0.0
H155 H 0.70624 0.92445 0.03304 0.0
H156 H 0.69973 0.85999 0.01115 0.0
H157 H 0.57096 0.89772 0.13813 0.0
H158 H 0.60186 0.88462 0.27736 0.0
C159 C 0.93333 0.38806 0.90931 0.0
C160 C 0.94474 0.39568 0.94877 0.0
C161 C 0.93167 0.39834 0.98842 0.0
C162 C 0.91305 0.39219 0.97115 0.0
N163 N 0.91359 0.38596 0.92304 0.0
Co164 Co 0.89005 0.37553 0.88433 0.0
N165 N 0.87012 0.38725 0.93227 0.0
C166 C 0.87429 0.39318 0.97953 0.0
C167 C 0.85749 0.40017 1.0046 0.0
C168 C 0.84175 0.39832 0.97116 0.0
C169 C 0.84985 0.39031 0.92736 0.0
N170 N 0.86661 0.36515 0.84511 0.0
C171 C 0.84673 0.37034 0.84689 0.0
C172 C 0.83554 0.35917 0.81246 0.0
C173 C 0.84883 0.34639 0.78894 0.0
C174 C 0.86733 0.35048 0.81004 0.0
N175 N 0.90988 0.36354 0.83655 0.0
C176 C 0.90583 0.34906 0.80237 0.0
C177 C 0.92223 0.34415 0.77323 0.0
C178 C 0.93765 0.35615 0.7903 0.0
C179 C 0.92983 0.36761 0.82959 0.0
N180 N 0.89043 0.35032 0.92496 0.0
C181 C 0.89099 0.31749 0.99387 0.0
C182 C 0.8727 0.32616 0.97752 0.0
C183 C 0.87274 0.34239 0.94335 0.0
C184 C 0.90898 0.32531 0.9732 0.0
C185 C 0.90838 0.34151 0.9388 0.0
N186 N 0.88961 0.40095 0.84528 0.0
C187 C 0.8884 0.41936 0.76667 0.0
C188 C 0.88812 0.43797 0.7923 0.0
C189 C 0.88893 0.43754 0.84483 0.0
C190 C 0.88989 0.41905 0.87036 0.0
C191 C 0.88892 0.40104 0.79385 0.0
H192 H 0.89077 0.41949 0.9107 0.0
H193 H 0.88863 0.38696 0.7733 0.0
H194 H 0.85836 0.34889 0.93305 0.0
H195 H 0.92253 0.34721 0.92433 0.0
C196 C 0.89444 0.39469 0.99595 0.0
C197 C 0.94205 0.38123 0.8612 0.0
C198 C 0.83763 0.38426 0.88356 0.0
C199 C 0.8859 0.3432 0.79271 0.0
H200 H 0.96084 0.39872 0.94904 0.0
H201 H 0.93525 0.40454 0.02499 0.0
H202 H 0.85683 0.40639 0.04218 0.0
H203 H 0.82609 0.40221 0.97833 0.0
H204 H 0.81942 0.35997 0.80544 0.0
H205 H 0.84549 0.33585 0.75893 0.0
H206 H 0.9227 0.33379 0.74173 0.0
H207 H 0.95285 0.3564 0.77519 0.0
H208 H 0.85833 0.32092 0.99223 0.0
H209 H 0.92353 0.31899 0.9835 0.0
H210 H 0.88774 0.41897 0.72603 0.0
H211 H 0.88899 0.45149 0.86624 0.0
C212 C 0.36687 0.42781 0.08483 0.0
C213 C 0.35464 0.43499 0.04625 0.0
C214 C 0.34261 0.41919 0.03151 0.0
C215 C 0.34826 0.40321 0.06126 0.0
N216 N 0.36324 0.40788 0.09354 0.0
Co217 Co 0.37621 0.38883 0.14165 0.0
N218 N 0.36563 0.36479 0.10527 0.0
C219 C 0.35007 0.36487 0.07261 0.0
C220 C 0.34539 0.34597 0.05468 0.0
C221 C 0.35876 0.33314 0.07769 0.0
C222 C 0.37102 0.34499 0.10831 0.0
N223 N 0.38906 0.36966 0.18976 0.0
C224 C 0.39294 0.3495 0.18528 0.0
C225 C 0.40281 0.34232 0.22776 0.0
C226 C 0.40458 0.35837 0.26022 0.0
C227 C 0.39595 0.37452 0.2358 0.0
N228 N 0.3867 0.41297 0.17784 0.0
C229 C 0.39361 0.4131 0.22537 0.0
C230 C 0.39959 0.43201 0.24094 0.0
C231 C 0.39607 0.44458 0.20077 0.0
C232 C 0.38817 0.43259 0.16272 0.0
N233 N 0.35156 0.3893 0.18426 0.0
C234 C 0.31888 0.3903 0.2533 0.0
C235 C 0.32552 0.40794 0.2288 0.0
C236 C 0.34186 0.40715 0.19484 0.0
C237 C 0.32862 0.37207 0.24098 0.0
C238 C 0.34466 0.37185 0.20629 0.0
N239 N 0.40103 0.38837 0.10028 0.0
C240 C 0.43758 0.38849 0.09598 0.0
C241 C 0.43711 0.38708 0.04355 0.0
C242 C 0.4181 0.38658 0.01991 0.0
C243 C 0.40025 0.38699 0.04897 0.0
C244 C 0.41952 0.38937 0.12339 0.0
H245 H 0.38585 0.38611 0.02997 0.0
H246 H 0.42061 0.39079 0.16356 0.0
H247 H 0.34692 0.42112 0.17802 0.0
H248 H 0.35174 0.35752 0.19815 0.0
C249 C 0.3423 0.38311 0.05437 0.0
C250 C 0.38063 0.44062 0.1146 0.0
C251 C 0.38627 0.33665 0.14295 0.0
C252 C 0.39713 0.39484 0.25084 0.0
H253 H 0.35434 0.45005 0.03032 0.0
H254 H 0.33164 0.41917 1.00129 0.0
H255 H 0.33397 0.34204 0.0272 0.0
H256 H 0.35917 0.31687 0.07299 0.0
H257 H 0.40819 0.32711 0.23477 0.0
H258 H 0.41204 0.35841 0.29642 0.0
H259 H 0.40628 0.4361 0.27664 0.0
H260 H 0.3988 0.46073 0.19975 0.0
H261 H 0.31858 0.42243 0.23698 0.0
H262 H 0.32388 0.35795 0.25805 0.0
H263 H 0.4519 0.38912 0.1158 0.0
H264 H 0.41704 0.38543 0.97941 0.0
C265 C 0.43572 0.631 0.85038 0.0
C266 C 0.44731 0.61977 0.81697 0.0
C267 C 0.43431 0.61231 0.78159 0.0
C268 C 0.41556 0.61937 0.79521 0.0
N269 N 0.41582 0.63115 0.83674 0.0
Co270 Co 0.39154 0.64345 0.87071 0.0
N271 N 0.37217 0.63129 0.82081 0.0
C272 C 0.37728 0.62091 0.77887 0.0
C273 C 0.3609 0.61385 0.75252 0.0
C274 C 0.34434 0.62002 0.77924 0.0
C275 C 0.35153 0.63065 0.82052 0.0
N276 N 0.36729 0.65494 0.9063 0.0
C277 C 0.34715 0.65216 0.89822 0.0
C278 C 0.33555 0.66319 0.93215 0.0
C279 C 0.34873 0.67269 0.96365 0.0
C280 C 0.36755 0.66712 0.94707 0.0
N281 N 0.41083 0.65617 0.91982 0.0
C282 C 0.40586 0.66888 0.95767 0.0
C283 C 0.42196 0.67473 0.98659 0.0
C284 C 0.43828 0.66518 0.96616 0.0
C285 C 0.43122 0.65411 0.92532 0.0
N286 N 0.39344 0.6683 0.8267 0.0
C287 C 0.39342 0.70248 0.76066 0.0
C288 C 0.3885 0.70444 0.81175 0.0
C289 C 0.38861 0.68736 0.84374 0.0
C290 C 0.39902 0.68319 0.74411 0.0
C291 C 0.399 0.66665 0.77714 0.0
N292 N 0.38961 0.6186 0.91341 0.0
C293 C 0.3893 0.60164 0.99453 0.0
C294 C 0.38734 0.58264 0.97149 0.0
C295 C 0.38662 0.58206 0.91915 0.0
C296 C 0.38797 0.59992 0.89123 0.0
C297 C 0.39012 0.61937 0.96497 0.0
H298 H 0.38774 0.59815 0.85152 0.0
H299 H 0.39114 0.63356 0.98436 0.0
H300 H 0.38456 0.68998 0.88198 0.0
H301 H 0.4035 0.65266 0.76111 0.0
C302 C 0.39745 0.6155 0.76953 0.0
C303 C 0.4444 0.64143 0.89408 0.0
C304 C 0.33825 0.63918 0.85946 0.0
C305 C 0.38573 0.67316 0.96873 0.0
H306 H 0.4635 0.61724 0.81805 0.0
H307 H 0.43807 0.60281 0.74979 0.0
H308 H 0.361 0.60448 0.71917 0.0
H309 H 0.32878 0.61654 0.77 0.0
H310 H 0.31921 0.66424 0.93415 0.0
H311 H 0.34503 0.68243 0.99506 0.0
H312 H 0.42173 0.68415 0.01987 0.0
H313 H 0.45353 0.66593 0.98081 0.0
H314 H 0.38411 0.719 0.82696 0.0
H315 H 0.40358 0.68073 0.7055 0.0
H316 H 0.38981 0.60284 0.03509 0.0
H317 H 0.38531 0.56774 0.89955 0.0
C318 C 0.65521 0.59355 0.08643 0.0
C319 C 0.66717 0.58533 0.04862 0.0
C320 C 0.67941 0.60059 0.03153 0.0
C321 C 0.67418 0.61726 0.05939 0.0
N322 N 0.65933 0.61352 0.0928 0.0
Co323 Co 0.64711 0.63363 0.13948 0.0
N324 N 0.65796 0.65684 0.10018 0.0
C325 C 0.67275 0.65582 0.06542 0.0
C326 C 0.67688 0.67413 0.04339 0.0
C327 C 0.66404 0.6876 0.06599 0.0
C328 C 0.65286 0.67676 0.10113 0.0
N329 N 0.63506 0.65381 0.18628 0.0
C330 C 0.63208 0.67406 0.18065 0.0
C331 C 0.62373 0.68235 0.22387 0.0
C332 C 0.62157 0.66677 0.25762 0.0
C333 C 0.62872 0.64986 0.23335 0.0
N334 N 0.63629 0.61034 0.17843 0.0
C335 C 0.62974 0.61109 0.22626 0.0
C336 C 0.62329 0.59258 0.24366 0.0
C337 C 0.62608 0.57938 0.20437 0.0
C338 C 0.63407 0.5906 0.16503 0.0
N339 N 0.67203 0.63324 0.18112 0.0
C340 C 0.70494 0.63246 0.24996 0.0
C341 C 0.69751 0.61462 0.22758 0.0
C342 C 0.68115 0.61532 0.19371 0.0
C343 C 0.69573 0.65076 0.23527 0.0
C344 C 0.67961 0.65083 0.20082 0.0
N345 N 0.62202 0.63402 0.09917 0.0
C346 C 0.58544 0.63477 0.09654 0.0
C347 C 0.58555 0.63517 0.04397 0.0
C348 C 0.60439 0.63472 0.01947 0.0
C349 C 0.62244 0.63439 0.04773 0.0
C350 C 0.60368 0.63395 0.12321 0.0
H351 H 0.63671 0.63451 0.02798 0.0
H352 H 0.60286 0.63332 0.16355 0.0
H353 H 0.67565 0.60123 0.17845 0.0
H354 H 0.67292 0.66521 0.19125 0.0
C355 C 0.68013 0.63712 0.04914 0.0
C356 C 0.64097 0.58175 0.11723 0.0
C357 C 0.63882 0.68617 0.13724 0.0
C358 C 0.62708 0.6298 0.25036 0.0
H359 H 0.66709 0.56996 0.0346 0.0
H360 H 0.69015 0.59982 1.00086 0.0
H361 H 0.68745 0.6772 0.01323 0.0
H362 H 0.66315 0.70361 0.05764 0.0
H363 H 0.61992 0.69806 0.23056 0.0
H364 H 0.61508 0.66761 0.2949 0.0
H365 H 0.61675 0.58919 0.28 0.0
H366 H 0.62282 0.56332 0.20476 0.0
H367 H 0.70419 0.60005 0.23608 0.0
H368 H 0.70046 0.66505 0.25125 0.0
H369 H 0.57127 0.63486 0.11708 0.0
H370 H 0.60519 0.63507 0.97884 0.0
C371 C 0.58665 0.3911 0.84824 0.0
C372 C 0.57523 0.40224 0.81432 0.0
C373 C 0.58841 0.40963 0.7792 0.0
C374 C 0.60709 0.40264 0.79351 0.0
N375 N 0.60662 0.39094 0.83521 0.0
Co376 Co 0.63075 0.3789 0.8704 0.0
N377 N 0.65036 0.39112 0.82123 0.0
C378 C 0.64548 0.40113 0.77859 0.0
C379 C 0.66203 0.40755 0.75179 0.0
C380 C 0.67846 0.40129 0.77893 0.0
C381 C 0.671 0.39146 0.8211 0.0
N382 N 0.65483 0.36777 0.90738 0.0
C383 C 0.675 0.37091 0.90058 0.0
C384 C 0.68637 0.36148 0.93779 0.0
C385 C 0.67302 0.3519 0.96872 0.0
C386 C 0.65434 0.35617 0.94919 0.0
N387 N 0.6112 0.3661 0.91875 0.0
C388 C 0.61599 0.35345 0.95685 0.0
C389 C 0.59972 0.34744 0.98501 0.0
C390 C 0.58348 0.35684 0.96382 0.0
C391 C 0.59076 0.36799 0.92333 0.0
N392 N 0.62944 0.35393 0.82665 0.0
C393 C 0.63011 0.31973 0.76062 0.0
C394 C 0.63558 0.31797 0.81145 0.0
C395 C 0.63515 0.33507 0.84347 0.0
C396 C 0.62363 0.3388 0.74447 0.0
C397 C 0.62337 0.35533 0.77743 0.0
N398 N 0.63204 0.40389 0.91272 0.0
C399 C 0.63128 0.42119 0.99338 0.0
C400 C 0.63164 0.44027 0.96992 0.0
C401 C 0.63283 0.44054 0.91749 0.0
C402 C 0.63297 0.42251 0.89011 0.0
C403 C 0.63149 0.40331 0.96428 0.0
H404 H 0.63371 0.4241 0.85038 0.0
H405 H 0.63101 0.38915 0.98398 0.0
H406 H 0.63968 0.33268 0.88154 0.0
H407 H 0.61823 0.36911 0.76153 0.0
C408 C 0.62535 0.40638 0.76821 0.0
C409 C 0.57775 0.3807 0.89174 0.0
C410 C 0.68412 0.38271 0.85988 0.0
C411 C 0.63606 0.3497 0.96949 0.0
H412 H 0.55903 0.40474 0.81488 0.0
H413 H 0.5848 0.41903 0.74712 0.0
H414 H 0.66215 0.41632 0.71743 0.0
H415 H 0.69416 0.40389 0.76916 0.0
H416 H 0.70264 0.36162 0.94257 0.0
H417 H 0.67651 0.3431 1.00193 0.0
H418 H 0.59979 0.33812 0.01847 0.0
H419 H 0.56815 0.356 0.97789 0.0
H420 H 0.64064 0.30358 0.82635 0.0
H421 H 0.6186 0.34109 0.70616 0.0
H422 H 0.63041 0.42002 0.03389 0.0
H423 H 0.63378 0.45472 0.89715 0.0
C424 C 0.86693 0.59361 0.68306 0.0
C425 C 0.85557 0.58661 0.72347 0.0
C426 C 0.8442 0.60258 0.7401 0.0
C427 C 0.84938 0.61849 0.7096 0.0
N428 N 0.86341 0.61361 0.67494 0.0
Co429 Co 0.87578 0.63255 0.6255 0.0
N430 N 0.86627 0.65674 0.66333 0.0
C431 C 0.85176 0.65682 0.69891 0.0
C432 C 0.84834 0.67563 0.71898 0.0
C433 C 0.86136 0.68828 0.69422 0.0
C434 C 0.87198 0.67644 0.66 0.0
N435 N 0.88821 0.65155 0.57631 0.0
C436 C 0.89197 0.67176 0.57989 0.0
C437 C 0.90027 0.67908 0.53558 0.0
C438 C 0.90156 0.66295 0.50319 0.0
C439 C 0.89399 0.64669 0.52934 0.0
N440 N 0.88504 0.60826 0.58775 0.0
C441 C 0.89095 0.60811 0.53936 0.0
C442 C 0.89623 0.58912 0.52283 0.0
C443 C 0.89333 0.57653 0.56328 0.0
C444 C 0.88647 0.58858 0.60245 0.0
N445 N 0.85041 0.63265 0.58558 0.0
C446 C 0.81715 0.63219 0.51777 0.0
C447 C 0.82383 0.61444 0.54201 0.0
C448 C 0.84036 0.61498 0.57537 0.0
C449 C 0.82723 0.65029 0.53026 0.0
C450 C 0.84351 0.65021 0.56426 0.0
N451 N 0.90133 0.63242 0.66395 0.0
C452 C 0.93773 0.62861 0.66456 0.0
C453 C 0.93848 0.63183 0.71653 0.0
C454 C 0.92011 0.63553 0.74164 0.0
C455 C 0.90172 0.63556 0.71479 0.0
C456 C 0.9192 0.62914 0.63914 0.0
H457 H 0.88782 0.63811 0.73516 0.0
H458 H 0.91942 0.62691 0.5991 0.0
H459 H 0.84529 0.60092 0.59202 0.0
H460 H 0.8509 0.66442 0.57202 0.0
C461 C 0.84413 0.63868 0.71796 0.0
C462 C 0.87984 0.5806 0.65147 0.0
C463 C 0.88603 0.68476 0.62242 0.0
C464 C 0.89437 0.62638 0.51377 0.0
H465 H 0.85547 0.57158 0.7396 0.0
H466 H 0.83409 0.60279 0.77212 0.0
H467 H 0.83812 0.67958 0.74925 0.0
H468 H 0.86274 0.70441 0.70045 0.0
H469 H 0.9046 0.69454 0.52728 0.0
H470 H 0.90768 0.66302 0.46546 0.0
H471 H 0.90211 0.585 0.48628 0.0
H472 H 0.89578 0.56033 0.56377 0.0
H473 H 0.81645 0.60007 0.53528 0.0
H474 H 0.8231 0.66449 0.51282 0.0
H475 H 0.95149 0.62601 0.64331 0.0
H476 H 0.9199 0.63804 0.78184 0.0
C477 C 0.58904 0.13371 0.414 0.0
C478 C 0.57814 0.12482 0.45272 0.0
C479 C 0.59139 0.12226 0.49204 0.0
C480 C 0.60966 0.12955 0.47522 0.0
N481 N 0.60872 0.13642 0.4277 0.0
Co482 Co 0.63187 0.14747 0.38857 0.0
N483 N 0.65227 0.13555 0.43483 0.0
C484 C 0.64851 0.12911 0.4819 0.0
C485 C 0.66558 0.1221 0.50575 0.0
C486 C 0.68105 0.12448 0.47169 0.0
C487 C 0.67254 0.13281 0.42875 0.0
N488 N 0.65483 0.15853 0.34881 0.0
C489 C 0.67477 0.15357 0.34922 0.0
C490 C 0.68553 0.16531 0.31508 0.0
C491 C 0.6719 0.17827 0.29339 0.0
C492 C 0.65362 0.1737 0.31513 0.0
N493 N 0.6116 0.15969 0.3426 0.0
C494 C 0.61503 0.17514 0.31073 0.0
C495 C 0.59805 0.1809 0.2847 0.0
C496 C 0.58296 0.16833 0.30131 0.0
C497 C 0.59166 0.15546 0.33652 0.0
N498 N 0.63151 0.17229 0.43063 0.0
C499 C 0.63118 0.20483 0.50037 0.0
C500 C 0.64942 0.19637 0.48298 0.0
C501 C 0.64926 0.1803 0.44841 0.0
C502 C 0.6131 0.19689 0.48051 0.0
C503 C 0.61359 0.18081 0.44575 0.0
N504 N 0.6323 0.12243 0.34807 0.0
C505 C 0.63313 0.1047 0.26847 0.0
C506 C 0.63392 0.08589 0.29314 0.0
C507 C 0.63351 0.08587 0.34569 0.0
C508 C 0.63248 0.10412 0.37219 0.0
C509 C 0.63255 0.1228 0.29662 0.0
H510 H 0.63192 0.10331 0.41253 0.0
H511 H 0.63243 0.13707 0.27684 0.0
H512 H 0.66362 0.174 0.43718 0.0
H513 H 0.59938 0.175 0.43189 0.0
C514 C 0.62848 0.12709 0.49905 0.0
C515 C 0.58024 0.14046 0.36579 0.0
C516 C 0.68435 0.13945 0.38474 0.0
C517 C 0.63482 0.18133 0.3002 0.0
H518 H 0.56233 0.12055 0.4527 0.0
H519 H 0.58824 0.11511 0.5278 0.0
H520 H 0.6666 0.1155 0.54288 0.0
H521 H 0.69681 0.12073 0.4779 0.0
H522 H 0.70161 0.16483 0.30727 0.0
H523 H 0.6749 0.18934 0.26432 0.0
H524 H 0.59691 0.19237 0.25576 0.0
H525 H 0.56733 0.16869 0.28914 0.0
H526 H 0.66385 0.20167 0.49708 0.0
H527 H 0.59857 0.20303 0.49164 0.0
H528 H 0.63345 0.10544 0.22784 0.0
H529 H 0.63382 0.07175 0.3664 0.0
C530 C 0.15456 0.43058 0.67944 0.0
C531 C 0.1663 0.43847 0.71808 0.0
C532 C 0.17818 0.42298 0.73538 0.0
C533 C 0.17297 0.4065 0.70683 0.0
N534 N 0.15846 0.41057 0.67278 0.0
Co535 Co 0.14632 0.39078 0.62512 0.0
N536 N 0.15663 0.36728 0.66431 0.0
C537 C 0.17114 0.368 0.6998 0.0
C538 C 0.17502 0.34954 0.72131 0.0
C539 C 0.16231 0.33627 0.6976 0.0
C540 C 0.15145 0.3474 0.66239 0.0
N541 N 0.13437 0.37092 0.5773 0.0
C542 C 0.13127 0.35065 0.58207 0.0
C543 C 0.12313 0.34265 0.5383 0.0
C544 C 0.12124 0.35843 0.50504 0.0
C545 C 0.12834 0.37515 0.53014 0.0
N546 N 0.13606 0.41436 0.58631 0.0
C547 C 0.12978 0.41388 0.53825 0.0
C548 C 0.12368 0.43252 0.52102 0.0
C549 C 0.12642 0.44555 0.56066 0.0
C550 C 0.13402 0.4341 0.60004 0.0
N551 N 0.17153 0.391 0.58451 0.0
C552 C 0.20494 0.39151 0.5171 0.0
C553 C 0.19758 0.40941 0.5394 0.0
C554 C 0.18096 0.40884 0.57257 0.0
C555 C 0.19538 0.37331 0.53107 0.0
C556 C 0.17902 0.37337 0.56484 0.0
N557 N 0.12095 0.39054 0.6644 0.0
C558 C 0.08435 0.39013 0.66554 0.0
C559 C 0.08409 0.38951 0.71809 0.0
C560 C 0.10276 0.38969 0.74336 0.0
C561 C 0.121 0.38997 0.71584 0.0
C562 C 0.10278 0.39089 0.63963 0.0
H563 H 0.13513 0.38962 0.73617 0.0
H564 H 0.10224 0.39169 0.59928 0.0
H565 H 0.17553 0.42296 0.58784 0.0
H566 H 0.1721 0.35905 0.57388 0.0
C567 C 0.17859 0.38654 0.71688 0.0
C568 C 0.14077 0.44271 0.64824 0.0
C569 C 0.13776 0.33823 0.62516 0.0
C570 C 0.12703 0.3953 0.51362 0.0
H571 H 0.16628 0.45377 0.73255 0.0
H572 H 0.18867 0.42348 0.7666 0.0
H573 H 0.18537 0.34622 0.75174 0.0
H574 H 0.16132 0.3202 0.70512 0.0
H575 H 0.11929 0.327 0.53092 0.0
H576 H 0.115 0.35783 0.46748 0.0
H577 H 0.11741 0.43613 0.48453 0.0
H578 H 0.12339 0.46166 0.56049 0.0
H579 H 0.20451 0.4239 0.5314 0.0
H580 H 0.20002 0.35899 0.51506 0.0
H581 H 0.07032 0.39023 0.64444 0.0
H582 H 0.10327 0.38915 0.78401 0.0
C583 C 0.43441 0.88954 0.41618 0.0
C584 C 0.44615 0.89824 0.45363 0.0
C585 C 0.43363 0.90118 0.49424 0.0
C586 C 0.41493 0.8943 0.47941 0.0
N587 N 0.41491 0.88734 0.43194 0.0
Co588 Co 0.39082 0.87694 0.39526 0.0
N589 N 0.3715 0.88951 0.44336 0.0
C590 C 0.37626 0.8963 0.48956 0.0
C591 C 0.36 0.90466 0.51411 0.0
C592 C 0.34397 0.90279 0.48159 0.0
C593 C 0.35128 0.89314 0.43892 0.0
N594 N 0.36695 0.86641 0.35812 0.0
C595 C 0.34709 0.87163 0.36099 0.0
C596 C 0.33543 0.85931 0.33006 0.0
C597 C 0.34842 0.84602 0.30726 0.0
C598 C 0.36723 0.85081 0.32554 0.0
N599 N 0.40999 0.86419 0.34731 0.0
C600 C 0.40566 0.84873 0.31622 0.0
C601 C 0.42203 0.84252 0.28842 0.0
C602 C 0.43767 0.85481 0.30307 0.0
C603 C 0.4299 0.86795 0.33898 0.0
N604 N 0.3912 0.85215 0.43736 0.0
C605 C 0.39182 0.81911 0.50551 0.0
C606 C 0.37356 0.82833 0.49099 0.0
C607 C 0.37357 0.84467 0.45719 0.0
C608 C 0.40975 0.82663 0.48384 0.0
C609 C 0.40911 0.84298 0.44991 0.0
N610 N 0.39046 0.90192 0.35458 0.0
C611 C 0.38885 0.91957 0.27495 0.0
C612 C 0.39075 0.93847 0.29904 0.0
C613 C 0.39221 0.93843 0.3516 0.0
C614 C 0.39213 0.92022 0.37831 0.0
C615 C 0.38875 0.90152 0.30334 0.0
H616 H 0.39344 0.92105 0.41851 0.0
H617 H 0.38739 0.88723 0.2839 0.0
H618 H 0.35923 0.85153 0.44808 0.0
H619 H 0.42321 0.84841 0.43449 0.0
C620 C 0.39658 0.89762 0.50474 0.0
C621 C 0.44222 0.88262 0.36708 0.0
C622 C 0.33849 0.88644 0.39645 0.0
C623 C 0.38559 0.84276 0.30858 0.0
H624 H 0.46202 0.90222 0.45188 0.0
H625 H 0.43752 0.90841 0.52944 0.0
H626 H 0.35993 0.91199 0.55047 0.0
H627 H 0.3287 0.90796 0.48869 0.0
H628 H 0.31915 0.85949 0.32534 0.0
H629 H 0.34462 0.83446 0.28002 0.0
H630 H 0.42242 0.8309 0.25976 0.0
H631 H 0.45308 0.85401 0.28929 0.0
H632 H 0.35926 0.82338 0.50668 0.0
H633 H 0.42426 0.81991 0.49284 0.0
H634 H 0.38777 0.91863 0.23444 0.0
H635 H 0.39319 0.95246 0.37251 0.0
C636 C 0.86808 0.92997 0.58382 0.0
C637 C 0.8565 0.93739 0.54429 0.0
C638 C 0.84494 0.92162 0.52731 0.0
C639 C 0.85018 0.90544 0.55685 0.0
N640 N 0.86443 0.90995 0.59123 0.0
Co641 Co 0.87672 0.89064 0.63983 0.0
N642 N 0.86682 0.86675 0.60145 0.0
C643 C 0.85225 0.86703 0.56605 0.0
C644 C 0.84861 0.84838 0.54531 0.0
C645 C 0.86155 0.83546 0.56944 0.0
C646 C 0.8723 0.84697 0.60405 0.0
N647 N 0.88905 0.87125 0.6882 0.0
C648 C 0.89255 0.85101 0.68398 0.0
C649 C 0.90089 0.84338 0.72791 0.0
C650 C 0.90248 0.85934 0.76073 0.0
C651 C 0.89503 0.87582 0.73519 0.0
N652 N 0.88638 0.91463 0.67814 0.0
C653 C 0.89245 0.91447 0.72639 0.0
C654 C 0.89802 0.93332 0.74333 0.0
C655 C 0.89514 0.94613 0.7033 0.0
C656 C 0.88799 0.93435 0.66398 0.0
N657 N 0.85145 0.89067 0.68028 0.0
C658 C 0.81858 0.89127 0.74896 0.0
C659 C 0.82525 0.90904 0.72502 0.0
C660 C 0.84165 0.90843 0.69118 0.0
C661 C 0.82828 0.8731 0.73584 0.0
C662 C 0.84441 0.87309 0.70133 0.0
N663 N 0.90219 0.89066 0.60086 0.0
C664 C 0.93863 0.89411 0.59966 0.0
C665 C 0.93922 0.89122 0.54755 0.0
C666 C 0.92074 0.88784 0.52268 0.0
C667 C 0.90241 0.88782 0.54989 0.0
C668 C 0.92016 0.8936 0.62543 0.0
H669 H 0.88843 0.88554 0.5297 0.0
H670 H 0.92051 0.89559 0.66553 0.0
H671 H 0.84675 0.92251 0.67498 0.0
H672 H 0.85151 0.8588 0.69279 0.0
C673 C 0.84472 0.88536 0.54784 0.0
C674 C 0.88132 0.94261 0.61534 0.0
C675 C 0.88628 0.83827 0.64126 0.0
C676 C 0.89572 0.89604 0.75136 0.0
H677 H 0.85638 0.95258 0.52911 0.0
H678 H 0.8346 0.92175 0.49575 0.0
H679 H 0.83832 0.84473 0.515 0.0
H680 H 0.86277 0.81936 0.56251 0.0
H681 H 0.90502 0.82783 0.73571 0.0
H682 H 0.90869 0.85902 0.79833 0.0
H683 H 0.90408 0.9372 0.77985 0.0
H684 H 0.89781 0.9623 0.70317 0.0
H685 H 0.81834 0.92349 0.7337 0.0
H686 H 0.82351 0.85888 0.7523 0.0
H687 H 0.95246 0.89646 0.62075 0.0
H688 H 0.92039 0.88559 0.4824 0.0
C689 C 0.93507 0.13107 0.34584 0.0
C690 C 0.9461 0.11925 0.31256 0.0
C691 C 0.93268 0.11206 0.27776 0.0
C692 C 0.91424 0.11982 0.29169 0.0
N693 N 0.91512 0.13183 0.33276 0.0
Co694 Co 0.89141 0.1447 0.36776 0.0
N695 N 0.87139 0.13272 0.31936 0.0
C696 C 0.87594 0.12259 0.2767 0.0
C697 C 0.85918 0.11643 0.25037 0.0
C698 C 0.84297 0.12301 0.27788 0.0
C699 C 0.85076 0.13273 0.3198 0.0
N700 N 0.8677 0.15648 0.40497 0.0
C701 C 0.84745 0.15353 0.39906 0.0
C702 C 0.83643 0.16327 0.43643 0.0
C703 C 0.85008 0.17284 0.46655 0.0
C704 C 0.8686 0.16824 0.44643 0.0
N705 N 0.9114 0.15747 0.41496 0.0
C706 C 0.90704 0.17071 0.4521 0.0
C707 C 0.92359 0.17682 0.47909 0.0
C708 C 0.93954 0.16684 0.45813 0.0
C709 C 0.93181 0.15521 0.41907 0.0
N710 N 0.8931 0.16937 0.32302 0.0
C711 C 0.8927 0.20313 0.25558 0.0
C712 C 0.88679 0.20516 0.30602 0.0
C713 C 0.88709 0.18829 0.33873 0.0
C714 C 0.89948 0.18401 0.2405 0.0
C715 C 0.89965 0.1677 0.27419 0.0
N716 N 0.88968 0.12002 0.41107 0.0
C717 C 0.89095 0.10317 0.49228 0.0
C718 C 0.88779 0.0842 0.46985 0.0
C719 C 0.88571 0.0836 0.41771 0.0
C720 C 0.88689 0.10138 0.3894 0.0
C721 C 0.89157 0.12084 0.46243 0.0
H722 H 0.88561 0.09958 0.34977 0.0
H723 H 0.89359 0.13501 0.48143 0.0
H724 H 0.88218 0.19091 0.37642 0.0
H725 H 0.90509 0.15384 0.25917 0.0
C726 C 0.89589 0.11663 0.2665 0.0
C727 C 0.94431 0.14155 0.38873 0.0
C728 C 0.83796 0.14164 0.35905 0.0
C729 C 0.88709 0.17473 0.46549 0.0
H730 H 0.9622 0.11618 0.31334 0.0
H731 H 0.93597 0.1023 0.24613 0.0
H732 H 0.85878 0.10755 0.21622 0.0
H733 H 0.82719 0.12063 0.26859 0.0
H734 H 0.82019 0.16335 0.44182 0.0
H735 H 0.8469 0.18186 0.49957 0.0
H736 H 0.92388 0.18657 0.51178 0.0
H737 H 0.95499 0.1676 0.47146 0.0
H738 H 0.88146 0.21959 0.32009 0.0
H739 H 0.90484 0.18154 0.20252 0.0
H740 H 0.89255 0.10441 0.53265 0.0
H741 H 0.8835 0.06931 0.39849 0.0
C742 C 0.1565 0.09317 0.57835 0.0
C743 C 0.16809 0.08602 0.53852 0.0
C744 C 0.17974 0.10187 0.52235 0.0
C745 C 0.17449 0.11785 0.55254 0.0
N746 N 0.16014 0.11313 0.58654 0.0
Co747 Co 0.14766 0.1322 0.63548 0.0
N748 N 0.15764 0.15628 0.59797 0.0
C749 C 0.17234 0.15622 0.56288 0.0
C750 C 0.17611 0.17501 0.54305 0.0
C751 C 0.1631 0.1878 0.56746 0.0
C752 C 0.15214 0.17604 0.60119 0.0
N753 N 0.13528 0.15134 0.6844 0.0
C754 C 0.13179 0.17159 0.68079 0.0
C755 C 0.12339 0.17901 0.72489 0.0
C756 C 0.12176 0.16289 0.75721 0.0
C757 C 0.12924 0.14654 0.73122 0.0
N758 N 0.13778 0.10805 0.67275 0.0
C759 C 0.13149 0.10795 0.72084 0.0
C760 C 0.12582 0.08903 0.73707 0.0
C761 C 0.12886 0.07643 0.69673 0.0
C762 C 0.1362 0.08839 0.65794 0.0
N763 N 0.17282 0.13196 0.67625 0.0
C764 C 0.20609 0.1312 0.74403 0.0
C765 C 0.19908 0.11346 0.72032 0.0
C766 C 0.18255 0.11415 0.68695 0.0
C767 C 0.19626 0.1494 0.73125 0.0
C768 C 0.17996 0.14947 0.69732 0.0
N769 N 0.12235 0.13242 0.59604 0.0
C770 C 0.0858 0.13068 0.59431 0.0
C771 C 0.08548 0.13229 0.54171 0.0
C772 C 0.10427 0.13415 0.51707 0.0
C773 C 0.12245 0.13423 0.54481 0.0
C774 C 0.1042 0.13067 0.62042 0.0
H775 H 0.13658 0.13566 0.52477 0.0
H776 H 0.10364 0.12926 0.66068 0.0
H777 H 0.17741 0.10013 0.67055 0.0
H778 H 0.1728 0.16377 0.68927 0.0
C779 C 0.17996 0.13799 0.54426 0.0
C780 C 0.14319 0.08032 0.60934 0.0
C781 C 0.138 0.1845 0.63836 0.0
C782 C 0.12833 0.12623 0.74655 0.0
H783 H 0.16816 0.07098 0.52248 0.0
H784 H 0.19009 0.10196 0.49081 0.0
H785 H 0.18658 0.17887 0.51325 0.0
H786 H 0.16198 0.20396 0.56141 0.0
H787 H 0.1192 0.19451 0.73308 0.0
H788 H 0.11543 0.16301 0.79473 0.0
H789 H 0.11965 0.08496 0.77336 0.0
H790 H 0.12622 0.06026 0.69611 0.0
H791 H 0.20624 0.099 0.72737 0.0
H792 H 0.20064 0.1636 0.74836 0.0
H793 H 0.0719 0.1297 0.61571 0.0
H794 H 0.10505 0.13526 0.47655 0.0
C795 C 0.08934 0.89018 0.34884 0.0
C796 C 0.07791 0.89915 0.31117 0.0
C797 C 0.09064 0.90195 0.27094 0.0
C798 C 0.10916 0.89474 0.2862 0.0
N799 N 0.10887 0.8877 0.33361 0.0
Co800 Co 0.13262 0.87681 0.37078 0.0
N801 N 0.15235 0.88891 0.32295 0.0
C802 C 0.14788 0.89569 0.27656 0.0
C803 C 0.16437 0.90376 0.25233 0.0
C804 C 0.18022 0.90171 0.28529 0.0
C805 C 0.17259 0.89225 0.32788 0.0
N806 N 0.15618 0.86598 0.40865 0.0
C807 C 0.1761 0.87102 0.40649 0.0
C808 C 0.18746 0.85868 0.43805 0.0
C809 C 0.1742 0.84555 0.46052 0.0
C810 C 0.15555 0.85046 0.44145 0.0
N811 N 0.11305 0.86434 0.41821 0.0
C812 C 0.11704 0.84881 0.44939 0.0
C813 C 0.10045 0.84275 0.47659 0.0
C814 C 0.08502 0.85521 0.46142 0.0
C815 C 0.09313 0.86829 0.42583 0.0
N816 N 0.13197 0.852 0.32877 0.0
C817 C 0.13123 0.81902 0.26 0.0
C818 C 0.14956 0.82724 0.27777 0.0
C819 C 0.1496 0.84367 0.31127 0.0
C820 C 0.11325 0.8275 0.27941 0.0
C821 C 0.11396 0.84365 0.31391 0.0
N822 N 0.13331 0.9018 0.41138 0.0
C823 C 0.1347 0.91937 0.49112 0.0
C824 C 0.135 0.93822 0.46661 0.0
C825 C 0.13411 0.93835 0.41412 0.0
C826 C 0.13304 0.92015 0.38747 0.0
C827 C 0.13409 0.90133 0.46279 0.0
H828 H 0.13206 0.92103 0.34721 0.0
H829 H 0.13435 0.88701 0.48239 0.0
H830 H 0.16404 0.84984 0.32225 0.0
H831 H 0.09981 0.8497 0.32756 0.0
C832 C 0.12764 0.89755 0.26111 0.0
C833 C 0.08113 0.88314 0.39745 0.0
C834 C 0.18506 0.88563 0.37101 0.0
C835 C 0.137 0.84263 0.45779 0.0
H836 H 0.06208 0.90334 0.31249 0.0
H837 H 0.08702 0.90923 0.23564 0.0
H838 H 0.16468 0.9111 0.21598 0.0
H839 H 0.19557 0.90673 0.27859 0.0
H840 H 0.20371 0.85874 0.44338 0.0
H841 H 0.17773 0.83402 0.48809 0.0
H842 H 0.09978 0.83112 0.50521 0.0
H843 H 0.06954 0.85456 0.47467 0.0
H844 H 0.16401 0.82117 0.26597 0.0
H845 H 0.09856 0.82217 0.26731 0.0
H846 H 0.13541 0.91856 0.53171 0.0
H847 H 0.13406 0.95252 0.3936 0.0
H848 H 0.41275 0.97287 0.31998 0.0
H849 H 0.36966 0.94919 0.21308 0.0
H850 H 0.41105 1.00575 0.27984 0.0
H851 H 0.36891 0.98195 0.17066 0.0
H852 H 0.35309 0.04951 0.14641 0.0
H853 H 0.35636 0.01499 0.17835 0.0
H854 H 0.41944 0.02631 0.21186 0.0
H855 H 0.41562 0.06117 0.18189 0.0
C856 C 0.40293 0.97458 0.28769 0.0
C857 C 0.39109 0.95821 0.27056 0.0
C858 C 0.40221 0.99353 0.26395 0.0
C859 C 0.38979 0.99684 0.22173 0.0
C860 C 0.37843 0.98028 0.20349 0.0
C861 C 0.37906 0.96129 0.22752 0.0
C862 C 0.36765 0.04451 0.16049 0.0
C863 C 0.38401 0.0581 0.16253 0.0
C864 C 0.36963 0.02462 0.17851 0.0
C865 C 0.38814 0.01762 0.19848 0.0
C866 C 0.40478 0.0311 0.19809 0.0
C867 C 0.40271 0.05106 0.18043 0.0
H868 H 0.04538 0.65085 0.91087 0.0
H869 H 0.06788 0.62183 0.77718 0.0
H870 H 1.01067 0.64709 0.88038 0.0
H871 H 0.03347 0.61913 0.74476 0.0
H872 H 0.96883 0.60379 0.70796 0.0
H873 H 1.00211 0.60388 0.74724 0.0
H874 H 0.98708 0.65965 0.82374 0.0
H875 H 0.9534 0.6589 0.78585 0.0
C876 C 0.04284 0.64327 0.87534 0.0
C877 C 0.05934 0.63607 0.84711 0.0
C878 C 0.02291 0.64147 0.85721 0.0
C879 C 0.01892 0.63278 0.80976 0.0
C880 C 0.03558 0.62549 0.78185 0.0
C881 C 0.05543 0.62707 0.80031 0.0
C882 C 0.97261 0.61602 0.7334 0.0
C883 C 0.95841 0.63138 0.74351 0.0
C884 C 0.99184 0.61618 0.75582 0.0
C885 C 0.99771 0.6319 0.78859 0.0
C886 C 0.98327 0.64707 0.79946 0.0
C887 C 0.96388 0.64673 0.77754 0.0
H888 H 0.67237 0.97251 0.15042 0.0
H889 H 0.60833 0.96503 0.1754 0.0
H890 H 0.67029 1.00753 0.18039 0.0
H891 H 0.60605 1.00036 0.2044 0.0
H892 H 0.60978 0.07144 0.21662 0.0
H893 H 0.61118 0.03791 0.17631 0.0
H894 H 0.66312 0.02253 0.26695 0.0
H895 H 0.66148 0.0557 0.30749 0.0
C896 C 0.65779 0.97847 0.16188 0.0
C897 C 0.64058 0.96593 0.16153 0.0
C898 C 0.6566 0.99851 0.17914 0.0
C899 C 0.63805 1.00674 0.19538 0.0
C900 C 0.62057 0.99454 0.19216 0.0
C901 C 0.62185 0.97432 0.17563 0.0
C902 C 0.62159 0.06093 0.22748 0.0
C903 C 0.63552 0.06625 0.26526 0.0
C904 C 0.62231 0.04168 0.2047 0.0
C905 C 0.63728 0.02749 0.21831 0.0
C906 C 0.65149 0.03309 0.25519 0.0
C907 C 0.65051 0.05209 0.2786 0.0
H908 H 0.05367 0.36216 0.70422 0.0
H909 H 0.06967 0.41428 0.79325 0.0
H910 H 0.02053 0.36082 0.74534 0.0
H911 H 0.03614 0.41326 0.83378 0.0
H912 H 0.96257 0.41539 0.83168 0.0
H913 H 0.99793 0.41784 0.8027 0.0
H914 H 1.00658 0.35448 0.83583 0.0
H915 H 0.97157 0.35228 0.86605 0.0
C916 C 0.0501 0.3733 0.73273 0.0
C917 C 0.06433 0.38829 0.74555 0.0
C918 C 0.03114 0.3725 0.75644 0.0
C919 C 0.02565 0.38693 0.7929 0.0
C920 C 0.03987 0.40197 0.80577 0.0
C921 C 0.05909 0.40248 0.78282 0.0
C922 C 0.97221 0.40215 0.83369 0.0
C923 C 0.96426 0.38359 0.85044 0.0
C924 C 0.99242 0.40351 0.81709 0.0
C925 C 1.00501 0.38628 0.81631 0.0
C926 C 0.99724 0.36797 0.83529 0.0
C927 C 0.97723 0.36672 0.85275 0.0
H928 H 0.35114 0.46961 0.11996 0.0
H929 H 0.41414 0.46158 0.08274 0.0
H930 H 0.35274 0.50481 0.09118 0.0
H931 H 0.41596 0.49705 0.05468 0.0
H932 H 0.41337 0.5678 0.04345 0.0
H933 H 0.41248 0.53429 0.08399 0.0
H934 H 0.35717 0.52039 1.00489 0.0
H935 H 0.35826 0.55353 0.96417 0.0
C936 C 0.3654 0.47549 0.10603 0.0
C937 C 0.38242 0.46277 0.10267 0.0
C938 C 0.36632 0.49563 0.08945 0.0
C939 C 0.38442 0.50375 0.07008 0.0
C940 C 0.40179 0.49132 0.06945 0.0
C941 C 0.40076 0.47102 0.08539 0.0
C942 C 0.4009 0.55764 0.03536 0.0
C943 C 0.38586 0.56333 1.00068 0.0
C944 C 0.40048 0.5384 0.05821 0.0
C945 C 0.38475 0.5246 0.04774 0.0
C946 C 0.36941 0.53064 0.01423 0.0
C947 C 0.37006 0.54962 0.99074 0.0
H948 H 0.47319 0.67127 0.89254 0.0
H949 H 0.46552 0.60778 0.92466 0.0
H950 H 0.50799 0.66977 0.92448 0.0
H951 H 0.50063 0.60606 0.95529 0.0
H952 H 0.57183 0.61041 0.96805 0.0
H953 H 0.53859 0.61123 0.92623 0.0
H954 H 0.52198 0.66349 0.0143 0.0
H955 H 0.55486 0.66237 0.05665 0.0
C956 C 0.4791 0.65691 0.9057 0.0
C957 C 0.46657 0.63969 0.9066 0.0
C958 C 0.49899 0.65606 0.92416 0.0
C959 C 0.50708 0.63783 0.94285 0.0
C960 C 0.49491 0.62032 0.94105 0.0
C961 C 0.47483 0.62128 0.92348 0.0
C962 C 0.56111 0.62215 0.97811 0.0
C963 C 0.56599 0.63633 0.01567 0.0
C964 C 0.54204 0.62254 0.95441 0.0
C965 C 0.52762 0.63745 0.96683 0.0
C966 C 0.53275 0.6519 1.00352 0.0
C967 C 0.55157 0.65122 0.02794 0.0
H968 H 0.64947 0.45004 0.06099 0.0
H969 H 0.61173 0.47528 0.94433 0.0
H970 H 0.64981 0.48285 0.10357 0.0
H971 H 0.61297 0.50808 0.98494 0.0
H972 H 0.60688 0.56386 0.07969 0.0
H973 H 0.60268 0.52886 0.0511 0.0
H974 H 0.66399 0.51556 0.09762 0.0
H975 H 0.66761 0.55032 0.12791 0.0
C976 C 0.64113 0.46249 0.0445 0.0
C977 C 0.63078 0.45988 0.9987 0.0
C978 C 0.64152 0.48147 0.06865 0.0
C979 C 0.63153 0.49842 0.04782 0.0
C980 C 0.62069 0.49555 1.00284 0.0
C981 C 0.62024 0.47665 0.97892 0.0
C982 C 0.61926 0.55327 0.08452 0.0
C983 C 0.63759 0.5598 0.1056 0.0
C984 C 0.617 0.53323 0.06763 0.0
C985 C 0.6331 0.51919 0.07111 0.0
C986 C 0.65114 0.52566 0.09447 0.0
C987 C 0.65331 0.54565 0.11167 0.0
H988 H 0.46795 0.3601 0.05608 0.0
H989 H 0.45026 0.4115 0.96639 0.0
H990 H 0.50065 0.35896 0.01276 0.0
H991 H 0.48335 0.41071 0.92368 0.0
H992 H 0.55671 0.41438 0.92232 0.0
H993 H 0.52161 0.41613 0.95311 0.0
H994 H 0.51407 0.35251 0.92152 0.0
H995 H 0.54885 0.351 0.88932 0.0
C996 C 0.47104 0.3711 0.02689 0.0
C997 C 0.45649 0.38584 0.01456 0.0
C998 C 0.48975 0.37042 1.00195 0.0
C999 C 0.49464 0.38474 0.96471 0.0
C1000 C 0.48008 0.3995 0.95225 0.0
C1001 C 0.46111 0.39988 0.97645 0.0
C1002 C 0.54736 0.40092 0.92093 0.0
C1003 C 0.55556 0.38252 0.90382 0.0
C1004 C 0.52728 0.40189 0.93861 0.0
C1005 C 0.51509 0.3844 0.94029 0.0
C1006 C 0.5231 0.3662 0.92126 0.0
C1007 C 0.54297 0.36534 0.90265 0.0
H1008 H 0.86116 0.46851 0.80917 0.0
H1009 H 0.91194 0.45252 0.71529 0.0
H1010 H 0.8596 0.50186 0.76942 0.0
H1011 H 0.91065 0.48624 0.6759 0.0
H1012 H 0.91401 0.55926 0.67694 0.0
H1013 H 0.91626 0.52385 0.7055 0.0
H1014 H 0.85198 0.51686 0.68218 0.0
H1015 H 0.84993 0.55192 0.65248 0.0
C1016 C 0.87196 0.47212 0.77985 0.0
C1017 C 0.88665 0.45782 0.76536 0.0
C1018 C 0.87102 0.49121 0.7569 0.0
C1019 C 0.885 0.49678 0.71942 0.0
C1020 C 0.89971 0.48248 0.70476 0.0
C1021 C 0.90036 0.46314 0.72704 0.0
C1022 C 0.90047 0.54999 0.67722 0.0
C1023 C 0.88174 0.55844 0.6634 0.0
C1024 C 0.90174 0.52974 0.69351 0.0
C1025 C 0.88424 0.51757 0.6968 0.0
C1026 C 0.86568 0.52586 0.68086 0.0
C1027 C 0.86451 0.54592 0.66377 0.0
H1028 H 0.56765 0.12164 0.28058 0.0
H1029 H 0.5446 0.15038 0.41404 0.0
H1030 H 0.53335 0.11862 0.2477 0.0
H1031 H 0.50997 0.14641 0.3829 0.0
H1032 H 0.45308 0.15816 0.28583 0.0
H1033 H 0.48649 0.15894 0.32528 0.0
H1034 H 0.50205 0.10309 0.2499 0.0
H1035 H 0.46905 0.10291 0.20925 0.0
C1036 C 0.5551 0.12674 0.30359 0.0
C1037 C 0.55884 0.13578 0.35044 0.0
C1038 C 0.53531 0.12499 0.28483 0.0
C1039 C 0.51851 0.13216 0.31244 0.0
C1040 C 0.52232 0.14086 0.35998 0.0
C1041 C 0.5422 0.14279 0.37847 0.0
C1042 C 0.4636 0.14596 0.27814 0.0
C1043 C 0.45838 0.13058 0.24395 0.0
C1044 C 0.48284 0.14634 0.30094 0.0
C1045 C 0.49738 0.13117 0.29075 0.0
C1046 C 0.49172 0.11538 0.25796 0.0
C1047 C 0.47264 0.11518 0.23473 0.0
H1048 H 0.11079 0.55059 0.81663 0.0
H1049 H 0.15186 0.57412 0.70466 0.0
H1050 H 0.11207 0.51755 0.77726 0.0
H1051 H 0.15215 0.54117 0.66308 0.0
H1052 H 0.16832 0.47348 0.64044 0.0
H1053 H 0.16511 0.50828 0.6705 0.0
H1054 H 0.10277 0.49656 0.71097 0.0
H1055 H 0.10656 0.46145 0.68281 0.0
C1056 C 0.12007 0.54881 0.78339 0.0
C1057 C 0.13149 0.56519 0.76459 0.0
C1058 C 0.12053 0.52977 0.7601 0.0
C1059 C 0.13226 0.52636 0.71669 0.0
C1060 C 0.14318 0.54293 0.69683 0.0
C1061 C 0.1428 0.56202 0.7204 0.0
C1062 C 0.1539 0.47849 0.65539 0.0
C1063 C 0.13776 0.46473 0.65991 0.0
C1064 C 0.15197 0.49852 0.67243 0.0
C1065 C 0.13372 0.50547 0.69397 0.0
C1066 C 0.11724 0.49182 0.69592 0.0
C1067 C 0.11927 0.47172 0.67924 0.0
H1068 H 0.4541 0.90075 0.28017 0.0
H1069 H 0.4783 0.87216 0.4127 0.0
H1070 H 0.48829 0.9032 0.24485 0.0
H1071 H 0.51265 0.87504 0.37805 0.0
H1072 H 0.57327 0.90137 0.30991 0.0
H1073 H 0.53994 0.90051 0.35021 0.0
H1074 H 0.51359 0.8777 0.2133 0.0
H1075 H 0.5467 0.87765 0.17367 0.0
C1076 C 0.46682 0.89542 0.30224 0.0
C1077 C 0.46351 0.88671 0.34972 0.0
C1078 C 0.4864 0.89666 0.28187 0.0
C1079 C 0.5033 0.8893 0.30852 0.0
C1080 C 0.50006 0.8811 0.35673 0.0
C1081 C 0.48039 0.87959 0.3768 0.0
C1082 C 0.56048 0.89589 0.28843 0.0
C1083 C 0.56297 0.88983 0.23793 0.0
C1084 C 0.54129 0.8955 0.31162 0.0
C1085 C 0.52396 0.88931 0.28486 0.0
C1086 C 0.52647 0.883 0.2348 0.0
C1087 C 0.5456 0.88309 0.21192 0.0
H1088 H 0.85206 0.97173 0.62178 0.0
H1089 H 0.91486 0.9634 0.58314 0.0
H1090 H 0.85368 1.0069 0.59269 0.0
H1091 H 0.91671 0.9988 0.55452 0.0
H1092 H 0.91455 0.06932 0.54025 0.0
H1093 H 0.91377 0.03603 0.5818 0.0
H1094 H 0.85746 0.02234 0.50692 0.0
H1095 H 0.85838 0.05528 0.46536 0.0
C1096 C 0.8663 0.97758 0.60764 0.0
C1097 C 0.88326 0.9648 0.60407 0.0
C1098 C 0.86723 0.99768 0.59077 0.0
C1099 C 0.88527 1.00568 0.5707 0.0
C1100 C 0.90259 0.99319 0.56986 0.0
C1101 C 0.90156 0.97293 0.58616 0.0
C1102 C 0.90189 0.05927 0.53329 0.0
C1103 C 0.88652 0.06497 0.49951 0.0
C1104 C 0.90153 0.04014 0.55674 0.0
C1105 C 0.88555 0.02645 0.54777 0.0
C1106 C 0.8699 0.03249 0.51515 0.0
C1107 C 0.87046 0.05138 0.49111 0.0
H1108 H 0.97528 0.16903 0.38249 0.0
H1109 H 0.96266 0.10748 0.42556 0.0
H1110 H 1.00964 0.16595 0.41558 0.0
H1111 H 0.99736 0.10377 0.45647 0.0
H1112 H 0.05054 0.11124 0.56429 0.0
H1113 H 0.01781 0.11285 0.52347 0.0
H1114 H 0.04249 0.15328 0.41144 0.0
H1115 H 0.07501 0.15279 0.45463 0.0
C1116 C 0.98008 0.15467 0.39816 0.0
C1117 C 0.96625 0.13856 0.40191 0.0
C1118 C 0.99987 0.15281 0.417 0.0
C1119 C 1.00653 0.13465 0.43955 0.0
C1120 C 0.99285 0.11819 0.44074 0.0
C1121 C 0.97298 0.12017 0.4224 0.0
C1122 C 0.04905 0.12072 0.53132 0.0
C1123 C 0.06564 0.13211 0.51354 0.0
C1124 C 0.03018 0.12136 0.50713 0.0
C1125 C 0.02717 0.13322 0.46375 0.0
C1126 C 0.04391 0.14419 0.44509 0.0
C1127 C 0.06279 0.14368 0.46961 0.0
H1128 H 0.11068 0.9526 0.54279 0.0
H1129 H 0.16262 0.96835 0.45265 0.0
H1130 H 0.11192 0.98617 0.58299 0.0
H1131 H 0.16413 1.00153 0.49322 0.0
H1132 H 0.17287 0.05143 0.61059 0.0
H1133 H 0.17088 0.01635 0.58098 0.0
H1134 H 0.10693 0.02384 0.55323 0.0
H1135 H 0.10914 0.05924 0.58177 0.0
C1136 C 0.12251 0.96311 0.53212 0.0
C1137 C 0.13657 0.95781 0.49459 0.0
C1138 C 0.12314 0.98237 0.55484 0.0
C1139 C 0.13814 0.99656 0.5414 0.0
C1140 C 0.15248 0.99096 0.50481 0.0
C1141 C 0.15158 0.97196 0.48142 0.0
C1142 C 0.15837 0.04552 0.59839 0.0
C1143 C 0.14124 0.05817 0.5975 0.0
C1144 C 0.15723 0.02546 0.58135 0.0
C1145 C 0.13879 0.01731 0.56418 0.0
C1146 C 0.12136 0.02961 0.56622 0.0
C1147 C 0.1226 0.04986 0.58248 0.0
H1148 H 0.96985 0.91893 0.55679 0.0
H1149 H 0.95376 0.86456 0.47663 0.0
H1150 H 1.003 0.91889 0.51678 0.0
H1151 H 0.98731 0.86384 0.43798 0.0
H1152 H 0.04545 0.87289 0.34991 0.0
H1153 H 1.01088 0.87651 0.38152 0.0
H1154 H 0.03429 0.90359 0.51753 0.0
H1155 H 0.06856 0.90106 0.48402 0.0
C1156 C 0.97345 0.90686 0.5307 0.0
C1157 C 0.9591 0.8917 0.52018 0.0
C1158 C 0.99262 0.90673 0.50785 0.0
C1159 C 0.99828 0.89123 0.47419 0.0
C1160 C 0.98368 0.87625 0.46294 0.0
C1161 C 0.96435 0.87658 0.4853 0.0
C1162 C 0.04307 0.88024 0.3858 0.0
C1163 C 0.05971 0.88726 0.4138 0.0
C1164 C 0.02322 0.88196 0.40458 0.0
C1165 C 0.01942 0.89038 0.45245 0.0
C1166 C 0.03623 0.89746 0.48015 0.0
C1167 C 0.05601 0.89596 0.46106 0.0
H1168 H 0.40395 0.31499 0.06724 0.0
H1169 H 0.37661 0.30763 0.21317 0.0
H1170 H 0.40677 0.27805 0.05904 0.0
H1171 H 0.38015 0.27082 0.20598 0.0
H1172 H 0.40578 0.20581 0.19096 0.0
H1173 H 0.40774 0.24282 0.19841 0.0
H1174 H 0.3802 0.24898 0.05228 0.0
H1175 H 0.37755 0.21206 0.04581 0.0
C1176 C 0.39902 0.30548 0.09807 0.0
C1177 C 0.39053 0.31428 0.14136 0.0
C1178 C 0.40051 0.28434 0.09327 0.0
C1179 C 0.39381 0.27145 0.13198 0.0
C1180 C 0.38577 0.28029 0.1758 0.0
C1181 C 0.38388 0.3014 0.18012 0.0
C1182 C 0.40051 0.2151 0.16007 0.0
C1183 C 0.39194 0.20597 0.11731 0.0
C1184 C 0.40149 0.23628 0.16447 0.0
C1185 C 0.39419 0.24889 0.12587 0.0
C1186 C 0.38623 0.23974 0.08238 0.0
C1187 C 0.38486 0.21856 0.07846 0.0
H1188 H 0.20695 0.62108 0.80942 0.0
H1189 H 0.21374 0.64975 0.95389 0.0
H1190 H 0.244 0.61937 0.80084 0.0
H1191 H 0.25063 0.6472 0.94646 0.0
H1192 H 0.31571 0.62086 0.93257 0.0
H1193 H 0.2787 0.61883 0.93933 0.0
H1194 H 0.2729 0.64728 0.79418 0.0
H1195 H 0.30994 0.65004 0.78843 0.0
C1196 C 0.21637 0.62656 0.83983 0.0
C1197 C 0.20737 0.63506 0.88291 0.0
C1198 C 0.23755 0.62571 0.8348 0.0
C1199 C 0.25028 0.63301 0.87312 0.0
C1200 C 0.24127 0.64115 0.91661 0.0
C1201 C 0.22012 0.64245 0.92108 0.0
C1202 C 0.30651 0.62646 0.90188 0.0
C1203 C 0.31576 0.63547 0.8598 0.0
C1204 C 0.28533 0.62539 0.90584 0.0
C1205 C 0.27283 0.6329 0.86732 0.0
C1206 C 0.28209 0.6412 0.8243 0.0
C1207 C 0.3033 0.64269 0.82087 0.0
H1208 H 0.60559 0.8159 0.15413 0.0
H1209 H 0.66299 0.81285 0.07765 0.0
H1210 H 0.60474 0.77868 0.15954 0.0
H1211 H 0.66238 0.77583 0.08317 0.0
H1212 H 0.66759 0.71418 0.16078 0.0
H1213 H 0.66559 0.75106 0.15351 0.0
H1214 H 0.60306 0.7462 0.10777 0.0
H1215 H 0.60528 0.70907 0.11463 0.0
C1216 C 0.6178 0.8072 0.13761 0.0
C1217 C 0.63427 0.81717 0.11514 0.0
C1218 C 0.61738 0.78592 0.1408 0.0
C1219 C 0.63361 0.77421 0.12231 0.0
C1220 C 0.64976 0.78432 0.09847 0.0
C1221 C 0.65005 0.8055 0.09478 0.0
C1222 C 0.6534 0.72104 0.1494 0.0
C1223 C 0.63666 0.70879 0.13768 0.0
C1224 C 0.65227 0.74215 0.14488 0.0
C1225 C 0.63425 0.75167 0.12928 0.0
C1226 C 0.61718 0.73942 0.11978 0.0
C1227 C 0.61841 0.71818 0.12371 0.0
H1228 H 0.71166 0.35297 0.83987 0.0
H1229 H 0.70754 0.41649 0.87514 0.0
H1230 H 0.7486 0.3546 0.84681 0.0
H1231 H 0.74466 0.41831 0.88193 0.0
H1232 H 0.81439 0.41433 0.84201 0.0
H1233 H 0.77729 0.41514 0.83345 0.0
H1234 H 0.77322 0.35899 0.91598 0.0
H1235 H 0.81015 0.35838 0.92442 0.0
C1236 C 0.71875 0.36735 0.84844 0.0
C1237 C 0.70676 0.38458 0.85712 0.0
C1238 C 0.7399 0.36828 0.85293 0.0
C1239 C 0.74968 0.38653 0.86568 0.0
C1240 C 0.73769 0.40401 0.87202 0.0
C1241 C 0.71645 0.40301 0.86803 0.0
C1242 C 0.80544 0.40243 0.85905 0.0
C1243 C 0.81505 0.38639 0.88424 0.0
C1244 C 0.78422 0.40283 0.85408 0.0
C1245 C 0.77219 0.38701 0.87352 0.0
C1246 C 0.78194 0.37126 0.89982 0.0
C1247 C 0.80307 0.37099 0.90521 0.0
H1248 H 0.85887 0.71231 0.58736 0.0
H1249 H 0.91831 0.70792 0.653 0.0
H1250 H 0.86027 0.74927 0.59385 0.0
H1251 H 0.91995 0.7451 0.65924 0.0
H1252 H 0.91898 0.81497 0.61399 0.0
H1253 H 0.92055 0.77779 0.60744 0.0
H1254 H 0.85959 0.77381 0.66533 0.0
H1255 H 0.85826 0.81075 0.67219 0.0
C1256 C 0.87239 0.71935 0.6024 0.0
C1257 C 0.88849 0.7073 0.61959 0.0
C1258 C 0.87314 0.7405 0.60662 0.0
C1259 C 0.89012 0.75023 0.62769 0.0
C1260 C 0.90666 0.73816 0.64278 0.0
C1261 C 0.90578 0.7169 0.63911 0.0
C1262 C 0.90612 0.80603 0.62608 0.0
C1263 C 0.88849 0.81568 0.6435 0.0
C1264 C 0.90697 0.78477 0.62225 0.0
C1265 C 0.89009 0.77276 0.63514 0.0
C1266 C 0.87274 0.78254 0.65419 0.0
C1267 C 0.87201 0.80368 0.6586 0.0
H1268 H 0.81454 0.10792 0.37507 0.0
H1269 H 0.81036 0.17146 0.3401 0.0
H1270 H 0.77745 0.10607 0.38217 0.0
H1271 H 0.77343 0.1698 0.34722 0.0
H1272 H 0.71168 0.1659 0.4239 0.0
H1273 H 0.74861 0.16553 0.41533 0.0
H1274 H 0.74492 0.10895 0.3345 0.0
H1275 H 0.70782 0.1095 0.34333 0.0
C1276 C 0.80562 0.12141 0.36818 0.0
C1277 C 0.81529 0.13985 0.35725 0.0
C1278 C 0.78439 0.12039 0.3723 0.0
C1279 C 0.77237 0.13785 0.366 0.0
C1280 C 0.78214 0.15613 0.35333 0.0
C1281 C 0.80329 0.15708 0.34878 0.0
C1282 C 0.71885 0.15328 0.40493 0.0
C1283 C 0.70697 0.13768 0.38452 0.0
C1284 C 0.73997 0.15313 0.39948 0.0
C1285 C 0.74984 0.13731 0.3737 0.0
C1286 C 0.73791 0.12133 0.35473 0.0
C1287 C 0.71669 0.12159 0.35981 0.0
H1288 H 0.16685 0.31105 0.59859 0.0
H1289 H 0.10479 0.31451 0.6478 0.0
H1290 H 0.16561 0.27408 0.6037 0.0
H1291 H 0.10335 0.27729 0.65274 0.0
H1292 H 0.10645 0.20804 0.60513 0.0
H1293 H 0.10503 0.24526 0.60055 0.0
H1294 H 0.16364 0.24865 0.67197 0.0
H1295 H 0.16486 0.21164 0.67652 0.0
C1296 C 0.15287 0.3038 0.6101 0.0
C1297 C 0.13597 0.3156 0.62321 0.0
C1298 C 0.15218 0.28264 0.61344 0.0
C1299 C 0.13447 0.27262 0.62936 0.0
C1300 C 0.11724 0.28445 0.64036 0.0
C1301 C 0.11802 0.30573 0.63753 0.0
C1302 C 0.11881 0.21686 0.62056 0.0
C1303 C 0.13573 0.20704 0.64127 0.0
C1304 C 0.11804 0.23814 0.61791 0.0
C1305 C 0.13434 0.25002 0.63533 0.0
C1306 C 0.15097 0.24005 0.6574 0.0
C1307 C 0.15162 0.21887 0.6605 0.0
H1308 H 0.21392 0.87467 0.30151 0.0
H1309 H 0.20715 0.90318 0.44619 0.0
H1310 H 0.2508 0.87772 0.3082 0.0
H1311 H 0.24417 0.90545 0.45398 0.0
H1312 H 0.31001 0.87573 0.46716 0.0
H1313 H 0.27306 0.87825 0.46093 0.0
H1314 H 0.27898 0.90561 0.31451 0.0
H1315 H 0.31604 0.90385 0.32179 0.0
C1316 C 0.2203 0.88205 0.3342 0.0
C1317 C 0.20755 0.88922 0.3727 0.0
C1318 C 0.24145 0.88366 0.33823 0.0
C1319 C 0.25046 0.89191 0.38155 0.0
C1320 C 0.23773 0.89903 0.42013 0.0
C1321 C 0.21655 0.89784 0.41557 0.0
C1322 C 0.30345 0.88295 0.43445 0.0
C1323 C 0.316 0.8901 0.39555 0.0
C1324 C 0.28226 0.88424 0.43068 0.0
C1325 C 0.27304 0.89217 0.38725 0.0
C1326 C 0.28559 0.89941 0.34843 0.0
C1327 C 0.30679 0.89853 0.35272 0.0
H1328 H 0.2169 0.10047 0.81 0.0
H1329 H 0.23444 0.16094 0.76592 0.0
H1330 H 0.24418 0.09983 0.87111 0.0
H1331 H 0.26059 0.16091 0.82971 0.0
H1332 H 0.31844 0.15043 0.91789 0.0
H1333 H 0.29203 0.14992 0.85425 0.0
H1334 H 0.2561 0.11046 0.94835 0.0
H1335 H 0.28304 0.11044 0.01109 0.0
C1336 C 0.22651 0.11368 0.81301 0.0
C1337 C 0.22314 0.13075 0.78217 0.0
C1338 C 0.24211 0.11344 0.8491 0.0
C1339 C 0.25488 0.13034 0.85628 0.0
C1340 C 0.25149 0.1474 0.82544 0.0
C1341 C 0.23607 0.14755 0.78899 0.0
C1342 C 0.30487 0.1417 0.92517 0.0
C1343 C 0.30298 0.13053 0.97001 0.0
C1344 C 0.28953 0.14146 0.8885 0.0
C1345 C 0.27154 0.13024 0.89549 0.0
C1346 C 0.2697 0.11905 0.94052 0.0
C1347 C 0.28519 0.11908 0.97693 0.0
H1348 H 0.1601 0.80951 0.18758 0.0
H1349 H 0.10166 0.78966 0.24243 0.0
H1350 H 0.16001 0.78209 0.12671 0.0
H1351 H 0.10123 0.76313 0.17876 0.0
H1352 H 0.10165 0.73427 0.01489 0.0
H1353 H 0.10118 0.76078 0.07859 0.0
H1354 H 0.16011 0.74206 0.13 0.0
H1355 H 0.16025 0.71465 0.06907 0.0
C1356 C 0.14725 0.79936 0.18743 0.0
C1357 C 0.13096 0.80213 0.22125 0.0
C1358 C 0.14718 0.78364 0.15181 0.0
C1359 C 0.13061 0.77037 0.14767 0.0
C1360 C 0.11417 0.77318 0.18056 0.0
C1361 C 0.11442 0.78862 0.21708 0.0
C1362 C 0.11443 0.73535 0.04011 0.0
C1363 C 0.13102 0.7219 0.03576 0.0
C1364 C 0.11416 0.75078 0.07665 0.0
C1365 C 0.13063 0.75364 0.10939 0.0
C1366 C 0.14725 0.74046 0.10504 0.0
C1367 C 0.14735 0.72474 0.06939 0.0
H1368 H 0.71704 0.92305 0.95049 0.0
H1369 H 0.73344 0.8621 0.99316 0.0
H1370 H 0.74419 0.92331 0.88895 0.0
H1371 H 0.75941 0.86176 0.92892 0.0
H1372 H 0.81714 0.8711 0.83925 0.0
H1373 H 0.79094 0.87193 0.90345 0.0
H1374 H 0.75577 0.91282 0.81143 0.0
H1375 H 0.78253 0.91253 0.74821 0.0
C1376 C 0.72637 0.90965 0.9471 0.0
C1377 C 0.7227 0.89256 0.97766 0.0
C1378 C 0.74189 0.90967 0.91073 0.0
C1379 C 0.75429 0.89252 0.90296 0.0
C1380 C 0.75062 0.87546 0.93359 0.0
C1381 C 0.73528 0.87553 0.97032 0.0
C1382 C 0.80377 0.8802 0.83254 0.0
C1383 C 0.80206 0.89169 0.78815 0.0
C1384 C 0.78855 0.88064 0.86954 0.0
C1385 C 0.77084 0.89237 0.86335 0.0
C1386 C 0.76916 0.90384 0.81871 0.0
C1387 C 0.78455 0.90362 0.78199 0.0
H1388 H 0.90167 0.24375 0.27013 0.0
H1389 H 0.88152 0.20193 0.15605 0.0
H1390 H 0.90102 0.27126 0.20842 0.0
H1391 H 0.88143 0.22912 0.09442 0.0
H1392 H 0.86427 0.28562 1.00506 0.0
H1393 H 0.86403 0.25915 0.06885 0.0
H1394 H 0.91825 0.28429 0.13448 0.0
H1395 H 0.91812 0.3112 0.07146 0.0
C1396 C 0.89702 0.24037 0.23204 0.0
C1397 C 0.89175 0.22042 0.21845 0.0
C1398 C 0.89686 0.25617 0.19633 0.0
C1399 C 0.89122 0.25259 0.14594 0.0
C1400 C 0.88569 0.23269 0.13268 0.0
C1401 C 0.88597 0.21694 0.16818 0.0
C1402 C 0.87609 0.28568 0.03323 0.0
C1403 C 0.89122 0.30074 0.0326 0.0
C1404 C 0.87608 0.27027 0.06976 0.0
C1405 C 0.89114 0.26936 0.10725 0.0
C1406 C 0.90624 0.28446 0.10677 0.0
C1407 C 0.90632 0.29983 0.07002 0.0
H1408 H 0.21568 0.42175 0.44958 0.0
H1409 H 0.23363 0.36183 0.49723 0.0
H1410 H 0.24311 0.42207 0.38888 0.0
H1411 H 0.25985 0.36146 0.4337 0.0
H1412 H 0.31762 0.3712 0.34491 0.0
H1413 H 0.29114 0.37214 0.40841 0.0
H1414 H 0.25541 0.41113 0.31267 0.0
H1415 H 0.28248 0.41081 0.25024 0.0
C1416 C 0.2254 0.40859 0.44745 0.0
C1417 C 0.2221 0.39177 0.47918 0.0
C1418 C 0.24109 0.40863 0.41156 0.0
C1419 C 0.254 0.39176 0.40542 0.0
C1420 C 0.25066 0.37496 0.43714 0.0
C1421 C 0.23518 0.37503 0.47345 0.0
C1422 C 0.30408 0.37993 0.33731 0.0
C1423 C 0.30228 0.39088 0.29214 0.0
C1424 C 0.2887 0.38042 0.37386 0.0
C1425 C 0.27073 0.39163 0.36636 0.0
C1426 C 0.26898 0.40258 0.32093 0.0
C1427 C 0.28454 0.40233 0.28469 0.0
H1428 H 0.36436 0.78793 0.51714 0.0
H1429 H 0.41981 0.81134 0.58038 0.0
H1430 H 0.36419 0.76091 0.57942 0.0
H1431 H 0.42002 0.78383 0.64172 0.0
H1432 H 0.40419 0.74258 0.77631 0.0
H1433 H 0.40359 0.77062 0.71618 0.0
H1434 H 0.38084 0.73021 0.60193 0.0
H1435 H 0.3808 0.70252 0.66213 0.0
C1436 C 0.37655 0.78739 0.54431 0.0
C1437 C 0.39209 0.80203 0.54328 0.0
C1438 C 0.37657 0.77166 0.57992 0.0
C1439 C 0.39211 0.76996 0.61601 0.0
C1440 C 0.40765 0.78462 0.61511 0.0
C1441 C 0.40767 0.80033 0.57929 0.0
C1442 C 0.39885 0.7397 0.73853 0.0
C1443 C 0.39264 0.72008 0.72444 0.0
C1444 C 0.39872 0.75579 0.7037 0.0
C1445 C 0.39221 0.75286 0.65372 0.0
C1446 C 0.38578 0.73329 0.63995 0.0
C1447 C 0.386 0.71723 0.67458 0.0
H1448 H 0.71458 0.6022 0.31843 0.0
H1449 H 0.73397 0.66174 0.27091 0.0
H1450 H 0.74131 0.60181 0.38153 0.0
H1451 H 0.76004 0.66152 0.33553 0.0
H1452 H 0.78943 0.66237 0.49389 0.0
H1453 H 0.76331 0.66225 0.42938 0.0
H1454 H 0.77923 0.60099 0.38977 0.0
H1455 H 0.80601 0.60124 0.45275 0.0
C1456 C 0.72454 0.61518 0.32077 0.0
C1457 C 0.72176 0.63202 0.28876 0.0
C1458 C 0.7399 0.61496 0.35747 0.0
C1459 C 0.75288 0.63167 0.36409 0.0
C1460 C 0.75019 0.64848 0.33224 0.0
C1461 C 0.73504 0.6486 0.29506 0.0
C1462 C 0.78773 0.64889 0.47117 0.0
C1463 C 0.80024 0.63184 0.47921 0.0
C1464 C 0.77255 0.64883 0.43405 0.0
C1465 C 0.76907 0.63163 0.40402 0.0
C1466 C 0.78126 0.61446 0.41242 0.0
C1467 C 0.79665 0.61461 0.44904 0.0
H1468 H 0.65804 0.23662 0.51109 0.0
H1469 H 0.6043 0.21121 0.57866 0.0
H1470 H 0.65859 0.26302 0.57486 0.0
H1471 H 0.60442 0.23815 0.64151 0.0
H1472 H 0.62077 0.27921 0.77607 0.0
H1473 H 0.62135 0.25148 0.71497 0.0
H1474 H 0.64179 0.29304 0.60047 0.0
H1475 H 0.64189 0.32037 0.66152 0.0
C1476 C 0.64631 0.23657 0.53952 0.0
C1477 C 0.63112 0.22156 0.5392 0.0
C1478 C 0.64649 0.25197 0.57604 0.0
C1479 C 0.63152 0.25297 0.61378 0.0
C1480 C 0.61636 0.23792 0.61363 0.0
C1481 C 0.61614 0.22253 0.57694 0.0
C1482 C 0.62562 0.2824 0.73802 0.0
C1483 C 0.63116 0.30224 0.7241 0.0
C1484 C 0.62573 0.26648 0.70264 0.0
C1485 C 0.63156 0.26983 0.65225 0.0
C1486 C 0.63739 0.28962 0.63872 0.0
C1487 C 0.6372 0.30547 0.67389 0.0
loop_
_geom_bond_atom_site_label_1
_geom_bond_atom_site_label_2
_geom_bond_distance
_geom_bond_site_symmetry_2
_ccdc_geom_bond_type
C0 C1 1.443 . S
C0 N4 1.376 . S
C0 C38 1.389 . S
C1 C0 1.443 . S
C1 C2 1.340 . S
C1 H41 0.951 . S
C2 C1 1.340 . S
C2 C3 1.439 . S
C2 H42 0.950 . S
C3 C2 1.439 . S
C3 N4 1.374 . S
C3 C37 1.395 . S
N4 C0 1.376 . S
N4 C3 1.374 . S
N4 Co5 2.008 . S
Co5 N4 2.008 . S
Co5 N6 1.995 . S
Co5 N11 2.008 . S
Co5 N16 1.995 . S
Co5 N21 2.282 . S
Co5 N27 2.282 . S
N6 Co5 1.995 . S
N6 C7 1.376 . S
N6 C10 1.383 . S
C7 N6 1.376 . S
C7 C8 1.446 . S
C7 C37 1.391 . S
C8 C7 1.446 . S
C8 C9 1.339 . S
C8 H43 0.949 . S
C9 C8 1.339 . S
C9 C10 1.439 . S
C9 H44 0.950 . S
C10 N6 1.383 . S
C10 C9 1.439 . S
C10 C39 1.392 . S
N11 Co5 2.008 . S
N11 C12 1.376 . S
N11 C15 1.374 . S
C12 N11 1.376 . S
C12 C13 1.443 . S
C12 C39 1.389 . S
C13 C12 1.443 . S
C13 C14 1.340 . S
C13 H45 0.951 . S
C14 C13 1.340 . S
C14 C15 1.439 . S
C14 H46 0.950 1_554 S
C15 N11 1.374 . S
C15 C14 1.439 . S
C15 C40 1.395 . S
N16 Co5 1.995 . S
N16 C17 1.376 . S
N16 C20 1.383 . S
C17 N16 1.376 . S
C17 C18 1.446 . S
C17 C40 1.391 . S
C18 C17 1.446 . S
C18 C19 1.339 . S
C18 H47 0.949 . S
C19 C18 1.339 . S
C19 C20 1.439 . S
C19 H48 0.950 . S
C20 N16 1.383 . S
C20 C19 1.439 . S
C20 C38 1.392 . S
N21 Co5 2.282 . S
N21 C24 1.332 . S
N21 C26 1.332 . S
C22 C23 1.386 . S
C22 C25 1.388 . S
C23 C22 1.386 . S
C23 C24 1.382 . S
C23 H49 0.950 1_554 S
C24 N21 1.332 . S
C24 C23 1.382 . S
C24 H35 0.952 . S
C25 C22 1.388 . S
C25 C26 1.382 . S
C25 H50 0.950 . S
C26 N21 1.332 . S
C26 C25 1.382 . S
C26 H36 0.948 . S
N27 Co5 2.282 . S
N27 C31 1.332 . S
N27 C32 1.332 . S
C28 C29 1.388 . S
C28 C32 1.382 . S
C28 H51 0.950 . S
C29 C28 1.388 . S
C29 C30 1.386 . S
C30 C29 1.386 . S
C30 C31 1.382 . S
C30 H52 0.950 . S
C31 N27 1.332 . S
C31 C30 1.382 . S
C31 H33 0.952 . S
C32 N27 1.332 . S
C32 C28 1.382 . S
C32 H34 0.948 . S
H33 C31 0.952 . S
H34 C32 0.948 . S
H35 C24 0.952 . S
H36 C26 0.948 . S
C37 C3 1.395 . S
C37 C7 1.391 . S
C38 C0 1.389 . S
C38 C20 1.392 . S
C39 C10 1.392 . S
C39 C12 1.389 . S
C40 C15 1.395 . S
C40 C17 1.391 . S
H41 C1 0.951 . S
H42 C2 0.950 . S
H43 C8 0.949 . S
H44 C9 0.950 . S
H45 C13 0.951 . S
H46 C14 0.950 1_556 S
H47 C18 0.949 . S
H48 C19 0.950 . S
H49 C23 0.950 1_556 S
H50 C25 0.950 . S
H51 C28 0.950 . S
H52 C30 0.950 . S
C53 C54 1.443 . S
C53 N57 1.376 . S
C53 C91 1.389 . S
C54 C53 1.443 . S
C54 C55 1.340 . S
C54 H94 0.951 . S
C55 C54 1.340 . S
C55 C56 1.439 . S
C55 H95 0.950 . S
C56 C55 1.439 . S
C56 N57 1.374 . S
C56 C90 1.395 . S
N57 C53 1.376 . S
N57 C56 1.374 . S
N57 Co58 2.008 . S
Co58 N57 2.008 . S
Co58 N59 1.995 . S
Co58 N64 2.008 . S
Co58 N69 1.995 . S
Co58 N74 2.282 . S
Co58 N80 2.282 . S
N59 Co58 1.995 . S
N59 C60 1.376 . S
N59 C63 1.383 . S
C60 N59 1.376 . S
C60 C61 1.446 . S
C60 C90 1.391 . S
C61 C60 1.446 . S
C61 C62 1.339 . S
C61 H96 0.949 1_556 S
C62 C61 1.339 . S
C62 C63 1.439 . S
C62 H97 0.950 . S
C63 N59 1.383 . S
C63 C62 1.439 . S
C63 C92 1.392 . S
N64 Co58 2.008 . S
N64 C65 1.376 . S
N64 C68 1.374 . S
C65 N64 1.376 . S
C65 C66 1.443 . S
C65 C92 1.389 . S
C66 C65 1.443 . S
C66 C67 1.340 . S
C66 H98 0.951 . S
C67 C66 1.340 . S
C67 C68 1.439 . S
C67 H99 0.950 . S
C68 N64 1.374 . S
C68 C67 1.439 . S
C68 C93 1.395 . S
N69 Co58 1.995 . S
N69 C70 1.376 . S
N69 C73 1.383 . S
C70 N69 1.376 . S
C70 C71 1.446 . S
C70 C93 1.391 . S
C71 C70 1.446 . S
C71 C72 1.339 . S
C71 H100 0.949 . S
C72 C71 1.339 . S
C72 C73 1.439 . S
C72 H101 0.950 . S
C73 N69 1.383 . S
C73 C72 1.439 . S
C73 C91 1.392 . S
N74 Co58 2.282 . S
N74 C77 1.332 . S
N74 C79 1.332 . S
C75 C76 1.386 . S
C75 C78 1.388 . S
C76 C75 1.386 . S
C76 C77 1.382 . S
C76 H102 0.950 . S
C77 N74 1.332 . S
C77 C76 1.382 . S
C77 H88 0.952 . S
C78 C75 1.388 . S
C78 C79 1.382 . S
C78 H103 0.950 1_556 S
C79 N74 1.332 . S
C79 C78 1.382 . S
C79 H89 0.948 . S
N80 Co58 2.282 . S
N80 C84 1.332 . S
N80 C85 1.332 . S
C81 C82 1.388 . S
C81 C85 1.382 . S
C81 H104 0.950 . S
C82 C81 1.388 . S
C82 C83 1.386 . S
C83 C82 1.386 . S
C83 C84 1.382 . S
C83 H105 0.950 . S
C84 N80 1.332 . S
C84 C83 1.382 . S
C84 H86 0.952 . S
C85 N80 1.332 . S
C85 C81 1.382 . S
C85 H87 0.948 . S
H86 C84 0.952 . S
H87 C85 0.948 . S
H88 C77 0.952 . S
H89 C79 0.948 . S
C90 C56 1.395 . S
C90 C60 1.391 . S
C91 C53 1.389 . S
C91 C73 1.392 . S
C92 C63 1.392 . S
C92 C65 1.389 . S
C93 C68 1.395 . S
C93 C70 1.391 . S
H94 C54 0.951 . S
H95 C55 0.950 . S
H96 C61 0.949 1_554 S
H97 C62 0.950 . S
H98 C66 0.951 . S
H99 C67 0.950 . S
H100 C71 0.949 . S
H101 C72 0.950 . S
H102 C76 0.950 . S
H103 C78 0.950 1_554 S
H104 C81 0.950 . S
H105 C83 0.950 . S
C106 C107 1.443 . S
C106 N110 1.376 . S
C106 C144 1.389 . S
C107 C106 1.443 . S
C107 C108 1.340 . S
C107 H147 0.951 . S
C108 C107 1.340 . S
C108 C109 1.439 . S
C108 H148 0.950 . S
C109 C108 1.439 . S
C109 N110 1.374 . S
C109 C143 1.395 . S
N110 C106 1.376 . S
N110 C109 1.374 . S
N110 Co111 2.008 . S
Co111 N110 2.008 . S
Co111 N112 1.995 . S
Co111 N117 2.008 . S
Co111 N122 1.995 . S
Co111 N127 2.282 . S
Co111 N133 2.282 . S
N112 Co111 1.995 . S
N112 C113 1.376 . S
N112 C116 1.383 . S
C113 N112 1.376 . S
C113 C114 1.446 . S
C113 C143 1.391 . S
C114 C113 1.446 . S
C114 C115 1.339 . S
C114 H149 0.949 . S
C115 C114 1.339 . S
C115 C116 1.439 . S
C115 H150 0.950 . S
C116 N112 1.383 . S
C116 C115 1.439 . S
C116 C145 1.392 . S
N117 Co111 2.008 . S
N117 C118 1.376 . S
N117 C121 1.374 . S
C118 N117 1.376 . S
C118 C119 1.443 . S
C118 C145 1.389 . S
C119 C118 1.443 . S
C119 C120 1.340 . S
C119 H151 0.951 . S
C120 C119 1.340 . S
C120 C121 1.439 . S
C120 H152 0.950 1_554 S
C121 N117 1.374 . S
C121 C120 1.439 . S
C121 C146 1.395 . S
N122 Co111 1.995 . S
N122 C123 1.376 . S
N122 C126 1.383 . S
C123 N122 1.376 . S
C123 C124 1.446 . S
C123 C146 1.391 . S
C124 C123 1.446 . S
C124 C125 1.339 . S
C124 H153 0.949 . S
C125 C124 1.339 . S
C125 C126 1.439 . S
C125 H154 0.950 . S
C126 N122 1.383 . S
C126 C125 1.439 . S
C126 C144 1.392 . S
N127 Co111 2.282 . S
N127 C130 1.332 . S
N127 C132 1.332 . S
C128 C129 1.386 . S
C128 C131 1.388 . S
C129 C128 1.386 . S
C129 C130 1.382 . S
C129 H155 0.950 1_554 S
C130 N127 1.332 . S
C130 C129 1.382 . S
C130 H141 0.952 . S
C131 C128 1.388 . S
C131 C132 1.382 . S
C131 H156 0.950 . S
C132 N127 1.332 . S
C132 C131 1.382 . S
C132 H142 0.948 . S
N133 Co111 2.282 . S
N133 C137 1.332 . S
N133 C138 1.332 . S
C134 C135 1.388 . S
C134 C138 1.382 . S
C134 H157 0.950 . S
C135 C134 1.388 . S
C135 C136 1.386 . S
C136 C135 1.386 . S
C136 C137 1.382 . S
C136 H158 0.950 . S
C137 N133 1.332 . S
C137 C136 1.382 . S
C137 H139 0.952 . S
C138 N133 1.332 . S
C138 C134 1.382 . S
C138 H140 0.948 . S
H139 C137 0.952 . S
H140 C138 0.948 . S
H141 C130 0.952 . S
H142 C132 0.948 . S
C143 C109 1.395 . S
C143 C113 1.391 . S
C144 C106 1.389 . S
C144 C126 1.392 . S
C145 C116 1.392 . S
C145 C118 1.389 . S
C146 C121 1.395 . S
C146 C123 1.391 . S
H147 C107 0.951 . S
H148 C108 0.950 . S
H149 C114 0.949 . S
H150 C115 0.950 . S
H151 C119 0.951 . S
H152 C120 0.950 1_556 S
H153 C124 0.949 . S
H154 C125 0.950 . S
H155 C129 0.950 1_556 S
H156 C131 0.950 . S
H157 C134 0.950 . S
H158 C136 0.950 . S
C159 C160 1.443 . S
C159 N163 1.376 . S
C159 C197 1.389 . S
C160 C159 1.443 . S
C160 C161 1.340 . S
C160 H200 0.951 . S
C161 C160 1.340 . S
C161 C162 1.439 . S
C161 H201 0.950 . S
C162 C161 1.439 . S
C162 N163 1.374 . S
C162 C196 1.395 . S
N163 C159 1.376 . S
N163 C162 1.374 . S
N163 Co164 2.008 . S
Co164 N163 2.008 . S
Co164 N165 1.995 . S
Co164 N170 2.008 . S
Co164 N175 1.995 . S
Co164 N180 2.282 . S
Co164 N186 2.282 . S
N165 Co164 1.995 . S
N165 C166 1.376 . S
N165 C169 1.383 . S
C166 N165 1.376 . S
C166 C167 1.446 . S
C166 C196 1.391 . S
C167 C166 1.446 . S
C167 C168 1.339 . S
C167 H202 0.949 1_556 S
C168 C167 1.339 . S
C168 C169 1.439 . S
C168 H203 0.950 . S
C169 N165 1.383 . S
C169 C168 1.439 . S
C169 C198 1.392 . S
N170 Co164 2.008 . S
N170 C171 1.376 . S
N170 C174 1.374 . S
C171 N170 1.376 . S
C171 C172 1.443 . S
C171 C198 1.389 . S
C172 C171 1.443 . S
C172 C173 1.340 . S
C172 H204 0.951 . S
C173 C172 1.340 . S
C173 C174 1.439 . S
C173 H205 0.950 . S
C174 N170 1.374 . S
C174 C173 1.439 . S
C174 C199 1.395 . S
N175 Co164 1.995 . S
N175 C176 1.376 . S
N175 C179 1.383 . S
C176 N175 1.376 . S
C176 C177 1.446 . S
C176 C199 1.391 . S
C177 C176 1.446 . S
C177 C178 1.339 . S
C177 H206 0.949 . S
C178 C177 1.339 . S
C178 C179 1.439 . S
C178 H207 0.950 . S
C179 N175 1.383 . S
C179 C178 1.439 . S
C179 C197 1.392 . S
N180 Co164 2.282 . S
N180 C183 1.332 . S
N180 C185 1.332 . S
C181 C182 1.386 . S
C181 C184 1.388 . S
C182 C181 1.386 . S
C182 C183 1.382 . S
C182 H208 0.950 . S
C183 N180 1.332 . S
C183 C182 1.382 . S
C183 H194 0.952 . S
C184 C181 1.388 . S
C184 C185 1.382 . S
C184 H209 0.950 1_556 S
C185 N180 1.332 . S
C185 C184 1.382 . S
C185 H195 0.948 . S
N186 Co164 2.282 . S
N186 C190 1.332 . S
N186 C191 1.332 . S
C187 C188 1.388 . S
C187 C191 1.382 . S
C187 H210 0.950 . S
C188 C187 1.388 . S
C188 C189 1.386 . S
C189 C188 1.386 . S
C189 C190 1.382 . S
C189 H211 0.950 . S
C190 N186 1.332 . S
C190 C189 1.382 . S
C190 H192 0.952 . S
C191 N186 1.332 . S
C191 C187 1.382 . S
C191 H193 0.948 . S
H192 C190 0.952 . S
H193 C191 0.948 . S
H194 C183 0.952 . S
H195 C185 0.948 . S
C196 C162 1.395 . S
C196 C166 1.391 . S
C197 C159 1.389 . S
C197 C179 1.392 . S
C198 C169 1.392 . S
C198 C171 1.389 . S
C199 C174 1.395 . S
C199 C176 1.391 . S
H200 C160 0.951 . S
H201 C161 0.950 . S
H202 C167 0.949 1_554 S
H203 C168 0.950 . S
H204 C172 0.951 . S
H205 C173 0.950 . S
H206 C177 0.949 . S
H207 C178 0.950 . S
H208 C182 0.950 . S
H209 C184 0.950 1_554 S
H210 C187 0.950 . S
H211 C189 0.950 . S
C212 C213 1.443 1_554 S
C212 N216 1.376 . S
C212 C250 1.389 . S
C213 C212 1.443 1_556 S
C213 C214 1.340 . S
C213 H253 0.951 . S
C214 C213 1.340 . S
C214 C215 1.439 1_556 S
C214 H254 0.950 . S
C215 C214 1.439 1_554 S
C215 N216 1.374 . S
C215 C249 1.395 1_554 S
N216 C212 1.376 . S
N216 C215 1.374 . S
N216 Co217 2.008 . S
Co217 N216 2.008 . S
Co217 N218 1.995 . S
Co217 N223 2.008 . S
Co217 N228 1.995 . S
Co217 N233 2.282 . S
Co217 N239 2.282 . S
N218 Co217 1.995 . S
N218 C219 1.376 . S
N218 C222 1.383 . S
C219 N218 1.376 . S
C219 C220 1.446 . S
C219 C249 1.391 1_554 S
C220 C219 1.446 . S
C220 C221 1.339 . S
C220 H255 0.949 1_554 S
C221 C220 1.339 . S
C221 C222 1.439 . S
C221 H256 0.950 . S
C222 N218 1.383 . S
C222 C221 1.439 . S
C222 C251 1.392 . S
N223 Co217 2.008 . S
N223 C224 1.376 . S
N223 C227 1.374 . S
C224 N223 1.376 . S
C224 C225 1.443 . S
C224 C251 1.389 . S
C225 C224 1.443 . S
C225 C226 1.340 . S
C225 H257 0.951 . S
C226 C225 1.340 . S
C226 C227 1.439 . S
C226 H258 0.950 . S
C227 N223 1.374 . S
C227 C226 1.439 . S
C227 C252 1.395 . S
N228 Co217 1.995 . S
N228 C229 1.376 . S
N228 C232 1.383 . S
C229 N228 1.376 . S
C229 C230 1.446 . S
C229 C252 1.391 . S
C230 C229 1.446 . S
C230 C231 1.339 . S
C230 H259 0.949 . S
C231 C230 1.339 . S
C231 C232 1.439 . S
C231 H260 0.950 . S
C232 N228 1.383 . S
C232 C231 1.439 . S
C232 C250 1.392 . S
N233 Co217 2.282 . S
N233 C236 1.332 . S
N233 C238 1.332 . S
C234 C235 1.386 . S
C234 C237 1.388 . S
C235 C234 1.386 . S
C235 C236 1.382 . S
C235 H261 0.950 . S
C236 N233 1.332 . S
C236 C235 1.382 . S
C236 H247 0.952 . S
C237 C234 1.388 . S
C237 C238 1.382 . S
C237 H262 0.950 . S
C238 N233 1.332 . S
C238 C237 1.382 . S
C238 H248 0.948 . S
N239 Co217 2.282 . S
N239 C243 1.332 . S
N239 C244 1.332 . S
C240 C241 1.388 . S
C240 C244 1.382 . S
C240 H263 0.950 . S
C241 C240 1.388 . S
C241 C242 1.386 1_554 S
C242 C241 1.386 1_556 S
C242 C243 1.382 1_556 S
C242 H264 0.950 . S
C243 N239 1.332 . S
C243 C242 1.382 1_554 S
C243 H245 0.952 . S
C244 N239 1.332 . S
C244 C240 1.382 . S
C244 H246 0.948 . S
H245 C243 0.952 . S
H246 C244 0.948 . S
H247 C236 0.952 . S
H248 C238 0.948 . S
C249 C215 1.395 1_556 S
C249 C219 1.391 1_556 S
C250 C212 1.389 . S
C250 C232 1.392 . S
C251 C222 1.392 . S
C251 C224 1.389 . S
C252 C227 1.395 . S
C252 C229 1.391 . S
H253 C213 0.951 . S
H254 C214 0.950 . S
H255 C220 0.949 1_556 S
H256 C221 0.950 . S
H257 C225 0.951 . S
H258 C226 0.950 . S
H259 C230 0.949 . S
H260 C231 0.950 . S
H261 C235 0.950 . S
H262 C237 0.950 . S
H263 C240 0.950 . S
H264 C242 0.950 . S
C265 C266 1.443 . S
C265 N269 1.376 . S
C265 C303 1.389 . S
C266 C265 1.443 . S
C266 C267 1.340 . S
C266 H306 0.951 . S
C267 C266 1.340 . S
C267 C268 1.439 . S
C267 H307 0.950 . S
C268 C267 1.439 . S
C268 N269 1.374 . S
C268 C302 1.395 . S
N269 C265 1.376 . S
N269 C268 1.374 . S
N269 Co270 2.008 . S
Co270 N269 2.008 . S
Co270 N271 1.995 . S
Co270 N276 2.008 . S
Co270 N281 1.995 . S
Co270 N286 2.282 . S
Co270 N292 2.282 . S
N271 Co270 1.995 . S
N271 C272 1.376 . S
N271 C275 1.383 . S
C272 N271 1.376 . S
C272 C273 1.446 . S
C272 C302 1.391 . S
C273 C272 1.446 . S
C273 C274 1.339 . S
C273 H308 0.949 . S
C274 C273 1.339 . S
C274 C275 1.439 . S
C274 H309 0.950 . S
C275 N271 1.383 . S
C275 C274 1.439 . S
C275 C304 1.392 . S
N276 Co270 2.008 . S
N276 C277 1.376 . S
N276 C280 1.374 . S
C277 N276 1.376 . S
C277 C278 1.443 . S
C277 C304 1.389 . S
C278 C277 1.443 . S
C278 C279 1.340 . S
C278 H310 0.951 . S
C279 C278 1.340 . S
C279 C280 1.439 . S
C279 H311 0.952 . S
C280 N276 1.374 . S
C280 C279 1.439 . S
C280 C305 1.395 . S
N281 Co270 1.995 . S
N281 C282 1.376 . S
N281 C285 1.383 . S
C282 N281 1.376 . S
C282 C283 1.446 1_556 S
C282 C305 1.391 . S
C283 C282 1.446 1_554 S
C283 C284 1.339 1_554 S
C283 H312 0.949 . S
C284 C283 1.339 1_556 S
C284 C285 1.439 . S
C284 H313 0.950 1_556 S
C285 N281 1.383 . S
C285 C284 1.439 . S
C285 C303 1.392 . S
N286 Co270 2.282 . S
N286 C289 1.332 . S
N286 C291 1.332 . S
C287 C288 1.386 . S
C287 C290 1.388 . S
C288 C287 1.386 . S
C288 C289 1.382 . S
C288 H314 0.950 . S
C289 N286 1.332 . S
C289 C288 1.382 . S
C289 H300 0.952 . S
C290 C287 1.388 . S
C290 C291 1.382 . S
C290 H315 0.950 . S
C291 N286 1.332 . S
C291 C290 1.382 . S
C291 H301 0.948 . S
N292 Co270 2.282 . S
N292 C296 1.332 . S
N292 C297 1.332 . S
C293 C294 1.388 1_554 S
C293 C297 1.382 1_554 S
C293 H316 0.950 . S
C294 C293 1.388 1_556 S
C294 C295 1.386 . S
C295 C294 1.386 . S
C295 C296 1.382 . S
C295 H317 0.950 . S
C296 N292 1.332 . S
C296 C295 1.382 . S
C296 H298 0.952 . S
C297 N292 1.332 . S
C297 C293 1.382 1_556 S
C297 H299 0.948 1_556 S
H298 C296 0.952 . S
H299 C297 0.948 1_554 S
H300 C289 0.952 . S
H301 C291 0.948 . S
C302 C268 1.395 . S
C302 C272 1.391 . S
C303 C265 1.389 . S
C303 C285 1.392 . S
C304 C275 1.392 . S
C304 C277 1.389 . S
C305 C280 1.395 . S
C305 C282 1.391 . S
H306 C266 0.951 . S
H307 C267 0.950 . S
H308 C273 0.949 . S
H309 C274 0.950 . S
H310 C278 0.951 . S
H311 C279 0.952 . S
H312 C283 0.949 . S
H313 C284 0.950 1_554 S
H314 C288 0.950 . S
H315 C290 0.950 . S
H316 C293 0.950 . S
H317 C295 0.950 . S
C318 C319 1.443 1_554 S
C318 N322 1.376 . S
C318 C356 1.389 . S
C319 C318 1.443 1_556 S
C319 C320 1.340 . S
C319 H359 0.951 . S
C320 C319 1.340 . S
C320 C321 1.439 1_556 S
C320 H360 0.950 . S
C321 C320 1.439 1_554 S
C321 N322 1.374 . S
C321 C355 1.395 1_554 S
N322 C318 1.376 . S
N322 C321 1.374 . S
N322 Co323 2.008 . S
Co323 N322 2.008 . S
Co323 N324 1.995 . S
Co323 N329 2.008 . S
Co323 N334 1.995 . S
Co323 N339 2.282 . S
Co323 N345 2.282 . S
N324 Co323 1.995 . S
N324 C325 1.376 . S
N324 C328 1.383 . S
C325 N324 1.376 . S
C325 C326 1.446 . S
C325 C355 1.391 1_554 S
C326 C325 1.446 . S
C326 C327 1.339 . S
C326 H361 0.949 1_554 S
C327 C326 1.339 . S
C327 C328 1.439 . S
C327 H362 0.950 . S
C328 N324 1.383 . S
C328 C327 1.439 . S
C328 C357 1.392 . S
N329 Co323 2.008 . S
N329 C330 1.376 . S
N329 C333 1.374 . S
C330 N329 1.376 . S
C330 C331 1.443 . S
C330 C357 1.389 . S
C331 C330 1.443 . S
C331 C332 1.340 . S
C331 H363 0.951 . S
C332 C331 1.340 . S
C332 C333 1.439 . S
C332 H364 0.950 . S
C333 N329 1.374 . S
C333 C332 1.439 . S
C333 C358 1.395 . S
N334 Co323 1.995 . S
N334 C335 1.376 . S
N334 C338 1.383 . S
C335 N334 1.376 . S
C335 C336 1.446 . S
C335 C358 1.391 . S
C336 C335 1.446 . S
C336 C337 1.339 . S
C336 H365 0.949 . S
C337 C336 1.339 . S
C337 C338 1.439 . S
C337 H366 0.950 . S
C338 N334 1.383 . S
C338 C337 1.439 . S
C338 C356 1.392 . S
N339 Co323 2.282 . S
N339 C342 1.332 . S
N339 C344 1.332 . S
C340 C341 1.386 . S
C340 C343 1.388 . S
C341 C340 1.386 . S
C341 C342 1.382 . S
C341 H367 0.950 . S
C342 N339 1.332 . S
C342 C341 1.382 . S
C342 H353 0.952 . S
C343 C340 1.388 . S
C343 C344 1.382 . S
C343 H368 0.950 . S
C344 N339 1.332 . S
C344 C343 1.382 . S
C344 H354 0.948 . S
N345 Co323 2.282 . S
N345 C349 1.332 . S
N345 C350 1.332 . S
C346 C347 1.388 . S
C346 C350 1.382 . S
C346 H369 0.950 . S
C347 C346 1.388 . S
C347 C348 1.386 1_554 S
C348 C347 1.386 1_556 S
C348 C349 1.382 1_556 S
C348 H370 0.950 . S
C349 N345 1.332 . S
C349 C348 1.382 1_554 S
C349 H351 0.952 . S
C350 N345 1.332 . S
C350 C346 1.382 . S
C350 H352 0.948 . S
H351 C349 0.952 . S
H352 C350 0.948 . S
H353 C342 0.952 . S
H354 C344 0.948 . S
C355 C321 1.395 1_556 S
C355 C325 1.391 1_556 S
C356 C318 1.389 . S
C356 C338 1.392 . S
C357 C328 1.392 . S
C357 C330 1.389 . S
C358 C333 1.395 . S
C358 C335 1.391 . S
H359 C319 0.951 . S
H360 C320 0.950 . S
H361 C326 0.949 1_556 S
H362 C327 0.950 . S
H363 C331 0.951 . S
H364 C332 0.950 . S
H365 C336 0.949 . S
H366 C337 0.950 . S
H367 C341 0.950 . S
H368 C343 0.950 . S
H369 C346 0.950 . S
H370 C348 0.950 . S
C371 C372 1.443 . S
C371 N375 1.376 . S
C371 C409 1.389 . S
C372 C371 1.443 . S
C372 C373 1.340 . S
C372 H412 0.951 . S
C373 C372 1.340 . S
C373 C374 1.439 . S
C373 H413 0.950 . S
C374 C373 1.439 . S
C374 N375 1.374 . S
C374 C408 1.395 . S
N375 C371 1.376 . S
N375 C374 1.374 . S
N375 Co376 2.008 . S
Co376 N375 2.008 . S
Co376 N377 1.995 . S
Co376 N382 2.008 . S
Co376 N387 1.995 . S
Co376 N392 2.282 . S
Co376 N398 2.282 . S
N377 Co376 1.995 . S
N377 C378 1.376 . S
N377 C381 1.383 . S
C378 N377 1.376 . S
C378 C379 1.446 . S
C378 C408 1.391 . S
C379 C378 1.446 . S
C379 C380 1.339 . S
C379 H414 0.949 . S
C380 C379 1.339 . S
C380 C381 1.439 . S
C380 H415 0.950 . S
C381 N377 1.383 . S
C381 C380 1.439 . S
C381 C410 1.392 . S
N382 Co376 2.008 . S
N382 C383 1.376 . S
N382 C386 1.374 . S
C383 N382 1.376 . S
C383 C384 1.443 . S
C383 C410 1.389 . S
C384 C383 1.443 . S
C384 C385 1.340 . S
C384 H416 0.951 . S
C385 C384 1.340 . S
C385 C386 1.439 . S
C385 H417 0.952 . S
C386 N382 1.374 . S
C386 C385 1.439 . S
C386 C411 1.395 . S
N387 Co376 1.995 . S
N387 C388 1.376 . S
N387 C391 1.383 . S
C388 N387 1.376 . S
C388 C389 1.446 1_556 S
C388 C411 1.391 . S
C389 C388 1.446 1_554 S
C389 C390 1.339 1_554 S
C389 H418 0.949 . S
C390 C389 1.339 1_556 S
C390 C391 1.439 . S
C390 H419 0.950 1_556 S
C391 N387 1.383 . S
C391 C390 1.439 . S
C391 C409 1.392 . S
N392 Co376 2.282 . S
N392 C395 1.332 . S
N392 C397 1.332 . S
C393 C394 1.386 . S
C393 C396 1.388 . S
C394 C393 1.386 . S
C394 C395 1.382 . S
C394 H420 0.950 . S
C395 N392 1.332 . S
C395 C394 1.382 . S
C395 H406 0.952 . S
C396 C393 1.388 . S
C396 C397 1.382 . S
C396 H421 0.950 . S
C397 N392 1.332 . S
C397 C396 1.382 . S
C397 H407 0.948 . S
N398 Co376 2.282 . S
N398 C402 1.332 . S
N398 C403 1.332 . S
C399 C400 1.388 1_554 S
C399 C403 1.382 1_554 S
C399 H422 0.950 . S
C400 C399 1.388 1_556 S
C400 C401 1.386 . S
C401 C400 1.386 . S
C401 C402 1.382 . S
C401 H423 0.950 . S
C402 N398 1.332 . S
C402 C401 1.382 . S
C402 H404 0.952 . S
C403 N398 1.332 . S
C403 C399 1.382 1_556 S
C403 H405 0.948 1_556 S
H404 C402 0.952 . S
H405 C403 0.948 1_554 S
H406 C395 0.952 . S
H407 C397 0.948 . S
C408 C374 1.395 . S
C408 C378 1.391 . S
C409 C371 1.389 . S
C409 C391 1.392 . S
C410 C381 1.392 . S
C410 C383 1.389 . S
C411 C386 1.395 . S
C411 C388 1.391 . S
H412 C372 0.951 . S
H413 C373 0.950 . S
H414 C379 0.949 . S
H415 C380 0.950 . S
H416 C384 0.951 . S
H417 C385 0.952 . S
H418 C389 0.949 . S
H419 C390 0.950 1_554 S
H420 C394 0.950 . S
H421 C396 0.950 . S
H422 C399 0.950 . S
H423 C401 0.950 . S
C424 C425 1.443 . S
C424 N428 1.376 . S
C424 C462 1.389 . S
C425 C424 1.443 . S
C425 C426 1.340 . S
C425 H465 0.951 . S
C426 C425 1.340 . S
C426 C427 1.439 . S
C426 H466 0.950 . S
C427 C426 1.439 . S
C427 N428 1.374 . S
C427 C461 1.395 . S
N428 C424 1.376 . S
N428 C427 1.374 . S
N428 Co429 2.008 . S
Co429 N428 2.008 . S
Co429 N430 1.995 . S
Co429 N435 2.008 . S
Co429 N440 1.995 . S
Co429 N445 2.282 . S
Co429 N451 2.282 . S
N430 Co429 1.995 . S
N430 C431 1.376 . S
N430 C434 1.383 . S
C431 N430 1.376 . S
C431 C432 1.446 . S
C431 C461 1.391 . S
C432 C431 1.446 . S
C432 C433 1.339 . S
C432 H467 0.949 . S
C433 C432 1.339 . S
C433 C434 1.439 . S
C433 H468 0.950 . S
C434 N430 1.383 . S
C434 C433 1.439 . S
C434 C463 1.392 . S
N435 Co429 2.008 . S
N435 C436 1.376 . S
N435 C439 1.374 . S
C436 N435 1.376 . S
C436 C437 1.443 . S
C436 C463 1.389 . S
C437 C436 1.443 . S
C437 C438 1.340 . S
C437 H469 0.951 . S
C438 C437 1.340 . S
C438 C439 1.439 . S
C438 H470 0.950 . S
C439 N435 1.374 . S
C439 C438 1.439 . S
C439 C464 1.395 . S
N440 Co429 1.995 . S
N440 C441 1.376 . S
N440 C444 1.383 . S
C441 N440 1.376 . S
C441 C442 1.446 . S
C441 C464 1.391 . S
C442 C441 1.446 . S
C442 C443 1.339 . S
C442 H471 0.949 . S
C443 C442 1.339 . S
C443 C444 1.439 . S
C443 H472 0.950 . S
C444 N440 1.383 . S
C444 C443 1.439 . S
C444 C462 1.392 . S
N445 Co429 2.282 . S
N445 C448 1.332 . S
N445 C450 1.332 . S
C446 C447 1.386 . S
C446 C449 1.388 . S
C447 C446 1.386 . S
C447 C448 1.382 . S
C447 H473 0.950 . S
C448 N445 1.332 . S
C448 C447 1.382 . S
C448 H459 0.952 . S
C449 C446 1.388 . S
C449 C450 1.382 . S
C449 H474 0.950 . S
C450 N445 1.332 . S
C450 C449 1.382 . S
C450 H460 0.948 . S
N451 Co429 2.282 . S
N451 C455 1.332 . S
N451 C456 1.332 . S
C452 C453 1.388 . S
C452 C456 1.382 . S
C452 H475 0.950 . S
C453 C452 1.388 . S
C453 C454 1.386 . S
C454 C453 1.386 . S
C454 C455 1.382 . S
C454 H476 0.950 . S
C455 N451 1.332 . S
C455 C454 1.382 . S
C455 H457 0.952 . S
C456 N451 1.332 . S
C456 C452 1.382 . S
C456 H458 0.948 . S
H457 C455 0.952 . S
H458 C456 0.948 . S
H459 C448 0.952 . S
H460 C450 0.948 . S
C461 C427 1.395 . S
C461 C431 1.391 . S
C462 C424 1.389 . S
C462 C444 1.392 . S
C463 C434 1.392 . S
C463 C436 1.389 . S
C464 C439 1.395 . S
C464 C441 1.391 . S
H465 C425 0.951 . S
H466 C426 0.950 . S
H467 C432 0.949 . S
H468 C433 0.950 . S
H469 C437 0.951 . S
H470 C438 0.950 . S
H471 C442 0.949 . S
H472 C443 0.950 . S
H473 C447 0.950 . S
H474 C449 0.950 . S
H475 C452 0.950 . S
H476 C454 0.950 . S
C477 C478 1.443 . S
C477 N481 1.376 . S
C477 C515 1.389 . S
C478 C477 1.443 . S
C478 C479 1.340 . S
C478 H518 0.951 . S
C479 C478 1.340 . S
C479 C480 1.439 . S
C479 H519 0.950 . S
C480 C479 1.439 . S
C480 N481 1.374 . S
C480 C514 1.395 . S
N481 C477 1.376 . S
N481 C480 1.374 . S
N481 Co482 2.008 . S
Co482 N481 2.008 . S
Co482 N483 1.995 . S
Co482 N488 2.008 . S
Co482 N493 1.995 . S
Co482 N498 2.282 . S
Co482 N504 2.282 . S
N483 Co482 1.995 . S
N483 C484 1.376 . S
N483 C487 1.383 . S
C484 N483 1.376 . S
C484 C485 1.446 . S
C484 C514 1.391 . S
C485 C484 1.446 . S
C485 C486 1.339 . S
C485 H520 0.949 . S
C486 C485 1.339 . S
C486 C487 1.439 . S
C486 H521 0.950 . S
C487 N483 1.383 . S
C487 C486 1.439 . S
C487 C516 1.392 . S
N488 Co482 2.008 . S
N488 C489 1.376 . S
N488 C492 1.374 . S
C489 N488 1.376 . S
C489 C490 1.443 . S
C489 C516 1.389 . S
C490 C489 1.443 . S
C490 C491 1.340 . S
C490 H522 0.951 . S
C491 C490 1.340 . S
C491 C492 1.439 . S
C491 H523 0.950 . S
C492 N488 1.374 . S
C492 C491 1.439 . S
C492 C517 1.395 . S
N493 Co482 1.995 . S
N493 C494 1.376 . S
N493 C497 1.383 . S
C494 N493 1.376 . S
C494 C495 1.446 . S
C494 C517 1.391 . S
C495 C494 1.446 . S
C495 C496 1.339 . S
C495 H524 0.949 . S
C496 C495 1.339 . S
C496 C497 1.439 . S
C496 H525 0.950 . S
C497 N493 1.383 . S
C497 C496 1.439 . S
C497 C515 1.392 . S
N498 Co482 2.282 . S
N498 C501 1.332 . S
N498 C503 1.332 . S
C499 C500 1.386 . S
C499 C502 1.388 . S
C500 C499 1.386 . S
C500 C501 1.382 . S
C500 H526 0.950 . S
C501 N498 1.332 . S
C501 C500 1.382 . S
C501 H512 0.952 . S
C502 C499 1.388 . S
C502 C503 1.382 . S
C502 H527 0.950 . S
C503 N498 1.332 . S
C503 C502 1.382 . S
C503 H513 0.948 . S
N504 Co482 2.282 . S
N504 C508 1.332 . S
N504 C509 1.332 . S
C505 C506 1.388 . S
C505 C509 1.382 . S
C505 H528 0.950 . S
C506 C505 1.388 . S
C506 C507 1.386 . S
C507 C506 1.386 . S
C507 C508 1.382 . S
C507 H529 0.950 . S
C508 N504 1.332 . S
C508 C507 1.382 . S
C508 H510 0.952 . S
C509 N504 1.332 . S
C509 C505 1.382 . S
C509 H511 0.948 . S
H510 C508 0.952 . S
H511 C509 0.948 . S
H512 C501 0.952 . S
H513 C503 0.948 . S
C514 C480 1.395 . S
C514 C484 1.391 . S
C515 C477 1.389 . S
C515 C497 1.392 . S
C516 C487 1.392 . S
C516 C489 1.389 . S
C517 C492 1.395 . S
C517 C494 1.391 . S
H518 C478 0.951 . S
H519 C479 0.950 . S
H520 C485 0.949 . S
H521 C486 0.950 . S
H522 C490 0.951 . S
H523 C491 0.950 . S
H524 C495 0.949 . S
H525 C496 0.950 . S
H526 C500 0.950 . S
H527 C502 0.950 . S
H528 C505 0.950 . S
H529 C507 0.950 . S
C530 C531 1.443 . S
C530 N534 1.376 . S
C530 C568 1.389 . S
C531 C530 1.443 . S
C531 C532 1.340 . S
C531 H571 0.951 . S
C532 C531 1.340 . S
C532 C533 1.439 . S
C532 H572 0.950 . S
C533 C532 1.439 . S
C533 N534 1.374 . S
C533 C567 1.395 . S
N534 C530 1.376 . S
N534 C533 1.374 . S
N534 Co535 2.008 . S
Co535 N534 2.008 . S
Co535 N536 1.995 . S
Co535 N541 2.008 . S
Co535 N546 1.995 . S
Co535 N551 2.282 . S
Co535 N557 2.282 . S
N536 Co535 1.995 . S
N536 C537 1.376 . S
N536 C540 1.383 . S
C537 N536 1.376 . S
C537 C538 1.446 . S
C537 C567 1.391 . S
C538 C537 1.446 . S
C538 C539 1.339 . S
C538 H573 0.949 . S
C539 C538 1.339 . S
C539 C540 1.439 . S
C539 H574 0.950 . S
C540 N536 1.383 . S
C540 C539 1.439 . S
C540 C569 1.392 . S
N541 Co535 2.008 . S
N541 C542 1.376 . S
N541 C545 1.374 . S
C542 N541 1.376 . S
C542 C543 1.443 . S
C542 C569 1.389 . S
C543 C542 1.443 . S
C543 C544 1.340 . S
C543 H575 0.951 . S
C544 C543 1.340 . S
C544 C545 1.439 . S
C544 H576 0.950 . S
C545 N541 1.374 . S
C545 C544 1.439 . S
C545 C570 1.395 . S
N546 Co535 1.995 . S
N546 C547 1.376 . S
N546 C550 1.383 . S
C547 N546 1.376 . S
C547 C548 1.446 . S
C547 C570 1.391 . S
C548 C547 1.446 . S
C548 C549 1.339 . S
C548 H577 0.949 . S
C549 C548 1.339 . S
C549 C550 1.439 . S
C549 H578 0.950 . S
C550 N546 1.383 . S
C550 C549 1.439 . S
C550 C568 1.392 . S
N551 Co535 2.282 . S
N551 C554 1.332 . S
N551 C556 1.332 . S
C552 C553 1.386 . S
C552 C555 1.388 . S
C553 C552 1.386 . S
C553 C554 1.382 . S
C553 H579 0.950 . S
C554 N551 1.332 . S
C554 C553 1.382 . S
C554 H565 0.952 . S
C555 C552 1.388 . S
C555 C556 1.382 . S
C555 H580 0.950 . S
C556 N551 1.332 . S
C556 C555 1.382 . S
C556 H566 0.948 . S
N557 Co535 2.282 . S
N557 C561 1.332 . S
N557 C562 1.332 . S
C558 C559 1.388 . S
C558 C562 1.382 . S
C558 H581 0.950 . S
C559 C558 1.388 . S
C559 C560 1.386 . S
C560 C559 1.386 . S
C560 C561 1.382 . S
C560 H582 0.950 . S
C561 N557 1.332 . S
C561 C560 1.382 . S
C561 H563 0.952 . S
C562 N557 1.332 . S
C562 C558 1.382 . S
C562 H564 0.948 . S
H563 C561 0.952 . S
H564 C562 0.948 . S
H565 C554 0.952 . S
H566 C556 0.948 . S
C567 C533 1.395 . S
C567 C537 1.391 . S
C568 C530 1.389 . S
C568 C550 1.392 . S
C569 C540 1.392 . S
C569 C542 1.389 . S
C570 C545 1.395 . S
C570 C547 1.391 . S
H571 C531 0.951 . S
H572 C532 0.950 . S
H573 C538 0.949 . S
H574 C539 0.950 . S
H575 C543 0.951 . S
H576 C544 0.950 . S
H577 C548 0.949 . S
H578 C549 0.950 . S
H579 C553 0.950 . S
H580 C555 0.950 . S
H581 C558 0.950 . S
H582 C560 0.950 . S
C583 C584 1.443 . S
C583 N587 1.376 . S
C583 C621 1.389 . S
C584 C583 1.443 . S
C584 C585 1.340 . S
C584 H624 0.951 . S
C585 C584 1.340 . S
C585 C586 1.439 . S
C585 H625 0.950 . S
C586 C585 1.439 . S
C586 N587 1.374 . S
C586 C620 1.395 . S
N587 C583 1.376 . S
N587 C586 1.374 . S
N587 Co588 2.008 . S
Co588 N587 2.008 . S
Co588 N589 1.995 . S
Co588 N594 2.008 . S
Co588 N599 1.995 . S
Co588 N604 2.282 . S
Co588 N610 2.282 . S
N589 Co588 1.995 . S
N589 C590 1.376 . S
N589 C593 1.383 . S
C590 N589 1.376 . S
C590 C591 1.446 . S
C590 C620 1.391 . S
C591 C590 1.446 . S
C591 C592 1.339 . S
C591 H626 0.949 . S
C592 C591 1.339 . S
C592 C593 1.439 . S
C592 H627 0.950 . S
C593 N589 1.383 . S
C593 C592 1.439 . S
C593 C622 1.392 . S
N594 Co588 2.008 . S
N594 C595 1.376 . S
N594 C598 1.374 . S
C595 N594 1.376 . S
C595 C596 1.443 . S
C595 C622 1.389 . S
C596 C595 1.443 . S
C596 C597 1.340 . S
C596 H628 0.951 . S
C597 C596 1.340 . S
C597 C598 1.439 . S
C597 H629 0.950 . S
C598 N594 1.374 . S
C598 C597 1.439 . S
C598 C623 1.395 . S
N599 Co588 1.995 . S
N599 C600 1.376 . S
N599 C603 1.383 . S
C600 N599 1.376 . S
C600 C601 1.446 . S
C600 C623 1.391 . S
C601 C600 1.446 . S
C601 C602 1.339 . S
C601 H630 0.949 . S
C602 C601 1.339 . S
C602 C603 1.439 . S
C602 H631 0.950 . S
C603 N599 1.383 . S
C603 C602 1.439 . S
C603 C621 1.392 . S
N604 Co588 2.282 . S
N604 C607 1.332 . S
N604 C609 1.332 . S
C605 C606 1.386 . S
C605 C608 1.388 . S
C606 C605 1.386 . S
C606 C607 1.382 . S
C606 H632 0.950 . S
C607 N604 1.332 . S
C607 C606 1.382 . S
C607 H618 0.952 . S
C608 C605 1.388 . S
C608 C609 1.382 . S
C608 H633 0.950 . S
C609 N604 1.332 . S
C609 C608 1.382 . S
C609 H619 0.948 . S
N610 Co588 2.282 . S
N610 C614 1.332 . S
N610 C615 1.332 . S
C611 C612 1.388 . S
C611 C615 1.382 . S
C611 H634 0.950 . S
C612 C611 1.388 . S
C612 C613 1.386 . S
C613 C612 1.386 . S
C613 C614 1.382 . S
C613 H635 0.950 . S
C614 N610 1.332 . S
C614 C613 1.382 . S
C614 H616 0.952 . S
C615 N610 1.332 . S
C615 C611 1.382 . S
C615 H617 0.948 . S
H616 C614 0.952 . S
H617 C615 0.948 . S
H618 C607 0.952 . S
H619 C609 0.948 . S
C620 C586 1.395 . S
C620 C590 1.391 . S
C621 C583 1.389 . S
C621 C603 1.392 . S
C622 C593 1.392 . S
C622 C595 1.389 . S
C623 C598 1.395 . S
C623 C600 1.391 . S
H624 C584 0.951 . S
H625 C585 0.950 . S
H626 C591 0.949 . S
H627 C592 0.950 . S
H628 C596 0.951 . S
H629 C597 0.950 . S
H630 C601 0.949 . S
H631 C602 0.950 . S
H632 C606 0.950 . S
H633 C608 0.950 . S
H634 C611 0.950 . S
H635 C613 0.950 . S
C636 C637 1.443 . S
C636 N640 1.376 . S
C636 C674 1.389 . S
C637 C636 1.443 . S
C637 C638 1.340 . S
C637 H677 0.951 . S
C638 C637 1.340 . S
C638 C639 1.439 . S
C638 H678 0.950 . S
C639 C638 1.439 . S
C639 N640 1.374 . S
C639 C673 1.395 . S
N640 C636 1.376 . S
N640 C639 1.374 . S
N640 Co641 2.008 . S
Co641 N640 2.008 . S
Co641 N642 1.995 . S
Co641 N647 2.008 . S
Co641 N652 1.995 . S
Co641 N657 2.282 . S
Co641 N663 2.282 . S
N642 Co641 1.995 . S
N642 C643 1.376 . S
N642 C646 1.383 . S
C643 N642 1.376 . S
C643 C644 1.446 . S
C643 C673 1.391 . S
C644 C643 1.446 . S
C644 C645 1.339 . S
C644 H679 0.949 . S
C645 C644 1.339 . S
C645 C646 1.439 . S
C645 H680 0.950 . S
C646 N642 1.383 . S
C646 C645 1.439 . S
C646 C675 1.392 . S
N647 Co641 2.008 . S
N647 C648 1.376 . S
N647 C651 1.374 . S
C648 N647 1.376 . S
C648 C649 1.443 . S
C648 C675 1.389 . S
C649 C648 1.443 . S
C649 C650 1.340 . S
C649 H681 0.951 . S
C650 C649 1.340 . S
C650 C651 1.439 . S
C650 H682 0.950 . S
C651 N647 1.374 . S
C651 C650 1.439 . S
C651 C676 1.395 . S
N652 Co641 1.995 . S
N652 C653 1.376 . S
N652 C656 1.383 . S
C653 N652 1.376 . S
C653 C654 1.446 . S
C653 C676 1.391 . S
C654 C653 1.446 . S
C654 C655 1.339 . S
C654 H683 0.949 . S
C655 C654 1.339 . S
C655 C656 1.439 . S
C655 H684 0.950 . S
C656 N652 1.383 . S
C656 C655 1.439 . S
C656 C674 1.392 . S
N657 Co641 2.282 . S
N657 C660 1.332 . S
N657 C662 1.332 . S
C658 C659 1.386 . S
C658 C661 1.388 . S
C659 C658 1.386 . S
C659 C660 1.382 . S
C659 H685 0.950 . S
C660 N657 1.332 . S
C660 C659 1.382 . S
C660 H671 0.952 . S
C661 C658 1.388 . S
C661 C662 1.382 . S
C661 H686 0.950 . S
C662 N657 1.332 . S
C662 C661 1.382 . S
C662 H672 0.948 . S
N663 Co641 2.282 . S
N663 C667 1.332 . S
N663 C668 1.332 . S
C664 C665 1.388 . S
C664 C668 1.382 . S
C664 H687 0.950 . S
C665 C664 1.388 . S
C665 C666 1.386 . S
C666 C665 1.386 . S
C666 C667 1.382 . S
C666 H688 0.950 . S
C667 N663 1.332 . S
C667 C666 1.382 . S
C667 H669 0.952 . S
C668 N663 1.332 . S
C668 C664 1.382 . S
C668 H670 0.948 . S
H669 C667 0.952 . S
H670 C668 0.948 . S
H671 C660 0.952 . S
H672 C662 0.948 . S
C673 C639 1.395 . S
C673 C643 1.391 . S
C674 C636 1.389 . S
C674 C656 1.392 . S
C675 C646 1.392 . S
C675 C648 1.389 . S
C676 C651 1.395 . S
C676 C653 1.391 . S
H677 C637 0.951 . S
H678 C638 0.950 . S
H679 C644 0.949 . S
H680 C645 0.950 . S
H681 C649 0.951 . S
H682 C650 0.950 . S
H683 C654 0.949 . S
H684 C655 0.950 . S
H685 C659 0.950 . S
H686 C661 0.950 . S
H687 C664 0.950 . S
H688 C666 0.950 . S
C689 C690 1.443 . S
C689 N693 1.376 . S
C689 C727 1.389 . S
C690 C689 1.443 . S
C690 C691 1.340 . S
C690 H730 0.951 . S
C691 C690 1.340 . S
C691 C692 1.439 . S
C691 H731 0.950 . S
C692 C691 1.439 . S
C692 N693 1.374 . S
C692 C726 1.395 . S
N693 C689 1.376 . S
N693 C692 1.374 . S
N693 Co694 2.008 . S
Co694 N693 2.008 . S
Co694 N695 1.995 . S
Co694 N700 2.008 . S
Co694 N705 1.995 . S
Co694 N710 2.282 . S
Co694 N716 2.282 . S
N695 Co694 1.995 . S
N695 C696 1.376 . S
N695 C699 1.383 . S
C696 N695 1.376 . S
C696 C697 1.446 . S
C696 C726 1.391 . S
C697 C696 1.446 . S
C697 C698 1.339 . S
C697 H732 0.949 . S
C698 C697 1.339 . S
C698 C699 1.439 . S
C698 H733 0.950 . S
C699 N695 1.383 . S
C699 C698 1.439 . S
C699 C728 1.392 . S
N700 Co694 2.008 . S
N700 C701 1.376 . S
N700 C704 1.374 . S
C701 N700 1.376 . S
C701 C702 1.443 . S
C701 C728 1.389 . S
C702 C701 1.443 . S
C702 C703 1.340 . S
C702 H734 0.951 . S
C703 C702 1.340 . S
C703 C704 1.439 . S
C703 H735 0.950 . S
C704 N700 1.374 . S
C704 C703 1.439 . S
C704 C729 1.395 . S
N705 Co694 1.995 . S
N705 C706 1.376 . S
N705 C709 1.383 . S
C706 N705 1.376 . S
C706 C707 1.446 . S
C706 C729 1.391 . S
C707 C706 1.446 . S
C707 C708 1.339 . S
C707 H736 0.949 . S
C708 C707 1.339 . S
C708 C709 1.439 . S
C708 H737 0.950 . S
C709 N705 1.383 . S
C709 C708 1.439 . S
C709 C727 1.392 . S
N710 Co694 2.282 . S
N710 C713 1.332 . S
N710 C715 1.332 . S
C711 C712 1.386 . S
C711 C714 1.388 . S
C712 C711 1.386 . S
C712 C713 1.382 . S
C712 H738 0.950 . S
C713 N710 1.332 . S
C713 C712 1.382 . S
C713 H724 0.952 . S
C714 C711 1.388 . S
C714 C715 1.382 . S
C714 H739 0.950 . S
C715 N710 1.332 . S
C715 C714 1.382 . S
C715 H725 0.948 . S
N716 Co694 2.282 . S
N716 C720 1.332 . S
N716 C721 1.332 . S
C717 C718 1.388 . S
C717 C721 1.382 . S
C717 H740 0.950 . S
C718 C717 1.388 . S
C718 C719 1.386 . S
C719 C718 1.386 . S
C719 C720 1.382 . S
C719 H741 0.950 . S
C720 N716 1.332 . S
C720 C719 1.382 . S
C720 H722 0.952 . S
C721 N716 1.332 . S
C721 C717 1.382 . S
C721 H723 0.948 . S
H722 C720 0.952 . S
H723 C721 0.948 . S
H724 C713 0.952 . S
H725 C715 0.948 . S
C726 C692 1.395 . S
C726 C696 1.391 . S
C727 C689 1.389 . S
C727 C709 1.392 . S
C728 C699 1.392 . S
C728 C701 1.389 . S
C729 C704 1.395 . S
C729 C706 1.391 . S
H730 C690 0.951 . S
H731 C691 0.950 . S
H732 C697 0.949 . S
H733 C698 0.950 . S
H734 C702 0.951 . S
H735 C703 0.950 . S
H736 C707 0.949 . S
H737 C708 0.950 . S
H738 C712 0.950 . S
H739 C714 0.950 . S
H740 C717 0.950 . S
H741 C719 0.950 . S
C742 C743 1.443 . S
C742 N746 1.376 . S
C742 C780 1.389 . S
C743 C742 1.443 . S
C743 C744 1.340 . S
C743 H783 0.951 . S
C744 C743 1.340 . S
C744 C745 1.439 . S
C744 H784 0.950 . S
C745 C744 1.439 . S
C745 N746 1.374 . S
C745 C779 1.395 . S
N746 C742 1.376 . S
N746 C745 1.374 . S
N746 Co747 2.008 . S
Co747 N746 2.008 . S
Co747 N748 1.995 . S
Co747 N753 2.008 . S
Co747 N758 1.995 . S
Co747 N763 2.282 . S
Co747 N769 2.282 . S
N748 Co747 1.995 . S
N748 C749 1.376 . S
N748 C752 1.383 . S
C749 N748 1.376 . S
C749 C750 1.446 . S
C749 C779 1.391 . S
C750 C749 1.446 . S
C750 C751 1.339 . S
C750 H785 0.949 . S
C751 C750 1.339 . S
C751 C752 1.439 . S
C751 H786 0.950 . S
C752 N748 1.383 . S
C752 C751 1.439 . S
C752 C781 1.392 . S
N753 Co747 2.008 . S
N753 C754 1.376 . S
N753 C757 1.374 . S
C754 N753 1.376 . S
C754 C755 1.443 . S
C754 C781 1.389 . S
C755 C754 1.443 . S
C755 C756 1.340 . S
C755 H787 0.951 . S
C756 C755 1.340 . S
C756 C757 1.439 . S
C756 H788 0.950 . S
C757 N753 1.374 . S
C757 C756 1.439 . S
C757 C782 1.395 . S
N758 Co747 1.995 . S
N758 C759 1.376 . S
N758 C762 1.383 . S
C759 N758 1.376 . S
C759 C760 1.446 . S
C759 C782 1.391 . S
C760 C759 1.446 . S
C760 C761 1.339 . S
C760 H789 0.949 . S
C761 C760 1.339 . S
C761 C762 1.439 . S
C761 H790 0.950 . S
C762 N758 1.383 . S
C762 C761 1.439 . S
C762 C780 1.392 . S
N763 Co747 2.282 . S
N763 C766 1.332 . S
N763 C768 1.332 . S
C764 C765 1.386 . S
C764 C767 1.388 . S
C765 C764 1.386 . S
C765 C766 1.382 . S
C765 H791 0.950 . S
C766 N763 1.332 . S
C766 C765 1.382 . S
C766 H777 0.952 . S
C767 C764 1.388 . S
C767 C768 1.382 . S
C767 H792 0.950 . S
C768 N763 1.332 . S
C768 C767 1.382 . S
C768 H778 0.948 . S
N769 Co747 2.282 . S
N769 C773 1.332 . S
N769 C774 1.332 . S
C770 C771 1.388 . S
C770 C774 1.382 . S
C770 H793 0.950 . S
C771 C770 1.388 . S
C771 C772 1.386 . S
C772 C771 1.386 . S
C772 C773 1.382 . S
C772 H794 0.950 . S
C773 N769 1.332 . S
C773 C772 1.382 . S
C773 H775 0.952 . S
C774 N769 1.332 . S
C774 C770 1.382 . S
C774 H776 0.948 . S
H775 C773 0.952 . S
H776 C774 0.948 . S
H777 C766 0.952 . S
H778 C768 0.948 . S
C779 C745 1.395 . S
C779 C749 1.391 . S
C780 C742 1.389 . S
C780 C762 1.392 . S
C781 C752 1.392 . S
C781 C754 1.389 . S
C782 C757 1.395 . S
C782 C759 1.391 . S
H783 C743 0.951 . S
H784 C744 0.950 . S
H785 C750 0.949 . S
H786 C751 0.950 . S
H787 C755 0.951 . S
H788 C756 0.950 . S
H789 C760 0.949 . S
H790 C761 0.950 . S
H791 C765 0.950 . S
H792 C767 0.950 . S
H793 C770 0.950 . S
H794 C772 0.950 . S
C795 C796 1.443 . S
C795 N799 1.376 . S
C795 C833 1.389 . S
C796 C795 1.443 . S
C796 C797 1.340 . S
C796 H836 0.951 . S
C797 C796 1.340 . S
C797 C798 1.439 . S
C797 H837 0.950 . S
C798 C797 1.439 . S
C798 N799 1.374 . S
C798 C832 1.395 . S
N799 C795 1.376 . S
N799 C798 1.374 . S
N799 Co800 2.008 . S
Co800 N799 2.008 . S
Co800 N801 1.995 . S
Co800 N806 2.008 . S
Co800 N811 1.995 . S
Co800 N816 2.282 . S
Co800 N822 2.282 . S
N801 Co800 1.995 . S
N801 C802 1.376 . S
N801 C805 1.383 . S
C802 N801 1.376 . S
C802 C803 1.446 . S
C802 C832 1.391 . S
C803 C802 1.446 . S
C803 C804 1.339 . S
C803 H838 0.949 . S
C804 C803 1.339 . S
C804 C805 1.439 . S
C804 H839 0.950 . S
C805 N801 1.383 . S
C805 C804 1.439 . S
C805 C834 1.392 . S
N806 Co800 2.008 . S
N806 C807 1.376 . S
N806 C810 1.374 . S
C807 N806 1.376 . S
C807 C808 1.443 . S
C807 C834 1.389 . S
C808 C807 1.443 . S
C808 C809 1.340 . S
C808 H840 0.951 . S
C809 C808 1.340 . S
C809 C810 1.439 . S
C809 H841 0.950 . S
C810 N806 1.374 . S
C810 C809 1.439 . S
C810 C835 1.395 . S
N811 Co800 1.995 . S
N811 C812 1.376 . S
N811 C815 1.383 . S
C812 N811 1.376 . S
C812 C813 1.446 . S
C812 C835 1.391 . S
C813 C812 1.446 . S
C813 C814 1.339 . S
C813 H842 0.949 . S
C814 C813 1.339 . S
C814 C815 1.439 . S
C814 H843 0.950 . S
C815 N811 1.383 . S
C815 C814 1.439 . S
C815 C833 1.392 . S
N816 Co800 2.282 . S
N816 C819 1.332 . S
N816 C821 1.332 . S
C817 C818 1.386 . S
C817 C820 1.388 . S
C818 C817 1.386 . S
C818 C819 1.382 . S
C818 H844 0.950 . S
C819 N816 1.332 . S
C819 C818 1.382 . S
C819 H830 0.952 . S
C820 C817 1.388 . S
C820 C821 1.382 . S
C820 H845 0.950 . S
C821 N816 1.332 . S
C821 C820 1.382 . S
C821 H831 0.948 . S
N822 Co800 2.282 . S
N822 C826 1.332 . S
N822 C827 1.332 . S
C823 C824 1.388 . S
C823 C827 1.382 . S
C823 H846 0.950 . S
C824 C823 1.388 . S
C824 C825 1.386 . S
C825 C824 1.386 . S
C825 C826 1.382 . S
C825 H847 0.950 . S
C826 N822 1.332 . S
C826 C825 1.382 . S
C826 H828 0.952 . S
C827 N822 1.332 . S
C827 C823 1.382 . S
C827 H829 0.948 . S
H828 C826 0.952 . S
H829 C827 0.948 . S
H830 C819 0.952 . S
H831 C821 0.948 . S
C832 C798 1.395 . S
C832 C802 1.391 . S
C833 C795 1.389 . S
C833 C815 1.392 . S
C834 C805 1.392 . S
C834 C807 1.389 . S
C835 C810 1.395 . S
C835 C812 1.391 . S
H836 C796 0.951 . S
H837 C797 0.950 . S
H838 C803 0.949 . S
H839 C804 0.950 . S
H840 C808 0.951 . S
H841 C809 0.950 . S
H842 C813 0.949 . S
H843 C814 0.950 . S
H844 C818 0.950 . S
H845 C820 0.950 . S
H846 C823 0.950 . S
H847 C825 0.950 . S
H848 C856 0.950 . S
H849 C861 0.950 . S
H850 C858 0.950 . S
H851 C860 0.950 . S
H852 C862 0.950 . S
H853 C864 0.950 . S
H854 C866 0.950 . S
H855 C867 0.950 . S
C856 H848 0.950 . S
C856 C857 1.386 . S
C856 C858 1.391 . S
C857 C856 1.386 . S
C857 C861 1.393 . S
C858 H850 0.950 . S
C858 C856 1.391 . S
C858 C859 1.400 . S
C859 C858 1.400 . S
C859 C860 1.398 . S
C859 C865 1.491 1_565 S
C860 H851 0.950 . S
C860 C859 1.398 . S
C860 C861 1.391 . S
C861 H849 0.950 . S
C861 C857 1.393 . S
C861 C860 1.391 . S
C862 H852 0.950 . S
C862 C863 1.386 . S
C862 C864 1.391 . S
C863 C862 1.386 . S
C863 C867 1.393 . S
C864 H853 0.950 . S
C864 C862 1.391 . S
C864 C865 1.400 . S
C865 C859 1.491 1_545 S
C865 C864 1.400 . S
C865 C866 1.398 . S
C866 H854 0.950 . S
C866 C865 1.398 . S
C866 C867 1.391 . S
C867 H855 0.950 . S
C867 C863 1.393 . S
C867 C866 1.391 . S
H868 C876 0.950 . S
H869 C881 0.950 . S
H870 C878 0.950 . S
H871 C880 0.950 . S
H872 C882 0.950 . S
H873 C884 0.950 . S
H874 C886 0.950 . S
H875 C887 0.950 . S
C876 H868 0.950 . S
C876 C877 1.386 . S
C876 C878 1.391 . S
C877 C876 1.386 . S
C877 C881 1.393 . S
C878 H870 0.950 . S
C878 C876 1.391 . S
C878 C879 1.400 . S
C879 C878 1.400 . S
C879 C880 1.398 . S
C879 C885 1.491 1_455 S
C880 H871 0.950 . S
C880 C879 1.398 . S
C880 C881 1.391 . S
C881 H869 0.950 . S
C881 C877 1.393 . S
C881 C880 1.391 . S
C882 H872 0.950 . S
C882 C883 1.386 . S
C882 C884 1.391 . S
C883 C882 1.386 . S
C883 C887 1.393 . S
C884 H873 0.950 . S
C884 C882 1.391 . S
C884 C885 1.400 . S
C885 C879 1.491 1_655 S
C885 C884 1.400 . S
C885 C886 1.398 . S
C886 H874 0.950 . S
C886 C885 1.398 . S
C886 C887 1.391 . S
C887 H875 0.950 . S
C887 C883 1.393 . S
C887 C886 1.391 . S
H888 C896 0.950 . S
H889 C901 0.950 . S
H890 C898 0.950 . S
H891 C900 0.950 . S
H892 C902 0.950 . S
H893 C904 0.950 . S
H894 C906 0.950 . S
H895 C907 0.950 . S
C896 H888 0.950 . S
C896 C897 1.386 . S
C896 C898 1.391 . S
C897 C896 1.386 . S
C897 C901 1.393 . S
C898 H890 0.950 . S
C898 C896 1.391 . S
C898 C899 1.400 . S
C899 C898 1.400 . S
C899 C900 1.398 . S
C899 C905 1.491 1_565 S
C900 H891 0.950 . S
C900 C899 1.398 . S
C900 C901 1.391 . S
C901 H889 0.950 . S
C901 C897 1.393 . S
C901 C900 1.391 . S
C902 H892 0.950 . S
C902 C903 1.386 . S
C902 C904 1.391 . S
C903 C902 1.386 . S
C903 C907 1.393 . S
C904 H893 0.950 . S
C904 C902 1.391 . S
C904 C905 1.400 . S
C905 C899 1.491 1_545 S
C905 C904 1.400 . S
C905 C906 1.398 . S
C906 H894 0.950 . S
C906 C905 1.398 . S
C906 C907 1.391 . S
C907 H895 0.950 . S
C907 C903 1.393 . S
C907 C906 1.391 . S
H908 C916 0.950 . S
H909 C921 0.950 . S
H910 C918 0.950 . S
H911 C920 0.950 . S
H912 C922 0.950 . S
H913 C924 0.950 . S
H914 C926 0.950 . S
H915 C927 0.950 . S
C916 H908 0.950 . S
C916 C917 1.386 . S
C916 C918 1.391 . S
C917 C916 1.386 . S
C917 C921 1.393 . S
C918 H910 0.950 . S
C918 C916 1.391 . S
C918 C919 1.400 . S
C919 C918 1.400 . S
C919 C920 1.398 . S
C919 C925 1.491 1_455 S
C920 H911 0.950 . S
C920 C919 1.398 . S
C920 C921 1.391 . S
C921 H909 0.950 . S
C921 C917 1.393 . S
C921 C920 1.391 . S
C922 H912 0.950 . S
C922 C923 1.386 . S
C922 C924 1.391 . S
C923 C922 1.386 . S
C923 C927 1.393 . S
C924 H913 0.950 . S
C924 C922 1.391 . S
C924 C925 1.400 . S
C925 C919 1.491 1_655 S
C925 C924 1.400 . S
C925 C926 1.398 . S
C926 H914 0.950 . S
C926 C925 1.398 . S
C926 C927 1.391 . S
C927 H915 0.950 . S
C927 C923 1.393 . S
C927 C926 1.391 . S
H928 C936 0.950 . S
H929 C941 0.950 . S
H930 C938 0.950 . S
H931 C940 0.950 . S
H932 C942 0.950 . S
H933 C944 0.950 . S
H934 C946 0.950 1_556 S
H935 C947 0.950 . S
C936 H928 0.950 . S
C936 C937 1.386 . S
C936 C938 1.391 . S
C937 C936 1.386 . S
C937 C941 1.393 . S
C938 H930 0.950 . S
C938 C936 1.391 . S
C938 C939 1.400 . S
C939 C938 1.400 . S
C939 C940 1.398 . S
C939 C945 1.491 . S
C940 H931 0.950 . S
C940 C939 1.398 . S
C940 C941 1.391 . S
C941 H929 0.950 . S
C941 C937 1.393 . S
C941 C940 1.391 . S
C942 H932 0.950 . S
C942 C943 1.386 . S
C942 C944 1.391 . S
C943 C942 1.386 . S
C943 C947 1.393 1_554 S
C944 H933 0.950 . S
C944 C942 1.391 . S
C944 C945 1.400 . S
C945 C939 1.491 . S
C945 C944 1.400 . S
C945 C946 1.398 . S
C946 H934 0.950 1_554 S
C946 C945 1.398 . S
C946 C947 1.391 1_554 S
C947 H935 0.950 . S
C947 C943 1.393 1_556 S
C947 C946 1.391 1_556 S
H948 C956 0.950 . S
H949 C961 0.950 . S
H950 C958 0.950 . S
H951 C960 0.950 . S
H952 C962 0.950 . S
H953 C964 0.950 . S
H954 C966 0.950 1_554 S
H955 C967 0.950 . S
C956 H948 0.950 . S
C956 C957 1.386 . S
C956 C958 1.391 . S
C957 C956 1.386 . S
C957 C961 1.393 . S
C958 H950 0.950 . S
C958 C956 1.391 . S
C958 C959 1.400 . S
C959 C958 1.400 . S
C959 C960 1.398 . S
C959 C965 1.491 . S
C960 H951 0.950 . S
C960 C959 1.398 . S
C960 C961 1.391 . S
C961 H949 0.950 . S
C961 C957 1.393 . S
C961 C960 1.391 . S
C962 H952 0.950 . S
C962 C963 1.386 . S
C962 C964 1.391 . S
C963 C962 1.386 . S
C963 C967 1.393 1_556 S
C964 H953 0.950 . S
C964 C962 1.391 . S
C964 C965 1.400 . S
C965 C959 1.491 . S
C965 C964 1.400 . S
C965 C966 1.398 . S
C966 H954 0.950 1_556 S
C966 C965 1.398 . S
C966 C967 1.391 1_556 S
C967 H955 0.950 . S
C967 C963 1.393 1_554 S
C967 C966 1.391 1_554 S
H968 C976 0.950 . S
H969 C981 0.950 . S
H970 C978 0.950 . S
H971 C980 0.950 . S
H972 C982 0.950 . S
H973 C984 0.950 . S
H974 C986 0.950 . S
H975 C987 0.950 . S
C976 H968 0.950 . S
C976 C977 1.386 . S
C976 C978 1.391 . S
C977 C976 1.386 . S
C977 C981 1.393 . S
C978 H970 0.950 . S
C978 C976 1.391 . S
C978 C979 1.400 . S
C979 C978 1.400 . S
C979 C980 1.398 . S
C979 C985 1.491 . S
C980 H971 0.950 . S
C980 C979 1.398 . S
C980 C981 1.391 . S
C981 H969 0.950 . S
C981 C977 1.393 . S
C981 C980 1.391 . S
C982 H972 0.950 . S
C982 C983 1.386 . S
C982 C984 1.391 . S
C983 C982 1.386 . S
C983 C987 1.393 . S
C984 H973 0.950 . S
C984 C982 1.391 . S
C984 C985 1.400 . S
C985 C979 1.491 . S
C985 C984 1.400 . S
C985 C986 1.398 . S
C986 H974 0.950 . S
C986 C985 1.398 . S
C986 C987 1.391 . S
C987 H975 0.950 . S
C987 C983 1.393 . S
C987 C986 1.391 . S
H988 C996 0.950 1_554 S
H989 C1001 0.950 . S
H990 C998 0.950 . S
H991 C1000 0.950 . S
H992 C1002 0.950 . S
H993 C1004 0.950 . S
H994 C1006 0.950 . S
H995 C1007 0.950 . S
C996 H988 0.950 1_556 S
C996 C997 1.386 . S
C996 C998 1.391 . S
C997 C996 1.386 . S
C997 C1001 1.393 . S
C998 H990 0.950 . S
C998 C996 1.391 . S
C998 C999 1.400 . S
C999 C998 1.400 . S
C999 C1000 1.398 . S
C999 C1005 1.491 . S
C1000 H991 0.950 . S
C1000 C999 1.398 . S
C1000 C1001 1.391 . S
C1001 H989 0.950 . S
C1001 C997 1.393 . S
C1001 C1000 1.391 . S
C1002 H992 0.950 . S
C1002 C1003 1.386 . S
C1002 C1004 1.391 . S
C1003 C1002 1.386 . S
C1003 C1007 1.393 . S
C1004 H993 0.950 . S
C1004 C1002 1.391 . S
C1004 C1005 1.400 . S
C1005 C999 1.491 . S
C1005 C1004 1.400 . S
C1005 C1006 1.398 . S
C1006 H994 0.950 . S
C1006 C1005 1.398 . S
C1006 C1007 1.391 . S
C1007 H995 0.950 . S
C1007 C1003 1.393 . S
C1007 C1006 1.391 . S
H1008 C1016 0.950 . S
H1009 C1021 0.950 . S
H1010 C1018 0.950 . S
H1011 C1020 0.950 . S
H1012 C1022 0.950 . S
H1013 C1024 0.950 . S
H1014 C1026 0.950 . S
H1015 C1027 0.950 . S
C1016 H1008 0.950 . S
C1016 C1017 1.386 . S
C1016 C1018 1.391 . S
C1017 C1016 1.386 . S
C1017 C1021 1.393 . S
C1018 H1010 0.950 . S
C1018 C1016 1.391 . S
C1018 C1019 1.400 . S
C1019 C1018 1.400 . S
C1019 C1020 1.398 . S
C1019 C1025 1.491 . S
C1020 H1011 0.950 . S
C1020 C1019 1.398 . S
C1020 C1021 1.391 . S
C1021 H1009 0.950 . S
C1021 C1017 1.393 . S
C1021 C1020 1.391 . S
C1022 H1012 0.950 . S
C1022 C1023 1.386 . S
C1022 C1024 1.391 . S
C1023 C1022 1.386 . S
C1023 C1027 1.393 . S
C1024 H1013 0.950 . S
C1024 C1022 1.391 . S
C1024 C1025 1.400 . S
C1025 C1019 1.491 . S
C1025 C1024 1.400 . S
C1025 C1026 1.398 . S
C1026 H1014 0.950 . S
C1026 C1025 1.398 . S
C1026 C1027 1.391 . S
C1027 H1015 0.950 . S
C1027 C1023 1.393 . S
C1027 C1026 1.391 . S
H1028 C1036 0.950 . S
H1029 C1041 0.950 . S
H1030 C1038 0.950 . S
H1031 C1040 0.950 . S
H1032 C1042 0.950 . S
H1033 C1044 0.950 . S
H1034 C1046 0.950 . S
H1035 C1047 0.950 . S
C1036 H1028 0.950 . S
C1036 C1037 1.386 . S
C1036 C1038 1.391 . S
C1037 C1036 1.386 . S
C1037 C1041 1.393 . S
C1038 H1030 0.950 . S
C1038 C1036 1.391 . S
C1038 C1039 1.400 . S
C1039 C1038 1.400 . S
C1039 C1040 1.398 . S
C1039 C1045 1.491 . S
C1040 H1031 0.950 . S
C1040 C1039 1.398 . S
C1040 C1041 1.391 . S
C1041 H1029 0.950 . S
C1041 C1037 1.393 . S
C1041 C1040 1.391 . S
C1042 H1032 0.950 . S
C1042 C1043 1.386 . S
C1042 C1044 1.391 . S
C1043 C1042 1.386 . S
C1043 C1047 1.393 . S
C1044 H1033 0.950 . S
C1044 C1042 1.391 . S
C1044 C1045 1.400 . S
C1045 C1039 1.491 . S
C1045 C1044 1.400 . S
C1045 C1046 1.398 . S
C1046 H1034 0.950 . S
C1046 C1045 1.398 . S
C1046 C1047 1.391 . S
C1047 H1035 0.950 . S
C1047 C1043 1.393 . S
C1047 C1046 1.391 . S
H1048 C1056 0.950 . S
H1049 C1061 0.950 . S
H1050 C1058 0.950 . S
H1051 C1060 0.950 . S
H1052 C1062 0.950 . S
H1053 C1064 0.950 . S
H1054 C1066 0.950 . S
H1055 C1067 0.950 . S
C1056 H1048 0.950 . S
C1056 C1057 1.386 . S
C1056 C1058 1.391 . S
C1057 C1056 1.386 . S
C1057 C1061 1.393 . S
C1058 H1050 0.950 . S
C1058 C1056 1.391 . S
C1058 C1059 1.400 . S
C1059 C1058 1.400 . S
C1059 C1060 1.398 . S
C1059 C1065 1.491 . S
C1060 H1051 0.950 . S
C1060 C1059 1.398 . S
C1060 C1061 1.391 . S
C1061 H1049 0.950 . S
C1061 C1057 1.393 . S
C1061 C1060 1.391 . S
C1062 H1052 0.950 . S
C1062 C1063 1.386 . S
C1062 C1064 1.391 . S
C1063 C1062 1.386 . S
C1063 C1067 1.393 . S
C1064 H1053 0.950 . S
C1064 C1062 1.391 . S
C1064 C1065 1.400 . S
C1065 C1059 1.491 . S
C1065 C1064 1.400 . S
C1065 C1066 1.398 . S
C1066 H1054 0.950 . S
C1066 C1065 1.398 . S
C1066 C1067 1.391 . S
C1067 H1055 0.950 . S
C1067 C1063 1.393 . S
C1067 C1066 1.391 . S
H1068 C1076 0.950 . S
H1069 C1081 0.950 . S
H1070 C1078 0.950 . S
H1071 C1080 0.950 . S
H1072 C1082 0.950 . S
H1073 C1084 0.950 . S
H1074 C1086 0.950 . S
H1075 C1087 0.950 . S
C1076 H1068 0.950 . S
C1076 C1077 1.386 . S
C1076 C1078 1.391 . S
C1077 C1076 1.386 . S
C1077 C1081 1.393 . S
C1078 H1070 0.950 . S
C1078 C1076 1.391 . S
C1078 C1079 1.400 . S
C1079 C1078 1.400 . S
C1079 C1080 1.398 . S
C1079 C1085 1.491 . S
C1080 H1071 0.950 . S
C1080 C1079 1.398 . S
C1080 C1081 1.391 . S
C1081 H1069 0.950 . S
C1081 C1077 1.393 . S
C1081 C1080 1.391 . S
C1082 H1072 0.950 . S
C1082 C1083 1.386 . S
C1082 C1084 1.391 . S
C1083 C1082 1.386 . S
C1083 C1087 1.393 . S
C1084 H1073 0.950 . S
C1084 C1082 1.391 . S
C1084 C1085 1.400 . S
C1085 C1079 1.491 . S
C1085 C1084 1.400 . S
C1085 C1086 1.398 . S
C1086 H1074 0.950 . S
C1086 C1085 1.398 . S
C1086 C1087 1.391 . S
C1087 H1075 0.950 . S
C1087 C1083 1.393 . S
C1087 C1086 1.391 . S
H1088 C1096 0.950 . S
H1089 C1101 0.950 . S
H1090 C1098 0.950 . S
H1091 C1100 0.950 . S
H1092 C1102 0.950 . S
H1093 C1104 0.950 . S
H1094 C1106 0.950 . S
H1095 C1107 0.950 . S
C1096 H1088 0.950 . S
C1096 C1097 1.386 . S
C1096 C1098 1.391 . S
C1097 C1096 1.386 . S
C1097 C1101 1.393 . S
C1098 H1090 0.950 . S
C1098 C1096 1.391 . S
C1098 C1099 1.400 . S
C1099 C1098 1.400 . S
C1099 C1100 1.398 . S
C1099 C1105 1.491 1_565 S
C1100 H1091 0.950 . S
C1100 C1099 1.398 . S
C1100 C1101 1.391 . S
C1101 H1089 0.950 . S
C1101 C1097 1.393 . S
C1101 C1100 1.391 . S
C1102 H1092 0.950 . S
C1102 C1103 1.386 . S
C1102 C1104 1.391 . S
C1103 C1102 1.386 . S
C1103 C1107 1.393 . S
C1104 H1093 0.950 . S
C1104 C1102 1.391 . S
C1104 C1105 1.400 . S
C1105 C1099 1.491 1_545 S
C1105 C1104 1.400 . S
C1105 C1106 1.398 . S
C1106 H1094 0.950 . S
C1106 C1105 1.398 . S
C1106 C1107 1.391 . S
C1107 H1095 0.950 . S
C1107 C1103 1.393 . S
C1107 C1106 1.391 . S
H1108 C1116 0.950 . S
H1109 C1121 0.950 . S
H1110 C1118 0.950 . S
H1111 C1120 0.950 . S
H1112 C1122 0.950 . S
H1113 C1124 0.950 . S
H1114 C1126 0.950 . S
H1115 C1127 0.950 . S
C1116 H1108 0.950 . S
C1116 C1117 1.386 . S
C1116 C1118 1.391 . S
C1117 C1116 1.386 . S
C1117 C1121 1.393 . S
C1118 H1110 0.950 . S
C1118 C1116 1.391 . S
C1118 C1119 1.400 . S
C1119 C1118 1.400 . S
C1119 C1120 1.398 . S
C1119 C1125 1.491 1_655 S
C1120 H1111 0.950 . S
C1120 C1119 1.398 . S
C1120 C1121 1.391 . S
C1121 H1109 0.950 . S
C1121 C1117 1.393 . S
C1121 C1120 1.391 . S
C1122 H1112 0.950 . S
C1122 C1123 1.386 . S
C1122 C1124 1.391 . S
C1123 C1122 1.386 . S
C1123 C1127 1.393 . S
C1124 H1113 0.950 . S
C1124 C1122 1.391 . S
C1124 C1125 1.400 . S
C1125 C1119 1.491 1_455 S
C1125 C1124 1.400 . S
C1125 C1126 1.398 . S
C1126 H1114 0.950 . S
C1126 C1125 1.398 . S
C1126 C1127 1.391 . S
C1127 H1115 0.950 . S
C1127 C1123 1.393 . S
C1127 C1126 1.391 . S
H1128 C1136 0.950 . S
H1129 C1141 0.950 . S
H1130 C1138 0.950 . S
H1131 C1140 0.950 . S
H1132 C1142 0.950 . S
H1133 C1144 0.950 . S
H1134 C1146 0.950 . S
H1135 C1147 0.950 . S
C1136 H1128 0.950 . S
C1136 C1137 1.386 . S
C1136 C1138 1.391 . S
C1137 C1136 1.386 . S
C1137 C1141 1.393 . S
C1138 H1130 0.950 . S
C1138 C1136 1.391 . S
C1138 C1139 1.400 . S
C1139 C1138 1.400 . S
C1139 C1140 1.398 . S
C1139 C1145 1.491 1_565 S
C1140 H1131 0.950 . S
C1140 C1139 1.398 . S
C1140 C1141 1.391 . S
C1141 H1129 0.950 . S
C1141 C1137 1.393 . S
C1141 C1140 1.391 . S
C1142 H1132 0.950 . S
C1142 C1143 1.386 . S
C1142 C1144 1.391 . S
C1143 C1142 1.386 . S
C1143 C1147 1.393 . S
C1144 H1133 0.950 . S
C1144 C1142 1.391 . S
C1144 C1145 1.400 . S
C1145 C1139 1.491 1_545 S
C1145 C1144 1.400 . S
C1145 C1146 1.398 . S
C1146 H1134 0.950 . S
C1146 C1145 1.398 . S
C1146 C1147 1.391 . S
C1147 H1135 0.950 . S
C1147 C1143 1.393 . S
C1147 C1146 1.391 . S
H1148 C1156 0.950 . S
H1149 C1161 0.950 . S
H1150 C1158 0.950 . S
H1151 C1160 0.950 . S
H1152 C1162 0.950 . S
H1153 C1164 0.950 . S
H1154 C1166 0.950 . S
H1155 C1167 0.950 . S
C1156 H1148 0.950 . S
C1156 C1157 1.386 . S
C1156 C1158 1.391 . S
C1157 C1156 1.386 . S
C1157 C1161 1.393 . S
C1158 H1150 0.950 . S
C1158 C1156 1.391 . S
C1158 C1159 1.400 . S
C1159 C1158 1.400 . S
C1159 C1160 1.398 . S
C1159 C1165 1.491 1_655 S
C1160 H1151 0.950 . S
C1160 C1159 1.398 . S
C1160 C1161 1.391 . S
C1161 H1149 0.950 . S
C1161 C1157 1.393 . S
C1161 C1160 1.391 . S
C1162 H1152 0.950 . S
C1162 C1163 1.386 . S
C1162 C1164 1.391 . S
C1163 C1162 1.386 . S
C1163 C1167 1.393 . S
C1164 H1153 0.950 . S
C1164 C1162 1.391 . S
C1164 C1165 1.400 . S
C1165 C1159 1.491 1_455 S
C1165 C1164 1.400 . S
C1165 C1166 1.398 . S
C1166 H1154 0.950 . S
C1166 C1165 1.398 . S
C1166 C1167 1.391 . S
C1167 H1155 0.950 . S
C1167 C1163 1.393 . S
C1167 C1166 1.391 . S
H1168 C1176 0.950 . S
H1169 C1181 0.950 . S
H1170 C1178 0.950 . S
H1171 C1180 0.950 . S
H1172 C1182 0.950 . S
H1173 C1184 0.950 . S
H1174 C1186 0.950 . S
H1175 C1187 0.950 . S
C1176 H1168 0.950 . S
C1176 C1177 1.386 . S
C1176 C1178 1.391 . S
C1177 C1176 1.386 . S
C1177 C1181 1.393 . S
C1178 H1170 0.950 . S
C1178 C1176 1.391 . S
C1178 C1179 1.400 . S
C1179 C1178 1.400 . S
C1179 C1180 1.398 . S
C1179 C1185 1.491 . S
C1180 H1171 0.950 . S
C1180 C1179 1.398 . S
C1180 C1181 1.391 . S
C1181 H1169 0.950 . S
C1181 C1177 1.393 . S
C1181 C1180 1.391 . S
C1182 H1172 0.950 . S
C1182 C1183 1.386 . S
C1182 C1184 1.391 . S
C1183 C1182 1.386 . S
C1183 C1187 1.393 . S
C1184 H1173 0.950 . S
C1184 C1182 1.391 . S
C1184 C1185 1.400 . S
C1185 C1179 1.491 . S
C1185 C1184 1.400 . S
C1185 C1186 1.398 . S
C1186 H1174 0.950 . S
C1186 C1185 1.398 . S
C1186 C1187 1.391 . S
C1187 H1175 0.950 . S
C1187 C1183 1.393 . S
C1187 C1186 1.391 . S
H1188 C1196 0.950 . S
H1189 C1201 0.950 . S
H1190 C1198 0.950 . S
H1191 C1200 0.950 . S
H1192 C1202 0.950 . S
H1193 C1204 0.950 . S
H1194 C1206 0.950 . S
H1195 C1207 0.950 . S
C1196 H1188 0.950 . S
C1196 C1197 1.386 . S
C1196 C1198 1.391 . S
C1197 C1196 1.386 . S
C1197 C1201 1.393 . S
C1198 H1190 0.950 . S
C1198 C1196 1.391 . S
C1198 C1199 1.400 . S
C1199 C1198 1.400 . S
C1199 C1200 1.398 . S
C1199 C1205 1.491 . S
C1200 H1191 0.950 . S
C1200 C1199 1.398 . S
C1200 C1201 1.391 . S
C1201 H1189 0.950 . S
C1201 C1197 1.393 . S
C1201 C1200 1.391 . S
C1202 H1192 0.950 . S
C1202 C1203 1.386 . S
C1202 C1204 1.391 . S
C1203 C1202 1.386 . S
C1203 C1207 1.393 . S
C1204 H1193 0.950 . S
C1204 C1202 1.391 . S
C1204 C1205 1.400 . S
C1205 C1199 1.491 . S
C1205 C1204 1.400 . S
C1205 C1206 1.398 . S
C1206 H1194 0.950 . S
C1206 C1205 1.398 . S
C1206 C1207 1.391 . S
C1207 H1195 0.950 . S
C1207 C1203 1.393 . S
C1207 C1206 1.391 . S
H1208 C1216 0.950 . S
H1209 C1221 0.950 . S
H1210 C1218 0.950 . S
H1211 C1220 0.950 . S
H1212 C1222 0.950 . S
H1213 C1224 0.950 . S
H1214 C1226 0.950 . S
H1215 C1227 0.950 . S
C1216 H1208 0.950 . S
C1216 C1217 1.386 . S
C1216 C1218 1.391 . S
C1217 C1216 1.386 . S
C1217 C1221 1.393 . S
C1218 H1210 0.950 . S
C1218 C1216 1.391 . S
C1218 C1219 1.400 . S
C1219 C1218 1.400 . S
C1219 C1220 1.398 . S
C1219 C1225 1.491 . S
C1220 H1211 0.950 . S
C1220 C1219 1.398 . S
C1220 C1221 1.391 . S
C1221 H1209 0.950 . S
C1221 C1217 1.393 . S
C1221 C1220 1.391 . S
C1222 H1212 0.950 . S
C1222 C1223 1.386 . S
C1222 C1224 1.391 . S
C1223 C1222 1.386 . S
C1223 C1227 1.393 . S
C1224 H1213 0.950 . S
C1224 C1222 1.391 . S
C1224 C1225 1.400 . S
C1225 C1219 1.491 . S
C1225 C1224 1.400 . S
C1225 C1226 1.398 . S
C1226 H1214 0.950 . S
C1226 C1225 1.398 . S
C1226 C1227 1.391 . S
C1227 H1215 0.950 . S
C1227 C1223 1.393 . S
C1227 C1226 1.391 . S
H1228 C1236 0.950 . S
H1229 C1241 0.950 . S
H1230 C1238 0.950 . S
H1231 C1240 0.950 . S
H1232 C1242 0.950 . S
H1233 C1244 0.950 . S
H1234 C1246 0.950 . S
H1235 C1247 0.950 . S
C1236 H1228 0.950 . S
C1236 C1237 1.386 . S
C1236 C1238 1.391 . S
C1237 C1236 1.386 . S
C1237 C1241 1.393 . S
C1238 H1230 0.950 . S
C1238 C1236 1.391 . S
C1238 C1239 1.400 . S
C1239 C1238 1.400 . S
C1239 C1240 1.398 . S
C1239 C1245 1.491 . S
C1240 H1231 0.950 . S
C1240 C1239 1.398 . S
C1240 C1241 1.391 . S
C1241 H1229 0.950 . S
C1241 C1237 1.393 . S
C1241 C1240 1.391 . S
C1242 H1232 0.950 . S
C1242 C1243 1.386 . S
C1242 C1244 1.391 . S
C1243 C1242 1.386 . S
C1243 C1247 1.393 . S
C1244 H1233 0.950 . S
C1244 C1242 1.391 . S
C1244 C1245 1.400 . S
C1245 C1239 1.491 . S
C1245 C1244 1.400 . S
C1245 C1246 1.398 . S
C1246 H1234 0.950 . S
C1246 C1245 1.398 . S
C1246 C1247 1.391 . S
C1247 H1235 0.950 . S
C1247 C1243 1.393 . S
C1247 C1246 1.391 . S
H1248 C1256 0.950 . S
H1249 C1261 0.950 . S
H1250 C1258 0.950 . S
H1251 C1260 0.950 . S
H1252 C1262 0.950 . S
H1253 C1264 0.950 . S
H1254 C1266 0.950 . S
H1255 C1267 0.950 . S
C1256 H1248 0.950 . S
C1256 C1257 1.386 . S
C1256 C1258 1.391 . S
C1257 C1256 1.386 . S
C1257 C1261 1.393 . S
C1258 H1250 0.950 . S
C1258 C1256 1.391 . S
C1258 C1259 1.400 . S
C1259 C1258 1.400 . S
C1259 C1260 1.398 . S
C1259 C1265 1.491 . S
C1260 H1251 0.950 . S
C1260 C1259 1.398 . S
C1260 C1261 1.391 . S
C1261 H1249 0.950 . S
C1261 C1257 1.393 . S
C1261 C1260 1.391 . S
C1262 H1252 0.950 . S
C1262 C1263 1.386 . S
C1262 C1264 1.391 . S
C1263 C1262 1.386 . S
C1263 C1267 1.393 . S
C1264 H1253 0.950 . S
C1264 C1262 1.391 . S
C1264 C1265 1.400 . S
C1265 C1259 1.491 . S
C1265 C1264 1.400 . S
C1265 C1266 1.398 . S
C1266 H1254 0.950 . S
C1266 C1265 1.398 . S
C1266 C1267 1.391 . S
C1267 H1255 0.950 . S
C1267 C1263 1.393 . S
C1267 C1266 1.391 . S
H1268 C1276 0.950 . S
H1269 C1281 0.950 . S
H1270 C1278 0.950 . S
H1271 C1280 0.950 . S
H1272 C1282 0.950 . S
H1273 C1284 0.950 . S
H1274 C1286 0.950 . S
H1275 C1287 0.950 . S
C1276 H1268 0.950 . S
C1276 C1277 1.386 . S
C1276 C1278 1.391 . S
C1277 C1276 1.386 . S
C1277 C1281 1.393 . S
C1278 H1270 0.950 . S
C1278 C1276 1.391 . S
C1278 C1279 1.400 . S
C1279 C1278 1.400 . S
C1279 C1280 1.398 . S
C1279 C1285 1.491 . S
C1280 H1271 0.950 . S
C1280 C1279 1.398 . S
C1280 C1281 1.391 . S
C1281 H1269 0.950 . S
C1281 C1277 1.393 . S
C1281 C1280 1.391 . S
C1282 H1272 0.950 . S
C1282 C1283 1.386 . S
C1282 C1284 1.391 . S
C1283 C1282 1.386 . S
C1283 C1287 1.393 . S
C1284 H1273 0.950 . S
C1284 C1282 1.391 . S
C1284 C1285 1.400 . S
C1285 C1279 1.491 . S
C1285 C1284 1.400 . S
C1285 C1286 1.398 . S
C1286 H1274 0.950 . S
C1286 C1285 1.398 . S
C1286 C1287 1.391 . S
C1287 H1275 0.950 . S
C1287 C1283 1.393 . S
C1287 C1286 1.391 . S
H1288 C1296 0.950 . S
H1289 C1301 0.950 . S
H1290 C1298 0.950 . S
H1291 C1300 0.950 . S
H1292 C1302 0.950 . S
H1293 C1304 0.950 . S
H1294 C1306 0.950 . S
H1295 C1307 0.950 . S
C1296 H1288 0.950 . S
C1296 C1297 1.386 . S
C1296 C1298 1.391 . S
C1297 C1296 1.386 . S
C1297 C1301 1.393 . S
C1298 H1290 0.950 . S
C1298 C1296 1.391 . S
C1298 C1299 1.400 . S
C1299 C1298 1.400 . S
C1299 C1300 1.398 . S
C1299 C1305 1.491 . S
C1300 H1291 0.950 . S
C1300 C1299 1.398 . S
C1300 C1301 1.391 . S
C1301 H1289 0.950 . S
C1301 C1297 1.393 . S
C1301 C1300 1.391 . S
C1302 H1292 0.950 . S
C1302 C1303 1.386 . S
C1302 C1304 1.391 . S
C1303 C1302 1.386 . S
C1303 C1307 1.393 . S
C1304 H1293 0.950 . S
C1304 C1302 1.391 . S
C1304 C1305 1.400 . S
C1305 C1299 1.491 . S
C1305 C1304 1.400 . S
C1305 C1306 1.398 . S
C1306 H1294 0.950 . S
C1306 C1305 1.398 . S
C1306 C1307 1.391 . S
C1307 H1295 0.950 . S
C1307 C1303 1.393 . S
C1307 C1306 1.391 . S
H1308 C1316 0.950 . S
H1309 C1321 0.950 . S
H1310 C1318 0.950 . S
H1311 C1320 0.950 . S
H1312 C1322 0.950 . S
H1313 C1324 0.950 . S
H1314 C1326 0.950 . S
H1315 C1327 0.950 . S
C1316 H1308 0.950 . S
C1316 C1317 1.386 . S
C1316 C1318 1.391 . S
C1317 C1316 1.386 . S
C1317 C1321 1.393 . S
C1318 H1310 0.950 . S
C1318 C1316 1.391 . S
C1318 C1319 1.400 . S
C1319 C1318 1.400 . S
C1319 C1320 1.398 . S
C1319 C1325 1.491 . S
C1320 H1311 0.950 . S
C1320 C1319 1.398 . S
C1320 C1321 1.391 . S
C1321 H1309 0.950 . S
C1321 C1317 1.393 . S
C1321 C1320 1.391 . S
C1322 H1312 0.950 . S
C1322 C1323 1.386 . S
C1322 C1324 1.391 . S
C1323 C1322 1.386 . S
C1323 C1327 1.393 . S
C1324 H1313 0.950 . S
C1324 C1322 1.391 . S
C1324 C1325 1.400 . S
C1325 C1319 1.491 . S
C1325 C1324 1.400 . S
C1325 C1326 1.398 . S
C1326 H1314 0.950 . S
C1326 C1325 1.398 . S
C1326 C1327 1.391 . S
C1327 H1315 0.950 . S
C1327 C1323 1.393 . S
C1327 C1326 1.391 . S
H1328 C1336 0.950 . S
H1329 C1341 0.950 . S
H1330 C1338 0.950 . S
H1331 C1340 0.950 . S
H1332 C1342 0.950 . S
H1333 C1344 0.950 . S
H1334 C1346 0.950 . S
H1335 C1347 0.950 1_554 S
C1336 H1328 0.950 . S
C1336 C1337 1.386 . S
C1336 C1338 1.391 . S
C1337 C1336 1.386 . S
C1337 C1341 1.393 . S
C1338 H1330 0.950 . S
C1338 C1336 1.391 . S
C1338 C1339 1.400 . S
C1339 C1338 1.400 . S
C1339 C1340 1.398 . S
C1339 C1345 1.491 . S
C1340 H1331 0.950 . S
C1340 C1339 1.398 . S
C1340 C1341 1.391 . S
C1341 H1329 0.950 . S
C1341 C1337 1.393 . S
C1341 C1340 1.391 . S
C1342 H1332 0.950 . S
C1342 C1343 1.386 . S
C1342 C1344 1.391 . S
C1343 C1342 1.386 . S
C1343 C1347 1.393 . S
C1344 H1333 0.950 . S
C1344 C1342 1.391 . S
C1344 C1345 1.400 . S
C1345 C1339 1.491 . S
C1345 C1344 1.400 . S
C1345 C1346 1.398 . S
C1346 H1334 0.950 . S
C1346 C1345 1.398 . S
C1346 C1347 1.391 . S
C1347 H1335 0.950 1_556 S
C1347 C1343 1.393 . S
C1347 C1346 1.391 . S
H1348 C1356 0.950 . S
H1349 C1361 0.950 . S
H1350 C1358 0.950 . S
H1351 C1360 0.950 . S
H1352 C1362 0.950 . S
H1353 C1364 0.950 . S
H1354 C1366 0.950 . S
H1355 C1367 0.950 . S
C1356 H1348 0.950 . S
C1356 C1357 1.386 . S
C1356 C1358 1.391 . S
C1357 C1356 1.386 . S
C1357 C1361 1.393 . S
C1358 H1350 0.950 . S
C1358 C1356 1.391 . S
C1358 C1359 1.400 . S
C1359 C1358 1.400 . S
C1359 C1360 1.398 . S
C1359 C1365 1.491 . S
C1360 H1351 0.950 . S
C1360 C1359 1.398 . S
C1360 C1361 1.391 . S
C1361 H1349 0.950 . S
C1361 C1357 1.393 . S
C1361 C1360 1.391 . S
C1362 H1352 0.950 . S
C1362 C1363 1.386 . S
C1362 C1364 1.391 . S
C1363 C1362 1.386 . S
C1363 C1367 1.393 . S
C1364 H1353 0.950 . S
C1364 C1362 1.391 . S
C1364 C1365 1.400 . S
C1365 C1359 1.491 . S
C1365 C1364 1.400 . S
C1365 C1366 1.398 . S
C1366 H1354 0.950 . S
C1366 C1365 1.398 . S
C1366 C1367 1.391 . S
C1367 H1355 0.950 . S
C1367 C1363 1.393 . S
C1367 C1366 1.391 . S
H1368 C1376 0.950 . S
H1369 C1381 0.950 1_554 S
H1370 C1378 0.950 . S
H1371 C1380 0.950 . S
H1372 C1382 0.950 . S
H1373 C1384 0.950 . S
H1374 C1386 0.950 . S
H1375 C1387 0.950 . S
C1376 H1368 0.950 . S
C1376 C1377 1.386 . S
C1376 C1378 1.391 . S
C1377 C1376 1.386 . S
C1377 C1381 1.393 . S
C1378 H1370 0.950 . S
C1378 C1376 1.391 . S
C1378 C1379 1.400 . S
C1379 C1378 1.400 . S
C1379 C1380 1.398 . S
C1379 C1385 1.491 . S
C1380 H1371 0.950 . S
C1380 C1379 1.398 . S
C1380 C1381 1.391 . S
C1381 H1369 0.950 1_556 S
C1381 C1377 1.393 . S
C1381 C1380 1.391 . S
C1382 H1372 0.950 . S
C1382 C1383 1.386 . S
C1382 C1384 1.391 . S
C1383 C1382 1.386 . S
C1383 C1387 1.393 . S
C1384 H1373 0.950 . S
C1384 C1382 1.391 . S
C1384 C1385 1.400 . S
C1385 C1379 1.491 . S
C1385 C1384 1.400 . S
C1385 C1386 1.398 . S
C1386 H1374 0.950 . S
C1386 C1385 1.398 . S
C1386 C1387 1.391 . S
C1387 H1375 0.950 . S
C1387 C1383 1.393 . S
C1387 C1386 1.391 . S
H1388 C1396 0.950 . S
H1389 C1401 0.950 . S
H1390 C1398 0.950 . S
H1391 C1400 0.950 . S
H1392 C1402 0.950 . S
H1393 C1404 0.950 . S
H1394 C1406 0.950 . S
H1395 C1407 0.950 . S
C1396 H1388 0.950 . S
C1396 C1397 1.386 . S
C1396 C1398 1.391 . S
C1397 C1396 1.386 . S
C1397 C1401 1.393 . S
C1398 H1390 0.950 . S
C1398 C1396 1.391 . S
C1398 C1399 1.400 . S
C1399 C1398 1.400 . S
C1399 C1400 1.398 . S
C1399 C1405 1.491 . S
C1400 H1391 0.950 . S
C1400 C1399 1.398 . S
C1400 C1401 1.391 . S
C1401 H1389 0.950 . S
C1401 C1397 1.393 . S
C1401 C1400 1.391 . S
C1402 H1392 0.950 . S
C1402 C1403 1.386 . S
C1402 C1404 1.391 . S
C1403 C1402 1.386 . S
C1403 C1407 1.393 . S
C1404 H1393 0.950 . S
C1404 C1402 1.391 . S
C1404 C1405 1.400 . S
C1405 C1399 1.491 . S
C1405 C1404 1.400 . S
C1405 C1406 1.398 . S
C1406 H1394 0.950 . S
C1406 C1405 1.398 . S
C1406 C1407 1.391 . S
C1407 H1395 0.950 . S
C1407 C1403 1.393 . S
C1407 C1406 1.391 . S
H1408 C1416 0.950 . S
H1409 C1421 0.950 . S
H1410 C1418 0.950 . S
H1411 C1420 0.950 . S
H1412 C1422 0.950 . S
H1413 C1424 0.950 . S
H1414 C1426 0.950 . S
H1415 C1427 0.950 . S
C1416 H1408 0.950 . S
C1416 C1417 1.386 . S
C1416 C1418 1.391 . S
C1417 C1416 1.386 . S
C1417 C1421 1.393 . S
C1418 H1410 0.950 . S
C1418 C1416 1.391 . S
C1418 C1419 1.400 . S
C1419 C1418 1.400 . S
C1419 C1420 1.398 . S
C1419 C1425 1.491 . S
C1420 H1411 0.950 . S
C1420 C1419 1.398 . S
C1420 C1421 1.391 . S
C1421 H1409 0.950 . S
C1421 C1417 1.393 . S
C1421 C1420 1.391 . S
C1422 H1412 0.950 . S
C1422 C1423 1.386 . S
C1422 C1424 1.391 . S
C1423 C1422 1.386 . S
C1423 C1427 1.393 . S
C1424 H1413 0.950 . S
C1424 C1422 1.391 . S
C1424 C1425 1.400 . S
C1425 C1419 1.491 . S
C1425 C1424 1.400 . S
C1425 C1426 1.398 . S
C1426 H1414 0.950 . S
C1426 C1425 1.398 . S
C1426 C1427 1.391 . S
C1427 H1415 0.950 . S
C1427 C1423 1.393 . S
C1427 C1426 1.391 . S
H1428 C1436 0.950 . S
H1429 C1441 0.950 . S
H1430 C1438 0.950 . S
H1431 C1440 0.950 . S
H1432 C1442 0.950 . S
H1433 C1444 0.950 . S
H1434 C1446 0.950 . S
H1435 C1447 0.950 . S
C1436 H1428 0.950 . S
C1436 C1437 1.386 . S
C1436 C1438 1.391 . S
C1437 C1436 1.386 . S
C1437 C1441 1.393 . S
C1438 H1430 0.950 . S
C1438 C1436 1.391 . S
C1438 C1439 1.400 . S
C1439 C1438 1.400 . S
C1439 C1440 1.398 . S
C1439 C1445 1.491 . S
C1440 H1431 0.950 . S
C1440 C1439 1.398 . S
C1440 C1441 1.391 . S
C1441 H1429 0.950 . S
C1441 C1437 1.393 . S
C1441 C1440 1.391 . S
C1442 H1432 0.950 . S
C1442 C1443 1.386 . S
C1442 C1444 1.391 . S
C1443 C1442 1.386 . S
C1443 C1447 1.393 . S
C1444 H1433 0.950 . S
C1444 C1442 1.391 . S
C1444 C1445 1.400 . S
C1445 C1439 1.491 . S
C1445 C1444 1.400 . S
C1445 C1446 1.398 . S
C1446 H1434 0.950 . S
C1446 C1445 1.398 . S
C1446 C1447 1.391 . S
C1447 H1435 0.950 . S
C1447 C1443 1.393 . S
C1447 C1446 1.391 . S
H1448 C1456 0.950 . S
H1449 C1461 0.950 . S
H1450 C1458 0.950 . S
H1451 C1460 0.950 . S
H1452 C1462 0.950 . S
H1453 C1464 0.950 . S
H1454 C1466 0.950 . S
H1455 C1467 0.950 . S
C1456 H1448 0.950 . S
C1456 C1457 1.386 . S
C1456 C1458 1.391 . S
C1457 C1456 1.386 . S
C1457 C1461 1.393 . S
C1458 H1450 0.950 . S
C1458 C1456 1.391 . S
C1458 C1459 1.400 . S
C1459 C1458 1.400 . S
C1459 C1460 1.398 . S
C1459 C1465 1.491 . S
C1460 H1451 0.950 . S
C1460 C1459 1.398 . S
C1460 C1461 1.391 . S
C1461 H1449 0.950 . S
C1461 C1457 1.393 . S
C1461 C1460 1.391 . S
C1462 H1452 0.950 . S
C1462 C1463 1.386 . S
C1462 C1464 1.391 . S
C1463 C1462 1.386 . S
C1463 C1467 1.393 . S
C1464 H1453 0.950 . S
C1464 C1462 1.391 . S
C1464 C1465 1.400 . S
C1465 C1459 1.491 . S
C1465 C1464 1.400 . S
C1465 C1466 1.398 . S
C1466 H1454 0.950 . S
C1466 C1465 1.398 . S
C1466 C1467 1.391 . S
C1467 H1455 0.950 . S
C1467 C1463 1.393 . S
C1467 C1466 1.391 . S
H1468 C1476 0.950 . S
H1469 C1481 0.950 . S
H1470 C1478 0.950 . S
H1471 C1480 0.950 . S
H1472 C1482 0.950 . S
H1473 C1484 0.950 . S
H1474 C1486 0.950 . S
H1475 C1487 0.950 . S
C1476 H1468 0.950 . S
C1476 C1477 1.386 . S
C1476 C1478 1.391 . S
C1477 C1476 1.386 . S
C1477 C1481 1.393 . S
C1478 H1470 0.950 . S
C1478 C1476 1.391 . S
C1478 C1479 1.400 . S
C1479 C1478 1.400 . S
C1479 C1480 1.398 . S
C1479 C1485 1.491 . S
C1480 H1471 0.950 . S
C1480 C1479 1.398 . S
C1480 C1481 1.391 . S
C1481 H1469 0.950 . S
C1481 C1477 1.393 . S
C1481 C1480 1.391 . S
C1482 H1472 0.950 . S
C1482 C1483 1.386 . S
C1482 C1484 1.391 . S
C1483 C1482 1.386 . S
C1483 C1487 1.393 . S
C1484 H1473 0.950 . S
C1484 C1482 1.391 . S
C1484 C1485 1.400 . S
C1485 C1479 1.491 . S
C1485 C1484 1.400 . S
C1485 C1486 1.398 . S
C1486 H1474 0.950 . S
C1486 C1485 1.398 . S
C1486 C1487 1.391 . S
C1487 H1475 0.950 . S
C1487 C1483 1.393 . S
C1487 C1486 1.391 . S
C857 C612 1.720 . S
C863 C38 1.742 . S
C877 C91 1.743 . S
C883 C453 1.716 . S
C897 C144 1.742 . S
C903 C506 1.710 . S
C917 C559 1.713 . S
C923 C197 1.746 . S
C937 C250 1.742 . S
C943 C294 1.707 1_554 S
C957 C303 1.746 . S
C963 C347 1.712 1_556 S
C977 C400 1.706 1_554 S
C983 C356 1.743 . S
C997 C241 1.715 1_556 S
C1003 C409 1.745 . S
C1017 C188 1.712 . S
C1023 C462 1.741 . S
C1037 C515 1.744 . S
C1043 C29 1.700 . S
C1057 C82 1.721 . S
C1063 C568 1.743 . S
C1077 C621 1.745 . S
C1083 C135 1.706 . S
C1097 C674 1.741 . S
C1103 C718 1.713 . S
C1117 C727 1.746 . S
C1123 C771 1.715 . S
C1137 C824 1.713 . S
C1143 C780 1.746 . S
C1157 C665 1.701 . S
C1163 C833 1.744 . S
C1177 C251 1.415 . S
C1183 C39 1.423 . S
C1197 C92 1.419 . S
C1203 C304 1.411 . S
C1217 C145 1.421 . S
C1223 C357 1.426 . S
C1237 C410 1.423 . S
C1243 C198 1.419 . S
C1257 C463 1.407 . S
C1263 C675 1.407 . S
C1277 C728 1.402 . S
C1283 C516 1.405 . S
C1297 C569 1.409 . S
C1303 C781 1.417 . S
C1317 C834 1.403 . S
C1323 C622 1.410 . S
C1337 C764 2.133 . S
C1343 C22 2.137 1_556 S
C1357 C817 2.131 . S
C1363 C75 2.132 1_554 S
C1377 C128 2.135 1_556 S
C1383 C658 2.138 . S
C1397 C711 2.117 . S
C1403 C181 2.117 1_554 S
C1417 C552 2.131 . S
C1423 C234 2.135 . S
C1437 C605 2.128 . S
C1443 C287 2.131 . S
C1457 C340 2.139 . S
C1463 C446 2.139 . S
C1477 C499 2.124 . S
C1483 C393 2.129 . S
