# Generated by pormake.
# Topology wjd, (6)-cn, num edge types: 1
# Building blocks:
#     Node 0, Type 0, BuildingBlock: LEVNOQ01_clean_sbu_1, # of connection points: 6
#     Node 1, Type 0, BuildingBlock: LEVNOQ01_clean_sbu_1, # of connection points: 6
#     Node 2, Type 0, BuildingBlock: LEVNOQ01_clean_sbu_1, # of connection points: 6
#     Node 3, Type 0, BuildingBlock: LEVNOQ01_clean_sbu_1, # of connection points: 6
#     Node 4, Type 0, BuildingBlock: LEVNOQ01_clean_sbu_1, # of connection points: 6
#     Node 5, Type 0, BuildingBlock: LEVNOQ01_clean_sbu_1, # of connection points: 6
#     Node 6, Type 0, BuildingBlock: LEVNOQ01_clean_sbu_1, # of connection points: 6
#     Node 7, Type 0, BuildingBlock: LEVNOQ01_clean_sbu_1, # of connection points: 6
#     Node 8, Type 0, BuildingBlock: LEVNOQ01_clean_sbu_1, # of connection points: 6
#     Node 9, Type 0, BuildingBlock: LEVNOQ01_clean_sbu_1, # of connection points: 6
#     Node 10, Type 0, BuildingBlock: LEVNOQ01_clean_sbu_1, # of connection points: 6
#     Node 11, Type 0, BuildingBlock: LEVNOQ01_clean_sbu_1, # of connection points: 6
#     Edge 12, Type (0, 0), BuildingBlock: EYOCIG_clean_linker_4, # of connection points: 2
#     Edge 13, Type (0, 0), BuildingBlock: EYOCIG_clean_linker_4, # of connection points: 2
#     Edge 14, Type (0, 0), BuildingBlock: EYOCIG_clean_linker_4, # of connection points: 2
#     Edge 15, Type (0, 0), BuildingBlock: EYOCIG_clean_linker_4, # of connection points: 2
#     Edge 16, Type (0, 0), BuildingBlock: EYOCIG_clean_linker_4, # of connection points: 2
#     Edge 17, Type (0, 0), BuildingBlock: EYOCIG_clean_linker_4, # of connection points: 2
#     Edge 18, Type (0, 0), BuildingBlock: EYOCIG_clean_linker_4, # of connection points: 2
#     Edge 19, Type (0, 0), BuildingBlock: EYOCIG_clean_linker_4, # of connection points: 2
#     Edge 20, Type (0, 0), BuildingBlock: EYOCIG_clean_linker_4, # of connection points: 2
#     Edge 21, Type (0, 0), BuildingBlock: EYOCIG_clean_linker_4, # of connection points: 2
#     Edge 22, Type (0, 0), BuildingBlock: EYOCIG_clean_linker_4, # of connection points: 2
#     Edge 23, Type (0, 0), BuildingBlock: EYOCIG_clean_linker_4, # of connection points: 2
#     Edge 24, Type (0, 0), BuildingBlock: EYOCIG_clean_linker_4, # of connection points: 2
#     Edge 25, Type (0, 0), BuildingBlock: EYOCIG_clean_linker_4, # of connection points: 2
#     Edge 26, Type (0, 0), BuildingBlock: EYOCIG_clean_linker_4, # of connection points: 2
#     Edge 27, Type (0, 0), BuildingBlock: EYOCIG_clean_linker_4, # of connection points: 2
#     Edge 28, Type (0, 0), BuildingBlock: EYOCIG_clean_linker_4, # of connection points: 2
#     Edge 29, Type (0, 0), BuildingBlock: EYOCIG_clean_linker_4, # of connection points: 2
#     Edge 30, Type (0, 0), BuildingBlock: EYOCIG_clean_linker_4, # of connection points: 2
#     Edge 31, Type (0, 0), BuildingBlock: EYOCIG_clean_linker_4, # of connection points: 2
#     Edge 32, Type (0, 0), BuildingBlock: EYOCIG_clean_linker_4, # of connection points: 2
#     Edge 33, Type (0, 0), BuildingBlock: EYOCIG_clean_linker_4, # of connection points: 2
#     Edge 34, Type (0, 0), BuildingBlock: EYOCIG_clean_linker_4, # of connection points: 2
#     Edge 35, Type (0, 0), BuildingBlock: EYOCIG_clean_linker_4, # of connection points: 2
#     Edge 36, Type (0, 0), BuildingBlock: EYOCIG_clean_linker_4, # of connection points: 2
#     Edge 37, Type (0, 0), BuildingBlock: EYOCIG_clean_linker_4, # of connection points: 2
#     Edge 38, Type (0, 0), BuildingBlock: EYOCIG_clean_linker_4, # of connection points: 2
#     Edge 39, Type (0, 0), BuildingBlock: EYOCIG_clean_linker_4, # of connection points: 2
#     Edge 40, Type (0, 0), BuildingBlock: EYOCIG_clean_linker_4, # of connection points: 2
#     Edge 41, Type (0, 0), BuildingBlock: EYOCIG_clean_linker_4, # of connection points: 2
#     Edge 42, Type (0, 0), BuildingBlock: EYOCIG_clean_linker_4, # of connection points: 2
#     Edge 43, Type (0, 0), BuildingBlock: EYOCIG_clean_linker_4, # of connection points: 2
#     Edge 44, Type (0, 0), BuildingBlock: EYOCIG_clean_linker_4, # of connection points: 2
#     Edge 45, Type (0, 0), BuildingBlock: EYOCIG_clean_linker_4, # of connection points: 2
#     Edge 46, Type (0, 0), BuildingBlock: EYOCIG_clean_linker_4, # of connection points: 2
#     Edge 47, Type (0, 0), BuildingBlock: EYOCIG_clean_linker_4, # of connection points: 2
# Relax obj value: 0.147
# Max RMSD: 0.188
# Mean RMSD: 0.188
data_MOF--net-wjd--node1-LEVNOQ01_clean_sbu_1--edge1-EYOCIG_clean_linker_4
_symmetry_space_group_name_H-M    P1
_symmetry_Int_Tables_number       1
_symmetry_cell_setting            triclinic
loop_
_symmetry_equiv_pos_as_xyz
'x, y, z'
_cell_length_a     24.929583
_cell_length_b     24.915064
_cell_length_c     45.200702
_cell_angle_alpha  89.989582
_cell_angle_beta   89.9975
_cell_angle_gamma 119.94727
loop_
_atom_site_label
_atom_site_type_symbol
_atom_site_fract_x
_atom_site_fract_y
_atom_site_fract_z
_atom_type_partial_charge
O0 O 0.15547 -0.01784 0.15394 0.0
Mg1 Mg 0.19128 0.0687 0.17521 0.0
O2 O 0.23049 0.01267 0.12049 0.0
Mg3 Mg 0.30241 0.11581 0.12966 0.0
O4 O 0.28506 0.10845 0.17994 0.0
O5 O 0.2207 0.08053 0.2184 0.0
O6 O 0.3728 0.21959 0.13801 0.0
O7 O 0.37659 0.08817 0.13867 0.0
Mg8 Mg 0.41256 0.18052 0.0771 0.0
O9 O 0.32166 0.12137 0.08126 0.0
O10 O 0.4259 0.26373 0.09676 0.0
O11 O 0.44897 0.13461 0.10353 0.0
O12 O 0.36329 0.13866 0.03724 0.0
C13 C 0.19123 0.15642 0.13106 0.0
C14 C 0.17961 0.97138 0.13171 0.0
C15 C 0.27635 0.10477 0.20831 0.0
C16 C 0.40997 0.26726 0.12307 0.0
C17 C 0.42774 0.10063 0.12647 0.0
C18 C 0.31542 0.10757 0.05367 0.0
O19 O 0.1692 0.13209 0.15593 0.0
O20 O 0.23349 0.15024 0.11846 0.0
O21 O 0.64677 0.50168 0.43564 0.0
Mg22 Mg 0.72936 0.53841 0.46181 0.0
O23 O 0.67213 0.57383 0.40042 0.0
Mg24 Mg 0.77388 0.6482 0.4091 0.0
O25 O 0.76101 0.62936 0.45756 0.0
O26 O 0.73687 0.5879 0.50163 0.0
O27 O 0.87718 0.71728 0.41999 0.0
O28 O 0.74249 0.72004 0.4183 0.0
Mg29 Mg 0.8371 0.75898 0.36339 0.0
O30 O 0.78322 0.66509 0.35876 0.0
O31 O 0.92281 0.78134 0.38238 0.0
O32 O 0.7865 0.79489 0.38472 0.0
O33 O 0.81916 0.7294 0.32024 0.0
C34 C 0.81828 0.54094 0.41564 0.0
C35 C 0.63369 0.52275 0.41274 0.0
C36 C 0.75335 0.63567 0.48514 0.0
C37 C 0.92541 0.75946 0.40726 0.0
C38 C 0.75182 0.77083 0.40702 0.0
C39 C 0.78799 0.67375 0.33038 0.0
O40 O 0.79911 0.5251 0.44199 0.0
O41 O 0.80744 0.57792 0.4007 0.0
O42 O 0.96847 0.16378 0.15376 0.0
Mg43 Mg 0.88228 0.11344 0.17533 0.0
O44 O 0.93745 0.20785 0.12027 0.0
Mg45 Mg 0.83449 0.17694 0.12974 0.0
O46 O 0.84256 0.16761 0.18002 0.0
O47 O 0.87103 0.13172 0.21851 0.0
O48 O 0.73086 0.14379 0.13842 0.0
O49 O 0.86228 0.27885 0.13843 0.0
Mg50 Mg 0.76901 0.22174 0.07722 0.0
O51 O 0.82819 0.18994 0.08135 0.0
O52 O 0.68617 0.1522 0.09723 0.0
O53 O 0.81534 0.30439 0.10336 0.0
O54 O 0.81042 0.21375 0.0373 0.0
C55 C 0.79387 0.02522 0.13159 0.0
C56 C -0.02109 0.19838 0.13143 0.0
C57 C 0.84661 0.16299 0.20839 0.0
C58 C 0.68301 0.13308 0.12358 0.0
C59 C 0.84969 0.31742 0.12617 0.0
C60 C 0.84173 0.19718 0.05373 0.0
O61 O 0.81859 0.0278 0.15638 0.0
O62 O 0.7999 0.0735 0.11887 0.0
O63 O 0.44908 0.13464 0.4353 0.0
Mg64 Mg 0.4126 0.18049 0.46172 0.0
O65 O 0.37678 0.0883 0.40014 0.0
Mg66 Mg 0.3026 0.11596 0.40909 0.0
O67 O 0.32166 0.12155 0.45751 0.0
O68 O 0.36322 0.13831 0.50152 0.0
O69 O 0.23366 0.1504 0.42023 0.0
O70 O 0.23069 0.0128 0.41825 0.0
Mg71 Mg 0.19169 0.06893 0.36355 0.0
O72 O 0.28548 0.10867 0.35876 0.0
O73 O 0.16947 0.13227 0.38273 0.0
O74 O 0.15575 -0.01768 0.38477 0.0
O75 O 0.22097 0.08067 0.32035 0.0
C76 C 0.41016 0.26738 0.41576 0.0
C77 C 0.42789 0.10071 0.41235 0.0
C78 C 0.31541 0.10733 0.48505 0.0
C79 C 0.19144 0.1566 0.4076 0.0
C80 C 0.17985 0.97152 0.40701 0.0
C81 C 0.27665 0.10492 0.3304 0.0
O82 O 0.42603 0.26376 0.44207 0.0
O83 O 0.37303 0.21976 0.40078 0.0
O84 O 0.78633 0.79478 0.15414 0.0
Mg85 Mg 0.83697 0.75877 0.17536 0.0
O86 O 0.74213 0.71992 0.1206 0.0
Mg87 Mg 0.7736 0.64811 0.12968 0.0
O88 O 0.78308 0.66489 0.18004 0.0
O89 O 0.81924 0.72925 0.21852 0.0
O90 O 0.80722 0.57785 0.13796 0.0
O91 O 0.67189 0.57368 0.13843 0.0
Mg92 Mg 0.72904 0.5385 0.07692 0.0
O93 O 0.7604 0.62938 0.08122 0.0
O94 O 0.79889 0.52522 0.09662 0.0
O95 O 0.6465 0.50164 0.10315 0.0
O96 O 0.73663 0.58808 0.03712 0.0
C97 C 0.92515 0.75937 0.13141 0.0
C98 C 0.75151 0.77071 0.13189 0.0
C99 C 0.788 0.67359 0.20841 0.0
C100 C 0.81809 0.54097 0.12297 0.0
C101 C 0.63345 0.52262 0.1261 0.0
C102 C 0.75307 0.63582 0.05362 0.0
O103 O 0.92262 0.78117 0.15631 0.0
O104 O 0.87687 0.71724 0.11869 0.0
O105 O 0.81567 0.30466 0.4352 0.0
Mg106 Mg 0.76933 0.2221 0.46139 0.0
O107 O 0.86249 0.27892 0.40015 0.0
Mg108 Mg 0.83467 0.17701 0.40893 0.0
O109 O 0.82826 0.18996 0.45733 0.0
O110 O 0.81088 0.21436 0.50132 0.0
O111 O 0.80012 0.0736 0.41986 0.0
O112 O 0.93763 0.20796 0.41839 0.0
Mg113 Mg 0.88249 0.11345 0.36335 0.0
O114 O 0.84273 0.16759 0.35868 0.0
O115 O 0.81886 0.02785 0.38239 0.0
O116 O 0.96868 0.16391 0.3849 0.0
O117 O 0.87114 0.1317 0.32017 0.0
C118 C 0.68322 0.13328 0.41512 0.0
C119 C 0.84997 0.31757 0.41237 0.0
C120 C 0.84208 0.19764 0.48492 0.0
C121 C 0.79415 0.02531 0.40718 0.0
C122 C -0.0209 0.19852 0.40723 0.0
C123 C 0.84673 0.16298 0.33031 0.0
O124 O 0.68644 0.15257 0.44144 0.0
O125 O 0.73103 0.14384 0.40028 0.0
O126 O -0.02764 0.16534 0.65443 0.0
Mg127 Mg 0.05909 0.20138 0.67551 0.0
O128 O 0.0023 0.24024 0.62091 0.0
Mg129 Mg 0.10545 0.31227 0.62979 0.0
O130 O 0.09863 0.29523 0.68009 0.0
O131 O 0.07132 0.23116 0.71866 0.0
O132 O 0.20923 0.38266 0.63793 0.0
O133 O 0.07785 0.38648 0.63884 0.0
Mg134 Mg 0.1697 0.4222 0.57716 0.0
O135 O 0.11048 0.33124 0.58134 0.0
O136 O 0.25304 0.43554 0.59659 0.0
O137 O 0.12404 0.45878 0.60364 0.0
O138 O 0.12774 0.37299 0.53733 0.0
C139 C 0.14635 0.20127 0.63115 0.0
C140 C 0.96125 0.18936 0.63225 0.0
C141 C 0.09526 0.28674 0.70847 0.0
C142 C 0.25676 0.41968 0.62288 0.0
C143 C 0.0902 0.4376 0.62662 0.0
C144 C 0.09667 0.32507 0.55375 0.0
O145 O 0.12242 0.17942 0.65611 0.0
O146 O 0.13983 0.24333 0.61853 0.0
O147 O 0.15373 0.97896 0.8849 0.0
Mg148 Mg 0.10315 0.89261 0.86347 0.0
O149 O 0.19783 0.94792 0.91835 0.0
Mg150 Mg 0.1666 0.84482 0.90901 0.0
O151 O 0.15706 0.85262 0.85872 0.0
O152 O 0.12104 0.88111 0.82027 0.0
O153 O 0.13317 0.74105 0.90049 0.0
O154 O 0.26833 0.87228 0.90019 0.0
Mg155 Mg 0.21139 0.77939 0.96156 0.0
O156 O 0.17987 0.83883 0.95742 0.0
O157 O 0.14159 0.69648 0.94173 0.0
O158 O 0.29385 0.82534 0.93529 0.0
O159 O 0.20383 0.82117 1.00145 0.0
C160 C 0.01503 0.80456 0.90735 0.0
C161 C 0.18843 -0.01057 0.90718 0.0
C162 C 0.15224 0.85658 0.83035 0.0
C163 C 0.12239 0.69322 0.91539 0.0
C164 C 0.30683 0.85958 0.91242 0.0
C165 C 0.18732 0.85254 0.98502 0.0
O166 O 0.01757 0.82918 0.88252 0.0
O167 O 0.06329 0.81052 0.92002 0.0
O168 O 0.78416 0.79542 0.65427 0.0
Mg169 Mg 0.74807 0.84578 0.6757 0.0
O170 O 0.70963 0.75184 0.62055 0.0
Mg171 Mg 0.63762 0.78299 0.6298 0.0
O172 O 0.6542 0.79189 0.68016 0.0
O173 O 0.71814 0.82738 0.71879 0.0
O174 O 0.56719 0.81638 0.63824 0.0
O175 O 0.56335 0.68111 0.63828 0.0
Mg176 Mg 0.52824 0.73896 0.57699 0.0
O177 O 0.61906 0.77034 0.58131 0.0
O178 O 0.51482 0.80857 0.59689 0.0
O179 O 0.49138 0.65609 0.60302 0.0
O180 O 0.57789 0.74699 0.53718 0.0
C181 C 0.74876 0.93458 0.63199 0.0
C182 C 0.76031 0.76104 0.63186 0.0
C183 C 0.6626 0.79637 0.70855 0.0
C184 C 0.53036 0.8274 0.6233 0.0
C185 C 0.51234 0.64278 0.62589 0.0
C186 C 0.62555 0.76324 0.55369 0.0
O187 O 0.7705 0.93169 0.65685 0.0
O188 O 0.70667 0.88648 0.61914 0.0
O189 O -0.02799 0.16572 0.88447 0.0
Mg190 Mg 0.05875 0.20186 0.86341 0.0
O191 O 0.00216 0.24051 0.91803 0.0
Mg192 Mg 0.10531 0.31251 0.90909 0.0
O193 O 0.09845 0.29574 0.85875 0.0
O194 O 0.0708 0.23144 0.82025 0.0
O195 O 0.20908 0.38296 0.90096 0.0
O196 O 0.07771 0.38676 0.90019 0.0
Mg197 Mg 0.16954 0.42217 0.96187 0.0
O198 O 0.11042 0.33125 0.95754 0.0
O199 O 0.25287 0.43565 0.94234 0.0
O200 O 0.12384 0.45885 0.93548 0.0
O201 O 0.12746 0.37256 1.00163 0.0
C202 C 0.14612 0.20147 0.90757 0.0
C203 C 0.961 0.1897 0.90669 0.0
C204 C 0.09493 0.28708 0.83037 0.0
C205 C 0.2566 0.41993 0.91602 0.0
C206 C 0.09003 0.4378 0.91248 0.0
C207 C 0.09648 0.32479 0.98512 0.0
O208 O 0.12201 0.17963 0.88265 0.0
O209 O 0.13972 0.24356 0.92023 0.0
O210 O 0.15367 0.97865 0.65357 0.0
Mg211 Mg 0.10307 0.89239 0.67509 0.0
O212 O 0.19789 0.94761 0.62019 0.0
Mg213 Mg 0.16668 0.84451 0.62964 0.0
O214 O 0.15702 0.85247 0.6799 0.0
O215 O 0.12096 0.88098 0.71831 0.0
O216 O 0.13326 0.74077 0.63831 0.0
O217 O 0.26843 0.87199 0.63853 0.0
Mg218 Mg 0.21152 0.77883 0.57726 0.0
O219 O 0.18006 0.83834 0.58126 0.0
O220 O 0.14168 0.69599 0.59715 0.0
O221 O 0.29393 0.82482 0.60355 0.0
O222 O 0.20408 0.82045 0.53729 0.0
C223 C 0.01508 0.80419 0.63122 0.0
C224 C 0.18842 -0.0109 0.6313 0.0
C225 C 0.1522 0.85647 0.70826 0.0
C226 C 0.12249 0.69286 0.62349 0.0
C227 C 0.30691 0.85917 0.62637 0.0
C228 C 0.18758 0.85192 0.55364 0.0
O229 O 0.01757 0.82885 0.65602 0.0
O230 O 0.06338 0.81015 0.61857 0.0
O231 O 0.78411 0.7962 0.88451 0.0
Mg232 Mg 0.74788 0.84647 0.86311 0.0
O233 O 0.70952 0.75227 0.91819 0.0
Mg234 Mg 0.63751 0.78343 0.90901 0.0
O235 O 0.65404 0.79238 0.85865 0.0
O236 O 0.71801 0.82811 0.82002 0.0
O237 O 0.5671 0.81683 0.90062 0.0
O238 O 0.5632 0.68156 0.90054 0.0
Mg239 Mg 0.5282 0.73937 0.96189 0.0
O240 O 0.61901 0.77073 0.9575 0.0
O241 O 0.51481 0.80904 0.94201 0.0
O242 O 0.49129 0.65654 0.93584 0.0
O243 O 0.57794 0.74734 1.00166 0.0
C244 C 0.74853 0.93508 0.90686 0.0
C245 C 0.76026 0.76165 0.90688 0.0
C246 C 0.66248 0.79693 0.83026 0.0
C247 C 0.53032 0.82788 0.91559 0.0
C248 C 0.51221 0.64324 0.91295 0.0
C249 C 0.62557 0.76361 0.98511 0.0
O250 O 0.77019 0.93233 0.88195 0.0
O251 O 0.70654 0.88689 0.91971 0.0
C252 C 0.08675 0.22669 0.11081 0.0
C253 C 0.03688 0.22021 0.11673 0.0
C254 C 0.13576 0.2141 0.11083 0.0
C255 C 0.16604 0.19028 0.11688 0.0
C256 C 0.10023 0.86346 0.42735 0.0
C257 C 0.14367 0.91336 0.42155 0.0
C258 C 0.03862 0.81466 0.42727 0.0
C259 C -0.01546 0.7846 0.42126 0.0
C260 C 0.73556 0.91191 0.11166 0.0
C261 C 0.75968 0.96605 0.11763 0.0
C262 C 0.72282 0.85027 0.1116 0.0
C263 C 0.72943 0.80687 0.11738 0.0
C264 C 0.13598 0.21431 0.42779 0.0
C265 C 0.16625 0.19046 0.42175 0.0
C266 C 0.08698 0.2269 0.42781 0.0
C267 C 0.03709 0.22039 0.4219 0.0
C268 C 0.09996 0.86341 0.11131 0.0
C269 C 0.14342 0.91327 0.11714 0.0
C270 C 0.03834 0.81462 0.11136 0.0
C271 C -0.01575 0.78452 0.11736 0.0
C272 C 0.72321 0.85041 0.42734 0.0
C273 C 0.72978 0.80698 0.42156 0.0
C274 C 0.73595 0.91205 0.42722 0.0
C275 C 0.76002 0.96617 0.42119 0.0
C276 C 0.21683 0.09704 0.61072 0.0
C277 C 0.21038 0.04714 0.61662 0.0
C278 C 0.20411 0.14598 0.6108 0.0
C279 C 0.18018 0.17614 0.61691 0.0
C280 C 0.9018 0.74645 0.92733 0.0
C281 C 0.95591 0.77047 0.92135 0.0
C282 C 0.84016 0.73361 0.92734 0.0
C283 C 0.79666 0.73997 0.92149 0.0
C284 C 0.80415 0.04805 0.61221 0.0
C285 C 0.77403 -0.00611 0.61812 0.0
C286 C 0.85301 0.10965 0.61216 0.0
C287 C 0.90295 0.15308 0.61788 0.0
C288 C 0.20407 0.14625 0.92775 0.0
C289 C 0.18007 0.17638 0.92171 0.0
C290 C 0.21683 0.09735 0.92776 0.0
C291 C 0.21035 0.04745 0.92185 0.0
C292 C 0.90186 0.74597 0.61126 0.0
C293 C 0.95597 0.77003 0.61721 0.0
C294 C 0.8402 0.7331 0.61129 0.0
C295 C 0.7967 0.73943 0.61718 0.0
C296 C 0.85279 0.11004 0.92683 0.0
C297 C 0.90273 0.15345 0.9211 0.0
C298 C 0.80391 0.04845 0.92675 0.0
C299 C 0.77379 -0.00568 0.92079 0.0
C300 C 0.34891 0.13592 0.28494 0.0
C301 C 0.32619 0.12619 0.3093 0.0
C302 C 0.34882 0.13587 0.25369 0.0
C303 C 0.32596 0.12608 0.22936 0.0
C304 C 0.74673 0.60114 0.28505 0.0
C305 C 0.75976 0.62403 0.30937 0.0
C306 C 0.74673 0.60109 0.2538 0.0
C307 C 0.75975 0.62392 0.22946 0.0
C308 C 0.81569 0.20465 0.25374 0.0
C309 C 0.82536 0.19146 0.22941 0.0
C310 C 0.81572 0.20464 0.28498 0.0
C311 C 0.82544 0.19144 0.3093 0.0
C312 C 0.12626 0.35949 0.75374 0.0
C313 C 0.11649 0.33652 0.72944 0.0
C314 C 0.1262 0.3596 0.78499 0.0
C315 C 0.11633 0.33678 0.80933 0.0
C316 C 0.19351 0.82537 0.78494 0.0
C317 C 0.18047 0.83516 0.80928 0.0
C318 C 0.1935 0.82536 0.7537 0.0
C319 C 0.18045 0.8351 0.72935 0.0
C320 C 0.58974 0.755 0.75377 0.0
C321 C 0.61272 0.76808 0.72947 0.0
C322 C 0.58971 0.75513 0.78502 0.0
C323 C 0.61265 0.76839 0.80932 0.0
C324 C 0.20018 0.95318 1.0105 0.0
C325 C 0.19177 0.90857 0.99632 0.0
C326 C 0.22734 0.00724 0.0282 0.0
C327 C 0.2637 0.05174 0.04237 0.0
C328 C 0.74051 0.72357 0.51052 0.0
C329 C 0.74891 0.6873 0.49637 0.0
C330 C 0.71346 0.7506 0.52822 0.0
C331 C 0.67717 0.75888 0.5424 0.0
C332 C -0.00391 0.23659 1.01047 0.0
C333 C 0.04062 0.27296 0.99632 0.0
C334 C 0.94207 0.20954 0.02818 0.0
C335 C 0.89759 0.20137 0.04238 0.0
C336 C 0.22751 0.00659 0.51034 0.0
C337 C 0.26376 0.05128 0.49624 0.0
C338 C 0.20044 0.95248 0.52802 0.0
C339 C 0.19206 0.9079 0.54224 0.0
C340 C 0.74056 0.72389 0.0282 0.0
C341 C 0.7488 0.68754 0.04236 0.0
C342 C 0.71354 0.75098 1.0105 0.0
C343 C 0.67722 0.75925 0.99635 0.0
C344 C -0.00358 0.23712 0.52821 0.0
C345 C 0.04087 0.27336 0.54243 0.0
C346 C 0.94248 0.21016 0.51045 0.0
C347 C 0.89798 0.20188 0.49624 0.0
C348 C 0.56999 0.08224 0.14387 0.0
C349 C 0.62371 0.10371 0.13761 0.0
C350 C 0.50955 0.07276 0.14481 0.0
C351 C 0.46623 0.07997 0.1398 0.0
C352 C 0.5238 0.44098 0.39475 0.0
C353 C 0.57439 0.4842 0.39964 0.0
C354 C 0.4727 0.38064 0.39572 0.0
C355 C 0.44032 0.32687 0.40189 0.0
C356 C 0.87834 0.42755 0.14411 0.0
C357 C 0.87079 0.37684 0.13925 0.0
C358 C 0.86907 0.47867 0.14309 0.0
C359 C 0.84752 0.51092 0.13687 0.0
C360 C 0.50971 0.07287 0.394 0.0
C361 C 0.4664 0.08008 0.39903 0.0
C362 C 0.57016 0.08236 0.3949 0.0
C363 C 0.62389 0.10384 0.40112 0.0
C364 C 0.47248 0.38046 0.14316 0.0
C365 C 0.4401 0.32671 0.13697 0.0
C366 C 0.52359 0.44079 0.14413 0.0
C367 C 0.57417 0.48402 0.13922 0.0
C368 C 0.86925 0.47873 0.3954 0.0
C369 C 0.8477 0.51094 0.40168 0.0
C370 C 0.87857 0.42764 0.39435 0.0
C371 C 0.87107 0.37695 0.39923 0.0
C372 C 0.07161 0.57983 0.64386 0.0
C373 C 0.0931 0.63356 0.63755 0.0
C374 C 0.06221 0.51939 0.64488 0.0
C375 C 0.06949 0.47608 0.63992 0.0
C376 C 0.41673 0.88782 0.89435 0.0
C377 C 0.36612 0.88043 0.89927 0.0
C378 C 0.46782 0.87852 0.89536 0.0
C379 C 0.50013 0.85709 0.90161 0.0
C380 C 0.43048 0.53277 0.64375 0.0
C381 C 0.47373 0.58338 0.63891 0.0
C382 C 0.37008 0.48182 0.64278 0.0
C383 C 0.31631 0.44965 0.63666 0.0
C384 C 0.07145 0.58008 0.89519 0.0
C385 C 0.09296 0.63384 0.90142 0.0
C386 C 0.06206 0.51964 0.89425 0.0
C387 C 0.06937 0.47635 0.89922 0.0
C388 C 0.41674 0.88733 0.6445 0.0
C389 C 0.36617 0.88001 0.63956 0.0
C390 C 0.46782 0.87801 0.64353 0.0
C391 C 0.50017 0.8566 0.63729 0.0
C392 C 0.43029 0.53324 0.89511 0.0
C393 C 0.47356 0.58385 0.89994 0.0
C394 C 0.36991 0.48226 0.8961 0.0
C395 C 0.31615 0.45003 0.90224 0.0
loop_
_geom_bond_atom_site_label_1
_geom_bond_atom_site_label_2
_geom_bond_distance
_geom_bond_site_symmetry_2
_ccdc_geom_bond_type
O0 Mg1 1.990 . S
O0 C14 1.253 . S
Mg1 O0 1.990 . S
Mg1 O4 2.180 . S
Mg1 O5 2.117 . S
Mg1 O19 2.030 . S
O2 Mg3 2.072 . S
O2 C14 1.260 . S
Mg3 O2 2.072 . S
Mg3 O4 2.099 . S
Mg3 O6 2.079 . S
Mg3 O7 2.072 . S
Mg3 O9 2.099 . S
Mg3 O20 2.079 . S
O4 Mg1 2.180 . S
O4 Mg3 2.099 . S
O4 C15 1.279 . S
O5 Mg1 2.117 . S
O5 C15 1.250 . S
O6 Mg3 2.079 . S
O6 C16 1.264 . S
O7 Mg3 2.072 . S
O7 C17 1.260 . S
Mg8 O9 2.180 . S
Mg8 O10 2.030 . S
Mg8 O11 1.990 . S
Mg8 O12 2.117 . S
O9 Mg3 2.099 . S
O9 Mg8 2.180 . S
O9 C18 1.279 . S
O10 Mg8 2.030 . S
O10 C16 1.248 . S
O11 Mg8 1.990 . S
O11 C17 1.253 . S
O12 Mg8 2.117 . S
O12 C18 1.250 . S
C13 O19 1.248 . S
C13 O20 1.264 . S
C14 O0 1.253 . S
C14 O2 1.260 . S
C15 O4 1.279 . S
C15 O5 1.250 . S
C16 O6 1.264 . S
C16 O10 1.248 . S
C17 O7 1.260 . S
C17 O11 1.253 . S
C18 O9 1.279 . S
C18 O12 1.250 . S
O19 Mg1 2.030 . S
O19 C13 1.248 . S
O20 Mg3 2.079 . S
O20 C13 1.264 . S
O21 Mg22 1.990 . S
O21 C35 1.253 . S
Mg22 O21 1.990 . S
Mg22 O25 2.180 . S
Mg22 O26 2.117 . S
Mg22 O40 2.030 . S
O23 Mg24 2.072 . S
O23 C35 1.260 . S
Mg24 O23 2.072 . S
Mg24 O25 2.099 . S
Mg24 O27 2.079 . S
Mg24 O28 2.072 . S
Mg24 O30 2.099 . S
Mg24 O41 2.079 . S
O25 Mg22 2.180 . S
O25 Mg24 2.099 . S
O25 C36 1.279 . S
O26 Mg22 2.117 . S
O26 C36 1.250 . S
O27 Mg24 2.079 . S
O27 C37 1.264 . S
O28 Mg24 2.072 . S
O28 C38 1.260 . S
Mg29 O30 2.180 . S
Mg29 O31 2.030 . S
Mg29 O32 1.990 . S
Mg29 O33 2.117 . S
O30 Mg24 2.099 . S
O30 Mg29 2.180 . S
O30 C39 1.279 . S
O31 Mg29 2.030 . S
O31 C37 1.248 . S
O32 Mg29 1.990 . S
O32 C38 1.253 . S
O33 Mg29 2.117 . S
O33 C39 1.250 . S
C34 O40 1.248 . S
C34 O41 1.264 . S
C35 O21 1.253 . S
C35 O23 1.260 . S
C36 O25 1.279 . S
C36 O26 1.250 . S
C37 O27 1.264 . S
C37 O31 1.248 . S
C38 O28 1.260 . S
C38 O32 1.253 . S
C39 O30 1.279 . S
C39 O33 1.250 . S
O40 Mg22 2.030 . S
O40 C34 1.248 . S
O41 Mg24 2.079 . S
O41 C34 1.264 . S
O42 Mg43 1.990 . S
O42 C56 1.253 . S
Mg43 O42 1.990 . S
Mg43 O46 2.180 . S
Mg43 O47 2.117 . S
Mg43 O61 2.030 . S
O44 Mg45 2.072 . S
O44 C56 1.260 . S
Mg45 O44 2.072 . S
Mg45 O46 2.099 . S
Mg45 O48 2.079 . S
Mg45 O49 2.072 . S
Mg45 O51 2.099 . S
Mg45 O62 2.079 . S
O46 Mg43 2.180 . S
O46 Mg45 2.099 . S
O46 C57 1.279 . S
O47 Mg43 2.117 . S
O47 C57 1.250 . S
O48 Mg45 2.079 . S
O48 C58 1.264 . S
O49 Mg45 2.072 . S
O49 C59 1.260 . S
Mg50 O51 2.180 . S
Mg50 O52 2.030 . S
Mg50 O53 1.990 . S
Mg50 O54 2.117 . S
O51 Mg45 2.099 . S
O51 Mg50 2.180 . S
O51 C60 1.279 . S
O52 Mg50 2.030 . S
O52 C58 1.248 . S
O53 Mg50 1.990 . S
O53 C59 1.253 . S
O54 Mg50 2.117 . S
O54 C60 1.250 . S
C55 O61 1.248 . S
C55 O62 1.264 . S
C56 O42 1.253 . S
C56 O44 1.260 . S
C57 O46 1.279 . S
C57 O47 1.250 . S
C58 O48 1.264 . S
C58 O52 1.248 . S
C59 O49 1.260 . S
C59 O53 1.253 . S
C60 O51 1.279 . S
C60 O54 1.250 . S
O61 Mg43 2.030 . S
O61 C55 1.248 . S
O62 Mg45 2.079 . S
O62 C55 1.264 . S
O63 Mg64 1.990 . S
O63 C77 1.253 . S
Mg64 O63 1.990 . S
Mg64 O67 2.180 . S
Mg64 O68 2.117 . S
Mg64 O82 2.030 . S
O65 Mg66 2.072 . S
O65 C77 1.260 . S
Mg66 O65 2.072 . S
Mg66 O67 2.099 . S
Mg66 O69 2.079 . S
Mg66 O70 2.072 . S
Mg66 O72 2.099 . S
Mg66 O83 2.079 . S
O67 Mg64 2.180 . S
O67 Mg66 2.099 . S
O67 C78 1.279 . S
O68 Mg64 2.117 . S
O68 C78 1.250 . S
O69 Mg66 2.079 . S
O69 C79 1.264 . S
O70 Mg66 2.072 . S
O70 C80 1.260 . S
Mg71 O72 2.180 . S
Mg71 O73 2.030 . S
Mg71 O74 1.990 . S
Mg71 O75 2.117 . S
O72 Mg66 2.099 . S
O72 Mg71 2.180 . S
O72 C81 1.279 . S
O73 Mg71 2.030 . S
O73 C79 1.248 . S
O74 Mg71 1.990 . S
O74 C80 1.253 . S
O75 Mg71 2.117 . S
O75 C81 1.250 . S
C76 O82 1.248 . S
C76 O83 1.264 . S
C77 O63 1.253 . S
C77 O65 1.260 . S
C78 O67 1.279 . S
C78 O68 1.250 . S
C79 O69 1.264 . S
C79 O73 1.248 . S
C80 O70 1.260 . S
C80 O74 1.253 . S
C81 O72 1.279 . S
C81 O75 1.250 . S
O82 Mg64 2.030 . S
O82 C76 1.248 . S
O83 Mg66 2.079 . S
O83 C76 1.264 . S
O84 Mg85 1.990 . S
O84 C98 1.253 . S
Mg85 O84 1.990 . S
Mg85 O88 2.180 . S
Mg85 O89 2.117 . S
Mg85 O103 2.030 . S
O86 Mg87 2.072 . S
O86 C98 1.260 . S
Mg87 O86 2.072 . S
Mg87 O88 2.099 . S
Mg87 O90 2.079 . S
Mg87 O91 2.072 . S
Mg87 O93 2.099 . S
Mg87 O104 2.079 . S
O88 Mg85 2.180 . S
O88 Mg87 2.099 . S
O88 C99 1.279 . S
O89 Mg85 2.117 . S
O89 C99 1.250 . S
O90 Mg87 2.079 . S
O90 C100 1.264 . S
O91 Mg87 2.072 . S
O91 C101 1.260 . S
Mg92 O93 2.180 . S
Mg92 O94 2.030 . S
Mg92 O95 1.990 . S
Mg92 O96 2.117 . S
O93 Mg87 2.099 . S
O93 Mg92 2.180 . S
O93 C102 1.279 . S
O94 Mg92 2.030 . S
O94 C100 1.248 . S
O95 Mg92 1.990 . S
O95 C101 1.253 . S
O96 Mg92 2.117 . S
O96 C102 1.250 . S
C97 O103 1.248 . S
C97 O104 1.264 . S
C98 O84 1.253 . S
C98 O86 1.260 . S
C99 O88 1.279 . S
C99 O89 1.250 . S
C100 O90 1.264 . S
C100 O94 1.248 . S
C101 O91 1.260 . S
C101 O95 1.253 . S
C102 O93 1.279 . S
C102 O96 1.250 . S
O103 Mg85 2.030 . S
O103 C97 1.248 . S
O104 Mg87 2.079 . S
O104 C97 1.264 . S
O105 Mg106 1.990 . S
O105 C119 1.253 . S
Mg106 O105 1.990 . S
Mg106 O109 2.180 . S
Mg106 O110 2.117 . S
Mg106 O124 2.030 . S
O107 Mg108 2.072 . S
O107 C119 1.260 . S
Mg108 O107 2.072 . S
Mg108 O109 2.099 . S
Mg108 O111 2.079 . S
Mg108 O112 2.072 . S
Mg108 O114 2.099 . S
Mg108 O125 2.079 . S
O109 Mg106 2.180 . S
O109 Mg108 2.099 . S
O109 C120 1.279 . S
O110 Mg106 2.117 . S
O110 C120 1.250 . S
O111 Mg108 2.079 . S
O111 C121 1.264 . S
O112 Mg108 2.072 . S
O112 C122 1.260 . S
Mg113 O114 2.180 . S
Mg113 O115 2.030 . S
Mg113 O116 1.990 . S
Mg113 O117 2.117 . S
O114 Mg108 2.099 . S
O114 Mg113 2.180 . S
O114 C123 1.279 . S
O115 Mg113 2.030 . S
O115 C121 1.248 . S
O116 Mg113 1.990 . S
O116 C122 1.253 . S
O117 Mg113 2.117 . S
O117 C123 1.250 . S
C118 O124 1.248 . S
C118 O125 1.264 . S
C119 O105 1.253 . S
C119 O107 1.260 . S
C120 O109 1.279 . S
C120 O110 1.250 . S
C121 O111 1.264 . S
C121 O115 1.248 . S
C122 O112 1.260 . S
C122 O116 1.253 . S
C123 O114 1.279 . S
C123 O117 1.250 . S
O124 Mg106 2.030 . S
O124 C118 1.248 . S
O125 Mg108 2.079 . S
O125 C118 1.264 . S
O126 Mg127 1.990 . S
O126 C140 1.253 . S
Mg127 O126 1.990 . S
Mg127 O130 2.180 . S
Mg127 O131 2.117 . S
Mg127 O145 2.030 . S
O128 Mg129 2.072 . S
O128 C140 1.260 . S
Mg129 O128 2.072 . S
Mg129 O130 2.099 . S
Mg129 O132 2.079 . S
Mg129 O133 2.072 . S
Mg129 O135 2.099 . S
Mg129 O146 2.079 . S
O130 Mg127 2.180 . S
O130 Mg129 2.099 . S
O130 C141 1.279 . S
O131 Mg127 2.117 . S
O131 C141 1.250 . S
O132 Mg129 2.079 . S
O132 C142 1.264 . S
O133 Mg129 2.072 . S
O133 C143 1.260 . S
Mg134 O135 2.180 . S
Mg134 O136 2.030 . S
Mg134 O137 1.990 . S
Mg134 O138 2.117 . S
O135 Mg129 2.099 . S
O135 Mg134 2.180 . S
O135 C144 1.279 . S
O136 Mg134 2.030 . S
O136 C142 1.248 . S
O137 Mg134 1.990 . S
O137 C143 1.253 . S
O138 Mg134 2.117 . S
O138 C144 1.250 . S
C139 O145 1.248 . S
C139 O146 1.264 . S
C140 O126 1.253 . S
C140 O128 1.260 . S
C141 O130 1.279 . S
C141 O131 1.250 . S
C142 O132 1.264 . S
C142 O136 1.248 . S
C143 O133 1.260 . S
C143 O137 1.253 . S
C144 O135 1.279 . S
C144 O138 1.250 . S
O145 Mg127 2.030 . S
O145 C139 1.248 . S
O146 Mg129 2.079 . S
O146 C139 1.264 . S
O147 Mg148 1.990 . S
O147 C161 1.253 . S
Mg148 O147 1.990 . S
Mg148 O151 2.180 . S
Mg148 O152 2.117 . S
Mg148 O166 2.030 . S
O149 Mg150 2.072 . S
O149 C161 1.260 . S
Mg150 O149 2.072 . S
Mg150 O151 2.099 . S
Mg150 O153 2.079 . S
Mg150 O154 2.072 . S
Mg150 O156 2.099 . S
Mg150 O167 2.079 . S
O151 Mg148 2.180 . S
O151 Mg150 2.099 . S
O151 C162 1.279 . S
O152 Mg148 2.117 . S
O152 C162 1.250 . S
O153 Mg150 2.079 . S
O153 C163 1.264 . S
O154 Mg150 2.072 . S
O154 C164 1.260 . S
Mg155 O156 2.180 . S
Mg155 O157 2.030 . S
Mg155 O158 1.990 . S
Mg155 O159 2.117 . S
O156 Mg150 2.099 . S
O156 Mg155 2.180 . S
O156 C165 1.279 . S
O157 Mg155 2.030 . S
O157 C163 1.248 . S
O158 Mg155 1.990 . S
O158 C164 1.253 . S
O159 Mg155 2.117 . S
O159 C165 1.250 . S
C160 O166 1.248 . S
C160 O167 1.264 . S
C161 O147 1.253 . S
C161 O149 1.260 . S
C162 O151 1.279 . S
C162 O152 1.250 . S
C163 O153 1.264 . S
C163 O157 1.248 . S
C164 O154 1.260 . S
C164 O158 1.253 . S
C165 O156 1.279 . S
C165 O159 1.250 . S
O166 Mg148 2.030 . S
O166 C160 1.248 . S
O167 Mg150 2.079 . S
O167 C160 1.264 . S
O168 Mg169 1.990 . S
O168 C182 1.253 . S
Mg169 O168 1.990 . S
Mg169 O172 2.180 . S
Mg169 O173 2.117 . S
Mg169 O187 2.030 . S
O170 Mg171 2.072 . S
O170 C182 1.260 . S
Mg171 O170 2.072 . S
Mg171 O172 2.099 . S
Mg171 O174 2.079 . S
Mg171 O175 2.072 . S
Mg171 O177 2.099 . S
Mg171 O188 2.079 . S
O172 Mg169 2.180 . S
O172 Mg171 2.099 . S
O172 C183 1.279 . S
O173 Mg169 2.117 . S
O173 C183 1.250 . S
O174 Mg171 2.079 . S
O174 C184 1.264 . S
O175 Mg171 2.072 . S
O175 C185 1.260 . S
Mg176 O177 2.180 . S
Mg176 O178 2.030 . S
Mg176 O179 1.990 . S
Mg176 O180 2.117 . S
O177 Mg171 2.099 . S
O177 Mg176 2.180 . S
O177 C186 1.279 . S
O178 Mg176 2.030 . S
O178 C184 1.248 . S
O179 Mg176 1.990 . S
O179 C185 1.253 . S
O180 Mg176 2.117 . S
O180 C186 1.250 . S
C181 O187 1.248 . S
C181 O188 1.264 . S
C182 O168 1.253 . S
C182 O170 1.260 . S
C183 O172 1.279 . S
C183 O173 1.250 . S
C184 O174 1.264 . S
C184 O178 1.248 . S
C185 O175 1.260 . S
C185 O179 1.253 . S
C186 O177 1.279 . S
C186 O180 1.250 . S
O187 Mg169 2.030 . S
O187 C181 1.248 . S
O188 Mg171 2.079 . S
O188 C181 1.264 . S
O189 Mg190 1.990 . S
O189 C203 1.253 . S
Mg190 O189 1.990 . S
Mg190 O193 2.180 . S
Mg190 O194 2.117 . S
Mg190 O208 2.030 . S
O191 Mg192 2.072 . S
O191 C203 1.260 . S
Mg192 O191 2.072 . S
Mg192 O193 2.099 . S
Mg192 O195 2.079 . S
Mg192 O196 2.072 . S
Mg192 O198 2.099 . S
Mg192 O209 2.079 . S
O193 Mg190 2.180 . S
O193 Mg192 2.099 . S
O193 C204 1.279 . S
O194 Mg190 2.117 . S
O194 C204 1.250 . S
O195 Mg192 2.079 . S
O195 C205 1.264 . S
O196 Mg192 2.072 . S
O196 C206 1.260 . S
Mg197 O198 2.180 . S
Mg197 O199 2.030 . S
Mg197 O200 1.990 . S
Mg197 O201 2.117 . S
O198 Mg192 2.099 . S
O198 Mg197 2.180 . S
O198 C207 1.279 . S
O199 Mg197 2.030 . S
O199 C205 1.248 . S
O200 Mg197 1.990 . S
O200 C206 1.253 . S
O201 Mg197 2.117 . S
O201 C207 1.250 . S
C202 O208 1.248 . S
C202 O209 1.264 . S
C203 O189 1.253 . S
C203 O191 1.260 . S
C204 O193 1.279 . S
C204 O194 1.250 . S
C205 O195 1.264 . S
C205 O199 1.248 . S
C206 O196 1.260 . S
C206 O200 1.253 . S
C207 O198 1.279 . S
C207 O201 1.250 . S
O208 Mg190 2.030 . S
O208 C202 1.248 . S
O209 Mg192 2.079 . S
O209 C202 1.264 . S
O210 Mg211 1.990 . S
O210 C224 1.253 . S
Mg211 O210 1.990 . S
Mg211 O214 2.180 . S
Mg211 O215 2.117 . S
Mg211 O229 2.030 . S
O212 Mg213 2.072 . S
O212 C224 1.260 . S
Mg213 O212 2.072 . S
Mg213 O214 2.099 . S
Mg213 O216 2.079 . S
Mg213 O217 2.072 . S
Mg213 O219 2.099 . S
Mg213 O230 2.079 . S
O214 Mg211 2.180 . S
O214 Mg213 2.099 . S
O214 C225 1.279 . S
O215 Mg211 2.117 . S
O215 C225 1.250 . S
O216 Mg213 2.079 . S
O216 C226 1.264 . S
O217 Mg213 2.072 . S
O217 C227 1.260 . S
Mg218 O219 2.180 . S
Mg218 O220 2.030 . S
Mg218 O221 1.990 . S
Mg218 O222 2.117 . S
O219 Mg213 2.099 . S
O219 Mg218 2.180 . S
O219 C228 1.279 . S
O220 Mg218 2.030 . S
O220 C226 1.248 . S
O221 Mg218 1.990 . S
O221 C227 1.253 . S
O222 Mg218 2.117 . S
O222 C228 1.250 . S
C223 O229 1.248 . S
C223 O230 1.264 . S
C224 O210 1.253 . S
C224 O212 1.260 . S
C225 O214 1.279 . S
C225 O215 1.250 . S
C226 O216 1.264 . S
C226 O220 1.248 . S
C227 O217 1.260 . S
C227 O221 1.253 . S
C228 O219 1.279 . S
C228 O222 1.250 . S
O229 Mg211 2.030 . S
O229 C223 1.248 . S
O230 Mg213 2.079 . S
O230 C223 1.264 . S
O231 Mg232 1.990 . S
O231 C245 1.253 . S
Mg232 O231 1.990 . S
Mg232 O235 2.180 . S
Mg232 O236 2.117 . S
Mg232 O250 2.030 . S
O233 Mg234 2.072 . S
O233 C245 1.260 . S
Mg234 O233 2.072 . S
Mg234 O235 2.099 . S
Mg234 O237 2.079 . S
Mg234 O238 2.072 . S
Mg234 O240 2.099 . S
Mg234 O251 2.079 . S
O235 Mg232 2.180 . S
O235 Mg234 2.099 . S
O235 C246 1.279 . S
O236 Mg232 2.117 . S
O236 C246 1.250 . S
O237 Mg234 2.079 . S
O237 C247 1.264 . S
O238 Mg234 2.072 . S
O238 C248 1.260 . S
Mg239 O240 2.180 . S
Mg239 O241 2.030 . S
Mg239 O242 1.990 . S
Mg239 O243 2.117 . S
O240 Mg234 2.099 . S
O240 Mg239 2.180 . S
O240 C249 1.279 . S
O241 Mg239 2.030 . S
O241 C247 1.248 . S
O242 Mg239 1.990 . S
O242 C248 1.253 . S
O243 Mg239 2.117 . S
O243 C249 1.250 . S
C244 O250 1.248 . S
C244 O251 1.264 . S
C245 O231 1.253 . S
C245 O233 1.260 . S
C246 O235 1.279 . S
C246 O236 1.250 . S
C247 O237 1.264 . S
C247 O241 1.248 . S
C248 O238 1.260 . S
C248 O242 1.253 . S
C249 O240 1.279 . S
C249 O243 1.250 . S
O250 Mg232 2.030 . S
O250 C244 1.248 . S
O251 Mg234 2.079 . S
O251 C244 1.264 . S
C252 C253 1.170 . S
C252 C254 1.380 . S
C253 C252 1.170 . S
C254 C252 1.380 . S
C254 C255 1.170 . S
C255 C254 1.170 . S
C256 C257 1.170 . S
C256 C258 1.380 . S
C257 C256 1.170 . S
C258 C256 1.380 . S
C258 C259 1.170 . S
C259 C258 1.170 . S
C260 C261 1.170 . S
C260 C262 1.380 . S
C261 C260 1.170 . S
C262 C260 1.380 . S
C262 C263 1.170 . S
C263 C262 1.170 . S
C264 C265 1.170 . S
C264 C266 1.380 . S
C265 C264 1.170 . S
C266 C264 1.380 . S
C266 C267 1.170 . S
C267 C266 1.170 . S
C268 C269 1.170 . S
C268 C270 1.380 . S
C269 C268 1.170 . S
C270 C268 1.380 . S
C270 C271 1.170 . S
C271 C270 1.170 . S
C272 C273 1.170 . S
C272 C274 1.380 . S
C273 C272 1.170 . S
C274 C272 1.380 . S
C274 C275 1.170 . S
C275 C274 1.170 . S
C276 C277 1.170 . S
C276 C278 1.380 . S
C277 C276 1.170 . S
C278 C276 1.380 . S
C278 C279 1.170 . S
C279 C278 1.170 . S
C280 C281 1.170 . S
C280 C282 1.380 . S
C281 C280 1.170 . S
C282 C280 1.380 . S
C282 C283 1.170 . S
C283 C282 1.170 . S
C284 C285 1.170 . S
C284 C286 1.380 . S
C285 C284 1.170 . S
C286 C284 1.380 . S
C286 C287 1.170 . S
C287 C286 1.170 . S
C288 C289 1.170 . S
C288 C290 1.380 . S
C289 C288 1.170 . S
C290 C288 1.380 . S
C290 C291 1.170 . S
C291 C290 1.170 . S
C292 C293 1.170 . S
C292 C294 1.380 . S
C293 C292 1.170 . S
C294 C292 1.380 . S
C294 C295 1.170 . S
C295 C294 1.170 . S
C296 C297 1.170 . S
C296 C298 1.380 . S
C297 C296 1.170 . S
C298 C296 1.380 . S
C298 C299 1.170 . S
C299 C298 1.170 . S
C300 C301 1.170 . S
C300 C302 1.380 . S
C301 C300 1.170 . S
C302 C300 1.380 . S
C302 C303 1.170 . S
C303 C302 1.170 . S
C304 C305 1.170 . S
C304 C306 1.380 . S
C305 C304 1.170 . S
C306 C304 1.380 . S
C306 C307 1.170 . S
C307 C306 1.170 . S
C308 C309 1.170 . S
C308 C310 1.380 . S
C309 C308 1.170 . S
C310 C308 1.380 . S
C310 C311 1.170 . S
C311 C310 1.170 . S
C312 C313 1.170 . S
C312 C314 1.380 . S
C313 C312 1.170 . S
C314 C312 1.380 . S
C314 C315 1.170 . S
C315 C314 1.170 . S
C316 C317 1.170 . S
C316 C318 1.380 . S
C317 C316 1.170 . S
C318 C316 1.380 . S
C318 C319 1.170 . S
C319 C318 1.170 . S
C320 C321 1.170 . S
C320 C322 1.380 . S
C321 C320 1.170 . S
C322 C320 1.380 . S
C322 C323 1.170 . S
C323 C322 1.170 . S
C324 C325 1.170 . S
C324 C326 1.380 1_566 S
C325 C324 1.170 . S
C326 C324 1.380 1_544 S
C326 C327 1.170 . S
C327 C326 1.170 . S
C328 C329 1.170 . S
C328 C330 1.380 . S
C329 C328 1.170 . S
C330 C328 1.380 . S
C330 C331 1.170 . S
C331 C330 1.170 . S
C332 C333 1.170 . S
C332 C334 1.380 1_456 S
C333 C332 1.170 . S
C334 C332 1.380 1_654 S
C334 C335 1.170 . S
C335 C334 1.170 . S
C336 C337 1.170 . S
C336 C338 1.380 1_545 S
C337 C336 1.170 . S
C338 C336 1.380 1_565 S
C338 C339 1.170 . S
C339 C338 1.170 . S
C340 C341 1.170 . S
C340 C342 1.380 1_554 S
C341 C340 1.170 . S
C342 C340 1.380 1_556 S
C342 C343 1.170 . S
C343 C342 1.170 . S
C344 C345 1.170 . S
C344 C346 1.380 1_455 S
C345 C344 1.170 . S
C346 C344 1.380 1_655 S
C346 C347 1.170 . S
C347 C346 1.170 . S
C348 C349 1.170 . S
C348 C350 1.380 . S
C349 C348 1.170 . S
C350 C348 1.380 . S
C350 C351 1.170 . S
C351 C350 1.170 . S
C352 C353 1.170 . S
C352 C354 1.380 . S
C353 C352 1.170 . S
C354 C352 1.380 . S
C354 C355 1.170 . S
C355 C354 1.170 . S
C356 C357 1.170 . S
C356 C358 1.380 . S
C357 C356 1.170 . S
C358 C356 1.380 . S
C358 C359 1.170 . S
C359 C358 1.170 . S
C360 C361 1.170 . S
C360 C362 1.380 . S
C361 C360 1.170 . S
C362 C360 1.380 . S
C362 C363 1.170 . S
C363 C362 1.170 . S
C364 C365 1.170 . S
C364 C366 1.380 . S
C365 C364 1.170 . S
C366 C364 1.380 . S
C366 C367 1.170 . S
C367 C366 1.170 . S
C368 C369 1.170 . S
C368 C370 1.380 . S
C369 C368 1.170 . S
C370 C368 1.380 . S
C370 C371 1.170 . S
C371 C370 1.170 . S
C372 C373 1.170 . S
C372 C374 1.380 . S
C373 C372 1.170 . S
C374 C372 1.380 . S
C374 C375 1.170 . S
C375 C374 1.170 . S
C376 C377 1.170 . S
C376 C378 1.380 . S
C377 C376 1.170 . S
C378 C376 1.380 . S
C378 C379 1.170 . S
C379 C378 1.170 . S
C380 C381 1.170 . S
C380 C382 1.380 . S
C381 C380 1.170 . S
C382 C380 1.380 . S
C382 C383 1.170 . S
C383 C382 1.170 . S
C384 C385 1.170 . S
C384 C386 1.380 . S
C385 C384 1.170 . S
C386 C384 1.380 . S
C386 C387 1.170 . S
C387 C386 1.170 . S
C388 C389 1.170 . S
C388 C390 1.380 . S
C389 C388 1.170 . S
C390 C388 1.380 . S
C390 C391 1.170 . S
C391 C390 1.170 . S
C392 C393 1.170 . S
C392 C394 1.380 . S
C393 C392 1.170 . S
C394 C392 1.380 . S
C394 C395 1.170 . S
C395 C394 1.170 . S
C253 C56 1.130 1_455 S
C255 C13 1.114 . S
C257 C80 1.155 1_565 S
C259 C37 1.140 1_455 S
C261 C55 1.132 1_565 S
C263 C98 1.144 . S
C265 C79 1.129 . S
C267 C122 1.159 1_455 S
C269 C14 1.147 1_565 S
C271 C97 1.134 1_455 S
C273 C38 1.135 . S
C275 C121 1.088 1_565 S
C277 C224 1.127 1_545 S
C279 C139 1.143 . S
C281 C160 1.103 1_655 S
C283 C245 1.119 . S
C285 C181 1.083 1_545 S
C287 C140 1.122 1_655 S
C289 C202 1.111 . S
C291 C161 1.128 1_545 S
C293 C223 1.123 1_655 S
C295 C182 1.158 . S
C297 C203 1.134 1_655 S
C299 C244 1.121 1_545 S
C301 C81 1.323 . S
C303 C15 1.331 . S
C305 C39 1.331 . S
C307 C99 1.350 . S
C309 C57 1.376 . S
C311 C123 1.353 . S
C313 C141 1.340 . S
C315 C204 1.362 . S
C317 C162 1.324 . S
C319 C225 1.334 . S
C321 C183 1.389 . S
C323 C246 1.400 . S
C325 C165 1.637 . S
C327 C18 1.612 . S
C329 C36 1.654 . S
C331 C186 1.653 . S
C333 C207 1.616 . S
C335 C60 1.600 . S
C337 C78 1.644 . S
C339 C228 1.649 . S
C341 C102 1.653 . S
C343 C249 1.636 . S
C345 C144 1.599 . S
C347 C120 1.600 . S
C349 C58 1.288 . S
C351 C17 1.219 . S
C353 C35 1.168 . S
C355 C76 1.283 . S
C357 C59 1.169 . S
C359 C100 1.300 . S
C361 C77 1.211 . S
C363 C118 1.302 . S
C365 C16 1.282 . S
C367 C101 1.169 . S
C369 C34 1.310 . S
C371 C119 1.230 . S
C373 C226 1.289 . S
C375 C143 1.181 . S
C377 C164 1.216 . S
C379 C247 1.311 . S
C381 C185 1.164 . S
C383 C142 1.281 . S
C385 C163 1.297 . S
C387 C206 1.164 . S
C389 C227 1.199 . S
C391 C184 1.296 . S
C393 C248 1.162 . S
C395 C205 1.294 . S
