# Generated by pormake.
# Topology rho, (4)-cn, num edge types: 1
# Building blocks:
#     Node 0, Type 0, BuildingBlock: GALJAG_clean_sbu_0, # of connection points: 4
#     Node 1, Type 0, BuildingBlock: GALJAG_clean_sbu_0, # of connection points: 4
#     Node 2, Type 0, BuildingBlock: GALJAG_clean_sbu_0, # of connection points: 4
#     Node 3, Type 0, BuildingBlock: GALJAG_clean_sbu_0, # of connection points: 4
#     Node 4, Type 0, BuildingBlock: GALJAG_clean_sbu_0, # of connection points: 4
#     Node 5, Type 0, BuildingBlock: GALJAG_clean_sbu_0, # of connection points: 4
#     Node 6, Type 0, BuildingBlock: GALJAG_clean_sbu_0, # of connection points: 4
#     Node 7, Type 0, BuildingBlock: GALJAG_clean_sbu_0, # of connection points: 4
#     Node 8, Type 0, BuildingBlock: GALJAG_clean_sbu_0, # of connection points: 4
#     Node 9, Type 0, BuildingBlock: GALJAG_clean_sbu_0, # of connection points: 4
#     Node 10, Type 0, BuildingBlock: GALJAG_clean_sbu_0, # of connection points: 4
#     Node 11, Type 0, BuildingBlock: GALJAG_clean_sbu_0, # of connection points: 4
#     Node 12, Type 0, BuildingBlock: GALJAG_clean_sbu_0, # of connection points: 4
#     Node 13, Type 0, BuildingBlock: GALJAG_clean_sbu_0, # of connection points: 4
#     Node 14, Type 0, BuildingBlock: GALJAG_clean_sbu_0, # of connection points: 4
#     Node 15, Type 0, BuildingBlock: GALJAG_clean_sbu_0, # of connection points: 4
#     Node 16, Type 0, BuildingBlock: GALJAG_clean_sbu_0, # of connection points: 4
#     Node 17, Type 0, BuildingBlock: GALJAG_clean_sbu_0, # of connection points: 4
#     Node 18, Type 0, BuildingBlock: GALJAG_clean_sbu_0, # of connection points: 4
#     Node 19, Type 0, BuildingBlock: GALJAG_clean_sbu_0, # of connection points: 4
#     Node 20, Type 0, BuildingBlock: GALJAG_clean_sbu_0, # of connection points: 4
#     Node 21, Type 0, BuildingBlock: GALJAG_clean_sbu_0, # of connection points: 4
#     Node 22, Type 0, BuildingBlock: GALJAG_clean_sbu_0, # of connection points: 4
#     Node 23, Type 0, BuildingBlock: GALJAG_clean_sbu_0, # of connection points: 4
#     Node 24, Type 0, BuildingBlock: GALJAG_clean_sbu_0, # of connection points: 4
#     Node 25, Type 0, BuildingBlock: GALJAG_clean_sbu_0, # of connection points: 4
#     Node 26, Type 0, BuildingBlock: GALJAG_clean_sbu_0, # of connection points: 4
#     Node 27, Type 0, BuildingBlock: GALJAG_clean_sbu_0, # of connection points: 4
#     Node 28, Type 0, BuildingBlock: GALJAG_clean_sbu_0, # of connection points: 4
#     Node 29, Type 0, BuildingBlock: GALJAG_clean_sbu_0, # of connection points: 4
#     Node 30, Type 0, BuildingBlock: GALJAG_clean_sbu_0, # of connection points: 4
#     Node 31, Type 0, BuildingBlock: GALJAG_clean_sbu_0, # of connection points: 4
#     Node 32, Type 0, BuildingBlock: GALJAG_clean_sbu_0, # of connection points: 4
#     Node 33, Type 0, BuildingBlock: GALJAG_clean_sbu_0, # of connection points: 4
#     Node 34, Type 0, BuildingBlock: GALJAG_clean_sbu_0, # of connection points: 4
#     Node 35, Type 0, BuildingBlock: GALJAG_clean_sbu_0, # of connection points: 4
#     Node 36, Type 0, BuildingBlock: GALJAG_clean_sbu_0, # of connection points: 4
#     Node 37, Type 0, BuildingBlock: GALJAG_clean_sbu_0, # of connection points: 4
#     Node 38, Type 0, BuildingBlock: GALJAG_clean_sbu_0, # of connection points: 4
#     Node 39, Type 0, BuildingBlock: GALJAG_clean_sbu_0, # of connection points: 4
#     Node 40, Type 0, BuildingBlock: GALJAG_clean_sbu_0, # of connection points: 4
#     Node 41, Type 0, BuildingBlock: GALJAG_clean_sbu_0, # of connection points: 4
#     Node 42, Type 0, BuildingBlock: GALJAG_clean_sbu_0, # of connection points: 4
#     Node 43, Type 0, BuildingBlock: GALJAG_clean_sbu_0, # of connection points: 4
#     Node 44, Type 0, BuildingBlock: GALJAG_clean_sbu_0, # of connection points: 4
#     Node 45, Type 0, BuildingBlock: GALJAG_clean_sbu_0, # of connection points: 4
#     Node 46, Type 0, BuildingBlock: GALJAG_clean_sbu_0, # of connection points: 4
#     Node 47, Type 0, BuildingBlock: GALJAG_clean_sbu_0, # of connection points: 4
#     Edge 48, Type (0, 0), BuildingBlock: TEMPAE_clean_linker_10, # of connection points: 2
#     Edge 49, Type (0, 0), BuildingBlock: TEMPAE_clean_linker_10, # of connection points: 2
#     Edge 50, Type (0, 0), BuildingBlock: TEMPAE_clean_linker_10, # of connection points: 2
#     Edge 51, Type (0, 0), BuildingBlock: TEMPAE_clean_linker_10, # of connection points: 2
#     Edge 52, Type (0, 0), BuildingBlock: TEMPAE_clean_linker_10, # of connection points: 2
#     Edge 53, Type (0, 0), BuildingBlock: TEMPAE_clean_linker_10, # of connection points: 2
#     Edge 54, Type (0, 0), BuildingBlock: TEMPAE_clean_linker_10, # of connection points: 2
#     Edge 55, Type (0, 0), BuildingBlock: TEMPAE_clean_linker_10, # of connection points: 2
#     Edge 56, Type (0, 0), BuildingBlock: TEMPAE_clean_linker_10, # of connection points: 2
#     Edge 57, Type (0, 0), BuildingBlock: TEMPAE_clean_linker_10, # of connection points: 2
#     Edge 58, Type (0, 0), BuildingBlock: TEMPAE_clean_linker_10, # of connection points: 2
#     Edge 59, Type (0, 0), BuildingBlock: TEMPAE_clean_linker_10, # of connection points: 2
#     Edge 60, Type (0, 0), BuildingBlock: TEMPAE_clean_linker_10, # of connection points: 2
#     Edge 61, Type (0, 0), BuildingBlock: TEMPAE_clean_linker_10, # of connection points: 2
#     Edge 62, Type (0, 0), BuildingBlock: TEMPAE_clean_linker_10, # of connection points: 2
#     Edge 63, Type (0, 0), BuildingBlock: TEMPAE_clean_linker_10, # of connection points: 2
#     Edge 64, Type (0, 0), BuildingBlock: TEMPAE_clean_linker_10, # of connection points: 2
#     Edge 65, Type (0, 0), BuildingBlock: TEMPAE_clean_linker_10, # of connection points: 2
#     Edge 66, Type (0, 0), BuildingBlock: TEMPAE_clean_linker_10, # of connection points: 2
#     Edge 67, Type (0, 0), BuildingBlock: TEMPAE_clean_linker_10, # of connection points: 2
#     Edge 68, Type (0, 0), BuildingBlock: TEMPAE_clean_linker_10, # of connection points: 2
#     Edge 69, Type (0, 0), BuildingBlock: TEMPAE_clean_linker_10, # of connection points: 2
#     Edge 70, Type (0, 0), BuildingBlock: TEMPAE_clean_linker_10, # of connection points: 2
#     Edge 71, Type (0, 0), BuildingBlock: TEMPAE_clean_linker_10, # of connection points: 2
#     Edge 72, Type (0, 0), BuildingBlock: TEMPAE_clean_linker_10, # of connection points: 2
#     Edge 73, Type (0, 0), BuildingBlock: TEMPAE_clean_linker_10, # of connection points: 2
#     Edge 74, Type (0, 0), BuildingBlock: TEMPAE_clean_linker_10, # of connection points: 2
#     Edge 75, Type (0, 0), BuildingBlock: TEMPAE_clean_linker_10, # of connection points: 2
#     Edge 76, Type (0, 0), BuildingBlock: TEMPAE_clean_linker_10, # of connection points: 2
#     Edge 77, Type (0, 0), BuildingBlock: TEMPAE_clean_linker_10, # of connection points: 2
#     Edge 78, Type (0, 0), BuildingBlock: TEMPAE_clean_linker_10, # of connection points: 2
#     Edge 79, Type (0, 0), BuildingBlock: TEMPAE_clean_linker_10, # of connection points: 2
#     Edge 80, Type (0, 0), BuildingBlock: TEMPAE_clean_linker_10, # of connection points: 2
#     Edge 81, Type (0, 0), BuildingBlock: TEMPAE_clean_linker_10, # of connection points: 2
#     Edge 82, Type (0, 0), BuildingBlock: TEMPAE_clean_linker_10, # of connection points: 2
#     Edge 83, Type (0, 0), BuildingBlock: TEMPAE_clean_linker_10, # of connection points: 2
#     Edge 84, Type (0, 0), BuildingBlock: TEMPAE_clean_linker_10, # of connection points: 2
#     Edge 85, Type (0, 0), BuildingBlock: TEMPAE_clean_linker_10, # of connection points: 2
#     Edge 86, Type (0, 0), BuildingBlock: TEMPAE_clean_linker_10, # of connection points: 2
#     Edge 87, Type (0, 0), BuildingBlock: TEMPAE_clean_linker_10, # of connection points: 2
#     Edge 88, Type (0, 0), BuildingBlock: TEMPAE_clean_linker_10, # of connection points: 2
#     Edge 89, Type (0, 0), BuildingBlock: TEMPAE_clean_linker_10, # of connection points: 2
#     Edge 90, Type (0, 0), BuildingBlock: TEMPAE_clean_linker_10, # of connection points: 2
#     Edge 91, Type (0, 0), BuildingBlock: TEMPAE_clean_linker_10, # of connection points: 2
#     Edge 92, Type (0, 0), BuildingBlock: TEMPAE_clean_linker_10, # of connection points: 2
#     Edge 93, Type (0, 0), BuildingBlock: TEMPAE_clean_linker_10, # of connection points: 2
#     Edge 94, Type (0, 0), BuildingBlock: TEMPAE_clean_linker_10, # of connection points: 2
#     Edge 95, Type (0, 0), BuildingBlock: TEMPAE_clean_linker_10, # of connection points: 2
#     Edge 96, Type (0, 0), BuildingBlock: TEMPAE_clean_linker_10, # of connection points: 2
#     Edge 97, Type (0, 0), BuildingBlock: TEMPAE_clean_linker_10, # of connection points: 2
#     Edge 98, Type (0, 0), BuildingBlock: TEMPAE_clean_linker_10, # of connection points: 2
#     Edge 99, Type (0, 0), BuildingBlock: TEMPAE_clean_linker_10, # of connection points: 2
#     Edge 100, Type (0, 0), BuildingBlock: TEMPAE_clean_linker_10, # of connection points: 2
#     Edge 101, Type (0, 0), BuildingBlock: TEMPAE_clean_linker_10, # of connection points: 2
#     Edge 102, Type (0, 0), BuildingBlock: TEMPAE_clean_linker_10, # of connection points: 2
#     Edge 103, Type (0, 0), BuildingBlock: TEMPAE_clean_linker_10, # of connection points: 2
#     Edge 104, Type (0, 0), BuildingBlock: TEMPAE_clean_linker_10, # of connection points: 2
#     Edge 105, Type (0, 0), BuildingBlock: TEMPAE_clean_linker_10, # of connection points: 2
#     Edge 106, Type (0, 0), BuildingBlock: TEMPAE_clean_linker_10, # of connection points: 2
#     Edge 107, Type (0, 0), BuildingBlock: TEMPAE_clean_linker_10, # of connection points: 2
#     Edge 108, Type (0, 0), BuildingBlock: TEMPAE_clean_linker_10, # of connection points: 2
#     Edge 109, Type (0, 0), BuildingBlock: TEMPAE_clean_linker_10, # of connection points: 2
#     Edge 110, Type (0, 0), BuildingBlock: TEMPAE_clean_linker_10, # of connection points: 2
#     Edge 111, Type (0, 0), BuildingBlock: TEMPAE_clean_linker_10, # of connection points: 2
#     Edge 112, Type (0, 0), BuildingBlock: TEMPAE_clean_linker_10, # of connection points: 2
#     Edge 113, Type (0, 0), BuildingBlock: TEMPAE_clean_linker_10, # of connection points: 2
#     Edge 114, Type (0, 0), BuildingBlock: TEMPAE_clean_linker_10, # of connection points: 2
#     Edge 115, Type (0, 0), BuildingBlock: TEMPAE_clean_linker_10, # of connection points: 2
#     Edge 116, Type (0, 0), BuildingBlock: TEMPAE_clean_linker_10, # of connection points: 2
#     Edge 117, Type (0, 0), BuildingBlock: TEMPAE_clean_linker_10, # of connection points: 2
#     Edge 118, Type (0, 0), BuildingBlock: TEMPAE_clean_linker_10, # of connection points: 2
#     Edge 119, Type (0, 0), BuildingBlock: TEMPAE_clean_linker_10, # of connection points: 2
#     Edge 120, Type (0, 0), BuildingBlock: TEMPAE_clean_linker_10, # of connection points: 2
#     Edge 121, Type (0, 0), BuildingBlock: TEMPAE_clean_linker_10, # of connection points: 2
#     Edge 122, Type (0, 0), BuildingBlock: TEMPAE_clean_linker_10, # of connection points: 2
#     Edge 123, Type (0, 0), BuildingBlock: TEMPAE_clean_linker_10, # of connection points: 2
#     Edge 124, Type (0, 0), BuildingBlock: TEMPAE_clean_linker_10, # of connection points: 2
#     Edge 125, Type (0, 0), BuildingBlock: TEMPAE_clean_linker_10, # of connection points: 2
#     Edge 126, Type (0, 0), BuildingBlock: TEMPAE_clean_linker_10, # of connection points: 2
#     Edge 127, Type (0, 0), BuildingBlock: TEMPAE_clean_linker_10, # of connection points: 2
#     Edge 128, Type (0, 0), BuildingBlock: TEMPAE_clean_linker_10, # of connection points: 2
#     Edge 129, Type (0, 0), BuildingBlock: TEMPAE_clean_linker_10, # of connection points: 2
#     Edge 130, Type (0, 0), BuildingBlock: TEMPAE_clean_linker_10, # of connection points: 2
#     Edge 131, Type (0, 0), BuildingBlock: TEMPAE_clean_linker_10, # of connection points: 2
#     Edge 132, Type (0, 0), BuildingBlock: TEMPAE_clean_linker_10, # of connection points: 2
#     Edge 133, Type (0, 0), BuildingBlock: TEMPAE_clean_linker_10, # of connection points: 2
#     Edge 134, Type (0, 0), BuildingBlock: TEMPAE_clean_linker_10, # of connection points: 2
#     Edge 135, Type (0, 0), BuildingBlock: TEMPAE_clean_linker_10, # of connection points: 2
#     Edge 136, Type (0, 0), BuildingBlock: TEMPAE_clean_linker_10, # of connection points: 2
#     Edge 137, Type (0, 0), BuildingBlock: TEMPAE_clean_linker_10, # of connection points: 2
#     Edge 138, Type (0, 0), BuildingBlock: TEMPAE_clean_linker_10, # of connection points: 2
#     Edge 139, Type (0, 0), BuildingBlock: TEMPAE_clean_linker_10, # of connection points: 2
#     Edge 140, Type (0, 0), BuildingBlock: TEMPAE_clean_linker_10, # of connection points: 2
#     Edge 141, Type (0, 0), BuildingBlock: TEMPAE_clean_linker_10, # of connection points: 2
#     Edge 142, Type (0, 0), BuildingBlock: TEMPAE_clean_linker_10, # of connection points: 2
#     Edge 143, Type (0, 0), BuildingBlock: TEMPAE_clean_linker_10, # of connection points: 2
# Relax obj value: 0.062
# Max RMSD: 0.056
# Mean RMSD: 0.055
data_MOF--net-rho--node1-GALJAG_clean_sbu_0--edge1-TEMPAE_clean_linker_10
_symmetry_space_group_name_H-M    P1
_symmetry_Int_Tables_number       1
_symmetry_cell_setting            triclinic
loop_
_symmetry_equiv_pos_as_xyz
'x, y, z'
_cell_length_a     73.513125
_cell_length_b     73.503009
_cell_length_c     73.495325
_cell_angle_alpha  90.042744
_cell_angle_beta   90.026753
_cell_angle_gamma 90.154679
loop_
_atom_site_label
_atom_site_type_symbol
_atom_site_fract_x
_atom_site_fract_y
_atom_site_fract_z
_atom_type_partial_charge
In0 In 0.10416 0.24761 0.40042 0.0
O1 O 0.11426 0.26446 0.42458 0.0
O2 O 0.09698 0.24185 0.4299 0.0
C3 C 0.11278 0.27227 0.3746 0.0
C4 C 0.12825 0.22021 0.39592 0.0
C5 C 0.06777 0.24421 0.39678 0.0
O6 O 0.11378 0.27573 0.39138 0.0
O7 O 0.10786 0.25624 0.37087 0.0
O8 O 0.07807 0.23063 0.39864 0.0
O9 O 0.07584 0.25937 0.39669 0.0
C10 C 0.1061 0.25493 0.43632 0.0
O11 O 0.11308 0.22045 0.38791 0.0
O12 O 0.13133 0.23386 0.40583 0.0
In13 In 0.7501 0.109 0.38661 0.0
O14 O 0.76703 0.08402 0.39423 0.0
O15 O 0.74814 0.08141 0.37257 0.0
C16 C 0.77645 0.13319 0.37826 0.0
C17 C 0.72155 0.11713 0.36499 0.0
C18 C 0.74236 0.11128 0.42249 0.0
O19 O 0.77838 0.11633 0.37568 0.0
O20 O 0.76121 0.13774 0.38463 0.0
O21 O 0.73454 0.10005 0.41209 0.0
O22 O 0.75376 0.12148 0.41472 0.0
C23 C 0.75982 0.07376 0.38249 0.0
O24 O 0.72038 0.11709 0.38212 0.0
O25 O 0.73713 0.11343 0.35889 0.0
In26 In 0.89221 0.74906 0.40732 0.0
O27 O 0.88132 0.7738 0.39197 0.0
O28 O 0.86626 0.76409 0.41468 0.0
C29 C 0.92742 0.7556 0.39862 0.0
C30 C 0.89205 0.74314 0.44358 0.0
C31 C 0.88243 0.72131 0.38528 0.0
O32 O 0.9168 0.76809 0.40364 0.0
O33 O 0.92022 0.74007 0.39784 0.0
O34 O 0.89084 0.71897 0.40006 0.0
O35 O 0.87844 0.73764 0.38186 0.0
C36 C 0.86765 0.77575 0.40218 0.0
O37 O 0.88265 0.73372 0.43269 0.0
O38 O 0.90153 0.75536 0.43615 0.0
In39 In 0.25063 0.88601 0.38978 0.0
O40 O 0.23371 0.9111 0.3973 0.0
O41 O 0.25695 0.91491 0.38065 0.0
C42 C 0.22305 0.86373 0.38012 0.0
C43 C 0.27659 0.87713 0.36553 0.0
C44 C 0.25925 0.88202 0.42532 0.0
O45 O 0.22243 0.8807 0.37756 0.0
O46 O 0.23766 0.85811 0.38709 0.0
O47 O 0.26949 0.89032 0.41432 0.0
O48 O 0.24499 0.87558 0.41831 0.0
C49 C 0.24372 0.92213 0.38875 0.0
O50 O 0.27749 0.87236 0.382 0.0
O51 O 0.26251 0.88594 0.36135 0.0
In52 In 0.10327 0.75403 0.59734 0.0
O53 O 0.07984 0.76336 0.61569 0.0
O54 O 0.07359 0.75456 0.58889 0.0
C55 C 0.12566 0.78258 0.60334 0.0
C56 C 0.10896 0.72528 0.61957 0.0
C57 C 0.10879 0.74828 0.56147 0.0
O58 O 0.10862 0.78373 0.60497 0.0
O59 O 0.13136 0.76703 0.59891 0.0
O60 O 0.11458 0.73741 0.57343 0.0
O61 O 0.1005 0.76193 0.56767 0.0
C62 C 0.06771 0.76043 0.60388 0.0
O63 O 0.09841 0.72461 0.60606 0.0
O64 O 0.11699 0.74031 0.62163 0.0
In65 In 0.25289 0.11202 0.61241 0.0
O66 O 0.22702 0.1208 0.62708 0.0
O67 O 0.24233 0.14097 0.61299 0.0
C68 C 0.2451 0.07618 0.61525 0.0
C69 C 0.25713 0.1143 0.57592 0.0
C70 C 0.27991 0.12003 0.6359 0.0
O71 O 0.23293 0.08799 0.61281 0.0
O72 O 0.26101 0.08247 0.61629 0.0
O73 O 0.28057 0.12458 0.61935 0.0
O74 O 0.26554 0.11185 0.64053 0.0
C75 C 0.22839 0.13725 0.6223 0.0
O76 O 0.26992 0.10958 0.58633 0.0
O77 O 0.24244 0.11794 0.58391 0.0
In78 In 0.89711 0.24487 0.59675 0.0
O79 O 0.88494 0.27166 0.60692 0.0
O80 O 0.90078 0.25589 0.6253 0.0
C81 C 0.89242 0.25578 0.56192 0.0
C82 C 0.93309 0.23988 0.60147 0.0
C83 C 0.87458 0.21591 0.6011 0.0
O84 O 0.8813 0.25996 0.57432 0.0
O85 O 0.90572 0.24642 0.56721 0.0
O86 O 0.88652 0.21665 0.58887 0.0
O87 O 0.87419 0.2296 0.61139 0.0
C88 C 0.89173 0.2702 0.62265 0.0
O89 O 0.92173 0.22717 0.60394 0.0
O90 O 0.92624 0.25482 0.5966 0.0
In91 In 0.74805 0.89005 0.60859 0.0
O92 O 0.73103 0.89553 0.58302 0.0
O93 O 0.75484 0.87957 0.58025 0.0
C94 C 0.72061 0.8807 0.63104 0.0
C95 C 0.77502 0.86756 0.61914 0.0
C96 C 0.75476 0.92614 0.61153 0.0
O97 O 0.72025 0.87709 0.61423 0.0
O98 O 0.7349 0.88855 0.63643 0.0
O99 O 0.76506 0.91562 0.60274 0.0
O100 O 0.7414 0.9184 0.61897 0.0
C101 C 0.74142 0.88683 0.57251 0.0
O102 O 0.77609 0.8846 0.62103 0.0
O103 O 0.76028 0.86199 0.61232 0.0
In104 In 0.39226 0.09357 0.25504 0.0
O105 O 0.38095 0.08487 0.28253 0.0
O106 O 0.37228 0.1103 0.27206 0.0
C107 C 0.42578 0.09828 0.26926 0.0
C108 C 0.38636 0.06018 0.24058 0.0
C109 C 0.38884 0.116 0.22605 0.0
O110 O 0.41499 0.11138 0.26678 0.0
O111 O 0.41933 0.08286 0.2653 0.0
O112 O 0.37522 0.10973 0.2344 0.0
O113 O 0.40393 0.11071 0.23214 0.0
C114 C 0.37119 0.09876 0.28472 0.0
O115 O 0.40156 0.06809 0.24014 0.0
O116 O 0.37381 0.0694 0.24773 0.0
In117 In 0.89968 0.40213 0.2455 0.0
O118 O 0.92458 0.3966 0.22755 0.0
O119 O 0.92869 0.39913 0.25599 0.0
C120 C 0.87477 0.39611 0.21912 0.0
C121 C 0.89118 0.37826 0.27219 0.0
C122 C 0.89755 0.43849 0.25052 0.0
O123 O 0.89046 0.38921 0.21874 0.0
O124 O 0.87159 0.40583 0.23291 0.0
O125 O 0.88998 0.42721 0.26102 0.0
O126 O 0.90612 0.43143 0.23744 0.0
C127 C 0.93572 0.39642 0.24059 0.0
O128 O 0.89461 0.3948 0.27521 0.0
O129 O 0.89178 0.37376 0.25564 0.0
In130 In 0.60771 0.90055 0.24701 0.0
O131 O 0.61808 0.88781 0.27344 0.0
O132 O 0.63544 0.90631 0.25957 0.0
C133 C 0.57157 0.89518 0.25092 0.0
C134 C 0.60759 0.93676 0.2413 0.0
C135 C 0.617 0.8753 0.2221 0.0
O136 O 0.582 0.89753 0.26436 0.0
O137 O 0.57938 0.89546 0.23566 0.0
O138 O 0.61765 0.89215 0.21878 0.0
O139 O 0.61219 0.87132 0.23809 0.0
C140 C 0.63312 0.89611 0.27315 0.0
O141 O 0.61359 0.92572 0.22958 0.0
O142 O 0.60171 0.92949 0.25568 0.0
In143 In 0.10727 0.59705 0.24775 0.0
O144 O 0.11898 0.57266 0.26308 0.0
O145 O 0.10118 0.56772 0.2407 0.0
C146 C 0.11362 0.61982 0.27605 0.0
C147 C 0.13073 0.60067 0.21968 0.0
C148 C 0.07154 0.60324 0.24176 0.0
O149 O 0.10618 0.60449 0.27794 0.0
O150 O 0.11829 0.62348 0.25998 0.0
O151 O 0.08368 0.61434 0.23674 0.0
O152 O 0.07749 0.58923 0.24956 0.0
C153 C 0.1108 0.56108 0.25328 0.0
O154 O 0.11415 0.6049 0.2184 0.0
O155 O 0.13544 0.59488 0.23512 0.0
In156 In 0.38729 0.89721 0.7464 0.0
O157 O 0.37794 0.88813 0.77458 0.0
O158 O 0.38536 0.86765 0.75562 0.0
C159 C 0.38548 0.93344 0.7526 0.0
C160 C 0.42361 0.89361 0.74255 0.0
C161 C 0.3629 0.89132 0.71942 0.0
O162 O 0.37811 0.92196 0.76302 0.0
O163 O 0.39356 0.92664 0.73911 0.0
O164 O 0.37927 0.88641 0.71835 0.0
O165 O 0.35874 0.89887 0.73424 0.0
C166 C 0.38003 0.87138 0.7715 0.0
O167 O 0.41291 0.89418 0.72913 0.0
O168 O 0.41598 0.8948 0.75787 0.0
In169 In 0.1016 0.39929 0.75076 0.0
O170 O 0.08685 0.4262 0.74698 0.0
O171 O 0.11521 0.4256 0.74132 0.0
C172 C 0.11267 0.38031 0.72128 0.0
C173 C 0.12429 0.39477 0.77937 0.0
C174 C 0.06743 0.38885 0.75951 0.0
O175 O 0.11725 0.37614 0.73727 0.0
O176 O 0.103 0.39438 0.72012 0.0
O177 O 0.07585 0.38279 0.74589 0.0
O178 O 0.07641 0.39994 0.7691 0.0
C179 C 0.10083 0.43493 0.74213 0.0
O180 O 0.11369 0.38235 0.77403 0.0
O181 O 0.12327 0.40933 0.77043 0.0
In182 In 0.60736 0.10001 0.75014 0.0
O183 O 0.61893 0.07439 0.76354 0.0
O184 O 0.59655 0.07141 0.74549 0.0
C185 C 0.61689 0.12281 0.7774 0.0
C186 C 0.63122 0.1047 0.72263 0.0
C187 C 0.57176 0.10737 0.74476 0.0
O188 O 0.61069 0.10705 0.78017 0.0
O189 O 0.61882 0.12692 0.76085 0.0
O190 O 0.58241 0.10384 0.73177 0.0
O191 O 0.57915 0.10744 0.76023 0.0
C192 C 0.60782 0.06374 0.75587 0.0
O193 O 0.61712 0.11434 0.72424 0.0
O194 O 0.63335 0.09303 0.735 0.0
In195 In 0.88903 0.59471 0.75011 0.0
O196 O 0.9162 0.58714 0.76314 0.0
O197 O 0.9134 0.61392 0.75295 0.0
C198 C 0.87021 0.59965 0.78132 0.0
C199 C 0.87962 0.61498 0.72095 0.0
C200 C 0.88354 0.56069 0.73737 0.0
O201 O 0.87467 0.61269 0.7711 0.0
O202 O 0.8755 0.58428 0.77594 0.0
O203 O 0.87062 0.57068 0.74264 0.0
O204 O 0.89901 0.56812 0.73799 0.0
C205 C 0.92362 0.60235 0.76033 0.0
O206 O 0.8936 0.60511 0.72135 0.0
O207 O 0.86994 0.61417 0.7351 0.0
In208 In 0.24922 0.39174 0.10056 0.0
O209 O 0.27341 0.38014 0.1162 0.0
O210 O 0.26259 0.36471 0.09416 0.0
C211 C 0.25547 0.42707 0.10934 0.0
C212 C 0.24571 0.39189 0.06398 0.0
C213 C 0.22116 0.38105 0.12166 0.0
O214 O 0.26814 0.41621 0.10552 0.0
O215 O 0.23985 0.42002 0.1091 0.0
O216 O 0.21893 0.38945 0.10686 0.0
O217 O 0.23752 0.37785 0.1257 0.0
C218 C 0.27441 0.36592 0.10657 0.0
O219 O 0.23378 0.38507 0.07428 0.0
O220 O 0.2592 0.39866 0.07213 0.0
In221 In 0.24703 0.6078 0.88914 0.0
O222 O 0.26034 0.58143 0.89827 0.0
O223 O 0.25063 0.58267 0.87109 0.0
C224 C 0.27602 0.6294 0.88277 0.0
C225 C 0.21843 0.61484 0.86703 0.0
C226 C 0.23763 0.61281 0.92446 0.0
O227 O 0.27725 0.61228 0.88345 0.0
O228 O 0.26018 0.63553 0.8852 0.0
O229 O 0.23307 0.59893 0.91548 0.0
O230 O 0.24648 0.62444 0.9155 0.0
C231 C 0.25807 0.57325 0.88335 0.0
O232 O 0.21678 0.60641 0.88186 0.0
O233 O 0.23442 0.61987 0.86346 0.0
In234 In 0.3933 0.2495 0.90152 0.0
O235 O 0.39914 0.23247 0.92692 0.0
O236 O 0.38007 0.25398 0.92917 0.0
C237 C 0.38405 0.22156 0.87938 0.0
C238 C 0.37152 0.27792 0.8937 0.0
C239 C 0.42918 0.25697 0.89728 0.0
O240 O 0.38687 0.21947 0.89617 0.0
O241 O 0.38539 0.23776 0.87393 0.0
O242 O 0.42018 0.26237 0.91083 0.0
O243 O 0.41998 0.2483 0.88568 0.0
C244 C 0.38848 0.2413 0.93705 0.0
O245 O 0.38864 0.27897 0.89266 0.0
O246 O 0.3655 0.26253 0.89839 0.0
In247 In 0.74812 0.39482 0.89309 0.0
O248 O 0.77419 0.38035 0.88416 0.0
O249 O 0.76001 0.39656 0.8648 0.0
C250 C 0.76139 0.38991 0.92712 0.0
C251 C 0.74056 0.43057 0.88921 0.0
C252 C 0.71821 0.37414 0.88683 0.0
O253 O 0.76122 0.40514 0.91929 0.0
O254 O 0.75546 0.37695 0.91754 0.0
O255 O 0.71982 0.38432 0.90053 0.0
O256 O 0.73148 0.37471 0.87601 0.0
C257 C 0.77358 0.38664 0.86816 0.0
O258 O 0.72917 0.4195 0.89579 0.0
O259 O 0.75546 0.42357 0.88457 0.0
In260 In 0.60389 0.75259 0.89896 0.0
O261 O 0.61439 0.72588 0.88703 0.0
O262 O 0.63135 0.74011 0.90567 0.0
C263 C 0.56851 0.74579 0.89178 0.0
C264 C 0.60442 0.75774 0.93527 0.0
C265 C 0.61197 0.77944 0.87513 0.0
O266 O 0.58054 0.73363 0.89062 0.0
O267 O 0.57436 0.76122 0.8965 0.0
O268 O 0.60676 0.78251 0.89116 0.0
O269 O 0.61352 0.76282 0.87124 0.0
C270 C 0.62923 0.72633 0.89567 0.0
O271 O 0.6145 0.76665 0.92457 0.0
O272 O 0.59413 0.74628 0.92764 0.0
In273 In 0.7522 0.60415 0.11139 0.0
O274 O 0.77015 0.60585 0.08592 0.0
O275 O 0.74333 0.61608 0.08413 0.0
C276 C 0.77852 0.61214 0.13566 0.0
C277 C 0.72325 0.62408 0.1216 0.0
C278 C 0.74801 0.56756 0.11187 0.0
O279 O 0.77689 0.62057 0.12078 0.0
O280 O 0.7667 0.59996 0.13835 0.0
O281 O 0.73686 0.57813 0.11945 0.0
O282 O 0.76111 0.57543 0.10412 0.0
C283 C 0.75813 0.61307 0.07609 0.0
O284 O 0.72179 0.60972 0.11227 0.0
O285 O 0.73933 0.62824 0.12605 0.0
In286 In 0.3996 0.74633 0.0964 0.0
O287 O 0.39587 0.77611 0.1042 0.0
O288 O 0.38938 0.75624 0.12407 0.0
C289 C 0.3984 0.75285 0.06033 0.0
C290 C 0.4353 0.74001 0.10302 0.0
C291 C 0.37397 0.72028 0.10054 0.0
O292 O 0.39084 0.76311 0.07184 0.0
O293 O 0.40651 0.7393 0.06703 0.0
O294 O 0.3879 0.72116 0.11056 0.0
O295 O 0.37288 0.73263 0.0887 0.0
C296 C 0.39054 0.7729 0.12016 0.0
O297 O 0.4238 0.72731 0.10185 0.0
O298 O 0.42878 0.75568 0.10089 0.0
In299 In 0.59982 0.25375 0.10408 0.0
O300 O 0.57661 0.2558 0.12472 0.0
O301 O 0.57298 0.26858 0.09919 0.0
C302 C 0.62112 0.28343 0.10902 0.0
C303 C 0.60812 0.22304 0.12234 0.0
C304 C 0.60318 0.24227 0.06935 0.0
O305 O 0.61746 0.27252 0.12174 0.0
O306 O 0.6137 0.27959 0.09405 0.0
O307 O 0.61679 0.24489 0.07952 0.0
O308 O 0.58803 0.24497 0.07689 0.0
C309 C 0.56615 0.26455 0.11438 0.0
O310 O 0.59433 0.22441 0.11223 0.0
O311 O 0.61812 0.23702 0.12279 0.0
In312 In 0.89677 0.74821 0.61515 0.0
O313 O 0.90664 0.73614 0.58829 0.0
O314 O 0.87952 0.74579 0.58937 0.0
C315 C 0.88556 0.72108 0.63715 0.0
C316 C 0.87696 0.77822 0.62249 0.0
C317 C 0.93272 0.75464 0.62 0.0
O318 O 0.88107 0.72185 0.62059 0.0
O319 O 0.89535 0.73412 0.64258 0.0
O320 O 0.92145 0.76729 0.61743 0.0
O321 O 0.9258 0.73896 0.6204 0.0
C322 C 0.89197 0.73885 0.57987 0.0
O323 O 0.88678 0.77671 0.60852 0.0
O324 O 0.87749 0.76475 0.6331 0.0
In325 In 0.24533 0.90603 0.59444 0.0
O326 O 0.23163 0.92921 0.61046 0.0
O327 O 0.24729 0.93584 0.58715 0.0
C328 C 0.21509 0.88561 0.59992 0.0
C329 C 0.27422 0.89847 0.61591 0.0
C330 C 0.25468 0.89967 0.55954 0.0
O331 O 0.22009 0.89101 0.58446 0.0
O332 O 0.22508 0.8909 0.61284 0.0
O333 O 0.26183 0.89096 0.57252 0.0
O334 O 0.24304 0.91129 0.56429 0.0
C335 C 0.23766 0.94151 0.6001 0.0
O336 O 0.27172 0.91383 0.60874 0.0
O337 O 0.26243 0.88667 0.6118 0.0
In338 In 0.10351 0.25236 0.60666 0.0
O339 O 0.09887 0.26967 0.58132 0.0
O340 O 0.11963 0.24965 0.58036 0.0
C341 C 0.10729 0.28253 0.6273 0.0
C342 C 0.12568 0.22535 0.61798 0.0
C343 C 0.06876 0.24028 0.60758 0.0
O344 O 0.11865 0.27828 0.61516 0.0
O345 O 0.09406 0.2717 0.62882 0.0
O346 O 0.0783 0.24188 0.62177 0.0
O347 O 0.07685 0.24446 0.59306 0.0
C348 C 0.11093 0.26181 0.57199 0.0
O349 O 0.11323 0.22293 0.60645 0.0
O350 O 0.12673 0.24132 0.62412 0.0
In351 In 0.74732 0.09815 0.59498 0.0
O352 O 0.76185 0.07377 0.60793 0.0
O353 O 0.73994 0.06858 0.58985 0.0
C354 C 0.77455 0.12235 0.59934 0.0
C355 C 0.72093 0.10551 0.61959 0.0
C356 C 0.74342 0.10211 0.55874 0.0
O357 O 0.7764 0.10565 0.60291 0.0
O358 O 0.75894 0.1268 0.59376 0.0
O359 O 0.73242 0.10909 0.56994 0.0
O360 O 0.75629 0.09329 0.56587 0.0
C361 C 0.75204 0.06206 0.60005 0.0
O362 O 0.71748 0.09972 0.60382 0.0
O363 O 0.73759 0.10783 0.62284 0.0
In364 In 0.89566 0.25493 0.3934 0.0
O365 O 0.87941 0.27822 0.38044 0.0
O366 O 0.90636 0.27356 0.37124 0.0
C367 C 0.88471 0.26403 0.42737 0.0
C368 C 0.93124 0.24591 0.39487 0.0
C369 C 0.87586 0.22589 0.38253 0.0
O370 O 0.8948 0.27425 0.41794 0.0
O371 O 0.87972 0.24968 0.41941 0.0
O372 O 0.88821 0.22487 0.39439 0.0
O373 O 0.87376 0.24152 0.37577 0.0
C374 C 0.89207 0.28287 0.3698 0.0
O375 O 0.92133 0.24217 0.38135 0.0
O376 O 0.92313 0.2539 0.40768 0.0
In377 In 0.7502 0.9025 0.40053 0.0
O378 O 0.73495 0.89004 0.4248 0.0
O379 O 0.75662 0.90843 0.43015 0.0
C380 C 0.72442 0.89685 0.37504 0.0
C381 C 0.77633 0.87717 0.39636 0.0
C382 C 0.75571 0.93828 0.39438 0.0
O383 O 0.72058 0.90063 0.39135 0.0
O384 O 0.74121 0.89578 0.37167 0.0
O385 O 0.76641 0.92629 0.38834 0.0
O386 O 0.74241 0.93215 0.40331 0.0
C387 C 0.74441 0.89825 0.43658 0.0
O388 O 0.77998 0.89376 0.39902 0.0
O389 O 0.75958 0.87347 0.39566 0.0
In390 In 0.09876 0.74776 0.39182 0.0
O391 O 0.11475 0.7229 0.38195 0.0
O392 O 0.09006 0.72927 0.36851 0.0
C393 C 0.10875 0.73877 0.42604 0.0
C394 C 0.06323 0.75722 0.39268 0.0
C395 C 0.11886 0.77678 0.38153 0.0
O396 O 0.09626 0.73053 0.41756 0.0
O397 O 0.11659 0.75109 0.41702 0.0
O398 O 0.10721 0.77753 0.3941 0.0
O399 O 0.12005 0.7615 0.37382 0.0
C400 C 0.10359 0.71884 0.36955 0.0
O401 O 0.07325 0.76052 0.37914 0.0
O402 O 0.0712 0.74947 0.4057 0.0
In403 In 0.24618 0.09454 0.40435 0.0
O404 O 0.25998 0.10953 0.4281 0.0
O405 O 0.24091 0.08868 0.43419 0.0
C406 C 0.27326 0.09894 0.38004 0.0
C407 C 0.21895 0.11825 0.39723 0.0
C408 C 0.24235 0.05826 0.40049 0.0
O409 O 0.27535 0.10227 0.39678 0.0
O410 O 0.25755 0.09355 0.37566 0.0
O411 O 0.23143 0.06938 0.39327 0.0
O412 O 0.25508 0.0655 0.40948 0.0
C413 C 0.25182 0.10047 0.44021 0.0
O414 O 0.21619 0.103 0.40456 0.0
O415 O 0.23532 0.12141 0.39331 0.0
In416 In 0.59616 0.89306 0.74613 0.0
O417 O 0.61324 0.88317 0.7702 0.0
O418 O 0.58781 0.8703 0.76527 0.0
C419 C 0.60587 0.92762 0.75418 0.0
C420 C 0.56016 0.89308 0.73857 0.0
C421 C 0.61638 0.88175 0.7176 0.0
O422 O 0.59681 0.91783 0.765 0.0
O423 O 0.61037 0.91982 0.73958 0.0
O424 O 0.60362 0.89305 0.71597 0.0
O425 O 0.61863 0.87579 0.73352 0.0
C426 C 0.60193 0.87114 0.77497 0.0
O427 O 0.57017 0.87954 0.73531 0.0
O428 O 0.56838 0.90658 0.74523 0.0
In429 In 0.09537 0.60796 0.74598 0.0
O430 O 0.10781 0.61623 0.71865 0.0
O431 O 0.094 0.63645 0.73389 0.0
C432 C 0.097 0.5715 0.74253 0.0
C433 C 0.05919 0.61033 0.7516 0.0
C434 C 0.12164 0.61481 0.77074 0.0
O435 O 0.09855 0.58205 0.72905 0.0
O436 O 0.0946 0.57937 0.75759 0.0
O437 O 0.10569 0.62092 0.7724 0.0
O438 O 0.12433 0.60569 0.75647 0.0
C439 C 0.1026 0.63254 0.71959 0.0
O440 O 0.07064 0.61424 0.76381 0.0
O441 O 0.06603 0.60543 0.73665 0.0
In442 In 0.40046 0.10371 0.755 0.0
O443 O 0.42527 0.11896 0.74382 0.0
O444 O 0.42833 0.09109 0.75068 0.0
C445 C 0.38146 0.11487 0.72563 0.0
C446 C 0.39446 0.12414 0.78505 0.0
C447 C 0.39093 0.06909 0.76318 0.0
O448 O 0.39217 0.10151 0.72522 0.0
O449 O 0.38068 0.12295 0.74075 0.0
O450 O 0.40383 0.07727 0.77106 0.0
O451 O 0.38251 0.07858 0.75167 0.0
C452 C 0.43575 0.10543 0.74487 0.0
O453 O 0.40973 0.12304 0.77737 0.0
O454 O 0.38212 0.11469 0.77774 0.0
In455 In 0.89576 0.3902 0.74744 0.0
O456 O 0.8828 0.41351 0.73118 0.0
O457 O 0.89529 0.41969 0.75648 0.0
C458 C 0.89122 0.36642 0.71984 0.0
C459 C 0.87226 0.38276 0.77449 0.0
C460 C 0.93192 0.38678 0.75325 0.0
O461 O 0.89673 0.38249 0.71738 0.0
O462 O 0.88796 0.36236 0.73618 0.0
O463 O 0.92042 0.37681 0.76119 0.0
O464 O 0.92516 0.3982 0.74246 0.0
C465 C 0.88696 0.42556 0.74271 0.0
O466 O 0.88856 0.38735 0.77743 0.0
O467 O 0.86787 0.38176 0.75791 0.0
In468 In 0.59543 0.10721 0.24879 0.0
O469 O 0.57234 0.10921 0.26972 0.0
O470 O 0.5655 0.10989 0.24169 0.0
C471 C 0.61702 0.11369 0.27783 0.0
C472 C 0.60367 0.13088 0.22194 0.0
C473 C 0.60082 0.07258 0.23769 0.0
O474 O 0.60862 0.09889 0.27552 0.0
O475 O 0.61421 0.12546 0.26567 0.0
O476 O 0.58535 0.07992 0.23795 0.0
O477 O 0.61369 0.08285 0.24258 0.0
C478 C 0.55993 0.1102 0.2579 0.0
O479 O 0.60902 0.11458 0.22174 0.0
O480 O 0.59442 0.13518 0.23571 0.0
In481 In 0.90092 0.61066 0.25488 0.0
O482 O 0.92504 0.61426 0.23541 0.0
O483 O 0.93005 0.61584 0.26382 0.0
C484 C 0.8799 0.61944 0.2261 0.0
C485 C 0.89178 0.63305 0.28241 0.0
C486 C 0.89638 0.57471 0.26202 0.0
O487 O 0.89309 0.60855 0.22494 0.0
O488 O 0.87769 0.62634 0.24165 0.0
O489 O 0.91078 0.58322 0.26576 0.0
O490 O 0.884 0.58445 0.25535 0.0
C491 C 0.93657 0.6164 0.24797 0.0
O492 O 0.88654 0.61667 0.28186 0.0
O493 O 0.90131 0.63804 0.26903 0.0
In494 In 0.39858 0.88992 0.24726 0.0
O495 O 0.39079 0.91409 0.22908 0.0
O496 O 0.39161 0.91812 0.25766 0.0
C497 C 0.39419 0.86649 0.21937 0.0
C498 C 0.37743 0.87809 0.27495 0.0
C499 C 0.43497 0.89083 0.25191 0.0
O500 O 0.38319 0.87934 0.22232 0.0
O501 O 0.40727 0.86556 0.23044 0.0
O502 O 0.42505 0.87885 0.25922 0.0
O503 O 0.42654 0.90225 0.24231 0.0
C504 C 0.3889 0.92501 0.2422 0.0
O505 O 0.39188 0.887 0.27745 0.0
O506 O 0.37383 0.87479 0.25852 0.0
In507 In 0.10639 0.39007 0.24834 0.0
O508 O 0.09785 0.3784 0.27585 0.0
O509 O 0.12297 0.36961 0.26492 0.0
C510 C 0.11336 0.42534 0.25606 0.0
C511 C 0.07159 0.38844 0.2364 0.0
C512 C 0.12988 0.38066 0.22189 0.0
O513 O 0.1072 0.41452 0.2679 0.0
O514 O 0.116 0.41833 0.24066 0.0
O515 O 0.11335 0.37587 0.22138 0.0
O516 O 0.13441 0.38957 0.23585 0.0
C517 C 0.11163 0.36843 0.2777 0.0
O518 O 0.08055 0.37437 0.24038 0.0
O519 O 0.08041 0.40309 0.23776 0.0
In520 In 0.74911 0.60208 0.90446 0.0
O521 O 0.71931 0.61084 0.90481 0.0
O522 O 0.73882 0.62973 0.89499 0.0
C523 C 0.74348 0.56616 0.89963 0.0
C524 C 0.75485 0.60739 0.94036 0.0
C525 C 0.77617 0.60597 0.88001 0.0
O526 O 0.73328 0.57799 0.89249 0.0
O527 O 0.75644 0.57252 0.90895 0.0
O528 O 0.77895 0.60683 0.89695 0.0
O529 O 0.7598 0.60334 0.87553 0.0
C530 C 0.72236 0.62648 0.89846 0.0
O531 O 0.76267 0.61699 0.92844 0.0
O532 O 0.74431 0.59539 0.93411 0.0
In533 In 0.75158 0.39581 0.09853 0.0
O534 O 0.74674 0.4205 0.11694 0.0
O535 O 0.74437 0.42421 0.08844 0.0
C536 C 0.72409 0.37293 0.10707 0.0
C537 C 0.78102 0.39015 0.11974 0.0
C538 C 0.7574 0.38978 0.0627 0.0
O539 O 0.72311 0.38989 0.10962 0.0
O540 O 0.73901 0.36757 0.10055 0.0
O541 O 0.76994 0.38825 0.07434 0.0
O542 O 0.74217 0.39413 0.0692 0.0
C543 C 0.74377 0.43135 0.10401 0.0
O544 O 0.78095 0.40151 0.10687 0.0
O545 O 0.76643 0.38127 0.12154 0.0
In546 In 0.60514 0.74712 0.10708 0.0
O547 O 0.60387 0.76657 0.08266 0.0
O548 O 0.613 0.73955 0.07825 0.0
C549 C 0.61133 0.77716 0.12758 0.0
C550 C 0.62918 0.72125 0.11674 0.0
C551 C 0.57074 0.7343 0.10995 0.0
O552 O 0.59631 0.77396 0.11998 0.0
O553 O 0.62336 0.76535 0.12466 0.0
O554 O 0.57983 0.73932 0.12364 0.0
O555 O 0.57925 0.73511 0.0951 0.0
C556 C 0.60948 0.75485 0.07143 0.0
O557 O 0.61309 0.72132 0.1228 0.0
O558 O 0.633 0.7343 0.1063 0.0
In559 In 0.25128 0.59835 0.09566 0.0
O560 O 0.22175 0.59342 0.10419 0.0
O561 O 0.23831 0.60974 0.12139 0.0
C562 C 0.24562 0.60574 0.06007 0.0
C563 C 0.25848 0.56264 0.10088 0.0
C564 C 0.2783 0.62234 0.10229 0.0
O565 O 0.23401 0.60961 0.07212 0.0
O566 O 0.25988 0.5984 0.06606 0.0
O567 O 0.28124 0.60557 0.10004 0.0
O568 O 0.26179 0.62689 0.10144 0.0
C569 C 0.22296 0.60256 0.11869 0.0
O570 O 0.26254 0.57455 0.11259 0.0
O571 O 0.25111 0.56882 0.08671 0.0
In572 In 0.39637 0.24369 0.1098 0.0
O573 O 0.38372 0.23049 0.08439 0.0
O574 O 0.40495 0.24972 0.08075 0.0
C575 C 0.38996 0.2161 0.13309 0.0
C576 C 0.3717 0.27049 0.11445 0.0
C577 C 0.4318 0.2493 0.11761 0.0
O578 O 0.39107 0.21376 0.11611 0.0
O579 O 0.39198 0.23236 0.13827 0.0
O580 O 0.41948 0.26 0.12293 0.0
O581 O 0.42615 0.23573 0.10871 0.0
C582 C 0.39375 0.23904 0.07337 0.0
O583 O 0.38799 0.27355 0.11008 0.0
O584 O 0.36788 0.25392 0.11673 0.0
In585 In 0.25288 0.40185 0.89187 0.0
O586 O 0.24633 0.38433 0.91679 0.0
O587 O 0.24768 0.413 0.92022 0.0
C588 C 0.22516 0.39104 0.87035 0.0
C589 C 0.28279 0.38105 0.88728 0.0
C590 C 0.25722 0.43752 0.88374 0.0
O591 O 0.22377 0.39181 0.88745 0.0
O592 O 0.24061 0.39531 0.86421 0.0
O593 O 0.27034 0.42649 0.88328 0.0
O594 O 0.24221 0.43048 0.88802 0.0
C595 C 0.24519 0.39769 0.92753 0.0
O596 O 0.28138 0.39256 0.89993 0.0
O597 O 0.26933 0.38038 0.87665 0.0
In598 In 0.60216 0.24686 0.89689 0.0
O599 O 0.61728 0.22157 0.88679 0.0
O600 O 0.59788 0.23359 0.86919 0.0
C601 C 0.60592 0.24282 0.9332 0.0
C602 C 0.56575 0.25122 0.89604 0.0
C603 C 0.62613 0.27346 0.88851 0.0
O604 O 0.60634 0.22947 0.92238 0.0
O605 O 0.60368 0.25806 0.92566 0.0
O606 O 0.60932 0.27489 0.88536 0.0
O607 O 0.6308 0.25854 0.89552 0.0
C608 C 0.60929 0.22107 0.87162 0.0
O609 O 0.57663 0.26325 0.89031 0.0
O610 O 0.57327 0.23703 0.90207 0.0
In611 In 0.39973 0.74856 0.89049 0.0
O612 O 0.40535 0.77647 0.87823 0.0
O613 O 0.38003 0.76408 0.87204 0.0
C614 C 0.396 0.76163 0.92464 0.0
C615 C 0.43374 0.73599 0.88437 0.0
C616 C 0.37916 0.71847 0.88563 0.0
O617 O 0.38267 0.75609 0.91534 0.0
O618 O 0.41102 0.76142 0.91638 0.0
O619 O 0.38552 0.72739 0.8724 0.0
O620 O 0.38354 0.72451 0.90105 0.0
C621 C 0.39051 0.77748 0.86972 0.0
O622 O 0.42519 0.73312 0.89893 0.0
O623 O 0.42484 0.74459 0.87251 0.0
C624 C 0.09919 0.35249 0.30494 0.0
C625 C 0.11371 0.35556 0.29298 0.0
C626 C 0.10036 0.33924 0.31861 0.0
C627 C 0.11653 0.32899 0.32048 0.0
C628 C 0.13148 0.33247 0.30885 0.0
C629 C 0.12985 0.34566 0.29514 0.0
C630 C 0.08407 0.33584 0.33067 0.0
C631 C 0.14901 0.32196 0.3106 0.0
C632 C 0.12174 0.30372 0.36522 0.0
C633 C 0.11558 0.28628 0.36047 0.0
C634 C 0.12279 0.31763 0.35217 0.0
C635 C 0.11736 0.31402 0.33404 0.0
C636 C 0.11167 0.29628 0.32907 0.0
C637 C 0.11094 0.2826 0.34234 0.0
C638 C 0.12916 0.33632 0.35792 0.0
C639 C 0.10566 0.29192 0.3099 0.0
H640 H 0.08668 0.36009 0.3033 0.0
H641 H 0.14114 0.34806 0.28596 0.0
H642 H 0.07905 0.32173 0.32862 0.0
H643 H 0.088 0.33716 0.34519 0.0
H644 H 0.07275 0.34541 0.32785 0.0
H645 H 0.15977 0.32721 0.30137 0.0
H646 H 0.15407 0.32261 0.32481 0.0
H647 H 0.14654 0.30742 0.30736 0.0
H648 H 0.1254 0.30661 0.37921 0.0
H649 H 0.10615 0.26914 0.33861 0.0
H650 H 0.11773 0.34609 0.35689 0.0
H651 H 0.14007 0.34121 0.3487 0.0
H652 H 0.13436 0.3365 0.37211 0.0
H653 H 0.09337 0.29997 0.30648 0.0
H654 H 0.10244 0.27726 0.30806 0.0
H655 H 0.11643 0.29579 0.30006 0.0
C656 C 0.70738 0.11676 0.33422 0.0
C657 C 0.70569 0.11981 0.35296 0.0
C658 C 0.69216 0.11741 0.32275 0.0
C659 C 0.67487 0.12139 0.33019 0.0
C660 C 0.67319 0.12528 0.34898 0.0
C661 C 0.68864 0.12433 0.36019 0.0
C662 C 0.6945 0.11307 0.30279 0.0
C663 C 0.65501 0.12983 0.35733 0.0
C664 C 0.63881 0.13327 0.29522 0.0
C665 C 0.63027 0.11638 0.2927 0.0
C666 C 0.65279 0.13539 0.30808 0.0
C667 C 0.65847 0.12018 0.31842 0.0
C668 C 0.64939 0.10329 0.31641 0.0
C669 C 0.63532 0.10162 0.30364 0.0
C670 C 0.66197 0.15368 0.31007 0.0
C671 C 0.65513 0.08672 0.32709 0.0
H672 H 0.72053 0.11328 0.32855 0.0
H673 H 0.68729 0.12678 0.37468 0.0
H674 H 0.68686 0.10048 0.29939 0.0
H675 H 0.68883 0.12418 0.29433 0.0
H676 H 0.70899 0.11108 0.29901 0.0
H677 H 0.65629 0.13426 0.37173 0.0
H678 H 0.64825 0.14078 0.34946 0.0
H679 H 0.64599 0.11772 0.35681 0.0
H680 H 0.63486 0.14474 0.28686 0.0
H681 H 0.62875 0.08854 0.30174 0.0
H682 H 0.67606 0.15289 0.30474 0.0
H683 H 0.66289 0.15756 0.32463 0.0
H684 H 0.65464 0.16455 0.30258 0.0
H685 H 0.66914 0.08277 0.32313 0.0
H686 H 0.64596 0.07491 0.32475 0.0
H687 H 0.65535 0.08982 0.34186 0.0
C688 C 0.88951 0.69028 0.3737 0.0
C689 C 0.87965 0.70648 0.372 0.0
C690 C 0.88949 0.67729 0.35972 0.0
C691 C 0.87907 0.68046 0.34383 0.0
C692 C 0.86803 0.69617 0.34265 0.0
C693 C 0.86861 0.70913 0.35669 0.0
C694 C 0.90163 0.66084 0.36141 0.0
C695 C 0.85641 0.69982 0.32611 0.0
C696 C 0.89793 0.66139 0.29985 0.0
C697 C 0.8878 0.64535 0.29777 0.0
C698 C 0.89509 0.67295 0.31473 0.0
C699 C 0.88152 0.66855 0.32767 0.0
C700 C 0.8709 0.6526 0.32541 0.0
C701 C 0.87431 0.64105 0.31055 0.0
C702 C 0.90691 0.68967 0.31679 0.0
C703 C 0.85606 0.6477 0.33874 0.0
H704 H 0.89808 0.68819 0.38551 0.0
H705 H 0.86085 0.72158 0.35541 0.0
H706 H 0.89399 0.64824 0.35811 0.0
H707 H 0.91298 0.66197 0.35152 0.0
H708 H 0.90749 0.65948 0.37528 0.0
H709 H 0.84666 0.7111 0.32844 0.0
H710 H 0.86526 0.70351 0.31445 0.0
H711 H 0.84869 0.68743 0.3222 0.0
H712 H 0.90843 0.66472 0.29004 0.0
H713 H 0.86639 0.6287 0.3089 0.0
H714 H 0.91447 0.68905 0.32985 0.0
H715 H 0.89834 0.70206 0.31716 0.0
H716 H 0.9169 0.6911 0.30553 0.0
H717 H 0.86206 0.64512 0.35234 0.0
H718 H 0.84832 0.63542 0.33445 0.0
H719 H 0.84645 0.65922 0.34023 0.0
C720 C 0.36574 0.88333 0.30628 0.0
C721 C 0.36467 0.87378 0.28981 0.0
C722 C 0.35202 0.88166 0.31943 0.0
C723 C 0.33713 0.86985 0.31614 0.0
C724 C 0.33671 0.85915 0.30012 0.0
C725 C 0.3504 0.86142 0.28701 0.0
C726 C 0.35283 0.89353 0.3362 0.0
C727 C 0.3213 0.84606 0.29636 0.0
C728 C 0.30534 0.86156 0.3561 0.0
C729 C 0.29144 0.87404 0.3524 0.0
C730 C 0.32005 0.85949 0.34406 0.0
C731 C 0.321 0.87049 0.32829 0.0
C732 C 0.30683 0.88291 0.32441 0.0
C733 C 0.29213 0.88437 0.33641 0.0
C734 C 0.33469 0.8458 0.34837 0.0
C735 C 0.30747 0.89512 0.30788 0.0
H736 H 0.37676 0.89292 0.30847 0.0
H737 H 0.34965 0.85389 0.27434 0.0
H738 H 0.34183 0.90383 0.33557 0.0
H739 H 0.35056 0.88528 0.34862 0.0
H740 H 0.36607 0.90074 0.3375 0.0
H741 H 0.3244 0.8368 0.28483 0.0
H742 H 0.31828 0.83776 0.30861 0.0
H743 H 0.30882 0.85381 0.29298 0.0
H744 H 0.30477 0.85349 0.36842 0.0
H745 H 0.28144 0.8941 0.33356 0.0
H746 H 0.34766 0.85296 0.35133 0.0
H747 H 0.33711 0.83685 0.33644 0.0
H748 H 0.33112 0.83718 0.36027 0.0
H749 H 0.31975 0.90392 0.30848 0.0
H750 H 0.29528 0.90396 0.3068 0.0
H751 H 0.30847 0.88681 0.29532 0.0
C752 C 0.11669 0.64155 0.68993 0.0
C753 C 0.10557 0.64584 0.70482 0.0
C754 C 0.11893 0.65386 0.67548 0.0
C755 C 0.10965 0.6707 0.67588 0.0
C756 C 0.09858 0.67516 0.691 0.0
C757 C 0.09677 0.66272 0.70533 0.0
C758 C 0.13103 0.64876 0.6597 0.0
C759 C 0.08832 0.69292 0.69186 0.0
C760 C 0.12352 0.71103 0.64676 0.0
C761 C 0.11055 0.71025 0.63279 0.0
C762 C 0.12395 0.69774 0.66046 0.0
C763 C 0.11092 0.68352 0.66029 0.0
C764 C 0.0982 0.68233 0.64587 0.0
C765 C 0.09824 0.69566 0.63222 0.0
C766 C 0.1379 0.69929 0.67546 0.0
C767 C 0.08399 0.66747 0.64529 0.0
H768 H 0.12357 0.62853 0.68952 0.0
H769 H 0.08813 0.66607 0.71679 0.0
H770 H 0.12282 0.64776 0.64707 0.0
H771 H 0.14143 0.65949 0.65746 0.0
H772 H 0.13804 0.63557 0.66191 0.0
H773 H 0.08049 0.69442 0.7047 0.0
H774 H 0.09793 0.70453 0.69071 0.0
H775 H 0.07873 0.69383 0.68023 0.0
H776 H 0.13313 0.72224 0.64719 0.0
H777 H 0.08817 0.69502 0.62146 0.0
H778 H 0.14504 0.68614 0.67733 0.0
H779 H 0.13101 0.70254 0.68849 0.0
H780 H 0.14817 0.71005 0.67266 0.0
H781 H 0.09051 0.65393 0.64644 0.0
H782 H 0.07581 0.66781 0.63258 0.0
H783 H 0.07464 0.66895 0.65706 0.0
C784 C 0.29453 0.11482 0.66597 0.0
C785 C 0.29521 0.12274 0.64864 0.0
C786 C 0.30948 0.11567 0.67774 0.0
C787 C 0.32547 0.12487 0.67213 0.0
C788 C 0.32601 0.13355 0.65495 0.0
C789 C 0.31088 0.13228 0.64332 0.0
C790 C 0.30839 0.10613 0.69591 0.0
C791 C 0.34273 0.14371 0.64867 0.0
C792 C 0.35768 0.13441 0.71127 0.0
C793 C 0.36919 0.11926 0.71035 0.0
C794 C 0.34409 0.13716 0.69814 0.0
C795 C 0.34186 0.1243 0.68396 0.0
C796 C 0.35414 0.10958 0.68239 0.0
C797 C 0.36774 0.1073 0.69556 0.0
C798 C 0.33147 0.15321 0.70006 0.0
C799 C 0.35215 0.0955 0.66753 0.0
H800 H 0.28245 0.10743 0.67015 0.0
H801 H 0.31142 0.13849 0.62996 0.0
H802 H 0.31867 0.09511 0.69649 0.0
H803 H 0.31153 0.1158 0.70707 0.0
H804 H 0.29476 0.10008 0.69844 0.0
H805 H 0.34033 0.1512 0.63576 0.0
H806 H 0.34721 0.15353 0.65924 0.0
H807 H 0.35404 0.13399 0.64651 0.0
H808 H 0.35885 0.14378 0.72261 0.0
H809 H 0.37665 0.0956 0.69475 0.0
H810 H 0.31791 0.1484 0.70465 0.0
H811 H 0.32957 0.16007 0.68675 0.0
H812 H 0.33662 0.16331 0.71007 0.0
H813 H 0.33948 0.08757 0.66973 0.0
H814 H 0.36379 0.0859 0.66719 0.0
H815 H 0.35101 0.10217 0.65405 0.0
C816 C 0.87683 0.29801 0.63539 0.0
C817 C 0.89012 0.28445 0.6367 0.0
C818 C 0.87558 0.31176 0.64863 0.0
C819 C 0.88818 0.3121 0.66321 0.0
C820 C 0.90165 0.29844 0.66451 0.0
C821 C 0.90232 0.28467 0.65135 0.0
C822 C 0.86081 0.32589 0.64703 0.0
C823 C 0.91555 0.29851 0.67967 0.0
C824 C 0.89817 0.35615 0.68826 0.0
C825 C 0.88932 0.35317 0.70487 0.0
C826 C 0.89757 0.34306 0.67437 0.0
C827 C 0.88755 0.3268 0.67707 0.0
C828 C 0.87798 0.32407 0.69356 0.0
C829 C 0.87915 0.33722 0.70736 0.0
C830 C 0.90823 0.3463 0.65711 0.0
C831 C 0.86687 0.30707 0.6968 0.0
H832 H 0.86734 0.2978 0.62409 0.0
H833 H 0.91271 0.27427 0.65232 0.0
H834 H 0.8525 0.32609 0.65963 0.0
H835 H 0.86696 0.3396 0.64551 0.0
H836 H 0.85168 0.32333 0.63524 0.0
H837 H 0.92531 0.28705 0.67855 0.0
H838 H 0.92331 0.31148 0.67949 0.0
H839 H 0.90862 0.29762 0.69304 0.0
H840 H 0.90609 0.36847 0.68633 0.0
H841 H 0.87216 0.33497 0.72016 0.0
H842 H 0.89925 0.34488 0.64507 0.0
H843 H 0.91907 0.33589 0.65584 0.0
H844 H 0.91466 0.35999 0.65681 0.0
H845 H 0.85734 0.30476 0.68531 0.0
H846 H 0.85892 0.30779 0.70963 0.0
H847 H 0.876 0.2951 0.69751 0.0
C848 C 0.70445 0.88616 0.66022 0.0
C849 C 0.70499 0.87748 0.64325 0.0
C850 C 0.68913 0.88476 0.67144 0.0
C851 C 0.6741 0.87411 0.66572 0.0
C852 C 0.67484 0.8647 0.64892 0.0
C853 C 0.69025 0.86666 0.63776 0.0
C854 C 0.6888 0.89521 0.68916 0.0
C855 C 0.65924 0.85289 0.64259 0.0
C856 C 0.64197 0.86365 0.70459 0.0
C857 C 0.62916 0.87762 0.70269 0.0
C858 C 0.65599 0.86144 0.69183 0.0
C859 C 0.65738 0.87372 0.67707 0.0
C860 C 0.64386 0.88718 0.67453 0.0
C861 C 0.62981 0.88886 0.68731 0.0
C862 C 0.6699 0.84666 0.69476 0.0
C863 C 0.64497 0.90068 0.65909 0.0
H864 H 0.71579 0.8946 0.6645 0.0
H865 H 0.69068 0.85985 0.62467 0.0
H866 H 0.67747 0.90516 0.68899 0.0
H867 H 0.68634 0.8858 0.70069 0.0
H868 H 0.70171 0.90268 0.69171 0.0
H869 H 0.66263 0.84518 0.63004 0.0
H870 H 0.65537 0.8431 0.65342 0.0
H871 H 0.64717 0.86147 0.63982 0.0
H872 H 0.64141 0.85483 0.7164 0.0
H873 H 0.61992 0.89967 0.68579 0.0
H874 H 0.68285 0.85281 0.69951 0.0
H875 H 0.67277 0.83944 0.68181 0.0
H876 H 0.66534 0.83657 0.70505 0.0
H877 H 0.65681 0.90984 0.66126 0.0
H878 H 0.63252 0.90913 0.65801 0.0
H879 H 0.64712 0.89355 0.64597 0.0
C880 C 0.34757 0.11616 0.30192 0.0
C881 C 0.35852 0.10067 0.30021 0.0
C882 C 0.33435 0.11733 0.31566 0.0
C883 C 0.332 0.1026 0.32786 0.0
C884 C 0.34346 0.08721 0.32656 0.0
C885 C 0.35662 0.08646 0.31278 0.0
C886 C 0.32248 0.13402 0.31672 0.0
C887 C 0.34134 0.07121 0.33927 0.0
C888 C 0.30501 0.10805 0.37163 0.0
C889 C 0.28812 0.10069 0.36661 0.0
C890 C 0.31934 0.10918 0.35904 0.0
C891 C 0.31672 0.10263 0.34111 0.0
C892 C 0.29962 0.0954 0.33593 0.0
C893 C 0.28551 0.09459 0.34872 0.0
C894 C 0.33735 0.11713 0.36499 0.0
C895 C 0.29632 0.08816 0.31697 0.0
H896 H 0.34904 0.12721 0.29227 0.0
H897 H 0.36508 0.07446 0.31154 0.0
H898 H 0.30826 0.13033 0.31323 0.0
H899 H 0.32239 0.1395 0.33079 0.0
H900 H 0.32709 0.14492 0.30731 0.0
H901 H 0.35205 0.06078 0.33718 0.0
H902 H 0.34184 0.07583 0.35363 0.0
H903 H 0.32786 0.06472 0.33709 0.0
H904 H 0.30706 0.11285 0.38543 0.0
H905 H 0.27248 0.08887 0.34477 0.0
H906 H 0.34142 0.12832 0.35571 0.0
H907 H 0.34807 0.10657 0.3642 0.0
H908 H 0.33688 0.12248 0.37912 0.0
H909 H 0.29926 0.09887 0.30675 0.0
H910 H 0.28211 0.08337 0.315 0.0
H911 H 0.30566 0.07665 0.3142 0.0
C912 C 0.87355 0.30601 0.35303 0.0
C913 C 0.89036 0.29767 0.35633 0.0
C914 C 0.87183 0.31957 0.33967 0.0
C915 C 0.88732 0.32495 0.32954 0.0
C916 C 0.90436 0.31675 0.33305 0.0
C917 C 0.90565 0.30317 0.34635 0.0
C918 C 0.85343 0.32797 0.33622 0.0
C919 C 0.92124 0.32221 0.32265 0.0
C920 C 0.8841 0.34679 0.28293 0.0
C921 C 0.88807 0.36501 0.28697 0.0
C922 C 0.8829 0.33372 0.29679 0.0
C923 C 0.88588 0.33901 0.31509 0.0
C924 C 0.88913 0.35752 0.3193 0.0
C925 C 0.89014 0.37032 0.30519 0.0
C926 C 0.87923 0.31412 0.29177 0.0
C927 C 0.89245 0.36368 0.33863 0.0
H928 H 0.86169 0.30175 0.3607 0.0
H929 H 0.91869 0.29681 0.34889 0.0
H930 H 0.8542 0.34294 0.33797 0.0
H931 H 0.8492 0.32534 0.32196 0.0
H932 H 0.8428 0.32251 0.34548 0.0
H933 H 0.93352 0.31478 0.32732 0.0
H934 H 0.91928 0.31949 0.30793 0.0
H935 H 0.92373 0.33702 0.32421 0.0
H936 H 0.88238 0.34264 0.26887 0.0
H937 H 0.89316 0.38441 0.30839 0.0
H938 H 0.86811 0.30849 0.30029 0.0
H939 H 0.89156 0.30586 0.29445 0.0
H940 H 0.87546 0.31254 0.27722 0.0
H941 H 0.88151 0.3586 0.34771 0.0
H942 H 0.89316 0.37873 0.33981 0.0
H943 H 0.90546 0.3579 0.34362 0.0
C944 C 0.71484 0.88612 0.3443 0.0
C945 C 0.71047 0.89465 0.36077 0.0
C946 C 0.70204 0.88487 0.33018 0.0
C947 C 0.68464 0.89274 0.33247 0.0
C948 C 0.68006 0.9011 0.34922 0.0
C949 C 0.69299 0.90178 0.36326 0.0
C950 C 0.70729 0.87551 0.31266 0.0
C951 C 0.66175 0.90993 0.35206 0.0
C952 C 0.66001 0.90821 0.28988 0.0
C953 C 0.64661 0.89475 0.28796 0.0
C954 C 0.67241 0.90773 0.30436 0.0
C955 C 0.67163 0.89322 0.31699 0.0
C956 C 0.65837 0.87937 0.3149 0.0
C957 C 0.64585 0.88042 0.3005 0.0
C958 C 0.68615 0.92293 0.30631 0.0
C959 C 0.65739 0.86348 0.32788 0.0
H960 H 0.72832 0.88048 0.3424 0.0
H961 H 0.68961 0.90845 0.37598 0.0
H962 H 0.69692 0.86517 0.30894 0.0
H963 H 0.70781 0.88559 0.30145 0.0
H964 H 0.72076 0.86876 0.31363 0.0
H965 H 0.66009 0.91527 0.36611 0.0
H966 H 0.6601 0.92136 0.34235 0.0
H967 H 0.65068 0.90004 0.34929 0.0
H968 H 0.66054 0.91938 0.28027 0.0
H969 H 0.63552 0.86996 0.29899 0.0
H970 H 0.70014 0.91735 0.30582 0.0
H971 H 0.68449 0.92967 0.31972 0.0
H972 H 0.68477 0.93336 0.29547 0.0
H973 H 0.6707 0.85641 0.32834 0.0
H974 H 0.64672 0.8535 0.32396 0.0
H975 H 0.65449 0.86842 0.34184 0.0
C976 C 0.10808 0.62897 0.30831 0.0
C977 C 0.1152 0.63308 0.2911 0.0
C978 C 0.10751 0.64218 0.32208 0.0
C979 C 0.11424 0.65989 0.31853 0.0
C980 C 0.12224 0.66385 0.30146 0.0
C981 C 0.12261 0.65038 0.28793 0.0
C982 C 0.09892 0.63744 0.34013 0.0
C983 C 0.12963 0.68255 0.29719 0.0
C984 C 0.09299 0.69948 0.34379 0.0
C985 C 0.10624 0.70342 0.35693 0.0
C986 C 0.09539 0.68523 0.33135 0.0
C987 C 0.11147 0.67469 0.33204 0.0
C988 C 0.12485 0.67849 0.34538 0.0
C989 C 0.12206 0.69283 0.35771 0.0
C990 C 0.08078 0.68157 0.31735 0.0
C991 C 0.14216 0.66754 0.34649 0.0
H992 H 0.10238 0.61559 0.31084 0.0
H993 H 0.12819 0.6536 0.27467 0.0
H994 H 0.10799 0.6415 0.3515 0.0
H995 H 0.08602 0.64508 0.34174 0.0
H996 H 0.09589 0.62267 0.34132 0.0
H997 H 0.13686 0.68295 0.28393 0.0
H998 H 0.11829 0.69247 0.29676 0.0
H999 H 0.13914 0.68707 0.30803 0.0
H1000 H 0.08073 0.7076 0.34315 0.0
H1001 H 0.13235 0.69585 0.36785 0.0
H1002 H 0.07589 0.66733 0.31854 0.0
H1003 H 0.08645 0.68322 0.30346 0.0
H1004 H 0.06895 0.69084 0.31884 0.0
H1005 H 0.13888 0.65291 0.34829 0.0
H1006 H 0.15104 0.67199 0.3579 0.0
H1007 H 0.14987 0.66885 0.33359 0.0
C1008 C 0.33203 0.8956 0.70598 0.0
C1009 C 0.34998 0.88953 0.70411 0.0
C1010 C 0.32003 0.89546 0.69114 0.0
C1011 C 0.32616 0.88913 0.67401 0.0
C1012 C 0.3441 0.88242 0.67218 0.0
C1013 C 0.35581 0.88268 0.68728 0.0
C1014 C 0.30097 0.90266 0.69366 0.0
C1015 C 0.3511 0.87554 0.65414 0.0
C1016 C 0.28947 0.87877 0.63906 0.0
C1017 C 0.28881 0.89517 0.62935 0.0
C1018 C 0.30198 0.87634 0.65329 0.0
C1019 C 0.3141 0.89064 0.65784 0.0
C1020 C 0.31398 0.90693 0.64757 0.0
C1021 C 0.30131 0.909 0.63346 0.0
C1022 C 0.30175 0.85877 0.66391 0.0
C1023 C 0.32677 0.92245 0.65192 0.0
H1024 H 0.32745 0.90085 0.71898 0.0
H1025 H 0.36968 0.87795 0.68577 0.0
H1026 H 0.29912 0.91509 0.6853 0.0
H1027 H 0.29087 0.89247 0.6889 0.0
H1028 H 0.29799 0.90607 0.70808 0.0
H1029 H 0.36491 0.86953 0.6553 0.0
H1030 H 0.34172 0.86514 0.64848 0.0
H1031 H 0.35167 0.88693 0.64425 0.0
H1032 H 0.27982 0.86804 0.63593 0.0
H1033 H 0.3009 0.92169 0.62595 0.0
H1034 H 0.29717 0.86145 0.67804 0.0
H1035 H 0.31565 0.85299 0.66475 0.0
H1036 H 0.29255 0.84846 0.65774 0.0
H1037 H 0.32364 0.92792 0.66564 0.0
H1038 H 0.32573 0.93372 0.64192 0.0
H1039 H 0.34103 0.91757 0.65219 0.0
C1040 C 0.12501 0.35162 0.70806 0.0
C1041 C 0.11617 0.36831 0.70555 0.0
C1042 C 0.12558 0.33866 0.69407 0.0
C1043 C 0.11714 0.34253 0.6772 0.0
C1044 C 0.10935 0.35985 0.67417 0.0
C1045 C 0.10895 0.37256 0.68842 0.0
C1046 C 0.1341 0.32037 0.69779 0.0
C1047 C 0.10035 0.36454 0.65632 0.0
C1048 C 0.12493 0.30972 0.63795 0.0
C1049 C 0.10957 0.29846 0.63934 0.0
C1050 C 0.12751 0.32437 0.64999 0.0
C1051 C 0.11442 0.32772 0.66369 0.0
C1052 C 0.09874 0.31656 0.66492 0.0
C1053 C 0.09651 0.30209 0.65272 0.0
C1054 C 0.14435 0.33603 0.64825 0.0
C1055 C 0.08444 0.31971 0.67934 0.0
H1056 H 0.13071 0.34832 0.72125 0.0
H1057 H 0.10219 0.38549 0.68638 0.0
H1058 H 0.12328 0.30986 0.69871 0.0
H1059 H 0.14328 0.31641 0.68649 0.0
H1060 H 0.14197 0.32029 0.7107 0.0
H1061 H 0.09723 0.37928 0.65526 0.0
H1062 H 0.10915 0.3606 0.64472 0.0
H1063 H 0.08744 0.35679 0.65501 0.0
H1064 H 0.13506 0.30696 0.6276 0.0
H1065 H 0.08459 0.29344 0.65384 0.0
H1066 H 0.15276 0.33475 0.66072 0.0
H1067 H 0.14052 0.35057 0.64697 0.0
H1068 H 0.15277 0.33218 0.63632 0.0
H1069 H 0.09058 0.31825 0.69306 0.0
H1070 H 0.07286 0.31004 0.67819 0.0
H1071 H 0.07909 0.33377 0.67831 0.0
C1072 C 0.68925 0.10107 0.63104 0.0
C1073 C 0.70678 0.10817 0.63359 0.0
C1074 C 0.67627 0.10179 0.64502 0.0
C1075 C 0.68088 0.11004 0.66183 0.0
C1076 C 0.69828 0.11802 0.66414 0.0
C1077 C 0.71107 0.11687 0.65003 0.0
C1078 C 0.65792 0.09296 0.64211 0.0
C1079 C 0.70361 0.12718 0.68175 0.0
C1080 C 0.64289 0.12113 0.69514 0.0
C1081 C 0.64401 0.10643 0.70722 0.0
C1082 C 0.6549 0.12262 0.68034 0.0
C1083 C 0.66813 0.10894 0.67748 0.0
C1084 C 0.66925 0.09405 0.68963 0.0
C1085 C 0.65726 0.09304 0.70442 0.0
C1086 C 0.65349 0.13881 0.66781 0.0
C1087 C 0.68302 0.07907 0.68693 0.0
H1088 H 0.68589 0.09431 0.61836 0.0
H1089 H 0.72458 0.1225 0.652 0.0
H1090 H 0.65652 0.08104 0.65127 0.0
H1091 H 0.64687 0.10259 0.64559 0.0
H1092 H 0.65599 0.0883 0.62785 0.0
H1093 H 0.71694 0.13427 0.68073 0.0
H1094 H 0.69312 0.13719 0.68584 0.0
H1095 H 0.7045 0.11688 0.69274 0.0
H1096 H 0.63268 0.13152 0.6973 0.0
H1097 H 0.65812 0.0816 0.71367 0.0
H1098 H 0.65057 0.13418 0.65373 0.0
H1099 H 0.66665 0.14623 0.66745 0.0
H1100 H 0.64265 0.14841 0.67208 0.0
H1101 H 0.68116 0.07274 0.67335 0.0
H1102 H 0.68192 0.06828 0.69746 0.0
H1103 H 0.69699 0.0848 0.68736 0.0
C1104 C 0.88818 0.70458 0.6666 0.0
C1105 C 0.88088 0.70554 0.64901 0.0
C1106 C 0.88547 0.68919 0.67749 0.0
C1107 C 0.87508 0.67443 0.67068 0.0
C1108 C 0.86697 0.67564 0.65326 0.0
C1109 C 0.87005 0.69118 0.64255 0.0
C1110 C 0.89441 0.68842 0.69599 0.0
C1111 C 0.8556 0.66027 0.64567 0.0
C1112 C 0.88878 0.62965 0.69183 0.0
C1113 C 0.87632 0.62818 0.70618 0.0
C1114 C 0.88783 0.6441 0.67944 0.0
C1115 C 0.87401 0.65732 0.6814 0.0
C1116 C 0.86058 0.65517 0.69504 0.0
C1117 C 0.86193 0.64062 0.70734 0.0
C1118 C 0.90241 0.64588 0.66506 0.0
C1119 C 0.84548 0.66884 0.69737 0.0
H1120 H 0.89652 0.71566 0.67168 0.0
H1121 H 0.86431 0.6919 0.62899 0.0
H1122 H 0.88415 0.6853 0.70661 0.0
H1123 H 0.90463 0.67734 0.69622 0.0
H1124 H 0.90132 0.70139 0.69961 0.0
H1125 H 0.84857 0.66416 0.63287 0.0
H1126 H 0.86442 0.64839 0.64283 0.0
H1127 H 0.84527 0.65587 0.65576 0.0
H1128 H 0.89987 0.62001 0.6908 0.0
H1129 H 0.85218 0.63947 0.71835 0.0
H1130 H 0.91124 0.65773 0.66828 0.0
H1131 H 0.89621 0.64839 0.65154 0.0
H1132 H 0.91107 0.63355 0.66418 0.0
H1133 H 0.85113 0.68162 0.70313 0.0
H1134 H 0.83466 0.66379 0.70665 0.0
H1135 H 0.83928 0.67223 0.68404 0.0
C1136 C 0.29114 0.33848 0.09598 0.0
C1137 C 0.28853 0.35193 0.10923 0.0
C1138 C 0.30484 0.3254 0.09788 0.0
C1139 C 0.31602 0.32563 0.11357 0.0
C1140 C 0.31325 0.33899 0.12717 0.0
C1141 C 0.29959 0.3521 0.12477 0.0
C1142 C 0.30751 0.31151 0.08297 0.0
C1143 C 0.32475 0.33947 0.14419 0.0
C1144 C 0.34073 0.28139 0.12304 0.0
C1145 C 0.35796 0.28503 0.11571 0.0
C1146 C 0.32714 0.29476 0.12313 0.0
C1147 C 0.33082 0.31203 0.11544 0.0
C1148 C 0.34834 0.31591 0.10844 0.0
C1149 C 0.36175 0.30239 0.10879 0.0
C1150 C 0.3087 0.29023 0.13098 0.0
C1151 C 0.35271 0.3341 0.09992 0.0
H1152 H 0.28266 0.33835 0.08391 0.0
H1153 H 0.29754 0.36244 0.13508 0.0
H1154 H 0.3215 0.31264 0.0774 0.0
H1155 H 0.306 0.29757 0.08855 0.0
H1156 H 0.29766 0.31322 0.07164 0.0
H1157 H 0.32043 0.35033 0.15376 0.0
H1158 H 0.32397 0.32617 0.15129 0.0
H1159 H 0.33921 0.34177 0.14054 0.0
H1160 H 0.3378 0.26801 0.12851 0.0
H1161 H 0.37505 0.30523 0.10308 0.0
H1162 H 0.29837 0.2901 0.11997 0.0
H1163 H 0.30455 0.30079 0.14094 0.0
H1164 H 0.30852 0.27676 0.13783 0.0
H1165 H 0.34417 0.33609 0.08763 0.0
H1166 H 0.36724 0.33526 0.09593 0.0
H1167 H 0.34946 0.34528 0.10952 0.0
C1168 C 0.36004 0.69795 0.8662 0.0
C1169 C 0.3663 0.70315 0.88346 0.0
C1170 C 0.34629 0.68477 0.86431 0.0
C1171 C 0.33863 0.67674 0.88007 0.0
C1172 C 0.34547 0.68141 0.89746 0.0
C1173 C 0.35924 0.69453 0.89894 0.0
C1174 C 0.33943 0.68001 0.84554 0.0
C1175 C 0.33768 0.67314 0.9146 0.0
C1176 C 0.28977 0.66033 0.88046 0.0
C1177 C 0.29197 0.6414 0.88031 0.0
C1178 C 0.30486 0.672 0.87965 0.0
C1179 C 0.32256 0.66453 0.87864 0.0
C1180 C 0.32483 0.64543 0.87776 0.0
C1181 C 0.30948 0.63407 0.87864 0.0
C1182 C 0.30188 0.6923 0.88062 0.0
C1183 C 0.3435 0.637 0.87659 0.0
H1184 H 0.3655 0.70455 0.8542 0.0
H1185 H 0.36407 0.69844 0.91232 0.0
H1186 H 0.33901 0.66503 0.84371 0.0
H1187 H 0.32532 0.68508 0.84387 0.0
H1188 H 0.34802 0.68602 0.83465 0.0
H1189 H 0.3453 0.67736 0.92697 0.0
H1190 H 0.32328 0.67736 0.91618 0.0
H1191 H 0.33785 0.65808 0.91371 0.0
H1192 H 0.27625 0.66607 0.88167 0.0
H1193 H 0.31123 0.61943 0.87844 0.0
H1194 H 0.30893 0.69918 0.86919 0.0
H1195 H 0.30777 0.69771 0.89344 0.0
H1196 H 0.28723 0.69594 0.88015 0.0
H1197 H 0.35146 0.64336 0.86545 0.0
H1198 H 0.34286 0.62208 0.87423 0.0
H1199 H 0.35101 0.63953 0.88945 0.0
C1200 C 0.29993 0.35675 0.87087 0.0
C1201 C 0.2981 0.36813 0.88607 0.0
C1202 C 0.31309 0.34295 0.8705 0.0
C1203 C 0.32447 0.34033 0.88582 0.0
C1204 C 0.32318 0.35229 0.90089 0.0
C1205 C 0.31008 0.36613 0.90077 0.0
C1206 C 0.31428 0.33069 0.85406 0.0
C1207 C 0.33493 0.34983 0.91756 0.0
C1208 C 0.34107 0.29255 0.89567 0.0
C1209 C 0.35943 0.29366 0.89067 0.0
C1210 C 0.32955 0.30761 0.89398 0.0
C1211 C 0.33649 0.32413 0.88686 0.0
C1212 C 0.35491 0.3252 0.88134 0.0
C1213 C 0.36623 0.30997 0.88344 0.0
C1214 C 0.31003 0.30596 0.90021 0.0
C1215 C 0.36269 0.34249 0.87343 0.0
H1216 H 0.29076 0.35833 0.85942 0.0
H1217 H 0.3087 0.37489 0.91256 0.0
H1218 H 0.32862 0.32935 0.84955 0.0
H1219 H 0.30936 0.31688 0.85768 0.0
H1220 H 0.30601 0.33581 0.8425 0.0
H1221 H 0.3332 0.36106 0.92753 0.0
H1222 H 0.33138 0.33681 0.92433 0.0
H1223 H 0.34948 0.34908 0.91366 0.0
H1224 H 0.33577 0.28 0.90132 0.0
H1225 H 0.38041 0.31084 0.8795 0.0
H1226 H 0.30067 0.30924 0.88884 0.0
H1227 H 0.30736 0.31589 0.91126 0.0
H1228 H 0.30672 0.29211 0.90528 0.0
H1229 H 0.35435 0.34701 0.86169 0.0
H1230 H 0.37699 0.34079 0.86884 0.0
H1231 H 0.36226 0.3535 0.88375 0.0
C1232 C 0.65716 0.28682 0.89156 0.0
C1233 C 0.63918 0.28846 0.88545 0.0
C1234 C 0.66939 0.30141 0.89022 0.0
C1235 C 0.66354 0.31801 0.88243 0.0
C1236 C 0.64558 0.31955 0.87564 0.0
C1237 C 0.63356 0.30476 0.87731 0.0
C1238 C 0.68841 0.29924 0.8977 0.0
C1239 C 0.63895 0.33697 0.86705 0.0
C1240 C 0.68992 0.35938 0.89842 0.0
C1241 C 0.70284 0.36134 0.88455 0.0
C1242 C 0.67655 0.34577 0.89753 0.0
C1243 C 0.67603 0.33393 0.88233 0.0
C1244 C 0.68846 0.33645 0.86784 0.0
C1245 C 0.70179 0.3501 0.86916 0.0
C1246 C 0.66356 0.34349 0.91329 0.0
C1247 C 0.68819 0.32423 0.85133 0.0
H1248 H 0.66157 0.27425 0.89786 0.0
H1249 H 0.61968 0.30606 0.87251 0.0
H1250 H 0.69859 0.30251 0.88705 0.0
H1251 H 0.69057 0.30893 0.90909 0.0
H1252 H 0.691 0.28524 0.90274 0.0
H1253 H 0.62509 0.33551 0.86119 0.0
H1254 H 0.63869 0.34795 0.87741 0.0
H1255 H 0.64841 0.34136 0.85614 0.0
H1256 H 0.69065 0.36807 0.91033 0.0
H1257 H 0.71171 0.35163 0.85835 0.0
H1258 H 0.66623 0.33034 0.92019 0.0
H1259 H 0.64931 0.34312 0.90834 0.0
H1260 H 0.6649 0.3546 0.92346 0.0
H1261 H 0.69248 0.31032 0.85527 0.0
H1262 H 0.69742 0.32919 0.84043 0.0
H1263 H 0.6742 0.32317 0.84575 0.0
C1264 C 0.71135 0.65596 0.88586 0.0
C1265 C 0.70797 0.64023 0.89609 0.0
C1266 C 0.69822 0.66969 0.88442 0.0
C1267 C 0.68147 0.66775 0.89372 0.0
C1268 C 0.67784 0.65171 0.90376 0.0
C1269 C 0.69111 0.63805 0.9047 0.0
C1270 C 0.70244 0.68646 0.87333 0.0
C1271 C 0.66024 0.64927 0.91407 0.0
C1272 C 0.65697 0.71094 0.90746 0.0
C1273 C 0.6428 0.7116 0.89472 0.0
C1274 C 0.66961 0.69671 0.90729 0.0
C1275 C 0.6682 0.68295 0.89386 0.0
C1276 C 0.65408 0.68369 0.88077 0.0
C1277 C 0.64144 0.69796 0.88145 0.0
C1278 C 0.68434 0.69627 0.92162 0.0
C1279 C 0.65234 0.66941 0.8661 0.0
H1280 H 0.72435 0.65762 0.87909 0.0
H1281 H 0.68849 0.62592 0.91266 0.0
H1282 H 0.69134 0.68907 0.86344 0.0
H1283 H 0.70332 0.69849 0.88241 0.0
H1284 H 0.71546 0.68522 0.86577 0.0
H1285 H 0.65921 0.63567 0.92058 0.0
H1286 H 0.65917 0.65983 0.92481 0.0
H1287 H 0.64847 0.65106 0.9048 0.0
H1288 H 0.65801 0.72141 0.91781 0.0
H1289 H 0.63051 0.69847 0.87155 0.0
H1290 H 0.69793 0.69652 0.91506 0.0
H1291 H 0.68338 0.68345 0.92953 0.0
H1292 H 0.68344 0.70792 0.9312 0.0
H1293 H 0.66513 0.66865 0.85813 0.0
H1294 H 0.6409 0.67223 0.85664 0.0
H1295 H 0.65014 0.65585 0.87235 0.0
C1296 C 0.63893 0.69337 0.13381 0.0
C1297 C 0.64237 0.70662 0.12053 0.0
C1298 C 0.65126 0.67906 0.13673 0.0
C1299 C 0.66712 0.67789 0.12588 0.0
C1300 C 0.67069 0.69137 0.1126 0.0
C1301 C 0.65835 0.70563 0.1102 0.0
C1302 C 0.64721 0.6651 0.15124 0.0
C1303 C 0.68734 0.69052 0.10057 0.0
C1304 C 0.70953 0.65105 0.137 0.0
C1305 C 0.70765 0.63615 0.12524 0.0
C1306 C 0.69571 0.66411 0.13849 0.0
C1307 C 0.67985 0.66233 0.1277 0.0
C1308 C 0.67744 0.64672 0.11665 0.0
C1309 C 0.69134 0.63373 0.11566 0.0
C1310 C 0.69861 0.68037 0.15072 0.0
C1311 C 0.66081 0.64441 0.10478 0.0
H1312 H 0.62661 0.69416 0.14186 0.0
H1313 H 0.66105 0.7158 0.09987 0.0
H1314 H 0.645 0.6516 0.14486 0.0
H1315 H 0.659 0.66379 0.16058 0.0
H1316 H 0.63497 0.66864 0.15934 0.0
H1317 H 0.68812 0.70212 0.09093 0.0
H1318 H 0.69984 0.69051 0.10903 0.0
H1319 H 0.68724 0.67768 0.09261 0.0
H1320 H 0.72206 0.65286 0.14458 0.0
H1321 H 0.68981 0.62219 0.10659 0.0
H1322 H 0.68613 0.6833 0.15867 0.0
H1323 H 0.70161 0.69253 0.1423 0.0
H1324 H 0.71011 0.67829 0.16031 0.0
H1325 H 0.64824 0.64682 0.11273 0.0
H1326 H 0.66004 0.63062 0.0986 0.0
H1327 H 0.66117 0.6546 0.09366 0.0
C1328 C 0.34802 0.70251 0.08785 0.0
C1329 C 0.36023 0.70568 0.10215 0.0
C1330 C 0.33513 0.68845 0.08884 0.0
C1331 C 0.3342 0.67753 0.10468 0.0
C1332 C 0.34637 0.68081 0.11927 0.0
C1333 C 0.3594 0.69475 0.11775 0.0
C1334 C 0.32258 0.68521 0.07287 0.0
C1335 C 0.34555 0.66968 0.1365 0.0
C1336 C 0.28904 0.65333 0.11109 0.0
C1337 C 0.29301 0.63585 0.10461 0.0
C1338 C 0.30255 0.66681 0.11199 0.0
C1339 C 0.32036 0.6628 0.10589 0.0
C1340 C 0.32456 0.64502 0.09978 0.0
C1341 C 0.31085 0.63168 0.09939 0.0
C1342 C 0.29763 0.68549 0.11895 0.0
C1343 C 0.34331 0.6403 0.09289 0.0
H1344 H 0.34871 0.71085 0.07571 0.0
H1345 H 0.3688 0.69723 0.12885 0.0
H1346 H 0.324 0.671 0.06797 0.0
H1347 H 0.30824 0.68703 0.07715 0.0
H1348 H 0.32542 0.69458 0.06136 0.0
H1349 H 0.35581 0.67412 0.14669 0.0
H1350 H 0.33182 0.67076 0.14267 0.0
H1351 H 0.34784 0.6551 0.13334 0.0
H1352 H 0.27527 0.65654 0.11527 0.0
H1353 H 0.31394 0.61819 0.0943 0.0
H1354 H 0.29843 0.69548 0.10767 0.0
H1355 H 0.30745 0.68991 0.12955 0.0
H1356 H 0.28369 0.68591 0.12477 0.0
H1357 H 0.34632 0.64834 0.08047 0.0
H1358 H 0.34463 0.62562 0.08955 0.0
H1359 H 0.35375 0.64391 0.10319 0.0
C1360 C 0.6918 0.36713 0.11617 0.0
C1361 C 0.70867 0.36044 0.11035 0.0
C1362 C 0.67666 0.35554 0.11778 0.0
C1363 C 0.6785 0.33687 0.11343 0.0
C1364 C 0.69566 0.32995 0.10818 0.0
C1365 C 0.71054 0.34182 0.10671 0.0
C1366 C 0.65858 0.36338 0.1235 0.0
C1367 C 0.69819 0.3101 0.10346 0.0
C1368 C 0.64365 0.30127 0.12735 0.0
C1369 C 0.63428 0.29854 0.11094 0.0
C1370 C 0.65763 0.31428 0.12863 0.0
C1371 C 0.66231 0.32471 0.11313 0.0
C1372 C 0.65235 0.32253 0.09678 0.0
C1373 C 0.63844 0.30948 0.09589 0.0
C1374 C 0.66787 0.31631 0.14632 0.0
C1375 C 0.65691 0.33341 0.07995 0.0
H1376 H 0.69029 0.38152 0.11904 0.0
H1377 H 0.72357 0.33656 0.10227 0.0
H1378 H 0.64887 0.36263 0.11197 0.0
H1379 H 0.6527 0.3553 0.13482 0.0
H1380 H 0.65977 0.37779 0.12791 0.0
H1381 H 0.71263 0.3067 0.10064 0.0
H1382 H 0.69328 0.30139 0.11477 0.0
H1383 H 0.68997 0.30667 0.09126 0.0
H1384 H 0.64044 0.29287 0.13904 0.0
H1385 H 0.6312 0.30746 0.0832 0.0
H1386 H 0.66871 0.33085 0.15031 0.0
H1387 H 0.68201 0.31137 0.14456 0.0
H1388 H 0.66142 0.30854 0.15756 0.0
H1389 H 0.65711 0.34816 0.08315 0.0
H1390 H 0.64706 0.33099 0.06873 0.0
H1391 H 0.6707 0.32971 0.07509 0.0
C1392 C 0.59125 0.84658 0.7957 0.0
C1393 C 0.605 0.8587 0.79042 0.0
C1394 C 0.59394 0.83433 0.81003 0.0
C1395 C 0.61085 0.83413 0.81925 0.0
C1396 C 0.62479 0.8464 0.81406 0.0
C1397 C 0.62167 0.85861 0.7997 0.0
C1398 C 0.57869 0.82153 0.81524 0.0
C1399 C 0.643 0.84649 0.82354 0.0
C1400 C 0.60915 0.8119 0.8657 0.0
C1401 C 0.61422 0.79401 0.8615 0.0
C1402 C 0.60884 0.82539 0.85222 0.0
C1403 C 0.61382 0.82086 0.83418 0.0
C1404 C 0.61995 0.80308 0.83011 0.0
C1405 C 0.62001 0.78982 0.84383 0.0
C1406 C 0.60219 0.8442 0.85707 0.0
C1407 C 0.62554 0.79779 0.81106 0.0
H1408 H 0.57832 0.84662 0.78859 0.0
H1409 H 0.63235 0.86795 0.79562 0.0
H1410 H 0.58317 0.80723 0.81351 0.0
H1411 H 0.57514 0.82341 0.82979 0.0
H1412 H 0.56626 0.82367 0.80692 0.0
H1413 H 0.65231 0.85706 0.81804 0.0
H1414 H 0.64114 0.84892 0.83832 0.0
H1415 H 0.64958 0.833 0.82204 0.0
H1416 H 0.6047 0.81521 0.87936 0.0
H1417 H 0.62405 0.77603 0.84056 0.0
H1418 H 0.58882 0.84662 0.85049 0.0
H1419 H 0.61174 0.8547 0.85191 0.0
H1420 H 0.60059 0.84603 0.87199 0.0
H1421 H 0.61343 0.79781 0.80204 0.0
H1422 H 0.63181 0.78406 0.81057 0.0
H1423 H 0.63536 0.80782 0.80549 0.0
C1424 C 0.18714 0.60734 0.8562 0.0
C1425 C 0.20318 0.61749 0.85425 0.0
C1426 C 0.17329 0.60828 0.84309 0.0
C1427 C 0.17545 0.6199 0.82787 0.0
C1428 C 0.19123 0.63086 0.82633 0.0
C1429 C 0.205 0.6294 0.83947 0.0
C1430 C 0.15677 0.5962 0.84508 0.0
C1431 C 0.19387 0.64365 0.81048 0.0
C1432 C 0.15138 0.60616 0.78435 0.0
C1433 C 0.13575 0.61702 0.78487 0.0
C1434 C 0.16442 0.60707 0.79822 0.0
C1435 C 0.16194 0.61938 0.81282 0.0
C1436 C 0.14642 0.63075 0.8132 0.0
C1437 C 0.13339 0.62931 0.79927 0.0
C1438 C 0.18067 0.59455 0.79745 0.0
C1439 C 0.1435 0.64426 0.82839 0.0
H1440 H 0.1857 0.5981 0.8676 0.0
H1441 H 0.21734 0.63737 0.83802 0.0
H1442 H 0.14414 0.60436 0.84401 0.0
H1443 H 0.15651 0.58607 0.83388 0.0
H1444 H 0.15663 0.5888 0.85826 0.0
H1445 H 0.20594 0.65259 0.81229 0.0
H1446 H 0.19565 0.63568 0.79778 0.0
H1447 H 0.18165 0.6523 0.80865 0.0
H1448 H 0.15321 0.59657 0.77329 0.0
H1449 H 0.12133 0.63776 0.79968 0.0
H1450 H 0.18085 0.58566 0.80965 0.0
H1451 H 0.19344 0.60261 0.79756 0.0
H1452 H 0.18059 0.58579 0.78512 0.0
H1453 H 0.14198 0.63697 0.84151 0.0
H1454 H 0.13123 0.65277 0.82617 0.0
H1455 H 0.15553 0.65332 0.82967 0.0
C1456 C 0.37354 0.1393 0.80724 0.0
C1457 C 0.3912 0.13641 0.80064 0.0
C1458 C 0.37025 0.15211 0.82105 0.0
C1459 C 0.38497 0.16219 0.82837 0.0
C1460 C 0.40289 0.15885 0.82216 0.0
C1461 C 0.40577 0.14603 0.80836 0.0
C1462 C 0.35098 0.15529 0.82736 0.0
C1463 C 0.41898 0.16925 0.82968 0.0
C1464 C 0.37921 0.20942 0.84807 0.0
C1465 C 0.38142 0.20615 0.86672 0.0
C1466 C 0.37934 0.19508 0.83549 0.0
C1467 C 0.38175 0.17703 0.84174 0.0
C1468 C 0.38293 0.17354 0.86064 0.0
C1469 C 0.38276 0.18817 0.87294 0.0
C1470 C 0.37793 0.19936 0.81544 0.0
C1471 C 0.38541 0.15447 0.86782 0.0
H1472 H 0.36224 0.13188 0.80131 0.0
H1473 H 0.41945 0.14379 0.80336 0.0
H1474 H 0.35019 0.15446 0.84241 0.0
H1475 H 0.34663 0.16918 0.82342 0.0
H1476 H 0.34128 0.14532 0.82141 0.0
H1477 H 0.43211 0.16437 0.82405 0.0
H1478 H 0.41756 0.18392 0.82642 0.0
H1479 H 0.41941 0.16802 0.84472 0.0
H1480 H 0.37807 0.22329 0.8432 0.0
H1481 H 0.38441 0.18556 0.88736 0.0
H1482 H 0.36754 0.19056 0.80889 0.0
H1483 H 0.39114 0.19651 0.80874 0.0
H1484 H 0.37435 0.21381 0.81294 0.0
H1485 H 0.37545 0.14505 0.86146 0.0
H1486 H 0.38385 0.1538 0.88284 0.0
H1487 H 0.3992 0.14953 0.86423 0.0
C1488 C 0.86195 0.38801 0.80632 0.0
C1489 C 0.85899 0.38003 0.78927 0.0
C1490 C 0.8485 0.3874 0.81984 0.0
C1491 C 0.83193 0.37819 0.8163 0.0
C1492 C 0.82935 0.36916 0.79947 0.0
C1493 C 0.84284 0.37041 0.78603 0.0
C1494 C 0.85161 0.39752 0.83746 0.0
C1495 C 0.81204 0.35883 0.79538 0.0
C1496 C 0.80065 0.36955 0.8566 0.0
C1497 C 0.78811 0.38375 0.85466 0.0
C1498 C 0.81478 0.36723 0.84395 0.0
C1499 C 0.81661 0.3797 0.82938 0.0
C1500 C 0.80395 0.39404 0.82741 0.0
C1501 C 0.78974 0.39575 0.83995 0.0
C1502 C 0.82778 0.35153 0.8462 0.0
C1503 C 0.80563 0.40784 0.81226 0.0
H1504 H 0.87443 0.39551 0.80881 0.0
H1505 H 0.84062 0.36408 0.77288 0.0
H1506 H 0.84204 0.40914 0.83834 0.0
H1507 H 0.84885 0.38853 0.84926 0.0
H1508 H 0.86572 0.40285 0.83862 0.0
H1509 H 0.81315 0.35064 0.78272 0.0
H1510 H 0.80855 0.34964 0.80683 0.0
H1511 H 0.80063 0.36854 0.79377 0.0
H1512 H 0.79934 0.36022 0.86795 0.0
H1513 H 0.78014 0.40682 0.83849 0.0
H1514 H 0.84175 0.35676 0.84862 0.0
H1515 H 0.8282 0.34333 0.83352 0.0
H1516 H 0.82393 0.34251 0.85769 0.0
H1517 H 0.81905 0.41476 0.81306 0.0
H1518 H 0.79479 0.41833 0.81282 0.0
H1519 H 0.80491 0.40093 0.79886 0.0
C1520 C 0.59816 0.19309 0.13472 0.0
C1521 C 0.61097 0.20725 0.13442 0.0
C1522 C 0.59889 0.1795 0.14807 0.0
C1523 C 0.61282 0.18007 0.16137 0.0
C1524 C 0.62649 0.19364 0.16039 0.0
C1525 C 0.62537 0.20713 0.14692 0.0
C1526 C 0.58407 0.16525 0.14864 0.0
C1527 C 0.64166 0.19457 0.17421 0.0
C1528 C 0.59961 0.16121 0.20746 0.0
C1529 C 0.60719 0.14375 0.20691 0.0
C1530 C 0.60174 0.17328 0.19287 0.0
C1531 C 0.61179 0.16779 0.17739 0.0
C1532 C 0.61995 0.15038 0.17697 0.0
C1533 C 0.6175 0.1385 0.19174 0.0
C1534 C 0.59278 0.19173 0.19383 0.0
C1535 C 0.63088 0.14414 0.16075 0.0
H1536 H 0.58704 0.19306 0.12503 0.0
H1537 H 0.63536 0.218 0.14668 0.0
H1538 H 0.59003 0.15146 0.14993 0.0
H1539 H 0.57535 0.16753 0.16075 0.0
H1540 H 0.57533 0.16558 0.13631 0.0
H1541 H 0.65248 0.20433 0.17015 0.0
H1542 H 0.63607 0.19894 0.18754 0.0
H1543 H 0.64784 0.18096 0.17617 0.0
H1544 H 0.59166 0.16534 0.21916 0.0
H1545 H 0.62344 0.12503 0.1913 0.0
H1546 H 0.58249 0.19295 0.18285 0.0
H1547 H 0.60303 0.20262 0.19166 0.0
H1548 H 0.58596 0.19412 0.2071 0.0
H1549 H 0.62188 0.14297 0.14868 0.0
H1550 H 0.63747 0.13077 0.16311 0.0
H1551 H 0.64155 0.15432 0.15742 0.0
C1552 C 0.85173 0.63353 0.2135 0.0
C1553 C 0.86682 0.62215 0.2111 0.0
C1554 C 0.83776 0.6341 0.2005 0.0
C1555 C 0.83892 0.62296 0.18483 0.0
C1556 C 0.85462 0.61226 0.18185 0.0
C1557 C 0.86842 0.61201 0.19503 0.0
C1558 C 0.8213 0.64582 0.20406 0.0
C1559 C 0.85637 0.60021 0.1653 0.0
C1560 C 0.79516 0.60497 0.16427 0.0
C1561 C 0.79346 0.6157 0.14862 0.0
C1562 C 0.80977 0.60741 0.17627 0.0
C1563 C 0.82297 0.62098 0.17257 0.0
C1564 C 0.82113 0.63213 0.15699 0.0
C1565 C 0.80639 0.62932 0.14514 0.0
C1566 C 0.81127 0.59522 0.19275 0.0
C1567 C 0.83489 0.64679 0.15269 0.0
H1568 H 0.85048 0.64147 0.22587 0.0
H1569 H 0.88009 0.60324 0.19309 0.0
H1570 H 0.81781 0.65387 0.19179 0.0
H1571 H 0.80943 0.63702 0.20721 0.0
H1572 H 0.82347 0.6553 0.21565 0.0
H1573 H 0.87014 0.59416 0.1641 0.0
H1574 H 0.84625 0.58901 0.16611 0.0
H1575 H 0.85342 0.60803 0.15274 0.0
H1576 H 0.7852 0.59442 0.16702 0.0
H1577 H 0.8051 0.63767 0.13306 0.0
H1578 H 0.81186 0.60355 0.20533 0.0
H1579 H 0.82405 0.58726 0.19205 0.0
H1580 H 0.79965 0.58559 0.19386 0.0
H1581 H 0.83641 0.65613 0.16446 0.0
H1582 H 0.83102 0.65488 0.14054 0.0
H1583 H 0.84839 0.64056 0.1502 0.0
C1584 C 0.38092 0.78327 0.15105 0.0
C1585 C 0.38757 0.78745 0.13369 0.0
C1586 C 0.38005 0.79662 0.16468 0.0
C1587 C 0.38618 0.81449 0.16086 0.0
C1588 C 0.39215 0.81897 0.14311 0.0
C1589 C 0.39269 0.8054 0.12969 0.0
C1590 C 0.37336 0.79139 0.18339 0.0
C1591 C 0.39891 0.83784 0.13854 0.0
C1592 C 0.37594 0.85287 0.194 0.0
C1593 C 0.392 0.85341 0.20427 0.0
C1594 C 0.37374 0.84019 0.17985 0.0
C1595 C 0.38804 0.82797 0.17582 0.0
C1596 C 0.40433 0.82859 0.18607 0.0
C1597 C 0.40607 0.84124 0.20024 0.0
C1598 C 0.35612 0.83978 0.1693 0.0
C1599 C 0.41998 0.81591 0.18207 0.0
H1600 H 0.37684 0.76943 0.15416 0.0
H1601 H 0.39783 0.8087 0.11627 0.0
H1602 H 0.38489 0.7917 0.19313 0.0
H1603 H 0.36311 0.8013 0.18827 0.0
H1604 H 0.36723 0.77756 0.1836 0.0
H1605 H 0.40157 0.83953 0.12375 0.0
H1606 H 0.38888 0.84821 0.14287 0.0
H1607 H 0.41173 0.84059 0.14605 0.0
H1608 H 0.36501 0.86223 0.19714 0.0
H1609 H 0.41854 0.84165 0.20811 0.0
H1610 H 0.34974 0.82613 0.17043 0.0
H1611 H 0.35882 0.84222 0.15465 0.0
H1612 H 0.34629 0.85014 0.1742 0.0
H1613 H 0.41551 0.80158 0.18368 0.0
H1614 H 0.43182 0.81834 0.19116 0.0
H1615 H 0.42447 0.81763 0.16776 0.0
C1616 C 0.20846 0.36464 0.14853 0.0
C1617 C 0.20602 0.37692 0.13417 0.0
C1618 C 0.19503 0.36241 0.16191 0.0
C1619 C 0.17905 0.37308 0.16111 0.0
C1620 C 0.17612 0.38478 0.1461 0.0
C1621 C 0.18959 0.38641 0.13268 0.0
C1622 C 0.19844 0.34945 0.17746 0.0
C1623 C 0.15941 0.39663 0.14489 0.0
C1624 C 0.13893 0.3651 0.19289 0.0
C1625 C 0.14274 0.3776 0.2068 0.0
C1626 C 0.1509 0.36299 0.17811 0.0
C1627 C 0.16672 0.37399 0.1771 0.0
C1628 C 0.17064 0.38652 0.19121 0.0
C1629 C 0.15872 0.38801 0.20596 0.0
C1630 C 0.14655 0.34919 0.16353 0.0
C1631 C 0.1872 0.39873 0.19052 0.0
H1632 H 0.22109 0.35712 0.14958 0.0
H1633 H 0.18767 0.39593 0.12158 0.0
H1634 H 0.20169 0.35729 0.18994 0.0
H1635 H 0.18609 0.34122 0.18033 0.0
H1636 H 0.20995 0.34011 0.17459 0.0
H1637 H 0.15828 0.40354 0.1315 0.0
H1638 H 0.14692 0.38845 0.14718 0.0
H1639 H 0.15997 0.40717 0.15569 0.0
H1640 H 0.12661 0.35699 0.19356 0.0
H1641 H 0.16167 0.39778 0.21663 0.0
H1642 H 0.15834 0.34005 0.16139 0.0
H1643 H 0.14394 0.35623 0.15044 0.0
H1644 H 0.13445 0.34081 0.16699 0.0
H1645 H 0.19974 0.39041 0.18981 0.0
H1646 H 0.18819 0.40784 0.20256 0.0
H1647 H 0.18677 0.40727 0.17808 0.0
C1648 C 0.80909 0.60915 0.87183 0.0
C1649 C 0.7909 0.60717 0.86639 0.0
C1650 C 0.82321 0.60919 0.85895 0.0
C1651 C 0.81898 0.60716 0.84026 0.0
C1652 C 0.8006 0.60563 0.83469 0.0
C1653 C 0.78679 0.60567 0.84783 0.0
C1654 C 0.84264 0.61093 0.86536 0.0
C1655 C 0.79553 0.60344 0.81488 0.0
C1656 C 0.85237 0.61918 0.80271 0.0
C1657 C 0.85861 0.60192 0.79757 0.0
C1658 C 0.84 0.62122 0.81712 0.0
C1659 C 0.8337 0.6056 0.8265 0.0
C1660 C 0.8405 0.58822 0.82179 0.0
C1661 C 0.8529 0.5866 0.8074 0.0
C1662 C 0.83314 0.63997 0.82184 0.0
C1663 C 0.8341 0.57124 0.83144 0.0
H1664 H 0.81232 0.61035 0.88617 0.0
H1665 H 0.77275 0.60419 0.84354 0.0
H1666 H 0.85011 0.59819 0.86233 0.0
H1667 H 0.84963 0.62208 0.85795 0.0
H1668 H 0.84357 0.61365 0.8802 0.0
H1669 H 0.78057 0.60322 0.81276 0.0
H1670 H 0.80141 0.61472 0.80675 0.0
H1671 H 0.80129 0.59057 0.80953 0.0
H1672 H 0.8568 0.63107 0.79518 0.0
H1673 H 0.85772 0.57323 0.80352 0.0
H1674 H 0.83445 0.64247 0.83668 0.0
H1675 H 0.81848 0.64098 0.81839 0.0
H1676 H 0.8406 0.65083 0.81442 0.0
H1677 H 0.8358 0.57277 0.84636 0.0
H1678 H 0.84159 0.55893 0.82695 0.0
H1679 H 0.81939 0.5691 0.82878 0.0
C1680 C 0.38401 0.8396 0.78266 0.0
C1681 C 0.37806 0.85742 0.78583 0.0
C1682 C 0.38425 0.82671 0.79672 0.0
C1683 C 0.37824 0.83173 0.81432 0.0
C1684 C 0.37139 0.84945 0.81738 0.0
C1685 C 0.37148 0.86214 0.8031 0.0
C1686 C 0.39175 0.80798 0.79293 0.0
C1687 C 0.36463 0.85522 0.83589 0.0
C1688 C 0.36995 0.79282 0.84735 0.0
C1689 C 0.38649 0.7924 0.85687 0.0
C1690 C 0.36677 0.80598 0.83387 0.0
C1691 C 0.38051 0.81886 0.82975 0.0
C1692 C 0.39698 0.81883 0.83974 0.0
C1693 C 0.39974 0.80565 0.85322 0.0
C1694 C 0.34895 0.80573 0.82365 0.0
C1695 C 0.412 0.83232 0.83572 0.0
H1696 H 0.38911 0.83589 0.76933 0.0
H1697 H 0.36678 0.87589 0.80559 0.0
H1698 H 0.40444 0.80595 0.80085 0.0
H1699 H 0.38193 0.79739 0.79735 0.0
H1700 H 0.39483 0.80588 0.77828 0.0
H1701 H 0.35802 0.86879 0.83557 0.0
H1702 H 0.35475 0.84512 0.84125 0.0
H1703 H 0.3762 0.8558 0.84557 0.0
H1704 H 0.35965 0.78263 0.85016 0.0
H1705 H 0.41254 0.80539 0.86054 0.0
H1706 H 0.35141 0.80198 0.80923 0.0
H1707 H 0.34273 0.81946 0.82371 0.0
H1708 H 0.33909 0.79588 0.82954 0.0
H1709 H 0.41703 0.83025 0.82164 0.0
H1710 H 0.42365 0.83097 0.84525 0.0
H1711 H 0.40673 0.84642 0.83658 0.0
C1712 C 0.19171 0.3885 0.86499 0.0
C1713 C 0.20953 0.3873 0.85831 0.0
C1714 C 0.17675 0.38775 0.85314 0.0
C1715 C 0.17974 0.38552 0.83424 0.0
C1716 C 0.19765 0.38307 0.82762 0.0
C1717 C 0.21235 0.38413 0.83973 0.0
C1718 C 0.15787 0.39054 0.8607 0.0
C1719 C 0.20137 0.38035 0.80759 0.0
C1720 C 0.14065 0.37517 0.80189 0.0
C1721 C 0.13747 0.39238 0.79434 0.0
C1722 C 0.15413 0.37271 0.81523 0.0
C1723 C 0.1645 0.38785 0.82116 0.0
C1724 C 0.16092 0.40534 0.81396 0.0
C1725 C 0.1475 0.40737 0.8006 0.0
C1726 C 0.15765 0.35386 0.82255 0.0
C1727 C 0.17157 0.42187 0.82006 0.0
H1728 H 0.18949 0.39096 0.87936 0.0
H1729 H 0.22611 0.38303 0.83455 0.0
H1730 H 0.15274 0.40406 0.85642 0.0
H1731 H 0.14835 0.38015 0.85523 0.0
H1732 H 0.15763 0.38989 0.8758 0.0
H1733 H 0.21574 0.37653 0.80495 0.0
H1734 H 0.19236 0.36961 0.80195 0.0
H1735 H 0.19841 0.39313 0.80014 0.0
H1736 H 0.13293 0.36355 0.79707 0.0
H1737 H 0.14502 0.42072 0.79486 0.0
H1738 H 0.15718 0.35394 0.83764 0.0
H1739 H 0.17149 0.34941 0.81854 0.0
H1740 H 0.14763 0.34374 0.81742 0.0
H1741 H 0.17091 0.42324 0.83508 0.0
H1742 H 0.16644 0.43463 0.81382 0.0
H1743 H 0.1861 0.42026 0.81632 0.0
C1744 C 0.61207 0.13278 0.80945 0.0
C1745 C 0.61956 0.13612 0.79224 0.0
C1746 C 0.61208 0.14629 0.82293 0.0
C1747 C 0.62006 0.16344 0.81918 0.0
C1748 C 0.62864 0.16649 0.80221 0.0
C1749 C 0.62813 0.15283 0.78885 0.0
C1750 C 0.6026 0.14258 0.84078 0.0
C1751 C 0.63762 0.18446 0.79785 0.0
C1752 C 0.60021 0.20425 0.84363 0.0
C1753 C 0.61254 0.20671 0.85796 0.0
C1754 C 0.60259 0.19026 0.83089 0.0
C1755 C 0.61787 0.17865 0.83233 0.0
C1756 C 0.6306 0.18132 0.84655 0.0
C1757 C 0.62769 0.19523 0.85933 0.0
C1758 C 0.58854 0.18769 0.81609 0.0
C1759 C 0.64721 0.16942 0.84831 0.0
H1760 H 0.60539 0.11989 0.81212 0.0
H1761 H 0.63404 0.15541 0.77558 0.0
H1762 H 0.61164 0.14602 0.85237 0.0
H1763 H 0.59036 0.15131 0.84189 0.0
H1764 H 0.5983 0.12813 0.84209 0.0
H1765 H 0.64556 0.18388 0.78501 0.0
H1766 H 0.62709 0.19515 0.79646 0.0
H1767 H 0.64682 0.18864 0.80908 0.0
H1768 H 0.58845 0.21304 0.84257 0.0
H1769 H 0.6373 0.19718 0.87036 0.0
H1770 H 0.58248 0.17388 0.81708 0.0
H1771 H 0.59507 0.18877 0.80253 0.0
H1772 H 0.57743 0.19787 0.8169 0.0
H1773 H 0.64302 0.15513 0.85078 0.0
H1774 H 0.65626 0.17384 0.85959 0.0
H1775 H 0.65508 0.16961 0.83543 0.0
C1776 C 0.86525 0.38208 0.18957 0.0
C1777 C 0.86138 0.39354 0.20432 0.0
C1778 C 0.85287 0.38007 0.17514 0.0
C1779 C 0.83632 0.38986 0.17545 0.0
C1780 C 0.83228 0.4013 0.19042 0.0
C1781 C 0.84484 0.40296 0.20469 0.0
C1782 C 0.85758 0.36765 0.15947 0.0
C1783 C 0.81479 0.41202 0.19123 0.0
C1784 C 0.81095 0.40081 0.13186 0.0
C1785 C 0.79628 0.38862 0.13275 0.0
C1786 C 0.82445 0.40094 0.14537 0.0
C1787 C 0.82329 0.3885 0.16003 0.0
C1788 C 0.80895 0.37561 0.16054 0.0
C1789 C 0.79558 0.37586 0.14691 0.0
C1790 C 0.83952 0.41491 0.14436 0.0
C1791 C 0.80735 0.36203 0.17586 0.0
H1792 H 0.87802 0.37474 0.18924 0.0
H1793 H 0.84179 0.41186 0.21605 0.0
H1794 H 0.84671 0.35732 0.15759 0.0
H1795 H 0.85842 0.37563 0.14669 0.0
H1796 H 0.87073 0.36054 0.16157 0.0
H1797 H 0.81361 0.42013 0.20393 0.0
H1798 H 0.814 0.4214 0.17944 0.0
H1799 H 0.80295 0.40267 0.19034 0.0
H1800 H 0.81156 0.4107 0.12094 0.0
H1801 H 0.7843 0.36636 0.14762 0.0
H1802 H 0.85296 0.40821 0.14558 0.0
H1803 H 0.83827 0.42457 0.1559 0.0
H1804 H 0.83919 0.42277 0.13145 0.0
H1805 H 0.82037 0.35467 0.1777 0.0
H1806 H 0.79634 0.35193 0.17344 0.0
H1807 H 0.80445 0.36929 0.18878 0.0
C1808 C 0.62421 0.86622 0.19009 0.0
C1809 C 0.61978 0.86127 0.20797 0.0
C1810 C 0.62475 0.85314 0.17615 0.0
C1811 C 0.62063 0.83476 0.18023 0.0
C1812 C 0.61689 0.82961 0.19841 0.0
C1813 C 0.61658 0.84292 0.21206 0.0
C1814 C 0.629 0.8591 0.15697 0.0
C1815 C 0.61239 0.81015 0.20331 0.0
C1816 C 0.59963 0.80426 0.14427 0.0
C1817 C 0.61422 0.79287 0.13981 0.0
C1818 C 0.60171 0.81831 0.15702 0.0
C1819 C 0.61884 0.8211 0.16541 0.0
C1820 C 0.6338 0.81009 0.16045 0.0
C1821 C 0.6313 0.79603 0.14774 0.0
C1822 C 0.58539 0.82972 0.16199 0.0
C1823 C 0.6523 0.8128 0.16899 0.0
H1824 H 0.62675 0.88039 0.18687 0.0
H1825 H 0.61318 0.83901 0.22587 0.0
H1826 H 0.63963 0.85026 0.15094 0.0
H1827 H 0.61665 0.85772 0.14839 0.0
H1828 H 0.63372 0.87346 0.15637 0.0
H1829 H 0.61091 0.8082 0.21822 0.0
H1830 H 0.59947 0.80607 0.19663 0.0
H1831 H 0.62315 0.80088 0.19827 0.0
H1832 H 0.58641 0.80189 0.13815 0.0
H1833 H 0.64264 0.7873 0.14427 0.0
H1834 H 0.58859 0.84438 0.16029 0.0
H1835 H 0.5819 0.82754 0.17652 0.0
H1836 H 0.57327 0.82638 0.15358 0.0
H1837 H 0.65653 0.82726 0.16792 0.0
H1838 H 0.66286 0.80417 0.16252 0.0
H1839 H 0.65165 0.8094 0.18368 0.0
C1840 C 0.13919 0.61197 0.18871 0.0
C1841 C 0.14355 0.60187 0.20427 0.0
C1842 C 0.15135 0.61309 0.17401 0.0
C1843 C 0.16806 0.60359 0.1748 0.0
C1844 C 0.17243 0.59325 0.19044 0.0
C1845 C 0.1602 0.59266 0.20506 0.0
C1846 C 0.14638 0.62452 0.15769 0.0
C1847 C 0.18999 0.5827 0.1917 0.0
C1848 C 0.19349 0.59149 0.1315 0.0
C1849 C 0.208 0.60388 0.13202 0.0
C1850 C 0.1801 0.59151 0.14512 0.0
C1851 C 0.18112 0.60445 0.15938 0.0
C1852 C 0.19533 0.6175 0.15951 0.0
C1853 C 0.20871 0.61693 0.14591 0.0
C1854 C 0.16532 0.57722 0.14467 0.0
C1855 C 0.19669 0.63172 0.17429 0.0
H1856 H 0.12634 0.61916 0.1881 0.0
H1857 H 0.16356 0.58474 0.21703 0.0
H1858 H 0.15692 0.63512 0.15546 0.0
H1859 H 0.14598 0.61592 0.14529 0.0
H1860 H 0.13298 0.63127 0.1593 0.0
H1861 H 0.19112 0.57495 0.20463 0.0
H1862 H 0.19099 0.57301 0.18016 0.0
H1863 H 0.20176 0.59212 0.19072 0.0
H1864 H 0.19295 0.58134 0.12081 0.0
H1865 H 0.21986 0.62661 0.14627 0.0
H1866 H 0.15174 0.5837 0.14546 0.0
H1867 H 0.16666 0.56818 0.15669 0.0
H1868 H 0.1659 0.56873 0.13217 0.0
H1869 H 0.18357 0.63901 0.1757 0.0
H1870 H 0.20761 0.64183 0.17155 0.0
H1871 H 0.19956 0.62505 0.18752 0.0
C1872 C 0.38665 0.20433 0.16476 0.0
C1873 C 0.38729 0.20092 0.14601 0.0
C1874 C 0.38541 0.19001 0.17729 0.0
C1875 C 0.38479 0.17184 0.1709 0.0
C1876 C 0.3848 0.16834 0.15196 0.0
C1877 C 0.38607 0.18295 0.13972 0.0
C1878 C 0.38542 0.19429 0.1974 0.0
C1879 C 0.38411 0.14915 0.14464 0.0
C1880 C 0.40344 0.13634 0.20322 0.0
C1881 C 0.38752 0.12929 0.21102 0.0
C1882 C 0.40268 0.1499 0.18986 0.0
C1883 C 0.38557 0.15654 0.1841 0.0
C1884 C 0.3694 0.14912 0.19154 0.0
C1885 C 0.37057 0.13557 0.20498 0.0
C1886 C 0.42023 0.15748 0.18228 0.0
C1887 C 0.35093 0.1558 0.18563 0.0
H1888 H 0.38751 0.21821 0.16969 0.0
H1889 H 0.38649 0.18025 0.12522 0.0
H1890 H 0.3737 0.1876 0.20416 0.0
H1891 H 0.39798 0.18886 0.20374 0.0
H1892 H 0.38476 0.20915 0.2001 0.0
H1893 H 0.3827 0.1488 0.12959 0.0
H1894 H 0.39675 0.14186 0.14844 0.0
H1895 H 0.37256 0.1416 0.15076 0.0
H1896 H 0.41658 0.13152 0.20782 0.0
H1897 H 0.35823 0.13013 0.21096 0.0
H1898 H 0.42139 0.17214 0.18571 0.0
H1899 H 0.42029 0.15635 0.16723 0.0
H1900 H 0.43238 0.15035 0.1877 0.0
H1901 H 0.34933 0.1703 0.1895 0.0
H1902 H 0.33968 0.14785 0.19189 0.0
H1903 H 0.34964 0.155 0.17061 0.0
C1904 C 0.85349 0.79471 0.64075 0.0
C1905 C 0.86437 0.79363 0.62513 0.0
C1906 C 0.83977 0.8079 0.64221 0.0
C1907 C 0.8368 0.82009 0.62761 0.0
C1908 C 0.84839 0.81965 0.61224 0.0
C1909 C 0.8621 0.80648 0.61123 0.0
C1910 C 0.82788 0.80816 0.65895 0.0
C1911 C 0.84561 0.83235 0.59634 0.0
C1912 C 0.78913 0.83685 0.61787 0.0
C1913 C 0.79027 0.85514 0.62314 0.0
C1914 C 0.80404 0.82519 0.61979 0.0
C1915 C 0.82043 0.83192 0.62738 0.0
C1916 C 0.82142 0.85016 0.63351 0.0
C1917 C 0.80632 0.86163 0.6312 0.0
C1918 C 0.80247 0.80585 0.61297 0.0
C1919 C 0.83858 0.85771 0.64194 0.0
H1920 H 0.85528 0.78488 0.65158 0.0
H1921 H 0.87052 0.80574 0.59915 0.0
H1922 H 0.82627 0.82227 0.66406 0.0
H1923 H 0.81413 0.80299 0.65544 0.0
H1924 H 0.8335 0.79959 0.67005 0.0
H1925 H 0.85668 0.83126 0.58611 0.0
H1926 H 0.8325 0.82911 0.58955 0.0
H1927 H 0.84485 0.84664 0.6011 0.0
H1928 H 0.77675 0.83176 0.61164 0.0
H1929 H 0.80722 0.87575 0.63538 0.0
H1930 H 0.80616 0.79615 0.62392 0.0
H1931 H 0.81213 0.80369 0.60157 0.0
H1932 H 0.78853 0.80253 0.60812 0.0
H1933 H 0.84351 0.84854 0.65286 0.0
H1934 H 0.83651 0.87151 0.64775 0.0
H1935 H 0.84943 0.85851 0.63149 0.0
C1936 C 0.86263 0.1957 0.39037 0.0
C1937 C 0.86351 0.21056 0.37846 0.0
C1938 C 0.84918 0.18229 0.38835 0.0
C1939 C 0.83658 0.1836 0.37384 0.0
C1940 C 0.83818 0.19792 0.36107 0.0
C1941 C 0.85153 0.21138 0.36365 0.0
C1942 C 0.84777 0.1674 0.40243 0.0
C1943 C 0.82526 0.19951 0.34518 0.0
C1944 C 0.80712 0.14172 0.36608 0.0
C1945 C 0.79128 0.14649 0.37554 0.0
C1946 C 0.82177 0.15398 0.36468 0.0
C1947 C 0.82062 0.17116 0.37332 0.0
C1948 C 0.80447 0.17615 0.38253 0.0
C1949 C 0.78995 0.16382 0.38337 0.0
C1950 C 0.83861 0.14838 0.35438 0.0
C1951 C 0.80279 0.19424 0.39216 0.0
H1952 H 0.87186 0.19504 0.40186 0.0
H1953 H 0.85228 0.22279 0.35434 0.0
H1954 H 0.835 0.16907 0.4103 0.0
H1955 H 0.84717 0.15387 0.39576 0.0
H1956 H 0.8594 0.16755 0.41209 0.0
H1957 H 0.8299 0.20982 0.33514 0.0
H1958 H 0.82377 0.18621 0.33819 0.0
H1959 H 0.81161 0.20351 0.35017 0.0
H1960 H 0.80814 0.12836 0.35992 0.0
H1961 H 0.77774 0.16754 0.39075 0.0
H1962 H 0.85011 0.1467 0.364 0.0
H1963 H 0.84255 0.15912 0.34454 0.0
H1964 H 0.83663 0.13538 0.3469 0.0
H1965 H 0.8132 0.19523 0.40307 0.0
H1966 H 0.78915 0.19619 0.39836 0.0
H1967 H 0.80536 0.20554 0.3825 0.0
C1968 C 0.80827 0.86654 0.40077 0.0
C1969 C 0.79044 0.863 0.39498 0.0
C1970 C 0.82139 0.8527 0.40096 0.0
C1971 C 0.81659 0.83501 0.39494 0.0
C1972 C 0.79881 0.83158 0.38839 0.0
C1973 C 0.78589 0.84558 0.38864 0.0
C1974 C 0.84015 0.85681 0.40827 0.0
C1975 C 0.79327 0.81298 0.38158 0.0
C1976 C 0.85442 0.80148 0.38429 0.0
C1977 C 0.85453 0.79078 0.40007 0.0
C1978 C 0.84206 0.81588 0.38234 0.0
C1979 C 0.82978 0.81981 0.39664 0.0
C1980 C 0.82994 0.80911 0.41264 0.0
C1981 C 0.84222 0.79463 0.4141 0.0
C1982 C 0.84206 0.82683 0.36497 0.0
C1983 C 0.81722 0.81301 0.42829 0.0
H1984 H 0.81181 0.87999 0.40573 0.0
H1985 H 0.77214 0.84284 0.38402 0.0
H1986 H 0.84255 0.84878 0.42082 0.0
H1987 H 0.85066 0.85275 0.39826 0.0
H1988 H 0.84199 0.87147 0.41153 0.0
H1989 H 0.77941 0.81295 0.37553 0.0
H1990 H 0.80307 0.8081 0.3712 0.0
H1991 H 0.79351 0.80311 0.39299 0.0
H1992 H 0.8639 0.79849 0.3734 0.0
H1993 H 0.84234 0.78646 0.42637 0.0
H1994 H 0.8449 0.84135 0.36802 0.0
H1995 H 0.82843 0.82617 0.3585 0.0
H1996 H 0.85234 0.8219 0.35506 0.0
H1997 H 0.81917 0.82721 0.43308 0.0
H1998 H 0.81938 0.80366 0.43996 0.0
H1999 H 0.80289 0.81172 0.42371 0.0
C2000 C 0.14325 0.79108 0.36264 0.0
C2001 C 0.13161 0.79185 0.37772 0.0
C2002 C 0.15721 0.80395 0.36038 0.0
C2003 C 0.15975 0.81762 0.37372 0.0
C2004 C 0.1474 0.81903 0.38843 0.0
C2005 C 0.13336 0.8062 0.39016 0.0
C2006 C 0.16985 0.80228 0.34429 0.0
C2007 C 0.14975 0.83329 0.40305 0.0
C2008 C 0.20759 0.83385 0.38388 0.0
C2009 C 0.20742 0.85153 0.37678 0.0
C2010 C 0.19228 0.82256 0.38257 0.0
C2011 C 0.17649 0.82899 0.37364 0.0
C2012 C 0.17649 0.84654 0.3657 0.0
C2013 C 0.19194 0.85771 0.36753 0.0
C2014 C 0.19277 0.804 0.39139 0.0
C2015 C 0.16003 0.85368 0.35575 0.0
H2016 H 0.14182 0.78008 0.3529 0.0
H2017 H 0.12438 0.80685 0.40183 0.0
H2018 H 0.17219 0.81578 0.33795 0.0
H2019 H 0.18323 0.7971 0.34892 0.0
H2020 H 0.16443 0.79281 0.3338 0.0
H2021 H 0.1381 0.83356 0.41267 0.0
H2022 H 0.16234 0.83047 0.41089 0.0
H2023 H 0.15128 0.84698 0.3969 0.0
H2024 H 0.21952 0.82902 0.39108 0.0
H2025 H 0.1918 0.87135 0.36194 0.0
H2026 H 0.18943 0.79332 0.38126 0.0
H2027 H 0.18237 0.80325 0.40231 0.0
H2028 H 0.20627 0.80089 0.39742 0.0
H2029 H 0.15527 0.84361 0.34554 0.0
H2030 H 0.16288 0.86677 0.34874 0.0
H2031 H 0.14874 0.85583 0.36552 0.0
C2032 C 0.18771 0.13 0.40343 0.0
C2033 C 0.20446 0.13187 0.39452 0.0
C2034 C 0.17457 0.14379 0.4025 0.0
C2035 C 0.17819 0.15966 0.39218 0.0
C2036 C 0.19473 0.16119 0.38244 0.0
C2037 C 0.20774 0.14733 0.38385 0.0
C2038 C 0.15718 0.14175 0.41324 0.0
C2039 C 0.19897 0.17776 0.37106 0.0
C2040 C 0.13881 0.19132 0.3813 0.0
C2041 C 0.14115 0.2049 0.3945 0.0
C2042 C 0.15087 0.17656 0.38021 0.0
C2043 C 0.1654 0.17527 0.39281 0.0
C2044 C 0.16777 0.18896 0.40617 0.0
C2045 C 0.1557 0.20367 0.40676 0.0
C2046 C 0.14811 0.16237 0.3656 0.0
C2047 C 0.18295 0.18797 0.41999 0.0
H2048 H 0.18515 0.11807 0.41172 0.0
H2049 H 0.22063 0.14875 0.37683 0.0
H2050 H 0.15678 0.15216 0.42418 0.0
H2051 H 0.14522 0.14408 0.40436 0.0
H2052 H 0.15589 0.12808 0.41956 0.0
H2053 H 0.21158 0.17604 0.36292 0.0
H2054 H 0.18752 0.18071 0.36168 0.0
H2055 H 0.2007 0.18978 0.38003 0.0
H2056 H 0.12759 0.19226 0.37178 0.0
H2057 H 0.15751 0.21409 0.41706 0.0
H2058 H 0.14576 0.14886 0.37192 0.0
H2059 H 0.16055 0.16126 0.35713 0.0
H2060 H 0.1364 0.16557 0.35661 0.0
H2061 H 0.18188 0.17513 0.42786 0.0
H2062 H 0.18274 0.19959 0.42967 0.0
H2063 H 0.19631 0.18786 0.41297 0.0
C2064 C 0.19913 0.14649 0.63695 0.0
C2065 C 0.21392 0.15071 0.62566 0.0
C2066 C 0.18432 0.15842 0.63851 0.0
C2067 C 0.18424 0.17473 0.62828 0.0
C2068 C 0.19947 0.17935 0.61742 0.0
C2069 C 0.21419 0.16734 0.61637 0.0
C2070 C 0.16848 0.15324 0.65051 0.0
C2071 C 0.19984 0.19655 0.60618 0.0
C2072 C 0.14013 0.1954 0.61181 0.0
C2073 C 0.13914 0.21119 0.62245 0.0
C2074 C 0.15437 0.18298 0.61413 0.0
C2075 C 0.16774 0.18631 0.62761 0.0
C2076 C 0.16617 0.20165 0.63915 0.0
C2077 C 0.15194 0.21402 0.63632 0.0
C2078 C 0.15566 0.16685 0.60144 0.0
C2079 C 0.17996 0.20543 0.6539 0.0
H2080 H 0.19893 0.13368 0.64424 0.0
H2081 H 0.22559 0.17066 0.60762 0.0
H2082 H 0.16458 0.16485 0.65934 0.0
H2083 H 0.15652 0.14984 0.64194 0.0
H2084 H 0.17161 0.14133 0.65925 0.0
H2085 H 0.21307 0.19857 0.59916 0.0
H2086 H 0.18892 0.19599 0.59575 0.0
H2087 H 0.19717 0.20856 0.6149 0.0
H2088 H 0.13025 0.19315 0.60108 0.0
H2089 H 0.15111 0.22616 0.64466 0.0
H2090 H 0.1572 0.15409 0.60931 0.0
H2091 H 0.1679 0.1683 0.59272 0.0
H2092 H 0.14353 0.16556 0.59251 0.0
H2093 H 0.18254 0.19297 0.66201 0.0
H2094 H 0.17547 0.21645 0.66321 0.0
H2095 H 0.19306 0.20955 0.64764 0.0
C2096 C 0.78758 0.15325 0.59408 0.0
C2097 C 0.78958 0.13562 0.60103 0.0
C2098 C 0.80191 0.16585 0.59491 0.0
C2099 C 0.81858 0.16075 0.60307 0.0
C2100 C 0.82058 0.14307 0.61042 0.0
C2101 C 0.80607 0.13065 0.60921 0.0
C2102 C 0.7993 0.18453 0.58677 0.0
C2103 C 0.83808 0.13723 0.61941 0.0
C2104 C 0.86006 0.18787 0.58854 0.0
C2105 C 0.86132 0.20084 0.60248 0.0
C2106 C 0.84648 0.17444 0.5888 0.0
C2107 C 0.834 0.17386 0.60346 0.0
C2108 C 0.83565 0.18649 0.61793 0.0
C2109 C 0.84924 0.19992 0.6172 0.0
C2110 C 0.84506 0.1613 0.57305 0.0
C2111 C 0.82274 0.18614 0.6339 0.0
H2112 H 0.77487 0.15714 0.5877 0.0
H2113 H 0.80764 0.11705 0.61466 0.0
H2114 H 0.80168 0.19513 0.59726 0.0
H2115 H 0.80939 0.18679 0.57577 0.0
H2116 H 0.78544 0.18639 0.58105 0.0
H2117 H 0.8372 0.12325 0.62508 0.0
H2118 H 0.84937 0.13769 0.60941 0.0
H2119 H 0.84163 0.14678 0.63057 0.0
H2120 H 0.86936 0.18855 0.57712 0.0
H2121 H 0.85023 0.20988 0.62805 0.0
H2122 H 0.83198 0.16339 0.56582 0.0
H2123 H 0.84513 0.14707 0.57809 0.0
H2124 H 0.85635 0.163 0.56315 0.0
H2125 H 0.80881 0.18952 0.62923 0.0
H2126 H 0.82674 0.19596 0.64469 0.0
H2127 H 0.8222 0.1723 0.63989 0.0
C2128 C 0.19622 0.86496 0.61937 0.0
C2129 C 0.19979 0.87276 0.60233 0.0
C2130 C 0.18314 0.85112 0.62126 0.0
C2131 C 0.17347 0.845 0.60574 0.0
C2132 C 0.17645 0.85343 0.58869 0.0
C2133 C 0.18958 0.86721 0.5872 0.0
C2134 C 0.18026 0.8425 0.63967 0.0
C2135 C 0.16637 0.84734 0.57182 0.0
C2136 C 0.15672 0.79628 0.60289 0.0
C2137 C 0.13796 0.79837 0.6055 0.0
C2138 C 0.16849 0.8113 0.60353 0.0
C2139 C 0.16132 0.82885 0.60689 0.0
C2140 C 0.14247 0.83097 0.61014 0.0
C2141 C 0.13098 0.81568 0.60939 0.0
C2142 C 0.18853 0.80847 0.60001 0.0
C2143 C 0.13435 0.84946 0.61382 0.0
H2144 H 0.20407 0.86923 0.63111 0.0
H2145 H 0.19222 0.87326 0.57401 0.0
H2146 H 0.16554 0.84194 0.64298 0.0
H2147 H 0.18532 0.8283 0.63944 0.0
H2148 H 0.18746 0.85001 0.65066 0.0
H2149 H 0.16929 0.85618 0.55991 0.0
H2150 H 0.17032 0.8332 0.56837 0.0
H2151 H 0.15149 0.84734 0.57431 0.0
H2152 H 0.1622 0.78292 0.59994 0.0
H2153 H 0.11649 0.81736 0.61147 0.0
H2154 H 0.1967 0.81438 0.61125 0.0
H2155 H 0.19253 0.81559 0.58732 0.0
H2156 H 0.19207 0.79385 0.59862 0.0
H2157 H 0.14183 0.85635 0.625 0.0
H2158 H 0.11973 0.84861 0.61754 0.0
H2159 H 0.13571 0.85812 0.60154 0.0
C2160 C 0.09752 0.24756 0.46825 0.0
C2161 C 0.10743 0.25838 0.45607 0.0
C2162 C 0.09904 0.2501 0.48708 0.0
C2163 C 0.11079 0.26378 0.49392 0.0
C2164 C 0.12064 0.27495 0.4817 0.0
C2165 C 0.11883 0.27213 0.46287 0.0
C2166 C 0.08824 0.23793 0.49966 0.0
C2167 C 0.13329 0.28967 0.48853 0.0
C2168 C 0.10106 0.27639 0.54294 0.0
C2169 C 0.11304 0.26484 0.55223 0.0
C2170 C 0.1009 0.27703 0.52386 0.0
C2171 C 0.11301 0.26587 0.51391 0.0
C2172 C 0.12593 0.25511 0.52326 0.0
C2173 C 0.12578 0.25472 0.54233 0.0
C2174 C 0.08698 0.28875 0.51437 0.0
C2175 C 0.13915 0.24311 0.51313 0.0
H2176 H 0.08865 0.23695 0.46306 0.0
H2177 H 0.12652 0.28053 0.45349 0.0
H2178 H 0.09763 0.23001 0.50841 0.0
H2179 H 0.0796 0.24628 0.50878 0.0
H2180 H 0.07937 0.22825 0.49214 0.0
H2181 H 0.1394 0.29767 0.47725 0.0
H2182 H 0.12586 0.29908 0.49767 0.0
H2183 H 0.14442 0.28349 0.49662 0.0
H2184 H 0.09122 0.2843 0.55054 0.0
H2185 H 0.13514 0.24585 0.54945 0.0
H2186 H 0.07643 0.27993 0.50808 0.0
H2187 H 0.09342 0.29671 0.50328 0.0
H2188 H 0.08019 0.2983 0.5239 0.0
H2189 H 0.13162 0.23178 0.50653 0.0
H2190 H 0.14962 0.23721 0.52228 0.0
H2191 H 0.14608 0.2509 0.50222 0.0
C2192 C 0.72748 0.11441 0.53125 0.0
C2193 C 0.74154 0.104 0.53881 0.0
C2194 C 0.72583 0.11638 0.5123 0.0
C2195 C 0.73852 0.10769 0.50073 0.0
C2196 C 0.75263 0.09704 0.50832 0.0
C2197 C 0.75397 0.09534 0.52725 0.0
C2198 C 0.71065 0.12787 0.50467 0.0
C2199 C 0.76642 0.08753 0.49643 0.0
C2200 C 0.72887 0.09824 0.45087 0.0
C2201 C 0.73953 0.11161 0.44238 0.0
C2202 C 0.72776 0.09727 0.46991 0.0
C2203 C 0.73749 0.11 0.48066 0.0
C2204 C 0.74756 0.12403 0.47213 0.0
C2205 C 0.74849 0.12464 0.45308 0.0
C2206 C 0.71686 0.08211 0.47853 0.0
C2207 C 0.75805 0.13791 0.48311 0.0
H2208 H 0.71783 0.12112 0.54014 0.0
H2209 H 0.76484 0.08724 0.53302 0.0
H2210 H 0.71642 0.13943 0.49686 0.0
H2211 H 0.70229 0.11971 0.49508 0.0
H2212 H 0.70165 0.13335 0.51549 0.0
H2213 H 0.77632 0.07945 0.50447 0.0
H2214 H 0.75941 0.07831 0.48672 0.0
H2215 H 0.77405 0.09771 0.48828 0.0
H2216 H 0.72189 0.08816 0.44264 0.0
H2217 H 0.75667 0.13507 0.44659 0.0
H2218 H 0.70753 0.08764 0.48901 0.0
H2219 H 0.7262 0.07252 0.48547 0.0
H2220 H 0.70874 0.07439 0.46836 0.0
H2221 H 0.74913 0.14418 0.49354 0.0
H2222 H 0.76385 0.14888 0.47447 0.0
H2223 H 0.76936 0.13111 0.4904 0.0
C2224 C 0.9002 0.75322 0.4749 0.0
C2225 C 0.89163 0.74054 0.4635 0.0
C2226 C 0.89954 0.75139 0.49386 0.0
C2227 C 0.89025 0.73639 0.50162 0.0
C2228 C 0.88178 0.72338 0.49018 0.0
C2229 C 0.88248 0.72566 0.47122 0.0
C2230 C 0.90862 0.76565 0.5056 0.0
C2231 C 0.87194 0.7071 0.49799 0.0
C2232 C 0.9039 0.72686 0.55042 0.0
C2233 C 0.89018 0.73591 0.56007 0.0
C2234 C 0.90355 0.726 0.53135 0.0
C2235 C 0.88929 0.73463 0.52174 0.0
C2236 C 0.87497 0.74307 0.53146 0.0
C2237 C 0.87554 0.7435 0.55054 0.0
C2238 C 0.9189 0.71663 0.52148 0.0
C2239 C 0.85961 0.75255 0.5217 0.0
H2240 H 0.90725 0.76476 0.469 0.0
H2241 H 0.87588 0.7158 0.46243 0.0
H2242 H 0.89843 0.77203 0.51472 0.0
H2243 H 0.91908 0.75924 0.51437 0.0
H2244 H 0.91523 0.77652 0.49742 0.0
H2245 H 0.86653 0.69795 0.48723 0.0
H2246 H 0.88127 0.69922 0.50683 0.0
H2247 H 0.86046 0.71169 0.50662 0.0
H2248 H 0.91519 0.72087 0.55776 0.0
H2249 H 0.86491 0.75053 0.55794 0.0
H2250 H 0.92738 0.72691 0.51437 0.0
H2251 H 0.91345 0.70722 0.51099 0.0
H2252 H 0.92777 0.70882 0.53088 0.0
H2253 H 0.86499 0.76463 0.5144 0.0
H2254 H 0.84878 0.75711 0.53119 0.0
H2255 H 0.85346 0.7434 0.51137 0.0
C2256 C 0.27693 0.89125 0.45295 0.0
C2257 C 0.26263 0.88132 0.44513 0.0
C2258 C 0.2785 0.89284 0.47194 0.0
C2259 C 0.26542 0.88432 0.48326 0.0
C2260 C 0.25172 0.87325 0.47541 0.0
C2261 C 0.25049 0.87189 0.45643 0.0
C2262 C 0.29339 0.90463 0.47981 0.0
C2263 C 0.23754 0.86389 0.48698 0.0
C2264 C 0.27011 0.88192 0.53478 0.0
C2265 C 0.25886 0.89633 0.54016 0.0
C2266 C 0.27296 0.87813 0.51623 0.0
C2267 C 0.26433 0.88902 0.50289 0.0
C2268 C 0.25347 0.90393 0.50832 0.0
C2269 C 0.25088 0.90739 0.52686 0.0
C2270 C 0.2847 0.86218 0.51091 0.0
C2271 C 0.24404 0.91592 0.49455 0.0
H2272 H 0.28642 0.89847 0.44426 0.0
H2273 H 0.23951 0.86404 0.45045 0.0
H2274 H 0.28745 0.91758 0.48478 0.0
H2275 H 0.29988 0.89785 0.49162 0.0
H2276 H 0.30403 0.9079 0.46959 0.0
H2277 H 0.22919 0.85411 0.479 0.0
H2278 H 0.24406 0.8565 0.4984 0.0
H2279 H 0.22834 0.87423 0.49298 0.0
H2280 H 0.27634 0.87337 0.54503 0.0
H2281 H 0.24227 0.91863 0.53093 0.0
H2282 H 0.29493 0.8664 0.50065 0.0
H2283 H 0.27612 0.85147 0.50458 0.0
H2284 H 0.29187 0.85621 0.52279 0.0
H2285 H 0.25407 0.92145 0.48471 0.0
H2286 H 0.23681 0.92749 0.50102 0.0
H2287 H 0.23402 0.90777 0.48671 0.0
C2288 C 0.10216 0.75677 0.52939 0.0
C2289 C 0.1109 0.74517 0.54171 0.0
C2290 C 0.1034 0.75391 0.51059 0.0
C2291 C 0.11379 0.73916 0.5039 0.0
C2292 C 0.12287 0.72751 0.51624 0.0
C2293 C 0.12124 0.73061 0.53506 0.0
C2294 C 0.09341 0.7666 0.4979 0.0
C2295 C 0.13421 0.71178 0.50956 0.0
C2296 C 0.10016 0.72552 0.4561 0.0
C2297 C 0.1122 0.73601 0.44565 0.0
C2298 C 0.10125 0.72547 0.47516 0.0
C2299 C 0.1148 0.73604 0.48393 0.0
C2300 C 0.12783 0.74554 0.47338 0.0
C2301 C 0.12632 0.74549 0.45434 0.0
C2302 C 0.08706 0.7152 0.48591 0.0
C2303 C 0.14264 0.75676 0.4822 0.0
H2304 H 0.09411 0.76803 0.53444 0.0
H2305 H 0.12806 0.72163 0.54455 0.0
H2306 H 0.10316 0.77321 0.48847 0.0
H2307 H 0.08358 0.75877 0.48948 0.0
H2308 H 0.08587 0.77738 0.50532 0.0
H2309 H 0.14081 0.70429 0.5209 0.0
H2310 H 0.12556 0.70214 0.50178 0.0
H2311 H 0.14491 0.71677 0.50016 0.0
H2312 H 0.08924 0.71813 0.44944 0.0
H2313 H 0.13575 0.75351 0.44631 0.0
H2314 H 0.07768 0.72502 0.49247 0.0
H2315 H 0.09351 0.70713 0.49689 0.0
H2316 H 0.07891 0.70589 0.47718 0.0
H2317 H 0.13659 0.76912 0.48838 0.0
H2318 H 0.15317 0.76109 0.47226 0.0
H2319 H 0.1493 0.74899 0.49328 0.0
C2320 C 0.24725 0.09085 0.47234 0.0
C2321 C 0.25464 0.10329 0.45991 0.0
C2322 C 0.24924 0.09339 0.49113 0.0
C2323 C 0.25869 0.10887 0.49768 0.0
C2324 C 0.26641 0.12137 0.4852 0.0
C2325 C 0.26437 0.11838 0.46642 0.0
C2326 C 0.24093 0.07965 0.50397 0.0
C2327 C 0.27644 0.13811 0.49171 0.0
C2328 C 0.24487 0.12246 0.54541 0.0
C2329 C 0.25872 0.11462 0.55589 0.0
C2330 C 0.2452 0.12148 0.52637 0.0
C2331 C 0.25962 0.11225 0.5176 0.0
C2332 C 0.27401 0.1049 0.52808 0.0
C2333 C 0.27344 0.10626 0.54715 0.0
C2334 C 0.2297 0.12967 0.51567 0.0
C2335 C 0.28955 0.09485 0.51923 0.0
H2336 H 0.23982 0.07909 0.46738 0.0
H2337 H 0.2701 0.12803 0.45684 0.0
H2338 H 0.25141 0.0745 0.51352 0.0
H2339 H 0.23018 0.08624 0.51225 0.0
H2340 H 0.23482 0.06789 0.49667 0.0
H2341 H 0.28236 0.14605 0.48029 0.0
H2342 H 0.26699 0.14701 0.49938 0.0
H2343 H 0.28753 0.13421 0.50116 0.0
H2344 H 0.23354 0.12907 0.55212 0.0
H2345 H 0.28417 0.10019 0.55521 0.0
H2346 H 0.22164 0.11867 0.50916 0.0
H2347 H 0.23503 0.1385 0.50465 0.0
H2348 H 0.22047 0.13785 0.52439 0.0
H2349 H 0.28439 0.08205 0.51306 0.0
H2350 H 0.30046 0.0914 0.5291 0.0
H2351 H 0.29552 0.10312 0.5081 0.0
C2352 C 0.9024 0.25426 0.52965 0.0
C2353 C 0.88986 0.26053 0.54255 0.0
C2354 C 0.89978 0.25732 0.51105 0.0
C2355 C 0.88426 0.26704 0.50513 0.0
C2356 C 0.87184 0.27399 0.5181 0.0
C2357 C 0.87475 0.27057 0.53672 0.0
C2358 C 0.91335 0.24961 0.49768 0.0
C2359 C 0.85528 0.28459 0.5123 0.0
C2360 C 0.88925 0.28187 0.45605 0.0
C2361 C 0.88126 0.2671 0.44695 0.0
C2362 C 0.88902 0.2829 0.47514 0.0
C2363 C 0.88073 0.26874 0.48527 0.0
C2364 C 0.87141 0.25459 0.47608 0.0
C2365 C 0.87173 0.25398 0.45702 0.0
C2366 C 0.89883 0.29838 0.48445 0.0
C2367 C 0.86239 0.23922 0.48634 0.0
H2368 H 0.91415 0.24654 0.53407 0.0
H2369 H 0.86505 0.27551 0.54665 0.0
H2370 H 0.90654 0.23948 0.48876 0.0
H2371 H 0.91872 0.26057 0.48879 0.0
H2372 H 0.925 0.24289 0.50455 0.0
H2373 H 0.84804 0.2907 0.52407 0.0
H2374 H 0.8592 0.2956 0.50273 0.0
H2375 H 0.84572 0.27547 0.50498 0.0
H2376 H 0.89651 0.29214 0.44833 0.0
H2377 H 0.86539 0.2426 0.45005 0.0
H2378 H 0.91198 0.29342 0.48993 0.0
H2379 H 0.89076 0.3036 0.49608 0.0
H2380 H 0.90167 0.30979 0.47494 0.0
H2381 H 0.873 0.2305 0.49258 0.0
H2382 H 0.8538 0.2306 0.47734 0.0
H2383 H 0.85382 0.24459 0.49752 0.0
C2384 C 0.72998 0.88271 0.4633 0.0
C2385 C 0.74173 0.89608 0.45639 0.0
C2386 C 0.72807 0.88018 0.48216 0.0
C2387 C 0.73805 0.89137 0.4943 0.0
C2388 C 0.74959 0.90515 0.48735 0.0
C2389 C 0.75134 0.90728 0.4685 0.0
C2390 C 0.7157 0.8653 0.4891 0.0
C2391 C 0.76038 0.91745 0.49984 0.0
C2392 C 0.7256 0.89692 0.54412 0.0
C2393 C 0.73897 0.8863 0.55255 0.0
C2394 C 0.72456 0.89807 0.52507 0.0
C2395 C 0.73717 0.88831 0.51428 0.0
C2396 C 0.75011 0.87688 0.52274 0.0
C2397 C 0.75088 0.87604 0.54178 0.0
C2398 C 0.71057 0.91041 0.51654 0.0
C2399 C 0.76373 0.86618 0.51171 0.0
H2400 H 0.72253 0.87402 0.45397 0.0
H2401 H 0.76037 0.9177 0.46323 0.0
H2402 H 0.72382 0.85502 0.49656 0.0
H2403 H 0.70569 0.87097 0.49884 0.0
H2404 H 0.70823 0.85836 0.47792 0.0
H2405 H 0.76814 0.92799 0.49226 0.0
H2406 H 0.75115 0.92434 0.50958 0.0
H2407 H 0.77011 0.90925 0.50793 0.0
H2408 H 0.71634 0.90485 0.5524 0.0
H2409 H 0.76118 0.86771 0.54823 0.0
H2410 H 0.70307 0.90314 0.50562 0.0
H2411 H 0.71751 0.92222 0.51015 0.0
H2412 H 0.70063 0.91559 0.52666 0.0
H2413 H 0.75671 0.85826 0.50092 0.0
H2414 H 0.77176 0.85666 0.52025 0.0
H2415 H 0.77327 0.87568 0.50487 0.0
C2416 C 0.45256 0.11847 0.27524 0.0
C2417 C 0.44524 0.10091 0.27361 0.0
C2418 C 0.47147 0.12122 0.27569 0.0
C2419 C 0.48323 0.10606 0.27436 0.0
C2420 C 0.47587 0.08825 0.27414 0.0
C2421 C 0.45695 0.08589 0.27383 0.0
C2422 C 0.47881 0.14041 0.27621 0.0
C2423 C 0.48793 0.0717 0.27276 0.0
C2424 C 0.52745 0.11105 0.24844 0.0
C2425 C 0.54036 0.11066 0.26245 0.0
C2426 C 0.50881 0.11009 0.25224 0.0
C2427 C 0.50291 0.10877 0.27053 0.0
C2428 C 0.51584 0.10899 0.28481 0.0
C2429 C 0.53448 0.10989 0.28059 0.0
C2430 C 0.49545 0.10988 0.2366 0.0
C2431 C 0.51003 0.10776 0.30446 0.0
H2432 H 0.44356 0.13013 0.2752 0.0
H2433 H 0.45136 0.07226 0.2727 0.0
H2434 H 0.4904 0.14147 0.28583 0.0
H2435 H 0.48392 0.14419 0.26252 0.0
H2436 H 0.46821 0.15038 0.28026 0.0
H2437 H 0.48026 0.05885 0.27495 0.0
H2438 H 0.49421 0.07122 0.25903 0.0
H2439 H 0.49914 0.07246 0.28284 0.0
H2440 H 0.53191 0.1117 0.2344 0.0
H2441 H 0.54443 0.10963 0.29147 0.0
H2442 H 0.48527 0.12086 0.23834 0.0
H2443 H 0.48795 0.09676 0.23643 0.0
H2444 H 0.50223 0.1117 0.22322 0.0
H2445 H 0.49941 0.11804 0.30744 0.0
H2446 H 0.5216 0.10984 0.31398 0.0
H2447 H 0.50398 0.09418 0.30711 0.0
C2448 C 0.90918 0.54454 0.27084 0.0
C2449 C 0.8949 0.5547 0.26339 0.0
C2450 C 0.90901 0.52545 0.27014 0.0
C2451 C 0.89426 0.51636 0.26167 0.0
C2452 C 0.87944 0.52654 0.25481 0.0
C2453 C 0.87991 0.5456 0.25581 0.0
C2454 C 0.92497 0.51507 0.27779 0.0
C2455 C 0.86349 0.51734 0.24565 0.0
C2456 C 0.90393 0.4703 0.24046 0.0
C2457 C 0.89654 0.45837 0.25337 0.0
C2458 C 0.90317 0.4892 0.24298 0.0
C2459 C 0.89493 0.49634 0.25886 0.0
C2460 C 0.88745 0.48436 0.27196 0.0
C2461 C 0.88829 0.4655 0.26902 0.0
C2462 C 0.9112 0.50154 0.22863 0.0
C2463 C 0.87866 0.49147 0.2891 0.0
H2464 H 0.92078 0.55151 0.27676 0.0
H2465 H 0.86884 0.5534 0.25002 0.0
H2466 H 0.92015 0.50421 0.28711 0.0
H2467 H 0.93246 0.50835 0.26655 0.0
H2468 H 0.93458 0.52403 0.2853 0.0
H2469 H 0.85247 0.52708 0.24223 0.0
H2470 H 0.8681 0.51069 0.23291 0.0
H2471 H 0.85781 0.50655 0.25454 0.0
H2472 H 0.91029 0.46486 0.22832 0.0
H2473 H 0.88258 0.45632 0.27907 0.0
H2474 H 0.92218 0.51 0.23466 0.0
H2475 H 0.90063 0.51095 0.22344 0.0
H2476 H 0.91692 0.49383 0.21696 0.0
H2477 H 0.88862 0.49969 0.29696 0.0
H2478 H 0.87348 0.48035 0.29794 0.0
H2479 H 0.86717 0.50057 0.28559 0.0
C2480 C 0.54281 0.89769 0.26887 0.0
C2481 C 0.5517 0.89297 0.25268 0.0
C2482 C 0.52377 0.89689 0.27015 0.0
C2483 C 0.51347 0.89096 0.25496 0.0
C2484 C 0.52246 0.88556 0.23881 0.0
C2485 C 0.54146 0.88678 0.23782 0.0
C2486 C 0.51463 0.90296 0.28751 0.0
C2487 C 0.51197 0.8789 0.22242 0.0
C2488 C 0.46428 0.87602 0.26063 0.0
C2489 C 0.45496 0.89118 0.25384 0.0
C2490 C 0.48337 0.87585 0.26141 0.0
C2491 C 0.49327 0.8913 0.2555 0.0
C2492 C 0.48386 0.90685 0.24919 0.0
C2493 C 0.46482 0.90655 0.24831 0.0
C2494 C 0.49294 0.85894 0.26799 0.0
C2495 C 0.49393 0.92369 0.24301 0.0
H2496 H 0.55071 0.90253 0.28037 0.0
H2497 H 0.54831 0.88299 0.22532 0.0
H2498 H 0.50622 0.91517 0.28478 0.0
H2499 H 0.50536 0.89218 0.29258 0.0
H2500 H 0.52461 0.90633 0.29837 0.0
H2501 H 0.52107 0.87405 0.21137 0.0
H2502 H 0.50271 0.86763 0.22635 0.0
H2503 H 0.50341 0.89006 0.21698 0.0
H2504 H 0.45668 0.8641 0.26487 0.0
H2505 H 0.45764 0.91834 0.24317 0.0
H2506 H 0.50248 0.86238 0.27918 0.0
H2507 H 0.50113 0.85307 0.25676 0.0
H2508 H 0.48326 0.8484 0.27291 0.0
H2509 H 0.50345 0.92834 0.25379 0.0
H2510 H 0.48458 0.93503 0.23961 0.0
H2511 H 0.50219 0.92049 0.2308 0.0
C2512 C 0.12544 0.53393 0.2677 0.0
C2513 C 0.11207 0.54127 0.25626 0.0
C2514 C 0.127 0.51501 0.26997 0.0
C2515 C 0.11476 0.50329 0.26075 0.0
C2516 C 0.10093 0.51071 0.24961 0.0
C2517 C 0.09984 0.5296 0.24741 0.0
C2518 C 0.14202 0.50755 0.28178 0.0
C2519 C 0.08748 0.49869 0.23969 0.0
C2520 C 0.12633 0.45519 0.24689 0.0
C2521 C 0.11597 0.44499 0.25923 0.0
C2522 C 0.12703 0.4742 0.24802 0.0
C2523 C 0.11691 0.48322 0.26167 0.0
C2524 C 0.10721 0.47293 0.27478 0.0
C2525 C 0.10696 0.45386 0.27347 0.0
C2526 C 0.13776 0.48465 0.23394 0.0
C2527 C 0.09616 0.48208 0.28945 0.0
H2528 H 0.13491 0.54294 0.27456 0.0
H2529 H 0.08938 0.53523 0.23869 0.0
H2530 H 0.13635 0.49806 0.29206 0.0
H2531 H 0.15168 0.49967 0.27328 0.0
H2532 H 0.14968 0.51848 0.28892 0.0
H2533 H 0.07687 0.50666 0.23248 0.0
H2534 H 0.09474 0.49019 0.22956 0.0
H2535 H 0.08069 0.48933 0.2494 0.0
H2536 H 0.13347 0.44834 0.23596 0.0
H2537 H 0.09894 0.44597 0.28302 0.0
H2538 H 0.14639 0.49514 0.24056 0.0
H2539 H 0.12826 0.4918 0.22466 0.0
H2540 H 0.14659 0.47563 0.22565 0.0
H2541 H 0.10425 0.49285 0.29628 0.0
H2542 H 0.09131 0.47226 0.29988 0.0
H2543 H 0.08414 0.48873 0.28322 0.0
C2544 C 0.45453 0.88938 0.75584 0.0
C2545 C 0.44354 0.89219 0.74052 0.0
C2546 C 0.47352 0.88873 0.75429 0.0
C2547 C 0.48172 0.89114 0.73703 0.0
C2548 C 0.47069 0.8937 0.72146 0.0
C2549 C 0.45169 0.89411 0.72338 0.0
C2550 C 0.48483 0.88581 0.7712 0.0
C2551 C 0.47896 0.89646 0.70286 0.0
C2552 C 0.53018 0.90879 0.73857 0.0
C2553 C 0.54021 0.89278 0.73621 0.0
C2554 C 0.51112 0.90854 0.73818 0.0
C2555 C 0.50188 0.89183 0.73552 0.0
C2556 C 0.51194 0.8757 0.73253 0.0
C2557 C 0.53103 0.87638 0.73283 0.0
C2558 C 0.50087 0.92607 0.74122 0.0
C2559 C 0.50255 0.85762 0.72975 0.0
H2560 H 0.44827 0.8878 0.7691 0.0
H2561 H 0.44323 0.8963 0.7115 0.0
H2562 H 0.49413 0.8741 0.76924 0.0
H2563 H 0.49341 0.89798 0.7738 0.0
H2564 H 0.47633 0.88322 0.78342 0.0
H2565 H 0.46848 0.89746 0.69201 0.0
H2566 H 0.48722 0.90912 0.7028 0.0
H2567 H 0.48825 0.88506 0.69955 0.0
H2568 H 0.53723 0.92152 0.7411 0.0
H2569 H 0.53875 0.86396 0.73104 0.0
H2570 H 0.49324 0.92529 0.75422 0.0
H2571 H 0.49078 0.92817 0.73019 0.0
H2572 H 0.51006 0.93808 0.74176 0.0
H2573 H 0.49513 0.85378 0.74233 0.0
H2574 H 0.51228 0.84659 0.72637 0.0
H2575 H 0.49235 0.85863 0.71868 0.0
C2576 C 0.08395 0.46401 0.73787 0.0
C2577 C 0.10057 0.45478 0.73904 0.0
C2578 C 0.08341 0.48305 0.73672 0.0
C2579 C 0.09989 0.49306 0.73701 0.0
C2580 C 0.11672 0.48377 0.73756 0.0
C2581 C 0.11686 0.4647 0.73845 0.0
C2582 C 0.0652 0.49246 0.73591 0.0
C2583 C 0.13456 0.49399 0.73806 0.0
C2584 C 0.09909 0.54308 0.72384 0.0
C2585 C 0.09793 0.55148 0.74094 0.0
C2586 C 0.09978 0.52404 0.7223 0.0
C2587 C 0.09943 0.51324 0.73824 0.0
C2588 C 0.0984 0.52169 0.75553 0.0
C2589 C 0.0976 0.5407 0.75665 0.0
C2590 C 0.10075 0.51548 0.70366 0.0
C2591 C 0.09809 0.51065 0.77285 0.0
H2592 H 0.07132 0.45637 0.7382 0.0
H2593 H 0.12974 0.4576 0.7394 0.0
H2594 H 0.06293 0.50019 0.74868 0.0
H2595 H 0.06495 0.50238 0.72454 0.0
H2596 H 0.05378 0.48269 0.7341 0.0
H2597 H 0.14646 0.48476 0.73711 0.0
H2598 H 0.13525 0.50393 0.72673 0.0
H2599 H 0.13558 0.5018 0.75094 0.0
H2600 H 0.09933 0.55138 0.71166 0.0
H2601 H 0.09676 0.54714 0.7699 0.0
H2602 H 0.08884 0.50642 0.70153 0.0
H2603 H 0.11311 0.50692 0.70256 0.0
H2604 H 0.10103 0.52579 0.69262 0.0
H2605 H 0.08604 0.50153 0.77293 0.0
H2606 H 0.09764 0.51934 0.78522 0.0
H2607 H 0.11034 0.50189 0.77359 0.0
C2608 C 0.46368 0.12322 0.73679 0.0
C2609 C 0.45546 0.10653 0.74108 0.0
C2610 C 0.48268 0.12471 0.73522 0.0
C2611 C 0.49362 0.10913 0.73803 0.0
C2612 C 0.4853 0.09209 0.7415 0.0
C2613 C 0.46632 0.091 0.74297 0.0
C2614 C 0.49106 0.14308 0.7314 0.0
C2615 C 0.49648 0.07515 0.74454 0.0
C2616 C 0.54371 0.10731 0.72539 0.0
C2617 C 0.55195 0.10983 0.74242 0.0
C2618 C 0.52468 0.10779 0.72354 0.0
C2619 C 0.51375 0.11082 0.7391 0.0
C2620 C 0.52207 0.11412 0.75616 0.0
C2621 C 0.54106 0.11359 0.7576 0.0
C2622 C 0.51628 0.10432 0.70511 0.0
C2623 C 0.5109 0.11745 0.77308 0.0
H2624 H 0.45533 0.13525 0.73525 0.0
H2625 H 0.46003 0.07804 0.74618 0.0
H2626 H 0.49829 0.14801 0.74371 0.0
H2627 H 0.50126 0.14203 0.72033 0.0
H2628 H 0.4807 0.15334 0.7275 0.0
H2629 H 0.4879 0.06274 0.74567 0.0
H2630 H 0.50627 0.07324 0.73322 0.0
H2631 H 0.50451 0.07662 0.75725 0.0
H2632 H 0.55208 0.10444 0.7136 0.0
H2633 H 0.54737 0.11564 0.77079 0.0
H2634 H 0.50605 0.11493 0.70193 0.0
H2635 H 0.50907 0.09104 0.70524 0.0
H2636 H 0.52662 0.10408 0.69409 0.0
H2637 H 0.50111 0.12867 0.77074 0.0
H2638 H 0.51947 0.12096 0.78504 0.0
H2639 H 0.50287 0.10508 0.77638 0.0
C2640 C 0.89622 0.53094 0.72734 0.0
C2641 C 0.88125 0.54116 0.73319 0.0
C2642 C 0.89534 0.51191 0.72648 0.0
C2643 C 0.87911 0.5029 0.73169 0.0
C2644 C 0.86354 0.51321 0.73632 0.0
C2645 C 0.86478 0.53227 0.73699 0.0
C2646 C 0.91221 0.50143 0.72131 0.0
C2647 C 0.84597 0.5041 0.74186 0.0
C2648 C 0.87705 0.45183 0.72337 0.0
C2649 C 0.8833 0.44514 0.74011 0.0
C2650 C 0.87505 0.47063 0.72051 0.0
C2651 C 0.87936 0.48291 0.73474 0.0
C2652 C 0.88504 0.47613 0.75184 0.0
C2653 C 0.88698 0.45735 0.75429 0.0
C2654 C 0.86896 0.47738 0.70211 0.0
C2655 C 0.88965 0.48875 0.76743 0.0
H2656 H 0.90893 0.53777 0.72422 0.0
H2657 H 0.85315 0.54012 0.74146 0.0
H2658 H 0.91786 0.49468 0.73356 0.0
H2659 H 0.90887 0.49063 0.7113 0.0
H2660 H 0.9229 0.51038 0.71544 0.0
H2661 H 0.83446 0.51385 0.74231 0.0
H2662 H 0.84249 0.4929 0.73234 0.0
H2663 H 0.8476 0.49803 0.75558 0.0
H2664 H 0.8742 0.44241 0.71237 0.0
H2665 H 0.8917 0.45224 0.76729 0.0
H2666 H 0.88031 0.48475 0.69542 0.0
H2667 H 0.85757 0.48714 0.70362 0.0
H2668 H 0.86453 0.46609 0.69305 0.0
H2669 H 0.90153 0.49732 0.76373 0.0
H2670 H 0.89294 0.48125 0.78013 0.0
H2671 H 0.8781 0.49802 0.7702 0.0
C2672 C 0.26634 0.53597 0.12065 0.0
C2673 C 0.26117 0.54291 0.10365 0.0
C2674 C 0.26733 0.51709 0.12361 0.0
C2675 C 0.26309 0.50498 0.10921 0.0
C2676 C 0.25853 0.51198 0.09186 0.0
C2677 C 0.2576 0.53083 0.08932 0.0
C2678 C 0.27225 0.51012 0.14227 0.0
C2679 C 0.25401 0.49954 0.0761 0.0
C2680 C 0.27527 0.45482 0.10859 0.0
C2681 C 0.25831 0.4468 0.1121 0.0
C2682 C 0.27736 0.47384 0.10865 0.0
C2683 C 0.26213 0.485 0.11234 0.0
C2684 C 0.24527 0.4769 0.117 0.0
C2685 C 0.24356 0.4579 0.11678 0.0
C2686 C 0.29557 0.48196 0.10368 0.0
C2687 C 0.22872 0.48831 0.12115 0.0
H2688 H 0.26912 0.54527 0.13177 0.0
H2689 H 0.2537 0.53612 0.07611 0.0
H2690 H 0.26026 0.50333 0.14846 0.0
H2691 H 0.2832 0.49981 0.14129 0.0
H2692 H 0.27681 0.52121 0.1515 0.0
H2693 H 0.25177 0.50714 0.06324 0.0
H2694 H 0.26516 0.48963 0.07393 0.0
H2695 H 0.24152 0.49165 0.07924 0.0
H2696 H 0.28673 0.44629 0.10502 0.0
H2697 H 0.23044 0.45176 0.11966 0.0
H2698 H 0.29932 0.49295 0.11334 0.0
H2699 H 0.29473 0.48813 0.08994 0.0
H2700 H 0.30655 0.47161 0.10359 0.0
H2701 H 0.23207 0.49894 0.13134 0.0
H2702 H 0.21722 0.48 0.12639 0.0
H2703 H 0.22419 0.49534 0.10859 0.0
C2704 C 0.2593 0.54502 0.86434 0.0
C2705 C 0.26215 0.5537 0.8811 0.0
C2706 C 0.26075 0.52603 0.86276 0.0
C2707 C 0.26491 0.51554 0.87837 0.0
C2708 C 0.26881 0.52436 0.89506 0.0
C2709 C 0.26747 0.54335 0.89619 0.0
C2710 C 0.25679 0.51713 0.84467 0.0
C2711 C 0.27319 0.51368 0.91205 0.0
C2712 C 0.24411 0.46866 0.88326 0.0
C2713 C 0.25919 0.45731 0.88073 0.0
C2714 C 0.24575 0.48759 0.88201 0.0
C2715 C 0.26289 0.49541 0.87796 0.0
C2716 C 0.27805 0.48402 0.87469 0.0
C2717 C 0.27605 0.46505 0.87622 0.0
C2718 C 0.22924 0.49924 0.88569 0.0
C2719 C 0.29646 0.4919 0.87008 0.0
H2720 H 0.25532 0.55298 0.85259 0.0
H2721 H 0.26977 0.55 0.90916 0.0
H2722 H 0.26713 0.50662 0.84155 0.0
H2723 H 0.24337 0.51021 0.84526 0.0
H2724 H 0.25649 0.52717 0.83338 0.0
H2725 H 0.27759 0.52261 0.92344 0.0
H2726 H 0.26096 0.50597 0.91644 0.0
H2727 H 0.28408 0.50365 0.90929 0.0
H2728 H 0.23102 0.46276 0.88671 0.0
H2729 H 0.28773 0.45631 0.87418 0.0
H2730 H 0.22674 0.50852 0.87406 0.0
H2731 H 0.23169 0.50783 0.89787 0.0
H2732 H 0.21678 0.49099 0.88803 0.0
H2733 H 0.29525 0.50178 0.85874 0.0
H2734 H 0.30639 0.48122 0.86618 0.0
H2735 H 0.30191 0.49941 0.882 0.0
C2736 C 0.45907 0.26697 0.91012 0.0
C2737 C 0.44912 0.25912 0.89584 0.0
C2738 C 0.47817 0.2672 0.90982 0.0
C2739 C 0.48749 0.25942 0.89487 0.0
C2740 C 0.47748 0.2522 0.88006 0.0
C2741 C 0.45841 0.25212 0.88073 0.0
C2742 C 0.48837 0.27506 0.92586 0.0
C2743 C 0.48692 0.24385 0.86384 0.0
C2744 C 0.5379 0.2692 0.88837 0.0
C2745 C 0.54578 0.2535 0.89579 0.0
C2746 C 0.51892 0.27139 0.88803 0.0
C2747 C 0.50762 0.25758 0.89532 0.0
C2748 C 0.51553 0.24176 0.9029 0.0
C2749 C 0.53451 0.23991 0.90302 0.0
C2750 C 0.51096 0.28841 0.8798 0.0
C2751 C 0.50394 0.22674 0.91085 0.0
H2752 H 0.45195 0.27242 0.92183 0.0
H2753 H 0.45078 0.24609 0.86962 0.0
H2754 H 0.49571 0.26403 0.93306 0.0
H2755 H 0.4987 0.28502 0.92116 0.0
H2756 H 0.47917 0.2819 0.93569 0.0
H2757 H 0.47723 0.24015 0.85283 0.0
H2758 H 0.49719 0.25342 0.85826 0.0
H2759 H 0.49425 0.23139 0.86813 0.0
H2760 H 0.54656 0.27975 0.88276 0.0
H2761 H 0.54053 0.22777 0.90881 0.0
H2762 H 0.50242 0.29554 0.88999 0.0
H2763 H 0.50199 0.28478 0.8682 0.0
H2764 H 0.52162 0.29796 0.87489 0.0
H2765 H 0.49526 0.23222 0.9219 0.0
H2766 H 0.51223 0.21542 0.91642 0.0
H2767 H 0.49474 0.22117 0.90024 0.0
C2768 C 0.72817 0.53958 0.88466 0.0
C2769 C 0.74061 0.54639 0.89744 0.0
C2770 C 0.72596 0.52074 0.88218 0.0
C2771 C 0.7363 0.50854 0.89288 0.0
C2772 C 0.74853 0.51539 0.90611 0.0
C2773 C 0.7506 0.53423 0.90815 0.0
C2774 C 0.71293 0.5139 0.86783 0.0
C2775 C 0.7597 0.50283 0.91791 0.0
C2776 C 0.72417 0.45869 0.89897 0.0
C2777 C 0.73748 0.45036 0.88819 0.0
C2778 C 0.72297 0.47774 0.89998 0.0
C2779 C 0.73522 0.48859 0.88976 0.0
C2780 C 0.74788 0.48018 0.87797 0.0
C2781 C 0.74895 0.46116 0.87744 0.0
C2782 C 0.70939 0.48622 0.91281 0.0
C2783 C 0.76099 0.49125 0.86664 0.0
H2784 H 0.72042 0.54897 0.87636 0.0
H2785 H 0.76014 0.53943 0.91815 0.0
H2786 H 0.72057 0.50651 0.85712 0.0
H2787 H 0.70314 0.50411 0.87387 0.0
H2788 H 0.70519 0.52512 0.86133 0.0
H2789 H 0.76783 0.51034 0.92823 0.0
H2790 H 0.75069 0.49304 0.92505 0.0
H2791 H 0.76913 0.49482 0.9093 0.0
H2792 H 0.71529 0.45036 0.90731 0.0
H2793 H 0.75914 0.45473 0.86895 0.0
H2794 H 0.70179 0.49725 0.9059 0.0
H2795 H 0.7167 0.49242 0.92448 0.0
H2796 H 0.69951 0.47609 0.91815 0.0
H2797 H 0.75364 0.5021 0.85917 0.0
H2798 H 0.76848 0.48274 0.85665 0.0
H2799 H 0.77104 0.498 0.87567 0.0
C2800 C 0.46305 0.72517 0.89742 0.0
C2801 C 0.45338 0.7322 0.88257 0.0
C2802 C 0.48211 0.72496 0.89746 0.0
C2803 C 0.49169 0.73182 0.88222 0.0
C2804 C 0.48198 0.7375 0.86659 0.0
C2805 C 0.46289 0.73768 0.86697 0.0
C2806 C 0.49195 0.71876 0.91439 0.0
C2807 C 0.49171 0.74466 0.84998 0.0
C2808 C 0.53618 0.75565 0.89282 0.0
C2809 C 0.54899 0.74224 0.88853 0.0
C2810 C 0.51753 0.75244 0.89059 0.0
C2811 C 0.51153 0.73545 0.8837 0.0
C2812 C 0.52441 0.72198 0.87895 0.0
C2813 C 0.54304 0.7255 0.88153 0.0
C2814 C 0.50423 0.76713 0.89597 0.0
C2815 C 0.51849 0.70382 0.87135 0.0
H2816 H 0.45576 0.7208 0.90947 0.0
H2817 H 0.45547 0.74301 0.8554 0.0
H2818 H 0.50326 0.70946 0.91085 0.0
H2819 H 0.49797 0.73074 0.92137 0.0
H2820 H 0.48272 0.71171 0.92407 0.0
H2821 H 0.48248 0.74576 0.83807 0.0
H2822 H 0.49733 0.75836 0.85297 0.0
H2823 H 0.5033 0.73573 0.84634 0.0
H2824 H 0.54072 0.76861 0.89825 0.0
H2825 H 0.55293 0.71513 0.87813 0.0
H2826 H 0.49513 0.76204 0.9069 0.0
H2827 H 0.49553 0.77076 0.88419 0.0
H2828 H 0.51115 0.77965 0.9009 0.0
H2829 H 0.51033 0.69637 0.88164 0.0
H2830 H 0.53023 0.69521 0.86736 0.0
H2831 H 0.50966 0.70584 0.85929 0.0
C2832 C 0.7605 0.53663 0.10617 0.0
C2833 C 0.74604 0.54756 0.11199 0.0
C2834 C 0.75892 0.51763 0.10589 0.0
C2835 C 0.74238 0.50937 0.11134 0.0
C2836 C 0.72774 0.52032 0.11731 0.0
C2837 C 0.72979 0.53933 0.11768 0.0
C2838 C 0.77493 0.50641 0.09963 0.0
C2839 C 0.70984 0.51198 0.12301 0.0
C2840 C 0.73563 0.462 0.09208 0.0
C2841 C 0.74125 0.45109 0.10665 0.0
C2842 C 0.73503 0.481 0.09374 0.0
C2843 C 0.74044 0.48926 0.11029 0.0
C2844 C 0.74546 0.47826 0.12528 0.0
C2845 C 0.74568 0.45927 0.12331 0.0
C2846 C 0.72935 0.49225 0.07753 0.0
C2847 C 0.75148 0.48658 0.14309 0.0
H2848 H 0.77313 0.54293 0.10185 0.0
H2849 H 0.71857 0.54777 0.12215 0.0
H2850 H 0.77869 0.4964 0.11028 0.0
H2851 H 0.7712 0.49861 0.08724 0.0
H2852 H 0.78705 0.51491 0.0965 0.0
H2853 H 0.69992 0.52237 0.12765 0.0
H2854 H 0.70382 0.50436 0.11144 0.0
H2855 H 0.71205 0.50209 0.13418 0.0
H2856 H 0.73207 0.45571 0.07921 0.0
H2857 H 0.75007 0.45086 0.1346 0.0
H2858 H 0.74124 0.49997 0.0723 0.0
H2859 H 0.71888 0.50232 0.08156 0.0
H2860 H 0.72383 0.48373 0.06631 0.0
H2861 H 0.76449 0.49399 0.14107 0.0
H2862 H 0.75348 0.47618 0.15386 0.0
H2863 H 0.74132 0.49662 0.14791 0.0
C2864 C 0.54149 0.72671 0.09456 0.0
C2865 C 0.55105 0.73018 0.11071 0.0
C2866 C 0.52244 0.72596 0.09437 0.0
C2867 C 0.51272 0.72863 0.11078 0.0
C2868 C 0.52233 0.73082 0.12734 0.0
C2869 C 0.54143 0.73164 0.12711 0.0
C2870 C 0.51272 0.72361 0.07641 0.0
C2871 C 0.51245 0.73346 0.14514 0.0
C2872 C 0.46703 0.75171 0.10535 0.0
C2873 C 0.45494 0.73696 0.10604 0.0
C2874 C 0.4858 0.74917 0.10728 0.0
C2875 C 0.4927 0.73143 0.11013 0.0
C2876 C 0.48054 0.7165 0.11134 0.0
C2877 C 0.46176 0.71943 0.10919 0.0
C2878 C 0.49831 0.76545 0.10579 0.0
C2879 C 0.48739 0.69744 0.11456 0.0
H2880 H 0.54886 0.72546 0.08184 0.0
H2881 H 0.54876 0.73424 0.13965 0.0
H2882 H 0.502 0.71303 0.0775 0.0
H2883 H 0.50594 0.73655 0.07266 0.0
H2884 H 0.52217 0.71978 0.06526 0.0
H2885 H 0.52172 0.73226 0.15701 0.0
H2886 H 0.50617 0.74717 0.1454 0.0
H2887 H 0.50132 0.72334 0.14658 0.0
H2888 H 0.46184 0.76529 0.10295 0.0
H2889 H 0.45245 0.70799 0.10982 0.0
H2890 H 0.50755 0.76373 0.09398 0.0
H2891 H 0.50693 0.76656 0.11813 0.0
H2892 H 0.49073 0.77839 0.10407 0.0
H2893 H 0.49568 0.69297 0.10278 0.0
H2894 H 0.47611 0.68754 0.11653 0.0
H2895 H 0.49634 0.69712 0.12672 0.0
C2896 C 0.53908 0.2599 0.13439 0.0
C2897 C 0.54664 0.26716 0.11845 0.0
C2898 C 0.52015 0.25893 0.1367 0.0
C2899 C 0.50859 0.26532 0.1227 0.0
C2900 C 0.51618 0.27396 0.10724 0.0
C2901 C 0.53514 0.27479 0.10531 0.0
C2902 C 0.51258 0.24982 0.15348 0.0
C2903 C 0.50432 0.28104 0.09205 0.0
C2904 C 0.46425 0.24053 0.11378 0.0
C2905 C 0.45138 0.25288 0.12044 0.0
C2906 C 0.48291 0.24426 0.1149 0.0
C2907 C 0.48888 0.26075 0.12292 0.0
C2908 C 0.47599 0.27303 0.13023 0.0
C2909 C 0.45735 0.26895 0.12888 0.0
C2910 C 0.49621 0.23077 0.10699 0.0
C2911 C 0.48187 0.29068 0.13898 0.0
H2912 H 0.54792 0.25408 0.14465 0.0
H2913 H 0.54092 0.28053 0.09301 0.0
H2914 H 0.501 0.25769 0.15907 0.0
H2915 H 0.50737 0.23611 0.14982 0.0
H2916 H 0.52305 0.24825 0.16426 0.0
H2917 H 0.51215 0.28935 0.08213 0.0
H2918 H 0.49808 0.26941 0.08468 0.0
H2919 H 0.49309 0.28943 0.09759 0.0
H2920 H 0.45972 0.22806 0.1073 0.0
H2921 H 0.44744 0.27853 0.13407 0.0
H2922 H 0.50635 0.22677 0.11742 0.0
H2923 H 0.50377 0.23715 0.09558 0.0
H2924 H 0.48938 0.21828 0.10184 0.0
H2925 H 0.49241 0.2881 0.14947 0.0
H2926 H 0.47032 0.29797 0.14539 0.0
H2927 H 0.48807 0.29968 0.12857 0.0
C2928 C 0.61965 0.74553 0.04055 0.0
C2929 C 0.61065 0.75812 0.05166 0.0
C2930 C 0.61939 0.74722 0.02158 0.0
C2931 C 0.6097 0.76174 0.01351 0.0
C2932 C 0.60115 0.77489 0.02468 0.0
C2933 C 0.60181 0.77298 0.04368 0.0
C2934 C 0.62889 0.73303 0.01015 0.0
C2935 C 0.59061 0.7905 0.01654 0.0
C2936 C 0.61894 0.77026 0.9634 0.0
C2937 C 0.60507 0.76 0.95522 0.0
C2938 C 0.62035 0.77144 0.98242 0.0
C2939 C 0.60747 0.76226 0.99343 0.0
C2940 C 0.59307 0.75242 0.9852 0.0
C2941 C 0.59209 0.75134 0.96619 0.0
C2942 C 0.63597 0.78193 0.99073 0.0
C2943 C 0.57897 0.74258 0.99648 0.0
H2944 H 0.62662 0.73409 0.0467 0.0
H2945 H 0.59481 0.78271 0.05226 0.0
H2946 H 0.61866 0.72507 0.00238 0.0
H2947 H 0.63803 0.73966 0.00013 0.0
H2948 H 0.63703 0.72347 0.01853 0.0
H2949 H 0.58609 0.8004 0.02703 0.0
H2950 H 0.599 0.79776 0.00631 0.0
H2951 H 0.57843 0.78515 0.00938 0.0
H2952 H 0.629 0.77698 0.95495 0.0
H2953 H 0.58127 0.7435 0.95991 0.0
H2954 H 0.64514 0.77242 0.99799 0.0
H2955 H 0.63084 0.79182 0.0009 0.0
H2956 H 0.64402 0.7894 0.98034 0.0
H2957 H 0.58554 0.73144 0.00423 0.0
H2958 H 0.56793 0.73665 0.98801 0.0
H2959 H 0.57284 0.75202 0.00653 0.0
C2960 C 0.24118 0.62951 0.9539 0.0
C2961 C 0.2347 0.61432 0.94431 0.0
C2962 C 0.24098 0.62988 0.973 0.0
C2963 C 0.23423 0.61465 0.98269 0.0
C2964 C 0.22665 0.59976 0.97304 0.0
C2965 C 0.22695 0.5998 0.95395 0.0
C2966 C 0.24903 0.64608 0.98278 0.0
C2967 C 0.21932 0.58326 0.98286 0.0
C2968 C 0.25609 0.60337 0.02797 0.0
C2969 C 0.24274 0.60887 0.04041 0.0
C2970 C 0.25352 0.60541 0.0092 0.0
C2971 C 0.2372 0.61323 0.00266 0.0
C2972 C 0.22377 0.61912 0.01514 0.0
C2973 C 0.22668 0.61683 0.03392 0.0
C2974 C 0.26818 0.59892 0.99636 0.0
C2975 C 0.20626 0.62761 0.00864 0.0
H2976 H 0.24709 0.64083 0.9465 0.0
H2977 H 0.22185 0.58805 0.94661 0.0
H2978 H 0.23996 0.65054 0.99398 0.0
H2979 H 0.26223 0.64219 0.98896 0.0
H2980 H 0.25139 0.65775 0.97347 0.0
H2981 H 0.21206 0.57381 0.97353 0.0
H2982 H 0.23073 0.5758 0.9893 0.0
H2983 H 0.20988 0.5874 0.99386 0.0
H2984 H 0.26854 0.59722 0.03289 0.0
H2985 H 0.21633 0.62112 0.04349 0.0
H2986 H 0.27276 0.61027 0.98753 0.0
H2987 H 0.26266 0.58812 0.98734 0.0
H2988 H 0.28019 0.59341 0.00367 0.0
H2989 H 0.20925 0.63942 -0.00027 0.0
H2990 H 0.19756 0.63222 0.02009 0.0
H2991 H 0.19848 0.61763 0.00038 0.0
C2992 C 0.40411 0.24718 0.04218 0.0
C2993 C 0.39238 0.23716 0.05339 0.0
C2994 C 0.40273 0.24624 0.02319 0.0
C2995 C 0.38927 0.23499 0.01519 0.0
C2996 C 0.37757 0.22456 0.02642 0.0
C2997 C 0.37926 0.22578 0.04544 0.0
C2998 C 0.41547 0.25759 0.0117 0.0
C2999 C 0.36311 0.21238 0.01834 0.0
C3000 C 0.37597 0.24937 0.96753 0.0
C3001 C 0.38699 0.23809 0.95684 0.0
C3002 C 0.37593 0.24791 0.98656 0.0
C3003 C 0.38715 0.23481 0.99507 0.0
C3004 C 0.39762 0.22277 0.9843 0.0
C3005 C 0.39744 0.22458 0.96528 0.0
C3006 C 0.36458 0.26101 0.99756 0.0
C3007 C 0.40966 0.20856 0.99289 0.0
H3008 H 0.41432 0.25597 0.04824 0.0
H3009 H 0.37018 0.21799 0.05407 0.0
H3010 H 0.42297 0.24876 0.00204 0.0
H3011 H 0.40754 0.26746 0.00351 0.0
H3012 H 0.42552 0.26524 0.02004 0.0
H3013 H 0.35571 0.20448 0.0289 0.0
H3014 H 0.35314 0.22069 0.01068 0.0
H3015 H 0.36931 0.20273 0.00854 0.0
H3016 H 0.3678 0.25979 0.96108 0.0
H3017 H 0.40593 0.21576 0.95707 0.0
H3018 H 0.37365 0.27036 0.00524 0.0
H3019 H 0.35622 0.25353 0.00766 0.0
H3020 H 0.35542 0.2693 0.98887 0.0
H3021 H 0.42111 0.21533 8e-05 0.0
H3022 H 0.41537 0.19902 0.98267 0.0
H3023 H 0.40195 0.20062 0.00316 0.0
C3024 C 0.77748 0.38355 0.0358 0.0
C3025 C 0.76024 0.38752 0.04291 0.0
C3026 C 0.78026 0.38242 0.01689 0.0
C3027 C 0.76547 0.38541 0.00493 0.0
C3028 C 0.74797 0.38902 0.0121 0.0
C3029 C 0.74558 0.38999 0.03098 0.0
C3030 C 0.79907 0.37842 0.00972 0.0
C3031 C 0.73181 0.3923 -0.00017 0.0
C3032 C 0.77053 0.4033 0.95695 0.0
C3033 C 0.76588 0.38793 0.94663 0.0
C3034 C 0.77168 0.40238 0.97597 0.0
C3035 C 0.76814 0.38567 0.98487 0.0
C3036 C 0.76476 0.36981 0.97443 0.0
C3037 C 0.76363 0.37114 0.9554 0.0
C3038 C 0.77537 0.41961 0.98658 0.0
C3039 C 0.7611 0.3517 0.9834 0.0
H3040 H 0.78885 0.38159 0.04498 0.0
H3041 H 0.73221 0.39301 0.03638 0.0
H3042 H 0.79858 0.36685 3e-05 0.0
H3043 H 0.80429 0.39039 0.00214 0.0
H3044 H 0.80882 0.37514 0.02078 0.0
H3045 H 0.71903 0.39441 0.00759 0.0
H3046 H 0.73431 0.4045 0.99129 0.0
H3047 H 0.72986 0.38059 0.9905 0.0
H3048 H 0.7724 0.4163 0.95023 0.0
H3049 H 0.76014 0.35918 0.94748 0.0
H3050 H 0.78585 0.41721 0.99716 0.0
H3051 H 0.76275 0.42392 0.99364 0.0
H3052 H 0.77999 0.43092 0.97768 0.0
H3053 H 0.7712 0.34905 0.9943 0.0
H3054 H 0.76147 0.34029 0.97349 0.0
H3055 H 0.74746 0.35194 0.98984 0.0
C3056 C 0.60684 0.25635 0.96426 0.0
C3057 C 0.60734 0.24086 0.95316 0.0
C3058 C 0.60726 0.25485 0.98326 0.0
C3059 C 0.60818 0.23741 0.99137 0.0
C3060 C 0.60912 0.22172 0.98024 0.0
C3061 C 0.60868 0.22363 0.96122 0.0
C3062 C 0.60625 0.27194 0.99466 0.0
C3063 C 0.61016 0.20292 0.98842 0.0
C3064 C 0.62181 0.2381 0.04118 0.0
C3065 C 0.60475 0.23828 0.04971 0.0
C3066 C 0.62322 0.23685 0.02216 0.0
C3067 C 0.6072 0.23577 0.0115 0.0
C3068 C 0.59001 0.23492 0.02014 0.0
C3069 C 0.589 0.23618 0.03914 0.0
C3070 C 0.64179 0.23768 0.01344 0.0
C3071 C 0.57261 0.23371 0.00927 0.0
H3072 H 0.60588 0.26972 0.95811 0.0
H3073 H 0.6091 0.21161 0.95267 0.0
H3074 H 0.59363 0.27177 0.00294 0.0
H3075 H 0.61791 0.27253 0.00423 0.0
H3076 H 0.60632 0.28448 0.98624 0.0
H3077 H 0.61199 0.1922 0.97792 0.0
H3078 H 0.62161 0.20216 0.99823 0.0
H3079 H 0.5975 0.19998 0.99609 0.0
H3080 H 0.63403 0.23966 0.04929 0.0
H3081 H 0.57578 0.23621 0.04568 0.0
H3082 H 0.64344 0.25088 0.0063 0.0
H3083 H 0.64324 0.22677 0.00311 0.0
H3084 H 0.65291 0.23634 0.02358 0.0
H3085 H 0.57061 0.24652 0.00155 0.0
H3086 H 0.56052 0.23146 0.01806 0.0
H3087 H 0.5734 0.22247 0.99923 0.0
C3088 C 0.77568 0.60916 0.04724 0.0
C3089 C 0.76045 0.6161 0.05636 0.0
C3090 C 0.7767 0.60956 0.02817 0.0
C3091 C 0.76219 0.61717 0.01806 0.0
C3092 C 0.74738 0.62528 0.02728 0.0
C3093 C 0.74666 0.62459 0.04633 0.0
C3094 C 0.79272 0.60078 0.01884 0.0
C3095 C 0.73171 0.63367 0.017 0.0
C3096 C 0.76666 0.62512 0.96707 0.0
C3097 C 0.75757 0.60982 0.96012 0.0
C3098 C 0.76853 0.62767 0.98595 0.0
C3099 C 0.76127 0.61452 0.99803 0.0
C3100 C 0.75245 0.59888 0.99102 0.0
C3101 C 0.75064 0.59677 0.97217 0.0
C3102 C 0.77791 0.64456 0.99297 0.0
C3103 C 0.74466 0.58444 0.00342 0.0
H3104 H 0.78642 0.60264 0.05495 0.0
H3105 H 0.73493 0.63012 0.05333 0.0
H3106 H 0.78826 0.58788 0.01234 0.0
H3107 H 0.7981 0.60971 0.00793 0.0
H3108 H 0.80391 0.59767 0.02851 0.0
H3109 H 0.72244 0.64137 0.0261 0.0
H3110 H 0.73682 0.64297 0.00627 0.0
H3111 H 0.72375 0.62279 0.01017 0.0
H3112 H 0.77202 0.63524 0.95777 0.0
H3113 H 0.74371 0.58486 0.96687 0.0
H3114 H 0.78913 0.6408 0.00233 0.0
H3115 H 0.76813 0.65287 0.00089 0.0
H3116 H 0.78354 0.65305 0.98181 0.0
H3117 H 0.75538 0.57925 0.01268 0.0
H3118 H 0.73882 0.57277 0.99576 0.0
H3119 H 0.7338 0.5904 0.01203 0.0
C3120 C 0.37901 0.76021 0.95397 0.0
C3121 C 0.39472 0.7652 0.94438 0.0
C3122 C 0.37881 0.76014 0.97306 0.0
C3123 C 0.39464 0.76539 0.98273 0.0
C3124 C 0.41009 0.7717 0.9731 0.0
C3125 C 0.40998 0.77143 0.95401 0.0
C3126 C 0.36209 0.75325 0.98283 0.0
C3127 C 0.42713 0.77769 0.98293 0.0
C3128 C 0.39105 0.77286 0.03381 0.0
C3129 C 0.39757 0.75625 0.04054 0.0
C3130 C 0.39017 0.77616 0.01501 0.0
C3131 C 0.39571 0.76242 0.00271 0.0
C3132 C 0.40226 0.74562 0.00947 0.0
C3133 C 0.40323 0.7428 0.0283 0.0
C3134 C 0.38335 0.79431 0.0083 0.0
C3135 C 0.40814 0.73056 0.99679 0.0
H3136 H 0.36718 0.75537 0.94659 0.0
H3137 H 0.42214 0.77539 0.94665 0.0
H3138 H 0.36512 0.73992 0.98921 0.0
H3139 H 0.35816 0.76273 0.99389 0.0
H3140 H 0.35033 0.75151 0.97349 0.0
H3141 H 0.43701 0.78438 0.97365 0.0
H3142 H 0.42374 0.78725 0.9941 0.0
H3143 H 0.4338 0.76568 0.98916 0.0
H3144 H 0.38673 0.78333 0.04326 0.0
H3145 H 0.40822 0.72993 0.03345 0.0
H3146 H 0.37111 0.79232 -0.00031 0.0
H3147 H 0.39386 0.8009 -0.00032 0.0
H3148 H 0.37986 0.80366 0.01964 0.0
H3149 H 0.39671 0.72671 0.98769 0.0
H3150 H 0.41269 0.71824 0.00424 0.0
H3151 H 0.41946 0.73535 0.98803 0.0
C3152 C 0.25955 0.39594 0.03334 0.0
C3153 C 0.24427 0.39175 0.04394 0.0
C3154 C 0.25857 0.39597 0.01431 0.0
C3155 C 0.24181 0.39198 0.00566 0.0
C3156 C 0.22632 0.38769 0.01629 0.0
C3157 C 0.22777 0.38749 0.03535 0.0
C3158 C 0.27545 0.40039 0.00344 0.0
C3159 C 0.20818 0.38363 0.00753 0.0
C3160 C 0.23813 0.41096 0.9579 0.0
C3161 C 0.24234 0.39568 0.9473 0.0
C3162 C 0.23704 0.40972 0.9769 0.0
C3163 C 0.24053 0.39287 0.9855 0.0
C3164 C 0.2442 0.37725 0.97482 0.0
C3165 C 0.24493 0.37883 0.9558 0.0
C3166 C 0.23282 0.42662 0.9878 0.0
C3167 C 0.2482 0.3591 0.98352 0.0
H3168 H 0.27237 0.39911 0.03994 0.0
H3169 H 0.21593 0.38428 0.04353 0.0
H3170 H 0.27836 0.38924 0.99368 0.0
H3171 H 0.27324 0.41294 0.99539 0.0
H3172 H 0.28758 0.40243 0.01224 0.0
H3173 H 0.19753 0.38022 0.0177 0.0
H3174 H 0.2036 0.39559 -0.00044 0.0
H3175 H 0.2095 0.37209 0.99789 0.0
H3176 H 0.23599 0.42399 0.95136 0.0
H3177 H 0.24824 0.367 0.94763 0.0
H3178 H 0.24498 0.43072 0.99579 0.0
H3179 H 0.2217 0.42385 0.99763 0.0
H3180 H 0.22877 0.43821 0.97901 0.0
H3181 H 0.26112 0.36 0.99129 0.0
H3182 H 0.24946 0.34802 0.97331 0.0
H3183 H 0.23732 0.35543 0.99331 0.0
C3184 C 0.03209 0.61661 0.77128 0.0
C3185 C 0.03932 0.61089 0.75458 0.0
C3186 C 0.01322 0.61656 0.77431 0.0
C3187 C 0.00138 0.61058 0.76031 0.0
C3188 C 0.00863 0.60502 0.74336 0.0
C3189 C 0.02749 0.60528 0.74069 0.0
C3190 C 0.00595 0.62269 0.7925 0.0
C3191 C 0.99646 0.59851 0.72809 0.0
C3192 C 0.9544 0.59141 0.76947 0.0
C3193 C 0.94326 0.60556 0.76327 0.0
C3194 C 0.9734 0.59324 0.76956 0.0
C3195 C 0.9814 0.60963 0.76333 0.0
C3196 C 0.97018 0.62437 0.75814 0.0
C3197 C 0.95121 0.62214 0.75815 0.0
C3198 C 0.9849 0.57723 0.77524 0.0
C3199 C 0.9782 0.6421 0.75155 0.0
H3200 H 0.0412 0.62099 0.78204 0.0
H3201 H 0.033 0.60085 0.72775 0.0
H3202 H 0.99592 0.63378 0.79058 0.0
H3203 H 0.99872 0.61127 0.79923 0.0
H3204 H 0.0169 0.62761 0.80171 0.0
H3205 H 0.00425 0.59492 0.71565 0.0
H3206 H 0.98866 0.58637 0.73254 0.0
H3207 H 0.98647 0.60922 0.72455 0.0
H3208 H 0.94832 0.57858 0.77351 0.0
H3209 H 0.94265 0.63315 0.75342 0.0
H3210 H 0.99552 0.58158 0.78506 0.0
H3211 H 0.99197 0.57159 0.76315 0.0
H3212 H 0.97666 0.56622 0.78153 0.0
H3213 H 0.98896 0.64692 0.76099 0.0
H3214 H 0.96775 0.6529 0.75019 0.0
H3215 H 0.98465 0.64 0.73806 0.0
C3216 C 0.39447 0.96507 0.74434 0.0
C3217 C 0.38495 0.95327 0.75591 0.0
C3218 C 0.39435 0.98391 0.74723 0.0
C3219 C 0.38439 0.99117 0.76203 0.0
C3220 C 0.37471 0.97934 0.77377 0.0
C3221 C 0.37514 0.96048 0.77059 0.0
C3222 C 0.40491 0.99605 0.73443 0.0
C3223 C 0.36389 0.98662 0.78962 0.0
C3224 C 0.39946 0.03865 0.77558 0.0
C3225 C 0.38743 0.04941 0.76546 0.0
C3226 C 0.39802 0.0196 0.77542 0.0
C3227 C 0.38417 0.01118 0.76496 0.0
C3228 C 0.37128 0.02205 0.75569 0.0
C3229 C 0.3731 0.04105 0.75601 0.0
C3230 C 0.41201 0.00849 0.78551 0.0
C3231 C 0.35622 0.0136 0.74452 0.0
H3232 H 0.40211 0.95956 0.733 0.0
H3233 H 0.36775 0.9514 0.77957 0.0
H3234 H 0.39557 0.00584 0.72777 0.0
H3235 H 0.4151 0.0041 0.74216 0.0
H3236 H 0.41209 0.98823 0.72369 0.0
H3237 H 0.35713 0.97561 0.79748 0.0
H3238 H 0.37293 0.99438 0.79891 0.0
H3239 H 0.35334 0.99618 0.78465 0.0
H3240 H 0.41054 0.04505 0.78294 0.0
H3241 H 0.3637 0.04932 0.74825 0.0
H3242 H 0.42101 0.00157 0.77557 0.0
H3243 H 0.4053 0.99776 0.79374 0.0
H3244 H 0.42058 0.017 0.79462 0.0
H3245 H 0.3621 0.00695 0.73232 0.0
H3246 H 0.3461 0.02383 0.73996 0.0
H3247 H 0.34907 0.00293 0.75246 0.0
C3248 C 0.03886 0.37246 0.75136 0.0
C3249 C 0.04794 0.38499 0.76254 0.0
C3250 C 0.01986 0.37081 0.75183 0.0
C3251 C 0.00973 0.38205 0.76373 0.0
C3252 C 0.01892 0.39381 0.77595 0.0
C3253 C 0.03797 0.39513 0.77523 0.0
C3254 C 0.0106 0.358 0.73868 0.0
C3255 C 0.0086 0.40596 0.78888 0.0
C3256 C 0.96354 0.3968 0.74648 0.0
C3257 C 0.95175 0.38545 0.75626 0.0
C3258 C 0.9824 0.39589 0.74896 0.0
C3259 C 0.98968 0.3833 0.76156 0.0
C3260 C 0.97786 0.37186 0.7716 0.0
C3261 C 0.95897 0.37305 0.76881 0.0
C3262 C 0.99454 0.40832 0.73794 0.0
C3263 C 0.98517 0.35832 0.78518 0.0
H3264 H 0.04653 0.36447 0.74163 0.0
H3265 H 0.04494 0.40479 0.78395 0.0
H3266 H -0.0 0.34987 0.74573 0.0
H3267 H 0.00373 0.36599 0.72788 0.0
H3268 H 0.02037 0.34855 0.73211 0.0
H3269 H 0.01768 0.41234 0.79916 0.0
H3270 H 0.00181 0.41693 0.78106 0.0
H3271 H 0.99783 0.39816 0.79603 0.0
H3272 H 0.95803 0.40643 0.73677 0.0
H3273 H 0.94988 0.36427 0.77643 0.0
H3274 H 0.00389 0.40012 0.72942 0.0
H3275 H 0.00305 0.41676 0.74715 0.0
H3276 H 0.98668 0.41751 0.7289 0.0
H3277 H 0.99416 0.34843 0.77819 0.0
H3278 H 0.97415 0.35071 0.7922 0.0
H3279 H 0.99355 0.36542 0.79555 0.0
C3280 C 0.61892 0.95742 0.7445 0.0
C3281 C 0.60924 0.94719 0.75737 0.0
C3282 C 0.62011 0.97641 0.74593 0.0
C3283 C 0.61138 0.98536 0.76057 0.0
C3284 C 0.60245 0.97502 0.77415 0.0
C3285 C 0.60149 0.95601 0.77239 0.0
C3286 C 0.62986 0.98695 0.73122 0.0
C3287 C 0.59303 0.98407 0.78999 0.0
C3288 C 0.62247 0.03542 0.76779 0.0
C3289 C 0.6083 0.04378 0.75817 0.0
C3290 C 0.62351 0.01637 0.76905 0.0
C3291 C 0.61 0.00553 0.76055 0.0
C3292 C 0.59542 0.01396 0.75124 0.0
C3293 C 0.59478 0.03297 0.75013 0.0
C3294 C 0.63925 0.00785 0.77907 0.0
C3295 C 0.58069 0.00287 0.74208 0.0
H3296 H 0.62502 0.95065 0.73291 0.0
H3297 H 0.59404 0.94815 0.78241 0.0
H3298 H 0.61983 0.99484 0.72319 0.0
H3299 H 0.63954 0.99682 0.73733 0.0
H3300 H 0.63745 0.97791 0.7218 0.0
H3301 H 0.58856 0.97409 0.80043 0.0
H3302 H 0.60217 0.99419 0.79651 0.0
H3303 H 0.5809 0.99151 0.785 0.0
H3304 H 0.63296 0.04374 0.77402 0.0
H3305 H 0.58374 0.03937 0.74275 0.0
H3306 H 0.64772 -4e-05 0.7694 0.0
H3307 H 0.63417 0.99817 0.78949 0.0
H3308 H 0.64801 0.01816 0.78585 0.0
H3309 H 0.58672 0.99444 0.73111 0.0
H3310 H 0.5699 0.01154 0.73605 0.0
H3311 H 0.57432 0.99346 0.75201 0.0
C3312 C 0.96714 0.39445 0.2532 0.0
C3313 C 0.95549 0.39366 0.23812 0.0
C3314 C 0.98599 0.39253 0.25115 0.0
C3315 C 0.99339 0.38968 0.23359 0.0
C3316 C 0.98167 0.38849 0.21835 0.0
C3317 C 0.96282 0.39054 0.22079 0.0
C3318 C 0.99803 0.39393 0.26776 0.0
C3319 C 0.98907 0.38537 0.19945 0.0
C3320 C 0.04259 0.40454 0.22956 0.0
C3321 C 0.05182 0.38817 0.23267 0.0
C3322 C 0.02354 0.40507 0.22887 0.0
C3323 C 0.01348 0.3888 0.2313 0.0
C3324 C 0.02275 0.37206 0.23334 0.0
C3325 C 0.04185 0.37194 0.23402 0.0
C3326 C 0.01419 0.4232 0.22662 0.0
C3327 C 0.01249 0.35442 0.23581 0.0
H3328 H 0.96155 0.39682 0.26663 0.0
H3329 H 0.95385 0.38986 0.2091 0.0
H3330 H 0.00653 0.38154 0.26903 0.0
H3331 H 0.0074 0.4057 0.26634 0.0
H3332 H 0.99009 0.39563 0.28051 0.0
H3333 H 0.97809 0.38376 0.18918 0.0
H3334 H 0.9978 0.39702 0.19541 0.0
H3335 H 0.99772 0.37303 0.19923 0.0
H3336 H 0.05023 0.41713 0.22842 0.0
H3337 H 0.04892 0.35924 0.23638 0.0
H3338 H 0.00716 0.42686 0.23947 0.0
H3339 H 0.00369 0.42239 0.2158 0.0
H3340 H 0.0239 0.43427 0.22316 0.0
H3341 H 0.00574 0.35438 0.24931 0.0
H3342 H 0.02158 0.3424 0.23498 0.0
H3343 H 0.00168 0.35304 0.22536 0.0
C3344 C 0.61998 0.04458 0.2376 0.0
C3345 C 0.60331 0.05301 0.23387 0.0
C3346 C 0.62171 0.02559 0.23671 0.0
C3347 C 0.60644 0.01486 0.23184 0.0
C3348 C 0.58993 0.02341 0.2269 0.0
C3349 C 0.58854 0.0424 0.22805 0.0
C3350 C 0.63953 0.01698 0.24212 0.0
C3351 C 0.5734 0.01244 0.22145 0.0
C3352 C 0.61263 0.96441 0.22198 0.0
C3353 C 0.60752 0.95668 0.23865 0.0
C3354 C 0.6124 0.98337 0.21948 0.0
C3355 C 0.60704 0.99477 0.23406 0.0
C3356 C 0.602 0.987 0.25094 0.0
C3357 C 0.60224 0.96806 0.253 0.0
C3358 C 0.61774 0.9912 0.20127 0.0
C3359 C 0.5963 0.99869 0.26686 0.0
H3360 H 0.63145 0.05274 0.24207 0.0
H3361 H 0.57566 0.04888 0.22501 0.0
H3362 H 0.63788 0.00993 0.25536 0.0
H3363 H 0.64367 0.0066 0.23197 0.0
H3364 H 0.65063 0.02718 0.24348 0.0
H3365 H 0.5624 0.02114 0.21586 0.0
H3366 H 0.57708 0.00207 0.21112 0.0
H3367 H 0.56802 0.00511 0.2335 0.0
H3368 H 0.6167 0.95564 0.21084 0.0
H3369 H 0.59833 0.96217 0.26594 0.0
H3370 H 0.62929 0.0008 0.20295 0.0
H3371 H 0.60623 0.99905 0.1955 0.0
H3372 H 0.62171 0.9805 0.19137 0.0
H3373 H 0.6073 0.00846 0.27032 0.0
H3374 H 0.59309 0.99051 0.27916 0.0
H3375 H 0.5841 0.00675 0.26317 0.0
C3376 C 0.03949 0.59255 0.24355 0.0
C3377 C 0.05186 0.6065 0.23949 0.0
C3378 C 0.02071 0.59558 0.24297 0.0
C3379 C 0.01411 0.61304 0.23832 0.0
C3380 C 0.0265 0.62704 0.23359 0.0
C3381 C 0.0453 0.62358 0.23418 0.0
C3382 C 0.00794 0.58023 0.24797 0.0
C3383 C 0.01995 0.64583 0.2286 0.0
C3384 C 0.96364 0.6141 0.2275 0.0
C3385 C 0.95631 0.61805 0.24465 0.0
C3386 C 0.98256 0.61335 0.22492 0.0
C3387 C 0.99431 0.61677 0.23982 0.0
C3388 C 0.98693 0.62184 0.25686 0.0
C3389 C 0.96801 0.62234 0.25909 0.0
C3390 C 0.98993 0.60788 0.20655 0.0
C3391 C 0.99899 0.62577 0.27305 0.0
H3392 H 0.0445 0.57927 0.24752 0.0
H3393 H 0.05484 0.6344 0.23102 0.0
H3394 H 0.0006 0.58368 0.26069 0.0
H3395 H 0.99759 0.57828 0.23716 0.0
H3396 H 0.01521 0.56716 0.25006 0.0
H3397 H 0.03116 0.65468 0.22363 0.0
H3398 H 0.00929 0.645 0.21794 0.0
H3399 H 0.01371 0.65236 0.2407 0.0
H3400 H 0.95462 0.61081 0.21629 0.0
H3401 H 0.96239 0.62558 0.27233 0.0
H3402 H 0.99571 0.59398 0.20742 0.0
H3403 H 0.00108 0.61716 0.20234 0.0
H3404 H 0.97923 0.60792 0.19587 0.0
H3405 H 0.00576 0.61305 0.27747 0.0
H3406 H 0.99123 0.63135 0.28475 0.0
H3407 H 0.00983 0.63561 0.26931 0.0
C3408 C 0.39953 0.03059 0.23078 0.0
C3409 C 0.3842 0.0408 0.23562 0.0
C3410 C 0.39859 0.01159 0.22942 0.0
C3411 C 0.38186 0.00262 0.23279 0.0
C3412 C 0.36602 0.01298 0.23622 0.0
C3413 C 0.36739 0.03199 0.23771 0.0
C3414 C 0.41584 0.00106 0.22579 0.0
C3415 C 0.34786 0.00393 0.23952 0.0
C3416 C 0.3813 0.95187 0.22261 0.0
C3417 C 0.38527 0.94462 0.2398 0.0
C3418 C 0.3793 0.97073 0.22018 0.0
C3419 C 0.38164 0.98254 0.23523 0.0
C3420 C 0.38512 0.9752 0.2527 0.0
C3421 C 0.38675 0.95635 0.25478 0.0
C3422 C 0.37523 0.97805 0.20144 0.0
C3423 C 0.38788 0.98732 0.2691 0.0
H3424 H 0.41254 0.03733 0.22904 0.0
H3425 H 0.35547 0.03985 0.24133 0.0
H3426 H 0.41993 0.99371 0.23832 0.0
H3427 H 0.41357 0.99074 0.21502 0.0
H3428 H 0.42725 0.01006 0.22159 0.0
H3429 H 0.33646 0.0138 0.23891 0.0
H3430 H 0.34539 0.99301 0.22938 0.0
H3431 H 0.34786 0.99752 0.25318 0.0
H3432 H 0.38003 0.94283 0.21102 0.0
H3433 H 0.38981 0.95083 0.26811 0.0
H3434 H 0.38727 0.98549 0.19618 0.0
H3435 H 0.36381 0.98788 0.20202 0.0
H3436 H 0.3717 0.96706 0.19166 0.0
H3437 H 0.39998 0.99612 0.26699 0.0
H3438 H 0.38987 0.97942 0.28182 0.0
H3439 H 0.37598 0.99639 0.27092 0.0
C3440 C 0.76632 0.03533 0.61559 0.0
C3441 C 0.75443 0.04225 0.60239 0.0
C3442 C 0.76819 0.01647 0.61811 0.0
C3443 C 0.75802 0.00434 0.60708 0.0
C3444 C 0.74626 0.0113 0.59352 0.0
C3445 C 0.74456 0.03015 0.5914 0.0
C3446 C 0.78075 0.00952 0.63278 0.0
C3447 C 0.73526 0.99882 0.58139 0.0
C3448 C 0.77041 0.95458 0.60119 0.0
C3449 C 0.75721 0.94609 0.61203 0.0
C3450 C 0.77141 0.97363 0.60006 0.0
C3451 C 0.75895 0.98437 0.61006 0.0
C3452 C 0.74619 0.97585 0.62171 0.0
C3453 C 0.74546 0.95681 0.62252 0.0
C3454 C 0.7852 0.98224 0.58749 0.0
C3455 C 0.73274 0.98681 0.63268 0.0
H3456 H 0.77397 0.04464 0.62411 0.0
H3457 H 0.73543 0.03543 0.5811 0.0
H3458 H 0.7728 0.00193 0.64312 0.0
H3459 H 0.79075 -0.0001 0.62689 0.0
H3460 H 0.78826 0.0207 0.63969 0.0
H3461 H 0.72731 0.0064 0.57104 0.0
H3462 H 0.74438 0.98914 0.57428 0.0
H3463 H 0.7257 0.99066 0.58976 0.0
H3464 H 0.77955 0.94634 0.59308 0.0
H3465 H 0.73529 0.95031 0.63102 0.0
H3466 H 0.79283 0.99314 0.59467 0.0
H3467 H 0.77808 0.98865 0.57584 0.0
H3468 H 0.79506 0.97216 0.5821 0.0
H3469 H 0.73987 0.99761 0.64049 0.0
H3470 H 0.72486 0.97823 0.64232 0.0
H3471 H 0.72304 0.99364 0.62336 0.0
C3472 C 0.75458 0.0433 0.36841 0.0
C3473 C 0.76321 0.05397 0.38169 0.0
C3474 C 0.75539 0.02425 0.36904 0.0
C3475 C 0.76499 0.01569 0.38336 0.0
C3476 C 0.77466 0.02641 0.39616 0.0
C3477 C 0.77367 0.04545 0.39515 0.0
C3478 C 0.74501 0.01331 0.35505 0.0
C3479 C 0.78507 0.01778 0.41161 0.0
C3480 C 0.74624 0.97038 0.39932 0.0
C3481 C 0.7584 0.95801 0.39147 0.0
C3482 C 0.74837 0.98916 0.39685 0.0
C3483 C 0.76302 0.99576 0.38622 0.0
C3484 C 0.77541 0.98335 0.37828 0.0
C3485 C 0.77296 0.96457 0.38102 0.0
C3486 C 0.73487 0.00193 0.40559 0.0
C3487 C 0.79114 0.98993 0.36683 0.0
H3488 H 0.74657 0.04983 0.35789 0.0
H3489 H 0.78042 0.05364 0.40542 0.0
H3490 H 0.75364 0.00227 0.34949 0.0
H3491 H 0.73304 0.00682 0.36159 0.0
H3492 H 0.74014 0.02188 0.3436 0.0
H3493 H 0.79363 0.02782 0.41902 0.0
H3494 H 0.77535 0.01163 0.42139 0.0
H3495 H 0.7939 0.0067 0.40648 0.0
H3496 H 0.73498 0.9654 0.40744 0.0
H3497 H 0.7824 0.95504 0.37494 0.0
H3498 H 0.72791 0.01007 0.39497 0.0
H3499 H 0.74206 0.01161 0.4147 0.0
H3500 H 0.72438 0.99459 0.41365 0.0
H3501 H 0.78597 0.99767 0.35496 0.0
H3502 H 0.79969 0.97855 0.3618 0.0
H3503 H 0.79981 0.99934 0.37486 0.0
C3504 C 0.95772 0.74396 0.38909 0.0
C3505 C 0.94701 0.7585 0.39513 0.0
C3506 C 0.97662 0.74575 0.38743 0.0
C3507 C 0.98503 0.7625 0.39196 0.0
C3508 C 0.97421 0.7775 0.39728 0.0
C3509 C 0.95527 0.77532 0.3988 0.0
C3510 C 0.98766 0.72944 0.38163 0.0
C3511 C 0.9827 0.79558 0.40213 0.0
C3512 C 0.0334 0.7571 0.4087 0.0
C3513 C 0.04346 0.76081 0.39294 0.0
C3514 C 0.0144 0.75845 0.40877 0.0
C3515 C 0.00522 0.76363 0.39266 0.0
C3516 C 0.01535 0.76823 0.37693 0.0
C3517 C 0.0344 0.76677 0.37725 0.0
C3518 C 0.00411 0.7535 0.42586 0.0
C3519 C 0.00602 0.77387 0.35953 0.0
H3520 H 0.95138 0.73096 0.38611 0.0
H3521 H 0.94702 0.78662 0.40343 0.0
H3522 H 0.99684 0.73312 0.37023 0.0
H3523 H 0.99633 0.72488 0.39311 0.0
H3524 H 0.97895 0.71785 0.37729 0.0
H3525 H 0.97234 0.80639 0.40405 0.0
H3526 H 0.99058 0.7942 0.41493 0.0
H3527 H 0.99235 0.79994 0.39138 0.0
H3528 H 0.04035 0.7526 0.42091 0.0
H3529 H 0.04214 0.7697 0.36505 0.0
H3530 H 0.99605 0.74093 0.42347 0.0
H3531 H 0.99441 0.76444 0.42949 0.0
H3532 H 0.01331 0.75114 0.43761 0.0
H3533 H 0.99864 0.76205 0.35369 0.0
H3534 H 0.01583 0.77899 0.34922 0.0
H3535 H 0.99582 0.78462 0.36228 0.0
C3536 C 0.25186 0.02686 0.40882 0.0
C3537 C 0.24061 0.03832 0.39858 0.0
C3538 C 0.25086 0.00791 0.40695 0.0
C3539 C 0.2384 0.00022 0.39441 0.0
C3540 C 0.22681 0.0117 0.38418 0.0
C3541 C 0.22801 0.03066 0.38645 0.0
C3542 C 0.26335 0.99613 0.4182 0.0
C3543 C 0.21345 0.00398 0.3706 0.0
C3544 C 0.25157 0.95326 0.37782 0.0
C3545 C 0.24092 0.94202 0.38897 0.0
C3546 C 0.25029 0.97225 0.3789 0.0
C3547 C 0.23816 0.9802 0.39156 0.0
C3548 C 0.2269 0.96892 0.40241 0.0
C3549 C 0.22837 0.94992 0.40093 0.0
C3550 C 0.26242 0.98381 0.36698 0.0
C3551 C 0.21388 0.9769 0.41612 0.0
H3552 H 0.26156 0.03271 0.41829 0.0
H3553 H 0.21929 0.03948 0.3785 0.0
H3554 H 0.25531 0.98601 0.426 0.0
H3555 H 0.27265 0.98847 0.40914 0.0
H3556 H 0.27169 0.00421 0.42791 0.0
H3557 H 0.2049 0.01469 0.36427 0.0
H3558 H 0.22091 0.99671 0.35968 0.0
H3559 H 0.20443 0.9939 0.37731 0.0
H3560 H 0.26122 0.9472 0.36846 0.0
H3561 H 0.22011 0.94128 0.40957 0.0
H3562 H 0.27241 0.99123 0.37556 0.0
H3563 H 0.25424 0.99415 0.35966 0.0
H3564 H 0.26998 0.97557 0.35683 0.0
H3565 H 0.22167 0.98386 0.42704 0.0
H3566 H 0.20506 0.96637 0.42244 0.0
H3567 H 0.20511 0.98727 0.40957 0.0
C3568 C 0.03898 0.22607 0.39877 0.0
C3569 C 0.04777 0.24268 0.39541 0.0
C3570 C 0.01991 0.22479 0.39843 0.0
C3571 C 0.00948 0.24047 0.39448 0.0
C3572 C 0.01834 0.25715 0.39063 0.0
C3573 C 0.03737 0.25807 0.39123 0.0
C3574 C 0.01092 0.20681 0.40272 0.0
C3575 C 0.0077 0.27414 0.3862 0.0
C3576 C 0.96019 0.23726 0.37933 0.0
C3577 C 0.95103 0.24252 0.3952 0.0
C3578 C 0.97923 0.2359 0.37903 0.0
C3579 C 0.98928 0.23975 0.39503 0.0
C3580 C 0.98001 0.24427 0.41129 0.0
C3581 C 0.961 0.24569 0.41115 0.0
C3582 C 0.98864 0.23113 0.36141 0.0
C3583 C 0.99023 0.2483 0.42868 0.0
H3584 H 0.04698 0.21414 0.40203 0.0
H3585 H 0.04412 0.27092 0.38853 0.0
H3586 H 0.00262 0.20814 0.41526 0.0
H3587 H 0.00154 0.20285 0.39156 0.0
H3588 H 0.02097 0.19574 0.40475 0.0
H3589 H 0.01667 0.28581 0.38272 0.0
H3590 H 0.99841 0.27154 0.37458 0.0
H3591 H 0.99915 0.27802 0.39801 0.0
H3592 H 0.95253 0.23481 0.36696 0.0
H3593 H 0.95395 0.24966 0.42349 0.0
H3594 H 0.99838 0.21983 0.36356 0.0
H3595 H 0.99658 0.24303 0.35655 0.0
H3596 H 0.97886 0.2271 0.3506 0.0
H3597 H -0.00015 0.23712 0.43178 0.0
H3598 H 0.98096 0.25011 0.44047 0.0
H3599 H 0.99837 0.26091 0.427 0.0
C3600 C 0.25528 0.04431 0.62031 0.0
C3601 C 0.2413 0.05645 0.61591 0.0
C3602 C 0.25255 0.02547 0.61936 0.0
C3603 C 0.23544 0.0186 0.61373 0.0
C3604 C 0.22099 0.03078 0.61008 0.0
C3605 C 0.22409 0.04961 0.61126 0.0
C3606 C 0.26827 0.01294 0.6235 0.0
C3607 C 0.20258 0.02395 0.60403 0.0
C3608 C 0.23919 0.97349 0.58935 0.0
C3609 C 0.23475 0.96113 0.60317 0.0
C3610 C 0.23853 0.99227 0.59239 0.0
C3611 C 0.23347 0.99888 0.60975 0.0
C3612 C 0.22818 0.98649 0.62354 0.0
C3613 C 0.22881 0.96769 0.62006 0.0
C3614 C 0.24409 0.00502 0.57724 0.0
C3615 C 0.22273 0.99305 0.64222 0.0
H3616 H 0.26857 0.04954 0.62408 0.0
H3617 H 0.21322 0.05897 0.60791 0.0
H3618 H 0.264 0.0022 0.6332 0.0
H3619 H 0.27271 0.00607 0.61081 0.0
H3620 H 0.28011 0.02034 0.62935 0.0
H3621 H 0.19223 0.03494 0.6039 0.0
H3622 H 0.20365 0.01823 0.5901 0.0
H3623 H 0.19778 0.01286 0.61308 0.0
H3624 H 0.24362 0.96846 0.57621 0.0
H3625 H 0.22537 0.95815 0.63076 0.0
H3626 H 0.25697 0.01201 0.58096 0.0
H3627 H 0.23361 0.01565 0.57524 0.0
H3628 H 0.24617 0.99777 0.56414 0.0
H3629 H 0.23482 0.99874 0.64929 0.0
H3630 H 0.21699 0.98193 0.6507 0.0
H3631 H 0.21255 0.00412 0.64116 0.0
C3632 C 0.9606 0.22045 0.60661 0.0
C3633 C 0.95289 0.23767 0.60396 0.0
C3634 C 0.97954 0.21839 0.60824 0.0
C3635 C 0.99091 0.23395 0.60731 0.0
C3636 C 0.98311 0.25139 0.60508 0.0
C3637 C 0.96422 0.25302 0.60336 0.0
C3638 C 0.98741 0.19959 0.61051 0.0
C3639 C 0.99474 0.26835 0.60416 0.0
C3640 C 0.03956 0.23557 0.62436 0.0
C3641 C 0.04921 0.23565 0.60792 0.0
C3642 C 0.02052 0.23391 0.6245 0.0
C3643 C 0.01103 0.23219 0.60781 0.0
C3644 C 0.02085 0.23103 0.59129 0.0
C3645 C 0.03983 0.23286 0.59154 0.0
C3646 C 0.01052 0.23522 0.64238 0.0
C3647 C 0.01125 0.22902 0.57323 0.0
H3648 H 0.95186 0.20855 0.60709 0.0
H3649 H 0.95832 0.26638 0.60144 0.0
H3650 H 0.99591 0.19617 0.59852 0.0
H3651 H 0.9964 0.19915 0.62263 0.0
H3652 H 0.97669 0.18901 0.612 0.0
H3653 H 0.98648 0.28095 0.60319 0.0
H3654 H 0.00353 0.26931 0.61641 0.0
H3655 H 0.00383 0.26767 0.59214 0.0
H3656 H 0.04678 0.23768 0.63706 0.0
H3657 H 0.04727 0.23274 0.57881 0.0
H3658 H 4e-05 0.2244 0.64342 0.0
H3659 H 0.00341 0.24849 0.64317 0.0
H3660 H 0.01986 0.23413 0.65422 0.0
H3661 H 0.00104 0.2179 0.57385 0.0
H3662 H 0.02088 0.22613 0.56195 0.0
H3663 H 0.00387 0.24177 0.57002 0.0
C3664 C 0.03551 0.75956 0.59341 0.0
C3665 C 0.04806 0.76264 0.60744 0.0
C3666 C 0.01676 0.76002 0.59673 0.0
C3667 C 0.01038 0.76363 0.61454 0.0
C3668 C 0.02297 0.76741 0.62865 0.0
C3669 C 0.04171 0.76688 0.62492 0.0
C3670 C 0.00378 0.75597 0.58129 0.0
C3671 C 0.01666 0.77136 0.64778 0.0
C3672 C 0.96008 0.77483 0.61744 0.0
C3673 C 0.95258 0.75762 0.62093 0.0
C3674 C 0.979 0.77724 0.61617 0.0
C3675 C 0.99061 0.76207 0.61848 0.0
C3676 C 0.98312 0.74488 0.62291 0.0
C3677 C 0.9642 0.74286 0.62406 0.0
C3678 C 0.9865 0.79578 0.61149 0.0
C3679 C 0.99504 0.72838 0.62556 0.0
H3680 H 0.04035 0.75637 0.57985 0.0
H3681 H 0.05138 0.7693 0.63581 0.0
H3682 H 0.99632 0.74314 0.58413 0.0
H3683 H 0.99354 0.76696 0.58009 0.0
H3684 H 0.01089 0.75454 0.56803 0.0
H3685 H 0.02803 0.77565 0.65679 0.0
H3686 H 0.00618 0.78219 0.64771 0.0
H3687 H 0.01027 0.75899 0.65364 0.0
H3688 H 0.95114 0.78629 0.61505 0.0
H3689 H 0.95848 0.72955 0.62688 0.0
H3690 H 0.99217 0.79553 0.5975 0.0
H3691 H 0.99777 0.79948 0.62084 0.0
H3692 H 0.97592 0.80653 0.61216 0.0
H3693 H 0.00162 0.72476 0.61246 0.0
H3694 H 0.98723 0.71639 0.63046 0.0
H3695 H 0.00603 0.73139 0.63546 0.0
loop_
_geom_bond_atom_site_label_1
_geom_bond_atom_site_label_2
_geom_bond_distance
_geom_bond_site_symmetry_2
_ccdc_geom_bond_type
In0 O1 2.294 . S
In0 O2 2.326 . S
In0 O6 2.266 . S
In0 O7 2.326 . S
In0 O8 2.266 . S
In0 O9 2.326 . S
In0 O11 2.294 . S
In0 O12 2.326 . S
O1 In0 2.294 . S
O1 C10 1.240 . S
O2 In0 2.326 . S
O2 C10 1.252 . S
C3 O6 1.252 . S
C3 O7 1.260 . S
C4 O11 1.240 . S
C4 O12 1.252 . S
C5 O8 1.252 . S
C5 O9 1.260 . S
O6 In0 2.266 . S
O6 C3 1.252 . S
O7 In0 2.326 . S
O7 C3 1.260 . S
O8 In0 2.266 . S
O8 C5 1.252 . S
O9 In0 2.326 . S
O9 C5 1.260 . S
C10 O1 1.240 . S
C10 O2 1.252 . S
O11 In0 2.294 . S
O11 C4 1.240 . S
O12 In0 2.326 . S
O12 C4 1.252 . S
In13 O14 2.294 . S
In13 O15 2.326 . S
In13 O19 2.266 . S
In13 O20 2.326 . S
In13 O21 2.266 . S
In13 O22 2.326 . S
In13 O24 2.294 . S
In13 O25 2.326 . S
O14 In13 2.294 . S
O14 C23 1.240 . S
O15 In13 2.326 . S
O15 C23 1.252 . S
C16 O19 1.252 . S
C16 O20 1.260 . S
C17 O24 1.240 . S
C17 O25 1.252 . S
C18 O21 1.252 . S
C18 O22 1.260 . S
O19 In13 2.266 . S
O19 C16 1.252 . S
O20 In13 2.326 . S
O20 C16 1.260 . S
O21 In13 2.266 . S
O21 C18 1.252 . S
O22 In13 2.326 . S
O22 C18 1.260 . S
C23 O14 1.240 . S
C23 O15 1.252 . S
O24 In13 2.294 . S
O24 C17 1.240 . S
O25 In13 2.326 . S
O25 C17 1.252 . S
In26 O27 2.294 . S
In26 O28 2.326 . S
In26 O32 2.266 . S
In26 O33 2.326 . S
In26 O34 2.266 . S
In26 O35 2.326 . S
In26 O37 2.294 . S
In26 O38 2.326 . S
O27 In26 2.294 . S
O27 C36 1.240 . S
O28 In26 2.326 . S
O28 C36 1.252 . S
C29 O32 1.252 . S
C29 O33 1.260 . S
C30 O37 1.240 . S
C30 O38 1.252 . S
C31 O34 1.252 . S
C31 O35 1.260 . S
O32 In26 2.266 . S
O32 C29 1.252 . S
O33 In26 2.326 . S
O33 C29 1.260 . S
O34 In26 2.266 . S
O34 C31 1.252 . S
O35 In26 2.326 . S
O35 C31 1.260 . S
C36 O27 1.240 . S
C36 O28 1.252 . S
O37 In26 2.294 . S
O37 C30 1.240 . S
O38 In26 2.326 . S
O38 C30 1.252 . S
In39 O40 2.294 . S
In39 O41 2.326 . S
In39 O45 2.266 . S
In39 O46 2.326 . S
In39 O47 2.266 . S
In39 O48 2.326 . S
In39 O50 2.294 . S
In39 O51 2.326 . S
O40 In39 2.294 . S
O40 C49 1.240 . S
O41 In39 2.326 . S
O41 C49 1.252 . S
C42 O45 1.252 . S
C42 O46 1.260 . S
C43 O50 1.240 . S
C43 O51 1.252 . S
C44 O47 1.252 . S
C44 O48 1.260 . S
O45 In39 2.266 . S
O45 C42 1.252 . S
O46 In39 2.326 . S
O46 C42 1.260 . S
O47 In39 2.266 . S
O47 C44 1.252 . S
O48 In39 2.326 . S
O48 C44 1.260 . S
C49 O40 1.240 . S
C49 O41 1.252 . S
O50 In39 2.294 . S
O50 C43 1.240 . S
O51 In39 2.326 . S
O51 C43 1.252 . S
In52 O53 2.294 . S
In52 O54 2.326 . S
In52 O58 2.266 . S
In52 O59 2.326 . S
In52 O60 2.266 . S
In52 O61 2.326 . S
In52 O63 2.294 . S
In52 O64 2.326 . S
O53 In52 2.294 . S
O53 C62 1.240 . S
O54 In52 2.326 . S
O54 C62 1.252 . S
C55 O58 1.252 . S
C55 O59 1.260 . S
C56 O63 1.240 . S
C56 O64 1.252 . S
C57 O60 1.252 . S
C57 O61 1.260 . S
O58 In52 2.266 . S
O58 C55 1.252 . S
O59 In52 2.326 . S
O59 C55 1.260 . S
O60 In52 2.266 . S
O60 C57 1.252 . S
O61 In52 2.326 . S
O61 C57 1.260 . S
C62 O53 1.240 . S
C62 O54 1.252 . S
O63 In52 2.294 . S
O63 C56 1.240 . S
O64 In52 2.326 . S
O64 C56 1.252 . S
In65 O66 2.294 . S
In65 O67 2.326 . S
In65 O71 2.266 . S
In65 O72 2.326 . S
In65 O73 2.266 . S
In65 O74 2.326 . S
In65 O76 2.294 . S
In65 O77 2.326 . S
O66 In65 2.294 . S
O66 C75 1.240 . S
O67 In65 2.326 . S
O67 C75 1.252 . S
C68 O71 1.252 . S
C68 O72 1.260 . S
C69 O76 1.240 . S
C69 O77 1.252 . S
C70 O73 1.252 . S
C70 O74 1.260 . S
O71 In65 2.266 . S
O71 C68 1.252 . S
O72 In65 2.326 . S
O72 C68 1.260 . S
O73 In65 2.266 . S
O73 C70 1.252 . S
O74 In65 2.326 . S
O74 C70 1.260 . S
C75 O66 1.240 . S
C75 O67 1.252 . S
O76 In65 2.294 . S
O76 C69 1.240 . S
O77 In65 2.326 . S
O77 C69 1.252 . S
In78 O79 2.294 . S
In78 O80 2.326 . S
In78 O84 2.266 . S
In78 O85 2.326 . S
In78 O86 2.266 . S
In78 O87 2.326 . S
In78 O89 2.294 . S
In78 O90 2.326 . S
O79 In78 2.294 . S
O79 C88 1.240 . S
O80 In78 2.326 . S
O80 C88 1.252 . S
C81 O84 1.252 . S
C81 O85 1.260 . S
C82 O89 1.240 . S
C82 O90 1.252 . S
C83 O86 1.252 . S
C83 O87 1.260 . S
O84 In78 2.266 . S
O84 C81 1.252 . S
O85 In78 2.326 . S
O85 C81 1.260 . S
O86 In78 2.266 . S
O86 C83 1.252 . S
O87 In78 2.326 . S
O87 C83 1.260 . S
C88 O79 1.240 . S
C88 O80 1.252 . S
O89 In78 2.294 . S
O89 C82 1.240 . S
O90 In78 2.326 . S
O90 C82 1.252 . S
In91 O92 2.294 . S
In91 O93 2.326 . S
In91 O97 2.266 . S
In91 O98 2.326 . S
In91 O99 2.266 . S
In91 O100 2.326 . S
In91 O102 2.294 . S
In91 O103 2.326 . S
O92 In91 2.294 . S
O92 C101 1.240 . S
O93 In91 2.326 . S
O93 C101 1.252 . S
C94 O97 1.252 . S
C94 O98 1.260 . S
C95 O102 1.240 . S
C95 O103 1.252 . S
C96 O99 1.252 . S
C96 O100 1.260 . S
O97 In91 2.266 . S
O97 C94 1.252 . S
O98 In91 2.326 . S
O98 C94 1.260 . S
O99 In91 2.266 . S
O99 C96 1.252 . S
O100 In91 2.326 . S
O100 C96 1.260 . S
C101 O92 1.240 . S
C101 O93 1.252 . S
O102 In91 2.294 . S
O102 C95 1.240 . S
O103 In91 2.326 . S
O103 C95 1.252 . S
In104 O105 2.294 . S
In104 O106 2.326 . S
In104 O110 2.266 . S
In104 O111 2.326 . S
In104 O112 2.266 . S
In104 O113 2.326 . S
In104 O115 2.294 . S
In104 O116 2.326 . S
O105 In104 2.294 . S
O105 C114 1.240 . S
O106 In104 2.326 . S
O106 C114 1.252 . S
C107 O110 1.252 . S
C107 O111 1.260 . S
C108 O115 1.240 . S
C108 O116 1.252 . S
C109 O112 1.252 . S
C109 O113 1.260 . S
O110 In104 2.266 . S
O110 C107 1.252 . S
O111 In104 2.326 . S
O111 C107 1.260 . S
O112 In104 2.266 . S
O112 C109 1.252 . S
O113 In104 2.326 . S
O113 C109 1.260 . S
C114 O105 1.240 . S
C114 O106 1.252 . S
O115 In104 2.294 . S
O115 C108 1.240 . S
O116 In104 2.326 . S
O116 C108 1.252 . S
In117 O118 2.294 . S
In117 O119 2.326 . S
In117 O123 2.266 . S
In117 O124 2.326 . S
In117 O125 2.266 . S
In117 O126 2.326 . S
In117 O128 2.294 . S
In117 O129 2.326 . S
O118 In117 2.294 . S
O118 C127 1.240 . S
O119 In117 2.326 . S
O119 C127 1.252 . S
C120 O123 1.252 . S
C120 O124 1.260 . S
C121 O128 1.240 . S
C121 O129 1.252 . S
C122 O125 1.252 . S
C122 O126 1.260 . S
O123 In117 2.266 . S
O123 C120 1.252 . S
O124 In117 2.326 . S
O124 C120 1.260 . S
O125 In117 2.266 . S
O125 C122 1.252 . S
O126 In117 2.326 . S
O126 C122 1.260 . S
C127 O118 1.240 . S
C127 O119 1.252 . S
O128 In117 2.294 . S
O128 C121 1.240 . S
O129 In117 2.326 . S
O129 C121 1.252 . S
In130 O131 2.294 . S
In130 O132 2.326 . S
In130 O136 2.266 . S
In130 O137 2.326 . S
In130 O138 2.266 . S
In130 O139 2.326 . S
In130 O141 2.294 . S
In130 O142 2.326 . S
O131 In130 2.294 . S
O131 C140 1.240 . S
O132 In130 2.326 . S
O132 C140 1.252 . S
C133 O136 1.252 . S
C133 O137 1.260 . S
C134 O141 1.240 . S
C134 O142 1.252 . S
C135 O138 1.252 . S
C135 O139 1.260 . S
O136 In130 2.266 . S
O136 C133 1.252 . S
O137 In130 2.326 . S
O137 C133 1.260 . S
O138 In130 2.266 . S
O138 C135 1.252 . S
O139 In130 2.326 . S
O139 C135 1.260 . S
C140 O131 1.240 . S
C140 O132 1.252 . S
O141 In130 2.294 . S
O141 C134 1.240 . S
O142 In130 2.326 . S
O142 C134 1.252 . S
In143 O144 2.294 . S
In143 O145 2.326 . S
In143 O149 2.266 . S
In143 O150 2.326 . S
In143 O151 2.266 . S
In143 O152 2.326 . S
In143 O154 2.294 . S
In143 O155 2.326 . S
O144 In143 2.294 . S
O144 C153 1.240 . S
O145 In143 2.326 . S
O145 C153 1.252 . S
C146 O149 1.252 . S
C146 O150 1.260 . S
C147 O154 1.240 . S
C147 O155 1.252 . S
C148 O151 1.252 . S
C148 O152 1.260 . S
O149 In143 2.266 . S
O149 C146 1.252 . S
O150 In143 2.326 . S
O150 C146 1.260 . S
O151 In143 2.266 . S
O151 C148 1.252 . S
O152 In143 2.326 . S
O152 C148 1.260 . S
C153 O144 1.240 . S
C153 O145 1.252 . S
O154 In143 2.294 . S
O154 C147 1.240 . S
O155 In143 2.326 . S
O155 C147 1.252 . S
In156 O157 2.294 . S
In156 O158 2.326 . S
In156 O162 2.266 . S
In156 O163 2.326 . S
In156 O164 2.266 . S
In156 O165 2.326 . S
In156 O167 2.294 . S
In156 O168 2.326 . S
O157 In156 2.294 . S
O157 C166 1.240 . S
O158 In156 2.326 . S
O158 C166 1.252 . S
C159 O162 1.252 . S
C159 O163 1.260 . S
C160 O167 1.240 . S
C160 O168 1.252 . S
C161 O164 1.252 . S
C161 O165 1.260 . S
O162 In156 2.266 . S
O162 C159 1.252 . S
O163 In156 2.326 . S
O163 C159 1.260 . S
O164 In156 2.266 . S
O164 C161 1.252 . S
O165 In156 2.326 . S
O165 C161 1.260 . S
C166 O157 1.240 . S
C166 O158 1.252 . S
O167 In156 2.294 . S
O167 C160 1.240 . S
O168 In156 2.326 . S
O168 C160 1.252 . S
In169 O170 2.294 . S
In169 O171 2.326 . S
In169 O175 2.266 . S
In169 O176 2.326 . S
In169 O177 2.266 . S
In169 O178 2.326 . S
In169 O180 2.294 . S
In169 O181 2.326 . S
O170 In169 2.294 . S
O170 C179 1.240 . S
O171 In169 2.326 . S
O171 C179 1.252 . S
C172 O175 1.252 . S
C172 O176 1.260 . S
C173 O180 1.240 . S
C173 O181 1.252 . S
C174 O177 1.252 . S
C174 O178 1.260 . S
O175 In169 2.266 . S
O175 C172 1.252 . S
O176 In169 2.326 . S
O176 C172 1.260 . S
O177 In169 2.266 . S
O177 C174 1.252 . S
O178 In169 2.326 . S
O178 C174 1.260 . S
C179 O170 1.240 . S
C179 O171 1.252 . S
O180 In169 2.294 . S
O180 C173 1.240 . S
O181 In169 2.326 . S
O181 C173 1.252 . S
In182 O183 2.294 . S
In182 O184 2.326 . S
In182 O188 2.266 . S
In182 O189 2.326 . S
In182 O190 2.266 . S
In182 O191 2.326 . S
In182 O193 2.294 . S
In182 O194 2.326 . S
O183 In182 2.294 . S
O183 C192 1.240 . S
O184 In182 2.326 . S
O184 C192 1.252 . S
C185 O188 1.252 . S
C185 O189 1.260 . S
C186 O193 1.240 . S
C186 O194 1.252 . S
C187 O190 1.252 . S
C187 O191 1.260 . S
O188 In182 2.266 . S
O188 C185 1.252 . S
O189 In182 2.326 . S
O189 C185 1.260 . S
O190 In182 2.266 . S
O190 C187 1.252 . S
O191 In182 2.326 . S
O191 C187 1.260 . S
C192 O183 1.240 . S
C192 O184 1.252 . S
O193 In182 2.294 . S
O193 C186 1.240 . S
O194 In182 2.326 . S
O194 C186 1.252 . S
In195 O196 2.294 . S
In195 O197 2.326 . S
In195 O201 2.266 . S
In195 O202 2.326 . S
In195 O203 2.266 . S
In195 O204 2.326 . S
In195 O206 2.294 . S
In195 O207 2.326 . S
O196 In195 2.294 . S
O196 C205 1.240 . S
O197 In195 2.326 . S
O197 C205 1.252 . S
C198 O201 1.252 . S
C198 O202 1.260 . S
C199 O206 1.240 . S
C199 O207 1.252 . S
C200 O203 1.252 . S
C200 O204 1.260 . S
O201 In195 2.266 . S
O201 C198 1.252 . S
O202 In195 2.326 . S
O202 C198 1.260 . S
O203 In195 2.266 . S
O203 C200 1.252 . S
O204 In195 2.326 . S
O204 C200 1.260 . S
C205 O196 1.240 . S
C205 O197 1.252 . S
O206 In195 2.294 . S
O206 C199 1.240 . S
O207 In195 2.326 . S
O207 C199 1.252 . S
In208 O209 2.294 . S
In208 O210 2.326 . S
In208 O214 2.266 . S
In208 O215 2.326 . S
In208 O216 2.266 . S
In208 O217 2.326 . S
In208 O219 2.294 . S
In208 O220 2.326 . S
O209 In208 2.294 . S
O209 C218 1.240 . S
O210 In208 2.326 . S
O210 C218 1.252 . S
C211 O214 1.252 . S
C211 O215 1.260 . S
C212 O219 1.240 . S
C212 O220 1.252 . S
C213 O216 1.252 . S
C213 O217 1.260 . S
O214 In208 2.266 . S
O214 C211 1.252 . S
O215 In208 2.326 . S
O215 C211 1.260 . S
O216 In208 2.266 . S
O216 C213 1.252 . S
O217 In208 2.326 . S
O217 C213 1.260 . S
C218 O209 1.240 . S
C218 O210 1.252 . S
O219 In208 2.294 . S
O219 C212 1.240 . S
O220 In208 2.326 . S
O220 C212 1.252 . S
In221 O222 2.294 . S
In221 O223 2.326 . S
In221 O227 2.266 . S
In221 O228 2.326 . S
In221 O229 2.266 . S
In221 O230 2.326 . S
In221 O232 2.294 . S
In221 O233 2.326 . S
O222 In221 2.294 . S
O222 C231 1.240 . S
O223 In221 2.326 . S
O223 C231 1.252 . S
C224 O227 1.252 . S
C224 O228 1.260 . S
C225 O232 1.240 . S
C225 O233 1.252 . S
C226 O229 1.252 . S
C226 O230 1.260 . S
O227 In221 2.266 . S
O227 C224 1.252 . S
O228 In221 2.326 . S
O228 C224 1.260 . S
O229 In221 2.266 . S
O229 C226 1.252 . S
O230 In221 2.326 . S
O230 C226 1.260 . S
C231 O222 1.240 . S
C231 O223 1.252 . S
O232 In221 2.294 . S
O232 C225 1.240 . S
O233 In221 2.326 . S
O233 C225 1.252 . S
In234 O235 2.294 . S
In234 O236 2.326 . S
In234 O240 2.266 . S
In234 O241 2.326 . S
In234 O242 2.266 . S
In234 O243 2.326 . S
In234 O245 2.294 . S
In234 O246 2.326 . S
O235 In234 2.294 . S
O235 C244 1.240 . S
O236 In234 2.326 . S
O236 C244 1.252 . S
C237 O240 1.252 . S
C237 O241 1.260 . S
C238 O245 1.240 . S
C238 O246 1.252 . S
C239 O242 1.252 . S
C239 O243 1.260 . S
O240 In234 2.266 . S
O240 C237 1.252 . S
O241 In234 2.326 . S
O241 C237 1.260 . S
O242 In234 2.266 . S
O242 C239 1.252 . S
O243 In234 2.326 . S
O243 C239 1.260 . S
C244 O235 1.240 . S
C244 O236 1.252 . S
O245 In234 2.294 . S
O245 C238 1.240 . S
O246 In234 2.326 . S
O246 C238 1.252 . S
In247 O248 2.294 . S
In247 O249 2.326 . S
In247 O253 2.266 . S
In247 O254 2.326 . S
In247 O255 2.266 . S
In247 O256 2.326 . S
In247 O258 2.294 . S
In247 O259 2.326 . S
O248 In247 2.294 . S
O248 C257 1.240 . S
O249 In247 2.326 . S
O249 C257 1.252 . S
C250 O253 1.252 . S
C250 O254 1.260 . S
C251 O258 1.240 . S
C251 O259 1.252 . S
C252 O255 1.252 . S
C252 O256 1.260 . S
O253 In247 2.266 . S
O253 C250 1.252 . S
O254 In247 2.326 . S
O254 C250 1.260 . S
O255 In247 2.266 . S
O255 C252 1.252 . S
O256 In247 2.326 . S
O256 C252 1.260 . S
C257 O248 1.240 . S
C257 O249 1.252 . S
O258 In247 2.294 . S
O258 C251 1.240 . S
O259 In247 2.326 . S
O259 C251 1.252 . S
In260 O261 2.294 . S
In260 O262 2.326 . S
In260 O266 2.266 . S
In260 O267 2.326 . S
In260 O268 2.266 . S
In260 O269 2.326 . S
In260 O271 2.294 . S
In260 O272 2.326 . S
O261 In260 2.294 . S
O261 C270 1.240 . S
O262 In260 2.326 . S
O262 C270 1.252 . S
C263 O266 1.252 . S
C263 O267 1.260 . S
C264 O271 1.240 . S
C264 O272 1.252 . S
C265 O268 1.252 . S
C265 O269 1.260 . S
O266 In260 2.266 . S
O266 C263 1.252 . S
O267 In260 2.326 . S
O267 C263 1.260 . S
O268 In260 2.266 . S
O268 C265 1.252 . S
O269 In260 2.326 . S
O269 C265 1.260 . S
C270 O261 1.240 . S
C270 O262 1.252 . S
O271 In260 2.294 . S
O271 C264 1.240 . S
O272 In260 2.326 . S
O272 C264 1.252 . S
In273 O274 2.294 . S
In273 O275 2.326 . S
In273 O279 2.266 . S
In273 O280 2.326 . S
In273 O281 2.266 . S
In273 O282 2.326 . S
In273 O284 2.294 . S
In273 O285 2.326 . S
O274 In273 2.294 . S
O274 C283 1.240 . S
O275 In273 2.326 . S
O275 C283 1.252 . S
C276 O279 1.252 . S
C276 O280 1.260 . S
C277 O284 1.240 . S
C277 O285 1.252 . S
C278 O281 1.252 . S
C278 O282 1.260 . S
O279 In273 2.266 . S
O279 C276 1.252 . S
O280 In273 2.326 . S
O280 C276 1.260 . S
O281 In273 2.266 . S
O281 C278 1.252 . S
O282 In273 2.326 . S
O282 C278 1.260 . S
C283 O274 1.240 . S
C283 O275 1.252 . S
O284 In273 2.294 . S
O284 C277 1.240 . S
O285 In273 2.326 . S
O285 C277 1.252 . S
In286 O287 2.294 . S
In286 O288 2.326 . S
In286 O292 2.266 . S
In286 O293 2.326 . S
In286 O294 2.266 . S
In286 O295 2.326 . S
In286 O297 2.294 . S
In286 O298 2.326 . S
O287 In286 2.294 . S
O287 C296 1.240 . S
O288 In286 2.326 . S
O288 C296 1.252 . S
C289 O292 1.252 . S
C289 O293 1.260 . S
C290 O297 1.240 . S
C290 O298 1.252 . S
C291 O294 1.252 . S
C291 O295 1.260 . S
O292 In286 2.266 . S
O292 C289 1.252 . S
O293 In286 2.326 . S
O293 C289 1.260 . S
O294 In286 2.266 . S
O294 C291 1.252 . S
O295 In286 2.326 . S
O295 C291 1.260 . S
C296 O287 1.240 . S
C296 O288 1.252 . S
O297 In286 2.294 . S
O297 C290 1.240 . S
O298 In286 2.326 . S
O298 C290 1.252 . S
In299 O300 2.294 . S
In299 O301 2.326 . S
In299 O305 2.266 . S
In299 O306 2.326 . S
In299 O307 2.266 . S
In299 O308 2.326 . S
In299 O310 2.294 . S
In299 O311 2.326 . S
O300 In299 2.294 . S
O300 C309 1.240 . S
O301 In299 2.326 . S
O301 C309 1.252 . S
C302 O305 1.252 . S
C302 O306 1.260 . S
C303 O310 1.240 . S
C303 O311 1.252 . S
C304 O307 1.252 . S
C304 O308 1.260 . S
O305 In299 2.266 . S
O305 C302 1.252 . S
O306 In299 2.326 . S
O306 C302 1.260 . S
O307 In299 2.266 . S
O307 C304 1.252 . S
O308 In299 2.326 . S
O308 C304 1.260 . S
C309 O300 1.240 . S
C309 O301 1.252 . S
O310 In299 2.294 . S
O310 C303 1.240 . S
O311 In299 2.326 . S
O311 C303 1.252 . S
In312 O313 2.294 . S
In312 O314 2.326 . S
In312 O318 2.266 . S
In312 O319 2.326 . S
In312 O320 2.266 . S
In312 O321 2.326 . S
In312 O323 2.294 . S
In312 O324 2.326 . S
O313 In312 2.294 . S
O313 C322 1.240 . S
O314 In312 2.326 . S
O314 C322 1.252 . S
C315 O318 1.252 . S
C315 O319 1.260 . S
C316 O323 1.240 . S
C316 O324 1.252 . S
C317 O320 1.252 . S
C317 O321 1.260 . S
O318 In312 2.266 . S
O318 C315 1.252 . S
O319 In312 2.326 . S
O319 C315 1.260 . S
O320 In312 2.266 . S
O320 C317 1.252 . S
O321 In312 2.326 . S
O321 C317 1.260 . S
C322 O313 1.240 . S
C322 O314 1.252 . S
O323 In312 2.294 . S
O323 C316 1.240 . S
O324 In312 2.326 . S
O324 C316 1.252 . S
In325 O326 2.294 . S
In325 O327 2.326 . S
In325 O331 2.266 . S
In325 O332 2.326 . S
In325 O333 2.266 . S
In325 O334 2.326 . S
In325 O336 2.294 . S
In325 O337 2.326 . S
O326 In325 2.294 . S
O326 C335 1.240 . S
O327 In325 2.326 . S
O327 C335 1.252 . S
C328 O331 1.252 . S
C328 O332 1.260 . S
C329 O336 1.240 . S
C329 O337 1.252 . S
C330 O333 1.252 . S
C330 O334 1.260 . S
O331 In325 2.266 . S
O331 C328 1.252 . S
O332 In325 2.326 . S
O332 C328 1.260 . S
O333 In325 2.266 . S
O333 C330 1.252 . S
O334 In325 2.326 . S
O334 C330 1.260 . S
C335 O326 1.240 . S
C335 O327 1.252 . S
O336 In325 2.294 . S
O336 C329 1.240 . S
O337 In325 2.326 . S
O337 C329 1.252 . S
In338 O339 2.294 . S
In338 O340 2.326 . S
In338 O344 2.266 . S
In338 O345 2.326 . S
In338 O346 2.266 . S
In338 O347 2.326 . S
In338 O349 2.294 . S
In338 O350 2.326 . S
O339 In338 2.294 . S
O339 C348 1.240 . S
O340 In338 2.326 . S
O340 C348 1.252 . S
C341 O344 1.252 . S
C341 O345 1.260 . S
C342 O349 1.240 . S
C342 O350 1.252 . S
C343 O346 1.252 . S
C343 O347 1.260 . S
O344 In338 2.266 . S
O344 C341 1.252 . S
O345 In338 2.326 . S
O345 C341 1.260 . S
O346 In338 2.266 . S
O346 C343 1.252 . S
O347 In338 2.326 . S
O347 C343 1.260 . S
C348 O339 1.240 . S
C348 O340 1.252 . S
O349 In338 2.294 . S
O349 C342 1.240 . S
O350 In338 2.326 . S
O350 C342 1.252 . S
In351 O352 2.294 . S
In351 O353 2.326 . S
In351 O357 2.266 . S
In351 O358 2.326 . S
In351 O359 2.266 . S
In351 O360 2.326 . S
In351 O362 2.294 . S
In351 O363 2.326 . S
O352 In351 2.294 . S
O352 C361 1.240 . S
O353 In351 2.326 . S
O353 C361 1.252 . S
C354 O357 1.252 . S
C354 O358 1.260 . S
C355 O362 1.240 . S
C355 O363 1.252 . S
C356 O359 1.252 . S
C356 O360 1.260 . S
O357 In351 2.266 . S
O357 C354 1.252 . S
O358 In351 2.326 . S
O358 C354 1.260 . S
O359 In351 2.266 . S
O359 C356 1.252 . S
O360 In351 2.326 . S
O360 C356 1.260 . S
C361 O352 1.240 . S
C361 O353 1.252 . S
O362 In351 2.294 . S
O362 C355 1.240 . S
O363 In351 2.326 . S
O363 C355 1.252 . S
In364 O365 2.294 . S
In364 O366 2.326 . S
In364 O370 2.266 . S
In364 O371 2.326 . S
In364 O372 2.266 . S
In364 O373 2.326 . S
In364 O375 2.294 . S
In364 O376 2.326 . S
O365 In364 2.294 . S
O365 C374 1.240 . S
O366 In364 2.326 . S
O366 C374 1.252 . S
C367 O370 1.252 . S
C367 O371 1.260 . S
C368 O375 1.240 . S
C368 O376 1.252 . S
C369 O372 1.252 . S
C369 O373 1.260 . S
O370 In364 2.266 . S
O370 C367 1.252 . S
O371 In364 2.326 . S
O371 C367 1.260 . S
O372 In364 2.266 . S
O372 C369 1.252 . S
O373 In364 2.326 . S
O373 C369 1.260 . S
C374 O365 1.240 . S
C374 O366 1.252 . S
O375 In364 2.294 . S
O375 C368 1.240 . S
O376 In364 2.326 . S
O376 C368 1.252 . S
In377 O378 2.294 . S
In377 O379 2.326 . S
In377 O383 2.266 . S
In377 O384 2.326 . S
In377 O385 2.266 . S
In377 O386 2.326 . S
In377 O388 2.294 . S
In377 O389 2.326 . S
O378 In377 2.294 . S
O378 C387 1.240 . S
O379 In377 2.326 . S
O379 C387 1.252 . S
C380 O383 1.252 . S
C380 O384 1.260 . S
C381 O388 1.240 . S
C381 O389 1.252 . S
C382 O385 1.252 . S
C382 O386 1.260 . S
O383 In377 2.266 . S
O383 C380 1.252 . S
O384 In377 2.326 . S
O384 C380 1.260 . S
O385 In377 2.266 . S
O385 C382 1.252 . S
O386 In377 2.326 . S
O386 C382 1.260 . S
C387 O378 1.240 . S
C387 O379 1.252 . S
O388 In377 2.294 . S
O388 C381 1.240 . S
O389 In377 2.326 . S
O389 C381 1.252 . S
In390 O391 2.294 . S
In390 O392 2.326 . S
In390 O396 2.266 . S
In390 O397 2.326 . S
In390 O398 2.266 . S
In390 O399 2.326 . S
In390 O401 2.294 . S
In390 O402 2.326 . S
O391 In390 2.294 . S
O391 C400 1.240 . S
O392 In390 2.326 . S
O392 C400 1.252 . S
C393 O396 1.252 . S
C393 O397 1.260 . S
C394 O401 1.240 . S
C394 O402 1.252 . S
C395 O398 1.252 . S
C395 O399 1.260 . S
O396 In390 2.266 . S
O396 C393 1.252 . S
O397 In390 2.326 . S
O397 C393 1.260 . S
O398 In390 2.266 . S
O398 C395 1.252 . S
O399 In390 2.326 . S
O399 C395 1.260 . S
C400 O391 1.240 . S
C400 O392 1.252 . S
O401 In390 2.294 . S
O401 C394 1.240 . S
O402 In390 2.326 . S
O402 C394 1.252 . S
In403 O404 2.294 . S
In403 O405 2.326 . S
In403 O409 2.266 . S
In403 O410 2.326 . S
In403 O411 2.266 . S
In403 O412 2.326 . S
In403 O414 2.294 . S
In403 O415 2.326 . S
O404 In403 2.294 . S
O404 C413 1.240 . S
O405 In403 2.326 . S
O405 C413 1.252 . S
C406 O409 1.252 . S
C406 O410 1.260 . S
C407 O414 1.240 . S
C407 O415 1.252 . S
C408 O411 1.252 . S
C408 O412 1.260 . S
O409 In403 2.266 . S
O409 C406 1.252 . S
O410 In403 2.326 . S
O410 C406 1.260 . S
O411 In403 2.266 . S
O411 C408 1.252 . S
O412 In403 2.326 . S
O412 C408 1.260 . S
C413 O404 1.240 . S
C413 O405 1.252 . S
O414 In403 2.294 . S
O414 C407 1.240 . S
O415 In403 2.326 . S
O415 C407 1.252 . S
In416 O417 2.294 . S
In416 O418 2.326 . S
In416 O422 2.266 . S
In416 O423 2.326 . S
In416 O424 2.266 . S
In416 O425 2.326 . S
In416 O427 2.294 . S
In416 O428 2.326 . S
O417 In416 2.294 . S
O417 C426 1.240 . S
O418 In416 2.326 . S
O418 C426 1.252 . S
C419 O422 1.252 . S
C419 O423 1.260 . S
C420 O427 1.240 . S
C420 O428 1.252 . S
C421 O424 1.252 . S
C421 O425 1.260 . S
O422 In416 2.266 . S
O422 C419 1.252 . S
O423 In416 2.326 . S
O423 C419 1.260 . S
O424 In416 2.266 . S
O424 C421 1.252 . S
O425 In416 2.326 . S
O425 C421 1.260 . S
C426 O417 1.240 . S
C426 O418 1.252 . S
O427 In416 2.294 . S
O427 C420 1.240 . S
O428 In416 2.326 . S
O428 C420 1.252 . S
In429 O430 2.294 . S
In429 O431 2.326 . S
In429 O435 2.266 . S
In429 O436 2.326 . S
In429 O437 2.266 . S
In429 O438 2.326 . S
In429 O440 2.294 . S
In429 O441 2.326 . S
O430 In429 2.294 . S
O430 C439 1.240 . S
O431 In429 2.326 . S
O431 C439 1.252 . S
C432 O435 1.252 . S
C432 O436 1.260 . S
C433 O440 1.240 . S
C433 O441 1.252 . S
C434 O437 1.252 . S
C434 O438 1.260 . S
O435 In429 2.266 . S
O435 C432 1.252 . S
O436 In429 2.326 . S
O436 C432 1.260 . S
O437 In429 2.266 . S
O437 C434 1.252 . S
O438 In429 2.326 . S
O438 C434 1.260 . S
C439 O430 1.240 . S
C439 O431 1.252 . S
O440 In429 2.294 . S
O440 C433 1.240 . S
O441 In429 2.326 . S
O441 C433 1.252 . S
In442 O443 2.294 . S
In442 O444 2.326 . S
In442 O448 2.266 . S
In442 O449 2.326 . S
In442 O450 2.266 . S
In442 O451 2.326 . S
In442 O453 2.294 . S
In442 O454 2.326 . S
O443 In442 2.294 . S
O443 C452 1.240 . S
O444 In442 2.326 . S
O444 C452 1.252 . S
C445 O448 1.252 . S
C445 O449 1.260 . S
C446 O453 1.240 . S
C446 O454 1.252 . S
C447 O450 1.252 . S
C447 O451 1.260 . S
O448 In442 2.266 . S
O448 C445 1.252 . S
O449 In442 2.326 . S
O449 C445 1.260 . S
O450 In442 2.266 . S
O450 C447 1.252 . S
O451 In442 2.326 . S
O451 C447 1.260 . S
C452 O443 1.240 . S
C452 O444 1.252 . S
O453 In442 2.294 . S
O453 C446 1.240 . S
O454 In442 2.326 . S
O454 C446 1.252 . S
In455 O456 2.294 . S
In455 O457 2.326 . S
In455 O461 2.266 . S
In455 O462 2.326 . S
In455 O463 2.266 . S
In455 O464 2.326 . S
In455 O466 2.294 . S
In455 O467 2.326 . S
O456 In455 2.294 . S
O456 C465 1.240 . S
O457 In455 2.326 . S
O457 C465 1.252 . S
C458 O461 1.252 . S
C458 O462 1.260 . S
C459 O466 1.240 . S
C459 O467 1.252 . S
C460 O463 1.252 . S
C460 O464 1.260 . S
O461 In455 2.266 . S
O461 C458 1.252 . S
O462 In455 2.326 . S
O462 C458 1.260 . S
O463 In455 2.266 . S
O463 C460 1.252 . S
O464 In455 2.326 . S
O464 C460 1.260 . S
C465 O456 1.240 . S
C465 O457 1.252 . S
O466 In455 2.294 . S
O466 C459 1.240 . S
O467 In455 2.326 . S
O467 C459 1.252 . S
In468 O469 2.294 . S
In468 O470 2.326 . S
In468 O474 2.266 . S
In468 O475 2.326 . S
In468 O476 2.266 . S
In468 O477 2.326 . S
In468 O479 2.294 . S
In468 O480 2.326 . S
O469 In468 2.294 . S
O469 C478 1.240 . S
O470 In468 2.326 . S
O470 C478 1.252 . S
C471 O474 1.252 . S
C471 O475 1.260 . S
C472 O479 1.240 . S
C472 O480 1.252 . S
C473 O476 1.252 . S
C473 O477 1.260 . S
O474 In468 2.266 . S
O474 C471 1.252 . S
O475 In468 2.326 . S
O475 C471 1.260 . S
O476 In468 2.266 . S
O476 C473 1.252 . S
O477 In468 2.326 . S
O477 C473 1.260 . S
C478 O469 1.240 . S
C478 O470 1.252 . S
O479 In468 2.294 . S
O479 C472 1.240 . S
O480 In468 2.326 . S
O480 C472 1.252 . S
In481 O482 2.294 . S
In481 O483 2.326 . S
In481 O487 2.266 . S
In481 O488 2.326 . S
In481 O489 2.266 . S
In481 O490 2.326 . S
In481 O492 2.294 . S
In481 O493 2.326 . S
O482 In481 2.294 . S
O482 C491 1.240 . S
O483 In481 2.326 . S
O483 C491 1.252 . S
C484 O487 1.252 . S
C484 O488 1.260 . S
C485 O492 1.240 . S
C485 O493 1.252 . S
C486 O489 1.252 . S
C486 O490 1.260 . S
O487 In481 2.266 . S
O487 C484 1.252 . S
O488 In481 2.326 . S
O488 C484 1.260 . S
O489 In481 2.266 . S
O489 C486 1.252 . S
O490 In481 2.326 . S
O490 C486 1.260 . S
C491 O482 1.240 . S
C491 O483 1.252 . S
O492 In481 2.294 . S
O492 C485 1.240 . S
O493 In481 2.326 . S
O493 C485 1.252 . S
In494 O495 2.294 . S
In494 O496 2.326 . S
In494 O500 2.266 . S
In494 O501 2.326 . S
In494 O502 2.266 . S
In494 O503 2.326 . S
In494 O505 2.294 . S
In494 O506 2.326 . S
O495 In494 2.294 . S
O495 C504 1.240 . S
O496 In494 2.326 . S
O496 C504 1.252 . S
C497 O500 1.252 . S
C497 O501 1.260 . S
C498 O505 1.240 . S
C498 O506 1.252 . S
C499 O502 1.252 . S
C499 O503 1.260 . S
O500 In494 2.266 . S
O500 C497 1.252 . S
O501 In494 2.326 . S
O501 C497 1.260 . S
O502 In494 2.266 . S
O502 C499 1.252 . S
O503 In494 2.326 . S
O503 C499 1.260 . S
C504 O495 1.240 . S
C504 O496 1.252 . S
O505 In494 2.294 . S
O505 C498 1.240 . S
O506 In494 2.326 . S
O506 C498 1.252 . S
In507 O508 2.294 . S
In507 O509 2.326 . S
In507 O513 2.266 . S
In507 O514 2.326 . S
In507 O515 2.266 . S
In507 O516 2.326 . S
In507 O518 2.294 . S
In507 O519 2.326 . S
O508 In507 2.294 . S
O508 C517 1.240 . S
O509 In507 2.326 . S
O509 C517 1.252 . S
C510 O513 1.252 . S
C510 O514 1.260 . S
C511 O518 1.240 . S
C511 O519 1.252 . S
C512 O515 1.252 . S
C512 O516 1.260 . S
O513 In507 2.266 . S
O513 C510 1.252 . S
O514 In507 2.326 . S
O514 C510 1.260 . S
O515 In507 2.266 . S
O515 C512 1.252 . S
O516 In507 2.326 . S
O516 C512 1.260 . S
C517 O508 1.240 . S
C517 O509 1.252 . S
O518 In507 2.294 . S
O518 C511 1.240 . S
O519 In507 2.326 . S
O519 C511 1.252 . S
In520 O521 2.294 . S
In520 O522 2.326 . S
In520 O526 2.266 . S
In520 O527 2.326 . S
In520 O528 2.266 . S
In520 O529 2.326 . S
In520 O531 2.294 . S
In520 O532 2.326 . S
O521 In520 2.294 . S
O521 C530 1.240 . S
O522 In520 2.326 . S
O522 C530 1.252 . S
C523 O526 1.252 . S
C523 O527 1.260 . S
C524 O531 1.240 . S
C524 O532 1.252 . S
C525 O528 1.252 . S
C525 O529 1.260 . S
O526 In520 2.266 . S
O526 C523 1.252 . S
O527 In520 2.326 . S
O527 C523 1.260 . S
O528 In520 2.266 . S
O528 C525 1.252 . S
O529 In520 2.326 . S
O529 C525 1.260 . S
C530 O521 1.240 . S
C530 O522 1.252 . S
O531 In520 2.294 . S
O531 C524 1.240 . S
O532 In520 2.326 . S
O532 C524 1.252 . S
In533 O534 2.294 . S
In533 O535 2.326 . S
In533 O539 2.266 . S
In533 O540 2.326 . S
In533 O541 2.266 . S
In533 O542 2.326 . S
In533 O544 2.294 . S
In533 O545 2.326 . S
O534 In533 2.294 . S
O534 C543 1.240 . S
O535 In533 2.326 . S
O535 C543 1.252 . S
C536 O539 1.252 . S
C536 O540 1.260 . S
C537 O544 1.240 . S
C537 O545 1.252 . S
C538 O541 1.252 . S
C538 O542 1.260 . S
O539 In533 2.266 . S
O539 C536 1.252 . S
O540 In533 2.326 . S
O540 C536 1.260 . S
O541 In533 2.266 . S
O541 C538 1.252 . S
O542 In533 2.326 . S
O542 C538 1.260 . S
C543 O534 1.240 . S
C543 O535 1.252 . S
O544 In533 2.294 . S
O544 C537 1.240 . S
O545 In533 2.326 . S
O545 C537 1.252 . S
In546 O547 2.294 . S
In546 O548 2.326 . S
In546 O552 2.266 . S
In546 O553 2.326 . S
In546 O554 2.266 . S
In546 O555 2.326 . S
In546 O557 2.294 . S
In546 O558 2.326 . S
O547 In546 2.294 . S
O547 C556 1.240 . S
O548 In546 2.326 . S
O548 C556 1.252 . S
C549 O552 1.252 . S
C549 O553 1.260 . S
C550 O557 1.240 . S
C550 O558 1.252 . S
C551 O554 1.252 . S
C551 O555 1.260 . S
O552 In546 2.266 . S
O552 C549 1.252 . S
O553 In546 2.326 . S
O553 C549 1.260 . S
O554 In546 2.266 . S
O554 C551 1.252 . S
O555 In546 2.326 . S
O555 C551 1.260 . S
C556 O547 1.240 . S
C556 O548 1.252 . S
O557 In546 2.294 . S
O557 C550 1.240 . S
O558 In546 2.326 . S
O558 C550 1.252 . S
In559 O560 2.294 . S
In559 O561 2.326 . S
In559 O565 2.266 . S
In559 O566 2.326 . S
In559 O567 2.266 . S
In559 O568 2.326 . S
In559 O570 2.294 . S
In559 O571 2.326 . S
O560 In559 2.294 . S
O560 C569 1.240 . S
O561 In559 2.326 . S
O561 C569 1.252 . S
C562 O565 1.252 . S
C562 O566 1.260 . S
C563 O570 1.240 . S
C563 O571 1.252 . S
C564 O567 1.252 . S
C564 O568 1.260 . S
O565 In559 2.266 . S
O565 C562 1.252 . S
O566 In559 2.326 . S
O566 C562 1.260 . S
O567 In559 2.266 . S
O567 C564 1.252 . S
O568 In559 2.326 . S
O568 C564 1.260 . S
C569 O560 1.240 . S
C569 O561 1.252 . S
O570 In559 2.294 . S
O570 C563 1.240 . S
O571 In559 2.326 . S
O571 C563 1.252 . S
In572 O573 2.294 . S
In572 O574 2.326 . S
In572 O578 2.266 . S
In572 O579 2.326 . S
In572 O580 2.266 . S
In572 O581 2.326 . S
In572 O583 2.294 . S
In572 O584 2.326 . S
O573 In572 2.294 . S
O573 C582 1.240 . S
O574 In572 2.326 . S
O574 C582 1.252 . S
C575 O578 1.252 . S
C575 O579 1.260 . S
C576 O583 1.240 . S
C576 O584 1.252 . S
C577 O580 1.252 . S
C577 O581 1.260 . S
O578 In572 2.266 . S
O578 C575 1.252 . S
O579 In572 2.326 . S
O579 C575 1.260 . S
O580 In572 2.266 . S
O580 C577 1.252 . S
O581 In572 2.326 . S
O581 C577 1.260 . S
C582 O573 1.240 . S
C582 O574 1.252 . S
O583 In572 2.294 . S
O583 C576 1.240 . S
O584 In572 2.326 . S
O584 C576 1.252 . S
In585 O586 2.294 . S
In585 O587 2.326 . S
In585 O591 2.266 . S
In585 O592 2.326 . S
In585 O593 2.266 . S
In585 O594 2.326 . S
In585 O596 2.294 . S
In585 O597 2.326 . S
O586 In585 2.294 . S
O586 C595 1.240 . S
O587 In585 2.326 . S
O587 C595 1.252 . S
C588 O591 1.252 . S
C588 O592 1.260 . S
C589 O596 1.240 . S
C589 O597 1.252 . S
C590 O593 1.252 . S
C590 O594 1.260 . S
O591 In585 2.266 . S
O591 C588 1.252 . S
O592 In585 2.326 . S
O592 C588 1.260 . S
O593 In585 2.266 . S
O593 C590 1.252 . S
O594 In585 2.326 . S
O594 C590 1.260 . S
C595 O586 1.240 . S
C595 O587 1.252 . S
O596 In585 2.294 . S
O596 C589 1.240 . S
O597 In585 2.326 . S
O597 C589 1.252 . S
In598 O599 2.294 . S
In598 O600 2.326 . S
In598 O604 2.266 . S
In598 O605 2.326 . S
In598 O606 2.266 . S
In598 O607 2.326 . S
In598 O609 2.294 . S
In598 O610 2.326 . S
O599 In598 2.294 . S
O599 C608 1.240 . S
O600 In598 2.326 . S
O600 C608 1.252 . S
C601 O604 1.252 . S
C601 O605 1.260 . S
C602 O609 1.240 . S
C602 O610 1.252 . S
C603 O606 1.252 . S
C603 O607 1.260 . S
O604 In598 2.266 . S
O604 C601 1.252 . S
O605 In598 2.326 . S
O605 C601 1.260 . S
O606 In598 2.266 . S
O606 C603 1.252 . S
O607 In598 2.326 . S
O607 C603 1.260 . S
C608 O599 1.240 . S
C608 O600 1.252 . S
O609 In598 2.294 . S
O609 C602 1.240 . S
O610 In598 2.326 . S
O610 C602 1.252 . S
In611 O612 2.294 . S
In611 O613 2.326 . S
In611 O617 2.266 . S
In611 O618 2.326 . S
In611 O619 2.266 . S
In611 O620 2.326 . S
In611 O622 2.294 . S
In611 O623 2.326 . S
O612 In611 2.294 . S
O612 C621 1.240 . S
O613 In611 2.326 . S
O613 C621 1.252 . S
C614 O617 1.252 . S
C614 O618 1.260 . S
C615 O622 1.240 . S
C615 O623 1.252 . S
C616 O619 1.252 . S
C616 O620 1.260 . S
O617 In611 2.266 . S
O617 C614 1.252 . S
O618 In611 2.326 . S
O618 C614 1.260 . S
O619 In611 2.266 . S
O619 C616 1.252 . S
O620 In611 2.326 . S
O620 C616 1.260 . S
C621 O612 1.240 . S
C621 O613 1.252 . S
O622 In611 2.294 . S
O622 C615 1.240 . S
O623 In611 2.326 . S
O623 C615 1.252 . S
C624 C625 1.391 . S
C624 C626 1.394 . S
C624 H640 0.931 . S
C625 C624 1.391 . S
C625 C629 1.376 . S
C626 C624 1.394 . S
C626 C627 1.369 . S
C626 C630 1.531 . S
C627 C626 1.369 . S
C627 C628 1.410 . S
C627 C635 1.503 . S
C628 C627 1.410 . S
C628 C629 1.392 . S
C628 C631 1.511 . S
C629 C625 1.376 . S
C629 C628 1.392 . S
C629 H641 0.929 . S
C630 C626 1.531 . S
C630 H642 0.960 . S
C630 H643 0.962 . S
C630 H644 0.960 . S
C631 C628 1.511 . S
C631 H645 0.961 . S
C631 H646 0.961 . S
C631 H647 0.961 . S
C632 C633 1.370 . S
C632 C634 1.363 . S
C632 H648 0.931 . S
C633 C632 1.370 . S
C633 C637 1.408 . S
C634 C632 1.363 . S
C634 C635 1.370 . S
C634 C638 1.524 . S
C635 C627 1.503 . S
C635 C634 1.370 . S
C635 C636 1.403 . S
C636 C635 1.403 . S
C636 C637 1.404 . S
C636 C639 1.539 . S
C637 C633 1.408 . S
C637 C636 1.404 . S
C637 H649 0.930 . S
C638 C634 1.524 . S
C638 H650 0.956 . S
C638 H651 0.961 . S
C638 H652 0.961 . S
C639 C636 1.539 . S
C639 H653 0.958 . S
C639 H654 0.961 . S
C639 H655 0.960 . S
H640 C624 0.931 . S
H641 C629 0.929 . S
H642 C630 0.960 . S
H643 C630 0.962 . S
H644 C630 0.960 . S
H645 C631 0.961 . S
H646 C631 0.961 . S
H647 C631 0.961 . S
H648 C632 0.931 . S
H649 C637 0.930 . S
H650 C638 0.956 . S
H651 C638 0.961 . S
H652 C638 0.961 . S
H653 C639 0.958 . S
H654 C639 0.961 . S
H655 C639 0.960 . S
C656 C657 1.391 . S
C656 C658 1.394 . S
C656 H672 0.931 . S
C657 C656 1.391 . S
C657 C661 1.376 . S
C658 C656 1.394 . S
C658 C659 1.369 . S
C658 C662 1.531 . S
C659 C658 1.369 . S
C659 C660 1.410 . S
C659 C667 1.503 . S
C660 C659 1.410 . S
C660 C661 1.392 . S
C660 C663 1.511 . S
C661 C657 1.376 . S
C661 C660 1.392 . S
C661 H673 0.929 . S
C662 C658 1.531 . S
C662 H674 0.960 . S
C662 H675 0.962 . S
C662 H676 0.960 . S
C663 C660 1.511 . S
C663 H677 0.961 . S
C663 H678 0.961 . S
C663 H679 0.961 . S
C664 C665 1.370 . S
C664 C666 1.363 . S
C664 H680 0.931 . S
C665 C664 1.370 . S
C665 C669 1.408 . S
C666 C664 1.363 . S
C666 C667 1.370 . S
C666 C670 1.524 . S
C667 C659 1.503 . S
C667 C666 1.370 . S
C667 C668 1.403 . S
C668 C667 1.403 . S
C668 C669 1.404 . S
C668 C671 1.539 . S
C669 C665 1.408 . S
C669 C668 1.404 . S
C669 H681 0.930 . S
C670 C666 1.524 . S
C670 H682 0.956 . S
C670 H683 0.961 . S
C670 H684 0.961 . S
C671 C668 1.539 . S
C671 H685 0.958 . S
C671 H686 0.961 . S
C671 H687 0.960 . S
H672 C656 0.931 . S
H673 C661 0.929 . S
H674 C662 0.960 . S
H675 C662 0.962 . S
H676 C662 0.960 . S
H677 C663 0.961 . S
H678 C663 0.961 . S
H679 C663 0.961 . S
H680 C664 0.931 . S
H681 C669 0.930 . S
H682 C670 0.956 . S
H683 C670 0.961 . S
H684 C670 0.961 . S
H685 C671 0.958 . S
H686 C671 0.961 . S
H687 C671 0.960 . S
C688 C689 1.391 . S
C688 C690 1.394 . S
C688 H704 0.931 . S
C689 C688 1.391 . S
C689 C693 1.376 . S
C690 C688 1.394 . S
C690 C691 1.369 . S
C690 C694 1.531 . S
C691 C690 1.369 . S
C691 C692 1.410 . S
C691 C699 1.503 . S
C692 C691 1.410 . S
C692 C693 1.392 . S
C692 C695 1.511 . S
C693 C689 1.376 . S
C693 C692 1.392 . S
C693 H705 0.929 . S
C694 C690 1.531 . S
C694 H706 0.960 . S
C694 H707 0.962 . S
C694 H708 0.960 . S
C695 C692 1.511 . S
C695 H709 0.961 . S
C695 H710 0.961 . S
C695 H711 0.961 . S
C696 C697 1.370 . S
C696 C698 1.363 . S
C696 H712 0.931 . S
C697 C696 1.370 . S
C697 C701 1.408 . S
C698 C696 1.363 . S
C698 C699 1.370 . S
C698 C702 1.524 . S
C699 C691 1.503 . S
C699 C698 1.370 . S
C699 C700 1.403 . S
C700 C699 1.403 . S
C700 C701 1.404 . S
C700 C703 1.539 . S
C701 C697 1.408 . S
C701 C700 1.404 . S
C701 H713 0.930 . S
C702 C698 1.524 . S
C702 H714 0.956 . S
C702 H715 0.961 . S
C702 H716 0.961 . S
C703 C700 1.539 . S
C703 H717 0.958 . S
C703 H718 0.961 . S
C703 H719 0.960 . S
H704 C688 0.931 . S
H705 C693 0.929 . S
H706 C694 0.960 . S
H707 C694 0.962 . S
H708 C694 0.960 . S
H709 C695 0.961 . S
H710 C695 0.961 . S
H711 C695 0.961 . S
H712 C696 0.931 . S
H713 C701 0.930 . S
H714 C702 0.956 . S
H715 C702 0.961 . S
H716 C702 0.961 . S
H717 C703 0.958 . S
H718 C703 0.961 . S
H719 C703 0.960 . S
C720 C721 1.391 . S
C720 C722 1.394 . S
C720 H736 0.931 . S
C721 C720 1.391 . S
C721 C725 1.376 . S
C722 C720 1.394 . S
C722 C723 1.369 . S
C722 C726 1.531 . S
C723 C722 1.369 . S
C723 C724 1.410 . S
C723 C731 1.503 . S
C724 C723 1.410 . S
C724 C725 1.392 . S
C724 C727 1.511 . S
C725 C721 1.376 . S
C725 C724 1.392 . S
C725 H737 0.929 . S
C726 C722 1.531 . S
C726 H738 0.960 . S
C726 H739 0.962 . S
C726 H740 0.960 . S
C727 C724 1.511 . S
C727 H741 0.961 . S
C727 H742 0.961 . S
C727 H743 0.961 . S
C728 C729 1.370 . S
C728 C730 1.363 . S
C728 H744 0.931 . S
C729 C728 1.370 . S
C729 C733 1.408 . S
C730 C728 1.363 . S
C730 C731 1.370 . S
C730 C734 1.524 . S
C731 C723 1.503 . S
C731 C730 1.370 . S
C731 C732 1.403 . S
C732 C731 1.403 . S
C732 C733 1.404 . S
C732 C735 1.539 . S
C733 C729 1.408 . S
C733 C732 1.404 . S
C733 H745 0.930 . S
C734 C730 1.524 . S
C734 H746 0.956 . S
C734 H747 0.961 . S
C734 H748 0.961 . S
C735 C732 1.539 . S
C735 H749 0.958 . S
C735 H750 0.961 . S
C735 H751 0.960 . S
H736 C720 0.931 . S
H737 C725 0.929 . S
H738 C726 0.960 . S
H739 C726 0.962 . S
H740 C726 0.960 . S
H741 C727 0.961 . S
H742 C727 0.961 . S
H743 C727 0.961 . S
H744 C728 0.931 . S
H745 C733 0.930 . S
H746 C734 0.956 . S
H747 C734 0.961 . S
H748 C734 0.961 . S
H749 C735 0.958 . S
H750 C735 0.961 . S
H751 C735 0.960 . S
C752 C753 1.391 . S
C752 C754 1.394 . S
C752 H768 0.931 . S
C753 C752 1.391 . S
C753 C757 1.376 . S
C754 C752 1.394 . S
C754 C755 1.369 . S
C754 C758 1.531 . S
C755 C754 1.369 . S
C755 C756 1.410 . S
C755 C763 1.503 . S
C756 C755 1.410 . S
C756 C757 1.392 . S
C756 C759 1.511 . S
C757 C753 1.376 . S
C757 C756 1.392 . S
C757 H769 0.929 . S
C758 C754 1.531 . S
C758 H770 0.960 . S
C758 H771 0.962 . S
C758 H772 0.960 . S
C759 C756 1.511 . S
C759 H773 0.961 . S
C759 H774 0.961 . S
C759 H775 0.961 . S
C760 C761 1.370 . S
C760 C762 1.363 . S
C760 H776 0.931 . S
C761 C760 1.370 . S
C761 C765 1.408 . S
C762 C760 1.363 . S
C762 C763 1.370 . S
C762 C766 1.524 . S
C763 C755 1.503 . S
C763 C762 1.370 . S
C763 C764 1.403 . S
C764 C763 1.403 . S
C764 C765 1.404 . S
C764 C767 1.539 . S
C765 C761 1.408 . S
C765 C764 1.404 . S
C765 H777 0.930 . S
C766 C762 1.524 . S
C766 H778 0.956 . S
C766 H779 0.961 . S
C766 H780 0.961 . S
C767 C764 1.539 . S
C767 H781 0.958 . S
C767 H782 0.961 . S
C767 H783 0.960 . S
H768 C752 0.931 . S
H769 C757 0.929 . S
H770 C758 0.960 . S
H771 C758 0.962 . S
H772 C758 0.960 . S
H773 C759 0.961 . S
H774 C759 0.961 . S
H775 C759 0.961 . S
H776 C760 0.931 . S
H777 C765 0.930 . S
H778 C766 0.956 . S
H779 C766 0.961 . S
H780 C766 0.961 . S
H781 C767 0.958 . S
H782 C767 0.961 . S
H783 C767 0.960 . S
C784 C785 1.391 . S
C784 C786 1.394 . S
C784 H800 0.931 . S
C785 C784 1.391 . S
C785 C789 1.376 . S
C786 C784 1.394 . S
C786 C787 1.369 . S
C786 C790 1.531 . S
C787 C786 1.369 . S
C787 C788 1.410 . S
C787 C795 1.503 . S
C788 C787 1.410 . S
C788 C789 1.392 . S
C788 C791 1.511 . S
C789 C785 1.376 . S
C789 C788 1.392 . S
C789 H801 0.929 . S
C790 C786 1.531 . S
C790 H802 0.960 . S
C790 H803 0.962 . S
C790 H804 0.960 . S
C791 C788 1.511 . S
C791 H805 0.961 . S
C791 H806 0.961 . S
C791 H807 0.961 . S
C792 C793 1.370 . S
C792 C794 1.363 . S
C792 H808 0.931 . S
C793 C792 1.370 . S
C793 C797 1.408 . S
C794 C792 1.363 . S
C794 C795 1.370 . S
C794 C798 1.524 . S
C795 C787 1.503 . S
C795 C794 1.370 . S
C795 C796 1.403 . S
C796 C795 1.403 . S
C796 C797 1.404 . S
C796 C799 1.539 . S
C797 C793 1.408 . S
C797 C796 1.404 . S
C797 H809 0.930 . S
C798 C794 1.524 . S
C798 H810 0.956 . S
C798 H811 0.961 . S
C798 H812 0.961 . S
C799 C796 1.539 . S
C799 H813 0.958 . S
C799 H814 0.961 . S
C799 H815 0.960 . S
H800 C784 0.931 . S
H801 C789 0.929 . S
H802 C790 0.960 . S
H803 C790 0.962 . S
H804 C790 0.960 . S
H805 C791 0.961 . S
H806 C791 0.961 . S
H807 C791 0.961 . S
H808 C792 0.931 . S
H809 C797 0.930 . S
H810 C798 0.956 . S
H811 C798 0.961 . S
H812 C798 0.961 . S
H813 C799 0.958 . S
H814 C799 0.961 . S
H815 C799 0.960 . S
C816 C817 1.391 . S
C816 C818 1.394 . S
C816 H832 0.931 . S
C817 C816 1.391 . S
C817 C821 1.376 . S
C818 C816 1.394 . S
C818 C819 1.369 . S
C818 C822 1.531 . S
C819 C818 1.369 . S
C819 C820 1.410 . S
C819 C827 1.503 . S
C820 C819 1.410 . S
C820 C821 1.392 . S
C820 C823 1.511 . S
C821 C817 1.376 . S
C821 C820 1.392 . S
C821 H833 0.929 . S
C822 C818 1.531 . S
C822 H834 0.960 . S
C822 H835 0.962 . S
C822 H836 0.960 . S
C823 C820 1.511 . S
C823 H837 0.961 . S
C823 H838 0.961 . S
C823 H839 0.961 . S
C824 C825 1.370 . S
C824 C826 1.363 . S
C824 H840 0.931 . S
C825 C824 1.370 . S
C825 C829 1.408 . S
C826 C824 1.363 . S
C826 C827 1.370 . S
C826 C830 1.524 . S
C827 C819 1.503 . S
C827 C826 1.370 . S
C827 C828 1.403 . S
C828 C827 1.403 . S
C828 C829 1.404 . S
C828 C831 1.539 . S
C829 C825 1.408 . S
C829 C828 1.404 . S
C829 H841 0.930 . S
C830 C826 1.524 . S
C830 H842 0.956 . S
C830 H843 0.961 . S
C830 H844 0.961 . S
C831 C828 1.539 . S
C831 H845 0.958 . S
C831 H846 0.961 . S
C831 H847 0.960 . S
H832 C816 0.931 . S
H833 C821 0.929 . S
H834 C822 0.960 . S
H835 C822 0.962 . S
H836 C822 0.960 . S
H837 C823 0.961 . S
H838 C823 0.961 . S
H839 C823 0.961 . S
H840 C824 0.931 . S
H841 C829 0.930 . S
H842 C830 0.956 . S
H843 C830 0.961 . S
H844 C830 0.961 . S
H845 C831 0.958 . S
H846 C831 0.961 . S
H847 C831 0.960 . S
C848 C849 1.391 . S
C848 C850 1.394 . S
C848 H864 0.931 . S
C849 C848 1.391 . S
C849 C853 1.376 . S
C850 C848 1.394 . S
C850 C851 1.369 . S
C850 C854 1.531 . S
C851 C850 1.369 . S
C851 C852 1.410 . S
C851 C859 1.503 . S
C852 C851 1.410 . S
C852 C853 1.392 . S
C852 C855 1.511 . S
C853 C849 1.376 . S
C853 C852 1.392 . S
C853 H865 0.929 . S
C854 C850 1.531 . S
C854 H866 0.960 . S
C854 H867 0.962 . S
C854 H868 0.960 . S
C855 C852 1.511 . S
C855 H869 0.961 . S
C855 H870 0.961 . S
C855 H871 0.961 . S
C856 C857 1.370 . S
C856 C858 1.363 . S
C856 H872 0.931 . S
C857 C856 1.370 . S
C857 C861 1.408 . S
C858 C856 1.363 . S
C858 C859 1.370 . S
C858 C862 1.524 . S
C859 C851 1.503 . S
C859 C858 1.370 . S
C859 C860 1.403 . S
C860 C859 1.403 . S
C860 C861 1.404 . S
C860 C863 1.539 . S
C861 C857 1.408 . S
C861 C860 1.404 . S
C861 H873 0.930 . S
C862 C858 1.524 . S
C862 H874 0.956 . S
C862 H875 0.961 . S
C862 H876 0.961 . S
C863 C860 1.539 . S
C863 H877 0.958 . S
C863 H878 0.961 . S
C863 H879 0.960 . S
H864 C848 0.931 . S
H865 C853 0.929 . S
H866 C854 0.960 . S
H867 C854 0.962 . S
H868 C854 0.960 . S
H869 C855 0.961 . S
H870 C855 0.961 . S
H871 C855 0.961 . S
H872 C856 0.931 . S
H873 C861 0.930 . S
H874 C862 0.956 . S
H875 C862 0.961 . S
H876 C862 0.961 . S
H877 C863 0.958 . S
H878 C863 0.961 . S
H879 C863 0.960 . S
C880 C881 1.391 . S
C880 C882 1.394 . S
C880 H896 0.931 . S
C881 C880 1.391 . S
C881 C885 1.376 . S
C882 C880 1.394 . S
C882 C883 1.369 . S
C882 C886 1.531 . S
C883 C882 1.369 . S
C883 C884 1.410 . S
C883 C891 1.503 . S
C884 C883 1.410 . S
C884 C885 1.392 . S
C884 C887 1.511 . S
C885 C881 1.376 . S
C885 C884 1.392 . S
C885 H897 0.929 . S
C886 C882 1.531 . S
C886 H898 0.960 . S
C886 H899 0.962 . S
C886 H900 0.960 . S
C887 C884 1.511 . S
C887 H901 0.961 . S
C887 H902 0.961 . S
C887 H903 0.961 . S
C888 C889 1.370 . S
C888 C890 1.363 . S
C888 H904 0.931 . S
C889 C888 1.370 . S
C889 C893 1.408 . S
C890 C888 1.363 . S
C890 C891 1.370 . S
C890 C894 1.524 . S
C891 C883 1.503 . S
C891 C890 1.370 . S
C891 C892 1.403 . S
C892 C891 1.403 . S
C892 C893 1.404 . S
C892 C895 1.539 . S
C893 C889 1.408 . S
C893 C892 1.404 . S
C893 H905 0.930 . S
C894 C890 1.524 . S
C894 H906 0.956 . S
C894 H907 0.961 . S
C894 H908 0.961 . S
C895 C892 1.539 . S
C895 H909 0.958 . S
C895 H910 0.961 . S
C895 H911 0.960 . S
H896 C880 0.931 . S
H897 C885 0.929 . S
H898 C886 0.960 . S
H899 C886 0.962 . S
H900 C886 0.960 . S
H901 C887 0.961 . S
H902 C887 0.961 . S
H903 C887 0.961 . S
H904 C888 0.931 . S
H905 C893 0.930 . S
H906 C894 0.956 . S
H907 C894 0.961 . S
H908 C894 0.961 . S
H909 C895 0.958 . S
H910 C895 0.961 . S
H911 C895 0.960 . S
C912 C913 1.391 . S
C912 C914 1.394 . S
C912 H928 0.931 . S
C913 C912 1.391 . S
C913 C917 1.376 . S
C914 C912 1.394 . S
C914 C915 1.369 . S
C914 C918 1.531 . S
C915 C914 1.369 . S
C915 C916 1.410 . S
C915 C923 1.503 . S
C916 C915 1.410 . S
C916 C917 1.392 . S
C916 C919 1.511 . S
C917 C913 1.376 . S
C917 C916 1.392 . S
C917 H929 0.929 . S
C918 C914 1.531 . S
C918 H930 0.960 . S
C918 H931 0.962 . S
C918 H932 0.960 . S
C919 C916 1.511 . S
C919 H933 0.961 . S
C919 H934 0.961 . S
C919 H935 0.961 . S
C920 C921 1.370 . S
C920 C922 1.363 . S
C920 H936 0.931 . S
C921 C920 1.370 . S
C921 C925 1.408 . S
C922 C920 1.363 . S
C922 C923 1.370 . S
C922 C926 1.524 . S
C923 C915 1.503 . S
C923 C922 1.370 . S
C923 C924 1.403 . S
C924 C923 1.403 . S
C924 C925 1.404 . S
C924 C927 1.539 . S
C925 C921 1.408 . S
C925 C924 1.404 . S
C925 H937 0.930 . S
C926 C922 1.524 . S
C926 H938 0.956 . S
C926 H939 0.961 . S
C926 H940 0.961 . S
C927 C924 1.539 . S
C927 H941 0.958 . S
C927 H942 0.961 . S
C927 H943 0.960 . S
H928 C912 0.931 . S
H929 C917 0.929 . S
H930 C918 0.960 . S
H931 C918 0.962 . S
H932 C918 0.960 . S
H933 C919 0.961 . S
H934 C919 0.961 . S
H935 C919 0.961 . S
H936 C920 0.931 . S
H937 C925 0.930 . S
H938 C926 0.956 . S
H939 C926 0.961 . S
H940 C926 0.961 . S
H941 C927 0.958 . S
H942 C927 0.961 . S
H943 C927 0.960 . S
C944 C945 1.391 . S
C944 C946 1.394 . S
C944 H960 0.931 . S
C945 C944 1.391 . S
C945 C949 1.376 . S
C946 C944 1.394 . S
C946 C947 1.369 . S
C946 C950 1.531 . S
C947 C946 1.369 . S
C947 C948 1.410 . S
C947 C955 1.503 . S
C948 C947 1.410 . S
C948 C949 1.392 . S
C948 C951 1.511 . S
C949 C945 1.376 . S
C949 C948 1.392 . S
C949 H961 0.929 . S
C950 C946 1.531 . S
C950 H962 0.960 . S
C950 H963 0.962 . S
C950 H964 0.960 . S
C951 C948 1.511 . S
C951 H965 0.961 . S
C951 H966 0.961 . S
C951 H967 0.961 . S
C952 C953 1.370 . S
C952 C954 1.363 . S
C952 H968 0.931 . S
C953 C952 1.370 . S
C953 C957 1.408 . S
C954 C952 1.363 . S
C954 C955 1.370 . S
C954 C958 1.524 . S
C955 C947 1.503 . S
C955 C954 1.370 . S
C955 C956 1.403 . S
C956 C955 1.403 . S
C956 C957 1.404 . S
C956 C959 1.539 . S
C957 C953 1.408 . S
C957 C956 1.404 . S
C957 H969 0.930 . S
C958 C954 1.524 . S
C958 H970 0.956 . S
C958 H971 0.961 . S
C958 H972 0.961 . S
C959 C956 1.539 . S
C959 H973 0.958 . S
C959 H974 0.961 . S
C959 H975 0.960 . S
H960 C944 0.931 . S
H961 C949 0.929 . S
H962 C950 0.960 . S
H963 C950 0.962 . S
H964 C950 0.960 . S
H965 C951 0.961 . S
H966 C951 0.961 . S
H967 C951 0.961 . S
H968 C952 0.931 . S
H969 C957 0.930 . S
H970 C958 0.956 . S
H971 C958 0.961 . S
H972 C958 0.961 . S
H973 C959 0.958 . S
H974 C959 0.961 . S
H975 C959 0.960 . S
C976 C977 1.391 . S
C976 C978 1.394 . S
C976 H992 0.931 . S
C977 C976 1.391 . S
C977 C981 1.376 . S
C978 C976 1.394 . S
C978 C979 1.369 . S
C978 C982 1.531 . S
C979 C978 1.369 . S
C979 C980 1.410 . S
C979 C987 1.503 . S
C980 C979 1.410 . S
C980 C981 1.392 . S
C980 C983 1.511 . S
C981 C977 1.376 . S
C981 C980 1.392 . S
C981 H993 0.929 . S
C982 C978 1.531 . S
C982 H994 0.960 . S
C982 H995 0.962 . S
C982 H996 0.960 . S
C983 C980 1.511 . S
C983 H997 0.961 . S
C983 H998 0.961 . S
C983 H999 0.961 . S
C984 C985 1.370 . S
C984 C986 1.363 . S
C984 H1000 0.931 . S
C985 C984 1.370 . S
C985 C989 1.408 . S
C986 C984 1.363 . S
C986 C987 1.370 . S
C986 C990 1.524 . S
C987 C979 1.503 . S
C987 C986 1.370 . S
C987 C988 1.403 . S
C988 C987 1.403 . S
C988 C989 1.404 . S
C988 C991 1.539 . S
C989 C985 1.408 . S
C989 C988 1.404 . S
C989 H1001 0.930 . S
C990 C986 1.524 . S
C990 H1002 0.956 . S
C990 H1003 0.961 . S
C990 H1004 0.961 . S
C991 C988 1.539 . S
C991 H1005 0.958 . S
C991 H1006 0.961 . S
C991 H1007 0.960 . S
H992 C976 0.931 . S
H993 C981 0.929 . S
H994 C982 0.960 . S
H995 C982 0.962 . S
H996 C982 0.960 . S
H997 C983 0.961 . S
H998 C983 0.961 . S
H999 C983 0.961 . S
H1000 C984 0.931 . S
H1001 C989 0.930 . S
H1002 C990 0.956 . S
H1003 C990 0.961 . S
H1004 C990 0.961 . S
H1005 C991 0.958 . S
H1006 C991 0.961 . S
H1007 C991 0.960 . S
C1008 C1009 1.391 . S
C1008 C1010 1.394 . S
C1008 H1024 0.931 . S
C1009 C1008 1.391 . S
C1009 C1013 1.376 . S
C1010 C1008 1.394 . S
C1010 C1011 1.369 . S
C1010 C1014 1.531 . S
C1011 C1010 1.369 . S
C1011 C1012 1.410 . S
C1011 C1019 1.503 . S
C1012 C1011 1.410 . S
C1012 C1013 1.392 . S
C1012 C1015 1.511 . S
C1013 C1009 1.376 . S
C1013 C1012 1.392 . S
C1013 H1025 0.929 . S
C1014 C1010 1.531 . S
C1014 H1026 0.960 . S
C1014 H1027 0.962 . S
C1014 H1028 0.960 . S
C1015 C1012 1.511 . S
C1015 H1029 0.961 . S
C1015 H1030 0.961 . S
C1015 H1031 0.961 . S
C1016 C1017 1.370 . S
C1016 C1018 1.363 . S
C1016 H1032 0.931 . S
C1017 C1016 1.370 . S
C1017 C1021 1.408 . S
C1018 C1016 1.363 . S
C1018 C1019 1.370 . S
C1018 C1022 1.524 . S
C1019 C1011 1.503 . S
C1019 C1018 1.370 . S
C1019 C1020 1.403 . S
C1020 C1019 1.403 . S
C1020 C1021 1.404 . S
C1020 C1023 1.539 . S
C1021 C1017 1.408 . S
C1021 C1020 1.404 . S
C1021 H1033 0.930 . S
C1022 C1018 1.524 . S
C1022 H1034 0.956 . S
C1022 H1035 0.961 . S
C1022 H1036 0.961 . S
C1023 C1020 1.539 . S
C1023 H1037 0.958 . S
C1023 H1038 0.961 . S
C1023 H1039 0.960 . S
H1024 C1008 0.931 . S
H1025 C1013 0.929 . S
H1026 C1014 0.960 . S
H1027 C1014 0.962 . S
H1028 C1014 0.960 . S
H1029 C1015 0.961 . S
H1030 C1015 0.961 . S
H1031 C1015 0.961 . S
H1032 C1016 0.931 . S
H1033 C1021 0.930 . S
H1034 C1022 0.956 . S
H1035 C1022 0.961 . S
H1036 C1022 0.961 . S
H1037 C1023 0.958 . S
H1038 C1023 0.961 . S
H1039 C1023 0.960 . S
C1040 C1041 1.391 . S
C1040 C1042 1.394 . S
C1040 H1056 0.931 . S
C1041 C1040 1.391 . S
C1041 C1045 1.376 . S
C1042 C1040 1.394 . S
C1042 C1043 1.369 . S
C1042 C1046 1.531 . S
C1043 C1042 1.369 . S
C1043 C1044 1.410 . S
C1043 C1051 1.503 . S
C1044 C1043 1.410 . S
C1044 C1045 1.392 . S
C1044 C1047 1.511 . S
C1045 C1041 1.376 . S
C1045 C1044 1.392 . S
C1045 H1057 0.929 . S
C1046 C1042 1.531 . S
C1046 H1058 0.960 . S
C1046 H1059 0.962 . S
C1046 H1060 0.960 . S
C1047 C1044 1.511 . S
C1047 H1061 0.961 . S
C1047 H1062 0.961 . S
C1047 H1063 0.961 . S
C1048 C1049 1.370 . S
C1048 C1050 1.363 . S
C1048 H1064 0.931 . S
C1049 C1048 1.370 . S
C1049 C1053 1.408 . S
C1050 C1048 1.363 . S
C1050 C1051 1.370 . S
C1050 C1054 1.524 . S
C1051 C1043 1.503 . S
C1051 C1050 1.370 . S
C1051 C1052 1.403 . S
C1052 C1051 1.403 . S
C1052 C1053 1.404 . S
C1052 C1055 1.539 . S
C1053 C1049 1.408 . S
C1053 C1052 1.404 . S
C1053 H1065 0.930 . S
C1054 C1050 1.524 . S
C1054 H1066 0.956 . S
C1054 H1067 0.961 . S
C1054 H1068 0.961 . S
C1055 C1052 1.539 . S
C1055 H1069 0.958 . S
C1055 H1070 0.961 . S
C1055 H1071 0.960 . S
H1056 C1040 0.931 . S
H1057 C1045 0.929 . S
H1058 C1046 0.960 . S
H1059 C1046 0.962 . S
H1060 C1046 0.960 . S
H1061 C1047 0.961 . S
H1062 C1047 0.961 . S
H1063 C1047 0.961 . S
H1064 C1048 0.931 . S
H1065 C1053 0.930 . S
H1066 C1054 0.956 . S
H1067 C1054 0.961 . S
H1068 C1054 0.961 . S
H1069 C1055 0.958 . S
H1070 C1055 0.961 . S
H1071 C1055 0.960 . S
C1072 C1073 1.391 . S
C1072 C1074 1.394 . S
C1072 H1088 0.931 . S
C1073 C1072 1.391 . S
C1073 C1077 1.376 . S
C1074 C1072 1.394 . S
C1074 C1075 1.369 . S
C1074 C1078 1.531 . S
C1075 C1074 1.369 . S
C1075 C1076 1.410 . S
C1075 C1083 1.503 . S
C1076 C1075 1.410 . S
C1076 C1077 1.392 . S
C1076 C1079 1.511 . S
C1077 C1073 1.376 . S
C1077 C1076 1.392 . S
C1077 H1089 0.929 . S
C1078 C1074 1.531 . S
C1078 H1090 0.960 . S
C1078 H1091 0.962 . S
C1078 H1092 0.960 . S
C1079 C1076 1.511 . S
C1079 H1093 0.961 . S
C1079 H1094 0.961 . S
C1079 H1095 0.961 . S
C1080 C1081 1.370 . S
C1080 C1082 1.363 . S
C1080 H1096 0.931 . S
C1081 C1080 1.370 . S
C1081 C1085 1.408 . S
C1082 C1080 1.363 . S
C1082 C1083 1.370 . S
C1082 C1086 1.524 . S
C1083 C1075 1.503 . S
C1083 C1082 1.370 . S
C1083 C1084 1.403 . S
C1084 C1083 1.403 . S
C1084 C1085 1.404 . S
C1084 C1087 1.539 . S
C1085 C1081 1.408 . S
C1085 C1084 1.404 . S
C1085 H1097 0.930 . S
C1086 C1082 1.524 . S
C1086 H1098 0.956 . S
C1086 H1099 0.961 . S
C1086 H1100 0.961 . S
C1087 C1084 1.539 . S
C1087 H1101 0.958 . S
C1087 H1102 0.961 . S
C1087 H1103 0.960 . S
H1088 C1072 0.931 . S
H1089 C1077 0.929 . S
H1090 C1078 0.960 . S
H1091 C1078 0.962 . S
H1092 C1078 0.960 . S
H1093 C1079 0.961 . S
H1094 C1079 0.961 . S
H1095 C1079 0.961 . S
H1096 C1080 0.931 . S
H1097 C1085 0.930 . S
H1098 C1086 0.956 . S
H1099 C1086 0.961 . S
H1100 C1086 0.961 . S
H1101 C1087 0.958 . S
H1102 C1087 0.961 . S
H1103 C1087 0.960 . S
C1104 C1105 1.391 . S
C1104 C1106 1.394 . S
C1104 H1120 0.931 . S
C1105 C1104 1.391 . S
C1105 C1109 1.376 . S
C1106 C1104 1.394 . S
C1106 C1107 1.369 . S
C1106 C1110 1.531 . S
C1107 C1106 1.369 . S
C1107 C1108 1.410 . S
C1107 C1115 1.503 . S
C1108 C1107 1.410 . S
C1108 C1109 1.392 . S
C1108 C1111 1.511 . S
C1109 C1105 1.376 . S
C1109 C1108 1.392 . S
C1109 H1121 0.929 . S
C1110 C1106 1.531 . S
C1110 H1122 0.960 . S
C1110 H1123 0.962 . S
C1110 H1124 0.960 . S
C1111 C1108 1.511 . S
C1111 H1125 0.961 . S
C1111 H1126 0.961 . S
C1111 H1127 0.961 . S
C1112 C1113 1.370 . S
C1112 C1114 1.363 . S
C1112 H1128 0.931 . S
C1113 C1112 1.370 . S
C1113 C1117 1.408 . S
C1114 C1112 1.363 . S
C1114 C1115 1.370 . S
C1114 C1118 1.524 . S
C1115 C1107 1.503 . S
C1115 C1114 1.370 . S
C1115 C1116 1.403 . S
C1116 C1115 1.403 . S
C1116 C1117 1.404 . S
C1116 C1119 1.539 . S
C1117 C1113 1.408 . S
C1117 C1116 1.404 . S
C1117 H1129 0.930 . S
C1118 C1114 1.524 . S
C1118 H1130 0.956 . S
C1118 H1131 0.961 . S
C1118 H1132 0.961 . S
C1119 C1116 1.539 . S
C1119 H1133 0.958 . S
C1119 H1134 0.961 . S
C1119 H1135 0.960 . S
H1120 C1104 0.931 . S
H1121 C1109 0.929 . S
H1122 C1110 0.960 . S
H1123 C1110 0.962 . S
H1124 C1110 0.960 . S
H1125 C1111 0.961 . S
H1126 C1111 0.961 . S
H1127 C1111 0.961 . S
H1128 C1112 0.931 . S
H1129 C1117 0.930 . S
H1130 C1118 0.956 . S
H1131 C1118 0.961 . S
H1132 C1118 0.961 . S
H1133 C1119 0.958 . S
H1134 C1119 0.961 . S
H1135 C1119 0.960 . S
C1136 C1137 1.391 . S
C1136 C1138 1.394 . S
C1136 H1152 0.931 . S
C1137 C1136 1.391 . S
C1137 C1141 1.376 . S
C1138 C1136 1.394 . S
C1138 C1139 1.369 . S
C1138 C1142 1.531 . S
C1139 C1138 1.369 . S
C1139 C1140 1.410 . S
C1139 C1147 1.503 . S
C1140 C1139 1.410 . S
C1140 C1141 1.392 . S
C1140 C1143 1.511 . S
C1141 C1137 1.376 . S
C1141 C1140 1.392 . S
C1141 H1153 0.929 . S
C1142 C1138 1.531 . S
C1142 H1154 0.960 . S
C1142 H1155 0.962 . S
C1142 H1156 0.960 . S
C1143 C1140 1.511 . S
C1143 H1157 0.961 . S
C1143 H1158 0.961 . S
C1143 H1159 0.961 . S
C1144 C1145 1.370 . S
C1144 C1146 1.363 . S
C1144 H1160 0.931 . S
C1145 C1144 1.370 . S
C1145 C1149 1.408 . S
C1146 C1144 1.363 . S
C1146 C1147 1.370 . S
C1146 C1150 1.524 . S
C1147 C1139 1.503 . S
C1147 C1146 1.370 . S
C1147 C1148 1.403 . S
C1148 C1147 1.403 . S
C1148 C1149 1.404 . S
C1148 C1151 1.539 . S
C1149 C1145 1.408 . S
C1149 C1148 1.404 . S
C1149 H1161 0.930 . S
C1150 C1146 1.524 . S
C1150 H1162 0.956 . S
C1150 H1163 0.961 . S
C1150 H1164 0.961 . S
C1151 C1148 1.539 . S
C1151 H1165 0.958 . S
C1151 H1166 0.961 . S
C1151 H1167 0.960 . S
H1152 C1136 0.931 . S
H1153 C1141 0.929 . S
H1154 C1142 0.960 . S
H1155 C1142 0.962 . S
H1156 C1142 0.960 . S
H1157 C1143 0.961 . S
H1158 C1143 0.961 . S
H1159 C1143 0.961 . S
H1160 C1144 0.931 . S
H1161 C1149 0.930 . S
H1162 C1150 0.956 . S
H1163 C1150 0.961 . S
H1164 C1150 0.961 . S
H1165 C1151 0.958 . S
H1166 C1151 0.961 . S
H1167 C1151 0.960 . S
C1168 C1169 1.391 . S
C1168 C1170 1.394 . S
C1168 H1184 0.931 . S
C1169 C1168 1.391 . S
C1169 C1173 1.376 . S
C1170 C1168 1.394 . S
C1170 C1171 1.369 . S
C1170 C1174 1.531 . S
C1171 C1170 1.369 . S
C1171 C1172 1.410 . S
C1171 C1179 1.503 . S
C1172 C1171 1.410 . S
C1172 C1173 1.392 . S
C1172 C1175 1.511 . S
C1173 C1169 1.376 . S
C1173 C1172 1.392 . S
C1173 H1185 0.929 . S
C1174 C1170 1.531 . S
C1174 H1186 0.960 . S
C1174 H1187 0.962 . S
C1174 H1188 0.960 . S
C1175 C1172 1.511 . S
C1175 H1189 0.961 . S
C1175 H1190 0.961 . S
C1175 H1191 0.961 . S
C1176 C1177 1.370 . S
C1176 C1178 1.363 . S
C1176 H1192 0.931 . S
C1177 C1176 1.370 . S
C1177 C1181 1.408 . S
C1178 C1176 1.363 . S
C1178 C1179 1.370 . S
C1178 C1182 1.524 . S
C1179 C1171 1.503 . S
C1179 C1178 1.370 . S
C1179 C1180 1.403 . S
C1180 C1179 1.403 . S
C1180 C1181 1.404 . S
C1180 C1183 1.539 . S
C1181 C1177 1.408 . S
C1181 C1180 1.404 . S
C1181 H1193 0.930 . S
C1182 C1178 1.524 . S
C1182 H1194 0.956 . S
C1182 H1195 0.961 . S
C1182 H1196 0.961 . S
C1183 C1180 1.539 . S
C1183 H1197 0.958 . S
C1183 H1198 0.961 . S
C1183 H1199 0.960 . S
H1184 C1168 0.931 . S
H1185 C1173 0.929 . S
H1186 C1174 0.960 . S
H1187 C1174 0.962 . S
H1188 C1174 0.960 . S
H1189 C1175 0.961 . S
H1190 C1175 0.961 . S
H1191 C1175 0.961 . S
H1192 C1176 0.931 . S
H1193 C1181 0.930 . S
H1194 C1182 0.956 . S
H1195 C1182 0.961 . S
H1196 C1182 0.961 . S
H1197 C1183 0.958 . S
H1198 C1183 0.961 . S
H1199 C1183 0.960 . S
C1200 C1201 1.391 . S
C1200 C1202 1.394 . S
C1200 H1216 0.931 . S
C1201 C1200 1.391 . S
C1201 C1205 1.376 . S
C1202 C1200 1.394 . S
C1202 C1203 1.369 . S
C1202 C1206 1.531 . S
C1203 C1202 1.369 . S
C1203 C1204 1.410 . S
C1203 C1211 1.503 . S
C1204 C1203 1.410 . S
C1204 C1205 1.392 . S
C1204 C1207 1.511 . S
C1205 C1201 1.376 . S
C1205 C1204 1.392 . S
C1205 H1217 0.929 . S
C1206 C1202 1.531 . S
C1206 H1218 0.960 . S
C1206 H1219 0.962 . S
C1206 H1220 0.960 . S
C1207 C1204 1.511 . S
C1207 H1221 0.961 . S
C1207 H1222 0.961 . S
C1207 H1223 0.961 . S
C1208 C1209 1.370 . S
C1208 C1210 1.363 . S
C1208 H1224 0.931 . S
C1209 C1208 1.370 . S
C1209 C1213 1.408 . S
C1210 C1208 1.363 . S
C1210 C1211 1.370 . S
C1210 C1214 1.524 . S
C1211 C1203 1.503 . S
C1211 C1210 1.370 . S
C1211 C1212 1.403 . S
C1212 C1211 1.403 . S
C1212 C1213 1.404 . S
C1212 C1215 1.539 . S
C1213 C1209 1.408 . S
C1213 C1212 1.404 . S
C1213 H1225 0.930 . S
C1214 C1210 1.524 . S
C1214 H1226 0.956 . S
C1214 H1227 0.961 . S
C1214 H1228 0.961 . S
C1215 C1212 1.539 . S
C1215 H1229 0.958 . S
C1215 H1230 0.961 . S
C1215 H1231 0.960 . S
H1216 C1200 0.931 . S
H1217 C1205 0.929 . S
H1218 C1206 0.960 . S
H1219 C1206 0.962 . S
H1220 C1206 0.960 . S
H1221 C1207 0.961 . S
H1222 C1207 0.961 . S
H1223 C1207 0.961 . S
H1224 C1208 0.931 . S
H1225 C1213 0.930 . S
H1226 C1214 0.956 . S
H1227 C1214 0.961 . S
H1228 C1214 0.961 . S
H1229 C1215 0.958 . S
H1230 C1215 0.961 . S
H1231 C1215 0.960 . S
C1232 C1233 1.391 . S
C1232 C1234 1.394 . S
C1232 H1248 0.931 . S
C1233 C1232 1.391 . S
C1233 C1237 1.376 . S
C1234 C1232 1.394 . S
C1234 C1235 1.369 . S
C1234 C1238 1.531 . S
C1235 C1234 1.369 . S
C1235 C1236 1.410 . S
C1235 C1243 1.503 . S
C1236 C1235 1.410 . S
C1236 C1237 1.392 . S
C1236 C1239 1.511 . S
C1237 C1233 1.376 . S
C1237 C1236 1.392 . S
C1237 H1249 0.929 . S
C1238 C1234 1.531 . S
C1238 H1250 0.960 . S
C1238 H1251 0.962 . S
C1238 H1252 0.960 . S
C1239 C1236 1.511 . S
C1239 H1253 0.961 . S
C1239 H1254 0.961 . S
C1239 H1255 0.961 . S
C1240 C1241 1.370 . S
C1240 C1242 1.363 . S
C1240 H1256 0.931 . S
C1241 C1240 1.370 . S
C1241 C1245 1.408 . S
C1242 C1240 1.363 . S
C1242 C1243 1.370 . S
C1242 C1246 1.524 . S
C1243 C1235 1.503 . S
C1243 C1242 1.370 . S
C1243 C1244 1.403 . S
C1244 C1243 1.403 . S
C1244 C1245 1.404 . S
C1244 C1247 1.539 . S
C1245 C1241 1.408 . S
C1245 C1244 1.404 . S
C1245 H1257 0.930 . S
C1246 C1242 1.524 . S
C1246 H1258 0.956 . S
C1246 H1259 0.961 . S
C1246 H1260 0.961 . S
C1247 C1244 1.539 . S
C1247 H1261 0.958 . S
C1247 H1262 0.961 . S
C1247 H1263 0.960 . S
H1248 C1232 0.931 . S
H1249 C1237 0.929 . S
H1250 C1238 0.960 . S
H1251 C1238 0.962 . S
H1252 C1238 0.960 . S
H1253 C1239 0.961 . S
H1254 C1239 0.961 . S
H1255 C1239 0.961 . S
H1256 C1240 0.931 . S
H1257 C1245 0.930 . S
H1258 C1246 0.956 . S
H1259 C1246 0.961 . S
H1260 C1246 0.961 . S
H1261 C1247 0.958 . S
H1262 C1247 0.961 . S
H1263 C1247 0.960 . S
C1264 C1265 1.391 . S
C1264 C1266 1.394 . S
C1264 H1280 0.931 . S
C1265 C1264 1.391 . S
C1265 C1269 1.376 . S
C1266 C1264 1.394 . S
C1266 C1267 1.369 . S
C1266 C1270 1.531 . S
C1267 C1266 1.369 . S
C1267 C1268 1.410 . S
C1267 C1275 1.503 . S
C1268 C1267 1.410 . S
C1268 C1269 1.392 . S
C1268 C1271 1.511 . S
C1269 C1265 1.376 . S
C1269 C1268 1.392 . S
C1269 H1281 0.929 . S
C1270 C1266 1.531 . S
C1270 H1282 0.960 . S
C1270 H1283 0.962 . S
C1270 H1284 0.960 . S
C1271 C1268 1.511 . S
C1271 H1285 0.961 . S
C1271 H1286 0.961 . S
C1271 H1287 0.961 . S
C1272 C1273 1.370 . S
C1272 C1274 1.363 . S
C1272 H1288 0.931 . S
C1273 C1272 1.370 . S
C1273 C1277 1.408 . S
C1274 C1272 1.363 . S
C1274 C1275 1.370 . S
C1274 C1278 1.524 . S
C1275 C1267 1.503 . S
C1275 C1274 1.370 . S
C1275 C1276 1.403 . S
C1276 C1275 1.403 . S
C1276 C1277 1.404 . S
C1276 C1279 1.539 . S
C1277 C1273 1.408 . S
C1277 C1276 1.404 . S
C1277 H1289 0.930 . S
C1278 C1274 1.524 . S
C1278 H1290 0.956 . S
C1278 H1291 0.961 . S
C1278 H1292 0.961 . S
C1279 C1276 1.539 . S
C1279 H1293 0.958 . S
C1279 H1294 0.961 . S
C1279 H1295 0.960 . S
H1280 C1264 0.931 . S
H1281 C1269 0.929 . S
H1282 C1270 0.960 . S
H1283 C1270 0.962 . S
H1284 C1270 0.960 . S
H1285 C1271 0.961 . S
H1286 C1271 0.961 . S
H1287 C1271 0.961 . S
H1288 C1272 0.931 . S
H1289 C1277 0.930 . S
H1290 C1278 0.956 . S
H1291 C1278 0.961 . S
H1292 C1278 0.961 . S
H1293 C1279 0.958 . S
H1294 C1279 0.961 . S
H1295 C1279 0.960 . S
C1296 C1297 1.391 . S
C1296 C1298 1.394 . S
C1296 H1312 0.931 . S
C1297 C1296 1.391 . S
C1297 C1301 1.376 . S
C1298 C1296 1.394 . S
C1298 C1299 1.369 . S
C1298 C1302 1.531 . S
C1299 C1298 1.369 . S
C1299 C1300 1.410 . S
C1299 C1307 1.503 . S
C1300 C1299 1.410 . S
C1300 C1301 1.392 . S
C1300 C1303 1.511 . S
C1301 C1297 1.376 . S
C1301 C1300 1.392 . S
C1301 H1313 0.929 . S
C1302 C1298 1.531 . S
C1302 H1314 0.960 . S
C1302 H1315 0.962 . S
C1302 H1316 0.960 . S
C1303 C1300 1.511 . S
C1303 H1317 0.961 . S
C1303 H1318 0.961 . S
C1303 H1319 0.961 . S
C1304 C1305 1.370 . S
C1304 C1306 1.363 . S
C1304 H1320 0.931 . S
C1305 C1304 1.370 . S
C1305 C1309 1.408 . S
C1306 C1304 1.363 . S
C1306 C1307 1.370 . S
C1306 C1310 1.524 . S
C1307 C1299 1.503 . S
C1307 C1306 1.370 . S
C1307 C1308 1.403 . S
C1308 C1307 1.403 . S
C1308 C1309 1.404 . S
C1308 C1311 1.539 . S
C1309 C1305 1.408 . S
C1309 C1308 1.404 . S
C1309 H1321 0.930 . S
C1310 C1306 1.524 . S
C1310 H1322 0.956 . S
C1310 H1323 0.961 . S
C1310 H1324 0.961 . S
C1311 C1308 1.539 . S
C1311 H1325 0.958 . S
C1311 H1326 0.961 . S
C1311 H1327 0.960 . S
H1312 C1296 0.931 . S
H1313 C1301 0.929 . S
H1314 C1302 0.960 . S
H1315 C1302 0.962 . S
H1316 C1302 0.960 . S
H1317 C1303 0.961 . S
H1318 C1303 0.961 . S
H1319 C1303 0.961 . S
H1320 C1304 0.931 . S
H1321 C1309 0.930 . S
H1322 C1310 0.956 . S
H1323 C1310 0.961 . S
H1324 C1310 0.961 . S
H1325 C1311 0.958 . S
H1326 C1311 0.961 . S
H1327 C1311 0.960 . S
C1328 C1329 1.391 . S
C1328 C1330 1.394 . S
C1328 H1344 0.931 . S
C1329 C1328 1.391 . S
C1329 C1333 1.376 . S
C1330 C1328 1.394 . S
C1330 C1331 1.369 . S
C1330 C1334 1.531 . S
C1331 C1330 1.369 . S
C1331 C1332 1.410 . S
C1331 C1339 1.503 . S
C1332 C1331 1.410 . S
C1332 C1333 1.392 . S
C1332 C1335 1.511 . S
C1333 C1329 1.376 . S
C1333 C1332 1.392 . S
C1333 H1345 0.929 . S
C1334 C1330 1.531 . S
C1334 H1346 0.960 . S
C1334 H1347 0.962 . S
C1334 H1348 0.960 . S
C1335 C1332 1.511 . S
C1335 H1349 0.961 . S
C1335 H1350 0.961 . S
C1335 H1351 0.961 . S
C1336 C1337 1.370 . S
C1336 C1338 1.363 . S
C1336 H1352 0.931 . S
C1337 C1336 1.370 . S
C1337 C1341 1.408 . S
C1338 C1336 1.363 . S
C1338 C1339 1.370 . S
C1338 C1342 1.524 . S
C1339 C1331 1.503 . S
C1339 C1338 1.370 . S
C1339 C1340 1.403 . S
C1340 C1339 1.403 . S
C1340 C1341 1.404 . S
C1340 C1343 1.539 . S
C1341 C1337 1.408 . S
C1341 C1340 1.404 . S
C1341 H1353 0.930 . S
C1342 C1338 1.524 . S
C1342 H1354 0.956 . S
C1342 H1355 0.961 . S
C1342 H1356 0.961 . S
C1343 C1340 1.539 . S
C1343 H1357 0.958 . S
C1343 H1358 0.961 . S
C1343 H1359 0.960 . S
H1344 C1328 0.931 . S
H1345 C1333 0.929 . S
H1346 C1334 0.960 . S
H1347 C1334 0.962 . S
H1348 C1334 0.960 . S
H1349 C1335 0.961 . S
H1350 C1335 0.961 . S
H1351 C1335 0.961 . S
H1352 C1336 0.931 . S
H1353 C1341 0.930 . S
H1354 C1342 0.956 . S
H1355 C1342 0.961 . S
H1356 C1342 0.961 . S
H1357 C1343 0.958 . S
H1358 C1343 0.961 . S
H1359 C1343 0.960 . S
C1360 C1361 1.391 . S
C1360 C1362 1.394 . S
C1360 H1376 0.931 . S
C1361 C1360 1.391 . S
C1361 C1365 1.376 . S
C1362 C1360 1.394 . S
C1362 C1363 1.369 . S
C1362 C1366 1.531 . S
C1363 C1362 1.369 . S
C1363 C1364 1.410 . S
C1363 C1371 1.503 . S
C1364 C1363 1.410 . S
C1364 C1365 1.392 . S
C1364 C1367 1.511 . S
C1365 C1361 1.376 . S
C1365 C1364 1.392 . S
C1365 H1377 0.929 . S
C1366 C1362 1.531 . S
C1366 H1378 0.960 . S
C1366 H1379 0.962 . S
C1366 H1380 0.960 . S
C1367 C1364 1.511 . S
C1367 H1381 0.961 . S
C1367 H1382 0.961 . S
C1367 H1383 0.961 . S
C1368 C1369 1.370 . S
C1368 C1370 1.363 . S
C1368 H1384 0.931 . S
C1369 C1368 1.370 . S
C1369 C1373 1.408 . S
C1370 C1368 1.363 . S
C1370 C1371 1.370 . S
C1370 C1374 1.524 . S
C1371 C1363 1.503 . S
C1371 C1370 1.370 . S
C1371 C1372 1.403 . S
C1372 C1371 1.403 . S
C1372 C1373 1.404 . S
C1372 C1375 1.539 . S
C1373 C1369 1.408 . S
C1373 C1372 1.404 . S
C1373 H1385 0.930 . S
C1374 C1370 1.524 . S
C1374 H1386 0.956 . S
C1374 H1387 0.961 . S
C1374 H1388 0.961 . S
C1375 C1372 1.539 . S
C1375 H1389 0.958 . S
C1375 H1390 0.961 . S
C1375 H1391 0.960 . S
H1376 C1360 0.931 . S
H1377 C1365 0.929 . S
H1378 C1366 0.960 . S
H1379 C1366 0.962 . S
H1380 C1366 0.960 . S
H1381 C1367 0.961 . S
H1382 C1367 0.961 . S
H1383 C1367 0.961 . S
H1384 C1368 0.931 . S
H1385 C1373 0.930 . S
H1386 C1374 0.956 . S
H1387 C1374 0.961 . S
H1388 C1374 0.961 . S
H1389 C1375 0.958 . S
H1390 C1375 0.961 . S
H1391 C1375 0.960 . S
C1392 C1393 1.391 . S
C1392 C1394 1.394 . S
C1392 H1408 0.931 . S
C1393 C1392 1.391 . S
C1393 C1397 1.376 . S
C1394 C1392 1.394 . S
C1394 C1395 1.369 . S
C1394 C1398 1.531 . S
C1395 C1394 1.369 . S
C1395 C1396 1.410 . S
C1395 C1403 1.503 . S
C1396 C1395 1.410 . S
C1396 C1397 1.392 . S
C1396 C1399 1.511 . S
C1397 C1393 1.376 . S
C1397 C1396 1.392 . S
C1397 H1409 0.929 . S
C1398 C1394 1.531 . S
C1398 H1410 0.960 . S
C1398 H1411 0.962 . S
C1398 H1412 0.960 . S
C1399 C1396 1.511 . S
C1399 H1413 0.961 . S
C1399 H1414 0.961 . S
C1399 H1415 0.961 . S
C1400 C1401 1.370 . S
C1400 C1402 1.363 . S
C1400 H1416 0.931 . S
C1401 C1400 1.370 . S
C1401 C1405 1.408 . S
C1402 C1400 1.363 . S
C1402 C1403 1.370 . S
C1402 C1406 1.524 . S
C1403 C1395 1.503 . S
C1403 C1402 1.370 . S
C1403 C1404 1.403 . S
C1404 C1403 1.403 . S
C1404 C1405 1.404 . S
C1404 C1407 1.539 . S
C1405 C1401 1.408 . S
C1405 C1404 1.404 . S
C1405 H1417 0.930 . S
C1406 C1402 1.524 . S
C1406 H1418 0.956 . S
C1406 H1419 0.961 . S
C1406 H1420 0.961 . S
C1407 C1404 1.539 . S
C1407 H1421 0.958 . S
C1407 H1422 0.961 . S
C1407 H1423 0.960 . S
H1408 C1392 0.931 . S
H1409 C1397 0.929 . S
H1410 C1398 0.960 . S
H1411 C1398 0.962 . S
H1412 C1398 0.960 . S
H1413 C1399 0.961 . S
H1414 C1399 0.961 . S
H1415 C1399 0.961 . S
H1416 C1400 0.931 . S
H1417 C1405 0.930 . S
H1418 C1406 0.956 . S
H1419 C1406 0.961 . S
H1420 C1406 0.961 . S
H1421 C1407 0.958 . S
H1422 C1407 0.961 . S
H1423 C1407 0.960 . S
C1424 C1425 1.391 . S
C1424 C1426 1.394 . S
C1424 H1440 0.931 . S
C1425 C1424 1.391 . S
C1425 C1429 1.376 . S
C1426 C1424 1.394 . S
C1426 C1427 1.369 . S
C1426 C1430 1.531 . S
C1427 C1426 1.369 . S
C1427 C1428 1.410 . S
C1427 C1435 1.503 . S
C1428 C1427 1.410 . S
C1428 C1429 1.392 . S
C1428 C1431 1.511 . S
C1429 C1425 1.376 . S
C1429 C1428 1.392 . S
C1429 H1441 0.929 . S
C1430 C1426 1.531 . S
C1430 H1442 0.960 . S
C1430 H1443 0.962 . S
C1430 H1444 0.960 . S
C1431 C1428 1.511 . S
C1431 H1445 0.961 . S
C1431 H1446 0.961 . S
C1431 H1447 0.961 . S
C1432 C1433 1.370 . S
C1432 C1434 1.363 . S
C1432 H1448 0.931 . S
C1433 C1432 1.370 . S
C1433 C1437 1.408 . S
C1434 C1432 1.363 . S
C1434 C1435 1.370 . S
C1434 C1438 1.524 . S
C1435 C1427 1.503 . S
C1435 C1434 1.370 . S
C1435 C1436 1.403 . S
C1436 C1435 1.403 . S
C1436 C1437 1.404 . S
C1436 C1439 1.539 . S
C1437 C1433 1.408 . S
C1437 C1436 1.404 . S
C1437 H1449 0.930 . S
C1438 C1434 1.524 . S
C1438 H1450 0.956 . S
C1438 H1451 0.961 . S
C1438 H1452 0.961 . S
C1439 C1436 1.539 . S
C1439 H1453 0.958 . S
C1439 H1454 0.961 . S
C1439 H1455 0.960 . S
H1440 C1424 0.931 . S
H1441 C1429 0.929 . S
H1442 C1430 0.960 . S
H1443 C1430 0.962 . S
H1444 C1430 0.960 . S
H1445 C1431 0.961 . S
H1446 C1431 0.961 . S
H1447 C1431 0.961 . S
H1448 C1432 0.931 . S
H1449 C1437 0.930 . S
H1450 C1438 0.956 . S
H1451 C1438 0.961 . S
H1452 C1438 0.961 . S
H1453 C1439 0.958 . S
H1454 C1439 0.961 . S
H1455 C1439 0.960 . S
C1456 C1457 1.391 . S
C1456 C1458 1.394 . S
C1456 H1472 0.931 . S
C1457 C1456 1.391 . S
C1457 C1461 1.376 . S
C1458 C1456 1.394 . S
C1458 C1459 1.369 . S
C1458 C1462 1.531 . S
C1459 C1458 1.369 . S
C1459 C1460 1.410 . S
C1459 C1467 1.503 . S
C1460 C1459 1.410 . S
C1460 C1461 1.392 . S
C1460 C1463 1.511 . S
C1461 C1457 1.376 . S
C1461 C1460 1.392 . S
C1461 H1473 0.929 . S
C1462 C1458 1.531 . S
C1462 H1474 0.960 . S
C1462 H1475 0.962 . S
C1462 H1476 0.960 . S
C1463 C1460 1.511 . S
C1463 H1477 0.961 . S
C1463 H1478 0.961 . S
C1463 H1479 0.961 . S
C1464 C1465 1.370 . S
C1464 C1466 1.363 . S
C1464 H1480 0.931 . S
C1465 C1464 1.370 . S
C1465 C1469 1.408 . S
C1466 C1464 1.363 . S
C1466 C1467 1.370 . S
C1466 C1470 1.524 . S
C1467 C1459 1.503 . S
C1467 C1466 1.370 . S
C1467 C1468 1.403 . S
C1468 C1467 1.403 . S
C1468 C1469 1.404 . S
C1468 C1471 1.539 . S
C1469 C1465 1.408 . S
C1469 C1468 1.404 . S
C1469 H1481 0.930 . S
C1470 C1466 1.524 . S
C1470 H1482 0.956 . S
C1470 H1483 0.961 . S
C1470 H1484 0.961 . S
C1471 C1468 1.539 . S
C1471 H1485 0.958 . S
C1471 H1486 0.961 . S
C1471 H1487 0.960 . S
H1472 C1456 0.931 . S
H1473 C1461 0.929 . S
H1474 C1462 0.960 . S
H1475 C1462 0.962 . S
H1476 C1462 0.960 . S
H1477 C1463 0.961 . S
H1478 C1463 0.961 . S
H1479 C1463 0.961 . S
H1480 C1464 0.931 . S
H1481 C1469 0.930 . S
H1482 C1470 0.956 . S
H1483 C1470 0.961 . S
H1484 C1470 0.961 . S
H1485 C1471 0.958 . S
H1486 C1471 0.961 . S
H1487 C1471 0.960 . S
C1488 C1489 1.391 . S
C1488 C1490 1.394 . S
C1488 H1504 0.931 . S
C1489 C1488 1.391 . S
C1489 C1493 1.376 . S
C1490 C1488 1.394 . S
C1490 C1491 1.369 . S
C1490 C1494 1.531 . S
C1491 C1490 1.369 . S
C1491 C1492 1.410 . S
C1491 C1499 1.503 . S
C1492 C1491 1.410 . S
C1492 C1493 1.392 . S
C1492 C1495 1.511 . S
C1493 C1489 1.376 . S
C1493 C1492 1.392 . S
C1493 H1505 0.929 . S
C1494 C1490 1.531 . S
C1494 H1506 0.960 . S
C1494 H1507 0.962 . S
C1494 H1508 0.960 . S
C1495 C1492 1.511 . S
C1495 H1509 0.961 . S
C1495 H1510 0.961 . S
C1495 H1511 0.961 . S
C1496 C1497 1.370 . S
C1496 C1498 1.363 . S
C1496 H1512 0.931 . S
C1497 C1496 1.370 . S
C1497 C1501 1.408 . S
C1498 C1496 1.363 . S
C1498 C1499 1.370 . S
C1498 C1502 1.524 . S
C1499 C1491 1.503 . S
C1499 C1498 1.370 . S
C1499 C1500 1.403 . S
C1500 C1499 1.403 . S
C1500 C1501 1.404 . S
C1500 C1503 1.539 . S
C1501 C1497 1.408 . S
C1501 C1500 1.404 . S
C1501 H1513 0.930 . S
C1502 C1498 1.524 . S
C1502 H1514 0.956 . S
C1502 H1515 0.961 . S
C1502 H1516 0.961 . S
C1503 C1500 1.539 . S
C1503 H1517 0.958 . S
C1503 H1518 0.961 . S
C1503 H1519 0.960 . S
H1504 C1488 0.931 . S
H1505 C1493 0.929 . S
H1506 C1494 0.960 . S
H1507 C1494 0.962 . S
H1508 C1494 0.960 . S
H1509 C1495 0.961 . S
H1510 C1495 0.961 . S
H1511 C1495 0.961 . S
H1512 C1496 0.931 . S
H1513 C1501 0.930 . S
H1514 C1502 0.956 . S
H1515 C1502 0.961 . S
H1516 C1502 0.961 . S
H1517 C1503 0.958 . S
H1518 C1503 0.961 . S
H1519 C1503 0.960 . S
C1520 C1521 1.391 . S
C1520 C1522 1.394 . S
C1520 H1536 0.931 . S
C1521 C1520 1.391 . S
C1521 C1525 1.376 . S
C1522 C1520 1.394 . S
C1522 C1523 1.369 . S
C1522 C1526 1.531 . S
C1523 C1522 1.369 . S
C1523 C1524 1.410 . S
C1523 C1531 1.503 . S
C1524 C1523 1.410 . S
C1524 C1525 1.392 . S
C1524 C1527 1.511 . S
C1525 C1521 1.376 . S
C1525 C1524 1.392 . S
C1525 H1537 0.929 . S
C1526 C1522 1.531 . S
C1526 H1538 0.960 . S
C1526 H1539 0.962 . S
C1526 H1540 0.960 . S
C1527 C1524 1.511 . S
C1527 H1541 0.961 . S
C1527 H1542 0.961 . S
C1527 H1543 0.961 . S
C1528 C1529 1.370 . S
C1528 C1530 1.363 . S
C1528 H1544 0.931 . S
C1529 C1528 1.370 . S
C1529 C1533 1.408 . S
C1530 C1528 1.363 . S
C1530 C1531 1.370 . S
C1530 C1534 1.524 . S
C1531 C1523 1.503 . S
C1531 C1530 1.370 . S
C1531 C1532 1.403 . S
C1532 C1531 1.403 . S
C1532 C1533 1.404 . S
C1532 C1535 1.539 . S
C1533 C1529 1.408 . S
C1533 C1532 1.404 . S
C1533 H1545 0.930 . S
C1534 C1530 1.524 . S
C1534 H1546 0.956 . S
C1534 H1547 0.961 . S
C1534 H1548 0.961 . S
C1535 C1532 1.539 . S
C1535 H1549 0.958 . S
C1535 H1550 0.961 . S
C1535 H1551 0.960 . S
H1536 C1520 0.931 . S
H1537 C1525 0.929 . S
H1538 C1526 0.960 . S
H1539 C1526 0.962 . S
H1540 C1526 0.960 . S
H1541 C1527 0.961 . S
H1542 C1527 0.961 . S
H1543 C1527 0.961 . S
H1544 C1528 0.931 . S
H1545 C1533 0.930 . S
H1546 C1534 0.956 . S
H1547 C1534 0.961 . S
H1548 C1534 0.961 . S
H1549 C1535 0.958 . S
H1550 C1535 0.961 . S
H1551 C1535 0.960 . S
C1552 C1553 1.391 . S
C1552 C1554 1.394 . S
C1552 H1568 0.931 . S
C1553 C1552 1.391 . S
C1553 C1557 1.376 . S
C1554 C1552 1.394 . S
C1554 C1555 1.369 . S
C1554 C1558 1.531 . S
C1555 C1554 1.369 . S
C1555 C1556 1.410 . S
C1555 C1563 1.503 . S
C1556 C1555 1.410 . S
C1556 C1557 1.392 . S
C1556 C1559 1.511 . S
C1557 C1553 1.376 . S
C1557 C1556 1.392 . S
C1557 H1569 0.929 . S
C1558 C1554 1.531 . S
C1558 H1570 0.960 . S
C1558 H1571 0.962 . S
C1558 H1572 0.960 . S
C1559 C1556 1.511 . S
C1559 H1573 0.961 . S
C1559 H1574 0.961 . S
C1559 H1575 0.961 . S
C1560 C1561 1.370 . S
C1560 C1562 1.363 . S
C1560 H1576 0.931 . S
C1561 C1560 1.370 . S
C1561 C1565 1.408 . S
C1562 C1560 1.363 . S
C1562 C1563 1.370 . S
C1562 C1566 1.524 . S
C1563 C1555 1.503 . S
C1563 C1562 1.370 . S
C1563 C1564 1.403 . S
C1564 C1563 1.403 . S
C1564 C1565 1.404 . S
C1564 C1567 1.539 . S
C1565 C1561 1.408 . S
C1565 C1564 1.404 . S
C1565 H1577 0.930 . S
C1566 C1562 1.524 . S
C1566 H1578 0.956 . S
C1566 H1579 0.961 . S
C1566 H1580 0.961 . S
C1567 C1564 1.539 . S
C1567 H1581 0.958 . S
C1567 H1582 0.961 . S
C1567 H1583 0.960 . S
H1568 C1552 0.931 . S
H1569 C1557 0.929 . S
H1570 C1558 0.960 . S
H1571 C1558 0.962 . S
H1572 C1558 0.960 . S
H1573 C1559 0.961 . S
H1574 C1559 0.961 . S
H1575 C1559 0.961 . S
H1576 C1560 0.931 . S
H1577 C1565 0.930 . S
H1578 C1566 0.956 . S
H1579 C1566 0.961 . S
H1580 C1566 0.961 . S
H1581 C1567 0.958 . S
H1582 C1567 0.961 . S
H1583 C1567 0.960 . S
C1584 C1585 1.391 . S
C1584 C1586 1.394 . S
C1584 H1600 0.931 . S
C1585 C1584 1.391 . S
C1585 C1589 1.376 . S
C1586 C1584 1.394 . S
C1586 C1587 1.369 . S
C1586 C1590 1.531 . S
C1587 C1586 1.369 . S
C1587 C1588 1.410 . S
C1587 C1595 1.503 . S
C1588 C1587 1.410 . S
C1588 C1589 1.392 . S
C1588 C1591 1.511 . S
C1589 C1585 1.376 . S
C1589 C1588 1.392 . S
C1589 H1601 0.929 . S
C1590 C1586 1.531 . S
C1590 H1602 0.960 . S
C1590 H1603 0.962 . S
C1590 H1604 0.960 . S
C1591 C1588 1.511 . S
C1591 H1605 0.961 . S
C1591 H1606 0.961 . S
C1591 H1607 0.961 . S
C1592 C1593 1.370 . S
C1592 C1594 1.363 . S
C1592 H1608 0.931 . S
C1593 C1592 1.370 . S
C1593 C1597 1.408 . S
C1594 C1592 1.363 . S
C1594 C1595 1.370 . S
C1594 C1598 1.524 . S
C1595 C1587 1.503 . S
C1595 C1594 1.370 . S
C1595 C1596 1.403 . S
C1596 C1595 1.403 . S
C1596 C1597 1.404 . S
C1596 C1599 1.539 . S
C1597 C1593 1.408 . S
C1597 C1596 1.404 . S
C1597 H1609 0.930 . S
C1598 C1594 1.524 . S
C1598 H1610 0.956 . S
C1598 H1611 0.961 . S
C1598 H1612 0.961 . S
C1599 C1596 1.539 . S
C1599 H1613 0.958 . S
C1599 H1614 0.961 . S
C1599 H1615 0.960 . S
H1600 C1584 0.931 . S
H1601 C1589 0.929 . S
H1602 C1590 0.960 . S
H1603 C1590 0.962 . S
H1604 C1590 0.960 . S
H1605 C1591 0.961 . S
H1606 C1591 0.961 . S
H1607 C1591 0.961 . S
H1608 C1592 0.931 . S
H1609 C1597 0.930 . S
H1610 C1598 0.956 . S
H1611 C1598 0.961 . S
H1612 C1598 0.961 . S
H1613 C1599 0.958 . S
H1614 C1599 0.961 . S
H1615 C1599 0.960 . S
C1616 C1617 1.391 . S
C1616 C1618 1.394 . S
C1616 H1632 0.931 . S
C1617 C1616 1.391 . S
C1617 C1621 1.376 . S
C1618 C1616 1.394 . S
C1618 C1619 1.369 . S
C1618 C1622 1.531 . S
C1619 C1618 1.369 . S
C1619 C1620 1.410 . S
C1619 C1627 1.503 . S
C1620 C1619 1.410 . S
C1620 C1621 1.392 . S
C1620 C1623 1.511 . S
C1621 C1617 1.376 . S
C1621 C1620 1.392 . S
C1621 H1633 0.929 . S
C1622 C1618 1.531 . S
C1622 H1634 0.960 . S
C1622 H1635 0.962 . S
C1622 H1636 0.960 . S
C1623 C1620 1.511 . S
C1623 H1637 0.961 . S
C1623 H1638 0.961 . S
C1623 H1639 0.961 . S
C1624 C1625 1.370 . S
C1624 C1626 1.363 . S
C1624 H1640 0.931 . S
C1625 C1624 1.370 . S
C1625 C1629 1.408 . S
C1626 C1624 1.363 . S
C1626 C1627 1.370 . S
C1626 C1630 1.524 . S
C1627 C1619 1.503 . S
C1627 C1626 1.370 . S
C1627 C1628 1.403 . S
C1628 C1627 1.403 . S
C1628 C1629 1.404 . S
C1628 C1631 1.539 . S
C1629 C1625 1.408 . S
C1629 C1628 1.404 . S
C1629 H1641 0.930 . S
C1630 C1626 1.524 . S
C1630 H1642 0.956 . S
C1630 H1643 0.961 . S
C1630 H1644 0.961 . S
C1631 C1628 1.539 . S
C1631 H1645 0.958 . S
C1631 H1646 0.961 . S
C1631 H1647 0.960 . S
H1632 C1616 0.931 . S
H1633 C1621 0.929 . S
H1634 C1622 0.960 . S
H1635 C1622 0.962 . S
H1636 C1622 0.960 . S
H1637 C1623 0.961 . S
H1638 C1623 0.961 . S
H1639 C1623 0.961 . S
H1640 C1624 0.931 . S
H1641 C1629 0.930 . S
H1642 C1630 0.956 . S
H1643 C1630 0.961 . S
H1644 C1630 0.961 . S
H1645 C1631 0.958 . S
H1646 C1631 0.961 . S
H1647 C1631 0.960 . S
C1648 C1649 1.391 . S
C1648 C1650 1.394 . S
C1648 H1664 0.931 . S
C1649 C1648 1.391 . S
C1649 C1653 1.376 . S
C1650 C1648 1.394 . S
C1650 C1651 1.369 . S
C1650 C1654 1.531 . S
C1651 C1650 1.369 . S
C1651 C1652 1.410 . S
C1651 C1659 1.503 . S
C1652 C1651 1.410 . S
C1652 C1653 1.392 . S
C1652 C1655 1.511 . S
C1653 C1649 1.376 . S
C1653 C1652 1.392 . S
C1653 H1665 0.929 . S
C1654 C1650 1.531 . S
C1654 H1666 0.960 . S
C1654 H1667 0.962 . S
C1654 H1668 0.960 . S
C1655 C1652 1.511 . S
C1655 H1669 0.961 . S
C1655 H1670 0.961 . S
C1655 H1671 0.961 . S
C1656 C1657 1.370 . S
C1656 C1658 1.363 . S
C1656 H1672 0.931 . S
C1657 C1656 1.370 . S
C1657 C1661 1.408 . S
C1658 C1656 1.363 . S
C1658 C1659 1.370 . S
C1658 C1662 1.524 . S
C1659 C1651 1.503 . S
C1659 C1658 1.370 . S
C1659 C1660 1.403 . S
C1660 C1659 1.403 . S
C1660 C1661 1.404 . S
C1660 C1663 1.539 . S
C1661 C1657 1.408 . S
C1661 C1660 1.404 . S
C1661 H1673 0.930 . S
C1662 C1658 1.524 . S
C1662 H1674 0.956 . S
C1662 H1675 0.961 . S
C1662 H1676 0.961 . S
C1663 C1660 1.539 . S
C1663 H1677 0.958 . S
C1663 H1678 0.961 . S
C1663 H1679 0.960 . S
H1664 C1648 0.931 . S
H1665 C1653 0.929 . S
H1666 C1654 0.960 . S
H1667 C1654 0.962 . S
H1668 C1654 0.960 . S
H1669 C1655 0.961 . S
H1670 C1655 0.961 . S
H1671 C1655 0.961 . S
H1672 C1656 0.931 . S
H1673 C1661 0.930 . S
H1674 C1662 0.956 . S
H1675 C1662 0.961 . S
H1676 C1662 0.961 . S
H1677 C1663 0.958 . S
H1678 C1663 0.961 . S
H1679 C1663 0.960 . S
C1680 C1681 1.391 . S
C1680 C1682 1.394 . S
C1680 H1696 0.931 . S
C1681 C1680 1.391 . S
C1681 C1685 1.376 . S
C1682 C1680 1.394 . S
C1682 C1683 1.369 . S
C1682 C1686 1.531 . S
C1683 C1682 1.369 . S
C1683 C1684 1.410 . S
C1683 C1691 1.503 . S
C1684 C1683 1.410 . S
C1684 C1685 1.392 . S
C1684 C1687 1.511 . S
C1685 C1681 1.376 . S
C1685 C1684 1.392 . S
C1685 H1697 0.929 . S
C1686 C1682 1.531 . S
C1686 H1698 0.960 . S
C1686 H1699 0.962 . S
C1686 H1700 0.960 . S
C1687 C1684 1.511 . S
C1687 H1701 0.961 . S
C1687 H1702 0.961 . S
C1687 H1703 0.961 . S
C1688 C1689 1.370 . S
C1688 C1690 1.363 . S
C1688 H1704 0.931 . S
C1689 C1688 1.370 . S
C1689 C1693 1.408 . S
C1690 C1688 1.363 . S
C1690 C1691 1.370 . S
C1690 C1694 1.524 . S
C1691 C1683 1.503 . S
C1691 C1690 1.370 . S
C1691 C1692 1.403 . S
C1692 C1691 1.403 . S
C1692 C1693 1.404 . S
C1692 C1695 1.539 . S
C1693 C1689 1.408 . S
C1693 C1692 1.404 . S
C1693 H1705 0.930 . S
C1694 C1690 1.524 . S
C1694 H1706 0.956 . S
C1694 H1707 0.961 . S
C1694 H1708 0.961 . S
C1695 C1692 1.539 . S
C1695 H1709 0.958 . S
C1695 H1710 0.961 . S
C1695 H1711 0.960 . S
H1696 C1680 0.931 . S
H1697 C1685 0.929 . S
H1698 C1686 0.960 . S
H1699 C1686 0.962 . S
H1700 C1686 0.960 . S
H1701 C1687 0.961 . S
H1702 C1687 0.961 . S
H1703 C1687 0.961 . S
H1704 C1688 0.931 . S
H1705 C1693 0.930 . S
H1706 C1694 0.956 . S
H1707 C1694 0.961 . S
H1708 C1694 0.961 . S
H1709 C1695 0.958 . S
H1710 C1695 0.961 . S
H1711 C1695 0.960 . S
C1712 C1713 1.391 . S
C1712 C1714 1.394 . S
C1712 H1728 0.931 . S
C1713 C1712 1.391 . S
C1713 C1717 1.376 . S
C1714 C1712 1.394 . S
C1714 C1715 1.369 . S
C1714 C1718 1.531 . S
C1715 C1714 1.369 . S
C1715 C1716 1.410 . S
C1715 C1723 1.503 . S
C1716 C1715 1.410 . S
C1716 C1717 1.392 . S
C1716 C1719 1.511 . S
C1717 C1713 1.376 . S
C1717 C1716 1.392 . S
C1717 H1729 0.929 . S
C1718 C1714 1.531 . S
C1718 H1730 0.960 . S
C1718 H1731 0.962 . S
C1718 H1732 0.960 . S
C1719 C1716 1.511 . S
C1719 H1733 0.961 . S
C1719 H1734 0.961 . S
C1719 H1735 0.961 . S
C1720 C1721 1.370 . S
C1720 C1722 1.363 . S
C1720 H1736 0.931 . S
C1721 C1720 1.370 . S
C1721 C1725 1.408 . S
C1722 C1720 1.363 . S
C1722 C1723 1.370 . S
C1722 C1726 1.524 . S
C1723 C1715 1.503 . S
C1723 C1722 1.370 . S
C1723 C1724 1.403 . S
C1724 C1723 1.403 . S
C1724 C1725 1.404 . S
C1724 C1727 1.539 . S
C1725 C1721 1.408 . S
C1725 C1724 1.404 . S
C1725 H1737 0.930 . S
C1726 C1722 1.524 . S
C1726 H1738 0.956 . S
C1726 H1739 0.961 . S
C1726 H1740 0.961 . S
C1727 C1724 1.539 . S
C1727 H1741 0.958 . S
C1727 H1742 0.961 . S
C1727 H1743 0.960 . S
H1728 C1712 0.931 . S
H1729 C1717 0.929 . S
H1730 C1718 0.960 . S
H1731 C1718 0.962 . S
H1732 C1718 0.960 . S
H1733 C1719 0.961 . S
H1734 C1719 0.961 . S
H1735 C1719 0.961 . S
H1736 C1720 0.931 . S
H1737 C1725 0.930 . S
H1738 C1726 0.956 . S
H1739 C1726 0.961 . S
H1740 C1726 0.961 . S
H1741 C1727 0.958 . S
H1742 C1727 0.961 . S
H1743 C1727 0.960 . S
C1744 C1745 1.391 . S
C1744 C1746 1.394 . S
C1744 H1760 0.931 . S
C1745 C1744 1.391 . S
C1745 C1749 1.376 . S
C1746 C1744 1.394 . S
C1746 C1747 1.369 . S
C1746 C1750 1.531 . S
C1747 C1746 1.369 . S
C1747 C1748 1.410 . S
C1747 C1755 1.503 . S
C1748 C1747 1.410 . S
C1748 C1749 1.392 . S
C1748 C1751 1.511 . S
C1749 C1745 1.376 . S
C1749 C1748 1.392 . S
C1749 H1761 0.929 . S
C1750 C1746 1.531 . S
C1750 H1762 0.960 . S
C1750 H1763 0.962 . S
C1750 H1764 0.960 . S
C1751 C1748 1.511 . S
C1751 H1765 0.961 . S
C1751 H1766 0.961 . S
C1751 H1767 0.961 . S
C1752 C1753 1.370 . S
C1752 C1754 1.363 . S
C1752 H1768 0.931 . S
C1753 C1752 1.370 . S
C1753 C1757 1.408 . S
C1754 C1752 1.363 . S
C1754 C1755 1.370 . S
C1754 C1758 1.524 . S
C1755 C1747 1.503 . S
C1755 C1754 1.370 . S
C1755 C1756 1.403 . S
C1756 C1755 1.403 . S
C1756 C1757 1.404 . S
C1756 C1759 1.539 . S
C1757 C1753 1.408 . S
C1757 C1756 1.404 . S
C1757 H1769 0.930 . S
C1758 C1754 1.524 . S
C1758 H1770 0.956 . S
C1758 H1771 0.961 . S
C1758 H1772 0.961 . S
C1759 C1756 1.539 . S
C1759 H1773 0.958 . S
C1759 H1774 0.961 . S
C1759 H1775 0.960 . S
H1760 C1744 0.931 . S
H1761 C1749 0.929 . S
H1762 C1750 0.960 . S
H1763 C1750 0.962 . S
H1764 C1750 0.960 . S
H1765 C1751 0.961 . S
H1766 C1751 0.961 . S
H1767 C1751 0.961 . S
H1768 C1752 0.931 . S
H1769 C1757 0.930 . S
H1770 C1758 0.956 . S
H1771 C1758 0.961 . S
H1772 C1758 0.961 . S
H1773 C1759 0.958 . S
H1774 C1759 0.961 . S
H1775 C1759 0.960 . S
C1776 C1777 1.391 . S
C1776 C1778 1.394 . S
C1776 H1792 0.931 . S
C1777 C1776 1.391 . S
C1777 C1781 1.376 . S
C1778 C1776 1.394 . S
C1778 C1779 1.369 . S
C1778 C1782 1.531 . S
C1779 C1778 1.369 . S
C1779 C1780 1.410 . S
C1779 C1787 1.503 . S
C1780 C1779 1.410 . S
C1780 C1781 1.392 . S
C1780 C1783 1.511 . S
C1781 C1777 1.376 . S
C1781 C1780 1.392 . S
C1781 H1793 0.929 . S
C1782 C1778 1.531 . S
C1782 H1794 0.960 . S
C1782 H1795 0.962 . S
C1782 H1796 0.960 . S
C1783 C1780 1.511 . S
C1783 H1797 0.961 . S
C1783 H1798 0.961 . S
C1783 H1799 0.961 . S
C1784 C1785 1.370 . S
C1784 C1786 1.363 . S
C1784 H1800 0.931 . S
C1785 C1784 1.370 . S
C1785 C1789 1.408 . S
C1786 C1784 1.363 . S
C1786 C1787 1.370 . S
C1786 C1790 1.524 . S
C1787 C1779 1.503 . S
C1787 C1786 1.370 . S
C1787 C1788 1.403 . S
C1788 C1787 1.403 . S
C1788 C1789 1.404 . S
C1788 C1791 1.539 . S
C1789 C1785 1.408 . S
C1789 C1788 1.404 . S
C1789 H1801 0.930 . S
C1790 C1786 1.524 . S
C1790 H1802 0.956 . S
C1790 H1803 0.961 . S
C1790 H1804 0.961 . S
C1791 C1788 1.539 . S
C1791 H1805 0.958 . S
C1791 H1806 0.961 . S
C1791 H1807 0.960 . S
H1792 C1776 0.931 . S
H1793 C1781 0.929 . S
H1794 C1782 0.960 . S
H1795 C1782 0.962 . S
H1796 C1782 0.960 . S
H1797 C1783 0.961 . S
H1798 C1783 0.961 . S
H1799 C1783 0.961 . S
H1800 C1784 0.931 . S
H1801 C1789 0.930 . S
H1802 C1790 0.956 . S
H1803 C1790 0.961 . S
H1804 C1790 0.961 . S
H1805 C1791 0.958 . S
H1806 C1791 0.961 . S
H1807 C1791 0.960 . S
C1808 C1809 1.391 . S
C1808 C1810 1.394 . S
C1808 H1824 0.931 . S
C1809 C1808 1.391 . S
C1809 C1813 1.376 . S
C1810 C1808 1.394 . S
C1810 C1811 1.369 . S
C1810 C1814 1.531 . S
C1811 C1810 1.369 . S
C1811 C1812 1.410 . S
C1811 C1819 1.503 . S
C1812 C1811 1.410 . S
C1812 C1813 1.392 . S
C1812 C1815 1.511 . S
C1813 C1809 1.376 . S
C1813 C1812 1.392 . S
C1813 H1825 0.929 . S
C1814 C1810 1.531 . S
C1814 H1826 0.960 . S
C1814 H1827 0.962 . S
C1814 H1828 0.960 . S
C1815 C1812 1.511 . S
C1815 H1829 0.961 . S
C1815 H1830 0.961 . S
C1815 H1831 0.961 . S
C1816 C1817 1.370 . S
C1816 C1818 1.363 . S
C1816 H1832 0.931 . S
C1817 C1816 1.370 . S
C1817 C1821 1.408 . S
C1818 C1816 1.363 . S
C1818 C1819 1.370 . S
C1818 C1822 1.524 . S
C1819 C1811 1.503 . S
C1819 C1818 1.370 . S
C1819 C1820 1.403 . S
C1820 C1819 1.403 . S
C1820 C1821 1.404 . S
C1820 C1823 1.539 . S
C1821 C1817 1.408 . S
C1821 C1820 1.404 . S
C1821 H1833 0.930 . S
C1822 C1818 1.524 . S
C1822 H1834 0.956 . S
C1822 H1835 0.961 . S
C1822 H1836 0.961 . S
C1823 C1820 1.539 . S
C1823 H1837 0.958 . S
C1823 H1838 0.961 . S
C1823 H1839 0.960 . S
H1824 C1808 0.931 . S
H1825 C1813 0.929 . S
H1826 C1814 0.960 . S
H1827 C1814 0.962 . S
H1828 C1814 0.960 . S
H1829 C1815 0.961 . S
H1830 C1815 0.961 . S
H1831 C1815 0.961 . S
H1832 C1816 0.931 . S
H1833 C1821 0.930 . S
H1834 C1822 0.956 . S
H1835 C1822 0.961 . S
H1836 C1822 0.961 . S
H1837 C1823 0.958 . S
H1838 C1823 0.961 . S
H1839 C1823 0.960 . S
C1840 C1841 1.391 . S
C1840 C1842 1.394 . S
C1840 H1856 0.931 . S
C1841 C1840 1.391 . S
C1841 C1845 1.376 . S
C1842 C1840 1.394 . S
C1842 C1843 1.369 . S
C1842 C1846 1.531 . S
C1843 C1842 1.369 . S
C1843 C1844 1.410 . S
C1843 C1851 1.503 . S
C1844 C1843 1.410 . S
C1844 C1845 1.392 . S
C1844 C1847 1.511 . S
C1845 C1841 1.376 . S
C1845 C1844 1.392 . S
C1845 H1857 0.929 . S
C1846 C1842 1.531 . S
C1846 H1858 0.960 . S
C1846 H1859 0.962 . S
C1846 H1860 0.960 . S
C1847 C1844 1.511 . S
C1847 H1861 0.961 . S
C1847 H1862 0.961 . S
C1847 H1863 0.961 . S
C1848 C1849 1.370 . S
C1848 C1850 1.363 . S
C1848 H1864 0.931 . S
C1849 C1848 1.370 . S
C1849 C1853 1.408 . S
C1850 C1848 1.363 . S
C1850 C1851 1.370 . S
C1850 C1854 1.524 . S
C1851 C1843 1.503 . S
C1851 C1850 1.370 . S
C1851 C1852 1.403 . S
C1852 C1851 1.403 . S
C1852 C1853 1.404 . S
C1852 C1855 1.539 . S
C1853 C1849 1.408 . S
C1853 C1852 1.404 . S
C1853 H1865 0.930 . S
C1854 C1850 1.524 . S
C1854 H1866 0.956 . S
C1854 H1867 0.961 . S
C1854 H1868 0.961 . S
C1855 C1852 1.539 . S
C1855 H1869 0.958 . S
C1855 H1870 0.961 . S
C1855 H1871 0.960 . S
H1856 C1840 0.931 . S
H1857 C1845 0.929 . S
H1858 C1846 0.960 . S
H1859 C1846 0.962 . S
H1860 C1846 0.960 . S
H1861 C1847 0.961 . S
H1862 C1847 0.961 . S
H1863 C1847 0.961 . S
H1864 C1848 0.931 . S
H1865 C1853 0.930 . S
H1866 C1854 0.956 . S
H1867 C1854 0.961 . S
H1868 C1854 0.961 . S
H1869 C1855 0.958 . S
H1870 C1855 0.961 . S
H1871 C1855 0.960 . S
C1872 C1873 1.391 . S
C1872 C1874 1.394 . S
C1872 H1888 0.931 . S
C1873 C1872 1.391 . S
C1873 C1877 1.376 . S
C1874 C1872 1.394 . S
C1874 C1875 1.369 . S
C1874 C1878 1.531 . S
C1875 C1874 1.369 . S
C1875 C1876 1.410 . S
C1875 C1883 1.503 . S
C1876 C1875 1.410 . S
C1876 C1877 1.392 . S
C1876 C1879 1.511 . S
C1877 C1873 1.376 . S
C1877 C1876 1.392 . S
C1877 H1889 0.929 . S
C1878 C1874 1.531 . S
C1878 H1890 0.960 . S
C1878 H1891 0.962 . S
C1878 H1892 0.960 . S
C1879 C1876 1.511 . S
C1879 H1893 0.961 . S
C1879 H1894 0.961 . S
C1879 H1895 0.961 . S
C1880 C1881 1.370 . S
C1880 C1882 1.363 . S
C1880 H1896 0.931 . S
C1881 C1880 1.370 . S
C1881 C1885 1.408 . S
C1882 C1880 1.363 . S
C1882 C1883 1.370 . S
C1882 C1886 1.524 . S
C1883 C1875 1.503 . S
C1883 C1882 1.370 . S
C1883 C1884 1.403 . S
C1884 C1883 1.403 . S
C1884 C1885 1.404 . S
C1884 C1887 1.539 . S
C1885 C1881 1.408 . S
C1885 C1884 1.404 . S
C1885 H1897 0.930 . S
C1886 C1882 1.524 . S
C1886 H1898 0.956 . S
C1886 H1899 0.961 . S
C1886 H1900 0.961 . S
C1887 C1884 1.539 . S
C1887 H1901 0.958 . S
C1887 H1902 0.961 . S
C1887 H1903 0.960 . S
H1888 C1872 0.931 . S
H1889 C1877 0.929 . S
H1890 C1878 0.960 . S
H1891 C1878 0.962 . S
H1892 C1878 0.960 . S
H1893 C1879 0.961 . S
H1894 C1879 0.961 . S
H1895 C1879 0.961 . S
H1896 C1880 0.931 . S
H1897 C1885 0.930 . S
H1898 C1886 0.956 . S
H1899 C1886 0.961 . S
H1900 C1886 0.961 . S
H1901 C1887 0.958 . S
H1902 C1887 0.961 . S
H1903 C1887 0.960 . S
C1904 C1905 1.391 . S
C1904 C1906 1.394 . S
C1904 H1920 0.931 . S
C1905 C1904 1.391 . S
C1905 C1909 1.376 . S
C1906 C1904 1.394 . S
C1906 C1907 1.369 . S
C1906 C1910 1.531 . S
C1907 C1906 1.369 . S
C1907 C1908 1.410 . S
C1907 C1915 1.503 . S
C1908 C1907 1.410 . S
C1908 C1909 1.392 . S
C1908 C1911 1.511 . S
C1909 C1905 1.376 . S
C1909 C1908 1.392 . S
C1909 H1921 0.929 . S
C1910 C1906 1.531 . S
C1910 H1922 0.960 . S
C1910 H1923 0.962 . S
C1910 H1924 0.960 . S
C1911 C1908 1.511 . S
C1911 H1925 0.961 . S
C1911 H1926 0.961 . S
C1911 H1927 0.961 . S
C1912 C1913 1.370 . S
C1912 C1914 1.363 . S
C1912 H1928 0.931 . S
C1913 C1912 1.370 . S
C1913 C1917 1.408 . S
C1914 C1912 1.363 . S
C1914 C1915 1.370 . S
C1914 C1918 1.524 . S
C1915 C1907 1.503 . S
C1915 C1914 1.370 . S
C1915 C1916 1.403 . S
C1916 C1915 1.403 . S
C1916 C1917 1.404 . S
C1916 C1919 1.539 . S
C1917 C1913 1.408 . S
C1917 C1916 1.404 . S
C1917 H1929 0.930 . S
C1918 C1914 1.524 . S
C1918 H1930 0.956 . S
C1918 H1931 0.961 . S
C1918 H1932 0.961 . S
C1919 C1916 1.539 . S
C1919 H1933 0.958 . S
C1919 H1934 0.961 . S
C1919 H1935 0.960 . S
H1920 C1904 0.931 . S
H1921 C1909 0.929 . S
H1922 C1910 0.960 . S
H1923 C1910 0.962 . S
H1924 C1910 0.960 . S
H1925 C1911 0.961 . S
H1926 C1911 0.961 . S
H1927 C1911 0.961 . S
H1928 C1912 0.931 . S
H1929 C1917 0.930 . S
H1930 C1918 0.956 . S
H1931 C1918 0.961 . S
H1932 C1918 0.961 . S
H1933 C1919 0.958 . S
H1934 C1919 0.961 . S
H1935 C1919 0.960 . S
C1936 C1937 1.391 . S
C1936 C1938 1.394 . S
C1936 H1952 0.931 . S
C1937 C1936 1.391 . S
C1937 C1941 1.376 . S
C1938 C1936 1.394 . S
C1938 C1939 1.369 . S
C1938 C1942 1.531 . S
C1939 C1938 1.369 . S
C1939 C1940 1.410 . S
C1939 C1947 1.503 . S
C1940 C1939 1.410 . S
C1940 C1941 1.392 . S
C1940 C1943 1.511 . S
C1941 C1937 1.376 . S
C1941 C1940 1.392 . S
C1941 H1953 0.929 . S
C1942 C1938 1.531 . S
C1942 H1954 0.960 . S
C1942 H1955 0.962 . S
C1942 H1956 0.960 . S
C1943 C1940 1.511 . S
C1943 H1957 0.961 . S
C1943 H1958 0.961 . S
C1943 H1959 0.961 . S
C1944 C1945 1.370 . S
C1944 C1946 1.363 . S
C1944 H1960 0.931 . S
C1945 C1944 1.370 . S
C1945 C1949 1.408 . S
C1946 C1944 1.363 . S
C1946 C1947 1.370 . S
C1946 C1950 1.524 . S
C1947 C1939 1.503 . S
C1947 C1946 1.370 . S
C1947 C1948 1.403 . S
C1948 C1947 1.403 . S
C1948 C1949 1.404 . S
C1948 C1951 1.539 . S
C1949 C1945 1.408 . S
C1949 C1948 1.404 . S
C1949 H1961 0.930 . S
C1950 C1946 1.524 . S
C1950 H1962 0.956 . S
C1950 H1963 0.961 . S
C1950 H1964 0.961 . S
C1951 C1948 1.539 . S
C1951 H1965 0.958 . S
C1951 H1966 0.961 . S
C1951 H1967 0.960 . S
H1952 C1936 0.931 . S
H1953 C1941 0.929 . S
H1954 C1942 0.960 . S
H1955 C1942 0.962 . S
H1956 C1942 0.960 . S
H1957 C1943 0.961 . S
H1958 C1943 0.961 . S
H1959 C1943 0.961 . S
H1960 C1944 0.931 . S
H1961 C1949 0.930 . S
H1962 C1950 0.956 . S
H1963 C1950 0.961 . S
H1964 C1950 0.961 . S
H1965 C1951 0.958 . S
H1966 C1951 0.961 . S
H1967 C1951 0.960 . S
C1968 C1969 1.391 . S
C1968 C1970 1.394 . S
C1968 H1984 0.931 . S
C1969 C1968 1.391 . S
C1969 C1973 1.376 . S
C1970 C1968 1.394 . S
C1970 C1971 1.369 . S
C1970 C1974 1.531 . S
C1971 C1970 1.369 . S
C1971 C1972 1.410 . S
C1971 C1979 1.503 . S
C1972 C1971 1.410 . S
C1972 C1973 1.392 . S
C1972 C1975 1.511 . S
C1973 C1969 1.376 . S
C1973 C1972 1.392 . S
C1973 H1985 0.929 . S
C1974 C1970 1.531 . S
C1974 H1986 0.960 . S
C1974 H1987 0.962 . S
C1974 H1988 0.960 . S
C1975 C1972 1.511 . S
C1975 H1989 0.961 . S
C1975 H1990 0.961 . S
C1975 H1991 0.961 . S
C1976 C1977 1.370 . S
C1976 C1978 1.363 . S
C1976 H1992 0.931 . S
C1977 C1976 1.370 . S
C1977 C1981 1.408 . S
C1978 C1976 1.363 . S
C1978 C1979 1.370 . S
C1978 C1982 1.524 . S
C1979 C1971 1.503 . S
C1979 C1978 1.370 . S
C1979 C1980 1.403 . S
C1980 C1979 1.403 . S
C1980 C1981 1.404 . S
C1980 C1983 1.539 . S
C1981 C1977 1.408 . S
C1981 C1980 1.404 . S
C1981 H1993 0.930 . S
C1982 C1978 1.524 . S
C1982 H1994 0.956 . S
C1982 H1995 0.961 . S
C1982 H1996 0.961 . S
C1983 C1980 1.539 . S
C1983 H1997 0.958 . S
C1983 H1998 0.961 . S
C1983 H1999 0.960 . S
H1984 C1968 0.931 . S
H1985 C1973 0.929 . S
H1986 C1974 0.960 . S
H1987 C1974 0.962 . S
H1988 C1974 0.960 . S
H1989 C1975 0.961 . S
H1990 C1975 0.961 . S
H1991 C1975 0.961 . S
H1992 C1976 0.931 . S
H1993 C1981 0.930 . S
H1994 C1982 0.956 . S
H1995 C1982 0.961 . S
H1996 C1982 0.961 . S
H1997 C1983 0.958 . S
H1998 C1983 0.961 . S
H1999 C1983 0.960 . S
C2000 C2001 1.391 . S
C2000 C2002 1.394 . S
C2000 H2016 0.931 . S
C2001 C2000 1.391 . S
C2001 C2005 1.376 . S
C2002 C2000 1.394 . S
C2002 C2003 1.369 . S
C2002 C2006 1.531 . S
C2003 C2002 1.369 . S
C2003 C2004 1.410 . S
C2003 C2011 1.503 . S
C2004 C2003 1.410 . S
C2004 C2005 1.392 . S
C2004 C2007 1.511 . S
C2005 C2001 1.376 . S
C2005 C2004 1.392 . S
C2005 H2017 0.929 . S
C2006 C2002 1.531 . S
C2006 H2018 0.960 . S
C2006 H2019 0.962 . S
C2006 H2020 0.960 . S
C2007 C2004 1.511 . S
C2007 H2021 0.961 . S
C2007 H2022 0.961 . S
C2007 H2023 0.961 . S
C2008 C2009 1.370 . S
C2008 C2010 1.363 . S
C2008 H2024 0.931 . S
C2009 C2008 1.370 . S
C2009 C2013 1.408 . S
C2010 C2008 1.363 . S
C2010 C2011 1.370 . S
C2010 C2014 1.524 . S
C2011 C2003 1.503 . S
C2011 C2010 1.370 . S
C2011 C2012 1.403 . S
C2012 C2011 1.403 . S
C2012 C2013 1.404 . S
C2012 C2015 1.539 . S
C2013 C2009 1.408 . S
C2013 C2012 1.404 . S
C2013 H2025 0.930 . S
C2014 C2010 1.524 . S
C2014 H2026 0.956 . S
C2014 H2027 0.961 . S
C2014 H2028 0.961 . S
C2015 C2012 1.539 . S
C2015 H2029 0.958 . S
C2015 H2030 0.961 . S
C2015 H2031 0.960 . S
H2016 C2000 0.931 . S
H2017 C2005 0.929 . S
H2018 C2006 0.960 . S
H2019 C2006 0.962 . S
H2020 C2006 0.960 . S
H2021 C2007 0.961 . S
H2022 C2007 0.961 . S
H2023 C2007 0.961 . S
H2024 C2008 0.931 . S
H2025 C2013 0.930 . S
H2026 C2014 0.956 . S
H2027 C2014 0.961 . S
H2028 C2014 0.961 . S
H2029 C2015 0.958 . S
H2030 C2015 0.961 . S
H2031 C2015 0.960 . S
C2032 C2033 1.391 . S
C2032 C2034 1.394 . S
C2032 H2048 0.931 . S
C2033 C2032 1.391 . S
C2033 C2037 1.376 . S
C2034 C2032 1.394 . S
C2034 C2035 1.369 . S
C2034 C2038 1.531 . S
C2035 C2034 1.369 . S
C2035 C2036 1.410 . S
C2035 C2043 1.503 . S
C2036 C2035 1.410 . S
C2036 C2037 1.392 . S
C2036 C2039 1.511 . S
C2037 C2033 1.376 . S
C2037 C2036 1.392 . S
C2037 H2049 0.929 . S
C2038 C2034 1.531 . S
C2038 H2050 0.960 . S
C2038 H2051 0.962 . S
C2038 H2052 0.960 . S
C2039 C2036 1.511 . S
C2039 H2053 0.961 . S
C2039 H2054 0.961 . S
C2039 H2055 0.961 . S
C2040 C2041 1.370 . S
C2040 C2042 1.363 . S
C2040 H2056 0.931 . S
C2041 C2040 1.370 . S
C2041 C2045 1.408 . S
C2042 C2040 1.363 . S
C2042 C2043 1.370 . S
C2042 C2046 1.524 . S
C2043 C2035 1.503 . S
C2043 C2042 1.370 . S
C2043 C2044 1.403 . S
C2044 C2043 1.403 . S
C2044 C2045 1.404 . S
C2044 C2047 1.539 . S
C2045 C2041 1.408 . S
C2045 C2044 1.404 . S
C2045 H2057 0.930 . S
C2046 C2042 1.524 . S
C2046 H2058 0.956 . S
C2046 H2059 0.961 . S
C2046 H2060 0.961 . S
C2047 C2044 1.539 . S
C2047 H2061 0.958 . S
C2047 H2062 0.961 . S
C2047 H2063 0.960 . S
H2048 C2032 0.931 . S
H2049 C2037 0.929 . S
H2050 C2038 0.960 . S
H2051 C2038 0.962 . S
H2052 C2038 0.960 . S
H2053 C2039 0.961 . S
H2054 C2039 0.961 . S
H2055 C2039 0.961 . S
H2056 C2040 0.931 . S
H2057 C2045 0.930 . S
H2058 C2046 0.956 . S
H2059 C2046 0.961 . S
H2060 C2046 0.961 . S
H2061 C2047 0.958 . S
H2062 C2047 0.961 . S
H2063 C2047 0.960 . S
C2064 C2065 1.391 . S
C2064 C2066 1.394 . S
C2064 H2080 0.931 . S
C2065 C2064 1.391 . S
C2065 C2069 1.376 . S
C2066 C2064 1.394 . S
C2066 C2067 1.369 . S
C2066 C2070 1.531 . S
C2067 C2066 1.369 . S
C2067 C2068 1.410 . S
C2067 C2075 1.503 . S
C2068 C2067 1.410 . S
C2068 C2069 1.392 . S
C2068 C2071 1.511 . S
C2069 C2065 1.376 . S
C2069 C2068 1.392 . S
C2069 H2081 0.929 . S
C2070 C2066 1.531 . S
C2070 H2082 0.960 . S
C2070 H2083 0.962 . S
C2070 H2084 0.960 . S
C2071 C2068 1.511 . S
C2071 H2085 0.961 . S
C2071 H2086 0.961 . S
C2071 H2087 0.961 . S
C2072 C2073 1.370 . S
C2072 C2074 1.363 . S
C2072 H2088 0.931 . S
C2073 C2072 1.370 . S
C2073 C2077 1.408 . S
C2074 C2072 1.363 . S
C2074 C2075 1.370 . S
C2074 C2078 1.524 . S
C2075 C2067 1.503 . S
C2075 C2074 1.370 . S
C2075 C2076 1.403 . S
C2076 C2075 1.403 . S
C2076 C2077 1.404 . S
C2076 C2079 1.539 . S
C2077 C2073 1.408 . S
C2077 C2076 1.404 . S
C2077 H2089 0.930 . S
C2078 C2074 1.524 . S
C2078 H2090 0.956 . S
C2078 H2091 0.961 . S
C2078 H2092 0.961 . S
C2079 C2076 1.539 . S
C2079 H2093 0.958 . S
C2079 H2094 0.961 . S
C2079 H2095 0.960 . S
H2080 C2064 0.931 . S
H2081 C2069 0.929 . S
H2082 C2070 0.960 . S
H2083 C2070 0.962 . S
H2084 C2070 0.960 . S
H2085 C2071 0.961 . S
H2086 C2071 0.961 . S
H2087 C2071 0.961 . S
H2088 C2072 0.931 . S
H2089 C2077 0.930 . S
H2090 C2078 0.956 . S
H2091 C2078 0.961 . S
H2092 C2078 0.961 . S
H2093 C2079 0.958 . S
H2094 C2079 0.961 . S
H2095 C2079 0.960 . S
C2096 C2097 1.391 . S
C2096 C2098 1.394 . S
C2096 H2112 0.931 . S
C2097 C2096 1.391 . S
C2097 C2101 1.376 . S
C2098 C2096 1.394 . S
C2098 C2099 1.369 . S
C2098 C2102 1.531 . S
C2099 C2098 1.369 . S
C2099 C2100 1.410 . S
C2099 C2107 1.503 . S
C2100 C2099 1.410 . S
C2100 C2101 1.392 . S
C2100 C2103 1.511 . S
C2101 C2097 1.376 . S
C2101 C2100 1.392 . S
C2101 H2113 0.929 . S
C2102 C2098 1.531 . S
C2102 H2114 0.960 . S
C2102 H2115 0.962 . S
C2102 H2116 0.960 . S
C2103 C2100 1.511 . S
C2103 H2117 0.961 . S
C2103 H2118 0.961 . S
C2103 H2119 0.961 . S
C2104 C2105 1.370 . S
C2104 C2106 1.363 . S
C2104 H2120 0.931 . S
C2105 C2104 1.370 . S
C2105 C2109 1.408 . S
C2106 C2104 1.363 . S
C2106 C2107 1.370 . S
C2106 C2110 1.524 . S
C2107 C2099 1.503 . S
C2107 C2106 1.370 . S
C2107 C2108 1.403 . S
C2108 C2107 1.403 . S
C2108 C2109 1.404 . S
C2108 C2111 1.539 . S
C2109 C2105 1.408 . S
C2109 C2108 1.404 . S
C2109 H2121 0.930 . S
C2110 C2106 1.524 . S
C2110 H2122 0.956 . S
C2110 H2123 0.961 . S
C2110 H2124 0.961 . S
C2111 C2108 1.539 . S
C2111 H2125 0.958 . S
C2111 H2126 0.961 . S
C2111 H2127 0.960 . S
H2112 C2096 0.931 . S
H2113 C2101 0.929 . S
H2114 C2102 0.960 . S
H2115 C2102 0.962 . S
H2116 C2102 0.960 . S
H2117 C2103 0.961 . S
H2118 C2103 0.961 . S
H2119 C2103 0.961 . S
H2120 C2104 0.931 . S
H2121 C2109 0.930 . S
H2122 C2110 0.956 . S
H2123 C2110 0.961 . S
H2124 C2110 0.961 . S
H2125 C2111 0.958 . S
H2126 C2111 0.961 . S
H2127 C2111 0.960 . S
C2128 C2129 1.391 . S
C2128 C2130 1.394 . S
C2128 H2144 0.931 . S
C2129 C2128 1.391 . S
C2129 C2133 1.376 . S
C2130 C2128 1.394 . S
C2130 C2131 1.369 . S
C2130 C2134 1.531 . S
C2131 C2130 1.369 . S
C2131 C2132 1.410 . S
C2131 C2139 1.503 . S
C2132 C2131 1.410 . S
C2132 C2133 1.392 . S
C2132 C2135 1.511 . S
C2133 C2129 1.376 . S
C2133 C2132 1.392 . S
C2133 H2145 0.929 . S
C2134 C2130 1.531 . S
C2134 H2146 0.960 . S
C2134 H2147 0.962 . S
C2134 H2148 0.960 . S
C2135 C2132 1.511 . S
C2135 H2149 0.961 . S
C2135 H2150 0.961 . S
C2135 H2151 0.961 . S
C2136 C2137 1.370 . S
C2136 C2138 1.363 . S
C2136 H2152 0.931 . S
C2137 C2136 1.370 . S
C2137 C2141 1.408 . S
C2138 C2136 1.363 . S
C2138 C2139 1.370 . S
C2138 C2142 1.524 . S
C2139 C2131 1.503 . S
C2139 C2138 1.370 . S
C2139 C2140 1.403 . S
C2140 C2139 1.403 . S
C2140 C2141 1.404 . S
C2140 C2143 1.539 . S
C2141 C2137 1.408 . S
C2141 C2140 1.404 . S
C2141 H2153 0.930 . S
C2142 C2138 1.524 . S
C2142 H2154 0.956 . S
C2142 H2155 0.961 . S
C2142 H2156 0.961 . S
C2143 C2140 1.539 . S
C2143 H2157 0.958 . S
C2143 H2158 0.961 . S
C2143 H2159 0.960 . S
H2144 C2128 0.931 . S
H2145 C2133 0.929 . S
H2146 C2134 0.960 . S
H2147 C2134 0.962 . S
H2148 C2134 0.960 . S
H2149 C2135 0.961 . S
H2150 C2135 0.961 . S
H2151 C2135 0.961 . S
H2152 C2136 0.931 . S
H2153 C2141 0.930 . S
H2154 C2142 0.956 . S
H2155 C2142 0.961 . S
H2156 C2142 0.961 . S
H2157 C2143 0.958 . S
H2158 C2143 0.961 . S
H2159 C2143 0.960 . S
C2160 C2161 1.391 . S
C2160 C2162 1.394 . S
C2160 H2176 0.931 . S
C2161 C2160 1.391 . S
C2161 C2165 1.376 . S
C2162 C2160 1.394 . S
C2162 C2163 1.369 . S
C2162 C2166 1.531 . S
C2163 C2162 1.369 . S
C2163 C2164 1.410 . S
C2163 C2171 1.503 . S
C2164 C2163 1.410 . S
C2164 C2165 1.392 . S
C2164 C2167 1.511 . S
C2165 C2161 1.376 . S
C2165 C2164 1.392 . S
C2165 H2177 0.929 . S
C2166 C2162 1.531 . S
C2166 H2178 0.960 . S
C2166 H2179 0.962 . S
C2166 H2180 0.960 . S
C2167 C2164 1.511 . S
C2167 H2181 0.961 . S
C2167 H2182 0.961 . S
C2167 H2183 0.961 . S
C2168 C2169 1.370 . S
C2168 C2170 1.363 . S
C2168 H2184 0.931 . S
C2169 C2168 1.370 . S
C2169 C2173 1.408 . S
C2170 C2168 1.363 . S
C2170 C2171 1.370 . S
C2170 C2174 1.524 . S
C2171 C2163 1.503 . S
C2171 C2170 1.370 . S
C2171 C2172 1.403 . S
C2172 C2171 1.403 . S
C2172 C2173 1.404 . S
C2172 C2175 1.539 . S
C2173 C2169 1.408 . S
C2173 C2172 1.404 . S
C2173 H2185 0.930 . S
C2174 C2170 1.524 . S
C2174 H2186 0.956 . S
C2174 H2187 0.961 . S
C2174 H2188 0.961 . S
C2175 C2172 1.539 . S
C2175 H2189 0.958 . S
C2175 H2190 0.961 . S
C2175 H2191 0.960 . S
H2176 C2160 0.931 . S
H2177 C2165 0.929 . S
H2178 C2166 0.960 . S
H2179 C2166 0.962 . S
H2180 C2166 0.960 . S
H2181 C2167 0.961 . S
H2182 C2167 0.961 . S
H2183 C2167 0.961 . S
H2184 C2168 0.931 . S
H2185 C2173 0.930 . S
H2186 C2174 0.956 . S
H2187 C2174 0.961 . S
H2188 C2174 0.961 . S
H2189 C2175 0.958 . S
H2190 C2175 0.961 . S
H2191 C2175 0.960 . S
C2192 C2193 1.391 . S
C2192 C2194 1.394 . S
C2192 H2208 0.931 . S
C2193 C2192 1.391 . S
C2193 C2197 1.376 . S
C2194 C2192 1.394 . S
C2194 C2195 1.369 . S
C2194 C2198 1.531 . S
C2195 C2194 1.369 . S
C2195 C2196 1.410 . S
C2195 C2203 1.503 . S
C2196 C2195 1.410 . S
C2196 C2197 1.392 . S
C2196 C2199 1.511 . S
C2197 C2193 1.376 . S
C2197 C2196 1.392 . S
C2197 H2209 0.929 . S
C2198 C2194 1.531 . S
C2198 H2210 0.960 . S
C2198 H2211 0.962 . S
C2198 H2212 0.960 . S
C2199 C2196 1.511 . S
C2199 H2213 0.961 . S
C2199 H2214 0.961 . S
C2199 H2215 0.961 . S
C2200 C2201 1.370 . S
C2200 C2202 1.363 . S
C2200 H2216 0.931 . S
C2201 C2200 1.370 . S
C2201 C2205 1.408 . S
C2202 C2200 1.363 . S
C2202 C2203 1.370 . S
C2202 C2206 1.524 . S
C2203 C2195 1.503 . S
C2203 C2202 1.370 . S
C2203 C2204 1.403 . S
C2204 C2203 1.403 . S
C2204 C2205 1.404 . S
C2204 C2207 1.539 . S
C2205 C2201 1.408 . S
C2205 C2204 1.404 . S
C2205 H2217 0.930 . S
C2206 C2202 1.524 . S
C2206 H2218 0.956 . S
C2206 H2219 0.961 . S
C2206 H2220 0.961 . S
C2207 C2204 1.539 . S
C2207 H2221 0.958 . S
C2207 H2222 0.961 . S
C2207 H2223 0.960 . S
H2208 C2192 0.931 . S
H2209 C2197 0.929 . S
H2210 C2198 0.960 . S
H2211 C2198 0.962 . S
H2212 C2198 0.960 . S
H2213 C2199 0.961 . S
H2214 C2199 0.961 . S
H2215 C2199 0.961 . S
H2216 C2200 0.931 . S
H2217 C2205 0.930 . S
H2218 C2206 0.956 . S
H2219 C2206 0.961 . S
H2220 C2206 0.961 . S
H2221 C2207 0.958 . S
H2222 C2207 0.961 . S
H2223 C2207 0.960 . S
C2224 C2225 1.391 . S
C2224 C2226 1.394 . S
C2224 H2240 0.931 . S
C2225 C2224 1.391 . S
C2225 C2229 1.376 . S
C2226 C2224 1.394 . S
C2226 C2227 1.369 . S
C2226 C2230 1.531 . S
C2227 C2226 1.369 . S
C2227 C2228 1.410 . S
C2227 C2235 1.503 . S
C2228 C2227 1.410 . S
C2228 C2229 1.392 . S
C2228 C2231 1.511 . S
C2229 C2225 1.376 . S
C2229 C2228 1.392 . S
C2229 H2241 0.929 . S
C2230 C2226 1.531 . S
C2230 H2242 0.960 . S
C2230 H2243 0.962 . S
C2230 H2244 0.960 . S
C2231 C2228 1.511 . S
C2231 H2245 0.961 . S
C2231 H2246 0.961 . S
C2231 H2247 0.961 . S
C2232 C2233 1.370 . S
C2232 C2234 1.363 . S
C2232 H2248 0.931 . S
C2233 C2232 1.370 . S
C2233 C2237 1.408 . S
C2234 C2232 1.363 . S
C2234 C2235 1.370 . S
C2234 C2238 1.524 . S
C2235 C2227 1.503 . S
C2235 C2234 1.370 . S
C2235 C2236 1.403 . S
C2236 C2235 1.403 . S
C2236 C2237 1.404 . S
C2236 C2239 1.539 . S
C2237 C2233 1.408 . S
C2237 C2236 1.404 . S
C2237 H2249 0.930 . S
C2238 C2234 1.524 . S
C2238 H2250 0.956 . S
C2238 H2251 0.961 . S
C2238 H2252 0.961 . S
C2239 C2236 1.539 . S
C2239 H2253 0.958 . S
C2239 H2254 0.961 . S
C2239 H2255 0.960 . S
H2240 C2224 0.931 . S
H2241 C2229 0.929 . S
H2242 C2230 0.960 . S
H2243 C2230 0.962 . S
H2244 C2230 0.960 . S
H2245 C2231 0.961 . S
H2246 C2231 0.961 . S
H2247 C2231 0.961 . S
H2248 C2232 0.931 . S
H2249 C2237 0.930 . S
H2250 C2238 0.956 . S
H2251 C2238 0.961 . S
H2252 C2238 0.961 . S
H2253 C2239 0.958 . S
H2254 C2239 0.961 . S
H2255 C2239 0.960 . S
C2256 C2257 1.391 . S
C2256 C2258 1.394 . S
C2256 H2272 0.931 . S
C2257 C2256 1.391 . S
C2257 C2261 1.376 . S
C2258 C2256 1.394 . S
C2258 C2259 1.369 . S
C2258 C2262 1.531 . S
C2259 C2258 1.369 . S
C2259 C2260 1.410 . S
C2259 C2267 1.503 . S
C2260 C2259 1.410 . S
C2260 C2261 1.392 . S
C2260 C2263 1.511 . S
C2261 C2257 1.376 . S
C2261 C2260 1.392 . S
C2261 H2273 0.929 . S
C2262 C2258 1.531 . S
C2262 H2274 0.960 . S
C2262 H2275 0.962 . S
C2262 H2276 0.960 . S
C2263 C2260 1.511 . S
C2263 H2277 0.961 . S
C2263 H2278 0.961 . S
C2263 H2279 0.961 . S
C2264 C2265 1.370 . S
C2264 C2266 1.363 . S
C2264 H2280 0.931 . S
C2265 C2264 1.370 . S
C2265 C2269 1.408 . S
C2266 C2264 1.363 . S
C2266 C2267 1.370 . S
C2266 C2270 1.524 . S
C2267 C2259 1.503 . S
C2267 C2266 1.370 . S
C2267 C2268 1.403 . S
C2268 C2267 1.403 . S
C2268 C2269 1.404 . S
C2268 C2271 1.539 . S
C2269 C2265 1.408 . S
C2269 C2268 1.404 . S
C2269 H2281 0.930 . S
C2270 C2266 1.524 . S
C2270 H2282 0.956 . S
C2270 H2283 0.961 . S
C2270 H2284 0.961 . S
C2271 C2268 1.539 . S
C2271 H2285 0.958 . S
C2271 H2286 0.961 . S
C2271 H2287 0.960 . S
H2272 C2256 0.931 . S
H2273 C2261 0.929 . S
H2274 C2262 0.960 . S
H2275 C2262 0.962 . S
H2276 C2262 0.960 . S
H2277 C2263 0.961 . S
H2278 C2263 0.961 . S
H2279 C2263 0.961 . S
H2280 C2264 0.931 . S
H2281 C2269 0.930 . S
H2282 C2270 0.956 . S
H2283 C2270 0.961 . S
H2284 C2270 0.961 . S
H2285 C2271 0.958 . S
H2286 C2271 0.961 . S
H2287 C2271 0.960 . S
C2288 C2289 1.391 . S
C2288 C2290 1.394 . S
C2288 H2304 0.931 . S
C2289 C2288 1.391 . S
C2289 C2293 1.376 . S
C2290 C2288 1.394 . S
C2290 C2291 1.369 . S
C2290 C2294 1.531 . S
C2291 C2290 1.369 . S
C2291 C2292 1.410 . S
C2291 C2299 1.503 . S
C2292 C2291 1.410 . S
C2292 C2293 1.392 . S
C2292 C2295 1.511 . S
C2293 C2289 1.376 . S
C2293 C2292 1.392 . S
C2293 H2305 0.929 . S
C2294 C2290 1.531 . S
C2294 H2306 0.960 . S
C2294 H2307 0.962 . S
C2294 H2308 0.960 . S
C2295 C2292 1.511 . S
C2295 H2309 0.961 . S
C2295 H2310 0.961 . S
C2295 H2311 0.961 . S
C2296 C2297 1.370 . S
C2296 C2298 1.363 . S
C2296 H2312 0.931 . S
C2297 C2296 1.370 . S
C2297 C2301 1.408 . S
C2298 C2296 1.363 . S
C2298 C2299 1.370 . S
C2298 C2302 1.524 . S
C2299 C2291 1.503 . S
C2299 C2298 1.370 . S
C2299 C2300 1.403 . S
C2300 C2299 1.403 . S
C2300 C2301 1.404 . S
C2300 C2303 1.539 . S
C2301 C2297 1.408 . S
C2301 C2300 1.404 . S
C2301 H2313 0.930 . S
C2302 C2298 1.524 . S
C2302 H2314 0.956 . S
C2302 H2315 0.961 . S
C2302 H2316 0.961 . S
C2303 C2300 1.539 . S
C2303 H2317 0.958 . S
C2303 H2318 0.961 . S
C2303 H2319 0.960 . S
H2304 C2288 0.931 . S
H2305 C2293 0.929 . S
H2306 C2294 0.960 . S
H2307 C2294 0.962 . S
H2308 C2294 0.960 . S
H2309 C2295 0.961 . S
H2310 C2295 0.961 . S
H2311 C2295 0.961 . S
H2312 C2296 0.931 . S
H2313 C2301 0.930 . S
H2314 C2302 0.956 . S
H2315 C2302 0.961 . S
H2316 C2302 0.961 . S
H2317 C2303 0.958 . S
H2318 C2303 0.961 . S
H2319 C2303 0.960 . S
C2320 C2321 1.391 . S
C2320 C2322 1.394 . S
C2320 H2336 0.931 . S
C2321 C2320 1.391 . S
C2321 C2325 1.376 . S
C2322 C2320 1.394 . S
C2322 C2323 1.369 . S
C2322 C2326 1.531 . S
C2323 C2322 1.369 . S
C2323 C2324 1.410 . S
C2323 C2331 1.503 . S
C2324 C2323 1.410 . S
C2324 C2325 1.392 . S
C2324 C2327 1.511 . S
C2325 C2321 1.376 . S
C2325 C2324 1.392 . S
C2325 H2337 0.929 . S
C2326 C2322 1.531 . S
C2326 H2338 0.960 . S
C2326 H2339 0.962 . S
C2326 H2340 0.960 . S
C2327 C2324 1.511 . S
C2327 H2341 0.961 . S
C2327 H2342 0.961 . S
C2327 H2343 0.961 . S
C2328 C2329 1.370 . S
C2328 C2330 1.363 . S
C2328 H2344 0.931 . S
C2329 C2328 1.370 . S
C2329 C2333 1.408 . S
C2330 C2328 1.363 . S
C2330 C2331 1.370 . S
C2330 C2334 1.524 . S
C2331 C2323 1.503 . S
C2331 C2330 1.370 . S
C2331 C2332 1.403 . S
C2332 C2331 1.403 . S
C2332 C2333 1.404 . S
C2332 C2335 1.539 . S
C2333 C2329 1.408 . S
C2333 C2332 1.404 . S
C2333 H2345 0.930 . S
C2334 C2330 1.524 . S
C2334 H2346 0.956 . S
C2334 H2347 0.961 . S
C2334 H2348 0.961 . S
C2335 C2332 1.539 . S
C2335 H2349 0.958 . S
C2335 H2350 0.961 . S
C2335 H2351 0.960 . S
H2336 C2320 0.931 . S
H2337 C2325 0.929 . S
H2338 C2326 0.960 . S
H2339 C2326 0.962 . S
H2340 C2326 0.960 . S
H2341 C2327 0.961 . S
H2342 C2327 0.961 . S
H2343 C2327 0.961 . S
H2344 C2328 0.931 . S
H2345 C2333 0.930 . S
H2346 C2334 0.956 . S
H2347 C2334 0.961 . S
H2348 C2334 0.961 . S
H2349 C2335 0.958 . S
H2350 C2335 0.961 . S
H2351 C2335 0.960 . S
C2352 C2353 1.391 . S
C2352 C2354 1.394 . S
C2352 H2368 0.931 . S
C2353 C2352 1.391 . S
C2353 C2357 1.376 . S
C2354 C2352 1.394 . S
C2354 C2355 1.369 . S
C2354 C2358 1.531 . S
C2355 C2354 1.369 . S
C2355 C2356 1.410 . S
C2355 C2363 1.503 . S
C2356 C2355 1.410 . S
C2356 C2357 1.392 . S
C2356 C2359 1.511 . S
C2357 C2353 1.376 . S
C2357 C2356 1.392 . S
C2357 H2369 0.929 . S
C2358 C2354 1.531 . S
C2358 H2370 0.960 . S
C2358 H2371 0.962 . S
C2358 H2372 0.960 . S
C2359 C2356 1.511 . S
C2359 H2373 0.961 . S
C2359 H2374 0.961 . S
C2359 H2375 0.961 . S
C2360 C2361 1.370 . S
C2360 C2362 1.363 . S
C2360 H2376 0.931 . S
C2361 C2360 1.370 . S
C2361 C2365 1.408 . S
C2362 C2360 1.363 . S
C2362 C2363 1.370 . S
C2362 C2366 1.524 . S
C2363 C2355 1.503 . S
C2363 C2362 1.370 . S
C2363 C2364 1.403 . S
C2364 C2363 1.403 . S
C2364 C2365 1.404 . S
C2364 C2367 1.539 . S
C2365 C2361 1.408 . S
C2365 C2364 1.404 . S
C2365 H2377 0.930 . S
C2366 C2362 1.524 . S
C2366 H2378 0.956 . S
C2366 H2379 0.961 . S
C2366 H2380 0.961 . S
C2367 C2364 1.539 . S
C2367 H2381 0.958 . S
C2367 H2382 0.961 . S
C2367 H2383 0.960 . S
H2368 C2352 0.931 . S
H2369 C2357 0.929 . S
H2370 C2358 0.960 . S
H2371 C2358 0.962 . S
H2372 C2358 0.960 . S
H2373 C2359 0.961 . S
H2374 C2359 0.961 . S
H2375 C2359 0.961 . S
H2376 C2360 0.931 . S
H2377 C2365 0.930 . S
H2378 C2366 0.956 . S
H2379 C2366 0.961 . S
H2380 C2366 0.961 . S
H2381 C2367 0.958 . S
H2382 C2367 0.961 . S
H2383 C2367 0.960 . S
C2384 C2385 1.391 . S
C2384 C2386 1.394 . S
C2384 H2400 0.931 . S
C2385 C2384 1.391 . S
C2385 C2389 1.376 . S
C2386 C2384 1.394 . S
C2386 C2387 1.369 . S
C2386 C2390 1.531 . S
C2387 C2386 1.369 . S
C2387 C2388 1.410 . S
C2387 C2395 1.503 . S
C2388 C2387 1.410 . S
C2388 C2389 1.392 . S
C2388 C2391 1.511 . S
C2389 C2385 1.376 . S
C2389 C2388 1.392 . S
C2389 H2401 0.929 . S
C2390 C2386 1.531 . S
C2390 H2402 0.960 . S
C2390 H2403 0.962 . S
C2390 H2404 0.960 . S
C2391 C2388 1.511 . S
C2391 H2405 0.961 . S
C2391 H2406 0.961 . S
C2391 H2407 0.961 . S
C2392 C2393 1.370 . S
C2392 C2394 1.363 . S
C2392 H2408 0.931 . S
C2393 C2392 1.370 . S
C2393 C2397 1.408 . S
C2394 C2392 1.363 . S
C2394 C2395 1.370 . S
C2394 C2398 1.524 . S
C2395 C2387 1.503 . S
C2395 C2394 1.370 . S
C2395 C2396 1.403 . S
C2396 C2395 1.403 . S
C2396 C2397 1.404 . S
C2396 C2399 1.539 . S
C2397 C2393 1.408 . S
C2397 C2396 1.404 . S
C2397 H2409 0.930 . S
C2398 C2394 1.524 . S
C2398 H2410 0.956 . S
C2398 H2411 0.961 . S
C2398 H2412 0.961 . S
C2399 C2396 1.539 . S
C2399 H2413 0.958 . S
C2399 H2414 0.961 . S
C2399 H2415 0.960 . S
H2400 C2384 0.931 . S
H2401 C2389 0.929 . S
H2402 C2390 0.960 . S
H2403 C2390 0.962 . S
H2404 C2390 0.960 . S
H2405 C2391 0.961 . S
H2406 C2391 0.961 . S
H2407 C2391 0.961 . S
H2408 C2392 0.931 . S
H2409 C2397 0.930 . S
H2410 C2398 0.956 . S
H2411 C2398 0.961 . S
H2412 C2398 0.961 . S
H2413 C2399 0.958 . S
H2414 C2399 0.961 . S
H2415 C2399 0.960 . S
C2416 C2417 1.391 . S
C2416 C2418 1.394 . S
C2416 H2432 0.931 . S
C2417 C2416 1.391 . S
C2417 C2421 1.376 . S
C2418 C2416 1.394 . S
C2418 C2419 1.369 . S
C2418 C2422 1.531 . S
C2419 C2418 1.369 . S
C2419 C2420 1.410 . S
C2419 C2427 1.503 . S
C2420 C2419 1.410 . S
C2420 C2421 1.392 . S
C2420 C2423 1.511 . S
C2421 C2417 1.376 . S
C2421 C2420 1.392 . S
C2421 H2433 0.929 . S
C2422 C2418 1.531 . S
C2422 H2434 0.960 . S
C2422 H2435 0.962 . S
C2422 H2436 0.960 . S
C2423 C2420 1.511 . S
C2423 H2437 0.961 . S
C2423 H2438 0.961 . S
C2423 H2439 0.961 . S
C2424 C2425 1.370 . S
C2424 C2426 1.363 . S
C2424 H2440 0.931 . S
C2425 C2424 1.370 . S
C2425 C2429 1.408 . S
C2426 C2424 1.363 . S
C2426 C2427 1.370 . S
C2426 C2430 1.524 . S
C2427 C2419 1.503 . S
C2427 C2426 1.370 . S
C2427 C2428 1.403 . S
C2428 C2427 1.403 . S
C2428 C2429 1.404 . S
C2428 C2431 1.539 . S
C2429 C2425 1.408 . S
C2429 C2428 1.404 . S
C2429 H2441 0.930 . S
C2430 C2426 1.524 . S
C2430 H2442 0.956 . S
C2430 H2443 0.961 . S
C2430 H2444 0.961 . S
C2431 C2428 1.539 . S
C2431 H2445 0.958 . S
C2431 H2446 0.961 . S
C2431 H2447 0.960 . S
H2432 C2416 0.931 . S
H2433 C2421 0.929 . S
H2434 C2422 0.960 . S
H2435 C2422 0.962 . S
H2436 C2422 0.960 . S
H2437 C2423 0.961 . S
H2438 C2423 0.961 . S
H2439 C2423 0.961 . S
H2440 C2424 0.931 . S
H2441 C2429 0.930 . S
H2442 C2430 0.956 . S
H2443 C2430 0.961 . S
H2444 C2430 0.961 . S
H2445 C2431 0.958 . S
H2446 C2431 0.961 . S
H2447 C2431 0.960 . S
C2448 C2449 1.391 . S
C2448 C2450 1.394 . S
C2448 H2464 0.931 . S
C2449 C2448 1.391 . S
C2449 C2453 1.376 . S
C2450 C2448 1.394 . S
C2450 C2451 1.369 . S
C2450 C2454 1.531 . S
C2451 C2450 1.369 . S
C2451 C2452 1.410 . S
C2451 C2459 1.503 . S
C2452 C2451 1.410 . S
C2452 C2453 1.392 . S
C2452 C2455 1.511 . S
C2453 C2449 1.376 . S
C2453 C2452 1.392 . S
C2453 H2465 0.929 . S
C2454 C2450 1.531 . S
C2454 H2466 0.960 . S
C2454 H2467 0.962 . S
C2454 H2468 0.960 . S
C2455 C2452 1.511 . S
C2455 H2469 0.961 . S
C2455 H2470 0.961 . S
C2455 H2471 0.961 . S
C2456 C2457 1.370 . S
C2456 C2458 1.363 . S
C2456 H2472 0.931 . S
C2457 C2456 1.370 . S
C2457 C2461 1.408 . S
C2458 C2456 1.363 . S
C2458 C2459 1.370 . S
C2458 C2462 1.524 . S
C2459 C2451 1.503 . S
C2459 C2458 1.370 . S
C2459 C2460 1.403 . S
C2460 C2459 1.403 . S
C2460 C2461 1.404 . S
C2460 C2463 1.539 . S
C2461 C2457 1.408 . S
C2461 C2460 1.404 . S
C2461 H2473 0.930 . S
C2462 C2458 1.524 . S
C2462 H2474 0.956 . S
C2462 H2475 0.961 . S
C2462 H2476 0.961 . S
C2463 C2460 1.539 . S
C2463 H2477 0.958 . S
C2463 H2478 0.961 . S
C2463 H2479 0.960 . S
H2464 C2448 0.931 . S
H2465 C2453 0.929 . S
H2466 C2454 0.960 . S
H2467 C2454 0.962 . S
H2468 C2454 0.960 . S
H2469 C2455 0.961 . S
H2470 C2455 0.961 . S
H2471 C2455 0.961 . S
H2472 C2456 0.931 . S
H2473 C2461 0.930 . S
H2474 C2462 0.956 . S
H2475 C2462 0.961 . S
H2476 C2462 0.961 . S
H2477 C2463 0.958 . S
H2478 C2463 0.961 . S
H2479 C2463 0.960 . S
C2480 C2481 1.391 . S
C2480 C2482 1.394 . S
C2480 H2496 0.931 . S
C2481 C2480 1.391 . S
C2481 C2485 1.376 . S
C2482 C2480 1.394 . S
C2482 C2483 1.369 . S
C2482 C2486 1.531 . S
C2483 C2482 1.369 . S
C2483 C2484 1.410 . S
C2483 C2491 1.503 . S
C2484 C2483 1.410 . S
C2484 C2485 1.392 . S
C2484 C2487 1.511 . S
C2485 C2481 1.376 . S
C2485 C2484 1.392 . S
C2485 H2497 0.929 . S
C2486 C2482 1.531 . S
C2486 H2498 0.960 . S
C2486 H2499 0.962 . S
C2486 H2500 0.960 . S
C2487 C2484 1.511 . S
C2487 H2501 0.961 . S
C2487 H2502 0.961 . S
C2487 H2503 0.961 . S
C2488 C2489 1.370 . S
C2488 C2490 1.363 . S
C2488 H2504 0.931 . S
C2489 C2488 1.370 . S
C2489 C2493 1.408 . S
C2490 C2488 1.363 . S
C2490 C2491 1.370 . S
C2490 C2494 1.524 . S
C2491 C2483 1.503 . S
C2491 C2490 1.370 . S
C2491 C2492 1.403 . S
C2492 C2491 1.403 . S
C2492 C2493 1.404 . S
C2492 C2495 1.539 . S
C2493 C2489 1.408 . S
C2493 C2492 1.404 . S
C2493 H2505 0.930 . S
C2494 C2490 1.524 . S
C2494 H2506 0.956 . S
C2494 H2507 0.961 . S
C2494 H2508 0.961 . S
C2495 C2492 1.539 . S
C2495 H2509 0.958 . S
C2495 H2510 0.961 . S
C2495 H2511 0.960 . S
H2496 C2480 0.931 . S
H2497 C2485 0.929 . S
H2498 C2486 0.960 . S
H2499 C2486 0.962 . S
H2500 C2486 0.960 . S
H2501 C2487 0.961 . S
H2502 C2487 0.961 . S
H2503 C2487 0.961 . S
H2504 C2488 0.931 . S
H2505 C2493 0.930 . S
H2506 C2494 0.956 . S
H2507 C2494 0.961 . S
H2508 C2494 0.961 . S
H2509 C2495 0.958 . S
H2510 C2495 0.961 . S
H2511 C2495 0.960 . S
C2512 C2513 1.391 . S
C2512 C2514 1.394 . S
C2512 H2528 0.931 . S
C2513 C2512 1.391 . S
C2513 C2517 1.376 . S
C2514 C2512 1.394 . S
C2514 C2515 1.369 . S
C2514 C2518 1.531 . S
C2515 C2514 1.369 . S
C2515 C2516 1.410 . S
C2515 C2523 1.503 . S
C2516 C2515 1.410 . S
C2516 C2517 1.392 . S
C2516 C2519 1.511 . S
C2517 C2513 1.376 . S
C2517 C2516 1.392 . S
C2517 H2529 0.929 . S
C2518 C2514 1.531 . S
C2518 H2530 0.960 . S
C2518 H2531 0.962 . S
C2518 H2532 0.960 . S
C2519 C2516 1.511 . S
C2519 H2533 0.961 . S
C2519 H2534 0.961 . S
C2519 H2535 0.961 . S
C2520 C2521 1.370 . S
C2520 C2522 1.363 . S
C2520 H2536 0.931 . S
C2521 C2520 1.370 . S
C2521 C2525 1.408 . S
C2522 C2520 1.363 . S
C2522 C2523 1.370 . S
C2522 C2526 1.524 . S
C2523 C2515 1.503 . S
C2523 C2522 1.370 . S
C2523 C2524 1.403 . S
C2524 C2523 1.403 . S
C2524 C2525 1.404 . S
C2524 C2527 1.539 . S
C2525 C2521 1.408 . S
C2525 C2524 1.404 . S
C2525 H2537 0.930 . S
C2526 C2522 1.524 . S
C2526 H2538 0.956 . S
C2526 H2539 0.961 . S
C2526 H2540 0.961 . S
C2527 C2524 1.539 . S
C2527 H2541 0.958 . S
C2527 H2542 0.961 . S
C2527 H2543 0.960 . S
H2528 C2512 0.931 . S
H2529 C2517 0.929 . S
H2530 C2518 0.960 . S
H2531 C2518 0.962 . S
H2532 C2518 0.960 . S
H2533 C2519 0.961 . S
H2534 C2519 0.961 . S
H2535 C2519 0.961 . S
H2536 C2520 0.931 . S
H2537 C2525 0.930 . S
H2538 C2526 0.956 . S
H2539 C2526 0.961 . S
H2540 C2526 0.961 . S
H2541 C2527 0.958 . S
H2542 C2527 0.961 . S
H2543 C2527 0.960 . S
C2544 C2545 1.391 . S
C2544 C2546 1.394 . S
C2544 H2560 0.931 . S
C2545 C2544 1.391 . S
C2545 C2549 1.376 . S
C2546 C2544 1.394 . S
C2546 C2547 1.369 . S
C2546 C2550 1.531 . S
C2547 C2546 1.369 . S
C2547 C2548 1.410 . S
C2547 C2555 1.503 . S
C2548 C2547 1.410 . S
C2548 C2549 1.392 . S
C2548 C2551 1.511 . S
C2549 C2545 1.376 . S
C2549 C2548 1.392 . S
C2549 H2561 0.929 . S
C2550 C2546 1.531 . S
C2550 H2562 0.960 . S
C2550 H2563 0.962 . S
C2550 H2564 0.960 . S
C2551 C2548 1.511 . S
C2551 H2565 0.961 . S
C2551 H2566 0.961 . S
C2551 H2567 0.961 . S
C2552 C2553 1.370 . S
C2552 C2554 1.363 . S
C2552 H2568 0.931 . S
C2553 C2552 1.370 . S
C2553 C2557 1.408 . S
C2554 C2552 1.363 . S
C2554 C2555 1.370 . S
C2554 C2558 1.524 . S
C2555 C2547 1.503 . S
C2555 C2554 1.370 . S
C2555 C2556 1.403 . S
C2556 C2555 1.403 . S
C2556 C2557 1.404 . S
C2556 C2559 1.539 . S
C2557 C2553 1.408 . S
C2557 C2556 1.404 . S
C2557 H2569 0.930 . S
C2558 C2554 1.524 . S
C2558 H2570 0.956 . S
C2558 H2571 0.961 . S
C2558 H2572 0.961 . S
C2559 C2556 1.539 . S
C2559 H2573 0.958 . S
C2559 H2574 0.961 . S
C2559 H2575 0.960 . S
H2560 C2544 0.931 . S
H2561 C2549 0.929 . S
H2562 C2550 0.960 . S
H2563 C2550 0.962 . S
H2564 C2550 0.960 . S
H2565 C2551 0.961 . S
H2566 C2551 0.961 . S
H2567 C2551 0.961 . S
H2568 C2552 0.931 . S
H2569 C2557 0.930 . S
H2570 C2558 0.956 . S
H2571 C2558 0.961 . S
H2572 C2558 0.961 . S
H2573 C2559 0.958 . S
H2574 C2559 0.961 . S
H2575 C2559 0.960 . S
C2576 C2577 1.391 . S
C2576 C2578 1.394 . S
C2576 H2592 0.931 . S
C2577 C2576 1.391 . S
C2577 C2581 1.376 . S
C2578 C2576 1.394 . S
C2578 C2579 1.369 . S
C2578 C2582 1.531 . S
C2579 C2578 1.369 . S
C2579 C2580 1.410 . S
C2579 C2587 1.503 . S
C2580 C2579 1.410 . S
C2580 C2581 1.392 . S
C2580 C2583 1.511 . S
C2581 C2577 1.376 . S
C2581 C2580 1.392 . S
C2581 H2593 0.929 . S
C2582 C2578 1.531 . S
C2582 H2594 0.960 . S
C2582 H2595 0.962 . S
C2582 H2596 0.960 . S
C2583 C2580 1.511 . S
C2583 H2597 0.961 . S
C2583 H2598 0.961 . S
C2583 H2599 0.961 . S
C2584 C2585 1.370 . S
C2584 C2586 1.363 . S
C2584 H2600 0.931 . S
C2585 C2584 1.370 . S
C2585 C2589 1.408 . S
C2586 C2584 1.363 . S
C2586 C2587 1.370 . S
C2586 C2590 1.524 . S
C2587 C2579 1.503 . S
C2587 C2586 1.370 . S
C2587 C2588 1.403 . S
C2588 C2587 1.403 . S
C2588 C2589 1.404 . S
C2588 C2591 1.539 . S
C2589 C2585 1.408 . S
C2589 C2588 1.404 . S
C2589 H2601 0.930 . S
C2590 C2586 1.524 . S
C2590 H2602 0.956 . S
C2590 H2603 0.961 . S
C2590 H2604 0.961 . S
C2591 C2588 1.539 . S
C2591 H2605 0.958 . S
C2591 H2606 0.961 . S
C2591 H2607 0.960 . S
H2592 C2576 0.931 . S
H2593 C2581 0.929 . S
H2594 C2582 0.960 . S
H2595 C2582 0.962 . S
H2596 C2582 0.960 . S
H2597 C2583 0.961 . S
H2598 C2583 0.961 . S
H2599 C2583 0.961 . S
H2600 C2584 0.931 . S
H2601 C2589 0.930 . S
H2602 C2590 0.956 . S
H2603 C2590 0.961 . S
H2604 C2590 0.961 . S
H2605 C2591 0.958 . S
H2606 C2591 0.961 . S
H2607 C2591 0.960 . S
C2608 C2609 1.391 . S
C2608 C2610 1.394 . S
C2608 H2624 0.931 . S
C2609 C2608 1.391 . S
C2609 C2613 1.376 . S
C2610 C2608 1.394 . S
C2610 C2611 1.369 . S
C2610 C2614 1.531 . S
C2611 C2610 1.369 . S
C2611 C2612 1.410 . S
C2611 C2619 1.503 . S
C2612 C2611 1.410 . S
C2612 C2613 1.392 . S
C2612 C2615 1.511 . S
C2613 C2609 1.376 . S
C2613 C2612 1.392 . S
C2613 H2625 0.929 . S
C2614 C2610 1.531 . S
C2614 H2626 0.960 . S
C2614 H2627 0.962 . S
C2614 H2628 0.960 . S
C2615 C2612 1.511 . S
C2615 H2629 0.961 . S
C2615 H2630 0.961 . S
C2615 H2631 0.961 . S
C2616 C2617 1.370 . S
C2616 C2618 1.363 . S
C2616 H2632 0.931 . S
C2617 C2616 1.370 . S
C2617 C2621 1.408 . S
C2618 C2616 1.363 . S
C2618 C2619 1.370 . S
C2618 C2622 1.524 . S
C2619 C2611 1.503 . S
C2619 C2618 1.370 . S
C2619 C2620 1.403 . S
C2620 C2619 1.403 . S
C2620 C2621 1.404 . S
C2620 C2623 1.539 . S
C2621 C2617 1.408 . S
C2621 C2620 1.404 . S
C2621 H2633 0.930 . S
C2622 C2618 1.524 . S
C2622 H2634 0.956 . S
C2622 H2635 0.961 . S
C2622 H2636 0.961 . S
C2623 C2620 1.539 . S
C2623 H2637 0.958 . S
C2623 H2638 0.961 . S
C2623 H2639 0.960 . S
H2624 C2608 0.931 . S
H2625 C2613 0.929 . S
H2626 C2614 0.960 . S
H2627 C2614 0.962 . S
H2628 C2614 0.960 . S
H2629 C2615 0.961 . S
H2630 C2615 0.961 . S
H2631 C2615 0.961 . S
H2632 C2616 0.931 . S
H2633 C2621 0.930 . S
H2634 C2622 0.956 . S
H2635 C2622 0.961 . S
H2636 C2622 0.961 . S
H2637 C2623 0.958 . S
H2638 C2623 0.961 . S
H2639 C2623 0.960 . S
C2640 C2641 1.391 . S
C2640 C2642 1.394 . S
C2640 H2656 0.931 . S
C2641 C2640 1.391 . S
C2641 C2645 1.376 . S
C2642 C2640 1.394 . S
C2642 C2643 1.369 . S
C2642 C2646 1.531 . S
C2643 C2642 1.369 . S
C2643 C2644 1.410 . S
C2643 C2651 1.503 . S
C2644 C2643 1.410 . S
C2644 C2645 1.392 . S
C2644 C2647 1.511 . S
C2645 C2641 1.376 . S
C2645 C2644 1.392 . S
C2645 H2657 0.929 . S
C2646 C2642 1.531 . S
C2646 H2658 0.960 . S
C2646 H2659 0.962 . S
C2646 H2660 0.960 . S
C2647 C2644 1.511 . S
C2647 H2661 0.961 . S
C2647 H2662 0.961 . S
C2647 H2663 0.961 . S
C2648 C2649 1.370 . S
C2648 C2650 1.363 . S
C2648 H2664 0.931 . S
C2649 C2648 1.370 . S
C2649 C2653 1.408 . S
C2650 C2648 1.363 . S
C2650 C2651 1.370 . S
C2650 C2654 1.524 . S
C2651 C2643 1.503 . S
C2651 C2650 1.370 . S
C2651 C2652 1.403 . S
C2652 C2651 1.403 . S
C2652 C2653 1.404 . S
C2652 C2655 1.539 . S
C2653 C2649 1.408 . S
C2653 C2652 1.404 . S
C2653 H2665 0.930 . S
C2654 C2650 1.524 . S
C2654 H2666 0.956 . S
C2654 H2667 0.961 . S
C2654 H2668 0.961 . S
C2655 C2652 1.539 . S
C2655 H2669 0.958 . S
C2655 H2670 0.961 . S
C2655 H2671 0.960 . S
H2656 C2640 0.931 . S
H2657 C2645 0.929 . S
H2658 C2646 0.960 . S
H2659 C2646 0.962 . S
H2660 C2646 0.960 . S
H2661 C2647 0.961 . S
H2662 C2647 0.961 . S
H2663 C2647 0.961 . S
H2664 C2648 0.931 . S
H2665 C2653 0.930 . S
H2666 C2654 0.956 . S
H2667 C2654 0.961 . S
H2668 C2654 0.961 . S
H2669 C2655 0.958 . S
H2670 C2655 0.961 . S
H2671 C2655 0.960 . S
C2672 C2673 1.391 . S
C2672 C2674 1.394 . S
C2672 H2688 0.931 . S
C2673 C2672 1.391 . S
C2673 C2677 1.376 . S
C2674 C2672 1.394 . S
C2674 C2675 1.369 . S
C2674 C2678 1.531 . S
C2675 C2674 1.369 . S
C2675 C2676 1.410 . S
C2675 C2683 1.503 . S
C2676 C2675 1.410 . S
C2676 C2677 1.392 . S
C2676 C2679 1.511 . S
C2677 C2673 1.376 . S
C2677 C2676 1.392 . S
C2677 H2689 0.929 . S
C2678 C2674 1.531 . S
C2678 H2690 0.960 . S
C2678 H2691 0.962 . S
C2678 H2692 0.960 . S
C2679 C2676 1.511 . S
C2679 H2693 0.961 . S
C2679 H2694 0.961 . S
C2679 H2695 0.961 . S
C2680 C2681 1.370 . S
C2680 C2682 1.363 . S
C2680 H2696 0.931 . S
C2681 C2680 1.370 . S
C2681 C2685 1.408 . S
C2682 C2680 1.363 . S
C2682 C2683 1.370 . S
C2682 C2686 1.524 . S
C2683 C2675 1.503 . S
C2683 C2682 1.370 . S
C2683 C2684 1.403 . S
C2684 C2683 1.403 . S
C2684 C2685 1.404 . S
C2684 C2687 1.539 . S
C2685 C2681 1.408 . S
C2685 C2684 1.404 . S
C2685 H2697 0.930 . S
C2686 C2682 1.524 . S
C2686 H2698 0.956 . S
C2686 H2699 0.961 . S
C2686 H2700 0.961 . S
C2687 C2684 1.539 . S
C2687 H2701 0.958 . S
C2687 H2702 0.961 . S
C2687 H2703 0.960 . S
H2688 C2672 0.931 . S
H2689 C2677 0.929 . S
H2690 C2678 0.960 . S
H2691 C2678 0.962 . S
H2692 C2678 0.960 . S
H2693 C2679 0.961 . S
H2694 C2679 0.961 . S
H2695 C2679 0.961 . S
H2696 C2680 0.931 . S
H2697 C2685 0.930 . S
H2698 C2686 0.956 . S
H2699 C2686 0.961 . S
H2700 C2686 0.961 . S
H2701 C2687 0.958 . S
H2702 C2687 0.961 . S
H2703 C2687 0.960 . S
C2704 C2705 1.391 . S
C2704 C2706 1.394 . S
C2704 H2720 0.931 . S
C2705 C2704 1.391 . S
C2705 C2709 1.376 . S
C2706 C2704 1.394 . S
C2706 C2707 1.369 . S
C2706 C2710 1.531 . S
C2707 C2706 1.369 . S
C2707 C2708 1.410 . S
C2707 C2715 1.503 . S
C2708 C2707 1.410 . S
C2708 C2709 1.392 . S
C2708 C2711 1.511 . S
C2709 C2705 1.376 . S
C2709 C2708 1.392 . S
C2709 H2721 0.929 . S
C2710 C2706 1.531 . S
C2710 H2722 0.960 . S
C2710 H2723 0.962 . S
C2710 H2724 0.960 . S
C2711 C2708 1.511 . S
C2711 H2725 0.961 . S
C2711 H2726 0.961 . S
C2711 H2727 0.961 . S
C2712 C2713 1.370 . S
C2712 C2714 1.363 . S
C2712 H2728 0.931 . S
C2713 C2712 1.370 . S
C2713 C2717 1.408 . S
C2714 C2712 1.363 . S
C2714 C2715 1.370 . S
C2714 C2718 1.524 . S
C2715 C2707 1.503 . S
C2715 C2714 1.370 . S
C2715 C2716 1.403 . S
C2716 C2715 1.403 . S
C2716 C2717 1.404 . S
C2716 C2719 1.539 . S
C2717 C2713 1.408 . S
C2717 C2716 1.404 . S
C2717 H2729 0.930 . S
C2718 C2714 1.524 . S
C2718 H2730 0.956 . S
C2718 H2731 0.961 . S
C2718 H2732 0.961 . S
C2719 C2716 1.539 . S
C2719 H2733 0.958 . S
C2719 H2734 0.961 . S
C2719 H2735 0.960 . S
H2720 C2704 0.931 . S
H2721 C2709 0.929 . S
H2722 C2710 0.960 . S
H2723 C2710 0.962 . S
H2724 C2710 0.960 . S
H2725 C2711 0.961 . S
H2726 C2711 0.961 . S
H2727 C2711 0.961 . S
H2728 C2712 0.931 . S
H2729 C2717 0.930 . S
H2730 C2718 0.956 . S
H2731 C2718 0.961 . S
H2732 C2718 0.961 . S
H2733 C2719 0.958 . S
H2734 C2719 0.961 . S
H2735 C2719 0.960 . S
C2736 C2737 1.391 . S
C2736 C2738 1.394 . S
C2736 H2752 0.931 . S
C2737 C2736 1.391 . S
C2737 C2741 1.376 . S
C2738 C2736 1.394 . S
C2738 C2739 1.369 . S
C2738 C2742 1.531 . S
C2739 C2738 1.369 . S
C2739 C2740 1.410 . S
C2739 C2747 1.503 . S
C2740 C2739 1.410 . S
C2740 C2741 1.392 . S
C2740 C2743 1.511 . S
C2741 C2737 1.376 . S
C2741 C2740 1.392 . S
C2741 H2753 0.929 . S
C2742 C2738 1.531 . S
C2742 H2754 0.960 . S
C2742 H2755 0.962 . S
C2742 H2756 0.960 . S
C2743 C2740 1.511 . S
C2743 H2757 0.961 . S
C2743 H2758 0.961 . S
C2743 H2759 0.961 . S
C2744 C2745 1.370 . S
C2744 C2746 1.363 . S
C2744 H2760 0.931 . S
C2745 C2744 1.370 . S
C2745 C2749 1.408 . S
C2746 C2744 1.363 . S
C2746 C2747 1.370 . S
C2746 C2750 1.524 . S
C2747 C2739 1.503 . S
C2747 C2746 1.370 . S
C2747 C2748 1.403 . S
C2748 C2747 1.403 . S
C2748 C2749 1.404 . S
C2748 C2751 1.539 . S
C2749 C2745 1.408 . S
C2749 C2748 1.404 . S
C2749 H2761 0.930 . S
C2750 C2746 1.524 . S
C2750 H2762 0.956 . S
C2750 H2763 0.961 . S
C2750 H2764 0.961 . S
C2751 C2748 1.539 . S
C2751 H2765 0.958 . S
C2751 H2766 0.961 . S
C2751 H2767 0.960 . S
H2752 C2736 0.931 . S
H2753 C2741 0.929 . S
H2754 C2742 0.960 . S
H2755 C2742 0.962 . S
H2756 C2742 0.960 . S
H2757 C2743 0.961 . S
H2758 C2743 0.961 . S
H2759 C2743 0.961 . S
H2760 C2744 0.931 . S
H2761 C2749 0.930 . S
H2762 C2750 0.956 . S
H2763 C2750 0.961 . S
H2764 C2750 0.961 . S
H2765 C2751 0.958 . S
H2766 C2751 0.961 . S
H2767 C2751 0.960 . S
C2768 C2769 1.391 . S
C2768 C2770 1.394 . S
C2768 H2784 0.931 . S
C2769 C2768 1.391 . S
C2769 C2773 1.376 . S
C2770 C2768 1.394 . S
C2770 C2771 1.369 . S
C2770 C2774 1.531 . S
C2771 C2770 1.369 . S
C2771 C2772 1.410 . S
C2771 C2779 1.503 . S
C2772 C2771 1.410 . S
C2772 C2773 1.392 . S
C2772 C2775 1.511 . S
C2773 C2769 1.376 . S
C2773 C2772 1.392 . S
C2773 H2785 0.929 . S
C2774 C2770 1.531 . S
C2774 H2786 0.960 . S
C2774 H2787 0.962 . S
C2774 H2788 0.960 . S
C2775 C2772 1.511 . S
C2775 H2789 0.961 . S
C2775 H2790 0.961 . S
C2775 H2791 0.961 . S
C2776 C2777 1.370 . S
C2776 C2778 1.363 . S
C2776 H2792 0.931 . S
C2777 C2776 1.370 . S
C2777 C2781 1.408 . S
C2778 C2776 1.363 . S
C2778 C2779 1.370 . S
C2778 C2782 1.524 . S
C2779 C2771 1.503 . S
C2779 C2778 1.370 . S
C2779 C2780 1.403 . S
C2780 C2779 1.403 . S
C2780 C2781 1.404 . S
C2780 C2783 1.539 . S
C2781 C2777 1.408 . S
C2781 C2780 1.404 . S
C2781 H2793 0.930 . S
C2782 C2778 1.524 . S
C2782 H2794 0.956 . S
C2782 H2795 0.961 . S
C2782 H2796 0.961 . S
C2783 C2780 1.539 . S
C2783 H2797 0.958 . S
C2783 H2798 0.961 . S
C2783 H2799 0.960 . S
H2784 C2768 0.931 . S
H2785 C2773 0.929 . S
H2786 C2774 0.960 . S
H2787 C2774 0.962 . S
H2788 C2774 0.960 . S
H2789 C2775 0.961 . S
H2790 C2775 0.961 . S
H2791 C2775 0.961 . S
H2792 C2776 0.931 . S
H2793 C2781 0.930 . S
H2794 C2782 0.956 . S
H2795 C2782 0.961 . S
H2796 C2782 0.961 . S
H2797 C2783 0.958 . S
H2798 C2783 0.961 . S
H2799 C2783 0.960 . S
C2800 C2801 1.391 . S
C2800 C2802 1.394 . S
C2800 H2816 0.931 . S
C2801 C2800 1.391 . S
C2801 C2805 1.376 . S
C2802 C2800 1.394 . S
C2802 C2803 1.369 . S
C2802 C2806 1.531 . S
C2803 C2802 1.369 . S
C2803 C2804 1.410 . S
C2803 C2811 1.503 . S
C2804 C2803 1.410 . S
C2804 C2805 1.392 . S
C2804 C2807 1.511 . S
C2805 C2801 1.376 . S
C2805 C2804 1.392 . S
C2805 H2817 0.929 . S
C2806 C2802 1.531 . S
C2806 H2818 0.960 . S
C2806 H2819 0.962 . S
C2806 H2820 0.960 . S
C2807 C2804 1.511 . S
C2807 H2821 0.961 . S
C2807 H2822 0.961 . S
C2807 H2823 0.961 . S
C2808 C2809 1.370 . S
C2808 C2810 1.363 . S
C2808 H2824 0.931 . S
C2809 C2808 1.370 . S
C2809 C2813 1.408 . S
C2810 C2808 1.363 . S
C2810 C2811 1.370 . S
C2810 C2814 1.524 . S
C2811 C2803 1.503 . S
C2811 C2810 1.370 . S
C2811 C2812 1.403 . S
C2812 C2811 1.403 . S
C2812 C2813 1.404 . S
C2812 C2815 1.539 . S
C2813 C2809 1.408 . S
C2813 C2812 1.404 . S
C2813 H2825 0.930 . S
C2814 C2810 1.524 . S
C2814 H2826 0.956 . S
C2814 H2827 0.961 . S
C2814 H2828 0.961 . S
C2815 C2812 1.539 . S
C2815 H2829 0.958 . S
C2815 H2830 0.961 . S
C2815 H2831 0.960 . S
H2816 C2800 0.931 . S
H2817 C2805 0.929 . S
H2818 C2806 0.960 . S
H2819 C2806 0.962 . S
H2820 C2806 0.960 . S
H2821 C2807 0.961 . S
H2822 C2807 0.961 . S
H2823 C2807 0.961 . S
H2824 C2808 0.931 . S
H2825 C2813 0.930 . S
H2826 C2814 0.956 . S
H2827 C2814 0.961 . S
H2828 C2814 0.961 . S
H2829 C2815 0.958 . S
H2830 C2815 0.961 . S
H2831 C2815 0.960 . S
C2832 C2833 1.391 . S
C2832 C2834 1.394 . S
C2832 H2848 0.931 . S
C2833 C2832 1.391 . S
C2833 C2837 1.376 . S
C2834 C2832 1.394 . S
C2834 C2835 1.369 . S
C2834 C2838 1.531 . S
C2835 C2834 1.369 . S
C2835 C2836 1.410 . S
C2835 C2843 1.503 . S
C2836 C2835 1.410 . S
C2836 C2837 1.392 . S
C2836 C2839 1.511 . S
C2837 C2833 1.376 . S
C2837 C2836 1.392 . S
C2837 H2849 0.929 . S
C2838 C2834 1.531 . S
C2838 H2850 0.960 . S
C2838 H2851 0.962 . S
C2838 H2852 0.960 . S
C2839 C2836 1.511 . S
C2839 H2853 0.961 . S
C2839 H2854 0.961 . S
C2839 H2855 0.961 . S
C2840 C2841 1.370 . S
C2840 C2842 1.363 . S
C2840 H2856 0.931 . S
C2841 C2840 1.370 . S
C2841 C2845 1.408 . S
C2842 C2840 1.363 . S
C2842 C2843 1.370 . S
C2842 C2846 1.524 . S
C2843 C2835 1.503 . S
C2843 C2842 1.370 . S
C2843 C2844 1.403 . S
C2844 C2843 1.403 . S
C2844 C2845 1.404 . S
C2844 C2847 1.539 . S
C2845 C2841 1.408 . S
C2845 C2844 1.404 . S
C2845 H2857 0.930 . S
C2846 C2842 1.524 . S
C2846 H2858 0.956 . S
C2846 H2859 0.961 . S
C2846 H2860 0.961 . S
C2847 C2844 1.539 . S
C2847 H2861 0.958 . S
C2847 H2862 0.961 . S
C2847 H2863 0.960 . S
H2848 C2832 0.931 . S
H2849 C2837 0.929 . S
H2850 C2838 0.960 . S
H2851 C2838 0.962 . S
H2852 C2838 0.960 . S
H2853 C2839 0.961 . S
H2854 C2839 0.961 . S
H2855 C2839 0.961 . S
H2856 C2840 0.931 . S
H2857 C2845 0.930 . S
H2858 C2846 0.956 . S
H2859 C2846 0.961 . S
H2860 C2846 0.961 . S
H2861 C2847 0.958 . S
H2862 C2847 0.961 . S
H2863 C2847 0.960 . S
C2864 C2865 1.391 . S
C2864 C2866 1.394 . S
C2864 H2880 0.931 . S
C2865 C2864 1.391 . S
C2865 C2869 1.376 . S
C2866 C2864 1.394 . S
C2866 C2867 1.369 . S
C2866 C2870 1.531 . S
C2867 C2866 1.369 . S
C2867 C2868 1.410 . S
C2867 C2875 1.503 . S
C2868 C2867 1.410 . S
C2868 C2869 1.392 . S
C2868 C2871 1.511 . S
C2869 C2865 1.376 . S
C2869 C2868 1.392 . S
C2869 H2881 0.929 . S
C2870 C2866 1.531 . S
C2870 H2882 0.960 . S
C2870 H2883 0.962 . S
C2870 H2884 0.960 . S
C2871 C2868 1.511 . S
C2871 H2885 0.961 . S
C2871 H2886 0.961 . S
C2871 H2887 0.961 . S
C2872 C2873 1.370 . S
C2872 C2874 1.363 . S
C2872 H2888 0.931 . S
C2873 C2872 1.370 . S
C2873 C2877 1.408 . S
C2874 C2872 1.363 . S
C2874 C2875 1.370 . S
C2874 C2878 1.524 . S
C2875 C2867 1.503 . S
C2875 C2874 1.370 . S
C2875 C2876 1.403 . S
C2876 C2875 1.403 . S
C2876 C2877 1.404 . S
C2876 C2879 1.539 . S
C2877 C2873 1.408 . S
C2877 C2876 1.404 . S
C2877 H2889 0.930 . S
C2878 C2874 1.524 . S
C2878 H2890 0.956 . S
C2878 H2891 0.961 . S
C2878 H2892 0.961 . S
C2879 C2876 1.539 . S
C2879 H2893 0.958 . S
C2879 H2894 0.961 . S
C2879 H2895 0.960 . S
H2880 C2864 0.931 . S
H2881 C2869 0.929 . S
H2882 C2870 0.960 . S
H2883 C2870 0.962 . S
H2884 C2870 0.960 . S
H2885 C2871 0.961 . S
H2886 C2871 0.961 . S
H2887 C2871 0.961 . S
H2888 C2872 0.931 . S
H2889 C2877 0.930 . S
H2890 C2878 0.956 . S
H2891 C2878 0.961 . S
H2892 C2878 0.961 . S
H2893 C2879 0.958 . S
H2894 C2879 0.961 . S
H2895 C2879 0.960 . S
C2896 C2897 1.391 . S
C2896 C2898 1.394 . S
C2896 H2912 0.931 . S
C2897 C2896 1.391 . S
C2897 C2901 1.376 . S
C2898 C2896 1.394 . S
C2898 C2899 1.369 . S
C2898 C2902 1.531 . S
C2899 C2898 1.369 . S
C2899 C2900 1.410 . S
C2899 C2907 1.503 . S
C2900 C2899 1.410 . S
C2900 C2901 1.392 . S
C2900 C2903 1.511 . S
C2901 C2897 1.376 . S
C2901 C2900 1.392 . S
C2901 H2913 0.929 . S
C2902 C2898 1.531 . S
C2902 H2914 0.960 . S
C2902 H2915 0.962 . S
C2902 H2916 0.960 . S
C2903 C2900 1.511 . S
C2903 H2917 0.961 . S
C2903 H2918 0.961 . S
C2903 H2919 0.961 . S
C2904 C2905 1.370 . S
C2904 C2906 1.363 . S
C2904 H2920 0.931 . S
C2905 C2904 1.370 . S
C2905 C2909 1.408 . S
C2906 C2904 1.363 . S
C2906 C2907 1.370 . S
C2906 C2910 1.524 . S
C2907 C2899 1.503 . S
C2907 C2906 1.370 . S
C2907 C2908 1.403 . S
C2908 C2907 1.403 . S
C2908 C2909 1.404 . S
C2908 C2911 1.539 . S
C2909 C2905 1.408 . S
C2909 C2908 1.404 . S
C2909 H2921 0.930 . S
C2910 C2906 1.524 . S
C2910 H2922 0.956 . S
C2910 H2923 0.961 . S
C2910 H2924 0.961 . S
C2911 C2908 1.539 . S
C2911 H2925 0.958 . S
C2911 H2926 0.961 . S
C2911 H2927 0.960 . S
H2912 C2896 0.931 . S
H2913 C2901 0.929 . S
H2914 C2902 0.960 . S
H2915 C2902 0.962 . S
H2916 C2902 0.960 . S
H2917 C2903 0.961 . S
H2918 C2903 0.961 . S
H2919 C2903 0.961 . S
H2920 C2904 0.931 . S
H2921 C2909 0.930 . S
H2922 C2910 0.956 . S
H2923 C2910 0.961 . S
H2924 C2910 0.961 . S
H2925 C2911 0.958 . S
H2926 C2911 0.961 . S
H2927 C2911 0.960 . S
C2928 C2929 1.391 . S
C2928 C2930 1.394 . S
C2928 H2944 0.931 . S
C2929 C2928 1.391 . S
C2929 C2933 1.376 . S
C2930 C2928 1.394 . S
C2930 C2931 1.369 . S
C2930 C2934 1.531 . S
C2931 C2930 1.369 . S
C2931 C2932 1.410 . S
C2931 C2939 1.503 1_554 S
C2932 C2931 1.410 . S
C2932 C2933 1.392 . S
C2932 C2935 1.511 . S
C2933 C2929 1.376 . S
C2933 C2932 1.392 . S
C2933 H2945 0.929 . S
C2934 C2930 1.531 . S
C2934 H2946 0.960 1_554 S
C2934 H2947 0.962 . S
C2934 H2948 0.960 . S
C2935 C2932 1.511 . S
C2935 H2949 0.961 . S
C2935 H2950 0.961 1_554 S
C2935 H2951 0.961 . S
C2936 C2937 1.370 . S
C2936 C2938 1.363 . S
C2936 H2952 0.931 . S
C2937 C2936 1.370 . S
C2937 C2941 1.408 . S
C2938 C2936 1.363 . S
C2938 C2939 1.370 . S
C2938 C2942 1.524 . S
C2939 C2931 1.503 1_556 S
C2939 C2938 1.370 . S
C2939 C2940 1.403 . S
C2940 C2939 1.403 . S
C2940 C2941 1.404 . S
C2940 C2943 1.539 . S
C2941 C2937 1.408 . S
C2941 C2940 1.404 . S
C2941 H2953 0.930 . S
C2942 C2938 1.524 . S
C2942 H2954 0.981 . S
C2942 H2955 0.961 1_556 S
C2942 H2956 0.961 . S
C2943 C2940 1.539 . S
C2943 H2957 0.958 . S
C2943 H2958 0.961 . S
C2943 H2959 0.969 . S
H2944 C2928 0.931 . S
H2945 C2933 0.929 . S
H2946 C2934 0.960 1_556 S
H2947 C2934 0.962 . S
H2948 C2934 0.960 . S
H2949 C2935 0.961 . S
H2950 C2935 0.961 1_556 S
H2951 C2935 0.961 . S
H2952 C2936 0.931 . S
H2953 C2941 0.930 . S
H2954 C2942 0.981 . S
H2955 C2942 0.961 1_554 S
H2956 C2942 0.961 . S
H2957 C2943 0.958 . S
H2958 C2943 0.961 . S
H2959 C2943 0.969 . S
C2960 C2961 1.391 . S
C2960 C2962 1.394 . S
C2960 H2976 0.931 . S
C2961 C2960 1.391 . S
C2961 C2965 1.376 . S
C2962 C2960 1.394 . S
C2962 C2963 1.369 . S
C2962 C2966 1.531 . S
C2963 C2962 1.369 . S
C2963 C2964 1.410 . S
C2963 C2971 1.503 1_556 S
C2964 C2963 1.410 . S
C2964 C2965 1.392 . S
C2964 C2967 1.511 . S
C2965 C2961 1.376 . S
C2965 C2964 1.392 . S
C2965 H2977 0.929 . S
C2966 C2962 1.531 . S
C2966 H2978 0.960 1_556 S
C2966 H2979 0.962 . S
C2966 H2980 0.960 . S
C2967 C2964 1.511 . S
C2967 H2981 0.961 . S
C2967 H2982 0.961 1_556 S
C2967 H2983 0.961 . S
C2968 C2969 1.370 . S
C2968 C2970 1.363 . S
C2968 H2984 0.931 . S
C2969 C2968 1.370 . S
C2969 C2973 1.408 . S
C2970 C2968 1.363 . S
C2970 C2971 1.370 . S
C2970 C2974 1.524 . S
C2971 C2963 1.503 1_554 S
C2971 C2970 1.370 . S
C2971 C2972 1.403 . S
C2972 C2971 1.403 . S
C2972 C2973 1.404 . S
C2972 C2975 1.539 . S
C2973 C2969 1.408 . S
C2973 C2972 1.404 . S
C2973 H2985 0.930 . S
C2974 C2970 1.524 . S
C2974 H2986 0.981 . S
C2974 H2987 0.961 1_554 S
C2974 H2988 0.961 . S
C2975 C2972 1.539 . S
C2975 H2989 0.958 . S
C2975 H2990 0.961 . S
C2975 H2991 0.961 . S
H2976 C2960 0.931 . S
H2977 C2965 0.929 . S
H2978 C2966 0.960 1_554 S
H2979 C2966 0.962 . S
H2980 C2966 0.960 . S
H2981 C2967 0.961 . S
H2982 C2967 0.961 1_554 S
H2983 C2967 0.961 . S
H2984 C2968 0.931 . S
H2985 C2973 0.930 . S
H2986 C2974 0.981 . S
H2987 C2974 0.961 1_556 S
H2988 C2974 0.961 . S
H2989 C2975 0.958 . S
H2990 C2975 0.961 . S
H2991 C2975 0.961 . S
C2992 C2993 1.391 . S
C2992 C2994 1.394 . S
C2992 H3008 0.931 . S
C2993 C2992 1.391 . S
C2993 C2997 1.376 . S
C2994 C2992 1.394 . S
C2994 C2995 1.369 . S
C2994 C2998 1.531 . S
C2995 C2994 1.369 . S
C2995 C2996 1.410 . S
C2995 C3003 1.503 1_554 S
C2996 C2995 1.410 . S
C2996 C2997 1.392 . S
C2996 C2999 1.511 . S
C2997 C2993 1.376 . S
C2997 C2996 1.392 . S
C2997 H3009 0.929 . S
C2998 C2994 1.531 . S
C2998 H3010 0.960 1_554 S
C2998 H3011 0.962 . S
C2998 H3012 0.960 . S
C2999 C2996 1.511 . S
C2999 H3013 0.961 . S
C2999 H3014 0.961 1_554 S
C2999 H3015 0.961 . S
C3000 C3001 1.370 . S
C3000 C3002 1.363 . S
C3000 H3016 0.931 . S
C3001 C3000 1.370 . S
C3001 C3005 1.408 . S
C3002 C3000 1.363 . S
C3002 C3003 1.370 . S
C3002 C3006 1.524 . S
C3003 C2995 1.503 1_556 S
C3003 C3002 1.370 . S
C3003 C3004 1.403 . S
C3004 C3003 1.403 . S
C3004 C3005 1.404 . S
C3004 C3007 1.539 . S
C3005 C3001 1.408 . S
C3005 C3004 1.404 . S
C3005 H3017 0.930 . S
C3006 C3002 1.524 . S
C3006 H3018 0.976 . S
C3006 H3019 0.961 1_556 S
C3006 H3020 0.961 . S
C3007 C3004 1.539 . S
C3007 H3021 0.958 . S
C3007 H3022 0.961 . S
C3007 H3023 0.959 . S
H3008 C2992 0.931 . S
H3009 C2997 0.929 . S
H3010 C2998 0.960 1_556 S
H3011 C2998 0.962 . S
H3012 C2998 0.960 . S
H3013 C2999 0.961 . S
H3014 C2999 0.961 1_556 S
H3015 C2999 0.961 . S
H3016 C3000 0.931 . S
H3017 C3005 0.930 . S
H3018 C3006 0.976 . S
H3019 C3006 0.961 1_554 S
H3020 C3006 0.961 . S
H3021 C3007 0.958 . S
H3022 C3007 0.961 . S
H3023 C3007 0.959 . S
C3024 C3025 1.391 . S
C3024 C3026 1.394 . S
C3024 H3040 0.931 . S
C3025 C3024 1.391 . S
C3025 C3029 1.376 . S
C3026 C3024 1.394 . S
C3026 C3027 1.369 . S
C3026 C3030 1.531 . S
C3027 C3026 1.369 . S
C3027 C3028 1.410 . S
C3027 C3035 1.503 1_554 S
C3028 C3027 1.410 . S
C3028 C3029 1.392 . S
C3028 C3031 1.511 . S
C3029 C3025 1.376 . S
C3029 C3028 1.392 . S
C3029 H3041 0.929 . S
C3030 C3026 1.531 . S
C3030 H3042 0.960 1_554 S
C3030 H3043 0.962 . S
C3030 H3044 0.960 . S
C3031 C3028 1.511 . S
C3031 H3045 0.961 . S
C3031 H3046 0.961 1_554 S
C3031 H3047 0.961 . S
C3032 C3033 1.370 . S
C3032 C3034 1.363 . S
C3032 H3048 0.931 . S
C3033 C3032 1.370 . S
C3033 C3037 1.408 . S
C3034 C3032 1.363 . S
C3034 C3035 1.370 . S
C3034 C3038 1.524 . S
C3035 C3027 1.503 1_556 S
C3035 C3034 1.370 . S
C3035 C3036 1.403 . S
C3036 C3035 1.403 . S
C3036 C3037 1.404 . S
C3036 C3039 1.539 . S
C3037 C3033 1.408 . S
C3037 C3036 1.404 . S
C3037 H3049 0.930 . S
C3038 C3034 1.524 . S
C3038 H3050 0.983 . S
C3038 H3051 0.961 1_556 S
C3038 H3052 0.961 . S
C3039 C3036 1.539 . S
C3039 H3053 0.958 . S
C3039 H3054 0.961 . S
C3039 H3055 0.967 . S
H3040 C3024 0.931 . S
H3041 C3029 0.929 . S
H3042 C3030 0.960 1_556 S
H3043 C3030 0.962 . S
H3044 C3030 0.960 . S
H3045 C3031 0.961 . S
H3046 C3031 0.961 1_556 S
H3047 C3031 0.961 . S
H3048 C3032 0.931 . S
H3049 C3037 0.930 . S
H3050 C3038 0.983 . S
H3051 C3038 0.961 1_554 S
H3052 C3038 0.961 . S
H3053 C3039 0.958 . S
H3054 C3039 0.961 . S
H3055 C3039 0.967 . S
C3056 C3057 1.391 . S
C3056 C3058 1.394 . S
C3056 H3072 0.931 . S
C3057 C3056 1.391 . S
C3057 C3061 1.376 . S
C3058 C3056 1.394 . S
C3058 C3059 1.369 . S
C3058 C3062 1.531 . S
C3059 C3058 1.369 . S
C3059 C3060 1.410 . S
C3059 C3067 1.503 1_556 S
C3060 C3059 1.410 . S
C3060 C3061 1.392 . S
C3060 C3063 1.511 . S
C3061 C3057 1.376 . S
C3061 C3060 1.392 . S
C3061 H3073 0.929 . S
C3062 C3058 1.531 . S
C3062 H3074 0.960 1_556 S
C3062 H3075 0.962 . S
C3062 H3076 0.960 . S
C3063 C3060 1.511 . S
C3063 H3077 0.961 . S
C3063 H3078 0.961 1_556 S
C3063 H3079 0.961 . S
C3064 C3065 1.370 . S
C3064 C3066 1.363 . S
C3064 H3080 0.931 . S
C3065 C3064 1.370 . S
C3065 C3069 1.408 . S
C3066 C3064 1.363 . S
C3066 C3067 1.370 . S
C3066 C3070 1.524 . S
C3067 C3059 1.503 1_554 S
C3067 C3066 1.370 . S
C3067 C3068 1.403 . S
C3068 C3067 1.403 . S
C3068 C3069 1.404 . S
C3068 C3071 1.539 . S
C3069 C3065 1.408 . S
C3069 C3068 1.404 . S
C3069 H3081 0.930 . S
C3070 C3066 1.524 . S
C3070 H3082 0.978 . S
C3070 H3083 0.961 1_554 S
C3070 H3084 0.961 . S
C3071 C3068 1.539 . S
C3071 H3085 0.958 . S
C3071 H3086 0.961 . S
C3071 H3087 0.964 . S
H3072 C3056 0.931 . S
H3073 C3061 0.929 . S
H3074 C3062 0.960 1_554 S
H3075 C3062 0.962 . S
H3076 C3062 0.960 . S
H3077 C3063 0.961 . S
H3078 C3063 0.961 1_554 S
H3079 C3063 0.961 . S
H3080 C3064 0.931 . S
H3081 C3069 0.930 . S
H3082 C3070 0.978 . S
H3083 C3070 0.961 1_556 S
H3084 C3070 0.961 . S
H3085 C3071 0.958 . S
H3086 C3071 0.961 . S
H3087 C3071 0.964 . S
C3088 C3089 1.391 . S
C3088 C3090 1.394 . S
C3088 H3104 0.931 . S
C3089 C3088 1.391 . S
C3089 C3093 1.376 . S
C3090 C3088 1.394 . S
C3090 C3091 1.369 . S
C3090 C3094 1.531 . S
C3091 C3090 1.369 . S
C3091 C3092 1.410 . S
C3091 C3099 1.503 1_554 S
C3092 C3091 1.410 . S
C3092 C3093 1.392 . S
C3092 C3095 1.511 . S
C3093 C3089 1.376 . S
C3093 C3092 1.392 . S
C3093 H3105 0.929 . S
C3094 C3090 1.531 . S
C3094 H3106 0.960 1_554 S
C3094 H3107 0.962 . S
C3094 H3108 0.960 . S
C3095 C3092 1.511 . S
C3095 H3109 0.961 . S
C3095 H3110 0.961 1_554 S
C3095 H3111 0.961 . S
C3096 C3097 1.370 . S
C3096 C3098 1.363 . S
C3096 H3112 0.931 . S
C3097 C3096 1.370 . S
C3097 C3101 1.408 . S
C3098 C3096 1.363 . S
C3098 C3099 1.370 . S
C3098 C3102 1.524 . S
C3099 C3091 1.503 1_556 S
C3099 C3098 1.370 . S
C3099 C3100 1.403 . S
C3100 C3099 1.403 . S
C3100 C3101 1.404 . S
C3100 C3103 1.539 . S
C3101 C3097 1.408 . S
C3101 C3100 1.404 . S
C3101 H3113 0.930 . S
C3102 C3098 1.524 . S
C3102 H3114 0.984 . S
C3102 H3115 0.961 1_556 S
C3102 H3116 0.961 . S
C3103 C3100 1.539 . S
C3103 H3117 0.958 . S
C3103 H3118 0.961 . S
C3103 H3119 0.970 . S
H3104 C3088 0.931 . S
H3105 C3093 0.929 . S
H3106 C3094 0.960 1_556 S
H3107 C3094 0.962 . S
H3108 C3094 0.960 . S
H3109 C3095 0.961 . S
H3110 C3095 0.961 1_556 S
H3111 C3095 0.961 . S
H3112 C3096 0.931 . S
H3113 C3101 0.930 . S
H3114 C3102 0.984 . S
H3115 C3102 0.961 1_554 S
H3116 C3102 0.961 . S
H3117 C3103 0.958 . S
H3118 C3103 0.961 . S
H3119 C3103 0.970 . S
C3120 C3121 1.391 . S
C3120 C3122 1.394 . S
C3120 H3136 0.931 . S
C3121 C3120 1.391 . S
C3121 C3125 1.376 . S
C3122 C3120 1.394 . S
C3122 C3123 1.369 . S
C3122 C3126 1.531 . S
C3123 C3122 1.369 . S
C3123 C3124 1.410 . S
C3123 C3131 1.503 1_556 S
C3124 C3123 1.410 . S
C3124 C3125 1.392 . S
C3124 C3127 1.511 . S
C3125 C3121 1.376 . S
C3125 C3124 1.392 . S
C3125 H3137 0.929 . S
C3126 C3122 1.531 . S
C3126 H3138 0.960 1_556 S
C3126 H3139 0.962 . S
C3126 H3140 0.960 . S
C3127 C3124 1.511 . S
C3127 H3141 0.961 . S
C3127 H3142 0.961 1_556 S
C3127 H3143 0.961 . S
C3128 C3129 1.370 . S
C3128 C3130 1.363 . S
C3128 H3144 0.931 . S
C3129 C3128 1.370 . S
C3129 C3133 1.408 . S
C3130 C3128 1.363 . S
C3130 C3131 1.370 . S
C3130 C3134 1.524 . S
C3131 C3123 1.503 1_554 S
C3131 C3130 1.370 . S
C3131 C3132 1.403 . S
C3132 C3131 1.403 . S
C3132 C3133 1.404 . S
C3132 C3135 1.539 . S
C3133 C3129 1.408 . S
C3133 C3132 1.404 . S
C3133 H3145 0.930 . S
C3134 C3130 1.524 . S
C3134 H3146 0.984 . S
C3134 H3147 0.961 1_554 S
C3134 H3148 0.961 . S
C3135 C3132 1.539 . S
C3135 H3149 0.958 . S
C3135 H3150 0.961 . S
C3135 H3151 0.966 . S
H3136 C3120 0.931 . S
H3137 C3125 0.929 . S
H3138 C3126 0.960 1_554 S
H3139 C3126 0.962 . S
H3140 C3126 0.960 . S
H3141 C3127 0.961 . S
H3142 C3127 0.961 1_554 S
H3143 C3127 0.961 . S
H3144 C3128 0.931 . S
H3145 C3133 0.930 . S
H3146 C3134 0.984 . S
H3147 C3134 0.961 1_556 S
H3148 C3134 0.961 . S
H3149 C3135 0.958 . S
H3150 C3135 0.961 . S
H3151 C3135 0.966 . S
C3152 C3153 1.391 . S
C3152 C3154 1.394 . S
C3152 H3168 0.931 . S
C3153 C3152 1.391 . S
C3153 C3157 1.376 . S
C3154 C3152 1.394 . S
C3154 C3155 1.369 . S
C3154 C3158 1.531 . S
C3155 C3154 1.369 . S
C3155 C3156 1.410 . S
C3155 C3163 1.503 1_554 S
C3156 C3155 1.410 . S
C3156 C3157 1.392 . S
C3156 C3159 1.511 . S
C3157 C3153 1.376 . S
C3157 C3156 1.392 . S
C3157 H3169 0.929 . S
C3158 C3154 1.531 . S
C3158 H3170 0.960 1_554 S
C3158 H3171 0.962 . S
C3158 H3172 0.960 . S
C3159 C3156 1.511 . S
C3159 H3173 0.961 . S
C3159 H3174 0.961 1_554 S
C3159 H3175 0.961 . S
C3160 C3161 1.370 . S
C3160 C3162 1.363 . S
C3160 H3176 0.931 . S
C3161 C3160 1.370 . S
C3161 C3165 1.408 . S
C3162 C3160 1.363 . S
C3162 C3163 1.370 . S
C3162 C3166 1.524 . S
C3163 C3155 1.503 1_556 S
C3163 C3162 1.370 . S
C3163 C3164 1.403 . S
C3164 C3163 1.403 . S
C3164 C3165 1.404 . S
C3164 C3167 1.539 . S
C3165 C3161 1.408 . S
C3165 C3164 1.404 . S
C3165 H3177 0.930 . S
C3166 C3162 1.524 . S
C3166 H3178 0.977 . S
C3166 H3179 0.961 1_556 S
C3166 H3180 0.961 . S
C3167 C3164 1.539 . S
C3167 H3181 0.958 . S
C3167 H3182 0.961 . S
C3167 H3183 0.955 . S
H3168 C3152 0.931 . S
H3169 C3157 0.929 . S
H3170 C3158 0.960 1_556 S
H3171 C3158 0.962 . S
H3172 C3158 0.960 . S
H3173 C3159 0.961 . S
H3174 C3159 0.961 1_556 S
H3175 C3159 0.961 . S
H3176 C3160 0.931 . S
H3177 C3165 0.930 . S
H3178 C3166 0.977 . S
H3179 C3166 0.961 1_554 S
H3180 C3166 0.961 . S
H3181 C3167 0.958 . S
H3182 C3167 0.961 . S
H3183 C3167 0.955 . S
C3184 C3185 1.391 . S
C3184 C3186 1.394 . S
C3184 H3200 0.931 . S
C3185 C3184 1.391 . S
C3185 C3189 1.376 . S
C3186 C3184 1.394 . S
C3186 C3187 1.369 . S
C3186 C3190 1.531 . S
C3187 C3186 1.369 . S
C3187 C3188 1.410 . S
C3187 C3195 1.503 1_455 S
C3188 C3187 1.410 . S
C3188 C3189 1.392 . S
C3188 C3191 1.511 . S
C3189 C3185 1.376 . S
C3189 C3188 1.392 . S
C3189 H3201 0.929 . S
C3190 C3186 1.531 . S
C3190 H3202 0.960 1_455 S
C3190 H3203 0.962 . S
C3190 H3204 0.960 . S
C3191 C3188 1.511 . S
C3191 H3205 0.961 . S
C3191 H3206 0.961 1_455 S
C3191 H3207 0.961 . S
C3192 C3193 1.370 . S
C3192 C3194 1.363 . S
C3192 H3208 0.931 . S
C3193 C3192 1.370 . S
C3193 C3197 1.408 . S
C3194 C3192 1.363 . S
C3194 C3195 1.370 . S
C3194 C3198 1.524 . S
C3195 C3187 1.503 1_655 S
C3195 C3194 1.370 . S
C3195 C3196 1.403 . S
C3196 C3195 1.403 . S
C3196 C3197 1.404 . S
C3196 C3199 1.539 . S
C3197 C3193 1.408 . S
C3197 C3196 1.404 . S
C3197 H3209 0.930 . S
C3198 C3194 1.524 . S
C3198 H3210 0.978 . S
C3198 H3211 0.961 1_655 S
C3198 H3212 0.961 . S
C3199 C3196 1.539 . S
C3199 H3213 0.958 . S
C3199 H3214 0.961 . S
C3199 H3215 0.967 . S
H3200 C3184 0.931 . S
H3201 C3189 0.929 . S
H3202 C3190 0.960 1_655 S
H3203 C3190 0.962 . S
H3204 C3190 0.960 . S
H3205 C3191 0.961 . S
H3206 C3191 0.961 1_655 S
H3207 C3191 0.961 . S
H3208 C3192 0.931 . S
H3209 C3197 0.930 . S
H3210 C3198 0.978 . S
H3211 C3198 0.961 1_455 S
H3212 C3198 0.961 . S
H3213 C3199 0.958 . S
H3214 C3199 0.961 . S
H3215 C3199 0.967 . S
C3216 C3217 1.391 . S
C3216 C3218 1.394 . S
C3216 H3232 0.931 . S
C3217 C3216 1.391 . S
C3217 C3221 1.376 . S
C3218 C3216 1.394 . S
C3218 C3219 1.369 . S
C3218 C3222 1.531 . S
C3219 C3218 1.369 . S
C3219 C3220 1.410 . S
C3219 C3227 1.503 1_565 S
C3220 C3219 1.410 . S
C3220 C3221 1.392 . S
C3220 C3223 1.511 . S
C3221 C3217 1.376 . S
C3221 C3220 1.392 . S
C3221 H3233 0.929 . S
C3222 C3218 1.531 . S
C3222 H3234 0.960 1_565 S
C3222 H3235 0.962 . S
C3222 H3236 0.960 . S
C3223 C3220 1.511 . S
C3223 H3237 0.961 . S
C3223 H3238 0.961 1_565 S
C3223 H3239 0.961 . S
C3224 C3225 1.370 . S
C3224 C3226 1.363 . S
C3224 H3240 0.931 . S
C3225 C3224 1.370 . S
C3225 C3229 1.408 . S
C3226 C3224 1.363 . S
C3226 C3227 1.370 . S
C3226 C3230 1.524 . S
C3227 C3219 1.503 1_545 S
C3227 C3226 1.370 . S
C3227 C3228 1.403 . S
C3228 C3227 1.403 . S
C3228 C3229 1.404 . S
C3228 C3231 1.539 . S
C3229 C3225 1.408 . S
C3229 C3228 1.404 . S
C3229 H3241 0.930 . S
C3230 C3226 1.524 . S
C3230 H3242 0.982 . S
C3230 H3243 0.961 1_545 S
C3230 H3244 0.961 . S
C3231 C3228 1.539 . S
C3231 H3245 0.958 . S
C3231 H3246 0.961 . S
C3231 H3247 0.959 . S
H3232 C3216 0.931 . S
H3233 C3221 0.929 . S
H3234 C3222 0.960 1_545 S
H3235 C3222 0.962 . S
H3236 C3222 0.960 . S
H3237 C3223 0.961 . S
H3238 C3223 0.961 1_545 S
H3239 C3223 0.961 . S
H3240 C3224 0.931 . S
H3241 C3229 0.930 . S
H3242 C3230 0.982 . S
H3243 C3230 0.961 1_565 S
H3244 C3230 0.961 . S
H3245 C3231 0.958 . S
H3246 C3231 0.961 . S
H3247 C3231 0.959 . S
C3248 C3249 1.391 . S
C3248 C3250 1.394 . S
C3248 H3264 0.931 . S
C3249 C3248 1.391 . S
C3249 C3253 1.376 . S
C3250 C3248 1.394 . S
C3250 C3251 1.369 . S
C3250 C3254 1.531 . S
C3251 C3250 1.369 . S
C3251 C3252 1.410 . S
C3251 C3259 1.503 1_455 S
C3252 C3251 1.410 . S
C3252 C3253 1.392 . S
C3252 C3255 1.511 . S
C3253 C3249 1.376 . S
C3253 C3252 1.392 . S
C3253 H3265 0.929 . S
C3254 C3250 1.531 . S
C3254 H3266 0.960 1_455 S
C3254 H3267 0.962 . S
C3254 H3268 0.960 . S
C3255 C3252 1.511 . S
C3255 H3269 0.961 . S
C3255 H3270 0.961 1_455 S
C3255 H3271 0.961 . S
C3256 C3257 1.370 . S
C3256 C3258 1.363 . S
C3256 H3272 0.931 . S
C3257 C3256 1.370 . S
C3257 C3261 1.408 . S
C3258 C3256 1.363 . S
C3258 C3259 1.370 . S
C3258 C3262 1.524 . S
C3259 C3251 1.503 1_655 S
C3259 C3258 1.370 . S
C3259 C3260 1.403 . S
C3260 C3259 1.403 . S
C3260 C3261 1.404 . S
C3260 C3263 1.539 . S
C3261 C3257 1.408 . S
C3261 C3260 1.404 . S
C3261 H3273 0.930 . S
C3262 C3258 1.524 . S
C3262 H3274 0.991 . S
C3262 H3275 0.923 1_655 S
C3262 H3276 0.961 . S
C3263 C3260 1.539 . S
C3263 H3277 0.958 . S
C3263 H3278 0.961 . S
C3263 H3279 0.973 . S
H3264 C3248 0.931 . S
H3265 C3253 0.929 . S
H3266 C3254 0.960 1_655 S
H3267 C3254 0.962 . S
H3268 C3254 0.960 . S
H3269 C3255 0.961 . S
H3270 C3255 0.961 1_655 S
H3271 C3255 0.961 . S
H3272 C3256 0.931 . S
H3273 C3261 0.930 . S
H3274 C3262 0.991 . S
H3275 C3262 0.923 1_455 S
H3276 C3262 0.961 . S
H3277 C3263 0.958 . S
H3278 C3263 0.961 . S
H3279 C3263 0.973 . S
C3280 C3281 1.391 . S
C3280 C3282 1.394 . S
C3280 H3296 0.931 . S
C3281 C3280 1.391 . S
C3281 C3285 1.376 . S
C3282 C3280 1.394 . S
C3282 C3283 1.369 . S
C3282 C3286 1.531 . S
C3283 C3282 1.369 . S
C3283 C3284 1.410 . S
C3283 C3291 1.503 1_565 S
C3284 C3283 1.410 . S
C3284 C3285 1.392 . S
C3284 C3287 1.511 . S
C3285 C3281 1.376 . S
C3285 C3284 1.392 . S
C3285 H3297 0.929 . S
C3286 C3282 1.531 . S
C3286 H3298 0.960 1_565 S
C3286 H3299 0.962 . S
C3286 H3300 0.960 . S
C3287 C3284 1.511 . S
C3287 H3301 0.961 . S
C3287 H3302 0.961 1_565 S
C3287 H3303 0.961 . S
C3288 C3289 1.370 . S
C3288 C3290 1.363 . S
C3288 H3304 0.931 . S
C3289 C3288 1.370 . S
C3289 C3293 1.408 . S
C3290 C3288 1.363 . S
C3290 C3291 1.370 . S
C3290 C3294 1.524 . S
C3291 C3283 1.503 1_545 S
C3291 C3290 1.370 . S
C3291 C3292 1.403 . S
C3292 C3291 1.403 . S
C3292 C3293 1.404 . S
C3292 C3295 1.539 . S
C3293 C3289 1.408 . S
C3293 C3292 1.404 . S
C3293 H3305 0.930 . S
C3294 C3290 1.524 . S
C3294 H3306 0.976 . S
C3294 H3307 0.961 1_545 S
C3294 H3308 0.961 . S
C3295 C3292 1.539 . S
C3295 H3309 0.958 . S
C3295 H3310 0.961 . S
C3295 H3311 0.962 1_545 S
H3296 C3280 0.931 . S
H3297 C3285 0.929 . S
H3298 C3286 0.960 1_545 S
H3299 C3286 0.962 . S
H3300 C3286 0.960 . S
H3301 C3287 0.961 . S
H3302 C3287 0.961 1_545 S
H3303 C3287 0.961 . S
H3304 C3288 0.931 . S
H3305 C3293 0.930 . S
H3306 C3294 0.976 . S
H3307 C3294 0.961 1_565 S
H3308 C3294 0.961 . S
H3309 C3295 0.958 . S
H3310 C3295 0.961 . S
H3311 C3295 0.962 1_565 S
C3312 C3313 1.391 . S
C3312 C3314 1.394 . S
C3312 H3328 0.931 . S
C3313 C3312 1.391 . S
C3313 C3317 1.376 . S
C3314 C3312 1.394 . S
C3314 C3315 1.369 . S
C3314 C3318 1.531 . S
C3315 C3314 1.369 . S
C3315 C3316 1.410 . S
C3315 C3323 1.503 1_655 S
C3316 C3315 1.410 . S
C3316 C3317 1.392 . S
C3316 C3319 1.511 . S
C3317 C3313 1.376 . S
C3317 C3316 1.392 . S
C3317 H3329 0.929 . S
C3318 C3314 1.531 . S
C3318 H3330 0.960 1_655 S
C3318 H3331 0.962 . S
C3318 H3332 0.960 . S
C3319 C3316 1.511 . S
C3319 H3333 0.961 . S
C3319 H3334 0.961 1_655 S
C3319 H3335 0.961 . S
C3320 C3321 1.370 . S
C3320 C3322 1.363 . S
C3320 H3336 0.931 . S
C3321 C3320 1.370 . S
C3321 C3325 1.408 . S
C3322 C3320 1.363 . S
C3322 C3323 1.370 . S
C3322 C3326 1.524 . S
C3323 C3315 1.503 1_455 S
C3323 C3322 1.370 . S
C3323 C3324 1.403 . S
C3324 C3323 1.403 . S
C3324 C3325 1.404 . S
C3324 C3327 1.539 . S
C3325 C3321 1.408 . S
C3325 C3324 1.404 . S
C3325 H3337 0.930 . S
C3326 C3322 1.524 . S
C3326 H3338 0.984 . S
C3326 H3339 0.961 1_455 S
C3326 H3340 0.961 . S
C3327 C3324 1.539 . S
C3327 H3341 0.958 . S
C3327 H3342 0.961 . S
C3327 H3343 0.953 . S
H3328 C3312 0.931 . S
H3329 C3317 0.929 . S
H3330 C3318 0.960 1_455 S
H3331 C3318 0.962 . S
H3332 C3318 0.960 . S
H3333 C3319 0.961 . S
H3334 C3319 0.961 1_455 S
H3335 C3319 0.961 . S
H3336 C3320 0.931 . S
H3337 C3325 0.930 . S
H3338 C3326 0.984 . S
H3339 C3326 0.961 1_655 S
H3340 C3326 0.961 . S
H3341 C3327 0.958 . S
H3342 C3327 0.961 . S
H3343 C3327 0.953 . S
C3344 C3345 1.391 . S
C3344 C3346 1.394 . S
C3344 H3360 0.931 . S
C3345 C3344 1.391 . S
C3345 C3349 1.376 . S
C3346 C3344 1.394 . S
C3346 C3347 1.369 . S
C3346 C3350 1.531 . S
C3347 C3346 1.369 . S
C3347 C3348 1.410 . S
C3347 C3355 1.503 1_545 S
C3348 C3347 1.410 . S
C3348 C3349 1.392 . S
C3348 C3351 1.511 . S
C3349 C3345 1.376 . S
C3349 C3348 1.392 . S
C3349 H3361 0.929 . S
C3350 C3346 1.531 . S
C3350 H3362 0.960 1_545 S
C3350 H3363 0.962 . S
C3350 H3364 0.960 . S
C3351 C3348 1.511 . S
C3351 H3365 0.961 . S
C3351 H3366 0.961 1_545 S
C3351 H3367 0.961 . S
C3352 C3353 1.370 . S
C3352 C3354 1.363 . S
C3352 H3368 0.931 . S
C3353 C3352 1.370 . S
C3353 C3357 1.408 . S
C3354 C3352 1.363 . S
C3354 C3355 1.370 . S
C3354 C3358 1.524 . S
C3355 C3347 1.503 1_565 S
C3355 C3354 1.370 . S
C3355 C3356 1.403 . S
C3356 C3355 1.403 . S
C3356 C3357 1.404 . S
C3356 C3359 1.539 . S
C3357 C3353 1.408 . S
C3357 C3356 1.404 . S
C3357 H3369 0.930 . S
C3358 C3354 1.524 . S
C3358 H3370 0.965 . S
C3358 H3371 0.961 1_565 S
C3358 H3372 0.961 . S
C3359 C3356 1.539 . S
C3359 H3373 0.958 . S
C3359 H3374 0.961 . S
C3359 H3375 0.959 1_565 S
H3360 C3344 0.931 . S
H3361 C3349 0.929 . S
H3362 C3350 0.960 1_565 S
H3363 C3350 0.962 . S
H3364 C3350 0.960 . S
H3365 C3351 0.961 . S
H3366 C3351 0.961 1_565 S
H3367 C3351 0.961 . S
H3368 C3352 0.931 . S
H3369 C3357 0.930 . S
H3370 C3358 0.965 . S
H3371 C3358 0.961 1_545 S
H3372 C3358 0.961 . S
H3373 C3359 0.958 . S
H3374 C3359 0.961 . S
H3375 C3359 0.959 1_545 S
C3376 C3377 1.391 . S
C3376 C3378 1.394 . S
C3376 H3392 0.931 . S
C3377 C3376 1.391 . S
C3377 C3381 1.376 . S
C3378 C3376 1.394 . S
C3378 C3379 1.369 . S
C3378 C3382 1.531 . S
C3379 C3378 1.369 . S
C3379 C3380 1.410 . S
C3379 C3387 1.503 1_455 S
C3380 C3379 1.410 . S
C3380 C3381 1.392 . S
C3380 C3383 1.511 . S
C3381 C3377 1.376 . S
C3381 C3380 1.392 . S
C3381 H3393 0.929 . S
C3382 C3378 1.531 . S
C3382 H3394 0.960 1_455 S
C3382 H3395 0.962 . S
C3382 H3396 0.960 . S
C3383 C3380 1.511 . S
C3383 H3397 0.961 . S
C3383 H3398 0.961 1_455 S
C3383 H3399 0.961 . S
C3384 C3385 1.370 . S
C3384 C3386 1.363 . S
C3384 H3400 0.931 . S
C3385 C3384 1.370 . S
C3385 C3389 1.408 . S
C3386 C3384 1.363 . S
C3386 C3387 1.370 . S
C3386 C3390 1.524 . S
C3387 C3379 1.503 1_655 S
C3387 C3386 1.370 . S
C3387 C3388 1.403 . S
C3388 C3387 1.403 . S
C3388 C3389 1.404 . S
C3388 C3391 1.539 . S
C3389 C3385 1.408 . S
C3389 C3388 1.404 . S
C3389 H3401 0.930 . S
C3390 C3386 1.524 . S
C3390 H3402 0.969 . S
C3390 H3403 0.961 1_655 S
C3390 H3404 0.961 . S
C3391 C3388 1.539 . S
C3391 H3405 0.958 . S
C3391 H3406 0.961 . S
C3391 H3407 0.953 1_655 S
H3392 C3376 0.931 . S
H3393 C3381 0.929 . S
H3394 C3382 0.960 1_655 S
H3395 C3382 0.962 . S
H3396 C3382 0.960 . S
H3397 C3383 0.961 . S
H3398 C3383 0.961 1_655 S
H3399 C3383 0.961 . S
H3400 C3384 0.931 . S
H3401 C3389 0.930 . S
H3402 C3390 0.969 . S
H3403 C3390 0.961 1_455 S
H3404 C3390 0.961 . S
H3405 C3391 0.958 . S
H3406 C3391 0.961 . S
H3407 C3391 0.953 1_455 S
C3408 C3409 1.391 . S
C3408 C3410 1.394 . S
C3408 H3424 0.931 . S
C3409 C3408 1.391 . S
C3409 C3413 1.376 . S
C3410 C3408 1.394 . S
C3410 C3411 1.369 . S
C3410 C3414 1.531 . S
C3411 C3410 1.369 . S
C3411 C3412 1.410 . S
C3411 C3419 1.503 1_545 S
C3412 C3411 1.410 . S
C3412 C3413 1.392 . S
C3412 C3415 1.511 . S
C3413 C3409 1.376 . S
C3413 C3412 1.392 . S
C3413 H3425 0.929 . S
C3414 C3410 1.531 . S
C3414 H3426 0.960 1_545 S
C3414 H3427 0.962 . S
C3414 H3428 0.960 . S
C3415 C3412 1.511 . S
C3415 H3429 0.961 . S
C3415 H3430 0.961 1_545 S
C3415 H3431 0.961 . S
C3416 C3417 1.370 . S
C3416 C3418 1.363 . S
C3416 H3432 0.931 . S
C3417 C3416 1.370 . S
C3417 C3421 1.408 . S
C3418 C3416 1.363 . S
C3418 C3419 1.370 . S
C3418 C3422 1.524 . S
C3419 C3411 1.503 1_565 S
C3419 C3418 1.370 . S
C3419 C3420 1.403 . S
C3420 C3419 1.403 . S
C3420 C3421 1.404 . S
C3420 C3423 1.539 . S
C3421 C3417 1.408 . S
C3421 C3420 1.404 . S
C3421 H3433 0.930 . S
C3422 C3418 1.524 . S
C3422 H3434 0.956 . S
C3422 H3435 0.928 1_565 S
C3422 H3436 0.961 . S
C3423 C3420 1.539 . S
C3423 H3437 0.958 . S
C3423 H3438 0.961 . S
C3423 H3439 0.969 . S
H3424 C3408 0.931 . S
H3425 C3413 0.929 . S
H3426 C3414 0.960 1_565 S
H3427 C3414 0.962 . S
H3428 C3414 0.960 . S
H3429 C3415 0.961 . S
H3430 C3415 0.961 1_565 S
H3431 C3415 0.961 . S
H3432 C3416 0.931 . S
H3433 C3421 0.930 . S
H3434 C3422 0.956 . S
H3435 C3422 0.928 1_545 S
H3436 C3422 0.961 . S
H3437 C3423 0.958 . S
H3438 C3423 0.961 . S
H3439 C3423 0.969 . S
C3440 C3441 1.391 . S
C3440 C3442 1.394 . S
C3440 H3456 0.931 . S
C3441 C3440 1.391 . S
C3441 C3445 1.376 . S
C3442 C3440 1.394 . S
C3442 C3443 1.369 . S
C3442 C3446 1.531 . S
C3443 C3442 1.369 . S
C3443 C3444 1.410 . S
C3443 C3451 1.503 1_545 S
C3444 C3443 1.410 . S
C3444 C3445 1.392 . S
C3444 C3447 1.511 . S
C3445 C3441 1.376 . S
C3445 C3444 1.392 . S
C3445 H3457 0.929 . S
C3446 C3442 1.531 . S
C3446 H3458 0.960 1_545 S
C3446 H3459 0.962 . S
C3446 H3460 0.960 . S
C3447 C3444 1.511 . S
C3447 H3461 0.961 . S
C3447 H3462 0.961 1_545 S
C3447 H3463 0.961 . S
C3448 C3449 1.370 . S
C3448 C3450 1.363 . S
C3448 H3464 0.931 . S
C3449 C3448 1.370 . S
C3449 C3453 1.408 . S
C3450 C3448 1.363 . S
C3450 C3451 1.370 . S
C3450 C3454 1.524 . S
C3451 C3443 1.503 1_565 S
C3451 C3450 1.370 . S
C3451 C3452 1.403 . S
C3452 C3451 1.403 . S
C3452 C3453 1.404 . S
C3452 C3455 1.539 . S
C3453 C3449 1.408 . S
C3453 C3452 1.404 . S
C3453 H3465 0.930 . S
C3454 C3450 1.524 . S
C3454 H3466 0.980 . S
C3454 H3467 0.961 1_565 S
C3454 H3468 0.961 . S
C3455 C3452 1.539 . S
C3455 H3469 0.958 . S
C3455 H3470 0.961 . S
C3455 H3471 0.976 . S
H3456 C3440 0.931 . S
H3457 C3445 0.929 . S
H3458 C3446 0.960 1_565 S
H3459 C3446 0.962 . S
H3460 C3446 0.960 . S
H3461 C3447 0.961 . S
H3462 C3447 0.961 1_565 S
H3463 C3447 0.961 . S
H3464 C3448 0.931 . S
H3465 C3453 0.930 . S
H3466 C3454 0.980 . S
H3467 C3454 0.961 1_545 S
H3468 C3454 0.961 . S
H3469 C3455 0.958 . S
H3470 C3455 0.961 . S
H3471 C3455 0.976 . S
C3472 C3473 1.391 . S
C3472 C3474 1.394 . S
C3472 H3488 0.931 . S
C3473 C3472 1.391 . S
C3473 C3477 1.376 . S
C3474 C3472 1.394 . S
C3474 C3475 1.369 . S
C3474 C3478 1.531 . S
C3475 C3474 1.369 . S
C3475 C3476 1.410 . S
C3475 C3483 1.503 1_545 S
C3476 C3475 1.410 . S
C3476 C3477 1.392 . S
C3476 C3479 1.511 . S
C3477 C3473 1.376 . S
C3477 C3476 1.392 . S
C3477 H3489 0.929 . S
C3478 C3474 1.531 . S
C3478 H3490 0.960 1_545 S
C3478 H3491 0.962 . S
C3478 H3492 0.960 . S
C3479 C3476 1.511 . S
C3479 H3493 0.961 . S
C3479 H3494 0.961 1_545 S
C3479 H3495 0.961 . S
C3480 C3481 1.370 . S
C3480 C3482 1.363 . S
C3480 H3496 0.931 . S
C3481 C3480 1.370 . S
C3481 C3485 1.408 . S
C3482 C3480 1.363 . S
C3482 C3483 1.370 . S
C3482 C3486 1.524 . S
C3483 C3475 1.503 1_565 S
C3483 C3482 1.370 . S
C3483 C3484 1.403 . S
C3484 C3483 1.403 . S
C3484 C3485 1.404 . S
C3484 C3487 1.539 . S
C3485 C3481 1.408 . S
C3485 C3484 1.404 . S
C3485 H3497 0.930 . S
C3486 C3482 1.524 . S
C3486 H3498 0.956 . S
C3486 H3499 0.928 1_565 S
C3486 H3500 0.961 . S
C3487 C3484 1.539 . S
C3487 H3501 0.958 . S
C3487 H3502 0.961 . S
C3487 H3503 0.983 . S
H3488 C3472 0.931 . S
H3489 C3477 0.929 . S
H3490 C3478 0.960 1_565 S
H3491 C3478 0.962 . S
H3492 C3478 0.960 . S
H3493 C3479 0.961 . S
H3494 C3479 0.961 1_565 S
H3495 C3479 0.961 . S
H3496 C3480 0.931 . S
H3497 C3485 0.930 . S
H3498 C3486 0.956 . S
H3499 C3486 0.928 1_545 S
H3500 C3486 0.961 . S
H3501 C3487 0.958 . S
H3502 C3487 0.961 . S
H3503 C3487 0.983 . S
C3504 C3505 1.391 . S
C3504 C3506 1.394 . S
C3504 H3520 0.931 . S
C3505 C3504 1.391 . S
C3505 C3509 1.376 . S
C3506 C3504 1.394 . S
C3506 C3507 1.369 . S
C3506 C3510 1.531 . S
C3507 C3506 1.369 . S
C3507 C3508 1.410 . S
C3507 C3515 1.503 1_655 S
C3508 C3507 1.410 . S
C3508 C3509 1.392 . S
C3508 C3511 1.511 . S
C3509 C3505 1.376 . S
C3509 C3508 1.392 . S
C3509 H3521 0.929 . S
C3510 C3506 1.531 . S
C3510 H3522 0.960 1_655 S
C3510 H3523 0.962 . S
C3510 H3524 0.960 . S
C3511 C3508 1.511 . S
C3511 H3525 0.961 . S
C3511 H3526 0.961 1_655 S
C3511 H3527 0.961 . S
C3512 C3513 1.370 . S
C3512 C3514 1.363 . S
C3512 H3528 0.931 . S
C3513 C3512 1.370 . S
C3513 C3517 1.408 . S
C3514 C3512 1.363 . S
C3514 C3515 1.370 . S
C3514 C3518 1.524 . S
C3515 C3507 1.503 1_455 S
C3515 C3514 1.370 . S
C3515 C3516 1.403 . S
C3516 C3515 1.403 . S
C3516 C3517 1.404 . S
C3516 C3519 1.539 . S
C3517 C3513 1.408 . S
C3517 C3516 1.404 . S
C3517 H3529 0.930 . S
C3518 C3514 1.524 . S
C3518 H3530 0.969 . S
C3518 H3531 0.961 1_455 S
C3518 H3532 0.961 . S
C3519 C3516 1.539 . S
C3519 H3533 0.958 . S
C3519 H3534 0.961 . S
C3519 H3535 0.965 1_455 S
H3520 C3504 0.931 . S
H3521 C3509 0.929 . S
H3522 C3510 0.960 1_455 S
H3523 C3510 0.962 . S
H3524 C3510 0.960 . S
H3525 C3511 0.961 . S
H3526 C3511 0.961 1_455 S
H3527 C3511 0.961 . S
H3528 C3512 0.931 . S
H3529 C3517 0.930 . S
H3530 C3518 0.969 . S
H3531 C3518 0.961 1_655 S
H3532 C3518 0.961 . S
H3533 C3519 0.958 . S
H3534 C3519 0.961 . S
H3535 C3519 0.965 1_655 S
C3536 C3537 1.391 . S
C3536 C3538 1.394 . S
C3536 H3552 0.931 . S
C3537 C3536 1.391 . S
C3537 C3541 1.376 . S
C3538 C3536 1.394 . S
C3538 C3539 1.369 . S
C3538 C3542 1.531 . S
C3539 C3538 1.369 . S
C3539 C3540 1.410 . S
C3539 C3547 1.503 1_545 S
C3540 C3539 1.410 . S
C3540 C3541 1.392 . S
C3540 C3543 1.511 . S
C3541 C3537 1.376 . S
C3541 C3540 1.392 . S
C3541 H3553 0.929 . S
C3542 C3538 1.531 . S
C3542 H3554 0.960 1_545 S
C3542 H3555 0.962 . S
C3542 H3556 0.960 . S
C3543 C3540 1.511 . S
C3543 H3557 0.961 . S
C3543 H3558 0.961 1_545 S
C3543 H3559 0.961 . S
C3544 C3545 1.370 . S
C3544 C3546 1.363 . S
C3544 H3560 0.931 . S
C3545 C3544 1.370 . S
C3545 C3549 1.408 . S
C3546 C3544 1.363 . S
C3546 C3547 1.370 . S
C3546 C3550 1.524 . S
C3547 C3539 1.503 1_565 S
C3547 C3546 1.370 . S
C3547 C3548 1.403 . S
C3548 C3547 1.403 . S
C3548 C3549 1.404 . S
C3548 C3551 1.539 . S
C3549 C3545 1.408 . S
C3549 C3548 1.404 . S
C3549 H3561 0.930 . S
C3550 C3546 1.524 . S
C3550 H3562 0.978 . S
C3550 H3563 0.961 1_565 S
C3550 H3564 0.961 . S
C3551 C3548 1.539 . S
C3551 H3565 0.958 . S
C3551 H3566 0.961 . S
C3551 H3567 0.956 . S
H3552 C3536 0.931 . S
H3553 C3541 0.929 . S
H3554 C3542 0.960 1_565 S
H3555 C3542 0.962 . S
H3556 C3542 0.960 . S
H3557 C3543 0.961 . S
H3558 C3543 0.961 1_565 S
H3559 C3543 0.961 . S
H3560 C3544 0.931 . S
H3561 C3549 0.930 . S
H3562 C3550 0.978 . S
H3563 C3550 0.961 1_545 S
H3564 C3550 0.961 . S
H3565 C3551 0.958 . S
H3566 C3551 0.961 . S
H3567 C3551 0.956 . S
C3568 C3569 1.391 . S
C3568 C3570 1.394 . S
C3568 H3584 0.931 . S
C3569 C3568 1.391 . S
C3569 C3573 1.376 . S
C3570 C3568 1.394 . S
C3570 C3571 1.369 . S
C3570 C3574 1.531 . S
C3571 C3570 1.369 . S
C3571 C3572 1.410 . S
C3571 C3579 1.503 1_455 S
C3572 C3571 1.410 . S
C3572 C3573 1.392 . S
C3572 C3575 1.511 . S
C3573 C3569 1.376 . S
C3573 C3572 1.392 . S
C3573 H3585 0.929 . S
C3574 C3570 1.531 . S
C3574 H3586 0.960 1_455 S
C3574 H3587 0.962 . S
C3574 H3588 0.960 . S
C3575 C3572 1.511 . S
C3575 H3589 0.961 . S
C3575 H3590 0.961 1_455 S
C3575 H3591 0.961 . S
C3576 C3577 1.370 . S
C3576 C3578 1.363 . S
C3576 H3592 0.931 . S
C3577 C3576 1.370 . S
C3577 C3581 1.408 . S
C3578 C3576 1.363 . S
C3578 C3579 1.370 . S
C3578 C3582 1.524 . S
C3579 C3571 1.503 1_655 S
C3579 C3578 1.370 . S
C3579 C3580 1.403 . S
C3580 C3579 1.403 . S
C3580 C3581 1.404 . S
C3580 C3583 1.539 . S
C3581 C3577 1.408 . S
C3581 C3580 1.404 . S
C3581 H3593 0.930 . S
C3582 C3578 1.524 . S
C3582 H3594 0.979 . S
C3582 H3595 0.961 1_655 S
C3582 H3596 0.961 . S
C3583 C3580 1.539 . S
C3583 H3597 0.958 . S
C3583 H3598 0.961 . S
C3583 H3599 0.957 . S
H3584 C3568 0.931 . S
H3585 C3573 0.929 . S
H3586 C3574 0.960 1_655 S
H3587 C3574 0.962 . S
H3588 C3574 0.960 . S
H3589 C3575 0.961 . S
H3590 C3575 0.961 1_655 S
H3591 C3575 0.961 . S
H3592 C3576 0.931 . S
H3593 C3581 0.930 . S
H3594 C3582 0.979 . S
H3595 C3582 0.961 1_455 S
H3596 C3582 0.961 . S
H3597 C3583 0.958 . S
H3598 C3583 0.961 . S
H3599 C3583 0.957 . S
C3600 C3601 1.391 . S
C3600 C3602 1.394 . S
C3600 H3616 0.931 . S
C3601 C3600 1.391 . S
C3601 C3605 1.376 . S
C3602 C3600 1.394 . S
C3602 C3603 1.369 . S
C3602 C3606 1.531 . S
C3603 C3602 1.369 . S
C3603 C3604 1.410 . S
C3603 C3611 1.503 1_545 S
C3604 C3603 1.410 . S
C3604 C3605 1.392 . S
C3604 C3607 1.511 . S
C3605 C3601 1.376 . S
C3605 C3604 1.392 . S
C3605 H3617 0.929 . S
C3606 C3602 1.531 . S
C3606 H3618 0.960 1_545 S
C3606 H3619 0.962 . S
C3606 H3620 0.960 . S
C3607 C3604 1.511 . S
C3607 H3621 0.961 . S
C3607 H3622 0.961 1_545 S
C3607 H3623 0.961 . S
C3608 C3609 1.370 . S
C3608 C3610 1.363 . S
C3608 H3624 0.931 . S
C3609 C3608 1.370 . S
C3609 C3613 1.408 . S
C3610 C3608 1.363 . S
C3610 C3611 1.370 . S
C3610 C3614 1.524 . S
C3611 C3603 1.503 1_565 S
C3611 C3610 1.370 . S
C3611 C3612 1.403 . S
C3612 C3611 1.403 . S
C3612 C3613 1.404 . S
C3612 C3615 1.539 . S
C3613 C3609 1.408 . S
C3613 C3612 1.404 . S
C3613 H3625 0.930 . S
C3614 C3610 1.524 . S
C3614 H3626 0.972 . S
C3614 H3627 0.961 1_565 S
C3614 H3628 0.961 . S
C3615 C3612 1.539 . S
C3615 H3629 0.958 . S
C3615 H3630 0.961 . S
C3615 H3631 0.959 . S
H3616 C3600 0.931 . S
H3617 C3605 0.929 . S
H3618 C3606 0.960 1_565 S
H3619 C3606 0.962 . S
H3620 C3606 0.960 . S
H3621 C3607 0.961 . S
H3622 C3607 0.961 1_565 S
H3623 C3607 0.961 . S
H3624 C3608 0.931 . S
H3625 C3613 0.930 . S
H3626 C3614 0.972 . S
H3627 C3614 0.961 1_545 S
H3628 C3614 0.961 . S
H3629 C3615 0.958 . S
H3630 C3615 0.961 . S
H3631 C3615 0.959 . S
C3632 C3633 1.391 . S
C3632 C3634 1.394 . S
C3632 H3648 0.931 . S
C3633 C3632 1.391 . S
C3633 C3637 1.376 . S
C3634 C3632 1.394 . S
C3634 C3635 1.369 . S
C3634 C3638 1.531 . S
C3635 C3634 1.369 . S
C3635 C3636 1.410 . S
C3635 C3643 1.503 1_655 S
C3636 C3635 1.410 . S
C3636 C3637 1.392 . S
C3636 C3639 1.511 . S
C3637 C3633 1.376 . S
C3637 C3636 1.392 . S
C3637 H3649 0.929 . S
C3638 C3634 1.531 . S
C3638 H3650 0.960 1_655 S
C3638 H3651 0.962 . S
C3638 H3652 0.960 . S
C3639 C3636 1.511 . S
C3639 H3653 0.961 . S
C3639 H3654 0.961 1_655 S
C3639 H3655 0.961 . S
C3640 C3641 1.370 . S
C3640 C3642 1.363 . S
C3640 H3656 0.931 . S
C3641 C3640 1.370 . S
C3641 C3645 1.408 . S
C3642 C3640 1.363 . S
C3642 C3643 1.370 . S
C3642 C3646 1.524 . S
C3643 C3635 1.503 1_455 S
C3643 C3642 1.370 . S
C3643 C3644 1.403 . S
C3644 C3643 1.403 . S
C3644 C3645 1.404 . S
C3644 C3647 1.539 . S
C3645 C3641 1.408 . S
C3645 C3644 1.404 . S
C3645 H3657 0.930 . S
C3646 C3642 1.524 . S
C3646 H3658 0.986 . S
C3646 H3659 0.921 1_455 S
C3646 H3660 0.961 . S
C3647 C3644 1.539 . S
C3647 H3661 0.958 . S
C3647 H3662 0.961 . S
C3647 H3663 0.987 . S
H3648 C3632 0.931 . S
H3649 C3637 0.929 . S
H3650 C3638 0.960 1_455 S
H3651 C3638 0.962 . S
H3652 C3638 0.960 . S
H3653 C3639 0.961 . S
H3654 C3639 0.961 1_455 S
H3655 C3639 0.961 . S
H3656 C3640 0.931 . S
H3657 C3645 0.930 . S
H3658 C3646 0.986 . S
H3659 C3646 0.921 1_655 S
H3660 C3646 0.961 . S
H3661 C3647 0.958 . S
H3662 C3647 0.961 . S
H3663 C3647 0.987 . S
C3664 C3665 1.391 . S
C3664 C3666 1.394 . S
C3664 H3680 0.931 . S
C3665 C3664 1.391 . S
C3665 C3669 1.376 . S
C3666 C3664 1.394 . S
C3666 C3667 1.369 . S
C3666 C3670 1.531 . S
C3667 C3666 1.369 . S
C3667 C3668 1.410 . S
C3667 C3675 1.503 1_455 S
C3668 C3667 1.410 . S
C3668 C3669 1.392 . S
C3668 C3671 1.511 . S
C3669 C3665 1.376 . S
C3669 C3668 1.392 . S
C3669 H3681 0.929 . S
C3670 C3666 1.531 . S
C3670 H3682 0.960 1_455 S
C3670 H3683 0.962 . S
C3670 H3684 0.960 . S
C3671 C3668 1.511 . S
C3671 H3685 0.961 . S
C3671 H3686 0.961 1_455 S
C3671 H3687 0.961 . S
C3672 C3673 1.370 . S
C3672 C3674 1.363 . S
C3672 H3688 0.931 . S
C3673 C3672 1.370 . S
C3673 C3677 1.408 . S
C3674 C3672 1.363 . S
C3674 C3675 1.370 . S
C3674 C3678 1.524 . S
C3675 C3667 1.503 1_655 S
C3675 C3674 1.370 . S
C3675 C3676 1.403 . S
C3676 C3675 1.403 . S
C3676 C3677 1.404 . S
C3676 C3679 1.539 . S
C3677 C3673 1.408 . S
C3677 C3676 1.404 . S
C3677 H3689 0.930 . S
C3678 C3674 1.524 . S
C3678 H3690 0.956 . S
C3678 H3691 0.924 1_655 S
C3678 H3692 0.961 . S
C3679 C3676 1.539 . S
C3679 H3693 0.958 . S
C3679 H3694 0.961 . S
C3679 H3695 0.983 . S
H3680 C3664 0.931 . S
H3681 C3669 0.929 . S
H3682 C3670 0.960 1_655 S
H3683 C3670 0.962 . S
H3684 C3670 0.960 . S
H3685 C3671 0.961 . S
H3686 C3671 0.961 1_655 S
H3687 C3671 0.961 . S
H3688 C3672 0.931 . S
H3689 C3677 0.930 . S
H3690 C3678 0.956 . S
H3691 C3678 0.924 1_455 S
H3692 C3678 0.961 . S
H3693 C3679 0.958 . S
H3694 C3679 0.961 . S
H3695 C3679 0.983 . S
C625 C517 1.382 . S
C633 C3 1.388 . S
C657 C17 1.371 . S
C665 C471 1.383 . S
C689 C31 1.387 . S
C697 C485 1.386 . S
C721 C498 1.372 . S
C729 C43 1.379 . S
C753 C439 1.365 . S
C761 C56 1.373 . S
C785 C70 1.382 . S
C793 C445 1.390 . S
C817 C88 1.382 . S
C825 C458 1.383 . S
C849 C94 1.384 . S
C857 C421 1.391 . S
C881 C114 1.379 . S
C889 C406 1.386 . S
C913 C374 1.366 . S
C921 C121 1.375 . S
C945 C380 1.387 . S
C953 C140 1.385 . S
C977 C146 1.386 . S
C985 C400 1.386 . S
C1009 C161 1.369 . S
C1017 C329 1.374 . S
C1041 C172 1.388 . S
C1049 C341 1.390 . S
C1073 C355 1.359 . S
C1081 C186 1.368 . S
C1105 C315 1.389 . S
C1113 C199 1.389 . S
C1137 C218 1.374 . S
C1145 C576 1.381 . S
C1169 C616 1.380 . S
C1177 C224 1.385 . S
C1201 C589 1.384 . S
C1209 C238 1.382 . S
C1233 C603 1.388 . S
C1241 C252 1.389 . S
C1265 C530 1.388 . S
C1273 C270 1.385 . S
C1297 C550 1.370 . S
C1305 C277 1.380 . S
C1329 C291 1.374 . S
C1337 C564 1.382 . S
C1361 C536 1.374 . S
C1369 C302 1.382 . S
C1393 C426 1.391 . S
C1401 C265 1.391 . S
C1425 C225 1.386 . S
C1433 C434 1.387 . S
C1457 C446 1.385 . S
C1465 C237 1.385 . S
C1489 C459 1.367 . S
C1497 C257 1.373 . S
C1521 C303 1.378 . S
C1529 C472 1.376 . S
C1553 C484 1.389 . S
C1561 C276 1.391 . S
C1585 C296 1.373 . S
C1593 C497 1.378 . S
C1617 C213 1.387 . S
C1625 C512 1.392 . S
C1649 C525 1.386 . S
C1657 C198 1.392 . S
C1681 C166 1.366 . S
C1689 C621 1.376 . S
C1713 C588 1.374 . S
C1721 C173 1.379 . S
C1745 C185 1.385 . S
C1753 C608 1.385 . S
C1777 C120 1.383 . S
C1785 C537 1.382 . S
C1809 C135 1.393 . S
C1817 C549 1.393 . S
C1841 C147 1.377 . S
C1849 C569 1.375 . S
C1873 C575 1.392 . S
C1881 C109 1.394 . S
C1905 C316 1.386 . S
C1913 C95 1.384 . S
C1937 C369 1.381 . S
C1945 C16 1.387 . S
C1969 C381 1.368 . S
C1977 C36 1.376 . S
C2001 C395 1.390 . S
C2009 C42 1.390 . S
C2033 C407 1.368 . S
C2041 C4 1.377 . S
C2065 C75 1.390 . S
C2073 C342 1.388 . S
C2097 C354 1.388 . S
C2105 C83 1.388 . S
C2129 C328 1.384 . S
C2137 C55 1.386 . S
C2161 C10 1.561 . S
C2169 C348 1.565 . S
C2193 C356 1.577 . S
C2201 C18 1.577 . S
C2225 C30 1.560 . S
C2233 C322 1.564 . S
C2257 C44 1.562 . S
C2265 C330 1.572 . S
C2289 C57 1.578 . S
C2297 C393 1.578 . S
C2321 C413 1.556 . S
C2329 C69 1.563 . S
C2353 C81 1.574 . S
C2361 C367 1.577 . S
C2385 C387 1.562 . S
C2393 C101 1.564 . S
C2417 C107 1.568 . S
C2425 C478 1.570 . S
C2449 C486 1.580 . S
C2457 C122 1.580 . S
C2481 C133 1.563 . S
C2489 C499 1.573 . S
C2513 C153 1.565 . S
C2521 C510 1.565 . S
C2545 C160 1.565 . S
C2553 C420 1.565 . S
C2577 C179 1.560 . S
C2585 C432 1.565 . S
C2609 C452 1.565 . S
C2617 C187 1.567 . S
C2641 C200 1.562 . S
C2649 C465 1.570 . S
C2673 C563 1.562 . S
C2681 C211 1.565 . S
C2705 C231 1.572 . S
C2713 C590 1.571 . S
C2737 C239 1.557 . S
C2745 C602 1.568 . S
C2769 C523 1.569 . S
C2777 C251 1.571 . S
C2801 C615 1.577 . S
C2809 C263 1.576 . S
C2833 C278 1.569 . S
C2841 C543 1.569 . S
C2865 C551 1.562 . S
C2873 C290 1.568 . S
C2897 C309 1.570 . S
C2905 C577 1.569 . S
C2929 C556 1.555 . S
C2937 C264 1.562 . S
C2961 C226 1.580 . S
C2969 C562 1.578 . S
C2993 C582 1.556 . S
C3001 C244 1.562 . S
C3025 C538 1.577 . S
C3033 C250 1.577 . S
C3057 C601 1.562 . S
C3065 C304 1.571 . S
C3089 C283 1.556 . S
C3097 C524 1.563 . S
C3121 C614 1.564 . S
C3129 C289 1.572 . S
C3153 C212 1.566 . S
C3161 C595 1.566 . S
C3185 C433 1.553 . S
C3193 C205 1.558 . S
C3217 C159 1.574 . S
C3225 C447 1.578 . S
C3249 C174 1.574 . S
C3257 C460 1.578 . S
C3281 C419 1.556 . S
C3289 C192 1.567 . S
C3313 C127 1.564 . S
C3321 C511 1.565 . S
C3345 C473 1.560 . S
C3353 C134 1.570 . S
C3377 C148 1.567 . S
C3385 C491 1.573 . S
C3409 C108 1.551 . S
C3417 C504 1.560 . S
C3441 C361 1.564 . S
C3449 C96 1.566 . S
C3473 C23 1.573 . S
C3481 C382 1.571 . S
C3505 C29 1.573 . S
C3513 C394 1.574 . S
C3537 C408 1.560 . S
C3545 C49 1.573 . S
C3569 C5 1.561 . S
C3577 C368 1.572 . S
C3601 C68 1.569 . S
C3609 C335 1.570 . S
C3633 C82 1.558 . S
C3641 C343 1.562 . S
C3665 C62 1.571 . S
C3673 C317 1.573 . S
