# Generated by pormake.
# Topology umg, (4)-cn, num edge types: 1
# Building blocks:
#     Node 0, Type 0, BuildingBlock: ICAMEG_clean_sbu_1, # of connection points: 4
#     Node 1, Type 0, BuildingBlock: ICAMEG_clean_sbu_1, # of connection points: 4
#     Node 2, Type 0, BuildingBlock: ICAMEG_clean_sbu_1, # of connection points: 4
#     Node 3, Type 0, BuildingBlock: ICAMEG_clean_sbu_1, # of connection points: 4
#     Node 4, Type 0, BuildingBlock: ICAMEG_clean_sbu_1, # of connection points: 4
#     Node 5, Type 0, BuildingBlock: ICAMEG_clean_sbu_1, # of connection points: 4
#     Node 6, Type 0, BuildingBlock: ICAMEG_clean_sbu_1, # of connection points: 4
#     Node 7, Type 0, BuildingBlock: ICAMEG_clean_sbu_1, # of connection points: 4
#     Node 8, Type 0, BuildingBlock: ICAMEG_clean_sbu_1, # of connection points: 4
#     Node 9, Type 0, BuildingBlock: ICAMEG_clean_sbu_1, # of connection points: 4
#     Node 10, Type 0, BuildingBlock: ICAMEG_clean_sbu_1, # of connection points: 4
#     Node 11, Type 0, BuildingBlock: ICAMEG_clean_sbu_1, # of connection points: 4
#     Edge 12, Type (0, 0), BuildingBlock: ZUJKAS_clean_linker_0, # of connection points: 2
#     Edge 13, Type (0, 0), BuildingBlock: ZUJKAS_clean_linker_0, # of connection points: 2
#     Edge 14, Type (0, 0), BuildingBlock: ZUJKAS_clean_linker_0, # of connection points: 2
#     Edge 15, Type (0, 0), BuildingBlock: ZUJKAS_clean_linker_0, # of connection points: 2
#     Edge 16, Type (0, 0), BuildingBlock: ZUJKAS_clean_linker_0, # of connection points: 2
#     Edge 17, Type (0, 0), BuildingBlock: ZUJKAS_clean_linker_0, # of connection points: 2
#     Edge 18, Type (0, 0), BuildingBlock: ZUJKAS_clean_linker_0, # of connection points: 2
#     Edge 19, Type (0, 0), BuildingBlock: ZUJKAS_clean_linker_0, # of connection points: 2
#     Edge 20, Type (0, 0), BuildingBlock: ZUJKAS_clean_linker_0, # of connection points: 2
#     Edge 21, Type (0, 0), BuildingBlock: ZUJKAS_clean_linker_0, # of connection points: 2
#     Edge 22, Type (0, 0), BuildingBlock: ZUJKAS_clean_linker_0, # of connection points: 2
#     Edge 23, Type (0, 0), BuildingBlock: ZUJKAS_clean_linker_0, # of connection points: 2
#     Edge 24, Type (0, 0), BuildingBlock: ZUJKAS_clean_linker_0, # of connection points: 2
#     Edge 25, Type (0, 0), BuildingBlock: ZUJKAS_clean_linker_0, # of connection points: 2
#     Edge 26, Type (0, 0), BuildingBlock: ZUJKAS_clean_linker_0, # of connection points: 2
#     Edge 27, Type (0, 0), BuildingBlock: ZUJKAS_clean_linker_0, # of connection points: 2
#     Edge 28, Type (0, 0), BuildingBlock: ZUJKAS_clean_linker_0, # of connection points: 2
#     Edge 29, Type (0, 0), BuildingBlock: ZUJKAS_clean_linker_0, # of connection points: 2
#     Edge 30, Type (0, 0), BuildingBlock: ZUJKAS_clean_linker_0, # of connection points: 2
#     Edge 31, Type (0, 0), BuildingBlock: ZUJKAS_clean_linker_0, # of connection points: 2
#     Edge 32, Type (0, 0), BuildingBlock: ZUJKAS_clean_linker_0, # of connection points: 2
#     Edge 33, Type (0, 0), BuildingBlock: ZUJKAS_clean_linker_0, # of connection points: 2
#     Edge 34, Type (0, 0), BuildingBlock: ZUJKAS_clean_linker_0, # of connection points: 2
#     Edge 35, Type (0, 0), BuildingBlock: ZUJKAS_clean_linker_0, # of connection points: 2
# Relax obj value: 0.057
# Max RMSD: 0.149
# Mean RMSD: 0.149
data_MOF--net-umg--node1-ICAMEG_clean_sbu_1--edge1-ZUJKAS_clean_linker_0
_symmetry_space_group_name_H-M    P1
_symmetry_Int_Tables_number       1
_symmetry_cell_setting            triclinic
loop_
_symmetry_equiv_pos_as_xyz
'x, y, z'
_cell_length_a     38.996424
_cell_length_b     39.021239
_cell_length_c     117.80001
_cell_angle_alpha  89.99646
_cell_angle_beta   90.00341
_cell_angle_gamma 119.98903
loop_
_atom_site_label
_atom_site_type_symbol
_atom_site_fract_x
_atom_site_fract_y
_atom_site_fract_z
_atom_type_partial_charge
Co0 Co 0.28737 0.62049 0.0811 0.0
Co1 Co 0.25926 0.52566 0.08988 0.0
O2 O 0.28939 0.57165 0.08022 0.0
C3 C 0.26567 0.59256 0.05772 0.0
O4 O 0.24025 0.55841 0.06225 0.0
C5 C 0.34203 0.54653 0.09301 0.0
O6 O 0.34982 0.58307 0.09449 0.0
O7 O 0.27639 0.5592 0.10367 0.0
O8 O 0.28752 0.6191 0.0981 0.0
H9 H 0.16699 0.44887 0.12175 0.0
H10 H 0.34928 0.61765 0.06715 0.0
O11 O 0.28704 0.62208 0.06409 0.0
H12 H 0.42181 0.72153 0.09574 0.0
H13 H 0.32451 0.75811 0.06862 0.0
H14 H 0.24375 0.64928 0.09511 0.0
H15 H 0.3488 0.68564 0.09524 0.0
H16 H 0.32678 0.69605 0.0681 0.0
O17 O 0.3067 0.51908 0.0911 0.0
H18 H 0.20418 0.50672 0.10927 0.0
H19 H 0.25259 0.44632 0.09134 0.0
H20 H 0.24082 0.71094 0.096 0.0
H21 H 0.42228 0.653 0.0673 0.0
H22 H 0.28141 0.76589 0.08268 0.0
H23 H 0.45903 0.70527 0.0817 0.0
O24 O 0.22851 0.59074 0.08114 0.0
H25 H 0.27952 0.47949 0.05196 0.0
H26 H 0.18135 0.46238 0.08109 0.0
H27 H 0.1591 0.42238 0.06359 0.0
H28 H 0.20836 0.43085 0.04888 0.0
H29 H 0.30044 0.51905 0.06955 0.0
H30 H 0.21617 0.3879 0.10367 0.0
H31 H 0.17287 0.3889 0.11898 0.0
O32 O 0.21148 0.53163 0.0889 0.0
C33 C 0.28451 0.59454 0.10576 0.0
C34 C 0.18561 0.448 0.11508 0.0
C35 C 0.21326 0.4138 0.10494 0.0
N36 N 0.23011 0.47968 0.0995 0.0
C37 C 0.20661 0.4806 0.10796 0.0
C38 C 0.23384 0.44697 0.09799 0.0
C39 C 0.18897 0.41438 0.11353 0.0
C40 C 0.36506 0.64065 0.07337 0.0
N41 N 0.3448 0.64972 0.08114 0.0
C42 C 0.4064 0.66044 0.07344 0.0
C43 C 0.427 0.68972 0.08153 0.0
C44 C 0.40613 0.69884 0.08942 0.0
C45 C 0.36479 0.67838 0.08911 0.0
C46 C 0.30675 0.73442 0.07448 0.0
C47 C 0.26169 0.67317 0.08934 0.0
C48 C 0.30786 0.6992 0.07421 0.0
N49 N 0.28568 0.66926 0.08164 0.0
C50 C 0.25982 0.70796 0.08986 0.0
C51 C 0.28257 0.73876 0.08238 0.0
C52 C 0.20296 0.55698 0.08502 0.0
C53 C 0.25779 0.47542 0.05833 0.0
C54 C 0.20296 0.46621 0.07473 0.0
C55 C 0.1902 0.44344 0.06485 0.0
C56 C 0.21786 0.44819 0.0566 0.0
N57 N 0.24219 0.49286 0.07637 0.0
C58 C 0.26949 0.49761 0.06833 0.0
Co59 Co 0.66846 0.28802 0.41457 0.0
Co60 Co 0.73721 0.26154 0.42266 0.0
O61 O 0.72012 0.29173 0.41345 0.0
C62 C 0.67493 0.26802 0.39101 0.0
O63 O 0.68536 0.24356 0.39531 0.0
C64 C 0.79724 0.34462 0.42663 0.0
O65 O 0.76786 0.35147 0.42815 0.0
O66 O 0.71918 0.27561 0.43676 0.0
O67 O 0.6706 0.28756 0.43153 0.0
H68 H 0.72332 0.16523 0.4531 0.0
H69 H 0.73184 0.35144 0.40065 0.0
O70 O 0.6659 0.28829 0.39757 0.0
H71 H 0.69853 0.4207 0.42983 0.0
H72 H 0.56479 0.32187 0.40287 0.0
H73 H 0.59674 0.2423 0.42871 0.0
H74 H 0.66317 0.34777 0.4291 0.0
H75 H 0.63007 0.32619 0.40202 0.0
O76 O 0.7903 0.30981 0.42439 0.0
H77 H 0.70137 0.20273 0.44121 0.0
H78 H 0.81169 0.25796 0.42391 0.0
H79 H 0.53122 0.2373 0.42992 0.0
H80 H 0.76775 0.4244 0.40102 0.0
H81 H 0.51491 0.27729 0.41693 0.0
H82 H 0.75123 0.4595 0.41571 0.0
O83 O 0.6406 0.22917 0.41443 0.0
H84 H 0.80569 0.2898 0.38485 0.0
H85 H 0.72626 0.18617 0.41287 0.0
H86 H 0.74613 0.16784 0.39503 0.0
H87 H 0.78611 0.21986 0.38087 0.0
H88 H 0.78498 0.3068 0.40276 0.0
H89 H 0.83497 0.22128 0.43567 0.0
H90 H 0.79057 0.1744 0.45036 0.0
O91 O 0.68455 0.21288 0.42111 0.0
C92 C 0.69195 0.28359 0.43905 0.0
C93 C 0.74289 0.18546 0.4467 0.0
C94 C 0.80557 0.21696 0.43693 0.0
N95 N 0.7551 0.23221 0.43182 0.0
C96 C 0.73058 0.20668 0.43993 0.0
C97 C 0.79226 0.23769 0.43031 0.0
C98 C 0.78064 0.19065 0.44517 0.0
C99 C 0.7242 0.3665 0.40699 0.0
N100 N 0.69529 0.34537 0.4148 0.0
C101 C 0.74476 0.40782 0.40719 0.0
C102 C 0.73552 0.42749 0.41545 0.0
C103 C 0.70597 0.40574 0.42338 0.0
C104 C 0.68609 0.36445 0.42293 0.0
C105 C 0.57158 0.30437 0.40859 0.0
C106 C 0.58993 0.25998 0.42308 0.0
C107 C 0.60845 0.30663 0.40813 0.0
N108 N 0.61728 0.28477 0.41538 0.0
C109 C 0.55275 0.25694 0.42378 0.0
C110 C 0.54361 0.27935 0.41649 0.0
C111 C 0.65007 0.20376 0.41764 0.0
C112 C 0.78839 0.26689 0.39097 0.0
C113 C 0.74368 0.20898 0.40675 0.0
C114 C 0.75488 0.19843 0.39667 0.0
C115 C 0.77734 0.22763 0.38873 0.0
N116 N 0.75463 0.24755 0.40888 0.0
C117 C 0.77673 0.27636 0.40115 0.0
Co118 Co 0.37756 0.66736 0.74785 0.0
Co119 Co 0.47357 0.73625 0.75524 0.0
O120 O 0.42555 0.71873 0.74635 0.0
C121 C 0.40275 0.67178 0.72424 0.0
O122 O 0.43785 0.6825 0.72844 0.0
C123 C 0.45004 0.79566 0.75946 0.0
O124 O 0.41408 0.76598 0.76111 0.0
O125 O 0.44268 0.71856 0.76956 0.0
O126 O 0.38116 0.67097 0.76478 0.0
H127 H 0.55902 0.72369 0.78498 0.0
H128 H 0.37707 0.72971 0.73354 0.0
O129 O 0.3738 0.66337 0.73088 0.0
H130 H 0.27628 0.69948 0.76309 0.0
H131 H 0.23922 0.5633 0.73701 0.0
H132 H 0.35205 0.59688 0.7625 0.0
H133 H 0.31346 0.66367 0.7625 0.0
H134 H 0.30032 0.62826 0.73566 0.0
O135 O 0.47811 0.78921 0.75702 0.0
H136 H 0.49846 0.70117 0.77354 0.0
H137 H 0.55142 0.81098 0.75603 0.0
H138 H 0.29142 0.53171 0.76421 0.0
H139 H 0.34038 0.76603 0.73377 0.0
H140 H 0.23446 0.51458 0.75141 0.0
H141 H 0.28966 0.75107 0.74864 0.0
O142 O 0.40833 0.63924 0.74785 0.0
H143 H 0.5103 0.80353 0.71722 0.0
H144 H 0.53741 0.72536 0.74496 0.0
H145 H 0.57407 0.74476 0.72685 0.0
H146 H 0.56055 0.7841 0.71283 0.0
H147 H 0.47415 0.7833 0.7354 0.0
H148 H 0.61245 0.83484 0.76734 0.0
H149 H 0.61655 0.79098 0.7819 0.0
O150 O 0.46968 0.68368 0.75367 0.0
C151 C 0.40739 0.69218 0.77211 0.0
C152 C 0.55764 0.74302 0.77863 0.0
C153 C 0.58761 0.80543 0.76874 0.0
N154 N 0.52158 0.75461 0.76407 0.0
C155 C 0.52348 0.73039 0.77211 0.0
C156 C 0.55297 0.79179 0.76238 0.0
C157 C 0.5899 0.7808 0.77691 0.0
C158 C 0.35475 0.72274 0.73997 0.0
N159 N 0.34725 0.69444 0.74796 0.0
C160 C 0.33419 0.74352 0.74008 0.0
C161 C 0.30578 0.73516 0.74844 0.0
C162 C 0.29828 0.70623 0.75655 0.0
C163 C 0.31946 0.68609 0.75619 0.0
C164 C 0.2638 0.57045 0.74266 0.0
C165 C 0.32728 0.58972 0.75695 0.0
C166 C 0.29848 0.60714 0.74191 0.0
N167 N 0.32954 0.61643 0.74906 0.0
C168 C 0.29308 0.55273 0.75793 0.0
C169 C 0.26115 0.54313 0.75074 0.0
C170 C 0.44364 0.64887 0.75064 0.0
C171 C 0.51654 0.78651 0.72327 0.0
C172 C 0.53139 0.74251 0.7389 0.0
C173 C 0.55227 0.75345 0.72867 0.0
C174 C 0.54469 0.77554 0.72081 0.0
N175 N 0.50382 0.75337 0.74126 0.0
C176 C 0.4963 0.77512 0.7336 0.0
Co177 Co 0.70611 0.37686 0.08098 0.0
Co178 Co 0.73429 0.47064 0.09078 0.0
O179 O 0.7045 0.42598 0.08063 0.0
C180 C 0.72949 0.40752 0.05788 0.0
O181 O 0.75429 0.44129 0.06271 0.0
C182 C 0.65146 0.44983 0.09376 0.0
O183 O 0.64332 0.41302 0.0948 0.0
O184 O 0.71628 0.43534 0.10422 0.0
O185 O 0.70482 0.37603 0.09797 0.0
H186 H 0.82522 0.543 0.12334 0.0
H187 H 0.64541 0.38193 0.06705 0.0
O188 O 0.70763 0.37735 0.06397 0.0
H189 H 0.57049 0.27459 0.09452 0.0
H190 H 0.66902 0.24067 0.06709 0.0
H191 H 0.74854 0.34596 0.09468 0.0
H192 H 0.64351 0.31012 0.09442 0.0
H193 H 0.66716 0.30296 0.06721 0.0
O194 O 0.68697 0.47736 0.09215 0.0
H195 H 0.78842 0.48684 0.11027 0.0
H196 H 0.74123 0.54989 0.09316 0.0
H197 H 0.75105 0.28402 0.09493 0.0
H198 H 0.57241 0.34699 0.06681 0.0
H199 H 0.71108 0.23085 0.08106 0.0
H200 H 0.53446 0.29298 0.08064 0.0
O201 O 0.76495 0.40628 0.08132 0.0
H202 H 0.71634 0.52213 0.05347 0.0
H203 H 0.8128 0.53477 0.08262 0.0
H204 H 0.83611 0.57708 0.06557 0.0
H205 H 0.78772 0.57088 0.05085 0.0
H206 H 0.69433 0.48022 0.07061 0.0
H207 H 0.77725 0.60664 0.10609 0.0
H208 H 0.81975 0.60345 0.12129 0.0
O209 O 0.78197 0.46455 0.08965 0.0
C210 C 0.70766 0.39963 0.10591 0.0
C211 C 0.80694 0.54482 0.11672 0.0
C212 C 0.77998 0.58051 0.10705 0.0
N213 N 0.76311 0.5153 0.10089 0.0
C214 C 0.78617 0.51318 0.10927 0.0
C215 C 0.75962 0.54829 0.09976 0.0
C216 C 0.80382 0.5787 0.11557 0.0
C217 C 0.6291 0.35818 0.07302 0.0
N218 N 0.64869 0.34794 0.0807 0.0
C219 C 0.58777 0.33862 0.07287 0.0
C220 C 0.5665 0.30836 0.08065 0.0
C221 C 0.5867 0.29805 0.08845 0.0
C222 C 0.62804 0.31831 0.08836 0.0
C223 C 0.68651 0.26358 0.07319 0.0
C224 C 0.73087 0.32284 0.08867 0.0
C225 C 0.68563 0.29892 0.07329 0.0
N226 N 0.70746 0.32787 0.08101 0.0
C227 C 0.7325 0.28789 0.08883 0.0
C228 C 0.7101 0.25808 0.08104 0.0
C229 C 0.79047 0.43954 0.0855 0.0
C230 C 0.73769 0.52521 0.05985 0.0
C231 C 0.79155 0.53191 0.07625 0.0
C232 C 0.80493 0.55598 0.06663 0.0
C233 C 0.77775 0.55251 0.05837 0.0
N234 N 0.75221 0.5052 0.07764 0.0
C235 C 0.72538 0.50169 0.0696 0.0
Co236 Co 0.32922 0.70815 0.41453 0.0
Co237 Co 0.26404 0.73846 0.42332 0.0
O238 O 0.27869 0.70702 0.41378 0.0
C239 C 0.32286 0.72978 0.39114 0.0
O240 O 0.3139 0.75508 0.39563 0.0
C241 C 0.20204 0.65625 0.42731 0.0
O242 O 0.23068 0.64813 0.42854 0.0
O243 O 0.28183 0.72287 0.4372 0.0
O244 O 0.32803 0.70812 0.43149 0.0
H245 H 0.2841 0.83563 0.45418 0.0
H246 H 0.26359 0.64692 0.40069 0.0
O247 O 0.33091 0.70838 0.39753 0.0
H248 H 0.2939 0.57322 0.42916 0.0
H249 H 0.42783 0.66862 0.40185 0.0
H250 H 0.4021 0.75091 0.42841 0.0
H251 H 0.33207 0.64615 0.42862 0.0
H252 H 0.36402 0.66754 0.40146 0.0
O253 O 0.21006 0.69149 0.42521 0.0
H254 H 0.30297 0.79649 0.44191 0.0
H255 H 0.19163 0.74554 0.42523 0.0
H256 H 0.46619 0.75268 0.42916 0.0
H257 H 0.22487 0.57399 0.40087 0.0
H258 H 0.47937 0.71131 0.41581 0.0
H259 H 0.23986 0.53666 0.41522 0.0
O260 O 0.3593 0.76703 0.41456 0.0
H261 H 0.19353 0.71382 0.38593 0.0
H262 H 0.27778 0.81529 0.4139 0.0
H263 H 0.25819 0.83548 0.39634 0.0
H264 H 0.21578 0.78456 0.38221 0.0
H265 H 0.21402 0.69496 0.40357 0.0
H266 H 0.17141 0.78389 0.43738 0.0
H267 H 0.21789 0.82944 0.45195 0.0
O268 O 0.31765 0.78575 0.42164 0.0
C269 C 0.308 0.71317 0.43922 0.0
C270 C 0.26364 0.81599 0.44784 0.0
C271 C 0.20037 0.7869 0.43842 0.0
N272 N 0.24856 0.76906 0.4328 0.0
C273 C 0.2742 0.79385 0.44085 0.0
C274 C 0.21195 0.76522 0.43158 0.0
C275 C 0.22647 0.81247 0.44659 0.0
C276 C 0.27057 0.63087 0.40688 0.0
N277 N 0.3002 0.65076 0.41459 0.0
C278 C 0.24842 0.58958 0.40697 0.0
C279 C 0.25681 0.56866 0.41503 0.0
C280 C 0.28711 0.58916 0.42287 0.0
C281 C 0.30858 0.63045 0.42253 0.0
C282 C 0.42241 0.68671 0.40773 0.0
C283 C 0.40754 0.73264 0.42262 0.0
C284 C 0.38637 0.68627 0.40753 0.0
N285 N 0.37926 0.70888 0.41497 0.0
C286 C 0.44392 0.73385 0.42306 0.0
C287 C 0.45131 0.71066 0.41557 0.0
C288 C 0.35152 0.79343 0.41798 0.0
C289 C 0.2119 0.73627 0.39204 0.0
C290 C 0.25931 0.79295 0.40779 0.0
C291 C 0.24827 0.80456 0.39787 0.0
C292 C 0.22445 0.77597 0.38995 0.0
N293 N 0.24688 0.75395 0.40978 0.0
C294 C 0.22345 0.72574 0.40207 0.0
Co295 Co 0.6164 0.32681 0.74785 0.0
Co296 Co 0.51989 0.26069 0.75559 0.0
O297 O 0.56721 0.27636 0.74653 0.0
C298 C 0.59032 0.32283 0.72434 0.0
O299 O 0.55573 0.31336 0.7287 0.0
C300 C 0.54054 0.19913 0.75977 0.0
O301 O 0.57711 0.22789 0.76122 0.0
O302 O 0.55152 0.27786 0.7698 0.0
O303 O 0.61356 0.32357 0.76479 0.0
H304 H 0.43822 0.27796 0.78561 0.0
H305 H 0.61356 0.26294 0.73349 0.0
O306 O 0.61937 0.33042 0.73086 0.0
H307 H 0.71493 0.29009 0.7626 0.0
H308 H 0.75554 0.42699 0.73645 0.0
H309 H 0.64508 0.39791 0.76243 0.0
H310 H 0.67997 0.32812 0.76222 0.0
H311 H 0.69297 0.36325 0.73533 0.0
O312 O 0.51328 0.20691 0.75744 0.0
H313 H 0.49785 0.29808 0.77394 0.0
H314 H 0.44063 0.18772 0.75672 0.0
H315 H 0.70722 0.46189 0.76391 0.0
H316 H 0.648 0.2244 0.73352 0.0
H317 H 0.76299 0.47675 0.75086 0.0
H318 H 0.699 0.23781 0.74818 0.0
O319 O 0.58752 0.35684 0.74802 0.0
H320 H 0.47956 0.19262 0.71774 0.0
H321 H 0.45725 0.27397 0.74553 0.0
H322 H 0.41977 0.25519 0.72756 0.0
H323 H 0.43087 0.21425 0.71351 0.0
H324 H 0.51658 0.21228 0.73578 0.0
H325 H 0.38048 0.16625 0.76826 0.0
H326 H 0.37899 0.2116 0.78279 0.0
O327 O 0.5258 0.3141 0.75396 0.0
C328 C 0.5873 0.30326 0.77222 0.0
C329 C 0.43846 0.25799 0.77927 0.0
C330 C 0.40607 0.19527 0.76955 0.0
N331 N 0.47256 0.24423 0.7646 0.0
C332 C 0.47209 0.26926 0.77262 0.0
C333 C 0.44022 0.20755 0.76305 0.0
C334 C 0.40525 0.22074 0.7777 0.0
C335 C 0.63601 0.26923 0.73983 0.0
N336 N 0.64492 0.29791 0.7478 0.0
C337 C 0.65529 0.24719 0.73983 0.0
C338 C 0.68386 0.25469 0.74807 0.0
C339 C 0.69279 0.28401 0.75617 0.0
C340 C 0.67286 0.30541 0.75592 0.0
C341 C 0.73149 0.42082 0.7422 0.0
C342 C 0.66932 0.40408 0.75677 0.0
C343 C 0.69598 0.38483 0.74159 0.0
N344 N 0.66558 0.37678 0.74887 0.0
C345 C 0.70438 0.44039 0.75763 0.0
C346 C 0.73565 0.44873 0.75029 0.0
C347 C 0.55266 0.34851 0.7509 0.0
C348 C 0.47438 0.21036 0.72381 0.0
C349 C 0.46223 0.25614 0.73946 0.0
C350 C 0.44088 0.24555 0.72931 0.0
C351 C 0.4471 0.22256 0.72143 0.0
N352 N 0.48894 0.24407 0.74173 0.0
C353 C 0.49512 0.22143 0.73406 0.0
Co354 Co 0.37568 0.70809 0.58091 0.0
Co355 Co 0.47178 0.73666 0.57322 0.0
O356 O 0.42423 0.70557 0.58225 0.0
C357 C 0.40071 0.72783 0.60457 0.0
O358 O 0.43555 0.7533 0.60043 0.0
C359 C 0.45071 0.65415 0.56924 0.0
O360 O 0.41429 0.64659 0.56759 0.0
O361 O 0.4403 0.72205 0.559 0.0
O362 O 0.3792 0.70902 0.56397 0.0
H363 H 0.55423 0.83405 0.543 0.0
H364 H 0.37643 0.64508 0.59484 0.0
O365 O 0.37194 0.70726 0.59788 0.0
H366 H 0.2758 0.57495 0.56523 0.0
H367 H 0.23672 0.67101 0.592 0.0
H368 H 0.349 0.75296 0.56664 0.0
H369 H 0.31206 0.64787 0.56611 0.0
H370 H 0.29847 0.66822 0.59312 0.0
O371 O 0.47799 0.68914 0.5716 0.0
H372 H 0.49442 0.79542 0.55467 0.0
H373 H 0.5508 0.74223 0.57234 0.0
H374 H 0.28771 0.75645 0.56516 0.0
H375 H 0.34065 0.57214 0.59433 0.0
H376 H 0.23103 0.71526 0.5779 0.0
H377 H 0.29001 0.53659 0.57942 0.0
O378 O 0.40562 0.76696 0.58116 0.0
H379 H 0.51129 0.70952 0.6113 0.0
H380 H 0.5346 0.81262 0.58319 0.0
H381 H 0.57188 0.83157 0.60119 0.0
H382 H 0.56028 0.77981 0.6154 0.0
H383 H 0.47448 0.6919 0.59321 0.0
H384 H 0.61113 0.78006 0.56081 0.0
H385 H 0.61313 0.82648 0.54604 0.0
O386 O 0.4664 0.78458 0.57465 0.0
C387 C 0.40502 0.71349 0.55655 0.0
C388 C 0.55377 0.81403 0.54943 0.0
C389 C 0.58569 0.78369 0.55942 0.0
N390 N 0.51928 0.7669 0.56424 0.0
C391 C 0.52004 0.79217 0.55609 0.0
C392 C 0.55143 0.7623 0.56591 0.0
C393 C 0.58679 0.80973 0.55114 0.0
C394 C 0.35414 0.62982 0.5884 0.0
N395 N 0.34618 0.65071 0.58056 0.0
C396 C 0.33411 0.58852 0.58812 0.0
C397 C 0.30574 0.5686 0.57974 0.0
C398 C 0.29777 0.5901 0.57178 0.0
C399 C 0.31844 0.63139 0.5723 0.0
C400 C 0.26118 0.68904 0.58638 0.0
C401 C 0.32436 0.73476 0.57216 0.0
C402 C 0.29623 0.68763 0.58699 0.0
N403 N 0.32714 0.71015 0.57988 0.0
C404 C 0.28978 0.73695 0.57131 0.0
C405 C 0.258 0.71386 0.57847 0.0
C406 C 0.44037 0.79293 0.57802 0.0
C407 C 0.5167 0.73232 0.60516 0.0
C408 C 0.52941 0.78993 0.58932 0.0
C409 C 0.55065 0.80083 0.59949 0.0
C410 C 0.54414 0.77177 0.60746 0.0
N411 N 0.50254 0.75116 0.58713 0.0
C412 C 0.49608 0.7225 0.59488 0.0
Co413 Co 0.67054 0.38029 0.91409 0.0
Co414 Co 0.73552 0.47413 0.9042 0.0
O415 O 0.72152 0.42916 0.91415 0.0
C416 C 0.68112 0.41018 0.93739 0.0
O417 O 0.68984 0.44425 0.93281 0.0
C418 C 0.79666 0.45267 0.90016 0.0
O419 O 0.76757 0.41608 0.89908 0.0
O420 O 0.71634 0.43915 0.89069 0.0
O421 O 0.66884 0.37994 0.89711 0.0
H422 H 0.71373 0.54783 0.87265 0.0
H423 H 0.73784 0.38444 0.927 0.0
O424 O 0.67168 0.3802 0.93109 0.0
H425 H 0.70094 0.27767 0.899 0.0
H426 H 0.57236 0.24393 0.9281 0.0
H427 H 0.59559 0.35034 0.90123 0.0
H428 H 0.66398 0.31362 0.90007 0.0
H429 H 0.63677 0.30593 0.92763 0.0
O430 O 0.78925 0.48041 0.90213 0.0
H431 H 0.69552 0.49127 0.88547 0.0
H432 H 0.808 0.55308 0.90147 0.0
H433 H 0.53085 0.2887 0.90134 0.0
H434 H 0.77543 0.34907 0.92627 0.0
H435 H 0.51893 0.23497 0.91485 0.0
H436 H 0.75711 0.29535 0.91217 0.0
O437 O 0.64159 0.41017 0.91452 0.0
H438 H 0.80959 0.52434 0.94093 0.0
H439 H 0.72286 0.53848 0.91314 0.0
H440 H 0.74422 0.58041 0.93028 0.0
H441 H 0.78789 0.57345 0.94432 0.0
H442 H 0.7873 0.48282 0.92372 0.0
H443 H 0.82759 0.61021 0.88877 0.0
H444 H 0.7802 0.60785 0.87426 0.0
O445 O 0.68205 0.46846 0.90607 0.0
C446 C 0.68878 0.40358 0.88909 0.0
C447 C 0.73458 0.54929 0.87897 0.0
C448 C 0.7985 0.58428 0.88801 0.0
N449 N 0.7505 0.51909 0.89428 0.0
C450 C 0.72437 0.51742 0.88628 0.0
C451 C 0.78727 0.55183 0.89516 0.0
C452 C 0.77189 0.58293 0.87987 0.0
C453 C 0.72943 0.36082 0.92092 0.0
N454 N 0.69862 0.35097 0.91363 0.0
C455 C 0.75093 0.34101 0.92051 0.0
C456 C 0.74068 0.31091 0.91259 0.0
C457 C 0.70918 0.301 0.90519 0.0
C458 C 0.6884 0.3215 0.90582 0.0
C459 C 0.57722 0.26709 0.92216 0.0
C460 C 0.59068 0.32698 0.90708 0.0
C461 C 0.61359 0.30228 0.92187 0.0
N462 N 0.61999 0.33154 0.91434 0.0
C463 C 0.55394 0.2922 0.90713 0.0
C464 C 0.54726 0.26208 0.91472 0.0
C465 C 0.64903 0.44359 0.91054 0.0
C466 C 0.79068 0.52774 0.93486 0.0
C467 C 0.74187 0.53528 0.91921 0.0
C468 C 0.75392 0.55915 0.92889 0.0
C469 C 0.77844 0.55525 0.93676 0.0
N470 N 0.75401 0.50838 0.9174 0.0
C471 C 0.77812 0.50445 0.92507 0.0
Co472 Co 0.28611 0.66686 0.24767 0.0
Co473 Co 0.25986 0.73559 0.23941 0.0
O474 O 0.28993 0.71853 0.24868 0.0
C475 C 0.26606 0.67393 0.27117 0.0
O476 O 0.24151 0.68416 0.26681 0.0
C477 C 0.34306 0.79476 0.23531 0.0
O478 O 0.34935 0.76499 0.23387 0.0
O479 O 0.2736 0.717 0.22536 0.0
O480 O 0.28587 0.66878 0.23071 0.0
H481 H 0.16333 0.72148 0.20899 0.0
H482 H 0.34952 0.7304 0.26155 0.0
O483 O 0.28623 0.66462 0.26467 0.0
H484 H 0.41892 0.69636 0.2326 0.0
H485 H 0.31949 0.56319 0.25967 0.0
H486 H 0.24043 0.59502 0.23358 0.0
H487 H 0.34595 0.66112 0.23328 0.0
H488 H 0.32396 0.62851 0.26039 0.0
O489 O 0.30843 0.78841 0.23755 0.0
H490 H 0.2007 0.69953 0.22093 0.0
H491 H 0.25693 0.81033 0.23794 0.0
H492 H 0.23528 0.52946 0.23251 0.0
H493 H 0.42253 0.76619 0.26122 0.0
H494 H 0.27501 0.51321 0.24562 0.0
H495 H 0.4577 0.74931 0.24664 0.0
O496 O 0.22722 0.63916 0.24775 0.0
H497 H 0.28892 0.80511 0.27706 0.0
H498 H 0.18475 0.72543 0.24919 0.0
H499 H 0.16679 0.74595 0.26698 0.0
H500 H 0.21908 0.78606 0.28106 0.0
H501 H 0.30555 0.78376 0.25919 0.0
H502 H 0.2204 0.83361 0.22612 0.0
H503 H 0.17308 0.78898 0.21155 0.0
O504 O 0.211 0.68315 0.24107 0.0
C505 C 0.28177 0.68988 0.22313 0.0
C506 C 0.18375 0.74115 0.21533 0.0
C507 C 0.21582 0.80411 0.22494 0.0
N508 N 0.23067 0.75349 0.23019 0.0
C509 C 0.2049 0.72884 0.22214 0.0
C510 C 0.23647 0.79079 0.23159 0.0
C511 C 0.18927 0.77904 0.21677 0.0
C512 C 0.36461 0.72259 0.25526 0.0
N513 N 0.34349 0.69354 0.24749 0.0
C514 C 0.40596 0.74309 0.25508 0.0
C515 C 0.42567 0.73364 0.24689 0.0
C516 C 0.40393 0.70395 0.239 0.0
C517 C 0.36262 0.68414 0.23942 0.0
C518 C 0.30209 0.56995 0.2539 0.0
C519 C 0.258 0.58824 0.23926 0.0
C520 C 0.30444 0.60684 0.25428 0.0
N521 N 0.28272 0.61563 0.24697 0.0
C522 C 0.25487 0.55103 0.23864 0.0
C523 C 0.27714 0.54192 0.24601 0.0
C524 C 0.20184 0.64868 0.24455 0.0
C525 C 0.2659 0.78776 0.27097 0.0
C526 C 0.20768 0.74291 0.25527 0.0
C527 C 0.19733 0.75448 0.26532 0.0
C528 C 0.22669 0.77701 0.27322 0.0
N529 N 0.2462 0.75357 0.25313 0.0
C530 C 0.27516 0.77574 0.26082 0.0
Co531 Co 0.61889 0.28848 0.58087 0.0
Co532 Co 0.52394 0.26081 0.57218 0.0
O533 O 0.5704 0.29132 0.58167 0.0
C534 C 0.59143 0.26846 0.60436 0.0
O535 O 0.55683 0.24341 0.59999 0.0
C536 C 0.54568 0.34364 0.5684 0.0
O537 O 0.58224 0.35127 0.56705 0.0
O538 O 0.55711 0.27601 0.55827 0.0
O539 O 0.61724 0.28793 0.56391 0.0
H540 H 0.44493 0.165 0.54124 0.0
H541 H 0.61708 0.35143 0.59455 0.0
O542 O 0.62085 0.28894 0.59787 0.0
H543 H 0.72102 0.42169 0.56578 0.0
H544 H 0.75635 0.32443 0.59329 0.0
H545 H 0.64661 0.2435 0.56706 0.0
H546 H 0.68432 0.34876 0.56654 0.0
H547 H 0.69478 0.3277 0.59375 0.0
O548 O 0.51812 0.30851 0.57045 0.0
H549 H 0.50334 0.20291 0.55348 0.0
H550 H 0.44521 0.25562 0.57047 0.0
H551 H 0.70776 0.23955 0.56625 0.0
H552 H 0.65325 0.42439 0.59414 0.0
H553 H 0.76317 0.28022 0.57943 0.0
H554 H 0.70556 0.46 0.57966 0.0
O555 O 0.58856 0.22961 0.58103 0.0
H556 H 0.47991 0.28631 0.60976 0.0
H557 H 0.45976 0.18447 0.58156 0.0
H558 H 0.42024 0.16477 0.59917 0.0
H559 H 0.43023 0.21588 0.61342 0.0
H560 H 0.51897 0.30468 0.59208 0.0
H561 H 0.38627 0.21851 0.55836 0.0
H562 H 0.38585 0.1727 0.54365 0.0
O563 O 0.52892 0.2127 0.57373 0.0
C564 C 0.59252 0.28416 0.55621 0.0
C565 C 0.4447 0.18476 0.54764 0.0
C566 C 0.4118 0.21484 0.55724 0.0
N567 N 0.47752 0.23116 0.56274 0.0
C568 C 0.47764 0.20621 0.55462 0.0
C569 C 0.44527 0.23582 0.56406 0.0
C570 C 0.41158 0.18913 0.54899 0.0
C571 C 0.64009 0.36671 0.58829 0.0
N572 N 0.64873 0.34586 0.58062 0.0
C573 C 0.66035 0.40803 0.58807 0.0
C574 C 0.68965 0.42799 0.57993 0.0
C575 C 0.69832 0.40651 0.57214 0.0
C576 C 0.6774 0.36522 0.5726 0.0
C577 C 0.73245 0.30663 0.58749 0.0
C578 C 0.6707 0.26147 0.57277 0.0
C579 C 0.6975 0.3083 0.58772 0.0
N580 N 0.66731 0.28606 0.58037 0.0
C581 C 0.7052 0.25902 0.5723 0.0
C582 C 0.73626 0.28183 0.57971 0.0
C583 C 0.55421 0.20395 0.57752 0.0
C584 C 0.47519 0.26379 0.6036 0.0
C585 C 0.46427 0.20689 0.58772 0.0
C586 C 0.44176 0.19556 0.59767 0.0
C587 C 0.44736 0.22425 0.60565 0.0
N588 N 0.49151 0.24572 0.58577 0.0
C589 C 0.49709 0.27404 0.59355 0.0
Co590 Co 0.32845 0.61861 0.91423 0.0
Co591 Co 0.26342 0.52439 0.90458 0.0
O592 O 0.27755 0.56961 0.91445 0.0
C593 C 0.31897 0.5893 0.93757 0.0
O594 O 0.31001 0.55512 0.93302 0.0
C595 C 0.20187 0.54537 0.90057 0.0
O596 O 0.23076 0.58207 0.8995 0.0
O597 O 0.28215 0.55901 0.891 0.0
O598 O 0.32952 0.61855 0.89725 0.0
H599 H 0.28471 0.45013 0.8731 0.0
H600 H 0.26155 0.61452 0.92734 0.0
O601 O 0.328 0.61911 0.93123 0.0
H602 H 0.297 0.72054 0.89917 0.0
H603 H 0.42678 0.75543 0.92789 0.0
H604 H 0.40295 0.64851 0.90114 0.0
H605 H 0.33419 0.6848 0.90014 0.0
H606 H 0.36248 0.69328 0.92763 0.0
O607 O 0.20957 0.51784 0.90257 0.0
H608 H 0.30307 0.50697 0.88581 0.0
H609 H 0.19105 0.44522 0.90207 0.0
H610 H 0.46757 0.71029 0.90104 0.0
H611 H 0.22376 0.6497 0.92671 0.0
H612 H 0.47978 0.76427 0.91449 0.0
H613 H 0.24135 0.70304 0.91252 0.0
O614 O 0.35764 0.58895 0.9146 0.0
H615 H 0.19027 0.47495 0.94147 0.0
H616 H 0.27656 0.46044 0.91361 0.0
H617 H 0.25571 0.41895 0.93084 0.0
H618 H 0.21227 0.42609 0.94491 0.0
H619 H 0.21205 0.51604 0.92417 0.0
H620 H 0.17132 0.38782 0.88948 0.0
H621 H 0.2184 0.39001 0.8749 0.0
O622 O 0.31699 0.53029 0.90637 0.0
C623 C 0.30947 0.59462 0.88929 0.0
C624 C 0.264 0.44875 0.87945 0.0
C625 C 0.20034 0.4138 0.88863 0.0
N626 N 0.24834 0.47921 0.89475 0.0
C627 C 0.27429 0.48078 0.8867 0.0
C628 C 0.21165 0.4464 0.89573 0.0
C629 C 0.22677 0.41504 0.88046 0.0
C630 C 0.26965 0.63798 0.92122 0.0
N631 N 0.30017 0.64773 0.91383 0.0
C632 C 0.24803 0.65767 0.92087 0.0
C633 C 0.25787 0.68756 0.9129 0.0
C634 C 0.28908 0.69738 0.9054 0.0
C635 C 0.30999 0.67699 0.90598 0.0
C636 C 0.42178 0.73215 0.92197 0.0
C637 C 0.40799 0.67198 0.90696 0.0
C638 C 0.38548 0.69688 0.9218 0.0
N639 N 0.37891 0.66748 0.91431 0.0
C640 C 0.44466 0.70684 0.90689 0.0
C641 C 0.45151 0.7371 0.91445 0.0
C642 C 0.35016 0.55542 0.9107 0.0
C643 C 0.20909 0.47147 0.93538 0.0
C644 C 0.25765 0.46372 0.9197 0.0
C645 C 0.24589 0.4401 0.92943 0.0
C646 C 0.2215 0.44411 0.93732 0.0
N647 N 0.24535 0.49049 0.91786 0.0
C648 C 0.22136 0.49452 0.92555 0.0
Co649 Co 0.70617 0.32688 0.24734 0.0
Co650 Co 0.73716 0.26131 0.23956 0.0
O651 O 0.70524 0.2766 0.24864 0.0
C652 C 0.72734 0.32243 0.2709 0.0
O653 O 0.7532 0.31383 0.26662 0.0
C654 C 0.65515 0.1989 0.23554 0.0
O655 O 0.64694 0.22734 0.234 0.0
O656 O 0.72195 0.27778 0.22538 0.0
O657 O 0.70649 0.32412 0.23038 0.0
H658 H 0.8355 0.27901 0.20931 0.0
H659 H 0.64473 0.26239 0.26145 0.0
O660 O 0.70598 0.32994 0.26433 0.0
H661 H 0.57134 0.28978 0.23213 0.0
H662 H 0.66588 0.4261 0.25868 0.0
H663 H 0.74889 0.39843 0.23295 0.0
H664 H 0.6443 0.32815 0.23277 0.0
H665 H 0.66508 0.36254 0.25975 0.0
O666 O 0.69034 0.20715 0.23787 0.0
H667 H 0.7958 0.29874 0.22103 0.0
H668 H 0.74462 0.18901 0.23856 0.0
H669 H 0.75037 0.46225 0.23151 0.0
H670 H 0.57177 0.22351 0.26117 0.0
H671 H 0.70864 0.47639 0.24444 0.0
H672 H 0.53459 0.23703 0.24641 0.0
O673 O 0.76508 0.3572 0.24739 0.0
H674 H 0.71128 0.19428 0.27755 0.0
H675 H 0.81375 0.2761 0.24951 0.0
H676 H 0.83338 0.25822 0.26747 0.0
H677 H 0.78194 0.21705 0.28164 0.0
H678 H 0.69297 0.21301 0.2595 0.0
H679 H 0.78353 0.16795 0.22697 0.0
H680 H 0.82948 0.21318 0.21225 0.0
O681 O 0.78431 0.3151 0.24104 0.0
C682 C 0.71195 0.30345 0.22295 0.0
C683 C 0.81569 0.2591 0.21572 0.0
C684 C 0.78648 0.19674 0.22562 0.0
N685 N 0.76823 0.2452 0.23053 0.0
C686 C 0.79323 0.27015 0.22241 0.0
C687 C 0.76448 0.20879 0.23215 0.0
C688 C 0.81226 0.22214 0.21737 0.0
C689 C 0.62875 0.26874 0.25507 0.0
N690 N 0.64874 0.29767 0.24718 0.0
C691 C 0.58744 0.2465 0.25493 0.0
C692 C 0.5666 0.25406 0.24663 0.0
C693 C 0.5872 0.28364 0.23861 0.0
C694 C 0.62852 0.30523 0.23901 0.0
C695 C 0.68413 0.42025 0.25298 0.0
C696 C 0.73046 0.4043 0.23855 0.0
C697 C 0.68385 0.38436 0.25356 0.0
N698 N 0.70666 0.3767 0.24635 0.0
C699 C 0.73151 0.44052 0.23772 0.0
C700 C 0.70812 0.44845 0.24499 0.0
C701 C 0.79171 0.34927 0.24431 0.0
C702 C 0.73394 0.2121 0.27142 0.0
C703 C 0.7912 0.25813 0.25562 0.0
C704 C 0.80248 0.24807 0.26578 0.0
C705 C 0.77361 0.22495 0.27372 0.0
N706 N 0.75223 0.24542 0.25343 0.0
C707 C 0.72374 0.22265 0.26117 0.0
H708 H 0.34277 0.65658 0.95007 0.0
H709 H 0.33804 0.66163 0.97066 0.0
H710 H 0.28455 0.53492 0.97364 0.0
H711 H 0.28988 0.52964 0.95315 0.0
H712 H 0.27202 0.62921 0.98404 0.0
H713 H 0.37162 0.5734 0.99719 0.0
H714 H 0.36963 0.58802 0.98277 0.0
H715 H 0.33304 0.53989 0.98784 0.0
C716 C 0.3303 0.62983 0.95513 0.0
C717 C 0.31699 0.59274 0.95 0.0
C718 C 0.32761 0.63278 0.96688 0.0
C719 C 0.31162 0.59874 0.97369 0.0
C720 C 0.29797 0.56167 0.96857 0.0
H721 H 0.2345 0.53277 0.0422 0.0
H722 H 0.24685 0.53746 0.02177 0.0
C723 C 0.30085 0.5587 0.95685 0.0
C724 C 0.30767 0.60164 0.9861 0.0
H725 H 0.32955 0.57571 0.01162 0.0
C726 C 0.285 0.61799 0.99008 0.0
C727 C 0.32482 0.58714 0.99395 0.0
C728 C 0.35147 0.57151 0.99023 0.0
C729 C 0.27778 0.61881 0.00172 0.0
C730 C 0.29375 0.603 0.0095 0.0
C731 C 0.31716 0.58753 0.00556 0.0
C732 C 0.28539 0.60096 0.02177 0.0
C733 C 0.25216 0.63537 0.00564 0.0
C734 C 0.30306 0.63523 0.02847 0.0
C735 C 0.29623 0.63269 0.04017 0.0
C736 C 0.2715 0.59582 0.0453 0.0
C737 C 0.2535 0.56164 0.0385 0.0
C738 C 0.26058 0.56421 0.02684 0.0
H739 H 0.23813 0.64213 -0.00157 0.0
H740 H 0.22858 0.6141 0.01141 0.0
H741 H 0.27051 0.66305 0.01048 0.0
H742 H 0.32257 0.66379 0.02467 0.0
H743 H 0.31058 0.65952 0.04519 0.0
H744 H 0.70392 0.23865 0.37505 0.0
H745 H 0.70884 0.25049 0.35462 0.0
H746 H 0.65327 0.32163 0.35838 0.0
H747 H 0.64896 0.31063 0.37892 0.0
H748 H 0.65046 0.23256 0.33885 0.0
H749 H 0.75352 0.39504 0.34084 0.0
H750 H 0.74352 0.36316 0.35297 0.0
H751 H 0.70836 0.37768 0.3487 0.0
C752 C 0.69264 0.25676 0.37155 0.0
C753 C 0.67617 0.27383 0.3786 0.0
C754 C 0.69551 0.26351 0.35987 0.0
C755 C 0.68197 0.28741 0.35502 0.0
C756 C 0.66469 0.3038 0.36199 0.0
H757 H 0.68141 0.34435 0.28301 0.0
H758 H 0.6682 0.33678 0.3035 0.0
C759 C 0.66203 0.29728 0.37371 0.0
C760 C 0.68589 0.29473 0.34263 0.0
H761 H 0.73128 0.36721 0.32264 0.0
C762 C 0.66799 0.26201 0.33531 0.0
C763 C 0.70878 0.33323 0.33805 0.0
C764 C 0.72996 0.36931 0.34552 0.0
C765 C 0.67281 0.26671 0.32352 0.0
C766 C 0.69623 0.30504 0.31897 0.0
C767 C 0.71327 0.3379 0.32623 0.0
C768 C 0.70523 0.31115 0.30674 0.0
C769 C 0.65321 0.23068 0.31597 0.0
C770 C 0.73092 0.29984 0.30192 0.0
C771 C 0.73874 0.30433 0.2903 0.0
C772 C 0.72084 0.32011 0.28329 0.0
C773 C 0.69558 0.33205 0.2882 0.0
C774 C 0.68801 0.32779 0.29986 0.0
H775 H 0.63017 0.20432 0.32057 0.0
H776 H 0.63945 0.23639 0.30849 0.0
H777 H 0.67592 0.22382 0.31281 0.0
H778 H 0.74465 0.2872 0.30716 0.0
H779 H 0.75825 0.29475 0.2868 0.0
H780 H 0.33393 0.64758 0.71239 0.0
H781 H 0.32651 0.65055 0.69181 0.0
H782 H 0.45253 0.70084 0.6876 0.0
H783 H 0.46017 0.69735 0.70803 0.0
H784 H 0.35942 0.71623 0.67811 0.0
H785 H 0.40898 0.61227 0.66442 0.0
H786 H 0.39593 0.61526 0.67895 0.0
H787 H 0.44426 0.65026 0.67359 0.0
C788 C 0.35999 0.65886 0.70706 0.0
C789 C 0.3976 0.67194 0.71182 0.0
C790 C 0.35569 0.66057 0.69532 0.0
C791 C 0.38886 0.67523 0.68818 0.0
C792 C 0.4264 0.68842 0.69293 0.0
H793 H 0.45851 0.75713 0.62072 0.0
H794 H 0.45121 0.74233 0.64102 0.0
C795 C 0.43072 0.68659 0.70463 0.0
C796 C 0.38486 0.67877 0.67581 0.0
H797 H 0.40923 0.65638 0.65013 0.0
C798 C 0.36968 0.70263 0.67197 0.0
C799 C 0.3981 0.66081 0.66784 0.0
C800 C 0.41234 0.63289 0.6714 0.0
C801 C 0.36921 0.71054 0.66037 0.0
C802 C 0.3842 0.69409 0.65249 0.0
C803 C 0.39807 0.66916 0.65627 0.0
C804 C 0.3877 0.70402 0.64031 0.0
C805 C 0.35418 0.7376 0.65659 0.0
C806 C 0.35425 0.68734 0.63327 0.0
C807 C 0.35828 0.69558 0.62165 0.0
C808 C 0.39584 0.72075 0.61693 0.0
C809 C 0.42915 0.73782 0.62409 0.0
C810 C 0.4251 0.72935 0.63567 0.0
H811 H 0.34652 0.75059 0.66388 0.0
H812 H 0.37688 0.76196 0.65131 0.0
H813 H 0.32737 0.72076 0.65126 0.0
H814 H 0.3252 0.6675 0.63675 0.0
H815 H 0.33208 0.68193 0.61634 0.0
H816 H 0.68697 0.34137 0.04485 0.0
H817 H 0.67945 0.3381 0.02418 0.0
H818 H 0.75428 0.46486 0.02213 0.0
H819 H 0.76265 0.46836 0.0427 0.0
H820 H 0.64782 0.37238 0.01081 0.0
H821 H 0.80402 0.42748 -0.00135 0.0
H822 H 0.78611 0.41185 0.01292 0.0
H823 H 0.79856 0.4605 0.00809 0.0
C824 C 0.70212 0.3685 0.03998 0.0
C825 C 0.72566 0.40509 0.0454 0.0
C826 C 0.69777 0.36657 0.02819 0.0
C827 C 0.71688 0.40114 0.02162 0.0
C828 C 0.74014 0.4377 0.02701 0.0
H829 H 0.71216 0.47041 0.9528 0.0
H830 H 0.71935 0.46566 0.97328 0.0
C831 C 0.74471 0.43966 0.03878 0.0
C832 C 0.71113 0.39935 0.00917 0.0
H833 H 0.76103 0.42639 0.98398 0.0
C834 C 0.6725 0.38374 0.00493 0.0
C835 C 0.74341 0.4141 0.00152 0.0
C836 C 0.78531 0.42905 0.00551 0.0
C837 C 0.66545 0.38377 0.99325 0.0
C838 C 0.69784 0.39963 0.98568 0.0
C839 C 0.73634 0.41451 0.98987 0.0
C840 C 0.69246 0.40194 0.97336 0.0
C841 C 0.62362 0.36793 0.98909 0.0
C842 C 0.67507 0.36759 0.96669 0.0
C843 C 0.67102 0.37016 0.95499 0.0
C844 C 0.68422 0.40715 0.9498 0.0
C845 C 0.70145 0.44146 0.95655 0.0
C846 C 0.70571 0.43886 0.96823 0.0
H847 H 0.60254 0.36202 0.99616 0.0
H848 H 0.6222 0.3892 0.98311 0.0
H849 H 0.61392 0.33985 0.98442 0.0
H850 H 0.66504 0.3389 0.97053 0.0
H851 H 0.65771 0.34321 0.95001 0.0
H852 H 0.30956 0.64931 0.28338 0.0
H853 H 0.32285 0.6568 0.30385 0.0
H854 H 0.25141 0.71206 0.30732 0.0
H855 H 0.23779 0.70467 0.28695 0.0
H856 H 0.33487 0.75375 0.31704 0.0
H857 H 0.2391 0.59683 0.33047 0.0
H858 H 0.27051 0.60699 0.31824 0.0
H859 H 0.22977 0.61601 0.31759 0.0
C860 C 0.29641 0.66276 0.28852 0.0
C861 C 0.27252 0.67629 0.28356 0.0
C862 C 0.30398 0.66692 0.30019 0.0
C863 C 0.2879 0.68478 0.30703 0.0
C864 C 0.26391 0.69808 0.30213 0.0
H865 H 0.29638 0.76242 0.37542 0.0
H866 H 0.29132 0.75186 0.35494 0.0
C867 C 0.2561 0.69371 0.29051 0.0
C868 C 0.29709 0.69097 0.31925 0.0
H869 H 0.27462 0.64336 0.34477 0.0
C870 C 0.32192 0.72966 0.32313 0.0
C871 C 0.28039 0.65934 0.32707 0.0
C872 C 0.25327 0.61737 0.32322 0.0
C873 C 0.33017 0.7377 0.33471 0.0
C874 C 0.31222 0.70628 0.34262 0.0
C875 C 0.28823 0.66739 0.33869 0.0
C876 C 0.3164 0.71334 0.35501 0.0
C877 C 0.3582 0.77973 0.33837 0.0
C878 C 0.33125 0.69435 0.36188 0.0
C879 C 0.33382 0.7 0.37364 0.0
C880 C 0.32148 0.72468 0.3787 0.0
C881 C 0.30659 0.74361 0.37178 0.0
C882 C 0.30386 0.73777 0.36005 0.0
H883 H 0.37861 0.79729 0.33138 0.0
H884 H 0.34086 0.79413 0.34074 0.0
H885 H 0.37609 0.78069 0.34582 0.0
H886 H 0.3408 0.67513 0.35815 0.0
H887 H 0.34529 0.6849 0.37875 0.0
H888 H 0.65821 0.3454 0.71218 0.0
H889 H 0.66435 0.3418 0.69157 0.0
H890 H 0.53841 0.29365 0.68794 0.0
H891 H 0.53207 0.29782 0.7084 0.0
H892 H 0.62989 0.27615 0.67795 0.0
H893 H 0.58189 0.38173 0.66465 0.0
H894 H 0.59536 0.37856 0.67911 0.0
H895 H 0.54669 0.34398 0.67388 0.0
C896 C 0.6319 0.33445 0.70697 0.0
C897 C 0.5947 0.3222 0.71191 0.0
C898 C 0.63547 0.33238 0.69521 0.0
C899 C 0.60195 0.31815 0.68822 0.0
C900 C 0.56481 0.30574 0.69315 0.0
H901 H 0.53239 0.23995 0.62015 0.0
H902 H 0.53862 0.25351 0.64053 0.0
C903 C 0.56123 0.30796 0.70486 0.0
C904 C 0.60522 0.31434 0.67582 0.0
H905 H 0.58107 0.33776 0.65026 0.0
C906 C 0.61979 0.29008 0.67188 0.0
C907 C 0.59216 0.3327 0.66793 0.0
C908 C 0.57853 0.36102 0.6716 0.0
C909 C 0.62001 0.28233 0.66026 0.0
C910 C 0.60539 0.29938 0.65245 0.0
C911 C 0.59193 0.32453 0.65634 0.0
C912 C 0.60237 0.29026 0.64022 0.0
C913 C 0.6345 0.25493 0.65639 0.0
C914 C 0.63628 0.30652 0.63337 0.0
C915 C 0.63288 0.29899 0.6217 0.0
C916 C 0.59547 0.27496 0.61675 0.0
C917 C 0.56164 0.25837 0.62371 0.0
C918 C 0.56508 0.26615 0.63534 0.0
H919 H 0.64102 0.24082 0.66362 0.0
H920 H 0.61205 0.23141 0.65083 0.0
H921 H 0.66194 0.27188 0.65131 0.0
H922 H 0.66526 0.32546 0.63702 0.0
H923 H 0.65947 0.31225 0.61656 0.0
H924 H 0.29248 0.63081 0.21437 0.0
H925 H 0.29809 0.61749 0.19438 0.0
H926 H 0.28742 0.71821 0.18461 0.0
H927 H 0.2818 0.73198 0.20453 0.0
H928 H 0.23882 0.60354 0.17728 0.0
H929 H 0.38672 0.73201 0.16713 0.0
H930 H 0.37104 0.71522 0.18149 0.0
H931 H 0.35282 0.74339 0.17424 0.0
C932 C 0.29163 0.65037 0.208 0.0
C933 C 0.28666 0.68247 0.21108 0.0
C934 C 0.29486 0.64268 0.19659 0.0
C935 C 0.29363 0.66716 0.18808 0.0
C936 C 0.28908 0.6994 0.19109 0.0
H937 H 0.29149 0.6629 0.11453 0.0
H938 H 0.29478 0.68081 0.13457 0.0
C939 C 0.28563 0.70703 0.20248 0.0
C940 C 0.29472 0.65762 0.17601 0.0
H941 H 0.34893 0.69197 0.15168 0.0
C942 C 0.26297 0.62269 0.17168 0.0
C943 C 0.32615 0.68296 0.16876 0.0
C944 C 0.36133 0.72039 0.17311 0.0
C945 C 0.26144 0.61262 0.1602 0.0
C946 C 0.29305 0.63775 0.15295 0.0
C947 C 0.32483 0.67276 0.15728 0.0
C948 C 0.2935 0.62805 0.14083 0.0
C949 C 0.22549 0.57569 0.15589 0.0
C950 C 0.29278 0.59301 0.13775 0.0
C951 C 0.29061 0.58253 0.12634 0.0
C952 C 0.28961 0.60718 0.11778 0.0
C953 C 0.29202 0.64314 0.1209 0.0
C954 C 0.29394 0.65346 0.13233 0.0
H955 H 0.19971 0.56597 0.16166 0.0
H956 H 0.21696 0.58044 0.14729 0.0
H957 H 0.23237 0.55137 0.15537 0.0
H958 H 0.2934 0.57348 0.14418 0.0
H959 H 0.28928 0.55484 0.12426 0.0
H960 H 0.73559 0.28579 0.45752 0.0
H961 H 0.72159 0.29022 0.47748 0.0
H962 H 0.6172 0.29497 0.46803 0.0
H963 H 0.63134 0.29145 0.44799 0.0
H964 H 0.661 0.34885 0.48479 0.0
H965 H 0.63521 0.19923 0.49552 0.0
H966 H 0.68261 0.23097 0.48917 0.0
H967 H 0.63822 0.21582 0.48106 0.0
C968 C 0.70965 0.28784 0.45965 0.0
C969 C 0.68438 0.2879 0.45113 0.0
C970 C 0.70162 0.29017 0.47108 0.0
C971 C 0.66794 0.29208 0.47423 0.0
C972 C 0.64323 0.29324 0.46576 0.0
H973 H 0.55161 0.28446 0.53734 0.0
H974 H 0.57186 0.28934 0.51752 0.0
C975 C 0.65135 0.29118 0.45432 0.0
C976 C 0.65827 0.29254 0.48635 0.0
H977 H 0.63705 0.23927 0.51091 0.0
C978 C 0.65565 0.32487 0.49051 0.0
C979 C 0.65122 0.26111 0.49376 0.0
C980 C 0.65156 0.22463 0.48965 0.0
C981 C 0.64665 0.32685 0.50194 0.0
C982 C 0.63983 0.29554 0.50932 0.0
C983 C 0.64257 0.26331 0.50519 0.0
C984 C 0.62873 0.29502 0.52133 0.0
C985 C 0.64492 0.36254 0.50608 0.0
C986 C 0.65397 0.2963 0.53 0.0
C987 C 0.64256 0.29354 0.54135 0.0
C988 C 0.60546 0.28897 0.54421 0.0
C989 C 0.58039 0.28799 0.53546 0.0
C990 C 0.59196 0.29099 0.52412 0.0
H991 H 0.65917 0.38765 0.50002 0.0
H992 H 0.61351 0.35457 0.5071 0.0
H993 H 0.65962 0.37236 0.51447 0.0
H994 H 0.68238 0.29916 0.52796 0.0
H995 H 0.66259 0.29434 0.54785 0.0
H996 H 0.33837 0.63422 0.78155 0.0
H997 H 0.32153 0.62261 0.80167 0.0
H998 H 0.4339 0.72426 0.81033 0.0
H999 H 0.45151 0.73571 0.79026 0.0
H1000 H 0.41826 0.65954 0.82278 0.0
H1001 H 0.28822 0.68121 0.82334 0.0
H1002 H 0.28395 0.64541 0.81304 0.0
H1003 H 0.32217 0.6963 0.81152 0.0
C1004 C 0.35943 0.65434 0.78771 0.0
C1005 C 0.39631 0.68593 0.78427 0.0
C1006 C 0.3496 0.64781 0.79921 0.0
C1007 C 0.37618 0.67299 0.80747 0.0
C1008 C 0.41288 0.70464 0.80408 0.0
H1009 H 0.36952 0.66584 0.88159 0.0
H1010 H 0.38619 0.68735 0.86185 0.0
C1011 C 0.42287 0.71109 0.79259 0.0
C1012 C 0.36672 0.66495 0.81969 0.0
H1013 H 0.29775 0.65089 0.83978 0.0
C1014 C 0.39216 0.65809 0.82653 0.0
C1015 C 0.33265 0.66312 0.82454 0.0
C1016 C 0.30538 0.67229 0.81776 0.0
C1017 C 0.38381 0.64826 0.83803 0.0
C1018 C 0.34932 0.64557 0.8428 0.0
C1019 C 0.32414 0.65295 0.83603 0.0
C1020 C 0.33821 0.63364 0.85473 0.0
C1021 C 0.41125 0.63967 0.84494 0.0
C1022 C 0.30526 0.5967 0.85719 0.0
C1023 C 0.29565 0.58422 0.86843 0.0
C1024 C 0.31872 0.60867 0.87741 0.0
C1025 C 0.35119 0.64619 0.87489 0.0
C1026 C 0.36086 0.65853 0.86363 0.0
H1027 H 0.43285 0.63652 0.83953 0.0
H1028 H 0.42803 0.66431 0.85099 0.0
H1029 H 0.39408 0.61213 0.84996 0.0
H1030 H 0.28744 0.57718 0.8504 0.0
H1031 H 0.27035 0.55523 0.87004 0.0
H1032 H 0.6983 0.32929 0.11377 0.0
H1033 H 0.69264 0.30789 0.13354 0.0
H1034 H 0.69793 0.41572 0.14463 0.0
H1035 H 0.70362 0.43752 0.12496 0.0
H1036 H 0.75139 0.35338 0.15077 0.0
H1037 H 0.60118 0.32587 0.16183 0.0
H1038 H 0.61692 0.32686 0.14735 0.0
H1039 H 0.63296 0.37229 0.15494 0.0
C1040 C 0.69782 0.3483 0.12039 0.0
C1041 C 0.70152 0.3852 0.11777 0.0
C1042 C 0.69458 0.33599 0.13167 0.0
C1043 C 0.69444 0.36007 0.14049 0.0
C1044 C 0.69734 0.39648 0.13791 0.0
H1045 H 0.70104 0.36169 0.21363 0.0
H1046 H 0.69568 0.37351 0.1935 0.0
C1047 C 0.70083 0.40895 0.12666 0.0
C1048 C 0.69421 0.3486 0.15244 0.0
H1049 H 0.64154 0.32697 0.17711 0.0
C1050 C 0.72725 0.34719 0.15653 0.0
C1051 C 0.66278 0.34097 0.15989 0.0
C1052 C 0.62625 0.34122 0.1558 0.0
C1053 C 0.73023 0.33936 0.16798 0.0
C1054 C 0.6988 0.33176 0.17547 0.0
C1055 C 0.66554 0.33277 0.17134 0.0
C1056 C 0.7003 0.3234 0.18765 0.0
C1057 C 0.76759 0.34067 0.17204 0.0
C1058 C 0.70382 0.29084 0.19102 0.0
C1059 C 0.70726 0.28417 0.20249 0.0
C1060 C 0.70668 0.30969 0.21083 0.0
C1061 C 0.70177 0.34155 0.20744 0.0
C1062 C 0.69863 0.34833 0.19594 0.0
H1063 H 0.79257 0.35713 0.16605 0.0
H1064 H 0.77653 0.35478 0.18053 0.0
H1065 H 0.76228 0.31003 0.17272 0.0
H1066 H 0.70419 0.2707 0.18476 0.0
H1067 H 0.71051 0.25907 0.20479 0.0
H1068 H 0.4471 0.71081 0.53832 0.0
H1069 H 0.4294 0.70598 0.51828 0.0
H1070 H 0.32012 0.70183 0.52719 0.0
H1071 H 0.337 0.70567 0.5473 0.0
H1072 H 0.31023 0.64775 0.51063 0.0
H1073 H 0.4353 0.79667 0.49988 0.0
H1074 H 0.45037 0.76472 0.50638 0.0
H1075 H 0.42127 0.78041 0.51433 0.0
C1076 C 0.41924 0.70882 0.53605 0.0
C1077 C 0.39364 0.70901 0.54443 0.0
C1078 C 0.40929 0.70625 0.52458 0.0
C1079 C 0.37387 0.7044 0.52126 0.0
C1080 C 0.34773 0.7035 0.52959 0.0
H1081 H 0.26734 0.71383 0.45808 0.0
H1082 H 0.28242 0.70846 0.4779 0.0
C1083 C 0.35749 0.70576 0.54108 0.0
C1084 C 0.36419 0.70377 0.50909 0.0
H1085 H 0.39712 0.75664 0.48449 0.0
C1086 C 0.32916 0.67157 0.50491 0.0
C1087 C 0.38895 0.73498 0.50167 0.0
C1088 C 0.42588 0.77134 0.50579 0.0
C1089 C 0.31841 0.66958 0.49346 0.0
C1090 C 0.34324 0.7007 0.48607 0.0
C1091 C 0.37835 0.73274 0.49021 0.0
C1092 C 0.33276 0.70136 0.47407 0.0
C1093 C 0.28081 0.63413 0.4893 0.0
C1094 C 0.35632 0.6994 0.4654 0.0
C1095 C 0.34783 0.70242 0.45405 0.0
C1096 C 0.31587 0.70796 0.4512 0.0
C1097 C 0.29216 0.70958 0.45995 0.0
C1098 C 0.30056 0.7063 0.47129 0.0
H1099 H 0.26953 0.60907 0.4954 0.0
H1100 H 0.25768 0.64249 0.4882 0.0
H1101 H 0.28566 0.62406 0.48095 0.0
H1102 H 0.38147 0.69585 0.46743 0.0
H1103 H 0.36676 0.70111 0.44754 0.0
H1104 H 0.72776 0.44211 0.86972 0.0
H1105 H 0.71015 0.41959 0.85014 0.0
H1106 H 0.61085 0.31037 0.8619 0.0
H1107 H 0.62806 0.33244 0.88158 0.0
H1108 H 0.69851 0.34477 0.83973 0.0
H1109 H 0.56501 0.36191 0.83944 0.0
H1110 H 0.60417 0.38632 0.84976 0.0
H1111 H 0.56964 0.33435 0.85101 0.0
C1112 C 0.70223 0.41321 0.86819 0.0
C1113 C 0.67917 0.38919 0.87725 0.0
C1114 C 0.69232 0.4004 0.85699 0.0
C1115 C 0.65908 0.36356 0.85463 0.0
C1116 C 0.63643 0.3391 0.8636 0.0
H1117 H 0.54327 0.26077 0.79051 0.0
H1118 H 0.56154 0.27251 0.81053 0.0
C1119 C 0.64639 0.35176 0.87483 0.0
C1120 C 0.64765 0.35131 0.84274 0.0
H1121 H 0.57876 0.33789 0.82276 0.0
C1122 C 0.67229 0.34309 0.83599 0.0
C1123 C 0.61337 0.34913 0.83798 0.0
C1124 C 0.58652 0.3586 0.84486 0.0
C1125 C 0.66343 0.33255 0.82453 0.0
C1126 C 0.62958 0.33122 0.81968 0.0
C1127 C 0.60469 0.33895 0.8265 0.0
C1128 C 0.61977 0.32281 0.80749 0.0
C1129 C 0.69008 0.32246 0.81778 0.0
C1130 C 0.64645 0.34731 0.79914 0.0
C1131 C 0.63623 0.34058 0.78767 0.0
C1132 C 0.59887 0.30952 0.78434 0.0
C1133 C 0.57227 0.28499 0.79275 0.0
C1134 C 0.58264 0.29161 0.80421 0.0
H1135 H 0.70692 0.31323 0.8234 0.0
H1136 H 0.67286 0.29836 0.81161 0.0
H1137 H 0.71181 0.349 0.813 0.0
H1138 H 0.67487 0.37218 0.80151 0.0
H1139 H 0.65735 0.36021 0.78144 0.0
H1140 H 0.82722 0.41506 0.07052 0.0
H1141 H 0.89757 0.43541 0.0699 0.0
H1142 H 0.91825 0.50757 0.0997 0.0
H1143 H 0.8485 0.48896 0.1 0.0
H1144 H 0.97313 0.54665 0.08483 0.0
H1145 H 0.956 0.39749 0.08894 0.0
H1146 H 0.93037 0.40127 0.0768 0.0
H1147 H 0.91513 0.40621 0.09086 0.0
C1148 C 0.8468 0.43505 0.07698 0.0
C1149 C 0.83244 0.4503 0.08534 0.0
C1150 C 0.88692 0.44647 0.07665 0.0
C1151 C 0.91307 0.47238 0.08489 0.0
C1152 C 0.89863 0.48748 0.09327 0.0
H1153 H 0.14487 0.50609 0.09927 0.0
H1154 H 0.07515 0.48755 0.09913 0.0
C1155 C 0.85877 0.47678 0.09345 0.0
C1156 C 0.95571 0.48482 0.08465 0.0
H1157 H 0.02028 0.4499 0.08418 0.0
C1158 C 0.98346 0.52549 0.08475 0.0
C1159 C 0.96916 0.4572 0.08469 0.0
C1160 C 0.94111 0.41314 0.08544 0.0
C1161 C 0.02426 0.53934 0.08494 0.0
C1162 C 0.03771 0.51173 0.08453 0.0
C1163 C 0.00996 0.47107 0.08438 0.0
C1164 C 0.08035 0.52413 0.08466 0.0
C1165 C 0.05233 0.58332 0.08597 0.0
C1166 C 0.1065 0.55081 0.07656 0.0
C1167 C 0.14662 0.56219 0.0768 0.0
C1168 C 0.16096 0.54612 0.08493 0.0
C1169 C 0.13462 0.51888 0.09289 0.0
C1170 C 0.09477 0.50823 0.0928 0.0
H1171 H 0.03748 0.59866 0.08971 0.0
H1172 H 0.07834 0.58977 0.09131 0.0
H1173 H 0.063 0.59593 0.0774 0.0
H1174 H 0.09586 0.56253 0.06998 0.0
H1175 H 0.16622 0.58281 0.07046 0.0
H1176 H 0.65784 0.14102 0.42445 0.0
H1177 H 0.60805 0.07099 0.42378 0.0
H1178 H 0.52393 0.09973 0.40934 0.0
H1179 H 0.57362 0.17015 0.40988 0.0
H1180 H 0.53267 0.03453 0.43458 0.0
H1181 H 0.52175 0.01429 0.38774 0.0
H1182 H 0.56299 0.05602 0.39455 0.0
H1183 H 0.51659 0.05479 0.39296 0.0
C1184 C 0.62885 0.13261 0.42107 0.0
C1185 C 0.6198 0.1613 0.41718 0.0
C1186 C 0.60046 0.09254 0.42071 0.0
C1187 C 0.56262 0.08032 0.41639 0.0
C1188 C 0.55328 0.10868 0.41253 0.0
H1189 H 0.3479 0.8578 0.42551 0.0
H1190 H 0.40011 0.92695 0.42504 0.0
C1191 C 0.58165 0.14888 0.41291 0.0
C1192 C 0.53253 0.03789 0.41634 0.0
H1193 H 0.47506 0.9603 0.39887 0.0
C1194 C 0.52011 0.01822 0.42678 0.0
C1195 C 0.51671 0.01681 0.40613 0.0
C1196 C 0.53034 0.03635 0.39468 0.0
C1197 C 0.49156 0.97797 0.4273 0.0
C1198 C 0.4749 0.95716 0.41711 0.0
C1199 C 0.48786 0.97659 0.40665 0.0
C1200 C 0.44337 0.91529 0.41719 0.0
C1201 C 0.47958 0.95792 0.43873 0.0
C1202 C 0.45038 0.88604 0.41274 0.0
C1203 C 0.42059 0.84633 0.41298 0.0
C1204 C 0.38321 0.83538 0.4176 0.0
C1205 C 0.3763 0.86504 0.42192 0.0
C1206 C 0.40612 0.90461 0.4217 0.0
H1207 H 0.50134 0.97548 0.44545 0.0
H1208 H 0.45047 0.95433 0.44118 0.0
H1209 H 0.47647 0.92805 0.43839 0.0
H1210 H 0.47903 0.89392 0.40919 0.0
H1211 H 0.42689 0.82429 0.40956 0.0
H1212 H 0.60106 0.42694 0.7457 0.0
H1213 H 0.5836 0.47909 0.74558 0.0
H1214 H 0.46379 0.39399 0.75505 0.0
H1215 H 0.48079 0.34184 0.75537 0.0
H1216 H 0.52433 0.48331 0.73265 0.0
H1217 H 0.49786 0.48164 0.77904 0.0
H1218 H 0.5239 0.45881 0.77285 0.0
H1219 H 0.47075 0.4341 0.77232 0.0
C1220 C 0.57099 0.41928 0.74777 0.0
C1221 C 0.54239 0.38019 0.75059 0.0
C1222 C 0.56111 0.4491 0.74769 0.0
C1223 C 0.52261 0.44036 0.75047 0.0
C1224 C 0.49387 0.40138 0.7531 0.0
H1225 H 0.39878 0.57133 0.74407 0.0
H1226 H 0.41887 0.52107 0.74363 0.0
C1227 C 0.50366 0.37159 0.75321 0.0
C1228 C 0.51219 0.47186 0.75052 0.0
H1229 H 0.47827 0.51916 0.7676 0.0
C1230 C 0.51442 0.4913 0.74029 0.0
C1231 C 0.49952 0.48225 0.76053 0.0
C1232 C 0.49816 0.4634 0.77184 0.0
C1233 C 0.50343 0.52042 0.73978 0.0
C1234 C 0.48998 0.53008 0.74973 0.0
C1235 C 0.48832 0.51118 0.75998 0.0
C1236 C 0.47822 0.56046 0.74969 0.0
C1237 C 0.50624 0.54089 0.72867 0.0
C1238 C 0.50511 0.59891 0.75328 0.0
C1239 C 0.4939 0.62768 0.75352 0.0
C1240 C 0.45546 0.61833 0.75023 0.0
C1241 C 0.42859 0.57956 0.74664 0.0
C1242 C 0.43995 0.55084 0.74637 0.0
H1243 H 0.51901 0.53122 0.72179 0.0
H1244 H 0.47629 0.53458 0.72605 0.0
H1245 H 0.52488 0.57342 0.72975 0.0
H1246 H 0.53474 0.6066 0.7559 0.0
H1247 H 0.51538 0.65716 0.75635 0.0
H1248 H 0.48511 0.14088 0.57002 0.0
H1249 H 0.46549 0.07104 0.57077 0.0
H1250 H 0.57663 0.10064 0.5866 0.0
H1251 H 0.59673 0.17092 0.58597 0.0
H1252 H 0.50649 0.03514 0.56078 0.0
H1253 H 0.49063 0.01477 0.6076 0.0
H1254 H 0.49167 0.0563 0.60048 0.0
H1255 H 0.53679 0.05547 0.60272 0.0
C1256 C 0.50545 0.13271 0.57371 0.0
C1257 C 0.5425 0.1616 0.57798 0.0
C1258 C 0.49413 0.09274 0.57412 0.0
C1259 C 0.51943 0.08081 0.57886 0.0
C1260 C 0.55648 0.10937 0.58308 0.0
H1261 H 0.51016 0.85663 0.57117 0.0
H1262 H 0.52842 0.92617 0.57148 0.0
C1263 C 0.56795 0.14948 0.58265 0.0
C1264 C 0.50733 0.03844 0.57903 0.0
H1265 H 0.48419 0.96066 0.59675 0.0
C1266 C 0.50157 0.0188 0.56863 0.0
C1267 C 0.50052 0.01729 0.58931 0.0
C1268 C 0.50487 0.03683 0.60068 0.0
C1269 C 0.4897 0.97849 0.56823 0.0
C1270 C 0.48384 0.95757 0.57851 0.0
C1271 C 0.48898 0.97701 0.58891 0.0
C1272 C 0.47279 0.91549 0.57858 0.0
C1273 C 0.48313 0.95846 0.55684 0.0
C1274 C 0.43569 0.88666 0.58268 0.0
C1275 C 0.42502 0.84673 0.58253 0.0
C1276 C 0.4515 0.83513 0.57835 0.0
C1277 C 0.48893 0.86438 0.57442 0.0
C1278 C 0.49944 0.90417 0.57454 0.0
H1279 H 0.48027 0.97623 0.54992 0.0
H1280 H 0.50873 0.95446 0.55485 0.0
H1281 H 0.45608 0.92876 0.55697 0.0
H1282 H 0.41484 0.89503 0.58586 0.0
H1283 H 0.39603 0.82503 0.58565 0.0
H1284 H 0.35928 0.5039 0.8972 0.0
H1285 H 0.41025 0.48527 0.89848 0.0
H1286 H 0.46106 0.56198 0.92748 0.0
H1287 H 0.41117 0.5823 0.92588 0.0
H1288 H 0.51707 0.5701 0.91408 0.0
H1289 H 0.41587 0.40983 0.91989 0.0
H1290 H 0.40471 0.42654 0.90699 0.0
H1291 H 0.39882 0.44507 0.92044 0.0
C1292 C 0.38126 0.51673 0.90387 0.0
C1293 C 0.38118 0.54442 0.91147 0.0
C1294 C 0.41018 0.50577 0.90466 0.0
C1295 C 0.43885 0.52134 0.91327 0.0
C1296 C 0.43905 0.54933 0.92082 0.0
H1297 H 0.58864 0.41744 0.9259 0.0
H1298 H 0.5389 0.43791 0.92756 0.0
C1299 C 0.4106 0.56096 0.91988 0.0
C1300 C 0.46948 0.50953 0.91413 0.0
H1301 H 0.48243 0.42928 0.91428 0.0
C1302 C 0.50947 0.5393 0.91426 0.0
C1303 C 0.45964 0.46937 0.91464 0.0
C1304 C 0.41741 0.43595 0.91562 0.0
C1305 C 0.53987 0.53003 0.91449 0.0
C1306 C 0.53002 0.48985 0.9141 0.0
C1307 C 0.49004 0.46009 0.91437 0.0
C1308 C 0.56061 0.47799 0.91321 0.0
C1309 C 0.58214 0.56348 0.91531 0.0
C1310 C 0.58897 0.49321 0.90451 0.0
C1311 C 0.61782 0.48216 0.90369 0.0
C1312 C 0.61813 0.45473 0.91135 0.0
C1313 C 0.58904 0.43857 0.91986 0.0
C1314 C 0.56066 0.45028 0.92082 0.0
H1315 H 0.58384 0.58978 0.91951 0.0
H1316 H 0.60091 0.55456 0.92012 0.0
H1317 H 0.59451 0.57254 0.90663 0.0
H1318 H 0.58869 0.51348 0.89828 0.0
H1319 H 0.63954 0.4947 0.89695 0.0
H1320 H 0.13907 0.65629 0.2376 0.0
H1321 H 0.06899 0.60647 0.23825 0.0
H1322 H 0.09773 0.52283 0.25301 0.0
H1323 H 0.16818 0.57251 0.25247 0.0
H1324 H 0.03283 0.53044 0.22759 0.0
H1325 H 0.0119 0.52148 0.27442 0.0
H1326 H 0.05355 0.56259 0.26753 0.0
H1327 H 0.05271 0.51649 0.26936 0.0
C1328 C 0.13065 0.6274 0.24105 0.0
C1329 C 0.15934 0.61846 0.24502 0.0
C1330 C 0.09055 0.599 0.2414 0.0
C1331 C 0.07834 0.56128 0.2458 0.0
C1332 C 0.10669 0.55208 0.24976 0.0
H1333 H 0.8565 0.34551 0.23723 0.0
H1334 H 0.92558 0.39803 0.23764 0.0
C1335 C 0.14691 0.58045 0.24938 0.0
C1336 C 0.03591 0.53117 0.24585 0.0
H1337 H 0.9581 0.47429 0.26333 0.0
C1338 C 0.01641 0.5182 0.23539 0.0
C1339 C 0.01468 0.51575 0.25606 0.0
C1340 C 0.03408 0.52993 0.2675 0.0
C1341 C 0.97619 0.48948 0.23487 0.0
C1342 C 0.95524 0.47325 0.24508 0.0
C1343 C 0.9745 0.48677 0.25554 0.0
C1344 C 0.91342 0.4416 0.24501 0.0
C1345 C 0.95631 0.47682 0.22344 0.0
C1346 C 0.88392 0.44872 0.2492 0.0
C1347 C 0.84426 0.41877 0.24898 0.0
C1348 C 0.83361 0.38113 0.24465 0.0
C1349 C 0.86352 0.37412 0.2406 0.0
C1350 C 0.90304 0.4041 0.24078 0.0
H1351 H 0.974 0.49814 0.21664 0.0
H1352 H 0.9527 0.44757 0.2212 0.0
H1353 H 0.92644 0.47377 0.22365 0.0
H1354 H 0.89158 0.47756 0.25254 0.0
H1355 H 0.82202 0.42515 0.2522 0.0
H1356 H 0.65895 0.52315 0.09391 0.0
H1357 H 0.60601 0.53929 0.09437 0.0
H1358 H 0.51885 0.41495 0.09472 0.0
H1359 H 0.57165 0.39842 0.09444 0.0
H1360 H 0.54608 0.51864 0.07865 0.0
H1361 H 0.48475 0.45841 0.12129 0.0
H1362 H 0.53243 0.46676 0.11663 0.0
H1363 H 0.48784 0.42365 0.11196 0.0
C1364 C 0.62853 0.49919 0.09415 0.0
C1365 C 0.61944 0.45949 0.09421 0.0
C1366 C 0.59836 0.5085 0.09441 0.0
C1367 C 0.55864 0.47832 0.09474 0.0
C1368 C 0.5494 0.43865 0.09472 0.0
H1369 H 0.3352 0.47352 0.09208 0.0
H1370 H 0.38854 0.45789 0.09242 0.0
C1371 C 0.57958 0.42928 0.09451 0.0
C1372 C 0.52692 0.48852 0.09471 0.0
H1373 H 0.44799 0.47884 0.10986 0.0
C1374 C 0.52474 0.51015 0.0855 0.0
C1375 C 0.49922 0.47734 0.10367 0.0
C1376 C 0.50127 0.45557 0.114 0.0
C1377 C 0.49508 0.52038 0.08491 0.0
C1378 C 0.4673 0.50902 0.09383 0.0
C1379 C 0.46945 0.48742 0.10305 0.0
C1380 C 0.4354 0.51886 0.09368 0.0
C1381 C 0.49315 0.54253 0.07465 0.0
C1382 C 0.44429 0.55834 0.0944 0.0
C1383 C 0.41392 0.56743 0.09423 0.0
C1384 C 0.37422 0.53711 0.09336 0.0
C1385 C 0.36549 0.49756 0.09273 0.0
C1386 C 0.39586 0.48853 0.09294 0.0
H1387 H 0.51132 0.54168 0.06751 0.0
H1388 H 0.4621 0.53002 0.07171 0.0
H1389 H 0.5045 0.57395 0.07697 0.0
H1390 H 0.47471 0.58206 0.09514 0.0
H1391 H 0.42157 0.59817 0.09473 0.0
H1392 H 0.82384 0.42395 0.4284 0.0
H1393 H 0.89281 0.47785 0.42873 0.0
H1394 H 0.93263 0.3929 0.42666 0.0
H1395 H 0.86412 0.33903 0.42615 0.0
H1396 H 0.9534 0.49198 0.44405 0.0
H1397 H 0.99091 0.46814 0.40041 0.0
H1398 H 0.94053 0.44613 0.40542 0.0
H1399 H 0.97042 0.4246 0.40913 0.0
C1400 C 0.8473 0.41678 0.42802 0.0
C1401 C 0.83858 0.37729 0.42718 0.0
C1402 C 0.88661 0.44756 0.4282 0.0
C1403 C 0.91766 0.43928 0.42751 0.0
C1404 C 0.90902 0.39988 0.42693 0.0
H1405 H 0.17342 0.57654 0.42861 0.0
H1406 H 0.10392 0.524 0.42919 0.0
C1407 C 0.86985 0.36916 0.4267 0.0
C1408 C 0.95923 0.47173 0.42754 0.0
H1409 H 0.04473 0.51221 0.41214 0.0
C1410 C 0.97335 0.49663 0.43706 0.0
C1411 C 0.98503 0.47759 0.41838 0.0
C1412 C 0.97093 0.45296 0.40771 0.0
C1413 C 0.01302 0.52682 0.43775 0.0
C1414 C 0.03888 0.53229 0.42866 0.0
C1415 C 0.02473 0.50759 0.41912 0.0
C1416 C 0.08067 0.56402 0.42876 0.0
C1417 C 0.02723 0.55217 0.44828 0.0
C1418 C 0.09029 0.60371 0.42825 0.0
C1419 C 0.12981 0.63372 0.42788 0.0
C1420 C 0.16034 0.62446 0.42801 0.0
C1421 C 0.15056 0.5846 0.42857 0.0
C1422 C 0.11096 0.55459 0.42888 0.0
H1423 H 0.00606 0.53883 0.45544 0.0
H1424 H 0.05656 0.55684 0.45098 0.0
H1425 H 0.03059 0.58156 0.44641 0.0
H1426 H 0.0672 0.61143 0.42797 0.0
H1427 H 0.13638 0.66414 0.42743 0.0
H1428 H 0.46716 0.13341 0.75982 0.0
H1429 H 0.4509 0.06443 0.76087 0.0
H1430 H 0.57523 0.1016 0.76234 0.0
H1431 H 0.59187 0.17087 0.76151 0.0
H1432 H 0.4723 0.02477 0.74581 0.0
H1433 H 0.52997 0.02465 0.78888 0.0
H1434 H 0.52227 0.06405 0.78389 0.0
H1435 H 0.56564 0.06221 0.77967 0.0
C1436 C 0.49108 0.12697 0.76045 0.0
C1437 C 0.53081 0.15756 0.76064 0.0
C1438 C 0.48171 0.08755 0.76105 0.0
C1439 C 0.51184 0.07803 0.76185 0.0
C1440 C 0.55154 0.10844 0.76199 0.0
H1441 H 0.52192 0.86327 0.75875 0.0
H1442 H 0.53529 0.93141 0.75954 0.0
C1443 C 0.56098 0.14795 0.76146 0.0
C1444 C 0.50164 0.03616 0.76201 0.0
H1445 H 0.5116 0.96768 0.77746 0.0
C1446 C 0.4806 0.01216 0.75276 0.0
C1447 C 0.51254 0.01995 0.77111 0.0
C1448 C 0.53353 0.04392 0.7815 0.0
C1449 C 0.47089 0.97245 0.75225 0.0
C1450 C 0.48224 0.95644 0.76128 0.0
C1451 C 0.50303 0.98028 0.77056 0.0
C1452 C 0.47374 0.91518 0.76107 0.0
C1453 C 0.44945 0.94814 0.74195 0.0
C1454 C 0.43468 0.88371 0.7618 0.0
C1455 C 0.42687 0.8447 0.76137 0.0
C1456 C 0.45808 0.83673 0.7602 0.0
C1457 C 0.49722 0.86844 0.75961 0.0
C1458 C 0.50496 0.90736 0.76009 0.0
H1459 H 0.44937 0.96682 0.73485 0.0
H1460 H 0.46326 0.93083 0.73897 0.0
H1461 H 0.41826 0.92689 0.74425 0.0
H1462 H 0.41029 0.88937 0.76268 0.0
H1463 H 0.39642 0.82088 0.76185 0.0
H1464 H 0.52386 0.6612 0.56995 0.0
H1465 H 0.5398 0.60817 0.56919 0.0
H1466 H 0.41568 0.52178 0.56635 0.0
H1467 H 0.39924 0.57469 0.56714 0.0
H1468 H 0.46047 0.50662 0.58351 0.0
H1469 H 0.53149 0.53995 0.54093 0.0
H1470 H 0.54887 0.58128 0.55048 0.0
H1471 H 0.49875 0.55762 0.54541 0.0
C1472 C 0.4999 0.63095 0.56911 0.0
C1473 C 0.46027 0.6221 0.56856 0.0
C1474 C 0.50912 0.60076 0.56862 0.0
C1475 C 0.47893 0.56128 0.56756 0.0
C1476 C 0.43934 0.55222 0.56708 0.0
H1477 H 0.47255 0.33661 0.5683 0.0
H1478 H 0.45673 0.38969 0.56805 0.0
C1479 C 0.43004 0.58244 0.56752 0.0
C1480 C 0.48872 0.52936 0.56739 0.0
H1481 H 0.53634 0.49176 0.55195 0.0
C1482 C 0.47686 0.50314 0.5766 0.0
C1483 C 0.51038 0.52534 0.55838 0.0
C1484 C 0.52293 0.5523 0.54818 0.0
C1485 C 0.48664 0.47317 0.57713 0.0
C1486 C 0.50804 0.46889 0.56807 0.0
C1487 C 0.51995 0.49519 0.55887 0.0
C1488 C 0.51782 0.4369 0.56792 0.0
C1489 C 0.47475 0.44694 0.58749 0.0
C1490 C 0.55744 0.44593 0.56754 0.0
C1491 C 0.56665 0.41562 0.56756 0.0
C1492 C 0.5363 0.37584 0.56794 0.0
C1493 C 0.49663 0.36697 0.56811 0.0
C1494 C 0.4875 0.39724 0.56803 0.0
H1495 H 0.46866 0.46085 0.59487 0.0
H1496 H 0.4473 0.41868 0.58561 0.0
H1497 H 0.49818 0.44006 0.58991 0.0
H1498 H 0.58122 0.47644 0.56739 0.0
H1499 H 0.59748 0.42337 0.56744 0.0
H1500 H 0.13565 0.47223 0.90045 0.0
H1501 H 0.06673 0.45653 0.8995 0.0
H1502 H 0.10484 0.58101 0.89827 0.0
H1503 H 0.17399 0.59708 0.89903 0.0
H1504 H 0.02712 0.47827 0.91465 0.0
H1505 H 0.028 0.53674 0.87162 0.0
H1506 H 0.06703 0.52843 0.8766 0.0
H1507 H 0.06563 0.5719 0.88092 0.0
C1508 C 0.12942 0.49631 0.8999 0.0
C1509 C 0.16027 0.53591 0.89976 0.0
C1510 C 0.09003 0.48726 0.89936 0.0
C1511 C 0.08077 0.51758 0.89864 0.0
C1512 C 0.11144 0.55716 0.89855 0.0
H1513 H 0.86347 0.52542 0.90042 0.0
H1514 H 0.93221 0.54022 0.89997 0.0
C1515 C 0.15091 0.56627 0.89905 0.0
C1516 C 0.0389 0.50771 0.89847 0.0
H1517 H 0.97064 0.51774 0.88288 0.0
C1518 C 0.01467 0.48666 0.90768 0.0
C1519 C 0.02287 0.51877 0.88935 0.0
C1520 C 0.04709 0.53989 0.87901 0.0
C1521 C 0.9749 0.47697 0.90812 0.0
C1522 C 0.95897 0.48823 0.89904 0.0
C1523 C 0.98311 0.50921 0.88982 0.0
C1524 C 0.91734 0.47895 0.89905 0.0
C1525 C 0.95044 0.45552 0.9184 0.0
C1526 C 0.88637 0.4396 0.89853 0.0
C1527 C 0.84704 0.43099 0.89877 0.0
C1528 C 0.83815 0.46167 0.89952 0.0
C1529 C 0.86934 0.50111 0.89987 0.0
C1530 C 0.90861 0.50965 0.8996 0.0
H1531 H 0.96919 0.45651 0.92564 0.0
H1532 H 0.93211 0.46847 0.92116 0.0
H1533 H 0.93016 0.42403 0.91619 0.0
H1534 H 0.89265 0.41557 0.89795 0.0
H1535 H 0.82369 0.40031 0.89847 0.0
H1536 H 0.42203 0.81986 0.23335 0.0
H1537 H 0.47681 0.88832 0.23266 0.0
H1538 H 0.39384 0.93055 0.23507 0.0
H1539 H 0.33893 0.86245 0.23572 0.0
H1540 H 0.45466 0.96683 0.2175 0.0
H1541 H 0.51397 0.96582 0.26042 0.0
H1542 H 0.50575 0.92601 0.25105 0.0
H1543 H 0.46433 0.92974 0.25611 0.0
C1544 C 0.41544 0.84372 0.2337 0.0
C1545 C 0.3762 0.8358 0.23462 0.0
C1546 C 0.44674 0.88272 0.23335 0.0
C1547 C 0.43919 0.91424 0.23393 0.0
C1548 C 0.4001 0.90647 0.23466 0.0
H1549 H 0.57547 0.16984 0.23362 0.0
H1550 H 0.52332 0.10039 0.23276 0.0
C1551 C 0.36884 0.86757 0.23505 0.0
C1552 C 0.472 0.95551 0.23379 0.0
H1553 H 0.54937 0.02391 0.24954 0.0
C1554 C 0.47547 0.97942 0.22448 0.0
C1555 C 0.49891 0.97152 0.24293 0.0
C1556 C 0.4956 0.94716 0.25326 0.0
C1557 C 0.50555 0.01915 0.22402 0.0
C1558 C 0.53215 0.03538 0.23324 0.0
C1559 C 0.52884 0.0113 0.2425 0.0
C1560 C 0.56358 0.07737 0.2335 0.0
C1561 C 0.50895 0.04317 0.2136 0.0
C1562 C 0.60331 0.08728 0.23448 0.0
C1563 C 0.63308 0.12683 0.23509 0.0
C1564 C 0.62359 0.15715 0.23475 0.0
C1565 C 0.58373 0.14714 0.23379 0.0
C1566 C 0.55393 0.10752 0.23324 0.0
H1567 H 0.49379 0.02394 0.20617 0.0
H1568 H 0.49478 0.06121 0.21532 0.0
H1569 H 0.54043 0.06353 0.21136 0.0
H1570 H 0.61127 0.06437 0.23476 0.0
H1571 H 0.66352 0.13358 0.23583 0.0
loop_
_geom_bond_atom_site_label_1
_geom_bond_atom_site_label_2
_geom_bond_distance
_geom_bond_site_symmetry_2
_ccdc_geom_bond_type
Co0 O2 2.143 . S
Co0 O8 2.074 . S
Co0 O11 2.093 . S
Co0 O24 2.097 . S
Co0 N41 2.151 . S
Co0 N49 2.214 . S
Co1 O2 2.160 . S
Co1 O7 2.058 . S
Co1 O17 2.057 . S
Co1 O32 2.037 . S
Co1 N36 2.145 . S
Co1 N57 2.257 . S
O2 Co0 2.143 . S
O2 Co1 2.160 . S
C3 O4 1.278 . S
C3 O11 1.224 . S
O4 C3 1.278 . S
C5 O6 1.245 . S
C5 O17 1.232 . S
O6 C5 1.245 . S
O7 Co1 2.058 . S
O7 C33 1.269 . S
O8 Co0 2.074 . S
O8 C33 1.257 . S
H9 C34 0.930 . S
H10 C40 0.930 . S
O11 Co0 2.093 . S
O11 C3 1.224 . S
H12 C44 0.929 . S
H13 C46 0.930 . S
H14 C47 0.930 . S
H15 C45 0.929 . S
H16 C48 0.928 . S
O17 Co1 2.057 . S
O17 C5 1.232 . S
H18 C37 0.929 . S
H19 C38 0.929 . S
H20 C50 0.931 . S
H21 C42 0.929 . S
H22 C51 0.930 . S
H23 C43 0.931 . S
O24 Co0 2.097 . S
O24 C52 1.214 . S
H25 C53 0.929 . S
H26 C54 0.929 . S
H27 C55 0.930 . S
H28 C56 0.929 . S
H29 C58 0.930 . S
H30 C35 0.930 . S
H31 C39 0.930 . S
O32 Co1 2.037 . S
O32 C52 1.234 . S
C33 O7 1.269 . S
C33 O8 1.257 . S
C34 H9 0.930 . S
C34 C37 1.388 . S
C34 C39 1.418 . S
C35 H30 0.930 . S
C35 C38 1.404 . S
C35 C39 1.353 . S
N36 Co1 2.145 . S
N36 C37 1.397 . S
N36 C38 1.334 . S
C37 H18 0.929 . S
C37 C34 1.388 . S
C37 N36 1.397 . S
C38 H19 0.929 . S
C38 C35 1.404 . S
C38 N36 1.334 . S
C39 H31 0.930 . S
C39 C34 1.418 . S
C39 C35 1.353 . S
C40 H10 0.930 . S
C40 N41 1.330 . S
C40 C42 1.446 . S
N41 Co0 2.151 . S
N41 C40 1.330 . S
N41 C45 1.418 . S
C42 H21 0.929 . S
C42 C40 1.446 . S
C42 C43 1.332 . S
C43 H23 0.931 . S
C43 C42 1.332 . S
C43 C44 1.267 . S
C44 H12 0.929 . S
C44 C43 1.267 . S
C44 C45 1.251 . S
C45 H15 0.929 . S
C45 N41 1.418 . S
C45 C44 1.251 . S
C46 H13 0.930 . S
C46 C48 1.406 . S
C46 C51 1.261 . S
C47 H14 0.930 . S
C47 N49 1.325 . S
C47 C50 1.357 . S
C48 H16 0.928 . S
C48 C46 1.406 . S
C48 N49 1.261 . S
N49 Co0 2.214 . S
N49 C47 1.325 . S
N49 C48 1.261 . S
C50 H20 0.931 . S
C50 C47 1.357 . S
C50 C51 1.312 . S
C51 H22 0.930 . S
C51 C46 1.261 . S
C51 C50 1.312 . S
C52 O24 1.214 . S
C52 O32 1.234 . S
C53 H25 0.929 . S
C53 C56 1.391 . S
C53 C58 1.391 . S
C54 H26 0.929 . S
C54 C55 1.390 . S
C54 N57 1.391 . S
C55 H27 0.930 . S
C55 C54 1.390 . S
C55 C56 1.392 . S
C56 H28 0.929 . S
C56 C53 1.391 . S
C56 C55 1.392 . S
N57 Co1 2.257 . S
N57 C54 1.391 . S
N57 C58 1.388 . S
C58 H29 0.930 . S
C58 C53 1.391 . S
C58 N57 1.388 . S
Co59 O61 2.143 . S
Co59 O67 2.074 . S
Co59 O70 2.093 . S
Co59 O83 2.097 . S
Co59 N100 2.151 . S
Co59 N108 2.214 . S
Co60 O61 2.160 . S
Co60 O66 2.058 . S
Co60 O76 2.057 . S
Co60 O91 2.037 . S
Co60 N95 2.145 . S
Co60 N116 2.257 . S
O61 Co59 2.143 . S
O61 Co60 2.160 . S
C62 O63 1.278 . S
C62 O70 1.224 . S
O63 C62 1.278 . S
C64 O65 1.245 . S
C64 O76 1.232 . S
O65 C64 1.245 . S
O66 Co60 2.058 . S
O66 C92 1.269 . S
O67 Co59 2.074 . S
O67 C92 1.257 . S
H68 C93 0.930 . S
H69 C99 0.930 . S
O70 Co59 2.093 . S
O70 C62 1.224 . S
H71 C103 0.929 . S
H72 C105 0.930 . S
H73 C106 0.930 . S
H74 C104 0.929 . S
H75 C107 0.928 . S
O76 Co60 2.057 . S
O76 C64 1.232 . S
H77 C96 0.929 . S
H78 C97 0.929 . S
H79 C109 0.931 . S
H80 C101 0.929 . S
H81 C110 0.930 . S
H82 C102 0.931 . S
O83 Co59 2.097 . S
O83 C111 1.214 . S
H84 C112 0.929 . S
H85 C113 0.929 . S
H86 C114 0.930 . S
H87 C115 0.929 . S
H88 C117 0.930 . S
H89 C94 0.930 . S
H90 C98 0.930 . S
O91 Co60 2.037 . S
O91 C111 1.234 . S
C92 O66 1.269 . S
C92 O67 1.257 . S
C93 H68 0.930 . S
C93 C96 1.388 . S
C93 C98 1.418 . S
C94 H89 0.930 . S
C94 C97 1.404 . S
C94 C98 1.353 . S
N95 Co60 2.145 . S
N95 C96 1.397 . S
N95 C97 1.334 . S
C96 H77 0.929 . S
C96 C93 1.388 . S
C96 N95 1.397 . S
C97 H78 0.929 . S
C97 C94 1.404 . S
C97 N95 1.334 . S
C98 H90 0.930 . S
C98 C93 1.418 . S
C98 C94 1.353 . S
C99 H69 0.930 . S
C99 N100 1.330 . S
C99 C101 1.446 . S
N100 Co59 2.151 . S
N100 C99 1.330 . S
N100 C104 1.418 . S
C101 H80 0.929 . S
C101 C99 1.446 . S
C101 C102 1.332 . S
C102 H82 0.931 . S
C102 C101 1.332 . S
C102 C103 1.267 . S
C103 H71 0.929 . S
C103 C102 1.267 . S
C103 C104 1.251 . S
C104 H74 0.929 . S
C104 N100 1.418 . S
C104 C103 1.251 . S
C105 H72 0.930 . S
C105 C107 1.406 . S
C105 C110 1.261 . S
C106 H73 0.930 . S
C106 N108 1.325 . S
C106 C109 1.357 . S
C107 H75 0.928 . S
C107 C105 1.406 . S
C107 N108 1.261 . S
N108 Co59 2.214 . S
N108 C106 1.325 . S
N108 C107 1.261 . S
C109 H79 0.931 . S
C109 C106 1.357 . S
C109 C110 1.312 . S
C110 H81 0.930 . S
C110 C105 1.261 . S
C110 C109 1.312 . S
C111 O83 1.214 . S
C111 O91 1.234 . S
C112 H84 0.929 . S
C112 C115 1.391 . S
C112 C117 1.391 . S
C113 H85 0.929 . S
C113 C114 1.390 . S
C113 N116 1.391 . S
C114 H86 0.930 . S
C114 C113 1.390 . S
C114 C115 1.392 . S
C115 H87 0.929 . S
C115 C112 1.391 . S
C115 C114 1.392 . S
N116 Co60 2.257 . S
N116 C113 1.391 . S
N116 C117 1.388 . S
C117 H88 0.930 . S
C117 C112 1.391 . S
C117 N116 1.388 . S
Co118 O120 2.143 . S
Co118 O126 2.074 . S
Co118 O129 2.093 . S
Co118 O142 2.097 . S
Co118 N159 2.151 . S
Co118 N167 2.214 . S
Co119 O120 2.160 . S
Co119 O125 2.058 . S
Co119 O135 2.057 . S
Co119 O150 2.037 . S
Co119 N154 2.145 . S
Co119 N175 2.257 . S
O120 Co118 2.143 . S
O120 Co119 2.160 . S
C121 O122 1.278 . S
C121 O129 1.224 . S
O122 C121 1.278 . S
C123 O124 1.245 . S
C123 O135 1.232 . S
O124 C123 1.245 . S
O125 Co119 2.058 . S
O125 C151 1.269 . S
O126 Co118 2.074 . S
O126 C151 1.257 . S
H127 C152 0.930 . S
H128 C158 0.930 . S
O129 Co118 2.093 . S
O129 C121 1.224 . S
H130 C162 0.929 . S
H131 C164 0.930 . S
H132 C165 0.930 . S
H133 C163 0.929 . S
H134 C166 0.928 . S
O135 Co119 2.057 . S
O135 C123 1.232 . S
H136 C155 0.929 . S
H137 C156 0.929 . S
H138 C168 0.931 . S
H139 C160 0.929 . S
H140 C169 0.930 . S
H141 C161 0.931 . S
O142 Co118 2.097 . S
O142 C170 1.214 . S
H143 C171 0.929 . S
H144 C172 0.929 . S
H145 C173 0.930 . S
H146 C174 0.929 . S
H147 C176 0.930 . S
H148 C153 0.930 . S
H149 C157 0.930 . S
O150 Co119 2.037 . S
O150 C170 1.234 . S
C151 O125 1.269 . S
C151 O126 1.257 . S
C152 H127 0.930 . S
C152 C155 1.388 . S
C152 C157 1.418 . S
C153 H148 0.930 . S
C153 C156 1.404 . S
C153 C157 1.353 . S
N154 Co119 2.145 . S
N154 C155 1.397 . S
N154 C156 1.334 . S
C155 H136 0.929 . S
C155 C152 1.388 . S
C155 N154 1.397 . S
C156 H137 0.929 . S
C156 C153 1.404 . S
C156 N154 1.334 . S
C157 H149 0.930 . S
C157 C152 1.418 . S
C157 C153 1.353 . S
C158 H128 0.930 . S
C158 N159 1.330 . S
C158 C160 1.446 . S
N159 Co118 2.151 . S
N159 C158 1.330 . S
N159 C163 1.418 . S
C160 H139 0.929 . S
C160 C158 1.446 . S
C160 C161 1.332 . S
C161 H141 0.931 . S
C161 C160 1.332 . S
C161 C162 1.267 . S
C162 H130 0.929 . S
C162 C161 1.267 . S
C162 C163 1.251 . S
C163 H133 0.929 . S
C163 N159 1.418 . S
C163 C162 1.251 . S
C164 H131 0.930 . S
C164 C166 1.406 . S
C164 C169 1.261 . S
C165 H132 0.930 . S
C165 N167 1.325 . S
C165 C168 1.357 . S
C166 H134 0.928 . S
C166 C164 1.406 . S
C166 N167 1.261 . S
N167 Co118 2.214 . S
N167 C165 1.325 . S
N167 C166 1.261 . S
C168 H138 0.931 . S
C168 C165 1.357 . S
C168 C169 1.312 . S
C169 H140 0.930 . S
C169 C164 1.261 . S
C169 C168 1.312 . S
C170 O142 1.214 . S
C170 O150 1.234 . S
C171 H143 0.929 . S
C171 C174 1.391 . S
C171 C176 1.391 . S
C172 H144 0.929 . S
C172 C173 1.390 . S
C172 N175 1.391 . S
C173 H145 0.930 . S
C173 C172 1.390 . S
C173 C174 1.392 . S
C174 H146 0.929 . S
C174 C171 1.391 . S
C174 C173 1.392 . S
N175 Co119 2.257 . S
N175 C172 1.391 . S
N175 C176 1.388 . S
C176 H147 0.930 . S
C176 C171 1.391 . S
C176 N175 1.388 . S
Co177 O179 2.143 . S
Co177 O185 2.074 . S
Co177 O188 2.093 . S
Co177 O201 2.097 . S
Co177 N218 2.151 . S
Co177 N226 2.214 . S
Co178 O179 2.160 . S
Co178 O184 2.058 . S
Co178 O194 2.057 . S
Co178 O209 2.037 . S
Co178 N213 2.145 . S
Co178 N234 2.257 . S
O179 Co177 2.143 . S
O179 Co178 2.160 . S
C180 O181 1.278 . S
C180 O188 1.224 . S
O181 C180 1.278 . S
C182 O183 1.245 . S
C182 O194 1.232 . S
O183 C182 1.245 . S
O184 Co178 2.058 . S
O184 C210 1.269 . S
O185 Co177 2.074 . S
O185 C210 1.257 . S
H186 C211 0.930 . S
H187 C217 0.930 . S
O188 Co177 2.093 . S
O188 C180 1.224 . S
H189 C221 0.929 . S
H190 C223 0.930 . S
H191 C224 0.930 . S
H192 C222 0.929 . S
H193 C225 0.928 . S
O194 Co178 2.057 . S
O194 C182 1.232 . S
H195 C214 0.929 . S
H196 C215 0.929 . S
H197 C227 0.931 . S
H198 C219 0.929 . S
H199 C228 0.930 . S
H200 C220 0.931 . S
O201 Co177 2.097 . S
O201 C229 1.214 . S
H202 C230 0.929 . S
H203 C231 0.929 . S
H204 C232 0.930 . S
H205 C233 0.929 . S
H206 C235 0.930 . S
H207 C212 0.930 . S
H208 C216 0.930 . S
O209 Co178 2.037 . S
O209 C229 1.234 . S
C210 O184 1.269 . S
C210 O185 1.257 . S
C211 H186 0.930 . S
C211 C214 1.388 . S
C211 C216 1.418 . S
C212 H207 0.930 . S
C212 C215 1.404 . S
C212 C216 1.353 . S
N213 Co178 2.145 . S
N213 C214 1.397 . S
N213 C215 1.334 . S
C214 H195 0.929 . S
C214 C211 1.388 . S
C214 N213 1.397 . S
C215 H196 0.929 . S
C215 C212 1.404 . S
C215 N213 1.334 . S
C216 H208 0.930 . S
C216 C211 1.418 . S
C216 C212 1.353 . S
C217 H187 0.930 . S
C217 N218 1.330 . S
C217 C219 1.446 . S
N218 Co177 2.151 . S
N218 C217 1.330 . S
N218 C222 1.418 . S
C219 H198 0.929 . S
C219 C217 1.446 . S
C219 C220 1.332 . S
C220 H200 0.931 . S
C220 C219 1.332 . S
C220 C221 1.267 . S
C221 H189 0.929 . S
C221 C220 1.267 . S
C221 C222 1.251 . S
C222 H192 0.929 . S
C222 N218 1.418 . S
C222 C221 1.251 . S
C223 H190 0.930 . S
C223 C225 1.406 . S
C223 C228 1.261 . S
C224 H191 0.930 . S
C224 N226 1.325 . S
C224 C227 1.357 . S
C225 H193 0.928 . S
C225 C223 1.406 . S
C225 N226 1.261 . S
N226 Co177 2.214 . S
N226 C224 1.325 . S
N226 C225 1.261 . S
C227 H197 0.931 . S
C227 C224 1.357 . S
C227 C228 1.312 . S
C228 H199 0.930 . S
C228 C223 1.261 . S
C228 C227 1.312 . S
C229 O201 1.214 . S
C229 O209 1.234 . S
C230 H202 0.929 . S
C230 C233 1.391 . S
C230 C235 1.391 . S
C231 H203 0.929 . S
C231 C232 1.390 . S
C231 N234 1.391 . S
C232 H204 0.930 . S
C232 C231 1.390 . S
C232 C233 1.392 . S
C233 H205 0.929 . S
C233 C230 1.391 . S
C233 C232 1.392 . S
N234 Co178 2.257 . S
N234 C231 1.391 . S
N234 C235 1.388 . S
C235 H206 0.930 . S
C235 C230 1.391 . S
C235 N234 1.388 . S
Co236 O238 2.143 . S
Co236 O244 2.074 . S
Co236 O247 2.093 . S
Co236 O260 2.097 . S
Co236 N277 2.151 . S
Co236 N285 2.214 . S
Co237 O238 2.160 . S
Co237 O243 2.058 . S
Co237 O253 2.057 . S
Co237 O268 2.037 . S
Co237 N272 2.145 . S
Co237 N293 2.257 . S
O238 Co236 2.143 . S
O238 Co237 2.160 . S
C239 O240 1.278 . S
C239 O247 1.224 . S
O240 C239 1.278 . S
C241 O242 1.245 . S
C241 O253 1.232 . S
O242 C241 1.245 . S
O243 Co237 2.058 . S
O243 C269 1.269 . S
O244 Co236 2.074 . S
O244 C269 1.257 . S
H245 C270 0.930 . S
H246 C276 0.930 . S
O247 Co236 2.093 . S
O247 C239 1.224 . S
H248 C280 0.929 . S
H249 C282 0.930 . S
H250 C283 0.930 . S
H251 C281 0.929 . S
H252 C284 0.928 . S
O253 Co237 2.057 . S
O253 C241 1.232 . S
H254 C273 0.929 . S
H255 C274 0.929 . S
H256 C286 0.931 . S
H257 C278 0.929 . S
H258 C287 0.930 . S
H259 C279 0.931 . S
O260 Co236 2.097 . S
O260 C288 1.214 . S
H261 C289 0.929 . S
H262 C290 0.929 . S
H263 C291 0.930 . S
H264 C292 0.929 . S
H265 C294 0.930 . S
H266 C271 0.930 . S
H267 C275 0.930 . S
O268 Co237 2.037 . S
O268 C288 1.234 . S
C269 O243 1.269 . S
C269 O244 1.257 . S
C270 H245 0.930 . S
C270 C273 1.388 . S
C270 C275 1.418 . S
C271 H266 0.930 . S
C271 C274 1.404 . S
C271 C275 1.353 . S
N272 Co237 2.145 . S
N272 C273 1.397 . S
N272 C274 1.334 . S
C273 H254 0.929 . S
C273 C270 1.388 . S
C273 N272 1.397 . S
C274 H255 0.929 . S
C274 C271 1.404 . S
C274 N272 1.334 . S
C275 H267 0.930 . S
C275 C270 1.418 . S
C275 C271 1.353 . S
C276 H246 0.930 . S
C276 N277 1.330 . S
C276 C278 1.446 . S
N277 Co236 2.151 . S
N277 C276 1.330 . S
N277 C281 1.418 . S
C278 H257 0.929 . S
C278 C276 1.446 . S
C278 C279 1.332 . S
C279 H259 0.931 . S
C279 C278 1.332 . S
C279 C280 1.267 . S
C280 H248 0.929 . S
C280 C279 1.267 . S
C280 C281 1.251 . S
C281 H251 0.929 . S
C281 N277 1.418 . S
C281 C280 1.251 . S
C282 H249 0.930 . S
C282 C284 1.406 . S
C282 C287 1.261 . S
C283 H250 0.930 . S
C283 N285 1.325 . S
C283 C286 1.357 . S
C284 H252 0.928 . S
C284 C282 1.406 . S
C284 N285 1.261 . S
N285 Co236 2.214 . S
N285 C283 1.325 . S
N285 C284 1.261 . S
C286 H256 0.931 . S
C286 C283 1.357 . S
C286 C287 1.312 . S
C287 H258 0.930 . S
C287 C282 1.261 . S
C287 C286 1.312 . S
C288 O260 1.214 . S
C288 O268 1.234 . S
C289 H261 0.929 . S
C289 C292 1.391 . S
C289 C294 1.391 . S
C290 H262 0.929 . S
C290 C291 1.390 . S
C290 N293 1.391 . S
C291 H263 0.930 . S
C291 C290 1.390 . S
C291 C292 1.392 . S
C292 H264 0.929 . S
C292 C289 1.391 . S
C292 C291 1.392 . S
N293 Co237 2.257 . S
N293 C290 1.391 . S
N293 C294 1.388 . S
C294 H265 0.930 . S
C294 C289 1.391 . S
C294 N293 1.388 . S
Co295 O297 2.143 . S
Co295 O303 2.074 . S
Co295 O306 2.093 . S
Co295 O319 2.097 . S
Co295 N336 2.151 . S
Co295 N344 2.214 . S
Co296 O297 2.160 . S
Co296 O302 2.058 . S
Co296 O312 2.057 . S
Co296 O327 2.037 . S
Co296 N331 2.145 . S
Co296 N352 2.257 . S
O297 Co295 2.143 . S
O297 Co296 2.160 . S
C298 O299 1.278 . S
C298 O306 1.224 . S
O299 C298 1.278 . S
C300 O301 1.245 . S
C300 O312 1.232 . S
O301 C300 1.245 . S
O302 Co296 2.058 . S
O302 C328 1.269 . S
O303 Co295 2.074 . S
O303 C328 1.257 . S
H304 C329 0.930 . S
H305 C335 0.930 . S
O306 Co295 2.093 . S
O306 C298 1.224 . S
H307 C339 0.929 . S
H308 C341 0.930 . S
H309 C342 0.930 . S
H310 C340 0.929 . S
H311 C343 0.928 . S
O312 Co296 2.057 . S
O312 C300 1.232 . S
H313 C332 0.929 . S
H314 C333 0.929 . S
H315 C345 0.931 . S
H316 C337 0.929 . S
H317 C346 0.930 . S
H318 C338 0.931 . S
O319 Co295 2.097 . S
O319 C347 1.214 . S
H320 C348 0.929 . S
H321 C349 0.929 . S
H322 C350 0.930 . S
H323 C351 0.929 . S
H324 C353 0.930 . S
H325 C330 0.930 . S
H326 C334 0.930 . S
O327 Co296 2.037 . S
O327 C347 1.234 . S
C328 O302 1.269 . S
C328 O303 1.257 . S
C329 H304 0.930 . S
C329 C332 1.388 . S
C329 C334 1.418 . S
C330 H325 0.930 . S
C330 C333 1.404 . S
C330 C334 1.353 . S
N331 Co296 2.145 . S
N331 C332 1.397 . S
N331 C333 1.334 . S
C332 H313 0.929 . S
C332 C329 1.388 . S
C332 N331 1.397 . S
C333 H314 0.929 . S
C333 C330 1.404 . S
C333 N331 1.334 . S
C334 H326 0.930 . S
C334 C329 1.418 . S
C334 C330 1.353 . S
C335 H305 0.930 . S
C335 N336 1.330 . S
C335 C337 1.446 . S
N336 Co295 2.151 . S
N336 C335 1.330 . S
N336 C340 1.418 . S
C337 H316 0.929 . S
C337 C335 1.446 . S
C337 C338 1.332 . S
C338 H318 0.931 . S
C338 C337 1.332 . S
C338 C339 1.267 . S
C339 H307 0.929 . S
C339 C338 1.267 . S
C339 C340 1.251 . S
C340 H310 0.929 . S
C340 N336 1.418 . S
C340 C339 1.251 . S
C341 H308 0.930 . S
C341 C343 1.406 . S
C341 C346 1.261 . S
C342 H309 0.930 . S
C342 N344 1.325 . S
C342 C345 1.357 . S
C343 H311 0.928 . S
C343 C341 1.406 . S
C343 N344 1.261 . S
N344 Co295 2.214 . S
N344 C342 1.325 . S
N344 C343 1.261 . S
C345 H315 0.931 . S
C345 C342 1.357 . S
C345 C346 1.312 . S
C346 H317 0.930 . S
C346 C341 1.261 . S
C346 C345 1.312 . S
C347 O319 1.214 . S
C347 O327 1.234 . S
C348 H320 0.929 . S
C348 C351 1.391 . S
C348 C353 1.391 . S
C349 H321 0.929 . S
C349 C350 1.390 . S
C349 N352 1.391 . S
C350 H322 0.930 . S
C350 C349 1.390 . S
C350 C351 1.392 . S
C351 H323 0.929 . S
C351 C348 1.391 . S
C351 C350 1.392 . S
N352 Co296 2.257 . S
N352 C349 1.391 . S
N352 C353 1.388 . S
C353 H324 0.930 . S
C353 C348 1.391 . S
C353 N352 1.388 . S
Co354 O356 2.143 . S
Co354 O362 2.074 . S
Co354 O365 2.093 . S
Co354 O378 2.097 . S
Co354 N395 2.151 . S
Co354 N403 2.214 . S
Co355 O356 2.160 . S
Co355 O361 2.058 . S
Co355 O371 2.057 . S
Co355 O386 2.037 . S
Co355 N390 2.145 . S
Co355 N411 2.257 . S
O356 Co354 2.143 . S
O356 Co355 2.160 . S
C357 O358 1.278 . S
C357 O365 1.224 . S
O358 C357 1.278 . S
C359 O360 1.245 . S
C359 O371 1.232 . S
O360 C359 1.245 . S
O361 Co355 2.058 . S
O361 C387 1.269 . S
O362 Co354 2.074 . S
O362 C387 1.257 . S
H363 C388 0.930 . S
H364 C394 0.930 . S
O365 Co354 2.093 . S
O365 C357 1.224 . S
H366 C398 0.929 . S
H367 C400 0.930 . S
H368 C401 0.930 . S
H369 C399 0.929 . S
H370 C402 0.928 . S
O371 Co355 2.057 . S
O371 C359 1.232 . S
H372 C391 0.929 . S
H373 C392 0.929 . S
H374 C404 0.931 . S
H375 C396 0.929 . S
H376 C405 0.930 . S
H377 C397 0.931 . S
O378 Co354 2.097 . S
O378 C406 1.214 . S
H379 C407 0.929 . S
H380 C408 0.929 . S
H381 C409 0.930 . S
H382 C410 0.929 . S
H383 C412 0.930 . S
H384 C389 0.930 . S
H385 C393 0.930 . S
O386 Co355 2.037 . S
O386 C406 1.234 . S
C387 O361 1.269 . S
C387 O362 1.257 . S
C388 H363 0.930 . S
C388 C391 1.388 . S
C388 C393 1.418 . S
C389 H384 0.930 . S
C389 C392 1.404 . S
C389 C393 1.353 . S
N390 Co355 2.145 . S
N390 C391 1.397 . S
N390 C392 1.334 . S
C391 H372 0.929 . S
C391 C388 1.388 . S
C391 N390 1.397 . S
C392 H373 0.929 . S
C392 C389 1.404 . S
C392 N390 1.334 . S
C393 H385 0.930 . S
C393 C388 1.418 . S
C393 C389 1.353 . S
C394 H364 0.930 . S
C394 N395 1.330 . S
C394 C396 1.446 . S
N395 Co354 2.151 . S
N395 C394 1.330 . S
N395 C399 1.418 . S
C396 H375 0.929 . S
C396 C394 1.446 . S
C396 C397 1.332 . S
C397 H377 0.931 . S
C397 C396 1.332 . S
C397 C398 1.267 . S
C398 H366 0.929 . S
C398 C397 1.267 . S
C398 C399 1.251 . S
C399 H369 0.929 . S
C399 N395 1.418 . S
C399 C398 1.251 . S
C400 H367 0.930 . S
C400 C402 1.406 . S
C400 C405 1.261 . S
C401 H368 0.930 . S
C401 N403 1.325 . S
C401 C404 1.357 . S
C402 H370 0.928 . S
C402 C400 1.406 . S
C402 N403 1.261 . S
N403 Co354 2.214 . S
N403 C401 1.325 . S
N403 C402 1.261 . S
C404 H374 0.931 . S
C404 C401 1.357 . S
C404 C405 1.312 . S
C405 H376 0.930 . S
C405 C400 1.261 . S
C405 C404 1.312 . S
C406 O378 1.214 . S
C406 O386 1.234 . S
C407 H379 0.929 . S
C407 C410 1.391 . S
C407 C412 1.391 . S
C408 H380 0.929 . S
C408 C409 1.390 . S
C408 N411 1.391 . S
C409 H381 0.930 . S
C409 C408 1.390 . S
C409 C410 1.392 . S
C410 H382 0.929 . S
C410 C407 1.391 . S
C410 C409 1.392 . S
N411 Co355 2.257 . S
N411 C408 1.391 . S
N411 C412 1.388 . S
C412 H383 0.930 . S
C412 C407 1.391 . S
C412 N411 1.388 . S
Co413 O415 2.143 . S
Co413 O421 2.074 . S
Co413 O424 2.093 . S
Co413 O437 2.097 . S
Co413 N454 2.151 . S
Co413 N462 2.214 . S
Co414 O415 2.160 . S
Co414 O420 2.058 . S
Co414 O430 2.057 . S
Co414 O445 2.037 . S
Co414 N449 2.145 . S
Co414 N470 2.257 . S
O415 Co413 2.143 . S
O415 Co414 2.160 . S
C416 O417 1.278 . S
C416 O424 1.224 . S
O417 C416 1.278 . S
C418 O419 1.245 . S
C418 O430 1.232 . S
O419 C418 1.245 . S
O420 Co414 2.058 . S
O420 C446 1.269 . S
O421 Co413 2.074 . S
O421 C446 1.257 . S
H422 C447 0.930 . S
H423 C453 0.930 . S
O424 Co413 2.093 . S
O424 C416 1.224 . S
H425 C457 0.929 . S
H426 C459 0.930 . S
H427 C460 0.930 . S
H428 C458 0.929 . S
H429 C461 0.928 . S
O430 Co414 2.057 . S
O430 C418 1.232 . S
H431 C450 0.929 . S
H432 C451 0.929 . S
H433 C463 0.931 . S
H434 C455 0.929 . S
H435 C464 0.930 . S
H436 C456 0.931 . S
O437 Co413 2.097 . S
O437 C465 1.214 . S
H438 C466 0.929 . S
H439 C467 0.929 . S
H440 C468 0.930 . S
H441 C469 0.929 . S
H442 C471 0.930 . S
H443 C448 0.930 . S
H444 C452 0.930 . S
O445 Co414 2.037 . S
O445 C465 1.234 . S
C446 O420 1.269 . S
C446 O421 1.257 . S
C447 H422 0.930 . S
C447 C450 1.388 . S
C447 C452 1.418 . S
C448 H443 0.930 . S
C448 C451 1.404 . S
C448 C452 1.353 . S
N449 Co414 2.145 . S
N449 C450 1.397 . S
N449 C451 1.334 . S
C450 H431 0.929 . S
C450 C447 1.388 . S
C450 N449 1.397 . S
C451 H432 0.929 . S
C451 C448 1.404 . S
C451 N449 1.334 . S
C452 H444 0.930 . S
C452 C447 1.418 . S
C452 C448 1.353 . S
C453 H423 0.930 . S
C453 N454 1.330 . S
C453 C455 1.446 . S
N454 Co413 2.151 . S
N454 C453 1.330 . S
N454 C458 1.418 . S
C455 H434 0.929 . S
C455 C453 1.446 . S
C455 C456 1.332 . S
C456 H436 0.931 . S
C456 C455 1.332 . S
C456 C457 1.267 . S
C457 H425 0.929 . S
C457 C456 1.267 . S
C457 C458 1.251 . S
C458 H428 0.929 . S
C458 N454 1.418 . S
C458 C457 1.251 . S
C459 H426 0.930 . S
C459 C461 1.406 . S
C459 C464 1.261 . S
C460 H427 0.930 . S
C460 N462 1.325 . S
C460 C463 1.357 . S
C461 H429 0.928 . S
C461 C459 1.406 . S
C461 N462 1.261 . S
N462 Co413 2.214 . S
N462 C460 1.325 . S
N462 C461 1.261 . S
C463 H433 0.931 . S
C463 C460 1.357 . S
C463 C464 1.312 . S
C464 H435 0.930 . S
C464 C459 1.261 . S
C464 C463 1.312 . S
C465 O437 1.214 . S
C465 O445 1.234 . S
C466 H438 0.929 . S
C466 C469 1.391 . S
C466 C471 1.391 . S
C467 H439 0.929 . S
C467 C468 1.390 . S
C467 N470 1.391 . S
C468 H440 0.930 . S
C468 C467 1.390 . S
C468 C469 1.392 . S
C469 H441 0.929 . S
C469 C466 1.391 . S
C469 C468 1.392 . S
N470 Co414 2.257 . S
N470 C467 1.391 . S
N470 C471 1.388 . S
C471 H442 0.930 . S
C471 C466 1.391 . S
C471 N470 1.388 . S
Co472 O474 2.143 . S
Co472 O480 2.074 . S
Co472 O483 2.093 . S
Co472 O496 2.097 . S
Co472 N513 2.151 . S
Co472 N521 2.214 . S
Co473 O474 2.160 . S
Co473 O479 2.058 . S
Co473 O489 2.057 . S
Co473 O504 2.037 . S
Co473 N508 2.145 . S
Co473 N529 2.257 . S
O474 Co472 2.143 . S
O474 Co473 2.160 . S
C475 O476 1.278 . S
C475 O483 1.224 . S
O476 C475 1.278 . S
C477 O478 1.245 . S
C477 O489 1.232 . S
O478 C477 1.245 . S
O479 Co473 2.058 . S
O479 C505 1.269 . S
O480 Co472 2.074 . S
O480 C505 1.257 . S
H481 C506 0.930 . S
H482 C512 0.930 . S
O483 Co472 2.093 . S
O483 C475 1.224 . S
H484 C516 0.929 . S
H485 C518 0.930 . S
H486 C519 0.930 . S
H487 C517 0.929 . S
H488 C520 0.928 . S
O489 Co473 2.057 . S
O489 C477 1.232 . S
H490 C509 0.929 . S
H491 C510 0.929 . S
H492 C522 0.931 . S
H493 C514 0.929 . S
H494 C523 0.930 . S
H495 C515 0.931 . S
O496 Co472 2.097 . S
O496 C524 1.214 . S
H497 C525 0.929 . S
H498 C526 0.929 . S
H499 C527 0.930 . S
H500 C528 0.929 . S
H501 C530 0.930 . S
H502 C507 0.930 . S
H503 C511 0.930 . S
O504 Co473 2.037 . S
O504 C524 1.234 . S
C505 O479 1.269 . S
C505 O480 1.257 . S
C506 H481 0.930 . S
C506 C509 1.388 . S
C506 C511 1.418 . S
C507 H502 0.930 . S
C507 C510 1.404 . S
C507 C511 1.353 . S
N508 Co473 2.145 . S
N508 C509 1.397 . S
N508 C510 1.334 . S
C509 H490 0.929 . S
C509 C506 1.388 . S
C509 N508 1.397 . S
C510 H491 0.929 . S
C510 C507 1.404 . S
C510 N508 1.334 . S
C511 H503 0.930 . S
C511 C506 1.418 . S
C511 C507 1.353 . S
C512 H482 0.930 . S
C512 N513 1.330 . S
C512 C514 1.446 . S
N513 Co472 2.151 . S
N513 C512 1.330 . S
N513 C517 1.418 . S
C514 H493 0.929 . S
C514 C512 1.446 . S
C514 C515 1.332 . S
C515 H495 0.931 . S
C515 C514 1.332 . S
C515 C516 1.267 . S
C516 H484 0.929 . S
C516 C515 1.267 . S
C516 C517 1.251 . S
C517 H487 0.929 . S
C517 N513 1.418 . S
C517 C516 1.251 . S
C518 H485 0.930 . S
C518 C520 1.406 . S
C518 C523 1.261 . S
C519 H486 0.930 . S
C519 N521 1.325 . S
C519 C522 1.357 . S
C520 H488 0.928 . S
C520 C518 1.406 . S
C520 N521 1.261 . S
N521 Co472 2.214 . S
N521 C519 1.325 . S
N521 C520 1.261 . S
C522 H492 0.931 . S
C522 C519 1.357 . S
C522 C523 1.312 . S
C523 H494 0.930 . S
C523 C518 1.261 . S
C523 C522 1.312 . S
C524 O496 1.214 . S
C524 O504 1.234 . S
C525 H497 0.929 . S
C525 C528 1.391 . S
C525 C530 1.391 . S
C526 H498 0.929 . S
C526 C527 1.390 . S
C526 N529 1.391 . S
C527 H499 0.930 . S
C527 C526 1.390 . S
C527 C528 1.392 . S
C528 H500 0.929 . S
C528 C525 1.391 . S
C528 C527 1.392 . S
N529 Co473 2.257 . S
N529 C526 1.391 . S
N529 C530 1.388 . S
C530 H501 0.930 . S
C530 C525 1.391 . S
C530 N529 1.388 . S
Co531 O533 2.143 . S
Co531 O539 2.074 . S
Co531 O542 2.093 . S
Co531 O555 2.097 . S
Co531 N572 2.151 . S
Co531 N580 2.214 . S
Co532 O533 2.160 . S
Co532 O538 2.058 . S
Co532 O548 2.057 . S
Co532 O563 2.037 . S
Co532 N567 2.145 . S
Co532 N588 2.257 . S
O533 Co531 2.143 . S
O533 Co532 2.160 . S
C534 O535 1.278 . S
C534 O542 1.224 . S
O535 C534 1.278 . S
C536 O537 1.245 . S
C536 O548 1.232 . S
O537 C536 1.245 . S
O538 Co532 2.058 . S
O538 C564 1.269 . S
O539 Co531 2.074 . S
O539 C564 1.257 . S
H540 C565 0.930 . S
H541 C571 0.930 . S
O542 Co531 2.093 . S
O542 C534 1.224 . S
H543 C575 0.929 . S
H544 C577 0.930 . S
H545 C578 0.930 . S
H546 C576 0.929 . S
H547 C579 0.928 . S
O548 Co532 2.057 . S
O548 C536 1.232 . S
H549 C568 0.929 . S
H550 C569 0.929 . S
H551 C581 0.931 . S
H552 C573 0.929 . S
H553 C582 0.930 . S
H554 C574 0.931 . S
O555 Co531 2.097 . S
O555 C583 1.214 . S
H556 C584 0.929 . S
H557 C585 0.929 . S
H558 C586 0.930 . S
H559 C587 0.929 . S
H560 C589 0.930 . S
H561 C566 0.930 . S
H562 C570 0.930 . S
O563 Co532 2.037 . S
O563 C583 1.234 . S
C564 O538 1.269 . S
C564 O539 1.257 . S
C565 H540 0.930 . S
C565 C568 1.388 . S
C565 C570 1.418 . S
C566 H561 0.930 . S
C566 C569 1.404 . S
C566 C570 1.353 . S
N567 Co532 2.145 . S
N567 C568 1.397 . S
N567 C569 1.334 . S
C568 H549 0.929 . S
C568 C565 1.388 . S
C568 N567 1.397 . S
C569 H550 0.929 . S
C569 C566 1.404 . S
C569 N567 1.334 . S
C570 H562 0.930 . S
C570 C565 1.418 . S
C570 C566 1.353 . S
C571 H541 0.930 . S
C571 N572 1.330 . S
C571 C573 1.446 . S
N572 Co531 2.151 . S
N572 C571 1.330 . S
N572 C576 1.418 . S
C573 H552 0.929 . S
C573 C571 1.446 . S
C573 C574 1.332 . S
C574 H554 0.931 . S
C574 C573 1.332 . S
C574 C575 1.267 . S
C575 H543 0.929 . S
C575 C574 1.267 . S
C575 C576 1.251 . S
C576 H546 0.929 . S
C576 N572 1.418 . S
C576 C575 1.251 . S
C577 H544 0.930 . S
C577 C579 1.406 . S
C577 C582 1.261 . S
C578 H545 0.930 . S
C578 N580 1.325 . S
C578 C581 1.357 . S
C579 H547 0.928 . S
C579 C577 1.406 . S
C579 N580 1.261 . S
N580 Co531 2.214 . S
N580 C578 1.325 . S
N580 C579 1.261 . S
C581 H551 0.931 . S
C581 C578 1.357 . S
C581 C582 1.312 . S
C582 H553 0.930 . S
C582 C577 1.261 . S
C582 C581 1.312 . S
C583 O555 1.214 . S
C583 O563 1.234 . S
C584 H556 0.929 . S
C584 C587 1.391 . S
C584 C589 1.391 . S
C585 H557 0.929 . S
C585 C586 1.390 . S
C585 N588 1.391 . S
C586 H558 0.930 . S
C586 C585 1.390 . S
C586 C587 1.392 . S
C587 H559 0.929 . S
C587 C584 1.391 . S
C587 C586 1.392 . S
N588 Co532 2.257 . S
N588 C585 1.391 . S
N588 C589 1.388 . S
C589 H560 0.930 . S
C589 C584 1.391 . S
C589 N588 1.388 . S
Co590 O592 2.143 . S
Co590 O598 2.074 . S
Co590 O601 2.093 . S
Co590 O614 2.097 . S
Co590 N631 2.151 . S
Co590 N639 2.214 . S
Co591 O592 2.160 . S
Co591 O597 2.058 . S
Co591 O607 2.057 . S
Co591 O622 2.037 . S
Co591 N626 2.145 . S
Co591 N647 2.257 . S
O592 Co590 2.143 . S
O592 Co591 2.160 . S
C593 O594 1.278 . S
C593 O601 1.224 . S
O594 C593 1.278 . S
C595 O596 1.245 . S
C595 O607 1.232 . S
O596 C595 1.245 . S
O597 Co591 2.058 . S
O597 C623 1.269 . S
O598 Co590 2.074 . S
O598 C623 1.257 . S
H599 C624 0.930 . S
H600 C630 0.930 . S
O601 Co590 2.093 . S
O601 C593 1.224 . S
H602 C634 0.929 . S
H603 C636 0.930 . S
H604 C637 0.930 . S
H605 C635 0.929 . S
H606 C638 0.928 . S
O607 Co591 2.057 . S
O607 C595 1.232 . S
H608 C627 0.929 . S
H609 C628 0.929 . S
H610 C640 0.931 . S
H611 C632 0.929 . S
H612 C641 0.930 . S
H613 C633 0.931 . S
O614 Co590 2.097 . S
O614 C642 1.214 . S
H615 C643 0.929 . S
H616 C644 0.929 . S
H617 C645 0.930 . S
H618 C646 0.929 . S
H619 C648 0.930 . S
H620 C625 0.930 . S
H621 C629 0.930 . S
O622 Co591 2.037 . S
O622 C642 1.234 . S
C623 O597 1.269 . S
C623 O598 1.257 . S
C624 H599 0.930 . S
C624 C627 1.388 . S
C624 C629 1.418 . S
C625 H620 0.930 . S
C625 C628 1.404 . S
C625 C629 1.353 . S
N626 Co591 2.145 . S
N626 C627 1.397 . S
N626 C628 1.334 . S
C627 H608 0.929 . S
C627 C624 1.388 . S
C627 N626 1.397 . S
C628 H609 0.929 . S
C628 C625 1.404 . S
C628 N626 1.334 . S
C629 H621 0.930 . S
C629 C624 1.418 . S
C629 C625 1.353 . S
C630 H600 0.930 . S
C630 N631 1.330 . S
C630 C632 1.446 . S
N631 Co590 2.151 . S
N631 C630 1.330 . S
N631 C635 1.418 . S
C632 H611 0.929 . S
C632 C630 1.446 . S
C632 C633 1.332 . S
C633 H613 0.931 . S
C633 C632 1.332 . S
C633 C634 1.267 . S
C634 H602 0.929 . S
C634 C633 1.267 . S
C634 C635 1.251 . S
C635 H605 0.929 . S
C635 N631 1.418 . S
C635 C634 1.251 . S
C636 H603 0.930 . S
C636 C638 1.406 . S
C636 C641 1.261 . S
C637 H604 0.930 . S
C637 N639 1.325 . S
C637 C640 1.357 . S
C638 H606 0.928 . S
C638 C636 1.406 . S
C638 N639 1.261 . S
N639 Co590 2.214 . S
N639 C637 1.325 . S
N639 C638 1.261 . S
C640 H610 0.931 . S
C640 C637 1.357 . S
C640 C641 1.312 . S
C641 H612 0.930 . S
C641 C636 1.261 . S
C641 C640 1.312 . S
C642 O614 1.214 . S
C642 O622 1.234 . S
C643 H615 0.929 . S
C643 C646 1.391 . S
C643 C648 1.391 . S
C644 H616 0.929 . S
C644 C645 1.390 . S
C644 N647 1.391 . S
C645 H617 0.930 . S
C645 C644 1.390 . S
C645 C646 1.392 . S
C646 H618 0.929 . S
C646 C643 1.391 . S
C646 C645 1.392 . S
N647 Co591 2.257 . S
N647 C644 1.391 . S
N647 C648 1.388 . S
C648 H619 0.930 . S
C648 C643 1.391 . S
C648 N647 1.388 . S
Co649 O651 2.143 . S
Co649 O657 2.074 . S
Co649 O660 2.093 . S
Co649 O673 2.097 . S
Co649 N690 2.151 . S
Co649 N698 2.214 . S
Co650 O651 2.160 . S
Co650 O656 2.058 . S
Co650 O666 2.057 . S
Co650 O681 2.037 . S
Co650 N685 2.145 . S
Co650 N706 2.257 . S
O651 Co649 2.143 . S
O651 Co650 2.160 . S
C652 O653 1.278 . S
C652 O660 1.224 . S
O653 C652 1.278 . S
C654 O655 1.245 . S
C654 O666 1.232 . S
O655 C654 1.245 . S
O656 Co650 2.058 . S
O656 C682 1.269 . S
O657 Co649 2.074 . S
O657 C682 1.257 . S
H658 C683 0.930 . S
H659 C689 0.930 . S
O660 Co649 2.093 . S
O660 C652 1.224 . S
H661 C693 0.929 . S
H662 C695 0.930 . S
H663 C696 0.930 . S
H664 C694 0.929 . S
H665 C697 0.928 . S
O666 Co650 2.057 . S
O666 C654 1.232 . S
H667 C686 0.929 . S
H668 C687 0.929 . S
H669 C699 0.931 . S
H670 C691 0.929 . S
H671 C700 0.930 . S
H672 C692 0.931 . S
O673 Co649 2.097 . S
O673 C701 1.214 . S
H674 C702 0.929 . S
H675 C703 0.929 . S
H676 C704 0.930 . S
H677 C705 0.929 . S
H678 C707 0.930 . S
H679 C684 0.930 . S
H680 C688 0.930 . S
O681 Co650 2.037 . S
O681 C701 1.234 . S
C682 O656 1.269 . S
C682 O657 1.257 . S
C683 H658 0.930 . S
C683 C686 1.388 . S
C683 C688 1.418 . S
C684 H679 0.930 . S
C684 C687 1.404 . S
C684 C688 1.353 . S
N685 Co650 2.145 . S
N685 C686 1.397 . S
N685 C687 1.334 . S
C686 H667 0.929 . S
C686 C683 1.388 . S
C686 N685 1.397 . S
C687 H668 0.929 . S
C687 C684 1.404 . S
C687 N685 1.334 . S
C688 H680 0.930 . S
C688 C683 1.418 . S
C688 C684 1.353 . S
C689 H659 0.930 . S
C689 N690 1.330 . S
C689 C691 1.446 . S
N690 Co649 2.151 . S
N690 C689 1.330 . S
N690 C694 1.418 . S
C691 H670 0.929 . S
C691 C689 1.446 . S
C691 C692 1.332 . S
C692 H672 0.931 . S
C692 C691 1.332 . S
C692 C693 1.267 . S
C693 H661 0.929 . S
C693 C692 1.267 . S
C693 C694 1.251 . S
C694 H664 0.929 . S
C694 N690 1.418 . S
C694 C693 1.251 . S
C695 H662 0.930 . S
C695 C697 1.406 . S
C695 C700 1.261 . S
C696 H663 0.930 . S
C696 N698 1.325 . S
C696 C699 1.357 . S
C697 H665 0.928 . S
C697 C695 1.406 . S
C697 N698 1.261 . S
N698 Co649 2.214 . S
N698 C696 1.325 . S
N698 C697 1.261 . S
C699 H669 0.931 . S
C699 C696 1.357 . S
C699 C700 1.312 . S
C700 H671 0.930 . S
C700 C695 1.261 . S
C700 C699 1.312 . S
C701 O673 1.214 . S
C701 O681 1.234 . S
C702 H674 0.929 . S
C702 C705 1.391 . S
C702 C707 1.391 . S
C703 H675 0.929 . S
C703 C704 1.390 . S
C703 N706 1.391 . S
C704 H676 0.930 . S
C704 C703 1.390 . S
C704 C705 1.392 . S
C705 H677 0.929 . S
C705 C702 1.391 . S
C705 C704 1.392 . S
N706 Co650 2.257 . S
N706 C703 1.391 . S
N706 C707 1.388 . S
C707 H678 0.930 . S
C707 C702 1.391 . S
C707 N706 1.388 . S
H708 C716 0.929 . S
H709 C718 0.930 . S
H710 C720 0.930 . S
H711 C723 0.929 . S
H712 C726 0.930 . S
H713 C728 0.960 . S
H714 C728 0.960 . S
H715 C728 0.960 . S
C716 H708 0.929 . S
C716 C717 1.377 . S
C716 C718 1.384 . S
C717 C716 1.377 . S
C717 C723 1.390 . S
C718 H709 0.930 . S
C718 C716 1.384 . S
C718 C719 1.372 . S
C719 C718 1.372 . S
C719 C720 1.400 . S
C719 C724 1.490 . S
C720 H710 0.930 . S
C720 C719 1.400 . S
C720 C723 1.386 . S
H721 C737 0.930 . S
H722 C738 0.931 . S
C723 H711 0.929 . S
C723 C717 1.390 . S
C723 C720 1.386 . S
C724 C719 1.490 . S
C724 C726 1.395 . S
C724 C727 1.403 . S
H725 C731 0.930 . S
C726 H712 0.930 . S
C726 C724 1.395 . S
C726 C729 1.403 1_556 S
C727 C724 1.403 . S
C727 C728 1.524 . S
C727 C731 1.400 1_556 S
C728 H713 0.960 . S
C728 H714 0.960 . S
C728 H715 0.960 . S
C728 C727 1.524 . S
C729 C726 1.403 1_554 S
C729 C730 1.392 . S
C729 C733 1.495 . S
C730 C729 1.392 . S
C730 C731 1.385 . S
C730 C732 1.478 . S
C731 H725 0.930 . S
C731 C727 1.400 1_554 S
C731 C730 1.385 . S
C732 C730 1.478 . S
C732 C734 1.381 . S
C732 C738 1.383 . S
C733 C729 1.495 . S
C733 H739 0.959 . S
C733 H740 0.961 . S
C733 H741 0.960 . S
C734 C732 1.381 . S
C734 C735 1.394 . S
C734 H742 0.930 . S
C735 C734 1.394 . S
C735 C736 1.383 . S
C735 H743 0.929 . S
C736 C735 1.383 . S
C736 C737 1.377 . S
C737 H721 0.930 . S
C737 C736 1.377 . S
C737 C738 1.379 . S
C738 H722 0.931 . S
C738 C732 1.383 . S
C738 C737 1.379 . S
H739 C733 0.959 . S
H740 C733 0.961 . S
H741 C733 0.960 . S
H742 C734 0.930 . S
H743 C735 0.929 . S
H744 C752 0.929 . S
H745 C754 0.930 . S
H746 C756 0.930 . S
H747 C759 0.929 . S
H748 C762 0.930 . S
H749 C764 0.960 . S
H750 C764 0.960 . S
H751 C764 0.960 . S
C752 H744 0.929 . S
C752 C753 1.377 . S
C752 C754 1.384 . S
C753 C752 1.377 . S
C753 C759 1.390 . S
C754 H745 0.930 . S
C754 C752 1.384 . S
C754 C755 1.372 . S
C755 C754 1.372 . S
C755 C756 1.400 . S
C755 C760 1.490 . S
C756 H746 0.930 . S
C756 C755 1.400 . S
C756 C759 1.386 . S
H757 C773 0.930 . S
H758 C774 0.931 . S
C759 H747 0.929 . S
C759 C753 1.390 . S
C759 C756 1.386 . S
C760 C755 1.490 . S
C760 C762 1.395 . S
C760 C763 1.403 . S
H761 C767 0.930 . S
C762 H748 0.930 . S
C762 C760 1.395 . S
C762 C765 1.403 . S
C763 C760 1.403 . S
C763 C764 1.524 . S
C763 C767 1.400 . S
C764 H749 0.960 . S
C764 H750 0.960 . S
C764 H751 0.960 . S
C764 C763 1.524 . S
C765 C762 1.403 . S
C765 C766 1.392 . S
C765 C769 1.495 . S
C766 C765 1.392 . S
C766 C767 1.385 . S
C766 C768 1.478 . S
C767 H761 0.930 . S
C767 C763 1.400 . S
C767 C766 1.385 . S
C768 C766 1.478 . S
C768 C770 1.381 . S
C768 C774 1.383 . S
C769 C765 1.495 . S
C769 H775 0.959 . S
C769 H776 0.961 . S
C769 H777 0.960 . S
C770 C768 1.381 . S
C770 C771 1.394 . S
C770 H778 0.930 . S
C771 C770 1.394 . S
C771 C772 1.383 . S
C771 H779 0.929 . S
C772 C771 1.383 . S
C772 C773 1.377 . S
C773 H757 0.930 . S
C773 C772 1.377 . S
C773 C774 1.379 . S
C774 H758 0.931 . S
C774 C768 1.383 . S
C774 C773 1.379 . S
H775 C769 0.959 . S
H776 C769 0.961 . S
H777 C769 0.960 . S
H778 C770 0.930 . S
H779 C771 0.929 . S
H780 C788 0.929 . S
H781 C790 0.930 . S
H782 C792 0.930 . S
H783 C795 0.929 . S
H784 C798 0.930 . S
H785 C800 0.960 . S
H786 C800 0.960 . S
H787 C800 0.960 . S
C788 H780 0.929 . S
C788 C789 1.377 . S
C788 C790 1.384 . S
C789 C788 1.377 . S
C789 C795 1.390 . S
C790 H781 0.930 . S
C790 C788 1.384 . S
C790 C791 1.372 . S
C791 C790 1.372 . S
C791 C792 1.400 . S
C791 C796 1.490 . S
C792 H782 0.930 . S
C792 C791 1.400 . S
C792 C795 1.386 . S
H793 C809 0.930 . S
H794 C810 0.931 . S
C795 H783 0.929 . S
C795 C789 1.390 . S
C795 C792 1.386 . S
C796 C791 1.490 . S
C796 C798 1.395 . S
C796 C799 1.403 . S
H797 C803 0.930 . S
C798 H784 0.930 . S
C798 C796 1.395 . S
C798 C801 1.403 . S
C799 C796 1.403 . S
C799 C800 1.524 . S
C799 C803 1.400 . S
C800 H785 0.960 . S
C800 H786 0.960 . S
C800 H787 0.960 . S
C800 C799 1.524 . S
C801 C798 1.403 . S
C801 C802 1.392 . S
C801 C805 1.495 . S
C802 C801 1.392 . S
C802 C803 1.385 . S
C802 C804 1.478 . S
C803 H797 0.930 . S
C803 C799 1.400 . S
C803 C802 1.385 . S
C804 C802 1.478 . S
C804 C806 1.381 . S
C804 C810 1.383 . S
C805 C801 1.495 . S
C805 H811 0.959 . S
C805 H812 0.961 . S
C805 H813 0.960 . S
C806 C804 1.381 . S
C806 C807 1.394 . S
C806 H814 0.930 . S
C807 C806 1.394 . S
C807 C808 1.383 . S
C807 H815 0.929 . S
C808 C807 1.383 . S
C808 C809 1.377 . S
C809 H793 0.930 . S
C809 C808 1.377 . S
C809 C810 1.379 . S
C810 H794 0.931 . S
C810 C804 1.383 . S
C810 C809 1.379 . S
H811 C805 0.959 . S
H812 C805 0.961 . S
H813 C805 0.960 . S
H814 C806 0.930 . S
H815 C807 0.929 . S
H816 C824 0.929 . S
H817 C826 0.930 . S
H818 C828 0.930 . S
H819 C831 0.929 . S
H820 C834 0.930 . S
H821 C836 0.960 . S
H822 C836 0.960 . S
H823 C836 0.960 . S
C824 H816 0.929 . S
C824 C825 1.377 . S
C824 C826 1.384 . S
C825 C824 1.377 . S
C825 C831 1.390 . S
C826 H817 0.930 . S
C826 C824 1.384 . S
C826 C827 1.372 . S
C827 C826 1.372 . S
C827 C828 1.400 . S
C827 C832 1.490 . S
C828 H818 0.930 . S
C828 C827 1.400 . S
C828 C831 1.386 . S
H829 C845 0.930 . S
H830 C846 0.931 . S
C831 H819 0.929 . S
C831 C825 1.390 . S
C831 C828 1.386 . S
C832 C827 1.490 . S
C832 C834 1.395 . S
C832 C835 1.403 . S
H833 C839 0.930 . S
C834 H820 0.930 . S
C834 C832 1.395 . S
C834 C837 1.403 1_554 S
C835 C832 1.403 . S
C835 C836 1.524 . S
C835 C839 1.400 1_554 S
C836 H821 0.960 . S
C836 H822 0.960 . S
C836 H823 0.960 . S
C836 C835 1.524 . S
C837 C834 1.403 1_556 S
C837 C838 1.392 . S
C837 C841 1.495 . S
C838 C837 1.392 . S
C838 C839 1.385 . S
C838 C840 1.478 . S
C839 H833 0.930 . S
C839 C835 1.400 1_556 S
C839 C838 1.385 . S
C840 C838 1.478 . S
C840 C842 1.381 . S
C840 C846 1.383 . S
C841 C837 1.495 . S
C841 H847 0.959 . S
C841 H848 0.961 . S
C841 H849 0.960 . S
C842 C840 1.381 . S
C842 C843 1.394 . S
C842 H850 0.930 . S
C843 C842 1.394 . S
C843 C844 1.383 . S
C843 H851 0.929 . S
C844 C843 1.383 . S
C844 C845 1.377 . S
C845 H829 0.930 . S
C845 C844 1.377 . S
C845 C846 1.379 . S
C846 H830 0.931 . S
C846 C840 1.383 . S
C846 C845 1.379 . S
H847 C841 0.959 . S
H848 C841 0.961 . S
H849 C841 0.960 . S
H850 C842 0.930 . S
H851 C843 0.929 . S
H852 C860 0.929 . S
H853 C862 0.930 . S
H854 C864 0.930 . S
H855 C867 0.929 . S
H856 C870 0.930 . S
H857 C872 0.960 . S
H858 C872 0.960 . S
H859 C872 0.960 . S
C860 H852 0.929 . S
C860 C861 1.377 . S
C860 C862 1.384 . S
C861 C860 1.377 . S
C861 C867 1.390 . S
C862 H853 0.930 . S
C862 C860 1.384 . S
C862 C863 1.372 . S
C863 C862 1.372 . S
C863 C864 1.400 . S
C863 C868 1.490 . S
C864 H854 0.930 . S
C864 C863 1.400 . S
C864 C867 1.386 . S
H865 C881 0.930 . S
H866 C882 0.931 . S
C867 H855 0.929 . S
C867 C861 1.390 . S
C867 C864 1.386 . S
C868 C863 1.490 . S
C868 C870 1.395 . S
C868 C871 1.403 . S
H869 C875 0.930 . S
C870 H856 0.930 . S
C870 C868 1.395 . S
C870 C873 1.403 . S
C871 C868 1.403 . S
C871 C872 1.524 . S
C871 C875 1.400 . S
C872 H857 0.960 . S
C872 H858 0.960 . S
C872 H859 0.960 . S
C872 C871 1.524 . S
C873 C870 1.403 . S
C873 C874 1.392 . S
C873 C877 1.495 . S
C874 C873 1.392 . S
C874 C875 1.385 . S
C874 C876 1.478 . S
C875 H869 0.930 . S
C875 C871 1.400 . S
C875 C874 1.385 . S
C876 C874 1.478 . S
C876 C878 1.381 . S
C876 C882 1.383 . S
C877 C873 1.495 . S
C877 H883 0.959 . S
C877 H884 0.961 . S
C877 H885 0.960 . S
C878 C876 1.381 . S
C878 C879 1.394 . S
C878 H886 0.930 . S
C879 C878 1.394 . S
C879 C880 1.383 . S
C879 H887 0.929 . S
C880 C879 1.383 . S
C880 C881 1.377 . S
C881 H865 0.930 . S
C881 C880 1.377 . S
C881 C882 1.379 . S
C882 H866 0.931 . S
C882 C876 1.383 . S
C882 C881 1.379 . S
H883 C877 0.959 . S
H884 C877 0.961 . S
H885 C877 0.960 . S
H886 C878 0.930 . S
H887 C879 0.929 . S
H888 C896 0.929 . S
H889 C898 0.930 . S
H890 C900 0.930 . S
H891 C903 0.929 . S
H892 C906 0.930 . S
H893 C908 0.960 . S
H894 C908 0.960 . S
H895 C908 0.960 . S
C896 H888 0.929 . S
C896 C897 1.377 . S
C896 C898 1.384 . S
C897 C896 1.377 . S
C897 C903 1.390 . S
C898 H889 0.930 . S
C898 C896 1.384 . S
C898 C899 1.372 . S
C899 C898 1.372 . S
C899 C900 1.400 . S
C899 C904 1.490 . S
C900 H890 0.930 . S
C900 C899 1.400 . S
C900 C903 1.386 . S
H901 C917 0.930 . S
H902 C918 0.931 . S
C903 H891 0.929 . S
C903 C897 1.390 . S
C903 C900 1.386 . S
C904 C899 1.490 . S
C904 C906 1.395 . S
C904 C907 1.403 . S
H905 C911 0.930 . S
C906 H892 0.930 . S
C906 C904 1.395 . S
C906 C909 1.403 . S
C907 C904 1.403 . S
C907 C908 1.524 . S
C907 C911 1.400 . S
C908 H893 0.960 . S
C908 H894 0.960 . S
C908 H895 0.960 . S
C908 C907 1.524 . S
C909 C906 1.403 . S
C909 C910 1.392 . S
C909 C913 1.495 . S
C910 C909 1.392 . S
C910 C911 1.385 . S
C910 C912 1.478 . S
C911 H905 0.930 . S
C911 C907 1.400 . S
C911 C910 1.385 . S
C912 C910 1.478 . S
C912 C914 1.381 . S
C912 C918 1.383 . S
C913 C909 1.495 . S
C913 H919 0.959 . S
C913 H920 0.961 . S
C913 H921 0.960 . S
C914 C912 1.381 . S
C914 C915 1.394 . S
C914 H922 0.930 . S
C915 C914 1.394 . S
C915 C916 1.383 . S
C915 H923 0.929 . S
C916 C915 1.383 . S
C916 C917 1.377 . S
C917 H901 0.930 . S
C917 C916 1.377 . S
C917 C918 1.379 . S
C918 H902 0.931 . S
C918 C912 1.383 . S
C918 C917 1.379 . S
H919 C913 0.959 . S
H920 C913 0.961 . S
H921 C913 0.960 . S
H922 C914 0.930 . S
H923 C915 0.929 . S
H924 C932 0.929 . S
H925 C934 0.930 . S
H926 C936 0.930 . S
H927 C939 0.929 . S
H928 C942 0.930 . S
H929 C944 0.960 . S
H930 C944 0.960 . S
H931 C944 0.960 . S
C932 H924 0.929 . S
C932 C933 1.377 . S
C932 C934 1.384 . S
C933 C932 1.377 . S
C933 C939 1.390 . S
C934 H925 0.930 . S
C934 C932 1.384 . S
C934 C935 1.372 . S
C935 C934 1.372 . S
C935 C936 1.400 . S
C935 C940 1.490 . S
C936 H926 0.930 . S
C936 C935 1.400 . S
C936 C939 1.386 . S
H937 C953 0.930 . S
H938 C954 0.931 . S
C939 H927 0.929 . S
C939 C933 1.390 . S
C939 C936 1.386 . S
C940 C935 1.490 . S
C940 C942 1.395 . S
C940 C943 1.403 . S
H941 C947 0.930 . S
C942 H928 0.930 . S
C942 C940 1.395 . S
C942 C945 1.403 . S
C943 C940 1.403 . S
C943 C944 1.524 . S
C943 C947 1.400 . S
C944 H929 0.960 . S
C944 H930 0.960 . S
C944 H931 0.960 . S
C944 C943 1.524 . S
C945 C942 1.403 . S
C945 C946 1.392 . S
C945 C949 1.495 . S
C946 C945 1.392 . S
C946 C947 1.385 . S
C946 C948 1.478 . S
C947 H941 0.930 . S
C947 C943 1.400 . S
C947 C946 1.385 . S
C948 C946 1.478 . S
C948 C950 1.381 . S
C948 C954 1.383 . S
C949 C945 1.495 . S
C949 H955 0.959 . S
C949 H956 0.961 . S
C949 H957 0.960 . S
C950 C948 1.381 . S
C950 C951 1.394 . S
C950 H958 0.930 . S
C951 C950 1.394 . S
C951 C952 1.383 . S
C951 H959 0.929 . S
C952 C951 1.383 . S
C952 C953 1.377 . S
C953 H937 0.930 . S
C953 C952 1.377 . S
C953 C954 1.379 . S
C954 H938 0.931 . S
C954 C948 1.383 . S
C954 C953 1.379 . S
H955 C949 0.959 . S
H956 C949 0.961 . S
H957 C949 0.960 . S
H958 C950 0.930 . S
H959 C951 0.929 . S
H960 C968 0.929 . S
H961 C970 0.930 . S
H962 C972 0.930 . S
H963 C975 0.929 . S
H964 C978 0.930 . S
H965 C980 0.960 . S
H966 C980 0.960 . S
H967 C980 0.960 . S
C968 H960 0.929 . S
C968 C969 1.377 . S
C968 C970 1.384 . S
C969 C968 1.377 . S
C969 C975 1.390 . S
C970 H961 0.930 . S
C970 C968 1.384 . S
C970 C971 1.372 . S
C971 C970 1.372 . S
C971 C972 1.400 . S
C971 C976 1.490 . S
C972 H962 0.930 . S
C972 C971 1.400 . S
C972 C975 1.386 . S
H973 C989 0.930 . S
H974 C990 0.931 . S
C975 H963 0.929 . S
C975 C969 1.390 . S
C975 C972 1.386 . S
C976 C971 1.490 . S
C976 C978 1.395 . S
C976 C979 1.403 . S
H977 C983 0.930 . S
C978 H964 0.930 . S
C978 C976 1.395 . S
C978 C981 1.403 . S
C979 C976 1.403 . S
C979 C980 1.524 . S
C979 C983 1.400 . S
C980 H965 0.960 . S
C980 H966 0.960 . S
C980 H967 0.960 . S
C980 C979 1.524 . S
C981 C978 1.403 . S
C981 C982 1.392 . S
C981 C985 1.495 . S
C982 C981 1.392 . S
C982 C983 1.385 . S
C982 C984 1.478 . S
C983 H977 0.930 . S
C983 C979 1.400 . S
C983 C982 1.385 . S
C984 C982 1.478 . S
C984 C986 1.381 . S
C984 C990 1.383 . S
C985 C981 1.495 . S
C985 H991 0.959 . S
C985 H992 0.961 . S
C985 H993 0.960 . S
C986 C984 1.381 . S
C986 C987 1.394 . S
C986 H994 0.930 . S
C987 C986 1.394 . S
C987 C988 1.383 . S
C987 H995 0.929 . S
C988 C987 1.383 . S
C988 C989 1.377 . S
C989 H973 0.930 . S
C989 C988 1.377 . S
C989 C990 1.379 . S
C990 H974 0.931 . S
C990 C984 1.383 . S
C990 C989 1.379 . S
H991 C985 0.959 . S
H992 C985 0.961 . S
H993 C985 0.960 . S
H994 C986 0.930 . S
H995 C987 0.929 . S
H996 C1004 0.929 . S
H997 C1006 0.930 . S
H998 C1008 0.930 . S
H999 C1011 0.929 . S
H1000 C1014 0.930 . S
H1001 C1016 0.960 . S
H1002 C1016 0.960 . S
H1003 C1016 0.960 . S
C1004 H996 0.929 . S
C1004 C1005 1.377 . S
C1004 C1006 1.384 . S
C1005 C1004 1.377 . S
C1005 C1011 1.390 . S
C1006 H997 0.930 . S
C1006 C1004 1.384 . S
C1006 C1007 1.372 . S
C1007 C1006 1.372 . S
C1007 C1008 1.400 . S
C1007 C1012 1.490 . S
C1008 H998 0.930 . S
C1008 C1007 1.400 . S
C1008 C1011 1.386 . S
H1009 C1025 0.930 . S
H1010 C1026 0.931 . S
C1011 H999 0.929 . S
C1011 C1005 1.390 . S
C1011 C1008 1.386 . S
C1012 C1007 1.490 . S
C1012 C1014 1.395 . S
C1012 C1015 1.403 . S
H1013 C1019 0.930 . S
C1014 H1000 0.930 . S
C1014 C1012 1.395 . S
C1014 C1017 1.403 . S
C1015 C1012 1.403 . S
C1015 C1016 1.524 . S
C1015 C1019 1.400 . S
C1016 H1001 0.960 . S
C1016 H1002 0.960 . S
C1016 H1003 0.960 . S
C1016 C1015 1.524 . S
C1017 C1014 1.403 . S
C1017 C1018 1.392 . S
C1017 C1021 1.495 . S
C1018 C1017 1.392 . S
C1018 C1019 1.385 . S
C1018 C1020 1.478 . S
C1019 H1013 0.930 . S
C1019 C1015 1.400 . S
C1019 C1018 1.385 . S
C1020 C1018 1.478 . S
C1020 C1022 1.381 . S
C1020 C1026 1.383 . S
C1021 C1017 1.495 . S
C1021 H1027 0.959 . S
C1021 H1028 0.961 . S
C1021 H1029 0.960 . S
C1022 C1020 1.381 . S
C1022 C1023 1.394 . S
C1022 H1030 0.930 . S
C1023 C1022 1.394 . S
C1023 C1024 1.383 . S
C1023 H1031 0.929 . S
C1024 C1023 1.383 . S
C1024 C1025 1.377 . S
C1025 H1009 0.930 . S
C1025 C1024 1.377 . S
C1025 C1026 1.379 . S
C1026 H1010 0.931 . S
C1026 C1020 1.383 . S
C1026 C1025 1.379 . S
H1027 C1021 0.959 . S
H1028 C1021 0.961 . S
H1029 C1021 0.960 . S
H1030 C1022 0.930 . S
H1031 C1023 0.929 . S
H1032 C1040 0.929 . S
H1033 C1042 0.930 . S
H1034 C1044 0.930 . S
H1035 C1047 0.929 . S
H1036 C1050 0.930 . S
H1037 C1052 0.960 . S
H1038 C1052 0.960 . S
H1039 C1052 0.960 . S
C1040 H1032 0.929 . S
C1040 C1041 1.377 . S
C1040 C1042 1.384 . S
C1041 C1040 1.377 . S
C1041 C1047 1.390 . S
C1042 H1033 0.930 . S
C1042 C1040 1.384 . S
C1042 C1043 1.372 . S
C1043 C1042 1.372 . S
C1043 C1044 1.400 . S
C1043 C1048 1.490 . S
C1044 H1034 0.930 . S
C1044 C1043 1.400 . S
C1044 C1047 1.386 . S
H1045 C1061 0.930 . S
H1046 C1062 0.931 . S
C1047 H1035 0.929 . S
C1047 C1041 1.390 . S
C1047 C1044 1.386 . S
C1048 C1043 1.490 . S
C1048 C1050 1.395 . S
C1048 C1051 1.403 . S
H1049 C1055 0.930 . S
C1050 H1036 0.930 . S
C1050 C1048 1.395 . S
C1050 C1053 1.403 . S
C1051 C1048 1.403 . S
C1051 C1052 1.524 . S
C1051 C1055 1.400 . S
C1052 H1037 0.960 . S
C1052 H1038 0.960 . S
C1052 H1039 0.960 . S
C1052 C1051 1.524 . S
C1053 C1050 1.403 . S
C1053 C1054 1.392 . S
C1053 C1057 1.495 . S
C1054 C1053 1.392 . S
C1054 C1055 1.385 . S
C1054 C1056 1.478 . S
C1055 H1049 0.930 . S
C1055 C1051 1.400 . S
C1055 C1054 1.385 . S
C1056 C1054 1.478 . S
C1056 C1058 1.381 . S
C1056 C1062 1.383 . S
C1057 C1053 1.495 . S
C1057 H1063 0.959 . S
C1057 H1064 0.961 . S
C1057 H1065 0.960 . S
C1058 C1056 1.381 . S
C1058 C1059 1.394 . S
C1058 H1066 0.930 . S
C1059 C1058 1.394 . S
C1059 C1060 1.383 . S
C1059 H1067 0.929 . S
C1060 C1059 1.383 . S
C1060 C1061 1.377 . S
C1061 H1045 0.930 . S
C1061 C1060 1.377 . S
C1061 C1062 1.379 . S
C1062 H1046 0.931 . S
C1062 C1056 1.383 . S
C1062 C1061 1.379 . S
H1063 C1057 0.959 . S
H1064 C1057 0.961 . S
H1065 C1057 0.960 . S
H1066 C1058 0.930 . S
H1067 C1059 0.929 . S
H1068 C1076 0.929 . S
H1069 C1078 0.930 . S
H1070 C1080 0.930 . S
H1071 C1083 0.929 . S
H1072 C1086 0.930 . S
H1073 C1088 0.960 . S
H1074 C1088 0.960 . S
H1075 C1088 0.960 . S
C1076 H1068 0.929 . S
C1076 C1077 1.377 . S
C1076 C1078 1.384 . S
C1077 C1076 1.377 . S
C1077 C1083 1.390 . S
C1078 H1069 0.930 . S
C1078 C1076 1.384 . S
C1078 C1079 1.372 . S
C1079 C1078 1.372 . S
C1079 C1080 1.400 . S
C1079 C1084 1.490 . S
C1080 H1070 0.930 . S
C1080 C1079 1.400 . S
C1080 C1083 1.386 . S
H1081 C1097 0.930 . S
H1082 C1098 0.931 . S
C1083 H1071 0.929 . S
C1083 C1077 1.390 . S
C1083 C1080 1.386 . S
C1084 C1079 1.490 . S
C1084 C1086 1.395 . S
C1084 C1087 1.403 . S
H1085 C1091 0.930 . S
C1086 H1072 0.930 . S
C1086 C1084 1.395 . S
C1086 C1089 1.403 . S
C1087 C1084 1.403 . S
C1087 C1088 1.524 . S
C1087 C1091 1.400 . S
C1088 H1073 0.960 . S
C1088 H1074 0.960 . S
C1088 H1075 0.960 . S
C1088 C1087 1.524 . S
C1089 C1086 1.403 . S
C1089 C1090 1.392 . S
C1089 C1093 1.495 . S
C1090 C1089 1.392 . S
C1090 C1091 1.385 . S
C1090 C1092 1.478 . S
C1091 H1085 0.930 . S
C1091 C1087 1.400 . S
C1091 C1090 1.385 . S
C1092 C1090 1.478 . S
C1092 C1094 1.381 . S
C1092 C1098 1.383 . S
C1093 C1089 1.495 . S
C1093 H1099 0.959 . S
C1093 H1100 0.961 . S
C1093 H1101 0.960 . S
C1094 C1092 1.381 . S
C1094 C1095 1.394 . S
C1094 H1102 0.930 . S
C1095 C1094 1.394 . S
C1095 C1096 1.383 . S
C1095 H1103 0.929 . S
C1096 C1095 1.383 . S
C1096 C1097 1.377 . S
C1097 H1081 0.930 . S
C1097 C1096 1.377 . S
C1097 C1098 1.379 . S
C1098 H1082 0.931 . S
C1098 C1092 1.383 . S
C1098 C1097 1.379 . S
H1099 C1093 0.959 . S
H1100 C1093 0.961 . S
H1101 C1093 0.960 . S
H1102 C1094 0.930 . S
H1103 C1095 0.929 . S
H1104 C1112 0.929 . S
H1105 C1114 0.930 . S
H1106 C1116 0.930 . S
H1107 C1119 0.929 . S
H1108 C1122 0.930 . S
H1109 C1124 0.960 . S
H1110 C1124 0.960 . S
H1111 C1124 0.960 . S
C1112 H1104 0.929 . S
C1112 C1113 1.377 . S
C1112 C1114 1.384 . S
C1113 C1112 1.377 . S
C1113 C1119 1.390 . S
C1114 H1105 0.930 . S
C1114 C1112 1.384 . S
C1114 C1115 1.372 . S
C1115 C1114 1.372 . S
C1115 C1116 1.400 . S
C1115 C1120 1.490 . S
C1116 H1106 0.930 . S
C1116 C1115 1.400 . S
C1116 C1119 1.386 . S
H1117 C1133 0.930 . S
H1118 C1134 0.931 . S
C1119 H1107 0.929 . S
C1119 C1113 1.390 . S
C1119 C1116 1.386 . S
C1120 C1115 1.490 . S
C1120 C1122 1.395 . S
C1120 C1123 1.403 . S
H1121 C1127 0.930 . S
C1122 H1108 0.930 . S
C1122 C1120 1.395 . S
C1122 C1125 1.403 . S
C1123 C1120 1.403 . S
C1123 C1124 1.524 . S
C1123 C1127 1.400 . S
C1124 H1109 0.960 . S
C1124 H1110 0.960 . S
C1124 H1111 0.960 . S
C1124 C1123 1.524 . S
C1125 C1122 1.403 . S
C1125 C1126 1.392 . S
C1125 C1129 1.495 . S
C1126 C1125 1.392 . S
C1126 C1127 1.385 . S
C1126 C1128 1.478 . S
C1127 H1121 0.930 . S
C1127 C1123 1.400 . S
C1127 C1126 1.385 . S
C1128 C1126 1.478 . S
C1128 C1130 1.381 . S
C1128 C1134 1.383 . S
C1129 C1125 1.495 . S
C1129 H1135 0.959 . S
C1129 H1136 0.961 . S
C1129 H1137 0.960 . S
C1130 C1128 1.381 . S
C1130 C1131 1.394 . S
C1130 H1138 0.930 . S
C1131 C1130 1.394 . S
C1131 C1132 1.383 . S
C1131 H1139 0.929 . S
C1132 C1131 1.383 . S
C1132 C1133 1.377 . S
C1133 H1117 0.930 . S
C1133 C1132 1.377 . S
C1133 C1134 1.379 . S
C1134 H1118 0.931 . S
C1134 C1128 1.383 . S
C1134 C1133 1.379 . S
H1135 C1129 0.959 . S
H1136 C1129 0.961 . S
H1137 C1129 0.960 . S
H1138 C1130 0.930 . S
H1139 C1131 0.929 . S
H1140 C1148 0.929 . S
H1141 C1150 0.930 . S
H1142 C1152 0.930 . S
H1143 C1155 0.929 . S
H1144 C1158 0.930 . S
H1145 C1160 0.960 . S
H1146 C1160 0.960 . S
H1147 C1160 0.960 . S
C1148 H1140 0.929 . S
C1148 C1149 1.377 . S
C1148 C1150 1.384 . S
C1149 C1148 1.377 . S
C1149 C1155 1.390 . S
C1150 H1141 0.930 . S
C1150 C1148 1.384 . S
C1150 C1151 1.372 . S
C1151 C1150 1.372 . S
C1151 C1152 1.400 . S
C1151 C1156 1.490 . S
C1152 H1142 0.930 . S
C1152 C1151 1.400 . S
C1152 C1155 1.386 . S
H1153 C1169 0.930 . S
H1154 C1170 0.931 . S
C1155 H1143 0.929 . S
C1155 C1149 1.390 . S
C1155 C1152 1.386 . S
C1156 C1151 1.490 . S
C1156 C1158 1.395 . S
C1156 C1159 1.403 . S
H1157 C1163 0.930 . S
C1158 H1144 0.930 . S
C1158 C1156 1.395 . S
C1158 C1161 1.403 1_655 S
C1159 C1156 1.403 . S
C1159 C1160 1.524 . S
C1159 C1163 1.400 1_655 S
C1160 H1145 0.960 . S
C1160 H1146 0.960 . S
C1160 H1147 0.960 . S
C1160 C1159 1.524 . S
C1161 C1158 1.403 1_455 S
C1161 C1162 1.392 . S
C1161 C1165 1.495 . S
C1162 C1161 1.392 . S
C1162 C1163 1.385 . S
C1162 C1164 1.478 . S
C1163 H1157 0.930 . S
C1163 C1159 1.400 1_455 S
C1163 C1162 1.385 . S
C1164 C1162 1.478 . S
C1164 C1166 1.381 . S
C1164 C1170 1.383 . S
C1165 C1161 1.495 . S
C1165 H1171 0.959 . S
C1165 H1172 0.961 . S
C1165 H1173 0.960 . S
C1166 C1164 1.381 . S
C1166 C1167 1.394 . S
C1166 H1174 0.930 . S
C1167 C1166 1.394 . S
C1167 C1168 1.383 . S
C1167 H1175 0.929 . S
C1168 C1167 1.383 . S
C1168 C1169 1.377 . S
C1169 H1153 0.930 . S
C1169 C1168 1.377 . S
C1169 C1170 1.379 . S
C1170 H1154 0.931 . S
C1170 C1164 1.383 . S
C1170 C1169 1.379 . S
H1171 C1165 0.959 . S
H1172 C1165 0.961 . S
H1173 C1165 0.960 . S
H1174 C1166 0.930 . S
H1175 C1167 0.929 . S
H1176 C1184 0.929 . S
H1177 C1186 0.930 . S
H1178 C1188 0.930 . S
H1179 C1191 0.929 . S
H1180 C1194 0.930 . S
H1181 C1196 0.960 . S
H1182 C1196 0.960 . S
H1183 C1196 0.960 . S
C1184 H1176 0.929 . S
C1184 C1185 1.377 . S
C1184 C1186 1.384 . S
C1185 C1184 1.377 . S
C1185 C1191 1.390 . S
C1186 H1177 0.930 . S
C1186 C1184 1.384 . S
C1186 C1187 1.372 . S
C1187 C1186 1.372 . S
C1187 C1188 1.400 . S
C1187 C1192 1.490 . S
C1188 H1178 0.930 . S
C1188 C1187 1.400 . S
C1188 C1191 1.386 . S
H1189 C1205 0.930 . S
H1190 C1206 0.931 . S
C1191 H1179 0.929 . S
C1191 C1185 1.390 . S
C1191 C1188 1.386 . S
C1192 C1187 1.490 . S
C1192 C1194 1.395 . S
C1192 C1195 1.403 . S
H1193 C1199 0.930 . S
C1194 H1180 0.930 . S
C1194 C1192 1.395 . S
C1194 C1197 1.403 1_545 S
C1195 C1192 1.403 . S
C1195 C1196 1.524 . S
C1195 C1199 1.400 1_545 S
C1196 H1181 0.960 . S
C1196 H1182 0.960 . S
C1196 H1183 0.960 . S
C1196 C1195 1.524 . S
C1197 C1194 1.403 1_565 S
C1197 C1198 1.392 . S
C1197 C1201 1.495 . S
C1198 C1197 1.392 . S
C1198 C1199 1.385 . S
C1198 C1200 1.478 . S
C1199 H1193 0.930 . S
C1199 C1195 1.400 1_565 S
C1199 C1198 1.385 . S
C1200 C1198 1.478 . S
C1200 C1202 1.381 . S
C1200 C1206 1.383 . S
C1201 C1197 1.495 . S
C1201 H1207 0.959 . S
C1201 H1208 0.961 . S
C1201 H1209 0.960 . S
C1202 C1200 1.381 . S
C1202 C1203 1.394 . S
C1202 H1210 0.930 . S
C1203 C1202 1.394 . S
C1203 C1204 1.383 . S
C1203 H1211 0.929 . S
C1204 C1203 1.383 . S
C1204 C1205 1.377 . S
C1205 H1189 0.930 . S
C1205 C1204 1.377 . S
C1205 C1206 1.379 . S
C1206 H1190 0.931 . S
C1206 C1200 1.383 . S
C1206 C1205 1.379 . S
H1207 C1201 0.959 . S
H1208 C1201 0.961 . S
H1209 C1201 0.960 . S
H1210 C1202 0.930 . S
H1211 C1203 0.929 . S
H1212 C1220 0.929 . S
H1213 C1222 0.930 . S
H1214 C1224 0.930 . S
H1215 C1227 0.929 . S
H1216 C1230 0.930 . S
H1217 C1232 0.960 . S
H1218 C1232 0.960 . S
H1219 C1232 0.960 . S
C1220 H1212 0.929 . S
C1220 C1221 1.377 . S
C1220 C1222 1.384 . S
C1221 C1220 1.377 . S
C1221 C1227 1.390 . S
C1222 H1213 0.930 . S
C1222 C1220 1.384 . S
C1222 C1223 1.372 . S
C1223 C1222 1.372 . S
C1223 C1224 1.400 . S
C1223 C1228 1.490 . S
C1224 H1214 0.930 . S
C1224 C1223 1.400 . S
C1224 C1227 1.386 . S
H1225 C1241 0.930 . S
H1226 C1242 0.931 . S
C1227 H1215 0.929 . S
C1227 C1221 1.390 . S
C1227 C1224 1.386 . S
C1228 C1223 1.490 . S
C1228 C1230 1.395 . S
C1228 C1231 1.403 . S
H1229 C1235 0.930 . S
C1230 H1216 0.930 . S
C1230 C1228 1.395 . S
C1230 C1233 1.403 . S
C1231 C1228 1.403 . S
C1231 C1232 1.524 . S
C1231 C1235 1.400 . S
C1232 H1217 0.960 . S
C1232 H1218 0.960 . S
C1232 H1219 0.960 . S
C1232 C1231 1.524 . S
C1233 C1230 1.403 . S
C1233 C1234 1.392 . S
C1233 C1237 1.495 . S
C1234 C1233 1.392 . S
C1234 C1235 1.385 . S
C1234 C1236 1.478 . S
C1235 H1229 0.930 . S
C1235 C1231 1.400 . S
C1235 C1234 1.385 . S
C1236 C1234 1.478 . S
C1236 C1238 1.381 . S
C1236 C1242 1.383 . S
C1237 C1233 1.495 . S
C1237 H1243 0.959 . S
C1237 H1244 0.961 . S
C1237 H1245 0.960 . S
C1238 C1236 1.381 . S
C1238 C1239 1.394 . S
C1238 H1246 0.930 . S
C1239 C1238 1.394 . S
C1239 C1240 1.383 . S
C1239 H1247 0.929 . S
C1240 C1239 1.383 . S
C1240 C1241 1.377 . S
C1241 H1225 0.930 . S
C1241 C1240 1.377 . S
C1241 C1242 1.379 . S
C1242 H1226 0.931 . S
C1242 C1236 1.383 . S
C1242 C1241 1.379 . S
H1243 C1237 0.959 . S
H1244 C1237 0.961 . S
H1245 C1237 0.960 . S
H1246 C1238 0.930 . S
H1247 C1239 0.929 . S
H1248 C1256 0.929 . S
H1249 C1258 0.930 . S
H1250 C1260 0.930 . S
H1251 C1263 0.929 . S
H1252 C1266 0.930 . S
H1253 C1268 0.960 . S
H1254 C1268 0.960 . S
H1255 C1268 0.960 . S
C1256 H1248 0.929 . S
C1256 C1257 1.377 . S
C1256 C1258 1.384 . S
C1257 C1256 1.377 . S
C1257 C1263 1.390 . S
C1258 H1249 0.930 . S
C1258 C1256 1.384 . S
C1258 C1259 1.372 . S
C1259 C1258 1.372 . S
C1259 C1260 1.400 . S
C1259 C1264 1.490 . S
C1260 H1250 0.930 . S
C1260 C1259 1.400 . S
C1260 C1263 1.386 . S
H1261 C1277 0.930 . S
H1262 C1278 0.931 . S
C1263 H1251 0.929 . S
C1263 C1257 1.390 . S
C1263 C1260 1.386 . S
C1264 C1259 1.490 . S
C1264 C1266 1.395 . S
C1264 C1267 1.403 . S
H1265 C1271 0.930 . S
C1266 H1252 0.930 . S
C1266 C1264 1.395 . S
C1266 C1269 1.403 1_545 S
C1267 C1264 1.403 . S
C1267 C1268 1.524 . S
C1267 C1271 1.400 1_545 S
C1268 H1253 0.960 . S
C1268 H1254 0.960 . S
C1268 H1255 0.960 . S
C1268 C1267 1.524 . S
C1269 C1266 1.403 1_565 S
C1269 C1270 1.392 . S
C1269 C1273 1.495 . S
C1270 C1269 1.392 . S
C1270 C1271 1.385 . S
C1270 C1272 1.478 . S
C1271 H1265 0.930 . S
C1271 C1267 1.400 1_565 S
C1271 C1270 1.385 . S
C1272 C1270 1.478 . S
C1272 C1274 1.381 . S
C1272 C1278 1.383 . S
C1273 C1269 1.495 . S
C1273 H1279 0.959 . S
C1273 H1280 0.961 . S
C1273 H1281 0.960 . S
C1274 C1272 1.381 . S
C1274 C1275 1.394 . S
C1274 H1282 0.930 . S
C1275 C1274 1.394 . S
C1275 C1276 1.383 . S
C1275 H1283 0.929 . S
C1276 C1275 1.383 . S
C1276 C1277 1.377 . S
C1277 H1261 0.930 . S
C1277 C1276 1.377 . S
C1277 C1278 1.379 . S
C1278 H1262 0.931 . S
C1278 C1272 1.383 . S
C1278 C1277 1.379 . S
H1279 C1273 0.959 . S
H1280 C1273 0.961 . S
H1281 C1273 0.960 . S
H1282 C1274 0.930 . S
H1283 C1275 0.929 . S
H1284 C1292 0.929 . S
H1285 C1294 0.930 . S
H1286 C1296 0.930 . S
H1287 C1299 0.929 . S
H1288 C1302 0.930 . S
H1289 C1304 0.960 . S
H1290 C1304 0.960 . S
H1291 C1304 0.960 . S
C1292 H1284 0.929 . S
C1292 C1293 1.377 . S
C1292 C1294 1.384 . S
C1293 C1292 1.377 . S
C1293 C1299 1.390 . S
C1294 H1285 0.930 . S
C1294 C1292 1.384 . S
C1294 C1295 1.372 . S
C1295 C1294 1.372 . S
C1295 C1296 1.400 . S
C1295 C1300 1.490 . S
C1296 H1286 0.930 . S
C1296 C1295 1.400 . S
C1296 C1299 1.386 . S
H1297 C1313 0.930 . S
H1298 C1314 0.931 . S
C1299 H1287 0.929 . S
C1299 C1293 1.390 . S
C1299 C1296 1.386 . S
C1300 C1295 1.490 . S
C1300 C1302 1.395 . S
C1300 C1303 1.403 . S
H1301 C1307 0.930 . S
C1302 H1288 0.930 . S
C1302 C1300 1.395 . S
C1302 C1305 1.403 . S
C1303 C1300 1.403 . S
C1303 C1304 1.524 . S
C1303 C1307 1.400 . S
C1304 H1289 0.960 . S
C1304 H1290 0.960 . S
C1304 H1291 0.960 . S
C1304 C1303 1.524 . S
C1305 C1302 1.403 . S
C1305 C1306 1.392 . S
C1305 C1309 1.495 . S
C1306 C1305 1.392 . S
C1306 C1307 1.385 . S
C1306 C1308 1.478 . S
C1307 H1301 0.930 . S
C1307 C1303 1.400 . S
C1307 C1306 1.385 . S
C1308 C1306 1.478 . S
C1308 C1310 1.381 . S
C1308 C1314 1.383 . S
C1309 C1305 1.495 . S
C1309 H1315 0.959 . S
C1309 H1316 0.961 . S
C1309 H1317 0.960 . S
C1310 C1308 1.381 . S
C1310 C1311 1.394 . S
C1310 H1318 0.930 . S
C1311 C1310 1.394 . S
C1311 C1312 1.383 . S
C1311 H1319 0.929 . S
C1312 C1311 1.383 . S
C1312 C1313 1.377 . S
C1313 H1297 0.930 . S
C1313 C1312 1.377 . S
C1313 C1314 1.379 . S
C1314 H1298 0.931 . S
C1314 C1308 1.383 . S
C1314 C1313 1.379 . S
H1315 C1309 0.959 . S
H1316 C1309 0.961 . S
H1317 C1309 0.960 . S
H1318 C1310 0.930 . S
H1319 C1311 0.929 . S
H1320 C1328 0.929 . S
H1321 C1330 0.930 . S
H1322 C1332 0.930 . S
H1323 C1335 0.929 . S
H1324 C1338 0.930 . S
H1325 C1340 0.960 . S
H1326 C1340 0.960 . S
H1327 C1340 0.960 . S
C1328 H1320 0.929 . S
C1328 C1329 1.377 . S
C1328 C1330 1.384 . S
C1329 C1328 1.377 . S
C1329 C1335 1.390 . S
C1330 H1321 0.930 . S
C1330 C1328 1.384 . S
C1330 C1331 1.372 . S
C1331 C1330 1.372 . S
C1331 C1332 1.400 . S
C1331 C1336 1.490 . S
C1332 H1322 0.930 . S
C1332 C1331 1.400 . S
C1332 C1335 1.386 . S
H1333 C1349 0.930 . S
H1334 C1350 0.931 . S
C1335 H1323 0.929 . S
C1335 C1329 1.390 . S
C1335 C1332 1.386 . S
C1336 C1331 1.490 . S
C1336 C1338 1.395 . S
C1336 C1339 1.403 . S
H1337 C1343 0.930 . S
C1338 H1324 0.930 . S
C1338 C1336 1.395 . S
C1338 C1341 1.403 1_455 S
C1339 C1336 1.403 . S
C1339 C1340 1.524 . S
C1339 C1343 1.400 1_455 S
C1340 H1325 0.960 . S
C1340 H1326 0.960 . S
C1340 H1327 0.960 . S
C1340 C1339 1.524 . S
C1341 C1338 1.403 1_655 S
C1341 C1342 1.392 . S
C1341 C1345 1.495 . S
C1342 C1341 1.392 . S
C1342 C1343 1.385 . S
C1342 C1344 1.478 . S
C1343 H1337 0.930 . S
C1343 C1339 1.400 1_655 S
C1343 C1342 1.385 . S
C1344 C1342 1.478 . S
C1344 C1346 1.381 . S
C1344 C1350 1.383 . S
C1345 C1341 1.495 . S
C1345 H1351 0.959 . S
C1345 H1352 0.961 . S
C1345 H1353 0.960 . S
C1346 C1344 1.381 . S
C1346 C1347 1.394 . S
C1346 H1354 0.930 . S
C1347 C1346 1.394 . S
C1347 C1348 1.383 . S
C1347 H1355 0.929 . S
C1348 C1347 1.383 . S
C1348 C1349 1.377 . S
C1349 H1333 0.930 . S
C1349 C1348 1.377 . S
C1349 C1350 1.379 . S
C1350 H1334 0.931 . S
C1350 C1344 1.383 . S
C1350 C1349 1.379 . S
H1351 C1345 0.959 . S
H1352 C1345 0.961 . S
H1353 C1345 0.960 . S
H1354 C1346 0.930 . S
H1355 C1347 0.929 . S
H1356 C1364 0.929 . S
H1357 C1366 0.930 . S
H1358 C1368 0.930 . S
H1359 C1371 0.929 . S
H1360 C1374 0.930 . S
H1361 C1376 0.960 . S
H1362 C1376 0.960 . S
H1363 C1376 0.960 . S
C1364 H1356 0.929 . S
C1364 C1365 1.377 . S
C1364 C1366 1.384 . S
C1365 C1364 1.377 . S
C1365 C1371 1.390 . S
C1366 H1357 0.930 . S
C1366 C1364 1.384 . S
C1366 C1367 1.372 . S
C1367 C1366 1.372 . S
C1367 C1368 1.400 . S
C1367 C1372 1.490 . S
C1368 H1358 0.930 . S
C1368 C1367 1.400 . S
C1368 C1371 1.386 . S
H1369 C1385 0.930 . S
H1370 C1386 0.931 . S
C1371 H1359 0.929 . S
C1371 C1365 1.390 . S
C1371 C1368 1.386 . S
C1372 C1367 1.490 . S
C1372 C1374 1.395 . S
C1372 C1375 1.403 . S
H1373 C1379 0.930 . S
C1374 H1360 0.930 . S
C1374 C1372 1.395 . S
C1374 C1377 1.403 . S
C1375 C1372 1.403 . S
C1375 C1376 1.524 . S
C1375 C1379 1.400 . S
C1376 H1361 0.960 . S
C1376 H1362 0.960 . S
C1376 H1363 0.960 . S
C1376 C1375 1.524 . S
C1377 C1374 1.403 . S
C1377 C1378 1.392 . S
C1377 C1381 1.495 . S
C1378 C1377 1.392 . S
C1378 C1379 1.385 . S
C1378 C1380 1.478 . S
C1379 H1373 0.930 . S
C1379 C1375 1.400 . S
C1379 C1378 1.385 . S
C1380 C1378 1.478 . S
C1380 C1382 1.381 . S
C1380 C1386 1.383 . S
C1381 C1377 1.495 . S
C1381 H1387 0.959 . S
C1381 H1388 0.961 . S
C1381 H1389 0.960 . S
C1382 C1380 1.381 . S
C1382 C1383 1.394 . S
C1382 H1390 0.930 . S
C1383 C1382 1.394 . S
C1383 C1384 1.383 . S
C1383 H1391 0.929 . S
C1384 C1383 1.383 . S
C1384 C1385 1.377 . S
C1385 H1369 0.930 . S
C1385 C1384 1.377 . S
C1385 C1386 1.379 . S
C1386 H1370 0.931 . S
C1386 C1380 1.383 . S
C1386 C1385 1.379 . S
H1387 C1381 0.959 . S
H1388 C1381 0.961 . S
H1389 C1381 0.960 . S
H1390 C1382 0.930 . S
H1391 C1383 0.929 . S
H1392 C1400 0.929 . S
H1393 C1402 0.930 . S
H1394 C1404 0.930 . S
H1395 C1407 0.929 . S
H1396 C1410 0.930 . S
H1397 C1412 0.960 1_455 S
H1398 C1412 0.960 . S
H1399 C1412 0.960 . S
C1400 H1392 0.929 . S
C1400 C1401 1.377 . S
C1400 C1402 1.384 . S
C1401 C1400 1.377 . S
C1401 C1407 1.390 . S
C1402 H1393 0.930 . S
C1402 C1400 1.384 . S
C1402 C1403 1.372 . S
C1403 C1402 1.372 . S
C1403 C1404 1.400 . S
C1403 C1408 1.490 . S
C1404 H1394 0.930 . S
C1404 C1403 1.400 . S
C1404 C1407 1.386 . S
H1405 C1421 0.930 . S
H1406 C1422 0.931 . S
C1407 H1395 0.929 . S
C1407 C1401 1.390 . S
C1407 C1404 1.386 . S
C1408 C1403 1.490 . S
C1408 C1410 1.395 . S
C1408 C1411 1.403 . S
H1409 C1415 0.930 . S
C1410 H1396 0.930 . S
C1410 C1408 1.395 . S
C1410 C1413 1.403 1_655 S
C1411 C1408 1.403 . S
C1411 C1412 1.524 . S
C1411 C1415 1.400 1_655 S
C1412 H1397 0.960 1_655 S
C1412 H1398 0.960 . S
C1412 H1399 0.960 . S
C1412 C1411 1.524 . S
C1413 C1410 1.403 1_455 S
C1413 C1414 1.392 . S
C1413 C1417 1.495 . S
C1414 C1413 1.392 . S
C1414 C1415 1.385 . S
C1414 C1416 1.478 . S
C1415 H1409 0.930 . S
C1415 C1411 1.400 1_455 S
C1415 C1414 1.385 . S
C1416 C1414 1.478 . S
C1416 C1418 1.381 . S
C1416 C1422 1.383 . S
C1417 C1413 1.495 . S
C1417 H1423 0.959 1_455 S
C1417 H1424 0.961 . S
C1417 H1425 0.960 . S
C1418 C1416 1.381 . S
C1418 C1419 1.394 . S
C1418 H1426 0.930 . S
C1419 C1418 1.394 . S
C1419 C1420 1.383 . S
C1419 H1427 0.929 . S
C1420 C1419 1.383 . S
C1420 C1421 1.377 . S
C1421 H1405 0.930 . S
C1421 C1420 1.377 . S
C1421 C1422 1.379 . S
C1422 H1406 0.931 . S
C1422 C1416 1.383 . S
C1422 C1421 1.379 . S
H1423 C1417 0.959 1_655 S
H1424 C1417 0.961 . S
H1425 C1417 0.960 . S
H1426 C1418 0.930 . S
H1427 C1419 0.929 . S
H1428 C1436 0.929 . S
H1429 C1438 0.930 . S
H1430 C1440 0.930 . S
H1431 C1443 0.929 . S
H1432 C1446 0.930 . S
H1433 C1448 0.960 . S
H1434 C1448 0.960 . S
H1435 C1448 0.960 . S
C1436 H1428 0.929 . S
C1436 C1437 1.377 . S
C1436 C1438 1.384 . S
C1437 C1436 1.377 . S
C1437 C1443 1.390 . S
C1438 H1429 0.930 . S
C1438 C1436 1.384 . S
C1438 C1439 1.372 . S
C1439 C1438 1.372 . S
C1439 C1440 1.400 . S
C1439 C1444 1.490 . S
C1440 H1430 0.930 . S
C1440 C1439 1.400 . S
C1440 C1443 1.386 . S
H1441 C1457 0.930 . S
H1442 C1458 0.931 . S
C1443 H1431 0.929 . S
C1443 C1437 1.390 . S
C1443 C1440 1.386 . S
C1444 C1439 1.490 . S
C1444 C1446 1.395 . S
C1444 C1447 1.403 . S
H1445 C1451 0.930 . S
C1446 H1432 0.930 . S
C1446 C1444 1.395 . S
C1446 C1449 1.403 1_545 S
C1447 C1444 1.403 . S
C1447 C1448 1.524 . S
C1447 C1451 1.400 1_545 S
C1448 H1433 0.960 . S
C1448 H1434 0.960 . S
C1448 H1435 0.960 . S
C1448 C1447 1.524 . S
C1449 C1446 1.403 1_565 S
C1449 C1450 1.392 . S
C1449 C1453 1.495 . S
C1450 C1449 1.392 . S
C1450 C1451 1.385 . S
C1450 C1452 1.478 . S
C1451 H1445 0.930 . S
C1451 C1447 1.400 1_565 S
C1451 C1450 1.385 . S
C1452 C1450 1.478 . S
C1452 C1454 1.381 . S
C1452 C1458 1.383 . S
C1453 C1449 1.495 . S
C1453 H1459 0.959 . S
C1453 H1460 0.961 . S
C1453 H1461 0.960 . S
C1454 C1452 1.381 . S
C1454 C1455 1.394 . S
C1454 H1462 0.930 . S
C1455 C1454 1.394 . S
C1455 C1456 1.383 . S
C1455 H1463 0.929 . S
C1456 C1455 1.383 . S
C1456 C1457 1.377 . S
C1457 H1441 0.930 . S
C1457 C1456 1.377 . S
C1457 C1458 1.379 . S
C1458 H1442 0.931 . S
C1458 C1452 1.383 . S
C1458 C1457 1.379 . S
H1459 C1453 0.959 . S
H1460 C1453 0.961 . S
H1461 C1453 0.960 . S
H1462 C1454 0.930 . S
H1463 C1455 0.929 . S
H1464 C1472 0.929 . S
H1465 C1474 0.930 . S
H1466 C1476 0.930 . S
H1467 C1479 0.929 . S
H1468 C1482 0.930 . S
H1469 C1484 0.960 . S
H1470 C1484 0.960 . S
H1471 C1484 0.960 . S
C1472 H1464 0.929 . S
C1472 C1473 1.377 . S
C1472 C1474 1.384 . S
C1473 C1472 1.377 . S
C1473 C1479 1.390 . S
C1474 H1465 0.930 . S
C1474 C1472 1.384 . S
C1474 C1475 1.372 . S
C1475 C1474 1.372 . S
C1475 C1476 1.400 . S
C1475 C1480 1.490 . S
C1476 H1466 0.930 . S
C1476 C1475 1.400 . S
C1476 C1479 1.386 . S
H1477 C1493 0.930 . S
H1478 C1494 0.931 . S
C1479 H1467 0.929 . S
C1479 C1473 1.390 . S
C1479 C1476 1.386 . S
C1480 C1475 1.490 . S
C1480 C1482 1.395 . S
C1480 C1483 1.403 . S
H1481 C1487 0.930 . S
C1482 H1468 0.930 . S
C1482 C1480 1.395 . S
C1482 C1485 1.403 . S
C1483 C1480 1.403 . S
C1483 C1484 1.524 . S
C1483 C1487 1.400 . S
C1484 H1469 0.960 . S
C1484 H1470 0.960 . S
C1484 H1471 0.960 . S
C1484 C1483 1.524 . S
C1485 C1482 1.403 . S
C1485 C1486 1.392 . S
C1485 C1489 1.495 . S
C1486 C1485 1.392 . S
C1486 C1487 1.385 . S
C1486 C1488 1.478 . S
C1487 H1481 0.930 . S
C1487 C1483 1.400 . S
C1487 C1486 1.385 . S
C1488 C1486 1.478 . S
C1488 C1490 1.381 . S
C1488 C1494 1.383 . S
C1489 C1485 1.495 . S
C1489 H1495 0.959 . S
C1489 H1496 0.961 . S
C1489 H1497 0.960 . S
C1490 C1488 1.381 . S
C1490 C1491 1.394 . S
C1490 H1498 0.930 . S
C1491 C1490 1.394 . S
C1491 C1492 1.383 . S
C1491 H1499 0.929 . S
C1492 C1491 1.383 . S
C1492 C1493 1.377 . S
C1493 H1477 0.930 . S
C1493 C1492 1.377 . S
C1493 C1494 1.379 . S
C1494 H1478 0.931 . S
C1494 C1488 1.383 . S
C1494 C1493 1.379 . S
H1495 C1489 0.959 . S
H1496 C1489 0.961 . S
H1497 C1489 0.960 . S
H1498 C1490 0.930 . S
H1499 C1491 0.929 . S
H1500 C1508 0.929 . S
H1501 C1510 0.930 . S
H1502 C1512 0.930 . S
H1503 C1515 0.929 . S
H1504 C1518 0.930 . S
H1505 C1520 0.960 . S
H1506 C1520 0.960 . S
H1507 C1520 0.960 . S
C1508 H1500 0.929 . S
C1508 C1509 1.377 . S
C1508 C1510 1.384 . S
C1509 C1508 1.377 . S
C1509 C1515 1.390 . S
C1510 H1501 0.930 . S
C1510 C1508 1.384 . S
C1510 C1511 1.372 . S
C1511 C1510 1.372 . S
C1511 C1512 1.400 . S
C1511 C1516 1.490 . S
C1512 H1502 0.930 . S
C1512 C1511 1.400 . S
C1512 C1515 1.386 . S
H1513 C1529 0.930 . S
H1514 C1530 0.931 . S
C1515 H1503 0.929 . S
C1515 C1509 1.390 . S
C1515 C1512 1.386 . S
C1516 C1511 1.490 . S
C1516 C1518 1.395 . S
C1516 C1519 1.403 . S
H1517 C1523 0.930 . S
C1518 H1504 0.930 . S
C1518 C1516 1.395 . S
C1518 C1521 1.403 1_455 S
C1519 C1516 1.403 . S
C1519 C1520 1.524 . S
C1519 C1523 1.400 1_455 S
C1520 H1505 0.960 . S
C1520 H1506 0.960 . S
C1520 H1507 0.960 . S
C1520 C1519 1.524 . S
C1521 C1518 1.403 1_655 S
C1521 C1522 1.392 . S
C1521 C1525 1.495 . S
C1522 C1521 1.392 . S
C1522 C1523 1.385 . S
C1522 C1524 1.478 . S
C1523 H1517 0.930 . S
C1523 C1519 1.400 1_655 S
C1523 C1522 1.385 . S
C1524 C1522 1.478 . S
C1524 C1526 1.381 . S
C1524 C1530 1.383 . S
C1525 C1521 1.495 . S
C1525 H1531 0.959 . S
C1525 H1532 0.961 . S
C1525 H1533 0.960 . S
C1526 C1524 1.381 . S
C1526 C1527 1.394 . S
C1526 H1534 0.930 . S
C1527 C1526 1.394 . S
C1527 C1528 1.383 . S
C1527 H1535 0.929 . S
C1528 C1527 1.383 . S
C1528 C1529 1.377 . S
C1529 H1513 0.930 . S
C1529 C1528 1.377 . S
C1529 C1530 1.379 . S
C1530 H1514 0.931 . S
C1530 C1524 1.383 . S
C1530 C1529 1.379 . S
H1531 C1525 0.959 . S
H1532 C1525 0.961 . S
H1533 C1525 0.960 . S
H1534 C1526 0.930 . S
H1535 C1527 0.929 . S
H1536 C1544 0.929 . S
H1537 C1546 0.930 . S
H1538 C1548 0.930 . S
H1539 C1551 0.929 . S
H1540 C1554 0.930 . S
H1541 C1556 0.960 . S
H1542 C1556 0.960 . S
H1543 C1556 0.960 . S
C1544 H1536 0.929 . S
C1544 C1545 1.377 . S
C1544 C1546 1.384 . S
C1545 C1544 1.377 . S
C1545 C1551 1.390 . S
C1546 H1537 0.930 . S
C1546 C1544 1.384 . S
C1546 C1547 1.372 . S
C1547 C1546 1.372 . S
C1547 C1548 1.400 . S
C1547 C1552 1.490 . S
C1548 H1538 0.930 . S
C1548 C1547 1.400 . S
C1548 C1551 1.386 . S
H1549 C1565 0.930 . S
H1550 C1566 0.931 . S
C1551 H1539 0.929 . S
C1551 C1545 1.390 . S
C1551 C1548 1.386 . S
C1552 C1547 1.490 . S
C1552 C1554 1.395 . S
C1552 C1555 1.403 . S
H1553 C1559 0.930 . S
C1554 H1540 0.930 . S
C1554 C1552 1.395 . S
C1554 C1557 1.403 1_565 S
C1555 C1552 1.403 . S
C1555 C1556 1.524 . S
C1555 C1559 1.400 1_565 S
C1556 H1541 0.960 . S
C1556 H1542 0.960 . S
C1556 H1543 0.960 . S
C1556 C1555 1.524 . S
C1557 C1554 1.403 1_545 S
C1557 C1558 1.392 . S
C1557 C1561 1.495 . S
C1558 C1557 1.392 . S
C1558 C1559 1.385 . S
C1558 C1560 1.478 . S
C1559 H1553 0.930 . S
C1559 C1555 1.400 1_545 S
C1559 C1558 1.385 . S
C1560 C1558 1.478 . S
C1560 C1562 1.381 . S
C1560 C1566 1.383 . S
C1561 C1557 1.495 . S
C1561 H1567 0.959 . S
C1561 H1568 0.961 . S
C1561 H1569 0.960 . S
C1562 C1560 1.381 . S
C1562 C1563 1.394 . S
C1562 H1570 0.930 . S
C1563 C1562 1.394 . S
C1563 C1564 1.383 . S
C1563 H1571 0.929 . S
C1564 C1563 1.383 . S
C1564 C1565 1.377 . S
C1565 H1549 0.930 . S
C1565 C1564 1.377 . S
C1565 C1566 1.379 . S
C1566 H1550 0.931 . S
C1566 C1560 1.383 . S
C1566 C1565 1.379 . S
H1567 C1561 0.959 . S
H1568 C1561 0.961 . S
H1569 C1561 0.960 . S
H1570 C1562 0.930 . S
H1571 C1563 0.929 . S
C717 C593 1.308 . S
C736 C3 1.326 . S
C753 C62 1.315 . S
C772 C652 1.296 . S
C789 C121 1.309 . S
C808 C357 1.323 . S
C825 C180 1.313 . S
C844 C416 1.303 . S
C861 C475 1.315 . S
C880 C239 1.294 . S
C897 C298 1.310 . S
C916 C534 1.320 . S
C933 C505 1.194 . S
C952 C33 1.175 . S
C969 C92 1.184 . S
C988 C564 1.193 . S
C1005 C151 1.192 . S
C1024 C623 1.202 . S
C1041 C210 1.191 . S
C1060 C682 1.163 . S
C1077 C387 1.185 . S
C1096 C269 1.178 . S
C1113 C446 1.184 . S
C1132 C328 1.199 . S
C1149 C229 1.678 . S
C1168 C52 1.670 . S
C1185 C111 1.677 . S
C1204 C288 1.680 . S
C1221 C347 1.680 . S
C1240 C170 1.674 . S
C1257 C583 1.678 . S
C1276 C406 1.682 . S
C1293 C642 1.679 . S
C1312 C465 1.680 . S
C1329 C524 1.678 . S
C1348 C701 1.681 . S
C1365 C182 1.245 . S
C1384 C5 1.238 . S
C1401 C64 1.245 . S
C1420 C241 1.249 . S
C1437 C300 1.246 . S
C1456 C123 1.237 . S
C1473 C359 1.246 . S
C1492 C536 1.247 . S
C1509 C595 1.246 . S
C1528 C418 1.238 . S
C1545 C477 1.245 . S
C1564 C654 1.239 . S
