# Generated by pormake.
# Topology umz, (4)-cn, num edge types: 1
# Building blocks:
#     Node 0, Type 0, BuildingBlock: KUFVIS_clean_sbu_0, # of connection points: 4
#     Node 1, Type 0, BuildingBlock: KUFVIS_clean_sbu_0, # of connection points: 4
#     Node 2, Type 0, BuildingBlock: KUFVIS_clean_sbu_0, # of connection points: 4
#     Node 3, Type 0, BuildingBlock: KUFVIS_clean_sbu_0, # of connection points: 4
#     Node 4, Type 0, BuildingBlock: KUFVIS_clean_sbu_0, # of connection points: 4
#     Node 5, Type 0, BuildingBlock: KUFVIS_clean_sbu_0, # of connection points: 4
#     Node 6, Type 0, BuildingBlock: KUFVIS_clean_sbu_0, # of connection points: 4
#     Node 7, Type 0, BuildingBlock: KUFVIS_clean_sbu_0, # of connection points: 4
#     Node 8, Type 0, BuildingBlock: KUFVIS_clean_sbu_0, # of connection points: 4
#     Node 9, Type 0, BuildingBlock: KUFVIS_clean_sbu_0, # of connection points: 4
#     Node 10, Type 0, BuildingBlock: KUFVIS_clean_sbu_0, # of connection points: 4
#     Node 11, Type 0, BuildingBlock: KUFVIS_clean_sbu_0, # of connection points: 4
#     Node 12, Type 0, BuildingBlock: KUFVIS_clean_sbu_0, # of connection points: 4
#     Node 13, Type 0, BuildingBlock: KUFVIS_clean_sbu_0, # of connection points: 4
#     Node 14, Type 0, BuildingBlock: KUFVIS_clean_sbu_0, # of connection points: 4
#     Node 15, Type 0, BuildingBlock: KUFVIS_clean_sbu_0, # of connection points: 4
#     Edge 16, Type (0, 0), BuildingBlock: KIFKEQ_clean_linker_1, # of connection points: 2
#     Edge 17, Type (0, 0), BuildingBlock: KIFKEQ_clean_linker_1, # of connection points: 2
#     Edge 18, Type (0, 0), BuildingBlock: KIFKEQ_clean_linker_1, # of connection points: 2
#     Edge 19, Type (0, 0), BuildingBlock: KIFKEQ_clean_linker_1, # of connection points: 2
#     Edge 20, Type (0, 0), BuildingBlock: KIFKEQ_clean_linker_1, # of connection points: 2
#     Edge 21, Type (0, 0), BuildingBlock: KIFKEQ_clean_linker_1, # of connection points: 2
#     Edge 22, Type (0, 0), BuildingBlock: KIFKEQ_clean_linker_1, # of connection points: 2
#     Edge 23, Type (0, 0), BuildingBlock: KIFKEQ_clean_linker_1, # of connection points: 2
#     Edge 24, Type (0, 0), BuildingBlock: KIFKEQ_clean_linker_1, # of connection points: 2
#     Edge 25, Type (0, 0), BuildingBlock: KIFKEQ_clean_linker_1, # of connection points: 2
#     Edge 26, Type (0, 0), BuildingBlock: KIFKEQ_clean_linker_1, # of connection points: 2
#     Edge 27, Type (0, 0), BuildingBlock: KIFKEQ_clean_linker_1, # of connection points: 2
#     Edge 28, Type (0, 0), BuildingBlock: KIFKEQ_clean_linker_1, # of connection points: 2
#     Edge 29, Type (0, 0), BuildingBlock: KIFKEQ_clean_linker_1, # of connection points: 2
#     Edge 30, Type (0, 0), BuildingBlock: KIFKEQ_clean_linker_1, # of connection points: 2
#     Edge 31, Type (0, 0), BuildingBlock: KIFKEQ_clean_linker_1, # of connection points: 2
#     Edge 32, Type (0, 0), BuildingBlock: KIFKEQ_clean_linker_1, # of connection points: 2
#     Edge 33, Type (0, 0), BuildingBlock: KIFKEQ_clean_linker_1, # of connection points: 2
#     Edge 34, Type (0, 0), BuildingBlock: KIFKEQ_clean_linker_1, # of connection points: 2
#     Edge 35, Type (0, 0), BuildingBlock: KIFKEQ_clean_linker_1, # of connection points: 2
#     Edge 36, Type (0, 0), BuildingBlock: KIFKEQ_clean_linker_1, # of connection points: 2
#     Edge 37, Type (0, 0), BuildingBlock: KIFKEQ_clean_linker_1, # of connection points: 2
#     Edge 38, Type (0, 0), BuildingBlock: KIFKEQ_clean_linker_1, # of connection points: 2
#     Edge 39, Type (0, 0), BuildingBlock: KIFKEQ_clean_linker_1, # of connection points: 2
#     Edge 40, Type (0, 0), BuildingBlock: KIFKEQ_clean_linker_1, # of connection points: 2
#     Edge 41, Type (0, 0), BuildingBlock: KIFKEQ_clean_linker_1, # of connection points: 2
#     Edge 42, Type (0, 0), BuildingBlock: KIFKEQ_clean_linker_1, # of connection points: 2
#     Edge 43, Type (0, 0), BuildingBlock: KIFKEQ_clean_linker_1, # of connection points: 2
#     Edge 44, Type (0, 0), BuildingBlock: KIFKEQ_clean_linker_1, # of connection points: 2
#     Edge 45, Type (0, 0), BuildingBlock: KIFKEQ_clean_linker_1, # of connection points: 2
#     Edge 46, Type (0, 0), BuildingBlock: KIFKEQ_clean_linker_1, # of connection points: 2
#     Edge 47, Type (0, 0), BuildingBlock: KIFKEQ_clean_linker_1, # of connection points: 2
# Relax obj value: 0.250
# Max RMSD: 0.162
# Mean RMSD: 0.161
data_MOF--net-umz--node1-KUFVIS_clean_sbu_0--edge1-KIFKEQ_clean_linker_1
_symmetry_space_group_name_H-M    P1
_symmetry_Int_Tables_number       1
_symmetry_cell_setting            triclinic
loop_
_symmetry_equiv_pos_as_xyz
'x, y, z'
_cell_length_a     59.078405
_cell_length_b     59.073748
_cell_length_c     23.091109
_cell_angle_alpha  89.997619
_cell_angle_beta   90.008406
_cell_angle_gamma 89.983816
loop_
_atom_site_label
_atom_site_type_symbol
_atom_site_fract_x
_atom_site_fract_y
_atom_site_fract_z
_atom_type_partial_charge
Mn0 Mn 0.01487 0.6239 0.09202 0.0
Mn1 Mn 0.96938 0.62079 0.00441 0.0
C2 C 0.97935 0.61793 0.13073 0.0
C3 C 0.04448 0.60613 0.14035 0.0
C4 C 0.99259 0.66492 0.03543 0.0
O5 O 0.02895 0.6187 0.01267 0.0
O6 O 0.99733 0.61477 0.95864 0.0
C7 C 0.9709 0.57193 0.9764 0.0
N8 N 0.95961 0.59003 0.99882 0.0
C9 C 0.92761 0.5668 0.02372 0.0
C10 C 0.93882 0.54794 1.00052 0.0
C11 C 0.96056 0.55053 0.97678 0.0
C12 C 0.93863 0.58776 0.02145 0.0
H13 H 0.98769 0.57381 0.95858 0.0
C14 C 0.01894 0.6149 0.96455 0.0
O15 O 0.04498 0.62776 0.13018 0.0
O16 O 0.02737 0.59484 0.12046 0.0
N17 N 0.94144 0.62604 0.04421 0.0
C18 C 0.93363 0.64557 0.06843 0.0
C19 C 0.91245 0.64567 0.09603 0.0
C20 C 0.89954 0.62573 0.09843 0.0
C21 C 0.90789 0.60587 0.07296 0.0
C22 C 0.92899 0.60684 0.04546 0.0
H23 H 0.94359 0.66088 0.06719 0.0
O24 O 0.99548 0.62611 0.16252 0.0
O25 O 0.98459 0.61352 0.07721 0.0
O26 O 0.00721 0.65654 0.06998 0.0
O27 O 0.97793 0.65308 0.0083 0.0
C28 C 0.89634 0.58501 0.075 0.0
C29 C 0.90618 0.5655 0.05035 0.0
H30 H 0.93101 0.53136 0.00129 0.0
H31 H 0.96938 0.53603 0.95911 0.0
H32 H 0.90616 0.66105 0.11579 0.0
H33 H 0.88334 0.62581 0.12039 0.0
H34 H 0.88003 0.58372 0.09618 0.0
H35 H 0.89728 0.5495 0.0529 0.0
Mn36 Mn 0.87362 0.01666 0.60304 0.0
Mn37 Mn 0.87771 0.97103 0.51646 0.0
C38 C 0.87895 0.98115 0.64279 0.0
C39 C 0.89173 0.04611 0.65166 0.0
C40 C 0.83337 0.99517 0.5422 0.0
O41 O 0.87958 0.03041 0.52352 0.0
O42 O 0.88583 0.99862 0.47147 0.0
C43 C 0.92719 0.97081 0.49641 0.0
N44 N 0.90819 0.96018 0.51582 0.0
C45 C 0.92969 0.92749 0.54494 0.0
C46 C 0.94944 0.93799 0.52468 0.0
C47 C 0.94818 0.95975 0.50035 0.0
C48 C 0.9092 0.93921 0.53912 0.0
H49 H 0.92635 0.98766 0.47841 0.0
C50 C 0.88512 0.02025 0.47672 0.0
O51 O 0.87018 0.04711 0.64031 0.0
O52 O 0.90262 0.02861 0.63268 0.0
N53 N 0.8706 0.94346 0.55607 0.0
C54 C 0.85031 0.93647 0.57771 0.0
C55 C 0.84885 0.91544 0.60579 0.0
C56 C 0.86823 0.90183 0.61139 0.0
C57 C 0.88891 0.90936 0.58866 0.0
C58 C 0.88928 0.93035 0.56048 0.0
H59 H 0.83541 0.94695 0.57402 0.0
O60 O 0.87065 0.99741 0.67394 0.0
O61 O 0.88376 0.98632 0.58955 0.0
O62 O 0.84117 0.00926 0.57904 0.0
O63 O 0.84564 0.98074 0.51537 0.0
C64 C 0.90926 0.89711 0.59414 0.0
C65 C 0.92963 0.90616 0.57225 0.0
H66 H 0.9657 0.92964 0.52829 0.0
H67 H 0.96337 0.96805 0.48509 0.0
H68 H 0.83285 0.90979 0.62346 0.0
H69 H 0.86709 0.88575 0.63373 0.0
H70 H 0.9095 0.88087 0.61592 0.0
H71 H 0.94523 0.89674 0.57755 0.0
Mn72 Mn 0.48409 0.87425 0.09474 0.0
Mn73 Mn 0.52928 0.87618 0.00601 0.0
C74 C 0.51996 0.87908 0.13246 0.0
C75 C 0.45544 0.89324 0.14439 0.0
C76 C 0.5049 0.83264 0.0369 0.0
O77 O 0.46982 0.8802 0.016 0.0
O78 O 0.50128 0.8828 0.9609 0.0
C79 C 0.52867 0.92506 0.97795 0.0
N80 N 0.53966 0.90673 1.00014 0.0
C81 C 0.57218 0.92932 0.02455 0.0
C82 C 0.56127 0.94841 0.00159 0.0
C83 C 0.53943 0.94625 0.97819 0.0
C84 C 0.56075 0.90858 0.02239 0.0
H85 H 0.51179 0.92352 0.96044 0.0
C86 C 0.47971 0.88348 0.9675 0.0
O87 O 0.45389 0.87169 0.13368 0.0
O88 O 0.47303 0.90366 0.1242 0.0
N89 N 0.55725 0.87036 0.04515 0.0
C90 C 0.56471 0.85068 0.06933 0.0
C91 C 0.58594 0.85016 0.09666 0.0
C92 C 0.59925 0.86985 0.09887 0.0
C93 C 0.59124 0.88987 0.07348 0.0
C94 C 0.57007 0.88931 0.04624 0.0
H95 H 0.55444 0.83557 0.06827 0.0
O96 O 0.50379 0.87117 0.16458 0.0
O97 O 0.51456 0.88367 0.07918 0.0
O98 O 0.49046 0.84138 0.07146 0.0
O99 O 0.51999 0.84413 0.01028 0.0
C100 C 0.60319 0.9105 0.07541 0.0
C101 C 0.59368 0.9302 0.0509 0.0
H102 H 0.56941 0.96484 0.00228 0.0
H103 H 0.53084 0.96093 0.96072 0.0
H104 H 0.59196 0.83467 0.11638 0.0
H105 H 0.61549 0.86945 0.12064 0.0
H106 H 0.61956 0.91147 0.0964 0.0
H107 H 0.60289 0.94603 0.05338 0.0
Mn108 Mn 0.6256 0.48303 0.5948 0.0
Mn109 Mn 0.62184 0.52803 0.50568 0.0
C110 C 0.61869 0.51864 0.63213 0.0
C111 C 0.60835 0.45329 0.64382 0.0
C112 C 0.66634 0.50578 0.53807 0.0
O113 O 0.62088 0.46845 0.51575 0.0
O114 O 0.61646 0.49976 0.46073 0.0
C115 C 0.57308 0.52545 0.47698 0.0
N116 N 0.5909 0.53718 0.49936 0.0
C117 C 0.56696 0.5688 0.52325 0.0
C118 C 0.54839 0.55712 0.50007 0.0
C119 C 0.55147 0.53536 0.47685 0.0
C120 C 0.58815 0.55819 0.5215 0.0
H121 H 0.57534 0.50864 0.45957 0.0
C122 C 0.61698 0.47818 0.46729 0.0
O123 O 0.63002 0.45321 0.63405 0.0
O124 O 0.59675 0.47006 0.62319 0.0
N125 N 0.62643 0.55624 0.54477 0.0
C126 C 0.64575 0.56454 0.56898 0.0
C127 C 0.64538 0.58583 0.59602 0.0
C128 C 0.62517 0.59834 0.59789 0.0
C129 C 0.60552 0.58949 0.57245 0.0
C130 C 0.60698 0.5683 0.54551 0.0
H131 H 0.66128 0.55489 0.56815 0.0
O132 O 0.62715 0.5029 0.66469 0.0
O133 O 0.61464 0.51299 0.57872 0.0
O134 O 0.65814 0.49122 0.57305 0.0
O135 O 0.65428 0.52009 0.51028 0.0
C136 C 0.58443 0.60061 0.57399 0.0
C137 C 0.56517 0.59029 0.54935 0.0
H138 H 0.53164 0.5646 0.50045 0.0
H139 H 0.53719 0.52619 0.45921 0.0
H140 H 0.66059 0.59251 0.61575 0.0
H141 H 0.62488 0.61463 0.61942 0.0
H142 H 0.58276 0.61697 0.59474 0.0
H143 H 0.54899 0.59887 0.5515 0.0
Mn144 Mn 0.01325 0.87477 0.90929 0.0
Mn145 Mn 0.9687 0.87697 1.00014 0.0
C146 C 0.97723 0.88061 0.8735 0.0
C147 C 0.04199 0.89344 0.85923 0.0
C148 C 0.99192 0.83321 0.9659 0.0
O149 O 0.02816 0.87982 0.9877 0.0
O150 O 0.99711 0.8827 0.04423 0.0
C151 C 0.97045 0.92562 0.03036 0.0
N152 N 0.95896 0.90768 0.00783 0.0
C153 C 0.92674 0.93108 0.98584 0.0
C154 C 0.93816 0.94978 0.00919 0.0
C155 C 0.96011 0.94702 0.03154 0.0
C156 C 0.93778 0.9101 0.98655 0.0
H157 H 0.9874 0.92363 0.04709 0.0
C158 C 0.01864 0.88296 0.03675 0.0
O159 O 0.04312 0.87178 0.86898 0.0
O160 O 0.0248 0.90414 0.88066 0.0
N161 N 0.94036 0.87198 0.96199 0.0
C162 C 0.93234 0.85261 0.9374 0.0
C163 C 0.91091 0.85269 0.91108 0.0
C164 C 0.89798 0.87266 0.91029 0.0
C165 C 0.90657 0.89235 0.93609 0.0
C166 C 0.92792 0.89119 0.96228 0.0
H167 H 0.9423 0.83729 0.93739 0.0
O168 O 0.99302 0.87265 0.84023 0.0
O169 O 0.98309 0.88471 0.92672 0.0
O170 O 0.00629 0.8419 0.9311 0.0
O171 O 0.97731 0.84478 0.99399 0.0
C172 C 0.89501 0.91322 0.93561 0.0
C173 C 0.90508 0.93256 0.96053 0.0
H174 H 0.93035 0.96637 0.00961 0.0
H175 H 0.96909 0.9614 0.04931 0.0
H176 H 0.90443 0.83745 0.89106 0.0
H177 H 0.88158 0.87272 0.88931 0.0
H178 H 0.87852 0.91465 0.91546 0.0
H179 H 0.89616 0.94858 0.95919 0.0
Mn180 Mn 0.62453 0.01375 0.40127 0.0
Mn181 Mn 0.62229 0.96887 0.49106 0.0
C182 C 0.61932 0.97779 0.36439 0.0
C183 C 0.60581 0.04245 0.35117 0.0
C184 C 0.66598 0.99279 0.45933 0.0
O185 O 0.61883 0.02832 0.47981 0.0
O186 O 0.61581 0.99705 0.53552 0.0
C187 C 0.57343 0.96977 0.51917 0.0
N188 N 0.5917 0.95864 0.49719 0.0
C189 C 0.56899 0.9261 0.47369 0.0
C190 C 0.54996 0.93715 0.49645 0.0
C191 C 0.5522 0.95908 0.51928 0.0
C192 C 0.58977 0.93747 0.47548 0.0
H193 H 0.57504 0.98671 0.53627 0.0
C194 C 0.61538 0.01861 0.52849 0.0
O195 O 0.62739 0.04379 0.36173 0.0
O196 O 0.5952 0.02505 0.37177 0.0
N197 N 0.62799 0.94075 0.45252 0.0
C198 C 0.64762 0.93313 0.42847 0.0
C199 C 0.64805 0.91179 0.40167 0.0
C200 C 0.62832 0.89854 0.39987 0.0
C201 C 0.60834 0.90671 0.4251 0.0
C202 C 0.60899 0.92799 0.4518 0.0
H203 H 0.66276 0.94335 0.42923 0.0
O204 O 0.62731 0.99378 0.33184 0.0
O205 O 0.61484 0.98341 0.41759 0.0
O206 O 0.65736 0.00711 0.42426 0.0
O207 O 0.65438 0.97798 0.48663 0.0
C208 C 0.58768 0.89483 0.42357 0.0
C209 C 0.56802 0.9045 0.44791 0.0
H210 H 0.5335 0.92907 0.49603 0.0
H211 H 0.53757 0.96778 0.5366 0.0
H212 H 0.66351 0.90564 0.38207 0.0
H213 H 0.62866 0.88222 0.37853 0.0
H214 H 0.58664 0.87837 0.40302 0.0
H215 H 0.55217 0.89533 0.44573 0.0
Mn216 Mn 0.48265 0.6237 0.89892 0.0
Mn217 Mn 0.52772 0.6213 0.98791 0.0
C218 C 0.5185 0.6184 0.86136 0.0
C219 C 0.4538 0.60496 0.84948 0.0
C220 C 0.50351 0.665 0.95747 0.0
O221 O 0.46834 0.61798 0.97782 0.0
O222 O 0.49977 0.61435 0.03275 0.0
C223 C 0.52746 0.5723 0.01451 0.0
N224 N 0.5383 0.59078 0.99275 0.0
C225 C 0.57089 0.56847 0.96721 0.0
C226 C 0.56014 0.54923 0.98971 0.0
C227 C 0.53833 0.55116 0.01346 0.0
C228 C 0.55935 0.58915 0.97016 0.0
H229 H 0.51061 0.57367 0.03229 0.0
C230 C 0.47819 0.61413 0.02614 0.0
O231 O 0.45249 0.62655 0.85996 0.0
O232 O 0.47128 0.59437 0.86977 0.0
N233 N 0.55561 0.62746 0.94873 0.0
C234 C 0.56291 0.64728 0.92507 0.0
C235 C 0.58408 0.64805 0.89752 0.0
C236 C 0.59749 0.62844 0.89452 0.0
C237 C 0.58964 0.60825 0.91931 0.0
C238 C 0.56852 0.60857 0.94682 0.0
H239 H 0.55256 0.66234 0.92674 0.0
O240 O 0.50243 0.62642 0.82905 0.0
O241 O 0.51299 0.61401 0.91466 0.0
O242 O 0.48936 0.65652 0.92175 0.0
O243 O 0.51825 0.65333 0.98484 0.0
C244 C 0.60169 0.5877 0.91656 0.0
C245 C 0.59234 0.56783 0.94055 0.0
H246 H 0.56836 0.53284 0.98839 0.0
H247 H 0.52986 0.53636 0.03059 0.0
H248 H 0.58998 0.66367 0.87826 0.0
H249 H 0.61369 0.62903 0.87259 0.0
H250 H 0.61803 0.58691 0.89534 0.0
H251 H 0.60163 0.55206 0.93745 0.0
Mn252 Mn 0.87585 0.48495 0.40704 0.0
Mn253 Mn 0.87815 0.53018 0.49554 0.0
C254 C 0.88085 0.52074 0.369 0.0
C255 C 0.89468 0.45616 0.35764 0.0
C256 C 0.83445 0.50605 0.46487 0.0
O257 O 0.88173 0.47073 0.4859 0.0
O258 O 0.88489 0.50221 0.54073 0.0
C259 C 0.92709 0.52962 0.52285 0.0
N260 N 0.90871 0.54057 0.50083 0.0
C261 C 0.93125 0.57305 0.47572 0.0
C262 C 0.95038 0.56218 0.49851 0.0
C263 C 0.94828 0.54037 0.52217 0.0
C264 C 0.9105 0.56162 0.47832 0.0
H265 H 0.92559 0.51276 0.54057 0.0
C266 C 0.88536 0.48062 0.53424 0.0
O267 O 0.87311 0.45473 0.3683 0.0
O268 O 0.90519 0.47369 0.37776 0.0
N269 N 0.87223 0.5581 0.45624 0.0
C270 C 0.8525 0.56552 0.43228 0.0
C271 C 0.85192 0.58671 0.40473 0.0
C272 C 0.8716 0.60001 0.40207 0.0
C273 C 0.89168 0.59204 0.42721 0.0
C274 C 0.89118 0.57091 0.45469 0.0
H275 H 0.83739 0.55526 0.43369 0.0
O276 O 0.87286 0.50456 0.33706 0.0
O277 O 0.88547 0.51539 0.42232 0.0
O278 O 0.84303 0.49161 0.43006 0.0
O279 O 0.84607 0.52093 0.49184 0.0
C280 C 0.9123 0.60398 0.42484 0.0
C281 C 0.93206 0.59451 0.44914 0.0
H282 H 0.96681 0.57031 0.49748 0.0
H283 H 0.963 0.53181 0.53951 0.0
H284 H 0.83638 0.5927 0.38521 0.0
H285 H 0.87114 0.61622 0.38016 0.0
H286 H 0.91322 0.62032 0.40368 0.0
H287 H 0.94788 0.60371 0.44633 0.0
Mn288 Mn 0.98619 0.37534 0.90776 0.0
Mn289 Mn 0.03106 0.37747 0.99761 0.0
C290 C 0.02218 0.38005 0.87083 0.0
C291 C 0.95771 0.3943 0.85729 0.0
C292 C 0.00685 0.33388 0.9665 0.0
O293 O 0.97164 0.38137 0.98613 0.0
O294 O 0.0029 0.38422 0.0419 0.0
C295 C 0.03046 0.4264 0.02495 0.0
N296 N 0.04149 0.408 0.00334 0.0
C297 C 0.07422 0.43043 0.97979 0.0
C298 C 0.06327 0.44959 0.00218 0.0
C299 C 0.04129 0.44756 0.02485 0.0
C300 C 0.0627 0.40973 0.98179 0.0
H301 H 0.01349 0.42496 0.04192 0.0
C302 C 0.98135 0.3848 0.03479 0.0
O303 O 0.95611 0.37275 0.86812 0.0
O304 O 0.97522 0.40472 0.87782 0.0
N305 N 0.05916 0.37149 0.95929 0.0
C306 C 0.06666 0.35176 0.93552 0.0
C307 C 0.08801 0.35112 0.90886 0.0
C308 C 0.10141 0.37074 0.90692 0.0
C309 C 0.09336 0.39083 0.93187 0.0
C310 C 0.07206 0.39039 0.95843 0.0
H311 H 0.05632 0.33669 0.93639 0.0
O312 O 0.0061 0.37215 0.83843 0.0
O313 O 0.01662 0.3848 0.92393 0.0
O314 O 0.99255 0.34249 0.93135 0.0
O315 O 0.02175 0.34545 0.99357 0.0
C316 C 0.10541 0.41141 0.93016 0.0
C317 C 0.09585 0.43118 0.95417 0.0
H318 H 0.07147 0.46599 0.0016 0.0
H319 H 0.03268 0.46229 0.04187 0.0
H320 H 0.09406 0.33557 0.88948 0.0
H321 H 0.11775 0.37025 0.88569 0.0
H322 H 0.12189 0.41228 0.90973 0.0
H323 H 0.10514 0.44697 0.95186 0.0
Mn324 Mn 0.12364 0.98305 0.40793 0.0
Mn325 Mn 0.12114 0.02838 0.496 0.0
C326 C 0.11807 0.01875 0.3697 0.0
C327 C 0.10509 0.95393 0.35921 0.0
C328 C 0.16497 0.00448 0.46519 0.0
O329 O 0.11811 0.96892 0.48708 0.0
O330 O 0.11464 0.00047 0.54156 0.0
C331 C 0.07223 0.02757 0.52356 0.0
N332 N 0.0905 0.03859 0.50126 0.0
C333 C 0.06768 0.07078 0.47529 0.0
C334 C 0.04865 0.05984 0.49836 0.0
C335 C 0.05094 0.03815 0.5226 0.0
C336 C 0.08852 0.05953 0.47817 0.0
H337 H 0.07387 0.0108 0.5417 0.0
C338 C 0.11441 0.97887 0.53532 0.0
O339 O 0.1267 0.95281 0.36957 0.0
O340 O 0.09437 0.97138 0.37921 0.0
N341 N 0.12683 0.05624 0.4562 0.0
C342 C 0.1465 0.06375 0.43215 0.0
C343 C 0.1469 0.08485 0.40417 0.0
C344 C 0.12711 0.09798 0.40115 0.0
C345 C 0.10708 0.08992 0.42638 0.0
C346 C 0.10776 0.06888 0.45432 0.0
H347 H 0.1617 0.05362 0.43382 0.0
O348 O 0.12616 0.00264 0.33766 0.0
O349 O 0.11377 0.01338 0.42315 0.0
O350 O 0.15642 0.99004 0.43035 0.0
O351 O 0.15329 0.0193 0.4923 0.0
C352 C 0.08636 0.10167 0.42367 0.0
C353 C 0.06668 0.09213 0.44816 0.0
H354 H 0.03215 0.06783 0.49711 0.0
H355 H 0.0363 0.02954 0.54015 0.0
H356 H 0.1624 0.09092 0.38458 0.0
H357 H 0.12742 0.11411 0.37888 0.0
H358 H 0.08529 0.11793 0.40212 0.0
H359 H 0.05078 0.10119 0.4451 0.0
Mn360 Mn 0.51511 0.12407 0.90107 0.0
Mn361 Mn 0.47018 0.12215 0.99066 0.0
C362 C 0.47917 0.11895 0.86402 0.0
C363 C 0.54378 0.10516 0.85134 0.0
C364 C 0.49426 0.16571 0.95846 0.0
O365 O 0.52961 0.11842 0.97974 0.0
O366 O 0.4983 0.1156 0.03532 0.0
C367 C 0.47085 0.07332 0.01926 0.0
N368 N 0.45981 0.09161 0.99705 0.0
C369 C 0.4272 0.069 0.97362 0.0
C370 C 0.43816 0.04995 0.99662 0.0
C371 C 0.46008 0.05214 0.01953 0.0
C372 C 0.43865 0.08974 0.97526 0.0
H373 H 0.48779 0.07488 0.03643 0.0
C374 C 0.51986 0.11505 0.02839 0.0
O375 O 0.54519 0.12676 0.86166 0.0
O376 O 0.52632 0.09465 0.87198 0.0
N377 N 0.44211 0.12791 0.95193 0.0
C378 C 0.43459 0.14754 0.92763 0.0
C379 C 0.41327 0.14802 0.90072 0.0
C380 C 0.39994 0.12834 0.89906 0.0
C381 C 0.40801 0.10836 0.92454 0.0
C382 C 0.42927 0.10896 0.95134 0.0
H383 H 0.44487 0.16264 0.92828 0.0
O384 O 0.49523 0.12682 0.83149 0.0
O385 O 0.48472 0.11452 0.91731 0.0
O386 O 0.50858 0.15697 0.9236 0.0
O387 O 0.47941 0.15421 0.98591 0.0
C388 C 0.39604 0.08775 0.92316 0.0
C389 C 0.40561 0.06808 0.94774 0.0
H390 H 0.43001 0.03353 0.99632 0.0
H391 H 0.46871 0.03749 0.03703 0.0
H392 H 0.4072 0.16347 0.88093 0.0
H393 H 0.38364 0.12871 0.87763 0.0
H394 H 0.3796 0.08674 0.90254 0.0
H395 H 0.39638 0.05226 0.94568 0.0
Mn396 Mn 0.37343 0.51351 0.3996 0.0
Mn397 Mn 0.37534 0.46875 0.48978 0.0
C398 C 0.37894 0.47752 0.36321 0.0
C399 C 0.39225 0.54219 0.34978 0.0
C400 C 0.33177 0.49258 0.45653 0.0
O401 O 0.37874 0.52818 0.47822 0.0
O402 O 0.38164 0.49697 0.53423 0.0
C403 C 0.42409 0.46965 0.51924 0.0
N404 N 0.40591 0.45851 0.49679 0.0
C405 C 0.42875 0.42599 0.47383 0.0
C406 C 0.44768 0.43705 0.49708 0.0
C407 C 0.44533 0.45898 0.51987 0.0
C408 C 0.40795 0.43734 0.47512 0.0
H409 H 0.4224 0.48659 0.5363 0.0
C410 C 0.38205 0.51852 0.52705 0.0
O411 O 0.37063 0.54348 0.35975 0.0
O412 O 0.40284 0.52486 0.37088 0.0
N413 N 0.36982 0.44061 0.45117 0.0
C414 C 0.3503 0.43298 0.42657 0.0
C415 C 0.34999 0.41166 0.39973 0.0
C416 C 0.36974 0.39842 0.39842 0.0
C417 C 0.38961 0.40659 0.4242 0.0
C418 C 0.38883 0.42786 0.45093 0.0
H419 H 0.33514 0.4432 0.42692 0.0
O420 O 0.37104 0.49344 0.33025 0.0
O421 O 0.38312 0.48323 0.4165 0.0
O422 O 0.34052 0.50684 0.42156 0.0
O423 O 0.34327 0.47784 0.48441 0.0
C424 C 0.41029 0.39472 0.42316 0.0
C425 C 0.42984 0.4044 0.44802 0.0
H426 H 0.46415 0.42899 0.49705 0.0
H427 H 0.45989 0.46768 0.53755 0.0
H428 H 0.33462 0.40551 0.3797 0.0
H429 H 0.36951 0.3821 0.37704 0.0
H430 H 0.41143 0.37828 0.40259 0.0
H431 H 0.44572 0.39524 0.44622 0.0
Mn432 Mn 0.98249 0.12578 0.10251 0.0
Mn433 Mn 0.02724 0.12136 0.01286 0.0
C434 C 0.01809 0.11858 0.13948 0.0
C435 C 0.95268 0.10884 0.15192 0.0
C436 C 0.00555 0.16615 0.04492 0.0
O437 O 0.96768 0.12111 0.02375 0.0
O438 O 0.99881 0.11633 0.9683 0.0
C439 C 0.02393 0.0726 0.98477 0.0
N440 N 0.03595 0.09028 0.00677 0.0
C441 C 0.06726 0.06594 0.03062 0.0
C442 C 0.05528 0.04749 0.00783 0.0
C443 C 0.03352 0.05084 0.98482 0.0
C444 C 0.05695 0.08728 0.02872 0.0
H445 H 0.00711 0.07506 0.96754 0.0
C446 C 0.97726 0.11713 0.97517 0.0
O447 O 0.95277 0.1305 0.14206 0.0
O448 O 0.96932 0.09708 0.13126 0.0
N449 N 0.0556 0.12563 0.05148 0.0
C450 C 0.06423 0.14489 0.07524 0.0
C451 C 0.08558 0.14427 0.10196 0.0
C452 C 0.0978 0.12388 0.10399 0.0
C453 C 0.08861 0.10431 0.07899 0.0
C454 C 0.06738 0.10601 0.05234 0.0
H455 H 0.05481 0.16055 0.07429 0.0
O456 O 0.00249 0.12725 0.17213 0.0
O457 O 0.01229 0.11449 0.08619 0.0
O458 O 0.99096 0.15819 0.08018 0.0
O459 O 0.01972 0.1539 0.01725 0.0
C460 C 0.09943 0.08306 0.08068 0.0
C461 C 0.08878 0.0639 0.05646 0.0
H462 H 0.06252 0.03064 0.00834 0.0
H463 H 0.02411 0.03666 0.96748 0.0
H464 H 0.09253 0.15943 0.12135 0.0
H465 H 0.11413 0.12341 0.12528 0.0
H466 H 0.11581 0.08121 0.10123 0.0
H467 H 0.09714 0.0476 0.05873 0.0
Mn468 Mn 0.37476 0.98414 0.59494 0.0
Mn469 Mn 0.37659 0.02926 0.50594 0.0
C470 C 0.37988 0.02001 0.63248 0.0
C471 C 0.39373 0.95538 0.64412 0.0
C472 C 0.33309 0.005 0.53779 0.0
O473 O 0.38036 0.96984 0.51604 0.0
O474 O 0.38326 0.00126 0.46086 0.0
C475 C 0.42543 0.02884 0.47748 0.0
N476 N 0.40709 0.03976 0.4998 0.0
C477 C 0.42958 0.07239 0.52395 0.0
C478 C 0.44867 0.06155 0.50084 0.0
C479 C 0.44658 0.03969 0.47751 0.0
C480 C 0.40888 0.06087 0.52199 0.0
H481 H 0.42394 0.01195 0.46002 0.0
C482 C 0.38377 0.97968 0.46753 0.0
O483 O 0.37213 0.95397 0.63386 0.0
O484 O 0.40421 0.9729 0.62373 0.0
N485 N 0.37072 0.05721 0.54512 0.0
C486 C 0.35106 0.06458 0.56954 0.0
C487 C 0.35049 0.08581 0.59688 0.0
C488 C 0.37012 0.0992 0.59886 0.0
C489 C 0.39013 0.09129 0.57325 0.0
C490 C 0.38961 0.07011 0.54601 0.0
H491 H 0.33599 0.05424 0.56867 0.0
O492 O 0.37205 0.00386 0.66482 0.0
O493 O 0.38426 0.01458 0.57909 0.0
O494 O 0.34185 0.99069 0.57264 0.0
O495 O 0.34456 0.01989 0.51041 0.0
C496 C 0.41071 0.10332 0.57496 0.0
C497 C 0.43041 0.09389 0.55026 0.0
H498 H 0.46507 0.06975 0.50138 0.0
H499 H 0.46126 0.03116 0.45993 0.0
H500 H 0.33501 0.09176 0.61677 0.0
H501 H 0.36969 0.11544 0.62062 0.0
H502 H 0.41164 0.1197 0.59593 0.0
H503 H 0.4462 0.10317 0.55259 0.0
Mn504 Mn 0.51573 0.37445 0.09481 0.0
Mn505 Mn 0.47029 0.3775 0.00725 0.0
C506 C 0.48003 0.3795 0.13372 0.0
C507 C 0.54485 0.39297 0.14372 0.0
C508 C 0.49496 0.33363 0.03475 0.0
O509 O 0.52961 0.3803 0.01535 0.0
O510 O 0.49787 0.38585 0.96255 0.0
C511 C 0.46934 0.42688 0.98559 0.0
N512 N 0.45896 0.40781 0.00539 0.0
C513 C 0.4258 0.4289 0.03289 0.0
C514 C 0.43605 0.44872 0.01218 0.0
C515 C 0.45792 0.4477 0.98848 0.0
C516 C 0.43788 0.40858 0.02809 0.0
H517 H 0.48627 0.42623 0.96809 0.0
C518 C 0.5195 0.3855 0.96822 0.0
O519 O 0.54609 0.37142 0.13266 0.0
O520 O 0.52731 0.40367 0.12419 0.0
N521 N 0.44271 0.37015 0.04656 0.0
C522 C 0.436 0.34988 0.06884 0.0
C523 C 0.4149 0.34822 0.09652 0.0
C524 C 0.40095 0.3674 0.10106 0.0
C525 C 0.4082 0.38807 0.0777 0.0
C526 C 0.42928 0.38864 0.04997 0.0
H527 H 0.44674 0.33514 0.06596 0.0
O528 O 0.4963 0.37151 0.16539 0.0
O529 O 0.48529 0.38416 0.08045 0.0
O530 O 0.50883 0.34181 0.07157 0.0
O531 O 0.48045 0.34557 0.00726 0.0
C532 C 0.39559 0.40824 0.08212 0.0
C533 C 0.40437 0.42864 0.05967 0.0
H534 H 0.4274 0.46486 0.01498 0.0
H535 H 0.46602 0.46295 0.97289 0.0
H536 H 0.40947 0.33223 0.11468 0.0
H537 H 0.38482 0.36611 0.12308 0.0
H538 H 0.37927 0.40832 0.10351 0.0
H539 H 0.39467 0.4441 0.06417 0.0
Mn540 Mn 0.12293 0.51392 0.59196 0.0
Mn541 Mn 0.1203 0.46815 0.50547 0.0
C542 C 0.11851 0.47834 0.63186 0.0
C543 C 0.10406 0.54297 0.64027 0.0
C544 C 0.1639 0.49343 0.53202 0.0
O545 O 0.11684 0.52744 0.51229 0.0
O546 O 0.11155 0.49549 0.46016 0.0
C547 C 0.07092 0.46653 0.48424 0.0
N548 N 0.09014 0.45644 0.50409 0.0
C549 C 0.06953 0.42308 0.53229 0.0
C550 C 0.04956 0.43302 0.51153 0.0
C551 C 0.05026 0.45484 0.48746 0.0
C552 C 0.08968 0.4354 0.52714 0.0
H553 H 0.07132 0.48342 0.46643 0.0
C554 C 0.11172 0.51713 0.4654 0.0
O555 O 0.12557 0.54447 0.629 0.0
O556 O 0.09359 0.52521 0.62127 0.0
N557 N 0.12806 0.44079 0.54529 0.0
C558 C 0.14843 0.43442 0.56764 0.0
C559 C 0.1504 0.41343 0.59577 0.0
C560 C 0.13142 0.39924 0.60067 0.0
C561 C 0.11064 0.40614 0.57722 0.0
C562 C 0.10976 0.42712 0.54906 0.0
H563 H 0.16302 0.44534 0.56449 0.0
O564 O 0.1263 0.49487 0.66296 0.0
O565 O 0.1136 0.48329 0.5785 0.0
O566 O 0.15562 0.50734 0.56858 0.0
O567 O 0.15209 0.47869 0.50499 0.0
C568 C 0.09065 0.39328 0.582 0.0
C569 C 0.07012 0.40173 0.55948 0.0
H570 H 0.03354 0.42417 0.5146 0.0
H571 H 0.03488 0.46271 0.47182 0.0
H572 H 0.16647 0.40827 0.61399 0.0
H573 H 0.13294 0.38319 0.62302 0.0
H574 H 0.0908 0.37703 0.60373 0.0
H575 H 0.05479 0.39184 0.56425 0.0
H576 H 0.97633 0.68764 0.94137 0.0
H577 H 0.00936 0.69801 0.10632 0.0
H578 H 0.97689 0.72843 0.92389 0.0
H579 H 0.00955 0.73888 0.08891 0.0
H580 H 0.97643 0.81017 0.06007 0.0
H581 H 0.97725 0.76938 0.07681 0.0
H582 H 0.00885 0.75942 0.91028 0.0
H583 H 0.00841 0.80038 0.89356 0.0
C584 C 0.98362 0.69862 0.97398 0.0
C585 C 0.99277 0.68963 0.0253 0.0
C586 C 0.98407 0.72191 0.96373 0.0
C587 C 0.99328 0.73668 0.00504 0.0
C588 C 0.00228 0.72777 0.05652 0.0
C589 C 0.00223 0.70443 0.06634 0.0
C590 C 0.98355 0.79931 0.02694 0.0
C591 C 0.99234 0.80848 0.97543 0.0
C592 C 0.98413 0.77601 0.03676 0.0
C593 C 0.99313 0.76137 0.99486 0.0
C594 C 0.00175 0.77043 0.94312 0.0
C595 C 0.00157 0.79381 0.93371 0.0
H596 H 0.69924 0.01024 0.38968 0.0
H597 H 0.6884 0.97713 0.55432 0.0
H598 H 0.74 0.01138 0.40921 0.0
H599 H 0.72895 0.97862 0.57384 0.0
H600 H 0.79918 0.01128 0.61061 0.0
H601 H 0.75859 0.01122 0.58961 0.0
H602 H 0.7716 0.98017 0.42376 0.0
H603 H 0.81214 0.97988 0.4448 0.0
C604 C 0.70553 0.00329 0.43 0.0
C605 C 0.69062 0.99355 0.47038 0.0
C606 C 0.72881 0.00387 0.44102 0.0
C607 C 0.7375 0.99515 0.49308 0.0
C608 C 0.72261 0.98561 0.5336 0.0
C609 C 0.69944 0.98464 0.52217 0.0
C610 C 0.79339 0.00449 0.56962 0.0
C611 C 0.80885 0.99552 0.52945 0.0
C612 C 0.7702 0.00439 0.55776 0.0
C613 C 0.76207 0.99572 0.50508 0.0
C614 C 0.7775 0.98709 0.46451 0.0
C615 C 0.80065 0.9868 0.47678 0.0
H616 H 0.52326 0.80969 0.94575 0.0
H617 H 0.48437 0.79979 0.10236 0.0
H618 H 0.52162 0.76915 0.92631 0.0
H619 H 0.48307 0.75907 0.08289 0.0
H620 H 0.51538 0.68667 0.05687 0.0
H621 H 0.51449 0.72731 0.07644 0.0
H622 H 0.48928 0.73955 0.90382 0.0
H623 H 0.48974 0.69875 0.88435 0.0
C624 C 0.51441 0.79889 0.97613 0.0
C625 C 0.50397 0.80798 0.02573 0.0
C626 C 0.51336 0.77571 0.96469 0.0
C627 C 0.50218 0.76109 0.00302 0.0
C628 C 0.49185 0.77005 0.05279 0.0
C629 C 0.49256 0.79333 0.06379 0.0
C630 C 0.50962 0.69802 0.02309 0.0
C631 C 0.50269 0.68958 0.96899 0.0
C632 C 0.50896 0.72122 0.03449 0.0
C633 C 0.50181 0.73646 0.99164 0.0
C634 C 0.49492 0.72808 0.93748 0.0
C635 C 0.49511 0.7048 0.92645 0.0
H636 H 0.69963 0.48959 0.60928 0.0
H637 H 0.68887 0.52187 0.44352 0.0
H638 H 0.74045 0.48928 0.59126 0.0
H639 H 0.72961 0.52119 0.42543 0.0
H640 H 0.80125 0.48921 0.39416 0.0
H641 H 0.76037 0.48902 0.41203 0.0
H642 H 0.77117 0.52119 0.57752 0.0
H643 H 0.81189 0.52176 0.5596 0.0
C644 C 0.70596 0.49656 0.56902 0.0
C645 C 0.69105 0.5058 0.52789 0.0
C646 C 0.72928 0.49643 0.55885 0.0
C647 C 0.73807 0.50514 0.50691 0.0
C648 C 0.7232 0.51422 0.46561 0.0
C649 C 0.69993 0.51474 0.47621 0.0
C650 C 0.79489 0.4962 0.43436 0.0
C651 C 0.80977 0.50554 0.4754 0.0
C652 C 0.77154 0.49618 0.44441 0.0
C653 C 0.76273 0.50506 0.49615 0.0
C654 C 0.7776 0.51412 0.53746 0.0
C655 C 0.80086 0.51455 0.52698 0.0
H656 H 0.98988 0.3005 0.89645 0.0
H657 H 0.02217 0.31162 0.06202 0.0
H658 H 0.98934 0.25969 0.91556 0.0
H659 H 0.02128 0.27101 0.08113 0.0
H660 H 0.98945 0.19986 0.115 0.0
H661 H 0.98927 0.24059 0.09555 0.0
H662 H 0.02124 0.22879 0.93026 0.0
H663 H 0.02179 0.18815 0.94975 0.0
C664 C 0.99674 0.29426 0.93692 0.0
C665 C 0.00612 0.30925 0.97764 0.0
C666 C 0.99652 0.27096 0.9477 0.0
C667 C 0.00524 0.26233 0.99983 0.0
C668 C 0.01432 0.2773 0.0408 0.0
C669 C 0.01495 0.30051 0.02962 0.0
C670 C 0.99647 0.20596 0.07456 0.0
C671 C 0.0057 0.19081 0.034 0.0
C672 C 0.9964 0.22923 0.06356 0.0
C673 C 0.00516 0.23771 0.01135 0.0
C674 C 0.01423 0.22261 0.97062 0.0
C675 C 0.01469 0.1994 0.98205 0.0
H676 H 0.31024 0.02024 0.44299 0.0
H677 H 0.30018 0.988 0.60906 0.0
H678 H 0.26951 0.01912 0.42535 0.0
H679 H 0.25928 0.98726 0.59146 0.0
H680 H 0.18763 0.02015 0.55992 0.0
H681 H 0.22836 0.01923 0.57791 0.0
H682 H 0.23891 0.98693 0.41248 0.0
H683 H 0.19806 0.98747 0.39456 0.0
C684 C 0.29933 0.01298 0.4758 0.0
C685 C 0.30841 0.00424 0.5275 0.0
C686 C 0.27607 0.01222 0.46546 0.0
C687 C 0.26136 0.00308 0.50702 0.0
C688 C 0.27033 0.99445 0.55886 0.0
C689 C 0.29369 0.99481 0.56878 0.0
C690 C 0.19861 0.01284 0.52734 0.0
C691 C 0.18965 0.00392 0.47573 0.0
C692 C 0.22188 0.01219 0.53788 0.0
C693 C 0.23667 0.00299 0.4966 0.0
C694 C 0.2278 0.99418 0.44487 0.0
C695 C 0.20446 0.99443 0.43476 0.0
H696 H 0.47856 0.18854 0.05277 0.0
H697 H 0.51161 0.19869 0.88779 0.0
H698 H 0.47972 0.22922 0.07073 0.0
H699 H 0.51241 0.23957 0.90573 0.0
H700 H 0.4801 0.31159 0.93804 0.0
H701 H 0.48092 0.27092 0.91872 0.0
H702 H 0.51188 0.25935 0.08539 0.0
H703 H 0.51141 0.30007 0.10468 0.0
C704 C 0.486 0.19945 0.02024 0.0
C705 C 0.49498 0.19041 0.96879 0.0
C706 C 0.48678 0.2227 0.03076 0.0
C707 C 0.49618 0.23743 0.98965 0.0
C708 C 0.50501 0.2285 0.93799 0.0
C709 C 0.50462 0.20515 0.92788 0.0
C710 C 0.48712 0.30039 0.97056 0.0
C711 C 0.49565 0.30903 0.02296 0.0
C712 C 0.48771 0.27717 0.95928 0.0
C713 C 0.49646 0.2621 1.00058 0.0
C714 C 0.50496 0.27067 0.05298 0.0
C715 C 0.50476 0.29394 0.06386 0.0
H716 H 0.30882 0.47702 0.55076 0.0
H717 H 0.29891 0.5098 0.3853 0.0
H718 H 0.26813 0.47833 0.56842 0.0
H719 H 0.25802 0.51076 0.40295 0.0
H720 H 0.18595 0.4785 0.43546 0.0
H721 H 0.22662 0.47931 0.41622 0.0
H722 H 0.23809 0.5107 0.58241 0.0
H723 H 0.19737 0.51023 0.6016 0.0
C724 C 0.29795 0.48442 0.51806 0.0
C725 C 0.30707 0.49329 0.46657 0.0
C726 C 0.2747 0.48529 0.52841 0.0
C727 C 0.26004 0.49468 0.48709 0.0
C728 C 0.26904 0.50337 0.43537 0.0
C729 C 0.29239 0.50289 0.42542 0.0
C730 C 0.19713 0.48562 0.46787 0.0
C731 C 0.18847 0.49426 0.52013 0.0
C732 C 0.22035 0.48621 0.45663 0.0
C733 C 0.23538 0.49506 0.49786 0.0
C734 C 0.22679 0.5037 0.55007 0.0
C735 C 0.20352 0.50351 0.5609 0.0
H736 H 0.06367 0.60239 0.96052 0.0
H737 H 0.00566 0.61528 0.85129 0.0
H738 H 0.08498 0.58954 0.87623 0.0
H739 H 0.02714 0.60313 0.76706 0.0
H740 H 0.05885 0.54569 0.65918 0.0
H741 H 0.03945 0.567 0.73376 0.0
H742 H 0.10267 0.59824 0.78362 0.0
H743 H 0.12235 0.57623 0.70906 0.0
C744 C 0.0556 0.60289 0.91842 0.0
C745 C 0.03283 0.60952 0.91286 0.0
C746 C 0.06788 0.59567 0.86998 0.0
C747 C 0.05771 0.59508 0.81488 0.0
C748 C 0.03535 0.60291 0.809 0.0
C749 C 0.02304 0.60992 0.85737 0.0
C750 C 0.06861 0.55738 0.68532 0.0
C751 C 0.09217 0.55915 0.67848 0.0
C752 C 0.05743 0.56975 0.728 0.0
C753 C 0.06949 0.58429 0.76501 0.0
C754 C 0.09293 0.58696 0.75631 0.0
C755 C 0.10417 0.57454 0.71329 0.0
H756 H 0.93408 0.12661 0.24964 0.0
H757 H 0.93515 0.06659 0.14344 0.0
H758 H 0.91482 0.10572 0.32615 0.0
H759 H 0.9144 0.04597 0.21763 0.0
H760 H 0.91171 0.0074 0.3864 0.0
H761 H 0.92391 0.02982 0.30465 0.0
H762 H 0.88453 0.08649 0.36756 0.0
H763 H 0.8734 0.06417 0.45188 0.0
C764 C 0.92937 0.10915 0.2419 0.0
C765 C 0.93622 0.0981 0.19107 0.0
C766 C 0.91829 0.0971 0.28575 0.0
C767 C 0.91345 0.07389 0.27896 0.0
C768 C 0.91857 0.06355 0.22556 0.0
C769 C 0.93018 0.07541 0.18257 0.0
C770 C 0.90557 0.02462 0.38279 0.0
C771 C 0.89166 0.03401 0.42582 0.0
C772 C 0.91238 0.0375 0.33531 0.0
C773 C 0.90507 0.06004 0.32866 0.0
C774 C 0.89078 0.06933 0.37135 0.0
C775 C 0.88431 0.05652 0.41965 0.0
H776 H 0.49262 0.88308 0.85392 0.0
H777 H 0.43513 0.89656 0.96445 0.0
H778 H 0.47093 0.89535 0.77015 0.0
H779 H 0.41362 0.9095 0.88061 0.0
H780 H 0.439 0.95269 0.66219 0.0
H781 H 0.45864 0.93152 0.73668 0.0
H782 H 0.39553 0.90058 0.7886 0.0
H783 H 0.37563 0.92242 0.71414 0.0
C784 C 0.47532 0.88861 0.8604 0.0
C785 C 0.46573 0.88912 0.91612 0.0
C786 C 0.46289 0.89568 0.81228 0.0
C787 C 0.44061 0.90367 0.81865 0.0
C788 C 0.43066 0.90325 0.87399 0.0
C789 C 0.44306 0.89598 0.92218 0.0
C790 C 0.42931 0.9411 0.68878 0.0
C791 C 0.40573 0.93936 0.68255 0.0
C792 C 0.44063 0.92881 0.73141 0.0
C793 C 0.42867 0.9144 0.76894 0.0
C794 C 0.40519 0.91177 0.76088 0.0
C795 C 0.39382 0.9241 0.71792 0.0
H796 H 0.57756 0.37428 0.2136 0.0
H797 H 0.54824 0.43817 0.16206 0.0
H798 H 0.59972 0.39378 0.2882 0.0
H799 H 0.56972 0.4574 0.23662 0.0
H800 H 0.61825 0.49079 0.35368 0.0
H801 H 0.60607 0.4691 0.26983 0.0
H802 H 0.5912 0.41201 0.38044 0.0
H803 H 0.60409 0.43354 0.46441 0.0
C804 C 0.57617 0.3925 0.21747 0.0
C805 C 0.56109 0.40468 0.18217 0.0
C806 C 0.58868 0.40364 0.26052 0.0
C807 C 0.58642 0.42715 0.26869 0.0
C808 C 0.57216 0.43936 0.23125 0.0
C809 C 0.55969 0.42828 0.18858 0.0
C810 C 0.61262 0.47352 0.36015 0.0
C811 C 0.61184 0.46402 0.41594 0.0
C812 C 0.60559 0.46109 0.312 0.0
C813 C 0.59734 0.43891 0.3184 0.0
C814 C 0.59763 0.42898 0.3738 0.0
C815 C 0.60488 0.44138 0.42205 0.0
H816 H 0.12367 0.92177 0.28762 0.0
H817 H 0.05982 0.94997 0.34331 0.0
H818 H 0.10389 0.89978 0.21318 0.0
H819 H 0.0403 0.92867 0.26893 0.0
H820 H 0.06306 0.89658 0.0385 0.0
H821 H 0.08496 0.90899 0.12224 0.0
H822 H 0.02882 0.89238 0.23438 0.0
H823 H 0.00674 0.88066 0.15078 0.0
C824 C 0.10541 0.92294 0.2847 0.0
C825 C 0.0933 0.93768 0.32105 0.0
C826 C 0.09411 0.91053 0.24177 0.0
C827 C 0.07052 0.91256 0.23477 0.0
C828 C 0.05841 0.92642 0.27336 0.0
C829 C 0.06965 0.93879 0.31592 0.0
C830 C 0.0555 0.89531 0.08111 0.0
C831 C 0.033 0.888 0.08779 0.0
C832 C 0.06812 0.90228 0.12922 0.0
C833 C 0.05856 0.90192 0.18503 0.0
C834 C 0.03654 0.89334 0.19191 0.0
C835 C 0.02388 0.88658 0.1439 0.0
H836 H 0.54665 0.05987 0.83377 0.0
H837 H 0.57638 0.12331 0.78031 0.0
H838 H 0.56772 0.04019 0.75922 0.0
H839 H 0.59814 0.10336 0.70575 0.0
H840 H 0.61616 0.00615 0.64234 0.0
H841 H 0.60393 0.02807 0.72574 0.0
H842 H 0.58922 0.0849 0.61411 0.0
H843 H 0.60212 0.06316 0.5306 0.0
C844 C 0.5581 0.06957 0.80681 0.0
C845 C 0.55973 0.09318 0.81269 0.0
C846 C 0.57034 0.05823 0.76415 0.0
C847 C 0.58459 0.07018 0.7262 0.0
C848 C 0.58708 0.0937 0.73382 0.0
C849 C 0.5748 0.1051 0.77683 0.0
C850 C 0.61052 0.0234 0.63552 0.0
C851 C 0.60983 0.03277 0.57958 0.0
C852 C 0.60347 0.03596 0.68342 0.0
C853 C 0.59531 0.05816 0.67663 0.0
C854 C 0.59559 0.06793 0.62105 0.0
C855 C 0.60284 0.05539 0.57305 0.0
H856 H 0.43751 0.54496 0.33157 0.0
H857 H 0.37401 0.57484 0.27896 0.0
H858 H 0.45707 0.56602 0.25679 0.0
H859 H 0.39384 0.59659 0.20422 0.0
H860 H 0.49094 0.61454 0.13977 0.0
H861 H 0.4692 0.60217 0.22332 0.0
H862 H 0.41208 0.58783 0.11235 0.0
H863 H 0.43364 0.60091 0.02869 0.0
C864 C 0.42777 0.55644 0.30476 0.0
C865 C 0.40419 0.55811 0.31095 0.0
C866 C 0.43904 0.56867 0.26195 0.0
C867 C 0.42704 0.58296 0.22419 0.0
C868 C 0.40354 0.58549 0.23212 0.0
C869 C 0.39222 0.57321 0.27524 0.0
C870 C 0.47367 0.60895 0.13313 0.0
C871 C 0.46415 0.60843 0.07733 0.0
C872 C 0.46121 0.60181 0.18112 0.0
C873 C 0.43898 0.59373 0.17455 0.0
C874 C 0.42908 0.59415 0.11912 0.0
C875 C 0.44151 0.6015 0.07104 0.0
H876 H 0.92472 0.37631 0.78701 0.0
H877 H 0.95543 0.43954 0.83843 0.0
H878 H 0.90296 0.3963 0.71248 0.0
H879 H 0.93436 0.45924 0.76389 0.0
H880 H 0.89821 0.43596 0.53691 0.0
H881 H 0.91148 0.41438 0.6203 0.0
H882 H 0.89824 0.47179 0.7312 0.0
H883 H 0.88567 0.49355 0.64784 0.0
C884 C 0.92653 0.39449 0.78307 0.0
C885 C 0.94185 0.40633 0.81841 0.0
C886 C 0.91424 0.4059 0.74007 0.0
C887 C 0.91699 0.42937 0.73191 0.0
C888 C 0.93154 0.44125 0.76925 0.0
C889 C 0.94378 0.42989 0.81192 0.0
C890 C 0.8979 0.4439 0.57918 0.0
C891 C 0.89119 0.46662 0.58546 0.0
C892 C 0.90537 0.43145 0.62713 0.0
C893 C 0.90614 0.4414 0.68246 0.0
C894 C 0.89832 0.46374 0.68906 0.0
C895 C 0.89105 0.47621 0.64118 0.0
H896 H 0.99371 0.38384 0.1487 0.0
H897 H 0.93689 0.39832 0.03671 0.0
H898 H 0.97173 0.39593 0.23211 0.0
H899 H 0.91508 0.4111 0.12024 0.0
H900 H 0.93996 0.45304 0.34075 0.0
H901 H 0.95967 0.43205 0.26612 0.0
H902 H 0.89646 0.40201 0.21153 0.0
H903 H 0.87648 0.4237 0.28618 0.0
C904 C 0.9765 0.38956 0.14182 0.0
C905 C 0.96718 0.3904 0.08583 0.0
C906 C 0.96389 0.39653 0.18973 0.0
C907 C 0.94172 0.40475 0.18288 0.0
C908 C 0.93203 0.40466 0.12721 0.0
C909 C 0.9446 0.39749 0.07921 0.0
C910 C 0.93026 0.44168 0.31354 0.0
C911 C 0.90664 0.44015 0.31912 0.0
C912 C 0.94161 0.42949 0.27083 0.0
C913 C 0.92966 0.41538 0.23253 0.0
C914 C 0.90612 0.41296 0.23987 0.0
C915 C 0.89471 0.4252 0.28295 0.0
H916 H 0.04484 0.93868 0.84062 0.0
H917 H 0.07469 0.87508 0.78877 0.0
H918 H 0.06604 0.95813 0.76594 0.0
H919 H 0.0966 0.8948 0.71417 0.0
H920 H 0.10135 0.93429 0.53844 0.0
H921 H 0.08814 0.91289 0.62217 0.0
H922 H 0.10214 0.97027 0.73254 0.0
H923 H 0.11464 0.99186 0.64883 0.0
C924 C 0.05634 0.92889 0.814 0.0
C925 C 0.05797 0.90531 0.82037 0.0
C926 C 0.06865 0.94011 0.77126 0.0
C927 C 0.083 0.92805 0.73374 0.0
C928 C 0.08547 0.90455 0.74185 0.0
C929 C 0.0731 0.89328 0.7849 0.0
C930 C 0.10185 0.94225 0.58067 0.0
C931 C 0.10873 0.96492 0.58672 0.0
C932 C 0.09442 0.92991 0.62881 0.0
C933 C 0.09386 0.93992 0.6841 0.0
C934 C 0.10189 0.96219 0.69045 0.0
C935 C 0.10911 0.97456 0.64238 0.0
H936 H 0.62416 0.07508 0.28049 0.0
H937 H 0.56056 0.04544 0.333 0.0
H938 H 0.60438 0.09703 0.20598 0.0
H939 H 0.54105 0.06672 0.2585 0.0
H940 H 0.56437 0.10165 0.03062 0.0
H941 H 0.58597 0.08843 0.11405 0.0
H942 H 0.5291 0.10308 0.22554 0.0
H943 H 0.50731 0.11562 0.1422 0.0
C944 C 0.60595 0.07355 0.27681 0.0
C945 C 0.59393 0.05846 0.31241 0.0
C946 C 0.59465 0.08595 0.23382 0.0
C947 C 0.57113 0.08356 0.22597 0.0
C948 C 0.55909 0.06926 0.26363 0.0
C949 C 0.57033 0.0569 0.30626 0.0
C950 C 0.55656 0.10229 0.07303 0.0
C951 C 0.53397 0.10936 0.07951 0.0
C952 C 0.56902 0.09485 0.12099 0.0
C953 C 0.5592 0.09446 0.17649 0.0
C954 C 0.53703 0.1027 0.18327 0.0
C955 C 0.52454 0.10994 0.13541 0.0
H956 H 0.39534 0.56305 0.52905 0.0
H957 H 0.38093 0.5062 0.64098 0.0
H958 H 0.40819 0.58482 0.61258 0.0
H959 H 0.3931 0.52815 0.72439 0.0
H960 H 0.4506 0.55968 0.83229 0.0
H961 H 0.42937 0.54008 0.75791 0.0
H962 H 0.39932 0.6034 0.70413 0.0
H963 H 0.42124 0.62327 0.77853 0.0
C964 C 0.39452 0.55533 0.57155 0.0
C965 C 0.38746 0.53274 0.57813 0.0
C966 C 0.40174 0.56788 0.61955 0.0
C967 C 0.4019 0.55816 0.67519 0.0
C968 C 0.39365 0.536 0.68203 0.0
C969 C 0.38663 0.52342 0.63413 0.0
C970 C 0.43919 0.56943 0.80531 0.0
C971 C 0.43772 0.59305 0.81103 0.0
C972 C 0.42686 0.55814 0.76275 0.0
C973 C 0.41267 0.57015 0.72474 0.0
C974 C 0.41033 0.59369 0.73224 0.0
C975 C 0.4227 0.60504 0.77516 0.0
H976 H 0.8727 0.07817 0.72294 0.0
H977 H 0.9369 0.05058 0.66791 0.0
H978 H 0.89216 0.10034 0.79761 0.0
H979 H 0.9561 0.07202 0.74249 0.0
H980 H 0.93276 0.10382 0.97285 0.0
H981 H 0.91097 0.09152 0.88875 0.0
H982 H 0.96735 0.10815 0.7774 0.0
H983 H 0.98932 0.11969 0.86139 0.0
C984 C 0.89097 0.07719 0.72603 0.0
C985 C 0.90327 0.06255 0.68981 0.0
C986 C 0.90209 0.08969 0.76911 0.0
C987 C 0.92569 0.08787 0.77637 0.0
C988 C 0.93798 0.07413 0.73788 0.0
C989 C 0.92692 0.06167 0.69519 0.0
C990 C 0.94038 0.10512 0.93032 0.0
C991 C 0.96292 0.11235 0.92395 0.0
C992 C 0.92783 0.09822 0.882 0.0
C993 C 0.9375 0.09859 0.8263 0.0
C994 C 0.95955 0.10716 0.81976 0.0
C995 C 0.97215 0.11381 0.86798 0.0
H996 H 0.38347 0.99248 0.35385 0.0
H997 H 0.39672 0.93505 0.46482 0.0
H998 H 0.39572 0.97066 0.27027 0.0
H999 H 0.40965 0.91342 0.38119 0.0
H1000 H 0.42254 0.87523 0.21479 0.0
H1001 H 0.40079 0.89523 0.28929 0.0
H1002 H 0.43181 0.95824 0.23691 0.0
H1003 H 0.45287 0.93852 0.16241 0.0
C1004 C 0.38894 0.97516 0.36046 0.0
C1005 C 0.38939 0.96563 0.41625 0.0
C1006 C 0.39601 0.96266 0.31246 0.0
C1007 C 0.40393 0.94036 0.319 0.0
C1008 C 0.40345 0.93046 0.37442 0.0
C1009 C 0.39618 0.94294 0.4225 0.0
C1010 C 0.42426 0.89342 0.21849 0.0
C1011 C 0.43949 0.90528 0.18296 0.0
C1012 C 0.41198 0.90485 0.26147 0.0
C1013 C 0.41465 0.92834 0.2694 0.0
C1014 C 0.42907 0.94023 0.23175 0.0
C1015 C 0.44129 0.92886 0.18911 0.0
H1016 H 0.5635 0.37403 0.94371 0.0
H1017 H 0.50658 0.41198 0.87775 0.0
H1018 H 0.58584 0.38525 0.85949 0.0
H1019 H 0.52902 0.42433 0.7962 0.0
H1020 H 0.56598 0.43603 0.63536 0.0
H1021 H 0.54529 0.41525 0.70937 0.0
H1022 H 0.60503 0.41536 0.81795 0.0
H1023 H 0.62599 0.43459 0.74155 0.0
C1024 C 0.55583 0.38489 0.91141 0.0
C1025 C 0.53328 0.3921 0.9174 0.0
C1026 C 0.56865 0.39142 0.86316 0.0
C1027 C 0.55933 0.40567 0.82038 0.0
C1028 C 0.53674 0.41284 0.82689 0.0
C1029 C 0.52385 0.40595 0.87428 0.0
C1030 C 0.57477 0.43099 0.67447 0.0
C1031 C 0.59749 0.43691 0.68298 0.0
C1032 C 0.56286 0.41936 0.71739 0.0
C1033 C 0.57319 0.41413 0.77076 0.0
C1034 C 0.59642 0.4189 0.77758 0.0
C1035 C 0.6085 0.42997 0.73379 0.0
H1036 H 0.08469 0.50424 0.37595 0.0
H1037 H 0.12384 0.56076 0.43932 0.0
H1038 H 0.0724 0.52656 0.294 0.0
H1039 H 0.11275 0.58292 0.35474 0.0
H1040 H 0.06398 0.62366 0.23709 0.0
H1041 H 0.08298 0.60253 0.31353 0.0
H1042 H 0.08125 0.54238 0.20653 0.0
H1043 H 0.06069 0.5633 0.1325 0.0
C1044 C 0.09099 0.52138 0.3718 0.0
C1045 C 0.10513 0.53076 0.41432 0.0
C1046 C 0.08414 0.5342 0.3242 0.0
C1047 C 0.09169 0.55664 0.3169 0.0
C1048 C 0.10626 0.56587 0.35905 0.0
C1049 C 0.11272 0.55314 0.4075 0.0
C1050 C 0.06815 0.60604 0.22966 0.0
C1051 C 0.06077 0.59501 0.17931 0.0
C1052 C 0.07909 0.59385 0.27349 0.0
C1053 C 0.08329 0.57048 0.26715 0.0
C1054 C 0.0776 0.56008 0.2142 0.0
C1055 C 0.0661 0.57211 0.17125 0.0
H1056 H 0.86219 0.54891 0.28833 0.0
H1057 H 0.92407 0.53439 0.38035 0.0
H1058 H 0.88265 0.57647 0.22749 0.0
H1059 H 0.94414 0.56216 0.32116 0.0
H1060 H 0.9511 0.63696 0.21046 0.0
H1061 H 0.92318 0.61692 0.27106 0.0
H1062 H 0.93754 0.55496 0.1795 0.0
H1063 H 0.96565 0.57466 0.12042 0.0
C1064 C 0.87992 0.55223 0.29677 0.0
C1065 C 0.89146 0.54021 0.34017 0.0
C1066 C 0.89151 0.56793 0.26227 0.0
C1067 C 0.91475 0.5715 0.27067 0.0
C1068 C 0.9261 0.55989 0.31488 0.0
C1069 C 0.9146 0.5442 0.34895 0.0
C1070 C 0.94773 0.61921 0.20244 0.0
C1071 C 0.95985 0.60744 0.15963 0.0
C1072 C 0.93182 0.60786 0.23678 0.0
C1073 C 0.92814 0.58461 0.22887 0.0
C1074 C 0.9399 0.573 0.18535 0.0
C1075 C 0.95579 0.58428 0.15139 0.0
H1076 H 0.92269 0.96919 0.63571 0.0
H1077 H 0.85994 0.95164 0.72 0.0
H1078 H 0.94266 0.94105 0.69397 0.0
H1079 H 0.88023 0.92345 0.77955 0.0
H1080 H 0.94762 0.863 0.79462 0.0
H1081 H 0.91963 0.88438 0.73719 0.0
H1082 H 0.93668 0.94504 0.83138 0.0
H1083 H 0.96473 0.92402 0.88743 0.0
C1084 C 0.91308 0.95875 0.66543 0.0
C1085 C 0.88972 0.96193 0.67219 0.0
C1086 C 0.9245 0.94282 0.69887 0.0
C1087 C 0.91281 0.93007 0.74033 0.0
C1088 C 0.88937 0.93292 0.7469 0.0
C1089 C 0.87788 0.94897 0.71319 0.0
C1090 C 0.94481 0.88075 0.80394 0.0
C1091 C 0.9577 0.89179 0.84652 0.0
C1092 C 0.92884 0.89286 0.77145 0.0
C1093 C 0.92595 0.91613 0.7809 0.0
C1094 C 0.93843 0.92699 0.82434 0.0
C1095 C 0.95432 0.91496 0.85653 0.0
H1096 H 0.53362 0.92225 0.12066 0.0
H1097 H 0.54838 0.86044 0.21273 0.0
H1098 H 0.56194 0.94224 0.17825 0.0
H1099 H 0.57653 0.88083 0.27199 0.0
H1100 H 0.63766 0.949 0.28461 0.0
H1101 H 0.61699 0.92091 0.22584 0.0
H1102 H 0.55581 0.93613 0.31984 0.0
H1103 H 0.57608 0.96441 0.37692 0.0
C1104 C 0.54356 0.91278 0.15177 0.0
C1105 C 0.53951 0.88967 0.16095 0.0
C1106 C 0.55959 0.92423 0.18489 0.0
C1107 C 0.57149 0.91287 0.22857 0.0
C1108 C 0.56778 0.88969 0.23753 0.0
C1109 C 0.55174 0.87814 0.20398 0.0
C1110 C 0.61995 0.94578 0.29355 0.0
C1111 C 0.60856 0.95821 0.33646 0.0
C1112 C 0.60825 0.92977 0.26029 0.0
C1113 C 0.58504 0.92627 0.26943 0.0
C1114 C 0.57383 0.93832 0.31308 0.0
C1115 C 0.58544 0.95433 0.3459 0.0
H1116 H 0.57492 0.53041 0.62076 0.0
H1117 H 0.63641 0.54849 0.71024 0.0
H1118 H 0.55399 0.5584 0.6774 0.0
H1119 H 0.61518 0.57649 0.76801 0.0
H1120 H 0.54787 0.63638 0.78229 0.0
H1121 H 0.57583 0.61532 0.72391 0.0
H1122 H 0.55876 0.5541 0.81568 0.0
H1123 H 0.53082 0.57483 0.87284 0.0
C1124 C 0.58407 0.54097 0.65117 0.0
C1125 C 0.60736 0.53793 0.65995 0.0
C1126 C 0.5721 0.55681 0.6837 0.0
C1127 C 0.58316 0.56965 0.72616 0.0
C1128 C 0.60652 0.56699 0.73456 0.0
C1129 C 0.61855 0.55104 0.70185 0.0
C1130 C 0.55064 0.61856 0.79078 0.0
C1131 C 0.53783 0.60729 0.83315 0.0
C1132 C 0.56656 0.60662 0.7577 0.0
C1133 C 0.56946 0.58329 0.76624 0.0
C1134 C 0.55695 0.57218 0.80921 0.0
C1135 C 0.54115 0.58405 0.84206 0.0
H1136 H 0.07552 0.46389 0.62296 0.0
H1137 H 0.13838 0.45065 0.71181 0.0
H1138 H 0.05655 0.43553 0.68258 0.0
H1139 H 0.11899 0.42253 0.77336 0.0
H1140 H 0.05031 0.36112 0.79055 0.0
H1141 H 0.07817 0.38132 0.73013 0.0
H1142 H 0.06461 0.44281 0.8245 0.0
H1143 H 0.03642 0.42304 0.88295 0.0
C1144 C 0.08544 0.45425 0.65379 0.0
C1145 C 0.10854 0.45873 0.66147 0.0
C1146 C 0.07457 0.43821 0.68806 0.0
C1147 C 0.08651 0.42677 0.73155 0.0
C1148 C 0.10969 0.43091 0.73905 0.0
C1149 C 0.12067 0.44693 0.70421 0.0
C1150 C 0.05388 0.37877 0.79929 0.0
C1151 C 0.0419 0.39041 0.8426 0.0
C1152 C 0.06977 0.39022 0.76508 0.0
C1153 C 0.07365 0.41339 0.77383 0.0
C1154 C 0.06216 0.42481 0.8181 0.0
C1155 C 0.04621 0.41348 0.85173 0.0
H1156 H 0.02934 0.07464 0.12913 0.0
H1157 H 0.04839 0.13633 0.21638 0.0
H1158 H 0.05724 0.05364 0.18595 0.0
H1159 H 0.07636 0.11505 0.27418 0.0
H1160 H 0.13589 0.0481 0.29036 0.0
H1161 H 0.11469 0.07584 0.23159 0.0
H1162 H 0.05351 0.05842 0.32309 0.0
H1163 H 0.07441 0.03076 0.38079 0.0
C1164 C 0.04008 0.0838 0.15909 0.0
C1165 C 0.03734 0.10716 0.16721 0.0
C1166 C 0.05587 0.07179 0.19172 0.0
C1167 C 0.06897 0.0829 0.23357 0.0
C1168 C 0.06663 0.10634 0.24124 0.0
C1169 C 0.0507 0.1184 0.2085 0.0
C1170 C 0.11804 0.05074 0.29869 0.0
C1171 C 0.10684 0.03793 0.34115 0.0
C1172 C 0.10602 0.06653 0.26538 0.0
C1173 C 0.08266 0.06926 0.2737 0.0
C1174 C 0.0716 0.05673 0.31673 0.0
C1175 C 0.08356 0.04109 0.34989 0.0
H1176 H 0.42301 0.03372 0.61976 0.0
H1177 H 0.36149 0.0484 0.71311 0.0
H1178 H 0.44318 0.06198 0.67715 0.0
H1179 H 0.38207 0.07647 0.77219 0.0
H1180 H 0.45063 0.13741 0.78384 0.0
H1181 H 0.42245 0.1169 0.72501 0.0
H1182 H 0.43704 0.0557 0.81965 0.0
H1183 H 0.46543 0.07581 0.8768 0.0
C1184 C 0.41364 0.04364 0.65109 0.0
C1185 C 0.39056 0.03957 0.66069 0.0
C1186 C 0.42519 0.05963 0.6841 0.0
C1187 C 0.41397 0.07147 0.72812 0.0
C1188 C 0.39082 0.06776 0.73748 0.0
C1189 C 0.37916 0.05177 0.70402 0.0
C1190 C 0.44726 0.11974 0.79291 0.0
C1191 C 0.45953 0.1083 0.83604 0.0
C1192 C 0.4312 0.10812 0.75959 0.0
C1193 C 0.42749 0.08495 0.7689 0.0
C1194 C 0.43939 0.07369 0.81276 0.0
C1195 C 0.45545 0.08521 0.84562 0.0
H1196 H 0.45092 0.36049 0.21188 0.0
H1197 H 0.46712 0.42294 0.12439 0.0
H1198 H 0.42242 0.38067 0.27068 0.0
H1199 H 0.43859 0.44276 0.18168 0.0
H1200 H 0.42225 0.4647 0.37732 0.0
H1201 H 0.44317 0.4366 0.32121 0.0
H1202 H 0.38264 0.42036 0.22557 0.0
H1203 H 0.36132 0.44833 0.28324 0.0
C1204 C 0.44786 0.37832 0.20413 0.0
C1205 C 0.46056 0.3901 0.16249 0.0
C1206 C 0.43162 0.38975 0.2374 0.0
C1207 C 0.42826 0.41306 0.22962 0.0
C1208 C 0.44071 0.42468 0.18744 0.0
C1209 C 0.45687 0.41333 0.15454 0.0
C1210 C 0.41318 0.45444 0.34611 0.0
C1211 C 0.39006 0.45802 0.33586 0.0
C1212 C 0.42516 0.43853 0.31388 0.0
C1213 C 0.41432 0.42625 0.27005 0.0
C1214 C 0.3911 0.4294 0.26017 0.0
C1215 C 0.37903 0.44535 0.2928 0.0
loop_
_geom_bond_atom_site_label_1
_geom_bond_atom_site_label_2
_geom_bond_distance
_geom_bond_site_symmetry_2
_ccdc_geom_bond_type
Mn0 O5 2.095 . S
Mn0 O15 2.162 . S
Mn0 O16 2.297 . S
Mn0 O24 2.385 1_455 S
Mn0 O25 2.209 1_455 S
Mn0 O26 2.094 . S
Mn1 O6 2.121 1_655 S
Mn1 N8 2.257 . S
Mn1 N17 2.282 . S
Mn1 O25 2.215 . S
Mn1 O27 2.117 . S
C2 O24 1.234 . S
C2 O25 1.283 . S
C3 O15 1.281 . S
C3 O16 1.236 . S
C4 O26 1.240 . S
C4 O27 1.264 1_455 S
O5 Mn0 2.095 . S
O5 C14 1.250 . S
O6 Mn1 2.121 1_455 S
O6 C14 1.258 . S
C7 N8 1.326 1_556 S
C7 C11 1.460 . S
C7 H13 0.929 . S
N8 Mn1 2.257 . S
N8 C7 1.326 1_554 S
N8 C12 1.362 . S
C9 C10 1.258 1_554 S
C9 C12 1.431 . S
C9 C29 1.449 . S
C10 C9 1.258 1_556 S
C10 C11 1.477 . S
C10 H30 0.931 . S
C11 C7 1.460 . S
C11 C10 1.477 . S
C11 H31 0.930 . S
C12 N8 1.362 . S
C12 C9 1.431 . S
C12 C22 1.476 . S
H13 C7 0.929 . S
C14 O5 1.250 . S
C14 O6 1.258 . S
O15 Mn0 2.162 . S
O15 C3 1.281 . S
O16 Mn0 2.297 . S
O16 C3 1.236 . S
N17 Mn1 2.282 . S
N17 C18 1.328 . S
N17 C22 1.318 . S
C18 N17 1.328 . S
C18 C19 1.457 . S
C18 H23 0.929 . S
C19 C18 1.457 . S
C19 C20 1.291 . S
C19 H32 0.931 . S
C20 C19 1.291 . S
C20 C21 1.373 . S
C20 H33 0.929 . S
C21 C20 1.373 . S
C21 C22 1.396 . S
C21 C28 1.403 . S
C22 C12 1.476 . S
C22 N17 1.318 . S
C22 C21 1.396 . S
H23 C18 0.929 . S
O24 Mn0 2.385 1_655 S
O24 C2 1.234 . S
O25 Mn0 2.209 1_655 S
O25 Mn1 2.215 . S
O25 C2 1.283 . S
O26 Mn0 2.094 . S
O26 C4 1.240 . S
O27 Mn1 2.117 . S
O27 C4 1.264 1_655 S
C28 C21 1.403 . S
C28 C29 1.399 . S
C28 H34 0.929 . S
C29 C9 1.449 . S
C29 C28 1.399 . S
C29 H35 0.930 . S
H30 C10 0.931 . S
H31 C11 0.930 . S
H32 C19 0.931 . S
H33 C20 0.929 . S
H34 C28 0.929 . S
H35 C29 0.930 . S
Mn36 O41 2.095 . S
Mn36 O51 2.162 . S
Mn36 O52 2.297 . S
Mn36 O60 2.385 1_545 S
Mn36 O61 2.209 1_545 S
Mn36 O62 2.094 . S
Mn37 O42 2.121 1_565 S
Mn37 N44 2.257 . S
Mn37 N53 2.282 . S
Mn37 O61 2.215 . S
Mn37 O63 2.117 . S
C38 O60 1.234 . S
C38 O61 1.283 . S
C39 O51 1.281 . S
C39 O52 1.236 . S
C40 O62 1.240 . S
C40 O63 1.264 1_545 S
O41 Mn36 2.095 . S
O41 C50 1.250 . S
O42 Mn37 2.121 1_545 S
O42 C50 1.258 . S
C43 N44 1.326 . S
C43 C47 1.460 . S
C43 H49 0.929 . S
N44 Mn37 2.257 . S
N44 C43 1.326 . S
N44 C48 1.362 . S
C45 C46 1.258 . S
C45 C48 1.431 . S
C45 C65 1.449 . S
C46 C45 1.258 . S
C46 C47 1.477 . S
C46 H66 0.931 . S
C47 C43 1.460 . S
C47 C46 1.477 . S
C47 H67 0.930 . S
C48 N44 1.362 . S
C48 C45 1.431 . S
C48 C58 1.476 . S
H49 C43 0.929 . S
C50 O41 1.250 . S
C50 O42 1.258 . S
O51 Mn36 2.162 . S
O51 C39 1.281 . S
O52 Mn36 2.297 . S
O52 C39 1.236 . S
N53 Mn37 2.282 . S
N53 C54 1.328 . S
N53 C58 1.318 . S
C54 N53 1.328 . S
C54 C55 1.457 . S
C54 H59 0.929 . S
C55 C54 1.457 . S
C55 C56 1.291 . S
C55 H68 0.931 . S
C56 C55 1.291 . S
C56 C57 1.373 . S
C56 H69 0.929 . S
C57 C56 1.373 . S
C57 C58 1.396 . S
C57 C64 1.403 . S
C58 C48 1.476 . S
C58 N53 1.318 . S
C58 C57 1.396 . S
H59 C54 0.929 . S
O60 Mn36 2.385 1_565 S
O60 C38 1.234 . S
O61 Mn36 2.209 1_565 S
O61 Mn37 2.215 . S
O61 C38 1.283 . S
O62 Mn36 2.094 . S
O62 C40 1.240 . S
O63 Mn37 2.117 . S
O63 C40 1.264 1_565 S
C64 C57 1.403 . S
C64 C65 1.399 . S
C64 H70 0.929 . S
C65 C45 1.449 . S
C65 C64 1.399 . S
C65 H71 0.930 . S
H66 C46 0.931 . S
H67 C47 0.930 . S
H68 C55 0.931 . S
H69 C56 0.929 . S
H70 C64 0.929 . S
H71 C65 0.930 . S
Mn72 O77 2.095 . S
Mn72 O87 2.162 . S
Mn72 O88 2.297 . S
Mn72 O96 2.385 . S
Mn72 O97 2.209 . S
Mn72 O98 2.094 . S
Mn73 O78 2.121 . S
Mn73 N80 2.257 . S
Mn73 N89 2.282 . S
Mn73 O97 2.215 . S
Mn73 O99 2.117 . S
C74 O96 1.234 . S
C74 O97 1.283 . S
C75 O87 1.281 . S
C75 O88 1.236 . S
C76 O98 1.240 . S
C76 O99 1.264 . S
O77 Mn72 2.095 . S
O77 C86 1.250 . S
O78 Mn73 2.121 . S
O78 C86 1.258 . S
C79 N80 1.326 1_556 S
C79 C83 1.460 . S
C79 H85 0.929 . S
N80 Mn73 2.257 . S
N80 C79 1.326 1_554 S
N80 C84 1.362 . S
C81 C82 1.258 1_554 S
C81 C84 1.431 . S
C81 C101 1.449 . S
C82 C81 1.258 1_556 S
C82 C83 1.477 . S
C82 H102 0.931 . S
C83 C79 1.460 . S
C83 C82 1.477 . S
C83 H103 0.930 . S
C84 N80 1.362 . S
C84 C81 1.431 . S
C84 C94 1.476 . S
H85 C79 0.929 . S
C86 O77 1.250 . S
C86 O78 1.258 . S
O87 Mn72 2.162 . S
O87 C75 1.281 . S
O88 Mn72 2.297 . S
O88 C75 1.236 . S
N89 Mn73 2.282 . S
N89 C90 1.328 . S
N89 C94 1.318 . S
C90 N89 1.328 . S
C90 C91 1.457 . S
C90 H95 0.929 . S
C91 C90 1.457 . S
C91 C92 1.291 . S
C91 H104 0.931 . S
C92 C91 1.291 . S
C92 C93 1.373 . S
C92 H105 0.929 . S
C93 C92 1.373 . S
C93 C94 1.396 . S
C93 C100 1.403 . S
C94 C84 1.476 . S
C94 N89 1.318 . S
C94 C93 1.396 . S
H95 C90 0.929 . S
O96 Mn72 2.385 . S
O96 C74 1.234 . S
O97 Mn72 2.209 . S
O97 Mn73 2.215 . S
O97 C74 1.283 . S
O98 Mn72 2.094 . S
O98 C76 1.240 . S
O99 Mn73 2.117 . S
O99 C76 1.264 . S
C100 C93 1.403 . S
C100 C101 1.399 . S
C100 H106 0.929 . S
C101 C81 1.449 . S
C101 C100 1.399 . S
C101 H107 0.930 . S
H102 C82 0.931 . S
H103 C83 0.930 . S
H104 C91 0.931 . S
H105 C92 0.929 . S
H106 C100 0.929 . S
H107 C101 0.930 . S
Mn108 O113 2.095 . S
Mn108 O123 2.162 . S
Mn108 O124 2.297 . S
Mn108 O132 2.385 . S
Mn108 O133 2.209 . S
Mn108 O134 2.094 . S
Mn109 O114 2.121 . S
Mn109 N116 2.257 . S
Mn109 N125 2.282 . S
Mn109 O133 2.215 . S
Mn109 O135 2.117 . S
C110 O132 1.234 . S
C110 O133 1.283 . S
C111 O123 1.281 . S
C111 O124 1.236 . S
C112 O134 1.240 . S
C112 O135 1.264 . S
O113 Mn108 2.095 . S
O113 C122 1.250 . S
O114 Mn109 2.121 . S
O114 C122 1.258 . S
C115 N116 1.326 . S
C115 C119 1.460 . S
C115 H121 0.929 . S
N116 Mn109 2.257 . S
N116 C115 1.326 . S
N116 C120 1.362 . S
C117 C118 1.258 . S
C117 C120 1.431 . S
C117 C137 1.449 . S
C118 C117 1.258 . S
C118 C119 1.477 . S
C118 H138 0.931 . S
C119 C115 1.460 . S
C119 C118 1.477 . S
C119 H139 0.930 . S
C120 N116 1.362 . S
C120 C117 1.431 . S
C120 C130 1.476 . S
H121 C115 0.929 . S
C122 O113 1.250 . S
C122 O114 1.258 . S
O123 Mn108 2.162 . S
O123 C111 1.281 . S
O124 Mn108 2.297 . S
O124 C111 1.236 . S
N125 Mn109 2.282 . S
N125 C126 1.328 . S
N125 C130 1.318 . S
C126 N125 1.328 . S
C126 C127 1.457 . S
C126 H131 0.929 . S
C127 C126 1.457 . S
C127 C128 1.291 . S
C127 H140 0.931 . S
C128 C127 1.291 . S
C128 C129 1.373 . S
C128 H141 0.929 . S
C129 C128 1.373 . S
C129 C130 1.396 . S
C129 C136 1.403 . S
C130 C120 1.476 . S
C130 N125 1.318 . S
C130 C129 1.396 . S
H131 C126 0.929 . S
O132 Mn108 2.385 . S
O132 C110 1.234 . S
O133 Mn108 2.209 . S
O133 Mn109 2.215 . S
O133 C110 1.283 . S
O134 Mn108 2.094 . S
O134 C112 1.240 . S
O135 Mn109 2.117 . S
O135 C112 1.264 . S
C136 C129 1.403 . S
C136 C137 1.399 . S
C136 H142 0.929 . S
C137 C117 1.449 . S
C137 C136 1.399 . S
C137 H143 0.930 . S
H138 C118 0.931 . S
H139 C119 0.930 . S
H140 C127 0.931 . S
H141 C128 0.929 . S
H142 C136 0.929 . S
H143 C137 0.930 . S
Mn144 O149 2.095 . S
Mn144 O159 2.162 . S
Mn144 O160 2.297 . S
Mn144 O168 2.385 1_455 S
Mn144 O169 2.209 1_455 S
Mn144 O170 2.094 . S
Mn145 O150 2.121 1_655 S
Mn145 N152 2.257 . S
Mn145 N161 2.282 . S
Mn145 O169 2.215 . S
Mn145 O171 2.117 . S
C146 O168 1.234 . S
C146 O169 1.283 . S
C147 O159 1.281 . S
C147 O160 1.236 . S
C148 O170 1.240 . S
C148 O171 1.264 1_455 S
O149 Mn144 2.095 . S
O149 C158 1.250 . S
O150 Mn145 2.121 1_455 S
O150 C158 1.258 . S
C151 N152 1.326 1_554 S
C151 C155 1.460 . S
C151 H157 0.929 . S
N152 Mn145 2.257 . S
N152 C151 1.326 1_556 S
N152 C156 1.362 . S
C153 C154 1.258 1_556 S
C153 C156 1.431 . S
C153 C173 1.449 . S
C154 C153 1.258 1_554 S
C154 C155 1.477 . S
C154 H174 0.931 . S
C155 C151 1.460 . S
C155 C154 1.477 . S
C155 H175 0.930 . S
C156 N152 1.362 . S
C156 C153 1.431 . S
C156 C166 1.476 . S
H157 C151 0.929 . S
C158 O149 1.250 . S
C158 O150 1.258 . S
O159 Mn144 2.162 . S
O159 C147 1.281 . S
O160 Mn144 2.297 . S
O160 C147 1.236 . S
N161 Mn145 2.282 . S
N161 C162 1.328 . S
N161 C166 1.318 . S
C162 N161 1.328 . S
C162 C163 1.457 . S
C162 H167 0.929 . S
C163 C162 1.457 . S
C163 C164 1.291 . S
C163 H176 0.931 . S
C164 C163 1.291 . S
C164 C165 1.373 . S
C164 H177 0.929 . S
C165 C164 1.373 . S
C165 C166 1.396 . S
C165 C172 1.403 . S
C166 C156 1.476 . S
C166 N161 1.318 . S
C166 C165 1.396 . S
H167 C162 0.929 . S
O168 Mn144 2.385 1_655 S
O168 C146 1.234 . S
O169 Mn144 2.209 1_655 S
O169 Mn145 2.215 . S
O169 C146 1.283 . S
O170 Mn144 2.094 . S
O170 C148 1.240 . S
O171 Mn145 2.117 . S
O171 C148 1.264 1_655 S
C172 C165 1.403 . S
C172 C173 1.399 . S
C172 H178 0.929 . S
C173 C153 1.449 . S
C173 C172 1.399 . S
C173 H179 0.930 . S
H174 C154 0.931 . S
H175 C155 0.930 . S
H176 C163 0.931 . S
H177 C164 0.929 . S
H178 C172 0.929 . S
H179 C173 0.930 . S
Mn180 O185 2.095 . S
Mn180 O195 2.162 . S
Mn180 O196 2.297 . S
Mn180 O204 2.385 1_545 S
Mn180 O205 2.209 1_545 S
Mn180 O206 2.094 . S
Mn181 O186 2.121 1_565 S
Mn181 N188 2.257 . S
Mn181 N197 2.282 . S
Mn181 O205 2.215 . S
Mn181 O207 2.117 . S
C182 O204 1.234 . S
C182 O205 1.283 . S
C183 O195 1.281 . S
C183 O196 1.236 . S
C184 O206 1.240 . S
C184 O207 1.264 1_545 S
O185 Mn180 2.095 . S
O185 C194 1.250 . S
O186 Mn181 2.121 1_545 S
O186 C194 1.258 . S
C187 N188 1.326 . S
C187 C191 1.460 . S
C187 H193 0.929 . S
N188 Mn181 2.257 . S
N188 C187 1.326 . S
N188 C192 1.362 . S
C189 C190 1.258 . S
C189 C192 1.431 . S
C189 C209 1.449 . S
C190 C189 1.258 . S
C190 C191 1.477 . S
C190 H210 0.931 . S
C191 C187 1.460 . S
C191 C190 1.477 . S
C191 H211 0.930 . S
C192 N188 1.362 . S
C192 C189 1.431 . S
C192 C202 1.476 . S
H193 C187 0.929 . S
C194 O185 1.250 . S
C194 O186 1.258 . S
O195 Mn180 2.162 . S
O195 C183 1.281 . S
O196 Mn180 2.297 . S
O196 C183 1.236 . S
N197 Mn181 2.282 . S
N197 C198 1.328 . S
N197 C202 1.318 . S
C198 N197 1.328 . S
C198 C199 1.457 . S
C198 H203 0.929 . S
C199 C198 1.457 . S
C199 C200 1.291 . S
C199 H212 0.931 . S
C200 C199 1.291 . S
C200 C201 1.373 . S
C200 H213 0.929 . S
C201 C200 1.373 . S
C201 C202 1.396 . S
C201 C208 1.403 . S
C202 C192 1.476 . S
C202 N197 1.318 . S
C202 C201 1.396 . S
H203 C198 0.929 . S
O204 Mn180 2.385 1_565 S
O204 C182 1.234 . S
O205 Mn180 2.209 1_565 S
O205 Mn181 2.215 . S
O205 C182 1.283 . S
O206 Mn180 2.094 . S
O206 C184 1.240 . S
O207 Mn181 2.117 . S
O207 C184 1.264 1_565 S
C208 C201 1.403 . S
C208 C209 1.399 . S
C208 H214 0.929 . S
C209 C189 1.449 . S
C209 C208 1.399 . S
C209 H215 0.930 . S
H210 C190 0.931 . S
H211 C191 0.930 . S
H212 C199 0.931 . S
H213 C200 0.929 . S
H214 C208 0.929 . S
H215 C209 0.930 . S
Mn216 O221 2.095 . S
Mn216 O231 2.162 . S
Mn216 O232 2.297 . S
Mn216 O240 2.385 . S
Mn216 O241 2.209 . S
Mn216 O242 2.094 . S
Mn217 O222 2.121 . S
Mn217 N224 2.257 . S
Mn217 N233 2.282 . S
Mn217 O241 2.215 . S
Mn217 O243 2.117 . S
C218 O240 1.234 . S
C218 O241 1.283 . S
C219 O231 1.281 . S
C219 O232 1.236 . S
C220 O242 1.240 . S
C220 O243 1.264 . S
O221 Mn216 2.095 . S
O221 C230 1.250 . S
O222 Mn217 2.121 . S
O222 C230 1.258 . S
C223 N224 1.326 1_554 S
C223 C227 1.460 . S
C223 H229 0.929 . S
N224 Mn217 2.257 . S
N224 C223 1.326 1_556 S
N224 C228 1.362 . S
C225 C226 1.258 1_556 S
C225 C228 1.431 . S
C225 C245 1.449 . S
C226 C225 1.258 1_554 S
C226 C227 1.477 . S
C226 H246 0.931 . S
C227 C223 1.460 . S
C227 C226 1.477 . S
C227 H247 0.930 . S
C228 N224 1.362 . S
C228 C225 1.431 . S
C228 C238 1.476 . S
H229 C223 0.929 . S
C230 O221 1.250 . S
C230 O222 1.258 . S
O231 Mn216 2.162 . S
O231 C219 1.281 . S
O232 Mn216 2.297 . S
O232 C219 1.236 . S
N233 Mn217 2.282 . S
N233 C234 1.328 . S
N233 C238 1.318 . S
C234 N233 1.328 . S
C234 C235 1.457 . S
C234 H239 0.929 . S
C235 C234 1.457 . S
C235 C236 1.291 . S
C235 H248 0.931 . S
C236 C235 1.291 . S
C236 C237 1.373 . S
C236 H249 0.929 . S
C237 C236 1.373 . S
C237 C238 1.396 . S
C237 C244 1.403 . S
C238 C228 1.476 . S
C238 N233 1.318 . S
C238 C237 1.396 . S
H239 C234 0.929 . S
O240 Mn216 2.385 . S
O240 C218 1.234 . S
O241 Mn216 2.209 . S
O241 Mn217 2.215 . S
O241 C218 1.283 . S
O242 Mn216 2.094 . S
O242 C220 1.240 . S
O243 Mn217 2.117 . S
O243 C220 1.264 . S
C244 C237 1.403 . S
C244 C245 1.399 . S
C244 H250 0.929 . S
C245 C225 1.449 . S
C245 C244 1.399 . S
C245 H251 0.930 . S
H246 C226 0.931 . S
H247 C227 0.930 . S
H248 C235 0.931 . S
H249 C236 0.929 . S
H250 C244 0.929 . S
H251 C245 0.930 . S
Mn252 O257 2.095 . S
Mn252 O267 2.162 . S
Mn252 O268 2.297 . S
Mn252 O276 2.385 . S
Mn252 O277 2.209 . S
Mn252 O278 2.094 . S
Mn253 O258 2.121 . S
Mn253 N260 2.257 . S
Mn253 N269 2.282 . S
Mn253 O277 2.215 . S
Mn253 O279 2.117 . S
C254 O276 1.234 . S
C254 O277 1.283 . S
C255 O267 1.281 . S
C255 O268 1.236 . S
C256 O278 1.240 . S
C256 O279 1.264 . S
O257 Mn252 2.095 . S
O257 C266 1.250 . S
O258 Mn253 2.121 . S
O258 C266 1.258 . S
C259 N260 1.326 . S
C259 C263 1.460 . S
C259 H265 0.929 . S
N260 Mn253 2.257 . S
N260 C259 1.326 . S
N260 C264 1.362 . S
C261 C262 1.258 . S
C261 C264 1.431 . S
C261 C281 1.449 . S
C262 C261 1.258 . S
C262 C263 1.477 . S
C262 H282 0.931 . S
C263 C259 1.460 . S
C263 C262 1.477 . S
C263 H283 0.930 . S
C264 N260 1.362 . S
C264 C261 1.431 . S
C264 C274 1.476 . S
H265 C259 0.929 . S
C266 O257 1.250 . S
C266 O258 1.258 . S
O267 Mn252 2.162 . S
O267 C255 1.281 . S
O268 Mn252 2.297 . S
O268 C255 1.236 . S
N269 Mn253 2.282 . S
N269 C270 1.328 . S
N269 C274 1.318 . S
C270 N269 1.328 . S
C270 C271 1.457 . S
C270 H275 0.929 . S
C271 C270 1.457 . S
C271 C272 1.291 . S
C271 H284 0.931 . S
C272 C271 1.291 . S
C272 C273 1.373 . S
C272 H285 0.929 . S
C273 C272 1.373 . S
C273 C274 1.396 . S
C273 C280 1.403 . S
C274 C264 1.476 . S
C274 N269 1.318 . S
C274 C273 1.396 . S
H275 C270 0.929 . S
O276 Mn252 2.385 . S
O276 C254 1.234 . S
O277 Mn252 2.209 . S
O277 Mn253 2.215 . S
O277 C254 1.283 . S
O278 Mn252 2.094 . S
O278 C256 1.240 . S
O279 Mn253 2.117 . S
O279 C256 1.264 . S
C280 C273 1.403 . S
C280 C281 1.399 . S
C280 H286 0.929 . S
C281 C261 1.449 . S
C281 C280 1.399 . S
C281 H287 0.930 . S
H282 C262 0.931 . S
H283 C263 0.930 . S
H284 C271 0.931 . S
H285 C272 0.929 . S
H286 C280 0.929 . S
H287 C281 0.930 . S
Mn288 O293 2.095 . S
Mn288 O303 2.162 . S
Mn288 O304 2.297 . S
Mn288 O312 2.385 1_655 S
Mn288 O313 2.209 1_655 S
Mn288 O314 2.094 . S
Mn289 O294 2.121 1_455 S
Mn289 N296 2.257 . S
Mn289 N305 2.282 . S
Mn289 O313 2.215 . S
Mn289 O315 2.117 . S
C290 O312 1.234 . S
C290 O313 1.283 . S
C291 O303 1.281 . S
C291 O304 1.236 . S
C292 O314 1.240 . S
C292 O315 1.264 1_655 S
O293 Mn288 2.095 . S
O293 C302 1.250 . S
O294 Mn289 2.121 1_655 S
O294 C302 1.258 . S
C295 N296 1.326 1_554 S
C295 C299 1.460 . S
C295 H301 0.929 . S
N296 Mn289 2.257 . S
N296 C295 1.326 1_556 S
N296 C300 1.362 . S
C297 C298 1.258 1_556 S
C297 C300 1.431 . S
C297 C317 1.449 . S
C298 C297 1.258 1_554 S
C298 C299 1.477 . S
C298 H318 0.931 . S
C299 C295 1.460 . S
C299 C298 1.477 . S
C299 H319 0.930 . S
C300 N296 1.362 . S
C300 C297 1.431 . S
C300 C310 1.476 . S
H301 C295 0.929 . S
C302 O293 1.250 . S
C302 O294 1.258 . S
O303 Mn288 2.162 . S
O303 C291 1.281 . S
O304 Mn288 2.297 . S
O304 C291 1.236 . S
N305 Mn289 2.282 . S
N305 C306 1.328 . S
N305 C310 1.318 . S
C306 N305 1.328 . S
C306 C307 1.457 . S
C306 H311 0.929 . S
C307 C306 1.457 . S
C307 C308 1.291 . S
C307 H320 0.931 . S
C308 C307 1.291 . S
C308 C309 1.373 . S
C308 H321 0.929 . S
C309 C308 1.373 . S
C309 C310 1.396 . S
C309 C316 1.403 . S
C310 C300 1.476 . S
C310 N305 1.318 . S
C310 C309 1.396 . S
H311 C306 0.929 . S
O312 Mn288 2.385 1_455 S
O312 C290 1.234 . S
O313 Mn288 2.209 1_455 S
O313 Mn289 2.215 . S
O313 C290 1.283 . S
O314 Mn288 2.094 . S
O314 C292 1.240 . S
O315 Mn289 2.117 . S
O315 C292 1.264 1_455 S
C316 C309 1.403 . S
C316 C317 1.399 . S
C316 H322 0.929 . S
C317 C297 1.449 . S
C317 C316 1.399 . S
C317 H323 0.930 . S
H318 C298 0.931 . S
H319 C299 0.930 . S
H320 C307 0.931 . S
H321 C308 0.929 . S
H322 C316 0.929 . S
H323 C317 0.930 . S
Mn324 O329 2.095 . S
Mn324 O339 2.162 . S
Mn324 O340 2.297 . S
Mn324 O348 2.385 1_565 S
Mn324 O349 2.209 1_565 S
Mn324 O350 2.094 . S
Mn325 O330 2.121 1_545 S
Mn325 N332 2.257 . S
Mn325 N341 2.282 . S
Mn325 O349 2.215 . S
Mn325 O351 2.117 . S
C326 O348 1.234 . S
C326 O349 1.283 . S
C327 O339 1.281 . S
C327 O340 1.236 . S
C328 O350 1.240 . S
C328 O351 1.264 1_565 S
O329 Mn324 2.095 . S
O329 C338 1.250 . S
O330 Mn325 2.121 1_565 S
O330 C338 1.258 . S
C331 N332 1.326 . S
C331 C335 1.460 . S
C331 H337 0.929 . S
N332 Mn325 2.257 . S
N332 C331 1.326 . S
N332 C336 1.362 . S
C333 C334 1.258 . S
C333 C336 1.431 . S
C333 C353 1.449 . S
C334 C333 1.258 . S
C334 C335 1.477 . S
C334 H354 0.931 . S
C335 C331 1.460 . S
C335 C334 1.477 . S
C335 H355 0.930 . S
C336 N332 1.362 . S
C336 C333 1.431 . S
C336 C346 1.476 . S
H337 C331 0.929 . S
C338 O329 1.250 . S
C338 O330 1.258 . S
O339 Mn324 2.162 . S
O339 C327 1.281 . S
O340 Mn324 2.297 . S
O340 C327 1.236 . S
N341 Mn325 2.282 . S
N341 C342 1.328 . S
N341 C346 1.318 . S
C342 N341 1.328 . S
C342 C343 1.457 . S
C342 H347 0.929 . S
C343 C342 1.457 . S
C343 C344 1.291 . S
C343 H356 0.931 . S
C344 C343 1.291 . S
C344 C345 1.373 . S
C344 H357 0.929 . S
C345 C344 1.373 . S
C345 C346 1.396 . S
C345 C352 1.403 . S
C346 C336 1.476 . S
C346 N341 1.318 . S
C346 C345 1.396 . S
H347 C342 0.929 . S
O348 Mn324 2.385 1_545 S
O348 C326 1.234 . S
O349 Mn324 2.209 1_545 S
O349 Mn325 2.215 . S
O349 C326 1.283 . S
O350 Mn324 2.094 . S
O350 C328 1.240 . S
O351 Mn325 2.117 . S
O351 C328 1.264 1_545 S
C352 C345 1.403 . S
C352 C353 1.399 . S
C352 H358 0.929 . S
C353 C333 1.449 . S
C353 C352 1.399 . S
C353 H359 0.930 . S
H354 C334 0.931 . S
H355 C335 0.930 . S
H356 C343 0.931 . S
H357 C344 0.929 . S
H358 C352 0.929 . S
H359 C353 0.930 . S
Mn360 O365 2.095 . S
Mn360 O375 2.162 . S
Mn360 O376 2.297 . S
Mn360 O384 2.385 . S
Mn360 O385 2.209 . S
Mn360 O386 2.094 . S
Mn361 O366 2.121 . S
Mn361 N368 2.257 . S
Mn361 N377 2.282 . S
Mn361 O385 2.215 . S
Mn361 O387 2.117 . S
C362 O384 1.234 . S
C362 O385 1.283 . S
C363 O375 1.281 . S
C363 O376 1.236 . S
C364 O386 1.240 . S
C364 O387 1.264 . S
O365 Mn360 2.095 . S
O365 C374 1.250 . S
O366 Mn361 2.121 . S
O366 C374 1.258 . S
C367 N368 1.326 1_554 S
C367 C371 1.460 . S
C367 H373 0.929 . S
N368 Mn361 2.257 . S
N368 C367 1.326 1_556 S
N368 C372 1.362 . S
C369 C370 1.258 1_556 S
C369 C372 1.431 . S
C369 C389 1.449 . S
C370 C369 1.258 1_554 S
C370 C371 1.477 . S
C370 H390 0.931 . S
C371 C367 1.460 . S
C371 C370 1.477 . S
C371 H391 0.930 . S
C372 N368 1.362 . S
C372 C369 1.431 . S
C372 C382 1.476 . S
H373 C367 0.929 . S
C374 O365 1.250 . S
C374 O366 1.258 . S
O375 Mn360 2.162 . S
O375 C363 1.281 . S
O376 Mn360 2.297 . S
O376 C363 1.236 . S
N377 Mn361 2.282 . S
N377 C378 1.328 . S
N377 C382 1.318 . S
C378 N377 1.328 . S
C378 C379 1.457 . S
C378 H383 0.929 . S
C379 C378 1.457 . S
C379 C380 1.291 . S
C379 H392 0.931 . S
C380 C379 1.291 . S
C380 C381 1.373 . S
C380 H393 0.929 . S
C381 C380 1.373 . S
C381 C382 1.396 . S
C381 C388 1.403 . S
C382 C372 1.476 . S
C382 N377 1.318 . S
C382 C381 1.396 . S
H383 C378 0.929 . S
O384 Mn360 2.385 . S
O384 C362 1.234 . S
O385 Mn360 2.209 . S
O385 Mn361 2.215 . S
O385 C362 1.283 . S
O386 Mn360 2.094 . S
O386 C364 1.240 . S
O387 Mn361 2.117 . S
O387 C364 1.264 . S
C388 C381 1.403 . S
C388 C389 1.399 . S
C388 H394 0.929 . S
C389 C369 1.449 . S
C389 C388 1.399 . S
C389 H395 0.930 . S
H390 C370 0.931 . S
H391 C371 0.930 . S
H392 C379 0.931 . S
H393 C380 0.929 . S
H394 C388 0.929 . S
H395 C389 0.930 . S
Mn396 O401 2.095 . S
Mn396 O411 2.162 . S
Mn396 O412 2.297 . S
Mn396 O420 2.385 . S
Mn396 O421 2.209 . S
Mn396 O422 2.094 . S
Mn397 O402 2.121 . S
Mn397 N404 2.257 . S
Mn397 N413 2.282 . S
Mn397 O421 2.215 . S
Mn397 O423 2.117 . S
C398 O420 1.234 . S
C398 O421 1.283 . S
C399 O411 1.281 . S
C399 O412 1.236 . S
C400 O422 1.240 . S
C400 O423 1.264 . S
O401 Mn396 2.095 . S
O401 C410 1.250 . S
O402 Mn397 2.121 . S
O402 C410 1.258 . S
C403 N404 1.326 . S
C403 C407 1.460 . S
C403 H409 0.929 . S
N404 Mn397 2.257 . S
N404 C403 1.326 . S
N404 C408 1.362 . S
C405 C406 1.258 . S
C405 C408 1.431 . S
C405 C425 1.449 . S
C406 C405 1.258 . S
C406 C407 1.477 . S
C406 H426 0.931 . S
C407 C403 1.460 . S
C407 C406 1.477 . S
C407 H427 0.930 . S
C408 N404 1.362 . S
C408 C405 1.431 . S
C408 C418 1.476 . S
H409 C403 0.929 . S
C410 O401 1.250 . S
C410 O402 1.258 . S
O411 Mn396 2.162 . S
O411 C399 1.281 . S
O412 Mn396 2.297 . S
O412 C399 1.236 . S
N413 Mn397 2.282 . S
N413 C414 1.328 . S
N413 C418 1.318 . S
C414 N413 1.328 . S
C414 C415 1.457 . S
C414 H419 0.929 . S
C415 C414 1.457 . S
C415 C416 1.291 . S
C415 H428 0.931 . S
C416 C415 1.291 . S
C416 C417 1.373 . S
C416 H429 0.929 . S
C417 C416 1.373 . S
C417 C418 1.396 . S
C417 C424 1.403 . S
C418 C408 1.476 . S
C418 N413 1.318 . S
C418 C417 1.396 . S
H419 C414 0.929 . S
O420 Mn396 2.385 . S
O420 C398 1.234 . S
O421 Mn396 2.209 . S
O421 Mn397 2.215 . S
O421 C398 1.283 . S
O422 Mn396 2.094 . S
O422 C400 1.240 . S
O423 Mn397 2.117 . S
O423 C400 1.264 . S
C424 C417 1.403 . S
C424 C425 1.399 . S
C424 H430 0.929 . S
C425 C405 1.449 . S
C425 C424 1.399 . S
C425 H431 0.930 . S
H426 C406 0.931 . S
H427 C407 0.930 . S
H428 C415 0.931 . S
H429 C416 0.929 . S
H430 C424 0.929 . S
H431 C425 0.930 . S
Mn432 O437 2.095 . S
Mn432 O447 2.162 . S
Mn432 O448 2.297 . S
Mn432 O456 2.385 1_655 S
Mn432 O457 2.209 1_655 S
Mn432 O458 2.094 . S
Mn433 O438 2.121 1_455 S
Mn433 N440 2.257 . S
Mn433 N449 2.282 . S
Mn433 O457 2.215 . S
Mn433 O459 2.117 . S
C434 O456 1.234 . S
C434 O457 1.283 . S
C435 O447 1.281 . S
C435 O448 1.236 . S
C436 O458 1.240 . S
C436 O459 1.264 1_655 S
O437 Mn432 2.095 . S
O437 C446 1.250 . S
O438 Mn433 2.121 1_655 S
O438 C446 1.258 . S
C439 N440 1.326 1_556 S
C439 C443 1.460 . S
C439 H445 0.929 . S
N440 Mn433 2.257 . S
N440 C439 1.326 1_554 S
N440 C444 1.362 . S
C441 C442 1.258 1_554 S
C441 C444 1.431 . S
C441 C461 1.449 . S
C442 C441 1.258 1_556 S
C442 C443 1.477 . S
C442 H462 0.931 . S
C443 C439 1.460 . S
C443 C442 1.477 . S
C443 H463 0.930 . S
C444 N440 1.362 . S
C444 C441 1.431 . S
C444 C454 1.476 . S
H445 C439 0.929 . S
C446 O437 1.250 . S
C446 O438 1.258 . S
O447 Mn432 2.162 . S
O447 C435 1.281 . S
O448 Mn432 2.297 . S
O448 C435 1.236 . S
N449 Mn433 2.282 . S
N449 C450 1.328 . S
N449 C454 1.318 . S
C450 N449 1.328 . S
C450 C451 1.457 . S
C450 H455 0.929 . S
C451 C450 1.457 . S
C451 C452 1.291 . S
C451 H464 0.931 . S
C452 C451 1.291 . S
C452 C453 1.373 . S
C452 H465 0.929 . S
C453 C452 1.373 . S
C453 C454 1.396 . S
C453 C460 1.403 . S
C454 C444 1.476 . S
C454 N449 1.318 . S
C454 C453 1.396 . S
H455 C450 0.929 . S
O456 Mn432 2.385 1_455 S
O456 C434 1.234 . S
O457 Mn432 2.209 1_455 S
O457 Mn433 2.215 . S
O457 C434 1.283 . S
O458 Mn432 2.094 . S
O458 C436 1.240 . S
O459 Mn433 2.117 . S
O459 C436 1.264 1_455 S
C460 C453 1.403 . S
C460 C461 1.399 . S
C460 H466 0.929 . S
C461 C441 1.449 . S
C461 C460 1.399 . S
C461 H467 0.930 . S
H462 C442 0.931 . S
H463 C443 0.930 . S
H464 C451 0.931 . S
H465 C452 0.929 . S
H466 C460 0.929 . S
H467 C461 0.930 . S
Mn468 O473 2.095 . S
Mn468 O483 2.162 . S
Mn468 O484 2.297 . S
Mn468 O492 2.385 1_565 S
Mn468 O493 2.209 1_565 S
Mn468 O494 2.094 . S
Mn469 O474 2.121 1_545 S
Mn469 N476 2.257 . S
Mn469 N485 2.282 . S
Mn469 O493 2.215 . S
Mn469 O495 2.117 . S
C470 O492 1.234 . S
C470 O493 1.283 . S
C471 O483 1.281 . S
C471 O484 1.236 . S
C472 O494 1.240 . S
C472 O495 1.264 1_565 S
O473 Mn468 2.095 . S
O473 C482 1.250 . S
O474 Mn469 2.121 1_565 S
O474 C482 1.258 . S
C475 N476 1.326 . S
C475 C479 1.460 . S
C475 H481 0.929 . S
N476 Mn469 2.257 . S
N476 C475 1.326 . S
N476 C480 1.362 . S
C477 C478 1.258 . S
C477 C480 1.431 . S
C477 C497 1.449 . S
C478 C477 1.258 . S
C478 C479 1.477 . S
C478 H498 0.931 . S
C479 C475 1.460 . S
C479 C478 1.477 . S
C479 H499 0.930 . S
C480 N476 1.362 . S
C480 C477 1.431 . S
C480 C490 1.476 . S
H481 C475 0.929 . S
C482 O473 1.250 . S
C482 O474 1.258 . S
O483 Mn468 2.162 . S
O483 C471 1.281 . S
O484 Mn468 2.297 . S
O484 C471 1.236 . S
N485 Mn469 2.282 . S
N485 C486 1.328 . S
N485 C490 1.318 . S
C486 N485 1.328 . S
C486 C487 1.457 . S
C486 H491 0.929 . S
C487 C486 1.457 . S
C487 C488 1.291 . S
C487 H500 0.931 . S
C488 C487 1.291 . S
C488 C489 1.373 . S
C488 H501 0.929 . S
C489 C488 1.373 . S
C489 C490 1.396 . S
C489 C496 1.403 . S
C490 C480 1.476 . S
C490 N485 1.318 . S
C490 C489 1.396 . S
H491 C486 0.929 . S
O492 Mn468 2.385 1_545 S
O492 C470 1.234 . S
O493 Mn468 2.209 1_545 S
O493 Mn469 2.215 . S
O493 C470 1.283 . S
O494 Mn468 2.094 . S
O494 C472 1.240 . S
O495 Mn469 2.117 . S
O495 C472 1.264 1_545 S
C496 C489 1.403 . S
C496 C497 1.399 . S
C496 H502 0.929 . S
C497 C477 1.449 . S
C497 C496 1.399 . S
C497 H503 0.930 . S
H498 C478 0.931 . S
H499 C479 0.930 . S
H500 C487 0.931 . S
H501 C488 0.929 . S
H502 C496 0.929 . S
H503 C497 0.930 . S
Mn504 O509 2.095 . S
Mn504 O519 2.162 . S
Mn504 O520 2.297 . S
Mn504 O528 2.385 . S
Mn504 O529 2.209 . S
Mn504 O530 2.094 . S
Mn505 O510 2.121 . S
Mn505 N512 2.257 . S
Mn505 N521 2.282 . S
Mn505 O529 2.215 . S
Mn505 O531 2.117 . S
C506 O528 1.234 . S
C506 O529 1.283 . S
C507 O519 1.281 . S
C507 O520 1.236 . S
C508 O530 1.240 . S
C508 O531 1.264 . S
O509 Mn504 2.095 . S
O509 C518 1.250 . S
O510 Mn505 2.121 . S
O510 C518 1.258 . S
C511 N512 1.326 1_556 S
C511 C515 1.460 . S
C511 H517 0.929 . S
N512 Mn505 2.257 . S
N512 C511 1.326 1_554 S
N512 C516 1.362 . S
C513 C514 1.258 1_554 S
C513 C516 1.431 . S
C513 C533 1.449 . S
C514 C513 1.258 1_556 S
C514 C515 1.477 . S
C514 H534 0.931 . S
C515 C511 1.460 . S
C515 C514 1.477 . S
C515 H535 0.930 . S
C516 N512 1.362 . S
C516 C513 1.431 . S
C516 C526 1.476 . S
H517 C511 0.929 . S
C518 O509 1.250 . S
C518 O510 1.258 . S
O519 Mn504 2.162 . S
O519 C507 1.281 . S
O520 Mn504 2.297 . S
O520 C507 1.236 . S
N521 Mn505 2.282 . S
N521 C522 1.328 . S
N521 C526 1.318 . S
C522 N521 1.328 . S
C522 C523 1.457 . S
C522 H527 0.929 . S
C523 C522 1.457 . S
C523 C524 1.291 . S
C523 H536 0.931 . S
C524 C523 1.291 . S
C524 C525 1.373 . S
C524 H537 0.929 . S
C525 C524 1.373 . S
C525 C526 1.396 . S
C525 C532 1.403 . S
C526 C516 1.476 . S
C526 N521 1.318 . S
C526 C525 1.396 . S
H527 C522 0.929 . S
O528 Mn504 2.385 . S
O528 C506 1.234 . S
O529 Mn504 2.209 . S
O529 Mn505 2.215 . S
O529 C506 1.283 . S
O530 Mn504 2.094 . S
O530 C508 1.240 . S
O531 Mn505 2.117 . S
O531 C508 1.264 . S
C532 C525 1.403 . S
C532 C533 1.399 . S
C532 H538 0.929 . S
C533 C513 1.449 . S
C533 C532 1.399 . S
C533 H539 0.930 . S
H534 C514 0.931 . S
H535 C515 0.930 . S
H536 C523 0.931 . S
H537 C524 0.929 . S
H538 C532 0.929 . S
H539 C533 0.930 . S
Mn540 O545 2.095 . S
Mn540 O555 2.162 . S
Mn540 O556 2.297 . S
Mn540 O564 2.385 . S
Mn540 O565 2.209 . S
Mn540 O566 2.094 . S
Mn541 O546 2.121 . S
Mn541 N548 2.257 . S
Mn541 N557 2.282 . S
Mn541 O565 2.215 . S
Mn541 O567 2.117 . S
C542 O564 1.234 . S
C542 O565 1.283 . S
C543 O555 1.281 . S
C543 O556 1.236 . S
C544 O566 1.240 . S
C544 O567 1.264 . S
O545 Mn540 2.095 . S
O545 C554 1.250 . S
O546 Mn541 2.121 . S
O546 C554 1.258 . S
C547 N548 1.326 . S
C547 C551 1.460 . S
C547 H553 0.929 . S
N548 Mn541 2.257 . S
N548 C547 1.326 . S
N548 C552 1.362 . S
C549 C550 1.258 . S
C549 C552 1.431 . S
C549 C569 1.449 . S
C550 C549 1.258 . S
C550 C551 1.477 . S
C550 H570 0.931 . S
C551 C547 1.460 . S
C551 C550 1.477 . S
C551 H571 0.930 . S
C552 N548 1.362 . S
C552 C549 1.431 . S
C552 C562 1.476 . S
H553 C547 0.929 . S
C554 O545 1.250 . S
C554 O546 1.258 . S
O555 Mn540 2.162 . S
O555 C543 1.281 . S
O556 Mn540 2.297 . S
O556 C543 1.236 . S
N557 Mn541 2.282 . S
N557 C558 1.328 . S
N557 C562 1.318 . S
C558 N557 1.328 . S
C558 C559 1.457 . S
C558 H563 0.929 . S
C559 C558 1.457 . S
C559 C560 1.291 . S
C559 H572 0.931 . S
C560 C559 1.291 . S
C560 C561 1.373 . S
C560 H573 0.929 . S
C561 C560 1.373 . S
C561 C562 1.396 . S
C561 C568 1.403 . S
C562 C552 1.476 . S
C562 N557 1.318 . S
C562 C561 1.396 . S
H563 C558 0.929 . S
O564 Mn540 2.385 . S
O564 C542 1.234 . S
O565 Mn540 2.209 . S
O565 Mn541 2.215 . S
O565 C542 1.283 . S
O566 Mn540 2.094 . S
O566 C544 1.240 . S
O567 Mn541 2.117 . S
O567 C544 1.264 . S
C568 C561 1.403 . S
C568 C569 1.399 . S
C568 H574 0.929 . S
C569 C549 1.449 . S
C569 C568 1.399 . S
C569 H575 0.930 . S
H570 C550 0.931 . S
H571 C551 0.930 . S
H572 C559 0.931 . S
H573 C560 0.929 . S
H574 C568 0.929 . S
H575 C569 0.930 . S
H576 C584 0.950 . S
H577 C589 0.950 . S
H578 C586 0.950 1_556 S
H579 C588 0.950 . S
H580 C590 0.950 . S
H581 C592 0.950 1_554 S
H582 C594 0.950 . S
H583 C595 0.950 . S
C584 H576 0.950 . S
C584 C585 1.386 . S
C584 C586 1.391 . S
C585 C584 1.386 . S
C585 C589 1.393 1_455 S
C586 H578 0.950 1_554 S
C586 C584 1.391 . S
C586 C587 1.400 . S
C587 C586 1.400 . S
C587 C588 1.398 1_455 S
C587 C593 1.491 1_554 S
C588 H579 0.950 . S
C588 C587 1.398 1_655 S
C588 C589 1.391 . S
C589 H577 0.950 . S
C589 C585 1.393 1_655 S
C589 C588 1.391 . S
C590 H580 0.950 . S
C590 C591 1.386 1_655 S
C590 C592 1.391 . S
C591 C590 1.386 1_455 S
C591 C595 1.393 . S
C592 H581 0.950 1_556 S
C592 C590 1.391 . S
C592 C593 1.400 1_655 S
C593 C587 1.491 1_556 S
C593 C592 1.400 1_455 S
C593 C594 1.398 . S
C594 H582 0.950 . S
C594 C593 1.398 . S
C594 C595 1.391 . S
C595 H583 0.950 . S
C595 C591 1.393 . S
C595 C594 1.391 . S
H596 C604 0.950 . S
H597 C609 0.950 . S
H598 C606 0.950 . S
H599 C608 0.950 . S
H600 C610 0.950 . S
H601 C612 0.950 . S
H602 C614 0.950 . S
H603 C615 0.950 . S
C604 H596 0.950 . S
C604 C605 1.386 . S
C604 C606 1.391 . S
C605 C604 1.386 . S
C605 C609 1.393 1_545 S
C606 H598 0.950 . S
C606 C604 1.391 . S
C606 C607 1.400 . S
C607 C606 1.400 . S
C607 C608 1.398 1_545 S
C607 C613 1.491 . S
C608 H599 0.950 . S
C608 C607 1.398 1_565 S
C608 C609 1.391 . S
C609 H597 0.950 . S
C609 C605 1.393 1_565 S
C609 C608 1.391 . S
C610 H600 0.950 . S
C610 C611 1.386 1_565 S
C610 C612 1.391 . S
C611 C610 1.386 1_545 S
C611 C615 1.393 . S
C612 H601 0.950 . S
C612 C610 1.391 . S
C612 C613 1.400 1_565 S
C613 C607 1.491 . S
C613 C612 1.400 1_545 S
C613 C614 1.398 . S
C614 H602 0.950 . S
C614 C613 1.398 . S
C614 C615 1.391 . S
C615 H603 0.950 . S
C615 C611 1.393 . S
C615 C614 1.391 . S
H616 C624 0.950 . S
H617 C629 0.950 . S
H618 C626 0.950 . S
H619 C628 0.950 . S
H620 C630 0.950 . S
H621 C632 0.950 . S
H622 C634 0.950 . S
H623 C635 0.950 . S
C624 H616 0.950 . S
C624 C625 1.386 . S
C624 C626 1.391 . S
C625 C624 1.386 . S
C625 C629 1.393 . S
C626 H618 0.950 . S
C626 C624 1.391 . S
C626 C627 1.400 . S
C627 C626 1.400 . S
C627 C628 1.398 . S
C627 C633 1.491 1_554 S
C628 H619 0.950 . S
C628 C627 1.398 . S
C628 C629 1.391 . S
C629 H617 0.950 . S
C629 C625 1.393 . S
C629 C628 1.391 . S
C630 H620 0.950 . S
C630 C631 1.386 . S
C630 C632 1.391 . S
C631 C630 1.386 . S
C631 C635 1.393 . S
C632 H621 0.950 . S
C632 C630 1.391 . S
C632 C633 1.400 . S
C633 C627 1.491 1_556 S
C633 C632 1.400 . S
C633 C634 1.398 . S
C634 H622 0.950 . S
C634 C633 1.398 . S
C634 C635 1.391 . S
C635 H623 0.950 . S
C635 C631 1.393 . S
C635 C634 1.391 . S
H636 C644 0.950 . S
H637 C649 0.950 . S
H638 C646 0.950 . S
H639 C648 0.950 . S
H640 C650 0.950 . S
H641 C652 0.950 . S
H642 C654 0.950 . S
H643 C655 0.950 . S
C644 H636 0.950 . S
C644 C645 1.386 . S
C644 C646 1.391 . S
C645 C644 1.386 . S
C645 C649 1.393 . S
C646 H638 0.950 . S
C646 C644 1.391 . S
C646 C647 1.400 . S
C647 C646 1.400 . S
C647 C648 1.398 . S
C647 C653 1.491 . S
C648 H639 0.950 . S
C648 C647 1.398 . S
C648 C649 1.391 . S
C649 H637 0.950 . S
C649 C645 1.393 . S
C649 C648 1.391 . S
C650 H640 0.950 . S
C650 C651 1.386 . S
C650 C652 1.391 . S
C651 C650 1.386 . S
C651 C655 1.393 . S
C652 H641 0.950 . S
C652 C650 1.391 . S
C652 C653 1.400 . S
C653 C647 1.491 . S
C653 C652 1.400 . S
C653 C654 1.398 . S
C654 H642 0.950 . S
C654 C653 1.398 . S
C654 C655 1.391 . S
C655 H643 0.950 . S
C655 C651 1.393 . S
C655 C654 1.391 . S
H656 C664 0.950 . S
H657 C669 0.950 . S
H658 C666 0.950 . S
H659 C668 0.937 1_554 S
H660 C670 0.950 . S
H661 C672 0.950 . S
H662 C674 0.937 1_556 S
H663 C675 0.950 . S
C664 H656 0.950 . S
C664 C665 1.386 1_455 S
C664 C666 1.391 . S
C665 C664 1.386 1_655 S
C665 C669 1.393 . S
C666 H658 0.950 . S
C666 C664 1.391 . S
C666 C667 1.400 1_455 S
C667 C666 1.400 1_655 S
C667 C668 1.402 . S
C667 C673 1.491 1_556 S
C668 H659 0.937 1_556 S
C668 C667 1.402 . S
C668 C669 1.399 . S
C669 H657 0.950 . S
C669 C665 1.393 . S
C669 C668 1.399 . S
C670 H660 0.950 . S
C670 C671 1.386 . S
C670 C672 1.391 . S
C671 C670 1.386 . S
C671 C675 1.393 1_655 S
C672 H661 0.950 . S
C672 C670 1.391 . S
C672 C673 1.400 . S
C673 C667 1.491 1_554 S
C673 C672 1.400 . S
C673 C674 1.402 1_655 S
C674 H662 0.937 1_554 S
C674 C673 1.402 1_455 S
C674 C675 1.399 . S
C675 H663 0.950 . S
C675 C671 1.393 1_455 S
C675 C674 1.399 . S
H676 C684 0.950 . S
H677 C689 0.950 . S
H678 C686 0.950 . S
H679 C688 0.950 . S
H680 C690 0.950 . S
H681 C692 0.950 . S
H682 C694 0.950 . S
H683 C695 0.950 . S
C684 H676 0.950 . S
C684 C685 1.386 . S
C684 C686 1.391 . S
C685 C684 1.386 . S
C685 C689 1.393 1_565 S
C686 H678 0.950 . S
C686 C684 1.391 . S
C686 C687 1.400 . S
C687 C686 1.400 . S
C687 C688 1.398 1_565 S
C687 C693 1.491 . S
C688 H679 0.950 . S
C688 C687 1.398 1_545 S
C688 C689 1.391 . S
C689 H677 0.950 . S
C689 C685 1.393 1_545 S
C689 C688 1.391 . S
C690 H680 0.950 . S
C690 C691 1.386 1_545 S
C690 C692 1.391 . S
C691 C690 1.386 1_565 S
C691 C695 1.393 . S
C692 H681 0.950 . S
C692 C690 1.391 . S
C692 C693 1.400 1_545 S
C693 C687 1.491 . S
C693 C692 1.400 1_565 S
C693 C694 1.398 . S
C694 H682 0.950 . S
C694 C693 1.398 . S
C694 C695 1.391 . S
C695 H683 0.950 . S
C695 C691 1.393 . S
C695 C694 1.391 . S
H696 C704 0.950 . S
H697 C709 0.950 . S
H698 C706 0.950 1_554 S
H699 C708 0.950 . S
H700 C710 0.950 . S
H701 C712 0.950 1_556 S
H702 C714 0.950 . S
H703 C715 0.950 . S
C704 H696 0.950 . S
C704 C705 1.386 . S
C704 C706 1.391 . S
C705 C704 1.386 . S
C705 C709 1.393 . S
C706 H698 0.950 1_556 S
C706 C704 1.391 . S
C706 C707 1.400 . S
C707 C706 1.400 . S
C707 C708 1.398 . S
C707 C713 1.491 1_556 S
C708 H699 0.950 . S
C708 C707 1.398 . S
C708 C709 1.391 . S
C709 H697 0.950 . S
C709 C705 1.393 . S
C709 C708 1.391 . S
C710 H700 0.950 . S
C710 C711 1.386 . S
C710 C712 1.391 . S
C711 C710 1.386 . S
C711 C715 1.393 . S
C712 H701 0.950 1_554 S
C712 C710 1.391 . S
C712 C713 1.400 . S
C713 C707 1.491 1_554 S
C713 C712 1.400 . S
C713 C714 1.398 . S
C714 H702 0.950 . S
C714 C713 1.398 . S
C714 C715 1.391 . S
C715 H703 0.950 . S
C715 C711 1.393 . S
C715 C714 1.391 . S
H716 C724 0.950 . S
H717 C729 0.950 . S
H718 C726 0.950 . S
H719 C728 0.950 . S
H720 C730 0.950 . S
H721 C732 0.950 . S
H722 C734 0.950 . S
H723 C735 0.950 . S
C724 H716 0.950 . S
C724 C725 1.386 . S
C724 C726 1.391 . S
C725 C724 1.386 . S
C725 C729 1.393 . S
C726 H718 0.950 . S
C726 C724 1.391 . S
C726 C727 1.400 . S
C727 C726 1.400 . S
C727 C728 1.398 . S
C727 C733 1.491 . S
C728 H719 0.950 . S
C728 C727 1.398 . S
C728 C729 1.391 . S
C729 H717 0.950 . S
C729 C725 1.393 . S
C729 C728 1.391 . S
C730 H720 0.950 . S
C730 C731 1.386 . S
C730 C732 1.391 . S
C731 C730 1.386 . S
C731 C735 1.393 . S
C732 H721 0.950 . S
C732 C730 1.391 . S
C732 C733 1.400 . S
C733 C727 1.491 . S
C733 C732 1.400 . S
C733 C734 1.398 . S
C734 H722 0.950 . S
C734 C733 1.398 . S
C734 C735 1.391 . S
C735 H723 0.950 . S
C735 C731 1.393 . S
C735 C734 1.391 . S
H736 C744 0.950 . S
H737 C749 0.950 . S
H738 C746 0.950 . S
H739 C748 0.950 . S
H740 C750 0.950 . S
H741 C752 0.950 . S
H742 C754 0.950 . S
H743 C755 0.950 . S
C744 H736 0.950 . S
C744 C745 1.386 . S
C744 C746 1.391 1_554 S
C745 C744 1.386 . S
C745 C749 1.393 1_554 S
C746 H738 0.950 . S
C746 C744 1.391 1_556 S
C746 C747 1.400 . S
C747 C746 1.400 . S
C747 C748 1.398 . S
C747 C753 1.491 . S
C748 H739 0.950 . S
C748 C747 1.398 . S
C748 C749 1.391 . S
C749 H737 0.950 . S
C749 C745 1.393 1_556 S
C749 C748 1.391 . S
C750 H740 0.950 . S
C750 C751 1.386 . S
C750 C752 1.391 . S
C751 C750 1.386 . S
C751 C755 1.393 . S
C752 H741 0.950 . S
C752 C750 1.391 . S
C752 C753 1.400 . S
C753 C747 1.491 . S
C753 C752 1.400 . S
C753 C754 1.398 . S
C754 H742 0.950 . S
C754 C753 1.398 . S
C754 C755 1.391 . S
C755 H743 0.950 . S
C755 C751 1.393 . S
C755 C754 1.391 . S
H756 C764 0.950 . S
H757 C769 0.950 . S
H758 C766 0.950 . S
H759 C768 0.950 . S
H760 C770 0.950 . S
H761 C772 0.950 . S
H762 C774 0.950 . S
H763 C775 0.950 . S
C764 H756 0.950 . S
C764 C765 1.386 . S
C764 C766 1.391 . S
C765 C764 1.386 . S
C765 C769 1.393 . S
C766 H758 0.950 . S
C766 C764 1.391 . S
C766 C767 1.400 . S
C767 C766 1.400 . S
C767 C768 1.398 . S
C767 C773 1.491 . S
C768 H759 0.950 . S
C768 C767 1.398 . S
C768 C769 1.391 . S
C769 H757 0.950 . S
C769 C765 1.393 . S
C769 C768 1.391 . S
C770 H760 0.950 . S
C770 C771 1.386 . S
C770 C772 1.391 . S
C771 C770 1.386 . S
C771 C775 1.393 . S
C772 H761 0.950 . S
C772 C770 1.391 . S
C772 C773 1.400 . S
C773 C767 1.491 . S
C773 C772 1.400 . S
C773 C774 1.398 . S
C774 H762 0.950 . S
C774 C773 1.398 . S
C774 C775 1.391 . S
C775 H763 0.950 . S
C775 C771 1.393 . S
C775 C774 1.391 . S
H776 C784 0.950 . S
H777 C789 0.950 . S
H778 C786 0.950 . S
H779 C788 0.950 . S
H780 C790 0.950 . S
H781 C792 0.950 . S
H782 C794 0.950 . S
H783 C795 0.950 . S
C784 H776 0.950 . S
C784 C785 1.386 1_556 S
C784 C786 1.391 . S
C785 C784 1.386 1_554 S
C785 C789 1.393 . S
C786 H778 0.950 . S
C786 C784 1.391 . S
C786 C787 1.400 . S
C787 C786 1.400 . S
C787 C788 1.398 . S
C787 C793 1.491 . S
C788 H779 0.950 . S
C788 C787 1.398 . S
C788 C789 1.391 1_556 S
C789 H777 0.950 . S
C789 C785 1.393 . S
C789 C788 1.391 1_554 S
C790 H780 0.950 . S
C790 C791 1.386 . S
C790 C792 1.391 . S
C791 C790 1.386 . S
C791 C795 1.393 . S
C792 H781 0.950 . S
C792 C790 1.391 . S
C792 C793 1.400 . S
C793 C787 1.491 . S
C793 C792 1.400 . S
C793 C794 1.398 . S
C794 H782 0.950 . S
C794 C793 1.398 . S
C794 C795 1.391 . S
C795 H783 0.950 . S
C795 C791 1.393 . S
C795 C794 1.391 . S
H796 C804 0.950 . S
H797 C809 0.950 . S
H798 C806 0.950 . S
H799 C808 0.950 . S
H800 C810 0.950 . S
H801 C812 0.950 . S
H802 C814 0.950 . S
H803 C815 0.950 . S
C804 H796 0.950 . S
C804 C805 1.386 . S
C804 C806 1.391 . S
C805 C804 1.386 . S
C805 C809 1.393 . S
C806 H798 0.950 . S
C806 C804 1.391 . S
C806 C807 1.400 . S
C807 C806 1.400 . S
C807 C808 1.398 . S
C807 C813 1.491 . S
C808 H799 0.950 . S
C808 C807 1.398 . S
C808 C809 1.391 . S
C809 H797 0.950 . S
C809 C805 1.393 . S
C809 C808 1.391 . S
C810 H800 0.950 . S
C810 C811 1.386 . S
C810 C812 1.391 . S
C811 C810 1.386 . S
C811 C815 1.393 . S
C812 H801 0.950 . S
C812 C810 1.391 . S
C812 C813 1.400 . S
C813 C807 1.491 . S
C813 C812 1.400 . S
C813 C814 1.398 . S
C814 H802 0.950 . S
C814 C813 1.398 . S
C814 C815 1.391 . S
C815 H803 0.950 . S
C815 C811 1.393 . S
C815 C814 1.391 . S
H816 C824 0.950 . S
H817 C829 0.950 . S
H818 C826 0.950 . S
H819 C828 0.950 . S
H820 C830 0.950 . S
H821 C832 0.950 . S
H822 C834 0.950 . S
H823 C835 0.950 . S
C824 H816 0.950 . S
C824 C825 1.386 . S
C824 C826 1.391 . S
C825 C824 1.386 . S
C825 C829 1.393 . S
C826 H818 0.950 . S
C826 C824 1.391 . S
C826 C827 1.400 . S
C827 C826 1.400 . S
C827 C828 1.398 . S
C827 C833 1.491 . S
C828 H819 0.950 . S
C828 C827 1.398 . S
C828 C829 1.391 . S
C829 H817 0.950 . S
C829 C825 1.393 . S
C829 C828 1.391 . S
C830 H820 0.950 . S
C830 C831 1.386 . S
C830 C832 1.391 1_556 S
C831 C830 1.386 . S
C831 C835 1.393 1_556 S
C832 H821 0.950 . S
C832 C830 1.391 1_554 S
C832 C833 1.400 . S
C833 C827 1.491 . S
C833 C832 1.400 . S
C833 C834 1.398 . S
C834 H822 0.950 . S
C834 C833 1.398 . S
C834 C835 1.391 . S
C835 H823 0.950 . S
C835 C831 1.393 1_554 S
C835 C834 1.391 . S
H836 C844 0.950 . S
H837 C849 0.950 . S
H838 C846 0.950 . S
H839 C848 0.950 . S
H840 C850 0.950 . S
H841 C852 0.950 . S
H842 C854 0.950 . S
H843 C855 0.950 . S
C844 H836 0.950 . S
C844 C845 1.386 . S
C844 C846 1.391 . S
C845 C844 1.386 . S
C845 C849 1.393 . S
C846 H838 0.950 . S
C846 C844 1.391 . S
C846 C847 1.400 . S
C847 C846 1.400 . S
C847 C848 1.398 . S
C847 C853 1.491 . S
C848 H839 0.950 . S
C848 C847 1.398 . S
C848 C849 1.391 . S
C849 H837 0.950 . S
C849 C845 1.393 . S
C849 C848 1.391 . S
C850 H840 0.950 . S
C850 C851 1.386 . S
C850 C852 1.391 . S
C851 C850 1.386 . S
C851 C855 1.393 . S
C852 H841 0.950 . S
C852 C850 1.391 . S
C852 C853 1.400 . S
C853 C847 1.491 . S
C853 C852 1.400 . S
C853 C854 1.398 . S
C854 H842 0.950 . S
C854 C853 1.398 . S
C854 C855 1.391 . S
C855 H843 0.950 . S
C855 C851 1.393 . S
C855 C854 1.391 . S
H856 C864 0.950 . S
H857 C869 0.950 . S
H858 C866 0.950 . S
H859 C868 0.950 . S
H860 C870 0.950 . S
H861 C872 0.950 . S
H862 C874 0.950 . S
H863 C875 0.950 . S
C864 H856 0.950 . S
C864 C865 1.386 . S
C864 C866 1.391 . S
C865 C864 1.386 . S
C865 C869 1.393 . S
C866 H858 0.950 . S
C866 C864 1.391 . S
C866 C867 1.400 . S
C867 C866 1.400 . S
C867 C868 1.398 . S
C867 C873 1.491 . S
C868 H859 0.950 . S
C868 C867 1.398 . S
C868 C869 1.391 . S
C869 H857 0.950 . S
C869 C865 1.393 . S
C869 C868 1.391 . S
C870 H860 0.950 . S
C870 C871 1.386 1_554 S
C870 C872 1.391 . S
C871 C870 1.386 1_556 S
C871 C875 1.393 1_556 S
C872 H861 0.950 . S
C872 C870 1.391 . S
C872 C873 1.400 . S
C873 C867 1.491 . S
C873 C872 1.400 . S
C873 C874 1.398 . S
C874 H862 0.950 . S
C874 C873 1.398 . S
C874 C875 1.391 . S
C875 H863 0.950 . S
C875 C871 1.393 1_554 S
C875 C874 1.391 . S
H876 C884 0.950 . S
H877 C889 0.950 . S
H878 C886 0.950 . S
H879 C888 0.950 . S
H880 C890 0.950 . S
H881 C892 0.950 . S
H882 C894 0.950 . S
H883 C895 0.950 . S
C884 H876 0.950 . S
C884 C885 1.386 . S
C884 C886 1.391 . S
C885 C884 1.386 . S
C885 C889 1.393 . S
C886 H878 0.950 . S
C886 C884 1.391 . S
C886 C887 1.400 . S
C887 C886 1.400 . S
C887 C888 1.398 . S
C887 C893 1.491 . S
C888 H879 0.950 . S
C888 C887 1.398 . S
C888 C889 1.391 . S
C889 H877 0.950 . S
C889 C885 1.393 . S
C889 C888 1.391 . S
C890 H880 0.950 . S
C890 C891 1.386 . S
C890 C892 1.391 . S
C891 C890 1.386 . S
C891 C895 1.393 . S
C892 H881 0.950 . S
C892 C890 1.391 . S
C892 C893 1.400 . S
C893 C887 1.491 . S
C893 C892 1.400 . S
C893 C894 1.398 . S
C894 H882 0.950 . S
C894 C893 1.398 . S
C894 C895 1.391 . S
C895 H883 0.950 . S
C895 C891 1.393 . S
C895 C894 1.391 . S
H896 C904 0.950 . S
H897 C909 0.948 1_556 S
H898 C906 0.950 . S
H899 C908 0.950 . S
H900 C910 0.950 . S
H901 C912 0.950 . S
H902 C914 0.950 . S
H903 C915 0.950 . S
C904 H896 0.950 . S
C904 C905 1.386 1_554 S
C904 C906 1.391 . S
C905 C904 1.386 1_556 S
C905 C909 1.393 1_556 S
C906 H898 0.950 . S
C906 C904 1.391 . S
C906 C907 1.400 . S
C907 C906 1.400 . S
C907 C908 1.398 . S
C907 C913 1.491 . S
C908 H899 0.950 . S
C908 C907 1.398 . S
C908 C909 1.393 . S
C909 H897 0.948 1_554 S
C909 C905 1.393 1_554 S
C909 C908 1.393 . S
C910 H900 0.950 . S
C910 C911 1.386 . S
C910 C912 1.391 . S
C911 C910 1.386 . S
C911 C915 1.393 . S
C912 H901 0.950 . S
C912 C910 1.391 . S
C912 C913 1.400 . S
C913 C907 1.491 . S
C913 C912 1.400 . S
C913 C914 1.398 . S
C914 H902 0.950 . S
C914 C913 1.398 . S
C914 C915 1.391 . S
C915 H903 0.950 . S
C915 C911 1.393 . S
C915 C914 1.391 . S
H916 C924 0.950 . S
H917 C929 0.950 . S
H918 C926 0.950 . S
H919 C928 0.950 . S
H920 C930 0.950 . S
H921 C932 0.950 . S
H922 C934 0.950 . S
H923 C935 0.950 . S
C924 H916 0.950 . S
C924 C925 1.386 . S
C924 C926 1.391 . S
C925 C924 1.386 . S
C925 C929 1.393 . S
C926 H918 0.950 . S
C926 C924 1.391 . S
C926 C927 1.400 . S
C927 C926 1.400 . S
C927 C928 1.398 . S
C927 C933 1.491 . S
C928 H919 0.950 . S
C928 C927 1.398 . S
C928 C929 1.391 . S
C929 H917 0.950 . S
C929 C925 1.393 . S
C929 C928 1.391 . S
C930 H920 0.950 . S
C930 C931 1.386 . S
C930 C932 1.391 . S
C931 C930 1.386 . S
C931 C935 1.393 . S
C932 H921 0.950 . S
C932 C930 1.391 . S
C932 C933 1.400 . S
C933 C927 1.491 . S
C933 C932 1.400 . S
C933 C934 1.398 . S
C934 H922 0.950 . S
C934 C933 1.398 . S
C934 C935 1.391 . S
C935 H923 0.950 . S
C935 C931 1.393 . S
C935 C934 1.391 . S
H936 C944 0.950 . S
H937 C949 0.950 . S
H938 C946 0.950 . S
H939 C948 0.950 . S
H940 C950 0.950 . S
H941 C952 0.950 . S
H942 C954 0.950 . S
H943 C955 0.950 . S
C944 H936 0.950 . S
C944 C945 1.386 . S
C944 C946 1.391 . S
C945 C944 1.386 . S
C945 C949 1.393 . S
C946 H938 0.950 . S
C946 C944 1.391 . S
C946 C947 1.400 . S
C947 C946 1.400 . S
C947 C948 1.398 . S
C947 C953 1.491 . S
C948 H939 0.950 . S
C948 C947 1.398 . S
C948 C949 1.391 . S
C949 H937 0.950 . S
C949 C945 1.393 . S
C949 C948 1.391 . S
C950 H940 0.950 . S
C950 C951 1.386 . S
C950 C952 1.391 1_556 S
C951 C950 1.386 . S
C951 C955 1.393 1_556 S
C952 H941 0.950 . S
C952 C950 1.391 1_554 S
C952 C953 1.400 . S
C953 C947 1.491 . S
C953 C952 1.400 . S
C953 C954 1.398 . S
C954 H942 0.950 . S
C954 C953 1.398 . S
C954 C955 1.391 . S
C955 H943 0.950 . S
C955 C951 1.393 1_554 S
C955 C954 1.391 . S
H956 C964 0.950 . S
H957 C969 0.950 . S
H958 C966 0.950 . S
H959 C968 0.950 . S
H960 C970 0.950 . S
H961 C972 0.950 . S
H962 C974 0.950 . S
H963 C975 0.950 . S
C964 H956 0.950 . S
C964 C965 1.386 . S
C964 C966 1.391 . S
C965 C964 1.386 . S
C965 C969 1.393 . S
C966 H958 0.950 . S
C966 C964 1.391 . S
C966 C967 1.400 . S
C967 C966 1.400 . S
C967 C968 1.398 . S
C967 C973 1.491 . S
C968 H959 0.950 . S
C968 C967 1.398 . S
C968 C969 1.391 . S
C969 H957 0.950 . S
C969 C965 1.393 . S
C969 C968 1.391 . S
C970 H960 0.950 . S
C970 C971 1.386 . S
C970 C972 1.391 . S
C971 C970 1.386 . S
C971 C975 1.393 . S
C972 H961 0.950 . S
C972 C970 1.391 . S
C972 C973 1.400 . S
C973 C967 1.491 . S
C973 C972 1.400 . S
C973 C974 1.398 . S
C974 H962 0.950 . S
C974 C973 1.398 . S
C974 C975 1.391 . S
C975 H963 0.950 . S
C975 C971 1.393 . S
C975 C974 1.391 . S
H976 C984 0.950 . S
H977 C989 0.950 . S
H978 C986 0.950 . S
H979 C988 0.950 . S
H980 C990 0.950 . S
H981 C992 0.950 . S
H982 C994 0.950 . S
H983 C995 0.950 . S
C984 H976 0.950 . S
C984 C985 1.386 . S
C984 C986 1.391 . S
C985 C984 1.386 . S
C985 C989 1.393 . S
C986 H978 0.950 . S
C986 C984 1.391 . S
C986 C987 1.400 . S
C987 C986 1.400 . S
C987 C988 1.398 . S
C987 C993 1.491 . S
C988 H979 0.950 . S
C988 C987 1.398 . S
C988 C989 1.391 . S
C989 H977 0.950 . S
C989 C985 1.393 . S
C989 C988 1.391 . S
C990 H980 0.950 . S
C990 C991 1.386 . S
C990 C992 1.391 1_554 S
C991 C990 1.386 . S
C991 C995 1.393 1_554 S
C992 H981 0.950 . S
C992 C990 1.391 1_556 S
C992 C993 1.400 . S
C993 C987 1.491 . S
C993 C992 1.400 . S
C993 C994 1.398 . S
C994 H982 0.950 . S
C994 C993 1.398 . S
C994 C995 1.391 . S
C995 H983 0.950 . S
C995 C991 1.393 1_556 S
C995 C994 1.391 . S
H996 C1004 0.950 . S
H997 C1009 0.950 . S
H998 C1006 0.950 . S
H999 C1008 0.950 . S
H1000 C1010 0.950 . S
H1001 C1012 0.950 . S
H1002 C1014 0.950 . S
H1003 C1015 0.950 . S
C1004 H996 0.950 . S
C1004 C1005 1.386 . S
C1004 C1006 1.391 . S
C1005 C1004 1.386 . S
C1005 C1009 1.393 . S
C1006 H998 0.950 . S
C1006 C1004 1.391 . S
C1006 C1007 1.400 . S
C1007 C1006 1.400 . S
C1007 C1008 1.398 . S
C1007 C1013 1.491 . S
C1008 H999 0.950 . S
C1008 C1007 1.398 . S
C1008 C1009 1.391 . S
C1009 H997 0.950 . S
C1009 C1005 1.393 . S
C1009 C1008 1.391 . S
C1010 H1000 0.950 . S
C1010 C1011 1.386 . S
C1010 C1012 1.391 . S
C1011 C1010 1.386 . S
C1011 C1015 1.393 . S
C1012 H1001 0.950 . S
C1012 C1010 1.391 . S
C1012 C1013 1.400 . S
C1013 C1007 1.491 . S
C1013 C1012 1.400 . S
C1013 C1014 1.398 . S
C1014 H1002 0.950 . S
C1014 C1013 1.398 . S
C1014 C1015 1.391 . S
C1015 H1003 0.950 . S
C1015 C1011 1.393 . S
C1015 C1014 1.391 . S
H1016 C1024 0.950 . S
H1017 C1029 0.950 1_554 S
H1018 C1026 0.950 . S
H1019 C1028 0.950 . S
H1020 C1030 0.950 . S
H1021 C1032 0.950 . S
H1022 C1034 0.950 . S
H1023 C1035 0.950 . S
C1024 H1016 0.950 . S
C1024 C1025 1.386 1_556 S
C1024 C1026 1.391 . S
C1025 C1024 1.386 1_554 S
C1025 C1029 1.393 1_554 S
C1026 H1018 0.950 . S
C1026 C1024 1.391 . S
C1026 C1027 1.400 . S
C1027 C1026 1.400 . S
C1027 C1028 1.398 . S
C1027 C1033 1.491 . S
C1028 H1019 0.950 . S
C1028 C1027 1.398 . S
C1028 C1029 1.391 . S
C1029 H1017 0.950 1_556 S
C1029 C1025 1.393 1_556 S
C1029 C1028 1.391 . S
C1030 H1020 0.950 . S
C1030 C1031 1.386 . S
C1030 C1032 1.391 . S
C1031 C1030 1.386 . S
C1031 C1035 1.393 . S
C1032 H1021 0.950 . S
C1032 C1030 1.391 . S
C1032 C1033 1.400 . S
C1033 C1027 1.491 . S
C1033 C1032 1.400 . S
C1033 C1034 1.398 . S
C1034 H1022 0.950 . S
C1034 C1033 1.398 . S
C1034 C1035 1.391 . S
C1035 H1023 0.950 . S
C1035 C1031 1.393 . S
C1035 C1034 1.391 . S
H1036 C1044 0.950 . S
H1037 C1049 0.950 . S
H1038 C1046 0.950 . S
H1039 C1048 0.950 . S
H1040 C1050 0.950 . S
H1041 C1052 0.950 . S
H1042 C1054 0.950 . S
H1043 C1055 0.950 . S
C1044 H1036 0.950 . S
C1044 C1045 1.386 . S
C1044 C1046 1.391 . S
C1045 C1044 1.386 . S
C1045 C1049 1.393 . S
C1046 H1038 0.950 . S
C1046 C1044 1.391 . S
C1046 C1047 1.400 . S
C1047 C1046 1.400 . S
C1047 C1048 1.398 . S
C1047 C1053 1.491 . S
C1048 H1039 0.950 . S
C1048 C1047 1.398 . S
C1048 C1049 1.391 . S
C1049 H1037 0.950 . S
C1049 C1045 1.393 . S
C1049 C1048 1.391 . S
C1050 H1040 0.950 . S
C1050 C1051 1.386 . S
C1050 C1052 1.391 . S
C1051 C1050 1.386 . S
C1051 C1055 1.393 . S
C1052 H1041 0.950 . S
C1052 C1050 1.391 . S
C1052 C1053 1.400 . S
C1053 C1047 1.491 . S
C1053 C1052 1.400 . S
C1053 C1054 1.398 . S
C1054 H1042 0.950 . S
C1054 C1053 1.398 . S
C1054 C1055 1.391 . S
C1055 H1043 0.950 . S
C1055 C1051 1.393 . S
C1055 C1054 1.391 . S
H1056 C1064 0.950 . S
H1057 C1069 0.950 . S
H1058 C1066 0.950 . S
H1059 C1068 0.950 . S
H1060 C1070 0.950 . S
H1061 C1072 0.950 . S
H1062 C1074 0.950 . S
H1063 C1075 0.950 . S
C1064 H1056 0.950 . S
C1064 C1065 1.386 . S
C1064 C1066 1.391 . S
C1065 C1064 1.386 . S
C1065 C1069 1.393 . S
C1066 H1058 0.950 . S
C1066 C1064 1.391 . S
C1066 C1067 1.400 . S
C1067 C1066 1.400 . S
C1067 C1068 1.398 . S
C1067 C1073 1.491 . S
C1068 H1059 0.950 . S
C1068 C1067 1.398 . S
C1068 C1069 1.391 . S
C1069 H1057 0.950 . S
C1069 C1065 1.393 . S
C1069 C1068 1.391 . S
C1070 H1060 0.950 . S
C1070 C1071 1.386 . S
C1070 C1072 1.391 . S
C1071 C1070 1.386 . S
C1071 C1075 1.393 . S
C1072 H1061 0.950 . S
C1072 C1070 1.391 . S
C1072 C1073 1.400 . S
C1073 C1067 1.491 . S
C1073 C1072 1.400 . S
C1073 C1074 1.398 . S
C1074 H1062 0.950 . S
C1074 C1073 1.398 . S
C1074 C1075 1.391 . S
C1075 H1063 0.950 . S
C1075 C1071 1.393 . S
C1075 C1074 1.391 . S
H1076 C1084 0.950 . S
H1077 C1089 0.950 . S
H1078 C1086 0.950 . S
H1079 C1088 0.950 . S
H1080 C1090 0.950 . S
H1081 C1092 0.950 . S
H1082 C1094 0.950 . S
H1083 C1095 0.950 . S
C1084 H1076 0.950 . S
C1084 C1085 1.386 . S
C1084 C1086 1.391 . S
C1085 C1084 1.386 . S
C1085 C1089 1.393 . S
C1086 H1078 0.950 . S
C1086 C1084 1.391 . S
C1086 C1087 1.400 . S
C1087 C1086 1.400 . S
C1087 C1088 1.398 . S
C1087 C1093 1.491 . S
C1088 H1079 0.950 . S
C1088 C1087 1.398 . S
C1088 C1089 1.391 . S
C1089 H1077 0.950 . S
C1089 C1085 1.393 . S
C1089 C1088 1.391 . S
C1090 H1080 0.950 . S
C1090 C1091 1.386 . S
C1090 C1092 1.391 . S
C1091 C1090 1.386 . S
C1091 C1095 1.393 . S
C1092 H1081 0.950 . S
C1092 C1090 1.391 . S
C1092 C1093 1.400 . S
C1093 C1087 1.491 . S
C1093 C1092 1.400 . S
C1093 C1094 1.398 . S
C1094 H1082 0.950 . S
C1094 C1093 1.398 . S
C1094 C1095 1.391 . S
C1095 H1083 0.950 . S
C1095 C1091 1.393 . S
C1095 C1094 1.391 . S
H1096 C1104 0.950 . S
H1097 C1109 0.950 . S
H1098 C1106 0.950 . S
H1099 C1108 0.950 . S
H1100 C1110 0.950 . S
H1101 C1112 0.950 . S
H1102 C1114 0.950 . S
H1103 C1115 0.950 . S
C1104 H1096 0.950 . S
C1104 C1105 1.386 . S
C1104 C1106 1.391 . S
C1105 C1104 1.386 . S
C1105 C1109 1.393 . S
C1106 H1098 0.950 . S
C1106 C1104 1.391 . S
C1106 C1107 1.400 . S
C1107 C1106 1.400 . S
C1107 C1108 1.398 . S
C1107 C1113 1.491 . S
C1108 H1099 0.950 . S
C1108 C1107 1.398 . S
C1108 C1109 1.391 . S
C1109 H1097 0.950 . S
C1109 C1105 1.393 . S
C1109 C1108 1.391 . S
C1110 H1100 0.950 . S
C1110 C1111 1.386 . S
C1110 C1112 1.391 . S
C1111 C1110 1.386 . S
C1111 C1115 1.393 . S
C1112 H1101 0.950 . S
C1112 C1110 1.391 . S
C1112 C1113 1.400 . S
C1113 C1107 1.491 . S
C1113 C1112 1.400 . S
C1113 C1114 1.398 . S
C1114 H1102 0.950 . S
C1114 C1113 1.398 . S
C1114 C1115 1.391 . S
C1115 H1103 0.950 . S
C1115 C1111 1.393 . S
C1115 C1114 1.391 . S
H1116 C1124 0.950 . S
H1117 C1129 0.950 . S
H1118 C1126 0.950 . S
H1119 C1128 0.950 . S
H1120 C1130 0.950 . S
H1121 C1132 0.950 . S
H1122 C1134 0.950 . S
H1123 C1135 0.950 . S
C1124 H1116 0.950 . S
C1124 C1125 1.386 . S
C1124 C1126 1.391 . S
C1125 C1124 1.386 . S
C1125 C1129 1.393 . S
C1126 H1118 0.950 . S
C1126 C1124 1.391 . S
C1126 C1127 1.400 . S
C1127 C1126 1.400 . S
C1127 C1128 1.398 . S
C1127 C1133 1.491 . S
C1128 H1119 0.950 . S
C1128 C1127 1.398 . S
C1128 C1129 1.391 . S
C1129 H1117 0.950 . S
C1129 C1125 1.393 . S
C1129 C1128 1.391 . S
C1130 H1120 0.950 . S
C1130 C1131 1.386 . S
C1130 C1132 1.391 . S
C1131 C1130 1.386 . S
C1131 C1135 1.393 . S
C1132 H1121 0.950 . S
C1132 C1130 1.391 . S
C1132 C1133 1.400 . S
C1133 C1127 1.491 . S
C1133 C1132 1.400 . S
C1133 C1134 1.398 . S
C1134 H1122 0.950 . S
C1134 C1133 1.398 . S
C1134 C1135 1.391 . S
C1135 H1123 0.950 . S
C1135 C1131 1.393 . S
C1135 C1134 1.391 . S
H1136 C1144 0.950 . S
H1137 C1149 0.950 . S
H1138 C1146 0.950 . S
H1139 C1148 0.950 . S
H1140 C1150 0.950 . S
H1141 C1152 0.950 . S
H1142 C1154 0.950 . S
H1143 C1155 0.950 . S
C1144 H1136 0.950 . S
C1144 C1145 1.386 . S
C1144 C1146 1.391 . S
C1145 C1144 1.386 . S
C1145 C1149 1.393 . S
C1146 H1138 0.950 . S
C1146 C1144 1.391 . S
C1146 C1147 1.400 . S
C1147 C1146 1.400 . S
C1147 C1148 1.398 . S
C1147 C1153 1.491 . S
C1148 H1139 0.950 . S
C1148 C1147 1.398 . S
C1148 C1149 1.391 . S
C1149 H1137 0.950 . S
C1149 C1145 1.393 . S
C1149 C1148 1.391 . S
C1150 H1140 0.950 . S
C1150 C1151 1.386 . S
C1150 C1152 1.391 . S
C1151 C1150 1.386 . S
C1151 C1155 1.393 . S
C1152 H1141 0.950 . S
C1152 C1150 1.391 . S
C1152 C1153 1.400 . S
C1153 C1147 1.491 . S
C1153 C1152 1.400 . S
C1153 C1154 1.398 . S
C1154 H1142 0.950 . S
C1154 C1153 1.398 . S
C1154 C1155 1.391 . S
C1155 H1143 0.950 . S
C1155 C1151 1.393 . S
C1155 C1154 1.391 . S
H1156 C1164 0.950 . S
H1157 C1169 0.950 . S
H1158 C1166 0.950 . S
H1159 C1168 0.950 . S
H1160 C1170 0.950 . S
H1161 C1172 0.950 . S
H1162 C1174 0.950 . S
H1163 C1175 0.950 . S
C1164 H1156 0.950 . S
C1164 C1165 1.386 . S
C1164 C1166 1.391 . S
C1165 C1164 1.386 . S
C1165 C1169 1.393 . S
C1166 H1158 0.950 . S
C1166 C1164 1.391 . S
C1166 C1167 1.400 . S
C1167 C1166 1.400 . S
C1167 C1168 1.398 . S
C1167 C1173 1.491 . S
C1168 H1159 0.950 . S
C1168 C1167 1.398 . S
C1168 C1169 1.391 . S
C1169 H1157 0.950 . S
C1169 C1165 1.393 . S
C1169 C1168 1.391 . S
C1170 H1160 0.950 . S
C1170 C1171 1.386 . S
C1170 C1172 1.391 . S
C1171 C1170 1.386 . S
C1171 C1175 1.393 . S
C1172 H1161 0.950 . S
C1172 C1170 1.391 . S
C1172 C1173 1.400 . S
C1173 C1167 1.491 . S
C1173 C1172 1.400 . S
C1173 C1174 1.398 . S
C1174 H1162 0.950 . S
C1174 C1173 1.398 . S
C1174 C1175 1.391 . S
C1175 H1163 0.950 . S
C1175 C1171 1.393 . S
C1175 C1174 1.391 . S
H1176 C1184 0.950 . S
H1177 C1189 0.950 . S
H1178 C1186 0.950 . S
H1179 C1188 0.950 . S
H1180 C1190 0.950 . S
H1181 C1192 0.950 . S
H1182 C1194 0.950 . S
H1183 C1195 0.950 . S
C1184 H1176 0.950 . S
C1184 C1185 1.386 . S
C1184 C1186 1.391 . S
C1185 C1184 1.386 . S
C1185 C1189 1.393 . S
C1186 H1178 0.950 . S
C1186 C1184 1.391 . S
C1186 C1187 1.400 . S
C1187 C1186 1.400 . S
C1187 C1188 1.398 . S
C1187 C1193 1.491 . S
C1188 H1179 0.950 . S
C1188 C1187 1.398 . S
C1188 C1189 1.391 . S
C1189 H1177 0.950 . S
C1189 C1185 1.393 . S
C1189 C1188 1.391 . S
C1190 H1180 0.950 . S
C1190 C1191 1.386 . S
C1190 C1192 1.391 . S
C1191 C1190 1.386 . S
C1191 C1195 1.393 . S
C1192 H1181 0.950 . S
C1192 C1190 1.391 . S
C1192 C1193 1.400 . S
C1193 C1187 1.491 . S
C1193 C1192 1.400 . S
C1193 C1194 1.398 . S
C1194 H1182 0.950 . S
C1194 C1193 1.398 . S
C1194 C1195 1.391 . S
C1195 H1183 0.950 . S
C1195 C1191 1.393 . S
C1195 C1194 1.391 . S
H1196 C1204 0.950 . S
H1197 C1209 0.950 . S
H1198 C1206 0.950 . S
H1199 C1208 0.950 . S
H1200 C1210 0.950 . S
H1201 C1212 0.950 . S
H1202 C1214 0.950 . S
H1203 C1215 0.950 . S
C1204 H1196 0.950 . S
C1204 C1205 1.386 . S
C1204 C1206 1.391 . S
C1205 C1204 1.386 . S
C1205 C1209 1.393 . S
C1206 H1198 0.950 . S
C1206 C1204 1.391 . S
C1206 C1207 1.400 . S
C1207 C1206 1.400 . S
C1207 C1208 1.398 . S
C1207 C1213 1.491 . S
C1208 H1199 0.950 . S
C1208 C1207 1.398 . S
C1208 C1209 1.391 . S
C1209 H1197 0.950 . S
C1209 C1205 1.393 . S
C1209 C1208 1.391 . S
C1210 H1200 0.950 . S
C1210 C1211 1.386 . S
C1210 C1212 1.391 . S
C1211 C1210 1.386 . S
C1211 C1215 1.393 . S
C1212 H1201 0.950 . S
C1212 C1210 1.391 . S
C1212 C1213 1.400 . S
C1213 C1207 1.491 . S
C1213 C1212 1.400 . S
C1213 C1214 1.398 . S
C1214 H1202 0.950 . S
C1214 C1213 1.398 . S
C1214 C1215 1.391 . S
C1215 H1203 0.950 . S
C1215 C1211 1.393 . S
C1215 C1214 1.391 . S
C585 C4 1.121 . S
C591 C148 1.119 . S
C605 C184 1.120 . S
C611 C40 1.122 . S
C625 C76 1.140 . S
C631 C220 1.140 . S
C645 C112 1.119 . S
C651 C256 1.121 . S
C665 C292 1.121 . S
C671 C436 1.119 . S
C685 C472 1.137 . S
C691 C328 1.139 . S
C705 C364 1.137 . S
C711 C508 1.139 . S
C725 C400 1.137 . S
C731 C544 1.139 . S
C745 C14 1.370 . S
C751 C543 1.403 . S
C765 C435 1.397 . S
C771 C50 1.382 . S
C785 C86 1.385 . S
C791 C471 1.394 . S
C805 C507 1.400 . S
C811 C122 1.378 . S
C825 C327 1.394 . S
C831 C158 1.384 . S
C845 C363 1.404 . S
C851 C194 1.366 . S
C865 C399 1.403 . S
C871 C230 1.365 . S
C885 C291 1.394 . S
C891 C266 1.384 . S
C905 C302 1.365 . S
C911 C255 1.404 . S
C925 C147 1.403 . S
C931 C338 1.370 . S
C945 C183 1.404 . S
C951 C374 1.366 . S
C965 C410 1.377 . S
C971 C219 1.396 . S
C985 C39 1.404 . S
C991 C446 1.368 . S
C1005 C482 1.376 . S
C1011 C75 1.401 . S
C1025 C518 1.365 . S
C1031 C111 1.403 . S
C1045 C554 1.385 . S
C1051 C3 1.396 . S
C1065 C254 1.084 . S
C1071 C2 1.065 . S
C1085 C38 1.069 . S
C1091 C146 1.064 . S
C1105 C74 1.078 . S
C1111 C182 1.062 . S
C1125 C110 1.079 . S
C1131 C218 1.062 . S
C1145 C542 1.089 . S
C1151 C290 1.074 . S
C1165 C434 1.086 . S
C1171 C326 1.083 . S
C1185 C470 1.087 . S
C1191 C362 1.082 . S
C1205 C506 1.062 . S
C1211 C398 1.075 . S
