# Generated by pormake.
# Topology sof, (5)-cn, num edge types: 1
# Building blocks:
#     Node 0, Type 0, BuildingBlock: XOMCOT_clean_sbu_1, # of connection points: 5
#     Node 1, Type 0, BuildingBlock: XOMCOT_clean_sbu_1, # of connection points: 5
#     Node 2, Type 0, BuildingBlock: XOMCOT_clean_sbu_1, # of connection points: 5
#     Node 3, Type 0, BuildingBlock: XOMCOT_clean_sbu_1, # of connection points: 5
#     Node 4, Type 0, BuildingBlock: XOMCOT_clean_sbu_1, # of connection points: 5
#     Node 5, Type 0, BuildingBlock: XOMCOT_clean_sbu_1, # of connection points: 5
#     Node 6, Type 0, BuildingBlock: XOMCOT_clean_sbu_1, # of connection points: 5
#     Node 7, Type 0, BuildingBlock: XOMCOT_clean_sbu_1, # of connection points: 5
#     Edge 8, Type (0, 0), BuildingBlock: MIFKUJ_clean_linker_0, # of connection points: 2
#     Edge 9, Type (0, 0), BuildingBlock: MIFKUJ_clean_linker_0, # of connection points: 2
#     Edge 10, Type (0, 0), BuildingBlock: MIFKUJ_clean_linker_0, # of connection points: 2
#     Edge 11, Type (0, 0), BuildingBlock: MIFKUJ_clean_linker_0, # of connection points: 2
#     Edge 12, Type (0, 0), BuildingBlock: MIFKUJ_clean_linker_0, # of connection points: 2
#     Edge 13, Type (0, 0), BuildingBlock: MIFKUJ_clean_linker_0, # of connection points: 2
#     Edge 14, Type (0, 0), BuildingBlock: MIFKUJ_clean_linker_0, # of connection points: 2
#     Edge 15, Type (0, 0), BuildingBlock: MIFKUJ_clean_linker_0, # of connection points: 2
#     Edge 16, Type (0, 0), BuildingBlock: MIFKUJ_clean_linker_0, # of connection points: 2
#     Edge 17, Type (0, 0), BuildingBlock: MIFKUJ_clean_linker_0, # of connection points: 2
#     Edge 18, Type (0, 0), BuildingBlock: MIFKUJ_clean_linker_0, # of connection points: 2
#     Edge 19, Type (0, 0), BuildingBlock: MIFKUJ_clean_linker_0, # of connection points: 2
#     Edge 20, Type (0, 0), BuildingBlock: MIFKUJ_clean_linker_0, # of connection points: 2
#     Edge 21, Type (0, 0), BuildingBlock: MIFKUJ_clean_linker_0, # of connection points: 2
#     Edge 22, Type (0, 0), BuildingBlock: MIFKUJ_clean_linker_0, # of connection points: 2
#     Edge 23, Type (0, 0), BuildingBlock: MIFKUJ_clean_linker_0, # of connection points: 2
#     Edge 24, Type (0, 0), BuildingBlock: MIFKUJ_clean_linker_0, # of connection points: 2
#     Edge 25, Type (0, 0), BuildingBlock: MIFKUJ_clean_linker_0, # of connection points: 2
#     Edge 26, Type (0, 0), BuildingBlock: MIFKUJ_clean_linker_0, # of connection points: 2
#     Edge 27, Type (0, 0), BuildingBlock: MIFKUJ_clean_linker_0, # of connection points: 2
# Relax obj value: 0.147
# Max RMSD: 0.157
# Mean RMSD: 0.157
data_MOF--net-sof--node1-XOMCOT_clean_sbu_1--edge1-MIFKUJ_clean_linker_0
_symmetry_space_group_name_H-M    P1
_symmetry_Int_Tables_number       1
_symmetry_cell_setting            triclinic
loop_
_symmetry_equiv_pos_as_xyz
'x, y, z'
_cell_length_a     72.054441
_cell_length_b     21.990651
_cell_length_c     63.392603
_cell_angle_alpha  90.027093
_cell_angle_beta   89.995408
_cell_angle_gamma 90.00164
loop_
_atom_site_label
_atom_site_type_symbol
_atom_site_fract_x
_atom_site_fract_y
_atom_site_fract_z
_atom_type_partial_charge
C0 C 0.1066 0.1314 0.08947 0.0
C1 C 0.10869 0.19312 0.08685 0.0
N2 N 0.0987 0.22167 0.10188 0.0
N3 N 0.09542 0.12104 0.10609 0.0
C4 C 0.09075 0.17677 0.11328 0.0
H5 H 0.11278 0.09619 0.07984 0.0
Co6 Co 0.08846 0.04474 0.11555 0.0
C7 C 0.08041 0.0599 0.16094 0.0
O8 O 0.08898 0.00792 0.16412 0.0
N9 N 0.08085 0.96654 0.12453 0.0
C10 C 0.06132 0.89344 0.13436 0.0
C11 C 0.06367 0.95494 0.13202 0.0
C12 C 0.08858 0.91079 0.12226 0.0
N13 N 0.07702 0.86532 0.12815 0.0
O14 O 0.06501 0.05374 0.10145 0.0
H15 H 0.05318 0.98916 0.13487 0.0
H16 H 0.10217 0.90319 0.11579 0.0
O17 O 0.07878 0.08036 0.14209 0.0
C18 C 0.06683 0.02759 0.08358 0.0
O19 O 0.08298 0.00302 0.07907 0.0
N20 N 0.11249 0.03517 0.12677 0.0
C21 C 0.15064 0.02577 0.13429 0.0
C22 C 0.13953 0.06424 0.14666 0.0
C23 C 0.12053 0.06947 0.1423 0.0
C24 C 0.1233 0.99997 0.11408 0.0
C25 C 0.1422 0.9932 0.11788 0.0
H26 H 0.11267 0.10357 0.15066 0.0
H27 H 0.11732 0.97893 0.10025 0.0
H28 H 0.08183 0.18434 0.12674 0.0
H29 H 0.1167 0.2151 0.0746 0.0
H30 H 0.04864 0.87149 0.13937 0.0
H31 H 0.1456 0.09237 0.15887 0.0
H32 H 0.1502 0.96371 0.10765 0.0
C33 C 0.38439 0.83997 0.09652 0.0
C34 C 0.38268 0.77791 0.09476 0.0
N35 N 0.39737 0.75171 0.1043 0.0
N36 N 0.4 0.85306 0.1073 0.0
C37 C 0.40766 0.79848 0.11173 0.0
H38 H 0.37492 0.8734 0.09016 0.0
Co39 Co 0.40931 0.9302 0.1133 0.0
C40 C 0.4203 0.92429 0.15838 0.0
O41 O 0.41428 0.98023 0.16093 0.0
N42 N 0.41935 0.0082 0.11883 0.0
C43 C 0.44097 0.07804 0.12577 0.0
C44 C 0.43718 0.01692 0.12478 0.0
C45 C 0.41276 0.06527 0.11583 0.0
N46 N 0.42558 0.10843 0.12008 0.0
O47 O 0.43178 0.91076 0.09869 0.0
H48 H 0.44699 0.98081 0.12792 0.0
H49 H 0.39896 0.07581 0.11043 0.0
O50 O 0.41926 0.89918 0.14018 0.0
C51 C 0.42947 0.91536 0.07882 0.0
O52 O 0.41265 0.92577 0.07166 0.0
N53 N 0.38631 0.95027 0.12555 0.0
C54 C 0.3487 0.96933 0.13437 0.0
C55 C 0.35966 0.93285 0.14761 0.0
C56 C 0.37838 0.92297 0.14272 0.0
C57 C 0.37573 0.9848 0.1124 0.0
C58 C 0.35713 0.99634 0.11678 0.0
H59 H 0.38596 0.89003 0.15192 0.0
H60 H 0.38151 1.00062 0.09765 0.0
H61 H 0.42082 0.7934 0.11974 0.0
H62 H 0.37139 0.75416 0.08708 0.0
H63 H 0.45419 0.09842 0.12973 0.0
H64 H 0.35358 0.90906 0.16088 0.0
H65 H 0.34927 0.02437 0.10595 0.0
C66 C 0.11287 0.37517 0.41057 0.0
C67 C 0.11495 0.31341 0.41318 0.0
N68 N 0.10262 0.28494 0.40059 0.0
N69 N 0.09941 0.38559 0.39629 0.0
C70 C 0.0933 0.32985 0.39063 0.0
H71 H 0.12078 0.41036 0.41841 0.0
Co72 Co 0.09199 0.4618 0.38696 0.0
C73 C 0.08319 0.44339 0.34195 0.0
O74 O 0.09212 0.49437 0.33816 0.0
N75 N 0.08388 0.53988 0.37815 0.0
C76 C 0.06458 0.61195 0.36673 0.0
C77 C 0.06734 0.5505 0.3688 0.0
C78 C 0.09049 0.59627 0.38242 0.0
N79 N 0.07917 0.64097 0.37538 0.0
O80 O 0.06914 0.45311 0.40215 0.0
H81 H 0.05752 0.51563 0.3643 0.0
H82 H 0.10269 0.60499 0.39172 0.0
O83 O 0.08139 0.42483 0.36102 0.0
C84 C 0.07176 0.47698 0.42026 0.0
O85 O 0.08825 0.49973 0.42437 0.0
N86 N 0.11557 0.47113 0.37421 0.0
C87 C 0.15252 0.48331 0.3615 0.0
C88 C 0.14111 0.43876 0.35245 0.0
C89 C 0.12277 0.43251 0.35936 0.0
C90 C 0.12699 0.5111 0.38426 0.0
C91 C 0.14529 0.51935 0.37775 0.0
H92 H 0.11471 0.395 0.35333 0.0
H93 H 0.12227 0.53411 0.39828 0.0
H94 H 0.08248 0.32226 0.3791 0.0
H95 H 0.12469 0.2913 0.42367 0.0
H96 H 0.05255 0.63327 0.35972 0.0
H97 H 0.14639 0.40824 0.34046 0.0
H98 H 0.154 0.55152 0.38611 0.0
C99 C 0.3986 0.62158 0.41529 0.0
C100 C 0.39662 0.68338 0.41784 0.0
N101 N 0.39977 0.71016 0.3991 0.0
N102 N 0.40325 0.60956 0.39512 0.0
C103 C 0.40366 0.66457 0.38555 0.0
H104 H 0.39733 0.58764 0.42754 0.0
Co105 Co 0.40979 0.53246 0.38551 0.0
C106 C 0.42249 0.54929 0.34146 0.0
O107 O 0.4146 0.49713 0.33675 0.0
N108 N 0.41692 0.45328 0.37655 0.0
C109 C 0.43634 0.37739 0.36892 0.0
C110 C 0.43459 0.43918 0.37123 0.0
C111 C 0.40821 0.39859 0.37742 0.0
N112 N 0.41974 0.35194 0.37283 0.0
O113 O 0.43232 0.53742 0.40175 0.0
H114 H 0.44577 0.4718 0.36995 0.0
H115 H 0.39413 0.39195 0.38268 0.0
O116 O 0.4219 0.56878 0.36051 0.0
C117 C 0.4306 0.5066 0.4187 0.0
O118 O 0.41496 0.47711 0.42184 0.0
N119 N 0.3867 0.52715 0.37183 0.0
C120 C 0.34958 0.52112 0.3593 0.0
C121 C 0.36219 0.55837 0.34848 0.0
C122 C 0.38066 0.56153 0.3552 0.0
C123 C 0.37436 0.4934 0.38312 0.0
C124 C 0.35588 0.4885 0.37687 0.0
H125 H 0.38968 0.59381 0.34757 0.0
H126 H 0.37879 0.47163 0.39755 0.0
H127 H 0.40747 0.67163 0.36924 0.0
H128 H 0.39343 0.70699 0.43239 0.0
H129 H 0.44897 0.35284 0.36531 0.0
H130 H 0.35775 0.58579 0.33522 0.0
H131 H 0.34644 0.46149 0.38629 0.0
C132 C 0.88866 0.86771 0.91673 0.0
C133 C 0.88673 0.80601 0.91965 0.0
N134 N 0.89656 0.77715 0.90455 0.0
N135 N 0.89958 0.87776 0.89986 0.0
C136 C 0.90426 0.82182 0.89282 0.0
H137 H 0.88246 0.90313 0.92625 0.0
Co138 Co 0.90587 0.95403 0.8896 0.0
C139 C 0.91394 0.93509 0.84442 0.0
O140 O 0.90503 0.98615 0.8407 0.0
N141 N 0.91277 0.03235 0.8798 0.0
C142 C 0.93163 0.10625 0.86898 0.0
C143 C 0.92976 0.04474 0.87189 0.0
C144 C 0.9047 0.08772 0.88181 0.0
N145 N 0.91585 0.13362 0.87529 0.0
O146 O 0.92936 0.94851 0.90378 0.0
H147 H 0.94046 0.01116 0.86916 0.0
H148 H 0.89118 0.09486 0.88858 0.0
O149 O 0.91591 0.91678 0.86348 0.0
C150 C 0.92744 0.97605 0.92138 0.0
O151 O 0.91117 1.00012 0.92569 0.0
N152 N 0.88177 0.96015 0.87822 0.0
C153 C 0.84365 0.96434 0.87016 0.0
C154 C 0.85526 0.926 0.8584 0.0
C155 C 0.87422 0.92321 0.8631 0.0
C156 C 0.87049 0.99551 0.89033 0.0
C157 C 0.85152 0.99941 0.8863 0.0
H158 H 0.88244 0.88883 0.85537 0.0
H159 H 0.8761 0.01866 0.90394 0.0
H160 H 0.91288 0.81386 0.87915 0.0
H161 H 0.87886 0.78425 0.93206 0.0
H162 H 0.94408 0.12892 0.86362 0.0
H163 H 0.84959 0.896 0.84647 0.0
H164 H 0.84302 0.02853 0.89613 0.0
C165 C 0.60966 0.16804 0.91342 0.0
C166 C 0.61203 0.22998 0.91441 0.0
N167 N 0.59954 0.25659 0.90149 0.0
N168 N 0.59575 0.15535 0.89996 0.0
C169 C 0.58983 0.20998 0.89298 0.0
H170 H 0.61739 0.13436 0.92221 0.0
Co171 Co 0.58668 0.07835 0.89383 0.0
C172 C 0.57677 0.08311 0.8486 0.0
O173 O 0.58343 0.02782 0.84641 0.0
N174 N 0.57691 1.00022 0.88809 0.0
C175 C 0.55556 0.92958 0.88121 0.0
C176 C 0.55897 0.99082 0.88275 0.0
C177 C 0.58402 0.94344 0.88986 0.0
N178 N 0.57136 0.8997 0.8857 0.0
O179 O 0.564 0.09745 0.9081 0.0
H180 H 0.54886 0.02648 0.88035 0.0
H181 H 0.59815 0.93361 0.89416 0.0
O182 O 0.57692 0.10843 0.86679 0.0
C183 C 0.56603 0.09093 0.92795 0.0
O184 O 0.58266 0.07824 0.93524 0.0
N185 N 0.60991 0.05909 0.88202 0.0
C186 C 0.64722 0.03623 0.87276 0.0
C187 C 0.63654 0.0743 0.85976 0.0
C188 C 0.61799 0.0862 0.86491 0.0
C189 C 0.62037 0.02465 0.8953 0.0
C190 C 0.63878 0.01102 0.89068 0.0
H191 H 0.6106 0.11975 0.85577 0.0
H192 H 0.61446 0.00889 0.91 0.0
H193 H 0.57852 0.21518 0.88194 0.0
H194 H 0.62195 0.25322 0.92434 0.0
H195 H 0.54231 0.90887 0.87759 0.0
H196 H 0.64267 0.09707 0.84632 0.0
H197 H 0.64641 0.98188 0.90136 0.0
C198 C 0.89806 0.62965 0.5844 0.0
C199 C 0.89642 0.69125 0.58117 0.0
N200 N 0.90094 0.71959 0.59924 0.0
N201 N 0.90389 0.61938 0.6043 0.0
C202 C 0.90539 0.67529 0.61306 0.0
H203 H 0.89567 0.59453 0.57277 0.0
Co204 Co 0.9102 0.54255 0.61418 0.0
C205 C 0.91761 0.55644 0.65973 0.0
O206 O 0.90913 0.50404 0.6623 0.0
N207 N 0.91717 0.4636 0.62336 0.0
C208 C 0.93662 0.38904 0.63233 0.0
C209 C 0.9344 0.45084 0.63062 0.0
C210 C 0.90918 0.4082 0.62083 0.0
N211 N 0.92073 0.36245 0.62621 0.0
O212 O 0.934 0.55006 0.60061 0.0
H213 H 0.94505 0.48447 0.63354 0.0
H214 H 0.89575 0.4005 0.61383 0.0
O215 O 0.91955 0.57796 0.64104 0.0
C216 C 0.93267 0.52209 0.583 0.0
O217 O 0.91682 0.49536 0.57854 0.0
N218 N 0.88597 0.53445 0.62479 0.0
C219 C 0.84785 0.52456 0.63214 0.0
C220 C 0.8589 0.56239 0.64479 0.0
C221 C 0.87789 0.568 0.64049 0.0
C222 C 0.87521 0.49998 0.6118 0.0
C223 C 0.85627 0.49318 0.61545 0.0
H224 H 0.88572 0.60147 0.64917 0.0
H225 H 0.88131 0.4791 0.59801 0.0
H226 H 0.91035 0.68378 0.6289 0.0
H227 H 0.89251 0.71367 0.56663 0.0
H228 H 0.94913 0.36532 0.63699 0.0
H229 H 0.85279 0.5896 0.65722 0.0
H230 H 0.84825 0.46439 0.605 0.0
C231 C 0.60552 0.38955 0.5937 0.0
C232 C 0.60763 0.32774 0.59135 0.0
N233 N 0.59637 0.29975 0.60528 0.0
N234 N 0.59313 0.40043 0.60917 0.0
C235 C 0.58765 0.34488 0.61579 0.0
H236 H 0.61271 0.42447 0.58491 0.0
Co237 Co 0.58653 0.47703 0.61879 0.0
C238 C 0.58077 0.46222 0.66447 0.0
O239 O 0.59019 0.51292 0.66698 0.0
N240 N 0.57921 0.55544 0.62801 0.0
C241 C 0.56057 0.62795 0.64041 0.0
C242 C 0.56301 0.56648 0.63806 0.0
C243 C 0.586 0.61157 0.62379 0.0
N244 N 0.57503 0.6565 0.63133 0.0
O245 O 0.56267 0.46808 0.60569 0.0
H246 H 0.55323 0.53186 0.64287 0.0
H247 H 0.59807 0.62002 0.61424 0.0
O248 O 0.57773 0.44187 0.64582 0.0
C249 C 0.56383 0.49512 0.58792 0.0
O250 O 0.5797 0.52083 0.58291 0.0
N251 N 0.61095 0.48628 0.62916 0.0
C252 C 0.64929 0.4926 0.63591 0.0
C253 C 0.63826 0.45214 0.64754 0.0
C254 C 0.61921 0.44852 0.64354 0.0
C255 C 0.62166 0.52367 0.61711 0.0
C256 C 0.64069 0.52889 0.6206 0.0
H257 H 0.61143 0.41278 0.65113 0.0
H258 H 0.61567 0.54651 0.60369 0.0
H259 H 0.57777 0.33756 0.62839 0.0
H260 H 0.61666 0.30517 0.58017 0.0
H261 H 0.54882 0.64965 0.6479 0.0
H262 H 0.64444 0.42102 0.65876 0.0
H263 H 0.64866 0.55963 0.61081 0.0
H264 H 0.17012 0.0221 0.17162 0.0
H265 H 0.20382 0.01177 0.17617 0.0
H266 H 0.21086 0.01086 0.10861 0.0
H267 H 0.17751 0.02244 0.10394 0.0
H268 H 0.22913 0.91644 0.12804 0.0
H269 H 0.22172 0.13423 0.13665 0.0
H270 H 0.2091 0.22656 0.15345 0.0
H271 H 0.23246 0.17233 0.21285 0.0
H272 H 0.24501 0.07919 0.19644 0.0
H273 H 0.32164 0.96835 0.1042 0.0
H274 H 0.28831 0.97691 0.10893 0.0
H275 H 0.29563 0.98695 0.17637 0.0
H276 H 0.32942 0.98135 0.17169 0.0
H277 H 0.26986 0.06779 0.1631 0.0
H278 H 0.28041 0.85587 0.15364 0.0
H279 H 0.29324 0.76384 0.13686 0.0
H280 H 0.26382 0.80497 0.07972 0.0
H281 H 0.25102 0.89775 0.09604 0.0
C282 C 0.17889 0.0204 0.15776 0.0
C283 C 0.17108 0.02225 0.13741 0.0
C284 C 0.19811 0.01435 0.16039 0.0
C285 C 0.20981 0.01024 0.14271 0.0
C286 C 0.20207 0.01327 0.12246 0.0
C287 C 0.18296 0.01956 0.11982 0.0
C288 C 0.2301 1.00123 0.14498 0.0
C289 C 0.23806 0.94965 0.13562 0.0
C290 C 0.24164 0.04347 0.15555 0.0
C291 C 0.23409 0.09939 0.16539 0.0
C292 C 0.22401 0.14171 0.15334 0.0
C293 C 0.2169 0.19425 0.16278 0.0
C294 C 0.21992 0.2052 0.18422 0.0
C295 C 0.2301 0.16372 0.19625 0.0
C296 C 0.23722 0.11107 0.18689 0.0
C297 C 0.31629 0.97342 0.12007 0.0
C298 C 0.32829 0.97463 0.13757 0.0
C299 C 0.29715 0.97744 0.12276 0.0
C300 C 0.28943 0.98153 0.14302 0.0
C301 C 0.30129 0.98345 0.16059 0.0
C302 C 0.32057 0.97979 0.1579 0.0
C303 C 0.26895 0.98393 0.14552 0.0
C304 C 0.26093 0.03402 0.15583 0.0
C305 C 0.25729 0.94013 0.13589 0.0
C306 C 0.26483 0.884 0.12605 0.0
C307 C 0.27676 0.8455 0.13745 0.0
C308 C 0.28402 0.79317 0.12803 0.0
C309 C 0.27937 0.77861 0.10723 0.0
C310 C 0.26741 0.8163 0.09583 0.0
C311 C 0.26013 0.86872 0.10518 0.0
H312 H 0.28501 0.73809 0.09996 0.0
H313 H 0.21441 0.24592 0.1915 0.0
H314 H 0.32707 0.42159 0.35652 0.0
H315 H 0.29348 0.41989 0.35108 0.0
H316 H 0.29338 0.61491 0.34376 0.0
H317 H 0.32699 0.617 0.34952 0.0
H318 H 0.26794 0.57615 0.37255 0.0
H319 H 0.28493 0.52531 0.3018 0.0
H320 H 0.30133 0.46839 0.27394 0.0
H321 H 0.27455 0.30345 0.29361 0.0
H322 H 0.25818 0.35922 0.3218 0.0
H323 H 0.17179 0.58749 0.35341 0.0
H324 H 0.20516 0.59796 0.34724 0.0
H325 H 0.21137 0.40301 0.35053 0.0
H326 H 0.17795 0.39231 0.35628 0.0
H327 H 0.23375 0.4485 0.32099 0.0
H328 H 0.21974 0.49413 0.39352 0.0
H329 H 0.20372 0.54743 0.42251 0.0
H330 H 0.22554 0.71803 0.40082 0.0
H331 H 0.24148 0.66578 0.3715 0.0
C332 C 0.3199 0.46403 0.35355 0.0
C333 C 0.32964 0.51944 0.3535 0.0
C334 C 0.30074 0.46296 0.35028 0.0
C335 C 0.29095 0.51725 0.34689 0.0
C336 C 0.3007 0.57249 0.34626 0.0
C337 C 0.3199 0.57357 0.34941 0.0
C338 C 0.2704 0.51662 0.34571 0.0
C339 C 0.26044 0.54928 0.36099 0.0
C340 C 0.26067 0.48008 0.33102 0.0
C341 C 0.27043 0.44641 0.31402 0.0
C342 C 0.28264 0.47682 0.30029 0.0
C343 C 0.29191 0.44477 0.28442 0.0
C344 C 0.28901 0.38232 0.28204 0.0
C345 C 0.27679 0.35182 0.29549 0.0
C346 C 0.2675 0.38365 0.3114 0.0
C347 C 0.18027 0.54689 0.3526 0.0
C348 C 0.17232 0.48913 0.35548 0.0
C349 C 0.19932 0.55289 0.3491 0.0
C350 C 0.21082 0.50133 0.34881 0.0
C351 C 0.20277 0.44343 0.3507 0.0
C352 C 0.18368 0.43735 0.35397 0.0
C353 C 0.23132 0.50784 0.3479 0.0
C354 C 0.24125 0.47607 0.33234 0.0
C355 C 0.24109 0.5447 0.36248 0.0
C356 C 0.23163 0.57614 0.38019 0.0
C357 C 0.22101 0.54306 0.39485 0.0
C358 C 0.21196 0.57307 0.41135 0.0
C359 C 0.21357 0.6361 0.41347 0.0
C360 C 0.22428 0.66922 0.39913 0.0
C361 C 0.23333 0.63944 0.38257 0.0
H362 H 0.20655 0.65926 0.42626 0.0
H363 H 0.2962 0.35759 0.26974 0.0
H364 H 0.82467 0.96842 0.83265 0.0
H365 H 0.79088 0.97205 0.82762 0.0
H366 H 0.78305 0.96464 0.89504 0.0
H367 H 0.81657 0.95993 0.90012 0.0
H368 H 0.75896 0.89027 0.87453 0.0
H369 H 0.78084 0.09831 0.86894 0.0
H370 H 0.79968 0.18089 0.85365 0.0
H371 H 0.77467 0.15024 0.79309 0.0
H372 H 0.75584 0.06686 0.80798 0.0
H373 H 0.67536 0.02888 0.90161 0.0
H374 H 0.70797 0.00716 0.89525 0.0
H375 H 0.69788 1.0015 0.82825 0.0
H376 H 0.66477 0.02104 0.83449 0.0
H377 H 0.73014 0.07162 0.8414 0.0
H378 H 0.70445 0.87362 0.8491 0.0
H379 H 0.68509 0.79411 0.86543 0.0
H380 H 0.71693 0.80686 0.9225 0.0
H381 H 0.73632 0.88719 0.90664 0.0
C382 C 0.81569 0.96706 0.84635 0.0
C383 C 0.82326 0.96464 0.86679 0.0
C384 C 0.79643 0.96941 0.84347 0.0
C385 C 0.78447 0.96911 0.86097 0.0
C386 C 0.79202 0.96501 0.88131 0.0
C387 C 0.81119 0.96296 0.8842 0.0
C388 C 0.76408 0.97487 0.85843 0.0
C389 C 0.75266 0.9299 0.86728 0.0
C390 C 0.75585 0.02575 0.84844 0.0
C391 C 0.76713 0.07587 0.8395 0.0
C392 C 0.77948 0.10884 0.85232 0.0
C393 C 0.79013 0.15585 0.84374 0.0
C394 C 0.78842 0.17066 0.82239 0.0
C395 C 0.77601 0.13861 0.8096 0.0
C396 C 0.76535 0.09149 0.81811 0.0
C397 C 0.6799 0.02204 0.8855 0.0
C398 C 0.6673 0.02566 0.86858 0.0
C399 C 0.69861 0.01006 0.8819 0.0
C400 C 0.70525 0.00199 0.86132 0.0
C401 C 0.69296 0.0074 0.84427 0.0
C402 C 0.67408 0.0188 0.84787 0.0
C403 C 0.72513 0.98788 0.85802 0.0
C404 C 0.73643 0.03125 0.84815 0.0
C405 C 0.73327 0.93558 0.86711 0.0
C406 C 0.72178 0.88675 0.8767 0.0
C407 C 0.70725 0.85981 0.86519 0.0
C408 C 0.69628 0.81453 0.87435 0.0
C409 C 0.69976 0.79551 0.895 0.0
C410 C 0.71425 0.82164 0.9065 0.0
C411 C 0.72526 0.867 0.89742 0.0
H412 H 0.69124 0.76047 0.90206 0.0
H413 H 0.79668 0.20709 0.81578 0.0
H414 H 0.67536 0.49904 0.60471 0.0
H415 H 0.70897 0.49989 0.60833 0.0
H416 H 0.70365 0.48495 0.6759 0.0
H417 H 0.66972 0.48642 0.67246 0.0
H418 H 0.72989 0.56771 0.66508 0.0
H419 H 0.71635 0.36217 0.64726 0.0
H420 H 0.70202 0.27834 0.62721 0.0
H421 H 0.73081 0.33513 0.57129 0.0
H422 H 0.74512 0.41988 0.59091 0.0
H423 H 0.82876 0.51355 0.66943 0.0
H424 H 0.79508 0.50354 0.67414 0.0
H425 H 0.78745 0.51693 0.6068 0.0
H426 H 0.82086 0.52701 0.60202 0.0
H427 H 0.76787 0.42413 0.62286 0.0
H428 H 0.77826 0.63653 0.64009 0.0
H429 H 0.7924 0.72068 0.66018 0.0
H430 H 0.76956 0.64928 0.71763 0.0
H431 H 0.75547 0.56423 0.69789 0.0
C432 C 0.68126 0.4968 0.6204 0.0
C433 C 0.66982 0.49308 0.63832 0.0
C434 C 0.70052 0.49647 0.62242 0.0
C435 C 0.70883 0.49158 0.64236 0.0
C436 C 0.69751 0.48843 0.66035 0.0
C437 C 0.67815 0.48888 0.65835 0.0
C438 C 0.72936 0.49048 0.64416 0.0
C439 C 0.73822 0.53555 0.65619 0.0
C440 C 0.74021 0.44885 0.63241 0.0
C441 C 0.73173 0.39765 0.62055 0.0
C442 C 0.71954 0.35704 0.63065 0.0
C443 C 0.71143 0.30932 0.61936 0.0
C444 C 0.71548 0.30147 0.59798 0.0
C445 C 0.72768 0.34127 0.58785 0.0
C446 C 0.73582 0.38911 0.59906 0.0
C447 C 0.81985 0.51484 0.65568 0.0
C448 C 0.82747 0.52052 0.63534 0.0
C449 C 0.80064 0.50905 0.65838 0.0
C450 C 0.78875 0.5095 0.64081 0.0
C451 C 0.79636 0.5159 0.62057 0.0
C452 C 0.81548 0.52148 0.61785 0.0
C453 C 0.76838 0.50261 0.64318 0.0
C454 C 0.75955 0.45575 0.63198 0.0
C455 C 0.7576 0.54247 0.65573 0.0
C456 C 0.76601 0.59367 0.66756 0.0
C457 C 0.77638 0.63852 0.65703 0.0
C458 C 0.78436 0.68642 0.66835 0.0
C459 C 0.78193 0.69022 0.69018 0.0
C460 C 0.77146 0.64622 0.70073 0.0
C461 C 0.76347 0.59818 0.68948 0.0
H462 H 0.78812 0.72734 0.69891 0.0
H463 H 0.70918 0.26449 0.58927 0.0
H464 H 0.06635 0.9573 0.0485 0.0
H465 H 0.0426 0.95055 0.02148 0.0
H466 H 0.00893 0.0799 0.05543 0.0
H467 H 0.03284 0.08623 0.08314 0.0
H468 H 0.98826 0.98614 0.0399 0.0
H469 H 0.03343 0.12362 0.01187 0.0
H470 H 0.06482 0.15821 0.0021 0.0
H471 H 0.07038 0.00744 0.9595 0.0
H472 H 0.0391 0.97144 0.96924 0.0
H473 H 0.92762 0.04825 0.95603 0.0
H474 H 0.95127 0.05688 0.98314 0.0
H475 H 0.98539 0.92703 0.95001 0.0
H476 H 0.9616 0.91873 0.92225 0.0
H477 H 0.00574 0.02224 0.96519 0.0
H478 H 0.96063 0.88443 0.99347 0.0
H479 H 0.92921 0.85004 0.00324 0.0
H480 H 0.92354 0.00185 0.04537 0.0
H481 H 0.95483 0.03766 0.03562 0.0
C482 C 0.05393 0.98454 0.05035 0.0
C483 C 0.05159 0.02289 0.06793 0.0
C484 C 0.04036 0.98069 0.03476 0.0
C485 C 0.02415 0.01567 0.03613 0.0
C486 C 0.02143 0.05283 0.05396 0.0
C487 C 0.03507 0.05647 0.06977 0.0
C488 C 0.01022 0.01279 0.01882 0.0
C489 C 0.992 0.99504 0.02361 0.0
C490 C 0.01521 0.02272 0.99746 0.0
C491 C 0.03397 0.04457 0.99142 0.0
C492 C 0.04139 0.09761 1.00052 0.0
C493 C 0.05916 0.11751 0.99498 0.0
C494 C 0.0696 0.08498 0.98022 0.0
C495 C 0.06228 0.03257 0.97094 0.0
C496 C 0.04452 0.01244 0.97645 0.0
C497 C 0.94013 0.02135 0.95438 0.0
C498 C 0.94263 0.98224 0.93702 0.0
C499 C 0.95364 0.02627 0.97001 0.0
C500 C 0.96994 0.99169 0.9689 0.0
C501 C 0.97283 0.95384 0.95128 0.0
C502 C 0.95926 0.94908 0.93544 0.0
C503 C 0.9838 0.99547 0.98626 0.0
C504 C 0.002 0.0134 0.98148 0.0
C505 C 0.97878 0.98575 0.00763 0.0
C506 C 0.96002 0.964 0.01368 0.0
C507 C 0.95263 0.91071 0.00471 0.0
C508 C 0.93485 0.89093 0.01026 0.0
C509 C 0.92437 0.92381 0.02489 0.0
C510 C 0.93167 0.97646 0.03404 0.0
C511 C 0.94943 0.99648 0.02852 0.0
H512 H 0.91061 0.90843 0.02916 0.0
H513 H 0.08336 0.10044 0.97595 0.0
H514 H 0.4655 0.94724 0.08745 0.0
H515 H 0.48932 0.97552 0.06155 0.0
H516 H 0.45249 0.92426 0.01093 0.0
H517 H 0.4288 0.89577 0.03661 0.0
H518 H 0.48873 0.8951 0.00193 0.0
H519 H 0.45363 0.06747 0.02659 0.0
H520 H 0.44072 0.13402 0.05427 0.0
H521 H 0.49579 0.17946 0.07477 0.0
H522 H 0.50903 0.11221 0.04745 0.0
H523 H 0.52992 0.06091 0.91892 0.0
H524 H 0.50579 0.0336 0.94459 0.0
H525 H 0.54244 0.08316 0.99557 0.0
H526 H 0.56645 0.11055 0.97012 0.0
H527 H 0.5061 0.11352 0.00424 0.0
H528 H 0.54114 0.94045 0.97975 0.0
H529 H 0.55402 0.87372 0.95211 0.0
H530 H 0.49894 0.82961 0.93129 0.0
H531 H 0.48573 0.89705 0.95858 0.0
C532 C 0.46272 0.94037 0.07083 0.0
C533 C 0.44526 0.9198 0.06403 0.0
C534 C 0.47626 0.95695 0.05604 0.0
C535 C 0.47253 0.95298 0.0343 0.0
C536 C 0.45564 0.92796 0.02759 0.0
C537 C 0.4421 0.91185 0.04231 0.0
C538 C 0.48535 0.97991 0.01851 0.0
C539 C 0.4924 0.94293 0.00233 0.0
C540 C 0.49022 0.04231 0.01911 0.0
C541 C 0.48232 0.08433 0.03511 0.0
C542 C 0.46299 0.09141 0.03707 0.0
C543 C 0.45561 0.12923 0.0527 0.0
C544 C 0.46743 0.16081 0.06632 0.0
C545 C 0.48665 0.15487 0.06424 0.0
C546 C 0.49411 0.11692 0.04868 0.0
C547 C 0.53259 0.06766 0.93557 0.0
C548 C 0.55009 0.08737 0.94255 0.0
C549 C 0.51887 0.05165 0.95022 0.0
C550 C 0.52246 0.05542 0.97201 0.0
C551 C 0.53939 0.07967 0.97888 0.0
C552 C 0.55311 0.09514 0.9643 0.0
C553 C 0.50948 0.0287 0.98767 0.0
C554 C 0.50241 0.06571 0.00383 0.0
C555 C 0.50457 0.96633 0.98706 0.0
C556 C 0.51245 0.92429 0.97106 0.0
C557 C 0.53178 0.91678 0.9692 0.0
C558 C 0.53914 0.87885 0.9536 0.0
C559 C 0.52731 0.84759 0.93991 0.0
C560 C 0.50809 0.85396 0.94187 0.0
C561 C 0.50065 0.89203 0.95741 0.0
H562 H 0.53304 0.81835 0.9278 0.0
H563 H 0.46168 0.18996 0.07844 0.0
H564 H 0.0742 0.53323 0.45825 0.0
H565 H 0.05086 0.54088 0.48572 0.0
H566 H 0.01258 0.43789 0.4475 0.0
H567 H 0.03607 0.43076 0.4194 0.0
H568 H 0.99578 0.53491 0.46596 0.0
H569 H 0.03465 0.37202 0.4894 0.0
H570 H 0.06418 0.32148 0.49825 0.0
H571 H 0.07486 0.45563 0.54596 0.0
H572 H 0.0455 0.50751 0.5372 0.0
H573 H 0.9322 0.46237 0.54561 0.0
H574 H 0.95619 0.45754 0.51885 0.0
H575 H 0.99194 0.56898 0.55734 0.0
H576 H 0.96769 0.57389 0.58474 0.0
H577 H 0.01025 0.46988 0.53911 0.0
H578 H 0.97079 0.63143 0.51591 0.0
H579 H 0.94098 0.68034 0.50713 0.0
H580 H 0.93121 0.54688 0.45893 0.0
H581 H 0.96084 0.49659 0.46763 0.0
C582 C 0.06086 0.51193 0.45557 0.0
C583 C 0.05707 0.48095 0.43661 0.0
C584 C 0.04752 0.51621 0.47142 0.0
C585 C 0.03007 0.48908 0.46889 0.0
C586 C 0.02602 0.45889 0.44985 0.0
C587 C 0.03944 0.45472 0.43383 0.0
C588 C 0.01613 0.49325 0.48617 0.0
C589 C -0.00116 0.51982 0.48187 0.0
C590 C 0.02032 0.47525 0.50711 0.0
C591 C 0.03794 0.44396 0.51251 0.0
C592 C 0.04336 0.39101 0.50167 0.0
C593 C 0.06006 0.36208 0.50669 0.0
C594 C 0.07141 0.38541 0.52262 0.0
C595 C 0.06606 0.43765 0.53361 0.0
C596 C 0.04938 0.4668 0.52864 0.0
C597 C 0.94513 0.48606 0.54855 0.0
C598 C 0.94795 0.51896 0.56735 0.0
C599 C 0.95883 0.48334 0.5331 0.0
C600 C 0.97574 0.51368 0.53589 0.0
C601 C 0.97891 0.54552 0.55482 0.0
C602 C 0.96507 0.54838 0.57043 0.0
C603 C 0.98992 0.51137 0.51887 0.0
C604 C 0.00723 0.48512 0.5232 0.0
C605 C 0.98574 0.5295 0.49794 0.0
C606 C 0.96798 0.55995 0.49254 0.0
C607 C 0.96222 0.61224 0.50354 0.0
C608 C 0.94537 0.64026 0.49856 0.0
C609 C 0.93419 0.61666 0.48252 0.0
C610 C 0.93987 0.56509 0.47137 0.0
C611 C 0.95671 0.53684 0.4763 0.0
H612 H 0.92115 0.63841 0.47869 0.0
H613 H 0.08433 0.36295 0.52648 0.0
H614 H 0.43262 0.42796 0.45155 0.0
H615 H 0.45485 0.42679 0.4804 0.0
H616 H 0.48373 0.57888 0.45269 0.0
H617 H 0.46148 0.57964 0.42325 0.0
H618 H 0.50775 0.49533 0.46777 0.0
H619 H 0.45426 0.59868 0.49473 0.0
H620 H 0.421 0.61244 0.50256 0.0
H621 H 0.42157 0.45234 0.54131 0.0
H622 H 0.45479 0.43712 0.53347 0.0
H623 H 0.55982 0.57649 0.55633 0.0
H624 H 0.53663 0.57787 0.52849 0.0
H625 H 0.50954 0.42258 0.55639 0.0
H626 H 0.53283 0.42161 0.58488 0.0
H627 H 0.48451 0.50658 0.54141 0.0
H628 H 0.53821 0.4039 0.51441 0.0
H629 H 0.57153 0.3913 0.50669 0.0
H630 H 0.57055 0.55152 0.46801 0.0
H631 H 0.53727 0.56557 0.47575 0.0
C632 C 0.44372 0.4612 0.45148 0.0
C633 C 0.44518 0.50432 0.43517 0.0
C634 C 0.45639 0.46059 0.46809 0.0
C635 C 0.47073 0.50359 0.46902 0.0
C636 C 0.47268 0.54552 0.45239 0.0
C637 C 0.45999 0.54591 0.43558 0.0
C638 C 0.48355 0.50443 0.48743 0.0
C639 C 0.50268 0.49872 0.48385 0.0
C640 C 0.47692 0.50718 0.50848 0.0
C641 C 0.45698 0.51647 0.51336 0.0
C642 C 0.44726 0.56616 0.5048 0.0
C643 C 0.42842 0.57426 0.50926 0.0
C644 C 0.41917 0.53321 0.52239 0.0
C645 C 0.42875 0.48406 0.53113 0.0
C646 C 0.44759 0.47572 0.5267 0.0
C647 C 0.54889 0.5427 0.55669 0.0
C648 C 0.54829 0.49838 0.57267 0.0
C649 C 0.53565 0.5435 0.54068 0.0
C650 C 0.52161 0.49944 0.54002 0.0
C651 C 0.52037 0.45673 0.5565 0.0
C652 C 0.53363 0.45622 0.57276 0.0
C653 C 0.50868 0.49762 0.52172 0.0
C654 C 0.48956 0.50312 0.52533 0.0
C655 C 0.5153 0.49477 0.50068 0.0
C656 C 0.53528 0.48603 0.4958 0.0
C657 C 0.54513 0.43666 0.50437 0.0
C658 C 0.564 0.42923 0.49997 0.0
C659 C 0.57316 0.47065 0.4869 0.0
C660 C 0.56344 0.51949 0.47815 0.0
C661 C 0.54457 0.52717 0.48251 0.0
H662 H 0.58778 0.46484 0.48352 0.0
H663 H 0.40458 0.53955 0.52582 0.0
H664 H 0.10234 0.43358 0.30554 0.0
H665 H 0.0961 0.36797 0.27556 0.0
H666 H 0.04754 0.29719 0.307 0.0
H667 H 0.05462 0.36076 0.33799 0.0
H668 H 0.06241 0.20981 0.28765 0.0
H669 H 0.04512 0.40421 0.26451 0.0
H670 H 0.04851 0.51508 0.26039 0.0
H671 H 0.096 0.48828 0.22056 0.0
H672 H 0.09314 0.37713 0.22476 0.0
H673 H 0.05711 0.15927 0.16291 0.0
H674 H 0.05058 0.22314 0.19386 0.0
H675 H 0.0881 0.11373 0.23098 0.0
H676 H 0.09369 0.04856 0.20081 0.0
H677 H 0.06916 0.2951 0.21559 0.0
H678 H 0.07975 0.1107 0.28151 0.0
H679 H 0.07233 0.00255 0.28732 0.0
H680 H 0.02865 0.01302 0.2414 0.0
H681 H 0.0356 0.12147 0.23553 0.0
C682 C 0.09025 0.40433 0.30606 0.0
C683 C 0.07876 0.40305 0.32396 0.0
C684 C 0.08661 0.36697 0.28879 0.0
C685 C 0.07095 0.32892 0.28854 0.0
C686 C 0.0596 0.32657 0.30663 0.0
C687 C 0.06358 0.36297 0.3243 0.0
C688 C 0.06695 0.29108 0.26946 0.0
C689 C 0.06373 0.22854 0.2719 0.0
C690 C 0.06779 0.31565 0.24878 0.0
C691 C 0.06899 0.38226 0.2451 0.0
C692 C 0.0563 0.42191 0.25489 0.0
C693 C 0.05816 0.4848 0.25258 0.0
C694 C 0.07255 0.50864 0.24037 0.0
C695 C 0.08492 0.46966 0.23011 0.0
C696 C 0.08317 0.40667 0.23242 0.0
C697 C 0.06368 0.14844 0.17781 0.0
C698 C 0.07571 0.09833 0.17945 0.0
C699 C 0.06001 0.18507 0.1955 0.0
C700 C 0.06849 0.17273 0.21507 0.0
C701 C 0.08075 0.12322 0.21645 0.0
C702 C 0.08407 0.08605 0.19902 0.0
C703 C 0.0656 0.21312 0.23379 0.0
C704 C 0.06748 0.27631 0.23129 0.0
C705 C 0.06267 0.18944 0.25436 0.0
C706 C 0.05829 0.12425 0.25799 0.0
C707 C 0.06848 0.09008 0.27274 0.0
C708 C 0.06438 0.02867 0.27602 0.0
C709 C 0.05006 1.0009 0.2647 0.0
C710 C 0.03978 0.03454 0.25011 0.0
C711 C 0.04381 0.09597 0.24678 0.0
H712 H 0.04691 0.95335 0.26725 0.0
H713 H 0.0741 0.55737 0.2389 0.0
H714 H 0.43341 0.66942 0.34333 0.0
H715 H 0.43846 0.7383 0.31347 0.0
H716 H 0.42965 0.58962 0.27021 0.0
H717 H 0.4249 0.52076 0.29975 0.0
H718 H 0.45646 0.66212 0.25588 0.0
H719 H 0.39453 0.68824 0.28462 0.0
H720 H 0.37199 0.712 0.31272 0.0
H721 H 0.39558 0.89027 0.31954 0.0
H722 H 0.41849 0.86713 0.29171 0.0
H723 H 0.42363 0.80033 0.16189 0.0
H724 H 0.42892 0.74151 0.19405 0.0
H725 H 0.43419 0.90781 0.22972 0.0
H726 H 0.42841 0.96675 0.19775 0.0
H727 H 0.41239 0.83448 0.24984 0.0
H728 H 0.4723 0.81301 0.21866 0.0
H729 H 0.49489 0.7899 0.19056 0.0
H730 H 0.47568 0.60516 0.18838 0.0
H731 H 0.4528 0.62735 0.21629 0.0
C732 C 0.43283 0.65123 0.32747 0.0
C733 C 0.42846 0.58969 0.32396 0.0
C734 C 0.43566 0.69072 0.3104 0.0
C735 C 0.43409 0.6694 0.28955 0.0
C736 C 0.43086 0.60729 0.28611 0.0
C737 C 0.42807 0.56794 0.30308 0.0
C738 C 0.43449 0.71169 0.27121 0.0
C739 C 0.44678 0.6997 0.25451 0.0
C740 C 0.42218 0.76169 0.2696 0.0
C741 C 0.40834 0.77572 0.28624 0.0
C742 C 0.395 0.73233 0.29222 0.0
C743 C 0.38215 0.7457 0.30809 0.0
C744 C 0.38236 0.80258 0.31791 0.0
C745 C 0.39545 0.8462 0.31193 0.0
C746 C 0.40837 0.83298 0.29611 0.0
C747 C 0.4262 0.8244 0.17652 0.0
C748 C 0.42559 0.88828 0.17724 0.0
C749 C 0.42928 0.79068 0.19493 0.0
C750 C 0.43213 0.82011 0.21439 0.0
C751 C 0.43199 0.88393 0.21498 0.0
C752 C 0.42875 0.91761 0.19664 0.0
C753 C 0.43419 0.78447 0.23427 0.0
C754 C 0.42231 0.79759 0.25127 0.0
C755 C 0.44692 0.73567 0.23617 0.0
C756 C 0.46074 0.722 0.21947 0.0
C757 C 0.47281 0.76756 0.2121 0.0
C758 C 0.48568 0.7546 0.19622 0.0
C759 C 0.48669 0.69613 0.18766 0.0
C760 C 0.47487 0.65044 0.19501 0.0
C761 C 0.46197 0.66316 0.21089 0.0
H762 H 0.49666 0.68619 0.17536 0.0
H763 H 0.37234 0.81292 0.33011 0.0
H764 H 0.89288 0.92286 0.80957 0.0
H765 H 0.8974 0.85534 0.77976 0.0
H766 H 0.94772 0.78667 0.80812 0.0
H767 H 0.94235 0.85223 0.83904 0.0
H768 H 0.92006 0.85289 0.75149 0.0
H769 H 0.95867 0.6444 0.78612 0.0
H770 H 0.96058 0.58331 0.81867 0.0
H771 H 0.90644 0.64492 0.83718 0.0
H772 H 0.90406 0.70564 0.80455 0.0
H773 H 0.93808 0.66251 0.66289 0.0
H774 H 0.94264 0.72534 0.69453 0.0
H775 H 0.90931 0.59953 0.73058 0.0
H776 H 0.90568 0.53582 0.69972 0.0
H777 H 0.93393 0.63263 0.7547 0.0
H778 H 0.89361 0.74168 0.70837 0.0
H779 H 0.88225 0.79852 0.67742 0.0
H780 H 0.92623 0.9285 0.68488 0.0
H781 H 0.9382 0.87146 0.71546 0.0
C782 C 0.90492 0.89337 0.80951 0.0
C783 C 0.91739 0.89332 0.82652 0.0
C784 C 0.90754 0.85466 0.79237 0.0
C785 C 0.92298 0.81568 0.7914 0.0
C786 C 0.93553 0.81543 0.80847 0.0
C787 C 0.93257 0.85322 0.82607 0.0
C788 C 0.92577 0.77733 0.77212 0.0
C789 C 0.92315 0.80466 0.75229 0.0
C790 C 0.92975 0.71424 0.77289 0.0
C791 C 0.93133 0.68031 0.79304 0.0
C792 C 0.9472 0.64513 0.79718 0.0
C793 C 0.94835 0.61045 0.8156 0.0
C794 C 0.93367 0.6104 0.82999 0.0
C795 C 0.91783 0.64524 0.82604 0.0
C796 C 0.91659 0.6799 0.8076 0.0
C797 C 0.93196 0.64806 0.67766 0.0
C798 C 0.92154 0.59405 0.67871 0.0
C799 C 0.93445 0.6842 0.69575 0.0
C800 C 0.92615 0.66785 0.71509 0.0
C801 C 0.91604 0.61334 0.71607 0.0
C802 C 0.9139 0.57685 0.69824 0.0
C803 C 0.92719 0.70769 0.73422 0.0
C804 C 0.93094 0.68092 0.75395 0.0
C805 C 0.92313 0.77066 0.73353 0.0
C806 C 0.91696 0.80182 0.71402 0.0
C807 C 0.90109 0.78167 0.70314 0.0
C808 C 0.8945 0.81402 0.68571 0.0
C809 C 0.9035 0.86707 0.67924 0.0
C810 C 0.91931 0.8873 0.6899 0.0
C811 C 0.92604 0.85485 0.70721 0.0
H812 H 0.89815 0.89287 0.66609 0.0
H813 H 0.93455 0.58297 0.8441 0.0
H814 H 0.58772 0.05947 0.80834 0.0
H815 H 0.58467 0.1245 0.77754 0.0
H816 H 0.55313 0.25365 0.81427 0.0
H817 H 0.55716 0.1899 0.84564 0.0
H818 H 0.56049 0.16476 0.7535 0.0
H819 H 0.56046 0.39715 0.79768 0.0
H820 H 0.57297 0.44248 0.8304 0.0
H821 H 0.6156 0.30624 0.83244 0.0
H822 H 0.60354 0.26067 0.79965 0.0
H823 H 0.55089 0.38798 0.67264 0.0
H824 H 0.54565 0.32659 0.70451 0.0
H825 H 0.59844 0.38637 0.72931 0.0
H826 H 0.60291 0.45044 0.6985 0.0
H827 H 0.57741 0.38251 0.75973 0.0
H828 H 0.58925 0.2449 0.70315 0.0
H829 H 0.5839 0.19902 0.66823 0.0
H830 H 0.53068 0.13384 0.68866 0.0
H831 H 0.53529 0.18218 0.7234 0.0
C832 C 0.57999 0.10147 0.80988 0.0
C833 C 0.57279 0.11972 0.8295 0.0
C834 C 0.57819 0.13868 0.79216 0.0
C835 C 0.5689 0.1947 0.79349 0.0
C836 C 0.56078 0.21147 0.81286 0.0
C837 C 0.56297 0.17482 0.83077 0.0
C838 C 0.5686 0.23629 0.77486 0.0
C839 C 0.56412 0.21245 0.7549 0.0
C840 C 0.57375 0.29834 0.77645 0.0
C841 C 0.58094 0.32512 0.79634 0.0
C842 C 0.57251 0.37692 0.80512 0.0
C843 C 0.57953 0.40267 0.82366 0.0
C844 C 0.59507 0.37724 0.83347 0.0
C845 C 0.60356 0.32584 0.82484 0.0
C846 C 0.59662 0.3 0.80629 0.0
C847 C 0.56124 0.38805 0.68504 0.0
C848 C 0.57725 0.42401 0.68319 0.0
C849 C 0.55831 0.35285 0.70321 0.0
C850 C 0.57174 0.35106 0.71939 0.0
C851 C 0.58772 0.38712 0.71733 0.0
C852 C 0.59033 0.4236 0.6996 0.0
C853 C 0.56969 0.31077 0.73824 0.0
C854 C 0.5736 0.33496 0.7583 0.0
C855 C 0.56515 0.24819 0.73654 0.0
C856 C 0.56251 0.2179 0.71581 0.0
C857 C 0.57633 0.22127 0.70015 0.0
C858 C 0.57342 0.1949 0.68037 0.0
C859 C 0.557 0.16328 0.67626 0.0
C860 C 0.54339 0.15838 0.69187 0.0
C861 C 0.5461 0.1856 0.71157 0.0
H862 H 0.55481 0.14251 0.66099 0.0
H863 H 0.60061 0.39754 0.84768 0.0
H864 H 0.05604 0.77447 0.14522 0.0
H865 H 0.06016 0.66586 0.14079 0.0
H866 H 0.10959 0.69748 0.10405 0.0
H867 H 0.10501 0.80647 0.10717 0.0
H868 H 0.08947 0.61338 0.08596 0.0
H869 H 0.11159 0.64423 0.15719 0.0
H870 H 0.10894 0.68407 0.19347 0.0
H871 H 0.05919 0.57995 0.20284 0.0
H872 H 0.06167 0.53907 0.16673 0.0
H873 H 0.12276 0.30978 0.08952 0.0
H874 H 0.11941 0.41928 0.09442 0.0
H875 H 0.06743 0.39079 0.12665 0.0
H876 H 0.07051 0.28122 0.12157 0.0
H877 H 0.08923 0.47287 0.14719 0.0
H878 H 0.0676 0.43968 0.07654 0.0
H879 H 0.06938 0.40201 0.03995 0.0
H880 H 0.11747 0.5128 0.02889 0.0
H881 H 0.11614 0.5505 0.06553 0.0
C882 C 0.06774 0.75895 0.13603 0.0
C883 C 0.0801 0.80037 0.12653 0.0
C884 C 0.07021 0.69633 0.13375 0.0
C885 C 0.08537 0.67329 0.12237 0.0
C886 C 0.09782 0.71415 0.11298 0.0
C887 C 0.09522 0.77688 0.11499 0.0
C888 C 0.08795 0.60663 0.11982 0.0
C889 C 0.08975 0.5828 0.09938 0.0
C890 C 0.08781 0.56642 0.13726 0.0
C891 C 0.08676 0.58888 0.15927 0.0
C892 C 0.10012 0.62976 0.16704 0.0
C893 C 0.09867 0.65241 0.18758 0.0
C894 C 0.08393 0.63452 0.20047 0.0
C895 C 0.07067 0.59355 0.1929 0.0
C896 C 0.07214 0.57038 0.17244 0.0
C897 C 0.11051 0.32665 0.09746 0.0
C898 C 0.09687 0.28642 0.10504 0.0
C899 C 0.10866 0.38934 0.10031 0.0
C900 C 0.09309 0.41319 0.11072 0.0
C901 C 0.07957 0.37329 0.1186 0.0
C902 C 0.0814 0.31056 0.11572 0.0
C903 C 0.09088 0.47981 0.11334 0.0
C904 C 0.0891 0.50355 0.13379 0.0
C905 C 0.09106 0.51992 0.09589 0.0
C906 C 0.09188 0.49742 0.07384 0.0
C907 C 0.07865 0.45562 0.06636 0.0
C908 C 0.07956 0.43433 0.0456 0.0
C909 C 0.09356 0.45487 0.03212 0.0
C910 C 0.10665 0.49686 0.03936 0.0
C911 C 0.10582 0.51823 0.06011 0.0
H912 H 0.09424 0.43835 0.01605 0.0
H913 H 0.08276 0.65243 0.21632 0.0
H914 H 0.4433 0.19442 0.14306 0.0
H915 H 0.43979 0.30473 0.14021 0.0
H916 H 0.39958 0.28047 0.09051 0.0
H917 H 0.40333 0.17007 0.093 0.0
H918 H 0.42492 0.3702 0.08138 0.0
H919 H 0.3854 0.31406 0.13951 0.0
H920 H 0.37819 0.26632 0.17373 0.0
H921 H 0.41858 0.37996 0.2042 0.0
H922 H 0.42621 0.42781 0.17009 0.0
H923 H 0.38422 0.66147 0.07908 0.0
H924 H 0.3903 0.55303 0.08209 0.0
H925 H 0.42625 0.58635 0.13526 0.0
H926 H 0.41953 0.69506 0.133 0.0
H927 H 0.40463 0.49235 0.14304 0.0
H928 H 0.4437 0.55123 0.08576 0.0
H929 H 0.45169 0.59876 0.05173 0.0
H930 H 0.41346 0.48044 0.01984 0.0
H931 H 0.40505 0.43275 0.05373 0.0
C932 C 0.43382 0.21257 0.13142 0.0
C933 C 0.42351 0.17345 0.11834 0.0
C934 C 0.43172 0.27559 0.12991 0.0
C935 C 0.41927 0.30077 0.1153 0.0
C936 C 0.4092 0.26195 0.10196 0.0
C937 C 0.41123 0.19887 0.10353 0.0
C938 C 0.41668 0.36761 0.114 0.0
C939 C 0.42027 0.39689 0.09477 0.0
C940 C 0.41116 0.40257 0.13167 0.0
C941 C 0.40651 0.37406 0.15221 0.0
C942 C 0.39285 0.32853 0.15348 0.0
C943 C 0.38867 0.30151 0.17286 0.0
C944 C 0.39796 0.31998 0.19112 0.0
C945 C 0.41141 0.36563 0.19004 0.0
C946 C 0.41566 0.39275 0.17069 0.0
C947 C 0.39329 0.64601 0.09156 0.0
C948 C 0.40136 0.68744 0.1058 0.0
C949 C 0.39695 0.58381 0.09309 0.0
C950 C 0.40897 0.56148 0.10869 0.0
C951 C 0.41701 0.60252 0.123 0.0
C952 C 0.41327 0.66484 0.12157 0.0
C953 C 0.41274 0.49516 0.11033 0.0
C954 C 0.40937 0.46587 0.12964 0.0
C955 C 0.41859 0.46025 0.09275 0.0
C956 C 0.42362 0.48879 0.07232 0.0
C957 C 0.43689 0.53567 0.07151 0.0
C958 C 0.44151 0.56258 0.05224 0.0
C959 C 0.43305 0.54273 0.03364 0.0
C960 C 0.41999 0.49582 0.03426 0.0
C961 C 0.4153 0.46879 0.0535 0.0
H962 H 0.43666 0.56362 0.01873 0.0
H963 H 0.3947 0.29901 0.20611 0.0
H964 H 0.07125 0.22539 0.38892 0.0
H965 H 0.06739 0.11571 0.38428 0.0
H966 H 0.12457 0.0876 0.40186 0.0
H967 H 0.12865 0.19728 0.40604 0.0
H968 H 0.11489 0.02041 0.3673 0.0
H969 H 0.09036 0.05908 0.4367 0.0
H970 H 0.0702 0.1099 0.46273 0.0
H971 H 0.02187 0.04662 0.42973 0.0
H972 H 0.04176 0.99611 0.40332 0.0
H973 H 0.11137 0.70191 0.38324 0.0
H974 H 0.1153 0.81117 0.38774 0.0
H975 H 0.05686 0.83817 0.37635 0.0
H976 H 0.05258 0.72889 0.37303 0.0
H977 H 0.0672 0.90663 0.40765 0.0
H978 H 0.09087 0.86909 0.33814 0.0
H979 H 0.11045 0.81916 0.31133 0.0
H980 H 0.1595 0.88109 0.34324 0.0
H981 H 0.1402 0.93079 0.3704 0.0
C982 C 0.08304 0.19597 0.39165 0.0
C983 C 0.10024 0.22021 0.39794 0.0
C984 C 0.08077 0.13322 0.38915 0.0
C985 C 0.09565 0.09341 0.39293 0.0
C986 C 0.11289 0.11747 0.39893 0.0
C987 C 0.11515 0.18016 0.4015 0.0
C988 C 0.09325 0.02667 0.39063 0.0
C989 C 0.10462 0.99534 0.37631 0.0
C990 C 0.07953 0.99428 0.40198 0.0
C991 C 0.06756 0.02432 0.41792 0.0
C992 C 0.07544 0.05639 0.4349 0.0
C993 C 0.06406 0.08508 0.44974 0.0
C994 C 0.04476 0.08163 0.44785 0.0
C995 C 0.03681 0.04933 0.43115 0.0
C996 C 0.04813 0.02062 0.41626 0.0
C997 C 0.09927 0.73077 0.38192 0.0
C998 C 0.08163 0.70595 0.37773 0.0
C999 C 0.1016 0.79356 0.38424 0.0
C1000 C 0.08643 0.83317 0.38206 0.0
C1001 C 0.06881 0.80864 0.37802 0.0
C1002 C 0.06642 0.74587 0.37591 0.0
C1003 C 0.08883 0.90009 0.38427 0.0
C1004 C 0.07746 0.93155 0.39859 0.0
C1005 C 0.10245 0.93268 0.37278 0.0
C1006 C 0.11409 0.90316 0.35641 0.0
C1007 C 0.10583 0.87171 0.33952 0.0
C1008 C 0.11688 0.84351 0.32425 0.0
C1009 C 0.13621 0.84682 0.32561 0.0
C1010 C 0.14453 0.87851 0.34222 0.0
C1011 C 0.13354 0.90676 0.35754 0.0
H1012 H 0.14473 0.82493 0.31378 0.0
H1013 H 0.03598 0.10387 0.45935 0.0
H1014 H 0.41755 0.79383 0.4224 0.0
H1015 H 0.4189 0.90335 0.41617 0.0
H1016 H 0.38431 0.88167 0.36103 0.0
H1017 H 0.38419 0.7709 0.36661 0.0
H1018 H 0.40759 0.96213 0.35225 0.0
H1019 H 0.3679 0.93939 0.41132 0.0
H1020 H 0.35753 0.90357 0.44624 0.0
H1021 H 0.40291 0.99749 0.47566 0.0
H1022 H 0.41371 0.03321 0.44089 0.0
H1023 H 0.38912 0.29227 0.35927 0.0
H1024 H 0.38318 0.18197 0.36171 0.0
H1025 H 0.43559 0.15782 0.3934 0.0
H1026 H 0.44175 0.26706 0.39045 0.0
H1027 H 0.39883 0.10354 0.41246 0.0
H1028 H 0.43828 0.11875 0.34953 0.0
H1029 H 0.44519 0.15634 0.31375 0.0
H1030 H 0.39442 0.07825 0.29083 0.0
H1031 H 0.38705 0.04114 0.3266 0.0
C1032 C 0.41027 0.81268 0.40897 0.0
C1033 C 0.40061 0.77443 0.39508 0.0
C1034 C 0.41089 0.87533 0.40547 0.0
C1035 C 0.40121 0.90152 0.38847 0.0
C1036 C 0.39181 0.86292 0.37433 0.0
C1037 C 0.39168 0.79981 0.3775 0.0
C1038 C 0.40121 0.9689 0.38545 0.0
C1039 C 0.40533 0.99281 0.36541 0.0
C1040 C 0.39818 0.00972 0.40247 0.0
C1041 C 0.39169 0.98862 0.42346 0.0
C1042 C 0.37573 0.95211 0.42522 0.0
C1043 C 0.36977 0.93185 0.44499 0.0
C1044 C 0.37957 0.94815 0.46315 0.0
C1045 C 0.39533 0.98487 0.46158 0.0
C1046 C 0.40137 0.00521 0.44185 0.0
C1047 C 0.39931 0.26316 0.36671 0.0
C1048 C 0.41593 0.28786 0.37455 0.0
C1049 C 0.39595 0.20043 0.36804 0.0
C1050 C 0.40901 0.16195 0.37764 0.0
C1051 C 0.42541 0.1868 0.38584 0.0
C1052 C 0.42894 0.24903 0.38408 0.0
C1053 C 0.40563 0.09573 0.37957 0.0
C1054 C 0.40082 0.07237 0.39937 0.0
C1055 C 0.40748 0.05571 0.36225 0.0
C1056 C 0.41196 0.0781 0.3408 0.0
C1057 C 0.42846 0.11034 0.33693 0.0
C1058 C 0.43249 0.13138 0.31663 0.0
C1059 C 0.42021 0.11995 0.30004 0.0
C1060 C 0.40389 0.08726 0.30371 0.0
C1061 C 0.39978 0.06623 0.32398 0.0
H1062 H 0.42336 0.13623 0.28434 0.0
H1063 H 0.37493 0.9324 0.47844 0.0
H1064 H 0.87235 0.68947 0.91696 0.0
H1065 H 0.8753 0.57987 0.91158 0.0
H1066 H 0.92744 0.60746 0.87971 0.0
H1067 H 0.92467 0.71707 0.88498 0.0
H1068 H 0.90294 0.52864 0.85805 0.0
H1069 H 0.92851 0.5556 0.92748 0.0
H1070 H 0.92852 0.59093 0.9644 0.0
H1071 H 0.88047 0.48163 0.97735 0.0
H1072 H 0.88002 0.44631 0.9404 0.0
H1073 H 0.93484 0.22414 0.85537 0.0
H1074 H 0.93085 0.33304 0.8598 0.0
H1075 H 0.88466 0.30139 0.90165 0.0
H1076 H 0.88925 0.19226 0.89842 0.0
H1077 H 0.90557 0.38367 0.91791 0.0
H1078 H 0.87989 0.35459 0.84903 0.0
H1079 H 0.87882 0.3212 0.81191 0.0
H1080 H 0.92547 0.43533 0.79745 0.0
H1081 H 0.92704 0.46855 0.83456 0.0
C1082 C 0.88452 0.67236 0.90893 0.0
C1083 C 0.89827 0.71235 0.90141 0.0
C1084 C 0.88614 0.60965 0.9058 0.0
C1085 C 0.90156 0.58562 0.89515 0.0
C1086 C 0.91529 0.62522 0.88763 0.0
C1087 C 0.91368 0.68793 0.8907 0.0
C1088 C 0.90332 0.51913 0.89182 0.0
C1089 C 0.90377 0.49682 0.8711 0.0
C1090 C 0.90384 0.47779 0.90888 0.0
C1091 C 0.90412 0.49882 0.93111 0.0
C1092 C 0.91785 0.53952 0.93815 0.0
C1093 C 0.91795 0.55946 0.95909 0.0
C1094 C 0.90447 0.53867 0.97319 0.0
C1095 C 0.89089 0.49777 0.96639 0.0
C1096 C 0.89071 0.47774 0.94546 0.0
C1097 C 0.92388 0.23989 0.86565 0.0
C1098 C 0.91249 0.1985 0.87663 0.0
C1099 C 0.92145 0.30261 0.86793 0.0
C1100 C 0.90729 0.32576 0.88086 0.0
C1101 C 0.89567 0.28477 0.89154 0.0
C1102 C 0.89824 0.22199 0.88949 0.0
C1103 C 0.90516 0.39253 0.88403 0.0
C1104 C 0.90468 0.41512 0.90476 0.0
C1105 C 0.90447 0.4341 0.86694 0.0
C1106 C 0.90369 0.41361 0.84464 0.0
C1107 C 0.89004 0.37212 0.83798 0.0
C1108 C 0.88932 0.35328 0.81693 0.0
C1109 C 0.9021 0.37599 0.80235 0.0
C1110 C 0.91561 0.41767 0.80877 0.0
C1111 C 0.91641 0.43654 0.82981 0.0
H1112 H 0.90151 0.3614 0.78605 0.0
H1113 H 0.90458 0.55415 0.9894 0.0
H1114 H 0.59786 0.83741 0.90736 0.0
H1115 H 0.60253 0.72764 0.90796 0.0
H1116 H 0.55543 0.70347 0.86687 0.0
H1117 H 0.55088 0.81342 0.86569 0.0
H1118 H 0.55541 0.62496 0.90141 0.0
H1119 H 0.59762 0.68934 0.84677 0.0
H1120 H 0.62294 0.75193 0.83217 0.0
H1121 H 0.66022 0.6835 0.87937 0.0
H1122 H 0.63504 0.62095 0.89441 0.0
H1123 H 0.57015 0.31247 0.88221 0.0
H1124 H 0.56544 0.42086 0.87741 0.0
H1125 H 0.6173 0.45739 0.90893 0.0
H1126 H 0.62275 0.3491 0.91271 0.0
H1127 H 0.61433 0.5304 0.87761 0.0
H1128 H 0.57345 0.47164 0.93385 0.0
H1129 H 0.54864 0.4122 0.95098 0.0
H1130 H 0.5097 0.47276 0.90422 0.0
H1131 H 0.53434 0.53196 0.88665 0.0
C1132 C 0.58861 0.80909 0.89818 0.0
C1133 C 0.57404 0.83466 0.88635 0.0
C1134 C 0.59127 0.74621 0.89864 0.0
C1135 C 0.57942 0.70757 0.8873 0.0
C1136 C 0.56472 0.73261 0.87573 0.0
C1137 C 0.56211 0.79553 0.87516 0.0
C1138 C 0.58229 0.64091 0.8877 0.0
C1139 C 0.56816 0.60404 0.89592 0.0
C1140 C 0.59915 0.61411 0.88107 0.0
C1141 C 0.6144 0.65081 0.87181 0.0
C1142 C 0.61119 0.68788 0.85411 0.0
C1143 C 0.62552 0.7233 0.84574 0.0
C1144 C 0.64317 0.72177 0.85486 0.0
C1145 C 0.64654 0.68463 0.87233 0.0
C1146 C 0.63225 0.6491 0.88076 0.0
C1147 C 0.58072 0.34305 0.88799 0.0
C1148 C 0.59678 0.32109 0.89814 0.0
C1149 C 0.57785 0.40546 0.88543 0.0
C1150 C 0.59081 0.44752 0.89322 0.0
C1151 C 0.60703 0.42592 0.90288 0.0
C1152 C 0.61002 0.36358 0.90523 0.0
C1153 C 0.58747 0.51404 0.89153 0.0
C1154 C 0.60151 0.55103 0.88304 0.0
C1155 C 0.57063 0.54113 0.89826 0.0
C1156 C 0.55578 0.5057 0.90882 0.0
C1157 C 0.55962 0.47192 0.92714 0.0
C1158 C 0.54559 0.43833 0.93694 0.0
C1159 C 0.52762 0.43856 0.92866 0.0
C1160 C 0.52363 0.47254 0.9106 0.0
C1161 C 0.53762 0.50615 0.90072 0.0
H1162 H 0.51677 0.41254 0.93627 0.0
H1163 H 0.65423 0.74928 0.84837 0.0
H1164 H 0.9223 0.79643 0.57712 0.0
H1165 H 0.92493 0.90705 0.58205 0.0
H1166 H 0.88444 0.89857 0.63207 0.0
H1167 H 0.8827 0.78723 0.62792 0.0
H1168 H 0.87895 0.99471 0.60098 0.0
H1169 H 0.92653 0.90791 0.64486 0.0
H1170 H 0.95412 0.84604 0.65287 0.0
H1171 H 0.98641 0.95301 0.6097 0.0
H1172 H 0.95887 0.01511 0.60132 0.0
H1173 H 0.89127 0.29655 0.63904 0.0
H1174 H 0.887 0.18636 0.63512 0.0
H1175 H 0.93894 0.17539 0.60124 0.0
H1176 H 0.94364 0.28448 0.60654 0.0
H1177 H 0.93811 0.08663 0.62512 0.0
H1178 H 0.89287 0.16645 0.57741 0.0
H1179 H 0.86622 0.2288 0.5661 0.0
H1180 H 0.83109 0.1363 0.61041 0.0
H1181 H 0.8576 0.0739 0.62218 0.0
C1182 C 0.91414 0.81846 0.58926 0.0
C1183 C 0.90245 0.78398 0.6023 0.0
C1184 C 0.91559 0.88133 0.59205 0.0
C1185 C 0.90504 0.91077 0.60761 0.0
C1186 C 0.89291 0.87647 0.62023 0.0
C1187 C 0.89192 0.81325 0.61789 0.0
C1188 C 0.90697 0.9772 0.61095 0.0
C1189 C 0.89179 0.01499 0.6065 0.0
C1190 C 0.92396 0.00347 0.61744 0.0
C1191 C 0.94054 0.96591 0.62238 0.0
C1192 C 0.93946 0.91798 0.637 0.0
C1193 C 0.9551 0.8829 0.64162 0.0
C1194 C 0.97201 0.89549 0.63177 0.0
C1195 C 0.97329 0.94327 0.61731 0.0
C1196 C 0.95766 0.97846 0.61265 0.0
C1197 C 0.90167 0.2702 0.63075 0.0
C1198 C 0.91778 0.29846 0.62314 0.0
C1199 C 0.89921 0.20739 0.62835 0.0
C1200 C 0.9125 0.17216 0.61756 0.0
C1201 C 0.92849 0.20105 0.60972 0.0
C1202 C 0.93118 0.26336 0.61268 0.0
C1203 C 0.91013 0.10514 0.61485 0.0
C1204 C 0.92523 0.06689 0.6195 0.0
C1205 C 0.89325 0.07863 0.60789 0.0
C1206 C 0.87727 0.11595 0.60082 0.0
C1207 C 0.87949 0.1597 0.58484 0.0
C1208 C 0.86441 0.19501 0.57834 0.0
C1209 C 0.84699 0.18664 0.58757 0.0
C1210 C 0.8446 0.1428 0.60329 0.0
C1211 C 0.85965 0.10742 0.60988 0.0
H1212 H 0.83533 0.21402 0.58251 0.0
H1213 H 0.98413 0.86831 0.63536 0.0
H1214 H 0.54855 0.74455 0.6339 0.0
H1215 H 0.55281 0.85347 0.62977 0.0
H1216 H 0.61115 0.82593 0.61787 0.0
H1217 H 0.60723 0.71677 0.62314 0.0
H1218 H 0.60657 0.91957 0.64304 0.0
H1219 H 0.57986 0.85683 0.5775 0.0
H1220 H 0.55709 0.80631 0.55434 0.0
H1221 H 0.51387 0.9213 0.5785 0.0
H1222 H 0.53634 0.97196 0.60203 0.0
H1223 H 0.62283 0.2138 0.59997 0.0
H1224 H 0.61944 0.10404 0.60478 0.0
H1225 H 0.56223 0.12931 0.62276 0.0
H1226 H 0.56555 0.23934 0.61794 0.0
H1227 H 0.56673 0.03701 0.59388 0.0
H1228 H 0.59319 0.09335 0.66094 0.0
H1229 H 0.61597 0.14451 0.68405 0.0
H1230 H 0.65997 0.04049 0.65597 0.0
H1231 H 0.63741 0.98955 0.63255 0.0
C1232 C 0.56236 0.76131 0.63065 0.0
C1233 C 0.57753 0.72131 0.6288 0.0
C1234 C 0.56472 0.82384 0.62802 0.0
C1235 C 0.58224 0.84789 0.62311 0.0
C1236 C 0.59747 0.80838 0.6215 0.0
C1237 C 0.59516 0.74578 0.62433 0.0
C1238 C 0.58465 0.91435 0.61996 0.0
C1239 C 0.59804 0.945 0.63203 0.0
C1240 C 0.57329 0.94791 0.60592 0.0
C1241 C 0.55976 0.91784 0.59167 0.0
C1242 C 0.56548 0.87107 0.57798 0.0
C1243 C 0.55263 0.84245 0.56477 0.0
C1244 C 0.53404 0.86049 0.56498 0.0
C1245 C 0.52827 0.90733 0.57837 0.0
C1246 C 0.54106 0.93606 0.59163 0.0
C1247 C 0.60952 0.19598 0.6049 0.0
C1248 C 0.59444 0.23521 0.60854 0.0
C1249 C 0.60764 0.13332 0.60782 0.0
C1250 C 0.59063 0.10861 0.61435 0.0
C1251 C 0.57552 0.14755 0.61788 0.0
C1252 C 0.57745 0.21036 0.6152 0.0
C1253 C 0.58854 0.04196 0.61703 0.0
C1254 C 0.57525 0.01135 0.60483 0.0
C1255 C 0.60006 0.00833 0.63082 0.0
C1256 C 0.61367 0.03847 0.64486 0.0
C1257 C 0.60775 0.08208 0.65959 0.0
C1258 C 0.62061 0.11083 0.67276 0.0
C1259 C 0.63942 0.09593 0.67141 0.0
C1260 C 0.6454 0.05208 0.65696 0.0
C1261 C 0.63258 0.02323 0.64375 0.0
H1262 H 0.64937 0.11822 0.68161 0.0
H1263 H 0.52411 0.83826 0.55475 0.0
loop_
_geom_bond_atom_site_label_1
_geom_bond_atom_site_label_2
_geom_bond_distance
_geom_bond_site_symmetry_2
_ccdc_geom_bond_type
C0 C1 1.351 . S
C0 N3 1.368 . S
C0 H5 0.931 . S
C1 C0 1.351 . S
C1 N2 1.373 . S
C1 H29 0.930 . S
N2 C1 1.373 . S
N2 C4 1.340 . S
N3 C0 1.368 . S
N3 C4 1.321 . S
N3 Co6 2.135 . S
C4 N2 1.340 . S
C4 N3 1.321 . S
C4 H28 0.930 . S
H5 C0 0.931 . S
Co6 N3 2.135 . S
Co6 N9 2.133 . S
Co6 O14 2.055 . S
Co6 O17 2.039 . S
Co6 N20 2.140 . S
C7 O8 1.227 . S
C7 O17 1.265 . S
O8 C7 1.227 . S
N9 Co6 2.133 . S
N9 C11 1.371 1_545 S
N9 C12 1.303 1_545 S
C10 C11 1.338 . S
C10 N13 1.377 . S
C10 H30 0.930 . S
C11 N9 1.371 1_565 S
C11 C10 1.338 . S
C11 H15 0.931 1_565 S
C12 N9 1.303 1_565 S
C12 N13 1.344 . S
C12 H16 0.930 . S
N13 C10 1.377 . S
N13 C12 1.344 . S
O14 Co6 2.055 . S
O14 C18 1.253 . S
H15 C11 0.931 1_545 S
H16 C12 0.930 . S
O17 Co6 2.039 . S
O17 C7 1.265 . S
C18 O14 1.253 . S
C18 O19 1.227 . S
O19 C18 1.227 . S
N20 Co6 2.140 . S
N20 C23 1.346 . S
N20 C24 1.345 . S
C21 C22 1.387 . S
C21 C25 1.391 . S
C22 C21 1.387 . S
C22 C23 1.369 . S
C22 H31 0.929 . S
C23 N20 1.346 . S
C23 C22 1.369 . S
C23 H26 0.928 . S
C24 N20 1.345 . S
C24 C25 1.371 . S
C24 H27 0.931 . S
C25 C21 1.391 . S
C25 C24 1.371 . S
C25 H32 0.930 1_545 S
H26 C23 0.928 . S
H27 C24 0.931 . S
H28 C4 0.930 . S
H29 C1 0.930 . S
H30 C10 0.930 . S
H31 C22 0.929 . S
H32 C25 0.930 1_565 S
C33 C34 1.351 . S
C33 N36 1.368 . S
C33 H38 0.931 . S
C34 C33 1.351 . S
C34 N35 1.373 . S
C34 H62 0.930 . S
N35 C34 1.373 . S
N35 C37 1.340 . S
N36 C33 1.368 . S
N36 C37 1.321 . S
N36 Co39 2.135 . S
C37 N35 1.340 . S
C37 N36 1.321 . S
C37 H61 0.930 . S
H38 C33 0.931 . S
Co39 N36 2.135 . S
Co39 N42 2.133 . S
Co39 O47 2.055 . S
Co39 O50 2.039 . S
Co39 N53 2.140 . S
C40 O41 1.227 . S
C40 O50 1.265 . S
O41 C40 1.227 . S
N42 Co39 2.133 . S
N42 C44 1.371 1_565 S
N42 C45 1.303 1_565 S
C43 C44 1.338 . S
C43 N46 1.377 . S
C43 H63 0.930 . S
C44 N42 1.371 1_545 S
C44 C43 1.338 . S
C44 H48 0.931 1_545 S
C45 N42 1.303 1_545 S
C45 N46 1.344 . S
C45 H49 0.930 . S
N46 C43 1.377 . S
N46 C45 1.344 . S
O47 Co39 2.055 . S
O47 C51 1.253 . S
H48 C44 0.931 1_565 S
H49 C45 0.930 . S
O50 Co39 2.039 . S
O50 C40 1.265 . S
C51 O47 1.253 . S
C51 O52 1.227 . S
O52 C51 1.227 . S
N53 Co39 2.140 . S
N53 C56 1.346 . S
N53 C57 1.345 . S
C54 C55 1.387 . S
C54 C58 1.391 . S
C55 C54 1.387 . S
C55 C56 1.369 . S
C55 H64 0.929 . S
C56 N53 1.346 . S
C56 C55 1.369 . S
C56 H59 0.928 . S
C57 N53 1.345 . S
C57 C58 1.371 . S
C57 H60 0.931 . S
C58 C54 1.391 . S
C58 C57 1.371 . S
C58 H65 0.930 1_565 S
H59 C56 0.928 . S
H60 C57 0.931 . S
H61 C37 0.930 . S
H62 C34 0.930 . S
H63 C43 0.930 . S
H64 C55 0.929 . S
H65 C58 0.930 1_545 S
C66 C67 1.351 . S
C66 N69 1.368 . S
C66 H71 0.931 . S
C67 C66 1.351 . S
C67 N68 1.373 . S
C67 H95 0.930 . S
N68 C67 1.373 . S
N68 C70 1.340 . S
N69 C66 1.368 . S
N69 C70 1.321 . S
N69 Co72 2.135 . S
C70 N68 1.340 . S
C70 N69 1.321 . S
C70 H94 0.930 . S
H71 C66 0.931 . S
Co72 N69 2.135 . S
Co72 N75 2.121 . S
Co72 O80 2.055 . S
Co72 O83 2.039 . S
Co72 N86 2.140 . S
C73 O74 1.227 . S
C73 O83 1.265 . S
O74 C73 1.227 . S
N75 Co72 2.121 . S
N75 C77 1.375 . S
N75 C78 1.313 . S
C76 C77 1.338 . S
C76 N79 1.377 . S
C76 H96 0.930 . S
C77 N75 1.375 . S
C77 C76 1.338 . S
C77 H81 0.931 . S
C78 N75 1.313 . S
C78 N79 1.344 . S
C78 H82 0.930 . S
N79 C76 1.377 . S
N79 C78 1.344 . S
O80 Co72 2.055 . S
O80 C84 1.253 . S
H81 C77 0.931 . S
H82 C78 0.930 . S
O83 Co72 2.039 . S
O83 C73 1.265 . S
C84 O80 1.253 . S
C84 O85 1.227 . S
O85 C84 1.227 . S
N86 Co72 2.140 . S
N86 C89 1.346 . S
N86 C90 1.345 . S
C87 C88 1.387 . S
C87 C91 1.391 . S
C88 C87 1.387 . S
C88 C89 1.369 . S
C88 H97 0.929 . S
C89 N86 1.346 . S
C89 C88 1.369 . S
C89 H92 0.928 . S
C90 N86 1.345 . S
C90 C91 1.371 . S
C90 H93 0.931 . S
C91 C87 1.391 . S
C91 C90 1.371 . S
C91 H98 0.930 . S
H92 C89 0.928 . S
H93 C90 0.931 . S
H94 C70 0.930 . S
H95 C67 0.930 . S
H96 C76 0.930 . S
H97 C88 0.929 . S
H98 C91 0.930 . S
C99 C100 1.351 . S
C99 N102 1.368 . S
C99 H104 0.931 . S
C100 C99 1.351 . S
C100 N101 1.373 . S
C100 H128 0.930 . S
N101 C100 1.373 . S
N101 C103 1.340 . S
N102 C99 1.368 . S
N102 C103 1.321 . S
N102 Co105 2.135 . S
C103 N101 1.340 . S
C103 N102 1.321 . S
C103 H127 0.930 . S
H104 C99 0.931 . S
Co105 N102 2.135 . S
Co105 N108 2.121 . S
Co105 O113 2.055 . S
Co105 O116 2.039 . S
Co105 N119 2.140 . S
C106 O107 1.227 . S
C106 O116 1.265 . S
O107 C106 1.227 . S
N108 Co105 2.121 . S
N108 C110 1.375 . S
N108 C111 1.313 . S
C109 C110 1.338 . S
C109 N112 1.377 . S
C109 H129 0.930 . S
C110 N108 1.375 . S
C110 C109 1.338 . S
C110 H114 0.931 . S
C111 N108 1.313 . S
C111 N112 1.344 . S
C111 H115 0.930 . S
N112 C109 1.377 . S
N112 C111 1.344 . S
O113 Co105 2.055 . S
O113 C117 1.253 . S
H114 C110 0.931 . S
H115 C111 0.930 . S
O116 Co105 2.039 . S
O116 C106 1.265 . S
C117 O113 1.253 . S
C117 O118 1.227 . S
O118 C117 1.227 . S
N119 Co105 2.140 . S
N119 C122 1.346 . S
N119 C123 1.345 . S
C120 C121 1.387 . S
C120 C124 1.391 . S
C121 C120 1.387 . S
C121 C122 1.369 . S
C121 H130 0.929 . S
C122 N119 1.346 . S
C122 C121 1.369 . S
C122 H125 0.928 . S
C123 N119 1.345 . S
C123 C124 1.371 . S
C123 H126 0.931 . S
C124 C120 1.391 . S
C124 C123 1.371 . S
C124 H131 0.930 . S
H125 C122 0.928 . S
H126 C123 0.931 . S
H127 C103 0.930 . S
H128 C100 0.930 . S
H129 C109 0.930 . S
H130 C121 0.929 . S
H131 C124 0.930 . S
C132 C133 1.351 . S
C132 N135 1.368 . S
C132 H137 0.931 . S
C133 C132 1.351 . S
C133 N134 1.373 . S
C133 H161 0.930 . S
N134 C133 1.373 . S
N134 C136 1.340 . S
N135 C132 1.368 . S
N135 C136 1.321 . S
N135 Co138 2.135 . S
C136 N134 1.340 . S
C136 N135 1.321 . S
C136 H160 0.930 . S
H137 C132 0.931 . S
Co138 N135 2.135 . S
Co138 N141 2.133 . S
Co138 O146 2.055 . S
Co138 O149 2.039 . S
Co138 N152 2.140 . S
C139 O140 1.227 . S
C139 O149 1.265 . S
O140 C139 1.227 . S
N141 Co138 2.133 . S
N141 C143 1.371 1_565 S
N141 C144 1.303 1_565 S
C142 C143 1.338 . S
C142 N145 1.377 . S
C142 H162 0.930 . S
C143 N141 1.371 1_545 S
C143 C142 1.338 . S
C143 H147 0.931 1_545 S
C144 N141 1.303 1_545 S
C144 N145 1.344 . S
C144 H148 0.930 . S
N145 C142 1.377 . S
N145 C144 1.344 . S
O146 Co138 2.055 . S
O146 C150 1.253 . S
H147 C143 0.931 1_565 S
H148 C144 0.930 . S
O149 Co138 2.039 . S
O149 C139 1.265 . S
C150 O146 1.253 . S
C150 O151 1.227 . S
O151 C150 1.227 . S
N152 Co138 2.140 . S
N152 C155 1.346 . S
N152 C156 1.345 . S
C153 C154 1.387 . S
C153 C157 1.391 . S
C154 C153 1.387 . S
C154 C155 1.369 . S
C154 H163 0.929 . S
C155 N152 1.346 . S
C155 C154 1.369 . S
C155 H158 0.928 . S
C156 N152 1.345 . S
C156 C157 1.371 . S
C156 H159 0.931 . S
C157 C153 1.391 . S
C157 C156 1.371 . S
C157 H164 0.930 1_565 S
H158 C155 0.928 . S
H159 C156 0.931 . S
H160 C136 0.930 . S
H161 C133 0.930 . S
H162 C142 0.930 . S
H163 C154 0.929 . S
H164 C157 0.930 1_545 S
C165 C166 1.351 . S
C165 N168 1.368 . S
C165 H170 0.931 . S
C166 C165 1.351 . S
C166 N167 1.373 . S
C166 H194 0.930 . S
N167 C166 1.373 . S
N167 C169 1.340 . S
N168 C165 1.368 . S
N168 C169 1.321 . S
N168 Co171 2.135 . S
C169 N167 1.340 . S
C169 N168 1.321 . S
C169 H193 0.930 . S
H170 C165 0.931 . S
Co171 N168 2.135 . S
Co171 N174 2.133 . S
Co171 O179 2.055 . S
Co171 O182 2.039 . S
Co171 N185 2.140 . S
C172 O173 1.227 . S
C172 O182 1.265 . S
O173 C172 1.227 . S
N174 Co171 2.133 . S
N174 C176 1.371 1_545 S
N174 C177 1.303 1_545 S
C175 C176 1.338 . S
C175 N178 1.377 . S
C175 H195 0.930 . S
C176 N174 1.371 1_565 S
C176 C175 1.338 . S
C176 H180 0.931 1_565 S
C177 N174 1.303 1_565 S
C177 N178 1.344 . S
C177 H181 0.930 . S
N178 C175 1.377 . S
N178 C177 1.344 . S
O179 Co171 2.055 . S
O179 C183 1.253 . S
H180 C176 0.931 1_545 S
H181 C177 0.930 . S
O182 Co171 2.039 . S
O182 C172 1.265 . S
C183 O179 1.253 . S
C183 O184 1.227 . S
O184 C183 1.227 . S
N185 Co171 2.140 . S
N185 C188 1.346 . S
N185 C189 1.345 . S
C186 C187 1.387 . S
C186 C190 1.391 . S
C187 C186 1.387 . S
C187 C188 1.369 . S
C187 H196 0.929 . S
C188 N185 1.346 . S
C188 C187 1.369 . S
C188 H191 0.928 . S
C189 N185 1.345 . S
C189 C190 1.371 . S
C189 H192 0.931 . S
C190 C186 1.391 . S
C190 C189 1.371 . S
C190 H197 0.930 1_545 S
H191 C188 0.928 . S
H192 C189 0.931 . S
H193 C169 0.930 . S
H194 C166 0.930 . S
H195 C175 0.930 . S
H196 C187 0.929 . S
H197 C190 0.930 1_565 S
C198 C199 1.351 . S
C198 N201 1.368 . S
C198 H203 0.931 . S
C199 C198 1.351 . S
C199 N200 1.373 . S
C199 H227 0.930 . S
N200 C199 1.373 . S
N200 C202 1.340 . S
N201 C198 1.368 . S
N201 C202 1.321 . S
N201 Co204 2.135 . S
C202 N200 1.340 . S
C202 N201 1.321 . S
C202 H226 0.930 . S
H203 C198 0.931 . S
Co204 N201 2.135 . S
Co204 N207 2.121 . S
Co204 O212 2.055 . S
Co204 O215 2.039 . S
Co204 N218 2.140 . S
C205 O206 1.227 . S
C205 O215 1.265 . S
O206 C205 1.227 . S
N207 Co204 2.121 . S
N207 C209 1.375 . S
N207 C210 1.313 . S
C208 C209 1.338 . S
C208 N211 1.377 . S
C208 H228 0.930 . S
C209 N207 1.375 . S
C209 C208 1.338 . S
C209 H213 0.931 . S
C210 N207 1.313 . S
C210 N211 1.344 . S
C210 H214 0.930 . S
N211 C208 1.377 . S
N211 C210 1.344 . S
O212 Co204 2.055 . S
O212 C216 1.253 . S
H213 C209 0.931 . S
H214 C210 0.930 . S
O215 Co204 2.039 . S
O215 C205 1.265 . S
C216 O212 1.253 . S
C216 O217 1.227 . S
O217 C216 1.227 . S
N218 Co204 2.140 . S
N218 C221 1.346 . S
N218 C222 1.345 . S
C219 C220 1.387 . S
C219 C223 1.391 . S
C220 C219 1.387 . S
C220 C221 1.369 . S
C220 H229 0.929 . S
C221 N218 1.346 . S
C221 C220 1.369 . S
C221 H224 0.928 . S
C222 N218 1.345 . S
C222 C223 1.371 . S
C222 H225 0.931 . S
C223 C219 1.391 . S
C223 C222 1.371 . S
C223 H230 0.930 . S
H224 C221 0.928 . S
H225 C222 0.931 . S
H226 C202 0.930 . S
H227 C199 0.930 . S
H228 C208 0.930 . S
H229 C220 0.929 . S
H230 C223 0.930 . S
C231 C232 1.351 . S
C231 N234 1.368 . S
C231 H236 0.931 . S
C232 C231 1.351 . S
C232 N233 1.373 . S
C232 H260 0.930 . S
N233 C232 1.373 . S
N233 C235 1.340 . S
N234 C231 1.368 . S
N234 C235 1.321 . S
N234 Co237 2.135 . S
C235 N233 1.340 . S
C235 N234 1.321 . S
C235 H259 0.930 . S
H236 C231 0.931 . S
Co237 N234 2.135 . S
Co237 N240 2.121 . S
Co237 O245 2.055 . S
Co237 O248 2.039 . S
Co237 N251 2.140 . S
C238 O239 1.227 . S
C238 O248 1.265 . S
O239 C238 1.227 . S
N240 Co237 2.121 . S
N240 C242 1.375 . S
N240 C243 1.313 . S
C241 C242 1.338 . S
C241 N244 1.377 . S
C241 H261 0.930 . S
C242 N240 1.375 . S
C242 C241 1.338 . S
C242 H246 0.931 . S
C243 N240 1.313 . S
C243 N244 1.344 . S
C243 H247 0.930 . S
N244 C241 1.377 . S
N244 C243 1.344 . S
O245 Co237 2.055 . S
O245 C249 1.253 . S
H246 C242 0.931 . S
H247 C243 0.930 . S
O248 Co237 2.039 . S
O248 C238 1.265 . S
C249 O245 1.253 . S
C249 O250 1.227 . S
O250 C249 1.227 . S
N251 Co237 2.140 . S
N251 C254 1.346 . S
N251 C255 1.345 . S
C252 C253 1.387 . S
C252 C256 1.391 . S
C253 C252 1.387 . S
C253 C254 1.369 . S
C253 H262 0.929 . S
C254 N251 1.346 . S
C254 C253 1.369 . S
C254 H257 0.928 . S
C255 N251 1.345 . S
C255 C256 1.371 . S
C255 H258 0.931 . S
C256 C252 1.391 . S
C256 C255 1.371 . S
C256 H263 0.930 . S
H257 C254 0.928 . S
H258 C255 0.931 . S
H259 C235 0.930 . S
H260 C232 0.930 . S
H261 C241 0.930 . S
H262 C253 0.929 . S
H263 C256 0.930 . S
H264 C282 0.951 . S
H265 C284 0.951 1_565 S
H266 C286 0.950 . S
H267 C287 0.950 . S
H268 C289 0.950 . S
H269 C292 0.950 . S
H270 C293 0.950 . S
H271 C295 0.950 . S
H272 C296 0.950 1_565 S
H273 C297 0.951 . S
H274 C299 0.951 1_545 S
H275 C301 0.950 . S
H276 C302 0.950 . S
H277 C304 0.950 . S
H278 C307 0.950 . S
H279 C308 0.950 . S
H280 C310 0.950 1_556 S
H281 C311 0.950 1_545 S
C282 H264 0.951 . S
C282 C283 1.366 . S
C282 C284 1.388 . S
C283 C282 1.366 . S
C283 C287 1.385 . S
C284 H265 0.951 1_545 S
C284 C282 1.388 . S
C284 C285 1.366 . S
C285 C284 1.366 . S
C285 C286 1.414 . S
C285 C288 1.499 . S
C286 H266 0.950 . S
C286 C285 1.414 . S
C286 C287 1.374 . S
C287 H267 0.950 . S
C287 C283 1.385 . S
C287 C286 1.374 . S
C288 C285 1.499 . S
C288 C289 1.373 . S
C288 C290 1.389 . S
C289 H268 0.950 . S
C289 C288 1.373 . S
C289 C305 1.377 1_545 S
C290 C288 1.389 . S
C290 C291 1.524 . S
C290 C304 1.377 1_545 S
C291 C290 1.524 . S
C291 C292 1.397 . S
C291 C296 1.363 . S
C292 H269 0.950 . S
C292 C291 1.397 . S
C292 C293 1.334 . S
C293 H270 0.950 . S
C293 C292 1.334 . S
C293 C294 1.287 . S
C294 C293 1.287 . S
C294 C295 1.524 . S
C294 H313 0.913 . S
C295 H271 0.950 . S
C295 C294 1.524 . S
C295 C296 1.415 . S
C296 H272 0.950 1_545 S
C296 C291 1.363 . S
C296 C295 1.415 . S
C297 H273 0.951 . S
C297 C298 1.366 . S
C297 C299 1.388 . S
C298 C297 1.366 . S
C298 C302 1.385 . S
C299 H274 0.951 1_565 S
C299 C297 1.388 . S
C299 C300 1.366 . S
C300 C299 1.366 . S
C300 C301 1.414 . S
C300 C303 1.499 . S
C301 H275 0.950 . S
C301 C300 1.414 . S
C301 C302 1.374 . S
C302 H276 0.950 . S
C302 C298 1.385 . S
C302 C301 1.374 . S
C303 C300 1.499 . S
C303 C304 1.373 . S
C303 C305 1.389 . S
C304 H277 0.950 . S
C304 C290 1.377 1_565 S
C304 C303 1.373 . S
C305 C289 1.377 1_565 S
C305 C303 1.389 . S
C305 C306 1.524 . S
C306 C305 1.524 . S
C306 C307 1.397 . S
C306 C311 1.363 . S
C307 H278 0.950 . S
C307 C306 1.397 . S
C307 C308 1.334 . S
C308 H279 0.950 . S
C308 C307 1.334 . S
C308 C309 1.287 . S
C309 C308 1.287 . S
C309 C310 1.524 . S
C309 H312 0.959 1_554 S
C310 H280 0.950 1_554 S
C310 C309 1.524 . S
C310 C311 1.415 . S
C311 H281 0.950 1_565 S
C311 C306 1.363 . S
C311 C310 1.415 . S
H312 C309 0.959 1_556 S
H313 C294 0.913 . S
H314 C332 0.951 . S
H315 C334 0.951 . S
H316 C336 0.950 . S
H317 C337 0.950 . S
H318 C339 0.950 . S
H319 C342 0.950 . S
H320 C343 0.950 . S
H321 C345 0.950 . S
H322 C346 0.950 . S
H323 C347 0.951 . S
H324 C349 0.951 . S
H325 C351 0.950 . S
H326 C352 0.950 . S
H327 C354 0.950 . S
H328 C357 0.950 . S
H329 C358 0.950 . S
H330 C360 0.950 . S
H331 C361 0.950 . S
C332 H314 0.951 . S
C332 C333 1.366 . S
C332 C334 1.388 . S
C333 C332 1.366 . S
C333 C337 1.385 . S
C334 H315 0.951 . S
C334 C332 1.388 . S
C334 C335 1.366 . S
C335 C334 1.366 . S
C335 C336 1.414 . S
C335 C338 1.499 . S
C336 H316 0.950 . S
C336 C335 1.414 . S
C336 C337 1.374 . S
C337 H317 0.950 . S
C337 C333 1.385 . S
C337 C336 1.374 . S
C338 C335 1.499 . S
C338 C339 1.373 . S
C338 C340 1.389 . S
C339 H318 0.950 . S
C339 C338 1.373 . S
C339 C355 1.377 . S
C340 C338 1.389 . S
C340 C341 1.524 . S
C340 C354 1.377 . S
C341 C340 1.524 . S
C341 C342 1.397 . S
C341 C346 1.363 . S
C342 H319 0.950 . S
C342 C341 1.397 . S
C342 C343 1.334 . S
C343 H320 0.950 . S
C343 C342 1.334 . S
C343 C344 1.287 . S
C344 C343 1.287 . S
C344 C345 1.524 . S
C344 H363 0.913 . S
C345 H321 0.950 . S
C345 C344 1.524 . S
C345 C346 1.415 . S
C346 H322 0.950 . S
C346 C341 1.363 . S
C346 C345 1.415 . S
C347 H323 0.951 . S
C347 C348 1.366 . S
C347 C349 1.388 . S
C348 C347 1.366 . S
C348 C352 1.385 . S
C349 H324 0.951 . S
C349 C347 1.388 . S
C349 C350 1.366 . S
C350 C349 1.366 . S
C350 C351 1.414 . S
C350 C353 1.499 . S
C351 H325 0.950 . S
C351 C350 1.414 . S
C351 C352 1.374 . S
C352 H326 0.950 . S
C352 C348 1.385 . S
C352 C351 1.374 . S
C353 C350 1.499 . S
C353 C354 1.373 . S
C353 C355 1.389 . S
C354 H327 0.950 . S
C354 C340 1.377 . S
C354 C353 1.373 . S
C355 C339 1.377 . S
C355 C353 1.389 . S
C355 C356 1.524 . S
C356 C355 1.524 . S
C356 C357 1.397 . S
C356 C361 1.363 . S
C357 H328 0.950 . S
C357 C356 1.397 . S
C357 C358 1.334 . S
C358 H329 0.950 . S
C358 C357 1.334 . S
C358 C359 1.287 . S
C359 C358 1.287 . S
C359 C360 1.524 . S
C359 H362 0.999 . S
C360 H330 0.950 . S
C360 C359 1.524 . S
C360 C361 1.415 . S
C361 H331 0.950 . S
C361 C356 1.363 . S
C361 C360 1.415 . S
H362 C359 0.999 . S
H363 C344 0.913 . S
H364 C382 0.951 . S
H365 C384 0.951 1_545 S
H366 C386 0.950 . S
H367 C387 0.950 . S
H368 C389 0.950 . S
H369 C392 0.950 . S
H370 C393 0.950 . S
H371 C395 0.950 . S
H372 C396 0.950 . S
H373 C397 0.951 . S
H374 C399 0.951 1_565 S
H375 C401 0.950 . S
H376 C402 0.950 . S
H377 C404 0.950 . S
H378 C407 0.950 . S
H379 C408 0.950 . S
H380 C410 0.950 . S
H381 C411 0.950 . S
C382 H364 0.951 . S
C382 C383 1.366 . S
C382 C384 1.388 . S
C383 C382 1.366 . S
C383 C387 1.385 . S
C384 H365 0.951 1_565 S
C384 C382 1.388 . S
C384 C385 1.366 . S
C385 C384 1.366 . S
C385 C386 1.414 . S
C385 C388 1.499 . S
C386 H366 0.950 . S
C386 C385 1.414 . S
C386 C387 1.374 . S
C387 H367 0.950 . S
C387 C383 1.385 . S
C387 C386 1.374 . S
C388 C385 1.499 . S
C388 C389 1.373 . S
C388 C390 1.389 1_565 S
C389 H368 0.950 . S
C389 C388 1.373 . S
C389 C405 1.377 . S
C390 C388 1.389 1_545 S
C390 C391 1.524 . S
C390 C404 1.377 . S
C391 C390 1.524 . S
C391 C392 1.397 . S
C391 C396 1.363 . S
C392 H369 0.950 . S
C392 C391 1.397 . S
C392 C393 1.334 . S
C393 H370 0.950 . S
C393 C392 1.334 . S
C393 C394 1.287 . S
C394 C393 1.287 . S
C394 C395 1.524 . S
C394 H413 0.913 . S
C395 H371 0.950 . S
C395 C394 1.524 . S
C395 C396 1.415 . S
C396 H372 0.950 . S
C396 C391 1.363 . S
C396 C395 1.415 . S
C397 H373 0.951 . S
C397 C398 1.366 . S
C397 C399 1.388 . S
C398 C397 1.366 . S
C398 C402 1.385 . S
C399 H374 0.951 1_545 S
C399 C397 1.388 . S
C399 C400 1.366 . S
C400 C399 1.366 . S
C400 C401 1.414 . S
C400 C403 1.499 . S
C401 H375 0.950 . S
C401 C400 1.414 . S
C401 C402 1.374 . S
C402 H376 0.950 . S
C402 C398 1.385 . S
C402 C401 1.374 . S
C403 C400 1.499 . S
C403 C404 1.373 . S
C403 C405 1.389 1_545 S
C404 H377 0.950 . S
C404 C390 1.377 . S
C404 C403 1.373 . S
C405 C389 1.377 . S
C405 C403 1.389 1_565 S
C405 C406 1.524 . S
C406 C405 1.524 . S
C406 C407 1.397 . S
C406 C411 1.363 . S
C407 H378 0.950 . S
C407 C406 1.397 . S
C407 C408 1.334 . S
C408 H379 0.950 . S
C408 C407 1.334 . S
C408 C409 1.287 . S
C409 C408 1.287 . S
C409 C410 1.524 . S
C409 H412 0.999 . S
C410 H380 0.950 . S
C410 C409 1.524 . S
C410 C411 1.415 . S
C411 H381 0.950 . S
C411 C406 1.363 . S
C411 C410 1.415 . S
H412 C409 0.999 . S
H413 C394 0.913 . S
H414 C432 0.951 . S
H415 C434 0.951 . S
H416 C436 0.950 . S
H417 C437 0.950 . S
H418 C439 0.950 . S
H419 C442 0.950 . S
H420 C443 0.950 . S
H421 C445 0.950 . S
H422 C446 0.950 . S
H423 C447 0.951 . S
H424 C449 0.951 . S
H425 C451 0.950 . S
H426 C452 0.950 . S
H427 C454 0.950 . S
H428 C457 0.950 . S
H429 C458 0.950 . S
H430 C460 0.950 . S
H431 C461 0.950 . S
C432 H414 0.951 . S
C432 C433 1.366 . S
C432 C434 1.388 . S
C433 C432 1.366 . S
C433 C437 1.385 . S
C434 H415 0.951 . S
C434 C432 1.388 . S
C434 C435 1.366 . S
C435 C434 1.366 . S
C435 C436 1.414 . S
C435 C438 1.499 . S
C436 H416 0.950 . S
C436 C435 1.414 . S
C436 C437 1.374 . S
C437 H417 0.950 . S
C437 C433 1.385 . S
C437 C436 1.374 . S
C438 C435 1.499 . S
C438 C439 1.373 . S
C438 C440 1.389 . S
C439 H418 0.950 . S
C439 C438 1.373 . S
C439 C455 1.377 . S
C440 C438 1.389 . S
C440 C441 1.524 . S
C440 C454 1.377 . S
C441 C440 1.524 . S
C441 C442 1.397 . S
C441 C446 1.363 . S
C442 H419 0.950 . S
C442 C441 1.397 . S
C442 C443 1.334 . S
C443 H420 0.950 . S
C443 C442 1.334 . S
C443 C444 1.287 . S
C444 C443 1.287 . S
C444 C445 1.524 . S
C444 H463 0.913 . S
C445 H421 0.950 . S
C445 C444 1.524 . S
C445 C446 1.415 . S
C446 H422 0.950 . S
C446 C441 1.363 . S
C446 C445 1.415 . S
C447 H423 0.951 . S
C447 C448 1.366 . S
C447 C449 1.388 . S
C448 C447 1.366 . S
C448 C452 1.385 . S
C449 H424 0.951 . S
C449 C447 1.388 . S
C449 C450 1.366 . S
C450 C449 1.366 . S
C450 C451 1.414 . S
C450 C453 1.499 . S
C451 H425 0.950 . S
C451 C450 1.414 . S
C451 C452 1.374 . S
C452 H426 0.950 . S
C452 C448 1.385 . S
C452 C451 1.374 . S
C453 C450 1.499 . S
C453 C454 1.373 . S
C453 C455 1.389 . S
C454 H427 0.950 . S
C454 C440 1.377 . S
C454 C453 1.373 . S
C455 C439 1.377 . S
C455 C453 1.389 . S
C455 C456 1.524 . S
C456 C455 1.524 . S
C456 C457 1.397 . S
C456 C461 1.363 . S
C457 H428 0.950 . S
C457 C456 1.397 . S
C457 C458 1.334 . S
C458 H429 0.950 . S
C458 C457 1.334 . S
C458 C459 1.287 . S
C459 C458 1.287 . S
C459 C460 1.524 . S
C459 H462 0.999 . S
C460 H430 0.950 . S
C460 C459 1.524 . S
C460 C461 1.415 . S
C461 H431 0.950 . S
C461 C456 1.363 . S
C461 C460 1.415 . S
H462 C459 0.999 . S
H463 C444 0.913 . S
H464 C482 0.951 1_565 S
H465 C484 0.951 . S
H466 C486 0.950 . S
H467 C487 0.950 . S
H468 C489 0.950 . S
H469 C492 0.950 . S
H470 C493 0.950 . S
H471 C495 0.950 . S
H472 C496 0.950 . S
H473 C497 0.951 1_545 S
H474 C499 0.951 . S
H475 C501 0.950 . S
H476 C502 0.950 . S
H477 C504 0.950 . S
H478 C507 0.950 . S
H479 C508 0.950 . S
H480 C510 0.950 . S
H481 C511 0.950 . S
C482 H464 0.951 1_545 S
C482 C483 1.366 . S
C482 C484 1.388 1_545 S
C483 C482 1.366 . S
C483 C487 1.385 . S
C484 H465 0.951 . S
C484 C482 1.388 1_565 S
C484 C485 1.366 1_565 S
C485 C484 1.366 1_545 S
C485 C486 1.414 . S
C485 C488 1.499 . S
C486 H466 0.950 . S
C486 C485 1.414 . S
C486 C487 1.374 . S
C487 H467 0.950 . S
C487 C483 1.385 . S
C487 C486 1.374 . S
C488 C485 1.499 . S
C488 C489 1.373 1_455 S
C488 C490 1.389 1_554 S
C489 H468 0.950 . S
C489 C488 1.373 1_655 S
C489 C505 1.377 1_545 S
C490 C488 1.389 1_556 S
C490 C491 1.524 . S
C490 C504 1.377 1_545 S
C491 C490 1.524 . S
C491 C492 1.397 . S
C491 C496 1.363 1_545 S
C492 H469 0.950 . S
C492 C491 1.397 . S
C492 C493 1.334 . S
C493 H470 0.950 . S
C493 C492 1.334 . S
C493 C494 1.287 . S
C494 C493 1.287 . S
C494 C495 1.524 1_545 S
C494 H513 0.913 . S
C495 H471 0.950 . S
C495 C494 1.524 1_565 S
C495 C496 1.415 . S
C496 H472 0.950 . S
C496 C491 1.363 1_565 S
C496 C495 1.415 . S
C497 H473 0.951 1_565 S
C497 C498 1.366 . S
C497 C499 1.388 1_565 S
C498 C497 1.366 . S
C498 C502 1.385 . S
C499 H474 0.951 . S
C499 C497 1.388 1_545 S
C499 C500 1.366 1_545 S
C500 C499 1.366 1_565 S
C500 C501 1.414 . S
C500 C503 1.499 . S
C501 H475 0.950 . S
C501 C500 1.414 . S
C501 C502 1.374 . S
C502 H476 0.950 . S
C502 C498 1.385 . S
C502 C501 1.374 . S
C503 C500 1.499 . S
C503 C504 1.373 1_655 S
C503 C505 1.389 1_556 S
C504 H477 0.950 . S
C504 C490 1.377 1_565 S
C504 C503 1.373 1_455 S
C505 C489 1.377 1_565 S
C505 C503 1.389 1_554 S
C505 C506 1.524 . S
C506 C505 1.524 . S
C506 C507 1.397 . S
C506 C511 1.363 1_565 S
C507 H478 0.950 . S
C507 C506 1.397 . S
C507 C508 1.334 . S
C508 H479 0.950 . S
C508 C507 1.334 . S
C508 C509 1.287 . S
C509 C508 1.287 . S
C509 C510 1.524 1_565 S
C509 H512 0.999 . S
C510 H480 0.950 . S
C510 C509 1.524 1_545 S
C510 C511 1.415 . S
C511 H481 0.950 . S
C511 C506 1.363 1_545 S
C511 C510 1.415 . S
H512 C509 0.999 . S
H513 C494 0.913 . S
H514 C532 0.949 1_545 S
H515 C534 0.951 . S
H516 C536 0.950 . S
H517 C537 0.950 . S
H518 C539 0.950 . S
H519 C542 0.950 . S
H520 C543 0.950 . S
H521 C545 0.956 . S
H522 C546 0.950 . S
H523 C547 0.949 1_565 S
H524 C549 0.951 . S
H525 C551 0.950 . S
H526 C552 0.950 . S
H527 C554 0.950 . S
H528 C557 0.950 . S
H529 C558 0.950 . S
H530 C560 0.956 . S
H531 C561 0.950 . S
C532 H514 0.949 1_565 S
C532 C533 1.368 . S
C532 C534 1.387 1_565 S
C533 C532 1.368 . S
C533 C537 1.385 . S
C534 H515 0.951 . S
C534 C532 1.387 1_545 S
C534 C535 1.366 1_545 S
C535 C534 1.366 1_565 S
C535 C536 1.414 . S
C535 C538 1.499 . S
C536 H516 0.950 . S
C536 C535 1.414 . S
C536 C537 1.374 . S
C537 H517 0.950 . S
C537 C533 1.385 . S
C537 C536 1.374 . S
C538 C535 1.499 . S
C538 C539 1.373 . S
C538 C540 1.389 1_565 S
C539 H518 0.950 . S
C539 C538 1.373 . S
C539 C555 1.377 1_554 S
C540 C538 1.389 1_545 S
C540 C541 1.526 . S
C540 C554 1.377 1_554 S
C541 C540 1.526 . S
C541 C542 1.389 1_554 S
C541 C546 1.366 . S
C542 H519 0.950 . S
C542 C541 1.389 1_556 S
C542 C543 1.334 . S
C543 H520 0.950 . S
C543 C542 1.334 . S
C543 C544 1.287 . S
C544 C543 1.287 . S
C544 C545 1.515 1_556 S
C544 H563 0.913 . S
C545 H521 0.956 . S
C545 C544 1.515 1_554 S
C545 C546 1.419 . S
C546 H522 0.950 . S
C546 C541 1.366 . S
C546 C545 1.419 . S
C547 H523 0.949 1_545 S
C547 C548 1.368 . S
C547 C549 1.387 1_545 S
C548 C547 1.368 . S
C548 C552 1.385 . S
C549 H524 0.951 . S
C549 C547 1.387 1_565 S
C549 C550 1.366 1_565 S
C550 C549 1.366 1_545 S
C550 C551 1.414 . S
C550 C553 1.499 . S
C551 H525 0.950 . S
C551 C550 1.414 . S
C551 C552 1.374 . S
C552 H526 0.950 . S
C552 C548 1.385 . S
C552 C551 1.374 . S
C553 C550 1.499 . S
C553 C554 1.373 . S
C553 C555 1.389 1_545 S
C554 H527 0.950 . S
C554 C540 1.377 1_556 S
C554 C553 1.373 . S
C555 C539 1.377 1_556 S
C555 C553 1.389 1_565 S
C555 C556 1.526 . S
C556 C555 1.526 . S
C556 C557 1.389 1_556 S
C556 C561 1.366 . S
C557 H528 0.950 . S
C557 C556 1.389 1_554 S
C557 C558 1.334 . S
C558 H529 0.950 . S
C558 C557 1.334 . S
C558 C559 1.287 . S
C559 C558 1.287 . S
C559 C560 1.515 1_554 S
C559 H562 0.999 . S
C560 H530 0.956 . S
C560 C559 1.515 1_556 S
C560 C561 1.419 . S
C561 H531 0.950 . S
C561 C556 1.366 . S
C561 C560 1.419 . S
H562 C559 0.999 . S
H563 C544 0.913 . S
H564 C582 0.951 . S
H565 C584 0.951 . S
H566 C586 0.950 . S
H567 C587 0.950 . S
H568 C589 0.950 . S
H569 C592 0.950 . S
H570 C593 0.950 . S
H571 C595 0.950 . S
H572 C596 0.950 . S
H573 C597 0.951 . S
H574 C599 0.951 . S
H575 C601 0.950 . S
H576 C602 0.950 . S
H577 C604 0.950 . S
H578 C607 0.950 . S
H579 C608 0.950 . S
H580 C610 0.950 . S
H581 C611 0.950 . S
C582 H564 0.951 . S
C582 C583 1.366 . S
C582 C584 1.388 . S
C583 C582 1.366 . S
C583 C587 1.385 . S
C584 H565 0.951 . S
C584 C582 1.388 . S
C584 C585 1.366 . S
C585 C584 1.366 . S
C585 C586 1.414 . S
C585 C588 1.499 . S
C586 H566 0.950 . S
C586 C585 1.414 . S
C586 C587 1.374 . S
C587 H567 0.950 . S
C587 C583 1.385 . S
C587 C586 1.374 . S
C588 C585 1.499 . S
C588 C589 1.373 1_455 S
C588 C590 1.389 . S
C589 H568 0.950 . S
C589 C588 1.373 1_655 S
C589 C605 1.377 . S
C590 C588 1.389 . S
C590 C591 1.524 . S
C590 C604 1.377 . S
C591 C590 1.524 . S
C591 C592 1.397 . S
C591 C596 1.363 . S
C592 H569 0.950 . S
C592 C591 1.397 . S
C592 C593 1.334 . S
C593 H570 0.950 . S
C593 C592 1.334 . S
C593 C594 1.287 . S
C594 C593 1.287 . S
C594 C595 1.524 . S
C594 H613 0.913 . S
C595 H571 0.950 . S
C595 C594 1.524 . S
C595 C596 1.415 . S
C596 H572 0.950 . S
C596 C591 1.363 . S
C596 C595 1.415 . S
C597 H573 0.951 . S
C597 C598 1.366 . S
C597 C599 1.388 . S
C598 C597 1.366 . S
C598 C602 1.385 . S
C599 H574 0.951 . S
C599 C597 1.388 . S
C599 C600 1.366 . S
C600 C599 1.366 . S
C600 C601 1.414 . S
C600 C603 1.499 . S
C601 H575 0.950 . S
C601 C600 1.414 . S
C601 C602 1.374 . S
C602 H576 0.950 . S
C602 C598 1.385 . S
C602 C601 1.374 . S
C603 C600 1.499 . S
C603 C604 1.373 1_655 S
C603 C605 1.389 . S
C604 H577 0.950 . S
C604 C590 1.377 . S
C604 C603 1.373 1_455 S
C605 C589 1.377 . S
C605 C603 1.389 . S
C605 C606 1.524 . S
C606 C605 1.524 . S
C606 C607 1.397 . S
C606 C611 1.363 . S
C607 H578 0.950 . S
C607 C606 1.397 . S
C607 C608 1.334 . S
C608 H579 0.950 . S
C608 C607 1.334 . S
C608 C609 1.287 . S
C609 C608 1.287 . S
C609 C610 1.524 . S
C609 H612 0.999 . S
C610 H580 0.950 . S
C610 C609 1.524 . S
C610 C611 1.415 . S
C611 H581 0.950 . S
C611 C606 1.363 . S
C611 C610 1.415 . S
H612 C609 0.999 . S
H613 C594 0.913 . S
H614 C632 0.951 . S
H615 C634 0.951 . S
H616 C636 0.950 . S
H617 C637 0.950 . S
H618 C639 0.950 . S
H619 C642 0.950 . S
H620 C643 0.950 . S
H621 C645 0.950 . S
H622 C646 0.950 . S
H623 C647 0.951 . S
H624 C649 0.951 . S
H625 C651 0.950 . S
H626 C652 0.950 . S
H627 C654 0.950 . S
H628 C657 0.950 . S
H629 C658 0.950 . S
H630 C660 0.950 . S
H631 C661 0.950 . S
C632 H614 0.951 . S
C632 C633 1.366 . S
C632 C634 1.388 . S
C633 C632 1.366 . S
C633 C637 1.385 . S
C634 H615 0.951 . S
C634 C632 1.388 . S
C634 C635 1.366 . S
C635 C634 1.366 . S
C635 C636 1.414 . S
C635 C638 1.499 . S
C636 H616 0.950 . S
C636 C635 1.414 . S
C636 C637 1.374 . S
C637 H617 0.950 . S
C637 C633 1.385 . S
C637 C636 1.374 . S
C638 C635 1.499 . S
C638 C639 1.373 . S
C638 C640 1.389 . S
C639 H618 0.950 . S
C639 C638 1.373 . S
C639 C655 1.377 . S
C640 C638 1.389 . S
C640 C641 1.524 . S
C640 C654 1.377 . S
C641 C640 1.524 . S
C641 C642 1.397 . S
C641 C646 1.363 . S
C642 H619 0.950 . S
C642 C641 1.397 . S
C642 C643 1.334 . S
C643 H620 0.950 . S
C643 C642 1.334 . S
C643 C644 1.287 . S
C644 C643 1.287 . S
C644 C645 1.524 . S
C644 H663 0.913 . S
C645 H621 0.950 . S
C645 C644 1.524 . S
C645 C646 1.415 . S
C646 H622 0.950 . S
C646 C641 1.363 . S
C646 C645 1.415 . S
C647 H623 0.951 . S
C647 C648 1.366 . S
C647 C649 1.388 . S
C648 C647 1.366 . S
C648 C652 1.385 . S
C649 H624 0.951 . S
C649 C647 1.388 . S
C649 C650 1.366 . S
C650 C649 1.366 . S
C650 C651 1.414 . S
C650 C653 1.499 . S
C651 H625 0.950 . S
C651 C650 1.414 . S
C651 C652 1.374 . S
C652 H626 0.950 . S
C652 C648 1.385 . S
C652 C651 1.374 . S
C653 C650 1.499 . S
C653 C654 1.373 . S
C653 C655 1.389 . S
C654 H627 0.950 . S
C654 C640 1.377 . S
C654 C653 1.373 . S
C655 C639 1.377 . S
C655 C653 1.389 . S
C655 C656 1.524 . S
C656 C655 1.524 . S
C656 C657 1.397 . S
C656 C661 1.363 . S
C657 H628 0.950 . S
C657 C656 1.397 . S
C657 C658 1.334 . S
C658 H629 0.950 . S
C658 C657 1.334 . S
C658 C659 1.287 . S
C659 C658 1.287 . S
C659 C660 1.524 . S
C659 H662 0.999 . S
C660 H630 0.950 . S
C660 C659 1.524 . S
C660 C661 1.415 . S
C661 H631 0.950 . S
C661 C656 1.363 . S
C661 C660 1.415 . S
H662 C659 0.999 . S
H663 C644 0.913 . S
H664 C682 0.951 . S
H665 C684 0.951 . S
H666 C686 0.950 . S
H667 C687 0.950 . S
H668 C689 0.950 . S
H669 C692 0.950 . S
H670 C693 0.950 . S
H671 C695 0.950 . S
H672 C696 0.950 . S
H673 C697 0.951 . S
H674 C699 0.951 . S
H675 C701 0.950 . S
H676 C702 0.950 . S
H677 C704 0.950 . S
H678 C707 0.950 . S
H679 C708 0.950 1_565 S
H680 C710 0.950 . S
H681 C711 0.950 . S
C682 H664 0.951 . S
C682 C683 1.366 . S
C682 C684 1.388 . S
C683 C682 1.366 . S
C683 C687 1.385 . S
C684 H665 0.951 . S
C684 C682 1.388 . S
C684 C685 1.366 . S
C685 C684 1.366 . S
C685 C686 1.414 . S
C685 C688 1.499 . S
C686 H666 0.950 . S
C686 C685 1.414 . S
C686 C687 1.374 . S
C687 H667 0.950 . S
C687 C683 1.385 . S
C687 C686 1.374 . S
C688 C685 1.499 . S
C688 C689 1.373 . S
C688 C690 1.389 . S
C689 H668 0.950 . S
C689 C688 1.373 . S
C689 C705 1.377 . S
C690 C688 1.389 . S
C690 C691 1.524 . S
C690 C704 1.377 . S
C691 C690 1.524 . S
C691 C692 1.397 . S
C691 C696 1.363 . S
C692 H669 0.950 . S
C692 C691 1.397 . S
C692 C693 1.334 . S
C693 H670 0.950 . S
C693 C692 1.334 . S
C693 C694 1.287 . S
C694 C693 1.287 . S
C694 C695 1.524 . S
C694 H713 0.913 . S
C695 H671 0.950 . S
C695 C694 1.524 . S
C695 C696 1.415 . S
C696 H672 0.950 . S
C696 C691 1.363 . S
C696 C695 1.415 . S
C697 H673 0.951 . S
C697 C698 1.366 . S
C697 C699 1.388 . S
C698 C697 1.366 . S
C698 C702 1.385 . S
C699 H674 0.951 . S
C699 C697 1.388 . S
C699 C700 1.366 . S
C700 C699 1.366 . S
C700 C701 1.414 . S
C700 C703 1.499 . S
C701 H675 0.950 . S
C701 C700 1.414 . S
C701 C702 1.374 . S
C702 H676 0.950 . S
C702 C698 1.385 . S
C702 C701 1.374 . S
C703 C700 1.499 . S
C703 C704 1.373 . S
C703 C705 1.389 . S
C704 H677 0.950 . S
C704 C690 1.377 . S
C704 C703 1.373 . S
C705 C689 1.377 . S
C705 C703 1.389 . S
C705 C706 1.524 . S
C706 C705 1.524 . S
C706 C707 1.397 . S
C706 C711 1.363 . S
C707 H678 0.950 . S
C707 C706 1.397 . S
C707 C708 1.334 . S
C708 H679 0.950 1_545 S
C708 C707 1.334 . S
C708 C709 1.287 . S
C709 C708 1.287 . S
C709 C710 1.524 . S
C709 H712 0.999 1_545 S
C710 H680 0.950 . S
C710 C709 1.524 . S
C710 C711 1.415 . S
C711 H681 0.950 . S
C711 C706 1.363 . S
C711 C710 1.415 . S
H712 C709 0.999 1_565 S
H713 C694 0.913 . S
H714 C732 0.951 . S
H715 C734 0.951 . S
H716 C736 0.950 . S
H717 C737 0.950 . S
H718 C739 0.950 . S
H719 C742 0.950 . S
H720 C743 0.950 . S
H721 C745 0.950 . S
H722 C746 0.950 . S
H723 C747 0.951 . S
H724 C749 0.951 . S
H725 C751 0.950 . S
H726 C752 0.950 . S
H727 C754 0.950 . S
H728 C757 0.950 . S
H729 C758 0.950 . S
H730 C760 0.950 . S
H731 C761 0.950 . S
C732 H714 0.951 . S
C732 C733 1.366 . S
C732 C734 1.388 . S
C733 C732 1.366 . S
C733 C737 1.385 . S
C734 H715 0.951 . S
C734 C732 1.388 . S
C734 C735 1.366 . S
C735 C734 1.366 . S
C735 C736 1.414 . S
C735 C738 1.499 . S
C736 H716 0.950 . S
C736 C735 1.414 . S
C736 C737 1.374 . S
C737 H717 0.950 . S
C737 C733 1.385 . S
C737 C736 1.374 . S
C738 C735 1.499 . S
C738 C739 1.373 . S
C738 C740 1.389 . S
C739 H718 0.950 . S
C739 C738 1.373 . S
C739 C755 1.377 . S
C740 C738 1.389 . S
C740 C741 1.524 . S
C740 C754 1.377 . S
C741 C740 1.524 . S
C741 C742 1.397 . S
C741 C746 1.363 . S
C742 H719 0.950 . S
C742 C741 1.397 . S
C742 C743 1.334 . S
C743 H720 0.950 . S
C743 C742 1.334 . S
C743 C744 1.287 . S
C744 C743 1.287 . S
C744 C745 1.524 . S
C744 H763 0.913 . S
C745 H721 0.950 . S
C745 C744 1.524 . S
C745 C746 1.415 . S
C746 H722 0.950 . S
C746 C741 1.363 . S
C746 C745 1.415 . S
C747 H723 0.951 . S
C747 C748 1.366 . S
C747 C749 1.388 . S
C748 C747 1.366 . S
C748 C752 1.385 . S
C749 H724 0.951 . S
C749 C747 1.388 . S
C749 C750 1.366 . S
C750 C749 1.366 . S
C750 C751 1.414 . S
C750 C753 1.499 . S
C751 H725 0.950 . S
C751 C750 1.414 . S
C751 C752 1.374 . S
C752 H726 0.950 . S
C752 C748 1.385 . S
C752 C751 1.374 . S
C753 C750 1.499 . S
C753 C754 1.373 . S
C753 C755 1.389 . S
C754 H727 0.950 . S
C754 C740 1.377 . S
C754 C753 1.373 . S
C755 C739 1.377 . S
C755 C753 1.389 . S
C755 C756 1.524 . S
C756 C755 1.524 . S
C756 C757 1.397 . S
C756 C761 1.363 . S
C757 H728 0.950 . S
C757 C756 1.397 . S
C757 C758 1.334 . S
C758 H729 0.950 . S
C758 C757 1.334 . S
C758 C759 1.287 . S
C759 C758 1.287 . S
C759 C760 1.524 . S
C759 H762 0.999 . S
C760 H730 0.950 . S
C760 C759 1.524 . S
C760 C761 1.415 . S
C761 H731 0.950 . S
C761 C756 1.363 . S
C761 C760 1.415 . S
H762 C759 0.999 . S
H763 C744 0.913 . S
H764 C782 0.951 . S
H765 C784 0.951 . S
H766 C786 0.950 . S
H767 C787 0.950 . S
H768 C789 0.950 . S
H769 C792 0.950 . S
H770 C793 0.950 . S
H771 C795 0.950 . S
H772 C796 0.950 . S
H773 C797 0.951 . S
H774 C799 0.951 . S
H775 C801 0.950 . S
H776 C802 0.950 . S
H777 C804 0.950 . S
H778 C807 0.950 . S
H779 C808 0.950 . S
H780 C810 0.950 . S
H781 C811 0.950 . S
C782 H764 0.951 . S
C782 C783 1.366 . S
C782 C784 1.388 . S
C783 C782 1.366 . S
C783 C787 1.385 . S
C784 H765 0.951 . S
C784 C782 1.388 . S
C784 C785 1.366 . S
C785 C784 1.366 . S
C785 C786 1.414 . S
C785 C788 1.499 . S
C786 H766 0.950 . S
C786 C785 1.414 . S
C786 C787 1.374 . S
C787 H767 0.950 . S
C787 C783 1.385 . S
C787 C786 1.374 . S
C788 C785 1.499 . S
C788 C789 1.373 . S
C788 C790 1.389 . S
C789 H768 0.950 . S
C789 C788 1.373 . S
C789 C805 1.377 . S
C790 C788 1.389 . S
C790 C791 1.524 . S
C790 C804 1.377 . S
C791 C790 1.524 . S
C791 C792 1.397 . S
C791 C796 1.363 . S
C792 H769 0.950 . S
C792 C791 1.397 . S
C792 C793 1.334 . S
C793 H770 0.950 . S
C793 C792 1.334 . S
C793 C794 1.287 . S
C794 C793 1.287 . S
C794 C795 1.524 . S
C794 H813 0.913 . S
C795 H771 0.950 . S
C795 C794 1.524 . S
C795 C796 1.415 . S
C796 H772 0.950 . S
C796 C791 1.363 . S
C796 C795 1.415 . S
C797 H773 0.951 . S
C797 C798 1.366 . S
C797 C799 1.388 . S
C798 C797 1.366 . S
C798 C802 1.385 . S
C799 H774 0.951 . S
C799 C797 1.388 . S
C799 C800 1.366 . S
C800 C799 1.366 . S
C800 C801 1.414 . S
C800 C803 1.499 . S
C801 H775 0.950 . S
C801 C800 1.414 . S
C801 C802 1.374 . S
C802 H776 0.950 . S
C802 C798 1.385 . S
C802 C801 1.374 . S
C803 C800 1.499 . S
C803 C804 1.373 . S
C803 C805 1.389 . S
C804 H777 0.950 . S
C804 C790 1.377 . S
C804 C803 1.373 . S
C805 C789 1.377 . S
C805 C803 1.389 . S
C805 C806 1.524 . S
C806 C805 1.524 . S
C806 C807 1.397 . S
C806 C811 1.363 . S
C807 H778 0.950 . S
C807 C806 1.397 . S
C807 C808 1.334 . S
C808 H779 0.950 . S
C808 C807 1.334 . S
C808 C809 1.287 . S
C809 C808 1.287 . S
C809 C810 1.524 . S
C809 H812 0.999 . S
C810 H780 0.950 . S
C810 C809 1.524 . S
C810 C811 1.415 . S
C811 H781 0.950 . S
C811 C806 1.363 . S
C811 C810 1.415 . S
H812 C809 0.999 . S
H813 C794 0.913 . S
H814 C832 0.951 . S
H815 C834 0.951 . S
H816 C836 0.950 . S
H817 C837 0.950 . S
H818 C839 0.950 . S
H819 C842 0.950 . S
H820 C843 0.950 . S
H821 C845 0.950 . S
H822 C846 0.950 . S
H823 C847 0.951 . S
H824 C849 0.951 . S
H825 C851 0.950 . S
H826 C852 0.950 . S
H827 C854 0.950 . S
H828 C857 0.950 . S
H829 C858 0.950 . S
H830 C860 0.950 . S
H831 C861 0.950 . S
C832 H814 0.951 . S
C832 C833 1.366 . S
C832 C834 1.388 . S
C833 C832 1.366 . S
C833 C837 1.385 . S
C834 H815 0.951 . S
C834 C832 1.388 . S
C834 C835 1.366 . S
C835 C834 1.366 . S
C835 C836 1.414 . S
C835 C838 1.499 . S
C836 H816 0.950 . S
C836 C835 1.414 . S
C836 C837 1.374 . S
C837 H817 0.950 . S
C837 C833 1.385 . S
C837 C836 1.374 . S
C838 C835 1.499 . S
C838 C839 1.373 . S
C838 C840 1.389 . S
C839 H818 0.950 . S
C839 C838 1.373 . S
C839 C855 1.377 . S
C840 C838 1.389 . S
C840 C841 1.524 . S
C840 C854 1.377 . S
C841 C840 1.524 . S
C841 C842 1.397 . S
C841 C846 1.363 . S
C842 H819 0.950 . S
C842 C841 1.397 . S
C842 C843 1.334 . S
C843 H820 0.950 . S
C843 C842 1.334 . S
C843 C844 1.287 . S
C844 C843 1.287 . S
C844 C845 1.524 . S
C844 H863 0.913 . S
C845 H821 0.950 . S
C845 C844 1.524 . S
C845 C846 1.415 . S
C846 H822 0.950 . S
C846 C841 1.363 . S
C846 C845 1.415 . S
C847 H823 0.951 . S
C847 C848 1.366 . S
C847 C849 1.388 . S
C848 C847 1.366 . S
C848 C852 1.385 . S
C849 H824 0.951 . S
C849 C847 1.388 . S
C849 C850 1.366 . S
C850 C849 1.366 . S
C850 C851 1.414 . S
C850 C853 1.499 . S
C851 H825 0.950 . S
C851 C850 1.414 . S
C851 C852 1.374 . S
C852 H826 0.950 . S
C852 C848 1.385 . S
C852 C851 1.374 . S
C853 C850 1.499 . S
C853 C854 1.373 . S
C853 C855 1.389 . S
C854 H827 0.950 . S
C854 C840 1.377 . S
C854 C853 1.373 . S
C855 C839 1.377 . S
C855 C853 1.389 . S
C855 C856 1.524 . S
C856 C855 1.524 . S
C856 C857 1.397 . S
C856 C861 1.363 . S
C857 H828 0.950 . S
C857 C856 1.397 . S
C857 C858 1.334 . S
C858 H829 0.950 . S
C858 C857 1.334 . S
C858 C859 1.287 . S
C859 C858 1.287 . S
C859 C860 1.524 . S
C859 H862 0.999 . S
C860 H830 0.950 . S
C860 C859 1.524 . S
C860 C861 1.415 . S
C861 H831 0.950 . S
C861 C856 1.363 . S
C861 C860 1.415 . S
H862 C859 0.999 . S
H863 C844 0.913 . S
H864 C882 0.951 . S
H865 C884 0.951 . S
H866 C886 0.950 . S
H867 C887 0.950 . S
H868 C889 0.950 . S
H869 C892 0.950 . S
H870 C893 0.950 . S
H871 C895 0.950 . S
H872 C896 0.950 . S
H873 C897 0.951 . S
H874 C899 0.951 . S
H875 C901 0.950 . S
H876 C902 0.950 . S
H877 C904 0.950 . S
H878 C907 0.950 . S
H879 C908 0.950 . S
H880 C910 0.950 . S
H881 C911 0.950 . S
C882 H864 0.951 . S
C882 C883 1.366 . S
C882 C884 1.388 . S
C883 C882 1.366 . S
C883 C887 1.385 . S
C884 H865 0.951 . S
C884 C882 1.388 . S
C884 C885 1.366 . S
C885 C884 1.366 . S
C885 C886 1.414 . S
C885 C888 1.499 . S
C886 H866 0.950 . S
C886 C885 1.414 . S
C886 C887 1.374 . S
C887 H867 0.950 . S
C887 C883 1.385 . S
C887 C886 1.374 . S
C888 C885 1.499 . S
C888 C889 1.373 . S
C888 C890 1.389 . S
C889 H868 0.950 . S
C889 C888 1.373 . S
C889 C905 1.377 . S
C890 C888 1.389 . S
C890 C891 1.524 . S
C890 C904 1.377 . S
C891 C890 1.524 . S
C891 C892 1.397 . S
C891 C896 1.363 . S
C892 H869 0.950 . S
C892 C891 1.397 . S
C892 C893 1.334 . S
C893 H870 0.950 . S
C893 C892 1.334 . S
C893 C894 1.287 . S
C894 C893 1.287 . S
C894 C895 1.524 . S
C894 H913 0.913 . S
C895 H871 0.950 . S
C895 C894 1.524 . S
C895 C896 1.415 . S
C896 H872 0.950 . S
C896 C891 1.363 . S
C896 C895 1.415 . S
C897 H873 0.951 . S
C897 C898 1.366 . S
C897 C899 1.388 . S
C898 C897 1.366 . S
C898 C902 1.385 . S
C899 H874 0.951 . S
C899 C897 1.388 . S
C899 C900 1.366 . S
C900 C899 1.366 . S
C900 C901 1.414 . S
C900 C903 1.499 . S
C901 H875 0.950 . S
C901 C900 1.414 . S
C901 C902 1.374 . S
C902 H876 0.950 . S
C902 C898 1.385 . S
C902 C901 1.374 . S
C903 C900 1.499 . S
C903 C904 1.373 . S
C903 C905 1.389 . S
C904 H877 0.950 . S
C904 C890 1.377 . S
C904 C903 1.373 . S
C905 C889 1.377 . S
C905 C903 1.389 . S
C905 C906 1.524 . S
C906 C905 1.524 . S
C906 C907 1.397 . S
C906 C911 1.363 . S
C907 H878 0.950 . S
C907 C906 1.397 . S
C907 C908 1.334 . S
C908 H879 0.950 . S
C908 C907 1.334 . S
C908 C909 1.287 . S
C909 C908 1.287 . S
C909 C910 1.524 . S
C909 H912 0.999 . S
C910 H880 0.950 . S
C910 C909 1.524 . S
C910 C911 1.415 . S
C911 H881 0.950 . S
C911 C906 1.363 . S
C911 C910 1.415 . S
H912 C909 0.999 . S
H913 C894 0.913 . S
H914 C932 0.951 . S
H915 C934 0.951 . S
H916 C936 0.950 . S
H917 C937 0.950 . S
H918 C939 0.950 . S
H919 C942 0.950 . S
H920 C943 0.950 . S
H921 C945 0.950 . S
H922 C946 0.950 . S
H923 C947 0.951 . S
H924 C949 0.951 . S
H925 C951 0.950 . S
H926 C952 0.950 . S
H927 C954 0.950 . S
H928 C957 0.950 . S
H929 C958 0.950 . S
H930 C960 0.950 . S
H931 C961 0.950 . S
C932 H914 0.951 . S
C932 C933 1.366 . S
C932 C934 1.388 . S
C933 C932 1.366 . S
C933 C937 1.385 . S
C934 H915 0.951 . S
C934 C932 1.388 . S
C934 C935 1.366 . S
C935 C934 1.366 . S
C935 C936 1.414 . S
C935 C938 1.499 . S
C936 H916 0.950 . S
C936 C935 1.414 . S
C936 C937 1.374 . S
C937 H917 0.950 . S
C937 C933 1.385 . S
C937 C936 1.374 . S
C938 C935 1.499 . S
C938 C939 1.373 . S
C938 C940 1.389 . S
C939 H918 0.950 . S
C939 C938 1.373 . S
C939 C955 1.377 . S
C940 C938 1.389 . S
C940 C941 1.524 . S
C940 C954 1.377 . S
C941 C940 1.524 . S
C941 C942 1.397 . S
C941 C946 1.363 . S
C942 H919 0.950 . S
C942 C941 1.397 . S
C942 C943 1.334 . S
C943 H920 0.950 . S
C943 C942 1.334 . S
C943 C944 1.287 . S
C944 C943 1.287 . S
C944 C945 1.524 . S
C944 H963 0.913 . S
C945 H921 0.950 . S
C945 C944 1.524 . S
C945 C946 1.415 . S
C946 H922 0.950 . S
C946 C941 1.363 . S
C946 C945 1.415 . S
C947 H923 0.951 . S
C947 C948 1.366 . S
C947 C949 1.388 . S
C948 C947 1.366 . S
C948 C952 1.385 . S
C949 H924 0.951 . S
C949 C947 1.388 . S
C949 C950 1.366 . S
C950 C949 1.366 . S
C950 C951 1.414 . S
C950 C953 1.499 . S
C951 H925 0.950 . S
C951 C950 1.414 . S
C951 C952 1.374 . S
C952 H926 0.950 . S
C952 C948 1.385 . S
C952 C951 1.374 . S
C953 C950 1.499 . S
C953 C954 1.373 . S
C953 C955 1.389 . S
C954 H927 0.950 . S
C954 C940 1.377 . S
C954 C953 1.373 . S
C955 C939 1.377 . S
C955 C953 1.389 . S
C955 C956 1.524 . S
C956 C955 1.524 . S
C956 C957 1.397 . S
C956 C961 1.363 . S
C957 H928 0.950 . S
C957 C956 1.397 . S
C957 C958 1.334 . S
C958 H929 0.950 . S
C958 C957 1.334 . S
C958 C959 1.287 . S
C959 C958 1.287 . S
C959 C960 1.524 . S
C959 H962 0.999 . S
C960 H930 0.950 . S
C960 C959 1.524 . S
C960 C961 1.415 . S
C961 H931 0.950 . S
C961 C956 1.363 . S
C961 C960 1.415 . S
H962 C959 0.999 . S
H963 C944 0.913 . S
H964 C982 0.951 . S
H965 C984 0.951 . S
H966 C986 0.950 . S
H967 C987 0.950 . S
H968 C989 0.950 . S
H969 C992 0.949 1_545 S
H970 C993 0.950 . S
H971 C995 0.950 . S
H972 C996 0.950 . S
H973 C997 0.951 . S
H974 C999 0.951 . S
H975 C1001 0.950 . S
H976 C1002 0.950 . S
H977 C1004 0.950 . S
H978 C1007 0.950 . S
H979 C1008 0.950 . S
H980 C1010 0.950 . S
H981 C1011 0.950 . S
C982 H964 0.951 . S
C982 C983 1.366 . S
C982 C984 1.388 . S
C983 C982 1.366 . S
C983 C987 1.385 . S
C984 H965 0.951 . S
C984 C982 1.388 . S
C984 C985 1.366 . S
C985 C984 1.366 . S
C985 C986 1.414 . S
C985 C988 1.499 1_545 S
C986 H966 0.950 . S
C986 C985 1.414 . S
C986 C987 1.374 . S
C987 H967 0.950 . S
C987 C983 1.385 . S
C987 C986 1.374 . S
C988 C985 1.499 1_565 S
C988 C989 1.373 . S
C988 C990 1.389 . S
C989 H968 0.950 . S
C989 C988 1.373 . S
C989 C1005 1.377 . S
C990 C988 1.389 . S
C990 C991 1.524 . S
C990 C1004 1.377 . S
C991 C990 1.524 . S
C991 C992 1.403 . S
C991 C996 1.363 . S
C992 H969 0.949 1_565 S
C992 C991 1.403 . S
C992 C993 1.329 1_565 S
C993 H970 0.950 . S
C993 C992 1.329 1_545 S
C993 C994 1.287 . S
C994 C993 1.287 . S
C994 C995 1.524 1_545 S
C994 H1013 0.913 . S
C995 H971 0.950 . S
C995 C994 1.524 1_565 S
C995 C996 1.415 . S
C996 H972 0.950 . S
C996 C991 1.363 . S
C996 C995 1.415 . S
C997 H973 0.951 . S
C997 C998 1.366 . S
C997 C999 1.388 . S
C998 C997 1.366 . S
C998 C1002 1.385 . S
C999 H974 0.951 . S
C999 C997 1.388 . S
C999 C1000 1.366 . S
C1000 C999 1.366 . S
C1000 C1001 1.414 . S
C1000 C1003 1.499 . S
C1001 H975 0.950 . S
C1001 C1000 1.414 . S
C1001 C1002 1.374 . S
C1002 H976 0.950 . S
C1002 C998 1.385 . S
C1002 C1001 1.374 . S
C1003 C1000 1.499 . S
C1003 C1004 1.373 . S
C1003 C1005 1.389 . S
C1004 H977 0.950 . S
C1004 C990 1.377 . S
C1004 C1003 1.373 . S
C1005 C989 1.377 . S
C1005 C1003 1.389 . S
C1005 C1006 1.524 . S
C1006 C1005 1.524 . S
C1006 C1007 1.397 . S
C1006 C1011 1.363 . S
C1007 H978 0.950 . S
C1007 C1006 1.397 . S
C1007 C1008 1.334 . S
C1008 H979 0.950 . S
C1008 C1007 1.334 . S
C1008 C1009 1.287 . S
C1009 C1008 1.287 . S
C1009 C1010 1.524 . S
C1009 H1012 0.999 . S
C1010 H980 0.950 . S
C1010 C1009 1.524 . S
C1010 C1011 1.415 . S
C1011 H981 0.950 . S
C1011 C1006 1.363 . S
C1011 C1010 1.415 . S
H1012 C1009 0.999 . S
H1013 C994 0.913 . S
H1014 C1032 0.951 . S
H1015 C1034 0.951 . S
H1016 C1036 0.950 . S
H1017 C1037 0.950 . S
H1018 C1039 0.950 . S
H1019 C1042 0.950 . S
H1020 C1043 0.950 . S
H1021 C1045 0.950 . S
H1022 C1046 0.950 . S
H1023 C1047 0.951 . S
H1024 C1049 0.951 . S
H1025 C1051 0.950 . S
H1026 C1052 0.950 . S
H1027 C1054 0.950 . S
H1028 C1057 0.950 . S
H1029 C1058 0.950 . S
H1030 C1060 0.950 . S
H1031 C1061 0.950 . S
C1032 H1014 0.951 . S
C1032 C1033 1.366 . S
C1032 C1034 1.388 . S
C1033 C1032 1.366 . S
C1033 C1037 1.385 . S
C1034 H1015 0.951 . S
C1034 C1032 1.388 . S
C1034 C1035 1.366 . S
C1035 C1034 1.366 . S
C1035 C1036 1.414 . S
C1035 C1038 1.499 1_565 S
C1036 H1016 0.950 . S
C1036 C1035 1.414 . S
C1036 C1037 1.374 . S
C1037 H1017 0.950 . S
C1037 C1033 1.385 . S
C1037 C1036 1.374 . S
C1038 C1035 1.499 1_545 S
C1038 C1039 1.373 . S
C1038 C1040 1.389 . S
C1039 H1018 0.950 . S
C1039 C1038 1.373 . S
C1039 C1055 1.377 . S
C1040 C1038 1.389 . S
C1040 C1041 1.524 . S
C1040 C1054 1.377 . S
C1041 C1040 1.524 . S
C1041 C1042 1.397 . S
C1041 C1046 1.363 . S
C1042 H1019 0.950 . S
C1042 C1041 1.397 . S
C1042 C1043 1.334 1_545 S
C1043 H1020 0.950 . S
C1043 C1042 1.334 1_565 S
C1043 C1044 1.287 1_565 S
C1044 C1043 1.287 1_545 S
C1044 C1045 1.524 . S
C1044 H1063 0.913 1_545 S
C1045 H1021 0.950 . S
C1045 C1044 1.524 . S
C1045 C1046 1.415 . S
C1046 H1022 0.950 . S
C1046 C1041 1.363 . S
C1046 C1045 1.415 . S
C1047 H1023 0.951 . S
C1047 C1048 1.366 . S
C1047 C1049 1.388 . S
C1048 C1047 1.366 . S
C1048 C1052 1.385 . S
C1049 H1024 0.951 . S
C1049 C1047 1.388 . S
C1049 C1050 1.366 . S
C1050 C1049 1.366 . S
C1050 C1051 1.414 . S
C1050 C1053 1.499 . S
C1051 H1025 0.950 . S
C1051 C1050 1.414 . S
C1051 C1052 1.374 . S
C1052 H1026 0.950 . S
C1052 C1048 1.385 . S
C1052 C1051 1.374 . S
C1053 C1050 1.499 . S
C1053 C1054 1.373 . S
C1053 C1055 1.389 . S
C1054 H1027 0.950 . S
C1054 C1040 1.377 . S
C1054 C1053 1.373 . S
C1055 C1039 1.377 . S
C1055 C1053 1.389 . S
C1055 C1056 1.524 . S
C1056 C1055 1.524 . S
C1056 C1057 1.397 . S
C1056 C1061 1.363 . S
C1057 H1028 0.950 . S
C1057 C1056 1.397 . S
C1057 C1058 1.334 . S
C1058 H1029 0.950 . S
C1058 C1057 1.334 . S
C1058 C1059 1.287 . S
C1059 C1058 1.287 . S
C1059 C1060 1.524 . S
C1059 H1062 0.999 . S
C1060 H1030 0.950 . S
C1060 C1059 1.524 . S
C1060 C1061 1.415 . S
C1061 H1031 0.950 . S
C1061 C1056 1.363 . S
C1061 C1060 1.415 . S
H1062 C1059 0.999 . S
H1063 C1044 0.913 1_565 S
H1064 C1082 0.951 . S
H1065 C1084 0.951 . S
H1066 C1086 0.950 . S
H1067 C1087 0.950 . S
H1068 C1089 0.950 . S
H1069 C1092 0.950 . S
H1070 C1093 0.950 . S
H1071 C1095 0.950 . S
H1072 C1096 0.950 . S
H1073 C1097 0.951 . S
H1074 C1099 0.951 . S
H1075 C1101 0.950 . S
H1076 C1102 0.950 . S
H1077 C1104 0.950 . S
H1078 C1107 0.950 . S
H1079 C1108 0.950 . S
H1080 C1110 0.950 . S
H1081 C1111 0.950 . S
C1082 H1064 0.951 . S
C1082 C1083 1.366 . S
C1082 C1084 1.388 . S
C1083 C1082 1.366 . S
C1083 C1087 1.385 . S
C1084 H1065 0.951 . S
C1084 C1082 1.388 . S
C1084 C1085 1.366 . S
C1085 C1084 1.366 . S
C1085 C1086 1.414 . S
C1085 C1088 1.499 . S
C1086 H1066 0.950 . S
C1086 C1085 1.414 . S
C1086 C1087 1.374 . S
C1087 H1067 0.950 . S
C1087 C1083 1.385 . S
C1087 C1086 1.374 . S
C1088 C1085 1.499 . S
C1088 C1089 1.373 . S
C1088 C1090 1.389 . S
C1089 H1068 0.950 . S
C1089 C1088 1.373 . S
C1089 C1105 1.377 . S
C1090 C1088 1.389 . S
C1090 C1091 1.524 . S
C1090 C1104 1.377 . S
C1091 C1090 1.524 . S
C1091 C1092 1.397 . S
C1091 C1096 1.363 . S
C1092 H1069 0.950 . S
C1092 C1091 1.397 . S
C1092 C1093 1.334 . S
C1093 H1070 0.950 . S
C1093 C1092 1.334 . S
C1093 C1094 1.287 . S
C1094 C1093 1.287 . S
C1094 C1095 1.524 . S
C1094 H1113 0.913 . S
C1095 H1071 0.950 . S
C1095 C1094 1.524 . S
C1095 C1096 1.415 . S
C1096 H1072 0.950 . S
C1096 C1091 1.363 . S
C1096 C1095 1.415 . S
C1097 H1073 0.951 . S
C1097 C1098 1.366 . S
C1097 C1099 1.388 . S
C1098 C1097 1.366 . S
C1098 C1102 1.385 . S
C1099 H1074 0.951 . S
C1099 C1097 1.388 . S
C1099 C1100 1.366 . S
C1100 C1099 1.366 . S
C1100 C1101 1.414 . S
C1100 C1103 1.499 . S
C1101 H1075 0.950 . S
C1101 C1100 1.414 . S
C1101 C1102 1.374 . S
C1102 H1076 0.950 . S
C1102 C1098 1.385 . S
C1102 C1101 1.374 . S
C1103 C1100 1.499 . S
C1103 C1104 1.373 . S
C1103 C1105 1.389 . S
C1104 H1077 0.950 . S
C1104 C1090 1.377 . S
C1104 C1103 1.373 . S
C1105 C1089 1.377 . S
C1105 C1103 1.389 . S
C1105 C1106 1.524 . S
C1106 C1105 1.524 . S
C1106 C1107 1.397 . S
C1106 C1111 1.363 . S
C1107 H1078 0.950 . S
C1107 C1106 1.397 . S
C1107 C1108 1.334 . S
C1108 H1079 0.950 . S
C1108 C1107 1.334 . S
C1108 C1109 1.287 . S
C1109 C1108 1.287 . S
C1109 C1110 1.524 . S
C1109 H1112 0.999 . S
C1110 H1080 0.950 . S
C1110 C1109 1.524 . S
C1110 C1111 1.415 . S
C1111 H1081 0.950 . S
C1111 C1106 1.363 . S
C1111 C1110 1.415 . S
H1112 C1109 0.999 . S
H1113 C1094 0.913 . S
H1114 C1132 0.951 . S
H1115 C1134 0.951 . S
H1116 C1136 0.950 . S
H1117 C1137 0.950 . S
H1118 C1139 0.950 . S
H1119 C1142 0.950 . S
H1120 C1143 0.950 . S
H1121 C1145 0.950 . S
H1122 C1146 0.950 . S
H1123 C1147 0.951 . S
H1124 C1149 0.951 . S
H1125 C1151 0.950 . S
H1126 C1152 0.950 . S
H1127 C1154 0.950 . S
H1128 C1157 0.950 . S
H1129 C1158 0.950 . S
H1130 C1160 0.950 . S
H1131 C1161 0.950 . S
C1132 H1114 0.951 . S
C1132 C1133 1.366 . S
C1132 C1134 1.388 . S
C1133 C1132 1.366 . S
C1133 C1137 1.385 . S
C1134 H1115 0.951 . S
C1134 C1132 1.388 . S
C1134 C1135 1.366 . S
C1135 C1134 1.366 . S
C1135 C1136 1.414 . S
C1135 C1138 1.499 . S
C1136 H1116 0.950 . S
C1136 C1135 1.414 . S
C1136 C1137 1.374 . S
C1137 H1117 0.950 . S
C1137 C1133 1.385 . S
C1137 C1136 1.374 . S
C1138 C1135 1.499 . S
C1138 C1139 1.373 . S
C1138 C1140 1.389 . S
C1139 H1118 0.950 . S
C1139 C1138 1.373 . S
C1139 C1155 1.377 . S
C1140 C1138 1.389 . S
C1140 C1141 1.524 . S
C1140 C1154 1.377 . S
C1141 C1140 1.524 . S
C1141 C1142 1.397 . S
C1141 C1146 1.363 . S
C1142 H1119 0.950 . S
C1142 C1141 1.397 . S
C1142 C1143 1.334 . S
C1143 H1120 0.950 . S
C1143 C1142 1.334 . S
C1143 C1144 1.287 . S
C1144 C1143 1.287 . S
C1144 C1145 1.524 . S
C1144 H1163 0.913 . S
C1145 H1121 0.950 . S
C1145 C1144 1.524 . S
C1145 C1146 1.415 . S
C1146 H1122 0.950 . S
C1146 C1141 1.363 . S
C1146 C1145 1.415 . S
C1147 H1123 0.951 . S
C1147 C1148 1.366 . S
C1147 C1149 1.388 . S
C1148 C1147 1.366 . S
C1148 C1152 1.385 . S
C1149 H1124 0.951 . S
C1149 C1147 1.388 . S
C1149 C1150 1.366 . S
C1150 C1149 1.366 . S
C1150 C1151 1.414 . S
C1150 C1153 1.499 . S
C1151 H1125 0.950 . S
C1151 C1150 1.414 . S
C1151 C1152 1.374 . S
C1152 H1126 0.950 . S
C1152 C1148 1.385 . S
C1152 C1151 1.374 . S
C1153 C1150 1.499 . S
C1153 C1154 1.373 . S
C1153 C1155 1.389 . S
C1154 H1127 0.950 . S
C1154 C1140 1.377 . S
C1154 C1153 1.373 . S
C1155 C1139 1.377 . S
C1155 C1153 1.389 . S
C1155 C1156 1.524 . S
C1156 C1155 1.524 . S
C1156 C1157 1.397 . S
C1156 C1161 1.363 . S
C1157 H1128 0.950 . S
C1157 C1156 1.397 . S
C1157 C1158 1.334 . S
C1158 H1129 0.950 . S
C1158 C1157 1.334 . S
C1158 C1159 1.287 . S
C1159 C1158 1.287 . S
C1159 C1160 1.524 . S
C1159 H1162 0.999 . S
C1160 H1130 0.950 . S
C1160 C1159 1.524 . S
C1160 C1161 1.415 . S
C1161 H1131 0.950 . S
C1161 C1156 1.363 . S
C1161 C1160 1.415 . S
H1162 C1159 0.999 . S
H1163 C1144 0.913 . S
H1164 C1182 0.951 . S
H1165 C1184 0.951 . S
H1166 C1186 0.950 . S
H1167 C1187 0.950 . S
H1168 C1189 0.950 . S
H1169 C1192 0.950 . S
H1170 C1193 0.950 . S
H1171 C1195 0.950 . S
H1172 C1196 0.950 . S
H1173 C1197 0.951 . S
H1174 C1199 0.951 . S
H1175 C1201 0.950 . S
H1176 C1202 0.950 . S
H1177 C1204 0.950 . S
H1178 C1207 0.950 . S
H1179 C1208 0.950 . S
H1180 C1210 0.950 . S
H1181 C1211 0.950 . S
C1182 H1164 0.951 . S
C1182 C1183 1.366 . S
C1182 C1184 1.388 . S
C1183 C1182 1.366 . S
C1183 C1187 1.385 . S
C1184 H1165 0.951 . S
C1184 C1182 1.388 . S
C1184 C1185 1.366 . S
C1185 C1184 1.366 . S
C1185 C1186 1.414 . S
C1185 C1188 1.499 1_565 S
C1186 H1166 0.950 . S
C1186 C1185 1.414 . S
C1186 C1187 1.374 . S
C1187 H1167 0.950 . S
C1187 C1183 1.385 . S
C1187 C1186 1.374 . S
C1188 C1185 1.499 1_545 S
C1188 C1189 1.373 . S
C1188 C1190 1.389 . S
C1189 H1168 0.950 . S
C1189 C1188 1.373 . S
C1189 C1205 1.377 . S
C1190 C1188 1.389 . S
C1190 C1191 1.524 . S
C1190 C1204 1.377 . S
C1191 C1190 1.524 . S
C1191 C1192 1.397 1_545 S
C1191 C1196 1.363 . S
C1192 H1169 0.950 . S
C1192 C1191 1.397 1_565 S
C1192 C1193 1.334 . S
C1193 H1170 0.950 . S
C1193 C1192 1.334 . S
C1193 C1194 1.287 . S
C1194 C1193 1.287 . S
C1194 C1195 1.524 1_565 S
C1194 H1213 0.913 . S
C1195 H1171 0.950 . S
C1195 C1194 1.524 1_545 S
C1195 C1196 1.415 . S
C1196 H1172 0.950 . S
C1196 C1191 1.363 . S
C1196 C1195 1.415 . S
C1197 H1173 0.951 . S
C1197 C1198 1.366 . S
C1197 C1199 1.388 . S
C1198 C1197 1.366 . S
C1198 C1202 1.385 . S
C1199 H1174 0.951 . S
C1199 C1197 1.388 . S
C1199 C1200 1.366 . S
C1200 C1199 1.366 . S
C1200 C1201 1.414 . S
C1200 C1203 1.499 . S
C1201 H1175 0.950 . S
C1201 C1200 1.414 . S
C1201 C1202 1.374 . S
C1202 H1176 0.950 . S
C1202 C1198 1.385 . S
C1202 C1201 1.374 . S
C1203 C1200 1.499 . S
C1203 C1204 1.373 . S
C1203 C1205 1.389 . S
C1204 H1177 0.950 . S
C1204 C1190 1.377 . S
C1204 C1203 1.373 . S
C1205 C1189 1.377 . S
C1205 C1203 1.389 . S
C1205 C1206 1.524 . S
C1206 C1205 1.524 . S
C1206 C1207 1.397 . S
C1206 C1211 1.363 . S
C1207 H1178 0.950 . S
C1207 C1206 1.397 . S
C1207 C1208 1.334 . S
C1208 H1179 0.950 . S
C1208 C1207 1.334 . S
C1208 C1209 1.287 . S
C1209 C1208 1.287 . S
C1209 C1210 1.524 . S
C1209 H1212 0.999 . S
C1210 H1180 0.950 . S
C1210 C1209 1.524 . S
C1210 C1211 1.415 . S
C1211 H1181 0.950 . S
C1211 C1206 1.363 . S
C1211 C1210 1.415 . S
H1212 C1209 0.999 . S
H1213 C1194 0.913 . S
H1214 C1232 0.951 . S
H1215 C1234 0.951 . S
H1216 C1236 0.950 . S
H1217 C1237 0.950 . S
H1218 C1239 0.950 . S
H1219 C1242 0.950 . S
H1220 C1243 0.950 . S
H1221 C1245 0.950 . S
H1222 C1246 0.950 . S
H1223 C1247 0.951 . S
H1224 C1249 0.951 . S
H1225 C1251 0.950 . S
H1226 C1252 0.950 . S
H1227 C1254 0.950 . S
H1228 C1257 0.950 . S
H1229 C1258 0.950 . S
H1230 C1260 0.950 . S
H1231 C1261 0.950 . S
C1232 H1214 0.951 . S
C1232 C1233 1.366 . S
C1232 C1234 1.388 . S
C1233 C1232 1.366 . S
C1233 C1237 1.385 . S
C1234 H1215 0.951 . S
C1234 C1232 1.388 . S
C1234 C1235 1.366 . S
C1235 C1234 1.366 . S
C1235 C1236 1.414 . S
C1235 C1238 1.499 . S
C1236 H1216 0.950 . S
C1236 C1235 1.414 . S
C1236 C1237 1.374 . S
C1237 H1217 0.950 . S
C1237 C1233 1.385 . S
C1237 C1236 1.374 . S
C1238 C1235 1.499 . S
C1238 C1239 1.373 . S
C1238 C1240 1.389 . S
C1239 H1218 0.950 . S
C1239 C1238 1.373 . S
C1239 C1255 1.377 . S
C1240 C1238 1.389 . S
C1240 C1241 1.524 . S
C1240 C1254 1.377 . S
C1241 C1240 1.524 . S
C1241 C1242 1.397 . S
C1241 C1246 1.363 . S
C1242 H1219 0.950 . S
C1242 C1241 1.397 . S
C1242 C1243 1.334 . S
C1243 H1220 0.950 . S
C1243 C1242 1.334 . S
C1243 C1244 1.287 . S
C1244 C1243 1.287 . S
C1244 C1245 1.524 . S
C1244 H1263 0.913 . S
C1245 H1221 0.950 . S
C1245 C1244 1.524 . S
C1245 C1246 1.415 . S
C1246 H1222 0.950 . S
C1246 C1241 1.363 . S
C1246 C1245 1.415 . S
C1247 H1223 0.951 . S
C1247 C1248 1.366 . S
C1247 C1249 1.388 . S
C1248 C1247 1.366 . S
C1248 C1252 1.385 . S
C1249 H1224 0.951 . S
C1249 C1247 1.388 . S
C1249 C1250 1.366 . S
C1250 C1249 1.366 . S
C1250 C1251 1.414 . S
C1250 C1253 1.499 1_545 S
C1251 H1225 0.950 . S
C1251 C1250 1.414 . S
C1251 C1252 1.374 . S
C1252 H1226 0.950 . S
C1252 C1248 1.385 . S
C1252 C1251 1.374 . S
C1253 C1250 1.499 1_565 S
C1253 C1254 1.373 . S
C1253 C1255 1.389 . S
C1254 H1227 0.950 . S
C1254 C1240 1.377 . S
C1254 C1253 1.373 . S
C1255 C1239 1.377 . S
C1255 C1253 1.389 . S
C1255 C1256 1.524 . S
C1256 C1255 1.524 . S
C1256 C1257 1.397 1_565 S
C1256 C1261 1.363 . S
C1257 H1228 0.950 . S
C1257 C1256 1.397 1_545 S
C1257 C1258 1.334 . S
C1258 H1229 0.950 . S
C1258 C1257 1.334 . S
C1258 C1259 1.287 . S
C1259 C1258 1.287 . S
C1259 C1260 1.524 1_545 S
C1259 H1262 0.999 . S
C1260 H1230 0.950 . S
C1260 C1259 1.524 1_565 S
C1260 C1261 1.415 . S
C1261 H1231 0.950 . S
C1261 C1256 1.363 . S
C1261 C1260 1.415 . S
H1262 C1259 0.999 . S
H1263 C1244 0.913 . S
C283 C21 1.482 . S
C298 C54 1.481 . S
C333 C120 1.482 . S
C348 C87 1.482 . S
C383 C153 1.482 . S
C398 C186 1.482 . S
C433 C252 1.481 . S
C448 C219 1.482 . S
C483 C18 1.060 . S
C498 C150 1.060 . S
C533 C51 1.061 . S
C548 C183 1.061 . S
C583 C84 1.060 . S
C598 C216 1.060 . S
C633 C117 1.060 . S
C648 C249 1.060 . S
C683 C73 1.371 . S
C698 C7 1.371 . S
C733 C106 1.372 . S
C748 C40 1.371 . S
C783 C139 1.372 . S
C798 C205 1.372 . S
C833 C172 1.372 . S
C848 C238 1.372 . S
C883 N13 1.197 . S
C898 N2 1.195 . S
C933 N46 1.197 . S
C948 N35 1.195 . S
C983 N68 1.195 . S
C998 N79 1.197 . S
C1033 N101 1.195 . S
C1048 N112 1.197 . S
C1083 N134 1.195 . S
C1098 N145 1.197 . S
C1133 N178 1.197 . S
C1148 N167 1.195 . S
C1183 N200 1.195 . S
C1198 N211 1.197 . S
C1233 N244 1.196 . S
C1248 N233 1.195 . S
