# Generated by pormake.
# Topology uns, (4)-cn, num edge types: 1
# Building blocks:
#     Node 0, Type 0, BuildingBlock: MUDLON_clean_sbu_0, # of connection points: 4
#     Node 1, Type 0, BuildingBlock: MUDLON_clean_sbu_0, # of connection points: 4
#     Node 2, Type 0, BuildingBlock: MUDLON_clean_sbu_0, # of connection points: 4
#     Node 3, Type 0, BuildingBlock: MUDLON_clean_sbu_0, # of connection points: 4
#     Node 4, Type 0, BuildingBlock: MUDLON_clean_sbu_0, # of connection points: 4
#     Node 5, Type 0, BuildingBlock: MUDLON_clean_sbu_0, # of connection points: 4
#     Node 6, Type 0, BuildingBlock: MUDLON_clean_sbu_0, # of connection points: 4
#     Node 7, Type 0, BuildingBlock: MUDLON_clean_sbu_0, # of connection points: 4
#     Node 8, Type 0, BuildingBlock: MUDLON_clean_sbu_0, # of connection points: 4
#     Node 9, Type 0, BuildingBlock: MUDLON_clean_sbu_0, # of connection points: 4
#     Node 10, Type 0, BuildingBlock: MUDLON_clean_sbu_0, # of connection points: 4
#     Node 11, Type 0, BuildingBlock: MUDLON_clean_sbu_0, # of connection points: 4
#     Node 12, Type 0, BuildingBlock: MUDLON_clean_sbu_0, # of connection points: 4
#     Node 13, Type 0, BuildingBlock: MUDLON_clean_sbu_0, # of connection points: 4
#     Node 14, Type 0, BuildingBlock: MUDLON_clean_sbu_0, # of connection points: 4
#     Node 15, Type 0, BuildingBlock: MUDLON_clean_sbu_0, # of connection points: 4
#     Node 16, Type 0, BuildingBlock: MUDLON_clean_sbu_0, # of connection points: 4
#     Node 17, Type 0, BuildingBlock: MUDLON_clean_sbu_0, # of connection points: 4
#     Node 18, Type 0, BuildingBlock: MUDLON_clean_sbu_0, # of connection points: 4
#     Node 19, Type 0, BuildingBlock: MUDLON_clean_sbu_0, # of connection points: 4
#     Node 20, Type 0, BuildingBlock: MUDLON_clean_sbu_0, # of connection points: 4
#     Node 21, Type 0, BuildingBlock: MUDLON_clean_sbu_0, # of connection points: 4
#     Node 22, Type 0, BuildingBlock: MUDLON_clean_sbu_0, # of connection points: 4
#     Node 23, Type 0, BuildingBlock: MUDLON_clean_sbu_0, # of connection points: 4
#     Node 24, Type 0, BuildingBlock: MUDLON_clean_sbu_0, # of connection points: 4
#     Node 25, Type 0, BuildingBlock: MUDLON_clean_sbu_0, # of connection points: 4
#     Node 26, Type 0, BuildingBlock: MUDLON_clean_sbu_0, # of connection points: 4
#     Node 27, Type 0, BuildingBlock: MUDLON_clean_sbu_0, # of connection points: 4
#     Node 28, Type 0, BuildingBlock: MUDLON_clean_sbu_0, # of connection points: 4
#     Node 29, Type 0, BuildingBlock: MUDLON_clean_sbu_0, # of connection points: 4
#     Node 30, Type 0, BuildingBlock: MUDLON_clean_sbu_0, # of connection points: 4
#     Node 31, Type 0, BuildingBlock: MUDLON_clean_sbu_0, # of connection points: 4
#     Node 32, Type 0, BuildingBlock: MUDLON_clean_sbu_0, # of connection points: 4
#     Node 33, Type 0, BuildingBlock: MUDLON_clean_sbu_0, # of connection points: 4
#     Node 34, Type 0, BuildingBlock: MUDLON_clean_sbu_0, # of connection points: 4
#     Node 35, Type 0, BuildingBlock: MUDLON_clean_sbu_0, # of connection points: 4
#     Edge 36, Type (0, 0), None
#     Edge 37, Type (0, 0), None
#     Edge 38, Type (0, 0), None
#     Edge 39, Type (0, 0), None
#     Edge 40, Type (0, 0), None
#     Edge 41, Type (0, 0), None
#     Edge 42, Type (0, 0), None
#     Edge 43, Type (0, 0), None
#     Edge 44, Type (0, 0), None
#     Edge 45, Type (0, 0), None
#     Edge 46, Type (0, 0), None
#     Edge 47, Type (0, 0), None
#     Edge 48, Type (0, 0), None
#     Edge 49, Type (0, 0), None
#     Edge 50, Type (0, 0), None
#     Edge 51, Type (0, 0), None
#     Edge 52, Type (0, 0), None
#     Edge 53, Type (0, 0), None
#     Edge 54, Type (0, 0), None
#     Edge 55, Type (0, 0), None
#     Edge 56, Type (0, 0), None
#     Edge 57, Type (0, 0), None
#     Edge 58, Type (0, 0), None
#     Edge 59, Type (0, 0), None
#     Edge 60, Type (0, 0), None
#     Edge 61, Type (0, 0), None
#     Edge 62, Type (0, 0), None
#     Edge 63, Type (0, 0), None
#     Edge 64, Type (0, 0), None
#     Edge 65, Type (0, 0), None
#     Edge 66, Type (0, 0), None
#     Edge 67, Type (0, 0), None
#     Edge 68, Type (0, 0), None
#     Edge 69, Type (0, 0), None
#     Edge 70, Type (0, 0), None
#     Edge 71, Type (0, 0), None
#     Edge 72, Type (0, 0), None
#     Edge 73, Type (0, 0), None
#     Edge 74, Type (0, 0), None
#     Edge 75, Type (0, 0), None
#     Edge 76, Type (0, 0), None
#     Edge 77, Type (0, 0), None
#     Edge 78, Type (0, 0), None
#     Edge 79, Type (0, 0), None
#     Edge 80, Type (0, 0), None
#     Edge 81, Type (0, 0), None
#     Edge 82, Type (0, 0), None
#     Edge 83, Type (0, 0), None
#     Edge 84, Type (0, 0), None
#     Edge 85, Type (0, 0), None
#     Edge 86, Type (0, 0), None
#     Edge 87, Type (0, 0), None
#     Edge 88, Type (0, 0), None
#     Edge 89, Type (0, 0), None
#     Edge 90, Type (0, 0), None
#     Edge 91, Type (0, 0), None
#     Edge 92, Type (0, 0), None
#     Edge 93, Type (0, 0), None
#     Edge 94, Type (0, 0), None
#     Edge 95, Type (0, 0), None
#     Edge 96, Type (0, 0), None
#     Edge 97, Type (0, 0), None
#     Edge 98, Type (0, 0), None
#     Edge 99, Type (0, 0), None
#     Edge 100, Type (0, 0), None
#     Edge 101, Type (0, 0), None
#     Edge 102, Type (0, 0), None
#     Edge 103, Type (0, 0), None
#     Edge 104, Type (0, 0), None
#     Edge 105, Type (0, 0), None
#     Edge 106, Type (0, 0), None
#     Edge 107, Type (0, 0), None
# Relax obj value: 0.026
# Max RMSD: 0.174
# Mean RMSD: 0.174
data_MOF--net-uns--node1-MUDLON_clean_sbu_0--edge1-none
_symmetry_space_group_name_H-M    P1
_symmetry_Int_Tables_number       1
_symmetry_cell_setting            triclinic
loop_
_symmetry_equiv_pos_as_xyz
'x, y, z'
_cell_length_a     26.691402
_cell_length_b     27.567741
_cell_length_c     26.964954
_cell_angle_alpha  90.168663
_cell_angle_beta   89.999005
_cell_angle_gamma 118.95395
loop_
_atom_site_label
_atom_site_type_symbol
_atom_site_fract_x
_atom_site_fract_y
_atom_site_fract_z
_atom_type_partial_charge
Mg0 Mg 0.31417 0.19469 0.05552 0.0
C1 C 0.39331 0.30601 0.0955 0.0
O2 O 0.36914 0.27895 0.13604 0.0
C3 C 0.25918 0.0946 0.9912 0.0
O4 O 0.21635 0.08836 0.01939 0.0
C5 C 0.34075 0.17021 0.16079 0.0
O6 O 0.29986 0.18013 0.17619 0.0
O7 O 0.34868 0.16738 0.11489 0.0
O8 O 0.37966 0.28106 0.05367 0.0
O9 O 0.23221 0.19513 0.05849 0.0
C10 C 0.23179 0.24012 0.04836 0.0
O11 O 0.28052 0.28628 0.04451 0.0
O12 O 0.30708 0.13896 0.995 0.0
Mg13 Mg 0.84659 0.08519 0.06829 0.0
C14 C 0.80172 0.96015 0.05897 0.0
O15 O 0.75564 0.95752 0.07896 0.0
C16 C 0.85867 0.16004 0.15111 0.0
O17 O 0.83791 0.17789 0.11576 0.0
C18 C 0.94843 0.14663 0.99805 0.0
O19 O 0.95563 0.1035 1.00642 0.0
O20 O 0.90553 0.14842 0.01691 0.0
O21 O 0.84658 0.00706 0.05407 0.0
O22 O 0.75781 0.06572 0.06215 0.0
C23 C 0.72808 0.05234 0.10174 0.0
O24 O 0.75215 0.05262 0.14424 0.0
O25 O 0.86992 0.12093 0.14196 0.0
Mg26 Mg 0.93339 0.72299 0.06386 0.0
C27 C 0.05752 0.80579 0.04222 0.0
O28 O 0.05949 0.75943 0.037 0.0
C29 C 0.84217 0.64821 0.13208 0.0
O30 O 0.82585 0.62215 0.08938 0.0
C31 C 0.87531 0.76551 0.99205 0.0
O32 O 0.92104 0.81311 1.00148 0.0
O33 O 0.87132 0.72106 1.01006 0.0
O34 O 1.01127 0.80403 0.05715 0.0
O35 O 0.96173 0.66222 0.05445 0.0
C36 C 0.97638 0.64712 0.09399 0.0
O37 O 0.96903 0.66488 0.13714 0.0
O38 O 0.88653 0.69605 0.13373 0.0
Mg39 Mg 0.21371 0.28338 0.46224 0.0
C40 C 0.25501 0.20056 0.48392 0.0
O41 O 0.30335 0.24692 0.48916 0.0
C42 C 0.19717 0.35813 0.39406 0.0
O43 O 0.20686 0.38414 0.43679 0.0
C44 C 0.11312 0.24088 0.53406 0.0
O45 O 0.11134 0.1933 0.52477 0.0
O46 O 0.15353 0.28532 0.51599 0.0
O47 O 0.21054 0.20233 0.46897 0.0
O48 O 0.3028 0.34416 0.47168 0.0
C49 C 0.33256 0.35932 0.43215 0.0
O50 O 0.30748 0.34159 0.38899 0.0
O51 O 0.19377 0.31032 0.39237 0.0
Mg52 Mg 0.76464 0.92105 0.45787 0.0
C53 C 0.84484 0.04607 0.46715 0.0
O54 O 0.80138 0.0487 0.44721 0.0
C55 C 0.70179 0.84619 0.37509 0.0
O56 O 0.6632 0.82834 0.41047 0.0
C57 C 0.8051 0.85966 0.52809 0.0
O58 O 0.85542 0.90279 0.51967 0.0
O59 O 0.76039 0.85785 0.50925 0.0
O60 O 0.84278 0.99915 0.47205 0.0
O61 O 0.69535 0.94053 0.46411 0.0
C62 C 0.67892 0.95388 0.42455 0.0
O63 O 0.70261 0.95357 0.38201 0.0
O64 O 0.75216 0.8853 0.38421 0.0
Mg65 Mg 0.12288 0.81155 0.47047 0.0
C66 C 0.0906 0.70013 0.43072 0.0
O67 O 0.09339 0.72709 0.39014 0.0
C68 C 0.16791 0.91169 0.53479 0.0
O69 O 0.13127 0.91789 0.50664 0.0
C70 C 0.17381 0.83566 0.36514 0.0
O71 O 0.12293 0.82555 0.34977 0.0
O72 O 0.18468 0.83877 0.41104 0.0
O73 O 0.102 0.72519 0.47251 0.0
O74 O 0.04045 0.81107 0.46753 0.0
C75 C 0.99504 0.76611 0.47775 0.0
O76 O 0.99762 0.71996 0.48167 0.0
O77 O 0.17151 0.86736 0.53095 0.0
Mg78 Mg 0.74181 0.8116 0.96801 0.0
C79 C 0.82367 0.76487 0.97219 0.0
O80 O 0.77498 0.71843 0.974 0.0
C81 C 0.71451 0.83473 0.86254 0.0
O82 O 0.75489 0.824 0.84727 0.0
C83 C 0.79761 0.9117 0.03239 0.0
O84 O 0.8405 0.91772 1.00441 0.0
O85 O 0.74956 0.86759 0.02837 0.0
O86 O 0.82332 0.81033 0.96434 0.0
O87 O 0.67594 0.72572 0.97169 0.0
C88 C 0.66086 0.70007 0.93027 0.0
O89 O 0.68382 0.72634 0.88912 0.0
O90 O 0.70704 0.83839 0.90842 0.0
Mg91 Mg 0.20794 0.9208 0.95221 0.0
C92 C 0.32698 0.95252 0.9219 0.0
O93 O 0.30569 0.95753 0.87956 0.0
C94 C 0.10463 0.85721 0.02187 0.0
O95 O 0.09912 0.90186 0.01806 0.0
C96 C 0.19876 0.84935 0.86788 0.0
O97 O 0.21842 0.83062 0.9034 0.0
O98 O 0.18715 0.88817 0.8773 0.0
O99 O 0.29534 0.93676 0.96033 0.0
O100 O 0.20975 0.9995 0.96842 0.0
C101 C 0.25498 0.04628 0.96426 0.0
O102 O 0.30103 0.04884 0.94431 0.0
O103 O 0.14651 0.85554 1.00071 0.0
Mg104 Mg 0.12 0.28015 0.95671 0.0
C105 C 0.99495 0.19691 0.97555 0.0
O106 O 0.99105 0.24255 0.9754 0.0
C107 C 0.14263 0.28826 0.84339 0.0
O108 O 0.08961 0.2479 0.83994 0.0
C109 C 0.1797 0.23874 0.02873 0.0
O110 O 0.13336 0.19092 0.02167 0.0
O111 O 0.18347 0.2824 1.00908 0.0
O112 O 0.04254 0.19916 0.96454 0.0
O113 O 0.09181 0.34071 0.97002 0.0
C114 C 0.08283 0.36384 0.93283 0.0
O115 O 0.09813 0.35671 0.8884 0.0
O116 O 0.16488 0.30551 0.88578 0.0
Mg117 Mg 0.84318 0.72616 0.56938 0.0
C118 C 0.80138 0.80941 0.5506 0.0
O119 O 0.75183 0.76378 0.55085 0.0
C120 C 0.85764 0.71813 0.6827 0.0
O121 O 0.84498 0.75849 0.6861 0.0
C122 C 0.94434 0.76753 0.49736 0.0
O123 O 0.94583 0.81536 0.50437 0.0
O124 O 0.90444 0.72389 0.51703 0.0
O125 O 0.84673 0.80715 0.56153 0.0
O126 O 0.75442 0.66563 0.5561 0.0
C127 C 0.72231 0.64253 0.5933 0.0
O128 O 0.74474 0.64962 0.63772 0.0
O129 O 0.86267 0.70085 0.64033 0.0
Mg130 Mg 0.29035 0.08549 0.57393 0.0
C131 C 0.37759 0.05373 0.60439 0.0
O132 O 0.35117 0.04868 0.64668 0.0
C133 C 0.25069 0.14914 0.50427 0.0
O134 O 0.20051 0.10449 0.50808 0.0
C135 C 0.35252 0.1569 0.6583 0.0
O136 O 0.39095 0.17563 0.62281 0.0
O137 O 0.30209 0.11809 0.64885 0.0
O138 O 0.36182 0.06954 0.56592 0.0
O139 O 0.2135 0.00677 0.55764 0.0
C140 C 0.21199 0.96 0.56176 0.0
O141 O 0.25549 0.95747 0.58172 0.0
O142 O 0.29422 0.15077 0.52543 0.0
Mg143 Mg 0.93348 0.19456 0.55815 0.0
C144 C 0.06206 0.24148 0.55381 0.0
O145 O 0.05965 0.28783 0.55173 0.0
C146 C 0.88297 0.17133 0.66362 0.0
O147 O 0.93397 0.18177 0.67895 0.0
C148 C 0.88919 0.09451 0.49373 0.0
O149 O 0.92608 0.08848 0.52168 0.0
O150 O 0.88524 0.13861 0.49777 0.0
O151 O 1.01633 0.19599 0.56183 0.0
O152 O 0.9531 0.28031 0.55469 0.0
C153 C 0.96425 0.30588 0.59618 0.0
O154 O 0.96223 0.27969 0.63707 0.0
O155 O 0.87193 0.16779 0.61773 0.0
Mg156 Mg 0.98121 0.52829 0.38898 0.0
C157 C 0.06159 0.64004 0.42853 0.0
O158 O 0.04074 0.61276 0.46966 0.0
C159 C 0.92619 0.42818 0.32468 0.0
O160 O 0.88342 0.42192 0.35295 0.0
C161 C 1.00763 0.50371 0.49422 0.0
O162 O 0.96731 0.51454 0.50949 0.0
O163 O 1.01547 0.50064 0.44833 0.0
O164 O 0.04613 0.61497 0.38683 0.0
O165 O 0.89902 0.52832 0.39189 0.0
C166 C 0.89836 0.57332 0.38228 0.0
O167 O 0.94695 0.61973 0.37919 0.0
O168 O 0.97408 0.47258 0.32841 0.0
Mg169 Mg 0.51334 0.41853 0.40168 0.0
C170 C 0.46852 0.29351 0.39241 0.0
O171 O 0.42243 0.29089 0.41236 0.0
C172 C 0.52541 0.49342 0.48444 0.0
O173 O 0.50471 0.51129 0.44906 0.0
C174 C 0.61516 0.47991 0.33145 0.0
O175 O 0.62234 0.43678 0.33985 0.0
O176 O 0.57228 0.48173 0.3503 0.0
O177 O 0.51338 0.34042 0.38751 0.0
O178 O 0.42458 0.39907 0.39546 0.0
C179 C 0.39481 0.38577 0.43503 0.0
O180 O 0.41882 0.3861 0.47758 0.0
O181 O 0.53663 0.45429 0.47534 0.0
Mg182 Mg 0.60023 0.05631 0.39734 0.0
C183 C 0.72434 0.13918 0.37561 0.0
O184 O 0.72635 0.09284 0.37038 0.0
C185 C 0.50893 0.98158 0.46551 0.0
O186 O 0.49261 0.95557 0.42278 0.0
C187 C 0.54203 0.09871 0.32554 0.0
O188 O 0.58784 0.14631 0.33477 0.0
O189 O 0.53806 0.0543 0.34362 0.0
O190 O 0.67808 0.13738 0.39057 0.0
O191 O 0.62857 0.99554 0.3879 0.0
C192 C 0.64313 0.98034 0.42743 0.0
O193 O 0.63573 0.99801 0.47061 0.0
O194 O 0.55335 0.02937 0.46721 0.0
Mg195 Mg 0.8802 0.61663 0.79588 0.0
C196 C 0.92154 0.53382 0.81738 0.0
O197 O 0.96988 0.58019 0.82264 0.0
C198 C 0.86364 0.69142 0.72773 0.0
O199 O 0.87342 0.7175 0.77042 0.0
C200 C 0.77961 0.57394 0.86766 0.0
O201 O 0.77757 0.52634 0.85784 0.0
O202 O 0.82015 0.61847 0.84986 0.0
O203 O 0.87706 0.53559 0.80247 0.0
O204 O 0.96932 0.67739 0.80521 0.0
C205 C 0.99903 0.69251 0.76565 0.0
O206 O 0.97387 0.67479 0.72251 0.0
O207 O 0.86017 0.64359 0.72607 0.0
Mg208 Mg 0.43127 0.25459 0.79126 0.0
C209 C 0.51144 0.37967 0.80054 0.0
O210 O 0.46802 0.3823 0.78051 0.0
C211 C 0.36853 0.17974 0.70844 0.0
O212 O 0.32991 0.16187 0.74379 0.0
C213 C 0.47166 0.19311 0.86148 0.0
O214 O 0.52199 0.23622 0.85311 0.0
O215 O 0.42698 0.19134 0.84263 0.0
O216 O 0.50936 0.33274 0.80549 0.0
O217 O 0.36193 0.27403 0.79739 0.0
C218 C 0.34557 0.28739 0.75779 0.0
O219 O 0.36936 0.28712 0.71529 0.0
O220 O 0.41888 0.21886 0.71758 0.0
Mg221 Mg 0.78927 0.14485 0.8041 0.0
C222 C 0.75697 0.03353 0.76413 0.0
O223 O 0.75979 0.0606 0.72362 0.0
C224 C 0.8344 0.24498 0.86837 0.0
O225 O 0.79781 0.25121 0.84018 0.0
C226 C 0.84035 0.16927 0.69882 0.0
O227 O 0.78956 0.1594 0.68342 0.0
O228 O 0.8511 0.1721 0.74473 0.0
O229 O 0.76835 0.05847 0.80597 0.0
O230 O 0.7069 0.14446 0.8011 0.0
C231 C 0.66147 0.09949 0.81122 0.0
O232 O 0.66401 0.05332 0.81509 0.0
O233 O 0.83792 0.20061 0.8646 0.0
Mg234 Mg 0.40866 0.14497 0.30148 0.0
C235 C 0.49033 0.09807 0.30585 0.0
O236 O 0.44157 0.05173 0.30808 0.0
C237 C 0.38131 0.16813 0.196 0.0
O238 O 0.42195 0.15783 0.18064 0.0
C239 C 0.46442 0.24506 0.36585 0.0
O240 O 0.50733 0.25108 0.33789 0.0
O241 O 0.41638 0.20096 0.36183 0.0
O242 O 0.49007 0.14353 0.29775 0.0
O243 O 0.34247 0.05925 0.3049 0.0
C244 C 0.32838 0.03371 0.26339 0.0
O245 O 0.35309 0.05988 0.22263 0.0
O246 O 0.37381 0.17166 0.24189 0.0
Mg247 Mg 0.87478 0.25432 0.28561 0.0
C248 C 0.99376 0.28601 0.25514 0.0
O249 O 0.97241 0.29109 0.21286 0.0
C250 C 0.77142 0.19062 0.35526 0.0
O251 O 0.76584 0.23525 0.35144 0.0
C252 C 0.8655 0.18288 0.20124 0.0
O253 O 0.88518 0.16414 0.23674 0.0
O254 O 0.8539 0.22171 0.21069 0.0
O255 O 0.96218 0.27022 0.29362 0.0
O256 O 0.87672 0.33308 0.3019 0.0
C257 C 0.92195 0.37986 0.29771 0.0
O258 O 0.96796 0.38241 0.27768 0.0
O259 O 0.81334 0.18902 0.33411 0.0
Mg260 Mg 0.78678 0.61342 0.29036 0.0
C261 C 0.6617 0.53018 0.30897 0.0
O262 O 0.65781 0.57582 0.30878 0.0
C263 C 0.80946 0.62151 0.1771 0.0
O264 O 0.75643 0.58117 0.17369 0.0
C265 C 0.84635 0.57185 0.36235 0.0
O266 O 0.80022 0.52398 0.35482 0.0
O267 O 0.85007 0.6156 0.34294 0.0
O268 O 0.70931 0.53244 0.29806 0.0
O269 O 0.75852 0.67395 0.30355 0.0
C270 C 0.74958 0.69707 0.26633 0.0
O271 O 0.76498 0.69 0.22193 0.0
O272 O 0.83175 0.63877 0.21948 0.0
Mg273 Mg 0.50964 0.05954 0.90285 0.0
C274 C 0.46787 0.14281 0.88397 0.0
O275 O 0.41833 0.09718 0.88412 0.0
C276 C 0.52417 0.0514 0.01618 0.0
O277 O 0.51148 0.09174 0.01965 0.0
C278 C 0.61077 0.10091 0.83084 0.0
O279 O 0.61229 0.14875 0.8379 0.0
O280 O 0.57086 0.05726 0.85048 0.0
O281 O 0.5132 0.14054 0.895 0.0
O282 O 0.4209 0.99899 0.88956 0.0
C283 C 0.3888 0.97582 0.92674 0.0
O284 O 0.41121 0.9829 0.97117 0.0
O285 O 0.52918 0.03418 0.97377 0.0
Mg286 Mg 0.95695 0.41879 0.90735 0.0
C287 C 0.0443 0.38712 0.93768 0.0
O288 O 1.01802 0.38212 0.98003 0.0
C289 C 0.91725 0.4824 0.83769 0.0
O290 O 0.86707 0.43774 0.84149 0.0
C291 C 1.01921 0.49026 0.99165 0.0
O292 O 0.05758 0.509 0.95612 0.0
O293 O 0.96877 0.45142 0.98226 0.0
O294 O 0.0284 0.40285 0.89923 0.0
O295 O 0.88006 0.34009 0.89114 0.0
C296 C 0.87851 0.29331 0.89531 0.0
O297 O 0.92201 0.29076 0.91527 0.0
O298 O 0.96078 0.48405 0.85886 0.0
Mg299 Mg 0.60012 0.52819 0.89149 0.0
C300 C 0.72871 0.57458 0.88778 0.0
O301 O 0.72673 0.62118 0.88665 0.0
C302 C 0.54967 0.50478 0.99691 0.0
O303 O 0.60102 0.51617 1.01208 0.0
C304 C 0.55577 0.42811 0.82712 0.0
O305 O 0.59256 0.42205 0.85518 0.0
O306 O 0.55191 0.47227 0.83106 0.0
O307 O 0.68272 0.52911 0.89513 0.0
O308 O 0.62085 0.61432 0.88766 0.0
C309 C 0.62998 0.64002 0.92896 0.0
O310 O 0.62366 0.6135 0.97054 0.0
O311 O 0.53847 0.50106 0.95104 0.0
Mg312 Mg 0.64776 0.86175 0.72209 0.0
C313 C 0.728 0.97344 0.7618 0.0
O314 O 0.70714 0.94604 0.80288 0.0
C315 C 0.59285 0.76163 0.65784 0.0
O316 O 0.5501 0.75534 0.68616 0.0
C317 C 0.67405 0.83692 0.82728 0.0
O318 O 0.6336 0.84754 0.84256 0.0
O319 O 0.68205 0.83409 0.78138 0.0
O320 O 0.71261 0.94847 0.72006 0.0
O321 O 0.56553 0.86164 0.72506 0.0
C322 C 0.56479 0.90663 0.71561 0.0
O323 O 0.61334 0.95311 0.71265 0.0
O324 O 0.6407 0.80608 0.6615 0.0
Mg325 Mg 0.17975 0.75157 0.735 0.0
C326 C 0.1348 0.62646 0.72576 0.0
O327 O 0.08875 0.62384 0.74581 0.0
C328 C 0.19194 0.82648 0.81776 0.0
O329 O 0.17125 0.84437 0.78238 0.0
C330 C 0.28163 0.81307 0.66479 0.0
O331 O 0.28886 0.76997 0.67317 0.0
O332 O 0.23869 0.81481 0.68363 0.0
O333 O 0.17964 0.67339 0.72078 0.0
O334 O 0.091 0.73218 0.72886 0.0
C335 C 0.06128 0.7189 0.76846 0.0
O336 O 0.08532 0.71921 0.81098 0.0
O337 O 0.20312 0.78732 0.80866 0.0
Mg338 Mg 0.26686 0.38976 0.7303 0.0
C339 C 0.39102 0.47262 0.7088 0.0
O340 O 0.393 0.42626 0.70351 0.0
C341 C 0.1754 0.31497 0.79839 0.0
O342 O 0.15913 0.28891 0.75568 0.0
C343 C 0.20897 0.43247 0.65855 0.0
O344 O 0.25441 0.48009 0.66857 0.0
O345 O 0.20504 0.38792 0.67624 0.0
O346 O 0.34475 0.47082 0.72373 0.0
O347 O 0.29525 0.32901 0.72102 0.0
C348 C 0.30973 0.31381 0.76059 0.0
O349 O 0.30222 0.33146 0.80373 0.0
O350 O 0.21978 0.36279 0.80007 0.0
Mg351 Mg 0.547 0.9499 0.12921 0.0
C352 C 0.58831 0.86705 0.1507 0.0
O353 O 0.63663 0.9134 0.15605 0.0
C354 C 0.53026 0.02469 0.06117 0.0
O355 O 0.54005 0.05074 0.10388 0.0
C356 C 0.44643 0.90711 0.20096 0.0
O357 O 0.44425 0.85951 0.19084 0.0
O358 O 0.48705 0.9517 0.18332 0.0
O359 O 0.54385 0.86884 0.13574 0.0
O360 O 0.63613 0.01066 0.13851 0.0
C361 C 0.66582 0.0259 0.09894 0.0
O362 O 0.64067 0.00827 0.05579 0.0
O363 O 0.52687 0.97689 0.05946 0.0
Mg364 Mg 0.09806 0.58807 0.12451 0.0
C365 C 0.17825 0.71318 0.13366 0.0
O366 O 0.13484 0.71581 0.11361 0.0
C367 C 0.03528 0.51314 0.04177 0.0
O368 O 0.99672 0.49526 0.07717 0.0
C369 C 0.13847 0.5266 0.19472 0.0
O370 O 0.18881 0.5697 0.18633 0.0
O371 O 0.09379 0.52485 0.17589 0.0
O372 O 0.17615 0.66625 0.13867 0.0
O373 O 0.02871 0.60746 0.13071 0.0
C374 C 1.01222 0.62072 0.09113 0.0
O375 O 0.03591 0.6204 0.04859 0.0
O376 O 0.08562 0.5523 0.05086 0.0
Mg377 Mg 0.45594 0.47783 0.13741 0.0
C378 C 0.4244 0.3661 0.0978 0.0
O379 O 0.43086 0.39346 0.05671 0.0
C380 C 0.50111 0.57799 0.20163 0.0
O381 O 0.46464 0.58426 0.17332 0.0
C382 C 0.507 0.5025 0.03219 0.0
O383 O 0.45591 0.49182 0.01692 0.0
O384 O 0.51788 0.50544 0.07808 0.0
O385 O 0.43406 0.39111 0.13953 0.0
O386 O 0.3738 0.47793 0.13443 0.0
C387 C 0.32808 0.43296 0.14394 0.0
O388 O 0.33015 0.38649 0.14696 0.0
O389 O 0.50455 0.53356 0.19797 0.0
Mg390 Mg 0.07498 0.4779 0.63489 0.0
C391 C 0.15745 0.43179 0.63833 0.0
O392 O 0.10896 0.38508 0.63913 0.0
C393 C 0.04799 0.50138 0.5295 0.0
O394 O 0.0877 0.48962 0.51435 0.0
C395 C 0.13067 0.578 0.6992 0.0
O396 O 0.17349 0.58408 0.67108 0.0
O397 O 0.08267 0.5338 0.69534 0.0
O398 O 0.15679 0.47722 0.63122 0.0
O399 O 1.00986 0.39161 0.63881 0.0
C400 C 0.99257 0.36591 0.59758 0.0
O401 O 1.01135 0.39257 0.55586 0.0
O402 O 0.04055 0.50517 0.57537 0.0
Mg403 Mg 0.54151 0.58776 0.61888 0.0
C404 C 0.66049 0.61933 0.58848 0.0
O405 O 0.63921 0.62437 0.54615 0.0
C406 C 0.43814 0.52407 0.68851 0.0
O407 O 0.43259 0.56871 0.68473 0.0
C408 C 0.53221 0.51628 0.53457 0.0
O409 O 0.55183 0.49752 0.5701 0.0
O410 O 0.52066 0.55515 0.54397 0.0
O411 O 0.62888 0.60362 0.62694 0.0
O412 O 0.54342 0.66651 0.63513 0.0
C413 C 0.58863 0.7133 0.6309 0.0
O414 O 0.63464 0.71587 0.61086 0.0
O415 O 0.48005 0.52246 0.66736 0.0
Mg416 Mg 0.45321 0.9467 0.62371 0.0
C417 C 0.32815 0.86338 0.64235 0.0
O418 O 0.32422 0.90901 0.64221 0.0
C419 C 0.47612 0.95487 0.51048 0.0
O420 O 0.42307 0.91457 0.507 0.0
C421 C 0.51277 0.90514 0.69567 0.0
O422 O 0.46672 0.85725 0.68801 0.0
O423 O 0.51645 0.94891 0.67635 0.0
O424 O 0.37577 0.86568 0.63139 0.0
O425 O 0.42494 0.00722 0.63686 0.0
C426 C 0.41612 0.03043 0.59964 0.0
O427 O 0.43159 0.0234 0.55525 0.0
O428 O 0.49833 0.97209 0.5529 0.0
Mg429 Mg 0.17642 0.39298 0.23583 0.0
C430 C 0.13469 0.4763 0.21718 0.0
O431 O 0.08513 0.43068 0.21734 0.0
C432 C 0.1911 0.38483 0.34907 0.0
O433 O 0.17835 0.42514 0.35253 0.0
C434 C 0.27756 0.43449 0.16386 0.0
O435 O 0.2794 0.48239 0.17148 0.0
O436 O 0.23746 0.39073 0.18321 0.0
O437 O 0.18001 0.474 0.22812 0.0
O438 O 0.08762 0.33247 0.22268 0.0
C439 C 0.05558 0.30926 0.2599 0.0
O440 O 0.07808 0.31627 0.30428 0.0
O441 O 0.19611 0.36761 0.30667 0.0
Mg442 Mg 0.62359 0.75187 0.24064 0.0
C443 C 0.71097 0.72028 0.2711 0.0
O444 O 0.68459 0.71522 0.31341 0.0
C445 C 0.58396 0.81558 0.17098 0.0
O446 O 0.53377 0.77094 0.17473 0.0
C447 C 0.68574 0.82334 0.32496 0.0
O448 O 0.72413 0.8421 0.28944 0.0
O449 O 0.63532 0.78448 0.31555 0.0
O450 O 0.69511 0.73601 0.23262 0.0
O451 O 0.54678 0.67311 0.22435 0.0
C452 C 0.54521 0.62633 0.22858 0.0
O453 O 0.58866 0.62377 0.24863 0.0
O454 O 0.62747 0.81718 0.19216 0.0
Mg455 Mg 0.26704 0.86169 0.22453 0.0
C456 C 0.3956 0.90776 0.22124 0.0
O457 O 0.39386 0.95449 0.22063 0.0
C458 C 0.21651 0.83796 0.32988 0.0
O459 O 0.26802 0.84985 0.34503 0.0
C460 C 0.22261 0.76164 0.16021 0.0
O461 O 0.2593 0.75554 0.18837 0.0
O462 O 0.21885 0.80586 0.16404 0.0
O463 O 0.34947 0.86231 0.2282 0.0
O464 O 0.28831 0.94802 0.2207 0.0
C465 C 0.29633 0.97369 0.26191 0.0
O466 O 0.2877 0.94693 0.30366 0.0
O467 O 0.20531 0.83424 0.28402 0.0
loop_
_geom_bond_atom_site_label_1
_geom_bond_atom_site_label_2
_geom_bond_distance
_geom_bond_site_symmetry_2
_ccdc_geom_bond_type
Mg0 O7 2.141 . S
Mg0 O8 2.048 . S
Mg0 O9 2.048 . S
Mg0 O12 2.141 . S
C1 O2 1.313 . S
C1 O8 1.195 . S
O2 C1 1.313 . S
C3 O4 1.245 . S
C3 O12 1.289 . S
O4 C3 1.245 . S
C5 O6 1.245 . S
C5 O7 1.289 . S
O6 C5 1.245 . S
O7 Mg0 2.141 . S
O7 C5 1.289 . S
O8 Mg0 2.048 . S
O8 C1 1.195 . S
O9 Mg0 2.048 . S
O9 C10 1.195 . S
C10 O9 1.195 . S
C10 O11 1.313 . S
O11 C10 1.313 . S
O12 Mg0 2.141 . S
O12 C3 1.289 . S
Mg13 O20 2.141 . S
Mg13 O21 2.048 1_545 S
Mg13 O22 2.048 . S
Mg13 O25 2.141 . S
C14 O15 1.313 1_554 S
C14 O21 1.195 . S
O15 C14 1.313 1_556 S
C16 O17 1.245 . S
C16 O25 1.289 . S
O17 C16 1.245 . S
C18 O19 1.232 1_554 S
C18 O20 1.289 . S
O19 C18 1.232 1_556 S
O20 Mg13 2.141 . S
O20 C18 1.289 . S
O21 Mg13 2.048 1_565 S
O21 C14 1.195 . S
O22 Mg13 2.048 . S
O22 C23 1.195 1_545 S
C23 O22 1.195 1_565 S
C23 O24 1.313 1_565 S
O24 C23 1.313 1_545 S
O25 Mg13 2.141 . S
O25 C16 1.289 . S
Mg26 O33 2.141 . S
Mg26 O34 2.048 1_655 S
Mg26 O35 2.048 . S
Mg26 O38 2.141 . S
C27 O28 1.313 1_554 S
C27 O34 1.195 . S
O28 C27 1.313 1_556 S
C29 O30 1.245 . S
C29 O38 1.289 . S
O30 C29 1.245 . S
C31 O32 1.233 1_554 S
C31 O33 1.289 . S
O32 C31 1.233 1_556 S
O33 Mg26 2.141 . S
O33 C31 1.289 . S
O34 Mg26 2.048 1_455 S
O34 C27 1.195 . S
O35 Mg26 2.048 . S
O35 C36 1.195 1_655 S
C36 O35 1.195 1_455 S
C36 O37 1.313 1_455 S
O37 C36 1.313 1_655 S
O38 Mg26 2.141 . S
O38 C29 1.289 . S
Mg39 O46 2.141 . S
Mg39 O47 2.048 . S
Mg39 O48 2.048 . S
Mg39 O51 2.141 . S
C40 O41 1.313 . S
C40 O47 1.195 . S
O41 C40 1.313 . S
C42 O43 1.245 . S
C42 O51 1.289 . S
O43 C42 1.245 . S
C44 O45 1.245 . S
C44 O46 1.289 . S
O45 C44 1.245 . S
O46 Mg39 2.141 . S
O46 C44 1.289 . S
O47 Mg39 2.048 . S
O47 C40 1.195 . S
O48 Mg39 2.048 . S
O48 C49 1.195 . S
C49 O48 1.195 . S
C49 O50 1.313 . S
O50 C49 1.313 . S
O51 Mg39 2.141 . S
O51 C42 1.289 . S
Mg52 O59 2.141 . S
Mg52 O60 2.048 1_565 S
Mg52 O61 2.048 . S
Mg52 O64 2.141 . S
C53 O54 1.313 . S
C53 O60 1.195 . S
O54 C53 1.313 . S
C55 O56 1.245 . S
C55 O64 1.289 . S
O56 C55 1.245 . S
C57 O58 1.245 . S
C57 O59 1.289 . S
O58 C57 1.245 . S
O59 Mg52 2.141 . S
O59 C57 1.289 . S
O60 Mg52 2.048 1_545 S
O60 C53 1.195 . S
O61 Mg52 2.048 . S
O61 C62 1.195 1_565 S
C62 O61 1.195 1_545 S
C62 O63 1.313 1_545 S
O63 C62 1.313 1_565 S
O64 Mg52 2.141 . S
O64 C55 1.289 . S
Mg65 O72 2.141 . S
Mg65 O73 2.048 . S
Mg65 O74 2.048 . S
Mg65 O77 2.141 . S
C66 O67 1.313 . S
C66 O73 1.195 1_655 S
O67 C66 1.313 . S
C68 O69 1.245 . S
C68 O77 1.289 . S
O69 C68 1.245 . S
C70 O71 1.245 . S
C70 O72 1.289 . S
O71 C70 1.245 . S
O72 Mg65 2.141 . S
O72 C70 1.289 . S
O73 Mg65 2.048 . S
O73 C66 1.195 1_455 S
O74 Mg65 2.048 . S
O74 C75 1.195 1_455 S
C75 O74 1.195 1_655 S
C75 O76 1.313 . S
O76 C75 1.313 . S
O77 Mg65 2.141 . S
O77 C68 1.289 . S
Mg78 O85 2.141 . S
Mg78 O86 2.048 . S
Mg78 O87 2.048 . S
Mg78 O90 2.141 . S
C79 O80 1.313 . S
C79 O86 1.195 . S
O80 C79 1.313 . S
C81 O82 1.245 . S
C81 O90 1.289 . S
O82 C81 1.245 . S
C83 O84 1.245 . S
C83 O85 1.289 . S
O84 C83 1.245 . S
O85 Mg78 2.141 . S
O85 C83 1.289 . S
O86 Mg78 2.048 . S
O86 C79 1.195 . S
O87 Mg78 2.048 . S
O87 C88 1.195 . S
C88 O87 1.195 . S
C88 O89 1.313 . S
O89 C88 1.313 . S
O90 Mg78 2.141 . S
O90 C81 1.289 . S
Mg91 O98 2.141 . S
Mg91 O99 2.048 . S
Mg91 O100 2.048 1_565 S
Mg91 O103 2.141 . S
C92 O93 1.313 1_545 S
C92 O99 1.195 1_545 S
O93 C92 1.313 1_565 S
C94 O95 1.232 1_556 S
C94 O103 1.289 . S
O95 C94 1.232 1_554 S
C96 O97 1.245 . S
C96 O98 1.289 . S
O97 C96 1.245 . S
O98 Mg91 2.141 . S
O98 C96 1.289 . S
O99 Mg91 2.048 . S
O99 C92 1.195 1_565 S
O100 Mg91 2.048 1_545 S
O100 C101 1.195 . S
C101 O100 1.195 . S
C101 O102 1.313 1_556 S
O102 C101 1.313 1_554 S
O103 Mg91 2.141 . S
O103 C94 1.289 . S
Mg104 O111 2.141 . S
Mg104 O112 2.048 . S
Mg104 O113 2.048 . S
Mg104 O116 2.141 . S
C105 O106 1.313 . S
C105 O112 1.195 1_655 S
O106 C105 1.313 . S
C107 O108 1.245 . S
C107 O116 1.289 . S
O108 C107 1.245 . S
C109 O110 1.245 . S
C109 O111 1.289 . S
O110 C109 1.245 . S
O111 Mg104 2.141 . S
O111 C109 1.289 . S
O112 Mg104 2.048 . S
O112 C105 1.195 1_455 S
O113 Mg104 2.048 . S
O113 C114 1.195 1_455 S
C114 O113 1.195 1_655 S
C114 O115 1.313 . S
O115 C114 1.313 . S
O116 Mg104 2.141 . S
O116 C107 1.289 . S
Mg117 O124 2.141 . S
Mg117 O125 2.048 . S
Mg117 O126 2.048 . S
Mg117 O129 2.141 . S
C118 O119 1.313 . S
C118 O125 1.195 . S
O119 C118 1.313 . S
C120 O121 1.245 . S
C120 O129 1.289 . S
O121 C120 1.245 . S
C122 O123 1.245 . S
C122 O124 1.289 . S
O123 C122 1.245 . S
O124 Mg117 2.141 . S
O124 C122 1.289 . S
O125 Mg117 2.048 . S
O125 C118 1.195 . S
O126 Mg117 2.048 . S
O126 C127 1.195 . S
C127 O126 1.195 . S
C127 O128 1.313 . S
O128 C127 1.313 . S
O129 Mg117 2.141 . S
O129 C120 1.289 . S
Mg130 O137 2.141 . S
Mg130 O138 2.048 . S
Mg130 O139 2.048 1_545 S
Mg130 O142 2.141 . S
C131 O132 1.313 1_565 S
C131 O138 1.195 1_565 S
O132 C131 1.313 1_545 S
C133 O134 1.245 . S
C133 O142 1.289 . S
O134 C133 1.245 . S
C135 O136 1.245 . S
C135 O137 1.289 . S
O136 C135 1.245 . S
O137 Mg130 2.141 . S
O137 C135 1.289 . S
O138 Mg130 2.048 . S
O138 C131 1.195 1_545 S
O139 Mg130 2.048 1_565 S
O139 C140 1.195 . S
C140 O139 1.195 . S
C140 O141 1.313 . S
O141 C140 1.313 . S
O142 Mg130 2.141 . S
O142 C133 1.289 . S
Mg143 O150 2.141 . S
Mg143 O151 2.048 . S
Mg143 O152 2.048 . S
Mg143 O155 2.141 . S
C144 O145 1.313 . S
C144 O151 1.195 1_455 S
O145 C144 1.313 . S
C146 O147 1.245 . S
C146 O155 1.289 . S
O147 C146 1.245 . S
C148 O149 1.245 . S
C148 O150 1.289 . S
O149 C148 1.245 . S
O150 Mg143 2.141 . S
O150 C148 1.289 . S
O151 Mg143 2.048 . S
O151 C144 1.195 1_655 S
O152 Mg143 2.048 . S
O152 C153 1.195 1_655 S
C153 O152 1.195 1_455 S
C153 O154 1.313 . S
O154 C153 1.313 . S
O155 Mg143 2.141 . S
O155 C146 1.289 . S
Mg156 O163 2.141 . S
Mg156 O164 2.048 . S
Mg156 O165 2.048 . S
Mg156 O168 2.141 . S
C157 O158 1.313 . S
C157 O164 1.195 . S
O158 C157 1.313 . S
C159 O160 1.245 . S
C159 O168 1.289 . S
O160 C159 1.245 . S
C161 O162 1.245 . S
C161 O163 1.289 . S
O162 C161 1.245 . S
O163 Mg156 2.141 . S
O163 C161 1.289 . S
O164 Mg156 2.048 . S
O164 C157 1.195 . S
O165 Mg156 2.048 . S
O165 C166 1.195 . S
C166 O165 1.195 . S
C166 O167 1.313 . S
O167 C166 1.313 . S
O168 Mg156 2.141 . S
O168 C159 1.289 . S
Mg169 O176 2.141 . S
Mg169 O177 2.048 . S
Mg169 O178 2.048 . S
Mg169 O181 2.141 . S
C170 O171 1.313 . S
C170 O177 1.195 . S
O171 C170 1.313 . S
C172 O173 1.245 . S
C172 O181 1.289 . S
O173 C172 1.245 . S
C174 O175 1.245 . S
C174 O176 1.289 . S
O175 C174 1.245 . S
O176 Mg169 2.141 . S
O176 C174 1.289 . S
O177 Mg169 2.048 . S
O177 C170 1.195 . S
O178 Mg169 2.048 . S
O178 C179 1.195 . S
C179 O178 1.195 . S
C179 O180 1.313 . S
O180 C179 1.313 . S
O181 Mg169 2.141 . S
O181 C172 1.289 . S
Mg182 O189 2.141 . S
Mg182 O190 2.048 . S
Mg182 O191 2.048 . S
Mg182 O194 2.141 . S
C183 O184 1.313 . S
C183 O190 1.195 . S
O184 C183 1.313 . S
C185 O186 1.245 1_545 S
C185 O194 1.289 . S
O186 C185 1.245 1_565 S
C187 O188 1.245 . S
C187 O189 1.289 . S
O188 C187 1.245 . S
O189 Mg182 2.141 . S
O189 C187 1.289 . S
O190 Mg182 2.048 . S
O190 C183 1.195 . S
O191 Mg182 2.048 . S
O191 C192 1.195 . S
C192 O191 1.195 . S
C192 O193 1.313 . S
O193 C192 1.313 . S
O194 Mg182 2.141 . S
O194 C185 1.289 . S
Mg195 O202 2.141 . S
Mg195 O203 2.048 . S
Mg195 O204 2.048 . S
Mg195 O207 2.141 . S
C196 O197 1.313 . S
C196 O203 1.195 . S
O197 C196 1.313 . S
C198 O199 1.245 . S
C198 O207 1.289 . S
O199 C198 1.245 . S
C200 O201 1.245 . S
C200 O202 1.289 . S
O201 C200 1.245 . S
O202 Mg195 2.141 . S
O202 C200 1.289 . S
O203 Mg195 2.048 . S
O203 C196 1.195 . S
O204 Mg195 2.048 . S
O204 C205 1.195 . S
C205 O204 1.195 . S
C205 O206 1.313 . S
O206 C205 1.313 . S
O207 Mg195 2.141 . S
O207 C198 1.289 . S
Mg208 O215 2.141 . S
Mg208 O216 2.048 . S
Mg208 O217 2.048 . S
Mg208 O220 2.141 . S
C209 O210 1.313 . S
C209 O216 1.195 . S
O210 C209 1.313 . S
C211 O212 1.245 . S
C211 O220 1.289 . S
O212 C211 1.245 . S
C213 O214 1.245 . S
C213 O215 1.289 . S
O214 C213 1.245 . S
O215 Mg208 2.141 . S
O215 C213 1.289 . S
O216 Mg208 2.048 . S
O216 C209 1.195 . S
O217 Mg208 2.048 . S
O217 C218 1.195 . S
C218 O217 1.195 . S
C218 O219 1.313 . S
O219 C218 1.313 . S
O220 Mg208 2.141 . S
O220 C211 1.289 . S
Mg221 O228 2.141 . S
Mg221 O229 2.048 . S
Mg221 O230 2.048 . S
Mg221 O233 2.141 . S
C222 O223 1.313 . S
C222 O229 1.195 . S
O223 C222 1.313 . S
C224 O225 1.245 . S
C224 O233 1.289 . S
O225 C224 1.245 . S
C226 O227 1.245 . S
C226 O228 1.289 . S
O227 C226 1.245 . S
O228 Mg221 2.141 . S
O228 C226 1.289 . S
O229 Mg221 2.048 . S
O229 C222 1.195 . S
O230 Mg221 2.048 . S
O230 C231 1.195 . S
C231 O230 1.195 . S
C231 O232 1.313 . S
O232 C231 1.313 . S
O233 Mg221 2.141 . S
O233 C224 1.289 . S
Mg234 O241 2.141 . S
Mg234 O242 2.048 . S
Mg234 O243 2.048 . S
Mg234 O246 2.141 . S
C235 O236 1.313 . S
C235 O242 1.195 . S
O236 C235 1.313 . S
C237 O238 1.245 . S
C237 O246 1.289 . S
O238 C237 1.245 . S
C239 O240 1.245 . S
C239 O241 1.289 . S
O240 C239 1.245 . S
O241 Mg234 2.141 . S
O241 C239 1.289 . S
O242 Mg234 2.048 . S
O242 C235 1.195 . S
O243 Mg234 2.048 . S
O243 C244 1.195 . S
C244 O243 1.195 . S
C244 O245 1.313 . S
O245 C244 1.313 . S
O246 Mg234 2.141 . S
O246 C237 1.289 . S
Mg247 O254 2.141 . S
Mg247 O255 2.048 . S
Mg247 O256 2.048 . S
Mg247 O259 2.141 . S
C248 O249 1.313 . S
C248 O255 1.195 . S
O249 C248 1.313 . S
C250 O251 1.245 . S
C250 O259 1.289 . S
O251 C250 1.245 . S
C252 O253 1.245 . S
C252 O254 1.289 . S
O253 C252 1.245 . S
O254 Mg247 2.141 . S
O254 C252 1.289 . S
O255 Mg247 2.048 . S
O255 C248 1.195 . S
O256 Mg247 2.048 . S
O256 C257 1.195 . S
C257 O256 1.195 . S
C257 O258 1.313 . S
O258 C257 1.313 . S
O259 Mg247 2.141 . S
O259 C250 1.289 . S
Mg260 O267 2.141 . S
Mg260 O268 2.048 . S
Mg260 O269 2.048 . S
Mg260 O272 2.141 . S
C261 O262 1.313 . S
C261 O268 1.195 . S
O262 C261 1.313 . S
C263 O264 1.245 . S
C263 O272 1.289 . S
O264 C263 1.245 . S
C265 O266 1.245 . S
C265 O267 1.289 . S
O266 C265 1.245 . S
O267 Mg260 2.141 . S
O267 C265 1.289 . S
O268 Mg260 2.048 . S
O268 C261 1.195 . S
O269 Mg260 2.048 . S
O269 C270 1.195 . S
C270 O269 1.195 . S
C270 O271 1.313 . S
O271 C270 1.313 . S
O272 Mg260 2.141 . S
O272 C263 1.289 . S
Mg273 O280 2.141 . S
Mg273 O281 2.048 . S
Mg273 O282 2.048 . S
Mg273 O285 2.141 . S
C274 O275 1.313 . S
C274 O281 1.195 . S
O275 C274 1.313 . S
C276 O277 1.243 1_556 S
C276 O285 1.289 . S
O277 C276 1.243 1_554 S
C278 O279 1.245 . S
C278 O280 1.289 . S
O279 C278 1.245 . S
O280 Mg273 2.141 . S
O280 C278 1.289 . S
O281 Mg273 2.048 . S
O281 C274 1.195 . S
O282 Mg273 2.048 . S
O282 C283 1.195 . S
C283 O282 1.195 . S
C283 O284 1.313 . S
O284 C283 1.313 . S
O285 Mg273 2.141 . S
O285 C276 1.289 . S
Mg286 O293 2.141 . S
Mg286 O294 2.048 . S
Mg286 O295 2.048 . S
Mg286 O298 2.141 . S
C287 O288 1.313 . S
C287 O294 1.195 . S
O288 C287 1.313 . S
C289 O290 1.245 . S
C289 O298 1.289 . S
O290 C289 1.245 . S
C291 O292 1.245 1_655 S
C291 O293 1.289 . S
O292 C291 1.245 1_455 S
O293 Mg286 2.141 . S
O293 C291 1.289 . S
O294 Mg286 2.048 . S
O294 C287 1.195 . S
O295 Mg286 2.048 . S
O295 C296 1.195 . S
C296 O295 1.195 . S
C296 O297 1.313 . S
O297 C296 1.313 . S
O298 Mg286 2.141 . S
O298 C289 1.289 . S
Mg299 O306 2.141 . S
Mg299 O307 2.048 . S
Mg299 O308 2.048 . S
Mg299 O311 2.141 . S
C300 O301 1.313 . S
C300 O307 1.195 . S
O301 C300 1.313 . S
C302 O303 1.243 1_556 S
C302 O311 1.289 . S
O303 C302 1.243 1_554 S
C304 O305 1.245 . S
C304 O306 1.289 . S
O305 C304 1.245 . S
O306 Mg299 2.141 . S
O306 C304 1.289 . S
O307 Mg299 2.048 . S
O307 C300 1.195 . S
O308 Mg299 2.048 . S
O308 C309 1.195 . S
C309 O308 1.195 . S
C309 O310 1.313 . S
O310 C309 1.313 . S
O311 Mg299 2.141 . S
O311 C302 1.289 . S
Mg312 O319 2.141 . S
Mg312 O320 2.048 . S
Mg312 O321 2.048 . S
Mg312 O324 2.141 . S
C313 O314 1.313 . S
C313 O320 1.195 . S
O314 C313 1.313 . S
C315 O316 1.245 . S
C315 O324 1.289 . S
O316 C315 1.245 . S
C317 O318 1.245 . S
C317 O319 1.289 . S
O318 C317 1.245 . S
O319 Mg312 2.141 . S
O319 C317 1.289 . S
O320 Mg312 2.048 . S
O320 C313 1.195 . S
O321 Mg312 2.048 . S
O321 C322 1.195 . S
C322 O321 1.195 . S
C322 O323 1.313 . S
O323 C322 1.313 . S
O324 Mg312 2.141 . S
O324 C315 1.289 . S
Mg325 O332 2.141 . S
Mg325 O333 2.048 . S
Mg325 O334 2.048 . S
Mg325 O337 2.141 . S
C326 O327 1.313 . S
C326 O333 1.195 . S
O327 C326 1.313 . S
C328 O329 1.245 . S
C328 O337 1.289 . S
O329 C328 1.245 . S
C330 O331 1.245 . S
C330 O332 1.289 . S
O331 C330 1.245 . S
O332 Mg325 2.141 . S
O332 C330 1.289 . S
O333 Mg325 2.048 . S
O333 C326 1.195 . S
O334 Mg325 2.048 . S
O334 C335 1.195 . S
C335 O334 1.195 . S
C335 O336 1.313 . S
O336 C335 1.313 . S
O337 Mg325 2.141 . S
O337 C328 1.289 . S
Mg338 O345 2.141 . S
Mg338 O346 2.048 . S
Mg338 O347 2.048 . S
Mg338 O350 2.141 . S
C339 O340 1.313 . S
C339 O346 1.195 . S
O340 C339 1.313 . S
C341 O342 1.245 . S
C341 O350 1.289 . S
O342 C341 1.245 . S
C343 O344 1.245 . S
C343 O345 1.289 . S
O344 C343 1.245 . S
O345 Mg338 2.141 . S
O345 C343 1.289 . S
O346 Mg338 2.048 . S
O346 C339 1.195 . S
O347 Mg338 2.048 . S
O347 C348 1.195 . S
C348 O347 1.195 . S
C348 O349 1.313 . S
O349 C348 1.313 . S
O350 Mg338 2.141 . S
O350 C341 1.289 . S
Mg351 O358 2.141 . S
Mg351 O359 2.048 . S
Mg351 O360 2.048 . S
Mg351 O363 2.141 . S
C352 O353 1.313 . S
C352 O359 1.195 . S
O353 C352 1.313 . S
C354 O355 1.245 1_565 S
C354 O363 1.289 . S
O355 C354 1.245 1_545 S
C356 O357 1.245 . S
C356 O358 1.289 . S
O357 C356 1.245 . S
O358 Mg351 2.141 . S
O358 C356 1.289 . S
O359 Mg351 2.048 . S
O359 C352 1.195 . S
O360 Mg351 2.048 . S
O360 C361 1.195 . S
C361 O360 1.195 . S
C361 O362 1.313 . S
O362 C361 1.313 . S
O363 Mg351 2.141 . S
O363 C354 1.289 . S
Mg364 O371 2.141 . S
Mg364 O372 2.048 . S
Mg364 O373 2.048 . S
Mg364 O376 2.141 . S
C365 O366 1.313 . S
C365 O372 1.195 . S
O366 C365 1.313 . S
C367 O368 1.245 1_455 S
C367 O376 1.289 . S
O368 C367 1.245 1_655 S
C369 O370 1.245 . S
C369 O371 1.289 . S
O370 C369 1.245 . S
O371 Mg364 2.141 . S
O371 C369 1.289 . S
O372 Mg364 2.048 . S
O372 C365 1.195 . S
O373 Mg364 2.048 . S
O373 C374 1.195 . S
C374 O373 1.195 . S
C374 O375 1.313 . S
O375 C374 1.313 . S
O376 Mg364 2.141 . S
O376 C367 1.289 . S
Mg377 O384 2.141 . S
Mg377 O385 2.048 . S
Mg377 O386 2.048 . S
Mg377 O389 2.141 . S
C378 O379 1.313 . S
C378 O385 1.195 . S
O379 C378 1.313 . S
C380 O381 1.245 . S
C380 O389 1.289 . S
O381 C380 1.245 . S
C382 O383 1.243 1_554 S
C382 O384 1.289 . S
O383 C382 1.243 1_556 S
O384 Mg377 2.141 . S
O384 C382 1.289 . S
O385 Mg377 2.048 . S
O385 C378 1.195 . S
O386 Mg377 2.048 . S
O386 C387 1.195 . S
C387 O386 1.195 . S
C387 O388 1.313 . S
O388 C387 1.313 . S
O389 Mg377 2.141 . S
O389 C380 1.289 . S
Mg390 O397 2.141 . S
Mg390 O398 2.048 . S
Mg390 O399 2.048 . S
Mg390 O402 2.141 . S
C391 O392 1.313 . S
C391 O398 1.195 . S
O392 C391 1.313 . S
C393 O394 1.245 . S
C393 O402 1.289 . S
O394 C393 1.245 . S
C395 O396 1.245 . S
C395 O397 1.289 . S
O396 C395 1.245 . S
O397 Mg390 2.141 . S
O397 C395 1.289 . S
O398 Mg390 2.048 . S
O398 C391 1.195 . S
O399 Mg390 2.048 . S
O399 C400 1.195 . S
C400 O399 1.195 . S
C400 O401 1.313 . S
O401 C400 1.313 . S
O402 Mg390 2.141 . S
O402 C393 1.289 . S
Mg403 O410 2.141 . S
Mg403 O411 2.048 . S
Mg403 O412 2.048 . S
Mg403 O415 2.141 . S
C404 O405 1.313 . S
C404 O411 1.195 . S
O405 C404 1.313 . S
C406 O407 1.245 . S
C406 O415 1.289 . S
O407 C406 1.245 . S
C408 O409 1.245 . S
C408 O410 1.289 . S
O409 C408 1.245 . S
O410 Mg403 2.141 . S
O410 C408 1.289 . S
O411 Mg403 2.048 . S
O411 C404 1.195 . S
O412 Mg403 2.048 . S
O412 C413 1.195 . S
C413 O412 1.195 . S
C413 O414 1.313 . S
O414 C413 1.313 . S
O415 Mg403 2.141 . S
O415 C406 1.289 . S
Mg416 O423 2.141 . S
Mg416 O424 2.048 . S
Mg416 O425 2.048 . S
Mg416 O428 2.141 . S
C417 O418 1.313 . S
C417 O424 1.195 . S
O418 C417 1.313 . S
C419 O420 1.245 . S
C419 O428 1.289 . S
O420 C419 1.245 . S
C421 O422 1.245 . S
C421 O423 1.289 . S
O422 C421 1.245 . S
O423 Mg416 2.141 . S
O423 C421 1.289 . S
O424 Mg416 2.048 . S
O424 C417 1.195 . S
O425 Mg416 2.048 . S
O425 C426 1.195 . S
C426 O425 1.195 . S
C426 O427 1.313 . S
O427 C426 1.313 . S
O428 Mg416 2.141 . S
O428 C419 1.289 . S
Mg429 O436 2.141 . S
Mg429 O437 2.048 . S
Mg429 O438 2.048 . S
Mg429 O441 2.141 . S
C430 O431 1.313 . S
C430 O437 1.195 . S
O431 C430 1.313 . S
C432 O433 1.245 . S
C432 O441 1.289 . S
O433 C432 1.245 . S
C434 O435 1.245 . S
C434 O436 1.289 . S
O435 C434 1.245 . S
O436 Mg429 2.141 . S
O436 C434 1.289 . S
O437 Mg429 2.048 . S
O437 C430 1.195 . S
O438 Mg429 2.048 . S
O438 C439 1.195 . S
C439 O438 1.195 . S
C439 O440 1.313 . S
O440 C439 1.313 . S
O441 Mg429 2.141 . S
O441 C432 1.289 . S
Mg442 O449 2.141 . S
Mg442 O450 2.048 . S
Mg442 O451 2.048 . S
Mg442 O454 2.141 . S
C443 O444 1.313 . S
C443 O450 1.195 . S
O444 C443 1.313 . S
C445 O446 1.245 . S
C445 O454 1.289 . S
O446 C445 1.245 . S
C447 O448 1.245 . S
C447 O449 1.289 . S
O448 C447 1.245 . S
O449 Mg442 2.141 . S
O449 C447 1.289 . S
O450 Mg442 2.048 . S
O450 C443 1.195 . S
O451 Mg442 2.048 . S
O451 C452 1.195 . S
C452 O451 1.195 . S
C452 O453 1.313 . S
O453 C452 1.313 . S
O454 Mg442 2.141 . S
O454 C445 1.289 . S
Mg455 O462 2.141 . S
Mg455 O463 2.048 . S
Mg455 O464 2.048 . S
Mg455 O467 2.141 . S
C456 O457 1.313 . S
C456 O463 1.195 . S
O457 C456 1.313 . S
C458 O459 1.245 . S
C458 O467 1.289 . S
O459 C458 1.245 . S
C460 O461 1.245 . S
C460 O462 1.289 . S
O461 C460 1.245 . S
O462 Mg455 2.141 . S
O462 C460 1.289 . S
O463 Mg455 2.048 . S
O463 C456 1.195 . S
O464 Mg455 2.048 . S
O464 C465 1.195 . S
C465 O464 1.195 . S
C465 O466 1.313 . S
O466 C465 1.313 . S
O467 Mg455 2.141 . S
O467 C458 1.289 . S
C5 C237 1.638 . S
C16 C252 1.904 . S
C263 C29 1.741 . S
C42 C432 1.741 . S
C447 C55 1.904 . S
C70 C458 1.638 . S
C317 C81 1.638 . S
C96 C328 1.904 . S
C107 C341 1.741 . S
C120 C198 1.741 . S
C211 C135 1.904 . S
C146 C226 1.638 . S
C161 C393 1.638 1_655 S
C172 C408 1.904 . S
C185 C419 1.741 1_545 S
C276 C354 1.740 1_546 S
C291 C367 1.904 1_656 S
C302 C382 1.638 1_556 S
C101 C3 1.780 1_556 S
C105 C18 1.576 1_556 S
C31 C79 1.576 1_554 S
C144 C44 1.576 . S
C118 C57 1.576 . S
C140 C68 1.780 . S
C83 C14 1.780 1_556 S
C94 C27 1.603 1_556 S
C109 C10 1.769 1_556 S
C122 C75 1.768 . S
C40 C133 1.603 . S
C53 C148 1.780 . S
C159 C257 1.780 . S
C174 C261 1.576 . S
C187 C235 1.576 . S
C300 C200 1.576 . S
C213 C274 1.576 . S
C296 C224 1.780 . S
C239 C170 1.780 . S
C183 C250 1.603 . S
C166 C265 1.769 . S
C278 C231 1.769 . S
C289 C196 1.603 . S
C304 C209 1.780 . S
C413 C315 1.780 . S
C330 C417 1.576 . S
C343 C391 1.576 . S
C456 C356 1.576 . S
C430 C369 1.576 . S
C452 C380 1.780 . S
C326 C395 1.780 . S
C339 C406 1.603 . S
C322 C421 1.769 . S
C434 C387 1.768 . S
C352 C445 1.603 . S
C460 C365 1.780 . S
C1 C378 2.309 . S
C361 C23 1.972 . S
C36 C374 1.972 . S
C49 C179 1.972 . S
C192 C62 1.972 . S
C66 C157 2.309 . S
C309 C88 2.309 . S
C92 C283 2.144 . S
C114 C287 2.144 . S
C127 C404 2.144 . S
C131 C426 2.144 . S
C400 C153 2.309 . S
C205 C335 1.972 1_655 S
C348 C218 1.972 . S
C313 C222 2.309 1_565 S
C465 C244 2.309 1_565 S
C248 C439 2.144 1_655 S
C270 C443 2.144 . S
