# Generated by pormake.
# Topology vbm, (6)-cn, num edge types: 1
# Building blocks:
#     Node 0, Type 0, BuildingBlock: MIFKUJ_clean_sbu_0, # of connection points: 6
#     Node 1, Type 0, BuildingBlock: MIFKUJ_clean_sbu_0, # of connection points: 6
#     Node 2, Type 0, BuildingBlock: MIFKUJ_clean_sbu_0, # of connection points: 6
#     Node 3, Type 0, BuildingBlock: MIFKUJ_clean_sbu_0, # of connection points: 6
#     Node 4, Type 0, BuildingBlock: MIFKUJ_clean_sbu_0, # of connection points: 6
#     Node 5, Type 0, BuildingBlock: MIFKUJ_clean_sbu_0, # of connection points: 6
#     Node 6, Type 0, BuildingBlock: MIFKUJ_clean_sbu_0, # of connection points: 6
#     Node 7, Type 0, BuildingBlock: MIFKUJ_clean_sbu_0, # of connection points: 6
#     Node 8, Type 0, BuildingBlock: MIFKUJ_clean_sbu_0, # of connection points: 6
#     Node 9, Type 0, BuildingBlock: MIFKUJ_clean_sbu_0, # of connection points: 6
#     Node 10, Type 0, BuildingBlock: MIFKUJ_clean_sbu_0, # of connection points: 6
#     Node 11, Type 0, BuildingBlock: MIFKUJ_clean_sbu_0, # of connection points: 6
#     Node 12, Type 0, BuildingBlock: MIFKUJ_clean_sbu_0, # of connection points: 6
#     Node 13, Type 0, BuildingBlock: MIFKUJ_clean_sbu_0, # of connection points: 6
#     Node 14, Type 0, BuildingBlock: MIFKUJ_clean_sbu_0, # of connection points: 6
#     Node 15, Type 0, BuildingBlock: MIFKUJ_clean_sbu_0, # of connection points: 6
#     Edge 16, Type (0, 0), BuildingBlock: OJICUG_clean_linker_0, # of connection points: 2
#     Edge 17, Type (0, 0), BuildingBlock: OJICUG_clean_linker_0, # of connection points: 2
#     Edge 18, Type (0, 0), BuildingBlock: OJICUG_clean_linker_0, # of connection points: 2
#     Edge 19, Type (0, 0), BuildingBlock: OJICUG_clean_linker_0, # of connection points: 2
#     Edge 20, Type (0, 0), BuildingBlock: OJICUG_clean_linker_0, # of connection points: 2
#     Edge 21, Type (0, 0), BuildingBlock: OJICUG_clean_linker_0, # of connection points: 2
#     Edge 22, Type (0, 0), BuildingBlock: OJICUG_clean_linker_0, # of connection points: 2
#     Edge 23, Type (0, 0), BuildingBlock: OJICUG_clean_linker_0, # of connection points: 2
#     Edge 24, Type (0, 0), BuildingBlock: OJICUG_clean_linker_0, # of connection points: 2
#     Edge 25, Type (0, 0), BuildingBlock: OJICUG_clean_linker_0, # of connection points: 2
#     Edge 26, Type (0, 0), BuildingBlock: OJICUG_clean_linker_0, # of connection points: 2
#     Edge 27, Type (0, 0), BuildingBlock: OJICUG_clean_linker_0, # of connection points: 2
#     Edge 28, Type (0, 0), BuildingBlock: OJICUG_clean_linker_0, # of connection points: 2
#     Edge 29, Type (0, 0), BuildingBlock: OJICUG_clean_linker_0, # of connection points: 2
#     Edge 30, Type (0, 0), BuildingBlock: OJICUG_clean_linker_0, # of connection points: 2
#     Edge 31, Type (0, 0), BuildingBlock: OJICUG_clean_linker_0, # of connection points: 2
#     Edge 32, Type (0, 0), BuildingBlock: OJICUG_clean_linker_0, # of connection points: 2
#     Edge 33, Type (0, 0), BuildingBlock: OJICUG_clean_linker_0, # of connection points: 2
#     Edge 34, Type (0, 0), BuildingBlock: OJICUG_clean_linker_0, # of connection points: 2
#     Edge 35, Type (0, 0), BuildingBlock: OJICUG_clean_linker_0, # of connection points: 2
#     Edge 36, Type (0, 0), BuildingBlock: OJICUG_clean_linker_0, # of connection points: 2
#     Edge 37, Type (0, 0), BuildingBlock: OJICUG_clean_linker_0, # of connection points: 2
#     Edge 38, Type (0, 0), BuildingBlock: OJICUG_clean_linker_0, # of connection points: 2
#     Edge 39, Type (0, 0), BuildingBlock: OJICUG_clean_linker_0, # of connection points: 2
#     Edge 40, Type (0, 0), BuildingBlock: OJICUG_clean_linker_0, # of connection points: 2
#     Edge 41, Type (0, 0), BuildingBlock: OJICUG_clean_linker_0, # of connection points: 2
#     Edge 42, Type (0, 0), BuildingBlock: OJICUG_clean_linker_0, # of connection points: 2
#     Edge 43, Type (0, 0), BuildingBlock: OJICUG_clean_linker_0, # of connection points: 2
#     Edge 44, Type (0, 0), BuildingBlock: OJICUG_clean_linker_0, # of connection points: 2
#     Edge 45, Type (0, 0), BuildingBlock: OJICUG_clean_linker_0, # of connection points: 2
#     Edge 46, Type (0, 0), BuildingBlock: OJICUG_clean_linker_0, # of connection points: 2
#     Edge 47, Type (0, 0), BuildingBlock: OJICUG_clean_linker_0, # of connection points: 2
#     Edge 48, Type (0, 0), BuildingBlock: OJICUG_clean_linker_0, # of connection points: 2
#     Edge 49, Type (0, 0), BuildingBlock: OJICUG_clean_linker_0, # of connection points: 2
#     Edge 50, Type (0, 0), BuildingBlock: OJICUG_clean_linker_0, # of connection points: 2
#     Edge 51, Type (0, 0), BuildingBlock: OJICUG_clean_linker_0, # of connection points: 2
#     Edge 52, Type (0, 0), BuildingBlock: OJICUG_clean_linker_0, # of connection points: 2
#     Edge 53, Type (0, 0), BuildingBlock: OJICUG_clean_linker_0, # of connection points: 2
#     Edge 54, Type (0, 0), BuildingBlock: OJICUG_clean_linker_0, # of connection points: 2
#     Edge 55, Type (0, 0), BuildingBlock: OJICUG_clean_linker_0, # of connection points: 2
#     Edge 56, Type (0, 0), BuildingBlock: OJICUG_clean_linker_0, # of connection points: 2
#     Edge 57, Type (0, 0), BuildingBlock: OJICUG_clean_linker_0, # of connection points: 2
#     Edge 58, Type (0, 0), BuildingBlock: OJICUG_clean_linker_0, # of connection points: 2
#     Edge 59, Type (0, 0), BuildingBlock: OJICUG_clean_linker_0, # of connection points: 2
#     Edge 60, Type (0, 0), BuildingBlock: OJICUG_clean_linker_0, # of connection points: 2
#     Edge 61, Type (0, 0), BuildingBlock: OJICUG_clean_linker_0, # of connection points: 2
#     Edge 62, Type (0, 0), BuildingBlock: OJICUG_clean_linker_0, # of connection points: 2
#     Edge 63, Type (0, 0), BuildingBlock: OJICUG_clean_linker_0, # of connection points: 2
# Relax obj value: 0.054
# Max RMSD: 0.110
# Mean RMSD: 0.110
data_MOF--net-vbm--node1-MIFKUJ_clean_sbu_0--edge1-OJICUG_clean_linker_0
_symmetry_space_group_name_H-M    P1
_symmetry_Int_Tables_number       1
_symmetry_cell_setting            triclinic
loop_
_symmetry_equiv_pos_as_xyz
'x, y, z'
_cell_length_a     51.234785
_cell_length_b     14.577547
_cell_length_c     39.009947
_cell_angle_alpha  89.52339
_cell_angle_beta   90.061933
_cell_angle_gamma 90.06672
loop_
_atom_site_label
_atom_site_type_symbol
_atom_site_fract_x
_atom_site_fract_y
_atom_site_fract_z
_atom_type_partial_charge
Zn0 Zn 0.16622 0.20657 0.11436 0.0
Zn1 Zn 0.13635 0.96894 0.11122 0.0
C2 C 0.21614 0.20646 0.14468 0.0
O3 O 0.20176 0.23542 0.17027 0.0
C4 C 0.0831 0.94483 0.1024 0.0
O5 O 0.09318 0.91112 0.07424 0.0
O6 O 0.16269 0.34154 0.12031 0.0
O7 O 0.15304 0.17912 0.06644 0.0
O8 O 0.13843 0.03619 0.06705 0.0
C9 C 0.16332 0.3984 0.09552 0.0
O10 O 0.16587 0.36845 0.06404 0.0
O11 O 0.20496 0.18441 0.11682 0.0
C12 C 0.15281 0.78363 0.12382 0.0
O13 O 0.15732 0.81481 0.15473 0.0
O14 O 0.14421 0.83783 0.10086 0.0
O15 O 0.15985 0.0095 0.14886 0.0
O16 O 0.14879 0.15324 0.15687 0.0
O17 O 0.09846 0.97512 0.12531 0.0
C18 C 0.14357 0.11012 0.05113 0.0
C19 C 0.15161 0.07207 0.16832 0.0
Zn20 Zn 0.87108 0.75437 0.14729 0.0
Zn21 Zn 0.91965 0.99589 0.14151 0.0
C22 C 0.81691 0.73458 0.16934 0.0
O23 O 0.82697 0.74701 0.19993 0.0
C24 C 0.97075 0.97363 0.11265 0.0
O25 O 0.95689 0.97079 0.08435 0.0
O26 O 0.88796 0.62875 0.142 0.0
O27 O 0.88106 0.8436 0.10639 0.0
O28 O 0.90462 0.97034 0.09561 0.0
C29 C 0.88093 0.56301 0.16169 0.0
O30 O 0.86364 0.5792 0.18573 0.0
O31 O 0.83192 0.73481 0.14339 0.0
C32 C 0.91647 0.19058 0.13822 0.0
O33 O 0.93187 0.17384 0.11211 0.0
O34 O 0.9083 0.12324 0.15627 0.0
O35 O 0.90287 0.89445 0.16515 0.0
O36 O 0.8789 0.80537 0.19564 0.0
O37 O 0.9591 0.9839 0.14113 0.0
C38 C 0.88956 0.90574 0.08562 0.0
C39 C 0.89383 0.87435 0.19411 0.0
Zn40 Zn 0.15447 0.83943 0.36457 0.0
Zn41 Zn 0.14479 0.06421 0.37716 0.0
C42 C 0.20457 0.82277 0.33469 0.0
O43 O 0.18938 0.79919 0.30905 0.0
C44 C 0.09132 0.05997 0.39788 0.0
O45 O 0.10193 0.09608 0.42532 0.0
O46 O 0.14609 0.70553 0.35731 0.0
O47 O 0.14128 0.86762 0.41237 0.0
O48 O 0.15865 1.00464 0.41979 0.0
C49 C 0.15546 0.6477 0.37858 0.0
O50 O 0.16974 0.67769 0.40416 0.0
O51 O 0.19405 0.84673 0.36277 0.0
C52 C 0.13916 0.25717 0.36202 0.0
O53 O 0.12622 0.22561 0.33551 0.0
O54 O 0.14879 0.20061 0.38355 0.0
O55 O 0.16245 0.03583 0.33307 0.0
O56 O 0.1399 0.90994 0.32363 0.0
O57 O 0.106 0.03841 0.37295 0.0
C58 C 0.14857 0.93186 0.43205 0.0
C59 C 0.15057 0.98327 0.31254 0.0
Zn60 Zn 0.8785 0.24403 0.35619 0.0
Zn61 Zn 0.92708 1.00062 0.36313 0.0
C62 C 0.82496 0.26908 0.33324 0.0
O63 O 0.83576 0.26218 0.30285 0.0
C64 C 0.97885 0.01882 0.39194 0.0
O65 O 0.96552 0.01468 0.42065 0.0
O66 O 0.89581 0.36794 0.36242 0.0
O67 O 0.88928 0.15138 0.39465 0.0
O68 O 0.91191 0.02659 0.40937 0.0
C69 C 0.89012 0.43315 0.34181 0.0
O70 O 0.87407 0.41689 0.31629 0.0
O71 O 0.83932 0.26349 0.35983 0.0
C72 C 0.92466 0.80483 0.36806 0.0
O73 O 0.93974 0.82194 0.39452 0.0
O74 O 0.9165 0.87168 0.34985 0.0
O75 O 0.90959 0.09759 0.33611 0.0
O76 O 0.88592 0.19412 0.30816 0.0
O77 O 0.96663 0.01476 0.36355 0.0
C78 C 0.89663 0.09241 0.41718 0.0
C79 C 0.89967 0.12198 0.30785 0.0
Zn80 Zn 0.87231 0.05402 0.88101 0.0
Zn81 Zn 0.8477 0.81814 0.87546 0.0
C82 C 0.92625 0.05638 0.89203 0.0
O83 O 0.91688 0.0847 0.92144 0.0
C84 C 0.79765 0.79857 0.84378 0.0
O85 O 0.81261 0.77647 0.81779 0.0
O86 O 0.86651 0.18662 0.88921 0.0
O87 O 0.84826 0.02088 0.84295 0.0
O88 O 0.86316 0.88209 0.83369 0.0
C89 C 0.87554 0.24715 0.86893 0.0
O90 O 0.88927 0.22167 0.84222 0.0
O91 O 0.91033 0.03746 0.86805 0.0
C92 C 0.85017 0.62733 0.89053 0.0
O93 O 0.83589 0.65212 0.91683 0.0
O94 O 0.85762 0.6877 0.86909 0.0
O95 O 0.85809 0.84722 0.92449 0.0
O96 O 0.86747 0.99519 0.92637 0.0
O97 O 0.80832 0.82181 0.87186 0.0
C98 C 0.85621 0.96033 0.82245 0.0
C99 C 0.86375 0.91882 0.94129 0.0
Zn100 Zn 0.08967 0.01631 0.85052 0.0
Zn101 Zn 0.13923 0.257 0.84424 0.0
C102 C 0.03829 0.01976 0.87876 0.0
O103 O 0.05211 1.0053 0.90666 0.0
C104 C 0.19361 0.27113 0.82279 0.0
O105 O 0.18334 0.26005 0.79223 0.0
O106 O 0.10227 0.8889 0.8375 0.0
O107 O 0.10704 0.11607 0.82651 0.0
O108 O 0.13126 0.20476 0.79614 0.0
C109 C 0.09118 0.81884 0.85072 0.0
O110 O 0.07132 0.83111 0.87143 0.0
O111 O 0.05006 0.02684 0.85013 0.0
C112 C 0.13264 0.45214 0.83225 0.0
O113 O 0.15332 0.43943 0.813 0.0
O114 O 0.12279 0.38367 0.84815 0.0
O115 O 0.12737 0.17212 0.88545 0.0
O116 O 0.10334 0.04695 0.89667 0.0
O117 O 0.17863 0.27239 0.84879 0.0
C118 C 0.1162 0.13611 0.7976 0.0
C119 C 0.11803 0.1126 0.90663 0.0
Zn120 Zn 0.86583 0.95989 0.61247 0.0
Zn121 Zn 0.85534 0.18524 0.62443 0.0
C122 C 0.91929 0.9621 0.59155 0.0
O123 O 0.90864 0.92463 0.5644 0.0
C124 C 0.80498 0.20141 0.65292 0.0
O125 O 0.81988 0.22688 0.67858 0.0
O126 O 0.86175 0.8238 0.60561 0.0
O127 O 0.84861 0.98648 0.65707 0.0
O128 O 0.86896 0.11739 0.66644 0.0
C129 C 0.87186 0.76672 0.62655 0.0
O130 O 0.88542 0.79758 0.65264 0.0
O131 O 0.90464 0.98547 0.61627 0.0
C132 C 0.85449 0.37697 0.60985 0.0
O133 O 0.84043 0.34715 0.58403 0.0
O134 O 0.86354 0.31915 0.63135 0.0
O135 O 0.86951 0.15575 0.57724 0.0
O136 O 0.85148 0.01984 0.57015 0.0
O137 O 0.81579 0.17696 0.6251 0.0
C138 C 0.85875 0.04335 0.67761 0.0
C139 C 0.86203 0.09152 0.55771 0.0
Zn140 Zn 0.08358 0.01759 0.62664 0.0
Zn141 Zn 0.13212 0.77383 0.63324 0.0
C142 C 0.03185 0.99936 0.59768 0.0
O143 O 0.04523 1.00276 0.569 0.0
C144 C 0.18575 0.74915 0.65617 0.0
O145 O 0.17511 0.75819 0.68657 0.0
O146 O 0.09411 0.14667 0.6397 0.0
O147 O 0.10113 0.9208 0.65378 0.0
O148 O 0.12448 0.82252 0.68139 0.0
C149 C 0.08594 0.21332 0.62139 0.0
O150 O 0.07086 0.19594 0.59496 0.0
O151 O 0.04402 1.00367 0.6261 0.0
C152 C 0.12052 0.58507 0.64724 0.0
O153 O 0.13665 0.60138 0.67267 0.0
O154 O 0.11474 0.65029 0.62669 0.0
O155 O 0.12143 0.86704 0.59497 0.0
O156 O 0.09878 0.99191 0.58047 0.0
O157 O 0.17129 0.75365 0.62965 0.0
C158 C 0.11074 0.89469 0.68202 0.0
C159 C 0.11413 0.9264 0.57256 0.0
Zn160 Zn 0.6548 0.68433 0.12472 0.0
Zn161 Zn 0.64643 0.45987 0.11264 0.0
C162 C 0.70485 0.70129 0.15389 0.0
O163 O 0.68981 0.72708 0.1793 0.0
C164 C 0.59323 0.46314 0.09021 0.0
O165 O 0.60406 0.42642 0.06309 0.0
O166 O 0.64652 0.8185 0.13124 0.0
O167 O 0.64118 0.65313 0.07747 0.0
O168 O 0.66144 0.52118 0.07104 0.0
C169 C 0.65624 0.87618 0.11018 0.0
O170 O 0.6709 0.84606 0.08506 0.0
O171 O 0.69423 0.67642 0.12596 0.0
C172 C 0.63977 0.26666 0.12627 0.0
O173 O 0.62555 0.29778 0.15165 0.0
O174 O 0.6506 0.3236 0.10589 0.0
O175 O 0.6627 0.48728 0.15774 0.0
O176 O 0.64107 0.61584 0.16648 0.0
O177 O 0.60766 0.48529 0.11536 0.0
C178 C 0.65002 0.5906 0.05819 0.0
C179 C 0.65168 0.54285 0.17794 0.0
Zn180 Zn 0.38154 0.26909 0.13211 0.0
Zn181 Zn 0.42896 0.51444 0.12322 0.0
C182 C 0.32818 0.2443 0.15501 0.0
O183 O 0.33898 0.25526 0.18525 0.0
C184 C 0.48079 0.501 0.09493 0.0
O185 O 0.46758 0.50755 0.06614 0.0
O186 O 0.39952 0.14655 0.12708 0.0
O187 O 0.39219 0.36018 0.09338 0.0
O188 O 0.41413 0.4848 0.07706 0.0
C189 C 0.39072 0.07883 0.14434 0.0
O190 O 0.37098 0.09192 0.16518 0.0
O191 O 0.34247 0.24758 0.12836 0.0
C192 C 0.43011 0.71191 0.12311 0.0
O193 O 0.45057 0.69827 0.10355 0.0
O194 O 0.41776 0.64301 0.135 0.0
O195 O 0.41163 0.41994 0.15173 0.0
O196 O 0.38873 0.3212 0.17978 0.0
O197 O 0.46847 0.50192 0.12324 0.0
C198 C 0.39913 0.41743 0.07009 0.0
C199 C 0.40192 0.39472 0.18002 0.0
Zn200 Zn 0.66247 0.31814 0.37551 0.0
Zn201 Zn 0.63728 0.55424 0.381 0.0
C202 C 0.71271 0.30485 0.34424 0.0
O203 O 0.69802 0.28307 0.3179 0.0
C204 C 0.58345 0.56699 0.39107 0.0
O205 O 0.59317 0.59858 0.41985 0.0
O206 O 0.65345 0.18705 0.36899 0.0
O207 O 0.65159 0.346 0.42428 0.0
O208 O 0.64134 0.4932 0.42601 0.0
C209 C 0.66118 0.1269 0.39033 0.0
O210 O 0.67532 0.15221 0.41675 0.0
O211 O 0.70178 0.32556 0.37238 0.0
C212 C 0.63551 0.74669 0.36905 0.0
O213 O 0.62174 0.72139 0.3423 0.0
O214 O 0.64412 0.68608 0.3896 0.0
O215 O 0.66121 0.51988 0.3431 0.0
O216 O 0.64656 0.38069 0.3338 0.0
O217 O 0.59915 0.54155 0.36776 0.0
C218 C 0.64528 0.41703 0.44095 0.0
C219 C 0.65311 0.45942 0.32263 0.0
Zn220 Zn 0.37082 0.75747 0.34176 0.0
Zn221 Zn 0.42021 0.51685 0.34759 0.0
C222 C 0.31652 0.78024 0.31948 0.0
O223 O 0.32651 0.76909 0.28881 0.0
C224 C 0.4711 0.53866 0.37775 0.0
O225 O 0.45692 0.53913 0.40577 0.0
O226 O 0.38778 0.88316 0.3476 0.0
O227 O 0.38073 0.66723 0.38244 0.0
O228 O 0.40466 0.54138 0.3932 0.0
C229 C 0.38153 0.94862 0.32732 0.0
O230 O 0.36506 0.93209 0.30228 0.0
O231 O 0.33156 0.77765 0.34545 0.0
C232 C 0.41643 0.32182 0.35195 0.0
O233 O 0.43054 0.33936 0.37928 0.0
O234 O 0.40936 0.38858 0.33282 0.0
O235 O 0.40303 0.6177 0.32377 0.0
O236 O 0.37904 0.7072 0.29338 0.0
O237 O 0.45974 0.53038 0.34892 0.0
C238 C 0.38924 0.60486 0.40311 0.0
C239 C 0.39412 0.63863 0.29477 0.0
Zn240 Zn 0.36661 0.53882 0.87658 0.0
Zn241 Zn 0.3567 0.31366 0.86396 0.0
C242 C 0.4198 0.53997 0.89886 0.0
O243 O 0.40882 0.58016 0.92517 0.0
C244 C 0.30605 0.29813 0.83636 0.0
O245 O 0.32064 0.27267 0.81046 0.0
O246 O 0.36246 0.67479 0.88392 0.0
O247 O 0.35039 0.51395 0.83118 0.0
O248 O 0.36974 0.38133 0.8215 0.0
C249 C 0.37277 0.73179 0.8631 0.0
O250 O 0.38642 0.70071 0.83719 0.0
O251 O 0.40546 0.51363 0.87419 0.0
C252 C 0.3559 0.122 0.87908 0.0
O253 O 0.34214 0.15231 0.90503 0.0
O254 O 0.36474 0.17944 0.85727 0.0
O255 O 0.37143 0.34439 0.91078 0.0
O256 O 0.35129 0.47621 0.91771 0.0
O257 O 0.31719 0.32217 0.86406 0.0
C258 C 0.36 0.45636 0.81053 0.0
C259 C 0.36298 0.40703 0.93031 0.0
Zn260 Zn 0.58412 0.48872 0.8651 0.0
Zn261 Zn 0.63191 0.73233 0.85534 0.0
C262 C 0.5325 0.50872 0.8946 0.0
O263 O 0.54595 0.51188 0.92325 0.0
C264 C 0.68558 0.75532 0.83176 0.0
O265 O 0.67495 0.74393 0.80143 0.0
O266 O 0.59492 0.3616 0.85013 0.0
O267 O 0.60039 0.58799 0.83868 0.0
O268 O 0.62363 0.6793 0.80777 0.0
C269 C 0.58683 0.29409 0.8681 0.0
O270 O 0.57186 0.31045 0.89469 0.0
O271 O 0.5446 0.49997 0.86634 0.0
C272 C 0.62107 0.92244 0.84131 0.0
O273 O 0.63781 0.90682 0.81655 0.0
O274 O 0.61465 0.85652 0.86124 0.0
O275 O 0.62213 0.64118 0.89504 0.0
O276 O 0.60009 0.51546 0.91083 0.0
O277 O 0.67109 0.75301 0.85824 0.0
C278 C 0.60958 0.60802 0.80969 0.0
C279 C 0.61521 0.58257 0.91798 0.0
Zn280 Zn 0.37151 0.44958 0.60699 0.0
Zn281 Zn 0.34778 0.68494 0.61332 0.0
C282 C 0.42557 0.44579 0.59611 0.0
O283 O 0.41623 0.41669 0.56675 0.0
C284 C 0.29774 0.70408 0.6448 0.0
O285 O 0.31268 0.72603 0.67088 0.0
O286 O 0.36557 0.31687 0.59901 0.0
O287 O 0.34775 0.4827 0.64531 0.0
O288 O 0.3634 0.6204 0.65484 0.0
C289 C 0.37474 0.2567 0.61933 0.0
O290 O 0.38869 0.2827 0.64582 0.0
O291 O 0.40961 0.46601 0.61983 0.0
C292 C 0.34959 0.8757 0.59865 0.0
O293 O 0.33491 0.85044 0.57274 0.0
O294 O 0.35759 0.81552 0.61981 0.0
O295 O 0.3581 0.65673 0.56431 0.0
O296 O 0.36646 0.50816 0.56153 0.0
O297 O 0.30842 0.68082 0.61678 0.0
C298 C 0.35622 0.54224 0.66592 0.0
C299 C 0.36318 0.58543 0.54708 0.0
Zn300 Zn 0.58873 0.4919 0.64056 0.0
Zn301 Zn 0.63842 0.25086 0.64557 0.0
C302 C 0.53765 0.48132 0.61076 0.0
O303 O 0.55172 0.4919 0.58289 0.0
C304 C 0.69274 0.23304 0.66755 0.0
O305 O 0.68262 0.24386 0.69817 0.0
O306 O 0.60018 0.62086 0.65369 0.0
O307 O 0.60637 0.39261 0.6654 0.0
O308 O 0.63003 0.29829 0.6941 0.0
C309 C 0.59225 0.688 0.63538 0.0
O310 O 0.5768 0.67134 0.60926 0.0
O311 O 0.54913 0.47893 0.63971 0.0
C312 C 0.62856 0.05945 0.6592 0.0
O313 O 0.64546 0.07559 0.68379 0.0
O314 O 0.62187 0.12522 0.63936 0.0
O315 O 0.62753 0.34074 0.60572 0.0
O316 O 0.60344 0.46551 0.59471 0.0
O317 O 0.67773 0.23369 0.64155 0.0
C318 C 0.61512 0.36754 0.69413 0.0
C319 C 0.6188 0.40199 0.58483 0.0
C320 C 0.25686 0.22464 0.17922 0.0
C321 C 0.24494 0.20881 0.14737 0.0
H322 H 0.29236 0.2478 0.20659 0.0
C323 C 0.26072 0.20105 0.11807 0.0
H324 H 0.24527 0.23065 0.2023 0.0
C325 C 0.28782 0.21166 0.12048 0.0
C326 C 0.29966 0.22952 0.15227 0.0
H327 H 0.2521 0.18914 0.09313 0.0
H328 H 0.29944 0.20689 0.09738 0.0
C329 C 0.2839 0.23456 0.18166 0.0
C330 C 0.77729 0.70338 0.13301 0.0
C331 C 0.78833 0.72256 0.16522 0.0
H332 H 0.74224 0.6808 0.10412 0.0
C333 C 0.77173 0.73156 0.19363 0.0
H334 H 0.78954 0.69574 0.11061 0.0
C335 C 0.74472 0.72335 0.18988 0.0
C336 C 0.73361 0.70539 0.15766 0.0
H337 H 0.77954 0.74613 0.21882 0.0
H338 H 0.73254 0.73173 0.21231 0.0
C339 C 0.75019 0.69456 0.1293 0.0
C340 C 0.27133 0.78838 0.29507 0.0
C341 C 0.28799 0.79431 0.32361 0.0
H342 H 0.23216 0.79292 0.27619 0.0
C343 C 0.27703 0.81288 0.35589 0.0
H344 H 0.27904 0.77439 0.26981 0.0
C345 C 0.24999 0.82415 0.35954 0.0
C346 C 0.23334 0.81645 0.33102 0.0
H347 H 0.28932 0.81822 0.37841 0.0
H348 H 0.24212 0.83733 0.38478 0.0
C349 C 0.24438 0.79902 0.29875 0.0
C350 C 0.78045 0.27748 0.30688 0.0
C351 C 0.79634 0.28146 0.33623 0.0
H352 H 0.74173 0.28183 0.2864 0.0
C353 C 0.78455 0.29629 0.36825 0.0
H354 H 0.78886 0.26632 0.2818 0.0
C355 C 0.75743 0.30584 0.37085 0.0
C356 C 0.74153 0.30007 0.34153 0.0
H357 H 0.79624 0.30004 0.39134 0.0
H358 H 0.7489 0.31619 0.39592 0.0
C359 C 0.75338 0.28634 0.30951 0.0
C360 C 0.72568 0.78812 0.86686 0.0
C361 C 0.71415 0.76936 0.83494 0.0
H362 H 0.76105 0.81285 0.89472 0.0
C363 C 0.73027 0.76314 0.80591 0.0
H364 H 0.71382 0.79365 0.88972 0.0
C365 C 0.75729 0.77382 0.80879 0.0
C366 C 0.76887 0.79156 0.84074 0.0
H367 H 0.72207 0.74896 0.7809 0.0
H368 H 0.76911 0.76759 0.78593 0.0
C369 C 0.75274 0.7994 0.86972 0.0
C370 C 0.26097 0.30552 0.86199 0.0
C371 C 0.27721 0.29516 0.83324 0.0
H372 H 0.22178 0.30552 0.88139 0.0
C373 C 0.26566 0.27895 0.80116 0.0
H374 H 0.26926 0.3179 0.88709 0.0
C375 C 0.23859 0.2722 0.79787 0.0
C376 C 0.2223 0.28094 0.82662 0.0
H377 H 0.27755 0.27098 0.77843 0.0
H378 H 0.23047 0.25913 0.77273 0.0
C379 C 0.23378 0.29817 0.85874 0.0
C380 C 0.7379 0.23034 0.6921 0.0
C381 C 0.72137 0.22184 0.66354 0.0
H382 H 0.77702 0.2304 0.71113 0.0
C383 C 0.73254 0.20358 0.63135 0.0
H384 H 0.73002 0.2442 0.71728 0.0
C385 C 0.75967 0.19506 0.62784 0.0
C386 C 0.77617 0.20529 0.65639 0.0
H387 H 0.72035 0.19632 0.60883 0.0
H388 H 0.76772 0.18195 0.60269 0.0
C389 C 0.76493 0.22246 0.68855 0.0
C390 C 0.22586 0.7169 0.62116 0.0
C391 C 0.2143 0.7349 0.65308 0.0
H392 H 0.26126 0.69215 0.59348 0.0
C393 C 0.23035 0.73985 0.68227 0.0
H394 H 0.21405 0.71231 0.59819 0.0
C395 C 0.25735 0.72866 0.67955 0.0
C396 C 0.26897 0.71158 0.64763 0.0
H397 H 0.22212 0.75345 0.70728 0.0
H398 H 0.26912 0.73393 0.70254 0.0
C399 C 0.25291 0.70502 0.61848 0.0
C400 C 0.14081 0.94371 0.25153 0.0
C401 C 0.14935 0.00785 0.27574 0.0
H402 H 0.13426 0.9152 0.19852 0.0
C403 C 0.15698 0.09584 0.26442 0.0
H404 H 0.13456 0.87574 0.25942 0.0
C405 C 0.15674 0.11831 0.22953 0.0
C406 C 0.14923 0.05276 0.20531 0.0
H407 H 0.1634 0.14722 0.28249 0.0
H408 H 0.16324 0.18582 0.22144 0.0
C409 C 0.14083 0.96596 0.21665 0.0
C410 C 0.91529 0.98178 0.27711 0.0
C411 C 0.90002 0.06188 0.27749 0.0
H412 H 0.92474 0.8576 0.25048 0.0
C413 C 0.88363 0.08113 0.24939 0.0
H414 H 0.92876 0.96686 0.29775 0.0
C415 C 0.88184 0.01992 0.22217 0.0
C416 C 0.8962 0.93823 0.2227 0.0
H417 H 0.87174 0.14251 0.24873 0.0
H418 H 0.86888 0.03558 0.20094 0.0
C419 C 0.91313 0.91969 0.25009 0.0
C420 C 0.86011 0.09308 0.73882 0.0
C421 C 0.85865 0.0224 0.71468 0.0
H422 H 0.85999 0.12875 0.79194 0.0
C423 C 0.85676 0.93101 0.72624 0.0
H424 H 0.86148 0.16411 0.73063 0.0
C425 C 0.85645 0.91062 0.76128 0.0
C426 C 0.8574 0.98138 0.78542 0.0
H427 H 0.85568 0.87507 0.70818 0.0
H428 H 0.85499 0.83959 0.76945 0.0
C429 C 0.85917 0.07282 0.77387 0.0
C430 C 0.12684 0.98912 0.76954 0.0
C431 C 0.11356 0.07306 0.76878 0.0
H432 H 0.13632 0.86646 0.74261 0.0
C433 C 0.09774 0.09544 0.74066 0.0
H434 H 0.13899 0.97065 0.79127 0.0
C435 C 0.09564 0.03494 0.71314 0.0
C436 C 0.10998 0.95276 0.71293 0.0
H437 H 0.08699 0.1594 0.74003 0.0
H438 H 0.08302 0.0529 0.69193 0.0
C439 C 0.12518 0.92957 0.74177 0.0
C440 C 0.65325 0.40976 0.26147 0.0
C441 C 0.65196 0.48042 0.28562 0.0
H442 H 0.65462 0.37454 0.20837 0.0
C443 C 0.65007 0.57184 0.27411 0.0
H444 H 0.65481 0.33875 0.26962 0.0
C445 C 0.64941 0.59223 0.23907 0.0
C446 C 0.65129 0.52171 0.21495 0.0
H447 H 0.64902 0.62766 0.29219 0.0
H448 H 0.64799 0.66325 0.23089 0.0
C449 C 0.65324 0.43031 0.22645 0.0
C450 C 0.38441 0.49084 0.26672 0.0
C451 C 0.39699 0.57616 0.26581 0.0
H452 H 0.37615 0.36632 0.24029 0.0
C453 C 0.41266 0.59966 0.23767 0.0
H454 H 0.37237 0.47148 0.28844 0.0
C455 C 0.41541 0.53858 0.21041 0.0
C456 C 0.40189 0.45456 0.21049 0.0
H457 H 0.4229 0.66472 0.23692 0.0
H458 H 0.42796 0.55732 0.18925 0.0
C459 C 0.38671 0.4307 0.23925 0.0
C460 C 0.36024 0.4074 0.74915 0.0
C461 C 0.35972 0.47775 0.77348 0.0
H462 H 0.35903 0.37276 0.69594 0.0
C463 C 0.35842 0.56948 0.76217 0.0
H464 H 0.36112 0.33613 0.75716 0.0
C465 C 0.35775 0.59054 0.7272 0.0
C466 C 0.35776 0.5202 0.70287 0.0
H467 H 0.35806 0.6252 0.78037 0.0
H468 H 0.35675 0.66184 0.71925 0.0
C469 C 0.35895 0.4284 0.71416 0.0
C470 C 0.59436 0.56161 0.75188 0.0
C471 C 0.60883 0.54247 0.7815 0.0
H472 H 0.58359 0.51729 0.70177 0.0
C473 C 0.62375 0.46205 0.7835 0.0
H474 H 0.58252 0.62304 0.75013 0.0
C475 C 0.62517 0.40329 0.75544 0.0
C476 C 0.61141 0.42374 0.72514 0.0
H477 H 0.63503 0.44641 0.80633 0.0
H478 H 0.63759 0.34333 0.75719 0.0
C479 C 0.59524 0.50168 0.72415 0.0
C480 C 0.14079 0.18484 0.95735 0.0
C481 C 0.1245 0.11645 0.94362 0.0
H482 H 0.15965 0.23719 0.00246 0.0
C483 C 0.11429 0.04884 0.96572 0.0
H484 H 0.14891 0.23806 0.94101 0.0
C485 C 0.12049 0.04807 0.00035 0.0
C486 C 0.13699 0.11518 0.01421 0.0
H487 H 0.10153 0.9953 0.95633 0.0
H488 H 0.11222 0.99426 0.01626 0.0
C489 C 0.1469 0.18443 0.99248 0.0
C490 C 0.86465 0.83259 -0.00209 0.0
C491 C 0.86842 0.91391 0.97878 0.0
H492 H 0.86816 0.76586 0.04713 0.0
C493 C 0.878 0.99192 -0.00441 0.0
H494 H 0.85725 0.77133 0.98572 0.0
C495 C 0.8844 0.9885 0.03017 0.0
C496 C 0.88123 0.90722 0.04928 0.0
H497 H 0.88113 0.05598 0.98193 0.0
H498 H 0.89204 0.05013 0.04186 0.0
C499 C 0.87086 0.82944 0.03301 0.0
C500 C 0.13902 0.01007 0.48711 0.0
C501 C 0.14205 0.92803 0.46894 0.0
H502 H 0.12735 0.07325 0.53386 0.0
C503 C 0.1372 0.84402 0.48581 0.0
H504 H 0.14256 0.07593 0.47491 0.0
C505 C 0.12905 0.84251 0.52013 0.0
C506 C 0.12489 0.92508 0.53757 0.0
H507 H 0.13947 0.77973 0.47241 0.0
H508 H 0.12509 0.77727 0.53258 0.0
C509 C 0.13018 0.00862 0.52085 0.0
C510 C 0.87176 0.01138 0.50305 0.0
C511 C 0.86878 0.09401 0.52087 0.0
H512 H 0.8834 0.94668 0.45656 0.0
C513 C 0.87376 0.17745 0.50367 0.0
H514 H 0.86811 0.94596 0.51552 0.0
C515 C 0.88192 0.17783 0.46936 0.0
C516 C 0.88598 0.09471 0.45224 0.0
H517 H 0.87152 0.24216 0.51679 0.0
H518 H 0.88593 0.24268 0.45665 0.0
C519 C 0.88064 0.01171 0.46932 0.0
C520 C 0.63723 0.67315 0.00395 0.0
C521 C 0.6435 0.59108 0.0213 0.0
H522 H 0.62389 0.7351 0.95688 0.0
C523 C 0.64186 0.50771 0.00364 0.0
H524 H 0.63842 0.7384 0.01695 0.0
C525 C 0.63288 0.50574 0.96995 0.0
C526 C 0.62615 0.5873 0.9528 0.0
H527 H 0.64654 0.44331 0.01626 0.0
H528 H 0.63106 0.44011 0.95732 0.0
C529 C 0.62899 0.67137 0.96969 0.0
C530 C 0.37204 0.49064 0.98445 0.0
C531 C 0.37019 0.40702 0.967 0.0
H532 H 0.38321 0.55897 0.03046 0.0
C533 C 0.37668 0.32523 0.98442 0.0
H534 H 0.36719 0.55485 0.9718 0.0
C535 C 0.38521 0.32752 0.01857 0.0
C536 C 0.38815 0.41185 0.03527 0.0
H537 H 0.37533 0.25978 0.97158 0.0
H538 H 0.39039 0.26399 0.03148 0.0
C539 C 0.38132 0.49313 0.018 0.0
C540 C 0.62984 0.4885 0.49485 0.0
C541 C 0.64026 0.41158 0.47829 0.0
H542 H 0.61506 0.54539 0.54085 0.0
C543 C 0.64465 0.33085 0.49752 0.0
H544 H 0.62622 0.55205 0.48108 0.0
C545 C 0.63827 0.32722 0.53253 0.0
C546 C 0.62715 0.40388 0.54857 0.0
H547 H 0.6527 0.27047 0.4855 0.0
H548 H 0.6415 0.26414 0.54677 0.0
C549 C 0.62331 0.48457 0.52933 0.0
C550 C 0.36454 0.67456 0.49115 0.0
C551 C 0.36764 0.59178 0.50959 0.0
H552 H 0.36872 0.744 0.44254 0.0
C553 C 0.37645 0.51382 0.49212 0.0
H554 H 0.35772 0.7358 0.50385 0.0
C555 C 0.38289 0.51879 0.4576 0.0
C556 C 0.38052 0.60161 0.43923 0.0
H557 H 0.379 0.44868 0.50526 0.0
H558 H 0.38999 0.45721 0.44536 0.0
C559 C 0.37078 0.67928 0.4561 0.0
C560 C 0.0154 0.9823 0.13961 0.0
C561 C 0.99951 0.96508 0.11092 0.0
H562 H 0.05445 0.99003 0.1595 0.0
C563 C 0.01137 0.94029 0.07992 0.0
H564 H 0.00682 1.00172 0.16386 0.0
C565 C 0.03842 0.93293 0.07753 0.0
C566 C 0.05439 0.95095 0.10599 0.0
H567 H 0.99976 0.92636 0.05733 0.0
H568 H 0.0468 0.91401 0.05311 0.0
C569 C 0.04264 0.97577 0.13712 0.0
C570 C 0.02289 0.01941 0.36322 0.0
C571 C 0.00768 0.02822 0.39302 0.0
H572 H 0.06132 0.02148 0.34137 0.0
C573 C 0.0203 0.04591 0.42429 0.0
H574 H 0.01378 1.00544 0.33874 0.0
C575 C 0.04741 0.05566 0.42574 0.0
C576 C 0.06264 0.04709 0.39602 0.0
H577 H 0.00924 0.05304 0.44776 0.0
H578 H 0.05641 0.06982 0.45028 0.0
C579 C 0.05013 0.02823 0.36475 0.0
C580 C 0.99794 0.03751 0.9137 0.0
C581 C 0.00955 0.02862 0.8813 0.0
H582 H 0.9628 0.0535 0.94233 0.0
C583 C 0.99347 0.02807 0.85204 0.0
H584 H 0.0097 0.0383 0.93679 0.0
C585 C 0.96628 0.03597 0.85528 0.0
C586 C 0.9548 0.0458 0.88779 0.0
H587 H 1.00185 0.02104 0.82672 0.0
H588 H 0.9543 0.03539 0.83239 0.0
C589 C 0.97097 0.04649 0.91688 0.0
C590 C 0.96051 0.9935 0.62464 0.0
C591 C 0.94799 0.97406 0.59341 0.0
H592 H 0.99687 0.01576 0.65066 0.0
C593 C 0.96326 0.96382 0.5638 0.0
H594 H 0.94929 1.00149 0.64794 0.0
C595 C 0.99039 0.97257 0.5653 0.0
C596 C 1.003 0.99085 0.59654 0.0
H597 H 0.95425 0.94914 0.53931 0.0
H598 H 1.00148 0.9642 0.54192 0.0
C599 C 0.98776 1.00129 0.62623 0.0
C600 C 0.52245 0.47774 0.06277 0.0
C601 C 0.50962 0.4928 0.09405 0.0
H602 H 0.55879 0.45648 0.03709 0.0
C603 C 0.52461 0.50003 0.12414 0.0
H604 H 0.51154 0.47197 0.03909 0.0
C605 C 0.55184 0.49206 0.12291 0.0
C606 C 0.56458 0.47557 0.09164 0.0
H607 H 0.51532 0.51201 0.14863 0.0
H608 H 0.56287 0.49742 0.14652 0.0
C609 C 0.54958 0.46872 0.06161 0.0
C610 C 0.51139 0.56877 0.41187 0.0
C611 C 0.49988 0.54695 0.38027 0.0
H612 H 0.5465 0.59243 0.43989 0.0
C613 C 0.51614 0.53216 0.35179 0.0
H614 H 0.4995 0.5808 0.43433 0.0
C615 C 0.54337 0.53825 0.35506 0.0
C616 C 0.55477 0.56012 0.38679 0.0
H617 H 0.50786 0.51504 0.32709 0.0
H618 H 0.55545 0.52613 0.33279 0.0
C619 C 0.53842 0.57561 0.41505 0.0
C620 C 0.46129 0.50575 0.86705 0.0
C621 C 0.44854 0.52904 0.89767 0.0
H622 H 0.49783 0.48194 0.84189 0.0
C623 C 0.46361 0.54436 0.9272 0.0
H624 H 0.45024 0.49376 0.84382 0.0
C625 C 0.49079 0.53707 0.92616 0.0
C626 C 0.50362 0.51515 0.89547 0.0
H627 H 0.45441 0.56207 0.95125 0.0
H628 H 0.50174 0.54952 0.94943 0.0
C629 C 0.48856 0.49935 0.86591 0.0
C630 C 0.47059 0.4502 0.57196 0.0
C631 C 0.45416 0.45545 0.60067 0.0
H632 H 0.50952 0.4546 0.55267 0.0
C633 C 0.46539 0.46916 0.63316 0.0
H634 H 0.46263 0.43999 0.54654 0.0
C635 C 0.49257 0.47679 0.63676 0.0
C636 C 0.50892 0.47197 0.60786 0.0
H637 H 0.45322 0.47326 0.65579 0.0
H638 H 0.50074 0.48714 0.66205 0.0
C639 C 0.49756 0.45881 0.57548 0.0
C640 C 0.15392 0.65341 0.08255 0.0
C641 C 0.15642 0.68566 0.11626 0.0
H642 H 0.15429 0.53695 0.04948 0.0
C643 C 0.1617 0.62303 0.14288 0.0
H644 H 0.14987 0.70018 0.06149 0.0
C645 C 0.164 0.52972 0.13604 0.0
C646 C 0.1613 0.49732 0.10239 0.0
H647 H 0.1637 0.64577 0.16912 0.0
H648 H 0.16789 0.48301 0.15717 0.0
C649 C 0.15648 0.56004 0.07565 0.0
C650 C 0.91717 0.35921 0.12468 0.0
C651 C 0.90815 0.2862 0.14537 0.0
H652 H 0.91582 0.50332 0.11358 0.0
C653 C 0.89077 0.30558 0.17219 0.0
H654 H 0.93063 0.34695 0.10383 0.0
C655 C 0.88227 0.39558 0.17778 0.0
C656 C 0.89096 0.46836 0.1567 0.0
H657 H 0.88346 0.25113 0.18864 0.0
H658 H 0.86864 0.40783 0.19843 0.0
C659 C 0.90869 0.4491 0.13027 0.0
C660 C 0.13259 0.42011 0.34251 0.0
C661 C 0.14289 0.35723 0.36647 0.0
H662 H 0.12841 0.56107 0.32749 0.0
C663 C 0.15706 0.39086 0.39456 0.0
H664 H 0.12157 0.39653 0.32056 0.0
C665 C 0.161 0.48508 0.39851 0.0
C666 C 0.15083 0.54799 0.37447 0.0
H667 H 0.16526 0.34441 0.41351 0.0
H668 H 0.17211 0.50847 0.4204 0.0
C669 C 0.1365 0.51448 0.34648 0.0
C670 C 0.9164 0.54665 0.37556 0.0
C671 C 0.90007 0.52746 0.34755 0.0
H672 H 0.93698 0.64888 0.40393 0.0
C673 C 0.89255 0.60002 0.32566 0.0
H674 H 0.92259 0.49247 0.3929 0.0
C675 C 0.90077 0.6899 0.33202 0.0
C676 C 0.91671 0.70928 0.3604 0.0
H677 H 0.88001 0.58774 0.3038 0.0
H678 H 0.8944 0.74426 0.31485 0.0
C679 C 0.92464 0.63648 0.38188 0.0
C680 C 0.85524 0.37101 0.90375 0.0
C681 C 0.8698 0.34476 0.87492 0.0
H682 H 0.83763 0.4809 0.93131 0.0
C683 C 0.8783 0.41232 0.85165 0.0
H684 H 0.84846 0.32051 0.92223 0.0
C685 C 0.87206 0.50429 0.85687 0.0
C686 C 0.85723 0.53038 0.88549 0.0
H687 H 0.88956 0.39423 0.82922 0.0
H688 H 0.87873 0.55478 0.83832 0.0
C689 C 0.84902 0.46293 0.90898 0.0
C690 C 0.13366 0.6219 0.82036 0.0
C691 C 0.12148 0.5456 0.83593 0.0
H692 H 0.13369 0.76773 0.81262 0.0
C693 C 0.09882 0.55988 0.85542 0.0
H694 H 0.15115 0.6135 0.80513 0.0
C695 C 0.08881 0.64835 0.85967 0.0
C696 C 0.10122 0.72483 0.84458 0.0
H697 H 0.08888 0.50277 0.86765 0.0
H698 H 0.07145 0.65674 0.87512 0.0
C699 C 0.12365 0.71047 0.82462 0.0
C700 C 0.85345 0.63387 0.59401 0.0
C701 C 0.86788 0.66686 0.622 0.0
H702 H 0.83796 0.51687 0.56823 0.0
C703 C 0.87816 0.60354 0.6458 0.0
H704 H 0.84528 0.6807 0.57517 0.0
C705 C 0.87394 0.50938 0.64182 0.0
C706 C 0.85937 0.47649 0.61394 0.0
H707 H 0.88935 0.62663 0.66766 0.0
H708 H 0.88202 0.46246 0.6607 0.0
C709 C 0.84925 0.53981 0.59003 0.0
C710 C 0.10992 0.32842 0.65721 0.0
C711 C 0.09389 0.30891 0.62893 0.0
H712 H 0.13076 0.43068 0.68525 0.0
C713 C 0.0859 0.38159 0.60743 0.0
H714 H 0.11635 0.27415 0.67437 0.0
C715 C 0.09415 0.47145 0.61366 0.0
C716 C 0.11057 0.49076 0.64157 0.0
H717 H 0.07349 0.36907 0.58546 0.0
H718 H 0.08791 0.52557 0.59632 0.0
C719 C 0.11816 0.41831 0.66346 0.0
C720 C 0.63638 0.00925 0.14125 0.0
C721 C 0.65158 0.9759 0.11409 0.0
H722 H 0.6207 0.12699 0.16639 0.0
C723 C 0.66257 0.03897 0.09076 0.0
H724 H 0.62763 0.96256 0.15968 0.0
C725 C 0.65862 0.1332 0.0946 0.0
C726 C 0.64356 0.16664 0.12186 0.0
H727 H 0.67437 0.01571 0.06952 0.0
H728 H 0.66747 0.1798 0.07622 0.0
C729 C 0.63241 0.10358 0.14509 0.0
C730 C 0.43346 0.88233 0.11491 0.0
C731 C 0.42082 0.80619 0.12984 0.0
H732 H 0.4339 0.0282 0.10775 0.0
C733 C 0.39878 0.82089 0.15046 0.0
H734 H 0.45055 0.87342 0.09897 0.0
C735 C 0.3893 0.90957 0.15555 0.0
C736 C 0.4016 0.98557 0.14005 0.0
H737 H 0.38862 0.76381 0.16242 0.0
H738 H 0.37206 0.91825 0.17124 0.0
C739 C 0.42391 0.97108 0.1199 0.0
C740 C 0.63945 1.0035 0.35662 0.0
C741 C 0.65432 0.02977 0.38523 0.0
H742 H 0.62179 0.89339 0.32909 0.0
C743 C 0.66259 0.96244 0.40874 0.0
H744 H 0.63276 0.05387 0.33804 0.0
C745 C 0.65628 0.87048 0.4036 0.0
C746 C 0.64158 0.84415 0.37484 0.0
H747 H 0.67402 0.98059 0.43106 0.0
H748 H 0.66304 0.82005 0.42211 0.0
C749 C 0.63314 0.91156 0.35148 0.0
C750 C 0.38391 0.11554 0.31057 0.0
C751 C 0.39146 0.04341 0.3327 0.0
H752 H 0.38582 0.25962 0.29912 0.0
C753 C 0.40788 0.06352 0.36051 0.0
H754 H 0.37129 0.10266 0.28884 0.0
C755 C 0.41619 0.15359 0.36639 0.0
C756 C 0.40831 0.22596 0.34461 0.0
H757 H 0.4141 0.00986 0.37806 0.0
H758 H 0.42861 0.1665 0.38831 0.0
C759 C 0.39223 0.2057 0.31644 0.0
C760 C 0.35465 0.86525 0.89549 0.0
C761 C 0.36893 0.83175 0.86752 0.0
H762 H 0.3394 0.98276 0.92108 0.0
C763 C 0.37919 0.89468 0.84355 0.0
H764 H 0.3465 0.81872 0.91445 0.0
C765 C 0.37509 0.98894 0.84733 0.0
C766 C 0.36066 0.02235 0.87519 0.0
H767 H 0.39027 0.87121 0.82168 0.0
H768 H 0.38314 0.03552 0.82831 0.0
C769 C 0.35058 0.95942 0.89929 0.0
C770 C 0.61123 0.17991 0.83234 0.0
C771 C 0.59473 0.19866 0.86016 0.0
H772 H 0.63236 0.07823 0.80447 0.0
C773 C 0.58619 0.12524 0.88096 0.0
H774 H 0.61811 0.23476 0.81574 0.0
C775 C 0.59434 0.03546 0.87451 0.0
C776 C 0.61122 0.01684 0.84708 0.0
H777 H 0.57341 0.13709 0.90257 0.0
H778 H 0.58766 0.98083 0.89134 0.0
C779 C 0.61937 0.09004 0.82587 0.0
C780 C 0.37172 0.99959 0.63176 0.0
C781 C 0.35651 0.97291 0.60351 0.0
H782 H 0.38947 0.11028 0.6589 0.0
C783 C 0.34782 0.04001 0.58018 0.0
H784 H 0.37875 0.94938 0.65019 0.0
C785 C 0.35399 0.13213 0.58517 0.0
C786 C 0.36897 0.15894 0.61361 0.0
H787 H 0.33613 0.02158 0.55813 0.0
H788 H 0.34686 0.18233 0.56681 0.0
C789 C 0.3779 0.09175 0.63676 0.0
C790 C 0.5923 0.85641 0.62143 0.0
C791 C 0.60084 0.78339 0.64243 0.0
H792 H 0.5942 1.00037 0.61022 0.0
C793 C 0.61799 0.80248 0.6696 0.0
H794 H 0.57903 0.84433 0.6003 0.0
C795 C 0.62669 0.89222 0.67529 0.0
C796 C 0.61845 0.96502 0.65394 0.0
H797 H 0.62491 0.748 0.68632 0.0
H798 H 0.64011 0.90426 0.69625 0.0
C799 C 0.60099 0.94607 0.62711 0.0
loop_
_geom_bond_atom_site_label_1
_geom_bond_atom_site_label_2
_geom_bond_distance
_geom_bond_site_symmetry_2
_ccdc_geom_bond_type
Zn0 O6 1.969 . S
Zn0 O7 1.965 . S
Zn0 O11 2.024 . S
Zn0 O16 1.969 . S
Zn1 O8 1.969 1_565 S
Zn1 O14 1.969 . S
Zn1 O15 1.965 1_565 S
Zn1 O17 2.024 1_565 S
C2 O3 1.229 . S
C2 O11 1.058 . S
O3 C2 1.229 . S
C4 O5 1.229 . S
C4 O17 1.058 1_565 S
O5 C4 1.229 . S
O6 Zn0 1.969 . S
O6 C9 1.267 . S
O7 Zn0 1.965 . S
O7 C18 1.260 . S
O8 Zn1 1.969 1_545 S
O8 C18 1.258 . S
C9 O6 1.267 . S
C9 O10 1.228 . S
O10 C9 1.228 . S
O11 Zn0 2.024 . S
O11 C2 1.058 . S
C12 O13 1.228 . S
C12 O14 1.267 . S
O13 C12 1.228 . S
O14 Zn1 1.969 . S
O14 C12 1.267 . S
O15 Zn1 1.965 1_545 S
O15 C19 1.260 . S
O16 Zn0 1.969 . S
O16 C19 1.258 . S
O17 Zn1 2.024 1_545 S
O17 C4 1.058 1_545 S
C18 O7 1.260 . S
C18 O8 1.258 . S
C19 O15 1.260 . S
C19 O16 1.258 . S
Zn20 O26 1.969 . S
Zn20 O27 1.965 . S
Zn20 O31 2.024 . S
Zn20 O36 1.969 . S
Zn21 O28 1.969 1_545 S
Zn21 O34 1.969 . S
Zn21 O35 1.965 1_545 S
Zn21 O37 2.024 1_545 S
C22 O23 1.229 . S
C22 O31 1.058 . S
O23 C22 1.229 . S
C24 O25 1.229 . S
C24 O37 1.058 1_545 S
O25 C24 1.229 . S
O26 Zn20 1.969 . S
O26 C29 1.267 . S
O27 Zn20 1.965 . S
O27 C38 1.260 . S
O28 Zn21 1.969 1_565 S
O28 C38 1.258 . S
C29 O26 1.267 . S
C29 O30 1.228 . S
O30 C29 1.228 . S
O31 Zn20 2.024 . S
O31 C22 1.058 . S
C32 O33 1.228 . S
C32 O34 1.267 . S
O33 C32 1.228 . S
O34 Zn21 1.969 . S
O34 C32 1.267 . S
O35 Zn21 1.965 1_565 S
O35 C39 1.260 . S
O36 Zn20 1.969 . S
O36 C39 1.258 . S
O37 Zn21 2.024 1_565 S
O37 C24 1.058 1_565 S
C38 O27 1.260 . S
C38 O28 1.258 . S
C39 O35 1.260 . S
C39 O36 1.258 . S
Zn40 O46 1.969 . S
Zn40 O47 1.965 . S
Zn40 O51 2.024 . S
Zn40 O56 1.969 . S
Zn41 O48 1.969 1_545 S
Zn41 O54 1.969 . S
Zn41 O55 1.965 1_545 S
Zn41 O57 2.024 1_545 S
C42 O43 1.229 . S
C42 O51 1.058 . S
O43 C42 1.229 . S
C44 O45 1.229 . S
C44 O57 1.058 1_545 S
O45 C44 1.229 . S
O46 Zn40 1.969 . S
O46 C49 1.267 . S
O47 Zn40 1.965 . S
O47 C58 1.260 . S
O48 Zn41 1.969 1_565 S
O48 C58 1.258 . S
C49 O46 1.267 . S
C49 O50 1.228 . S
O50 C49 1.228 . S
O51 Zn40 2.024 . S
O51 C42 1.058 . S
C52 O53 1.228 . S
C52 O54 1.267 . S
O53 C52 1.228 . S
O54 Zn41 1.969 . S
O54 C52 1.267 . S
O55 Zn41 1.965 1_565 S
O55 C59 1.260 . S
O56 Zn40 1.969 . S
O56 C59 1.258 . S
O57 Zn41 2.024 1_565 S
O57 C44 1.058 1_565 S
C58 O47 1.260 . S
C58 O48 1.258 . S
C59 O55 1.260 . S
C59 O56 1.258 . S
Zn60 O66 1.969 . S
Zn60 O67 1.965 . S
Zn60 O71 2.024 . S
Zn60 O76 1.969 . S
Zn61 O68 1.969 1_565 S
Zn61 O74 1.969 . S
Zn61 O75 1.965 1_565 S
Zn61 O77 2.024 1_565 S
C62 O63 1.229 . S
C62 O71 1.058 . S
O63 C62 1.229 . S
C64 O65 1.229 . S
C64 O77 1.058 1_565 S
O65 C64 1.229 . S
O66 Zn60 1.969 . S
O66 C69 1.267 . S
O67 Zn60 1.965 . S
O67 C78 1.260 . S
O68 Zn61 1.969 1_545 S
O68 C78 1.258 . S
C69 O66 1.267 . S
C69 O70 1.228 . S
O70 C69 1.228 . S
O71 Zn60 2.024 . S
O71 C62 1.058 . S
C72 O73 1.228 . S
C72 O74 1.267 . S
O73 C72 1.228 . S
O74 Zn61 1.969 . S
O74 C72 1.267 . S
O75 Zn61 1.965 1_545 S
O75 C79 1.260 . S
O76 Zn60 1.969 . S
O76 C79 1.258 . S
O77 Zn61 2.024 1_545 S
O77 C64 1.058 1_545 S
C78 O67 1.260 . S
C78 O68 1.258 . S
C79 O75 1.260 . S
C79 O76 1.258 . S
Zn80 O86 1.969 . S
Zn80 O87 1.965 1_545 S
Zn80 O91 2.024 1_545 S
Zn80 O96 1.969 1_545 S
Zn81 O88 1.969 . S
Zn81 O94 1.969 . S
Zn81 O95 1.965 . S
Zn81 O97 2.024 . S
C82 O83 1.229 . S
C82 O91 1.058 1_545 S
O83 C82 1.229 . S
C84 O85 1.229 . S
C84 O97 1.058 . S
O85 C84 1.229 . S
O86 Zn80 1.969 . S
O86 C89 1.267 . S
O87 Zn80 1.965 1_565 S
O87 C98 1.260 . S
O88 Zn81 1.969 . S
O88 C98 1.258 . S
C89 O86 1.267 . S
C89 O90 1.228 . S
O90 C89 1.228 . S
O91 Zn80 2.024 1_565 S
O91 C82 1.058 1_565 S
C92 O93 1.228 . S
C92 O94 1.267 . S
O93 C92 1.228 . S
O94 Zn81 1.969 . S
O94 C92 1.267 . S
O95 Zn81 1.965 . S
O95 C99 1.260 . S
O96 Zn80 1.969 1_565 S
O96 C99 1.258 . S
O97 Zn81 2.024 . S
O97 C84 1.058 . S
C98 O87 1.260 . S
C98 O88 1.258 . S
C99 O95 1.260 . S
C99 O96 1.258 . S
Zn100 O106 1.969 . S
Zn100 O107 1.965 1_565 S
Zn100 O111 2.024 1_565 S
Zn100 O116 1.969 1_565 S
Zn101 O108 1.969 . S
Zn101 O114 1.969 . S
Zn101 O115 1.965 . S
Zn101 O117 2.024 . S
C102 O103 1.229 . S
C102 O111 1.058 1_565 S
O103 C102 1.229 . S
C104 O105 1.229 . S
C104 O117 1.058 . S
O105 C104 1.229 . S
O106 Zn100 1.969 . S
O106 C109 1.267 . S
O107 Zn100 1.965 1_545 S
O107 C118 1.260 . S
O108 Zn101 1.969 . S
O108 C118 1.258 . S
C109 O106 1.267 . S
C109 O110 1.228 . S
O110 C109 1.228 . S
O111 Zn100 2.024 1_545 S
O111 C102 1.058 1_545 S
C112 O113 1.228 . S
C112 O114 1.267 . S
O113 C112 1.228 . S
O114 Zn101 1.969 . S
O114 C112 1.267 . S
O115 Zn101 1.965 . S
O115 C119 1.260 . S
O116 Zn100 1.969 1_545 S
O116 C119 1.258 . S
O117 Zn101 2.024 . S
O117 C104 1.058 . S
C118 O107 1.260 . S
C118 O108 1.258 . S
C119 O115 1.260 . S
C119 O116 1.258 . S
Zn120 O126 1.969 . S
Zn120 O127 1.965 1_565 S
Zn120 O131 2.024 1_565 S
Zn120 O136 1.969 1_565 S
Zn121 O128 1.969 . S
Zn121 O134 1.969 . S
Zn121 O135 1.965 . S
Zn121 O137 2.024 . S
C122 O123 1.229 . S
C122 O131 1.058 1_565 S
O123 C122 1.229 . S
C124 O125 1.229 . S
C124 O137 1.058 . S
O125 C124 1.229 . S
O126 Zn120 1.969 . S
O126 C129 1.267 . S
O127 Zn120 1.965 1_545 S
O127 C138 1.260 . S
O128 Zn121 1.969 . S
O128 C138 1.258 . S
C129 O126 1.267 . S
C129 O130 1.228 . S
O130 C129 1.228 . S
O131 Zn120 2.024 1_545 S
O131 C122 1.058 1_545 S
C132 O133 1.228 . S
C132 O134 1.267 . S
O133 C132 1.228 . S
O134 Zn121 1.969 . S
O134 C132 1.267 . S
O135 Zn121 1.965 . S
O135 C139 1.260 . S
O136 Zn120 1.969 1_545 S
O136 C139 1.258 . S
O137 Zn121 2.024 . S
O137 C124 1.058 . S
C138 O127 1.260 . S
C138 O128 1.258 . S
C139 O135 1.260 . S
C139 O136 1.258 . S
Zn140 O146 1.969 . S
Zn140 O147 1.965 1_545 S
Zn140 O151 2.024 1_545 S
Zn140 O156 1.969 1_545 S
Zn141 O148 1.969 . S
Zn141 O154 1.969 . S
Zn141 O155 1.965 . S
Zn141 O157 2.024 . S
C142 O143 1.229 . S
C142 O151 1.058 1_545 S
O143 C142 1.229 . S
C144 O145 1.229 . S
C144 O157 1.058 . S
O145 C144 1.229 . S
O146 Zn140 1.969 . S
O146 C149 1.267 . S
O147 Zn140 1.965 1_565 S
O147 C158 1.260 . S
O148 Zn141 1.969 . S
O148 C158 1.258 . S
C149 O146 1.267 . S
C149 O150 1.228 . S
O150 C149 1.228 . S
O151 Zn140 2.024 1_565 S
O151 C142 1.058 1_565 S
C152 O153 1.228 . S
C152 O154 1.267 . S
O153 C152 1.228 . S
O154 Zn141 1.969 . S
O154 C152 1.267 . S
O155 Zn141 1.965 . S
O155 C159 1.260 . S
O156 Zn140 1.969 1_565 S
O156 C159 1.258 . S
O157 Zn141 2.024 . S
O157 C144 1.058 . S
C158 O147 1.260 . S
C158 O148 1.258 . S
C159 O155 1.260 . S
C159 O156 1.258 . S
Zn160 O166 1.969 . S
Zn160 O167 1.965 . S
Zn160 O171 2.024 . S
Zn160 O176 1.969 . S
Zn161 O168 1.969 . S
Zn161 O174 1.969 . S
Zn161 O175 1.965 . S
Zn161 O177 2.024 . S
C162 O163 1.229 . S
C162 O171 1.058 . S
O163 C162 1.229 . S
C164 O165 1.229 . S
C164 O177 1.058 . S
O165 C164 1.229 . S
O166 Zn160 1.969 . S
O166 C169 1.267 . S
O167 Zn160 1.965 . S
O167 C178 1.260 . S
O168 Zn161 1.969 . S
O168 C178 1.258 . S
C169 O166 1.267 . S
C169 O170 1.228 . S
O170 C169 1.228 . S
O171 Zn160 2.024 . S
O171 C162 1.058 . S
C172 O173 1.228 . S
C172 O174 1.267 . S
O173 C172 1.228 . S
O174 Zn161 1.969 . S
O174 C172 1.267 . S
O175 Zn161 1.965 . S
O175 C179 1.260 . S
O176 Zn160 1.969 . S
O176 C179 1.258 . S
O177 Zn161 2.024 . S
O177 C164 1.058 . S
C178 O167 1.260 . S
C178 O168 1.258 . S
C179 O175 1.260 . S
C179 O176 1.258 . S
Zn180 O186 1.969 . S
Zn180 O187 1.965 . S
Zn180 O191 2.024 . S
Zn180 O196 1.969 . S
Zn181 O188 1.969 . S
Zn181 O194 1.969 . S
Zn181 O195 1.965 . S
Zn181 O197 2.024 . S
C182 O183 1.229 . S
C182 O191 1.058 . S
O183 C182 1.229 . S
C184 O185 1.229 . S
C184 O197 1.058 . S
O185 C184 1.229 . S
O186 Zn180 1.969 . S
O186 C189 1.267 . S
O187 Zn180 1.965 . S
O187 C198 1.260 . S
O188 Zn181 1.969 . S
O188 C198 1.258 . S
C189 O186 1.267 . S
C189 O190 1.228 . S
O190 C189 1.228 . S
O191 Zn180 2.024 . S
O191 C182 1.058 . S
C192 O193 1.228 . S
C192 O194 1.267 . S
O193 C192 1.228 . S
O194 Zn181 1.969 . S
O194 C192 1.267 . S
O195 Zn181 1.965 . S
O195 C199 1.260 . S
O196 Zn180 1.969 . S
O196 C199 1.258 . S
O197 Zn181 2.024 . S
O197 C184 1.058 . S
C198 O187 1.260 . S
C198 O188 1.258 . S
C199 O195 1.260 . S
C199 O196 1.258 . S
Zn200 O206 1.969 . S
Zn200 O207 1.965 . S
Zn200 O211 2.024 . S
Zn200 O216 1.969 . S
Zn201 O208 1.969 . S
Zn201 O214 1.969 . S
Zn201 O215 1.965 . S
Zn201 O217 2.024 . S
C202 O203 1.229 . S
C202 O211 1.058 . S
O203 C202 1.229 . S
C204 O205 1.229 . S
C204 O217 1.058 . S
O205 C204 1.229 . S
O206 Zn200 1.969 . S
O206 C209 1.267 . S
O207 Zn200 1.965 . S
O207 C218 1.260 . S
O208 Zn201 1.969 . S
O208 C218 1.258 . S
C209 O206 1.267 . S
C209 O210 1.228 . S
O210 C209 1.228 . S
O211 Zn200 2.024 . S
O211 C202 1.058 . S
C212 O213 1.228 . S
C212 O214 1.267 . S
O213 C212 1.228 . S
O214 Zn201 1.969 . S
O214 C212 1.267 . S
O215 Zn201 1.965 . S
O215 C219 1.260 . S
O216 Zn200 1.969 . S
O216 C219 1.258 . S
O217 Zn201 2.024 . S
O217 C204 1.058 . S
C218 O207 1.260 . S
C218 O208 1.258 . S
C219 O215 1.260 . S
C219 O216 1.258 . S
Zn220 O226 1.969 . S
Zn220 O227 1.965 . S
Zn220 O231 2.024 . S
Zn220 O236 1.969 . S
Zn221 O228 1.969 . S
Zn221 O234 1.969 . S
Zn221 O235 1.965 . S
Zn221 O237 2.024 . S
C222 O223 1.229 . S
C222 O231 1.058 . S
O223 C222 1.229 . S
C224 O225 1.229 . S
C224 O237 1.058 . S
O225 C224 1.229 . S
O226 Zn220 1.969 . S
O226 C229 1.267 . S
O227 Zn220 1.965 . S
O227 C238 1.260 . S
O228 Zn221 1.969 . S
O228 C238 1.258 . S
C229 O226 1.267 . S
C229 O230 1.228 . S
O230 C229 1.228 . S
O231 Zn220 2.024 . S
O231 C222 1.058 . S
C232 O233 1.228 . S
C232 O234 1.267 . S
O233 C232 1.228 . S
O234 Zn221 1.969 . S
O234 C232 1.267 . S
O235 Zn221 1.965 . S
O235 C239 1.260 . S
O236 Zn220 1.969 . S
O236 C239 1.258 . S
O237 Zn221 2.024 . S
O237 C224 1.058 . S
C238 O227 1.260 . S
C238 O228 1.258 . S
C239 O235 1.260 . S
C239 O236 1.258 . S
Zn240 O246 1.969 . S
Zn240 O247 1.965 . S
Zn240 O251 2.024 . S
Zn240 O256 1.969 . S
Zn241 O248 1.969 . S
Zn241 O254 1.969 . S
Zn241 O255 1.965 . S
Zn241 O257 2.024 . S
C242 O243 1.229 . S
C242 O251 1.058 . S
O243 C242 1.229 . S
C244 O245 1.229 . S
C244 O257 1.058 . S
O245 C244 1.229 . S
O246 Zn240 1.969 . S
O246 C249 1.267 . S
O247 Zn240 1.965 . S
O247 C258 1.260 . S
O248 Zn241 1.969 . S
O248 C258 1.258 . S
C249 O246 1.267 . S
C249 O250 1.228 . S
O250 C249 1.228 . S
O251 Zn240 2.024 . S
O251 C242 1.058 . S
C252 O253 1.228 . S
C252 O254 1.267 . S
O253 C252 1.228 . S
O254 Zn241 1.969 . S
O254 C252 1.267 . S
O255 Zn241 1.965 . S
O255 C259 1.260 . S
O256 Zn240 1.969 . S
O256 C259 1.258 . S
O257 Zn241 2.024 . S
O257 C244 1.058 . S
C258 O247 1.260 . S
C258 O248 1.258 . S
C259 O255 1.260 . S
C259 O256 1.258 . S
Zn260 O266 1.969 . S
Zn260 O267 1.965 . S
Zn260 O271 2.024 . S
Zn260 O276 1.969 . S
Zn261 O268 1.969 . S
Zn261 O274 1.969 . S
Zn261 O275 1.965 . S
Zn261 O277 2.024 . S
C262 O263 1.229 . S
C262 O271 1.058 . S
O263 C262 1.229 . S
C264 O265 1.229 . S
C264 O277 1.058 . S
O265 C264 1.229 . S
O266 Zn260 1.969 . S
O266 C269 1.267 . S
O267 Zn260 1.965 . S
O267 C278 1.260 . S
O268 Zn261 1.969 . S
O268 C278 1.258 . S
C269 O266 1.267 . S
C269 O270 1.228 . S
O270 C269 1.228 . S
O271 Zn260 2.024 . S
O271 C262 1.058 . S
C272 O273 1.228 . S
C272 O274 1.267 . S
O273 C272 1.228 . S
O274 Zn261 1.969 . S
O274 C272 1.267 . S
O275 Zn261 1.965 . S
O275 C279 1.260 . S
O276 Zn260 1.969 . S
O276 C279 1.258 . S
O277 Zn261 2.024 . S
O277 C264 1.058 . S
C278 O267 1.260 . S
C278 O268 1.258 . S
C279 O275 1.260 . S
C279 O276 1.258 . S
Zn280 O286 1.969 . S
Zn280 O287 1.965 . S
Zn280 O291 2.024 . S
Zn280 O296 1.969 . S
Zn281 O288 1.969 . S
Zn281 O294 1.969 . S
Zn281 O295 1.965 . S
Zn281 O297 2.024 . S
C282 O283 1.229 . S
C282 O291 1.058 . S
O283 C282 1.229 . S
C284 O285 1.229 . S
C284 O297 1.058 . S
O285 C284 1.229 . S
O286 Zn280 1.969 . S
O286 C289 1.267 . S
O287 Zn280 1.965 . S
O287 C298 1.260 . S
O288 Zn281 1.969 . S
O288 C298 1.258 . S
C289 O286 1.267 . S
C289 O290 1.228 . S
O290 C289 1.228 . S
O291 Zn280 2.024 . S
O291 C282 1.058 . S
C292 O293 1.228 . S
C292 O294 1.267 . S
O293 C292 1.228 . S
O294 Zn281 1.969 . S
O294 C292 1.267 . S
O295 Zn281 1.965 . S
O295 C299 1.260 . S
O296 Zn280 1.969 . S
O296 C299 1.258 . S
O297 Zn281 2.024 . S
O297 C284 1.058 . S
C298 O287 1.260 . S
C298 O288 1.258 . S
C299 O295 1.260 . S
C299 O296 1.258 . S
Zn300 O306 1.969 . S
Zn300 O307 1.965 . S
Zn300 O311 2.024 . S
Zn300 O316 1.969 . S
Zn301 O308 1.969 . S
Zn301 O314 1.969 . S
Zn301 O315 1.965 . S
Zn301 O317 2.024 . S
C302 O303 1.229 . S
C302 O311 1.058 . S
O303 C302 1.229 . S
C304 O305 1.229 . S
C304 O317 1.058 . S
O305 C304 1.229 . S
O306 Zn300 1.969 . S
O306 C309 1.267 . S
O307 Zn300 1.965 . S
O307 C318 1.260 . S
O308 Zn301 1.969 . S
O308 C318 1.258 . S
C309 O306 1.267 . S
C309 O310 1.228 . S
O310 C309 1.228 . S
O311 Zn300 2.024 . S
O311 C302 1.058 . S
C312 O313 1.228 . S
C312 O314 1.267 . S
O313 C312 1.228 . S
O314 Zn301 1.969 . S
O314 C312 1.267 . S
O315 Zn301 1.965 . S
O315 C319 1.260 . S
O316 Zn300 1.969 . S
O316 C319 1.258 . S
O317 Zn301 2.024 . S
O317 C304 1.058 . S
C318 O307 1.260 . S
C318 O308 1.258 . S
C319 O315 1.260 . S
C319 O316 1.258 . S
C320 C321 1.387 . S
C320 H324 0.950 . S
C320 C329 1.390 . S
C321 C320 1.387 . S
C321 C323 1.387 . S
H322 C329 0.950 . S
C323 C321 1.387 . S
C323 C325 1.390 . S
C323 H327 0.950 . S
H324 C320 0.950 . S
C325 C323 1.390 . S
C325 C326 1.387 . S
C325 H328 0.950 . S
C326 C325 1.387 . S
C326 C329 1.387 . S
H327 C323 0.950 . S
H328 C325 0.950 . S
C329 C320 1.390 . S
C329 H322 0.950 . S
C329 C326 1.387 . S
C330 C331 1.387 . S
C330 H334 0.950 . S
C330 C339 1.390 . S
C331 C330 1.387 . S
C331 C333 1.387 . S
H332 C339 0.950 . S
C333 C331 1.387 . S
C333 C335 1.390 . S
C333 H337 0.950 . S
H334 C330 0.950 . S
C335 C333 1.390 . S
C335 C336 1.387 . S
C335 H338 0.950 . S
C336 C335 1.387 . S
C336 C339 1.387 . S
H337 C333 0.950 . S
H338 C335 0.950 . S
C339 C330 1.390 . S
C339 H332 0.950 . S
C339 C336 1.387 . S
C340 C341 1.387 . S
C340 H344 0.950 . S
C340 C349 1.390 . S
C341 C340 1.387 . S
C341 C343 1.387 . S
H342 C349 0.950 . S
C343 C341 1.387 . S
C343 C345 1.390 . S
C343 H347 0.950 . S
H344 C340 0.950 . S
C345 C343 1.390 . S
C345 C346 1.387 . S
C345 H348 0.950 . S
C346 C345 1.387 . S
C346 C349 1.387 . S
H347 C343 0.950 . S
H348 C345 0.950 . S
C349 C340 1.390 . S
C349 H342 0.950 . S
C349 C346 1.387 . S
C350 C351 1.387 . S
C350 H354 0.950 . S
C350 C359 1.390 . S
C351 C350 1.387 . S
C351 C353 1.387 . S
H352 C359 0.950 . S
C353 C351 1.387 . S
C353 C355 1.390 . S
C353 H357 0.950 . S
H354 C350 0.950 . S
C355 C353 1.390 . S
C355 C356 1.387 . S
C355 H358 0.950 . S
C356 C355 1.387 . S
C356 C359 1.387 . S
H357 C353 0.950 . S
H358 C355 0.950 . S
C359 C350 1.390 . S
C359 H352 0.950 . S
C359 C356 1.387 . S
C360 C361 1.387 . S
C360 H364 0.950 . S
C360 C369 1.390 . S
C361 C360 1.387 . S
C361 C363 1.387 . S
H362 C369 0.950 . S
C363 C361 1.387 . S
C363 C365 1.390 . S
C363 H367 0.950 . S
H364 C360 0.950 . S
C365 C363 1.390 . S
C365 C366 1.387 . S
C365 H368 0.950 . S
C366 C365 1.387 . S
C366 C369 1.387 . S
H367 C363 0.950 . S
H368 C365 0.950 . S
C369 C360 1.390 . S
C369 H362 0.950 . S
C369 C366 1.387 . S
C370 C371 1.387 . S
C370 H374 0.950 . S
C370 C379 1.390 . S
C371 C370 1.387 . S
C371 C373 1.387 . S
H372 C379 0.950 . S
C373 C371 1.387 . S
C373 C375 1.390 . S
C373 H377 0.950 . S
H374 C370 0.950 . S
C375 C373 1.390 . S
C375 C376 1.387 . S
C375 H378 0.950 . S
C376 C375 1.387 . S
C376 C379 1.387 . S
H377 C373 0.950 . S
H378 C375 0.950 . S
C379 C370 1.390 . S
C379 H372 0.950 . S
C379 C376 1.387 . S
C380 C381 1.387 . S
C380 H384 0.950 . S
C380 C389 1.390 . S
C381 C380 1.387 . S
C381 C383 1.387 . S
H382 C389 0.950 . S
C383 C381 1.387 . S
C383 C385 1.390 . S
C383 H387 0.950 . S
H384 C380 0.950 . S
C385 C383 1.390 . S
C385 C386 1.387 . S
C385 H388 0.950 . S
C386 C385 1.387 . S
C386 C389 1.387 . S
H387 C383 0.950 . S
H388 C385 0.950 . S
C389 C380 1.390 . S
C389 H382 0.950 . S
C389 C386 1.387 . S
C390 C391 1.387 . S
C390 H394 0.950 . S
C390 C399 1.390 . S
C391 C390 1.387 . S
C391 C393 1.387 . S
H392 C399 0.950 . S
C393 C391 1.387 . S
C393 C395 1.390 . S
C393 H397 0.950 . S
H394 C390 0.950 . S
C395 C393 1.390 . S
C395 C396 1.387 . S
C395 H398 0.950 . S
C396 C395 1.387 . S
C396 C399 1.387 . S
H397 C393 0.950 . S
H398 C395 0.950 . S
C399 C390 1.390 . S
C399 H392 0.950 . S
C399 C396 1.387 . S
C400 C401 1.387 . S
C400 H404 0.950 . S
C400 C409 1.390 1_565 S
C401 C400 1.387 . S
C401 C403 1.387 . S
H402 C409 0.950 . S
C403 C401 1.387 . S
C403 C405 1.390 1_565 S
C403 H407 0.950 . S
H404 C400 0.950 . S
C405 C403 1.390 1_545 S
C405 C406 1.387 . S
C405 H408 0.950 . S
C406 C405 1.387 . S
C406 C409 1.387 . S
H407 C403 0.950 . S
H408 C405 0.950 . S
C409 C400 1.390 1_545 S
C409 H402 0.950 . S
C409 C406 1.387 . S
C410 C411 1.387 . S
C410 H414 0.950 . S
C410 C419 1.390 1_545 S
C411 C410 1.387 . S
C411 C413 1.387 . S
H412 C419 0.950 . S
C413 C411 1.387 . S
C413 C415 1.390 1_545 S
C413 H417 0.950 . S
H414 C410 0.950 . S
C415 C413 1.390 1_565 S
C415 C416 1.387 . S
C415 H418 0.950 . S
C416 C415 1.387 . S
C416 C419 1.387 . S
H417 C413 0.950 . S
H418 C415 0.950 . S
C419 C410 1.390 1_565 S
C419 H412 0.950 . S
C419 C416 1.387 . S
C420 C421 1.387 . S
C420 H424 0.950 . S
C420 C429 1.390 1_545 S
C421 C420 1.387 . S
C421 C423 1.387 . S
H422 C429 0.950 . S
C423 C421 1.387 . S
C423 C425 1.390 1_545 S
C423 H427 0.950 . S
H424 C420 0.950 . S
C425 C423 1.390 1_565 S
C425 C426 1.387 . S
C425 H428 0.950 . S
C426 C425 1.387 . S
C426 C429 1.387 . S
H427 C423 0.950 . S
H428 C425 0.950 . S
C429 C420 1.390 1_565 S
C429 H422 0.950 . S
C429 C426 1.387 . S
C430 C431 1.387 . S
C430 H434 0.950 . S
C430 C439 1.390 1_545 S
C431 C430 1.387 . S
C431 C433 1.387 . S
H432 C439 0.950 . S
C433 C431 1.387 . S
C433 C435 1.390 1_545 S
C433 H437 0.950 . S
H434 C430 0.950 . S
C435 C433 1.390 1_565 S
C435 C436 1.387 . S
C435 H438 0.950 . S
C436 C435 1.387 . S
C436 C439 1.387 . S
H437 C433 0.950 . S
H438 C435 0.950 . S
C439 C430 1.390 1_565 S
C439 H432 0.950 . S
C439 C436 1.387 . S
C440 C441 1.387 . S
C440 H444 0.950 . S
C440 C449 1.390 . S
C441 C440 1.387 . S
C441 C443 1.387 . S
H442 C449 0.950 . S
C443 C441 1.387 . S
C443 C445 1.390 . S
C443 H447 0.950 . S
H444 C440 0.950 . S
C445 C443 1.390 . S
C445 C446 1.387 . S
C445 H448 0.950 . S
C446 C445 1.387 . S
C446 C449 1.387 . S
H447 C443 0.950 . S
H448 C445 0.950 . S
C449 C440 1.390 . S
C449 H442 0.950 . S
C449 C446 1.387 . S
C450 C451 1.387 . S
C450 H454 0.950 . S
C450 C459 1.390 . S
C451 C450 1.387 . S
C451 C453 1.387 . S
H452 C459 0.950 . S
C453 C451 1.387 . S
C453 C455 1.390 . S
C453 H457 0.950 . S
H454 C450 0.950 . S
C455 C453 1.390 . S
C455 C456 1.387 . S
C455 H458 0.950 . S
C456 C455 1.387 . S
C456 C459 1.387 . S
H457 C453 0.950 . S
H458 C455 0.950 . S
C459 C450 1.390 . S
C459 H452 0.950 . S
C459 C456 1.387 . S
C460 C461 1.387 . S
C460 H464 0.950 . S
C460 C469 1.390 . S
C461 C460 1.387 . S
C461 C463 1.387 . S
H462 C469 0.950 . S
C463 C461 1.387 . S
C463 C465 1.390 . S
C463 H467 0.950 . S
H464 C460 0.950 . S
C465 C463 1.390 . S
C465 C466 1.387 . S
C465 H468 0.950 . S
C466 C465 1.387 . S
C466 C469 1.387 . S
H467 C463 0.950 . S
H468 C465 0.950 . S
C469 C460 1.390 . S
C469 H462 0.950 . S
C469 C466 1.387 . S
C470 C471 1.387 . S
C470 H474 0.950 . S
C470 C479 1.390 . S
C471 C470 1.387 . S
C471 C473 1.387 . S
H472 C479 0.950 . S
C473 C471 1.387 . S
C473 C475 1.390 . S
C473 H477 0.950 . S
H474 C470 0.950 . S
C475 C473 1.390 . S
C475 C476 1.387 . S
C475 H478 0.950 . S
C476 C475 1.387 . S
C476 C479 1.387 . S
H477 C473 0.950 . S
H478 C475 0.950 . S
C479 C470 1.390 . S
C479 H472 0.950 . S
C479 C476 1.387 . S
C480 C481 1.387 . S
C480 H484 0.950 . S
C480 C489 1.390 1_556 S
C481 C480 1.387 . S
C481 C483 1.387 . S
H482 C489 0.950 . S
C483 C481 1.387 . S
C483 C485 1.390 1_556 S
C483 H487 0.950 1_545 S
H484 C480 0.950 . S
C485 C483 1.390 1_554 S
C485 C486 1.387 . S
C485 H488 0.950 1_545 S
C486 C485 1.387 . S
C486 C489 1.387 . S
H487 C483 0.950 1_565 S
H488 C485 0.950 1_565 S
C489 C480 1.390 1_554 S
C489 H482 0.950 . S
C489 C486 1.387 . S
C490 C491 1.387 . S
C490 H494 0.950 . S
C490 C499 1.390 1_556 S
C491 C490 1.387 . S
C491 C493 1.387 . S
H492 C499 0.950 . S
C493 C491 1.387 . S
C493 C495 1.390 1_556 S
C493 H497 0.950 1_565 S
H494 C490 0.950 . S
C495 C493 1.390 1_554 S
C495 C496 1.387 . S
C495 H498 0.950 1_565 S
C496 C495 1.387 . S
C496 C499 1.387 . S
H497 C493 0.950 1_545 S
H498 C495 0.950 1_545 S
C499 C490 1.390 1_554 S
C499 H492 0.950 . S
C499 C496 1.387 . S
C500 C501 1.387 . S
C500 H504 0.950 1_565 S
C500 C509 1.390 . S
C501 C500 1.387 . S
C501 C503 1.387 . S
H502 C509 0.950 1_545 S
C503 C501 1.387 . S
C503 C505 1.390 . S
C503 H507 0.950 . S
H504 C500 0.950 1_545 S
C505 C503 1.390 . S
C505 C506 1.387 . S
C505 H508 0.950 . S
C506 C505 1.387 . S
C506 C509 1.387 . S
H507 C503 0.950 . S
H508 C505 0.950 . S
C509 C500 1.390 . S
C509 H502 0.950 1_565 S
C509 C506 1.387 . S
C510 C511 1.387 . S
C510 H514 0.950 1_545 S
C510 C519 1.390 . S
C511 C510 1.387 . S
C511 C513 1.387 . S
H512 C519 0.950 1_565 S
C513 C511 1.387 . S
C513 C515 1.390 . S
C513 H517 0.950 . S
H514 C510 0.950 1_565 S
C515 C513 1.390 . S
C515 C516 1.387 . S
C515 H518 0.950 . S
C516 C515 1.387 . S
C516 C519 1.387 . S
H517 C513 0.950 . S
H518 C515 0.950 . S
C519 C510 1.390 . S
C519 H512 0.950 1_545 S
C519 C516 1.387 . S
C520 C521 1.387 . S
C520 H524 0.950 . S
C520 C529 1.390 1_554 S
C521 C520 1.387 . S
C521 C523 1.387 . S
H522 C529 0.950 . S
C523 C521 1.387 . S
C523 C525 1.390 1_554 S
C523 H527 0.950 . S
H524 C520 0.950 . S
C525 C523 1.390 1_556 S
C525 C526 1.387 . S
C525 H528 0.950 . S
C526 C525 1.387 . S
C526 C529 1.387 . S
H527 C523 0.950 . S
H528 C525 0.950 . S
C529 C520 1.390 1_556 S
C529 H522 0.950 . S
C529 C526 1.387 . S
C530 C531 1.387 . S
C530 H534 0.950 . S
C530 C539 1.390 1_556 S
C531 C530 1.387 . S
C531 C533 1.387 . S
H532 C539 0.950 . S
C533 C531 1.387 . S
C533 C535 1.390 1_556 S
C533 H537 0.950 . S
H534 C530 0.950 . S
C535 C533 1.390 1_554 S
C535 C536 1.387 . S
C535 H538 0.950 . S
C536 C535 1.387 . S
C536 C539 1.387 . S
H537 C533 0.950 . S
H538 C535 0.950 . S
C539 C530 1.390 1_554 S
C539 H532 0.950 . S
C539 C536 1.387 . S
C540 C541 1.387 . S
C540 H544 0.950 . S
C540 C549 1.390 . S
C541 C540 1.387 . S
C541 C543 1.387 . S
H542 C549 0.950 . S
C543 C541 1.387 . S
C543 C545 1.390 . S
C543 H547 0.950 . S
H544 C540 0.950 . S
C545 C543 1.390 . S
C545 C546 1.387 . S
C545 H548 0.950 . S
C546 C545 1.387 . S
C546 C549 1.387 . S
H547 C543 0.950 . S
H548 C545 0.950 . S
C549 C540 1.390 . S
C549 H542 0.950 . S
C549 C546 1.387 . S
C550 C551 1.387 . S
C550 H554 0.950 . S
C550 C559 1.390 . S
C551 C550 1.387 . S
C551 C553 1.387 . S
H552 C559 0.950 . S
C553 C551 1.387 . S
C553 C555 1.390 . S
C553 H557 0.950 . S
H554 C550 0.950 . S
C555 C553 1.390 . S
C555 C556 1.387 . S
C555 H558 0.950 . S
C556 C555 1.387 . S
C556 C559 1.387 . S
H557 C553 0.950 . S
H558 C555 0.950 . S
C559 C550 1.390 . S
C559 H552 0.950 . S
C559 C556 1.387 . S
C560 C561 1.387 . S
C560 H564 0.950 . S
C560 C569 1.390 1_645 S
C561 C560 1.387 . S
C561 C563 1.387 . S
H562 C569 0.950 . S
C563 C561 1.387 . S
C563 C565 1.390 1_645 S
C563 H567 0.950 . S
H564 C560 0.950 . S
C565 C563 1.390 1_465 S
C565 C566 1.387 . S
C565 H568 0.950 . S
C566 C565 1.387 . S
C566 C569 1.387 . S
H567 C563 0.950 . S
H568 C565 0.950 . S
C569 C560 1.390 1_465 S
C569 H562 0.950 . S
C569 C566 1.387 . S
C570 C571 1.387 . S
C570 H574 0.950 . S
C570 C579 1.390 1_665 S
C571 C570 1.387 . S
C571 C573 1.387 . S
H572 C579 0.950 . S
C573 C571 1.387 . S
C573 C575 1.390 1_665 S
C573 H577 0.950 . S
H574 C570 0.950 . S
C575 C573 1.390 1_445 S
C575 C576 1.387 . S
C575 H578 0.950 . S
C576 C575 1.387 . S
C576 C579 1.387 . S
H577 C573 0.950 . S
H578 C575 0.950 . S
C579 C570 1.390 1_445 S
C579 H572 0.950 . S
C579 C576 1.387 . S
C580 C581 1.387 . S
C580 H584 0.950 . S
C580 C589 1.390 1_465 S
C581 C580 1.387 . S
C581 C583 1.387 . S
H582 C589 0.950 . S
C583 C581 1.387 . S
C583 C585 1.390 1_465 S
C583 H587 0.950 . S
H584 C580 0.950 . S
C585 C583 1.390 1_645 S
C585 C586 1.387 . S
C585 H588 0.950 . S
C586 C585 1.387 . S
C586 C589 1.387 . S
H587 C583 0.950 . S
H588 C585 0.950 . S
C589 C580 1.390 1_645 S
C589 H582 0.950 . S
C589 C586 1.387 . S
C590 C591 1.387 . S
C590 H594 0.950 . S
C590 C599 1.390 1_665 S
C591 C590 1.387 . S
C591 C593 1.387 . S
H592 C599 0.950 . S
C593 C591 1.387 . S
C593 C595 1.390 1_665 S
C593 H597 0.950 . S
H594 C590 0.950 . S
C595 C593 1.390 1_445 S
C595 C596 1.387 . S
C595 H598 0.950 . S
C596 C595 1.387 . S
C596 C599 1.387 . S
H597 C593 0.950 . S
H598 C595 0.950 . S
C599 C590 1.390 1_445 S
C599 H592 0.950 . S
C599 C596 1.387 . S
C600 C601 1.387 . S
C600 H604 0.950 . S
C600 C609 1.390 . S
C601 C600 1.387 . S
C601 C603 1.387 . S
H602 C609 0.950 . S
C603 C601 1.387 . S
C603 C605 1.390 . S
C603 H607 0.950 . S
H604 C600 0.950 . S
C605 C603 1.390 . S
C605 C606 1.387 . S
C605 H608 0.950 . S
C606 C605 1.387 . S
C606 C609 1.387 . S
H607 C603 0.950 . S
H608 C605 0.950 . S
C609 C600 1.390 . S
C609 H602 0.950 . S
C609 C606 1.387 . S
C610 C611 1.387 . S
C610 H614 0.950 . S
C610 C619 1.390 . S
C611 C610 1.387 . S
C611 C613 1.387 . S
H612 C619 0.950 . S
C613 C611 1.387 . S
C613 C615 1.390 . S
C613 H617 0.950 . S
H614 C610 0.950 . S
C615 C613 1.390 . S
C615 C616 1.387 . S
C615 H618 0.950 . S
C616 C615 1.387 . S
C616 C619 1.387 . S
H617 C613 0.950 . S
H618 C615 0.950 . S
C619 C610 1.390 . S
C619 H612 0.950 . S
C619 C616 1.387 . S
C620 C621 1.387 . S
C620 H624 0.950 . S
C620 C629 1.390 . S
C621 C620 1.387 . S
C621 C623 1.387 . S
H622 C629 0.950 . S
C623 C621 1.387 . S
C623 C625 1.390 . S
C623 H627 0.950 . S
H624 C620 0.950 . S
C625 C623 1.390 . S
C625 C626 1.387 . S
C625 H628 0.950 . S
C626 C625 1.387 . S
C626 C629 1.387 . S
H627 C623 0.950 . S
H628 C625 0.950 . S
C629 C620 1.390 . S
C629 H622 0.950 . S
C629 C626 1.387 . S
C630 C631 1.387 . S
C630 H634 0.950 . S
C630 C639 1.390 . S
C631 C630 1.387 . S
C631 C633 1.387 . S
H632 C639 0.950 . S
C633 C631 1.387 . S
C633 C635 1.390 . S
C633 H637 0.950 . S
H634 C630 0.950 . S
C635 C633 1.390 . S
C635 C636 1.387 . S
C635 H638 0.950 . S
C636 C635 1.387 . S
C636 C639 1.387 . S
H637 C633 0.950 . S
H638 C635 0.950 . S
C639 C630 1.390 . S
C639 H632 0.950 . S
C639 C636 1.387 . S
C640 C641 1.387 . S
C640 H644 0.950 . S
C640 C649 1.390 . S
C641 C640 1.387 . S
C641 C643 1.387 . S
H642 C649 0.950 . S
C643 C641 1.387 . S
C643 C645 1.390 . S
C643 H647 0.950 . S
H644 C640 0.950 . S
C645 C643 1.390 . S
C645 C646 1.387 . S
C645 H648 0.950 . S
C646 C645 1.387 . S
C646 C649 1.387 . S
H647 C643 0.950 . S
H648 C645 0.950 . S
C649 C640 1.390 . S
C649 H642 0.950 . S
C649 C646 1.387 . S
C650 C651 1.387 . S
C650 H654 0.950 . S
C650 C659 1.390 . S
C651 C650 1.387 . S
C651 C653 1.387 . S
H652 C659 0.950 . S
C653 C651 1.387 . S
C653 C655 1.390 . S
C653 H657 0.950 . S
H654 C650 0.950 . S
C655 C653 1.390 . S
C655 C656 1.387 . S
C655 H658 0.950 . S
C656 C655 1.387 . S
C656 C659 1.387 . S
H657 C653 0.950 . S
H658 C655 0.950 . S
C659 C650 1.390 . S
C659 H652 0.950 . S
C659 C656 1.387 . S
C660 C661 1.387 . S
C660 H664 0.950 . S
C660 C669 1.390 . S
C661 C660 1.387 . S
C661 C663 1.387 . S
H662 C669 0.950 . S
C663 C661 1.387 . S
C663 C665 1.390 . S
C663 H667 0.950 . S
H664 C660 0.950 . S
C665 C663 1.390 . S
C665 C666 1.387 . S
C665 H668 0.950 . S
C666 C665 1.387 . S
C666 C669 1.387 . S
H667 C663 0.950 . S
H668 C665 0.950 . S
C669 C660 1.390 . S
C669 H662 0.950 . S
C669 C666 1.387 . S
C670 C671 1.387 . S
C670 H674 0.950 . S
C670 C679 1.390 . S
C671 C670 1.387 . S
C671 C673 1.387 . S
H672 C679 0.950 . S
C673 C671 1.387 . S
C673 C675 1.390 . S
C673 H677 0.950 . S
H674 C670 0.950 . S
C675 C673 1.390 . S
C675 C676 1.387 . S
C675 H678 0.950 . S
C676 C675 1.387 . S
C676 C679 1.387 . S
H677 C673 0.950 . S
H678 C675 0.950 . S
C679 C670 1.390 . S
C679 H672 0.950 . S
C679 C676 1.387 . S
C680 C681 1.387 . S
C680 H684 0.950 . S
C680 C689 1.390 . S
C681 C680 1.387 . S
C681 C683 1.387 . S
H682 C689 0.950 . S
C683 C681 1.387 . S
C683 C685 1.390 . S
C683 H687 0.950 . S
H684 C680 0.950 . S
C685 C683 1.390 . S
C685 C686 1.387 . S
C685 H688 0.950 . S
C686 C685 1.387 . S
C686 C689 1.387 . S
H687 C683 0.950 . S
H688 C685 0.950 . S
C689 C680 1.390 . S
C689 H682 0.950 . S
C689 C686 1.387 . S
C690 C691 1.387 . S
C690 H694 0.950 . S
C690 C699 1.390 . S
C691 C690 1.387 . S
C691 C693 1.387 . S
H692 C699 0.950 . S
C693 C691 1.387 . S
C693 C695 1.390 . S
C693 H697 0.950 . S
H694 C690 0.950 . S
C695 C693 1.390 . S
C695 C696 1.387 . S
C695 H698 0.950 . S
C696 C695 1.387 . S
C696 C699 1.387 . S
H697 C693 0.950 . S
H698 C695 0.950 . S
C699 C690 1.390 . S
C699 H692 0.950 . S
C699 C696 1.387 . S
C700 C701 1.387 . S
C700 H704 0.950 . S
C700 C709 1.390 . S
C701 C700 1.387 . S
C701 C703 1.387 . S
H702 C709 0.950 . S
C703 C701 1.387 . S
C703 C705 1.390 . S
C703 H707 0.950 . S
H704 C700 0.950 . S
C705 C703 1.390 . S
C705 C706 1.387 . S
C705 H708 0.950 . S
C706 C705 1.387 . S
C706 C709 1.387 . S
H707 C703 0.950 . S
H708 C705 0.950 . S
C709 C700 1.390 . S
C709 H702 0.950 . S
C709 C706 1.387 . S
C710 C711 1.387 . S
C710 H714 0.950 . S
C710 C719 1.390 . S
C711 C710 1.387 . S
C711 C713 1.387 . S
H712 C719 0.950 . S
C713 C711 1.387 . S
C713 C715 1.390 . S
C713 H717 0.950 . S
H714 C710 0.950 . S
C715 C713 1.390 . S
C715 C716 1.387 . S
C715 H718 0.950 . S
C716 C715 1.387 . S
C716 C719 1.387 . S
H717 C713 0.950 . S
H718 C715 0.950 . S
C719 C710 1.390 . S
C719 H712 0.950 . S
C719 C716 1.387 . S
C720 C721 1.387 . S
C720 H724 0.950 . S
C720 C729 1.390 . S
C721 C720 1.387 . S
C721 C723 1.387 . S
H722 C729 0.950 . S
C723 C721 1.387 . S
C723 C725 1.390 . S
C723 H727 0.950 . S
H724 C720 0.950 . S
C725 C723 1.390 . S
C725 C726 1.387 . S
C725 H728 0.950 . S
C726 C725 1.387 . S
C726 C729 1.387 . S
H727 C723 0.950 . S
H728 C725 0.950 . S
C729 C720 1.390 . S
C729 H722 0.950 . S
C729 C726 1.387 . S
C730 C731 1.387 . S
C730 H734 0.950 . S
C730 C739 1.390 . S
C731 C730 1.387 . S
C731 C733 1.387 . S
H732 C739 0.950 . S
C733 C731 1.387 . S
C733 C735 1.390 . S
C733 H737 0.950 . S
H734 C730 0.950 . S
C735 C733 1.390 . S
C735 C736 1.387 . S
C735 H738 0.950 . S
C736 C735 1.387 . S
C736 C739 1.387 . S
H737 C733 0.950 . S
H738 C735 0.950 . S
C739 C730 1.390 . S
C739 H732 0.950 . S
C739 C736 1.387 . S
C740 C741 1.387 . S
C740 H744 0.950 . S
C740 C749 1.390 . S
C741 C740 1.387 . S
C741 C743 1.387 . S
H742 C749 0.950 . S
C743 C741 1.387 . S
C743 C745 1.390 . S
C743 H747 0.950 . S
H744 C740 0.950 . S
C745 C743 1.390 . S
C745 C746 1.387 . S
C745 H748 0.950 . S
C746 C745 1.387 . S
C746 C749 1.387 . S
H747 C743 0.950 . S
H748 C745 0.950 . S
C749 C740 1.390 . S
C749 H742 0.950 . S
C749 C746 1.387 . S
C750 C751 1.387 . S
C750 H754 0.950 . S
C750 C759 1.390 . S
C751 C750 1.387 . S
C751 C753 1.387 . S
H752 C759 0.950 . S
C753 C751 1.387 . S
C753 C755 1.390 . S
C753 H757 0.946 1_545 S
H754 C750 0.950 . S
C755 C753 1.390 . S
C755 C756 1.387 . S
C755 H758 0.950 . S
C756 C755 1.387 . S
C756 C759 1.387 . S
H757 C753 0.946 1_565 S
H758 C755 0.950 . S
C759 C750 1.390 . S
C759 H752 0.950 . S
C759 C756 1.387 . S
C760 C761 1.387 . S
C760 H764 0.950 . S
C760 C769 1.390 . S
C761 C760 1.387 . S
C761 C763 1.387 . S
H762 C769 0.950 . S
C763 C761 1.387 . S
C763 C765 1.390 . S
C763 H767 0.950 . S
H764 C760 0.950 . S
C765 C763 1.390 . S
C765 C766 1.387 . S
C765 H768 0.950 . S
C766 C765 1.387 . S
C766 C769 1.387 . S
H767 C763 0.950 . S
H768 C765 0.950 . S
C769 C760 1.390 . S
C769 H762 0.950 . S
C769 C766 1.387 . S
C770 C771 1.387 . S
C770 H774 0.950 . S
C770 C779 1.390 . S
C771 C770 1.387 . S
C771 C773 1.387 . S
H772 C779 0.950 . S
C773 C771 1.387 . S
C773 C775 1.390 . S
C773 H777 0.950 . S
H774 C770 0.950 . S
C775 C773 1.390 . S
C775 C776 1.387 . S
C775 H778 0.950 . S
C776 C775 1.387 . S
C776 C779 1.387 . S
H777 C773 0.950 . S
H778 C775 0.950 . S
C779 C770 1.390 . S
C779 H772 0.950 . S
C779 C776 1.387 . S
C780 C781 1.387 . S
C780 H784 0.950 . S
C780 C789 1.390 . S
C781 C780 1.387 . S
C781 C783 1.387 . S
H782 C789 0.950 . S
C783 C781 1.387 . S
C783 C785 1.390 . S
C783 H787 0.950 . S
H784 C780 0.950 . S
C785 C783 1.390 . S
C785 C786 1.387 . S
C785 H788 0.950 . S
C786 C785 1.387 . S
C786 C789 1.387 . S
H787 C783 0.950 . S
H788 C785 0.950 . S
C789 C780 1.390 . S
C789 H782 0.950 . S
C789 C786 1.387 . S
C790 C791 1.387 . S
C790 H794 0.950 . S
C790 C799 1.390 . S
C791 C790 1.387 . S
C791 C793 1.387 . S
H792 C799 0.950 . S
C793 C791 1.387 . S
C793 C795 1.390 . S
C793 H797 0.950 . S
H794 C790 0.950 . S
C795 C793 1.390 . S
C795 C796 1.387 . S
C795 H798 0.950 . S
C796 C795 1.387 . S
C796 C799 1.387 . S
H797 C793 0.950 . S
H798 C795 0.950 . S
C799 C790 1.390 . S
C799 H792 0.950 . S
C799 C796 1.387 . S
C321 C2 1.442 . S
C326 C182 1.442 . S
C331 C22 1.446 . S
C336 C162 1.446 . S
C341 C222 1.442 . S
C346 C42 1.442 . S
C351 C62 1.442 . S
C356 C202 1.442 . S
C361 C264 1.442 . S
C366 C84 1.442 . S
C371 C244 1.442 . S
C376 C104 1.442 . S
C381 C304 1.446 . S
C386 C124 1.446 . S
C391 C144 1.442 . S
C396 C284 1.442 . S
C401 C59 1.579 . S
C406 C19 1.579 . S
C411 C79 1.579 . S
C416 C39 1.579 . S
C421 C138 1.578 . S
C426 C98 1.578 . S
C431 C118 1.579 . S
C436 C158 1.579 . S
C441 C219 1.578 . S
C446 C179 1.578 . S
C451 C239 1.578 . S
C456 C199 1.578 . S
C461 C258 1.579 . S
C466 C298 1.579 . S
C471 C278 1.578 . S
C476 C318 1.578 . S
C481 C119 1.545 . S
C486 C18 1.544 . S
C491 C99 1.545 . S
C496 C38 1.544 . S
C501 C58 1.545 . S
C506 C159 1.544 . S
C511 C139 1.544 . S
C516 C78 1.545 . S
C521 C178 1.544 . S
C526 C279 1.545 . S
C531 C259 1.544 . S
C536 C198 1.545 . S
C541 C218 1.545 . S
C546 C319 1.544 . S
C551 C299 1.545 . S
C556 C238 1.544 . S
C561 C24 1.615 . S
C566 C4 1.615 . S
C571 C64 1.615 . S
C576 C44 1.615 . S
C581 C102 1.615 . S
C586 C82 1.615 . S
C591 C122 1.617 . S
C596 C142 1.617 . S
C601 C184 1.617 . S
C606 C164 1.617 . S
C611 C224 1.617 . S
C616 C204 1.617 . S
C621 C242 1.617 . S
C626 C262 1.617 . S
C631 C282 1.615 . S
C636 C302 1.615 . S
C641 C12 1.650 . S
C646 C9 1.650 . S
C651 C32 1.651 . S
C656 C29 1.651 . S
C661 C52 1.651 . S
C666 C49 1.651 . S
C671 C69 1.651 . S
C676 C72 1.651 . S
C681 C89 1.651 . S
C686 C92 1.651 . S
C691 C112 1.651 . S
C696 C109 1.651 . S
C701 C129 1.651 . S
C706 C132 1.651 . S
C711 C149 1.651 . S
C716 C152 1.651 . S
C721 C169 1.651 1_545 S
C726 C172 1.651 . S
C731 C192 1.651 . S
C736 C189 1.651 1_565 S
C741 C209 1.651 1_565 S
C746 C212 1.651 . S
C751 C229 1.651 1_545 S
C756 C232 1.651 . S
C761 C249 1.651 . S
C766 C252 1.651 1_565 S
C771 C269 1.651 . S
C776 C272 1.651 1_545 S
C781 C292 1.650 1_545 S
C786 C289 1.650 . S
C791 C309 1.650 . S
C796 C312 1.650 1_565 S
