# Generated by pormake.
# Topology mer, (4)-cn, num edge types: 1
# Building blocks:
#     Node 0, Type 0, BuildingBlock: KUFVIS_clean_sbu_0, # of connection points: 4
#     Node 1, Type 0, BuildingBlock: KUFVIS_clean_sbu_0, # of connection points: 4
#     Node 2, Type 0, BuildingBlock: KUFVIS_clean_sbu_0, # of connection points: 4
#     Node 3, Type 0, BuildingBlock: KUFVIS_clean_sbu_0, # of connection points: 4
#     Node 4, Type 0, BuildingBlock: KUFVIS_clean_sbu_0, # of connection points: 4
#     Node 5, Type 0, BuildingBlock: KUFVIS_clean_sbu_0, # of connection points: 4
#     Node 6, Type 0, BuildingBlock: KUFVIS_clean_sbu_0, # of connection points: 4
#     Node 7, Type 0, BuildingBlock: KUFVIS_clean_sbu_0, # of connection points: 4
#     Node 8, Type 0, BuildingBlock: KUFVIS_clean_sbu_0, # of connection points: 4
#     Node 9, Type 0, BuildingBlock: KUFVIS_clean_sbu_0, # of connection points: 4
#     Node 10, Type 0, BuildingBlock: KUFVIS_clean_sbu_0, # of connection points: 4
#     Node 11, Type 0, BuildingBlock: KUFVIS_clean_sbu_0, # of connection points: 4
#     Node 12, Type 0, BuildingBlock: KUFVIS_clean_sbu_0, # of connection points: 4
#     Node 13, Type 0, BuildingBlock: KUFVIS_clean_sbu_0, # of connection points: 4
#     Node 14, Type 0, BuildingBlock: KUFVIS_clean_sbu_0, # of connection points: 4
#     Node 15, Type 0, BuildingBlock: KUFVIS_clean_sbu_0, # of connection points: 4
#     Node 16, Type 0, BuildingBlock: KUFVIS_clean_sbu_0, # of connection points: 4
#     Node 17, Type 0, BuildingBlock: KUFVIS_clean_sbu_0, # of connection points: 4
#     Node 18, Type 0, BuildingBlock: KUFVIS_clean_sbu_0, # of connection points: 4
#     Node 19, Type 0, BuildingBlock: KUFVIS_clean_sbu_0, # of connection points: 4
#     Node 20, Type 0, BuildingBlock: KUFVIS_clean_sbu_0, # of connection points: 4
#     Node 21, Type 0, BuildingBlock: KUFVIS_clean_sbu_0, # of connection points: 4
#     Node 22, Type 0, BuildingBlock: KUFVIS_clean_sbu_0, # of connection points: 4
#     Node 23, Type 0, BuildingBlock: KUFVIS_clean_sbu_0, # of connection points: 4
#     Node 24, Type 0, BuildingBlock: KUFVIS_clean_sbu_0, # of connection points: 4
#     Node 25, Type 0, BuildingBlock: KUFVIS_clean_sbu_0, # of connection points: 4
#     Node 26, Type 0, BuildingBlock: KUFVIS_clean_sbu_0, # of connection points: 4
#     Node 27, Type 0, BuildingBlock: KUFVIS_clean_sbu_0, # of connection points: 4
#     Node 28, Type 0, BuildingBlock: KUFVIS_clean_sbu_0, # of connection points: 4
#     Node 29, Type 0, BuildingBlock: KUFVIS_clean_sbu_0, # of connection points: 4
#     Node 30, Type 0, BuildingBlock: KUFVIS_clean_sbu_0, # of connection points: 4
#     Node 31, Type 0, BuildingBlock: KUFVIS_clean_sbu_0, # of connection points: 4
#     Edge 32, Type (0, 0), BuildingBlock: KIFKEQ_clean_linker_1, # of connection points: 2
#     Edge 33, Type (0, 0), BuildingBlock: KIFKEQ_clean_linker_1, # of connection points: 2
#     Edge 34, Type (0, 0), BuildingBlock: KIFKEQ_clean_linker_1, # of connection points: 2
#     Edge 35, Type (0, 0), BuildingBlock: KIFKEQ_clean_linker_1, # of connection points: 2
#     Edge 36, Type (0, 0), BuildingBlock: KIFKEQ_clean_linker_1, # of connection points: 2
#     Edge 37, Type (0, 0), BuildingBlock: KIFKEQ_clean_linker_1, # of connection points: 2
#     Edge 38, Type (0, 0), BuildingBlock: KIFKEQ_clean_linker_1, # of connection points: 2
#     Edge 39, Type (0, 0), BuildingBlock: KIFKEQ_clean_linker_1, # of connection points: 2
#     Edge 40, Type (0, 0), BuildingBlock: KIFKEQ_clean_linker_1, # of connection points: 2
#     Edge 41, Type (0, 0), BuildingBlock: KIFKEQ_clean_linker_1, # of connection points: 2
#     Edge 42, Type (0, 0), BuildingBlock: KIFKEQ_clean_linker_1, # of connection points: 2
#     Edge 43, Type (0, 0), BuildingBlock: KIFKEQ_clean_linker_1, # of connection points: 2
#     Edge 44, Type (0, 0), BuildingBlock: KIFKEQ_clean_linker_1, # of connection points: 2
#     Edge 45, Type (0, 0), BuildingBlock: KIFKEQ_clean_linker_1, # of connection points: 2
#     Edge 46, Type (0, 0), BuildingBlock: KIFKEQ_clean_linker_1, # of connection points: 2
#     Edge 47, Type (0, 0), BuildingBlock: KIFKEQ_clean_linker_1, # of connection points: 2
#     Edge 48, Type (0, 0), BuildingBlock: KIFKEQ_clean_linker_1, # of connection points: 2
#     Edge 49, Type (0, 0), BuildingBlock: KIFKEQ_clean_linker_1, # of connection points: 2
#     Edge 50, Type (0, 0), BuildingBlock: KIFKEQ_clean_linker_1, # of connection points: 2
#     Edge 51, Type (0, 0), BuildingBlock: KIFKEQ_clean_linker_1, # of connection points: 2
#     Edge 52, Type (0, 0), BuildingBlock: KIFKEQ_clean_linker_1, # of connection points: 2
#     Edge 53, Type (0, 0), BuildingBlock: KIFKEQ_clean_linker_1, # of connection points: 2
#     Edge 54, Type (0, 0), BuildingBlock: KIFKEQ_clean_linker_1, # of connection points: 2
#     Edge 55, Type (0, 0), BuildingBlock: KIFKEQ_clean_linker_1, # of connection points: 2
#     Edge 56, Type (0, 0), BuildingBlock: KIFKEQ_clean_linker_1, # of connection points: 2
#     Edge 57, Type (0, 0), BuildingBlock: KIFKEQ_clean_linker_1, # of connection points: 2
#     Edge 58, Type (0, 0), BuildingBlock: KIFKEQ_clean_linker_1, # of connection points: 2
#     Edge 59, Type (0, 0), BuildingBlock: KIFKEQ_clean_linker_1, # of connection points: 2
#     Edge 60, Type (0, 0), BuildingBlock: KIFKEQ_clean_linker_1, # of connection points: 2
#     Edge 61, Type (0, 0), BuildingBlock: KIFKEQ_clean_linker_1, # of connection points: 2
#     Edge 62, Type (0, 0), BuildingBlock: KIFKEQ_clean_linker_1, # of connection points: 2
#     Edge 63, Type (0, 0), BuildingBlock: KIFKEQ_clean_linker_1, # of connection points: 2
#     Edge 64, Type (0, 0), BuildingBlock: KIFKEQ_clean_linker_1, # of connection points: 2
#     Edge 65, Type (0, 0), BuildingBlock: KIFKEQ_clean_linker_1, # of connection points: 2
#     Edge 66, Type (0, 0), BuildingBlock: KIFKEQ_clean_linker_1, # of connection points: 2
#     Edge 67, Type (0, 0), BuildingBlock: KIFKEQ_clean_linker_1, # of connection points: 2
#     Edge 68, Type (0, 0), BuildingBlock: KIFKEQ_clean_linker_1, # of connection points: 2
#     Edge 69, Type (0, 0), BuildingBlock: KIFKEQ_clean_linker_1, # of connection points: 2
#     Edge 70, Type (0, 0), BuildingBlock: KIFKEQ_clean_linker_1, # of connection points: 2
#     Edge 71, Type (0, 0), BuildingBlock: KIFKEQ_clean_linker_1, # of connection points: 2
#     Edge 72, Type (0, 0), BuildingBlock: KIFKEQ_clean_linker_1, # of connection points: 2
#     Edge 73, Type (0, 0), BuildingBlock: KIFKEQ_clean_linker_1, # of connection points: 2
#     Edge 74, Type (0, 0), BuildingBlock: KIFKEQ_clean_linker_1, # of connection points: 2
#     Edge 75, Type (0, 0), BuildingBlock: KIFKEQ_clean_linker_1, # of connection points: 2
#     Edge 76, Type (0, 0), BuildingBlock: KIFKEQ_clean_linker_1, # of connection points: 2
#     Edge 77, Type (0, 0), BuildingBlock: KIFKEQ_clean_linker_1, # of connection points: 2
#     Edge 78, Type (0, 0), BuildingBlock: KIFKEQ_clean_linker_1, # of connection points: 2
#     Edge 79, Type (0, 0), BuildingBlock: KIFKEQ_clean_linker_1, # of connection points: 2
#     Edge 80, Type (0, 0), BuildingBlock: KIFKEQ_clean_linker_1, # of connection points: 2
#     Edge 81, Type (0, 0), BuildingBlock: KIFKEQ_clean_linker_1, # of connection points: 2
#     Edge 82, Type (0, 0), BuildingBlock: KIFKEQ_clean_linker_1, # of connection points: 2
#     Edge 83, Type (0, 0), BuildingBlock: KIFKEQ_clean_linker_1, # of connection points: 2
#     Edge 84, Type (0, 0), BuildingBlock: KIFKEQ_clean_linker_1, # of connection points: 2
#     Edge 85, Type (0, 0), BuildingBlock: KIFKEQ_clean_linker_1, # of connection points: 2
#     Edge 86, Type (0, 0), BuildingBlock: KIFKEQ_clean_linker_1, # of connection points: 2
#     Edge 87, Type (0, 0), BuildingBlock: KIFKEQ_clean_linker_1, # of connection points: 2
#     Edge 88, Type (0, 0), BuildingBlock: KIFKEQ_clean_linker_1, # of connection points: 2
#     Edge 89, Type (0, 0), BuildingBlock: KIFKEQ_clean_linker_1, # of connection points: 2
#     Edge 90, Type (0, 0), BuildingBlock: KIFKEQ_clean_linker_1, # of connection points: 2
#     Edge 91, Type (0, 0), BuildingBlock: KIFKEQ_clean_linker_1, # of connection points: 2
#     Edge 92, Type (0, 0), BuildingBlock: KIFKEQ_clean_linker_1, # of connection points: 2
#     Edge 93, Type (0, 0), BuildingBlock: KIFKEQ_clean_linker_1, # of connection points: 2
#     Edge 94, Type (0, 0), BuildingBlock: KIFKEQ_clean_linker_1, # of connection points: 2
#     Edge 95, Type (0, 0), BuildingBlock: KIFKEQ_clean_linker_1, # of connection points: 2
# Relax obj value: 0.090
# Max RMSD: 0.140
# Mean RMSD: 0.135
data_MOF--net-mer--node1-KUFVIS_clean_sbu_0--edge1-KIFKEQ_clean_linker_1
_symmetry_space_group_name_H-M    P1
_symmetry_Int_Tables_number       1
_symmetry_cell_setting            triclinic
loop_
_symmetry_equiv_pos_as_xyz
'x, y, z'
_cell_length_a     65.431185
_cell_length_b     64.786905
_cell_length_c     52.677699
_cell_angle_alpha  90.009263
_cell_angle_beta   90.002361
_cell_angle_gamma 89.991989
loop_
_atom_site_label
_atom_site_type_symbol
_atom_site_fract_x
_atom_site_fract_y
_atom_site_fract_z
_atom_type_partial_charge
Mn0 Mn 0.10952 0.28447 0.36483 0.0
Mn1 Mn 0.14944 0.30918 0.3916 0.0
C2 C 0.11355 0.28375 0.40866 0.0
C3 C 0.07601 0.28623 0.34965 0.0
C4 C 0.15317 0.26765 0.36505 0.0
O5 O 0.12015 0.30281 0.33603 0.0
O6 O 0.14388 0.32077 0.3576 0.0
C7 C 0.12987 0.35002 0.39813 0.0
N8 N 0.13975 0.33346 0.40826 0.0
C9 C 0.13779 0.34788 0.45025 0.0
C10 C 0.12773 0.36519 0.44027 0.0
C11 C 0.12375 0.36625 0.41409 0.0
C12 C 0.14362 0.33225 0.4334 0.0
H13 H 0.12661 0.35078 0.37806 0.0
C14 C 0.13363 0.31702 0.33744 0.0
O15 O 0.08835 0.27172 0.34218 0.0
O16 O 0.08328 0.29979 0.36529 0.0
N17 N 0.1569 0.29969 0.42461 0.0
C18 C 0.16694 0.28203 0.43111 0.0
C19 C 0.17225 0.27862 0.45657 0.0
C20 C 0.16728 0.29344 0.47499 0.0
C21 C 0.15755 0.31179 0.46767 0.0
C22 C 0.15301 0.31451 0.44197 0.0
H23 H 0.17071 0.27053 0.41706 0.0
O24 O 0.10192 0.2704 0.39741 0.0
O25 O 0.12198 0.29748 0.39402 0.0
O26 O 0.13416 0.26493 0.3603 0.0
O27 O 0.16024 0.28399 0.3755 0.0
C28 C 0.15168 0.32724 0.48494 0.0
C29 C 0.14187 0.3453 0.47631 0.0
H30 H 0.12286 0.37767 0.45255 0.0
H31 H 0.11589 0.37949 0.40626 0.0
H32 H 0.17986 0.26447 0.46204 0.0
H33 H 0.17075 0.29037 0.49469 0.0
H34 H 0.15409 0.32505 0.50495 0.0
H35 H 0.13729 0.35696 0.48991 0.0
Mn36 Mn 0.72409 0.12065 0.34731 0.0
Mn37 Mn 0.77249 0.10567 0.35984 0.0
C38 C 0.74985 0.14503 0.34761 0.0
C39 C 0.69808 0.12479 0.31768 0.0
C40 C 0.73981 0.11124 0.40046 0.0
O41 O 0.72281 0.08934 0.34474 0.0
O42 O 0.75632 0.08162 0.34755 0.0
C43 C 0.78546 0.09592 0.30737 0.0
N44 N 0.78839 0.10646 0.32943 0.0
C45 C 0.81855 0.12289 0.31291 0.0
C46 C 0.816 0.11204 0.29009 0.0
C47 C 0.79933 0.09856 0.28728 0.0
C48 C 0.80424 0.11963 0.33225 0.0
H49 H 0.7726 0.08565 0.3051 0.0
C50 C 0.73763 0.07658 0.34385 0.0
O51 O 0.69396 0.12324 0.34173 0.0
O52 O 0.71707 0.12345 0.31092 0.0
N53 N 0.79021 0.12709 0.3718 0.0
C54 C 0.7902 0.13679 0.39476 0.0
C55 C 0.80567 0.1511 0.40042 0.0
C56 C 0.82115 0.15504 0.38261 0.0
C57 C 0.82112 0.14451 0.35936 0.0
C58 C 0.80536 0.13035 0.35482 0.0
H59 H 0.77842 0.13376 0.4086 0.0
O60 O 0.73085 0.15056 0.34907 0.0
O61 O 0.75325 0.12535 0.34479 0.0
O62 O 0.72581 0.11841 0.38603 0.0
O63 O 0.75722 0.10512 0.39228 0.0
C64 C 0.83592 0.14775 0.34034 0.0
C65 C 0.83458 0.13702 0.31709 0.0
H66 H 0.82664 0.11406 0.27453 0.0
H67 H 0.79717 0.09023 0.26967 0.0
H68 H 0.80564 0.1591 0.41846 0.0
H69 H 0.83295 0.16623 0.38694 0.0
H70 H 0.84826 0.15863 0.34329 0.0
H71 H 0.8459 0.13983 0.30249 0.0
Mn72 Mn 0.89153 0.71637 0.3631 0.0
Mn73 Mn 0.8501 0.69224 0.38668 0.0
C74 C 0.88595 0.71645 0.40662 0.0
C75 C 0.92562 0.71386 0.35026 0.0
C76 C 0.84847 0.73397 0.36013 0.0
O77 O 0.88162 0.6986 0.33348 0.0
O78 O 0.85729 0.67999 0.35332 0.0
C79 C 0.86737 0.65063 0.39538 0.0
N80 N 0.85764 0.6677 0.40439 0.0
C81 C 0.85541 0.65311 0.44627 0.0
C82 C 0.86522 0.63527 0.4374 0.0
C83 C 0.87123 0.63403 0.41184 0.0
C84 C 0.85167 0.66902 0.42889 0.0
H85 H 0.87222 0.64973 0.37582 0.0
C86 C 0.86848 0.68403 0.33399 0.0
O87 O 0.91394 0.72861 0.34187 0.0
O88 O 0.91727 0.70046 0.36522 0.0
N89 N 0.8415 0.7025 0.41895 0.0
C90 C 0.83374 0.72142 0.42495 0.0
C91 C 0.82781 0.72554 0.45005 0.0
C92 C 0.82989 0.71019 0.46867 0.0
C93 C 0.83769 0.69079 0.46192 0.0
C94 C 0.84302 0.68743 0.43656 0.0
H95 H 0.83227 0.73335 0.41079 0.0
O96 O 0.89811 0.72985 0.39633 0.0
O97 O 0.87774 0.70315 0.39116 0.0
O98 O 0.86771 0.73665 0.35732 0.0
O99 O 0.84077 0.7175 0.36943 0.0
C100 C 0.84132 0.67501 0.47964 0.0
C101 C 0.84997 0.6561 0.47187 0.0
H102 H 0.86849 0.62256 0.45013 0.0
H103 H 0.87896 0.62038 0.4049 0.0
H104 H 0.82186 0.74058 0.45509 0.0
H105 H 0.82573 0.71356 0.48814 0.0
H106 H 0.83836 0.67774 0.49941 0.0
H107 H 0.853 0.64426 0.48589 0.0
Mn108 Mn 0.27542 0.88087 0.33977 0.0
Mn109 Mn 0.22756 0.89519 0.35604 0.0
C110 C 0.25031 0.85602 0.34323 0.0
C111 C 0.29953 0.87665 0.30757 0.0
C112 C 0.26248 0.89094 0.39395 0.0
O113 O 0.2759 0.9121 0.33613 0.0
O114 O 0.24256 0.91938 0.342 0.0
C115 C 0.21171 0.90388 0.30453 0.0
N116 N 0.21016 0.89361 0.32699 0.0
C117 C 0.17958 0.87629 0.31323 0.0
C118 C 0.18073 0.88683 0.29003 0.0
C119 C 0.19692 0.90063 0.28563 0.0
C120 C 0.19477 0.88014 0.33133 0.0
H121 H 0.22419 0.91441 0.30104 0.0
C122 C 0.2609 0.92464 0.33647 0.0
O123 O 0.30517 0.87895 0.33107 0.0
O124 O 0.2801 0.8773 0.30294 0.0
N125 N 0.21089 0.87368 0.3699 0.0
C126 C 0.21217 0.86449 0.39313 0.0
C127 C 0.19728 0.85003 0.40036 0.0
C128 C 0.18105 0.84542 0.38385 0.0
C129 C 0.17977 0.85546 0.36033 0.0
C130 C 0.19501 0.8698 0.3542 0.0
H131 H 0.22453 0.86804 0.40598 0.0
O132 O 0.26945 0.85088 0.34312 0.0
O133 O 0.24633 0.87555 0.34007 0.0
O134 O 0.27592 0.88394 0.37856 0.0
O135 O 0.24452 0.89649 0.38708 0.0
C136 C 0.16412 0.85161 0.34258 0.0
C137 C 0.16408 0.86193 0.319 0.0
H138 H 0.16937 0.88434 0.27539 0.0
H139 H 0.19799 0.90873 0.26771 0.0
H140 H 0.19832 0.84243 0.4186 0.0
H141 H 0.1697 0.83412 0.3894 0.0
H142 H 0.15215 0.84058 0.34677 0.0
H143 H 0.15209 0.85866 0.3054 0.0
Mn144 Mn 0.11165 0.71967 0.63948 0.0
Mn145 Mn 0.15213 0.69453 0.61486 0.0
C146 C 0.11642 0.7194 0.59582 0.0
C147 C 0.07802 0.71804 0.654 0.0
C148 C 0.15512 0.73644 0.64054 0.0
O149 O 0.122 0.70207 0.66917 0.0
O150 O 0.14557 0.68308 0.64864 0.0
C151 C 0.13285 0.65362 0.6078 0.0
N152 N 0.14291 0.67019 0.59795 0.0
C153 C 0.14176 0.65573 0.55593 0.0
C154 C 0.13152 0.63843 0.56563 0.0
C155 C 0.12705 0.63738 0.59168 0.0
C156 C 0.14729 0.67136 0.57294 0.0
H157 H 0.12918 0.65288 0.62777 0.0
C158 C 0.1351 0.68744 0.66844 0.0
O159 O 0.09014 0.73282 0.66119 0.0
O160 O 0.08558 0.70414 0.63903 0.0
N161 N 0.16036 0.70395 0.58209 0.0
C162 C 0.17038 0.72168 0.57583 0.0
C163 C 0.17609 0.7251 0.55051 0.0
C164 C 0.17152 0.71024 0.53196 0.0
C165 C 0.16172 0.69187 0.53904 0.0
C166 C 0.15681 0.68911 0.56463 0.0
H167 H 0.17385 0.7332 0.58998 0.0
O168 O 0.10443 0.73288 0.60624 0.0
O169 O 0.12471 0.70611 0.61119 0.0
O170 O 0.13597 0.73951 0.64369 0.0
O171 O 0.16258 0.71978 0.63137 0.0
C172 C 0.15609 0.67645 0.52162 0.0
C173 C 0.14621 0.65835 0.52998 0.0
H174 H 0.12686 0.62596 0.55321 0.0
H175 H 0.11903 0.62414 0.59929 0.0
H176 H 0.18374 0.73928 0.54523 0.0
H177 H 0.17539 0.71325 0.51236 0.0
H178 H 0.15869 0.67872 0.50167 0.0
H179 H 0.14182 0.64672 0.51625 0.0
Mn180 Mn 0.27655 0.11789 0.64879 0.0
Mn181 Mn 0.22784 0.10423 0.6355 0.0
C182 C 0.25142 0.14288 0.64778 0.0
C183 C 0.30253 0.12204 0.67846 0.0
C184 C 0.26069 0.10925 0.59519 0.0
O185 O 0.27704 0.08663 0.6525 0.0
O186 O 0.24373 0.07962 0.64648 0.0
C187 C 0.2151 0.09315 0.68765 0.0
N188 N 0.21223 0.10444 0.66615 0.0
C189 C 0.18251 0.12094 0.68382 0.0
C190 C 0.18506 0.10938 0.7061 0.0
C191 C 0.20146 0.09547 0.70805 0.0
C192 C 0.1966 0.11799 0.66415 0.0
H193 H 0.22771 0.08247 0.68923 0.0
C194 C 0.26205 0.07406 0.65168 0.0
O195 O 0.3067 0.11989 0.6545 0.0
O196 O 0.28349 0.12126 0.68516 0.0
N197 N 0.2103 0.12616 0.62464 0.0
C198 C 0.21012 0.1363 0.60197 0.0
C199 C 0.19478 0.15094 0.59708 0.0
C200 C 0.1796 0.15475 0.61533 0.0
C201 C 0.17979 0.14374 0.63824 0.0
C202 C 0.19541 0.12928 0.64202 0.0
H203 H 0.22167 0.13336 0.58779 0.0
O204 O 0.27054 0.14788 0.64613 0.0
O205 O 0.24746 0.12334 0.65102 0.0
O206 O 0.27507 0.11507 0.60999 0.0
O207 O 0.24283 0.10431 0.60298 0.0
C208 C 0.16525 0.14674 0.65763 0.0
C209 C 0.16666 0.13542 0.68044 0.0
H210 H 0.17459 0.11115 0.72188 0.0
H211 H 0.20359 0.08656 0.72522 0.0
H212 H 0.19468 0.1593 0.57929 0.0
H213 H 0.1679 0.16618 0.61159 0.0
H214 H 0.15302 0.15784 0.65528 0.0
H215 H 0.15552 0.13802 0.69531 0.0
Mn216 Mn 0.89134 0.27926 0.63794 0.0
Mn217 Mn 0.85053 0.30515 0.61569 0.0
C218 C 0.88461 0.27901 0.5947 0.0
C219 C 0.92562 0.28079 0.65006 0.0
C220 C 0.84771 0.26371 0.64275 0.0
O221 O 0.88261 0.2974 0.66784 0.0
O222 O 0.85919 0.31739 0.64844 0.0
C223 C 0.87055 0.34524 0.60543 0.0
N224 N 0.85951 0.32876 0.59709 0.0
C225 C 0.85899 0.34204 0.55448 0.0
C226 C 0.87017 0.35928 0.56264 0.0
C227 C 0.87597 0.36087 0.58824 0.0
C228 C 0.85385 0.32706 0.57253 0.0
H229 H 0.87531 0.34637 0.62501 0.0
C230 C 0.87036 0.31274 0.66754 0.0
O231 O 0.91366 0.26639 0.65872 0.0
O232 O 0.9175 0.2943 0.63502 0.0
N233 N 0.84048 0.29508 0.58398 0.0
C234 C 0.82995 0.27736 0.57911 0.0
C235 C 0.82302 0.27339 0.55437 0.0
C236 C 0.82696 0.28768 0.53495 0.0
C237 C 0.83745 0.30599 0.54058 0.0
C238 C 0.84354 0.30935 0.56567 0.0
H239 H 0.82695 0.26627 0.59393 0.0
O240 O 0.89679 0.26541 0.60453 0.0
O241 O 0.87732 0.29264 0.61037 0.0
O242 O 0.86688 0.26008 0.64432 0.0
O243 O 0.84025 0.28056 0.63401 0.0
C244 C 0.84264 0.32076 0.52214 0.0
C245 C 0.85329 0.33883 0.52901 0.0
H246 H 0.87456 0.37125 0.54937 0.0
H247 H 0.88475 0.37404 0.59466 0.0
H248 H 0.81488 0.25925 0.55022 0.0
H249 H 0.82203 0.28433 0.51577 0.0
H250 H 0.83912 0.31796 0.50251 0.0
H251 H 0.85734 0.34993 0.51449 0.0
Mn252 Mn 0.72919 0.88169 0.65448 0.0
Mn253 Mn 0.77794 0.89442 0.64037 0.0
C254 C 0.75371 0.85615 0.65298 0.0
C255 C 0.70366 0.87841 0.68483 0.0
C256 C 0.74456 0.88998 0.60063 0.0
O257 O 0.72934 0.91291 0.65796 0.0
O258 O 0.76268 0.91947 0.65157 0.0
C259 C 0.79147 0.90526 0.69229 0.0
N260 N 0.79386 0.89388 0.67076 0.0
C261 C 0.82328 0.8766 0.68805 0.0
C262 C 0.82123 0.88824 0.71035 0.0
C263 C 0.80522 0.90259 0.7125 0.0
C264 C 0.80911 0.87992 0.66856 0.0
H265 H 0.77915 0.91626 0.69403 0.0
C266 C 0.74446 0.92529 0.65691 0.0
O267 O 0.6991 0.88045 0.66096 0.0
O268 O 0.72282 0.8787 0.691 0.0
N269 N 0.79488 0.8721 0.62924 0.0
C270 C 0.79456 0.86191 0.6066 0.0
C271 C 0.80944 0.84683 0.60154 0.0
C272 C 0.82468 0.84263 0.6196 0.0
C273 C 0.825 0.85369 0.64248 0.0
C274 C 0.80982 0.86859 0.64642 0.0
H275 H 0.78296 0.86513 0.59258 0.0
O276 O 0.73445 0.85158 0.65186 0.0
O277 O 0.75815 0.87561 0.65613 0.0
O278 O 0.73025 0.88435 0.61564 0.0
O279 O 0.76258 0.89466 0.60813 0.0
C280 C 0.83961 0.8503 0.66168 0.0
C281 C 0.8387 0.86168 0.68449 0.0
H282 H 0.83179 0.88621 0.726 0.0
H283 H 0.80348 0.91156 0.72969 0.0
H284 H 0.80914 0.83843 0.58379 0.0
H285 H 0.83602 0.83086 0.61573 0.0
H286 H 0.8515 0.83884 0.6592 0.0
H287 H 0.84989 0.85879 0.69922 0.0
Mn288 Mn 0.89022 0.7153 0.64035 0.0
Mn289 Mn 0.84809 0.6887 0.62328 0.0
C290 C 0.88135 0.71274 0.59783 0.0
C291 C 0.92497 0.71522 0.65048 0.0
C292 C 0.84675 0.73266 0.64338 0.0
O293 O 0.88311 0.69964 0.67275 0.0
O294 O 0.85635 0.68138 0.65831 0.0
C295 C 0.8676 0.64748 0.62271 0.0
N296 N 0.85649 0.66238 0.61078 0.0
C297 C 0.85105 0.64054 0.57454 0.0
C298 C 0.86227 0.62487 0.5865 0.0
C299 C 0.87077 0.62844 0.61059 0.0
C300 C 0.84899 0.65942 0.5872 0.0
H301 H 0.87395 0.6501 0.64135 0.0
C302 C 0.86909 0.68622 0.67568 0.0
O303 O 0.91301 0.72994 0.65823 0.0
O304 O 0.91663 0.70051 0.6374 0.0
N305 N 0.83771 0.69345 0.58987 0.0
C306 C 0.8268 0.70995 0.58129 0.0
C307 C 0.81705 0.70883 0.55759 0.0
C308 C 0.81794 0.6905 0.54343 0.0
C309 C 0.82892 0.67355 0.55285 0.0
C310 C 0.83873 0.67575 0.5763 0.0
H311 H 0.8254 0.72382 0.59253 0.0
O312 O 0.89396 0.72683 0.60553 0.0
O313 O 0.87504 0.69982 0.61501 0.0
O314 O 0.86602 0.73486 0.64636 0.0
O315 O 0.83849 0.71596 0.63536 0.0
C316 C 0.82998 0.65433 0.54032 0.0
C317 C 0.84143 0.63801 0.55085 0.0
H318 H 0.8644 0.61002 0.5774 0.0
H319 H 0.87952 0.61646 0.61992 0.0
H320 H 0.80847 0.72191 0.55053 0.0
H321 H 0.8099 0.68953 0.52549 0.0
H322 H 0.82198 0.65187 0.52259 0.0
H323 H 0.84238 0.62345 0.54081 0.0
Mn324 Mn 0.28143 0.88761 0.62689 0.0
Mn325 Mn 0.30579 0.84788 0.59843 0.0
C326 C 0.27996 0.88434 0.5834 0.0
C327 C 0.28235 0.92113 0.64309 0.0
C328 C 0.26481 0.84343 0.62508 0.0
O329 O 0.29998 0.87671 0.65462 0.0
O330 O 0.31696 0.85192 0.63334 0.0
C331 C 0.34664 0.86717 0.59416 0.0
N332 N 0.33025 0.85794 0.58298 0.0
C333 C 0.34583 0.86037 0.54171 0.0
C334 C 0.36295 0.86977 0.55281 0.0
C335 C 0.36333 0.87322 0.57914 0.0
C336 C 0.32968 0.85464 0.55765 0.0
H337 H 0.34695 0.86991 0.61438 0.0
C338 C 0.31345 0.86252 0.65341 0.0
O339 O 0.26874 0.9079 0.65072 0.0
O340 O 0.29574 0.91462 0.62681 0.0
N341 N 0.29691 0.84189 0.56461 0.0
C342 C 0.27909 0.83302 0.55683 0.0
C343 C 0.27613 0.82881 0.53093 0.0
C344 C 0.29161 0.83348 0.51338 0.0
C345 C 0.31 0.84215 0.52191 0.0
C346 C 0.31212 0.84591 0.54797 0.0
H347 H 0.26715 0.82935 0.57023 0.0
O348 O 0.26671 0.89555 0.59542 0.0
O349 O 0.29423 0.87582 0.59714 0.0
O350 O 0.26267 0.86239 0.63132 0.0
O351 O 0.28047 0.8365 0.61328 0.0
C352 C 0.32618 0.84753 0.50556 0.0
C353 C 0.34405 0.85669 0.51544 0.0
H354 H 0.37582 0.87451 0.54128 0.0
H355 H 0.37644 0.88055 0.58782 0.0
H356 H 0.26192 0.82204 0.52451 0.0
H357 H 0.28919 0.8304 0.49339 0.0
H358 H 0.32496 0.84487 0.48531 0.0
H359 H 0.3563 0.86095 0.50263 0.0
Mn360 Mn 0.1125 0.28296 0.64368 0.0
Mn361 Mn 0.15439 0.30847 0.62331 0.0
C362 C 0.11898 0.28514 0.60048 0.0
C363 C 0.07845 0.28336 0.65664 0.0
C364 C 0.15567 0.26435 0.6422 0.0
O365 O 0.12132 0.29847 0.67542 0.0
O366 O 0.14862 0.3147 0.65941 0.0
C367 C 0.1367 0.35042 0.62695 0.0
N368 N 0.14657 0.33564 0.61326 0.0
C369 C 0.15266 0.35925 0.57892 0.0
C370 C 0.14259 0.37478 0.59262 0.0
C371 C 0.1344 0.37028 0.61665 0.0
C372 C 0.15391 0.3396 0.58984 0.0
H373 H 0.13078 0.34712 0.64565 0.0
C374 C 0.13646 0.31065 0.67769 0.0
O375 O 0.09059 0.26839 0.66311 0.0
O376 O 0.08619 0.29816 0.64317 0.0
N377 N 0.16282 0.30481 0.5889 0.0
C378 C 0.17182 0.28801 0.57806 0.0
C379 C 0.18112 0.28996 0.55416 0.0
C380 C 0.1816 0.30928 0.54205 0.0
C381 C 0.17218 0.32632 0.55351 0.0
C382 C 0.16292 0.32338 0.57715 0.0
H383 H 0.17223 0.27335 0.58781 0.0
O384 O 0.10666 0.2714 0.6097 0.0
O385 O 0.12656 0.2983 0.61677 0.0
O386 O 0.13669 0.26282 0.6477 0.0
O387 O 0.16369 0.28067 0.63291 0.0
C388 C 0.1719 0.34621 0.54261 0.0
C389 C 0.16179 0.36256 0.55506 0.0
H390 H 0.14111 0.39021 0.58492 0.0
H391 H 0.12661 0.38218 0.62737 0.0
H392 H 0.18836 0.27675 0.54539 0.0
H393 H 0.18935 0.3109 0.524 0.0
H394 H 0.1792 0.34904 0.52449 0.0
H395 H 0.16134 0.37766 0.54625 0.0
Mn396 Mn 0.72201 0.11211 0.63392 0.0
Mn397 Mn 0.69745 0.15152 0.605 0.0
C398 C 0.72445 0.11592 0.59056 0.0
C399 C 0.72202 0.0783 0.64934 0.0
C400 C 0.73775 0.15678 0.63276 0.0
O401 O 0.70217 0.12186 0.661 0.0
O402 O 0.68621 0.14734 0.63979 0.0
C403 C 0.657 0.13142 0.6004 0.0
N404 N 0.67326 0.14098 0.58936 0.0
C405 C 0.65789 0.13836 0.54799 0.0
C406 C 0.6409 0.12862 0.55894 0.0
C407 C 0.64049 0.12509 0.58525 0.0
C408 C 0.67388 0.14433 0.56405 0.0
H409 H 0.65665 0.12864 0.62061 0.0
C410 C 0.68891 0.13625 0.65965 0.0
O411 O 0.73487 0.09196 0.65782 0.0
O412 O 0.70877 0.08454 0.63272 0.0
N413 N 0.70638 0.15768 0.57125 0.0
C414 C 0.72404 0.16696 0.56362 0.0
C415 C 0.727 0.17133 0.53777 0.0
C416 C 0.71167 0.16642 0.5201 0.0
C417 C 0.69343 0.15734 0.52849 0.0
C418 C 0.69131 0.15341 0.5545 0.0
H419 H 0.73584 0.17084 0.57712 0.0
O420 O 0.73784 0.10514 0.60293 0.0
O421 O 0.70956 0.12379 0.60385 0.0
O422 O 0.73983 0.13794 0.63958 0.0
O423 O 0.72244 0.16336 0.62002 0.0
C424 C 0.67739 0.15175 0.51202 0.0
C425 C 0.65967 0.1422 0.52175 0.0
H426 H 0.62815 0.12368 0.54732 0.0
H427 H 0.62748 0.1175 0.59383 0.0
H428 H 0.74109 0.17842 0.53146 0.0
H429 H 0.71409 0.16964 0.50015 0.0
H430 H 0.6786 0.15457 0.49181 0.0
H431 H 0.64753 0.13778 0.50886 0.0
Mn432 Mn 0.8882 0.28556 0.36039 0.0
Mn433 Mn 0.84505 0.30901 0.38057 0.0
C434 C 0.88034 0.2856 0.40335 0.0
C435 C 0.92281 0.28747 0.34952 0.0
C436 C 0.84549 0.26593 0.35824 0.0
O437 O 0.87986 0.30242 0.32943 0.0
O438 O 0.85169 0.31723 0.34531 0.0
C439 C 0.86143 0.35159 0.38119 0.0
N440 N 0.85171 0.33577 0.39319 0.0
C441 C 0.84426 0.35712 0.42934 0.0
C442 C 0.85415 0.37368 0.41739 0.0
C443 C 0.86293 0.37084 0.39329 0.0
C444 C 0.84372 0.33817 0.41662 0.0
H445 H 0.86784 0.34954 0.36246 0.0
C446 C 0.86443 0.31428 0.32731 0.0
O447 O 0.91125 0.27273 0.34091 0.0
O448 O 0.91411 0.30125 0.36369 0.0
N449 N 0.83582 0.30318 0.4142 0.0
C450 C 0.82733 0.28548 0.42334 0.0
C451 C 0.81782 0.28564 0.44723 0.0
C452 C 0.8166 0.30413 0.46108 0.0
C453 C 0.82542 0.32218 0.45127 0.0
C454 C 0.83495 0.32099 0.42756 0.0
H455 H 0.82759 0.27142 0.41232 0.0
O456 O 0.89321 0.2725 0.39384 0.0
O457 O 0.87293 0.29924 0.38757 0.0
O458 O 0.86468 0.26502 0.35359 0.0
O459 O 0.83686 0.2816 0.36833 0.0
C460 C 0.82494 0.34136 0.46393 0.0
C461 C 0.83469 0.35872 0.4532 0.0
H462 H 0.85506 0.38864 0.42651 0.0
H463 H 0.87059 0.38354 0.38393 0.0
H464 H 0.81105 0.27167 0.4547 0.0
H465 H 0.80879 0.30431 0.4792 0.0
H466 H 0.81729 0.34292 0.48206 0.0
H467 H 0.83456 0.37325 0.46336 0.0
Mn468 Mn 0.72609 0.88923 0.36745 0.0
Mn469 Mn 0.70389 0.84802 0.3954 0.0
C470 C 0.72876 0.88505 0.4107 0.0
C471 C 0.724 0.92287 0.3521 0.0
C472 C 0.74364 0.84563 0.36581 0.0
O473 O 0.70677 0.87831 0.34033 0.0
O474 O 0.69064 0.85314 0.36203 0.0
C475 C 0.66293 0.86581 0.40474 0.0
N476 N 0.68022 0.8567 0.41375 0.0
C477 C 0.6672 0.85695 0.45646 0.0
C478 C 0.64918 0.86621 0.44763 0.0
C479 C 0.64706 0.8707 0.42166 0.0
C480 C 0.68246 0.8524 0.4387 0.0
H481 H 0.66129 0.86934 0.38481 0.0
C482 C 0.69323 0.86419 0.34212 0.0
O483 O 0.73778 0.91011 0.34384 0.0
O484 O 0.71102 0.91591 0.36863 0.0
N485 N 0.71509 0.84114 0.42788 0.0
C486 C 0.73368 0.83279 0.43342 0.0
C487 C 0.73841 0.82774 0.45868 0.0
C488 C 0.72391 0.83109 0.4779 0.0
C489 C 0.70474 0.83934 0.47167 0.0
C490 C 0.70085 0.84396 0.44615 0.0
H491 H 0.74488 0.83014 0.41872 0.0
O492 O 0.74136 0.89699 0.39865 0.0
O493 O 0.71451 0.87634 0.39717 0.0
O494 O 0.74562 0.86491 0.36154 0.0
O495 O 0.72837 0.83772 0.37739 0.0
C496 C 0.68945 0.84344 0.48981 0.0
C497 C 0.67073 0.85232 0.48223 0.0
H498 H 0.63693 0.87007 0.46062 0.0
H499 H 0.63324 0.87794 0.41472 0.0
H500 H 0.75322 0.82134 0.46333 0.0
H501 H 0.72768 0.82736 0.49739 0.0
H502 H 0.69203 0.84005 0.50969 0.0
H503 H 0.65919 0.85564 0.49641 0.0
Mn504 Mn 0.11277 0.71504 0.36097 0.0
Mn505 Mn 0.15544 0.69094 0.3816 0.0
C506 C 0.11962 0.71384 0.40416 0.0
C507 C 0.07868 0.7136 0.3482 0.0
C508 C 0.15551 0.7346 0.36105 0.0
O509 O 0.12183 0.69915 0.32961 0.0
O510 O 0.14943 0.68359 0.3459 0.0
C511 C 0.13878 0.64849 0.38011 0.0
N512 N 0.14842 0.6639 0.39297 0.0
C513 C 0.15544 0.64149 0.42824 0.0
C514 C 0.14561 0.62532 0.4154 0.0
C515 C 0.13708 0.6289 0.39132 0.0
C516 C 0.15612 0.66081 0.41641 0.0
H517 H 0.13259 0.65111 0.36137 0.0
C518 C 0.13712 0.68712 0.32761 0.0
O519 O 0.09047 0.72871 0.34127 0.0
O520 O 0.08678 0.69925 0.36211 0.0
N521 N 0.16414 0.69583 0.41567 0.0
C522 C 0.17276 0.71317 0.42564 0.0
C523 C 0.18228 0.71219 0.4495 0.0
C524 C 0.18338 0.69328 0.46246 0.0
C525 C 0.17434 0.67564 0.45187 0.0
C526 C 0.16484 0.67762 0.42823 0.0
H527 H 0.17268 0.72754 0.41524 0.0
O528 O 0.10687 0.72708 0.39473 0.0
O529 O 0.12742 0.70059 0.38814 0.0
O530 O 0.13641 0.73567 0.35606 0.0
O531 O 0.164 0.71864 0.37064 0.0
C532 C 0.17465 0.65609 0.46367 0.0
C533 C 0.16485 0.63913 0.4521 0.0
H534 H 0.14458 0.6101 0.42382 0.0
H535 H 0.12948 0.61651 0.38128 0.0
H536 H 0.18921 0.72586 0.45758 0.0
H537 H 0.19128 0.69242 0.48048 0.0
H538 H 0.18218 0.65398 0.48179 0.0
H539 H 0.16486 0.6243 0.46159 0.0
Mn540 Mn 0.275 0.11158 0.36154 0.0
Mn541 Mn 0.29984 0.15144 0.38904 0.0
C542 C 0.27404 0.11519 0.405 0.0
C543 C 0.27544 0.07815 0.34531 0.0
C544 C 0.25898 0.15585 0.3622 0.0
O545 O 0.29355 0.1222 0.33347 0.0
O546 O 0.31142 0.14641 0.35466 0.0
C547 C 0.3404 0.13184 0.39508 0.0
N548 N 0.32392 0.14148 0.4055 0.0
C549 C 0.33877 0.13987 0.44723 0.0
C550 C 0.35598 0.13005 0.43693 0.0
C551 C 0.35677 0.12597 0.41074 0.0
C552 C 0.32295 0.14538 0.43067 0.0
H553 H 0.34101 0.12862 0.37497 0.0
C554 C 0.30764 0.13578 0.33469 0.0
O555 O 0.26172 0.09143 0.3382 0.0
O556 O 0.28922 0.08445 0.36124 0.0
N557 N 0.29041 0.15822 0.42241 0.0
C558 C 0.2725 0.16733 0.42943 0.0
C559 C 0.26912 0.17213 0.45509 0.0
C560 C 0.28428 0.16777 0.4732 0.0
C561 C 0.30275 0.15879 0.46545 0.0
C562 C 0.3053 0.15446 0.43959 0.0
H563 H 0.26081 0.17076 0.41559 0.0
O564 O 0.26065 0.10386 0.39339 0.0
O565 O 0.28813 0.12357 0.39089 0.0
O566 O 0.25618 0.13674 0.3574 0.0
O567 O 0.27499 0.16294 0.37305 0.0
C568 C 0.31862 0.15369 0.48241 0.0
C569 C 0.33658 0.14416 0.47332 0.0
H570 H 0.36861 0.12545 0.44896 0.0
H571 H 0.36995 0.11831 0.40267 0.0
H572 H 0.25485 0.17911 0.4609 0.0
H573 H 0.28154 0.17131 0.49301 0.0
H574 H 0.31707 0.15682 0.50251 0.0
H575 H 0.34857 0.14009 0.48659 0.0
Mn576 Mn 0.61376 0.78379 0.86363 0.0
Mn577 Mn 0.65416 0.80728 0.89098 0.0
C578 C 0.61699 0.78357 0.90747 0.0
C579 C 0.58035 0.78629 0.84831 0.0
C580 C 0.65681 0.76531 0.86542 0.0
O581 O 0.62499 0.80175 0.83497 0.0
O582 O 0.65 0.81814 0.85624 0.0
C583 C 0.63699 0.8494 0.89486 0.0
N584 N 0.64567 0.83263 0.90611 0.0
C585 C 0.64443 0.84883 0.94714 0.0
C586 C 0.63563 0.86637 0.93599 0.0
C587 C 0.63191 0.86665 0.90973 0.0
C588 C 0.64947 0.83224 0.9313 0.0
H589 H 0.63391 0.84958 0.87472 0.0
C590 C 0.6394 0.81499 0.83618 0.0
O591 O 0.59243 0.77161 0.84069 0.0
O592 O 0.58795 0.79966 0.86393 0.0
N593 N 0.66015 0.79838 0.92471 0.0
C594 C 0.66755 0.77981 0.93269 0.0
C595 C 0.67158 0.77674 0.95858 0.0
C596 C 0.66798 0.79278 0.97594 0.0
C597 C 0.66069 0.81185 0.96716 0.0
C598 C 0.65736 0.81416 0.94111 0.0
H599 H 0.67015 0.76736 0.91946 0.0
O600 O 0.60552 0.77013 0.89611 0.0
O601 O 0.62608 0.79692 0.89286 0.0
O602 O 0.63792 0.76346 0.85946 0.0
O603 O 0.66409 0.78123 0.87648 0.0
C604 C 0.65549 0.82826 0.98339 0.0
C605 C 0.64761 0.84683 0.97345 0.0
H606 H 0.63142 0.87958 0.94746 0.0
H607 H 0.62499 0.88006 0.901 0.0
H608 H 0.67716 0.76197 0.9652 0.0
H609 H 0.67051 0.79013 0.99597 0.0
H610 H 0.65643 0.82628 0.00361 0.0
H611 H 0.64342 0.85918 0.98629 0.0
Mn612 Mn 0.2257 0.62031 0.84886 0.0
Mn613 Mn 0.27428 0.60567 0.86121 0.0
C614 C 0.25136 0.64478 0.84929 0.0
C615 C 0.19939 0.62478 0.81976 0.0
C616 C 0.24201 0.61132 0.90211 0.0
O617 O 0.22456 0.58901 0.84528 0.0
O618 O 0.25786 0.58142 0.85032 0.0
C619 C 0.28618 0.59471 0.8087 0.0
N620 N 0.28952 0.60579 0.83027 0.0
C621 C 0.31926 0.62192 0.81218 0.0
C622 C 0.31622 0.61058 0.78981 0.0
C623 C 0.29956 0.59696 0.78805 0.0
C624 C 0.30537 0.61908 0.83208 0.0
H625 H 0.27337 0.58426 0.80727 0.0
C626 C 0.23937 0.57619 0.8456 0.0
O627 O 0.19552 0.62281 0.84381 0.0
O628 O 0.21832 0.62371 0.81263 0.0
N629 N 0.29235 0.62719 0.87197 0.0
C630 C 0.29318 0.63692 0.8949 0.0
C631 C 0.30904 0.65097 0.89982 0.0
C632 C 0.32405 0.65463 0.8813 0.0
C633 C 0.32313 0.64412 0.85807 0.0
C634 C 0.30707 0.63016 0.85433 0.0
H635 H 0.28181 0.63404 0.90931 0.0
O636 O 0.23238 0.65023 0.85128 0.0
O637 O 0.25483 0.62515 0.8461 0.0
O638 O 0.22764 0.61754 0.88758 0.0
O639 O 0.25965 0.60587 0.89402 0.0
C640 C 0.33743 0.64705 0.8384 0.0
C641 C 0.33544 0.63604 0.81542 0.0
H642 H 0.32651 0.61227 0.77385 0.0
H643 H 0.29706 0.58822 0.77082 0.0
H644 H 0.3097 0.65895 0.91784 0.0
H645 H 0.33621 0.66553 0.88512 0.0
H646 H 0.34992 0.65786 0.84068 0.0
H647 H 0.34642 0.63856 0.80036 0.0
Mn648 Mn 0.38893 0.22007 0.8576 0.0
Mn649 Mn 0.34755 0.1965 0.8822 0.0
C650 C 0.38373 0.22063 0.90119 0.0
C651 C 0.42269 0.21726 0.84376 0.0
C652 C 0.34594 0.23805 0.85546 0.0
O653 O 0.37844 0.20222 0.82818 0.0
O654 O 0.35406 0.18437 0.84877 0.0
C655 C 0.36562 0.15517 0.8904 0.0
N656 N 0.35595 0.17216 0.89976 0.0
C657 C 0.35645 0.15835 0.94211 0.0
C658 C 0.36628 0.14062 0.93293 0.0
C659 C 0.37088 0.13903 0.90695 0.0
C660 C 0.35143 0.17385 0.92468 0.0
H661 H 0.3694 0.15402 0.87049 0.0
C662 C 0.36488 0.18804 0.82906 0.0
O663 O 0.41105 0.23223 0.83596 0.0
O664 O 0.41458 0.20384 0.85893 0.0
N665 N 0.33933 0.20665 0.91466 0.0
C666 C 0.32979 0.22476 0.92042 0.0
C667 C 0.32398 0.22872 0.9456 0.0
C668 C 0.32799 0.21401 0.96452 0.0
C669 C 0.33737 0.19528 0.95796 0.0
C670 C 0.34235 0.19199 0.93249 0.0
H671 H 0.32674 0.23616 0.90598 0.0
O672 O 0.39614 0.23363 0.89065 0.0
O673 O 0.37524 0.20735 0.88599 0.0
O674 O 0.36519 0.24052 0.85248 0.0
O675 O 0.33794 0.22178 0.86499 0.0
C676 C 0.34253 0.18002 0.97579 0.0
C677 C 0.35195 0.16151 0.96795 0.0
H678 H 0.37053 0.12822 0.94568 0.0
H679 H 0.37857 0.12546 0.89973 0.0
H680 H 0.31667 0.24317 0.95048 0.0
H681 H 0.32402 0.21737 0.98403 0.0
H682 H 0.33997 0.18275 0.99565 0.0
H683 H 0.35597 0.15001 0.98201 0.0
Mn684 Mn 0.77499 0.37899 0.84577 0.0
Mn685 Mn 0.7268 0.39268 0.86143 0.0
C686 C 0.75013 0.35388 0.84896 0.0
C687 C 0.79956 0.3745 0.81421 0.0
C688 C 0.7613 0.38901 0.89985 0.0
O689 O 0.77506 0.41017 0.84117 0.0
O690 O 0.74188 0.41714 0.84833 0.0
C691 C 0.71157 0.40203 0.8098 0.0
N692 N 0.70982 0.39138 0.83198 0.0
C693 C 0.67947 0.37415 0.81729 0.0
C694 C 0.68087 0.38503 0.79434 0.0
C695 C 0.69702 0.39898 0.79056 0.0
C696 C 0.69442 0.37782 0.83576 0.0
H697 H 0.724 0.41273 0.80683 0.0
C698 C 0.76002 0.42267 0.84219 0.0
O699 O 0.80487 0.37725 0.83775 0.0
O700 O 0.78019 0.37489 0.80914 0.0
N701 N 0.7101 0.37087 0.87447 0.0
C702 C 0.71121 0.36126 0.89745 0.0
C703 C 0.6963 0.34664 0.9041 0.0
C704 C 0.68024 0.34227 0.88724 0.0
C705 C 0.67917 0.35266 0.86394 0.0
C706 C 0.69441 0.36717 0.85841 0.0
H707 H 0.72345 0.36463 0.91056 0.0
O708 O 0.76932 0.34898 0.84967 0.0
O709 O 0.74596 0.37334 0.84551 0.0
O710 O 0.77512 0.38262 0.88458 0.0
O711 O 0.74319 0.39377 0.89281 0.0
C712 C 0.66379 0.34894 0.84579 0.0
C713 C 0.66398 0.35962 0.82244 0.0
H714 H 0.6697 0.3827 0.77943 0.0
H715 H 0.69826 0.40736 0.77286 0.0
H716 H 0.6972 0.33872 0.92215 0.0
H717 H 0.66887 0.33085 0.89234 0.0
H718 H 0.65188 0.33772 0.84946 0.0
H719 H 0.65221 0.35646 0.80852 0.0
Mn720 Mn 0.60769 0.22004 0.13853 0.0
Mn721 Mn 0.64949 0.19757 0.11317 0.0
C722 C 0.61187 0.21975 0.09475 0.0
C723 C 0.57418 0.21678 0.15323 0.0
C724 C 0.65011 0.23958 0.13877 0.0
O725 O 0.61914 0.20293 0.16804 0.0
O726 O 0.64442 0.18635 0.14747 0.0
C727 C 0.63377 0.15498 0.10798 0.0
N728 N 0.64226 0.17211 0.09734 0.0
C729 C 0.64297 0.15616 0.05616 0.0
C730 C 0.63438 0.13827 0.06667 0.0
C731 C 0.62977 0.13768 0.09271 0.0
C732 C 0.64692 0.1728 0.07239 0.0
H733 H 0.63001 0.15457 0.12794 0.0
C734 C 0.63358 0.18966 0.16727 0.0
O735 O 0.58567 0.23207 0.1604 0.0
O736 O 0.58236 0.20321 0.13829 0.0
N737 N 0.65626 0.20694 0.07987 0.0
C738 C 0.6632 0.22584 0.07243 0.0
C739 C 0.66789 0.22925 0.04677 0.0
C740 C 0.66543 0.21322 0.0291 0.0
C741 C 0.65857 0.19383 0.03733 0.0
C742 C 0.65452 0.19121 0.06318 0.0
H743 H 0.66492 0.23826 0.08592 0.0
O744 O 0.59956 0.2328 0.10543 0.0
O745 O 0.62113 0.20698 0.10999 0.0
O746 O 0.63091 0.24132 0.14273 0.0
O747 O 0.65837 0.2237 0.1287 0.0
C748 C 0.65451 0.17735 0.02071 0.0
C749 C 0.64697 0.15845 0.03006 0.0
H750 H 0.631 0.125 0.05487 0.0
H751 H 0.623 0.12399 0.10094 0.0
H752 H 0.67313 0.24427 0.04057 0.0
H753 H 0.66852 0.21608 0.00921 0.0
H754 H 0.65609 0.17948 0.00059 0.0
H755 H 0.64364 0.14605 0.01691 0.0
Mn756 Mn 0.77396 0.61959 0.15297 0.0
Mn757 Mn 0.72576 0.60665 0.13651 0.0
C758 C 0.74957 0.64507 0.14912 0.0
C759 C 0.79804 0.62376 0.18521 0.0
C760 C 0.76063 0.60999 0.09856 0.0
O761 O 0.77356 0.58846 0.15766 0.0
O762 O 0.74049 0.58185 0.14938 0.0
C763 C 0.71024 0.59701 0.18792 0.0
N764 N 0.70873 0.60793 0.16591 0.0
C765 C 0.67882 0.62575 0.18094 0.0
C766 C 0.67996 0.61459 0.2037 0.0
C767 C 0.69578 0.6002 0.20723 0.0
C768 C 0.69366 0.62191 0.16239 0.0
H769 H 0.72242 0.58599 0.19072 0.0
C770 C 0.75845 0.57611 0.15602 0.0
O771 O 0.80375 0.62092 0.16182 0.0
O772 O 0.77858 0.62366 0.18969 0.0
N773 N 0.70939 0.6288 0.12369 0.0
C774 C 0.71064 0.63852 0.1008 0.0
C775 C 0.69609 0.65359 0.09442 0.0
C776 C 0.68023 0.65828 0.11145 0.0
C777 C 0.67897 0.6477 0.13462 0.0
C778 C 0.69386 0.63277 0.13989 0.0
H779 H 0.72274 0.63493 0.08758 0.0
O780 O 0.76884 0.64964 0.14883 0.0
O781 O 0.74503 0.6257 0.15266 0.0
O782 O 0.77449 0.61588 0.11413 0.0
O783 O 0.74233 0.60565 0.10527 0.0
C784 C 0.66369 0.65159 0.15285 0.0
C785 C 0.66366 0.64069 0.17603 0.0
H786 H 0.66886 0.61703 0.21866 0.0
H787 H 0.69682 0.5916 0.22479 0.0
H788 H 0.69712 0.66162 0.07646 0.0
H789 H 0.66915 0.67005 0.10657 0.0
H790 H 0.65199 0.66307 0.14933 0.0
H791 H 0.65196 0.64397 0.19001 0.0
Mn792 Mn 0.39249 0.78315 0.13091 0.0
Mn793 Mn 0.3522 0.80881 0.10678 0.0
C794 C 0.38651 0.78219 0.08749 0.0
C795 C 0.42665 0.78473 0.14373 0.0
C796 C 0.34863 0.76772 0.13457 0.0
O797 O 0.38343 0.80185 0.16006 0.0
O798 O 0.36001 0.82126 0.13979 0.0
C799 C 0.37244 0.84885 0.09684 0.0
N800 N 0.36163 0.8323 0.08827 0.0
C801 C 0.36205 0.84531 0.04552 0.0
C802 C 0.37302 0.86261 0.05391 0.0
C803 C 0.37824 0.86437 0.07969 0.0
C804 C 0.35652 0.83044 0.06353 0.0
H805 H 0.37672 0.85012 0.11659 0.0
C806 C 0.37093 0.81696 0.15926 0.0
O807 O 0.41449 0.77055 0.15254 0.0
O808 O 0.41879 0.79798 0.12815 0.0
N809 N 0.34288 0.79855 0.07482 0.0
C810 C 0.33246 0.7808 0.06977 0.0
C811 C 0.32609 0.77666 0.04485 0.0
C812 C 0.33047 0.79081 0.02544 0.0
C813 C 0.3408 0.80918 0.03123 0.0
C814 C 0.34635 0.81269 0.05649 0.0
H815 H 0.32917 0.76978 0.08456 0.0
O816 O 0.39836 0.76865 0.09804 0.0
O817 O 0.37906 0.79617 0.10258 0.0
O818 O 0.36776 0.76426 0.1374 0.0
O819 O 0.34152 0.78435 0.12483 0.0
C820 C 0.34636 0.82384 0.01283 0.0
C821 C 0.35687 0.84195 0.0199 0.0
H822 H 0.3777 0.87451 0.04069 0.0
H823 H 0.38684 0.87759 0.08629 0.0
H824 H 0.31807 0.76247 0.04056 0.0
H825 H 0.32603 0.78727 0.00614 0.0
H826 H 0.34319 0.82095 0.99311 0.0
H827 H 0.36122 0.85298 0.00542 0.0
Mn828 Mn 0.22607 0.38251 0.15649 0.0
Mn829 Mn 0.27479 0.39549 0.14219 0.0
C830 C 0.25074 0.3571 0.15467 0.0
C831 C 0.20037 0.37885 0.18662 0.0
C832 C 0.24128 0.39119 0.10263 0.0
O833 O 0.22611 0.41375 0.16029 0.0
O834 O 0.25945 0.42028 0.15377 0.0
C835 C 0.28843 0.40598 0.19418 0.0
N836 N 0.29084 0.39482 0.17248 0.0
C837 C 0.32059 0.37779 0.18926 0.0
C838 C 0.31852 0.3892 0.21174 0.0
C839 C 0.30233 0.40331 0.21423 0.0
C840 C 0.30625 0.38108 0.16996 0.0
H841 H 0.27598 0.4168 0.19618 0.0
C842 C 0.24128 0.42609 0.1593 0.0
O843 O 0.19597 0.3811 0.16274 0.0
O844 O 0.2195 0.37918 0.19299 0.0
N845 N 0.29187 0.37341 0.13066 0.0
C846 C 0.29166 0.36354 0.10781 0.0
C847 C 0.30677 0.34881 0.10235 0.0
C848 C 0.32216 0.34464 0.12021 0.0
C849 C 0.3224 0.3554 0.14331 0.0
C850 C 0.30698 0.36998 0.14765 0.0
H851 H 0.27995 0.36677 0.09392 0.0
O852 O 0.23151 0.35244 0.15357 0.0
O853 O 0.2551 0.37656 0.15797 0.0
O854 O 0.22707 0.38544 0.11771 0.0
O855 O 0.25932 0.39588 0.11002 0.0
C856 C 0.33718 0.35205 0.16232 0.0
C857 C 0.33622 0.36317 0.18533 0.0
H858 H 0.3292 0.38718 0.22725 0.0
H859 H 0.30057 0.41211 0.23156 0.0
H860 H 0.30655 0.34065 0.08442 0.0
H861 H 0.33369 0.33313 0.11602 0.0
H862 H 0.34925 0.34083 0.15954 0.0
H863 H 0.34755 0.36031 0.1999 0.0
Mn864 Mn 0.38675 0.21484 0.13596 0.0
Mn865 Mn 0.3437 0.19169 0.11499 0.0
C866 C 0.37923 0.21517 0.09291 0.0
C867 C 0.4212 0.21305 0.14748 0.0
C868 C 0.34405 0.23453 0.1379 0.0
O869 O 0.37828 0.19763 0.16652 0.0
O870 O 0.35004 0.18327 0.15025 0.0
C871 C 0.35998 0.14906 0.11428 0.0
N872 N 0.35034 0.16494 0.1023 0.0
C873 C 0.3425 0.1436 0.06628 0.0
C874 C 0.35232 0.12697 0.07819 0.0
C875 C 0.36127 0.12978 0.1022 0.0
C876 C 0.34224 0.16259 0.07893 0.0
H877 H 0.36647 0.15108 0.13297 0.0
C878 C 0.36274 0.18591 0.16836 0.0
O879 O 0.40941 0.22761 0.15603 0.0
O880 O 0.41283 0.19936 0.13283 0.0
N881 N 0.33469 0.19766 0.08132 0.0
C882 C 0.32632 0.21543 0.0722 0.0
C883 C 0.31661 0.21529 0.04843 0.0
C884 C 0.31505 0.19676 0.03471 0.0
C885 C 0.3238 0.17866 0.04447 0.0
C886 C 0.33358 0.17983 0.06802 0.0
H887 H 0.32677 0.2295 0.08319 0.0
O888 O 0.39195 0.22824 0.10278 0.0
O889 O 0.37171 0.20137 0.10839 0.0
O890 O 0.36317 0.23524 0.14286 0.0
O891 O 0.33543 0.21906 0.12733 0.0
C892 C 0.32302 0.15945 0.03191 0.0
C893 C 0.33272 0.14204 0.04255 0.0
H894 H 0.35304 0.11198 0.06911 0.0
H895 H 0.36886 0.11702 0.11154 0.0
H896 H 0.30991 0.22931 0.04099 0.0
H897 H 0.30708 0.19659 0.01669 0.0
H898 H 0.31524 0.15795 0.01384 0.0
H899 H 0.33238 0.12748 0.03244 0.0
Mn900 Mn 0.77829 0.38938 0.13314 0.0
Mn901 Mn 0.80235 0.34911 0.10535 0.0
C902 C 0.77691 0.38558 0.0897 0.0
C903 C 0.77887 0.42309 0.14875 0.0
C904 C 0.76116 0.34527 0.13144 0.0
O905 O 0.79708 0.37904 0.16103 0.0
O906 O 0.81298 0.35317 0.14047 0.0
C907 C 0.84349 0.36792 0.10198 0.0
N908 N 0.82719 0.3588 0.09045 0.0
C909 C 0.84351 0.36076 0.04959 0.0
C910 C 0.86053 0.37004 0.06104 0.0
C911 C 0.8605 0.37368 0.08734 0.0
C912 C 0.82701 0.35535 0.06515 0.0
H913 H 0.84349 0.3708 0.12217 0.0
C914 C 0.81008 0.36439 0.16018 0.0
O915 O 0.76541 0.4098 0.15657 0.0
O916 O 0.79237 0.41654 0.13261 0.0
N917 N 0.79398 0.34302 0.07135 0.0
C918 C 0.77625 0.33421 0.0632 0.0
C919 C 0.77371 0.32979 0.03728 0.0
C920 C 0.78954 0.33418 0.0201 0.0
C921 C 0.80785 0.34277 0.02903 0.0
C922 C 0.80953 0.34674 0.05508 0.0
H923 H 0.76405 0.33073 0.07632 0.0
O924 O 0.76357 0.39684 0.10149 0.0
O925 O 0.79117 0.37722 0.1036 0.0
O926 O 0.75946 0.3642 0.13798 0.0
O927 O 0.77667 0.33812 0.11957 0.0
C928 C 0.82438 0.34782 0.01306 0.0
C929 C 0.84216 0.35688 0.02332 0.0
H930 H 0.87367 0.37454 0.04982 0.0
H931 H 0.87354 0.38092 0.0963 0.0
H932 H 0.75957 0.32308 0.03056 0.0
H933 H 0.78746 0.33093 9e-05 0.0
H934 H 0.8235 0.34498 0.99283 0.0
H935 H 0.85469 0.36089 0.01081 0.0
Mn936 Mn 0.61374 0.78746 0.14142 0.0
Mn937 Mn 0.65586 0.8132 0.12226 0.0
C938 C 0.621 0.79029 0.09849 0.0
C939 C 0.57947 0.78774 0.15358 0.0
C940 C 0.65692 0.76893 0.14077 0.0
O941 O 0.62225 0.80263 0.17367 0.0
O942 O 0.6495 0.81931 0.15813 0.0
C943 C 0.63764 0.85493 0.12553 0.0
N944 N 0.6476 0.84017 0.11189 0.0
C945 C 0.6521 0.86329 0.07667 0.0
C946 C 0.64191 0.87877 0.09031 0.0
C947 C 0.63447 0.8745 0.11477 0.0
C948 C 0.65412 0.84385 0.08802 0.0
H949 H 0.63225 0.85182 0.14453 0.0
C950 C 0.63723 0.81502 0.1762 0.0
O951 O 0.5915 0.77268 0.16004 0.0
O952 O 0.58745 0.80271 0.1406 0.0
N953 N 0.66468 0.80951 0.08798 0.0
C954 C 0.67522 0.79328 0.07799 0.0
C955 C 0.68434 0.79523 0.054 0.0
C956 C 0.68329 0.81411 0.04101 0.0
C957 C 0.67273 0.83076 0.05186 0.0
C958 C 0.66355 0.82776 0.07555 0.0
H959 H 0.67685 0.77901 0.08839 0.0
O960 O 0.60842 0.77642 0.10679 0.0
O961 O 0.62825 0.80302 0.11537 0.0
O962 O 0.63782 0.76735 0.14554 0.0
O963 O 0.66522 0.78538 0.13213 0.0
C964 C 0.6715 0.85041 0.04043 0.0
C965 C 0.6608 0.86652 0.05256 0.0
H966 H 0.63984 0.89402 0.08228 0.0
H967 H 0.62661 0.88636 0.12545 0.0
H968 H 0.6926 0.78238 0.04583 0.0
H969 H 0.69084 0.81574 0.02282 0.0
H970 H 0.6787 0.8533 0.02226 0.0
H971 H 0.65976 0.88146 0.04343 0.0
Mn972 Mn 0.22555 0.61319 0.13553 0.0
Mn973 Mn 0.20242 0.65394 0.10775 0.0
C974 C 0.22816 0.61756 0.0923 0.0
C975 C 0.22388 0.57938 0.1506 0.0
C976 C 0.24232 0.6572 0.13689 0.0
O977 O 0.20609 0.62356 0.16273 0.0
O978 O 0.18967 0.64875 0.14146 0.0
C979 C 0.16172 0.63526 0.09935 0.0
N980 N 0.1787 0.64468 0.08994 0.0
C981 C 0.16518 0.64385 0.04747 0.0
C982 C 0.14747 0.63427 0.05673 0.0
C983 C 0.14576 0.62991 0.08278 0.0
C984 C 0.18055 0.64885 0.06491 0.0
H985 H 0.16039 0.63182 0.11935 0.0
C986 C 0.19246 0.6376 0.16125 0.0
O987 O 0.23739 0.59232 0.15919 0.0
O988 O 0.21103 0.58631 0.13391 0.0
N989 N 0.21305 0.66091 0.07501 0.0
C990 C 0.23139 0.66962 0.06905 0.0
C991 C 0.23571 0.6746 0.04366 0.0
C992 C 0.22105 0.67079 0.02473 0.0
C993 C 0.20215 0.66218 0.03141 0.0
C994 C 0.19866 0.65765 0.05704 0.0
H995 H 0.2427 0.67262 0.08351 0.0
O996 O 0.24102 0.60588 0.10432 0.0
O997 O 0.2137 0.6259 0.10587 0.0
O998 O 0.24454 0.63798 0.14157 0.0
O999 O 0.22693 0.66475 0.12517 0.0
C1000 C 0.18674 0.65761 0.01358 0.0
C1001 C 0.1683 0.64838 0.0216 0.0
H1002 H 0.13515 0.63006 0.044 0.0
H1003 H 0.13218 0.62243 0.09005 0.0
H1004 H 0.25032 0.68129 0.03867 0.0
H1005 H 0.22451 0.67446 0.00514 0.0
H1006 H 0.18901 0.66091 0.99363 0.0
H1007 H 0.15668 0.64471 0.00767 0.0
Mn1008 Mn 0.39353 0.78207 0.85307 0.0
Mn1009 Mn 0.3499 0.80583 0.87123 0.0
C1010 C 0.38596 0.78468 0.89599 0.0
C1011 C 0.42768 0.78415 0.84074 0.0
C1012 C 0.3515 0.76159 0.85263 0.0
O1013 O 0.38418 0.79618 0.82055 0.0
O1014 O 0.35687 0.81314 0.83573 0.0
C1015 C 0.36595 0.84854 0.87004 0.0
N1016 N 0.35606 0.83311 0.88255 0.0
C1017 C 0.34786 0.85562 0.91734 0.0
C1018 C 0.35777 0.87185 0.90475 0.0
C1019 C 0.36705 0.86823 0.8811 0.0
C1020 C 0.34772 0.83622 0.90565 0.0
H1021 H 0.37287 0.84584 0.85173 0.0
C1022 C 0.36935 0.80871 0.8179 0.0
O1023 O 0.41647 0.76838 0.83462 0.0
O1024 O 0.41896 0.79881 0.85355 0.0
N1025 N 0.34046 0.80104 0.90504 0.0
C1026 C 0.33222 0.78354 0.91508 0.0
C1027 C 0.32247 0.78443 0.93881 0.0
C1028 C 0.32075 0.8034 0.95156 0.0
C1029 C 0.32932 0.82121 0.94085 0.0
C1030 C 0.33912 0.81931 0.91738 0.0
H1031 H 0.33284 0.76909 0.9049 0.0
O1032 O 0.39946 0.7717 0.88769 0.0
O1033 O 0.37797 0.79696 0.879 0.0
O1034 O 0.37078 0.76051 0.84929 0.0
O1035 O 0.34213 0.77773 0.86031 0.0
C1036 C 0.32832 0.84085 0.95237 0.0
C1037 C 0.33794 0.85794 0.94088 0.0
H1038 H 0.35839 0.88713 0.91308 0.0
H1039 H 0.37481 0.88065 0.87131 0.0
H1040 H 0.31588 0.77062 0.94697 0.0
H1041 H 0.31271 0.80415 0.96949 0.0
H1042 H 0.32039 0.84294 0.97023 0.0
H1043 H 0.33746 0.87283 0.95022 0.0
Mn1044 Mn 0.2201 0.38962 0.86969 0.0
Mn1045 Mn 0.19697 0.34961 0.8991 0.0
C1046 C 0.22308 0.38603 0.913 0.0
C1047 C 0.21871 0.4233 0.85401 0.0
C1048 C 0.23711 0.34543 0.8707 0.0
O1049 O 0.20038 0.37914 0.84296 0.0
O1050 O 0.18522 0.35336 0.8645 0.0
C1051 C 0.15605 0.36861 0.90437 0.0
N1052 N 0.17269 0.35953 0.91516 0.0
C1053 C 0.15779 0.36193 0.95681 0.0
C1054 C 0.14042 0.37118 0.94613 0.0
C1055 C 0.13958 0.37458 0.91981 0.0
C1056 C 0.17373 0.35631 0.94047 0.0
H1057 H 0.15538 0.3713 0.88416 0.0
C1058 C 0.18752 0.36442 0.84454 0.0
O1059 O 0.23197 0.41009 0.84544 0.0
O1060 O 0.20593 0.4167 0.87096 0.0
N1061 N 0.20646 0.34377 0.93271 0.0
C1062 C 0.22441 0.33491 0.94003 0.0
C1063 C 0.2278 0.3307 0.96584 0.0
C1064 C 0.21259 0.33532 0.98379 0.0
C1065 C 0.19404 0.34394 0.97571 0.0
C1066 C 0.1915 0.34772 0.94973 0.0
H1067 H 0.23613 0.33126 0.92631 0.0
O1068 O 0.23599 0.39723 0.90041 0.0
O1069 O 0.20832 0.37764 0.89996 0.0
O1070 O 0.23867 0.36433 0.86389 0.0
O1071 O 0.22208 0.33846 0.88365 0.0
C1072 C 0.17808 0.3492 0.99247 0.0
C1073 C 0.16001 0.35826 0.98303 0.0
H1074 H 0.1277 0.37584 0.95798 0.0
H1075 H 0.12626 0.38179 0.91144 0.0
H1076 H 0.24212 0.32395 0.9719 0.0
H1077 H 0.21534 0.33222 0.0037 0.0
H1078 H 0.17963 0.3465 0.01267 0.0
H1079 H 0.14793 0.36243 0.99613 0.0
Mn1080 Mn 0.61022 0.21453 0.86045 0.0
Mn1081 Mn 0.65355 0.1912 0.88013 0.0
C1082 C 0.6181 0.21328 0.90338 0.0
C1083 C 0.57575 0.21302 0.84911 0.0
C1084 C 0.65259 0.23481 0.86019 0.0
O1085 O 0.61872 0.19847 0.8289 0.0
O1086 O 0.64762 0.18469 0.84415 0.0
C1087 C 0.63718 0.14868 0.87696 0.0
N1088 N 0.64641 0.16392 0.8906 0.0
C1089 C 0.65141 0.14124 0.92616 0.0
C1090 C 0.64199 0.12527 0.91252 0.0
C1091 C 0.63467 0.12907 0.88789 0.0
C1092 C 0.65281 0.16065 0.91462 0.0
H1093 H 0.63186 0.15142 0.85786 0.0
C1094 C 0.63473 0.1875 0.82627 0.0
O1095 O 0.58743 0.22792 0.84128 0.0
O1096 O 0.58423 0.19883 0.86292 0.0
N1097 N 0.66207 0.19537 0.91446 0.0
C1098 C 0.67193 0.21204 0.9244 0.0
C1099 C 0.68092 0.2106 0.94851 0.0
C1100 C 0.68043 0.1918 0.96171 0.0
C1101 C 0.67053 0.17471 0.95094 0.0
C1102 C 0.66149 0.17719 0.92706 0.0
H1103 H 0.67318 0.22626 0.91386 0.0
O1104 O 0.60515 0.22664 0.89464 0.0
O1105 O 0.62552 0.20025 0.88696 0.0
O1106 O 0.63361 0.23519 0.85456 0.0
O1107 O 0.66167 0.21941 0.8703 0.0
C1108 C 0.66988 0.15512 0.96259 0.0
C1109 C 0.65994 0.13852 0.95046 0.0
H1110 H 0.64042 0.11001 0.92069 0.0
H1111 H 0.6274 0.11683 0.87721 0.0
H1112 H 0.68868 0.2238 0.95662 0.0
H1113 H 0.68795 0.19059 0.97996 0.0
H1114 H 0.67702 0.15261 0.98088 0.0
H1115 H 0.65937 0.12361 0.95974 0.0
Mn1116 Mn 0.7786 0.60933 0.86539 0.0
Mn1117 Mn 0.80265 0.64979 0.89256 0.0
C1118 C 0.77714 0.61339 0.90881 0.0
C1119 C 0.77982 0.57564 0.8498 0.0
C1120 C 0.76212 0.65331 0.8646 0.0
O1121 O 0.79719 0.62012 0.83743 0.0
O1122 O 0.81511 0.64422 0.85877 0.0
C1123 C 0.84328 0.63083 0.90059 0.0
N1124 N 0.82645 0.64045 0.91014 0.0
C1125 C 0.8404 0.63994 0.95239 0.0
C1126 C 0.85796 0.63015 0.94299 0.0
C1127 C 0.85937 0.62553 0.91699 0.0
C1128 C 0.82489 0.64489 0.93514 0.0
H1129 H 0.84438 0.6272 0.88062 0.0
C1130 C 0.81138 0.63361 0.83878 0.0
O1131 O 0.76611 0.58868 0.84198 0.0
O1132 O 0.79318 0.58242 0.86597 0.0
N1133 N 0.79236 0.65707 0.92537 0.0
C1134 C 0.77414 0.66596 0.93151 0.0
C1135 C 0.77011 0.67119 0.9569 0.0
C1136 C 0.78493 0.66746 0.97564 0.0
C1137 C 0.80372 0.65867 0.96879 0.0
C1138 C 0.80691 0.65388 0.94316 0.0
H1139 H 0.7627 0.66891 0.91719 0.0
O1140 O 0.76405 0.60171 0.89718 0.0
O1141 O 0.7912 0.62185 0.89475 0.0
O1142 O 0.75943 0.63408 0.8605 0.0
O1143 O 0.77804 0.66073 0.87536 0.0
C1144 C 0.81928 0.65416 0.98643 0.0
C1145 C 0.83757 0.64474 0.97825 0.0
H1146 H 0.87037 0.62598 0.95559 0.0
H1147 H 0.87283 0.61789 0.90961 0.0
H1148 H 0.75559 0.67802 0.96202 0.0
H1149 H 0.7817 0.67134 0.99523 0.0
H1150 H 0.81723 0.65766 0.00637 0.0
H1151 H 0.84931 0.64111 0.99205 0.0
H1152 H 0.2637 0.19515 0.3456 0.0
H1153 H 0.21756 0.1503 0.3651 0.0
H1154 H 0.23748 0.22145 0.34071 0.0
H1155 H 0.1912 0.17696 0.36166 0.0
H1156 H 0.14632 0.22919 0.34371 0.0
H1157 H 0.17127 0.20138 0.33776 0.0
H1158 H 0.21831 0.24032 0.3698 0.0
H1159 H 0.19405 0.26791 0.37466 0.0
C1160 C 0.24787 0.19093 0.34874 0.0
C1161 C 0.24266 0.17078 0.356 0.0
C1162 C 0.23282 0.20603 0.34612 0.0
C1163 C 0.2122 0.20152 0.35141 0.0
C1164 C 0.20686 0.18101 0.35732 0.0
C1165 C 0.22196 0.16574 0.3594 0.0
C1166 C 0.16207 0.23184 0.34912 0.0
C1167 C 0.16808 0.25087 0.35965 0.0
C1168 C 0.17635 0.21586 0.34587 0.0
C1169 C 0.19691 0.21857 0.35312 0.0
C1170 C 0.20282 0.2377 0.36334 0.0
C1171 C 0.18871 0.25359 0.36638 0.0
H1172 H 0.77902 0.15342 0.31195 0.0
H1173 H 0.75506 0.17344 0.3841 0.0
H1174 H 0.80345 0.18234 0.31234 0.0
H1175 H 0.77918 0.20216 0.38461 0.0
H1176 H 0.80405 0.26395 0.36189 0.0
H1177 H 0.78223 0.23399 0.35781 0.0
H1178 H 0.83448 0.19637 0.3389 0.0
H1179 H 0.85678 0.22669 0.34296 0.0
C1180 C 0.77933 0.1638 0.32808 0.0
C1181 C 0.76576 0.16097 0.34842 0.0
C1182 C 0.79317 0.18032 0.32826 0.0
C1183 C 0.79319 0.19446 0.34851 0.0
C1184 C 0.77943 0.19158 0.36868 0.0
C1185 C 0.76572 0.17514 0.36849 0.0
C1186 C 0.81105 0.2494 0.35671 0.0
C1187 C 0.8323 0.24776 0.35304 0.0
C1188 C 0.79847 0.23218 0.35446 0.0
C1189 C 0.8067 0.21281 0.34843 0.0
C1190 C 0.82778 0.21117 0.34359 0.0
C1191 C 0.84051 0.22851 0.34595 0.0
H1192 H 0.80702 0.73274 0.3633 0.0
H1193 H 0.85674 0.77397 0.34459 0.0
H1194 H 0.78313 0.76071 0.35996 0.0
H1195 H 0.83222 0.80233 0.33994 0.0
H1196 H 0.78483 0.85045 0.37174 0.0
H1197 H 0.81118 0.82417 0.36523 0.0
H1198 H 0.76553 0.78309 0.33397 0.0
H1199 H 0.73926 0.80881 0.34222 0.0
C1200 C 0.81289 0.74774 0.35791 0.0
C1201 C 0.83396 0.75102 0.35439 0.0
C1202 C 0.79901 0.7639 0.35571 0.0
C1203 C 0.80559 0.78392 0.34951 0.0
C1204 C 0.82659 0.78717 0.34502 0.0
C1205 C 0.84065 0.77088 0.34747 0.0
C1206 C 0.78061 0.83586 0.36314 0.0
C1207 C 0.76005 0.83146 0.35781 0.0
C1208 C 0.7957 0.82082 0.35927 0.0
C1209 C 0.7905 0.80124 0.34954 0.0
C1210 C 0.77008 0.79765 0.34232 0.0
C1211 C 0.755 0.81243 0.34682 0.0
H1212 H 0.19678 0.73717 0.36736 0.0
H1213 H 0.14443 0.77337 0.34419 0.0
H1214 H 0.21863 0.76698 0.36202 0.0
H1215 H 0.16663 0.80355 0.33915 0.0
H1216 H 0.21989 0.84628 0.30992 0.0
H1217 H 0.19603 0.81707 0.31291 0.0
H1218 H 0.22343 0.79954 0.38439 0.0
H1219 H 0.2472 0.82842 0.38106 0.0
C1220 C 0.18986 0.75148 0.3611 0.0
C1221 C 0.16874 0.75283 0.35637 0.0
C1222 C 0.20245 0.76864 0.35818 0.0
C1223 C 0.19432 0.78769 0.35049 0.0
C1224 C 0.17332 0.78904 0.34506 0.0
C1225 C 0.16062 0.77177 0.34802 0.0
C1226 C 0.22045 0.83629 0.3264 0.0
C1227 C 0.2348 0.83981 0.3457 0.0
C1228 C 0.2069 0.8196 0.3281 0.0
C1229 C 0.20785 0.80602 0.3489 0.0
C1230 C 0.22243 0.80959 0.36802 0.0
C1231 C 0.23592 0.82616 0.36625 0.0
H1232 H 0.19465 0.73276 0.65535 0.0
H1233 H 0.1488 0.7782 0.63665 0.0
H1234 H 0.22068 0.75953 0.65595 0.0
H1235 H 0.17509 0.8051 0.63642 0.0
H1236 H 0.22839 0.85055 0.65009 0.0
H1237 H 0.20116 0.82562 0.6589 0.0
H1238 H 0.23641 0.77799 0.62179 0.0
H1239 H 0.2635 0.80242 0.61352 0.0
C1240 C 0.1901 0.74856 0.65168 0.0
C1241 C 0.16974 0.75335 0.64568 0.0
C1242 C 0.20504 0.7639 0.65185 0.0
C1243 C 0.20008 0.78439 0.64562 0.0
C1244 C 0.17944 0.78948 0.64133 0.0
C1245 C 0.16437 0.77408 0.64146 0.0
C1246 C 0.23036 0.83471 0.64399 0.0
C1247 C 0.24824 0.82854 0.63117 0.0
C1248 C 0.21471 0.82045 0.64896 0.0
C1249 C 0.21667 0.79974 0.6413 0.0
C1250 C 0.23454 0.79367 0.62853 0.0
C1251 C 0.25009 0.80781 0.62359 0.0
H1252 H 0.24668 0.17199 0.61193 0.0
H1253 H 0.22278 0.15152 0.68389 0.0
H1254 H 0.22291 0.20102 0.61202 0.0
H1255 H 0.19887 0.18081 0.68427 0.0
H1256 H 0.14555 0.22499 0.65786 0.0
H1257 H 0.16818 0.19491 0.66027 0.0
H1258 H 0.21908 0.23278 0.6369 0.0
H1259 H 0.19681 0.26254 0.63422 0.0
C1260 C 0.23615 0.1737 0.62767 0.0
C1261 C 0.23595 0.15927 0.64745 0.0
C1262 C 0.22266 0.19035 0.62785 0.0
C1263 C 0.209 0.19318 0.64816 0.0
C1264 C 0.20902 0.17885 0.66822 0.0
C1265 C 0.22258 0.16211 0.66798 0.0
C1266 C 0.1616 0.22691 0.65341 0.0
C1267 C 0.16927 0.24621 0.64565 0.0
C1268 C 0.17454 0.20969 0.65487 0.0
C1269 C 0.19533 0.21146 0.64847 0.0
C1270 C 0.20305 0.23084 0.64147 0.0
C1271 C 0.19023 0.24796 0.64007 0.0
H1272 H 0.73839 0.19786 0.62154 0.0
H1273 H 0.77434 0.15015 0.65765 0.0
H1274 H 0.76544 0.22249 0.62892 0.0
H1275 H 0.80153 0.17529 0.66563 0.0
H1276 H 0.85349 0.22183 0.64028 0.0
H1277 H 0.82704 0.1952 0.64204 0.0
H1278 H 0.78226 0.24163 0.6614 0.0
H1279 H 0.80845 0.26817 0.65877 0.0
C1280 C 0.75197 0.19261 0.63138 0.0
C1281 C 0.75409 0.17191 0.63897 0.0
C1282 C 0.7675 0.20688 0.63582 0.0
C1283 C 0.78565 0.20098 0.6481 0.0
C1284 C 0.78779 0.18033 0.65601 0.0
C1285 C 0.77215 0.16595 0.65154 0.0
C1286 C 0.83808 0.22624 0.64547 0.0
C1287 C 0.83299 0.24712 0.64903 0.0
C1288 C 0.8229 0.21097 0.6465 0.0
C1289 C 0.80241 0.21632 0.65134 0.0
C1290 C 0.79775 0.23703 0.65691 0.0
C1291 C 0.8128 0.25224 0.65557 0.0
H1292 H 0.80529 0.73476 0.6373 0.0
H1293 H 0.85744 0.77162 0.65951 0.0
H1294 H 0.7834 0.76487 0.64109 0.0
H1295 H 0.83532 0.80189 0.66306 0.0
H1296 H 0.78275 0.84658 0.68828 0.0
H1297 H 0.80561 0.81646 0.68807 0.0
H1298 H 0.77961 0.79702 0.61655 0.0
H1299 H 0.75694 0.82694 0.61698 0.0
C1300 C 0.81212 0.74923 0.64316 0.0
C1301 C 0.83322 0.75071 0.64794 0.0
C1302 C 0.79954 0.76654 0.64518 0.0
C1303 C 0.80768 0.7858 0.65209 0.0
C1304 C 0.82861 0.78722 0.65778 0.0
C1305 C 0.84127 0.76987 0.65566 0.0
C1306 C 0.78231 0.83599 0.67237 0.0
C1307 C 0.76874 0.83933 0.65217 0.0
C1308 C 0.79525 0.81875 0.67229 0.0
C1309 C 0.7944 0.80438 0.65228 0.0
C1310 C 0.78051 0.80769 0.63234 0.0
C1311 C 0.76767 0.82487 0.63244 0.0
H1312 H 0.6974 0.76468 0.87629 0.0
H1313 H 0.64955 0.72687 0.84391 0.0
H1314 H 0.72136 0.73688 0.87153 0.0
H1315 H 0.67428 0.6987 0.83828 0.0
H1316 H 0.72071 0.64751 0.86724 0.0
H1317 H 0.6942 0.67401 0.86308 0.0
H1318 H 0.74033 0.71838 0.84134 0.0
H1319 H 0.76667 0.69228 0.84683 0.0
C1320 C 0.69196 0.7505 0.86775 0.0
C1321 C 0.6714 0.74814 0.86048 0.0
C1322 C 0.7059 0.73449 0.86478 0.0
C1323 C 0.69992 0.71555 0.85417 0.0
C1324 C 0.6794 0.71309 0.84659 0.0
C1325 C 0.66526 0.72925 0.84969 0.0
C1326 C 0.72504 0.66288 0.86117 0.0
C1327 C 0.74574 0.66798 0.85777 0.0
C1328 C 0.70987 0.67804 0.85868 0.0
C1329 C 0.71515 0.69848 0.8524 0.0
C1330 C 0.73574 0.70299 0.84699 0.0
C1331 C 0.75086 0.68802 0.84999 0.0
H1332 H 0.27861 0.65294 0.81156 0.0
H1333 H 0.2585 0.67342 0.8853 0.0
H1334 H 0.30431 0.68061 0.8107 0.0
H1335 H 0.28409 0.70095 0.88466 0.0
H1336 H 0.34635 0.73192 0.88774 0.0
H1337 H 0.32263 0.70273 0.88602 0.0
H1338 H 0.30516 0.7202 0.8099 0.0
H1339 H 0.3288 0.74966 0.81194 0.0
C1340 C 0.27992 0.66326 0.82765 0.0
C1341 C 0.26728 0.66073 0.84893 0.0
C1342 C 0.2944 0.67916 0.82708 0.0
C1343 C 0.29639 0.6927 0.8478 0.0
C1344 C 0.2832 0.69046 0.86868 0.0
C1345 C 0.26857 0.6748 0.86905 0.0
C1346 C 0.33765 0.72923 0.87054 0.0
C1347 C 0.33935 0.74274 0.8499 0.0
C1348 C 0.32403 0.71267 0.86958 0.0
C1349 C 0.31203 0.70925 0.84784 0.0
C1350 C 0.31435 0.7224 0.8268 0.0
C1351 C 0.32779 0.73918 0.82793 0.0
H1352 H 0.35269 0.27966 0.86029 0.0
H1353 H 0.30702 0.23505 0.83825 0.0
H1354 H 0.32667 0.30687 0.85988 0.0
H1355 H 0.2813 0.26213 0.83699 0.0
H1356 H 0.23804 0.30412 0.88027 0.0
H1357 H 0.26509 0.27979 0.87156 0.0
H1358 H 0.30105 0.32815 0.83705 0.0
H1359 H 0.27378 0.35301 0.8463 0.0
C1360 C 0.33725 0.27581 0.85456 0.0
C1361 C 0.3318 0.25521 0.84964 0.0
C1362 C 0.32234 0.29138 0.85432 0.0
C1363 C 0.3018 0.28659 0.84896 0.0
C1364 C 0.29685 0.26626 0.84191 0.0
C1365 C 0.31161 0.25075 0.84246 0.0
C1366 C 0.25159 0.30971 0.87066 0.0
C1367 C 0.25362 0.33062 0.86399 0.0
C1368 C 0.26712 0.29562 0.86546 0.0
C1369 C 0.28519 0.30192 0.85331 0.0
C1370 C 0.28732 0.32281 0.84648 0.0
C1371 C 0.27166 0.33702 0.85168 0.0
H1372 H 0.66369 0.26121 0.89704 0.0
H1373 H 0.66842 0.25061 0.81649 0.0
H1374 H 0.6863 0.29103 0.8934 0.0
H1375 H 0.69171 0.28016 0.81267 0.0
H1376 H 0.72058 0.34539 0.81408 0.0
H1377 H 0.69544 0.31732 0.81559 0.0
H1378 H 0.72203 0.29606 0.88606 0.0
H1379 H 0.74653 0.3244 0.88468 0.0
C1380 C 0.66961 0.2654 0.87854 0.0
C1381 C 0.66454 0.25376 0.85705 0.0
C1382 C 0.68265 0.28234 0.87643 0.0
C1383 C 0.69111 0.28779 0.8528 0.0
C1384 C 0.68539 0.27646 0.83111 0.0
C1385 C 0.67215 0.25955 0.83324 0.0
C1386 C 0.72069 0.33483 0.83002 0.0
C1387 C 0.73472 0.33745 0.84989 0.0
C1388 C 0.70655 0.31861 0.83074 0.0
C1389 C 0.70645 0.30466 0.85122 0.0
C1390 C 0.72124 0.30688 0.87043 0.0
C1391 C 0.73533 0.32301 0.86963 0.0
H1392 H 0.68778 0.23644 0.15922 0.0
H1393 H 0.64413 0.2812 0.13205 0.0
H1394 H 0.71375 0.26317 0.16214 0.0
H1395 H 0.67051 0.30812 0.1341 0.0
H1396 H 0.72328 0.35363 0.15225 0.0
H1397 H 0.69507 0.32934 0.15907 0.0
H1398 H 0.73227 0.28006 0.12879 0.0
H1399 H 0.76023 0.30385 0.1225 0.0
C1400 C 0.68369 0.25213 0.15421 0.0
C1401 C 0.66404 0.25674 0.14517 0.0
C1402 C 0.69861 0.26743 0.15571 0.0
C1403 C 0.69438 0.28769 0.14774 0.0
C1404 C 0.67427 0.29267 0.1404 0.0
C1405 C 0.65916 0.2773 0.13922 0.0
C1406 C 0.72547 0.33756 0.14732 0.0
C1407 C 0.74412 0.33074 0.13691 0.0
C1408 C 0.70926 0.32368 0.15109 0.0
C1409 C 0.71145 0.30271 0.14471 0.0
C1410 C 0.73014 0.29599 0.13448 0.0
C1411 C 0.74621 0.30974 0.13068 0.0
H1412 H 0.72013 0.6545 0.18377 0.0
H1413 H 0.74663 0.67419 0.11289 0.0
H1414 H 0.69716 0.68449 0.18319 0.0
H1415 H 0.72372 0.70393 0.11197 0.0
H1416 H 0.69811 0.76625 0.1329 0.0
H1417 H 0.71972 0.73593 0.13585 0.0
H1418 H 0.66779 0.69934 0.15889 0.0
H1419 H 0.64595 0.72988 0.15628 0.0
C1420 C 0.72068 0.66507 0.16785 0.0
C1421 C 0.73452 0.66182 0.14792 0.0
C1422 C 0.70766 0.68222 0.16754 0.0
C1423 C 0.70863 0.69656 0.14752 0.0
C1424 C 0.72272 0.69329 0.12778 0.0
C1425 C 0.7357 0.67623 0.12815 0.0
C1426 C 0.69121 0.75182 0.13874 0.0
C1427 C 0.6702 0.75056 0.14422 0.0
C1428 C 0.70363 0.73438 0.14027 0.0
C1429 C 0.69542 0.71519 0.14731 0.0
C1430 C 0.67456 0.71394 0.15349 0.0
C1431 C 0.66205 0.73144 0.15192 0.0
H1432 H 0.28359 0.65153 0.13314 0.0
H1433 H 0.23789 0.69566 0.15628 0.0
H1434 H 0.31006 0.67795 0.1374 0.0
H1435 H 0.26426 0.7217 0.16216 0.0
H1436 H 0.30728 0.76921 0.12883 0.0
H1437 H 0.28283 0.74184 0.13419 0.0
H1438 H 0.33066 0.70131 0.16107 0.0
H1439 H 0.3557 0.72886 0.15447 0.0
C1440 C 0.27934 0.66673 0.1399 0.0
C1441 C 0.25872 0.67169 0.14407 0.0
C1442 C 0.2945 0.68188 0.14245 0.0
C1443 C 0.28932 0.70218 0.14963 0.0
C1444 C 0.26881 0.7065 0.15576 0.0
C1445 C 0.25367 0.69154 0.15262 0.0
C1446 C 0.31272 0.75458 0.13613 0.0
C1447 C 0.3336 0.75131 0.14105 0.0
C1448 C 0.29853 0.73881 0.13947 0.0
C1449 C 0.30462 0.71925 0.14823 0.0
C1450 C 0.32542 0.71609 0.15401 0.0
C1451 C 0.33977 0.73194 0.15042 0.0
H1452 H 0.2539 0.32888 0.11757 0.0
H1453 H 0.28029 0.34703 0.18915 0.0
H1454 H 0.27712 0.29948 0.11541 0.0
H1455 H 0.30372 0.31734 0.18721 0.0
H1456 H 0.35554 0.27315 0.15494 0.0
H1457 H 0.33352 0.30346 0.16048 0.0
H1458 H 0.281 0.267 0.13931 0.0
H1459 H 0.30264 0.23706 0.13359 0.0
C1460 C 0.26485 0.32658 0.13274 0.0
C1461 C 0.26591 0.34047 0.15306 0.0
C1462 C 0.27804 0.30971 0.13163 0.0
C1463 C 0.29225 0.30612 0.15115 0.0
C1464 C 0.2931 0.3199 0.17176 0.0
C1465 C 0.27983 0.33686 0.17283 0.0
C1466 C 0.33928 0.27159 0.1517 0.0
C1467 C 0.33095 0.25267 0.14356 0.0
C1468 C 0.32668 0.28892 0.15494 0.0
C1469 C 0.3056 0.28764 0.14999 0.0
C1470 C 0.29725 0.26858 0.14278 0.0
C1471 C 0.30972 0.25136 0.1396 0.0
H1472 H 0.95045 0.31321 0.37126 0.0
H1473 H 0.9458 0.26284 0.31789 0.0
H1474 H 0.98723 0.31296 0.367 0.0
H1475 H 0.98299 0.26312 0.31263 0.0
H1476 H 0.05103 0.25374 0.33765 0.0
H1477 H 0.01377 0.25443 0.334 0.0
H1478 H 0.01477 0.32093 0.34108 0.0
H1479 H 0.05169 0.31995 0.34618 0.0
C1480 C 0.95728 0.30229 0.3582 0.0
C1481 C 0.94516 0.28805 0.34492 0.0
C1482 C 0.97849 0.30224 0.35557 0.0
C1483 C 0.98827 0.28813 0.33927 0.0
C1484 C 0.97608 0.27409 0.32555 0.0
C1485 C 0.95474 0.274 0.32842 0.0
C1486 C 0.04323 0.26849 0.33799 0.0
C1487 C 0.05417 0.28676 0.34252 0.0
C1488 C 0.02186 0.26892 0.33584 0.0
C1489 C 0.01108 0.28771 0.33777 0.0
C1490 C 0.02237 0.30609 0.34035 0.0
C1491 C 0.04359 0.30559 0.34303 0.0
H1492 H 0.75869 0.04936 0.3145 0.0
H1493 H 0.70668 0.05416 0.36439 0.0
H1494 H 0.75332 0.01232 0.31091 0.0
H1495 H 0.70218 0.01695 0.36283 0.0
H1496 H 0.69192 0.94979 0.35105 0.0
H1497 H 0.69317 0.9869 0.34372 0.0
H1498 H 0.75864 0.98277 0.33266 0.0
H1499 H 0.75684 0.94566 0.33789 0.0
C1500 C 0.74608 0.04239 0.32471 0.0
C1501 C 0.73311 0.05454 0.33974 0.0
C1502 C 0.74309 0.02108 0.32294 0.0
C1503 C 0.7275 0.01127 0.33692 0.0
C1504 C 0.71416 0.02371 0.35137 0.0
C1505 C 0.71677 0.04512 0.35246 0.0
C1506 C 0.70646 0.95689 0.34653 0.0
C1507 C 0.72428 0.94491 0.34502 0.0
C1508 C 0.70727 0.97824 0.34261 0.0
C1509 C 0.72606 0.9882 0.33788 0.0
C1510 C 0.74377 0.97591 0.33571 0.0
C1511 C 0.74282 0.95452 0.33889 0.0
H1512 H 0.05364 0.7463 0.33774 0.0
H1513 H 0.0541 0.67996 0.34494 0.0
H1514 H 0.01642 0.74583 0.33417 0.0
H1515 H 0.01716 0.67923 0.33985 0.0
H1516 H 0.95302 0.68724 0.37057 0.0
H1517 H 0.98969 0.68702 0.36583 0.0
H1518 H 0.98568 0.73764 0.31253 0.0
H1519 H 0.94852 0.73842 0.31835 0.0
C1520 C 0.04579 0.73158 0.3379 0.0
C1521 C 0.05667 0.71319 0.34201 0.0
C1522 C 0.02444 0.73127 0.33572 0.0
C1523 C 0.01362 0.71251 0.33717 0.0
C1524 C 0.02482 0.69403 0.33946 0.0
C1525 C 0.04604 0.6944 0.34219 0.0
C1526 C 0.95986 0.69823 0.35762 0.0
C1527 C 0.94781 0.71288 0.34487 0.0
C1528 C 0.98101 0.698 0.3547 0.0
C1529 C 0.99082 0.71222 0.33863 0.0
C1530 C 0.97872 0.72659 0.32529 0.0
C1531 C 0.95741 0.72697 0.32846 0.0
H1532 H 0.23726 0.95205 0.31044 0.0
H1533 H 0.29337 0.94702 0.35292 0.0
H1534 H 0.24225 0.98915 0.30659 0.0
H1535 H 0.29765 0.9842 0.3512 0.0
H1536 H 0.30706 0.05122 0.3394 0.0
H1537 H 0.30504 0.01425 0.33142 0.0
H1538 H 0.239 0.01873 0.32894 0.0
H1539 H 0.24143 0.05579 0.33467 0.0
C1540 C 0.25068 0.95898 0.31895 0.0
C1541 C 0.26493 0.94674 0.33197 0.0
C1542 C 0.25348 0.98032 0.31704 0.0
C1543 C 0.27023 0.99005 0.3289 0.0
C1544 C 0.28475 0.97753 0.34134 0.0
C1545 C 0.28227 0.95612 0.34252 0.0
C1546 C 0.29218 0.04423 0.3366 0.0
C1547 C 0.2744 0.05629 0.33766 0.0
C1548 C 0.29094 0.02296 0.33232 0.0
C1549 C 0.27182 0.01311 0.3299 0.0
C1550 C 0.25408 0.0255 0.33021 0.0
C1551 C 0.2554 0.04685 0.33367 0.0
H1552 H 0.05273 0.7507 0.66397 0.0
H1553 H 0.05387 0.68429 0.65837 0.0
H1554 H 0.01542 0.74992 0.66656 0.0
H1555 H 0.01687 0.68326 0.66241 0.0
H1556 H 0.9533 0.68971 0.62978 0.0
H1557 H 0.99 0.69055 0.63493 0.0
H1558 H 0.98426 0.74149 0.68751 0.0
H1559 H 0.94715 0.74116 0.68136 0.0
C1560 C 0.04501 0.73591 0.66406 0.0
C1561 C 0.0561 0.71757 0.66063 0.0
C1562 C 0.02361 0.73543 0.6656 0.0
C1563 C 0.01299 0.71654 0.66414 0.0
C1564 C 0.02439 0.69815 0.66273 0.0
C1565 C 0.04564 0.69868 0.66066 0.0
C1566 C 0.95979 0.70103 0.6426 0.0
C1567 C 0.94728 0.71536 0.65517 0.0
C1568 C 0.98093 0.70141 0.64576 0.0
C1569 C 0.99024 0.71595 0.66189 0.0
C1570 C 0.97769 0.73018 0.67477 0.0
C1571 C 0.95641 0.72993 0.67137 0.0
H1572 H 0.2546 0.94033 0.67412 0.0
H1573 H 0.30823 0.95184 0.62843 0.0
H1574 H 0.25089 0.97739 0.68137 0.0
H1575 H 0.30424 0.98873 0.63508 0.0
H1576 H 0.29876 0.05462 0.66052 0.0
H1577 H 0.30504 0.01759 0.66392 0.0
H1578 H 0.2404 0.00593 0.65522 0.0
H1579 H 0.23404 0.04273 0.6525 0.0
C1580 C 0.26574 0.95074 0.66589 0.0
C1581 C 0.28159 0.94316 0.65052 0.0
C1582 C 0.26354 0.97198 0.6699 0.0
C1583 C 0.27714 0.9861 0.65859 0.0
C1584 C 0.2936 0.97837 0.64431 0.0
C1585 C 0.29581 0.95716 0.64035 0.0
C1586 C 0.28585 0.04417 0.65964 0.0
C1587 C 0.26591 0.05173 0.65595 0.0
C1588 C 0.28947 0.02292 0.66148 0.0
C1589 C 0.27324 0.00873 0.6597 0.0
C1590 C 0.25325 0.01636 0.657 0.0
C1591 C 0.24963 0.03755 0.65519 0.0
H1592 H 0.05405 0.24987 0.66573 0.0
H1593 H 0.05314 0.31634 0.66072 0.0
H1594 H 0.01674 0.24945 0.66814 0.0
H1595 H 0.0161 0.31613 0.66452 0.0
H1596 H 0.95336 0.30725 0.63017 0.0
H1597 H 0.9899 0.30778 0.63626 0.0
H1598 H 0.98514 0.25703 0.68924 0.0
H1599 H 0.94809 0.256 0.68222 0.0
C1600 C 0.04588 0.26441 0.66584 0.0
C1601 C 0.05641 0.28311 0.66263 0.0
C1602 C 0.02449 0.2642 0.66733 0.0
C1603 C 0.0133 0.28274 0.66601 0.0
C1604 C 0.02411 0.3015 0.66477 0.0
C1605 C 0.04537 0.30167 0.66278 0.0
C1606 C 0.95999 0.29626 0.64331 0.0
C1607 C 0.94778 0.28157 0.65571 0.0
C1608 C 0.98105 0.29669 0.64701 0.0
C1609 C 0.99059 0.28259 0.66348 0.0
C1610 C 0.97835 0.26803 0.67627 0.0
C1611 C 0.95712 0.2675 0.67238 0.0
H1612 H 0.6967 0.04712 0.6347 0.0
H1613 H 0.75088 0.05938 0.67906 0.0
H1614 H 0.7016 0.01025 0.64069 0.0
H1615 H 0.75559 0.02231 0.68553 0.0
H1616 H 0.77241 0.95679 0.65611 0.0
H1617 H 0.7659 0.99366 0.65873 0.0
H1618 H 0.70162 0.98166 0.67016 0.0
H1619 H 0.70801 0.94469 0.66699 0.0
C1620 C 0.70946 0.04196 0.64616 0.0
C1621 C 0.72349 0.05619 0.65624 0.0
C1622 C 0.71221 0.02077 0.64972 0.0
C1623 C 0.72907 0.01327 0.66346 0.0
C1624 C 0.74261 0.02756 0.67453 0.0
C1625 C 0.73983 0.04881 0.67098 0.0
C1626 C 0.75689 0.96194 0.65939 0.0
C1627 C 0.74072 0.94768 0.66102 0.0
C1628 C 0.75318 0.98314 0.66111 0.0
C1629 C 0.73321 0.99067 0.66453 0.0
C1630 C 0.71714 0.9764 0.66714 0.0
C1631 C 0.72084 0.95517 0.66542 0.0
H1632 H 0.55222 0.81347 0.86584 0.0
H1633 H 0.5587 0.76092 0.81601 0.0
H1634 H 0.51572 0.81319 0.85941 0.0
H1635 H 0.52175 0.76118 0.80848 0.0
H1636 H 0.45358 0.7518 0.83222 0.0
H1637 H 0.49079 0.75299 0.82953 0.0
H1638 H 0.48859 0.81968 0.83234 0.0
H1639 H 0.45159 0.81828 0.83657 0.0
C1640 C 0.54587 0.80207 0.85302 0.0
C1641 C 0.5584 0.78716 0.84152 0.0
C1642 C 0.52482 0.80202 0.84912 0.0
C1643 C 0.5156 0.78722 0.8333 0.0
C1644 C 0.52823 0.77266 0.82105 0.0
C1645 C 0.54943 0.77259 0.82519 0.0
C1646 C 0.4611 0.76669 0.83193 0.0
C1647 C 0.44976 0.78493 0.835 0.0
C1648 C 0.48245 0.76741 0.83024 0.0
C1649 C 0.49286 0.78643 0.83116 0.0
C1650 C 0.48124 0.80471 0.83238 0.0
C1651 C 0.45999 0.80395 0.83462 0.0
H1652 H 0.19362 0.45402 0.8707 0.0
H1653 H 0.2451 0.44261 0.82132 0.0
H1654 H 0.19741 0.49095 0.86411 0.0
H1655 H 0.24859 0.4797 0.81414 0.0
H1656 H 0.26704 0.54469 0.84247 0.0
H1657 H 0.26035 0.50796 0.83981 0.0
H1658 H 0.1955 0.52007 0.83572 0.0
H1659 H 0.20216 0.55707 0.83906 0.0
C1660 C 0.20551 0.45938 0.858 0.0
C1661 C 0.21921 0.44538 0.84676 0.0
C1662 C 0.2076 0.4806 0.85408 0.0
C1663 C 0.22342 0.48836 0.83876 0.0
C1664 C 0.23645 0.47427 0.82641 0.0
C1665 C 0.23438 0.453 0.83039 0.0
C1666 C 0.25132 0.53963 0.84081 0.0
C1667 C 0.23513 0.55392 0.84131 0.0
C1668 C 0.2475 0.51848 0.83903 0.0
C1669 C 0.22737 0.51099 0.83762 0.0
C1670 C 0.21118 0.5253 0.83712 0.0
C1671 C 0.21501 0.54652 0.83892 0.0
H1672 H 0.44632 0.18293 0.84185 0.0
H1673 H 0.4487 0.24902 0.83241 0.0
H1674 H 0.48333 0.18107 0.83828 0.0
H1675 H 0.48597 0.24747 0.83029 0.0
H1676 H 0.55384 0.23768 0.81656 0.0
H1677 H 0.51682 0.23794 0.81007 0.0
H1678 H 0.51059 0.18864 0.86487 0.0
H1679 H 0.54732 0.18782 0.87033 0.0
C1680 C 0.45482 0.19707 0.83883 0.0
C1681 C 0.44469 0.21613 0.8376 0.0
C1682 C 0.47608 0.19606 0.83704 0.0
C1683 C 0.48782 0.21416 0.83461 0.0
C1684 C 0.47753 0.23317 0.832 0.0
C1685 C 0.45614 0.23411 0.83328 0.0
C1686 C 0.5445 0.22676 0.82694 0.0
C1687 C 0.55351 0.21269 0.84391 0.0
C1688 C 0.52326 0.22698 0.82336 0.0
C1689 C 0.51057 0.21328 0.83686 0.0
C1690 C 0.51976 0.19911 0.85362 0.0
C1691 C 0.54091 0.19873 0.85694 0.0
H1692 H 0.73184 0.45385 0.84067 0.0
H1693 H 0.79662 0.44215 0.833 0.0
H1694 H 0.7381 0.49069 0.8378 0.0
H1695 H 0.8028 0.47918 0.82951 0.0
H1696 H 0.80557 0.54499 0.86518 0.0
H1697 H 0.80169 0.50804 0.85862 0.0
H1698 H 0.74879 0.51919 0.81148 0.0
H1699 H 0.75241 0.55626 0.81857 0.0
C1700 C 0.74742 0.45908 0.83799 0.0
C1701 C 0.76374 0.44495 0.83739 0.0
C1702 C 0.75099 0.48028 0.83611 0.0
C1703 C 0.77097 0.48795 0.83354 0.0
C1704 C 0.78724 0.47381 0.83185 0.0
C1705 C 0.78367 0.45255 0.83372 0.0
C1706 C 0.79328 0.5396 0.8531 0.0
C1707 C 0.77917 0.55355 0.84261 0.0
C1708 C 0.79113 0.51838 0.8492 0.0
C1709 C 0.77482 0.51059 0.83468 0.0
C1710 C 0.76132 0.52465 0.82311 0.0
C1711 C 0.76346 0.5459 0.82704 0.0
H1712 H 0.44305 0.23714 0.18076 0.0
H1713 H 0.44964 0.18802 0.12595 0.0
H1714 H 0.48005 0.23717 0.18748 0.0
H1715 H 0.48634 0.1886 0.1317 0.0
H1716 H 0.55053 0.18241 0.15491 0.0
H1717 H 0.51351 0.1806 0.15846 0.0
H1718 H 0.51096 0.24691 0.16732 0.0
H1719 H 0.54822 0.24844 0.16513 0.0
C1720 C 0.45239 0.22632 0.17021 0.0
C1721 C 0.44341 0.21256 0.15286 0.0
C1722 C 0.47362 0.22642 0.17393 0.0
C1723 C 0.48633 0.21285 0.16022 0.0
C1724 C 0.47716 0.19896 0.14311 0.0
C1725 C 0.45603 0.19873 0.13962 0.0
C1726 C 0.54205 0.19654 0.15813 0.0
C1727 C 0.55221 0.21558 0.15955 0.0
C1728 C 0.52079 0.19556 0.15992 0.0
C1729 C 0.50907 0.21366 0.16257 0.0
C1730 C 0.51939 0.23262 0.16542 0.0
C1731 C 0.54077 0.23353 0.16411 0.0
H1732 H 0.7302 0.54492 0.15563 0.0
H1733 H 0.79465 0.5565 0.16694 0.0
H1734 H 0.73636 0.50804 0.15857 0.0
H1735 H 0.80069 0.51947 0.17044 0.0
H1736 H 0.80483 0.45391 0.13453 0.0
H1737 H 0.80053 0.49083 0.14088 0.0
H1738 H 0.74627 0.47938 0.18547 0.0
H1739 H 0.75036 0.44231 0.17863 0.0
C1740 C 0.74566 0.53966 0.15911 0.0
C1741 C 0.76196 0.55377 0.16073 0.0
C1742 C 0.74916 0.51844 0.16102 0.0
C1743 C 0.76904 0.51074 0.16462 0.0
C1744 C 0.78523 0.52486 0.1673 0.0
C1745 C 0.78174 0.54612 0.16541 0.0
C1746 C 0.79214 0.45922 0.14601 0.0
C1747 C 0.77783 0.44518 0.15588 0.0
C1748 C 0.78974 0.48043 0.14979 0.0
C1749 C 0.77296 0.48812 0.16354 0.0
C1750 C 0.75919 0.47399 0.17445 0.0
C1751 C 0.76161 0.45274 0.17068 0.0
H1752 H 0.44876 0.76011 0.17651 0.0
H1753 H 0.45462 0.8111 0.1242 0.0
H1754 H 0.48573 0.76121 0.18422 0.0
H1755 H 0.49108 0.81172 0.13099 0.0
H1756 H 0.55395 0.82063 0.15689 0.0
H1757 H 0.51686 0.82029 0.15982 0.0
H1758 H 0.51768 0.75362 0.16372 0.0
H1759 H 0.55502 0.75417 0.16214 0.0
C1760 C 0.4579 0.77157 0.16676 0.0
C1761 C 0.44874 0.78554 0.14981 0.0
C1762 C 0.47908 0.77214 0.17105 0.0
C1763 C 0.49147 0.78666 0.15839 0.0
C1764 C 0.48211 0.80066 0.14163 0.0
C1765 C 0.4611 0.80018 0.13753 0.0
C1766 C 0.5462 0.80593 0.15882 0.0
C1767 C 0.55732 0.78742 0.15899 0.0
C1768 C 0.52491 0.80569 0.16031 0.0
C1769 C 0.51415 0.78689 0.16138 0.0
C1770 C 0.52539 0.76839 0.16301 0.0
C1771 C 0.5468 0.76868 0.162 0.0
H1772 H 0.20476 0.44618 0.16696 0.0
H1773 H 0.26984 0.45686 0.16128 0.0
H1774 H 0.19907 0.48333 0.17005 0.0
H1775 H 0.26408 0.49379 0.16375 0.0
H1776 H 0.25036 0.55958 0.18267 0.0
H1777 H 0.25327 0.52245 0.18984 0.0
H1778 H 0.20129 0.51212 0.14085 0.0
H1779 H 0.19812 0.54912 0.13421 0.0
C1780 C 0.21787 0.45639 0.16657 0.0
C1781 C 0.23775 0.44847 0.16359 0.0
C1782 C 0.21459 0.4777 0.16822 0.0
C1783 C 0.2311 0.49157 0.167 0.0
C1784 C 0.25101 0.48359 0.16506 0.0
C1785 C 0.25429 0.46234 0.1634 0.0
C1786 C 0.23936 0.54939 0.1738 0.0
C1787 C 0.22413 0.55728 0.1577 0.0
C1788 C 0.24109 0.5281 0.17777 0.0
C1789 C 0.22764 0.51426 0.16572 0.0
C1790 C 0.2118 0.52229 0.15064 0.0
C1791 C 0.21006 0.54354 0.14669 0.0
H1792 H 0.09979 0.31371 0.44048 0.0
H1793 H 0.12857 0.25399 0.43942 0.0
H1794 H 0.10105 0.31403 0.48673 0.0
H1795 H 0.13195 0.25482 0.48522 0.0
H1796 H 0.12249 0.25256 0.56937 0.0
H1797 H 0.11968 0.25186 0.52378 0.0
H1798 H 0.1187 0.31875 0.52266 0.0
H1799 H 0.11926 0.31892 0.56889 0.0
C1800 C 0.10673 0.3008 0.45032 0.0
C1801 C 0.11473 0.28413 0.43657 0.0
C1802 C 0.10763 0.30097 0.4769 0.0
C1803 C 0.11698 0.28464 0.49035 0.0
C1804 C 0.12429 0.26764 0.47618 0.0
C1805 C 0.1227 0.26721 0.44972 0.0
C1806 C 0.12201 0.26712 0.55927 0.0
C1807 C 0.12179 0.28583 0.57266 0.0
C1808 C 0.12054 0.26679 0.53286 0.0
C1809 C 0.11916 0.28524 0.51879 0.0
C1810 C 0.11951 0.30408 0.53238 0.0
C1811 C 0.12043 0.30433 0.559 0.0
H1812 H 0.69481 0.10443 0.55721 0.0
H1813 H 0.75681 0.12657 0.56177 0.0
H1814 H 0.69759 0.10261 0.5108 0.0
H1815 H 0.75969 0.12502 0.51558 0.0
H1816 H 0.70585 0.12414 0.42689 0.0
H1817 H 0.70136 0.12532 0.47291 0.0
H1818 H 0.76118 0.09838 0.48295 0.0
H1819 H 0.76586 0.09739 0.43727 0.0
C1820 C 0.70887 0.10928 0.54813 0.0
C1821 C 0.72538 0.11633 0.56274 0.0
C1822 C 0.71051 0.10817 0.52168 0.0
C1823 C 0.72885 0.11372 0.50953 0.0
C1824 C 0.74542 0.12047 0.52436 0.0
C1825 C 0.74376 0.12152 0.55073 0.0
C1826 C 0.718 0.11835 0.4389 0.0
C1827 C 0.73626 0.11077 0.42828 0.0
C1828 C 0.71538 0.11899 0.46527 0.0
C1829 C 0.73099 0.11214 0.48155 0.0
C1830 C 0.74901 0.10413 0.47092 0.0
C1831 C 0.75162 0.10344 0.44466 0.0
H1832 H 0.89276 0.68272 0.43604 0.0
H1833 H 0.87857 0.74745 0.43987 0.0
H1834 H 0.88929 0.67982 0.48168 0.0
H1835 H 0.87698 0.74556 0.48573 0.0
H1836 H 0.86138 0.73903 0.56661 0.0
H1837 H 0.86066 0.73843 0.52063 0.0
H1838 H 0.89686 0.6823 0.52165 0.0
H1839 H 0.89476 0.68184 0.56756 0.0
C1840 C 0.88873 0.69634 0.44688 0.0
C1841 C 0.8846 0.71499 0.43449 0.0
C1842 C 0.88713 0.69488 0.47332 0.0
C1843 C 0.88201 0.71229 0.4882 0.0
C1844 C 0.87965 0.73137 0.47548 0.0
C1845 C 0.88085 0.73265 0.44902 0.0
C1846 C 0.86852 0.72625 0.55673 0.0
C1847 C 0.87776 0.71029 0.57044 0.0
C1848 C 0.86866 0.7261 0.5302 0.0
C1849 C 0.87943 0.71076 0.5166 0.0
C1850 C 0.88821 0.69443 0.5307 0.0
C1851 C 0.8871 0.69408 0.55726 0.0
H1852 H 0.31014 0.89509 0.55027 0.0
H1853 H 0.24768 0.87422 0.55436 0.0
H1854 H 0.30746 0.89735 0.5038 0.0
H1855 H 0.24488 0.87636 0.50821 0.0
H1856 H 0.29675 0.87656 0.41879 0.0
H1857 H 0.30229 0.87475 0.46472 0.0
H1858 H 0.24434 0.90492 0.47724 0.0
H1859 H 0.23865 0.90664 0.43183 0.0
C1860 C 0.29602 0.89057 0.54108 0.0
C1861 C 0.27932 0.88381 0.55556 0.0
C1862 C 0.29444 0.89196 0.51462 0.0
C1863 C 0.27596 0.88705 0.5024 0.0
C1864 C 0.25926 0.88042 0.51709 0.0
C1865 C 0.26087 0.87904 0.54342 0.0
C1866 C 0.2853 0.883 0.43134 0.0
C1867 C 0.26717 0.89159 0.42153 0.0
C1868 C 0.2885 0.88198 0.45763 0.0
C1869 C 0.27361 0.88943 0.47454 0.0
C1870 C 0.2559 0.89866 0.46469 0.0
C1871 C 0.25272 0.89975 0.43858 0.0
H1872 H 0.12112 0.68073 0.43672 0.0
H1873 H 0.12292 0.74712 0.43422 0.0
H1874 H 0.12185 0.68178 0.48297 0.0
H1875 H 0.12126 0.74862 0.47994 0.0
H1876 H 0.13177 0.74824 0.56398 0.0
H1877 H 0.13496 0.74632 0.51814 0.0
H1878 H 0.10408 0.68713 0.51897 0.0
H1879 H 0.10294 0.68855 0.5652 0.0
C1880 C 0.12221 0.69553 0.44615 0.0
C1881 C 0.12285 0.71379 0.43192 0.0
C1882 C 0.12202 0.69626 0.47278 0.0
C1883 C 0.12159 0.71534 0.4858 0.0
C1884 C 0.1222 0.73356 0.4712 0.0
C1885 C 0.12298 0.73275 0.44476 0.0
C1886 C 0.12592 0.73477 0.55419 0.0
C1887 C 0.11789 0.7182 0.56798 0.0
C1888 C 0.1274 0.73372 0.52774 0.0
C1889 C 0.11994 0.71643 0.51425 0.0
C1890 C 0.11073 0.70039 0.52831 0.0
C1891 C 0.1099 0.7012 0.55488 0.0
H1892 H 0.30448 0.1042 0.43755 0.0
H1893 H 0.24236 0.1262 0.43465 0.0
H1894 H 0.3025 0.10238 0.48405 0.0
H1895 H 0.24029 0.12471 0.48088 0.0
H1896 H 0.23469 0.09581 0.55821 0.0
H1897 H 0.23918 0.0975 0.5126 0.0
H1898 H 0.29904 0.12429 0.52285 0.0
H1899 H 0.29473 0.12237 0.56893 0.0
C1900 C 0.29059 0.10907 0.44701 0.0
C1901 C 0.27378 0.11599 0.43284 0.0
C1902 C 0.28941 0.10796 0.47351 0.0
C1903 C 0.27123 0.11338 0.48613 0.0
C1904 C 0.25443 0.12021 0.47173 0.0
C1905 C 0.25563 0.12124 0.44534 0.0
C1906 C 0.2489 0.10199 0.5509 0.0
C1907 C 0.2643 0.10907 0.56737 0.0
C1908 C 0.25139 0.10308 0.52466 0.0
C1909 C 0.26934 0.11131 0.5141 0.0
C1910 C 0.28505 0.11784 0.53045 0.0
C1911 C 0.28255 0.11676 0.55684 0.0
H1912 H 0.87662 0.25211 0.43311 0.0
H1913 H 0.8788 0.31848 0.43614 0.0
H1914 H 0.87781 0.25042 0.47893 0.0
H1915 H 0.87759 0.31724 0.48237 0.0
H1916 H 0.8981 0.30965 0.56397 0.0
H1917 H 0.89614 0.31136 0.51783 0.0
H1918 H 0.86373 0.25303 0.51728 0.0
H1919 H 0.86761 0.25079 0.56312 0.0
C1920 C 0.87655 0.26642 0.44376 0.0
C1921 C 0.87694 0.28544 0.43107 0.0
C1922 C 0.87707 0.26551 0.47022 0.0
C1923 C 0.87771 0.28367 0.48493 0.0
C1924 C 0.87745 0.30281 0.47204 0.0
C1925 C 0.87754 0.30364 0.44544 0.0
C1926 C 0.89059 0.29726 0.55376 0.0
C1927 C 0.88243 0.28039 0.56694 0.0
C1928 C 0.88929 0.29825 0.52726 0.0
C1929 C 0.87947 0.2825 0.51332 0.0
C1930 C 0.87172 0.26539 0.52686 0.0
C1931 C 0.87363 0.26415 0.55327 0.0
H1932 H 0.76992 0.90422 0.56345 0.0
H1933 H 0.7105 0.87643 0.57479 0.0
H1934 H 0.76497 0.90284 0.5179 0.0
H1935 H 0.70574 0.8748 0.52879 0.0
H1936 H 0.69858 0.89479 0.44409 0.0
H1937 H 0.70124 0.89643 0.49051 0.0
H1938 H 0.76416 0.87644 0.4856 0.0
H1939 H 0.76142 0.87523 0.4394 0.0
C1940 C 0.75576 0.89781 0.55628 0.0
C1941 C 0.74066 0.89031 0.57289 0.0
C1942 C 0.753 0.8969 0.53008 0.0
C1943 C 0.7351 0.88841 0.5197 0.0
C1944 C 0.71969 0.88145 0.53622 0.0
C1945 C 0.72244 0.88237 0.56257 0.0
C1946 C 0.7128 0.89043 0.45315 0.0
C1947 C 0.72962 0.88425 0.4385 0.0
C1948 C 0.71437 0.89142 0.47962 0.0
C1949 C 0.73291 0.88658 0.49174 0.0
C1950 C 0.74973 0.88051 0.47686 0.0
C1951 C 0.74816 0.87963 0.45048 0.0
H1952 H 0.60638 0.82044 0.06788 0.0
H1953 H 0.64046 0.76366 0.06739 0.0
H1954 H 0.60279 0.81875 0.0221 0.0
H1955 H 0.63965 0.76305 0.02146 0.0
H1956 H 0.62243 0.75267 0.94147 0.0
H1957 H 0.62251 0.75501 0.98739 0.0
H1958 H 0.60968 0.82055 0.98179 0.0
H1959 H 0.6081 0.8173 0.93602 0.0
C1960 C 0.6139 0.80806 0.05766 0.0
C1961 C 0.62396 0.79235 0.07096 0.0
C1962 C 0.61187 0.80697 0.03121 0.0
C1963 C 0.6204 0.79038 0.01732 0.0
C1964 C 0.6318 0.77553 0.03095 0.0
C1965 C 0.63288 0.77613 0.05741 0.0
C1966 C 0.61969 0.76752 0.9503 0.0
C1967 C 0.61659 0.78509 0.93537 0.0
C1968 C 0.62 0.76905 0.97678 0.0
C1969 C 0.61737 0.7883 0.98905 0.0
C1970 C 0.61226 0.80545 0.97375 0.0
C1971 C 0.61171 0.80378 0.94726 0.0
H1972 H 0.20824 0.62469 0.92857 0.0
H1973 H 0.26824 0.59794 0.93896 0.0
H1974 H 0.20409 0.62668 0.97459 0.0
H1975 H 0.2639 0.59967 0.98463 0.0
H1976 H 0.26047 0.62775 0.06314 0.0
H1977 H 0.26292 0.6262 0.01691 0.0
H1978 H 0.20031 0.60514 0.01294 0.0
H1979 H 0.19794 0.60708 0.05934 0.0
C1980 C 0.22046 0.61906 0.94059 0.0
C1981 C 0.23863 0.61126 0.92997 0.0
C1982 C 0.21805 0.62018 0.96697 0.0
C1983 C 0.23377 0.61358 0.98325 0.0
C1984 C 0.25167 0.60531 0.97262 0.0
C1985 C 0.25408 0.60418 0.94636 0.0
C1986 C 0.24722 0.62304 0.05225 0.0
C1987 C 0.22884 0.61821 0.06449 0.0
C1988 C 0.24863 0.62197 0.02586 0.0
C1989 C 0.23181 0.61552 0.01124 0.0
C1990 C 0.21343 0.61046 0.02362 0.0
C1991 C 0.21203 0.61163 0.05009 0.0
H1992 H 0.37748 0.18229 0.06012 0.0
H1993 H 0.37697 0.2487 0.06294 0.0
H1994 H 0.37717 0.18346 0.01393 0.0
H1995 H 0.37906 0.25028 0.01721 0.0
H1996 H 0.36908 0.25004 0.93287 0.0
H1997 H 0.36577 0.24835 0.97873 0.0
H1998 H 0.39521 0.1884 0.97821 0.0
H1999 H 0.39645 0.18965 0.932 0.0
C2000 C 0.37675 0.19714 0.05077 0.0
C2001 C 0.37634 0.21537 0.06508 0.0
C2002 C 0.37721 0.19793 0.02416 0.0
C2003 C 0.37814 0.21702 0.01121 0.0
C2004 C 0.37776 0.23521 0.02588 0.0
C2005 C 0.37672 0.23437 0.05233 0.0
C2006 C 0.37459 0.23646 0.94274 0.0
C2007 C 0.38222 0.21965 0.92905 0.0
C2008 C 0.37304 0.23553 0.9692 0.0
C2009 C 0.38002 0.21809 0.98278 0.0
C2010 C 0.3889 0.2018 0.96881 0.0
C2011 C 0.38979 0.2025 0.94225 0.0
H2012 H 0.74474 0.37549 0.06041 0.0
H2013 H 0.80742 0.39572 0.05675 0.0
H2014 H 0.74244 0.3768 0.01418 0.0
H2015 H 0.80523 0.3972 0.0102 0.0
H2016 H 0.79529 0.3749 0.92558 0.0
H2017 H 0.80037 0.37396 0.97167 0.0
H2018 H 0.74242 0.4046 0.98239 0.0
H2019 H 0.73719 0.40544 0.93688 0.0
C2020 C 0.75807 0.38003 0.04956 0.0
C2021 C 0.77644 0.38482 0.06186 0.0
C2022 C 0.75675 0.38093 0.02318 0.0
C2023 C 0.77366 0.38712 0.00857 0.0
C2024 C 0.79205 0.39212 0.02095 0.0
C2025 C 0.79334 0.3912 0.04747 0.0
C2026 C 0.78374 0.38162 0.93778 0.0
C2027 C 0.76574 0.39006 0.92746 0.0
C2028 C 0.78668 0.38109 0.96415 0.0
C2029 C 0.77164 0.38893 0.98061 0.0
C2030 C 0.75407 0.39804 0.97021 0.0
C2031 C 0.75116 0.39859 0.94404 0.0
H2032 H 0.6052 0.18566 0.06585 0.0
H2033 H 0.61729 0.25076 0.06092 0.0
H2034 H 0.60789 0.18252 0.02017 0.0
H2035 H 0.61834 0.24853 0.01507 0.0
H2036 H 0.60523 0.18245 0.93415 0.0
H2037 H 0.6017 0.18382 0.9799 0.0
H2038 H 0.63504 0.24174 0.98051 0.0
H2039 H 0.63573 0.24125 0.93457 0.0
C2040 C 0.60859 0.19931 0.05475 0.0
C2041 C 0.61246 0.21815 0.06684 0.0
C2042 C 0.60977 0.1977 0.02827 0.0
C2043 C 0.61441 0.21508 0.01309 0.0
C2044 C 0.6162 0.23436 0.02552 0.0
C2045 C 0.61531 0.23582 0.052 0.0
C2046 C 0.61195 0.19529 0.94435 0.0
C2047 C 0.62092 0.21163 0.93102 0.0
C2048 C 0.60998 0.19619 0.97083 0.0
C2049 C 0.61753 0.21324 0.98476 0.0
C2050 C 0.62791 0.22882 0.97107 0.0
C2051 C 0.62889 0.22836 0.94457 0.0
H2052 H 0.79507 0.62365 0.07333 0.0
H2053 H 0.73651 0.5943 0.06109 0.0
H2054 H 0.80044 0.62488 0.0273 0.0
H2055 H 0.742 0.59544 0.01567 0.0
H2056 H 0.80752 0.60338 0.94198 0.0
H2057 H 0.80518 0.60214 0.98852 0.0
H2058 H 0.7426 0.62319 0.98408 0.0
H2059 H 0.74504 0.6242 0.93785 0.0
C2060 C 0.78347 0.61726 0.06094 0.0
C2061 C 0.76526 0.60907 0.07099 0.0
C2062 C 0.78657 0.61797 0.03459 0.0
C2063 C 0.77148 0.61058 0.01789 0.0
C2064 C 0.7537 0.60171 0.02802 0.0
C2065 C 0.75063 0.60096 0.05415 0.0
C2066 C 0.79346 0.60811 0.95117 0.0
C2067 C 0.77664 0.61452 0.93664 0.0
C2068 C 0.79208 0.60734 0.97769 0.0
C2069 C 0.7737 0.61253 0.98995 0.0
C2070 C 0.75691 0.61888 0.9752 0.0
C2071 C 0.75831 0.61961 0.94881 0.0
H2072 H 0.3816 0.75196 0.92672 0.0
H2073 H 0.38321 0.8184 0.92746 0.0
H2074 H 0.38184 0.75132 0.97257 0.0
H2075 H 0.38113 0.81818 0.97372 0.0
H2076 H 0.40038 0.81233 0.0562 0.0
H2077 H 0.39911 0.81317 0.00996 0.0
H2078 H 0.36701 0.75466 0.01035 0.0
H2079 H 0.37019 0.75331 0.0563 0.0
C2080 C 0.38121 0.76651 0.93686 0.0
C2081 C 0.38176 0.78524 0.92353 0.0
C2082 C 0.38117 0.76621 0.96334 0.0
C2083 C 0.38142 0.78469 0.97743 0.0
C2084 C 0.38128 0.80353 0.96388 0.0
C2085 C 0.38188 0.80377 0.93725 0.0
C2086 C 0.39309 0.79972 0.04616 0.0
C2087 C 0.38481 0.78305 0.05964 0.0
C2088 C 0.39219 0.8002 0.01961 0.0
C2089 C 0.38267 0.78413 0.0059 0.0
C2090 C 0.37479 0.76724 0.01975 0.0
C2091 C 0.3763 0.76651 0.04622 0.0
H2092 H 0.19364 0.39697 0.94691 0.0
H2093 H 0.25597 0.37594 0.94113 0.0
H2094 H 0.19701 0.39895 0.99324 0.0
H2095 H 0.25941 0.37755 0.98724 0.0
H2096 H 0.26653 0.40514 0.06513 0.0
H2097 H 0.26109 0.40405 0.01962 0.0
H2098 H 0.20157 0.37685 0.03129 0.0
H2099 H 0.20682 0.37822 0.0772 0.0
C2100 C 0.2079 0.39239 0.95571 0.0
C2101 C 0.22435 0.38563 0.94079 0.0
C2102 C 0.20988 0.39358 0.98212 0.0
C2103 C 0.22848 0.38838 0.99391 0.0
C2104 C 0.24496 0.38187 0.97875 0.0
C2105 C 0.24298 0.38077 0.95243 0.0
C2106 C 0.2522 0.399 0.05813 0.0
C2107 C 0.23716 0.39166 0.07493 0.0
C2108 C 0.24915 0.39826 0.03196 0.0
C2109 C 0.23101 0.39012 0.02183 0.0
C2110 C 0.21569 0.38328 0.03854 0.0
C2111 C 0.21873 0.38403 0.06484 0.0
H2112 H 0.19452 0.39861 0.23121 0.0
H2113 H 0.17163 0.34863 0.18534 0.0
H2114 H 0.17325 0.38734 0.26652 0.0
H2115 H 0.15159 0.33603 0.22127 0.0
H2116 H 0.11465 0.3179 0.29043 0.0
H2117 H 0.12597 0.3366 0.25252 0.0
H2118 H 0.17709 0.36111 0.29501 0.0
H2119 H 0.16537 0.34371 0.3324 0.0
C2120 C 0.18468 0.3853 0.22871 0.0
C2121 C 0.18468 0.3744 0.20578 0.0
C2122 C 0.17267 0.37863 0.24899 0.0
C2123 C 0.16112 0.3603 0.24718 0.0
C2124 C 0.16015 0.35021 0.22351 0.0
C2125 C 0.17168 0.35735 0.2029 0.0
C2126 C 0.12811 0.32759 0.29163 0.0
C2127 C 0.13906 0.32922 0.31453 0.0
C2128 C 0.13468 0.33823 0.26987 0.0
C2129 C 0.15245 0.35056 0.27053 0.0
C2130 C 0.16304 0.35237 0.29364 0.0
C2131 C 0.15637 0.34207 0.31525 0.0
H2132 H 0.6666 0.16481 0.17352 0.0
H2133 H 0.61344 0.18752 0.21352 0.0
H2134 H 0.67756 0.14675 0.21083 0.0
H2135 H 0.6242 0.16831 0.25138 0.0
H2136 H 0.66908 0.15487 0.31993 0.0
H2137 H 0.6496 0.1686 0.28405 0.0
H2138 H 0.67195 0.1187 0.23704 0.0
H2139 H 0.69249 0.10617 0.27236 0.0
C2140 C 0.65697 0.16569 0.1902 0.0
C2141 C 0.63908 0.17772 0.19038 0.0
C2142 C 0.6632 0.15502 0.21173 0.0
C2143 C 0.65165 0.15568 0.2342 0.0
C2144 C 0.63354 0.16748 0.23444 0.0
C2145 C 0.62733 0.17844 0.21274 0.0
C2146 C 0.66935 0.14665 0.30202 0.0
C2147 C 0.68238 0.12966 0.29865 0.0
C2148 C 0.65817 0.15446 0.28145 0.0
C2149 C 0.65961 0.14512 0.25736 0.0
C2150 C 0.67105 0.12679 0.255 0.0
C2151 C 0.68265 0.11942 0.27527 0.0
H2152 H 0.7905 0.62176 0.2356 0.0
H2153 H 0.83811 0.63646 0.18179 0.0
H2154 H 0.81198 0.63348 0.27011 0.0
H2155 H 0.86006 0.64813 0.21682 0.0
H2156 H 0.87316 0.69579 0.28428 0.0
H2157 H 0.85994 0.67777 0.24687 0.0
H2158 H 0.84241 0.62625 0.29415 0.0
H2159 H 0.85495 0.64445 0.3314 0.0
C2160 C 0.80576 0.62718 0.23119 0.0
C2161 C 0.81258 0.62827 0.20597 0.0
C2162 C 0.81818 0.63378 0.25105 0.0
C2163 C 0.83781 0.64171 0.24628 0.0
C2164 C 0.84497 0.64219 0.22109 0.0
C2165 C 0.83249 0.63539 0.20108 0.0
C2166 C 0.86691 0.68041 0.28653 0.0
C2167 C 0.86471 0.6717 0.31081 0.0
C2168 C 0.8594 0.67005 0.26509 0.0
C2169 C 0.84974 0.65074 0.26762 0.0
C2170 C 0.84928 0.64132 0.29164 0.0
C2171 C 0.85653 0.65174 0.31299 0.0
H2172 H 0.35763 0.85667 0.16181 0.0
H2173 H 0.37552 0.80523 0.20897 0.0
H2174 H 0.34472 0.87473 0.19899 0.0
H2175 H 0.36201 0.82313 0.24626 0.0
H2176 H 0.33958 0.86402 0.31125 0.0
H2177 H 0.36182 0.85265 0.27639 0.0
H2178 H 0.31404 0.86725 0.22268 0.0
H2179 H 0.29223 0.87869 0.25706 0.0
C2180 C 0.3591 0.84935 0.18022 0.0
C2181 C 0.36727 0.82937 0.18241 0.0
C2182 C 0.35163 0.85968 0.20152 0.0
C2183 C 0.35189 0.85018 0.2255 0.0
C2184 C 0.3616 0.8309 0.22807 0.0
C2185 C 0.3693 0.82061 0.20669 0.0
C2186 C 0.33407 0.86513 0.29192 0.0
C2187 C 0.31414 0.87217 0.28688 0.0
C2188 C 0.34673 0.85851 0.272 0.0
C2189 C 0.33974 0.85908 0.24674 0.0
C2190 C 0.3201 0.8669 0.24181 0.0
C2191 C 0.30748 0.87332 0.26159 0.0
H2192 H 0.19034 0.60377 0.7769 0.0
H2193 H 0.17335 0.65737 0.82047 0.0
H2194 H 0.16912 0.61558 0.74179 0.0
H2195 H 0.15343 0.67035 0.78464 0.0
H2196 H 0.1168 0.68954 0.71581 0.0
H2197 H 0.127 0.67093 0.75427 0.0
H2198 H 0.17483 0.64041 0.71177 0.0
H2199 H 0.16415 0.6578 0.67389 0.0
C2200 C 0.18176 0.61798 0.77898 0.0
C2201 C 0.18342 0.62973 0.80116 0.0
C2202 C 0.1698 0.62495 0.75879 0.0
C2203 C 0.16001 0.64432 0.75991 0.0
C2204 C 0.1606 0.65536 0.78296 0.0
C2205 C 0.17207 0.64799 0.80351 0.0
C2206 C 0.12926 0.67856 0.71472 0.0
C2207 C 0.13967 0.6753 0.6917 0.0
C2208 C 0.1352 0.66797 0.7368 0.0
C2209 C 0.15175 0.65401 0.73631 0.0
C2210 C 0.16169 0.65051 0.71306 0.0
C2211 C 0.15566 0.6608 0.69115 0.0
H2212 H 0.30955 0.10257 0.72297 0.0
H2213 H 0.33003 0.15341 0.67678 0.0
H2214 H 0.33007 0.11517 0.7583 0.0
H2215 H 0.34931 0.16722 0.71271 0.0
H2216 H 0.38463 0.18764 0.78249 0.0
H2217 H 0.37478 0.16807 0.74457 0.0
H2218 H 0.32405 0.14174 0.78607 0.0
H2219 H 0.33428 0.16009 0.82346 0.0
C2220 C 0.31876 0.11632 0.72037 0.0
C2221 C 0.31825 0.1271 0.69736 0.0
C2222 C 0.33032 0.12374 0.74066 0.0
C2223 C 0.34087 0.14266 0.73876 0.0
C2224 C 0.34149 0.15262 0.71499 0.0
C2225 C 0.33041 0.14476 0.69438 0.0
C2226 C 0.37157 0.1774 0.78348 0.0
C2227 C 0.36028 0.17553 0.8061 0.0
C2228 C 0.36586 0.16624 0.76172 0.0
C2229 C 0.34866 0.15311 0.76213 0.0
C2230 C 0.33771 0.15111 0.78495 0.0
C2231 C 0.3435 0.16196 0.80654 0.0
H2232 H 0.87381 0.30038 0.71717 0.0
H2233 H 0.85966 0.35316 0.67029 0.0
H2234 H 0.86079 0.3188 0.7544 0.0
H2235 H 0.84725 0.37168 0.70738 0.0
H2236 H 0.7934 0.37713 0.76355 0.0
H2237 H 0.81552 0.36506 0.72978 0.0
H2238 H 0.86162 0.34852 0.78488 0.0
H2239 H 0.83909 0.36063 0.81911 0.0
C2240 C 0.86857 0.31614 0.71497 0.0
C2241 C 0.86737 0.32519 0.69077 0.0
C2242 C 0.86115 0.32672 0.7363 0.0
C2243 C 0.85258 0.34655 0.73372 0.0
C2244 C 0.85328 0.35624 0.70988 0.0
C2245 C 0.86046 0.34565 0.68864 0.0
C2246 C 0.80837 0.37123 0.76851 0.0
C2247 C 0.81448 0.36975 0.79398 0.0
C2248 C 0.82116 0.36444 0.7491 0.0
C2249 C 0.84039 0.35587 0.75461 0.0
C2250 C 0.84685 0.35497 0.78007 0.0
C2251 C 0.83404 0.36202 0.79961 0.0
H2252 H 0.70002 0.89686 0.73054 0.0
H2253 H 0.67323 0.84983 0.6832 0.0
H2254 H 0.6798 0.88494 0.76646 0.0
H2255 H 0.65403 0.83666 0.71959 0.0
H2256 H 0.61865 0.81861 0.79065 0.0
H2257 H 0.62951 0.83781 0.7529 0.0
H2258 H 0.68447 0.85651 0.79229 0.0
H2259 H 0.67338 0.83844 0.82965 0.0
C2260 C 0.68949 0.88413 0.72783 0.0
C2261 C 0.68817 0.87416 0.70432 0.0
C2262 C 0.67808 0.87709 0.74844 0.0
C2263 C 0.66575 0.85936 0.74624 0.0
C2264 C 0.66329 0.85035 0.72208 0.0
C2265 C 0.6743 0.85785 0.70121 0.0
C2266 C 0.63293 0.82706 0.79122 0.0
C2267 C 0.64509 0.82699 0.81325 0.0
C2268 C 0.63919 0.83801 0.76957 0.0
C2269 C 0.6578 0.84897 0.7695 0.0
C2270 C 0.66976 0.84888 0.79167 0.0
C2271 C 0.66345 0.83823 0.81319 0.0
H2272 H 0.85725 0.64676 0.68446 0.0
H2273 H 0.87411 0.70306 0.72289 0.0
H2274 H 0.84713 0.63149 0.72466 0.0
H2275 H 0.86284 0.68828 0.76319 0.0
H2276 H 0.84796 0.65405 0.83528 0.0
H2277 H 0.86594 0.66443 0.7968 0.0
H2278 H 0.81912 0.63508 0.75146 0.0
H2279 H 0.80178 0.62402 0.78975 0.0
C2280 C 0.85896 0.65581 0.70163 0.0
C2281 C 0.86633 0.67614 0.70058 0.0
C2282 C 0.85295 0.64714 0.72468 0.0
C2283 C 0.85366 0.65876 0.74721 0.0
C2284 C 0.86216 0.67876 0.74632 0.0
C2285 C 0.8686 0.6873 0.72323 0.0
C2286 C 0.84168 0.6496 0.81706 0.0
C2287 C 0.82338 0.63824 0.8156 0.0
C2288 C 0.85193 0.65567 0.79497 0.0
C2289 C 0.84402 0.65072 0.77089 0.0
C2290 C 0.82599 0.63888 0.76956 0.0
C2291 C 0.81591 0.6326 0.7916 0.0
H2292 H 0.35551 0.84748 0.80908 0.0
H2293 H 0.3746 0.7919 0.77068 0.0
H2294 H 0.3455 0.86261 0.76881 0.0
H2295 H 0.36331 0.80644 0.73025 0.0
H2296 H 0.34957 0.84127 0.65787 0.0
H2297 H 0.36647 0.83021 0.69687 0.0
H2298 H 0.3186 0.85924 0.74086 0.0
H2299 H 0.30248 0.87107 0.70217 0.0
C2300 C 0.3576 0.83852 0.79192 0.0
C2301 C 0.36569 0.81847 0.79299 0.0
C2302 C 0.35167 0.84711 0.76879 0.0
C2303 C 0.35312 0.83564 0.74617 0.0
C2304 C 0.36208 0.81586 0.74715 0.0
C2305 C 0.36849 0.80744 0.77033 0.0
C2306 C 0.34285 0.84549 0.67594 0.0
C2307 C 0.32469 0.85708 0.6769 0.0
C2308 C 0.35246 0.83902 0.69832 0.0
C2309 C 0.34397 0.84375 0.72219 0.0
C2310 C 0.32596 0.85564 0.723 0.0
C2311 C 0.31657 0.86237 0.7007 0.0
H2312 H 0.16711 0.33762 0.68892 0.0
H2313 H 0.11573 0.30603 0.72294 0.0
H2314 H 0.17606 0.35209 0.72969 0.0
H2315 H 0.12445 0.32123 0.76405 0.0
H2316 H 0.16581 0.329 0.83575 0.0
H2317 H 0.1506 0.31774 0.79595 0.0
H2318 H 0.16659 0.37612 0.76159 0.0
H2319 H 0.18245 0.38711 0.80114 0.0
C2320 C 0.15752 0.33392 0.70505 0.0
C2321 C 0.14076 0.32047 0.70259 0.0
C2322 C 0.16257 0.34245 0.7285 0.0
C2323 C 0.15095 0.33793 0.75022 0.0
C2324 C 0.13386 0.32487 0.74774 0.0
C2325 C 0.12881 0.31623 0.72416 0.0
C2326 C 0.16585 0.33957 0.81982 0.0
C2327 C 0.17566 0.35885 0.82154 0.0
C2328 C 0.157 0.33314 0.79699 0.0
C2329 C 0.1576 0.34589 0.77542 0.0
C2330 C 0.16628 0.36569 0.77765 0.0
C2331 C 0.1753 0.37204 0.80038 0.0
H2332 H 0.68455 0.11321 0.70294 0.0
H2333 H 0.66594 0.17083 0.66862 0.0
H2334 H 0.66785 0.12329 0.74233 0.0
H2335 H 0.64992 0.18121 0.70827 0.0
H2336 H 0.61405 0.19142 0.78082 0.0
H2337 H 0.62363 0.17665 0.73972 0.0
H2338 H 0.67585 0.1473 0.77468 0.0
H2339 H 0.66606 0.16127 0.81536 0.0
C2340 C 0.67682 0.12799 0.70373 0.0
C2341 C 0.67685 0.14131 0.68268 0.0
C2342 C 0.66731 0.13382 0.72638 0.0
C2343 C 0.65779 0.15323 0.72866 0.0
C2344 C 0.65694 0.1661 0.7072 0.0
C2345 C 0.66627 0.16017 0.68446 0.0
C2346 C 0.62742 0.1816 0.77972 0.0
C2347 C 0.63933 0.1777 0.80143 0.0
C2348 C 0.63298 0.17322 0.75615 0.0
C2349 C 0.65053 0.16075 0.75382 0.0
C2350 C 0.66204 0.15648 0.7757 0.0
C2351 C 0.6565 0.16475 0.79912 0.0
H2352 H 0.81444 0.38791 0.20308 0.0
H2353 H 0.83229 0.32951 0.1702 0.0
H2354 H 0.83119 0.37836 0.24265 0.0
H2355 H 0.84833 0.31964 0.21001 0.0
H2356 H 0.88472 0.30994 0.2817 0.0
H2357 H 0.87492 0.32443 0.24061 0.0
H2358 H 0.82385 0.35538 0.27613 0.0
H2359 H 0.83396 0.34169 0.31688 0.0
C2360 C 0.82197 0.37305 0.20425 0.0
C2361 C 0.82179 0.3594 0.18352 0.0
C2362 C 0.83152 0.36752 0.227 0.0
C2363 C 0.84092 0.34809 0.22971 0.0
C2364 C 0.84146 0.3348 0.20861 0.0
C2365 C 0.8321 0.34043 0.18577 0.0
C2366 C 0.8716 0.3201 0.28075 0.0
C2367 C 0.86006 0.32447 0.30263 0.0
C2368 C 0.86588 0.3283 0.25716 0.0
C2369 C 0.84851 0.34103 0.25495 0.0
C2370 C 0.83748 0.34593 0.27703 0.0
C2371 C 0.84321 0.33786 0.30049 0.0
H2372 H 0.66648 0.84356 0.18693 0.0
H2373 H 0.61786 0.80855 0.22212 0.0
H2374 H 0.67634 0.8571 0.22771 0.0
H2375 H 0.62739 0.82296 0.26343 0.0
H2376 H 0.67156 0.82898 0.33259 0.0
H2377 H 0.65456 0.81923 0.29338 0.0
H2378 H 0.66842 0.87915 0.26166 0.0
H2379 H 0.68625 0.88856 0.30056 0.0
C2380 C 0.65764 0.83894 0.20335 0.0
C2381 C 0.64149 0.8247 0.20118 0.0
C2382 C 0.66319 0.84697 0.22686 0.0
C2383 C 0.65268 0.8412 0.24898 0.0
C2384 C 0.636 0.82755 0.2468 0.0
C2385 C 0.63046 0.81937 0.22312 0.0
C2386 C 0.67077 0.84019 0.31737 0.0
C2387 C 0.68058 0.85944 0.31955 0.0
C2388 C 0.66086 0.83463 0.29489 0.0
C2389 C 0.66031 0.84828 0.27416 0.0
C2390 C 0.66899 0.86804 0.27699 0.0
C2391 C 0.67915 0.87349 0.29933 0.0
H2392 H 0.16805 0.6603 0.31698 0.0
H2393 H 0.11671 0.69134 0.28209 0.0
H2394 H 0.178 0.6465 0.27625 0.0
H2395 H 0.1264 0.67674 0.24101 0.0
H2396 H 0.16932 0.67193 0.17061 0.0
H2397 H 0.15287 0.68165 0.21022 0.0
H2398 H 0.17043 0.62316 0.24312 0.0
H2399 H 0.1876 0.61377 0.20376 0.0
C2400 C 0.15866 0.66397 0.30066 0.0
C2401 C 0.14167 0.67717 0.30286 0.0
C2402 C 0.16429 0.65582 0.27722 0.0
C2403 C 0.15303 0.66046 0.25524 0.0
C2404 C 0.13558 0.67306 0.2575 0.0
C2405 C 0.12996 0.68134 0.28107 0.0
C2406 C 0.16946 0.66101 0.18617 0.0
C2407 C 0.18008 0.6422 0.18412 0.0
C2408 C 0.15988 0.66654 0.20889 0.0
C2409 C 0.16052 0.65331 0.23003 0.0
C2410 C 0.17006 0.63395 0.22743 0.0
C2411 C 0.17984 0.62851 0.20481 0.0
H2412 H 0.33169 0.16945 0.32532 0.0
H2413 H 0.31068 0.11253 0.29139 0.0
H2414 H 0.34795 0.17905 0.28559 0.0
H2415 H 0.3277 0.12176 0.25187 0.0
H2416 H 0.33128 0.15962 0.17858 0.0
H2417 H 0.32113 0.14556 0.2191 0.0
H2418 H 0.37387 0.17361 0.25448 0.0
H2419 H 0.38374 0.18852 0.21366 0.0
C2420 C 0.33088 0.15877 0.30953 0.0
C2421 C 0.3196 0.14035 0.31145 0.0
C2422 C 0.34037 0.16423 0.28673 0.0
C2423 C 0.339 0.15131 0.26536 0.0
C2424 C 0.32868 0.13233 0.26775 0.0
C2425 C 0.31898 0.12699 0.29045 0.0
C2426 C 0.34089 0.16273 0.19488 0.0
C2427 C 0.35823 0.17547 0.19282 0.0
C2428 C 0.33513 0.15443 0.2182 0.0
C2429 C 0.34663 0.15843 0.24019 0.0
C2430 C 0.36448 0.17046 0.23801 0.0
C2431 C 0.37022 0.17891 0.21457 0.0
loop_
_geom_bond_atom_site_label_1
_geom_bond_atom_site_label_2
_geom_bond_distance
_geom_bond_site_symmetry_2
_ccdc_geom_bond_type
Mn0 O5 2.095 . S
Mn0 O15 2.162 . S
Mn0 O16 2.297 . S
Mn0 O24 2.385 . S
Mn0 O25 2.209 . S
Mn0 O26 2.094 . S
Mn1 O6 2.121 . S
Mn1 N8 2.257 . S
Mn1 N17 2.282 . S
Mn1 O25 2.215 . S
Mn1 O27 2.117 . S
C2 O24 1.234 . S
C2 O25 1.283 . S
C3 O15 1.281 . S
C3 O16 1.236 . S
C4 O26 1.240 . S
C4 O27 1.264 . S
O5 Mn0 2.095 . S
O5 C14 1.250 . S
O6 Mn1 2.121 . S
O6 C14 1.258 . S
C7 N8 1.326 . S
C7 C11 1.460 . S
C7 H13 0.929 . S
N8 Mn1 2.257 . S
N8 C7 1.326 . S
N8 C12 1.362 . S
C9 C10 1.258 . S
C9 C12 1.431 . S
C9 C29 1.449 . S
C10 C9 1.258 . S
C10 C11 1.477 . S
C10 H30 0.931 . S
C11 C7 1.460 . S
C11 C10 1.477 . S
C11 H31 0.930 . S
C12 N8 1.362 . S
C12 C9 1.431 . S
C12 C22 1.476 . S
H13 C7 0.929 . S
C14 O5 1.250 . S
C14 O6 1.258 . S
O15 Mn0 2.162 . S
O15 C3 1.281 . S
O16 Mn0 2.297 . S
O16 C3 1.236 . S
N17 Mn1 2.282 . S
N17 C18 1.328 . S
N17 C22 1.318 . S
C18 N17 1.328 . S
C18 C19 1.457 . S
C18 H23 0.929 . S
C19 C18 1.457 . S
C19 C20 1.291 . S
C19 H32 0.931 . S
C20 C19 1.291 . S
C20 C21 1.373 . S
C20 H33 0.929 . S
C21 C20 1.373 . S
C21 C22 1.396 . S
C21 C28 1.403 . S
C22 C12 1.476 . S
C22 N17 1.318 . S
C22 C21 1.396 . S
H23 C18 0.929 . S
O24 Mn0 2.385 . S
O24 C2 1.234 . S
O25 Mn0 2.209 . S
O25 Mn1 2.215 . S
O25 C2 1.283 . S
O26 Mn0 2.094 . S
O26 C4 1.240 . S
O27 Mn1 2.117 . S
O27 C4 1.264 . S
C28 C21 1.403 . S
C28 C29 1.399 . S
C28 H34 0.929 . S
C29 C9 1.449 . S
C29 C28 1.399 . S
C29 H35 0.930 . S
H30 C10 0.931 . S
H31 C11 0.930 . S
H32 C19 0.931 . S
H33 C20 0.929 . S
H34 C28 0.929 . S
H35 C29 0.930 . S
Mn36 O41 2.095 . S
Mn36 O51 2.162 . S
Mn36 O52 2.297 . S
Mn36 O60 2.385 . S
Mn36 O61 2.209 . S
Mn36 O62 2.094 . S
Mn37 O42 2.121 . S
Mn37 N44 2.257 . S
Mn37 N53 2.282 . S
Mn37 O61 2.215 . S
Mn37 O63 2.117 . S
C38 O60 1.234 . S
C38 O61 1.283 . S
C39 O51 1.281 . S
C39 O52 1.236 . S
C40 O62 1.240 . S
C40 O63 1.264 . S
O41 Mn36 2.095 . S
O41 C50 1.250 . S
O42 Mn37 2.121 . S
O42 C50 1.258 . S
C43 N44 1.326 . S
C43 C47 1.460 . S
C43 H49 0.929 . S
N44 Mn37 2.257 . S
N44 C43 1.326 . S
N44 C48 1.362 . S
C45 C46 1.258 . S
C45 C48 1.431 . S
C45 C65 1.449 . S
C46 C45 1.258 . S
C46 C47 1.477 . S
C46 H66 0.931 . S
C47 C43 1.460 . S
C47 C46 1.477 . S
C47 H67 0.930 . S
C48 N44 1.362 . S
C48 C45 1.431 . S
C48 C58 1.476 . S
H49 C43 0.929 . S
C50 O41 1.250 . S
C50 O42 1.258 . S
O51 Mn36 2.162 . S
O51 C39 1.281 . S
O52 Mn36 2.297 . S
O52 C39 1.236 . S
N53 Mn37 2.282 . S
N53 C54 1.328 . S
N53 C58 1.318 . S
C54 N53 1.328 . S
C54 C55 1.457 . S
C54 H59 0.929 . S
C55 C54 1.457 . S
C55 C56 1.291 . S
C55 H68 0.931 . S
C56 C55 1.291 . S
C56 C57 1.373 . S
C56 H69 0.929 . S
C57 C56 1.373 . S
C57 C58 1.396 . S
C57 C64 1.403 . S
C58 C48 1.476 . S
C58 N53 1.318 . S
C58 C57 1.396 . S
H59 C54 0.929 . S
O60 Mn36 2.385 . S
O60 C38 1.234 . S
O61 Mn36 2.209 . S
O61 Mn37 2.215 . S
O61 C38 1.283 . S
O62 Mn36 2.094 . S
O62 C40 1.240 . S
O63 Mn37 2.117 . S
O63 C40 1.264 . S
C64 C57 1.403 . S
C64 C65 1.399 . S
C64 H70 0.929 . S
C65 C45 1.449 . S
C65 C64 1.399 . S
C65 H71 0.930 . S
H66 C46 0.931 . S
H67 C47 0.930 . S
H68 C55 0.931 . S
H69 C56 0.929 . S
H70 C64 0.929 . S
H71 C65 0.930 . S
Mn72 O77 2.095 . S
Mn72 O87 2.162 . S
Mn72 O88 2.297 . S
Mn72 O96 2.385 . S
Mn72 O97 2.209 . S
Mn72 O98 2.094 . S
Mn73 O78 2.121 . S
Mn73 N80 2.257 . S
Mn73 N89 2.282 . S
Mn73 O97 2.215 . S
Mn73 O99 2.117 . S
C74 O96 1.234 . S
C74 O97 1.283 . S
C75 O87 1.281 . S
C75 O88 1.236 . S
C76 O98 1.240 . S
C76 O99 1.264 . S
O77 Mn72 2.095 . S
O77 C86 1.250 . S
O78 Mn73 2.121 . S
O78 C86 1.258 . S
C79 N80 1.326 . S
C79 C83 1.460 . S
C79 H85 0.929 . S
N80 Mn73 2.257 . S
N80 C79 1.326 . S
N80 C84 1.362 . S
C81 C82 1.258 . S
C81 C84 1.431 . S
C81 C101 1.449 . S
C82 C81 1.258 . S
C82 C83 1.477 . S
C82 H102 0.931 . S
C83 C79 1.460 . S
C83 C82 1.477 . S
C83 H103 0.930 . S
C84 N80 1.362 . S
C84 C81 1.431 . S
C84 C94 1.476 . S
H85 C79 0.929 . S
C86 O77 1.250 . S
C86 O78 1.258 . S
O87 Mn72 2.162 . S
O87 C75 1.281 . S
O88 Mn72 2.297 . S
O88 C75 1.236 . S
N89 Mn73 2.282 . S
N89 C90 1.328 . S
N89 C94 1.318 . S
C90 N89 1.328 . S
C90 C91 1.457 . S
C90 H95 0.929 . S
C91 C90 1.457 . S
C91 C92 1.291 . S
C91 H104 0.931 . S
C92 C91 1.291 . S
C92 C93 1.373 . S
C92 H105 0.929 . S
C93 C92 1.373 . S
C93 C94 1.396 . S
C93 C100 1.403 . S
C94 C84 1.476 . S
C94 N89 1.318 . S
C94 C93 1.396 . S
H95 C90 0.929 . S
O96 Mn72 2.385 . S
O96 C74 1.234 . S
O97 Mn72 2.209 . S
O97 Mn73 2.215 . S
O97 C74 1.283 . S
O98 Mn72 2.094 . S
O98 C76 1.240 . S
O99 Mn73 2.117 . S
O99 C76 1.264 . S
C100 C93 1.403 . S
C100 C101 1.399 . S
C100 H106 0.929 . S
C101 C81 1.449 . S
C101 C100 1.399 . S
C101 H107 0.930 . S
H102 C82 0.931 . S
H103 C83 0.930 . S
H104 C91 0.931 . S
H105 C92 0.929 . S
H106 C100 0.929 . S
H107 C101 0.930 . S
Mn108 O113 2.095 . S
Mn108 O123 2.162 . S
Mn108 O124 2.297 . S
Mn108 O132 2.385 . S
Mn108 O133 2.209 . S
Mn108 O134 2.094 . S
Mn109 O114 2.121 . S
Mn109 N116 2.257 . S
Mn109 N125 2.282 . S
Mn109 O133 2.215 . S
Mn109 O135 2.117 . S
C110 O132 1.234 . S
C110 O133 1.283 . S
C111 O123 1.281 . S
C111 O124 1.236 . S
C112 O134 1.240 . S
C112 O135 1.264 . S
O113 Mn108 2.095 . S
O113 C122 1.250 . S
O114 Mn109 2.121 . S
O114 C122 1.258 . S
C115 N116 1.326 . S
C115 C119 1.460 . S
C115 H121 0.929 . S
N116 Mn109 2.257 . S
N116 C115 1.326 . S
N116 C120 1.362 . S
C117 C118 1.258 . S
C117 C120 1.431 . S
C117 C137 1.449 . S
C118 C117 1.258 . S
C118 C119 1.477 . S
C118 H138 0.931 . S
C119 C115 1.460 . S
C119 C118 1.477 . S
C119 H139 0.930 . S
C120 N116 1.362 . S
C120 C117 1.431 . S
C120 C130 1.476 . S
H121 C115 0.929 . S
C122 O113 1.250 . S
C122 O114 1.258 . S
O123 Mn108 2.162 . S
O123 C111 1.281 . S
O124 Mn108 2.297 . S
O124 C111 1.236 . S
N125 Mn109 2.282 . S
N125 C126 1.328 . S
N125 C130 1.318 . S
C126 N125 1.328 . S
C126 C127 1.457 . S
C126 H131 0.929 . S
C127 C126 1.457 . S
C127 C128 1.291 . S
C127 H140 0.931 . S
C128 C127 1.291 . S
C128 C129 1.373 . S
C128 H141 0.929 . S
C129 C128 1.373 . S
C129 C130 1.396 . S
C129 C136 1.403 . S
C130 C120 1.476 . S
C130 N125 1.318 . S
C130 C129 1.396 . S
H131 C126 0.929 . S
O132 Mn108 2.385 . S
O132 C110 1.234 . S
O133 Mn108 2.209 . S
O133 Mn109 2.215 . S
O133 C110 1.283 . S
O134 Mn108 2.094 . S
O134 C112 1.240 . S
O135 Mn109 2.117 . S
O135 C112 1.264 . S
C136 C129 1.403 . S
C136 C137 1.399 . S
C136 H142 0.929 . S
C137 C117 1.449 . S
C137 C136 1.399 . S
C137 H143 0.930 . S
H138 C118 0.931 . S
H139 C119 0.930 . S
H140 C127 0.931 . S
H141 C128 0.929 . S
H142 C136 0.929 . S
H143 C137 0.930 . S
Mn144 O149 2.095 . S
Mn144 O159 2.162 . S
Mn144 O160 2.297 . S
Mn144 O168 2.385 . S
Mn144 O169 2.209 . S
Mn144 O170 2.094 . S
Mn145 O150 2.121 . S
Mn145 N152 2.257 . S
Mn145 N161 2.282 . S
Mn145 O169 2.215 . S
Mn145 O171 2.117 . S
C146 O168 1.234 . S
C146 O169 1.283 . S
C147 O159 1.281 . S
C147 O160 1.236 . S
C148 O170 1.240 . S
C148 O171 1.264 . S
O149 Mn144 2.095 . S
O149 C158 1.250 . S
O150 Mn145 2.121 . S
O150 C158 1.258 . S
C151 N152 1.326 . S
C151 C155 1.460 . S
C151 H157 0.929 . S
N152 Mn145 2.257 . S
N152 C151 1.326 . S
N152 C156 1.362 . S
C153 C154 1.258 . S
C153 C156 1.431 . S
C153 C173 1.449 . S
C154 C153 1.258 . S
C154 C155 1.477 . S
C154 H174 0.931 . S
C155 C151 1.460 . S
C155 C154 1.477 . S
C155 H175 0.930 . S
C156 N152 1.362 . S
C156 C153 1.431 . S
C156 C166 1.476 . S
H157 C151 0.929 . S
C158 O149 1.250 . S
C158 O150 1.258 . S
O159 Mn144 2.162 . S
O159 C147 1.281 . S
O160 Mn144 2.297 . S
O160 C147 1.236 . S
N161 Mn145 2.282 . S
N161 C162 1.328 . S
N161 C166 1.318 . S
C162 N161 1.328 . S
C162 C163 1.457 . S
C162 H167 0.929 . S
C163 C162 1.457 . S
C163 C164 1.291 . S
C163 H176 0.931 . S
C164 C163 1.291 . S
C164 C165 1.373 . S
C164 H177 0.929 . S
C165 C164 1.373 . S
C165 C166 1.396 . S
C165 C172 1.403 . S
C166 C156 1.476 . S
C166 N161 1.318 . S
C166 C165 1.396 . S
H167 C162 0.929 . S
O168 Mn144 2.385 . S
O168 C146 1.234 . S
O169 Mn144 2.209 . S
O169 Mn145 2.215 . S
O169 C146 1.283 . S
O170 Mn144 2.094 . S
O170 C148 1.240 . S
O171 Mn145 2.117 . S
O171 C148 1.264 . S
C172 C165 1.403 . S
C172 C173 1.399 . S
C172 H178 0.929 . S
C173 C153 1.449 . S
C173 C172 1.399 . S
C173 H179 0.930 . S
H174 C154 0.931 . S
H175 C155 0.930 . S
H176 C163 0.931 . S
H177 C164 0.929 . S
H178 C172 0.929 . S
H179 C173 0.930 . S
Mn180 O185 2.095 . S
Mn180 O195 2.162 . S
Mn180 O196 2.297 . S
Mn180 O204 2.385 . S
Mn180 O205 2.209 . S
Mn180 O206 2.094 . S
Mn181 O186 2.121 . S
Mn181 N188 2.257 . S
Mn181 N197 2.282 . S
Mn181 O205 2.215 . S
Mn181 O207 2.117 . S
C182 O204 1.234 . S
C182 O205 1.283 . S
C183 O195 1.281 . S
C183 O196 1.236 . S
C184 O206 1.240 . S
C184 O207 1.264 . S
O185 Mn180 2.095 . S
O185 C194 1.250 . S
O186 Mn181 2.121 . S
O186 C194 1.258 . S
C187 N188 1.326 . S
C187 C191 1.460 . S
C187 H193 0.929 . S
N188 Mn181 2.257 . S
N188 C187 1.326 . S
N188 C192 1.362 . S
C189 C190 1.258 . S
C189 C192 1.431 . S
C189 C209 1.449 . S
C190 C189 1.258 . S
C190 C191 1.477 . S
C190 H210 0.931 . S
C191 C187 1.460 . S
C191 C190 1.477 . S
C191 H211 0.930 . S
C192 N188 1.362 . S
C192 C189 1.431 . S
C192 C202 1.476 . S
H193 C187 0.929 . S
C194 O185 1.250 . S
C194 O186 1.258 . S
O195 Mn180 2.162 . S
O195 C183 1.281 . S
O196 Mn180 2.297 . S
O196 C183 1.236 . S
N197 Mn181 2.282 . S
N197 C198 1.328 . S
N197 C202 1.318 . S
C198 N197 1.328 . S
C198 C199 1.457 . S
C198 H203 0.929 . S
C199 C198 1.457 . S
C199 C200 1.291 . S
C199 H212 0.931 . S
C200 C199 1.291 . S
C200 C201 1.373 . S
C200 H213 0.929 . S
C201 C200 1.373 . S
C201 C202 1.396 . S
C201 C208 1.403 . S
C202 C192 1.476 . S
C202 N197 1.318 . S
C202 C201 1.396 . S
H203 C198 0.929 . S
O204 Mn180 2.385 . S
O204 C182 1.234 . S
O205 Mn180 2.209 . S
O205 Mn181 2.215 . S
O205 C182 1.283 . S
O206 Mn180 2.094 . S
O206 C184 1.240 . S
O207 Mn181 2.117 . S
O207 C184 1.264 . S
C208 C201 1.403 . S
C208 C209 1.399 . S
C208 H214 0.929 . S
C209 C189 1.449 . S
C209 C208 1.399 . S
C209 H215 0.930 . S
H210 C190 0.931 . S
H211 C191 0.930 . S
H212 C199 0.931 . S
H213 C200 0.929 . S
H214 C208 0.929 . S
H215 C209 0.930 . S
Mn216 O221 2.095 . S
Mn216 O231 2.162 . S
Mn216 O232 2.297 . S
Mn216 O240 2.385 . S
Mn216 O241 2.209 . S
Mn216 O242 2.094 . S
Mn217 O222 2.121 . S
Mn217 N224 2.257 . S
Mn217 N233 2.282 . S
Mn217 O241 2.215 . S
Mn217 O243 2.117 . S
C218 O240 1.234 . S
C218 O241 1.283 . S
C219 O231 1.281 . S
C219 O232 1.236 . S
C220 O242 1.240 . S
C220 O243 1.264 . S
O221 Mn216 2.095 . S
O221 C230 1.250 . S
O222 Mn217 2.121 . S
O222 C230 1.258 . S
C223 N224 1.326 . S
C223 C227 1.460 . S
C223 H229 0.929 . S
N224 Mn217 2.257 . S
N224 C223 1.326 . S
N224 C228 1.362 . S
C225 C226 1.258 . S
C225 C228 1.431 . S
C225 C245 1.449 . S
C226 C225 1.258 . S
C226 C227 1.477 . S
C226 H246 0.931 . S
C227 C223 1.460 . S
C227 C226 1.477 . S
C227 H247 0.930 . S
C228 N224 1.362 . S
C228 C225 1.431 . S
C228 C238 1.476 . S
H229 C223 0.929 . S
C230 O221 1.250 . S
C230 O222 1.258 . S
O231 Mn216 2.162 . S
O231 C219 1.281 . S
O232 Mn216 2.297 . S
O232 C219 1.236 . S
N233 Mn217 2.282 . S
N233 C234 1.328 . S
N233 C238 1.318 . S
C234 N233 1.328 . S
C234 C235 1.457 . S
C234 H239 0.929 . S
C235 C234 1.457 . S
C235 C236 1.291 . S
C235 H248 0.931 . S
C236 C235 1.291 . S
C236 C237 1.373 . S
C236 H249 0.929 . S
C237 C236 1.373 . S
C237 C238 1.396 . S
C237 C244 1.403 . S
C238 C228 1.476 . S
C238 N233 1.318 . S
C238 C237 1.396 . S
H239 C234 0.929 . S
O240 Mn216 2.385 . S
O240 C218 1.234 . S
O241 Mn216 2.209 . S
O241 Mn217 2.215 . S
O241 C218 1.283 . S
O242 Mn216 2.094 . S
O242 C220 1.240 . S
O243 Mn217 2.117 . S
O243 C220 1.264 . S
C244 C237 1.403 . S
C244 C245 1.399 . S
C244 H250 0.929 . S
C245 C225 1.449 . S
C245 C244 1.399 . S
C245 H251 0.930 . S
H246 C226 0.931 . S
H247 C227 0.930 . S
H248 C235 0.931 . S
H249 C236 0.929 . S
H250 C244 0.929 . S
H251 C245 0.930 . S
Mn252 O257 2.095 . S
Mn252 O267 2.162 . S
Mn252 O268 2.297 . S
Mn252 O276 2.385 . S
Mn252 O277 2.209 . S
Mn252 O278 2.094 . S
Mn253 O258 2.121 . S
Mn253 N260 2.257 . S
Mn253 N269 2.282 . S
Mn253 O277 2.215 . S
Mn253 O279 2.117 . S
C254 O276 1.234 . S
C254 O277 1.283 . S
C255 O267 1.281 . S
C255 O268 1.236 . S
C256 O278 1.240 . S
C256 O279 1.264 . S
O257 Mn252 2.095 . S
O257 C266 1.250 . S
O258 Mn253 2.121 . S
O258 C266 1.258 . S
C259 N260 1.326 . S
C259 C263 1.460 . S
C259 H265 0.929 . S
N260 Mn253 2.257 . S
N260 C259 1.326 . S
N260 C264 1.362 . S
C261 C262 1.258 . S
C261 C264 1.431 . S
C261 C281 1.449 . S
C262 C261 1.258 . S
C262 C263 1.477 . S
C262 H282 0.931 . S
C263 C259 1.460 . S
C263 C262 1.477 . S
C263 H283 0.930 . S
C264 N260 1.362 . S
C264 C261 1.431 . S
C264 C274 1.476 . S
H265 C259 0.929 . S
C266 O257 1.250 . S
C266 O258 1.258 . S
O267 Mn252 2.162 . S
O267 C255 1.281 . S
O268 Mn252 2.297 . S
O268 C255 1.236 . S
N269 Mn253 2.282 . S
N269 C270 1.328 . S
N269 C274 1.318 . S
C270 N269 1.328 . S
C270 C271 1.457 . S
C270 H275 0.929 . S
C271 C270 1.457 . S
C271 C272 1.291 . S
C271 H284 0.931 . S
C272 C271 1.291 . S
C272 C273 1.373 . S
C272 H285 0.929 . S
C273 C272 1.373 . S
C273 C274 1.396 . S
C273 C280 1.403 . S
C274 C264 1.476 . S
C274 N269 1.318 . S
C274 C273 1.396 . S
H275 C270 0.929 . S
O276 Mn252 2.385 . S
O276 C254 1.234 . S
O277 Mn252 2.209 . S
O277 Mn253 2.215 . S
O277 C254 1.283 . S
O278 Mn252 2.094 . S
O278 C256 1.240 . S
O279 Mn253 2.117 . S
O279 C256 1.264 . S
C280 C273 1.403 . S
C280 C281 1.399 . S
C280 H286 0.929 . S
C281 C261 1.449 . S
C281 C280 1.399 . S
C281 H287 0.930 . S
H282 C262 0.931 . S
H283 C263 0.930 . S
H284 C271 0.931 . S
H285 C272 0.929 . S
H286 C280 0.929 . S
H287 C281 0.930 . S
Mn288 O293 2.095 . S
Mn288 O303 2.162 . S
Mn288 O304 2.297 . S
Mn288 O312 2.385 . S
Mn288 O313 2.209 . S
Mn288 O314 2.094 . S
Mn289 O294 2.121 . S
Mn289 N296 2.257 . S
Mn289 N305 2.282 . S
Mn289 O313 2.215 . S
Mn289 O315 2.117 . S
C290 O312 1.234 . S
C290 O313 1.283 . S
C291 O303 1.281 . S
C291 O304 1.236 . S
C292 O314 1.240 . S
C292 O315 1.264 . S
O293 Mn288 2.095 . S
O293 C302 1.250 . S
O294 Mn289 2.121 . S
O294 C302 1.258 . S
C295 N296 1.326 . S
C295 C299 1.460 . S
C295 H301 0.929 . S
N296 Mn289 2.257 . S
N296 C295 1.326 . S
N296 C300 1.362 . S
C297 C298 1.258 . S
C297 C300 1.431 . S
C297 C317 1.449 . S
C298 C297 1.258 . S
C298 C299 1.477 . S
C298 H318 0.931 . S
C299 C295 1.460 . S
C299 C298 1.477 . S
C299 H319 0.930 . S
C300 N296 1.362 . S
C300 C297 1.431 . S
C300 C310 1.476 . S
H301 C295 0.929 . S
C302 O293 1.250 . S
C302 O294 1.258 . S
O303 Mn288 2.162 . S
O303 C291 1.281 . S
O304 Mn288 2.297 . S
O304 C291 1.236 . S
N305 Mn289 2.282 . S
N305 C306 1.328 . S
N305 C310 1.318 . S
C306 N305 1.328 . S
C306 C307 1.457 . S
C306 H311 0.929 . S
C307 C306 1.457 . S
C307 C308 1.291 . S
C307 H320 0.931 . S
C308 C307 1.291 . S
C308 C309 1.373 . S
C308 H321 0.929 . S
C309 C308 1.373 . S
C309 C310 1.396 . S
C309 C316 1.403 . S
C310 C300 1.476 . S
C310 N305 1.318 . S
C310 C309 1.396 . S
H311 C306 0.929 . S
O312 Mn288 2.385 . S
O312 C290 1.234 . S
O313 Mn288 2.209 . S
O313 Mn289 2.215 . S
O313 C290 1.283 . S
O314 Mn288 2.094 . S
O314 C292 1.240 . S
O315 Mn289 2.117 . S
O315 C292 1.264 . S
C316 C309 1.403 . S
C316 C317 1.399 . S
C316 H322 0.929 . S
C317 C297 1.449 . S
C317 C316 1.399 . S
C317 H323 0.930 . S
H318 C298 0.931 . S
H319 C299 0.930 . S
H320 C307 0.931 . S
H321 C308 0.929 . S
H322 C316 0.929 . S
H323 C317 0.930 . S
Mn324 O329 2.095 . S
Mn324 O339 2.162 . S
Mn324 O340 2.297 . S
Mn324 O348 2.385 . S
Mn324 O349 2.209 . S
Mn324 O350 2.094 . S
Mn325 O330 2.121 . S
Mn325 N332 2.257 . S
Mn325 N341 2.282 . S
Mn325 O349 2.215 . S
Mn325 O351 2.117 . S
C326 O348 1.234 . S
C326 O349 1.283 . S
C327 O339 1.281 . S
C327 O340 1.236 . S
C328 O350 1.240 . S
C328 O351 1.264 . S
O329 Mn324 2.095 . S
O329 C338 1.250 . S
O330 Mn325 2.121 . S
O330 C338 1.258 . S
C331 N332 1.326 . S
C331 C335 1.460 . S
C331 H337 0.929 . S
N332 Mn325 2.257 . S
N332 C331 1.326 . S
N332 C336 1.362 . S
C333 C334 1.258 . S
C333 C336 1.431 . S
C333 C353 1.449 . S
C334 C333 1.258 . S
C334 C335 1.477 . S
C334 H354 0.931 . S
C335 C331 1.460 . S
C335 C334 1.477 . S
C335 H355 0.930 . S
C336 N332 1.362 . S
C336 C333 1.431 . S
C336 C346 1.476 . S
H337 C331 0.929 . S
C338 O329 1.250 . S
C338 O330 1.258 . S
O339 Mn324 2.162 . S
O339 C327 1.281 . S
O340 Mn324 2.297 . S
O340 C327 1.236 . S
N341 Mn325 2.282 . S
N341 C342 1.328 . S
N341 C346 1.318 . S
C342 N341 1.328 . S
C342 C343 1.457 . S
C342 H347 0.929 . S
C343 C342 1.457 . S
C343 C344 1.291 . S
C343 H356 0.931 . S
C344 C343 1.291 . S
C344 C345 1.373 . S
C344 H357 0.929 . S
C345 C344 1.373 . S
C345 C346 1.396 . S
C345 C352 1.403 . S
C346 C336 1.476 . S
C346 N341 1.318 . S
C346 C345 1.396 . S
H347 C342 0.929 . S
O348 Mn324 2.385 . S
O348 C326 1.234 . S
O349 Mn324 2.209 . S
O349 Mn325 2.215 . S
O349 C326 1.283 . S
O350 Mn324 2.094 . S
O350 C328 1.240 . S
O351 Mn325 2.117 . S
O351 C328 1.264 . S
C352 C345 1.403 . S
C352 C353 1.399 . S
C352 H358 0.929 . S
C353 C333 1.449 . S
C353 C352 1.399 . S
C353 H359 0.930 . S
H354 C334 0.931 . S
H355 C335 0.930 . S
H356 C343 0.931 . S
H357 C344 0.929 . S
H358 C352 0.929 . S
H359 C353 0.930 . S
Mn360 O365 2.095 . S
Mn360 O375 2.162 . S
Mn360 O376 2.297 . S
Mn360 O384 2.385 . S
Mn360 O385 2.209 . S
Mn360 O386 2.094 . S
Mn361 O366 2.121 . S
Mn361 N368 2.257 . S
Mn361 N377 2.282 . S
Mn361 O385 2.215 . S
Mn361 O387 2.117 . S
C362 O384 1.234 . S
C362 O385 1.283 . S
C363 O375 1.281 . S
C363 O376 1.236 . S
C364 O386 1.240 . S
C364 O387 1.264 . S
O365 Mn360 2.095 . S
O365 C374 1.250 . S
O366 Mn361 2.121 . S
O366 C374 1.258 . S
C367 N368 1.326 . S
C367 C371 1.460 . S
C367 H373 0.929 . S
N368 Mn361 2.257 . S
N368 C367 1.326 . S
N368 C372 1.362 . S
C369 C370 1.258 . S
C369 C372 1.431 . S
C369 C389 1.449 . S
C370 C369 1.258 . S
C370 C371 1.477 . S
C370 H390 0.931 . S
C371 C367 1.460 . S
C371 C370 1.477 . S
C371 H391 0.930 . S
C372 N368 1.362 . S
C372 C369 1.431 . S
C372 C382 1.476 . S
H373 C367 0.929 . S
C374 O365 1.250 . S
C374 O366 1.258 . S
O375 Mn360 2.162 . S
O375 C363 1.281 . S
O376 Mn360 2.297 . S
O376 C363 1.236 . S
N377 Mn361 2.282 . S
N377 C378 1.328 . S
N377 C382 1.318 . S
C378 N377 1.328 . S
C378 C379 1.457 . S
C378 H383 0.929 . S
C379 C378 1.457 . S
C379 C380 1.291 . S
C379 H392 0.931 . S
C380 C379 1.291 . S
C380 C381 1.373 . S
C380 H393 0.929 . S
C381 C380 1.373 . S
C381 C382 1.396 . S
C381 C388 1.403 . S
C382 C372 1.476 . S
C382 N377 1.318 . S
C382 C381 1.396 . S
H383 C378 0.929 . S
O384 Mn360 2.385 . S
O384 C362 1.234 . S
O385 Mn360 2.209 . S
O385 Mn361 2.215 . S
O385 C362 1.283 . S
O386 Mn360 2.094 . S
O386 C364 1.240 . S
O387 Mn361 2.117 . S
O387 C364 1.264 . S
C388 C381 1.403 . S
C388 C389 1.399 . S
C388 H394 0.929 . S
C389 C369 1.449 . S
C389 C388 1.399 . S
C389 H395 0.930 . S
H390 C370 0.931 . S
H391 C371 0.930 . S
H392 C379 0.931 . S
H393 C380 0.929 . S
H394 C388 0.929 . S
H395 C389 0.930 . S
Mn396 O401 2.095 . S
Mn396 O411 2.162 . S
Mn396 O412 2.297 . S
Mn396 O420 2.385 . S
Mn396 O421 2.209 . S
Mn396 O422 2.094 . S
Mn397 O402 2.121 . S
Mn397 N404 2.257 . S
Mn397 N413 2.282 . S
Mn397 O421 2.215 . S
Mn397 O423 2.117 . S
C398 O420 1.234 . S
C398 O421 1.283 . S
C399 O411 1.281 . S
C399 O412 1.236 . S
C400 O422 1.240 . S
C400 O423 1.264 . S
O401 Mn396 2.095 . S
O401 C410 1.250 . S
O402 Mn397 2.121 . S
O402 C410 1.258 . S
C403 N404 1.326 . S
C403 C407 1.460 . S
C403 H409 0.929 . S
N404 Mn397 2.257 . S
N404 C403 1.326 . S
N404 C408 1.362 . S
C405 C406 1.258 . S
C405 C408 1.431 . S
C405 C425 1.449 . S
C406 C405 1.258 . S
C406 C407 1.477 . S
C406 H426 0.931 . S
C407 C403 1.460 . S
C407 C406 1.477 . S
C407 H427 0.930 . S
C408 N404 1.362 . S
C408 C405 1.431 . S
C408 C418 1.476 . S
H409 C403 0.929 . S
C410 O401 1.250 . S
C410 O402 1.258 . S
O411 Mn396 2.162 . S
O411 C399 1.281 . S
O412 Mn396 2.297 . S
O412 C399 1.236 . S
N413 Mn397 2.282 . S
N413 C414 1.328 . S
N413 C418 1.318 . S
C414 N413 1.328 . S
C414 C415 1.457 . S
C414 H419 0.929 . S
C415 C414 1.457 . S
C415 C416 1.291 . S
C415 H428 0.931 . S
C416 C415 1.291 . S
C416 C417 1.373 . S
C416 H429 0.929 . S
C417 C416 1.373 . S
C417 C418 1.396 . S
C417 C424 1.403 . S
C418 C408 1.476 . S
C418 N413 1.318 . S
C418 C417 1.396 . S
H419 C414 0.929 . S
O420 Mn396 2.385 . S
O420 C398 1.234 . S
O421 Mn396 2.209 . S
O421 Mn397 2.215 . S
O421 C398 1.283 . S
O422 Mn396 2.094 . S
O422 C400 1.240 . S
O423 Mn397 2.117 . S
O423 C400 1.264 . S
C424 C417 1.403 . S
C424 C425 1.399 . S
C424 H430 0.929 . S
C425 C405 1.449 . S
C425 C424 1.399 . S
C425 H431 0.930 . S
H426 C406 0.931 . S
H427 C407 0.930 . S
H428 C415 0.931 . S
H429 C416 0.929 . S
H430 C424 0.929 . S
H431 C425 0.930 . S
Mn432 O437 2.095 . S
Mn432 O447 2.162 . S
Mn432 O448 2.297 . S
Mn432 O456 2.385 . S
Mn432 O457 2.209 . S
Mn432 O458 2.094 . S
Mn433 O438 2.121 . S
Mn433 N440 2.257 . S
Mn433 N449 2.282 . S
Mn433 O457 2.215 . S
Mn433 O459 2.117 . S
C434 O456 1.234 . S
C434 O457 1.283 . S
C435 O447 1.281 . S
C435 O448 1.236 . S
C436 O458 1.240 . S
C436 O459 1.264 . S
O437 Mn432 2.095 . S
O437 C446 1.250 . S
O438 Mn433 2.121 . S
O438 C446 1.258 . S
C439 N440 1.326 . S
C439 C443 1.460 . S
C439 H445 0.929 . S
N440 Mn433 2.257 . S
N440 C439 1.326 . S
N440 C444 1.362 . S
C441 C442 1.258 . S
C441 C444 1.431 . S
C441 C461 1.449 . S
C442 C441 1.258 . S
C442 C443 1.477 . S
C442 H462 0.931 . S
C443 C439 1.460 . S
C443 C442 1.477 . S
C443 H463 0.930 . S
C444 N440 1.362 . S
C444 C441 1.431 . S
C444 C454 1.476 . S
H445 C439 0.929 . S
C446 O437 1.250 . S
C446 O438 1.258 . S
O447 Mn432 2.162 . S
O447 C435 1.281 . S
O448 Mn432 2.297 . S
O448 C435 1.236 . S
N449 Mn433 2.282 . S
N449 C450 1.328 . S
N449 C454 1.318 . S
C450 N449 1.328 . S
C450 C451 1.457 . S
C450 H455 0.929 . S
C451 C450 1.457 . S
C451 C452 1.291 . S
C451 H464 0.931 . S
C452 C451 1.291 . S
C452 C453 1.373 . S
C452 H465 0.929 . S
C453 C452 1.373 . S
C453 C454 1.396 . S
C453 C460 1.403 . S
C454 C444 1.476 . S
C454 N449 1.318 . S
C454 C453 1.396 . S
H455 C450 0.929 . S
O456 Mn432 2.385 . S
O456 C434 1.234 . S
O457 Mn432 2.209 . S
O457 Mn433 2.215 . S
O457 C434 1.283 . S
O458 Mn432 2.094 . S
O458 C436 1.240 . S
O459 Mn433 2.117 . S
O459 C436 1.264 . S
C460 C453 1.403 . S
C460 C461 1.399 . S
C460 H466 0.929 . S
C461 C441 1.449 . S
C461 C460 1.399 . S
C461 H467 0.930 . S
H462 C442 0.931 . S
H463 C443 0.930 . S
H464 C451 0.931 . S
H465 C452 0.929 . S
H466 C460 0.929 . S
H467 C461 0.930 . S
Mn468 O473 2.095 . S
Mn468 O483 2.162 . S
Mn468 O484 2.297 . S
Mn468 O492 2.385 . S
Mn468 O493 2.209 . S
Mn468 O494 2.094 . S
Mn469 O474 2.121 . S
Mn469 N476 2.257 . S
Mn469 N485 2.282 . S
Mn469 O493 2.215 . S
Mn469 O495 2.117 . S
C470 O492 1.234 . S
C470 O493 1.283 . S
C471 O483 1.281 . S
C471 O484 1.236 . S
C472 O494 1.240 . S
C472 O495 1.264 . S
O473 Mn468 2.095 . S
O473 C482 1.250 . S
O474 Mn469 2.121 . S
O474 C482 1.258 . S
C475 N476 1.326 . S
C475 C479 1.460 . S
C475 H481 0.929 . S
N476 Mn469 2.257 . S
N476 C475 1.326 . S
N476 C480 1.362 . S
C477 C478 1.258 . S
C477 C480 1.431 . S
C477 C497 1.449 . S
C478 C477 1.258 . S
C478 C479 1.477 . S
C478 H498 0.931 . S
C479 C475 1.460 . S
C479 C478 1.477 . S
C479 H499 0.930 . S
C480 N476 1.362 . S
C480 C477 1.431 . S
C480 C490 1.476 . S
H481 C475 0.929 . S
C482 O473 1.250 . S
C482 O474 1.258 . S
O483 Mn468 2.162 . S
O483 C471 1.281 . S
O484 Mn468 2.297 . S
O484 C471 1.236 . S
N485 Mn469 2.282 . S
N485 C486 1.328 . S
N485 C490 1.318 . S
C486 N485 1.328 . S
C486 C487 1.457 . S
C486 H491 0.929 . S
C487 C486 1.457 . S
C487 C488 1.291 . S
C487 H500 0.931 . S
C488 C487 1.291 . S
C488 C489 1.373 . S
C488 H501 0.929 . S
C489 C488 1.373 . S
C489 C490 1.396 . S
C489 C496 1.403 . S
C490 C480 1.476 . S
C490 N485 1.318 . S
C490 C489 1.396 . S
H491 C486 0.929 . S
O492 Mn468 2.385 . S
O492 C470 1.234 . S
O493 Mn468 2.209 . S
O493 Mn469 2.215 . S
O493 C470 1.283 . S
O494 Mn468 2.094 . S
O494 C472 1.240 . S
O495 Mn469 2.117 . S
O495 C472 1.264 . S
C496 C489 1.403 . S
C496 C497 1.399 . S
C496 H502 0.929 . S
C497 C477 1.449 . S
C497 C496 1.399 . S
C497 H503 0.930 . S
H498 C478 0.931 . S
H499 C479 0.930 . S
H500 C487 0.931 . S
H501 C488 0.929 . S
H502 C496 0.929 . S
H503 C497 0.930 . S
Mn504 O509 2.095 . S
Mn504 O519 2.162 . S
Mn504 O520 2.297 . S
Mn504 O528 2.385 . S
Mn504 O529 2.209 . S
Mn504 O530 2.094 . S
Mn505 O510 2.121 . S
Mn505 N512 2.257 . S
Mn505 N521 2.282 . S
Mn505 O529 2.215 . S
Mn505 O531 2.117 . S
C506 O528 1.234 . S
C506 O529 1.283 . S
C507 O519 1.281 . S
C507 O520 1.236 . S
C508 O530 1.240 . S
C508 O531 1.264 . S
O509 Mn504 2.095 . S
O509 C518 1.250 . S
O510 Mn505 2.121 . S
O510 C518 1.258 . S
C511 N512 1.326 . S
C511 C515 1.460 . S
C511 H517 0.929 . S
N512 Mn505 2.257 . S
N512 C511 1.326 . S
N512 C516 1.362 . S
C513 C514 1.258 . S
C513 C516 1.431 . S
C513 C533 1.449 . S
C514 C513 1.258 . S
C514 C515 1.477 . S
C514 H534 0.931 . S
C515 C511 1.460 . S
C515 C514 1.477 . S
C515 H535 0.930 . S
C516 N512 1.362 . S
C516 C513 1.431 . S
C516 C526 1.476 . S
H517 C511 0.929 . S
C518 O509 1.250 . S
C518 O510 1.258 . S
O519 Mn504 2.162 . S
O519 C507 1.281 . S
O520 Mn504 2.297 . S
O520 C507 1.236 . S
N521 Mn505 2.282 . S
N521 C522 1.328 . S
N521 C526 1.318 . S
C522 N521 1.328 . S
C522 C523 1.457 . S
C522 H527 0.929 . S
C523 C522 1.457 . S
C523 C524 1.291 . S
C523 H536 0.931 . S
C524 C523 1.291 . S
C524 C525 1.373 . S
C524 H537 0.929 . S
C525 C524 1.373 . S
C525 C526 1.396 . S
C525 C532 1.403 . S
C526 C516 1.476 . S
C526 N521 1.318 . S
C526 C525 1.396 . S
H527 C522 0.929 . S
O528 Mn504 2.385 . S
O528 C506 1.234 . S
O529 Mn504 2.209 . S
O529 Mn505 2.215 . S
O529 C506 1.283 . S
O530 Mn504 2.094 . S
O530 C508 1.240 . S
O531 Mn505 2.117 . S
O531 C508 1.264 . S
C532 C525 1.403 . S
C532 C533 1.399 . S
C532 H538 0.929 . S
C533 C513 1.449 . S
C533 C532 1.399 . S
C533 H539 0.930 . S
H534 C514 0.931 . S
H535 C515 0.930 . S
H536 C523 0.931 . S
H537 C524 0.929 . S
H538 C532 0.929 . S
H539 C533 0.930 . S
Mn540 O545 2.095 . S
Mn540 O555 2.162 . S
Mn540 O556 2.297 . S
Mn540 O564 2.385 . S
Mn540 O565 2.209 . S
Mn540 O566 2.094 . S
Mn541 O546 2.121 . S
Mn541 N548 2.257 . S
Mn541 N557 2.282 . S
Mn541 O565 2.215 . S
Mn541 O567 2.117 . S
C542 O564 1.234 . S
C542 O565 1.283 . S
C543 O555 1.281 . S
C543 O556 1.236 . S
C544 O566 1.240 . S
C544 O567 1.264 . S
O545 Mn540 2.095 . S
O545 C554 1.250 . S
O546 Mn541 2.121 . S
O546 C554 1.258 . S
C547 N548 1.326 . S
C547 C551 1.460 . S
C547 H553 0.929 . S
N548 Mn541 2.257 . S
N548 C547 1.326 . S
N548 C552 1.362 . S
C549 C550 1.258 . S
C549 C552 1.431 . S
C549 C569 1.449 . S
C550 C549 1.258 . S
C550 C551 1.477 . S
C550 H570 0.931 . S
C551 C547 1.460 . S
C551 C550 1.477 . S
C551 H571 0.930 . S
C552 N548 1.362 . S
C552 C549 1.431 . S
C552 C562 1.476 . S
H553 C547 0.929 . S
C554 O545 1.250 . S
C554 O546 1.258 . S
O555 Mn540 2.162 . S
O555 C543 1.281 . S
O556 Mn540 2.297 . S
O556 C543 1.236 . S
N557 Mn541 2.282 . S
N557 C558 1.328 . S
N557 C562 1.318 . S
C558 N557 1.328 . S
C558 C559 1.457 . S
C558 H563 0.929 . S
C559 C558 1.457 . S
C559 C560 1.291 . S
C559 H572 0.931 . S
C560 C559 1.291 . S
C560 C561 1.373 . S
C560 H573 0.929 . S
C561 C560 1.373 . S
C561 C562 1.396 . S
C561 C568 1.403 . S
C562 C552 1.476 . S
C562 N557 1.318 . S
C562 C561 1.396 . S
H563 C558 0.929 . S
O564 Mn540 2.385 . S
O564 C542 1.234 . S
O565 Mn540 2.209 . S
O565 Mn541 2.215 . S
O565 C542 1.283 . S
O566 Mn540 2.094 . S
O566 C544 1.240 . S
O567 Mn541 2.117 . S
O567 C544 1.264 . S
C568 C561 1.403 . S
C568 C569 1.399 . S
C568 H574 0.929 . S
C569 C549 1.449 . S
C569 C568 1.399 . S
C569 H575 0.930 . S
H570 C550 0.931 . S
H571 C551 0.930 . S
H572 C559 0.931 . S
H573 C560 0.929 . S
H574 C568 0.929 . S
H575 C569 0.930 . S
Mn576 O581 2.095 . S
Mn576 O591 2.162 . S
Mn576 O592 2.297 . S
Mn576 O600 2.385 . S
Mn576 O601 2.209 . S
Mn576 O602 2.094 . S
Mn577 O582 2.121 . S
Mn577 N584 2.257 . S
Mn577 N593 2.282 . S
Mn577 O601 2.215 . S
Mn577 O603 2.117 . S
C578 O600 1.234 . S
C578 O601 1.283 . S
C579 O591 1.281 . S
C579 O592 1.236 . S
C580 O602 1.240 . S
C580 O603 1.264 . S
O581 Mn576 2.095 . S
O581 C590 1.250 . S
O582 Mn577 2.121 . S
O582 C590 1.258 . S
C583 N584 1.326 . S
C583 C587 1.460 . S
C583 H589 0.929 . S
N584 Mn577 2.257 . S
N584 C583 1.326 . S
N584 C588 1.362 . S
C585 C586 1.258 . S
C585 C588 1.431 . S
C585 C605 1.449 . S
C586 C585 1.258 . S
C586 C587 1.477 . S
C586 H606 0.931 . S
C587 C583 1.460 . S
C587 C586 1.477 . S
C587 H607 0.930 . S
C588 N584 1.362 . S
C588 C585 1.431 . S
C588 C598 1.476 . S
H589 C583 0.929 . S
C590 O581 1.250 . S
C590 O582 1.258 . S
O591 Mn576 2.162 . S
O591 C579 1.281 . S
O592 Mn576 2.297 . S
O592 C579 1.236 . S
N593 Mn577 2.282 . S
N593 C594 1.328 . S
N593 C598 1.318 . S
C594 N593 1.328 . S
C594 C595 1.457 . S
C594 H599 0.929 . S
C595 C594 1.457 . S
C595 C596 1.291 . S
C595 H608 0.931 . S
C596 C595 1.291 . S
C596 C597 1.373 . S
C596 H609 0.929 . S
C597 C596 1.373 . S
C597 C598 1.396 . S
C597 C604 1.403 . S
C598 C588 1.476 . S
C598 N593 1.318 . S
C598 C597 1.396 . S
H599 C594 0.929 . S
O600 Mn576 2.385 . S
O600 C578 1.234 . S
O601 Mn576 2.209 . S
O601 Mn577 2.215 . S
O601 C578 1.283 . S
O602 Mn576 2.094 . S
O602 C580 1.240 . S
O603 Mn577 2.117 . S
O603 C580 1.264 . S
C604 C597 1.403 . S
C604 C605 1.399 . S
C604 H610 0.929 . S
C605 C585 1.449 . S
C605 C604 1.399 . S
C605 H611 0.930 . S
H606 C586 0.931 . S
H607 C587 0.930 . S
H608 C595 0.931 . S
H609 C596 0.929 . S
H610 C604 0.929 . S
H611 C605 0.930 . S
Mn612 O617 2.095 . S
Mn612 O627 2.162 . S
Mn612 O628 2.297 . S
Mn612 O636 2.385 . S
Mn612 O637 2.209 . S
Mn612 O638 2.094 . S
Mn613 O618 2.121 . S
Mn613 N620 2.257 . S
Mn613 N629 2.282 . S
Mn613 O637 2.215 . S
Mn613 O639 2.117 . S
C614 O636 1.234 . S
C614 O637 1.283 . S
C615 O627 1.281 . S
C615 O628 1.236 . S
C616 O638 1.240 . S
C616 O639 1.264 . S
O617 Mn612 2.095 . S
O617 C626 1.250 . S
O618 Mn613 2.121 . S
O618 C626 1.258 . S
C619 N620 1.326 . S
C619 C623 1.460 . S
C619 H625 0.929 . S
N620 Mn613 2.257 . S
N620 C619 1.326 . S
N620 C624 1.362 . S
C621 C622 1.258 . S
C621 C624 1.431 . S
C621 C641 1.449 . S
C622 C621 1.258 . S
C622 C623 1.477 . S
C622 H642 0.931 . S
C623 C619 1.460 . S
C623 C622 1.477 . S
C623 H643 0.930 . S
C624 N620 1.362 . S
C624 C621 1.431 . S
C624 C634 1.476 . S
H625 C619 0.929 . S
C626 O617 1.250 . S
C626 O618 1.258 . S
O627 Mn612 2.162 . S
O627 C615 1.281 . S
O628 Mn612 2.297 . S
O628 C615 1.236 . S
N629 Mn613 2.282 . S
N629 C630 1.328 . S
N629 C634 1.318 . S
C630 N629 1.328 . S
C630 C631 1.457 . S
C630 H635 0.929 . S
C631 C630 1.457 . S
C631 C632 1.291 . S
C631 H644 0.931 . S
C632 C631 1.291 . S
C632 C633 1.373 . S
C632 H645 0.929 . S
C633 C632 1.373 . S
C633 C634 1.396 . S
C633 C640 1.403 . S
C634 C624 1.476 . S
C634 N629 1.318 . S
C634 C633 1.396 . S
H635 C630 0.929 . S
O636 Mn612 2.385 . S
O636 C614 1.234 . S
O637 Mn612 2.209 . S
O637 Mn613 2.215 . S
O637 C614 1.283 . S
O638 Mn612 2.094 . S
O638 C616 1.240 . S
O639 Mn613 2.117 . S
O639 C616 1.264 . S
C640 C633 1.403 . S
C640 C641 1.399 . S
C640 H646 0.929 . S
C641 C621 1.449 . S
C641 C640 1.399 . S
C641 H647 0.930 . S
H642 C622 0.931 . S
H643 C623 0.930 . S
H644 C631 0.931 . S
H645 C632 0.929 . S
H646 C640 0.929 . S
H647 C641 0.930 . S
Mn648 O653 2.095 . S
Mn648 O663 2.162 . S
Mn648 O664 2.297 . S
Mn648 O672 2.385 . S
Mn648 O673 2.209 . S
Mn648 O674 2.094 . S
Mn649 O654 2.121 . S
Mn649 N656 2.257 . S
Mn649 N665 2.282 . S
Mn649 O673 2.215 . S
Mn649 O675 2.117 . S
C650 O672 1.234 . S
C650 O673 1.283 . S
C651 O663 1.281 . S
C651 O664 1.236 . S
C652 O674 1.240 . S
C652 O675 1.264 . S
O653 Mn648 2.095 . S
O653 C662 1.250 . S
O654 Mn649 2.121 . S
O654 C662 1.258 . S
C655 N656 1.326 . S
C655 C659 1.460 . S
C655 H661 0.929 . S
N656 Mn649 2.257 . S
N656 C655 1.326 . S
N656 C660 1.362 . S
C657 C658 1.258 . S
C657 C660 1.431 . S
C657 C677 1.449 . S
C658 C657 1.258 . S
C658 C659 1.477 . S
C658 H678 0.931 . S
C659 C655 1.460 . S
C659 C658 1.477 . S
C659 H679 0.930 . S
C660 N656 1.362 . S
C660 C657 1.431 . S
C660 C670 1.476 . S
H661 C655 0.929 . S
C662 O653 1.250 . S
C662 O654 1.258 . S
O663 Mn648 2.162 . S
O663 C651 1.281 . S
O664 Mn648 2.297 . S
O664 C651 1.236 . S
N665 Mn649 2.282 . S
N665 C666 1.328 . S
N665 C670 1.318 . S
C666 N665 1.328 . S
C666 C667 1.457 . S
C666 H671 0.929 . S
C667 C666 1.457 . S
C667 C668 1.291 . S
C667 H680 0.931 . S
C668 C667 1.291 . S
C668 C669 1.373 . S
C668 H681 0.929 . S
C669 C668 1.373 . S
C669 C670 1.396 . S
C669 C676 1.403 . S
C670 C660 1.476 . S
C670 N665 1.318 . S
C670 C669 1.396 . S
H671 C666 0.929 . S
O672 Mn648 2.385 . S
O672 C650 1.234 . S
O673 Mn648 2.209 . S
O673 Mn649 2.215 . S
O673 C650 1.283 . S
O674 Mn648 2.094 . S
O674 C652 1.240 . S
O675 Mn649 2.117 . S
O675 C652 1.264 . S
C676 C669 1.403 . S
C676 C677 1.399 . S
C676 H682 0.929 . S
C677 C657 1.449 . S
C677 C676 1.399 . S
C677 H683 0.930 . S
H678 C658 0.931 . S
H679 C659 0.930 . S
H680 C667 0.931 . S
H681 C668 0.929 . S
H682 C676 0.929 . S
H683 C677 0.930 . S
Mn684 O689 2.095 . S
Mn684 O699 2.162 . S
Mn684 O700 2.297 . S
Mn684 O708 2.385 . S
Mn684 O709 2.209 . S
Mn684 O710 2.094 . S
Mn685 O690 2.121 . S
Mn685 N692 2.257 . S
Mn685 N701 2.282 . S
Mn685 O709 2.215 . S
Mn685 O711 2.117 . S
C686 O708 1.234 . S
C686 O709 1.283 . S
C687 O699 1.281 . S
C687 O700 1.236 . S
C688 O710 1.240 . S
C688 O711 1.264 . S
O689 Mn684 2.095 . S
O689 C698 1.250 . S
O690 Mn685 2.121 . S
O690 C698 1.258 . S
C691 N692 1.326 . S
C691 C695 1.460 . S
C691 H697 0.929 . S
N692 Mn685 2.257 . S
N692 C691 1.326 . S
N692 C696 1.362 . S
C693 C694 1.258 . S
C693 C696 1.431 . S
C693 C713 1.449 . S
C694 C693 1.258 . S
C694 C695 1.477 . S
C694 H714 0.931 . S
C695 C691 1.460 . S
C695 C694 1.477 . S
C695 H715 0.930 . S
C696 N692 1.362 . S
C696 C693 1.431 . S
C696 C706 1.476 . S
H697 C691 0.929 . S
C698 O689 1.250 . S
C698 O690 1.258 . S
O699 Mn684 2.162 . S
O699 C687 1.281 . S
O700 Mn684 2.297 . S
O700 C687 1.236 . S
N701 Mn685 2.282 . S
N701 C702 1.328 . S
N701 C706 1.318 . S
C702 N701 1.328 . S
C702 C703 1.457 . S
C702 H707 0.929 . S
C703 C702 1.457 . S
C703 C704 1.291 . S
C703 H716 0.931 . S
C704 C703 1.291 . S
C704 C705 1.373 . S
C704 H717 0.929 . S
C705 C704 1.373 . S
C705 C706 1.396 . S
C705 C712 1.403 . S
C706 C696 1.476 . S
C706 N701 1.318 . S
C706 C705 1.396 . S
H707 C702 0.929 . S
O708 Mn684 2.385 . S
O708 C686 1.234 . S
O709 Mn684 2.209 . S
O709 Mn685 2.215 . S
O709 C686 1.283 . S
O710 Mn684 2.094 . S
O710 C688 1.240 . S
O711 Mn685 2.117 . S
O711 C688 1.264 . S
C712 C705 1.403 . S
C712 C713 1.399 . S
C712 H718 0.929 . S
C713 C693 1.449 . S
C713 C712 1.399 . S
C713 H719 0.930 . S
H714 C694 0.931 . S
H715 C695 0.930 . S
H716 C703 0.931 . S
H717 C704 0.929 . S
H718 C712 0.929 . S
H719 C713 0.930 . S
Mn720 O725 2.095 . S
Mn720 O735 2.162 . S
Mn720 O736 2.297 . S
Mn720 O744 2.385 . S
Mn720 O745 2.209 . S
Mn720 O746 2.094 . S
Mn721 O726 2.121 . S
Mn721 N728 2.257 . S
Mn721 N737 2.282 . S
Mn721 O745 2.215 . S
Mn721 O747 2.117 . S
C722 O744 1.234 . S
C722 O745 1.283 . S
C723 O735 1.281 . S
C723 O736 1.236 . S
C724 O746 1.240 . S
C724 O747 1.264 . S
O725 Mn720 2.095 . S
O725 C734 1.250 . S
O726 Mn721 2.121 . S
O726 C734 1.258 . S
C727 N728 1.326 . S
C727 C731 1.460 . S
C727 H733 0.929 . S
N728 Mn721 2.257 . S
N728 C727 1.326 . S
N728 C732 1.362 . S
C729 C730 1.258 . S
C729 C732 1.431 . S
C729 C749 1.449 . S
C730 C729 1.258 . S
C730 C731 1.477 . S
C730 H750 0.931 . S
C731 C727 1.460 . S
C731 C730 1.477 . S
C731 H751 0.930 . S
C732 N728 1.362 . S
C732 C729 1.431 . S
C732 C742 1.476 . S
H733 C727 0.929 . S
C734 O725 1.250 . S
C734 O726 1.258 . S
O735 Mn720 2.162 . S
O735 C723 1.281 . S
O736 Mn720 2.297 . S
O736 C723 1.236 . S
N737 Mn721 2.282 . S
N737 C738 1.328 . S
N737 C742 1.318 . S
C738 N737 1.328 . S
C738 C739 1.457 . S
C738 H743 0.929 . S
C739 C738 1.457 . S
C739 C740 1.291 . S
C739 H752 0.931 . S
C740 C739 1.291 . S
C740 C741 1.373 . S
C740 H753 0.929 . S
C741 C740 1.373 . S
C741 C742 1.396 . S
C741 C748 1.403 . S
C742 C732 1.476 . S
C742 N737 1.318 . S
C742 C741 1.396 . S
H743 C738 0.929 . S
O744 Mn720 2.385 . S
O744 C722 1.234 . S
O745 Mn720 2.209 . S
O745 Mn721 2.215 . S
O745 C722 1.283 . S
O746 Mn720 2.094 . S
O746 C724 1.240 . S
O747 Mn721 2.117 . S
O747 C724 1.264 . S
C748 C741 1.403 . S
C748 C749 1.399 . S
C748 H754 0.929 . S
C749 C729 1.449 . S
C749 C748 1.399 . S
C749 H755 0.930 . S
H750 C730 0.931 . S
H751 C731 0.930 . S
H752 C739 0.931 . S
H753 C740 0.929 . S
H754 C748 0.929 . S
H755 C749 0.930 . S
Mn756 O761 2.095 . S
Mn756 O771 2.162 . S
Mn756 O772 2.297 . S
Mn756 O780 2.385 . S
Mn756 O781 2.209 . S
Mn756 O782 2.094 . S
Mn757 O762 2.121 . S
Mn757 N764 2.257 . S
Mn757 N773 2.282 . S
Mn757 O781 2.215 . S
Mn757 O783 2.117 . S
C758 O780 1.234 . S
C758 O781 1.283 . S
C759 O771 1.281 . S
C759 O772 1.236 . S
C760 O782 1.240 . S
C760 O783 1.264 . S
O761 Mn756 2.095 . S
O761 C770 1.250 . S
O762 Mn757 2.121 . S
O762 C770 1.258 . S
C763 N764 1.326 . S
C763 C767 1.460 . S
C763 H769 0.929 . S
N764 Mn757 2.257 . S
N764 C763 1.326 . S
N764 C768 1.362 . S
C765 C766 1.258 . S
C765 C768 1.431 . S
C765 C785 1.449 . S
C766 C765 1.258 . S
C766 C767 1.477 . S
C766 H786 0.931 . S
C767 C763 1.460 . S
C767 C766 1.477 . S
C767 H787 0.930 . S
C768 N764 1.362 . S
C768 C765 1.431 . S
C768 C778 1.476 . S
H769 C763 0.929 . S
C770 O761 1.250 . S
C770 O762 1.258 . S
O771 Mn756 2.162 . S
O771 C759 1.281 . S
O772 Mn756 2.297 . S
O772 C759 1.236 . S
N773 Mn757 2.282 . S
N773 C774 1.328 . S
N773 C778 1.318 . S
C774 N773 1.328 . S
C774 C775 1.457 . S
C774 H779 0.929 . S
C775 C774 1.457 . S
C775 C776 1.291 . S
C775 H788 0.931 . S
C776 C775 1.291 . S
C776 C777 1.373 . S
C776 H789 0.929 . S
C777 C776 1.373 . S
C777 C778 1.396 . S
C777 C784 1.403 . S
C778 C768 1.476 . S
C778 N773 1.318 . S
C778 C777 1.396 . S
H779 C774 0.929 . S
O780 Mn756 2.385 . S
O780 C758 1.234 . S
O781 Mn756 2.209 . S
O781 Mn757 2.215 . S
O781 C758 1.283 . S
O782 Mn756 2.094 . S
O782 C760 1.240 . S
O783 Mn757 2.117 . S
O783 C760 1.264 . S
C784 C777 1.403 . S
C784 C785 1.399 . S
C784 H790 0.929 . S
C785 C765 1.449 . S
C785 C784 1.399 . S
C785 H791 0.930 . S
H786 C766 0.931 . S
H787 C767 0.930 . S
H788 C775 0.931 . S
H789 C776 0.929 . S
H790 C784 0.929 . S
H791 C785 0.930 . S
Mn792 O797 2.095 . S
Mn792 O807 2.162 . S
Mn792 O808 2.297 . S
Mn792 O816 2.385 . S
Mn792 O817 2.209 . S
Mn792 O818 2.094 . S
Mn793 O798 2.121 . S
Mn793 N800 2.257 . S
Mn793 N809 2.282 . S
Mn793 O817 2.215 . S
Mn793 O819 2.117 . S
C794 O816 1.234 . S
C794 O817 1.283 . S
C795 O807 1.281 . S
C795 O808 1.236 . S
C796 O818 1.240 . S
C796 O819 1.264 . S
O797 Mn792 2.095 . S
O797 C806 1.250 . S
O798 Mn793 2.121 . S
O798 C806 1.258 . S
C799 N800 1.326 . S
C799 C803 1.460 . S
C799 H805 0.929 . S
N800 Mn793 2.257 . S
N800 C799 1.326 . S
N800 C804 1.362 . S
C801 C802 1.258 . S
C801 C804 1.431 . S
C801 C821 1.449 . S
C802 C801 1.258 . S
C802 C803 1.477 . S
C802 H822 0.931 . S
C803 C799 1.460 . S
C803 C802 1.477 . S
C803 H823 0.930 . S
C804 N800 1.362 . S
C804 C801 1.431 . S
C804 C814 1.476 . S
H805 C799 0.929 . S
C806 O797 1.250 . S
C806 O798 1.258 . S
O807 Mn792 2.162 . S
O807 C795 1.281 . S
O808 Mn792 2.297 . S
O808 C795 1.236 . S
N809 Mn793 2.282 . S
N809 C810 1.328 . S
N809 C814 1.318 . S
C810 N809 1.328 . S
C810 C811 1.457 . S
C810 H815 0.929 . S
C811 C810 1.457 . S
C811 C812 1.291 . S
C811 H824 0.931 . S
C812 C811 1.291 . S
C812 C813 1.373 . S
C812 H825 0.929 . S
C813 C812 1.373 . S
C813 C814 1.396 . S
C813 C820 1.403 . S
C814 C804 1.476 . S
C814 N809 1.318 . S
C814 C813 1.396 . S
H815 C810 0.929 . S
O816 Mn792 2.385 . S
O816 C794 1.234 . S
O817 Mn792 2.209 . S
O817 Mn793 2.215 . S
O817 C794 1.283 . S
O818 Mn792 2.094 . S
O818 C796 1.240 . S
O819 Mn793 2.117 . S
O819 C796 1.264 . S
C820 C813 1.403 . S
C820 C821 1.399 . S
C820 H826 0.929 . S
C821 C801 1.449 . S
C821 C820 1.399 . S
C821 H827 0.930 . S
H822 C802 0.931 . S
H823 C803 0.930 . S
H824 C811 0.931 . S
H825 C812 0.929 . S
H826 C820 0.929 . S
H827 C821 0.930 . S
Mn828 O833 2.095 . S
Mn828 O843 2.162 . S
Mn828 O844 2.297 . S
Mn828 O852 2.385 . S
Mn828 O853 2.209 . S
Mn828 O854 2.094 . S
Mn829 O834 2.121 . S
Mn829 N836 2.257 . S
Mn829 N845 2.282 . S
Mn829 O853 2.215 . S
Mn829 O855 2.117 . S
C830 O852 1.234 . S
C830 O853 1.283 . S
C831 O843 1.281 . S
C831 O844 1.236 . S
C832 O854 1.240 . S
C832 O855 1.264 . S
O833 Mn828 2.095 . S
O833 C842 1.250 . S
O834 Mn829 2.121 . S
O834 C842 1.258 . S
C835 N836 1.326 . S
C835 C839 1.460 . S
C835 H841 0.929 . S
N836 Mn829 2.257 . S
N836 C835 1.326 . S
N836 C840 1.362 . S
C837 C838 1.258 . S
C837 C840 1.431 . S
C837 C857 1.449 . S
C838 C837 1.258 . S
C838 C839 1.477 . S
C838 H858 0.931 . S
C839 C835 1.460 . S
C839 C838 1.477 . S
C839 H859 0.930 . S
C840 N836 1.362 . S
C840 C837 1.431 . S
C840 C850 1.476 . S
H841 C835 0.929 . S
C842 O833 1.250 . S
C842 O834 1.258 . S
O843 Mn828 2.162 . S
O843 C831 1.281 . S
O844 Mn828 2.297 . S
O844 C831 1.236 . S
N845 Mn829 2.282 . S
N845 C846 1.328 . S
N845 C850 1.318 . S
C846 N845 1.328 . S
C846 C847 1.457 . S
C846 H851 0.929 . S
C847 C846 1.457 . S
C847 C848 1.291 . S
C847 H860 0.931 . S
C848 C847 1.291 . S
C848 C849 1.373 . S
C848 H861 0.929 . S
C849 C848 1.373 . S
C849 C850 1.396 . S
C849 C856 1.403 . S
C850 C840 1.476 . S
C850 N845 1.318 . S
C850 C849 1.396 . S
H851 C846 0.929 . S
O852 Mn828 2.385 . S
O852 C830 1.234 . S
O853 Mn828 2.209 . S
O853 Mn829 2.215 . S
O853 C830 1.283 . S
O854 Mn828 2.094 . S
O854 C832 1.240 . S
O855 Mn829 2.117 . S
O855 C832 1.264 . S
C856 C849 1.403 . S
C856 C857 1.399 . S
C856 H862 0.929 . S
C857 C837 1.449 . S
C857 C856 1.399 . S
C857 H863 0.930 . S
H858 C838 0.931 . S
H859 C839 0.930 . S
H860 C847 0.931 . S
H861 C848 0.929 . S
H862 C856 0.929 . S
H863 C857 0.930 . S
Mn864 O869 2.095 . S
Mn864 O879 2.162 . S
Mn864 O880 2.297 . S
Mn864 O888 2.385 . S
Mn864 O889 2.209 . S
Mn864 O890 2.094 . S
Mn865 O870 2.121 . S
Mn865 N872 2.257 . S
Mn865 N881 2.282 . S
Mn865 O889 2.215 . S
Mn865 O891 2.117 . S
C866 O888 1.234 . S
C866 O889 1.283 . S
C867 O879 1.281 . S
C867 O880 1.236 . S
C868 O890 1.240 . S
C868 O891 1.264 . S
O869 Mn864 2.095 . S
O869 C878 1.250 . S
O870 Mn865 2.121 . S
O870 C878 1.258 . S
C871 N872 1.326 . S
C871 C875 1.460 . S
C871 H877 0.929 . S
N872 Mn865 2.257 . S
N872 C871 1.326 . S
N872 C876 1.362 . S
C873 C874 1.258 . S
C873 C876 1.431 . S
C873 C893 1.449 . S
C874 C873 1.258 . S
C874 C875 1.477 . S
C874 H894 0.931 . S
C875 C871 1.460 . S
C875 C874 1.477 . S
C875 H895 0.930 . S
C876 N872 1.362 . S
C876 C873 1.431 . S
C876 C886 1.476 . S
H877 C871 0.929 . S
C878 O869 1.250 . S
C878 O870 1.258 . S
O879 Mn864 2.162 . S
O879 C867 1.281 . S
O880 Mn864 2.297 . S
O880 C867 1.236 . S
N881 Mn865 2.282 . S
N881 C882 1.328 . S
N881 C886 1.318 . S
C882 N881 1.328 . S
C882 C883 1.457 . S
C882 H887 0.929 . S
C883 C882 1.457 . S
C883 C884 1.291 . S
C883 H896 0.931 . S
C884 C883 1.291 . S
C884 C885 1.373 . S
C884 H897 0.929 . S
C885 C884 1.373 . S
C885 C886 1.396 . S
C885 C892 1.403 . S
C886 C876 1.476 . S
C886 N881 1.318 . S
C886 C885 1.396 . S
H887 C882 0.929 . S
O888 Mn864 2.385 . S
O888 C866 1.234 . S
O889 Mn864 2.209 . S
O889 Mn865 2.215 . S
O889 C866 1.283 . S
O890 Mn864 2.094 . S
O890 C868 1.240 . S
O891 Mn865 2.117 . S
O891 C868 1.264 . S
C892 C885 1.403 . S
C892 C893 1.399 . S
C892 H898 0.929 . S
C893 C873 1.449 . S
C893 C892 1.399 . S
C893 H899 0.930 . S
H894 C874 0.931 . S
H895 C875 0.930 . S
H896 C883 0.931 . S
H897 C884 0.929 . S
H898 C892 0.929 . S
H899 C893 0.930 . S
Mn900 O905 2.095 . S
Mn900 O915 2.162 . S
Mn900 O916 2.297 . S
Mn900 O924 2.385 . S
Mn900 O925 2.209 . S
Mn900 O926 2.094 . S
Mn901 O906 2.121 . S
Mn901 N908 2.257 . S
Mn901 N917 2.282 . S
Mn901 O925 2.215 . S
Mn901 O927 2.117 . S
C902 O924 1.234 . S
C902 O925 1.283 . S
C903 O915 1.281 . S
C903 O916 1.236 . S
C904 O926 1.240 . S
C904 O927 1.264 . S
O905 Mn900 2.095 . S
O905 C914 1.250 . S
O906 Mn901 2.121 . S
O906 C914 1.258 . S
C907 N908 1.326 . S
C907 C911 1.460 . S
C907 H913 0.929 . S
N908 Mn901 2.257 . S
N908 C907 1.326 . S
N908 C912 1.362 . S
C909 C910 1.258 . S
C909 C912 1.431 . S
C909 C929 1.449 . S
C910 C909 1.258 . S
C910 C911 1.477 . S
C910 H930 0.931 . S
C911 C907 1.460 . S
C911 C910 1.477 . S
C911 H931 0.930 . S
C912 N908 1.362 . S
C912 C909 1.431 . S
C912 C922 1.476 . S
H913 C907 0.929 . S
C914 O905 1.250 . S
C914 O906 1.258 . S
O915 Mn900 2.162 . S
O915 C903 1.281 . S
O916 Mn900 2.297 . S
O916 C903 1.236 . S
N917 Mn901 2.282 . S
N917 C918 1.328 . S
N917 C922 1.318 . S
C918 N917 1.328 . S
C918 C919 1.457 . S
C918 H923 0.929 . S
C919 C918 1.457 . S
C919 C920 1.291 . S
C919 H932 0.931 . S
C920 C919 1.291 . S
C920 C921 1.373 . S
C920 H933 0.929 . S
C921 C920 1.373 . S
C921 C922 1.396 . S
C921 C928 1.403 . S
C922 C912 1.476 . S
C922 N917 1.318 . S
C922 C921 1.396 . S
H923 C918 0.929 . S
O924 Mn900 2.385 . S
O924 C902 1.234 . S
O925 Mn900 2.209 . S
O925 Mn901 2.215 . S
O925 C902 1.283 . S
O926 Mn900 2.094 . S
O926 C904 1.240 . S
O927 Mn901 2.117 . S
O927 C904 1.264 . S
C928 C921 1.403 . S
C928 C929 1.399 . S
C928 H934 0.929 . S
C929 C909 1.449 . S
C929 C928 1.399 . S
C929 H935 0.930 . S
H930 C910 0.931 . S
H931 C911 0.930 . S
H932 C919 0.931 . S
H933 C920 0.929 . S
H934 C928 0.929 . S
H935 C929 0.930 . S
Mn936 O941 2.095 . S
Mn936 O951 2.162 . S
Mn936 O952 2.297 . S
Mn936 O960 2.385 . S
Mn936 O961 2.209 . S
Mn936 O962 2.094 . S
Mn937 O942 2.121 . S
Mn937 N944 2.257 . S
Mn937 N953 2.282 . S
Mn937 O961 2.215 . S
Mn937 O963 2.117 . S
C938 O960 1.234 . S
C938 O961 1.283 . S
C939 O951 1.281 . S
C939 O952 1.236 . S
C940 O962 1.240 . S
C940 O963 1.264 . S
O941 Mn936 2.095 . S
O941 C950 1.250 . S
O942 Mn937 2.121 . S
O942 C950 1.258 . S
C943 N944 1.326 . S
C943 C947 1.460 . S
C943 H949 0.929 . S
N944 Mn937 2.257 . S
N944 C943 1.326 . S
N944 C948 1.362 . S
C945 C946 1.258 . S
C945 C948 1.431 . S
C945 C965 1.449 . S
C946 C945 1.258 . S
C946 C947 1.477 . S
C946 H966 0.931 . S
C947 C943 1.460 . S
C947 C946 1.477 . S
C947 H967 0.930 . S
C948 N944 1.362 . S
C948 C945 1.431 . S
C948 C958 1.476 . S
H949 C943 0.929 . S
C950 O941 1.250 . S
C950 O942 1.258 . S
O951 Mn936 2.162 . S
O951 C939 1.281 . S
O952 Mn936 2.297 . S
O952 C939 1.236 . S
N953 Mn937 2.282 . S
N953 C954 1.328 . S
N953 C958 1.318 . S
C954 N953 1.328 . S
C954 C955 1.457 . S
C954 H959 0.929 . S
C955 C954 1.457 . S
C955 C956 1.291 . S
C955 H968 0.931 . S
C956 C955 1.291 . S
C956 C957 1.373 . S
C956 H969 0.929 . S
C957 C956 1.373 . S
C957 C958 1.396 . S
C957 C964 1.403 . S
C958 C948 1.476 . S
C958 N953 1.318 . S
C958 C957 1.396 . S
H959 C954 0.929 . S
O960 Mn936 2.385 . S
O960 C938 1.234 . S
O961 Mn936 2.209 . S
O961 Mn937 2.215 . S
O961 C938 1.283 . S
O962 Mn936 2.094 . S
O962 C940 1.240 . S
O963 Mn937 2.117 . S
O963 C940 1.264 . S
C964 C957 1.403 . S
C964 C965 1.399 . S
C964 H970 0.929 . S
C965 C945 1.449 . S
C965 C964 1.399 . S
C965 H971 0.930 . S
H966 C946 0.931 . S
H967 C947 0.930 . S
H968 C955 0.931 . S
H969 C956 0.929 . S
H970 C964 0.929 . S
H971 C965 0.930 . S
Mn972 O977 2.095 . S
Mn972 O987 2.162 . S
Mn972 O988 2.297 . S
Mn972 O996 2.385 . S
Mn972 O997 2.209 . S
Mn972 O998 2.094 . S
Mn973 O978 2.121 . S
Mn973 N980 2.257 . S
Mn973 N989 2.282 . S
Mn973 O997 2.215 . S
Mn973 O999 2.117 . S
C974 O996 1.234 . S
C974 O997 1.283 . S
C975 O987 1.281 . S
C975 O988 1.236 . S
C976 O998 1.240 . S
C976 O999 1.264 . S
O977 Mn972 2.095 . S
O977 C986 1.250 . S
O978 Mn973 2.121 . S
O978 C986 1.258 . S
C979 N980 1.326 . S
C979 C983 1.460 . S
C979 H985 0.929 . S
N980 Mn973 2.257 . S
N980 C979 1.326 . S
N980 C984 1.362 . S
C981 C982 1.258 . S
C981 C984 1.431 . S
C981 C1001 1.449 . S
C982 C981 1.258 . S
C982 C983 1.477 . S
C982 H1002 0.931 . S
C983 C979 1.460 . S
C983 C982 1.477 . S
C983 H1003 0.930 . S
C984 N980 1.362 . S
C984 C981 1.431 . S
C984 C994 1.476 . S
H985 C979 0.929 . S
C986 O977 1.250 . S
C986 O978 1.258 . S
O987 Mn972 2.162 . S
O987 C975 1.281 . S
O988 Mn972 2.297 . S
O988 C975 1.236 . S
N989 Mn973 2.282 . S
N989 C990 1.328 . S
N989 C994 1.318 . S
C990 N989 1.328 . S
C990 C991 1.457 . S
C990 H995 0.929 . S
C991 C990 1.457 . S
C991 C992 1.291 . S
C991 H1004 0.931 . S
C992 C991 1.291 . S
C992 C993 1.373 . S
C992 H1005 0.929 . S
C993 C992 1.373 . S
C993 C994 1.396 . S
C993 C1000 1.403 . S
C994 C984 1.476 . S
C994 N989 1.318 . S
C994 C993 1.396 . S
H995 C990 0.929 . S
O996 Mn972 2.385 . S
O996 C974 1.234 . S
O997 Mn972 2.209 . S
O997 Mn973 2.215 . S
O997 C974 1.283 . S
O998 Mn972 2.094 . S
O998 C976 1.240 . S
O999 Mn973 2.117 . S
O999 C976 1.264 . S
C1000 C993 1.403 . S
C1000 C1001 1.399 . S
C1000 H1006 0.929 . S
C1001 C981 1.449 . S
C1001 C1000 1.399 . S
C1001 H1007 0.930 . S
H1002 C982 0.931 . S
H1003 C983 0.930 . S
H1004 C991 0.931 . S
H1005 C992 0.929 . S
H1006 C1000 0.929 . S
H1007 C1001 0.930 . S
Mn1008 O1013 2.095 . S
Mn1008 O1023 2.162 . S
Mn1008 O1024 2.297 . S
Mn1008 O1032 2.385 . S
Mn1008 O1033 2.209 . S
Mn1008 O1034 2.094 . S
Mn1009 O1014 2.121 . S
Mn1009 N1016 2.257 . S
Mn1009 N1025 2.282 . S
Mn1009 O1033 2.215 . S
Mn1009 O1035 2.117 . S
C1010 O1032 1.234 . S
C1010 O1033 1.283 . S
C1011 O1023 1.281 . S
C1011 O1024 1.236 . S
C1012 O1034 1.240 . S
C1012 O1035 1.264 . S
O1013 Mn1008 2.095 . S
O1013 C1022 1.250 . S
O1014 Mn1009 2.121 . S
O1014 C1022 1.258 . S
C1015 N1016 1.326 . S
C1015 C1019 1.460 . S
C1015 H1021 0.929 . S
N1016 Mn1009 2.257 . S
N1016 C1015 1.326 . S
N1016 C1020 1.362 . S
C1017 C1018 1.258 . S
C1017 C1020 1.431 . S
C1017 C1037 1.449 . S
C1018 C1017 1.258 . S
C1018 C1019 1.477 . S
C1018 H1038 0.931 . S
C1019 C1015 1.460 . S
C1019 C1018 1.477 . S
C1019 H1039 0.930 . S
C1020 N1016 1.362 . S
C1020 C1017 1.431 . S
C1020 C1030 1.476 . S
H1021 C1015 0.929 . S
C1022 O1013 1.250 . S
C1022 O1014 1.258 . S
O1023 Mn1008 2.162 . S
O1023 C1011 1.281 . S
O1024 Mn1008 2.297 . S
O1024 C1011 1.236 . S
N1025 Mn1009 2.282 . S
N1025 C1026 1.328 . S
N1025 C1030 1.318 . S
C1026 N1025 1.328 . S
C1026 C1027 1.457 . S
C1026 H1031 0.929 . S
C1027 C1026 1.457 . S
C1027 C1028 1.291 . S
C1027 H1040 0.931 . S
C1028 C1027 1.291 . S
C1028 C1029 1.373 . S
C1028 H1041 0.929 . S
C1029 C1028 1.373 . S
C1029 C1030 1.396 . S
C1029 C1036 1.403 . S
C1030 C1020 1.476 . S
C1030 N1025 1.318 . S
C1030 C1029 1.396 . S
H1031 C1026 0.929 . S
O1032 Mn1008 2.385 . S
O1032 C1010 1.234 . S
O1033 Mn1008 2.209 . S
O1033 Mn1009 2.215 . S
O1033 C1010 1.283 . S
O1034 Mn1008 2.094 . S
O1034 C1012 1.240 . S
O1035 Mn1009 2.117 . S
O1035 C1012 1.264 . S
C1036 C1029 1.403 . S
C1036 C1037 1.399 . S
C1036 H1042 0.929 . S
C1037 C1017 1.449 . S
C1037 C1036 1.399 . S
C1037 H1043 0.930 . S
H1038 C1018 0.931 . S
H1039 C1019 0.930 . S
H1040 C1027 0.931 . S
H1041 C1028 0.929 . S
H1042 C1036 0.929 . S
H1043 C1037 0.930 . S
Mn1044 O1049 2.095 . S
Mn1044 O1059 2.162 . S
Mn1044 O1060 2.297 . S
Mn1044 O1068 2.385 . S
Mn1044 O1069 2.209 . S
Mn1044 O1070 2.094 . S
Mn1045 O1050 2.121 . S
Mn1045 N1052 2.257 . S
Mn1045 N1061 2.282 . S
Mn1045 O1069 2.215 . S
Mn1045 O1071 2.117 . S
C1046 O1068 1.234 . S
C1046 O1069 1.283 . S
C1047 O1059 1.281 . S
C1047 O1060 1.236 . S
C1048 O1070 1.240 . S
C1048 O1071 1.264 . S
O1049 Mn1044 2.095 . S
O1049 C1058 1.250 . S
O1050 Mn1045 2.121 . S
O1050 C1058 1.258 . S
C1051 N1052 1.326 . S
C1051 C1055 1.460 . S
C1051 H1057 0.929 . S
N1052 Mn1045 2.257 . S
N1052 C1051 1.326 . S
N1052 C1056 1.362 . S
C1053 C1054 1.258 . S
C1053 C1056 1.431 . S
C1053 C1073 1.449 . S
C1054 C1053 1.258 . S
C1054 C1055 1.477 . S
C1054 H1074 0.931 . S
C1055 C1051 1.460 . S
C1055 C1054 1.477 . S
C1055 H1075 0.930 . S
C1056 N1052 1.362 . S
C1056 C1053 1.431 . S
C1056 C1066 1.476 . S
H1057 C1051 0.929 . S
C1058 O1049 1.250 . S
C1058 O1050 1.258 . S
O1059 Mn1044 2.162 . S
O1059 C1047 1.281 . S
O1060 Mn1044 2.297 . S
O1060 C1047 1.236 . S
N1061 Mn1045 2.282 . S
N1061 C1062 1.328 . S
N1061 C1066 1.318 . S
C1062 N1061 1.328 . S
C1062 C1063 1.457 . S
C1062 H1067 0.929 . S
C1063 C1062 1.457 . S
C1063 C1064 1.291 . S
C1063 H1076 0.931 . S
C1064 C1063 1.291 . S
C1064 C1065 1.373 . S
C1064 H1077 0.929 . S
C1065 C1064 1.373 . S
C1065 C1066 1.396 . S
C1065 C1072 1.403 . S
C1066 C1056 1.476 . S
C1066 N1061 1.318 . S
C1066 C1065 1.396 . S
H1067 C1062 0.929 . S
O1068 Mn1044 2.385 . S
O1068 C1046 1.234 . S
O1069 Mn1044 2.209 . S
O1069 Mn1045 2.215 . S
O1069 C1046 1.283 . S
O1070 Mn1044 2.094 . S
O1070 C1048 1.240 . S
O1071 Mn1045 2.117 . S
O1071 C1048 1.264 . S
C1072 C1065 1.403 . S
C1072 C1073 1.399 . S
C1072 H1078 0.929 . S
C1073 C1053 1.449 . S
C1073 C1072 1.399 . S
C1073 H1079 0.930 . S
H1074 C1054 0.931 . S
H1075 C1055 0.930 . S
H1076 C1063 0.931 . S
H1077 C1064 0.929 . S
H1078 C1072 0.929 . S
H1079 C1073 0.930 . S
Mn1080 O1085 2.095 . S
Mn1080 O1095 2.162 . S
Mn1080 O1096 2.297 . S
Mn1080 O1104 2.385 . S
Mn1080 O1105 2.209 . S
Mn1080 O1106 2.094 . S
Mn1081 O1086 2.121 . S
Mn1081 N1088 2.257 . S
Mn1081 N1097 2.282 . S
Mn1081 O1105 2.215 . S
Mn1081 O1107 2.117 . S
C1082 O1104 1.234 . S
C1082 O1105 1.283 . S
C1083 O1095 1.281 . S
C1083 O1096 1.236 . S
C1084 O1106 1.240 . S
C1084 O1107 1.264 . S
O1085 Mn1080 2.095 . S
O1085 C1094 1.250 . S
O1086 Mn1081 2.121 . S
O1086 C1094 1.258 . S
C1087 N1088 1.326 . S
C1087 C1091 1.460 . S
C1087 H1093 0.929 . S
N1088 Mn1081 2.257 . S
N1088 C1087 1.326 . S
N1088 C1092 1.362 . S
C1089 C1090 1.258 . S
C1089 C1092 1.431 . S
C1089 C1109 1.449 . S
C1090 C1089 1.258 . S
C1090 C1091 1.477 . S
C1090 H1110 0.931 . S
C1091 C1087 1.460 . S
C1091 C1090 1.477 . S
C1091 H1111 0.930 . S
C1092 N1088 1.362 . S
C1092 C1089 1.431 . S
C1092 C1102 1.476 . S
H1093 C1087 0.929 . S
C1094 O1085 1.250 . S
C1094 O1086 1.258 . S
O1095 Mn1080 2.162 . S
O1095 C1083 1.281 . S
O1096 Mn1080 2.297 . S
O1096 C1083 1.236 . S
N1097 Mn1081 2.282 . S
N1097 C1098 1.328 . S
N1097 C1102 1.318 . S
C1098 N1097 1.328 . S
C1098 C1099 1.457 . S
C1098 H1103 0.929 . S
C1099 C1098 1.457 . S
C1099 C1100 1.291 . S
C1099 H1112 0.931 . S
C1100 C1099 1.291 . S
C1100 C1101 1.373 . S
C1100 H1113 0.929 . S
C1101 C1100 1.373 . S
C1101 C1102 1.396 . S
C1101 C1108 1.403 . S
C1102 C1092 1.476 . S
C1102 N1097 1.318 . S
C1102 C1101 1.396 . S
H1103 C1098 0.929 . S
O1104 Mn1080 2.385 . S
O1104 C1082 1.234 . S
O1105 Mn1080 2.209 . S
O1105 Mn1081 2.215 . S
O1105 C1082 1.283 . S
O1106 Mn1080 2.094 . S
O1106 C1084 1.240 . S
O1107 Mn1081 2.117 . S
O1107 C1084 1.264 . S
C1108 C1101 1.403 . S
C1108 C1109 1.399 . S
C1108 H1114 0.929 . S
C1109 C1089 1.449 . S
C1109 C1108 1.399 . S
C1109 H1115 0.930 . S
H1110 C1090 0.931 . S
H1111 C1091 0.930 . S
H1112 C1099 0.931 . S
H1113 C1100 0.929 . S
H1114 C1108 0.929 . S
H1115 C1109 0.930 . S
Mn1116 O1121 2.095 . S
Mn1116 O1131 2.162 . S
Mn1116 O1132 2.297 . S
Mn1116 O1140 2.385 . S
Mn1116 O1141 2.209 . S
Mn1116 O1142 2.094 . S
Mn1117 O1122 2.121 . S
Mn1117 N1124 2.257 . S
Mn1117 N1133 2.282 . S
Mn1117 O1141 2.215 . S
Mn1117 O1143 2.117 . S
C1118 O1140 1.234 . S
C1118 O1141 1.283 . S
C1119 O1131 1.281 . S
C1119 O1132 1.236 . S
C1120 O1142 1.240 . S
C1120 O1143 1.264 . S
O1121 Mn1116 2.095 . S
O1121 C1130 1.250 . S
O1122 Mn1117 2.121 . S
O1122 C1130 1.258 . S
C1123 N1124 1.326 . S
C1123 C1127 1.460 . S
C1123 H1129 0.929 . S
N1124 Mn1117 2.257 . S
N1124 C1123 1.326 . S
N1124 C1128 1.362 . S
C1125 C1126 1.258 . S
C1125 C1128 1.431 . S
C1125 C1145 1.449 . S
C1126 C1125 1.258 . S
C1126 C1127 1.477 . S
C1126 H1146 0.931 . S
C1127 C1123 1.460 . S
C1127 C1126 1.477 . S
C1127 H1147 0.930 . S
C1128 N1124 1.362 . S
C1128 C1125 1.431 . S
C1128 C1138 1.476 . S
H1129 C1123 0.929 . S
C1130 O1121 1.250 . S
C1130 O1122 1.258 . S
O1131 Mn1116 2.162 . S
O1131 C1119 1.281 . S
O1132 Mn1116 2.297 . S
O1132 C1119 1.236 . S
N1133 Mn1117 2.282 . S
N1133 C1134 1.328 . S
N1133 C1138 1.318 . S
C1134 N1133 1.328 . S
C1134 C1135 1.457 . S
C1134 H1139 0.929 . S
C1135 C1134 1.457 . S
C1135 C1136 1.291 . S
C1135 H1148 0.931 . S
C1136 C1135 1.291 . S
C1136 C1137 1.373 . S
C1136 H1149 0.929 . S
C1137 C1136 1.373 . S
C1137 C1138 1.396 . S
C1137 C1144 1.403 . S
C1138 C1128 1.476 . S
C1138 N1133 1.318 . S
C1138 C1137 1.396 . S
H1139 C1134 0.929 . S
O1140 Mn1116 2.385 . S
O1140 C1118 1.234 . S
O1141 Mn1116 2.209 . S
O1141 Mn1117 2.215 . S
O1141 C1118 1.283 . S
O1142 Mn1116 2.094 . S
O1142 C1120 1.240 . S
O1143 Mn1117 2.117 . S
O1143 C1120 1.264 . S
C1144 C1137 1.403 . S
C1144 C1145 1.399 . S
C1144 H1150 0.929 . S
C1145 C1125 1.449 . S
C1145 C1144 1.399 . S
C1145 H1151 0.930 . S
H1146 C1126 0.931 . S
H1147 C1127 0.930 . S
H1148 C1135 0.931 . S
H1149 C1136 0.929 . S
H1150 C1144 0.929 . S
H1151 C1145 0.930 . S
H1152 C1160 0.950 . S
H1153 C1165 0.950 . S
H1154 C1162 0.950 . S
H1155 C1164 0.950 . S
H1156 C1166 0.950 . S
H1157 C1168 0.950 . S
H1158 C1170 0.950 . S
H1159 C1171 0.950 . S
C1160 H1152 0.950 . S
C1160 C1161 1.386 . S
C1160 C1162 1.391 . S
C1161 C1160 1.386 . S
C1161 C1165 1.393 . S
C1162 H1154 0.950 . S
C1162 C1160 1.391 . S
C1162 C1163 1.400 . S
C1163 C1162 1.400 . S
C1163 C1164 1.398 . S
C1163 C1169 1.491 . S
C1164 H1155 0.950 . S
C1164 C1163 1.398 . S
C1164 C1165 1.391 . S
C1165 H1153 0.950 . S
C1165 C1161 1.393 . S
C1165 C1164 1.391 . S
C1166 H1156 0.950 . S
C1166 C1167 1.386 . S
C1166 C1168 1.391 . S
C1167 C1166 1.386 . S
C1167 C1171 1.393 . S
C1168 H1157 0.950 . S
C1168 C1166 1.391 . S
C1168 C1169 1.400 . S
C1169 C1163 1.491 . S
C1169 C1168 1.400 . S
C1169 C1170 1.398 . S
C1170 H1158 0.950 . S
C1170 C1169 1.398 . S
C1170 C1171 1.391 . S
C1171 H1159 0.950 . S
C1171 C1167 1.393 . S
C1171 C1170 1.391 . S
H1172 C1180 0.950 . S
H1173 C1185 0.950 . S
H1174 C1182 0.950 . S
H1175 C1184 0.950 . S
H1176 C1186 0.950 . S
H1177 C1188 0.950 . S
H1178 C1190 0.950 . S
H1179 C1191 0.950 . S
C1180 H1172 0.950 . S
C1180 C1181 1.386 . S
C1180 C1182 1.391 . S
C1181 C1180 1.386 . S
C1181 C1185 1.393 . S
C1182 H1174 0.950 . S
C1182 C1180 1.391 . S
C1182 C1183 1.400 . S
C1183 C1182 1.400 . S
C1183 C1184 1.398 . S
C1183 C1189 1.491 . S
C1184 H1175 0.950 . S
C1184 C1183 1.398 . S
C1184 C1185 1.391 . S
C1185 H1173 0.950 . S
C1185 C1181 1.393 . S
C1185 C1184 1.391 . S
C1186 H1176 0.950 . S
C1186 C1187 1.386 . S
C1186 C1188 1.391 . S
C1187 C1186 1.386 . S
C1187 C1191 1.393 . S
C1188 H1177 0.950 . S
C1188 C1186 1.391 . S
C1188 C1189 1.400 . S
C1189 C1183 1.491 . S
C1189 C1188 1.400 . S
C1189 C1190 1.398 . S
C1190 H1178 0.950 . S
C1190 C1189 1.398 . S
C1190 C1191 1.391 . S
C1191 H1179 0.950 . S
C1191 C1187 1.393 . S
C1191 C1190 1.391 . S
H1192 C1200 0.950 . S
H1193 C1205 0.950 . S
H1194 C1202 0.950 . S
H1195 C1204 0.950 . S
H1196 C1206 0.950 . S
H1197 C1208 0.950 . S
H1198 C1210 0.950 . S
H1199 C1211 0.950 . S
C1200 H1192 0.950 . S
C1200 C1201 1.386 . S
C1200 C1202 1.391 . S
C1201 C1200 1.386 . S
C1201 C1205 1.393 . S
C1202 H1194 0.950 . S
C1202 C1200 1.391 . S
C1202 C1203 1.400 . S
C1203 C1202 1.400 . S
C1203 C1204 1.398 . S
C1203 C1209 1.491 . S
C1204 H1195 0.950 . S
C1204 C1203 1.398 . S
C1204 C1205 1.391 . S
C1205 H1193 0.950 . S
C1205 C1201 1.393 . S
C1205 C1204 1.391 . S
C1206 H1196 0.950 . S
C1206 C1207 1.386 . S
C1206 C1208 1.391 . S
C1207 C1206 1.386 . S
C1207 C1211 1.393 . S
C1208 H1197 0.950 . S
C1208 C1206 1.391 . S
C1208 C1209 1.400 . S
C1209 C1203 1.491 . S
C1209 C1208 1.400 . S
C1209 C1210 1.398 . S
C1210 H1198 0.950 . S
C1210 C1209 1.398 . S
C1210 C1211 1.391 . S
C1211 H1199 0.950 . S
C1211 C1207 1.393 . S
C1211 C1210 1.391 . S
H1212 C1220 0.950 . S
H1213 C1225 0.950 . S
H1214 C1222 0.950 . S
H1215 C1224 0.950 . S
H1216 C1226 0.950 . S
H1217 C1228 0.950 . S
H1218 C1230 0.950 . S
H1219 C1231 0.950 . S
C1220 H1212 0.950 . S
C1220 C1221 1.386 . S
C1220 C1222 1.391 . S
C1221 C1220 1.386 . S
C1221 C1225 1.393 . S
C1222 H1214 0.950 . S
C1222 C1220 1.391 . S
C1222 C1223 1.400 . S
C1223 C1222 1.400 . S
C1223 C1224 1.398 . S
C1223 C1229 1.491 . S
C1224 H1215 0.950 . S
C1224 C1223 1.398 . S
C1224 C1225 1.391 . S
C1225 H1213 0.950 . S
C1225 C1221 1.393 . S
C1225 C1224 1.391 . S
C1226 H1216 0.950 . S
C1226 C1227 1.386 . S
C1226 C1228 1.391 . S
C1227 C1226 1.386 . S
C1227 C1231 1.393 . S
C1228 H1217 0.950 . S
C1228 C1226 1.391 . S
C1228 C1229 1.400 . S
C1229 C1223 1.491 . S
C1229 C1228 1.400 . S
C1229 C1230 1.398 . S
C1230 H1218 0.950 . S
C1230 C1229 1.398 . S
C1230 C1231 1.391 . S
C1231 H1219 0.950 . S
C1231 C1227 1.393 . S
C1231 C1230 1.391 . S
H1232 C1240 0.950 . S
H1233 C1245 0.950 . S
H1234 C1242 0.950 . S
H1235 C1244 0.950 . S
H1236 C1246 0.950 . S
H1237 C1248 0.950 . S
H1238 C1250 0.950 . S
H1239 C1251 0.950 . S
C1240 H1232 0.950 . S
C1240 C1241 1.386 . S
C1240 C1242 1.391 . S
C1241 C1240 1.386 . S
C1241 C1245 1.393 . S
C1242 H1234 0.950 . S
C1242 C1240 1.391 . S
C1242 C1243 1.400 . S
C1243 C1242 1.400 . S
C1243 C1244 1.398 . S
C1243 C1249 1.491 . S
C1244 H1235 0.950 . S
C1244 C1243 1.398 . S
C1244 C1245 1.391 . S
C1245 H1233 0.950 . S
C1245 C1241 1.393 . S
C1245 C1244 1.391 . S
C1246 H1236 0.950 . S
C1246 C1247 1.386 . S
C1246 C1248 1.391 . S
C1247 C1246 1.386 . S
C1247 C1251 1.393 . S
C1248 H1237 0.950 . S
C1248 C1246 1.391 . S
C1248 C1249 1.400 . S
C1249 C1243 1.491 . S
C1249 C1248 1.400 . S
C1249 C1250 1.398 . S
C1250 H1238 0.950 . S
C1250 C1249 1.398 . S
C1250 C1251 1.391 . S
C1251 H1239 0.950 . S
C1251 C1247 1.393 . S
C1251 C1250 1.391 . S
H1252 C1260 0.950 . S
H1253 C1265 0.950 . S
H1254 C1262 0.950 . S
H1255 C1264 0.950 . S
H1256 C1266 0.950 . S
H1257 C1268 0.950 . S
H1258 C1270 0.950 . S
H1259 C1271 0.950 . S
C1260 H1252 0.950 . S
C1260 C1261 1.386 . S
C1260 C1262 1.391 . S
C1261 C1260 1.386 . S
C1261 C1265 1.393 . S
C1262 H1254 0.950 . S
C1262 C1260 1.391 . S
C1262 C1263 1.400 . S
C1263 C1262 1.400 . S
C1263 C1264 1.398 . S
C1263 C1269 1.491 . S
C1264 H1255 0.950 . S
C1264 C1263 1.398 . S
C1264 C1265 1.391 . S
C1265 H1253 0.950 . S
C1265 C1261 1.393 . S
C1265 C1264 1.391 . S
C1266 H1256 0.950 . S
C1266 C1267 1.386 . S
C1266 C1268 1.391 . S
C1267 C1266 1.386 . S
C1267 C1271 1.393 . S
C1268 H1257 0.950 . S
C1268 C1266 1.391 . S
C1268 C1269 1.400 . S
C1269 C1263 1.491 . S
C1269 C1268 1.400 . S
C1269 C1270 1.398 . S
C1270 H1258 0.950 . S
C1270 C1269 1.398 . S
C1270 C1271 1.391 . S
C1271 H1259 0.950 . S
C1271 C1267 1.393 . S
C1271 C1270 1.391 . S
H1272 C1280 0.950 . S
H1273 C1285 0.950 . S
H1274 C1282 0.950 . S
H1275 C1284 0.950 . S
H1276 C1286 0.950 . S
H1277 C1288 0.950 . S
H1278 C1290 0.950 . S
H1279 C1291 0.950 . S
C1280 H1272 0.950 . S
C1280 C1281 1.386 . S
C1280 C1282 1.391 . S
C1281 C1280 1.386 . S
C1281 C1285 1.393 . S
C1282 H1274 0.950 . S
C1282 C1280 1.391 . S
C1282 C1283 1.400 . S
C1283 C1282 1.400 . S
C1283 C1284 1.398 . S
C1283 C1289 1.491 . S
C1284 H1275 0.950 . S
C1284 C1283 1.398 . S
C1284 C1285 1.391 . S
C1285 H1273 0.950 . S
C1285 C1281 1.393 . S
C1285 C1284 1.391 . S
C1286 H1276 0.950 . S
C1286 C1287 1.386 . S
C1286 C1288 1.391 . S
C1287 C1286 1.386 . S
C1287 C1291 1.393 . S
C1288 H1277 0.950 . S
C1288 C1286 1.391 . S
C1288 C1289 1.400 . S
C1289 C1283 1.491 . S
C1289 C1288 1.400 . S
C1289 C1290 1.398 . S
C1290 H1278 0.950 . S
C1290 C1289 1.398 . S
C1290 C1291 1.391 . S
C1291 H1279 0.950 . S
C1291 C1287 1.393 . S
C1291 C1290 1.391 . S
H1292 C1300 0.950 . S
H1293 C1305 0.950 . S
H1294 C1302 0.950 . S
H1295 C1304 0.950 . S
H1296 C1306 0.950 . S
H1297 C1308 0.950 . S
H1298 C1310 0.950 . S
H1299 C1311 0.950 . S
C1300 H1292 0.950 . S
C1300 C1301 1.386 . S
C1300 C1302 1.391 . S
C1301 C1300 1.386 . S
C1301 C1305 1.393 . S
C1302 H1294 0.950 . S
C1302 C1300 1.391 . S
C1302 C1303 1.400 . S
C1303 C1302 1.400 . S
C1303 C1304 1.398 . S
C1303 C1309 1.491 . S
C1304 H1295 0.950 . S
C1304 C1303 1.398 . S
C1304 C1305 1.391 . S
C1305 H1293 0.950 . S
C1305 C1301 1.393 . S
C1305 C1304 1.391 . S
C1306 H1296 0.950 . S
C1306 C1307 1.386 . S
C1306 C1308 1.391 . S
C1307 C1306 1.386 . S
C1307 C1311 1.393 . S
C1308 H1297 0.950 . S
C1308 C1306 1.391 . S
C1308 C1309 1.400 . S
C1309 C1303 1.491 . S
C1309 C1308 1.400 . S
C1309 C1310 1.398 . S
C1310 H1298 0.950 . S
C1310 C1309 1.398 . S
C1310 C1311 1.391 . S
C1311 H1299 0.950 . S
C1311 C1307 1.393 . S
C1311 C1310 1.391 . S
H1312 C1320 0.950 . S
H1313 C1325 0.950 . S
H1314 C1322 0.950 . S
H1315 C1324 0.950 . S
H1316 C1326 0.950 . S
H1317 C1328 0.950 . S
H1318 C1330 0.950 . S
H1319 C1331 0.950 . S
C1320 H1312 0.950 . S
C1320 C1321 1.386 . S
C1320 C1322 1.391 . S
C1321 C1320 1.386 . S
C1321 C1325 1.393 . S
C1322 H1314 0.950 . S
C1322 C1320 1.391 . S
C1322 C1323 1.400 . S
C1323 C1322 1.400 . S
C1323 C1324 1.398 . S
C1323 C1329 1.491 . S
C1324 H1315 0.950 . S
C1324 C1323 1.398 . S
C1324 C1325 1.391 . S
C1325 H1313 0.950 . S
C1325 C1321 1.393 . S
C1325 C1324 1.391 . S
C1326 H1316 0.950 . S
C1326 C1327 1.386 . S
C1326 C1328 1.391 . S
C1327 C1326 1.386 . S
C1327 C1331 1.393 . S
C1328 H1317 0.950 . S
C1328 C1326 1.391 . S
C1328 C1329 1.400 . S
C1329 C1323 1.491 . S
C1329 C1328 1.400 . S
C1329 C1330 1.398 . S
C1330 H1318 0.950 . S
C1330 C1329 1.398 . S
C1330 C1331 1.391 . S
C1331 H1319 0.950 . S
C1331 C1327 1.393 . S
C1331 C1330 1.391 . S
H1332 C1340 0.950 . S
H1333 C1345 0.950 . S
H1334 C1342 0.950 . S
H1335 C1344 0.950 . S
H1336 C1346 0.950 . S
H1337 C1348 0.950 . S
H1338 C1350 0.950 . S
H1339 C1351 0.950 . S
C1340 H1332 0.950 . S
C1340 C1341 1.386 . S
C1340 C1342 1.391 . S
C1341 C1340 1.386 . S
C1341 C1345 1.393 . S
C1342 H1334 0.950 . S
C1342 C1340 1.391 . S
C1342 C1343 1.400 . S
C1343 C1342 1.400 . S
C1343 C1344 1.398 . S
C1343 C1349 1.491 . S
C1344 H1335 0.950 . S
C1344 C1343 1.398 . S
C1344 C1345 1.391 . S
C1345 H1333 0.950 . S
C1345 C1341 1.393 . S
C1345 C1344 1.391 . S
C1346 H1336 0.950 . S
C1346 C1347 1.386 . S
C1346 C1348 1.391 . S
C1347 C1346 1.386 . S
C1347 C1351 1.393 . S
C1348 H1337 0.950 . S
C1348 C1346 1.391 . S
C1348 C1349 1.400 . S
C1349 C1343 1.491 . S
C1349 C1348 1.400 . S
C1349 C1350 1.398 . S
C1350 H1338 0.950 . S
C1350 C1349 1.398 . S
C1350 C1351 1.391 . S
C1351 H1339 0.950 . S
C1351 C1347 1.393 . S
C1351 C1350 1.391 . S
H1352 C1360 0.950 . S
H1353 C1365 0.950 . S
H1354 C1362 0.950 . S
H1355 C1364 0.950 . S
H1356 C1366 0.950 . S
H1357 C1368 0.950 . S
H1358 C1370 0.950 . S
H1359 C1371 0.950 . S
C1360 H1352 0.950 . S
C1360 C1361 1.386 . S
C1360 C1362 1.391 . S
C1361 C1360 1.386 . S
C1361 C1365 1.393 . S
C1362 H1354 0.950 . S
C1362 C1360 1.391 . S
C1362 C1363 1.400 . S
C1363 C1362 1.400 . S
C1363 C1364 1.398 . S
C1363 C1369 1.491 . S
C1364 H1355 0.950 . S
C1364 C1363 1.398 . S
C1364 C1365 1.391 . S
C1365 H1353 0.950 . S
C1365 C1361 1.393 . S
C1365 C1364 1.391 . S
C1366 H1356 0.950 . S
C1366 C1367 1.386 . S
C1366 C1368 1.391 . S
C1367 C1366 1.386 . S
C1367 C1371 1.393 . S
C1368 H1357 0.950 . S
C1368 C1366 1.391 . S
C1368 C1369 1.400 . S
C1369 C1363 1.491 . S
C1369 C1368 1.400 . S
C1369 C1370 1.398 . S
C1370 H1358 0.950 . S
C1370 C1369 1.398 . S
C1370 C1371 1.391 . S
C1371 H1359 0.950 . S
C1371 C1367 1.393 . S
C1371 C1370 1.391 . S
H1372 C1380 0.950 . S
H1373 C1385 0.950 . S
H1374 C1382 0.950 . S
H1375 C1384 0.950 . S
H1376 C1386 0.950 . S
H1377 C1388 0.950 . S
H1378 C1390 0.950 . S
H1379 C1391 0.950 . S
C1380 H1372 0.950 . S
C1380 C1381 1.386 . S
C1380 C1382 1.391 . S
C1381 C1380 1.386 . S
C1381 C1385 1.393 . S
C1382 H1374 0.950 . S
C1382 C1380 1.391 . S
C1382 C1383 1.400 . S
C1383 C1382 1.400 . S
C1383 C1384 1.398 . S
C1383 C1389 1.491 . S
C1384 H1375 0.950 . S
C1384 C1383 1.398 . S
C1384 C1385 1.391 . S
C1385 H1373 0.950 . S
C1385 C1381 1.393 . S
C1385 C1384 1.391 . S
C1386 H1376 0.950 . S
C1386 C1387 1.386 . S
C1386 C1388 1.391 . S
C1387 C1386 1.386 . S
C1387 C1391 1.393 . S
C1388 H1377 0.950 . S
C1388 C1386 1.391 . S
C1388 C1389 1.400 . S
C1389 C1383 1.491 . S
C1389 C1388 1.400 . S
C1389 C1390 1.398 . S
C1390 H1378 0.950 . S
C1390 C1389 1.398 . S
C1390 C1391 1.391 . S
C1391 H1379 0.950 . S
C1391 C1387 1.393 . S
C1391 C1390 1.391 . S
H1392 C1400 0.950 . S
H1393 C1405 0.950 . S
H1394 C1402 0.950 . S
H1395 C1404 0.950 . S
H1396 C1406 0.950 . S
H1397 C1408 0.950 . S
H1398 C1410 0.950 . S
H1399 C1411 0.950 . S
C1400 H1392 0.950 . S
C1400 C1401 1.386 . S
C1400 C1402 1.391 . S
C1401 C1400 1.386 . S
C1401 C1405 1.393 . S
C1402 H1394 0.950 . S
C1402 C1400 1.391 . S
C1402 C1403 1.400 . S
C1403 C1402 1.400 . S
C1403 C1404 1.398 . S
C1403 C1409 1.491 . S
C1404 H1395 0.950 . S
C1404 C1403 1.398 . S
C1404 C1405 1.391 . S
C1405 H1393 0.950 . S
C1405 C1401 1.393 . S
C1405 C1404 1.391 . S
C1406 H1396 0.950 . S
C1406 C1407 1.386 . S
C1406 C1408 1.391 . S
C1407 C1406 1.386 . S
C1407 C1411 1.393 . S
C1408 H1397 0.950 . S
C1408 C1406 1.391 . S
C1408 C1409 1.400 . S
C1409 C1403 1.491 . S
C1409 C1408 1.400 . S
C1409 C1410 1.398 . S
C1410 H1398 0.950 . S
C1410 C1409 1.398 . S
C1410 C1411 1.391 . S
C1411 H1399 0.950 . S
C1411 C1407 1.393 . S
C1411 C1410 1.391 . S
H1412 C1420 0.950 . S
H1413 C1425 0.950 . S
H1414 C1422 0.950 . S
H1415 C1424 0.950 . S
H1416 C1426 0.950 . S
H1417 C1428 0.950 . S
H1418 C1430 0.950 . S
H1419 C1431 0.950 . S
C1420 H1412 0.950 . S
C1420 C1421 1.386 . S
C1420 C1422 1.391 . S
C1421 C1420 1.386 . S
C1421 C1425 1.393 . S
C1422 H1414 0.950 . S
C1422 C1420 1.391 . S
C1422 C1423 1.400 . S
C1423 C1422 1.400 . S
C1423 C1424 1.398 . S
C1423 C1429 1.491 . S
C1424 H1415 0.950 . S
C1424 C1423 1.398 . S
C1424 C1425 1.391 . S
C1425 H1413 0.950 . S
C1425 C1421 1.393 . S
C1425 C1424 1.391 . S
C1426 H1416 0.950 . S
C1426 C1427 1.386 . S
C1426 C1428 1.391 . S
C1427 C1426 1.386 . S
C1427 C1431 1.393 . S
C1428 H1417 0.950 . S
C1428 C1426 1.391 . S
C1428 C1429 1.400 . S
C1429 C1423 1.491 . S
C1429 C1428 1.400 . S
C1429 C1430 1.398 . S
C1430 H1418 0.950 . S
C1430 C1429 1.398 . S
C1430 C1431 1.391 . S
C1431 H1419 0.950 . S
C1431 C1427 1.393 . S
C1431 C1430 1.391 . S
H1432 C1440 0.950 . S
H1433 C1445 0.950 . S
H1434 C1442 0.950 . S
H1435 C1444 0.950 . S
H1436 C1446 0.950 . S
H1437 C1448 0.950 . S
H1438 C1450 0.950 . S
H1439 C1451 0.950 . S
C1440 H1432 0.950 . S
C1440 C1441 1.386 . S
C1440 C1442 1.391 . S
C1441 C1440 1.386 . S
C1441 C1445 1.393 . S
C1442 H1434 0.950 . S
C1442 C1440 1.391 . S
C1442 C1443 1.400 . S
C1443 C1442 1.400 . S
C1443 C1444 1.398 . S
C1443 C1449 1.491 . S
C1444 H1435 0.950 . S
C1444 C1443 1.398 . S
C1444 C1445 1.391 . S
C1445 H1433 0.950 . S
C1445 C1441 1.393 . S
C1445 C1444 1.391 . S
C1446 H1436 0.950 . S
C1446 C1447 1.386 . S
C1446 C1448 1.391 . S
C1447 C1446 1.386 . S
C1447 C1451 1.393 . S
C1448 H1437 0.950 . S
C1448 C1446 1.391 . S
C1448 C1449 1.400 . S
C1449 C1443 1.491 . S
C1449 C1448 1.400 . S
C1449 C1450 1.398 . S
C1450 H1438 0.950 . S
C1450 C1449 1.398 . S
C1450 C1451 1.391 . S
C1451 H1439 0.950 . S
C1451 C1447 1.393 . S
C1451 C1450 1.391 . S
H1452 C1460 0.950 . S
H1453 C1465 0.950 . S
H1454 C1462 0.950 . S
H1455 C1464 0.950 . S
H1456 C1466 0.950 . S
H1457 C1468 0.950 . S
H1458 C1470 0.950 . S
H1459 C1471 0.950 . S
C1460 H1452 0.950 . S
C1460 C1461 1.386 . S
C1460 C1462 1.391 . S
C1461 C1460 1.386 . S
C1461 C1465 1.393 . S
C1462 H1454 0.950 . S
C1462 C1460 1.391 . S
C1462 C1463 1.400 . S
C1463 C1462 1.400 . S
C1463 C1464 1.398 . S
C1463 C1469 1.491 . S
C1464 H1455 0.950 . S
C1464 C1463 1.398 . S
C1464 C1465 1.391 . S
C1465 H1453 0.950 . S
C1465 C1461 1.393 . S
C1465 C1464 1.391 . S
C1466 H1456 0.950 . S
C1466 C1467 1.386 . S
C1466 C1468 1.391 . S
C1467 C1466 1.386 . S
C1467 C1471 1.393 . S
C1468 H1457 0.950 . S
C1468 C1466 1.391 . S
C1468 C1469 1.400 . S
C1469 C1463 1.491 . S
C1469 C1468 1.400 . S
C1469 C1470 1.398 . S
C1470 H1458 0.950 . S
C1470 C1469 1.398 . S
C1470 C1471 1.391 . S
C1471 H1459 0.950 . S
C1471 C1467 1.393 . S
C1471 C1470 1.391 . S
H1472 C1480 0.950 . S
H1473 C1485 0.950 . S
H1474 C1482 0.950 . S
H1475 C1484 0.950 . S
H1476 C1486 0.950 . S
H1477 C1488 0.950 . S
H1478 C1490 0.950 . S
H1479 C1491 0.950 . S
C1480 H1472 0.950 . S
C1480 C1481 1.386 . S
C1480 C1482 1.391 . S
C1481 C1480 1.386 . S
C1481 C1485 1.393 . S
C1482 H1474 0.950 . S
C1482 C1480 1.391 . S
C1482 C1483 1.400 . S
C1483 C1482 1.400 . S
C1483 C1484 1.398 . S
C1483 C1489 1.491 1_655 S
C1484 H1475 0.950 . S
C1484 C1483 1.398 . S
C1484 C1485 1.391 . S
C1485 H1473 0.950 . S
C1485 C1481 1.393 . S
C1485 C1484 1.391 . S
C1486 H1476 0.950 . S
C1486 C1487 1.386 . S
C1486 C1488 1.391 . S
C1487 C1486 1.386 . S
C1487 C1491 1.393 . S
C1488 H1477 0.950 . S
C1488 C1486 1.391 . S
C1488 C1489 1.400 . S
C1489 C1483 1.491 1_455 S
C1489 C1488 1.400 . S
C1489 C1490 1.398 . S
C1490 H1478 0.950 . S
C1490 C1489 1.398 . S
C1490 C1491 1.391 . S
C1491 H1479 0.950 . S
C1491 C1487 1.393 . S
C1491 C1490 1.391 . S
H1492 C1500 0.950 . S
H1493 C1505 0.950 . S
H1494 C1502 0.950 . S
H1495 C1504 0.950 . S
H1496 C1506 0.950 . S
H1497 C1508 0.950 . S
H1498 C1510 0.950 . S
H1499 C1511 0.950 . S
C1500 H1492 0.950 . S
C1500 C1501 1.386 . S
C1500 C1502 1.391 . S
C1501 C1500 1.386 . S
C1501 C1505 1.393 . S
C1502 H1494 0.950 . S
C1502 C1500 1.391 . S
C1502 C1503 1.400 . S
C1503 C1502 1.400 . S
C1503 C1504 1.398 . S
C1503 C1509 1.491 1_545 S
C1504 H1495 0.950 . S
C1504 C1503 1.398 . S
C1504 C1505 1.391 . S
C1505 H1493 0.950 . S
C1505 C1501 1.393 . S
C1505 C1504 1.391 . S
C1506 H1496 0.950 . S
C1506 C1507 1.386 . S
C1506 C1508 1.391 . S
C1507 C1506 1.386 . S
C1507 C1511 1.393 . S
C1508 H1497 0.950 . S
C1508 C1506 1.391 . S
C1508 C1509 1.400 . S
C1509 C1503 1.491 1_565 S
C1509 C1508 1.400 . S
C1509 C1510 1.398 . S
C1510 H1498 0.950 . S
C1510 C1509 1.398 . S
C1510 C1511 1.391 . S
C1511 H1499 0.950 . S
C1511 C1507 1.393 . S
C1511 C1510 1.391 . S
H1512 C1520 0.950 . S
H1513 C1525 0.950 . S
H1514 C1522 0.950 . S
H1515 C1524 0.950 . S
H1516 C1526 0.950 . S
H1517 C1528 0.950 . S
H1518 C1530 0.950 . S
H1519 C1531 0.950 . S
C1520 H1512 0.950 . S
C1520 C1521 1.386 . S
C1520 C1522 1.391 . S
C1521 C1520 1.386 . S
C1521 C1525 1.393 . S
C1522 H1514 0.950 . S
C1522 C1520 1.391 . S
C1522 C1523 1.400 . S
C1523 C1522 1.400 . S
C1523 C1524 1.398 . S
C1523 C1529 1.491 1_455 S
C1524 H1515 0.950 . S
C1524 C1523 1.398 . S
C1524 C1525 1.391 . S
C1525 H1513 0.950 . S
C1525 C1521 1.393 . S
C1525 C1524 1.391 . S
C1526 H1516 0.950 . S
C1526 C1527 1.386 . S
C1526 C1528 1.391 . S
C1527 C1526 1.386 . S
C1527 C1531 1.393 . S
C1528 H1517 0.950 . S
C1528 C1526 1.391 . S
C1528 C1529 1.400 . S
C1529 C1523 1.491 1_655 S
C1529 C1528 1.400 . S
C1529 C1530 1.398 . S
C1530 H1518 0.950 . S
C1530 C1529 1.398 . S
C1530 C1531 1.391 . S
C1531 H1519 0.950 . S
C1531 C1527 1.393 . S
C1531 C1530 1.391 . S
H1532 C1540 0.950 . S
H1533 C1545 0.950 . S
H1534 C1542 0.950 . S
H1535 C1544 0.950 . S
H1536 C1546 0.950 . S
H1537 C1548 0.950 . S
H1538 C1550 0.950 . S
H1539 C1551 0.950 . S
C1540 H1532 0.950 . S
C1540 C1541 1.386 . S
C1540 C1542 1.391 . S
C1541 C1540 1.386 . S
C1541 C1545 1.393 . S
C1542 H1534 0.950 . S
C1542 C1540 1.391 . S
C1542 C1543 1.400 . S
C1543 C1542 1.400 . S
C1543 C1544 1.398 . S
C1543 C1549 1.491 1_565 S
C1544 H1535 0.950 . S
C1544 C1543 1.398 . S
C1544 C1545 1.391 . S
C1545 H1533 0.950 . S
C1545 C1541 1.393 . S
C1545 C1544 1.391 . S
C1546 H1536 0.950 . S
C1546 C1547 1.386 . S
C1546 C1548 1.391 . S
C1547 C1546 1.386 . S
C1547 C1551 1.393 . S
C1548 H1537 0.950 . S
C1548 C1546 1.391 . S
C1548 C1549 1.400 . S
C1549 C1543 1.491 1_545 S
C1549 C1548 1.400 . S
C1549 C1550 1.398 . S
C1550 H1538 0.950 . S
C1550 C1549 1.398 . S
C1550 C1551 1.391 . S
C1551 H1539 0.950 . S
C1551 C1547 1.393 . S
C1551 C1550 1.391 . S
H1552 C1560 0.950 . S
H1553 C1565 0.950 . S
H1554 C1562 0.950 . S
H1555 C1564 0.950 . S
H1556 C1566 0.950 . S
H1557 C1568 0.950 . S
H1558 C1570 0.950 . S
H1559 C1571 0.950 . S
C1560 H1552 0.950 . S
C1560 C1561 1.386 . S
C1560 C1562 1.391 . S
C1561 C1560 1.386 . S
C1561 C1565 1.393 . S
C1562 H1554 0.950 . S
C1562 C1560 1.391 . S
C1562 C1563 1.400 . S
C1563 C1562 1.400 . S
C1563 C1564 1.398 . S
C1563 C1569 1.491 1_455 S
C1564 H1555 0.950 . S
C1564 C1563 1.398 . S
C1564 C1565 1.391 . S
C1565 H1553 0.950 . S
C1565 C1561 1.393 . S
C1565 C1564 1.391 . S
C1566 H1556 0.950 . S
C1566 C1567 1.386 . S
C1566 C1568 1.391 . S
C1567 C1566 1.386 . S
C1567 C1571 1.393 . S
C1568 H1557 0.950 . S
C1568 C1566 1.391 . S
C1568 C1569 1.400 . S
C1569 C1563 1.491 1_655 S
C1569 C1568 1.400 . S
C1569 C1570 1.398 . S
C1570 H1558 0.950 . S
C1570 C1569 1.398 . S
C1570 C1571 1.391 . S
C1571 H1559 0.950 . S
C1571 C1567 1.393 . S
C1571 C1570 1.391 . S
H1572 C1580 0.950 . S
H1573 C1585 0.950 . S
H1574 C1582 0.950 . S
H1575 C1584 0.950 . S
H1576 C1586 0.950 . S
H1577 C1588 0.950 . S
H1578 C1590 0.950 . S
H1579 C1591 0.950 . S
C1580 H1572 0.950 . S
C1580 C1581 1.386 . S
C1580 C1582 1.391 . S
C1581 C1580 1.386 . S
C1581 C1585 1.393 . S
C1582 H1574 0.950 . S
C1582 C1580 1.391 . S
C1582 C1583 1.400 . S
C1583 C1582 1.400 . S
C1583 C1584 1.398 . S
C1583 C1589 1.491 1_565 S
C1584 H1575 0.950 . S
C1584 C1583 1.398 . S
C1584 C1585 1.391 . S
C1585 H1573 0.950 . S
C1585 C1581 1.393 . S
C1585 C1584 1.391 . S
C1586 H1576 0.950 . S
C1586 C1587 1.386 . S
C1586 C1588 1.391 . S
C1587 C1586 1.386 . S
C1587 C1591 1.393 . S
C1588 H1577 0.950 . S
C1588 C1586 1.391 . S
C1588 C1589 1.400 . S
C1589 C1583 1.491 1_545 S
C1589 C1588 1.400 . S
C1589 C1590 1.398 . S
C1590 H1578 0.950 . S
C1590 C1589 1.398 . S
C1590 C1591 1.391 . S
C1591 H1579 0.950 . S
C1591 C1587 1.393 . S
C1591 C1590 1.391 . S
H1592 C1600 0.950 . S
H1593 C1605 0.950 . S
H1594 C1602 0.950 . S
H1595 C1604 0.950 . S
H1596 C1606 0.950 . S
H1597 C1608 0.950 . S
H1598 C1610 0.950 . S
H1599 C1611 0.950 . S
C1600 H1592 0.950 . S
C1600 C1601 1.386 . S
C1600 C1602 1.391 . S
C1601 C1600 1.386 . S
C1601 C1605 1.393 . S
C1602 H1594 0.950 . S
C1602 C1600 1.391 . S
C1602 C1603 1.400 . S
C1603 C1602 1.400 . S
C1603 C1604 1.398 . S
C1603 C1609 1.491 1_455 S
C1604 H1595 0.950 . S
C1604 C1603 1.398 . S
C1604 C1605 1.391 . S
C1605 H1593 0.950 . S
C1605 C1601 1.393 . S
C1605 C1604 1.391 . S
C1606 H1596 0.950 . S
C1606 C1607 1.386 . S
C1606 C1608 1.391 . S
C1607 C1606 1.386 . S
C1607 C1611 1.393 . S
C1608 H1597 0.950 . S
C1608 C1606 1.391 . S
C1608 C1609 1.400 . S
C1609 C1603 1.491 1_655 S
C1609 C1608 1.400 . S
C1609 C1610 1.398 . S
C1610 H1598 0.950 . S
C1610 C1609 1.398 . S
C1610 C1611 1.391 . S
C1611 H1599 0.950 . S
C1611 C1607 1.393 . S
C1611 C1610 1.391 . S
H1612 C1620 0.950 . S
H1613 C1625 0.950 . S
H1614 C1622 0.950 . S
H1615 C1624 0.950 . S
H1616 C1626 0.950 . S
H1617 C1628 0.950 . S
H1618 C1630 0.950 . S
H1619 C1631 0.950 . S
C1620 H1612 0.950 . S
C1620 C1621 1.386 . S
C1620 C1622 1.391 . S
C1621 C1620 1.386 . S
C1621 C1625 1.393 . S
C1622 H1614 0.950 . S
C1622 C1620 1.391 . S
C1622 C1623 1.400 . S
C1623 C1622 1.400 . S
C1623 C1624 1.398 . S
C1623 C1629 1.491 1_545 S
C1624 H1615 0.950 . S
C1624 C1623 1.398 . S
C1624 C1625 1.391 . S
C1625 H1613 0.950 . S
C1625 C1621 1.393 . S
C1625 C1624 1.391 . S
C1626 H1616 0.950 . S
C1626 C1627 1.386 . S
C1626 C1628 1.391 . S
C1627 C1626 1.386 . S
C1627 C1631 1.393 . S
C1628 H1617 0.950 . S
C1628 C1626 1.391 . S
C1628 C1629 1.400 . S
C1629 C1623 1.491 1_565 S
C1629 C1628 1.400 . S
C1629 C1630 1.398 . S
C1630 H1618 0.950 . S
C1630 C1629 1.398 . S
C1630 C1631 1.391 . S
C1631 H1619 0.950 . S
C1631 C1627 1.393 . S
C1631 C1630 1.391 . S
H1632 C1640 0.950 . S
H1633 C1645 0.950 . S
H1634 C1642 0.950 . S
H1635 C1644 0.950 . S
H1636 C1646 0.950 . S
H1637 C1648 0.950 . S
H1638 C1650 0.950 . S
H1639 C1651 0.950 . S
C1640 H1632 0.950 . S
C1640 C1641 1.386 . S
C1640 C1642 1.391 . S
C1641 C1640 1.386 . S
C1641 C1645 1.393 . S
C1642 H1634 0.950 . S
C1642 C1640 1.391 . S
C1642 C1643 1.400 . S
C1643 C1642 1.400 . S
C1643 C1644 1.398 . S
C1643 C1649 1.491 . S
C1644 H1635 0.950 . S
C1644 C1643 1.398 . S
C1644 C1645 1.391 . S
C1645 H1633 0.950 . S
C1645 C1641 1.393 . S
C1645 C1644 1.391 . S
C1646 H1636 0.950 . S
C1646 C1647 1.386 . S
C1646 C1648 1.391 . S
C1647 C1646 1.386 . S
C1647 C1651 1.393 . S
C1648 H1637 0.950 . S
C1648 C1646 1.391 . S
C1648 C1649 1.400 . S
C1649 C1643 1.491 . S
C1649 C1648 1.400 . S
C1649 C1650 1.398 . S
C1650 H1638 0.950 . S
C1650 C1649 1.398 . S
C1650 C1651 1.391 . S
C1651 H1639 0.950 . S
C1651 C1647 1.393 . S
C1651 C1650 1.391 . S
H1652 C1660 0.950 . S
H1653 C1665 0.950 . S
H1654 C1662 0.950 . S
H1655 C1664 0.950 . S
H1656 C1666 0.950 . S
H1657 C1668 0.950 . S
H1658 C1670 0.950 . S
H1659 C1671 0.950 . S
C1660 H1652 0.950 . S
C1660 C1661 1.386 . S
C1660 C1662 1.391 . S
C1661 C1660 1.386 . S
C1661 C1665 1.393 . S
C1662 H1654 0.950 . S
C1662 C1660 1.391 . S
C1662 C1663 1.400 . S
C1663 C1662 1.400 . S
C1663 C1664 1.398 . S
C1663 C1669 1.491 . S
C1664 H1655 0.950 . S
C1664 C1663 1.398 . S
C1664 C1665 1.391 . S
C1665 H1653 0.950 . S
C1665 C1661 1.393 . S
C1665 C1664 1.391 . S
C1666 H1656 0.950 . S
C1666 C1667 1.386 . S
C1666 C1668 1.391 . S
C1667 C1666 1.386 . S
C1667 C1671 1.393 . S
C1668 H1657 0.950 . S
C1668 C1666 1.391 . S
C1668 C1669 1.400 . S
C1669 C1663 1.491 . S
C1669 C1668 1.400 . S
C1669 C1670 1.398 . S
C1670 H1658 0.950 . S
C1670 C1669 1.398 . S
C1670 C1671 1.391 . S
C1671 H1659 0.950 . S
C1671 C1667 1.393 . S
C1671 C1670 1.391 . S
H1672 C1680 0.950 . S
H1673 C1685 0.950 . S
H1674 C1682 0.950 . S
H1675 C1684 0.950 . S
H1676 C1686 0.950 . S
H1677 C1688 0.950 . S
H1678 C1690 0.950 . S
H1679 C1691 0.950 . S
C1680 H1672 0.950 . S
C1680 C1681 1.386 . S
C1680 C1682 1.391 . S
C1681 C1680 1.386 . S
C1681 C1685 1.393 . S
C1682 H1674 0.950 . S
C1682 C1680 1.391 . S
C1682 C1683 1.400 . S
C1683 C1682 1.400 . S
C1683 C1684 1.398 . S
C1683 C1689 1.491 . S
C1684 H1675 0.950 . S
C1684 C1683 1.398 . S
C1684 C1685 1.391 . S
C1685 H1673 0.950 . S
C1685 C1681 1.393 . S
C1685 C1684 1.391 . S
C1686 H1676 0.950 . S
C1686 C1687 1.386 . S
C1686 C1688 1.391 . S
C1687 C1686 1.386 . S
C1687 C1691 1.393 . S
C1688 H1677 0.950 . S
C1688 C1686 1.391 . S
C1688 C1689 1.400 . S
C1689 C1683 1.491 . S
C1689 C1688 1.400 . S
C1689 C1690 1.398 . S
C1690 H1678 0.950 . S
C1690 C1689 1.398 . S
C1690 C1691 1.391 . S
C1691 H1679 0.950 . S
C1691 C1687 1.393 . S
C1691 C1690 1.391 . S
H1692 C1700 0.950 . S
H1693 C1705 0.950 . S
H1694 C1702 0.950 . S
H1695 C1704 0.950 . S
H1696 C1706 0.950 . S
H1697 C1708 0.950 . S
H1698 C1710 0.950 . S
H1699 C1711 0.950 . S
C1700 H1692 0.950 . S
C1700 C1701 1.386 . S
C1700 C1702 1.391 . S
C1701 C1700 1.386 . S
C1701 C1705 1.393 . S
C1702 H1694 0.950 . S
C1702 C1700 1.391 . S
C1702 C1703 1.400 . S
C1703 C1702 1.400 . S
C1703 C1704 1.398 . S
C1703 C1709 1.491 . S
C1704 H1695 0.950 . S
C1704 C1703 1.398 . S
C1704 C1705 1.391 . S
C1705 H1693 0.950 . S
C1705 C1701 1.393 . S
C1705 C1704 1.391 . S
C1706 H1696 0.950 . S
C1706 C1707 1.386 . S
C1706 C1708 1.391 . S
C1707 C1706 1.386 . S
C1707 C1711 1.393 . S
C1708 H1697 0.950 . S
C1708 C1706 1.391 . S
C1708 C1709 1.400 . S
C1709 C1703 1.491 . S
C1709 C1708 1.400 . S
C1709 C1710 1.398 . S
C1710 H1698 0.950 . S
C1710 C1709 1.398 . S
C1710 C1711 1.391 . S
C1711 H1699 0.950 . S
C1711 C1707 1.393 . S
C1711 C1710 1.391 . S
H1712 C1720 0.950 . S
H1713 C1725 0.950 . S
H1714 C1722 0.950 . S
H1715 C1724 0.950 . S
H1716 C1726 0.950 . S
H1717 C1728 0.950 . S
H1718 C1730 0.950 . S
H1719 C1731 0.950 . S
C1720 H1712 0.950 . S
C1720 C1721 1.386 . S
C1720 C1722 1.391 . S
C1721 C1720 1.386 . S
C1721 C1725 1.393 . S
C1722 H1714 0.950 . S
C1722 C1720 1.391 . S
C1722 C1723 1.400 . S
C1723 C1722 1.400 . S
C1723 C1724 1.398 . S
C1723 C1729 1.491 . S
C1724 H1715 0.950 . S
C1724 C1723 1.398 . S
C1724 C1725 1.391 . S
C1725 H1713 0.950 . S
C1725 C1721 1.393 . S
C1725 C1724 1.391 . S
C1726 H1716 0.950 . S
C1726 C1727 1.386 . S
C1726 C1728 1.391 . S
C1727 C1726 1.386 . S
C1727 C1731 1.393 . S
C1728 H1717 0.950 . S
C1728 C1726 1.391 . S
C1728 C1729 1.400 . S
C1729 C1723 1.491 . S
C1729 C1728 1.400 . S
C1729 C1730 1.398 . S
C1730 H1718 0.950 . S
C1730 C1729 1.398 . S
C1730 C1731 1.391 . S
C1731 H1719 0.950 . S
C1731 C1727 1.393 . S
C1731 C1730 1.391 . S
H1732 C1740 0.950 . S
H1733 C1745 0.950 . S
H1734 C1742 0.950 . S
H1735 C1744 0.950 . S
H1736 C1746 0.950 . S
H1737 C1748 0.950 . S
H1738 C1750 0.950 . S
H1739 C1751 0.950 . S
C1740 H1732 0.950 . S
C1740 C1741 1.386 . S
C1740 C1742 1.391 . S
C1741 C1740 1.386 . S
C1741 C1745 1.393 . S
C1742 H1734 0.950 . S
C1742 C1740 1.391 . S
C1742 C1743 1.400 . S
C1743 C1742 1.400 . S
C1743 C1744 1.398 . S
C1743 C1749 1.491 . S
C1744 H1735 0.950 . S
C1744 C1743 1.398 . S
C1744 C1745 1.391 . S
C1745 H1733 0.950 . S
C1745 C1741 1.393 . S
C1745 C1744 1.391 . S
C1746 H1736 0.950 . S
C1746 C1747 1.386 . S
C1746 C1748 1.391 . S
C1747 C1746 1.386 . S
C1747 C1751 1.393 . S
C1748 H1737 0.950 . S
C1748 C1746 1.391 . S
C1748 C1749 1.400 . S
C1749 C1743 1.491 . S
C1749 C1748 1.400 . S
C1749 C1750 1.398 . S
C1750 H1738 0.950 . S
C1750 C1749 1.398 . S
C1750 C1751 1.391 . S
C1751 H1739 0.950 . S
C1751 C1747 1.393 . S
C1751 C1750 1.391 . S
H1752 C1760 0.950 . S
H1753 C1765 0.950 . S
H1754 C1762 0.950 . S
H1755 C1764 0.950 . S
H1756 C1766 0.950 . S
H1757 C1768 0.950 . S
H1758 C1770 0.950 . S
H1759 C1771 0.950 . S
C1760 H1752 0.950 . S
C1760 C1761 1.386 . S
C1760 C1762 1.391 . S
C1761 C1760 1.386 . S
C1761 C1765 1.393 . S
C1762 H1754 0.950 . S
C1762 C1760 1.391 . S
C1762 C1763 1.400 . S
C1763 C1762 1.400 . S
C1763 C1764 1.398 . S
C1763 C1769 1.491 . S
C1764 H1755 0.950 . S
C1764 C1763 1.398 . S
C1764 C1765 1.391 . S
C1765 H1753 0.950 . S
C1765 C1761 1.393 . S
C1765 C1764 1.391 . S
C1766 H1756 0.950 . S
C1766 C1767 1.386 . S
C1766 C1768 1.391 . S
C1767 C1766 1.386 . S
C1767 C1771 1.393 . S
C1768 H1757 0.950 . S
C1768 C1766 1.391 . S
C1768 C1769 1.400 . S
C1769 C1763 1.491 . S
C1769 C1768 1.400 . S
C1769 C1770 1.398 . S
C1770 H1758 0.950 . S
C1770 C1769 1.398 . S
C1770 C1771 1.391 . S
C1771 H1759 0.950 . S
C1771 C1767 1.393 . S
C1771 C1770 1.391 . S
H1772 C1780 0.950 . S
H1773 C1785 0.950 . S
H1774 C1782 0.950 . S
H1775 C1784 0.950 . S
H1776 C1786 0.950 . S
H1777 C1788 0.950 . S
H1778 C1790 0.950 . S
H1779 C1791 0.950 . S
C1780 H1772 0.950 . S
C1780 C1781 1.386 . S
C1780 C1782 1.391 . S
C1781 C1780 1.386 . S
C1781 C1785 1.393 . S
C1782 H1774 0.950 . S
C1782 C1780 1.391 . S
C1782 C1783 1.400 . S
C1783 C1782 1.400 . S
C1783 C1784 1.398 . S
C1783 C1789 1.491 . S
C1784 H1775 0.950 . S
C1784 C1783 1.398 . S
C1784 C1785 1.391 . S
C1785 H1773 0.950 . S
C1785 C1781 1.393 . S
C1785 C1784 1.391 . S
C1786 H1776 0.950 . S
C1786 C1787 1.386 . S
C1786 C1788 1.391 . S
C1787 C1786 1.386 . S
C1787 C1791 1.393 . S
C1788 H1777 0.950 . S
C1788 C1786 1.391 . S
C1788 C1789 1.400 . S
C1789 C1783 1.491 . S
C1789 C1788 1.400 . S
C1789 C1790 1.398 . S
C1790 H1778 0.950 . S
C1790 C1789 1.398 . S
C1790 C1791 1.391 . S
C1791 H1779 0.950 . S
C1791 C1787 1.393 . S
C1791 C1790 1.391 . S
H1792 C1800 0.950 . S
H1793 C1805 0.950 . S
H1794 C1802 0.950 . S
H1795 C1804 0.950 . S
H1796 C1806 0.950 . S
H1797 C1808 0.950 . S
H1798 C1810 0.950 . S
H1799 C1811 0.950 . S
C1800 H1792 0.950 . S
C1800 C1801 1.386 . S
C1800 C1802 1.391 . S
C1801 C1800 1.386 . S
C1801 C1805 1.393 . S
C1802 H1794 0.950 . S
C1802 C1800 1.391 . S
C1802 C1803 1.400 . S
C1803 C1802 1.400 . S
C1803 C1804 1.398 . S
C1803 C1809 1.491 . S
C1804 H1795 0.950 . S
C1804 C1803 1.398 . S
C1804 C1805 1.391 . S
C1805 H1793 0.950 . S
C1805 C1801 1.393 . S
C1805 C1804 1.391 . S
C1806 H1796 0.950 . S
C1806 C1807 1.386 . S
C1806 C1808 1.391 . S
C1807 C1806 1.386 . S
C1807 C1811 1.393 . S
C1808 H1797 0.950 . S
C1808 C1806 1.391 . S
C1808 C1809 1.400 . S
C1809 C1803 1.491 . S
C1809 C1808 1.400 . S
C1809 C1810 1.398 . S
C1810 H1798 0.950 . S
C1810 C1809 1.398 . S
C1810 C1811 1.391 . S
C1811 H1799 0.950 . S
C1811 C1807 1.393 . S
C1811 C1810 1.391 . S
H1812 C1820 0.950 . S
H1813 C1825 0.950 . S
H1814 C1822 0.950 . S
H1815 C1824 0.950 . S
H1816 C1826 0.950 . S
H1817 C1828 0.950 . S
H1818 C1830 0.950 . S
H1819 C1831 0.950 . S
C1820 H1812 0.950 . S
C1820 C1821 1.386 . S
C1820 C1822 1.391 . S
C1821 C1820 1.386 . S
C1821 C1825 1.393 . S
C1822 H1814 0.950 . S
C1822 C1820 1.391 . S
C1822 C1823 1.400 . S
C1823 C1822 1.400 . S
C1823 C1824 1.398 . S
C1823 C1829 1.491 . S
C1824 H1815 0.950 . S
C1824 C1823 1.398 . S
C1824 C1825 1.391 . S
C1825 H1813 0.950 . S
C1825 C1821 1.393 . S
C1825 C1824 1.391 . S
C1826 H1816 0.950 . S
C1826 C1827 1.386 . S
C1826 C1828 1.391 . S
C1827 C1826 1.386 . S
C1827 C1831 1.393 . S
C1828 H1817 0.950 . S
C1828 C1826 1.391 . S
C1828 C1829 1.400 . S
C1829 C1823 1.491 . S
C1829 C1828 1.400 . S
C1829 C1830 1.398 . S
C1830 H1818 0.950 . S
C1830 C1829 1.398 . S
C1830 C1831 1.391 . S
C1831 H1819 0.950 . S
C1831 C1827 1.393 . S
C1831 C1830 1.391 . S
H1832 C1840 0.950 . S
H1833 C1845 0.950 . S
H1834 C1842 0.950 . S
H1835 C1844 0.950 . S
H1836 C1846 0.950 . S
H1837 C1848 0.950 . S
H1838 C1850 0.950 . S
H1839 C1851 0.950 . S
C1840 H1832 0.950 . S
C1840 C1841 1.386 . S
C1840 C1842 1.391 . S
C1841 C1840 1.386 . S
C1841 C1845 1.393 . S
C1842 H1834 0.950 . S
C1842 C1840 1.391 . S
C1842 C1843 1.400 . S
C1843 C1842 1.400 . S
C1843 C1844 1.398 . S
C1843 C1849 1.491 . S
C1844 H1835 0.950 . S
C1844 C1843 1.398 . S
C1844 C1845 1.391 . S
C1845 H1833 0.950 . S
C1845 C1841 1.393 . S
C1845 C1844 1.391 . S
C1846 H1836 0.950 . S
C1846 C1847 1.386 . S
C1846 C1848 1.391 . S
C1847 C1846 1.386 . S
C1847 C1851 1.393 . S
C1848 H1837 0.950 . S
C1848 C1846 1.391 . S
C1848 C1849 1.400 . S
C1849 C1843 1.491 . S
C1849 C1848 1.400 . S
C1849 C1850 1.398 . S
C1850 H1838 0.950 . S
C1850 C1849 1.398 . S
C1850 C1851 1.391 . S
C1851 H1839 0.950 . S
C1851 C1847 1.393 . S
C1851 C1850 1.391 . S
H1852 C1860 0.950 . S
H1853 C1865 0.950 . S
H1854 C1862 0.950 . S
H1855 C1864 0.950 . S
H1856 C1866 0.950 . S
H1857 C1868 0.950 . S
H1858 C1870 0.950 . S
H1859 C1871 0.950 . S
C1860 H1852 0.950 . S
C1860 C1861 1.386 . S
C1860 C1862 1.391 . S
C1861 C1860 1.386 . S
C1861 C1865 1.393 . S
C1862 H1854 0.950 . S
C1862 C1860 1.391 . S
C1862 C1863 1.400 . S
C1863 C1862 1.400 . S
C1863 C1864 1.398 . S
C1863 C1869 1.491 . S
C1864 H1855 0.950 . S
C1864 C1863 1.398 . S
C1864 C1865 1.391 . S
C1865 H1853 0.950 . S
C1865 C1861 1.393 . S
C1865 C1864 1.391 . S
C1866 H1856 0.950 . S
C1866 C1867 1.386 . S
C1866 C1868 1.391 . S
C1867 C1866 1.386 . S
C1867 C1871 1.393 . S
C1868 H1857 0.950 . S
C1868 C1866 1.391 . S
C1868 C1869 1.400 . S
C1869 C1863 1.491 . S
C1869 C1868 1.400 . S
C1869 C1870 1.398 . S
C1870 H1858 0.950 . S
C1870 C1869 1.398 . S
C1870 C1871 1.391 . S
C1871 H1859 0.950 . S
C1871 C1867 1.393 . S
C1871 C1870 1.391 . S
H1872 C1880 0.950 . S
H1873 C1885 0.950 . S
H1874 C1882 0.950 . S
H1875 C1884 0.950 . S
H1876 C1886 0.950 . S
H1877 C1888 0.950 . S
H1878 C1890 0.950 . S
H1879 C1891 0.950 . S
C1880 H1872 0.950 . S
C1880 C1881 1.386 . S
C1880 C1882 1.391 . S
C1881 C1880 1.386 . S
C1881 C1885 1.393 . S
C1882 H1874 0.950 . S
C1882 C1880 1.391 . S
C1882 C1883 1.400 . S
C1883 C1882 1.400 . S
C1883 C1884 1.398 . S
C1883 C1889 1.491 . S
C1884 H1875 0.950 . S
C1884 C1883 1.398 . S
C1884 C1885 1.391 . S
C1885 H1873 0.950 . S
C1885 C1881 1.393 . S
C1885 C1884 1.391 . S
C1886 H1876 0.950 . S
C1886 C1887 1.386 . S
C1886 C1888 1.391 . S
C1887 C1886 1.386 . S
C1887 C1891 1.393 . S
C1888 H1877 0.950 . S
C1888 C1886 1.391 . S
C1888 C1889 1.400 . S
C1889 C1883 1.491 . S
C1889 C1888 1.400 . S
C1889 C1890 1.398 . S
C1890 H1878 0.950 . S
C1890 C1889 1.398 . S
C1890 C1891 1.391 . S
C1891 H1879 0.950 . S
C1891 C1887 1.393 . S
C1891 C1890 1.391 . S
H1892 C1900 0.950 . S
H1893 C1905 0.950 . S
H1894 C1902 0.950 . S
H1895 C1904 0.950 . S
H1896 C1906 0.950 . S
H1897 C1908 0.950 . S
H1898 C1910 0.950 . S
H1899 C1911 0.950 . S
C1900 H1892 0.950 . S
C1900 C1901 1.386 . S
C1900 C1902 1.391 . S
C1901 C1900 1.386 . S
C1901 C1905 1.393 . S
C1902 H1894 0.950 . S
C1902 C1900 1.391 . S
C1902 C1903 1.400 . S
C1903 C1902 1.400 . S
C1903 C1904 1.398 . S
C1903 C1909 1.491 . S
C1904 H1895 0.950 . S
C1904 C1903 1.398 . S
C1904 C1905 1.391 . S
C1905 H1893 0.950 . S
C1905 C1901 1.393 . S
C1905 C1904 1.391 . S
C1906 H1896 0.950 . S
C1906 C1907 1.386 . S
C1906 C1908 1.391 . S
C1907 C1906 1.386 . S
C1907 C1911 1.393 . S
C1908 H1897 0.950 . S
C1908 C1906 1.391 . S
C1908 C1909 1.400 . S
C1909 C1903 1.491 . S
C1909 C1908 1.400 . S
C1909 C1910 1.398 . S
C1910 H1898 0.950 . S
C1910 C1909 1.398 . S
C1910 C1911 1.391 . S
C1911 H1899 0.950 . S
C1911 C1907 1.393 . S
C1911 C1910 1.391 . S
H1912 C1920 0.950 . S
H1913 C1925 0.950 . S
H1914 C1922 0.950 . S
H1915 C1924 0.950 . S
H1916 C1926 0.950 . S
H1917 C1928 0.950 . S
H1918 C1930 0.950 . S
H1919 C1931 0.950 . S
C1920 H1912 0.950 . S
C1920 C1921 1.386 . S
C1920 C1922 1.391 . S
C1921 C1920 1.386 . S
C1921 C1925 1.393 . S
C1922 H1914 0.950 . S
C1922 C1920 1.391 . S
C1922 C1923 1.400 . S
C1923 C1922 1.400 . S
C1923 C1924 1.398 . S
C1923 C1929 1.491 . S
C1924 H1915 0.950 . S
C1924 C1923 1.398 . S
C1924 C1925 1.391 . S
C1925 H1913 0.950 . S
C1925 C1921 1.393 . S
C1925 C1924 1.391 . S
C1926 H1916 0.950 . S
C1926 C1927 1.386 . S
C1926 C1928 1.391 . S
C1927 C1926 1.386 . S
C1927 C1931 1.393 . S
C1928 H1917 0.950 . S
C1928 C1926 1.391 . S
C1928 C1929 1.400 . S
C1929 C1923 1.491 . S
C1929 C1928 1.400 . S
C1929 C1930 1.398 . S
C1930 H1918 0.950 . S
C1930 C1929 1.398 . S
C1930 C1931 1.391 . S
C1931 H1919 0.950 . S
C1931 C1927 1.393 . S
C1931 C1930 1.391 . S
H1932 C1940 0.950 . S
H1933 C1945 0.950 . S
H1934 C1942 0.950 . S
H1935 C1944 0.950 . S
H1936 C1946 0.950 . S
H1937 C1948 0.950 . S
H1938 C1950 0.950 . S
H1939 C1951 0.950 . S
C1940 H1932 0.950 . S
C1940 C1941 1.386 . S
C1940 C1942 1.391 . S
C1941 C1940 1.386 . S
C1941 C1945 1.393 . S
C1942 H1934 0.950 . S
C1942 C1940 1.391 . S
C1942 C1943 1.400 . S
C1943 C1942 1.400 . S
C1943 C1944 1.398 . S
C1943 C1949 1.491 . S
C1944 H1935 0.950 . S
C1944 C1943 1.398 . S
C1944 C1945 1.391 . S
C1945 H1933 0.950 . S
C1945 C1941 1.393 . S
C1945 C1944 1.391 . S
C1946 H1936 0.950 . S
C1946 C1947 1.386 . S
C1946 C1948 1.391 . S
C1947 C1946 1.386 . S
C1947 C1951 1.393 . S
C1948 H1937 0.950 . S
C1948 C1946 1.391 . S
C1948 C1949 1.400 . S
C1949 C1943 1.491 . S
C1949 C1948 1.400 . S
C1949 C1950 1.398 . S
C1950 H1938 0.950 . S
C1950 C1949 1.398 . S
C1950 C1951 1.391 . S
C1951 H1939 0.950 . S
C1951 C1947 1.393 . S
C1951 C1950 1.391 . S
H1952 C1960 0.950 . S
H1953 C1965 0.950 . S
H1954 C1962 0.950 . S
H1955 C1964 0.950 . S
H1956 C1966 0.950 . S
H1957 C1968 0.950 . S
H1958 C1970 0.950 . S
H1959 C1971 0.950 . S
C1960 H1952 0.950 . S
C1960 C1961 1.386 . S
C1960 C1962 1.391 . S
C1961 C1960 1.386 . S
C1961 C1965 1.393 . S
C1962 H1954 0.950 . S
C1962 C1960 1.391 . S
C1962 C1963 1.400 . S
C1963 C1962 1.400 . S
C1963 C1964 1.398 . S
C1963 C1969 1.491 1_554 S
C1964 H1955 0.950 . S
C1964 C1963 1.398 . S
C1964 C1965 1.391 . S
C1965 H1953 0.950 . S
C1965 C1961 1.393 . S
C1965 C1964 1.391 . S
C1966 H1956 0.950 . S
C1966 C1967 1.386 . S
C1966 C1968 1.391 . S
C1967 C1966 1.386 . S
C1967 C1971 1.393 . S
C1968 H1957 0.950 . S
C1968 C1966 1.391 . S
C1968 C1969 1.400 . S
C1969 C1963 1.491 1_556 S
C1969 C1968 1.400 . S
C1969 C1970 1.398 . S
C1970 H1958 0.950 . S
C1970 C1969 1.398 . S
C1970 C1971 1.391 . S
C1971 H1959 0.950 . S
C1971 C1967 1.393 . S
C1971 C1970 1.391 . S
H1972 C1980 0.950 . S
H1973 C1985 0.950 . S
H1974 C1982 0.950 . S
H1975 C1984 0.950 . S
H1976 C1986 0.950 . S
H1977 C1988 0.950 . S
H1978 C1990 0.950 . S
H1979 C1991 0.950 . S
C1980 H1972 0.950 . S
C1980 C1981 1.386 . S
C1980 C1982 1.391 . S
C1981 C1980 1.386 . S
C1981 C1985 1.393 . S
C1982 H1974 0.950 . S
C1982 C1980 1.391 . S
C1982 C1983 1.400 . S
C1983 C1982 1.400 . S
C1983 C1984 1.398 . S
C1983 C1989 1.491 1_556 S
C1984 H1975 0.950 . S
C1984 C1983 1.398 . S
C1984 C1985 1.391 . S
C1985 H1973 0.950 . S
C1985 C1981 1.393 . S
C1985 C1984 1.391 . S
C1986 H1976 0.950 . S
C1986 C1987 1.386 . S
C1986 C1988 1.391 . S
C1987 C1986 1.386 . S
C1987 C1991 1.393 . S
C1988 H1977 0.950 . S
C1988 C1986 1.391 . S
C1988 C1989 1.400 . S
C1989 C1983 1.491 1_554 S
C1989 C1988 1.400 . S
C1989 C1990 1.398 . S
C1990 H1978 0.950 . S
C1990 C1989 1.398 . S
C1990 C1991 1.391 . S
C1991 H1979 0.950 . S
C1991 C1987 1.393 . S
C1991 C1990 1.391 . S
H1992 C2000 0.950 . S
H1993 C2005 0.950 . S
H1994 C2002 0.950 . S
H1995 C2004 0.950 . S
H1996 C2006 0.950 . S
H1997 C2008 0.950 . S
H1998 C2010 0.950 . S
H1999 C2011 0.950 . S
C2000 H1992 0.950 . S
C2000 C2001 1.386 . S
C2000 C2002 1.391 . S
C2001 C2000 1.386 . S
C2001 C2005 1.393 . S
C2002 H1994 0.950 . S
C2002 C2000 1.391 . S
C2002 C2003 1.400 . S
C2003 C2002 1.400 . S
C2003 C2004 1.398 . S
C2003 C2009 1.491 1_554 S
C2004 H1995 0.950 . S
C2004 C2003 1.398 . S
C2004 C2005 1.391 . S
C2005 H1993 0.950 . S
C2005 C2001 1.393 . S
C2005 C2004 1.391 . S
C2006 H1996 0.950 . S
C2006 C2007 1.386 . S
C2006 C2008 1.391 . S
C2007 C2006 1.386 . S
C2007 C2011 1.393 . S
C2008 H1997 0.950 . S
C2008 C2006 1.391 . S
C2008 C2009 1.400 . S
C2009 C2003 1.491 1_556 S
C2009 C2008 1.400 . S
C2009 C2010 1.398 . S
C2010 H1998 0.950 . S
C2010 C2009 1.398 . S
C2010 C2011 1.391 . S
C2011 H1999 0.950 . S
C2011 C2007 1.393 . S
C2011 C2010 1.391 . S
H2012 C2020 0.950 . S
H2013 C2025 0.950 . S
H2014 C2022 0.950 . S
H2015 C2024 0.950 . S
H2016 C2026 0.950 . S
H2017 C2028 0.950 . S
H2018 C2030 0.950 . S
H2019 C2031 0.950 . S
C2020 H2012 0.950 . S
C2020 C2021 1.386 . S
C2020 C2022 1.391 . S
C2021 C2020 1.386 . S
C2021 C2025 1.393 . S
C2022 H2014 0.950 . S
C2022 C2020 1.391 . S
C2022 C2023 1.400 . S
C2023 C2022 1.400 . S
C2023 C2024 1.398 . S
C2023 C2029 1.491 1_554 S
C2024 H2015 0.950 . S
C2024 C2023 1.398 . S
C2024 C2025 1.391 . S
C2025 H2013 0.950 . S
C2025 C2021 1.393 . S
C2025 C2024 1.391 . S
C2026 H2016 0.950 . S
C2026 C2027 1.386 . S
C2026 C2028 1.391 . S
C2027 C2026 1.386 . S
C2027 C2031 1.393 . S
C2028 H2017 0.950 . S
C2028 C2026 1.391 . S
C2028 C2029 1.400 . S
C2029 C2023 1.491 1_556 S
C2029 C2028 1.400 . S
C2029 C2030 1.398 . S
C2030 H2018 0.950 . S
C2030 C2029 1.398 . S
C2030 C2031 1.391 . S
C2031 H2019 0.950 . S
C2031 C2027 1.393 . S
C2031 C2030 1.391 . S
H2032 C2040 0.950 . S
H2033 C2045 0.950 . S
H2034 C2042 0.950 . S
H2035 C2044 0.950 . S
H2036 C2046 0.950 . S
H2037 C2048 0.950 . S
H2038 C2050 0.950 . S
H2039 C2051 0.950 . S
C2040 H2032 0.950 . S
C2040 C2041 1.386 . S
C2040 C2042 1.391 . S
C2041 C2040 1.386 . S
C2041 C2045 1.393 . S
C2042 H2034 0.950 . S
C2042 C2040 1.391 . S
C2042 C2043 1.400 . S
C2043 C2042 1.400 . S
C2043 C2044 1.398 . S
C2043 C2049 1.491 1_554 S
C2044 H2035 0.950 . S
C2044 C2043 1.398 . S
C2044 C2045 1.391 . S
C2045 H2033 0.950 . S
C2045 C2041 1.393 . S
C2045 C2044 1.391 . S
C2046 H2036 0.950 . S
C2046 C2047 1.386 . S
C2046 C2048 1.391 . S
C2047 C2046 1.386 . S
C2047 C2051 1.393 . S
C2048 H2037 0.950 . S
C2048 C2046 1.391 . S
C2048 C2049 1.400 . S
C2049 C2043 1.491 1_556 S
C2049 C2048 1.400 . S
C2049 C2050 1.398 . S
C2050 H2038 0.950 . S
C2050 C2049 1.398 . S
C2050 C2051 1.391 . S
C2051 H2039 0.950 . S
C2051 C2047 1.393 . S
C2051 C2050 1.391 . S
H2052 C2060 0.950 . S
H2053 C2065 0.950 . S
H2054 C2062 0.950 . S
H2055 C2064 0.950 . S
H2056 C2066 0.950 . S
H2057 C2068 0.950 . S
H2058 C2070 0.950 . S
H2059 C2071 0.950 . S
C2060 H2052 0.950 . S
C2060 C2061 1.386 . S
C2060 C2062 1.391 . S
C2061 C2060 1.386 . S
C2061 C2065 1.393 . S
C2062 H2054 0.950 . S
C2062 C2060 1.391 . S
C2062 C2063 1.400 . S
C2063 C2062 1.400 . S
C2063 C2064 1.398 . S
C2063 C2069 1.491 1_554 S
C2064 H2055 0.950 . S
C2064 C2063 1.398 . S
C2064 C2065 1.391 . S
C2065 H2053 0.950 . S
C2065 C2061 1.393 . S
C2065 C2064 1.391 . S
C2066 H2056 0.950 . S
C2066 C2067 1.386 . S
C2066 C2068 1.391 . S
C2067 C2066 1.386 . S
C2067 C2071 1.393 . S
C2068 H2057 0.950 . S
C2068 C2066 1.391 . S
C2068 C2069 1.400 . S
C2069 C2063 1.491 1_556 S
C2069 C2068 1.400 . S
C2069 C2070 1.398 . S
C2070 H2058 0.950 . S
C2070 C2069 1.398 . S
C2070 C2071 1.391 . S
C2071 H2059 0.950 . S
C2071 C2067 1.393 . S
C2071 C2070 1.391 . S
H2072 C2080 0.950 . S
H2073 C2085 0.950 . S
H2074 C2082 0.950 . S
H2075 C2084 0.950 . S
H2076 C2086 0.950 . S
H2077 C2088 0.950 . S
H2078 C2090 0.950 . S
H2079 C2091 0.950 . S
C2080 H2072 0.950 . S
C2080 C2081 1.386 . S
C2080 C2082 1.391 . S
C2081 C2080 1.386 . S
C2081 C2085 1.393 . S
C2082 H2074 0.950 . S
C2082 C2080 1.391 . S
C2082 C2083 1.400 . S
C2083 C2082 1.400 . S
C2083 C2084 1.398 . S
C2083 C2089 1.491 1_556 S
C2084 H2075 0.950 . S
C2084 C2083 1.398 . S
C2084 C2085 1.391 . S
C2085 H2073 0.950 . S
C2085 C2081 1.393 . S
C2085 C2084 1.391 . S
C2086 H2076 0.950 . S
C2086 C2087 1.386 . S
C2086 C2088 1.391 . S
C2087 C2086 1.386 . S
C2087 C2091 1.393 . S
C2088 H2077 0.950 . S
C2088 C2086 1.391 . S
C2088 C2089 1.400 . S
C2089 C2083 1.491 1_554 S
C2089 C2088 1.400 . S
C2089 C2090 1.398 . S
C2090 H2078 0.950 . S
C2090 C2089 1.398 . S
C2090 C2091 1.391 . S
C2091 H2079 0.950 . S
C2091 C2087 1.393 . S
C2091 C2090 1.391 . S
H2092 C2100 0.950 . S
H2093 C2105 0.950 . S
H2094 C2102 0.950 . S
H2095 C2104 0.950 . S
H2096 C2106 0.950 . S
H2097 C2108 0.950 . S
H2098 C2110 0.950 . S
H2099 C2111 0.950 . S
C2100 H2092 0.950 . S
C2100 C2101 1.386 . S
C2100 C2102 1.391 . S
C2101 C2100 1.386 . S
C2101 C2105 1.393 . S
C2102 H2094 0.950 . S
C2102 C2100 1.391 . S
C2102 C2103 1.400 . S
C2103 C2102 1.400 . S
C2103 C2104 1.398 . S
C2103 C2109 1.491 1_556 S
C2104 H2095 0.950 . S
C2104 C2103 1.398 . S
C2104 C2105 1.391 . S
C2105 H2093 0.950 . S
C2105 C2101 1.393 . S
C2105 C2104 1.391 . S
C2106 H2096 0.950 . S
C2106 C2107 1.386 . S
C2106 C2108 1.391 . S
C2107 C2106 1.386 . S
C2107 C2111 1.393 . S
C2108 H2097 0.950 . S
C2108 C2106 1.391 . S
C2108 C2109 1.400 . S
C2109 C2103 1.491 1_554 S
C2109 C2108 1.400 . S
C2109 C2110 1.398 . S
C2110 H2098 0.950 . S
C2110 C2109 1.398 . S
C2110 C2111 1.391 . S
C2111 H2099 0.950 . S
C2111 C2107 1.393 . S
C2111 C2110 1.391 . S
H2112 C2120 0.950 . S
H2113 C2125 0.950 . S
H2114 C2122 0.950 . S
H2115 C2124 0.950 . S
H2116 C2126 0.950 . S
H2117 C2128 0.950 . S
H2118 C2130 0.950 . S
H2119 C2131 0.950 . S
C2120 H2112 0.950 . S
C2120 C2121 1.386 . S
C2120 C2122 1.391 . S
C2121 C2120 1.386 . S
C2121 C2125 1.393 . S
C2122 H2114 0.950 . S
C2122 C2120 1.391 . S
C2122 C2123 1.400 . S
C2123 C2122 1.400 . S
C2123 C2124 1.398 . S
C2123 C2129 1.491 . S
C2124 H2115 0.950 . S
C2124 C2123 1.398 . S
C2124 C2125 1.391 . S
C2125 H2113 0.950 . S
C2125 C2121 1.393 . S
C2125 C2124 1.391 . S
C2126 H2116 0.950 . S
C2126 C2127 1.386 . S
C2126 C2128 1.391 . S
C2127 C2126 1.386 . S
C2127 C2131 1.393 . S
C2128 H2117 0.950 . S
C2128 C2126 1.391 . S
C2128 C2129 1.400 . S
C2129 C2123 1.491 . S
C2129 C2128 1.400 . S
C2129 C2130 1.398 . S
C2130 H2118 0.950 . S
C2130 C2129 1.398 . S
C2130 C2131 1.391 . S
C2131 H2119 0.950 . S
C2131 C2127 1.393 . S
C2131 C2130 1.391 . S
H2132 C2140 0.950 . S
H2133 C2145 0.950 . S
H2134 C2142 0.950 . S
H2135 C2144 0.950 . S
H2136 C2146 0.950 . S
H2137 C2148 0.950 . S
H2138 C2150 0.950 . S
H2139 C2151 0.950 . S
C2140 H2132 0.950 . S
C2140 C2141 1.386 . S
C2140 C2142 1.391 . S
C2141 C2140 1.386 . S
C2141 C2145 1.393 . S
C2142 H2134 0.950 . S
C2142 C2140 1.391 . S
C2142 C2143 1.400 . S
C2143 C2142 1.400 . S
C2143 C2144 1.398 . S
C2143 C2149 1.491 . S
C2144 H2135 0.950 . S
C2144 C2143 1.398 . S
C2144 C2145 1.391 . S
C2145 H2133 0.950 . S
C2145 C2141 1.393 . S
C2145 C2144 1.391 . S
C2146 H2136 0.950 . S
C2146 C2147 1.386 . S
C2146 C2148 1.391 . S
C2147 C2146 1.386 . S
C2147 C2151 1.393 . S
C2148 H2137 0.950 . S
C2148 C2146 1.391 . S
C2148 C2149 1.400 . S
C2149 C2143 1.491 . S
C2149 C2148 1.400 . S
C2149 C2150 1.398 . S
C2150 H2138 0.950 . S
C2150 C2149 1.398 . S
C2150 C2151 1.391 . S
C2151 H2139 0.950 . S
C2151 C2147 1.393 . S
C2151 C2150 1.391 . S
H2152 C2160 0.950 . S
H2153 C2165 0.950 . S
H2154 C2162 0.950 . S
H2155 C2164 0.950 . S
H2156 C2166 0.950 . S
H2157 C2168 0.950 . S
H2158 C2170 0.950 . S
H2159 C2171 0.950 . S
C2160 H2152 0.950 . S
C2160 C2161 1.386 . S
C2160 C2162 1.391 . S
C2161 C2160 1.386 . S
C2161 C2165 1.393 . S
C2162 H2154 0.950 . S
C2162 C2160 1.391 . S
C2162 C2163 1.400 . S
C2163 C2162 1.400 . S
C2163 C2164 1.398 . S
C2163 C2169 1.491 . S
C2164 H2155 0.950 . S
C2164 C2163 1.398 . S
C2164 C2165 1.391 . S
C2165 H2153 0.950 . S
C2165 C2161 1.393 . S
C2165 C2164 1.391 . S
C2166 H2156 0.950 . S
C2166 C2167 1.386 . S
C2166 C2168 1.391 . S
C2167 C2166 1.386 . S
C2167 C2171 1.393 . S
C2168 H2157 0.950 . S
C2168 C2166 1.391 . S
C2168 C2169 1.400 . S
C2169 C2163 1.491 . S
C2169 C2168 1.400 . S
C2169 C2170 1.398 . S
C2170 H2158 0.950 . S
C2170 C2169 1.398 . S
C2170 C2171 1.391 . S
C2171 H2159 0.950 . S
C2171 C2167 1.393 . S
C2171 C2170 1.391 . S
H2172 C2180 0.950 . S
H2173 C2185 0.950 . S
H2174 C2182 0.950 . S
H2175 C2184 0.950 . S
H2176 C2186 0.950 . S
H2177 C2188 0.950 . S
H2178 C2190 0.950 . S
H2179 C2191 0.950 . S
C2180 H2172 0.950 . S
C2180 C2181 1.386 . S
C2180 C2182 1.391 . S
C2181 C2180 1.386 . S
C2181 C2185 1.393 . S
C2182 H2174 0.950 . S
C2182 C2180 1.391 . S
C2182 C2183 1.400 . S
C2183 C2182 1.400 . S
C2183 C2184 1.398 . S
C2183 C2189 1.491 . S
C2184 H2175 0.950 . S
C2184 C2183 1.398 . S
C2184 C2185 1.391 . S
C2185 H2173 0.950 . S
C2185 C2181 1.393 . S
C2185 C2184 1.391 . S
C2186 H2176 0.950 . S
C2186 C2187 1.386 . S
C2186 C2188 1.391 . S
C2187 C2186 1.386 . S
C2187 C2191 1.393 . S
C2188 H2177 0.950 . S
C2188 C2186 1.391 . S
C2188 C2189 1.400 . S
C2189 C2183 1.491 . S
C2189 C2188 1.400 . S
C2189 C2190 1.398 . S
C2190 H2178 0.950 . S
C2190 C2189 1.398 . S
C2190 C2191 1.391 . S
C2191 H2179 0.950 . S
C2191 C2187 1.393 . S
C2191 C2190 1.391 . S
H2192 C2200 0.950 . S
H2193 C2205 0.950 . S
H2194 C2202 0.950 . S
H2195 C2204 0.950 . S
H2196 C2206 0.950 . S
H2197 C2208 0.950 . S
H2198 C2210 0.950 . S
H2199 C2211 0.950 . S
C2200 H2192 0.950 . S
C2200 C2201 1.386 . S
C2200 C2202 1.391 . S
C2201 C2200 1.386 . S
C2201 C2205 1.393 . S
C2202 H2194 0.950 . S
C2202 C2200 1.391 . S
C2202 C2203 1.400 . S
C2203 C2202 1.400 . S
C2203 C2204 1.398 . S
C2203 C2209 1.491 . S
C2204 H2195 0.950 . S
C2204 C2203 1.398 . S
C2204 C2205 1.391 . S
C2205 H2193 0.950 . S
C2205 C2201 1.393 . S
C2205 C2204 1.391 . S
C2206 H2196 0.950 . S
C2206 C2207 1.386 . S
C2206 C2208 1.391 . S
C2207 C2206 1.386 . S
C2207 C2211 1.393 . S
C2208 H2197 0.950 . S
C2208 C2206 1.391 . S
C2208 C2209 1.400 . S
C2209 C2203 1.491 . S
C2209 C2208 1.400 . S
C2209 C2210 1.398 . S
C2210 H2198 0.950 . S
C2210 C2209 1.398 . S
C2210 C2211 1.391 . S
C2211 H2199 0.950 . S
C2211 C2207 1.393 . S
C2211 C2210 1.391 . S
H2212 C2220 0.950 . S
H2213 C2225 0.950 . S
H2214 C2222 0.950 . S
H2215 C2224 0.950 . S
H2216 C2226 0.950 . S
H2217 C2228 0.950 . S
H2218 C2230 0.950 . S
H2219 C2231 0.950 . S
C2220 H2212 0.950 . S
C2220 C2221 1.386 . S
C2220 C2222 1.391 . S
C2221 C2220 1.386 . S
C2221 C2225 1.393 . S
C2222 H2214 0.950 . S
C2222 C2220 1.391 . S
C2222 C2223 1.400 . S
C2223 C2222 1.400 . S
C2223 C2224 1.398 . S
C2223 C2229 1.491 . S
C2224 H2215 0.950 . S
C2224 C2223 1.398 . S
C2224 C2225 1.391 . S
C2225 H2213 0.950 . S
C2225 C2221 1.393 . S
C2225 C2224 1.391 . S
C2226 H2216 0.950 . S
C2226 C2227 1.386 . S
C2226 C2228 1.391 . S
C2227 C2226 1.386 . S
C2227 C2231 1.393 . S
C2228 H2217 0.950 . S
C2228 C2226 1.391 . S
C2228 C2229 1.400 . S
C2229 C2223 1.491 . S
C2229 C2228 1.400 . S
C2229 C2230 1.398 . S
C2230 H2218 0.950 . S
C2230 C2229 1.398 . S
C2230 C2231 1.391 . S
C2231 H2219 0.950 . S
C2231 C2227 1.393 . S
C2231 C2230 1.391 . S
H2232 C2240 0.950 . S
H2233 C2245 0.950 . S
H2234 C2242 0.950 . S
H2235 C2244 0.950 . S
H2236 C2246 0.950 . S
H2237 C2248 0.950 . S
H2238 C2250 0.950 . S
H2239 C2251 0.950 . S
C2240 H2232 0.950 . S
C2240 C2241 1.386 . S
C2240 C2242 1.391 . S
C2241 C2240 1.386 . S
C2241 C2245 1.393 . S
C2242 H2234 0.950 . S
C2242 C2240 1.391 . S
C2242 C2243 1.400 . S
C2243 C2242 1.400 . S
C2243 C2244 1.398 . S
C2243 C2249 1.491 . S
C2244 H2235 0.950 . S
C2244 C2243 1.398 . S
C2244 C2245 1.391 . S
C2245 H2233 0.950 . S
C2245 C2241 1.393 . S
C2245 C2244 1.391 . S
C2246 H2236 0.950 . S
C2246 C2247 1.386 . S
C2246 C2248 1.391 . S
C2247 C2246 1.386 . S
C2247 C2251 1.393 . S
C2248 H2237 0.950 . S
C2248 C2246 1.391 . S
C2248 C2249 1.400 . S
C2249 C2243 1.491 . S
C2249 C2248 1.400 . S
C2249 C2250 1.398 . S
C2250 H2238 0.950 . S
C2250 C2249 1.398 . S
C2250 C2251 1.391 . S
C2251 H2239 0.950 . S
C2251 C2247 1.393 . S
C2251 C2250 1.391 . S
H2252 C2260 0.950 . S
H2253 C2265 0.950 . S
H2254 C2262 0.950 . S
H2255 C2264 0.950 . S
H2256 C2266 0.950 . S
H2257 C2268 0.950 . S
H2258 C2270 0.950 . S
H2259 C2271 0.950 . S
C2260 H2252 0.950 . S
C2260 C2261 1.386 . S
C2260 C2262 1.391 . S
C2261 C2260 1.386 . S
C2261 C2265 1.393 . S
C2262 H2254 0.950 . S
C2262 C2260 1.391 . S
C2262 C2263 1.400 . S
C2263 C2262 1.400 . S
C2263 C2264 1.398 . S
C2263 C2269 1.491 . S
C2264 H2255 0.950 . S
C2264 C2263 1.398 . S
C2264 C2265 1.391 . S
C2265 H2253 0.950 . S
C2265 C2261 1.393 . S
C2265 C2264 1.391 . S
C2266 H2256 0.950 . S
C2266 C2267 1.386 . S
C2266 C2268 1.391 . S
C2267 C2266 1.386 . S
C2267 C2271 1.393 . S
C2268 H2257 0.950 . S
C2268 C2266 1.391 . S
C2268 C2269 1.400 . S
C2269 C2263 1.491 . S
C2269 C2268 1.400 . S
C2269 C2270 1.398 . S
C2270 H2258 0.950 . S
C2270 C2269 1.398 . S
C2270 C2271 1.391 . S
C2271 H2259 0.950 . S
C2271 C2267 1.393 . S
C2271 C2270 1.391 . S
H2272 C2280 0.950 . S
H2273 C2285 0.950 . S
H2274 C2282 0.950 . S
H2275 C2284 0.950 . S
H2276 C2286 0.950 . S
H2277 C2288 0.950 . S
H2278 C2290 0.950 . S
H2279 C2291 0.950 . S
C2280 H2272 0.950 . S
C2280 C2281 1.386 . S
C2280 C2282 1.391 . S
C2281 C2280 1.386 . S
C2281 C2285 1.393 . S
C2282 H2274 0.950 . S
C2282 C2280 1.391 . S
C2282 C2283 1.400 . S
C2283 C2282 1.400 . S
C2283 C2284 1.398 . S
C2283 C2289 1.491 . S
C2284 H2275 0.950 . S
C2284 C2283 1.398 . S
C2284 C2285 1.391 . S
C2285 H2273 0.950 . S
C2285 C2281 1.393 . S
C2285 C2284 1.391 . S
C2286 H2276 0.950 . S
C2286 C2287 1.386 . S
C2286 C2288 1.391 . S
C2287 C2286 1.386 . S
C2287 C2291 1.393 . S
C2288 H2277 0.950 . S
C2288 C2286 1.391 . S
C2288 C2289 1.400 . S
C2289 C2283 1.491 . S
C2289 C2288 1.400 . S
C2289 C2290 1.398 . S
C2290 H2278 0.950 . S
C2290 C2289 1.398 . S
C2290 C2291 1.391 . S
C2291 H2279 0.950 . S
C2291 C2287 1.393 . S
C2291 C2290 1.391 . S
H2292 C2300 0.950 . S
H2293 C2305 0.950 . S
H2294 C2302 0.950 . S
H2295 C2304 0.950 . S
H2296 C2306 0.950 . S
H2297 C2308 0.950 . S
H2298 C2310 0.950 . S
H2299 C2311 0.950 . S
C2300 H2292 0.950 . S
C2300 C2301 1.386 . S
C2300 C2302 1.391 . S
C2301 C2300 1.386 . S
C2301 C2305 1.393 . S
C2302 H2294 0.950 . S
C2302 C2300 1.391 . S
C2302 C2303 1.400 . S
C2303 C2302 1.400 . S
C2303 C2304 1.398 . S
C2303 C2309 1.491 . S
C2304 H2295 0.950 . S
C2304 C2303 1.398 . S
C2304 C2305 1.391 . S
C2305 H2293 0.950 . S
C2305 C2301 1.393 . S
C2305 C2304 1.391 . S
C2306 H2296 0.950 . S
C2306 C2307 1.386 . S
C2306 C2308 1.391 . S
C2307 C2306 1.386 . S
C2307 C2311 1.393 . S
C2308 H2297 0.950 . S
C2308 C2306 1.391 . S
C2308 C2309 1.400 . S
C2309 C2303 1.491 . S
C2309 C2308 1.400 . S
C2309 C2310 1.398 . S
C2310 H2298 0.950 . S
C2310 C2309 1.398 . S
C2310 C2311 1.391 . S
C2311 H2299 0.950 . S
C2311 C2307 1.393 . S
C2311 C2310 1.391 . S
H2312 C2320 0.950 . S
H2313 C2325 0.950 . S
H2314 C2322 0.950 . S
H2315 C2324 0.950 . S
H2316 C2326 0.950 . S
H2317 C2328 0.950 . S
H2318 C2330 0.950 . S
H2319 C2331 0.950 . S
C2320 H2312 0.950 . S
C2320 C2321 1.386 . S
C2320 C2322 1.391 . S
C2321 C2320 1.386 . S
C2321 C2325 1.393 . S
C2322 H2314 0.950 . S
C2322 C2320 1.391 . S
C2322 C2323 1.400 . S
C2323 C2322 1.400 . S
C2323 C2324 1.398 . S
C2323 C2329 1.491 . S
C2324 H2315 0.950 . S
C2324 C2323 1.398 . S
C2324 C2325 1.391 . S
C2325 H2313 0.950 . S
C2325 C2321 1.393 . S
C2325 C2324 1.391 . S
C2326 H2316 0.950 . S
C2326 C2327 1.386 . S
C2326 C2328 1.391 . S
C2327 C2326 1.386 . S
C2327 C2331 1.393 . S
C2328 H2317 0.950 . S
C2328 C2326 1.391 . S
C2328 C2329 1.400 . S
C2329 C2323 1.491 . S
C2329 C2328 1.400 . S
C2329 C2330 1.398 . S
C2330 H2318 0.950 . S
C2330 C2329 1.398 . S
C2330 C2331 1.391 . S
C2331 H2319 0.950 . S
C2331 C2327 1.393 . S
C2331 C2330 1.391 . S
H2332 C2340 0.950 . S
H2333 C2345 0.950 . S
H2334 C2342 0.950 . S
H2335 C2344 0.950 . S
H2336 C2346 0.950 . S
H2337 C2348 0.950 . S
H2338 C2350 0.950 . S
H2339 C2351 0.950 . S
C2340 H2332 0.950 . S
C2340 C2341 1.386 . S
C2340 C2342 1.391 . S
C2341 C2340 1.386 . S
C2341 C2345 1.393 . S
C2342 H2334 0.950 . S
C2342 C2340 1.391 . S
C2342 C2343 1.400 . S
C2343 C2342 1.400 . S
C2343 C2344 1.398 . S
C2343 C2349 1.491 . S
C2344 H2335 0.950 . S
C2344 C2343 1.398 . S
C2344 C2345 1.391 . S
C2345 H2333 0.950 . S
C2345 C2341 1.393 . S
C2345 C2344 1.391 . S
C2346 H2336 0.950 . S
C2346 C2347 1.386 . S
C2346 C2348 1.391 . S
C2347 C2346 1.386 . S
C2347 C2351 1.393 . S
C2348 H2337 0.950 . S
C2348 C2346 1.391 . S
C2348 C2349 1.400 . S
C2349 C2343 1.491 . S
C2349 C2348 1.400 . S
C2349 C2350 1.398 . S
C2350 H2338 0.950 . S
C2350 C2349 1.398 . S
C2350 C2351 1.391 . S
C2351 H2339 0.950 . S
C2351 C2347 1.393 . S
C2351 C2350 1.391 . S
H2352 C2360 0.950 . S
H2353 C2365 0.950 . S
H2354 C2362 0.950 . S
H2355 C2364 0.950 . S
H2356 C2366 0.950 . S
H2357 C2368 0.950 . S
H2358 C2370 0.950 . S
H2359 C2371 0.950 . S
C2360 H2352 0.950 . S
C2360 C2361 1.386 . S
C2360 C2362 1.391 . S
C2361 C2360 1.386 . S
C2361 C2365 1.393 . S
C2362 H2354 0.950 . S
C2362 C2360 1.391 . S
C2362 C2363 1.400 . S
C2363 C2362 1.400 . S
C2363 C2364 1.398 . S
C2363 C2369 1.491 . S
C2364 H2355 0.950 . S
C2364 C2363 1.398 . S
C2364 C2365 1.391 . S
C2365 H2353 0.950 . S
C2365 C2361 1.393 . S
C2365 C2364 1.391 . S
C2366 H2356 0.950 . S
C2366 C2367 1.386 . S
C2366 C2368 1.391 . S
C2367 C2366 1.386 . S
C2367 C2371 1.393 . S
C2368 H2357 0.950 . S
C2368 C2366 1.391 . S
C2368 C2369 1.400 . S
C2369 C2363 1.491 . S
C2369 C2368 1.400 . S
C2369 C2370 1.398 . S
C2370 H2358 0.950 . S
C2370 C2369 1.398 . S
C2370 C2371 1.391 . S
C2371 H2359 0.950 . S
C2371 C2367 1.393 . S
C2371 C2370 1.391 . S
H2372 C2380 0.950 . S
H2373 C2385 0.950 . S
H2374 C2382 0.950 . S
H2375 C2384 0.950 . S
H2376 C2386 0.950 . S
H2377 C2388 0.950 . S
H2378 C2390 0.950 . S
H2379 C2391 0.950 . S
C2380 H2372 0.950 . S
C2380 C2381 1.386 . S
C2380 C2382 1.391 . S
C2381 C2380 1.386 . S
C2381 C2385 1.393 . S
C2382 H2374 0.950 . S
C2382 C2380 1.391 . S
C2382 C2383 1.400 . S
C2383 C2382 1.400 . S
C2383 C2384 1.398 . S
C2383 C2389 1.491 . S
C2384 H2375 0.950 . S
C2384 C2383 1.398 . S
C2384 C2385 1.391 . S
C2385 H2373 0.950 . S
C2385 C2381 1.393 . S
C2385 C2384 1.391 . S
C2386 H2376 0.950 . S
C2386 C2387 1.386 . S
C2386 C2388 1.391 . S
C2387 C2386 1.386 . S
C2387 C2391 1.393 . S
C2388 H2377 0.950 . S
C2388 C2386 1.391 . S
C2388 C2389 1.400 . S
C2389 C2383 1.491 . S
C2389 C2388 1.400 . S
C2389 C2390 1.398 . S
C2390 H2378 0.950 . S
C2390 C2389 1.398 . S
C2390 C2391 1.391 . S
C2391 H2379 0.950 . S
C2391 C2387 1.393 . S
C2391 C2390 1.391 . S
H2392 C2400 0.950 . S
H2393 C2405 0.950 . S
H2394 C2402 0.950 . S
H2395 C2404 0.950 . S
H2396 C2406 0.950 . S
H2397 C2408 0.950 . S
H2398 C2410 0.950 . S
H2399 C2411 0.950 . S
C2400 H2392 0.950 . S
C2400 C2401 1.386 . S
C2400 C2402 1.391 . S
C2401 C2400 1.386 . S
C2401 C2405 1.393 . S
C2402 H2394 0.950 . S
C2402 C2400 1.391 . S
C2402 C2403 1.400 . S
C2403 C2402 1.400 . S
C2403 C2404 1.398 . S
C2403 C2409 1.491 . S
C2404 H2395 0.950 . S
C2404 C2403 1.398 . S
C2404 C2405 1.391 . S
C2405 H2393 0.950 . S
C2405 C2401 1.393 . S
C2405 C2404 1.391 . S
C2406 H2396 0.950 . S
C2406 C2407 1.386 . S
C2406 C2408 1.391 . S
C2407 C2406 1.386 . S
C2407 C2411 1.393 . S
C2408 H2397 0.950 . S
C2408 C2406 1.391 . S
C2408 C2409 1.400 . S
C2409 C2403 1.491 . S
C2409 C2408 1.400 . S
C2409 C2410 1.398 . S
C2410 H2398 0.950 . S
C2410 C2409 1.398 . S
C2410 C2411 1.391 . S
C2411 H2399 0.950 . S
C2411 C2407 1.393 . S
C2411 C2410 1.391 . S
H2412 C2420 0.950 . S
H2413 C2425 0.950 . S
H2414 C2422 0.950 . S
H2415 C2424 0.950 . S
H2416 C2426 0.950 . S
H2417 C2428 0.950 . S
H2418 C2430 0.950 . S
H2419 C2431 0.950 . S
C2420 H2412 0.950 . S
C2420 C2421 1.386 . S
C2420 C2422 1.391 . S
C2421 C2420 1.386 . S
C2421 C2425 1.393 . S
C2422 H2414 0.950 . S
C2422 C2420 1.391 . S
C2422 C2423 1.400 . S
C2423 C2422 1.400 . S
C2423 C2424 1.398 . S
C2423 C2429 1.491 . S
C2424 H2415 0.950 . S
C2424 C2423 1.398 . S
C2424 C2425 1.391 . S
C2425 H2413 0.950 . S
C2425 C2421 1.393 . S
C2425 C2424 1.391 . S
C2426 H2416 0.950 . S
C2426 C2427 1.386 . S
C2426 C2428 1.391 . S
C2427 C2426 1.386 . S
C2427 C2431 1.393 . S
C2428 H2417 0.950 . S
C2428 C2426 1.391 . S
C2428 C2429 1.400 . S
C2429 C2423 1.491 . S
C2429 C2428 1.400 . S
C2429 C2430 1.398 . S
C2430 H2418 0.950 . S
C2430 C2429 1.398 . S
C2430 C2431 1.391 . S
C2431 H2419 0.950 . S
C2431 C2427 1.393 . S
C2431 C2430 1.391 . S
C1161 C544 1.347 . S
C1167 C4 1.340 . S
C1181 C38 1.502 . S
C1187 C436 1.504 . S
C1201 C76 1.347 . S
C1207 C472 1.340 . S
C1221 C508 1.513 . S
C1227 C110 1.494 . S
C1241 C148 1.338 . S
C1247 C328 1.349 . S
C1261 C182 1.499 . S
C1267 C364 1.509 . S
C1281 C400 1.348 . S
C1287 C220 1.338 . S
C1301 C292 1.511 . S
C1307 C254 1.497 . S
C1321 C580 1.342 . S
C1327 C1120 1.345 . S
C1341 C614 1.499 . S
C1347 C1012 1.507 . S
C1361 C652 1.345 . S
C1367 C1048 1.340 . S
C1381 C1084 1.500 . S
C1387 C686 1.508 . S
C1401 C724 1.338 . S
C1407 C904 1.348 . S
C1421 C758 1.498 . S
C1427 C940 1.508 . S
C1441 C976 1.335 . S
C1447 C796 1.350 . S
C1461 C830 1.503 . S
C1467 C868 1.506 . S
C1481 C435 1.335 . S
C1487 C3 1.336 . S
C1501 C50 1.226 . S
C1507 C471 1.300 . S
C1521 C507 1.335 . S
C1527 C75 1.335 . S
C1541 C122 1.230 . S
C1547 C543 1.300 . S
C1561 C147 1.335 . S
C1567 C291 1.335 . S
C1581 C327 1.300 . S
C1587 C194 1.227 . S
C1601 C363 1.337 . S
C1607 C219 1.334 . S
C1621 C399 1.296 . S
C1627 C266 1.252 . S
C1641 C579 1.335 . S
C1647 C1011 1.335 . S
C1661 C1047 1.294 . S
C1667 C626 1.258 . S
C1681 C651 1.337 . S
C1687 C1083 1.333 . S
C1701 C698 1.234 . S
C1707 C1119 1.299 . S
C1721 C867 1.337 . S
C1727 C723 1.334 . S
C1741 C770 1.233 . S
C1747 C903 1.299 . S
C1761 C795 1.334 . S
C1767 C939 1.337 . S
C1781 C842 1.252 . S
C1787 C975 1.296 . S
C1801 C2 1.322 . S
C1807 C362 1.300 . S
C1821 C398 1.305 . S
C1827 C40 1.286 . S
C1841 C74 1.307 . S
C1847 C290 1.316 . S
C1861 C326 1.303 . S
C1867 C112 1.290 . S
C1881 C506 1.299 . S
C1887 C146 1.323 . S
C1901 C542 1.294 . S
C1907 C184 1.299 . S
C1921 C434 1.321 . S
C1927 C218 1.302 . S
C1941 C256 1.290 . S
C1947 C470 1.299 . S
C1961 C938 1.316 . S
C1967 C578 1.307 . S
C1981 C616 1.290 . S
C1987 C974 1.303 . S
C2001 C866 1.298 . S
C2007 C650 1.324 . S
C2021 C902 1.303 . S
C2027 C688 1.286 . S
C2041 C722 1.324 . S
C2047 C1082 1.298 . S
C2061 C760 1.303 . S
C2067 C1118 1.287 . S
C2081 C1010 1.312 . S
C2087 C794 1.310 . S
C2101 C1046 1.301 . S
C2107 C832 1.291 . S
C2121 C831 1.166 . S
C2127 C14 1.120 . S
C2141 C734 1.119 . S
C2147 C39 1.167 . S
C2161 C759 1.172 . S
C2167 C86 1.109 . S
C2181 C806 1.114 . S
C2187 C111 1.168 . S
C2201 C615 1.169 . S
C2207 C158 1.113 . S
C2221 C183 1.169 . S
C2227 C662 1.113 . S
C2241 C230 1.142 . S
C2247 C687 1.164 . S
C2261 C255 1.167 . S
C2267 C590 1.117 . S
C2281 C302 1.182 . S
C2287 C1130 1.142 . S
C2301 C1022 1.183 . S
C2307 C338 1.142 . S
C2321 C374 1.184 . S
C2327 C1058 1.159 . S
C2341 C410 1.147 . S
C2347 C1094 1.172 . S
C2361 C914 1.147 . S
C2367 C446 1.172 . S
C2381 C950 1.187 . S
C2387 C482 1.151 . S
C2401 C518 1.175 . S
C2407 C986 1.170 . S
C2421 C554 1.175 . S
C2427 C878 1.169 . S
