# Generated by pormake.
# Topology smq, (6)-cn, num edge types: 1
# Building blocks:
#     Node 0, Type 0, BuildingBlock: MAKGUD_clean_sbu_1, # of connection points: 6
#     Node 1, Type 0, BuildingBlock: MAKGUD_clean_sbu_1, # of connection points: 6
#     Node 2, Type 0, BuildingBlock: MAKGUD_clean_sbu_1, # of connection points: 6
#     Node 3, Type 0, BuildingBlock: MAKGUD_clean_sbu_1, # of connection points: 6
#     Node 4, Type 0, BuildingBlock: MAKGUD_clean_sbu_1, # of connection points: 6
#     Node 5, Type 0, BuildingBlock: MAKGUD_clean_sbu_1, # of connection points: 6
#     Node 6, Type 0, BuildingBlock: MAKGUD_clean_sbu_1, # of connection points: 6
#     Node 7, Type 0, BuildingBlock: MAKGUD_clean_sbu_1, # of connection points: 6
#     Node 8, Type 0, BuildingBlock: MAKGUD_clean_sbu_1, # of connection points: 6
#     Node 9, Type 0, BuildingBlock: MAKGUD_clean_sbu_1, # of connection points: 6
#     Node 10, Type 0, BuildingBlock: MAKGUD_clean_sbu_1, # of connection points: 6
#     Node 11, Type 0, BuildingBlock: MAKGUD_clean_sbu_1, # of connection points: 6
#     Node 12, Type 0, BuildingBlock: MAKGUD_clean_sbu_1, # of connection points: 6
#     Node 13, Type 0, BuildingBlock: MAKGUD_clean_sbu_1, # of connection points: 6
#     Node 14, Type 0, BuildingBlock: MAKGUD_clean_sbu_1, # of connection points: 6
#     Node 15, Type 0, BuildingBlock: MAKGUD_clean_sbu_1, # of connection points: 6
#     Node 16, Type 0, BuildingBlock: MAKGUD_clean_sbu_1, # of connection points: 6
#     Node 17, Type 0, BuildingBlock: MAKGUD_clean_sbu_1, # of connection points: 6
#     Node 18, Type 0, BuildingBlock: MAKGUD_clean_sbu_1, # of connection points: 6
#     Node 19, Type 0, BuildingBlock: MAKGUD_clean_sbu_1, # of connection points: 6
#     Node 20, Type 0, BuildingBlock: MAKGUD_clean_sbu_1, # of connection points: 6
#     Node 21, Type 0, BuildingBlock: MAKGUD_clean_sbu_1, # of connection points: 6
#     Node 22, Type 0, BuildingBlock: MAKGUD_clean_sbu_1, # of connection points: 6
#     Node 23, Type 0, BuildingBlock: MAKGUD_clean_sbu_1, # of connection points: 6
#     Edge 24, Type (0, 0), BuildingBlock: CIFDUS_clean_linker_0, # of connection points: 2
#     Edge 25, Type (0, 0), BuildingBlock: CIFDUS_clean_linker_0, # of connection points: 2
#     Edge 26, Type (0, 0), BuildingBlock: CIFDUS_clean_linker_0, # of connection points: 2
#     Edge 27, Type (0, 0), BuildingBlock: CIFDUS_clean_linker_0, # of connection points: 2
#     Edge 28, Type (0, 0), BuildingBlock: CIFDUS_clean_linker_0, # of connection points: 2
#     Edge 29, Type (0, 0), BuildingBlock: CIFDUS_clean_linker_0, # of connection points: 2
#     Edge 30, Type (0, 0), BuildingBlock: CIFDUS_clean_linker_0, # of connection points: 2
#     Edge 31, Type (0, 0), BuildingBlock: CIFDUS_clean_linker_0, # of connection points: 2
#     Edge 32, Type (0, 0), BuildingBlock: CIFDUS_clean_linker_0, # of connection points: 2
#     Edge 33, Type (0, 0), BuildingBlock: CIFDUS_clean_linker_0, # of connection points: 2
#     Edge 34, Type (0, 0), BuildingBlock: CIFDUS_clean_linker_0, # of connection points: 2
#     Edge 35, Type (0, 0), BuildingBlock: CIFDUS_clean_linker_0, # of connection points: 2
#     Edge 36, Type (0, 0), BuildingBlock: CIFDUS_clean_linker_0, # of connection points: 2
#     Edge 37, Type (0, 0), BuildingBlock: CIFDUS_clean_linker_0, # of connection points: 2
#     Edge 38, Type (0, 0), BuildingBlock: CIFDUS_clean_linker_0, # of connection points: 2
#     Edge 39, Type (0, 0), BuildingBlock: CIFDUS_clean_linker_0, # of connection points: 2
#     Edge 40, Type (0, 0), BuildingBlock: CIFDUS_clean_linker_0, # of connection points: 2
#     Edge 41, Type (0, 0), BuildingBlock: CIFDUS_clean_linker_0, # of connection points: 2
#     Edge 42, Type (0, 0), BuildingBlock: CIFDUS_clean_linker_0, # of connection points: 2
#     Edge 43, Type (0, 0), BuildingBlock: CIFDUS_clean_linker_0, # of connection points: 2
#     Edge 44, Type (0, 0), BuildingBlock: CIFDUS_clean_linker_0, # of connection points: 2
#     Edge 45, Type (0, 0), BuildingBlock: CIFDUS_clean_linker_0, # of connection points: 2
#     Edge 46, Type (0, 0), BuildingBlock: CIFDUS_clean_linker_0, # of connection points: 2
#     Edge 47, Type (0, 0), BuildingBlock: CIFDUS_clean_linker_0, # of connection points: 2
#     Edge 48, Type (0, 0), BuildingBlock: CIFDUS_clean_linker_0, # of connection points: 2
#     Edge 49, Type (0, 0), BuildingBlock: CIFDUS_clean_linker_0, # of connection points: 2
#     Edge 50, Type (0, 0), BuildingBlock: CIFDUS_clean_linker_0, # of connection points: 2
#     Edge 51, Type (0, 0), BuildingBlock: CIFDUS_clean_linker_0, # of connection points: 2
#     Edge 52, Type (0, 0), BuildingBlock: CIFDUS_clean_linker_0, # of connection points: 2
#     Edge 53, Type (0, 0), BuildingBlock: CIFDUS_clean_linker_0, # of connection points: 2
#     Edge 54, Type (0, 0), BuildingBlock: CIFDUS_clean_linker_0, # of connection points: 2
#     Edge 55, Type (0, 0), BuildingBlock: CIFDUS_clean_linker_0, # of connection points: 2
#     Edge 56, Type (0, 0), BuildingBlock: CIFDUS_clean_linker_0, # of connection points: 2
#     Edge 57, Type (0, 0), BuildingBlock: CIFDUS_clean_linker_0, # of connection points: 2
#     Edge 58, Type (0, 0), BuildingBlock: CIFDUS_clean_linker_0, # of connection points: 2
#     Edge 59, Type (0, 0), BuildingBlock: CIFDUS_clean_linker_0, # of connection points: 2
#     Edge 60, Type (0, 0), BuildingBlock: CIFDUS_clean_linker_0, # of connection points: 2
#     Edge 61, Type (0, 0), BuildingBlock: CIFDUS_clean_linker_0, # of connection points: 2
#     Edge 62, Type (0, 0), BuildingBlock: CIFDUS_clean_linker_0, # of connection points: 2
#     Edge 63, Type (0, 0), BuildingBlock: CIFDUS_clean_linker_0, # of connection points: 2
#     Edge 64, Type (0, 0), BuildingBlock: CIFDUS_clean_linker_0, # of connection points: 2
#     Edge 65, Type (0, 0), BuildingBlock: CIFDUS_clean_linker_0, # of connection points: 2
#     Edge 66, Type (0, 0), BuildingBlock: CIFDUS_clean_linker_0, # of connection points: 2
#     Edge 67, Type (0, 0), BuildingBlock: CIFDUS_clean_linker_0, # of connection points: 2
#     Edge 68, Type (0, 0), BuildingBlock: CIFDUS_clean_linker_0, # of connection points: 2
#     Edge 69, Type (0, 0), BuildingBlock: CIFDUS_clean_linker_0, # of connection points: 2
#     Edge 70, Type (0, 0), BuildingBlock: CIFDUS_clean_linker_0, # of connection points: 2
#     Edge 71, Type (0, 0), BuildingBlock: CIFDUS_clean_linker_0, # of connection points: 2
#     Edge 72, Type (0, 0), BuildingBlock: CIFDUS_clean_linker_0, # of connection points: 2
#     Edge 73, Type (0, 0), BuildingBlock: CIFDUS_clean_linker_0, # of connection points: 2
#     Edge 74, Type (0, 0), BuildingBlock: CIFDUS_clean_linker_0, # of connection points: 2
#     Edge 75, Type (0, 0), BuildingBlock: CIFDUS_clean_linker_0, # of connection points: 2
#     Edge 76, Type (0, 0), BuildingBlock: CIFDUS_clean_linker_0, # of connection points: 2
#     Edge 77, Type (0, 0), BuildingBlock: CIFDUS_clean_linker_0, # of connection points: 2
#     Edge 78, Type (0, 0), BuildingBlock: CIFDUS_clean_linker_0, # of connection points: 2
#     Edge 79, Type (0, 0), BuildingBlock: CIFDUS_clean_linker_0, # of connection points: 2
#     Edge 80, Type (0, 0), BuildingBlock: CIFDUS_clean_linker_0, # of connection points: 2
#     Edge 81, Type (0, 0), BuildingBlock: CIFDUS_clean_linker_0, # of connection points: 2
#     Edge 82, Type (0, 0), BuildingBlock: CIFDUS_clean_linker_0, # of connection points: 2
#     Edge 83, Type (0, 0), BuildingBlock: CIFDUS_clean_linker_0, # of connection points: 2
#     Edge 84, Type (0, 0), BuildingBlock: CIFDUS_clean_linker_0, # of connection points: 2
#     Edge 85, Type (0, 0), BuildingBlock: CIFDUS_clean_linker_0, # of connection points: 2
#     Edge 86, Type (0, 0), BuildingBlock: CIFDUS_clean_linker_0, # of connection points: 2
#     Edge 87, Type (0, 0), BuildingBlock: CIFDUS_clean_linker_0, # of connection points: 2
#     Edge 88, Type (0, 0), BuildingBlock: CIFDUS_clean_linker_0, # of connection points: 2
#     Edge 89, Type (0, 0), BuildingBlock: CIFDUS_clean_linker_0, # of connection points: 2
#     Edge 90, Type (0, 0), BuildingBlock: CIFDUS_clean_linker_0, # of connection points: 2
#     Edge 91, Type (0, 0), BuildingBlock: CIFDUS_clean_linker_0, # of connection points: 2
#     Edge 92, Type (0, 0), BuildingBlock: CIFDUS_clean_linker_0, # of connection points: 2
#     Edge 93, Type (0, 0), BuildingBlock: CIFDUS_clean_linker_0, # of connection points: 2
#     Edge 94, Type (0, 0), BuildingBlock: CIFDUS_clean_linker_0, # of connection points: 2
#     Edge 95, Type (0, 0), BuildingBlock: CIFDUS_clean_linker_0, # of connection points: 2
# Relax obj value: 0.250
# Max RMSD: 0.219
# Mean RMSD: 0.219
data_MOF--net-smq--node1-MAKGUD_clean_sbu_1--edge1-CIFDUS_clean_linker_0
_symmetry_space_group_name_H-M    P1
_symmetry_Int_Tables_number       1
_symmetry_cell_setting            triclinic
loop_
_symmetry_equiv_pos_as_xyz
'x, y, z'
_cell_length_a     40.933881
_cell_length_b     41.156897
_cell_length_c     40.852797
_cell_angle_alpha  90.044743
_cell_angle_beta   89.924925
_cell_angle_gamma 90.173849
loop_
_atom_site_label
_atom_site_type_symbol
_atom_site_fract_x
_atom_site_fract_y
_atom_site_fract_z
_atom_type_partial_charge
O0 O 1.02757 0.33253 0.2849 0.0
Tb1 Tb 1.05208 0.3313 0.3313 0.0
C2 C 1.03799 0.30866 0.40162 0.0
O3 O 0.09884 0.27947 0.30778 0.0
Tb4 Tb 0.09412 0.27412 0.36113 0.0
C5 C 0.1411 0.30354 0.39347 0.0
O6 O 0.09992 0.33402 0.30906 0.0
O7 O 0.11692 0.22613 0.35577 0.0
C8 C 0.14543 0.22603 0.34033 0.0
O9 O 0.15701 0.25383 0.32956 0.0
O10 O 1.04431 0.33502 0.38408 0.0
O11 O 1.04997 0.27996 0.39228 0.0
O12 O 1.02924 0.284 0.33214 0.0
C13 C 0.10895 0.30702 0.29481 0.0
C14 C 1.01301 0.36011 0.28915 0.0
O15 O 0.12254 0.31788 0.37199 0.0
O16 O 0.13276 0.27333 0.39686 0.0
C17 C 0.99839 0.28394 0.34114 0.0
O18 O 0.98386 0.31196 0.34611 0.0
O19 O 1.02005 0.37203 0.318 0.0
O20 O 0.32533 0.53175 0.77723 0.0
Tb21 Tb 0.33211 0.5501 0.82615 0.0
C22 C 0.35538 0.53286 0.89541 0.0
O23 O 0.38676 0.59392 0.80369 0.0
Tb24 Tb 0.3949 0.58689 0.85634 0.0
C25 C 0.3744 0.63534 0.8926 0.0
O26 O 0.33238 0.59926 0.8083 0.0
O27 O 0.44443 0.60596 0.84864 0.0
C28 C 0.44552 0.63489 0.83442 0.0
O29 O 0.41781 0.64837 0.82582 0.0
O30 O 0.32908 0.54149 0.8787 0.0
O31 O 0.38503 0.54253 0.88568 0.0
O32 O 0.3778 0.52433 0.8245 0.0
C33 C 0.35939 0.60672 0.79293 0.0
C34 C 0.29787 0.51696 0.78257 0.0
O35 O 0.35632 0.62037 0.87097 0.0
O36 O 0.40321 0.62249 0.89418 0.0
C37 C 0.37599 0.49341 0.8323 0.0
O38 O 0.34701 0.48038 0.83695 0.0
O39 O 0.28944 0.52021 0.8133 0.0
O40 O 0.12827 0.82829 0.28715 0.0
Tb41 Tb 0.10762 0.83126 0.33547 0.0
C42 C 0.12486 0.85281 0.405 0.0
O43 O 1.0598 0.88239 0.31469 0.0
Tb44 Tb 1.06872 0.89051 0.36724 0.0
C45 C 1.02071 0.8702 0.40465 0.0
O46 O 1.05807 0.828 0.31811 0.0
O47 O 1.04947 0.93954 0.35947 0.0
C48 C 1.01982 0.9401 0.34652 0.0
O49 O 1.00578 0.91226 0.33942 0.0
O50 O 0.11721 0.82677 0.3876 0.0
O51 O 0.11382 0.88199 0.39617 0.0
O52 O 0.13061 0.87858 0.3348 0.0
C53 C 1.04818 0.85454 0.30378 0.0
C54 C 0.14311 0.80081 0.29117 0.0
O55 O 1.03483 0.8523 0.38233 0.0
O56 O 1.03419 0.89868 0.40623 0.0
C57 C 0.16179 0.87901 0.34249 0.0
O58 O 0.17675 0.85118 0.34714 0.0
O59 O 0.1384 0.79003 0.32092 0.0
O60 O 0.82956 0.63184 0.78553 0.0
Tb61 Tb 0.83054 0.60878 0.83261 0.0
C62 C 0.81001 0.62242 0.90362 0.0
O63 O 0.77945 0.55998 0.8113 0.0
Tb64 Tb 0.77469 0.56606 0.86452 0.0
C65 C 0.80519 0.5209 0.89759 0.0
O66 O 0.8343 0.56077 0.81161 0.0
O67 O 0.72769 0.5406 0.85899 0.0
C68 C 0.73061 0.51047 0.84782 0.0
O69 O 0.76022 0.50032 0.84085 0.0
O70 O 0.83603 0.61684 0.88515 0.0
O71 O 0.78098 0.61025 0.89504 0.0
O72 O 0.78269 0.6305 0.83523 0.0
C73 C 0.80721 0.5503 0.79832 0.0
C74 C 0.85697 0.6474 0.78844 0.0
O75 O 0.81873 0.5378 0.87419 0.0
O76 O 0.77532 0.53007 0.9026 0.0
C77 C 0.78265 0.6612 0.84416 0.0
O78 O 0.81086 0.67622 0.84736 0.0
O79 O 0.87006 0.64166 0.81707 0.0
O80 O 1.0303 0.81999 0.87657 0.0
Tb81 Tb 1.04976 0.82263 0.82775 0.0
C82 C 1.03003 0.84708 0.7594 0.0
O83 O 0.09948 0.8733 0.84763 0.0
Tb84 Tb 0.0884 0.883 0.79591 0.0
C85 C 0.13238 0.86294 0.75392 0.0
O86 O 0.09973 0.81877 0.8438 0.0
O87 O 0.11157 0.93012 0.80666 0.0
C88 C 0.14326 0.92781 0.81312 0.0
O89 O 0.15623 0.89866 0.81327 0.0
O90 O 1.03777 0.82038 0.77573 0.0
O91 O 1.04174 0.87591 0.76896 0.0
O92 O 1.02794 0.87012 0.83033 0.0
C93 C 0.11077 0.84516 0.85781 0.0
C94 C 1.0141 0.79315 0.87279 0.0
O95 O 0.12058 0.84498 0.77758 0.0
O96 O 0.11898 0.89147 0.75382 0.0
C97 C 0.99641 0.87061 0.8244 0.0
O98 O 0.98092 0.84279 0.82102 0.0
O99 O 1.01782 0.78228 0.84289 0.0
O100 O 0.82637 0.52371 0.37726 0.0
Tb101 Tb 0.82367 0.5474 0.33059 0.0
C102 C 0.80144 0.53262 0.26043 0.0
O103 O 0.7707 0.59395 0.35282 0.0
Tb104 Tb 0.76628 0.58811 0.2996 0.0
C105 C 0.79821 0.63264 0.26653 0.0
O106 O 0.82556 0.59526 0.35215 0.0
O107 O 0.71945 0.61334 0.30514 0.0
C108 C 0.72255 0.64342 0.31631 0.0
O109 O 0.75224 0.65373 0.32291 0.0
O110 O 0.82775 0.53974 0.27789 0.0
O111 O 0.77227 0.54365 0.26976 0.0
O112 O 0.77671 0.5234 0.32985 0.0
C113 C 0.79819 0.60447 0.36575 0.0
C114 C 0.85473 0.5105 0.37291 0.0
O115 O 0.81102 0.61555 0.29007 0.0
O116 O 0.7681 0.62415 0.26144 0.0
C117 C 0.77725 0.49271 0.32085 0.0
O118 O 0.80572 0.47868 0.31639 0.0
O119 O 0.86604 0.51742 0.34376 0.0
O120 O 0.12349 0.33611 0.885 0.0
Tb121 Tb 0.10634 0.32896 0.83566 0.0
C122 C 0.12545 0.30581 0.76684 0.0
O123 O 1.06052 0.27578 0.85681 0.0
Tb124 Tb 1.06993 0.26723 0.80455 0.0
C125 C 1.02225 0.28658 0.76644 0.0
O126 O 1.05634 0.32995 0.85212 0.0
O127 O 1.05181 0.21771 0.8123 0.0
C128 C 1.02216 0.2163 0.8252 0.0
O129 O 1.00743 0.24371 0.83229 0.0
O130 O 0.11671 0.33208 0.78339 0.0
O131 O 0.11533 0.27649 0.77648 0.0
O132 O 0.13118 0.2829 0.83836 0.0
C133 C 1.04758 0.30322 0.86703 0.0
C134 C 0.13921 0.36294 0.87968 0.0
O135 O 1.03623 0.30495 0.78846 0.0
O136 O 1.03562 0.2581 0.76556 0.0
C137 C 0.16254 0.28384 0.83145 0.0
O138 O 0.17644 0.31227 0.82668 0.0
O139 O 0.13697 0.37087 0.84878 0.0
O140 O 0.32658 0.62269 0.37705 0.0
Tb141 Tb 0.32871 0.60253 0.32853 0.0
C142 C 0.35151 0.61693 0.25866 0.0
O143 O 0.37678 0.55164 0.35082 0.0
Tb144 Tb 0.38866 0.56106 0.29895 0.0
C145 C 0.36905 0.51241 0.26224 0.0
O146 O 0.32212 0.55334 0.34509 0.0
O147 O 0.43836 0.54266 0.30807 0.0
C148 C 0.43983 0.51434 0.32353 0.0
O149 O 0.41236 0.50094 0.33309 0.0
O150 O 0.32496 0.61078 0.27613 0.0
O151 O 0.38052 0.60521 0.26806 0.0
O152 O 0.3766 0.62463 0.32827 0.0
C153 C 0.34762 0.54126 0.35972 0.0
C154 C 0.30043 0.63987 0.37274 0.0
O155 O 0.35015 0.5282 0.28245 0.0
O156 O 0.39827 0.52457 0.26224 0.0
C157 C 0.37641 0.65552 0.32005 0.0
O158 O 0.34804 0.66991 0.31627 0.0
O159 O 0.28954 0.63605 0.34285 0.0
O160 O 0.2829 1.03123 0.33301 0.0
Tb161 Tb 0.33074 1.05196 0.32784 0.0
C162 C 0.39976 1.03838 0.30314 0.0
O163 O 0.30741 0.0989 0.27346 0.0
Tb164 Tb 0.36017 0.09298 0.26579 0.0
C165 C 0.39642 0.141 0.28798 0.0
O166 O 0.31127 0.10074 0.32822 0.0
O167 O 0.35221 0.11318 0.2168 0.0
C168 C 0.338 0.14207 0.21669 0.0
O169 O 0.32988 0.155 0.24493 0.0
O170 O 0.38357 1.04635 0.33007 0.0
O171 O 0.38904 1.04822 0.27392 0.0
O172 O 0.33198 1.02042 0.28538 0.0
C173 C 0.29608 0.10957 0.30159 0.0
C174 C 0.28742 1.01848 0.36169 0.0
O175 O 0.37445 0.12575 0.30546 0.0
O176 O 0.3982 0.12871 0.25881 0.0
C177 C 0.34068 0.99039 0.2924 0.0
O178 O 0.34503 0.98279 0.32332 0.0
O179 O 0.3172 1.02445 0.37196 0.0
O180 O 0.63622 0.77972 0.841 0.0
Tb181 Tb 0.61352 0.8261 0.83478 0.0
C182 C 0.62734 0.89516 0.8104 0.0
O183 O 0.57047 0.80162 0.7773 0.0
Tb184 Tb 0.5737 0.85465 0.7736 0.0
C185 C 0.52623 0.88601 0.80312 0.0
O186 O 0.56599 0.80311 0.83205 0.0
O187 O 0.55071 0.85074 0.72534 0.0
C188 C 0.52221 0.83544 0.72538 0.0
O189 O 0.51136 0.82375 0.75326 0.0
O190 O 0.61904 0.87882 0.83712 0.0
O191 O 0.61786 0.88457 0.78106 0.0
O192 O 0.64535 0.82783 0.79252 0.0
C193 C 0.55949 0.78838 0.80444 0.0
C194 C 0.6467 0.78457 0.87055 0.0
O195 O 0.54392 0.86374 0.81717 0.0
O196 O 0.5358 0.8908 0.77325 0.0
C197 C 0.6759 0.83552 0.79919 0.0
O198 O 0.68463 0.8381 0.83002 0.0
O199 O 0.63917 0.81391 0.88044 0.0
O200 O 0.87581 0.1314 0.33818 0.0
Tb201 Tb 0.82932 0.10722 0.33757 0.0
C202 C 0.7588 0.1201 0.3157 0.0
O203 O 0.85292 1.06135 0.28503 0.0
Tb204 Tb 0.79968 1.06534 0.27983 0.0
C205 C 0.76865 1.01741 0.30879 0.0
O206 O 0.85122 1.0597 0.33993 0.0
O207 O 0.80456 1.0433 0.23108 0.0
C208 C 0.82028 1.0152 0.23034 0.0
O209 O 0.83184 1.00375 0.25798 0.0
O210 O 0.77671 0.11428 0.34202 0.0
O211 O 0.76795 0.10844 0.2866 0.0
O212 O 0.82781 0.12978 0.28998 0.0
C213 C 0.86567 1.05113 0.31272 0.0
C214 C 0.87216 0.14575 0.36617 0.0
O215 O 0.78964 1.03626 0.32353 0.0
O216 O 0.76485 1.02614 0.27857 0.0
C217 C 0.81856 0.16033 0.28988 0.0
O218 O 0.81374 0.17497 0.31808 0.0
O219 O 0.84344 0.13895 0.37858 0.0
O220 O 0.52913 0.37018 0.83971 0.0
Tb221 Tb 0.55101 0.32291 0.83908 0.0
C222 C 0.54001 0.25299 0.81612 0.0
O223 O 0.60152 0.34814 0.79166 0.0
Tb224 Tb 0.59558 0.29579 0.78194 0.0
C225 C 0.64394 0.26475 0.81011 0.0
O226 O 0.59931 0.34254 0.84634 0.0
O227 O 0.61663 0.30117 0.73259 0.0
C228 C 0.64352 0.31908 0.73052 0.0
O229 O 0.65401 0.33355 0.7571 0.0
O230 O 0.54421 0.27061 0.84291 0.0
O231 O 0.55265 0.26288 0.78762 0.0
O232 O 0.53047 0.32183 0.79042 0.0
C233 C 0.61076 0.358 0.8209 0.0
C234 C 0.51149 0.36586 0.86572 0.0
O235 O 0.62376 0.28372 0.82558 0.0
O236 O 0.6363 0.26277 0.77942 0.0
C237 C 0.49985 0.3121 0.78927 0.0
O238 O 0.48446 0.30668 0.81701 0.0
O239 O 0.51575 0.33653 0.87731 0.0
O240 O 0.28418 0.12632 0.82513 0.0
Tb241 Tb 0.3322 0.10545 0.82605 0.0
C242 C 0.4021 0.11513 0.8494 0.0
O243 O 0.3058 1.05308 0.86995 0.0
Tb244 Tb 0.35834 1.05894 0.88117 0.0
C245 C 0.39158 1.01204 0.85275 0.0
O246 O 0.31462 1.05716 0.81602 0.0
O247 O 0.3515 1.03619 0.92942 0.0
C248 C 0.33396 1.00904 0.93004 0.0
O249 O 0.32027 0.99917 0.90273 0.0
O250 O 0.38467 0.11178 0.8224 0.0
O251 O 0.39164 0.1019 0.87744 0.0
O252 O 0.33293 0.12518 0.87512 0.0
C253 C 0.29761 1.04474 0.83996 0.0
C254 C 0.28902 0.1453 0.80025 0.0
O255 O 0.3922 1.01887 0.88369 0.0
O256 O 0.37255 1.03208 0.83724 0.0
C257 C 0.34304 0.15554 0.87651 0.0
O258 O 0.34904 0.17077 0.84888 0.0
O259 O 0.31886 0.14188 0.78917 0.0
O260 O 0.62585 0.89149 0.38479 0.0
Tb261 Tb 0.5863 0.85687 0.38123 0.0
C262 C 0.6026 0.79455 0.34386 0.0
O263 O 0.53877 0.88149 0.31706 0.0
Tb264 Tb 0.54431 0.82903 0.32 0.0
C265 C 0.51049 0.78389 0.28944 0.0
O266 O 0.54278 0.88798 0.37313 0.0
O267 O 0.51484 0.83125 0.36388 0.0
C268 C 0.48424 0.83934 0.35828 0.0
O269 O 0.47469 0.84229 0.32773 0.0
O270 O 0.59188 0.80444 0.37253 0.0
O271 O 0.59342 0.81049 0.31792 0.0
O272 O 0.60659 0.85201 0.43088 0.0
C273 C 0.53242 0.8984 0.34394 0.0
C274 C 0.63532 0.88881 0.35465 0.0
O275 O 0.51497 0.81331 0.27781 0.0
O276 O 0.52464 0.78082 0.31767 0.0
C277 C 0.63366 0.83456 0.43321 0.0
O278 O 0.64455 0.82017 0.40676 0.0
O279 O 0.6166 0.86864 0.33878 0.0
O280 O 0.8786 1.02299 0.82664 0.0
Tb281 Tb 0.83238 1.04716 0.82984 0.0
C282 C 0.76244 1.03277 0.85301 0.0
O283 O 0.8568 0.09088 0.88419 0.0
Tb284 Tb 0.80355 0.0867 0.88911 0.0
C285 C 0.77305 0.13443 0.85967 0.0
O286 O 0.85502 0.09453 0.82934 0.0
O287 O 0.80732 0.10843 0.93795 0.0
C288 C 0.82309 0.13654 0.93902 0.0
O289 O 0.83545 0.14799 0.91167 0.0
O290 O 0.77968 1.0399 0.8265 0.0
O291 O 0.77209 1.04349 0.88224 0.0
O292 O 0.83204 1.02306 0.87666 0.0
C293 C 0.86961 0.10199 0.85681 0.0
C294 C 0.87396 1.00977 0.79825 0.0
O295 O 0.7941 0.11555 0.84523 0.0
O296 O 0.76881 0.12582 0.88987 0.0
C297 C 0.82293 0.99241 0.87627 0.0
O298 O 0.81766 0.9783 0.84787 0.0
O299 O 0.84491 1.01702 0.78716 0.0
O300 O 0.62884 0.37194 0.32509 0.0
Tb301 Tb 0.60784 0.32465 0.33154 0.0
C302 C 0.62216 0.25642 0.35723 0.0
O303 O 0.56376 0.34988 0.38727 0.0
Tb304 Tb 0.56844 0.29725 0.39481 0.0
C305 C 0.51949 0.26195 0.37287 0.0
O306 O 0.55936 0.34539 0.33275 0.0
O307 O 0.54825 0.30561 0.44381 0.0
C308 C 0.51953 0.32038 0.44392 0.0
O309 O 0.50693 0.32886 0.41566 0.0
O310 O 0.61365 0.27204 0.33021 0.0
O311 O 0.61287 0.26767 0.38647 0.0
O312 O 0.64008 0.3243 0.37355 0.0
C313 C 0.55228 0.36128 0.35953 0.0
C314 C 0.6407 0.367 0.29606 0.0
O315 O 0.53515 0.2835 0.35531 0.0
O316 O 0.53188 0.26006 0.40199 0.0
C317 C 0.67047 0.31646 0.36639 0.0
O318 O 0.67829 0.31252 0.33545 0.0
O319 O 0.63446 0.33721 0.28644 0.0
O320 O 0.33258 0.27985 1.02658 0.0
Tb321 Tb 0.3297 0.32799 1.04647 0.0
C322 C 0.30726 0.39725 1.03138 0.0
O323 O 0.27376 0.30591 0.09173 0.0
Tb324 Tb 0.26729 0.35851 0.08572 0.0
C325 C 0.28886 0.39421 0.13427 0.0
O326 O 0.32828 0.30957 0.09584 0.0
O327 O 0.21848 0.35165 0.10717 0.0
C328 C 0.2186 0.33783 0.13651 0.0
O329 O 0.24683 0.32894 0.14875 0.0
O330 O 0.3335 0.38032 1.03958 0.0
O331 O 0.27754 0.38752 1.04098 0.0
O332 O 0.28725 0.3301 1.01515 0.0
C333 C 0.30127 0.29443 0.10351 0.0
C334 C 0.36173 0.28261 1.01436 0.0
O335 O 0.3062 0.37176 0.11979 0.0
O336 O 0.26036 0.3969 0.12079 0.0
C337 C 0.29414 0.33689 0.9844 0.0
O338 O 0.325 0.33834 0.9756 0.0
O339 O 0.37345 0.31184 1.01984 0.0
O340 O 0.32527 0.87544 0.12363 0.0
Tb341 Tb 0.32698 0.8259 0.10671 0.0
C342 C 0.30803 0.75546 0.12374 0.0
O343 O 0.27685 0.84348 1.05713 0.0
Tb344 Tb 0.27012 0.79117 1.06576 0.0
C345 C 0.29248 0.75404 1.01876 0.0
O346 O 0.3315 0.84184 1.05662 0.0
O347 O 0.22178 0.79807 1.04349 0.0
C348 C 0.22285 0.81027 1.01343 0.0
O349 O 0.25163 0.81711 1.00094 0.0
O350 O 0.33363 0.77443 0.11791 0.0
O351 O 0.27876 0.7629 0.11136 0.0
O352 O 0.27896 0.82417 0.12848 0.0
C353 C 0.30464 0.85503 1.04578 0.0
C354 C 0.35183 0.87453 0.14079 0.0
O355 O 0.30969 0.77685 1.03297 0.0
O356 O 0.26361 0.75184 1.03166 0.0
C357 C 0.27881 0.81679 0.15978 0.0
O358 O 0.30695 0.81335 0.17482 0.0
O359 O 0.3648 0.84549 0.13948 0.0
O360 O 0.77313 0.83565 0.62605 0.0
Tb361 Tb 0.82163 0.83059 0.60618 0.0
C362 C 0.89081 0.80691 0.62335 0.0
O363 O 0.79902 0.77823 0.56037 0.0
Tb364 Tb 0.85155 0.76996 0.56749 0.0
C365 C 0.88812 0.791 0.51913 0.0
O366 O 0.8031 0.83248 0.55676 0.0
O367 O 0.84341 0.72105 0.54765 0.0
C368 C 0.82943 0.72049 0.51841 0.0
O369 O 0.82134 0.74834 0.50506 0.0
O370 O 0.87408 0.83339 0.61578 0.0
O371 O 0.88108 0.77789 0.61235 0.0
O372 O 0.81994 0.78399 0.6302 0.0
C373 C 0.78816 0.80571 0.5481 0.0
C374 C 0.7783 0.86253 0.64173 0.0
O375 O 0.86703 0.80905 0.53478 0.0
O376 O 0.88894 0.76194 0.53124 0.0
C377 C 0.82767 0.78455 0.66141 0.0
O378 O 0.8326 0.81284 0.67556 0.0
O379 O 0.80869 0.87172 0.63796 0.0
O380 O 0.82191 0.27937 0.13571 0.0
Tb381 Tb 0.82406 0.32549 0.11135 0.0
C382 C 0.8459 0.39558 0.1253 0.0
O383 O 0.87748 0.3023 1.06639 0.0
Tb384 Tb 0.88248 0.35522 1.07089 0.0
C385 C 0.85383 0.38627 1.02287 0.0
O386 O 0.82272 0.30352 1.06338 0.0
O387 O 0.93109 0.35088 1.04873 0.0
C388 C 0.93155 0.3357 1.02013 0.0
O389 O 0.90383 0.32447 1.00852 0.0
O390 O 0.81972 0.37782 0.11856 0.0
O391 O 0.87519 0.38643 0.11442 0.0
O392 O 0.8713 0.32648 0.13467 0.0
C393 C 0.85018 0.28954 1.05514 0.0
C394 C 0.79384 0.28359 0.14971 0.0
O395 O 0.83913 0.36496 1.04137 0.0
O396 O 0.88386 0.39038 1.03199 0.0
C397 C 0.87145 0.33559 0.16552 0.0
O398 O 0.84336 0.34086 0.18019 0.0
O399 O 0.78227 0.31233 0.14261 0.0
O400 O 0.26129 0.38469 0.53894 0.0
Tb401 Tb 0.30051 0.38592 0.57397 0.0
C402 C 0.36664 0.35454 0.55894 0.0
O403 O 0.27878 0.32362 0.62216 0.0
Tb404 Tb 0.33164 0.32651 0.61613 0.0
C405 C 0.37505 0.29324 0.64964 0.0
O406 O 0.27222 0.37919 0.61966 0.0
O407 O 0.3295 0.36886 0.64741 0.0
C408 C 0.32199 0.36217 0.67806 0.0
O409 O 0.31977 0.33153 0.68678 0.0
O410 O 0.35364 0.38189 0.5691 0.0
O411 O 0.35253 0.32735 0.56755 0.0
O412 O 0.30623 0.43187 0.5471 0.0
C413 C 0.26213 0.35008 0.63009 0.0
C414 C 0.26628 0.35505 0.52938 0.0
O415 O 0.34562 0.28242 0.643 0.0
O416 O 0.37907 0.32225 0.63786 0.0
C417 C 0.31762 0.4279 0.51695 0.0
O418 O 0.32442 0.39808 0.50773 0.0
O419 O 0.29044 0.34202 0.54549 0.0
O420 O 0.82612 0.87398 1.03107 0.0
Tb421 Tb 0.82903 0.82789 1.05537 0.0
C422 C 0.85195 0.75834 1.04147 0.0
O423 O 0.88108 0.85176 0.10225 0.0
Tb424 Tb 0.88656 0.79888 0.09714 0.0
C425 C 0.8554 0.76699 0.14326 0.0
O426 O 0.82626 0.84987 0.10333 0.0
O427 O 0.93431 0.80366 0.12113 0.0
C428 C 0.93373 0.81855 0.14991 0.0
O429 O 0.90553 0.8291 0.16088 0.0
O430 O 0.82543 0.77547 1.04814 0.0
O431 O 0.88091 0.76803 1.05294 0.0
O432 O 0.87631 0.82768 1.03185 0.0
C433 C 0.85329 0.86414 0.1126 0.0
C434 C 0.79838 0.86893 1.01669 0.0
O435 O 0.84174 0.78845 0.1243 0.0
O436 O 0.88594 0.76331 0.13576 0.0
C437 C 0.87609 0.81858 1.00098 0.0
O438 O 0.84779 0.81308 0.98682 0.0
O439 O 0.78738 0.83987 1.02365 0.0
O440 O 0.77942 0.32566 0.53704 0.0
Tb441 Tb 0.82885 0.32695 0.55508 0.0
C442 C 0.89888 0.3488 0.53795 0.0
O443 O 0.80866 0.37778 0.60318 0.0
Tb444 Tb 0.86115 0.38593 0.59513 0.0
C445 C 0.8981 0.36501 0.64302 0.0
O446 O 0.81194 0.32346 0.60499 0.0
O447 O 0.85328 0.43467 0.61559 0.0
C448 C 0.83992 0.43485 0.64519 0.0
O449 O 0.83229 0.4068 0.65851 0.0
O450 O 0.881 0.32264 0.54442 0.0
O451 O 0.89024 0.37778 0.54989 0.0
O452 O 0.8289 0.37431 0.53265 0.0
C453 C 0.79767 0.35006 0.61493 0.0
C454 C 0.7822 0.29913 0.52022 0.0
O455 O 0.87633 0.34707 0.6281 0.0
O456 O 0.8994 0.39386 0.6304 0.0
C457 C 0.83636 0.37429 0.50136 0.0
O458 O 0.84031 0.34623 0.48651 0.0
O459 O 0.81202 0.2879 0.52238 0.0
O460 O 0.26654 0.7594 0.62662 0.0
Tb461 Tb 0.30423 0.76827 0.59086 0.0
C462 C 0.36749 0.80382 0.61145 0.0
O463 O 0.28398 0.83244 0.5429 0.0
Tb464 Tb 0.33615 0.82741 0.55213 0.0
C465 C 0.38132 0.85766 0.51727 0.0
O466 O 0.27486 0.77724 0.54625 0.0
O467 O 0.33642 0.7802 0.5291 0.0
C468 C 0.32859 0.78004 0.4979 0.0
O469 O 0.32405 0.808 0.4831 0.0
O470 O 0.35664 0.77623 0.59929 0.0
O471 O 0.35319 0.8305 0.6019 0.0
O472 O 0.31178 0.71899 0.6095 0.0
C473 C 0.26601 0.80659 0.53572 0.0
C474 C 0.26722 0.78829 0.6392 0.0
O475 O 0.35102 0.86737 0.51972 0.0
O476 O 0.38545 0.83121 0.53389 0.0
C477 C 0.32512 0.71806 0.639 0.0
O478 O 0.33259 0.74571 0.65322 0.0
O479 O 0.28843 0.80674 0.62409 0.0
H480 H 0.11693 0.35719 0.25071 0.0
H481 H 0.14187 0.25669 0.26705 0.0
H482 H 0.17507 0.25651 0.21756 0.0
H483 H 0.20048 0.28578 0.17178 0.0
H484 H 0.17409 0.38509 0.15248 0.0
H485 H 0.13729 0.38465 0.20013 0.0
C486 C 0.12957 0.33524 0.24337 0.0
C487 C 0.12757 0.30722 0.26331 0.0
C488 C 0.148 0.33497 0.21399 0.0
C489 C 0.14348 0.27881 0.25284 0.0
C490 C 0.16235 0.2786 0.2243 0.0
C491 C 0.1859 0.30704 0.17743 0.0
C492 C 0.18971 0.33532 0.15839 0.0
C493 C 0.16517 0.30661 0.20495 0.0
C494 C 0.17103 0.36281 0.16626 0.0
C495 C 0.1504 0.36267 0.19386 0.0
H496 H 0.30773 0.61596 0.75116 0.0
H497 H 0.41019 0.63778 0.76333 0.0
H498 H 0.40952 0.67091 0.71397 0.0
H499 H 0.37883 0.69764 0.67005 0.0
H500 H 0.27733 0.67439 0.65524 0.0
H501 H 0.27876 0.63699 0.70209 0.0
C502 C 0.32991 0.62792 0.74294 0.0
C503 C 0.35876 0.6252 0.76164 0.0
C504 C 0.32962 0.64622 0.7137 0.0
C505 C 0.38748 0.64007 0.75005 0.0
C506 C 0.38719 0.65887 0.72159 0.0
C507 C 0.35734 0.68348 0.67642 0.0
C508 C 0.32814 0.68836 0.65902 0.0
C509 C 0.35832 0.66254 0.70355 0.0
C510 C 0.30028 0.67039 0.66778 0.0
C511 C 0.30099 0.64948 0.69493 0.0
H512 H 0.9509 0.87114 0.18487 0.0
H513 H 0.97916 0.77219 0.16599 0.0
H514 H 1.01739 0.77426 0.21237 0.0
H515 H 1.03913 0.80323 0.2614 0.0
H516 H 1.01282 0.90354 0.2768 0.0
H517 H 0.97733 0.90187 0.22904 0.0
C518 C 0.96603 0.85026 0.19044 0.0
C519 C 0.96236 0.82159 0.17195 0.0
C520 C 0.98775 0.85169 0.21705 0.0
C521 C 0.98195 0.79468 0.1795 0.0
C522 C 1.00346 0.79577 0.20631 0.0
C523 C 1.02564 0.82471 0.25427 0.0
C524 C 1.02796 0.85324 0.27344 0.0
C525 C 1.00595 0.82392 0.22583 0.0
C526 C 1.01098 0.88107 0.26319 0.0
C527 C 0.99079 0.8802 0.23565 0.0
H528 H 0.85595 0.54418 0.75219 0.0
H529 H 0.75855 0.51119 0.77579 0.0
H530 H 0.75894 0.47521 0.72841 0.0
H531 H 0.78823 0.44999 0.68261 0.0
H532 H 0.88429 0.48393 0.65621 0.0
H533 H 0.88287 0.52328 0.70156 0.0
C534 C 0.8348 0.52917 0.74687 0.0
C535 C 0.80751 0.5299 0.76812 0.0
C536 C 0.8348 0.509 0.71878 0.0
C537 C 0.78005 0.51083 0.76035 0.0
C538 C 0.78018 0.49029 0.73309 0.0
C539 C 0.80851 0.46663 0.68625 0.0
C540 C 0.83623 0.46424 0.66594 0.0
C541 C 0.80754 0.48884 0.71242 0.0
C542 C 0.86244 0.48573 0.67108 0.0
C543 C 0.86178 0.50787 0.69734 0.0
H544 H 0.1148 0.79647 0.90401 0.0
H545 H 0.15289 0.89126 0.87943 0.0
H546 H 0.1882 0.89009 0.92738 0.0
H547 H 0.2108 0.86109 0.97436 0.0
H548 H 0.17212 0.76762 1.00185 0.0
H549 H 0.13385 0.76961 0.95544 0.0
C550 C 0.1309 0.8168 0.90917 0.0
C551 C 0.13169 0.84366 0.88761 0.0
C552 C 0.15065 0.8164 0.93762 0.0
C553 C 0.15207 0.87013 0.89518 0.0
C554 C 0.1722 0.86955 0.92276 0.0
C555 C 0.19341 0.84149 0.97071 0.0
C556 C 0.1941 0.81436 0.99169 0.0
C557 C 0.17192 0.84275 0.94394 0.0
C558 C 0.17163 0.78904 0.98647 0.0
C559 C 0.15012 0.79001 0.95961 0.0
H560 H 0.84663 0.61132 0.41179 0.0
H561 H 0.74884 0.64245 0.38836 0.0
H562 H 0.74872 0.67844 0.43579 0.0
H563 H 0.77778 0.70433 0.48141 0.0
H564 H 0.87429 0.67217 0.50748 0.0
H565 H 0.87328 0.63267 0.46228 0.0
C566 C 0.82528 0.62591 0.41717 0.0
C567 C 0.79803 0.6247 0.396 0.0
C568 C 0.82502 0.64607 0.44523 0.0
C569 C 0.7703 0.6432 0.40381 0.0
C570 C 0.77015 0.66375 0.43107 0.0
C571 C 0.79825 0.68802 0.47773 0.0
C572 C 0.826 0.69098 0.49786 0.0
C573 C 0.79751 0.66573 0.45164 0.0
C574 C 0.85244 0.66994 0.49271 0.0
C575 C 0.85201 0.64771 0.46655 0.0
H576 H 1.03637 0.35465 0.90866 0.0
H577 H 1.01437 0.25297 0.89468 0.0
H578 H 0.97901 0.25347 0.9426 0.0
H579 H 0.95133 0.28342 0.98644 0.0
H580 H 0.97511 0.38392 1.00381 0.0
H581 H 1.01347 0.38313 0.95742 0.0
C582 C 1.02382 0.33263 0.91614 0.0
C583 C 1.02729 0.30401 0.89733 0.0
C584 C 1.00422 0.33278 0.94468 0.0
C585 C 1.01159 0.2755 0.90801 0.0
C586 C 0.99149 0.27569 0.93566 0.0
C587 C 0.96559 0.30493 0.98058 0.0
C588 C 0.96062 0.33363 0.99861 0.0
C589 C 0.9873 0.30424 0.95391 0.0
C590 C 0.97899 0.36139 0.99067 0.0
C591 C 1.00054 0.36102 0.96384 0.0
H592 H 0.32497 0.55125 0.42222 0.0
H593 H 0.3603 0.4771 0.35671 0.0
H594 H 0.35555 0.43655 0.39995 0.0
H595 H 0.34094 0.4218 0.4555 0.0
H596 H 0.30364 0.49387 0.52246 0.0
H597 H 0.30957 0.53565 0.47968 0.0
C598 C 0.33163 0.52618 0.41763 0.0
C599 C 0.34375 0.51724 0.38649 0.0
C600 C 0.32842 0.50271 0.4428 0.0
C601 C 0.352 0.48474 0.38065 0.0
C602 C 0.34896 0.46148 0.40533 0.0
C603 C 0.33404 0.44662 0.46106 0.0
C604 C 0.32177 0.45454 0.49238 0.0
C605 C 0.33727 0.47018 0.43643 0.0
C606 C 0.31316 0.48698 0.49871 0.0
C607 C 0.3165 0.51086 0.47417 0.0
H608 H 0.25525 0.11974 0.35417 0.0
H609 H 0.26755 0.14343 0.252 0.0
H610 H 0.22045 0.17939 0.25446 0.0
H611 H 0.17801 0.20723 0.28641 0.0
H612 H 0.16216 0.18139 0.3873 0.0
H613 H 0.20762 0.14254 0.38444 0.0
C614 C 0.24755 0.1327 0.33243 0.0
C615 C 0.26574 0.12958 0.30314 0.0
C616 C 0.21948 0.15267 0.33371 0.0
C617 C 0.25474 0.14591 0.27504 0.0
C618 C 0.22757 0.16638 0.27636 0.0
C619 C 0.18399 0.19247 0.30755 0.0
C620 C 0.16664 0.19702 0.33698 0.0
C621 C 0.21007 0.17033 0.30564 0.0
C622 C 0.17475 0.17792 0.36423 0.0
C623 C 0.20106 0.15604 0.36267 0.0
H624 H 0.55057 0.74456 0.85432 0.0
H625 H 0.52736 0.76129 0.75273 0.0
H626 H 0.49291 0.71286 0.75212 0.0
H627 H 0.46543 0.66848 0.78168 0.0
H628 H 0.49036 0.64904 0.88211 0.0
H629 H 0.52883 0.69501 0.88177 0.0
C630 C 0.53809 0.73749 0.83202 0.0
C631 C 0.54083 0.75722 0.80384 0.0
C632 C 0.51897 0.70882 0.83154 0.0
C633 C 0.52518 0.74714 0.77494 0.0
C634 C 0.50557 0.71926 0.77451 0.0
C635 C 0.4801 0.6737 0.80318 0.0
C636 C 0.47534 0.65522 0.83179 0.0
C637 C 0.50182 0.70026 0.80279 0.0
C638 C 0.49412 0.66245 0.8596 0.0
C639 C 0.51571 0.68908 0.85952 0.0
H640 H 0.98726 0.95905 0.29297 0.0
H641 H 1.00485 0.98513 0.39348 0.0
H642 H 0.95837 1.02279 0.39203 0.0
H643 H 0.90884 1.04337 0.36357 0.0
H644 H 0.89394 1.01872 0.26196 0.0
H645 H 0.94292 0.98527 0.26248 0.0
C646 C 0.98156 0.97383 0.31422 0.0
C647 C 0.99965 0.96967 0.34317 0.0
C648 C 0.95467 0.99499 0.31323 0.0
C649 C 0.99176 0.98851 0.37071 0.0
C650 C 0.96483 1.00961 0.37 0.0
C651 C 0.91641 1.03078 0.34152 0.0
C652 C 0.89701 1.0328 0.31302 0.0
C653 C 0.94542 1.01222 0.34168 0.0
C654 C 0.90776 1.01702 0.28445 0.0
C655 C 0.93599 0.99802 0.28464 0.0
H656 H 0.73522 0.44735 0.83078 0.0
H657 H 0.66389 0.51986 0.85695 0.0
H658 H 0.6201 0.47911 0.85078 0.0
H659 H 0.60239 0.42202 0.83786 0.0
H660 H 0.67571 0.35087 0.81398 0.0
H661 H 0.71847 0.392 0.8192 0.0
C662 C 0.71013 0.45457 0.83516 0.0
C663 C 0.70298 0.48688 0.84428 0.0
C664 C 0.68541 0.4311 0.8318 0.0
C665 C 0.67019 0.4953 0.8499 0.0
C666 C 0.64517 0.47194 0.84636 0.0
C667 C 0.62778 0.41575 0.83375 0.0
C668 C 0.63595 0.38363 0.82473 0.0
C669 C 0.65248 0.43968 0.83733 0.0
C670 C 0.66883 0.37556 0.81993 0.0
C671 C 0.69329 0.39904 0.8232 0.0
H672 H 0.23361 1.0444 0.86141 0.0
H673 H 0.30251 0.99225 0.80135 0.0
H674 H 0.26027 0.95301 0.78639 0.0
H675 H 0.20444 0.9328 0.7908 0.0
H676 H 0.13319 0.98493 0.8478 0.0
H677 H 0.17515 1.02541 0.86284 0.0
C678 C 0.23924 1.02427 0.84525 0.0
C679 C 0.2713 1.02087 0.83284 0.0
C680 C 0.2143 1.00218 0.8358 0.0
C681 C 0.27815 0.99519 0.81133 0.0
C682 C 0.25397 0.97283 0.80268 0.0
C683 C 0.19792 0.95325 0.80626 0.0
C684 C 0.16573 0.95586 0.81818 0.0
C685 C 0.22204 0.97608 0.81471 0.0
C686 C 0.15766 0.98257 0.83799 0.0
C687 C 0.18179 1.00547 0.84686 0.0
H688 H 0.59419 0.73021 0.32894 0.0
H689 H 0.66751 0.80241 0.3506 0.0
H690 H 0.7104 0.76167 0.34519 0.0
H691 H 0.72723 0.7065 0.33336 0.0
H692 H 0.65582 0.63316 0.30875 0.0
H693 H 0.61192 0.67331 0.31603 0.0
C694 C 0.6196 0.73674 0.33271 0.0
C695 C 0.62777 0.76901 0.3412 0.0
C696 C 0.64434 0.71311 0.32877 0.0
C697 C 0.66066 0.77754 0.34526 0.0
C698 C 0.68518 0.75431 0.34181 0.0
C699 C 0.7021 0.69899 0.32959 0.0
C700 C 0.69494 0.66665 0.32054 0.0
C701 C 0.67731 0.72212 0.33355 0.0
C702 C 0.66211 0.65779 0.3157 0.0
C703 C 0.63702 0.68079 0.31989 0.0
H704 H 0.91282 0.11136 0.80624 0.0
H705 H 0.89758 0.13342 0.90842 0.0
H706 H 0.94621 0.1677 0.9086 0.0
H707 H 0.99011 0.19555 0.87852 0.0
H708 H 1.00802 0.17191 0.77744 0.0
H709 H 0.96211 0.1333 0.7782 0.0
C710 C 0.92026 0.12355 0.82857 0.0
C711 C 0.90086 0.1206 0.85703 0.0
C712 C 0.94905 0.14256 0.82879 0.0
C713 C 0.91142 0.13585 0.88596 0.0
C714 C 0.93944 0.15533 0.88616 0.0
C715 C 0.98463 0.18107 0.857 0.0
C716 C 1.0026 0.1862 0.82808 0.0
C717 C 0.95807 0.15934 0.8576 0.0
C718 C 0.99501 0.16777 0.80018 0.0
C719 C 0.9684 0.14613 0.8005 0.0
H720 H 0.54274 0.40243 0.30722 0.0
H721 H 0.52106 0.39138 0.41002 0.0
H722 H 0.48759 0.44021 0.40874 0.0
H723 H 0.46057 0.48353 0.37755 0.0
H724 H 0.4837 0.49734 0.27569 0.0
H725 H 0.52125 0.45086 0.27761 0.0
C726 C 0.53078 0.41079 0.32936 0.0
C727 C 0.53373 0.3925 0.35851 0.0
C728 C 0.5122 0.43977 0.3287 0.0
C729 C 0.51872 0.40431 0.3871 0.0
C730 C 0.49968 0.43247 0.38645 0.0
C731 C 0.47471 0.47704 0.35604 0.0
C732 C 0.4697 0.49417 0.32663 0.0
C733 C 0.49583 0.4501 0.35732 0.0
C734 C 0.48772 0.48513 0.29881 0.0
C735 C 0.50876 0.45815 0.29982 0.0
H736 H 0.35243 0.25223 0.11131 0.0
H737 H 0.25129 0.26628 0.13744 0.0
H738 H 0.25286 0.21812 0.17214 0.0
H739 H 0.28418 0.17463 0.19871 0.0
H740 H 0.38408 0.15764 0.17058 0.0
H741 H 0.38162 0.20358 0.13226 0.0
C742 C 0.33071 0.24466 0.12451 0.0
C743 C 0.30202 0.26356 0.12254 0.0
C744 C 0.33148 0.21611 0.1437 0.0
C745 C 0.27388 0.25281 0.13907 0.0
C746 C 0.2747 0.22507 0.1588 0.0
C747 C 0.3051 0.18039 0.18342 0.0
C748 C 0.33419 0.16262 0.1872 0.0
C749 C 0.30348 0.20687 0.16173 0.0
C750 C 0.36124 0.17052 0.16759 0.0
C751 C 0.35995 0.19712 0.14607 0.0
H752 H 0.35555 0.89797 1.03473 0.0
H753 H 0.25415 0.88065 1.01161 0.0
H754 H 0.25371 0.92802 0.97605 0.0
H755 H 0.28258 0.97278 0.94897 0.0
H756 H 0.38274 0.99349 0.97364 0.0
H757 H 0.38302 0.94727 1.01178 0.0
C758 C 0.33339 0.90459 1.02189 0.0
C759 C 0.30513 0.885 1.02518 0.0
C760 C 0.33296 0.93285 1.00209 0.0
C761 C 0.27645 0.89457 1.00899 0.0
C762 C 0.27608 0.92192 0.98878 0.0
C763 C 0.30429 0.9676 0.96323 0.0
C764 C 0.33256 0.98663 0.95856 0.0
C765 C 0.30423 0.94102 0.98486 0.0
C766 C 0.36051 0.97958 0.97714 0.0
C767 C 0.36076 0.95284 0.99862 0.0
H768 H 0.66598 0.78291 0.45632 0.0
H769 H 0.65178 0.88509 0.47361 0.0
H770 H 0.69877 0.8856 0.51113 0.0
H771 H 0.74733 0.85748 0.53485 0.0
H772 H 0.75863 0.7545 0.51828 0.0
H773 H 0.70986 0.75393 0.48442 0.0
C774 C 0.67262 0.80514 0.46901 0.0
C775 C 0.65523 0.83385 0.46242 0.0
C776 C 0.6998 0.80524 0.49004 0.0
C777 C 0.6643 0.86252 0.47877 0.0
C778 C 0.69153 0.86288 0.49982 0.0
C779 C 0.73907 0.83494 0.52385 0.0
C780 C 0.75737 0.8062 0.52851 0.0
C781 C 0.71009 0.83453 0.50492 0.0
C782 C 0.74571 0.77711 0.51465 0.0
C783 C 0.71756 0.77668 0.4954 0.0
H784 H 0.79972 0.24681 1.0433 0.0
H785 H 0.90228 0.26251 1.02408 0.0
H786 H 0.90348 0.21475 0.98894 0.0
H787 H 0.87472 0.17078 0.96033 0.0
H788 H 0.77331 0.15192 0.9813 0.0
H789 H 0.77248 0.19788 1.0198 0.0
C790 C 0.82233 0.23969 1.0315 0.0
C791 C 0.85067 0.25895 1.03562 0.0
C792 C 0.82315 0.21133 1.01196 0.0
C793 C 0.87993 0.2488 1.0208 0.0
C794 C 0.88072 0.22126 1.00081 0.0
C795 C 0.85265 0.17623 0.97401 0.0
C796 C 0.82416 0.15793 0.96817 0.0
C797 C 0.85241 0.20266 0.99583 0.0
C798 C 0.79568 0.16531 0.98583 0.0
C799 C 0.79513 0.19188 1.00747 0.0
H800 H 0.41227 0.3062 0.55353 0.0
H801 H 0.39004 0.40309 0.52015 0.0
H802 H 0.4377 0.40222 0.48423 0.0
H803 H 0.48304 0.3724 0.45894 0.0
H804 H 0.50773 0.27671 0.49338 0.0
H805 H 0.46245 0.2789 0.53293 0.0
C806 C 0.41798 0.32716 0.53848 0.0
C807 C 0.39711 0.35443 0.53901 0.0
C808 C 0.44609 0.32682 0.51837 0.0
C809 C 0.40531 0.38166 0.51994 0.0
C810 C 0.43267 0.38122 0.49943 0.0
C811 C 0.47902 0.35235 0.47573 0.0
C812 C 0.49876 0.32447 0.47338 0.0
C813 C 0.4529 0.35377 0.49806 0.0
C814 C 0.49323 0.29862 0.4951 0.0
C815 C 0.46703 0.29973 0.51736 0.0
H816 H 0.80206 0.90608 0.12334 0.0
H817 H 0.90388 0.89142 0.14614 0.0
H818 H 0.90321 0.9385 0.18227 0.0
H819 H 0.87293 0.98161 0.21058 0.0
H820 H 0.77235 0.99958 0.18595 0.0
H821 H 0.77346 0.95423 0.14672 0.0
C822 C 0.82412 0.91328 0.13613 0.0
C823 C 0.85277 0.89447 0.13268 0.0
C824 C 0.82387 0.94129 0.15626 0.0
C825 C 0.8813 0.90476 0.14883 0.0
C826 C 0.88101 0.93191 0.1694 0.0
C827 C 0.85147 0.9761 0.19599 0.0
C828 C 0.82264 0.99402 0.20101 0.0
C829 C 0.85236 0.95005 0.17369 0.0
C830 C 0.79498 0.98653 0.18212 0.0
C831 C 0.79554 0.96029 0.16003 0.0
H832 H 0.67669 0.37104 0.7088 0.0
H833 H 0.66091 0.2695 0.68866 0.0
H834 H 0.70763 0.26972 0.65067 0.0
H835 H 0.75633 0.2982 0.62718 0.0
H836 H 0.76921 0.40054 0.64669 0.0
H837 H 0.72076 0.40047 0.68117 0.0
C838 C 0.68297 0.34911 0.69545 0.0
C839 C 0.66523 0.32035 0.70137 0.0
C840 C 0.70996 0.34942 0.67414 0.0
C841 C 0.67376 0.2921 0.68408 0.0
C842 C 0.70082 0.29215 0.66275 0.0
C843 C 0.7485 0.32046 0.63898 0.0
C844 C 0.76713 0.34919 0.63495 0.0
C845 C 0.71971 0.3205 0.65828 0.0
C846 C 0.75602 0.37794 0.64982 0.0
C847 C 0.72806 0.378 0.66942 0.0
H848 H 0.40968 0.85506 0.62209 0.0
H849 H 0.39482 0.75364 0.64461 0.0
H850 H 0.44297 0.75393 0.6794 0.0
H851 H 0.48744 0.78354 0.7063 0.0
H852 H 0.50574 0.88375 0.68209 0.0
H853 H 0.45892 0.88324 0.64438 0.0
C854 C 0.41701 0.83306 0.63462 0.0
C855 C 0.39789 0.80459 0.63146 0.0
C856 C 0.4457 0.83307 0.65391 0.0
C857 C 0.40837 0.77609 0.64717 0.0
C858 C 0.43616 0.77615 0.66694 0.0
C859 C 0.48165 0.80505 0.69213 0.0
C860 C 0.50009 0.83358 0.69677 0.0
C861 C 0.45476 0.80453 0.67079 0.0
C862 C 0.49226 0.86134 0.67847 0.0
C863 C 0.4652 0.86114 0.65728 0.0
H864 H 0.88198 0.783 0.94556 0.0
H865 H 0.93834 0.83444 1.01845 0.0
H866 H 0.98834 0.82387 0.98753 0.0
H867 H 1.01425 0.80699 0.93647 0.0
H868 H 0.95776 0.75879 0.86175 0.0
H869 H 0.90951 0.75976 0.89744 0.0
C870 C 0.90523 0.79184 0.95472 0.0
C871 C 0.90649 0.81032 0.98371 0.0
C872 C 0.93372 0.78585 0.93673 0.0
C873 C 0.93679 0.82071 0.99587 0.0
C874 C 0.96533 0.81456 0.97829 0.0
C875 C 0.99156 0.79589 0.92839 0.0
C876 C 0.98918 0.78321 0.89657 0.0
C877 C 0.96386 0.79807 0.94826 0.0
C878 C 0.96 0.76857 0.88628 0.0
C879 C 0.93238 0.76963 0.90646 0.0
H880 H 0.86998 0.38014 0.44464 0.0
H881 H 0.82251 0.43614 0.52035 0.0
H882 H 0.83218 0.48595 0.48926 0.0
H883 H 0.84589 0.51153 0.4372 0.0
H884 H 0.88968 0.45543 0.35971 0.0
H885 H 0.89114 0.40759 0.39551 0.0
C886 C 0.86186 0.40328 0.45439 0.0
C887 C 0.8446 0.40453 0.48417 0.0
C888 C 0.86726 0.43164 0.43628 0.0
C889 C 0.83522 0.43464 0.49712 0.0
C890 C 0.84086 0.46306 0.47945 0.0
C891 C 0.85671 0.48903 0.42858 0.0
C892 C 0.86727 0.48653 0.39601 0.0
C893 C 0.85577 0.46159 0.44856 0.0
C894 C 0.88156 0.45769 0.38486 0.0
C895 C 0.88183 0.43031 0.40512 0.0
H896 H 0.20263 0.37242 0.86669 0.0
H897 H 0.1313 0.37396 0.94419 0.0
H898 H 0.17443 0.36805 0.98507 0.0
H899 H 0.23093 0.35243 0.99753 0.0
H900 H 0.30146 0.34655 0.91911 0.0
H901 H 0.26026 0.36356 0.87981 0.0
C902 C 0.19685 0.37304 0.89262 0.0
C903 C 0.16416 0.37392 0.90267 0.0
C904 C 0.22149 0.36737 0.9157 0.0
C905 C 0.15655 0.37378 0.93617 0.0
C906 C 0.1811 0.36976 0.95944 0.0
C907 C 0.23724 0.35493 0.97186 0.0
C908 C 0.2689 0.34748 0.96113 0.0
C909 C 0.2134 0.36467 0.94931 0.0
C910 C 0.27702 0.35158 0.92792 0.0
C911 C 0.25356 0.36154 0.90542 0.0
H912 H 0.31477 0.64134 0.43635 0.0
H913 H 0.26783 0.69648 0.36015 0.0
H914 H 0.27012 0.74537 0.39445 0.0
H915 H 0.29373 0.77351 0.44203 0.0
H916 H 0.34344 0.71834 0.51667 0.0
H917 H 0.33216 0.6681 0.48677 0.0
C918 C 0.30425 0.66392 0.42763 0.0
C919 C 0.29151 0.66566 0.3958 0.0
C920 C 0.30708 0.69192 0.44676 0.0
C921 C 0.27764 0.69472 0.3847 0.0
C922 C 0.27943 0.72269 0.40409 0.0
C923 C 0.30207 0.75047 0.45177 0.0
C924 C 0.32023 0.74959 0.48099 0.0
C925 C 0.29557 0.72182 0.43443 0.0
C926 C 0.32996 0.71958 0.4939 0.0
C927 C 0.3234 0.69091 0.47691 0.0
H928 H 0.87849 0.36975 0.22185 0.0
H929 H 0.93325 0.3216 0.14557 0.0
H930 H 0.98404 0.33262 0.17483 0.0
H931 H 1.01137 0.34866 0.22527 0.0
H932 H 0.95687 0.39334 0.30348 0.0
H933 H 0.90737 0.39237 0.26961 0.0
C934 C 0.90156 0.36174 0.2116 0.0
C935 C 0.90216 0.34404 0.1821 0.0
C936 C 0.93057 0.36797 0.22866 0.0
C937 C 0.9322 0.3347 0.16856 0.0
C938 C 0.96121 0.34112 0.18518 0.0
C939 C 0.98881 0.35907 0.23447 0.0
C940 C 0.98736 0.37073 0.26671 0.0
C941 C 0.96049 0.3568 0.21565 0.0
C942 C 0.95837 0.38443 0.27857 0.0
C943 C 0.93005 0.38333 0.25942 0.0
H944 H 0.28787 0.45404 0.79587 0.0
H945 H 0.28622 0.52463 0.71821 0.0
H946 H 0.29153 0.4815 0.67737 0.0
H947 H 0.30675 0.42512 0.66489 0.0
H948 H 0.31265 0.35529 0.74342 0.0
H949 H 0.29619 0.39657 0.78278 0.0
C950 C 0.28706 0.45967 0.76993 0.0
C951 C 0.28631 0.49214 0.75981 0.0
C952 C 0.29239 0.43501 0.74685 0.0
C953 C 0.28626 0.49955 0.72629 0.0
C954 C 0.28996 0.47499 0.70303 0.0
C955 C 0.30438 0.419 0.6906 0.0
C956 C 0.31169 0.38749 0.70134 0.0
C957 C 0.29492 0.44288 0.71319 0.0
C958 C 0.30772 0.3796 0.73461 0.0
C959 C 0.29808 0.40311 0.75715 0.0
H960 H 0.2726 0.78254 0.21581 0.0
H961 H 0.21679 0.83292 0.14211 0.0
H962 H 0.16704 0.82528 0.17443 0.0
H963 H 0.14187 0.81213 0.22704 0.0
H964 H 0.19801 0.76472 0.30223 0.0
H965 H 0.24526 0.76213 0.26532 0.0
C966 C 0.24949 0.79169 0.20675 0.0
C967 C 0.24834 0.80918 0.17719 0.0
C968 C 0.22121 0.78745 0.22556 0.0
C969 C 0.21822 0.81994 0.16512 0.0
C970 C 0.18985 0.81552 0.18353 0.0
C971 C 0.16422 0.8004 0.23496 0.0
C972 C 0.16692 0.78904 0.26723 0.0
C973 C 0.19137 0.80039 0.21425 0.0
C974 C 0.19559 0.77354 0.27737 0.0
C975 C 0.22264 0.77252 0.25646 0.0
H976 H 0.84253 0.6473 0.72511 0.0
H977 H 0.89038 0.70408 0.79976 0.0
H978 H 0.88785 0.75232 0.76453 0.0
H979 H 0.8634 0.77941 0.71684 0.0
H980 H 0.81255 0.72248 0.644 0.0
H981 H 0.82448 0.6729 0.67451 0.0
C982 C 0.85323 0.67009 0.73324 0.0
C983 C 0.86626 0.67255 0.76489 0.0
C984 C 0.85015 0.69767 0.71368 0.0
C985 C 0.88038 0.70182 0.77532 0.0
C986 C 0.87841 0.7294 0.75542 0.0
C987 C 0.85493 0.75614 0.70765 0.0
C988 C 0.83624 0.75454 0.67879 0.0
C989 C 0.86181 0.72787 0.72534 0.0
C990 C 0.82639 0.72425 0.66651 0.0
C991 C 0.83334 0.69596 0.68384 0.0
H992 H 0.93816 1.0095 0.80631 0.0
H993 H 0.85885 0.95377 0.76538 0.0
H994 H 0.89252 0.90457 0.76708 0.0
H995 H 0.93997 0.87659 0.79063 0.0
H996 H 1.0173 0.93244 0.83568 0.0
H997 H 0.98864 0.98275 0.82251 0.0
C998 C 0.92873 0.98672 0.79671 0.0
C999 C 0.8962 0.98482 0.78613 0.0
C1000 C 0.94736 0.95858 0.79976 0.0
C1001 C 0.88399 0.95559 0.77345 0.0
C1002 C 0.903 0.92745 0.77507 0.0
C1003 C 0.95056 0.89979 0.79755 0.0
C1004 C 0.98011 0.90094 0.81509 0.0
C1005 C 0.9339 0.92845 0.79004 0.0
C1006 C 0.99419 0.93106 0.82284 0.0
C1007 C 0.97795 0.95975 0.81514 0.0
H1008 H 0.63888 0.43117 0.30148 0.0
H1009 H 0.69698 0.35291 0.26281 0.0
H1010 H 0.74562 0.38784 0.26393 0.0
H1011 H 0.77263 0.43616 0.28706 0.0
H1012 H 0.71445 0.51218 0.33065 0.0
H1013 H 0.66463 0.48237 0.31703 0.0
C1014 C 0.66202 0.42225 0.29211 0.0
C1015 C 0.66471 0.38964 0.28242 0.0
C1016 C 0.68993 0.4416 0.29507 0.0
C1017 C 0.69447 0.37809 0.27014 0.0
C1018 C 0.72234 0.39783 0.2715 0.0
C1019 C 0.74904 0.44626 0.2935 0.0
C1020 C 0.74715 0.47581 0.3108 0.0
C1021 C 0.72059 0.42884 0.28588 0.0
C1022 C 0.71647 0.48913 0.31801 0.0
C1023 C 0.68802 0.47221 0.31004 0.0
H1024 H 0.22565 0.14633 0.81498 0.0
H1025 H 0.30204 0.20358 0.77044 0.0
H1026 H 0.26772 0.25223 0.7744 0.0
H1027 H 0.21957 0.27912 0.79812 0.0
H1028 H 0.14475 0.22158 0.84533 0.0
H1029 H 0.17527 0.1721 0.8332 0.0
C1030 C 0.23446 0.16936 0.80542 0.0
C1031 C 0.26628 0.1717 0.79277 0.0
C1032 C 0.21533 0.19712 0.80919 0.0
C1033 C 0.2775 0.20136 0.78014 0.0
C1034 C 0.25809 0.22916 0.78289 0.0
C1035 C 0.20997 0.25575 0.80581 0.0
C1036 C 0.18042 0.25395 0.82339 0.0
C1037 C 0.22763 0.2275 0.79875 0.0
C1038 C 0.16774 0.22353 0.83231 0.0
C1039 C 0.18507 0.19528 0.82523 0.0
H1040 H 0.38043 0.70966 0.28293 0.0
H1041 H 0.43946 0.63841 0.33275 0.0
H1042 H 0.48879 0.6693 0.31911 0.0
H1043 H 0.51331 0.72044 0.30111 0.0
H1044 H 0.45395 0.79367 0.25519 0.0
H1045 H 0.40645 0.75727 0.25762 0.0
C1046 C 0.40411 0.70083 0.29074 0.0
C1047 C 0.40639 0.67242 0.30978 0.0
C1048 C 0.43215 0.71878 0.28301 0.0
C1049 C 0.43719 0.6606 0.3187 0.0
C1050 C 0.46531 0.67815 0.31077 0.0
C1051 C 0.49016 0.72795 0.29065 0.0
C1052 C 0.48673 0.75963 0.2784 0.0
C1053 C 0.46288 0.70778 0.29398 0.0
C1054 C 0.457 0.76926 0.26458 0.0
C1055 C 0.42979 0.7487 0.26657 0.0
H1056 H 0.93587 0.14593 0.35426 0.0
H1057 H 0.85964 0.20156 0.40048 0.0
H1058 H 0.89478 0.25002 0.39976 0.0
H1059 H 0.94279 0.27782 0.37656 0.0
H1060 H 1.01709 0.22213 0.32679 0.0
H1061 H 0.98685 0.1721 0.33799 0.0
C1062 C 0.92738 0.16849 0.36507 0.0
C1063 C 0.89532 0.17061 0.37704 0.0
C1064 C 0.94692 0.19623 0.36292 0.0
C1065 C 0.88439 0.19957 0.3913 0.0
C1066 C 0.90425 0.22729 0.39034 0.0
C1067 C 0.95241 0.25471 0.36824 0.0
C1068 C 0.98157 0.25361 0.34997 0.0
C1069 C 0.93479 0.22619 0.37456 0.0
C1070 C 0.99435 0.22353 0.3403 0.0
C1071 C 0.97717 0.19497 0.34682 0.0
H1072 H 0.51259 0.42923 0.8539 0.0
H1073 H 0.45241 0.35334 0.89486 0.0
H1074 H 0.40419 0.38838 0.89026 0.0
H1075 H 0.37867 0.43669 0.8658 0.0
H1076 H 0.43927 0.51057 0.82125 0.0
H1077 H 0.48813 0.47983 0.83549 0.0
C1078 C 0.48901 0.42074 0.86266 0.0
C1079 C 0.48569 0.38885 0.87432 0.0
C1080 C 0.46154 0.44018 0.85821 0.0
C1081 C 0.45536 0.37797 0.88595 0.0
C1082 C 0.42781 0.39777 0.88276 0.0
C1083 C 0.40257 0.44604 0.85918 0.0
C1084 C 0.40544 0.47536 0.84166 0.0
C1085 C 0.43046 0.4282 0.86733 0.0
C1086 C 0.43651 0.48773 0.83415 0.0
C1087 C 0.4644 0.4703 0.84245 0.0
H1088 H 0.22315 1.01801 0.3525 0.0
H1089 H 0.30119 0.96368 0.39694 0.0
H1090 H 0.2666 0.91489 0.39774 0.0
H1091 H 0.21838 0.88622 0.3761 0.0
H1092 H 0.14214 0.94049 0.32802 0.0
H1093 H 0.17204 0.99101 0.33793 0.0
C1094 C 0.23214 0.9957 0.36337 0.0
C1095 C 0.26457 0.99408 0.37435 0.0
C1096 C 0.21289 0.96766 0.36197 0.0
C1097 C 0.27615 0.96537 0.38857 0.0
C1098 C 0.25659 0.93741 0.38843 0.0
C1099 C 0.20827 0.90913 0.36787 0.0
C1100 C 0.17861 0.90965 0.35044 0.0
C1101 C 0.22567 0.93796 0.37348 0.0
C1102 C 0.16525 0.9395 0.34088 0.0
C1103 C 0.18224 0.96835 0.34667 0.0
H1104 H 0.64429 0.72037 0.86653 0.0
H1105 H 0.70249 0.79929 0.90419 0.0
H1106 H 0.75116 0.76472 0.90293 0.0
H1107 H 0.77811 0.71695 0.87905 0.0
H1108 H 0.71992 0.64034 0.83607 0.0
H1109 H 0.67005 0.66929 0.85095 0.0
C1110 C 0.66745 0.72947 0.87575 0.0
C1111 C 0.67022 0.76218 0.88504 0.0
C1112 C 0.69537 0.71034 0.87258 0.0
C1113 C 0.69996 0.77402 0.89714 0.0
C1114 C 0.72784 0.75448 0.89568 0.0
C1115 C 0.75451 0.7065 0.87307 0.0
C1116 C 0.75257 0.67714 0.85546 0.0
C1117 C 0.72607 0.72345 0.88133 0.0
C1118 C 0.72193 0.6633 0.8489 0.0
C1119 C 0.69347 0.67973 0.85757 0.0
H1120 H 0.78986 0.93551 0.88218 0.0
H1121 H 0.83455 1.0125 0.93862 0.0
H1122 H 0.82238 0.98327 0.98912 0.0
H1123 H 0.80685 0.93277 1.01595 0.0
H1124 H 0.76629 0.85369 0.95988 0.0
H1125 H 0.76746 0.88747 0.91039 0.0
C1126 C 0.79687 0.94592 0.90555 0.0
C1127 C 0.81397 0.97562 0.90673 0.0
C1128 C 0.79004 0.92885 0.93441 0.0
C1129 C 0.822 0.98934 0.93712 0.0
C1130 C 0.81488 0.97275 0.96597 0.0
C1131 C 0.79729 0.92334 0.99304 0.0
C1132 C 0.78686 0.89092 0.99115 0.0
C1133 C 0.79991 0.94211 0.96474 0.0
C1134 C 0.77425 0.87875 0.96171 0.0
C1135 C 0.77552 0.89785 0.9334 0.0
H1136 H 0.80358 0.21995 0.15021 0.0
H1137 H 0.76036 0.29763 0.20603 0.0
H1138 H 0.76114 0.26354 0.25531 0.0
H1139 H 0.784 0.216 0.28362 0.0
H1140 H 0.83117 0.14038 0.22763 0.0
H1141 H 0.81933 0.16953 0.17702 0.0
C1142 C 0.79337 0.22897 0.17301 0.0
C1143 C 0.7823 0.26113 0.17493 0.0
C1144 C 0.79568 0.21005 0.20121 0.0
C1145 C 0.76883 0.27278 0.20419 0.0
C1146 C 0.76986 0.25351 0.23238 0.0
C1147 C 0.7916 0.20586 0.26032 0.0
C1148 C 0.80935 0.17663 0.25929 0.0
C1149 C 0.78496 0.22288 0.23144 0.0
C1150 C 0.8181 0.16319 0.22898 0.0
C1151 C 0.8112 0.17974 0.20009 0.0
H1152 H 0.44499 0.27619 0.78127 0.0
H1153 H 0.51983 0.3277 0.72754 0.0
H1154 H 0.49026 0.31799 0.6765 0.0
H1155 H 0.43919 0.30327 0.6494 0.0
H1156 H 0.36228 0.25587 0.70356 0.0
H1157 H 0.3973 0.25407 0.75221 0.0
C1158 C 0.45492 0.28515 0.75836 0.0
C1159 C 0.48397 0.30358 0.75815 0.0
C1160 C 0.43762 0.2798 0.72931 0.0
C1161 C 0.49716 0.31407 0.72828 0.0
C1162 C 0.48034 0.30842 0.69915 0.0
C1163 C 0.43057 0.29155 0.6716 0.0
C1164 C 0.39828 0.28007 0.67333 0.0
C1165 C 0.45002 0.29242 0.69964 0.0
C1166 C 0.38718 0.26467 0.70183 0.0
C1167 C 0.40699 0.26423 0.72972 0.0
H1168 H 0.3718 0.86947 0.20352 0.0
H1169 H 0.34819 0.93848 0.12805 0.0
H1170 H 0.3449 0.98206 0.16855 0.0
H1171 H 0.34074 0.99859 0.2262 0.0
H1172 H 0.36097 0.92835 0.3019 0.0
H1173 H 0.37338 0.88741 0.26085 0.0
C1174 C 0.3672 0.89431 0.19597 0.0
C1175 C 0.36045 0.90102 0.1631 0.0
C1176 C 0.36369 0.91886 0.21958 0.0
C1177 C 0.35369 0.93303 0.1534 0.0
C1178 C 0.35141 0.95783 0.17655 0.0
C1179 C 0.34797 0.97437 0.23365 0.0
C1180 C 0.34917 0.96638 0.26698 0.0
C1181 C 0.35489 0.95071 0.20987 0.0
C1182 C 0.35922 0.93504 0.27633 0.0
C1183 C 0.36654 0.91156 0.25288 0.0
H1184 H 0.7924 0.8706 0.70526 0.0
H1185 H 0.71385 0.87341 0.63538 0.0
H1186 H 0.67376 0.86699 0.67933 0.0
H1187 H 0.66211 0.85106 0.73605 0.0
H1188 H 0.74134 0.84445 0.80532 0.0
H1189 H 0.78014 0.86125 0.76328 0.0
C1190 C 0.76643 0.87137 0.7 0.0
C1191 C 0.75584 0.87286 0.66747 0.0
C1192 C 0.74377 0.86553 0.72511 0.0
C1193 C 0.72229 0.87282 0.66051 0.0
C1194 C 0.69946 0.86852 0.68552 0.0
C1195 C 0.68785 0.85334 0.74191 0.0
C1196 C 0.69895 0.84579 0.77346 0.0
C1197 C 0.71007 0.86307 0.71763 0.0
C1198 C 0.73226 0.8496 0.78098 0.0
C1199 C 0.75447 0.85943 0.75704 0.0
H1200 H 0.34786 0.21939 1.01514 0.0
H1201 H 0.40161 0.29207 0.96135 0.0
H1202 H 0.40402 0.2558 0.91374 0.0
H1203 H 0.38126 0.20848 0.88495 0.0
H1204 H 0.32383 0.13778 0.93799 0.0
H1205 H 0.33222 0.16837 0.98868 0.0
C1206 C 0.361 0.22682 0.99327 0.0
C1207 C 0.37418 0.25832 0.99132 0.0
C1208 C 0.36066 0.20665 0.96576 0.0
C1209 C 0.39143 0.26782 0.96326 0.0
C1210 C 0.39229 0.24731 0.93595 0.0
C1211 C 0.37073 0.19965 0.90766 0.0
C1212 C 0.35105 0.17152 0.90771 0.0
C1213 C 0.37534 0.21753 0.93644 0.0
C1214 C 0.33851 0.15971 0.93736 0.0
C1215 C 0.34337 0.17714 0.96627 0.0
H1216 H 0.36921 0.87241 0.45443 0.0
H1217 H 0.44649 0.86181 0.52497 0.0
H1218 H 0.4868 0.8575 0.48099 0.0
H1219 H 0.49834 0.84754 0.42284 0.0
H1220 H 0.41991 0.85414 0.35261 0.0
H1221 H 0.38182 0.86884 0.39587 0.0
C1222 C 0.39506 0.8706 0.46001 0.0
C1223 C 0.40514 0.86768 0.49258 0.0
C1224 C 0.41771 0.86615 0.43464 0.0
C1225 C 0.43847 0.86446 0.49984 0.0
C1226 C 0.46139 0.86146 0.47475 0.0
C1227 C 0.47294 0.85228 0.41706 0.0
C1228 C 0.46183 0.84898 0.38477 0.0
C1229 C 0.45102 0.86058 0.44211 0.0
C1230 C 0.429 0.85592 0.37744 0.0
C1231 C 0.40717 0.86455 0.40212 0.0
H1232 H 0.66013 0.30871 0.43182 0.0
H1233 H 0.73493 0.30401 0.35739 0.0
H1234 H 0.77561 0.29038 0.39849 0.0
H1235 H 0.79129 0.28631 0.4563 0.0
H1236 H 0.71751 0.29479 0.53099 0.0
H1237 H 0.67497 0.2991 0.48927 0.0
C1238 C 0.68532 0.30468 0.42466 0.0
C1239 C 0.69459 0.30805 0.39177 0.0
C1240 C 0.70873 0.29693 0.44847 0.0
C1241 C 0.7272 0.30207 0.38269 0.0
C1242 C 0.75052 0.29406 0.40613 0.0
C1243 C 0.76573 0.2877 0.46326 0.0
C1244 C 0.75726 0.28981 0.49638 0.0
C1245 C 0.74173 0.29207 0.43917 0.0
C1246 C 0.7243 0.29265 0.50542 0.0
C1247 C 0.70009 0.29564 0.48163 0.0
H1248 H 0.22996 0.38631 0.48544 0.0
H1249 H 0.26277 0.29077 0.51343 0.0
H1250 H 0.22839 0.26644 0.47074 0.0
H1251 H 0.18599 0.27263 0.42906 0.0
H1252 H 0.15302 0.36823 0.40142 0.0
H1253 H 0.19128 0.39276 0.44044 0.0
C1254 C 0.22964 0.36015 0.48208 0.0
C1255 C 0.24814 0.34009 0.50264 0.0
C1256 C 0.21003 0.34662 0.45775 0.0
C1257 C 0.24831 0.30642 0.49786 0.0
C1258 C 0.22874 0.29263 0.47359 0.0
C1259 C 0.18745 0.29886 0.43141 0.0
C1260 C 0.16665 0.31879 0.41303 0.0
C1261 C 0.20905 0.31252 0.45393 0.0
C1262 C 0.16888 0.35263 0.41563 0.0
C1263 C 0.19054 0.36654 0.43794 0.0
H1264 H 0.35407 0.74437 0.99728 0.0
H1265 H 0.25332 0.71949 0.97878 0.0
H1266 H 0.26968 0.68274 0.93497 0.0
H1267 H 0.31284 0.65429 0.90517 0.0
H1268 H 0.41375 0.67615 0.92619 0.0
H1269 H 0.39728 0.71773 0.96549 0.0
C1270 C 0.33585 0.73107 0.98335 0.0
C1271 C 0.30278 0.73412 0.99118 0.0
C1272 C 0.34544 0.70943 0.9588 0.0
C1273 C 0.27909 0.717 0.97322 0.0
C1274 C 0.28835 0.69609 0.94818 0.0
C1275 C 0.33108 0.66853 0.91811 0.0
C1276 C 0.36423 0.66229 0.91328 0.0
C1277 C 0.32148 0.6916 0.94125 0.0
C1278 C 0.38794 0.68058 0.93 0.0
C1279 C 0.3786 0.70427 0.95241 0.0
H1280 H 0.99497 0.81017 0.41145 0.0
H1281 H 0.98385 0.90987 0.44204 0.0
H1282 H 0.93862 0.89469 0.47786 0.0
H1283 H 0.90516 0.85238 0.50365 0.0
H1284 H 0.91871 0.75227 0.4757 0.0
H1285 H 0.9597 0.7682 0.43531 0.0
C1286 C 0.98241 0.82847 0.42583 0.0
C1287 C 0.99267 0.86084 0.4246 0.0
C1288 C 0.95691 0.81951 0.44677 0.0
C1289 C 0.9764 0.88461 0.44309 0.0
C1290 C 0.95053 0.87602 0.46345 0.0
C1291 C 0.91681 0.83426 0.4883 0.0
C1292 C 0.90938 0.80139 0.49249 0.0
C1293 C 0.94099 0.84346 0.46594 0.0
C1294 C 0.9245 0.77782 0.47282 0.0
C1295 C 0.9479 0.78685 0.44983 0.0
H1296 H 0.77287 0.47584 0.93139 0.0
H1297 H 0.86975 0.50525 0.90172 0.0
H1298 H 0.89339 0.46237 0.93591 0.0
H1299 H 0.88608 0.42096 0.97816 0.0
H1300 H 0.78915 0.39263 1.00876 0.0
H1301 H 0.76542 0.43073 0.96939 0.0
C1302 C 0.79917 0.47272 0.93232 0.0
C1303 C 0.81981 0.49377 0.91492 0.0
C1304 C 0.81228 0.44845 0.95196 0.0
C1305 C 0.85368 0.48929 0.9154 0.0
C1306 C 0.86706 0.46493 0.93487 0.0
C1307 C 0.85974 0.42293 0.97591 0.0
C1308 C 0.83917 0.40477 0.99642 0.0
C1309 C 0.84656 0.44505 0.95386 0.0
C1310 C 0.80521 0.40676 0.99315 0.0
C1311 C 0.79176 0.42854 0.97088 0.0
H1312 H 0.24664 0.84885 0.65277 0.0
H1313 H 0.23919 0.74901 0.68385 0.0
H1314 H 0.19736 0.76352 0.7239 0.0
H1315 H 0.1602 0.80402 0.74713 0.0
H1316 H 0.16524 0.90321 0.71338 0.0
H1317 H 0.21058 0.88965 0.67717 0.0
C1318 C 0.23613 0.83052 0.66875 0.0
C1319 C 0.24558 0.79811 0.66565 0.0
C1320 C 0.2114 0.83882 0.6908 0.0
C1321 C 0.23186 0.77421 0.68599 0.0
C1322 C 0.20798 0.78242 0.70874 0.0
C1323 C 0.17135 0.82254 0.73184 0.0
C1324 C 0.15946 0.8543 0.73247 0.0
C1325 C 0.19704 0.81452 0.71082 0.0
C1326 C 0.17395 0.87838 0.71284 0.0
C1327 C 0.19992 0.87075 0.69229 0.0
H1328 H 0.76837 0.67727 0.23006 0.0
H1329 H 0.86317 0.64704 0.26442 0.0
H1330 H 0.88924 0.68917 0.23089 0.0
H1331 H 0.88479 0.73091 0.18865 0.0
H1332 H 0.79 0.76058 0.15378 0.0
H1333 H 0.76367 0.72229 0.19148 0.0
C1334 C 0.79475 0.68004 0.23027 0.0
C1335 C 0.81411 0.65903 0.24894 0.0
C1336 C 0.80928 0.704 0.21108 0.0
C1337 C 0.84807 0.66299 0.2498 0.0
C1338 C 0.86285 0.68694 0.23072 0.0
C1339 C 0.85834 0.72916 0.18957 0.0
C1340 C 0.83914 0.74787 0.16841 0.0
C1341 C 0.84367 0.70702 0.21079 0.0
C1342 C 0.80502 0.74608 0.16993 0.0
C1343 C 0.79009 0.72419 0.19127 0.0
H1344 H 0.91179 0.30381 0.6621 0.0
H1345 H 0.93006 0.40462 0.68467 0.0
H1346 H 0.9684 0.38915 0.72751 0.0
H1347 H 0.99991 0.34707 0.75546 0.0
H1348 H 0.98439 0.24638 0.73045 0.0
H1349 H 0.94166 0.26152 0.6918 0.0
C1350 C 0.92395 0.32222 0.67673 0.0
C1351 C 0.91857 0.3551 0.67036 0.0
C1352 C 0.94655 0.3132 0.70066 0.0
C1353 C 0.93431 0.37903 0.68917 0.0
C1354 C 0.95615 0.37027 0.71361 0.0
C1355 C 0.98687 0.32856 0.74172 0.0
C1356 C 0.99519 0.29588 0.74534 0.0
C1357 C 0.96298 0.33746 0.71908 0.0
C1358 C 0.97839 0.27184 0.7276 0.0
C1359 C 0.954 0.28042 0.70559 0.0
H1360 H 0.30769 0.49322 0.24872 0.0
H1361 H 0.40889 0.47178 0.22906 0.0
H1362 H 0.39294 0.43022 0.18943 0.0
H1363 H 0.35014 0.40364 0.15686 0.0
H1364 H 0.24917 0.42798 0.17427 0.0
H1365 H 0.26495 0.46456 0.21847 0.0
C1366 C 0.32612 0.4791 0.236 0.0
C1367 C 0.35921 0.48547 0.24128 0.0
C1368 C 0.31682 0.45599 0.21274 0.0
C1369 C 0.38313 0.46727 0.22488 0.0
C1370 C 0.37409 0.44358 0.2023 0.0
C1371 C 0.33174 0.41674 0.17066 0.0
C1372 C 0.29878 0.41364 0.16238 0.0
C1373 C 0.34101 0.4383 0.19546 0.0
C1374 C 0.27486 0.43052 0.18018 0.0
C1375 C 0.28379 0.45134 0.20543 0.0
H1376 H 0.40747 0.16041 0.35018 0.0
H1377 H 0.43122 0.18165 0.24955 0.0
H1378 H 0.46958 0.22374 0.26686 0.0
H1379 H 0.49965 0.25134 0.31075 0.0
H1380 H 0.47839 0.22764 0.41137 0.0
H1381 H 0.43565 0.18993 0.39409 0.0
C1382 C 0.42082 0.17458 0.33218 0.0
C1383 C 0.41694 0.168 0.29884 0.0
C1384 C 0.44338 0.19814 0.34229 0.0
C1385 C 0.43424 0.18628 0.27549 0.0
C1386 C 0.45611 0.21031 0.28531 0.0
C1387 C 0.48532 0.23815 0.32876 0.0
C1388 C 0.49208 0.24186 0.36208 0.0
C1389 C 0.4614 0.21596 0.31865 0.0
C1390 C 0.47362 0.22476 0.38544 0.0
C1391 C 0.44922 0.20325 0.37564 0.0
H1392 H 0.42644 0.96729 0.88478 0.0
H1393 H 0.40039 0.99987 0.7879 0.0
H1394 H 0.43856 0.96085 0.76386 0.0
H1395 H 0.48244 0.92156 0.771 0.0
H1396 H 0.50957 0.8896 0.86775 0.0
H1397 H 0.46726 0.92443 0.89168 0.0
C1398 C 0.42897 0.9656 0.85839 0.0
C1399 C 0.41126 0.98649 0.83796 0.0
C1400 C 0.45106 0.94355 0.84498 0.0
C1401 C 0.41413 0.98401 0.8039 0.0
C1402 C 0.43592 0.96185 0.79025 0.0
C1403 C 0.47892 0.92209 0.79733 0.0
C1404 C 0.49915 0.90371 0.81783 0.0
C1405 C 0.45502 0.94217 0.81064 0.0
C1406 C 0.49422 0.90391 0.85174 0.0
C1407 C 0.47019 0.92379 0.86531 0.0
H1408 H 0.73612 0.97162 0.2762 0.0
H1409 H 0.7606 1.00379 0.3737 0.0
H1410 H 0.72282 0.9635 0.39685 0.0
H1411 H 0.6788 0.92393 0.38849 0.0
H1412 H 0.65333 0.89326 0.29073 0.0
H1413 H 0.6961 0.92841 0.26812 0.0
C1414 C 0.73339 0.96956 0.30255 0.0
C1415 C 0.75037 0.99072 0.32341 0.0
C1416 C 0.71147 0.94699 0.31537 0.0
C1417 C 0.74739 0.98767 0.3574 0.0
C1418 C 0.72578 0.96485 0.37052 0.0
C1419 C 0.68284 0.9248 0.36225 0.0
C1420 C 0.66286 0.90676 0.34106 0.0
C1421 C 0.70703 0.94516 0.34963 0.0
C1422 C 0.66843 0.90737 0.30725 0.0
C1423 C 0.69274 0.9274 0.29442 0.0
H1424 H 0.73914 0.17951 0.89167 0.0
H1425 H 0.76827 0.14928 0.7948 0.0
H1426 H 0.73255 0.19057 0.77073 0.0
H1427 H 0.689 0.23053 0.77776 0.0
H1428 H 0.65852 0.25907 0.87477 0.0
H1429 H 0.69949 0.22301 0.89873 0.0
C1430 C 0.73785 0.18219 0.86528 0.0
C1431 C 0.75554 0.16132 0.8448 0.0
C1432 C 0.71711 0.20535 0.8519 0.0
C1433 C 0.75444 0.16515 0.81078 0.0
C1434 C 0.73405 0.18856 0.79714 0.0
C1435 C 0.69159 0.22903 0.80415 0.0
C1436 C 0.6707 0.2467 0.8247 0.0
C1437 C 0.71461 0.20805 0.81752 0.0
C1438 C 0.67436 0.24525 0.85873 0.0
C1439 C 0.69762 0.22469 0.87232 0.0
H1440 H 0.91939 0.8619 0.65004 0.0
H1441 H 0.92409 0.75722 0.6531 0.0
H1442 H 0.96695 0.76026 0.69453 0.0
H1443 H 1.00319 0.79241 0.73076 0.0
H1444 H 0.99874 0.89708 0.72778 0.0
H1445 H 0.9562 0.89414 0.6859 0.0
C1446 C 0.92986 0.83968 0.65957 0.0
C1447 C 0.91829 0.8093 0.6479 0.0
C1448 C 0.95481 0.84157 0.68366 0.0
C1449 C 0.93238 0.78096 0.66102 0.0
C1450 C 0.95698 0.78268 0.68496 0.0
C1451 C 0.9931 0.81467 0.7209 0.0
C1452 C 1.00469 0.845 0.73262 0.0
C1453 C 0.96844 0.81281 0.69655 0.0
C1454 C 0.99087 0.87338 0.71931 0.0
C1455 C 0.96631 0.8717 0.69529 0.0
H1456 H 0.78995 0.42321 0.15039 0.0
H1457 H 0.89505 0.43025 0.1549 0.0
H1458 H 0.89068 0.47313 0.19605 0.0
H1459 H 0.85718 0.50813 0.23202 0.0
H1460 H 0.75208 0.50123 0.22752 0.0
H1461 H 0.75639 0.45922 0.18541 0.0
C1462 C 0.81196 0.43423 0.16014 0.0
C1463 C 0.84286 0.42333 0.14911 0.0
C1464 C 0.80929 0.4591 0.18402 0.0
C1465 C 0.87094 0.43808 0.16242 0.0
C1466 C 0.86846 0.46265 0.18617 0.0
C1467 C 0.83514 0.49766 0.22171 0.0
C1468 C 0.80428 0.50827 0.23308 0.0
C1469 C 0.83779 0.47332 0.19731 0.0
C1470 C 0.77616 0.49406 0.21926 0.0
C1471 C 0.77861 0.4698 0.19516 0.0
H1472 H 0.15084 0.36155 0.73903 0.0
H1473 H 0.1568 0.25701 0.73365 0.0
H1474 H 0.19858 0.26138 0.69116 0.0
H1475 H 0.23433 0.29467 0.65567 0.0
H1476 H 0.22873 0.39921 0.66101 0.0
H1477 H 0.18623 0.39494 0.70293 0.0
C1478 C 0.16109 0.33966 0.72849 0.0
C1479 C 0.15019 0.30892 0.7397 0.0
C1480 C 0.18538 0.34232 0.70382 0.0
C1481 C 0.16418 0.28099 0.72558 0.0
C1482 C 0.18829 0.28347 0.70122 0.0
C1483 C 0.22374 0.31661 0.66579 0.0
C1484 C 0.23487 0.34729 0.65471 0.0
C1485 C 0.19917 0.31398 0.69012 0.0
C1486 C 0.22069 0.37526 0.66855 0.0
C1487 C 0.19635 0.37283 0.69274 0.0
H1488 H 0.29628 0.64146 0.22925 0.0
H1489 H 0.40135 0.64935 0.2269 0.0
H1490 H 0.39749 0.69222 0.18557 0.0
H1491 H 0.36415 0.72867 0.15034 0.0
H1492 H 0.2591 0.71986 0.15257 0.0
H1493 H 0.26321 0.67662 0.19321 0.0
C1494 C 0.31845 0.65231 0.2196 0.0
C1495 C 0.34916 0.64167 0.23141 0.0
C1496 C 0.31605 0.6771 0.19557 0.0
C1497 C 0.37739 0.65644 0.21832 0.0
C1498 C 0.37517 0.68123 0.19466 0.0
C1499 C 0.3421 0.71724 0.15954 0.0
C1500 C 0.31126 0.72783 0.1479 0.0
C1501 C 0.34462 0.69192 0.1831 0.0
C1502 C 0.28317 0.71241 0.16051 0.0
C1503 C 0.2855 0.68757 0.18398 0.0
H1504 H 0.92763 0.29377 0.51169 0.0
H1505 H 0.93236 0.39845 0.50801 0.0
H1506 H 0.9754 0.39544 0.46668 0.0
H1507 H 1.01157 0.36331 0.43044 0.0
H1508 H 1.00742 0.25865 0.43431 0.0
H1509 H 0.96485 0.26155 0.47627 0.0
C1510 C 0.93814 0.31599 0.50204 0.0
C1511 C 0.92649 0.34637 0.51347 0.0
C1512 C 0.96328 0.31412 0.47806 0.0
C1513 C 0.94069 0.37471 0.50026 0.0
C1514 C 0.9654 0.37301 0.47637 0.0
C1515 C 1.0016 0.34105 0.44057 0.0
C1516 C 1.01323 0.31074 0.42902 0.0
C1517 C 0.97692 0.34288 0.46498 0.0
C1518 C 0.99955 0.28235 0.44266 0.0
C1519 C 0.97494 0.28399 0.4667 0.0
H1520 H 0.36386 0.42403 1.0063 0.0
H1521 H 0.25892 0.4318 1.00049 0.0
H1522 H 0.26439 0.47421 0.95898 0.0
H1523 H 0.29884 0.5088 0.92323 0.0
H1524 H 0.40377 0.50079 0.92882 0.0
H1525 H 0.39832 0.45918 0.97114 0.0
C1526 C 0.3421 0.43508 0.99618 0.0
C1527 C 0.31092 0.42454 1.00702 0.0
C1528 C 0.34541 0.45962 0.97203 0.0
C1529 C 0.28322 0.43932 0.99316 0.0
C1530 C 0.28634 0.46363 0.96919 0.0
C1531 C 0.32061 0.49817 0.93379 0.0
C1532 C 0.35177 0.50843 0.92267 0.0
C1533 C 0.3173 0.47398 0.95831 0.0
C1534 C 0.37948 0.49393 0.93683 0.0
C1535 C 0.37637 0.4699 0.96108 0.0
H1536 H 0.23799 0.86271 0.51193 0.0
H1537 H 0.23071 0.75826 0.50577 0.0
H1538 H 0.18658 0.76323 0.46594 0.0
H1539 H 0.15035 0.79703 0.43175 0.0
H1540 H 0.15735 0.90148 0.43779 0.0
H1541 H 0.20082 0.89662 0.47849 0.0
C1542 C 0.22669 0.84097 0.50205 0.0
C1543 C 0.23789 0.81007 0.51226 0.0
C1544 C 0.20103 0.84399 0.47895 0.0
C1545 C 0.22272 0.78235 0.49886 0.0
C1546 C 0.1974 0.78518 0.47587 0.0
C1547 C 0.16116 0.81882 0.44207 0.0
C1548 C 0.15012 0.84966 0.43156 0.0
C1549 C 0.18636 0.81584 0.46563 0.0
C1550 C 0.16482 0.87743 0.4454 0.0
C1551 C 0.18991 0.87465 0.46869 0.0
H1552 H 0.86552 0.6488 0.93147 0.0
H1553 H 0.76036 0.65123 0.93823 0.0
H1554 H 0.76393 0.69243 0.98119 0.0
H1555 H 0.79672 0.72895 1.0165 0.0
H1556 H 0.90189 0.72633 1.01014 0.0
H1557 H 0.8984 0.68437 0.96787 0.0
C1558 C 0.84332 0.65812 0.94244 0.0
C1559 C 0.81264 0.64644 0.93142 0.0
C1560 C 0.84554 0.682 0.96745 0.0
C1561 C 0.78432 0.6592 0.94615 0.0
C1562 C 0.78634 0.683 0.97077 0.0
C1563 C 0.81897 0.71909 1.00611 0.0
C1564 C 0.84961 0.73098 1.01699 0.0
C1565 C 0.81679 0.69471 0.98162 0.0
C1566 C 0.87797 0.71769 1.00282 0.0
C1567 C 0.87599 0.69366 0.97839 0.0
H1568 H 0.65153 0.92448 0.86604 0.0
H1569 H 0.65823 0.92782 0.76066 0.0
H1570 H 0.69946 0.97066 0.76439 0.0
H1571 H 0.73487 1.00668 0.79743 0.0
H1572 H 0.7284 1.00329 0.90281 0.0
H1573 H 0.68612 0.96141 0.8991 0.0
C1574 C 0.66179 0.93468 0.84383 0.0
C1575 C 0.65134 0.92277 0.81306 0.0
C1576 C 0.68574 0.95951 0.84612 0.0
C1577 C 0.66531 0.93644 0.78469 0.0
C1578 C 0.6891 0.96099 0.7868 0.0
C1579 C 0.72409 0.99702 0.81965 0.0
C1580 C 0.73495 1.00859 0.85041 0.0
C1581 C 0.69965 0.97269 0.81736 0.0
C1582 C 0.72055 0.99537 0.87878 0.0
C1583 C 0.69635 0.97119 0.87668 0.0
H1584 H 0.64602 0.22599 0.30195 0.0
H1585 H 0.65445 0.22568 0.40723 0.0
H1586 H 0.69632 0.18363 0.40385 0.0
H1587 H 0.73177 0.14737 0.3711 0.0
H1588 H 0.72347 0.14768 0.26583 0.0
H1589 H 0.68068 0.18884 0.26924 0.0
C1590 C 0.65679 0.21662 0.32424 0.0
C1591 C 0.64659 0.22918 0.35488 0.0
C1592 C 0.68112 0.19222 0.32214 0.0
C1593 C 0.66127 0.21656 0.38331 0.0
C1594 C 0.68544 0.19245 0.38139 0.0
C1595 C 0.72049 0.1562 0.34884 0.0
C1596 C 0.73102 0.14394 0.31819 0.0
C1597 C 0.6957 0.18012 0.35096 0.0
C1598 C 0.71593 0.15612 0.28978 0.0
C1599 C 0.69142 0.17989 0.29171 0.0
H1600 H 0.43359 0.1413 0.79606 0.0
H1601 H 0.43388 0.14332 0.90163 0.0
H1602 H 0.47656 0.18512 0.9008 0.0
H1603 H 0.51291 0.22271 0.87007 0.0
H1604 H 0.51262 0.22012 0.76447 0.0
H1605 H 0.47124 0.17724 0.76548 0.0
C1606 C 0.44312 0.15061 0.81898 0.0
C1607 C 0.43033 0.13873 0.84893 0.0
C1608 C 0.46784 0.1748 0.81833 0.0
C1609 C 0.44324 0.15144 0.87821 0.0
C1610 C 0.46764 0.1756 0.87774 0.0
C1611 C 0.50406 0.21263 0.84722 0.0
C1612 C 0.51634 0.22487 0.81718 0.0
C1613 C 0.48005 0.18767 0.84795 0.0
C1614 C 0.50418 0.21127 0.78797 0.0
C1615 C 0.48027 0.18671 0.78853 0.0
H1616 H 0.50715 0.92734 0.28874 0.0
H1617 H 0.50411 0.93275 0.39419 0.0
H1618 H 0.46392 0.97644 0.39101 0.0
H1619 H 0.42836 1.01265 0.35841 0.0
H1620 H 0.43133 1.00701 0.25296 0.0
H1621 H 0.4725 0.96429 0.25616 0.0
C1622 C 0.49792 0.93815 0.31111 0.0
C1623 C 0.5091 0.92656 0.34173 0.0
C1624 C 0.47457 0.96343 0.30912 0.0
C1625 C 0.49646 0.94108 0.37026 0.0
C1626 C 0.47325 0.96612 0.36846 0.0
C1627 C 0.43813 1.00231 0.33605 0.0
C1628 C 0.42659 1.01352 0.30541 0.0
C1629 C 0.46198 0.97747 0.33804 0.0
C1630 C 0.4397 0.99939 0.27688 0.0
C1631 C 0.46328 0.97473 0.2787 0.0
loop_
_geom_bond_atom_site_label_1
_geom_bond_atom_site_label_2
_geom_bond_distance
_geom_bond_site_symmetry_2
_ccdc_geom_bond_type
O0 Tb1 2.506 . S
O0 C14 1.265 . S
Tb1 O0 2.506 . S
Tb1 O6 2.312 1_655 S
Tb1 O10 2.271 . S
Tb1 O12 2.338 . S
Tb1 O19 2.441 . S
C2 O10 1.252 . S
C2 O11 1.253 . S
O3 Tb4 2.271 . S
O3 C13 1.252 . S
Tb4 O3 2.271 . S
Tb4 O7 2.338 . S
Tb4 O11 2.312 1_455 S
Tb4 O15 2.441 . S
Tb4 O16 2.506 . S
C5 O15 1.244 . S
C5 O16 1.265 . S
O6 Tb1 2.312 1_455 S
O6 C13 1.253 . S
O7 Tb4 2.338 . S
O7 C8 1.258 . S
C8 O7 1.258 . S
C8 O9 1.251 . S
O9 C8 1.251 . S
O10 Tb1 2.271 . S
O10 C2 1.252 . S
O11 C2 1.253 . S
O11 Tb4 2.312 1_655 S
O12 Tb1 2.338 . S
O12 C17 1.258 . S
C13 O3 1.252 . S
C13 O6 1.253 . S
C14 O0 1.265 . S
C14 O19 1.244 . S
O15 Tb4 2.441 . S
O15 C5 1.244 . S
O16 Tb4 2.506 . S
O16 C5 1.265 . S
C17 O12 1.258 . S
C17 O18 1.251 . S
O18 C17 1.251 . S
O19 Tb1 2.441 . S
O19 C14 1.244 . S
O20 Tb21 2.506 . S
O20 C34 1.265 . S
Tb21 O20 2.506 . S
Tb21 O26 2.312 . S
Tb21 O30 2.271 . S
Tb21 O32 2.338 . S
Tb21 O39 2.441 . S
C22 O30 1.252 . S
C22 O31 1.253 . S
O23 Tb24 2.271 . S
O23 C33 1.252 . S
Tb24 O23 2.271 . S
Tb24 O27 2.338 . S
Tb24 O31 2.312 . S
Tb24 O35 2.441 . S
Tb24 O36 2.506 . S
C25 O35 1.244 . S
C25 O36 1.265 . S
O26 Tb21 2.312 . S
O26 C33 1.253 . S
O27 Tb24 2.338 . S
O27 C28 1.258 . S
C28 O27 1.258 . S
C28 O29 1.251 . S
O29 C28 1.251 . S
O30 Tb21 2.271 . S
O30 C22 1.252 . S
O31 C22 1.253 . S
O31 Tb24 2.312 . S
O32 Tb21 2.338 . S
O32 C37 1.258 . S
C33 O23 1.252 . S
C33 O26 1.253 . S
C34 O20 1.265 . S
C34 O39 1.244 . S
O35 Tb24 2.441 . S
O35 C25 1.244 . S
O36 Tb24 2.506 . S
O36 C25 1.265 . S
C37 O32 1.258 . S
C37 O38 1.251 . S
O38 C37 1.251 . S
O39 Tb21 2.441 . S
O39 C34 1.244 . S
O40 Tb41 2.506 . S
O40 C54 1.265 . S
Tb41 O40 2.506 . S
Tb41 O46 2.312 1_455 S
Tb41 O50 2.271 . S
Tb41 O52 2.338 . S
Tb41 O59 2.441 . S
C42 O50 1.252 . S
C42 O51 1.253 . S
O43 Tb44 2.271 . S
O43 C53 1.252 . S
Tb44 O43 2.271 . S
Tb44 O47 2.338 . S
Tb44 O51 2.312 1_655 S
Tb44 O55 2.441 . S
Tb44 O56 2.506 . S
C45 O55 1.244 . S
C45 O56 1.265 . S
O46 Tb41 2.312 1_655 S
O46 C53 1.253 . S
O47 Tb44 2.338 . S
O47 C48 1.258 . S
C48 O47 1.258 . S
C48 O49 1.251 . S
O49 C48 1.251 . S
O50 Tb41 2.271 . S
O50 C42 1.252 . S
O51 C42 1.253 . S
O51 Tb44 2.312 1_455 S
O52 Tb41 2.338 . S
O52 C57 1.258 . S
C53 O43 1.252 . S
C53 O46 1.253 . S
C54 O40 1.265 . S
C54 O59 1.244 . S
O55 Tb44 2.441 . S
O55 C45 1.244 . S
O56 Tb44 2.506 . S
O56 C45 1.265 . S
C57 O52 1.258 . S
C57 O58 1.251 . S
O58 C57 1.251 . S
O59 Tb41 2.441 . S
O59 C54 1.244 . S
O60 Tb61 2.506 . S
O60 C74 1.265 . S
Tb61 O60 2.506 . S
Tb61 O66 2.312 . S
Tb61 O70 2.271 . S
Tb61 O72 2.338 . S
Tb61 O79 2.441 . S
C62 O70 1.252 . S
C62 O71 1.253 . S
O63 Tb64 2.271 . S
O63 C73 1.252 . S
Tb64 O63 2.271 . S
Tb64 O67 2.338 . S
Tb64 O71 2.312 . S
Tb64 O75 2.441 . S
Tb64 O76 2.506 . S
C65 O75 1.244 . S
C65 O76 1.265 . S
O66 Tb61 2.312 . S
O66 C73 1.253 . S
O67 Tb64 2.338 . S
O67 C68 1.258 . S
C68 O67 1.258 . S
C68 O69 1.251 . S
O69 C68 1.251 . S
O70 Tb61 2.271 . S
O70 C62 1.252 . S
O71 C62 1.253 . S
O71 Tb64 2.312 . S
O72 Tb61 2.338 . S
O72 C77 1.258 . S
C73 O63 1.252 . S
C73 O66 1.253 . S
C74 O60 1.265 . S
C74 O79 1.244 . S
O75 Tb64 2.441 . S
O75 C65 1.244 . S
O76 Tb64 2.506 . S
O76 C65 1.265 . S
C77 O72 1.258 . S
C77 O78 1.251 . S
O78 C77 1.251 . S
O79 Tb61 2.441 . S
O79 C74 1.244 . S
O80 Tb81 2.506 . S
O80 C94 1.265 . S
Tb81 O80 2.506 . S
Tb81 O86 2.312 1_655 S
Tb81 O90 2.271 . S
Tb81 O92 2.338 . S
Tb81 O99 2.441 . S
C82 O90 1.252 . S
C82 O91 1.253 . S
O83 Tb84 2.271 . S
O83 C93 1.252 . S
Tb84 O83 2.271 . S
Tb84 O87 2.338 . S
Tb84 O91 2.312 1_455 S
Tb84 O95 2.441 . S
Tb84 O96 2.506 . S
C85 O95 1.244 . S
C85 O96 1.265 . S
O86 Tb81 2.312 1_455 S
O86 C93 1.253 . S
O87 Tb84 2.338 . S
O87 C88 1.258 . S
C88 O87 1.258 . S
C88 O89 1.251 . S
O89 C88 1.251 . S
O90 Tb81 2.271 . S
O90 C82 1.252 . S
O91 C82 1.253 . S
O91 Tb84 2.312 1_655 S
O92 Tb81 2.338 . S
O92 C97 1.258 . S
C93 O83 1.252 . S
C93 O86 1.253 . S
C94 O80 1.265 . S
C94 O99 1.244 . S
O95 Tb84 2.441 . S
O95 C85 1.244 . S
O96 Tb84 2.506 . S
O96 C85 1.265 . S
C97 O92 1.258 . S
C97 O98 1.251 . S
O98 C97 1.251 . S
O99 Tb81 2.441 . S
O99 C94 1.244 . S
O100 Tb101 2.506 . S
O100 C114 1.265 . S
Tb101 O100 2.506 . S
Tb101 O106 2.312 . S
Tb101 O110 2.271 . S
Tb101 O112 2.338 . S
Tb101 O119 2.441 . S
C102 O110 1.252 . S
C102 O111 1.253 . S
O103 Tb104 2.271 . S
O103 C113 1.252 . S
Tb104 O103 2.271 . S
Tb104 O107 2.338 . S
Tb104 O111 2.312 . S
Tb104 O115 2.441 . S
Tb104 O116 2.506 . S
C105 O115 1.244 . S
C105 O116 1.265 . S
O106 Tb101 2.312 . S
O106 C113 1.253 . S
O107 Tb104 2.338 . S
O107 C108 1.258 . S
C108 O107 1.258 . S
C108 O109 1.251 . S
O109 C108 1.251 . S
O110 Tb101 2.271 . S
O110 C102 1.252 . S
O111 C102 1.253 . S
O111 Tb104 2.312 . S
O112 Tb101 2.338 . S
O112 C117 1.258 . S
C113 O103 1.252 . S
C113 O106 1.253 . S
C114 O100 1.265 . S
C114 O119 1.244 . S
O115 Tb104 2.441 . S
O115 C105 1.244 . S
O116 Tb104 2.506 . S
O116 C105 1.265 . S
C117 O112 1.258 . S
C117 O118 1.251 . S
O118 C117 1.251 . S
O119 Tb101 2.441 . S
O119 C114 1.244 . S
O120 Tb121 2.506 . S
O120 C134 1.265 . S
Tb121 O120 2.506 . S
Tb121 O126 2.312 1_455 S
Tb121 O130 2.271 . S
Tb121 O132 2.338 . S
Tb121 O139 2.441 . S
C122 O130 1.252 . S
C122 O131 1.253 . S
O123 Tb124 2.271 . S
O123 C133 1.252 . S
Tb124 O123 2.271 . S
Tb124 O127 2.338 . S
Tb124 O131 2.312 1_655 S
Tb124 O135 2.441 . S
Tb124 O136 2.506 . S
C125 O135 1.244 . S
C125 O136 1.265 . S
O126 Tb121 2.312 1_655 S
O126 C133 1.253 . S
O127 Tb124 2.338 . S
O127 C128 1.258 . S
C128 O127 1.258 . S
C128 O129 1.251 . S
O129 C128 1.251 . S
O130 Tb121 2.271 . S
O130 C122 1.252 . S
O131 C122 1.253 . S
O131 Tb124 2.312 1_455 S
O132 Tb121 2.338 . S
O132 C137 1.258 . S
C133 O123 1.252 . S
C133 O126 1.253 . S
C134 O120 1.265 . S
C134 O139 1.244 . S
O135 Tb124 2.441 . S
O135 C125 1.244 . S
O136 Tb124 2.506 . S
O136 C125 1.265 . S
C137 O132 1.258 . S
C137 O138 1.251 . S
O138 C137 1.251 . S
O139 Tb121 2.441 . S
O139 C134 1.244 . S
O140 Tb141 2.506 . S
O140 C154 1.265 . S
Tb141 O140 2.506 . S
Tb141 O146 2.312 . S
Tb141 O150 2.271 . S
Tb141 O152 2.338 . S
Tb141 O159 2.441 . S
C142 O150 1.252 . S
C142 O151 1.253 . S
O143 Tb144 2.271 . S
O143 C153 1.252 . S
Tb144 O143 2.271 . S
Tb144 O147 2.338 . S
Tb144 O151 2.312 . S
Tb144 O155 2.441 . S
Tb144 O156 2.506 . S
C145 O155 1.244 . S
C145 O156 1.265 . S
O146 Tb141 2.312 . S
O146 C153 1.253 . S
O147 Tb144 2.338 . S
O147 C148 1.258 . S
C148 O147 1.258 . S
C148 O149 1.251 . S
O149 C148 1.251 . S
O150 Tb141 2.271 . S
O150 C142 1.252 . S
O151 C142 1.253 . S
O151 Tb144 2.312 . S
O152 Tb141 2.338 . S
O152 C157 1.258 . S
C153 O143 1.252 . S
C153 O146 1.253 . S
C154 O140 1.265 . S
C154 O159 1.244 . S
O155 Tb144 2.441 . S
O155 C145 1.244 . S
O156 Tb144 2.506 . S
O156 C145 1.265 . S
C157 O152 1.258 . S
C157 O158 1.251 . S
O158 C157 1.251 . S
O159 Tb141 2.441 . S
O159 C154 1.244 . S
O160 Tb161 2.506 . S
O160 C174 1.265 . S
Tb161 O160 2.506 . S
Tb161 O166 2.312 1_565 S
Tb161 O170 2.271 . S
Tb161 O172 2.338 . S
Tb161 O179 2.441 . S
C162 O170 1.252 . S
C162 O171 1.253 . S
O163 Tb164 2.271 . S
O163 C173 1.252 . S
Tb164 O163 2.271 . S
Tb164 O167 2.338 . S
Tb164 O171 2.312 1_545 S
Tb164 O175 2.441 . S
Tb164 O176 2.506 . S
C165 O175 1.244 . S
C165 O176 1.265 . S
O166 Tb161 2.312 1_545 S
O166 C173 1.253 . S
O167 Tb164 2.338 . S
O167 C168 1.258 . S
C168 O167 1.258 . S
C168 O169 1.251 . S
O169 C168 1.251 . S
O170 Tb161 2.271 . S
O170 C162 1.252 . S
O171 C162 1.253 . S
O171 Tb164 2.312 1_565 S
O172 Tb161 2.338 . S
O172 C177 1.258 . S
C173 O163 1.252 . S
C173 O166 1.253 . S
C174 O160 1.265 . S
C174 O179 1.244 . S
O175 Tb164 2.441 . S
O175 C165 1.244 . S
O176 Tb164 2.506 . S
O176 C165 1.265 . S
C177 O172 1.258 . S
C177 O178 1.251 . S
O178 C177 1.251 . S
O179 Tb161 2.441 . S
O179 C174 1.244 . S
O180 Tb181 2.506 . S
O180 C194 1.265 . S
Tb181 O180 2.506 . S
Tb181 O186 2.312 . S
Tb181 O190 2.271 . S
Tb181 O192 2.338 . S
Tb181 O199 2.441 . S
C182 O190 1.252 . S
C182 O191 1.253 . S
O183 Tb184 2.271 . S
O183 C193 1.252 . S
Tb184 O183 2.271 . S
Tb184 O187 2.338 . S
Tb184 O191 2.312 . S
Tb184 O195 2.441 . S
Tb184 O196 2.506 . S
C185 O195 1.244 . S
C185 O196 1.265 . S
O186 Tb181 2.312 . S
O186 C193 1.253 . S
O187 Tb184 2.338 . S
O187 C188 1.258 . S
C188 O187 1.258 . S
C188 O189 1.251 . S
O189 C188 1.251 . S
O190 Tb181 2.271 . S
O190 C182 1.252 . S
O191 C182 1.253 . S
O191 Tb184 2.312 . S
O192 Tb181 2.338 . S
O192 C197 1.258 . S
C193 O183 1.252 . S
C193 O186 1.253 . S
C194 O180 1.265 . S
C194 O199 1.244 . S
O195 Tb184 2.441 . S
O195 C185 1.244 . S
O196 Tb184 2.506 . S
O196 C185 1.265 . S
C197 O192 1.258 . S
C197 O198 1.251 . S
O198 C197 1.251 . S
O199 Tb181 2.441 . S
O199 C194 1.244 . S
O200 Tb201 2.506 . S
O200 C214 1.265 . S
Tb201 O200 2.506 . S
Tb201 O206 2.312 1_545 S
Tb201 O210 2.271 . S
Tb201 O212 2.338 . S
Tb201 O219 2.441 . S
C202 O210 1.252 . S
C202 O211 1.253 . S
O203 Tb204 2.271 . S
O203 C213 1.252 . S
Tb204 O203 2.271 . S
Tb204 O207 2.338 . S
Tb204 O211 2.312 1_565 S
Tb204 O215 2.441 . S
Tb204 O216 2.506 . S
C205 O215 1.244 . S
C205 O216 1.265 . S
O206 Tb201 2.312 1_565 S
O206 C213 1.253 . S
O207 Tb204 2.338 . S
O207 C208 1.258 . S
C208 O207 1.258 . S
C208 O209 1.251 . S
O209 C208 1.251 . S
O210 Tb201 2.271 . S
O210 C202 1.252 . S
O211 C202 1.253 . S
O211 Tb204 2.312 1_545 S
O212 Tb201 2.338 . S
O212 C217 1.258 . S
C213 O203 1.252 . S
C213 O206 1.253 . S
C214 O200 1.265 . S
C214 O219 1.244 . S
O215 Tb204 2.441 . S
O215 C205 1.244 . S
O216 Tb204 2.506 . S
O216 C205 1.265 . S
C217 O212 1.258 . S
C217 O218 1.251 . S
O218 C217 1.251 . S
O219 Tb201 2.441 . S
O219 C214 1.244 . S
O220 Tb221 2.506 . S
O220 C234 1.265 . S
Tb221 O220 2.506 . S
Tb221 O226 2.312 . S
Tb221 O230 2.271 . S
Tb221 O232 2.338 . S
Tb221 O239 2.441 . S
C222 O230 1.252 . S
C222 O231 1.253 . S
O223 Tb224 2.271 . S
O223 C233 1.252 . S
Tb224 O223 2.271 . S
Tb224 O227 2.338 . S
Tb224 O231 2.312 . S
Tb224 O235 2.441 . S
Tb224 O236 2.506 . S
C225 O235 1.244 . S
C225 O236 1.265 . S
O226 Tb221 2.312 . S
O226 C233 1.253 . S
O227 Tb224 2.338 . S
O227 C228 1.258 . S
C228 O227 1.258 . S
C228 O229 1.251 . S
O229 C228 1.251 . S
O230 Tb221 2.271 . S
O230 C222 1.252 . S
O231 C222 1.253 . S
O231 Tb224 2.312 . S
O232 Tb221 2.338 . S
O232 C237 1.258 . S
C233 O223 1.252 . S
C233 O226 1.253 . S
C234 O220 1.265 . S
C234 O239 1.244 . S
O235 Tb224 2.441 . S
O235 C225 1.244 . S
O236 Tb224 2.506 . S
O236 C225 1.265 . S
C237 O232 1.258 . S
C237 O238 1.251 . S
O238 C237 1.251 . S
O239 Tb221 2.441 . S
O239 C234 1.244 . S
O240 Tb241 2.506 . S
O240 C254 1.265 . S
Tb241 O240 2.506 . S
Tb241 O246 2.312 1_545 S
Tb241 O250 2.271 . S
Tb241 O252 2.338 . S
Tb241 O259 2.441 . S
C242 O250 1.252 . S
C242 O251 1.253 . S
O243 Tb244 2.271 . S
O243 C253 1.252 . S
Tb244 O243 2.271 . S
Tb244 O247 2.338 . S
Tb244 O251 2.312 1_565 S
Tb244 O255 2.441 . S
Tb244 O256 2.506 . S
C245 O255 1.244 . S
C245 O256 1.265 . S
O246 Tb241 2.312 1_565 S
O246 C253 1.253 . S
O247 Tb244 2.338 . S
O247 C248 1.258 . S
C248 O247 1.258 . S
C248 O249 1.251 . S
O249 C248 1.251 . S
O250 Tb241 2.271 . S
O250 C242 1.252 . S
O251 C242 1.253 . S
O251 Tb244 2.312 1_545 S
O252 Tb241 2.338 . S
O252 C257 1.258 . S
C253 O243 1.252 . S
C253 O246 1.253 . S
C254 O240 1.265 . S
C254 O259 1.244 . S
O255 Tb244 2.441 . S
O255 C245 1.244 . S
O256 Tb244 2.506 . S
O256 C245 1.265 . S
C257 O252 1.258 . S
C257 O258 1.251 . S
O258 C257 1.251 . S
O259 Tb241 2.441 . S
O259 C254 1.244 . S
O260 Tb261 2.506 . S
O260 C274 1.265 . S
Tb261 O260 2.506 . S
Tb261 O266 2.312 . S
Tb261 O270 2.271 . S
Tb261 O272 2.338 . S
Tb261 O279 2.441 . S
C262 O270 1.252 . S
C262 O271 1.253 . S
O263 Tb264 2.271 . S
O263 C273 1.252 . S
Tb264 O263 2.271 . S
Tb264 O267 2.338 . S
Tb264 O271 2.312 . S
Tb264 O275 2.441 . S
Tb264 O276 2.506 . S
C265 O275 1.244 . S
C265 O276 1.265 . S
O266 Tb261 2.312 . S
O266 C273 1.253 . S
O267 Tb264 2.338 . S
O267 C268 1.258 . S
C268 O267 1.258 . S
C268 O269 1.251 . S
O269 C268 1.251 . S
O270 Tb261 2.271 . S
O270 C262 1.252 . S
O271 C262 1.253 . S
O271 Tb264 2.312 . S
O272 Tb261 2.338 . S
O272 C277 1.258 . S
C273 O263 1.252 . S
C273 O266 1.253 . S
C274 O260 1.265 . S
C274 O279 1.244 . S
O275 Tb264 2.441 . S
O275 C265 1.244 . S
O276 Tb264 2.506 . S
O276 C265 1.265 . S
C277 O272 1.258 . S
C277 O278 1.251 . S
O278 C277 1.251 . S
O279 Tb261 2.441 . S
O279 C274 1.244 . S
O280 Tb281 2.506 . S
O280 C294 1.265 . S
Tb281 O280 2.506 . S
Tb281 O286 2.312 1_565 S
Tb281 O290 2.271 . S
Tb281 O292 2.338 . S
Tb281 O299 2.441 . S
C282 O290 1.252 . S
C282 O291 1.253 . S
O283 Tb284 2.271 . S
O283 C293 1.252 . S
Tb284 O283 2.271 . S
Tb284 O287 2.338 . S
Tb284 O291 2.312 1_545 S
Tb284 O295 2.441 . S
Tb284 O296 2.506 . S
C285 O295 1.244 . S
C285 O296 1.265 . S
O286 Tb281 2.312 1_545 S
O286 C293 1.253 . S
O287 Tb284 2.338 . S
O287 C288 1.258 . S
C288 O287 1.258 . S
C288 O289 1.251 . S
O289 C288 1.251 . S
O290 Tb281 2.271 . S
O290 C282 1.252 . S
O291 C282 1.253 . S
O291 Tb284 2.312 1_565 S
O292 Tb281 2.338 . S
O292 C297 1.258 . S
C293 O283 1.252 . S
C293 O286 1.253 . S
C294 O280 1.265 . S
C294 O299 1.244 . S
O295 Tb284 2.441 . S
O295 C285 1.244 . S
O296 Tb284 2.506 . S
O296 C285 1.265 . S
C297 O292 1.258 . S
C297 O298 1.251 . S
O298 C297 1.251 . S
O299 Tb281 2.441 . S
O299 C294 1.244 . S
O300 Tb301 2.506 . S
O300 C314 1.265 . S
Tb301 O300 2.506 . S
Tb301 O306 2.312 . S
Tb301 O310 2.271 . S
Tb301 O312 2.338 . S
Tb301 O319 2.441 . S
C302 O310 1.252 . S
C302 O311 1.253 . S
O303 Tb304 2.271 . S
O303 C313 1.252 . S
Tb304 O303 2.271 . S
Tb304 O307 2.338 . S
Tb304 O311 2.312 . S
Tb304 O315 2.441 . S
Tb304 O316 2.506 . S
C305 O315 1.244 . S
C305 O316 1.265 . S
O306 Tb301 2.312 . S
O306 C313 1.253 . S
O307 Tb304 2.338 . S
O307 C308 1.258 . S
C308 O307 1.258 . S
C308 O309 1.251 . S
O309 C308 1.251 . S
O310 Tb301 2.271 . S
O310 C302 1.252 . S
O311 C302 1.253 . S
O311 Tb304 2.312 . S
O312 Tb301 2.338 . S
O312 C317 1.258 . S
C313 O303 1.252 . S
C313 O306 1.253 . S
C314 O300 1.265 . S
C314 O319 1.244 . S
O315 Tb304 2.441 . S
O315 C305 1.244 . S
O316 Tb304 2.506 . S
O316 C305 1.265 . S
C317 O312 1.258 . S
C317 O318 1.251 . S
O318 C317 1.251 . S
O319 Tb301 2.441 . S
O319 C314 1.244 . S
O320 Tb321 2.506 . S
O320 C334 1.265 . S
Tb321 O320 2.506 . S
Tb321 O326 2.312 1_556 S
Tb321 O330 2.271 . S
Tb321 O332 2.338 . S
Tb321 O339 2.441 . S
C322 O330 1.252 . S
C322 O331 1.253 . S
O323 Tb324 2.271 . S
O323 C333 1.252 . S
Tb324 O323 2.271 . S
Tb324 O327 2.338 . S
Tb324 O331 2.312 1_554 S
Tb324 O335 2.441 . S
Tb324 O336 2.506 . S
C325 O335 1.244 . S
C325 O336 1.265 . S
O326 Tb321 2.312 1_554 S
O326 C333 1.253 . S
O327 Tb324 2.338 . S
O327 C328 1.258 . S
C328 O327 1.258 . S
C328 O329 1.251 . S
O329 C328 1.251 . S
O330 Tb321 2.271 . S
O330 C322 1.252 . S
O331 C322 1.253 . S
O331 Tb324 2.312 1_556 S
O332 Tb321 2.338 . S
O332 C337 1.258 . S
C333 O323 1.252 . S
C333 O326 1.253 . S
C334 O320 1.265 . S
C334 O339 1.244 . S
O335 Tb324 2.441 . S
O335 C325 1.244 . S
O336 Tb324 2.506 . S
O336 C325 1.265 . S
C337 O332 1.258 . S
C337 O338 1.251 . S
O338 C337 1.251 . S
O339 Tb321 2.441 . S
O339 C334 1.244 . S
O340 Tb341 2.506 . S
O340 C354 1.265 . S
Tb341 O340 2.506 . S
Tb341 O346 2.312 1_554 S
Tb341 O350 2.271 . S
Tb341 O352 2.338 . S
Tb341 O359 2.441 . S
C342 O350 1.252 . S
C342 O351 1.253 . S
O343 Tb344 2.271 . S
O343 C353 1.252 . S
Tb344 O343 2.271 . S
Tb344 O347 2.338 . S
Tb344 O351 2.312 1_556 S
Tb344 O355 2.441 . S
Tb344 O356 2.506 . S
C345 O355 1.244 . S
C345 O356 1.265 . S
O346 Tb341 2.312 1_556 S
O346 C353 1.253 . S
O347 Tb344 2.338 . S
O347 C348 1.258 . S
C348 O347 1.258 . S
C348 O349 1.251 . S
O349 C348 1.251 . S
O350 Tb341 2.271 . S
O350 C342 1.252 . S
O351 C342 1.253 . S
O351 Tb344 2.312 1_554 S
O352 Tb341 2.338 . S
O352 C357 1.258 . S
C353 O343 1.252 . S
C353 O346 1.253 . S
C354 O340 1.265 . S
C354 O359 1.244 . S
O355 Tb344 2.441 . S
O355 C345 1.244 . S
O356 Tb344 2.506 . S
O356 C345 1.265 . S
C357 O352 1.258 . S
C357 O358 1.251 . S
O358 C357 1.251 . S
O359 Tb341 2.441 . S
O359 C354 1.244 . S
O360 Tb361 2.506 . S
O360 C374 1.265 . S
Tb361 O360 2.506 . S
Tb361 O366 2.312 . S
Tb361 O370 2.271 . S
Tb361 O372 2.338 . S
Tb361 O379 2.441 . S
C362 O370 1.252 . S
C362 O371 1.253 . S
O363 Tb364 2.271 . S
O363 C373 1.252 . S
Tb364 O363 2.271 . S
Tb364 O367 2.338 . S
Tb364 O371 2.312 . S
Tb364 O375 2.441 . S
Tb364 O376 2.506 . S
C365 O375 1.244 . S
C365 O376 1.265 . S
O366 Tb361 2.312 . S
O366 C373 1.253 . S
O367 Tb364 2.338 . S
O367 C368 1.258 . S
C368 O367 1.258 . S
C368 O369 1.251 . S
O369 C368 1.251 . S
O370 Tb361 2.271 . S
O370 C362 1.252 . S
O371 C362 1.253 . S
O371 Tb364 2.312 . S
O372 Tb361 2.338 . S
O372 C377 1.258 . S
C373 O363 1.252 . S
C373 O366 1.253 . S
C374 O360 1.265 . S
C374 O379 1.244 . S
O375 Tb364 2.441 . S
O375 C365 1.244 . S
O376 Tb364 2.506 . S
O376 C365 1.265 . S
C377 O372 1.258 . S
C377 O378 1.251 . S
O378 C377 1.251 . S
O379 Tb361 2.441 . S
O379 C374 1.244 . S
O380 Tb381 2.506 . S
O380 C394 1.265 . S
Tb381 O380 2.506 . S
Tb381 O386 2.312 1_554 S
Tb381 O390 2.271 . S
Tb381 O392 2.338 . S
Tb381 O399 2.441 . S
C382 O390 1.252 . S
C382 O391 1.253 . S
O383 Tb384 2.271 . S
O383 C393 1.252 . S
Tb384 O383 2.271 . S
Tb384 O387 2.338 . S
Tb384 O391 2.312 1_556 S
Tb384 O395 2.441 . S
Tb384 O396 2.506 . S
C385 O395 1.244 . S
C385 O396 1.265 . S
O386 Tb381 2.312 1_556 S
O386 C393 1.253 . S
O387 Tb384 2.338 . S
O387 C388 1.258 . S
C388 O387 1.258 . S
C388 O389 1.251 . S
O389 C388 1.251 . S
O390 Tb381 2.271 . S
O390 C382 1.252 . S
O391 C382 1.253 . S
O391 Tb384 2.312 1_554 S
O392 Tb381 2.338 . S
O392 C397 1.258 . S
C393 O383 1.252 . S
C393 O386 1.253 . S
C394 O380 1.265 . S
C394 O399 1.244 . S
O395 Tb384 2.441 . S
O395 C385 1.244 . S
O396 Tb384 2.506 . S
O396 C385 1.265 . S
C397 O392 1.258 . S
C397 O398 1.251 . S
O398 C397 1.251 . S
O399 Tb381 2.441 . S
O399 C394 1.244 . S
O400 Tb401 2.506 . S
O400 C414 1.265 . S
Tb401 O400 2.506 . S
Tb401 O406 2.312 . S
Tb401 O410 2.271 . S
Tb401 O412 2.338 . S
Tb401 O419 2.441 . S
C402 O410 1.252 . S
C402 O411 1.253 . S
O403 Tb404 2.271 . S
O403 C413 1.252 . S
Tb404 O403 2.271 . S
Tb404 O407 2.338 . S
Tb404 O411 2.312 . S
Tb404 O415 2.441 . S
Tb404 O416 2.506 . S
C405 O415 1.244 . S
C405 O416 1.265 . S
O406 Tb401 2.312 . S
O406 C413 1.253 . S
O407 Tb404 2.338 . S
O407 C408 1.258 . S
C408 O407 1.258 . S
C408 O409 1.251 . S
O409 C408 1.251 . S
O410 Tb401 2.271 . S
O410 C402 1.252 . S
O411 C402 1.253 . S
O411 Tb404 2.312 . S
O412 Tb401 2.338 . S
O412 C417 1.258 . S
C413 O403 1.252 . S
C413 O406 1.253 . S
C414 O400 1.265 . S
C414 O419 1.244 . S
O415 Tb404 2.441 . S
O415 C405 1.244 . S
O416 Tb404 2.506 . S
O416 C405 1.265 . S
C417 O412 1.258 . S
C417 O418 1.251 . S
O418 C417 1.251 . S
O419 Tb401 2.441 . S
O419 C414 1.244 . S
O420 Tb421 2.506 . S
O420 C434 1.265 . S
Tb421 O420 2.506 . S
Tb421 O426 2.312 1_556 S
Tb421 O430 2.271 . S
Tb421 O432 2.338 . S
Tb421 O439 2.441 . S
C422 O430 1.252 . S
C422 O431 1.253 . S
O423 Tb424 2.271 . S
O423 C433 1.252 . S
Tb424 O423 2.271 . S
Tb424 O427 2.338 . S
Tb424 O431 2.312 1_554 S
Tb424 O435 2.441 . S
Tb424 O436 2.506 . S
C425 O435 1.244 . S
C425 O436 1.265 . S
O426 Tb421 2.312 1_554 S
O426 C433 1.253 . S
O427 Tb424 2.338 . S
O427 C428 1.258 . S
C428 O427 1.258 . S
C428 O429 1.251 . S
O429 C428 1.251 . S
O430 Tb421 2.271 . S
O430 C422 1.252 . S
O431 C422 1.253 . S
O431 Tb424 2.312 1_556 S
O432 Tb421 2.338 . S
O432 C437 1.258 . S
C433 O423 1.252 . S
C433 O426 1.253 . S
C434 O420 1.265 . S
C434 O439 1.244 . S
O435 Tb424 2.441 . S
O435 C425 1.244 . S
O436 Tb424 2.506 . S
O436 C425 1.265 . S
C437 O432 1.258 . S
C437 O438 1.251 . S
O438 C437 1.251 . S
O439 Tb421 2.441 . S
O439 C434 1.244 . S
O440 Tb441 2.506 . S
O440 C454 1.265 . S
Tb441 O440 2.506 . S
Tb441 O446 2.312 . S
Tb441 O450 2.271 . S
Tb441 O452 2.338 . S
Tb441 O459 2.441 . S
C442 O450 1.252 . S
C442 O451 1.253 . S
O443 Tb444 2.271 . S
O443 C453 1.252 . S
Tb444 O443 2.271 . S
Tb444 O447 2.338 . S
Tb444 O451 2.312 . S
Tb444 O455 2.441 . S
Tb444 O456 2.506 . S
C445 O455 1.244 . S
C445 O456 1.265 . S
O446 Tb441 2.312 . S
O446 C453 1.253 . S
O447 Tb444 2.338 . S
O447 C448 1.258 . S
C448 O447 1.258 . S
C448 O449 1.251 . S
O449 C448 1.251 . S
O450 Tb441 2.271 . S
O450 C442 1.252 . S
O451 C442 1.253 . S
O451 Tb444 2.312 . S
O452 Tb441 2.338 . S
O452 C457 1.258 . S
C453 O443 1.252 . S
C453 O446 1.253 . S
C454 O440 1.265 . S
C454 O459 1.244 . S
O455 Tb444 2.441 . S
O455 C445 1.244 . S
O456 Tb444 2.506 . S
O456 C445 1.265 . S
C457 O452 1.258 . S
C457 O458 1.251 . S
O458 C457 1.251 . S
O459 Tb441 2.441 . S
O459 C454 1.244 . S
O460 Tb461 2.506 . S
O460 C474 1.265 . S
Tb461 O460 2.506 . S
Tb461 O466 2.312 . S
Tb461 O470 2.271 . S
Tb461 O472 2.338 . S
Tb461 O479 2.441 . S
C462 O470 1.252 . S
C462 O471 1.253 . S
O463 Tb464 2.271 . S
O463 C473 1.252 . S
Tb464 O463 2.271 . S
Tb464 O467 2.338 . S
Tb464 O471 2.312 . S
Tb464 O475 2.441 . S
Tb464 O476 2.506 . S
C465 O475 1.244 . S
C465 O476 1.265 . S
O466 Tb461 2.312 . S
O466 C473 1.253 . S
O467 Tb464 2.338 . S
O467 C468 1.258 . S
C468 O467 1.258 . S
C468 O469 1.251 . S
O469 C468 1.251 . S
O470 Tb461 2.271 . S
O470 C462 1.252 . S
O471 C462 1.253 . S
O471 Tb464 2.312 . S
O472 Tb461 2.338 . S
O472 C477 1.258 . S
C473 O463 1.252 . S
C473 O466 1.253 . S
C474 O460 1.265 . S
C474 O479 1.244 . S
O475 Tb464 2.441 . S
O475 C465 1.244 . S
O476 Tb464 2.506 . S
O476 C465 1.265 . S
C477 O472 1.258 . S
C477 O478 1.251 . S
O478 C477 1.251 . S
O479 Tb461 2.441 . S
O479 C474 1.244 . S
H480 C486 0.930 . S
H481 C489 0.930 . S
H482 C490 0.930 . S
H483 C491 0.930 . S
H484 C494 0.930 . S
H485 C495 0.930 . S
C486 H480 0.930 . S
C486 C487 1.355 . S
C486 C488 1.415 . S
C487 C486 1.355 . S
C487 C489 1.419 . S
C488 C486 1.415 . S
C488 C493 1.425 . S
C488 C495 1.409 . S
C489 H481 0.930 . S
C489 C487 1.419 . S
C489 C490 1.362 . S
C490 H482 0.930 . S
C490 C489 1.362 . S
C490 C493 1.409 . S
C491 H483 0.930 . S
C491 C492 1.355 . S
C491 C493 1.415 . S
C492 C491 1.355 . S
C492 C494 1.419 . S
C493 C488 1.425 . S
C493 C490 1.409 . S
C493 C491 1.415 . S
C494 H484 0.930 . S
C494 C492 1.419 . S
C494 C495 1.362 . S
C495 H485 0.930 . S
C495 C488 1.409 . S
C495 C494 1.362 . S
H496 C502 0.930 . S
H497 C505 0.930 . S
H498 C506 0.930 . S
H499 C507 0.930 . S
H500 C510 0.930 . S
H501 C511 0.930 . S
C502 H496 0.930 . S
C502 C503 1.355 . S
C502 C504 1.415 . S
C503 C502 1.355 . S
C503 C505 1.419 . S
C504 C502 1.415 . S
C504 C509 1.425 . S
C504 C511 1.409 . S
C505 H497 0.930 . S
C505 C503 1.419 . S
C505 C506 1.362 . S
C506 H498 0.930 . S
C506 C505 1.362 . S
C506 C509 1.409 . S
C507 H499 0.930 . S
C507 C508 1.355 . S
C507 C509 1.415 . S
C508 C507 1.355 . S
C508 C510 1.419 . S
C509 C504 1.425 . S
C509 C506 1.409 . S
C509 C507 1.415 . S
C510 H500 0.930 . S
C510 C508 1.419 . S
C510 C511 1.362 . S
C511 H501 0.930 . S
C511 C504 1.409 . S
C511 C510 1.362 . S
H512 C518 0.930 . S
H513 C521 0.930 . S
H514 C522 0.930 . S
H515 C523 0.930 . S
H516 C526 0.930 . S
H517 C527 0.930 . S
C518 H512 0.930 . S
C518 C519 1.355 . S
C518 C520 1.415 . S
C519 C518 1.355 . S
C519 C521 1.419 . S
C520 C518 1.415 . S
C520 C525 1.425 . S
C520 C527 1.409 . S
C521 H513 0.930 . S
C521 C519 1.419 . S
C521 C522 1.362 . S
C522 H514 0.930 . S
C522 C521 1.362 . S
C522 C525 1.409 . S
C523 H515 0.930 . S
C523 C524 1.355 . S
C523 C525 1.415 . S
C524 C523 1.355 . S
C524 C526 1.419 . S
C525 C520 1.425 . S
C525 C522 1.409 . S
C525 C523 1.415 . S
C526 H516 0.930 . S
C526 C524 1.419 . S
C526 C527 1.362 . S
C527 H517 0.930 . S
C527 C520 1.409 . S
C527 C526 1.362 . S
H528 C534 0.930 . S
H529 C537 0.930 . S
H530 C538 0.930 . S
H531 C539 0.930 . S
H532 C542 0.930 . S
H533 C543 0.930 . S
C534 H528 0.930 . S
C534 C535 1.355 . S
C534 C536 1.415 . S
C535 C534 1.355 . S
C535 C537 1.419 . S
C536 C534 1.415 . S
C536 C541 1.425 . S
C536 C543 1.409 . S
C537 H529 0.930 . S
C537 C535 1.419 . S
C537 C538 1.362 . S
C538 H530 0.930 . S
C538 C537 1.362 . S
C538 C541 1.409 . S
C539 H531 0.930 . S
C539 C540 1.355 . S
C539 C541 1.415 . S
C540 C539 1.355 . S
C540 C542 1.419 . S
C541 C536 1.425 . S
C541 C538 1.409 . S
C541 C539 1.415 . S
C542 H532 0.930 . S
C542 C540 1.419 . S
C542 C543 1.362 . S
C543 H533 0.930 . S
C543 C536 1.409 . S
C543 C542 1.362 . S
H544 C550 0.930 . S
H545 C553 0.930 . S
H546 C554 0.930 . S
H547 C555 0.930 . S
H548 C558 0.930 . S
H549 C559 0.930 . S
C550 H544 0.930 . S
C550 C551 1.355 . S
C550 C552 1.415 . S
C551 C550 1.355 . S
C551 C553 1.419 . S
C552 C550 1.415 . S
C552 C557 1.425 . S
C552 C559 1.409 . S
C553 H545 0.930 . S
C553 C551 1.419 . S
C553 C554 1.362 . S
C554 H546 0.930 . S
C554 C553 1.362 . S
C554 C557 1.409 . S
C555 H547 0.930 . S
C555 C556 1.355 . S
C555 C557 1.415 . S
C556 C555 1.355 . S
C556 C558 1.419 . S
C557 C552 1.425 . S
C557 C554 1.409 . S
C557 C555 1.415 . S
C558 H548 0.930 . S
C558 C556 1.419 . S
C558 C559 1.362 . S
C559 H549 0.930 . S
C559 C552 1.409 . S
C559 C558 1.362 . S
H560 C566 0.930 . S
H561 C569 0.930 . S
H562 C570 0.930 . S
H563 C571 0.930 . S
H564 C574 0.930 . S
H565 C575 0.930 . S
C566 H560 0.930 . S
C566 C567 1.355 . S
C566 C568 1.415 . S
C567 C566 1.355 . S
C567 C569 1.419 . S
C568 C566 1.415 . S
C568 C573 1.425 . S
C568 C575 1.409 . S
C569 H561 0.930 . S
C569 C567 1.419 . S
C569 C570 1.362 . S
C570 H562 0.930 . S
C570 C569 1.362 . S
C570 C573 1.409 . S
C571 H563 0.930 . S
C571 C572 1.355 . S
C571 C573 1.415 . S
C572 C571 1.355 . S
C572 C574 1.419 . S
C573 C568 1.425 . S
C573 C570 1.409 . S
C573 C571 1.415 . S
C574 H564 0.930 . S
C574 C572 1.419 . S
C574 C575 1.362 . S
C575 H565 0.930 . S
C575 C568 1.409 . S
C575 C574 1.362 . S
H576 C582 0.930 . S
H577 C585 0.930 . S
H578 C586 0.930 . S
H579 C587 0.930 . S
H580 C590 0.930 . S
H581 C591 0.930 . S
C582 H576 0.930 . S
C582 C583 1.355 . S
C582 C584 1.415 . S
C583 C582 1.355 . S
C583 C585 1.419 . S
C584 C582 1.415 . S
C584 C589 1.425 . S
C584 C591 1.409 . S
C585 H577 0.930 . S
C585 C583 1.419 . S
C585 C586 1.362 . S
C586 H578 0.930 . S
C586 C585 1.362 . S
C586 C589 1.409 . S
C587 H579 0.930 . S
C587 C588 1.355 . S
C587 C589 1.415 . S
C588 C587 1.355 . S
C588 C590 1.419 . S
C589 C584 1.425 . S
C589 C586 1.409 . S
C589 C587 1.415 . S
C590 H580 0.930 . S
C590 C588 1.419 . S
C590 C591 1.362 . S
C591 H581 0.930 . S
C591 C584 1.409 . S
C591 C590 1.362 . S
H592 C598 0.930 . S
H593 C601 0.930 . S
H594 C602 0.930 . S
H595 C603 0.930 . S
H596 C606 0.930 . S
H597 C607 0.930 . S
C598 H592 0.930 . S
C598 C599 1.355 . S
C598 C600 1.415 . S
C599 C598 1.355 . S
C599 C601 1.419 . S
C600 C598 1.415 . S
C600 C605 1.425 . S
C600 C607 1.409 . S
C601 H593 0.930 . S
C601 C599 1.419 . S
C601 C602 1.362 . S
C602 H594 0.930 . S
C602 C601 1.362 . S
C602 C605 1.409 . S
C603 H595 0.930 . S
C603 C604 1.355 . S
C603 C605 1.415 . S
C604 C603 1.355 . S
C604 C606 1.419 . S
C605 C600 1.425 . S
C605 C602 1.409 . S
C605 C603 1.415 . S
C606 H596 0.930 . S
C606 C604 1.419 . S
C606 C607 1.362 . S
C607 H597 0.930 . S
C607 C600 1.409 . S
C607 C606 1.362 . S
H608 C614 0.930 . S
H609 C617 0.930 . S
H610 C618 0.930 . S
H611 C619 0.930 . S
H612 C622 0.930 . S
H613 C623 0.930 . S
C614 H608 0.930 . S
C614 C615 1.355 . S
C614 C616 1.415 . S
C615 C614 1.355 . S
C615 C617 1.419 . S
C616 C614 1.415 . S
C616 C621 1.425 . S
C616 C623 1.409 . S
C617 H609 0.930 . S
C617 C615 1.419 . S
C617 C618 1.362 . S
C618 H610 0.930 . S
C618 C617 1.362 . S
C618 C621 1.409 . S
C619 H611 0.930 . S
C619 C620 1.355 . S
C619 C621 1.415 . S
C620 C619 1.355 . S
C620 C622 1.419 . S
C621 C616 1.425 . S
C621 C618 1.409 . S
C621 C619 1.415 . S
C622 H612 0.930 . S
C622 C620 1.419 . S
C622 C623 1.362 . S
C623 H613 0.930 . S
C623 C616 1.409 . S
C623 C622 1.362 . S
H624 C630 0.930 . S
H625 C633 0.930 . S
H626 C634 0.930 . S
H627 C635 0.930 . S
H628 C638 0.930 . S
H629 C639 0.930 . S
C630 H624 0.930 . S
C630 C631 1.355 . S
C630 C632 1.415 . S
C631 C630 1.355 . S
C631 C633 1.419 . S
C632 C630 1.415 . S
C632 C637 1.425 . S
C632 C639 1.409 . S
C633 H625 0.930 . S
C633 C631 1.419 . S
C633 C634 1.362 . S
C634 H626 0.930 . S
C634 C633 1.362 . S
C634 C637 1.409 . S
C635 H627 0.930 . S
C635 C636 1.355 . S
C635 C637 1.415 . S
C636 C635 1.355 . S
C636 C638 1.419 . S
C637 C632 1.425 . S
C637 C634 1.409 . S
C637 C635 1.415 . S
C638 H628 0.930 . S
C638 C636 1.419 . S
C638 C639 1.362 . S
C639 H629 0.930 . S
C639 C632 1.409 . S
C639 C638 1.362 . S
H640 C646 0.930 . S
H641 C649 0.930 . S
H642 C650 0.930 . S
H643 C651 0.930 . S
H644 C654 0.930 . S
H645 C655 0.930 . S
C646 H640 0.930 . S
C646 C647 1.355 . S
C646 C648 1.415 . S
C647 C646 1.355 . S
C647 C649 1.419 . S
C648 C646 1.415 . S
C648 C653 1.425 . S
C648 C655 1.409 . S
C649 H641 0.930 . S
C649 C647 1.419 . S
C649 C650 1.362 . S
C650 H642 0.930 . S
C650 C649 1.362 . S
C650 C653 1.409 . S
C651 H643 0.930 . S
C651 C652 1.355 . S
C651 C653 1.415 . S
C652 C651 1.355 . S
C652 C654 1.419 . S
C653 C648 1.425 . S
C653 C650 1.409 . S
C653 C651 1.415 . S
C654 H644 0.930 . S
C654 C652 1.419 . S
C654 C655 1.362 . S
C655 H645 0.930 . S
C655 C648 1.409 . S
C655 C654 1.362 . S
H656 C662 0.930 . S
H657 C665 0.930 . S
H658 C666 0.930 . S
H659 C667 0.930 . S
H660 C670 0.930 . S
H661 C671 0.930 . S
C662 H656 0.930 . S
C662 C663 1.355 . S
C662 C664 1.415 . S
C663 C662 1.355 . S
C663 C665 1.419 . S
C664 C662 1.415 . S
C664 C669 1.425 . S
C664 C671 1.409 . S
C665 H657 0.930 . S
C665 C663 1.419 . S
C665 C666 1.362 . S
C666 H658 0.930 . S
C666 C665 1.362 . S
C666 C669 1.409 . S
C667 H659 0.930 . S
C667 C668 1.355 . S
C667 C669 1.415 . S
C668 C667 1.355 . S
C668 C670 1.419 . S
C669 C664 1.425 . S
C669 C666 1.409 . S
C669 C667 1.415 . S
C670 H660 0.930 . S
C670 C668 1.419 . S
C670 C671 1.362 . S
C671 H661 0.930 . S
C671 C664 1.409 . S
C671 C670 1.362 . S
H672 C678 0.930 . S
H673 C681 0.930 . S
H674 C682 0.930 . S
H675 C683 0.930 . S
H676 C686 0.930 . S
H677 C687 0.930 . S
C678 H672 0.930 . S
C678 C679 1.355 . S
C678 C680 1.415 . S
C679 C678 1.355 . S
C679 C681 1.419 . S
C680 C678 1.415 . S
C680 C685 1.425 . S
C680 C687 1.409 . S
C681 H673 0.930 . S
C681 C679 1.419 . S
C681 C682 1.362 . S
C682 H674 0.930 . S
C682 C681 1.362 . S
C682 C685 1.409 . S
C683 H675 0.930 . S
C683 C684 1.355 . S
C683 C685 1.415 . S
C684 C683 1.355 . S
C684 C686 1.419 . S
C685 C680 1.425 . S
C685 C682 1.409 . S
C685 C683 1.415 . S
C686 H676 0.930 . S
C686 C684 1.419 . S
C686 C687 1.362 . S
C687 H677 0.930 . S
C687 C680 1.409 . S
C687 C686 1.362 . S
H688 C694 0.930 . S
H689 C697 0.930 . S
H690 C698 0.930 . S
H691 C699 0.930 . S
H692 C702 0.930 . S
H693 C703 0.930 . S
C694 H688 0.930 . S
C694 C695 1.355 . S
C694 C696 1.415 . S
C695 C694 1.355 . S
C695 C697 1.419 . S
C696 C694 1.415 . S
C696 C701 1.425 . S
C696 C703 1.409 . S
C697 H689 0.930 . S
C697 C695 1.419 . S
C697 C698 1.362 . S
C698 H690 0.930 . S
C698 C697 1.362 . S
C698 C701 1.409 . S
C699 H691 0.930 . S
C699 C700 1.355 . S
C699 C701 1.415 . S
C700 C699 1.355 . S
C700 C702 1.419 . S
C701 C696 1.425 . S
C701 C698 1.409 . S
C701 C699 1.415 . S
C702 H692 0.930 . S
C702 C700 1.419 . S
C702 C703 1.362 . S
C703 H693 0.930 . S
C703 C696 1.409 . S
C703 C702 1.362 . S
H704 C710 0.930 . S
H705 C713 0.930 . S
H706 C714 0.930 . S
H707 C715 0.930 . S
H708 C718 0.930 . S
H709 C719 0.930 . S
C710 H704 0.930 . S
C710 C711 1.355 . S
C710 C712 1.415 . S
C711 C710 1.355 . S
C711 C713 1.419 . S
C712 C710 1.415 . S
C712 C717 1.425 . S
C712 C719 1.409 . S
C713 H705 0.930 . S
C713 C711 1.419 . S
C713 C714 1.362 . S
C714 H706 0.930 . S
C714 C713 1.362 . S
C714 C717 1.409 . S
C715 H707 0.930 . S
C715 C716 1.355 . S
C715 C717 1.415 . S
C716 C715 1.355 . S
C716 C718 1.419 . S
C717 C712 1.425 . S
C717 C714 1.409 . S
C717 C715 1.415 . S
C718 H708 0.930 . S
C718 C716 1.419 . S
C718 C719 1.362 . S
C719 H709 0.930 . S
C719 C712 1.409 . S
C719 C718 1.362 . S
H720 C726 0.930 . S
H721 C729 0.930 . S
H722 C730 0.930 . S
H723 C731 0.930 . S
H724 C734 0.930 . S
H725 C735 0.930 . S
C726 H720 0.930 . S
C726 C727 1.355 . S
C726 C728 1.415 . S
C727 C726 1.355 . S
C727 C729 1.419 . S
C728 C726 1.415 . S
C728 C733 1.425 . S
C728 C735 1.409 . S
C729 H721 0.930 . S
C729 C727 1.419 . S
C729 C730 1.362 . S
C730 H722 0.930 . S
C730 C729 1.362 . S
C730 C733 1.409 . S
C731 H723 0.930 . S
C731 C732 1.355 . S
C731 C733 1.415 . S
C732 C731 1.355 . S
C732 C734 1.419 . S
C733 C728 1.425 . S
C733 C730 1.409 . S
C733 C731 1.415 . S
C734 H724 0.930 . S
C734 C732 1.419 . S
C734 C735 1.362 . S
C735 H725 0.930 . S
C735 C728 1.409 . S
C735 C734 1.362 . S
H736 C742 0.930 . S
H737 C745 0.930 . S
H738 C746 0.930 . S
H739 C747 0.930 . S
H740 C750 0.930 . S
H741 C751 0.930 . S
C742 H736 0.930 . S
C742 C743 1.355 . S
C742 C744 1.415 . S
C743 C742 1.355 . S
C743 C745 1.419 . S
C744 C742 1.415 . S
C744 C749 1.425 . S
C744 C751 1.409 . S
C745 H737 0.930 . S
C745 C743 1.419 . S
C745 C746 1.362 . S
C746 H738 0.930 . S
C746 C745 1.362 . S
C746 C749 1.409 . S
C747 H739 0.930 . S
C747 C748 1.355 . S
C747 C749 1.415 . S
C748 C747 1.355 . S
C748 C750 1.419 . S
C749 C744 1.425 . S
C749 C746 1.409 . S
C749 C747 1.415 . S
C750 H740 0.930 . S
C750 C748 1.419 . S
C750 C751 1.362 . S
C751 H741 0.930 . S
C751 C744 1.409 . S
C751 C750 1.362 . S
H752 C758 0.930 . S
H753 C761 0.930 . S
H754 C762 0.930 . S
H755 C763 0.930 . S
H756 C766 0.930 . S
H757 C767 0.930 . S
C758 H752 0.930 . S
C758 C759 1.355 . S
C758 C760 1.415 . S
C759 C758 1.355 . S
C759 C761 1.419 . S
C760 C758 1.415 . S
C760 C765 1.425 . S
C760 C767 1.409 . S
C761 H753 0.930 . S
C761 C759 1.419 . S
C761 C762 1.362 . S
C762 H754 0.930 . S
C762 C761 1.362 . S
C762 C765 1.409 . S
C763 H755 0.930 . S
C763 C764 1.355 . S
C763 C765 1.415 . S
C764 C763 1.355 . S
C764 C766 1.419 . S
C765 C760 1.425 . S
C765 C762 1.409 . S
C765 C763 1.415 . S
C766 H756 0.930 . S
C766 C764 1.419 . S
C766 C767 1.362 . S
C767 H757 0.930 . S
C767 C760 1.409 . S
C767 C766 1.362 . S
H768 C774 0.930 . S
H769 C777 0.930 . S
H770 C778 0.930 . S
H771 C779 0.930 . S
H772 C782 0.930 . S
H773 C783 0.930 . S
C774 H768 0.930 . S
C774 C775 1.355 . S
C774 C776 1.415 . S
C775 C774 1.355 . S
C775 C777 1.419 . S
C776 C774 1.415 . S
C776 C781 1.425 . S
C776 C783 1.409 . S
C777 H769 0.930 . S
C777 C775 1.419 . S
C777 C778 1.362 . S
C778 H770 0.930 . S
C778 C777 1.362 . S
C778 C781 1.409 . S
C779 H771 0.930 . S
C779 C780 1.355 . S
C779 C781 1.415 . S
C780 C779 1.355 . S
C780 C782 1.419 . S
C781 C776 1.425 . S
C781 C778 1.409 . S
C781 C779 1.415 . S
C782 H772 0.930 . S
C782 C780 1.419 . S
C782 C783 1.362 . S
C783 H773 0.930 . S
C783 C776 1.409 . S
C783 C782 1.362 . S
H784 C790 0.930 . S
H785 C793 0.930 . S
H786 C794 0.930 . S
H787 C795 0.930 . S
H788 C798 0.930 . S
H789 C799 0.930 . S
C790 H784 0.930 . S
C790 C791 1.355 . S
C790 C792 1.415 . S
C791 C790 1.355 . S
C791 C793 1.419 . S
C792 C790 1.415 . S
C792 C797 1.425 . S
C792 C799 1.409 . S
C793 H785 0.930 . S
C793 C791 1.419 . S
C793 C794 1.362 . S
C794 H786 0.930 . S
C794 C793 1.362 . S
C794 C797 1.409 . S
C795 H787 0.930 . S
C795 C796 1.355 . S
C795 C797 1.415 . S
C796 C795 1.355 . S
C796 C798 1.419 . S
C797 C792 1.425 . S
C797 C794 1.409 . S
C797 C795 1.415 . S
C798 H788 0.930 . S
C798 C796 1.419 . S
C798 C799 1.362 . S
C799 H789 0.930 . S
C799 C792 1.409 . S
C799 C798 1.362 . S
H800 C806 0.930 . S
H801 C809 0.930 . S
H802 C810 0.930 . S
H803 C811 0.930 . S
H804 C814 0.930 . S
H805 C815 0.930 . S
C806 H800 0.930 . S
C806 C807 1.355 . S
C806 C808 1.415 . S
C807 C806 1.355 . S
C807 C809 1.419 . S
C808 C806 1.415 . S
C808 C813 1.425 . S
C808 C815 1.409 . S
C809 H801 0.930 . S
C809 C807 1.419 . S
C809 C810 1.362 . S
C810 H802 0.930 . S
C810 C809 1.362 . S
C810 C813 1.409 . S
C811 H803 0.930 . S
C811 C812 1.355 . S
C811 C813 1.415 . S
C812 C811 1.355 . S
C812 C814 1.419 . S
C813 C808 1.425 . S
C813 C810 1.409 . S
C813 C811 1.415 . S
C814 H804 0.930 . S
C814 C812 1.419 . S
C814 C815 1.362 . S
C815 H805 0.930 . S
C815 C808 1.409 . S
C815 C814 1.362 . S
H816 C822 0.930 . S
H817 C825 0.930 . S
H818 C826 0.930 . S
H819 C827 0.930 . S
H820 C830 0.930 . S
H821 C831 0.930 . S
C822 H816 0.930 . S
C822 C823 1.355 . S
C822 C824 1.415 . S
C823 C822 1.355 . S
C823 C825 1.419 . S
C824 C822 1.415 . S
C824 C829 1.425 . S
C824 C831 1.409 . S
C825 H817 0.930 . S
C825 C823 1.419 . S
C825 C826 1.362 . S
C826 H818 0.930 . S
C826 C825 1.362 . S
C826 C829 1.409 . S
C827 H819 0.930 . S
C827 C828 1.355 . S
C827 C829 1.415 . S
C828 C827 1.355 . S
C828 C830 1.419 . S
C829 C824 1.425 . S
C829 C826 1.409 . S
C829 C827 1.415 . S
C830 H820 0.930 . S
C830 C828 1.419 . S
C830 C831 1.362 . S
C831 H821 0.930 . S
C831 C824 1.409 . S
C831 C830 1.362 . S
H832 C838 0.930 . S
H833 C841 0.930 . S
H834 C842 0.930 . S
H835 C843 0.930 . S
H836 C846 0.930 . S
H837 C847 0.930 . S
C838 H832 0.930 . S
C838 C839 1.355 . S
C838 C840 1.415 . S
C839 C838 1.355 . S
C839 C841 1.419 . S
C840 C838 1.415 . S
C840 C845 1.425 . S
C840 C847 1.409 . S
C841 H833 0.930 . S
C841 C839 1.419 . S
C841 C842 1.362 . S
C842 H834 0.930 . S
C842 C841 1.362 . S
C842 C845 1.409 . S
C843 H835 0.930 . S
C843 C844 1.355 . S
C843 C845 1.415 . S
C844 C843 1.355 . S
C844 C846 1.419 . S
C845 C840 1.425 . S
C845 C842 1.409 . S
C845 C843 1.415 . S
C846 H836 0.930 . S
C846 C844 1.419 . S
C846 C847 1.362 . S
C847 H837 0.930 . S
C847 C840 1.409 . S
C847 C846 1.362 . S
H848 C854 0.930 . S
H849 C857 0.930 . S
H850 C858 0.930 . S
H851 C859 0.930 . S
H852 C862 0.930 . S
H853 C863 0.930 . S
C854 H848 0.930 . S
C854 C855 1.355 . S
C854 C856 1.415 . S
C855 C854 1.355 . S
C855 C857 1.419 . S
C856 C854 1.415 . S
C856 C861 1.425 . S
C856 C863 1.409 . S
C857 H849 0.930 . S
C857 C855 1.419 . S
C857 C858 1.362 . S
C858 H850 0.930 . S
C858 C857 1.362 . S
C858 C861 1.409 . S
C859 H851 0.930 . S
C859 C860 1.355 . S
C859 C861 1.415 . S
C860 C859 1.355 . S
C860 C862 1.419 . S
C861 C856 1.425 . S
C861 C858 1.409 . S
C861 C859 1.415 . S
C862 H852 0.930 . S
C862 C860 1.419 . S
C862 C863 1.362 . S
C863 H853 0.930 . S
C863 C856 1.409 . S
C863 C862 1.362 . S
H864 C870 0.930 . S
H865 C873 0.930 . S
H866 C874 0.930 . S
H867 C875 0.930 . S
H868 C878 0.930 . S
H869 C879 0.930 . S
C870 H864 0.930 . S
C870 C871 1.355 . S
C870 C872 1.415 . S
C871 C870 1.355 . S
C871 C873 1.419 . S
C872 C870 1.415 . S
C872 C877 1.425 . S
C872 C879 1.409 . S
C873 H865 0.930 . S
C873 C871 1.419 . S
C873 C874 1.362 . S
C874 H866 0.930 . S
C874 C873 1.362 . S
C874 C877 1.409 . S
C875 H867 0.930 . S
C875 C876 1.355 . S
C875 C877 1.415 . S
C876 C875 1.355 . S
C876 C878 1.419 . S
C877 C872 1.425 . S
C877 C874 1.409 . S
C877 C875 1.415 . S
C878 H868 0.930 . S
C878 C876 1.419 . S
C878 C879 1.362 . S
C879 H869 0.930 . S
C879 C872 1.409 . S
C879 C878 1.362 . S
H880 C886 0.930 . S
H881 C889 0.930 . S
H882 C890 0.930 . S
H883 C891 0.930 . S
H884 C894 0.930 . S
H885 C895 0.930 . S
C886 H880 0.930 . S
C886 C887 1.355 . S
C886 C888 1.415 . S
C887 C886 1.355 . S
C887 C889 1.419 . S
C888 C886 1.415 . S
C888 C893 1.425 . S
C888 C895 1.409 . S
C889 H881 0.930 . S
C889 C887 1.419 . S
C889 C890 1.362 . S
C890 H882 0.930 . S
C890 C889 1.362 . S
C890 C893 1.409 . S
C891 H883 0.930 . S
C891 C892 1.355 . S
C891 C893 1.415 . S
C892 C891 1.355 . S
C892 C894 1.419 . S
C893 C888 1.425 . S
C893 C890 1.409 . S
C893 C891 1.415 . S
C894 H884 0.930 . S
C894 C892 1.419 . S
C894 C895 1.362 . S
C895 H885 0.930 . S
C895 C888 1.409 . S
C895 C894 1.362 . S
H896 C902 0.930 . S
H897 C905 0.930 . S
H898 C906 0.930 . S
H899 C907 0.930 . S
H900 C910 0.930 . S
H901 C911 0.930 . S
C902 H896 0.930 . S
C902 C903 1.355 . S
C902 C904 1.415 . S
C903 C902 1.355 . S
C903 C905 1.419 . S
C904 C902 1.415 . S
C904 C909 1.425 . S
C904 C911 1.409 . S
C905 H897 0.930 . S
C905 C903 1.419 . S
C905 C906 1.362 . S
C906 H898 0.930 . S
C906 C905 1.362 . S
C906 C909 1.409 . S
C907 H899 0.930 . S
C907 C908 1.355 . S
C907 C909 1.415 . S
C908 C907 1.355 . S
C908 C910 1.419 . S
C909 C904 1.425 . S
C909 C906 1.409 . S
C909 C907 1.415 . S
C910 H900 0.930 . S
C910 C908 1.419 . S
C910 C911 1.362 . S
C911 H901 0.930 . S
C911 C904 1.409 . S
C911 C910 1.362 . S
H912 C918 0.930 . S
H913 C921 0.930 . S
H914 C922 0.930 . S
H915 C923 0.930 . S
H916 C926 0.930 . S
H917 C927 0.930 . S
C918 H912 0.930 . S
C918 C919 1.355 . S
C918 C920 1.415 . S
C919 C918 1.355 . S
C919 C921 1.419 . S
C920 C918 1.415 . S
C920 C925 1.425 . S
C920 C927 1.409 . S
C921 H913 0.930 . S
C921 C919 1.419 . S
C921 C922 1.362 . S
C922 H914 0.930 . S
C922 C921 1.362 . S
C922 C925 1.409 . S
C923 H915 0.930 . S
C923 C924 1.355 . S
C923 C925 1.415 . S
C924 C923 1.355 . S
C924 C926 1.419 . S
C925 C920 1.425 . S
C925 C922 1.409 . S
C925 C923 1.415 . S
C926 H916 0.930 . S
C926 C924 1.419 . S
C926 C927 1.362 . S
C927 H917 0.930 . S
C927 C920 1.409 . S
C927 C926 1.362 . S
H928 C934 0.930 . S
H929 C937 0.930 . S
H930 C938 0.930 . S
H931 C939 0.930 . S
H932 C942 0.930 . S
H933 C943 0.930 . S
C934 H928 0.930 . S
C934 C935 1.355 . S
C934 C936 1.415 . S
C935 C934 1.355 . S
C935 C937 1.419 . S
C936 C934 1.415 . S
C936 C941 1.425 . S
C936 C943 1.409 . S
C937 H929 0.930 . S
C937 C935 1.419 . S
C937 C938 1.362 . S
C938 H930 0.930 . S
C938 C937 1.362 . S
C938 C941 1.409 . S
C939 H931 0.930 . S
C939 C940 1.355 . S
C939 C941 1.415 . S
C940 C939 1.355 . S
C940 C942 1.419 . S
C941 C936 1.425 . S
C941 C938 1.409 . S
C941 C939 1.415 . S
C942 H932 0.930 . S
C942 C940 1.419 . S
C942 C943 1.362 . S
C943 H933 0.930 . S
C943 C936 1.409 . S
C943 C942 1.362 . S
H944 C950 0.930 . S
H945 C953 0.930 . S
H946 C954 0.930 . S
H947 C955 0.930 . S
H948 C958 0.930 . S
H949 C959 0.930 . S
C950 H944 0.930 . S
C950 C951 1.355 . S
C950 C952 1.415 . S
C951 C950 1.355 . S
C951 C953 1.419 . S
C952 C950 1.415 . S
C952 C957 1.425 . S
C952 C959 1.409 . S
C953 H945 0.930 . S
C953 C951 1.419 . S
C953 C954 1.362 . S
C954 H946 0.930 . S
C954 C953 1.362 . S
C954 C957 1.409 . S
C955 H947 0.930 . S
C955 C956 1.355 . S
C955 C957 1.415 . S
C956 C955 1.355 . S
C956 C958 1.419 . S
C957 C952 1.425 . S
C957 C954 1.409 . S
C957 C955 1.415 . S
C958 H948 0.930 . S
C958 C956 1.419 . S
C958 C959 1.362 . S
C959 H949 0.930 . S
C959 C952 1.409 . S
C959 C958 1.362 . S
H960 C966 0.930 . S
H961 C969 0.930 . S
H962 C970 0.930 . S
H963 C971 0.930 . S
H964 C974 0.930 . S
H965 C975 0.930 . S
C966 H960 0.930 . S
C966 C967 1.355 . S
C966 C968 1.415 . S
C967 C966 1.355 . S
C967 C969 1.419 . S
C968 C966 1.415 . S
C968 C973 1.425 . S
C968 C975 1.409 . S
C969 H961 0.930 . S
C969 C967 1.419 . S
C969 C970 1.362 . S
C970 H962 0.930 . S
C970 C969 1.362 . S
C970 C973 1.409 . S
C971 H963 0.930 . S
C971 C972 1.355 . S
C971 C973 1.415 . S
C972 C971 1.355 . S
C972 C974 1.419 . S
C973 C968 1.425 . S
C973 C970 1.409 . S
C973 C971 1.415 . S
C974 H964 0.930 . S
C974 C972 1.419 . S
C974 C975 1.362 . S
C975 H965 0.930 . S
C975 C968 1.409 . S
C975 C974 1.362 . S
H976 C982 0.930 . S
H977 C985 0.930 . S
H978 C986 0.930 . S
H979 C987 0.930 . S
H980 C990 0.930 . S
H981 C991 0.930 . S
C982 H976 0.930 . S
C982 C983 1.355 . S
C982 C984 1.415 . S
C983 C982 1.355 . S
C983 C985 1.419 . S
C984 C982 1.415 . S
C984 C989 1.425 . S
C984 C991 1.409 . S
C985 H977 0.930 . S
C985 C983 1.419 . S
C985 C986 1.362 . S
C986 H978 0.930 . S
C986 C985 1.362 . S
C986 C989 1.409 . S
C987 H979 0.930 . S
C987 C988 1.355 . S
C987 C989 1.415 . S
C988 C987 1.355 . S
C988 C990 1.419 . S
C989 C984 1.425 . S
C989 C986 1.409 . S
C989 C987 1.415 . S
C990 H980 0.930 . S
C990 C988 1.419 . S
C990 C991 1.362 . S
C991 H981 0.930 . S
C991 C984 1.409 . S
C991 C990 1.362 . S
H992 C998 0.930 . S
H993 C1001 0.930 . S
H994 C1002 0.930 . S
H995 C1003 0.930 . S
H996 C1006 0.930 . S
H997 C1007 0.930 . S
C998 H992 0.930 . S
C998 C999 1.355 . S
C998 C1000 1.415 . S
C999 C998 1.355 . S
C999 C1001 1.419 . S
C1000 C998 1.415 . S
C1000 C1005 1.425 . S
C1000 C1007 1.409 . S
C1001 H993 0.930 . S
C1001 C999 1.419 . S
C1001 C1002 1.362 . S
C1002 H994 0.930 . S
C1002 C1001 1.362 . S
C1002 C1005 1.409 . S
C1003 H995 0.930 . S
C1003 C1004 1.355 . S
C1003 C1005 1.415 . S
C1004 C1003 1.355 . S
C1004 C1006 1.419 . S
C1005 C1000 1.425 . S
C1005 C1002 1.409 . S
C1005 C1003 1.415 . S
C1006 H996 0.930 . S
C1006 C1004 1.419 . S
C1006 C1007 1.362 . S
C1007 H997 0.930 . S
C1007 C1000 1.409 . S
C1007 C1006 1.362 . S
H1008 C1014 0.930 . S
H1009 C1017 0.930 . S
H1010 C1018 0.930 . S
H1011 C1019 0.930 . S
H1012 C1022 0.930 . S
H1013 C1023 0.930 . S
C1014 H1008 0.930 . S
C1014 C1015 1.355 . S
C1014 C1016 1.415 . S
C1015 C1014 1.355 . S
C1015 C1017 1.419 . S
C1016 C1014 1.415 . S
C1016 C1021 1.425 . S
C1016 C1023 1.409 . S
C1017 H1009 0.930 . S
C1017 C1015 1.419 . S
C1017 C1018 1.362 . S
C1018 H1010 0.930 . S
C1018 C1017 1.362 . S
C1018 C1021 1.409 . S
C1019 H1011 0.930 . S
C1019 C1020 1.355 . S
C1019 C1021 1.415 . S
C1020 C1019 1.355 . S
C1020 C1022 1.419 . S
C1021 C1016 1.425 . S
C1021 C1018 1.409 . S
C1021 C1019 1.415 . S
C1022 H1012 0.930 . S
C1022 C1020 1.419 . S
C1022 C1023 1.362 . S
C1023 H1013 0.930 . S
C1023 C1016 1.409 . S
C1023 C1022 1.362 . S
H1024 C1030 0.930 . S
H1025 C1033 0.930 . S
H1026 C1034 0.930 . S
H1027 C1035 0.930 . S
H1028 C1038 0.930 . S
H1029 C1039 0.930 . S
C1030 H1024 0.930 . S
C1030 C1031 1.355 . S
C1030 C1032 1.415 . S
C1031 C1030 1.355 . S
C1031 C1033 1.419 . S
C1032 C1030 1.415 . S
C1032 C1037 1.425 . S
C1032 C1039 1.409 . S
C1033 H1025 0.930 . S
C1033 C1031 1.419 . S
C1033 C1034 1.362 . S
C1034 H1026 0.930 . S
C1034 C1033 1.362 . S
C1034 C1037 1.409 . S
C1035 H1027 0.930 . S
C1035 C1036 1.355 . S
C1035 C1037 1.415 . S
C1036 C1035 1.355 . S
C1036 C1038 1.419 . S
C1037 C1032 1.425 . S
C1037 C1034 1.409 . S
C1037 C1035 1.415 . S
C1038 H1028 0.930 . S
C1038 C1036 1.419 . S
C1038 C1039 1.362 . S
C1039 H1029 0.930 . S
C1039 C1032 1.409 . S
C1039 C1038 1.362 . S
H1040 C1046 0.930 . S
H1041 C1049 0.930 . S
H1042 C1050 0.930 . S
H1043 C1051 0.930 . S
H1044 C1054 0.930 . S
H1045 C1055 0.930 . S
C1046 H1040 0.930 . S
C1046 C1047 1.355 . S
C1046 C1048 1.415 . S
C1047 C1046 1.355 . S
C1047 C1049 1.419 . S
C1048 C1046 1.415 . S
C1048 C1053 1.425 . S
C1048 C1055 1.409 . S
C1049 H1041 0.930 . S
C1049 C1047 1.419 . S
C1049 C1050 1.362 . S
C1050 H1042 0.930 . S
C1050 C1049 1.362 . S
C1050 C1053 1.409 . S
C1051 H1043 0.930 . S
C1051 C1052 1.355 . S
C1051 C1053 1.415 . S
C1052 C1051 1.355 . S
C1052 C1054 1.419 . S
C1053 C1048 1.425 . S
C1053 C1050 1.409 . S
C1053 C1051 1.415 . S
C1054 H1044 0.930 . S
C1054 C1052 1.419 . S
C1054 C1055 1.362 . S
C1055 H1045 0.930 . S
C1055 C1048 1.409 . S
C1055 C1054 1.362 . S
H1056 C1062 0.930 . S
H1057 C1065 0.930 . S
H1058 C1066 0.930 . S
H1059 C1067 0.930 . S
H1060 C1070 0.930 . S
H1061 C1071 0.930 . S
C1062 H1056 0.930 . S
C1062 C1063 1.355 . S
C1062 C1064 1.415 . S
C1063 C1062 1.355 . S
C1063 C1065 1.419 . S
C1064 C1062 1.415 . S
C1064 C1069 1.425 . S
C1064 C1071 1.409 . S
C1065 H1057 0.930 . S
C1065 C1063 1.419 . S
C1065 C1066 1.362 . S
C1066 H1058 0.930 . S
C1066 C1065 1.362 . S
C1066 C1069 1.409 . S
C1067 H1059 0.930 . S
C1067 C1068 1.355 . S
C1067 C1069 1.415 . S
C1068 C1067 1.355 . S
C1068 C1070 1.419 . S
C1069 C1064 1.425 . S
C1069 C1066 1.409 . S
C1069 C1067 1.415 . S
C1070 H1060 0.930 . S
C1070 C1068 1.419 . S
C1070 C1071 1.362 . S
C1071 H1061 0.930 . S
C1071 C1064 1.409 . S
C1071 C1070 1.362 . S
H1072 C1078 0.930 . S
H1073 C1081 0.930 . S
H1074 C1082 0.930 . S
H1075 C1083 0.930 . S
H1076 C1086 0.930 . S
H1077 C1087 0.930 . S
C1078 H1072 0.930 . S
C1078 C1079 1.355 . S
C1078 C1080 1.415 . S
C1079 C1078 1.355 . S
C1079 C1081 1.419 . S
C1080 C1078 1.415 . S
C1080 C1085 1.425 . S
C1080 C1087 1.409 . S
C1081 H1073 0.930 . S
C1081 C1079 1.419 . S
C1081 C1082 1.362 . S
C1082 H1074 0.930 . S
C1082 C1081 1.362 . S
C1082 C1085 1.409 . S
C1083 H1075 0.930 . S
C1083 C1084 1.355 . S
C1083 C1085 1.415 . S
C1084 C1083 1.355 . S
C1084 C1086 1.419 . S
C1085 C1080 1.425 . S
C1085 C1082 1.409 . S
C1085 C1083 1.415 . S
C1086 H1076 0.930 . S
C1086 C1084 1.419 . S
C1086 C1087 1.362 . S
C1087 H1077 0.930 . S
C1087 C1080 1.409 . S
C1087 C1086 1.362 . S
H1088 C1094 0.930 . S
H1089 C1097 0.930 . S
H1090 C1098 0.930 . S
H1091 C1099 0.930 . S
H1092 C1102 0.930 . S
H1093 C1103 0.930 . S
C1094 H1088 0.930 . S
C1094 C1095 1.355 . S
C1094 C1096 1.415 . S
C1095 C1094 1.355 . S
C1095 C1097 1.419 . S
C1096 C1094 1.415 . S
C1096 C1101 1.425 . S
C1096 C1103 1.409 . S
C1097 H1089 0.930 . S
C1097 C1095 1.419 . S
C1097 C1098 1.362 . S
C1098 H1090 0.930 . S
C1098 C1097 1.362 . S
C1098 C1101 1.409 . S
C1099 H1091 0.930 . S
C1099 C1100 1.355 . S
C1099 C1101 1.415 . S
C1100 C1099 1.355 . S
C1100 C1102 1.419 . S
C1101 C1096 1.425 . S
C1101 C1098 1.409 . S
C1101 C1099 1.415 . S
C1102 H1092 0.930 . S
C1102 C1100 1.419 . S
C1102 C1103 1.362 . S
C1103 H1093 0.930 . S
C1103 C1096 1.409 . S
C1103 C1102 1.362 . S
H1104 C1110 0.930 . S
H1105 C1113 0.930 . S
H1106 C1114 0.930 . S
H1107 C1115 0.930 . S
H1108 C1118 0.930 . S
H1109 C1119 0.930 . S
C1110 H1104 0.930 . S
C1110 C1111 1.355 . S
C1110 C1112 1.415 . S
C1111 C1110 1.355 . S
C1111 C1113 1.419 . S
C1112 C1110 1.415 . S
C1112 C1117 1.425 . S
C1112 C1119 1.409 . S
C1113 H1105 0.930 . S
C1113 C1111 1.419 . S
C1113 C1114 1.362 . S
C1114 H1106 0.930 . S
C1114 C1113 1.362 . S
C1114 C1117 1.409 . S
C1115 H1107 0.930 . S
C1115 C1116 1.355 . S
C1115 C1117 1.415 . S
C1116 C1115 1.355 . S
C1116 C1118 1.419 . S
C1117 C1112 1.425 . S
C1117 C1114 1.409 . S
C1117 C1115 1.415 . S
C1118 H1108 0.930 . S
C1118 C1116 1.419 . S
C1118 C1119 1.362 . S
C1119 H1109 0.930 . S
C1119 C1112 1.409 . S
C1119 C1118 1.362 . S
H1120 C1126 0.930 . S
H1121 C1129 0.930 . S
H1122 C1130 0.930 . S
H1123 C1131 0.930 . S
H1124 C1134 0.930 . S
H1125 C1135 0.930 . S
C1126 H1120 0.930 . S
C1126 C1127 1.355 . S
C1126 C1128 1.415 . S
C1127 C1126 1.355 . S
C1127 C1129 1.419 . S
C1128 C1126 1.415 . S
C1128 C1133 1.425 . S
C1128 C1135 1.409 . S
C1129 H1121 0.930 . S
C1129 C1127 1.419 . S
C1129 C1130 1.362 . S
C1130 H1122 0.930 . S
C1130 C1129 1.362 . S
C1130 C1133 1.409 . S
C1131 H1123 0.930 . S
C1131 C1132 1.355 . S
C1131 C1133 1.415 . S
C1132 C1131 1.355 . S
C1132 C1134 1.419 . S
C1133 C1128 1.425 . S
C1133 C1130 1.409 . S
C1133 C1131 1.415 . S
C1134 H1124 0.930 . S
C1134 C1132 1.419 . S
C1134 C1135 1.362 . S
C1135 H1125 0.930 . S
C1135 C1128 1.409 . S
C1135 C1134 1.362 . S
H1136 C1142 0.930 . S
H1137 C1145 0.930 . S
H1138 C1146 0.930 . S
H1139 C1147 0.930 . S
H1140 C1150 0.930 . S
H1141 C1151 0.930 . S
C1142 H1136 0.930 . S
C1142 C1143 1.355 . S
C1142 C1144 1.415 . S
C1143 C1142 1.355 . S
C1143 C1145 1.419 . S
C1144 C1142 1.415 . S
C1144 C1149 1.425 . S
C1144 C1151 1.409 . S
C1145 H1137 0.930 . S
C1145 C1143 1.419 . S
C1145 C1146 1.362 . S
C1146 H1138 0.930 . S
C1146 C1145 1.362 . S
C1146 C1149 1.409 . S
C1147 H1139 0.930 . S
C1147 C1148 1.355 . S
C1147 C1149 1.415 . S
C1148 C1147 1.355 . S
C1148 C1150 1.419 . S
C1149 C1144 1.425 . S
C1149 C1146 1.409 . S
C1149 C1147 1.415 . S
C1150 H1140 0.930 . S
C1150 C1148 1.419 . S
C1150 C1151 1.362 . S
C1151 H1141 0.930 . S
C1151 C1144 1.409 . S
C1151 C1150 1.362 . S
H1152 C1158 0.930 . S
H1153 C1161 0.930 . S
H1154 C1162 0.930 . S
H1155 C1163 0.930 . S
H1156 C1166 0.930 . S
H1157 C1167 0.930 . S
C1158 H1152 0.930 . S
C1158 C1159 1.355 . S
C1158 C1160 1.415 . S
C1159 C1158 1.355 . S
C1159 C1161 1.419 . S
C1160 C1158 1.415 . S
C1160 C1165 1.425 . S
C1160 C1167 1.409 . S
C1161 H1153 0.930 . S
C1161 C1159 1.419 . S
C1161 C1162 1.362 . S
C1162 H1154 0.930 . S
C1162 C1161 1.362 . S
C1162 C1165 1.409 . S
C1163 H1155 0.930 . S
C1163 C1164 1.355 . S
C1163 C1165 1.415 . S
C1164 C1163 1.355 . S
C1164 C1166 1.419 . S
C1165 C1160 1.425 . S
C1165 C1162 1.409 . S
C1165 C1163 1.415 . S
C1166 H1156 0.930 . S
C1166 C1164 1.419 . S
C1166 C1167 1.362 . S
C1167 H1157 0.930 . S
C1167 C1160 1.409 . S
C1167 C1166 1.362 . S
H1168 C1174 0.930 . S
H1169 C1177 0.930 . S
H1170 C1178 0.930 . S
H1171 C1179 0.930 . S
H1172 C1182 0.930 . S
H1173 C1183 0.930 . S
C1174 H1168 0.930 . S
C1174 C1175 1.355 . S
C1174 C1176 1.415 . S
C1175 C1174 1.355 . S
C1175 C1177 1.419 . S
C1176 C1174 1.415 . S
C1176 C1181 1.425 . S
C1176 C1183 1.409 . S
C1177 H1169 0.930 . S
C1177 C1175 1.419 . S
C1177 C1178 1.362 . S
C1178 H1170 0.930 . S
C1178 C1177 1.362 . S
C1178 C1181 1.409 . S
C1179 H1171 0.930 . S
C1179 C1180 1.355 . S
C1179 C1181 1.415 . S
C1180 C1179 1.355 . S
C1180 C1182 1.419 . S
C1181 C1176 1.425 . S
C1181 C1178 1.409 . S
C1181 C1179 1.415 . S
C1182 H1172 0.930 . S
C1182 C1180 1.419 . S
C1182 C1183 1.362 . S
C1183 H1173 0.930 . S
C1183 C1176 1.409 . S
C1183 C1182 1.362 . S
H1184 C1190 0.930 . S
H1185 C1193 0.930 . S
H1186 C1194 0.930 . S
H1187 C1195 0.930 . S
H1188 C1198 0.930 . S
H1189 C1199 0.930 . S
C1190 H1184 0.930 . S
C1190 C1191 1.355 . S
C1190 C1192 1.415 . S
C1191 C1190 1.355 . S
C1191 C1193 1.419 . S
C1192 C1190 1.415 . S
C1192 C1197 1.425 . S
C1192 C1199 1.409 . S
C1193 H1185 0.930 . S
C1193 C1191 1.419 . S
C1193 C1194 1.362 . S
C1194 H1186 0.930 . S
C1194 C1193 1.362 . S
C1194 C1197 1.409 . S
C1195 H1187 0.930 . S
C1195 C1196 1.355 . S
C1195 C1197 1.415 . S
C1196 C1195 1.355 . S
C1196 C1198 1.419 . S
C1197 C1192 1.425 . S
C1197 C1194 1.409 . S
C1197 C1195 1.415 . S
C1198 H1188 0.930 . S
C1198 C1196 1.419 . S
C1198 C1199 1.362 . S
C1199 H1189 0.930 . S
C1199 C1192 1.409 . S
C1199 C1198 1.362 . S
H1200 C1206 0.930 . S
H1201 C1209 0.930 . S
H1202 C1210 0.930 . S
H1203 C1211 0.930 . S
H1204 C1214 0.930 . S
H1205 C1215 0.930 . S
C1206 H1200 0.930 . S
C1206 C1207 1.355 . S
C1206 C1208 1.415 . S
C1207 C1206 1.355 . S
C1207 C1209 1.419 . S
C1208 C1206 1.415 . S
C1208 C1213 1.425 . S
C1208 C1215 1.409 . S
C1209 H1201 0.930 . S
C1209 C1207 1.419 . S
C1209 C1210 1.362 . S
C1210 H1202 0.930 . S
C1210 C1209 1.362 . S
C1210 C1213 1.409 . S
C1211 H1203 0.930 . S
C1211 C1212 1.355 . S
C1211 C1213 1.415 . S
C1212 C1211 1.355 . S
C1212 C1214 1.419 . S
C1213 C1208 1.425 . S
C1213 C1210 1.409 . S
C1213 C1211 1.415 . S
C1214 H1204 0.930 . S
C1214 C1212 1.419 . S
C1214 C1215 1.362 . S
C1215 H1205 0.930 . S
C1215 C1208 1.409 . S
C1215 C1214 1.362 . S
H1216 C1222 0.930 . S
H1217 C1225 0.930 . S
H1218 C1226 0.930 . S
H1219 C1227 0.930 . S
H1220 C1230 0.930 . S
H1221 C1231 0.930 . S
C1222 H1216 0.930 . S
C1222 C1223 1.355 . S
C1222 C1224 1.415 . S
C1223 C1222 1.355 . S
C1223 C1225 1.419 . S
C1224 C1222 1.415 . S
C1224 C1229 1.425 . S
C1224 C1231 1.409 . S
C1225 H1217 0.930 . S
C1225 C1223 1.419 . S
C1225 C1226 1.362 . S
C1226 H1218 0.930 . S
C1226 C1225 1.362 . S
C1226 C1229 1.409 . S
C1227 H1219 0.930 . S
C1227 C1228 1.355 . S
C1227 C1229 1.415 . S
C1228 C1227 1.355 . S
C1228 C1230 1.419 . S
C1229 C1224 1.425 . S
C1229 C1226 1.409 . S
C1229 C1227 1.415 . S
C1230 H1220 0.930 . S
C1230 C1228 1.419 . S
C1230 C1231 1.362 . S
C1231 H1221 0.930 . S
C1231 C1224 1.409 . S
C1231 C1230 1.362 . S
H1232 C1238 0.930 . S
H1233 C1241 0.930 . S
H1234 C1242 0.930 . S
H1235 C1243 0.930 . S
H1236 C1246 0.930 . S
H1237 C1247 0.930 . S
C1238 H1232 0.930 . S
C1238 C1239 1.355 . S
C1238 C1240 1.415 . S
C1239 C1238 1.355 . S
C1239 C1241 1.419 . S
C1240 C1238 1.415 . S
C1240 C1245 1.425 . S
C1240 C1247 1.409 . S
C1241 H1233 0.930 . S
C1241 C1239 1.419 . S
C1241 C1242 1.362 . S
C1242 H1234 0.930 . S
C1242 C1241 1.362 . S
C1242 C1245 1.409 . S
C1243 H1235 0.930 . S
C1243 C1244 1.355 . S
C1243 C1245 1.415 . S
C1244 C1243 1.355 . S
C1244 C1246 1.419 . S
C1245 C1240 1.425 . S
C1245 C1242 1.409 . S
C1245 C1243 1.415 . S
C1246 H1236 0.930 . S
C1246 C1244 1.419 . S
C1246 C1247 1.362 . S
C1247 H1237 0.930 . S
C1247 C1240 1.409 . S
C1247 C1246 1.362 . S
H1248 C1254 0.930 . S
H1249 C1257 0.930 . S
H1250 C1258 0.930 . S
H1251 C1259 0.930 . S
H1252 C1262 0.930 . S
H1253 C1263 0.930 . S
C1254 H1248 0.930 . S
C1254 C1255 1.355 . S
C1254 C1256 1.415 . S
C1255 C1254 1.355 . S
C1255 C1257 1.419 . S
C1256 C1254 1.415 . S
C1256 C1261 1.425 . S
C1256 C1263 1.409 . S
C1257 H1249 0.930 . S
C1257 C1255 1.419 . S
C1257 C1258 1.362 . S
C1258 H1250 0.930 . S
C1258 C1257 1.362 . S
C1258 C1261 1.409 . S
C1259 H1251 0.930 . S
C1259 C1260 1.355 . S
C1259 C1261 1.415 . S
C1260 C1259 1.355 . S
C1260 C1262 1.419 . S
C1261 C1256 1.425 . S
C1261 C1258 1.409 . S
C1261 C1259 1.415 . S
C1262 H1252 0.930 . S
C1262 C1260 1.419 . S
C1262 C1263 1.362 . S
C1263 H1253 0.930 . S
C1263 C1256 1.409 . S
C1263 C1262 1.362 . S
H1264 C1270 0.930 . S
H1265 C1273 0.930 . S
H1266 C1274 0.930 . S
H1267 C1275 0.930 . S
H1268 C1278 0.930 . S
H1269 C1279 0.930 . S
C1270 H1264 0.930 . S
C1270 C1271 1.355 . S
C1270 C1272 1.415 . S
C1271 C1270 1.355 . S
C1271 C1273 1.419 . S
C1272 C1270 1.415 . S
C1272 C1277 1.425 . S
C1272 C1279 1.409 . S
C1273 H1265 0.930 . S
C1273 C1271 1.419 . S
C1273 C1274 1.362 . S
C1274 H1266 0.930 . S
C1274 C1273 1.362 . S
C1274 C1277 1.409 . S
C1275 H1267 0.930 . S
C1275 C1276 1.355 . S
C1275 C1277 1.415 . S
C1276 C1275 1.355 . S
C1276 C1278 1.419 . S
C1277 C1272 1.425 . S
C1277 C1274 1.409 . S
C1277 C1275 1.415 . S
C1278 H1268 0.930 . S
C1278 C1276 1.419 . S
C1278 C1279 1.362 . S
C1279 H1269 0.930 . S
C1279 C1272 1.409 . S
C1279 C1278 1.362 . S
H1280 C1286 0.930 . S
H1281 C1289 0.930 . S
H1282 C1290 0.930 . S
H1283 C1291 0.930 . S
H1284 C1294 0.930 . S
H1285 C1295 0.930 . S
C1286 H1280 0.930 . S
C1286 C1287 1.355 . S
C1286 C1288 1.415 . S
C1287 C1286 1.355 . S
C1287 C1289 1.419 . S
C1288 C1286 1.415 . S
C1288 C1293 1.425 . S
C1288 C1295 1.409 . S
C1289 H1281 0.930 . S
C1289 C1287 1.419 . S
C1289 C1290 1.362 . S
C1290 H1282 0.930 . S
C1290 C1289 1.362 . S
C1290 C1293 1.409 . S
C1291 H1283 0.930 . S
C1291 C1292 1.355 . S
C1291 C1293 1.415 . S
C1292 C1291 1.355 . S
C1292 C1294 1.419 . S
C1293 C1288 1.425 . S
C1293 C1290 1.409 . S
C1293 C1291 1.415 . S
C1294 H1284 0.930 . S
C1294 C1292 1.419 . S
C1294 C1295 1.362 . S
C1295 H1285 0.930 . S
C1295 C1288 1.409 . S
C1295 C1294 1.362 . S
H1296 C1302 0.930 . S
H1297 C1305 0.930 . S
H1298 C1306 0.930 . S
H1299 C1307 0.930 . S
H1300 C1310 0.930 . S
H1301 C1311 0.930 . S
C1302 H1296 0.930 . S
C1302 C1303 1.355 . S
C1302 C1304 1.415 . S
C1303 C1302 1.355 . S
C1303 C1305 1.419 . S
C1304 C1302 1.415 . S
C1304 C1309 1.425 . S
C1304 C1311 1.409 . S
C1305 H1297 0.930 . S
C1305 C1303 1.419 . S
C1305 C1306 1.362 . S
C1306 H1298 0.930 . S
C1306 C1305 1.362 . S
C1306 C1309 1.409 . S
C1307 H1299 0.930 . S
C1307 C1308 1.355 . S
C1307 C1309 1.415 . S
C1308 C1307 1.355 . S
C1308 C1310 1.419 . S
C1309 C1304 1.425 . S
C1309 C1306 1.409 . S
C1309 C1307 1.415 . S
C1310 H1300 0.930 . S
C1310 C1308 1.419 . S
C1310 C1311 1.362 . S
C1311 H1301 0.930 . S
C1311 C1304 1.409 . S
C1311 C1310 1.362 . S
H1312 C1318 0.930 . S
H1313 C1321 0.930 . S
H1314 C1322 0.930 . S
H1315 C1323 0.930 . S
H1316 C1326 0.930 . S
H1317 C1327 0.930 . S
C1318 H1312 0.930 . S
C1318 C1319 1.355 . S
C1318 C1320 1.415 . S
C1319 C1318 1.355 . S
C1319 C1321 1.419 . S
C1320 C1318 1.415 . S
C1320 C1325 1.425 . S
C1320 C1327 1.409 . S
C1321 H1313 0.930 . S
C1321 C1319 1.419 . S
C1321 C1322 1.362 . S
C1322 H1314 0.930 . S
C1322 C1321 1.362 . S
C1322 C1325 1.409 . S
C1323 H1315 0.930 . S
C1323 C1324 1.355 . S
C1323 C1325 1.415 . S
C1324 C1323 1.355 . S
C1324 C1326 1.419 . S
C1325 C1320 1.425 . S
C1325 C1322 1.409 . S
C1325 C1323 1.415 . S
C1326 H1316 0.930 . S
C1326 C1324 1.419 . S
C1326 C1327 1.362 . S
C1327 H1317 0.930 . S
C1327 C1320 1.409 . S
C1327 C1326 1.362 . S
H1328 C1334 0.930 . S
H1329 C1337 0.930 . S
H1330 C1338 0.930 . S
H1331 C1339 0.930 . S
H1332 C1342 0.930 . S
H1333 C1343 0.930 . S
C1334 H1328 0.930 . S
C1334 C1335 1.355 . S
C1334 C1336 1.415 . S
C1335 C1334 1.355 . S
C1335 C1337 1.419 . S
C1336 C1334 1.415 . S
C1336 C1341 1.425 . S
C1336 C1343 1.409 . S
C1337 H1329 0.930 . S
C1337 C1335 1.419 . S
C1337 C1338 1.362 . S
C1338 H1330 0.930 . S
C1338 C1337 1.362 . S
C1338 C1341 1.409 . S
C1339 H1331 0.930 . S
C1339 C1340 1.355 . S
C1339 C1341 1.415 . S
C1340 C1339 1.355 . S
C1340 C1342 1.419 . S
C1341 C1336 1.425 . S
C1341 C1338 1.409 . S
C1341 C1339 1.415 . S
C1342 H1332 0.930 . S
C1342 C1340 1.419 . S
C1342 C1343 1.362 . S
C1343 H1333 0.930 . S
C1343 C1336 1.409 . S
C1343 C1342 1.362 . S
H1344 C1350 0.930 . S
H1345 C1353 0.930 . S
H1346 C1354 0.930 . S
H1347 C1355 0.930 . S
H1348 C1358 0.930 . S
H1349 C1359 0.930 . S
C1350 H1344 0.930 . S
C1350 C1351 1.355 . S
C1350 C1352 1.415 . S
C1351 C1350 1.355 . S
C1351 C1353 1.419 . S
C1352 C1350 1.415 . S
C1352 C1357 1.425 . S
C1352 C1359 1.409 . S
C1353 H1345 0.930 . S
C1353 C1351 1.419 . S
C1353 C1354 1.362 . S
C1354 H1346 0.930 . S
C1354 C1353 1.362 . S
C1354 C1357 1.409 . S
C1355 H1347 0.930 . S
C1355 C1356 1.355 . S
C1355 C1357 1.415 . S
C1356 C1355 1.355 . S
C1356 C1358 1.419 . S
C1357 C1352 1.425 . S
C1357 C1354 1.409 . S
C1357 C1355 1.415 . S
C1358 H1348 0.930 . S
C1358 C1356 1.419 . S
C1358 C1359 1.362 . S
C1359 H1349 0.930 . S
C1359 C1352 1.409 . S
C1359 C1358 1.362 . S
H1360 C1366 0.930 . S
H1361 C1369 0.930 . S
H1362 C1370 0.930 . S
H1363 C1371 0.930 . S
H1364 C1374 0.930 . S
H1365 C1375 0.930 . S
C1366 H1360 0.930 . S
C1366 C1367 1.355 . S
C1366 C1368 1.415 . S
C1367 C1366 1.355 . S
C1367 C1369 1.419 . S
C1368 C1366 1.415 . S
C1368 C1373 1.425 . S
C1368 C1375 1.409 . S
C1369 H1361 0.930 . S
C1369 C1367 1.419 . S
C1369 C1370 1.362 . S
C1370 H1362 0.930 . S
C1370 C1369 1.362 . S
C1370 C1373 1.409 . S
C1371 H1363 0.930 . S
C1371 C1372 1.355 . S
C1371 C1373 1.415 . S
C1372 C1371 1.355 . S
C1372 C1374 1.419 . S
C1373 C1368 1.425 . S
C1373 C1370 1.409 . S
C1373 C1371 1.415 . S
C1374 H1364 0.930 . S
C1374 C1372 1.419 . S
C1374 C1375 1.362 . S
C1375 H1365 0.930 . S
C1375 C1368 1.409 . S
C1375 C1374 1.362 . S
H1376 C1382 0.930 . S
H1377 C1385 0.930 . S
H1378 C1386 0.930 . S
H1379 C1387 0.930 . S
H1380 C1390 0.930 . S
H1381 C1391 0.930 . S
C1382 H1376 0.930 . S
C1382 C1383 1.355 . S
C1382 C1384 1.415 . S
C1383 C1382 1.355 . S
C1383 C1385 1.419 . S
C1384 C1382 1.415 . S
C1384 C1389 1.425 . S
C1384 C1391 1.409 . S
C1385 H1377 0.930 . S
C1385 C1383 1.419 . S
C1385 C1386 1.362 . S
C1386 H1378 0.930 . S
C1386 C1385 1.362 . S
C1386 C1389 1.409 . S
C1387 H1379 0.930 . S
C1387 C1388 1.355 . S
C1387 C1389 1.415 . S
C1388 C1387 1.355 . S
C1388 C1390 1.419 . S
C1389 C1384 1.425 . S
C1389 C1386 1.409 . S
C1389 C1387 1.415 . S
C1390 H1380 0.930 . S
C1390 C1388 1.419 . S
C1390 C1391 1.362 . S
C1391 H1381 0.930 . S
C1391 C1384 1.409 . S
C1391 C1390 1.362 . S
H1392 C1398 0.930 . S
H1393 C1401 0.930 . S
H1394 C1402 0.930 . S
H1395 C1403 0.930 . S
H1396 C1406 0.930 . S
H1397 C1407 0.930 . S
C1398 H1392 0.930 . S
C1398 C1399 1.355 . S
C1398 C1400 1.415 . S
C1399 C1398 1.355 . S
C1399 C1401 1.419 . S
C1400 C1398 1.415 . S
C1400 C1405 1.425 . S
C1400 C1407 1.409 . S
C1401 H1393 0.930 . S
C1401 C1399 1.419 . S
C1401 C1402 1.362 . S
C1402 H1394 0.930 . S
C1402 C1401 1.362 . S
C1402 C1405 1.409 . S
C1403 H1395 0.930 . S
C1403 C1404 1.355 . S
C1403 C1405 1.415 . S
C1404 C1403 1.355 . S
C1404 C1406 1.419 . S
C1405 C1400 1.425 . S
C1405 C1402 1.409 . S
C1405 C1403 1.415 . S
C1406 H1396 0.930 . S
C1406 C1404 1.419 . S
C1406 C1407 1.362 . S
C1407 H1397 0.930 . S
C1407 C1400 1.409 . S
C1407 C1406 1.362 . S
H1408 C1414 0.930 . S
H1409 C1417 0.930 . S
H1410 C1418 0.930 . S
H1411 C1419 0.930 . S
H1412 C1422 0.930 . S
H1413 C1423 0.930 . S
C1414 H1408 0.930 . S
C1414 C1415 1.355 . S
C1414 C1416 1.415 . S
C1415 C1414 1.355 . S
C1415 C1417 1.419 . S
C1416 C1414 1.415 . S
C1416 C1421 1.425 . S
C1416 C1423 1.409 . S
C1417 H1409 0.930 . S
C1417 C1415 1.419 . S
C1417 C1418 1.362 . S
C1418 H1410 0.930 . S
C1418 C1417 1.362 . S
C1418 C1421 1.409 . S
C1419 H1411 0.930 . S
C1419 C1420 1.355 . S
C1419 C1421 1.415 . S
C1420 C1419 1.355 . S
C1420 C1422 1.419 . S
C1421 C1416 1.425 . S
C1421 C1418 1.409 . S
C1421 C1419 1.415 . S
C1422 H1412 0.930 . S
C1422 C1420 1.419 . S
C1422 C1423 1.362 . S
C1423 H1413 0.930 . S
C1423 C1416 1.409 . S
C1423 C1422 1.362 . S
H1424 C1430 0.930 . S
H1425 C1433 0.930 . S
H1426 C1434 0.930 . S
H1427 C1435 0.930 . S
H1428 C1438 0.930 . S
H1429 C1439 0.930 . S
C1430 H1424 0.930 . S
C1430 C1431 1.355 . S
C1430 C1432 1.415 . S
C1431 C1430 1.355 . S
C1431 C1433 1.419 . S
C1432 C1430 1.415 . S
C1432 C1437 1.425 . S
C1432 C1439 1.409 . S
C1433 H1425 0.930 . S
C1433 C1431 1.419 . S
C1433 C1434 1.362 . S
C1434 H1426 0.930 . S
C1434 C1433 1.362 . S
C1434 C1437 1.409 . S
C1435 H1427 0.930 . S
C1435 C1436 1.355 . S
C1435 C1437 1.415 . S
C1436 C1435 1.355 . S
C1436 C1438 1.419 . S
C1437 C1432 1.425 . S
C1437 C1434 1.409 . S
C1437 C1435 1.415 . S
C1438 H1428 0.930 . S
C1438 C1436 1.419 . S
C1438 C1439 1.362 . S
C1439 H1429 0.930 . S
C1439 C1432 1.409 . S
C1439 C1438 1.362 . S
H1440 C1446 0.930 . S
H1441 C1449 0.930 . S
H1442 C1450 0.930 . S
H1443 C1451 0.930 . S
H1444 C1454 0.930 . S
H1445 C1455 0.930 . S
C1446 H1440 0.930 . S
C1446 C1447 1.355 . S
C1446 C1448 1.415 . S
C1447 C1446 1.355 . S
C1447 C1449 1.419 . S
C1448 C1446 1.415 . S
C1448 C1453 1.425 . S
C1448 C1455 1.409 . S
C1449 H1441 0.930 . S
C1449 C1447 1.419 . S
C1449 C1450 1.362 . S
C1450 H1442 0.930 . S
C1450 C1449 1.362 . S
C1450 C1453 1.409 . S
C1451 H1443 0.930 . S
C1451 C1452 1.355 . S
C1451 C1453 1.415 . S
C1452 C1451 1.355 . S
C1452 C1454 1.419 . S
C1453 C1448 1.425 . S
C1453 C1450 1.409 . S
C1453 C1451 1.415 . S
C1454 H1444 0.930 . S
C1454 C1452 1.419 . S
C1454 C1455 1.362 . S
C1455 H1445 0.930 . S
C1455 C1448 1.409 . S
C1455 C1454 1.362 . S
H1456 C1462 0.930 . S
H1457 C1465 0.930 . S
H1458 C1466 0.930 . S
H1459 C1467 0.930 . S
H1460 C1470 0.930 . S
H1461 C1471 0.930 . S
C1462 H1456 0.930 . S
C1462 C1463 1.355 . S
C1462 C1464 1.415 . S
C1463 C1462 1.355 . S
C1463 C1465 1.419 . S
C1464 C1462 1.415 . S
C1464 C1469 1.425 . S
C1464 C1471 1.409 . S
C1465 H1457 0.930 . S
C1465 C1463 1.419 . S
C1465 C1466 1.362 . S
C1466 H1458 0.930 . S
C1466 C1465 1.362 . S
C1466 C1469 1.409 . S
C1467 H1459 0.930 . S
C1467 C1468 1.355 . S
C1467 C1469 1.415 . S
C1468 C1467 1.355 . S
C1468 C1470 1.419 . S
C1469 C1464 1.425 . S
C1469 C1466 1.409 . S
C1469 C1467 1.415 . S
C1470 H1460 0.930 . S
C1470 C1468 1.419 . S
C1470 C1471 1.362 . S
C1471 H1461 0.930 . S
C1471 C1464 1.409 . S
C1471 C1470 1.362 . S
H1472 C1478 0.930 . S
H1473 C1481 0.930 . S
H1474 C1482 0.930 . S
H1475 C1483 0.930 . S
H1476 C1486 0.930 . S
H1477 C1487 0.930 . S
C1478 H1472 0.930 . S
C1478 C1479 1.355 . S
C1478 C1480 1.415 . S
C1479 C1478 1.355 . S
C1479 C1481 1.419 . S
C1480 C1478 1.415 . S
C1480 C1485 1.425 . S
C1480 C1487 1.409 . S
C1481 H1473 0.930 . S
C1481 C1479 1.419 . S
C1481 C1482 1.362 . S
C1482 H1474 0.930 . S
C1482 C1481 1.362 . S
C1482 C1485 1.409 . S
C1483 H1475 0.930 . S
C1483 C1484 1.355 . S
C1483 C1485 1.415 . S
C1484 C1483 1.355 . S
C1484 C1486 1.419 . S
C1485 C1480 1.425 . S
C1485 C1482 1.409 . S
C1485 C1483 1.415 . S
C1486 H1476 0.930 . S
C1486 C1484 1.419 . S
C1486 C1487 1.362 . S
C1487 H1477 0.930 . S
C1487 C1480 1.409 . S
C1487 C1486 1.362 . S
H1488 C1494 0.930 . S
H1489 C1497 0.930 . S
H1490 C1498 0.930 . S
H1491 C1499 0.930 . S
H1492 C1502 0.930 . S
H1493 C1503 0.930 . S
C1494 H1488 0.930 . S
C1494 C1495 1.355 . S
C1494 C1496 1.415 . S
C1495 C1494 1.355 . S
C1495 C1497 1.419 . S
C1496 C1494 1.415 . S
C1496 C1501 1.425 . S
C1496 C1503 1.409 . S
C1497 H1489 0.930 . S
C1497 C1495 1.419 . S
C1497 C1498 1.362 . S
C1498 H1490 0.930 . S
C1498 C1497 1.362 . S
C1498 C1501 1.409 . S
C1499 H1491 0.930 . S
C1499 C1500 1.355 . S
C1499 C1501 1.415 . S
C1500 C1499 1.355 . S
C1500 C1502 1.419 . S
C1501 C1496 1.425 . S
C1501 C1498 1.409 . S
C1501 C1499 1.415 . S
C1502 H1492 0.930 . S
C1502 C1500 1.419 . S
C1502 C1503 1.362 . S
C1503 H1493 0.930 . S
C1503 C1496 1.409 . S
C1503 C1502 1.362 . S
H1504 C1510 0.930 . S
H1505 C1513 0.930 . S
H1506 C1514 0.930 . S
H1507 C1515 0.930 . S
H1508 C1518 0.930 . S
H1509 C1519 0.930 . S
C1510 H1504 0.930 . S
C1510 C1511 1.355 . S
C1510 C1512 1.415 . S
C1511 C1510 1.355 . S
C1511 C1513 1.419 . S
C1512 C1510 1.415 . S
C1512 C1517 1.425 . S
C1512 C1519 1.409 . S
C1513 H1505 0.930 . S
C1513 C1511 1.419 . S
C1513 C1514 1.362 . S
C1514 H1506 0.930 . S
C1514 C1513 1.362 . S
C1514 C1517 1.409 . S
C1515 H1507 0.930 . S
C1515 C1516 1.355 . S
C1515 C1517 1.415 . S
C1516 C1515 1.355 . S
C1516 C1518 1.419 . S
C1517 C1512 1.425 . S
C1517 C1514 1.409 . S
C1517 C1515 1.415 . S
C1518 H1508 0.930 . S
C1518 C1516 1.419 . S
C1518 C1519 1.362 . S
C1519 H1509 0.930 . S
C1519 C1512 1.409 . S
C1519 C1518 1.362 . S
H1520 C1526 0.930 . S
H1521 C1529 0.930 . S
H1522 C1530 0.930 . S
H1523 C1531 0.930 . S
H1524 C1534 0.930 . S
H1525 C1535 0.930 . S
C1526 H1520 0.930 . S
C1526 C1527 1.355 . S
C1526 C1528 1.415 . S
C1527 C1526 1.355 . S
C1527 C1529 1.419 . S
C1528 C1526 1.415 . S
C1528 C1533 1.425 . S
C1528 C1535 1.409 . S
C1529 H1521 0.930 . S
C1529 C1527 1.419 . S
C1529 C1530 1.362 . S
C1530 H1522 0.930 . S
C1530 C1529 1.362 . S
C1530 C1533 1.409 . S
C1531 H1523 0.930 . S
C1531 C1532 1.355 . S
C1531 C1533 1.415 . S
C1532 C1531 1.355 . S
C1532 C1534 1.419 . S
C1533 C1528 1.425 . S
C1533 C1530 1.409 . S
C1533 C1531 1.415 . S
C1534 H1524 0.930 . S
C1534 C1532 1.419 . S
C1534 C1535 1.362 . S
C1535 H1525 0.930 . S
C1535 C1528 1.409 . S
C1535 C1534 1.362 . S
H1536 C1542 0.930 . S
H1537 C1545 0.930 . S
H1538 C1546 0.930 . S
H1539 C1547 0.930 . S
H1540 C1550 0.930 . S
H1541 C1551 0.930 . S
C1542 H1536 0.930 . S
C1542 C1543 1.355 . S
C1542 C1544 1.415 . S
C1543 C1542 1.355 . S
C1543 C1545 1.419 . S
C1544 C1542 1.415 . S
C1544 C1549 1.425 . S
C1544 C1551 1.409 . S
C1545 H1537 0.930 . S
C1545 C1543 1.419 . S
C1545 C1546 1.362 . S
C1546 H1538 0.930 . S
C1546 C1545 1.362 . S
C1546 C1549 1.409 . S
C1547 H1539 0.930 . S
C1547 C1548 1.355 . S
C1547 C1549 1.415 . S
C1548 C1547 1.355 . S
C1548 C1550 1.419 . S
C1549 C1544 1.425 . S
C1549 C1546 1.409 . S
C1549 C1547 1.415 . S
C1550 H1540 0.930 . S
C1550 C1548 1.419 . S
C1550 C1551 1.362 . S
C1551 H1541 0.930 . S
C1551 C1544 1.409 . S
C1551 C1550 1.362 . S
H1552 C1558 0.930 . S
H1553 C1561 0.930 . S
H1554 C1562 0.930 . S
H1555 C1563 0.930 . S
H1556 C1566 0.930 . S
H1557 C1567 0.930 . S
C1558 H1552 0.930 . S
C1558 C1559 1.355 . S
C1558 C1560 1.415 . S
C1559 C1558 1.355 . S
C1559 C1561 1.419 . S
C1560 C1558 1.415 . S
C1560 C1565 1.425 . S
C1560 C1567 1.409 . S
C1561 H1553 0.930 . S
C1561 C1559 1.419 . S
C1561 C1562 1.362 . S
C1562 H1554 0.930 . S
C1562 C1561 1.362 . S
C1562 C1565 1.409 . S
C1563 H1555 0.930 . S
C1563 C1564 1.355 . S
C1563 C1565 1.415 . S
C1564 C1563 1.355 . S
C1564 C1566 1.419 . S
C1565 C1560 1.425 . S
C1565 C1562 1.409 . S
C1565 C1563 1.415 . S
C1566 H1556 0.930 . S
C1566 C1564 1.419 . S
C1566 C1567 1.362 . S
C1567 H1557 0.930 . S
C1567 C1560 1.409 . S
C1567 C1566 1.362 . S
H1568 C1574 0.930 . S
H1569 C1577 0.930 . S
H1570 C1578 0.930 . S
H1571 C1579 0.930 . S
H1572 C1582 0.930 . S
H1573 C1583 0.930 . S
C1574 H1568 0.930 . S
C1574 C1575 1.355 . S
C1574 C1576 1.415 . S
C1575 C1574 1.355 . S
C1575 C1577 1.419 . S
C1576 C1574 1.415 . S
C1576 C1581 1.425 . S
C1576 C1583 1.409 . S
C1577 H1569 0.930 . S
C1577 C1575 1.419 . S
C1577 C1578 1.362 . S
C1578 H1570 0.930 . S
C1578 C1577 1.362 . S
C1578 C1581 1.409 . S
C1579 H1571 0.930 . S
C1579 C1580 1.355 . S
C1579 C1581 1.415 . S
C1580 C1579 1.355 . S
C1580 C1582 1.419 . S
C1581 C1576 1.425 . S
C1581 C1578 1.409 . S
C1581 C1579 1.415 . S
C1582 H1572 0.930 . S
C1582 C1580 1.419 . S
C1582 C1583 1.362 . S
C1583 H1573 0.930 . S
C1583 C1576 1.409 . S
C1583 C1582 1.362 . S
H1584 C1590 0.930 . S
H1585 C1593 0.930 . S
H1586 C1594 0.930 . S
H1587 C1595 0.930 . S
H1588 C1598 0.930 . S
H1589 C1599 0.930 . S
C1590 H1584 0.930 . S
C1590 C1591 1.355 . S
C1590 C1592 1.415 . S
C1591 C1590 1.355 . S
C1591 C1593 1.419 . S
C1592 C1590 1.415 . S
C1592 C1597 1.425 . S
C1592 C1599 1.409 . S
C1593 H1585 0.930 . S
C1593 C1591 1.419 . S
C1593 C1594 1.362 . S
C1594 H1586 0.930 . S
C1594 C1593 1.362 . S
C1594 C1597 1.409 . S
C1595 H1587 0.930 . S
C1595 C1596 1.355 . S
C1595 C1597 1.415 . S
C1596 C1595 1.355 . S
C1596 C1598 1.419 . S
C1597 C1592 1.425 . S
C1597 C1594 1.409 . S
C1597 C1595 1.415 . S
C1598 H1588 0.930 . S
C1598 C1596 1.419 . S
C1598 C1599 1.362 . S
C1599 H1589 0.930 . S
C1599 C1592 1.409 . S
C1599 C1598 1.362 . S
H1600 C1606 0.930 . S
H1601 C1609 0.930 . S
H1602 C1610 0.930 . S
H1603 C1611 0.930 . S
H1604 C1614 0.930 . S
H1605 C1615 0.930 . S
C1606 H1600 0.930 . S
C1606 C1607 1.355 . S
C1606 C1608 1.415 . S
C1607 C1606 1.355 . S
C1607 C1609 1.419 . S
C1608 C1606 1.415 . S
C1608 C1613 1.425 . S
C1608 C1615 1.409 . S
C1609 H1601 0.930 . S
C1609 C1607 1.419 . S
C1609 C1610 1.362 . S
C1610 H1602 0.930 . S
C1610 C1609 1.362 . S
C1610 C1613 1.409 . S
C1611 H1603 0.930 . S
C1611 C1612 1.355 . S
C1611 C1613 1.415 . S
C1612 C1611 1.355 . S
C1612 C1614 1.419 . S
C1613 C1608 1.425 . S
C1613 C1610 1.409 . S
C1613 C1611 1.415 . S
C1614 H1604 0.930 . S
C1614 C1612 1.419 . S
C1614 C1615 1.362 . S
C1615 H1605 0.930 . S
C1615 C1608 1.409 . S
C1615 C1614 1.362 . S
H1616 C1622 0.930 . S
H1617 C1625 0.930 . S
H1618 C1626 0.930 . S
H1619 C1627 0.930 . S
H1620 C1630 0.930 . S
H1621 C1631 0.930 . S
C1622 H1616 0.930 . S
C1622 C1623 1.355 . S
C1622 C1624 1.415 . S
C1623 C1622 1.355 . S
C1623 C1625 1.419 . S
C1624 C1622 1.415 . S
C1624 C1629 1.425 . S
C1624 C1631 1.409 . S
C1625 H1617 0.930 . S
C1625 C1623 1.419 . S
C1625 C1626 1.362 . S
C1626 H1618 0.930 . S
C1626 C1625 1.362 . S
C1626 C1629 1.409 . S
C1627 H1619 0.930 . S
C1627 C1628 1.355 . S
C1627 C1629 1.415 . S
C1628 C1627 1.355 . S
C1628 C1630 1.419 . S
C1629 C1624 1.425 . S
C1629 C1626 1.409 . S
C1629 C1627 1.415 . S
C1630 H1620 0.930 . S
C1630 C1628 1.419 . S
C1630 C1631 1.362 . S
C1631 H1621 0.930 . S
C1631 C1624 1.409 . S
C1631 C1630 1.362 . S
C487 C13 2.811 . S
C492 C328 2.621 . S
C503 C33 2.812 . S
C508 C477 2.619 . S
C519 C428 2.615 . S
C524 C53 2.817 . S
C535 C73 2.813 . S
C540 C448 2.670 . S
C551 C93 2.821 . S
C556 C348 2.649 . S
C567 C113 2.816 . S
C572 C368 2.665 . S
C583 C133 2.809 . S
C588 C388 2.623 . S
C599 C153 2.809 . S
C604 C417 2.672 . S
C615 C173 2.802 . S
C620 C8 2.659 . S
C631 C193 2.820 . S
C636 C28 2.617 . S
C647 C48 2.634 . S
C652 C213 2.805 . S
C663 C68 2.672 . S
C668 C233 2.811 . S
C679 C253 2.803 . S
C684 C88 2.665 . S
C695 C262 2.804 . S
C700 C108 2.668 . S
C711 C293 2.812 . S
C716 C128 2.619 . S
C727 C313 2.822 . S
C732 C148 2.624 . S
C743 C333 2.811 . S
C748 C168 2.619 . S
C759 C353 2.821 . S
C764 C248 2.618 . S
C775 C277 2.673 . S
C780 C373 2.809 . S
C791 C393 2.804 . S
C796 C288 2.645 . S
C807 C402 2.819 . S
C812 C308 2.616 . S
C823 C433 2.813 . S
C828 C208 2.670 . S
C839 C228 2.626 . S
C844 C453 2.808 . S
C855 C462 2.806 . S
C860 C188 2.672 . S
C871 C437 1.476 . S
C876 C94 1.491 . S
C887 C457 1.530 . S
C892 C114 1.440 . S
C903 C134 1.501 . S
C908 C337 1.470 . S
C919 C154 1.529 . S
C924 C468 1.482 . S
C935 C397 1.464 . S
C940 C14 1.528 . S
C951 C34 1.492 . S
C956 C408 1.476 . S
C967 C357 1.544 . S
C972 C54 1.462 . S
C983 C74 1.516 . S
C988 C377 1.501 . S
C999 C294 1.514 . S
C1004 C97 1.504 . S
C1015 C314 1.530 . S
C1020 C117 1.479 . S
C1031 C254 1.448 . S
C1036 C137 1.548 . S
C1047 C157 1.463 . S
C1052 C265 1.518 . S
C1063 C214 1.531 . S
C1068 C17 1.466 . S
C1079 C234 1.437 . S
C1084 C37 1.536 . S
C1095 C174 1.445 . S
C1100 C57 1.549 . S
C1111 C194 1.437 . S
C1116 C77 1.538 . S
C1127 C297 1.538 . S
C1132 C434 1.474 . S
C1143 C394 1.527 . S
C1148 C217 1.485 . S
C1159 C237 1.542 . S
C1164 C405 1.468 . S
C1175 C354 1.477 . S
C1180 C177 1.487 . S
C1191 C374 1.439 . S
C1196 C197 1.546 . S
C1207 C334 1.517 . S
C1212 C257 1.501 . S
C1223 C465 1.437 . S
C1228 C268 1.542 . S
C1239 C317 1.506 . S
C1244 C454 1.457 . S
C1255 C414 0.778 . S
C1260 C5 0.843 . S
C1271 C345 0.633 . S
C1276 C25 0.692 . S
C1287 C45 0.632 . S
C1292 C365 0.694 . S
C1303 C65 0.844 . S
C1308 C385 0.777 . S
C1319 C474 0.629 . S
C1324 C85 0.709 . S
C1335 C105 0.756 . S
C1340 C425 0.843 . S
C1351 C445 0.629 . S
C1356 C125 0.729 . S
C1367 C145 0.656 . S
C1372 C325 0.655 . S
C1383 C165 0.679 . S
C1388 C305 0.638 . S
C1399 C245 0.629 . S
C1404 C185 0.732 . S
C1415 C205 0.660 . S
C1420 C274 0.795 . S
C1431 C285 0.749 . S
C1436 C225 0.843 . S
C1447 C362 3.317 . S
C1452 C82 3.327 . S
C1463 C382 3.318 . S
C1468 C102 3.329 . S
C1479 C122 3.330 . S
C1484 C413 3.322 . S
C1495 C142 3.319 . S
C1500 C342 3.317 . S
C1511 C442 3.330 . S
C1516 C2 3.320 . S
C1527 C322 3.316 . S
C1532 C22 3.321 . S
C1543 C473 3.322 . S
C1548 C42 3.316 . S
C1559 C62 3.330 . S
C1564 C422 3.326 . S
C1575 C182 3.326 . S
C1580 C282 3.316 . S
C1591 C302 3.319 . S
C1596 C202 3.317 . S
C1607 C242 3.330 . S
C1612 C222 3.324 . S
C1623 C273 3.317 . S
C1628 C162 3.327 . S
