# Generated by pormake.
# Topology umf, (4)-cn, num edge types: 1
# Building blocks:
#     Node 0, Type 0, BuildingBlock: KOZSID_clean_sbu_0, # of connection points: 4
#     Node 1, Type 0, BuildingBlock: KOZSID_clean_sbu_0, # of connection points: 4
#     Node 2, Type 0, BuildingBlock: KOZSID_clean_sbu_0, # of connection points: 4
#     Node 3, Type 0, BuildingBlock: KOZSID_clean_sbu_0, # of connection points: 4
#     Node 4, Type 0, BuildingBlock: KOZSID_clean_sbu_0, # of connection points: 4
#     Node 5, Type 0, BuildingBlock: KOZSID_clean_sbu_0, # of connection points: 4
#     Node 6, Type 0, BuildingBlock: KOZSID_clean_sbu_0, # of connection points: 4
#     Node 7, Type 0, BuildingBlock: KOZSID_clean_sbu_0, # of connection points: 4
#     Edge 8, Type (0, 0), BuildingBlock: EZIPEK_clean_linker_0, # of connection points: 2
#     Edge 9, Type (0, 0), BuildingBlock: EZIPEK_clean_linker_0, # of connection points: 2
#     Edge 10, Type (0, 0), BuildingBlock: EZIPEK_clean_linker_0, # of connection points: 2
#     Edge 11, Type (0, 0), BuildingBlock: EZIPEK_clean_linker_0, # of connection points: 2
#     Edge 12, Type (0, 0), BuildingBlock: EZIPEK_clean_linker_0, # of connection points: 2
#     Edge 13, Type (0, 0), BuildingBlock: EZIPEK_clean_linker_0, # of connection points: 2
#     Edge 14, Type (0, 0), BuildingBlock: EZIPEK_clean_linker_0, # of connection points: 2
#     Edge 15, Type (0, 0), BuildingBlock: EZIPEK_clean_linker_0, # of connection points: 2
#     Edge 16, Type (0, 0), BuildingBlock: EZIPEK_clean_linker_0, # of connection points: 2
#     Edge 17, Type (0, 0), BuildingBlock: EZIPEK_clean_linker_0, # of connection points: 2
#     Edge 18, Type (0, 0), BuildingBlock: EZIPEK_clean_linker_0, # of connection points: 2
#     Edge 19, Type (0, 0), BuildingBlock: EZIPEK_clean_linker_0, # of connection points: 2
#     Edge 20, Type (0, 0), BuildingBlock: EZIPEK_clean_linker_0, # of connection points: 2
#     Edge 21, Type (0, 0), BuildingBlock: EZIPEK_clean_linker_0, # of connection points: 2
#     Edge 22, Type (0, 0), BuildingBlock: EZIPEK_clean_linker_0, # of connection points: 2
#     Edge 23, Type (0, 0), BuildingBlock: EZIPEK_clean_linker_0, # of connection points: 2
# Relax obj value: 0.081
# Max RMSD: 0.195
# Mean RMSD: 0.195
data_MOF--net-umf--node1-KOZSID_clean_sbu_0--edge1-EZIPEK_clean_linker_0
_symmetry_space_group_name_H-M    P1
_symmetry_Int_Tables_number       1
_symmetry_cell_setting            triclinic
loop_
_symmetry_equiv_pos_as_xyz
'x, y, z'
_cell_length_a     30.058919
_cell_length_b     30.072994
_cell_length_c     44.376064
_cell_angle_alpha  89.975044
_cell_angle_beta   89.826596
_cell_angle_gamma 90.009126
loop_
_atom_site_label
_atom_site_type_symbol
_atom_site_fract_x
_atom_site_fract_y
_atom_site_fract_z
_atom_type_partial_charge
C0 C 0.15113 0.22319 0.17966 0.0
C1 C 0.19652 0.21409 0.17914 0.0
C2 C 0.21411 0.23648 0.15521 0.0
C3 C 0.17867 0.2565 0.14148 0.0
N4 N 0.13957 0.24833 0.15545 0.0
Co5 Co 0.07948 0.26147 0.13896 0.0
N6 N 0.10366 0.26653 0.09739 0.0
C7 C 0.14661 0.27307 0.08989 0.0
C8 C 0.15378 0.2755 0.05944 0.0
C9 C 0.11269 0.27063 0.04685 0.0
C10 C 0.08263 0.26577 0.07054 0.0
N11 N 0.02007 0.27513 0.12233 0.0
C12 C 1.00595 0.27557 0.09325 0.0
C13 C 0.9617 0.28832 0.09179 0.0
C14 C 0.94804 0.29624 0.121 0.0
C15 C 0.98464 0.28805 0.13873 0.0
N16 N 0.05695 0.25336 0.18081 0.0
C17 C 0.01699 0.26708 0.19093 0.0
C18 C 1.00995 0.2555 0.22058 0.0
C19 C 0.0477 0.23293 0.22942 0.0
C20 C 0.07591 0.23163 0.20466 0.0
N21 N 0.08633 0.32803 0.14533 0.0
C22 C 0.06129 0.42036 0.15093 0.0
C23 C 0.06352 0.39159 0.17603 0.0
C24 C 0.07858 0.34708 0.17304 0.0
C25 C 0.07638 0.40218 0.12355 0.0
C26 C 0.08679 0.35653 0.12098 0.0
N27 N 0.06782 0.19731 0.13242 0.0
C28 C 0.01429 0.13751 0.1364 0.0
C29 C 0.04399 0.10743 0.12367 0.0
C30 C 0.08638 0.12315 0.1151 0.0
C31 C 0.09762 0.16845 0.11958 0.0
C32 C 0.02668 0.1816 0.14058 0.0
H33 H 0.13016 0.18008 0.11283 0.0
H34 H 1.00225 0.20284 0.15063 0.0
H35 H 0.08127 0.32778 0.19339 0.0
H36 H 0.09265 0.34487 0.09851 0.0
C37 C 0.17972 0.26996 0.11151 0.0
C38 C 0.12091 0.21051 0.20466 0.0
C39 C 0.03439 0.26617 0.06672 0.0
C40 C 0.98532 0.28443 0.17053 0.0
H41 H 0.21538 0.19266 0.19386 0.0
H42 H 0.24803 0.2345 0.14705 0.0
H43 H 0.18523 0.27911 0.04775 0.0
H44 H 0.10569 0.27165 0.02296 0.0
H45 H 0.94154 0.29155 0.07175 0.0
H46 H 0.91493 0.30525 0.12843 0.0
H47 H 0.9802 0.26103 0.23385 0.0
H48 H 0.05356 0.21851 0.2514 0.0
H49 H 0.05313 0.40306 0.19807 0.0
H50 H 0.07741 0.42256 0.10343 0.0
H51 H 0.98149 0.12677 0.14355 0.0
H52 H 0.11056 0.10064 0.10536 0.0
C53 C 0.80133 0.14311 0.67781 0.0
C54 C 0.81044 0.18844 0.6765 0.0
C55 C 0.78855 0.20492 0.65209 0.0
C56 C 0.76877 0.16888 0.63891 0.0
N57 N 0.77662 0.13044 0.65368 0.0
Co58 Co 0.76351 0.06964 0.63832 0.0
N59 N 0.75892 0.09188 0.59627 0.0
C60 C 0.75282 0.13449 0.58791 0.0
C61 C 0.75101 0.1403 0.55733 0.0
C62 C 0.75581 0.09865 0.54556 0.0
C63 C 0.75994 0.06963 0.56984 0.0
N64 N 0.74987 1.00952 0.62281 0.0
C65 C 0.74947 0.99408 0.59401 0.0
C66 C 0.7366 0.94983 0.59342 0.0
C67 C 0.72853 0.93753 0.62287 0.0
C68 C 0.73677 0.97488 0.63988 0.0
N69 N 0.77118 0.04902 0.68061 0.0
C70 C 0.75735 1.00955 0.69145 0.0
C71 C 0.76863 1.00384 0.72124 0.0
C72 C 0.7911 0.04197 0.72944 0.0
C73 C 0.79263 0.06906 0.70417 0.0
N74 N 0.69689 0.07689 0.64441 0.0
C75 C 0.60446 0.05217 0.65026 0.0
C76 C 0.63298 0.0555 0.67538 0.0
C77 C 0.67755 0.07039 0.67221 0.0
C78 C 0.62291 0.06604 0.62266 0.0
C79 C 0.66861 0.07633 0.62 0.0
N80 N 0.82771 0.05762 0.63211 0.0
C81 C 0.88737 1.00416 0.63697 0.0
C82 C 0.91753 0.03315 0.62356 0.0
C83 C 0.90194 0.07516 0.61424 0.0
C84 C 0.85667 0.08673 0.61864 0.0
C85 C 0.84331 0.01687 0.64105 0.0
H86 H 0.84513 0.11896 0.61127 0.0
H87 H 0.82198 0.99299 0.65162 0.0
H88 H 0.69666 0.07396 0.69254 0.0
H89 H 0.68051 0.08126 0.59746 0.0
C90 C 0.7558 0.16856 0.60888 0.0
C91 C 0.81359 0.11409 0.70343 0.0
C92 C 0.75899 0.02122 0.56694 0.0
C93 C 0.74014 0.977 0.67165 0.0
H94 H 0.83155 0.20794 0.69105 0.0
H95 H 0.79066 0.23845 0.64331 0.0
H96 H 0.74789 0.17122 0.54502 0.0
H97 H 0.75524 0.09062 0.5218 0.0
H98 H 0.73336 0.92879 0.57376 0.0
H99 H 0.71937 0.90481 0.63093 0.0
H100 H 0.76295 0.97471 0.73506 0.0
H101 H 0.80527 0.04883 0.75134 0.0
H102 H 0.62126 0.04611 0.69758 0.0
H103 H 0.60273 0.06619 0.60249 0.0
H104 H 0.89801 0.97167 0.64469 0.0
H105 H 0.92451 0.0988 0.60395 0.0
C106 C 0.90252 0.79727 0.19155 0.0
C107 C 0.85772 0.7939 0.1989 0.0
C108 C 0.83778 0.77192 0.17567 0.0
C109 C 0.87143 0.7627 0.15569 0.0
N110 N 0.91173 0.77657 0.16506 0.0
Co111 Co 0.96944 0.76766 0.14336 0.0
N112 N 0.93819 0.75354 0.10491 0.0
C113 C 0.89391 0.74843 0.10121 0.0
C114 C 0.88151 0.74198 0.07186 0.0
C115 C 0.92021 0.74379 0.05578 0.0
C116 C 0.95416 0.75085 0.07644 0.0
N117 N 0.02671 0.75676 0.12192 0.0
C118 C 0.03496 0.75154 0.09198 0.0
C119 C 0.07993 0.74495 0.08674 0.0
C120 C 0.1005 0.74648 0.11437 0.0
C121 C 0.06706 0.7537 0.13503 0.0
N122 N 0.99906 0.78639 0.18178 0.0
C123 C 0.04336 0.78598 0.18683 0.0
C124 C 0.05507 0.80941 0.21219 0.0
C125 C 0.01606 0.82665 0.22344 0.0
C126 C 0.98226 0.81228 0.20464 0.0
N127 N 0.97093 0.70174 0.15489 0.0
C128 C 0.99404 0.60827 0.15646 0.0
C129 C 0.01868 0.64073 0.17181 0.0
C130 C 1.00515 0.68563 0.17231 0.0
C131 C 0.95491 0.62381 0.14247 0.0
C132 C 0.94477 0.66997 0.14124 0.0
N133 N 0.97223 0.83152 0.13133 0.0
C134 C 0.01917 0.89649 0.12593 0.0
C135 C 0.98276 0.92373 0.1212 0.0
C136 C 0.94039 0.90372 0.11964 0.0
C137 C 0.9359 0.85718 0.12451 0.0
C138 C 1.01332 0.85144 0.13091 0.0
H139 H 0.90311 0.84253 0.12409 0.0
H140 H 0.04307 0.83382 0.13546 0.0
H141 H 0.02409 0.70671 0.18654 0.0
H142 H 0.91594 0.67892 0.12861 0.0
C143 C 0.86491 0.75091 0.1257 0.0
C144 C 0.93433 0.82335 0.20918 0.0
C145 C 1.00107 0.75367 0.0681 0.0
C146 C 0.07299 0.76843 0.16501 0.0
H147 H 0.84085 0.80773 0.21833 0.0
H148 H 0.80249 0.76636 0.17267 0.0
H149 H 0.84825 0.73728 0.06314 0.0
H150 H 0.92303 0.74028 0.03159 0.0
H151 H 0.09621 0.74081 0.06513 0.0
H152 H 0.13593 0.74542 0.11861 0.0
H153 H 0.0883 0.81545 0.22057 0.0
H154 H 1.01293 0.84804 0.24293 0.0
H155 H 0.04872 0.63166 0.18373 0.0
H156 H 0.93292 0.60058 0.13131 0.0
H157 H 0.05242 0.9104 0.12711 0.0
H158 H 0.9111 0.92391 0.11595 0.0
C159 C 0.22678 0.89484 0.6927 0.0
C160 C 0.23013 0.85042 0.70088 0.0
C161 C 0.25256 0.82954 0.67815 0.0
C162 C 0.26206 0.8623 0.65761 0.0
N163 N 0.24793 0.90294 0.66617 0.0
Co164 Co 0.25719 0.9597 0.64352 0.0
N165 N 0.27193 0.92685 0.60571 0.0
C166 C 0.27728 0.88247 0.60283 0.0
C167 C 0.28436 0.86889 0.57375 0.0
C168 C 0.28268 0.90689 0.55698 0.0
C169 C 0.27501 0.94161 0.57699 0.0
N170 N 0.26836 0.01601 0.62114 0.0
C171 C 0.27376 0.02298 0.59107 0.0
C172 C 0.28031 0.06771 0.58504 0.0
C173 C 0.27856 0.08943 0.6123 0.0
C174 C 0.27125 0.05688 0.63354 0.0
N175 N 0.23784 0.99087 0.68133 0.0
C176 C 0.23824 0.03534 0.68562 0.0
C177 C 0.21422 0.0481 0.71057 0.0
C178 C 0.19663 1.0096 0.72234 0.0
C179 C 0.2114 0.97502 0.70426 0.0
N180 N 0.32297 0.96173 0.65532 0.0
C181 C 0.41644 0.98507 0.65672 0.0
C182 C 0.38376 1.01033 0.67149 0.0
C183 C 0.33885 0.99673 0.67213 0.0
C184 C 0.40112 0.94528 0.64348 0.0
C185 C 0.35496 0.935 0.64232 0.0
N186 N 0.1935 0.96198 0.63112 0.0
C187 C 0.12847 1.00861 0.62509 0.0
C188 C 0.10131 0.97202 0.6208 0.0
C189 C 0.12146 0.92969 0.61958 0.0
C190 C 0.168 0.92544 0.62454 0.0
C191 C 0.17351 1.00299 0.63014 0.0
H192 H 0.18274 0.8927 0.62449 0.0
H193 H 0.19106 0.0329 0.63432 0.0
H194 H 0.31757 0.01624 0.68595 0.0
H195 H 0.34623 0.90557 0.63025 0.0
C196 C 0.27441 0.85453 0.62782 0.0
C197 C 0.20019 0.92729 0.70953 0.0
C198 C 0.27183 0.98807 0.56782 0.0
C199 C 0.25613 0.06405 0.66337 0.0
H200 H 0.21596 0.83438 0.72054 0.0
H201 H 0.25824 0.79416 0.67583 0.0
H202 H 0.28938 0.83532 0.56564 0.0
H203 H 0.28665 0.90877 0.53277 0.0
H204 H 0.28455 0.08306 0.56315 0.0
H205 H 0.2795 0.12501 0.6159 0.0
H206 H 0.20799 0.08166 0.7183 0.0
H207 H 0.17474 1.00731 0.74167 0.0
H208 H 0.39265 0.04092 0.68284 0.0
H209 H 0.42452 0.92282 0.63284 0.0
H210 H 0.11448 0.04183 0.62592 0.0
H211 H 0.10134 0.90027 0.61619 0.0
C212 C 0.12552 0.79816 0.81458 0.0
C213 C 0.17032 0.79491 0.80723 0.0
C214 C 0.19031 0.7729 0.83044 0.0
C215 C 0.15668 0.76354 0.85042 0.0
N216 N 0.11636 0.77738 0.84106 0.0
Co217 Co 0.05868 0.76824 0.86275 0.0
N218 N 0.08997 0.75429 0.90122 0.0
C219 C 0.13426 0.74931 0.90491 0.0
C220 C 0.14668 0.74295 0.93427 0.0
C221 C 0.10797 0.74467 0.95035 0.0
C222 C 0.07399 0.75157 0.92968 0.0
N223 N 1.00146 0.75707 0.88417 0.0
C224 C 0.9932 0.75179 0.91411 0.0
C225 C 0.94827 0.74487 0.91932 0.0
C226 C 0.92774 0.74626 0.89166 0.0
C227 C 0.96116 0.75372 0.87102 0.0
N228 N 0.02902 0.78689 0.82432 0.0
C229 C 0.98474 0.78621 0.81925 0.0
C230 C 0.97295 0.80958 0.79386 0.0
C231 C 1.01189 0.82703 0.78262 0.0
C232 C 0.04574 0.81285 0.80146 0.0
N233 N 0.05741 0.70233 0.85125 0.0
C234 C 0.03417 0.60888 0.84963 0.0
C235 C 1.00999 0.64132 0.83392 0.0
C236 C 0.02362 0.68621 0.83347 0.0
C237 C 0.07298 0.62441 0.86402 0.0
C238 C 0.08317 0.67056 0.86526 0.0
N239 N 0.05563 0.83208 0.87474 0.0
C240 C 1.0084 0.89684 0.88009 0.0
C241 C 0.0447 0.92426 0.88476 0.0
C242 C 0.08717 0.90445 0.88633 0.0
C243 C 0.09186 0.85793 0.88151 0.0
C244 C 0.01445 0.85181 0.87516 0.0
H245 H 0.12471 0.84343 0.88193 0.0
H246 H 0.98477 0.83403 0.87063 0.0
H247 H 1.00507 0.70728 0.81897 0.0
H248 H 0.11169 0.67949 0.87822 0.0
C249 C 0.16323 0.75175 0.8804 0.0
C250 C 0.09363 0.82412 0.79694 0.0
C251 C 0.02706 0.7541 0.93801 0.0
C252 C 0.9552 0.7684 0.84103 0.0
H253 H 0.18716 0.80882 0.7878 0.0
H254 H 0.22561 0.76742 0.83344 0.0
H255 H 0.17995 0.73834 0.94299 0.0
H256 H 0.10516 0.74116 0.97455 0.0
H257 H 0.93199 0.7406 0.94091 0.0
H258 H 0.89233 0.74493 0.8874 0.0
H259 H 0.9397 0.8154 0.78544 0.0
H260 H 0.01495 0.8484 0.76311 0.0
H261 H 0.98023 0.63226 0.82168 0.0
H262 H 0.09465 0.60119 0.87549 0.0
H263 H 0.97509 0.91059 0.87891 0.0
H264 H 0.11637 0.92478 0.88997 0.0
C265 C 0.2268 0.1428 0.32788 0.0
C266 C 0.2177 0.18814 0.32906 0.0
C267 C 0.23961 0.20473 0.35341 0.0
C268 C 0.25939 0.16876 0.36668 0.0
N269 N 0.25153 0.13025 0.35203 0.0
Co270 Co 0.26466 0.06951 0.36755 0.0
N271 N 0.26934 0.09197 0.40953 0.0
C272 C 0.27535 0.13464 0.41778 0.0
C273 C 0.27721 0.14059 0.44834 0.0
C274 C 0.27253 0.09899 0.46022 0.0
C275 C 0.26842 0.06984 0.43603 0.0
N276 N 0.27834 1.00947 0.38322 0.0
C277 C 0.27885 0.99419 0.41206 0.0
C278 C 0.29171 0.94994 0.41278 0.0
C279 C 0.29963 0.93748 0.38335 0.0
C280 C 0.29134 0.97473 0.36624 0.0
N281 N 0.25685 0.04867 0.32533 0.0
C282 C 0.27051 1.00909 0.3146 0.0
C283 C 0.25913 1.00322 0.28484 0.0
C284 C 0.23675 0.04135 0.27655 0.0
C285 C 0.23537 0.06861 0.30173 0.0
N286 N 0.3313 0.07673 0.36137 0.0
C287 C 0.42375 0.05189 0.35571 0.0
C288 C 0.39515 0.05457 0.3306 0.0
C289 C 0.35061 0.06958 0.33363 0.0
C290 C 0.40536 0.06649 0.38315 0.0
C291 C 0.35965 0.0768 0.38574 0.0
N292 N 0.20046 0.05753 0.37386 0.0
C293 C 0.14076 1.00404 0.36923 0.0
C294 C 0.11059 0.03318 0.38246 0.0
C295 C 0.1262 0.07527 0.39158 0.0
C296 C 0.17149 0.08678 0.38717 0.0
C297 C 0.18483 0.0167 0.36512 0.0
H298 H 0.18303 0.11907 0.39438 0.0
H299 H 0.20615 0.99271 0.35468 0.0
H300 H 0.33152 0.07275 0.31327 0.0
H301 H 0.34783 0.08231 0.40823 0.0
C302 C 0.27235 0.16859 0.39672 0.0
C303 C 0.21449 0.11367 0.30234 0.0
C304 C 0.2694 0.02146 0.43907 0.0
C305 C 0.28779 0.97665 0.33447 0.0
H306 H 0.19656 0.20757 0.31448 0.0
H307 H 0.2375 0.23831 0.36211 0.0
H308 H 0.28031 0.17157 0.46056 0.0
H309 H 0.27315 0.09107 0.48401 0.0
H310 H 0.29501 0.929 0.43249 0.0
H311 H 0.30873 0.9047 0.37537 0.0
H312 H 0.2647 0.974 0.27112 0.0
H313 H 0.22253 0.04811 0.25465 0.0
H314 H 0.40678 0.04461 0.3085 0.0
H315 H 0.42561 0.06721 0.40329 0.0
H316 H 0.13011 0.97149 0.36165 0.0
H317 H 0.10362 0.09902 0.40173 0.0
C318 C 0.87668 0.2239 0.82598 0.0
C319 C 0.83126 0.2149 0.82642 0.0
C320 C 0.81362 0.23731 0.8503 0.0
C321 C 0.84905 0.25725 0.86409 0.0
N322 N 0.88819 0.24901 0.8502 0.0
Co323 Co 0.94824 0.26202 0.8668 0.0
N324 N 0.92389 0.2671 0.90833 0.0
C325 C 0.88093 0.27369 0.91575 0.0
C326 C 0.87364 0.2761 0.94618 0.0
C327 C 0.91467 0.27117 0.95885 0.0
C328 C 0.94481 0.26628 0.93521 0.0
N329 N 1.0076 0.27556 0.88354 0.0
C330 C 0.0216 0.27593 0.91265 0.0
C331 C 0.06588 0.28856 0.91419 0.0
C332 C 0.07968 0.29649 0.88501 0.0
C333 C 0.04314 0.28841 0.86721 0.0
N334 N 0.97093 0.25389 0.825 0.0
C335 C 1.01097 0.2675 0.81496 0.0
C336 C 0.01813 0.25587 0.78533 0.0
C337 C 0.98036 0.23339 0.77643 0.0
C338 C 0.95203 0.23217 0.80113 0.0
N339 N 0.94155 0.32862 0.8604 0.0
C340 C 0.96669 0.42098 0.85493 0.0
C341 C 0.96483 0.3922 0.82983 0.0
C342 C 0.94968 0.3477 0.83273 0.0
C343 C 0.95119 0.40278 0.88221 0.0
C344 C 0.94077 0.35712 0.88473 0.0
N345 N 0.95972 0.19784 0.87338 0.0
C346 C 1.01311 0.13792 0.86949 0.0
C347 C 0.98331 0.1079 0.88219 0.0
C348 C 0.94094 0.1237 0.8907 0.0
C349 C 0.92981 0.16903 0.88618 0.0
C350 C 1.00085 0.18205 0.86529 0.0
H351 H 0.89728 0.18072 0.89288 0.0
H352 H 0.02537 0.20324 0.85528 0.0
H353 H 0.94721 0.32845 0.81237 0.0
H354 H 0.9346 0.34546 0.90718 0.0
C355 C 0.8479 0.27067 0.89406 0.0
C356 C 0.90699 0.21112 0.80106 0.0
C357 C 0.99304 0.26653 0.93912 0.0
C358 C 0.0426 0.28478 0.8354 0.0
H359 H 0.81242 0.19349 0.81167 0.0
H360 H 0.77966 0.2354 0.85839 0.0
H361 H 0.84215 0.27976 0.95781 0.0
H362 H 0.92158 0.27214 0.98275 0.0
H363 H 0.08598 0.29171 0.93428 0.0
H364 H 0.11286 0.30541 0.87764 0.0
H365 H 0.04796 0.26132 0.77212 0.0
H366 H 0.97457 0.21895 0.75445 0.0
H367 H 0.97554 0.40367 0.80785 0.0
H368 H 0.94984 0.42315 0.90231 0.0
H369 H 0.04591 0.12712 0.86239 0.0
H370 H 0.91668 0.10124 0.90042 0.0
C371 C 0.80133 0.89397 0.31349 0.0
C372 C 0.798 0.84953 0.30536 0.0
C373 C 0.77557 0.82867 0.32813 0.0
C374 C 0.76606 0.86146 0.34863 0.0
N375 N 0.78021 0.90208 0.34002 0.0
Co376 Co 0.77092 0.95885 0.36259 0.0
N377 N 0.75654 0.92605 0.40049 0.0
C378 C 0.75124 0.88168 0.40344 0.0
C379 C 0.74442 0.86813 0.43257 0.0
C380 C 0.74622 0.90617 0.44928 0.0
C381 C 0.75367 0.94087 0.42919 0.0
N382 N 0.75966 0.01515 0.38488 0.0
C383 C 0.75443 0.0222 0.41494 0.0
C384 C 0.74759 0.0669 0.42088 0.0
C385 C 0.74896 0.08852 0.39355 0.0
C386 C 0.75635 0.05593 0.37237 0.0
N387 N 0.78997 0.98996 0.32469 0.0
C388 C 0.78923 0.03441 0.32027 0.0
C389 C 0.81305 0.04721 0.29522 0.0
C390 C 0.83085 1.00876 0.28353 0.0
C391 C 0.8164 0.97417 0.30174 0.0
N392 N 0.70505 0.96066 0.35094 0.0
C393 C 0.61165 0.98433 0.34956 0.0
C394 C 0.6443 1.00884 0.33414 0.0
C395 C 0.68915 0.99504 0.33355 0.0
C396 C 0.62695 0.94502 0.36347 0.0
C397 C 0.67306 0.93461 0.36461 0.0
N398 N 0.83465 0.96141 0.37482 0.0
C399 C 0.89953 1.00832 0.38061 0.0
C400 C 0.9268 0.97187 0.38511 0.0
C401 C 0.90679 0.92948 0.3865 0.0
C402 C 0.86027 0.92501 0.38154 0.0
C403 C 0.8545 1.0025 0.37558 0.0
H404 H 0.84562 0.89223 0.38174 0.0
H405 H 0.83682 0.0323 0.37125 0.0
H406 H 0.71038 0.0139 0.31925 0.0
H407 H 0.68176 0.90566 0.37722 0.0
C408 C 0.75383 0.85372 0.37846 0.0
C409 C 0.82779 0.92647 0.29657 0.0
C410 C 0.75669 0.98737 0.43827 0.0
C411 C 0.77116 0.06307 0.34246 0.0
H412 H 0.81215 0.83348 0.28572 0.0
H413 H 0.7699 0.79329 0.3305 0.0
H414 H 0.73946 0.83457 0.44073 0.0
H415 H 0.7424 0.90808 0.4735 0.0
H416 H 0.74338 0.08232 0.44274 0.0
H417 H 0.74771 0.12407 0.38986 0.0
H418 H 0.819 0.08077 0.28737 0.0
H419 H 0.85264 1.00652 0.26414 0.0
H420 H 0.63542 0.039 0.32226 0.0
H421 H 0.60357 0.9231 0.37465 0.0
H422 H 0.91342 0.04159 0.37963 0.0
H423 H 0.927 0.90016 0.39004 0.0
C424 C 0.01534 0.48633 0.12958 0.0
C425 C 0.04291 0.46828 0.1528 0.0
C426 C 0.02862 0.538 0.18103 0.0
C427 C 1.00936 0.55925 0.15536 0.0
N428 N 0.99842 0.55298 0.1014 0.0
N429 N 0.08577 0.48684 0.19721 0.0
C430 C 1.0067 0.53324 0.12849 0.0
C431 C 0.05243 0.49695 0.1776 0.0
N432 N 0.99523 0.45898 0.10923 0.0
N433 N 0.02275 0.55546 0.20912 0.0
H434 H 0.10735 0.46016 0.19388 0.0
H435 H 0.09546 0.50847 0.21436 0.0
H436 H 1.00191 0.58252 0.21323 0.0
H437 H 0.03387 0.53936 0.22851 0.0
H438 H 0.97274 0.4708 0.09327 0.0
H439 H 0.99627 0.42442 0.11095 0.0
H440 H 0.99929 0.53533 0.08117 0.0
H441 H 0.99673 0.58735 0.09869 0.0
C442 C 0.48646 0.02093 0.68073 0.0
C443 C 0.46547 1.00042 0.65542 0.0
C444 C 0.53867 1.00524 0.62968 0.0
C445 C 0.55649 0.03389 0.65238 0.0
N446 N 0.5375 0.07883 0.69586 0.0
N447 N 0.47227 0.98695 0.60172 0.0
C448 C 0.52757 0.04458 0.67691 0.0
C449 C 0.49175 0.99652 0.62867 0.0
N450 N 0.46871 0.01641 0.70888 0.0
N451 N 0.56624 0.98423 0.60979 0.0
H452 H 0.43791 0.98511 0.59898 0.0
H453 H 0.49012 0.98686 0.58152 0.0
H454 H 0.6008 0.9854 0.61155 0.0
H455 H 0.55458 0.96099 0.59425 0.0
H456 H 0.48463 0.02846 0.72807 0.0
H457 H 0.44161 0.99577 0.71336 0.0
H458 H 0.51568 0.08933 0.71274 0.0
H459 H 0.56424 0.10022 0.69216 0.0
C460 C 1.01219 0.48706 0.87658 0.0
C461 C 0.98509 0.46892 0.85314 0.0
C462 C 1.00002 0.53854 0.82489 0.0
C463 C 0.01874 0.55988 0.85069 0.0
N464 N 0.02844 0.55382 0.90478 0.0
N465 N 0.94313 0.48738 0.80831 0.0
C466 C 0.02078 0.53398 0.87765 0.0
C467 C 0.9761 0.49752 0.82819 0.0
N468 N 0.0319 0.45979 0.89716 0.0
N469 N 1.00652 0.55586 0.79681 0.0
H470 H 0.92142 0.46077 0.81152 0.0
H471 H 0.93383 0.50896 0.79102 0.0
H472 H 0.02749 0.58287 0.79284 0.0
H473 H 0.99579 0.53968 0.77736 0.0
H474 H 0.05405 0.4717 0.91332 0.0
H475 H 0.03097 0.42523 0.89549 0.0
H476 H 0.02713 0.53623 0.92504 0.0
H477 H 0.03005 0.58821 0.90743 0.0
C478 C 0.50046 0.04339 0.32891 0.0
C479 C 0.47172 0.03357 0.35373 0.0
C480 C 0.53668 0.99703 0.37777 0.0
C481 C 0.56269 0.9999 0.35083 0.0
N482 N 0.55888 0.01396 0.29713 0.0
N483 N 0.46238 0.98537 0.39716 0.0
C484 C 0.54147 0.01953 0.32528 0.0
C485 C 0.48976 1.00571 0.37682 0.0
N486 N 0.49045 0.07703 0.30948 0.0
N487 N 0.55643 0.98847 0.40479 0.0
H488 H 0.4278 0.9864 0.3955 0.0
H489 H 0.4742 0.96271 0.41304 0.0
H490 H 0.59082 0.98675 0.4074 0.0
H491 H 0.53877 0.98914 0.42506 0.0
H492 H 0.51212 0.08689 0.29233 0.0
H493 H 0.46385 0.09866 0.31298 0.0
H494 H 0.54276 0.02536 0.27783 0.0
H495 H 0.58587 0.99308 0.29286 0.0
C496 C 1.01041 0.30834 0.98705 0.0
C497 C 1.0097 0.26739 0.97102 0.0
C498 C 0.01402 0.22643 0.019 0.0
C499 C 0.01762 0.26724 0.03485 0.0
N500 N 0.02458 0.34708 0.03405 0.0
N501 N 0.01618 0.18779 0.9708 0.0
C502 C 0.01699 0.30826 0.01888 0.0
C503 C 1.01318 0.22651 0.98681 0.0
N504 N 1.00291 0.34724 0.97194 0.0
N505 N 1.01092 0.18765 0.03496 0.0
H506 H 0.01593 0.1871 0.94727 0.0
H507 H 0.02251 0.1569 0.98043 0.0
H508 H 1.01116 0.18685 0.05848 0.0
H509 H 1.00451 0.15682 0.02528 0.0
H510 H 0.99709 0.37752 0.9826 0.0
H511 H 1.0 0.34891 0.94856 0.0
H512 H 0.03047 0.37739 0.02344 0.0
H513 H 0.02748 0.34863 0.05744 0.0
C514 C 0.7978 0.99759 0.51947 0.0
C515 C 0.75717 1.00314 0.53537 0.0
C516 C 0.71587 0.99897 0.48756 0.0
C517 C 0.7568 0.99756 0.47146 0.0
N518 N 0.83685 0.99815 0.47129 0.0
N519 N 0.67754 1.01185 0.53503 0.0
C520 C 0.79785 0.99748 0.48726 0.0
C521 C 0.71611 1.00394 0.51953 0.0
N522 N 0.83626 0.99233 0.53545 0.0
N523 N 0.67672 0.99446 0.47223 0.0
H524 H 0.67617 1.01352 0.55849 0.0
H525 H 0.64727 0.0189 0.52477 0.0
H526 H 0.67509 0.99308 0.44876 0.0
H527 H 0.64605 0.98957 0.48266 0.0
H528 H 0.86693 0.98483 0.52582 0.0
H529 H 0.83676 0.99203 0.55898 0.0
H530 H 0.86809 1.00189 0.48097 0.0
H531 H 0.83789 0.99798 0.44778 0.0
C532 C 0.01429 0.79441 0.0192 0.0
C533 C 1.01254 0.7534 0.03506 0.0
C534 C 0.01583 0.71253 0.98696 0.0
C535 C 0.01555 0.75357 0.97104 0.0
N536 N 1.01025 0.83333 0.97107 0.0
N537 N 1.00793 0.67348 0.03468 0.0
C538 C 1.01349 0.79449 0.98697 0.0
C539 C 1.01257 0.71244 0.01906 0.0
N540 N 0.01722 0.8332 0.03516 0.0
N541 N 0.02076 0.67369 0.97128 0.0
H542 H 1.00791 0.67201 0.05817 0.0
H543 H 1.002 0.64283 0.0246 0.0
H544 H 0.02078 0.67234 0.94778 0.0
H545 H 0.02692 0.64304 0.98131 0.0
H546 H 0.02208 0.86433 0.0255 0.0
H547 H 0.01781 0.83403 0.05867 0.0
H548 H 1.00515 0.86437 0.98079 0.0
H549 H 1.00966 0.83428 0.94757 0.0
C550 C 0.23066 0.99793 0.48661 0.0
C551 C 0.27126 1.00352 0.47069 0.0
C552 C 0.3126 0.99966 0.5185 0.0
C553 C 0.27168 0.99815 0.53461 0.0
N554 N 0.19163 0.9985 0.5348 0.0
N555 N 0.35088 1.01246 0.47098 0.0
C556 C 0.23062 0.99791 0.51882 0.0
C557 C 0.31233 1.0045 0.48651 0.0
N558 N 0.1922 0.99255 0.47064 0.0
N559 N 0.35177 0.99536 0.53384 0.0
H560 H 0.35222 0.01404 0.44752 0.0
H561 H 0.38114 0.01962 0.48121 0.0
H562 H 0.3534 0.99411 0.5573 0.0
H563 H 0.38245 0.99056 0.52342 0.0
H564 H 0.16154 0.98502 0.48029 0.0
H565 H 0.19169 0.99218 0.44711 0.0
H566 H 0.16037 1.0021 0.52512 0.0
H567 H 0.1906 0.99839 0.5583 0.0
C568 C 0.12503 0.14326 0.24149 0.0
C569 C 0.14042 0.18598 0.23204 0.0
C570 C 0.20806 0.17363 0.26189 0.0
C571 C 0.19056 0.13435 0.27513 0.0
N572 N 0.1284 0.08415 0.27917 0.0
N573 N 0.18947 0.24698 0.24362 0.0
C574 C 0.14778 0.11976 0.26535 0.0
C575 C 0.17942 0.20287 0.24588 0.0
N576 N 0.08938 0.12465 0.22737 0.0
N577 N 0.25219 0.18334 0.26467 0.0
H578 H 0.16839 0.26956 0.2329 0.0
H579 H 0.21622 0.26128 0.25499 0.0
H580 H 0.27438 0.16184 0.27538 0.0
H581 H 0.26694 0.21031 0.25374 0.0
H582 H 0.07904 0.09207 0.23114 0.0
H583 H 0.07187 0.14104 0.21043 0.0
H584 H 0.09567 0.07446 0.27527 0.0
H585 H 0.14431 0.06607 0.29605 0.0
C586 C 0.84866 0.20347 0.75974 0.0
C587 C 0.88757 0.18656 0.77368 0.0
C588 C 0.88024 0.12027 0.74046 0.0
C589 C 0.8375 0.13488 0.7306 0.0
N590 N 0.77592 0.18398 0.74088 0.0
N591 N 0.93852 0.12519 0.77852 0.0
C592 C 0.82002 0.17422 0.74374 0.0
C593 C 0.90294 0.1438 0.76432 0.0
N594 N 0.83868 0.2476 0.76189 0.0
N595 N 0.89962 0.08463 0.72671 0.0
H596 H 0.95598 0.14158 0.79548 0.0
H597 H 0.94885 0.09261 0.77479 0.0
H598 H 0.88374 0.06653 0.70983 0.0
H599 H 0.93233 0.07492 0.73067 0.0
H600 H 0.81199 0.2619 0.75045 0.0
H601 H 0.85975 0.27018 0.77261 0.0
H602 H 0.76118 0.211 0.75175 0.0
H603 H 0.75371 0.16248 0.73019 0.0
C604 C 0.8563 0.91275 0.2422 0.0
C605 C 0.86228 0.90863 0.27384 0.0
C606 C 0.91843 0.8497 0.26368 0.0
C607 C 0.91561 0.85697 0.2321 0.0
N608 N 0.88888 0.9046 0.19249 0.0
N609 N 0.90829 0.88016 0.31373 0.0
C610 C 0.88711 0.89185 0.2219 0.0
C611 C 0.89672 0.87965 0.28411 0.0
N612 N 0.81935 0.93344 0.23119 0.0
N613 N 0.93872 0.81233 0.27441 0.0
H614 H 0.89343 0.90202 0.3288 0.0
H615 H 0.93548 0.86278 0.32226 0.0
H616 H 0.95279 0.78834 0.26038 0.0
H617 H 0.93759 0.80305 0.29703 0.0
H618 H 0.81104 0.93328 0.20841 0.0
H619 H 0.79474 0.94684 0.24506 0.0
H620 H 0.87183 0.93211 0.18412 0.0
H621 H 0.91137 0.89035 0.17753 0.0
C622 C 0.13135 0.88027 0.72195 0.0
C623 C 0.16564 0.90942 0.73223 0.0
C624 C 0.14057 0.89279 0.78414 0.0
C625 C 0.11226 0.85775 0.77397 0.0
N626 N 0.08949 0.81285 0.73173 0.0
N627 N 0.20822 0.93462 0.77492 0.0
C628 C 0.10963 0.85033 0.74241 0.0
C629 C 0.17142 0.91371 0.76388 0.0
N630 N 0.11993 0.8806 0.69231 0.0
N631 N 0.13857 0.90568 0.81351 0.0
H632 H 0.23286 0.94805 0.76108 0.0
H633 H 0.2164 0.93462 0.79772 0.0
H634 H 0.116 0.89144 0.82844 0.0
H635 H 0.15547 0.9333 0.82186 0.0
H636 H 0.09284 0.86309 0.68375 0.0
H637 H 0.13481 0.90243 0.67722 0.0
H638 H 0.09078 0.80347 0.70914 0.0
H639 H 0.07538 0.7889 0.74578 0.0
C640 C 0.02595 0.03468 0.1489 0.0
C641 C 0.03011 0.05946 0.12179 0.0
C642 C 0.99845 0.99614 0.09367 0.0
C643 C 0.99123 0.97293 0.12117 0.0
N644 N 0.99097 0.97333 0.17544 0.0
N645 N 0.01433 0.06654 0.06882 0.0
C646 C 1.00261 0.99345 0.14893 0.0
C647 C 0.01462 0.04094 0.09426 0.0
N648 N 0.04597 0.04991 0.1745 0.0
N649 N 0.99139 0.97477 0.06696 0.0
H650 H 0.02705 0.09879 0.06828 0.0
H651 H 0.99897 0.05691 0.04886 0.0
H652 H 0.97814 0.94275 0.06578 0.0
H653 H 1.00101 0.98768 0.04616 0.0
H654 H 0.04806 0.03158 0.19436 0.0
H655 H 0.06458 0.07915 0.17492 0.0
H656 H 0.99413 0.98845 0.19643 0.0
H657 H 0.9743 0.94294 0.17626 0.0
C658 C 0.02873 0.98696 0.59348 0.0
C659 C 0.05207 0.98034 0.62093 0.0
C660 C 0.99029 0.01536 0.6487 0.0
C661 C 0.96543 0.019 0.62164 0.0
N662 N 0.95814 1.00208 0.56883 0.0
N663 N 0.05196 0.98121 0.6752 0.0
C664 C 0.98387 1.00302 0.59415 0.0
C665 C 0.03164 0.9922 0.6487 0.0
N666 N 0.05001 0.97944 0.56673 0.0
N667 N 0.97504 0.03568 0.67426 0.0
H668 H 0.08251 0.96483 0.676 0.0
H669 H 0.03693 0.98466 0.69624 0.0
H670 H 0.94567 0.05409 0.67474 0.0
H671 H 0.99339 0.03815 0.69405 0.0
H672 H 0.03699 0.98864 0.54592 0.0
H673 H 0.08207 0.96624 0.56551 0.0
H674 H 0.96775 0.98637 0.54894 0.0
H675 H 0.92577 0.01454 0.56834 0.0
C676 C 1.00094 0.03504 0.85705 0.0
C677 C 0.99709 0.05992 0.88412 0.0
C678 C 0.02909 0.99672 0.91222 0.0
C679 C 0.03604 0.97343 0.88473 0.0
N680 N 0.0357 0.97365 0.83046 0.0
N681 N 1.01338 0.06717 0.937 0.0
C682 C 0.02431 0.99383 0.85699 0.0
C683 C 1.01287 0.0415 0.91161 0.0
N684 N 0.98064 0.05017 0.83152 0.0
N685 N 0.03646 0.97545 0.93894 0.0
H686 H 1.00056 0.09939 0.93754 0.0
H687 H 0.02896 0.05765 0.95691 0.0
H688 H 0.04973 0.94344 0.94013 0.0
H689 H 0.02706 0.98842 0.95976 0.0
H690 H 0.97833 0.03177 0.81172 0.0
H691 H 0.96202 0.07941 0.83114 0.0
H692 H 0.03226 0.9887 0.80946 0.0
H693 H 0.05242 0.94329 0.82962 0.0
C694 C 0.99924 0.98723 0.41252 0.0
C695 C 0.97602 0.98036 0.38505 0.0
C696 C 0.0379 0.01522 0.35726 0.0
C697 C 0.06266 0.01908 0.38435 0.0
N698 N 0.06971 1.0026 0.43725 0.0
N699 N 0.97638 0.9808 0.33078 0.0
C700 C 0.04409 1.00332 0.41188 0.0
C701 C 0.99657 0.99202 0.35727 0.0
N702 N 0.97783 0.97993 0.43926 0.0
N703 N 0.05324 0.03538 0.33165 0.0
H704 H 0.94585 0.96438 0.32998 0.0
H705 H 0.99151 0.98411 0.30976 0.0
H706 H 0.0826 0.05382 0.33117 0.0
H707 H 0.03497 0.03768 0.31182 0.0
H708 H 0.99075 0.98932 0.46005 0.0
H709 H 0.94577 0.96673 0.44048 0.0
H710 H 0.06001 0.98705 0.45718 0.0
H711 H 0.10208 0.01508 0.43776 0.0
loop_
_geom_bond_atom_site_label_1
_geom_bond_atom_site_label_2
_geom_bond_distance
_geom_bond_site_symmetry_2
_ccdc_geom_bond_type
C0 C1 1.443 . S
C0 N4 1.376 . S
C0 C38 1.389 . S
C1 C0 1.443 . S
C1 C2 1.340 . S
C1 H41 0.951 . S
C2 C1 1.340 . S
C2 C3 1.439 . S
C2 H42 0.950 . S
C3 C2 1.439 . S
C3 N4 1.374 . S
C3 C37 1.395 . S
N4 C0 1.376 . S
N4 C3 1.374 . S
N4 Co5 2.008 . S
Co5 N4 2.008 . S
Co5 N6 1.995 . S
Co5 N11 2.017 . S
Co5 N16 1.995 . S
Co5 N21 2.282 . S
Co5 N27 2.282 . S
N6 Co5 1.995 . S
N6 C7 1.376 . S
N6 C10 1.383 . S
C7 N6 1.376 . S
C7 C8 1.446 . S
C7 C37 1.391 . S
C8 C7 1.446 . S
C8 C9 1.339 . S
C8 H43 0.949 . S
C9 C8 1.339 . S
C9 C10 1.439 . S
C9 H44 0.950 . S
C10 N6 1.383 . S
C10 C9 1.439 . S
C10 C39 1.392 . S
N11 Co5 2.017 . S
N11 C12 1.374 1_455 S
N11 C15 1.365 1_455 S
C12 N11 1.374 1_655 S
C12 C13 1.443 . S
C12 C39 1.389 1_655 S
C13 C12 1.443 . S
C13 C14 1.340 . S
C13 H45 0.951 . S
C14 C13 1.340 . S
C14 C15 1.439 . S
C14 H46 0.950 . S
C15 N11 1.365 1_655 S
C15 C14 1.439 . S
C15 C40 1.395 . S
N16 Co5 1.995 . S
N16 C17 1.376 1_455 S
N16 C20 1.383 . S
C17 N16 1.376 1_655 S
C17 C18 1.446 . S
C17 C40 1.391 . S
C18 C17 1.446 . S
C18 C19 1.339 1_655 S
C18 H47 0.949 . S
C19 C18 1.339 1_455 S
C19 C20 1.439 . S
C19 H48 0.950 . S
C20 N16 1.383 . S
C20 C19 1.439 . S
C20 C38 1.392 . S
N21 Co5 2.282 . S
N21 C24 1.332 . S
N21 C26 1.332 . S
C22 C23 1.386 . S
C22 C25 1.388 . S
C23 C22 1.386 . S
C23 C24 1.382 . S
C23 H49 0.950 . S
C24 N21 1.332 . S
C24 C23 1.382 . S
C24 H35 0.952 . S
C25 C22 1.388 . S
C25 C26 1.382 . S
C25 H50 0.950 . S
C26 N21 1.332 . S
C26 C25 1.382 . S
C26 H36 0.948 . S
N27 Co5 2.282 . S
N27 C31 1.332 . S
N27 C32 1.332 . S
C28 C29 1.388 . S
C28 C32 1.382 . S
C28 H51 0.950 . S
C29 C28 1.388 . S
C29 C30 1.386 . S
C30 C29 1.386 . S
C30 C31 1.382 . S
C30 H52 0.950 . S
C31 N27 1.332 . S
C31 C30 1.382 . S
C31 H33 0.952 . S
C32 N27 1.332 . S
C32 C28 1.382 . S
C32 H34 0.948 . S
H33 C31 0.952 . S
H34 C32 0.948 . S
H35 C24 0.952 . S
H36 C26 0.948 . S
C37 C3 1.395 . S
C37 C7 1.391 . S
C38 C0 1.389 . S
C38 C20 1.392 . S
C39 C10 1.392 . S
C39 C12 1.389 1_455 S
C40 C15 1.395 . S
C40 C17 1.391 . S
H41 C1 0.951 . S
H42 C2 0.950 . S
H43 C8 0.949 . S
H44 C9 0.950 . S
H45 C13 0.951 . S
H46 C14 0.950 . S
H47 C18 0.949 . S
H48 C19 0.950 . S
H49 C23 0.950 . S
H50 C25 0.950 . S
H51 C28 0.950 . S
H52 C30 0.950 . S
C53 C54 1.443 . S
C53 N57 1.376 . S
C53 C91 1.389 . S
C54 C53 1.443 . S
C54 C55 1.340 . S
C54 H94 0.951 . S
C55 C54 1.340 . S
C55 C56 1.439 . S
C55 H95 0.950 . S
C56 C55 1.439 . S
C56 N57 1.374 . S
C56 C90 1.395 . S
N57 C53 1.376 . S
N57 C56 1.374 . S
N57 Co58 2.008 . S
Co58 N57 2.008 . S
Co58 N59 1.995 . S
Co58 N64 2.017 . S
Co58 N69 1.995 . S
Co58 N74 2.282 . S
Co58 N80 2.282 . S
N59 Co58 1.995 . S
N59 C60 1.376 . S
N59 C63 1.383 . S
C60 N59 1.376 . S
C60 C61 1.446 . S
C60 C90 1.391 . S
C61 C60 1.446 . S
C61 C62 1.339 . S
C61 H96 0.949 . S
C62 C61 1.339 . S
C62 C63 1.439 . S
C62 H97 0.950 . S
C63 N59 1.383 . S
C63 C62 1.439 . S
C63 C92 1.392 . S
N64 Co58 2.017 . S
N64 C65 1.374 1_545 S
N64 C68 1.365 1_545 S
C65 N64 1.374 1_565 S
C65 C66 1.443 . S
C65 C92 1.389 1_565 S
C66 C65 1.443 . S
C66 C67 1.340 . S
C66 H98 0.951 . S
C67 C66 1.340 . S
C67 C68 1.439 . S
C67 H99 0.950 . S
C68 N64 1.365 1_565 S
C68 C67 1.439 . S
C68 C93 1.395 . S
N69 Co58 1.995 . S
N69 C70 1.376 1_545 S
N69 C73 1.383 . S
C70 N69 1.376 1_565 S
C70 C71 1.446 . S
C70 C93 1.391 . S
C71 C70 1.446 . S
C71 C72 1.339 1_565 S
C71 H100 0.949 . S
C72 C71 1.339 1_545 S
C72 C73 1.439 . S
C72 H101 0.950 . S
C73 N69 1.383 . S
C73 C72 1.439 . S
C73 C91 1.392 . S
N74 Co58 2.282 . S
N74 C77 1.332 . S
N74 C79 1.332 . S
C75 C76 1.386 . S
C75 C78 1.388 . S
C76 C75 1.386 . S
C76 C77 1.382 . S
C76 H102 0.950 . S
C77 N74 1.332 . S
C77 C76 1.382 . S
C77 H88 0.952 . S
C78 C75 1.388 . S
C78 C79 1.382 . S
C78 H103 0.950 . S
C79 N74 1.332 . S
C79 C78 1.382 . S
C79 H89 0.948 . S
N80 Co58 2.282 . S
N80 C84 1.332 . S
N80 C85 1.332 . S
C81 C82 1.388 . S
C81 C85 1.382 . S
C81 H104 0.950 . S
C82 C81 1.388 . S
C82 C83 1.386 . S
C83 C82 1.386 . S
C83 C84 1.382 . S
C83 H105 0.950 . S
C84 N80 1.332 . S
C84 C83 1.382 . S
C84 H86 0.952 . S
C85 N80 1.332 . S
C85 C81 1.382 . S
C85 H87 0.948 . S
H86 C84 0.952 . S
H87 C85 0.948 . S
H88 C77 0.952 . S
H89 C79 0.948 . S
C90 C56 1.395 . S
C90 C60 1.391 . S
C91 C53 1.389 . S
C91 C73 1.392 . S
C92 C63 1.392 . S
C92 C65 1.389 1_545 S
C93 C68 1.395 . S
C93 C70 1.391 . S
H94 C54 0.951 . S
H95 C55 0.950 . S
H96 C61 0.949 . S
H97 C62 0.950 . S
H98 C66 0.951 . S
H99 C67 0.950 . S
H100 C71 0.949 . S
H101 C72 0.950 . S
H102 C76 0.950 . S
H103 C78 0.950 . S
H104 C81 0.950 . S
H105 C83 0.950 . S
C106 C107 1.443 . S
C106 N110 1.376 . S
C106 C144 1.389 . S
C107 C106 1.443 . S
C107 C108 1.340 . S
C107 H147 0.951 . S
C108 C107 1.340 . S
C108 C109 1.439 . S
C108 H148 0.950 . S
C109 C108 1.439 . S
C109 N110 1.374 . S
C109 C143 1.395 . S
N110 C106 1.376 . S
N110 C109 1.374 . S
N110 Co111 2.008 . S
Co111 N110 2.008 . S
Co111 N112 1.995 . S
Co111 N117 2.017 . S
Co111 N122 1.995 . S
Co111 N127 2.282 . S
Co111 N133 2.282 . S
N112 Co111 1.995 . S
N112 C113 1.376 . S
N112 C116 1.383 . S
C113 N112 1.376 . S
C113 C114 1.446 . S
C113 C143 1.391 . S
C114 C113 1.446 . S
C114 C115 1.339 . S
C114 H149 0.949 . S
C115 C114 1.339 . S
C115 C116 1.439 . S
C115 H150 0.950 . S
C116 N112 1.383 . S
C116 C115 1.439 . S
C116 C145 1.392 . S
N117 Co111 2.017 . S
N117 C118 1.374 1_655 S
N117 C121 1.365 1_655 S
C118 N117 1.374 1_455 S
C118 C119 1.443 . S
C118 C145 1.389 1_455 S
C119 C118 1.443 . S
C119 C120 1.340 . S
C119 H151 0.951 . S
C120 C119 1.340 . S
C120 C121 1.439 . S
C120 H152 0.950 . S
C121 N117 1.365 1_455 S
C121 C120 1.439 . S
C121 C146 1.395 . S
N122 Co111 1.995 . S
N122 C123 1.376 1_655 S
N122 C126 1.383 . S
C123 N122 1.376 1_455 S
C123 C124 1.446 . S
C123 C146 1.391 . S
C124 C123 1.446 . S
C124 C125 1.339 1_455 S
C124 H153 0.949 . S
C125 C124 1.339 1_655 S
C125 C126 1.439 . S
C125 H154 0.950 . S
C126 N122 1.383 . S
C126 C125 1.439 . S
C126 C144 1.392 . S
N127 Co111 2.282 . S
N127 C130 1.332 . S
N127 C132 1.332 . S
C128 C129 1.386 . S
C128 C131 1.388 . S
C129 C128 1.386 . S
C129 C130 1.382 . S
C129 H155 0.950 . S
C130 N127 1.332 . S
C130 C129 1.382 . S
C130 H141 0.952 . S
C131 C128 1.388 . S
C131 C132 1.382 . S
C131 H156 0.950 . S
C132 N127 1.332 . S
C132 C131 1.382 . S
C132 H142 0.948 . S
N133 Co111 2.282 . S
N133 C137 1.332 . S
N133 C138 1.332 . S
C134 C135 1.388 . S
C134 C138 1.382 . S
C134 H157 0.950 . S
C135 C134 1.388 . S
C135 C136 1.386 . S
C136 C135 1.386 . S
C136 C137 1.382 . S
C136 H158 0.950 . S
C137 N133 1.332 . S
C137 C136 1.382 . S
C137 H139 0.952 . S
C138 N133 1.332 . S
C138 C134 1.382 . S
C138 H140 0.948 . S
H139 C137 0.952 . S
H140 C138 0.948 . S
H141 C130 0.952 . S
H142 C132 0.948 . S
C143 C109 1.395 . S
C143 C113 1.391 . S
C144 C106 1.389 . S
C144 C126 1.392 . S
C145 C116 1.392 . S
C145 C118 1.389 1_655 S
C146 C121 1.395 . S
C146 C123 1.391 . S
H147 C107 0.951 . S
H148 C108 0.950 . S
H149 C114 0.949 . S
H150 C115 0.950 . S
H151 C119 0.951 . S
H152 C120 0.950 . S
H153 C124 0.949 . S
H154 C125 0.950 . S
H155 C129 0.950 . S
H156 C131 0.950 . S
H157 C134 0.950 . S
H158 C136 0.950 . S
C159 C160 1.443 . S
C159 N163 1.376 . S
C159 C197 1.389 . S
C160 C159 1.443 . S
C160 C161 1.340 . S
C160 H200 0.951 . S
C161 C160 1.340 . S
C161 C162 1.439 . S
C161 H201 0.950 . S
C162 C161 1.439 . S
C162 N163 1.374 . S
C162 C196 1.395 . S
N163 C159 1.376 . S
N163 C162 1.374 . S
N163 Co164 2.008 . S
Co164 N163 2.008 . S
Co164 N165 1.995 . S
Co164 N170 2.017 . S
Co164 N175 1.995 . S
Co164 N180 2.282 . S
Co164 N186 2.282 . S
N165 Co164 1.995 . S
N165 C166 1.376 . S
N165 C169 1.383 . S
C166 N165 1.376 . S
C166 C167 1.446 . S
C166 C196 1.391 . S
C167 C166 1.446 . S
C167 C168 1.339 . S
C167 H202 0.949 . S
C168 C167 1.339 . S
C168 C169 1.439 . S
C168 H203 0.950 . S
C169 N165 1.383 . S
C169 C168 1.439 . S
C169 C198 1.392 . S
N170 Co164 2.017 . S
N170 C171 1.374 1_565 S
N170 C174 1.365 1_565 S
C171 N170 1.374 1_545 S
C171 C172 1.443 . S
C171 C198 1.389 1_545 S
C172 C171 1.443 . S
C172 C173 1.340 . S
C172 H204 0.951 . S
C173 C172 1.340 . S
C173 C174 1.439 . S
C173 H205 0.950 . S
C174 N170 1.365 1_545 S
C174 C173 1.439 . S
C174 C199 1.395 . S
N175 Co164 1.995 . S
N175 C176 1.376 1_565 S
N175 C179 1.383 . S
C176 N175 1.376 1_545 S
C176 C177 1.446 . S
C176 C199 1.391 . S
C177 C176 1.446 . S
C177 C178 1.339 1_545 S
C177 H206 0.949 . S
C178 C177 1.339 1_565 S
C178 C179 1.439 . S
C178 H207 0.950 . S
C179 N175 1.383 . S
C179 C178 1.439 . S
C179 C197 1.392 . S
N180 Co164 2.282 . S
N180 C183 1.332 . S
N180 C185 1.332 . S
C181 C182 1.386 . S
C181 C184 1.388 . S
C182 C181 1.386 . S
C182 C183 1.382 . S
C182 H208 0.950 . S
C183 N180 1.332 . S
C183 C182 1.382 . S
C183 H194 0.952 . S
C184 C181 1.388 . S
C184 C185 1.382 . S
C184 H209 0.950 . S
C185 N180 1.332 . S
C185 C184 1.382 . S
C185 H195 0.948 . S
N186 Co164 2.282 . S
N186 C190 1.332 . S
N186 C191 1.332 . S
C187 C188 1.388 . S
C187 C191 1.382 . S
C187 H210 0.950 . S
C188 C187 1.388 . S
C188 C189 1.386 . S
C189 C188 1.386 . S
C189 C190 1.382 . S
C189 H211 0.950 . S
C190 N186 1.332 . S
C190 C189 1.382 . S
C190 H192 0.952 . S
C191 N186 1.332 . S
C191 C187 1.382 . S
C191 H193 0.948 . S
H192 C190 0.952 . S
H193 C191 0.948 . S
H194 C183 0.952 . S
H195 C185 0.948 . S
C196 C162 1.395 . S
C196 C166 1.391 . S
C197 C159 1.389 . S
C197 C179 1.392 . S
C198 C169 1.392 . S
C198 C171 1.389 1_565 S
C199 C174 1.395 . S
C199 C176 1.391 . S
H200 C160 0.951 . S
H201 C161 0.950 . S
H202 C167 0.949 . S
H203 C168 0.950 . S
H204 C172 0.951 . S
H205 C173 0.950 . S
H206 C177 0.949 . S
H207 C178 0.950 . S
H208 C182 0.950 . S
H209 C184 0.950 . S
H210 C187 0.950 . S
H211 C189 0.950 . S
C212 C213 1.443 . S
C212 N216 1.376 . S
C212 C250 1.389 . S
C213 C212 1.443 . S
C213 C214 1.340 . S
C213 H253 0.951 . S
C214 C213 1.340 . S
C214 C215 1.439 . S
C214 H254 0.950 . S
C215 C214 1.439 . S
C215 N216 1.374 . S
C215 C249 1.395 . S
N216 C212 1.376 . S
N216 C215 1.374 . S
N216 Co217 2.008 . S
Co217 N216 2.008 . S
Co217 N218 1.995 . S
Co217 N223 2.017 . S
Co217 N228 1.995 . S
Co217 N233 2.282 . S
Co217 N239 2.282 . S
N218 Co217 1.995 . S
N218 C219 1.376 . S
N218 C222 1.383 . S
C219 N218 1.376 . S
C219 C220 1.446 . S
C219 C249 1.391 . S
C220 C219 1.446 . S
C220 C221 1.339 . S
C220 H255 0.949 . S
C221 C220 1.339 . S
C221 C222 1.439 . S
C221 H256 0.950 . S
C222 N218 1.383 . S
C222 C221 1.439 . S
C222 C251 1.392 . S
N223 Co217 2.017 . S
N223 C224 1.374 1_455 S
N223 C227 1.365 1_455 S
C224 N223 1.374 1_655 S
C224 C225 1.443 . S
C224 C251 1.389 1_655 S
C225 C224 1.443 . S
C225 C226 1.340 . S
C225 H257 0.951 . S
C226 C225 1.340 . S
C226 C227 1.439 . S
C226 H258 0.950 . S
C227 N223 1.365 1_655 S
C227 C226 1.439 . S
C227 C252 1.395 . S
N228 Co217 1.995 . S
N228 C229 1.376 1_455 S
N228 C232 1.383 . S
C229 N228 1.376 1_655 S
C229 C230 1.446 . S
C229 C252 1.391 . S
C230 C229 1.446 . S
C230 C231 1.339 1_655 S
C230 H259 0.949 . S
C231 C230 1.339 1_455 S
C231 C232 1.439 . S
C231 H260 0.950 . S
C232 N228 1.383 . S
C232 C231 1.439 . S
C232 C250 1.392 . S
N233 Co217 2.282 . S
N233 C236 1.332 . S
N233 C238 1.332 . S
C234 C235 1.386 . S
C234 C237 1.388 . S
C235 C234 1.386 . S
C235 C236 1.382 . S
C235 H261 0.950 . S
C236 N233 1.332 . S
C236 C235 1.382 . S
C236 H247 0.952 . S
C237 C234 1.388 . S
C237 C238 1.382 . S
C237 H262 0.950 . S
C238 N233 1.332 . S
C238 C237 1.382 . S
C238 H248 0.948 . S
N239 Co217 2.282 . S
N239 C243 1.332 . S
N239 C244 1.332 . S
C240 C241 1.388 . S
C240 C244 1.382 . S
C240 H263 0.950 . S
C241 C240 1.388 . S
C241 C242 1.386 . S
C242 C241 1.386 . S
C242 C243 1.382 . S
C242 H264 0.950 . S
C243 N239 1.332 . S
C243 C242 1.382 . S
C243 H245 0.952 . S
C244 N239 1.332 . S
C244 C240 1.382 . S
C244 H246 0.948 . S
H245 C243 0.952 . S
H246 C244 0.948 . S
H247 C236 0.952 . S
H248 C238 0.948 . S
C249 C215 1.395 . S
C249 C219 1.391 . S
C250 C212 1.389 . S
C250 C232 1.392 . S
C251 C222 1.392 . S
C251 C224 1.389 1_455 S
C252 C227 1.395 . S
C252 C229 1.391 . S
H253 C213 0.951 . S
H254 C214 0.950 . S
H255 C220 0.949 . S
H256 C221 0.950 . S
H257 C225 0.951 . S
H258 C226 0.950 . S
H259 C230 0.949 . S
H260 C231 0.950 . S
H261 C235 0.950 . S
H262 C237 0.950 . S
H263 C240 0.950 . S
H264 C242 0.950 . S
C265 C266 1.443 . S
C265 N269 1.376 . S
C265 C303 1.389 . S
C266 C265 1.443 . S
C266 C267 1.340 . S
C266 H306 0.951 . S
C267 C266 1.340 . S
C267 C268 1.439 . S
C267 H307 0.950 . S
C268 C267 1.439 . S
C268 N269 1.374 . S
C268 C302 1.395 . S
N269 C265 1.376 . S
N269 C268 1.374 . S
N269 Co270 2.008 . S
Co270 N269 2.008 . S
Co270 N271 1.995 . S
Co270 N276 2.017 . S
Co270 N281 1.995 . S
Co270 N286 2.282 . S
Co270 N292 2.282 . S
N271 Co270 1.995 . S
N271 C272 1.376 . S
N271 C275 1.383 . S
C272 N271 1.376 . S
C272 C273 1.446 . S
C272 C302 1.391 . S
C273 C272 1.446 . S
C273 C274 1.339 . S
C273 H308 0.949 . S
C274 C273 1.339 . S
C274 C275 1.439 . S
C274 H309 0.950 . S
C275 N271 1.383 . S
C275 C274 1.439 . S
C275 C304 1.392 . S
N276 Co270 2.017 . S
N276 C277 1.374 1_545 S
N276 C280 1.365 1_545 S
C277 N276 1.374 1_565 S
C277 C278 1.443 . S
C277 C304 1.389 1_565 S
C278 C277 1.443 . S
C278 C279 1.340 . S
C278 H310 0.951 . S
C279 C278 1.340 . S
C279 C280 1.439 . S
C279 H311 0.950 . S
C280 N276 1.365 1_565 S
C280 C279 1.439 . S
C280 C305 1.395 . S
N281 Co270 1.995 . S
N281 C282 1.376 1_545 S
N281 C285 1.383 . S
C282 N281 1.376 1_565 S
C282 C283 1.446 . S
C282 C305 1.391 . S
C283 C282 1.446 . S
C283 C284 1.339 1_565 S
C283 H312 0.949 . S
C284 C283 1.339 1_545 S
C284 C285 1.439 . S
C284 H313 0.950 . S
C285 N281 1.383 . S
C285 C284 1.439 . S
C285 C303 1.392 . S
N286 Co270 2.282 . S
N286 C289 1.332 . S
N286 C291 1.332 . S
C287 C288 1.386 . S
C287 C290 1.388 . S
C288 C287 1.386 . S
C288 C289 1.382 . S
C288 H314 0.950 . S
C289 N286 1.332 . S
C289 C288 1.382 . S
C289 H300 0.952 . S
C290 C287 1.388 . S
C290 C291 1.382 . S
C290 H315 0.950 . S
C291 N286 1.332 . S
C291 C290 1.382 . S
C291 H301 0.948 . S
N292 Co270 2.282 . S
N292 C296 1.332 . S
N292 C297 1.332 . S
C293 C294 1.388 . S
C293 C297 1.382 . S
C293 H316 0.950 . S
C294 C293 1.388 . S
C294 C295 1.386 . S
C295 C294 1.386 . S
C295 C296 1.382 . S
C295 H317 0.950 . S
C296 N292 1.332 . S
C296 C295 1.382 . S
C296 H298 0.952 . S
C297 N292 1.332 . S
C297 C293 1.382 . S
C297 H299 0.948 . S
H298 C296 0.952 . S
H299 C297 0.948 . S
H300 C289 0.952 . S
H301 C291 0.948 . S
C302 C268 1.395 . S
C302 C272 1.391 . S
C303 C265 1.389 . S
C303 C285 1.392 . S
C304 C275 1.392 . S
C304 C277 1.389 1_545 S
C305 C280 1.395 . S
C305 C282 1.391 . S
H306 C266 0.951 . S
H307 C267 0.950 . S
H308 C273 0.949 . S
H309 C274 0.950 . S
H310 C278 0.951 . S
H311 C279 0.950 . S
H312 C283 0.949 . S
H313 C284 0.950 . S
H314 C288 0.950 . S
H315 C290 0.950 . S
H316 C293 0.950 . S
H317 C295 0.950 . S
C318 C319 1.443 . S
C318 N322 1.376 . S
C318 C356 1.389 . S
C319 C318 1.443 . S
C319 C320 1.340 . S
C319 H359 0.951 . S
C320 C319 1.340 . S
C320 C321 1.439 . S
C320 H360 0.950 . S
C321 C320 1.439 . S
C321 N322 1.374 . S
C321 C355 1.395 . S
N322 C318 1.376 . S
N322 C321 1.374 . S
N322 Co323 2.008 . S
Co323 N322 2.008 . S
Co323 N324 1.995 . S
Co323 N329 2.017 . S
Co323 N334 1.995 . S
Co323 N339 2.282 . S
Co323 N345 2.282 . S
N324 Co323 1.995 . S
N324 C325 1.376 . S
N324 C328 1.383 . S
C325 N324 1.376 . S
C325 C326 1.446 . S
C325 C355 1.391 . S
C326 C325 1.446 . S
C326 C327 1.339 . S
C326 H361 0.949 . S
C327 C326 1.339 . S
C327 C328 1.439 . S
C327 H362 0.950 . S
C328 N324 1.383 . S
C328 C327 1.439 . S
C328 C357 1.392 . S
N329 Co323 2.017 . S
N329 C330 1.374 1_655 S
N329 C333 1.365 1_655 S
C330 N329 1.374 1_455 S
C330 C331 1.443 . S
C330 C357 1.389 1_455 S
C331 C330 1.443 . S
C331 C332 1.340 . S
C331 H363 0.951 . S
C332 C331 1.340 . S
C332 C333 1.439 . S
C332 H364 0.950 . S
C333 N329 1.365 1_455 S
C333 C332 1.439 . S
C333 C358 1.395 . S
N334 Co323 1.995 . S
N334 C335 1.376 1_655 S
N334 C338 1.383 . S
C335 N334 1.376 1_455 S
C335 C336 1.446 . S
C335 C358 1.391 . S
C336 C335 1.446 . S
C336 C337 1.339 1_455 S
C336 H365 0.949 . S
C337 C336 1.339 1_655 S
C337 C338 1.439 . S
C337 H366 0.950 . S
C338 N334 1.383 . S
C338 C337 1.439 . S
C338 C356 1.392 . S
N339 Co323 2.282 . S
N339 C342 1.332 . S
N339 C344 1.332 . S
C340 C341 1.386 . S
C340 C343 1.388 . S
C341 C340 1.386 . S
C341 C342 1.382 . S
C341 H367 0.950 . S
C342 N339 1.332 . S
C342 C341 1.382 . S
C342 H353 0.952 . S
C343 C340 1.388 . S
C343 C344 1.382 . S
C343 H368 0.950 . S
C344 N339 1.332 . S
C344 C343 1.382 . S
C344 H354 0.948 . S
N345 Co323 2.282 . S
N345 C349 1.332 . S
N345 C350 1.332 . S
C346 C347 1.388 . S
C346 C350 1.382 . S
C346 H369 0.950 . S
C347 C346 1.388 . S
C347 C348 1.386 . S
C348 C347 1.386 . S
C348 C349 1.382 . S
C348 H370 0.950 . S
C349 N345 1.332 . S
C349 C348 1.382 . S
C349 H351 0.952 . S
C350 N345 1.332 . S
C350 C346 1.382 . S
C350 H352 0.948 . S
H351 C349 0.952 . S
H352 C350 0.948 . S
H353 C342 0.952 . S
H354 C344 0.948 . S
C355 C321 1.395 . S
C355 C325 1.391 . S
C356 C318 1.389 . S
C356 C338 1.392 . S
C357 C328 1.392 . S
C357 C330 1.389 1_655 S
C358 C333 1.395 . S
C358 C335 1.391 . S
H359 C319 0.951 . S
H360 C320 0.950 . S
H361 C326 0.949 . S
H362 C327 0.950 . S
H363 C331 0.951 . S
H364 C332 0.950 . S
H365 C336 0.949 . S
H366 C337 0.950 . S
H367 C341 0.950 . S
H368 C343 0.950 . S
H369 C346 0.950 . S
H370 C348 0.950 . S
C371 C372 1.443 . S
C371 N375 1.376 . S
C371 C409 1.389 . S
C372 C371 1.443 . S
C372 C373 1.340 . S
C372 H412 0.951 . S
C373 C372 1.340 . S
C373 C374 1.439 . S
C373 H413 0.950 . S
C374 C373 1.439 . S
C374 N375 1.374 . S
C374 C408 1.395 . S
N375 C371 1.376 . S
N375 C374 1.374 . S
N375 Co376 2.008 . S
Co376 N375 2.008 . S
Co376 N377 1.995 . S
Co376 N382 2.017 . S
Co376 N387 1.995 . S
Co376 N392 2.282 . S
Co376 N398 2.282 . S
N377 Co376 1.995 . S
N377 C378 1.376 . S
N377 C381 1.383 . S
C378 N377 1.376 . S
C378 C379 1.446 . S
C378 C408 1.391 . S
C379 C378 1.446 . S
C379 C380 1.339 . S
C379 H414 0.949 . S
C380 C379 1.339 . S
C380 C381 1.439 . S
C380 H415 0.950 . S
C381 N377 1.383 . S
C381 C380 1.439 . S
C381 C410 1.392 . S
N382 Co376 2.017 . S
N382 C383 1.374 1_565 S
N382 C386 1.365 1_565 S
C383 N382 1.374 1_545 S
C383 C384 1.443 . S
C383 C410 1.389 1_545 S
C384 C383 1.443 . S
C384 C385 1.340 . S
C384 H416 0.951 . S
C385 C384 1.340 . S
C385 C386 1.439 . S
C385 H417 0.950 . S
C386 N382 1.365 1_545 S
C386 C385 1.439 . S
C386 C411 1.395 . S
N387 Co376 1.995 . S
N387 C388 1.376 1_565 S
N387 C391 1.383 . S
C388 N387 1.376 1_545 S
C388 C389 1.446 . S
C388 C411 1.391 . S
C389 C388 1.446 . S
C389 C390 1.339 1_545 S
C389 H418 0.949 . S
C390 C389 1.339 1_565 S
C390 C391 1.439 . S
C390 H419 0.950 . S
C391 N387 1.383 . S
C391 C390 1.439 . S
C391 C409 1.392 . S
N392 Co376 2.282 . S
N392 C395 1.332 . S
N392 C397 1.332 . S
C393 C394 1.386 . S
C393 C396 1.388 . S
C394 C393 1.386 . S
C394 C395 1.382 . S
C394 H420 0.950 . S
C395 N392 1.332 . S
C395 C394 1.382 . S
C395 H406 0.952 . S
C396 C393 1.388 . S
C396 C397 1.382 . S
C396 H421 0.950 . S
C397 N392 1.332 . S
C397 C396 1.382 . S
C397 H407 0.948 . S
N398 Co376 2.282 . S
N398 C402 1.332 . S
N398 C403 1.332 . S
C399 C400 1.388 . S
C399 C403 1.382 . S
C399 H422 0.950 . S
C400 C399 1.388 . S
C400 C401 1.386 . S
C401 C400 1.386 . S
C401 C402 1.382 . S
C401 H423 0.950 . S
C402 N398 1.332 . S
C402 C401 1.382 . S
C402 H404 0.952 . S
C403 N398 1.332 . S
C403 C399 1.382 . S
C403 H405 0.948 . S
H404 C402 0.952 . S
H405 C403 0.948 . S
H406 C395 0.952 . S
H407 C397 0.948 . S
C408 C374 1.395 . S
C408 C378 1.391 . S
C409 C371 1.389 . S
C409 C391 1.392 . S
C410 C381 1.392 . S
C410 C383 1.389 1_565 S
C411 C386 1.395 . S
C411 C388 1.391 . S
H412 C372 0.951 . S
H413 C373 0.950 . S
H414 C379 0.949 . S
H415 C380 0.950 . S
H416 C384 0.951 . S
H417 C385 0.950 . S
H418 C389 0.949 . S
H419 C390 0.950 . S
H420 C394 0.950 . S
H421 C396 0.950 . S
H422 C399 0.950 . S
H423 C401 0.950 . S
C424 C425 1.363 . S
C424 C430 1.393 . S
C424 N432 1.356 . S
C425 C424 1.363 . S
C425 C431 1.349 1_455 S
C426 C427 1.363 . S
C426 C431 1.393 . S
C426 N433 1.356 . S
C427 C426 1.363 . S
C427 C430 1.349 1_655 S
N428 C430 1.352 1_655 S
N428 H440 0.984 1_655 S
N428 H441 0.985 . S
N429 C431 1.352 1_455 S
N429 H434 0.984 . S
N429 H435 0.985 1_455 S
C430 C424 1.393 . S
C430 C427 1.349 1_455 S
C430 N428 1.352 1_455 S
C431 C425 1.349 1_655 S
C431 C426 1.393 . S
C431 N429 1.352 1_655 S
N432 C424 1.356 . S
N432 H438 0.984 . S
N432 H439 0.984 . S
N433 C426 1.356 . S
N433 H436 0.984 . S
N433 H437 0.985 . S
H434 N429 0.984 . S
H435 N429 0.985 1_655 S
H436 N433 0.984 . S
H437 N433 0.985 . S
H438 N432 0.984 . S
H439 N432 0.984 . S
H440 N428 0.984 1_455 S
H441 N428 0.985 . S
C442 C443 1.349 1_545 S
C442 C448 1.393 . S
C442 N450 1.352 1_545 S
C443 C442 1.349 1_565 S
C443 C449 1.363 . S
C444 C445 1.349 1_565 S
C444 C449 1.393 . S
C444 N451 1.352 1_565 S
C445 C444 1.349 1_545 S
C445 C448 1.363 . S
N446 C448 1.356 . S
N446 H458 0.984 . S
N446 H459 0.985 . S
N447 C449 1.356 . S
N447 H452 0.984 . S
N447 H453 0.985 . S
C448 C442 1.393 . S
C448 C445 1.363 . S
C448 N446 1.356 . S
C449 C443 1.363 . S
C449 C444 1.393 . S
C449 N447 1.356 . S
N450 C442 1.352 1_565 S
N450 H456 0.984 1_565 S
N450 H457 0.984 . S
N451 C444 1.352 1_545 S
N451 H454 0.984 . S
N451 H455 0.985 1_545 S
H452 N447 0.984 . S
H453 N447 0.985 . S
H454 N451 0.984 . S
H455 N451 0.985 1_565 S
H456 N450 0.984 1_545 S
H457 N450 0.984 . S
H458 N446 0.984 . S
H459 N446 0.985 . S
C460 C461 1.363 . S
C460 C466 1.392 . S
C460 N468 1.356 . S
C461 C460 1.363 . S
C461 C467 1.349 1_655 S
C462 C463 1.363 . S
C462 C467 1.392 . S
C462 N469 1.356 . S
C463 C462 1.363 . S
C463 C466 1.349 1_455 S
N464 C466 1.352 1_455 S
N464 H476 0.984 1_455 S
N464 H477 0.985 . S
N465 C467 1.352 1_655 S
N465 H470 0.984 . S
N465 H471 0.985 1_655 S
C466 C460 1.392 . S
C466 C463 1.349 1_655 S
C466 N464 1.352 1_655 S
C467 C461 1.349 1_455 S
C467 C462 1.392 . S
C467 N465 1.352 1_455 S
N468 C460 1.356 . S
N468 H474 0.984 . S
N468 H475 0.984 . S
N469 C462 1.356 . S
N469 H472 0.984 . S
N469 H473 0.985 . S
H470 N465 0.984 . S
H471 N465 0.985 1_455 S
H472 N469 0.984 . S
H473 N469 0.985 . S
H474 N468 0.984 . S
H475 N468 0.984 . S
H476 N464 0.984 1_655 S
H477 N464 0.985 . S
C478 C479 1.349 1_565 S
C478 C484 1.393 . S
C478 N486 1.352 1_565 S
C479 C478 1.349 1_545 S
C479 C485 1.363 . S
C480 C481 1.349 1_545 S
C480 C485 1.393 . S
C480 N487 1.352 1_545 S
C481 C480 1.349 1_565 S
C481 C484 1.363 . S
N482 C484 1.356 . S
N482 H494 0.984 . S
N482 H495 0.985 . S
N483 C485 1.356 . S
N483 H488 0.984 . S
N483 H489 0.985 . S
C484 C478 1.393 . S
C484 C481 1.363 . S
C484 N482 1.356 . S
C485 C479 1.363 . S
C485 C480 1.393 . S
C485 N483 1.356 . S
N486 C478 1.352 1_545 S
N486 H492 0.984 1_545 S
N486 H493 0.984 . S
N487 C480 1.352 1_565 S
N487 H490 0.984 . S
N487 H491 0.985 1_565 S
H488 N483 0.984 . S
H489 N483 0.985 . S
H490 N487 0.984 . S
H491 N487 0.985 1_545 S
H492 N486 0.984 1_565 S
H493 N486 0.984 . S
H494 N482 0.984 . S
H495 N482 0.985 . S
C496 C497 1.363 1_455 S
C496 C502 1.379 1_556 S
C496 N504 1.356 . S
C497 C496 1.363 1_655 S
C497 C503 1.363 . S
C498 C499 1.363 1_655 S
C498 C503 1.379 1_554 S
C498 N505 1.356 . S
C499 C498 1.363 1_455 S
C499 C502 1.363 . S
N500 C502 1.356 . S
N500 H512 0.984 . S
N500 H513 0.985 . S
N501 C503 1.356 . S
N501 H506 0.984 . S
N501 H507 0.985 . S
C502 C496 1.379 1_554 S
C502 C499 1.363 . S
C502 N500 1.356 . S
C503 C497 1.363 . S
C503 C498 1.379 1_556 S
C503 N501 1.356 . S
N504 C496 1.356 . S
N504 H510 0.984 . S
N504 H511 0.984 . S
N505 C498 1.356 . S
N505 H508 0.984 . S
N505 H509 0.985 . S
H506 N501 0.984 . S
H507 N501 0.985 . S
H508 N505 0.984 . S
H509 N505 0.985 . S
H510 N504 0.984 . S
H511 N504 0.984 . S
H512 N500 0.984 . S
H513 N500 0.985 . S
C514 C515 1.363 1_565 S
C514 C520 1.379 . S
C514 N522 1.356 . S
C515 C514 1.363 1_545 S
C515 C521 1.363 . S
C516 C517 1.363 1_545 S
C516 C521 1.379 . S
C516 N523 1.356 . S
C517 C516 1.363 1_565 S
C517 C520 1.363 . S
N518 C520 1.356 . S
N518 H530 0.984 . S
N518 H531 0.985 . S
N519 C521 1.356 . S
N519 H524 0.984 . S
N519 H525 0.985 . S
C520 C514 1.379 . S
C520 C517 1.363 . S
C520 N518 1.356 . S
C521 C515 1.363 . S
C521 C516 1.379 . S
C521 N519 1.356 . S
N522 C514 1.356 . S
N522 H528 0.984 . S
N522 H529 0.984 . S
N523 C516 1.356 . S
N523 H526 0.984 . S
N523 H527 0.985 . S
H524 N519 0.984 . S
H525 N519 0.985 . S
H526 N523 0.984 . S
H527 N523 0.985 . S
H528 N522 0.984 . S
H529 N522 0.984 . S
H530 N518 0.984 . S
H531 N518 0.985 . S
C532 C533 1.363 . S
C532 C538 1.379 1_554 S
C532 N540 1.356 . S
C533 C532 1.363 . S
C533 C539 1.363 1_655 S
C534 C535 1.363 . S
C534 C539 1.379 1_556 S
C534 N541 1.356 . S
C535 C534 1.363 . S
C535 C538 1.363 1_455 S
N536 C538 1.356 . S
N536 H548 0.984 . S
N536 H549 0.985 . S
N537 C539 1.356 . S
N537 H542 0.984 . S
N537 H543 0.985 . S
C538 C532 1.379 1_556 S
C538 C535 1.363 1_655 S
C538 N536 1.356 . S
C539 C533 1.363 1_455 S
C539 C534 1.379 1_554 S
C539 N537 1.356 . S
N540 C532 1.356 . S
N540 H546 0.984 . S
N540 H547 0.984 . S
N541 C534 1.356 . S
N541 H544 0.984 . S
N541 H545 0.985 . S
H542 N537 0.984 . S
H543 N537 0.985 . S
H544 N541 0.984 . S
H545 N541 0.985 . S
H546 N540 0.984 . S
H547 N540 0.984 . S
H548 N536 0.984 . S
H549 N536 0.985 . S
C550 C551 1.363 1_565 S
C550 C556 1.379 . S
C550 N558 1.356 . S
C551 C550 1.363 1_545 S
C551 C557 1.363 . S
C552 C553 1.363 1_545 S
C552 C557 1.379 . S
C552 N559 1.356 . S
C553 C552 1.363 1_565 S
C553 C556 1.363 . S
N554 C556 1.356 . S
N554 H566 0.984 . S
N554 H567 0.985 . S
N555 C557 1.356 . S
N555 H560 0.984 . S
N555 H561 0.985 . S
C556 C550 1.379 . S
C556 C553 1.363 . S
C556 N554 1.356 . S
C557 C551 1.363 . S
C557 C552 1.379 . S
C557 N555 1.356 . S
N558 C550 1.356 . S
N558 H564 0.984 . S
N558 H565 0.984 . S
N559 C552 1.356 . S
N559 H562 0.984 . S
N559 H563 0.985 . S
H560 N555 0.984 . S
H561 N555 0.985 . S
H562 N559 0.984 . S
H563 N559 0.985 . S
H564 N558 0.984 . S
H565 N558 0.984 . S
H566 N554 0.984 . S
H567 N554 0.985 . S
C568 C569 1.363 . S
C568 C574 1.379 . S
C568 N576 1.356 . S
C569 C568 1.363 . S
C569 C575 1.363 . S
C570 C571 1.363 . S
C570 C575 1.379 . S
C570 N577 1.356 . S
C571 C570 1.363 . S
C571 C574 1.363 . S
N572 C574 1.356 . S
N572 H584 0.984 . S
N572 H585 0.985 . S
N573 C575 1.356 . S
N573 H578 0.984 . S
N573 H579 0.985 . S
C574 C568 1.379 . S
C574 C571 1.363 . S
C574 N572 1.356 . S
C575 C569 1.363 . S
C575 C570 1.379 . S
C575 N573 1.356 . S
N576 C568 1.356 . S
N576 H582 0.984 . S
N576 H583 0.984 . S
N577 C570 1.356 . S
N577 H580 0.984 . S
N577 H581 0.985 . S
H578 N573 0.984 . S
H579 N573 0.985 . S
H580 N577 0.984 . S
H581 N577 0.985 . S
H582 N576 0.984 . S
H583 N576 0.984 . S
H584 N572 0.984 . S
H585 N572 0.985 . S
C586 C587 1.363 . S
C586 C592 1.379 . S
C586 N594 1.356 . S
C587 C586 1.363 . S
C587 C593 1.363 . S
C588 C589 1.363 . S
C588 C593 1.379 . S
C588 N595 1.356 . S
C589 C588 1.363 . S
C589 C592 1.363 . S
N590 C592 1.356 . S
N590 H602 0.984 . S
N590 H603 0.985 . S
N591 C593 1.356 . S
N591 H596 0.984 . S
N591 H597 0.985 . S
C592 C586 1.379 . S
C592 C589 1.363 . S
C592 N590 1.356 . S
C593 C587 1.363 . S
C593 C588 1.379 . S
C593 N591 1.356 . S
N594 C586 1.356 . S
N594 H600 0.984 . S
N594 H601 0.984 . S
N595 C588 1.356 . S
N595 H598 0.984 . S
N595 H599 0.985 . S
H596 N591 0.984 . S
H597 N591 0.985 . S
H598 N595 0.984 . S
H599 N595 0.985 . S
H600 N594 0.984 . S
H601 N594 0.984 . S
H602 N590 0.984 . S
H603 N590 0.985 . S
C604 C605 1.363 . S
C604 C610 1.379 . S
C604 N612 1.356 . S
C605 C604 1.363 . S
C605 C611 1.363 . S
C606 C607 1.363 . S
C606 C611 1.379 . S
C606 N613 1.356 . S
C607 C606 1.363 . S
C607 C610 1.363 . S
N608 C610 1.356 . S
N608 H620 0.984 . S
N608 H621 0.985 . S
N609 C611 1.356 . S
N609 H614 0.984 . S
N609 H615 0.985 . S
C610 C604 1.379 . S
C610 C607 1.363 . S
C610 N608 1.356 . S
C611 C605 1.363 . S
C611 C606 1.379 . S
C611 N609 1.356 . S
N612 C604 1.356 . S
N612 H618 0.984 . S
N612 H619 0.984 . S
N613 C606 1.356 . S
N613 H616 0.984 . S
N613 H617 0.985 . S
H614 N609 0.984 . S
H615 N609 0.985 . S
H616 N613 0.984 . S
H617 N613 0.985 . S
H618 N612 0.984 . S
H619 N612 0.984 . S
H620 N608 0.984 . S
H621 N608 0.985 . S
C622 C623 1.363 . S
C622 C628 1.379 . S
C622 N630 1.356 . S
C623 C622 1.363 . S
C623 C629 1.363 . S
C624 C625 1.363 . S
C624 C629 1.379 . S
C624 N631 1.356 . S
C625 C624 1.363 . S
C625 C628 1.363 . S
N626 C628 1.356 . S
N626 H638 0.984 . S
N626 H639 0.985 . S
N627 C629 1.356 . S
N627 H632 0.984 . S
N627 H633 0.985 . S
C628 C622 1.379 . S
C628 C625 1.363 . S
C628 N626 1.356 . S
C629 C623 1.363 . S
C629 C624 1.379 . S
C629 N627 1.356 . S
N630 C622 1.356 . S
N630 H636 0.984 . S
N630 H637 0.984 . S
N631 C624 1.356 . S
N631 H634 0.984 . S
N631 H635 0.985 . S
H632 N627 0.984 . S
H633 N627 0.985 . S
H634 N631 0.984 . S
H635 N631 0.985 . S
H636 N630 0.984 . S
H637 N630 0.984 . S
H638 N626 0.984 . S
H639 N626 0.985 . S
C640 C641 1.366 . S
C640 C646 1.363 1_445 S
C640 N648 1.357 . S
C641 C640 1.366 . S
C641 C647 1.376 . S
C642 C643 1.366 . S
C642 C647 1.363 1_665 S
C642 N649 1.357 . S
C643 C642 1.366 . S
C643 C646 1.376 . S
N644 C646 1.361 . S
N644 H656 0.984 1_655 S
N644 H657 0.985 . S
N645 C647 1.361 . S
N645 H650 0.984 . S
N645 H651 0.985 1_455 S
C646 C640 1.363 1_665 S
C646 C643 1.376 . S
C646 N644 1.361 . S
C647 C641 1.376 . S
C647 C642 1.363 1_445 S
C647 N645 1.361 . S
N648 C640 1.357 . S
N648 H654 0.984 1_545 S
N648 H655 0.984 . S
N649 C642 1.357 . S
N649 H652 0.984 . S
N649 H653 0.985 1_565 S
H650 N645 0.984 . S
H651 N645 0.985 1_655 S
H652 N649 0.984 . S
H653 N649 0.985 1_545 S
H654 N648 0.984 1_565 S
H655 N648 0.984 . S
H656 N644 0.984 1_455 S
H657 N644 0.985 . S
C658 C659 1.376 . S
C658 C664 1.363 1_465 S
C658 N666 1.361 . S
C659 C658 1.376 . S
C659 C665 1.366 . S
C660 C661 1.376 . S
C660 C665 1.363 1_645 S
C660 N667 1.361 . S
C661 C660 1.376 . S
C661 C664 1.366 . S
N662 C664 1.357 . S
N662 H674 0.984 1_655 S
N662 H675 0.985 . S
N663 C665 1.357 . S
N663 H668 0.984 . S
N663 H669 0.985 1_455 S
C664 C658 1.363 1_645 S
C664 C661 1.366 . S
C664 N662 1.357 . S
C665 C659 1.366 . S
C665 C660 1.363 1_465 S
C665 N663 1.357 . S
N666 C658 1.361 . S
N666 H672 0.984 1_565 S
N666 H673 0.984 . S
N667 C660 1.361 . S
N667 H670 0.984 . S
N667 H671 0.985 1_545 S
H668 N663 0.984 . S
H669 N663 0.985 1_655 S
H670 N667 0.984 . S
H671 N667 0.985 1_565 S
H672 N666 0.984 1_545 S
H673 N666 0.984 . S
H674 N662 0.984 1_455 S
H675 N662 0.985 . S
C676 C677 1.366 . S
C676 C682 1.363 1_645 S
C676 N684 1.357 . S
C677 C676 1.366 . S
C677 C683 1.376 . S
C678 C679 1.366 . S
C678 C683 1.363 1_465 S
C678 N685 1.357 . S
C679 C678 1.366 . S
C679 C682 1.376 . S
N680 C682 1.361 . S
N680 H692 0.984 1_455 S
N680 H693 0.985 . S
N681 C683 1.361 . S
N681 H686 0.984 . S
N681 H687 0.985 1_655 S
C682 C676 1.363 1_465 S
C682 C679 1.376 . S
C682 N680 1.361 . S
C683 C677 1.376 . S
C683 C678 1.363 1_645 S
C683 N681 1.361 . S
N684 C676 1.357 . S
N684 H690 0.984 1_545 S
N684 H691 0.984 . S
N685 C678 1.357 . S
N685 H688 0.984 . S
N685 H689 0.985 1_565 S
H686 N681 0.984 . S
H687 N681 0.985 1_455 S
H688 N685 0.984 . S
H689 N685 0.985 1_545 S
H690 N684 0.984 1_565 S
H691 N684 0.984 . S
H692 N680 0.984 1_655 S
H693 N680 0.985 . S
C694 C695 1.376 . S
C694 C700 1.363 1_665 S
C694 N702 1.361 . S
C695 C694 1.376 . S
C695 C701 1.366 . S
C696 C697 1.376 . S
C696 C701 1.363 1_445 S
C696 N703 1.361 . S
C697 C696 1.376 . S
C697 C700 1.366 . S
N698 C700 1.357 . S
N698 H710 0.984 1_455 S
N698 H711 0.985 . S
N699 C701 1.357 . S
N699 H704 0.984 . S
N699 H705 0.985 1_655 S
C700 C694 1.363 1_445 S
C700 C697 1.366 . S
C700 N698 1.357 . S
C701 C695 1.366 . S
C701 C696 1.363 1_665 S
C701 N699 1.357 . S
N702 C694 1.361 . S
N702 H708 0.984 1_565 S
N702 H709 0.984 . S
N703 C696 1.361 . S
N703 H706 0.984 . S
N703 H707 0.985 1_545 S
H704 N699 0.984 . S
H705 N699 0.985 1_455 S
H706 N703 0.984 . S
H707 N703 0.985 1_565 S
H708 N702 0.984 1_545 S
H709 N702 0.984 . S
H710 N698 0.984 1_655 S
H711 N698 0.985 . S
C425 C22 1.963 . S
C427 C128 1.963 . S
C443 C181 1.963 . S
C445 C75 1.963 . S
C461 C340 1.963 . S
C463 C234 1.963 . S
C479 C287 1.963 . S
C481 C393 1.963 . S
C497 C357 1.773 . S
C499 C39 1.773 . S
C515 C92 1.773 . S
C517 C410 1.773 . S
C533 C145 1.773 . S
C535 C251 1.773 . S
C551 C304 1.773 . S
C553 C198 1.773 . S
C569 C38 1.872 . S
C571 C303 1.872 . S
C587 C356 1.872 . S
C589 C91 1.872 . S
C605 C409 1.872 . S
C607 C144 1.872 . S
C623 C197 1.872 . S
C625 C250 1.872 . S
C641 C29 1.792 . S
C643 C135 1.792 . S
C659 C188 1.792 . S
C661 C82 1.792 . S
C677 C347 1.792 . S
C679 C241 1.792 . S
C695 C400 1.792 . S
C697 C294 1.792 . S
