# Generated by pormake.
# Topology unu, (4)-cn, num edge types: 1
# Building blocks:
#     Node 0, Type 0, BuildingBlock: AZAVOO_clean_sbu_0, # of connection points: 4
#     Node 1, Type 0, BuildingBlock: AZAVOO_clean_sbu_0, # of connection points: 4
#     Node 2, Type 0, BuildingBlock: AZAVOO_clean_sbu_0, # of connection points: 4
#     Node 3, Type 0, BuildingBlock: AZAVOO_clean_sbu_0, # of connection points: 4
#     Node 4, Type 0, BuildingBlock: AZAVOO_clean_sbu_0, # of connection points: 4
#     Node 5, Type 0, BuildingBlock: AZAVOO_clean_sbu_0, # of connection points: 4
#     Node 6, Type 0, BuildingBlock: AZAVOO_clean_sbu_0, # of connection points: 4
#     Node 7, Type 0, BuildingBlock: AZAVOO_clean_sbu_0, # of connection points: 4
#     Node 8, Type 0, BuildingBlock: AZAVOO_clean_sbu_0, # of connection points: 4
#     Node 9, Type 0, BuildingBlock: AZAVOO_clean_sbu_0, # of connection points: 4
#     Node 10, Type 0, BuildingBlock: AZAVOO_clean_sbu_0, # of connection points: 4
#     Node 11, Type 0, BuildingBlock: AZAVOO_clean_sbu_0, # of connection points: 4
#     Node 12, Type 0, BuildingBlock: AZAVOO_clean_sbu_0, # of connection points: 4
#     Node 13, Type 0, BuildingBlock: AZAVOO_clean_sbu_0, # of connection points: 4
#     Node 14, Type 0, BuildingBlock: AZAVOO_clean_sbu_0, # of connection points: 4
#     Node 15, Type 0, BuildingBlock: AZAVOO_clean_sbu_0, # of connection points: 4
#     Node 16, Type 0, BuildingBlock: AZAVOO_clean_sbu_0, # of connection points: 4
#     Node 17, Type 0, BuildingBlock: AZAVOO_clean_sbu_0, # of connection points: 4
#     Node 18, Type 0, BuildingBlock: AZAVOO_clean_sbu_0, # of connection points: 4
#     Node 19, Type 0, BuildingBlock: AZAVOO_clean_sbu_0, # of connection points: 4
#     Node 20, Type 0, BuildingBlock: AZAVOO_clean_sbu_0, # of connection points: 4
#     Node 21, Type 0, BuildingBlock: AZAVOO_clean_sbu_0, # of connection points: 4
#     Node 22, Type 0, BuildingBlock: AZAVOO_clean_sbu_0, # of connection points: 4
#     Node 23, Type 0, BuildingBlock: AZAVOO_clean_sbu_0, # of connection points: 4
#     Node 24, Type 0, BuildingBlock: AZAVOO_clean_sbu_0, # of connection points: 4
#     Node 25, Type 0, BuildingBlock: AZAVOO_clean_sbu_0, # of connection points: 4
#     Node 26, Type 0, BuildingBlock: AZAVOO_clean_sbu_0, # of connection points: 4
#     Node 27, Type 0, BuildingBlock: AZAVOO_clean_sbu_0, # of connection points: 4
#     Node 28, Type 0, BuildingBlock: AZAVOO_clean_sbu_0, # of connection points: 4
#     Node 29, Type 0, BuildingBlock: AZAVOO_clean_sbu_0, # of connection points: 4
#     Node 30, Type 0, BuildingBlock: AZAVOO_clean_sbu_0, # of connection points: 4
#     Node 31, Type 0, BuildingBlock: AZAVOO_clean_sbu_0, # of connection points: 4
#     Node 32, Type 0, BuildingBlock: AZAVOO_clean_sbu_0, # of connection points: 4
#     Node 33, Type 0, BuildingBlock: AZAVOO_clean_sbu_0, # of connection points: 4
#     Node 34, Type 0, BuildingBlock: AZAVOO_clean_sbu_0, # of connection points: 4
#     Node 35, Type 0, BuildingBlock: AZAVOO_clean_sbu_0, # of connection points: 4
#     Edge 36, Type (0, 0), BuildingBlock: XIVTED_clean_linker_0, # of connection points: 2
#     Edge 37, Type (0, 0), BuildingBlock: XIVTED_clean_linker_0, # of connection points: 2
#     Edge 38, Type (0, 0), BuildingBlock: XIVTED_clean_linker_0, # of connection points: 2
#     Edge 39, Type (0, 0), BuildingBlock: XIVTED_clean_linker_0, # of connection points: 2
#     Edge 40, Type (0, 0), BuildingBlock: XIVTED_clean_linker_0, # of connection points: 2
#     Edge 41, Type (0, 0), BuildingBlock: XIVTED_clean_linker_0, # of connection points: 2
#     Edge 42, Type (0, 0), BuildingBlock: XIVTED_clean_linker_0, # of connection points: 2
#     Edge 43, Type (0, 0), BuildingBlock: XIVTED_clean_linker_0, # of connection points: 2
#     Edge 44, Type (0, 0), BuildingBlock: XIVTED_clean_linker_0, # of connection points: 2
#     Edge 45, Type (0, 0), BuildingBlock: XIVTED_clean_linker_0, # of connection points: 2
#     Edge 46, Type (0, 0), BuildingBlock: XIVTED_clean_linker_0, # of connection points: 2
#     Edge 47, Type (0, 0), BuildingBlock: XIVTED_clean_linker_0, # of connection points: 2
#     Edge 48, Type (0, 0), BuildingBlock: XIVTED_clean_linker_0, # of connection points: 2
#     Edge 49, Type (0, 0), BuildingBlock: XIVTED_clean_linker_0, # of connection points: 2
#     Edge 50, Type (0, 0), BuildingBlock: XIVTED_clean_linker_0, # of connection points: 2
#     Edge 51, Type (0, 0), BuildingBlock: XIVTED_clean_linker_0, # of connection points: 2
#     Edge 52, Type (0, 0), BuildingBlock: XIVTED_clean_linker_0, # of connection points: 2
#     Edge 53, Type (0, 0), BuildingBlock: XIVTED_clean_linker_0, # of connection points: 2
#     Edge 54, Type (0, 0), BuildingBlock: XIVTED_clean_linker_0, # of connection points: 2
#     Edge 55, Type (0, 0), BuildingBlock: XIVTED_clean_linker_0, # of connection points: 2
#     Edge 56, Type (0, 0), BuildingBlock: XIVTED_clean_linker_0, # of connection points: 2
#     Edge 57, Type (0, 0), BuildingBlock: XIVTED_clean_linker_0, # of connection points: 2
#     Edge 58, Type (0, 0), BuildingBlock: XIVTED_clean_linker_0, # of connection points: 2
#     Edge 59, Type (0, 0), BuildingBlock: XIVTED_clean_linker_0, # of connection points: 2
#     Edge 60, Type (0, 0), BuildingBlock: XIVTED_clean_linker_0, # of connection points: 2
#     Edge 61, Type (0, 0), BuildingBlock: XIVTED_clean_linker_0, # of connection points: 2
#     Edge 62, Type (0, 0), BuildingBlock: XIVTED_clean_linker_0, # of connection points: 2
#     Edge 63, Type (0, 0), BuildingBlock: XIVTED_clean_linker_0, # of connection points: 2
#     Edge 64, Type (0, 0), BuildingBlock: XIVTED_clean_linker_0, # of connection points: 2
#     Edge 65, Type (0, 0), BuildingBlock: XIVTED_clean_linker_0, # of connection points: 2
#     Edge 66, Type (0, 0), BuildingBlock: XIVTED_clean_linker_0, # of connection points: 2
#     Edge 67, Type (0, 0), BuildingBlock: XIVTED_clean_linker_0, # of connection points: 2
#     Edge 68, Type (0, 0), BuildingBlock: XIVTED_clean_linker_0, # of connection points: 2
#     Edge 69, Type (0, 0), BuildingBlock: XIVTED_clean_linker_0, # of connection points: 2
#     Edge 70, Type (0, 0), BuildingBlock: XIVTED_clean_linker_0, # of connection points: 2
#     Edge 71, Type (0, 0), BuildingBlock: XIVTED_clean_linker_0, # of connection points: 2
#     Edge 72, Type (0, 0), BuildingBlock: XIVTED_clean_linker_0, # of connection points: 2
#     Edge 73, Type (0, 0), BuildingBlock: XIVTED_clean_linker_0, # of connection points: 2
#     Edge 74, Type (0, 0), BuildingBlock: XIVTED_clean_linker_0, # of connection points: 2
#     Edge 75, Type (0, 0), BuildingBlock: XIVTED_clean_linker_0, # of connection points: 2
#     Edge 76, Type (0, 0), BuildingBlock: XIVTED_clean_linker_0, # of connection points: 2
#     Edge 77, Type (0, 0), BuildingBlock: XIVTED_clean_linker_0, # of connection points: 2
#     Edge 78, Type (0, 0), BuildingBlock: XIVTED_clean_linker_0, # of connection points: 2
#     Edge 79, Type (0, 0), BuildingBlock: XIVTED_clean_linker_0, # of connection points: 2
#     Edge 80, Type (0, 0), BuildingBlock: XIVTED_clean_linker_0, # of connection points: 2
#     Edge 81, Type (0, 0), BuildingBlock: XIVTED_clean_linker_0, # of connection points: 2
#     Edge 82, Type (0, 0), BuildingBlock: XIVTED_clean_linker_0, # of connection points: 2
#     Edge 83, Type (0, 0), BuildingBlock: XIVTED_clean_linker_0, # of connection points: 2
#     Edge 84, Type (0, 0), BuildingBlock: XIVTED_clean_linker_0, # of connection points: 2
#     Edge 85, Type (0, 0), BuildingBlock: XIVTED_clean_linker_0, # of connection points: 2
#     Edge 86, Type (0, 0), BuildingBlock: XIVTED_clean_linker_0, # of connection points: 2
#     Edge 87, Type (0, 0), BuildingBlock: XIVTED_clean_linker_0, # of connection points: 2
#     Edge 88, Type (0, 0), BuildingBlock: XIVTED_clean_linker_0, # of connection points: 2
#     Edge 89, Type (0, 0), BuildingBlock: XIVTED_clean_linker_0, # of connection points: 2
#     Edge 90, Type (0, 0), BuildingBlock: XIVTED_clean_linker_0, # of connection points: 2
#     Edge 91, Type (0, 0), BuildingBlock: XIVTED_clean_linker_0, # of connection points: 2
#     Edge 92, Type (0, 0), BuildingBlock: XIVTED_clean_linker_0, # of connection points: 2
#     Edge 93, Type (0, 0), BuildingBlock: XIVTED_clean_linker_0, # of connection points: 2
#     Edge 94, Type (0, 0), BuildingBlock: XIVTED_clean_linker_0, # of connection points: 2
#     Edge 95, Type (0, 0), BuildingBlock: XIVTED_clean_linker_0, # of connection points: 2
#     Edge 96, Type (0, 0), BuildingBlock: XIVTED_clean_linker_0, # of connection points: 2
#     Edge 97, Type (0, 0), BuildingBlock: XIVTED_clean_linker_0, # of connection points: 2
#     Edge 98, Type (0, 0), BuildingBlock: XIVTED_clean_linker_0, # of connection points: 2
#     Edge 99, Type (0, 0), BuildingBlock: XIVTED_clean_linker_0, # of connection points: 2
#     Edge 100, Type (0, 0), BuildingBlock: XIVTED_clean_linker_0, # of connection points: 2
#     Edge 101, Type (0, 0), BuildingBlock: XIVTED_clean_linker_0, # of connection points: 2
#     Edge 102, Type (0, 0), BuildingBlock: XIVTED_clean_linker_0, # of connection points: 2
#     Edge 103, Type (0, 0), BuildingBlock: XIVTED_clean_linker_0, # of connection points: 2
#     Edge 104, Type (0, 0), BuildingBlock: XIVTED_clean_linker_0, # of connection points: 2
#     Edge 105, Type (0, 0), BuildingBlock: XIVTED_clean_linker_0, # of connection points: 2
#     Edge 106, Type (0, 0), BuildingBlock: XIVTED_clean_linker_0, # of connection points: 2
#     Edge 107, Type (0, 0), BuildingBlock: XIVTED_clean_linker_0, # of connection points: 2
# Relax obj value: 0.298
# Max RMSD: 0.277
# Mean RMSD: 0.277
data_MOF--net-unu--node1-AZAVOO_clean_sbu_0--edge1-XIVTED_clean_linker_0
_symmetry_space_group_name_H-M    P1
_symmetry_Int_Tables_number       1
_symmetry_cell_setting            triclinic
loop_
_symmetry_equiv_pos_as_xyz
'x, y, z'
_cell_length_a     38.008578
_cell_length_b     38.011974
_cell_length_c     141.02692
_cell_angle_alpha  89.999243
_cell_angle_beta   89.978261
_cell_angle_gamma 119.99382
loop_
_atom_site_label
_atom_site_type_symbol
_atom_site_fract_x
_atom_site_fract_y
_atom_site_fract_z
_atom_type_partial_charge
Mg0 Mg 0.22606 0.99487 0.12298 0.0
O1 O 0.20026 0.03664 0.11974 0.0
O2 O 0.16343 0.01652 0.10647 0.0
Mg3 Mg 0.16633 0.96164 0.10105 0.0
C4 C 0.17808 0.04051 0.11353 0.0
C5 C 0.24891 0.05071 0.14021 0.0
O6 O 0.20903 0.03185 0.14028 0.0
O7 O 0.27387 0.02531 0.11136 0.0
O8 O 0.23455 0.00261 0.09847 0.0
O9 O 0.16957 0.95391 0.1309 0.0
O10 O 0.17758 0.94776 0.11559 0.0
C11 C 0.26934 0.02351 0.10237 0.0
C12 C 0.15396 0.93668 0.12288 0.0
O13 O 0.26679 0.04135 0.13392 0.0
Mg14 Mg 0.00039 0.23221 0.12306 0.0
O15 O 0.95861 0.16463 0.11982 0.0
O16 O 0.97892 0.14778 0.10659 0.0
Mg17 Mg 0.03377 0.20557 0.10118 0.0
C18 C 0.95484 0.13851 0.11363 0.0
C19 C 0.94373 0.19893 0.14014 0.0
O20 O 0.96284 0.17814 0.1403 0.0
O21 O 0.97034 0.24972 0.11141 0.0
O22 O 0.99266 0.23265 0.09852 0.0
O23 O 0.04102 0.21654 0.13105 0.0
O24 O 0.04759 0.23068 0.11573 0.0
C25 C 0.97191 0.24669 0.10243 0.0
C26 C 0.05837 0.21801 0.12305 0.0
O27 O 0.95346 0.22637 0.13389 0.0
Mg28 Mg 0.76223 0.76895 0.12332 0.0
O29 O 0.82999 0.79422 0.12037 0.0
O30 O 0.84802 0.83167 0.10717 0.0
Mg31 Mg 0.79092 0.82934 0.10148 0.0
C32 C 0.85661 0.81655 0.11426 0.0
C33 C 0.79356 0.74419 0.14058 0.0
O34 O 0.81521 0.78403 0.14082 0.0
O35 O 0.74535 0.72153 0.11166 0.0
O36 O 0.76384 0.76119 0.0988 0.0
O37 O 0.77782 0.8253 0.1313 0.0
O38 O 0.76477 0.81795 0.11593 0.0
C39 C 0.74929 0.72632 0.10269 0.0
C40 C 0.77705 0.84132 0.12326 0.0
O41 O 0.76649 0.72723 0.13422 0.0
Mg42 Mg 0.97692 0.22207 0.36605 0.0
O43 O 0.01649 0.19357 0.36904 0.0
O44 O 0.98963 0.14776 0.38067 0.0
Mg45 Mg 0.93747 0.1543 0.38661 0.0
C46 C 0.01642 0.16629 0.3743 0.0
C47 C 0.03699 0.24825 0.34963 0.0
O48 O 0.01686 0.20845 0.34895 0.0
O49 O 0.00595 0.26515 0.37852 0.0
O50 O 0.98157 0.22091 0.39054 0.0
O51 O 0.93661 0.16835 0.35713 0.0
O52 O 0.92721 0.1723 0.37247 0.0
C53 C 0.00357 0.25698 0.38736 0.0
C54 C 0.9175 0.15075 0.36485 0.0
O55 O 0.02678 0.26513 0.356 0.0
Mg56 Mg 0.76919 0.76187 0.36719 0.0
O57 O 0.79183 0.82956 0.36949 0.0
O58 O 0.82961 0.8511 0.3826 0.0
Mg59 Mg 0.83115 0.79659 0.38877 0.0
C60 C 0.81341 0.85753 0.37539 0.0
C61 C 0.7423 0.7888 0.34965 0.0
O62 O 0.78212 0.81046 0.34927 0.0
O63 O 0.72232 0.74484 0.37901 0.0
O64 O 0.7629 0.76649 0.39171 0.0
O65 O 0.82549 0.77832 0.3591 0.0
O66 O 0.81982 0.76803 0.37459 0.0
C67 C 0.72763 0.74992 0.38795 0.0
C68 C 0.84256 0.77977 0.36714 0.0
O69 O 0.72578 0.76271 0.35624 0.0
Mg70 Mg 0.23064 0.01449 0.36337 0.0
O71 O 0.16469 0.97173 0.36781 0.0
O72 O 0.14785 -0.00228 0.38003 0.0
Mg73 Mg 0.20536 0.05626 0.38402 0.0
C74 C 0.13888 0.97004 0.37384 0.0
C75 C 0.19619 0.94973 0.34798 0.0
O76 O 0.17336 0.9666 0.34748 0.0
O77 O 0.25308 0.99271 0.37582 0.0
O78 O 0.23485 0.01824 0.38791 0.0
O79 O 0.20808 0.04663 0.35435 0.0
O80 O 0.22733 0.06341 0.36927 0.0
C81 C 0.25022 -0.00252 0.38469 0.0
C82 C 0.20985 0.06717 0.36182 0.0
O83 O 0.22529 0.96356 0.3539 0.0
Mg84 Mg 0.76985 0.00926 0.86549 0.0
O85 O 0.79419 0.9662 0.86869 0.0
O86 O 0.83132 0.98562 0.88193 0.0
Mg87 Mg 0.82945 0.04089 0.88744 0.0
C88 C 0.81615 0.96174 0.87487 0.0
C89 C 0.74507 0.9525 0.84835 0.0
O90 O 0.78491 0.97048 0.84815 0.0
O91 O 0.72195 0.97957 0.87709 0.0
O92 O 0.76111 0.00037 0.89003 0.0
O93 O 0.82669 0.04913 0.85757 0.0
O94 O 0.81894 0.05554 0.8729 0.0
C95 C 0.72637 0.98038 0.88607 0.0
C96 C 0.84258 0.066 0.86561 0.0
O97 O 0.72815 0.96309 0.85463 0.0
Mg98 Mg 0.9877 0.76336 0.86685 0.0
O99 O 0.03108 0.83083 0.86988 0.0
O100 O 0.01224 0.84926 0.8831 0.0
Mg101 Mg 0.95676 0.79262 0.88873 0.0
C102 C 0.03591 0.85754 0.876 0.0
C103 C 0.04305 0.79439 0.84953 0.0
O104 O 0.02485 0.81604 0.84944 0.0
O105 O 0.01744 0.74538 0.87848 0.0
O106 O -0.00333 0.76418 0.89137 0.0
O107 O 0.94761 0.77995 0.85891 0.0
O108 O 0.94167 0.76665 0.87428 0.0
C109 C 0.0165 0.74911 0.88746 0.0
C110 C 0.93089 0.7793 0.86696 0.0
O111 O 0.03333 0.76728 0.85587 0.0
Mg112 Mg 0.23302 0.22638 0.8673 0.0
O113 O 0.16518 0.20101 0.87015 0.0
O114 O 0.1468 0.16384 0.88339 0.0
Mg115 Mg 0.20385 0.16641 0.8892 0.0
C116 C 0.13838 0.1788 0.87623 0.0
C117 C 0.20179 0.25035 0.84994 0.0
O118 O 0.18063 0.21048 0.84975 0.0
O119 O 0.24945 0.27397 0.87888 0.0
O120 O 0.23074 0.23461 0.8918 0.0
O121 O 0.2178 0.16994 0.85941 0.0
O122 O 0.23048 0.17763 0.8748 0.0
C123 C 0.24531 0.26939 0.88786 0.0
C124 C 0.21842 0.15411 0.86749 0.0
O125 O 0.22874 0.26774 0.85631 0.0
Mg126 Mg 0.00796 0.7723 0.62407 0.0
O127 O 0.96403 0.79566 0.62097 0.0
O128 O 0.98225 0.83219 0.60764 0.0
Mg129 Mg 0.03778 0.83113 0.60199 0.0
C130 C 0.95881 0.81707 0.61478 0.0
C131 C 0.95254 0.74785 0.64145 0.0
O132 O 0.97025 0.78767 0.64155 0.0
O133 O 0.97813 0.72383 0.61259 0.0
O134 O -0.0019 0.7626 0.59957 0.0
O135 O 0.04786 0.82966 0.63181 0.0
O136 O 0.05346 0.82131 0.61648 0.0
C137 C 0.97864 0.72793 0.6036 0.0
C138 C 0.06422 0.84526 0.62371 0.0
O139 O 0.96276 0.73079 0.63513 0.0
Mg140 Mg 0.21973 0.23567 0.6227 0.0
O141 O 0.19599 0.16807 0.61996 0.0
O142 O 0.15862 0.14841 0.60677 0.0
Mg143 Mg 0.15957 0.20454 0.60084 0.0
C144 C 0.17414 0.14081 0.61394 0.0
C145 C 0.24518 0.20594 0.6401 0.0
O146 O 0.20535 0.18411 0.64037 0.0
O147 O 0.2674 0.25302 0.61108 0.0
O148 O 0.22794 0.23292 0.59818 0.0
O149 O 0.1629 0.21909 0.63059 0.0
O150 O 0.17029 0.23152 0.61519 0.0
C151 C 0.26282 0.24848 0.60212 0.0
C152 C 0.1468 0.21904 0.6225 0.0
O153 O 0.26194 0.23284 0.63369 0.0
Mg154 Mg 0.75626 0.9837 0.62288 0.0
O155 O 0.82382 0.02708 0.61995 0.0
O156 O 0.8427 0.00835 0.60678 0.0
Mg157 Mg 0.78615 0.95298 0.60107 0.0
C158 C 0.85075 0.03195 0.61388 0.0
C159 C 0.78692 0.03952 0.64013 0.0
O160 O 0.8086 0.02136 0.64035 0.0
O161 O 0.73879 0.01365 0.6112 0.0
O162 O 0.75802 0.99313 0.59834 0.0
O163 O 0.77272 0.94365 0.63088 0.0
O164 O 0.7598 0.93776 0.6155 0.0
C165 C 0.74287 0.01293 0.60223 0.0
C166 C 0.7724 0.92705 0.62284 0.0
O167 O 0.75982 0.0294 0.63377 0.0
Mg168 Mg 0.8848 0.31338 0.45919 0.0
O169 O 0.86277 0.35817 0.45581 0.0
O170 O 0.82562 0.33953 0.44258 0.0
Mg171 Mg 0.82495 0.28269 0.43727 0.0
C172 C 0.84151 0.3635 0.4496 0.0
C173 C 0.91036 0.37033 0.47621 0.0
O174 O 0.87053 0.35244 0.47639 0.0
O175 O 0.93296 0.34091 0.44756 0.0
O176 O 0.89349 0.32058 0.43466 0.0
O177 O 0.82749 0.27534 0.46713 0.0
O178 O 0.83477 0.2678 0.45185 0.0
C179 C 0.92842 0.33959 0.43858 0.0
C180 C 0.81121 0.25841 0.45913 0.0
O181 O 0.92727 0.35949 0.46999 0.0
Mg182 Mg 0.68232 0.57242 0.45857 0.0
O183 O 0.63846 0.50512 0.45551 0.0
O184 O 0.6575 0.48618 0.4424 0.0
Mg185 Mg 0.71367 0.54247 0.43687 0.0
C186 C 0.63356 0.47825 0.44942 0.0
C187 C 0.62469 0.54164 0.47555 0.0
O188 O 0.64246 0.51961 0.47594 0.0
O189 O 0.65353 0.59069 0.44678 0.0
O190 O 0.67417 0.57122 0.43399 0.0
O191 O 0.72119 0.55487 0.46672 0.0
O192 O 0.7283 0.56825 0.45136 0.0
C193 C 0.65452 0.58665 0.43782 0.0
C194 C 0.73811 0.55503 0.45874 0.0
O195 O 0.63596 0.56912 0.46924 0.0
Mg196 Mg 0.42256 0.11054 0.45759 0.0
O197 O 0.48998 0.13412 0.45463 0.0
O198 O 0.51 0.17406 0.44184 0.0
Mg199 Mg 0.4542 0.17503 0.43637 0.0
C200 C 0.51733 0.1569 0.44872 0.0
C201 C 0.45237 0.08229 0.47441 0.0
O202 O 0.47402 0.12208 0.47495 0.0
O203 O 0.40445 0.06502 0.44542 0.0
O204 O 0.42498 0.10726 0.433 0.0
O205 O 0.43997 0.16613 0.46611 0.0
O206 O 0.42718 0.16158 0.45074 0.0
C207 C 0.40901 0.07156 0.43651 0.0
C208 C 0.44012 0.18376 0.45825 0.0
O209 O 0.42536 0.06629 0.468 0.0
Mg210 Mg 0.65483 0.55505 0.7003 0.0
O211 O 0.69672 0.52952 0.70367 0.0
O212 O 0.67515 0.49105 0.71669 0.0
Mg213 Mg 0.6193 0.49279 0.72184 0.0
C214 C 0.70003 0.50674 0.70982 0.0
C215 C 0.71337 0.58064 0.68354 0.0
O216 O 0.69494 0.5408 0.68322 0.0
O217 O 0.68334 0.60151 0.71224 0.0
O218 O 0.65949 0.56073 0.72487 0.0
O219 O 0.61546 0.49938 0.69196 0.0
O220 O 0.60708 0.50538 0.70726 0.0
C221 C 0.68056 0.59597 0.7212 0.0
C222 C 0.59731 0.48264 0.69983 0.0
O223 O 0.70264 0.5975 0.6898 0.0
Mg224 Mg 0.43177 0.0919 0.69852 0.0
O225 O 0.45727 0.15926 0.70196 0.0
O226 O 0.49466 0.17561 0.71514 0.0
Mg227 Mg 0.49223 0.11772 0.72031 0.0
C228 C 0.47962 0.18511 0.70819 0.0
C229 C 0.40703 0.12554 0.68169 0.0
O230 O 0.44687 0.14708 0.68142 0.0
O231 O 0.38439 0.07372 0.71026 0.0
O232 O 0.42409 0.09021 0.72308 0.0
O233 O 0.48818 0.10841 0.69043 0.0
O234 O 0.48066 0.09332 0.7057 0.0
C235 C 0.38918 0.07626 0.71924 0.0
C236 C 0.5041 0.10654 0.69839 0.0
O237 O 0.39009 0.0977 0.68789 0.0
Mg238 Mg 0.89504 0.33238 0.70045 0.0
O239 O 0.8271 0.2897 0.70316 0.0
O240 O 0.80841 0.30802 0.71642 0.0
Mg241 Mg 0.86516 0.36244 0.72235 0.0
C242 C 0.80017 0.2849 0.70923 0.0
C243 C 0.86462 0.27747 0.683 0.0
O244 O 0.84317 0.29588 0.68276 0.0
O245 O 0.91136 0.30113 0.71204 0.0
O246 O 0.89234 0.32138 0.72497 0.0
O247 O 0.87993 0.37363 0.69256 0.0
O248 O 0.89204 0.3783 0.70798 0.0
C249 C 0.90711 0.30139 0.72101 0.0
C250 C 0.88017 0.38986 0.70065 0.0
O251 O 0.89135 0.2871 0.68943 0.0
Mg252 Mg 0.43479 0.33755 0.20189 0.0
O253 O 0.45956 0.29441 0.20447 0.0
O254 O 0.49791 0.31283 0.21751 0.0
Mg255 Mg 0.49684 0.36785 0.22349 0.0
C256 C 0.48205 0.28947 0.21039 0.0
C257 C 0.40997 0.28334 0.18443 0.0
O258 O 0.44984 0.30217 0.18423 0.0
O259 O 0.3881 0.30697 0.21371 0.0
O260 O 0.42877 0.32742 0.22641 0.0
O261 O 0.49066 0.37825 0.19376 0.0
O262 O 0.48466 0.38347 0.20921 0.0
C263 C 0.39356 0.30755 0.22265 0.0
C264 C 0.50745 0.39459 0.20177 0.0
O265 O 0.39251 0.29222 0.19093 0.0
Mg266 Mg 0.64922 0.08844 0.19992 0.0
O267 O 0.69267 0.15596 0.20284 0.0
O268 O 0.67498 0.17464 0.21619 0.0
Mg269 Mg 0.62013 0.11795 0.22203 0.0
C270 C 0.69799 0.18281 0.20897 0.0
C271 C 0.70353 0.11957 0.18241 0.0
O272 O 0.68489 0.1408 0.18235 0.0
O273 O 0.68006 0.07073 0.21135 0.0
O274 O 0.6604 0.08972 0.22439 0.0
O275 O 0.60841 0.10496 0.19227 0.0
O276 O 0.60378 0.09167 0.20762 0.0
C277 C 0.67993 0.07463 0.22034 0.0
C278 C 0.59242 0.10436 0.20041 0.0
O279 O 0.69422 0.09252 0.18875 0.0
Mg280 Mg 0.89721 0.55191 0.19979 0.0
O281 O 0.83011 0.52781 0.20334 0.0
O282 O 0.81356 0.49083 0.2166 0.0
Mg283 Mg 0.87102 0.49244 0.22176 0.0
C284 C 0.80426 0.506 0.20964 0.0
C285 C 0.86425 0.57654 0.18282 0.0
O286 O 0.84214 0.53672 0.18271 0.0
O287 O 0.91646 0.59997 0.21138 0.0
O288 O 0.89921 0.5608 0.22432 0.0
O289 O 0.87956 0.49498 0.19185 0.0
O290 O 0.89494 0.50286 0.20711 0.0
C291 C 0.91364 0.59555 0.22037 0.0
C292 C 0.88124 0.47917 0.19985 0.0
O293 O 0.89213 0.59354 0.18901 0.0
Mg294 Mg 0.66747 0.10223 0.95565 0.0
O295 O 0.6245 0.12693 0.95271 0.0
O296 O 0.64371 0.16468 0.93956 0.0
Mg297 Mg 0.69903 0.1633 0.9339 0.0
C298 C 0.61994 0.14917 0.94663 0.0
C299 C 0.6121 0.07774 0.97294 0.0
O300 O 0.63073 0.1176 0.97309 0.0
O301 O 0.63758 0.05506 0.94392 0.0
O302 O 0.65873 0.09512 0.93112 0.0
O303 O 0.70769 0.15837 0.96373 0.0
O304 O 0.71381 0.1518 0.94834 0.0
C305 C 0.63863 0.0601 0.93495 0.0
C306 C 0.72451 0.17486 0.95573 0.0
O307 O 0.62154 0.06027 0.96656 0.0
Mg308 Mg 0.88503 0.56509 0.95693 0.0
O309 O 0.86021 0.49776 0.95352 0.0
O310 O 0.82256 0.48093 0.94037 0.0
Mg311 Mg 0.82442 0.53843 0.93516 0.0
C312 C 0.83793 0.47174 0.94731 0.0
C313 C 0.91005 0.5323 0.97384 0.0
O314 O 0.87022 0.51051 0.97404 0.0
O315 O 0.93235 0.58349 0.94519 0.0
O316 O 0.8926 0.56599 0.93236 0.0
O317 O 0.8288 0.54823 0.96508 0.0
O318 O 0.83562 0.5628 0.94977 0.0
C319 C 0.92751 0.58034 0.93622 0.0
C320 C 0.81243 0.54951 0.95713 0.0
O321 O 0.92703 0.56001 0.96761 0.0
Mg322 Mg 0.42191 0.31931 0.95732 0.0
O323 O 0.48949 0.36212 0.95419 0.0
O324 O 0.50693 0.3429 0.94087 0.0
Mg325 Mg 0.44969 0.28798 0.9353 0.0
C326 C 0.51582 0.36659 0.94798 0.0
C327 C 0.45374 0.37532 0.97457 0.0
O328 O 0.47555 0.35727 0.97471 0.0
O329 O 0.4043 0.34978 0.94581 0.0
O330 O 0.42234 0.32898 0.93281 0.0
O331 O 0.43819 0.27882 0.96517 0.0
O332 O 0.42442 0.27306 0.94983 0.0
C333 C 0.40787 0.34915 0.93682 0.0
C334 C 0.43722 0.26214 0.9571 0.0
O335 O 0.42637 0.36509 0.96828 0.0
Mg336 Mg 0.55215 0.6517 0.79048 0.0
O337 O 0.52688 0.69387 0.78715 0.0
O338 O 0.48897 0.67302 0.77404 0.0
Mg339 Mg 0.49126 0.6177 0.76874 0.0
C340 C 0.50437 0.69752 0.78099 0.0
C341 C 0.57719 0.70969 0.80738 0.0
O342 O 0.53734 0.69142 0.80766 0.0
O343 O 0.59934 0.68098 0.77871 0.0
O344 O 0.55934 0.65866 0.76592 0.0
O345 O 0.49586 0.61186 0.7986 0.0
O346 O 0.503 0.60447 0.7833 0.0
C347 C 0.59431 0.67934 0.76974 0.0
C348 C 0.47972 0.59424 0.79064 0.0
O349 O 0.59407 0.69891 0.80114 0.0
Mg350 Mg 0.33112 0.89437 0.78819 0.0
O351 O 0.28846 0.82653 0.78542 0.0
O352 O 0.3074 0.80764 0.77229 0.0
Mg353 Mg 0.36217 0.86434 0.76644 0.0
C354 C 0.28389 0.79953 0.77941 0.0
C355 C 0.27623 0.86388 0.8056 0.0
O356 O 0.29483 0.84261 0.80578 0.0
O357 O 0.30039 0.91079 0.77647 0.0
O358 O 0.32132 0.89163 0.76368 0.0
O359 O 0.37203 0.87914 0.79621 0.0
O360 O 0.37737 0.89131 0.7808 0.0
C361 C 0.30114 0.90647 0.76751 0.0
C362 C 0.3886 0.8794 0.78817 0.0
O363 O 0.28552 0.89054 0.79916 0.0
Mg364 Mg 0.08894 0.43071 0.78956 0.0
O365 O 0.15665 0.45558 0.78662 0.0
O366 O 0.17458 0.49164 0.77322 0.0
Mg367 Mg 0.11746 0.48891 0.76741 0.0
C368 C 0.18323 0.47724 0.78044 0.0
C369 C 0.12044 0.40754 0.80703 0.0
O370 O 0.14187 0.4474 0.80712 0.0
O371 O 0.07171 0.38219 0.77817 0.0
O372 O 0.09008 0.42047 0.76508 0.0
O373 O 0.10475 0.48782 0.79721 0.0
O374 O 0.09143 0.47897 0.78185 0.0
C375 C 0.07547 0.38601 0.76918 0.0
C376 C 0.10385 0.50305 0.78906 0.0
O377 O 0.09332 0.38999 0.80071 0.0
Mg378 Mg 0.32281 0.89298 0.03412 0.0
O379 O 0.36498 0.86744 0.03716 0.0
O380 O 0.34565 0.83068 0.05046 0.0
Mg381 Mg 0.29115 0.83363 0.05612 0.0
C382 C 0.36926 0.84534 0.04333 0.0
C383 C 0.37787 0.91597 0.01673 0.0
O384 O 0.35914 0.87609 0.01666 0.0
O385 O 0.3539 0.94094 0.04566 0.0
O386 O 0.33266 0.90187 0.05862 0.0
O387 O 0.28158 0.83643 0.02629 0.0
O388 O 0.27626 0.84448 0.04164 0.0
C389 C 0.35315 0.93654 0.05465 0.0
C390 C 0.26488 0.8208 0.03436 0.0
O391 O 0.36861 0.93374 0.02307 0.0
Mg392 Mg 0.10179 0.42979 0.03339 0.0
O393 O 0.12585 0.4972 0.03652 0.0
O394 O 0.16254 0.51502 0.04983 0.0
Mg395 Mg 0.161 0.45811 0.05539 0.0
C396 C 0.14753 0.52365 0.04272 0.0
C397 C 0.07724 0.46119 0.01612 0.0
O398 O 0.11708 0.48318 0.01599 0.0
O399 O 0.05367 0.41151 0.04493 0.0
O400 O 0.09253 0.42966 0.05792 0.0
O401 O 0.15869 0.44666 0.02552 0.0
O402 O 0.1509 0.43288 0.04087 0.0
C403 C 0.05784 0.41481 0.05392 0.0
C404 C 0.17456 0.44584 0.03358 0.0
O405 O 0.06019 0.43385 0.02243 0.0
Mg406 Mg 0.56523 0.67229 0.03393 0.0
O407 O 0.49764 0.63017 0.03713 0.0
O408 O 0.48042 0.65059 0.05028 0.0
Mg409 Mg 0.53791 0.70585 0.05567 0.0
C410 C 0.47138 0.62636 0.04328 0.0
C411 C 0.53289 0.61501 0.01694 0.0
O412 O 0.51142 0.6334 0.01667 0.0
O413 O 0.58261 0.64256 0.04568 0.0
O414 O 0.56538 0.66519 0.05848 0.0
O415 O 0.54926 0.71239 0.0258 0.0
O416 O 0.56313 0.71938 0.04113 0.0
C417 C 0.57956 0.64441 0.05465 0.0
C418 C 0.55038 0.7298 0.03377 0.0
O419 O 0.5603 0.62543 0.02322 0.0
Mg420 Mg 0.10119 0.67304 0.53356 0.0
O421 O 0.12683 0.63095 0.53653 0.0
O422 O 0.16489 0.65083 0.54962 0.0
Mg423 Mg 0.16262 0.70577 0.55523 0.0
C424 C 0.14948 0.62689 0.54257 0.0
C425 C 0.07627 0.61615 0.51647 0.0
O426 O 0.11613 0.63512 0.51609 0.0
O427 O 0.05434 0.64298 0.54537 0.0
O428 O 0.09461 0.66481 0.55812 0.0
O429 O 0.15722 0.7136 0.52544 0.0
O430 O 0.15037 0.71994 0.54081 0.0
C431 C 0.05955 0.6443 0.55434 0.0
C432 C 0.17349 0.73075 0.53343 0.0
O433 O 0.05925 0.62622 0.52283 0.0
Mg434 Mg 0.31961 0.42826 0.53233 0.0
O435 O 0.3627 0.4959 0.5352 0.0
O436 O 0.34374 0.5149 0.54831 0.0
Mg437 Mg 0.28852 0.4583 0.55406 0.0
C438 C 0.36738 0.52291 0.54122 0.0
C439 C 0.37668 0.45915 0.51522 0.0
O440 O 0.35858 0.48087 0.51479 0.0
O441 O 0.34935 0.41092 0.54409 0.0
O442 O 0.32878 0.4304 0.55689 0.0
O443 O 0.27954 0.44463 0.52428 0.0
O444 O 0.27349 0.43161 0.53966 0.0
C445 C 0.34861 0.41519 0.55305 0.0
C446 C 0.26281 0.44417 0.53231 0.0
O447 O 0.3658 0.43193 0.52157 0.0
Mg448 Mg 0.56446 0.89206 0.53211 0.0
O449 O 0.49703 0.8675 0.53526 0.0
O450 O 0.479 0.82985 0.54842 0.0
Mg451 Mg 0.53603 0.83139 0.55391 0.0
C452 C 0.47046 0.84531 0.54138 0.0
C453 C 0.5325 0.91753 0.51506 0.0
O454 O 0.5107 0.87771 0.51474 0.0
O455 O 0.58249 0.93946 0.54384 0.0
O456 O 0.56404 0.89958 0.55666 0.0
O457 O 0.54776 0.83543 0.5241 0.0
O458 O 0.5618 0.84288 0.53943 0.0
C459 C 0.57888 0.93456 0.55281 0.0
C460 C 0.54892 0.81944 0.53211 0.0
O461 O 0.55998 0.93413 0.52135 0.0
Mg462 Mg 0.3421 0.43537 0.29278 0.0
O463 O 0.29909 0.45961 0.28945 0.0
O464 O 0.31862 0.49662 0.27619 0.0
Mg465 Mg 0.37403 0.49473 0.27078 0.0
C466 C 0.29464 0.48145 0.28324 0.0
C467 C 0.28543 0.41152 0.3099 0.0
O468 O 0.30413 0.45139 0.31008 0.0
O469 O 0.3126 0.38723 0.28121 0.0
O470 O 0.33356 0.4264 0.26826 0.0
O471 O 0.38188 0.49239 0.30064 0.0
O472 O 0.38853 0.48434 0.28535 0.0
C473 C 0.31354 0.39166 0.27222 0.0
C474 C 0.39886 0.50813 0.29259 0.0
O475 O 0.29558 0.3941 0.30366 0.0
Mg476 Mg 0.55541 0.89782 0.29021 0.0
O477 O 0.53074 0.83009 0.28743 0.0
O478 O 0.49287 0.81083 0.27431 0.0
Mg479 Mg 0.4942 0.86733 0.2685 0.0
C480 C 0.50847 0.80297 0.28143 0.0
C481 C 0.58078 0.86741 0.30748 0.0
O482 O 0.54093 0.84607 0.30782 0.0
O483 O 0.60245 0.91462 0.27845 0.0
O484 O 0.56238 0.89516 0.26566 0.0
O485 O 0.49922 0.88201 0.29828 0.0
O486 O 0.50585 0.89431 0.28287 0.0
C487 C 0.59742 0.9103 0.26949 0.0
C488 C 0.48276 0.88211 0.29026 0.0
O489 O 0.59765 0.89425 0.30106 0.0
Mg490 Mg 0.09269 0.6492 0.29026 0.0
O491 O 0.16021 0.69247 0.28718 0.0
O492 O 0.17836 0.6727 0.27405 0.0
Mg493 Mg 0.12169 0.61692 0.26857 0.0
C494 C 0.18679 0.69684 0.28105 0.0
C495 C 0.12336 0.70655 0.30734 0.0
O496 O 0.14598 0.68941 0.30767 0.0
O497 O 0.07488 0.6784 0.27847 0.0
O498 O 0.09359 0.65698 0.26569 0.0
O499 O 0.10942 0.6098 0.29843 0.0
O500 O 0.09608 0.60284 0.28306 0.0
C501 C 0.07866 0.6771 0.26951 0.0
C502 C 0.10889 0.59266 0.29046 0.0
O503 O 0.0961 0.69534 0.30099 0.0
H504 H 0.21939 0.07895 0.15413 0.0
H505 H 0.43897 0.25599 0.17023 0.0
H506 H 0.33163 0.09893 0.1416 0.0
H507 H 0.32711 0.23506 0.18317 0.0
H508 H 0.39997 0.1992 0.15954 0.0
H509 H 0.2582 0.1361 0.16478 0.0
C510 C 0.25223 0.09524 0.15364 0.0
C511 C 0.27231 0.08412 0.14696 0.0
C512 C 0.3839 0.20704 0.16469 0.0
C513 C 0.31691 0.14978 0.15912 0.0
C514 C 0.40615 0.23957 0.1708 0.0
C515 C 0.38626 0.25031 0.17761 0.0
C516 C 0.34139 0.18498 0.1654 0.0
C517 C 0.3437 0.22786 0.17802 0.0
C518 C 0.27436 0.12795 0.15972 0.0
C519 C 0.31489 0.10641 0.14665 0.0
N520 N 0.32267 0.19619 0.172 0.0
N521 N 0.33577 0.13823 0.15263 0.0
H522 H 0.73253 0.17781 0.16862 0.0
H523 H 0.91402 0.13992 0.15376 0.0
H524 H 0.75208 0.08536 0.18117 0.0
H525 H 0.89457 0.23249 0.14123 0.0
H526 H 0.85486 0.11961 0.16386 0.0
H527 H 0.7912 0.19761 0.15838 0.0
C528 C 0.74901 0.16147 0.16919 0.0
C529 C 0.73737 0.12986 0.17577 0.0
C530 C 0.86356 0.14443 0.15892 0.0
C531 C 0.80485 0.15264 0.1641 0.0
C532 C 0.89744 0.15615 0.15316 0.0
C533 C 0.90929 0.188 0.14663 0.0
C534 C 0.84129 0.16465 0.15816 0.0
C535 C 0.88656 0.20781 0.14617 0.0
C536 C 0.78261 0.17291 0.16335 0.0
C537 C 0.75995 0.10988 0.1762 0.0
N538 N 0.8536 0.19576 0.15184 0.0
N539 N 0.79268 0.12168 0.17045 0.0
H540 H 0.80513 0.54915 0.16925 0.0
H541 H 0.85198 0.77153 0.15433 0.0
H542 H 0.90089 0.65951 0.18166 0.0
H543 H 0.75716 0.66122 0.14168 0.0
H544 H 0.86976 0.73096 0.16453 0.0
H545 H 0.78719 0.58971 0.15908 0.0
C546 C 0.82254 0.58195 0.16981 0.0
C547 C 0.85459 0.60098 0.17632 0.0
C548 C 0.845 0.7156 0.15954 0.0
C549 C 0.834 0.64761 0.16473 0.0
C550 C 0.83472 0.73874 0.15373 0.0
C551 C 0.803 0.71973 0.14713 0.0
C552 C 0.82343 0.67309 0.15877 0.0
C553 C 0.78181 0.67716 0.14666 0.0
C554 C 0.81219 0.60508 0.16401 0.0
C555 C 0.87599 0.64356 0.17674 0.0
N556 N 0.79246 0.65527 0.15239 0.0
N557 N 0.86525 0.66544 0.17103 0.0
H558 H 0.06786 0.22036 0.33598 0.0
H559 H 0.25492 0.43997 0.32354 0.0
H560 H 0.08831 0.33084 0.34956 0.0
H561 H 0.23595 0.32881 0.31063 0.0
H562 H 0.19439 0.40059 0.33322 0.0
H563 H 0.1291 0.25978 0.32656 0.0
C564 C 0.08512 0.25297 0.33695 0.0
C565 C 0.0729 0.27234 0.34357 0.0
C566 C 0.20354 0.38478 0.3283 0.0
C567 C 0.14332 0.31769 0.33282 0.0
C568 C 0.23818 0.40723 0.32278 0.0
C569 C 0.25052 0.38764 0.31625 0.0
C570 C 0.18095 0.34241 0.32727 0.0
C571 C 0.22758 0.34518 0.31557 0.0
C572 C 0.1202 0.27546 0.33159 0.0
C573 C 0.09656 0.31466 0.34453 0.0
N574 N 0.19382 0.32399 0.32099 0.0
N575 N 0.13069 0.33593 0.33922 0.0
H576 H 0.65929 0.75362 0.34902 0.0
H577 H 0.66366 0.90224 0.30817 0.0
H578 H 0.76909 0.8454 0.33552 0.0
H579 H 0.5535 0.80939 0.32132 0.0
H580 H 0.70289 0.88214 0.31825 0.0
H581 H 0.6198 0.7731 0.33883 0.0
C582 C 0.67507 0.77766 0.34387 0.0
C583 C 0.71755 0.79793 0.34313 0.0
C584 C 0.67013 0.86622 0.31894 0.0
C585 C 0.67263 0.82061 0.33151 0.0
C586 C 0.64774 0.87779 0.31321 0.0
C587 C 0.60524 0.85748 0.3139 0.0
C588 C 0.64989 0.8341 0.32541 0.0
C589 C 0.58621 0.82594 0.32055 0.0
C590 C 0.65253 0.78887 0.33808 0.0
C591 C 0.73639 0.82893 0.33635 0.0
N592 N 0.60866 0.81517 0.32603 0.0
N593 N 0.71383 0.83939 0.33083 0.0
H594 H 0.23473 0.90495 0.34747 0.0
H595 H 0.08398 0.75025 0.30835 0.0
H596 H 0.13496 0.9127 0.33507 0.0
H597 H 0.18279 0.74097 0.32081 0.0
H598 H 0.1016 0.8092 0.31835 0.0
H599 H 0.21608 0.84449 0.33787 0.0
C600 C 0.20901 0.89403 0.34272 0.0
C601 C 0.18643 0.91394 0.34206 0.0
C602 C 0.11935 0.79419 0.31892 0.0
C603 C 0.1648 0.84478 0.3311 0.0
C604 C 0.10924 0.76046 0.31323 0.0
C605 C 0.13198 0.74068 0.31373 0.0
C606 C 0.1525 0.80831 0.32517 0.0
C607 C 0.16441 0.75528 0.32018 0.0
C608 C 0.19831 0.85948 0.33725 0.0
C609 C 0.1533 0.89839 0.3358 0.0
N610 N 0.17379 0.78829 0.32562 0.0
N611 N 0.14351 0.86476 0.33057 0.0
H612 H 0.54998 0.742 0.82086 0.0
H613 H 0.7723 0.92058 0.83478 0.0
H614 H 0.66016 0.75698 0.80822 0.0
H615 H 0.6621 0.90558 0.8474 0.0
H616 H 0.73169 0.86117 0.82488 0.0
H617 H 0.59058 0.80167 0.83068 0.0
C618 C 0.58274 0.7577 0.82018 0.0
C619 C 0.60171 0.74445 0.81371 0.0
C620 C 0.71636 0.87092 0.82979 0.0
C621 C 0.64838 0.81304 0.8249 0.0
C622 C 0.73953 0.90494 0.83543 0.0
C623 C 0.72056 0.91809 0.84193 0.0
C624 C 0.67388 0.8498 0.83065 0.0
C625 C 0.678 0.89655 0.84248 0.0
C626 C 0.60591 0.79188 0.82578 0.0
C627 C 0.64426 0.76609 0.81313 0.0
N628 N 0.6561 0.8634 0.83693 0.0
N629 N 0.66616 0.79937 0.81864 0.0
H630 H 0.07208 0.85196 0.83558 0.0
H631 H 0.24755 0.80668 0.81963 0.0
H632 H 0.09024 0.75868 0.84817 0.0
H633 H 0.22876 0.89929 0.80688 0.0
H634 H 0.19044 0.78913 0.83023 0.0
H635 H 0.12922 0.86954 0.82499 0.0
C636 C 0.08796 0.83501 0.83609 0.0
C637 C 0.07633 0.80376 0.84278 0.0
C638 C 0.19884 0.81336 0.82513 0.0
C639 C 0.14203 0.82396 0.83068 0.0
C640 C 0.23154 0.8235 0.81908 0.0
C641 C 0.24298 0.85454 0.81235 0.0
C642 C 0.17732 0.83437 0.82446 0.0
C643 C 0.22103 0.87518 0.81197 0.0
C644 C 0.12068 0.84516 0.83005 0.0
C645 C 0.09812 0.78295 0.84312 0.0
N646 N 0.1892 0.86467 0.81793 0.0
N647 N 0.12997 0.79348 0.83717 0.0
H648 H 0.23676 0.33318 0.84882 0.0
H649 H 0.08507 0.32474 0.80831 0.0
H650 H 0.14313 0.22191 0.83626 0.0
H651 H 0.17925 0.43616 0.82069 0.0
H652 H 0.10539 0.28644 0.81865 0.0
H653 H 0.21633 0.37156 0.83853 0.0
C654 C 0.21207 0.31683 0.84386 0.0
C655 C 0.19163 0.27428 0.8434 0.0
C656 C 0.12154 0.31927 0.81912 0.0
C657 C 0.16789 0.31795 0.83165 0.0
C658 C 0.10986 0.34114 0.81324 0.0
C659 C 0.1305 0.38371 0.81363 0.0
C660 C 0.15411 0.34012 0.82544 0.0
C661 C 0.16245 0.40336 0.82015 0.0
C662 C 0.20033 0.33875 0.83801 0.0
C663 C 0.15979 0.25469 0.83686 0.0
N664 N 0.17333 0.38141 0.82578 0.0
N665 N 0.14885 0.27668 0.83126 0.0
H666 H 0.74503 0.55329 0.66994 0.0
H667 H 0.9218 0.77539 0.65524 0.0
H668 H 0.7608 0.66362 0.68264 0.0
H669 H 0.90613 0.6649 0.64265 0.0
H670 H 0.86352 0.73497 0.66549 0.0
H671 H 0.80399 0.59374 0.6599 0.0
C672 C 0.76078 0.58606 0.67059 0.0
C673 C 0.74792 0.60511 0.67714 0.0
C674 C 0.87288 0.71954 0.66051 0.0
C675 C 0.81569 0.65163 0.66568 0.0
C676 C 0.90626 0.7426 0.65467 0.0
C677 C 0.91886 0.72349 0.64807 0.0
C678 C 0.85188 0.67703 0.65975 0.0
C679 C 0.89749 0.68091 0.64763 0.0
C680 C 0.79454 0.60914 0.66486 0.0
C681 C 0.7696 0.64767 0.67768 0.0
N682 N 0.86497 0.65912 0.65338 0.0
N683 N 0.80247 0.6695 0.67203 0.0
H684 H 0.32409 0.08983 0.68083 0.0
H685 H 0.32819 0.2423 0.64105 0.0
H686 H 0.43428 0.18554 0.66832 0.0
H687 H 0.21817 0.14726 0.65378 0.0
H688 H 0.36773 0.22253 0.65113 0.0
H689 H 0.2847 0.11031 0.67091 0.0
C690 C 0.33999 0.11501 0.67597 0.0
C691 C 0.38254 0.13599 0.6754 0.0
C692 C 0.33494 0.20609 0.65173 0.0
C693 C 0.33768 0.15977 0.66408 0.0
C694 C 0.31236 0.21745 0.646 0.0
C695 C 0.26981 0.19639 0.64657 0.0
C696 C 0.31482 0.17339 0.65806 0.0
C697 C 0.25091 0.16438 0.6531 0.0
C698 C 0.3175 0.12678 0.67033 0.0
C699 C 0.40153 0.16846 0.66899 0.0
N700 N 0.27354 0.1538 0.65857 0.0
N701 N 0.37897 0.17938 0.66359 0.0
H702 H 0.90045 0.23038 0.68194 0.0
H703 H 0.75101 0.08657 0.64117 0.0
H704 H 0.80648 0.24701 0.66919 0.0
H705 H 0.84534 0.07038 0.65386 0.0
H706 H 0.77052 0.1452 0.65147 0.0
H707 H 0.88102 0.17192 0.6716 0.0
C708 C 0.87589 0.22189 0.67693 0.0
C709 C 0.85505 0.24361 0.67643 0.0
C710 C 0.78688 0.12875 0.65201 0.0
C711 C 0.83246 0.17657 0.66463 0.0
C712 C 0.77566 0.0952 0.64615 0.0
C713 C 0.79657 0.07354 0.64666 0.0
C714 C 0.81924 0.14073 0.65841 0.0
C715 C 0.82834 0.08615 0.65323 0.0
C716 C 0.86472 0.18843 0.67105 0.0
C717 C 0.82341 0.23118 0.66982 0.0
N718 N 0.83875 0.11895 0.65884 0.0
N719 N 0.81303 0.19843 0.6642 0.0
H720 H 0.10397 0.58492 0.50283 0.0
H721 H 0.88286 0.40176 0.48983 0.0
H722 H 0.99346 0.56718 0.51588 0.0
H723 H 0.99331 0.41863 0.47692 0.0
H724 H 0.92298 0.46198 0.49951 0.0
H725 H 0.06395 0.52451 0.49318 0.0
C726 C 0.07124 0.56847 0.50363 0.0
C727 C 0.05202 0.58115 0.51018 0.0
C728 C 0.93849 0.45247 0.49458 0.0
C729 C 0.00604 0.5117 0.49919 0.0
C730 C 0.9156 0.41798 0.48907 0.0
C731 C 0.93476 0.40512 0.48255 0.0
C732 C 0.9809 0.47439 0.49358 0.0
C733 C 0.97727 0.42742 0.48187 0.0
C734 C 0.04842 0.53387 0.49814 0.0
C735 C 0.00955 0.55854 0.51092 0.0
N736 N -0.00109 0.46104 0.4873 0.0
N737 N 0.98799 0.52486 0.50551 0.0
H738 H 0.42367 0.42312 0.51471 0.0
H739 H 0.5777 0.57773 0.476 0.0
H740 H 0.41045 0.5189 0.5018 0.0
H741 H 0.59081 0.48197 0.48896 0.0
H742 H 0.51662 0.55703 0.4855 0.0
H743 H 0.48468 0.44385 0.5052 0.0
C744 C 0.43343 0.44833 0.50983 0.0
C745 C 0.41192 0.46931 0.50905 0.0
C746 C 0.53294 0.54063 0.48628 0.0
C747 C 0.48191 0.49342 0.49821 0.0
C748 C 0.5679 0.55253 0.48089 0.0
C749 C 0.5894 0.53155 0.48169 0.0
C750 C 0.51936 0.50749 0.49251 0.0
C751 C 0.57523 0.49906 0.48811 0.0
C752 C 0.46836 0.46026 0.50443 0.0
C753 C 0.42605 0.50182 0.50263 0.0
N754 N 0.54106 0.48797 0.49325 0.0
N755 N 0.4602 0.51294 0.49748 0.0
H756 H 0.41676 -0.00081 0.47477 0.0
H757 H 0.56861 0.0005 0.51435 0.0
H758 H 0.51089 0.10804 0.48808 0.0
H759 H 0.47304 0.89106 0.50157 0.0
H760 H 0.54848 0.04048 0.50456 0.0
H761 H 0.43679 0.95886 0.48451 0.0
C762 C 0.44146 0.01459 0.47978 0.0
C763 C 0.46217 0.05705 0.48061 0.0
C764 C 0.53197 0.00771 0.50388 0.0
C765 C 0.48545 0.01118 0.49172 0.0
C766 C 0.54355 0.98488 0.50945 0.0
C767 C 0.52248 0.94237 0.50878 0.0
C768 C 0.49906 0.98791 0.4976 0.0
C769 C 0.49018 0.92377 0.50232 0.0
C770 C 0.45297 0.99157 0.48531 0.0
C771 C 0.49402 0.07539 0.4872 0.0
N772 N 0.4794 0.94665 0.49699 0.0
N773 N 0.50473 0.05236 0.49247 0.0
H774 H 0.40635 0.88672 0.00281 0.0
H775 H 0.58365 0.10661 0.98692 0.0
H776 H 0.42581 -0.00129 0.01535 0.0
H777 H 0.564 0.99489 0.97419 0.0
H778 H 0.52626 0.06746 -0.00253 0.0
H779 H 0.46374 0.92575 0.99222 0.0
C780 C 0.42256 0.91955 0.00331 0.0
C781 C 0.41125 0.9395 0.00998 0.0
C782 C 0.53452 0.05146 0.99239 0.0
C783 C 0.47719 0.98435 -0.00209 0.0
C784 C 0.56739 0.0738 0.98637 0.0
C785 C 0.57866 0.05398 0.97966 0.0
C786 C 0.51266 0.00894 0.9917 0.0
C787 C 0.55639 0.01141 0.97926 0.0
C788 C 0.45542 0.94181 -0.00273 0.0
C789 C 0.43345 0.98207 0.01031 0.0
N790 N 0.52438 0.9903 0.9852 0.0
N791 N 0.46541 0.00308 0.00437 0.0
H792 H 0.88259 0.47325 0.98744 0.0
H793 H 0.10478 0.51973 0.0024 0.0
H794 H 0.99304 0.56853 0.97492 0.0
H795 H 0.99428 0.42457 0.01492 0.0
H796 H 0.06434 0.53753 0.99215 0.0
H797 H 0.92303 0.45512 -0.00242 0.0
C798 C 0.91538 0.49052 0.98685 0.0
C799 C 0.93447 0.5225 0.98032 0.0
C800 C 0.04891 0.51268 -0.00288 0.0
C801 C 0.98097 0.50168 0.99189 0.0
C802 C 0.07198 0.5024 0.00296 0.0
C803 C 0.05287 0.47059 0.00953 0.0
C804 C 0.00639 0.49104 -0.00215 0.0
C805 C 0.01029 0.4493 0.00996 0.0
C806 C 0.93846 0.48005 0.99263 0.0
C807 C 0.97705 0.54369 0.97986 0.0
N808 N 0.98848 0.45997 0.00421 0.0
N809 N -0.00113 0.53286 0.98556 0.0
H810 H 0.41731 0.4218 0.97576 0.0
H811 H 0.56877 0.56795 0.01594 0.0
H812 H 0.51288 0.4068 0.98815 0.0
H813 H 0.4736 0.58323 0.00341 0.0
H814 H 0.54885 0.50883 0.00579 0.0
H815 H 0.43694 0.48057 0.986 0.0
C816 C 0.44227 0.43072 0.98066 0.0
C817 C 0.46349 0.40937 0.98109 0.0
C818 C 0.53239 0.52518 0.00525 0.0
C819 C 0.48632 0.47675 0.99278 0.0
C820 C 0.54383 0.55901 0.01102 0.0
C821 C 0.52283 0.58057 0.01052 0.0
C822 C 0.49969 0.51282 -0.00107 0.0
C823 C 0.49069 0.56755 0.00403 0.0
C824 C 0.45355 0.46435 0.98649 0.0
C825 C 0.49564 0.42234 0.98758 0.0
N826 N 0.48006 0.53449 -0.00149 0.0
N827 N 0.50612 0.45524 0.99315 0.0
H828 H 0.34536 0.03546 0.10626 0.0
H829 H 0.38674 0.94404 0.07207 0.0
H830 H 0.27482 0.04893 0.0841 0.0
H831 H 0.35789 0.00984 0.05157 0.0
H832 H 0.39078 0.99064 0.08431 0.0
H833 H 0.39336 0.03834 0.0943 0.0
C834 C 0.34062 0.04023 0.09891 0.0
C835 C 0.30517 0.04012 0.09609 0.0
C836 C 0.38538 -0.00359 0.0771 0.0
C837 C 0.35866 0.04158 0.08238 0.0
C838 C 0.38285 0.96943 0.07009 0.0
C839 C 0.37077 0.97245 0.06088 0.0
C840 C 0.37464 0.02593 0.07491 0.0
C841 C 0.36661 0.00609 0.05864 0.0
C842 C 0.36773 0.04128 0.09205 0.0
C843 C 0.301 0.04728 0.08652 0.0
N844 N 0.36709 0.03073 0.06569 0.0
N845 N 0.32684 0.04668 0.07997 0.0
H846 H 0.98527 0.34589 0.0505 0.0
H847 H 0.96775 0.31541 0.10568 0.0
H848 H 0.04903 0.43878 0.07153 0.0
H849 H 0.93982 0.22232 0.08478 0.0
H850 H 0.96553 0.35915 0.09323 0.0
H851 H 0.93826 0.30218 0.06281 0.0
C852 C 0.98835 0.35774 0.05763 0.0
C853 C 0.02178 0.39536 0.06011 0.0
C854 C 0.95834 0.32855 0.09144 0.0
C855 C 0.96861 0.34566 0.07415 0.0
C856 C 0.9594 0.3035 0.09855 0.0
C857 C 0.95529 0.26583 0.09616 0.0
C858 C 0.95314 0.3156 0.08195 0.0
C859 C 0.94432 0.25174 0.08683 0.0
C860 C 0.96162 0.33272 0.06465 0.0
C861 C 0.02425 0.4094 0.06941 0.0
N862 N 0.94457 0.27701 0.08001 0.0
N863 N -0.0014 0.38416 0.07616 0.0
H864 H 0.6428 0.63102 0.05083 0.0
H865 H 0.77551 0.71909 0.08525 0.0
H866 H 0.55954 0.61985 0.07298 0.0
H867 H 0.68003 0.65349 0.1056 0.0
H868 H 0.73263 0.67366 0.07288 0.0
H869 H 0.68698 0.62655 0.0628 0.0
C870 C 0.63325 0.62648 0.05818 0.0
C871 C 0.59843 0.62764 0.06099 0.0
C872 C 0.72132 0.66765 0.08008 0.0
C873 C 0.64937 0.6242 0.0747 0.0
C874 C 0.74596 0.69394 0.08717 0.0
C875 C 0.73075 0.6907 0.09637 0.0
C876 C 0.6808 0.63864 0.0822 0.0
C877 C 0.69259 0.6574 0.09853 0.0
C878 C 0.65876 0.62446 0.06503 0.0
C879 C 0.58701 0.62071 0.07056 0.0
N880 N 0.66828 0.63349 0.09141 0.0
N881 N 0.61291 0.62028 0.07711 0.0
H882 H -0.00278 0.33513 0.44129 0.0
H883 H 0.01384 0.33326 0.38566 0.0
H884 H 0.93933 0.3762 0.42141 0.0
H885 H 0.03142 0.25578 0.40509 0.0
H886 H 0.01904 0.37697 0.39897 0.0
H887 H 0.04118 0.33559 0.42851 0.0
C888 C -0.00499 0.34599 0.43433 0.0
C889 C 0.96398 0.35456 0.43229 0.0
C890 C 0.02324 0.35121 0.40026 0.0
C891 C 0.01358 0.35479 0.41772 0.0
C892 C 0.02045 0.32635 0.39266 0.0
C893 C 0.02092 0.29023 0.39436 0.0
C894 C 0.02661 0.33973 0.40954 0.0
C895 C 0.02975 0.28282 0.40355 0.0
C896 C 0.01992 0.34602 0.42704 0.0
C897 C 0.96235 0.36845 0.42318 0.0
N898 N 0.03137 0.30686 0.41084 0.0
N899 N 0.98618 0.3673 0.41617 0.0
H900 H 0.64995 0.65543 0.44074 0.0
H901 H 0.65632 0.6787 0.38533 0.0
H902 H 0.62167 0.56055 0.42031 0.0
H903 H 0.72 0.77571 0.40545 0.0
H904 H 0.61301 0.63544 0.39818 0.0
H905 H 0.64419 0.69679 0.42818 0.0
C906 C 0.64095 0.64267 0.43369 0.0
C907 C 0.63757 0.60517 0.43145 0.0
C908 C 0.63546 0.6667 0.39972 0.0
C909 C 0.63123 0.65215 0.41712 0.0
C910 C 0.66004 0.69148 0.39237 0.0
C911 C 0.69257 0.73028 0.39443 0.0
C912 C 0.64374 0.68104 0.4091 0.0
C913 C 0.69592 0.74545 0.40365 0.0
C914 C 0.63781 0.66633 0.42652 0.0
C915 C 0.62566 0.5899 0.42224 0.0
N916 N 0.67247 0.72046 0.41071 0.0
N917 N 0.62378 0.61382 0.41535 0.0
H918 H 0.33709 0.00051 0.43852 0.0
H919 H 0.32017 0.99422 0.38272 0.0
H920 H 0.43656 0.06598 0.41908 0.0
H921 H 0.22336 0.96831 0.40241 0.0
H922 H 0.3604 0.99014 0.39582 0.0
H923 H 0.29524 0.9587 0.42531 0.0
C924 C 0.35067 0.0049 0.43155 0.0
C925 C 0.38983 0.0374 0.42979 0.0
C926 C 0.32979 0.98396 0.3972 0.0
C927 C 0.3423 0.99029 0.41473 0.0
C928 C 0.30681 0.98617 0.38973 0.0
C929 C 0.26899 0.98273 0.39158 0.0
C930 C 0.31453 0.97809 0.4065 0.0
C931 C 0.25293 0.97219 0.40077 0.0
C932 C 0.32672 0.98122 0.424 0.0
C933 C 0.40605 0.04178 0.42065 0.0
N934 N 0.2761 0.97098 0.40793 0.0
N935 N 0.38191 0.01911 0.4134 0.0
H936 H 0.7174 0.94462 0.90329 0.0
H937 H 0.60384 0.05208 0.91763 0.0
H938 H 0.65458 0.97893 0.88317 0.0
H939 H 0.63786 0.98854 0.93762 0.0
H940 H 0.60169 0.00693 0.90511 0.0
H941 H 0.67032 0.93998 0.91561 0.0
C942 C 0.69276 0.94989 0.90142 0.0
C943 C 0.6905 0.96337 0.89231 0.0
C944 C 0.60834 0.00181 0.91227 0.0
C945 C 0.6375 0.95973 0.90642 0.0
C946 C 0.6095 0.02762 0.91943 0.0
C947 C 0.62227 0.02471 0.92858 0.0
C948 C 0.62153 0.974 0.91423 0.0
C949 C 0.6286 0.9922 0.9306 0.0
C950 C 0.66582 0.94727 0.90846 0.0
C951 C 0.65773 0.96913 0.89017 0.0
N952 N 0.62955 0.96891 0.9234 0.0
N953 N 0.63327 0.96864 0.89727 0.0
H954 H 0.93531 0.55387 0.91885 0.0
H955 H 0.05162 0.77513 0.90478 0.0
H956 H -0.00014 0.6501 0.93908 0.0
H957 H 0.01619 0.67788 0.88464 0.0
H958 H 0.05304 0.73139 0.91721 0.0
H959 H 0.98238 0.59621 0.90651 0.0
C960 C 0.96029 0.58354 0.92074 0.0
C961 C 0.9631 0.59908 0.92989 0.0
C962 C 0.04624 0.71983 0.91003 0.0
C963 C 0.01613 0.64835 0.91577 0.0
C964 C 0.04552 0.74492 0.90292 0.0
C965 C 0.03256 0.72957 0.89376 0.0
C966 C 0.03245 0.67877 0.90801 0.0
C967 C 0.02562 0.69057 0.89167 0.0
C968 C 0.98724 0.6078 0.9137 0.0
C969 C -0.0037 0.63732 0.93204 0.0
N970 N 0.02427 0.66594 0.89882 0.0
N971 N 0.02079 0.66126 0.92495 0.0
H972 H 0.33906 0.35325 0.94003 0.0
H973 H 0.31402 0.34255 0.88481 0.0
H974 H 0.43385 0.38354 0.91943 0.0
H975 H 0.219 0.27701 0.90529 0.0
H976 H 0.35636 0.38862 0.89739 0.0
H977 H 0.29669 0.35783 0.92756 0.0
C978 C 0.35161 0.36257 0.93297 0.0
C979 C 0.38933 0.36665 0.93064 0.0
C980 C 0.32564 0.36511 0.89906 0.0
C981 C 0.34117 0.37154 0.91642 0.0
C982 C 0.3014 0.33892 0.89187 0.0
C983 C 0.26363 0.30519 0.89412 0.0
C984 C 0.3118 0.35721 0.90849 0.0
C985 C 0.24856 0.30202 0.90335 0.0
C986 C 0.32737 0.36502 0.92585 0.0
C987 C 0.40432 0.37897 0.92142 0.0
N988 N 0.27309 0.3271 0.91026 0.0
N989 N 0.37982 0.38005 0.91458 0.0
H990 H 0.97678 0.65606 0.6068 0.0
H991 H 0.98627 0.63987 0.55149 0.0
H992 H 0.9441 0.71859 0.5862 0.0
H993 H 0.05321 0.61198 0.57191 0.0
H994 H 0.94091 0.63691 0.56419 0.0
H995 H 0.97347 0.60961 0.59434 0.0
C996 C 0.96722 0.65894 0.59975 0.0
C997 C 0.962 0.6919 0.59741 0.0
C998 C 0.9646 0.62992 0.56582 0.0
C999 C 0.95859 0.63944 0.58319 0.0
C1000 C 0.99037 0.6314 0.55857 0.0
C1001 C 0.02423 0.62749 0.56075 0.0
C1002 C 0.97302 0.62453 0.57525 0.0
C1003 C 0.02804 0.61635 0.57001 0.0
C1004 C 0.96552 0.63256 0.59263 0.0
C1005 C 0.94948 0.69416 0.58819 0.0
N1006 N 0.00334 0.61619 0.57698 0.0
N1007 N 0.94911 0.66889 0.58135 0.0
H1008 H 0.27166 0.22138 0.58491 0.0
H1009 H 0.38378 0.44226 0.57032 0.0
H1010 H 0.33447 0.31912 0.60488 0.0
H1011 H 0.34929 0.34433 0.55042 0.0
H1012 H 0.38651 0.39959 0.58285 0.0
H1013 H 0.31821 0.26375 0.5725 0.0
C1014 C 0.29618 0.25141 0.58674 0.0
C1015 C 0.29855 0.26733 0.59583 0.0
C1016 C 0.37961 0.38766 0.5757 0.0
C1017 C 0.35095 0.31658 0.58162 0.0
C1018 C 0.37812 0.41213 0.56854 0.0
C1019 C 0.36508 0.39626 0.55942 0.0
C1020 C 0.36648 0.34665 0.57377 0.0
C1021 C 0.35876 0.35741 0.55742 0.0
C1022 C 0.32282 0.27569 0.57965 0.0
C1023 C 0.3312 0.30602 0.5979 0.0
N1024 N 0.35815 0.33335 0.56462 0.0
N1025 N 0.35536 0.32992 0.59076 0.0
H1026 H 0.67391 0.01704 0.60524 0.0
H1027 H 0.6489 0.0067 0.5499 0.0
H1028 H 0.7687 0.04609 0.58472 0.0
H1029 H 0.55326 0.9423 0.5703 0.0
H1030 H 0.69196 0.05165 0.56257 0.0
H1031 H 0.63175 0.02141 0.59268 0.0
C1032 C 0.6865 0.02599 0.59818 0.0
C1033 C 0.7242 0.02989 0.59591 0.0
C1034 C 0.66099 0.02865 0.5642 0.0
C1035 C 0.67627 0.03455 0.58158 0.0
C1036 C 0.63634 0.00314 0.55696 0.0
C1037 C 0.59807 0.97004 0.55916 0.0
C1038 C 0.64704 0.02075 0.57362 0.0
C1039 C 0.58314 0.96686 0.5684 0.0
C1040 C 0.66237 0.02831 0.59101 0.0
C1041 C 0.73921 0.04171 0.58667 0.0
N1042 N 0.60801 0.99127 0.57536 0.0
N1043 N 0.71483 0.04272 0.57978 0.0
H1044 H 0.69258 0.67228 0.71768 0.0
H1045 H 0.60092 0.7123 0.75228 0.0
H1046 H 0.70427 0.5995 0.73955 0.0
H1047 H 0.6673 0.68313 0.77254 0.0
H1048 H 0.64673 0.71576 0.73988 0.0
H1049 H 0.69511 0.71939 0.72985 0.0
C1050 C 0.69687 0.66684 0.72502 0.0
C1051 C 0.69645 0.63108 0.72768 0.0
C1052 C 0.65281 0.71043 0.74707 0.0
C1053 C 0.69764 0.68363 0.74161 0.0
C1054 C 0.62629 0.70822 0.75417 0.0
C1055 C 0.62974 0.6963 0.76336 0.0
C1056 C 0.68229 0.69954 0.74916 0.0
C1057 C 0.66328 0.69179 0.76549 0.0
C1058 C 0.69775 0.69346 0.73198 0.0
C1059 C 0.70293 0.62597 0.73725 0.0
N1060 N 0.68746 0.69198 0.75836 0.0
N1061 N 0.70226 0.6514 0.74389 0.0
H1062 H 0.31291 0.01245 0.71543 0.0
H1063 H 0.26802 0.88 0.75006 0.0
H1064 H 0.3843 0.09624 0.73754 0.0
H1065 H 0.29766 0.97587 0.77026 0.0
H1066 H 0.26575 0.92271 0.73759 0.0
H1067 H 0.2644 0.96808 0.72741 0.0
C1068 C 0.31777 0.02206 0.72278 0.0
C1069 C 0.35351 0.05714 0.72557 0.0
C1070 C 0.27093 0.93414 0.74478 0.0
C1071 C 0.29933 0.00599 0.7393 0.0
C1072 C 0.27242 0.9096 0.75192 0.0
C1073 C 0.28423 0.92496 0.76112 0.0
C1074 C 0.28241 0.97469 0.74684 0.0
C1075 C 0.28912 0.96319 0.7632 0.0
C1076 C 0.29035 -0.00356 0.72964 0.0
C1077 C 0.35786 0.06861 0.73514 0.0
N1078 N 0.28964 0.98737 0.75604 0.0
N1079 N 0.33164 0.04263 0.74169 0.0
H1080 H 0.88051 0.26629 0.73832 0.0
H1081 H 0.10175 0.37583 0.75199 0.0
H1082 H 0.9768 0.29875 0.71804 0.0
H1083 H 0.00523 0.31447 0.77234 0.0
H1084 H 0.05847 0.3287 0.73979 0.0
H1085 H 0.92334 0.26243 0.75065 0.0
C1086 C 0.91028 0.27127 0.73641 0.0
C1087 C 0.92574 0.28415 0.72725 0.0
C1088 C 0.047 0.32451 0.74698 0.0
C1089 C 0.97555 0.28144 0.74137 0.0
C1090 C 0.07182 0.35146 0.75395 0.0
C1091 C 0.05647 0.34973 0.76308 0.0
C1092 C 0.00614 0.29675 0.7491 0.0
C1093 C 0.01788 0.31726 0.76532 0.0
C1094 C 0.93484 0.26911 0.74345 0.0
C1095 C 0.96409 0.2895 0.72508 0.0
N1096 N 0.99344 0.29284 0.75828 0.0
N1097 N 0.98831 0.28951 0.73217 0.0
H1098 H 0.38663 0.27226 0.23987 0.0
H1099 H 0.27631 0.3822 0.2552 0.0
H1100 H 0.32156 0.30627 0.22034 0.0
H1101 H 0.31397 0.32069 0.27488 0.0
H1102 H 0.27215 0.33597 0.24271 0.0
H1103 H 0.34175 0.26903 0.25259 0.0
C1104 C 0.36192 0.27771 0.23821 0.0
C1105 C 0.35847 0.29076 0.22914 0.0
C1106 C 0.28007 0.33154 0.24981 0.0
C1107 C 0.30802 0.28875 0.24371 0.0
C1108 C 0.28238 0.35797 0.25695 0.0
C1109 C 0.29662 0.35587 0.26597 0.0
C1110 C 0.29361 0.30393 0.25166 0.0
C1111 C 0.30351 0.32368 0.26794 0.0
C1112 C 0.33626 0.27593 0.24548 0.0
C1113 C 0.32564 0.29679 0.2273 0.0
N1114 N 0.30328 0.29975 0.26075 0.0
N1115 N 0.30247 0.2971 0.23461 0.0
H1116 H 0.67073 0.97906 0.27242 0.0
H1117 H 0.68199 0.00472 0.21714 0.0
H1118 H 0.60418 0.88446 0.25193 0.0
H1119 H 0.7148 0.1001 0.2377 0.0
H1120 H 0.68495 0.96155 0.22963 0.0
H1121 H 0.71673 0.02132 0.2598 0.0
C1122 C 0.66681 0.96653 0.26535 0.0
C1123 C 0.63289 0.92886 0.26312 0.0
C1124 C 0.69302 0.99248 0.23133 0.0
C1125 C 0.68488 0.97694 0.24871 0.0
C1126 C 0.69154 0.01721 0.22419 0.0
C1127 C 0.69683 0.05543 0.2265 0.0
C1128 C 0.69978 0.0063 0.24077 0.0
C1129 C 0.70935 0.07025 0.23572 0.0
C1130 C 0.69296 0.99072 0.25814 0.0
C1131 C 0.62936 0.91392 0.25386 0.0
N1132 N 0.70946 0.0453 0.24258 0.0
N1133 N 0.65444 0.93839 0.24694 0.0
H1134 H 0.98343 0.6676 0.2172 0.0
H1135 H 0.00994 0.68167 0.2725 0.0
H1136 H 0.88859 0.6042 0.23785 0.0
H1137 H 0.10415 0.70929 0.2519 0.0
H1138 H 0.96751 0.68538 0.25992 0.0
H1139 H 0.02675 0.71358 0.22971 0.0
C1140 C 0.9711 0.66446 0.22428 0.0
C1141 C 0.933 0.63138 0.22661 0.0
C1142 C -0.00193 0.69213 0.25822 0.0
C1143 C 0.98223 0.68328 0.24087 0.0
C1144 C 0.02235 0.69018 0.26541 0.0
C1145 C 0.05994 0.69382 0.26313 0.0
C1146 C 0.0117 0.69773 0.24878 0.0
C1147 C 0.07474 0.70508 0.25386 0.0
C1148 C -0.00411 0.69057 0.23142 0.0
C1149 C 0.91834 0.62874 0.23586 0.0
N1150 N 0.0502 0.70572 0.24697 0.0
N1151 N 0.94334 0.65375 0.24272 0.0
H1152 H 0.07932 0.1809 0.13677 0.0
H1153 H 0.15071 0.07287 0.10008 0.0
H1154 H 0.09738 0.2135 0.10712 0.0
H1155 H 0.18119 0.08129 0.1298 0.0
H1156 H 0.1286 0.12251 0.10252 0.0
H1157 H 0.11513 0.14306 0.13452 0.0
C1158 C 0.09105 0.18039 0.1298 0.0
C1159 C 0.08443 0.19959 0.12206 0.0
C1160 C 0.14054 0.1138 0.10848 0.0
C1161 C 0.12495 0.15602 0.11944 0.0
C1162 C 0.15296 0.08532 0.1071 0.0
C1163 C 0.16754 0.07272 0.11476 0.0
C1164 C 0.14198 0.1292 0.11761 0.0
C1165 C 0.17009 0.09012 0.1237 0.0
C1166 C 0.11151 0.15882 0.12853 0.0
C1167 C 0.10068 0.19821 0.11323 0.0
N1168 N 0.15689 0.1171 0.12491 0.0
N1169 N 0.11964 0.17623 0.11212 0.0
H1170 H 0.92267 0.07865 0.10022 0.0
H1171 H 0.81414 0.89943 0.13698 0.0
H1172 H 0.91399 0.10097 0.12991 0.0
H1173 H 0.7821 0.88482 0.1073 0.0
H1174 H 0.85217 0.97308 0.13471 0.0
H1175 H 0.87313 0.0069 0.10269 0.0
C1176 C 0.91017 0.06849 0.10725 0.0
C1177 C 0.92267 0.09575 0.11488 0.0
C1178 C 0.83649 0.95368 0.12872 0.0
C1179 C 0.86631 0.01372 0.11777 0.0
C1180 C 0.81481 0.91165 0.13001 0.0
C1181 C 0.7957 0.88582 0.12227 0.0
C1182 C 0.83947 0.96988 0.11962 0.0
C1183 C 0.79731 0.90342 0.11341 0.0
C1184 C 0.88176 0.0276 0.10864 0.0
C1185 C 0.90523 0.08098 0.12383 0.0
N1186 N 0.81936 0.94434 0.1123 0.0
N1187 N 0.87831 0.0408 0.12506 0.0
H1188 H 0.89304 0.8127 0.13068 0.0
H1189 H 0.11129 0.89703 0.10693 0.0
H1190 H 0.91705 0.84345 0.101 0.0
H1191 H 0.09528 0.91539 0.13648 0.0
H1192 H 0.03769 0.86157 0.10486 0.0
H1193 H 0.96507 0.83497 0.13301 0.0
C1194 C 0.91333 0.82369 0.12464 0.0
C1195 C 0.89915 0.82664 0.11565 0.0
C1196 C 0.05037 0.8732 0.1118 0.0
C1197 C 0.98117 0.85165 0.11826 0.0
C1198 C 0.09239 0.89359 0.11299 0.0
C1199 C 0.10957 0.91026 0.12183 0.0
C1200 C 0.02533 0.86884 0.11954 0.0
C1201 C 0.08337 0.90355 0.1295 0.0
C1202 C 0.95437 0.83648 0.12599 0.0
C1203 C 0.92679 0.84111 0.10807 0.0
N1204 N 0.04249 0.88355 0.12817 0.0
N1205 N 0.96651 0.85312 0.10955 0.0
H1206 H 0.09627 0.21519 0.36963 0.0
H1207 H 0.13582 0.04056 0.35386 0.0
H1208 H 0.00576 0.09007 0.37474 0.0
H1209 H 0.22491 0.13484 0.37183 0.0
H1210 H 0.08923 0.0664 0.35688 0.0
H1211 H 0.14618 0.19356 0.36616 0.0
C1212 C 0.08702 0.18326 0.37003 0.0
C1213 C 0.04712 0.1543 0.37254 0.0
C1214 C 0.11923 0.08164 0.36003 0.0
C1215 C 0.10309 0.12966 0.3683 0.0
C1216 C 0.14588 0.06727 0.35826 0.0
C1217 C 0.18423 0.08589 0.36257 0.0
C1218 C 0.13153 0.11542 0.36594 0.0
C1219 C 0.19557 0.11987 0.36837 0.0
C1220 C 0.11537 0.17108 0.36807 0.0
C1221 C 0.03641 0.11329 0.37293 0.0
N1222 N 0.16934 0.13386 0.36985 0.0
N1223 N 0.06416 0.10206 0.3707 0.0
H1224 H 0.90555 0.09427 0.35122 0.0
H1225 H 0.83317 0.9177 0.38838 0.0
H1226 H 0.87078 0.10532 0.37973 0.0
H1227 H 0.81114 0.89181 0.35848 0.0
H1228 H 0.85011 0.98768 0.3853 0.0
H1229 H 0.87264 0.02057 0.35343 0.0
C1230 C 0.89055 0.08121 0.35789 0.0
C1231 C 0.89184 0.1061 0.36539 0.0
C1232 C 0.84113 0.96656 0.37942 0.0
C1233 C 0.85487 0.02221 0.36798 0.0
C1234 C 0.83172 0.92672 0.38117 0.0
C1235 C 0.82099 0.89904 0.37367 0.0
C1236 C 0.84068 0.97906 0.37008 0.0
C1237 C 0.81928 0.91225 0.36447 0.0
C1238 C 0.87184 0.03919 0.35914 0.0
C1239 C 0.87166 0.08748 0.37385 0.0
N1240 N 0.82965 0.95158 0.3629 0.0
N1241 N 0.85465 0.04674 0.37498 0.0
H1242 H 0.08062 0.9424 0.38767 0.0
H1243 H 0.89877 0.81405 0.35294 0.0
H1244 H 0.10086 0.92076 0.35865 0.0
H1245 H 0.88849 0.79167 0.38311 0.0
H1246 H 0.9725 0.85514 0.35469 0.0
H1247 H 0.00926 0.88972 0.38611 0.0
C1248 C 0.07011 0.92639 0.381 0.0
C1249 C 0.09662 0.93611 0.37327 0.0
C1250 C 0.95403 0.84091 0.36091 0.0
C1251 C 0.01513 0.87629 0.37141 0.0
C1252 C 0.91196 0.81751 0.35992 0.0
C1253 C 0.88727 0.80022 0.36793 0.0
C1254 C 0.97141 0.84751 0.36998 0.0
C1255 C 0.90613 0.8054 0.37678 0.0
C1256 C 0.02949 0.89622 0.38012 0.0
C1257 C 0.08146 0.91423 0.36479 0.0
N1258 N 0.94705 0.82915 0.3776 0.0
N1259 N 0.04153 0.88571 0.36404 0.0
H1260 H 0.81136 0.92016 0.8586 0.0
H1261 H 0.8928 0.78489 0.88293 0.0
H1262 H 0.84264 0.9284 0.88827 0.0
H1263 H 0.91023 0.81664 0.85322 0.0
H1264 H 0.85884 0.82457 0.88485 0.0
H1265 H 0.83244 0.8694 0.85649 0.0
C1266 C 0.82224 0.911 0.86469 0.0
C1267 C 0.82566 0.92882 0.87362 0.0
C1268 C 0.86994 0.82261 0.87791 0.0
C1269 C 0.84933 0.87067 0.87124 0.0
C1270 C 0.88948 0.80011 0.8768 0.0
C1271 C 0.90543 0.79838 0.86796 0.0
C1272 C 0.86573 0.84296 0.87008 0.0
C1273 C 0.89892 0.81762 0.86021 0.0
C1274 C 0.83436 0.88217 0.86346 0.0
C1275 C 0.83995 0.91579 0.88125 0.0
N1276 N 0.87975 0.83936 0.86146 0.0
N1277 N 0.85131 0.88751 0.87989 0.0
H1278 H 0.0772 0.89352 0.85965 0.0
H1279 H 0.2135 0.11104 0.88352 0.0
H1280 H 0.06998 0.91784 0.88928 0.0
H1281 H 0.18123 0.09565 0.85385 0.0
H1282 H 0.17401 0.03748 0.88558 0.0
H1283 H 0.12827 0.96516 0.85737 0.0
C1284 C 0.08665 0.91379 0.86569 0.0
C1285 C 0.06901 0.89982 0.87465 0.0
C1286 C 0.17583 0.05028 0.87861 0.0
C1287 C 0.12752 0.98141 0.8721 0.0
C1288 C 0.19823 0.09228 0.87743 0.0
C1289 C 0.19972 0.10964 0.86855 0.0
C1290 C 0.15533 0.02544 0.87084 0.0
C1291 C 0.18043 0.08361 0.86085 0.0
C1292 C 0.11565 0.95462 0.86437 0.0
C1293 C 0.08242 0.92743 0.88223 0.0
N1294 N 0.15876 0.04275 0.86218 0.0
N1295 N 0.11086 0.96694 0.88078 0.0
H1296 H 0.07769 0.15234 0.88941 0.0
H1297 H 0.90107 0.08497 0.85207 0.0
H1298 H 0.10238 0.18243 0.85972 0.0
H1299 H 0.88584 0.10451 0.88158 0.0
H1300 H 0.97455 0.11882 0.85454 0.0
H1301 H 0.0065 0.13177 0.88665 0.0
C1302 C 0.06816 0.15479 0.88232 0.0
C1303 C 0.09592 0.16886 0.87477 0.0
C1304 C 0.95506 0.11596 0.86045 0.0
C1305 C 0.01452 0.14508 0.87156 0.0
C1306 C 0.91313 0.09663 0.85905 0.0
C1307 C 0.88713 0.09099 0.86669 0.0
C1308 C 0.97097 0.12923 0.86957 0.0
C1309 C 0.90453 0.10707 0.87556 0.0
C1310 C 0.0276 0.14326 0.88076 0.0
C1311 C 0.08197 0.17171 0.86574 0.0
N1312 N 0.94532 0.12491 0.87679 0.0
N1313 N 0.04207 0.15939 0.86436 0.0
H1314 H 0.7782 0.88886 0.60692 0.0
H1315 H 0.91768 0.81217 0.63114 0.0
H1316 H 0.81071 0.90754 0.63657 0.0
H1317 H 0.924 0.84211 0.60141 0.0
H1318 H 0.86595 0.83194 0.63332 0.0
H1319 H 0.81893 0.85602 0.60499 0.0
C1320 C 0.7938 0.88603 0.61303 0.0
C1321 C 0.79196 0.90203 0.62187 0.0
C1322 C 0.87852 0.83385 0.62632 0.0
C1323 C 0.8378 0.86364 0.61973 0.0
C1324 C 0.90791 0.82249 0.62506 0.0
C1325 C 0.92545 0.82591 0.61609 0.0
C1326 C 0.86619 0.84807 0.61854 0.0
C1327 C 0.91163 0.83945 0.60847 0.0
C1328 C 0.81691 0.86714 0.61192 0.0
C1329 C 0.81172 0.89616 0.6296 0.0
N1330 N 0.88282 0.85007 0.60987 0.0
N1331 N 0.83408 0.87765 0.62834 0.0
H1332 H 0.1796 0.10627 0.63052 0.0
H1333 H 0.10215 0.88771 0.6076 0.0
H1334 H 0.14832 0.07951 0.60093 0.0
H1335 H 0.08367 0.9044 0.6371 0.0
H1336 H 0.13484 0.96103 0.60526 0.0
H1337 H 0.15969 0.03497 0.63313 0.0
C1338 C 0.16895 0.08553 0.62456 0.0
C1339 C 0.16521 0.09872 0.61551 0.0
C1340 C 0.12379 0.94857 0.61225 0.0
C1341 C 0.14291 0.01754 0.61845 0.0
C1342 C 0.10498 0.90671 0.61359 0.0
C1343 C 0.08909 0.88975 0.6225 0.0
C1344 C 0.12734 0.97371 0.61989 0.0
C1345 C 0.09497 0.91612 0.63008 0.0
C1346 C 0.15751 0.04491 0.62607 0.0
C1347 C 0.15125 0.07054 0.60804 0.0
N1348 N 0.11343 0.95685 0.62859 0.0
N1349 N 0.14058 0.03125 0.60968 0.0
H1350 H 0.10331 0.2129 0.60648 0.0
H1351 H 0.88625 0.07316 0.63027 0.0
H1352 H 0.08851 0.18045 0.63614 0.0
H1353 H 0.91132 0.06638 0.60066 0.0
H1354 H 0.95766 0.12487 0.63259 0.0
H1355 H 0.02987 0.1718 0.6044 0.0
C1356 C 0.0847 0.19723 0.61256 0.0
C1357 C 0.10223 0.1992 0.62144 0.0
C1358 C 0.94733 0.11218 0.62558 0.0
C1359 C 0.01813 0.15295 0.61914 0.0
C1360 C 0.90664 0.08281 0.62424 0.0
C1361 C 0.89294 0.06516 0.61527 0.0
C1362 C 0.97425 0.12442 0.61787 0.0
C1363 C 0.92069 0.07883 0.60772 0.0
C1364 C 0.04277 0.17391 0.61137 0.0
C1365 C 0.07635 0.17934 0.62914 0.0
N1366 N 0.96005 0.10765 0.60919 0.0
N1367 N 0.03554 0.15678 0.6278 0.0
H1368 H 0.75558 0.51547 0.47257 0.0
H1369 H 0.81734 0.39858 0.4361 0.0
H1370 H 0.7761 0.54791 0.44293 0.0
H1371 H 0.84728 0.40563 0.46583 0.0
H1372 H 0.79948 0.45144 0.43848 0.0
H1373 H 0.78757 0.47393 0.47042 0.0
C1374 C 0.76708 0.51417 0.46562 0.0
C1375 C 0.76221 0.53442 0.45785 0.0
C1376 C 0.81038 0.4417 0.44446 0.0
C1377 C 0.79832 0.48662 0.45535 0.0
C1378 C 0.82036 0.4114 0.44312 0.0
C1379 C 0.83355 0.3975 0.4508 0.0
C1380 C 0.81284 0.45766 0.45357 0.0
C1381 C 0.8372 0.41543 0.45972 0.0
C1382 C 0.78535 0.49047 0.46442 0.0
C1383 C 0.77805 0.53189 0.44905 0.0
N1384 N 0.82635 0.44422 0.46089 0.0
N1385 N 0.79482 0.50787 0.448 0.0
H1386 H 0.48168 0.23965 0.47218 0.0
H1387 H 0.59775 0.41908 0.43596 0.0
H1388 H 0.44587 0.23007 0.44282 0.0
H1389 H 0.59259 0.44193 0.46578 0.0
H1390 H 0.54451 0.34858 0.43838 0.0
H1391 H 0.52405 0.31325 0.47021 0.0
C1392 C 0.4824 0.253 0.46534 0.0
C1393 C 0.461 0.22851 0.45758 0.0
C1394 C 0.55476 0.36915 0.44437 0.0
C1395 C 0.50972 0.31238 0.45527 0.0
C1396 C 0.5853 0.40929 0.44301 0.0
C1397 C 0.59976 0.43629 0.45069 0.0
C1398 C 0.53916 0.3557 0.45351 0.0
C1399 C 0.5823 0.42207 0.45966 0.0
C1400 C 0.50657 0.29497 0.46423 0.0
C1401 C 0.4628 0.24753 0.44892 0.0
N1402 N 0.55325 0.38253 0.46086 0.0
N1403 N 0.4873 0.28827 0.44795 0.0
H1404 H 0.75329 0.24156 0.47269 0.0
H1405 H 0.57802 0.18292 0.43555 0.0
H1406 H 0.76715 0.22077 0.44317 0.0
H1407 H 0.55202 0.14948 0.46505 0.0
H1408 H 0.64849 0.20047 0.43823 0.0
H1409 H 0.67998 0.21023 0.47023 0.0
C1410 C 0.74096 0.23016 0.46571 0.0
C1411 C 0.76658 0.23475 0.45806 0.0
C1412 C 0.62723 0.18889 0.44409 0.0
C1413 C 0.68297 0.19944 0.45521 0.0
C1414 C 0.5871 0.1791 0.44258 0.0
C1415 C 0.55922 0.16497 0.4501 0.0
C1416 C 0.63975 0.18532 0.45322 0.0
C1417 C 0.57255 0.16029 0.45905 0.0
C1418 C 0.69913 0.21226 0.46432 0.0
C1419 C 0.74881 0.21904 0.4492 0.0
N1420 N 0.61207 0.17099 0.4604 0.0
N1421 N 0.70816 0.20267 0.44798 0.0
H1422 H 0.73097 0.47806 0.7233 0.0
H1423 H 0.84469 0.41234 0.68684 0.0
H1424 H 0.74312 0.51227 0.69377 0.0
H1425 H 0.87318 0.42654 0.71672 0.0
H1426 H 0.80624 0.44754 0.68906 0.0
H1427 H 0.78126 0.45667 0.72101 0.0
C1428 C 0.74439 0.48128 0.71635 0.0
C1429 C 0.73264 0.49668 0.7087 0.0
C1430 C 0.82123 0.44321 0.69511 0.0
C1431 C 0.78986 0.47197 0.70602 0.0
C1432 C 0.84315 0.4231 0.69386 0.0
C1433 C 0.86137 0.41557 0.70166 0.0
C1434 C 0.8171 0.45538 0.70424 0.0
C1435 C 0.85867 0.43057 0.71056 0.0
C1436 C 0.77323 0.46928 0.71506 0.0
C1437 C 0.75126 0.5005 0.69986 0.0
N1438 N 0.83638 0.44921 0.71164 0.0
N1439 N 0.77858 0.48768 0.69873 0.0
H1440 H 0.50611 0.24394 0.72184 0.0
H1441 H 0.5787 0.42585 0.68589 0.0
H1442 H 0.47684 0.2236 0.69203 0.0
H1443 H 0.55662 0.43756 0.71544 0.0
H1444 H 0.54341 0.35203 0.68783 0.0
H1445 H 0.52775 0.31572 0.71963 0.0
C1446 C 0.50403 0.25454 0.71484 0.0
C1447 C 0.48991 0.22784 0.70709 0.0
C1448 C 0.54604 0.37083 0.69386 0.0
C1449 C 0.51495 0.30989 0.70452 0.0
C1450 C 0.5662 0.41296 0.69277 0.0
C1451 C 0.57155 0.43804 0.70058 0.0
C1452 C 0.53166 0.35379 0.70284 0.0
C1453 C 0.55435 0.41958 0.70929 0.0
C1454 C 0.51617 0.29543 0.7136 0.0
C1455 C 0.48756 0.24316 0.6982 0.0
N1456 N 0.53573 0.37859 0.71023 0.0
N1457 N 0.50052 0.28334 0.69712 0.0
H1458 H 0.73945 0.24956 0.72236 0.0
H1459 H 0.5627 0.14685 0.6849 0.0
H1460 H 0.76418 0.24698 0.69256 0.0
H1461 H 0.54709 0.10832 0.71415 0.0
H1462 H 0.63627 0.18502 0.68737 0.0
H1463 H 0.66813 0.1998 0.71947 0.0
C1464 C 0.7299 0.23835 0.71522 0.0
C1465 C 0.7577 0.25261 0.70768 0.0
C1466 C 0.61667 0.16787 0.69321 0.0
C1467 C 0.67614 0.19601 0.70432 0.0
C1468 C 0.57469 0.1461 0.69182 0.0
C1469 C 0.54859 0.12515 0.6994 0.0
C1470 C 0.63251 0.16906 0.70227 0.0
C1471 C 0.56589 0.12498 0.70818 0.0
C1472 C 0.68926 0.2098 0.71358 0.0
C1473 C 0.74373 0.2368 0.69858 0.0
N1474 N 0.60673 0.14715 0.70941 0.0
N1475 N 0.70374 0.20972 0.69712 0.0
H1476 H 0.55508 0.1091 0.2166 0.0
H1477 H 0.47599 0.24916 0.19383 0.0
H1478 H 0.57201 0.14336 0.18704 0.0
H1479 H 0.50879 0.25458 0.22332 0.0
H1480 H 0.49594 0.19781 0.19117 0.0
H1481 H 0.52229 0.14961 0.219 0.0
C1482 C 0.55188 0.12504 0.2106 0.0
C1483 C 0.56738 0.12377 0.20166 0.0
C1484 C 0.49845 0.21011 0.19823 0.0
C1485 C 0.52902 0.16934 0.20434 0.0
C1486 C 0.48699 0.23928 0.19976 0.0
C1487 C 0.49114 0.25644 0.2088 0.0
C1488 C 0.51346 0.1976 0.20581 0.0
C1489 C 0.50555 0.24249 0.21623 0.0
C1490 C 0.53301 0.14802 0.21199 0.0
C1491 C 0.56102 0.14394 0.19409 0.0
N1492 N 0.51621 0.21388 0.21457 0.0
N1493 N 0.54253 0.16617 0.19561 0.0
H1494 H 0.73739 0.21839 0.19241 0.0
H1495 H 0.878 0.43611 0.21574 0.0
H1496 H 0.73345 0.24348 0.22213 0.0
H1497 H 0.84124 0.42057 0.18637 0.0
H1498 H 0.83798 0.36264 0.21792 0.0
H1499 H 0.78826 0.28996 0.18992 0.0
C1500 C 0.74751 0.23882 0.19843 0.0
C1501 C 0.73088 0.22508 0.20748 0.0
C1502 C 0.83891 0.37539 0.21099 0.0
C1503 C 0.78918 0.30658 0.20469 0.0
C1504 C 0.86161 0.41734 0.20974 0.0
C1505 C 0.86204 0.43466 0.20093 0.0
C1506 C 0.81707 0.35053 0.20333 0.0
C1507 C 0.84131 0.40858 0.19333 0.0
C1508 C 0.7764 0.2796 0.19699 0.0
C1509 C 0.74512 0.25289 0.21502 0.0
N1510 N 0.81941 0.36776 0.19472 0.0
N1511 N 0.77345 0.29235 0.21345 0.0
H1512 H 0.74585 0.47986 0.22339 0.0
H1513 H 0.56405 0.41535 0.18769 0.0
H1514 H 0.76593 0.51082 0.19366 0.0
H1515 H 0.55281 0.43162 0.21762 0.0
H1516 H 0.63779 0.44924 0.18956 0.0
H1517 H 0.67445 0.45999 0.22139 0.0
C1518 C 0.73528 0.48267 0.21645 0.0
C1519 C 0.76179 0.49672 0.20866 0.0
C1520 C 0.61914 0.44568 0.19569 0.0
C1521 C 0.68012 0.47375 0.20632 0.0
C1522 C 0.57704 0.42631 0.19464 0.0
C1523 C 0.55209 0.41971 0.20256 0.0
C1524 C 0.63631 0.45805 0.20474 0.0
C1525 C 0.57069 0.43493 0.21137 0.0
C1526 C 0.69459 0.47154 0.21533 0.0
C1527 C 0.74651 0.50007 0.19985 0.0
N1528 N 0.61165 0.45284 0.21225 0.0
N1529 N 0.70651 0.48813 0.19889 0.0
H1530 H 0.586 0.17572 0.9334 0.0
H1531 H 0.47539 0.24172 0.97067 0.0
H1532 H 0.57917 0.14438 0.96304 0.0
H1533 H 0.44238 0.22424 0.94105 0.0
H1534 H 0.51455 0.2074 0.9682 0.0
H1535 H 0.5351 0.19597 0.93609 0.0
C1536 C 0.57363 0.1729 0.94047 0.0
C1537 C 0.58704 0.15863 0.94802 0.0
C1538 C 0.49841 0.2108 0.96227 0.0
C1539 C 0.5291 0.18205 0.95115 0.0
C1540 C 0.47607 0.23041 0.96366 0.0
C1541 C 0.45638 0.23679 0.956 0.0
C1542 C 0.50145 0.19799 0.95313 0.0
C1543 C 0.45803 0.22112 0.9471 0.0
C1544 C 0.54443 0.18425 0.94198 0.0
C1545 C 0.56972 0.15528 0.95701 0.0
N1546 N 0.48073 0.203 0.94588 0.0
N1547 N 0.54201 0.16746 0.95836 0.0
H1548 H 0.81111 0.41286 0.93367 0.0
H1549 H 0.7451 0.2319 0.96968 0.0
H1550 H 0.84263 0.43371 0.96336 0.0
H1551 H 0.7621 0.2197 0.93984 0.0
H1552 H 0.77943 0.3056 0.96768 0.0
H1553 H 0.79065 0.34137 0.93581 0.0
C1554 C 0.81392 0.40244 0.94063 0.0
C1555 C 0.82831 0.42919 0.94836 0.0
C1556 C 0.77592 0.28674 0.96159 0.0
C1557 C 0.80465 0.34744 0.95087 0.0
C1558 C 0.7563 0.24467 0.96272 0.0
C1559 C 0.74979 0.21946 0.95486 0.0
C1560 C 0.78862 0.30363 0.95253 0.0
C1561 C 0.76533 0.23778 0.94604 0.0
C1562 C 0.80245 0.3617 0.94183 0.0
C1563 C 0.83164 0.4141 0.9572 0.0
N1564 N 0.78347 0.27873 0.94508 0.0
N1565 N 0.81936 0.37405 0.95825 0.0
H1566 H 0.75507 0.51095 0.97094 0.0
H1567 H 0.57518 0.40053 0.93448 0.0
H1568 H 0.76789 0.54433 0.94135 0.0
H1569 H 0.55327 0.40706 0.9643 0.0
H1570 H 0.64656 0.45135 0.93687 0.0
H1571 H 0.68141 0.4716 0.96883 0.0
C1572 C 0.74245 0.5103 0.96402 0.0
C1573 C 0.76782 0.53018 0.95625 0.0
C1574 C 0.62603 0.44196 0.94287 0.0
C1575 C 0.68372 0.48488 0.95379 0.0
C1576 C 0.58535 0.41281 0.94152 0.0
C1577 C 0.55832 0.39935 0.94922 0.0
C1578 C 0.63997 0.45721 0.95201 0.0
C1579 C 0.5731 0.41655 0.95818 0.0
C1580 C 0.7004 0.48786 0.96283 0.0
C1581 C 0.74969 0.52856 0.94747 0.0
N1582 N 0.6131 0.44423 0.95935 0.0
N1583 N 0.70877 0.50576 0.94644 0.0
H1584 H 0.42644 0.87303 0.77224 0.0
H1585 H 0.50959 0.74024 0.79708 0.0
H1586 H 0.41002 0.84332 0.80206 0.0
H1587 H 0.47682 0.72942 0.76747 0.0
H1588 H 0.48827 0.79093 0.799 0.0
H1589 H 0.46056 0.83343 0.77047 0.0
C1590 C 0.43002 0.85828 0.77842 0.0
C1591 C 0.41429 0.86054 0.78726 0.0
C1592 C 0.48608 0.7776 0.79208 0.0
C1593 C 0.45419 0.81607 0.78531 0.0
C1594 C 0.49832 0.74881 0.79097 0.0
C1595 C 0.49456 0.73029 0.78212 0.0
C1596 C 0.47065 0.78837 0.78426 0.0
C1597 C 0.47978 0.74257 0.77444 0.0
C1598 C 0.44965 0.83582 0.7774 0.0
C1599 C 0.42115 0.84192 0.79508 0.0
N1600 N 0.46833 0.77084 0.77569 0.0
N1601 N 0.4404 0.82021 0.79392 0.0
H1602 H 0.2434 0.76433 0.7959 0.0
H1603 H 0.10824 0.54487 0.77286 0.0
H1604 H 0.25019 0.73821 0.76637 0.0
H1605 H 0.14133 0.56254 0.80248 0.0
H1606 H 0.14726 0.61829 0.77051 0.0
H1607 H 0.19315 0.69262 0.79845 0.0
C1608 C 0.23403 0.74364 0.78994 0.0
C1609 C 0.25129 0.75715 0.78092 0.0
C1610 C 0.14574 0.60601 0.77753 0.0
C1611 C 0.19372 0.67547 0.78379 0.0
C1612 C 0.12361 0.5641 0.77887 0.0
C1613 C 0.12245 0.54742 0.78782 0.0
C1614 C 0.16632 0.63147 0.78521 0.0
C1615 C 0.14187 0.57404 0.79543 0.0
C1616 C 0.20549 0.70278 0.79141 0.0
C1617 C 0.23802 0.72901 0.77346 0.0
N1618 N 0.16326 0.61481 0.79394 0.0
N1619 N 0.21003 0.68947 0.77506 0.0
H1620 H 0.42159 0.57578 0.80426 0.0
H1621 H 0.24338 0.50234 0.76716 0.0
H1622 H 0.43615 0.55363 0.77489 0.0
H1623 H 0.21997 0.47552 0.79701 0.0
H1624 H 0.3148 0.52379 0.76986 0.0
H1625 H 0.34796 0.54064 0.80193 0.0
C1626 C 0.40935 0.56327 0.79734 0.0
C1627 C 0.43518 0.56855 0.78969 0.0
C1628 C 0.29394 0.51281 0.7758 0.0
C1629 C 0.35117 0.52882 0.78698 0.0
C1630 C 0.25323 0.50077 0.77427 0.0
C1631 C 0.22577 0.48739 0.78188 0.0
C1632 C 0.30745 0.51222 0.78503 0.0
C1633 C 0.24014 0.48567 0.79094 0.0
C1634 C 0.36734 0.54321 0.79603 0.0
C1635 C 0.41757 0.55137 0.78091 0.0
N1636 N 0.28017 0.4985 0.7923 0.0
N1637 N 0.37669 0.53283 0.77976 0.0
H1638 H 0.40298 0.81931 0.05673 0.0
H1639 H 0.51187 0.74895 0.02002 0.0
H1640 H 0.40922 0.84806 0.02694 0.0
H1641 H 0.54588 0.76941 0.04957 0.0
H1642 H 0.47291 0.78365 0.02222 0.0
H1643 H 0.45338 0.79825 0.05422 0.0
C1644 C 0.4151 0.82136 0.04967 0.0
C1645 C 0.4017 0.83518 0.04202 0.0
C1646 C 0.48923 0.78082 0.0282 0.0
C1647 C 0.45907 0.81085 0.0391 0.0
C1648 C 0.51145 0.761 0.02695 0.0
C1649 C 0.53137 0.75535 0.03468 0.0
C1650 C 0.48653 0.79458 0.03725 0.0
C1651 C 0.53006 0.77195 0.04347 0.0
C1652 C 0.44402 0.80957 0.04826 0.0
C1653 C 0.41869 0.83755 0.03304 0.0
N1654 N 0.50746 0.79026 0.04456 0.0
N1655 N 0.44613 0.82496 0.03179 0.0
H1656 H 0.14282 0.5602 0.0264 0.0
H1657 H 0.22666 0.77789 0.05041 0.0
H1658 H 0.17403 0.58374 0.05606 0.0
H1659 H 0.24291 0.76226 0.02072 0.0
H1660 H 0.19178 0.70428 0.05246 0.0
H1661 H 0.16429 0.63208 0.02419 0.0
C1662 C 0.15375 0.58035 0.03247 0.0
C1663 C 0.15707 0.56608 0.04142 0.0
C1664 C 0.20282 0.71705 0.04549 0.0
C1665 C 0.18121 0.64797 0.03893 0.0
C1666 C 0.22288 0.75907 0.04432 0.0
C1667 C 0.23879 0.77637 0.03544 0.0
C1668 C 0.19805 0.69212 0.0377 0.0
C1669 C 0.23167 0.75028 0.02772 0.0
C1670 C 0.16609 0.62132 0.03118 0.0
C1671 C 0.17142 0.59355 0.04902 0.0
N1672 N 0.21203 0.7094 0.02904 0.0
N1673 N 0.18303 0.63322 0.0476 0.0
H1674 H 0.4114 0.59423 0.05668 0.0
H1675 H 0.2328 0.4831 0.01989 0.0
H1676 H 0.43419 0.58482 0.02705 0.0
H1677 H 0.21803 0.45202 0.04963 0.0
H1678 H 0.30637 0.52187 0.02221 0.0
H1679 H 0.3398 0.54414 0.05423 0.0
C1680 C 0.40138 0.58147 0.04967 0.0
C1681 C 0.42873 0.59391 0.04205 0.0
C1682 C 0.28697 0.50625 0.0282 0.0
C1683 C 0.34687 0.53692 0.03918 0.0
C1684 C 0.24497 0.48415 0.0269 0.0
C1685 C 0.21909 0.46506 0.03463 0.0
C1686 C 0.3031 0.50969 0.03733 0.0
C1687 C 0.23665 0.46717 0.04352 0.0
C1688 C 0.36058 0.55274 0.04829 0.0
C1689 C 0.41413 0.57612 0.03313 0.0
N1690 N 0.27753 0.48963 0.04466 0.0
N1691 N 0.37404 0.54889 0.03191 0.0
H1692 H 0.17651 0.59337 0.55579 0.0
H1693 H 0.24403 0.48353 0.51867 0.0
H1694 H 0.14546 0.58663 0.52614 0.0
H1695 H 0.22388 0.44889 0.54819 0.0
H1696 H 0.21003 0.5231 0.52106 0.0
H1697 H 0.19722 0.5428 0.55311 0.0
C1698 C 0.17388 0.58111 0.54873 0.0
C1699 C 0.15949 0.59439 0.54117 0.0
C1700 C 0.21279 0.50651 0.52698 0.0
C1701 C 0.18344 0.53687 0.53804 0.0
C1702 C 0.2322 0.48394 0.52563 0.0
C1703 C 0.23772 0.46366 0.5333 0.0
C1704 C 0.19934 0.50918 0.53608 0.0
C1705 C 0.22143 0.46499 0.54214 0.0
C1706 C 0.18548 0.55211 0.54721 0.0
C1707 C 0.15642 0.57725 0.53217 0.0
N1708 N 0.20353 0.48791 0.54333 0.0
N1709 N 0.16883 0.54972 0.53082 0.0
H1710 H 0.40723 0.55837 0.52469 0.0
H1711 H 0.546 0.77649 0.54798 0.0
H1712 H 0.40211 0.58377 0.55434 0.0
H1713 H 0.50942 0.76081 0.51859 0.0
H1714 H 0.50653 0.703 0.55014 0.0
H1715 H 0.45776 0.63006 0.52218 0.0
C1716 C 0.41704 0.57889 0.53069 0.0
C1717 C 0.40017 0.56521 0.53973 0.0
C1718 C 0.50738 0.71572 0.54321 0.0
C1719 C 0.45806 0.64681 0.53691 0.0
C1720 C 0.52976 0.75767 0.54197 0.0
C1721 C 0.53007 0.77495 0.53316 0.0
C1722 C 0.48571 0.6908 0.53554 0.0
C1723 C 0.50956 0.74883 0.52555 0.0
C1724 C 0.44572 0.61974 0.52924 0.0
C1725 C 0.41398 0.59313 0.54724 0.0
N1726 N 0.48795 0.70799 0.52693 0.0
N1727 N 0.44213 0.63264 0.54566 0.0
H1728 H 0.43397 0.85002 0.52507 0.0
H1729 H 0.21729 0.77042 0.54924 0.0
H1730 H 0.41045 0.81908 0.55475 0.0
H1731 H 0.23136 0.75053 0.51968 0.0
H1732 H 0.29092 0.80439 0.55115 0.0
H1733 H 0.36219 0.82914 0.52289 0.0
C1734 C 0.41384 0.83926 0.53114 0.0
C1735 C 0.42808 0.83587 0.54009 0.0
C1736 C 0.27781 0.79276 0.54424 0.0
C1737 C 0.34636 0.81249 0.53764 0.0
C1738 C 0.23578 0.77322 0.54314 0.0
C1739 C 0.21802 0.75653 0.53435 0.0
C1740 C 0.3023 0.79626 0.53645 0.0
C1741 C 0.24371 0.76243 0.52662 0.0
C1742 C 0.37294 0.82727 0.52988 0.0
C1743 C 0.40065 0.82174 0.54771 0.0
N1744 N 0.28463 0.78161 0.52787 0.0
N1745 N 0.36107 0.81054 0.54631 0.0
H1746 H 0.25274 0.47668 0.29945 0.0
H1747 H 0.11483 0.55383 0.27467 0.0
H1748 H 0.26102 0.50714 0.26972 0.0
H1749 H 0.14693 0.57355 0.30433 0.0
H1750 H 0.1555 0.52085 0.27293 0.0
H1751 H 0.20121 0.49684 0.30142 0.0
C1752 C 0.24345 0.48721 0.29332 0.0
C1753 C 0.26148 0.49065 0.28442 0.0
C1754 C 0.1534 0.53224 0.27982 0.0
C1755 C 0.20243 0.51322 0.28663 0.0
C1756 C 0.13033 0.55122 0.28082 0.0
C1757 C 0.12841 0.56756 0.2896 0.0
C1758 C 0.17412 0.52895 0.28769 0.0
C1759 C 0.14803 0.56192 0.2974 0.0
C1760 C 0.21418 0.49879 0.29447 0.0
C1761 C 0.24826 0.50446 0.27673 0.0
N1762 N 0.17032 0.54328 0.29625 0.0
N1763 N 0.21953 0.51527 0.27801 0.0
H1764 H 0.48228 0.74186 0.26837 0.0
H1765 H 0.41721 0.5669 0.30602 0.0
H1766 H 0.51326 0.76791 0.29798 0.0
H1767 H 0.43757 0.55109 0.2766 0.0
H1768 H 0.45044 0.64025 0.30341 0.0
H1769 H 0.4627 0.67099 0.27126 0.0
C1770 C 0.48514 0.73271 0.27547 0.0
C1771 C 0.49917 0.76074 0.28295 0.0
C1772 C 0.4479 0.62067 0.29755 0.0
C1773 C 0.47651 0.67973 0.28632 0.0
C1774 C 0.42893 0.57881 0.29903 0.0
C1775 C 0.42366 0.55267 0.29145 0.0
C1776 C 0.46118 0.63635 0.28841 0.0
C1777 C 0.43981 0.56989 0.28258 0.0
C1778 C 0.47419 0.69233 0.2771 0.0
C1779 C 0.50257 0.74728 0.292 0.0
N1780 N 0.45727 0.6106 0.28126 0.0
N1781 N 0.49077 0.70756 0.29347 0.0
H1782 H 0.42531 0.84446 0.3041 0.0
H1783 H 0.2463 0.73056 0.26759 0.0
H1784 H 0.43835 0.87563 0.27438 0.0
H1785 H 0.22363 0.73854 0.2973 0.0
H1786 H 0.31744 0.78207 0.26998 0.0
H1787 H 0.35167 0.80464 0.30195 0.0
C1788 C 0.41273 0.84325 0.29714 0.0
C1789 C 0.43816 0.86261 0.28935 0.0
C1790 C 0.29679 0.77286 0.27595 0.0
C1791 C 0.35412 0.81679 0.28685 0.0
C1792 C 0.25625 0.7433 0.27461 0.0
C1793 C 0.2291 0.73004 0.28228 0.0
C1794 C 0.31047 0.78871 0.28506 0.0
C1795 C 0.24358 0.74786 0.2912 0.0
C1796 C 0.37071 0.82054 0.29593 0.0
C1797 C 0.4201 0.86027 0.28052 0.0
N1798 N 0.28347 0.77593 0.29238 0.0
N1799 N 0.37922 0.83722 0.27947 0.0
loop_
_geom_bond_atom_site_label_1
_geom_bond_atom_site_label_2
_geom_bond_distance
_geom_bond_site_symmetry_2
_ccdc_geom_bond_type
Mg0 O1 2.028 . S
Mg0 O7 1.986 . S
Mg0 O9 2.114 . S
Mg0 O10 2.251 . S
Mg0 O13 2.010 . S
O1 Mg0 2.028 . S
O1 C4 1.250 . S
O2 Mg3 2.028 . S
O2 C4 1.248 . S
Mg3 O2 2.028 . S
Mg3 O8 2.032 . S
Mg3 O10 2.079 . S
C4 O1 1.250 . S
C4 O2 1.248 . S
C5 O6 1.264 . S
C5 O13 1.249 . S
O6 C5 1.264 . S
O7 Mg0 1.986 . S
O7 C11 1.246 . S
O8 Mg3 2.032 . S
O8 C11 1.259 . S
O9 Mg0 2.114 . S
O9 C12 1.252 1_545 S
O10 Mg0 2.251 . S
O10 Mg3 2.079 . S
O10 C12 1.273 1_545 S
C11 O7 1.246 . S
C11 O8 1.259 . S
C12 O9 1.252 1_565 S
C12 O10 1.273 1_565 S
O13 Mg0 2.010 . S
O13 C5 1.249 . S
Mg14 O15 2.028 . S
Mg14 O21 1.986 . S
Mg14 O23 2.114 . S
Mg14 O24 2.251 . S
Mg14 O27 2.010 . S
O15 Mg14 2.028 . S
O15 C18 1.250 . S
O16 Mg17 2.028 . S
O16 C18 1.248 . S
Mg17 O16 2.028 . S
Mg17 O22 2.032 . S
Mg17 O24 2.079 . S
C18 O15 1.250 . S
C18 O16 1.248 . S
C19 O20 1.264 . S
C19 O27 1.249 . S
O20 C19 1.264 . S
O21 Mg14 1.986 . S
O21 C25 1.246 . S
O22 Mg17 2.032 . S
O22 C25 1.259 . S
O23 Mg14 2.114 . S
O23 C26 1.252 1_655 S
O24 Mg14 2.251 . S
O24 Mg17 2.079 . S
O24 C26 1.273 1_655 S
C25 O21 1.246 . S
C25 O22 1.259 . S
C26 O23 1.252 1_455 S
C26 O24 1.273 1_455 S
O27 Mg14 2.010 . S
O27 C19 1.249 . S
Mg28 O29 2.028 . S
Mg28 O35 1.986 . S
Mg28 O37 2.114 . S
Mg28 O38 2.251 . S
Mg28 O41 2.010 . S
O29 Mg28 2.028 . S
O29 C32 1.250 . S
O30 Mg31 2.028 . S
O30 C32 1.248 . S
Mg31 O30 2.028 . S
Mg31 O36 2.032 . S
Mg31 O38 2.079 . S
C32 O29 1.250 . S
C32 O30 1.248 . S
C33 O34 1.264 . S
C33 O41 1.249 . S
O34 C33 1.264 . S
O35 Mg28 1.986 . S
O35 C39 1.246 . S
O36 Mg31 2.032 . S
O36 C39 1.259 . S
O37 Mg28 2.114 . S
O37 C40 1.252 . S
O38 Mg28 2.251 . S
O38 Mg31 2.079 . S
O38 C40 1.273 . S
C39 O35 1.246 . S
C39 O36 1.259 . S
C40 O37 1.252 . S
C40 O38 1.273 . S
O41 Mg28 2.010 . S
O41 C33 1.249 . S
Mg42 O43 2.028 . S
Mg42 O49 1.986 . S
Mg42 O51 2.114 . S
Mg42 O52 2.251 . S
Mg42 O55 2.010 . S
O43 Mg42 2.028 . S
O43 C46 1.250 . S
O44 Mg45 2.028 . S
O44 C46 1.248 . S
Mg45 O44 2.028 . S
Mg45 O50 2.032 . S
Mg45 O52 2.079 . S
C46 O43 1.250 . S
C46 O44 1.248 . S
C47 O48 1.264 . S
C47 O55 1.249 . S
O48 C47 1.264 . S
O49 Mg42 1.986 . S
O49 C53 1.246 . S
O50 Mg45 2.032 . S
O50 C53 1.259 . S
O51 Mg42 2.114 . S
O51 C54 1.252 1_455 S
O52 Mg42 2.251 . S
O52 Mg45 2.079 . S
O52 C54 1.273 1_455 S
C53 O49 1.246 . S
C53 O50 1.259 . S
C54 O51 1.252 1_655 S
C54 O52 1.273 1_655 S
O55 Mg42 2.010 . S
O55 C47 1.249 . S
Mg56 O57 2.028 . S
Mg56 O63 1.986 . S
Mg56 O65 2.114 . S
Mg56 O66 2.251 . S
Mg56 O69 2.010 . S
O57 Mg56 2.028 . S
O57 C60 1.250 . S
O58 Mg59 2.028 . S
O58 C60 1.248 . S
Mg59 O58 2.028 . S
Mg59 O64 2.032 . S
Mg59 O66 2.079 . S
C60 O57 1.250 . S
C60 O58 1.248 . S
C61 O62 1.264 . S
C61 O69 1.249 . S
O62 C61 1.264 . S
O63 Mg56 1.986 . S
O63 C67 1.246 . S
O64 Mg59 2.032 . S
O64 C67 1.259 . S
O65 Mg56 2.114 . S
O65 C68 1.252 . S
O66 Mg56 2.251 . S
O66 Mg59 2.079 . S
O66 C68 1.273 . S
C67 O63 1.246 . S
C67 O64 1.259 . S
C68 O65 1.252 . S
C68 O66 1.273 . S
O69 Mg56 2.010 . S
O69 C61 1.249 . S
Mg70 O71 2.028 . S
Mg70 O77 1.986 . S
Mg70 O79 2.114 . S
Mg70 O80 2.251 . S
Mg70 O83 2.010 . S
O71 Mg70 2.028 . S
O71 C74 1.250 . S
O72 Mg73 2.028 . S
O72 C74 1.248 . S
Mg73 O72 2.028 . S
Mg73 O78 2.032 . S
Mg73 O80 2.079 . S
C74 O71 1.250 . S
C74 O72 1.248 . S
C75 O76 1.264 . S
C75 O83 1.249 . S
O76 C75 1.264 . S
O77 Mg70 1.986 . S
O77 C81 1.246 . S
O78 Mg73 2.032 . S
O78 C81 1.259 . S
O79 Mg70 2.114 . S
O79 C82 1.252 1_565 S
O80 Mg70 2.251 . S
O80 Mg73 2.079 . S
O80 C82 1.273 1_565 S
C81 O77 1.246 . S
C81 O78 1.259 . S
C82 O79 1.252 1_545 S
C82 O80 1.273 1_545 S
O83 Mg70 2.010 . S
O83 C75 1.249 . S
Mg84 O85 2.028 . S
Mg84 O91 1.986 . S
Mg84 O93 2.114 . S
Mg84 O94 2.251 . S
Mg84 O97 2.010 . S
O85 Mg84 2.028 . S
O85 C88 1.250 . S
O86 Mg87 2.028 . S
O86 C88 1.248 . S
Mg87 O86 2.028 . S
Mg87 O92 2.032 . S
Mg87 O94 2.079 . S
C88 O85 1.250 . S
C88 O86 1.248 . S
C89 O90 1.264 . S
C89 O97 1.249 . S
O90 C89 1.264 . S
O91 Mg84 1.986 . S
O91 C95 1.246 . S
O92 Mg87 2.032 . S
O92 C95 1.259 . S
O93 Mg84 2.114 . S
O93 C96 1.252 1_565 S
O94 Mg84 2.251 . S
O94 Mg87 2.079 . S
O94 C96 1.273 1_565 S
C95 O91 1.246 . S
C95 O92 1.259 . S
C96 O93 1.252 1_545 S
C96 O94 1.273 1_545 S
O97 Mg84 2.010 . S
O97 C89 1.249 . S
Mg98 O99 2.028 . S
Mg98 O105 1.986 . S
Mg98 O107 2.114 . S
Mg98 O108 2.251 . S
Mg98 O111 2.010 . S
O99 Mg98 2.028 . S
O99 C102 1.250 . S
O100 Mg101 2.028 . S
O100 C102 1.248 . S
Mg101 O100 2.028 . S
Mg101 O106 2.032 . S
Mg101 O108 2.079 . S
C102 O99 1.250 . S
C102 O100 1.248 . S
C103 O104 1.264 . S
C103 O111 1.249 . S
O104 C103 1.264 . S
O105 Mg98 1.986 . S
O105 C109 1.246 . S
O106 Mg101 2.032 . S
O106 C109 1.259 . S
O107 Mg98 2.114 . S
O107 C110 1.252 1_455 S
O108 Mg98 2.251 . S
O108 Mg101 2.079 . S
O108 C110 1.273 1_455 S
C109 O105 1.246 . S
C109 O106 1.259 . S
C110 O107 1.252 1_655 S
C110 O108 1.273 1_655 S
O111 Mg98 2.010 . S
O111 C103 1.249 . S
Mg112 O113 2.028 . S
Mg112 O119 1.986 . S
Mg112 O121 2.114 . S
Mg112 O122 2.251 . S
Mg112 O125 2.010 . S
O113 Mg112 2.028 . S
O113 C116 1.250 . S
O114 Mg115 2.028 . S
O114 C116 1.248 . S
Mg115 O114 2.028 . S
Mg115 O120 2.032 . S
Mg115 O122 2.079 . S
C116 O113 1.250 . S
C116 O114 1.248 . S
C117 O118 1.264 . S
C117 O125 1.249 . S
O118 C117 1.264 . S
O119 Mg112 1.986 . S
O119 C123 1.246 . S
O120 Mg115 2.032 . S
O120 C123 1.259 . S
O121 Mg112 2.114 . S
O121 C124 1.252 . S
O122 Mg112 2.251 . S
O122 Mg115 2.079 . S
O122 C124 1.273 . S
C123 O119 1.246 . S
C123 O120 1.259 . S
C124 O121 1.252 . S
C124 O122 1.273 . S
O125 Mg112 2.010 . S
O125 C117 1.249 . S
Mg126 O127 2.028 . S
Mg126 O133 1.986 . S
Mg126 O135 2.114 . S
Mg126 O136 2.251 . S
Mg126 O139 2.010 . S
O127 Mg126 2.028 . S
O127 C130 1.250 . S
O128 Mg129 2.028 . S
O128 C130 1.248 . S
Mg129 O128 2.028 . S
Mg129 O134 2.032 . S
Mg129 O136 2.079 . S
C130 O127 1.250 . S
C130 O128 1.248 . S
C131 O132 1.264 . S
C131 O139 1.249 . S
O132 C131 1.264 . S
O133 Mg126 1.986 . S
O133 C137 1.246 . S
O134 Mg129 2.032 . S
O134 C137 1.259 . S
O135 Mg126 2.114 . S
O135 C138 1.252 1_655 S
O136 Mg126 2.251 . S
O136 Mg129 2.079 . S
O136 C138 1.273 1_655 S
C137 O133 1.246 . S
C137 O134 1.259 . S
C138 O135 1.252 1_455 S
C138 O136 1.273 1_455 S
O139 Mg126 2.010 . S
O139 C131 1.249 . S
Mg140 O141 2.028 . S
Mg140 O147 1.986 . S
Mg140 O149 2.114 . S
Mg140 O150 2.251 . S
Mg140 O153 2.010 . S
O141 Mg140 2.028 . S
O141 C144 1.250 . S
O142 Mg143 2.028 . S
O142 C144 1.248 . S
Mg143 O142 2.028 . S
Mg143 O148 2.032 . S
Mg143 O150 2.079 . S
C144 O141 1.250 . S
C144 O142 1.248 . S
C145 O146 1.264 . S
C145 O153 1.249 . S
O146 C145 1.264 . S
O147 Mg140 1.986 . S
O147 C151 1.246 . S
O148 Mg143 2.032 . S
O148 C151 1.259 . S
O149 Mg140 2.114 . S
O149 C152 1.252 . S
O150 Mg140 2.251 . S
O150 Mg143 2.079 . S
O150 C152 1.273 . S
C151 O147 1.246 . S
C151 O148 1.259 . S
C152 O149 1.252 . S
C152 O150 1.273 . S
O153 Mg140 2.010 . S
O153 C145 1.249 . S
Mg154 O155 2.028 . S
Mg154 O161 1.986 . S
Mg154 O163 2.114 . S
Mg154 O164 2.251 . S
Mg154 O167 2.010 . S
O155 Mg154 2.028 . S
O155 C158 1.250 . S
O156 Mg157 2.028 . S
O156 C158 1.248 . S
Mg157 O156 2.028 . S
Mg157 O162 2.032 . S
Mg157 O164 2.079 . S
C158 O155 1.250 . S
C158 O156 1.248 . S
C159 O160 1.264 . S
C159 O167 1.249 . S
O160 C159 1.264 . S
O161 Mg154 1.986 . S
O161 C165 1.246 . S
O162 Mg157 2.032 . S
O162 C165 1.259 . S
O163 Mg154 2.114 . S
O163 C166 1.252 1_545 S
O164 Mg154 2.251 . S
O164 Mg157 2.079 . S
O164 C166 1.273 1_545 S
C165 O161 1.246 . S
C165 O162 1.259 . S
C166 O163 1.252 1_565 S
C166 O164 1.273 1_565 S
O167 Mg154 2.010 . S
O167 C159 1.249 . S
Mg168 O169 2.028 . S
Mg168 O175 1.986 . S
Mg168 O177 2.114 . S
Mg168 O178 2.251 . S
Mg168 O181 2.010 . S
O169 Mg168 2.028 . S
O169 C172 1.250 . S
O170 Mg171 2.028 . S
O170 C172 1.248 . S
Mg171 O170 2.028 . S
Mg171 O176 2.032 . S
Mg171 O178 2.079 . S
C172 O169 1.250 . S
C172 O170 1.248 . S
C173 O174 1.264 . S
C173 O181 1.249 . S
O174 C173 1.264 . S
O175 Mg168 1.986 . S
O175 C179 1.246 . S
O176 Mg171 2.032 . S
O176 C179 1.259 . S
O177 Mg168 2.114 . S
O177 C180 1.252 . S
O178 Mg168 2.251 . S
O178 Mg171 2.079 . S
O178 C180 1.273 . S
C179 O175 1.246 . S
C179 O176 1.259 . S
C180 O177 1.252 . S
C180 O178 1.273 . S
O181 Mg168 2.010 . S
O181 C173 1.249 . S
Mg182 O183 2.028 . S
Mg182 O189 1.986 . S
Mg182 O191 2.114 . S
Mg182 O192 2.251 . S
Mg182 O195 2.010 . S
O183 Mg182 2.028 . S
O183 C186 1.250 . S
O184 Mg185 2.028 . S
O184 C186 1.248 . S
Mg185 O184 2.028 . S
Mg185 O190 2.032 . S
Mg185 O192 2.079 . S
C186 O183 1.250 . S
C186 O184 1.248 . S
C187 O188 1.264 . S
C187 O195 1.249 . S
O188 C187 1.264 . S
O189 Mg182 1.986 . S
O189 C193 1.246 . S
O190 Mg185 2.032 . S
O190 C193 1.259 . S
O191 Mg182 2.114 . S
O191 C194 1.252 . S
O192 Mg182 2.251 . S
O192 Mg185 2.079 . S
O192 C194 1.273 . S
C193 O189 1.246 . S
C193 O190 1.259 . S
C194 O191 1.252 . S
C194 O192 1.273 . S
O195 Mg182 2.010 . S
O195 C187 1.249 . S
Mg196 O197 2.028 . S
Mg196 O203 1.986 . S
Mg196 O205 2.114 . S
Mg196 O206 2.251 . S
Mg196 O209 2.010 . S
O197 Mg196 2.028 . S
O197 C200 1.250 . S
O198 Mg199 2.028 . S
O198 C200 1.248 . S
Mg199 O198 2.028 . S
Mg199 O204 2.032 . S
Mg199 O206 2.079 . S
C200 O197 1.250 . S
C200 O198 1.248 . S
C201 O202 1.264 . S
C201 O209 1.249 . S
O202 C201 1.264 . S
O203 Mg196 1.986 . S
O203 C207 1.246 . S
O204 Mg199 2.032 . S
O204 C207 1.259 . S
O205 Mg196 2.114 . S
O205 C208 1.252 . S
O206 Mg196 2.251 . S
O206 Mg199 2.079 . S
O206 C208 1.273 . S
C207 O203 1.246 . S
C207 O204 1.259 . S
C208 O205 1.252 . S
C208 O206 1.273 . S
O209 Mg196 2.010 . S
O209 C201 1.249 . S
Mg210 O211 2.028 . S
Mg210 O217 1.986 . S
Mg210 O219 2.114 . S
Mg210 O220 2.251 . S
Mg210 O223 2.010 . S
O211 Mg210 2.028 . S
O211 C214 1.250 . S
O212 Mg213 2.028 . S
O212 C214 1.248 . S
Mg213 O212 2.028 . S
Mg213 O218 2.032 . S
Mg213 O220 2.079 . S
C214 O211 1.250 . S
C214 O212 1.248 . S
C215 O216 1.264 . S
C215 O223 1.249 . S
O216 C215 1.264 . S
O217 Mg210 1.986 . S
O217 C221 1.246 . S
O218 Mg213 2.032 . S
O218 C221 1.259 . S
O219 Mg210 2.114 . S
O219 C222 1.252 . S
O220 Mg210 2.251 . S
O220 Mg213 2.079 . S
O220 C222 1.273 . S
C221 O217 1.246 . S
C221 O218 1.259 . S
C222 O219 1.252 . S
C222 O220 1.273 . S
O223 Mg210 2.010 . S
O223 C215 1.249 . S
Mg224 O225 2.028 . S
Mg224 O231 1.986 . S
Mg224 O233 2.114 . S
Mg224 O234 2.251 . S
Mg224 O237 2.010 . S
O225 Mg224 2.028 . S
O225 C228 1.250 . S
O226 Mg227 2.028 . S
O226 C228 1.248 . S
Mg227 O226 2.028 . S
Mg227 O232 2.032 . S
Mg227 O234 2.079 . S
C228 O225 1.250 . S
C228 O226 1.248 . S
C229 O230 1.264 . S
C229 O237 1.249 . S
O230 C229 1.264 . S
O231 Mg224 1.986 . S
O231 C235 1.246 . S
O232 Mg227 2.032 . S
O232 C235 1.259 . S
O233 Mg224 2.114 . S
O233 C236 1.252 . S
O234 Mg224 2.251 . S
O234 Mg227 2.079 . S
O234 C236 1.273 . S
C235 O231 1.246 . S
C235 O232 1.259 . S
C236 O233 1.252 . S
C236 O234 1.273 . S
O237 Mg224 2.010 . S
O237 C229 1.249 . S
Mg238 O239 2.028 . S
Mg238 O245 1.986 . S
Mg238 O247 2.114 . S
Mg238 O248 2.251 . S
Mg238 O251 2.010 . S
O239 Mg238 2.028 . S
O239 C242 1.250 . S
O240 Mg241 2.028 . S
O240 C242 1.248 . S
Mg241 O240 2.028 . S
Mg241 O246 2.032 . S
Mg241 O248 2.079 . S
C242 O239 1.250 . S
C242 O240 1.248 . S
C243 O244 1.264 . S
C243 O251 1.249 . S
O244 C243 1.264 . S
O245 Mg238 1.986 . S
O245 C249 1.246 . S
O246 Mg241 2.032 . S
O246 C249 1.259 . S
O247 Mg238 2.114 . S
O247 C250 1.252 . S
O248 Mg238 2.251 . S
O248 Mg241 2.079 . S
O248 C250 1.273 . S
C249 O245 1.246 . S
C249 O246 1.259 . S
C250 O247 1.252 . S
C250 O248 1.273 . S
O251 Mg238 2.010 . S
O251 C243 1.249 . S
Mg252 O253 2.028 . S
Mg252 O259 1.986 . S
Mg252 O261 2.114 . S
Mg252 O262 2.251 . S
Mg252 O265 2.010 . S
O253 Mg252 2.028 . S
O253 C256 1.250 . S
O254 Mg255 2.028 . S
O254 C256 1.248 . S
Mg255 O254 2.028 . S
Mg255 O260 2.032 . S
Mg255 O262 2.079 . S
C256 O253 1.250 . S
C256 O254 1.248 . S
C257 O258 1.264 . S
C257 O265 1.249 . S
O258 C257 1.264 . S
O259 Mg252 1.986 . S
O259 C263 1.246 . S
O260 Mg255 2.032 . S
O260 C263 1.259 . S
O261 Mg252 2.114 . S
O261 C264 1.252 . S
O262 Mg252 2.251 . S
O262 Mg255 2.079 . S
O262 C264 1.273 . S
C263 O259 1.246 . S
C263 O260 1.259 . S
C264 O261 1.252 . S
C264 O262 1.273 . S
O265 Mg252 2.010 . S
O265 C257 1.249 . S
Mg266 O267 2.028 . S
Mg266 O273 1.986 . S
Mg266 O275 2.114 . S
Mg266 O276 2.251 . S
Mg266 O279 2.010 . S
O267 Mg266 2.028 . S
O267 C270 1.250 . S
O268 Mg269 2.028 . S
O268 C270 1.248 . S
Mg269 O268 2.028 . S
Mg269 O274 2.032 . S
Mg269 O276 2.079 . S
C270 O267 1.250 . S
C270 O268 1.248 . S
C271 O272 1.264 . S
C271 O279 1.249 . S
O272 C271 1.264 . S
O273 Mg266 1.986 . S
O273 C277 1.246 . S
O274 Mg269 2.032 . S
O274 C277 1.259 . S
O275 Mg266 2.114 . S
O275 C278 1.252 . S
O276 Mg266 2.251 . S
O276 Mg269 2.079 . S
O276 C278 1.273 . S
C277 O273 1.246 . S
C277 O274 1.259 . S
C278 O275 1.252 . S
C278 O276 1.273 . S
O279 Mg266 2.010 . S
O279 C271 1.249 . S
Mg280 O281 2.028 . S
Mg280 O287 1.986 . S
Mg280 O289 2.114 . S
Mg280 O290 2.251 . S
Mg280 O293 2.010 . S
O281 Mg280 2.028 . S
O281 C284 1.250 . S
O282 Mg283 2.028 . S
O282 C284 1.248 . S
Mg283 O282 2.028 . S
Mg283 O288 2.032 . S
Mg283 O290 2.079 . S
C284 O281 1.250 . S
C284 O282 1.248 . S
C285 O286 1.264 . S
C285 O293 1.249 . S
O286 C285 1.264 . S
O287 Mg280 1.986 . S
O287 C291 1.246 . S
O288 Mg283 2.032 . S
O288 C291 1.259 . S
O289 Mg280 2.114 . S
O289 C292 1.252 . S
O290 Mg280 2.251 . S
O290 Mg283 2.079 . S
O290 C292 1.273 . S
C291 O287 1.246 . S
C291 O288 1.259 . S
C292 O289 1.252 . S
C292 O290 1.273 . S
O293 Mg280 2.010 . S
O293 C285 1.249 . S
Mg294 O295 2.028 . S
Mg294 O301 1.986 . S
Mg294 O303 2.114 . S
Mg294 O304 2.251 . S
Mg294 O307 2.010 . S
O295 Mg294 2.028 . S
O295 C298 1.250 . S
O296 Mg297 2.028 . S
O296 C298 1.248 . S
Mg297 O296 2.028 . S
Mg297 O302 2.032 . S
Mg297 O304 2.079 . S
C298 O295 1.250 . S
C298 O296 1.248 . S
C299 O300 1.264 . S
C299 O307 1.249 . S
O300 C299 1.264 . S
O301 Mg294 1.986 . S
O301 C305 1.246 . S
O302 Mg297 2.032 . S
O302 C305 1.259 . S
O303 Mg294 2.114 . S
O303 C306 1.252 . S
O304 Mg294 2.251 . S
O304 Mg297 2.079 . S
O304 C306 1.273 . S
C305 O301 1.246 . S
C305 O302 1.259 . S
C306 O303 1.252 . S
C306 O304 1.273 . S
O307 Mg294 2.010 . S
O307 C299 1.249 . S
Mg308 O309 2.028 . S
Mg308 O315 1.986 . S
Mg308 O317 2.114 . S
Mg308 O318 2.251 . S
Mg308 O321 2.010 . S
O309 Mg308 2.028 . S
O309 C312 1.250 . S
O310 Mg311 2.028 . S
O310 C312 1.248 . S
Mg311 O310 2.028 . S
Mg311 O316 2.032 . S
Mg311 O318 2.079 . S
C312 O309 1.250 . S
C312 O310 1.248 . S
C313 O314 1.264 . S
C313 O321 1.249 . S
O314 C313 1.264 . S
O315 Mg308 1.986 . S
O315 C319 1.246 . S
O316 Mg311 2.032 . S
O316 C319 1.259 . S
O317 Mg308 2.114 . S
O317 C320 1.252 . S
O318 Mg308 2.251 . S
O318 Mg311 2.079 . S
O318 C320 1.273 . S
C319 O315 1.246 . S
C319 O316 1.259 . S
C320 O317 1.252 . S
C320 O318 1.273 . S
O321 Mg308 2.010 . S
O321 C313 1.249 . S
Mg322 O323 2.028 . S
Mg322 O329 1.986 . S
Mg322 O331 2.114 . S
Mg322 O332 2.251 . S
Mg322 O335 2.010 . S
O323 Mg322 2.028 . S
O323 C326 1.250 . S
O324 Mg325 2.028 . S
O324 C326 1.248 . S
Mg325 O324 2.028 . S
Mg325 O330 2.032 . S
Mg325 O332 2.079 . S
C326 O323 1.250 . S
C326 O324 1.248 . S
C327 O328 1.264 . S
C327 O335 1.249 . S
O328 C327 1.264 . S
O329 Mg322 1.986 . S
O329 C333 1.246 . S
O330 Mg325 2.032 . S
O330 C333 1.259 . S
O331 Mg322 2.114 . S
O331 C334 1.252 . S
O332 Mg322 2.251 . S
O332 Mg325 2.079 . S
O332 C334 1.273 . S
C333 O329 1.246 . S
C333 O330 1.259 . S
C334 O331 1.252 . S
C334 O332 1.273 . S
O335 Mg322 2.010 . S
O335 C327 1.249 . S
Mg336 O337 2.028 . S
Mg336 O343 1.986 . S
Mg336 O345 2.114 . S
Mg336 O346 2.251 . S
Mg336 O349 2.010 . S
O337 Mg336 2.028 . S
O337 C340 1.250 . S
O338 Mg339 2.028 . S
O338 C340 1.248 . S
Mg339 O338 2.028 . S
Mg339 O344 2.032 . S
Mg339 O346 2.079 . S
C340 O337 1.250 . S
C340 O338 1.248 . S
C341 O342 1.264 . S
C341 O349 1.249 . S
O342 C341 1.264 . S
O343 Mg336 1.986 . S
O343 C347 1.246 . S
O344 Mg339 2.032 . S
O344 C347 1.259 . S
O345 Mg336 2.114 . S
O345 C348 1.252 . S
O346 Mg336 2.251 . S
O346 Mg339 2.079 . S
O346 C348 1.273 . S
C347 O343 1.246 . S
C347 O344 1.259 . S
C348 O345 1.252 . S
C348 O346 1.273 . S
O349 Mg336 2.010 . S
O349 C341 1.249 . S
Mg350 O351 2.028 . S
Mg350 O357 1.986 . S
Mg350 O359 2.114 . S
Mg350 O360 2.251 . S
Mg350 O363 2.010 . S
O351 Mg350 2.028 . S
O351 C354 1.250 . S
O352 Mg353 2.028 . S
O352 C354 1.248 . S
Mg353 O352 2.028 . S
Mg353 O358 2.032 . S
Mg353 O360 2.079 . S
C354 O351 1.250 . S
C354 O352 1.248 . S
C355 O356 1.264 . S
C355 O363 1.249 . S
O356 C355 1.264 . S
O357 Mg350 1.986 . S
O357 C361 1.246 . S
O358 Mg353 2.032 . S
O358 C361 1.259 . S
O359 Mg350 2.114 . S
O359 C362 1.252 . S
O360 Mg350 2.251 . S
O360 Mg353 2.079 . S
O360 C362 1.273 . S
C361 O357 1.246 . S
C361 O358 1.259 . S
C362 O359 1.252 . S
C362 O360 1.273 . S
O363 Mg350 2.010 . S
O363 C355 1.249 . S
Mg364 O365 2.028 . S
Mg364 O371 1.986 . S
Mg364 O373 2.114 . S
Mg364 O374 2.251 . S
Mg364 O377 2.010 . S
O365 Mg364 2.028 . S
O365 C368 1.250 . S
O366 Mg367 2.028 . S
O366 C368 1.248 . S
Mg367 O366 2.028 . S
Mg367 O372 2.032 . S
Mg367 O374 2.079 . S
C368 O365 1.250 . S
C368 O366 1.248 . S
C369 O370 1.264 . S
C369 O377 1.249 . S
O370 C369 1.264 . S
O371 Mg364 1.986 . S
O371 C375 1.246 . S
O372 Mg367 2.032 . S
O372 C375 1.259 . S
O373 Mg364 2.114 . S
O373 C376 1.252 . S
O374 Mg364 2.251 . S
O374 Mg367 2.079 . S
O374 C376 1.273 . S
C375 O371 1.246 . S
C375 O372 1.259 . S
C376 O373 1.252 . S
C376 O374 1.273 . S
O377 Mg364 2.010 . S
O377 C369 1.249 . S
Mg378 O379 2.028 . S
Mg378 O385 1.986 . S
Mg378 O387 2.114 . S
Mg378 O388 2.251 . S
Mg378 O391 2.010 . S
O379 Mg378 2.028 . S
O379 C382 1.250 . S
O380 Mg381 2.028 . S
O380 C382 1.248 . S
Mg381 O380 2.028 . S
Mg381 O386 2.032 . S
Mg381 O388 2.079 . S
C382 O379 1.250 . S
C382 O380 1.248 . S
C383 O384 1.264 . S
C383 O391 1.249 . S
O384 C383 1.264 . S
O385 Mg378 1.986 . S
O385 C389 1.246 . S
O386 Mg381 2.032 . S
O386 C389 1.259 . S
O387 Mg378 2.114 . S
O387 C390 1.252 . S
O388 Mg378 2.251 . S
O388 Mg381 2.079 . S
O388 C390 1.273 . S
C389 O385 1.246 . S
C389 O386 1.259 . S
C390 O387 1.252 . S
C390 O388 1.273 . S
O391 Mg378 2.010 . S
O391 C383 1.249 . S
Mg392 O393 2.028 . S
Mg392 O399 1.986 . S
Mg392 O401 2.114 . S
Mg392 O402 2.251 . S
Mg392 O405 2.010 . S
O393 Mg392 2.028 . S
O393 C396 1.250 . S
O394 Mg395 2.028 . S
O394 C396 1.248 . S
Mg395 O394 2.028 . S
Mg395 O400 2.032 . S
Mg395 O402 2.079 . S
C396 O393 1.250 . S
C396 O394 1.248 . S
C397 O398 1.264 . S
C397 O405 1.249 . S
O398 C397 1.264 . S
O399 Mg392 1.986 . S
O399 C403 1.246 . S
O400 Mg395 2.032 . S
O400 C403 1.259 . S
O401 Mg392 2.114 . S
O401 C404 1.252 . S
O402 Mg392 2.251 . S
O402 Mg395 2.079 . S
O402 C404 1.273 . S
C403 O399 1.246 . S
C403 O400 1.259 . S
C404 O401 1.252 . S
C404 O402 1.273 . S
O405 Mg392 2.010 . S
O405 C397 1.249 . S
Mg406 O407 2.028 . S
Mg406 O413 1.986 . S
Mg406 O415 2.114 . S
Mg406 O416 2.251 . S
Mg406 O419 2.010 . S
O407 Mg406 2.028 . S
O407 C410 1.250 . S
O408 Mg409 2.028 . S
O408 C410 1.248 . S
Mg409 O408 2.028 . S
Mg409 O414 2.032 . S
Mg409 O416 2.079 . S
C410 O407 1.250 . S
C410 O408 1.248 . S
C411 O412 1.264 . S
C411 O419 1.249 . S
O412 C411 1.264 . S
O413 Mg406 1.986 . S
O413 C417 1.246 . S
O414 Mg409 2.032 . S
O414 C417 1.259 . S
O415 Mg406 2.114 . S
O415 C418 1.252 . S
O416 Mg406 2.251 . S
O416 Mg409 2.079 . S
O416 C418 1.273 . S
C417 O413 1.246 . S
C417 O414 1.259 . S
C418 O415 1.252 . S
C418 O416 1.273 . S
O419 Mg406 2.010 . S
O419 C411 1.249 . S
Mg420 O421 2.028 . S
Mg420 O427 1.986 . S
Mg420 O429 2.114 . S
Mg420 O430 2.251 . S
Mg420 O433 2.010 . S
O421 Mg420 2.028 . S
O421 C424 1.250 . S
O422 Mg423 2.028 . S
O422 C424 1.248 . S
Mg423 O422 2.028 . S
Mg423 O428 2.032 . S
Mg423 O430 2.079 . S
C424 O421 1.250 . S
C424 O422 1.248 . S
C425 O426 1.264 . S
C425 O433 1.249 . S
O426 C425 1.264 . S
O427 Mg420 1.986 . S
O427 C431 1.246 . S
O428 Mg423 2.032 . S
O428 C431 1.259 . S
O429 Mg420 2.114 . S
O429 C432 1.252 . S
O430 Mg420 2.251 . S
O430 Mg423 2.079 . S
O430 C432 1.273 . S
C431 O427 1.246 . S
C431 O428 1.259 . S
C432 O429 1.252 . S
C432 O430 1.273 . S
O433 Mg420 2.010 . S
O433 C425 1.249 . S
Mg434 O435 2.028 . S
Mg434 O441 1.986 . S
Mg434 O443 2.114 . S
Mg434 O444 2.251 . S
Mg434 O447 2.010 . S
O435 Mg434 2.028 . S
O435 C438 1.250 . S
O436 Mg437 2.028 . S
O436 C438 1.248 . S
Mg437 O436 2.028 . S
Mg437 O442 2.032 . S
Mg437 O444 2.079 . S
C438 O435 1.250 . S
C438 O436 1.248 . S
C439 O440 1.264 . S
C439 O447 1.249 . S
O440 C439 1.264 . S
O441 Mg434 1.986 . S
O441 C445 1.246 . S
O442 Mg437 2.032 . S
O442 C445 1.259 . S
O443 Mg434 2.114 . S
O443 C446 1.252 . S
O444 Mg434 2.251 . S
O444 Mg437 2.079 . S
O444 C446 1.273 . S
C445 O441 1.246 . S
C445 O442 1.259 . S
C446 O443 1.252 . S
C446 O444 1.273 . S
O447 Mg434 2.010 . S
O447 C439 1.249 . S
Mg448 O449 2.028 . S
Mg448 O455 1.986 . S
Mg448 O457 2.114 . S
Mg448 O458 2.251 . S
Mg448 O461 2.010 . S
O449 Mg448 2.028 . S
O449 C452 1.250 . S
O450 Mg451 2.028 . S
O450 C452 1.248 . S
Mg451 O450 2.028 . S
Mg451 O456 2.032 . S
Mg451 O458 2.079 . S
C452 O449 1.250 . S
C452 O450 1.248 . S
C453 O454 1.264 . S
C453 O461 1.249 . S
O454 C453 1.264 . S
O455 Mg448 1.986 . S
O455 C459 1.246 . S
O456 Mg451 2.032 . S
O456 C459 1.259 . S
O457 Mg448 2.114 . S
O457 C460 1.252 . S
O458 Mg448 2.251 . S
O458 Mg451 2.079 . S
O458 C460 1.273 . S
C459 O455 1.246 . S
C459 O456 1.259 . S
C460 O457 1.252 . S
C460 O458 1.273 . S
O461 Mg448 2.010 . S
O461 C453 1.249 . S
Mg462 O463 2.028 . S
Mg462 O469 1.986 . S
Mg462 O471 2.114 . S
Mg462 O472 2.251 . S
Mg462 O475 2.010 . S
O463 Mg462 2.028 . S
O463 C466 1.250 . S
O464 Mg465 2.028 . S
O464 C466 1.248 . S
Mg465 O464 2.028 . S
Mg465 O470 2.032 . S
Mg465 O472 2.079 . S
C466 O463 1.250 . S
C466 O464 1.248 . S
C467 O468 1.264 . S
C467 O475 1.249 . S
O468 C467 1.264 . S
O469 Mg462 1.986 . S
O469 C473 1.246 . S
O470 Mg465 2.032 . S
O470 C473 1.259 . S
O471 Mg462 2.114 . S
O471 C474 1.252 . S
O472 Mg462 2.251 . S
O472 Mg465 2.079 . S
O472 C474 1.273 . S
C473 O469 1.246 . S
C473 O470 1.259 . S
C474 O471 1.252 . S
C474 O472 1.273 . S
O475 Mg462 2.010 . S
O475 C467 1.249 . S
Mg476 O477 2.028 . S
Mg476 O483 1.986 . S
Mg476 O485 2.114 . S
Mg476 O486 2.251 . S
Mg476 O489 2.010 . S
O477 Mg476 2.028 . S
O477 C480 1.250 . S
O478 Mg479 2.028 . S
O478 C480 1.248 . S
Mg479 O478 2.028 . S
Mg479 O484 2.032 . S
Mg479 O486 2.079 . S
C480 O477 1.250 . S
C480 O478 1.248 . S
C481 O482 1.264 . S
C481 O489 1.249 . S
O482 C481 1.264 . S
O483 Mg476 1.986 . S
O483 C487 1.246 . S
O484 Mg479 2.032 . S
O484 C487 1.259 . S
O485 Mg476 2.114 . S
O485 C488 1.252 . S
O486 Mg476 2.251 . S
O486 Mg479 2.079 . S
O486 C488 1.273 . S
C487 O483 1.246 . S
C487 O484 1.259 . S
C488 O485 1.252 . S
C488 O486 1.273 . S
O489 Mg476 2.010 . S
O489 C481 1.249 . S
Mg490 O491 2.028 . S
Mg490 O497 1.986 . S
Mg490 O499 2.114 . S
Mg490 O500 2.251 . S
Mg490 O503 2.010 . S
O491 Mg490 2.028 . S
O491 C494 1.250 . S
O492 Mg493 2.028 . S
O492 C494 1.248 . S
Mg493 O492 2.028 . S
Mg493 O498 2.032 . S
Mg493 O500 2.079 . S
C494 O491 1.250 . S
C494 O492 1.248 . S
C495 O496 1.264 . S
C495 O503 1.249 . S
O496 C495 1.264 . S
O497 Mg490 1.986 . S
O497 C501 1.246 . S
O498 Mg493 2.032 . S
O498 C501 1.259 . S
O499 Mg490 2.114 . S
O499 C502 1.252 . S
O500 Mg490 2.251 . S
O500 Mg493 2.079 . S
O500 C502 1.273 . S
C501 O497 1.246 . S
C501 O498 1.259 . S
C502 O499 1.252 . S
C502 O500 1.273 . S
O503 Mg490 2.010 . S
O503 C495 1.249 . S
H504 C510 0.930 . S
H505 C514 0.930 . S
H506 C519 0.929 . S
H507 C517 0.929 . S
H508 C512 0.929 . S
H509 C518 0.929 . S
C510 H504 0.930 . S
C510 C511 1.367 . S
C510 C518 1.378 . S
C511 C510 1.367 . S
C511 C519 1.433 . S
C512 H508 0.929 . S
C512 C514 1.378 . S
C512 C516 1.350 . S
C513 C516 1.463 . S
C513 C518 1.350 . S
C513 N521 1.427 . S
C514 H505 0.930 . S
C514 C512 1.378 . S
C514 C515 1.367 . S
C515 C514 1.367 . S
C515 C517 1.433 . S
C516 C512 1.350 . S
C516 C513 1.463 . S
C516 N520 1.427 . S
C517 H507 0.929 . S
C517 C515 1.433 . S
C517 N520 1.384 . S
C518 H509 0.929 . S
C518 C510 1.378 . S
C518 C513 1.350 . S
C519 H506 0.929 . S
C519 C511 1.433 . S
C519 N521 1.384 . S
N520 C516 1.427 . S
N520 C517 1.384 . S
N521 C513 1.427 . S
N521 C519 1.384 . S
H522 C528 0.930 . S
H523 C532 0.930 . S
H524 C537 0.929 . S
H525 C535 0.929 . S
H526 C530 0.929 . S
H527 C536 0.929 . S
C528 H522 0.930 . S
C528 C529 1.367 . S
C528 C536 1.378 . S
C529 C528 1.367 . S
C529 C537 1.433 . S
C530 H526 0.929 . S
C530 C532 1.378 . S
C530 C534 1.350 . S
C531 C534 1.463 . S
C531 C536 1.350 . S
C531 N539 1.427 . S
C532 H523 0.930 . S
C532 C530 1.378 . S
C532 C533 1.367 . S
C533 C532 1.367 . S
C533 C535 1.433 . S
C534 C530 1.350 . S
C534 C531 1.463 . S
C534 N538 1.427 . S
C535 H525 0.929 . S
C535 C533 1.433 . S
C535 N538 1.384 . S
C536 H527 0.929 . S
C536 C528 1.378 . S
C536 C531 1.350 . S
C537 H524 0.929 . S
C537 C529 1.433 . S
C537 N539 1.384 . S
N538 C534 1.427 . S
N538 C535 1.384 . S
N539 C531 1.427 . S
N539 C537 1.384 . S
H540 C546 0.930 . S
H541 C550 0.930 . S
H542 C555 0.929 . S
H543 C553 0.929 . S
H544 C548 0.929 . S
H545 C554 0.929 . S
C546 H540 0.930 . S
C546 C547 1.367 . S
C546 C554 1.378 . S
C547 C546 1.367 . S
C547 C555 1.433 . S
C548 H544 0.929 . S
C548 C550 1.378 . S
C548 C552 1.350 . S
C549 C552 1.463 . S
C549 C554 1.350 . S
C549 N557 1.427 . S
C550 H541 0.930 . S
C550 C548 1.378 . S
C550 C551 1.367 . S
C551 C550 1.367 . S
C551 C553 1.433 . S
C552 C548 1.350 . S
C552 C549 1.463 . S
C552 N556 1.427 . S
C553 H543 0.929 . S
C553 C551 1.433 . S
C553 N556 1.384 . S
C554 H545 0.929 . S
C554 C546 1.378 . S
C554 C549 1.350 . S
C555 H542 0.929 . S
C555 C547 1.433 . S
C555 N557 1.384 . S
N556 C552 1.427 . S
N556 C553 1.384 . S
N557 C549 1.427 . S
N557 C555 1.384 . S
H558 C564 0.930 . S
H559 C568 0.930 . S
H560 C573 0.929 . S
H561 C571 0.929 . S
H562 C566 0.929 . S
H563 C572 0.929 . S
C564 H558 0.930 . S
C564 C565 1.367 . S
C564 C572 1.378 . S
C565 C564 1.367 . S
C565 C573 1.433 . S
C566 H562 0.929 . S
C566 C568 1.378 . S
C566 C570 1.350 . S
C567 C570 1.463 . S
C567 C572 1.350 . S
C567 N575 1.427 . S
C568 H559 0.930 . S
C568 C566 1.378 . S
C568 C569 1.367 . S
C569 C568 1.367 . S
C569 C571 1.433 . S
C570 C566 1.350 . S
C570 C567 1.463 . S
C570 N574 1.427 . S
C571 H561 0.929 . S
C571 C569 1.433 . S
C571 N574 1.384 . S
C572 H563 0.929 . S
C572 C564 1.378 . S
C572 C567 1.350 . S
C573 H560 0.929 . S
C573 C565 1.433 . S
C573 N575 1.384 . S
N574 C570 1.427 . S
N574 C571 1.384 . S
N575 C567 1.427 . S
N575 C573 1.384 . S
H576 C582 0.930 . S
H577 C586 0.930 . S
H578 C591 0.929 . S
H579 C589 0.929 . S
H580 C584 0.929 . S
H581 C590 0.929 . S
C582 H576 0.930 . S
C582 C583 1.367 . S
C582 C590 1.378 . S
C583 C582 1.367 . S
C583 C591 1.433 . S
C584 H580 0.929 . S
C584 C586 1.378 . S
C584 C588 1.350 . S
C585 C588 1.463 . S
C585 C590 1.350 . S
C585 N593 1.427 . S
C586 H577 0.930 . S
C586 C584 1.378 . S
C586 C587 1.367 . S
C587 C586 1.367 . S
C587 C589 1.433 . S
C588 C584 1.350 . S
C588 C585 1.463 . S
C588 N592 1.427 . S
C589 H579 0.929 . S
C589 C587 1.433 . S
C589 N592 1.384 . S
C590 H581 0.929 . S
C590 C582 1.378 . S
C590 C585 1.350 . S
C591 H578 0.929 . S
C591 C583 1.433 . S
C591 N593 1.384 . S
N592 C588 1.427 . S
N592 C589 1.384 . S
N593 C585 1.427 . S
N593 C591 1.384 . S
H594 C600 0.930 . S
H595 C604 0.930 . S
H596 C609 0.929 . S
H597 C607 0.929 . S
H598 C602 0.929 . S
H599 C608 0.929 . S
C600 H594 0.930 . S
C600 C601 1.367 . S
C600 C608 1.378 . S
C601 C600 1.367 . S
C601 C609 1.433 . S
C602 H598 0.929 . S
C602 C604 1.378 . S
C602 C606 1.350 . S
C603 C606 1.463 . S
C603 C608 1.350 . S
C603 N611 1.427 . S
C604 H595 0.930 . S
C604 C602 1.378 . S
C604 C605 1.367 . S
C605 C604 1.367 . S
C605 C607 1.433 . S
C606 C602 1.350 . S
C606 C603 1.463 . S
C606 N610 1.427 . S
C607 H597 0.929 . S
C607 C605 1.433 . S
C607 N610 1.384 . S
C608 H599 0.929 . S
C608 C600 1.378 . S
C608 C603 1.350 . S
C609 H596 0.929 . S
C609 C601 1.433 . S
C609 N611 1.384 . S
N610 C606 1.427 . S
N610 C607 1.384 . S
N611 C603 1.427 . S
N611 C609 1.384 . S
H612 C618 0.930 . S
H613 C622 0.930 . S
H614 C627 0.929 . S
H615 C625 0.929 . S
H616 C620 0.929 . S
H617 C626 0.929 . S
C618 H612 0.930 . S
C618 C619 1.367 . S
C618 C626 1.378 . S
C619 C618 1.367 . S
C619 C627 1.433 . S
C620 H616 0.929 . S
C620 C622 1.378 . S
C620 C624 1.350 . S
C621 C624 1.463 . S
C621 C626 1.350 . S
C621 N629 1.427 . S
C622 H613 0.930 . S
C622 C620 1.378 . S
C622 C623 1.367 . S
C623 C622 1.367 . S
C623 C625 1.433 . S
C624 C620 1.350 . S
C624 C621 1.463 . S
C624 N628 1.427 . S
C625 H615 0.929 . S
C625 C623 1.433 . S
C625 N628 1.384 . S
C626 H617 0.929 . S
C626 C618 1.378 . S
C626 C621 1.350 . S
C627 H614 0.929 . S
C627 C619 1.433 . S
C627 N629 1.384 . S
N628 C624 1.427 . S
N628 C625 1.384 . S
N629 C621 1.427 . S
N629 C627 1.384 . S
H630 C636 0.930 . S
H631 C640 0.930 . S
H632 C645 0.929 . S
H633 C643 0.929 . S
H634 C638 0.929 . S
H635 C644 0.929 . S
C636 H630 0.930 . S
C636 C637 1.367 . S
C636 C644 1.378 . S
C637 C636 1.367 . S
C637 C645 1.433 . S
C638 H634 0.929 . S
C638 C640 1.378 . S
C638 C642 1.350 . S
C639 C642 1.463 . S
C639 C644 1.350 . S
C639 N647 1.427 . S
C640 H631 0.930 . S
C640 C638 1.378 . S
C640 C641 1.367 . S
C641 C640 1.367 . S
C641 C643 1.433 . S
C642 C638 1.350 . S
C642 C639 1.463 . S
C642 N646 1.427 . S
C643 H633 0.929 . S
C643 C641 1.433 . S
C643 N646 1.384 . S
C644 H635 0.929 . S
C644 C636 1.378 . S
C644 C639 1.350 . S
C645 H632 0.929 . S
C645 C637 1.433 . S
C645 N647 1.384 . S
N646 C642 1.427 . S
N646 C643 1.384 . S
N647 C639 1.427 . S
N647 C645 1.384 . S
H648 C654 0.930 . S
H649 C658 0.930 . S
H650 C663 0.929 . S
H651 C661 0.929 . S
H652 C656 0.929 . S
H653 C662 0.929 . S
C654 H648 0.930 . S
C654 C655 1.367 . S
C654 C662 1.378 . S
C655 C654 1.367 . S
C655 C663 1.433 . S
C656 H652 0.929 . S
C656 C658 1.378 . S
C656 C660 1.350 . S
C657 C660 1.463 . S
C657 C662 1.350 . S
C657 N665 1.427 . S
C658 H649 0.930 . S
C658 C656 1.378 . S
C658 C659 1.367 . S
C659 C658 1.367 . S
C659 C661 1.433 . S
C660 C656 1.350 . S
C660 C657 1.463 . S
C660 N664 1.427 . S
C661 H651 0.929 . S
C661 C659 1.433 . S
C661 N664 1.384 . S
C662 H653 0.929 . S
C662 C654 1.378 . S
C662 C657 1.350 . S
C663 H650 0.929 . S
C663 C655 1.433 . S
C663 N665 1.384 . S
N664 C660 1.427 . S
N664 C661 1.384 . S
N665 C657 1.427 . S
N665 C663 1.384 . S
H666 C672 0.930 . S
H667 C676 0.930 . S
H668 C681 0.929 . S
H669 C679 0.929 . S
H670 C674 0.929 . S
H671 C680 0.929 . S
C672 H666 0.930 . S
C672 C673 1.367 . S
C672 C680 1.378 . S
C673 C672 1.367 . S
C673 C681 1.433 . S
C674 H670 0.929 . S
C674 C676 1.378 . S
C674 C678 1.350 . S
C675 C678 1.463 . S
C675 C680 1.350 . S
C675 N683 1.427 . S
C676 H667 0.930 . S
C676 C674 1.378 . S
C676 C677 1.367 . S
C677 C676 1.367 . S
C677 C679 1.433 . S
C678 C674 1.350 . S
C678 C675 1.463 . S
C678 N682 1.427 . S
C679 H669 0.929 . S
C679 C677 1.433 . S
C679 N682 1.384 . S
C680 H671 0.929 . S
C680 C672 1.378 . S
C680 C675 1.350 . S
C681 H668 0.929 . S
C681 C673 1.433 . S
C681 N683 1.384 . S
N682 C678 1.427 . S
N682 C679 1.384 . S
N683 C675 1.427 . S
N683 C681 1.384 . S
H684 C690 0.930 . S
H685 C694 0.930 . S
H686 C699 0.929 . S
H687 C697 0.929 . S
H688 C692 0.929 . S
H689 C698 0.929 . S
C690 H684 0.930 . S
C690 C691 1.367 . S
C690 C698 1.378 . S
C691 C690 1.367 . S
C691 C699 1.433 . S
C692 H688 0.929 . S
C692 C694 1.378 . S
C692 C696 1.350 . S
C693 C696 1.463 . S
C693 C698 1.350 . S
C693 N701 1.427 . S
C694 H685 0.930 . S
C694 C692 1.378 . S
C694 C695 1.367 . S
C695 C694 1.367 . S
C695 C697 1.433 . S
C696 C692 1.350 . S
C696 C693 1.463 . S
C696 N700 1.427 . S
C697 H687 0.929 . S
C697 C695 1.433 . S
C697 N700 1.384 . S
C698 H689 0.929 . S
C698 C690 1.378 . S
C698 C693 1.350 . S
C699 H686 0.929 . S
C699 C691 1.433 . S
C699 N701 1.384 . S
N700 C696 1.427 . S
N700 C697 1.384 . S
N701 C693 1.427 . S
N701 C699 1.384 . S
H702 C708 0.930 . S
H703 C712 0.930 . S
H704 C717 0.929 . S
H705 C715 0.929 . S
H706 C710 0.929 . S
H707 C716 0.929 . S
C708 H702 0.930 . S
C708 C709 1.367 . S
C708 C716 1.378 . S
C709 C708 1.367 . S
C709 C717 1.433 . S
C710 H706 0.929 . S
C710 C712 1.378 . S
C710 C714 1.350 . S
C711 C714 1.463 . S
C711 C716 1.350 . S
C711 N719 1.427 . S
C712 H703 0.930 . S
C712 C710 1.378 . S
C712 C713 1.367 . S
C713 C712 1.367 . S
C713 C715 1.433 . S
C714 C710 1.350 . S
C714 C711 1.463 . S
C714 N718 1.427 . S
C715 H705 0.929 . S
C715 C713 1.433 . S
C715 N718 1.384 . S
C716 H707 0.929 . S
C716 C708 1.378 . S
C716 C711 1.350 . S
C717 H704 0.929 . S
C717 C709 1.433 . S
C717 N719 1.384 . S
N718 C714 1.427 . S
N718 C715 1.384 . S
N719 C711 1.427 . S
N719 C717 1.384 . S
H720 C726 0.930 . S
H721 C730 0.930 . S
H722 C735 0.930 . S
H723 C733 0.930 . S
H724 C728 0.929 . S
H725 C734 0.929 . S
C726 H720 0.930 . S
C726 C727 1.367 . S
C726 C734 1.378 . S
C727 C726 1.367 . S
C727 C735 1.432 1_455 S
C728 H724 0.929 . S
C728 C730 1.378 . S
C728 C732 1.350 . S
C729 C732 1.463 1_455 S
C729 C734 1.350 . S
C729 N737 1.427 1_455 S
C730 H721 0.930 . S
C730 C728 1.378 . S
C730 C731 1.367 . S
C731 C730 1.367 . S
C731 C733 1.432 1_655 S
C732 C728 1.350 . S
C732 C729 1.463 1_655 S
C732 N736 1.427 1_655 S
C733 H723 0.930 . S
C733 C731 1.432 1_455 S
C733 N736 1.384 . S
C734 H725 0.929 . S
C734 C726 1.378 . S
C734 C729 1.350 . S
C735 H722 0.930 . S
C735 C727 1.432 1_655 S
C735 N737 1.384 . S
N736 C732 1.427 1_455 S
N736 C733 1.384 . S
N737 C729 1.427 1_655 S
N737 C735 1.384 . S
H738 C744 0.930 . S
H739 C748 0.930 . S
H740 C753 0.929 . S
H741 C751 0.929 . S
H742 C746 0.929 . S
H743 C752 0.929 . S
C744 H738 0.930 . S
C744 C745 1.367 . S
C744 C752 1.378 . S
C745 C744 1.367 . S
C745 C753 1.433 . S
C746 H742 0.929 . S
C746 C748 1.378 . S
C746 C750 1.350 . S
C747 C750 1.463 . S
C747 C752 1.350 . S
C747 N755 1.427 . S
C748 H739 0.930 . S
C748 C746 1.378 . S
C748 C749 1.367 . S
C749 C748 1.367 . S
C749 C751 1.433 . S
C750 C746 1.350 . S
C750 C747 1.463 . S
C750 N754 1.427 . S
C751 H741 0.929 . S
C751 C749 1.433 . S
C751 N754 1.384 . S
C752 H743 0.929 . S
C752 C744 1.378 . S
C752 C747 1.350 . S
C753 H740 0.929 . S
C753 C745 1.433 . S
C753 N755 1.384 . S
N754 C750 1.427 . S
N754 C751 1.384 . S
N755 C747 1.427 . S
N755 C753 1.384 . S
H756 C762 0.930 . S
H757 C766 0.930 . S
H758 C771 0.929 . S
H759 C769 0.929 . S
H760 C764 0.915 1_545 S
H761 C770 0.915 1_565 S
C762 H756 0.930 . S
C762 C763 1.367 . S
C762 C770 1.378 . S
C763 C762 1.367 . S
C763 C771 1.433 . S
C764 H760 0.915 1_565 S
C764 C766 1.378 . S
C764 C768 1.350 . S
C765 C768 1.463 1_545 S
C765 C770 1.350 . S
C765 N773 1.427 . S
C766 H757 0.930 . S
C766 C764 1.378 . S
C766 C767 1.367 . S
C767 C766 1.367 . S
C767 C769 1.433 . S
C768 C764 1.350 . S
C768 C765 1.463 1_565 S
C768 N772 1.427 . S
C769 H759 0.929 . S
C769 C767 1.433 . S
C769 N772 1.384 . S
C770 H761 0.915 1_545 S
C770 C762 1.378 . S
C770 C765 1.350 . S
C771 H758 0.929 . S
C771 C763 1.433 . S
C771 N773 1.384 . S
N772 C768 1.427 . S
N772 C769 1.384 . S
N773 C765 1.427 . S
N773 C771 1.384 . S
H774 C780 0.930 . S
H775 C784 0.930 . S
H776 C789 0.929 . S
H777 C787 0.929 . S
H778 C782 0.929 . S
H779 C788 0.929 . S
C780 H774 0.930 . S
C780 C781 1.367 . S
C780 C788 1.378 . S
C781 C780 1.367 . S
C781 C789 1.433 . S
C782 H778 0.929 . S
C782 C784 1.378 . S
C782 C786 1.350 . S
C783 C786 1.463 1_564 S
C783 C788 1.350 . S
C783 N791 1.427 . S
C784 H775 0.930 . S
C784 C782 1.378 . S
C784 C785 1.367 . S
C785 C784 1.367 . S
C785 C787 1.433 . S
C786 C782 1.350 . S
C786 C783 1.463 1_546 S
C786 N790 1.427 . S
C787 H777 0.929 . S
C787 C785 1.433 . S
C787 N790 1.384 . S
C788 H779 0.929 . S
C788 C780 1.378 . S
C788 C783 1.350 . S
C789 H776 0.929 . S
C789 C781 1.433 . S
C789 N791 1.384 . S
N790 C786 1.427 . S
N790 C787 1.384 . S
N791 C783 1.427 . S
N791 C789 1.384 . S
H792 C798 0.930 . S
H793 C802 0.930 . S
H794 C807 0.929 1_455 S
H795 C805 0.929 1_655 S
H796 C800 0.929 1_556 S
H797 C806 0.929 1_554 S
C798 H792 0.930 . S
C798 C799 1.367 . S
C798 C806 1.378 . S
C799 C798 1.367 . S
C799 C807 1.433 . S
C800 H796 0.929 1_554 S
C800 C802 1.378 . S
C800 C804 1.350 . S
C801 C804 1.463 1_656 S
C801 C806 1.350 . S
C801 N809 1.427 1_655 S
C802 H793 0.930 . S
C802 C800 1.378 . S
C802 C803 1.367 . S
C803 C802 1.367 . S
C803 C805 1.433 . S
C804 C800 1.350 . S
C804 C801 1.463 1_454 S
C804 N808 1.427 1_455 S
C805 H795 0.929 1_455 S
C805 C803 1.433 . S
C805 N808 1.384 1_455 S
C806 H797 0.929 1_556 S
C806 C798 1.378 . S
C806 C801 1.350 . S
C807 H794 0.929 1_655 S
C807 C799 1.433 . S
C807 N809 1.384 1_655 S
N808 C804 1.427 1_655 S
N808 C805 1.384 1_655 S
N809 C801 1.427 1_455 S
N809 C807 1.384 1_455 S
H810 C816 0.930 . S
H811 C820 0.930 . S
H812 C825 0.929 . S
H813 C823 0.929 . S
H814 C818 0.929 . S
H815 C824 0.929 . S
C816 H810 0.930 . S
C816 C817 1.367 . S
C816 C824 1.378 . S
C817 C816 1.367 . S
C817 C825 1.433 . S
C818 H814 0.929 . S
C818 C820 1.378 . S
C818 C822 1.350 . S
C819 C822 1.463 1_556 S
C819 C824 1.350 . S
C819 N827 1.427 . S
C820 H811 0.930 . S
C820 C818 1.378 . S
C820 C821 1.367 . S
C821 C820 1.367 . S
C821 C823 1.433 . S
C822 C818 1.350 . S
C822 C819 1.463 1_554 S
C822 N826 1.427 . S
C823 H813 0.929 . S
C823 C821 1.433 . S
C823 N826 1.384 . S
C824 H815 0.929 . S
C824 C816 1.378 . S
C824 C819 1.350 . S
C825 H812 0.929 . S
C825 C817 1.433 . S
C825 N827 1.384 . S
N826 C822 1.427 . S
N826 C823 1.384 . S
N827 C819 1.427 . S
N827 C825 1.384 . S
H828 C834 0.930 . S
H829 C838 0.930 . S
H830 C843 0.928 1_565 S
H831 C841 0.929 1_545 S
H832 C836 0.929 . S
H833 C842 0.929 . S
C834 H828 0.930 . S
C834 C835 1.367 . S
C834 C842 1.378 . S
C835 C834 1.367 . S
C835 C843 1.444 . S
C836 H832 0.929 . S
C836 C838 1.378 . S
C836 C840 1.350 . S
C837 C840 1.463 1_545 S
C837 C842 1.350 . S
C837 N845 1.427 1_545 S
C838 H829 0.930 . S
C838 C836 1.378 . S
C838 C839 1.367 . S
C839 C838 1.367 . S
C839 C841 1.433 . S
C840 C836 1.350 . S
C840 C837 1.463 1_565 S
C840 N844 1.427 1_565 S
C841 H831 0.929 1_565 S
C841 C839 1.433 . S
C841 N844 1.384 1_565 S
C842 H833 0.929 . S
C842 C834 1.378 . S
C842 C837 1.350 . S
C843 H830 0.928 1_545 S
C843 C835 1.444 . S
C843 N845 1.374 1_545 S
N844 C840 1.427 1_545 S
N844 C841 1.384 1_545 S
N845 C837 1.427 1_565 S
N845 C843 1.374 1_565 S
H846 C852 0.930 . S
H847 C856 0.930 . S
H848 C861 0.929 . S
H849 C859 0.928 . S
H850 C854 0.929 . S
H851 C860 0.929 . S
C852 H846 0.930 . S
C852 C853 1.367 . S
C852 C860 1.378 . S
C853 C852 1.367 . S
C853 C861 1.433 . S
C854 H850 0.929 . S
C854 C856 1.378 . S
C854 C858 1.350 . S
C855 C858 1.463 1_455 S
C855 C860 1.350 . S
C855 N863 1.427 1_455 S
C856 H847 0.930 . S
C856 C854 1.378 . S
C856 C857 1.367 . S
C857 C856 1.367 . S
C857 C859 1.433 . S
C858 C854 1.350 . S
C858 C855 1.463 1_655 S
C858 N862 1.427 1_655 S
C859 H849 0.928 . S
C859 C857 1.433 . S
C859 N862 1.384 1_655 S
C860 H851 0.929 . S
C860 C852 1.378 . S
C860 C855 1.350 . S
C861 H848 0.929 . S
C861 C853 1.433 . S
C861 N863 1.384 1_455 S
N862 C858 1.427 1_455 S
N862 C859 1.384 1_455 S
N863 C855 1.427 1_655 S
N863 C861 1.384 1_655 S
H864 C870 0.930 . S
H865 C874 0.930 . S
H866 C879 0.929 . S
H867 C877 0.929 . S
H868 C872 0.929 . S
H869 C878 0.929 . S
C870 H864 0.930 . S
C870 C871 1.367 . S
C870 C878 1.378 . S
C871 C870 1.367 . S
C871 C879 1.433 . S
C872 H868 0.929 . S
C872 C874 1.378 . S
C872 C876 1.350 . S
C873 C876 1.463 . S
C873 C878 1.350 . S
C873 N881 1.427 . S
C874 H865 0.930 . S
C874 C872 1.378 . S
C874 C875 1.367 . S
C875 C874 1.367 . S
C875 C877 1.433 . S
C876 C872 1.350 . S
C876 C873 1.463 . S
C876 N880 1.427 . S
C877 H867 0.929 . S
C877 C875 1.433 . S
C877 N880 1.384 . S
C878 H869 0.929 . S
C878 C870 1.378 . S
C878 C873 1.350 . S
C879 H866 0.929 . S
C879 C871 1.433 . S
C879 N881 1.384 . S
N880 C876 1.427 . S
N880 C877 1.384 . S
N881 C873 1.427 . S
N881 C879 1.384 . S
H882 C888 0.930 . S
H883 C892 0.930 . S
H884 C897 0.929 . S
H885 C895 0.929 . S
H886 C890 0.929 . S
H887 C896 0.929 . S
C888 H882 0.930 . S
C888 C889 1.367 . S
C888 C896 1.378 . S
C889 C888 1.367 . S
C889 C897 1.433 . S
C890 H886 0.929 . S
C890 C892 1.378 . S
C890 C894 1.350 . S
C891 C894 1.463 1_655 S
C891 C896 1.350 . S
C891 N899 1.427 . S
C892 H883 0.930 . S
C892 C890 1.378 . S
C892 C893 1.367 . S
C893 C892 1.367 . S
C893 C895 1.433 . S
C894 C890 1.350 . S
C894 C891 1.463 1_455 S
C894 N898 1.427 . S
C895 H885 0.929 . S
C895 C893 1.433 . S
C895 N898 1.384 . S
C896 H887 0.929 . S
C896 C888 1.378 . S
C896 C891 1.350 . S
C897 H884 0.929 . S
C897 C889 1.433 . S
C897 N899 1.384 . S
N898 C894 1.427 . S
N898 C895 1.384 . S
N899 C891 1.427 . S
N899 C897 1.384 . S
H900 C906 0.930 . S
H901 C910 0.930 . S
H902 C915 0.929 . S
H903 C913 0.929 . S
H904 C908 0.929 . S
H905 C914 0.929 . S
C906 H900 0.930 . S
C906 C907 1.367 . S
C906 C914 1.378 . S
C907 C906 1.367 . S
C907 C915 1.433 . S
C908 H904 0.929 . S
C908 C910 1.378 . S
C908 C912 1.350 . S
C909 C912 1.463 . S
C909 C914 1.350 . S
C909 N917 1.427 . S
C910 H901 0.930 . S
C910 C908 1.378 . S
C910 C911 1.367 . S
C911 C910 1.367 . S
C911 C913 1.433 . S
C912 C908 1.350 . S
C912 C909 1.463 . S
C912 N916 1.427 . S
C913 H903 0.929 . S
C913 C911 1.433 . S
C913 N916 1.384 . S
C914 H905 0.929 . S
C914 C906 1.378 . S
C914 C909 1.350 . S
C915 H902 0.929 . S
C915 C907 1.433 . S
C915 N917 1.384 . S
N916 C912 1.427 . S
N916 C913 1.384 . S
N917 C909 1.427 . S
N917 C915 1.384 . S
H918 C924 0.930 . S
H919 C928 0.930 . S
H920 C933 0.929 . S
H921 C931 0.929 . S
H922 C926 0.929 . S
H923 C932 0.929 . S
C924 H918 0.930 . S
C924 C925 1.367 . S
C924 C932 1.378 . S
C925 C924 1.367 . S
C925 C933 1.433 . S
C926 H922 0.929 . S
C926 C928 1.378 . S
C926 C930 1.350 . S
C927 C930 1.463 1_545 S
C927 C932 1.350 . S
C927 N935 1.427 . S
C928 H919 0.930 . S
C928 C926 1.378 . S
C928 C929 1.367 . S
C929 C928 1.367 . S
C929 C931 1.433 . S
C930 C926 1.350 . S
C930 C927 1.463 1_565 S
C930 N934 1.427 . S
C931 H921 0.929 . S
C931 C929 1.433 . S
C931 N934 1.384 . S
C932 H923 0.929 . S
C932 C924 1.378 . S
C932 C927 1.350 . S
C933 H920 0.929 . S
C933 C925 1.433 . S
C933 N935 1.384 . S
N934 C930 1.427 . S
N934 C931 1.384 . S
N935 C927 1.427 . S
N935 C933 1.384 . S
H936 C942 0.930 . S
H937 C946 0.930 . S
H938 C951 0.933 . S
H939 C949 0.929 1_565 S
H940 C944 0.929 . S
H941 C950 0.929 . S
C942 H936 0.930 . S
C942 C943 1.367 . S
C942 C950 1.378 . S
C943 C942 1.367 . S
C943 C951 1.414 1_565 S
C944 H940 0.929 . S
C944 C946 1.378 . S
C944 C948 1.350 . S
C945 C948 1.463 1_565 S
C945 C950 1.350 . S
C945 N953 1.427 1_565 S
C946 H937 0.930 . S
C946 C944 1.378 . S
C946 C947 1.367 . S
C947 C946 1.367 . S
C947 C949 1.433 . S
C948 C944 1.350 . S
C948 C945 1.463 1_545 S
C948 N952 1.427 1_545 S
C949 H939 0.929 1_545 S
C949 C947 1.433 . S
C949 N952 1.384 1_545 S
C950 H941 0.929 . S
C950 C942 1.378 . S
C950 C945 1.350 . S
C951 H938 0.933 . S
C951 C943 1.414 1_545 S
C951 N953 1.399 . S
N952 C948 1.427 1_565 S
N952 C949 1.384 1_565 S
N953 C945 1.427 1_545 S
N953 C951 1.399 . S
H954 C960 0.930 . S
H955 C964 0.930 . S
H956 C969 0.929 1_455 S
H957 C967 0.917 1_655 S
H958 C962 0.929 . S
H959 C968 0.929 . S
C960 H954 0.930 . S
C960 C961 1.367 . S
C960 C968 1.378 . S
C961 C960 1.367 . S
C961 C969 1.433 . S
C962 H958 0.929 . S
C962 C964 1.378 . S
C962 C966 1.350 . S
C963 C966 1.463 1_655 S
C963 C968 1.350 . S
C963 N971 1.427 1_655 S
C964 H955 0.930 . S
C964 C962 1.378 . S
C964 C965 1.367 . S
C965 C964 1.367 . S
C965 C967 1.446 . S
C966 C962 1.350 . S
C966 C963 1.463 1_455 S
C966 N970 1.427 1_455 S
C967 H957 0.917 1_455 S
C967 C965 1.446 . S
C967 N970 1.384 1_455 S
C968 H959 0.929 . S
C968 C960 1.378 . S
C968 C963 1.350 . S
C969 H956 0.929 1_655 S
C969 C961 1.433 . S
C969 N971 1.384 1_655 S
N970 C966 1.427 1_655 S
N970 C967 1.384 1_655 S
N971 C963 1.427 1_455 S
N971 C969 1.384 1_455 S
H972 C978 0.930 . S
H973 C982 0.930 . S
H974 C987 0.929 . S
H975 C985 0.929 . S
H976 C980 0.929 . S
H977 C986 0.929 . S
C978 H972 0.930 . S
C978 C979 1.367 . S
C978 C986 1.378 . S
C979 C978 1.367 . S
C979 C987 1.433 . S
C980 H976 0.929 . S
C980 C982 1.378 . S
C980 C984 1.350 . S
C981 C984 1.463 . S
C981 C986 1.350 . S
C981 N989 1.427 . S
C982 H973 0.930 . S
C982 C980 1.378 . S
C982 C983 1.367 . S
C983 C982 1.367 . S
C983 C985 1.433 . S
C984 C980 1.350 . S
C984 C981 1.463 . S
C984 N988 1.427 . S
C985 H975 0.929 . S
C985 C983 1.433 . S
C985 N988 1.384 . S
C986 H977 0.929 . S
C986 C978 1.378 . S
C986 C981 1.350 . S
C987 H974 0.929 . S
C987 C979 1.433 . S
C987 N989 1.384 . S
N988 C984 1.427 . S
N988 C985 1.384 . S
N989 C981 1.427 . S
N989 C987 1.384 . S
H990 C996 0.930 . S
H991 C1000 0.930 . S
H992 C1005 0.929 . S
H993 C1003 0.929 . S
H994 C998 0.929 . S
H995 C1004 0.929 . S
C996 H990 0.930 . S
C996 C997 1.367 . S
C996 C1004 1.378 . S
C997 C996 1.367 . S
C997 C1005 1.433 . S
C998 H994 0.929 . S
C998 C1000 1.378 . S
C998 C1002 1.350 . S
C999 C1002 1.463 1_655 S
C999 C1004 1.350 . S
C999 N1007 1.427 1_655 S
C1000 H991 0.930 . S
C1000 C998 1.378 . S
C1000 C1001 1.367 . S
C1001 C1000 1.367 . S
C1001 C1003 1.433 . S
C1002 C998 1.350 . S
C1002 C999 1.463 1_455 S
C1002 N1006 1.427 1_455 S
C1003 H993 0.929 . S
C1003 C1001 1.433 . S
C1003 N1006 1.384 1_455 S
C1004 H995 0.929 . S
C1004 C996 1.378 . S
C1004 C999 1.350 . S
C1005 H992 0.929 . S
C1005 C997 1.433 . S
C1005 N1007 1.384 1_655 S
N1006 C1002 1.427 1_655 S
N1006 C1003 1.384 1_655 S
N1007 C999 1.427 1_455 S
N1007 C1005 1.384 1_455 S
H1008 C1014 0.930 . S
H1009 C1018 0.930 . S
H1010 C1023 0.929 . S
H1011 C1021 0.929 . S
H1012 C1016 0.929 . S
H1013 C1022 0.929 . S
C1014 H1008 0.930 . S
C1014 C1015 1.367 . S
C1014 C1022 1.378 . S
C1015 C1014 1.367 . S
C1015 C1023 1.433 . S
C1016 H1012 0.929 . S
C1016 C1018 1.378 . S
C1016 C1020 1.350 . S
C1017 C1020 1.463 . S
C1017 C1022 1.350 . S
C1017 N1025 1.427 . S
C1018 H1009 0.930 . S
C1018 C1016 1.378 . S
C1018 C1019 1.367 . S
C1019 C1018 1.367 . S
C1019 C1021 1.433 . S
C1020 C1016 1.350 . S
C1020 C1017 1.463 . S
C1020 N1024 1.427 . S
C1021 H1011 0.929 . S
C1021 C1019 1.433 . S
C1021 N1024 1.384 . S
C1022 H1013 0.929 . S
C1022 C1014 1.378 . S
C1022 C1017 1.350 . S
C1023 H1010 0.929 . S
C1023 C1015 1.433 . S
C1023 N1025 1.384 . S
N1024 C1020 1.427 . S
N1024 C1021 1.384 . S
N1025 C1017 1.427 . S
N1025 C1023 1.384 . S
H1026 C1032 0.930 . S
H1027 C1036 0.930 . S
H1028 C1041 0.929 . S
H1029 C1039 0.929 . S
H1030 C1034 0.921 1_545 S
H1031 C1040 0.929 . S
C1032 H1026 0.930 . S
C1032 C1033 1.367 . S
C1032 C1040 1.378 1_545 S
C1033 C1032 1.367 . S
C1033 C1041 1.433 . S
C1034 H1030 0.921 1_565 S
C1034 C1036 1.378 . S
C1034 C1038 1.358 . S
C1035 C1038 1.463 1_545 S
C1035 C1040 1.350 1_545 S
C1035 N1043 1.427 . S
C1036 H1027 0.930 . S
C1036 C1034 1.378 . S
C1036 C1037 1.367 . S
C1037 C1036 1.367 . S
C1037 C1039 1.433 . S
C1038 C1034 1.358 . S
C1038 C1035 1.463 1_565 S
C1038 N1042 1.427 . S
C1039 H1029 0.929 . S
C1039 C1037 1.433 . S
C1039 N1042 1.384 . S
C1040 H1031 0.929 . S
C1040 C1032 1.378 1_565 S
C1040 C1035 1.350 1_565 S
C1041 H1028 0.929 . S
C1041 C1033 1.433 . S
C1041 N1043 1.384 . S
N1042 C1038 1.427 . S
N1042 C1039 1.384 . S
N1043 C1035 1.427 . S
N1043 C1041 1.384 . S
H1044 C1050 0.930 . S
H1045 C1054 0.930 . S
H1046 C1059 0.929 . S
H1047 C1057 0.929 . S
H1048 C1052 0.929 . S
H1049 C1058 0.929 . S
C1050 H1044 0.930 . S
C1050 C1051 1.367 . S
C1050 C1058 1.378 . S
C1051 C1050 1.367 . S
C1051 C1059 1.433 . S
C1052 H1048 0.929 . S
C1052 C1054 1.378 . S
C1052 C1056 1.350 . S
C1053 C1056 1.463 . S
C1053 C1058 1.350 . S
C1053 N1061 1.427 . S
C1054 H1045 0.930 . S
C1054 C1052 1.378 . S
C1054 C1055 1.367 . S
C1055 C1054 1.367 . S
C1055 C1057 1.433 . S
C1056 C1052 1.350 . S
C1056 C1053 1.463 . S
C1056 N1060 1.427 . S
C1057 H1047 0.929 . S
C1057 C1055 1.433 . S
C1057 N1060 1.384 . S
C1058 H1049 0.929 . S
C1058 C1050 1.378 . S
C1058 C1053 1.350 . S
C1059 H1046 0.929 . S
C1059 C1051 1.433 . S
C1059 N1061 1.384 . S
N1060 C1056 1.427 . S
N1060 C1057 1.384 . S
N1061 C1053 1.427 . S
N1061 C1059 1.384 . S
H1062 C1068 0.930 . S
H1063 C1072 0.930 . S
H1064 C1077 0.929 . S
H1065 C1075 0.929 . S
H1066 C1070 0.929 . S
H1067 C1076 0.929 . S
C1068 H1062 0.930 . S
C1068 C1069 1.367 . S
C1068 C1076 1.378 . S
C1069 C1068 1.367 . S
C1069 C1077 1.433 . S
C1070 H1066 0.929 . S
C1070 C1072 1.378 . S
C1070 C1074 1.350 . S
C1071 C1074 1.463 1_545 S
C1071 C1076 1.350 . S
C1071 N1079 1.427 . S
C1072 H1063 0.930 . S
C1072 C1070 1.378 . S
C1072 C1073 1.367 . S
C1073 C1072 1.367 . S
C1073 C1075 1.433 . S
C1074 C1070 1.350 . S
C1074 C1071 1.463 1_565 S
C1074 N1078 1.427 . S
C1075 H1065 0.929 . S
C1075 C1073 1.433 . S
C1075 N1078 1.384 . S
C1076 H1067 0.929 . S
C1076 C1068 1.378 . S
C1076 C1071 1.350 . S
C1077 H1064 0.929 . S
C1077 C1069 1.433 . S
C1077 N1079 1.384 . S
N1078 C1074 1.427 . S
N1078 C1075 1.384 . S
N1079 C1071 1.427 . S
N1079 C1077 1.384 . S
H1080 C1086 0.930 . S
H1081 C1090 0.930 . S
H1082 C1095 0.929 . S
H1083 C1093 0.929 . S
H1084 C1088 0.929 . S
H1085 C1094 0.929 . S
C1086 H1080 0.930 . S
C1086 C1087 1.367 . S
C1086 C1094 1.378 . S
C1087 C1086 1.367 . S
C1087 C1095 1.433 . S
C1088 H1084 0.929 . S
C1088 C1090 1.378 . S
C1088 C1092 1.350 . S
C1089 C1092 1.463 1_655 S
C1089 C1094 1.350 . S
C1089 N1097 1.427 . S
C1090 H1081 0.930 . S
C1090 C1088 1.378 . S
C1090 C1091 1.367 . S
C1091 C1090 1.367 . S
C1091 C1093 1.433 . S
C1092 C1088 1.350 . S
C1092 C1089 1.463 1_455 S
C1092 N1096 1.427 . S
C1093 H1083 0.929 . S
C1093 C1091 1.433 . S
C1093 N1096 1.384 . S
C1094 H1085 0.929 . S
C1094 C1086 1.378 . S
C1094 C1089 1.350 . S
C1095 H1082 0.929 . S
C1095 C1087 1.433 . S
C1095 N1097 1.384 . S
N1096 C1092 1.427 . S
N1096 C1093 1.384 . S
N1097 C1089 1.427 . S
N1097 C1095 1.384 . S
H1098 C1104 0.930 . S
H1099 C1108 0.930 . S
H1100 C1113 0.929 . S
H1101 C1111 0.929 . S
H1102 C1106 0.929 . S
H1103 C1112 0.929 . S
C1104 H1098 0.930 . S
C1104 C1105 1.367 . S
C1104 C1112 1.378 . S
C1105 C1104 1.367 . S
C1105 C1113 1.433 . S
C1106 H1102 0.929 . S
C1106 C1108 1.378 . S
C1106 C1110 1.350 . S
C1107 C1110 1.463 . S
C1107 C1112 1.350 . S
C1107 N1115 1.427 . S
C1108 H1099 0.930 . S
C1108 C1106 1.378 . S
C1108 C1109 1.367 . S
C1109 C1108 1.367 . S
C1109 C1111 1.433 . S
C1110 C1106 1.350 . S
C1110 C1107 1.463 . S
C1110 N1114 1.427 . S
C1111 H1101 0.929 . S
C1111 C1109 1.433 . S
C1111 N1114 1.384 . S
C1112 H1103 0.929 . S
C1112 C1104 1.378 . S
C1112 C1107 1.350 . S
C1113 H1100 0.929 . S
C1113 C1105 1.433 . S
C1113 N1115 1.384 . S
N1114 C1110 1.427 . S
N1114 C1111 1.384 . S
N1115 C1107 1.427 . S
N1115 C1113 1.384 . S
H1116 C1122 0.930 . S
H1117 C1126 0.930 . S
H1118 C1131 0.929 . S
H1119 C1129 0.929 . S
H1120 C1124 0.929 1_565 S
H1121 C1130 0.929 1_545 S
C1122 H1116 0.930 . S
C1122 C1123 1.367 . S
C1122 C1130 1.378 . S
C1123 C1122 1.367 . S
C1123 C1131 1.433 . S
C1124 H1120 0.929 1_545 S
C1124 C1126 1.378 . S
C1124 C1128 1.350 . S
C1125 C1128 1.463 1_565 S
C1125 C1130 1.350 . S
C1125 N1133 1.427 . S
C1126 H1117 0.930 . S
C1126 C1124 1.378 . S
C1126 C1127 1.367 . S
C1127 C1126 1.367 . S
C1127 C1129 1.433 . S
C1128 C1124 1.350 . S
C1128 C1125 1.463 1_545 S
C1128 N1132 1.427 . S
C1129 H1119 0.929 . S
C1129 C1127 1.433 . S
C1129 N1132 1.384 . S
C1130 H1121 0.929 1_565 S
C1130 C1122 1.378 . S
C1130 C1125 1.350 . S
C1131 H1118 0.929 . S
C1131 C1123 1.433 . S
C1131 N1133 1.384 . S
N1132 C1128 1.427 . S
N1132 C1129 1.384 . S
N1133 C1125 1.427 . S
N1133 C1131 1.384 . S
H1134 C1140 0.930 . S
H1135 C1144 0.930 . S
H1136 C1149 0.929 . S
H1137 C1147 0.929 . S
H1138 C1142 0.929 1_655 S
H1139 C1148 0.929 1_455 S
C1140 H1134 0.930 . S
C1140 C1141 1.367 . S
C1140 C1148 1.378 . S
C1141 C1140 1.367 . S
C1141 C1149 1.433 . S
C1142 H1138 0.929 1_455 S
C1142 C1144 1.378 . S
C1142 C1146 1.350 . S
C1143 C1146 1.463 1_655 S
C1143 C1148 1.350 . S
C1143 N1151 1.427 . S
C1144 H1135 0.930 . S
C1144 C1142 1.378 . S
C1144 C1145 1.367 . S
C1145 C1144 1.367 . S
C1145 C1147 1.433 . S
C1146 C1142 1.350 . S
C1146 C1143 1.463 1_455 S
C1146 N1150 1.427 . S
C1147 H1137 0.929 . S
C1147 C1145 1.433 . S
C1147 N1150 1.384 . S
C1148 H1139 0.929 1_655 S
C1148 C1140 1.378 . S
C1148 C1143 1.350 . S
C1149 H1136 0.929 . S
C1149 C1141 1.433 . S
C1149 N1151 1.384 . S
N1150 C1146 1.427 . S
N1150 C1147 1.384 . S
N1151 C1143 1.427 . S
N1151 C1149 1.384 . S
H1152 C1158 0.930 . S
H1153 C1162 0.930 . S
H1154 C1167 0.929 1_655 S
H1155 C1165 0.929 . S
H1156 C1160 0.929 . S
H1157 C1166 0.929 . S
C1158 H1152 0.930 . S
C1158 C1159 1.367 . S
C1158 C1166 1.378 . S
C1159 C1158 1.367 . S
C1159 C1167 1.433 . S
C1160 H1156 0.929 . S
C1160 C1162 1.378 . S
C1160 C1164 1.350 . S
C1161 C1164 1.463 . S
C1161 C1166 1.350 . S
C1161 N1169 1.427 . S
C1162 H1153 0.930 . S
C1162 C1160 1.378 . S
C1162 C1163 1.367 . S
C1163 C1162 1.367 . S
C1163 C1165 1.433 . S
C1164 C1160 1.350 . S
C1164 C1161 1.463 . S
C1164 N1168 1.427 . S
C1165 H1155 0.929 . S
C1165 C1163 1.433 . S
C1165 N1168 1.384 . S
C1166 H1157 0.929 . S
C1166 C1158 1.378 . S
C1166 C1161 1.350 . S
C1167 H1154 0.929 1_455 S
C1167 C1159 1.433 . S
C1167 N1169 1.384 . S
N1168 C1164 1.427 . S
N1168 C1165 1.384 . S
N1169 C1161 1.427 . S
N1169 C1167 1.384 . S
H1170 C1176 0.930 . S
H1171 C1180 0.930 . S
H1172 C1185 0.929 . S
H1173 C1183 0.929 . S
H1174 C1178 0.929 . S
H1175 C1184 0.929 . S
C1176 H1170 0.930 . S
C1176 C1177 1.367 . S
C1176 C1184 1.378 . S
C1177 C1176 1.367 . S
C1177 C1185 1.433 . S
C1178 H1174 0.929 . S
C1178 C1180 1.378 . S
C1178 C1182 1.350 . S
C1179 C1182 1.463 . S
C1179 C1184 1.350 1_565 S
C1179 N1187 1.413 1_565 S
C1180 H1171 0.930 . S
C1180 C1178 1.378 . S
C1180 C1181 1.367 . S
C1181 C1180 1.367 . S
C1181 C1183 1.433 . S
C1182 C1178 1.350 . S
C1182 C1179 1.463 . S
C1182 N1186 1.427 . S
C1183 H1173 0.929 . S
C1183 C1181 1.433 . S
C1183 N1186 1.384 . S
C1184 H1175 0.929 . S
C1184 C1176 1.378 . S
C1184 C1179 1.350 1_545 S
C1185 H1172 0.929 . S
C1185 C1177 1.433 . S
C1185 N1187 1.405 . S
N1186 C1182 1.427 . S
N1186 C1183 1.384 . S
N1187 C1179 1.413 1_545 S
N1187 C1185 1.405 . S
H1188 C1194 0.930 . S
H1189 C1198 0.930 . S
H1190 C1203 0.929 . S
H1191 C1201 0.929 . S
H1192 C1196 0.929 . S
H1193 C1202 0.929 . S
C1194 H1188 0.930 . S
C1194 C1195 1.367 . S
C1194 C1202 1.378 . S
C1195 C1194 1.367 . S
C1195 C1203 1.433 . S
C1196 H1192 0.929 . S
C1196 C1198 1.378 . S
C1196 C1200 1.350 . S
C1197 C1200 1.463 . S
C1197 C1202 1.350 1_455 S
C1197 N1205 1.427 1_455 S
C1198 H1189 0.930 . S
C1198 C1196 1.378 . S
C1198 C1199 1.367 . S
C1199 C1198 1.367 . S
C1199 C1201 1.433 . S
C1200 C1196 1.350 . S
C1200 C1197 1.463 . S
C1200 N1204 1.427 . S
C1201 H1191 0.929 . S
C1201 C1199 1.433 . S
C1201 N1204 1.384 . S
C1202 H1193 0.929 . S
C1202 C1194 1.378 . S
C1202 C1197 1.350 1_655 S
C1203 H1190 0.929 . S
C1203 C1195 1.433 . S
C1203 N1205 1.384 . S
N1204 C1200 1.427 . S
N1204 C1201 1.384 . S
N1205 C1197 1.427 1_655 S
N1205 C1203 1.384 . S
H1206 C1212 0.930 . S
H1207 C1216 0.930 1_565 S
H1208 C1221 0.929 . S
H1209 C1219 0.929 . S
H1210 C1214 0.929 . S
H1211 C1220 0.929 . S
C1212 H1206 0.930 . S
C1212 C1213 1.367 . S
C1212 C1220 1.378 . S
C1213 C1212 1.367 . S
C1213 C1221 1.433 . S
C1214 H1210 0.929 . S
C1214 C1216 1.378 . S
C1214 C1218 1.350 . S
C1215 C1218 1.463 . S
C1215 C1220 1.350 . S
C1215 N1223 1.427 . S
C1216 H1207 0.930 1_545 S
C1216 C1214 1.378 . S
C1216 C1217 1.367 . S
C1217 C1216 1.367 . S
C1217 C1219 1.433 . S
C1218 C1214 1.350 . S
C1218 C1215 1.463 . S
C1218 N1222 1.427 . S
C1219 H1209 0.929 . S
C1219 C1217 1.433 . S
C1219 N1222 1.384 . S
C1220 H1211 0.929 . S
C1220 C1212 1.378 . S
C1220 C1215 1.350 . S
C1221 H1208 0.929 . S
C1221 C1213 1.433 . S
C1221 N1223 1.384 . S
N1222 C1218 1.427 . S
N1222 C1219 1.384 . S
N1223 C1215 1.427 . S
N1223 C1221 1.384 . S
H1224 C1230 0.930 . S
H1225 C1234 0.930 . S
H1226 C1239 0.929 . S
H1227 C1237 0.929 . S
H1228 C1232 0.929 1_545 S
H1229 C1238 0.929 . S
C1230 H1224 0.930 . S
C1230 C1231 1.367 . S
C1230 C1238 1.378 . S
C1231 C1230 1.367 . S
C1231 C1239 1.433 . S
C1232 H1228 0.929 1_565 S
C1232 C1234 1.378 . S
C1232 C1236 1.350 1_565 S
C1233 C1236 1.463 . S
C1233 C1238 1.350 . S
C1233 N1241 1.427 . S
C1234 H1225 0.930 . S
C1234 C1232 1.378 . S
C1234 C1235 1.367 . S
C1235 C1234 1.367 . S
C1235 C1237 1.433 . S
C1236 C1232 1.350 1_545 S
C1236 C1233 1.463 . S
C1236 N1240 1.427 1_545 S
C1237 H1227 0.929 . S
C1237 C1235 1.433 . S
C1237 N1240 1.384 . S
C1238 H1229 0.929 . S
C1238 C1230 1.378 . S
C1238 C1233 1.350 . S
C1239 H1226 0.929 . S
C1239 C1231 1.433 . S
C1239 N1241 1.384 . S
N1240 C1236 1.427 1_565 S
N1240 C1237 1.384 . S
N1241 C1233 1.427 . S
N1241 C1239 1.384 . S
H1242 C1248 0.930 . S
H1243 C1252 0.930 . S
H1244 C1257 0.929 . S
H1245 C1255 0.929 . S
H1246 C1250 0.929 . S
H1247 C1256 0.929 1_655 S
C1248 H1242 0.930 . S
C1248 C1249 1.367 . S
C1248 C1256 1.378 . S
C1249 C1248 1.367 . S
C1249 C1257 1.433 . S
C1250 H1246 0.929 . S
C1250 C1252 1.378 . S
C1250 C1254 1.350 . S
C1251 C1254 1.463 . S
C1251 C1256 1.350 1_655 S
C1251 N1259 1.427 1_655 S
C1252 H1243 0.930 . S
C1252 C1250 1.378 . S
C1252 C1253 1.367 . S
C1253 C1252 1.367 . S
C1253 C1255 1.433 . S
C1254 C1250 1.350 . S
C1254 C1251 1.463 . S
C1254 N1258 1.427 . S
C1255 H1245 0.929 . S
C1255 C1253 1.433 . S
C1255 N1258 1.384 . S
C1256 H1247 0.929 1_455 S
C1256 C1248 1.378 . S
C1256 C1251 1.350 1_455 S
C1257 H1244 0.929 . S
C1257 C1249 1.433 . S
C1257 N1259 1.384 . S
N1258 C1254 1.427 . S
N1258 C1255 1.384 . S
N1259 C1251 1.427 1_455 S
N1259 C1257 1.384 . S
H1260 C1266 0.930 . S
H1261 C1270 0.930 1_455 S
H1262 C1275 0.929 . S
H1263 C1273 0.929 . S
H1264 C1268 0.929 . S
H1265 C1274 0.929 . S
C1266 H1260 0.930 . S
C1266 C1267 1.367 . S
C1266 C1274 1.378 . S
C1267 C1266 1.367 . S
C1267 C1275 1.433 . S
C1268 H1264 0.929 . S
C1268 C1270 1.378 . S
C1268 C1272 1.350 . S
C1269 C1272 1.463 . S
C1269 C1274 1.350 . S
C1269 N1277 1.427 . S
C1270 H1261 0.930 1_655 S
C1270 C1268 1.378 . S
C1270 C1271 1.367 . S
C1271 C1270 1.367 . S
C1271 C1273 1.433 . S
C1272 C1268 1.350 . S
C1272 C1269 1.463 . S
C1272 N1276 1.427 . S
C1273 H1263 0.929 . S
C1273 C1271 1.433 . S
C1273 N1276 1.384 . S
C1274 H1265 0.929 . S
C1274 C1266 1.378 . S
C1274 C1269 1.350 . S
C1275 H1262 0.929 . S
C1275 C1267 1.433 . S
C1275 N1277 1.384 . S
N1276 C1272 1.427 . S
N1276 C1273 1.384 . S
N1277 C1269 1.427 . S
N1277 C1275 1.384 . S
H1278 C1284 0.930 . S
H1279 C1288 0.930 . S
H1280 C1293 0.929 . S
H1281 C1291 0.929 . S
H1282 C1286 0.929 . S
H1283 C1292 0.929 . S
C1284 H1278 0.930 . S
C1284 C1285 1.367 . S
C1284 C1292 1.378 . S
C1285 C1284 1.367 . S
C1285 C1293 1.433 . S
C1286 H1282 0.929 . S
C1286 C1288 1.378 . S
C1286 C1290 1.350 . S
C1287 C1290 1.463 . S
C1287 C1292 1.350 1_545 S
C1287 N1295 1.427 . S
C1288 H1279 0.930 . S
C1288 C1286 1.378 . S
C1288 C1289 1.367 . S
C1289 C1288 1.367 . S
C1289 C1291 1.433 . S
C1290 C1286 1.350 . S
C1290 C1287 1.463 . S
C1290 N1294 1.427 . S
C1291 H1281 0.929 . S
C1291 C1289 1.433 . S
C1291 N1294 1.384 . S
C1292 H1283 0.929 . S
C1292 C1284 1.378 . S
C1292 C1287 1.350 1_565 S
C1293 H1280 0.929 . S
C1293 C1285 1.433 . S
C1293 N1295 1.384 1_565 S
N1294 C1290 1.427 . S
N1294 C1291 1.384 . S
N1295 C1287 1.427 . S
N1295 C1293 1.384 1_545 S
H1296 C1302 0.930 . S
H1297 C1306 0.930 . S
H1298 C1311 0.929 . S
H1299 C1309 0.929 . S
H1300 C1304 0.929 . S
H1301 C1310 0.929 . S
C1302 H1296 0.930 . S
C1302 C1303 1.367 . S
C1302 C1310 1.377 1_455 S
C1303 C1302 1.367 . S
C1303 C1311 1.433 . S
C1304 H1300 0.929 . S
C1304 C1306 1.378 . S
C1304 C1308 1.350 . S
C1305 C1308 1.463 . S
C1305 C1310 1.350 . S
C1305 N1313 1.427 1_655 S
C1306 H1297 0.930 . S
C1306 C1304 1.378 . S
C1306 C1307 1.367 . S
C1307 C1306 1.367 . S
C1307 C1309 1.433 . S
C1308 C1304 1.350 . S
C1308 C1305 1.463 . S
C1308 N1312 1.427 . S
C1309 H1299 0.929 . S
C1309 C1307 1.433 . S
C1309 N1312 1.384 . S
C1310 H1301 0.929 . S
C1310 C1302 1.377 1_655 S
C1310 C1305 1.350 . S
C1311 H1298 0.929 . S
C1311 C1303 1.433 . S
C1311 N1313 1.384 . S
N1312 C1308 1.427 . S
N1312 C1309 1.384 . S
N1313 C1305 1.427 1_455 S
N1313 C1311 1.384 . S
H1314 C1320 0.915 1_545 S
H1315 C1324 0.930 . S
H1316 C1329 0.929 . S
H1317 C1327 0.929 . S
H1318 C1322 0.929 . S
H1319 C1328 0.929 . S
C1320 H1314 0.915 1_565 S
C1320 C1321 1.367 . S
C1320 C1328 1.378 . S
C1321 C1320 1.367 . S
C1321 C1329 1.433 . S
C1322 H1318 0.929 . S
C1322 C1324 1.378 . S
C1322 C1326 1.350 . S
C1323 C1326 1.463 . S
C1323 C1328 1.350 . S
C1323 N1331 1.427 . S
C1324 H1315 0.930 . S
C1324 C1322 1.378 . S
C1324 C1325 1.367 . S
C1325 C1324 1.367 . S
C1325 C1327 1.433 . S
C1326 C1322 1.350 . S
C1326 C1323 1.463 . S
C1326 N1330 1.427 . S
C1327 H1317 0.929 . S
C1327 C1325 1.433 . S
C1327 N1330 1.384 . S
C1328 H1319 0.929 . S
C1328 C1320 1.378 . S
C1328 C1323 1.350 . S
C1329 H1316 0.929 . S
C1329 C1321 1.433 . S
C1329 N1331 1.384 . S
N1330 C1326 1.427 . S
N1330 C1327 1.384 . S
N1331 C1323 1.427 . S
N1331 C1329 1.384 . S
H1332 C1338 0.930 . S
H1333 C1342 0.930 . S
H1334 C1347 0.929 . S
H1335 C1345 0.929 . S
H1336 C1340 0.929 . S
H1337 C1346 0.929 . S
C1338 H1332 0.930 . S
C1338 C1339 1.367 . S
C1338 C1346 1.378 . S
C1339 C1338 1.367 . S
C1339 C1347 1.433 . S
C1340 H1336 0.929 . S
C1340 C1342 1.378 . S
C1340 C1344 1.350 . S
C1341 C1344 1.463 . S
C1341 C1346 1.350 1_565 S
C1341 N1349 1.427 . S
C1342 H1333 0.930 . S
C1342 C1340 1.378 . S
C1342 C1343 1.367 . S
C1343 C1342 1.367 . S
C1343 C1345 1.433 . S
C1344 C1340 1.350 . S
C1344 C1341 1.463 . S
C1344 N1348 1.427 . S
C1345 H1335 0.929 . S
C1345 C1343 1.433 . S
C1345 N1348 1.384 . S
C1346 H1337 0.929 . S
C1346 C1338 1.378 . S
C1346 C1341 1.350 1_545 S
C1347 H1334 0.929 . S
C1347 C1339 1.433 . S
C1347 N1349 1.384 1_545 S
N1348 C1344 1.427 . S
N1348 C1345 1.384 . S
N1349 C1341 1.427 . S
N1349 C1347 1.384 1_565 S
H1350 C1356 0.930 . S
H1351 C1360 0.930 . S
H1352 C1365 0.929 . S
H1353 C1363 0.929 . S
H1354 C1358 0.931 . S
H1355 C1364 0.929 . S
C1356 H1350 0.930 . S
C1356 C1357 1.367 . S
C1356 C1364 1.378 . S
C1357 C1356 1.367 . S
C1357 C1365 1.433 . S
C1358 H1354 0.931 . S
C1358 C1360 1.371 1_455 S
C1358 C1362 1.355 . S
C1359 C1362 1.463 . S
C1359 C1364 1.350 . S
C1359 N1367 1.427 . S
C1360 H1351 0.930 . S
C1360 C1358 1.371 1_655 S
C1360 C1361 1.367 . S
C1361 C1360 1.367 . S
C1361 C1363 1.433 . S
C1362 C1358 1.355 . S
C1362 C1359 1.463 . S
C1362 N1366 1.427 1_455 S
C1363 H1353 0.929 . S
C1363 C1361 1.433 . S
C1363 N1366 1.384 . S
C1364 H1355 0.929 . S
C1364 C1356 1.378 . S
C1364 C1359 1.350 . S
C1365 H1352 0.929 . S
C1365 C1357 1.433 . S
C1365 N1367 1.384 . S
N1366 C1362 1.427 1_655 S
N1366 C1363 1.384 . S
N1367 C1359 1.427 . S
N1367 C1365 1.384 . S
H1368 C1374 0.930 . S
H1369 C1378 0.930 . S
H1370 C1383 0.929 . S
H1371 C1381 0.929 . S
H1372 C1376 0.929 . S
H1373 C1382 0.929 . S
C1374 H1368 0.930 . S
C1374 C1375 1.367 . S
C1374 C1382 1.378 . S
C1375 C1374 1.367 . S
C1375 C1383 1.433 . S
C1376 H1372 0.929 . S
C1376 C1378 1.378 . S
C1376 C1380 1.350 . S
C1377 C1380 1.463 . S
C1377 C1382 1.350 . S
C1377 N1385 1.427 . S
C1378 H1369 0.930 . S
C1378 C1376 1.378 . S
C1378 C1379 1.367 . S
C1379 C1378 1.367 . S
C1379 C1381 1.433 . S
C1380 C1376 1.350 . S
C1380 C1377 1.463 . S
C1380 N1384 1.427 . S
C1381 H1371 0.929 . S
C1381 C1379 1.433 . S
C1381 N1384 1.384 . S
C1382 H1373 0.929 . S
C1382 C1374 1.378 . S
C1382 C1377 1.350 . S
C1383 H1370 0.929 . S
C1383 C1375 1.433 . S
C1383 N1385 1.384 . S
N1384 C1380 1.427 . S
N1384 C1381 1.384 . S
N1385 C1377 1.427 . S
N1385 C1383 1.384 . S
H1386 C1392 0.930 . S
H1387 C1396 0.930 . S
H1388 C1401 0.929 . S
H1389 C1399 0.929 . S
H1390 C1394 0.929 . S
H1391 C1400 0.929 . S
C1392 H1386 0.930 . S
C1392 C1393 1.367 . S
C1392 C1400 1.378 . S
C1393 C1392 1.367 . S
C1393 C1401 1.433 . S
C1394 H1390 0.929 . S
C1394 C1396 1.378 . S
C1394 C1398 1.350 . S
C1395 C1398 1.463 . S
C1395 C1400 1.350 . S
C1395 N1403 1.427 . S
C1396 H1387 0.930 . S
C1396 C1394 1.378 . S
C1396 C1397 1.367 . S
C1397 C1396 1.367 . S
C1397 C1399 1.433 . S
C1398 C1394 1.350 . S
C1398 C1395 1.463 . S
C1398 N1402 1.427 . S
C1399 H1389 0.929 . S
C1399 C1397 1.433 . S
C1399 N1402 1.384 . S
C1400 H1391 0.929 . S
C1400 C1392 1.378 . S
C1400 C1395 1.350 . S
C1401 H1388 0.929 . S
C1401 C1393 1.433 . S
C1401 N1403 1.384 . S
N1402 C1398 1.427 . S
N1402 C1399 1.384 . S
N1403 C1395 1.427 . S
N1403 C1401 1.384 . S
H1404 C1410 0.930 . S
H1405 C1414 0.930 . S
H1406 C1419 0.929 . S
H1407 C1417 0.929 . S
H1408 C1412 0.929 . S
H1409 C1418 0.929 . S
C1410 H1404 0.930 . S
C1410 C1411 1.367 . S
C1410 C1418 1.378 . S
C1411 C1410 1.367 . S
C1411 C1419 1.433 . S
C1412 H1408 0.929 . S
C1412 C1414 1.378 . S
C1412 C1416 1.350 . S
C1413 C1416 1.463 . S
C1413 C1418 1.350 . S
C1413 N1421 1.427 . S
C1414 H1405 0.930 . S
C1414 C1412 1.378 . S
C1414 C1415 1.367 . S
C1415 C1414 1.367 . S
C1415 C1417 1.433 . S
C1416 C1412 1.350 . S
C1416 C1413 1.463 . S
C1416 N1420 1.427 . S
C1417 H1407 0.929 . S
C1417 C1415 1.433 . S
C1417 N1420 1.384 . S
C1418 H1409 0.929 . S
C1418 C1410 1.378 . S
C1418 C1413 1.350 . S
C1419 H1406 0.929 . S
C1419 C1411 1.433 . S
C1419 N1421 1.384 . S
N1420 C1416 1.427 . S
N1420 C1417 1.384 . S
N1421 C1413 1.427 . S
N1421 C1419 1.384 . S
H1422 C1428 0.930 . S
H1423 C1432 0.930 . S
H1424 C1437 0.929 . S
H1425 C1435 0.929 . S
H1426 C1430 0.929 . S
H1427 C1436 0.929 . S
C1428 H1422 0.930 . S
C1428 C1429 1.367 . S
C1428 C1436 1.378 . S
C1429 C1428 1.367 . S
C1429 C1437 1.433 . S
C1430 H1426 0.929 . S
C1430 C1432 1.378 . S
C1430 C1434 1.350 . S
C1431 C1434 1.463 . S
C1431 C1436 1.350 . S
C1431 N1439 1.427 . S
C1432 H1423 0.930 . S
C1432 C1430 1.378 . S
C1432 C1433 1.367 . S
C1433 C1432 1.367 . S
C1433 C1435 1.433 . S
C1434 C1430 1.350 . S
C1434 C1431 1.463 . S
C1434 N1438 1.427 . S
C1435 H1425 0.929 . S
C1435 C1433 1.433 . S
C1435 N1438 1.384 . S
C1436 H1427 0.929 . S
C1436 C1428 1.378 . S
C1436 C1431 1.350 . S
C1437 H1424 0.929 . S
C1437 C1429 1.433 . S
C1437 N1439 1.384 . S
N1438 C1434 1.427 . S
N1438 C1435 1.384 . S
N1439 C1431 1.427 . S
N1439 C1437 1.384 . S
H1440 C1446 0.930 . S
H1441 C1450 0.930 . S
H1442 C1455 0.929 . S
H1443 C1453 0.929 . S
H1444 C1448 0.929 . S
H1445 C1454 0.929 . S
C1446 H1440 0.930 . S
C1446 C1447 1.367 . S
C1446 C1454 1.378 . S
C1447 C1446 1.367 . S
C1447 C1455 1.433 . S
C1448 H1444 0.929 . S
C1448 C1450 1.378 . S
C1448 C1452 1.350 . S
C1449 C1452 1.463 . S
C1449 C1454 1.350 . S
C1449 N1457 1.427 . S
C1450 H1441 0.930 . S
C1450 C1448 1.378 . S
C1450 C1451 1.367 . S
C1451 C1450 1.367 . S
C1451 C1453 1.433 . S
C1452 C1448 1.350 . S
C1452 C1449 1.463 . S
C1452 N1456 1.427 . S
C1453 H1443 0.929 . S
C1453 C1451 1.433 . S
C1453 N1456 1.384 . S
C1454 H1445 0.929 . S
C1454 C1446 1.378 . S
C1454 C1449 1.350 . S
C1455 H1442 0.929 . S
C1455 C1447 1.433 . S
C1455 N1457 1.384 . S
N1456 C1452 1.427 . S
N1456 C1453 1.384 . S
N1457 C1449 1.427 . S
N1457 C1455 1.384 . S
H1458 C1464 0.930 . S
H1459 C1468 0.930 . S
H1460 C1473 0.929 . S
H1461 C1471 0.929 . S
H1462 C1466 0.929 . S
H1463 C1472 0.929 . S
C1464 H1458 0.930 . S
C1464 C1465 1.367 . S
C1464 C1472 1.378 . S
C1465 C1464 1.367 . S
C1465 C1473 1.433 . S
C1466 H1462 0.929 . S
C1466 C1468 1.378 . S
C1466 C1470 1.350 . S
C1467 C1470 1.463 . S
C1467 C1472 1.350 . S
C1467 N1475 1.427 . S
C1468 H1459 0.930 . S
C1468 C1466 1.378 . S
C1468 C1469 1.367 . S
C1469 C1468 1.367 . S
C1469 C1471 1.433 . S
C1470 C1466 1.350 . S
C1470 C1467 1.463 . S
C1470 N1474 1.427 . S
C1471 H1461 0.929 . S
C1471 C1469 1.433 . S
C1471 N1474 1.384 . S
C1472 H1463 0.929 . S
C1472 C1464 1.378 . S
C1472 C1467 1.350 . S
C1473 H1460 0.929 . S
C1473 C1465 1.433 . S
C1473 N1475 1.384 . S
N1474 C1470 1.427 . S
N1474 C1471 1.384 . S
N1475 C1467 1.427 . S
N1475 C1473 1.384 . S
H1476 C1482 0.930 . S
H1477 C1486 0.930 . S
H1478 C1491 0.929 . S
H1479 C1489 0.929 . S
H1480 C1484 0.929 . S
H1481 C1490 0.929 . S
C1482 H1476 0.930 . S
C1482 C1483 1.367 . S
C1482 C1490 1.378 . S
C1483 C1482 1.367 . S
C1483 C1491 1.433 . S
C1484 H1480 0.929 . S
C1484 C1486 1.378 . S
C1484 C1488 1.350 . S
C1485 C1488 1.463 . S
C1485 C1490 1.350 . S
C1485 N1493 1.427 . S
C1486 H1477 0.930 . S
C1486 C1484 1.378 . S
C1486 C1487 1.367 . S
C1487 C1486 1.367 . S
C1487 C1489 1.433 . S
C1488 C1484 1.350 . S
C1488 C1485 1.463 . S
C1488 N1492 1.427 . S
C1489 H1479 0.929 . S
C1489 C1487 1.433 . S
C1489 N1492 1.384 . S
C1490 H1481 0.929 . S
C1490 C1482 1.378 . S
C1490 C1485 1.350 . S
C1491 H1478 0.929 . S
C1491 C1483 1.433 . S
C1491 N1493 1.384 . S
N1492 C1488 1.427 . S
N1492 C1489 1.384 . S
N1493 C1485 1.427 . S
N1493 C1491 1.384 . S
H1494 C1500 0.930 . S
H1495 C1504 0.930 . S
H1496 C1509 0.929 . S
H1497 C1507 0.929 . S
H1498 C1502 0.929 . S
H1499 C1508 0.929 . S
C1500 H1494 0.930 . S
C1500 C1501 1.367 . S
C1500 C1508 1.378 . S
C1501 C1500 1.367 . S
C1501 C1509 1.433 . S
C1502 H1498 0.929 . S
C1502 C1504 1.378 . S
C1502 C1506 1.350 . S
C1503 C1506 1.463 . S
C1503 C1508 1.350 . S
C1503 N1511 1.427 . S
C1504 H1495 0.930 . S
C1504 C1502 1.378 . S
C1504 C1505 1.367 . S
C1505 C1504 1.367 . S
C1505 C1507 1.433 . S
C1506 C1502 1.350 . S
C1506 C1503 1.463 . S
C1506 N1510 1.427 . S
C1507 H1497 0.929 . S
C1507 C1505 1.433 . S
C1507 N1510 1.384 . S
C1508 H1499 0.929 . S
C1508 C1500 1.378 . S
C1508 C1503 1.350 . S
C1509 H1496 0.929 . S
C1509 C1501 1.433 . S
C1509 N1511 1.384 . S
N1510 C1506 1.427 . S
N1510 C1507 1.384 . S
N1511 C1503 1.427 . S
N1511 C1509 1.384 . S
H1512 C1518 0.930 . S
H1513 C1522 0.930 . S
H1514 C1527 0.929 . S
H1515 C1525 0.929 . S
H1516 C1520 0.929 . S
H1517 C1526 0.929 . S
C1518 H1512 0.930 . S
C1518 C1519 1.367 . S
C1518 C1526 1.378 . S
C1519 C1518 1.367 . S
C1519 C1527 1.433 . S
C1520 H1516 0.929 . S
C1520 C1522 1.378 . S
C1520 C1524 1.350 . S
C1521 C1524 1.463 . S
C1521 C1526 1.350 . S
C1521 N1529 1.427 . S
C1522 H1513 0.930 . S
C1522 C1520 1.378 . S
C1522 C1523 1.367 . S
C1523 C1522 1.367 . S
C1523 C1525 1.433 . S
C1524 C1520 1.350 . S
C1524 C1521 1.463 . S
C1524 N1528 1.427 . S
C1525 H1515 0.929 . S
C1525 C1523 1.433 . S
C1525 N1528 1.384 . S
C1526 H1517 0.929 . S
C1526 C1518 1.378 . S
C1526 C1521 1.350 . S
C1527 H1514 0.929 . S
C1527 C1519 1.433 . S
C1527 N1529 1.384 . S
N1528 C1524 1.427 . S
N1528 C1525 1.384 . S
N1529 C1521 1.427 . S
N1529 C1527 1.384 . S
H1530 C1536 0.930 . S
H1531 C1540 0.930 . S
H1532 C1545 0.929 . S
H1533 C1543 0.929 . S
H1534 C1538 0.929 . S
H1535 C1544 0.929 . S
C1536 H1530 0.930 . S
C1536 C1537 1.367 . S
C1536 C1544 1.378 . S
C1537 C1536 1.367 . S
C1537 C1545 1.433 . S
C1538 H1534 0.929 . S
C1538 C1540 1.378 . S
C1538 C1542 1.350 . S
C1539 C1542 1.463 . S
C1539 C1544 1.350 . S
C1539 N1547 1.427 . S
C1540 H1531 0.930 . S
C1540 C1538 1.378 . S
C1540 C1541 1.367 . S
C1541 C1540 1.367 . S
C1541 C1543 1.433 . S
C1542 C1538 1.350 . S
C1542 C1539 1.463 . S
C1542 N1546 1.427 . S
C1543 H1533 0.929 . S
C1543 C1541 1.433 . S
C1543 N1546 1.384 . S
C1544 H1535 0.929 . S
C1544 C1536 1.378 . S
C1544 C1539 1.350 . S
C1545 H1532 0.929 . S
C1545 C1537 1.433 . S
C1545 N1547 1.384 . S
N1546 C1542 1.427 . S
N1546 C1543 1.384 . S
N1547 C1539 1.427 . S
N1547 C1545 1.384 . S
H1548 C1554 0.930 . S
H1549 C1558 0.930 . S
H1550 C1563 0.929 . S
H1551 C1561 0.929 . S
H1552 C1556 0.929 . S
H1553 C1562 0.929 . S
C1554 H1548 0.930 . S
C1554 C1555 1.367 . S
C1554 C1562 1.378 . S
C1555 C1554 1.367 . S
C1555 C1563 1.433 . S
C1556 H1552 0.929 . S
C1556 C1558 1.378 . S
C1556 C1560 1.350 . S
C1557 C1560 1.463 . S
C1557 C1562 1.350 . S
C1557 N1565 1.427 . S
C1558 H1549 0.930 . S
C1558 C1556 1.378 . S
C1558 C1559 1.367 . S
C1559 C1558 1.367 . S
C1559 C1561 1.433 . S
C1560 C1556 1.350 . S
C1560 C1557 1.463 . S
C1560 N1564 1.427 . S
C1561 H1551 0.929 . S
C1561 C1559 1.433 . S
C1561 N1564 1.384 . S
C1562 H1553 0.929 . S
C1562 C1554 1.378 . S
C1562 C1557 1.350 . S
C1563 H1550 0.929 . S
C1563 C1555 1.433 . S
C1563 N1565 1.384 . S
N1564 C1560 1.427 . S
N1564 C1561 1.384 . S
N1565 C1557 1.427 . S
N1565 C1563 1.384 . S
H1566 C1572 0.930 . S
H1567 C1576 0.930 . S
H1568 C1581 0.929 . S
H1569 C1579 0.929 . S
H1570 C1574 0.929 . S
H1571 C1580 0.929 . S
C1572 H1566 0.930 . S
C1572 C1573 1.367 . S
C1572 C1580 1.378 . S
C1573 C1572 1.367 . S
C1573 C1581 1.433 . S
C1574 H1570 0.929 . S
C1574 C1576 1.378 . S
C1574 C1578 1.350 . S
C1575 C1578 1.463 . S
C1575 C1580 1.350 . S
C1575 N1583 1.427 . S
C1576 H1567 0.930 . S
C1576 C1574 1.378 . S
C1576 C1577 1.367 . S
C1577 C1576 1.367 . S
C1577 C1579 1.433 . S
C1578 C1574 1.350 . S
C1578 C1575 1.463 . S
C1578 N1582 1.427 . S
C1579 H1569 0.929 . S
C1579 C1577 1.433 . S
C1579 N1582 1.384 . S
C1580 H1571 0.929 . S
C1580 C1572 1.378 . S
C1580 C1575 1.350 . S
C1581 H1568 0.929 . S
C1581 C1573 1.433 . S
C1581 N1583 1.384 . S
N1582 C1578 1.427 . S
N1582 C1579 1.384 . S
N1583 C1575 1.427 . S
N1583 C1581 1.384 . S
H1584 C1590 0.930 . S
H1585 C1594 0.930 . S
H1586 C1599 0.929 . S
H1587 C1597 0.929 . S
H1588 C1592 0.929 . S
H1589 C1598 0.929 . S
C1590 H1584 0.930 . S
C1590 C1591 1.367 . S
C1590 C1598 1.378 . S
C1591 C1590 1.367 . S
C1591 C1599 1.433 . S
C1592 H1588 0.929 . S
C1592 C1594 1.378 . S
C1592 C1596 1.350 . S
C1593 C1596 1.463 . S
C1593 C1598 1.350 . S
C1593 N1601 1.427 . S
C1594 H1585 0.930 . S
C1594 C1592 1.378 . S
C1594 C1595 1.367 . S
C1595 C1594 1.367 . S
C1595 C1597 1.433 . S
C1596 C1592 1.350 . S
C1596 C1593 1.463 . S
C1596 N1600 1.427 . S
C1597 H1587 0.929 . S
C1597 C1595 1.433 . S
C1597 N1600 1.384 . S
C1598 H1589 0.929 . S
C1598 C1590 1.378 . S
C1598 C1593 1.350 . S
C1599 H1586 0.929 . S
C1599 C1591 1.433 . S
C1599 N1601 1.384 . S
N1600 C1596 1.427 . S
N1600 C1597 1.384 . S
N1601 C1593 1.427 . S
N1601 C1599 1.384 . S
H1602 C1608 0.930 . S
H1603 C1612 0.930 . S
H1604 C1617 0.929 . S
H1605 C1615 0.929 . S
H1606 C1610 0.929 . S
H1607 C1616 0.929 . S
C1608 H1602 0.930 . S
C1608 C1609 1.367 . S
C1608 C1616 1.378 . S
C1609 C1608 1.367 . S
C1609 C1617 1.433 . S
C1610 H1606 0.929 . S
C1610 C1612 1.378 . S
C1610 C1614 1.350 . S
C1611 C1614 1.463 . S
C1611 C1616 1.350 . S
C1611 N1619 1.427 . S
C1612 H1603 0.930 . S
C1612 C1610 1.378 . S
C1612 C1613 1.367 . S
C1613 C1612 1.367 . S
C1613 C1615 1.433 . S
C1614 C1610 1.350 . S
C1614 C1611 1.463 . S
C1614 N1618 1.427 . S
C1615 H1605 0.929 . S
C1615 C1613 1.433 . S
C1615 N1618 1.384 . S
C1616 H1607 0.929 . S
C1616 C1608 1.378 . S
C1616 C1611 1.350 . S
C1617 H1604 0.929 . S
C1617 C1609 1.433 . S
C1617 N1619 1.384 . S
N1618 C1614 1.427 . S
N1618 C1615 1.384 . S
N1619 C1611 1.427 . S
N1619 C1617 1.384 . S
H1620 C1626 0.930 . S
H1621 C1630 0.930 . S
H1622 C1635 0.929 . S
H1623 C1633 0.929 . S
H1624 C1628 0.929 . S
H1625 C1634 0.929 . S
C1626 H1620 0.930 . S
C1626 C1627 1.367 . S
C1626 C1634 1.378 . S
C1627 C1626 1.367 . S
C1627 C1635 1.433 . S
C1628 H1624 0.929 . S
C1628 C1630 1.378 . S
C1628 C1632 1.350 . S
C1629 C1632 1.463 . S
C1629 C1634 1.350 . S
C1629 N1637 1.427 . S
C1630 H1621 0.930 . S
C1630 C1628 1.378 . S
C1630 C1631 1.367 . S
C1631 C1630 1.367 . S
C1631 C1633 1.433 . S
C1632 C1628 1.350 . S
C1632 C1629 1.463 . S
C1632 N1636 1.427 . S
C1633 H1623 0.929 . S
C1633 C1631 1.433 . S
C1633 N1636 1.384 . S
C1634 H1625 0.929 . S
C1634 C1626 1.378 . S
C1634 C1629 1.350 . S
C1635 H1622 0.929 . S
C1635 C1627 1.433 . S
C1635 N1637 1.384 . S
N1636 C1632 1.427 . S
N1636 C1633 1.384 . S
N1637 C1629 1.427 . S
N1637 C1635 1.384 . S
H1638 C1644 0.930 . S
H1639 C1648 0.930 . S
H1640 C1653 0.929 . S
H1641 C1651 0.929 . S
H1642 C1646 0.929 . S
H1643 C1652 0.929 . S
C1644 H1638 0.930 . S
C1644 C1645 1.367 . S
C1644 C1652 1.378 . S
C1645 C1644 1.367 . S
C1645 C1653 1.433 . S
C1646 H1642 0.929 . S
C1646 C1648 1.378 . S
C1646 C1650 1.350 . S
C1647 C1650 1.463 . S
C1647 C1652 1.350 . S
C1647 N1655 1.427 . S
C1648 H1639 0.930 . S
C1648 C1646 1.378 . S
C1648 C1649 1.367 . S
C1649 C1648 1.367 . S
C1649 C1651 1.433 . S
C1650 C1646 1.350 . S
C1650 C1647 1.463 . S
C1650 N1654 1.427 . S
C1651 H1641 0.929 . S
C1651 C1649 1.433 . S
C1651 N1654 1.384 . S
C1652 H1643 0.929 . S
C1652 C1644 1.378 . S
C1652 C1647 1.350 . S
C1653 H1640 0.929 . S
C1653 C1645 1.433 . S
C1653 N1655 1.384 . S
N1654 C1650 1.427 . S
N1654 C1651 1.384 . S
N1655 C1647 1.427 . S
N1655 C1653 1.384 . S
H1656 C1662 0.930 . S
H1657 C1666 0.930 . S
H1658 C1671 0.929 . S
H1659 C1669 0.929 . S
H1660 C1664 0.929 . S
H1661 C1670 0.929 . S
C1662 H1656 0.930 . S
C1662 C1663 1.367 . S
C1662 C1670 1.378 . S
C1663 C1662 1.367 . S
C1663 C1671 1.433 . S
C1664 H1660 0.929 . S
C1664 C1666 1.378 . S
C1664 C1668 1.350 . S
C1665 C1668 1.463 . S
C1665 C1670 1.350 . S
C1665 N1673 1.427 . S
C1666 H1657 0.930 . S
C1666 C1664 1.378 . S
C1666 C1667 1.367 . S
C1667 C1666 1.367 . S
C1667 C1669 1.433 . S
C1668 C1664 1.350 . S
C1668 C1665 1.463 . S
C1668 N1672 1.427 . S
C1669 H1659 0.929 . S
C1669 C1667 1.433 . S
C1669 N1672 1.384 . S
C1670 H1661 0.929 . S
C1670 C1662 1.378 . S
C1670 C1665 1.350 . S
C1671 H1658 0.929 . S
C1671 C1663 1.433 . S
C1671 N1673 1.384 . S
N1672 C1668 1.427 . S
N1672 C1669 1.384 . S
N1673 C1665 1.427 . S
N1673 C1671 1.384 . S
H1674 C1680 0.930 . S
H1675 C1684 0.930 . S
H1676 C1689 0.929 . S
H1677 C1687 0.929 . S
H1678 C1682 0.929 . S
H1679 C1688 0.929 . S
C1680 H1674 0.930 . S
C1680 C1681 1.367 . S
C1680 C1688 1.378 . S
C1681 C1680 1.367 . S
C1681 C1689 1.433 . S
C1682 H1678 0.929 . S
C1682 C1684 1.378 . S
C1682 C1686 1.350 . S
C1683 C1686 1.463 . S
C1683 C1688 1.350 . S
C1683 N1691 1.427 . S
C1684 H1675 0.930 . S
C1684 C1682 1.378 . S
C1684 C1685 1.367 . S
C1685 C1684 1.367 . S
C1685 C1687 1.433 . S
C1686 C1682 1.350 . S
C1686 C1683 1.463 . S
C1686 N1690 1.427 . S
C1687 H1677 0.929 . S
C1687 C1685 1.433 . S
C1687 N1690 1.384 . S
C1688 H1679 0.929 . S
C1688 C1680 1.378 . S
C1688 C1683 1.350 . S
C1689 H1676 0.929 . S
C1689 C1681 1.433 . S
C1689 N1691 1.384 . S
N1690 C1686 1.427 . S
N1690 C1687 1.384 . S
N1691 C1683 1.427 . S
N1691 C1689 1.384 . S
H1692 C1698 0.930 . S
H1693 C1702 0.930 . S
H1694 C1707 0.929 . S
H1695 C1705 0.929 . S
H1696 C1700 0.929 . S
H1697 C1706 0.929 . S
C1698 H1692 0.930 . S
C1698 C1699 1.367 . S
C1698 C1706 1.378 . S
C1699 C1698 1.367 . S
C1699 C1707 1.433 . S
C1700 H1696 0.929 . S
C1700 C1702 1.378 . S
C1700 C1704 1.350 . S
C1701 C1704 1.463 . S
C1701 C1706 1.350 . S
C1701 N1709 1.427 . S
C1702 H1693 0.930 . S
C1702 C1700 1.378 . S
C1702 C1703 1.367 . S
C1703 C1702 1.367 . S
C1703 C1705 1.433 . S
C1704 C1700 1.350 . S
C1704 C1701 1.463 . S
C1704 N1708 1.427 . S
C1705 H1695 0.929 . S
C1705 C1703 1.433 . S
C1705 N1708 1.384 . S
C1706 H1697 0.929 . S
C1706 C1698 1.378 . S
C1706 C1701 1.350 . S
C1707 H1694 0.929 . S
C1707 C1699 1.433 . S
C1707 N1709 1.384 . S
N1708 C1704 1.427 . S
N1708 C1705 1.384 . S
N1709 C1701 1.427 . S
N1709 C1707 1.384 . S
H1710 C1716 0.930 . S
H1711 C1720 0.930 . S
H1712 C1725 0.929 . S
H1713 C1723 0.929 . S
H1714 C1718 0.929 . S
H1715 C1724 0.929 . S
C1716 H1710 0.930 . S
C1716 C1717 1.367 . S
C1716 C1724 1.378 . S
C1717 C1716 1.367 . S
C1717 C1725 1.433 . S
C1718 H1714 0.929 . S
C1718 C1720 1.378 . S
C1718 C1722 1.350 . S
C1719 C1722 1.463 . S
C1719 C1724 1.350 . S
C1719 N1727 1.427 . S
C1720 H1711 0.930 . S
C1720 C1718 1.378 . S
C1720 C1721 1.367 . S
C1721 C1720 1.367 . S
C1721 C1723 1.433 . S
C1722 C1718 1.350 . S
C1722 C1719 1.463 . S
C1722 N1726 1.427 . S
C1723 H1713 0.929 . S
C1723 C1721 1.433 . S
C1723 N1726 1.384 . S
C1724 H1715 0.929 . S
C1724 C1716 1.378 . S
C1724 C1719 1.350 . S
C1725 H1712 0.929 . S
C1725 C1717 1.433 . S
C1725 N1727 1.384 . S
N1726 C1722 1.427 . S
N1726 C1723 1.384 . S
N1727 C1719 1.427 . S
N1727 C1725 1.384 . S
H1728 C1734 0.930 . S
H1729 C1738 0.930 . S
H1730 C1743 0.929 . S
H1731 C1741 0.929 . S
H1732 C1736 0.929 . S
H1733 C1742 0.929 . S
C1734 H1728 0.930 . S
C1734 C1735 1.367 . S
C1734 C1742 1.378 . S
C1735 C1734 1.367 . S
C1735 C1743 1.433 . S
C1736 H1732 0.929 . S
C1736 C1738 1.378 . S
C1736 C1740 1.350 . S
C1737 C1740 1.463 . S
C1737 C1742 1.350 . S
C1737 N1745 1.427 . S
C1738 H1729 0.930 . S
C1738 C1736 1.378 . S
C1738 C1739 1.367 . S
C1739 C1738 1.367 . S
C1739 C1741 1.433 . S
C1740 C1736 1.350 . S
C1740 C1737 1.463 . S
C1740 N1744 1.427 . S
C1741 H1731 0.929 . S
C1741 C1739 1.433 . S
C1741 N1744 1.384 . S
C1742 H1733 0.929 . S
C1742 C1734 1.378 . S
C1742 C1737 1.350 . S
C1743 H1730 0.929 . S
C1743 C1735 1.433 . S
C1743 N1745 1.384 . S
N1744 C1740 1.427 . S
N1744 C1741 1.384 . S
N1745 C1737 1.427 . S
N1745 C1743 1.384 . S
H1746 C1752 0.930 . S
H1747 C1756 0.930 . S
H1748 C1761 0.929 . S
H1749 C1759 0.929 . S
H1750 C1754 0.929 . S
H1751 C1760 0.929 . S
C1752 H1746 0.930 . S
C1752 C1753 1.367 . S
C1752 C1760 1.378 . S
C1753 C1752 1.367 . S
C1753 C1761 1.433 . S
C1754 H1750 0.929 . S
C1754 C1756 1.378 . S
C1754 C1758 1.350 . S
C1755 C1758 1.463 . S
C1755 C1760 1.350 . S
C1755 N1763 1.427 . S
C1756 H1747 0.930 . S
C1756 C1754 1.378 . S
C1756 C1757 1.367 . S
C1757 C1756 1.367 . S
C1757 C1759 1.433 . S
C1758 C1754 1.350 . S
C1758 C1755 1.463 . S
C1758 N1762 1.427 . S
C1759 H1749 0.929 . S
C1759 C1757 1.433 . S
C1759 N1762 1.384 . S
C1760 H1751 0.929 . S
C1760 C1752 1.378 . S
C1760 C1755 1.350 . S
C1761 H1748 0.929 . S
C1761 C1753 1.433 . S
C1761 N1763 1.384 . S
N1762 C1758 1.427 . S
N1762 C1759 1.384 . S
N1763 C1755 1.427 . S
N1763 C1761 1.384 . S
H1764 C1770 0.930 . S
H1765 C1774 0.930 . S
H1766 C1779 0.929 . S
H1767 C1777 0.929 . S
H1768 C1772 0.929 . S
H1769 C1778 0.929 . S
C1770 H1764 0.930 . S
C1770 C1771 1.367 . S
C1770 C1778 1.378 . S
C1771 C1770 1.367 . S
C1771 C1779 1.433 . S
C1772 H1768 0.929 . S
C1772 C1774 1.378 . S
C1772 C1776 1.350 . S
C1773 C1776 1.463 . S
C1773 C1778 1.350 . S
C1773 N1781 1.427 . S
C1774 H1765 0.930 . S
C1774 C1772 1.378 . S
C1774 C1775 1.367 . S
C1775 C1774 1.367 . S
C1775 C1777 1.433 . S
C1776 C1772 1.350 . S
C1776 C1773 1.463 . S
C1776 N1780 1.427 . S
C1777 H1767 0.929 . S
C1777 C1775 1.433 . S
C1777 N1780 1.384 . S
C1778 H1769 0.929 . S
C1778 C1770 1.378 . S
C1778 C1773 1.350 . S
C1779 H1766 0.929 . S
C1779 C1771 1.433 . S
C1779 N1781 1.384 . S
N1780 C1776 1.427 . S
N1780 C1777 1.384 . S
N1781 C1773 1.427 . S
N1781 C1779 1.384 . S
H1782 C1788 0.930 . S
H1783 C1792 0.930 . S
H1784 C1797 0.929 . S
H1785 C1795 0.929 . S
H1786 C1790 0.929 . S
H1787 C1796 0.929 . S
C1788 H1782 0.930 . S
C1788 C1789 1.367 . S
C1788 C1796 1.378 . S
C1789 C1788 1.367 . S
C1789 C1797 1.433 . S
C1790 H1786 0.929 . S
C1790 C1792 1.378 . S
C1790 C1794 1.350 . S
C1791 C1794 1.463 . S
C1791 C1796 1.350 . S
C1791 N1799 1.427 . S
C1792 H1783 0.930 . S
C1792 C1790 1.378 . S
C1792 C1793 1.367 . S
C1793 C1792 1.367 . S
C1793 C1795 1.433 . S
C1794 C1790 1.350 . S
C1794 C1791 1.463 . S
C1794 N1798 1.427 . S
C1795 H1785 0.929 . S
C1795 C1793 1.433 . S
C1795 N1798 1.384 . S
C1796 H1787 0.929 . S
C1796 C1788 1.378 . S
C1796 C1791 1.350 . S
C1797 H1784 0.929 . S
C1797 C1789 1.433 . S
C1797 N1799 1.384 . S
N1798 C1794 1.427 . S
N1798 C1795 1.384 . S
N1799 C1791 1.427 . S
N1799 C1797 1.384 . S
C511 C5 1.225 . S
C515 C257 1.225 . S
C529 C271 1.225 . S
C533 C19 1.225 . S
C547 C285 1.229 . S
C551 C33 1.229 . S
C565 C47 1.229 . S
C569 C467 1.229 . S
C583 C61 1.232 . S
C587 C481 1.232 . S
C601 C75 1.253 . S
C605 C495 1.253 . S
C619 C341 1.224 . S
C623 C89 1.224 . S
C637 C103 1.226 . S
C641 C355 1.225 . S
C655 C117 1.246 . S
C659 C369 1.246 . S
C673 C215 1.231 . S
C677 C131 1.231 . S
C691 C229 1.235 . S
C695 C145 1.235 . S
C709 C243 1.252 . S
C713 C159 1.252 . S
C727 C425 1.238 . S
C731 C173 1.238 . S
C745 C439 1.251 . S
C749 C187 1.251 . S
C763 C201 1.252 . S
C767 C453 1.252 . S
C781 C383 1.224 . S
C785 C299 1.224 . S
C799 C313 1.235 . S
C803 C397 1.235 . S
C817 C327 1.239 . S
C821 C411 1.239 . S
C835 C11 1.434 . S
C839 C389 1.421 . S
C853 C403 1.422 . S
C857 C25 1.433 . S
C871 C417 1.435 . S
C875 C39 1.421 . S
C889 C179 1.424 . S
C893 C53 1.430 . S
C907 C193 1.423 . S
C911 C67 1.433 . S
C925 C207 1.425 . S
C929 C81 1.430 . S
C943 C95 1.434 . S
C947 C305 1.421 . S
C961 C319 1.422 . S
C965 C109 1.434 . S
C979 C333 1.423 . S
C983 C123 1.433 . S
C997 C137 1.433 . S
C1001 C431 1.422 . S
C1015 C151 1.429 . S
C1019 C445 1.428 . S
C1033 C165 1.425 . S
C1037 C459 1.429 . S
C1051 C221 1.434 . S
C1055 C347 1.421 . S
C1069 C235 1.435 . S
C1073 C361 1.422 . S
C1087 C249 1.435 . S
C1091 C375 1.422 . S
C1105 C263 1.422 . S
C1109 C473 1.434 . S
C1123 C487 1.425 . S
C1127 C277 1.431 . S
C1141 C291 1.430 . S
C1145 C501 1.426 . S
C1159 C26 0.929 . S
C1163 C4 0.873 . S
C1177 C18 0.871 . S
C1181 C40 0.928 . S
C1195 C32 0.883 . S
C1199 C12 0.915 . S
C1213 C46 0.903 . S
C1217 C82 0.916 . S
C1231 C54 0.927 . S
C1235 C60 0.892 . S
C1249 C74 0.891 . S
C1253 C68 0.927 . S
C1267 C88 0.902 . S
C1271 C110 0.914 . S
C1285 C102 0.874 . S
C1289 C124 0.919 . S
C1303 C116 0.894 . S
C1307 C96 0.926 . S
C1321 C166 0.913 . S
C1325 C130 0.900 . S
C1339 C144 0.873 . S
C1343 C138 0.921 . S
C1357 C152 0.915 . S
C1361 C158 0.903 . S
C1375 C194 0.924 . S
C1379 C172 0.897 . S
C1393 C208 0.920 . S
C1397 C186 0.902 . S
C1411 C180 0.929 . S
C1415 C200 0.878 . S
C1429 C214 0.895 . S
C1433 C250 0.926 . S
C1447 C228 0.877 . S
C1451 C222 0.930 . S
C1465 C242 0.870 . S
C1469 C236 0.927 . S
C1483 C278 0.914 . S
C1487 C256 0.887 . S
C1501 C270 0.879 . S
C1505 C292 0.917 . S
C1519 C284 0.871 . S
C1523 C264 0.928 . S
C1537 C298 0.891 . S
C1541 C334 0.927 . S
C1555 C312 0.892 . S
C1559 C306 0.927 . S
C1573 C320 0.927 . S
C1577 C326 0.893 . S
C1591 C362 0.913 . S
C1595 C340 0.900 . S
C1609 C354 0.889 . S
C1613 C376 0.913 . S
C1627 C348 0.918 . S
C1631 C368 0.904 . S
C1645 C382 0.885 . S
C1649 C418 0.928 . S
C1663 C396 0.893 . S
C1667 C390 0.913 . S
C1681 C410 0.875 . S
C1685 C404 0.930 . S
C1699 C424 0.903 . S
C1703 C446 0.918 . S
C1717 C438 0.901 . S
C1721 C460 0.914 . S
C1735 C452 0.891 . S
C1739 C432 0.913 . S
C1753 C466 0.897 . S
C1757 C502 0.913 . S
C1771 C480 0.896 . S
C1775 C474 0.925 . S
C1789 C488 0.924 . S
C1793 C494 0.897 . S
