# Generated by pormake.
# Topology ana, (4)-cn, num edge types: 1
# Building blocks:
#     Node 0, Type 0, BuildingBlock: CEKHIL_clean_sbu_0, # of connection points: 4
#     Node 1, Type 0, BuildingBlock: CEKHIL_clean_sbu_0, # of connection points: 4
#     Node 2, Type 0, BuildingBlock: CEKHIL_clean_sbu_0, # of connection points: 4
#     Node 3, Type 0, BuildingBlock: CEKHIL_clean_sbu_0, # of connection points: 4
#     Node 4, Type 0, BuildingBlock: CEKHIL_clean_sbu_0, # of connection points: 4
#     Node 5, Type 0, BuildingBlock: CEKHIL_clean_sbu_0, # of connection points: 4
#     Node 6, Type 0, BuildingBlock: CEKHIL_clean_sbu_0, # of connection points: 4
#     Node 7, Type 0, BuildingBlock: CEKHIL_clean_sbu_0, # of connection points: 4
#     Node 8, Type 0, BuildingBlock: CEKHIL_clean_sbu_0, # of connection points: 4
#     Node 9, Type 0, BuildingBlock: CEKHIL_clean_sbu_0, # of connection points: 4
#     Node 10, Type 0, BuildingBlock: CEKHIL_clean_sbu_0, # of connection points: 4
#     Node 11, Type 0, BuildingBlock: CEKHIL_clean_sbu_0, # of connection points: 4
#     Node 12, Type 0, BuildingBlock: CEKHIL_clean_sbu_0, # of connection points: 4
#     Node 13, Type 0, BuildingBlock: CEKHIL_clean_sbu_0, # of connection points: 4
#     Node 14, Type 0, BuildingBlock: CEKHIL_clean_sbu_0, # of connection points: 4
#     Node 15, Type 0, BuildingBlock: CEKHIL_clean_sbu_0, # of connection points: 4
#     Node 16, Type 0, BuildingBlock: CEKHIL_clean_sbu_0, # of connection points: 4
#     Node 17, Type 0, BuildingBlock: CEKHIL_clean_sbu_0, # of connection points: 4
#     Node 18, Type 0, BuildingBlock: CEKHIL_clean_sbu_0, # of connection points: 4
#     Node 19, Type 0, BuildingBlock: CEKHIL_clean_sbu_0, # of connection points: 4
#     Node 20, Type 0, BuildingBlock: CEKHIL_clean_sbu_0, # of connection points: 4
#     Node 21, Type 0, BuildingBlock: CEKHIL_clean_sbu_0, # of connection points: 4
#     Node 22, Type 0, BuildingBlock: CEKHIL_clean_sbu_0, # of connection points: 4
#     Node 23, Type 0, BuildingBlock: CEKHIL_clean_sbu_0, # of connection points: 4
#     Node 24, Type 0, BuildingBlock: CEKHIL_clean_sbu_0, # of connection points: 4
#     Node 25, Type 0, BuildingBlock: CEKHIL_clean_sbu_0, # of connection points: 4
#     Node 26, Type 0, BuildingBlock: CEKHIL_clean_sbu_0, # of connection points: 4
#     Node 27, Type 0, BuildingBlock: CEKHIL_clean_sbu_0, # of connection points: 4
#     Node 28, Type 0, BuildingBlock: CEKHIL_clean_sbu_0, # of connection points: 4
#     Node 29, Type 0, BuildingBlock: CEKHIL_clean_sbu_0, # of connection points: 4
#     Node 30, Type 0, BuildingBlock: CEKHIL_clean_sbu_0, # of connection points: 4
#     Node 31, Type 0, BuildingBlock: CEKHIL_clean_sbu_0, # of connection points: 4
#     Node 32, Type 0, BuildingBlock: CEKHIL_clean_sbu_0, # of connection points: 4
#     Node 33, Type 0, BuildingBlock: CEKHIL_clean_sbu_0, # of connection points: 4
#     Node 34, Type 0, BuildingBlock: CEKHIL_clean_sbu_0, # of connection points: 4
#     Node 35, Type 0, BuildingBlock: CEKHIL_clean_sbu_0, # of connection points: 4
#     Node 36, Type 0, BuildingBlock: CEKHIL_clean_sbu_0, # of connection points: 4
#     Node 37, Type 0, BuildingBlock: CEKHIL_clean_sbu_0, # of connection points: 4
#     Node 38, Type 0, BuildingBlock: CEKHIL_clean_sbu_0, # of connection points: 4
#     Node 39, Type 0, BuildingBlock: CEKHIL_clean_sbu_0, # of connection points: 4
#     Node 40, Type 0, BuildingBlock: CEKHIL_clean_sbu_0, # of connection points: 4
#     Node 41, Type 0, BuildingBlock: CEKHIL_clean_sbu_0, # of connection points: 4
#     Node 42, Type 0, BuildingBlock: CEKHIL_clean_sbu_0, # of connection points: 4
#     Node 43, Type 0, BuildingBlock: CEKHIL_clean_sbu_0, # of connection points: 4
#     Node 44, Type 0, BuildingBlock: CEKHIL_clean_sbu_0, # of connection points: 4
#     Node 45, Type 0, BuildingBlock: CEKHIL_clean_sbu_0, # of connection points: 4
#     Node 46, Type 0, BuildingBlock: CEKHIL_clean_sbu_0, # of connection points: 4
#     Node 47, Type 0, BuildingBlock: CEKHIL_clean_sbu_0, # of connection points: 4
#     Edge 48, Type (0, 0), BuildingBlock: AJUNOK_clean_linker_0, # of connection points: 2
#     Edge 49, Type (0, 0), BuildingBlock: AJUNOK_clean_linker_0, # of connection points: 2
#     Edge 50, Type (0, 0), BuildingBlock: AJUNOK_clean_linker_0, # of connection points: 2
#     Edge 51, Type (0, 0), BuildingBlock: AJUNOK_clean_linker_0, # of connection points: 2
#     Edge 52, Type (0, 0), BuildingBlock: AJUNOK_clean_linker_0, # of connection points: 2
#     Edge 53, Type (0, 0), BuildingBlock: AJUNOK_clean_linker_0, # of connection points: 2
#     Edge 54, Type (0, 0), BuildingBlock: AJUNOK_clean_linker_0, # of connection points: 2
#     Edge 55, Type (0, 0), BuildingBlock: AJUNOK_clean_linker_0, # of connection points: 2
#     Edge 56, Type (0, 0), BuildingBlock: AJUNOK_clean_linker_0, # of connection points: 2
#     Edge 57, Type (0, 0), BuildingBlock: AJUNOK_clean_linker_0, # of connection points: 2
#     Edge 58, Type (0, 0), BuildingBlock: AJUNOK_clean_linker_0, # of connection points: 2
#     Edge 59, Type (0, 0), BuildingBlock: AJUNOK_clean_linker_0, # of connection points: 2
#     Edge 60, Type (0, 0), BuildingBlock: AJUNOK_clean_linker_0, # of connection points: 2
#     Edge 61, Type (0, 0), BuildingBlock: AJUNOK_clean_linker_0, # of connection points: 2
#     Edge 62, Type (0, 0), BuildingBlock: AJUNOK_clean_linker_0, # of connection points: 2
#     Edge 63, Type (0, 0), BuildingBlock: AJUNOK_clean_linker_0, # of connection points: 2
#     Edge 64, Type (0, 0), BuildingBlock: AJUNOK_clean_linker_0, # of connection points: 2
#     Edge 65, Type (0, 0), BuildingBlock: AJUNOK_clean_linker_0, # of connection points: 2
#     Edge 66, Type (0, 0), BuildingBlock: AJUNOK_clean_linker_0, # of connection points: 2
#     Edge 67, Type (0, 0), BuildingBlock: AJUNOK_clean_linker_0, # of connection points: 2
#     Edge 68, Type (0, 0), BuildingBlock: AJUNOK_clean_linker_0, # of connection points: 2
#     Edge 69, Type (0, 0), BuildingBlock: AJUNOK_clean_linker_0, # of connection points: 2
#     Edge 70, Type (0, 0), BuildingBlock: AJUNOK_clean_linker_0, # of connection points: 2
#     Edge 71, Type (0, 0), BuildingBlock: AJUNOK_clean_linker_0, # of connection points: 2
#     Edge 72, Type (0, 0), BuildingBlock: AJUNOK_clean_linker_0, # of connection points: 2
#     Edge 73, Type (0, 0), BuildingBlock: AJUNOK_clean_linker_0, # of connection points: 2
#     Edge 74, Type (0, 0), BuildingBlock: AJUNOK_clean_linker_0, # of connection points: 2
#     Edge 75, Type (0, 0), BuildingBlock: AJUNOK_clean_linker_0, # of connection points: 2
#     Edge 76, Type (0, 0), BuildingBlock: AJUNOK_clean_linker_0, # of connection points: 2
#     Edge 77, Type (0, 0), BuildingBlock: AJUNOK_clean_linker_0, # of connection points: 2
#     Edge 78, Type (0, 0), BuildingBlock: AJUNOK_clean_linker_0, # of connection points: 2
#     Edge 79, Type (0, 0), BuildingBlock: AJUNOK_clean_linker_0, # of connection points: 2
#     Edge 80, Type (0, 0), BuildingBlock: AJUNOK_clean_linker_0, # of connection points: 2
#     Edge 81, Type (0, 0), BuildingBlock: AJUNOK_clean_linker_0, # of connection points: 2
#     Edge 82, Type (0, 0), BuildingBlock: AJUNOK_clean_linker_0, # of connection points: 2
#     Edge 83, Type (0, 0), BuildingBlock: AJUNOK_clean_linker_0, # of connection points: 2
#     Edge 84, Type (0, 0), BuildingBlock: AJUNOK_clean_linker_0, # of connection points: 2
#     Edge 85, Type (0, 0), BuildingBlock: AJUNOK_clean_linker_0, # of connection points: 2
#     Edge 86, Type (0, 0), BuildingBlock: AJUNOK_clean_linker_0, # of connection points: 2
#     Edge 87, Type (0, 0), BuildingBlock: AJUNOK_clean_linker_0, # of connection points: 2
#     Edge 88, Type (0, 0), BuildingBlock: AJUNOK_clean_linker_0, # of connection points: 2
#     Edge 89, Type (0, 0), BuildingBlock: AJUNOK_clean_linker_0, # of connection points: 2
#     Edge 90, Type (0, 0), BuildingBlock: AJUNOK_clean_linker_0, # of connection points: 2
#     Edge 91, Type (0, 0), BuildingBlock: AJUNOK_clean_linker_0, # of connection points: 2
#     Edge 92, Type (0, 0), BuildingBlock: AJUNOK_clean_linker_0, # of connection points: 2
#     Edge 93, Type (0, 0), BuildingBlock: AJUNOK_clean_linker_0, # of connection points: 2
#     Edge 94, Type (0, 0), BuildingBlock: AJUNOK_clean_linker_0, # of connection points: 2
#     Edge 95, Type (0, 0), BuildingBlock: AJUNOK_clean_linker_0, # of connection points: 2
#     Edge 96, Type (0, 0), BuildingBlock: AJUNOK_clean_linker_0, # of connection points: 2
#     Edge 97, Type (0, 0), BuildingBlock: AJUNOK_clean_linker_0, # of connection points: 2
#     Edge 98, Type (0, 0), BuildingBlock: AJUNOK_clean_linker_0, # of connection points: 2
#     Edge 99, Type (0, 0), BuildingBlock: AJUNOK_clean_linker_0, # of connection points: 2
#     Edge 100, Type (0, 0), BuildingBlock: AJUNOK_clean_linker_0, # of connection points: 2
#     Edge 101, Type (0, 0), BuildingBlock: AJUNOK_clean_linker_0, # of connection points: 2
#     Edge 102, Type (0, 0), BuildingBlock: AJUNOK_clean_linker_0, # of connection points: 2
#     Edge 103, Type (0, 0), BuildingBlock: AJUNOK_clean_linker_0, # of connection points: 2
#     Edge 104, Type (0, 0), BuildingBlock: AJUNOK_clean_linker_0, # of connection points: 2
#     Edge 105, Type (0, 0), BuildingBlock: AJUNOK_clean_linker_0, # of connection points: 2
#     Edge 106, Type (0, 0), BuildingBlock: AJUNOK_clean_linker_0, # of connection points: 2
#     Edge 107, Type (0, 0), BuildingBlock: AJUNOK_clean_linker_0, # of connection points: 2
#     Edge 108, Type (0, 0), BuildingBlock: AJUNOK_clean_linker_0, # of connection points: 2
#     Edge 109, Type (0, 0), BuildingBlock: AJUNOK_clean_linker_0, # of connection points: 2
#     Edge 110, Type (0, 0), BuildingBlock: AJUNOK_clean_linker_0, # of connection points: 2
#     Edge 111, Type (0, 0), BuildingBlock: AJUNOK_clean_linker_0, # of connection points: 2
#     Edge 112, Type (0, 0), BuildingBlock: AJUNOK_clean_linker_0, # of connection points: 2
#     Edge 113, Type (0, 0), BuildingBlock: AJUNOK_clean_linker_0, # of connection points: 2
#     Edge 114, Type (0, 0), BuildingBlock: AJUNOK_clean_linker_0, # of connection points: 2
#     Edge 115, Type (0, 0), BuildingBlock: AJUNOK_clean_linker_0, # of connection points: 2
#     Edge 116, Type (0, 0), BuildingBlock: AJUNOK_clean_linker_0, # of connection points: 2
#     Edge 117, Type (0, 0), BuildingBlock: AJUNOK_clean_linker_0, # of connection points: 2
#     Edge 118, Type (0, 0), BuildingBlock: AJUNOK_clean_linker_0, # of connection points: 2
#     Edge 119, Type (0, 0), BuildingBlock: AJUNOK_clean_linker_0, # of connection points: 2
#     Edge 120, Type (0, 0), BuildingBlock: AJUNOK_clean_linker_0, # of connection points: 2
#     Edge 121, Type (0, 0), BuildingBlock: AJUNOK_clean_linker_0, # of connection points: 2
#     Edge 122, Type (0, 0), BuildingBlock: AJUNOK_clean_linker_0, # of connection points: 2
#     Edge 123, Type (0, 0), BuildingBlock: AJUNOK_clean_linker_0, # of connection points: 2
#     Edge 124, Type (0, 0), BuildingBlock: AJUNOK_clean_linker_0, # of connection points: 2
#     Edge 125, Type (0, 0), BuildingBlock: AJUNOK_clean_linker_0, # of connection points: 2
#     Edge 126, Type (0, 0), BuildingBlock: AJUNOK_clean_linker_0, # of connection points: 2
#     Edge 127, Type (0, 0), BuildingBlock: AJUNOK_clean_linker_0, # of connection points: 2
#     Edge 128, Type (0, 0), BuildingBlock: AJUNOK_clean_linker_0, # of connection points: 2
#     Edge 129, Type (0, 0), BuildingBlock: AJUNOK_clean_linker_0, # of connection points: 2
#     Edge 130, Type (0, 0), BuildingBlock: AJUNOK_clean_linker_0, # of connection points: 2
#     Edge 131, Type (0, 0), BuildingBlock: AJUNOK_clean_linker_0, # of connection points: 2
#     Edge 132, Type (0, 0), BuildingBlock: AJUNOK_clean_linker_0, # of connection points: 2
#     Edge 133, Type (0, 0), BuildingBlock: AJUNOK_clean_linker_0, # of connection points: 2
#     Edge 134, Type (0, 0), BuildingBlock: AJUNOK_clean_linker_0, # of connection points: 2
#     Edge 135, Type (0, 0), BuildingBlock: AJUNOK_clean_linker_0, # of connection points: 2
#     Edge 136, Type (0, 0), BuildingBlock: AJUNOK_clean_linker_0, # of connection points: 2
#     Edge 137, Type (0, 0), BuildingBlock: AJUNOK_clean_linker_0, # of connection points: 2
#     Edge 138, Type (0, 0), BuildingBlock: AJUNOK_clean_linker_0, # of connection points: 2
#     Edge 139, Type (0, 0), BuildingBlock: AJUNOK_clean_linker_0, # of connection points: 2
#     Edge 140, Type (0, 0), BuildingBlock: AJUNOK_clean_linker_0, # of connection points: 2
#     Edge 141, Type (0, 0), BuildingBlock: AJUNOK_clean_linker_0, # of connection points: 2
#     Edge 142, Type (0, 0), BuildingBlock: AJUNOK_clean_linker_0, # of connection points: 2
#     Edge 143, Type (0, 0), BuildingBlock: AJUNOK_clean_linker_0, # of connection points: 2
# Relax obj value: 0.099
# Max RMSD: 0.123
# Mean RMSD: 0.112
data_MOF--net-ana--node1-CEKHIL_clean_sbu_0--edge1-AJUNOK_clean_linker_0
_symmetry_space_group_name_H-M    P1
_symmetry_Int_Tables_number       1
_symmetry_cell_setting            triclinic
loop_
_symmetry_equiv_pos_as_xyz
'x, y, z'
_cell_length_a     47.96152
_cell_length_b     47.051459
_cell_length_c     47.087084
_cell_angle_alpha  90.055227
_cell_angle_beta   90.064467
_cell_angle_gamma 90.288598
loop_
_atom_site_label
_atom_site_type_symbol
_atom_site_fract_x
_atom_site_fract_y
_atom_site_fract_z
_atom_type_partial_charge
Co0 Co 0.13896 0.17578 0.41667 0.0
O1 O 0.17875 0.17542 0.42112 0.0
O2 O 0.15424 0.13993 0.40297 0.0
C3 C 0.13704 0.21987 0.39774 0.0
O4 O 0.09752 0.16961 0.40731 0.0
Co5 Co 0.1034 0.22128 0.44838 0.0
O6 O 0.07506 0.20945 0.42008 0.0
C7 C 0.12471 0.17127 0.47954 0.0
C8 C 0.1786 0.15043 0.40952 0.0
C9 C 0.07571 0.18562 0.40718 0.0
O10 O 0.13402 0.16 0.45644 0.0
O11 O 0.11404 0.19612 0.48071 0.0
O12 O 0.1427 0.19815 0.38171 0.0
O13 O 0.13512 0.21447 0.42444 0.0
Co14 Co 0.09071 0.87027 0.67236 0.0
O15 O 0.12231 0.87193 0.69766 0.0
O16 O 0.07872 0.88173 0.70974 0.0
C17 C 0.10037 0.82774 0.6529 0.0
O18 O 0.05269 0.87004 0.65288 0.0
Co19 Co 0.09843 0.87078 0.60747 0.0
O20 O 0.05831 0.86018 0.60657 0.0
C21 C 0.1083 0.92327 0.63978 0.0
C22 C 0.10475 0.87958 0.71715 0.0
C23 C 0.04281 0.86368 0.62823 0.0
O24 O 0.09759 0.91099 0.66157 0.0
O25 O 0.11263 0.91016 0.61637 0.0
O26 O 0.08786 0.82942 0.6773 0.0
O27 O 0.10907 0.8516 0.64237 0.0
Co28 Co 0.36554 0.82512 0.91174 0.0
O29 O 0.32634 0.81936 0.91645 0.0
O30 O 0.34535 0.85846 0.89867 0.0
C31 C 0.37422 0.78213 0.89288 0.0
O32 O 0.40556 0.83773 0.90341 0.0
Co33 Co 0.40652 0.78674 0.9454 0.0
O34 O 0.43395 0.80259 0.91802 0.0
C35 C 0.37468 0.831 0.97527 0.0
C36 C 0.32298 0.84482 0.90663 0.0
C37 C 0.42958 0.82562 0.90456 0.0
O38 O 0.36736 0.84133 0.95116 0.0
O39 O 0.38875 0.80805 0.97768 0.0
O40 O 0.36549 0.80269 0.87674 0.0
O41 O 0.37508 0.78765 0.91968 0.0
Co42 Co 0.41543 0.12631 0.16581 0.0
O43 O 0.38203 0.12613 0.18856 0.0
O44 O 0.42342 0.11132 0.2031 0.0
C45 C 0.41019 0.17099 0.14932 0.0
O46 O 0.4549 0.12427 0.14917 0.0
Co47 Co 0.41315 0.13192 0.10072 0.0
O48 O 0.45354 0.14023 0.10428 0.0
C49 C 0.39734 0.07758 0.12734 0.0
C50 C 0.39726 0.11574 0.20879 0.0
C51 C 0.46709 0.13266 0.12624 0.0
O52 O 0.40551 0.08721 0.15151 0.0
O53 O 0.39732 0.09243 0.10458 0.0
O54 O 0.42135 0.16634 0.17401 0.0
O55 O 0.40077 0.14871 0.13622 0.0
Co56 Co 0.11791 0.83145 0.07928 0.0
O57 O 0.07801 0.82775 0.07556 0.0
O58 O 0.09963 0.8423 0.11442 0.0
C59 C 0.12364 0.85365 0.03713 0.0
O60 O 0.15848 0.83952 0.09067 0.0
Co61 Co 0.15905 0.80486 0.03579 0.0
O62 O 0.18547 0.83297 0.05219 0.0
C63 C 0.13088 0.76837 0.07889 0.0
C64 C 0.07619 0.83717 0.10138 0.0
C65 C 0.18174 0.84246 0.07722 0.0
O66 O 0.12087 0.79032 0.09177 0.0
O67 O 0.14468 0.77017 0.05569 0.0
O68 O 0.11659 0.8682 0.05947 0.0
O69 O 0.12558 0.82666 0.04081 0.0
Co70 Co 0.43057 0.88597 0.3412 0.0
O71 O 0.45514 0.883 0.3732 0.0
O72 O 0.46631 0.87086 0.32922 0.0
C73 C 0.41575 0.93032 0.35033 0.0
O74 O 0.41067 0.887 0.30293 0.0
Co75 Co 0.3672 0.89107 0.35124 0.0
O76 O 0.36654 0.90119 0.31031 0.0
C77 C 0.39409 0.8357 0.35914 0.0
C78 C 0.47356 0.87296 0.35579 0.0
C79 C 0.38676 0.89541 0.29378 0.0
O80 O 0.41649 0.8464 0.34864 0.0
O81 O 0.3723 0.85051 0.36416 0.0
O82 O 0.4392 0.92596 0.33735 0.0
O83 O 0.40328 0.90784 0.36001 0.0
Co84 Co 0.38522 0.16186 0.5763 0.0
O85 O 0.42483 0.16588 0.57238 0.0
O86 O 0.40402 0.14533 0.60889 0.0
C87 C 0.37752 0.14682 0.53154 0.0
O88 O 0.3447 0.15269 0.58665 0.0
Co89 Co 0.34547 0.19844 0.53889 0.0
O90 O 0.31616 0.17347 0.5548 0.0
C91 C 0.37412 0.22427 0.58816 0.0
C92 C 0.42717 0.15284 0.59648 0.0
C93 C 0.32036 0.15709 0.57588 0.0
O94 O 0.38361 0.19998 0.59598 0.0
O95 O 0.36012 0.22821 0.56537 0.0
O96 O 0.38526 0.12886 0.55094 0.0
O97 O 0.377 0.1731 0.53919 0.0
Co98 Co 0.08161 0.12035 0.84147 0.0
O99 O 0.05671 0.12529 0.87282 0.0
O100 O 0.04578 0.1341 0.82798 0.0
C101 C 0.09709 0.07693 0.85334 0.0
O102 O 0.1026 0.11648 0.80393 0.0
Co103 Co 0.14488 0.11713 0.85494 0.0
O104 O 0.1463 0.10316 0.81522 0.0
C105 C 0.11715 0.17249 0.85641 0.0
C106 C 0.03833 0.1338 0.85458 0.0
C107 C 0.12692 0.10706 0.79709 0.0
O108 O 0.09515 0.16056 0.84629 0.0
O109 O 0.13884 0.15852 0.86374 0.0
O110 O 0.07352 0.07999 0.84016 0.0
O111 O 0.10861 0.1003 0.86212 0.0
Co112 Co 0.17579 0.40315 0.13242 0.0
O113 O 0.20065 0.37149 0.12935 0.0
O114 O 0.21201 0.41579 0.11846 0.0
C115 C 0.15927 0.39326 0.1762 0.0
O116 O 0.1551 0.44107 0.13427 0.0
Co117 Co 0.11226 0.39014 0.13575 0.0
O118 O 0.11095 0.43067 0.14719 0.0
C119 C 0.14156 0.38248 0.08195 0.0
C120 C 0.21931 0.3892 0.12012 0.0
C121 C 0.13066 0.44846 0.14299 0.0
O122 O 0.16262 0.39603 0.09223 0.0
O123 O 0.12039 0.37516 0.09678 0.0
O124 O 0.18305 0.40623 0.17308 0.0
O125 O 0.14828 0.38368 0.15299 0.0
Co126 Co 0.67432 0.0919 0.86799 0.0
O127 O 0.70027 0.12277 0.86344 0.0
O128 O 0.71088 0.08045 0.88095 0.0
C129 C 0.65479 0.09489 0.82478 0.0
O130 O 0.6536 0.05451 0.87405 0.0
Co131 Co 0.61121 0.10257 0.86825 0.0
O132 O 0.60907 0.06102 0.861 0.0
C133 C 0.64317 0.11423 0.92028 0.0
C134 C 0.71908 0.10573 0.87336 0.0
C135 C 0.62926 0.04481 0.86759 0.0
O136 O 0.66494 0.10492 0.90752 0.0
O137 O 0.61957 0.11675 0.9078 0.0
O138 O 0.67833 0.08193 0.82845 0.0
O139 O 0.64527 0.10863 0.84659 0.0
Co140 Co 0.84565 0.92682 0.38705 0.0
O141 O 0.87744 0.9517 0.38953 0.0
O142 O 0.83612 0.96387 0.37232 0.0
C143 C 0.8492 0.9088 0.43119 0.0
O144 O 0.80773 0.90744 0.38267 0.0
Co145 Co 0.8534 0.8622 0.38894 0.0
O146 O 0.81273 0.8622 0.39688 0.0
C147 C 0.86639 0.89227 0.33611 0.0
C148 C 0.86171 0.97102 0.37833 0.0
C149 C 0.79748 0.88327 0.39024 0.0
O150 O 0.85711 0.91488 0.3479 0.0
O151 O 0.86852 0.86869 0.34947 0.0
O152 O 0.83733 0.93315 0.42671 0.0
O153 O 0.86117 0.89746 0.40926 0.0
Co154 Co 0.84537 0.07941 0.11742 0.0
O155 O 0.8774 0.05502 0.1199 0.0
O156 O 0.83452 0.0424 0.13193 0.0
C157 C 0.85397 0.09608 0.07329 0.0
O158 O 0.80711 0.09895 0.11653 0.0
Co159 Co 0.85519 0.14431 0.11352 0.0
O160 O 0.8147 0.14471 0.10486 0.0
C161 C 0.86756 0.11457 0.16641 0.0
C162 C 0.8607 0.03557 0.12955 0.0
C163 C 0.79823 0.1238 0.10929 0.0
O164 O 0.85325 0.09326 0.15726 0.0
O165 O 0.87353 0.1361 0.15096 0.0
O166 O 0.84173 0.07164 0.07681 0.0
O167 O 0.86317 0.1079 0.09627 0.0
Co168 Co 0.34668 0.58314 0.61734 0.0
O169 O 0.3787 0.55882 0.61904 0.0
O170 O 0.33574 0.54576 0.63054 0.0
C171 C 0.3554 0.60106 0.57381 0.0
O172 O 0.30838 0.60244 0.61694 0.0
Co173 Co 0.35604 0.64801 0.61567 0.0
O174 O 0.31569 0.64844 0.60624 0.0
C175 C 0.36894 0.61656 0.6675 0.0
C176 C 0.36193 0.53907 0.62791 0.0
C177 C 0.29936 0.6273 0.61002 0.0
O178 O 0.35458 0.59562 0.65761 0.0
O179 O 0.3746 0.63872 0.65283 0.0
O180 O 0.34306 0.57659 0.57663 0.0
O181 O 0.36455 0.61232 0.59712 0.0
Co182 Co 0.1802 0.59388 0.36643 0.0
O183 O 0.20609 0.62514 0.36423 0.0
O184 O 0.21615 0.58239 0.38104 0.0
C185 C 0.16297 0.59831 0.32216 0.0
O186 O 0.15966 0.55609 0.37035 0.0
Co187 Co 0.11704 0.60381 0.36371 0.0
O188 O 0.11533 0.56224 0.35644 0.0
C189 C 0.14618 0.6141 0.41765 0.0
C190 C 0.22447 0.60799 0.3748 0.0
C191 C 0.13553 0.5462 0.36339 0.0
O192 O 0.16866 0.60544 0.40577 0.0
O193 O 0.12321 0.61698 0.40407 0.0
O194 O 0.18636 0.58537 0.32688 0.0
O195 O 0.15206 0.61095 0.34397 0.0
Co196 Co 0.33176 0.41126 0.86857 0.0
O197 O 0.30449 0.38108 0.86878 0.0
O198 O 0.29685 0.42526 0.88317 0.0
C199 C 0.34751 0.40448 0.82417 0.0
O200 O 0.35387 0.44817 0.87031 0.0
Co201 Co 0.39462 0.3989 0.86387 0.0
O202 O 0.39789 0.44036 0.85636 0.0
C203 C 0.36617 0.38912 0.91836 0.0
C204 C 0.28716 0.39981 0.87854 0.0
C205 C 0.3782 0.45717 0.86303 0.0
O206 O 0.34415 0.40051 0.9079 0.0
O207 O 0.38816 0.38452 0.90368 0.0
O208 O 0.32468 0.41839 0.82889 0.0
O209 O 0.35852 0.39225 0.84613 0.0
Co210 Co 0.87083 0.82596 0.59402 0.0
O211 O 0.87452 0.79992 0.62517 0.0
O212 O 0.88377 0.78942 0.58035 0.0
C213 C 0.82832 0.84298 0.60549 0.0
O214 O 0.86837 0.84715 0.55628 0.0
Co215 Co 0.86912 0.89041 0.60656 0.0
O216 O 0.8572 0.89243 0.56625 0.0
C217 C 0.9224 0.86067 0.61112 0.0
C218 C 0.88281 0.78128 0.60674 0.0
C219 C 0.86075 0.87222 0.54857 0.0
O220 O 0.91066 0.83874 0.59992 0.0
O221 O 0.90884 0.88301 0.61797 0.0
O222 O 0.83083 0.81897 0.59211 0.0
O223 O 0.85148 0.85408 0.61443 0.0
Co224 Co 0.91932 0.13575 0.32712 0.0
O225 O 0.88793 0.13164 0.30194 0.0
O226 O 0.93164 0.12173 0.29061 0.0
C227 C 0.90823 0.17945 0.34277 0.0
O228 O 0.95731 0.13883 0.34711 0.0
Co229 Co 0.91051 0.14189 0.39219 0.0
O230 O 0.9491 0.15684 0.39061 0.0
C231 C 0.90251 0.08611 0.36488 0.0
C232 C 0.90561 0.1232 0.28295 0.0
C233 C 0.9656 0.15058 0.37043 0.0
O234 O 0.91245 0.09587 0.34143 0.0
O235 O 0.8988 0.10129 0.3871 0.0
O236 O 0.92132 0.1763 0.31885 0.0
O237 O 0.90032 0.15621 0.35504 0.0
Co238 Co 0.63715 0.17257 0.09314 0.0
O239 O 0.63594 0.19692 0.12605 0.0
O240 O 0.62207 0.20912 0.08289 0.0
C241 C 0.68124 0.15661 0.09911 0.0
O242 O 0.63609 0.15437 0.05389 0.0
Co243 Co 0.64182 0.10793 0.09902 0.0
O244 O 0.65104 0.10943 0.05785 0.0
C245 C 0.5879 0.13469 0.11081 0.0
C246 C 0.62561 0.21616 0.10936 0.0
C247 C 0.64448 0.13093 0.04287 0.0
O248 O 0.59847 0.15822 0.10196 0.0
O249 O 0.60229 0.11197 0.11329 0.0
O250 O 0.67628 0.18108 0.08749 0.0
O251 O 0.65958 0.14375 0.10964 0.0
Co252 Co 0.58916 0.87128 0.83512 0.0
O253 O 0.62197 0.87498 0.81212 0.0
O254 O 0.57887 0.88281 0.79713 0.0
C255 C 0.60038 0.82885 0.85391 0.0
O256 O 0.55021 0.86813 0.85239 0.0
Co257 Co 0.59449 0.87056 0.90042 0.0
O258 O 0.55378 0.86341 0.89986 0.0
C259 C 0.60496 0.92345 0.86949 0.0
C260 C 0.60539 0.88168 0.79144 0.0
C261 C 0.53939 0.86445 0.87714 0.0
O262 O 0.59352 0.9122 0.84741 0.0
O263 O 0.60987 0.9094 0.89217 0.0
O264 O 0.58878 0.8304 0.82904 0.0
O265 O 0.60705 0.85294 0.86541 0.0
Co266 Co 0.88367 0.15826 0.91639 0.0
O267 O 0.88385 0.12522 0.94065 0.0
O268 O 0.86905 0.16793 0.95325 0.0
C269 C 0.92738 0.15332 0.89937 0.0
O270 O 0.88116 0.19765 0.89857 0.0
Co271 Co 0.88895 0.15423 0.85115 0.0
O272 O 0.89553 0.19581 0.85329 0.0
C273 C 0.8354 0.13979 0.87845 0.0
C274 C 0.87358 0.14164 0.96019 0.0
C275 C 0.88827 0.20982 0.8752 0.0
O276 O 0.84523 0.14769 0.9026 0.0
O277 O 0.84983 0.13937 0.85559 0.0
O278 O 0.92296 0.16498 0.92396 0.0
O279 O 0.90556 0.14278 0.88695 0.0
Co280 Co 0.57823 0.11094 0.6595 0.0
O281 O 0.55424 0.11253 0.62691 0.0
O282 O 0.54296 0.12824 0.66971 0.0
C283 C 0.59189 0.06549 0.65397 0.0
O284 O 0.59724 0.11154 0.69837 0.0
Co285 Co 0.64176 0.10115 0.65173 0.0
O286 O 0.6391 0.09096 0.69246 0.0
C287 C 0.61766 0.15715 0.63804 0.0
C288 C 0.53596 0.12446 0.64326 0.0
C289 C 0.61937 0.09971 0.70828 0.0
O290 O 0.59431 0.14931 0.64903 0.0
O291 O 0.63842 0.14032 0.63538 0.0
O292 O 0.56824 0.0713 0.66603 0.0
O293 O 0.60486 0.08691 0.64294 0.0
Co294 Co 0.62611 0.8418 0.42046 0.0
O295 O 0.62439 0.87332 0.44651 0.0
O296 O 0.63899 0.83 0.45742 0.0
C297 C 0.58342 0.84787 0.40134 0.0
O298 O 0.62909 0.80359 0.4006 0.0
Co299 Co 0.62635 0.85078 0.356 0.0
O300 O 0.62352 0.80875 0.35346 0.0
C301 C 0.67763 0.86237 0.38782 0.0
C302 C 0.63386 0.85586 0.46551 0.0
C303 C 0.62658 0.79335 0.37543 0.0
O304 O 0.66544 0.85228 0.40989 0.0
O305 O 0.66494 0.86588 0.36416 0.0
O306 O 0.58669 0.83482 0.42539 0.0
O307 O 0.60581 0.85929 0.39075 0.0
Co308 Co 0.92408 0.87979 0.16292 0.0
O309 O 0.94766 0.87608 0.12982 0.0
O310 O 0.96026 0.86529 0.17364 0.0
C311 C 0.90765 0.92388 0.15285 0.0
O312 O 0.90706 0.88145 0.20264 0.0
Co313 Co 0.8599 0.8867 0.15961 0.0
O314 O 0.86338 0.89825 0.19983 0.0
C315 C 0.88525 0.8307 0.1483 0.0
C316 C 0.96689 0.86687 0.14695 0.0
C317 C 0.88479 0.8913 0.21416 0.0
O318 O 0.90928 0.83992 0.15658 0.0
O319 O 0.86389 0.84672 0.14597 0.0
O320 O 0.93195 0.92073 0.16471 0.0
O321 O 0.89531 0.90058 0.14556 0.0
Co322 Co 0.83067 0.59151 0.86665 0.0
O323 O 0.80552 0.62297 0.86669 0.0
O324 O 0.79458 0.5801 0.88225 0.0
C325 C 0.84687 0.59803 0.82188 0.0
O326 O 0.85181 0.55396 0.8689 0.0
Co327 Co 0.89426 0.6054 0.86075 0.0
O328 O 0.89661 0.56347 0.85782 0.0
C329 C 0.86556 0.61673 0.91456 0.0
C330 C 0.78709 0.60636 0.87812 0.0
C331 C 0.87709 0.54605 0.86409 0.0
O332 O 0.84418 0.60255 0.90588 0.0
O333 O 0.88642 0.62285 0.89875 0.0
O334 O 0.82347 0.58464 0.82616 0.0
O335 O 0.85773 0.60937 0.84424 0.0
Co336 Co 0.33956 0.9168 0.11899 0.0
O337 O 0.37191 0.94099 0.11706 0.0
O338 O 0.32926 0.95565 0.12743 0.0
C339 C 0.34794 0.89321 0.0784 0.0
O340 O 0.30086 0.8984 0.12058 0.0
Co341 Co 0.34612 0.85184 0.12524 0.0
O342 O 0.30536 0.85082 0.11817 0.0
C343 C 0.35864 0.88872 0.17382 0.0
C344 C 0.35538 0.96185 0.12308 0.0
C345 C 0.29047 0.87317 0.11838 0.0
O346 O 0.34707 0.90946 0.16056 0.0
O347 O 0.3628 0.86448 0.16228 0.0
O348 O 0.33599 0.91792 0.07789 0.0
O349 O 0.35676 0.8849 0.10298 0.0
Co350 Co 0.17504 0.09323 0.63382 0.0
O351 O 0.19996 0.12529 0.63253 0.0
O352 O 0.20939 0.08279 0.61487 0.0
C353 C 0.16305 0.09769 0.67989 0.0
O354 O 0.15494 0.0549 0.63234 0.0
Co355 Co 0.11206 0.10145 0.64662 0.0
O356 O 0.11337 0.06001 0.65381 0.0
C357 C 0.13454 0.11696 0.59018 0.0
C358 C 0.21742 0.10885 0.61949 0.0
C359 C 0.13263 0.04453 0.64359 0.0
O360 O 0.15802 0.10545 0.59655 0.0
O361 O 0.11448 0.11913 0.60796 0.0
O362 O 0.18609 0.08513 0.6728 0.0
O363 O 0.14962 0.10949 0.6593 0.0
Co364 Co 0.16095 0.92237 0.88465 0.0
O365 O 0.12884 0.94603 0.8815 0.0
O366 O 0.17201 0.95993 0.87173 0.0
C367 C 0.15009 0.90456 0.92782 0.0
O368 O 0.19924 0.90352 0.88671 0.0
Co369 Co 0.15237 0.85711 0.88716 0.0
O370 O 0.19195 0.85789 0.89926 0.0
C371 C 0.14153 0.88765 0.83418 0.0
C372 C 0.14558 0.96599 0.87309 0.0
C373 C 0.20806 0.87914 0.89526 0.0
O374 O 0.15486 0.9093 0.84414 0.0
O375 O 0.1357 0.8657 0.84907 0.0
O376 O 0.16251 0.92907 0.92569 0.0
O377 O 0.14257 0.89321 0.90402 0.0
Co378 Co 0.66658 0.42006 0.38619 0.0
O379 O 0.63463 0.44416 0.38484 0.0
O380 O 0.67752 0.45787 0.37376 0.0
C381 C 0.65719 0.40125 0.42924 0.0
O382 O 0.70472 0.40061 0.38633 0.0
Co383 Co 0.65654 0.35495 0.38703 0.0
O384 O 0.69725 0.35397 0.39407 0.0
C385 C 0.64439 0.38728 0.33559 0.0
C386 C 0.65121 0.46416 0.37621 0.0
C387 C 0.71361 0.37518 0.39088 0.0
O388 O 0.6589 0.40811 0.34558 0.0
O389 O 0.63822 0.36522 0.35018 0.0
O390 O 0.66974 0.42571 0.42726 0.0
O391 O 0.64852 0.39065 0.40552 0.0
Co392 Co 0.82881 0.40465 0.63769 0.0
O393 O 0.80364 0.37274 0.63823 0.0
O394 O 0.79416 0.41441 0.61883 0.0
C395 C 0.84162 0.40235 0.68379 0.0
O396 O 0.84928 0.44266 0.63404 0.0
Co397 Co 0.89184 0.39574 0.64924 0.0
O398 O 0.89227 0.43774 0.65249 0.0
C399 C 0.86815 0.37913 0.59375 0.0
C400 C 0.78607 0.38862 0.62467 0.0
C401 C 0.87279 0.45309 0.64246 0.0
O402 O 0.84493 0.3908 0.60063 0.0
O403 O 0.88868 0.37698 0.61103 0.0
O404 O 0.81857 0.41471 0.6764 0.0
O405 O 0.85455 0.38933 0.66358 0.0
Co406 Co 0.67907 0.59095 0.13697 0.0
O407 O 0.70598 0.62148 0.13635 0.0
O408 O 0.7126 0.57867 0.11791 0.0
C409 C 0.66667 0.59617 0.18291 0.0
O410 O 0.65733 0.5537 0.13481 0.0
Co411 Co 0.6164 0.60133 0.14857 0.0
O412 O 0.61487 0.55957 0.1539 0.0
C413 C 0.64022 0.6161 0.09261 0.0
C414 C 0.72225 0.60404 0.12298 0.0
C415 C 0.63401 0.54372 0.14403 0.0
O416 O 0.66325 0.6041 0.09958 0.0
O417 O 0.61984 0.61895 0.10992 0.0
O418 O 0.68907 0.58224 0.17615 0.0
O419 O 0.654 0.60837 0.16205 0.0
Co420 Co 0.63809 0.67586 0.91897 0.0
O421 O 0.67782 0.67778 0.92227 0.0
O422 O 0.65502 0.64092 0.90466 0.0
C423 C 0.63344 0.71971 0.90018 0.0
O424 O 0.59656 0.66783 0.91113 0.0
Co425 Co 0.60235 0.71967 0.95286 0.0
O426 O 0.57347 0.7067 0.92572 0.0
C427 C 0.62714 0.67056 0.98252 0.0
C428 C 0.67889 0.65298 0.91048 0.0
C429 C 0.57421 0.68304 0.91249 0.0
O430 O 0.63542 0.65979 0.9588 0.0
O431 O 0.61538 0.69484 0.98453 0.0
O432 O 0.63957 0.6983 0.88394 0.0
O433 O 0.6328 0.71427 0.92695 0.0
Co434 Co 0.59122 0.37084 0.17451 0.0
O435 O 0.62308 0.37238 0.19947 0.0
O436 O 0.57986 0.38327 0.21184 0.0
C437 C 0.60018 0.3276 0.15592 0.0
O438 O 0.553 0.37106 0.15537 0.0
Co439 Co 0.59832 0.36915 0.10941 0.0
O440 O 0.55777 0.3606 0.10907 0.0
C441 C 0.60927 0.42243 0.14018 0.0
C442 C 0.60591 0.38068 0.21905 0.0
C443 C 0.54264 0.3652 0.1308 0.0
O444 O 0.59863 0.41125 0.16262 0.0
O445 O 0.61318 0.40843 0.11722 0.0
O446 O 0.58779 0.33001 0.18031 0.0
O447 O 0.60897 0.35114 0.14483 0.0
Co448 Co 0.87292 0.32887 0.41747 0.0
O449 O 0.83379 0.32163 0.4208 0.0
O450 O 0.85183 0.3625 0.40641 0.0
C451 C 0.88205 0.28781 0.39477 0.0
O452 O 0.91278 0.34288 0.4099 0.0
Co453 Co 0.91544 0.28832 0.44615 0.0
O454 O 0.9409 0.30547 0.41772 0.0
C455 C 0.88513 0.33053 0.48097 0.0
C456 C 0.82973 0.34697 0.41103 0.0
C457 C 0.93634 0.33 0.40736 0.0
O458 O 0.87456 0.34172 0.45844 0.0
O459 O 0.90049 0.30833 0.48047 0.0
O460 O 0.87323 0.30969 0.38064 0.0
O461 O 0.88305 0.29083 0.42198 0.0
Co462 Co 0.9175 0.62547 0.66859 0.0
O463 O 0.88379 0.62418 0.69062 0.0
O464 O 0.92554 0.61278 0.70697 0.0
C465 C 0.9102 0.66879 0.64945 0.0
O466 O 0.95704 0.62517 0.65208 0.0
Co467 Co 0.91343 0.6261 0.60331 0.0
O468 O 0.95362 0.63617 0.6057 0.0
C469 C 0.90027 0.57357 0.63394 0.0
C470 C 0.8989 0.61529 0.71161 0.0
C471 C 0.96806 0.63201 0.62805 0.0
O472 O 0.9106 0.58507 0.65639 0.0
O473 O 0.89721 0.58718 0.61063 0.0
O474 O 0.92089 0.66618 0.67467 0.0
O475 O 0.90178 0.64533 0.6378 0.0
Co476 Co 0.61912 0.3318 0.58071 0.0
O477 O 0.57959 0.32703 0.57605 0.0
O478 O 0.59957 0.34472 0.61448 0.0
C479 C 0.62675 0.3515 0.53776 0.0
O480 O 0.6593 0.34135 0.59223 0.0
Co481 Co 0.66015 0.3002 0.54028 0.0
O482 O 0.68853 0.32474 0.55861 0.0
C483 C 0.6317 0.2686 0.58613 0.0
C484 C 0.57667 0.33792 0.60115 0.0
C485 C 0.68375 0.33898 0.58109 0.0
O486 O 0.62192 0.29187 0.5965 0.0
O487 O 0.64556 0.26745 0.56295 0.0
O488 O 0.61817 0.3671 0.55876 0.0
O489 O 0.62801 0.32462 0.54279 0.0
Co490 Co 0.92392 0.384 0.84568 0.0
O491 O 0.94989 0.37948 0.87632 0.0
O492 O 0.95896 0.36922 0.83138 0.0
C493 C 0.91019 0.4281 0.8572 0.0
O494 O 0.90208 0.38719 0.80851 0.0
Co495 Co 0.86134 0.38903 0.86014 0.0
O496 O 0.85858 0.40082 0.81983 0.0
C497 C 0.88799 0.33323 0.86366 0.0
C498 C 0.96757 0.3705 0.8576 0.0
C499 C 0.87766 0.39624 0.80159 0.0
O500 O 0.90975 0.34423 0.85211 0.0
O501 O 0.86678 0.34797 0.8709 0.0
O502 O 0.93299 0.42397 0.84302 0.0
O503 O 0.89798 0.40543 0.86679 0.0
Co504 Co 0.88788 0.66181 0.078 0.0
O505 O 0.92736 0.66752 0.07398 0.0
O506 O 0.90746 0.64494 0.10985 0.0
C507 C 0.88098 0.64834 0.0325 0.0
O508 O 0.84803 0.65071 0.08888 0.0
Co509 Co 0.84465 0.6959 0.04286 0.0
O510 O 0.81902 0.66471 0.05411 0.0
C511 C 0.87236 0.72236 0.09276 0.0
C512 C 0.93025 0.65371 0.09762 0.0
C513 C 0.82409 0.65041 0.07643 0.0
O514 O 0.88481 0.69903 0.09891 0.0
O515 O 0.85673 0.72562 0.07094 0.0
O516 O 0.88916 0.62991 0.05127 0.0
O517 O 0.87866 0.67412 0.0414 0.0
Co518 Co 0.58887 0.61996 0.347 0.0
O519 O 0.56306 0.62409 0.37795 0.0
O520 O 0.55354 0.63432 0.33313 0.0
C521 C 0.60382 0.57606 0.35801 0.0
O522 O 0.61001 0.61716 0.30939 0.0
Co523 Co 0.65219 0.61487 0.35902 0.0
O524 O 0.65327 0.60178 0.31908 0.0
C525 C 0.62588 0.6711 0.36169 0.0
C526 C 0.54512 0.63296 0.35937 0.0
C527 C 0.63387 0.60739 0.30148 0.0
O528 O 0.60271 0.65992 0.35359 0.0
O529 O 0.64799 0.65672 0.36636 0.0
O530 O 0.58056 0.57971 0.3444 0.0
O531 O 0.61565 0.59906 0.36733 0.0
Co532 Co 0.67364 0.90266 0.63676 0.0
O533 O 0.69858 0.87088 0.63481 0.0
O534 O 0.71017 0.91513 0.62394 0.0
C535 C 0.65592 0.8931 0.68003 0.0
O536 O 0.65337 0.94096 0.63759 0.0
Co537 Co 0.6098 0.89206 0.63883 0.0
O538 O 0.6097 0.93177 0.65257 0.0
C539 C 0.63923 0.88585 0.58458 0.0
C540 C 0.71756 0.88865 0.62635 0.0
C541 C 0.62959 0.94904 0.64748 0.0
O542 O 0.66177 0.89504 0.59629 0.0
O543 O 0.61643 0.88189 0.5981 0.0
O544 O 0.67977 0.90606 0.67745 0.0
O545 O 0.64525 0.88355 0.65662 0.0
Co546 Co 0.37365 0.32756 0.09043 0.0
O547 O 0.37529 0.30325 0.1232 0.0
O548 O 0.38798 0.29071 0.07977 0.0
C549 C 0.33015 0.34438 0.09781 0.0
O550 O 0.37414 0.34613 0.05141 0.0
Co551 Co 0.36982 0.39258 0.09737 0.0
O552 O 0.36218 0.39201 0.05586 0.0
C553 C 0.42299 0.36423 0.10918 0.0
C554 C 0.38527 0.28393 0.1064 0.0
C555 C 0.36766 0.37033 0.04063 0.0
O556 O 0.41264 0.3413 0.09863 0.0
O557 O 0.40863 0.3868 0.11288 0.0
O558 O 0.33409 0.31986 0.08581 0.0
O559 O 0.35244 0.35662 0.10757 0.0
Co560 Co 0.42038 0.63043 0.82904 0.0
O561 O 0.38974 0.62546 0.80314 0.0
O562 O 0.4341 0.61876 0.79208 0.0
C563 C 0.40647 0.67293 0.84598 0.0
O564 O 0.45762 0.63506 0.85026 0.0
Co565 Co 0.40841 0.63267 0.89367 0.0
O566 O 0.44689 0.64783 0.89504 0.0
C567 C 0.40294 0.57857 0.86309 0.0
C568 C 0.4081 0.61904 0.78407 0.0
C569 C 0.46446 0.64462 0.87503 0.0
O570 O 0.41579 0.58956 0.84169 0.0
O571 O 0.39597 0.59298 0.88498 0.0
O572 O 0.42022 0.67134 0.82231 0.0
O573 O 0.39941 0.64882 0.85704 0.0
Co574 Co 0.138 0.67329 0.58973 0.0
O575 O 0.13724 0.69807 0.62219 0.0
O576 O 0.12305 0.70982 0.57901 0.0
C577 C 0.18204 0.65728 0.59577 0.0
O578 O 0.13663 0.65425 0.55085 0.0
Co579 Co 0.14164 0.60904 0.59745 0.0
O580 O 0.15005 0.60896 0.55611 0.0
C581 C 0.08823 0.63662 0.60874 0.0
C582 C 0.12677 0.71711 0.60539 0.0
C583 C 0.14419 0.6302 0.54047 0.0
O584 O 0.09927 0.65959 0.59919 0.0
O585 O 0.10226 0.61376 0.61194 0.0
O586 O 0.17704 0.68145 0.58356 0.0
O587 O 0.16042 0.64474 0.60683 0.0
Co588 Co 0.09479 0.37224 0.33264 0.0
O589 O 0.12723 0.37523 0.30898 0.0
O590 O 0.08403 0.38369 0.29471 0.0
C591 C 0.10574 0.32968 0.35147 0.0
O592 O 0.05611 0.36993 0.35078 0.0
Co593 Co 0.10147 0.37199 0.39774 0.0
O594 O 0.06064 0.36555 0.39819 0.0
C595 C 0.11164 0.42466 0.36635 0.0
C596 C 0.11043 0.38211 0.28855 0.0
C597 C 0.04574 0.36657 0.37581 0.0
O598 O 0.09998 0.41323 0.34449 0.0
O599 O 0.11674 0.41079 0.3891 0.0
O600 O 0.09363 0.33132 0.32685 0.0
O601 O 0.11302 0.35373 0.36268 0.0
Co602 Co 0.3895 0.66226 0.41755 0.0
O603 O 0.38922 0.62963 0.44228 0.0
O604 O 0.37546 0.67284 0.45443 0.0
C605 C 0.43291 0.65586 0.40009 0.0
O606 O 0.38751 0.70139 0.39902 0.0
Co607 Co 0.39337 0.65678 0.3525 0.0
O608 O 0.40063 0.69825 0.35341 0.0
C609 C 0.34038 0.64317 0.381 0.0
C610 C 0.37927 0.64649 0.46161 0.0
C611 C 0.39418 0.71289 0.37517 0.0
O612 O 0.35065 0.65217 0.40458 0.0
O613 O 0.35436 0.64195 0.3579 0.0
O614 O 0.42909 0.66815 0.4245 0.0
O615 O 0.41068 0.64568 0.38813 0.0
Co616 Co 0.0823 0.61171 0.1577 0.0
O617 O 0.05693 0.6125 0.12624 0.0
O618 O 0.04767 0.62986 0.1689 0.0
C619 C 0.09503 0.5658 0.15293 0.0
O620 O 0.10346 0.61323 0.19548 0.0
Co621 Co 0.14507 0.60108 0.14567 0.0
O622 O 0.14585 0.59469 0.18722 0.0
C623 C 0.11986 0.65586 0.13022 0.0
C624 C 0.03955 0.62533 0.14288 0.0
C625 C 0.12698 0.60331 0.20421 0.0
O626 O 0.09817 0.64954 0.14501 0.0
O627 O 0.13986 0.63845 0.12599 0.0
O628 O 0.07216 0.57244 0.16607 0.0
O629 O 0.1076 0.5867 0.14053 0.0
Co630 Co 0.12266 0.34225 0.91729 0.0
O631 O 0.12303 0.37285 0.94458 0.0
O632 O 0.13625 0.32859 0.95324 0.0
C633 C 0.07943 0.34979 0.89997 0.0
O634 O 0.12435 0.30488 0.89579 0.0
Co635 Co 0.11926 0.35341 0.85278 0.0
O636 O 0.1127 0.31173 0.85013 0.0
C637 C 0.17088 0.36671 0.88372 0.0
C638 C 0.13242 0.35427 0.96256 0.0
C639 C 0.11816 0.2954 0.87096 0.0
O640 O 0.16162 0.35272 0.90517 0.0
O641 O 0.15621 0.3719 0.86162 0.0
O642 O 0.08305 0.33601 0.92357 0.0
O643 O 0.1017 0.36101 0.88912 0.0
Co644 Co 0.42442 0.38302 0.6588 0.0
O645 O 0.44879 0.37845 0.62675 0.0
O646 O 0.46018 0.36834 0.67117 0.0
C647 C 0.40888 0.42699 0.64753 0.0
O648 O 0.40514 0.38591 0.69745 0.0
Co649 Co 0.36052 0.38943 0.64994 0.0
O650 O 0.36156 0.40171 0.69001 0.0
C651 C 0.3869 0.33363 0.64167 0.0
C652 C 0.46725 0.36899 0.64451 0.0
C653 C 0.38175 0.39576 0.70653 0.0
O654 O 0.40981 0.34309 0.65249 0.0
O655 O 0.36576 0.34944 0.63697 0.0
O656 O 0.43266 0.42382 0.66041 0.0
O657 O 0.39692 0.40369 0.63958 0.0
Co658 Co 0.32999 0.09059 0.36411 0.0
O659 O 0.30359 0.12104 0.36539 0.0
O660 O 0.29423 0.07697 0.37866 0.0
C661 C 0.34667 0.09957 0.31993 0.0
O662 O 0.3527 0.05381 0.36487 0.0
Co663 Co 0.39276 0.10753 0.36056 0.0
O664 O 0.3971 0.0661 0.35507 0.0
C665 C 0.36272 0.11552 0.41375 0.0
C666 C 0.28576 0.10309 0.37577 0.0
C667 C 0.3784 0.04739 0.35993 0.0
O668 O 0.34243 0.10035 0.40407 0.0
O669 O 0.38334 0.12365 0.39857 0.0
O670 O 0.32361 0.08531 0.32322 0.0
O671 O 0.35664 0.11053 0.34292 0.0
C672 C 0.11292 0.27731 0.34701 0.0
C673 C 0.11339 0.30196 0.36402 0.0
C674 C 0.12113 0.2509 0.35786 0.0
C675 C 0.12971 0.24809 0.38624 0.0
H676 H 0.10646 0.27842 0.32499 0.0
H677 H 0.12036 0.23252 0.34401 0.0
S678 S 0.13445 0.30594 0.43976 0.0
N679 N 0.1232 0.32178 0.41069 0.0
N680 N 0.1382 0.27214 0.43123 0.0
C681 C 0.13011 0.2725 0.40355 0.0
C682 C 0.12207 0.29944 0.3924 0.0
C683 C 0.99432 0.8789 0.64053 0.0
C684 C 0.01218 0.86155 0.62447 0.0
C685 C 0.96537 0.87848 0.63608 0.0
C686 C 0.95308 0.86028 0.61579 0.0
H687 H 1.00282 0.89345 0.65618 0.0
H688 H 0.95254 0.89252 0.64871 0.0
S689 S 0.99071 0.80936 0.56939 0.0
N690 N 0.01552 0.82494 0.58819 0.0
N691 N 0.96121 0.82374 0.5801 0.0
C692 C 0.97072 0.84226 0.60011 0.0
C693 C 1.00021 0.84302 0.60436 0.0
C694 C 0.39131 0.75168 0.8531 0.0
C695 C 0.3828 0.75427 0.88151 0.0
C696 C 0.39943 0.72533 0.84198 0.0
C697 C 0.39877 0.70055 0.85873 0.0
H698 H 0.39191 0.77015 0.83939 0.0
H699 H 0.40583 0.72433 0.81995 0.0
S700 S 0.37788 0.69612 0.93449 0.0
N701 N 0.37441 0.73001 0.9263 0.0
N702 N 0.38889 0.68046 0.90524 0.0
C703 C 0.39022 0.70291 0.88718 0.0
C704 C 0.38246 0.7298 0.89862 0.0
C705 C 0.51108 0.15376 0.10724 0.0
C706 C 0.49804 0.13333 0.12457 0.0
C707 C 0.54004 0.15425 0.10356 0.0
C708 C 0.55735 0.13398 0.11662 0.0
H709 H 0.49876 0.16958 0.09627 0.0
H710 H 0.54881 0.17036 0.08973 0.0
S711 S 0.53368 0.07622 0.16472 0.0
N712 N 0.50467 0.09269 0.15564 0.0
N713 N 0.55922 0.09319 0.14829 0.0
C714 C 0.54465 0.11354 0.13432 0.0
C715 C 0.51502 0.11337 0.13846 0.0
C716 C 0.11045 0.70849 0.12987 0.0
C717 C 0.12173 0.68426 0.11671 0.0
C718 C 0.11324 0.7356 0.11752 0.0
C719 C 0.12708 0.73942 0.09137 0.0
H720 H 0.09994 0.7066 0.15013 0.0
H721 H 0.10469 0.75368 0.12873 0.0
S722 S 0.15752 0.68177 0.04695 0.0
N723 N 0.14541 0.66536 0.07532 0.0
N724 N 0.15045 0.71567 0.0519 0.0
C725 C 0.13755 0.71496 0.07761 0.0
C726 C 0.13493 0.68759 0.09033 0.0
C727 C 0.52542 0.86838 0.34991 0.0
C728 C 0.50126 0.86423 0.36634 0.0
C729 C 0.55203 0.86273 0.36116 0.0
C730 C 0.55527 0.8522 0.38897 0.0
H731 H 0.52382 0.87698 0.32864 0.0
H732 H 0.57017 0.86691 0.3481 0.0
S733 S 0.49805 0.83537 0.43954 0.0
N734 N 0.48205 0.84755 0.41104 0.0
N735 N 0.53161 0.83639 0.43197 0.0
C736 C 0.53106 0.8469 0.40508 0.0
C737 C 0.50417 0.85307 0.39382 0.0
C738 C 0.35495 0.26597 0.61292 0.0
C739 C 0.37817 0.24919 0.60655 0.0
C740 C 0.35806 0.29241 0.62597 0.0
C741 C 0.38461 0.30345 0.63274 0.0
H742 H 0.3342 0.25899 0.60688 0.0
H743 H 0.33941 0.30476 0.62969 0.0
S744 S 0.45207 0.26648 0.62199 0.0
N745 N 0.42843 0.24404 0.60951 0.0
N746 N 0.43462 0.29434 0.63366 0.0
C747 C 0.40803 0.28608 0.62787 0.0
C748 C 0.40472 0.2588 0.61481 0.0
C749 C 0.9864 0.13549 0.84834 0.0
C750 C 0.01028 0.14219 0.86436 0.0
C751 C 0.95956 0.13975 0.85953 0.0
C752 C 0.95574 0.15122 0.88693 0.0
H753 H 0.98845 0.12574 0.8276 0.0
H754 H 0.94172 0.13341 0.84685 0.0
S755 S 0.01189 0.17552 0.93578 0.0
N756 N 0.02855 0.16298 0.90784 0.0
N757 N 0.97841 0.17141 0.92867 0.0
C758 C 0.97957 0.1594 0.90243 0.0
C759 C 0.00676 0.15476 0.89119 0.0
C760 C 0.35705 0.10272 0.23998 0.0
C761 C 0.38534 0.11025 0.2372 0.0
C762 C 0.34494 0.0987 0.26681 0.0
C763 C 0.36045 0.10283 0.29188 0.0
H764 H 0.34418 0.09985 0.22127 0.0
H765 H 0.32307 0.09292 0.2679 0.0
S766 S 0.43541 0.12299 0.29589 0.0
N767 N 0.42867 0.12133 0.26155 0.0
N768 N 0.40582 0.11494 0.3119 0.0
C769 C 0.3888 0.11042 0.28928 0.0
C770 C 0.40128 0.11379 0.26195 0.0
C771 C 0.14843 0.13741 0.51295 0.0
C772 C 0.12579 0.15513 0.5065 0.0
C773 C 0.15093 0.12474 0.53987 0.0
C774 C 0.13069 0.12905 0.56119 0.0
H775 H 0.16481 0.13414 0.49748 0.0
H776 H 0.16911 0.11184 0.54409 0.0
S777 S 0.06588 0.17155 0.55353 0.0
N778 N 0.08176 0.17472 0.52265 0.0
N779 N 0.08624 0.15111 0.57291 0.0
C780 C 0.10734 0.14584 0.55439 0.0
C781 C 0.10496 0.1588 0.52717 0.0
C782 C 0.10596 0.87601 0.79733 0.0
C783 C 0.1321 0.88785 0.80429 0.0
C784 C 0.0968 0.87451 0.76911 0.0
C785 C 0.11379 0.88405 0.74677 0.0
H786 H 0.09248 0.86775 0.81386 0.0
H787 H 0.07668 0.86489 0.76468 0.0
S788 S 0.18346 0.91789 0.75362 0.0
N789 N 0.17427 0.91057 0.78664 0.0
N790 N 0.15745 0.90674 0.73337 0.0
C791 C 0.13977 0.89635 0.75339 0.0
C792 C 0.14881 0.89856 0.78223 0.0
C793 C 0.37978 0.84018 0.02745 0.0
C794 C 0.36666 0.84652 0.00146 0.0
C795 C 0.37308 0.85493 0.05235 0.0
C796 C 0.35306 0.87665 0.05226 0.0
H797 H 0.39572 0.824 0.02857 0.0
H798 H 0.38417 0.84965 0.07169 0.0
S799 S 0.31041 0.89954 0.99066 0.0
N800 N 0.33103 0.87471 0.97778 0.0
N801 N 0.31866 0.90245 0.02458 0.0
C802 C 0.33914 0.88268 0.02671 0.0
C803 C 0.34588 0.86763 0.00132 0.0
C804 C 0.39391 0.87591 0.24499 0.0
C805 C 0.38148 0.89617 0.26282 0.0
C806 C 0.38666 0.87399 0.21621 0.0
C807 C 0.36704 0.89255 0.20398 0.0
H808 H 0.40855 0.86069 0.25355 0.0
H809 H 0.39635 0.85756 0.20352 0.0
S810 S 0.33061 0.95126 0.24119 0.0
N811 N 0.35 0.93638 0.266 0.0
N812 N 0.33667 0.93313 0.21182 0.0
C813 C 0.35541 0.91378 0.22137 0.0
C814 C 0.36253 0.91546 0.25079 0.0
C815 C 0.37603 0.15827 0.48019 0.0
C816 C 0.37131 0.13847 0.50202 0.0
C817 C 0.3724 0.15078 0.4517 0.0
C818 C 0.36321 0.12346 0.44401 0.0
H819 H 0.38353 0.17949 0.48505 0.0
H820 H 0.37718 0.16642 0.43551 0.0
S821 S 0.34584 0.06448 0.49317 0.0
N822 N 0.35581 0.09076 0.51422 0.0
N823 N 0.34815 0.07688 0.46042 0.0
C824 C 0.35721 0.10378 0.46563 0.0
C825 C 0.36154 0.11123 0.49473 0.0
C826 C 0.12139 0.11819 0.74531 0.0
C827 C 0.13384 0.10194 0.76687 0.0
C828 C 0.13052 0.11617 0.71706 0.0
C829 C 0.15238 0.09782 0.70939 0.0
H830 H 0.10527 0.1334 0.75044 0.0
H831 H 0.12091 0.12974 0.7013 0.0
S832 S 0.18879 0.04743 0.75715 0.0
N833 N 0.16694 0.06453 0.77806 0.0
N834 N 0.18409 0.06086 0.72515 0.0
C835 C 0.16391 0.08033 0.73048 0.0
C836 C 0.15463 0.08235 0.75916 0.0
C837 C 0.13835 0.89527 0.00721 0.0
C838 C 0.13029 0.86659 0.00933 0.0
C839 C 0.14529 0.90728 0.9808 0.0
C840 C 0.14393 0.89115 0.9556 0.0
H841 H 0.13959 0.90843 0.02606 0.0
H842 H 0.15138 0.92947 0.98012 0.0
S843 S 0.12365 0.81508 0.94985 0.0
N844 N 0.12135 0.82235 0.98403 0.0
N845 N 0.1338 0.84495 0.93467 0.0
C846 C 0.13578 0.86248 0.95754 0.0
C847 C 0.12912 0.8502 0.98435 0.0
C848 C 0.29815 0.38442 0.11161 0.0
C849 C 0.30177 0.35649 0.10142 0.0
C850 C 0.27135 0.39552 0.11655 0.0
C851 C 0.24732 0.37889 0.11193 0.0
H852 H 0.31612 0.3977 0.11615 0.0
H853 H 0.2695 0.41686 0.12499 0.0
S854 S 0.24512 0.30539 0.08332 0.0
N855 N 0.27864 0.31321 0.08523 0.0
N856 N 0.22872 0.33386 0.09493 0.0
C857 C 0.25064 0.35131 0.10098 0.0
C858 C 0.27773 0.34017 0.09561 0.0
C859 C 0.76596 0.10534 0.89678 0.0
C860 C 0.74864 0.11447 0.87452 0.0
C861 C 0.79401 0.11398 0.8982 0.0
C862 C 0.80579 0.13123 0.8769 0.0
H863 H 0.75767 0.09185 0.91342 0.0
H864 H 0.80668 0.10676 0.91581 0.0
S865 S 0.7693 0.16036 0.81397 0.0
N866 N 0.74518 0.14178 0.83084 0.0
N867 N 0.79804 0.15712 0.83301 0.0
C868 C 0.78874 0.14018 0.8544 0.0
C869 C 0.7601 0.13203 0.85335 0.0
C870 C 0.13571 0.50021 0.13059 0.0
C871 C 0.1242 0.47883 0.1479 0.0
C872 C 0.12673 0.52854 0.13284 0.0
C873 C 0.10599 0.5364 0.15249 0.0
H874 H 0.15088 0.49485 0.11445 0.0
H875 H 0.13546 0.54417 0.11847 0.0
S876 S 0.07271 0.48914 0.20581 0.0
N877 N 0.09345 0.46805 0.18755 0.0
N878 N 0.0766 0.521 0.19169 0.0
C879 C 0.09554 0.51547 0.17097 0.0
C880 C 0.10465 0.48677 0.1687 0.0
C881 C 0.72099 0.88629 0.36917 0.0
C882 C 0.708 0.86887 0.38966 0.0
C883 C 0.74984 0.89164 0.36992 0.0
C884 C 0.76685 0.8793 0.39085 0.0
H885 H 0.70881 0.89579 0.35231 0.0
H886 H 0.75899 0.90485 0.35353 0.0
S887 S 0.74339 0.83345 0.45033 0.0
N888 N 0.71466 0.8404 0.43238 0.0
N889 N 0.76867 0.85016 0.43334 0.0
C890 C 0.75417 0.86235 0.41175 0.0
C891 C 0.72483 0.85723 0.41129 0.0
C892 C 0.91105 0.977 0.15028 0.0
C893 C 0.89467 0.95219 0.14831 0.0
C894 C 0.89975 0.00386 0.1445 0.0
C895 C 0.87148 0.00708 0.13711 0.0
H896 H 0.93296 0.97566 0.15569 0.0
H897 H 0.91336 0.02227 0.14577 0.0
S898 S 0.81928 0.9492 0.12983 0.0
N899 N 0.84841 0.93284 0.13858 0.0
N900 N 0.82719 0.98335 0.12874 0.0
C901 C 0.85466 0.98263 0.13581 0.0
C902 C 0.86626 0.9552 0.14111 0.0
C903 C 0.23269 0.66305 0.58591 0.0
C904 C 0.21124 0.64696 0.59855 0.0
C905 C 0.26074 0.65599 0.58943 0.0
C906 C 0.26894 0.63236 0.60567 0.0
H907 H 0.22793 0.68174 0.57344 0.0
H908 H 0.27617 0.66951 0.57937 0.0
S909 S 0.221 0.58192 0.64191 0.0
N910 N 0.20002 0.60535 0.62701 0.0
N911 N 0.25305 0.59188 0.63354 0.0
C912 C 0.24774 0.61532 0.61766 0.0
C913 C 0.21888 0.62268 0.61416 0.0
C914 C 0.10418 0.47366 0.34713 0.0
C915 C 0.11877 0.45539 0.36547 0.0
C916 C 0.10981 0.50292 0.3466 0.0
C917 C 0.13061 0.51505 0.36399 0.0
H918 H 0.08789 0.46541 0.33342 0.0
H919 H 0.09781 0.51613 0.33231 0.0
S920 S 0.17563 0.4764 0.415 0.0
N921 N 0.15546 0.45151 0.40102 0.0
N922 N 0.16623 0.50642 0.39971 0.0
C923 C 0.14577 0.49698 0.38201 0.0
C924 C 0.13978 0.46721 0.38285 0.0
C925 C 0.41192 0.5287 0.8467 0.0
C926 C 0.3959 0.54784 0.86272 0.0
C927 C 0.4061 0.49944 0.84697 0.0
C928 C 0.38375 0.48824 0.8629 0.0
H929 H 0.42941 0.53628 0.83423 0.0
H930 H 0.41918 0.48552 0.83446 0.0
S931 S 0.33457 0.52962 0.90742 0.0
N932 N 0.35613 0.55363 0.89425 0.0
N933 N 0.34514 0.49885 0.89463 0.0
C934 C 0.36723 0.50726 0.87857 0.0
C935 C 0.37333 0.53697 0.87853 0.0
C936 C 0.90511 0.72113 0.65493 0.0
C937 C 0.90476 0.69718 0.63704 0.0
C938 C 0.89823 0.74812 0.64472 0.0
C939 C 0.89115 0.75246 0.61607 0.0
H940 H 0.91007 0.71901 0.67727 0.0
H941 H 0.89839 0.76573 0.65956 0.0
S942 S 0.88877 0.69713 0.55992 0.0
N943 N 0.89767 0.67968 0.58894 0.0
N944 N 0.88529 0.73069 0.56957 0.0
C945 C 0.89157 0.7289 0.59765 0.0
C946 C 0.89819 0.7012 0.60819 0.0
C947 C 1.00075 0.18733 0.38164 0.0
C948 C 0.99504 0.15905 0.37417 0.0
C949 C 0.02728 0.19574 0.39068 0.0
C950 C 0.04929 0.17611 0.39321 0.0
H951 H 0.98423 0.20298 0.38141 0.0
H952 H 0.03012 0.21778 0.39674 0.0
S953 S 0.04534 0.09959 0.37399 0.0
N954 N 0.01358 0.11159 0.36781 0.0
N955 N 0.06375 0.12715 0.38533 0.0
C956 C 0.0442 0.1479 0.38431 0.0
C957 C 0.01699 0.13942 0.37471 0.0
C958 C 0.61246 0.24834 0.14926 0.0
C959 C 0.61826 0.24468 0.12022 0.0
C960 C 0.60599 0.27514 0.16037 0.0
C961 C 0.60567 0.29946 0.14301 0.0
H962 H 0.61281 0.23032 0.16356 0.0
H963 H 0.6018 0.27687 0.18291 0.0
S964 S 0.61913 0.30131 0.06544 0.0
N965 N 0.62271 0.26753 0.07414 0.0
N966 N 0.61131 0.31806 0.09519 0.0
C967 C 0.61134 0.29611 0.1139 0.0
C968 C 0.6174 0.26868 0.10246 0.0
C969 C 0.4699 0.82688 0.87137 0.0
C970 C 0.45425 0.8401 0.89283 0.0
C971 C 0.49683 0.83656 0.86454 0.0
C972 C 0.50917 0.85913 0.87966 0.0
H973 H 0.4618 0.80811 0.86078 0.0
H974 H 0.50878 0.82501 0.84884 0.0
S975 S 0.47611 0.90177 0.93651 0.0
N976 N 0.45212 0.87801 0.9277 0.0
N977 N 0.50313 0.89553 0.91572 0.0
C978 C 0.49321 0.87328 0.90024 0.0
C979 C 0.46559 0.86391 0.90663 0.0
C980 C 0.90453 0.25515 0.853 0.0
C981 C 0.88783 0.24132 0.87333 0.0
C982 C 0.90451 0.28477 0.85032 0.0
C983 C 0.88747 0.3019 0.86756 0.0
H984 H 0.91796 0.24303 0.83908 0.0
H985 H 0.91777 0.29425 0.83427 0.0
S986 S 0.83986 0.27631 0.92424 0.0
N987 N 0.85389 0.24708 0.91126 0.0
N988 N 0.85361 0.30283 0.90596 0.0
C989 C 0.87061 0.28841 0.888 0.0
C990 C 0.8709 0.25815 0.89099 0.0
C991 C 0.45811 0.13875 0.63731 0.0
C992 C 0.45507 0.14654 0.60859 0.0
C993 C 0.48448 0.13248 0.6488 0.0
C994 C 0.50859 0.13324 0.6318 0.0
H995 H 0.44003 0.13749 0.65101 0.0
H996 H 0.4859 0.12628 0.6709 0.0
S997 S 0.51225 0.15341 0.55575 0.0
N998 N 0.47885 0.15556 0.56377 0.0
N999 N 0.52796 0.1434 0.58525 0.0
C1000 C 0.50588 0.14134 0.60324 0.0
C1001 C 0.47924 0.14809 0.59166 0.0
C1002 C 0.60512 0.74575 0.38291 0.0
C1003 C 0.62701 0.76234 0.37197 0.0
C1004 C 0.60484 0.71615 0.37935 0.0
C1005 C 0.62688 0.70221 0.36552 0.0
H1006 H 0.58792 0.75578 0.39387 0.0
H1007 H 0.58741 0.70406 0.38772 0.0
S1008 S 0.6891 0.73638 0.33338 0.0
N1009 N 0.671 0.7631 0.34657 0.0
N1010 N 0.67112 0.70728 0.34083 0.0
C1011 C 0.64908 0.71862 0.35487 0.0
C1012 C 0.64896 0.7488 0.35784 0.0
C1013 C 0.02498 0.8457 0.09642 0.0
C1014 C 0.04855 0.84357 0.11415 0.0
C1015 C 0.99879 0.85322 0.10724 0.0
C1016 C 0.9949 0.85852 0.13636 0.0
H1017 H 0.02679 0.84206 0.07378 0.0
H1018 H 0.98145 0.85482 0.09259 0.0
S1019 S 0.04962 0.85504 0.19213 0.0
N1020 N 0.06616 0.84702 0.16246 0.0
N1021 N 0.01686 0.86065 0.18294 0.0
C1022 C 0.01816 0.85598 0.15449 0.0
C1023 C 0.04498 0.84867 0.14336 0.0
C1024 C 0.65681 0.89747 0.73271 0.0
C1025 C 0.64176 0.8909 0.70788 0.0
C1026 C 0.64458 0.89504 0.75955 0.0
C1027 C 0.61665 0.88645 0.76266 0.0
H1028 H 0.67845 0.90406 0.73152 0.0
H1029 H 0.65723 0.89976 0.77806 0.0
S1030 S 0.56771 0.86761 0.70454 0.0
N1031 N 0.59714 0.87568 0.6882 0.0
N1032 N 0.57396 0.87194 0.73876 0.0
C1033 C 0.60104 0.88055 0.73808 0.0
C1034 C 0.61366 0.8825 0.71066 0.0
C1035 C 0.84033 0.90267 0.51071 0.0
C1036 C 0.85629 0.87875 0.51803 0.0
C1037 C 0.83752 0.91139 0.48253 0.0
C1038 C 0.85063 0.89672 0.46024 0.0
H1039 H 0.83016 0.91518 0.52698 0.0
H1040 H 0.8254 0.93031 0.47835 0.0
S1041 S 0.89307 0.83138 0.46746 0.0
N1042 N 0.8841 0.83938 0.50036 0.0
N1043 N 0.87883 0.85595 0.44711 0.0
C1044 C 0.86573 0.87204 0.46695 0.0
C1045 C 0.86853 0.86301 0.49587 0.0
C1046 C 0.90431 0.12479 0.20262 0.0
C1047 C 0.87745 0.1145 0.19613 0.0
C1048 C 0.91387 0.12609 0.23076 0.0
C1049 C 0.89656 0.11793 0.25342 0.0
H1050 H 0.91803 0.13199 0.1858 0.0
H1051 H 0.9345 0.13465 0.23485 0.0
S1052 S 0.82476 0.0888 0.24773 0.0
N1053 N 0.83415 0.09486 0.21454 0.0
N1054 N 0.85163 0.09849 0.26754 0.0
C1055 C 0.86982 0.10722 0.24721 0.0
C1056 C 0.86039 0.10517 0.21851 0.0
C1057 C 0.62398 0.13582 0.96508 0.0
C1058 C 0.64516 0.12041 0.95128 0.0
C1059 C 0.62436 0.13996 0.99463 0.0
C1060 C 0.64559 0.12834 0.01158 0.0
H1061 H 0.60677 0.14451 0.95303 0.0
H1062 H 0.6074 0.15155 0.00438 0.0
S1063 S 0.70698 0.08809 0.98625 0.0
N1064 N 0.68901 0.09497 0.95717 0.0
N1065 N 0.68914 0.10234 0.01256 0.0
C1066 C 0.66723 0.11356 0.99814 0.0
C1067 C 0.66718 0.10973 0.96805 0.0
C1068 C 0.6264 0.11796 0.78647 0.0
C1069 C 0.6407 0.0941 0.79691 0.0
C1070 C 0.61772 0.11916 0.75792 0.0
C1071 C 0.62314 0.09652 0.73921 0.0
H1072 H 0.62343 0.13642 0.79988 0.0
H1073 H 0.60829 0.13851 0.75008 0.0
S1074 S 0.65431 0.02706 0.75791 0.0
N1075 N 0.65586 0.04576 0.78756 0.0
N1076 N 0.63965 0.04805 0.73419 0.0
C1077 C 0.63524 0.07172 0.75013 0.0
C1078 C 0.64401 0.0705 0.77896 0.0
C1079 C 0.61574 0.88093 0.50802 0.0
C1080 C 0.6368 0.8646 0.49538 0.0
C1081 C 0.6168 0.88785 0.53693 0.0
C1082 C 0.63943 0.87948 0.55392 0.0
H1083 H 0.59784 0.88761 0.49569 0.0
H1084 H 0.5998 0.89985 0.54607 0.0
S1085 S 0.70079 0.83804 0.53041 0.0
N1086 N 0.68125 0.84087 0.50162 0.0
N1087 N 0.68393 0.85502 0.55583 0.0
C1088 C 0.66115 0.86404 0.54128 0.0
C1089 C 0.65964 0.85625 0.51201 0.0
C1090 C 0.88718 0.87072 0.29198 0.0
C1091 C 0.8734 0.89353 0.3053 0.0
C1092 C 0.8921 0.87069 0.26257 0.0
C1093 C 0.88299 0.89322 0.24538 0.0
H1094 H 0.89383 0.85251 0.30425 0.0
H1095 H 0.90206 0.85239 0.25307 0.0
S1096 S 0.84828 0.95914 0.26942 0.0
N1097 N 0.85261 0.94037 0.29867 0.0
N1098 N 0.86145 0.93969 0.24359 0.0
C1099 C 0.87013 0.91653 0.25837 0.0
C1100 C 0.86546 0.91686 0.28827 0.0
C1101 C 0.86235 0.10178 0.99336 0.0
C1102 C 0.86775 0.13086 0.98911 0.0
C1103 C 0.85734 0.09091 0.02062 0.0
C1104 C 0.85819 0.10859 0.04473 0.0
H1105 H 0.86185 0.08728 0.97547 0.0
H1106 H 0.85332 0.06834 0.02282 0.0
S1107 S 0.87148 0.18638 0.045 0.0
N1108 N 0.87326 0.17728 0.01119 0.0
N1109 N 0.8647 0.15674 0.06245 0.0
C1110 C 0.86358 0.13773 0.04075 0.0
C1111 C 0.86811 0.1489 0.01293 0.0
C1112 C 0.73609 0.59998 0.8907 0.0
C1113 C 0.75952 0.61779 0.8869 0.0
C1114 C 0.70984 0.61127 0.89809 0.0
C1115 C 0.70632 0.64066 0.90249 0.0
H1116 H 0.73794 0.57727 0.88752 0.0
H1117 H 0.69231 0.5969 0.90061 0.0
S1118 S 0.76125 0.6963 0.89567 0.0
N1119 N 0.77734 0.66628 0.88846 0.0
N1120 N 0.72867 0.68724 0.90236 0.0
C1121 C 0.72972 0.65854 0.899 0.0
C1122 C 0.75613 0.64718 0.89122 0.0
C1123 C 0.24859 0.88372 0.08902 0.0
C1124 C 0.26039 0.86967 0.11245 0.0
C1125 C 0.22219 0.87589 0.07864 0.0
C1126 C 0.20637 0.85442 0.09188 0.0
H1127 H 0.26066 0.89938 0.07741 0.0
H1128 H 0.21457 0.88586 0.05942 0.0
S1129 S 0.22683 0.81315 0.15545 0.0
N1130 N 0.2537 0.83444 0.14951 0.0
N1131 N 0.20353 0.82065 0.13072 0.0
C1132 C 0.21711 0.84163 0.11646 0.0
C1133 C 0.2443 0.84902 0.12655 0.0
C1134 C 0.86467 0.49386 0.8614 0.0
C1135 C 0.88463 0.51551 0.86594 0.0
C1136 C 0.87259 0.46508 0.86011 0.0
C1137 C 0.9007 0.45724 0.86317 0.0
H1138 H 0.84303 0.49923 0.85771 0.0
H1139 H 0.85692 0.44912 0.85536 0.0
S1140 S 0.96015 0.50489 0.88023 0.0
N1141 N 0.93318 0.5263 0.87724 0.0
N1142 N 0.94782 0.47267 0.87413 0.0
C1143 C 0.92044 0.47841 0.86936 0.0
C1144 C 0.91248 0.50744 0.87094 0.0
C1145 C 0.24727 0.1495 0.60457 0.0
C1146 C 0.24455 0.12014 0.60949 0.0
C1147 C 0.27212 0.16117 0.59421 0.0
C1148 C 0.2955 0.14407 0.58903 0.0
H1149 H 0.22982 0.1636 0.60808 0.0
H1150 H 0.27302 0.18381 0.59009 0.0
S1151 S 0.29984 0.06619 0.59933 0.0
N1152 N 0.26763 0.0742 0.60878 0.0
N1153 N 0.3148 0.09648 0.59 0.0
C1154 C 0.29347 0.11482 0.59453 0.0
C1155 C 0.26785 0.10275 0.60452 0.0
C1156 C 0.14943 0.01915 0.87166 0.0
C1157 C 0.1344 0.99414 0.8656 0.0
C1158 C 0.13733 0.04599 0.86755 0.0
C1159 C 0.11 0.04862 0.85689 0.0
H1160 H 0.17023 0.01795 0.88054 0.0
H1161 H 0.14936 0.06475 0.87303 0.0
S1162 S 0.06323 0.98926 0.83505 0.0
N1163 N 0.09171 0.97356 0.84667 0.0
N1164 N 0.06909 0.02365 0.83865 0.0
C1165 C 0.0953 0.02365 0.8497 0.0
C1166 C 0.10748 0.99649 0.85414 0.0
C1167 C 0.79122 0.38337 0.408 0.0
C1168 C 0.8012 0.35574 0.403 0.0
C1169 C 0.76299 0.39015 0.40299 0.0
C1170 C 0.74405 0.36952 0.39271 0.0
H1171 H 0.80496 0.39942 0.4169 0.0
H1172 H 0.75575 0.41127 0.40826 0.0
S1173 S 0.76146 0.29561 0.37149 0.0
N1174 N 0.79092 0.30882 0.38403 0.0
N1175 N 0.7385 0.32144 0.37431 0.0
C1176 C 0.75446 0.34242 0.38596 0.0
C1177 C 0.78286 0.33556 0.3912 0.0
C1178 C 0.89754 0.49691 0.65866 0.0
C1179 C 0.87816 0.48407 0.64016 0.0
C1180 C 0.9043 0.52577 0.65648 0.0
C1181 C 0.89229 0.54306 0.63543 0.0
H1182 H 0.90763 0.48457 0.67511 0.0
H1183 H 0.91942 0.53446 0.67128 0.0
S1184 S 0.83992 0.51998 0.58191 0.0
N1185 N 0.84659 0.49095 0.60033 0.0
N1186 N 0.85953 0.5453 0.59598 0.0
C1187 C 0.87271 0.53059 0.61683 0.0
C1188 C 0.86553 0.50113 0.61931 0.0
C1189 C 0.60916 0.50028 0.16134 0.0
C1190 C 0.62879 0.51265 0.14284 0.0
C1191 C 0.60332 0.47111 0.16052 0.0
C1192 C 0.61654 0.45311 0.14087 0.0
H1193 H 0.59825 0.5132 0.17676 0.0
H1194 H 0.58795 0.46272 0.17517 0.0
S1195 S 0.66991 0.47477 0.08795 0.0
N1196 N 0.66179 0.50454 0.1045 0.0
N1197 N 0.6506 0.44972 0.10275 0.0
C1198 C 0.63632 0.46514 0.12229 0.0
C1199 C 0.64253 0.49486 0.12336 0.0
C1200 C 0.61679 0.75039 0.86043 0.0
C1201 C 0.62511 0.7477 0.88891 0.0
C1202 C 0.60824 0.77664 0.84953 0.0
C1203 C 0.6081 0.80124 0.86658 0.0
H1204 H 0.61663 0.73206 0.8465 0.0
H1205 H 0.6021 0.77769 0.82741 0.0
S1206 S 0.628 0.80546 0.94264 0.0
N1207 N 0.6325 0.77176 0.93408 0.0
N1208 N 0.61684 0.82113 0.91345 0.0
C1209 C 0.61637 0.79882 0.8951 0.0
C1210 C 0.62476 0.77203 0.9063 0.0
C1211 C 0.50011 0.3468 0.10612 0.0
C1212 C 0.51193 0.36452 0.12703 0.0
C1213 C 0.47135 0.3466 0.10094 0.0
C1214 C 0.45322 0.36453 0.11605 0.0
H1215 H 0.51321 0.33291 0.09359 0.0
H1216 H 0.46338 0.33264 0.08449 0.0
S1217 S 0.47354 0.4147 0.17341 0.0
N1218 N 0.5032 0.40008 0.16343 0.0
N1219 N 0.44912 0.40011 0.1533 0.0
C1220 C 0.4647 0.38226 0.13718 0.0
C1221 C 0.49402 0.3821 0.14281 0.0
C1222 C 0.89505 0.2094 0.38421 0.0
C1223 C 0.90303 0.20762 0.35555 0.0
C1224 C 0.88895 0.23557 0.39678 0.0
C1225 C 0.89006 0.26091 0.38103 0.0
H1226 H 0.89338 0.19043 0.39711 0.0
H1227 H 0.88267 0.23583 0.41887 0.0
S1228 S 0.91098 0.26811 0.3056 0.0
N1229 N 0.91287 0.23367 0.31202 0.0
N1230 N 0.9007 0.28289 0.33561 0.0
C1231 C 0.89836 0.25958 0.35247 0.0
C1232 C 0.90506 0.23292 0.33974 0.0
C1233 C 0.01669 0.61441 0.63741 0.0
C1234 C 0.99878 0.63476 0.62548 0.0
C1235 C 0.0456 0.61516 0.63212 0.0
C1236 C 0.05772 0.63664 0.61517 0.0
H1237 H 0.00819 0.5972 0.65004 0.0
H1238 H 0.05849 0.59867 0.64123 0.0
S1239 S 0.01963 0.69633 0.58106 0.0
N1240 N 0.99515 0.67774 0.59731 0.0
N1241 N 0.04911 0.67967 0.58773 0.0
C1242 C 0.03993 0.65774 0.60408 0.0
C1243 C 0.01059 0.65666 0.60912 0.0
C1244 C 0.64861 0.22068 0.5996 0.0
C1245 C 0.62786 0.24155 0.6017 0.0
C1246 C 0.64527 0.19397 0.61204 0.0
C1247 C 0.62083 0.18664 0.62696 0.0
H1248 H 0.66768 0.22493 0.58799 0.0
H1249 H 0.66194 0.17876 0.60932 0.0
S1250 S 0.56025 0.23416 0.63915 0.0
N1251 N 0.58226 0.25367 0.62042 0.0
N1252 N 0.57559 0.20314 0.64371 0.0
C1253 C 0.60001 0.20759 0.62976 0.0
C1254 C 0.60364 0.2351 0.61722 0.0
C1255 C 0.02776 0.34914 0.90477 0.0
C1256 C 0.05129 0.35344 0.88748 0.0
C1257 C 1.00081 0.35404 0.89454 0.0
C1258 C 0.99619 0.36289 0.86642 0.0
H1259 H 0.03014 0.34269 0.92672 0.0
H1260 H 0.98344 0.35114 0.90896 0.0
S1261 S 0.05046 0.37551 0.81181 0.0
N1262 N 0.06811 0.36613 0.84041 0.0
N1263 N 0.01723 0.37465 0.82099 0.0
C1264 C 0.01937 0.36625 0.84849 0.0
C1265 C 0.04698 0.36176 0.8591 0.0
C1266 C 0.9025 0.75828 0.11722 0.0
C1267 C 0.87587 0.74704 0.11159 0.0
C1268 C 0.90561 0.7848 0.13067 0.0
C1269 C 0.88214 0.80068 0.13902 0.0
H1270 H 0.92092 0.74735 0.10973 0.0
H1271 H 0.92642 0.79351 0.13314 0.0
S1272 S 0.80815 0.77717 0.1337 0.0
N1273 N 0.82602 0.75153 0.11834 0.0
N1274 N 0.83153 0.80078 0.1443 0.0
C1275 C 0.85552 0.78826 0.13551 0.0
C1276 C 0.85246 0.76158 0.12156 0.0
C1277 C 0.48453 0.65412 0.40633 0.0
C1278 C 0.46127 0.65171 0.38825 0.0
C1279 C 0.51151 0.64844 0.39657 0.0
C1280 C 0.51647 0.64066 0.36818 0.0
H1281 H 0.48187 0.65969 0.42848 0.0
H1282 H 0.52864 0.65001 0.41152 0.0
S1283 S 0.46299 0.63286 0.31169 0.0
N1284 N 0.44508 0.6418 0.34025 0.0
N1285 N 0.49598 0.6318 0.32175 0.0
C1286 C 0.49356 0.63907 0.34956 0.0
C1287 C 0.46592 0.64438 0.35965 0.0
C1288 C 0.88832 0.60896 0.79131 0.0
C1289 C 0.8602 0.60039 0.79355 0.0
C1290 C 0.90109 0.61275 0.76473 0.0
C1291 C 0.88602 0.6087 0.73943 0.0
H1292 H 0.90057 0.61301 0.81022 0.0
H1293 H 0.92261 0.61979 0.76403 0.0
S1294 S 0.8124 0.58469 0.73347 0.0
N1295 N 0.81818 0.58657 0.76799 0.0
N1296 N 0.84193 0.59428 0.71818 0.0
C1297 C 0.8581 0.59955 0.74134 0.0
C1298 C 0.84526 0.59522 0.76835 0.0
C1299 C 0.61404 0.6454 0.0575 0.0
C1300 C 0.63708 0.62799 0.06351 0.0
C1301 C 0.61089 0.65836 0.03105 0.0
C1302 C 0.63043 0.65434 0.00921 0.0
H1303 H 0.59843 0.64967 0.07353 0.0
H1304 H 0.59296 0.67191 0.02781 0.0
S1305 S 0.69394 0.60989 0.01309 0.0
N1306 N 0.67953 0.60669 0.04478 0.0
N1307 N 0.67326 0.63106 0.99479 0.0
C1308 C 0.65316 0.63634 0.01439 0.0
C1309 C 0.6566 0.62324 0.0416 0.0
C1310 C 0.59797 0.37714 0.27121 0.0
C1311 C 0.61536 0.38518 0.24858 0.0
C1312 C 0.6075 0.3783 0.29934 0.0
C1313 C 0.63444 0.38831 0.3059 0.0
H1314 H 0.57724 0.36885 0.26709 0.0
H1315 H 0.59371 0.37109 0.3161 0.0
S1316 S 0.68728 0.41395 0.25445 0.0
N1317 N 0.66037 0.40453 0.23455 0.0
N1318 N 0.67788 0.40773 0.28762 0.0
C1319 C 0.65159 0.3976 0.28358 0.0
C1320 C 0.64216 0.39572 0.25484 0.0
C1321 C 0.89458 0.34998 0.55857 0.0
C1322 C 0.8716 0.36747 0.56455 0.0
C1323 C 0.89865 0.3384 0.53156 0.0
C1324 C 0.88009 0.34392 0.50908 0.0
H1325 H 0.9096 0.34487 0.57496 0.0
H1326 H 0.91672 0.32507 0.52832 0.0
S1327 S 0.81655 0.38846 0.51311 0.0
N1328 N 0.82987 0.38986 0.54544 0.0
N1329 N 0.83773 0.36811 0.49451 0.0
C1330 C 0.85708 0.36155 0.51453 0.0
C1331 C 0.85276 0.37325 0.54226 0.0
C1332 C 0.88343 0.38402 0.74997 0.0
C1333 C 0.87042 0.40027 0.77121 0.0
C1334 C 0.87446 0.38532 0.72157 0.0
C1335 C 0.85222 0.40297 0.71339 0.0
H1336 H 0.89997 0.36941 0.75544 0.0
H1337 H 0.88455 0.37179 0.7061 0.0
S1338 S 0.81391 0.45286 0.76019 0.0
N1339 N 0.8361 0.43678 0.78153 0.0
N1340 N 0.81928 0.43913 0.72842 0.0
C1341 C 0.84001 0.42039 0.73418 0.0
C1342 C 0.8491 0.41907 0.76301 0.0
C1343 C 0.86244 0.60576 0.96641 0.0
C1344 C 0.86697 0.6256 0.94455 0.0
C1345 C 0.86695 0.61317 0.99498 0.0
C1346 C 0.8754 0.64085 0.00253 0.0
H1347 H 0.85638 0.58413 0.96132 0.0
H1348 H 0.86387 0.59717 0.01121 0.0
S1349 S 0.88838 0.70088 0.95307 0.0
N1350 N 0.87951 0.67406 0.93225 0.0
N1351 N 0.88709 0.68836 0.98579 0.0
C1352 C 0.879 0.66107 0.98083 0.0
C1353 C 0.87504 0.65334 0.95185 0.0
C1354 C 0.66366 0.58743 0.26283 0.0
C1355 C 0.6401 0.60336 0.27081 0.0
C1356 C 0.67164 0.5848 0.23438 0.0
C1357 C 0.65649 0.59801 0.21259 0.0
H1358 H 0.67638 0.57707 0.27873 0.0
H1359 H 0.69017 0.57264 0.22957 0.0
S1360 S 0.59235 0.64106 0.22165 0.0
N1361 N 0.60102 0.63169 0.25425 0.0
N1362 N 0.61608 0.6268 0.20071 0.0
C1363 C 0.63242 0.61338 0.22005 0.0
C1364 C 0.6242 0.616 0.24913 0.0
C1365 C 0.64239 0.39255 0.50791 0.0
C1366 C 0.63543 0.36358 0.51018 0.0
C1367 C 0.65029 0.40438 0.48176 0.0
C1368 C 0.65099 0.38777 0.4569 0.0
H1369 H 0.64177 0.4062 0.52644 0.0
H1370 H 0.6552 0.42687 0.48092 0.0
S1371 S 0.63537 0.31059 0.45173 0.0
N1372 N 0.63055 0.31836 0.48554 0.0
N1373 N 0.64482 0.34068 0.43647 0.0
C1374 C 0.64438 0.35871 0.45901 0.0
C1375 C 0.63676 0.34659 0.48564 0.0
C1376 C 0.74987 0.85006 0.61179 0.0
C1377 C 0.74607 0.87856 0.61985 0.0
C1378 C 0.7765 0.83909 0.60685 0.0
C1379 C 0.80056 0.85598 0.61028 0.0
H1380 H 0.73206 0.83602 0.60924 0.0
H1381 H 0.77819 0.81696 0.60076 0.0
S1382 S 0.80198 0.93219 0.63079 0.0
N1383 N 0.76851 0.92376 0.63045 0.0
N1384 N 0.81877 0.90294 0.6219 0.0
C1385 C 0.7971 0.88462 0.61818 0.0
C1386 C 0.76981 0.89597 0.62272 0.0
C1387 C 0.2659 0.63358 0.35595 0.0
C1388 C 0.25388 0.61685 0.37746 0.0
C1389 C 0.294 0.64174 0.35715 0.0
C1390 C 0.31084 0.6342 0.38036 0.0
H1391 H 0.25362 0.63995 0.33771 0.0
H1392 H 0.30251 0.65434 0.33994 0.0
S1393 S 0.28902 0.59142 0.44272 0.0
N1394 N 0.26075 0.59313 0.42271 0.0
N1395 N 0.3134 0.6095 0.42564 0.0
C1396 C 0.29893 0.61795 0.40233 0.0
C1397 C 0.27048 0.60895 0.40069 0.0
C1398 C 0.62337 0.02824 0.63368 0.0
C1399 C 0.60397 0.03662 0.65447 0.0
C1400 C 0.63306 1.0001 0.63234 0.0
C1401 C 0.62369 0.97956 0.65183 0.0
H1402 H 0.63026 0.0432 0.61765 0.0
H1403 H 0.64684 0.99411 0.61516 0.0
S1404 S 0.5774 0.99215 0.71365 0.0
N1405 N 0.57884 0.02311 0.69722 0.0
N1406 N 0.59708 0.97049 0.69483 0.0
C1407 C 0.60588 0.98826 0.67388 0.0
C1408 C 0.59598 0.01673 0.67517 0.0
C1409 C 0.2213 0.35735 0.89235 0.0
C1410 C 0.2002 0.37626 0.8841 0.0
C1411 C 0.24948 0.36532 0.89095 0.0
C1412 C 0.25739 0.39275 0.88219 0.0
H1413 H 0.21603 0.33595 0.899 0.0
H1414 H 0.26519 0.34985 0.89661 0.0
S1415 S 0.20991 0.45062 0.86003 0.0
N1416 N 0.18893 0.42373 0.86759 0.0
N1417 N 0.24186 0.43913 0.86607 0.0
C1418 C 0.23642 0.41218 0.87492 0.0
C1419 C 0.2078 0.40381 0.87556 0.0
C1420 C 0.41177 0.48007 0.64784 0.0
C1421 C 0.39589 0.45527 0.6433 0.0
C1422 C 0.40045 0.50708 0.64312 0.0
C1423 C 0.37262 0.51037 0.63428 0.0
H1424 H 0.43331 0.47867 0.65461 0.0
H1425 H 0.41364 0.52555 0.64642 0.0
S1426 S 0.32191 0.45255 0.6196 0.0
N1427 N 0.35069 0.43599 0.62915 0.0
N1428 N 0.32931 0.4868 0.62139 0.0
C1429 C 0.35628 0.48591 0.63024 0.0
C1430 C 0.36795 0.45834 0.63442 0.0
C1431 C 0.75957 0.1531 0.08959 0.0
C1432 C 0.76779 0.12934 0.10567 0.0
C1433 C 0.73161 0.16096 0.08718 0.0
C1434 C 0.71027 0.14554 0.10075 0.0
H1435 H 0.77496 0.16617 0.07887 0.0
H1436 H 0.72685 0.17973 0.07482 0.0
S1437 S 0.71996 0.08042 0.14404 0.0
N1438 N 0.75191 0.08945 0.13436 0.0
N1439 N 0.69906 0.10434 0.12982 0.0
C1440 C 0.71786 0.12107 0.11612 0.0
C1441 C 0.74662 0.11294 0.11855 0.0
C1442 C 0.60322 0.00188 0.85064 0.0
C1443 C 0.62414 0.01373 0.86806 0.0
C1444 C 0.59749 0.97264 0.8509 0.0
C1445 C 0.61213 0.95415 0.86894 0.0
H1446 H 0.59121 0.01527 0.83653 0.0
H1447 H 0.5811 0.96459 0.83718 0.0
S1448 S 0.66946 0.97437 0.91822 0.0
N1449 N 0.66003 0.0046 0.90336 0.0
N1450 N 0.64908 0.94972 0.90414 0.0
C1451 C 0.6333 0.96568 0.88631 0.0
C1452 C 0.63938 0.99542 0.88575 0.0
C1453 C 0.90157 0.03957 0.38985 0.0
C1454 C 0.89382 0.05609 0.36633 0.0
C1455 C 0.8915 0.01179 0.39313 0.0
C1456 C 0.87256 0.99997 0.37354 0.0
H1457 H 0.91541 0.04826 0.40589 0.0
H1458 H 0.89796 0.99977 0.4116 0.0
S1459 S 0.84599 0.03444 0.30824 0.0
N1460 N 0.86682 0.05852 0.32271 0.0
N1461 N 0.84687 0.00659 0.32957 0.0
C1462 C 0.86471 0.01621 0.34988 0.0
C1463 C 0.87565 0.04422 0.34607 0.0
C1464 C 0.39259 0.23171 0.09926 0.0
C1465 C 0.39321 0.25559 0.11726 0.0
C1466 C 0.3985 0.20443 0.10968 0.0
C1467 C 0.4058 0.20014 0.13832 0.0
H1468 H 0.38677 0.23399 0.07715 0.0
H1469 H 0.39714 0.18656 0.09521 0.0
S1470 S 0.4124 0.25613 0.19363 0.0
N1471 N 0.40288 0.27342 0.16475 0.0
N1472 N 0.4145 0.22242 0.18419 0.0
C1473 C 0.40742 0.22404 0.15627 0.0
C1474 C 0.40096 0.25168 0.14578 0.0
C1475 C 0.52282 0.68824 0.90646 0.0
C1476 C 0.54723 0.67285 0.90014 0.0
C1477 C 0.49663 0.67918 0.89727 0.0
C1478 C 0.49329 0.65442 0.88098 0.0
H1479 H 0.52362 0.70732 0.91932 0.0
H1480 H 0.47863 0.69161 0.90341 0.0
S1481 S 0.54997 0.6071 0.85651 0.0
N1482 N 0.56624 0.63198 0.8751 0.0
N1483 N 0.51646 0.61513 0.85746 0.0
C1484 C 0.51732 0.63925 0.8733 0.0
C1485 C 0.54436 0.64836 0.88302 0.0
C1486 C 0.11418 0.749 0.64553 0.0
C1487 C 0.11916 0.74551 0.61632 0.0
C1488 C 0.10756 0.7756 0.6569 0.0
C1489 C 0.10625 0.79991 0.63963 0.0
H1490 H 0.11529 0.73099 0.6598 0.0
H1491 H 0.10403 0.77717 0.67957 0.0
S1492 S 0.11695 0.80219 0.56166 0.0
N1493 N 0.12156 0.76848 0.57013 0.0
N1494 N 0.10987 0.81875 0.59172 0.0
C1495 C 0.11103 0.79678 0.61034 0.0
C1496 C 0.11725 0.76949 0.59863 0.0
C1497 C 1.00143 0.37442 0.40237 0.0
C1498 C 0.0154 0.36196 0.37922 0.0
C1499 C 0.97425 0.36603 0.40972 0.0
C1500 C 0.96042 0.34453 0.39447 0.0
H1501 H 0.01209 0.3898 0.4157 0.0
H1502 H 0.96487 0.37486 0.42868 0.0
S1503 S 0.98698 0.30641 0.33125 0.0
N1504 N 0.01249 0.32851 0.33996 0.0
N1505 N 0.96179 0.31204 0.35446 0.0
C1506 C 0.97353 0.33296 0.37048 0.0
C1507 C 1.00094 0.34192 0.36261 0.0
C1508 C 0.41128 0.7869 0.34837 0.0
C1509 C 0.39358 0.80458 0.3643 0.0
C1510 C 0.41131 0.75741 0.35217 0.0
C1511 C 0.394 0.74429 0.37242 0.0
H1512 H 0.42502 0.79583 0.33242 0.0
H1513 H 0.42519 0.7448 0.33917 0.0
S1514 S 0.34424 0.78092 0.42025 0.0
N1515 N 0.35845 0.80681 0.40144 0.0
N1516 N 0.35883 0.75128 0.40894 0.0
C1517 C 0.37647 0.76168 0.38887 0.0
C1518 C 0.37612 0.79181 0.38468 0.0
C1519 C 0.98822 0.6337 0.14929 0.0
C1520 C 0.01209 0.63446 0.13198 0.0
C1521 C 0.96172 0.63994 0.13811 0.0
C1522 C 0.95833 0.64774 0.10942 0.0
H1523 H 0.98992 0.62742 0.17135 0.0
H1524 H 0.94378 0.6386 0.15202 0.0
S1525 S 0.01479 0.6546 0.05586 0.0
N1526 N 0.03088 0.64462 0.08516 0.0
N1527 N 0.9815 0.65679 0.06432 0.0
C1528 C 0.98227 0.64937 0.09221 0.0
C1529 C 0.00903 0.64261 0.10345 0.0
C1530 C 0.13497 0.24666 0.88307 0.0
C1531 C 0.11776 0.26425 0.8665 0.0
C1532 C 0.13494 0.21708 0.87942 0.0
C1533 C 0.1173 0.20388 0.85943 0.0
H1534 H 0.1488 0.25582 0.89886 0.0
H1535 H 0.14856 0.20446 0.89268 0.0
S1536 S 0.06786 0.24044 0.81099 0.0
N1537 N 0.08253 0.26637 0.82942 0.0
N1538 N 0.08214 0.21084 0.82273 0.0
C1539 C 0.09986 0.22126 0.84279 0.0
C1540 C 0.10021 0.2514 0.84625 0.0
C1541 C 0.54537 0.35556 0.6403 0.0
C1542 C 0.54847 0.34362 0.61302 0.0
C1543 C 0.51893 0.36291 0.6509 0.0
C1544 C 0.49474 0.35903 0.63439 0.0
H1545 H 0.56351 0.35969 0.65342 0.0
H1546 H 0.51752 0.37254 0.67175 0.0
S1547 S 0.49086 0.32604 0.56294 0.0
N1548 N 0.52441 0.32626 0.57075 0.0
N1549 N 0.47519 0.34059 0.59048 0.0
C1550 C 0.49741 0.34631 0.60756 0.0
C1551 C 0.52414 0.33846 0.59693 0.0
C1552 C 0.14934 0.39481 0.25598 0.0
C1553 C 0.12132 0.38668 0.25956 0.0
C1554 C 0.16115 0.3972 0.22892 0.0
C1555 C 0.14558 0.39101 0.20433 0.0
H1556 H 0.16237 0.39925 0.27428 0.0
H1557 H 0.18286 0.40347 0.22737 0.0
S1558 S 0.07114 0.36888 0.20224 0.0
N1559 N 0.07804 0.37295 0.23637 0.0
N1560 N 0.10041 0.37655 0.18542 0.0
C1561 C 0.11742 0.383 0.2076 0.0
C1562 C 0.10523 0.38112 0.23523 0.0
C1563 C 0.34912 0.39846 0.96758 0.0
C1564 C 0.36636 0.38274 0.94923 0.0
C1565 C 0.34961 0.39413 0.99699 0.0
C1566 C 0.36698 0.37354 0.00931 0.0
H1567 H 0.33551 0.41478 0.95925 0.0
H1568 H 0.3362 0.40707 0.01018 0.0
S1569 S 0.41535 0.32583 0.97067 0.0
N1570 N 0.40088 0.34524 0.9455 0.0
N1571 N 0.40146 0.33675 0.00082 0.0
C1572 C 0.38388 0.35716 0.99121 0.0
C1573 C 0.3837 0.36189 0.96121 0.0
C1574 C 0.40522 0.62757 0.7042 0.0
C1575 C 0.37937 0.61509 0.6971 0.0
C1576 C 0.41529 0.62721 0.73222 0.0
C1577 C 0.39952 0.61498 0.7542 0.0
H1578 H 0.41774 0.63783 0.688 0.0
H1579 H 0.43493 0.63769 0.73688 0.0
S1580 S 0.33117 0.5785 0.74679 0.0
N1581 N 0.33892 0.58892 0.71425 0.0
N1582 N 0.35739 0.58916 0.767 0.0
C1583 C 0.37396 0.60193 0.74734 0.0
C1584 C 0.36401 0.60172 0.71875 0.0
C1585 C 0.12753 0.64194 0.49127 0.0
C1586 C 0.14567 0.62676 0.50918 0.0
C1587 C 0.1278 0.6379 0.46168 0.0
C1588 C 0.14669 0.61904 0.44884 0.0
H1589 H 0.11254 0.65657 0.50023 0.0
H1590 H 0.11315 0.64968 0.44878 0.0
S1591 S 0.1994 0.57508 0.48629 0.0
N1592 N 0.18349 0.59266 0.51186 0.0
N1593 N 0.18439 0.58537 0.4565 0.0
C1594 C 0.16537 0.60422 0.46653 0.0
C1595 C 0.16475 0.60798 0.4966 0.0
C1596 C 0.15473 0.58306 0.24389 0.0
C1597 C 0.13328 0.60136 0.23508 0.0
C1598 C 0.16331 0.58183 0.27216 0.0
C1599 C 0.1509 0.59882 0.29315 0.0
H1600 H 0.16543 0.56965 0.22874 0.0
H1601 H 0.18027 0.56764 0.2774 0.0
S1602 S 0.09238 0.64889 0.28203 0.0
N1603 N 0.09858 0.63582 0.25009 0.0
N1604 N 0.11486 0.63345 0.30363 0.0
C1605 C 0.12861 0.61643 0.28509 0.0
C1606 C 0.11975 0.61769 0.25599 0.0
C1607 C 0.13195 0.34838 0.04263 0.0
C1608 C 0.14131 0.37534 0.05145 0.0
C1609 C 0.13016 0.34143 0.01374 0.0
C1610 C 0.13685 0.36149 0.9927 0.0
H1611 H 0.12592 0.33256 0.05818 0.0
H1612 H 0.12259 0.3205 0.00786 0.0
S1613 S 0.16296 0.43482 0.00471 0.0
N1614 N 0.15831 0.42186 0.03697 0.0
N1615 N 0.15385 0.40915 0.98254 0.0
C1616 C 0.14647 0.38844 0.00121 0.0
C1617 C 0.14903 0.39526 0.03065 0.0
C1618 C 0.34803 0.42108 0.77424 0.0
C1619 C 0.35957 0.40349 0.79526 0.0
C1620 C 0.35645 0.4192 0.74598 0.0
C1621 C 0.37683 0.39964 0.73735 0.0
H1622 H 0.33178 0.43611 0.77944 0.0
H1623 H 0.3463 0.43282 0.73061 0.0
S1624 S 0.41546 0.35036 0.78444 0.0
N1625 N 0.39392 0.36717 0.80598 0.0
N1626 N 0.40983 0.36355 0.75244 0.0
C1627 C 0.38972 0.3829 0.75832 0.0
C1628 C 0.38104 0.38482 0.78736 0.0
C1629 C 0.36593 0.60701 0.49426 0.0
C1630 C 0.37243 0.6359 0.49035 0.0
C1631 C 0.35983 0.59619 0.52127 0.0
C1632 C 0.36056 0.61371 0.5455 0.0
H1633 H 0.36541 0.59262 0.47629 0.0
H1634 H 0.35506 0.57374 0.5232 0.0
S1635 S 0.37606 0.69105 0.54662 0.0
N1636 N 0.37861 0.68206 0.51281 0.0
N1637 N 0.36788 0.66154 0.56371 0.0
C1638 C 0.3669 0.64269 0.54187 0.0
C1639 C 0.3726 0.65384 0.51425 0.0
C1640 C 0.22972 0.15329 0.40123 0.0
C1641 C 0.20539 0.13648 0.40207 0.0
C1642 C 0.25532 0.14201 0.39287 0.0
C1643 C 0.25804 0.11322 0.38537 0.0
H1644 H 0.229 0.17569 0.40649 0.0
H1645 H 0.27323 0.15614 0.39232 0.0
S1646 S 0.20115 0.05954 0.38507 0.0
N1647 N 0.18573 0.08921 0.39519 0.0
N1648 N 0.23434 0.06774 0.38008 0.0
C1649 C 0.23414 0.09582 0.38677 0.0
C1650 C 0.20771 0.10751 0.39489 0.0
C1651 C 0.75604 0.34731 0.61168 0.0
C1652 C 0.75886 0.37689 0.61522 0.0
C1653 C 0.73126 0.33526 0.60143 0.0
C1654 C 0.70806 0.35219 0.59508 0.0
H1655 H 0.77341 0.33334 0.61601 0.0
H1656 H 0.73034 0.31248 0.59809 0.0
S1657 S 0.70394 0.43049 0.6017 0.0
N1658 N 0.73597 0.42282 0.61207 0.0
N1659 N 0.68897 0.39984 0.59354 0.0
C1660 C 0.71014 0.38166 0.59932 0.0
C1661 C 0.73568 0.3941 0.60918 0.0
C1662 C 0.37717 0.96623 0.35463 0.0
C1663 C 0.40572 0.95953 0.35538 0.0
C1664 C 0.36818 0.99464 0.35675 0.0
C1665 C 0.38748 0.01714 0.35993 0.0
H1666 H 0.36181 0.94958 0.35139 0.0
H1667 H 0.34609 0.99902 0.35512 0.0
S1668 S 0.46441 0.0097 0.36748 0.0
N1669 N 0.45292 0.97702 0.36226 0.0
N1670 N 0.43642 0.0299 0.36691 0.0
C1671 C 0.41602 0.01023 0.36224 0.0
C1672 C 0.42503 0.98157 0.35978 0.0
C1673 C 0.78341 0.61728 0.07391 0.0
C1674 C 0.80042 0.63569 0.08997 0.0
C1675 C 0.75876 0.60586 0.08532 0.0
C1676 C 0.74989 0.61333 0.11277 0.0
H1677 H 0.78896 0.61211 0.05222 0.0
H1678 H 0.74591 0.59221 0.0721 0.0
S1679 S 0.78729 0.66031 0.16348 0.0
N1680 N 0.80731 0.66001 0.13496 0.0
N1681 N 0.76037 0.63955 0.156 0.0
C1682 C 0.76695 0.63133 0.12917 0.0
C1683 C 0.79242 0.64226 0.11786 0.0
C1684 C 0.64391 0.54437 0.37094 0.0
C1685 C 0.6162 0.54748 0.36149 0.0
C1686 C 0.6557 0.51731 0.37467 0.0
C1687 C 0.63997 0.49254 0.36952 0.0
H1688 H 0.65657 0.56292 0.3756 0.0
H1689 H 0.6769 0.51579 0.38244 0.0
S1690 S 0.56719 0.48893 0.3429 0.0
N1691 N 0.57392 0.52323 0.3458 0.0
N1692 N 0.59592 0.47272 0.35313 0.0
C1693 C 0.61252 0.49537 0.35951 0.0
C1694 C 0.60067 0.52275 0.35541 0.0
C1695 C 0.25853 0.88451 0.88143 0.0
C1696 C 0.23811 0.87469 0.90058 0.0
C1697 C 0.28655 0.87598 0.88409 0.0
C1698 C 0.29479 0.85739 0.90592 0.0
H1699 H 0.25258 0.89758 0.86351 0.0
H1700 H 0.30148 0.88279 0.86822 0.0
S1701 S 0.25026 0.83063 0.96462 0.0
N1702 N 0.22884 0.84891 0.94426 0.0
N1703 N 0.2811 0.83296 0.94925 0.0
C1704 C 0.27489 0.84929 0.9263 0.0
C1705 C 0.24663 0.85793 0.92363 0.0
C1706 C 0.35732 0.01017 0.14518 0.0
C1707 C 0.36593 0.99132 0.1238 0.0
C1708 C 0.36804 0.03798 0.14652 0.0
C1709 C 0.38696 0.04804 0.12597 0.0
H1710 H 0.34265 0.00322 0.16126 0.0
H1711 H 0.36114 0.05186 0.16347 0.0
S1712 S 0.41543 0.00715 0.06539 0.0
N1713 N 0.39451 0.98451 0.08177 0.0
N1714 N 0.41368 0.0371 0.08361 0.0
C1715 C 0.39536 0.02951 0.10429 0.0
C1716 C 0.38509 0.00103 0.10339 0.0
C1717 C 0.12985 0.96763 0.61944 0.0
C1718 C 0.11556 0.95402 0.64184 0.0
C1719 C 0.13625 0.99676 0.62052 0.0
C1720 C 0.12826 0.01344 0.64386 0.0
H1721 H 0.13598 0.95581 0.60074 0.0
H1722 H 0.14675 0.00643 0.60258 0.0
S1723 S 0.09284 0.98825 0.70919 0.0
N1724 N 0.09538 0.95965 0.68907 0.0
N1725 N 0.10715 0.01425 0.69069 0.0
C1726 C 0.11473 1.00012 0.66673 0.0
C1727 C 0.10846 0.97047 0.66584 0.0
loop_
_geom_bond_atom_site_label_1
_geom_bond_atom_site_label_2
_geom_bond_distance
_geom_bond_site_symmetry_2
_ccdc_geom_bond_type
Co0 O1 2.216 . S
Co0 O2 2.091 . S
Co0 O4 2.004 . S
Co0 O10 2.021 . S
Co0 O12 2.137 . S
Co0 O13 2.244 . S
O1 Co0 2.216 . S
O1 C8 1.247 . S
O2 Co0 2.091 . S
O2 C8 1.261 . S
C3 O12 1.247 . S
C3 O13 1.272 . S
O4 Co0 2.004 . S
O4 C9 1.259 . S
Co5 O6 2.061 . S
Co5 O11 2.052 . S
Co5 O13 2.135 . S
O6 Co5 2.061 . S
O6 C9 1.235 . S
C7 O10 1.238 . S
C7 O11 1.241 . S
C8 O1 1.247 . S
C8 O2 1.261 . S
C9 O4 1.259 . S
C9 O6 1.235 . S
O10 Co0 2.021 . S
O10 C7 1.238 . S
O11 Co5 2.052 . S
O11 C7 1.241 . S
O12 Co0 2.137 . S
O12 C3 1.247 . S
O13 Co0 2.244 . S
O13 C3 1.272 . S
O13 Co5 2.135 . S
Co14 O15 2.216 . S
Co14 O16 2.091 . S
Co14 O18 2.004 . S
Co14 O24 2.021 . S
Co14 O26 2.137 . S
Co14 O27 2.244 . S
O15 Co14 2.216 . S
O15 C22 1.247 . S
O16 Co14 2.091 . S
O16 C22 1.261 . S
C17 O26 1.247 . S
C17 O27 1.272 . S
O18 Co14 2.004 . S
O18 C23 1.259 . S
Co19 O20 2.061 . S
Co19 O25 2.052 . S
Co19 O27 2.135 . S
O20 Co19 2.061 . S
O20 C23 1.235 . S
C21 O24 1.238 . S
C21 O25 1.241 . S
C22 O15 1.247 . S
C22 O16 1.261 . S
C23 O18 1.259 . S
C23 O20 1.235 . S
O24 Co14 2.021 . S
O24 C21 1.238 . S
O25 Co19 2.052 . S
O25 C21 1.241 . S
O26 Co14 2.137 . S
O26 C17 1.247 . S
O27 Co14 2.244 . S
O27 C17 1.272 . S
O27 Co19 2.135 . S
Co28 O29 2.216 . S
Co28 O30 2.091 . S
Co28 O32 2.004 . S
Co28 O38 2.021 . S
Co28 O40 2.137 . S
Co28 O41 2.244 . S
O29 Co28 2.216 . S
O29 C36 1.247 . S
O30 Co28 2.091 . S
O30 C36 1.261 . S
C31 O40 1.247 . S
C31 O41 1.272 . S
O32 Co28 2.004 . S
O32 C37 1.259 . S
Co33 O34 2.061 . S
Co33 O39 2.052 . S
Co33 O41 2.135 . S
O34 Co33 2.061 . S
O34 C37 1.235 . S
C35 O38 1.238 . S
C35 O39 1.241 . S
C36 O29 1.247 . S
C36 O30 1.261 . S
C37 O32 1.259 . S
C37 O34 1.235 . S
O38 Co28 2.021 . S
O38 C35 1.238 . S
O39 Co33 2.052 . S
O39 C35 1.241 . S
O40 Co28 2.137 . S
O40 C31 1.247 . S
O41 Co28 2.244 . S
O41 C31 1.272 . S
O41 Co33 2.135 . S
Co42 O43 2.216 . S
Co42 O44 2.091 . S
Co42 O46 2.004 . S
Co42 O52 2.021 . S
Co42 O54 2.137 . S
Co42 O55 2.244 . S
O43 Co42 2.216 . S
O43 C50 1.247 . S
O44 Co42 2.091 . S
O44 C50 1.261 . S
C45 O54 1.247 . S
C45 O55 1.272 . S
O46 Co42 2.004 . S
O46 C51 1.259 . S
Co47 O48 2.061 . S
Co47 O53 2.052 . S
Co47 O55 2.135 . S
O48 Co47 2.061 . S
O48 C51 1.235 . S
C49 O52 1.238 . S
C49 O53 1.241 . S
C50 O43 1.247 . S
C50 O44 1.261 . S
C51 O46 1.259 . S
C51 O48 1.235 . S
O52 Co42 2.021 . S
O52 C49 1.238 . S
O53 Co47 2.052 . S
O53 C49 1.241 . S
O54 Co42 2.137 . S
O54 C45 1.247 . S
O55 Co42 2.244 . S
O55 C45 1.272 . S
O55 Co47 2.135 . S
Co56 O57 2.216 . S
Co56 O58 2.091 . S
Co56 O60 2.004 . S
Co56 O66 2.021 . S
Co56 O68 2.137 . S
Co56 O69 2.244 . S
O57 Co56 2.216 . S
O57 C64 1.247 . S
O58 Co56 2.091 . S
O58 C64 1.261 . S
C59 O68 1.247 . S
C59 O69 1.272 . S
O60 Co56 2.004 . S
O60 C65 1.259 . S
Co61 O62 2.061 . S
Co61 O67 2.052 . S
Co61 O69 2.135 . S
O62 Co61 2.061 . S
O62 C65 1.235 . S
C63 O66 1.238 . S
C63 O67 1.241 . S
C64 O57 1.247 . S
C64 O58 1.261 . S
C65 O60 1.259 . S
C65 O62 1.235 . S
O66 Co56 2.021 . S
O66 C63 1.238 . S
O67 Co61 2.052 . S
O67 C63 1.241 . S
O68 Co56 2.137 . S
O68 C59 1.247 . S
O69 Co56 2.244 . S
O69 C59 1.272 . S
O69 Co61 2.135 . S
Co70 O71 2.216 . S
Co70 O72 2.091 . S
Co70 O74 2.004 . S
Co70 O80 2.021 . S
Co70 O82 2.137 . S
Co70 O83 2.244 . S
O71 Co70 2.216 . S
O71 C78 1.247 . S
O72 Co70 2.091 . S
O72 C78 1.261 . S
C73 O82 1.247 . S
C73 O83 1.272 . S
O74 Co70 2.004 . S
O74 C79 1.259 . S
Co75 O76 2.061 . S
Co75 O81 2.052 . S
Co75 O83 2.135 . S
O76 Co75 2.061 . S
O76 C79 1.235 . S
C77 O80 1.238 . S
C77 O81 1.241 . S
C78 O71 1.247 . S
C78 O72 1.261 . S
C79 O74 1.259 . S
C79 O76 1.235 . S
O80 Co70 2.021 . S
O80 C77 1.238 . S
O81 Co75 2.052 . S
O81 C77 1.241 . S
O82 Co70 2.137 . S
O82 C73 1.247 . S
O83 Co70 2.244 . S
O83 C73 1.272 . S
O83 Co75 2.135 . S
Co84 O85 2.216 . S
Co84 O86 2.091 . S
Co84 O88 2.004 . S
Co84 O94 2.021 . S
Co84 O96 2.137 . S
Co84 O97 2.244 . S
O85 Co84 2.216 . S
O85 C92 1.247 . S
O86 Co84 2.091 . S
O86 C92 1.261 . S
C87 O96 1.247 . S
C87 O97 1.272 . S
O88 Co84 2.004 . S
O88 C93 1.259 . S
Co89 O90 2.061 . S
Co89 O95 2.052 . S
Co89 O97 2.135 . S
O90 Co89 2.061 . S
O90 C93 1.235 . S
C91 O94 1.238 . S
C91 O95 1.241 . S
C92 O85 1.247 . S
C92 O86 1.261 . S
C93 O88 1.259 . S
C93 O90 1.235 . S
O94 Co84 2.021 . S
O94 C91 1.238 . S
O95 Co89 2.052 . S
O95 C91 1.241 . S
O96 Co84 2.137 . S
O96 C87 1.247 . S
O97 Co84 2.244 . S
O97 C87 1.272 . S
O97 Co89 2.135 . S
Co98 O99 2.216 . S
Co98 O100 2.091 . S
Co98 O102 2.004 . S
Co98 O108 2.021 . S
Co98 O110 2.137 . S
Co98 O111 2.244 . S
O99 Co98 2.216 . S
O99 C106 1.247 . S
O100 Co98 2.091 . S
O100 C106 1.261 . S
C101 O110 1.247 . S
C101 O111 1.272 . S
O102 Co98 2.004 . S
O102 C107 1.259 . S
Co103 O104 2.061 . S
Co103 O109 2.052 . S
Co103 O111 2.135 . S
O104 Co103 2.061 . S
O104 C107 1.235 . S
C105 O108 1.238 . S
C105 O109 1.241 . S
C106 O99 1.247 . S
C106 O100 1.261 . S
C107 O102 1.259 . S
C107 O104 1.235 . S
O108 Co98 2.021 . S
O108 C105 1.238 . S
O109 Co103 2.052 . S
O109 C105 1.241 . S
O110 Co98 2.137 . S
O110 C101 1.247 . S
O111 Co98 2.244 . S
O111 C101 1.272 . S
O111 Co103 2.135 . S
Co112 O113 2.216 . S
Co112 O114 2.091 . S
Co112 O116 2.004 . S
Co112 O122 2.021 . S
Co112 O124 2.137 . S
Co112 O125 2.244 . S
O113 Co112 2.216 . S
O113 C120 1.247 . S
O114 Co112 2.091 . S
O114 C120 1.261 . S
C115 O124 1.247 . S
C115 O125 1.272 . S
O116 Co112 2.004 . S
O116 C121 1.259 . S
Co117 O118 2.061 . S
Co117 O123 2.052 . S
Co117 O125 2.135 . S
O118 Co117 2.061 . S
O118 C121 1.235 . S
C119 O122 1.238 . S
C119 O123 1.241 . S
C120 O113 1.247 . S
C120 O114 1.261 . S
C121 O116 1.259 . S
C121 O118 1.235 . S
O122 Co112 2.021 . S
O122 C119 1.238 . S
O123 Co117 2.052 . S
O123 C119 1.241 . S
O124 Co112 2.137 . S
O124 C115 1.247 . S
O125 Co112 2.244 . S
O125 C115 1.272 . S
O125 Co117 2.135 . S
Co126 O127 2.216 . S
Co126 O128 2.091 . S
Co126 O130 2.004 . S
Co126 O136 2.021 . S
Co126 O138 2.137 . S
Co126 O139 2.244 . S
O127 Co126 2.216 . S
O127 C134 1.247 . S
O128 Co126 2.091 . S
O128 C134 1.261 . S
C129 O138 1.247 . S
C129 O139 1.272 . S
O130 Co126 2.004 . S
O130 C135 1.259 . S
Co131 O132 2.061 . S
Co131 O137 2.052 . S
Co131 O139 2.135 . S
O132 Co131 2.061 . S
O132 C135 1.235 . S
C133 O136 1.238 . S
C133 O137 1.241 . S
C134 O127 1.247 . S
C134 O128 1.261 . S
C135 O130 1.259 . S
C135 O132 1.235 . S
O136 Co126 2.021 . S
O136 C133 1.238 . S
O137 Co131 2.052 . S
O137 C133 1.241 . S
O138 Co126 2.137 . S
O138 C129 1.247 . S
O139 Co126 2.244 . S
O139 C129 1.272 . S
O139 Co131 2.135 . S
Co140 O141 2.216 . S
Co140 O142 2.091 . S
Co140 O144 2.004 . S
Co140 O150 2.021 . S
Co140 O152 2.137 . S
Co140 O153 2.244 . S
O141 Co140 2.216 . S
O141 C148 1.247 . S
O142 Co140 2.091 . S
O142 C148 1.261 . S
C143 O152 1.247 . S
C143 O153 1.272 . S
O144 Co140 2.004 . S
O144 C149 1.259 . S
Co145 O146 2.061 . S
Co145 O151 2.052 . S
Co145 O153 2.135 . S
O146 Co145 2.061 . S
O146 C149 1.235 . S
C147 O150 1.238 . S
C147 O151 1.241 . S
C148 O141 1.247 . S
C148 O142 1.261 . S
C149 O144 1.259 . S
C149 O146 1.235 . S
O150 Co140 2.021 . S
O150 C147 1.238 . S
O151 Co145 2.052 . S
O151 C147 1.241 . S
O152 Co140 2.137 . S
O152 C143 1.247 . S
O153 Co140 2.244 . S
O153 C143 1.272 . S
O153 Co145 2.135 . S
Co154 O155 2.216 . S
Co154 O156 2.091 . S
Co154 O158 2.004 . S
Co154 O164 2.021 . S
Co154 O166 2.137 . S
Co154 O167 2.244 . S
O155 Co154 2.216 . S
O155 C162 1.247 . S
O156 Co154 2.091 . S
O156 C162 1.261 . S
C157 O166 1.247 . S
C157 O167 1.272 . S
O158 Co154 2.004 . S
O158 C163 1.259 . S
Co159 O160 2.061 . S
Co159 O165 2.052 . S
Co159 O167 2.135 . S
O160 Co159 2.061 . S
O160 C163 1.235 . S
C161 O164 1.238 . S
C161 O165 1.241 . S
C162 O155 1.247 . S
C162 O156 1.261 . S
C163 O158 1.259 . S
C163 O160 1.235 . S
O164 Co154 2.021 . S
O164 C161 1.238 . S
O165 Co159 2.052 . S
O165 C161 1.241 . S
O166 Co154 2.137 . S
O166 C157 1.247 . S
O167 Co154 2.244 . S
O167 C157 1.272 . S
O167 Co159 2.135 . S
Co168 O169 2.216 . S
Co168 O170 2.091 . S
Co168 O172 2.004 . S
Co168 O178 2.021 . S
Co168 O180 2.137 . S
Co168 O181 2.244 . S
O169 Co168 2.216 . S
O169 C176 1.247 . S
O170 Co168 2.091 . S
O170 C176 1.261 . S
C171 O180 1.247 . S
C171 O181 1.272 . S
O172 Co168 2.004 . S
O172 C177 1.259 . S
Co173 O174 2.061 . S
Co173 O179 2.052 . S
Co173 O181 2.135 . S
O174 Co173 2.061 . S
O174 C177 1.235 . S
C175 O178 1.238 . S
C175 O179 1.241 . S
C176 O169 1.247 . S
C176 O170 1.261 . S
C177 O172 1.259 . S
C177 O174 1.235 . S
O178 Co168 2.021 . S
O178 C175 1.238 . S
O179 Co173 2.052 . S
O179 C175 1.241 . S
O180 Co168 2.137 . S
O180 C171 1.247 . S
O181 Co168 2.244 . S
O181 C171 1.272 . S
O181 Co173 2.135 . S
Co182 O183 2.216 . S
Co182 O184 2.091 . S
Co182 O186 2.004 . S
Co182 O192 2.021 . S
Co182 O194 2.137 . S
Co182 O195 2.244 . S
O183 Co182 2.216 . S
O183 C190 1.247 . S
O184 Co182 2.091 . S
O184 C190 1.261 . S
C185 O194 1.247 . S
C185 O195 1.272 . S
O186 Co182 2.004 . S
O186 C191 1.259 . S
Co187 O188 2.061 . S
Co187 O193 2.052 . S
Co187 O195 2.135 . S
O188 Co187 2.061 . S
O188 C191 1.235 . S
C189 O192 1.238 . S
C189 O193 1.241 . S
C190 O183 1.247 . S
C190 O184 1.261 . S
C191 O186 1.259 . S
C191 O188 1.235 . S
O192 Co182 2.021 . S
O192 C189 1.238 . S
O193 Co187 2.052 . S
O193 C189 1.241 . S
O194 Co182 2.137 . S
O194 C185 1.247 . S
O195 Co182 2.244 . S
O195 C185 1.272 . S
O195 Co187 2.135 . S
Co196 O197 2.216 . S
Co196 O198 2.091 . S
Co196 O200 2.004 . S
Co196 O206 2.021 . S
Co196 O208 2.137 . S
Co196 O209 2.244 . S
O197 Co196 2.216 . S
O197 C204 1.247 . S
O198 Co196 2.091 . S
O198 C204 1.261 . S
C199 O208 1.247 . S
C199 O209 1.272 . S
O200 Co196 2.004 . S
O200 C205 1.259 . S
Co201 O202 2.061 . S
Co201 O207 2.052 . S
Co201 O209 2.135 . S
O202 Co201 2.061 . S
O202 C205 1.235 . S
C203 O206 1.238 . S
C203 O207 1.241 . S
C204 O197 1.247 . S
C204 O198 1.261 . S
C205 O200 1.259 . S
C205 O202 1.235 . S
O206 Co196 2.021 . S
O206 C203 1.238 . S
O207 Co201 2.052 . S
O207 C203 1.241 . S
O208 Co196 2.137 . S
O208 C199 1.247 . S
O209 Co196 2.244 . S
O209 C199 1.272 . S
O209 Co201 2.135 . S
Co210 O211 2.216 . S
Co210 O212 2.091 . S
Co210 O214 2.004 . S
Co210 O220 2.021 . S
Co210 O222 2.137 . S
Co210 O223 2.244 . S
O211 Co210 2.216 . S
O211 C218 1.247 . S
O212 Co210 2.091 . S
O212 C218 1.261 . S
C213 O222 1.247 . S
C213 O223 1.272 . S
O214 Co210 2.004 . S
O214 C219 1.259 . S
Co215 O216 2.061 . S
Co215 O221 2.052 . S
Co215 O223 2.135 . S
O216 Co215 2.061 . S
O216 C219 1.235 . S
C217 O220 1.238 . S
C217 O221 1.241 . S
C218 O211 1.247 . S
C218 O212 1.261 . S
C219 O214 1.259 . S
C219 O216 1.235 . S
O220 Co210 2.021 . S
O220 C217 1.238 . S
O221 Co215 2.052 . S
O221 C217 1.241 . S
O222 Co210 2.137 . S
O222 C213 1.247 . S
O223 Co210 2.244 . S
O223 C213 1.272 . S
O223 Co215 2.135 . S
Co224 O225 2.216 . S
Co224 O226 2.091 . S
Co224 O228 2.004 . S
Co224 O234 2.021 . S
Co224 O236 2.137 . S
Co224 O237 2.244 . S
O225 Co224 2.216 . S
O225 C232 1.247 . S
O226 Co224 2.091 . S
O226 C232 1.261 . S
C227 O236 1.247 . S
C227 O237 1.272 . S
O228 Co224 2.004 . S
O228 C233 1.259 . S
Co229 O230 2.061 . S
Co229 O235 2.052 . S
Co229 O237 2.135 . S
O230 Co229 2.061 . S
O230 C233 1.235 . S
C231 O234 1.238 . S
C231 O235 1.241 . S
C232 O225 1.247 . S
C232 O226 1.261 . S
C233 O228 1.259 . S
C233 O230 1.235 . S
O234 Co224 2.021 . S
O234 C231 1.238 . S
O235 Co229 2.052 . S
O235 C231 1.241 . S
O236 Co224 2.137 . S
O236 C227 1.247 . S
O237 Co224 2.244 . S
O237 C227 1.272 . S
O237 Co229 2.135 . S
Co238 O239 2.216 . S
Co238 O240 2.091 . S
Co238 O242 2.004 . S
Co238 O248 2.021 . S
Co238 O250 2.137 . S
Co238 O251 2.244 . S
O239 Co238 2.216 . S
O239 C246 1.247 . S
O240 Co238 2.091 . S
O240 C246 1.261 . S
C241 O250 1.247 . S
C241 O251 1.272 . S
O242 Co238 2.004 . S
O242 C247 1.259 . S
Co243 O244 2.061 . S
Co243 O249 2.052 . S
Co243 O251 2.135 . S
O244 Co243 2.061 . S
O244 C247 1.235 . S
C245 O248 1.238 . S
C245 O249 1.241 . S
C246 O239 1.247 . S
C246 O240 1.261 . S
C247 O242 1.259 . S
C247 O244 1.235 . S
O248 Co238 2.021 . S
O248 C245 1.238 . S
O249 Co243 2.052 . S
O249 C245 1.241 . S
O250 Co238 2.137 . S
O250 C241 1.247 . S
O251 Co238 2.244 . S
O251 C241 1.272 . S
O251 Co243 2.135 . S
Co252 O253 2.216 . S
Co252 O254 2.091 . S
Co252 O256 2.004 . S
Co252 O262 2.021 . S
Co252 O264 2.137 . S
Co252 O265 2.244 . S
O253 Co252 2.216 . S
O253 C260 1.247 . S
O254 Co252 2.091 . S
O254 C260 1.261 . S
C255 O264 1.247 . S
C255 O265 1.272 . S
O256 Co252 2.004 . S
O256 C261 1.259 . S
Co257 O258 2.061 . S
Co257 O263 2.052 . S
Co257 O265 2.135 . S
O258 Co257 2.061 . S
O258 C261 1.235 . S
C259 O262 1.238 . S
C259 O263 1.241 . S
C260 O253 1.247 . S
C260 O254 1.261 . S
C261 O256 1.259 . S
C261 O258 1.235 . S
O262 Co252 2.021 . S
O262 C259 1.238 . S
O263 Co257 2.052 . S
O263 C259 1.241 . S
O264 Co252 2.137 . S
O264 C255 1.247 . S
O265 Co252 2.244 . S
O265 C255 1.272 . S
O265 Co257 2.135 . S
Co266 O267 2.216 . S
Co266 O268 2.091 . S
Co266 O270 2.004 . S
Co266 O276 2.021 . S
Co266 O278 2.137 . S
Co266 O279 2.244 . S
O267 Co266 2.216 . S
O267 C274 1.247 . S
O268 Co266 2.091 . S
O268 C274 1.261 . S
C269 O278 1.247 . S
C269 O279 1.272 . S
O270 Co266 2.004 . S
O270 C275 1.259 . S
Co271 O272 2.061 . S
Co271 O277 2.052 . S
Co271 O279 2.135 . S
O272 Co271 2.061 . S
O272 C275 1.235 . S
C273 O276 1.238 . S
C273 O277 1.241 . S
C274 O267 1.247 . S
C274 O268 1.261 . S
C275 O270 1.259 . S
C275 O272 1.235 . S
O276 Co266 2.021 . S
O276 C273 1.238 . S
O277 Co271 2.052 . S
O277 C273 1.241 . S
O278 Co266 2.137 . S
O278 C269 1.247 . S
O279 Co266 2.244 . S
O279 C269 1.272 . S
O279 Co271 2.135 . S
Co280 O281 2.216 . S
Co280 O282 2.091 . S
Co280 O284 2.004 . S
Co280 O290 2.021 . S
Co280 O292 2.137 . S
Co280 O293 2.244 . S
O281 Co280 2.216 . S
O281 C288 1.247 . S
O282 Co280 2.091 . S
O282 C288 1.261 . S
C283 O292 1.247 . S
C283 O293 1.272 . S
O284 Co280 2.004 . S
O284 C289 1.259 . S
Co285 O286 2.061 . S
Co285 O291 2.052 . S
Co285 O293 2.135 . S
O286 Co285 2.061 . S
O286 C289 1.235 . S
C287 O290 1.238 . S
C287 O291 1.241 . S
C288 O281 1.247 . S
C288 O282 1.261 . S
C289 O284 1.259 . S
C289 O286 1.235 . S
O290 Co280 2.021 . S
O290 C287 1.238 . S
O291 Co285 2.052 . S
O291 C287 1.241 . S
O292 Co280 2.137 . S
O292 C283 1.247 . S
O293 Co280 2.244 . S
O293 C283 1.272 . S
O293 Co285 2.135 . S
Co294 O295 2.216 . S
Co294 O296 2.091 . S
Co294 O298 2.004 . S
Co294 O304 2.021 . S
Co294 O306 2.137 . S
Co294 O307 2.244 . S
O295 Co294 2.216 . S
O295 C302 1.247 . S
O296 Co294 2.091 . S
O296 C302 1.261 . S
C297 O306 1.247 . S
C297 O307 1.272 . S
O298 Co294 2.004 . S
O298 C303 1.259 . S
Co299 O300 2.061 . S
Co299 O305 2.052 . S
Co299 O307 2.135 . S
O300 Co299 2.061 . S
O300 C303 1.235 . S
C301 O304 1.238 . S
C301 O305 1.241 . S
C302 O295 1.247 . S
C302 O296 1.261 . S
C303 O298 1.259 . S
C303 O300 1.235 . S
O304 Co294 2.021 . S
O304 C301 1.238 . S
O305 Co299 2.052 . S
O305 C301 1.241 . S
O306 Co294 2.137 . S
O306 C297 1.247 . S
O307 Co294 2.244 . S
O307 C297 1.272 . S
O307 Co299 2.135 . S
Co308 O309 2.216 . S
Co308 O310 2.091 . S
Co308 O312 2.004 . S
Co308 O318 2.021 . S
Co308 O320 2.137 . S
Co308 O321 2.244 . S
O309 Co308 2.216 . S
O309 C316 1.247 . S
O310 Co308 2.091 . S
O310 C316 1.261 . S
C311 O320 1.247 . S
C311 O321 1.272 . S
O312 Co308 2.004 . S
O312 C317 1.259 . S
Co313 O314 2.061 . S
Co313 O319 2.052 . S
Co313 O321 2.135 . S
O314 Co313 2.061 . S
O314 C317 1.235 . S
C315 O318 1.238 . S
C315 O319 1.241 . S
C316 O309 1.247 . S
C316 O310 1.261 . S
C317 O312 1.259 . S
C317 O314 1.235 . S
O318 Co308 2.021 . S
O318 C315 1.238 . S
O319 Co313 2.052 . S
O319 C315 1.241 . S
O320 Co308 2.137 . S
O320 C311 1.247 . S
O321 Co308 2.244 . S
O321 C311 1.272 . S
O321 Co313 2.135 . S
Co322 O323 2.216 . S
Co322 O324 2.091 . S
Co322 O326 2.004 . S
Co322 O332 2.021 . S
Co322 O334 2.137 . S
Co322 O335 2.244 . S
O323 Co322 2.216 . S
O323 C330 1.247 . S
O324 Co322 2.091 . S
O324 C330 1.261 . S
C325 O334 1.247 . S
C325 O335 1.272 . S
O326 Co322 2.004 . S
O326 C331 1.259 . S
Co327 O328 2.061 . S
Co327 O333 2.052 . S
Co327 O335 2.135 . S
O328 Co327 2.061 . S
O328 C331 1.235 . S
C329 O332 1.238 . S
C329 O333 1.241 . S
C330 O323 1.247 . S
C330 O324 1.261 . S
C331 O326 1.259 . S
C331 O328 1.235 . S
O332 Co322 2.021 . S
O332 C329 1.238 . S
O333 Co327 2.052 . S
O333 C329 1.241 . S
O334 Co322 2.137 . S
O334 C325 1.247 . S
O335 Co322 2.244 . S
O335 C325 1.272 . S
O335 Co327 2.135 . S
Co336 O337 2.216 . S
Co336 O338 2.091 . S
Co336 O340 2.004 . S
Co336 O346 2.021 . S
Co336 O348 2.137 . S
Co336 O349 2.244 . S
O337 Co336 2.216 . S
O337 C344 1.247 . S
O338 Co336 2.091 . S
O338 C344 1.261 . S
C339 O348 1.247 . S
C339 O349 1.272 . S
O340 Co336 2.004 . S
O340 C345 1.259 . S
Co341 O342 2.061 . S
Co341 O347 2.052 . S
Co341 O349 2.135 . S
O342 Co341 2.061 . S
O342 C345 1.235 . S
C343 O346 1.238 . S
C343 O347 1.241 . S
C344 O337 1.247 . S
C344 O338 1.261 . S
C345 O340 1.259 . S
C345 O342 1.235 . S
O346 Co336 2.021 . S
O346 C343 1.238 . S
O347 Co341 2.052 . S
O347 C343 1.241 . S
O348 Co336 2.137 . S
O348 C339 1.247 . S
O349 Co336 2.244 . S
O349 C339 1.272 . S
O349 Co341 2.135 . S
Co350 O351 2.216 . S
Co350 O352 2.091 . S
Co350 O354 2.004 . S
Co350 O360 2.021 . S
Co350 O362 2.137 . S
Co350 O363 2.244 . S
O351 Co350 2.216 . S
O351 C358 1.247 . S
O352 Co350 2.091 . S
O352 C358 1.261 . S
C353 O362 1.247 . S
C353 O363 1.272 . S
O354 Co350 2.004 . S
O354 C359 1.259 . S
Co355 O356 2.061 . S
Co355 O361 2.052 . S
Co355 O363 2.135 . S
O356 Co355 2.061 . S
O356 C359 1.235 . S
C357 O360 1.238 . S
C357 O361 1.241 . S
C358 O351 1.247 . S
C358 O352 1.261 . S
C359 O354 1.259 . S
C359 O356 1.235 . S
O360 Co350 2.021 . S
O360 C357 1.238 . S
O361 Co355 2.052 . S
O361 C357 1.241 . S
O362 Co350 2.137 . S
O362 C353 1.247 . S
O363 Co350 2.244 . S
O363 C353 1.272 . S
O363 Co355 2.135 . S
Co364 O365 2.216 . S
Co364 O366 2.091 . S
Co364 O368 2.004 . S
Co364 O374 2.021 . S
Co364 O376 2.137 . S
Co364 O377 2.244 . S
O365 Co364 2.216 . S
O365 C372 1.247 . S
O366 Co364 2.091 . S
O366 C372 1.261 . S
C367 O376 1.247 . S
C367 O377 1.272 . S
O368 Co364 2.004 . S
O368 C373 1.259 . S
Co369 O370 2.061 . S
Co369 O375 2.052 . S
Co369 O377 2.135 . S
O370 Co369 2.061 . S
O370 C373 1.235 . S
C371 O374 1.238 . S
C371 O375 1.241 . S
C372 O365 1.247 . S
C372 O366 1.261 . S
C373 O368 1.259 . S
C373 O370 1.235 . S
O374 Co364 2.021 . S
O374 C371 1.238 . S
O375 Co369 2.052 . S
O375 C371 1.241 . S
O376 Co364 2.137 . S
O376 C367 1.247 . S
O377 Co364 2.244 . S
O377 C367 1.272 . S
O377 Co369 2.135 . S
Co378 O379 2.216 . S
Co378 O380 2.091 . S
Co378 O382 2.004 . S
Co378 O388 2.021 . S
Co378 O390 2.137 . S
Co378 O391 2.244 . S
O379 Co378 2.216 . S
O379 C386 1.247 . S
O380 Co378 2.091 . S
O380 C386 1.261 . S
C381 O390 1.247 . S
C381 O391 1.272 . S
O382 Co378 2.004 . S
O382 C387 1.259 . S
Co383 O384 2.061 . S
Co383 O389 2.052 . S
Co383 O391 2.135 . S
O384 Co383 2.061 . S
O384 C387 1.235 . S
C385 O388 1.238 . S
C385 O389 1.241 . S
C386 O379 1.247 . S
C386 O380 1.261 . S
C387 O382 1.259 . S
C387 O384 1.235 . S
O388 Co378 2.021 . S
O388 C385 1.238 . S
O389 Co383 2.052 . S
O389 C385 1.241 . S
O390 Co378 2.137 . S
O390 C381 1.247 . S
O391 Co378 2.244 . S
O391 C381 1.272 . S
O391 Co383 2.135 . S
Co392 O393 2.216 . S
Co392 O394 2.091 . S
Co392 O396 2.004 . S
Co392 O402 2.021 . S
Co392 O404 2.137 . S
Co392 O405 2.244 . S
O393 Co392 2.216 . S
O393 C400 1.247 . S
O394 Co392 2.091 . S
O394 C400 1.261 . S
C395 O404 1.247 . S
C395 O405 1.272 . S
O396 Co392 2.004 . S
O396 C401 1.259 . S
Co397 O398 2.061 . S
Co397 O403 2.052 . S
Co397 O405 2.135 . S
O398 Co397 2.061 . S
O398 C401 1.235 . S
C399 O402 1.238 . S
C399 O403 1.241 . S
C400 O393 1.247 . S
C400 O394 1.261 . S
C401 O396 1.259 . S
C401 O398 1.235 . S
O402 Co392 2.021 . S
O402 C399 1.238 . S
O403 Co397 2.052 . S
O403 C399 1.241 . S
O404 Co392 2.137 . S
O404 C395 1.247 . S
O405 Co392 2.244 . S
O405 C395 1.272 . S
O405 Co397 2.135 . S
Co406 O407 2.216 . S
Co406 O408 2.091 . S
Co406 O410 2.004 . S
Co406 O416 2.021 . S
Co406 O418 2.137 . S
Co406 O419 2.244 . S
O407 Co406 2.216 . S
O407 C414 1.247 . S
O408 Co406 2.091 . S
O408 C414 1.261 . S
C409 O418 1.247 . S
C409 O419 1.272 . S
O410 Co406 2.004 . S
O410 C415 1.259 . S
Co411 O412 2.061 . S
Co411 O417 2.052 . S
Co411 O419 2.135 . S
O412 Co411 2.061 . S
O412 C415 1.235 . S
C413 O416 1.238 . S
C413 O417 1.241 . S
C414 O407 1.247 . S
C414 O408 1.261 . S
C415 O410 1.259 . S
C415 O412 1.235 . S
O416 Co406 2.021 . S
O416 C413 1.238 . S
O417 Co411 2.052 . S
O417 C413 1.241 . S
O418 Co406 2.137 . S
O418 C409 1.247 . S
O419 Co406 2.244 . S
O419 C409 1.272 . S
O419 Co411 2.135 . S
Co420 O421 2.216 . S
Co420 O422 2.091 . S
Co420 O424 2.004 . S
Co420 O430 2.021 . S
Co420 O432 2.137 . S
Co420 O433 2.244 . S
O421 Co420 2.216 . S
O421 C428 1.247 . S
O422 Co420 2.091 . S
O422 C428 1.261 . S
C423 O432 1.247 . S
C423 O433 1.272 . S
O424 Co420 2.004 . S
O424 C429 1.259 . S
Co425 O426 2.061 . S
Co425 O431 2.052 . S
Co425 O433 2.135 . S
O426 Co425 2.061 . S
O426 C429 1.235 . S
C427 O430 1.238 . S
C427 O431 1.241 . S
C428 O421 1.247 . S
C428 O422 1.261 . S
C429 O424 1.259 . S
C429 O426 1.235 . S
O430 Co420 2.021 . S
O430 C427 1.238 . S
O431 Co425 2.052 . S
O431 C427 1.241 . S
O432 Co420 2.137 . S
O432 C423 1.247 . S
O433 Co420 2.244 . S
O433 C423 1.272 . S
O433 Co425 2.135 . S
Co434 O435 2.216 . S
Co434 O436 2.091 . S
Co434 O438 2.004 . S
Co434 O444 2.021 . S
Co434 O446 2.137 . S
Co434 O447 2.244 . S
O435 Co434 2.216 . S
O435 C442 1.247 . S
O436 Co434 2.091 . S
O436 C442 1.261 . S
C437 O446 1.247 . S
C437 O447 1.272 . S
O438 Co434 2.004 . S
O438 C443 1.259 . S
Co439 O440 2.061 . S
Co439 O445 2.052 . S
Co439 O447 2.135 . S
O440 Co439 2.061 . S
O440 C443 1.235 . S
C441 O444 1.238 . S
C441 O445 1.241 . S
C442 O435 1.247 . S
C442 O436 1.261 . S
C443 O438 1.259 . S
C443 O440 1.235 . S
O444 Co434 2.021 . S
O444 C441 1.238 . S
O445 Co439 2.052 . S
O445 C441 1.241 . S
O446 Co434 2.137 . S
O446 C437 1.247 . S
O447 Co434 2.244 . S
O447 C437 1.272 . S
O447 Co439 2.135 . S
Co448 O449 2.216 . S
Co448 O450 2.091 . S
Co448 O452 2.004 . S
Co448 O458 2.021 . S
Co448 O460 2.137 . S
Co448 O461 2.244 . S
O449 Co448 2.216 . S
O449 C456 1.247 . S
O450 Co448 2.091 . S
O450 C456 1.261 . S
C451 O460 1.247 . S
C451 O461 1.272 . S
O452 Co448 2.004 . S
O452 C457 1.259 . S
Co453 O454 2.061 . S
Co453 O459 2.052 . S
Co453 O461 2.135 . S
O454 Co453 2.061 . S
O454 C457 1.235 . S
C455 O458 1.238 . S
C455 O459 1.241 . S
C456 O449 1.247 . S
C456 O450 1.261 . S
C457 O452 1.259 . S
C457 O454 1.235 . S
O458 Co448 2.021 . S
O458 C455 1.238 . S
O459 Co453 2.052 . S
O459 C455 1.241 . S
O460 Co448 2.137 . S
O460 C451 1.247 . S
O461 Co448 2.244 . S
O461 C451 1.272 . S
O461 Co453 2.135 . S
Co462 O463 2.216 . S
Co462 O464 2.091 . S
Co462 O466 2.004 . S
Co462 O472 2.021 . S
Co462 O474 2.137 . S
Co462 O475 2.244 . S
O463 Co462 2.216 . S
O463 C470 1.247 . S
O464 Co462 2.091 . S
O464 C470 1.261 . S
C465 O474 1.247 . S
C465 O475 1.272 . S
O466 Co462 2.004 . S
O466 C471 1.259 . S
Co467 O468 2.061 . S
Co467 O473 2.052 . S
Co467 O475 2.135 . S
O468 Co467 2.061 . S
O468 C471 1.235 . S
C469 O472 1.238 . S
C469 O473 1.241 . S
C470 O463 1.247 . S
C470 O464 1.261 . S
C471 O466 1.259 . S
C471 O468 1.235 . S
O472 Co462 2.021 . S
O472 C469 1.238 . S
O473 Co467 2.052 . S
O473 C469 1.241 . S
O474 Co462 2.137 . S
O474 C465 1.247 . S
O475 Co462 2.244 . S
O475 C465 1.272 . S
O475 Co467 2.135 . S
Co476 O477 2.216 . S
Co476 O478 2.091 . S
Co476 O480 2.004 . S
Co476 O486 2.021 . S
Co476 O488 2.137 . S
Co476 O489 2.244 . S
O477 Co476 2.216 . S
O477 C484 1.247 . S
O478 Co476 2.091 . S
O478 C484 1.261 . S
C479 O488 1.247 . S
C479 O489 1.272 . S
O480 Co476 2.004 . S
O480 C485 1.259 . S
Co481 O482 2.061 . S
Co481 O487 2.052 . S
Co481 O489 2.135 . S
O482 Co481 2.061 . S
O482 C485 1.235 . S
C483 O486 1.238 . S
C483 O487 1.241 . S
C484 O477 1.247 . S
C484 O478 1.261 . S
C485 O480 1.259 . S
C485 O482 1.235 . S
O486 Co476 2.021 . S
O486 C483 1.238 . S
O487 Co481 2.052 . S
O487 C483 1.241 . S
O488 Co476 2.137 . S
O488 C479 1.247 . S
O489 Co476 2.244 . S
O489 C479 1.272 . S
O489 Co481 2.135 . S
Co490 O491 2.216 . S
Co490 O492 2.091 . S
Co490 O494 2.004 . S
Co490 O500 2.021 . S
Co490 O502 2.137 . S
Co490 O503 2.244 . S
O491 Co490 2.216 . S
O491 C498 1.247 . S
O492 Co490 2.091 . S
O492 C498 1.261 . S
C493 O502 1.247 . S
C493 O503 1.272 . S
O494 Co490 2.004 . S
O494 C499 1.259 . S
Co495 O496 2.061 . S
Co495 O501 2.052 . S
Co495 O503 2.135 . S
O496 Co495 2.061 . S
O496 C499 1.235 . S
C497 O500 1.238 . S
C497 O501 1.241 . S
C498 O491 1.247 . S
C498 O492 1.261 . S
C499 O494 1.259 . S
C499 O496 1.235 . S
O500 Co490 2.021 . S
O500 C497 1.238 . S
O501 Co495 2.052 . S
O501 C497 1.241 . S
O502 Co490 2.137 . S
O502 C493 1.247 . S
O503 Co490 2.244 . S
O503 C493 1.272 . S
O503 Co495 2.135 . S
Co504 O505 2.216 . S
Co504 O506 2.091 . S
Co504 O508 2.004 . S
Co504 O514 2.021 . S
Co504 O516 2.137 . S
Co504 O517 2.244 . S
O505 Co504 2.216 . S
O505 C512 1.247 . S
O506 Co504 2.091 . S
O506 C512 1.261 . S
C507 O516 1.247 . S
C507 O517 1.272 . S
O508 Co504 2.004 . S
O508 C513 1.259 . S
Co509 O510 2.061 . S
Co509 O515 2.052 . S
Co509 O517 2.135 . S
O510 Co509 2.061 . S
O510 C513 1.235 . S
C511 O514 1.238 . S
C511 O515 1.241 . S
C512 O505 1.247 . S
C512 O506 1.261 . S
C513 O508 1.259 . S
C513 O510 1.235 . S
O514 Co504 2.021 . S
O514 C511 1.238 . S
O515 Co509 2.052 . S
O515 C511 1.241 . S
O516 Co504 2.137 . S
O516 C507 1.247 . S
O517 Co504 2.244 . S
O517 C507 1.272 . S
O517 Co509 2.135 . S
Co518 O519 2.216 . S
Co518 O520 2.091 . S
Co518 O522 2.004 . S
Co518 O528 2.021 . S
Co518 O530 2.137 . S
Co518 O531 2.244 . S
O519 Co518 2.216 . S
O519 C526 1.247 . S
O520 Co518 2.091 . S
O520 C526 1.261 . S
C521 O530 1.247 . S
C521 O531 1.272 . S
O522 Co518 2.004 . S
O522 C527 1.259 . S
Co523 O524 2.061 . S
Co523 O529 2.052 . S
Co523 O531 2.135 . S
O524 Co523 2.061 . S
O524 C527 1.235 . S
C525 O528 1.238 . S
C525 O529 1.241 . S
C526 O519 1.247 . S
C526 O520 1.261 . S
C527 O522 1.259 . S
C527 O524 1.235 . S
O528 Co518 2.021 . S
O528 C525 1.238 . S
O529 Co523 2.052 . S
O529 C525 1.241 . S
O530 Co518 2.137 . S
O530 C521 1.247 . S
O531 Co518 2.244 . S
O531 C521 1.272 . S
O531 Co523 2.135 . S
Co532 O533 2.216 . S
Co532 O534 2.091 . S
Co532 O536 2.004 . S
Co532 O542 2.021 . S
Co532 O544 2.137 . S
Co532 O545 2.244 . S
O533 Co532 2.216 . S
O533 C540 1.247 . S
O534 Co532 2.091 . S
O534 C540 1.261 . S
C535 O544 1.247 . S
C535 O545 1.272 . S
O536 Co532 2.004 . S
O536 C541 1.259 . S
Co537 O538 2.061 . S
Co537 O543 2.052 . S
Co537 O545 2.135 . S
O538 Co537 2.061 . S
O538 C541 1.235 . S
C539 O542 1.238 . S
C539 O543 1.241 . S
C540 O533 1.247 . S
C540 O534 1.261 . S
C541 O536 1.259 . S
C541 O538 1.235 . S
O542 Co532 2.021 . S
O542 C539 1.238 . S
O543 Co537 2.052 . S
O543 C539 1.241 . S
O544 Co532 2.137 . S
O544 C535 1.247 . S
O545 Co532 2.244 . S
O545 C535 1.272 . S
O545 Co537 2.135 . S
Co546 O547 2.216 . S
Co546 O548 2.091 . S
Co546 O550 2.004 . S
Co546 O556 2.021 . S
Co546 O558 2.137 . S
Co546 O559 2.244 . S
O547 Co546 2.216 . S
O547 C554 1.247 . S
O548 Co546 2.091 . S
O548 C554 1.261 . S
C549 O558 1.247 . S
C549 O559 1.272 . S
O550 Co546 2.004 . S
O550 C555 1.259 . S
Co551 O552 2.061 . S
Co551 O557 2.052 . S
Co551 O559 2.135 . S
O552 Co551 2.061 . S
O552 C555 1.235 . S
C553 O556 1.238 . S
C553 O557 1.241 . S
C554 O547 1.247 . S
C554 O548 1.261 . S
C555 O550 1.259 . S
C555 O552 1.235 . S
O556 Co546 2.021 . S
O556 C553 1.238 . S
O557 Co551 2.052 . S
O557 C553 1.241 . S
O558 Co546 2.137 . S
O558 C549 1.247 . S
O559 Co546 2.244 . S
O559 C549 1.272 . S
O559 Co551 2.135 . S
Co560 O561 2.216 . S
Co560 O562 2.091 . S
Co560 O564 2.004 . S
Co560 O570 2.021 . S
Co560 O572 2.137 . S
Co560 O573 2.244 . S
O561 Co560 2.216 . S
O561 C568 1.247 . S
O562 Co560 2.091 . S
O562 C568 1.261 . S
C563 O572 1.247 . S
C563 O573 1.272 . S
O564 Co560 2.004 . S
O564 C569 1.259 . S
Co565 O566 2.061 . S
Co565 O571 2.052 . S
Co565 O573 2.135 . S
O566 Co565 2.061 . S
O566 C569 1.235 . S
C567 O570 1.238 . S
C567 O571 1.241 . S
C568 O561 1.247 . S
C568 O562 1.261 . S
C569 O564 1.259 . S
C569 O566 1.235 . S
O570 Co560 2.021 . S
O570 C567 1.238 . S
O571 Co565 2.052 . S
O571 C567 1.241 . S
O572 Co560 2.137 . S
O572 C563 1.247 . S
O573 Co560 2.244 . S
O573 C563 1.272 . S
O573 Co565 2.135 . S
Co574 O575 2.216 . S
Co574 O576 2.091 . S
Co574 O578 2.004 . S
Co574 O584 2.021 . S
Co574 O586 2.137 . S
Co574 O587 2.244 . S
O575 Co574 2.216 . S
O575 C582 1.247 . S
O576 Co574 2.091 . S
O576 C582 1.261 . S
C577 O586 1.247 . S
C577 O587 1.272 . S
O578 Co574 2.004 . S
O578 C583 1.259 . S
Co579 O580 2.061 . S
Co579 O585 2.052 . S
Co579 O587 2.135 . S
O580 Co579 2.061 . S
O580 C583 1.235 . S
C581 O584 1.238 . S
C581 O585 1.241 . S
C582 O575 1.247 . S
C582 O576 1.261 . S
C583 O578 1.259 . S
C583 O580 1.235 . S
O584 Co574 2.021 . S
O584 C581 1.238 . S
O585 Co579 2.052 . S
O585 C581 1.241 . S
O586 Co574 2.137 . S
O586 C577 1.247 . S
O587 Co574 2.244 . S
O587 C577 1.272 . S
O587 Co579 2.135 . S
Co588 O589 2.216 . S
Co588 O590 2.091 . S
Co588 O592 2.004 . S
Co588 O598 2.021 . S
Co588 O600 2.137 . S
Co588 O601 2.244 . S
O589 Co588 2.216 . S
O589 C596 1.247 . S
O590 Co588 2.091 . S
O590 C596 1.261 . S
C591 O600 1.247 . S
C591 O601 1.272 . S
O592 Co588 2.004 . S
O592 C597 1.259 . S
Co593 O594 2.061 . S
Co593 O599 2.052 . S
Co593 O601 2.135 . S
O594 Co593 2.061 . S
O594 C597 1.235 . S
C595 O598 1.238 . S
C595 O599 1.241 . S
C596 O589 1.247 . S
C596 O590 1.261 . S
C597 O592 1.259 . S
C597 O594 1.235 . S
O598 Co588 2.021 . S
O598 C595 1.238 . S
O599 Co593 2.052 . S
O599 C595 1.241 . S
O600 Co588 2.137 . S
O600 C591 1.247 . S
O601 Co588 2.244 . S
O601 C591 1.272 . S
O601 Co593 2.135 . S
Co602 O603 2.216 . S
Co602 O604 2.091 . S
Co602 O606 2.004 . S
Co602 O612 2.021 . S
Co602 O614 2.137 . S
Co602 O615 2.244 . S
O603 Co602 2.216 . S
O603 C610 1.247 . S
O604 Co602 2.091 . S
O604 C610 1.261 . S
C605 O614 1.247 . S
C605 O615 1.272 . S
O606 Co602 2.004 . S
O606 C611 1.259 . S
Co607 O608 2.061 . S
Co607 O613 2.052 . S
Co607 O615 2.135 . S
O608 Co607 2.061 . S
O608 C611 1.235 . S
C609 O612 1.238 . S
C609 O613 1.241 . S
C610 O603 1.247 . S
C610 O604 1.261 . S
C611 O606 1.259 . S
C611 O608 1.235 . S
O612 Co602 2.021 . S
O612 C609 1.238 . S
O613 Co607 2.052 . S
O613 C609 1.241 . S
O614 Co602 2.137 . S
O614 C605 1.247 . S
O615 Co602 2.244 . S
O615 C605 1.272 . S
O615 Co607 2.135 . S
Co616 O617 2.216 . S
Co616 O618 2.091 . S
Co616 O620 2.004 . S
Co616 O626 2.021 . S
Co616 O628 2.137 . S
Co616 O629 2.244 . S
O617 Co616 2.216 . S
O617 C624 1.247 . S
O618 Co616 2.091 . S
O618 C624 1.261 . S
C619 O628 1.247 . S
C619 O629 1.272 . S
O620 Co616 2.004 . S
O620 C625 1.259 . S
Co621 O622 2.061 . S
Co621 O627 2.052 . S
Co621 O629 2.135 . S
O622 Co621 2.061 . S
O622 C625 1.235 . S
C623 O626 1.238 . S
C623 O627 1.241 . S
C624 O617 1.247 . S
C624 O618 1.261 . S
C625 O620 1.259 . S
C625 O622 1.235 . S
O626 Co616 2.021 . S
O626 C623 1.238 . S
O627 Co621 2.052 . S
O627 C623 1.241 . S
O628 Co616 2.137 . S
O628 C619 1.247 . S
O629 Co616 2.244 . S
O629 C619 1.272 . S
O629 Co621 2.135 . S
Co630 O631 2.216 . S
Co630 O632 2.091 . S
Co630 O634 2.004 . S
Co630 O640 2.021 . S
Co630 O642 2.137 . S
Co630 O643 2.244 . S
O631 Co630 2.216 . S
O631 C638 1.247 . S
O632 Co630 2.091 . S
O632 C638 1.261 . S
C633 O642 1.247 . S
C633 O643 1.272 . S
O634 Co630 2.004 . S
O634 C639 1.259 . S
Co635 O636 2.061 . S
Co635 O641 2.052 . S
Co635 O643 2.135 . S
O636 Co635 2.061 . S
O636 C639 1.235 . S
C637 O640 1.238 . S
C637 O641 1.241 . S
C638 O631 1.247 . S
C638 O632 1.261 . S
C639 O634 1.259 . S
C639 O636 1.235 . S
O640 Co630 2.021 . S
O640 C637 1.238 . S
O641 Co635 2.052 . S
O641 C637 1.241 . S
O642 Co630 2.137 . S
O642 C633 1.247 . S
O643 Co630 2.244 . S
O643 C633 1.272 . S
O643 Co635 2.135 . S
Co644 O645 2.216 . S
Co644 O646 2.091 . S
Co644 O648 2.004 . S
Co644 O654 2.021 . S
Co644 O656 2.137 . S
Co644 O657 2.244 . S
O645 Co644 2.216 . S
O645 C652 1.247 . S
O646 Co644 2.091 . S
O646 C652 1.261 . S
C647 O656 1.247 . S
C647 O657 1.272 . S
O648 Co644 2.004 . S
O648 C653 1.259 . S
Co649 O650 2.061 . S
Co649 O655 2.052 . S
Co649 O657 2.135 . S
O650 Co649 2.061 . S
O650 C653 1.235 . S
C651 O654 1.238 . S
C651 O655 1.241 . S
C652 O645 1.247 . S
C652 O646 1.261 . S
C653 O648 1.259 . S
C653 O650 1.235 . S
O654 Co644 2.021 . S
O654 C651 1.238 . S
O655 Co649 2.052 . S
O655 C651 1.241 . S
O656 Co644 2.137 . S
O656 C647 1.247 . S
O657 Co644 2.244 . S
O657 C647 1.272 . S
O657 Co649 2.135 . S
Co658 O659 2.216 . S
Co658 O660 2.091 . S
Co658 O662 2.004 . S
Co658 O668 2.021 . S
Co658 O670 2.137 . S
Co658 O671 2.244 . S
O659 Co658 2.216 . S
O659 C666 1.247 . S
O660 Co658 2.091 . S
O660 C666 1.261 . S
C661 O670 1.247 . S
C661 O671 1.272 . S
O662 Co658 2.004 . S
O662 C667 1.259 . S
Co663 O664 2.061 . S
Co663 O669 2.052 . S
Co663 O671 2.135 . S
O664 Co663 2.061 . S
O664 C667 1.235 . S
C665 O668 1.238 . S
C665 O669 1.241 . S
C666 O659 1.247 . S
C666 O660 1.261 . S
C667 O662 1.259 . S
C667 O664 1.235 . S
O668 Co658 2.021 . S
O668 C665 1.238 . S
O669 Co663 2.052 . S
O669 C665 1.241 . S
O670 Co658 2.137 . S
O670 C661 1.247 . S
O671 Co658 2.244 . S
O671 C661 1.272 . S
O671 Co663 2.135 . S
C672 C673 1.369 . S
C672 C674 1.419 . S
C672 H676 0.930 . S
C673 C672 1.369 . S
C673 C682 1.429 . S
C674 C672 1.419 . S
C674 C675 1.363 . S
C674 H677 0.929 . S
C675 C674 1.363 . S
C675 C681 1.428 . S
H676 C672 0.930 . S
H677 C674 0.929 . S
S678 N679 1.613 . S
S678 N680 1.610 . S
N679 S678 1.613 . S
N679 C682 1.350 . S
N680 S678 1.610 . S
N680 C681 1.351 . S
C681 C675 1.428 . S
C681 N680 1.351 . S
C681 C682 1.434 . S
C682 C673 1.429 . S
C682 N679 1.350 . S
C682 C681 1.434 . S
C683 C684 1.369 1_655 S
C683 C685 1.419 . S
C683 H687 0.930 . S
C684 C683 1.369 1_455 S
C684 C693 1.430 . S
C685 C683 1.419 . S
C685 C686 1.363 . S
C685 H688 0.929 . S
C686 C685 1.363 . S
C686 C692 1.428 . S
H687 C683 0.930 . S
H688 C685 0.929 . S
S689 N690 1.613 1_655 S
S689 N691 1.610 . S
N690 S689 1.613 1_455 S
N690 C693 1.353 . S
N691 S689 1.610 . S
N691 C692 1.351 . S
C692 C686 1.428 . S
C692 N691 1.351 . S
C692 C693 1.429 1_655 S
C693 C684 1.430 . S
C693 N690 1.353 . S
C693 C692 1.429 1_455 S
C694 C695 1.369 . S
C694 C696 1.419 . S
C694 H698 0.930 . S
C695 C694 1.369 . S
C695 C704 1.429 . S
C696 C694 1.419 . S
C696 C697 1.363 . S
C696 H699 0.929 . S
C697 C696 1.363 . S
C697 C703 1.428 . S
H698 C694 0.930 . S
H699 C696 0.929 . S
S700 N701 1.613 . S
S700 N702 1.610 . S
N701 S700 1.613 . S
N701 C704 1.350 . S
N702 S700 1.610 . S
N702 C703 1.351 . S
C703 C697 1.428 . S
C703 N702 1.351 . S
C703 C704 1.434 . S
C704 C695 1.429 . S
C704 N701 1.350 . S
C704 C703 1.434 . S
C705 C706 1.369 . S
C705 C707 1.419 . S
C705 H709 0.930 . S
C706 C705 1.369 . S
C706 C715 1.429 . S
C707 C705 1.419 . S
C707 C708 1.363 . S
C707 H710 0.929 . S
C708 C707 1.363 . S
C708 C714 1.428 . S
H709 C705 0.930 . S
H710 C707 0.929 . S
S711 N712 1.613 . S
S711 N713 1.610 . S
N712 S711 1.613 . S
N712 C715 1.350 . S
N713 S711 1.610 . S
N713 C714 1.351 . S
C714 C708 1.428 . S
C714 N713 1.351 . S
C714 C715 1.434 . S
C715 C706 1.429 . S
C715 N712 1.350 . S
C715 C714 1.434 . S
C716 C717 1.369 . S
C716 C718 1.419 . S
C716 H720 0.930 . S
C717 C716 1.369 . S
C717 C726 1.429 . S
C718 C716 1.419 . S
C718 C719 1.363 . S
C718 H721 0.929 . S
C719 C718 1.363 . S
C719 C725 1.428 . S
H720 C716 0.930 . S
H721 C718 0.929 . S
S722 N723 1.613 . S
S722 N724 1.610 . S
N723 S722 1.613 . S
N723 C726 1.350 . S
N724 S722 1.610 . S
N724 C725 1.351 . S
C725 C719 1.428 . S
C725 N724 1.351 . S
C725 C726 1.434 . S
C726 C717 1.429 . S
C726 N723 1.350 . S
C726 C725 1.434 . S
C727 C728 1.369 . S
C727 C729 1.419 . S
C727 H731 0.930 . S
C728 C727 1.369 . S
C728 C737 1.429 . S
C729 C727 1.419 . S
C729 C730 1.363 . S
C729 H732 0.929 . S
C730 C729 1.363 . S
C730 C736 1.428 . S
H731 C727 0.930 . S
H732 C729 0.929 . S
S733 N734 1.613 . S
S733 N735 1.610 . S
N734 S733 1.613 . S
N734 C737 1.350 . S
N735 S733 1.610 . S
N735 C736 1.351 . S
C736 C730 1.428 . S
C736 N735 1.351 . S
C736 C737 1.434 . S
C737 C728 1.429 . S
C737 N734 1.350 . S
C737 C736 1.434 . S
C738 C739 1.369 . S
C738 C740 1.419 . S
C738 H742 0.930 . S
C739 C738 1.369 . S
C739 C748 1.429 . S
C740 C738 1.419 . S
C740 C741 1.363 . S
C740 H743 0.929 . S
C741 C740 1.363 . S
C741 C747 1.428 . S
H742 C738 0.930 . S
H743 C740 0.929 . S
S744 N745 1.613 . S
S744 N746 1.610 . S
N745 S744 1.613 . S
N745 C748 1.350 . S
N746 S744 1.610 . S
N746 C747 1.351 . S
C747 C741 1.428 . S
C747 N746 1.351 . S
C747 C748 1.434 . S
C748 C739 1.429 . S
C748 N745 1.350 . S
C748 C747 1.434 . S
C749 C750 1.369 1_655 S
C749 C751 1.419 . S
C749 H753 0.936 . S
C750 C749 1.369 1_455 S
C750 C759 1.429 1_455 S
C751 C749 1.419 . S
C751 C752 1.363 . S
C751 H754 0.929 . S
C752 C751 1.363 . S
C752 C758 1.428 . S
H753 C749 0.936 . S
H754 C751 0.929 . S
S755 N756 1.613 1_655 S
S755 N757 1.610 . S
N756 S755 1.613 1_455 S
N756 C759 1.350 1_455 S
N757 S755 1.610 . S
N757 C758 1.351 . S
C758 C752 1.428 . S
C758 N757 1.351 . S
C758 C759 1.434 . S
C759 C750 1.429 1_655 S
C759 N756 1.350 1_655 S
C759 C758 1.434 . S
C760 C761 1.369 . S
C760 C762 1.419 . S
C760 H764 0.930 . S
C761 C760 1.369 . S
C761 C770 1.429 . S
C762 C760 1.419 . S
C762 C763 1.363 . S
C762 H765 0.929 . S
C763 C762 1.363 . S
C763 C769 1.428 . S
H764 C760 0.930 . S
H765 C762 0.929 . S
S766 N767 1.613 . S
S766 N768 1.610 . S
N767 S766 1.613 . S
N767 C770 1.350 . S
N768 S766 1.610 . S
N768 C769 1.351 . S
C769 C763 1.428 . S
C769 N768 1.351 . S
C769 C770 1.434 . S
C770 C761 1.429 . S
C770 N767 1.350 . S
C770 C769 1.434 . S
C771 C772 1.369 . S
C771 C773 1.419 . S
C771 H775 0.930 . S
C772 C771 1.369 . S
C772 C781 1.429 . S
C773 C771 1.419 . S
C773 C774 1.363 . S
C773 H776 0.929 . S
C774 C773 1.363 . S
C774 C780 1.428 . S
H775 C771 0.930 . S
H776 C773 0.929 . S
S777 N778 1.613 . S
S777 N779 1.610 . S
N778 S777 1.613 . S
N778 C781 1.350 . S
N779 S777 1.610 . S
N779 C780 1.351 . S
C780 C774 1.428 . S
C780 N779 1.351 . S
C780 C781 1.434 . S
C781 C772 1.429 . S
C781 N778 1.350 . S
C781 C780 1.434 . S
C782 C783 1.369 . S
C782 C784 1.419 . S
C782 H786 0.930 . S
C783 C782 1.369 . S
C783 C792 1.429 . S
C784 C782 1.419 . S
C784 C785 1.363 . S
C784 H787 0.929 . S
C785 C784 1.363 . S
C785 C791 1.428 . S
H786 C782 0.930 . S
H787 C784 0.929 . S
S788 N789 1.613 . S
S788 N790 1.610 . S
N789 S788 1.613 . S
N789 C792 1.350 . S
N790 S788 1.610 . S
N790 C791 1.351 . S
C791 C785 1.428 . S
C791 N790 1.351 . S
C791 C792 1.434 . S
C792 C783 1.429 . S
C792 N789 1.350 . S
C792 C791 1.434 . S
C793 C794 1.369 1_554 S
C793 C795 1.419 . S
C793 H797 0.925 1_554 S
C794 C793 1.369 1_556 S
C794 C803 1.429 . S
C795 C793 1.419 . S
C795 C796 1.363 . S
C795 H798 0.929 . S
C796 C795 1.363 . S
C796 C802 1.428 . S
H797 C793 0.925 1_556 S
H798 C795 0.929 . S
S799 N800 1.613 1_554 S
S799 N801 1.610 . S
N800 S799 1.613 1_556 S
N800 C803 1.350 . S
N801 S799 1.610 . S
N801 C802 1.351 . S
C802 C796 1.428 . S
C802 N801 1.351 . S
C802 C803 1.434 1_554 S
C803 C794 1.429 . S
C803 N800 1.350 . S
C803 C802 1.434 1_556 S
C804 C805 1.369 . S
C804 C806 1.419 . S
C804 H808 0.930 . S
C805 C804 1.369 . S
C805 C814 1.429 . S
C806 C804 1.419 . S
C806 C807 1.363 . S
C806 H809 0.929 . S
C807 C806 1.363 . S
C807 C813 1.428 . S
H808 C804 0.930 . S
H809 C806 0.929 . S
S810 N811 1.613 . S
S810 N812 1.610 . S
N811 S810 1.613 . S
N811 C814 1.350 . S
N812 S810 1.610 . S
N812 C813 1.351 . S
C813 C807 1.428 . S
C813 N812 1.351 . S
C813 C814 1.434 . S
C814 C805 1.429 . S
C814 N811 1.350 . S
C814 C813 1.434 . S
C815 C816 1.369 . S
C815 C817 1.419 . S
C815 H819 0.930 . S
C816 C815 1.369 . S
C816 C825 1.429 . S
C817 C815 1.419 . S
C817 C818 1.363 . S
C817 H820 0.929 . S
C818 C817 1.363 . S
C818 C824 1.428 . S
H819 C815 0.930 . S
H820 C817 0.929 . S
S821 N822 1.613 . S
S821 N823 1.610 . S
N822 S821 1.613 . S
N822 C825 1.350 . S
N823 S821 1.610 . S
N823 C824 1.351 . S
C824 C818 1.428 . S
C824 N823 1.351 . S
C824 C825 1.434 . S
C825 C816 1.429 . S
C825 N822 1.350 . S
C825 C824 1.434 . S
C826 C827 1.369 . S
C826 C828 1.419 . S
C826 H830 0.930 . S
C827 C826 1.369 . S
C827 C836 1.429 . S
C828 C826 1.419 . S
C828 C829 1.363 . S
C828 H831 0.929 . S
C829 C828 1.363 . S
C829 C835 1.428 . S
H830 C826 0.930 . S
H831 C828 0.929 . S
S832 N833 1.613 . S
S832 N834 1.610 . S
N833 S832 1.613 . S
N833 C836 1.350 . S
N834 S832 1.610 . S
N834 C835 1.351 . S
C835 C829 1.428 . S
C835 N834 1.351 . S
C835 C836 1.434 . S
C836 C827 1.429 . S
C836 N833 1.350 . S
C836 C835 1.434 . S
C837 C838 1.369 . S
C837 C839 1.419 1_554 S
C837 H841 0.930 . S
C838 C837 1.369 . S
C838 C847 1.429 1_554 S
C839 C837 1.419 1_556 S
C839 C840 1.363 . S
C839 H842 0.929 . S
C840 C839 1.363 . S
C840 C846 1.428 . S
H841 C837 0.930 . S
H842 C839 0.929 . S
S843 N844 1.590 1_556 S
S843 N845 1.610 . S
N844 S843 1.590 1_554 S
N844 C847 1.345 1_554 S
N845 S843 1.610 . S
N845 C846 1.351 . S
C846 C840 1.428 . S
C846 N845 1.351 . S
C846 C847 1.434 . S
C847 C838 1.429 1_556 S
C847 N844 1.345 1_556 S
C847 C846 1.434 . S
C848 C849 1.369 . S
C848 C850 1.419 . S
C848 H852 0.930 . S
C849 C848 1.369 . S
C849 C858 1.429 . S
C850 C848 1.419 . S
C850 C851 1.363 . S
C850 H853 0.929 . S
C851 C850 1.363 . S
C851 C857 1.428 . S
H852 C848 0.930 . S
H853 C850 0.929 . S
S854 N855 1.613 . S
S854 N856 1.610 . S
N855 S854 1.613 . S
N855 C858 1.350 . S
N856 S854 1.610 . S
N856 C857 1.351 . S
C857 C851 1.428 . S
C857 N856 1.351 . S
C857 C858 1.434 . S
C858 C849 1.429 . S
C858 N855 1.350 . S
C858 C857 1.434 . S
C859 C860 1.369 . S
C859 C861 1.419 . S
C859 H863 0.930 . S
C860 C859 1.369 . S
C860 C869 1.429 . S
C861 C859 1.419 . S
C861 C862 1.363 . S
C861 H864 0.929 . S
C862 C861 1.363 . S
C862 C868 1.428 . S
H863 C859 0.930 . S
H864 C861 0.929 . S
S865 N866 1.613 . S
S865 N867 1.610 . S
N866 S865 1.613 . S
N866 C869 1.350 . S
N867 S865 1.610 . S
N867 C868 1.351 . S
C868 C862 1.428 . S
C868 N867 1.351 . S
C868 C869 1.434 . S
C869 C860 1.429 . S
C869 N866 1.350 . S
C869 C868 1.434 . S
C870 C871 1.369 . S
C870 C872 1.419 . S
C870 H874 0.930 . S
C871 C870 1.369 . S
C871 C880 1.429 . S
C872 C870 1.419 . S
C872 C873 1.363 . S
C872 H875 0.929 . S
C873 C872 1.363 . S
C873 C879 1.428 . S
H874 C870 0.930 . S
H875 C872 0.929 . S
S876 N877 1.613 . S
S876 N878 1.610 . S
N877 S876 1.613 . S
N877 C880 1.350 . S
N878 S876 1.610 . S
N878 C879 1.351 . S
C879 C873 1.428 . S
C879 N878 1.351 . S
C879 C880 1.434 . S
C880 C871 1.429 . S
C880 N877 1.350 . S
C880 C879 1.434 . S
C881 C882 1.369 . S
C881 C883 1.419 . S
C881 H885 0.930 . S
C882 C881 1.369 . S
C882 C891 1.429 . S
C883 C881 1.419 . S
C883 C884 1.363 . S
C883 H886 0.929 . S
C884 C883 1.363 . S
C884 C890 1.428 . S
H885 C881 0.930 . S
H886 C883 0.929 . S
S887 N888 1.613 . S
S887 N889 1.610 . S
N888 S887 1.613 . S
N888 C891 1.350 . S
N889 S887 1.610 . S
N889 C890 1.351 . S
C890 C884 1.428 . S
C890 N889 1.351 . S
C890 C891 1.434 . S
C891 C882 1.429 . S
C891 N888 1.350 . S
C891 C890 1.434 . S
C892 C893 1.369 . S
C892 C894 1.419 . S
C892 H896 0.930 . S
C893 C892 1.369 . S
C893 C902 1.429 . S
C894 C892 1.419 . S
C894 C895 1.363 1_565 S
C894 H897 0.929 1_565 S
C895 C894 1.363 1_545 S
C895 C901 1.428 1_545 S
H896 C892 0.930 . S
H897 C894 0.929 1_545 S
S898 N899 1.613 . S
S898 N900 1.595 1_565 S
N899 S898 1.613 . S
N899 C902 1.350 . S
N900 S898 1.595 1_545 S
N900 C901 1.345 1_545 S
C901 C895 1.428 1_565 S
C901 N900 1.345 1_565 S
C901 C902 1.434 . S
C902 C893 1.429 . S
C902 N899 1.350 . S
C902 C901 1.434 . S
C903 C904 1.369 . S
C903 C905 1.419 . S
C903 H907 0.930 . S
C904 C903 1.369 . S
C904 C913 1.429 . S
C905 C903 1.419 . S
C905 C906 1.363 . S
C905 H908 0.929 . S
C906 C905 1.363 . S
C906 C912 1.428 . S
H907 C903 0.930 . S
H908 C905 0.929 . S
S909 N910 1.613 . S
S909 N911 1.610 . S
N910 S909 1.613 . S
N910 C913 1.350 . S
N911 S909 1.610 . S
N911 C912 1.351 . S
C912 C906 1.428 . S
C912 N911 1.351 . S
C912 C913 1.434 . S
C913 C904 1.429 . S
C913 N910 1.350 . S
C913 C912 1.434 . S
C914 C915 1.369 . S
C914 C916 1.419 . S
C914 H918 0.930 . S
C915 C914 1.369 . S
C915 C924 1.429 . S
C916 C914 1.419 . S
C916 C917 1.363 . S
C916 H919 0.929 . S
C917 C916 1.363 . S
C917 C923 1.428 . S
H918 C914 0.930 . S
H919 C916 0.929 . S
S920 N921 1.613 . S
S920 N922 1.610 . S
N921 S920 1.613 . S
N921 C924 1.350 . S
N922 S920 1.610 . S
N922 C923 1.351 . S
C923 C917 1.428 . S
C923 N922 1.351 . S
C923 C924 1.434 . S
C924 C915 1.429 . S
C924 N921 1.350 . S
C924 C923 1.434 . S
C925 C926 1.369 . S
C925 C927 1.419 . S
C925 H929 0.930 . S
C926 C925 1.369 . S
C926 C935 1.429 . S
C927 C925 1.419 . S
C927 C928 1.363 . S
C927 H930 0.929 . S
C928 C927 1.363 . S
C928 C934 1.428 . S
H929 C925 0.930 . S
H930 C927 0.929 . S
S931 N932 1.613 . S
S931 N933 1.610 . S
N932 S931 1.613 . S
N932 C935 1.350 . S
N933 S931 1.610 . S
N933 C934 1.351 . S
C934 C928 1.428 . S
C934 N933 1.351 . S
C934 C935 1.434 . S
C935 C926 1.429 . S
C935 N932 1.350 . S
C935 C934 1.434 . S
C936 C937 1.369 . S
C936 C938 1.419 . S
C936 H940 0.930 . S
C937 C936 1.369 . S
C937 C946 1.429 . S
C938 C936 1.419 . S
C938 C939 1.363 . S
C938 H941 0.929 . S
C939 C938 1.363 . S
C939 C945 1.428 . S
H940 C936 0.930 . S
H941 C938 0.929 . S
S942 N943 1.613 . S
S942 N944 1.610 . S
N943 S942 1.613 . S
N943 C946 1.350 . S
N944 S942 1.610 . S
N944 C945 1.351 . S
C945 C939 1.428 . S
C945 N944 1.351 . S
C945 C946 1.434 . S
C946 C937 1.429 . S
C946 N943 1.350 . S
C946 C945 1.434 . S
C947 C948 1.369 . S
C947 C949 1.419 1_655 S
C947 H951 0.930 . S
C948 C947 1.369 . S
C948 C957 1.408 1_655 S
C949 C947 1.419 1_455 S
C949 C950 1.363 . S
C949 H952 0.929 . S
C950 C949 1.363 . S
C950 C956 1.428 . S
H951 C947 0.930 . S
H952 C949 0.929 . S
S953 N954 1.613 1_455 S
S953 N955 1.610 . S
N954 S953 1.613 1_655 S
N954 C957 1.341 1_655 S
N955 S953 1.610 . S
N955 C956 1.351 . S
C956 C950 1.428 . S
C956 N955 1.351 . S
C956 C957 1.467 . S
C957 C948 1.408 1_455 S
C957 N954 1.341 1_455 S
C957 C956 1.467 . S
C958 C959 1.369 . S
C958 C960 1.419 . S
C958 H962 0.930 . S
C959 C958 1.369 . S
C959 C968 1.429 . S
C960 C958 1.419 . S
C960 C961 1.363 . S
C960 H963 0.929 . S
C961 C960 1.363 . S
C961 C967 1.428 . S
H962 C958 0.930 . S
H963 C960 0.929 . S
S964 N965 1.613 . S
S964 N966 1.610 . S
N965 S964 1.613 . S
N965 C968 1.350 . S
N966 S964 1.610 . S
N966 C967 1.351 . S
C967 C961 1.428 . S
C967 N966 1.351 . S
C967 C968 1.434 . S
C968 C959 1.429 . S
C968 N965 1.350 . S
C968 C967 1.434 . S
C969 C970 1.369 . S
C969 C971 1.419 . S
C969 H973 0.930 . S
C970 C969 1.369 . S
C970 C979 1.429 . S
C971 C969 1.419 . S
C971 C972 1.363 . S
C971 H974 0.929 . S
C972 C971 1.363 . S
C972 C978 1.428 . S
H973 C969 0.930 . S
H974 C971 0.929 . S
S975 N976 1.613 . S
S975 N977 1.610 . S
N976 S975 1.613 . S
N976 C979 1.350 . S
N977 S975 1.610 . S
N977 C978 1.351 . S
C978 C972 1.428 . S
C978 N977 1.351 . S
C978 C979 1.434 . S
C979 C970 1.429 . S
C979 N976 1.350 . S
C979 C978 1.434 . S
C980 C981 1.369 . S
C980 C982 1.419 . S
C980 H984 0.930 . S
C981 C980 1.369 . S
C981 C990 1.429 . S
C982 C980 1.419 . S
C982 C983 1.363 . S
C982 H985 0.929 . S
C983 C982 1.363 . S
C983 C989 1.428 . S
H984 C980 0.930 . S
H985 C982 0.929 . S
S986 N987 1.613 . S
S986 N988 1.610 . S
N987 S986 1.613 . S
N987 C990 1.350 . S
N988 S986 1.610 . S
N988 C989 1.351 . S
C989 C983 1.428 . S
C989 N988 1.351 . S
C989 C990 1.434 . S
C990 C981 1.429 . S
C990 N987 1.350 . S
C990 C989 1.434 . S
C991 C992 1.369 . S
C991 C993 1.419 . S
C991 H995 0.930 . S
C992 C991 1.369 . S
C992 C1001 1.429 . S
C993 C991 1.419 . S
C993 C994 1.363 . S
C993 H996 0.929 . S
C994 C993 1.363 . S
C994 C1000 1.428 . S
H995 C991 0.930 . S
H996 C993 0.929 . S
S997 N998 1.613 . S
S997 N999 1.610 . S
N998 S997 1.613 . S
N998 C1001 1.350 . S
N999 S997 1.610 . S
N999 C1000 1.351 . S
C1000 C994 1.428 . S
C1000 N999 1.351 . S
C1000 C1001 1.434 . S
C1001 C992 1.429 . S
C1001 N998 1.350 . S
C1001 C1000 1.434 . S
C1002 C1003 1.369 . S
C1002 C1004 1.419 . S
C1002 H1006 0.930 . S
C1003 C1002 1.369 . S
C1003 C1012 1.429 . S
C1004 C1002 1.419 . S
C1004 C1005 1.363 . S
C1004 H1007 0.929 . S
C1005 C1004 1.363 . S
C1005 C1011 1.428 . S
H1006 C1002 0.930 . S
H1007 C1004 0.929 . S
S1008 N1009 1.613 . S
S1008 N1010 1.610 . S
N1009 S1008 1.613 . S
N1009 C1012 1.350 . S
N1010 S1008 1.610 . S
N1010 C1011 1.351 . S
C1011 C1005 1.428 . S
C1011 N1010 1.351 . S
C1011 C1012 1.434 . S
C1012 C1003 1.429 . S
C1012 N1009 1.350 . S
C1012 C1011 1.434 . S
C1013 C1014 1.369 . S
C1013 C1015 1.390 1_455 S
C1013 H1017 0.930 . S
C1014 C1013 1.369 . S
C1014 C1023 1.429 . S
C1015 C1013 1.390 1_655 S
C1015 C1016 1.377 . S
C1015 H1018 0.945 . S
C1016 C1015 1.377 . S
C1016 C1022 1.428 1_655 S
H1017 C1013 0.930 . S
H1018 C1015 0.945 . S
S1019 N1020 1.613 . S
S1019 N1021 1.610 1_455 S
N1020 S1019 1.613 . S
N1020 C1023 1.350 . S
N1021 S1019 1.610 1_655 S
N1021 C1022 1.351 1_655 S
C1022 C1016 1.428 1_455 S
C1022 N1021 1.351 1_455 S
C1022 C1023 1.434 . S
C1023 C1014 1.429 . S
C1023 N1020 1.350 . S
C1023 C1022 1.434 . S
C1024 C1025 1.369 . S
C1024 C1026 1.419 . S
C1024 H1028 0.930 . S
C1025 C1024 1.369 . S
C1025 C1034 1.429 . S
C1026 C1024 1.419 . S
C1026 C1027 1.363 . S
C1026 H1029 0.929 . S
C1027 C1026 1.363 . S
C1027 C1033 1.428 . S
H1028 C1024 0.930 . S
H1029 C1026 0.929 . S
S1030 N1031 1.613 . S
S1030 N1032 1.610 . S
N1031 S1030 1.613 . S
N1031 C1034 1.350 . S
N1032 S1030 1.610 . S
N1032 C1033 1.351 . S
C1033 C1027 1.428 . S
C1033 N1032 1.351 . S
C1033 C1034 1.434 . S
C1034 C1025 1.429 . S
C1034 N1031 1.350 . S
C1034 C1033 1.434 . S
C1035 C1036 1.369 . S
C1035 C1037 1.419 . S
C1035 H1039 0.930 . S
C1036 C1035 1.369 . S
C1036 C1045 1.429 . S
C1037 C1035 1.419 . S
C1037 C1038 1.363 . S
C1037 H1040 0.929 . S
C1038 C1037 1.363 . S
C1038 C1044 1.428 . S
H1039 C1035 0.930 . S
H1040 C1037 0.929 . S
S1041 N1042 1.613 . S
S1041 N1043 1.610 . S
N1042 S1041 1.613 . S
N1042 C1045 1.350 . S
N1043 S1041 1.610 . S
N1043 C1044 1.351 . S
C1044 C1038 1.428 . S
C1044 N1043 1.351 . S
C1044 C1045 1.434 . S
C1045 C1036 1.429 . S
C1045 N1042 1.350 . S
C1045 C1044 1.434 . S
C1046 C1047 1.369 . S
C1046 C1048 1.419 . S
C1046 H1050 0.930 . S
C1047 C1046 1.369 . S
C1047 C1056 1.429 . S
C1048 C1046 1.419 . S
C1048 C1049 1.363 . S
C1048 H1051 0.929 . S
C1049 C1048 1.363 . S
C1049 C1055 1.428 . S
H1050 C1046 0.930 . S
H1051 C1048 0.929 . S
S1052 N1053 1.613 . S
S1052 N1054 1.610 . S
N1053 S1052 1.613 . S
N1053 C1056 1.350 . S
N1054 S1052 1.610 . S
N1054 C1055 1.351 . S
C1055 C1049 1.428 . S
C1055 N1054 1.351 . S
C1055 C1056 1.434 . S
C1056 C1047 1.429 . S
C1056 N1053 1.350 . S
C1056 C1055 1.434 . S
C1057 C1058 1.369 . S
C1057 C1059 1.419 . S
C1057 H1061 0.930 . S
C1058 C1057 1.369 . S
C1058 C1067 1.429 . S
C1059 C1057 1.419 . S
C1059 C1060 1.363 1_556 S
C1059 H1062 0.929 1_556 S
C1060 C1059 1.363 1_554 S
C1060 C1066 1.428 1_554 S
H1061 C1057 0.930 . S
H1062 C1059 0.929 1_554 S
S1063 N1064 1.613 . S
S1063 N1065 1.610 1_556 S
N1064 S1063 1.613 . S
N1064 C1067 1.350 . S
N1065 S1063 1.610 1_554 S
N1065 C1066 1.351 1_554 S
C1066 C1060 1.428 1_556 S
C1066 N1065 1.351 1_556 S
C1066 C1067 1.434 . S
C1067 C1058 1.429 . S
C1067 N1064 1.350 . S
C1067 C1066 1.434 . S
C1068 C1069 1.369 . S
C1068 C1070 1.419 . S
C1068 H1072 0.930 . S
C1069 C1068 1.369 . S
C1069 C1078 1.429 . S
C1070 C1068 1.419 . S
C1070 C1071 1.363 . S
C1070 H1073 0.929 . S
C1071 C1070 1.363 . S
C1071 C1077 1.428 . S
H1072 C1068 0.930 . S
H1073 C1070 0.929 . S
S1074 N1075 1.613 . S
S1074 N1076 1.610 . S
N1075 S1074 1.613 . S
N1075 C1078 1.350 . S
N1076 S1074 1.610 . S
N1076 C1077 1.351 . S
C1077 C1071 1.428 . S
C1077 N1076 1.351 . S
C1077 C1078 1.434 . S
C1078 C1069 1.429 . S
C1078 N1075 1.350 . S
C1078 C1077 1.434 . S
C1079 C1080 1.369 . S
C1079 C1081 1.419 . S
C1079 H1083 0.930 . S
C1080 C1079 1.369 . S
C1080 C1089 1.429 . S
C1081 C1079 1.419 . S
C1081 C1082 1.363 . S
C1081 H1084 0.929 . S
C1082 C1081 1.363 . S
C1082 C1088 1.428 . S
H1083 C1079 0.930 . S
H1084 C1081 0.929 . S
S1085 N1086 1.613 . S
S1085 N1087 1.610 . S
N1086 S1085 1.613 . S
N1086 C1089 1.350 . S
N1087 S1085 1.610 . S
N1087 C1088 1.351 . S
C1088 C1082 1.428 . S
C1088 N1087 1.351 . S
C1088 C1089 1.434 . S
C1089 C1080 1.429 . S
C1089 N1086 1.350 . S
C1089 C1088 1.434 . S
C1090 C1091 1.369 . S
C1090 C1092 1.419 . S
C1090 H1094 0.930 . S
C1091 C1090 1.369 . S
C1091 C1100 1.429 . S
C1092 C1090 1.419 . S
C1092 C1093 1.363 . S
C1092 H1095 0.929 . S
C1093 C1092 1.363 . S
C1093 C1099 1.428 . S
H1094 C1090 0.930 . S
H1095 C1092 0.929 . S
S1096 N1097 1.613 . S
S1096 N1098 1.610 . S
N1097 S1096 1.613 . S
N1097 C1100 1.350 . S
N1098 S1096 1.610 . S
N1098 C1099 1.351 . S
C1099 C1093 1.428 . S
C1099 N1098 1.351 . S
C1099 C1100 1.434 . S
C1100 C1091 1.429 . S
C1100 N1097 1.350 . S
C1100 C1099 1.434 . S
C1101 C1102 1.369 1_554 S
C1101 C1103 1.419 . S
C1101 H1105 0.930 1_554 S
C1102 C1101 1.369 1_556 S
C1102 C1111 1.429 1_556 S
C1103 C1101 1.419 . S
C1103 C1104 1.363 . S
C1103 H1106 0.929 . S
C1104 C1103 1.363 . S
C1104 C1110 1.428 . S
H1105 C1101 0.930 1_556 S
H1106 C1103 0.929 . S
S1107 N1108 1.613 . S
S1107 N1109 1.610 . S
N1108 S1107 1.613 . S
N1108 C1111 1.350 . S
N1109 S1107 1.610 . S
N1109 C1110 1.351 . S
C1110 C1104 1.428 . S
C1110 N1109 1.351 . S
C1110 C1111 1.434 . S
C1111 C1102 1.429 1_554 S
C1111 N1108 1.350 . S
C1111 C1110 1.434 . S
C1112 C1113 1.369 . S
C1112 C1114 1.419 . S
C1112 H1116 0.930 . S
C1113 C1112 1.369 . S
C1113 C1122 1.429 . S
C1114 C1112 1.419 . S
C1114 C1115 1.363 . S
C1114 H1117 0.929 . S
C1115 C1114 1.363 . S
C1115 C1121 1.428 . S
H1116 C1112 0.930 . S
H1117 C1114 0.929 . S
S1118 N1119 1.613 . S
S1118 N1120 1.610 . S
N1119 S1118 1.613 . S
N1119 C1122 1.350 . S
N1120 S1118 1.610 . S
N1120 C1121 1.351 . S
C1121 C1115 1.428 . S
C1121 N1120 1.351 . S
C1121 C1122 1.434 . S
C1122 C1113 1.429 . S
C1122 N1119 1.350 . S
C1122 C1121 1.434 . S
C1123 C1124 1.369 . S
C1123 C1125 1.419 . S
C1123 H1127 0.930 . S
C1124 C1123 1.369 . S
C1124 C1133 1.429 . S
C1125 C1123 1.419 . S
C1125 C1126 1.363 . S
C1125 H1128 0.929 . S
C1126 C1125 1.363 . S
C1126 C1132 1.428 . S
H1127 C1123 0.930 . S
H1128 C1125 0.929 . S
S1129 N1130 1.613 . S
S1129 N1131 1.610 . S
N1130 S1129 1.613 . S
N1130 C1133 1.350 . S
N1131 S1129 1.610 . S
N1131 C1132 1.351 . S
C1132 C1126 1.428 . S
C1132 N1131 1.351 . S
C1132 C1133 1.434 . S
C1133 C1124 1.429 . S
C1133 N1130 1.350 . S
C1133 C1132 1.434 . S
C1134 C1135 1.369 . S
C1134 C1136 1.419 . S
C1134 H1138 0.930 . S
C1135 C1134 1.369 . S
C1135 C1144 1.429 . S
C1136 C1134 1.419 . S
C1136 C1137 1.363 . S
C1136 H1139 0.929 . S
C1137 C1136 1.363 . S
C1137 C1143 1.428 . S
H1138 C1134 0.930 . S
H1139 C1136 0.929 . S
S1140 N1141 1.613 . S
S1140 N1142 1.610 . S
N1141 S1140 1.613 . S
N1141 C1144 1.350 . S
N1142 S1140 1.610 . S
N1142 C1143 1.351 . S
C1143 C1137 1.428 . S
C1143 N1142 1.351 . S
C1143 C1144 1.434 . S
C1144 C1135 1.429 . S
C1144 N1141 1.350 . S
C1144 C1143 1.434 . S
C1145 C1146 1.369 . S
C1145 C1147 1.419 . S
C1145 H1149 0.930 . S
C1146 C1145 1.369 . S
C1146 C1155 1.429 . S
C1147 C1145 1.419 . S
C1147 C1148 1.363 . S
C1147 H1150 0.929 . S
C1148 C1147 1.363 . S
C1148 C1154 1.428 . S
H1149 C1145 0.930 . S
H1150 C1147 0.929 . S
S1151 N1152 1.613 . S
S1151 N1153 1.610 . S
N1152 S1151 1.613 . S
N1152 C1155 1.350 . S
N1153 S1151 1.610 . S
N1153 C1154 1.351 . S
C1154 C1148 1.428 . S
C1154 N1153 1.351 . S
C1154 C1155 1.434 . S
C1155 C1146 1.429 . S
C1155 N1152 1.350 . S
C1155 C1154 1.434 . S
C1156 C1157 1.369 1_545 S
C1156 C1158 1.419 . S
C1156 H1160 0.942 . S
C1157 C1156 1.369 1_565 S
C1157 C1166 1.429 1_565 S
C1158 C1156 1.419 . S
C1158 C1159 1.363 . S
C1158 H1161 0.929 . S
C1159 C1158 1.363 . S
C1159 C1165 1.428 . S
H1160 C1156 0.942 . S
H1161 C1158 0.929 . S
S1162 N1163 1.613 1_545 S
S1162 N1164 1.610 . S
N1163 S1162 1.613 1_565 S
N1163 C1166 1.350 1_565 S
N1164 S1162 1.610 . S
N1164 C1165 1.351 . S
C1165 C1159 1.428 . S
C1165 N1164 1.351 . S
C1165 C1166 1.434 . S
C1166 C1157 1.429 1_545 S
C1166 N1163 1.350 1_545 S
C1166 C1165 1.434 . S
C1167 C1168 1.369 . S
C1167 C1169 1.419 . S
C1167 H1171 0.930 . S
C1168 C1167 1.369 . S
C1168 C1177 1.429 . S
C1169 C1167 1.419 . S
C1169 C1170 1.363 . S
C1169 H1172 0.929 . S
C1170 C1169 1.363 . S
C1170 C1176 1.428 . S
H1171 C1167 0.930 . S
H1172 C1169 0.929 . S
S1173 N1174 1.613 . S
S1173 N1175 1.610 . S
N1174 S1173 1.613 . S
N1174 C1177 1.350 . S
N1175 S1173 1.610 . S
N1175 C1176 1.351 . S
C1176 C1170 1.428 . S
C1176 N1175 1.351 . S
C1176 C1177 1.434 . S
C1177 C1168 1.429 . S
C1177 N1174 1.350 . S
C1177 C1176 1.434 . S
C1178 C1179 1.369 . S
C1178 C1180 1.419 . S
C1178 H1182 0.930 . S
C1179 C1178 1.369 . S
C1179 C1188 1.429 . S
C1180 C1178 1.419 . S
C1180 C1181 1.363 . S
C1180 H1183 0.929 . S
C1181 C1180 1.363 . S
C1181 C1187 1.428 . S
H1182 C1178 0.930 . S
H1183 C1180 0.929 . S
S1184 N1185 1.613 . S
S1184 N1186 1.610 . S
N1185 S1184 1.613 . S
N1185 C1188 1.350 . S
N1186 S1184 1.610 . S
N1186 C1187 1.351 . S
C1187 C1181 1.428 . S
C1187 N1186 1.351 . S
C1187 C1188 1.434 . S
C1188 C1179 1.429 . S
C1188 N1185 1.350 . S
C1188 C1187 1.434 . S
C1189 C1190 1.369 . S
C1189 C1191 1.419 . S
C1189 H1193 0.930 . S
C1190 C1189 1.369 . S
C1190 C1199 1.429 . S
C1191 C1189 1.419 . S
C1191 C1192 1.363 . S
C1191 H1194 0.929 . S
C1192 C1191 1.363 . S
C1192 C1198 1.428 . S
H1193 C1189 0.930 . S
H1194 C1191 0.929 . S
S1195 N1196 1.613 . S
S1195 N1197 1.610 . S
N1196 S1195 1.613 . S
N1196 C1199 1.350 . S
N1197 S1195 1.610 . S
N1197 C1198 1.351 . S
C1198 C1192 1.428 . S
C1198 N1197 1.351 . S
C1198 C1199 1.434 . S
C1199 C1190 1.429 . S
C1199 N1196 1.350 . S
C1199 C1198 1.434 . S
C1200 C1201 1.369 . S
C1200 C1202 1.419 . S
C1200 H1204 0.930 . S
C1201 C1200 1.369 . S
C1201 C1210 1.429 . S
C1202 C1200 1.419 . S
C1202 C1203 1.363 . S
C1202 H1205 0.929 . S
C1203 C1202 1.363 . S
C1203 C1209 1.428 . S
H1204 C1200 0.930 . S
H1205 C1202 0.929 . S
S1206 N1207 1.613 . S
S1206 N1208 1.610 . S
N1207 S1206 1.613 . S
N1207 C1210 1.350 . S
N1208 S1206 1.610 . S
N1208 C1209 1.351 . S
C1209 C1203 1.428 . S
C1209 N1208 1.351 . S
C1209 C1210 1.434 . S
C1210 C1201 1.429 . S
C1210 N1207 1.350 . S
C1210 C1209 1.434 . S
C1211 C1212 1.369 . S
C1211 C1213 1.419 . S
C1211 H1215 0.930 . S
C1212 C1211 1.369 . S
C1212 C1221 1.429 . S
C1213 C1211 1.419 . S
C1213 C1214 1.363 . S
C1213 H1216 0.929 . S
C1214 C1213 1.363 . S
C1214 C1220 1.428 . S
H1215 C1211 0.930 . S
H1216 C1213 0.929 . S
S1217 N1218 1.613 . S
S1217 N1219 1.610 . S
N1218 S1217 1.613 . S
N1218 C1221 1.350 . S
N1219 S1217 1.610 . S
N1219 C1220 1.351 . S
C1220 C1214 1.428 . S
C1220 N1219 1.351 . S
C1220 C1221 1.434 . S
C1221 C1212 1.429 . S
C1221 N1218 1.350 . S
C1221 C1220 1.434 . S
C1222 C1223 1.369 . S
C1222 C1224 1.419 . S
C1222 H1226 0.930 . S
C1223 C1222 1.369 . S
C1223 C1232 1.429 . S
C1224 C1222 1.419 . S
C1224 C1225 1.363 . S
C1224 H1227 0.929 . S
C1225 C1224 1.363 . S
C1225 C1231 1.428 . S
H1226 C1222 0.930 . S
H1227 C1224 0.929 . S
S1228 N1229 1.613 . S
S1228 N1230 1.610 . S
N1229 S1228 1.613 . S
N1229 C1232 1.350 . S
N1230 S1228 1.610 . S
N1230 C1231 1.351 . S
C1231 C1225 1.428 . S
C1231 N1230 1.351 . S
C1231 C1232 1.434 . S
C1232 C1223 1.429 . S
C1232 N1229 1.350 . S
C1232 C1231 1.434 . S
C1233 C1234 1.369 1_455 S
C1233 C1235 1.419 . S
C1233 H1237 0.930 . S
C1234 C1233 1.369 1_655 S
C1234 C1243 1.429 1_655 S
C1235 C1233 1.419 . S
C1235 C1236 1.363 . S
C1235 H1238 0.929 . S
C1236 C1235 1.363 . S
C1236 C1242 1.428 . S
H1237 C1233 0.930 . S
H1238 C1235 0.929 . S
S1239 N1240 1.613 1_455 S
S1239 N1241 1.610 . S
N1240 S1239 1.613 1_655 S
N1240 C1243 1.350 1_655 S
N1241 S1239 1.610 . S
N1241 C1242 1.351 . S
C1242 C1236 1.428 . S
C1242 N1241 1.351 . S
C1242 C1243 1.434 . S
C1243 C1234 1.429 1_455 S
C1243 N1240 1.350 1_455 S
C1243 C1242 1.434 . S
C1244 C1245 1.369 . S
C1244 C1246 1.419 . S
C1244 H1248 0.930 . S
C1245 C1244 1.369 . S
C1245 C1254 1.429 . S
C1246 C1244 1.419 . S
C1246 C1247 1.363 . S
C1246 H1249 0.929 . S
C1247 C1246 1.363 . S
C1247 C1253 1.428 . S
H1248 C1244 0.930 . S
H1249 C1246 0.929 . S
S1250 N1251 1.613 . S
S1250 N1252 1.610 . S
N1251 S1250 1.613 . S
N1251 C1254 1.350 . S
N1252 S1250 1.610 . S
N1252 C1253 1.351 . S
C1253 C1247 1.428 . S
C1253 N1252 1.351 . S
C1253 C1254 1.434 . S
C1254 C1245 1.429 . S
C1254 N1251 1.350 . S
C1254 C1253 1.434 . S
C1255 C1256 1.369 . S
C1255 C1257 1.419 . S
C1255 H1259 0.930 . S
C1256 C1255 1.369 . S
C1256 C1265 1.429 . S
C1257 C1255 1.419 . S
C1257 C1258 1.363 1_455 S
C1257 H1260 0.929 1_455 S
C1258 C1257 1.363 1_655 S
C1258 C1264 1.428 1_655 S
H1259 C1255 0.930 . S
H1260 C1257 0.929 1_655 S
S1261 N1262 1.613 . S
S1261 N1263 1.610 . S
N1262 S1261 1.613 . S
N1262 C1265 1.350 . S
N1263 S1261 1.610 . S
N1263 C1264 1.351 . S
C1264 C1258 1.428 1_455 S
C1264 N1263 1.351 . S
C1264 C1265 1.434 . S
C1265 C1256 1.429 . S
C1265 N1262 1.350 . S
C1265 C1264 1.434 . S
C1266 C1267 1.369 . S
C1266 C1268 1.419 . S
C1266 H1270 0.930 . S
C1267 C1266 1.369 . S
C1267 C1276 1.429 . S
C1268 C1266 1.419 . S
C1268 C1269 1.363 . S
C1268 H1271 0.929 . S
C1269 C1268 1.363 . S
C1269 C1275 1.428 . S
H1270 C1266 0.930 . S
H1271 C1268 0.929 . S
S1272 N1273 1.613 . S
S1272 N1274 1.610 . S
N1273 S1272 1.613 . S
N1273 C1276 1.350 . S
N1274 S1272 1.610 . S
N1274 C1275 1.351 . S
C1275 C1269 1.428 . S
C1275 N1274 1.351 . S
C1275 C1276 1.434 . S
C1276 C1267 1.429 . S
C1276 N1273 1.350 . S
C1276 C1275 1.434 . S
C1277 C1278 1.369 . S
C1277 C1279 1.419 . S
C1277 H1281 0.930 . S
C1278 C1277 1.369 . S
C1278 C1287 1.429 . S
C1279 C1277 1.419 . S
C1279 C1280 1.363 . S
C1279 H1282 0.929 . S
C1280 C1279 1.363 . S
C1280 C1286 1.428 . S
H1281 C1277 0.930 . S
H1282 C1279 0.929 . S
S1283 N1284 1.613 . S
S1283 N1285 1.610 . S
N1284 S1283 1.613 . S
N1284 C1287 1.350 . S
N1285 S1283 1.610 . S
N1285 C1286 1.351 . S
C1286 C1280 1.428 . S
C1286 N1285 1.351 . S
C1286 C1287 1.434 . S
C1287 C1278 1.429 . S
C1287 N1284 1.350 . S
C1287 C1286 1.434 . S
C1288 C1289 1.369 . S
C1288 C1290 1.419 . S
C1288 H1292 0.930 . S
C1289 C1288 1.369 . S
C1289 C1298 1.429 . S
C1290 C1288 1.419 . S
C1290 C1291 1.363 . S
C1290 H1293 0.929 . S
C1291 C1290 1.363 . S
C1291 C1297 1.428 . S
H1292 C1288 0.930 . S
H1293 C1290 0.929 . S
S1294 N1295 1.613 . S
S1294 N1296 1.610 . S
N1295 S1294 1.613 . S
N1295 C1298 1.350 . S
N1296 S1294 1.610 . S
N1296 C1297 1.351 . S
C1297 C1291 1.428 . S
C1297 N1296 1.351 . S
C1297 C1298 1.434 . S
C1298 C1289 1.429 . S
C1298 N1295 1.350 . S
C1298 C1297 1.434 . S
C1299 C1300 1.369 . S
C1299 C1301 1.419 . S
C1299 H1303 0.930 . S
C1300 C1299 1.369 . S
C1300 C1309 1.429 . S
C1301 C1299 1.419 . S
C1301 C1302 1.363 1_554 S
C1301 H1304 0.937 . S
C1302 C1301 1.363 1_556 S
C1302 C1308 1.428 . S
H1303 C1299 0.930 . S
H1304 C1301 0.937 . S
S1305 N1306 1.613 . S
S1305 N1307 1.610 1_554 S
N1306 S1305 1.613 . S
N1306 C1309 1.350 . S
N1307 S1305 1.610 1_556 S
N1307 C1308 1.351 . S
C1308 C1302 1.428 . S
C1308 N1307 1.351 . S
C1308 C1309 1.434 1_556 S
C1309 C1300 1.429 . S
C1309 N1306 1.350 . S
C1309 C1308 1.434 1_554 S
C1310 C1311 1.369 . S
C1310 C1312 1.419 . S
C1310 H1314 0.930 . S
C1311 C1310 1.369 . S
C1311 C1320 1.429 . S
C1312 C1310 1.419 . S
C1312 C1313 1.363 . S
C1312 H1315 0.929 . S
C1313 C1312 1.363 . S
C1313 C1319 1.428 . S
H1314 C1310 0.930 . S
H1315 C1312 0.929 . S
S1316 N1317 1.613 . S
S1316 N1318 1.610 . S
N1317 S1316 1.613 . S
N1317 C1320 1.350 . S
N1318 S1316 1.610 . S
N1318 C1319 1.351 . S
C1319 C1313 1.428 . S
C1319 N1318 1.351 . S
C1319 C1320 1.434 . S
C1320 C1311 1.429 . S
C1320 N1317 1.350 . S
C1320 C1319 1.434 . S
C1321 C1322 1.369 . S
C1321 C1323 1.419 . S
C1321 H1325 0.930 . S
C1322 C1321 1.369 . S
C1322 C1331 1.429 . S
C1323 C1321 1.419 . S
C1323 C1324 1.363 . S
C1323 H1326 0.929 . S
C1324 C1323 1.363 . S
C1324 C1330 1.428 . S
H1325 C1321 0.930 . S
H1326 C1323 0.929 . S
S1327 N1328 1.613 . S
S1327 N1329 1.610 . S
N1328 S1327 1.613 . S
N1328 C1331 1.350 . S
N1329 S1327 1.610 . S
N1329 C1330 1.351 . S
C1330 C1324 1.428 . S
C1330 N1329 1.351 . S
C1330 C1331 1.434 . S
C1331 C1322 1.429 . S
C1331 N1328 1.350 . S
C1331 C1330 1.434 . S
C1332 C1333 1.369 . S
C1332 C1334 1.419 . S
C1332 H1336 0.930 . S
C1333 C1332 1.369 . S
C1333 C1342 1.429 . S
C1334 C1332 1.419 . S
C1334 C1335 1.363 . S
C1334 H1337 0.929 . S
C1335 C1334 1.363 . S
C1335 C1341 1.428 . S
H1336 C1332 0.930 . S
H1337 C1334 0.929 . S
S1338 N1339 1.613 . S
S1338 N1340 1.610 . S
N1339 S1338 1.613 . S
N1339 C1342 1.350 . S
N1340 S1338 1.610 . S
N1340 C1341 1.351 . S
C1341 C1335 1.428 . S
C1341 N1340 1.351 . S
C1341 C1342 1.434 . S
C1342 C1333 1.429 . S
C1342 N1339 1.350 . S
C1342 C1341 1.434 . S
C1343 C1344 1.369 . S
C1343 C1345 1.419 1_556 S
C1343 H1347 0.930 . S
C1344 C1343 1.369 . S
C1344 C1353 1.429 . S
C1345 C1343 1.419 1_554 S
C1345 C1346 1.363 . S
C1345 H1348 0.929 . S
C1346 C1345 1.363 . S
C1346 C1352 1.428 1_554 S
H1347 C1343 0.930 . S
H1348 C1345 0.929 . S
S1349 N1350 1.613 . S
S1349 N1351 1.633 . S
N1350 S1349 1.613 . S
N1350 C1353 1.350 . S
N1351 S1349 1.633 . S
N1351 C1352 1.356 . S
C1352 C1346 1.428 1_556 S
C1352 N1351 1.356 . S
C1352 C1353 1.434 . S
C1353 C1344 1.429 . S
C1353 N1350 1.350 . S
C1353 C1352 1.434 . S
C1354 C1355 1.369 . S
C1354 C1356 1.419 . S
C1354 H1358 0.930 . S
C1355 C1354 1.369 . S
C1355 C1364 1.429 . S
C1356 C1354 1.419 . S
C1356 C1357 1.363 . S
C1356 H1359 0.929 . S
C1357 C1356 1.363 . S
C1357 C1363 1.428 . S
H1358 C1354 0.930 . S
H1359 C1356 0.929 . S
S1360 N1361 1.613 . S
S1360 N1362 1.610 . S
N1361 S1360 1.613 . S
N1361 C1364 1.350 . S
N1362 S1360 1.610 . S
N1362 C1363 1.351 . S
C1363 C1357 1.428 . S
C1363 N1362 1.351 . S
C1363 C1364 1.434 . S
C1364 C1355 1.429 . S
C1364 N1361 1.350 . S
C1364 C1363 1.434 . S
C1365 C1366 1.369 . S
C1365 C1367 1.419 . S
C1365 H1369 0.930 . S
C1366 C1365 1.369 . S
C1366 C1375 1.429 . S
C1367 C1365 1.419 . S
C1367 C1368 1.363 . S
C1367 H1370 0.929 . S
C1368 C1367 1.363 . S
C1368 C1374 1.428 . S
H1369 C1365 0.930 . S
H1370 C1367 0.929 . S
S1371 N1372 1.613 . S
S1371 N1373 1.610 . S
N1372 S1371 1.613 . S
N1372 C1375 1.350 . S
N1373 S1371 1.610 . S
N1373 C1374 1.351 . S
C1374 C1368 1.428 . S
C1374 N1373 1.351 . S
C1374 C1375 1.434 . S
C1375 C1366 1.429 . S
C1375 N1372 1.350 . S
C1375 C1374 1.434 . S
C1376 C1377 1.369 . S
C1376 C1378 1.419 . S
C1376 H1380 0.930 . S
C1377 C1376 1.369 . S
C1377 C1386 1.429 . S
C1378 C1376 1.419 . S
C1378 C1379 1.363 . S
C1378 H1381 0.929 . S
C1379 C1378 1.363 . S
C1379 C1385 1.428 . S
H1380 C1376 0.930 . S
H1381 C1378 0.929 . S
S1382 N1383 1.613 . S
S1382 N1384 1.610 . S
N1383 S1382 1.613 . S
N1383 C1386 1.350 . S
N1384 S1382 1.610 . S
N1384 C1385 1.351 . S
C1385 C1379 1.428 . S
C1385 N1384 1.351 . S
C1385 C1386 1.434 . S
C1386 C1377 1.429 . S
C1386 N1383 1.350 . S
C1386 C1385 1.434 . S
C1387 C1388 1.369 . S
C1387 C1389 1.419 . S
C1387 H1391 0.930 . S
C1388 C1387 1.369 . S
C1388 C1397 1.429 . S
C1389 C1387 1.419 . S
C1389 C1390 1.363 . S
C1389 H1392 0.929 . S
C1390 C1389 1.363 . S
C1390 C1396 1.428 . S
H1391 C1387 0.930 . S
H1392 C1389 0.929 . S
S1393 N1394 1.613 . S
S1393 N1395 1.610 . S
N1394 S1393 1.613 . S
N1394 C1397 1.350 . S
N1395 S1393 1.610 . S
N1395 C1396 1.351 . S
C1396 C1390 1.428 . S
C1396 N1395 1.351 . S
C1396 C1397 1.434 . S
C1397 C1388 1.429 . S
C1397 N1394 1.350 . S
C1397 C1396 1.434 . S
C1398 C1399 1.369 . S
C1398 C1400 1.419 . S
C1398 H1402 0.930 . S
C1399 C1398 1.369 . S
C1399 C1408 1.429 . S
C1400 C1398 1.419 . S
C1400 C1401 1.363 1_545 S
C1400 H1403 0.929 . S
C1401 C1400 1.363 1_565 S
C1401 C1407 1.427 1_565 S
H1402 C1398 0.930 . S
H1403 C1400 0.929 . S
S1404 N1405 1.613 . S
S1404 N1406 1.610 1_545 S
N1405 S1404 1.613 . S
N1405 C1408 1.350 . S
N1406 S1404 1.610 1_565 S
N1406 C1407 1.349 1_565 S
C1407 C1401 1.427 1_545 S
C1407 N1406 1.349 1_545 S
C1407 C1408 1.438 . S
C1408 C1399 1.429 . S
C1408 N1405 1.350 . S
C1408 C1407 1.438 . S
C1409 C1410 1.369 . S
C1409 C1411 1.419 . S
C1409 H1413 0.930 . S
C1410 C1409 1.369 . S
C1410 C1419 1.429 . S
C1411 C1409 1.419 . S
C1411 C1412 1.363 . S
C1411 H1414 0.929 . S
C1412 C1411 1.363 . S
C1412 C1418 1.428 . S
H1413 C1409 0.930 . S
H1414 C1411 0.929 . S
S1415 N1416 1.613 . S
S1415 N1417 1.610 . S
N1416 S1415 1.613 . S
N1416 C1419 1.350 . S
N1417 S1415 1.610 . S
N1417 C1418 1.351 . S
C1418 C1412 1.428 . S
C1418 N1417 1.351 . S
C1418 C1419 1.434 . S
C1419 C1410 1.429 . S
C1419 N1416 1.350 . S
C1419 C1418 1.434 . S
C1420 C1421 1.369 . S
C1420 C1422 1.419 . S
C1420 H1424 0.930 . S
C1421 C1420 1.369 . S
C1421 C1430 1.429 . S
C1422 C1420 1.419 . S
C1422 C1423 1.363 . S
C1422 H1425 0.929 . S
C1423 C1422 1.363 . S
C1423 C1429 1.428 . S
H1424 C1420 0.930 . S
H1425 C1422 0.929 . S
S1426 N1427 1.613 . S
S1426 N1428 1.610 . S
N1427 S1426 1.613 . S
N1427 C1430 1.350 . S
N1428 S1426 1.610 . S
N1428 C1429 1.351 . S
C1429 C1423 1.428 . S
C1429 N1428 1.351 . S
C1429 C1430 1.434 . S
C1430 C1421 1.429 . S
C1430 N1427 1.350 . S
C1430 C1429 1.434 . S
C1431 C1432 1.369 . S
C1431 C1433 1.419 . S
C1431 H1435 0.930 . S
C1432 C1431 1.369 . S
C1432 C1441 1.429 . S
C1433 C1431 1.419 . S
C1433 C1434 1.363 . S
C1433 H1436 0.929 . S
C1434 C1433 1.363 . S
C1434 C1440 1.428 . S
H1435 C1431 0.930 . S
H1436 C1433 0.929 . S
S1437 N1438 1.613 . S
S1437 N1439 1.610 . S
N1438 S1437 1.613 . S
N1438 C1441 1.350 . S
N1439 S1437 1.610 . S
N1439 C1440 1.351 . S
C1440 C1434 1.428 . S
C1440 N1439 1.351 . S
C1440 C1441 1.434 . S
C1441 C1432 1.429 . S
C1441 N1438 1.350 . S
C1441 C1440 1.434 . S
C1442 C1443 1.364 1_565 S
C1442 C1444 1.431 . S
C1442 H1446 0.922 1_565 S
C1443 C1442 1.364 1_545 S
C1443 C1452 1.429 1_545 S
C1444 C1442 1.431 . S
C1444 C1445 1.363 . S
C1444 H1447 0.929 . S
C1445 C1444 1.363 . S
C1445 C1451 1.428 . S
H1446 C1442 0.922 1_545 S
H1447 C1444 0.929 . S
S1448 N1449 1.613 . S
S1448 N1450 1.610 . S
N1449 S1448 1.613 . S
N1449 C1452 1.350 . S
N1450 S1448 1.610 . S
N1450 C1451 1.351 . S
C1451 C1445 1.428 . S
C1451 N1450 1.351 . S
C1451 C1452 1.434 . S
C1452 C1443 1.429 1_565 S
C1452 N1449 1.350 . S
C1452 C1451 1.434 . S
C1453 C1454 1.369 . S
C1453 C1455 1.419 . S
C1453 H1457 0.930 . S
C1454 C1453 1.369 . S
C1454 C1463 1.429 . S
C1455 C1453 1.419 . S
C1455 C1456 1.363 1_545 S
C1455 H1458 0.929 . S
C1456 C1455 1.363 1_565 S
C1456 C1462 1.428 1_565 S
H1457 C1453 0.930 . S
H1458 C1455 0.929 . S
S1459 N1460 1.613 . S
S1459 N1461 1.610 1_545 S
N1460 S1459 1.613 . S
N1460 C1463 1.350 . S
N1461 S1459 1.610 1_565 S
N1461 C1462 1.351 1_565 S
C1462 C1456 1.428 1_545 S
C1462 N1461 1.351 1_545 S
C1462 C1463 1.434 . S
C1463 C1454 1.429 . S
C1463 N1460 1.350 . S
C1463 C1462 1.434 . S
C1464 C1465 1.369 . S
C1464 C1466 1.419 . S
C1464 H1468 0.930 . S
C1465 C1464 1.369 . S
C1465 C1474 1.429 . S
C1466 C1464 1.419 . S
C1466 C1467 1.363 . S
C1466 H1469 0.929 . S
C1467 C1466 1.363 . S
C1467 C1473 1.428 . S
H1468 C1464 0.930 . S
H1469 C1466 0.929 . S
S1470 N1471 1.613 . S
S1470 N1472 1.610 . S
N1471 S1470 1.613 . S
N1471 C1474 1.350 . S
N1472 S1470 1.610 . S
N1472 C1473 1.351 . S
C1473 C1467 1.428 . S
C1473 N1472 1.351 . S
C1473 C1474 1.434 . S
C1474 C1465 1.429 . S
C1474 N1471 1.350 . S
C1474 C1473 1.434 . S
C1475 C1476 1.369 . S
C1475 C1477 1.419 . S
C1475 H1479 0.930 . S
C1476 C1475 1.369 . S
C1476 C1485 1.429 . S
C1477 C1475 1.419 . S
C1477 C1478 1.363 . S
C1477 H1480 0.929 . S
C1478 C1477 1.363 . S
C1478 C1484 1.428 . S
H1479 C1475 0.930 . S
H1480 C1477 0.929 . S
S1481 N1482 1.613 . S
S1481 N1483 1.610 . S
N1482 S1481 1.613 . S
N1482 C1485 1.350 . S
N1483 S1481 1.610 . S
N1483 C1484 1.351 . S
C1484 C1478 1.428 . S
C1484 N1483 1.351 . S
C1484 C1485 1.434 . S
C1485 C1476 1.429 . S
C1485 N1482 1.350 . S
C1485 C1484 1.434 . S
C1486 C1487 1.369 . S
C1486 C1488 1.419 . S
C1486 H1490 0.930 . S
C1487 C1486 1.369 . S
C1487 C1496 1.429 . S
C1488 C1486 1.419 . S
C1488 C1489 1.363 . S
C1488 H1491 0.929 . S
C1489 C1488 1.363 . S
C1489 C1495 1.428 . S
H1490 C1486 0.930 . S
H1491 C1488 0.929 . S
S1492 N1493 1.613 . S
S1492 N1494 1.610 . S
N1493 S1492 1.613 . S
N1493 C1496 1.350 . S
N1494 S1492 1.610 . S
N1494 C1495 1.351 . S
C1495 C1489 1.428 . S
C1495 N1494 1.351 . S
C1495 C1496 1.434 . S
C1496 C1487 1.429 . S
C1496 N1493 1.350 . S
C1496 C1495 1.434 . S
C1497 C1498 1.369 . S
C1497 C1499 1.419 1_455 S
C1497 H1501 0.930 . S
C1498 C1497 1.369 . S
C1498 C1507 1.429 1_455 S
C1499 C1497 1.419 1_655 S
C1499 C1500 1.363 . S
C1499 H1502 0.929 . S
C1500 C1499 1.363 . S
C1500 C1506 1.428 . S
H1501 C1497 0.930 . S
H1502 C1499 0.929 . S
S1503 N1504 1.613 1_655 S
S1503 N1505 1.610 . S
N1504 S1503 1.613 1_455 S
N1504 C1507 1.350 1_455 S
N1505 S1503 1.610 . S
N1505 C1506 1.351 . S
C1506 C1500 1.428 . S
C1506 N1505 1.351 . S
C1506 C1507 1.434 . S
C1507 C1498 1.429 1_655 S
C1507 N1504 1.350 1_655 S
C1507 C1506 1.434 . S
C1508 C1509 1.369 . S
C1508 C1510 1.419 . S
C1508 H1512 0.930 . S
C1509 C1508 1.369 . S
C1509 C1518 1.429 . S
C1510 C1508 1.419 . S
C1510 C1511 1.363 . S
C1510 H1513 0.929 . S
C1511 C1510 1.363 . S
C1511 C1517 1.428 . S
H1512 C1508 0.930 . S
H1513 C1510 0.929 . S
S1514 N1515 1.613 . S
S1514 N1516 1.610 . S
N1515 S1514 1.613 . S
N1515 C1518 1.350 . S
N1516 S1514 1.610 . S
N1516 C1517 1.351 . S
C1517 C1511 1.428 . S
C1517 N1516 1.351 . S
C1517 C1518 1.434 . S
C1518 C1509 1.429 . S
C1518 N1515 1.350 . S
C1518 C1517 1.434 . S
C1519 C1520 1.369 1_655 S
C1519 C1521 1.419 . S
C1519 H1523 0.930 1_655 S
C1520 C1519 1.369 1_455 S
C1520 C1529 1.429 . S
C1521 C1519 1.419 . S
C1521 C1522 1.363 . S
C1521 H1524 0.929 . S
C1522 C1521 1.363 . S
C1522 C1528 1.428 . S
H1523 C1519 0.930 1_455 S
H1524 C1521 0.929 . S
S1525 N1526 1.613 1_655 S
S1525 N1527 1.610 . S
N1526 S1525 1.613 1_455 S
N1526 C1529 1.350 . S
N1527 S1525 1.610 . S
N1527 C1528 1.351 . S
C1528 C1522 1.428 . S
C1528 N1527 1.351 . S
C1528 C1529 1.434 1_655 S
C1529 C1520 1.429 . S
C1529 N1526 1.350 . S
C1529 C1528 1.434 1_455 S
C1530 C1531 1.369 . S
C1530 C1532 1.419 . S
C1530 H1534 0.930 . S
C1531 C1530 1.369 . S
C1531 C1540 1.429 . S
C1532 C1530 1.419 . S
C1532 C1533 1.363 . S
C1532 H1535 0.929 . S
C1533 C1532 1.363 . S
C1533 C1539 1.428 . S
H1534 C1530 0.930 . S
H1535 C1532 0.929 . S
S1536 N1537 1.613 . S
S1536 N1538 1.610 . S
N1537 S1536 1.613 . S
N1537 C1540 1.350 . S
N1538 S1536 1.610 . S
N1538 C1539 1.351 . S
C1539 C1533 1.428 . S
C1539 N1538 1.351 . S
C1539 C1540 1.434 . S
C1540 C1531 1.429 . S
C1540 N1537 1.350 . S
C1540 C1539 1.434 . S
C1541 C1542 1.369 . S
C1541 C1543 1.419 . S
C1541 H1545 0.930 . S
C1542 C1541 1.369 . S
C1542 C1551 1.429 . S
C1543 C1541 1.419 . S
C1543 C1544 1.363 . S
C1543 H1546 0.929 . S
C1544 C1543 1.363 . S
C1544 C1550 1.428 . S
H1545 C1541 0.930 . S
H1546 C1543 0.929 . S
S1547 N1548 1.613 . S
S1547 N1549 1.610 . S
N1548 S1547 1.613 . S
N1548 C1551 1.350 . S
N1549 S1547 1.610 . S
N1549 C1550 1.351 . S
C1550 C1544 1.428 . S
C1550 N1549 1.351 . S
C1550 C1551 1.434 . S
C1551 C1542 1.429 . S
C1551 N1548 1.350 . S
C1551 C1550 1.434 . S
C1552 C1553 1.369 . S
C1552 C1554 1.419 . S
C1552 H1556 0.930 . S
C1553 C1552 1.369 . S
C1553 C1562 1.429 . S
C1554 C1552 1.419 . S
C1554 C1555 1.363 . S
C1554 H1557 0.929 . S
C1555 C1554 1.363 . S
C1555 C1561 1.428 . S
H1556 C1552 0.930 . S
H1557 C1554 0.929 . S
S1558 N1559 1.613 . S
S1558 N1560 1.610 . S
N1559 S1558 1.613 . S
N1559 C1562 1.350 . S
N1560 S1558 1.610 . S
N1560 C1561 1.351 . S
C1561 C1555 1.428 . S
C1561 N1560 1.351 . S
C1561 C1562 1.434 . S
C1562 C1553 1.429 . S
C1562 N1559 1.350 . S
C1562 C1561 1.434 . S
C1563 C1564 1.369 . S
C1563 C1565 1.415 . S
C1563 H1567 0.930 . S
C1564 C1563 1.369 . S
C1564 C1573 1.429 . S
C1565 C1563 1.415 . S
C1565 C1566 1.365 1_556 S
C1565 H1568 0.932 1_556 S
C1566 C1565 1.365 1_554 S
C1566 C1572 1.428 1_554 S
H1567 C1563 0.930 . S
H1568 C1565 0.932 1_554 S
S1569 N1570 1.613 . S
S1569 N1571 1.610 . S
N1570 S1569 1.613 . S
N1570 C1573 1.350 . S
N1571 S1569 1.610 . S
N1571 C1572 1.351 . S
C1572 C1566 1.428 1_556 S
C1572 N1571 1.351 . S
C1572 C1573 1.434 . S
C1573 C1564 1.429 . S
C1573 N1570 1.350 . S
C1573 C1572 1.434 . S
C1574 C1575 1.369 . S
C1574 C1576 1.419 . S
C1574 H1578 0.930 . S
C1575 C1574 1.369 . S
C1575 C1584 1.429 . S
C1576 C1574 1.419 . S
C1576 C1577 1.363 . S
C1576 H1579 0.929 . S
C1577 C1576 1.363 . S
C1577 C1583 1.428 . S
H1578 C1574 0.930 . S
H1579 C1576 0.929 . S
S1580 N1581 1.613 . S
S1580 N1582 1.610 . S
N1581 S1580 1.613 . S
N1581 C1584 1.350 . S
N1582 S1580 1.610 . S
N1582 C1583 1.351 . S
C1583 C1577 1.428 . S
C1583 N1582 1.351 . S
C1583 C1584 1.434 . S
C1584 C1575 1.429 . S
C1584 N1581 1.350 . S
C1584 C1583 1.434 . S
C1585 C1586 1.369 . S
C1585 C1587 1.419 . S
C1585 H1589 0.930 . S
C1586 C1585 1.369 . S
C1586 C1595 1.429 . S
C1587 C1585 1.419 . S
C1587 C1588 1.363 . S
C1587 H1590 0.929 . S
C1588 C1587 1.363 . S
C1588 C1594 1.428 . S
H1589 C1585 0.930 . S
H1590 C1587 0.929 . S
S1591 N1592 1.613 . S
S1591 N1593 1.610 . S
N1592 S1591 1.613 . S
N1592 C1595 1.350 . S
N1593 S1591 1.610 . S
N1593 C1594 1.351 . S
C1594 C1588 1.428 . S
C1594 N1593 1.351 . S
C1594 C1595 1.434 . S
C1595 C1586 1.429 . S
C1595 N1592 1.350 . S
C1595 C1594 1.434 . S
C1596 C1597 1.369 . S
C1596 C1598 1.419 . S
C1596 H1600 0.930 . S
C1597 C1596 1.369 . S
C1597 C1606 1.429 . S
C1598 C1596 1.419 . S
C1598 C1599 1.363 . S
C1598 H1601 0.929 . S
C1599 C1598 1.363 . S
C1599 C1605 1.428 . S
H1600 C1596 0.930 . S
H1601 C1598 0.929 . S
S1602 N1603 1.613 . S
S1602 N1604 1.610 . S
N1603 S1602 1.613 . S
N1603 C1606 1.350 . S
N1604 S1602 1.610 . S
N1604 C1605 1.351 . S
C1605 C1599 1.428 . S
C1605 N1604 1.351 . S
C1605 C1606 1.434 . S
C1606 C1597 1.429 . S
C1606 N1603 1.350 . S
C1606 C1605 1.434 . S
C1607 C1608 1.369 . S
C1607 C1609 1.419 . S
C1607 H1611 0.930 . S
C1608 C1607 1.369 . S
C1608 C1617 1.429 . S
C1609 C1607 1.419 . S
C1609 C1610 1.363 1_554 S
C1609 H1612 0.929 . S
C1610 C1609 1.363 1_556 S
C1610 C1616 1.428 1_556 S
H1611 C1607 0.930 . S
H1612 C1609 0.929 . S
S1613 N1614 1.613 . S
S1613 N1615 1.610 1_554 S
N1614 S1613 1.613 . S
N1614 C1617 1.350 . S
N1615 S1613 1.610 1_556 S
N1615 C1616 1.351 1_556 S
C1616 C1610 1.428 1_554 S
C1616 N1615 1.351 1_554 S
C1616 C1617 1.434 . S
C1617 C1608 1.429 . S
C1617 N1614 1.350 . S
C1617 C1616 1.434 . S
C1618 C1619 1.369 . S
C1618 C1620 1.419 . S
C1618 H1622 0.930 . S
C1619 C1618 1.369 . S
C1619 C1628 1.429 . S
C1620 C1618 1.419 . S
C1620 C1621 1.363 . S
C1620 H1623 0.929 . S
C1621 C1620 1.363 . S
C1621 C1627 1.428 . S
H1622 C1618 0.930 . S
H1623 C1620 0.929 . S
S1624 N1625 1.613 . S
S1624 N1626 1.610 . S
N1625 S1624 1.613 . S
N1625 C1628 1.350 . S
N1626 S1624 1.610 . S
N1626 C1627 1.351 . S
C1627 C1621 1.428 . S
C1627 N1626 1.351 . S
C1627 C1628 1.434 . S
C1628 C1619 1.429 . S
C1628 N1625 1.350 . S
C1628 C1627 1.434 . S
C1629 C1630 1.369 . S
C1629 C1631 1.419 . S
C1629 H1633 0.930 . S
C1630 C1629 1.369 . S
C1630 C1639 1.429 . S
C1631 C1629 1.419 . S
C1631 C1632 1.363 . S
C1631 H1634 0.929 . S
C1632 C1631 1.363 . S
C1632 C1638 1.428 . S
H1633 C1629 0.930 . S
H1634 C1631 0.929 . S
S1635 N1636 1.613 . S
S1635 N1637 1.610 . S
N1636 S1635 1.613 . S
N1636 C1639 1.350 . S
N1637 S1635 1.610 . S
N1637 C1638 1.351 . S
C1638 C1632 1.428 . S
C1638 N1637 1.351 . S
C1638 C1639 1.434 . S
C1639 C1630 1.429 . S
C1639 N1636 1.350 . S
C1639 C1638 1.434 . S
C1640 C1641 1.369 . S
C1640 C1642 1.419 . S
C1640 H1644 0.930 . S
C1641 C1640 1.369 . S
C1641 C1650 1.429 . S
C1642 C1640 1.419 . S
C1642 C1643 1.363 . S
C1642 H1645 0.929 . S
C1643 C1642 1.363 . S
C1643 C1649 1.428 . S
H1644 C1640 0.930 . S
H1645 C1642 0.929 . S
S1646 N1647 1.613 . S
S1646 N1648 1.610 . S
N1647 S1646 1.613 . S
N1647 C1650 1.350 . S
N1648 S1646 1.610 . S
N1648 C1649 1.351 . S
C1649 C1643 1.428 . S
C1649 N1648 1.351 . S
C1649 C1650 1.434 . S
C1650 C1641 1.429 . S
C1650 N1647 1.350 . S
C1650 C1649 1.434 . S
C1651 C1652 1.369 . S
C1651 C1653 1.419 . S
C1651 H1655 0.930 . S
C1652 C1651 1.369 . S
C1652 C1661 1.429 . S
C1653 C1651 1.419 . S
C1653 C1654 1.363 . S
C1653 H1656 0.929 . S
C1654 C1653 1.363 . S
C1654 C1660 1.428 . S
H1655 C1651 0.930 . S
H1656 C1653 0.929 . S
S1657 N1658 1.613 . S
S1657 N1659 1.610 . S
N1658 S1657 1.613 . S
N1658 C1661 1.350 . S
N1659 S1657 1.610 . S
N1659 C1660 1.351 . S
C1660 C1654 1.428 . S
C1660 N1659 1.351 . S
C1660 C1661 1.434 . S
C1661 C1652 1.429 . S
C1661 N1658 1.350 . S
C1661 C1660 1.434 . S
C1662 C1663 1.369 . S
C1662 C1664 1.419 . S
C1662 H1666 0.930 . S
C1663 C1662 1.369 . S
C1663 C1672 1.429 . S
C1664 C1662 1.419 . S
C1664 C1665 1.363 1_565 S
C1664 H1667 0.942 . S
C1665 C1664 1.363 1_545 S
C1665 C1671 1.428 . S
H1666 C1662 0.930 . S
H1667 C1664 0.942 . S
S1668 N1669 1.613 . S
S1668 N1670 1.610 1_565 S
N1669 S1668 1.613 . S
N1669 C1672 1.350 . S
N1670 S1668 1.610 1_545 S
N1670 C1671 1.351 . S
C1671 C1665 1.428 . S
C1671 N1670 1.351 . S
C1671 C1672 1.434 1_545 S
C1672 C1663 1.429 . S
C1672 N1669 1.350 . S
C1672 C1671 1.434 1_565 S
C1673 C1674 1.369 . S
C1673 C1675 1.419 . S
C1673 H1677 0.930 . S
C1674 C1673 1.369 . S
C1674 C1683 1.429 . S
C1675 C1673 1.419 . S
C1675 C1676 1.363 . S
C1675 H1678 0.929 . S
C1676 C1675 1.363 . S
C1676 C1682 1.428 . S
H1677 C1673 0.930 . S
H1678 C1675 0.929 . S
S1679 N1680 1.613 . S
S1679 N1681 1.610 . S
N1680 S1679 1.613 . S
N1680 C1683 1.350 . S
N1681 S1679 1.610 . S
N1681 C1682 1.351 . S
C1682 C1676 1.428 . S
C1682 N1681 1.351 . S
C1682 C1683 1.434 . S
C1683 C1674 1.429 . S
C1683 N1680 1.350 . S
C1683 C1682 1.434 . S
C1684 C1685 1.369 . S
C1684 C1686 1.419 . S
C1684 H1688 0.930 . S
C1685 C1684 1.369 . S
C1685 C1694 1.429 . S
C1686 C1684 1.419 . S
C1686 C1687 1.363 . S
C1686 H1689 0.929 . S
C1687 C1686 1.363 . S
C1687 C1693 1.428 . S
H1688 C1684 0.930 . S
H1689 C1686 0.929 . S
S1690 N1691 1.613 . S
S1690 N1692 1.610 . S
N1691 S1690 1.613 . S
N1691 C1694 1.350 . S
N1692 S1690 1.610 . S
N1692 C1693 1.351 . S
C1693 C1687 1.428 . S
C1693 N1692 1.351 . S
C1693 C1694 1.434 . S
C1694 C1685 1.429 . S
C1694 N1691 1.350 . S
C1694 C1693 1.434 . S
C1695 C1696 1.369 . S
C1695 C1697 1.419 . S
C1695 H1699 0.930 . S
C1696 C1695 1.369 . S
C1696 C1705 1.429 . S
C1697 C1695 1.419 . S
C1697 C1698 1.363 . S
C1697 H1700 0.929 . S
C1698 C1697 1.363 . S
C1698 C1704 1.428 . S
H1699 C1695 0.930 . S
H1700 C1697 0.929 . S
S1701 N1702 1.613 . S
S1701 N1703 1.610 . S
N1702 S1701 1.613 . S
N1702 C1705 1.350 . S
N1703 S1701 1.610 . S
N1703 C1704 1.351 . S
C1704 C1698 1.428 . S
C1704 N1703 1.351 . S
C1704 C1705 1.434 . S
C1705 C1696 1.429 . S
C1705 N1702 1.350 . S
C1705 C1704 1.434 . S
C1706 C1707 1.369 1_545 S
C1706 C1708 1.419 . S
C1706 H1710 0.930 1_545 S
C1707 C1706 1.369 1_565 S
C1707 C1716 1.429 1_565 S
C1708 C1706 1.419 . S
C1708 C1709 1.363 . S
C1708 H1711 0.929 . S
C1709 C1708 1.363 . S
C1709 C1715 1.428 . S
H1710 C1706 0.930 1_565 S
H1711 C1708 0.929 . S
S1712 N1713 1.613 1_545 S
S1712 N1714 1.610 . S
N1713 S1712 1.613 1_565 S
N1713 C1716 1.350 1_565 S
N1714 S1712 1.610 . S
N1714 C1715 1.351 . S
C1715 C1709 1.428 . S
C1715 N1714 1.351 . S
C1715 C1716 1.434 . S
C1716 C1707 1.429 1_545 S
C1716 N1713 1.350 1_545 S
C1716 C1715 1.434 . S
C1717 C1718 1.369 . S
C1717 C1719 1.419 . S
C1717 H1721 0.930 . S
C1718 C1717 1.369 . S
C1718 C1727 1.429 . S
C1719 C1717 1.419 . S
C1719 C1720 1.363 1_565 S
C1719 H1722 0.929 1_565 S
C1720 C1719 1.363 1_545 S
C1720 C1726 1.440 . S
H1721 C1717 0.930 . S
H1722 C1719 0.929 1_545 S
S1723 N1724 1.613 . S
S1723 N1725 1.610 1_565 S
N1724 S1723 1.613 . S
N1724 C1727 1.350 . S
N1725 S1723 1.610 1_545 S
N1725 C1726 1.363 . S
C1726 C1720 1.440 . S
C1726 N1725 1.363 . S
C1726 C1727 1.408 1_545 S
C1727 C1718 1.429 . S
C1727 N1724 1.350 . S
C1727 C1726 1.408 1_565 S
C673 C591 1.420 . S
C675 C3 1.445 . S
C684 C23 1.450 . S
C686 C217 1.446 . S
C695 C31 1.437 . S
C697 C563 1.413 . S
C706 C51 1.444 . S
C708 C245 1.439 . S
C717 C623 1.437 . S
C719 C63 1.404 . S
C728 C78 1.438 . S
C730 C297 1.423 . S
C739 C91 1.408 . S
C741 C651 1.436 . S
C750 C106 1.415 . S
C752 C269 1.401 . S
C761 C50 1.418 . S
C763 C661 1.405 . S
C772 C7 1.400 . S
C774 C357 1.434 . S
C783 C371 1.432 . S
C785 C22 1.430 . S
C794 C35 1.398 . S
C796 C339 1.405 . S
C805 C79 1.471 . S
C807 C343 1.466 . S
C816 C87 1.441 . S
C818 C665 1.434 . S
C827 C107 1.466 . S
C829 C353 1.438 . S
C838 C59 1.447 . S
C840 C367 1.421 . S
C849 C549 1.412 . S
C851 C120 1.430 . S
C860 C134 1.415 . S
C862 C273 1.418 . S
C871 C121 1.441 . S
C873 C619 1.411 . S
C882 C301 1.458 . S
C884 C149 1.466 . S
C893 C311 1.411 . S
C895 C162 1.427 . S
C904 C577 1.440 . S
C906 C177 1.461 . S
C915 C595 1.454 . S
C917 C191 1.461 . S
C926 C567 1.466 . S
C928 C205 1.473 . S
C937 C465 1.383 . S
C939 C218 1.390 . S
C948 C233 1.448 . S
C950 C9 1.399 . S
C959 C246 1.397 . S
C961 C437 1.387 . S
C970 C37 1.405 . S
C972 C261 1.457 . S
C981 C275 1.412 . S
C983 C497 1.404 . S
C992 C92 1.422 . S
C994 C288 1.419 . S
C1003 C303 1.409 . S
C1005 C525 1.401 . S
C1014 C64 1.443 . S
C1016 C316 1.437 . S
C1025 C535 1.400 . S
C1027 C260 1.407 . S
C1036 C219 1.424 . S
C1038 C143 1.406 . S
C1047 C161 1.406 . S
C1049 C232 1.408 . S
C1058 C133 1.425 . S
C1060 C247 1.429 . S
C1069 C129 1.423 . S
C1071 C289 1.449 . S
C1080 C302 1.380 . S
C1082 C539 1.387 . S
C1091 C147 1.447 . S
C1093 C317 1.451 . S
C1102 C274 1.372 . S
C1104 C157 1.363 . S
C1113 C330 1.420 . S
C1115 C428 1.424 . S
C1124 C345 1.472 . S
C1126 C65 1.415 . S
C1135 C331 1.433 . S
C1137 C493 1.414 . S
C1146 C358 1.440 . S
C1148 C93 1.405 . S
C1157 C372 1.410 . S
C1159 C101 1.397 . S
C1168 C456 1.440 . S
C1170 C387 1.446 . S
C1179 C401 1.434 . S
C1181 C469 1.427 . S
C1190 C415 1.447 . S
C1192 C441 1.438 . S
C1201 C423 1.447 . S
C1203 C255 1.420 . S
C1212 C443 1.445 . S
C1214 C553 1.441 . S
C1223 C227 1.404 . S
C1225 C451 1.435 . S
C1234 C471 1.449 . S
C1236 C581 1.444 . S
C1245 C483 1.410 . S
C1247 C287 1.437 . S
C1256 C633 1.405 . S
C1258 C498 1.415 . S
C1267 C511 1.394 . S
C1269 C315 1.430 . S
C1278 C605 1.406 . S
C1280 C526 1.417 . S
C1289 C325 1.401 . S
C1291 C470 1.422 . S
C1300 C413 1.430 . S
C1302 C427 1.402 . S
C1311 C442 1.429 . S
C1313 C385 1.432 . S
C1322 C399 1.432 . S
C1324 C455 1.395 . S
C1333 C499 1.467 . S
C1335 C395 1.435 . S
C1344 C329 1.438 . S
C1346 C507 1.442 . S
C1355 C527 1.463 . S
C1357 C409 1.435 . S
C1366 C479 1.441 . S
C1368 C381 1.416 . S
C1377 C540 1.421 . S
C1379 C213 1.409 . S
C1388 C190 1.408 . S
C1390 C609 1.416 . S
C1399 C283 1.414 . S
C1401 C541 1.445 . S
C1410 C637 1.428 . S
C1412 C204 1.421 . S
C1421 C647 1.401 . S
C1423 C176 1.413 . S
C1432 C163 1.462 . S
C1434 C241 1.440 . S
C1443 C135 1.469 . S
C1445 C259 1.464 . S
C1454 C231 1.444 . S
C1456 C148 1.438 . S
C1465 C554 1.391 . S
C1467 C45 1.374 . S
C1476 C429 1.406 . S
C1478 C569 1.453 . S
C1487 C582 1.400 . S
C1489 C17 1.388 . S
C1498 C597 1.452 . S
C1500 C457 1.403 . S
C1509 C77 1.400 . S
C1511 C611 1.405 . S
C1520 C624 1.423 . S
C1522 C512 1.425 . S
C1531 C639 1.407 . S
C1533 C105 1.402 . S
C1542 C484 1.425 . S
C1544 C652 1.418 . S
C1553 C596 1.407 . S
C1555 C115 1.400 . S
C1564 C203 1.420 . S
C1566 C555 1.428 . S
C1575 C175 1.408 . S
C1577 C568 1.408 . S
C1586 C583 1.427 . S
C1588 C189 1.418 . S
C1597 C625 1.447 . S
C1599 C185 1.425 . S
C1608 C119 1.377 . S
C1610 C638 1.379 . S
C1619 C199 1.429 . S
C1621 C653 1.447 . S
C1630 C610 1.372 . S
C1632 C171 1.364 . S
C1641 C8 1.424 . S
C1643 C666 1.418 . S
C1652 C400 1.427 . S
C1654 C485 1.391 . S
C1663 C73 1.427 . S
C1665 C667 1.445 . S
C1674 C513 1.402 . S
C1676 C414 1.438 . S
C1685 C521 1.392 . S
C1687 C386 1.405 . S
C1696 C373 1.438 . S
C1698 C36 1.431 . S
C1707 C344 1.403 . S
C1709 C49 1.404 . S
C1718 C21 1.448 . S
C1720 C359 1.454 . S
