# Generated by pormake.
# Topology upc, (4)-cn, num edge types: 1
# Building blocks:
#     Node 0, Type 0, BuildingBlock: NAWXER_clean_sbu_0, # of connection points: 4
#     Node 1, Type 0, BuildingBlock: NAWXER_clean_sbu_0, # of connection points: 4
#     Node 2, Type 0, BuildingBlock: NAWXER_clean_sbu_0, # of connection points: 4
#     Node 3, Type 0, BuildingBlock: NAWXER_clean_sbu_0, # of connection points: 4
#     Node 4, Type 0, BuildingBlock: NAWXER_clean_sbu_0, # of connection points: 4
#     Node 5, Type 0, BuildingBlock: NAWXER_clean_sbu_0, # of connection points: 4
#     Node 6, Type 0, BuildingBlock: NAWXER_clean_sbu_0, # of connection points: 4
#     Node 7, Type 0, BuildingBlock: NAWXER_clean_sbu_0, # of connection points: 4
#     Node 8, Type 0, BuildingBlock: NAWXER_clean_sbu_0, # of connection points: 4
#     Node 9, Type 0, BuildingBlock: NAWXER_clean_sbu_0, # of connection points: 4
#     Node 10, Type 0, BuildingBlock: NAWXER_clean_sbu_0, # of connection points: 4
#     Node 11, Type 0, BuildingBlock: NAWXER_clean_sbu_0, # of connection points: 4
#     Node 12, Type 0, BuildingBlock: NAWXER_clean_sbu_0, # of connection points: 4
#     Node 13, Type 0, BuildingBlock: NAWXER_clean_sbu_0, # of connection points: 4
#     Node 14, Type 0, BuildingBlock: NAWXER_clean_sbu_0, # of connection points: 4
#     Node 15, Type 0, BuildingBlock: NAWXER_clean_sbu_0, # of connection points: 4
#     Edge 16, Type (0, 0), BuildingBlock: EZIPEK_clean_linker_0, # of connection points: 2
#     Edge 17, Type (0, 0), BuildingBlock: EZIPEK_clean_linker_0, # of connection points: 2
#     Edge 18, Type (0, 0), BuildingBlock: EZIPEK_clean_linker_0, # of connection points: 2
#     Edge 19, Type (0, 0), BuildingBlock: EZIPEK_clean_linker_0, # of connection points: 2
#     Edge 20, Type (0, 0), BuildingBlock: EZIPEK_clean_linker_0, # of connection points: 2
#     Edge 21, Type (0, 0), BuildingBlock: EZIPEK_clean_linker_0, # of connection points: 2
#     Edge 22, Type (0, 0), BuildingBlock: EZIPEK_clean_linker_0, # of connection points: 2
#     Edge 23, Type (0, 0), BuildingBlock: EZIPEK_clean_linker_0, # of connection points: 2
#     Edge 24, Type (0, 0), BuildingBlock: EZIPEK_clean_linker_0, # of connection points: 2
#     Edge 25, Type (0, 0), BuildingBlock: EZIPEK_clean_linker_0, # of connection points: 2
#     Edge 26, Type (0, 0), BuildingBlock: EZIPEK_clean_linker_0, # of connection points: 2
#     Edge 27, Type (0, 0), BuildingBlock: EZIPEK_clean_linker_0, # of connection points: 2
#     Edge 28, Type (0, 0), BuildingBlock: EZIPEK_clean_linker_0, # of connection points: 2
#     Edge 29, Type (0, 0), BuildingBlock: EZIPEK_clean_linker_0, # of connection points: 2
#     Edge 30, Type (0, 0), BuildingBlock: EZIPEK_clean_linker_0, # of connection points: 2
#     Edge 31, Type (0, 0), BuildingBlock: EZIPEK_clean_linker_0, # of connection points: 2
#     Edge 32, Type (0, 0), BuildingBlock: EZIPEK_clean_linker_0, # of connection points: 2
#     Edge 33, Type (0, 0), BuildingBlock: EZIPEK_clean_linker_0, # of connection points: 2
#     Edge 34, Type (0, 0), BuildingBlock: EZIPEK_clean_linker_0, # of connection points: 2
#     Edge 35, Type (0, 0), BuildingBlock: EZIPEK_clean_linker_0, # of connection points: 2
#     Edge 36, Type (0, 0), BuildingBlock: EZIPEK_clean_linker_0, # of connection points: 2
#     Edge 37, Type (0, 0), BuildingBlock: EZIPEK_clean_linker_0, # of connection points: 2
#     Edge 38, Type (0, 0), BuildingBlock: EZIPEK_clean_linker_0, # of connection points: 2
#     Edge 39, Type (0, 0), BuildingBlock: EZIPEK_clean_linker_0, # of connection points: 2
#     Edge 40, Type (0, 0), BuildingBlock: EZIPEK_clean_linker_0, # of connection points: 2
#     Edge 41, Type (0, 0), BuildingBlock: EZIPEK_clean_linker_0, # of connection points: 2
#     Edge 42, Type (0, 0), BuildingBlock: EZIPEK_clean_linker_0, # of connection points: 2
#     Edge 43, Type (0, 0), BuildingBlock: EZIPEK_clean_linker_0, # of connection points: 2
#     Edge 44, Type (0, 0), BuildingBlock: EZIPEK_clean_linker_0, # of connection points: 2
#     Edge 45, Type (0, 0), BuildingBlock: EZIPEK_clean_linker_0, # of connection points: 2
#     Edge 46, Type (0, 0), BuildingBlock: EZIPEK_clean_linker_0, # of connection points: 2
#     Edge 47, Type (0, 0), BuildingBlock: EZIPEK_clean_linker_0, # of connection points: 2
# Relax obj value: 0.229
# Max RMSD: 0.220
# Mean RMSD: 0.220
data_MOF--net-upc--node1-NAWXER_clean_sbu_0--edge1-EZIPEK_clean_linker_0
_symmetry_space_group_name_H-M    P1
_symmetry_Int_Tables_number       1
_symmetry_cell_setting            triclinic
loop_
_symmetry_equiv_pos_as_xyz
'x, y, z'
_cell_length_a     25.052345
_cell_length_b     25.759091
_cell_length_c     30.866927
_cell_angle_alpha  89.902667
_cell_angle_beta   89.312178
_cell_angle_gamma 91.086816
loop_
_atom_site_label
_atom_site_type_symbol
_atom_site_fract_x
_atom_site_fract_y
_atom_site_fract_z
_atom_type_partial_charge
C0 C 0.13279 0.54686 0.13848 0.0
C1 C 0.26956 0.67861 0.09192 0.0
O2 O 0.1168 0.58168 0.11254 0.0
Zn3 Zn 0.14607 0.64949 0.07886 0.0
O4 O 0.18281 0.54435 0.1456 0.0
Zn5 Zn 0.2045 0.60506 0.10925 0.0
O6 O 0.16471 0.66125 0.14935 0.0
O7 O 0.10078 0.69517 0.11079 0.0
O8 O 0.2781 0.63394 0.10777 0.0
O9 O 0.22229 0.68949 0.07988 0.0
O10 O 0.1284 0.63552 0.02014 0.0
O11 O 0.18354 0.57802 0.0451 0.0
C12 C 0.12377 0.69 0.14707 0.0
C13 C 0.1537 0.59385 0.01446 0.0
C14 C 0.9502 0.08522 0.03859 0.0
C15 C 0.89957 0.16299 0.17495 0.0
O16 O 0.96457 0.12928 0.0531 0.0
Zn17 Zn 0.9179 0.13194 0.10353 0.0
O18 O 0.91029 0.06107 0.05589 0.0
Zn19 Zn 0.85737 0.07425 0.10878 0.0
O20 O 0.78705 0.09061 0.08718 0.0
O21 O 0.84019 0.15967 0.0868 0.0
O22 O 0.86765 0.12615 0.16354 0.0
O23 O 0.93574 0.18037 0.14909 0.0
O24 O 0.93719 0.06317 0.1404 0.0
O25 O 0.86615 1.0105 0.14082 0.0
C26 C 0.7935 0.13929 0.08246 0.0
C27 C 0.91326 0.02152 0.15351 0.0
C28 C 0.53077 0.81777 0.18895 0.0
C29 C 0.58325 0.91872 0.06228 0.0
O30 O 0.49818 0.85403 0.18075 0.0
Zn31 Zn 0.48865 0.91401 0.13339 0.0
O32 O 0.57135 0.81096 0.1645 0.0
Zn33 Zn 0.5535 0.864 0.12339 0.0
O34 O 0.56954 0.93115 0.16327 0.0
O35 O 0.49478 0.9735 0.17232 0.0
O36 O 0.60071 0.87517 0.07431 0.0
O37 O 0.54161 0.93723 0.08082 0.0
O38 O 0.41919 0.89245 0.11011 0.0
O39 O 0.47848 0.83124 0.10136 0.0
C40 C 0.54417 0.96864 0.18058 0.0
C41 C 0.42997 0.84598 0.09972 0.0
C42 C 0.53996 0.42815 0.05122 0.0
C43 C 0.67308 0.42085 0.16043 0.0
O44 O 0.52576 0.39404 0.07958 0.0
Zn45 Zn 0.56647 0.35609 0.13197 0.0
O46 O 0.58764 0.44514 0.05012 0.0
Zn47 Zn 0.61155 0.41405 0.10252 0.0
O48 O 0.64265 0.33855 0.08912 0.0
O49 O 0.58254 0.28457 0.11651 0.0
O50 O 0.67446 0.44515 0.12459 0.0
O51 O 0.63616 0.38635 0.1676 0.0
O52 O 0.51461 0.3647 0.17721 0.0
O53 O 0.55306 0.43784 0.15332 0.0
C54 C 0.62691 0.29196 0.09718 0.0
C55 C 0.52006 0.41387 0.17909 0.0
C56 C 0.03097 0.93438 0.29434 0.0
C57 C 0.15632 0.83458 0.37801 0.0
O58 O 1.00828 0.89746 0.31595 0.0
Zn59 Zn 1.03013 0.84037 0.36326 0.0
O60 O 0.0794 0.94735 0.30162 0.0
Zn61 Zn 0.09168 0.89403 0.34434 0.0
O62 O 0.0778 0.82894 0.30254 0.0
O63 O 1.01057 0.78037 0.32904 0.0
O64 O 0.16382 0.88065 0.36404 0.0
O65 O 0.10859 0.81605 0.38098 0.0
O66 O 0.98836 0.8576 0.41469 0.0
O67 O 0.04542 0.92068 0.39742 0.0
C68 C 0.04603 0.78968 0.29988 0.0
C69 C 1.0066 0.90324 0.42083 0.0
C70 C 0.66629 0.0766 0.431 0.0
C71 C 0.80169 0.14901 0.32946 0.0
O72 O 0.65193 0.11881 0.41304 0.0
Zn73 Zn 0.68044 0.1685 0.36236 0.0
O74 O 0.71196 0.05876 0.42163 0.0
Zn75 Zn 0.73574 0.11038 0.3789 0.0
O76 O 0.74647 0.18306 0.41178 0.0
O77 O 0.68551 0.23652 0.38944 0.0
O78 O 0.80616 0.10817 0.35242 0.0
O79 O 0.75649 0.17161 0.32868 0.0
O80 O 0.62832 0.1521 0.31702 0.0
O81 O 0.6869 0.09067 0.32524 0.0
C82 C 0.72657 0.2285 0.41235 0.0
C83 C 0.64604 0.10805 0.30587 0.0
C84 C 0.42354 0.558 0.43818 0.0
C85 C 0.45833 0.67964 0.32439 0.0
O86 O 0.3882 0.55138 0.40884 0.0
Zn87 Zn 0.36488 0.59719 0.35298 0.0
O88 O 0.45244 0.59871 0.43776 0.0
Zn89 Zn 0.43179 0.62621 0.38314 0.0
O90 O 0.36401 0.67668 0.3915 0.0
O91 O 0.29764 0.63198 0.36322 0.0
O92 O 0.48227 0.6746 0.36012 0.0
O93 O 0.41448 0.65461 0.31706 0.0
O94 O 0.36322 0.54456 0.30933 0.0
O95 O 0.44357 0.56322 0.33507 0.0
C96 C 0.3146 0.67299 0.3814 0.0
C97 C 0.41334 0.53756 0.30896 0.0
C98 C 0.96313 0.52163 0.39332 0.0
C99 C 0.83431 0.46713 0.28745 0.0
O100 O 0.97183 0.47511 0.38089 0.0
Zn101 Zn 0.9386 0.42238 0.33462 0.0
O102 O 0.92448 0.54631 0.37784 0.0
Zn103 Zn 0.89802 0.49298 0.34006 0.0
O104 O 0.86625 0.43181 0.38104 0.0
O105 O 0.915 0.3634 0.36961 0.0
O106 O 0.83617 0.50934 0.30863 0.0
O107 O 0.86947 0.43215 0.29339 0.0
O108 O 0.99897 0.41652 0.29378 0.0
O109 O 0.95701 0.48997 0.28891 0.0
C110 C 0.87605 0.38425 0.38942 0.0
C111 C 0.99403 0.46023 0.27524 0.0
C112 C 1.00286 0.35371 0.7674 0.0
C113 C 0.0452 0.46121 0.89227 0.0
O114 O 0.04593 0.35376 0.78884 0.0
Zn115 Zn 1.02148 0.40389 0.83041 0.0
O116 O 0.96446 0.38351 0.77824 0.0
Zn117 Zn 0.94763 0.44046 0.8286 0.0
O118 O 0.93721 0.50216 0.79377 0.0
O119 O 1.01868 0.47147 0.78844 0.0
O120 O 0.99774 0.46939 0.87934 0.0
O121 O 0.07116 0.42491 0.87474 0.0
O122 O 0.95517 0.35802 0.8585 0.0
O123 O 0.8854 0.40861 0.85637 0.0
C124 C 0.98404 0.50502 0.77753 0.0
C125 C 0.90489 0.36449 0.8644 0.0
C126 C 0.05163 0.95739 0.78567 0.0
C127 C 0.18056 0.8599 0.87061 0.0
O128 O 0.05258 0.90871 0.79233 0.0
Zn129 Zn 0.11182 0.90936 0.83245 0.0
O130 O 0.08489 0.98723 0.80537 0.0
Zn131 Zn 0.14847 0.9789 0.85158 0.0
O132 O 0.20522 1.01311 0.82044 0.0
O133 O 0.17735 0.93895 0.79146 0.0
O134 O 0.18829 0.90919 0.8744 0.0
O135 O 0.13951 0.84318 0.85092 0.0
O136 O 0.0761 0.94327 0.88966 0.0
O137 O 0.12213 1.01528 0.90101 0.0
C138 C 0.20912 0.97875 0.79117 0.0
C139 C 0.08344 0.9852 0.9113 0.0
C140 C 0.61991 0.17741 0.82361 0.0
C141 C 0.66957 0.05898 0.93563 0.0
O142 O 0.59882 0.17162 0.86098 0.0
Zn143 Zn 0.65148 0.12502 0.88057 0.0
O144 O 0.66344 0.15451 0.81352 0.0
Zn145 Zn 0.71721 0.10024 0.84532 0.0
O146 O 0.714 0.04575 0.80255 0.0
O147 O 0.63631 0.06271 0.83373 0.0
O148 O 0.70395 0.05678 0.90461 0.0
O149 O 0.63564 0.09469 0.93548 0.0
O150 O 0.71978 0.1782 0.88529 0.0
O151 O 0.78417 0.13984 0.84937 0.0
C152 C 0.66375 0.03802 0.80533 0.0
C153 C 0.76817 0.17839 0.87109 0.0
C154 C 0.29203 0.58476 0.82037 0.0
C155 C 0.39671 0.54385 0.94463 0.0
O156 O 0.27986 0.5522 0.85012 0.0
Zn157 Zn 0.33904 0.57217 0.88568 0.0
O158 O 0.33273 0.61535 0.8244 0.0
Zn159 Zn 0.39599 0.62963 0.87055 0.0
O160 O 0.45361 0.62061 0.82892 0.0
O161 O 0.4043 0.54996 0.84099 0.0
O162 O 0.41952 0.58052 0.92279 0.0
O163 O 0.34868 0.53109 0.93709 0.0
O164 O 0.31129 0.64921 0.90024 0.0
O165 O 0.38201 0.69973 0.89177 0.0
C166 C 0.4433 0.57302 0.82072 0.0
C167 C 0.33228 0.69491 0.89952 0.0
C168 C 0.93044 0.06584 0.53215 0.0
C169 C 0.94211 0.207 0.636 0.0
O170 O 0.96047 0.10596 0.53162 0.0
Zn171 Zn 0.93248 0.13987 0.582 0.0
O172 O 0.89205 0.06212 0.55995 0.0
Zn173 Zn 0.86348 0.10964 0.61272 0.0
O174 O 0.79463 0.13902 0.59818 0.0
O175 O 0.86073 0.18038 0.56491 0.0
O176 O 0.9019 0.17641 0.64256 0.0
O177 O 0.97358 0.19743 0.60449 0.0
O178 O 0.94556 0.08477 0.63393 0.0
O179 O 0.86646 0.06136 0.66092 0.0
C180 C 0.81108 0.17723 0.57528 0.0
C181 C 0.91711 0.05854 0.6613 0.0
C182 C 0.52896 0.94363 0.67539 0.0
C183 C 0.39984 0.85965 0.57823 0.0
O184 O 0.52303 0.89538 0.66783 0.0
Zn185 Zn 0.46866 0.90201 0.62404 0.0
O186 O 0.50158 0.97653 0.65428 0.0
Zn187 Zn 0.44177 0.97474 0.6045 0.0
O188 O 0.38448 1.01004 0.63264 0.0
O189 O 0.40356 0.93401 0.66181 0.0
O190 O 0.3985 0.90938 0.5765 0.0
O191 O 0.43491 0.83947 0.60203 0.0
O192 O 0.51335 0.93539 0.56971 0.0
O193 O 0.47726 1.01104 0.55799 0.0
C194 C 0.3755 0.97514 0.66106 0.0
C195 C 0.51289 0.97842 0.54871 0.0
C196 C 0.55223 0.30623 0.68423 0.0
C197 C 0.50559 0.41129 0.56022 0.0
O198 O 0.51147 0.30058 0.66032 0.0
Zn199 Zn 0.53198 0.35482 0.61991 0.0
O200 O 0.58718 0.34182 0.67577 0.0
Zn201 Zn 0.599 0.40372 0.62968 0.0
O202 O 0.59676 0.4597 0.67204 0.0
O203 O 0.51959 0.42064 0.66189 0.0
O204 O 0.54788 0.4289 0.57854 0.0
O205 O 0.48524 0.36801 0.57201 0.0
O206 O 0.60571 0.323 0.59508 0.0
O207 O 0.66604 0.38539 0.60197 0.0
C208 C 0.54724 0.45557 0.68138 0.0
C209 C 0.65432 0.339 0.59113 0.0
C210 C 0.21226 0.60964 0.64913 0.0
C211 C 0.10643 0.60806 0.52056 0.0
O212 O 0.21561 0.57722 0.61819 0.0
Zn213 Zn 0.16661 0.61339 0.58224 0.0
O214 O 0.18485 0.65076 0.64501 0.0
Zn215 Zn 0.13244 0.68507 0.59914 0.0
O216 O 0.0711 0.68922 0.63844 0.0
O217 O 0.09751 0.60908 0.62562 0.0
O218 O 0.09774 0.64935 0.54262 0.0
O219 O 0.14431 0.57877 0.53075 0.0
O220 O 0.21562 0.67884 0.56421 0.0
O221 O 0.17303 0.74821 0.58272 0.0
C222 C 0.0665 0.64052 0.64537 0.0
C223 C 0.21441 0.72835 0.56592 0.0
C224 C 0.31232 0.75505 0.12976 0.0
C225 C 0.31132 0.72096 0.09364 0.0
C226 C 0.38276 0.77384 0.05846 0.0
C227 C 0.38648 0.80549 0.09602 0.0
N228 N 0.36235 0.81831 0.17139 0.0
N229 N 0.35075 0.69292 0.02654 0.0
C230 C 0.35308 0.79417 0.13266 0.0
C231 C 0.34808 0.72898 0.05878 0.0
N232 N 0.27401 0.75036 0.16151 0.0
N233 N 0.41144 0.78748 0.02213 0.0
H234 H 0.32635 0.65964 0.02635 0.0
H235 H 0.37949 0.69378 0.00191 0.0
H236 H 0.43687 0.82003 0.02098 0.0
H237 H 0.40677 0.7694 -0.00775 0.0
H238 H 0.26817 0.7782 0.18547 0.0
H239 H 0.24561 0.72035 0.16237 0.0
H240 H 0.34409 0.80674 0.20042 0.0
H241 H 0.39176 0.84683 0.17577 0.0
C242 C 0.71918 0.18024 0.12401 0.0
C243 C 0.74646 0.17371 0.08383 0.0
C244 C 0.68824 0.23806 0.05037 0.0
C245 C 0.66489 0.2484 0.09158 0.0
N246 N 0.66644 0.23611 0.16932 0.0
N247 N 0.76089 0.1991 0.00953 0.0
C248 C 0.68207 0.22089 0.12876 0.0
C249 C 0.73213 0.2035 0.04718 0.0
N250 N 0.72907 0.14804 0.15819 0.0
N251 N 0.66746 0.26024 0.0142 0.0
H252 H 0.79134 0.17234 0.00579 0.0
H253 H 0.75655 0.22353 -0.01705 0.0
H254 H 0.63509 0.28512 0.01556 0.0
H255 H 0.6791 0.25073 0.98276 0.0
H256 H 0.70571 0.14691 0.18632 0.0
H257 H 0.75809 0.11965 0.15773 0.0
H258 H 0.6852 0.22387 0.19738 0.0
H259 H 0.63866 0.26482 0.17537 0.0
C260 C 0.23731 0.79099 0.34647 0.0
C261 C 0.20191 0.79831 0.3823 0.0
C262 C 0.24196 0.72356 0.41912 0.0
C263 C 0.27918 0.71885 0.38444 0.0
N264 N 0.32013 0.75565 0.31998 0.0
N265 N 0.1729 0.77468 0.45435 0.0
C266 C 0.27956 0.75529 0.34995 0.0
C267 C 0.20522 0.76555 0.41931 0.0
N268 N 0.22785 0.81414 0.30742 0.0
N269 N 0.2418 0.68753 0.45158 0.0
H270 H 0.14786 0.80653 0.45614 0.0
H271 H 0.1723 0.75277 0.48259 0.0
H272 H 0.26832 0.6568 0.45209 0.0
H273 H 0.21455 0.68645 0.47715 0.0
H274 H 0.2486 0.80501 0.27906 0.0
H275 H 0.19557 0.83791 0.30161 0.0
H276 H 0.32584 0.78515 0.29715 0.0
H277 H 0.35097 0.72921 0.32045 0.0
C278 C 0.85349 0.3025 0.43235 0.0
C279 C 0.83789 0.35166 0.41669 0.0
C280 C 0.74362 0.32511 0.42491 0.0
C281 C 0.75989 0.27298 0.42973 0.0
N282 N 0.82556 0.22001 0.46417 0.0
N283 N 0.77005 0.41632 0.42591 0.0
C284 C 0.81351 0.26407 0.44202 0.0
C285 C 0.78336 0.36543 0.42162 0.0
N286 N 0.90631 0.2929 0.43818 0.0
N287 N 0.69055 0.33594 0.42398 0.0
H288 H 0.79865 0.44559 0.43059 0.0
H289 H 0.73126 0.42873 0.43136 0.0
H290 H 0.66131 0.30861 0.43322 0.0
H291 H 0.67576 0.37165 0.41446 0.0
H292 H 0.92125 0.25602 0.44355 0.0
H293 H 0.93527 0.32257 0.43768 0.0
H294 H 0.86319 0.21239 0.4763 0.0
H295 H 0.79611 0.19388 0.47501 0.0
C296 C 0.83054 0.30783 0.83558 0.0
C297 C 0.86844 0.3179 0.86866 0.0
C298 C 0.84356 0.23368 0.90233 0.0
C299 C 0.8016 0.22713 0.87214 0.0
N300 N 0.75001 0.26276 0.81393 0.0
N301 N 0.9073 0.29288 0.93635 0.0
C302 C 0.79334 0.26591 0.84029 0.0
C303 C 0.874 0.28138 0.90286 0.0
N304 N 0.83254 0.33559 0.79771 0.0
N305 N 0.85505 0.19394 0.92983 0.0
H306 H 0.9297 0.3274 0.93767 0.0
H307 H 0.90943 0.27042 0.96433 0.0
H308 H 0.83285 0.15925 0.93074 0.0
H309 H 0.88845 0.19389 0.94958 0.0
H310 H 0.8103 0.3255 0.77058 0.0
H311 H 0.86062 0.36492 0.79108 0.0
H312 H 0.73831 0.2932 0.79411 0.0
H313 H 0.72318 0.23155 0.81438 0.0
C314 C 0.30356 0.77636 0.86103 0.0
C315 C 0.29662 0.74102 0.89637 0.0
C316 C 0.21303 0.78514 0.91637 0.0
C317 C 0.22283 0.82258 0.88322 0.0
N318 N 0.28391 0.85964 0.82989 0.0
N319 N 0.24753 0.71589 0.96101 0.0
C320 C 0.27056 0.82043 0.85805 0.0
C321 C 0.25211 0.74671 0.92507 0.0
N322 N 0.33759 0.7653 0.82736 0.0
N323 N 0.16588 0.7858 0.93907 0.0
H324 H 0.27422 0.68655 0.96765 0.0
H325 H 0.21968 0.7216 -0.01424 0.0
H326 H 0.13803 0.81503 0.93529 0.0
H327 H 0.15307 0.7562 0.95995 0.0
H328 H 0.33952 0.78684 0.79877 0.0
H329 H 0.35846 0.73092 0.82457 0.0
H330 H 0.32144 0.86331 0.81514 0.0
H331 H 0.25941 0.8908 0.82391 0.0
C332 C 0.68917 0.26026 0.5505 0.0
C333 C 0.69742 0.30102 0.58099 0.0
C334 C 0.788 0.26981 0.5919 0.0
C335 C 0.77569 0.22304 0.56946 0.0
N336 N 0.71156 0.17257 0.52902 0.0
N337 N 0.75114 0.33207 0.64105 0.0
C338 C 0.7252 0.21785 0.54927 0.0
C339 C 0.74597 0.30274 0.6044 0.0
N340 N 0.64813 0.26264 0.52192 0.0
N341 N 0.83929 0.28322 0.602 0.0
H342 H 0.71978 0.35195 0.65541 0.0
H343 H 0.7846 0.33038 0.66076 0.0
H344 H 0.87214 0.26342 0.59038 0.0
H345 H 0.84939 0.31862 0.6164 0.0
H346 H 0.643 0.23612 0.49679 0.0
H347 H 0.62294 0.29435 0.52032 0.0
H348 H 0.67329 0.16446 0.51766 0.0
H349 H 0.73827 0.14228 0.5255 0.0
C350 C 0.25953 0.81646 0.54812 0.0
C351 C 0.26309 0.76143 0.5531 0.0
C352 C 0.36137 0.77133 0.55582 0.0
C353 C 0.35647 0.82611 0.55804 0.0
N354 N 0.30618 0.89648 0.52846 0.0
N355 N 0.32094 0.68862 0.5372 0.0
C356 C 0.30713 0.84771 0.54585 0.0
C357 C 0.31502 0.73919 0.54954 0.0
N358 N 0.21107 0.83935 0.54446 0.0
N359 N 0.4107 0.74989 0.55811 0.0
H360 H 0.29004 0.66494 0.52627 0.0
H361 H 0.35773 0.67183 0.53114 0.0
H362 H 0.44578 0.77149 0.55268 0.0
H363 H 0.41669 0.71086 0.56508 0.0
H364 H 0.20591 0.87913 0.5484 0.0
H365 H 0.17605 0.81896 0.53732 0.0
H366 H 0.27187 0.91304 0.51622 0.0
H367 H 0.34089 0.91691 0.51955 0.0
C368 C 0.06103 0.44499 0.21177 0.0
C369 C 1.03063 0.47893 0.23888 0.0
C370 C 0.0513 0.54881 0.18758 0.0
C371 C 0.09213 0.51944 0.16721 0.0
N372 N 0.13639 0.43733 0.16188 0.0
N373 N 1.01767 0.56962 0.25811 0.0
C374 C 0.09775 0.46694 0.18038 0.0
C375 C 0.03208 0.53279 0.22859 0.0
N376 N 0.05287 0.39246 0.2133 0.0
N377 N 1.03008 0.59175 0.16888 0.0
H378 H 1.01193 0.56178 0.29092 0.0
H379 H 1.01967 0.60927 0.25121 0.0
H380 H 0.03563 0.60194 0.13656 0.0
H381 H 0.99919 0.61213 0.1836 0.0
H382 H 0.07132 0.36715 0.19177 0.0
H383 H 1.02288 0.37438 0.2317 0.0
H384 H 0.14608 0.40082 0.17373 0.0
H385 H 0.16 0.45031 0.13584 0.0
C386 C 0.99018 0.97067 0.17987 0.0
C387 C 0.93909 0.99158 0.18817 0.0
C388 C 0.95048 0.97876 0.26643 0.0
C389 C 1.00123 0.95713 0.25798 0.0
N390 N 0.06513 0.92261 0.20686 0.0
N391 N 0.86747 1.01151 0.23833 0.0
C392 C 1.02012 0.95056 0.21475 0.0
C393 C 0.91791 0.99361 0.23114 0.0
N394 N 1.0101 0.97042 0.13841 0.0
N395 N 0.93486 0.98751 0.30843 0.0
H396 H 0.84359 0.02639 0.21411 0.0
H397 H 0.84742 1.00943 0.26798 0.0
H398 H 0.95925 0.98023 0.33482 0.0
H399 H 0.89972 1.00542 0.31769 0.0
H400 H 0.04968 0.96279 0.13051 0.0
H401 H 0.98724 0.98006 0.11162 0.0
H402 H 0.07847 0.91245 0.17606 0.0
H403 H 0.08746 0.90564 0.23116 0.0
C404 C 0.61655 0.01918 0.28034 0.0
C405 C 0.61826 0.07387 0.27339 0.0
C406 C 0.56879 0.05994 0.20544 0.0
C407 C 0.57243 1.00515 0.21079 0.0
N408 N 0.61698 0.93475 0.24798 0.0
N409 N 0.60363 0.14534 0.2243 0.0
C410 C 0.60179 0.98544 0.24623 0.0
C411 C 0.59602 0.09415 0.23471 0.0
N412 N 0.62617 0.99853 0.32032 0.0
N413 N 0.54106 0.07952 0.17142 0.0
H414 H 0.6257 0.17121 0.24309 0.0
H415 H 0.59275 0.16129 0.19478 0.0
H416 H 0.52722 0.05675 0.14588 0.0
H417 H 0.53013 0.11823 0.16924 0.0
H418 H 0.61865 0.95954 0.32776 0.0
H419 H 0.63541 0.0203 0.34756 0.0
H420 H 0.64403 0.92149 0.27072 0.0
H421 H 0.60774 0.90657 0.22521 0.0
C422 C 0.49914 0.43401 0.25704 0.0
C423 C 0.49034 0.44349 0.21235 0.0
C424 C 0.43283 0.51618 0.23105 0.0
C425 C 0.43776 0.50371 0.2757 0.0
N426 N 0.46699 0.44474 0.33084 0.0
N427 N 0.4405 0.48638 0.15686 0.0
C428 C 0.46844 0.46082 0.28861 0.0
C429 C 0.45473 0.48251 0.19934 0.0
N430 N 0.53851 0.40127 0.26943 0.0
N431 N 0.40958 0.56145 0.21885 0.0
H432 H 0.45483 0.46155 0.13292 0.0
H433 H 0.41068 0.51074 0.14609 0.0
H434 H 0.39383 0.58786 0.24089 0.0
H435 H 0.41049 0.57528 0.18711 0.0
H436 H 0.5506 0.39735 0.30142 0.0
H437 H 0.56258 0.3815 0.24743 0.0
H438 H 0.48445 0.4107 0.34148 0.0
H439 H 0.44387 0.46279 0.35455 0.0
C440 C 0.06327 0.61576 0.72329 0.0
C441 C 0.0362 0.61972 0.68336 0.0
C442 C 0.97141 0.55261 0.70672 0.0
C443 C 0.99949 0.54703 0.74627 0.0
N444 N 0.06701 0.57867 0.79534 0.0
N445 N 0.95755 0.60426 0.64182 0.0
C446 C 0.04381 0.58043 0.75552 0.0
C447 C 0.98781 0.59212 0.67676 0.0
N448 N 0.10904 0.64441 0.7295 0.0
N449 N 0.93169 0.51785 0.69631 0.0
H450 H 0.9688 0.63407 0.62042 0.0
H451 H 0.91945 0.58889 0.63655 0.0
H452 H 0.91946 0.48736 0.71656 0.0
H453 H 0.91375 0.51645 0.66608 0.0
H454 H 0.13556 0.63826 0.75458 0.0
H455 H 0.12128 0.67426 0.70859 0.0
H456 H 0.09514 0.60566 0.8063 0.0
H457 H 0.05602 0.5515 0.81887 0.0
C458 C 0.98076 0.02239 0.76831 0.0
C459 C 1.01298 0.98023 0.75487 0.0
C460 C 0.97143 0.98253 0.68315 0.0
C461 C 0.94455 0.02833 0.69502 0.0
N462 N 0.92771 0.09583 0.74715 0.0
N463 N 0.04578 0.92634 0.69663 0.0
C464 C 0.94997 0.04916 0.73725 0.0
C465 C 1.0098 0.96153 0.7116 0.0
N466 N 0.97849 0.03621 0.811 0.0
N467 N 0.95982 0.95884 0.64473 0.0
H468 H 0.0761 0.91151 0.71557 0.0
H469 H 0.04905 0.91576 0.66417 0.0
H470 H 0.93178 0.97334 0.62331 0.0
H471 H 0.97413 0.92258 0.636 0.0
H472 H 0.95104 0.06224 0.82357 0.0
H473 H 1.00105 0.01854 0.83471 0.0
H474 H 0.93602 0.11642 0.77536 0.0
H475 H 0.90363 0.11596 0.72579 0.0
C476 C 0.59892 0.96751 0.78314 0.0
C477 C 0.63489 1.00846 0.77124 0.0
C478 C 0.60788 0.99943 0.69542 0.0
C479 C 0.56759 0.96283 0.70813 0.0
N480 N 0.51907 0.91779 0.76531 0.0
N481 N 0.66591 0.07042 0.71698 0.0
C482 C 0.56183 0.94795 0.75229 0.0
C483 C 0.63782 0.026 0.72754 0.0
N484 N 0.60064 0.94696 0.82389 0.0
N485 N 0.61805 1.00851 0.65246 0.0
H486 H 0.68736 0.09254 0.73924 0.0
H487 H 0.66363 0.08846 0.68684 0.0
H488 H 0.59625 0.99071 0.62795 0.0
H489 H 0.651 0.03001 0.64111 0.0
H490 H 0.57945 0.91358 0.83336 0.0
H491 H 0.6271 0.96077 0.84714 0.0
H492 H 0.50936 0.91063 0.7977 0.0
H493 H 0.49037 0.9035 0.74401 0.0
C494 C 0.54646 0.53313 0.734 0.0
C495 C 0.52149 0.4873 0.71678 0.0
C496 C 0.44236 0.50789 0.75995 0.0
C497 C 0.47114 0.54534 0.78439 0.0
N498 N 0.55772 0.58461 0.79889 0.0
N499 N 0.44895 0.42328 0.7297 0.0
C500 C 0.52546 0.55537 0.77284 0.0
C501 C 0.47056 0.47203 0.73455 0.0
N502 N 0.58782 0.55768 0.71272 0.0
N503 N 0.388 0.50763 0.75874 0.0
H504 H 0.46924 0.39172 0.71734 0.0
H505 H 0.4129 0.41221 0.74466 0.0
H506 H 0.36579 0.53755 0.77176 0.0
H507 H 0.36636 0.48238 0.73886 0.0
H508 H 0.6043 0.59278 0.72344 0.0
H509 H 0.60014 0.54792 0.68153 0.0
H510 H 0.59858 0.58929 0.79283 0.0
H511 H 0.54527 0.59872 0.82888 0.0
C512 C 0.07153 0.75971 0.18478 0.0
C513 C 0.10088 0.71305 0.18742 0.0
C514 C 0.08725 0.71286 0.26654 0.0
C515 C 0.05365 0.75579 0.26248 0.0
N516 N 1.0032 0.81264 0.21762 0.0
N517 N 0.12506 0.63854 0.23222 0.0
C518 C 0.04175 0.77616 0.22134 0.0
C519 C 0.10556 0.68756 0.22863 0.0
N520 N 0.07556 0.79082 0.14891 0.0
N521 N 0.10328 0.69721 0.30665 0.0
H522 H 0.13576 0.61529 0.2064 0.0
H523 H 0.12436 0.61766 0.26117 0.0
H524 H 0.08823 0.71285 0.33536 0.0
H525 H 0.1341 0.67124 0.31132 0.0
H526 H 0.05725 0.82666 0.14669 0.0
H527 H 0.10279 0.78455 0.12378 0.0
H528 H 0.98972 0.82597 0.18786 0.0
H529 H 0.98118 0.82552 0.24432 0.0
C530 C 0.91863 0.14531 0.25185 0.0
C531 C 0.89693 0.17894 0.22049 0.0
C532 C 0.83764 0.21412 0.27521 0.0
C533 C 0.8459 0.16915 0.30059 0.0
N534 N 0.9149 0.11368 0.32632 0.0
N535 N 0.84274 0.25175 0.20325 0.0
C536 C 0.89326 0.1412 0.2933 0.0
C537 C 0.85961 0.21644 0.23283 0.0
N538 N 0.96146 0.11595 0.24079 0.0
N539 N 0.81163 0.25528 0.29254 0.0
H540 H 0.85994 0.25484 0.17233 0.0
H541 H 0.81088 0.27626 0.20899 0.0
H542 H 0.79949 0.25598 0.32502 0.0
H543 H 0.80972 0.2908 0.27662 0.0
H544 H 0.9778 0.08803 0.26075 0.0
H545 H 0.98099 0.12026 0.21088 0.0
H546 H 0.95087 0.09436 0.32391 0.0
H547 H 0.89982 0.1155 0.35791 0.0
C548 C 0.50041 0.69372 0.25185 0.0
C549 C 0.48074 0.71466 0.29114 0.0
C550 C 0.50311 0.80238 0.26616 0.0
C551 C 0.51738 0.78186 0.22491 0.0
N552 N 0.51678 0.70867 0.17566 0.0
N553 N 0.45564 0.78858 0.33411 0.0
C554 C 0.51298 0.72764 0.21693 0.0
C555 C 0.48023 0.7689 0.29804 0.0
N556 N 0.50796 0.6415 0.24813 0.0
N557 N 0.51203 0.8537 0.27519 0.0
H558 H 0.4387 0.7653 0.3585 0.0
H559 H 0.44802 0.82788 0.33823 0.0
H560 H 0.52661 0.88029 0.25243 0.0
H561 H 0.50875 0.86928 0.30621 0.0
H562 H 0.52719 0.62473 0.22165 0.0
H563 H 0.49965 0.61546 0.27332 0.0
H564 H 0.50791 0.67015 0.16783 0.0
H565 H 0.52306 0.73206 0.14845 0.0
C566 C 0.7333 0.4853 0.19845 0.0
C567 C 0.7128 0.43365 0.19432 0.0
C568 C 0.76146 0.40984 0.25919 0.0
C569 C 0.79073 0.45727 0.2568 0.0
N570 N 0.81025 0.53738 0.21813 0.0
N571 N 0.71877 0.34363 0.21642 0.0
C572 C 0.77843 0.49438 0.22469 0.0
C573 C 0.72972 0.39491 0.22367 0.0
N574 N 0.70825 0.52618 0.17979 0.0
N575 N 0.76272 0.37972 0.29559 0.0
H576 H 0.70421 0.33026 0.187 0.0
H577 H 0.73111 0.3142 0.23697 0.0
H578 H 0.78439 0.39026 0.32294 0.0
H579 H 0.73733 0.34756 0.30016 0.0
H580 H 0.72022 0.56465 0.18494 0.0
H581 H 0.67151 0.52251 0.1645 0.0
H582 H 0.80482 0.56285 0.19232 0.0
H583 H 0.84508 0.54465 0.23543 0.0
C584 C 0.9912 0.29124 0.65641 0.0
C585 C 0.95273 0.25124 0.66653 0.0
C586 C 0.95542 0.27494 0.74278 0.0
C587 C 0.99286 0.31506 0.73329 0.0
N588 N 0.04174 0.36723 0.68118 0.0
N589 N 0.87836 0.23042 0.71526 0.0
C590 C 1.00983 0.32478 0.69005 0.0
C591 C 0.92878 0.25015 0.7085 0.0
N592 N 1.00747 0.29909 0.6145 0.0
N593 N 0.94483 0.26065 0.78467 0.0
H594 H 0.85226 0.22238 0.69002 0.0
H595 H 0.85907 0.23153 0.74537 0.0
H596 H 0.96535 0.27682 0.81071 0.0
H597 H 0.92031 0.22882 0.79279 0.0
H598 H 0.04081 0.32149 0.60555 0.0
H599 H 0.98605 0.28458 0.58828 0.0
H600 H 0.05159 0.38006 0.65008 0.0
H601 H 0.057 0.39128 0.70542 0.0
C602 C 0.34628 0.99137 0.73713 0.0
C603 C 0.33261 0.98134 0.69354 0.0
C604 C 0.23769 0.97957 0.7132 0.0
C605 C 0.2516 0.98308 0.75757 0.0
N606 N 0.31981 0.98489 0.81254 0.0
N607 N 0.26658 0.9592 0.64007 0.0
C608 C 0.30607 0.9875 0.76984 0.0
C609 C 0.27862 0.97382 0.68145 0.0
N610 N 0.39763 1.00525 0.74717 0.0
N611 N 0.1855 0.98349 0.70131 0.0
H612 H 0.29545 0.95531 0.61571 0.0
H613 H 0.22855 0.94706 0.63069 0.0
H614 H 0.15454 0.98931 0.72357 0.0
H615 H 0.17344 0.98608 0.66922 0.0
H616 H 0.40896 0.01851 0.77762 0.0
H617 H 0.42825 1.00799 0.72401 0.0
H618 H 0.35902 0.98163 0.82286 0.0
H619 H 0.29209 0.98102 0.83781 0.0
C620 C 0.59504 0.26451 0.79581 0.0
C621 C 0.59434 0.20994 0.79104 0.0
C622 C 0.56258 0.21758 0.71682 0.0
C623 C 0.56093 0.27229 0.722 0.0
N624 N 0.56414 0.34687 0.76955 0.0
N625 N 0.56384 0.13392 0.75253 0.0
C626 C 0.57349 0.29544 0.76256 0.0
C627 C 0.57366 0.18627 0.75327 0.0
N628 N 0.61865 0.28697 0.83104 0.0
N629 N 0.55743 0.19562 0.67675 0.0
H630 H 0.5704 0.11012 0.77923 0.0
H631 H 0.54421 0.11513 0.72727 0.0
H632 H 0.55111 0.21698 0.64866 0.0
H633 H 0.56452 0.15655 0.67071 0.0
H634 H 0.62652 0.3267 0.8335 0.0
H635 H 0.63422 0.2656 0.85652 0.0
H636 H 0.56689 0.3644 0.79984 0.0
H637 H 0.54899 0.37117 0.74596 0.0
C638 C 0.25857 0.63794 0.76085 0.0
C639 C 0.2622 0.58806 0.7796 0.0
C640 C 0.22593 0.55072 0.71326 0.0
C641 C 0.23452 0.59933 0.69208 0.0
N642 N 0.27168 0.68667 0.69503 0.0
N643 N 0.25625 0.49441 0.76993 0.0
C644 C 0.25489 0.64221 0.71566 0.0
C645 C 0.24763 0.54345 0.75502 0.0
N646 N 0.25762 0.68117 0.78632 0.0
N647 N 0.19484 0.51255 0.69522 0.0
H648 H 0.27309 0.48628 0.79973 0.0
H649 H 0.25111 0.46163 0.75053 0.0
H650 H 0.17509 0.51679 0.66599 0.0
H651 H 0.18374 0.47873 0.71192 0.0
H652 H 0.25122 0.71819 0.77388 0.0
H653 H 0.25652 0.67876 0.82007 0.0
H654 H 0.29007 0.71747 0.71135 0.0
H655 H 0.27293 0.69014 0.66133 0.0
C656 C 0.14346 0.50511 0.97886 0.0
C657 C 0.13936 0.55989 0.97664 0.0
C658 C 0.07134 0.55107 0.92059 0.0
C659 C 0.07219 0.49582 0.92474 0.0
N660 N 0.10094 0.42153 0.96542 0.0
N661 N 0.12075 0.63183 0.93025 0.0
C662 C 0.10645 0.47319 0.95576 0.0
C663 C 0.10971 0.58185 0.94284 0.0
N664 N 0.1852 0.48354 -2e-05 0.0
N665 N 0.03253 0.57524 0.89776 0.0
H666 H 0.15175 0.65366 0.94394 0.0
H667 H 0.10454 0.64872 0.90279 0.0
H668 H 1.00158 0.55636 0.88186 0.0
H669 H 1.02765 0.61532 0.89833 0.0
H670 H 0.1926 0.4439 -3e-05 0.0
H671 H 0.21723 0.5057 0.01145 0.0
H672 H 0.12066 0.40382 -0.00916 0.0
H673 H 0.0718 0.39762 0.9515 0.0
C674 C 0.0695 0.01858 -0.01318 0.0
C675 C 0.04693 1.00059 0.94744 0.0
C676 C 0.96157 0.03993 0.96739 0.0
C677 C 0.98397 0.05767 0.00668 0.0
N678 N 0.05468 0.05272 0.05901 0.0
N679 N 0.96617 0.97884 0.90831 0.0
C680 C 0.03674 0.04393 0.01792 0.0
C681 C 0.99131 1.00628 0.94019 0.0
N682 N 0.12238 1.01094 -0.00535 0.0
N683 N 0.91263 0.05694 0.9551 0.0
H684 H 0.98519 0.95232 0.88839 0.0
H685 H 0.92488 0.97804 0.90466 0.0
H686 H 0.88988 0.082 0.974 0.0
H687 H 0.89692 0.05028 0.92446 0.0
H688 H 0.14329 0.02954 0.0193 0.0
H689 H 0.14593 0.98683 0.97552 0.0
H690 H 0.09034 0.03841 0.07068 0.0
H691 H 0.03191 0.07042 0.08308 0.0
C692 C 0.62454 0.93399 -0.01171 0.0
C693 C 0.6148 0.95133 0.03116 0.0
C694 C 0.65737 0.03545 0.01371 0.0
C695 C 0.6652 0.01884 0.97037 0.0
N696 N 0.67571 0.94598 0.92193 0.0
N697 N 0.63808 1.01145 0.08816 0.0
C698 C 0.65534 0.96598 0.9594 0.0
C699 C 0.63615 0.99998 0.04499 0.0
N700 N 0.6021 0.88831 0.97435 0.0
N701 N 0.66963 0.08556 0.02474 0.0
H702 H 0.62537 0.98533 0.11202 0.0
H703 H 0.6574 0.04424 0.10058 0.0
H704 H 0.69031 0.11079 0.00374 0.0
H705 H 0.65771 0.10247 0.05382 0.0
H706 H 0.60258 0.87677 0.94202 0.0
H707 H 0.57903 0.86395 -0.00559 0.0
H708 H 0.67337 0.90663 0.91429 0.0
H709 H 0.7005 0.96713 0.90089 0.0
C710 C 0.44727 0.53384 0.0134 0.0
C711 C 0.42873 0.51205 0.97422 0.0
C712 C 0.47581 0.43129 -0.01051 0.0
C713 C 0.49929 0.45544 0.02592 0.0
N714 N 0.51032 0.5306 0.0721 0.0
N715 N 0.42917 0.44245 0.92184 0.0
C716 C 0.48575 0.50697 0.03782 0.0
C717 C 0.44353 0.46115 0.96158 0.0
N718 N 0.42672 0.57953 0.02782 0.0
N719 N 0.48453 0.37993 0.98153 0.0
H720 H 0.40546 0.46286 0.9004 0.0
H721 H 0.44388 0.40839 0.90858 0.0
H722 H 0.50955 0.35755 0.00048 0.0
H723 H 0.46405 0.35848 0.95826 0.0
H724 H 0.43391 0.59505 0.05836 0.0
H725 H 0.39843 0.59979 0.01043 0.0
H726 H 0.50728 0.56997 0.07905 0.0
H727 H 0.53619 0.51154 0.09268 0.0
C728 C 0.93249 0.96161 0.44432 0.0
C729 C 0.98216 0.93819 0.45329 0.0
C730 C 0.9922 0.9925 0.51793 0.0
C731 C 0.94588 0.02005 0.50613 0.0
N732 N 0.87288 0.03356 0.45771 0.0
N733 N 0.06041 0.93124 0.49731 0.0
C734 C 0.9158 1.00492 0.46951 0.0
C735 C 1.01214 0.95343 0.48992 0.0
N736 N 0.90157 0.94269 0.4115 0.0
N737 N 1.01636 1.0029 0.55656 0.0
H738 H 0.0745 0.89999 0.4793 0.0
H739 H 0.08771 0.94507 0.51988 0.0
H740 H 1.00356 0.03171 0.5777 0.0
H741 H 0.04639 0.98046 0.56952 0.0
H742 H 0.86279 0.95446 0.40577 0.0
H743 H 0.9133 0.91241 0.39138 0.0
H744 H 0.85266 0.02871 0.4287 0.0
H745 H 0.85922 0.06482 0.47592 0.0
C746 C 0.64479 0.02275 0.4981 0.0
C747 C 0.62746 0.04671 0.45931 0.0
C748 C 0.53549 1.01551 0.47535 0.0
C749 C 0.55323 0.99177 0.51398 0.0
N750 N 0.62828 0.95604 0.55191 0.0
N751 N 0.55728 0.05433 0.40599 0.0
C752 C 0.60891 0.98988 0.52213 0.0
C753 C 0.57307 0.03989 0.44649 0.0
N754 N 0.69461 0.03354 0.51371 0.0
N755 N 0.48223 1.01444 0.46603 0.0
H756 H 0.58177 0.07313 0.38337 0.0
H757 H 0.52054 0.04379 0.39292 0.0
H758 H 0.45466 0.99051 0.48247 0.0
H759 H 0.46512 0.03821 0.44289 0.0
H760 H 0.70669 0.02222 0.54445 0.0
H761 H 0.72207 0.05831 0.49823 0.0
H762 H 0.66894 0.94997 0.55586 0.0
H763 H 0.60452 0.92939 0.56898 0.0
C764 C 0.50506 0.44907 0.48574 0.0
C765 C 0.47965 0.4429 0.52664 0.0
C766 C 0.40983 0.50339 0.50514 0.0
C767 C 0.43917 0.51458 0.46665 0.0
N768 N 0.51638 0.50076 0.42062 0.0
N769 N 0.40997 0.46575 0.57736 0.0
C770 C 0.48707 0.48786 0.45688 0.0
C771 C 0.43212 0.46995 0.53676 0.0
N772 N 0.54576 0.417 0.47423 0.0
N773 N 0.36099 0.5251 0.5115 0.0
H774 H 0.42478 0.44131 0.60117 0.0
H775 H 0.37904 0.48877 0.58855 0.0
H776 H 0.3445 0.55072 0.48935 0.0
H777 H 0.33509 0.51493 0.53686 0.0
H778 H 0.5624 0.41558 0.4432 0.0
H779 H 0.55991 0.38825 0.49477 0.0
H780 H 0.55479 0.48767 0.41453 0.0
H781 H 0.50361 0.52704 0.39742 0.0
C782 C 0.05337 0.55672 0.41377 0.0
C783 C 0.99896 0.5467 0.42504 0.0
C784 C 1.01509 0.57709 0.4989 0.0
C785 C 0.06854 0.59053 0.48689 0.0
N786 N 0.13677 0.60022 0.43174 0.0
N787 N 0.92571 0.55364 0.47616 0.0
C788 C 0.08713 0.58237 0.44392 0.0
C789 C 0.979 0.5594 0.46678 0.0
N790 N 0.07313 0.54086 0.37457 0.0
N791 N 0.99981 0.57725 0.54156 0.0
H792 H 0.89837 0.53674 0.45497 0.0
H793 H 0.9079 0.56864 0.50399 0.0
H794 H 1.02529 0.58822 0.56642 0.0
H795 H 0.96358 0.56176 0.5529 0.0
H796 H 0.11359 0.54149 0.36647 0.0
H797 H 0.04959 0.52362 0.35084 0.0
H798 H 0.15048 0.60155 0.39977 0.0
H799 H 0.16299 0.61754 0.45346 0.0
loop_
_geom_bond_atom_site_label_1
_geom_bond_atom_site_label_2
_geom_bond_distance
_geom_bond_site_symmetry_2
_ccdc_geom_bond_type
C0 O2 1.245 1_455 S
C0 O4 1.265 . S
C1 O8 1.247 . S
C1 O9 1.258 . S
O2 C0 1.245 1_655 S
O2 Zn3 2.028 1_655 S
Zn3 O2 2.028 1_455 S
Zn3 O7 2.035 . S
Zn3 O9 2.035 . S
Zn3 O10 2.028 . S
O4 C0 1.265 . S
O4 Zn5 2.035 . S
Zn5 O4 2.035 . S
Zn5 O6 2.028 . S
Zn5 O8 2.028 . S
Zn5 O11 2.035 . S
O6 Zn5 2.028 . S
O6 C12 1.247 . S
O7 Zn3 2.035 . S
O7 C12 1.258 . S
O8 C1 1.247 . S
O8 Zn5 2.028 . S
O9 C1 1.258 . S
O9 Zn3 2.035 . S
O10 Zn3 2.028 . S
O10 C13 1.247 . S
O11 Zn5 2.035 . S
O11 C13 1.258 . S
C12 O6 1.247 . S
C12 O7 1.258 . S
C13 O10 1.247 . S
C13 O11 1.258 . S
C14 O16 1.247 . S
C14 O18 1.258 . S
C15 O22 1.247 . S
C15 O23 1.258 . S
O16 C14 1.247 . S
O16 Zn17 2.028 . S
Zn17 O16 2.028 . S
Zn17 O21 2.035 . S
Zn17 O23 2.035 . S
Zn17 O24 2.028 . S
O18 C14 1.258 . S
O18 Zn19 2.035 . S
Zn19 O18 2.035 . S
Zn19 O20 2.028 . S
Zn19 O22 2.028 . S
Zn19 O25 2.035 1_545 S
O20 Zn19 2.028 . S
O20 C26 1.247 . S
O21 Zn17 2.035 . S
O21 C26 1.258 . S
O22 C15 1.247 . S
O22 Zn19 2.028 . S
O23 C15 1.258 . S
O23 Zn17 2.035 . S
O24 Zn17 2.028 . S
O24 C27 1.259 . S
O25 Zn19 2.035 1_565 S
O25 C27 1.255 1_565 S
C26 O20 1.247 . S
C26 O21 1.258 . S
C27 O24 1.259 . S
C27 O25 1.255 1_545 S
C28 O30 1.247 . S
C28 O32 1.258 . S
C29 O36 1.247 . S
C29 O37 1.258 . S
O30 C28 1.247 . S
O30 Zn31 2.028 . S
Zn31 O30 2.028 . S
Zn31 O35 2.035 . S
Zn31 O37 2.035 . S
Zn31 O38 2.028 . S
O32 C28 1.258 . S
O32 Zn33 2.035 . S
Zn33 O32 2.035 . S
Zn33 O34 2.028 . S
Zn33 O36 2.028 . S
Zn33 O39 2.035 . S
O34 Zn33 2.028 . S
O34 C40 1.247 . S
O35 Zn31 2.035 . S
O35 C40 1.258 . S
O36 C29 1.247 . S
O36 Zn33 2.028 . S
O37 C29 1.258 . S
O37 Zn31 2.035 . S
O38 Zn31 2.028 . S
O38 C41 1.247 . S
O39 Zn33 2.035 . S
O39 C41 1.258 . S
C40 O34 1.247 . S
C40 O35 1.258 . S
C41 O38 1.247 . S
C41 O39 1.258 . S
C42 O44 1.247 . S
C42 O46 1.258 . S
C43 O50 1.247 . S
C43 O51 1.258 . S
O44 C42 1.247 . S
O44 Zn45 2.028 . S
Zn45 O44 2.028 . S
Zn45 O49 2.035 . S
Zn45 O51 2.035 . S
Zn45 O52 2.028 . S
O46 C42 1.258 . S
O46 Zn47 2.035 . S
Zn47 O46 2.035 . S
Zn47 O48 2.028 . S
Zn47 O50 2.028 . S
Zn47 O53 2.035 . S
O48 Zn47 2.028 . S
O48 C54 1.247 . S
O49 Zn45 2.035 . S
O49 C54 1.258 . S
O50 C43 1.247 . S
O50 Zn47 2.028 . S
O51 C43 1.258 . S
O51 Zn45 2.035 . S
O52 Zn45 2.028 . S
O52 C55 1.247 . S
O53 Zn47 2.035 . S
O53 C55 1.258 . S
C54 O48 1.247 . S
C54 O49 1.258 . S
C55 O52 1.247 . S
C55 O53 1.258 . S
C56 O58 1.245 1_455 S
C56 O60 1.265 . S
C57 O64 1.247 . S
C57 O65 1.258 . S
O58 C56 1.245 1_655 S
O58 Zn59 2.028 1_655 S
Zn59 O58 2.028 1_455 S
Zn59 O63 2.035 . S
Zn59 O65 2.035 . S
Zn59 O66 2.028 . S
O60 C56 1.265 . S
O60 Zn61 2.035 . S
Zn61 O60 2.035 . S
Zn61 O62 2.028 . S
Zn61 O64 2.028 . S
Zn61 O67 2.035 . S
O62 Zn61 2.028 . S
O62 C68 1.247 . S
O63 Zn59 2.035 . S
O63 C68 1.258 . S
O64 C57 1.247 . S
O64 Zn61 2.028 . S
O65 C57 1.258 . S
O65 Zn59 2.035 . S
O66 Zn59 2.028 . S
O66 C69 1.247 . S
O67 Zn61 2.035 . S
O67 C69 1.258 . S
C68 O62 1.247 . S
C68 O63 1.258 . S
C69 O66 1.247 . S
C69 O67 1.258 . S
C70 O72 1.247 . S
C70 O74 1.258 . S
C71 O78 1.247 . S
C71 O79 1.258 . S
O72 C70 1.247 . S
O72 Zn73 2.028 . S
Zn73 O72 2.028 . S
Zn73 O77 2.035 . S
Zn73 O79 2.035 . S
Zn73 O80 2.028 . S
O74 C70 1.258 . S
O74 Zn75 2.035 . S
Zn75 O74 2.035 . S
Zn75 O76 2.028 . S
Zn75 O78 2.028 . S
Zn75 O81 2.035 1_545 S
O76 Zn75 2.028 . S
O76 C82 1.247 . S
O77 Zn73 2.035 . S
O77 C82 1.258 . S
O78 C71 1.247 . S
O78 Zn75 2.028 . S
O79 C71 1.258 . S
O79 Zn73 2.035 . S
O80 Zn73 2.028 . S
O80 C83 1.259 . S
O81 Zn75 2.035 1_565 S
O81 C83 1.255 1_565 S
C82 O76 1.247 . S
C82 O77 1.258 . S
C83 O80 1.259 . S
C83 O81 1.255 1_545 S
C84 O86 1.247 . S
C84 O88 1.258 . S
C85 O92 1.247 . S
C85 O93 1.258 . S
O86 C84 1.247 . S
O86 Zn87 2.028 . S
Zn87 O86 2.028 . S
Zn87 O91 2.035 . S
Zn87 O93 2.035 . S
Zn87 O94 2.028 . S
O88 C84 1.258 . S
O88 Zn89 2.035 . S
Zn89 O88 2.035 . S
Zn89 O90 2.028 . S
Zn89 O92 2.028 . S
Zn89 O95 2.035 . S
O90 Zn89 2.028 . S
O90 C96 1.247 . S
O91 Zn87 2.035 . S
O91 C96 1.258 . S
O92 C85 1.247 . S
O92 Zn89 2.028 . S
O93 C85 1.258 . S
O93 Zn87 2.035 . S
O94 Zn87 2.028 . S
O94 C97 1.247 . S
O95 Zn89 2.035 . S
O95 C97 1.258 . S
C96 O90 1.247 . S
C96 O91 1.258 . S
C97 O94 1.247 . S
C97 O95 1.258 . S
C98 O100 1.247 . S
C98 O102 1.258 . S
C99 O106 1.247 . S
C99 O107 1.258 . S
O100 C98 1.247 . S
O100 Zn101 2.028 . S
Zn101 O100 2.028 . S
Zn101 O105 2.035 . S
Zn101 O107 2.035 . S
Zn101 O108 2.028 . S
O102 C98 1.258 . S
O102 Zn103 2.035 . S
Zn103 O102 2.035 . S
Zn103 O104 2.028 . S
Zn103 O106 2.028 . S
Zn103 O109 2.035 . S
O104 Zn103 2.028 . S
O104 C110 1.247 . S
O105 Zn101 2.035 . S
O105 C110 1.258 . S
O106 C99 1.247 . S
O106 Zn103 2.028 . S
O107 C99 1.258 . S
O107 Zn101 2.035 . S
O108 Zn101 2.028 . S
O108 C111 1.247 . S
O109 Zn103 2.035 . S
O109 C111 1.258 . S
C110 O104 1.247 . S
C110 O105 1.258 . S
C111 O108 1.247 . S
C111 O109 1.258 . S
C112 O114 1.247 . S
C112 O116 1.258 . S
C113 O120 1.247 . S
C113 O121 1.258 . S
O114 C112 1.247 . S
O114 Zn115 2.028 . S
Zn115 O114 2.028 . S
Zn115 O119 2.035 1_655 S
Zn115 O121 2.035 . S
Zn115 O122 2.028 . S
O116 C112 1.258 . S
O116 Zn117 2.035 . S
Zn117 O116 2.035 . S
Zn117 O118 2.028 . S
Zn117 O120 2.028 . S
Zn117 O123 2.035 . S
O118 Zn117 2.028 . S
O118 C124 1.259 . S
O119 Zn115 2.035 1_455 S
O119 C124 1.255 1_455 S
O120 C113 1.247 . S
O120 Zn117 2.028 . S
O121 C113 1.258 . S
O121 Zn115 2.035 . S
O122 Zn115 2.028 . S
O122 C125 1.247 . S
O123 Zn117 2.035 . S
O123 C125 1.258 . S
C124 O118 1.259 . S
C124 O119 1.255 1_655 S
C125 O122 1.247 . S
C125 O123 1.258 . S
C126 O128 1.259 . S
C126 O130 1.255 1_565 S
C127 O134 1.247 . S
C127 O135 1.258 . S
O128 C126 1.259 . S
O128 Zn129 2.028 . S
Zn129 O128 2.028 . S
Zn129 O133 2.035 . S
Zn129 O135 2.035 . S
Zn129 O136 2.028 . S
O130 C126 1.255 1_545 S
O130 Zn131 2.035 1_545 S
Zn131 O130 2.035 1_565 S
Zn131 O132 2.028 . S
Zn131 O134 2.028 . S
Zn131 O137 2.035 . S
O132 Zn131 2.028 . S
O132 C138 1.247 . S
O133 Zn129 2.035 . S
O133 C138 1.258 . S
O134 C127 1.247 . S
O134 Zn131 2.028 . S
O135 C127 1.258 . S
O135 Zn129 2.035 . S
O136 Zn129 2.028 . S
O136 C139 1.247 . S
O137 Zn131 2.035 . S
O137 C139 1.258 . S
C138 O132 1.247 . S
C138 O133 1.258 . S
C139 O136 1.247 . S
C139 O137 1.258 . S
C140 O142 1.247 . S
C140 O144 1.258 . S
C141 O148 1.247 . S
C141 O149 1.258 . S
O142 C140 1.247 . S
O142 Zn143 2.028 . S
Zn143 O142 2.028 . S
Zn143 O147 2.035 . S
Zn143 O149 2.035 . S
Zn143 O150 2.028 . S
O144 C140 1.258 . S
O144 Zn145 2.035 . S
Zn145 O144 2.035 . S
Zn145 O146 2.028 . S
Zn145 O148 2.028 . S
Zn145 O151 2.035 . S
O146 Zn145 2.028 . S
O146 C152 1.247 . S
O147 Zn143 2.035 . S
O147 C152 1.258 . S
O148 C141 1.247 . S
O148 Zn145 2.028 . S
O149 C141 1.258 . S
O149 Zn143 2.035 . S
O150 Zn143 2.028 . S
O150 C153 1.247 . S
O151 Zn145 2.035 . S
O151 C153 1.258 . S
C152 O146 1.247 . S
C152 O147 1.258 . S
C153 O150 1.247 . S
C153 O151 1.258 . S
C154 O156 1.247 . S
C154 O158 1.258 . S
C155 O162 1.247 . S
C155 O163 1.258 . S
O156 C154 1.247 . S
O156 Zn157 2.028 . S
Zn157 O156 2.028 . S
Zn157 O161 2.035 . S
Zn157 O163 2.035 . S
Zn157 O164 2.028 . S
O158 C154 1.258 . S
O158 Zn159 2.035 . S
Zn159 O158 2.035 . S
Zn159 O160 2.028 . S
Zn159 O162 2.028 . S
Zn159 O165 2.035 . S
O160 Zn159 2.028 . S
O160 C166 1.247 . S
O161 Zn157 2.035 . S
O161 C166 1.258 . S
O162 C155 1.247 . S
O162 Zn159 2.028 . S
O163 C155 1.258 . S
O163 Zn157 2.035 . S
O164 Zn157 2.028 . S
O164 C167 1.247 . S
O165 Zn159 2.035 . S
O165 C167 1.258 . S
C166 O160 1.247 . S
C166 O161 1.258 . S
C167 O164 1.247 . S
C167 O165 1.258 . S
C168 O170 1.247 . S
C168 O172 1.258 . S
C169 O176 1.247 . S
C169 O177 1.258 . S
O170 C168 1.247 . S
O170 Zn171 2.028 . S
Zn171 O170 2.028 . S
Zn171 O175 2.035 . S
Zn171 O177 2.035 . S
Zn171 O178 2.028 1_655 S
O172 C168 1.258 . S
O172 Zn173 2.035 . S
Zn173 O172 2.035 . S
Zn173 O174 2.028 . S
Zn173 O176 2.028 . S
Zn173 O179 2.035 . S
O174 Zn173 2.028 . S
O174 C180 1.247 . S
O175 Zn171 2.035 . S
O175 C180 1.258 . S
O176 C169 1.247 . S
O176 Zn173 2.028 . S
O177 C169 1.258 . S
O177 Zn171 2.035 . S
O178 Zn171 2.028 1_455 S
O178 C181 1.245 1_455 S
O179 Zn173 2.035 . S
O179 C181 1.265 . S
C180 O174 1.247 . S
C180 O175 1.258 . S
C181 O178 1.245 1_655 S
C181 O179 1.265 . S
C182 O184 1.259 . S
C182 O186 1.255 1_565 S
C183 O190 1.247 . S
C183 O191 1.258 . S
O184 C182 1.259 . S
O184 Zn185 2.028 . S
Zn185 O184 2.028 . S
Zn185 O189 2.035 . S
Zn185 O191 2.035 . S
Zn185 O192 2.028 . S
O186 C182 1.255 1_545 S
O186 Zn187 2.035 1_545 S
Zn187 O186 2.035 1_565 S
Zn187 O188 2.028 . S
Zn187 O190 2.028 . S
Zn187 O193 2.035 . S
O188 Zn187 2.028 . S
O188 C194 1.247 . S
O189 Zn185 2.035 . S
O189 C194 1.258 . S
O190 C183 1.247 . S
O190 Zn187 2.028 . S
O191 C183 1.258 . S
O191 Zn185 2.035 . S
O192 Zn185 2.028 . S
O192 C195 1.247 . S
O193 Zn187 2.035 . S
O193 C195 1.258 . S
C194 O188 1.247 . S
C194 O189 1.258 . S
C195 O192 1.247 . S
C195 O193 1.258 . S
C196 O198 1.247 . S
C196 O200 1.258 . S
C197 O204 1.247 . S
C197 O205 1.258 . S
O198 C196 1.247 . S
O198 Zn199 2.028 . S
Zn199 O198 2.028 . S
Zn199 O203 2.035 . S
Zn199 O205 2.035 . S
Zn199 O206 2.028 . S
O200 C196 1.258 . S
O200 Zn201 2.035 . S
Zn201 O200 2.035 . S
Zn201 O202 2.028 . S
Zn201 O204 2.028 . S
Zn201 O207 2.035 . S
O202 Zn201 2.028 . S
O202 C208 1.247 . S
O203 Zn199 2.035 . S
O203 C208 1.258 . S
O204 C197 1.247 . S
O204 Zn201 2.028 . S
O205 C197 1.258 . S
O205 Zn199 2.035 . S
O206 Zn199 2.028 . S
O206 C209 1.247 . S
O207 Zn201 2.035 . S
O207 C209 1.258 . S
C208 O202 1.247 . S
C208 O203 1.258 . S
C209 O206 1.247 . S
C209 O207 1.258 . S
C210 O212 1.247 . S
C210 O214 1.258 . S
C211 O218 1.247 . S
C211 O219 1.258 . S
O212 C210 1.247 . S
O212 Zn213 2.028 . S
Zn213 O212 2.028 . S
Zn213 O217 2.035 . S
Zn213 O219 2.035 . S
Zn213 O220 2.028 . S
O214 C210 1.258 . S
O214 Zn215 2.035 . S
Zn215 O214 2.035 . S
Zn215 O216 2.028 . S
Zn215 O218 2.028 . S
Zn215 O221 2.035 . S
O216 Zn215 2.028 . S
O216 C222 1.247 . S
O217 Zn213 2.035 . S
O217 C222 1.258 . S
O218 C211 1.247 . S
O218 Zn215 2.028 . S
O219 C211 1.258 . S
O219 Zn213 2.035 . S
O220 Zn213 2.028 . S
O220 C223 1.247 . S
O221 Zn215 2.035 . S
O221 C223 1.258 . S
C222 O216 1.247 . S
C222 O217 1.258 . S
C223 O220 1.247 . S
C223 O221 1.258 . S
C224 C225 1.363 . S
C224 C230 1.379 . S
C224 N232 1.356 . S
C225 C224 1.363 . S
C225 C231 1.363 . S
C226 C227 1.363 . S
C226 C231 1.379 . S
C226 N233 1.356 . S
C227 C226 1.363 . S
C227 C230 1.363 . S
N228 C230 1.356 . S
N228 H240 0.984 . S
N228 H241 0.985 . S
N229 C231 1.356 . S
N229 H234 0.984 . S
N229 H235 0.985 1_554 S
C230 C224 1.379 . S
C230 C227 1.363 . S
C230 N228 1.356 . S
C231 C225 1.363 . S
C231 C226 1.379 . S
C231 N229 1.356 . S
N232 C224 1.356 . S
N232 H238 0.984 . S
N232 H239 0.984 . S
N233 C226 1.356 . S
N233 H236 0.984 . S
N233 H237 0.985 1_554 S
H234 N229 0.984 . S
H235 N229 0.985 1_556 S
H236 N233 0.984 . S
H237 N233 0.985 1_556 S
H238 N232 0.984 . S
H239 N232 0.984 . S
H240 N228 0.984 . S
H241 N228 0.985 . S
C242 C243 1.363 . S
C242 C248 1.379 . S
C242 N250 1.356 . S
C243 C242 1.363 . S
C243 C249 1.363 . S
C244 C245 1.363 . S
C244 C249 1.379 . S
C244 N251 1.356 . S
C245 C244 1.363 . S
C245 C248 1.363 . S
N246 C248 1.356 . S
N246 H258 0.984 . S
N246 H259 0.985 . S
N247 C249 1.356 . S
N247 H252 0.984 . S
N247 H253 0.985 1_554 S
C248 C242 1.379 . S
C248 C245 1.363 . S
C248 N246 1.356 . S
C249 C243 1.363 . S
C249 C244 1.379 . S
C249 N247 1.356 . S
N250 C242 1.356 . S
N250 H256 0.984 . S
N250 H257 0.984 . S
N251 C244 1.356 . S
N251 H254 0.984 . S
N251 H255 0.985 1_554 S
H252 N247 0.984 . S
H253 N247 0.985 1_556 S
H254 N251 0.984 . S
H255 N251 0.985 1_556 S
H256 N250 0.984 . S
H257 N250 0.984 . S
H258 N246 0.984 . S
H259 N246 0.985 . S
C260 C261 1.363 . S
C260 C266 1.379 . S
C260 N268 1.356 . S
C261 C260 1.363 . S
C261 C267 1.363 . S
C262 C263 1.363 . S
C262 C267 1.379 . S
C262 N269 1.356 . S
C263 C262 1.363 . S
C263 C266 1.363 . S
N264 C266 1.356 . S
N264 H276 0.984 . S
N264 H277 0.985 . S
N265 C267 1.356 . S
N265 H270 0.984 . S
N265 H271 0.985 . S
C266 C260 1.379 . S
C266 C263 1.363 . S
C266 N264 1.356 . S
C267 C261 1.363 . S
C267 C262 1.379 . S
C267 N265 1.356 . S
N268 C260 1.356 . S
N268 H274 0.984 . S
N268 H275 0.984 . S
N269 C262 1.356 . S
N269 H272 0.984 . S
N269 H273 0.985 . S
H270 N265 0.984 . S
H271 N265 0.985 . S
H272 N269 0.984 . S
H273 N269 0.985 . S
H274 N268 0.984 . S
H275 N268 0.984 . S
H276 N264 0.984 . S
H277 N264 0.985 . S
C278 C279 1.363 . S
C278 C284 1.379 . S
C278 N286 1.356 . S
C279 C278 1.363 . S
C279 C285 1.363 . S
C280 C281 1.363 . S
C280 C285 1.379 . S
C280 N287 1.356 . S
C281 C280 1.363 . S
C281 C284 1.363 . S
N282 C284 1.356 . S
N282 H294 0.984 . S
N282 H295 0.985 . S
N283 C285 1.356 . S
N283 H288 0.984 . S
N283 H289 0.985 . S
C284 C278 1.379 . S
C284 C281 1.363 . S
C284 N282 1.356 . S
C285 C279 1.363 . S
C285 C280 1.379 . S
C285 N283 1.356 . S
N286 C278 1.356 . S
N286 H292 0.984 . S
N286 H293 0.984 . S
N287 C280 1.356 . S
N287 H290 0.984 . S
N287 H291 0.985 . S
H288 N283 0.984 . S
H289 N283 0.985 . S
H290 N287 0.984 . S
H291 N287 0.985 . S
H292 N286 0.984 . S
H293 N286 0.984 . S
H294 N282 0.984 . S
H295 N282 0.985 . S
C296 C297 1.363 . S
C296 C302 1.379 . S
C296 N304 1.356 . S
C297 C296 1.363 . S
C297 C303 1.363 . S
C298 C299 1.363 . S
C298 C303 1.379 . S
C298 N305 1.356 . S
C299 C298 1.363 . S
C299 C302 1.363 . S
N300 C302 1.356 . S
N300 H312 0.984 . S
N300 H313 0.985 . S
N301 C303 1.356 . S
N301 H306 0.984 . S
N301 H307 0.985 1_556 S
C302 C296 1.379 . S
C302 C299 1.363 . S
C302 N300 1.356 . S
C303 C297 1.363 . S
C303 C298 1.379 . S
C303 N301 1.356 . S
N304 C296 1.356 . S
N304 H310 0.984 . S
N304 H311 0.984 . S
N305 C298 1.356 . S
N305 H308 0.984 . S
N305 H309 0.985 1_556 S
H306 N301 0.984 . S
H307 N301 0.985 1_554 S
H308 N305 0.984 . S
H309 N305 0.985 1_554 S
H310 N304 0.984 . S
H311 N304 0.984 . S
H312 N300 0.984 . S
H313 N300 0.985 . S
C314 C315 1.363 . S
C314 C320 1.379 . S
C314 N322 1.356 . S
C315 C314 1.363 . S
C315 C321 1.363 . S
C316 C317 1.363 . S
C316 C321 1.379 . S
C316 N323 1.356 . S
C317 C316 1.363 . S
C317 C320 1.363 . S
N318 C320 1.356 . S
N318 H330 0.984 . S
N318 H331 0.985 . S
N319 C321 1.356 . S
N319 H324 0.984 . S
N319 H325 0.985 1_556 S
C320 C314 1.379 . S
C320 C317 1.363 . S
C320 N318 1.356 . S
C321 C315 1.363 . S
C321 C316 1.379 . S
C321 N319 1.356 . S
N322 C314 1.356 . S
N322 H328 0.984 . S
N322 H329 0.984 . S
N323 C316 1.356 . S
N323 H326 0.984 . S
N323 H327 0.985 1_556 S
H324 N319 0.984 . S
H325 N319 0.985 1_554 S
H326 N323 0.984 . S
H327 N323 0.985 1_554 S
H328 N322 0.984 . S
H329 N322 0.984 . S
H330 N318 0.984 . S
H331 N318 0.985 . S
C332 C333 1.363 . S
C332 C338 1.379 . S
C332 N340 1.356 . S
C333 C332 1.363 . S
C333 C339 1.363 . S
C334 C335 1.363 . S
C334 C339 1.379 . S
C334 N341 1.356 . S
C335 C334 1.363 . S
C335 C338 1.363 . S
N336 C338 1.356 . S
N336 H348 0.984 . S
N336 H349 0.985 . S
N337 C339 1.356 . S
N337 H342 0.984 . S
N337 H343 0.985 . S
C338 C332 1.379 . S
C338 C335 1.363 . S
C338 N336 1.356 . S
C339 C333 1.363 . S
C339 C334 1.379 . S
C339 N337 1.356 . S
N340 C332 1.356 . S
N340 H346 0.984 . S
N340 H347 0.984 . S
N341 C334 1.356 . S
N341 H344 0.984 . S
N341 H345 0.985 . S
H342 N337 0.984 . S
H343 N337 0.985 . S
H344 N341 0.984 . S
H345 N341 0.985 . S
H346 N340 0.984 . S
H347 N340 0.984 . S
H348 N336 0.984 . S
H349 N336 0.985 . S
C350 C351 1.363 . S
C350 C356 1.379 . S
C350 N358 1.356 . S
C351 C350 1.363 . S
C351 C357 1.363 . S
C352 C353 1.363 . S
C352 C357 1.379 . S
C352 N359 1.356 . S
C353 C352 1.363 . S
C353 C356 1.363 . S
N354 C356 1.356 . S
N354 H366 0.984 . S
N354 H367 0.985 . S
N355 C357 1.356 . S
N355 H360 0.984 . S
N355 H361 0.985 . S
C356 C350 1.379 . S
C356 C353 1.363 . S
C356 N354 1.356 . S
C357 C351 1.363 . S
C357 C352 1.379 . S
C357 N355 1.356 . S
N358 C350 1.356 . S
N358 H364 0.984 . S
N358 H365 0.984 . S
N359 C352 1.356 . S
N359 H362 0.984 . S
N359 H363 0.985 . S
H360 N355 0.984 . S
H361 N355 0.985 . S
H362 N359 0.984 . S
H363 N359 0.985 . S
H364 N358 0.984 . S
H365 N358 0.984 . S
H366 N354 0.984 . S
H367 N354 0.985 . S
C368 C369 1.363 . S
C368 C374 1.379 . S
C368 N376 1.356 . S
C369 C368 1.363 . S
C369 C375 1.363 . S
C370 C371 1.363 . S
C370 C375 1.379 . S
C370 N377 1.356 1_655 S
C371 C370 1.363 . S
C371 C374 1.363 . S
N372 C374 1.356 . S
N372 H384 0.984 . S
N372 H385 0.985 . S
N373 C375 1.356 . S
N373 H378 0.984 . S
N373 H379 0.988 . S
C374 C368 1.379 . S
C374 C371 1.363 . S
C374 N372 1.356 . S
C375 C369 1.363 . S
C375 C370 1.379 . S
C375 N373 1.356 . S
N376 C368 1.356 . S
N376 H382 0.984 . S
N376 H383 0.984 . S
N377 C370 1.356 1_455 S
N377 H380 0.984 . S
N377 H381 0.985 . S
H378 N373 0.984 . S
H379 N373 0.988 . S
H380 N377 0.984 . S
H381 N377 0.985 . S
H382 N376 0.984 . S
H383 N376 0.984 . S
H384 N372 0.984 . S
H385 N372 0.985 . S
C386 C387 1.363 . S
C386 C392 1.379 . S
C386 N394 1.356 1_565 S
C387 C386 1.363 . S
C387 C393 1.363 . S
C388 C389 1.363 . S
C388 C393 1.379 . S
C388 N395 1.356 . S
C389 C388 1.363 . S
C389 C392 1.363 . S
N390 C392 1.356 1_445 S
N390 H402 0.984 . S
N390 H403 0.985 1_545 S
N391 C393 1.356 . S
N391 H396 0.984 . S
N391 H397 0.985 . S
C392 C386 1.379 . S
C392 C389 1.363 . S
C392 N390 1.356 1_665 S
C393 C387 1.363 . S
C393 C388 1.379 . S
C393 N391 1.356 . S
N394 C386 1.356 1_545 S
N394 H400 0.984 1_655 S
N394 H401 0.984 . S
N395 C388 1.356 . S
N395 H398 0.984 . S
N395 H399 0.985 . S
H396 N391 0.984 . S
H397 N391 0.985 . S
H398 N395 0.984 . S
H399 N395 0.985 . S
H400 N394 0.984 1_455 S
H401 N394 0.984 . S
H402 N390 0.984 . S
H403 N390 0.985 1_565 S
C404 C405 1.363 . S
C404 C410 1.379 . S
C404 N412 1.356 . S
C405 C404 1.363 . S
C405 C411 1.363 1_565 S
C406 C407 1.363 . S
C406 C411 1.379 1_565 S
C406 N413 1.356 1_565 S
C407 C406 1.363 . S
C407 C410 1.363 . S
N408 C410 1.356 . S
N408 H420 0.984 . S
N408 H421 0.985 . S
N409 C411 1.356 . S
N409 H414 0.984 . S
N409 H415 0.985 . S
C410 C404 1.379 . S
C410 C407 1.363 . S
C410 N408 1.356 . S
C411 C405 1.363 1_545 S
C411 C406 1.379 1_545 S
C411 N409 1.356 . S
N412 C404 1.356 . S
N412 H418 0.984 . S
N412 H419 0.984 . S
N413 C406 1.356 1_545 S
N413 H416 0.984 1_545 S
N413 H417 0.985 . S
H414 N409 0.984 . S
H415 N409 0.985 . S
H416 N413 0.984 1_565 S
H417 N413 0.985 . S
H418 N412 0.984 . S
H419 N412 0.984 . S
H420 N408 0.984 . S
H421 N408 0.985 . S
C422 C423 1.363 . S
C422 C428 1.379 . S
C422 N430 1.356 . S
C423 C422 1.363 . S
C423 C429 1.363 . S
C424 C425 1.363 . S
C424 C429 1.379 . S
C424 N431 1.356 . S
C425 C424 1.363 . S
C425 C428 1.363 . S
N426 C428 1.356 . S
N426 H438 0.984 . S
N426 H439 0.985 . S
N427 C429 1.356 . S
N427 H432 0.984 . S
N427 H433 0.985 . S
C428 C422 1.379 . S
C428 C425 1.363 . S
C428 N426 1.356 . S
C429 C423 1.363 . S
C429 C424 1.379 . S
C429 N427 1.356 . S
N430 C422 1.356 . S
N430 H436 0.984 . S
N430 H437 0.984 . S
N431 C424 1.356 . S
N431 H434 0.984 . S
N431 H435 0.985 . S
H432 N427 0.984 . S
H433 N427 0.985 . S
H434 N431 0.984 . S
H435 N431 0.985 . S
H436 N430 0.984 . S
H437 N430 0.984 . S
H438 N426 0.984 . S
H439 N426 0.985 . S
C440 C441 1.363 . S
C440 C446 1.379 . S
C440 N448 1.356 . S
C441 C440 1.363 . S
C441 C447 1.363 . S
C442 C443 1.363 . S
C442 C447 1.379 . S
C442 N449 1.356 . S
C443 C442 1.363 . S
C443 C446 1.363 . S
N444 C446 1.356 . S
N444 H456 0.984 . S
N444 H457 0.985 . S
N445 C447 1.356 . S
N445 H450 0.984 . S
N445 H451 0.985 . S
C446 C440 1.379 . S
C446 C443 1.363 . S
C446 N444 1.356 . S
C447 C441 1.363 . S
C447 C442 1.379 . S
C447 N445 1.356 . S
N448 C440 1.356 . S
N448 H454 0.984 . S
N448 H455 0.984 . S
N449 C442 1.356 . S
N449 H452 0.984 . S
N449 H453 0.985 . S
H450 N445 0.984 . S
H451 N445 0.985 . S
H452 N449 0.984 . S
H453 N449 0.985 . S
H454 N448 0.984 . S
H455 N448 0.984 . S
H456 N444 0.984 . S
H457 N444 0.985 . S
C458 C459 1.363 . S
C458 C464 1.379 . S
C458 N466 1.356 . S
C459 C458 1.363 . S
C459 C465 1.374 . S
C460 C461 1.363 . S
C460 C465 1.384 . S
C460 N467 1.356 1_545 S
C461 C460 1.363 . S
C461 C464 1.363 . S
N462 C464 1.356 . S
N462 H474 0.984 1_455 S
N462 H475 0.985 1_455 S
N463 C465 1.342 1_565 S
N463 H468 0.984 . S
N463 H469 0.985 . S
C464 C458 1.379 . S
C464 C461 1.363 . S
C464 N462 1.356 . S
C465 C459 1.374 . S
C465 C460 1.384 . S
C465 N463 1.342 1_545 S
N466 C458 1.356 . S
N466 H472 0.984 . S
N466 H473 0.984 . S
N467 C460 1.356 1_565 S
N467 H470 0.984 1_565 S
N467 H471 0.985 . S
H468 N463 0.984 . S
H469 N463 0.985 . S
H470 N467 0.984 1_545 S
H471 N467 0.985 . S
H472 N466 0.984 . S
H473 N466 0.984 . S
H474 N462 0.984 1_655 S
H475 N462 0.985 1_655 S
C476 C477 1.363 . S
C476 C482 1.379 . S
C476 N484 1.356 . S
C477 C476 1.363 . S
C477 C483 1.363 . S
C478 C479 1.363 . S
C478 C483 1.379 . S
C478 N485 1.356 . S
C479 C478 1.363 . S
C479 C482 1.363 . S
N480 C482 1.356 1_565 S
N480 H492 0.984 . S
N480 H493 0.985 . S
N481 C483 1.356 . S
N481 H486 0.984 . S
N481 H487 0.985 . S
C482 C476 1.379 . S
C482 C479 1.363 . S
C482 N480 1.356 1_545 S
C483 C477 1.363 . S
C483 C478 1.379 . S
C483 N481 1.356 . S
N484 C476 1.356 . S
N484 H490 0.984 1_545 S
N484 H491 0.984 . S
N485 C478 1.356 . S
N485 H488 0.984 . S
N485 H489 0.985 . S
H486 N481 0.984 . S
H487 N481 0.985 . S
H488 N485 0.984 . S
H489 N485 0.985 . S
H490 N484 0.984 1_565 S
H491 N484 0.984 . S
H492 N480 0.984 . S
H493 N480 0.985 . S
C494 C495 1.363 . S
C494 C500 1.379 . S
C494 N502 1.356 . S
C495 C494 1.363 . S
C495 C501 1.363 . S
C496 C497 1.363 . S
C496 C501 1.379 . S
C496 N503 1.356 . S
C497 C496 1.363 . S
C497 C500 1.363 . S
N498 C500 1.356 . S
N498 H510 0.984 . S
N498 H511 0.985 . S
N499 C501 1.356 . S
N499 H504 0.984 . S
N499 H505 0.985 . S
C500 C494 1.379 . S
C500 C497 1.363 . S
C500 N498 1.356 . S
C501 C495 1.363 . S
C501 C496 1.379 . S
C501 N499 1.356 . S
N502 C494 1.356 . S
N502 H508 0.984 . S
N502 H509 0.984 . S
N503 C496 1.356 . S
N503 H506 0.984 . S
N503 H507 0.985 . S
H504 N499 0.984 . S
H505 N499 0.985 . S
H506 N503 0.984 . S
H507 N503 0.985 . S
H508 N502 0.984 . S
H509 N502 0.984 . S
H510 N498 0.984 . S
H511 N498 0.985 . S
C512 C513 1.363 . S
C512 C518 1.379 . S
C512 N520 1.356 . S
C513 C512 1.363 . S
C513 C519 1.363 . S
C514 C515 1.363 . S
C514 C519 1.379 . S
C514 N521 1.356 . S
C515 C514 1.363 . S
C515 C518 1.363 . S
N516 C518 1.356 . S
N516 H528 0.984 . S
N516 H529 0.985 . S
N517 C519 1.356 . S
N517 H522 0.984 . S
N517 H523 0.985 . S
C518 C512 1.379 . S
C518 C515 1.363 . S
C518 N516 1.356 . S
C519 C513 1.363 . S
C519 C514 1.379 . S
C519 N517 1.356 . S
N520 C512 1.356 . S
N520 H526 0.984 . S
N520 H527 0.984 . S
N521 C514 1.356 . S
N521 H524 0.984 . S
N521 H525 0.985 . S
H522 N517 0.984 . S
H523 N517 0.985 . S
H524 N521 0.984 . S
H525 N521 0.985 . S
H526 N520 0.984 . S
H527 N520 0.984 . S
H528 N516 0.984 . S
H529 N516 0.985 . S
C530 C531 1.363 . S
C530 C536 1.379 . S
C530 N538 1.356 . S
C531 C530 1.363 . S
C531 C537 1.363 . S
C532 C533 1.363 . S
C532 C537 1.379 . S
C532 N539 1.356 . S
C533 C532 1.363 . S
C533 C536 1.363 . S
N534 C536 1.356 . S
N534 H546 0.984 1_545 S
N534 H547 0.985 . S
N535 C537 1.356 . S
N535 H540 0.984 . S
N535 H541 0.985 . S
C536 C530 1.379 . S
C536 C533 1.363 . S
C536 N534 1.356 . S
C537 C531 1.363 . S
C537 C532 1.379 . S
C537 N535 1.356 . S
N538 C530 1.356 . S
N538 H544 0.984 1_545 S
N538 H545 0.984 . S
N539 C532 1.356 . S
N539 H542 0.984 . S
N539 H543 0.985 . S
H540 N535 0.984 . S
H541 N535 0.985 . S
H542 N539 0.984 . S
H543 N539 0.985 . S
H544 N538 0.984 1_565 S
H545 N538 0.984 . S
H546 N534 0.984 1_565 S
H547 N534 0.985 . S
C548 C549 1.363 . S
C548 C554 1.379 . S
C548 N556 1.356 . S
C549 C548 1.363 . S
C549 C555 1.363 . S
C550 C551 1.363 . S
C550 C555 1.379 . S
C550 N557 1.356 . S
C551 C550 1.363 . S
C551 C554 1.363 . S
N552 C554 1.356 . S
N552 H564 0.984 . S
N552 H565 0.985 . S
N553 C555 1.356 . S
N553 H558 0.984 . S
N553 H559 0.985 . S
C554 C548 1.379 . S
C554 C551 1.363 . S
C554 N552 1.356 . S
C555 C549 1.363 . S
C555 C550 1.379 . S
C555 N553 1.356 . S
N556 C548 1.356 . S
N556 H562 0.984 . S
N556 H563 0.984 . S
N557 C550 1.356 . S
N557 H560 0.984 . S
N557 H561 0.985 . S
H558 N553 0.984 . S
H559 N553 0.985 . S
H560 N557 0.984 . S
H561 N557 0.985 . S
H562 N556 0.984 . S
H563 N556 0.984 . S
H564 N552 0.984 . S
H565 N552 0.985 . S
C566 C567 1.363 . S
C566 C572 1.379 . S
C566 N574 1.356 . S
C567 C566 1.363 . S
C567 C573 1.363 . S
C568 C569 1.363 . S
C568 C573 1.379 . S
C568 N575 1.356 . S
C569 C568 1.363 . S
C569 C572 1.363 . S
N570 C572 1.356 . S
N570 H582 0.984 . S
N570 H583 0.985 . S
N571 C573 1.356 . S
N571 H576 0.984 . S
N571 H577 0.985 . S
C572 C566 1.379 . S
C572 C569 1.363 . S
C572 N570 1.356 . S
C573 C567 1.363 . S
C573 C568 1.379 . S
C573 N571 1.356 . S
N574 C566 1.356 . S
N574 H580 0.984 . S
N574 H581 0.984 . S
N575 C568 1.356 . S
N575 H578 0.984 . S
N575 H579 0.985 . S
H576 N571 0.984 . S
H577 N571 0.985 . S
H578 N575 0.984 . S
H579 N575 0.985 . S
H580 N574 0.984 . S
H581 N574 0.984 . S
H582 N570 0.984 . S
H583 N570 0.985 . S
C584 C585 1.363 . S
C584 C590 1.379 . S
C584 N592 1.356 . S
C585 C584 1.363 . S
C585 C591 1.363 . S
C586 C587 1.363 . S
C586 C591 1.379 . S
C586 N593 1.356 . S
C587 C586 1.363 . S
C587 C590 1.363 . S
N588 C590 1.356 . S
N588 H600 0.984 1_655 S
N588 H601 0.985 . S
N589 C591 1.356 . S
N589 H594 0.984 . S
N589 H595 0.985 . S
C590 C584 1.379 . S
C590 C587 1.363 . S
C590 N588 1.356 . S
C591 C585 1.363 . S
C591 C586 1.379 . S
C591 N589 1.356 . S
N592 C584 1.356 . S
N592 H598 0.984 1_655 S
N592 H599 0.984 . S
N593 C586 1.356 . S
N593 H596 0.984 . S
N593 H597 0.985 . S
H594 N589 0.984 . S
H595 N589 0.985 . S
H596 N593 0.984 . S
H597 N593 0.985 . S
H598 N592 0.984 1_455 S
H599 N592 0.984 . S
H600 N588 0.984 1_455 S
H601 N588 0.985 . S
C602 C603 1.363 . S
C602 C608 1.379 . S
C602 N610 1.356 . S
C603 C602 1.363 . S
C603 C609 1.363 . S
C604 C605 1.363 . S
C604 C609 1.379 . S
C604 N611 1.356 . S
C605 C604 1.363 . S
C605 C608 1.363 . S
N606 C608 1.356 . S
N606 H618 0.984 1_565 S
N606 H619 0.985 . S
N607 C609 1.356 . S
N607 H612 0.984 . S
N607 H613 0.985 . S
C608 C602 1.379 . S
C608 C605 1.363 . S
C608 N606 1.356 . S
C609 C603 1.363 . S
C609 C604 1.379 . S
C609 N607 1.356 . S
N610 C602 1.356 . S
N610 H616 0.984 1_565 S
N610 H617 0.984 . S
N611 C604 1.356 . S
N611 H614 0.984 . S
N611 H615 0.985 . S
H612 N607 0.984 . S
H613 N607 0.985 . S
H614 N611 0.984 . S
H615 N611 0.985 . S
H616 N610 0.984 1_545 S
H617 N610 0.984 . S
H618 N606 0.984 1_545 S
H619 N606 0.985 . S
C620 C621 1.363 . S
C620 C626 1.379 . S
C620 N628 1.356 . S
C621 C620 1.363 . S
C621 C627 1.363 . S
C622 C623 1.363 . S
C622 C627 1.379 . S
C622 N629 1.356 . S
C623 C622 1.363 . S
C623 C626 1.363 . S
N624 C626 1.356 . S
N624 H636 0.984 . S
N624 H637 0.985 . S
N625 C627 1.356 . S
N625 H630 0.984 . S
N625 H631 0.985 . S
C626 C620 1.379 . S
C626 C623 1.363 . S
C626 N624 1.356 . S
C627 C621 1.363 . S
C627 C622 1.379 . S
C627 N625 1.356 . S
N628 C620 1.356 . S
N628 H634 0.984 . S
N628 H635 0.984 . S
N629 C622 1.356 . S
N629 H632 0.984 . S
N629 H633 0.985 . S
H630 N625 0.984 . S
H631 N625 0.985 . S
H632 N629 0.984 . S
H633 N629 0.985 . S
H634 N628 0.984 . S
H635 N628 0.984 . S
H636 N624 0.984 . S
H637 N624 0.985 . S
C638 C639 1.363 . S
C638 C644 1.379 . S
C638 N646 1.356 . S
C639 C638 1.363 . S
C639 C645 1.363 . S
C640 C641 1.363 . S
C640 C645 1.379 . S
C640 N647 1.356 . S
C641 C640 1.363 . S
C641 C644 1.363 . S
N642 C644 1.356 . S
N642 H654 0.984 . S
N642 H655 0.985 . S
N643 C645 1.356 . S
N643 H648 0.984 . S
N643 H649 0.985 . S
C644 C638 1.379 . S
C644 C641 1.363 . S
C644 N642 1.356 . S
C645 C639 1.363 . S
C645 C640 1.379 . S
C645 N643 1.356 . S
N646 C638 1.356 . S
N646 H652 0.984 . S
N646 H653 0.984 . S
N647 C640 1.356 . S
N647 H650 0.984 . S
N647 H651 0.985 . S
H648 N643 0.984 . S
H649 N643 0.985 . S
H650 N647 0.984 . S
H651 N647 0.985 . S
H652 N646 0.984 . S
H653 N646 0.984 . S
H654 N642 0.984 . S
H655 N642 0.985 . S
C656 C657 1.363 . S
C656 C662 1.379 . S
C656 N664 1.356 . S
C657 C656 1.363 . S
C657 C663 1.363 1_454 S
C658 C659 1.363 . S
C658 C663 1.379 . S
C658 N665 1.356 . S
C659 C658 1.363 . S
C659 C662 1.363 1_656 S
N660 C662 1.356 1_655 S
N660 H672 0.984 1_655 S
N660 H673 0.985 1_554 S
N661 C663 1.356 1_455 S
N661 H666 0.984 1_556 S
N661 H667 0.985 1_455 S
C662 C656 1.379 . S
C662 C659 1.363 1_454 S
C662 N660 1.356 1_455 S
C663 C657 1.363 1_656 S
C663 C658 1.379 . S
C663 N661 1.356 1_655 S
N664 C656 1.356 . S
N664 H670 0.984 . S
N664 H671 0.984 . S
N665 C658 1.356 . S
N665 H668 0.984 . S
N665 H669 0.985 . S
H666 N661 0.984 1_554 S
H667 N661 0.985 1_655 S
H668 N665 0.984 . S
H669 N665 0.985 . S
H670 N664 0.984 . S
H671 N664 0.984 . S
H672 N660 0.984 1_455 S
H673 N660 0.985 1_556 S
C674 C675 1.365 1_544 S
C674 C680 1.377 . S
C674 N682 1.357 1_554 S
C675 C674 1.365 1_566 S
C675 C681 1.363 1_455 S
C676 C677 1.365 1_566 S
C676 C681 1.377 . S
C676 N683 1.357 1_556 S
C677 C676 1.365 1_544 S
C677 C680 1.363 1_655 S
N678 C680 1.356 . S
N678 H690 0.984 . S
N678 H691 0.985 1_455 S
N679 C681 1.356 . S
N679 H684 0.984 1_655 S
N679 H685 0.985 . S
C680 C674 1.377 . S
C680 C677 1.363 1_455 S
C680 N678 1.356 . S
C681 C675 1.363 1_655 S
C681 C676 1.377 . S
C681 N679 1.356 . S
N682 C674 1.357 1_556 S
N682 H688 0.984 1_556 S
N682 H689 0.984 1_545 S
N683 C676 1.357 1_554 S
N683 H686 0.984 1_565 S
N683 H687 0.985 1_554 S
H684 N679 0.984 1_455 S
H685 N679 0.985 . S
H686 N683 0.984 1_545 S
H687 N683 0.985 1_556 S
H688 N682 0.984 1_554 S
H689 N682 0.984 1_565 S
H690 N678 0.984 . S
H691 N678 0.985 1_655 S
C692 C693 1.363 1_556 S
C692 C698 1.379 . S
C692 N700 1.356 . S
C693 C692 1.363 1_554 S
C693 C699 1.363 1_565 S
C694 C695 1.363 1_554 S
C694 C699 1.379 . S
C694 N701 1.356 . S
C695 C694 1.363 1_556 S
C695 C698 1.363 1_545 S
N696 C698 1.356 1_545 S
N696 H708 0.984 1_545 S
N696 H709 0.985 . S
N697 C699 1.356 1_565 S
N697 H702 0.984 . S
N697 H703 0.985 1_565 S
C698 C692 1.379 . S
C698 C695 1.363 1_565 S
C698 N696 1.356 1_565 S
C699 C693 1.363 1_545 S
C699 C694 1.379 . S
C699 N697 1.356 1_545 S
N700 C692 1.356 . S
N700 H706 0.984 . S
N700 H707 0.984 . S
N701 C694 1.356 . S
N701 H704 0.984 . S
N701 H705 0.985 . S
H702 N697 0.984 . S
H703 N697 0.985 1_545 S
H704 N701 0.984 . S
H705 N701 0.985 . S
H706 N700 0.984 . S
H707 N700 0.984 . S
H708 N696 0.984 1_565 S
H709 N696 0.985 . S
C710 C711 1.363 1_554 S
C710 C716 1.379 . S
C710 N718 1.356 . S
C711 C710 1.363 1_556 S
C711 C717 1.363 . S
C712 C713 1.363 1_556 S
C712 C717 1.379 . S
C712 N719 1.356 . S
C713 C712 1.363 1_554 S
C713 C716 1.363 . S
N714 C716 1.356 . S
N714 H726 0.984 . S
N714 H727 0.985 . S
N715 C717 1.356 . S
N715 H720 0.984 . S
N715 H721 0.985 . S
C716 C710 1.379 . S
C716 C713 1.363 . S
C716 N714 1.356 . S
C717 C711 1.363 . S
C717 C712 1.379 . S
C717 N715 1.356 . S
N718 C710 1.356 . S
N718 H724 0.984 . S
N718 H725 0.984 . S
N719 C712 1.356 . S
N719 H722 0.984 . S
N719 H723 0.985 . S
H720 N715 0.984 . S
H721 N715 0.985 . S
H722 N719 0.984 . S
H723 N719 0.985 . S
H724 N718 0.984 . S
H725 N718 0.984 . S
H726 N714 0.984 . S
H727 N714 0.985 . S
C728 C729 1.363 1_655 S
C728 C734 1.379 . S
C728 N736 1.356 . S
C729 C728 1.363 1_455 S
C729 C735 1.363 1_565 S
C730 C731 1.363 1_455 S
C730 C735 1.379 . S
C730 N737 1.356 . S
C731 C730 1.363 1_655 S
C731 C734 1.363 1_545 S
N732 C734 1.356 . S
N732 H744 0.984 . S
N732 H745 0.985 1_565 S
N733 C735 1.356 . S
N733 H738 0.984 1_545 S
N733 H739 0.985 . S
C734 C728 1.379 . S
C734 C731 1.363 1_565 S
C734 N732 1.356 . S
C735 C729 1.363 1_545 S
C735 C730 1.379 . S
C735 N733 1.356 . S
N736 C728 1.356 . S
N736 H742 0.984 . S
N736 H743 0.984 1_655 S
N737 C730 1.356 . S
N737 H740 0.984 1_455 S
N737 H741 0.985 . S
H738 N733 0.984 1_565 S
H739 N733 0.985 . S
H740 N737 0.984 1_655 S
H741 N737 0.985 . S
H742 N736 0.984 . S
H743 N736 0.984 1_455 S
H744 N732 0.984 . S
H745 N732 0.985 1_545 S
C746 C747 1.363 . S
C746 C752 1.379 1_545 S
C746 N754 1.356 . S
C747 C746 1.363 . S
C747 C753 1.363 . S
C748 C749 1.363 . S
C748 C753 1.379 1_565 S
C748 N755 1.356 . S
C749 C748 1.363 . S
C749 C752 1.363 . S
N750 C752 1.356 . S
N750 H762 0.984 . S
N750 H763 0.985 . S
N751 C753 1.356 . S
N751 H756 0.984 . S
N751 H757 0.985 . S
C752 C746 1.379 1_565 S
C752 C749 1.363 . S
C752 N750 1.356 . S
C753 C747 1.363 . S
C753 C748 1.379 1_545 S
C753 N751 1.356 . S
N754 C746 1.356 . S
N754 H760 0.984 . S
N754 H761 0.984 . S
N755 C748 1.356 . S
N755 H758 0.984 . S
N755 H759 0.985 . S
H756 N751 0.984 . S
H757 N751 0.985 . S
H758 N755 0.984 . S
H759 N755 0.985 . S
H760 N754 0.984 . S
H761 N754 0.984 . S
H762 N750 0.984 . S
H763 N750 0.985 . S
C764 C765 1.363 . S
C764 C770 1.379 . S
C764 N772 1.356 . S
C765 C764 1.363 . S
C765 C771 1.363 . S
C766 C767 1.363 . S
C766 C771 1.379 . S
C766 N773 1.356 . S
C767 C766 1.363 . S
C767 C770 1.363 . S
N768 C770 1.356 . S
N768 H780 0.984 . S
N768 H781 0.985 . S
N769 C771 1.356 . S
N769 H774 0.984 . S
N769 H775 0.985 . S
C770 C764 1.379 . S
C770 C767 1.363 . S
C770 N768 1.356 . S
C771 C765 1.363 . S
C771 C766 1.379 . S
C771 N769 1.356 . S
N772 C764 1.356 . S
N772 H778 0.984 . S
N772 H779 0.984 . S
N773 C766 1.356 . S
N773 H776 0.984 . S
N773 H777 0.985 . S
H774 N769 0.984 . S
H775 N769 0.985 . S
H776 N773 0.984 . S
H777 N773 0.985 . S
H778 N772 0.984 . S
H779 N772 0.984 . S
H780 N768 0.984 . S
H781 N768 0.985 . S
C782 C783 1.363 1_455 S
C782 C788 1.379 . S
C782 N790 1.356 . S
C783 C782 1.363 1_655 S
C783 C789 1.363 . S
C784 C785 1.363 1_655 S
C784 C789 1.379 . S
C784 N791 1.356 . S
C785 C784 1.363 1_455 S
C785 C788 1.363 . S
N786 C788 1.356 . S
N786 H798 0.984 . S
N786 H799 0.985 . S
N787 C789 1.356 . S
N787 H792 0.984 . S
N787 H793 0.985 . S
C788 C782 1.379 . S
C788 C785 1.363 . S
C788 N786 1.356 . S
C789 C783 1.363 . S
C789 C784 1.379 . S
C789 N787 1.356 . S
N790 C782 1.356 . S
N790 H796 0.984 . S
N790 H797 0.984 1_455 S
N791 C784 1.356 . S
N791 H794 0.984 1_655 S
N791 H795 0.985 . S
H792 N787 0.984 . S
H793 N787 0.985 . S
H794 N791 0.984 1_455 S
H795 N791 0.985 . S
H796 N790 0.984 . S
H797 N790 0.984 1_655 S
H798 N786 0.984 . S
H799 N786 0.985 . S
C225 C1 1.908 . S
C227 C41 1.908 . S
C243 C26 1.910 . S
C245 C54 1.910 . S
C261 C57 1.908 . S
C263 C96 1.910 . S
C279 C110 1.910 . S
C281 C82 1.910 . S
C297 C125 1.910 . S
C299 C153 1.910 . S
C315 C167 1.910 . S
C317 C127 1.910 . S
C333 C209 1.910 . S
C335 C180 1.908 . S
C351 C223 1.910 . S
C353 C183 1.910 . S
C369 C111 1.714 . S
C371 C0 1.713 1_655 S
C387 C27 1.708 1_565 S
C389 C56 1.713 1_655 S
C405 C83 1.708 1_565 S
C407 C40 1.717 . S
C423 C55 1.714 . S
C425 C97 1.714 . S
C441 C222 1.714 . S
C443 C124 1.708 1_455 S
C459 C126 1.708 1_545 S
C461 C181 1.713 1_455 S
C477 C152 1.715 . S
C479 C182 1.708 1_545 S
C495 C208 1.714 . S
C497 C166 1.714 . S
C513 C12 0.797 . S
C515 C68 0.797 . S
C531 C15 0.797 . S
C533 C71 0.797 . S
C549 C85 0.798 . S
C551 C28 0.798 . S
C567 C43 0.798 . S
C569 C99 0.798 . S
C585 C169 0.797 . S
C587 C112 0.797 . S
C603 C194 0.797 . S
C605 C138 0.797 . S
C621 C140 0.798 . S
C623 C196 0.798 . S
C639 C154 0.798 . S
C641 C210 0.798 . S
C657 C13 1.781 . S
C659 C113 1.782 . S
C675 C139 1.782 . S
C677 C14 1.782 . S
C693 C29 1.781 . S
C695 C141 1.782 . S
C711 C155 1.782 . S
C713 C42 1.782 . S
C729 C69 1.781 . S
C731 C168 1.781 . S
C747 C70 1.782 . S
C749 C195 1.782 . S
C765 C197 1.782 . S
C767 C84 1.782 . S
C783 C98 1.782 . S
C785 C211 1.782 . S
