# Generated by pormake.
# Topology umg, (4)-cn, num edge types: 1
# Building blocks:
#     Node 0, Type 0, BuildingBlock: KOZSID_clean_sbu_0, # of connection points: 4
#     Node 1, Type 0, BuildingBlock: KOZSID_clean_sbu_0, # of connection points: 4
#     Node 2, Type 0, BuildingBlock: KOZSID_clean_sbu_0, # of connection points: 4
#     Node 3, Type 0, BuildingBlock: KOZSID_clean_sbu_0, # of connection points: 4
#     Node 4, Type 0, BuildingBlock: KOZSID_clean_sbu_0, # of connection points: 4
#     Node 5, Type 0, BuildingBlock: KOZSID_clean_sbu_0, # of connection points: 4
#     Node 6, Type 0, BuildingBlock: KOZSID_clean_sbu_0, # of connection points: 4
#     Node 7, Type 0, BuildingBlock: KOZSID_clean_sbu_0, # of connection points: 4
#     Node 8, Type 0, BuildingBlock: KOZSID_clean_sbu_0, # of connection points: 4
#     Node 9, Type 0, BuildingBlock: KOZSID_clean_sbu_0, # of connection points: 4
#     Node 10, Type 0, BuildingBlock: KOZSID_clean_sbu_0, # of connection points: 4
#     Node 11, Type 0, BuildingBlock: KOZSID_clean_sbu_0, # of connection points: 4
#     Edge 12, Type (0, 0), BuildingBlock: MIFKUJ_clean_linker_0, # of connection points: 2
#     Edge 13, Type (0, 0), BuildingBlock: MIFKUJ_clean_linker_0, # of connection points: 2
#     Edge 14, Type (0, 0), BuildingBlock: MIFKUJ_clean_linker_0, # of connection points: 2
#     Edge 15, Type (0, 0), BuildingBlock: MIFKUJ_clean_linker_0, # of connection points: 2
#     Edge 16, Type (0, 0), BuildingBlock: MIFKUJ_clean_linker_0, # of connection points: 2
#     Edge 17, Type (0, 0), BuildingBlock: MIFKUJ_clean_linker_0, # of connection points: 2
#     Edge 18, Type (0, 0), BuildingBlock: MIFKUJ_clean_linker_0, # of connection points: 2
#     Edge 19, Type (0, 0), BuildingBlock: MIFKUJ_clean_linker_0, # of connection points: 2
#     Edge 20, Type (0, 0), BuildingBlock: MIFKUJ_clean_linker_0, # of connection points: 2
#     Edge 21, Type (0, 0), BuildingBlock: MIFKUJ_clean_linker_0, # of connection points: 2
#     Edge 22, Type (0, 0), BuildingBlock: MIFKUJ_clean_linker_0, # of connection points: 2
#     Edge 23, Type (0, 0), BuildingBlock: MIFKUJ_clean_linker_0, # of connection points: 2
#     Edge 24, Type (0, 0), BuildingBlock: MIFKUJ_clean_linker_0, # of connection points: 2
#     Edge 25, Type (0, 0), BuildingBlock: MIFKUJ_clean_linker_0, # of connection points: 2
#     Edge 26, Type (0, 0), BuildingBlock: MIFKUJ_clean_linker_0, # of connection points: 2
#     Edge 27, Type (0, 0), BuildingBlock: MIFKUJ_clean_linker_0, # of connection points: 2
#     Edge 28, Type (0, 0), BuildingBlock: MIFKUJ_clean_linker_0, # of connection points: 2
#     Edge 29, Type (0, 0), BuildingBlock: MIFKUJ_clean_linker_0, # of connection points: 2
#     Edge 30, Type (0, 0), BuildingBlock: MIFKUJ_clean_linker_0, # of connection points: 2
#     Edge 31, Type (0, 0), BuildingBlock: MIFKUJ_clean_linker_0, # of connection points: 2
#     Edge 32, Type (0, 0), BuildingBlock: MIFKUJ_clean_linker_0, # of connection points: 2
#     Edge 33, Type (0, 0), BuildingBlock: MIFKUJ_clean_linker_0, # of connection points: 2
#     Edge 34, Type (0, 0), BuildingBlock: MIFKUJ_clean_linker_0, # of connection points: 2
#     Edge 35, Type (0, 0), BuildingBlock: MIFKUJ_clean_linker_0, # of connection points: 2
# Relax obj value: 0.045
# Max RMSD: 0.148
# Mean RMSD: 0.148
data_MOF--net-umg--node1-KOZSID_clean_sbu_0--edge1-MIFKUJ_clean_linker_0
_symmetry_space_group_name_H-M    P1
_symmetry_Int_Tables_number       1
_symmetry_cell_setting            triclinic
loop_
_symmetry_equiv_pos_as_xyz
'x, y, z'
_cell_length_a     48.291904
_cell_length_b     48.384272
_cell_length_c     119.18384
_cell_angle_alpha  89.995641
_cell_angle_beta   89.989906
_cell_angle_gamma 119.97246
loop_
_atom_site_label
_atom_site_type_symbol
_atom_site_fract_x
_atom_site_fract_y
_atom_site_fract_z
_atom_type_partial_charge
C0 C 0.25744 0.52208 0.11669 0.0
C1 C 0.24515 0.49823 0.12478 0.0
C2 C 0.24202 0.47119 0.11981 0.0
C3 C 0.2519 0.47963 0.10892 0.0
N4 N 0.26088 0.51026 0.10674 0.0
Co5 Co 0.27243 0.53091 0.09175 0.0
N6 N 0.25316 0.48938 0.08375 0.0
C7 C 0.24621 0.46129 0.0884 0.0
C8 C 0.23351 0.43659 0.08083 0.0
C9 C 0.2328 0.45011 0.07077 0.0
C10 C 0.24525 0.48246 0.07276 0.0
N11 N 0.28387 0.55209 0.07687 0.0
C12 C 0.27304 0.54008 0.0665 0.0
C13 C 0.28872 0.56333 0.05833 0.0
C14 C 0.31025 0.59057 0.0638 0.0
C15 C 0.30659 0.58257 0.07496 0.0
N16 N 0.29245 0.57244 0.09966 0.0
C17 C 0.31526 0.6004 0.09542 0.0
C18 C 0.32664 0.62482 0.10307 0.0
C19 C 0.30993 0.61134 0.11274 0.0
C20 C 0.28892 0.57937 0.11038 0.0
N21 N 0.31365 0.53118 0.09224 0.0
C22 C 0.36923 0.52541 0.09327 0.0
C23 C 0.35134 0.5189 0.08336 0.0
C24 C 0.32405 0.52213 0.08299 0.0
C25 C 0.35905 0.53588 0.10258 0.0
C26 C 0.33126 0.53842 0.10192 0.0
N27 N 0.23084 0.52963 0.09132 0.0
C28 C 0.19843 0.55475 0.08951 0.0
C29 C 0.16997 0.52546 0.09133 0.0
C30 C 0.17331 0.49851 0.09298 0.0
C31 C 0.20349 0.50119 0.09316 0.0
C32 C 0.22842 0.55624 0.0894 0.0
H33 H 0.20445 0.47986 0.09484 0.0
H34 H 0.24966 0.57894 0.08788 0.0
H35 H 0.31101 0.51662 0.07521 0.0
H36 H 0.32366 0.54566 0.10933 0.0
C37 C 0.24666 0.45831 0.1001 0.0
C38 C 0.26723 0.55602 0.11866 0.0
C39 C 0.25127 0.5062 0.06396 0.0
C40 C 0.32137 0.60369 0.08389 0.0
H41 H 0.23836 0.49962 0.1333 0.0
H42 H 0.23177 0.44769 0.12352 0.0
H43 H 0.22466 0.41156 0.08248 0.0
H44 H 0.22423 0.4376 0.06289 0.0
H45 H 0.28566 0.56068 0.04933 0.0
H46 H 0.32634 0.61353 0.06009 0.0
H47 H 0.34418 0.64966 0.1017 0.0
H48 H 0.31302 0.62365 0.12062 0.0
H49 H 0.35839 0.51134 0.07586 0.0
H50 H 0.37191 0.54119 0.11045 0.0
H51 H 0.19789 0.57662 0.0883 0.0
H52 H 0.15279 0.47497 0.09405 0.0
C53 C 0.74191 0.25035 0.45076 0.0
C54 C 0.75129 0.23556 0.45863 0.0
C55 C 0.76968 0.22581 0.45307 0.0
C56 C 0.77038 0.23501 0.44214 0.0
N57 N 0.75409 0.25067 0.44042 0.0
Co58 Co 0.74602 0.26505 0.42556 0.0
N59 N 0.76963 0.24725 0.41711 0.0
C60 C 0.78604 0.23408 0.42164 0.0
C61 C 0.80037 0.22458 0.41379 0.0
C62 C 0.79277 0.23225 0.40366 0.0
C63 C 0.77404 0.24591 0.40589 0.0
N64 N 0.73649 0.2782 0.41075 0.0
C65 C 0.74304 0.27305 0.40013 0.0
C66 C 0.73062 0.28501 0.39222 0.0
C67 C 0.71597 0.2984 0.39802 0.0
C68 C 0.72003 0.29369 0.40909 0.0
N69 N 0.72328 0.28375 0.43399 0.0
C70 C 0.7111 0.30123 0.42966 0.0
C71 C 0.69683 0.31089 0.43745 0.0
C72 C 0.69966 0.29846 0.44736 0.0
C73 C 0.71534 0.28167 0.445 0.0
N74 N 0.78735 0.30691 0.42673 0.0
C75 C 0.84799 0.36414 0.42641 0.0
C76 C 0.82029 0.36367 0.42259 0.0
C77 C 0.79053 0.33506 0.42277 0.0
C78 C 0.84436 0.33576 0.43079 0.0
C79 C 0.8143 0.30801 0.43099 0.0
N80 N 0.70541 0.22322 0.42438 0.0
C81 C 0.64756 0.19141 0.42278 0.0
C82 C 0.6483 0.16282 0.42383 0.0
C83 C 0.67837 0.16544 0.42486 0.0
C84 C 0.70608 0.19531 0.4252 0.0
C85 C 0.67618 0.22112 0.42303 0.0
H86 H 0.72786 0.19511 0.4262 0.0
H87 H 0.67424 0.24215 0.42222 0.0
H88 H 0.77055 0.33624 0.41953 0.0
H89 H 0.81379 0.28769 0.43456 0.0
C90 C 0.78508 0.22842 0.43321 0.0
C91 C 0.7205 0.26273 0.45338 0.0
C92 C 0.76111 0.25733 0.39709 0.0
C93 C 0.70951 0.30435 0.4181 0.0
H94 H 0.74496 0.23169 0.46743 0.0
H95 H 0.78055 0.2128 0.45653 0.0
H96 H 0.81416 0.21287 0.41526 0.0
H97 H 0.79996 0.22805 0.39552 0.0
H98 H 0.73205 0.28425 0.38317 0.0
H99 H 0.70389 0.31026 0.39459 0.0
H100 H 0.6845 0.32409 0.43602 0.0
H101 H 0.69033 0.30063 0.45537 0.0
H102 H 0.82166 0.38506 0.41917 0.0
H103 H 0.86476 0.33488 0.43414 0.0
H104 H 0.62505 0.19102 0.42198 0.0
H105 H 0.68083 0.14442 0.42535 0.0
C106 C 0.49406 0.73878 0.78339 0.0
C107 C 0.51712 0.75276 0.79169 0.0
C108 C 0.54401 0.77661 0.78658 0.0
C109 C 0.53597 0.77583 0.77548 0.0
N110 N 0.50576 0.75295 0.77331 0.0
Co111 Co 0.48472 0.74306 0.75839 0.0
N112 N 0.5262 0.76588 0.75034 0.0
C113 C 0.5543 0.78736 0.75494 0.0
C114 C 0.57894 0.79961 0.74732 0.0
C115 C 0.56541 0.78521 0.7373 0.0
C116 C 0.53308 0.76497 0.73934 0.0
N117 N 0.46323 0.73296 0.74357 0.0
C118 C 0.47526 0.73464 0.73316 0.0
C119 C 0.45172 0.72645 0.72505 0.0
C120 C 0.42421 0.71968 0.7306 0.0
C121 C 0.43236 0.72412 0.74174 0.0
N122 N 0.44324 0.72049 0.76642 0.0
C123 C 0.41457 0.71332 0.76221 0.0
C124 C 0.39009 0.69768 0.76976 0.0
C125 C 0.40431 0.69493 0.77933 0.0
C126 C 0.43677 0.70903 0.77704 0.0
N127 N 0.48343 0.78354 0.7589 0.0
C128 C 0.48789 0.84419 0.76004 0.0
C129 C 0.49572 0.83376 0.75021 0.0
C130 C 0.49297 0.80345 0.74976 0.0
C131 C 0.47691 0.8232 0.76922 0.0
C132 C 0.47505 0.79318 0.76851 0.0
N133 N 0.48685 0.70323 0.7579 0.0
C134 C 0.46244 0.64609 0.75522 0.0
C135 C 0.4915 0.64688 0.75752 0.0
C136 C 0.51806 0.67695 0.75991 0.0
C137 C 0.51517 0.70437 0.76018 0.0
C138 C 0.46069 0.67436 0.75537 0.0
H139 H 0.53616 0.72666 0.76225 0.0
H140 H 0.43809 0.67284 0.75351 0.0
H141 H 0.49929 0.79649 0.74202 0.0
H142 H 0.4674 0.77802 0.77584 0.0
C143 C 0.55726 0.79168 0.76662 0.0
C144 C 0.46095 0.7131 0.78533 0.0
C145 C 0.50924 0.74726 0.73055 0.0
C146 C 0.41101 0.71629 0.75071 0.0
H147 H 0.51483 0.74632 0.80047 0.0
H148 H 0.56709 0.79166 0.79042 0.0
H149 H 0.60394 0.8163 0.74892 0.0
H150 H 0.57785 0.78938 0.72938 0.0
H151 H 0.45426 0.72609 0.71604 0.0
H152 H 0.40093 0.71185 0.72695 0.0
H153 H 0.36479 0.68819 0.76835 0.0
H154 H 0.39222 0.68393 0.7871 0.0
H155 H 0.50409 0.84906 0.74289 0.0
H156 H 0.47055 0.83024 0.77699 0.0
H157 H 0.4409 0.62378 0.75344 0.0
H158 H 0.54137 0.67971 0.76147 0.0
C159 C 0.7607 0.48922 0.11631 0.0
C160 C 0.77001 0.51285 0.12439 0.0
C161 C 0.7725 0.5392 0.11904 0.0
C162 C 0.7647 0.53027 0.10803 0.0
N163 N 0.75754 0.50001 0.10614 0.0
Co164 Co 0.74584 0.4778 0.09143 0.0
N165 N 0.76393 0.51855 0.08298 0.0
C166 C 0.77036 0.54685 0.08732 0.0
C167 C 0.78159 0.57074 0.07943 0.0
C168 C 0.78185 0.55647 0.06951 0.0
C169 C 0.77076 0.52454 0.07189 0.0
N170 N 0.73407 0.45513 0.07681 0.0
C171 C 0.74407 0.46633 0.06629 0.0
C172 C 0.72963 0.44191 0.05845 0.0
C173 C 0.70937 0.4148 0.06426 0.0
C174 C 0.71267 0.42399 0.07529 0.0
N175 N 0.72742 0.4371 0.09987 0.0
C176 C 0.70594 0.4081 0.09595 0.0
C177 C 0.69746 0.38434 0.10377 0.0
C178 C 0.71473 0.39938 0.11318 0.0
C179 C 0.73288 0.43156 0.11055 0.0
N180 N 0.70406 0.4764 0.09194 0.0
C181 C 0.64809 0.48172 0.09288 0.0
C182 C 0.66477 0.48584 0.08278 0.0
C183 C 0.69242 0.48323 0.0825 0.0
C184 C 0.65969 0.47356 0.10244 0.0
C185 C 0.68741 0.47087 0.10178 0.0
N186 N 0.7878 0.48006 0.09091 0.0
C187 C 0.82066 0.45597 0.08783 0.0
C188 C 0.84873 0.48505 0.09007 0.0
C189 C 0.84525 0.51134 0.09283 0.0
C190 C 0.8149 0.50837 0.09322 0.0
C191 C 0.79056 0.45401 0.08825 0.0
H192 H 0.81345 0.52918 0.09542 0.0
H193 H 0.76952 0.43145 0.0864 0.0
H194 H 0.70472 0.48746 0.0746 0.0
H195 H 0.69581 0.46507 0.10932 0.0
C196 C 0.76949 0.55075 0.09897 0.0
C197 C 0.75357 0.45638 0.11854 0.0
C198 C 0.76409 0.50018 0.06329 0.0
C199 C 0.69941 0.40346 0.08446 0.0
H200 H 0.77463 0.51128 0.13318 0.0
H201 H 0.78052 0.5625 0.12267 0.0
H202 H 0.7893 0.59568 0.08077 0.0
H203 H 0.78886 0.56808 0.06141 0.0
H204 H 0.73285 0.4436 0.04944 0.0
H205 H 0.69457 0.39109 0.06086 0.0
H206 H 0.68182 0.35895 0.10261 0.0
H207 H 0.71412 0.38799 0.12107 0.0
H208 H 0.65669 0.4912 0.07505 0.0
H209 H 0.64806 0.47015 0.11049 0.0
H210 H 0.8219 0.43493 0.08558 0.0
H211 H 0.86588 0.53418 0.09486 0.0
C212 C 0.27503 0.75636 0.45073 0.0
C213 C 0.26523 0.77047 0.45873 0.0
C214 C 0.24684 0.7804 0.45328 0.0
C215 C 0.24651 0.77198 0.44227 0.0
N216 N 0.26319 0.75679 0.44039 0.0
Co217 Co 0.2713 0.74293 0.42544 0.0
N218 N 0.24944 0.76282 0.4171 0.0
C219 C 0.23479 0.77777 0.42168 0.0
C220 C 0.22227 0.78933 0.41388 0.0
C221 C 0.22943 0.78142 0.40371 0.0
C222 C 0.24601 0.76544 0.40589 0.0
N223 N 0.27981 0.72922 0.41056 0.0
C224 C 0.2735 0.7349 0.39998 0.0
C225 C 0.28419 0.72144 0.392 0.0
C226 C 0.29749 0.70658 0.39772 0.0
C227 C 0.29435 0.71189 0.40881 0.0
N228 N 0.29344 0.72334 0.43372 0.0
C229 C 0.30553 0.70591 0.42927 0.0
C230 C 0.31976 0.69595 0.43696 0.0
C231 C 0.31722 0.70831 0.44693 0.0
C232 C 0.30173 0.72537 0.4447 0.0
N233 N 0.22922 0.70165 0.42651 0.0
C234 C 0.16826 0.64423 0.42697 0.0
C235 C 0.19659 0.64383 0.42461 0.0
C236 C 0.22638 0.67243 0.42437 0.0
C237 C 0.17153 0.67415 0.42917 0.0
C238 C 0.20161 0.70185 0.42905 0.0
N239 N 0.31263 0.78408 0.42434 0.0
C240 C 0.36976 0.8147 0.42068 0.0
C241 C 0.37023 0.84356 0.42264 0.0
C242 C 0.34145 0.84181 0.42563 0.0
C243 C 0.31344 0.81231 0.42648 0.0
C244 C 0.34082 0.7854 0.4215 0.0
H245 H 0.29265 0.81304 0.42893 0.0
H246 H 0.34158 0.76404 0.41977 0.0
H247 H 0.24671 0.67023 0.42239 0.0
H248 H 0.20158 0.72319 0.43096 0.0
C249 C 0.23406 0.78129 0.43334 0.0
C250 C 0.29682 0.74427 0.45318 0.0
C251 C 0.25773 0.75298 0.39703 0.0
C252 C 0.30561 0.70167 0.41772 0.0
H253 H 0.27151 0.77412 0.46753 0.0
H254 H 0.23624 0.79355 0.45683 0.0
H255 H 0.20968 0.80224 0.4154 0.0
H256 H 0.22322 0.78682 0.39559 0.0
H257 H 0.28273 0.72239 0.38296 0.0
H258 H 0.30847 0.69374 0.39421 0.0
H259 H 0.33158 0.68229 0.43544 0.0
H260 H 0.32649 0.70576 0.45489 0.0
H261 H 0.19607 0.62156 0.42301 0.0
H262 H 0.15089 0.6767 0.43081 0.0
H263 H 0.39145 0.81474 0.41835 0.0
H264 H 0.34051 0.86325 0.42747 0.0
C265 C 0.52688 0.27254 0.78342 0.0
C266 C 0.50427 0.25922 0.7919 0.0
C267 C 0.47682 0.23558 0.78702 0.0
C268 C 0.48405 0.23585 0.77585 0.0
N269 N 0.51429 0.25824 0.77343 0.0
Co270 Co 0.53421 0.2675 0.75833 0.0
N271 N 0.49211 0.2452 0.75065 0.0
C272 C 0.4642 0.2242 0.75548 0.0
C273 C 0.43901 0.21228 0.7481 0.0
C274 C 0.45199 0.22642 0.73798 0.0
C275 C 0.48453 0.24616 0.73974 0.0
N276 N 0.55458 0.2769 0.74331 0.0
C277 C 0.54189 0.27531 0.73303 0.0
C278 C 0.56469 0.28272 0.72469 0.0
C279 C 0.59239 0.28886 0.72996 0.0
C280 C 0.58508 0.28489 0.74118 0.0
N281 N 0.57629 0.2896 0.76596 0.0
C282 C 0.60443 0.29597 0.76147 0.0
C283 C 0.62952 0.31121 0.76881 0.0
C284 C 0.61627 0.31456 0.77853 0.0
C285 C 0.58374 0.30119 0.77654 0.0
N286 N 0.53469 0.2266 0.75872 0.0
C287 C 0.52975 0.16558 0.75967 0.0
C288 C 0.52118 0.17609 0.75 0.0
C289 C 0.52416 0.2065 0.74965 0.0
C290 C 0.54176 0.18689 0.76878 0.0
C291 C 0.54377 0.217 0.76818 0.0
N292 N 0.53288 0.30777 0.75792 0.0
C293 C 0.55774 0.36472 0.75465 0.0
C294 C 0.52909 0.36439 0.75717 0.0
C295 C 0.50265 0.33501 0.7602 0.0
C296 C 0.50508 0.30733 0.7606 0.0
C297 C 0.55906 0.33622 0.75498 0.0
H298 H 0.48421 0.28544 0.76309 0.0
H299 H 0.58122 0.33716 0.75281 0.0
H300 H 0.51733 0.21345 0.74201 0.0
H301 H 0.55217 0.23229 0.77546 0.0
C302 C 0.46201 0.22013 0.76718 0.0
C303 C 0.56037 0.29775 0.78509 0.0
C304 C 0.50786 0.26349 0.73076 0.0
C305 C 0.60701 0.29249 0.74993 0.0
H306 H 0.50716 0.26596 0.80066 0.0
H307 H 0.4539 0.22106 0.79104 0.0
H308 H 0.41404 0.19603 0.74991 0.0
H309 H 0.43903 0.22241 0.73019 0.0
H310 H 0.56152 0.28298 0.71571 0.0
H311 H 0.61526 0.29602 0.72608 0.0
H312 H 0.6546 0.32 0.76717 0.0
H313 H 0.62905 0.32541 0.78621 0.0
H314 H 0.51228 0.1609 0.74267 0.0
H315 H 0.54869 0.18001 0.77646 0.0
H316 H 0.57885 0.38672 0.75221 0.0
H317 H 0.48013 0.33339 0.76241 0.0
C318 C 0.49638 0.75846 0.55673 0.0
C319 C 0.5202 0.77285 0.5487 0.0
C320 C 0.54859 0.78277 0.55411 0.0
C321 C 0.54059 0.77404 0.5651 0.0
N322 N 0.50872 0.75856 0.56701 0.0
Co323 Co 0.48687 0.74451 0.58199 0.0
N324 N 0.52873 0.7633 0.59024 0.0
C325 C 0.55825 0.77758 0.58559 0.0
C326 C 0.58244 0.78766 0.59331 0.0
C327 C 0.56751 0.77926 0.6035 0.0
C328 C 0.53494 0.76457 0.60142 0.0
N329 N 0.46479 0.73111 0.59691 0.0
C330 C 0.47693 0.73606 0.60746 0.0
C331 C 0.45284 0.72386 0.6155 0.0
C332 C 0.42456 0.71027 0.60983 0.0
C333 C 0.43288 0.71514 0.59873 0.0
N334 N 0.44503 0.72541 0.57377 0.0
C335 C 0.41552 0.70812 0.57826 0.0
C336 C 0.39126 0.69832 0.57059 0.0
C337 C 0.40611 0.71059 0.56061 0.0
C338 C 0.43871 0.72743 0.56281 0.0
N339 N 0.48681 0.7029 0.58079 0.0
C340 C 0.48962 0.64514 0.58033 0.0
C341 C 0.46169 0.64538 0.58355 0.0
C342 C 0.46087 0.67416 0.58377 0.0
C343 C 0.51576 0.6746 0.57724 0.0
C344 C 0.5137 0.70246 0.57737 0.0
N345 N 0.4875 0.78608 0.58317 0.0
C346 C 0.46099 0.81721 0.58563 0.0
C347 C 0.48966 0.84594 0.58375 0.0
C348 C 0.51712 0.84382 0.58185 0.0
C349 C 0.5155 0.81419 0.58154 0.0
C350 C 0.46045 0.78777 0.58533 0.0
H351 H 0.53739 0.81474 0.5799 0.0
H352 H 0.43793 0.7666 0.58675 0.0
H353 H 0.43902 0.67255 0.58644 0.0
H354 H 0.5346 0.72345 0.57477 0.0
C355 C 0.56241 0.78219 0.57396 0.0
C356 C 0.46249 0.74634 0.55432 0.0
C357 C 0.51087 0.75181 0.61033 0.0
C358 C 0.41129 0.7047 0.58984 0.0
H359 H 0.51739 0.77654 0.53992 0.0
H360 H 0.57233 0.79588 0.55052 0.0
H361 H 0.6079 0.79985 0.59172 0.0
H362 H 0.57926 0.78343 0.61156 0.0
H363 H 0.45536 0.72461 0.62453 0.0
H364 H 0.40075 0.69825 0.61339 0.0
H365 H 0.36578 0.68503 0.57216 0.0
H366 H 0.39426 0.70827 0.55267 0.0
H367 H 0.44031 0.62349 0.58585 0.0
H368 H 0.53837 0.6767 0.5749 0.0
H369 H 0.43891 0.81726 0.58713 0.0
H370 H 0.54017 0.86506 0.58066 0.0
C371 C 0.74514 0.49382 0.88933 0.0
C372 C 0.75455 0.51792 0.88143 0.0
C373 C 0.77303 0.54605 0.88695 0.0
C374 C 0.77378 0.53765 0.89789 0.0
N375 N 0.75733 0.50577 0.89966 0.0
Co376 Co 0.74962 0.4834 0.91452 0.0
N377 N 0.77231 0.52488 0.92296 0.0
C378 C 0.78739 0.55453 0.91846 0.0
C379 C 0.80058 0.57838 0.92632 0.0
C380 C 0.79345 0.56309 0.93645 0.0
C381 C 0.77627 0.53065 0.93418 0.0
N382 N 0.74117 0.46081 0.92931 0.0
C383 C 0.74773 0.47255 0.93992 0.0
C384 C 0.73758 0.44829 0.94782 0.0
C385 C 0.72382 0.42026 0.94203 0.0
C386 C 0.72642 0.42892 0.93097 0.0
N387 N 0.72708 0.44195 0.90612 0.0
C388 C 0.71517 0.41234 0.91046 0.0
C389 C 0.70089 0.38841 0.90268 0.0
C390 C 0.70325 0.40358 0.89279 0.0
C391 C 0.71869 0.43603 0.89515 0.0
N392 N 0.7914 0.48369 0.91317 0.0
C393 C 0.85219 0.48688 0.91269 0.0
C394 C 0.82405 0.45862 0.91554 0.0
C395 C 0.79434 0.4576 0.91577 0.0
C396 C 0.84881 0.51316 0.90991 0.0
C397 C 0.81877 0.51093 0.91006 0.0
N398 N 0.70856 0.48369 0.91589 0.0
C399 C 0.6513 0.45712 0.91922 0.0
C400 C 0.65106 0.48578 0.91773 0.0
C401 C 0.68008 0.51307 0.9152 0.0
C402 C 0.70807 0.51149 0.91428 0.0
C403 C 0.68019 0.45665 0.91836 0.0
H404 H 0.72908 0.53321 0.9122 0.0
H405 H 0.67921 0.43428 0.91972 0.0
H406 H 0.77416 0.43544 0.91813 0.0
H407 H 0.81864 0.53197 0.90771 0.0
C408 C 0.78717 0.55912 0.90685 0.0
C409 C 0.72344 0.46006 0.88678 0.0
C410 C 0.76362 0.50628 0.94296 0.0
C411 C 0.71506 0.40767 0.92199 0.0
H412 H 0.74802 0.5155 0.87265 0.0
H413 H 0.78358 0.56987 0.88348 0.0
H414 H 0.81334 0.60387 0.92487 0.0
H415 H 0.79983 0.57449 0.94459 0.0
H416 H 0.73992 0.45062 0.95684 0.0
H417 H 0.71312 0.39641 0.94548 0.0
H418 H 0.68913 0.36293 0.90411 0.0
H419 H 0.69391 0.39202 0.8848 0.0
H420 H 0.82468 0.43714 0.91756 0.0
H421 H 0.86937 0.53597 0.90782 0.0
H422 H 0.62944 0.43529 0.92122 0.0
H423 H 0.68122 0.53572 0.91375 0.0
C424 C 0.25378 0.74025 0.22309 0.0
C425 C 0.2382 0.74911 0.21533 0.0
C426 C 0.22864 0.76754 0.22093 0.0
C427 C 0.23856 0.76872 0.23178 0.0
N428 N 0.25444 0.75261 0.23343 0.0
Co429 Co 0.26923 0.74471 0.24823 0.0
N430 N 0.25043 0.76723 0.25679 0.0
C431 C 0.23633 0.78287 0.25236 0.0
C432 C 0.22566 0.79593 0.26028 0.0
C433 C 0.23334 0.78812 0.27037 0.0
C434 C 0.24832 0.77067 0.26803 0.0
N435 N 0.28312 0.73568 0.26298 0.0
C436 C 0.27733 0.74141 0.27363 0.0
C437 C 0.29109 0.73071 0.28149 0.0
C438 C 0.30574 0.71742 0.27562 0.0
C439 C 0.30018 0.72077 0.26457 0.0
N440 N 0.2885 0.72268 0.23971 0.0
C441 C 0.30668 0.71118 0.24396 0.0
C442 C 0.3171 0.69783 0.23608 0.0
C443 C 0.3043 0.70039 0.22621 0.0
C444 C 0.2864 0.71488 0.22868 0.0
N445 N 0.31071 0.78651 0.24703 0.0
C446 C 0.36785 0.84717 0.2471 0.0
C447 C 0.36817 0.81933 0.25007 0.0
C448 C 0.3396 0.7896 0.25006 0.0
C449 C 0.33866 0.84385 0.24373 0.0
C450 C 0.31094 0.81374 0.2436 0.0
N451 N 0.22792 0.70366 0.24948 0.0
C452 C 0.19744 0.64618 0.25207 0.0
C453 C 0.16844 0.64611 0.2511 0.0
C454 C 0.16999 0.67533 0.24922 0.0
C455 C 0.19952 0.70336 0.24838 0.0
C456 C 0.22675 0.6751 0.25135 0.0
H457 H 0.19869 0.72456 0.24677 0.0
H458 H 0.24824 0.67398 0.25233 0.0
H459 H 0.34154 0.76961 0.25268 0.0
H460 H 0.28999 0.81338 0.24075 0.0
C461 C 0.23104 0.78243 0.24079 0.0
C462 C 0.26644 0.71904 0.2204 0.0
C463 C 0.25929 0.7571 0.27675 0.0
C464 C 0.31071 0.71025 0.2555 0.0
H465 H 0.23337 0.74226 0.20661 0.0
H466 H 0.21489 0.77776 0.21759 0.0
H467 H 0.21301 0.80884 0.25889 0.0
H468 H 0.22804 0.79411 0.27854 0.0
H469 H 0.29064 0.73236 0.29054 0.0
H470 H 0.31882 0.70653 0.279 0.0
H471 H 0.33129 0.68649 0.23741 0.0
H472 H 0.30708 0.69171 0.21815 0.0
H473 H 0.39022 0.82055 0.2527 0.0
H474 H 0.33717 0.86451 0.2411 0.0
H475 H 0.19754 0.62415 0.25356 0.0
H476 H 0.14835 0.67659 0.2482 0.0
C477 C 0.52256 0.2517 0.55699 0.0
C478 C 0.49838 0.23705 0.5491 0.0
C479 C 0.47021 0.22684 0.5547 0.0
C480 C 0.47873 0.23576 0.56566 0.0
N481 N 0.5107 0.25156 0.56736 0.0
Co482 Co 0.53325 0.26633 0.58219 0.0
N483 N 0.49178 0.24809 0.59067 0.0
C484 C 0.46208 0.23391 0.58618 0.0
C485 C 0.43825 0.22429 0.59403 0.0
C486 C 0.45361 0.23291 0.60414 0.0
C487 C 0.48607 0.24724 0.60188 0.0
N488 N 0.55598 0.28026 0.59698 0.0
C489 C 0.54431 0.27582 0.6076 0.0
C490 C 0.56875 0.28843 0.61549 0.0
C491 C 0.59677 0.30157 0.60968 0.0
C492 C 0.58795 0.29609 0.59863 0.0
N493 N 0.57474 0.28514 0.57372 0.0
C494 C 0.60445 0.30217 0.57808 0.0
C495 C 0.62842 0.31124 0.57033 0.0
C496 C 0.61318 0.29898 0.56041 0.0
C497 C 0.58061 0.28308 0.5627 0.0
N498 N 0.53333 0.3079 0.58087 0.0
C499 C 0.52993 0.36508 0.58105 0.0
C500 C 0.55798 0.36515 0.58414 0.0
C501 C 0.5591 0.33654 0.58406 0.0
C502 C 0.50422 0.33612 0.57746 0.0
C503 C 0.50654 0.30838 0.5773 0.0
N504 N 0.53256 0.22476 0.58355 0.0
C505 C 0.55911 0.19371 0.58607 0.0
C506 C 0.53003 0.16494 0.58514 0.0
C507 C 0.50248 0.16688 0.58334 0.0
C508 C 0.50428 0.19655 0.58251 0.0
C509 C 0.5598 0.22315 0.58537 0.0
H510 H 0.48231 0.19594 0.58095 0.0
H511 H 0.58256 0.24435 0.58631 0.0
H512 H 0.58092 0.3381 0.58675 0.0
H513 H 0.48602 0.28756 0.57434 0.0
C514 C 0.45736 0.22844 0.57461 0.0
C515 C 0.55639 0.26495 0.55423 0.0
C516 C 0.51051 0.25995 0.61065 0.0
C517 C 0.60913 0.30597 0.58962 0.0
H518 H 0.50089 0.23371 0.54026 0.0
H519 H 0.44632 0.21378 0.55125 0.0
H520 H 0.41271 0.21214 0.59259 0.0
H521 H 0.44224 0.22904 0.61226 0.0
H522 H 0.5666 0.28818 0.62453 0.0
H523 H 0.62073 0.3137 0.6131 0.0
H524 H 0.65395 0.32399 0.57181 0.0
H525 H 0.62481 0.30069 0.55247 0.0
H526 H 0.57872 0.387 0.58693 0.0
H527 H 0.48222 0.3348 0.57471 0.0
H528 H 0.58117 0.19354 0.58751 0.0
H529 H 0.47945 0.14544 0.58236 0.0
C530 C 0.27734 0.51835 0.88992 0.0
C531 C 0.26766 0.4939 0.88215 0.0
C532 C 0.24983 0.46601 0.88789 0.0
C533 C 0.24967 0.47495 0.8988 0.0
N534 N 0.26584 0.50691 0.90036 0.0
Co535 Co 0.27407 0.52996 0.91509 0.0
N536 N 0.25061 0.48891 0.92374 0.0
C537 C 0.23454 0.45914 0.91937 0.0
C538 C 0.22015 0.43566 0.92731 0.0
C539 C 0.22733 0.45133 0.93736 0.0
C540 C 0.24588 0.48361 0.93497 0.0
N541 N 0.28351 0.55316 0.9298 0.0
C542 C 0.2765 0.54188 0.94046 0.0
C543 C 0.28881 0.56652 0.94826 0.0
C544 C 0.30385 0.59428 0.94234 0.0
C545 C 0.3001 0.58511 0.93132 0.0
N546 N 0.29678 0.57105 0.90645 0.0
C547 C 0.30967 0.60087 0.91069 0.0
C548 C 0.32431 0.6245 0.90283 0.0
C549 C 0.32088 0.60891 0.89295 0.0
C550 C 0.30427 0.5765 0.89538 0.0
N551 N 0.23282 0.53053 0.91381 0.0
C552 C 0.17241 0.52756 0.91399 0.0
C553 C 0.20033 0.55523 0.91734 0.0
C554 C 0.23 0.55615 0.91724 0.0
C555 C 0.17566 0.50209 0.91014 0.0
C556 C 0.20563 0.50419 0.90999 0.0
N557 N 0.31475 0.52878 0.91637 0.0
C558 C 0.37259 0.55488 0.91799 0.0
C559 C 0.372 0.52566 0.91692 0.0
C560 C 0.34203 0.49819 0.91589 0.0
C561 C 0.31423 0.50027 0.91556 0.0
C562 C 0.34391 0.55588 0.91774 0.0
H563 H 0.29254 0.47828 0.91458 0.0
H564 H 0.3458 0.5788 0.91857 0.0
H565 H 0.25024 0.57766 0.92012 0.0
H566 H 0.20593 0.48385 0.90683 0.0
C567 C 0.23534 0.45399 0.90783 0.0
C568 C 0.29781 0.552 0.88701 0.0
C569 C 0.25822 0.50827 0.94366 0.0
C570 C 0.3111 0.60593 0.92222 0.0
H571 H 0.2733 0.49606 0.87329 0.0
H572 H 0.23883 0.44203 0.88454 0.0
H573 H 0.20646 0.41014 0.92597 0.0
H574 H 0.21987 0.44028 0.94553 0.0
H575 H 0.28708 0.56467 0.95731 0.0
H576 H 0.31599 0.61831 0.94566 0.0
H577 H 0.33719 0.65003 0.90419 0.0
H578 H 0.33046 0.6202 0.88494 0.0
H579 H 0.19919 0.57577 0.92033 0.0
H580 H 0.15502 0.48041 0.90717 0.0
H581 H 0.39506 0.577 0.91881 0.0
H582 H 0.33974 0.47479 0.91537 0.0
C583 C 0.76305 0.27312 0.22314 0.0
C584 C 0.77814 0.26423 0.2152 0.0
C585 C 0.78792 0.24571 0.22063 0.0
C586 C 0.77857 0.2445 0.23156 0.0
N587 N 0.76283 0.26065 0.23342 0.0
Co588 Co 0.74864 0.26838 0.24838 0.0
N589 N 0.76763 0.24562 0.25667 0.0
C590 C 0.78147 0.22995 0.25205 0.0
C591 C 0.79236 0.21671 0.25982 0.0
C592 C 0.78512 0.22444 0.27001 0.0
C593 C 0.77018 0.24203 0.26787 0.0
N594 N 0.73536 0.27725 0.26328 0.0
C595 C 0.74156 0.27137 0.27385 0.0
C596 C 0.72822 0.28207 0.28186 0.0
C597 C 0.7134 0.2955 0.27619 0.0
C598 C 0.71844 0.29221 0.26508 0.0
N599 N 0.72919 0.29066 0.24013 0.0
C600 C 0.71124 0.30218 0.24459 0.0
C601 C 0.70089 0.31602 0.23688 0.0
C602 C 0.71345 0.31374 0.22691 0.0
C603 C 0.7311 0.29886 0.22915 0.0
N604 N 0.70704 0.22668 0.24723 0.0
C605 C 0.64937 0.16602 0.24674 0.0
C606 C 0.64959 0.1938 0.25033 0.0
C607 C 0.6783 0.22344 0.25054 0.0
C608 C 0.67873 0.16969 0.24327 0.0
C609 C 0.70657 0.19966 0.24344 0.0
N610 N 0.79006 0.30935 0.2495 0.0
C611 C 0.82085 0.36694 0.25175 0.0
C612 C 0.84973 0.36717 0.24995 0.0
C613 C 0.84787 0.3377 0.24822 0.0
C614 C 0.81831 0.30959 0.24799 0.0
C615 C 0.79148 0.33796 0.25152 0.0
H616 H 0.81898 0.28827 0.24649 0.0
H617 H 0.77012 0.33909 0.25288 0.0
H618 H 0.67655 0.24331 0.25347 0.0
H619 H 0.72748 0.20003 0.24055 0.0
C620 C 0.78635 0.23058 0.24043 0.0
C621 C 0.75052 0.29455 0.22069 0.0
C622 C 0.75967 0.25559 0.27674 0.0
C623 C 0.70761 0.30289 0.25616 0.0
H624 H 0.78246 0.27109 0.20646 0.0
H625 H 0.8014 0.23541 0.2171 0.0
H626 H 0.80487 0.20375 0.25827 0.0
H627 H 0.79068 0.2183 0.27811 0.0
H628 H 0.72907 0.2803 0.29089 0.0
H629 H 0.70056 0.30644 0.27974 0.0
H630 H 0.68696 0.32755 0.2384 0.0
H631 H 0.71069 0.32285 0.21895 0.0
H632 H 0.62771 0.19295 0.25293 0.0
H633 H 0.68072 0.14939 0.24058 0.0
H634 H 0.82074 0.389 0.25313 0.0
H635 H 0.86926 0.33607 0.24711 0.0
H636 H 0.28766 0.48547 0.95729 0.0
H637 H 0.28206 0.47782 0.97775 0.0
H638 H 0.21039 0.50624 0.97777 0.0
H639 H 0.21581 0.51342 0.95734 0.0
H640 H 0.29464 0.52114 0.99364 0.0
H641 H 0.15872 0.47149 0.99963 0.0
H642 H 0.10819 0.43719 0.98962 0.0
H643 H 0.15148 0.39009 0.9726 0.0
H644 H 0.20209 0.42375 0.98262 0.0
H645 H 0.21076 0.51293 0.04973 0.0
H646 H 0.20754 0.50653 0.02922 0.0
H647 H 0.27539 0.47331 0.03054 0.0
H648 H 0.27892 0.4802 0.05098 0.0
H649 H 0.19221 0.45802 0.01406 0.0
H650 H 0.32763 0.50642 0.00871 0.0
H651 H 0.37793 0.54087 0.01883 0.0
H652 H 0.33542 0.59077 0.0344 0.0
H653 H 0.28508 0.55698 0.02425 0.0
C654 C 0.27029 0.48939 0.96169 0.0
C655 C 0.25194 0.49971 0.9558 0.0
C656 C 0.26723 0.48527 0.97336 0.0
C657 C 0.24563 0.49122 0.97936 0.0
C658 C 0.22682 0.50093 0.97338 0.0
C659 C 0.2299 0.50505 0.96171 0.0
C660 C 0.24401 0.489 0.99189 0.0
C661 C 0.27229 0.50684 0.99807 0.0
C662 C 0.21478 0.47108 0.99777 0.0
C663 C 0.1843 0.45039 0.99181 0.0
C664 C 0.15741 0.45372 0.99379 0.0
C665 C 0.12876 0.4344 0.98811 0.0
C666 C 0.12666 0.41155 0.98046 0.0
C667 C 0.15317 0.40788 0.9785 0.0
C668 C 0.18186 0.42711 0.98417 0.0
C669 C 0.2243 0.50349 0.04562 0.0
C670 C 0.24471 0.49659 0.05191 0.0
C671 C 0.22253 0.4999 0.03392 0.0
C672 C 0.24147 0.48975 0.02828 0.0
C673 C 0.26077 0.48146 0.03465 0.0
C674 C 0.26254 0.48508 0.04634 0.0
C675 C 0.24283 0.49003 0.01575 0.0
C676 C 0.21455 0.47204 0.00959 0.0
C677 C 0.27204 0.50788 0.00987 0.0
C678 C 0.30248 0.52891 0.0158 0.0
C679 C 0.32908 0.52485 0.01425 0.0
C680 C 0.35759 0.54425 0.02 0.0
C681 C 0.35983 0.56791 0.02729 0.0
C682 C 0.33362 0.57236 0.02879 0.0
C683 C 0.30509 0.55308 0.02304 0.0
H684 H 0.3819 0.58285 0.03175 0.0
H685 H 0.10446 0.39664 0.97606 0.0
H686 H 0.73056 0.20493 0.38361 0.0
H687 H 0.7349 0.20264 0.36312 0.0
H688 H 0.80888 0.30169 0.36287 0.0
H689 H 0.80412 0.30391 0.38332 0.0
H690 H 0.76496 0.29137 0.34758 0.0
H691 H 0.82476 0.24036 0.35755 0.0
H692 H 0.83449 0.20076 0.36708 0.0
H693 H 0.75443 0.12487 0.34991 0.0
H694 H 0.74392 0.164 0.3404 0.0
H695 H 0.80396 0.30189 0.29024 0.0
H696 H 0.80897 0.30022 0.31069 0.0
H697 H 0.73333 0.20189 0.31093 0.0
H698 H 0.72877 0.20355 0.29041 0.0
H699 H 0.77917 0.2114 0.32617 0.0
H700 H 0.71756 0.26133 0.31706 0.0
H701 H 0.70654 0.30023 0.30765 0.0
H702 H 0.78894 0.37736 0.32336 0.0
H703 H 0.80062 0.33891 0.3328 0.0
C704 C 0.7482 0.22592 0.37916 0.0
C705 C 0.76722 0.2545 0.38498 0.0
C706 C 0.75069 0.22466 0.36746 0.0
C707 C 0.77237 0.25197 0.36138 0.0
C708 C 0.79199 0.2803 0.36731 0.0
C709 C 0.78947 0.28154 0.37899 0.0
C710 C 0.77322 0.25165 0.34884 0.0
C711 C 0.76863 0.27419 0.34293 0.0
C712 C 0.77702 0.22868 0.34268 0.0
C713 C 0.78338 0.20511 0.34834 0.0
C714 C 0.80907 0.21521 0.35587 0.0
C715 C 0.81475 0.19285 0.36126 0.0
C716 C 0.79505 0.16031 0.35912 0.0
C717 C 0.76966 0.15008 0.35156 0.0
C718 C 0.76385 0.17234 0.34617 0.0
C719 C 0.78898 0.27977 0.29467 0.0
C720 C 0.76615 0.25279 0.28881 0.0
C721 C 0.79162 0.27886 0.30635 0.0
C722 C 0.77117 0.25106 0.31243 0.0
C723 C 0.74937 0.22361 0.30648 0.0
C724 C 0.74679 0.22451 0.29477 0.0
C725 C 0.77122 0.2513 0.32497 0.0
C726 C 0.77575 0.22868 0.33086 0.0
C727 C 0.76722 0.2741 0.33115 0.0
C728 C 0.76013 0.29726 0.32555 0.0
C729 C 0.73344 0.2866 0.31845 0.0
C730 C 0.72704 0.30856 0.31313 0.0
C731 C 0.74709 0.34124 0.31487 0.0
C732 C 0.77347 0.35203 0.322 0.0
C733 C 0.77996 0.33017 0.32735 0.0
H734 H 0.74213 0.3582 0.31073 0.0
H735 H 0.79948 0.14304 0.3633 0.0
H736 H 0.50299 0.70028 0.71635 0.0
H737 H 0.51036 0.70356 0.6959 0.0
H738 H 0.54221 0.80421 0.69708 0.0
H739 H 0.5343 0.80068 0.71749 0.0
H740 H 0.49816 0.77582 0.68124 0.0
H741 H 0.59436 0.77599 0.69142 0.0
H742 H 0.62637 0.756 0.70083 0.0
H743 H 0.57593 0.66778 0.68271 0.0
H744 H 0.54329 0.68707 0.67329 0.0
H745 H 0.53695 0.80465 0.62372 0.0
H746 H 0.54453 0.80676 0.64416 0.0
H747 H 0.51176 0.70586 0.6445 0.0
H748 H 0.50484 0.70402 0.62405 0.0
H749 H 0.55909 0.7363 0.65956 0.0
H750 H 0.46132 0.73385 0.65026 0.0
H751 H 0.42818 0.75229 0.64073 0.0
H752 H 0.47978 0.84283 0.6574 0.0
H753 H 0.51366 0.8251 0.66688 0.0
C754 C 0.51233 0.72319 0.71223 0.0
C755 C 0.51877 0.75036 0.71849 0.0
C756 C 0.51651 0.7251 0.70055 0.0
C757 C 0.52718 0.75423 0.69489 0.0
C758 C 0.53411 0.7815 0.70121 0.0
C759 C 0.52993 0.77957 0.71288 0.0
C760 C 0.52922 0.7559 0.68236 0.0
C761 C 0.512 0.76772 0.67653 0.0
C762 C 0.54645 0.74447 0.67612 0.0
C763 C 0.56619 0.73289 0.68172 0.0
C764 C 0.58993 0.75224 0.6895 0.0
C765 C 0.60821 0.74105 0.69483 0.0
C766 C 0.60314 0.71061 0.69239 0.0
C767 C 0.57982 0.69134 0.68459 0.0
C768 C 0.56144 0.70241 0.67925 0.0
C769 C 0.53211 0.78316 0.62817 0.0
C770 C 0.52033 0.75419 0.62237 0.0
C771 C 0.53619 0.78427 0.63984 0.0
C772 C 0.5282 0.75633 0.64594 0.0
C773 C 0.51806 0.72772 0.64003 0.0
C774 C 0.5141 0.72665 0.62836 0.0
C775 C 0.52823 0.75642 0.65849 0.0
C776 C 0.54558 0.74472 0.6643 0.0
C777 C 0.51092 0.76773 0.66474 0.0
C778 C 0.49024 0.77826 0.65919 0.0
C779 C 0.46574 0.75776 0.65184 0.0
C780 C 0.44682 0.76808 0.64644 0.0
C781 C 0.45191 0.79874 0.64844 0.0
C782 C 0.4759 0.8191 0.65585 0.0
C783 C 0.49497 0.80894 0.66124 0.0
H784 H 0.43724 0.80669 0.64425 0.0
H785 H 0.61731 0.70199 0.69653 0.0
H786 H 0.81649 0.51929 0.04981 0.0
H787 H 0.81946 0.52707 0.02932 0.0
H788 H 0.72186 0.50719 0.0291 0.0
H789 H 0.71912 0.49976 0.04952 0.0
H790 H 0.7322 0.4712 0.01368 0.0
H791 H 0.78148 0.58125 0.02444 0.0
H792 H 0.82067 0.63021 0.03423 0.0
H793 H 0.89734 0.62862 0.01655 0.0
H794 H 0.85862 0.57933 0.00677 0.0
H795 H 0.71792 0.50285 0.95715 0.0
H796 H 0.7209 0.50825 0.97765 0.0
H797 H 0.81992 0.53278 0.97664 0.0
H798 H 0.8169 0.52776 0.95606 0.0
H799 H 0.8104 0.56742 0.99269 0.0
H800 H 0.76279 0.45715 0.98263 0.0
H801 H 0.72471 0.40725 0.97304 0.0
H802 H 0.64632 0.40846 0.98957 0.0
H803 H 0.68395 0.45851 0.99922 0.0
C804 C 0.79599 0.51724 0.04536 0.0
C805 C 0.76762 0.50901 0.05117 0.0
C806 C 0.79764 0.52163 0.03368 0.0
C807 C 0.77085 0.5177 0.02764 0.0
C808 C 0.74279 0.5103 0.03354 0.0
C809 C 0.74127 0.50622 0.04519 0.0
C810 C 0.77128 0.51941 0.01512 0.0
C811 C 0.74902 0.49244 0.00911 0.0
C812 C 0.79383 0.54673 0.00911 0.0
C813 C 0.81716 0.57639 0.01496 0.0
C814 C 0.80672 0.59117 0.02271 0.0
C815 C 0.82884 0.61901 0.02824 0.0
C816 C 0.86148 0.63247 0.02603 0.0
C817 C 0.87205 0.61814 0.01826 0.0
C818 C 0.85002 0.59026 0.01272 0.0
C819 C 0.74047 0.51014 0.96132 0.0
C820 C 0.76723 0.51509 0.95509 0.0
C821 C 0.74213 0.51296 0.97302 0.0
C822 C 0.77051 0.52042 0.97875 0.0
C823 C 0.79776 0.52698 0.97245 0.0
C824 C 0.79609 0.52419 0.96071 0.0
C825 C 0.77104 0.51932 0.99127 0.0
C826 C 0.79354 0.54626 0.99728 0.0
C827 C 0.74886 0.49186 0.99732 0.0
C828 C 0.72616 0.46173 0.99156 0.0
C829 C 0.73742 0.44688 0.98417 0.0
C830 C 0.71592 0.41854 0.97874 0.0
C831 C 0.68311 0.40476 0.98066 0.0
C832 C 0.67174 0.4192 0.98807 0.0
C833 C 0.69314 0.44751 0.99354 0.0
H834 H 0.66651 0.38285 0.97643 0.0
H835 H 0.87857 0.65404 0.03032 0.0
H836 H 0.29079 0.80994 0.28996 0.0
H837 H 0.28707 0.81319 0.31044 0.0
H838 H 0.21288 0.71429 0.3113 0.0
H839 H 0.21654 0.71124 0.29081 0.0
H840 H 0.20044 0.75017 0.32615 0.0
H841 H 0.28859 0.73483 0.31681 0.0
H842 H 0.33879 0.7476 0.30718 0.0
H843 H 0.38679 0.83892 0.32349 0.0
H844 H 0.33667 0.82691 0.33306 0.0
H845 H 0.21364 0.70946 0.38267 0.0
H846 H 0.21071 0.71404 0.36226 0.0
H847 H 0.28913 0.81099 0.36372 0.0
H848 H 0.29227 0.80604 0.38416 0.0
H849 H 0.29927 0.77929 0.34765 0.0
H850 H 0.21116 0.79296 0.35795 0.0
H851 H 0.16062 0.77962 0.36744 0.0
H852 H 0.1123 0.69099 0.34945 0.0
H853 H 0.16268 0.70358 0.33996 0.0
C854 C 0.27327 0.78918 0.29454 0.0
C855 C 0.25382 0.76041 0.28887 0.0
C856 C 0.27127 0.79094 0.30623 0.0
C857 C 0.24992 0.76387 0.31247 0.0
C858 C 0.22949 0.7355 0.30671 0.0
C859 C 0.23155 0.73373 0.29502 0.0
C860 C 0.25031 0.7645 0.325 0.0
C861 C 0.22198 0.7563 0.33085 0.0
C862 C 0.27852 0.77303 0.33118 0.0
C863 C 0.3088 0.78011 0.32556 0.0
C864 C 0.30979 0.75773 0.31828 0.0
C865 C 0.33823 0.76482 0.31284 0.0
C866 C 0.36595 0.79408 0.31471 0.0
C867 C 0.36529 0.81628 0.32204 0.0
C868 C 0.33687 0.80935 0.32748 0.0
C869 C 0.22975 0.73191 0.37862 0.0
C870 C 0.25297 0.75751 0.38494 0.0
C871 C 0.2281 0.73457 0.36696 0.0
C872 C 0.24953 0.76298 0.36139 0.0
C873 C 0.27229 0.78884 0.36779 0.0
C874 C 0.27395 0.78614 0.37946 0.0
C875 C 0.24936 0.76501 0.34886 0.0
C876 C 0.27776 0.77352 0.34298 0.0
C877 C 0.22117 0.75668 0.34267 0.0
C878 C 0.19078 0.74911 0.34831 0.0
C879 C 0.18982 0.77051 0.35607 0.0
C880 C 0.16119 0.7631 0.36144 0.0
C881 C 0.13328 0.73444 0.35906 0.0
C882 C 0.13394 0.71317 0.35129 0.0
C883 C 0.16252 0.72044 0.3459 0.0
H884 H 0.11114 0.72875 0.36323 0.0
H885 H 0.38795 0.79953 0.31049 0.0
H886 H 0.48063 0.2098 0.71785 0.0
H887 H 0.47337 0.2065 0.69743 0.0
H888 H 0.50769 0.30763 0.69614 0.0
H889 H 0.51445 0.31075 0.71663 0.0
H890 H 0.45914 0.27507 0.68098 0.0
H891 H 0.55769 0.27987 0.69114 0.0
H892 H 0.5912 0.26281 0.70123 0.0
H893 H 0.54013 0.17058 0.68567 0.0
H894 H 0.50599 0.18696 0.6756 0.0
H895 H 0.51555 0.30727 0.62439 0.0
H896 H 0.50782 0.30514 0.64479 0.0
H897 H 0.47849 0.205 0.64457 0.0
H898 H 0.48678 0.20743 0.62415 0.0
H899 H 0.52152 0.23495 0.66055 0.0
H900 H 0.42479 0.23177 0.64942 0.0
H901 H 0.39185 0.24962 0.63939 0.0
H902 H 0.43995 0.3395 0.65663 0.0
H903 H 0.47353 0.32237 0.66665 0.0
C904 C 0.48562 0.23108 0.71322 0.0
C905 C 0.4976 0.26044 0.7188 0.0
C906 C 0.48181 0.22928 0.70155 0.0
C907 C 0.49036 0.2569 0.69519 0.0
C908 C 0.50086 0.28599 0.70083 0.0
C909 C 0.50464 0.28777 0.71253 0.0
C910 C 0.49065 0.25588 0.68266 0.0
C911 C 0.47298 0.26655 0.67651 0.0
C912 C 0.50829 0.24429 0.67678 0.0
C913 C 0.52908 0.23453 0.6827 0.0
C914 C 0.55347 0.25588 0.68992 0.0
C915 C 0.57259 0.24635 0.69563 0.0
C916 C 0.56773 0.2156 0.69412 0.0
C917 C 0.54383 0.19437 0.68685 0.0
C918 C 0.5246 0.20377 0.68114 0.0
C919 C 0.50686 0.28472 0.62871 0.0
C920 C 0.5015 0.25745 0.62275 0.0
C921 C 0.50241 0.28346 0.64036 0.0
C922 C 0.49229 0.25482 0.64628 0.0
C923 C 0.48625 0.22736 0.64024 0.0
C924 C 0.49074 0.22866 0.62858 0.0
C925 C 0.48986 0.25401 0.6588 0.0
C926 C 0.50736 0.24317 0.66498 0.0
C927 C 0.47215 0.26556 0.66468 0.0
C928 C 0.45187 0.27587 0.65872 0.0
C929 C 0.42851 0.25543 0.65102 0.0
C930 C 0.4097 0.26541 0.64534 0.0
C931 C 0.41385 0.2957 0.64736 0.0
C932 C 0.43678 0.31605 0.65507 0.0
C933 C 0.45569 0.30621 0.66076 0.0
H934 H 0.39926 0.30338 0.64295 0.0
H935 H 0.58255 0.20826 0.69855 0.0
H936 H 0.23605 0.65479 0.21701 0.0
H937 H 0.23224 0.62614 0.19954 0.0
H938 H 0.27837 0.71531 0.18156 0.0
H939 H 0.2836 0.74421 0.19914 0.0
H940 H 0.21332 0.64945 0.17216 0.0
H941 H 0.32621 0.70069 0.18406 0.0
H942 H 0.36626 0.71245 0.19888 0.0
H943 H 0.32804 0.61215 0.20442 0.0
H944 H 0.28736 0.59986 0.18976 0.0
H945 H 0.24527 0.59774 0.12057 0.0
H946 H 0.24349 0.62596 0.13716 0.0
H947 H 0.26988 0.56915 0.15769 0.0
H948 H 0.27785 0.54573 0.1408 0.0
H949 H 0.29634 0.61902 0.16653 0.0
H950 H 0.18586 0.56495 0.15438 0.0
H951 H 0.14199 0.55012 0.14084 0.0
H952 H 0.16856 0.64865 0.13725 0.0
H953 H 0.21281 0.66408 0.15064 0.0
C954 C 0.24493 0.66821 0.20929 0.0
C955 C 0.25981 0.70171 0.20942 0.0
C956 C 0.24276 0.65183 0.19933 0.0
C957 C 0.25495 0.66857 0.18924 0.0
C958 C 0.2686 0.70192 0.18924 0.0
C959 C 0.2714 0.71839 0.19926 0.0
C960 C 0.25541 0.65138 0.17893 0.0
C961 C 0.23153 0.64291 0.17081 0.0
C962 C 0.27853 0.64199 0.17739 0.0
C963 C 0.3036 0.64938 0.18591 0.0
C964 C 0.32621 0.68117 0.1885 0.0
C965 C 0.34904 0.68793 0.19686 0.0
C966 C 0.34964 0.66306 0.20261 0.0
C967 C 0.32751 0.63139 0.19997 0.0
C968 C 0.30459 0.62452 0.19164 0.0
C969 C 0.25041 0.59106 0.12866 0.0
C970 C 0.26043 0.56834 0.12931 0.0
C971 C 0.24886 0.60695 0.13827 0.0
C972 C 0.25512 0.59913 0.14901 0.0
C973 C 0.26448 0.57581 0.14966 0.0
C974 C 0.26802 0.5614 0.13995 0.0
C975 C 0.25381 0.61633 0.15942 0.0
C976 C 0.27766 0.62496 0.16769 0.0
C977 C 0.23005 0.62516 0.16121 0.0
C978 C 0.20279 0.61567 0.15344 0.0
C979 C 0.18234 0.58343 0.15069 0.0
C980 C 0.15743 0.57494 0.14303 0.0
C981 C 0.15258 0.59847 0.13816 0.0
C982 C 0.1724 0.63048 0.14101 0.0
C983 C 0.19736 0.6391 0.14864 0.0
H984 H 0.1335 0.59202 0.13217 0.0
H985 H 0.36729 0.66834 0.20909 0.0
H986 H 0.65765 0.22191 0.45778 0.0
H987 H 0.62792 0.21846 0.47492 0.0
H988 H 0.71556 0.28858 0.4907 0.0
H989 H 0.74531 0.29143 0.47358 0.0
H990 H 0.67879 0.24536 0.50584 0.0
H991 H 0.66382 0.30943 0.47863 0.0
H992 H 0.64957 0.32167 0.46015 0.0
H993 H 0.55358 0.24375 0.46388 0.0
H994 H 0.56736 0.23082 0.48235 0.0
H995 H 0.57782 0.30657 0.53662 0.0
H996 H 0.60361 0.30286 0.51936 0.0
H997 H 0.58517 0.20946 0.52936 0.0
H998 H 0.55992 0.21357 0.54671 0.0
H999 H 0.58827 0.26562 0.50141 0.0
H1000 H 0.64888 0.20084 0.52193 0.0
H1001 H 0.66644 0.19445 0.54072 0.0
H1002 H 0.67777 0.2847 0.55086 0.0
H1003 H 0.66089 0.2919 0.53208 0.0
C1004 C 0.67058 0.23594 0.46503 0.0
C1005 C 0.70376 0.25667 0.46443 0.0
C1006 C 0.65358 0.23424 0.47479 0.0
C1007 C 0.66931 0.25366 0.48411 0.0
C1008 C 0.70277 0.27334 0.48367 0.0
C1009 C 0.71981 0.27492 0.47391 0.0
C1010 C 0.65074 0.25472 0.49403 0.0
C1011 C 0.6589 0.24961 0.50484 0.0
C1012 C 0.62516 0.26103 0.49285 0.0
C1013 C 0.61669 0.26898 0.48182 0.0
C1014 C 0.63972 0.2948 0.47548 0.0
C1015 C 0.63172 0.30187 0.46502 0.0
C1016 C 0.60072 0.28344 0.46083 0.0
C1017 C 0.5776 0.25798 0.46713 0.0
C1018 C 0.58547 0.25079 0.4776 0.0
C1019 C 0.57874 0.28503 0.53497 0.0
C1020 C 0.56682 0.26029 0.54292 0.0
C1021 C 0.59353 0.2829 0.52513 0.0
C1022 C 0.59686 0.25607 0.52307 0.0
C1023 C 0.58343 0.23064 0.53079 0.0
C1024 C 0.56873 0.23282 0.54065 0.0
C1025 C 0.61584 0.25554 0.5132 0.0
C1026 C 0.6079 0.26097 0.5024 0.0
C1027 C 0.64211 0.25032 0.51442 0.0
C1028 C 0.6533 0.24671 0.52563 0.0
C1029 C 0.65532 0.2194 0.52815 0.0
C1030 C 0.66514 0.21563 0.5388 0.0
C1031 C 0.67313 0.2391 0.54699 0.0
C1032 C 0.67151 0.26649 0.54452 0.0
C1033 C 0.66182 0.27043 0.53387 0.0
H1034 H 0.68062 0.23609 0.55523 0.0
H1035 H 0.5946 0.28893 0.45272 0.0
H1036 H 0.43921 0.65047 0.78986 0.0
H1037 H 0.41328 0.62106 0.80709 0.0
H1038 H 0.42945 0.70854 0.82255 0.0
H1039 H 0.45597 0.73793 0.80537 0.0
H1040 H 0.43708 0.67337 0.83781 0.0
H1041 H 0.35701 0.65506 0.81059 0.0
H1042 H 0.3303 0.63934 0.79217 0.0
H1043 H 0.31419 0.54438 0.79672 0.0
H1044 H 0.34124 0.55967 0.8151 0.0
H1045 H 0.27617 0.57144 0.86923 0.0
H1046 H 0.3049 0.59658 0.85178 0.0
H1047 H 0.38188 0.58119 0.86197 0.0
H1048 H 0.35327 0.55658 0.87949 0.0
H1049 H 0.32722 0.58106 0.83396 0.0
H1050 H 0.45315 0.64548 0.8542 0.0
H1051 H 0.47724 0.66467 0.87288 0.0
H1052 H 0.39685 0.67419 0.88272 0.0
H1053 H 0.3726 0.65564 0.86405 0.0
C1054 C 0.43786 0.66343 0.79705 0.0
C1055 C 0.45004 0.6965 0.79637 0.0
C1056 C 0.42277 0.64661 0.80687 0.0
C1057 C 0.41889 0.66239 0.81614 0.0
C1058 C 0.43213 0.69571 0.81558 0.0
C1059 C 0.44741 0.71256 0.80578 0.0
C1060 C 0.39971 0.64406 0.82616 0.0
C1061 C 0.41315 0.65308 0.83693 0.0
C1062 C 0.36807 0.61798 0.82516 0.0
C1063 C 0.3514 0.60859 0.81418 0.0
C1064 C 0.34793 0.63088 0.80763 0.0
C1065 C 0.33273 0.62204 0.7972 0.0
C1066 C 0.32063 0.5909 0.79327 0.0
C1067 C 0.32362 0.5685 0.79977 0.0
C1068 C 0.33886 0.57723 0.8102 0.0
C1069 C 0.29892 0.57288 0.86758 0.0
C1070 C 0.3125 0.56198 0.87562 0.0
C1071 C 0.31538 0.58729 0.85764 0.0
C1072 C 0.34586 0.59129 0.85557 0.0
C1073 C 0.35867 0.5789 0.8634 0.0
C1074 C 0.34224 0.56458 0.87336 0.0
C1075 C 0.36487 0.60991 0.84557 0.0
C1076 C 0.35131 0.60109 0.83482 0.0
C1077 C 0.39607 0.63669 0.84662 0.0
C1078 C 0.41093 0.64884 0.85776 0.0
C1079 C 0.44073 0.65186 0.86033 0.0
C1080 C 0.4544 0.66261 0.87091 0.0
C1081 C 0.43855 0.67056 0.87899 0.0
C1082 C 0.40908 0.66796 0.87647 0.0
C1083 C 0.39537 0.65733 0.86589 0.0
H1084 H 0.44912 0.67878 0.88719 0.0
H1085 H 0.30889 0.58412 0.78518 0.0
H1086 H 0.79502 0.43521 0.12308 0.0
H1087 H 0.79885 0.40966 0.14038 0.0
H1088 H 0.72852 0.42722 0.156 0.0
H1089 H 0.72465 0.4526 0.13867 0.0
H1090 H 0.8139 0.42645 0.16236 0.0
H1091 H 0.6778 0.36102 0.17126 0.0
H1092 H 0.62728 0.34108 0.16079 0.0
H1093 H 0.67234 0.33215 0.13103 0.0
H1094 H 0.72296 0.3516 0.14135 0.0
H1095 H 0.78289 0.35878 0.21723 0.0
H1096 H 0.78712 0.38781 0.19989 0.0
H1097 H 0.73578 0.29847 0.18209 0.0
H1098 H 0.73027 0.26947 0.19962 0.0
H1099 H 0.7131 0.33371 0.17593 0.0
H1100 H 0.82007 0.35303 0.17908 0.0
H1101 H 0.87165 0.36984 0.18843 0.0
H1102 H 0.88708 0.46482 0.19206 0.0
H1103 H 0.83538 0.44847 0.18287 0.0
C1104 C 0.78105 0.4343 0.13033 0.0
C1105 C 0.76 0.44636 0.12964 0.0
C1106 C 0.78315 0.41964 0.1402 0.0
C1107 C 0.76379 0.41621 0.14951 0.0
C1108 C 0.74355 0.42932 0.14893 0.0
C1109 C 0.74157 0.44412 0.13908 0.0
C1110 C 0.76331 0.39729 0.15952 0.0
C1111 C 0.79185 0.40625 0.16536 0.0
C1112 C 0.73475 0.37032 0.1633 0.0
C1113 C 0.70425 0.35809 0.15706 0.0
C1114 C 0.67688 0.35468 0.16249 0.0
C1115 C 0.64823 0.34348 0.15658 0.0
C1116 C 0.64663 0.33547 0.14524 0.0
C1117 C 0.67364 0.33849 0.1398 0.0
C1118 C 0.70232 0.34963 0.14568 0.0
C1119 C 0.77296 0.34543 0.20956 0.0
C1120 C 0.75671 0.31189 0.20973 0.0
C1121 C 0.77546 0.36203 0.19962 0.0
C1122 C 0.7622 0.34553 0.18953 0.0
C1123 C 0.74634 0.31193 0.18969 0.0
C1124 C 0.7435 0.29531 0.19968 0.0
C1125 C 0.76365 0.36318 0.17898 0.0
C1126 C 0.73522 0.35396 0.17301 0.0
C1127 C 0.79247 0.38946 0.17495 0.0
C1128 C 0.82373 0.39945 0.18037 0.0
C1129 C 0.83438 0.37746 0.18193 0.0
C1130 C 0.86364 0.38691 0.1872 0.0
C1131 C 0.88259 0.41836 0.19086 0.0
C1132 C 0.87236 0.44045 0.18923 0.0
C1133 C 0.8431 0.43112 0.18398 0.0
H1134 H 0.90523 0.42562 0.19494 0.0
H1135 H 0.62445 0.32684 0.14068 0.0
H1136 H 0.43778 0.78517 0.55047 0.0
H1137 H 0.41121 0.78874 0.53341 0.0
H1138 H 0.43433 0.72385 0.51663 0.0
H1139 H 0.46054 0.72004 0.53377 0.0
H1140 H 0.42684 0.80683 0.51203 0.0
H1141 H 0.37088 0.67332 0.50015 0.0
H1142 H 0.35456 0.62186 0.50947 0.0
H1143 H 0.34104 0.65881 0.54047 0.0
H1144 H 0.3567 0.71024 0.5313 0.0
H1145 H 0.36087 0.77961 0.45691 0.0
H1146 H 0.39015 0.78357 0.47418 0.0
H1147 H 0.3008 0.72559 0.49144 0.0
H1148 H 0.27161 0.72086 0.47399 0.0
H1149 H 0.33949 0.70518 0.49666 0.0
H1150 H 0.34964 0.80841 0.4962 0.0
H1151 H 0.36237 0.86047 0.48821 0.0
H1152 H 0.46047 0.88522 0.48419 0.0
H1153 H 0.44823 0.83311 0.49201 0.0
C1154 C 0.43773 0.77225 0.54304 0.0
C1155 C 0.45143 0.75257 0.54337 0.0
C1156 C 0.42251 0.77424 0.5333 0.0
C1157 C 0.42034 0.7563 0.52372 0.0
C1158 C 0.43528 0.73765 0.52392 0.0
C1159 C 0.45052 0.73568 0.53367 0.0
C1160 C 0.40098 0.75573 0.5138 0.0
C1161 C 0.40785 0.78459 0.50864 0.0
C1162 C 0.37549 0.72684 0.50952 0.0
C1163 C 0.3653 0.69574 0.51505 0.0
C1164 C 0.36426 0.67039 0.50894 0.0
C1165 C 0.35513 0.64124 0.5142 0.0
C1166 C 0.34686 0.6371 0.52556 0.0
C1167 C 0.34754 0.66206 0.53168 0.0
C1168 C 0.35655 0.69122 0.52645 0.0
C1169 C 0.34754 0.76824 0.46447 0.0
C1170 C 0.31398 0.75039 0.46418 0.0
C1171 C 0.36427 0.7705 0.47436 0.0
C1172 C 0.34783 0.75519 0.48425 0.0
C1173 C 0.31417 0.73772 0.48398 0.0
C1174 C 0.29744 0.7353 0.47405 0.0
C1175 C 0.36576 0.75628 0.49469 0.0
C1176 C 0.35857 0.72747 0.49998 0.0
C1177 C 0.39045 0.78529 0.49925 0.0
C1178 C 0.39795 0.81673 0.4946 0.0
C1179 C 0.37388 0.82487 0.49354 0.0
C1180 C 0.38102 0.8544 0.48905 0.0
C1181 C 0.41219 0.87611 0.48567 0.0
C1182 C 0.43632 0.86837 0.4868 0.0
C1183 C 0.42931 0.83885 0.49127 0.0
H1184 H 0.41767 0.89896 0.4822 0.0
H1185 H 0.33988 0.61454 0.52962 0.0
H1186 H 0.65948 0.43249 0.88301 0.0
H1187 H 0.6301 0.40654 0.8658 0.0
H1188 H 0.7194 0.43661 0.84865 0.0
H1189 H 0.74866 0.46184 0.866 0.0
H1190 H 0.62488 0.42214 0.84515 0.0
H1191 H 0.71118 0.37818 0.83065 0.0
H1192 H 0.74966 0.36466 0.83902 0.0
H1193 H 0.69944 0.34347 0.87041 0.0
H1194 H 0.66037 0.35629 0.86218 0.0
H1195 H 0.58665 0.36122 0.7893 0.0
H1196 H 0.61249 0.39012 0.80661 0.0
H1197 H 0.58861 0.30107 0.82272 0.0
H1198 H 0.56335 0.27235 0.80531 0.0
H1199 H 0.64792 0.34307 0.82739 0.0
H1200 H 0.54946 0.34215 0.82936 0.0
H1201 H 0.50528 0.3498 0.82287 0.0
H1202 H 0.57004 0.45048 0.81954 0.0
H1203 H 0.61472 0.44334 0.82584 0.0
C1204 C 0.67276 0.43403 0.87549 0.0
C1205 C 0.70631 0.44935 0.87579 0.0
C1206 C 0.65598 0.41918 0.86565 0.0
C1207 C 0.67238 0.41913 0.8559 0.0
C1208 C 0.70606 0.43581 0.85607 0.0
C1209 C 0.72284 0.45054 0.86594 0.0
C1210 C 0.65421 0.40023 0.84582 0.0
C1211 C 0.63011 0.40503 0.84124 0.0
C1212 C 0.66008 0.37699 0.84086 0.0
C1213 C 0.68307 0.36855 0.84582 0.0
C1214 C 0.70827 0.37048 0.83932 0.0
C1215 C 0.73018 0.36295 0.84404 0.0
C1216 C 0.72705 0.35331 0.85525 0.0
C1217 C 0.7019 0.35103 0.86174 0.0
C1218 C 0.67987 0.35843 0.85705 0.0
C1219 C 0.58644 0.34786 0.79662 0.0
C1220 C 0.57229 0.31451 0.79607 0.0
C1221 C 0.60124 0.36436 0.80652 0.0
C1222 C 0.60232 0.34786 0.81609 0.0
C1223 C 0.58808 0.31444 0.81551 0.0
C1224 C 0.57328 0.29796 0.80561 0.0
C1225 C 0.6191 0.36553 0.82655 0.0
C1226 C 0.64289 0.36041 0.83123 0.0
C1227 C 0.61222 0.38771 0.83181 0.0
C1228 C 0.58549 0.39216 0.82797 0.0
C1229 C 0.55433 0.36589 0.82714 0.0
C1230 C 0.52919 0.37012 0.82351 0.0
C1231 C 0.53485 0.40058 0.82076 0.0
C1232 C 0.56568 0.42687 0.82165 0.0
C1233 C 0.59093 0.42275 0.82526 0.0
H1234 H 0.51528 0.40375 0.81799 0.0
H1235 H 0.74408 0.34756 0.85889 0.0
H1236 H 0.90493 0.53561 0.08221 0.0
H1237 H 0.95848 0.54225 0.08235 0.0
H1238 H 0.92081 0.4485 0.09674 0.0
H1239 H 0.86714 0.44204 0.09693 0.0
H1240 H 0.97421 0.48952 0.1073 0.0
H1241 H 0.94463 0.46475 0.06871 0.0
H1242 H 0.92549 0.47079 0.05019 0.0
H1243 H 1.00472 0.56637 0.04766 0.0
H1244 H 0.02411 0.56106 0.06623 0.0
H1245 H 0.11443 0.47967 0.10191 0.0
H1246 H 0.06122 0.47194 0.10091 0.0
H1247 H 0.09628 0.55848 0.08164 0.0
H1248 H 0.14936 0.56427 0.0813 0.0
H1249 H 0.04337 0.52094 0.07355 0.0
H1250 H 0.07218 0.54592 0.1127 0.0
H1251 H 0.0897 0.53932 0.13146 0.0
H1252 H 0.01128 0.4433 0.13315 0.0
H1253 H 0.99327 0.44913 0.11438 0.0
C1254 C 0.90791 0.51636 0.08546 0.0
C1255 C 0.8814 0.48827 0.0896 0.0
C1256 C 0.93868 0.5201 0.08542 0.0
C1257 C 0.94398 0.4958 0.08945 0.0
C1258 C 0.91757 0.46765 0.09355 0.0
C1259 C 0.88671 0.46386 0.09356 0.0
C1260 C 0.97708 0.50011 0.08968 0.0
C1261 C 0.98918 0.49602 0.09988 0.0
C1262 C 0.99719 0.50939 0.0801 0.0
C1263 C 0.98565 0.5126 0.06891 0.0
C1264 C 0.95784 0.48714 0.06424 0.0
C1265 C 0.94697 0.49042 0.05373 0.0
C1266 C 0.96383 0.51897 0.04776 0.0
C1267 C 0.99166 0.54428 0.05229 0.0
C1268 C 1.00262 0.54114 0.06281 0.0
C1269 C 0.11123 0.49691 0.09718 0.0
C1270 C 0.13712 0.5225 0.09154 0.0
C1271 C 0.08036 0.49282 0.0969 0.0
C1272 C 0.07419 0.515 0.09147 0.0
C1273 C 0.09995 0.54089 0.08597 0.0
C1274 C 0.13076 0.54446 0.08592 0.0
C1275 C 0.04091 0.51066 0.09124 0.0
C1276 C 0.02864 0.51467 0.08102 0.0
C1277 C 0.02062 0.50135 0.10083 0.0
C1278 C 0.03155 0.49789 0.11209 0.0
C1279 C 0.05878 0.52334 0.11704 0.0
C1280 C 0.06879 0.51975 0.12768 0.0
C1281 C 0.05175 0.49093 0.13347 0.0
C1282 C 0.02451 0.46561 0.12865 0.0
C1283 C 0.01435 0.46905 0.11803 0.0
H1284 H 0.0596 0.48826 0.14169 0.0
H1285 H 0.95537 0.52147 0.03963 0.0
H1286 H 0.5915 0.14243 0.41224 0.0
H1287 H 0.54443 0.08878 0.41182 0.0
H1288 H 0.59051 0.05566 0.43475 0.0
H1289 H 0.63689 0.10912 0.43561 0.0
H1290 H 0.56367 0.01494 0.41647 0.0
H1291 H 0.53238 0.06681 0.44402 0.0
H1292 H 0.52222 0.10877 0.45114 0.0
H1293 H 0.45229 0.08687 0.4253 0.0
H1294 H 0.46237 0.04505 0.41792 0.0
H1295 H 0.43065 0.86224 0.43066 0.0
H1296 H 0.47766 0.91598 0.43053 0.0
H1297 H 0.4242 0.95092 0.41228 0.0
H1298 H 0.3772 0.89757 0.41261 0.0
H1299 H 0.45523 0.99132 0.42784 0.0
H1300 H 0.48539 0.9399 0.40009 0.0
H1301 H 0.49563 0.89863 0.3923 0.0
H1302 H 0.56743 0.92019 0.41738 0.0
H1303 H 0.55732 0.96132 0.42542 0.0
C1304 C 0.59154 0.12395 0.41735 0.0
C1305 C 0.6185 0.13045 0.42387 0.0
C1306 C 0.56457 0.09312 0.41704 0.0
C1307 C 0.56388 0.06797 0.42321 0.0
C1308 C 0.5905 0.07444 0.42981 0.0
C1309 C 0.61721 0.1052 0.43023 0.0
C1310 C 0.53564 0.03485 0.42279 0.0
C1311 C 0.54001 0.00971 0.41907 0.0
C1312 C 0.50453 0.02797 0.42591 0.0
C1313 C 0.49839 0.05305 0.43034 0.0
C1314 C 0.51504 0.07113 0.43979 0.0
C1315 C 0.50926 0.09485 0.44389 0.0
C1316 C 0.48669 0.10055 0.43866 0.0
C1317 C 0.4698 0.08247 0.42934 0.0
C1318 C 0.47553 0.05874 0.42519 0.0
C1319 C 0.42908 0.88129 0.42648 0.0
C1320 C 0.40004 0.87549 0.42167 0.0
C1321 C 0.45603 0.91213 0.4264 0.0
C1322 C 0.45482 0.93784 0.42133 0.0
C1323 C 0.42597 0.93181 0.41633 0.0
C1324 C 0.39902 0.90116 0.4165 0.0
C1325 C 0.4831 0.97114 0.42148 0.0
C1326 C 0.47879 0.9964 0.42518 0.0
C1327 C 0.51422 0.97817 0.41823 0.0
C1328 C 0.52036 0.95346 0.41343 0.0
C1329 C 0.50319 0.93567 0.404 0.0
C1330 C 0.509 0.91233 0.39953 0.0
C1331 C 0.5321 0.90673 0.40436 0.0
C1332 C 0.5495 0.92452 0.41366 0.0
C1333 C 0.54376 0.94786 0.41817 0.0
H1334 H 0.53657 0.88865 0.40088 0.0
H1335 H 0.48224 0.11892 0.44185 0.0
H1336 H 0.57156 0.42506 0.76485 0.0
H1337 H 0.56545 0.47253 0.76472 0.0
H1338 H 0.4743 0.4187 0.74825 0.0
H1339 H 0.48023 0.37129 0.74837 0.0
H1340 H 0.51081 0.479 0.73883 0.0
H1341 H 0.47788 0.43428 0.77595 0.0
H1342 H 0.48409 0.41538 0.7945 0.0
H1343 H 0.56531 0.50736 0.80142 0.0
H1344 H 0.55988 0.5267 0.78285 0.0
H1345 H 0.45646 0.59048 0.74542 0.0
H1346 H 0.46191 0.54306 0.74537 0.0
H1347 H 0.5403 0.5882 0.76872 0.0
H1348 H 0.5331 0.6343 0.76964 0.0
H1349 H 0.51053 0.5317 0.77446 0.0
H1350 H 0.54689 0.57761 0.73812 0.0
H1351 H 0.54406 0.59897 0.71963 0.0
H1352 H 0.46271 0.50876 0.71089 0.0
H1353 H 0.46482 0.48697 0.72939 0.0
C1354 C 0.55032 0.42336 0.76112 0.0
C1355 C 0.52635 0.3941 0.75667 0.0
C1356 C 0.54673 0.45055 0.76112 0.0
C1357 C 0.51923 0.44939 0.75656 0.0
C1358 C 0.4957 0.42043 0.75185 0.0
C1359 C 0.49907 0.39318 0.75199 0.0
C1360 C 0.51472 0.47806 0.75679 0.0
C1361 C 0.51042 0.49032 0.74664 0.0
C1362 C 0.51507 0.49366 0.7669 0.0
C1363 C 0.51864 0.48184 0.77797 0.0
C1364 C 0.49727 0.45038 0.78138 0.0
C1365 C 0.50061 0.43961 0.7919 0.0
C1366 C 0.52509 0.46017 0.79912 0.0
C1367 C 0.54637 0.49148 0.79582 0.0
C1368 C 0.54316 0.50236 0.7853 0.0
C1369 C 0.4746 0.59036 0.75071 0.0
C1370 C 0.49449 0.61707 0.75744 0.0
C1371 C 0.47812 0.56314 0.75051 0.0
C1372 C 0.50216 0.56183 0.75681 0.0
C1373 C 0.52166 0.58819 0.76366 0.0
C1374 C 0.51777 0.6151 0.76404 0.0
C1375 C 0.50685 0.53311 0.75647 0.0
C1376 C 0.51108 0.52067 0.76661 0.0
C1377 C 0.50713 0.51778 0.74632 0.0
C1378 C 0.50582 0.53077 0.73519 0.0
C1379 C 0.52827 0.5624 0.73229 0.0
C1380 C 0.52681 0.57457 0.7218 0.0
C1381 C 0.50317 0.55526 0.71411 0.0
C1382 C 0.48098 0.5237 0.71687 0.0
C1383 C 0.48231 0.51142 0.72735 0.0
H1384 H 0.50208 0.56473 0.70599 0.0
H1385 H 0.52748 0.45192 0.80729 0.0
H1386 H 0.56849 0.14497 0.57512 0.0
H1387 H 0.56164 0.09113 0.57518 0.0
H1388 H 0.47952 0.05854 0.59677 0.0
H1389 H 0.4863 0.11217 0.59677 0.0
H1390 H 0.51809 0.03425 0.60327 0.0
H1391 H 0.46924 0.04295 0.56923 0.0
H1392 H 0.46792 0.06748 0.55126 0.0
H1393 H 0.54358 0.05406 0.53854 0.0
H1394 H 0.54566 0.02984 0.55651 0.0
H1395 H 0.45625 0.86703 0.59676 0.0
H1396 H 0.46197 0.92023 0.59713 0.0
H1397 H 0.53422 0.95139 0.57139 0.0
H1398 H 0.52727 0.89807 0.57049 0.0
H1399 H 0.50027 0.9768 0.56717 0.0
H1400 H 0.55096 0.96945 0.60073 0.0
H1401 H 0.55472 0.9463 0.61871 0.0
H1402 H 0.47929 0.95865 0.63234 0.0
H1403 H 0.47479 0.98151 0.61438 0.0
C1404 C 0.54923 0.12644 0.58 0.0
C1405 C 0.52785 0.13295 0.58588 0.0
C1406 C 0.54517 0.09556 0.57996 0.0
C1407 C 0.5198 0.0705 0.58588 0.0
C1408 C 0.4992 0.07728 0.5921 0.0
C1409 C 0.50302 0.10799 0.59204 0.0
C1410 C 0.51411 0.03707 0.58538 0.0
C1411 C 0.51385 0.02156 0.59538 0.0
C1412 C 0.5092 0.02055 0.5751 0.0
C1413 C 0.50782 0.03488 0.56426 0.0
C1414 C 0.48576 0.04545 0.56263 0.0
C1415 C 0.48485 0.05926 0.55244 0.0
C1416 C 0.50571 0.06241 0.54377 0.0
C1417 C 0.52747 0.05165 0.54527 0.0
C1418 C 0.52851 0.03786 0.55545 0.0
C1419 C 0.47304 0.88502 0.59105 0.0
C1420 C 0.49158 0.878 0.58371 0.0
C1421 C 0.47663 0.91573 0.59138 0.0
C1422 C 0.49913 0.94042 0.58447 0.0
C1423 C 0.51688 0.93313 0.5769 0.0
C1424 C 0.5131 0.90248 0.57649 0.0
C1425 C 0.50445 0.97381 0.58507 0.0
C1426 C 0.50457 0.98937 0.57508 0.0
C1427 C 0.5096 0.9905 0.59536 0.0
C1428 C 0.51231 0.97687 0.60618 0.0
C1429 C 0.53502 0.96701 0.60754 0.0
C1430 C 0.53731 0.95398 0.61773 0.0
C1431 C 0.5172 0.95092 0.62665 0.0
C1432 C 0.49482 0.96098 0.62541 0.0
C1433 C 0.4924 0.974 0.61523 0.0
H1434 H 0.519 0.94082 0.63453 0.0
H1435 H 0.50497 0.07311 0.53588 0.0
H1436 H 0.42841 0.56162 0.9287 0.0
H1437 H 0.4757 0.55528 0.92905 0.0
H1438 H 0.43056 0.47736 0.90561 0.0
H1439 H 0.3839 0.48414 0.90487 0.0
H1440 H 0.45709 0.46259 0.92359 0.0
H1441 H 0.48887 0.54771 0.89689 0.0
H1442 H 0.49882 0.60019 0.89027 0.0
H1443 H 0.56766 0.64643 0.91655 0.0
H1444 H 0.55777 0.59415 0.92343 0.0
H1445 H 0.59127 0.44503 0.90911 0.0
H1446 H 0.54411 0.4516 0.9093 0.0
H1447 H 0.59615 0.53788 0.9287 0.0
H1448 H 0.64333 0.53169 0.92834 0.0
H1449 H 0.56574 0.54859 0.91312 0.0
H1450 H 0.53492 0.46474 0.94 0.0
H1451 H 0.52475 0.4127 0.94719 0.0
H1452 H 0.45421 0.36459 0.92156 0.0
H1453 H 0.46426 0.41639 0.91411 0.0
C1454 C 0.42864 0.54344 0.92348 0.0
C1455 C 0.40189 0.52324 0.91684 0.0
C1456 C 0.45572 0.53972 0.92374 0.0
C1457 C 0.45674 0.5157 0.9174 0.0
C1458 C 0.43031 0.49582 0.91069 0.0
C1459 C 0.40346 0.49969 0.91033 0.0
C1460 C 0.48511 0.51099 0.91776 0.0
C1461 C 0.4808 0.48129 0.92119 0.0
C1462 C 0.51625 0.53554 0.91489 0.0
C1463 C 0.52232 0.56699 0.91075 0.0
C1464 C 0.50593 0.56905 0.90132 0.0
C1465 C 0.5116 0.59876 0.89751 0.0
C1466 C 0.53379 0.62662 0.90301 0.0
C1467 C 0.55044 0.62482 0.91231 0.0
C1468 C 0.54482 0.59516 0.91616 0.0
C1469 C 0.5925 0.46514 0.91355 0.0
C1470 C 0.62119 0.48784 0.91868 0.0
C1471 C 0.56546 0.46892 0.91366 0.0
C1472 C 0.56625 0.49521 0.91908 0.0
C1473 C 0.59475 0.51751 0.92439 0.0
C1474 C 0.62179 0.5139 0.92419 0.0
C1475 C 0.53787 0.50009 0.91898 0.0
C1476 C 0.54212 0.52984 0.91559 0.0
C1477 C 0.5067 0.47564 0.92197 0.0
C1478 C 0.50058 0.44446 0.92643 0.0
C1479 C 0.51742 0.44307 0.93584 0.0
C1480 C 0.51164 0.41362 0.93998 0.0
C1481 C 0.48891 0.38536 0.93482 0.0
C1482 C 0.47185 0.3865 0.92554 0.0
C1483 C 0.47755 0.4159 0.92136 0.0
H1484 H 0.48448 0.36258 0.93804 0.0
H1485 H 0.53815 0.6496 0.90004 0.0
H1486 H 0.14879 0.5879 0.24108 0.0
H1487 H 0.09493 0.54075 0.24114 0.0
H1488 H 0.06208 0.5897 0.26287 0.0
H1489 H 0.11569 0.63667 0.26285 0.0
H1490 H 0.03807 0.527 0.26929 0.0
H1491 H 0.04652 0.58472 0.23535 0.0
H1492 H 0.07083 0.61072 0.21737 0.0
H1493 H 0.05731 0.52194 0.20447 0.0
H1494 H 0.03332 0.4955 0.22246 0.0
H1495 H 0.87062 0.42167 0.26285 0.0
H1496 H 0.92385 0.46924 0.26316 0.0
H1497 H 0.95513 0.42826 0.23745 0.0
H1498 H 0.90178 0.38176 0.23662 0.0
H1499 H 0.98032 0.48762 0.23321 0.0
H1500 H 0.97322 0.42947 0.26671 0.0
H1501 H 0.95012 0.40246 0.28468 0.0
H1502 H 0.96246 0.48997 0.29841 0.0
H1503 H 0.98526 0.51742 0.28045 0.0
C1504 C 0.13019 0.58844 0.24599 0.0
C1505 C 0.13659 0.61619 0.2519 0.0
C1506 C 0.09931 0.56155 0.24595 0.0
C1507 C 0.07419 0.56168 0.25191 0.0
C1508 C 0.08088 0.58892 0.25817 0.0
C1509 C 0.11158 0.61587 0.2581 0.0
C1510 C 0.04077 0.53393 0.25141 0.0
C1511 C 0.02532 0.5186 0.26141 0.0
C1512 C 0.02418 0.52241 0.24113 0.0
C1513 C 0.03843 0.53822 0.23029 0.0
C1514 C 0.04896 0.5708 0.22872 0.0
C1515 C 0.06265 0.58561 0.21852 0.0
C1516 C 0.0657 0.56801 0.20979 0.0
C1517 C 0.05498 0.53555 0.21124 0.0
C1518 C 0.04132 0.52064 0.22144 0.0
C1519 C 0.88865 0.42292 0.25714 0.0
C1520 C 0.8817 0.39737 0.24983 0.0
C1521 C 0.91936 0.45008 0.25743 0.0
C1522 C 0.94408 0.4523 0.25052 0.0
C1523 C 0.93683 0.42729 0.24297 0.0
C1524 C 0.90619 0.40037 0.2426 0.0
C1525 C 0.97747 0.48035 0.25111 0.0
C1526 C 0.99297 0.49586 0.24111 0.0
C1527 C 0.99423 0.4918 0.26139 0.0
C1528 C 0.98063 0.4754 0.2722 0.0
C1529 C 0.97079 0.4429 0.27353 0.0
C1530 C 0.95779 0.42752 0.28372 0.0
C1531 C 0.95474 0.44447 0.29267 0.0
C1532 C 0.96479 0.47686 0.29146 0.0
C1533 C 0.97777 0.49234 0.28128 0.0
H1534 H 0.94467 0.43252 0.30055 0.0
H1535 H 0.07629 0.57952 0.2019 0.0
H1536 H 0.63663 0.52352 0.08061 0.0
H1537 H 0.59015 0.53069 0.08106 0.0
H1538 H 0.54777 0.45926 0.10691 0.0
H1539 H 0.5939 0.45118 0.10633 0.0
H1540 H 0.5285 0.49242 0.07652 0.0
H1541 H 0.50249 0.47893 0.1243 0.0
H1542 H 0.53184 0.48878 0.14215 0.0
H1543 H 0.61769 0.56048 0.12626 0.0
H1544 H 0.58878 0.55139 0.10837 0.0
H1545 H 0.37542 0.47597 0.08474 0.0
H1546 H 0.42189 0.4686 0.08524 0.0
H1547 H 0.47492 0.55698 0.1034 0.0
H1548 H 0.42798 0.56394 0.1032 0.0
H1549 H 0.49059 0.51768 0.11164 0.0
H1550 H 0.48458 0.54781 0.07376 0.0
H1551 H 0.45891 0.54408 0.0555 0.0
H1552 H 0.44377 0.44952 0.05079 0.0
H1553 H 0.469 0.45255 0.0691 0.0
C1554 C 0.61735 0.50886 0.08631 0.0
C1555 C 0.61941 0.4865 0.09338 0.0
C1556 C 0.59067 0.51319 0.08659 0.0
C1557 C 0.56521 0.4957 0.09405 0.0
C1558 C 0.56712 0.47346 0.10116 0.0
C1559 C 0.59377 0.46893 0.10084 0.0
C1560 C 0.53677 0.50068 0.09426 0.0
C1561 C 0.5202 0.4978 0.08423 0.0
C1562 C 0.52599 0.50841 0.10422 0.0
C1563 C 0.54353 0.51417 0.11496 0.0
C1564 C 0.52761 0.49684 0.12463 0.0
C1565 C 0.54417 0.50229 0.13475 0.0
C1566 C 0.57663 0.52515 0.13533 0.0
C1567 C 0.59258 0.54268 0.12579 0.0
C1568 C 0.57613 0.53735 0.11565 0.0
C1569 C 0.397 0.49398 0.0888 0.0
C1570 C 0.39783 0.52076 0.09383 0.0
C1571 C 0.42376 0.48976 0.08906 0.0
C1572 C 0.45258 0.51252 0.09414 0.0
C1573 C 0.45325 0.53897 0.09939 0.0
C1574 C 0.42628 0.54298 0.09927 0.0
C1575 C 0.48188 0.50885 0.09392 0.0
C1576 C 0.49869 0.51205 0.10394 0.0
C1577 C 0.49332 0.50206 0.08389 0.0
C1578 C 0.47843 0.50031 0.07284 0.0
C1579 C 0.47562 0.52617 0.06886 0.0
C1580 C 0.46116 0.52418 0.0585 0.0
C1581 C 0.44965 0.49656 0.052 0.0
C1582 C 0.45267 0.47089 0.05584 0.0
C1583 C 0.46707 0.47274 0.0662 0.0
H1584 H 0.43845 0.49506 0.04399 0.0
H1585 H 0.58941 0.52932 0.14318 0.0
H1586 H 0.86584 0.42613 0.43214 0.0
H1587 H 0.91963 0.47303 0.4321 0.0
H1588 H 0.95765 0.41568 0.41894 0.0
H1589 H 0.90421 0.3687 0.41941 0.0
H1590 H 0.99705 0.45152 0.43333 0.0
H1591 H 0.94735 0.47404 0.4029 0.0
H1592 H 0.90653 0.48156 0.39317 0.0
H1593 H 0.9244 0.5583 0.41553 0.0
H1594 H 0.96506 0.55096 0.4255 0.0
H1595 H 0.14704 0.58767 0.41504 0.0
H1596 H 0.09369 0.5403 0.41493 0.0
H1597 H 0.0609 0.58531 0.43841 0.0
H1598 H 0.11429 0.63175 0.43922 0.0
H1599 H 0.01996 0.55647 0.41834 0.0
H1600 H 0.07108 0.53165 0.44846 0.0
H1601 H 0.11344 0.52384 0.45676 0.0
H1602 H 0.09419 0.45041 0.43266 0.0
H1603 H 0.052 0.45813 0.42411 0.0
C1604 C 0.88564 0.42359 0.42915 0.0
C1605 C 0.88054 0.39351 0.42579 0.0
C1606 C 0.91654 0.45055 0.42908 0.0
C1607 C 0.94318 0.44842 0.42537 0.0
C1608 C 0.93791 0.41835 0.42191 0.0
C1609 C 0.90717 0.39136 0.42216 0.0
C1610 C 0.9765 0.47709 0.42531 0.0
C1611 C 1.0019 0.47425 0.42988 0.0
C1612 C 0.98347 0.50726 0.42096 0.0
C1613 C 0.95901 0.51172 0.41502 0.0
C1614 C 0.9424 0.49236 0.4058 0.0
C1615 C 0.91932 0.49661 0.40023 0.0
C1616 C 0.91281 0.52033 0.40375 0.0
C1617 C 0.92943 0.5399 0.41283 0.0
C1618 C 0.95251 0.53572 0.41843 0.0
C1619 C 0.12884 0.58753 0.42037 0.0
C1620 C 0.13563 0.6143 0.42706 0.0
C1621 C 0.09808 0.56033 0.4202 0.0
C1622 C 0.07304 0.55922 0.42659 0.0
C1623 C 0.07961 0.58564 0.43329 0.0
C1624 C 0.11041 0.61249 0.43365 0.0
C1625 C 0.04002 0.53062 0.42633 0.0
C1626 C 0.01484 0.53358 0.42173 0.0
C1627 C 0.03336 0.50044 0.43042 0.0
C1628 C 0.05865 0.49574 0.43556 0.0
C1629 C 0.0761 0.51407 0.44486 0.0
C1630 C 0.10003 0.50961 0.44962 0.0
C1631 C 0.10658 0.48672 0.44522 0.0
C1632 C 0.08914 0.46818 0.43605 0.0
C1633 C 0.0652 0.47257 0.43125 0.0
H1634 H 0.1251 0.48329 0.44892 0.0
H1635 H 0.89494 0.52359 0.39943 0.0
H1636 H 0.47804 0.10862 0.75308 0.0
H1637 H 0.47133 0.05492 0.75373 0.0
H1638 H 0.56553 0.09349 0.7679 0.0
H1639 H 0.57213 0.14731 0.76748 0.0
H1640 H 0.5514 0.04852 0.7493 0.0
H1641 H 0.50642 0.05523 0.78463 0.0
H1642 H 0.47048 0.06473 0.79667 0.0
H1643 H 0.38887 0.99016 0.7797 0.0
H1644 H 0.42437 0.98053 0.76744 0.0
H1645 H 0.54358 0.90118 0.76192 0.0
H1646 H 0.55101 0.95511 0.76255 0.0
H1647 H 0.44905 0.91565 0.75954 0.0
H1648 H 0.44172 0.86158 0.75958 0.0
H1649 H 0.4675 0.96219 0.7725 0.0
H1650 H 0.50829 0.95518 0.73684 0.0
H1651 H 0.54129 0.94544 0.72339 0.0
H1652 H 0.62663 0.0195 0.73878 0.0
H1653 H 0.59413 0.0294 0.75243 0.0
C1654 C 0.49739 0.10576 0.75633 0.0
C1655 C 0.52567 0.13254 0.76022 0.0
C1656 C 0.49346 0.0749 0.75674 0.0
C1657 C 0.51787 0.06983 0.76087 0.0
C1658 C 0.54627 0.09654 0.76466 0.0
C1659 C 0.54996 0.12738 0.76448 0.0
C1660 C 0.5137 0.03677 0.7612 0.0
C1661 C 0.53336 0.02976 0.7545 0.0
C1662 C 0.48944 0.01173 0.76765 0.0
C1663 C 0.46807 0.01738 0.77504 0.0
C1664 C 0.48082 0.04105 0.7834 0.0
C1665 C 0.46053 0.04642 0.79028 0.0
C1666 C 0.42741 0.02812 0.78893 0.0
C1667 C 0.41453 1.00435 0.78072 0.0
C1668 C 0.43472 0.9989 0.77381 0.0
C1669 C 0.52277 0.90408 0.76146 0.0
C1670 C 0.49207 0.87707 0.7607 0.0
C1671 C 0.52701 0.93507 0.76169 0.0
C1672 C 0.50073 0.94017 0.76081 0.0
C1673 C 0.46993 0.91294 0.76021 0.0
C1674 C 0.46567 0.88188 0.7602 0.0
C1675 C 0.50529 0.97359 0.76057 0.0
C1676 C 0.48563 0.98077 0.76727 0.0
C1677 C 0.52913 0.99865 0.75391 0.0
C1678 C 0.54877 0.9928 0.74573 0.0
C1679 C 0.5341 0.96923 0.73741 0.0
C1680 C 0.55271 0.9637 0.72974 0.0
C1681 C 0.58604 0.98178 0.73025 0.0
C1682 C 0.60082 1.00548 0.73841 0.0
C1683 C 0.58231 0.01108 0.74611 0.0
H1684 H 0.60041 0.97747 0.72431 0.0
H1685 H 0.41174 0.03231 0.79427 0.0
H1686 H 0.4566 0.59013 0.59328 0.0
H1687 H 0.46191 0.54264 0.59335 0.0
H1688 H 0.53528 0.58465 0.56803 0.0
H1689 H 0.52783 0.63052 0.56705 0.0
H1690 H 0.50529 0.52765 0.56338 0.0
H1691 H 0.54803 0.57883 0.59863 0.0
H1692 H 0.54827 0.60258 0.61697 0.0
H1693 H 0.46923 0.51334 0.6279 0.0
H1694 H 0.46827 0.48916 0.60957 0.0
H1695 H 0.57203 0.42583 0.57346 0.0
H1696 H 0.56501 0.47282 0.57351 0.0
H1697 H 0.47407 0.41803 0.59005 0.0
H1698 H 0.48074 0.37101 0.58988 0.0
H1699 H 0.51309 0.48055 0.59936 0.0
H1700 H 0.47379 0.43055 0.56327 0.0
H1701 H 0.47808 0.40877 0.54507 0.0
H1702 H 0.55769 0.49988 0.53603 0.0
H1703 H 0.55415 0.52209 0.55426 0.0
C1704 C 0.47351 0.58925 0.58755 0.0
C1705 C 0.49204 0.61506 0.58028 0.0
C1706 C 0.47701 0.56203 0.58776 0.0
C1707 C 0.49978 0.55995 0.58094 0.0
C1708 C 0.51771 0.58531 0.5735 0.0
C1709 C 0.51372 0.61212 0.57309 0.0
C1710 C 0.50488 0.53156 0.58141 0.0
C1711 C 0.50745 0.51785 0.5713 0.0
C1712 C 0.50733 0.51786 0.59166 0.0
C1713 C 0.50787 0.5323 0.60269 0.0
C1714 C 0.53057 0.56434 0.60492 0.0
C1715 C 0.53085 0.57787 0.61532 0.0
C1716 C 0.50872 0.55951 0.62358 0.0
C1717 C 0.48632 0.52755 0.62148 0.0
C1718 C 0.48591 0.51391 0.61109 0.0
C1719 C 0.55066 0.42386 0.57718 0.0
C1720 C 0.5269 0.3945 0.58161 0.0
C1721 C 0.54658 0.45073 0.57716 0.0
C1722 C 0.51889 0.44908 0.58174 0.0
C1723 C 0.49562 0.42005 0.58646 0.0
C1724 C 0.49941 0.39309 0.5863 0.0
C1725 C 0.51374 0.47724 0.58139 0.0
C1726 C 0.51106 0.49069 0.5915 0.0
C1727 C 0.51192 0.49116 0.57116 0.0
C1728 C 0.51391 0.47788 0.56017 0.0
C1729 C 0.49238 0.44587 0.55744 0.0
C1730 C 0.49464 0.43346 0.54711 0.0
C1731 C 0.5182 0.4529 0.53941 0.0
C1732 C 0.53948 0.48483 0.54201 0.0
C1733 C 0.53735 0.49735 0.55233 0.0
H1734 H 0.51991 0.44325 0.53141 0.0
H1735 H 0.50897 0.57002 0.63162 0.0
H1736 H 0.1172 0.47794 0.92242 0.0
H1737 H 0.06361 0.4712 0.92259 0.0
H1738 H 0.09989 0.56302 0.90671 0.0
H1739 H 0.15401 0.57034 0.90694 0.0
H1740 H 0.05762 0.55727 0.92082 0.0
H1741 H 0.05596 0.48756 0.89226 0.0
H1742 H 0.06325 0.44505 0.88386 0.0
H1743 H 0.99522 0.377 0.90702 0.0
H1744 H 0.98784 0.41922 0.91566 0.0
H1745 H 0.90519 0.52559 0.89961 0.0
H1746 H 0.95871 0.53264 0.9006 0.0
H1747 H 0.92745 0.45999 0.92604 0.0
H1748 H 0.87404 0.45399 0.9257 0.0
H1749 H 0.96621 0.45584 0.90705 0.0
H1750 H 0.96843 0.529 0.93505 0.0
H1751 H 0.96086 0.57286 0.94189 0.0
H1752 H 0.02807 0.63613 0.91748 0.0
H1753 H 0.03566 0.59247 0.91037 0.0
C1754 C 0.1138 0.49674 0.91896 0.0
C1755 C 0.13997 0.52457 0.91457 0.0
C1756 C 0.08297 0.49278 0.919 0.0
C1757 C 0.0771 0.51615 0.91438 0.0
C1758 C 0.10342 0.54442 0.91027 0.0
C1759 C 0.13447 0.54864 0.91041 0.0
C1760 C 0.04365 0.511 0.91384 0.0
C1761 C 0.03784 0.53518 0.91766 0.0
C1762 C 0.01727 0.48211 0.90986 0.0
C1763 C 0.0216 0.45663 0.90468 0.0
C1764 C 0.04273 0.46358 0.89562 0.0
C1765 C 0.04685 0.43953 0.8908 0.0
C1766 C 0.02977 0.40836 0.89492 0.0
C1767 C 1.00847 0.40117 0.90385 0.0
C1768 C 1.00429 0.42514 0.9087 0.0
C1769 C 0.90947 0.51136 0.90561 0.0
C1770 C 0.88473 0.48944 0.9127 0.0
C1771 C 0.94028 0.51529 0.90606 0.0
C1772 C 0.94731 0.49703 0.91344 0.0
C1773 C 0.92266 0.47438 0.92026 0.0
C1774 C 0.89191 0.47083 0.91998 0.0
C1775 C 0.98047 0.50196 0.91406 0.0
C1776 C 0.98614 0.47781 0.91023 0.0
C1777 C 1.00676 0.53106 0.9178 0.0
C1778 C 1.00235 0.55737 0.9221 0.0
C1779 C 0.98136 0.55218 0.93107 0.0
C1780 C 0.97711 0.57702 0.93501 0.0
C1781 C 0.9939 0.60724 0.93011 0.0
C1782 C 0.01504 0.61269 0.92126 0.0
C1783 C 0.01935 0.58791 0.91728 0.0
H1784 H 0.99059 0.62644 0.93317 0.0
H1785 H 0.03299 0.38978 0.89118 0.0
H1786 H 0.42754 0.8661 0.2384 0.0
H1787 H 0.47462 0.91968 0.23834 0.0
H1788 H 0.42227 0.95489 0.25717 0.0
H1789 H 0.37481 0.90174 0.25667 0.0
H1790 H 0.45422 0.99723 0.2433 0.0
H1791 H 0.48534 0.94085 0.26844 0.0
H1792 H 0.49512 0.89799 0.27484 0.0
H1793 H 0.56375 0.92078 0.24845 0.0
H1794 H 0.55408 0.96353 0.24181 0.0
H1795 H 0.59603 0.14276 0.26062 0.0
H1796 H 0.54843 0.08964 0.26069 0.0
H1797 H 0.58686 0.06129 0.2333 0.0
H1798 H 0.63354 0.11458 0.23265 0.0
H1799 H 0.56289 0.01651 0.25194 0.0
H1800 H 0.52995 0.0746 0.2275 0.0
H1801 H 0.5204 0.11871 0.22268 0.0
H1802 H 0.45499 0.09354 0.25029 0.0
H1803 H 0.46452 0.04953 0.25537 0.0
C1804 C 0.42618 0.88525 0.24259 0.0
C1805 C 0.39735 0.87952 0.24755 0.0
C1806 C 0.45327 0.91602 0.24262 0.0
C1807 C 0.45265 0.94178 0.24793 0.0
C1808 C 0.42378 0.93585 0.25296 0.0
C1809 C 0.39654 0.90529 0.25271 0.0
C1810 C 0.48157 0.97492 0.24805 0.0
C1811 C 0.47781 1.00124 0.24537 0.0
C1812 C 0.51285 0.98085 0.25059 0.0
C1813 C 0.51874 0.95518 0.25456 0.0
C1814 C 0.50235 0.93657 0.26396 0.0
C1815 C 0.5079 0.91232 0.26763 0.0
C1816 C 0.52997 0.90661 0.26203 0.0
C1817 C 0.54662 0.9252 0.25277 0.0
C1818 C 0.54114 0.94946 0.24905 0.0
C1819 C 0.59434 0.1256 0.25444 0.0
C1820 C 0.61933 0.13356 0.24668 0.0
C1821 C 0.56703 0.09496 0.25457 0.0
C1822 C 0.56401 0.07122 0.24704 0.0
C1823 C 0.58868 0.07897 0.23928 0.0
C1824 C 0.61566 0.10967 0.239 0.0
C1825 C 0.53524 0.03833 0.24722 0.0
C1826 C 0.53915 0.01221 0.24993 0.0
C1827 C 0.50404 0.03265 0.24497 0.0
C1828 C 0.49821 0.059 0.24189 0.0
C1829 C 0.51375 0.07865 0.23261 0.0
C1830 C 0.5083 0.10359 0.22981 0.0
C1831 C 0.48717 0.10898 0.2362 0.0
C1832 C 0.47139 0.08937 0.24537 0.0
C1833 C 0.47679 0.06441 0.2482 0.0
H1834 H 0.48297 0.1283 0.23402 0.0
H1835 H 0.53424 0.88783 0.26489 0.0
loop_
_geom_bond_atom_site_label_1
_geom_bond_atom_site_label_2
_geom_bond_distance
_geom_bond_site_symmetry_2
_ccdc_geom_bond_type
C0 C1 1.443 . S
C0 N4 1.376 . S
C0 C38 1.389 . S
C1 C0 1.443 . S
C1 C2 1.340 . S
C1 H41 0.951 . S
C2 C1 1.340 . S
C2 C3 1.439 . S
C2 H42 0.950 . S
C3 C2 1.439 . S
C3 N4 1.374 . S
C3 C37 1.395 . S
N4 C0 1.376 . S
N4 C3 1.374 . S
N4 Co5 2.008 . S
Co5 N4 2.008 . S
Co5 N6 1.995 . S
Co5 N11 2.008 . S
Co5 N16 1.995 . S
Co5 N21 2.282 . S
Co5 N27 2.282 . S
N6 Co5 1.995 . S
N6 C7 1.376 . S
N6 C10 1.383 . S
C7 N6 1.376 . S
C7 C8 1.446 . S
C7 C37 1.391 . S
C8 C7 1.446 . S
C8 C9 1.339 . S
C8 H43 0.949 . S
C9 C8 1.339 . S
C9 C10 1.439 . S
C9 H44 0.950 . S
C10 N6 1.383 . S
C10 C9 1.439 . S
C10 C39 1.392 . S
N11 Co5 2.008 . S
N11 C12 1.376 . S
N11 C15 1.374 . S
C12 N11 1.376 . S
C12 C13 1.443 . S
C12 C39 1.389 . S
C13 C12 1.443 . S
C13 C14 1.340 . S
C13 H45 0.951 . S
C14 C13 1.340 . S
C14 C15 1.439 . S
C14 H46 0.950 . S
C15 N11 1.374 . S
C15 C14 1.439 . S
C15 C40 1.395 . S
N16 Co5 1.995 . S
N16 C17 1.376 . S
N16 C20 1.383 . S
C17 N16 1.376 . S
C17 C18 1.446 . S
C17 C40 1.391 . S
C18 C17 1.446 . S
C18 C19 1.339 . S
C18 H47 0.949 . S
C19 C18 1.339 . S
C19 C20 1.439 . S
C19 H48 0.950 . S
C20 N16 1.383 . S
C20 C19 1.439 . S
C20 C38 1.392 . S
N21 Co5 2.282 . S
N21 C24 1.332 . S
N21 C26 1.332 . S
C22 C23 1.386 . S
C22 C25 1.388 . S
C23 C22 1.386 . S
C23 C24 1.382 . S
C23 H49 0.950 . S
C24 N21 1.332 . S
C24 C23 1.382 . S
C24 H35 0.952 . S
C25 C22 1.388 . S
C25 C26 1.382 . S
C25 H50 0.950 . S
C26 N21 1.332 . S
C26 C25 1.382 . S
C26 H36 0.948 . S
N27 Co5 2.282 . S
N27 C31 1.332 . S
N27 C32 1.332 . S
C28 C29 1.388 . S
C28 C32 1.382 . S
C28 H51 0.950 . S
C29 C28 1.388 . S
C29 C30 1.386 . S
C30 C29 1.386 . S
C30 C31 1.382 . S
C30 H52 0.950 . S
C31 N27 1.332 . S
C31 C30 1.382 . S
C31 H33 0.952 . S
C32 N27 1.332 . S
C32 C28 1.382 . S
C32 H34 0.948 . S
H33 C31 0.952 . S
H34 C32 0.948 . S
H35 C24 0.952 . S
H36 C26 0.948 . S
C37 C3 1.395 . S
C37 C7 1.391 . S
C38 C0 1.389 . S
C38 C20 1.392 . S
C39 C10 1.392 . S
C39 C12 1.389 . S
C40 C15 1.395 . S
C40 C17 1.391 . S
H41 C1 0.951 . S
H42 C2 0.950 . S
H43 C8 0.949 . S
H44 C9 0.950 . S
H45 C13 0.951 . S
H46 C14 0.950 . S
H47 C18 0.949 . S
H48 C19 0.950 . S
H49 C23 0.950 . S
H50 C25 0.950 . S
H51 C28 0.950 . S
H52 C30 0.950 . S
C53 C54 1.443 . S
C53 N57 1.376 . S
C53 C91 1.389 . S
C54 C53 1.443 . S
C54 C55 1.340 . S
C54 H94 0.951 . S
C55 C54 1.340 . S
C55 C56 1.439 . S
C55 H95 0.950 . S
C56 C55 1.439 . S
C56 N57 1.374 . S
C56 C90 1.395 . S
N57 C53 1.376 . S
N57 C56 1.374 . S
N57 Co58 2.008 . S
Co58 N57 2.008 . S
Co58 N59 1.995 . S
Co58 N64 2.008 . S
Co58 N69 1.995 . S
Co58 N74 2.282 . S
Co58 N80 2.282 . S
N59 Co58 1.995 . S
N59 C60 1.376 . S
N59 C63 1.383 . S
C60 N59 1.376 . S
C60 C61 1.446 . S
C60 C90 1.391 . S
C61 C60 1.446 . S
C61 C62 1.339 . S
C61 H96 0.949 . S
C62 C61 1.339 . S
C62 C63 1.439 . S
C62 H97 0.950 . S
C63 N59 1.383 . S
C63 C62 1.439 . S
C63 C92 1.392 . S
N64 Co58 2.008 . S
N64 C65 1.376 . S
N64 C68 1.374 . S
C65 N64 1.376 . S
C65 C66 1.443 . S
C65 C92 1.389 . S
C66 C65 1.443 . S
C66 C67 1.340 . S
C66 H98 0.951 . S
C67 C66 1.340 . S
C67 C68 1.439 . S
C67 H99 0.950 . S
C68 N64 1.374 . S
C68 C67 1.439 . S
C68 C93 1.395 . S
N69 Co58 1.995 . S
N69 C70 1.376 . S
N69 C73 1.383 . S
C70 N69 1.376 . S
C70 C71 1.446 . S
C70 C93 1.391 . S
C71 C70 1.446 . S
C71 C72 1.339 . S
C71 H100 0.949 . S
C72 C71 1.339 . S
C72 C73 1.439 . S
C72 H101 0.950 . S
C73 N69 1.383 . S
C73 C72 1.439 . S
C73 C91 1.392 . S
N74 Co58 2.282 . S
N74 C77 1.332 . S
N74 C79 1.332 . S
C75 C76 1.386 . S
C75 C78 1.388 . S
C76 C75 1.386 . S
C76 C77 1.382 . S
C76 H102 0.950 . S
C77 N74 1.332 . S
C77 C76 1.382 . S
C77 H88 0.952 . S
C78 C75 1.388 . S
C78 C79 1.382 . S
C78 H103 0.950 . S
C79 N74 1.332 . S
C79 C78 1.382 . S
C79 H89 0.948 . S
N80 Co58 2.282 . S
N80 C84 1.332 . S
N80 C85 1.332 . S
C81 C82 1.388 . S
C81 C85 1.382 . S
C81 H104 0.950 . S
C82 C81 1.388 . S
C82 C83 1.386 . S
C83 C82 1.386 . S
C83 C84 1.382 . S
C83 H105 0.950 . S
C84 N80 1.332 . S
C84 C83 1.382 . S
C84 H86 0.952 . S
C85 N80 1.332 . S
C85 C81 1.382 . S
C85 H87 0.948 . S
H86 C84 0.952 . S
H87 C85 0.948 . S
H88 C77 0.952 . S
H89 C79 0.948 . S
C90 C56 1.395 . S
C90 C60 1.391 . S
C91 C53 1.389 . S
C91 C73 1.392 . S
C92 C63 1.392 . S
C92 C65 1.389 . S
C93 C68 1.395 . S
C93 C70 1.391 . S
H94 C54 0.951 . S
H95 C55 0.950 . S
H96 C61 0.949 . S
H97 C62 0.950 . S
H98 C66 0.951 . S
H99 C67 0.950 . S
H100 C71 0.949 . S
H101 C72 0.950 . S
H102 C76 0.950 . S
H103 C78 0.950 . S
H104 C81 0.950 . S
H105 C83 0.950 . S
C106 C107 1.443 . S
C106 N110 1.376 . S
C106 C144 1.389 . S
C107 C106 1.443 . S
C107 C108 1.340 . S
C107 H147 0.951 . S
C108 C107 1.340 . S
C108 C109 1.439 . S
C108 H148 0.950 . S
C109 C108 1.439 . S
C109 N110 1.374 . S
C109 C143 1.395 . S
N110 C106 1.376 . S
N110 C109 1.374 . S
N110 Co111 2.008 . S
Co111 N110 2.008 . S
Co111 N112 1.995 . S
Co111 N117 2.008 . S
Co111 N122 1.995 . S
Co111 N127 2.282 . S
Co111 N133 2.282 . S
N112 Co111 1.995 . S
N112 C113 1.376 . S
N112 C116 1.383 . S
C113 N112 1.376 . S
C113 C114 1.446 . S
C113 C143 1.391 . S
C114 C113 1.446 . S
C114 C115 1.339 . S
C114 H149 0.949 . S
C115 C114 1.339 . S
C115 C116 1.439 . S
C115 H150 0.950 . S
C116 N112 1.383 . S
C116 C115 1.439 . S
C116 C145 1.392 . S
N117 Co111 2.008 . S
N117 C118 1.376 . S
N117 C121 1.374 . S
C118 N117 1.376 . S
C118 C119 1.443 . S
C118 C145 1.389 . S
C119 C118 1.443 . S
C119 C120 1.340 . S
C119 H151 0.951 . S
C120 C119 1.340 . S
C120 C121 1.439 . S
C120 H152 0.950 . S
C121 N117 1.374 . S
C121 C120 1.439 . S
C121 C146 1.395 . S
N122 Co111 1.995 . S
N122 C123 1.376 . S
N122 C126 1.383 . S
C123 N122 1.376 . S
C123 C124 1.446 . S
C123 C146 1.391 . S
C124 C123 1.446 . S
C124 C125 1.339 . S
C124 H153 0.949 . S
C125 C124 1.339 . S
C125 C126 1.439 . S
C125 H154 0.950 . S
C126 N122 1.383 . S
C126 C125 1.439 . S
C126 C144 1.392 . S
N127 Co111 2.282 . S
N127 C130 1.332 . S
N127 C132 1.332 . S
C128 C129 1.386 . S
C128 C131 1.388 . S
C129 C128 1.386 . S
C129 C130 1.382 . S
C129 H155 0.950 . S
C130 N127 1.332 . S
C130 C129 1.382 . S
C130 H141 0.952 . S
C131 C128 1.388 . S
C131 C132 1.382 . S
C131 H156 0.950 . S
C132 N127 1.332 . S
C132 C131 1.382 . S
C132 H142 0.948 . S
N133 Co111 2.282 . S
N133 C137 1.332 . S
N133 C138 1.332 . S
C134 C135 1.388 . S
C134 C138 1.382 . S
C134 H157 0.950 . S
C135 C134 1.388 . S
C135 C136 1.386 . S
C136 C135 1.386 . S
C136 C137 1.382 . S
C136 H158 0.950 . S
C137 N133 1.332 . S
C137 C136 1.382 . S
C137 H139 0.952 . S
C138 N133 1.332 . S
C138 C134 1.382 . S
C138 H140 0.948 . S
H139 C137 0.952 . S
H140 C138 0.948 . S
H141 C130 0.952 . S
H142 C132 0.948 . S
C143 C109 1.395 . S
C143 C113 1.391 . S
C144 C106 1.389 . S
C144 C126 1.392 . S
C145 C116 1.392 . S
C145 C118 1.389 . S
C146 C121 1.395 . S
C146 C123 1.391 . S
H147 C107 0.951 . S
H148 C108 0.950 . S
H149 C114 0.949 . S
H150 C115 0.950 . S
H151 C119 0.951 . S
H152 C120 0.950 . S
H153 C124 0.949 . S
H154 C125 0.950 . S
H155 C129 0.950 . S
H156 C131 0.950 . S
H157 C134 0.950 . S
H158 C136 0.950 . S
C159 C160 1.443 . S
C159 N163 1.376 . S
C159 C197 1.389 . S
C160 C159 1.443 . S
C160 C161 1.340 . S
C160 H200 0.951 . S
C161 C160 1.340 . S
C161 C162 1.439 . S
C161 H201 0.950 . S
C162 C161 1.439 . S
C162 N163 1.374 . S
C162 C196 1.395 . S
N163 C159 1.376 . S
N163 C162 1.374 . S
N163 Co164 2.008 . S
Co164 N163 2.008 . S
Co164 N165 1.995 . S
Co164 N170 2.008 . S
Co164 N175 1.995 . S
Co164 N180 2.282 . S
Co164 N186 2.282 . S
N165 Co164 1.995 . S
N165 C166 1.376 . S
N165 C169 1.383 . S
C166 N165 1.376 . S
C166 C167 1.446 . S
C166 C196 1.391 . S
C167 C166 1.446 . S
C167 C168 1.339 . S
C167 H202 0.949 . S
C168 C167 1.339 . S
C168 C169 1.439 . S
C168 H203 0.950 . S
C169 N165 1.383 . S
C169 C168 1.439 . S
C169 C198 1.392 . S
N170 Co164 2.008 . S
N170 C171 1.376 . S
N170 C174 1.374 . S
C171 N170 1.376 . S
C171 C172 1.443 . S
C171 C198 1.389 . S
C172 C171 1.443 . S
C172 C173 1.340 . S
C172 H204 0.951 . S
C173 C172 1.340 . S
C173 C174 1.439 . S
C173 H205 0.950 . S
C174 N170 1.374 . S
C174 C173 1.439 . S
C174 C199 1.395 . S
N175 Co164 1.995 . S
N175 C176 1.376 . S
N175 C179 1.383 . S
C176 N175 1.376 . S
C176 C177 1.446 . S
C176 C199 1.391 . S
C177 C176 1.446 . S
C177 C178 1.339 . S
C177 H206 0.949 . S
C178 C177 1.339 . S
C178 C179 1.439 . S
C178 H207 0.950 . S
C179 N175 1.383 . S
C179 C178 1.439 . S
C179 C197 1.392 . S
N180 Co164 2.282 . S
N180 C183 1.332 . S
N180 C185 1.332 . S
C181 C182 1.386 . S
C181 C184 1.388 . S
C182 C181 1.386 . S
C182 C183 1.382 . S
C182 H208 0.950 . S
C183 N180 1.332 . S
C183 C182 1.382 . S
C183 H194 0.952 . S
C184 C181 1.388 . S
C184 C185 1.382 . S
C184 H209 0.950 . S
C185 N180 1.332 . S
C185 C184 1.382 . S
C185 H195 0.948 . S
N186 Co164 2.282 . S
N186 C190 1.332 . S
N186 C191 1.332 . S
C187 C188 1.388 . S
C187 C191 1.382 . S
C187 H210 0.950 . S
C188 C187 1.388 . S
C188 C189 1.386 . S
C189 C188 1.386 . S
C189 C190 1.382 . S
C189 H211 0.950 . S
C190 N186 1.332 . S
C190 C189 1.382 . S
C190 H192 0.952 . S
C191 N186 1.332 . S
C191 C187 1.382 . S
C191 H193 0.948 . S
H192 C190 0.952 . S
H193 C191 0.948 . S
H194 C183 0.952 . S
H195 C185 0.948 . S
C196 C162 1.395 . S
C196 C166 1.391 . S
C197 C159 1.389 . S
C197 C179 1.392 . S
C198 C169 1.392 . S
C198 C171 1.389 . S
C199 C174 1.395 . S
C199 C176 1.391 . S
H200 C160 0.951 . S
H201 C161 0.950 . S
H202 C167 0.949 . S
H203 C168 0.950 . S
H204 C172 0.951 . S
H205 C173 0.950 . S
H206 C177 0.949 . S
H207 C178 0.950 . S
H208 C182 0.950 . S
H209 C184 0.950 . S
H210 C187 0.950 . S
H211 C189 0.950 . S
C212 C213 1.443 . S
C212 N216 1.376 . S
C212 C250 1.389 . S
C213 C212 1.443 . S
C213 C214 1.340 . S
C213 H253 0.951 . S
C214 C213 1.340 . S
C214 C215 1.439 . S
C214 H254 0.950 . S
C215 C214 1.439 . S
C215 N216 1.374 . S
C215 C249 1.395 . S
N216 C212 1.376 . S
N216 C215 1.374 . S
N216 Co217 2.008 . S
Co217 N216 2.008 . S
Co217 N218 1.995 . S
Co217 N223 2.008 . S
Co217 N228 1.995 . S
Co217 N233 2.282 . S
Co217 N239 2.282 . S
N218 Co217 1.995 . S
N218 C219 1.376 . S
N218 C222 1.383 . S
C219 N218 1.376 . S
C219 C220 1.446 . S
C219 C249 1.391 . S
C220 C219 1.446 . S
C220 C221 1.339 . S
C220 H255 0.949 . S
C221 C220 1.339 . S
C221 C222 1.439 . S
C221 H256 0.950 . S
C222 N218 1.383 . S
C222 C221 1.439 . S
C222 C251 1.392 . S
N223 Co217 2.008 . S
N223 C224 1.376 . S
N223 C227 1.374 . S
C224 N223 1.376 . S
C224 C225 1.443 . S
C224 C251 1.389 . S
C225 C224 1.443 . S
C225 C226 1.340 . S
C225 H257 0.951 . S
C226 C225 1.340 . S
C226 C227 1.439 . S
C226 H258 0.950 . S
C227 N223 1.374 . S
C227 C226 1.439 . S
C227 C252 1.395 . S
N228 Co217 1.995 . S
N228 C229 1.376 . S
N228 C232 1.383 . S
C229 N228 1.376 . S
C229 C230 1.446 . S
C229 C252 1.391 . S
C230 C229 1.446 . S
C230 C231 1.339 . S
C230 H259 0.949 . S
C231 C230 1.339 . S
C231 C232 1.439 . S
C231 H260 0.950 . S
C232 N228 1.383 . S
C232 C231 1.439 . S
C232 C250 1.392 . S
N233 Co217 2.282 . S
N233 C236 1.332 . S
N233 C238 1.332 . S
C234 C235 1.386 . S
C234 C237 1.388 . S
C235 C234 1.386 . S
C235 C236 1.382 . S
C235 H261 0.950 . S
C236 N233 1.332 . S
C236 C235 1.382 . S
C236 H247 0.952 . S
C237 C234 1.388 . S
C237 C238 1.382 . S
C237 H262 0.950 . S
C238 N233 1.332 . S
C238 C237 1.382 . S
C238 H248 0.948 . S
N239 Co217 2.282 . S
N239 C243 1.332 . S
N239 C244 1.332 . S
C240 C241 1.388 . S
C240 C244 1.382 . S
C240 H263 0.950 . S
C241 C240 1.388 . S
C241 C242 1.386 . S
C242 C241 1.386 . S
C242 C243 1.382 . S
C242 H264 0.950 . S
C243 N239 1.332 . S
C243 C242 1.382 . S
C243 H245 0.952 . S
C244 N239 1.332 . S
C244 C240 1.382 . S
C244 H246 0.948 . S
H245 C243 0.952 . S
H246 C244 0.948 . S
H247 C236 0.952 . S
H248 C238 0.948 . S
C249 C215 1.395 . S
C249 C219 1.391 . S
C250 C212 1.389 . S
C250 C232 1.392 . S
C251 C222 1.392 . S
C251 C224 1.389 . S
C252 C227 1.395 . S
C252 C229 1.391 . S
H253 C213 0.951 . S
H254 C214 0.950 . S
H255 C220 0.949 . S
H256 C221 0.950 . S
H257 C225 0.951 . S
H258 C226 0.950 . S
H259 C230 0.949 . S
H260 C231 0.950 . S
H261 C235 0.950 . S
H262 C237 0.950 . S
H263 C240 0.950 . S
H264 C242 0.950 . S
C265 C266 1.443 . S
C265 N269 1.376 . S
C265 C303 1.389 . S
C266 C265 1.443 . S
C266 C267 1.340 . S
C266 H306 0.951 . S
C267 C266 1.340 . S
C267 C268 1.439 . S
C267 H307 0.950 . S
C268 C267 1.439 . S
C268 N269 1.374 . S
C268 C302 1.395 . S
N269 C265 1.376 . S
N269 C268 1.374 . S
N269 Co270 2.008 . S
Co270 N269 2.008 . S
Co270 N271 1.995 . S
Co270 N276 2.008 . S
Co270 N281 1.995 . S
Co270 N286 2.282 . S
Co270 N292 2.282 . S
N271 Co270 1.995 . S
N271 C272 1.376 . S
N271 C275 1.383 . S
C272 N271 1.376 . S
C272 C273 1.446 . S
C272 C302 1.391 . S
C273 C272 1.446 . S
C273 C274 1.339 . S
C273 H308 0.949 . S
C274 C273 1.339 . S
C274 C275 1.439 . S
C274 H309 0.950 . S
C275 N271 1.383 . S
C275 C274 1.439 . S
C275 C304 1.392 . S
N276 Co270 2.008 . S
N276 C277 1.376 . S
N276 C280 1.374 . S
C277 N276 1.376 . S
C277 C278 1.443 . S
C277 C304 1.389 . S
C278 C277 1.443 . S
C278 C279 1.340 . S
C278 H310 0.951 . S
C279 C278 1.340 . S
C279 C280 1.439 . S
C279 H311 0.950 . S
C280 N276 1.374 . S
C280 C279 1.439 . S
C280 C305 1.395 . S
N281 Co270 1.995 . S
N281 C282 1.376 . S
N281 C285 1.383 . S
C282 N281 1.376 . S
C282 C283 1.446 . S
C282 C305 1.391 . S
C283 C282 1.446 . S
C283 C284 1.339 . S
C283 H312 0.949 . S
C284 C283 1.339 . S
C284 C285 1.439 . S
C284 H313 0.950 . S
C285 N281 1.383 . S
C285 C284 1.439 . S
C285 C303 1.392 . S
N286 Co270 2.282 . S
N286 C289 1.332 . S
N286 C291 1.332 . S
C287 C288 1.386 . S
C287 C290 1.388 . S
C288 C287 1.386 . S
C288 C289 1.382 . S
C288 H314 0.950 . S
C289 N286 1.332 . S
C289 C288 1.382 . S
C289 H300 0.952 . S
C290 C287 1.388 . S
C290 C291 1.382 . S
C290 H315 0.950 . S
C291 N286 1.332 . S
C291 C290 1.382 . S
C291 H301 0.948 . S
N292 Co270 2.282 . S
N292 C296 1.332 . S
N292 C297 1.332 . S
C293 C294 1.388 . S
C293 C297 1.382 . S
C293 H316 0.950 . S
C294 C293 1.388 . S
C294 C295 1.386 . S
C295 C294 1.386 . S
C295 C296 1.382 . S
C295 H317 0.950 . S
C296 N292 1.332 . S
C296 C295 1.382 . S
C296 H298 0.952 . S
C297 N292 1.332 . S
C297 C293 1.382 . S
C297 H299 0.948 . S
H298 C296 0.952 . S
H299 C297 0.948 . S
H300 C289 0.952 . S
H301 C291 0.948 . S
C302 C268 1.395 . S
C302 C272 1.391 . S
C303 C265 1.389 . S
C303 C285 1.392 . S
C304 C275 1.392 . S
C304 C277 1.389 . S
C305 C280 1.395 . S
C305 C282 1.391 . S
H306 C266 0.951 . S
H307 C267 0.950 . S
H308 C273 0.949 . S
H309 C274 0.950 . S
H310 C278 0.951 . S
H311 C279 0.950 . S
H312 C283 0.949 . S
H313 C284 0.950 . S
H314 C288 0.950 . S
H315 C290 0.950 . S
H316 C293 0.950 . S
H317 C295 0.950 . S
C318 C319 1.443 . S
C318 N322 1.376 . S
C318 C356 1.389 . S
C319 C318 1.443 . S
C319 C320 1.340 . S
C319 H359 0.951 . S
C320 C319 1.340 . S
C320 C321 1.439 . S
C320 H360 0.950 . S
C321 C320 1.439 . S
C321 N322 1.374 . S
C321 C355 1.395 . S
N322 C318 1.376 . S
N322 C321 1.374 . S
N322 Co323 2.008 . S
Co323 N322 2.008 . S
Co323 N324 1.995 . S
Co323 N329 2.008 . S
Co323 N334 1.995 . S
Co323 N339 2.282 . S
Co323 N345 2.282 . S
N324 Co323 1.995 . S
N324 C325 1.376 . S
N324 C328 1.383 . S
C325 N324 1.376 . S
C325 C326 1.446 . S
C325 C355 1.391 . S
C326 C325 1.446 . S
C326 C327 1.339 . S
C326 H361 0.949 . S
C327 C326 1.339 . S
C327 C328 1.439 . S
C327 H362 0.950 . S
C328 N324 1.383 . S
C328 C327 1.439 . S
C328 C357 1.392 . S
N329 Co323 2.008 . S
N329 C330 1.376 . S
N329 C333 1.374 . S
C330 N329 1.376 . S
C330 C331 1.443 . S
C330 C357 1.389 . S
C331 C330 1.443 . S
C331 C332 1.340 . S
C331 H363 0.951 . S
C332 C331 1.340 . S
C332 C333 1.439 . S
C332 H364 0.950 . S
C333 N329 1.374 . S
C333 C332 1.439 . S
C333 C358 1.395 . S
N334 Co323 1.995 . S
N334 C335 1.376 . S
N334 C338 1.383 . S
C335 N334 1.376 . S
C335 C336 1.446 . S
C335 C358 1.391 . S
C336 C335 1.446 . S
C336 C337 1.339 . S
C336 H365 0.949 . S
C337 C336 1.339 . S
C337 C338 1.439 . S
C337 H366 0.950 . S
C338 N334 1.383 . S
C338 C337 1.439 . S
C338 C356 1.392 . S
N339 Co323 2.282 . S
N339 C342 1.332 . S
N339 C344 1.332 . S
C340 C341 1.386 . S
C340 C343 1.388 . S
C341 C340 1.386 . S
C341 C342 1.382 . S
C341 H367 0.950 . S
C342 N339 1.332 . S
C342 C341 1.382 . S
C342 H353 0.952 . S
C343 C340 1.388 . S
C343 C344 1.382 . S
C343 H368 0.950 . S
C344 N339 1.332 . S
C344 C343 1.382 . S
C344 H354 0.948 . S
N345 Co323 2.282 . S
N345 C349 1.332 . S
N345 C350 1.332 . S
C346 C347 1.388 . S
C346 C350 1.382 . S
C346 H369 0.950 . S
C347 C346 1.388 . S
C347 C348 1.386 . S
C348 C347 1.386 . S
C348 C349 1.382 . S
C348 H370 0.950 . S
C349 N345 1.332 . S
C349 C348 1.382 . S
C349 H351 0.952 . S
C350 N345 1.332 . S
C350 C346 1.382 . S
C350 H352 0.948 . S
H351 C349 0.952 . S
H352 C350 0.948 . S
H353 C342 0.952 . S
H354 C344 0.948 . S
C355 C321 1.395 . S
C355 C325 1.391 . S
C356 C318 1.389 . S
C356 C338 1.392 . S
C357 C328 1.392 . S
C357 C330 1.389 . S
C358 C333 1.395 . S
C358 C335 1.391 . S
H359 C319 0.951 . S
H360 C320 0.950 . S
H361 C326 0.949 . S
H362 C327 0.950 . S
H363 C331 0.951 . S
H364 C332 0.950 . S
H365 C336 0.949 . S
H366 C337 0.950 . S
H367 C341 0.950 . S
H368 C343 0.950 . S
H369 C346 0.950 . S
H370 C348 0.950 . S
C371 C372 1.443 . S
C371 N375 1.376 . S
C371 C409 1.389 . S
C372 C371 1.443 . S
C372 C373 1.340 . S
C372 H412 0.951 . S
C373 C372 1.340 . S
C373 C374 1.439 . S
C373 H413 0.950 . S
C374 C373 1.439 . S
C374 N375 1.374 . S
C374 C408 1.395 . S
N375 C371 1.376 . S
N375 C374 1.374 . S
N375 Co376 2.008 . S
Co376 N375 2.008 . S
Co376 N377 1.995 . S
Co376 N382 2.008 . S
Co376 N387 1.995 . S
Co376 N392 2.282 . S
Co376 N398 2.282 . S
N377 Co376 1.995 . S
N377 C378 1.376 . S
N377 C381 1.383 . S
C378 N377 1.376 . S
C378 C379 1.446 . S
C378 C408 1.391 . S
C379 C378 1.446 . S
C379 C380 1.339 . S
C379 H414 0.949 . S
C380 C379 1.339 . S
C380 C381 1.439 . S
C380 H415 0.950 . S
C381 N377 1.383 . S
C381 C380 1.439 . S
C381 C410 1.392 . S
N382 Co376 2.008 . S
N382 C383 1.376 . S
N382 C386 1.374 . S
C383 N382 1.376 . S
C383 C384 1.443 . S
C383 C410 1.389 . S
C384 C383 1.443 . S
C384 C385 1.340 . S
C384 H416 0.951 . S
C385 C384 1.340 . S
C385 C386 1.439 . S
C385 H417 0.950 . S
C386 N382 1.374 . S
C386 C385 1.439 . S
C386 C411 1.395 . S
N387 Co376 1.995 . S
N387 C388 1.376 . S
N387 C391 1.383 . S
C388 N387 1.376 . S
C388 C389 1.446 . S
C388 C411 1.391 . S
C389 C388 1.446 . S
C389 C390 1.339 . S
C389 H418 0.949 . S
C390 C389 1.339 . S
C390 C391 1.439 . S
C390 H419 0.950 . S
C391 N387 1.383 . S
C391 C390 1.439 . S
C391 C409 1.392 . S
N392 Co376 2.282 . S
N392 C395 1.332 . S
N392 C397 1.332 . S
C393 C394 1.386 . S
C393 C396 1.388 . S
C394 C393 1.386 . S
C394 C395 1.382 . S
C394 H420 0.950 . S
C395 N392 1.332 . S
C395 C394 1.382 . S
C395 H406 0.952 . S
C396 C393 1.388 . S
C396 C397 1.382 . S
C396 H421 0.950 . S
C397 N392 1.332 . S
C397 C396 1.382 . S
C397 H407 0.948 . S
N398 Co376 2.282 . S
N398 C402 1.332 . S
N398 C403 1.332 . S
C399 C400 1.388 . S
C399 C403 1.382 . S
C399 H422 0.950 . S
C400 C399 1.388 . S
C400 C401 1.386 . S
C401 C400 1.386 . S
C401 C402 1.382 . S
C401 H423 0.950 . S
C402 N398 1.332 . S
C402 C401 1.382 . S
C402 H404 0.952 . S
C403 N398 1.332 . S
C403 C399 1.382 . S
C403 H405 0.948 . S
H404 C402 0.952 . S
H405 C403 0.948 . S
H406 C395 0.952 . S
H407 C397 0.948 . S
C408 C374 1.395 . S
C408 C378 1.391 . S
C409 C371 1.389 . S
C409 C391 1.392 . S
C410 C381 1.392 . S
C410 C383 1.389 . S
C411 C386 1.395 . S
C411 C388 1.391 . S
H412 C372 0.951 . S
H413 C373 0.950 . S
H414 C379 0.949 . S
H415 C380 0.950 . S
H416 C384 0.951 . S
H417 C385 0.950 . S
H418 C389 0.949 . S
H419 C390 0.950 . S
H420 C394 0.950 . S
H421 C396 0.950 . S
H422 C399 0.950 . S
H423 C401 0.950 . S
C424 C425 1.443 . S
C424 N428 1.376 . S
C424 C462 1.389 . S
C425 C424 1.443 . S
C425 C426 1.340 . S
C425 H465 0.951 . S
C426 C425 1.340 . S
C426 C427 1.439 . S
C426 H466 0.950 . S
C427 C426 1.439 . S
C427 N428 1.374 . S
C427 C461 1.395 . S
N428 C424 1.376 . S
N428 C427 1.374 . S
N428 Co429 2.008 . S
Co429 N428 2.008 . S
Co429 N430 1.995 . S
Co429 N435 2.008 . S
Co429 N440 1.995 . S
Co429 N445 2.282 . S
Co429 N451 2.282 . S
N430 Co429 1.995 . S
N430 C431 1.376 . S
N430 C434 1.383 . S
C431 N430 1.376 . S
C431 C432 1.446 . S
C431 C461 1.391 . S
C432 C431 1.446 . S
C432 C433 1.339 . S
C432 H467 0.949 . S
C433 C432 1.339 . S
C433 C434 1.439 . S
C433 H468 0.950 . S
C434 N430 1.383 . S
C434 C433 1.439 . S
C434 C463 1.392 . S
N435 Co429 2.008 . S
N435 C436 1.376 . S
N435 C439 1.374 . S
C436 N435 1.376 . S
C436 C437 1.443 . S
C436 C463 1.389 . S
C437 C436 1.443 . S
C437 C438 1.340 . S
C437 H469 0.951 . S
C438 C437 1.340 . S
C438 C439 1.439 . S
C438 H470 0.950 . S
C439 N435 1.374 . S
C439 C438 1.439 . S
C439 C464 1.395 . S
N440 Co429 1.995 . S
N440 C441 1.376 . S
N440 C444 1.383 . S
C441 N440 1.376 . S
C441 C442 1.446 . S
C441 C464 1.391 . S
C442 C441 1.446 . S
C442 C443 1.339 . S
C442 H471 0.949 . S
C443 C442 1.339 . S
C443 C444 1.439 . S
C443 H472 0.950 . S
C444 N440 1.383 . S
C444 C443 1.439 . S
C444 C462 1.392 . S
N445 Co429 2.282 . S
N445 C448 1.332 . S
N445 C450 1.332 . S
C446 C447 1.386 . S
C446 C449 1.388 . S
C447 C446 1.386 . S
C447 C448 1.382 . S
C447 H473 0.950 . S
C448 N445 1.332 . S
C448 C447 1.382 . S
C448 H459 0.952 . S
C449 C446 1.388 . S
C449 C450 1.382 . S
C449 H474 0.950 . S
C450 N445 1.332 . S
C450 C449 1.382 . S
C450 H460 0.948 . S
N451 Co429 2.282 . S
N451 C455 1.332 . S
N451 C456 1.332 . S
C452 C453 1.388 . S
C452 C456 1.382 . S
C452 H475 0.950 . S
C453 C452 1.388 . S
C453 C454 1.386 . S
C454 C453 1.386 . S
C454 C455 1.382 . S
C454 H476 0.950 . S
C455 N451 1.332 . S
C455 C454 1.382 . S
C455 H457 0.952 . S
C456 N451 1.332 . S
C456 C452 1.382 . S
C456 H458 0.948 . S
H457 C455 0.952 . S
H458 C456 0.948 . S
H459 C448 0.952 . S
H460 C450 0.948 . S
C461 C427 1.395 . S
C461 C431 1.391 . S
C462 C424 1.389 . S
C462 C444 1.392 . S
C463 C434 1.392 . S
C463 C436 1.389 . S
C464 C439 1.395 . S
C464 C441 1.391 . S
H465 C425 0.951 . S
H466 C426 0.950 . S
H467 C432 0.949 . S
H468 C433 0.950 . S
H469 C437 0.951 . S
H470 C438 0.950 . S
H471 C442 0.949 . S
H472 C443 0.950 . S
H473 C447 0.950 . S
H474 C449 0.950 . S
H475 C452 0.950 . S
H476 C454 0.950 . S
C477 C478 1.443 . S
C477 N481 1.376 . S
C477 C515 1.389 . S
C478 C477 1.443 . S
C478 C479 1.340 . S
C478 H518 0.951 . S
C479 C478 1.340 . S
C479 C480 1.439 . S
C479 H519 0.950 . S
C480 C479 1.439 . S
C480 N481 1.374 . S
C480 C514 1.395 . S
N481 C477 1.376 . S
N481 C480 1.374 . S
N481 Co482 2.008 . S
Co482 N481 2.008 . S
Co482 N483 1.995 . S
Co482 N488 2.008 . S
Co482 N493 1.995 . S
Co482 N498 2.282 . S
Co482 N504 2.282 . S
N483 Co482 1.995 . S
N483 C484 1.376 . S
N483 C487 1.383 . S
C484 N483 1.376 . S
C484 C485 1.446 . S
C484 C514 1.391 . S
C485 C484 1.446 . S
C485 C486 1.339 . S
C485 H520 0.949 . S
C486 C485 1.339 . S
C486 C487 1.439 . S
C486 H521 0.950 . S
C487 N483 1.383 . S
C487 C486 1.439 . S
C487 C516 1.392 . S
N488 Co482 2.008 . S
N488 C489 1.376 . S
N488 C492 1.374 . S
C489 N488 1.376 . S
C489 C490 1.443 . S
C489 C516 1.389 . S
C490 C489 1.443 . S
C490 C491 1.340 . S
C490 H522 0.951 . S
C491 C490 1.340 . S
C491 C492 1.439 . S
C491 H523 0.950 . S
C492 N488 1.374 . S
C492 C491 1.439 . S
C492 C517 1.395 . S
N493 Co482 1.995 . S
N493 C494 1.376 . S
N493 C497 1.383 . S
C494 N493 1.376 . S
C494 C495 1.446 . S
C494 C517 1.391 . S
C495 C494 1.446 . S
C495 C496 1.339 . S
C495 H524 0.949 . S
C496 C495 1.339 . S
C496 C497 1.439 . S
C496 H525 0.950 . S
C497 N493 1.383 . S
C497 C496 1.439 . S
C497 C515 1.392 . S
N498 Co482 2.282 . S
N498 C501 1.332 . S
N498 C503 1.332 . S
C499 C500 1.386 . S
C499 C502 1.388 . S
C500 C499 1.386 . S
C500 C501 1.382 . S
C500 H526 0.950 . S
C501 N498 1.332 . S
C501 C500 1.382 . S
C501 H512 0.952 . S
C502 C499 1.388 . S
C502 C503 1.382 . S
C502 H527 0.950 . S
C503 N498 1.332 . S
C503 C502 1.382 . S
C503 H513 0.948 . S
N504 Co482 2.282 . S
N504 C508 1.332 . S
N504 C509 1.332 . S
C505 C506 1.388 . S
C505 C509 1.382 . S
C505 H528 0.950 . S
C506 C505 1.388 . S
C506 C507 1.386 . S
C507 C506 1.386 . S
C507 C508 1.382 . S
C507 H529 0.950 . S
C508 N504 1.332 . S
C508 C507 1.382 . S
C508 H510 0.952 . S
C509 N504 1.332 . S
C509 C505 1.382 . S
C509 H511 0.948 . S
H510 C508 0.952 . S
H511 C509 0.948 . S
H512 C501 0.952 . S
H513 C503 0.948 . S
C514 C480 1.395 . S
C514 C484 1.391 . S
C515 C477 1.389 . S
C515 C497 1.392 . S
C516 C487 1.392 . S
C516 C489 1.389 . S
C517 C492 1.395 . S
C517 C494 1.391 . S
H518 C478 0.951 . S
H519 C479 0.950 . S
H520 C485 0.949 . S
H521 C486 0.950 . S
H522 C490 0.951 . S
H523 C491 0.950 . S
H524 C495 0.949 . S
H525 C496 0.950 . S
H526 C500 0.950 . S
H527 C502 0.950 . S
H528 C505 0.950 . S
H529 C507 0.950 . S
C530 C531 1.443 . S
C530 N534 1.376 . S
C530 C568 1.389 . S
C531 C530 1.443 . S
C531 C532 1.340 . S
C531 H571 0.951 . S
C532 C531 1.340 . S
C532 C533 1.439 . S
C532 H572 0.950 . S
C533 C532 1.439 . S
C533 N534 1.374 . S
C533 C567 1.395 . S
N534 C530 1.376 . S
N534 C533 1.374 . S
N534 Co535 2.008 . S
Co535 N534 2.008 . S
Co535 N536 1.995 . S
Co535 N541 2.008 . S
Co535 N546 1.995 . S
Co535 N551 2.282 . S
Co535 N557 2.282 . S
N536 Co535 1.995 . S
N536 C537 1.376 . S
N536 C540 1.383 . S
C537 N536 1.376 . S
C537 C538 1.446 . S
C537 C567 1.391 . S
C538 C537 1.446 . S
C538 C539 1.339 . S
C538 H573 0.949 . S
C539 C538 1.339 . S
C539 C540 1.439 . S
C539 H574 0.950 . S
C540 N536 1.383 . S
C540 C539 1.439 . S
C540 C569 1.392 . S
N541 Co535 2.008 . S
N541 C542 1.376 . S
N541 C545 1.374 . S
C542 N541 1.376 . S
C542 C543 1.443 . S
C542 C569 1.389 . S
C543 C542 1.443 . S
C543 C544 1.340 . S
C543 H575 0.951 . S
C544 C543 1.340 . S
C544 C545 1.439 . S
C544 H576 0.950 . S
C545 N541 1.374 . S
C545 C544 1.439 . S
C545 C570 1.395 . S
N546 Co535 1.995 . S
N546 C547 1.376 . S
N546 C550 1.383 . S
C547 N546 1.376 . S
C547 C548 1.446 . S
C547 C570 1.391 . S
C548 C547 1.446 . S
C548 C549 1.339 . S
C548 H577 0.949 . S
C549 C548 1.339 . S
C549 C550 1.439 . S
C549 H578 0.950 . S
C550 N546 1.383 . S
C550 C549 1.439 . S
C550 C568 1.392 . S
N551 Co535 2.282 . S
N551 C554 1.332 . S
N551 C556 1.332 . S
C552 C553 1.386 . S
C552 C555 1.388 . S
C553 C552 1.386 . S
C553 C554 1.382 . S
C553 H579 0.950 . S
C554 N551 1.332 . S
C554 C553 1.382 . S
C554 H565 0.952 . S
C555 C552 1.388 . S
C555 C556 1.382 . S
C555 H580 0.950 . S
C556 N551 1.332 . S
C556 C555 1.382 . S
C556 H566 0.948 . S
N557 Co535 2.282 . S
N557 C561 1.332 . S
N557 C562 1.332 . S
C558 C559 1.388 . S
C558 C562 1.382 . S
C558 H581 0.950 . S
C559 C558 1.388 . S
C559 C560 1.386 . S
C560 C559 1.386 . S
C560 C561 1.382 . S
C560 H582 0.950 . S
C561 N557 1.332 . S
C561 C560 1.382 . S
C561 H563 0.952 . S
C562 N557 1.332 . S
C562 C558 1.382 . S
C562 H564 0.948 . S
H563 C561 0.952 . S
H564 C562 0.948 . S
H565 C554 0.952 . S
H566 C556 0.948 . S
C567 C533 1.395 . S
C567 C537 1.391 . S
C568 C530 1.389 . S
C568 C550 1.392 . S
C569 C540 1.392 . S
C569 C542 1.389 . S
C570 C545 1.395 . S
C570 C547 1.391 . S
H571 C531 0.951 . S
H572 C532 0.950 . S
H573 C538 0.949 . S
H574 C539 0.950 . S
H575 C543 0.951 . S
H576 C544 0.950 . S
H577 C548 0.949 . S
H578 C549 0.950 . S
H579 C553 0.950 . S
H580 C555 0.950 . S
H581 C558 0.950 . S
H582 C560 0.950 . S
C583 C584 1.443 . S
C583 N587 1.376 . S
C583 C621 1.389 . S
C584 C583 1.443 . S
C584 C585 1.340 . S
C584 H624 0.951 . S
C585 C584 1.340 . S
C585 C586 1.439 . S
C585 H625 0.950 . S
C586 C585 1.439 . S
C586 N587 1.374 . S
C586 C620 1.395 . S
N587 C583 1.376 . S
N587 C586 1.374 . S
N587 Co588 2.008 . S
Co588 N587 2.008 . S
Co588 N589 1.995 . S
Co588 N594 2.008 . S
Co588 N599 1.995 . S
Co588 N604 2.282 . S
Co588 N610 2.282 . S
N589 Co588 1.995 . S
N589 C590 1.376 . S
N589 C593 1.383 . S
C590 N589 1.376 . S
C590 C591 1.446 . S
C590 C620 1.391 . S
C591 C590 1.446 . S
C591 C592 1.339 . S
C591 H626 0.949 . S
C592 C591 1.339 . S
C592 C593 1.439 . S
C592 H627 0.950 . S
C593 N589 1.383 . S
C593 C592 1.439 . S
C593 C622 1.392 . S
N594 Co588 2.008 . S
N594 C595 1.376 . S
N594 C598 1.374 . S
C595 N594 1.376 . S
C595 C596 1.443 . S
C595 C622 1.389 . S
C596 C595 1.443 . S
C596 C597 1.340 . S
C596 H628 0.951 . S
C597 C596 1.340 . S
C597 C598 1.439 . S
C597 H629 0.950 . S
C598 N594 1.374 . S
C598 C597 1.439 . S
C598 C623 1.395 . S
N599 Co588 1.995 . S
N599 C600 1.376 . S
N599 C603 1.383 . S
C600 N599 1.376 . S
C600 C601 1.446 . S
C600 C623 1.391 . S
C601 C600 1.446 . S
C601 C602 1.339 . S
C601 H630 0.949 . S
C602 C601 1.339 . S
C602 C603 1.439 . S
C602 H631 0.950 . S
C603 N599 1.383 . S
C603 C602 1.439 . S
C603 C621 1.392 . S
N604 Co588 2.282 . S
N604 C607 1.332 . S
N604 C609 1.332 . S
C605 C606 1.386 . S
C605 C608 1.388 . S
C606 C605 1.386 . S
C606 C607 1.382 . S
C606 H632 0.950 . S
C607 N604 1.332 . S
C607 C606 1.382 . S
C607 H618 0.952 . S
C608 C605 1.388 . S
C608 C609 1.382 . S
C608 H633 0.950 . S
C609 N604 1.332 . S
C609 C608 1.382 . S
C609 H619 0.948 . S
N610 Co588 2.282 . S
N610 C614 1.332 . S
N610 C615 1.332 . S
C611 C612 1.388 . S
C611 C615 1.382 . S
C611 H634 0.950 . S
C612 C611 1.388 . S
C612 C613 1.386 . S
C613 C612 1.386 . S
C613 C614 1.382 . S
C613 H635 0.950 . S
C614 N610 1.332 . S
C614 C613 1.382 . S
C614 H616 0.952 . S
C615 N610 1.332 . S
C615 C611 1.382 . S
C615 H617 0.948 . S
H616 C614 0.952 . S
H617 C615 0.948 . S
H618 C607 0.952 . S
H619 C609 0.948 . S
C620 C586 1.395 . S
C620 C590 1.391 . S
C621 C583 1.389 . S
C621 C603 1.392 . S
C622 C593 1.392 . S
C622 C595 1.389 . S
C623 C598 1.395 . S
C623 C600 1.391 . S
H624 C584 0.951 . S
H625 C585 0.950 . S
H626 C591 0.949 . S
H627 C592 0.950 . S
H628 C596 0.951 . S
H629 C597 0.950 . S
H630 C601 0.949 . S
H631 C602 0.950 . S
H632 C606 0.950 . S
H633 C608 0.950 . S
H634 C611 0.950 . S
H635 C613 0.950 . S
H636 C654 0.951 . S
H637 C656 0.951 . S
H638 C658 0.950 . S
H639 C659 0.950 . S
H640 C661 0.950 . S
H641 C664 0.950 . S
H642 C665 0.950 . S
H643 C667 0.950 . S
H644 C668 0.950 . S
H645 C669 0.951 . S
H646 C671 0.951 . S
H647 C673 0.950 . S
H648 C674 0.950 . S
H649 C676 0.950 . S
H650 C679 0.950 . S
H651 C680 0.950 . S
H652 C682 0.950 . S
H653 C683 0.950 . S
C654 H636 0.951 . S
C654 C655 1.366 . S
C654 C656 1.388 . S
C655 C654 1.366 . S
C655 C659 1.385 . S
C656 H637 0.951 . S
C656 C654 1.388 . S
C656 C657 1.366 . S
C657 C656 1.366 . S
C657 C658 1.414 . S
C657 C660 1.499 . S
C658 H638 0.950 . S
C658 C657 1.414 . S
C658 C659 1.374 . S
C659 H639 0.950 . S
C659 C655 1.385 . S
C659 C658 1.374 . S
C660 C657 1.499 . S
C660 C661 1.373 . S
C660 C662 1.389 . S
C661 H640 0.950 . S
C661 C660 1.373 . S
C661 C677 1.377 1_556 S
C662 C660 1.389 . S
C662 C663 1.524 . S
C662 C676 1.377 1_556 S
C663 C662 1.524 . S
C663 C664 1.397 . S
C663 C668 1.363 . S
C664 H641 0.950 . S
C664 C663 1.397 . S
C664 C665 1.334 . S
C665 H642 0.950 . S
C665 C664 1.334 . S
C665 C666 1.287 . S
C666 C665 1.287 . S
C666 C667 1.524 . S
C666 H685 0.913 . S
C667 H643 0.950 . S
C667 C666 1.524 . S
C667 C668 1.415 . S
C668 H644 0.950 . S
C668 C663 1.363 . S
C668 C667 1.415 . S
C669 H645 0.951 . S
C669 C670 1.366 . S
C669 C671 1.388 . S
C670 C669 1.366 . S
C670 C674 1.385 . S
C671 H646 0.951 . S
C671 C669 1.388 . S
C671 C672 1.366 . S
C672 C671 1.366 . S
C672 C673 1.414 . S
C672 C675 1.499 . S
C673 H647 0.950 . S
C673 C672 1.414 . S
C673 C674 1.374 . S
C674 H648 0.950 . S
C674 C670 1.385 . S
C674 C673 1.374 . S
C675 C672 1.499 . S
C675 C676 1.373 . S
C675 C677 1.389 . S
C676 H649 0.950 . S
C676 C662 1.377 1_554 S
C676 C675 1.373 . S
C677 C661 1.377 1_554 S
C677 C675 1.389 . S
C677 C678 1.524 . S
C678 C677 1.524 . S
C678 C679 1.397 . S
C678 C683 1.363 . S
C679 H650 0.950 . S
C679 C678 1.397 . S
C679 C680 1.334 . S
C680 H651 0.950 . S
C680 C679 1.334 . S
C680 C681 1.287 . S
C681 C680 1.287 . S
C681 C682 1.524 . S
C681 H684 0.999 . S
C682 H652 0.950 . S
C682 C681 1.524 . S
C682 C683 1.415 . S
C683 H653 0.950 . S
C683 C678 1.363 . S
C683 C682 1.415 . S
H684 C681 0.999 . S
H685 C666 0.913 . S
H686 C704 0.951 . S
H687 C706 0.951 . S
H688 C708 0.950 . S
H689 C709 0.950 . S
H690 C711 0.950 . S
H691 C714 0.950 . S
H692 C715 0.950 . S
H693 C717 0.950 . S
H694 C718 0.950 . S
H695 C719 0.951 . S
H696 C721 0.951 . S
H697 C723 0.950 . S
H698 C724 0.950 . S
H699 C726 0.950 . S
H700 C729 0.950 . S
H701 C730 0.950 . S
H702 C732 0.950 . S
H703 C733 0.950 . S
C704 H686 0.951 . S
C704 C705 1.366 . S
C704 C706 1.388 . S
C705 C704 1.366 . S
C705 C709 1.385 . S
C706 H687 0.951 . S
C706 C704 1.388 . S
C706 C707 1.366 . S
C707 C706 1.366 . S
C707 C708 1.414 . S
C707 C710 1.499 . S
C708 H688 0.950 . S
C708 C707 1.414 . S
C708 C709 1.374 . S
C709 H689 0.950 . S
C709 C705 1.385 . S
C709 C708 1.374 . S
C710 C707 1.499 . S
C710 C711 1.373 . S
C710 C712 1.389 . S
C711 H690 0.950 . S
C711 C710 1.373 . S
C711 C727 1.377 . S
C712 C710 1.389 . S
C712 C713 1.524 . S
C712 C726 1.377 . S
C713 C712 1.524 . S
C713 C714 1.397 . S
C713 C718 1.363 . S
C714 H691 0.950 . S
C714 C713 1.397 . S
C714 C715 1.334 . S
C715 H692 0.950 . S
C715 C714 1.334 . S
C715 C716 1.287 . S
C716 C715 1.287 . S
C716 C717 1.524 . S
C716 H735 0.913 . S
C717 H693 0.950 . S
C717 C716 1.524 . S
C717 C718 1.415 . S
C718 H694 0.950 . S
C718 C713 1.363 . S
C718 C717 1.415 . S
C719 H695 0.951 . S
C719 C720 1.366 . S
C719 C721 1.388 . S
C720 C719 1.366 . S
C720 C724 1.385 . S
C721 H696 0.951 . S
C721 C719 1.388 . S
C721 C722 1.366 . S
C722 C721 1.366 . S
C722 C723 1.414 . S
C722 C725 1.499 . S
C723 H697 0.950 . S
C723 C722 1.414 . S
C723 C724 1.374 . S
C724 H698 0.950 . S
C724 C720 1.385 . S
C724 C723 1.374 . S
C725 C722 1.499 . S
C725 C726 1.373 . S
C725 C727 1.389 . S
C726 H699 0.950 . S
C726 C712 1.377 . S
C726 C725 1.373 . S
C727 C711 1.377 . S
C727 C725 1.389 . S
C727 C728 1.524 . S
C728 C727 1.524 . S
C728 C729 1.397 . S
C728 C733 1.363 . S
C729 H700 0.950 . S
C729 C728 1.397 . S
C729 C730 1.334 . S
C730 H701 0.950 . S
C730 C729 1.334 . S
C730 C731 1.287 . S
C731 C730 1.287 . S
C731 C732 1.524 . S
C731 H734 0.999 . S
C732 H702 0.950 . S
C732 C731 1.524 . S
C732 C733 1.415 . S
C733 H703 0.950 . S
C733 C728 1.363 . S
C733 C732 1.415 . S
H734 C731 0.999 . S
H735 C716 0.913 . S
H736 C754 0.951 . S
H737 C756 0.951 . S
H738 C758 0.950 . S
H739 C759 0.950 . S
H740 C761 0.950 . S
H741 C764 0.950 . S
H742 C765 0.950 . S
H743 C767 0.950 . S
H744 C768 0.950 . S
H745 C769 0.951 . S
H746 C771 0.951 . S
H747 C773 0.950 . S
H748 C774 0.950 . S
H749 C776 0.950 . S
H750 C779 0.950 . S
H751 C780 0.950 . S
H752 C782 0.950 . S
H753 C783 0.950 . S
C754 H736 0.951 . S
C754 C755 1.366 . S
C754 C756 1.388 . S
C755 C754 1.366 . S
C755 C759 1.385 . S
C756 H737 0.951 . S
C756 C754 1.388 . S
C756 C757 1.366 . S
C757 C756 1.366 . S
C757 C758 1.414 . S
C757 C760 1.499 . S
C758 H738 0.950 . S
C758 C757 1.414 . S
C758 C759 1.374 . S
C759 H739 0.950 . S
C759 C755 1.385 . S
C759 C758 1.374 . S
C760 C757 1.499 . S
C760 C761 1.373 . S
C760 C762 1.389 . S
C761 H740 0.950 . S
C761 C760 1.373 . S
C761 C777 1.377 . S
C762 C760 1.389 . S
C762 C763 1.524 . S
C762 C776 1.377 . S
C763 C762 1.524 . S
C763 C764 1.397 . S
C763 C768 1.363 . S
C764 H741 0.950 . S
C764 C763 1.397 . S
C764 C765 1.334 . S
C765 H742 0.950 . S
C765 C764 1.334 . S
C765 C766 1.287 . S
C766 C765 1.287 . S
C766 C767 1.524 . S
C766 H785 0.913 . S
C767 H743 0.950 . S
C767 C766 1.524 . S
C767 C768 1.415 . S
C768 H744 0.950 . S
C768 C763 1.363 . S
C768 C767 1.415 . S
C769 H745 0.951 . S
C769 C770 1.366 . S
C769 C771 1.388 . S
C770 C769 1.366 . S
C770 C774 1.385 . S
C771 H746 0.951 . S
C771 C769 1.388 . S
C771 C772 1.366 . S
C772 C771 1.366 . S
C772 C773 1.414 . S
C772 C775 1.499 . S
C773 H747 0.950 . S
C773 C772 1.414 . S
C773 C774 1.374 . S
C774 H748 0.950 . S
C774 C770 1.385 . S
C774 C773 1.374 . S
C775 C772 1.499 . S
C775 C776 1.373 . S
C775 C777 1.389 . S
C776 H749 0.950 . S
C776 C762 1.377 . S
C776 C775 1.373 . S
C777 C761 1.377 . S
C777 C775 1.389 . S
C777 C778 1.524 . S
C778 C777 1.524 . S
C778 C779 1.397 . S
C778 C783 1.363 . S
C779 H750 0.950 . S
C779 C778 1.397 . S
C779 C780 1.334 . S
C780 H751 0.950 . S
C780 C779 1.334 . S
C780 C781 1.287 . S
C781 C780 1.287 . S
C781 C782 1.524 . S
C781 H784 0.999 . S
C782 H752 0.950 . S
C782 C781 1.524 . S
C782 C783 1.415 . S
C783 H753 0.950 . S
C783 C778 1.363 . S
C783 C782 1.415 . S
H784 C781 0.999 . S
H785 C766 0.913 . S
H786 C804 0.951 . S
H787 C806 0.951 . S
H788 C808 0.950 . S
H789 C809 0.950 . S
H790 C811 0.950 . S
H791 C814 0.950 . S
H792 C815 0.950 . S
H793 C817 0.950 . S
H794 C818 0.950 . S
H795 C819 0.951 . S
H796 C821 0.951 . S
H797 C823 0.950 . S
H798 C824 0.950 . S
H799 C826 0.950 . S
H800 C829 0.950 . S
H801 C830 0.950 . S
H802 C832 0.950 . S
H803 C833 0.950 . S
C804 H786 0.951 . S
C804 C805 1.366 . S
C804 C806 1.388 . S
C805 C804 1.366 . S
C805 C809 1.385 . S
C806 H787 0.951 . S
C806 C804 1.388 . S
C806 C807 1.366 . S
C807 C806 1.366 . S
C807 C808 1.414 . S
C807 C810 1.499 . S
C808 H788 0.950 . S
C808 C807 1.414 . S
C808 C809 1.374 . S
C809 H789 0.950 . S
C809 C805 1.385 . S
C809 C808 1.374 . S
C810 C807 1.499 . S
C810 C811 1.373 . S
C810 C812 1.389 . S
C811 H790 0.950 . S
C811 C810 1.373 . S
C811 C827 1.377 1_554 S
C812 C810 1.389 . S
C812 C813 1.524 . S
C812 C826 1.377 1_554 S
C813 C812 1.524 . S
C813 C814 1.397 . S
C813 C818 1.363 . S
C814 H791 0.950 . S
C814 C813 1.397 . S
C814 C815 1.334 . S
C815 H792 0.950 . S
C815 C814 1.334 . S
C815 C816 1.287 . S
C816 C815 1.287 . S
C816 C817 1.524 . S
C816 H835 0.913 . S
C817 H793 0.950 . S
C817 C816 1.524 . S
C817 C818 1.415 . S
C818 H794 0.950 . S
C818 C813 1.363 . S
C818 C817 1.415 . S
C819 H795 0.951 . S
C819 C820 1.366 . S
C819 C821 1.388 . S
C820 C819 1.366 . S
C820 C824 1.385 . S
C821 H796 0.951 . S
C821 C819 1.388 . S
C821 C822 1.366 . S
C822 C821 1.366 . S
C822 C823 1.414 . S
C822 C825 1.499 . S
C823 H797 0.950 . S
C823 C822 1.414 . S
C823 C824 1.374 . S
C824 H798 0.950 . S
C824 C820 1.385 . S
C824 C823 1.374 . S
C825 C822 1.499 . S
C825 C826 1.373 . S
C825 C827 1.389 . S
C826 H799 0.950 . S
C826 C812 1.377 1_556 S
C826 C825 1.373 . S
C827 C811 1.377 1_556 S
C827 C825 1.389 . S
C827 C828 1.524 . S
C828 C827 1.524 . S
C828 C829 1.397 . S
C828 C833 1.363 . S
C829 H800 0.950 . S
C829 C828 1.397 . S
C829 C830 1.334 . S
C830 H801 0.950 . S
C830 C829 1.334 . S
C830 C831 1.287 . S
C831 C830 1.287 . S
C831 C832 1.524 . S
C831 H834 0.999 . S
C832 H802 0.950 . S
C832 C831 1.524 . S
C832 C833 1.415 . S
C833 H803 0.950 . S
C833 C828 1.363 . S
C833 C832 1.415 . S
H834 C831 0.999 . S
H835 C816 0.913 . S
H836 C854 0.951 . S
H837 C856 0.951 . S
H838 C858 0.950 . S
H839 C859 0.950 . S
H840 C861 0.950 . S
H841 C864 0.950 . S
H842 C865 0.950 . S
H843 C867 0.950 . S
H844 C868 0.950 . S
H845 C869 0.951 . S
H846 C871 0.951 . S
H847 C873 0.950 . S
H848 C874 0.950 . S
H849 C876 0.950 . S
H850 C879 0.950 . S
H851 C880 0.950 . S
H852 C882 0.950 . S
H853 C883 0.950 . S
C854 H836 0.951 . S
C854 C855 1.366 . S
C854 C856 1.388 . S
C855 C854 1.366 . S
C855 C859 1.385 . S
C856 H837 0.951 . S
C856 C854 1.388 . S
C856 C857 1.366 . S
C857 C856 1.366 . S
C857 C858 1.414 . S
C857 C860 1.499 . S
C858 H838 0.950 . S
C858 C857 1.414 . S
C858 C859 1.374 . S
C859 H839 0.950 . S
C859 C855 1.385 . S
C859 C858 1.374 . S
C860 C857 1.499 . S
C860 C861 1.373 . S
C860 C862 1.389 . S
C861 H840 0.950 . S
C861 C860 1.373 . S
C861 C877 1.377 . S
C862 C860 1.389 . S
C862 C863 1.524 . S
C862 C876 1.377 . S
C863 C862 1.524 . S
C863 C864 1.397 . S
C863 C868 1.363 . S
C864 H841 0.950 . S
C864 C863 1.397 . S
C864 C865 1.334 . S
C865 H842 0.950 . S
C865 C864 1.334 . S
C865 C866 1.287 . S
C866 C865 1.287 . S
C866 C867 1.524 . S
C866 H885 0.913 . S
C867 H843 0.950 . S
C867 C866 1.524 . S
C867 C868 1.415 . S
C868 H844 0.950 . S
C868 C863 1.363 . S
C868 C867 1.415 . S
C869 H845 0.951 . S
C869 C870 1.366 . S
C869 C871 1.388 . S
C870 C869 1.366 . S
C870 C874 1.385 . S
C871 H846 0.951 . S
C871 C869 1.388 . S
C871 C872 1.366 . S
C872 C871 1.366 . S
C872 C873 1.414 . S
C872 C875 1.499 . S
C873 H847 0.950 . S
C873 C872 1.414 . S
C873 C874 1.374 . S
C874 H848 0.950 . S
C874 C870 1.385 . S
C874 C873 1.374 . S
C875 C872 1.499 . S
C875 C876 1.373 . S
C875 C877 1.389 . S
C876 H849 0.950 . S
C876 C862 1.377 . S
C876 C875 1.373 . S
C877 C861 1.377 . S
C877 C875 1.389 . S
C877 C878 1.524 . S
C878 C877 1.524 . S
C878 C879 1.397 . S
C878 C883 1.363 . S
C879 H850 0.950 . S
C879 C878 1.397 . S
C879 C880 1.334 . S
C880 H851 0.950 . S
C880 C879 1.334 . S
C880 C881 1.287 . S
C881 C880 1.287 . S
C881 C882 1.524 . S
C881 H884 0.999 . S
C882 H852 0.950 . S
C882 C881 1.524 . S
C882 C883 1.415 . S
C883 H853 0.950 . S
C883 C878 1.363 . S
C883 C882 1.415 . S
H884 C881 0.999 . S
H885 C866 0.913 . S
H886 C904 0.951 . S
H887 C906 0.951 . S
H888 C908 0.950 . S
H889 C909 0.950 . S
H890 C911 0.950 . S
H891 C914 0.950 . S
H892 C915 0.950 . S
H893 C917 0.950 . S
H894 C918 0.950 . S
H895 C919 0.951 . S
H896 C921 0.951 . S
H897 C923 0.950 . S
H898 C924 0.950 . S
H899 C926 0.950 . S
H900 C929 0.950 . S
H901 C930 0.950 . S
H902 C932 0.950 . S
H903 C933 0.950 . S
C904 H886 0.951 . S
C904 C905 1.366 . S
C904 C906 1.388 . S
C905 C904 1.366 . S
C905 C909 1.385 . S
C906 H887 0.951 . S
C906 C904 1.388 . S
C906 C907 1.366 . S
C907 C906 1.366 . S
C907 C908 1.414 . S
C907 C910 1.499 . S
C908 H888 0.950 . S
C908 C907 1.414 . S
C908 C909 1.374 . S
C909 H889 0.950 . S
C909 C905 1.385 . S
C909 C908 1.374 . S
C910 C907 1.499 . S
C910 C911 1.373 . S
C910 C912 1.389 . S
C911 H890 0.950 . S
C911 C910 1.373 . S
C911 C927 1.377 . S
C912 C910 1.389 . S
C912 C913 1.524 . S
C912 C926 1.377 . S
C913 C912 1.524 . S
C913 C914 1.397 . S
C913 C918 1.363 . S
C914 H891 0.950 . S
C914 C913 1.397 . S
C914 C915 1.334 . S
C915 H892 0.950 . S
C915 C914 1.334 . S
C915 C916 1.287 . S
C916 C915 1.287 . S
C916 C917 1.524 . S
C916 H935 0.913 . S
C917 H893 0.950 . S
C917 C916 1.524 . S
C917 C918 1.415 . S
C918 H894 0.950 . S
C918 C913 1.363 . S
C918 C917 1.415 . S
C919 H895 0.951 . S
C919 C920 1.366 . S
C919 C921 1.388 . S
C920 C919 1.366 . S
C920 C924 1.385 . S
C921 H896 0.951 . S
C921 C919 1.388 . S
C921 C922 1.366 . S
C922 C921 1.366 . S
C922 C923 1.414 . S
C922 C925 1.499 . S
C923 H897 0.950 . S
C923 C922 1.414 . S
C923 C924 1.374 . S
C924 H898 0.950 . S
C924 C920 1.385 . S
C924 C923 1.374 . S
C925 C922 1.499 . S
C925 C926 1.373 . S
C925 C927 1.389 . S
C926 H899 0.950 . S
C926 C912 1.377 . S
C926 C925 1.373 . S
C927 C911 1.377 . S
C927 C925 1.389 . S
C927 C928 1.524 . S
C928 C927 1.524 . S
C928 C929 1.397 . S
C928 C933 1.363 . S
C929 H900 0.950 . S
C929 C928 1.397 . S
C929 C930 1.334 . S
C930 H901 0.950 . S
C930 C929 1.334 . S
C930 C931 1.287 . S
C931 C930 1.287 . S
C931 C932 1.524 . S
C931 H934 0.999 . S
C932 H902 0.950 . S
C932 C931 1.524 . S
C932 C933 1.415 . S
C933 H903 0.950 . S
C933 C928 1.363 . S
C933 C932 1.415 . S
H934 C931 0.999 . S
H935 C916 0.913 . S
H936 C954 0.951 . S
H937 C956 0.951 . S
H938 C958 0.950 . S
H939 C959 0.950 . S
H940 C961 0.950 . S
H941 C964 0.950 . S
H942 C965 0.950 . S
H943 C967 0.950 . S
H944 C968 0.950 . S
H945 C969 0.951 . S
H946 C971 0.951 . S
H947 C973 0.950 . S
H948 C974 0.950 . S
H949 C976 0.950 . S
H950 C979 0.950 . S
H951 C980 0.950 . S
H952 C982 0.950 . S
H953 C983 0.950 . S
C954 H936 0.951 . S
C954 C955 1.366 . S
C954 C956 1.388 . S
C955 C954 1.366 . S
C955 C959 1.385 . S
C956 H937 0.951 . S
C956 C954 1.388 . S
C956 C957 1.366 . S
C957 C956 1.366 . S
C957 C958 1.414 . S
C957 C960 1.499 . S
C958 H938 0.950 . S
C958 C957 1.414 . S
C958 C959 1.374 . S
C959 H939 0.950 . S
C959 C955 1.385 . S
C959 C958 1.374 . S
C960 C957 1.499 . S
C960 C961 1.373 . S
C960 C962 1.389 . S
C961 H940 0.950 . S
C961 C960 1.373 . S
C961 C977 1.377 . S
C962 C960 1.389 . S
C962 C963 1.524 . S
C962 C976 1.377 . S
C963 C962 1.524 . S
C963 C964 1.397 . S
C963 C968 1.363 . S
C964 H941 0.950 . S
C964 C963 1.397 . S
C964 C965 1.334 . S
C965 H942 0.950 . S
C965 C964 1.334 . S
C965 C966 1.287 . S
C966 C965 1.287 . S
C966 C967 1.524 . S
C966 H985 0.913 . S
C967 H943 0.950 . S
C967 C966 1.524 . S
C967 C968 1.415 . S
C968 H944 0.950 . S
C968 C963 1.363 . S
C968 C967 1.415 . S
C969 H945 0.951 . S
C969 C970 1.366 . S
C969 C971 1.388 . S
C970 C969 1.366 . S
C970 C974 1.385 . S
C971 H946 0.951 . S
C971 C969 1.388 . S
C971 C972 1.366 . S
C972 C971 1.366 . S
C972 C973 1.414 . S
C972 C975 1.499 . S
C973 H947 0.950 . S
C973 C972 1.414 . S
C973 C974 1.374 . S
C974 H948 0.950 . S
C974 C970 1.385 . S
C974 C973 1.374 . S
C975 C972 1.499 . S
C975 C976 1.373 . S
C975 C977 1.389 . S
C976 H949 0.950 . S
C976 C962 1.377 . S
C976 C975 1.373 . S
C977 C961 1.377 . S
C977 C975 1.389 . S
C977 C978 1.524 . S
C978 C977 1.524 . S
C978 C979 1.397 . S
C978 C983 1.363 . S
C979 H950 0.950 . S
C979 C978 1.397 . S
C979 C980 1.334 . S
C980 H951 0.950 . S
C980 C979 1.334 . S
C980 C981 1.287 . S
C981 C980 1.287 . S
C981 C982 1.524 . S
C981 H984 0.999 . S
C982 H952 0.950 . S
C982 C981 1.524 . S
C982 C983 1.415 . S
C983 H953 0.950 . S
C983 C978 1.363 . S
C983 C982 1.415 . S
H984 C981 0.999 . S
H985 C966 0.913 . S
H986 C1004 0.951 . S
H987 C1006 0.951 . S
H988 C1008 0.950 . S
H989 C1009 0.950 . S
H990 C1011 0.950 . S
H991 C1014 0.950 . S
H992 C1015 0.950 . S
H993 C1017 0.950 . S
H994 C1018 0.950 . S
H995 C1019 0.951 . S
H996 C1021 0.951 . S
H997 C1023 0.950 . S
H998 C1024 0.950 . S
H999 C1026 0.950 . S
H1000 C1029 0.950 . S
H1001 C1030 0.950 . S
H1002 C1032 0.950 . S
H1003 C1033 0.950 . S
C1004 H986 0.951 . S
C1004 C1005 1.366 . S
C1004 C1006 1.388 . S
C1005 C1004 1.366 . S
C1005 C1009 1.385 . S
C1006 H987 0.951 . S
C1006 C1004 1.388 . S
C1006 C1007 1.366 . S
C1007 C1006 1.366 . S
C1007 C1008 1.414 . S
C1007 C1010 1.499 . S
C1008 H988 0.950 . S
C1008 C1007 1.414 . S
C1008 C1009 1.374 . S
C1009 H989 0.950 . S
C1009 C1005 1.385 . S
C1009 C1008 1.374 . S
C1010 C1007 1.499 . S
C1010 C1011 1.373 . S
C1010 C1012 1.389 . S
C1011 H990 0.950 . S
C1011 C1010 1.373 . S
C1011 C1027 1.377 . S
C1012 C1010 1.389 . S
C1012 C1013 1.524 . S
C1012 C1026 1.377 . S
C1013 C1012 1.524 . S
C1013 C1014 1.397 . S
C1013 C1018 1.363 . S
C1014 H991 0.950 . S
C1014 C1013 1.397 . S
C1014 C1015 1.334 . S
C1015 H992 0.950 . S
C1015 C1014 1.334 . S
C1015 C1016 1.287 . S
C1016 C1015 1.287 . S
C1016 C1017 1.524 . S
C1016 H1035 0.913 . S
C1017 H993 0.950 . S
C1017 C1016 1.524 . S
C1017 C1018 1.415 . S
C1018 H994 0.950 . S
C1018 C1013 1.363 . S
C1018 C1017 1.415 . S
C1019 H995 0.951 . S
C1019 C1020 1.366 . S
C1019 C1021 1.388 . S
C1020 C1019 1.366 . S
C1020 C1024 1.385 . S
C1021 H996 0.951 . S
C1021 C1019 1.388 . S
C1021 C1022 1.366 . S
C1022 C1021 1.366 . S
C1022 C1023 1.414 . S
C1022 C1025 1.499 . S
C1023 H997 0.950 . S
C1023 C1022 1.414 . S
C1023 C1024 1.374 . S
C1024 H998 0.950 . S
C1024 C1020 1.385 . S
C1024 C1023 1.374 . S
C1025 C1022 1.499 . S
C1025 C1026 1.373 . S
C1025 C1027 1.389 . S
C1026 H999 0.950 . S
C1026 C1012 1.377 . S
C1026 C1025 1.373 . S
C1027 C1011 1.377 . S
C1027 C1025 1.389 . S
C1027 C1028 1.524 . S
C1028 C1027 1.524 . S
C1028 C1029 1.397 . S
C1028 C1033 1.363 . S
C1029 H1000 0.950 . S
C1029 C1028 1.397 . S
C1029 C1030 1.334 . S
C1030 H1001 0.950 . S
C1030 C1029 1.334 . S
C1030 C1031 1.287 . S
C1031 C1030 1.287 . S
C1031 C1032 1.524 . S
C1031 H1034 0.999 . S
C1032 H1002 0.950 . S
C1032 C1031 1.524 . S
C1032 C1033 1.415 . S
C1033 H1003 0.950 . S
C1033 C1028 1.363 . S
C1033 C1032 1.415 . S
H1034 C1031 0.999 . S
H1035 C1016 0.913 . S
H1036 C1054 0.951 . S
H1037 C1056 0.951 . S
H1038 C1058 0.950 . S
H1039 C1059 0.950 . S
H1040 C1061 0.950 . S
H1041 C1064 0.950 . S
H1042 C1065 0.950 . S
H1043 C1067 0.950 . S
H1044 C1068 0.950 . S
H1045 C1069 0.951 . S
H1046 C1071 0.951 . S
H1047 C1073 0.950 . S
H1048 C1074 0.950 . S
H1049 C1076 0.950 . S
H1050 C1079 0.950 . S
H1051 C1080 0.950 . S
H1052 C1082 0.950 . S
H1053 C1083 0.950 . S
C1054 H1036 0.951 . S
C1054 C1055 1.366 . S
C1054 C1056 1.388 . S
C1055 C1054 1.366 . S
C1055 C1059 1.385 . S
C1056 H1037 0.951 . S
C1056 C1054 1.388 . S
C1056 C1057 1.366 . S
C1057 C1056 1.366 . S
C1057 C1058 1.414 . S
C1057 C1060 1.499 . S
C1058 H1038 0.950 . S
C1058 C1057 1.414 . S
C1058 C1059 1.374 . S
C1059 H1039 0.950 . S
C1059 C1055 1.385 . S
C1059 C1058 1.374 . S
C1060 C1057 1.499 . S
C1060 C1061 1.373 . S
C1060 C1062 1.389 . S
C1061 H1040 0.950 . S
C1061 C1060 1.373 . S
C1061 C1077 1.377 . S
C1062 C1060 1.389 . S
C1062 C1063 1.524 . S
C1062 C1076 1.377 . S
C1063 C1062 1.524 . S
C1063 C1064 1.397 . S
C1063 C1068 1.363 . S
C1064 H1041 0.950 . S
C1064 C1063 1.397 . S
C1064 C1065 1.334 . S
C1065 H1042 0.950 . S
C1065 C1064 1.334 . S
C1065 C1066 1.287 . S
C1066 C1065 1.287 . S
C1066 C1067 1.524 . S
C1066 H1085 0.913 . S
C1067 H1043 0.950 . S
C1067 C1066 1.524 . S
C1067 C1068 1.415 . S
C1068 H1044 0.950 . S
C1068 C1063 1.363 . S
C1068 C1067 1.415 . S
C1069 H1045 0.951 . S
C1069 C1070 1.366 . S
C1069 C1071 1.388 . S
C1070 C1069 1.366 . S
C1070 C1074 1.385 . S
C1071 H1046 0.951 . S
C1071 C1069 1.388 . S
C1071 C1072 1.366 . S
C1072 C1071 1.366 . S
C1072 C1073 1.414 . S
C1072 C1075 1.499 . S
C1073 H1047 0.950 . S
C1073 C1072 1.414 . S
C1073 C1074 1.374 . S
C1074 H1048 0.950 . S
C1074 C1070 1.385 . S
C1074 C1073 1.374 . S
C1075 C1072 1.499 . S
C1075 C1076 1.373 . S
C1075 C1077 1.389 . S
C1076 H1049 0.950 . S
C1076 C1062 1.377 . S
C1076 C1075 1.373 . S
C1077 C1061 1.377 . S
C1077 C1075 1.389 . S
C1077 C1078 1.524 . S
C1078 C1077 1.524 . S
C1078 C1079 1.397 . S
C1078 C1083 1.363 . S
C1079 H1050 0.950 . S
C1079 C1078 1.397 . S
C1079 C1080 1.334 . S
C1080 H1051 0.950 . S
C1080 C1079 1.334 . S
C1080 C1081 1.287 . S
C1081 C1080 1.287 . S
C1081 C1082 1.524 . S
C1081 H1084 0.999 . S
C1082 H1052 0.950 . S
C1082 C1081 1.524 . S
C1082 C1083 1.415 . S
C1083 H1053 0.950 . S
C1083 C1078 1.363 . S
C1083 C1082 1.415 . S
H1084 C1081 0.999 . S
H1085 C1066 0.913 . S
H1086 C1104 0.951 . S
H1087 C1106 0.951 . S
H1088 C1108 0.950 . S
H1089 C1109 0.950 . S
H1090 C1111 0.950 . S
H1091 C1114 0.950 . S
H1092 C1115 0.950 . S
H1093 C1117 0.950 . S
H1094 C1118 0.950 . S
H1095 C1119 0.951 . S
H1096 C1121 0.951 . S
H1097 C1123 0.950 . S
H1098 C1124 0.950 . S
H1099 C1126 0.950 . S
H1100 C1129 0.950 . S
H1101 C1130 0.950 . S
H1102 C1132 0.950 . S
H1103 C1133 0.950 . S
C1104 H1086 0.951 . S
C1104 C1105 1.366 . S
C1104 C1106 1.388 . S
C1105 C1104 1.366 . S
C1105 C1109 1.385 . S
C1106 H1087 0.951 . S
C1106 C1104 1.388 . S
C1106 C1107 1.366 . S
C1107 C1106 1.366 . S
C1107 C1108 1.414 . S
C1107 C1110 1.499 . S
C1108 H1088 0.950 . S
C1108 C1107 1.414 . S
C1108 C1109 1.374 . S
C1109 H1089 0.950 . S
C1109 C1105 1.385 . S
C1109 C1108 1.374 . S
C1110 C1107 1.499 . S
C1110 C1111 1.373 . S
C1110 C1112 1.389 . S
C1111 H1090 0.950 . S
C1111 C1110 1.373 . S
C1111 C1127 1.377 . S
C1112 C1110 1.389 . S
C1112 C1113 1.524 . S
C1112 C1126 1.377 . S
C1113 C1112 1.524 . S
C1113 C1114 1.397 . S
C1113 C1118 1.363 . S
C1114 H1091 0.950 . S
C1114 C1113 1.397 . S
C1114 C1115 1.334 . S
C1115 H1092 0.950 . S
C1115 C1114 1.334 . S
C1115 C1116 1.287 . S
C1116 C1115 1.287 . S
C1116 C1117 1.524 . S
C1116 H1135 0.913 . S
C1117 H1093 0.950 . S
C1117 C1116 1.524 . S
C1117 C1118 1.415 . S
C1118 H1094 0.950 . S
C1118 C1113 1.363 . S
C1118 C1117 1.415 . S
C1119 H1095 0.951 . S
C1119 C1120 1.366 . S
C1119 C1121 1.388 . S
C1120 C1119 1.366 . S
C1120 C1124 1.385 . S
C1121 H1096 0.951 . S
C1121 C1119 1.388 . S
C1121 C1122 1.366 . S
C1122 C1121 1.366 . S
C1122 C1123 1.414 . S
C1122 C1125 1.499 . S
C1123 H1097 0.950 . S
C1123 C1122 1.414 . S
C1123 C1124 1.374 . S
C1124 H1098 0.950 . S
C1124 C1120 1.385 . S
C1124 C1123 1.374 . S
C1125 C1122 1.499 . S
C1125 C1126 1.373 . S
C1125 C1127 1.389 . S
C1126 H1099 0.950 . S
C1126 C1112 1.377 . S
C1126 C1125 1.373 . S
C1127 C1111 1.377 . S
C1127 C1125 1.389 . S
C1127 C1128 1.524 . S
C1128 C1127 1.524 . S
C1128 C1129 1.397 . S
C1128 C1133 1.363 . S
C1129 H1100 0.950 . S
C1129 C1128 1.397 . S
C1129 C1130 1.334 . S
C1130 H1101 0.950 . S
C1130 C1129 1.334 . S
C1130 C1131 1.287 . S
C1131 C1130 1.287 . S
C1131 C1132 1.524 . S
C1131 H1134 0.999 . S
C1132 H1102 0.950 . S
C1132 C1131 1.524 . S
C1132 C1133 1.415 . S
C1133 H1103 0.950 . S
C1133 C1128 1.363 . S
C1133 C1132 1.415 . S
H1134 C1131 0.999 . S
H1135 C1116 0.913 . S
H1136 C1154 0.951 . S
H1137 C1156 0.951 . S
H1138 C1158 0.950 . S
H1139 C1159 0.950 . S
H1140 C1161 0.950 . S
H1141 C1164 0.950 . S
H1142 C1165 0.950 . S
H1143 C1167 0.950 . S
H1144 C1168 0.950 . S
H1145 C1169 0.951 . S
H1146 C1171 0.951 . S
H1147 C1173 0.950 . S
H1148 C1174 0.950 . S
H1149 C1176 0.950 . S
H1150 C1179 0.950 . S
H1151 C1180 0.950 . S
H1152 C1182 0.950 . S
H1153 C1183 0.950 . S
C1154 H1136 0.951 . S
C1154 C1155 1.366 . S
C1154 C1156 1.388 . S
C1155 C1154 1.366 . S
C1155 C1159 1.385 . S
C1156 H1137 0.951 . S
C1156 C1154 1.388 . S
C1156 C1157 1.366 . S
C1157 C1156 1.366 . S
C1157 C1158 1.414 . S
C1157 C1160 1.499 . S
C1158 H1138 0.950 . S
C1158 C1157 1.414 . S
C1158 C1159 1.374 . S
C1159 H1139 0.950 . S
C1159 C1155 1.385 . S
C1159 C1158 1.374 . S
C1160 C1157 1.499 . S
C1160 C1161 1.373 . S
C1160 C1162 1.389 . S
C1161 H1140 0.950 . S
C1161 C1160 1.373 . S
C1161 C1177 1.377 . S
C1162 C1160 1.389 . S
C1162 C1163 1.524 . S
C1162 C1176 1.377 . S
C1163 C1162 1.524 . S
C1163 C1164 1.397 . S
C1163 C1168 1.363 . S
C1164 H1141 0.950 . S
C1164 C1163 1.397 . S
C1164 C1165 1.334 . S
C1165 H1142 0.950 . S
C1165 C1164 1.334 . S
C1165 C1166 1.287 . S
C1166 C1165 1.287 . S
C1166 C1167 1.524 . S
C1166 H1185 0.913 . S
C1167 H1143 0.950 . S
C1167 C1166 1.524 . S
C1167 C1168 1.415 . S
C1168 H1144 0.950 . S
C1168 C1163 1.363 . S
C1168 C1167 1.415 . S
C1169 H1145 0.951 . S
C1169 C1170 1.366 . S
C1169 C1171 1.388 . S
C1170 C1169 1.366 . S
C1170 C1174 1.385 . S
C1171 H1146 0.951 . S
C1171 C1169 1.388 . S
C1171 C1172 1.366 . S
C1172 C1171 1.366 . S
C1172 C1173 1.414 . S
C1172 C1175 1.499 . S
C1173 H1147 0.950 . S
C1173 C1172 1.414 . S
C1173 C1174 1.374 . S
C1174 H1148 0.950 . S
C1174 C1170 1.385 . S
C1174 C1173 1.374 . S
C1175 C1172 1.499 . S
C1175 C1176 1.373 . S
C1175 C1177 1.389 . S
C1176 H1149 0.950 . S
C1176 C1162 1.377 . S
C1176 C1175 1.373 . S
C1177 C1161 1.377 . S
C1177 C1175 1.389 . S
C1177 C1178 1.524 . S
C1178 C1177 1.524 . S
C1178 C1179 1.397 . S
C1178 C1183 1.363 . S
C1179 H1150 0.950 . S
C1179 C1178 1.397 . S
C1179 C1180 1.334 . S
C1180 H1151 0.950 . S
C1180 C1179 1.334 . S
C1180 C1181 1.287 . S
C1181 C1180 1.287 . S
C1181 C1182 1.524 . S
C1181 H1184 0.999 . S
C1182 H1152 0.950 . S
C1182 C1181 1.524 . S
C1182 C1183 1.415 . S
C1183 H1153 0.950 . S
C1183 C1178 1.363 . S
C1183 C1182 1.415 . S
H1184 C1181 0.999 . S
H1185 C1166 0.913 . S
H1186 C1204 0.951 . S
H1187 C1206 0.951 . S
H1188 C1208 0.950 . S
H1189 C1209 0.950 . S
H1190 C1211 0.950 . S
H1191 C1214 0.950 . S
H1192 C1215 0.950 . S
H1193 C1217 0.950 . S
H1194 C1218 0.950 . S
H1195 C1219 0.951 . S
H1196 C1221 0.951 . S
H1197 C1223 0.950 . S
H1198 C1224 0.950 . S
H1199 C1226 0.950 . S
H1200 C1229 0.950 . S
H1201 C1230 0.950 . S
H1202 C1232 0.950 . S
H1203 C1233 0.950 . S
C1204 H1186 0.951 . S
C1204 C1205 1.366 . S
C1204 C1206 1.388 . S
C1205 C1204 1.366 . S
C1205 C1209 1.385 . S
C1206 H1187 0.951 . S
C1206 C1204 1.388 . S
C1206 C1207 1.366 . S
C1207 C1206 1.366 . S
C1207 C1208 1.414 . S
C1207 C1210 1.499 . S
C1208 H1188 0.950 . S
C1208 C1207 1.414 . S
C1208 C1209 1.374 . S
C1209 H1189 0.950 . S
C1209 C1205 1.385 . S
C1209 C1208 1.374 . S
C1210 C1207 1.499 . S
C1210 C1211 1.373 . S
C1210 C1212 1.389 . S
C1211 H1190 0.950 . S
C1211 C1210 1.373 . S
C1211 C1227 1.377 . S
C1212 C1210 1.389 . S
C1212 C1213 1.524 . S
C1212 C1226 1.377 . S
C1213 C1212 1.524 . S
C1213 C1214 1.397 . S
C1213 C1218 1.363 . S
C1214 H1191 0.950 . S
C1214 C1213 1.397 . S
C1214 C1215 1.334 . S
C1215 H1192 0.950 . S
C1215 C1214 1.334 . S
C1215 C1216 1.287 . S
C1216 C1215 1.287 . S
C1216 C1217 1.524 . S
C1216 H1235 0.913 . S
C1217 H1193 0.950 . S
C1217 C1216 1.524 . S
C1217 C1218 1.415 . S
C1218 H1194 0.950 . S
C1218 C1213 1.363 . S
C1218 C1217 1.415 . S
C1219 H1195 0.951 . S
C1219 C1220 1.366 . S
C1219 C1221 1.388 . S
C1220 C1219 1.366 . S
C1220 C1224 1.385 . S
C1221 H1196 0.951 . S
C1221 C1219 1.388 . S
C1221 C1222 1.366 . S
C1222 C1221 1.366 . S
C1222 C1223 1.414 . S
C1222 C1225 1.499 . S
C1223 H1197 0.950 . S
C1223 C1222 1.414 . S
C1223 C1224 1.374 . S
C1224 H1198 0.950 . S
C1224 C1220 1.385 . S
C1224 C1223 1.374 . S
C1225 C1222 1.499 . S
C1225 C1226 1.373 . S
C1225 C1227 1.389 . S
C1226 H1199 0.950 . S
C1226 C1212 1.377 . S
C1226 C1225 1.373 . S
C1227 C1211 1.377 . S
C1227 C1225 1.389 . S
C1227 C1228 1.524 . S
C1228 C1227 1.524 . S
C1228 C1229 1.397 . S
C1228 C1233 1.363 . S
C1229 H1200 0.950 . S
C1229 C1228 1.397 . S
C1229 C1230 1.334 . S
C1230 H1201 0.950 . S
C1230 C1229 1.334 . S
C1230 C1231 1.287 . S
C1231 C1230 1.287 . S
C1231 C1232 1.524 . S
C1231 H1234 0.999 . S
C1232 H1202 0.950 . S
C1232 C1231 1.524 . S
C1232 C1233 1.415 . S
C1233 H1203 0.950 . S
C1233 C1228 1.363 . S
C1233 C1232 1.415 . S
H1234 C1231 0.999 . S
H1235 C1216 0.913 . S
H1236 C1254 0.951 . S
H1237 C1256 0.951 . S
H1238 C1258 0.950 . S
H1239 C1259 0.950 . S
H1240 C1261 0.950 . S
H1241 C1264 0.950 . S
H1242 C1265 0.950 . S
H1243 C1267 0.950 1_455 S
H1244 C1268 0.950 . S
H1245 C1269 0.951 . S
H1246 C1271 0.951 . S
H1247 C1273 0.950 . S
H1248 C1274 0.950 . S
H1249 C1276 0.950 . S
H1250 C1279 0.950 . S
H1251 C1280 0.950 . S
H1252 C1282 0.950 1_655 S
H1253 C1283 0.950 . S
C1254 H1236 0.951 . S
C1254 C1255 1.366 . S
C1254 C1256 1.388 . S
C1255 C1254 1.366 . S
C1255 C1259 1.385 . S
C1256 H1237 0.951 . S
C1256 C1254 1.388 . S
C1256 C1257 1.366 . S
C1257 C1256 1.366 . S
C1257 C1258 1.414 . S
C1257 C1260 1.499 . S
C1258 H1238 0.950 . S
C1258 C1257 1.414 . S
C1258 C1259 1.374 . S
C1259 H1239 0.950 . S
C1259 C1255 1.385 . S
C1259 C1258 1.374 . S
C1260 C1257 1.499 . S
C1260 C1261 1.373 . S
C1260 C1262 1.389 . S
C1261 H1240 0.950 . S
C1261 C1260 1.373 . S
C1261 C1277 1.377 1_655 S
C1262 C1260 1.389 . S
C1262 C1263 1.524 . S
C1262 C1276 1.377 1_655 S
C1263 C1262 1.524 . S
C1263 C1264 1.397 . S
C1263 C1268 1.363 1_655 S
C1264 H1241 0.950 . S
C1264 C1263 1.397 . S
C1264 C1265 1.334 . S
C1265 H1242 0.950 . S
C1265 C1264 1.334 . S
C1265 C1266 1.287 . S
C1266 C1265 1.287 . S
C1266 C1267 1.524 . S
C1266 H1285 0.913 . S
C1267 H1243 0.950 1_655 S
C1267 C1266 1.524 . S
C1267 C1268 1.415 1_655 S
C1268 H1244 0.950 . S
C1268 C1263 1.363 1_455 S
C1268 C1267 1.415 1_455 S
C1269 H1245 0.951 . S
C1269 C1270 1.366 . S
C1269 C1271 1.388 . S
C1270 C1269 1.366 . S
C1270 C1274 1.385 . S
C1271 H1246 0.951 . S
C1271 C1269 1.388 . S
C1271 C1272 1.366 . S
C1272 C1271 1.366 . S
C1272 C1273 1.414 . S
C1272 C1275 1.499 . S
C1273 H1247 0.950 . S
C1273 C1272 1.414 . S
C1273 C1274 1.374 . S
C1274 H1248 0.950 . S
C1274 C1270 1.385 . S
C1274 C1273 1.374 . S
C1275 C1272 1.499 . S
C1275 C1276 1.373 . S
C1275 C1277 1.389 . S
C1276 H1249 0.950 . S
C1276 C1262 1.377 1_455 S
C1276 C1275 1.373 . S
C1277 C1261 1.377 1_455 S
C1277 C1275 1.389 . S
C1277 C1278 1.524 . S
C1278 C1277 1.524 . S
C1278 C1279 1.397 . S
C1278 C1283 1.363 1_455 S
C1279 H1250 0.950 . S
C1279 C1278 1.397 . S
C1279 C1280 1.334 . S
C1280 H1251 0.950 . S
C1280 C1279 1.334 . S
C1280 C1281 1.287 . S
C1281 C1280 1.287 . S
C1281 C1282 1.524 . S
C1281 H1284 0.999 . S
C1282 H1252 0.950 1_455 S
C1282 C1281 1.524 . S
C1282 C1283 1.415 1_455 S
C1283 H1253 0.950 . S
C1283 C1278 1.363 1_655 S
C1283 C1282 1.415 1_655 S
H1284 C1281 0.999 . S
H1285 C1266 0.913 . S
H1286 C1304 0.951 . S
H1287 C1306 0.951 . S
H1288 C1308 0.950 . S
H1289 C1309 0.950 . S
H1290 C1311 0.950 . S
H1291 C1314 0.950 . S
H1292 C1315 0.950 . S
H1293 C1317 0.950 . S
H1294 C1318 0.950 . S
H1295 C1319 0.951 . S
H1296 C1321 0.951 . S
H1297 C1323 0.950 . S
H1298 C1324 0.950 . S
H1299 C1326 0.950 . S
H1300 C1329 0.950 . S
H1301 C1330 0.950 . S
H1302 C1332 0.950 . S
H1303 C1333 0.950 . S
C1304 H1286 0.951 . S
C1304 C1305 1.366 . S
C1304 C1306 1.388 . S
C1305 C1304 1.366 . S
C1305 C1309 1.385 . S
C1306 H1287 0.951 . S
C1306 C1304 1.388 . S
C1306 C1307 1.366 . S
C1307 C1306 1.366 . S
C1307 C1308 1.414 . S
C1307 C1310 1.499 . S
C1308 H1288 0.950 . S
C1308 C1307 1.414 . S
C1308 C1309 1.374 . S
C1309 H1289 0.950 . S
C1309 C1305 1.385 . S
C1309 C1308 1.374 . S
C1310 C1307 1.499 . S
C1310 C1311 1.373 . S
C1310 C1312 1.389 . S
C1311 H1290 0.950 . S
C1311 C1310 1.373 . S
C1311 C1327 1.377 1_545 S
C1312 C1310 1.389 . S
C1312 C1313 1.524 . S
C1312 C1326 1.377 1_545 S
C1313 C1312 1.524 . S
C1313 C1314 1.397 . S
C1313 C1318 1.363 . S
C1314 H1291 0.950 . S
C1314 C1313 1.397 . S
C1314 C1315 1.334 . S
C1315 H1292 0.950 . S
C1315 C1314 1.334 . S
C1315 C1316 1.287 . S
C1316 C1315 1.287 . S
C1316 C1317 1.524 . S
C1316 H1335 0.913 . S
C1317 H1293 0.950 . S
C1317 C1316 1.524 . S
C1317 C1318 1.415 . S
C1318 H1294 0.950 . S
C1318 C1313 1.363 . S
C1318 C1317 1.415 . S
C1319 H1295 0.951 . S
C1319 C1320 1.366 . S
C1319 C1321 1.388 . S
C1320 C1319 1.366 . S
C1320 C1324 1.385 . S
C1321 H1296 0.951 . S
C1321 C1319 1.388 . S
C1321 C1322 1.366 . S
C1322 C1321 1.366 . S
C1322 C1323 1.414 . S
C1322 C1325 1.499 . S
C1323 H1297 0.950 . S
C1323 C1322 1.414 . S
C1323 C1324 1.374 . S
C1324 H1298 0.950 . S
C1324 C1320 1.385 . S
C1324 C1323 1.374 . S
C1325 C1322 1.499 . S
C1325 C1326 1.373 . S
C1325 C1327 1.389 . S
C1326 H1299 0.950 . S
C1326 C1312 1.377 1_565 S
C1326 C1325 1.373 . S
C1327 C1311 1.377 1_565 S
C1327 C1325 1.389 . S
C1327 C1328 1.524 . S
C1328 C1327 1.524 . S
C1328 C1329 1.397 . S
C1328 C1333 1.363 . S
C1329 H1300 0.950 . S
C1329 C1328 1.397 . S
C1329 C1330 1.334 . S
C1330 H1301 0.950 . S
C1330 C1329 1.334 . S
C1330 C1331 1.287 . S
C1331 C1330 1.287 . S
C1331 C1332 1.524 . S
C1331 H1334 0.999 . S
C1332 H1302 0.950 . S
C1332 C1331 1.524 . S
C1332 C1333 1.415 . S
C1333 H1303 0.950 . S
C1333 C1328 1.363 . S
C1333 C1332 1.415 . S
H1334 C1331 0.999 . S
H1335 C1316 0.913 . S
H1336 C1354 0.951 . S
H1337 C1356 0.951 . S
H1338 C1358 0.950 . S
H1339 C1359 0.950 . S
H1340 C1361 0.950 . S
H1341 C1364 0.950 . S
H1342 C1365 0.950 . S
H1343 C1367 0.950 . S
H1344 C1368 0.950 . S
H1345 C1369 0.951 . S
H1346 C1371 0.951 . S
H1347 C1373 0.950 . S
H1348 C1374 0.950 . S
H1349 C1376 0.950 . S
H1350 C1379 0.950 . S
H1351 C1380 0.950 . S
H1352 C1382 0.950 . S
H1353 C1383 0.950 . S
C1354 H1336 0.951 . S
C1354 C1355 1.366 . S
C1354 C1356 1.388 . S
C1355 C1354 1.366 . S
C1355 C1359 1.385 . S
C1356 H1337 0.951 . S
C1356 C1354 1.388 . S
C1356 C1357 1.366 . S
C1357 C1356 1.366 . S
C1357 C1358 1.414 . S
C1357 C1360 1.499 . S
C1358 H1338 0.950 . S
C1358 C1357 1.414 . S
C1358 C1359 1.374 . S
C1359 H1339 0.950 . S
C1359 C1355 1.385 . S
C1359 C1358 1.374 . S
C1360 C1357 1.499 . S
C1360 C1361 1.373 . S
C1360 C1362 1.389 . S
C1361 H1340 0.950 . S
C1361 C1360 1.373 . S
C1361 C1377 1.377 . S
C1362 C1360 1.389 . S
C1362 C1363 1.524 . S
C1362 C1376 1.377 . S
C1363 C1362 1.524 . S
C1363 C1364 1.397 . S
C1363 C1368 1.363 . S
C1364 H1341 0.950 . S
C1364 C1363 1.397 . S
C1364 C1365 1.334 . S
C1365 H1342 0.950 . S
C1365 C1364 1.334 . S
C1365 C1366 1.287 . S
C1366 C1365 1.287 . S
C1366 C1367 1.524 . S
C1366 H1385 0.913 . S
C1367 H1343 0.950 . S
C1367 C1366 1.524 . S
C1367 C1368 1.415 . S
C1368 H1344 0.950 . S
C1368 C1363 1.363 . S
C1368 C1367 1.415 . S
C1369 H1345 0.951 . S
C1369 C1370 1.366 . S
C1369 C1371 1.388 . S
C1370 C1369 1.366 . S
C1370 C1374 1.385 . S
C1371 H1346 0.951 . S
C1371 C1369 1.388 . S
C1371 C1372 1.366 . S
C1372 C1371 1.366 . S
C1372 C1373 1.414 . S
C1372 C1375 1.499 . S
C1373 H1347 0.950 . S
C1373 C1372 1.414 . S
C1373 C1374 1.374 . S
C1374 H1348 0.950 . S
C1374 C1370 1.385 . S
C1374 C1373 1.374 . S
C1375 C1372 1.499 . S
C1375 C1376 1.373 . S
C1375 C1377 1.389 . S
C1376 H1349 0.950 . S
C1376 C1362 1.377 . S
C1376 C1375 1.373 . S
C1377 C1361 1.377 . S
C1377 C1375 1.389 . S
C1377 C1378 1.524 . S
C1378 C1377 1.524 . S
C1378 C1379 1.397 . S
C1378 C1383 1.363 . S
C1379 H1350 0.950 . S
C1379 C1378 1.397 . S
C1379 C1380 1.334 . S
C1380 H1351 0.950 . S
C1380 C1379 1.334 . S
C1380 C1381 1.287 . S
C1381 C1380 1.287 . S
C1381 C1382 1.524 . S
C1381 H1384 0.999 . S
C1382 H1352 0.950 . S
C1382 C1381 1.524 . S
C1382 C1383 1.415 . S
C1383 H1353 0.950 . S
C1383 C1378 1.363 . S
C1383 C1382 1.415 . S
H1384 C1381 0.999 . S
H1385 C1366 0.913 . S
H1386 C1404 0.951 . S
H1387 C1406 0.951 . S
H1388 C1408 0.950 . S
H1389 C1409 0.950 . S
H1390 C1411 0.950 . S
H1391 C1414 0.950 . S
H1392 C1415 0.950 . S
H1393 C1417 0.950 . S
H1394 C1418 0.950 . S
H1395 C1419 0.951 . S
H1396 C1421 0.951 . S
H1397 C1423 0.950 . S
H1398 C1424 0.950 . S
H1399 C1426 0.950 . S
H1400 C1429 0.950 . S
H1401 C1430 0.950 . S
H1402 C1432 0.950 . S
H1403 C1433 0.950 . S
C1404 H1386 0.951 . S
C1404 C1405 1.366 . S
C1404 C1406 1.388 . S
C1405 C1404 1.366 . S
C1405 C1409 1.385 . S
C1406 H1387 0.951 . S
C1406 C1404 1.388 . S
C1406 C1407 1.366 . S
C1407 C1406 1.366 . S
C1407 C1408 1.414 . S
C1407 C1410 1.499 . S
C1408 H1388 0.950 . S
C1408 C1407 1.414 . S
C1408 C1409 1.374 . S
C1409 H1389 0.950 . S
C1409 C1405 1.385 . S
C1409 C1408 1.374 . S
C1410 C1407 1.499 . S
C1410 C1411 1.373 . S
C1410 C1412 1.389 . S
C1411 H1390 0.950 . S
C1411 C1410 1.373 . S
C1411 C1427 1.377 1_545 S
C1412 C1410 1.389 . S
C1412 C1413 1.524 . S
C1412 C1426 1.377 1_545 S
C1413 C1412 1.524 . S
C1413 C1414 1.397 . S
C1413 C1418 1.363 . S
C1414 H1391 0.950 . S
C1414 C1413 1.397 . S
C1414 C1415 1.334 . S
C1415 H1392 0.950 . S
C1415 C1414 1.334 . S
C1415 C1416 1.287 . S
C1416 C1415 1.287 . S
C1416 C1417 1.524 . S
C1416 H1435 0.913 . S
C1417 H1393 0.950 . S
C1417 C1416 1.524 . S
C1417 C1418 1.415 . S
C1418 H1394 0.950 . S
C1418 C1413 1.363 . S
C1418 C1417 1.415 . S
C1419 H1395 0.951 . S
C1419 C1420 1.366 . S
C1419 C1421 1.388 . S
C1420 C1419 1.366 . S
C1420 C1424 1.385 . S
C1421 H1396 0.951 . S
C1421 C1419 1.388 . S
C1421 C1422 1.366 . S
C1422 C1421 1.366 . S
C1422 C1423 1.414 . S
C1422 C1425 1.499 . S
C1423 H1397 0.950 . S
C1423 C1422 1.414 . S
C1423 C1424 1.374 . S
C1424 H1398 0.950 . S
C1424 C1420 1.385 . S
C1424 C1423 1.374 . S
C1425 C1422 1.499 . S
C1425 C1426 1.373 . S
C1425 C1427 1.389 . S
C1426 H1399 0.950 . S
C1426 C1412 1.377 1_565 S
C1426 C1425 1.373 . S
C1427 C1411 1.377 1_565 S
C1427 C1425 1.389 . S
C1427 C1428 1.524 . S
C1428 C1427 1.524 . S
C1428 C1429 1.397 . S
C1428 C1433 1.363 . S
C1429 H1400 0.950 . S
C1429 C1428 1.397 . S
C1429 C1430 1.334 . S
C1430 H1401 0.950 . S
C1430 C1429 1.334 . S
C1430 C1431 1.287 . S
C1431 C1430 1.287 . S
C1431 C1432 1.524 . S
C1431 H1434 0.999 . S
C1432 H1402 0.950 . S
C1432 C1431 1.524 . S
C1432 C1433 1.415 . S
C1433 H1403 0.950 . S
C1433 C1428 1.363 . S
C1433 C1432 1.415 . S
H1434 C1431 0.999 . S
H1435 C1416 0.913 . S
H1436 C1454 0.951 . S
H1437 C1456 0.951 . S
H1438 C1458 0.950 . S
H1439 C1459 0.950 . S
H1440 C1461 0.950 . S
H1441 C1464 0.950 . S
H1442 C1465 0.950 . S
H1443 C1467 0.950 . S
H1444 C1468 0.950 . S
H1445 C1469 0.951 . S
H1446 C1471 0.951 . S
H1447 C1473 0.950 . S
H1448 C1474 0.950 . S
H1449 C1476 0.950 . S
H1450 C1479 0.950 . S
H1451 C1480 0.950 . S
H1452 C1482 0.950 . S
H1453 C1483 0.950 . S
C1454 H1436 0.951 . S
C1454 C1455 1.366 . S
C1454 C1456 1.388 . S
C1455 C1454 1.366 . S
C1455 C1459 1.385 . S
C1456 H1437 0.951 . S
C1456 C1454 1.388 . S
C1456 C1457 1.366 . S
C1457 C1456 1.366 . S
C1457 C1458 1.414 . S
C1457 C1460 1.499 . S
C1458 H1438 0.950 . S
C1458 C1457 1.414 . S
C1458 C1459 1.374 . S
C1459 H1439 0.950 . S
C1459 C1455 1.385 . S
C1459 C1458 1.374 . S
C1460 C1457 1.499 . S
C1460 C1461 1.373 . S
C1460 C1462 1.389 . S
C1461 H1440 0.950 . S
C1461 C1460 1.373 . S
C1461 C1477 1.377 . S
C1462 C1460 1.389 . S
C1462 C1463 1.524 . S
C1462 C1476 1.377 . S
C1463 C1462 1.524 . S
C1463 C1464 1.397 . S
C1463 C1468 1.363 . S
C1464 H1441 0.950 . S
C1464 C1463 1.397 . S
C1464 C1465 1.334 . S
C1465 H1442 0.950 . S
C1465 C1464 1.334 . S
C1465 C1466 1.287 . S
C1466 C1465 1.287 . S
C1466 C1467 1.524 . S
C1466 H1485 0.913 . S
C1467 H1443 0.950 . S
C1467 C1466 1.524 . S
C1467 C1468 1.415 . S
C1468 H1444 0.950 . S
C1468 C1463 1.363 . S
C1468 C1467 1.415 . S
C1469 H1445 0.951 . S
C1469 C1470 1.366 . S
C1469 C1471 1.388 . S
C1470 C1469 1.366 . S
C1470 C1474 1.385 . S
C1471 H1446 0.951 . S
C1471 C1469 1.388 . S
C1471 C1472 1.366 . S
C1472 C1471 1.366 . S
C1472 C1473 1.414 . S
C1472 C1475 1.499 . S
C1473 H1447 0.950 . S
C1473 C1472 1.414 . S
C1473 C1474 1.374 . S
C1474 H1448 0.950 . S
C1474 C1470 1.385 . S
C1474 C1473 1.374 . S
C1475 C1472 1.499 . S
C1475 C1476 1.373 . S
C1475 C1477 1.389 . S
C1476 H1449 0.950 . S
C1476 C1462 1.377 . S
C1476 C1475 1.373 . S
C1477 C1461 1.377 . S
C1477 C1475 1.389 . S
C1477 C1478 1.524 . S
C1478 C1477 1.524 . S
C1478 C1479 1.397 . S
C1478 C1483 1.363 . S
C1479 H1450 0.950 . S
C1479 C1478 1.397 . S
C1479 C1480 1.334 . S
C1480 H1451 0.950 . S
C1480 C1479 1.334 . S
C1480 C1481 1.287 . S
C1481 C1480 1.287 . S
C1481 C1482 1.524 . S
C1481 H1484 0.999 . S
C1482 H1452 0.950 . S
C1482 C1481 1.524 . S
C1482 C1483 1.415 . S
C1483 H1453 0.950 . S
C1483 C1478 1.363 . S
C1483 C1482 1.415 . S
H1484 C1481 0.999 . S
H1485 C1466 0.913 . S
H1486 C1504 0.951 . S
H1487 C1506 0.951 . S
H1488 C1508 0.950 . S
H1489 C1509 0.950 . S
H1490 C1511 0.950 . S
H1491 C1514 0.950 . S
H1492 C1515 0.950 . S
H1493 C1517 0.950 . S
H1494 C1518 0.950 . S
H1495 C1519 0.951 . S
H1496 C1521 0.951 . S
H1497 C1523 0.950 . S
H1498 C1524 0.950 . S
H1499 C1526 0.950 . S
H1500 C1529 0.950 . S
H1501 C1530 0.950 . S
H1502 C1532 0.950 . S
H1503 C1533 0.950 . S
C1504 H1486 0.951 . S
C1504 C1505 1.366 . S
C1504 C1506 1.388 . S
C1505 C1504 1.366 . S
C1505 C1509 1.385 . S
C1506 H1487 0.951 . S
C1506 C1504 1.388 . S
C1506 C1507 1.366 . S
C1507 C1506 1.366 . S
C1507 C1508 1.414 . S
C1507 C1510 1.499 . S
C1508 H1488 0.950 . S
C1508 C1507 1.414 . S
C1508 C1509 1.374 . S
C1509 H1489 0.950 . S
C1509 C1505 1.385 . S
C1509 C1508 1.374 . S
C1510 C1507 1.499 . S
C1510 C1511 1.373 . S
C1510 C1512 1.389 . S
C1511 H1490 0.950 . S
C1511 C1510 1.373 . S
C1511 C1527 1.377 1_455 S
C1512 C1510 1.389 . S
C1512 C1513 1.524 . S
C1512 C1526 1.377 1_455 S
C1513 C1512 1.524 . S
C1513 C1514 1.397 . S
C1513 C1518 1.363 . S
C1514 H1491 0.950 . S
C1514 C1513 1.397 . S
C1514 C1515 1.334 . S
C1515 H1492 0.950 . S
C1515 C1514 1.334 . S
C1515 C1516 1.287 . S
C1516 C1515 1.287 . S
C1516 C1517 1.524 . S
C1516 H1535 0.913 . S
C1517 H1493 0.950 . S
C1517 C1516 1.524 . S
C1517 C1518 1.415 . S
C1518 H1494 0.950 . S
C1518 C1513 1.363 . S
C1518 C1517 1.415 . S
C1519 H1495 0.951 . S
C1519 C1520 1.366 . S
C1519 C1521 1.388 . S
C1520 C1519 1.366 . S
C1520 C1524 1.385 . S
C1521 H1496 0.951 . S
C1521 C1519 1.388 . S
C1521 C1522 1.366 . S
C1522 C1521 1.366 . S
C1522 C1523 1.414 . S
C1522 C1525 1.499 . S
C1523 H1497 0.950 . S
C1523 C1522 1.414 . S
C1523 C1524 1.374 . S
C1524 H1498 0.950 . S
C1524 C1520 1.385 . S
C1524 C1523 1.374 . S
C1525 C1522 1.499 . S
C1525 C1526 1.373 . S
C1525 C1527 1.389 . S
C1526 H1499 0.950 . S
C1526 C1512 1.377 1_655 S
C1526 C1525 1.373 . S
C1527 C1511 1.377 1_655 S
C1527 C1525 1.389 . S
C1527 C1528 1.524 . S
C1528 C1527 1.524 . S
C1528 C1529 1.397 . S
C1528 C1533 1.363 . S
C1529 H1500 0.950 . S
C1529 C1528 1.397 . S
C1529 C1530 1.334 . S
C1530 H1501 0.950 . S
C1530 C1529 1.334 . S
C1530 C1531 1.287 . S
C1531 C1530 1.287 . S
C1531 C1532 1.524 . S
C1531 H1534 0.999 . S
C1532 H1502 0.950 . S
C1532 C1531 1.524 . S
C1532 C1533 1.415 . S
C1533 H1503 0.950 . S
C1533 C1528 1.363 . S
C1533 C1532 1.415 . S
H1534 C1531 0.999 . S
H1535 C1516 0.913 . S
H1536 C1554 0.951 . S
H1537 C1556 0.951 . S
H1538 C1558 0.950 . S
H1539 C1559 0.950 . S
H1540 C1561 0.950 . S
H1541 C1564 0.950 . S
H1542 C1565 0.950 . S
H1543 C1567 0.950 . S
H1544 C1568 0.950 . S
H1545 C1569 0.951 . S
H1546 C1571 0.951 . S
H1547 C1573 0.950 . S
H1548 C1574 0.950 . S
H1549 C1576 0.950 . S
H1550 C1579 0.950 . S
H1551 C1580 0.950 . S
H1552 C1582 0.950 . S
H1553 C1583 0.950 . S
C1554 H1536 0.951 . S
C1554 C1555 1.366 . S
C1554 C1556 1.388 . S
C1555 C1554 1.366 . S
C1555 C1559 1.385 . S
C1556 H1537 0.951 . S
C1556 C1554 1.388 . S
C1556 C1557 1.366 . S
C1557 C1556 1.366 . S
C1557 C1558 1.414 . S
C1557 C1560 1.499 . S
C1558 H1538 0.950 . S
C1558 C1557 1.414 . S
C1558 C1559 1.374 . S
C1559 H1539 0.950 . S
C1559 C1555 1.385 . S
C1559 C1558 1.374 . S
C1560 C1557 1.499 . S
C1560 C1561 1.373 . S
C1560 C1562 1.389 . S
C1561 H1540 0.950 . S
C1561 C1560 1.373 . S
C1561 C1577 1.377 . S
C1562 C1560 1.389 . S
C1562 C1563 1.524 . S
C1562 C1576 1.377 . S
C1563 C1562 1.524 . S
C1563 C1564 1.397 . S
C1563 C1568 1.363 . S
C1564 H1541 0.950 . S
C1564 C1563 1.397 . S
C1564 C1565 1.334 . S
C1565 H1542 0.950 . S
C1565 C1564 1.334 . S
C1565 C1566 1.287 . S
C1566 C1565 1.287 . S
C1566 C1567 1.524 . S
C1566 H1585 0.913 . S
C1567 H1543 0.950 . S
C1567 C1566 1.524 . S
C1567 C1568 1.415 . S
C1568 H1544 0.950 . S
C1568 C1563 1.363 . S
C1568 C1567 1.415 . S
C1569 H1545 0.951 . S
C1569 C1570 1.366 . S
C1569 C1571 1.388 . S
C1570 C1569 1.366 . S
C1570 C1574 1.385 . S
C1571 H1546 0.951 . S
C1571 C1569 1.388 . S
C1571 C1572 1.366 . S
C1572 C1571 1.366 . S
C1572 C1573 1.414 . S
C1572 C1575 1.499 . S
C1573 H1547 0.950 . S
C1573 C1572 1.414 . S
C1573 C1574 1.374 . S
C1574 H1548 0.950 . S
C1574 C1570 1.385 . S
C1574 C1573 1.374 . S
C1575 C1572 1.499 . S
C1575 C1576 1.373 . S
C1575 C1577 1.389 . S
C1576 H1549 0.950 . S
C1576 C1562 1.377 . S
C1576 C1575 1.373 . S
C1577 C1561 1.377 . S
C1577 C1575 1.389 . S
C1577 C1578 1.524 . S
C1578 C1577 1.524 . S
C1578 C1579 1.397 . S
C1578 C1583 1.363 . S
C1579 H1550 0.950 . S
C1579 C1578 1.397 . S
C1579 C1580 1.334 . S
C1580 H1551 0.950 . S
C1580 C1579 1.334 . S
C1580 C1581 1.287 . S
C1581 C1580 1.287 . S
C1581 C1582 1.524 . S
C1581 H1584 0.999 . S
C1582 H1552 0.950 . S
C1582 C1581 1.524 . S
C1582 C1583 1.415 . S
C1583 H1553 0.950 . S
C1583 C1578 1.363 . S
C1583 C1582 1.415 . S
H1584 C1581 0.999 . S
H1585 C1566 0.913 . S
H1586 C1604 0.951 . S
H1587 C1606 0.951 . S
H1588 C1608 0.950 . S
H1589 C1609 0.950 . S
H1590 C1611 0.950 . S
H1591 C1614 0.950 . S
H1592 C1615 0.950 . S
H1593 C1617 0.950 . S
H1594 C1618 0.950 . S
H1595 C1619 0.951 . S
H1596 C1621 0.951 . S
H1597 C1623 0.950 . S
H1598 C1624 0.950 . S
H1599 C1626 0.950 . S
H1600 C1629 0.950 . S
H1601 C1630 0.950 . S
H1602 C1632 0.950 . S
H1603 C1633 0.950 . S
C1604 H1586 0.951 . S
C1604 C1605 1.366 . S
C1604 C1606 1.388 . S
C1605 C1604 1.366 . S
C1605 C1609 1.385 . S
C1606 H1587 0.951 . S
C1606 C1604 1.388 . S
C1606 C1607 1.366 . S
C1607 C1606 1.366 . S
C1607 C1608 1.414 . S
C1607 C1610 1.499 . S
C1608 H1588 0.950 . S
C1608 C1607 1.414 . S
C1608 C1609 1.374 . S
C1609 H1589 0.950 . S
C1609 C1605 1.385 . S
C1609 C1608 1.374 . S
C1610 C1607 1.499 . S
C1610 C1611 1.373 . S
C1610 C1612 1.389 . S
C1611 H1590 0.950 . S
C1611 C1610 1.373 . S
C1611 C1627 1.377 1_655 S
C1612 C1610 1.389 . S
C1612 C1613 1.524 . S
C1612 C1626 1.377 1_655 S
C1613 C1612 1.524 . S
C1613 C1614 1.397 . S
C1613 C1618 1.363 . S
C1614 H1591 0.950 . S
C1614 C1613 1.397 . S
C1614 C1615 1.334 . S
C1615 H1592 0.950 . S
C1615 C1614 1.334 . S
C1615 C1616 1.287 . S
C1616 C1615 1.287 . S
C1616 C1617 1.524 . S
C1616 H1635 0.913 . S
C1617 H1593 0.950 . S
C1617 C1616 1.524 . S
C1617 C1618 1.415 . S
C1618 H1594 0.950 . S
C1618 C1613 1.363 . S
C1618 C1617 1.415 . S
C1619 H1595 0.951 . S
C1619 C1620 1.366 . S
C1619 C1621 1.388 . S
C1620 C1619 1.366 . S
C1620 C1624 1.385 . S
C1621 H1596 0.951 . S
C1621 C1619 1.388 . S
C1621 C1622 1.366 . S
C1622 C1621 1.366 . S
C1622 C1623 1.414 . S
C1622 C1625 1.499 . S
C1623 H1597 0.950 . S
C1623 C1622 1.414 . S
C1623 C1624 1.374 . S
C1624 H1598 0.950 . S
C1624 C1620 1.385 . S
C1624 C1623 1.374 . S
C1625 C1622 1.499 . S
C1625 C1626 1.373 . S
C1625 C1627 1.389 . S
C1626 H1599 0.950 . S
C1626 C1612 1.377 1_455 S
C1626 C1625 1.373 . S
C1627 C1611 1.377 1_455 S
C1627 C1625 1.389 . S
C1627 C1628 1.524 . S
C1628 C1627 1.524 . S
C1628 C1629 1.397 . S
C1628 C1633 1.363 . S
C1629 H1600 0.950 . S
C1629 C1628 1.397 . S
C1629 C1630 1.334 . S
C1630 H1601 0.950 . S
C1630 C1629 1.334 . S
C1630 C1631 1.287 . S
C1631 C1630 1.287 . S
C1631 C1632 1.524 . S
C1631 H1634 0.999 . S
C1632 H1602 0.950 . S
C1632 C1631 1.524 . S
C1632 C1633 1.415 . S
C1633 H1603 0.950 . S
C1633 C1628 1.363 . S
C1633 C1632 1.415 . S
H1634 C1631 0.999 . S
H1635 C1616 0.913 . S
H1636 C1654 0.951 . S
H1637 C1656 0.951 . S
H1638 C1658 0.950 . S
H1639 C1659 0.950 . S
H1640 C1661 0.950 . S
H1641 C1664 0.950 . S
H1642 C1665 0.950 . S
H1643 C1667 0.950 . S
H1644 C1668 0.950 . S
H1645 C1669 0.951 . S
H1646 C1671 0.951 . S
H1647 C1673 0.950 . S
H1648 C1674 0.950 . S
H1649 C1676 0.950 . S
H1650 C1679 0.950 . S
H1651 C1680 0.950 . S
H1652 C1682 0.950 . S
H1653 C1683 0.950 . S
C1654 H1636 0.951 . S
C1654 C1655 1.366 . S
C1654 C1656 1.388 . S
C1655 C1654 1.366 . S
C1655 C1659 1.385 . S
C1656 H1637 0.951 . S
C1656 C1654 1.388 . S
C1656 C1657 1.366 . S
C1657 C1656 1.366 . S
C1657 C1658 1.414 . S
C1657 C1660 1.499 . S
C1658 H1638 0.950 . S
C1658 C1657 1.414 . S
C1658 C1659 1.374 . S
C1659 H1639 0.950 . S
C1659 C1655 1.385 . S
C1659 C1658 1.374 . S
C1660 C1657 1.499 . S
C1660 C1661 1.373 . S
C1660 C1662 1.389 . S
C1661 H1640 0.950 . S
C1661 C1660 1.373 . S
C1661 C1677 1.377 1_545 S
C1662 C1660 1.389 . S
C1662 C1663 1.524 . S
C1662 C1676 1.377 1_545 S
C1663 C1662 1.524 . S
C1663 C1664 1.397 . S
C1663 C1668 1.363 1_545 S
C1664 H1641 0.950 . S
C1664 C1663 1.397 . S
C1664 C1665 1.334 . S
C1665 H1642 0.950 . S
C1665 C1664 1.334 . S
C1665 C1666 1.287 . S
C1666 C1665 1.287 . S
C1666 C1667 1.524 1_545 S
C1666 H1685 0.913 . S
C1667 H1643 0.950 . S
C1667 C1666 1.524 1_565 S
C1667 C1668 1.415 . S
C1668 H1644 0.950 . S
C1668 C1663 1.363 1_565 S
C1668 C1667 1.415 . S
C1669 H1645 0.951 . S
C1669 C1670 1.366 . S
C1669 C1671 1.388 . S
C1670 C1669 1.366 . S
C1670 C1674 1.385 . S
C1671 H1646 0.951 . S
C1671 C1669 1.388 . S
C1671 C1672 1.366 . S
C1672 C1671 1.366 . S
C1672 C1673 1.414 . S
C1672 C1675 1.499 . S
C1673 H1647 0.950 . S
C1673 C1672 1.414 . S
C1673 C1674 1.374 . S
C1674 H1648 0.950 . S
C1674 C1670 1.385 . S
C1674 C1673 1.374 . S
C1675 C1672 1.499 . S
C1675 C1676 1.373 . S
C1675 C1677 1.389 . S
C1676 H1649 0.950 . S
C1676 C1662 1.377 1_565 S
C1676 C1675 1.373 . S
C1677 C1661 1.377 1_565 S
C1677 C1675 1.389 . S
C1677 C1678 1.524 . S
C1678 C1677 1.524 . S
C1678 C1679 1.397 . S
C1678 C1683 1.363 1_565 S
C1679 H1650 0.950 . S
C1679 C1678 1.397 . S
C1679 C1680 1.334 . S
C1680 H1651 0.950 . S
C1680 C1679 1.334 . S
C1680 C1681 1.287 . S
C1681 C1680 1.287 . S
C1681 C1682 1.524 1_565 S
C1681 H1684 0.999 . S
C1682 H1652 0.950 . S
C1682 C1681 1.524 1_545 S
C1682 C1683 1.415 . S
C1683 H1653 0.950 . S
C1683 C1678 1.363 1_545 S
C1683 C1682 1.415 . S
H1684 C1681 0.999 . S
H1685 C1666 0.913 . S
H1686 C1704 0.951 . S
H1687 C1706 0.951 . S
H1688 C1708 0.950 . S
H1689 C1709 0.950 . S
H1690 C1711 0.950 . S
H1691 C1714 0.950 . S
H1692 C1715 0.950 . S
H1693 C1717 0.950 . S
H1694 C1718 0.950 . S
H1695 C1719 0.951 . S
H1696 C1721 0.951 . S
H1697 C1723 0.950 . S
H1698 C1724 0.950 . S
H1699 C1726 0.950 . S
H1700 C1729 0.950 . S
H1701 C1730 0.950 . S
H1702 C1732 0.950 . S
H1703 C1733 0.950 . S
C1704 H1686 0.951 . S
C1704 C1705 1.366 . S
C1704 C1706 1.388 . S
C1705 C1704 1.366 . S
C1705 C1709 1.385 . S
C1706 H1687 0.951 . S
C1706 C1704 1.388 . S
C1706 C1707 1.366 . S
C1707 C1706 1.366 . S
C1707 C1708 1.414 . S
C1707 C1710 1.499 . S
C1708 H1688 0.950 . S
C1708 C1707 1.414 . S
C1708 C1709 1.374 . S
C1709 H1689 0.950 . S
C1709 C1705 1.385 . S
C1709 C1708 1.374 . S
C1710 C1707 1.499 . S
C1710 C1711 1.373 . S
C1710 C1712 1.389 . S
C1711 H1690 0.950 . S
C1711 C1710 1.373 . S
C1711 C1727 1.377 . S
C1712 C1710 1.389 . S
C1712 C1713 1.524 . S
C1712 C1726 1.377 . S
C1713 C1712 1.524 . S
C1713 C1714 1.397 . S
C1713 C1718 1.363 . S
C1714 H1691 0.950 . S
C1714 C1713 1.397 . S
C1714 C1715 1.334 . S
C1715 H1692 0.950 . S
C1715 C1714 1.334 . S
C1715 C1716 1.287 . S
C1716 C1715 1.287 . S
C1716 C1717 1.524 . S
C1716 H1735 0.913 . S
C1717 H1693 0.950 . S
C1717 C1716 1.524 . S
C1717 C1718 1.415 . S
C1718 H1694 0.950 . S
C1718 C1713 1.363 . S
C1718 C1717 1.415 . S
C1719 H1695 0.951 . S
C1719 C1720 1.366 . S
C1719 C1721 1.388 . S
C1720 C1719 1.366 . S
C1720 C1724 1.385 . S
C1721 H1696 0.951 . S
C1721 C1719 1.388 . S
C1721 C1722 1.366 . S
C1722 C1721 1.366 . S
C1722 C1723 1.414 . S
C1722 C1725 1.499 . S
C1723 H1697 0.950 . S
C1723 C1722 1.414 . S
C1723 C1724 1.374 . S
C1724 H1698 0.950 . S
C1724 C1720 1.385 . S
C1724 C1723 1.374 . S
C1725 C1722 1.499 . S
C1725 C1726 1.373 . S
C1725 C1727 1.389 . S
C1726 H1699 0.950 . S
C1726 C1712 1.377 . S
C1726 C1725 1.373 . S
C1727 C1711 1.377 . S
C1727 C1725 1.389 . S
C1727 C1728 1.524 . S
C1728 C1727 1.524 . S
C1728 C1729 1.397 . S
C1728 C1733 1.363 . S
C1729 H1700 0.950 . S
C1729 C1728 1.397 . S
C1729 C1730 1.334 . S
C1730 H1701 0.950 . S
C1730 C1729 1.334 . S
C1730 C1731 1.287 . S
C1731 C1730 1.287 . S
C1731 C1732 1.524 . S
C1731 H1734 0.999 . S
C1732 H1702 0.950 . S
C1732 C1731 1.524 . S
C1732 C1733 1.415 . S
C1733 H1703 0.950 . S
C1733 C1728 1.363 . S
C1733 C1732 1.415 . S
H1734 C1731 0.999 . S
H1735 C1716 0.913 . S
H1736 C1754 0.951 . S
H1737 C1756 0.951 . S
H1738 C1758 0.950 . S
H1739 C1759 0.950 . S
H1740 C1761 0.950 . S
H1741 C1764 0.950 . S
H1742 C1765 0.950 . S
H1743 C1767 0.950 . S
H1744 C1768 0.950 . S
H1745 C1769 0.951 . S
H1746 C1771 0.951 . S
H1747 C1773 0.950 . S
H1748 C1774 0.950 . S
H1749 C1776 0.950 . S
H1750 C1779 0.950 . S
H1751 C1780 0.950 . S
H1752 C1782 0.950 . S
H1753 C1783 0.950 . S
C1754 H1736 0.951 . S
C1754 C1755 1.366 . S
C1754 C1756 1.388 . S
C1755 C1754 1.366 . S
C1755 C1759 1.385 . S
C1756 H1737 0.951 . S
C1756 C1754 1.388 . S
C1756 C1757 1.366 . S
C1757 C1756 1.366 . S
C1757 C1758 1.414 . S
C1757 C1760 1.499 . S
C1758 H1738 0.950 . S
C1758 C1757 1.414 . S
C1758 C1759 1.374 . S
C1759 H1739 0.950 . S
C1759 C1755 1.385 . S
C1759 C1758 1.374 . S
C1760 C1757 1.499 . S
C1760 C1761 1.373 . S
C1760 C1762 1.389 . S
C1761 H1740 0.950 . S
C1761 C1760 1.373 . S
C1761 C1777 1.377 1_455 S
C1762 C1760 1.389 . S
C1762 C1763 1.517 . S
C1762 C1776 1.377 1_455 S
C1763 C1762 1.517 . S
C1763 C1764 1.408 . S
C1763 C1768 1.358 1_455 S
C1764 H1741 0.950 . S
C1764 C1763 1.408 . S
C1764 C1765 1.334 . S
C1765 H1742 0.950 . S
C1765 C1764 1.334 . S
C1765 C1766 1.297 . S
C1766 C1765 1.297 . S
C1766 C1767 1.500 1_455 S
C1766 H1785 0.934 . S
C1767 H1743 0.950 . S
C1767 C1766 1.500 1_655 S
C1767 C1768 1.415 . S
C1768 H1744 0.950 . S
C1768 C1763 1.358 1_655 S
C1768 C1767 1.415 . S
C1769 H1745 0.951 . S
C1769 C1770 1.366 . S
C1769 C1771 1.388 . S
C1770 C1769 1.366 . S
C1770 C1774 1.385 . S
C1771 H1746 0.951 . S
C1771 C1769 1.388 . S
C1771 C1772 1.366 . S
C1772 C1771 1.366 . S
C1772 C1773 1.414 . S
C1772 C1775 1.499 . S
C1773 H1747 0.950 . S
C1773 C1772 1.414 . S
C1773 C1774 1.374 . S
C1774 H1748 0.950 . S
C1774 C1770 1.385 . S
C1774 C1773 1.374 . S
C1775 C1772 1.499 . S
C1775 C1776 1.373 . S
C1775 C1777 1.389 . S
C1776 H1749 0.950 . S
C1776 C1762 1.377 1_655 S
C1776 C1775 1.373 . S
C1777 C1761 1.377 1_655 S
C1777 C1775 1.389 . S
C1777 C1778 1.517 . S
C1778 C1777 1.517 . S
C1778 C1779 1.407 . S
C1778 C1783 1.359 1_655 S
C1779 H1750 0.950 . S
C1779 C1778 1.407 . S
C1779 C1780 1.334 . S
C1780 H1751 0.950 . S
C1780 C1779 1.334 . S
C1780 C1781 1.297 . S
C1781 C1780 1.297 . S
C1781 C1782 1.501 1_655 S
C1781 H1784 1.010 . S
C1782 H1752 0.950 . S
C1782 C1781 1.501 1_455 S
C1782 C1783 1.415 . S
C1783 H1753 0.950 . S
C1783 C1778 1.359 1_455 S
C1783 C1782 1.415 . S
H1784 C1781 1.010 . S
H1785 C1766 0.934 . S
H1786 C1804 0.951 . S
H1787 C1806 0.951 . S
H1788 C1808 0.950 . S
H1789 C1809 0.950 . S
H1790 C1811 0.950 . S
H1791 C1814 0.950 . S
H1792 C1815 0.950 . S
H1793 C1817 0.950 . S
H1794 C1818 0.950 . S
H1795 C1819 0.951 . S
H1796 C1821 0.951 . S
H1797 C1823 0.950 . S
H1798 C1824 0.950 . S
H1799 C1826 0.950 . S
H1800 C1829 0.950 . S
H1801 C1830 0.950 . S
H1802 C1832 0.950 . S
H1803 C1833 0.950 . S
C1804 H1786 0.951 . S
C1804 C1805 1.366 . S
C1804 C1806 1.388 . S
C1805 C1804 1.366 . S
C1805 C1809 1.385 . S
C1806 H1787 0.951 . S
C1806 C1804 1.388 . S
C1806 C1807 1.366 . S
C1807 C1806 1.366 . S
C1807 C1808 1.414 . S
C1807 C1810 1.499 . S
C1808 H1788 0.950 . S
C1808 C1807 1.414 . S
C1808 C1809 1.374 . S
C1809 H1789 0.950 . S
C1809 C1805 1.385 . S
C1809 C1808 1.374 . S
C1810 C1807 1.499 . S
C1810 C1811 1.373 . S
C1810 C1812 1.389 . S
C1811 H1790 0.950 . S
C1811 C1810 1.373 . S
C1811 C1827 1.377 1_565 S
C1812 C1810 1.389 . S
C1812 C1813 1.524 . S
C1812 C1826 1.377 1_565 S
C1813 C1812 1.524 . S
C1813 C1814 1.397 . S
C1813 C1818 1.363 . S
C1814 H1791 0.950 . S
C1814 C1813 1.397 . S
C1814 C1815 1.334 . S
C1815 H1792 0.950 . S
C1815 C1814 1.334 . S
C1815 C1816 1.287 . S
C1816 C1815 1.287 . S
C1816 C1817 1.524 . S
C1816 H1835 0.913 . S
C1817 H1793 0.950 . S
C1817 C1816 1.524 . S
C1817 C1818 1.415 . S
C1818 H1794 0.950 . S
C1818 C1813 1.363 . S
C1818 C1817 1.415 . S
C1819 H1795 0.951 . S
C1819 C1820 1.366 . S
C1819 C1821 1.388 . S
C1820 C1819 1.366 . S
C1820 C1824 1.385 . S
C1821 H1796 0.951 . S
C1821 C1819 1.388 . S
C1821 C1822 1.366 . S
C1822 C1821 1.366 . S
C1822 C1823 1.414 . S
C1822 C1825 1.499 . S
C1823 H1797 0.950 . S
C1823 C1822 1.414 . S
C1823 C1824 1.374 . S
C1824 H1798 0.950 . S
C1824 C1820 1.385 . S
C1824 C1823 1.374 . S
C1825 C1822 1.499 . S
C1825 C1826 1.373 . S
C1825 C1827 1.389 . S
C1826 H1799 0.950 . S
C1826 C1812 1.377 1_545 S
C1826 C1825 1.373 . S
C1827 C1811 1.377 1_545 S
C1827 C1825 1.389 . S
C1827 C1828 1.524 . S
C1828 C1827 1.524 . S
C1828 C1829 1.397 . S
C1828 C1833 1.363 . S
C1829 H1800 0.950 . S
C1829 C1828 1.397 . S
C1829 C1830 1.334 . S
C1830 H1801 0.950 . S
C1830 C1829 1.334 . S
C1830 C1831 1.287 . S
C1831 C1830 1.287 . S
C1831 C1832 1.524 . S
C1831 H1834 0.999 . S
C1832 H1802 0.950 . S
C1832 C1831 1.524 . S
C1832 C1833 1.415 . S
C1833 H1803 0.950 . S
C1833 C1828 1.363 . S
C1833 C1832 1.415 . S
H1834 C1831 0.999 . S
H1835 C1816 0.913 . S
C655 C569 1.887 . S
C670 C39 1.887 . S
C705 C92 1.887 . S
C720 C622 1.887 . S
C755 C145 1.887 . S
C770 C357 1.887 . S
C805 C198 1.886 . S
C820 C410 1.887 . S
C855 C463 1.887 . S
C870 C251 1.887 . S
C905 C304 1.887 . S
C920 C516 1.887 . S
C955 C462 1.946 . S
C970 C38 1.946 . S
C1005 C91 1.946 . S
C1020 C515 1.946 . S
C1055 C144 1.947 . S
C1070 C568 1.947 . S
C1105 C197 1.946 . S
C1120 C621 1.946 . S
C1155 C356 1.946 . S
C1170 C250 1.946 . S
C1205 C409 1.947 . S
C1220 C303 1.946 . S
C1255 C188 0.871 . S
C1270 C29 0.871 . S
C1305 C82 0.870 . S
C1320 C241 0.871 . S
C1355 C294 0.871 . S
C1370 C135 0.871 . S
C1405 C506 0.871 . S
C1420 C347 0.871 . S
C1455 C559 0.871 . S
C1470 C400 0.871 . S
C1505 C453 0.870 . S
C1520 C612 0.871 . S
C1555 C181 2.147 . S
C1570 C22 2.147 . S
C1605 C75 2.147 . S
C1620 C234 2.147 . S
C1655 C287 2.147 . S
C1670 C128 2.147 . S
C1705 C340 2.147 . S
C1720 C499 2.147 . S
C1755 C552 2.147 . S
C1770 C393 2.147 . S
C1805 C446 2.147 . S
C1820 C605 2.147 . S
