# Generated by pormake.
# Topology sow, (4)-cn, num edge types: 1
# Building blocks:
#     Node 0, Type 0, BuildingBlock: QUQFOY_clean_sbu_1, # of connection points: 4
#     Node 1, Type 0, BuildingBlock: QUQFOY_clean_sbu_1, # of connection points: 4
#     Node 2, Type 0, BuildingBlock: QUQFOY_clean_sbu_1, # of connection points: 4
#     Node 3, Type 0, BuildingBlock: QUQFOY_clean_sbu_1, # of connection points: 4
#     Node 4, Type 0, BuildingBlock: QUQFOY_clean_sbu_1, # of connection points: 4
#     Node 5, Type 0, BuildingBlock: QUQFOY_clean_sbu_1, # of connection points: 4
#     Node 6, Type 0, BuildingBlock: QUQFOY_clean_sbu_1, # of connection points: 4
#     Node 7, Type 0, BuildingBlock: QUQFOY_clean_sbu_1, # of connection points: 4
#     Edge 8, Type (0, 0), BuildingBlock: XUDNAN_clean_linker_2, # of connection points: 2
#     Edge 9, Type (0, 0), BuildingBlock: XUDNAN_clean_linker_2, # of connection points: 2
#     Edge 10, Type (0, 0), BuildingBlock: XUDNAN_clean_linker_2, # of connection points: 2
#     Edge 11, Type (0, 0), BuildingBlock: XUDNAN_clean_linker_2, # of connection points: 2
#     Edge 12, Type (0, 0), BuildingBlock: XUDNAN_clean_linker_2, # of connection points: 2
#     Edge 13, Type (0, 0), BuildingBlock: XUDNAN_clean_linker_2, # of connection points: 2
#     Edge 14, Type (0, 0), BuildingBlock: XUDNAN_clean_linker_2, # of connection points: 2
#     Edge 15, Type (0, 0), BuildingBlock: XUDNAN_clean_linker_2, # of connection points: 2
#     Edge 16, Type (0, 0), BuildingBlock: XUDNAN_clean_linker_2, # of connection points: 2
#     Edge 17, Type (0, 0), BuildingBlock: XUDNAN_clean_linker_2, # of connection points: 2
#     Edge 18, Type (0, 0), BuildingBlock: XUDNAN_clean_linker_2, # of connection points: 2
#     Edge 19, Type (0, 0), BuildingBlock: XUDNAN_clean_linker_2, # of connection points: 2
#     Edge 20, Type (0, 0), BuildingBlock: XUDNAN_clean_linker_2, # of connection points: 2
#     Edge 21, Type (0, 0), BuildingBlock: XUDNAN_clean_linker_2, # of connection points: 2
#     Edge 22, Type (0, 0), BuildingBlock: XUDNAN_clean_linker_2, # of connection points: 2
#     Edge 23, Type (0, 0), BuildingBlock: XUDNAN_clean_linker_2, # of connection points: 2
# Relax obj value: 0.073
# Max RMSD: 0.122
# Mean RMSD: 0.122
data_MOF--net-sow--node1-QUQFOY_clean_sbu_1--edge1-XUDNAN_clean_linker_2
_symmetry_space_group_name_H-M    P1
_symmetry_Int_Tables_number       1
_symmetry_cell_setting            triclinic
loop_
_symmetry_equiv_pos_as_xyz
'x, y, z'
_cell_length_a     35.511077
_cell_length_b     36.138797
_cell_length_c     23.565163
_cell_angle_alpha  90.082046
_cell_angle_beta   90.354835
_cell_angle_gamma 90.203908
loop_
_atom_site_label
_atom_site_type_symbol
_atom_site_fract_x
_atom_site_fract_y
_atom_site_fract_z
_atom_type_partial_charge
O0 O 0.18357 0.2333 0.0737 0.0
Cd1 Cd 0.1392 0.25036 0.02287 0.0
Cd2 Cd 0.11507 0.17977 0.05985 0.0
O3 O 0.17051 0.174 0.08624 0.0
O4 O 0.15925 0.29538 0.98376 0.0
O5 O 0.14187 0.24507 0.93727 0.0
C6 C 0.15577 0.27814 0.93617 0.0
C7 C 0.07654 0.13137 0.02458 0.0
C8 C 0.19216 0.2018 0.09408 0.0
C9 C 0.07947 0.25015 0.10764 0.0
O10 O 0.08632 0.21574 0.11062 0.0
O11 O 0.09391 0.26988 0.06879 0.0
O12 O 0.08863 0.13151 0.07622 0.0
O13 O 0.08838 0.15744 0.99166 0.0
O14 O 0.30847 0.3027 0.57585 0.0
Cd15 Cd 0.35119 0.28631 0.5226 0.0
Cd16 Cd 0.37658 0.36097 0.55297 0.0
O17 O 0.32425 0.36111 0.59264 0.0
O18 O 0.33201 0.24104 0.48272 0.0
O19 O 0.34641 0.29265 0.43755 0.0
C20 C 0.33405 0.25898 0.4356 0.0
C21 C 0.40575 0.41506 0.5174 0.0
C22 C 0.30209 0.33363 0.59979 0.0
C23 C 0.42176 0.29209 0.58972 0.0
O24 O 0.41593 0.32675 0.58901 0.0
O25 O 0.39976 0.26987 0.56392 0.0
O26 O 0.40003 0.41058 0.57082 0.0
O27 O 0.39239 0.39008 0.48348 0.0
O28 O 0.694 0.32143 0.95097 0.0
Cd29 Cd 0.64725 0.30546 0.99656 0.0
Cd30 Cd 0.6263 0.37588 0.96294 0.0
O31 O 0.6819 0.38072 0.93789 0.0
O32 O 0.66509 0.26508 0.04794 0.0
O33 O 0.64206 0.31812 0.07923 0.0
C34 C 0.657 0.28631 0.09017 0.0
C35 C 0.59139 0.42559 1.00058 0.0
C36 C 0.7035 0.35295 0.93167 0.0
C37 C 0.58831 0.30745 0.91002 0.0
O38 O 0.59526 0.34198 0.91054 0.0
O39 O 0.60334 0.28616 0.94651 0.0
O40 O 0.60219 0.42533 0.94852 0.0
O41 O 0.60217 0.3985 0.03245 0.0
O42 O 0.80791 0.25829 0.45784 0.0
Cd43 Cd 0.85485 0.27255 0.50479 0.0
Cd44 Cd 0.87634 0.20025 0.46153 0.0
O45 O 0.82267 0.20265 0.42523 0.0
O46 O 0.83915 0.31755 0.54778 0.0
O47 O 0.85512 0.26536 0.58997 0.0
C48 C 0.84352 0.2991 0.59403 0.0
C49 C 0.9049 0.14616 0.4969 0.0
C50 C 0.79991 0.22981 0.42828 0.0
C51 C 0.92121 0.26958 0.42863 0.0
O52 O 0.91534 0.23493 0.42624 0.0
O53 O 0.90052 0.29054 0.4583 0.0
O54 O 0.89838 0.15039 0.44346 0.0
O55 O 0.89252 0.1714 0.53088 0.0
O56 O 0.79808 0.80929 0.9609 0.0
Cd57 Cd 0.84753 0.80103 1.00572 0.0
Cd58 Cd 0.85591 0.87703 0.96024 0.0
O59 O 0.80017 0.86848 0.93613 0.0
O60 O 0.83786 0.75381 0.04771 0.0
O61 O 0.84765 0.80702 0.09138 0.0
C62 C 0.83985 0.77215 0.09452 0.0
C63 C 0.88381 0.93656 0.97039 0.0
C64 C 0.78333 0.83724 0.93672 0.0
C65 C 0.90441 0.81185 0.91683 0.0
O66 O 0.89149 0.8445 0.91491 0.0
O67 O 0.89355 0.78935 0.95484 0.0
O68 O 0.86858 0.92568 0.92363 0.0
O69 O 0.88054 0.91495 0.01362 0.0
O70 O 0.69133 0.7321 0.45243 0.0
Cd71 Cd 0.64423 0.74517 0.49958 0.0
Cd72 Cd 0.62382 0.67395 0.45123 0.0
O73 O 0.68044 0.67352 0.42996 0.0
O74 O 0.66116 0.78509 0.55314 0.0
O75 O 0.63908 0.7311 0.58198 0.0
C76 C 0.65303 0.76321 0.59449 0.0
C77 C 0.58857 0.61783 0.45684 0.0
C78 C 0.70149 0.70217 0.42852 0.0
C79 C 0.58717 0.74722 0.41047 0.0
O80 O 0.59453 0.71297 0.40598 0.0
O81 O 0.60087 0.76637 0.45091 0.0
O82 O 0.6042 0.62872 0.41075 0.0
O83 O 0.59464 0.63759 0.50161 0.0
O84 O 0.31031 0.74693 0.08215 0.0
Cd85 Cd 0.35247 0.76389 0.02859 0.0
Cd86 Cd 0.38255 0.68868 0.06993 0.0
O87 O 0.3293 0.69072 0.10666 0.0
O88 O 0.33184 0.8088 0.99027 0.0
O89 O 0.34734 0.75823 0.94338 0.0
C90 C 0.33423 0.79153 0.94261 0.0
C91 C 0.41337 0.63037 0.06514 0.0
C92 C 0.30546 0.71699 0.10951 0.0
C93 C 0.42404 0.76333 0.09449 0.0
O94 O 0.42038 0.72836 0.09668 0.0
O95 O 0.40012 0.78336 0.06888 0.0
O96 O 0.4045 0.64558 0.11245 0.0
O97 O 0.4031 0.6472 0.0194 0.0
O98 O 0.18279 0.82179 0.58065 0.0
Cd99 Cd 0.14 0.80516 0.52702 0.0
Cd100 Cd 0.11405 0.88249 0.56498 0.0
O101 O 0.16797 0.88003 0.60014 0.0
O102 O 0.15965 0.75947 0.48982 0.0
O103 O 0.1453 0.81 0.4419 0.0
C104 C 0.15793 0.77651 0.44192 0.0
C105 C 0.08307 0.9408 0.56012 0.0
C106 C 0.18996 0.85237 0.60537 0.0
C107 C 0.07042 0.80953 0.59457 0.0
O108 O 0.07656 0.84418 0.59562 0.0
O109 O 0.09187 0.78782 0.56756 0.0
O110 O 0.09355 0.92626 0.60726 0.0
O111 O 0.09219 0.92351 0.51434 0.0
H112 H 0.2564 0.27727 0.63648 0.0
H113 H 0.28034 0.39395 0.66292 0.0
H114 H 0.23832 0.39392 0.74602 0.0
H115 H 0.15637 0.27863 0.68694 0.0
H116 H 0.16136 0.234 0.72012 0.0
H117 H 0.18781 0.24481 0.65719 0.0
H118 H 0.24967 0.22864 0.71028 0.0
H119 H 0.22358 0.21817 0.7734 0.0
H120 H 0.26094 0.25204 0.77588 0.0
H121 H 0.20184 0.37901 0.83406 0.0
H122 H 0.17226 0.35102 0.91825 0.0
H123 H 0.17176 0.24396 0.83474 0.0
C124 C 0.25192 0.30319 0.6585 0.0
C125 C 0.27161 0.33572 0.64271 0.0
C126 C 0.26543 0.36875 0.6737 0.0
C127 C 0.24157 0.36899 0.72106 0.0
C128 C 0.22381 0.33608 0.7367 0.0
C129 C 0.22835 0.30386 0.70592 0.0
C130 C 0.20908 0.2714 0.73458 0.0
C131 C 0.17673 0.25633 0.6975 0.0
C132 C 0.23752 0.24078 0.74941 0.0
C133 C 0.19422 0.29005 0.7875 0.0
C134 C 0.20262 0.32746 0.78754 0.0
C135 C 0.19448 0.34992 0.83394 0.0
C136 C 0.17778 0.33371 0.8817 0.0
C137 C 0.16938 0.29535 0.88294 0.0
C138 C 0.17714 0.27348 0.83466 0.0
H139 H 0.23741 0.2585 0.13132 0.0
H140 H 0.21616 0.14118 0.15488 0.0
H141 H 0.2576 0.14173 0.23943 0.0
H142 H 0.3371 0.25969 0.18701 0.0
H143 H 0.33006 0.304 0.22047 0.0
H144 H 0.30515 0.29267 0.15581 0.0
H145 H 0.24192 0.30681 0.2054 0.0
H146 H 0.26643 0.31761 0.27032 0.0
H147 H 0.23009 0.28264 0.2698 0.0
H148 H 0.29204 0.1573 0.32991 0.0
H149 H 0.31932 0.18577 0.41614 0.0
H150 H 0.31801 0.29313 0.33405 0.0
C151 C 0.24251 0.23254 0.15286 0.0
C152 C 0.22359 0.19969 0.13598 0.0
C153 C 0.23053 0.1666 0.16642 0.0
C154 C 0.25401 0.16668 0.21467 0.0
C155 C 0.27065 0.19997 0.2317 0.0
C156 C 0.26564 0.2322 0.20118 0.0
C157 C 0.28332 0.26508 0.23148 0.0
C158 C 0.31585 0.28131 0.19661 0.0
C159 C 0.25367 0.29475 0.24505 0.0
C160 C 0.29776 0.24662 0.28498 0.0
C161 C 0.29058 0.20898 0.28398 0.0
C162 C 0.2985 0.18659 0.33061 0.0
C163 C 0.31384 0.20308 0.37956 0.0
C164 C 0.3211 0.24165 0.38175 0.0
C165 C 0.31345 0.26349 0.33335 0.0
H166 H 0.78963 0.19702 0.3242 0.0
H167 H 0.7358 0.26927 0.44605 0.0
H168 H 0.68723 0.28504 0.375 0.0
H169 H 0.78184 0.25478 0.2121 0.0
H170 H 0.77255 0.22037 0.15832 0.0
H171 H 0.79811 0.20796 0.22148 0.0
H172 H 0.74976 0.15607 0.24268 0.0
H173 H 0.72422 0.16794 0.17892 0.0
H174 H 0.70035 0.16706 0.24619 0.0
H175 H 0.65226 0.30224 0.28684 0.0
H176 H 0.63102 0.31641 0.1892 0.0
H177 H 0.70658 0.23268 0.12391 0.0
C178 C 0.7666 0.21476 0.33669 0.0
C179 C 0.76623 0.23155 0.39091 0.0
C180 C 0.73645 0.25583 0.40495 0.0
C181 C 0.7087 0.26496 0.36483 0.0
C182 C 0.71092 0.24945 0.3108 0.0
C183 C 0.73876 0.2244 0.29685 0.0
C184 C 0.73735 0.21508 0.23406 0.0
C185 C 0.77467 0.22517 0.20481 0.0
C186 C 0.72731 0.1741 0.22494 0.0
C187 C 0.70556 0.24004 0.21458 0.0
C188 C 0.69039 0.2593 0.25961 0.0
C189 C 0.66324 0.28664 0.25142 0.0
C190 C 0.65147 0.29465 0.19579 0.0
C191 C 0.66678 0.27537 0.14902 0.0
C192 C 0.6937 0.2473 0.15889 0.0
H193 H 0.74813 0.29612 0.89556 0.0
H194 H 0.73088 0.41429 0.87627 0.0
H195 H 0.7742 0.41454 0.79478 0.0
H196 H 0.84923 0.29362 0.84448 0.0
H197 H 0.84097 0.25021 0.80869 0.0
H198 H 0.81599 0.26086 0.87303 0.0
H199 H 0.75269 0.24926 0.8207 0.0
H200 H 0.77727 0.23915 0.75617 0.0
H201 H 0.7421 0.27499 0.7571 0.0
H202 H 0.80861 0.39997 0.70529 0.0
H203 H 0.83362 0.37238 0.61752 0.0
H204 H 0.82849 0.26349 0.69431 0.0
C205 C 0.75459 0.3224 0.87579 0.0
C206 C 0.73616 0.35526 0.89272 0.0
C207 C 0.74483 0.38882 0.86459 0.0
C208 C 0.76944 0.38921 0.81815 0.0
C209 C 0.78547 0.35591 0.80068 0.0
C210 C 0.77884 0.32318 0.82921 0.0
C211 C 0.79561 0.29047 0.79799 0.0
C212 C 0.82735 0.27275 0.83314 0.0
C213 C 0.7651 0.26181 0.78205 0.0
C214 C 0.81105 0.30962 0.74592 0.0
C215 C 0.80547 0.34745 0.74875 0.0
C216 C 0.81395 0.37053 0.70324 0.0
C217 C 0.82798 0.35456 0.65342 0.0
C218 C 0.83333 0.31581 0.64926 0.0
C219 C 0.8255 0.29326 0.69667 0.0
H220 H 0.82067 0.80509 0.19551 0.0
H221 H 0.83607 0.69797 0.11592 0.0
H222 H 0.81192 0.66729 0.20182 0.0
H223 H 0.84163 0.77513 0.34555 0.0
H224 H 0.80546 0.80473 0.37358 0.0
H225 H 0.83042 0.81799 0.31033 0.0
H226 H 0.76701 0.82421 0.25614 0.0
H227 H 0.742 0.8111 0.31905 0.0
H228 H 0.73493 0.78543 0.25419 0.0
H229 H 0.7773 0.64869 0.28977 0.0
H230 H 0.7337 0.64419 0.37073 0.0
H231 H 0.74124 0.76315 0.39412 0.0
C232 C 0.82016 0.77514 0.19694 0.0
C233 C 0.83062 0.75394 0.14916 0.0
C234 C 0.82844 0.71482 0.15208 0.0
C235 C 0.81489 0.6971 0.20086 0.0
C236 C 0.80375 0.7188 0.24667 0.0
C237 C 0.80644 0.757 0.24528 0.0
C238 C 0.78861 0.77407 0.29737 0.0
C239 C 0.81831 0.79417 0.33387 0.0
C240 C 0.75622 0.80022 0.28066 0.0
C241 C 0.7741 0.73967 0.32699 0.0
C242 C 0.78369 0.708 0.29763 0.0
C243 C 0.7703 0.67323 0.31381 0.0
C244 C 0.74554 0.67092 0.35998 0.0
C245 C 0.7342 0.70321 0.38938 0.0
C246 C 0.74988 0.73777 0.37357 0.0
H247 H 0.69299 0.82364 0.63193 0.0
H248 H 0.63264 0.72682 0.6918 0.0
H249 H 0.6509 0.74235 0.79039 0.0
H250 H 0.77024 0.81365 0.72014 0.0
H251 H 0.77792 0.86239 0.73202 0.0
H252 H 0.75512 0.84694 0.66791 0.0
H253 H 0.69811 0.88912 0.68977 0.0
H254 H 0.72073 0.90448 0.75438 0.0
H255 H 0.67415 0.88456 0.75663 0.0
H256 H 0.68246 0.76353 0.88016 0.0
H257 H 0.72728 0.78655 0.95264 0.0
H258 H 0.76665 0.87022 0.83529 0.0
C259 C 0.6828 0.80619 0.66588 0.0
C260 C 0.6611 0.77413 0.65412 0.0
C261 C 0.6491 0.7516 0.69972 0.0
C262 C 0.65918 0.76034 0.75593 0.0
C263 C 0.68112 0.79181 0.76597 0.0
C264 C 0.69276 0.81443 0.72216 0.0
C265 C 0.71939 0.84435 0.74349 0.0
C266 C 0.75793 0.84164 0.71417 0.0
C267 C 0.70205 0.88292 0.7356 0.0
C268 C 0.72207 0.83424 0.8058 0.0
C269 C 0.69926 0.80422 0.81808 0.0
C270 C 0.69979 0.78751 0.87136 0.0
C271 C 0.72528 0.80085 0.91236 0.0
C272 C 0.74994 0.83062 0.90001 0.0
C273 C 0.74725 0.8483 0.84667 0.0
H274 H 0.31705 0.7582 0.84065 0.0
H275 H 0.32008 0.86482 0.92541 0.0
H276 H 0.29207 0.89406 0.84067 0.0
H277 H 0.33444 0.79309 0.69353 0.0
H278 H 0.30193 0.76017 0.66282 0.0
H279 H 0.32778 0.74855 0.7264 0.0
H280 H 0.26515 0.73419 0.77794 0.0
H281 H 0.23924 0.7456 0.71464 0.0
H282 H 0.22897 0.76903 0.7803 0.0
H283 H 0.2567 0.91046 0.75203 0.0
H284 H 0.2144 0.91197 0.66854 0.0
H285 H 0.23428 0.79484 0.641 0.0
C286 C 0.31276 0.78785 0.84075 0.0
C287 C 0.32101 0.80927 0.88949 0.0
C288 C 0.31409 0.84786 0.8885 0.0
C289 C 0.29837 0.86478 0.84041 0.0
C290 C 0.28979 0.84281 0.79344 0.0
C291 C 0.29679 0.80517 0.79314 0.0
C292 C 0.28132 0.78721 0.73969 0.0
C293 C 0.31328 0.77133 0.70347 0.0
C294 C 0.25192 0.75727 0.75403 0.0
C295 C 0.26331 0.82034 0.7111 0.0
C296 C 0.26909 0.85228 0.74225 0.0
C297 C 0.25252 0.88576 0.72673 0.0
C298 C 0.22852 0.88636 0.67914 0.0
C299 C 0.22107 0.85362 0.64781 0.0
C300 C 0.23977 0.82055 0.66327 0.0
H301 H 0.25877 0.77309 0.14277 0.0
H302 H 0.284 0.65748 0.17456 0.0
H303 H 0.2415 0.65836 0.25707 0.0
H304 H 0.2629 0.80104 0.28055 0.0
H305 H 0.22525 0.8343 0.27677 0.0
H306 H 0.25136 0.82299 0.21404 0.0
H307 H 0.18961 0.80483 0.16177 0.0
H308 H 0.16313 0.81651 0.22428 0.0
H309 H 0.15846 0.77116 0.19303 0.0
H310 H 0.20461 0.67433 0.34398 0.0
H311 H 0.17492 0.70351 0.42703 0.0
H312 H 0.17391 0.80899 0.3393 0.0
C313 C 0.25441 0.74753 0.16576 0.0
C314 C 0.27462 0.7151 0.15175 0.0
C315 C 0.26869 0.68258 0.18404 0.0
C316 C 0.24455 0.68282 0.23104 0.0
C317 C 0.22633 0.7157 0.24502 0.0
C318 C 0.23064 0.74738 0.21293 0.0
C319 C 0.21115 0.78011 0.24022 0.0
C320 C 0.23936 0.81143 0.25369 0.0
C321 C 0.17865 0.79396 0.20258 0.0
C322 C 0.1965 0.76229 0.2939 0.0
C323 C 0.20508 0.725 0.29544 0.0
C324 C 0.19711 0.70331 0.34272 0.0
C325 C 0.18037 0.72021 0.38983 0.0
C326 C 0.17185 0.7585 0.38956 0.0
C327 C 0.17946 0.77956 0.34044 0.0
H328 H 0.07781 0.22544 0.21492 0.0
H329 H 0.0346 0.31286 0.10723 0.0
H330 H 0.99693 0.33655 0.1882 0.0
H331 H 0.99638 0.20353 0.2801 0.0
H332 H 0.01733 0.19378 0.34832 0.0
H333 H 0.04477 0.18889 0.28519 0.0
H334 H 0.09475 0.23415 0.32684 0.0
H335 H 0.06699 0.23951 0.3901 0.0
H336 H 0.08065 0.27964 0.34969 0.0
H337 H 0.9568 0.34367 0.27759 0.0
H338 H 0.91677 0.33124 0.36136 0.0
H339 H 0.98896 0.23991 0.4082 0.0
C340 C 0.0608 0.24991 0.20835 0.0
C341 C 0.05861 0.26711 0.15483 0.0
C342 C 0.03648 0.29929 0.14809 0.0
C343 C 0.01528 0.31299 0.19389 0.0
C344 C 0.01752 0.29467 0.24607 0.0
C345 C 0.04014 0.26397 0.2533 0.0
C346 C 0.03532 0.2466 0.31093 0.0
C347 C 0.02267 0.20584 0.30578 0.0
C348 C 0.07159 0.25021 0.34648 0.0
C349 C 0.00458 0.2708 0.3342 0.0
C350 C 0.99519 0.29906 0.29713 0.0
C351 C 0.96458 0.32225 0.30745 0.0
C352 C 0.94214 0.3152 0.35527 0.0
C353 C 0.95025 0.28486 0.39114 0.0
C354 C 0.98273 0.26365 0.38178 0.0
H355 H 0.48638 0.32771 0.61554 0.0
H356 H 0.42375 0.22746 0.65125 0.0
H357 H 0.46589 0.215 0.7333 0.0
H358 H 0.58168 0.29482 0.66729 0.0
H359 H 0.59189 0.34014 0.69564 0.0
H360 H 0.56308 0.33539 0.63278 0.0
H361 H 0.51061 0.37332 0.68167 0.0
H362 H 0.53861 0.37742 0.74501 0.0
H363 H 0.49202 0.35764 0.74853 0.0
H364 H 0.50823 0.22047 0.82205 0.0
H365 H 0.54755 0.24188 0.90359 0.0
H366 H 0.57874 0.33959 0.80789 0.0
C367 C 0.4825 0.30232 0.63921 0.0
C368 C 0.45209 0.27844 0.62709 0.0
C369 C 0.44739 0.24577 0.6594 0.0
C370 C 0.47106 0.23862 0.70625 0.0
C371 C 0.49946 0.26416 0.7193 0.0
C372 C 0.50561 0.295 0.68576 0.0
C373 C 0.53446 0.32076 0.7117 0.0
C374 C 0.56988 0.32288 0.67465 0.0
C375 C 0.51791 0.35953 0.72236 0.0
C376 C 0.54226 0.30074 0.76654 0.0
C377 C 0.52262 0.26777 0.77016 0.0
C378 C 0.52417 0.24597 0.81912 0.0
C379 C 0.54634 0.25836 0.86528 0.0
C380 C 0.56576 0.29257 0.86225 0.0
C381 C 0.5639 0.31349 0.81187 0.0
H382 H 0.00871 0.84635 0.62829 0.0
H383 H 0.06684 0.74197 0.64877 0.0
H384 H 0.02638 0.72717 0.73128 0.0
H385 H 0.0088 0.8686 0.76706 0.0
H386 H 0.96363 0.89116 0.76731 0.0
H387 H 0.99057 0.88947 0.70315 0.0
H388 H 0.93499 0.85792 0.64976 0.0
H389 H 0.90732 0.86044 0.71345 0.0
H390 H 0.914 0.81656 0.67855 0.0
H391 H 0.98482 0.72925 0.82165 0.0
H392 H 0.945 0.7465 0.90411 0.0
H393 H 0.91954 0.85107 0.82219 0.0
C394 C 0.01205 0.81972 0.64875 0.0
C395 C 0.04067 0.79523 0.63211 0.0
C396 C 0.04457 0.76087 0.66039 0.0
C397 C 0.02192 0.7524 0.70755 0.0
C398 C 0.99548 0.77849 0.72516 0.0
C399 C 0.9902 0.8112 0.69572 0.0
C400 C 0.96347 0.83677 0.72569 0.0
C401 C 0.98279 0.87364 0.74174 0.0
C402 C 0.92782 0.84328 0.68972 0.0
C403 C 0.95508 0.81392 0.77747 0.0
C404 C 0.97319 0.78018 0.77673 0.0
C405 C 0.97021 0.75547 0.82216 0.0
C406 C 0.94779 0.76554 0.86894 0.0
C407 C 0.92934 0.80023 0.86997 0.0
C408 C 0.9333 0.82438 0.82336 0.0
H409 H 0.4939 0.73678 0.11089 0.0
H410 H 0.41928 0.82511 0.16138 0.0
H411 H 0.46079 0.839 0.24357 0.0
H412 H 0.50486 0.70041 0.23592 0.0
H413 H 0.55368 0.68742 0.23084 0.0
H414 H 0.52584 0.69205 0.16761 0.0
H415 H 0.57293 0.73994 0.12696 0.0
H416 H 0.60178 0.73478 0.18967 0.0
H417 H 0.58581 0.78002 0.16848 0.0
H418 H 0.50216 0.83259 0.33204 0.0
H419 H 0.5409 0.80897 0.41248 0.0
H420 H 0.58626 0.72432 0.30208 0.0
C421 C 0.48747 0.76032 0.13761 0.0
C422 C 0.45382 0.7801 0.12985 0.0
C423 C 0.44549 0.81016 0.16616 0.0
C424 C 0.46882 0.81806 0.21312 0.0
C425 C 0.50057 0.7961 0.22211 0.0
C426 C 0.51037 0.76841 0.18427 0.0
C427 C 0.54222 0.74505 0.20682 0.0
C428 C 0.53093 0.70385 0.21053 0.0
C429 C 0.5778 0.75028 0.17085 0.0
C430 C 0.54707 0.76206 0.26485 0.0
C431 C 0.52366 0.79204 0.27289 0.0
C432 C 0.52123 0.80969 0.32565 0.0
C433 C 0.54308 0.79605 0.37115 0.0
C434 C 0.56612 0.76462 0.36348 0.0
C435 C 0.56861 0.74823 0.30934 0.0
H436 H 0.04607 0.0733 0.08503 0.0
H437 H 0.04087 0.12789 0.92119 0.0
H438 H 0.98913 0.08602 0.89199 0.0
H439 H 0.02778 0.98049 0.0327 0.0
H440 H -0.0001 0.96744 0.09317 0.0
H441 H 0.03665 1.00158 0.10089 0.0
H442 H 0.98828 0.04783 0.14175 0.0
H443 H 0.95127 1.01399 0.13347 0.0
H444 H 0.94667 0.05891 0.10108 0.0
H445 H 0.93702 0.03926 0.88115 0.0
H446 H 0.89186 0.9875 0.88595 0.0
H447 H 0.93072 0.96216 0.05652 0.0
C448 C 0.03429 0.07628 0.0428 0.0
C449 C 0.04771 0.10397 1.00535 0.0
C450 C 0.03131 0.1069 0.95058 0.0
C451 C 0.00172 0.08333 0.93371 0.0
C452 C 0.98878 0.05682 0.97196 0.0
C453 C 0.00477 0.05288 0.02517 0.0
C454 C 0.98588 1.02174 0.0578 0.0
C455 C 0.01424 0.99099 0.07195 0.0
C456 C 0.9669 0.03651 0.11172 0.0
C457 C 0.95682 1.00871 0.01456 0.0
C458 C 0.95886 0.02958 0.96554 0.0
C459 C 0.93523 1.02273 0.9193 0.0
C460 C 0.9095 0.99326 0.92258 0.0
C461 C 0.90749 0.97069 0.97168 0.0
C462 C 0.93119 0.97903 0.01861 0.0
H463 H 0.54928 0.58655 0.54651 0.0
H464 H 0.56827 0.57581 0.36538 0.0
H465 H 0.52202 0.52501 0.36078 0.0
H466 H 0.53889 0.48796 0.5738 0.0
H467 H 0.5027 0.49413 0.62624 0.0
H468 H 0.53749 0.52979 0.61552 0.0
H469 H 0.48432 0.57731 0.59753 0.0
H470 H 0.44938 0.54169 0.60762 0.0
H471 H 0.44968 0.56826 0.54295 0.0
H472 H 0.47262 0.47606 0.37465 0.0
H473 H 0.42711 0.42914 0.40789 0.0
H474 H 0.4402 0.47021 0.58014 0.0
C475 C 0.54391 0.57332 0.506 0.0
C476 C 0.56259 0.58533 0.45632 0.0
C477 C 0.55456 0.56723 0.40414 0.0
C478 C 0.52814 0.53835 0.40096 0.0
C479 C 0.50988 0.52753 0.45037 0.0
C480 C 0.51763 0.54414 0.50206 0.0
C481 C 0.49432 0.52664 0.54882 0.0
C482 C 0.51988 0.50855 0.59374 0.0
C483 C 0.46786 0.55518 0.57581 0.0
C484 C 0.47233 0.49773 0.51527 0.0
C485 C 0.48158 0.49892 0.45848 0.0
C486 C 0.46518 0.47484 0.41907 0.0
C487 C 0.43919 0.44834 0.43833 0.0
C488 C 0.42985 0.44594 0.49657 0.0
C489 C 0.44646 0.47139 0.53526 0.0
H490 H 0.45124 0.59869 0.975 0.0
H491 H 0.42923 0.58535 0.15482 0.0
H492 H 0.4723 0.53207 0.15794 0.0
H493 H 0.45862 0.50007 0.94146 0.0
H494 H 0.49621 0.50685 0.89145 0.0
H495 H 0.46214 0.5429 0.90268 0.0
H496 H 0.51613 0.58885 0.92658 0.0
H497 H 0.55032 0.55284 0.916 0.0
H498 H 0.54918 0.57771 0.98232 0.0
H499 H 0.51936 0.48123 0.14272 0.0
H500 H 0.56541 0.43516 0.10901 0.0
H501 H 0.55807 0.48168 0.93957 0.0
C502 C 0.45504 0.5842 0.0148 0.0
C503 C 0.4366 0.59619 0.06461 0.0
C504 C 0.44287 0.57673 0.11602 0.0
C505 C 0.46738 0.54641 0.1183 0.0
C506 C 0.48564 0.53573 0.06883 0.0
C507 C 0.47968 0.55386 0.01794 0.0
C508 C 0.5036 0.53716 0.97132 0.0
C509 C 0.47865 0.52077 0.92393 0.0
C510 C 0.53146 0.56585 0.94768 0.0
C511 C 0.52396 0.507 1.00404 0.0
C512 C 0.51315 0.50663 0.06022 0.0
C513 C 0.52801 0.48122 0.09877 0.0
C514 C 0.55427 0.4552 0.07927 0.0
C515 C 0.56558 0.45479 0.02173 0.0
C516 C 0.55027 0.48132 0.98391 0.0
H517 H 0.04704 0.97463 0.46915 0.0
H518 H 0.06343 0.98258 0.65153 0.0
H519 H 0.01869 0.03436 0.65522 0.0
H520 H 0.03866 0.0742 0.44401 0.0
H521 H 0.00303 0.06875 0.38981 0.0
H522 H 0.03736 0.03288 0.40108 0.0
H523 H 0.98351 0.98531 0.41524 0.0
H524 H 0.94903 1.02113 0.40472 0.0
H525 H 0.94838 0.99375 0.46859 0.0
H526 H 0.97051 0.08398 0.64046 0.0
H527 H 0.92547 0.1311 0.60673 0.0
H528 H 0.9398 0.09193 0.43396 0.0
C529 C 0.0416 0.9876 0.50971 0.0
C530 C 0.05895 0.97443 0.56004 0.0
C531 C 0.05068 0.99205 0.61231 0.0
C532 C 0.02514 1.0215 0.61495 0.0
C533 C 0.00797 0.0333 0.56494 0.0
C534 C 0.01606 1.01722 0.51317 0.0
C535 C 0.99346 0.03534 0.46589 0.0
C536 C 0.01969 0.0539 0.42265 0.0
C537 C 0.96703 1.0072 0.43691 0.0
C538 C 0.97138 0.06389 0.4993 0.0
C539 C 0.98012 0.06211 0.5564 0.0
C540 C 0.96348 0.08569 0.59579 0.0
C541 C 0.93776 0.1123 0.57625 0.0
C542 C 0.92885 0.11525 0.51775 0.0
C543 C 0.94571 0.09031 0.47902 0.0
loop_
_geom_bond_atom_site_label_1
_geom_bond_atom_site_label_2
_geom_bond_distance
_geom_bond_site_symmetry_2
_ccdc_geom_bond_type
O0 Cd1 2.223 . S
O0 C8 1.315 . S
Cd1 O0 2.223 . S
Cd1 O4 2.297 1_554 S
Cd1 O5 2.439 1_554 S
Cd1 O11 2.240 . S
Cd2 O3 2.240 . S
Cd2 O10 2.223 . S
Cd2 O12 2.297 . S
Cd2 O13 2.439 . S
O3 Cd2 2.240 . S
O3 C8 1.279 . S
O4 Cd1 2.297 1_556 S
O4 C6 1.247 . S
O5 Cd1 2.439 1_556 S
O5 C6 1.208 . S
C6 O4 1.247 . S
C6 O5 1.208 . S
C7 O12 1.247 . S
C7 O13 1.208 . S
C8 O0 1.315 . S
C8 O3 1.279 . S
C9 O10 1.315 . S
C9 O11 1.279 . S
O10 Cd2 2.223 . S
O10 C9 1.315 . S
O11 Cd1 2.240 . S
O11 C9 1.279 . S
O12 Cd2 2.297 . S
O12 C7 1.247 . S
O13 Cd2 2.439 . S
O13 C7 1.208 . S
O14 Cd15 2.223 . S
O14 C22 1.315 . S
Cd15 O14 2.223 . S
Cd15 O18 2.297 . S
Cd15 O19 2.439 . S
Cd15 O25 2.240 . S
Cd16 O17 2.240 . S
Cd16 O24 2.223 . S
Cd16 O26 2.297 . S
Cd16 O27 2.439 . S
O17 Cd16 2.240 . S
O17 C22 1.279 . S
O18 Cd15 2.297 . S
O18 C20 1.247 . S
O19 Cd15 2.439 . S
O19 C20 1.208 . S
C20 O18 1.247 . S
C20 O19 1.208 . S
C21 O26 1.247 . S
C21 O27 1.208 . S
C22 O14 1.315 . S
C22 O17 1.279 . S
C23 O24 1.315 . S
C23 O25 1.279 . S
O24 Cd16 2.223 . S
O24 C23 1.315 . S
O25 Cd15 2.240 . S
O25 C23 1.279 . S
O26 Cd16 2.297 . S
O26 C21 1.247 . S
O27 Cd16 2.439 . S
O27 C21 1.208 . S
O28 Cd29 2.223 . S
O28 C36 1.315 . S
Cd29 O28 2.223 . S
Cd29 O32 2.297 1_556 S
Cd29 O33 2.439 1_556 S
Cd29 O39 2.240 . S
Cd30 O31 2.240 . S
Cd30 O38 2.223 . S
Cd30 O40 2.297 . S
Cd30 O41 2.439 . S
O31 Cd30 2.240 . S
O31 C36 1.279 . S
O32 Cd29 2.297 1_554 S
O32 C34 1.247 . S
O33 Cd29 2.439 1_554 S
O33 C34 1.208 . S
C34 O32 1.247 . S
C34 O33 1.208 . S
C35 O40 1.247 . S
C35 O41 1.208 . S
C36 O28 1.315 . S
C36 O31 1.279 . S
C37 O38 1.315 . S
C37 O39 1.279 . S
O38 Cd30 2.223 . S
O38 C37 1.315 . S
O39 Cd29 2.240 . S
O39 C37 1.279 . S
O40 Cd30 2.297 . S
O40 C35 1.247 . S
O41 Cd30 2.439 . S
O41 C35 1.208 . S
O42 Cd43 2.223 . S
O42 C50 1.315 . S
Cd43 O42 2.223 . S
Cd43 O46 2.297 . S
Cd43 O47 2.439 . S
Cd43 O53 2.240 . S
Cd44 O45 2.240 . S
Cd44 O52 2.223 . S
Cd44 O54 2.297 . S
Cd44 O55 2.439 . S
O45 Cd44 2.240 . S
O45 C50 1.279 . S
O46 Cd43 2.297 . S
O46 C48 1.247 . S
O47 Cd43 2.439 . S
O47 C48 1.208 . S
C48 O46 1.247 . S
C48 O47 1.208 . S
C49 O54 1.247 . S
C49 O55 1.208 . S
C50 O42 1.315 . S
C50 O45 1.279 . S
C51 O52 1.315 . S
C51 O53 1.279 . S
O52 Cd44 2.223 . S
O52 C51 1.315 . S
O53 Cd43 2.240 . S
O53 C51 1.279 . S
O54 Cd44 2.297 . S
O54 C49 1.247 . S
O55 Cd44 2.439 . S
O55 C49 1.208 . S
O56 Cd57 2.223 . S
O56 C64 1.315 . S
Cd57 O56 2.223 . S
Cd57 O60 2.297 1_556 S
Cd57 O61 2.439 1_556 S
Cd57 O67 2.240 . S
Cd58 O59 2.240 . S
Cd58 O66 2.223 . S
Cd58 O68 2.297 . S
Cd58 O69 2.439 . S
O59 Cd58 2.240 . S
O59 C64 1.279 . S
O60 Cd57 2.297 1_554 S
O60 C62 1.247 . S
O61 Cd57 2.439 1_554 S
O61 C62 1.208 . S
C62 O60 1.247 . S
C62 O61 1.208 . S
C63 O68 1.247 . S
C63 O69 1.208 . S
C64 O56 1.315 . S
C64 O59 1.279 . S
C65 O66 1.315 . S
C65 O67 1.279 . S
O66 Cd58 2.223 . S
O66 C65 1.315 . S
O67 Cd57 2.240 . S
O67 C65 1.279 . S
O68 Cd58 2.297 . S
O68 C63 1.247 . S
O69 Cd58 2.439 . S
O69 C63 1.208 . S
O70 Cd71 2.223 . S
O70 C78 1.315 . S
Cd71 O70 2.223 . S
Cd71 O74 2.297 . S
Cd71 O75 2.439 . S
Cd71 O81 2.240 . S
Cd72 O73 2.240 . S
Cd72 O80 2.223 . S
Cd72 O82 2.297 . S
Cd72 O83 2.439 . S
O73 Cd72 2.240 . S
O73 C78 1.279 . S
O74 Cd71 2.297 . S
O74 C76 1.247 . S
O75 Cd71 2.439 . S
O75 C76 1.208 . S
C76 O74 1.247 . S
C76 O75 1.208 . S
C77 O82 1.247 . S
C77 O83 1.208 . S
C78 O70 1.315 . S
C78 O73 1.279 . S
C79 O80 1.315 . S
C79 O81 1.279 . S
O80 Cd72 2.223 . S
O80 C79 1.315 . S
O81 Cd71 2.240 . S
O81 C79 1.279 . S
O82 Cd72 2.297 . S
O82 C77 1.247 . S
O83 Cd72 2.439 . S
O83 C77 1.208 . S
O84 Cd85 2.223 . S
O84 C92 1.315 . S
Cd85 O84 2.223 . S
Cd85 O88 2.297 1_554 S
Cd85 O89 2.439 1_554 S
Cd85 O95 2.240 . S
Cd86 O87 2.240 . S
Cd86 O94 2.223 . S
Cd86 O96 2.297 . S
Cd86 O97 2.439 . S
O87 Cd86 2.240 . S
O87 C92 1.279 . S
O88 Cd85 2.297 1_556 S
O88 C90 1.247 . S
O89 Cd85 2.439 1_556 S
O89 C90 1.208 . S
C90 O88 1.247 . S
C90 O89 1.208 . S
C91 O96 1.247 . S
C91 O97 1.208 . S
C92 O84 1.315 . S
C92 O87 1.279 . S
C93 O94 1.315 . S
C93 O95 1.279 . S
O94 Cd86 2.223 . S
O94 C93 1.315 . S
O95 Cd85 2.240 . S
O95 C93 1.279 . S
O96 Cd86 2.297 . S
O96 C91 1.247 . S
O97 Cd86 2.439 . S
O97 C91 1.208 . S
O98 Cd99 2.223 . S
O98 C106 1.315 . S
Cd99 O98 2.223 . S
Cd99 O102 2.297 . S
Cd99 O103 2.439 . S
Cd99 O109 2.240 . S
Cd100 O101 2.240 . S
Cd100 O108 2.223 . S
Cd100 O110 2.297 . S
Cd100 O111 2.439 . S
O101 Cd100 2.240 . S
O101 C106 1.279 . S
O102 Cd99 2.297 . S
O102 C104 1.247 . S
O103 Cd99 2.439 . S
O103 C104 1.208 . S
C104 O102 1.247 . S
C104 O103 1.208 . S
C105 O110 1.247 . S
C105 O111 1.208 . S
C106 O98 1.315 . S
C106 O101 1.279 . S
C107 O108 1.315 . S
C107 O109 1.279 . S
O108 Cd100 2.223 . S
O108 C107 1.315 . S
O109 Cd99 2.240 . S
O109 C107 1.279 . S
O110 Cd100 2.297 . S
O110 C105 1.247 . S
O111 Cd100 2.439 . S
O111 C105 1.208 . S
H112 C124 0.930 . S
H113 C126 0.930 . S
H114 C127 0.930 . S
H115 C131 0.959 . S
H116 C131 0.959 . S
H117 C131 0.961 . S
H118 C132 0.960 . S
H119 C132 0.961 . S
H120 C132 0.959 . S
H121 C135 0.929 . S
H122 C136 0.931 . S
H123 C138 0.930 . S
C124 H112 0.930 . S
C124 C125 1.399 . S
C124 C129 1.399 . S
C125 C124 1.399 . S
C125 C126 1.376 . S
C126 H113 0.930 . S
C126 C125 1.376 . S
C126 C127 1.388 . S
C127 H114 0.930 . S
C127 C126 1.388 . S
C127 C128 1.390 . S
C128 C127 1.390 . S
C128 C129 1.394 . S
C128 C134 1.465 . S
C129 C124 1.399 . S
C129 C128 1.394 . S
C129 C130 1.516 . S
C130 C129 1.516 . S
C130 C131 1.502 . S
C130 C132 1.561 . S
C130 C133 1.526 . S
C131 H115 0.959 . S
C131 H116 0.959 . S
C131 H117 0.961 . S
C131 C130 1.502 . S
C132 H118 0.960 . S
C132 H119 0.961 . S
C132 H120 0.959 . S
C132 C130 1.561 . S
C133 C130 1.526 . S
C133 C134 1.396 . S
C133 C138 1.390 . S
C134 C128 1.465 . S
C134 C133 1.396 . S
C134 C135 1.399 . S
C135 H121 0.929 . S
C135 C134 1.399 . S
C135 C136 1.385 . S
C136 H122 0.931 . S
C136 C135 1.385 . S
C136 C137 1.389 . S
C137 C136 1.389 . S
C137 C138 1.387 . S
C138 H123 0.930 . S
C138 C133 1.390 . S
C138 C137 1.387 . S
H139 C151 0.930 . S
H140 C153 0.930 . S
H141 C154 0.930 . S
H142 C158 0.959 . S
H143 C158 0.959 . S
H144 C158 0.961 . S
H145 C159 0.960 . S
H146 C159 0.961 . S
H147 C159 0.959 . S
H148 C162 0.929 . S
H149 C163 0.931 . S
H150 C165 0.930 . S
C151 H139 0.930 . S
C151 C152 1.399 . S
C151 C156 1.399 . S
C152 C151 1.399 . S
C152 C153 1.376 . S
C153 H140 0.930 . S
C153 C152 1.376 . S
C153 C154 1.388 . S
C154 H141 0.930 . S
C154 C153 1.388 . S
C154 C155 1.390 . S
C155 C154 1.390 . S
C155 C156 1.394 . S
C155 C161 1.465 . S
C156 C151 1.399 . S
C156 C155 1.394 . S
C156 C157 1.516 . S
C157 C156 1.516 . S
C157 C158 1.502 . S
C157 C159 1.561 . S
C157 C160 1.526 . S
C158 H142 0.959 . S
C158 H143 0.959 . S
C158 H144 0.961 . S
C158 C157 1.502 . S
C159 H145 0.960 . S
C159 H146 0.961 . S
C159 H147 0.959 . S
C159 C157 1.561 . S
C160 C157 1.526 . S
C160 C161 1.396 . S
C160 C165 1.390 . S
C161 C155 1.465 . S
C161 C160 1.396 . S
C161 C162 1.399 . S
C162 H148 0.929 . S
C162 C161 1.399 . S
C162 C163 1.385 . S
C163 H149 0.931 . S
C163 C162 1.385 . S
C163 C164 1.389 . S
C164 C163 1.389 . S
C164 C165 1.387 . S
C165 H150 0.930 . S
C165 C160 1.390 . S
C165 C164 1.387 . S
H166 C178 0.930 . S
H167 C180 0.930 . S
H168 C181 0.930 . S
H169 C185 0.959 . S
H170 C185 0.959 . S
H171 C185 0.961 . S
H172 C186 0.960 . S
H173 C186 0.961 . S
H174 C186 0.959 . S
H175 C189 0.929 . S
H176 C190 0.931 . S
H177 C192 0.930 . S
C178 H166 0.930 . S
C178 C179 1.399 . S
C178 C183 1.399 . S
C179 C178 1.399 . S
C179 C180 1.376 . S
C180 H167 0.930 . S
C180 C179 1.376 . S
C180 C181 1.388 . S
C181 H168 0.930 . S
C181 C180 1.388 . S
C181 C182 1.390 . S
C182 C181 1.390 . S
C182 C183 1.394 . S
C182 C188 1.465 . S
C183 C178 1.399 . S
C183 C182 1.394 . S
C183 C184 1.516 . S
C184 C183 1.516 . S
C184 C185 1.502 . S
C184 C186 1.561 . S
C184 C187 1.526 . S
C185 H169 0.959 . S
C185 H170 0.959 . S
C185 H171 0.961 . S
C185 C184 1.502 . S
C186 H172 0.960 . S
C186 H173 0.961 . S
C186 H174 0.959 . S
C186 C184 1.561 . S
C187 C184 1.526 . S
C187 C188 1.396 . S
C187 C192 1.390 . S
C188 C182 1.465 . S
C188 C187 1.396 . S
C188 C189 1.399 . S
C189 H175 0.929 . S
C189 C188 1.399 . S
C189 C190 1.385 . S
C190 H176 0.931 . S
C190 C189 1.385 . S
C190 C191 1.389 . S
C191 C190 1.389 . S
C191 C192 1.387 . S
C192 H177 0.930 . S
C192 C187 1.390 . S
C192 C191 1.387 . S
H193 C205 0.930 . S
H194 C207 0.930 . S
H195 C208 0.930 . S
H196 C212 0.959 . S
H197 C212 0.959 . S
H198 C212 0.961 . S
H199 C213 0.960 . S
H200 C213 0.961 . S
H201 C213 0.959 . S
H202 C216 0.929 . S
H203 C217 0.931 . S
H204 C219 0.930 . S
C205 H193 0.930 . S
C205 C206 1.399 . S
C205 C210 1.399 . S
C206 C205 1.399 . S
C206 C207 1.376 . S
C207 H194 0.930 . S
C207 C206 1.376 . S
C207 C208 1.388 . S
C208 H195 0.930 . S
C208 C207 1.388 . S
C208 C209 1.390 . S
C209 C208 1.390 . S
C209 C210 1.394 . S
C209 C215 1.465 . S
C210 C205 1.399 . S
C210 C209 1.394 . S
C210 C211 1.516 . S
C211 C210 1.516 . S
C211 C212 1.502 . S
C211 C213 1.561 . S
C211 C214 1.526 . S
C212 H196 0.959 . S
C212 H197 0.959 . S
C212 H198 0.961 . S
C212 C211 1.502 . S
C213 H199 0.960 . S
C213 H200 0.961 . S
C213 H201 0.959 . S
C213 C211 1.561 . S
C214 C211 1.526 . S
C214 C215 1.396 . S
C214 C219 1.390 . S
C215 C209 1.465 . S
C215 C214 1.396 . S
C215 C216 1.399 . S
C216 H202 0.929 . S
C216 C215 1.399 . S
C216 C217 1.385 . S
C217 H203 0.931 . S
C217 C216 1.385 . S
C217 C218 1.389 . S
C218 C217 1.389 . S
C218 C219 1.387 . S
C219 H204 0.930 . S
C219 C214 1.390 . S
C219 C218 1.387 . S
H220 C232 0.930 . S
H221 C234 0.930 . S
H222 C235 0.930 . S
H223 C239 0.959 . S
H224 C239 0.959 . S
H225 C239 0.961 . S
H226 C240 0.960 . S
H227 C240 0.961 . S
H228 C240 0.959 . S
H229 C243 0.929 . S
H230 C244 0.931 . S
H231 C246 0.930 . S
C232 H220 0.930 . S
C232 C233 1.399 . S
C232 C237 1.399 . S
C233 C232 1.399 . S
C233 C234 1.376 . S
C234 H221 0.930 . S
C234 C233 1.376 . S
C234 C235 1.388 . S
C235 H222 0.930 . S
C235 C234 1.388 . S
C235 C236 1.390 . S
C236 C235 1.390 . S
C236 C237 1.394 . S
C236 C242 1.465 . S
C237 C232 1.399 . S
C237 C236 1.394 . S
C237 C238 1.516 . S
C238 C237 1.516 . S
C238 C239 1.502 . S
C238 C240 1.561 . S
C238 C241 1.526 . S
C239 H223 0.959 . S
C239 H224 0.959 . S
C239 H225 0.961 . S
C239 C238 1.502 . S
C240 H226 0.960 . S
C240 H227 0.961 . S
C240 H228 0.959 . S
C240 C238 1.561 . S
C241 C238 1.526 . S
C241 C242 1.396 . S
C241 C246 1.390 . S
C242 C236 1.465 . S
C242 C241 1.396 . S
C242 C243 1.399 . S
C243 H229 0.929 . S
C243 C242 1.399 . S
C243 C244 1.385 . S
C244 H230 0.931 . S
C244 C243 1.385 . S
C244 C245 1.389 . S
C245 C244 1.389 . S
C245 C246 1.387 . S
C246 H231 0.930 . S
C246 C241 1.390 . S
C246 C245 1.387 . S
H247 C259 0.930 . S
H248 C261 0.930 . S
H249 C262 0.930 . S
H250 C266 0.959 . S
H251 C266 0.959 . S
H252 C266 0.961 . S
H253 C267 0.960 . S
H254 C267 0.961 . S
H255 C267 0.959 . S
H256 C270 0.929 . S
H257 C271 0.931 . S
H258 C273 0.930 . S
C259 H247 0.930 . S
C259 C260 1.399 . S
C259 C264 1.399 . S
C260 C259 1.399 . S
C260 C261 1.376 . S
C261 H248 0.930 . S
C261 C260 1.376 . S
C261 C262 1.388 . S
C262 H249 0.930 . S
C262 C261 1.388 . S
C262 C263 1.390 . S
C263 C262 1.390 . S
C263 C264 1.394 . S
C263 C269 1.465 . S
C264 C259 1.399 . S
C264 C263 1.394 . S
C264 C265 1.516 . S
C265 C264 1.516 . S
C265 C266 1.502 . S
C265 C267 1.561 . S
C265 C268 1.526 . S
C266 H250 0.959 . S
C266 H251 0.959 . S
C266 H252 0.961 . S
C266 C265 1.502 . S
C267 H253 0.960 . S
C267 H254 0.961 . S
C267 H255 0.959 . S
C267 C265 1.561 . S
C268 C265 1.526 . S
C268 C269 1.396 . S
C268 C273 1.390 . S
C269 C263 1.465 . S
C269 C268 1.396 . S
C269 C270 1.399 . S
C270 H256 0.929 . S
C270 C269 1.399 . S
C270 C271 1.385 . S
C271 H257 0.931 . S
C271 C270 1.385 . S
C271 C272 1.389 . S
C272 C271 1.389 . S
C272 C273 1.387 . S
C273 H258 0.930 . S
C273 C268 1.390 . S
C273 C272 1.387 . S
H274 C286 0.930 . S
H275 C288 0.930 . S
H276 C289 0.930 . S
H277 C293 0.959 . S
H278 C293 0.959 . S
H279 C293 0.961 . S
H280 C294 0.960 . S
H281 C294 0.961 . S
H282 C294 0.959 . S
H283 C297 0.929 . S
H284 C298 0.931 . S
H285 C300 0.930 . S
C286 H274 0.930 . S
C286 C287 1.399 . S
C286 C291 1.399 . S
C287 C286 1.399 . S
C287 C288 1.376 . S
C288 H275 0.930 . S
C288 C287 1.376 . S
C288 C289 1.388 . S
C289 H276 0.930 . S
C289 C288 1.388 . S
C289 C290 1.390 . S
C290 C289 1.390 . S
C290 C291 1.394 . S
C290 C296 1.465 . S
C291 C286 1.399 . S
C291 C290 1.394 . S
C291 C292 1.516 . S
C292 C291 1.516 . S
C292 C293 1.502 . S
C292 C294 1.561 . S
C292 C295 1.526 . S
C293 H277 0.959 . S
C293 H278 0.959 . S
C293 H279 0.961 . S
C293 C292 1.502 . S
C294 H280 0.960 . S
C294 H281 0.961 . S
C294 H282 0.959 . S
C294 C292 1.561 . S
C295 C292 1.526 . S
C295 C296 1.396 . S
C295 C300 1.390 . S
C296 C290 1.465 . S
C296 C295 1.396 . S
C296 C297 1.399 . S
C297 H283 0.929 . S
C297 C296 1.399 . S
C297 C298 1.385 . S
C298 H284 0.931 . S
C298 C297 1.385 . S
C298 C299 1.389 . S
C299 C298 1.389 . S
C299 C300 1.387 . S
C300 H285 0.930 . S
C300 C295 1.390 . S
C300 C299 1.387 . S
H301 C313 0.930 . S
H302 C315 0.930 . S
H303 C316 0.930 . S
H304 C320 0.959 . S
H305 C320 0.959 . S
H306 C320 0.961 . S
H307 C321 0.960 . S
H308 C321 0.961 . S
H309 C321 0.959 . S
H310 C324 0.929 . S
H311 C325 0.931 . S
H312 C327 0.930 . S
C313 H301 0.930 . S
C313 C314 1.399 . S
C313 C318 1.399 . S
C314 C313 1.399 . S
C314 C315 1.376 . S
C315 H302 0.930 . S
C315 C314 1.376 . S
C315 C316 1.388 . S
C316 H303 0.930 . S
C316 C315 1.388 . S
C316 C317 1.390 . S
C317 C316 1.390 . S
C317 C318 1.394 . S
C317 C323 1.465 . S
C318 C313 1.399 . S
C318 C317 1.394 . S
C318 C319 1.516 . S
C319 C318 1.516 . S
C319 C320 1.502 . S
C319 C321 1.561 . S
C319 C322 1.526 . S
C320 H304 0.959 . S
C320 H305 0.959 . S
C320 H306 0.961 . S
C320 C319 1.502 . S
C321 H307 0.960 . S
C321 H308 0.961 . S
C321 H309 0.959 . S
C321 C319 1.561 . S
C322 C319 1.526 . S
C322 C323 1.396 . S
C322 C327 1.390 . S
C323 C317 1.465 . S
C323 C322 1.396 . S
C323 C324 1.399 . S
C324 H310 0.929 . S
C324 C323 1.399 . S
C324 C325 1.385 . S
C325 H311 0.931 . S
C325 C324 1.385 . S
C325 C326 1.389 . S
C326 C325 1.389 . S
C326 C327 1.387 . S
C327 H312 0.930 . S
C327 C322 1.390 . S
C327 C326 1.387 . S
H328 C340 0.930 . S
H329 C342 0.930 . S
H330 C343 0.930 . S
H331 C347 0.959 . S
H332 C347 0.959 . S
H333 C347 0.961 . S
H334 C348 0.960 . S
H335 C348 0.961 . S
H336 C348 0.959 . S
H337 C351 0.929 . S
H338 C352 0.931 . S
H339 C354 0.930 . S
C340 H328 0.930 . S
C340 C341 1.399 . S
C340 C345 1.399 . S
C341 C340 1.399 . S
C341 C342 1.376 . S
C342 H329 0.930 . S
C342 C341 1.376 . S
C342 C343 1.388 1_455 S
C343 H330 0.930 . S
C343 C342 1.388 1_655 S
C343 C344 1.390 . S
C344 C343 1.390 . S
C344 C345 1.394 1_655 S
C344 C350 1.465 . S
C345 C340 1.399 . S
C345 C344 1.394 1_455 S
C345 C346 1.516 . S
C346 C345 1.516 . S
C346 C347 1.502 . S
C346 C348 1.561 . S
C346 C349 1.526 1_455 S
C347 H331 0.959 . S
C347 H332 0.959 . S
C347 H333 0.961 . S
C347 C346 1.502 . S
C348 H334 0.960 . S
C348 H335 0.961 . S
C348 H336 0.959 . S
C348 C346 1.561 . S
C349 C346 1.526 1_655 S
C349 C350 1.396 . S
C349 C354 1.390 . S
C350 C344 1.465 . S
C350 C349 1.396 . S
C350 C351 1.399 . S
C351 H337 0.929 . S
C351 C350 1.399 . S
C351 C352 1.385 . S
C352 H338 0.931 . S
C352 C351 1.385 . S
C352 C353 1.389 . S
C353 C352 1.389 . S
C353 C354 1.387 . S
C354 H339 0.930 . S
C354 C349 1.390 . S
C354 C353 1.387 . S
H355 C367 0.930 . S
H356 C369 0.930 . S
H357 C370 0.930 . S
H358 C374 0.959 . S
H359 C374 0.959 . S
H360 C374 0.961 . S
H361 C375 0.960 . S
H362 C375 0.961 . S
H363 C375 0.959 . S
H364 C378 0.929 . S
H365 C379 0.931 . S
H366 C381 0.930 . S
C367 H355 0.930 . S
C367 C368 1.399 . S
C367 C372 1.399 . S
C368 C367 1.399 . S
C368 C369 1.376 . S
C369 H356 0.930 . S
C369 C368 1.376 . S
C369 C370 1.388 . S
C370 H357 0.930 . S
C370 C369 1.388 . S
C370 C371 1.390 . S
C371 C370 1.390 . S
C371 C372 1.394 . S
C371 C377 1.465 . S
C372 C367 1.399 . S
C372 C371 1.394 . S
C372 C373 1.516 . S
C373 C372 1.516 . S
C373 C374 1.502 . S
C373 C375 1.561 . S
C373 C376 1.526 . S
C374 H358 0.959 . S
C374 H359 0.959 . S
C374 H360 0.961 . S
C374 C373 1.502 . S
C375 H361 0.960 . S
C375 H362 0.961 . S
C375 H363 0.959 . S
C375 C373 1.561 . S
C376 C373 1.526 . S
C376 C377 1.396 . S
C376 C381 1.390 . S
C377 C371 1.465 . S
C377 C376 1.396 . S
C377 C378 1.399 . S
C378 H364 0.929 . S
C378 C377 1.399 . S
C378 C379 1.385 . S
C379 H365 0.931 . S
C379 C378 1.385 . S
C379 C380 1.389 . S
C380 C379 1.389 . S
C380 C381 1.387 . S
C381 H366 0.930 . S
C381 C376 1.390 . S
C381 C380 1.387 . S
H382 C394 0.930 . S
H383 C396 0.930 . S
H384 C397 0.938 . S
H385 C401 0.959 . S
H386 C401 0.959 . S
H387 C401 0.961 . S
H388 C402 0.960 . S
H389 C402 0.961 . S
H390 C402 0.959 . S
H391 C405 0.929 . S
H392 C406 0.931 . S
H393 C408 0.930 . S
C394 H382 0.930 . S
C394 C395 1.399 . S
C394 C399 1.399 . S
C395 C394 1.399 . S
C395 C396 1.376 . S
C396 H383 0.930 . S
C396 C395 1.376 . S
C396 C397 1.388 . S
C397 H384 0.938 . S
C397 C396 1.388 . S
C397 C398 1.390 . S
C398 C397 1.390 . S
C398 C399 1.394 . S
C398 C404 1.465 1_455 S
C399 C394 1.399 . S
C399 C398 1.394 . S
C399 C400 1.516 . S
C400 C399 1.516 . S
C400 C401 1.502 . S
C400 C402 1.561 1_455 S
C400 C403 1.526 1_455 S
C401 H385 0.959 . S
C401 H386 0.959 . S
C401 H387 0.961 . S
C401 C400 1.502 . S
C402 H388 0.960 . S
C402 H389 0.961 . S
C402 H390 0.959 . S
C402 C400 1.561 1_655 S
C403 C400 1.526 1_655 S
C403 C404 1.396 . S
C403 C408 1.390 . S
C404 C398 1.465 1_655 S
C404 C403 1.396 . S
C404 C405 1.399 . S
C405 H391 0.929 . S
C405 C404 1.399 . S
C405 C406 1.385 . S
C406 H392 0.931 . S
C406 C405 1.385 . S
C406 C407 1.389 . S
C407 C406 1.389 . S
C407 C408 1.387 . S
C408 H393 0.930 . S
C408 C403 1.390 . S
C408 C407 1.387 . S
H409 C421 0.930 . S
H410 C423 0.930 . S
H411 C424 0.930 . S
H412 C428 0.959 . S
H413 C428 0.959 . S
H414 C428 0.961 . S
H415 C429 0.960 . S
H416 C429 0.961 . S
H417 C429 0.959 . S
H418 C432 0.929 . S
H419 C433 0.931 . S
H420 C435 0.930 . S
C421 H409 0.930 . S
C421 C422 1.399 . S
C421 C426 1.399 . S
C422 C421 1.399 . S
C422 C423 1.376 . S
C423 H410 0.930 . S
C423 C422 1.376 . S
C423 C424 1.388 . S
C424 H411 0.930 . S
C424 C423 1.388 . S
C424 C425 1.390 . S
C425 C424 1.390 . S
C425 C426 1.394 . S
C425 C431 1.465 . S
C426 C421 1.399 . S
C426 C425 1.394 . S
C426 C427 1.516 . S
C427 C426 1.516 . S
C427 C428 1.502 . S
C427 C429 1.561 . S
C427 C430 1.526 . S
C428 H412 0.959 . S
C428 H413 0.959 . S
C428 H414 0.961 . S
C428 C427 1.502 . S
C429 H415 0.960 . S
C429 H416 0.961 . S
C429 H417 0.959 . S
C429 C427 1.561 . S
C430 C427 1.526 . S
C430 C431 1.396 . S
C430 C435 1.390 . S
C431 C425 1.465 . S
C431 C430 1.396 . S
C431 C432 1.399 . S
C432 H418 0.929 . S
C432 C431 1.399 . S
C432 C433 1.385 . S
C433 H419 0.931 . S
C433 C432 1.385 . S
C433 C434 1.389 . S
C434 C433 1.389 . S
C434 C435 1.387 . S
C435 H420 0.930 . S
C435 C430 1.390 . S
C435 C434 1.387 . S
H436 C448 0.930 . S
H437 C450 0.930 . S
H438 C451 0.930 1_655 S
H439 C455 0.959 . S
H440 C455 0.959 . S
H441 C455 0.961 . S
H442 C456 0.947 1_445 S
H443 C456 0.980 . S
H444 C456 0.948 1_545 S
H445 C459 0.929 . S
H446 C460 0.931 . S
H447 C462 0.930 . S
C448 H436 0.930 . S
C448 C449 1.399 . S
C448 C453 1.399 . S
C449 C448 1.399 . S
C449 C450 1.376 1_554 S
C450 H437 0.930 . S
C450 C449 1.376 1_556 S
C450 C451 1.388 . S
C451 H438 0.930 1_455 S
C451 C450 1.388 . S
C451 C452 1.390 . S
C452 C451 1.390 . S
C452 C453 1.394 1_556 S
C452 C458 1.465 1_445 S
C453 C448 1.399 . S
C453 C452 1.394 1_554 S
C453 C454 1.516 1_545 S
C454 C453 1.516 1_565 S
C454 C455 1.502 . S
C454 C456 1.568 1_455 S
C454 C457 1.526 1_455 S
C455 H439 0.959 . S
C455 H440 0.959 . S
C455 H441 0.961 . S
C455 C454 1.502 . S
C456 H442 0.947 1_665 S
C456 H443 0.980 . S
C456 H444 0.948 1_565 S
C456 C454 1.568 1_655 S
C457 C454 1.526 1_655 S
C457 C458 1.396 1_554 S
C457 C462 1.390 . S
C458 C452 1.465 1_665 S
C458 C457 1.396 1_556 S
C458 C459 1.399 . S
C459 H445 0.929 . S
C459 C458 1.399 . S
C459 C460 1.385 . S
C460 H446 0.931 . S
C460 C459 1.385 . S
C460 C461 1.389 . S
C461 C460 1.389 . S
C461 C462 1.387 1_556 S
C462 H447 0.930 . S
C462 C457 1.390 . S
C462 C461 1.387 1_554 S
H463 C475 0.930 . S
H464 C477 0.930 . S
H465 C478 0.930 . S
H466 C482 0.959 . S
H467 C482 0.959 . S
H468 C482 0.961 . S
H469 C483 0.960 . S
H470 C483 0.961 . S
H471 C483 0.959 . S
H472 C486 0.929 . S
H473 C487 0.931 . S
H474 C489 0.930 . S
C475 H463 0.930 . S
C475 C476 1.399 . S
C475 C480 1.399 . S
C476 C475 1.399 . S
C476 C477 1.376 . S
C477 H464 0.930 . S
C477 C476 1.376 . S
C477 C478 1.388 . S
C478 H465 0.930 . S
C478 C477 1.388 . S
C478 C479 1.390 . S
C479 C478 1.390 . S
C479 C480 1.394 . S
C479 C485 1.465 . S
C480 C475 1.399 . S
C480 C479 1.394 . S
C480 C481 1.516 . S
C481 C480 1.516 . S
C481 C482 1.502 . S
C481 C483 1.561 . S
C481 C484 1.526 . S
C482 H466 0.959 . S
C482 H467 0.959 . S
C482 H468 0.961 . S
C482 C481 1.502 . S
C483 H469 0.960 . S
C483 H470 0.961 . S
C483 H471 0.959 . S
C483 C481 1.561 . S
C484 C481 1.526 . S
C484 C485 1.396 . S
C484 C489 1.390 . S
C485 C479 1.465 . S
C485 C484 1.396 . S
C485 C486 1.399 . S
C486 H472 0.929 . S
C486 C485 1.399 . S
C486 C487 1.385 . S
C487 H473 0.931 . S
C487 C486 1.385 . S
C487 C488 1.389 . S
C488 C487 1.389 . S
C488 C489 1.387 . S
C489 H474 0.930 . S
C489 C484 1.390 . S
C489 C488 1.387 . S
H490 C502 0.931 . S
H491 C504 0.930 . S
H492 C505 0.930 . S
H493 C509 0.959 . S
H494 C509 0.959 . S
H495 C509 0.961 . S
H496 C510 0.960 . S
H497 C510 0.961 . S
H498 C510 0.959 . S
H499 C513 0.929 . S
H500 C514 0.931 1_554 S
H501 C516 0.930 . S
C502 H490 0.931 . S
C502 C503 1.399 . S
C502 C507 1.399 . S
C503 C502 1.399 . S
C503 C504 1.376 . S
C504 H491 0.930 . S
C504 C503 1.376 . S
C504 C505 1.388 . S
C505 H492 0.930 . S
C505 C504 1.388 . S
C505 C506 1.390 . S
C506 C505 1.390 . S
C506 C507 1.394 . S
C506 C512 1.465 . S
C507 C502 1.399 . S
C507 C506 1.394 . S
C507 C508 1.517 . S
C508 C507 1.517 . S
C508 C509 1.493 1_554 S
C508 C510 1.570 . S
C508 C511 1.525 1_554 S
C509 H493 0.959 . S
C509 H494 0.959 . S
C509 H495 0.961 . S
C509 C508 1.493 1_556 S
C510 H496 0.960 . S
C510 H497 0.961 . S
C510 H498 0.959 . S
C510 C508 1.570 . S
C511 C508 1.525 1_556 S
C511 C512 1.396 1_556 S
C511 C516 1.390 . S
C512 C506 1.465 . S
C512 C511 1.396 1_554 S
C512 C513 1.399 . S
C513 H499 0.929 . S
C513 C512 1.399 . S
C513 C514 1.385 1_554 S
C514 H500 0.931 1_556 S
C514 C513 1.385 1_556 S
C514 C515 1.390 . S
C515 C514 1.390 . S
C515 C516 1.387 . S
C516 H501 0.930 . S
C516 C511 1.390 . S
C516 C515 1.387 . S
H517 C529 0.930 . S
H518 C531 0.930 . S
H519 C532 0.930 1_655 S
H520 C536 0.959 . S
H521 C536 0.959 . S
H522 C536 0.961 . S
H523 C537 0.960 1_455 S
H524 C537 0.961 1_545 S
H525 C537 0.959 . S
H526 C540 0.929 . S
H527 C541 0.931 . S
H528 C543 0.930 . S
C529 H517 0.930 . S
C529 C530 1.399 . S
C529 C534 1.399 . S
C530 C529 1.399 . S
C530 C531 1.376 . S
C531 H518 0.930 . S
C531 C530 1.376 . S
C531 C532 1.388 . S
C532 H519 0.930 1_455 S
C532 C531 1.388 . S
C532 C533 1.391 . S
C533 C532 1.391 . S
C533 C534 1.405 . S
C533 C539 1.454 1_465 S
C534 C529 1.399 . S
C534 C533 1.405 . S
C534 C535 1.516 1_565 S
C535 C534 1.516 1_545 S
C535 C536 1.502 . S
C535 C537 1.561 1_445 S
C535 C538 1.526 1_455 S
C536 H520 0.959 . S
C536 H521 0.959 . S
C536 H522 0.961 . S
C536 C535 1.502 . S
C537 H523 0.960 1_655 S
C537 H524 0.961 1_565 S
C537 H525 0.959 . S
C537 C535 1.561 1_665 S
C538 C535 1.526 1_655 S
C538 C539 1.396 . S
C538 C543 1.390 . S
C539 C533 1.454 1_645 S
C539 C538 1.396 . S
C539 C540 1.399 . S
C540 H526 0.929 . S
C540 C539 1.399 . S
C540 C541 1.385 . S
C541 H527 0.931 . S
C541 C540 1.385 . S
C541 C542 1.389 . S
C542 C541 1.389 . S
C542 C543 1.387 . S
C543 H528 0.930 . S
C543 C538 1.390 . S
C543 C542 1.387 . S
C125 C22 1.637 . S
C137 C6 1.619 . S
C152 C8 1.615 . S
C164 C20 1.631 . S
C179 C50 1.611 . S
C191 C34 1.643 . S
C206 C36 1.633 . S
C218 C48 1.620 . S
C233 C62 1.621 . S
C245 C78 1.639 . S
C260 C76 1.642 . S
C272 C64 1.610 . S
C287 C90 1.625 . S
C299 C106 1.633 . S
C314 C92 1.635 . S
C326 C104 1.622 . S
C341 C9 0.624 . S
C353 C51 0.480 . S
C368 C23 0.565 . S
C380 C37 0.683 . S
C395 C107 0.693 . S
C407 C65 0.655 . S
C422 C93 0.448 . S
C434 C79 0.480 . S
C449 C7 1.522 . S
C461 C63 1.469 . S
C476 C77 1.465 . S
C488 C21 1.536 . S
C503 C91 1.479 . S
C515 C35 1.508 . S
C530 C105 1.476 . S
C542 C49 1.529 . S
