# Generated by pormake.
# Topology ukf, (4)-cn, num edge types: 1
# Building blocks:
#     Node 0, Type 0, BuildingBlock: AZAVOO_clean_sbu_0, # of connection points: 4
#     Node 1, Type 0, BuildingBlock: AZAVOO_clean_sbu_0, # of connection points: 4
#     Node 2, Type 0, BuildingBlock: AZAVOO_clean_sbu_0, # of connection points: 4
#     Node 3, Type 0, BuildingBlock: AZAVOO_clean_sbu_0, # of connection points: 4
#     Node 4, Type 0, BuildingBlock: AZAVOO_clean_sbu_0, # of connection points: 4
#     Node 5, Type 0, BuildingBlock: AZAVOO_clean_sbu_0, # of connection points: 4
#     Node 6, Type 0, BuildingBlock: AZAVOO_clean_sbu_0, # of connection points: 4
#     Node 7, Type 0, BuildingBlock: AZAVOO_clean_sbu_0, # of connection points: 4
#     Node 8, Type 0, BuildingBlock: AZAVOO_clean_sbu_0, # of connection points: 4
#     Node 9, Type 0, BuildingBlock: AZAVOO_clean_sbu_0, # of connection points: 4
#     Node 10, Type 0, BuildingBlock: AZAVOO_clean_sbu_0, # of connection points: 4
#     Node 11, Type 0, BuildingBlock: AZAVOO_clean_sbu_0, # of connection points: 4
#     Edge 12, Type (0, 0), BuildingBlock: MIFKUJ_clean_linker_0, # of connection points: 2
#     Edge 13, Type (0, 0), BuildingBlock: MIFKUJ_clean_linker_0, # of connection points: 2
#     Edge 14, Type (0, 0), BuildingBlock: MIFKUJ_clean_linker_0, # of connection points: 2
#     Edge 15, Type (0, 0), BuildingBlock: MIFKUJ_clean_linker_0, # of connection points: 2
#     Edge 16, Type (0, 0), BuildingBlock: MIFKUJ_clean_linker_0, # of connection points: 2
#     Edge 17, Type (0, 0), BuildingBlock: MIFKUJ_clean_linker_0, # of connection points: 2
#     Edge 18, Type (0, 0), BuildingBlock: MIFKUJ_clean_linker_0, # of connection points: 2
#     Edge 19, Type (0, 0), BuildingBlock: MIFKUJ_clean_linker_0, # of connection points: 2
#     Edge 20, Type (0, 0), BuildingBlock: MIFKUJ_clean_linker_0, # of connection points: 2
#     Edge 21, Type (0, 0), BuildingBlock: MIFKUJ_clean_linker_0, # of connection points: 2
#     Edge 22, Type (0, 0), BuildingBlock: MIFKUJ_clean_linker_0, # of connection points: 2
#     Edge 23, Type (0, 0), BuildingBlock: MIFKUJ_clean_linker_0, # of connection points: 2
#     Edge 24, Type (0, 0), BuildingBlock: MIFKUJ_clean_linker_0, # of connection points: 2
#     Edge 25, Type (0, 0), BuildingBlock: MIFKUJ_clean_linker_0, # of connection points: 2
#     Edge 26, Type (0, 0), BuildingBlock: MIFKUJ_clean_linker_0, # of connection points: 2
#     Edge 27, Type (0, 0), BuildingBlock: MIFKUJ_clean_linker_0, # of connection points: 2
#     Edge 28, Type (0, 0), BuildingBlock: MIFKUJ_clean_linker_0, # of connection points: 2
#     Edge 29, Type (0, 0), BuildingBlock: MIFKUJ_clean_linker_0, # of connection points: 2
#     Edge 30, Type (0, 0), BuildingBlock: MIFKUJ_clean_linker_0, # of connection points: 2
#     Edge 31, Type (0, 0), BuildingBlock: MIFKUJ_clean_linker_0, # of connection points: 2
#     Edge 32, Type (0, 0), BuildingBlock: MIFKUJ_clean_linker_0, # of connection points: 2
#     Edge 33, Type (0, 0), BuildingBlock: MIFKUJ_clean_linker_0, # of connection points: 2
#     Edge 34, Type (0, 0), BuildingBlock: MIFKUJ_clean_linker_0, # of connection points: 2
#     Edge 35, Type (0, 0), BuildingBlock: MIFKUJ_clean_linker_0, # of connection points: 2
# Relax obj value: 0.209
# Max RMSD: 0.201
# Mean RMSD: 0.201
data_MOF--net-ukf--node1-AZAVOO_clean_sbu_0--edge1-MIFKUJ_clean_linker_0
_symmetry_space_group_name_H-M    P1
_symmetry_Int_Tables_number       1
_symmetry_cell_setting            triclinic
loop_
_symmetry_equiv_pos_as_xyz
'x, y, z'
_cell_length_a     40.869111
_cell_length_b     40.90065
_cell_length_c     82.547605
_cell_angle_alpha  90.014905
_cell_angle_beta   90.008315
_cell_angle_gamma 120.0706
loop_
_atom_site_label
_atom_site_type_symbol
_atom_site_fract_x
_atom_site_fract_y
_atom_site_fract_z
_atom_type_partial_charge
Mg0 Mg 0.42424 0.26317 0.04164 0.0
O1 O 0.48598 0.27893 0.03677 0.0
O2 O 0.52266 0.33913 0.04452 0.0
Mg3 Mg 0.4852 0.36081 0.05492 0.0
C4 C 0.51848 0.30857 0.0384 0.0
C5 C 0.37027 0.17794 0.04264 0.0
O6 O 0.35233 0.19121 0.05117 0.0
O7 O 0.43202 0.25802 0.06873 0.0
O8 O 0.46687 0.31856 0.07598 0.0
O9 O 0.42098 0.28415 0.01705 0.0
O10 O 0.44008 0.31965 0.03911 0.0
C11 C 0.44874 0.28345 0.07953 0.0
C12 C 0.43562 0.31727 0.02361 0.0
O13 O 0.40319 0.20092 0.03741 0.0
Mg14 Mg 0.14815 0.40369 0.37999 0.0
O15 O 0.19282 0.46408 0.37285 0.0
O16 O 0.17376 0.50364 0.38145 0.0
Mg17 Mg 0.11835 0.46854 0.39526 0.0
C18 C 0.19749 0.49728 0.3741 0.0
C19 C 0.18131 0.35072 0.37744 0.0
O20 O 0.1514 0.33026 0.38648 0.0
O21 O 0.16931 0.4148 0.40602 0.0
O22 O 0.14911 0.45342 0.41469 0.0
O23 O 0.11704 0.3991 0.35713 0.0
O24 O 0.10704 0.41908 0.38052 0.0
C25 C 0.16589 0.43458 0.41715 0.0
C26 C 0.10027 0.41362 0.36522 0.0
O27 O 0.18861 0.38345 0.37307 0.0
Mg28 Mg 0.74438 0.15972 0.71652 0.0
O29 O 0.72675 0.20299 0.70943 0.0
O30 O 0.66896 0.1839 0.71921 0.0
Mg31 Mg 0.65156 0.13055 0.73404 0.0
C32 C 0.69796 0.2071 0.71108 0.0
C33 C 0.80921 0.21167 0.69348 0.0
O34 O 0.77973 0.19994 0.6839 0.0
O35 O 0.75766 0.18296 0.74218 0.0
O36 O 0.70001 0.16366 0.75223 0.0
O37 O 0.71509 0.12626 0.69452 0.0
O38 O 0.68797 0.11821 0.71851 0.0
C39 C 0.73596 0.18064 0.75379 0.0
C40 C 0.68479 0.11012 0.7033 0.0
O41 O 0.80416 0.20051 0.70811 0.0
Mg42 Mg 0.56728 0.73178 0.03849 0.0
O43 O 0.50664 0.7188 0.03303 0.0
O44 O 0.46742 0.65928 0.04083 0.0
Mg45 Mg 0.50218 0.63588 0.05243 0.0
C46 C 0.47338 0.69024 0.03446 0.0
C47 C 0.62621 0.81069 0.03018 0.0
O48 O 0.6438 0.79127 0.03118 0.0
O49 O 0.55966 0.73928 0.06531 0.0
O50 O 0.52004 0.67972 0.073 0.0
O51 O 0.56876 0.70748 0.0145 0.0
O52 O 0.55026 0.67502 0.03739 0.0
C53 C 0.54019 0.71498 0.07616 0.0
C54 C 0.55464 0.67536 0.02193 0.0
O55 O 0.59099 0.79397 0.03315 0.0
Mg56 Mg 0.84742 0.58496 0.38487 0.0
O57 O 0.80393 0.52474 0.37739 0.0
O58 O 0.82483 0.48598 0.38493 0.0
Mg59 Mg 0.88152 0.52212 0.39799 0.0
C60 C 0.80009 0.49184 0.37818 0.0
C61 C 0.8177 0.63915 0.38026 0.0
O62 O 0.8521 0.66115 0.3858 0.0
O63 O 0.82765 0.57148 0.411 0.0
O64 O 0.85225 0.53584 0.41869 0.0
O65 O 0.87752 0.5922 0.3615 0.0
O66 O 0.8902 0.57188 0.38421 0.0
C67 C 0.83394 0.55291 0.42178 0.0
C68 C 0.89612 0.57876 0.36894 0.0
O69 O 0.80547 0.60396 0.37908 0.0
Mg70 Mg 0.25527 0.83117 0.71982 0.0
O71 O 0.26741 0.78383 0.71275 0.0
O72 O 0.32541 0.80081 0.72183 0.0
Mg73 Mg 0.34921 0.85726 0.73513 0.0
C74 C 0.2951 0.77785 0.71434 0.0
C75 C 0.17421 0.81077 0.7127 0.0
O76 O 0.19045 0.84653 0.71691 0.0
O77 O 0.24476 0.81092 0.74602 0.0
O78 O 0.30336 0.83051 0.75486 0.0
O79 O 0.28132 0.8613 0.69674 0.0
O80 O 0.31294 0.86942 0.71957 0.0
C81 C 0.26779 0.8149 0.75734 0.0
C82 C 0.31336 0.87611 0.70428 0.0
O83 O 0.19347 0.79424 0.71324 0.0
Mg84 Mg 0.73536 0.60511 0.62132 0.0
O85 O 0.71911 0.5448 0.62856 0.0
O86 O 0.65988 0.50571 0.62037 0.0
Mg87 Mg 0.6391 0.54121 0.6072 0.0
C88 C 0.69025 0.51174 0.62741 0.0
C89 C 0.81454 0.65812 0.63369 0.0
O90 O 0.79753 0.67807 0.63485 0.0
O91 O 0.74339 0.59217 0.59524 0.0
O92 O 0.68347 0.55563 0.58715 0.0
O93 O 0.7108 0.61084 0.64454 0.0
O94 O 0.67889 0.59044 0.62159 0.0
C95 C 0.71901 0.57311 0.58433 0.0
C96 C 0.67882 0.59614 0.63694 0.0
O97 O 0.79642 0.62509 0.62774 0.0
Mg98 Mg 0.10482 0.73576 0.95615 0.0
O99 O 0.14795 0.71856 0.96389 0.0
O100 O 0.1264 0.65842 0.95686 0.0
Mg101 Mg 0.0709 0.63853 0.9431 0.0
C102 C 0.15129 0.68916 0.96347 0.0
C103 C 0.13581 0.81311 0.9718 0.0
O104 O 0.10028 0.79482 0.97644 0.0
O105 O 0.12598 0.74232 0.93009 0.0
O106 O 0.10353 0.68201 0.92304 0.0
O107 O 0.07417 0.71217 0.97941 0.0
O108 O 0.06174 0.67955 0.95663 0.0
C109 C 0.1217 0.71729 0.91971 0.0
C110 C 0.05607 0.6801 0.97195 0.0
O111 O 0.14759 0.79666 0.96238 0.0
Mg112 Mg 0.40369 0.14033 0.28097 0.0
O113 O 0.46285 0.18688 0.28891 0.0
O114 O 0.50481 0.17156 0.27965 0.0
Mg115 Mg 0.47319 0.11771 0.26462 0.0
C116 C 0.49673 0.19333 0.28764 0.0
C117 C 0.35133 0.16035 0.29893 0.0
O118 O 0.33802 0.12457 0.30248 0.0
O119 O 0.41412 0.16451 0.25529 0.0
O120 O 0.45546 0.14811 0.24631 0.0
O121 O 0.40146 0.1081 0.30317 0.0
O122 O 0.42286 0.10204 0.27942 0.0
C123 C 0.43513 0.16335 0.2441 0.0
C124 C 0.41828 0.0943 0.29466 0.0
O125 O 0.37935 0.17655 0.28936 0.0
Mg126 Mg 0.25846 0.38561 0.61793 0.0
O127 O 0.27297 0.44511 0.62579 0.0
O128 O 0.3326 0.48643 0.61905 0.0
Mg129 Mg 0.35497 0.45313 0.60529 0.0
C130 C 0.30123 0.47863 0.62561 0.0
C131 C 0.18897 0.3718 0.63752 0.0
O132 O 0.2163 0.38836 0.64821 0.0
O133 O 0.25199 0.39908 0.5918 0.0
O134 O 0.31167 0.44025 0.58485 0.0
O135 O 0.28194 0.37952 0.64134 0.0
O136 O 0.31533 0.40174 0.61883 0.0
C137 C 0.27645 0.4209 0.58147 0.0
C138 C 0.31448 0.39549 0.63417 0.0
O139 O 0.19688 0.3658 0.62334 0.0
Mg140 Mg 0.88049 0.26385 0.95439 0.0
O141 O 0.83703 0.28178 0.96057 0.0
O142 O 0.86072 0.34245 0.95389 0.0
Mg143 Mg 0.91793 0.36186 0.94184 0.0
C144 C 0.8345 0.31164 0.95991 0.0
C145 C 0.84808 0.18006 0.9619 0.0
O146 O 0.88451 0.19243 0.96074 0.0
O147 O 0.86442 0.25912 0.92774 0.0
O148 O 0.8881 0.31975 0.92097 0.0
O149 O 0.90621 0.28513 0.97857 0.0
O150 O 0.92369 0.31959 0.95616 0.0
C151 C 0.87039 0.28464 0.91734 0.0
C152 C 0.92564 0.31781 0.97169 0.0
O153 O 0.83618 0.20289 0.95925 0.0
Mg154 Mg 0.59934 0.84551 0.27895 0.0
O155 O 0.53943 0.80279 0.28778 0.0
O156 O 0.50038 0.82327 0.28008 0.0
Mg157 Mg 0.5344 0.8762 0.26474 0.0
C158 C 0.50666 0.7995 0.28743 0.0
C159 C 0.65217 0.82221 0.29296 0.0
O160 O 0.67038 0.85929 0.29383 0.0
O161 O 0.58468 0.82177 0.25334 0.0
O162 O 0.54453 0.84106 0.24563 0.0
O163 O 0.60772 0.87928 0.30129 0.0
O164 O 0.58561 0.88774 0.27813 0.0
C165 C 0.56267 0.82369 0.24288 0.0
C166 C 0.59339 0.89621 0.2932 0.0
O167 O 0.61973 0.80549 0.28638 0.0
H168 H 0.21158 0.8582 0.96563 0.0
H169 H 0.25478 0.92004 0.9775 0.0
H170 H 0.1625 0.91525 0.00484 0.0
H171 H 0.11917 0.854 0.99287 0.0
H172 H 0.2046 0.98313 0.99169 0.0
H173 H 0.22733 0.89615 0.02237 0.0
H174 H 0.24372 0.84618 0.02589 0.0
H175 H 0.35222 0.91744 0.00413 0.0
H176 H 0.33625 0.96767 1.00028 0.0
H177 H 0.29843 0.12311 0.0502 0.0
H178 H 0.26226 0.06032 0.0382 0.0
H179 H 0.35989 0.07978 0.01052 0.0
H180 H 0.39655 0.14276 0.02256 0.0
H181 H 0.31858 0.00604 0.02243 0.0
H182 H 0.29636 0.09368 0.9926 0.0
H183 H 0.27979 0.14354 0.98919 0.0
H184 H 0.16988 0.0705 0.00938 0.0
H185 H 0.18601 0.02037 0.01314 0.0
C186 C 0.20048 0.87043 0.97411 0.0
C187 C 0.16195 0.85116 0.97834 0.0
C188 C 0.22524 0.90565 0.98095 0.0
C189 C 0.21193 0.92202 0.99221 0.0
C190 C 0.17338 0.90312 0.9962 0.0
C191 C 0.14865 0.86805 0.98935 0.0
C192 C 0.2379 0.95891 0.99987 0.0
C193 C 0.22929 0.98796 0.99855 0.0
C194 C 0.27068 0.96555 0.00846 0.0
C195 C 0.28043 0.9355 0.01088 0.0
C196 C 0.25457 0.90105 0.01823 0.0
C197 C 0.2638 0.8727 0.0203 0.0
C198 C 0.29894 0.87859 0.01519 0.0
C199 C 0.32498 0.9129 0.00805 0.0
C200 C 0.31587 0.94132 0.00593 0.0
C201 C 0.31245 0.11391 0.04174 0.0
C202 C 0.35024 0.13813 0.03718 0.0
C203 C 0.29168 0.07804 0.03487 0.0
C204 C 0.30824 0.06575 0.02327 0.0
C205 C 0.34658 0.08887 0.0194 0.0
C206 C 0.36743 0.12486 0.02627 0.0
C207 C 0.28476 0.02983 0.01448 0.0
C208 C 0.29394 0.00112 0.01552 0.0
C209 C 0.25241 0.0234 0.00563 0.0
C210 C 0.24253 0.0534 0.00329 0.0
C211 C 0.26876 0.08836 0.99643 0.0
C212 C 0.25943 0.11665 0.99441 0.0
C213 C 0.22383 0.11022 0.9991 0.0
C214 C 0.19746 0.07545 0.00578 0.0
C215 C 0.20667 0.04708 0.00784 0.0
H216 H 0.21666 0.13216 0.99753 0.0
H217 H 0.30603 0.8566 0.01679 0.0
H218 H 0.17053 0.28003 0.38273 0.0
H219 H 0.20437 0.25152 0.37019 0.0
H220 H 0.27715 0.35608 0.3453 0.0
H221 H 0.24313 0.38471 0.35762 0.0
H222 H 0.24928 0.29727 0.32492 0.0
H223 H 0.31073 0.32696 0.37648 0.0
H224 H 0.31482 0.32836 0.40629 0.0
H225 H 0.25694 0.20714 0.40753 0.0
H226 H 0.25202 0.20497 0.37772 0.0
H227 H 0.37271 0.2349 0.29479 0.0
H228 H 0.34747 0.27037 0.30872 0.0
H229 H 0.26875 0.16972 0.33465 0.0
H230 H 0.29393 0.13417 0.32093 0.0
H231 H 0.30393 0.2304 0.35464 0.0
H232 H 0.23903 0.20082 0.30338 0.0
H233 H 0.23421 0.1991 0.27358 0.0
H234 H 0.29842 0.32028 0.27193 0.0
H235 H 0.30406 0.3227 0.30173 0.0
C236 C 0.19401 0.29712 0.37474 0.0
C237 C 0.20404 0.33458 0.37112 0.0
C238 C 0.21342 0.28082 0.36763 0.0
C239 C 0.24341 0.30177 0.35689 0.0
C240 C 0.25407 0.33944 0.35355 0.0
C241 C 0.23465 0.35576 0.36064 0.0
C242 C 0.26214 0.28364 0.34842 0.0
C243 C 0.26187 0.28325 0.33142 0.0
C244 C 0.27775 0.26463 0.35692 0.0
C245 C 0.28073 0.26581 0.37486 0.0
C246 C 0.2986 0.30059 0.38311 0.0
C247 C 0.30112 0.30152 0.40001 0.0
C248 C 0.28608 0.26786 0.4088 0.0
C249 C 0.26856 0.23319 0.4007 0.0
C250 C 0.26593 0.23209 0.3838 0.0
C251 C 0.34991 0.22029 0.3034 0.0
C252 C 0.33527 0.18171 0.30674 0.0
C253 C 0.3355 0.24058 0.31133 0.0
C254 C 0.30615 0.22259 0.32266 0.0
C255 C 0.29148 0.18412 0.32598 0.0
C256 C 0.3058 0.16383 0.31806 0.0
C257 C 0.29076 0.24382 0.33117 0.0
C258 C 0.29163 0.24474 0.34817 0.0
C259 C 0.27568 0.26331 0.32268 0.0
C260 C 0.27233 0.26192 0.30477 0.0
C261 C 0.25241 0.22708 0.29665 0.0
C262 C 0.24947 0.22599 0.27976 0.0
C263 C 0.2661 0.25956 0.27086 0.0
C264 C 0.28562 0.2943 0.27884 0.0
C265 C 0.28867 0.29555 0.29573 0.0
H266 H 0.26378 0.25865 0.25779 0.0
H267 H 0.28806 0.26865 0.42188 0.0
H268 H 0.83006 0.22999 0.66187 0.0
H269 H 0.89425 0.26367 0.65092 0.0
H270 H 0.93982 0.27985 0.69926 0.0
H271 H 0.87571 0.24608 0.71037 0.0
H272 H 0.97867 0.34438 0.67878 0.0
H273 H 0.93346 0.20977 0.67854 0.0
H274 H 0.88838 0.14336 0.67161 0.0
H275 H 0.90341 0.17113 0.62098 0.0
H276 H 0.94821 0.23786 0.62763 0.0
H277 H 0.16208 0.37312 0.66758 0.0
H278 H 0.09693 0.35201 0.67531 0.0
H279 H 0.06183 0.32373 0.62551 0.0
H280 H 0.12699 0.34392 0.61773 0.0
H281 H 0.01594 0.2686 0.64456 0.0
H282 H 0.06592 0.40152 0.64403 0.0
H283 H 0.11114 0.46823 0.65037 0.0
H284 H 0.08722 0.44569 0.70109 0.0
H285 H 0.04228 0.37869 0.69509 0.0
C286 C 0.8537 0.24108 0.67021 0.0
C287 C 0.84784 0.23505 0.68698 0.0
C288 C 0.89032 0.26028 0.66391 0.0
C289 C 0.92163 0.2739 0.67429 0.0
C290 C 0.91593 0.26951 0.69108 0.0
C291 C 0.87931 0.25005 0.69739 0.0
C292 C 0.96024 0.29035 0.66761 0.0
C293 C 0.98703 0.32787 0.67138 0.0
C294 C 0.97061 0.26897 0.65759 0.0
C295 C 0.94382 0.22885 0.65359 0.0
C296 C 0.92689 0.20177 0.66594 0.0
C297 C 0.90145 0.16406 0.66206 0.0
C298 C 0.89294 0.15306 0.64587 0.0
C299 C 0.90996 0.17972 0.63352 0.0
C300 C 0.93539 0.21747 0.63733 0.0
C301 C 0.14057 0.3626 0.65824 0.0
C302 C 0.14966 0.36011 0.64204 0.0
C303 C 0.10334 0.35078 0.66267 0.0
C304 C 0.07458 0.33681 0.65095 0.0
C305 C 0.08362 0.33453 0.63474 0.0
C306 C 0.12084 0.34607 0.63032 0.0
C307 C 0.03482 0.32273 0.65582 0.0
C308 C 0.0077 0.2855 0.65175 0.0
C309 C 0.02415 0.34456 0.66544 0.0
C310 C 0.0509 0.38496 0.66911 0.0
C311 C 0.07048 0.41071 0.65655 0.0
C312 C 0.09604 0.4486 0.66008 0.0
C313 C 0.1021 0.46117 0.67612 0.0
C314 C 0.08252 0.4359 0.68867 0.0
C315 C 0.05695 0.39797 0.68521 0.0
H316 H 0.12192 0.49051 0.67883 0.0
H317 H 0.87325 0.12385 0.64289 0.0
H318 H 0.70079 0.85248 0.02242 0.0
H319 H 0.73454 0.91657 0.01179 0.0
H320 H 0.63269 0.92333 0.01474 0.0
H321 H 0.59828 0.85852 0.0252 0.0
H322 H 0.66765 0.94896 0.986 0.0
H323 H 0.70416 0.97154 0.04155 0.0
H324 H 0.72793 0.96223 0.06758 0.0
H325 H 0.8342 0.99172 0.04536 0.0
H326 H 0.81089 0.0007 0.01913 0.0
H327 H 0.77253 0.1479 0.96865 0.0
H328 H 0.73126 0.08587 0.98069 0.0
H329 H 0.82337 0.06284 0.98049 0.0
H330 H 0.86491 0.12488 0.96868 0.0
H331 H 0.78902 0.04782 0.0095 0.0
H332 H 0.75027 0.02037 0.95354 0.0
H333 H 0.7262 0.02933 0.92751 0.0
H334 H 0.6238 0.00932 0.95076 0.0
H335 H 0.6475 0.00073 0.97699 0.0
C336 C 0.68552 0.86759 0.02094 0.0
C337 C 0.64683 0.85041 0.02467 0.0
C338 C 0.70494 0.90435 0.01492 0.0
C339 C 0.68624 0.92489 0.01266 0.0
C340 C 0.64765 0.90797 0.01645 0.0
C341 C 0.6281 0.87103 0.02247 0.0
C342 C 0.707 0.96349 0.00577 0.0
C343 C 0.69382 0.97086 0.9913 0.0
C344 C 0.74145 0.99179 0.01255 0.0
C345 C 0.75565 0.98654 0.02833 0.0
C346 C 0.7325 0.97578 0.04218 0.0
C347 C 0.74592 0.9706 0.05698 0.0
C348 C 0.78253 0.97631 0.05812 0.0
C349 C 0.80584 0.98729 0.04446 0.0
C350 C 0.79256 0.99248 0.02963 0.0
C351 C 0.7839 0.12947 0.97101 0.0
C352 C 0.82205 0.14136 0.96776 0.0
C353 C 0.76024 0.09401 0.97786 0.0
C354 C 0.77425 0.06974 0.98145 0.0
C355 C 0.81206 0.08122 0.97787 0.0
C356 C 0.83572 0.11664 0.97107 0.0
C357 C 0.75014 0.03298 0.98954 0.0
C358 C 0.76266 0.02604 0.00428 0.0
C359 C 0.71509 0.00517 0.98302 0.0
C360 C 0.70084 0.01034 0.96726 0.0
C361 C 0.72276 0.01821 0.95313 0.0
C362 C 0.70916 0.02315 0.93833 0.0
C363 C 0.67355 0.02002 0.93749 0.0
C364 C 0.65142 0.01182 0.95144 0.0
C365 C 0.6649 0.00688 0.96627 0.0
H366 H 0.66306 0.02384 0.92602 0.0
H367 H 0.79286 0.97229 0.06959 0.0
H368 H 0.71928 0.85048 0.30889 0.0
H369 H 0.74394 0.8155 0.32331 0.0
H370 H 0.64605 0.71032 0.30921 0.0
H371 H 0.62066 0.74529 0.2949 0.0
H372 H 0.66175 0.71034 0.34092 0.0
H373 H 0.73093 0.73867 0.29143 0.0
H374 H 0.77049 0.77858 0.26896 0.0
H375 H 0.86001 0.84546 0.30236 0.0
H376 H 0.82078 0.80627 0.32508 0.0
H377 H 0.74784 0.60213 0.36599 0.0
H378 H 0.71601 0.63043 0.35146 0.0
H379 H 0.80644 0.74164 0.36423 0.0
H380 H 0.83856 0.7137 0.37868 0.0
H381 H 0.79184 0.73401 0.33182 0.0
H382 H 0.72078 0.70651 0.38144 0.0
H383 H 0.68086 0.66591 0.40369 0.0
H384 H 0.59454 0.59606 0.36956 0.0
H385 H 0.63419 0.63596 0.34707 0.0
C386 C 0.70305 0.8199 0.30872 0.0
C387 C 0.66803 0.80065 0.30072 0.0
C388 C 0.71728 0.79994 0.31694 0.0
C389 C 0.69701 0.76031 0.31718 0.0
C390 C 0.66214 0.74091 0.30913 0.0
C391 C 0.64778 0.76092 0.30091 0.0
C392 C 0.712 0.73947 0.32629 0.0
C393 C 0.68994 0.71496 0.33876 0.0
C394 C 0.74902 0.74607 0.32363 0.0
C395 C 0.77277 0.76969 0.30998 0.0
C396 C 0.75894 0.76206 0.29401 0.0
C397 C 0.78133 0.78453 0.28122 0.0
C398 C 0.81771 0.81459 0.28423 0.0
C399 C 0.83181 0.82219 0.30005 0.0
C400 C 0.80953 0.79983 0.31288 0.0
C401 C 0.76067 0.6326 0.36592 0.0
C402 C 0.79587 0.65571 0.37339 0.0
C403 C 0.74239 0.6487 0.35764 0.0
C404 C 0.75894 0.6881 0.35676 0.0
C405 C 0.79332 0.71115 0.36472 0.0
C406 C 0.81156 0.69512 0.37302 0.0
C407 C 0.74189 0.70549 0.34664 0.0
C408 C 0.76356 0.72924 0.33393 0.0
C409 C 0.7045 0.69801 0.34904 0.0
C410 C 0.68064 0.67398 0.36255 0.0
C411 C 0.69344 0.68229 0.37866 0.0
C412 C 0.67082 0.65945 0.39132 0.0
C413 C 0.63523 0.62836 0.38803 0.0
C414 C 0.62214 0.62011 0.37208 0.0
C415 C 0.64466 0.64285 0.35938 0.0
H416 H 0.61776 0.61072 0.39785 0.0
H417 H 0.83501 0.83195 0.27432 0.0
H418 H 0.856 0.62237 0.63533 0.0
H419 H 0.91791 0.64581 0.64806 0.0
H420 H 0.92134 0.75013 0.66011 0.0
H421 H 0.85989 0.72723 0.64727 0.0
H422 H 0.98845 0.7628 0.64878 0.0
H423 H 0.89663 0.68085 0.68824 0.0
H424 H 0.84312 0.62083 0.69802 0.0
H425 H 0.90652 0.56478 0.68929 0.0
H426 H 0.96025 0.62441 0.67925 0.0
H427 H 0.12651 0.83889 0.70954 0.0
H428 H 0.06563 0.80983 0.69565 0.0
H429 H 0.07405 0.71071 0.68585 0.0
H430 H 0.13494 0.73941 0.69994 0.0
H431 H 0.00255 0.69246 0.69469 0.0
H432 H 0.09567 0.77504 0.65664 0.0
H433 H 0.14923 0.83497 0.64683 0.0
H434 H 0.08352 0.88956 0.65264 0.0
H435 H 0.02972 0.83007 0.66271 0.0
C436 C 0.87008 0.65041 0.64059 0.0
C437 C 0.85296 0.67288 0.64037 0.0
C438 C 0.90534 0.66367 0.64792 0.0
C439 C 0.92394 0.6995 0.65521 0.0
C440 C 0.90741 0.72236 0.65458 0.0
C441 C 0.87223 0.70917 0.64726 0.0
C442 C 0.96036 0.71317 0.66377 0.0
C443 C 0.99145 0.7476 0.65891 0.0
C444 C 0.96448 0.69278 0.67671 0.0
C445 C 0.93229 0.65698 0.68283 0.0
C446 C 0.89905 0.65566 0.68829 0.0
C447 C 0.8687 0.62172 0.6939 0.0
C448 C 0.87137 0.58898 0.69423 0.0
C449 C 0.90446 0.59015 0.689 0.0
C450 C 0.93488 0.62401 0.68336 0.0
C451 C 0.11531 0.81076 0.70457 0.0
C452 C 0.13572 0.79159 0.70572 0.0
C453 C 0.08058 0.79427 0.69657 0.0
C454 C 0.06572 0.75844 0.68946 0.0
C455 C 0.08518 0.73849 0.69118 0.0
C456 C 0.11996 0.75496 0.69922 0.0
C457 C 0.03041 0.74241 0.67986 0.0
C458 C -0.0004 0.70752 0.68449 0.0
C459 C 0.02652 0.76235 0.66668 0.0
C460 C 0.05878 0.79816 0.66056 0.0
C461 C 0.09274 0.79989 0.65594 0.0
C462 C 0.12313 0.83378 0.65032 0.0
C463 C 0.11981 0.86607 0.64915 0.0
C464 C 0.08606 0.86453 0.65357 0.0
C465 C 0.0556 0.83072 0.65922 0.0
H466 H 0.14337 0.89228 0.64479 0.0
H467 H 0.84784 0.56273 0.69857 0.0
H468 H 0.8208 0.37049 0.963 0.0
H469 H 0.76708 0.36986 0.9763 0.0
H470 H 0.71872 0.25111 0.98658 0.0
H471 H 0.77201 0.25124 0.97315 0.0
H472 H 0.66582 0.26886 0.97576 0.0
H473 H 0.76813 0.31739 0.01491 0.0
H474 H 0.83344 0.36201 0.02358 0.0
H475 H 0.81286 0.45458 0.01825 0.0
H476 H 0.74779 0.41068 0.00908 0.0
H477 H 0.52745 0.24768 0.03219 0.0
H478 H 0.5819 0.24813 0.01965 0.0
H479 H 0.63924 0.36979 0.01647 0.0
H480 H 0.58579 0.36959 0.02967 0.0
H481 H 0.68846 0.35125 0.02352 0.0
H482 H 0.59149 0.30943 0.98338 0.0
H483 H 0.52784 0.27002 0.97175 0.0
H484 H 0.53915 0.17155 0.97627 0.0
H485 H 0.60271 0.21032 0.98813 0.0
C486 C 0.79863 0.34413 0.96797 0.0
C487 C 0.80088 0.31094 0.96707 0.0
C488 C 0.76802 0.34388 0.97563 0.0
C489 C 0.73921 0.31055 0.98262 0.0
C490 C 0.74075 0.27716 0.98131 0.0
C491 C 0.77132 0.27734 0.97366 0.0
C492 C 0.70782 0.31052 0.99162 0.0
C493 C 0.67066 0.28648 0.98634 0.0
C494 C 0.71438 0.33451 0.00508 0.0
C495 C 0.75314 0.36074 0.01116 0.0
C496 C 0.7776 0.34729 0.01548 0.0
C497 C 0.81462 0.37248 0.02045 0.0
C498 C 0.82738 0.41115 0.02137 0.0
C499 C 0.80304 0.42466 0.01743 0.0
C500 C 0.76608 0.39964 0.01234 0.0
C501 C 0.55182 0.27452 0.02895 0.0
C502 C 0.55222 0.30857 0.03186 0.0
C503 C 0.58287 0.27476 0.02168 0.0
C504 C 0.61445 0.30897 0.01676 0.0
C505 C 0.61528 0.34303 0.02012 0.0
C506 C 0.58461 0.34285 0.02766 0.0
C507 C 0.64616 0.30932 0.00774 0.0
C508 C 0.68345 0.33348 0.01299 0.0
C509 C 0.63983 0.28611 0.99399 0.0
C510 C 0.60169 0.26272 0.98679 0.0
C511 C 0.58029 0.27933 0.98199 0.0
C512 C 0.54425 0.25712 0.97535 0.0
C513 C 0.52942 0.21829 0.97332 0.0
C514 C 0.55065 0.20162 0.97788 0.0
C515 C 0.5867 0.2237 0.98455 0.0
H516 H 0.50151 0.20114 0.96817 0.0
H517 H 0.85607 0.43063 0.02517 0.0
H518 H 0.26107 0.49878 0.36259 0.0
H519 H 0.31455 0.55065 0.34849 0.0
H520 H 0.26247 0.61937 0.35335 0.0
H521 H 0.20902 0.56787 0.3676 0.0
H522 H 0.28766 0.61659 0.32145 0.0
H523 H 0.33378 0.6393 0.3764 0.0
H524 H 0.34961 0.62192 0.40264 0.0
H525 H 0.4278 0.59646 0.37901 0.0
H526 H 0.41201 0.61318 0.35257 0.0
H527 H 0.43807 0.79149 0.29524 0.0
H528 H 0.38689 0.74057 0.31048 0.0
H529 H 0.45157 0.68379 0.31421 0.0
H530 H 0.50383 0.73577 0.29964 0.0
H531 H 0.41965 0.67916 0.34176 0.0
H532 H 0.37515 0.65506 0.28713 0.0
H533 H 0.35915 0.66947 0.26026 0.0
H534 H 0.27788 0.69321 0.28203 0.0
H535 H 0.29376 0.67944 0.30907 0.0
C536 C 0.26105 0.52498 0.36074 0.0
C537 C 0.23074 0.52916 0.36622 0.0
C538 C 0.29168 0.5546 0.35272 0.0
C539 C 0.29242 0.58879 0.34992 0.0
C540 C 0.26234 0.59315 0.3554 0.0
C541 C 0.23192 0.56373 0.3636 0.0
C542 C 0.32414 0.6197 0.34091 0.0
C543 C 0.31649 0.63068 0.32595 0.0
C544 C 0.36181 0.63706 0.34659 0.0
C545 C 0.37141 0.62711 0.36248 0.0
C546 C 0.35409 0.62967 0.37677 0.0
C547 C 0.36311 0.62001 0.39169 0.0
C548 C 0.38961 0.60799 0.39249 0.0
C549 C 0.40723 0.60572 0.37837 0.0
C550 C 0.39828 0.61531 0.36342 0.0
C551 C 0.44149 0.76822 0.29931 0.0
C552 C 0.47508 0.76775 0.2962 0.0
C553 C 0.41202 0.73892 0.30793 0.0
C554 C 0.415 0.7079 0.31326 0.0
C555 C 0.44854 0.70735 0.31021 0.0
C556 C 0.47836 0.73705 0.30182 0.0
C557 C 0.38332 0.67635 0.32221 0.0
C558 C 0.39091 0.66514 0.33717 0.0
C559 C 0.34561 0.65834 0.3164 0.0
C560 C 0.33592 0.66657 0.30015 0.0
C561 C 0.35407 0.66363 0.2862 0.0
C562 C 0.34499 0.67164 0.27094 0.0
C563 C 0.31759 0.68234 0.26945 0.0
C564 C 0.29913 0.68496 0.28321 0.0
C565 C 0.30814 0.67703 0.29851 0.0
H566 H 0.31059 0.68852 0.25762 0.0
H567 H 0.39656 0.60054 0.40405 0.0
H568 H 0.75832 0.27171 0.69929 0.0
H569 H 0.75715 0.32337 0.68482 0.0
H570 H 0.63568 0.26562 0.68905 0.0
H571 H 0.63655 0.21407 0.70371 0.0
H572 H 0.66429 0.2932 0.65723 0.0
H573 H 0.6833 0.33632 0.71271 0.0
H574 H 0.71563 0.35226 0.73918 0.0
H575 H 0.81861 0.4353 0.71648 0.0
H576 H 0.78702 0.41944 0.68983 0.0
H577 H 0.63154 0.44017 0.63276 0.0
H578 H 0.63345 0.38842 0.64652 0.0
H579 H 0.75428 0.45815 0.65232 0.0
H580 H 0.75229 0.51059 0.63919 0.0
H581 H 0.72665 0.42382 0.67899 0.0
H582 H 0.71094 0.38281 0.62389 0.0
H583 H 0.68181 0.36705 0.59675 0.0
H584 H 0.57755 0.28076 0.61734 0.0
H585 H 0.60591 0.29634 0.64464 0.0
C586 C 0.73137 0.27008 0.6972 0.0
C587 C 0.69754 0.23891 0.70273 0.0
C588 C 0.73077 0.29961 0.68896 0.0
C589 C 0.69634 0.2983 0.68594 0.0
C590 C 0.66252 0.26712 0.6913 0.0
C591 C 0.66312 0.23784 0.69975 0.0
C592 C 0.69562 0.32944 0.67713 0.0
C593 C 0.6775 0.32172 0.66203 0.0
C594 C 0.71392 0.36675 0.68322 0.0
C595 C 0.73289 0.3764 0.69925 0.0
C596 C 0.71293 0.35773 0.71334 0.0
C597 C 0.7311 0.3668 0.72838 0.0
C598 C 0.76918 0.39469 0.72951 0.0
C599 C 0.78913 0.41365 0.71559 0.0
C600 C 0.7711 0.40465 0.70052 0.0
C601 C 0.65855 0.44447 0.6369 0.0
C602 C 0.69173 0.47959 0.63491 0.0
C603 C 0.65967 0.41471 0.64468 0.0
C604 C 0.6941 0.41911 0.65031 0.0
C605 C 0.72734 0.45402 0.64814 0.0
C606 C 0.72617 0.48398 0.64057 0.0
C607 C 0.69531 0.38783 0.65895 0.0
C608 C 0.71351 0.39543 0.67407 0.0
C609 C 0.6776 0.3505 0.65273 0.0
C610 C 0.66046 0.341 0.63633 0.0
C611 C 0.68172 0.36066 0.62264 0.0
C612 C 0.66536 0.35173 0.60723 0.0
C613 C 0.62782 0.32298 0.60533 0.0
C614 C 0.6066 0.30305 0.61883 0.0
C615 C 0.62282 0.31189 0.63428 0.0
H616 H 0.61521 0.31611 0.59338 0.0
H617 H 0.78319 0.40168 0.74116 0.0
H618 H 0.21658 0.75188 0.97331 0.0
H619 H 0.27199 0.75433 0.98585 0.0
H620 H 0.21777 0.63288 0.98342 0.0
H621 H 0.16225 0.63006 0.97082 0.0
H622 H 0.25067 0.66302 0.01366 0.0
H623 H 0.28401 0.68312 0.95698 0.0
H624 H 0.29389 0.71507 0.93061 0.0
H625 H 0.37757 0.81979 0.95188 0.0
H626 H 0.36778 0.78856 0.97845 0.0
H627 H 0.40199 0.63183 0.02886 0.0
H628 H 0.34852 0.63466 0.01748 0.0
H629 H 0.41642 0.75607 0.01429 0.0
H630 H 0.47071 0.75336 0.02523 0.0
H631 H 0.37716 0.72966 0.98772 0.0
H632 H 0.34676 0.71097 0.04397 0.0
H633 H 0.33685 0.6809 0.07079 0.0
H634 H 0.2479 0.57666 0.05133 0.0
H635 H 0.25762 0.60595 0.02433 0.0
C636 C 0.21639 0.72566 0.97543 0.0
C637 C 0.18498 0.69076 0.97101 0.0
C638 C 0.24814 0.72715 0.98255 0.0
C639 C 0.24901 0.6938 0.98546 0.0
C640 C 0.21762 0.65893 0.98124 0.0
C641 C 0.186 0.65741 0.97398 0.0
C642 C 0.28261 0.69521 0.99299 0.0
C643 C 0.27828 0.67722 0.00793 0.0
C644 C 0.31878 0.71484 0.98573 0.0
C645 C 0.32487 0.73358 0.96974 0.0
C646 C 0.30429 0.71303 0.95606 0.0
C647 C 0.30992 0.73099 0.94108 0.0
C648 C 0.33627 0.76946 0.93958 0.0
C649 C 0.35713 0.79001 0.95306 0.0
C650 C 0.35157 0.77218 0.96808 0.0
C651 C 0.4056 0.65922 0.02585 0.0
C652 C 0.44064 0.69241 0.02805 0.0
C653 C 0.37487 0.6608 0.01939 0.0
C654 C 0.37816 0.69564 0.01528 0.0
C655 C 0.41314 0.72886 0.01741 0.0
C656 C 0.44412 0.72728 0.02371 0.0
C657 C 0.34528 0.69707 0.0084 0.0
C658 C 0.34968 0.71564 0.99356 0.0
C659 C 0.30919 0.67829 0.01585 0.0
C660 C 0.30315 0.66059 0.03209 0.0
C661 C 0.32527 0.68155 0.04538 0.0
C662 C 0.31966 0.66466 0.06062 0.0
C663 C 0.29182 0.62687 0.06276 0.0
C664 C 0.26947 0.60592 0.04966 0.0
C665 C 0.27499 0.62267 0.03439 0.0
H666 H 0.28752 0.61384 0.07456 0.0
H667 H 0.34058 0.78331 0.92797 0.0
H668 H 0.56871 0.20797 0.29274 0.0
H669 H 0.61793 0.25817 0.30926 0.0
H670 H 0.54416 0.30285 0.31882 0.0
H671 H 0.49415 0.25186 0.30275 0.0
H672 H 0.62358 0.35726 0.30845 0.0
H673 H 0.55129 0.25857 0.34712 0.0
H674 H 0.5212 0.19395 0.35818 0.0
H675 H 0.62903 0.19984 0.3599 0.0
H676 H 0.65968 0.26424 0.3485 0.0
H677 H 0.7354 0.48968 0.36793 0.0
H678 H 0.68218 0.43871 0.35351 0.0
H679 H 0.73644 0.37146 0.35563 0.0
H680 H 0.78887 0.42162 0.37081 0.0
H681 H 0.66498 0.3278 0.36023 0.0
H682 H 0.73796 0.42186 0.32078 0.0
H683 H 0.77135 0.48568 0.30884 0.0
H684 H 0.66726 0.48745 0.3069 0.0
H685 H 0.6333 0.4238 0.31904 0.0
C686 C 0.56289 0.22839 0.29838 0.0
C687 C 0.52738 0.22565 0.29655 0.0
C688 C 0.59103 0.25701 0.3078 0.0
C689 C 0.58445 0.28388 0.31534 0.0
C690 C 0.5496 0.28217 0.31313 0.0
C691 C 0.52111 0.25304 0.30395 0.0
C692 C 0.61415 0.31372 0.32554 0.0
C693 C 0.63231 0.35104 0.3199 0.0
C694 C 0.62625 0.30511 0.34016 0.0
C695 C 0.60774 0.26613 0.34679 0.0
C696 C 0.56854 0.24594 0.34966 0.0
C697 C 0.55139 0.20938 0.35605 0.0
C698 C 0.57319 0.19282 0.35977 0.0
C699 C 0.61219 0.21275 0.35706 0.0
C700 C 0.62945 0.24925 0.35061 0.0
C701 C 0.73595 0.46396 0.36542 0.0
C702 C 0.76671 0.45995 0.37034 0.0
C703 C 0.70555 0.43488 0.35708 0.0
C704 C 0.70565 0.40153 0.35311 0.0
C705 C 0.73575 0.39697 0.35846 0.0
C706 C 0.76585 0.42578 0.36708 0.0
C707 C 0.67468 0.37169 0.34319 0.0
C708 C 0.65629 0.33425 0.34882 0.0
C709 C 0.66289 0.38004 0.32836 0.0
C710 C 0.68316 0.41822 0.32097 0.0
C711 C 0.72223 0.43596 0.31791 0.0
C712 C 0.74126 0.47209 0.31109 0.0
C713 C 0.72146 0.49065 0.30715 0.0
C714 C 0.68256 0.47306 0.30998 0.0
C715 C 0.66341 0.43695 0.31681 0.0
H716 H 0.73623 0.51863 0.30187 0.0
H717 H 0.55986 0.16451 0.3647 0.0
H718 H 0.2381 0.47421 0.63938 0.0
H719 H 0.23392 0.52319 0.65469 0.0
H720 H 0.3525 0.6003 0.64637 0.0
H721 H 0.3571 0.55164 0.63105 0.0
H722 H 0.32922 0.59438 0.67932 0.0
H723 H 0.29142 0.61334 0.62592 0.0
H724 H 0.25197 0.59191 0.60129 0.0
H725 H 0.15232 0.55749 0.62999 0.0
H726 H 0.19117 0.57837 0.65482 0.0
H727 H 0.35394 0.76866 0.7051 0.0
H728 H 0.35138 0.71561 0.69059 0.0
H729 H 0.22938 0.65791 0.6913 0.0
H730 H 0.23188 0.71204 0.7052 0.0
H731 H 0.24989 0.64932 0.66329 0.0
H732 H 0.28362 0.63181 0.71622 0.0
H733 H 0.319 0.64834 0.74195 0.0
H734 H 0.4203 0.67282 0.71641 0.0
H735 H 0.38566 0.65697 0.69049 0.0
C736 C 0.26329 0.50166 0.64069 0.0
C737 C 0.298 0.50894 0.634 0.0
C738 C 0.26079 0.52961 0.64943 0.0
C739 C 0.29291 0.56528 0.65165 0.0
C740 C 0.32742 0.57285 0.64481 0.0
C741 C 0.32994 0.54503 0.63601 0.0
C742 C 0.2909 0.59448 0.66149 0.0
C743 C 0.31227 0.60682 0.67577 0.0
C744 C 0.26743 0.60928 0.65716 0.0
C745 C 0.24415 0.59713 0.64223 0.0
C746 C 0.26107 0.60098 0.62698 0.0
C747 C 0.23883 0.58898 0.61299 0.0
C748 C 0.19966 0.57328 0.61408 0.0
C749 C 0.18266 0.56965 0.62917 0.0
C750 C 0.20478 0.58161 0.6432 0.0
C751 C 0.32653 0.74454 0.70232 0.0
C752 C 0.29309 0.74443 0.70641 0.0
C753 C 0.32508 0.71406 0.69406 0.0
C754 C 0.29017 0.68226 0.6901 0.0
C755 C 0.25668 0.68201 0.69425 0.0
C756 C 0.25812 0.7129 0.70224 0.0
C757 C 0.28887 0.65006 0.68112 0.0
C758 C 0.26677 0.63694 0.667 0.0
C759 C 0.31106 0.63388 0.68581 0.0
C760 C 0.33208 0.64353 0.70138 0.0
C761 C 0.31351 0.64101 0.71607 0.0
C762 C 0.33343 0.65022 0.73069 0.0
C763 C 0.3719 0.66172 0.73081 0.0
C764 C 0.39051 0.66396 0.7163 0.0
C765 C 0.37074 0.65483 0.70164 0.0
H766 H 0.38726 0.66881 0.74215 0.0
H767 H 0.18249 0.56398 0.60323 0.0
H768 H 0.41602 0.21195 0.09247 0.0
H769 H 0.41158 0.19472 0.12111 0.0
H770 H 0.47036 0.31268 0.13428 0.0
H771 H 0.47568 0.33015 0.10582 0.0
H772 H 0.498 0.27792 0.1506 0.0
H773 H 0.37409 0.25632 0.13976 0.0
H774 H 0.31323 0.23012 0.12533 0.0
H775 H 0.28843 0.11753 0.13668 0.0
H776 H 0.3494 0.14305 0.15099 0.0
H777 H 0.39506 0.19695 0.23345 0.0
H778 H 0.39576 0.22132 0.20622 0.0
H779 H 0.47589 0.18835 0.19074 0.0
H780 H 0.47592 0.16467 0.21771 0.0
H781 H 0.37686 0.18682 0.17689 0.0
H782 H 0.53764 0.25137 0.16458 0.0
H783 H 0.59759 0.28204 0.17986 0.0
H784 H 0.54703 0.3178 0.2162 0.0
H785 H 0.48696 0.28784 0.20104 0.0
C786 C 0.42805 0.23423 0.10146 0.0
C787 C 0.44626 0.27244 0.0968 0.0
C788 C 0.42526 0.22433 0.11784 0.0
C789 C 0.44026 0.25242 0.12987 0.0
C790 C 0.45858 0.29052 0.12523 0.0
C791 C 0.46156 0.30043 0.10891 0.0
C792 C 0.4379 0.24231 0.14728 0.0
C793 C 0.47148 0.25805 0.15633 0.0
C794 C 0.4032 0.21708 0.1549 0.0
C795 C 0.36647 0.20161 0.14632 0.0
C796 C 0.35579 0.22597 0.13907 0.0
C797 C 0.32125 0.21124 0.13093 0.0
C798 C 0.29702 0.17218 0.13005 0.0
C799 C 0.30725 0.14778 0.13735 0.0
C800 C 0.34178 0.16236 0.14549 0.0
C801 C 0.41299 0.19511 0.22427 0.0
C802 C 0.43558 0.17902 0.22784 0.0
C803 C 0.41322 0.20889 0.2087 0.0
C804 C 0.43619 0.20701 0.19651 0.0
C805 C 0.45843 0.19068 0.20002 0.0
C806 C 0.4583 0.17704 0.2155 0.0
C807 C 0.43706 0.22176 0.18001 0.0
C808 C 0.40329 0.20687 0.17114 0.0
C809 C 0.47147 0.24846 0.17263 0.0
C810 C 0.5077 0.26708 0.18172 0.0
C811 C 0.53937 0.26595 0.17579 0.0
C812 C 0.57336 0.28317 0.18444 0.0
C813 C 0.57609 0.30177 0.19901 0.0
C814 C 0.54485 0.30328 0.20494 0.0
C815 C 0.51081 0.28614 0.19633 0.0
H816 H 0.60242 0.31505 0.2057 0.0
H817 H 0.27029 0.16084 0.12375 0.0
H818 H 0.19448 0.39101 0.42868 0.0
H819 H 0.21314 0.38766 0.45651 0.0
H820 H 0.18875 0.47473 0.47073 0.0
H821 H 0.16942 0.47781 0.4431 0.0
H822 H 0.26611 0.43603 0.47645 0.0
H823 H 0.15122 0.45691 0.50837 0.0
H824 H 0.08624 0.44381 0.5033 0.0
H825 H 0.06675 0.35301 0.47129 0.0
H826 H 0.13139 0.36522 0.47634 0.0
H827 H 0.31431 0.47609 0.5589 0.0
H828 H 0.29539 0.47793 0.53102 0.0
H829 H 0.19259 0.37152 0.53825 0.0
H830 H 0.21068 0.37027 0.56637 0.0
H831 H 0.17704 0.41474 0.52144 0.0
H832 H 0.27177 0.37903 0.51768 0.0
H833 H 0.33392 0.38458 0.52248 0.0
H834 H 0.38862 0.49113 0.49763 0.0
H835 H 0.32681 0.48644 0.49287 0.0
C836 C 0.19327 0.4096 0.4377 0.0
C837 C 0.1801 0.43443 0.43366 0.0
C838 C 0.204 0.40768 0.4536 0.0
C839 C 0.20174 0.43049 0.46575 0.0
C840 C 0.18997 0.45629 0.46163 0.0
C841 C 0.17907 0.45811 0.44578 0.0
C842 C 0.21108 0.42698 0.4828 0.0
C843 C 0.24666 0.43137 0.48629 0.0
C844 C 0.18537 0.42006 0.49561 0.0
C845 C 0.14629 0.41226 0.49262 0.0
C846 C 0.13302 0.43407 0.5003 0.0
C847 C 0.09625 0.42681 0.49742 0.0
C848 C 0.07243 0.39768 0.48693 0.0
C849 C 0.08528 0.37566 0.47935 0.0
C850 C 0.12199 0.38277 0.48221 0.0
C851 C 0.28759 0.45314 0.55458 0.0
C852 C 0.26409 0.4229 0.56482 0.0
C853 C 0.27691 0.45412 0.5386 0.0
C854 C 0.24293 0.42446 0.5324 0.0
C855 C 0.219 0.39468 0.54273 0.0
C856 C 0.22938 0.39398 0.5588 0.0
C857 C 0.23239 0.42443 0.51516 0.0
C858 C 0.19656 0.4194 0.51162 0.0
C859 C 0.25749 0.42971 0.50227 0.0
C860 C 0.29468 0.43252 0.50504 0.0
C861 C 0.29707 0.40375 0.51333 0.0
C862 C 0.33224 0.40673 0.51603 0.0
C863 C 0.36521 0.43822 0.51039 0.0
C864 C 0.36307 0.46676 0.502 0.0
C865 C 0.32797 0.46394 0.49929 0.0
H866 H 0.39241 0.44048 0.5125 0.0
H867 H 0.04399 0.39212 0.48471 0.0
H868 H 0.84195 0.21491 0.90316 0.0
H869 H 0.8214 0.19766 0.87507 0.0
H870 H 0.84629 0.31156 0.86549 0.0
H871 H 0.86775 0.32927 0.89333 0.0
H872 H 0.76696 0.19585 0.8579 0.0
H873 H 0.87632 0.33669 0.82715 0.0
H874 H 0.94203 0.38806 0.83127 0.0
H875 H 0.96659 0.31271 0.85789 0.0
H876 H 0.90121 0.26078 0.85374 0.0
H877 H 0.70362 0.19753 0.77899 0.0
H878 H 0.72836 0.21642 0.80641 0.0
H879 H 0.8294 0.2146 0.79282 0.0
H880 H 0.80543 0.1971 0.76519 0.0
H881 H 0.84803 0.27098 0.81193 0.0
H882 H 0.75467 0.13986 0.81381 0.0
H883 H 0.69204 0.08345 0.8095 0.0
H884 H 0.64119 0.13019 0.84035 0.0
H885 H 0.70348 0.18712 0.84467 0.0
C886 C 0.84309 0.23631 0.89507 0.0
C887 C 0.85679 0.27355 0.90048 0.0
C888 C 0.83127 0.22638 0.87902 0.0
C889 C 0.83283 0.25344 0.86809 0.0
C890 C 0.84563 0.29039 0.87358 0.0
C891 C 0.85775 0.30042 0.88955 0.0
C892 C 0.8208 0.24308 0.85099 0.0
C893 C 0.78471 0.21226 0.84785 0.0
C894 C 0.84423 0.26397 0.83784 0.0
C895 C 0.88374 0.29496 0.84027 0.0
C896 C 0.89578 0.33105 0.83383 0.0
C897 C 0.93297 0.36028 0.83618 0.0
C898 C 0.95843 0.35369 0.84488 0.0
C899 C 0.9468 0.31782 0.8512 0.0
C900 C 0.90967 0.2885 0.84888 0.0
C901 C 0.73126 0.20149 0.78179 0.0
C902 C 0.75244 0.19554 0.76994 0.0
C903 C 0.74528 0.21207 0.79751 0.0
C904 C 0.78036 0.21606 0.80181 0.0
C905 C 0.80219 0.21153 0.78983 0.0
C906 C 0.78844 0.20153 0.77403 0.0
C907 C 0.79391 0.22414 0.81884 0.0
C908 C 0.83028 0.25456 0.82197 0.0
C909 C 0.77117 0.20216 0.83196 0.0
C910 C 0.73369 0.16788 0.82945 0.0
C911 C 0.73009 0.13821 0.81959 0.0
C912 C 0.69466 0.10613 0.81715 0.0
C913 C 0.66264 0.10328 0.82461 0.0
C914 C 0.66601 0.13246 0.83456 0.0
C915 C 0.70138 0.16462 0.83702 0.0
H916 H 0.63524 0.07842 0.82271 0.0
H917 H 0.9872 0.37635 0.84669 0.0
H918 H 0.48697 0.68082 0.09975 0.0
H919 H 0.49152 0.69942 0.12825 0.0
H920 H 0.60267 0.79455 0.11961 0.0
H921 H 0.59799 0.77684 0.09093 0.0
H922 H 0.58248 0.73156 0.14891 0.0
H923 H 0.55835 0.82695 0.12417 0.0
H924 H 0.5215 0.84499 0.10637 0.0
H925 H 0.42078 0.77302 0.13337 0.0
H926 H 0.45699 0.75412 0.15118 0.0
H927 H 0.61907 0.8252 0.22479 0.0
H928 H 0.61557 0.8059 0.19653 0.0
H929 H 0.49546 0.76508 0.19635 0.0
H930 H 0.49967 0.78706 0.22422 0.0
H931 H 0.5204 0.79992 0.17073 0.0
H932 H 0.53877 0.70557 0.19621 0.0
H933 H 0.56908 0.67989 0.21393 0.0
H934 H 0.67161 0.73847 0.18632 0.0
H935 H 0.64206 0.7649 0.16856 0.0
C936 C 0.51228 0.70586 0.10389 0.0
C937 C 0.54211 0.72744 0.09311 0.0
C938 C 0.51481 0.71637 0.12014 0.0
C939 C 0.54744 0.74821 0.12594 0.0
C940 C 0.57729 0.76987 0.11527 0.0
C941 C 0.57446 0.75985 0.09892 0.0
C942 C 0.5503 0.75853 0.14322 0.0
C943 C 0.56946 0.74699 0.15375 0.0
C944 C 0.5319 0.77718 0.14946 0.0
C945 C 0.51027 0.7888 0.13886 0.0
C946 C 0.52827 0.81468 0.12619 0.0
C947 C 0.50753 0.82513 0.11613 0.0
C948 C 0.46879 0.81007 0.1187 0.0
C949 C 0.45076 0.78462 0.13138 0.0
C950 C 0.47139 0.77405 0.14146 0.0
C951 C 0.59188 0.81162 0.21874 0.0
C952 C 0.55961 0.80748 0.22663 0.0
C953 C 0.58981 0.80039 0.20259 0.0
C954 C 0.55511 0.78346 0.19424 0.0
C955 C 0.52262 0.77821 0.20241 0.0
C956 C 0.52495 0.79054 0.21836 0.0
C957 C 0.55294 0.77318 0.17679 0.0
C958 C 0.53368 0.78456 0.16611 0.0
C959 C 0.57047 0.75343 0.17051 0.0
C960 C 0.5883 0.7375 0.18115 0.0
C961 C 0.56786 0.71319 0.19399 0.0
C962 C 0.5849 0.69846 0.20403 0.0
C963 C 0.62228 0.70762 0.20128 0.0
C964 C 0.64267 0.73144 0.18845 0.0
C965 C 0.62578 0.74627 0.17838 0.0
H966 H 0.63541 0.6962 0.20907 0.0
H967 H 0.45278 0.81819 0.1109 0.0
H968 H 0.7867 0.58024 0.57523 0.0
H969 H 0.80665 0.57502 0.54787 0.0
H970 H 0.70088 0.55813 0.52878 0.0
H971 H 0.68015 0.5613 0.55614 0.0
H972 H 0.71547 0.51243 0.51448 0.0
H973 H 0.78932 0.64507 0.52568 0.0
H974 H 0.83364 0.70218 0.54094 0.0
H975 H 0.92077 0.67348 0.53565 0.0
H976 H 0.87681 0.61592 0.52053 0.0
H977 H 0.77709 0.56488 0.43201 0.0
H978 H 0.75767 0.56615 0.46 0.0
H979 H 0.84312 0.54253 0.47744 0.0
H980 H 0.86218 0.54032 0.44953 0.0
H981 H 0.8402 0.60767 0.49233 0.0
H982 H 0.76294 0.4748 0.47977 0.0
H983 H 0.71721 0.42072 0.46333 0.0
H984 H 0.6344 0.45487 0.46993 0.0
H985 H 0.67987 0.50951 0.48621 0.0
C986 C 0.76781 0.57551 0.56517 0.0
C987 C 0.7319 0.57122 0.56781 0.0
C988 C 0.77928 0.57272 0.54951 0.0
C989 C 0.75553 0.56675 0.53616 0.0
C990 C 0.71972 0.56263 0.53884 0.0
C991 C 0.70793 0.56455 0.5545 0.0
C992 C 0.76752 0.56421 0.5194 0.0
C993 C 0.74259 0.5336 0.50963 0.0
C994 C 0.80315 0.59139 0.51304 0.0
C995 C 0.82965 0.62599 0.52212 0.0
C996 C 0.81785 0.6508 0.52788 0.0
C997 C 0.84292 0.68327 0.53648 0.0
C998 C 0.87996 0.6914 0.53931 0.0
C999 C 0.89205 0.66712 0.53348 0.0
C1000 C 0.86708 0.63458 0.52488 0.0
C1001 C 0.7916 0.55976 0.4418 0.0
C1002 C 0.8211 0.55242 0.43857 0.0
C1003 C 0.78046 0.56045 0.45775 0.0
C1004 C 0.79904 0.55444 0.47071 0.0
C1005 C 0.82852 0.54723 0.46755 0.0
C1006 C 0.83919 0.5458 0.45161 0.0
C1007 C 0.78804 0.55626 0.48759 0.0
C1008 C 0.81316 0.58665 0.49731 0.0
C1009 C 0.75234 0.52938 0.49379 0.0
C1010 C 0.72495 0.49647 0.48406 0.0
C1011 C 0.73511 0.47099 0.47758 0.0
C1012 C 0.70921 0.44019 0.46832 0.0
C1013 C 0.67296 0.43442 0.46555 0.0
C1014 C 0.66251 0.4594 0.47207 0.0
C1015 C 0.68832 0.49027 0.48132 0.0
H1016 H 0.65294 0.41056 0.45838 0.0
H1017 H 0.89933 0.71655 0.54597 0.0
H1018 H 0.11749 0.67184 0.89456 0.0
H1019 H 0.14468 0.69065 0.8676 0.0
H1020 H 0.19098 0.8079 0.88041 0.0
H1021 H 0.16335 0.78932 0.90752 0.0
H1022 H 0.15986 0.79408 0.85081 0.0
H1023 H 0.24793 0.77035 0.87853 0.0
H1024 H 0.26923 0.73468 0.89531 0.0
H1025 H 0.2273 0.64613 0.85977 0.0
H1026 H 0.20523 0.68103 0.84287 0.0
H1027 H 0.3089 0.82413 0.78485 0.0
H1028 H 0.286 0.8096 0.81264 0.0
H1029 H 0.1714 0.76429 0.79578 0.0
H1030 H 0.19413 0.77952 0.76787 0.0
H1031 H 0.24177 0.74755 0.82841 0.0
H1032 H 0.12117 0.78288 0.82332 0.0
H1033 H 0.10595 0.8249 0.80764 0.0
H1034 H 0.22423 0.90186 0.79988 0.0
H1035 H 0.24015 0.86058 0.81569 0.0
C1036 C 0.13345 0.70168 0.89172 0.0
C1037 C 0.13829 0.72907 0.90328 0.0
C1038 C 0.14912 0.71238 0.87628 0.0
C1039 C 0.17025 0.75068 0.87205 0.0
C1040 C 0.17482 0.77816 0.88344 0.0
C1041 C 0.15909 0.76748 0.89894 0.0
C1042 C 0.18725 0.76179 0.85566 0.0
C1043 C 0.1778 0.78395 0.84591 0.0
C1044 C 0.21132 0.74925 0.84939 0.0
C1045 C 0.22462 0.72817 0.85949 0.0
C1046 C 0.24298 0.74314 0.87434 0.0
C1047 C 0.25524 0.72308 0.88387 0.0
C1048 C 0.24954 0.68813 0.87863 0.0
C1049 C 0.23165 0.6732 0.86382 0.0
C1050 C 0.2193 0.69312 0.85425 0.0
C1051 C 0.27877 0.81091 0.78698 0.0
C1052 C 0.25339 0.80323 0.77408 0.0
C1053 C 0.26573 0.80256 0.80292 0.0
C1054 C 0.22705 0.78635 0.80634 0.0
C1055 C 0.20146 0.77748 0.79347 0.0
C1056 C 0.2145 0.78601 0.7775 0.0
C1057 C 0.21367 0.77912 0.8234 0.0
C1058 C 0.22381 0.75768 0.83329 0.0
C1059 C 0.19108 0.79318 0.82994 0.0
C1060 C 0.1818 0.81842 0.82055 0.0
C1061 C 0.14392 0.80883 0.81832 0.0
C1062 C 0.13518 0.83251 0.8094 0.0
C1063 C 0.1641 0.86596 0.80272 0.0
C1064 C 0.20184 0.87587 0.805 0.0
C1065 C 0.21074 0.85232 0.81392 0.0
H1066 H 0.15727 0.88424 0.79581 0.0
H1067 H 0.25906 0.67264 0.88602 0.0
H1068 H 0.54405 0.60975 0.03444 0.0
H1069 H 0.52315 0.55013 0.0204 0.0
H1070 H 0.51547 0.59993 0.97556 0.0
H1071 H 0.53757 0.66073 0.98957 0.0
H1072 H 0.44616 0.51719 0.99357 0.0
H1073 H 0.56367 0.58039 0.96494 0.0
H1074 H 0.63175 0.62617 0.9621 0.0
H1075 H 0.65692 0.56894 0.9994 0.0
H1076 H 0.58896 0.5232 0.00266 0.0
H1077 H 0.40519 0.32534 0.9954 0.0
H1078 H 0.42441 0.38456 0.98063 0.0
H1079 H 0.51572 0.44444 0.01464 0.0
H1080 H 0.49745 0.38602 0.02886 0.0
H1081 H 0.53749 0.47267 0.98477 0.0
H1082 H 0.42558 0.43429 0.02064 0.0
H1083 H 0.35877 0.39092 0.0278 0.0
H1084 H 0.32456 0.40248 0.97994 0.0
H1085 H 0.39128 0.4457 0.9725 0.0
C1086 C 0.53804 0.60818 0.02159 0.0
C1087 C 0.54234 0.63979 0.01309 0.0
C1088 C 0.52622 0.57417 0.01359 0.0
C1089 C 0.51801 0.5709 0.99699 0.0
C1090 C 0.52198 0.6022 0.98837 0.0
C1091 C 0.53456 0.63672 0.99637 0.0
C1092 C 0.50439 0.53373 0.98937 0.0
C1093 C 0.46578 0.50737 0.99083 0.0
C1094 C 0.53017 0.52121 0.98598 0.0
C1095 C 0.57116 0.54841 0.98404 0.0
C1096 C 0.5837 0.57773 0.97261 0.0
C1097 C 0.62228 0.60365 0.97092 0.0
C1098 C 0.64864 0.60047 0.98057 0.0
C1099 C 0.63647 0.57134 0.99192 0.0
C1100 C 0.59792 0.54536 0.99367 0.0
C1101 C 0.42972 0.35117 0.99948 0.0
C1102 C 0.44912 0.35144 0.0136 0.0
C1103 C 0.44066 0.38485 0.99105 0.0
C1104 C 0.47128 0.41897 0.99662 0.0
C1105 C 0.492 0.41852 0.01009 0.0
C1106 C 0.48104 0.38515 0.01847 0.0
C1107 C 0.47968 0.45615 0.99016 0.0
C1108 C 0.51734 0.48236 0.9862 0.0
C1109 C 0.45314 0.46861 0.99152 0.0
C1110 C 0.41324 0.44273 0.99597 0.0
C1111 C 0.40376 0.42738 0.01165 0.0
C1112 C 0.36596 0.40287 0.01575 0.0
C1113 C 0.33745 0.39385 0.00431 0.0
C1114 C 0.34668 0.4094 0.98877 0.0
C1115 C 0.38446 0.43388 0.9846 0.0
H1116 H 0.3082 0.37488 0.00751 0.0
H1117 H 0.6785 0.62056 0.97924 0.0
H1118 H 0.89371 0.56082 0.33679 0.0
H1119 H 0.93141 0.53707 0.3233 0.0
H1120 H 0.99203 0.55038 0.36787 0.0
H1121 H 0.95429 0.57322 0.38138 0.0
H1122 H 0.03863 0.57209 0.33889 0.0
H1123 H 0.92021 0.46521 0.36282 0.0
H1124 H 0.85064 0.43058 0.36469 0.0
H1125 H 0.84246 0.41783 0.31293 0.0
H1126 H 0.91221 0.45244 0.31084 0.0
H1127 H 0.0552 0.43607 0.37958 0.0
H1128 H 0.0225 0.46525 0.36687 0.0
H1129 H 0.05953 0.45123 0.3198 0.0
H1130 H 0.09351 0.42241 0.33256 0.0
H1131 H 0.96648 0.43233 0.33433 0.0
H1132 H 0.09286 0.52187 0.31455 0.0
H1133 H 0.16244 0.55593 0.31681 0.0
H1134 H 0.15571 0.60286 0.36238 0.0
H1135 H 0.08604 0.56868 0.36046 0.0
C1136 C 0.91558 0.55926 0.34357 0.0
C1137 C 0.92099 0.5685 0.36014 0.0
C1138 C 0.93708 0.54585 0.33586 0.0
C1139 C 0.96461 0.5423 0.34459 0.0
C1140 C 0.97121 0.55338 0.36089 0.0
C1141 C 0.94941 0.56605 0.36863 0.0
C1142 C 0.98334 0.52247 0.33783 0.0
C1143 C 0.02294 0.54169 0.33723 0.0
C1144 C 0.96281 0.48294 0.33548 0.0
C1145 C 0.92115 0.46138 0.33668 0.0
C1146 C 0.90348 0.45494 0.35186 0.0
C1147 C 0.86406 0.43539 0.35296 0.0
C1148 C 0.84206 0.42209 0.33893 0.0
C1149 C 0.85952 0.42817 0.32379 0.0
C1150 C 0.89898 0.44768 0.32264 0.0
C1151 C 0.05647 0.43906 0.36652 0.0
C1152 C 0.07744 0.42752 0.35709 0.0
C1153 C 0.03753 0.45549 0.35928 0.0
C1154 C 0.03893 0.46054 0.34246 0.0
C1155 C 0.05839 0.44765 0.33282 0.0
C1156 C 0.07765 0.4312 0.34012 0.0
C1157 C 0.02179 0.48185 0.33577 0.0
C1158 C 0.98231 0.46298 0.33436 0.0
C1159 C 0.04248 0.52174 0.33616 0.0
C1160 C 0.0843 0.54263 0.33737 0.0
C1161 C 0.10624 0.53926 0.3251 0.0
C1162 C 0.14567 0.55862 0.32631 0.0
C1163 C 0.16347 0.58157 0.33972 0.0
C1164 C 0.14187 0.58514 0.35198 0.0
C1165 C 0.10242 0.56583 0.35082 0.0
H1166 H 0.19399 0.59666 0.3406 0.0
H1167 H 0.81153 0.40703 0.33979 0.0
H1168 H 0.66668 0.09584 0.671 0.0
H1169 H 0.60296 0.05908 0.65924 0.0
H1170 H 0.55495 0.03505 0.70724 0.0
H1171 H 0.61774 0.07026 0.71901 0.0
H1172 H 0.54275 0.97822 0.6674 0.0
H1173 H 0.48723 0.06034 0.70563 0.0
H1174 H 0.51087 0.1259 0.71458 0.0
H1175 H 0.58655 0.16718 0.67397 0.0
H1176 H 0.56282 0.10189 0.66455 0.0
H1177 H 0.37947 0.87719 0.70968 0.0
H1178 H 0.44041 0.91797 0.69714 0.0
H1179 H 0.38967 0.96509 0.666 0.0
H1180 H 0.32795 0.92398 0.67881 0.0
H1181 H 0.45105 0.01924 0.68214 0.0
H1182 H 0.42754 0.91857 0.64802 0.0
H1183 H 0.4048 0.85261 0.63993 0.0
H1184 H 0.48684 0.84866 0.6711 0.0
H1185 H 0.50972 0.91437 0.6796 0.0
C1186 C 0.64249 0.08247 0.67902 0.0
C1187 C 0.64717 0.08647 0.69594 0.0
C1188 C 0.60626 0.06161 0.67228 0.0
C1189 C 0.57449 0.04509 0.68241 0.0
C1190 C 0.57924 0.04826 0.69925 0.0
C1191 C 0.61518 0.06854 0.70596 0.0
C1192 C 0.53572 0.024 0.67592 0.0
C1193 C 0.52256 0.98725 0.67019 0.0
C1194 C 0.50986 0.03661 0.67908 0.0
C1195 C 0.52318 0.07608 0.68437 0.0
C1196 C 0.50857 0.08336 0.69848 0.0
C1197 C 0.52208 0.12051 0.70367 0.0
C1198 C 0.55019 0.15068 0.69485 0.0
C1199 C 0.56478 0.14378 0.68079 0.0
C1200 C 0.55131 0.1067 0.67553 0.0
C1201 C 0.38115 0.89614 0.70019 0.0
C1202 C 0.34924 0.8981 0.69548 0.0
C1203 C 0.41591 0.91899 0.69279 0.0
C1204 C 0.41951 0.94429 0.68051 0.0
C1205 C 0.38738 0.94549 0.67536 0.0
C1206 C 0.3523 0.92213 0.68268 0.0
C1207 C 0.45785 0.97239 0.67487 0.0
C1208 C 0.471 0.01051 0.67845 0.0
C1209 C 0.48365 0.96109 0.66958 0.0
C1210 C 0.47044 0.92157 0.66442 0.0
C1211 C 0.44067 0.90362 0.6532 0.0
C1212 C 0.42774 0.86625 0.64854 0.0
C1213 C 0.44439 0.84647 0.65499 0.0
C1214 C 0.47404 0.86405 0.66609 0.0
C1215 C 0.48708 0.90143 0.6708 0.0
H1216 H 0.4343 0.81752 0.65138 0.0
H1217 H 0.56066 0.17941 0.69891 0.0
H1218 H 0.66625 0.58558 0.66974 0.0
H1219 H 0.60458 0.55395 0.68349 0.0
H1220 H 0.54884 0.54137 0.63766 0.0
H1221 H 0.60974 0.57355 0.62399 0.0
H1222 H 0.52177 0.56601 0.6688 0.0
H1223 H 0.52407 0.43758 0.64601 0.0
H1224 H 0.56491 0.40904 0.64565 0.0
H1225 H 0.61113 0.45902 0.69189 0.0
H1226 H 0.56999 0.48716 0.69264 0.0
H1227 H 0.38501 0.42136 0.6222 0.0
H1228 H 0.44468 0.45433 0.6368 0.0
H1229 H 0.38477 0.43741 0.68182 0.0
H1230 H 0.32429 0.40487 0.66713 0.0
H1231 H 0.46877 0.42721 0.66837 0.0
H1232 H 0.41873 0.5042 0.69178 0.0
H1233 H 0.37747 0.53219 0.6909 0.0
H1234 H 0.42644 0.585 0.64543 0.0
H1235 H 0.46769 0.55691 0.64598 0.0
C1236 C 0.64082 0.57661 0.66267 0.0
C1237 C 0.64272 0.58146 0.64574 0.0
C1238 C 0.60571 0.55843 0.67054 0.0
C1239 C 0.57232 0.54496 0.66152 0.0
C1240 C 0.5744 0.55154 0.64479 0.0
C1241 C 0.60922 0.56968 0.63698 0.0
C1242 C 0.53459 0.52097 0.66868 0.0
C1243 C 0.51018 0.53569 0.66954 0.0
C1244 C 0.51959 0.48152 0.66975 0.0
C1245 C 0.54434 0.46476 0.6693 0.0
C1246 C 0.54295 0.44241 0.65609 0.0
C1247 C 0.56611 0.42629 0.65583 0.0
C1248 C 0.59071 0.43234 0.66872 0.0
C1249 C 0.59217 0.45448 0.6819 0.0
C1250 C 0.56897 0.47052 0.68224 0.0
C1251 C 0.38436 0.42447 0.6352 0.0
C1252 C 0.35 0.41105 0.64348 0.0
C1253 C 0.41848 0.4431 0.64354 0.0
C1254 C 0.41899 0.44858 0.66032 0.0
C1255 C 0.38482 0.43374 0.66883 0.0
C1256 C 0.35041 0.41504 0.66044 0.0
C1257 C 0.45599 0.47225 0.66813 0.0
C1258 C 0.4803 0.45749 0.66932 0.0
C1259 C 0.47087 0.51163 0.66945 0.0
C1260 C 0.44601 0.52828 0.66888 0.0
C1261 C 0.42041 0.52151 0.68153 0.0
C1262 C 0.39711 0.53744 0.68111 0.0
C1263 C 0.39933 0.56034 0.66812 0.0
C1264 C 0.42477 0.56726 0.65548 0.0
C1265 C 0.44813 0.55137 0.65585 0.0
H1266 H 0.38148 0.57287 0.6679 0.0
H1267 H 0.6085 0.41974 0.66855 0.0
H1268 H 0.00059 0.61327 0.9602 0.0
H1269 H 0.97288 0.55166 0.97327 0.0
H1270 H 0.03624 0.60394 0.01677 0.0
H1271 H 0.06389 0.66612 0.00372 0.0
H1272 H 0.05027 0.55058 0.00505 0.0
H1273 H 0.94209 0.55474 0.01984 0.0
H1274 H 0.88857 0.56628 0.01772 0.0
H1275 H 0.83945 0.48294 0.9801 0.0
H1276 H 0.89291 0.47132 0.98175 0.0
H1277 H 0.90622 0.32915 0.002 0.0
H1278 H 0.92786 0.39035 0.01528 0.0
H1279 H 0.00585 0.44623 0.97596 0.0
H1280 H 0.98414 0.38559 0.96266 0.0
H1281 H 0.91805 0.4447 0.00136 0.0
H1282 H 0.08114 0.52426 0.988 0.0
H1283 H 0.13406 0.51194 0.99054 0.0
H1284 H 0.07285 0.42756 0.0267 0.0
H1285 H 0.01976 0.43977 0.0246 0.0
C1286 C 0.00786 0.61177 0.9727 0.0
C1287 C 0.03456 0.64434 0.98091 0.0
C1288 C 0.99174 0.57658 0.98022 0.0
C1289 C 0.00226 0.57324 0.99605 0.0
C1290 C 0.02748 0.60599 0.00461 0.0
C1291 C 0.04323 0.64142 0.99714 0.0
C1292 C 0.99191 0.53524 0.00218 0.0
C1293 C 0.02131 0.52742 0.00458 0.0
C1294 C 0.954 0.50521 0.00214 0.0
C1295 C 0.92173 0.51223 0.00091 0.0
C1296 C 0.92006 0.53907 0.01101 0.0
C1297 C 0.88968 0.54562 0.0099 0.0
C1298 C 0.86069 0.52544 0.99875 0.0
C1299 C 0.86197 0.49862 0.98871 0.0
C1300 C 0.89228 0.49197 0.98976 0.0
C1301 C 0.92882 0.35444 0.99649 0.0
C1302 C 0.94352 0.35283 0.9813 0.0
C1303 C 0.94105 0.38931 0.00406 0.0
C1304 C 0.96871 0.42275 0.99669 0.0
C1305 C 0.985 0.42073 0.98202 0.0
C1306 C 0.97241 0.38612 0.97436 0.0
C1307 C 0.9767 0.4602 0.00259 0.0
C1308 C 0.94688 0.4679 0.00248 0.0
C1309 C 0.0142 0.49012 0.00472 0.0
C1310 C 0.04636 0.48297 0.00614 0.0
C1311 C 0.07904 0.50332 0.99661 0.0
C1312 C 0.10906 0.49628 0.99795 0.0
C1313 C 0.10682 0.46898 0.00877 0.0
C1314 C 0.07454 0.44866 0.0183 0.0
C1315 C 0.04444 0.4556 0.01703 0.0
H1316 H 0.13009 0.46356 0.00977 0.0
H1317 H 0.83716 0.53049 0.99793 0.0
H1318 H 0.58098 0.90147 0.32554 0.0
H1319 H 0.55882 0.94175 0.33788 0.0
H1320 H 0.56103 0.98908 0.2909 0.0
H1321 H 0.58253 0.94908 0.27862 0.0
H1322 H 0.59044 0.04322 0.31604 0.0
H1323 H 0.4791 0.91723 0.30328 0.0
H1324 H 0.44291 0.84819 0.30723 0.0
H1325 H 0.44068 0.86392 0.35858 0.0
H1326 H 0.47698 0.9332 0.35487 0.0
H1327 H 0.44883 0.05703 0.27951 0.0
H1328 H 0.48582 0.03172 0.2915 0.0
H1329 H 0.46546 0.06072 0.33919 0.0
H1330 H 0.42913 0.08782 0.32714 0.0
H1331 H 0.4538 0.97729 0.32949 0.0
H1332 H 0.54147 0.1094 0.33441 0.0
H1333 H 0.57632 0.17631 0.32607 0.0
H1334 H 0.62447 0.14844 0.28596 0.0
H1335 H 0.58858 0.08121 0.29345 0.0
C1336 C 0.57718 0.92091 0.31795 0.0
C1337 C 0.58318 0.92209 0.30112 0.0
C1338 C 0.5646 0.94381 0.325 0.0
C1339 C 0.55854 0.96844 0.31529 0.0
C1340 C 0.56592 0.97051 0.29862 0.0
C1341 C 0.57789 0.94742 0.29159 0.0
C1342 C 0.54129 0.98999 0.32172 0.0
C1343 C 0.56079 0.02918 0.31938 0.0
C1344 C 0.50302 0.97157 0.32659 0.0
C1345 C 0.48094 0.93017 0.32883 0.0
C1346 C 0.47097 0.90589 0.31541 0.0
C1347 C 0.45047 0.86675 0.3176 0.0
C1348 C 0.43965 0.85163 0.33315 0.0
C1349 C 0.44916 0.87566 0.34654 0.0
C1350 C 0.46965 0.91486 0.34441 0.0
C1351 C 0.45234 0.05841 0.29254 0.0
C1352 C 0.43668 0.0751 0.30235 0.0
C1353 C 0.47338 0.04379 0.29936 0.0
C1354 C 0.47877 0.04503 0.31615 0.0
C1355 C 0.46179 0.05997 0.32617 0.0
C1356 C 0.44099 0.0752 0.31928 0.0
C1357 C 0.50235 0.03021 0.32262 0.0
C1358 C 0.48404 0.99213 0.32728 0.0
C1359 C 0.54165 0.0496 0.31948 0.0
C1360 C 0.56235 0.09006 0.31459 0.0
C1361 C 0.55909 0.11739 0.32369 0.0
C1362 C 0.57914 0.15543 0.31914 0.0
C1363 C 0.60303 0.16664 0.30568 0.0
C1364 C 0.60623 0.13975 0.29648 0.0
C1365 C 0.58593 0.10164 0.30084 0.0
H1366 H 0.61902 0.19615 0.30235 0.0
H1367 H 0.42381 0.8213 0.33482 0.0
loop_
_geom_bond_atom_site_label_1
_geom_bond_atom_site_label_2
_geom_bond_distance
_geom_bond_site_symmetry_2
_ccdc_geom_bond_type
Mg0 O1 2.028 . S
Mg0 O7 1.986 . S
Mg0 O9 2.114 . S
Mg0 O10 2.251 . S
Mg0 O13 2.010 . S
O1 Mg0 2.028 . S
O1 C4 1.250 . S
O2 Mg3 2.028 . S
O2 C4 1.248 . S
Mg3 O2 2.028 . S
Mg3 O8 2.032 . S
Mg3 O10 2.079 . S
C4 O1 1.250 . S
C4 O2 1.248 . S
C5 O6 1.264 . S
C5 O13 1.249 . S
O6 C5 1.264 . S
O7 Mg0 1.986 . S
O7 C11 1.246 . S
O8 Mg3 2.032 . S
O8 C11 1.259 . S
O9 Mg0 2.114 . S
O9 C12 1.252 . S
O10 Mg0 2.251 . S
O10 Mg3 2.079 . S
O10 C12 1.273 . S
C11 O7 1.246 . S
C11 O8 1.259 . S
C12 O9 1.252 . S
C12 O10 1.273 . S
O13 Mg0 2.010 . S
O13 C5 1.249 . S
Mg14 O15 2.028 . S
Mg14 O21 1.986 . S
Mg14 O23 2.114 . S
Mg14 O24 2.251 . S
Mg14 O27 2.010 . S
O15 Mg14 2.028 . S
O15 C18 1.250 . S
O16 Mg17 2.028 . S
O16 C18 1.248 . S
Mg17 O16 2.028 . S
Mg17 O22 2.032 . S
Mg17 O24 2.079 . S
C18 O15 1.250 . S
C18 O16 1.248 . S
C19 O20 1.264 . S
C19 O27 1.249 . S
O20 C19 1.264 . S
O21 Mg14 1.986 . S
O21 C25 1.246 . S
O22 Mg17 2.032 . S
O22 C25 1.259 . S
O23 Mg14 2.114 . S
O23 C26 1.252 . S
O24 Mg14 2.251 . S
O24 Mg17 2.079 . S
O24 C26 1.273 . S
C25 O21 1.246 . S
C25 O22 1.259 . S
C26 O23 1.252 . S
C26 O24 1.273 . S
O27 Mg14 2.010 . S
O27 C19 1.249 . S
Mg28 O29 2.028 . S
Mg28 O35 1.986 . S
Mg28 O37 2.114 . S
Mg28 O38 2.251 . S
Mg28 O41 2.010 . S
O29 Mg28 2.028 . S
O29 C32 1.250 . S
O30 Mg31 2.028 . S
O30 C32 1.248 . S
Mg31 O30 2.028 . S
Mg31 O36 2.032 . S
Mg31 O38 2.079 . S
C32 O29 1.250 . S
C32 O30 1.248 . S
C33 O34 1.264 . S
C33 O41 1.249 . S
O34 C33 1.264 . S
O35 Mg28 1.986 . S
O35 C39 1.246 . S
O36 Mg31 2.032 . S
O36 C39 1.259 . S
O37 Mg28 2.114 . S
O37 C40 1.252 . S
O38 Mg28 2.251 . S
O38 Mg31 2.079 . S
O38 C40 1.273 . S
C39 O35 1.246 . S
C39 O36 1.259 . S
C40 O37 1.252 . S
C40 O38 1.273 . S
O41 Mg28 2.010 . S
O41 C33 1.249 . S
Mg42 O43 2.028 . S
Mg42 O49 1.986 . S
Mg42 O51 2.114 . S
Mg42 O52 2.251 . S
Mg42 O55 2.010 . S
O43 Mg42 2.028 . S
O43 C46 1.250 . S
O44 Mg45 2.028 . S
O44 C46 1.248 . S
Mg45 O44 2.028 . S
Mg45 O50 2.032 . S
Mg45 O52 2.079 . S
C46 O43 1.250 . S
C46 O44 1.248 . S
C47 O48 1.264 . S
C47 O55 1.249 . S
O48 C47 1.264 . S
O49 Mg42 1.986 . S
O49 C53 1.246 . S
O50 Mg45 2.032 . S
O50 C53 1.259 . S
O51 Mg42 2.114 . S
O51 C54 1.252 . S
O52 Mg42 2.251 . S
O52 Mg45 2.079 . S
O52 C54 1.273 . S
C53 O49 1.246 . S
C53 O50 1.259 . S
C54 O51 1.252 . S
C54 O52 1.273 . S
O55 Mg42 2.010 . S
O55 C47 1.249 . S
Mg56 O57 2.028 . S
Mg56 O63 1.986 . S
Mg56 O65 2.114 . S
Mg56 O66 2.251 . S
Mg56 O69 2.010 . S
O57 Mg56 2.028 . S
O57 C60 1.250 . S
O58 Mg59 2.028 . S
O58 C60 1.248 . S
Mg59 O58 2.028 . S
Mg59 O64 2.032 . S
Mg59 O66 2.079 . S
C60 O57 1.250 . S
C60 O58 1.248 . S
C61 O62 1.264 . S
C61 O69 1.249 . S
O62 C61 1.264 . S
O63 Mg56 1.986 . S
O63 C67 1.246 . S
O64 Mg59 2.032 . S
O64 C67 1.259 . S
O65 Mg56 2.114 . S
O65 C68 1.252 . S
O66 Mg56 2.251 . S
O66 Mg59 2.079 . S
O66 C68 1.273 . S
C67 O63 1.246 . S
C67 O64 1.259 . S
C68 O65 1.252 . S
C68 O66 1.273 . S
O69 Mg56 2.010 . S
O69 C61 1.249 . S
Mg70 O71 2.028 . S
Mg70 O77 1.986 . S
Mg70 O79 2.114 . S
Mg70 O80 2.251 . S
Mg70 O83 2.010 . S
O71 Mg70 2.028 . S
O71 C74 1.250 . S
O72 Mg73 2.028 . S
O72 C74 1.248 . S
Mg73 O72 2.028 . S
Mg73 O78 2.032 . S
Mg73 O80 2.079 . S
C74 O71 1.250 . S
C74 O72 1.248 . S
C75 O76 1.264 . S
C75 O83 1.249 . S
O76 C75 1.264 . S
O77 Mg70 1.986 . S
O77 C81 1.246 . S
O78 Mg73 2.032 . S
O78 C81 1.259 . S
O79 Mg70 2.114 . S
O79 C82 1.252 . S
O80 Mg70 2.251 . S
O80 Mg73 2.079 . S
O80 C82 1.273 . S
C81 O77 1.246 . S
C81 O78 1.259 . S
C82 O79 1.252 . S
C82 O80 1.273 . S
O83 Mg70 2.010 . S
O83 C75 1.249 . S
Mg84 O85 2.028 . S
Mg84 O91 1.986 . S
Mg84 O93 2.114 . S
Mg84 O94 2.251 . S
Mg84 O97 2.010 . S
O85 Mg84 2.028 . S
O85 C88 1.250 . S
O86 Mg87 2.028 . S
O86 C88 1.248 . S
Mg87 O86 2.028 . S
Mg87 O92 2.032 . S
Mg87 O94 2.079 . S
C88 O85 1.250 . S
C88 O86 1.248 . S
C89 O90 1.264 . S
C89 O97 1.249 . S
O90 C89 1.264 . S
O91 Mg84 1.986 . S
O91 C95 1.246 . S
O92 Mg87 2.032 . S
O92 C95 1.259 . S
O93 Mg84 2.114 . S
O93 C96 1.252 . S
O94 Mg84 2.251 . S
O94 Mg87 2.079 . S
O94 C96 1.273 . S
C95 O91 1.246 . S
C95 O92 1.259 . S
C96 O93 1.252 . S
C96 O94 1.273 . S
O97 Mg84 2.010 . S
O97 C89 1.249 . S
Mg98 O99 2.028 . S
Mg98 O105 1.986 . S
Mg98 O107 2.114 . S
Mg98 O108 2.251 . S
Mg98 O111 2.010 . S
O99 Mg98 2.028 . S
O99 C102 1.250 . S
O100 Mg101 2.028 . S
O100 C102 1.248 . S
Mg101 O100 2.028 . S
Mg101 O106 2.032 . S
Mg101 O108 2.079 . S
C102 O99 1.250 . S
C102 O100 1.248 . S
C103 O104 1.264 . S
C103 O111 1.249 . S
O104 C103 1.264 . S
O105 Mg98 1.986 . S
O105 C109 1.246 . S
O106 Mg101 2.032 . S
O106 C109 1.259 . S
O107 Mg98 2.114 . S
O107 C110 1.252 . S
O108 Mg98 2.251 . S
O108 Mg101 2.079 . S
O108 C110 1.273 . S
C109 O105 1.246 . S
C109 O106 1.259 . S
C110 O107 1.252 . S
C110 O108 1.273 . S
O111 Mg98 2.010 . S
O111 C103 1.249 . S
Mg112 O113 2.028 . S
Mg112 O119 1.986 . S
Mg112 O121 2.114 . S
Mg112 O122 2.251 . S
Mg112 O125 2.010 . S
O113 Mg112 2.028 . S
O113 C116 1.250 . S
O114 Mg115 2.028 . S
O114 C116 1.248 . S
Mg115 O114 2.028 . S
Mg115 O120 2.032 . S
Mg115 O122 2.079 . S
C116 O113 1.250 . S
C116 O114 1.248 . S
C117 O118 1.264 . S
C117 O125 1.249 . S
O118 C117 1.264 . S
O119 Mg112 1.986 . S
O119 C123 1.246 . S
O120 Mg115 2.032 . S
O120 C123 1.259 . S
O121 Mg112 2.114 . S
O121 C124 1.252 . S
O122 Mg112 2.251 . S
O122 Mg115 2.079 . S
O122 C124 1.273 . S
C123 O119 1.246 . S
C123 O120 1.259 . S
C124 O121 1.252 . S
C124 O122 1.273 . S
O125 Mg112 2.010 . S
O125 C117 1.249 . S
Mg126 O127 2.028 . S
Mg126 O133 1.986 . S
Mg126 O135 2.114 . S
Mg126 O136 2.251 . S
Mg126 O139 2.010 . S
O127 Mg126 2.028 . S
O127 C130 1.250 . S
O128 Mg129 2.028 . S
O128 C130 1.248 . S
Mg129 O128 2.028 . S
Mg129 O134 2.032 . S
Mg129 O136 2.079 . S
C130 O127 1.250 . S
C130 O128 1.248 . S
C131 O132 1.264 . S
C131 O139 1.249 . S
O132 C131 1.264 . S
O133 Mg126 1.986 . S
O133 C137 1.246 . S
O134 Mg129 2.032 . S
O134 C137 1.259 . S
O135 Mg126 2.114 . S
O135 C138 1.252 . S
O136 Mg126 2.251 . S
O136 Mg129 2.079 . S
O136 C138 1.273 . S
C137 O133 1.246 . S
C137 O134 1.259 . S
C138 O135 1.252 . S
C138 O136 1.273 . S
O139 Mg126 2.010 . S
O139 C131 1.249 . S
Mg140 O141 2.028 . S
Mg140 O147 1.986 . S
Mg140 O149 2.114 . S
Mg140 O150 2.251 . S
Mg140 O153 2.010 . S
O141 Mg140 2.028 . S
O141 C144 1.250 . S
O142 Mg143 2.028 . S
O142 C144 1.248 . S
Mg143 O142 2.028 . S
Mg143 O148 2.032 . S
Mg143 O150 2.079 . S
C144 O141 1.250 . S
C144 O142 1.248 . S
C145 O146 1.264 . S
C145 O153 1.249 . S
O146 C145 1.264 . S
O147 Mg140 1.986 . S
O147 C151 1.246 . S
O148 Mg143 2.032 . S
O148 C151 1.259 . S
O149 Mg140 2.114 . S
O149 C152 1.252 . S
O150 Mg140 2.251 . S
O150 Mg143 2.079 . S
O150 C152 1.273 . S
C151 O147 1.246 . S
C151 O148 1.259 . S
C152 O149 1.252 . S
C152 O150 1.273 . S
O153 Mg140 2.010 . S
O153 C145 1.249 . S
Mg154 O155 2.028 . S
Mg154 O161 1.986 . S
Mg154 O163 2.114 . S
Mg154 O164 2.251 . S
Mg154 O167 2.010 . S
O155 Mg154 2.028 . S
O155 C158 1.250 . S
O156 Mg157 2.028 . S
O156 C158 1.248 . S
Mg157 O156 2.028 . S
Mg157 O162 2.032 . S
Mg157 O164 2.079 . S
C158 O155 1.250 . S
C158 O156 1.248 . S
C159 O160 1.264 . S
C159 O167 1.249 . S
O160 C159 1.264 . S
O161 Mg154 1.986 . S
O161 C165 1.246 . S
O162 Mg157 2.032 . S
O162 C165 1.259 . S
O163 Mg154 2.114 . S
O163 C166 1.252 . S
O164 Mg154 2.251 . S
O164 Mg157 2.079 . S
O164 C166 1.273 . S
C165 O161 1.246 . S
C165 O162 1.259 . S
C166 O163 1.252 . S
C166 O164 1.273 . S
O167 Mg154 2.010 . S
O167 C159 1.249 . S
H168 C186 0.951 . S
H169 C188 0.951 . S
H170 C190 0.950 1_554 S
H171 C191 0.950 . S
H172 C193 0.950 . S
H173 C196 0.950 . S
H174 C197 0.950 . S
H175 C199 0.950 . S
H176 C200 0.978 . S
H177 C201 0.951 . S
H178 C203 0.951 . S
H179 C205 0.950 1_556 S
H180 C206 0.950 . S
H181 C208 0.950 . S
H182 C211 0.950 . S
H183 C212 0.950 . S
H184 C214 0.950 . S
H185 C215 0.978 . S
C186 H168 0.951 . S
C186 C187 1.366 . S
C186 C188 1.388 . S
C187 C186 1.366 . S
C187 C191 1.385 . S
C188 H169 0.951 . S
C188 C186 1.388 . S
C188 C189 1.366 . S
C189 C188 1.366 . S
C189 C190 1.414 . S
C189 C192 1.499 . S
C190 H170 0.950 1_556 S
C190 C189 1.414 . S
C190 C191 1.374 . S
C191 H171 0.950 . S
C191 C187 1.385 . S
C191 C190 1.374 . S
C192 C189 1.499 . S
C192 C193 1.373 . S
C192 C194 1.391 . S
C193 H172 0.950 . S
C193 C192 1.373 . S
C193 C209 1.375 1_566 S
C194 C192 1.391 . S
C194 C195 1.524 1_556 S
C194 C208 1.375 1_566 S
C195 C194 1.524 1_554 S
C195 C196 1.397 . S
C195 C200 1.363 1_554 S
C196 H173 0.950 . S
C196 C195 1.397 . S
C196 C197 1.334 . S
C197 H174 0.950 . S
C197 C196 1.334 . S
C197 C198 1.287 . S
C198 C197 1.287 . S
C198 C199 1.524 1_554 S
C198 H217 0.913 . S
C199 H175 0.950 . S
C199 C198 1.524 1_556 S
C199 C200 1.415 . S
C200 H176 0.978 . S
C200 C195 1.363 1_556 S
C200 C199 1.415 . S
C201 H177 0.951 . S
C201 C202 1.366 . S
C201 C203 1.388 . S
C202 C201 1.366 . S
C202 C206 1.385 . S
C203 H178 0.951 . S
C203 C201 1.388 . S
C203 C204 1.366 . S
C204 C203 1.366 . S
C204 C205 1.414 . S
C204 C207 1.499 . S
C205 H179 0.950 1_554 S
C205 C204 1.414 . S
C205 C206 1.374 . S
C206 H180 0.950 . S
C206 C202 1.385 . S
C206 C205 1.374 . S
C207 C204 1.499 . S
C207 C208 1.373 . S
C207 C209 1.391 . S
C208 H181 0.950 . S
C208 C194 1.375 1_544 S
C208 C207 1.373 . S
C209 C193 1.375 1_544 S
C209 C207 1.391 . S
C209 C210 1.524 1_554 S
C210 C209 1.524 1_556 S
C210 C211 1.397 . S
C210 C215 1.363 1_556 S
C211 H182 0.950 . S
C211 C210 1.397 . S
C211 C212 1.334 . S
C212 H183 0.950 . S
C212 C211 1.334 . S
C212 C213 1.287 . S
C213 C212 1.287 . S
C213 C214 1.524 1_556 S
C213 H216 0.999 . S
C214 H184 0.950 . S
C214 C213 1.524 1_554 S
C214 C215 1.415 . S
C215 H185 0.978 . S
C215 C210 1.363 1_554 S
C215 C214 1.415 . S
H216 C213 0.999 . S
H217 C198 0.913 . S
H218 C236 0.951 . S
H219 C238 0.951 . S
H220 C240 0.950 . S
H221 C241 0.950 . S
H222 C243 0.950 . S
H223 C246 0.950 . S
H224 C247 0.950 . S
H225 C249 0.950 . S
H226 C250 0.950 . S
H227 C251 0.951 . S
H228 C253 0.951 . S
H229 C255 0.950 . S
H230 C256 0.950 . S
H231 C258 0.950 . S
H232 C261 0.950 . S
H233 C262 0.950 . S
H234 C264 0.950 . S
H235 C265 0.950 . S
C236 H218 0.951 . S
C236 C237 1.366 . S
C236 C238 1.388 . S
C237 C236 1.366 . S
C237 C241 1.385 . S
C238 H219 0.951 . S
C238 C236 1.388 . S
C238 C239 1.366 . S
C239 C238 1.366 . S
C239 C240 1.414 . S
C239 C242 1.499 . S
C240 H220 0.950 . S
C240 C239 1.414 . S
C240 C241 1.374 . S
C241 H221 0.950 . S
C241 C237 1.385 . S
C241 C240 1.374 . S
C242 C239 1.499 . S
C242 C243 1.373 . S
C242 C244 1.389 . S
C243 H222 0.950 . S
C243 C242 1.373 . S
C243 C259 1.377 . S
C244 C242 1.389 . S
C244 C245 1.524 . S
C244 C258 1.377 . S
C245 C244 1.524 . S
C245 C246 1.397 . S
C245 C250 1.363 . S
C246 H223 0.950 . S
C246 C245 1.397 . S
C246 C247 1.334 . S
C247 H224 0.950 . S
C247 C246 1.334 . S
C247 C248 1.287 . S
C248 C247 1.287 . S
C248 C249 1.524 . S
C248 H267 0.913 . S
C249 H225 0.950 . S
C249 C248 1.524 . S
C249 C250 1.415 . S
C250 H226 0.950 . S
C250 C245 1.363 . S
C250 C249 1.415 . S
C251 H227 0.951 . S
C251 C252 1.366 . S
C251 C253 1.388 . S
C252 C251 1.366 . S
C252 C256 1.385 . S
C253 H228 0.951 . S
C253 C251 1.388 . S
C253 C254 1.366 . S
C254 C253 1.366 . S
C254 C255 1.414 . S
C254 C257 1.499 . S
C255 H229 0.950 . S
C255 C254 1.414 . S
C255 C256 1.374 . S
C256 H230 0.950 . S
C256 C252 1.385 . S
C256 C255 1.374 . S
C257 C254 1.499 . S
C257 C258 1.373 . S
C257 C259 1.389 . S
C258 H231 0.950 . S
C258 C244 1.377 . S
C258 C257 1.373 . S
C259 C243 1.377 . S
C259 C257 1.389 . S
C259 C260 1.524 . S
C260 C259 1.524 . S
C260 C261 1.397 . S
C260 C265 1.363 . S
C261 H232 0.950 . S
C261 C260 1.397 . S
C261 C262 1.334 . S
C262 H233 0.950 . S
C262 C261 1.334 . S
C262 C263 1.287 . S
C263 C262 1.287 . S
C263 C264 1.524 . S
C263 H266 0.999 . S
C264 H234 0.950 . S
C264 C263 1.524 . S
C264 C265 1.415 . S
C265 H235 0.950 . S
C265 C260 1.363 . S
C265 C264 1.415 . S
H266 C263 0.999 . S
H267 C248 0.913 . S
H268 C286 0.951 . S
H269 C288 0.951 . S
H270 C290 0.950 . S
H271 C291 0.950 . S
H272 C293 0.950 . S
H273 C296 0.950 . S
H274 C297 0.950 . S
H275 C299 0.950 . S
H276 C300 0.950 . S
H277 C301 0.951 . S
H278 C303 0.951 . S
H279 C305 0.950 . S
H280 C306 0.950 . S
H281 C308 0.950 . S
H282 C311 0.950 . S
H283 C312 0.950 . S
H284 C314 0.950 . S
H285 C315 0.950 . S
C286 H268 0.951 . S
C286 C287 1.366 . S
C286 C288 1.388 . S
C287 C286 1.366 . S
C287 C291 1.385 . S
C288 H269 0.951 . S
C288 C286 1.388 . S
C288 C289 1.366 . S
C289 C288 1.366 . S
C289 C290 1.414 . S
C289 C292 1.499 . S
C290 H270 0.950 . S
C290 C289 1.414 . S
C290 C291 1.374 . S
C291 H271 0.950 . S
C291 C287 1.385 . S
C291 C290 1.374 . S
C292 C289 1.499 . S
C292 C293 1.373 . S
C292 C294 1.389 . S
C293 H272 0.950 . S
C293 C292 1.373 . S
C293 C309 1.377 1_655 S
C294 C292 1.389 . S
C294 C295 1.524 . S
C294 C308 1.377 1_655 S
C295 C294 1.524 . S
C295 C296 1.397 . S
C295 C300 1.363 . S
C296 H273 0.950 . S
C296 C295 1.397 . S
C296 C297 1.334 . S
C297 H274 0.950 . S
C297 C296 1.334 . S
C297 C298 1.287 . S
C298 C297 1.287 . S
C298 C299 1.524 . S
C298 H317 0.913 . S
C299 H275 0.950 . S
C299 C298 1.524 . S
C299 C300 1.415 . S
C300 H276 0.950 . S
C300 C295 1.363 . S
C300 C299 1.415 . S
C301 H277 0.951 . S
C301 C302 1.366 . S
C301 C303 1.388 . S
C302 C301 1.366 . S
C302 C306 1.385 . S
C303 H278 0.951 . S
C303 C301 1.388 . S
C303 C304 1.366 . S
C304 C303 1.366 . S
C304 C305 1.414 . S
C304 C307 1.499 . S
C305 H279 0.950 . S
C305 C304 1.414 . S
C305 C306 1.374 . S
C306 H280 0.950 . S
C306 C302 1.385 . S
C306 C305 1.374 . S
C307 C304 1.499 . S
C307 C308 1.373 . S
C307 C309 1.389 . S
C308 H281 0.950 . S
C308 C294 1.377 1_455 S
C308 C307 1.373 . S
C309 C293 1.377 1_455 S
C309 C307 1.389 . S
C309 C310 1.524 . S
C310 C309 1.524 . S
C310 C311 1.397 . S
C310 C315 1.363 . S
C311 H282 0.950 . S
C311 C310 1.397 . S
C311 C312 1.334 . S
C312 H283 0.950 . S
C312 C311 1.334 . S
C312 C313 1.287 . S
C313 C312 1.287 . S
C313 C314 1.524 . S
C313 H316 0.999 . S
C314 H284 0.950 . S
C314 C313 1.524 . S
C314 C315 1.415 . S
C315 H285 0.950 . S
C315 C310 1.363 . S
C315 C314 1.415 . S
H316 C313 0.999 . S
H317 C298 0.913 . S
H318 C336 0.951 . S
H319 C338 0.951 . S
H320 C340 0.950 . S
H321 C341 0.950 . S
H322 C343 0.950 . S
H323 C346 0.950 . S
H324 C347 0.950 . S
H325 C349 0.950 . S
H326 C350 0.950 . S
H327 C351 0.951 . S
H328 C353 0.951 . S
H329 C355 0.950 . S
H330 C356 0.950 . S
H331 C358 0.950 . S
H332 C361 0.950 . S
H333 C362 0.950 . S
H334 C364 0.950 . S
H335 C365 0.950 . S
C336 H318 0.951 . S
C336 C337 1.366 . S
C336 C338 1.388 . S
C337 C336 1.366 . S
C337 C341 1.385 . S
C338 H319 0.951 . S
C338 C336 1.388 . S
C338 C339 1.366 . S
C339 C338 1.366 . S
C339 C340 1.414 . S
C339 C342 1.499 . S
C340 H320 0.950 . S
C340 C339 1.414 . S
C340 C341 1.374 . S
C341 H321 0.950 . S
C341 C337 1.385 . S
C341 C340 1.374 . S
C342 C339 1.499 . S
C342 C343 1.373 1_554 S
C342 C344 1.389 . S
C343 H322 0.950 . S
C343 C342 1.373 1_556 S
C343 C359 1.377 1_565 S
C344 C342 1.389 . S
C344 C345 1.524 . S
C344 C358 1.377 1_565 S
C345 C344 1.524 . S
C345 C346 1.397 . S
C345 C350 1.363 . S
C346 H323 0.950 . S
C346 C345 1.397 . S
C346 C347 1.334 . S
C347 H324 0.950 . S
C347 C346 1.334 . S
C347 C348 1.287 . S
C348 C347 1.287 . S
C348 C349 1.524 . S
C348 H367 0.913 . S
C349 H325 0.950 . S
C349 C348 1.524 . S
C349 C350 1.415 . S
C350 H326 0.950 . S
C350 C345 1.363 . S
C350 C349 1.415 . S
C351 H327 0.951 . S
C351 C352 1.366 . S
C351 C353 1.388 . S
C352 C351 1.366 . S
C352 C356 1.385 . S
C353 H328 0.951 . S
C353 C351 1.388 . S
C353 C354 1.366 . S
C354 C353 1.366 . S
C354 C355 1.414 . S
C354 C357 1.499 . S
C355 H329 0.950 . S
C355 C354 1.414 . S
C355 C356 1.374 . S
C356 H330 0.950 . S
C356 C352 1.385 . S
C356 C355 1.374 . S
C357 C354 1.499 . S
C357 C358 1.373 1_556 S
C357 C359 1.389 . S
C358 H331 0.950 . S
C358 C344 1.377 1_545 S
C358 C357 1.373 1_554 S
C359 C343 1.377 1_545 S
C359 C357 1.389 . S
C359 C360 1.524 . S
C360 C359 1.524 . S
C360 C361 1.397 . S
C360 C365 1.363 . S
C361 H332 0.950 . S
C361 C360 1.397 . S
C361 C362 1.334 . S
C362 H333 0.950 . S
C362 C361 1.334 . S
C362 C363 1.287 . S
C363 C362 1.287 . S
C363 C364 1.524 . S
C363 H366 0.999 . S
C364 H334 0.950 . S
C364 C363 1.524 . S
C364 C365 1.415 . S
C365 H335 0.950 . S
C365 C360 1.363 . S
C365 C364 1.415 . S
H366 C363 0.999 . S
H367 C348 0.913 . S
H368 C386 0.951 . S
H369 C388 0.951 . S
H370 C390 0.950 . S
H371 C391 0.950 . S
H372 C393 0.950 . S
H373 C396 0.950 . S
H374 C397 0.950 . S
H375 C399 0.950 . S
H376 C400 0.950 . S
H377 C401 0.951 . S
H378 C403 0.951 . S
H379 C405 0.950 . S
H380 C406 0.950 . S
H381 C408 0.950 . S
H382 C411 0.950 . S
H383 C412 0.950 . S
H384 C414 0.950 . S
H385 C415 0.950 . S
C386 H368 0.951 . S
C386 C387 1.366 . S
C386 C388 1.388 . S
C387 C386 1.366 . S
C387 C391 1.385 . S
C388 H369 0.951 . S
C388 C386 1.388 . S
C388 C389 1.366 . S
C389 C388 1.366 . S
C389 C390 1.414 . S
C389 C392 1.499 . S
C390 H370 0.950 . S
C390 C389 1.414 . S
C390 C391 1.374 . S
C391 H371 0.950 . S
C391 C387 1.385 . S
C391 C390 1.374 . S
C392 C389 1.499 . S
C392 C393 1.373 . S
C392 C394 1.389 . S
C393 H372 0.950 . S
C393 C392 1.373 . S
C393 C409 1.377 . S
C394 C392 1.389 . S
C394 C395 1.524 . S
C394 C408 1.377 . S
C395 C394 1.524 . S
C395 C396 1.397 . S
C395 C400 1.363 . S
C396 H373 0.950 . S
C396 C395 1.397 . S
C396 C397 1.334 . S
C397 H374 0.950 . S
C397 C396 1.334 . S
C397 C398 1.287 . S
C398 C397 1.287 . S
C398 C399 1.524 . S
C398 H417 0.913 . S
C399 H375 0.950 . S
C399 C398 1.524 . S
C399 C400 1.415 . S
C400 H376 0.950 . S
C400 C395 1.363 . S
C400 C399 1.415 . S
C401 H377 0.951 . S
C401 C402 1.366 . S
C401 C403 1.388 . S
C402 C401 1.366 . S
C402 C406 1.385 . S
C403 H378 0.951 . S
C403 C401 1.388 . S
C403 C404 1.366 . S
C404 C403 1.366 . S
C404 C405 1.414 . S
C404 C407 1.499 . S
C405 H379 0.950 . S
C405 C404 1.414 . S
C405 C406 1.374 . S
C406 H380 0.950 . S
C406 C402 1.385 . S
C406 C405 1.374 . S
C407 C404 1.499 . S
C407 C408 1.373 . S
C407 C409 1.389 . S
C408 H381 0.950 . S
C408 C394 1.377 . S
C408 C407 1.373 . S
C409 C393 1.377 . S
C409 C407 1.389 . S
C409 C410 1.524 . S
C410 C409 1.524 . S
C410 C411 1.397 . S
C410 C415 1.363 . S
C411 H382 0.950 . S
C411 C410 1.397 . S
C411 C412 1.334 . S
C412 H383 0.950 . S
C412 C411 1.334 . S
C412 C413 1.287 . S
C413 C412 1.287 . S
C413 C414 1.524 . S
C413 H416 0.999 . S
C414 H384 0.950 . S
C414 C413 1.524 . S
C414 C415 1.415 . S
C415 H385 0.950 . S
C415 C410 1.363 . S
C415 C414 1.415 . S
H416 C413 0.999 . S
H417 C398 0.913 . S
H418 C436 0.951 . S
H419 C438 0.951 . S
H420 C440 0.950 . S
H421 C441 0.950 . S
H422 C443 0.950 . S
H423 C446 0.950 . S
H424 C447 0.950 . S
H425 C449 0.950 . S
H426 C450 0.950 . S
H427 C451 0.951 . S
H428 C453 0.951 . S
H429 C455 0.950 . S
H430 C456 0.950 . S
H431 C458 0.950 . S
H432 C461 0.950 . S
H433 C462 0.950 . S
H434 C464 0.950 . S
H435 C465 0.950 . S
C436 H418 0.951 . S
C436 C437 1.366 . S
C436 C438 1.388 . S
C437 C436 1.366 . S
C437 C441 1.385 . S
C438 H419 0.951 . S
C438 C436 1.388 . S
C438 C439 1.366 . S
C439 C438 1.366 . S
C439 C440 1.414 . S
C439 C442 1.499 . S
C440 H420 0.950 . S
C440 C439 1.414 . S
C440 C441 1.374 . S
C441 H421 0.950 . S
C441 C437 1.385 . S
C441 C440 1.374 . S
C442 C439 1.499 . S
C442 C443 1.373 . S
C442 C444 1.389 . S
C443 H422 0.950 . S
C443 C442 1.373 . S
C443 C459 1.377 1_655 S
C444 C442 1.389 . S
C444 C445 1.524 . S
C444 C458 1.377 1_655 S
C445 C444 1.524 . S
C445 C446 1.397 . S
C445 C450 1.363 . S
C446 H423 0.950 . S
C446 C445 1.397 . S
C446 C447 1.334 . S
C447 H424 0.950 . S
C447 C446 1.334 . S
C447 C448 1.287 . S
C448 C447 1.287 . S
C448 C449 1.524 . S
C448 H467 0.913 . S
C449 H425 0.950 . S
C449 C448 1.524 . S
C449 C450 1.415 . S
C450 H426 0.950 . S
C450 C445 1.363 . S
C450 C449 1.415 . S
C451 H427 0.951 . S
C451 C452 1.366 . S
C451 C453 1.388 . S
C452 C451 1.366 . S
C452 C456 1.385 . S
C453 H428 0.951 . S
C453 C451 1.388 . S
C453 C454 1.366 . S
C454 C453 1.366 . S
C454 C455 1.414 . S
C454 C457 1.499 . S
C455 H429 0.950 . S
C455 C454 1.414 . S
C455 C456 1.374 . S
C456 H430 0.950 . S
C456 C452 1.385 . S
C456 C455 1.374 . S
C457 C454 1.499 . S
C457 C458 1.373 . S
C457 C459 1.389 . S
C458 H431 0.950 . S
C458 C444 1.377 1_455 S
C458 C457 1.373 . S
C459 C443 1.377 1_455 S
C459 C457 1.389 . S
C459 C460 1.524 . S
C460 C459 1.524 . S
C460 C461 1.397 . S
C460 C465 1.363 . S
C461 H432 0.950 . S
C461 C460 1.397 . S
C461 C462 1.334 . S
C462 H433 0.950 . S
C462 C461 1.334 . S
C462 C463 1.287 . S
C463 C462 1.287 . S
C463 C464 1.524 . S
C463 H466 0.999 . S
C464 H434 0.950 . S
C464 C463 1.524 . S
C464 C465 1.415 . S
C465 H435 0.950 . S
C465 C460 1.363 . S
C465 C464 1.415 . S
H466 C463 0.999 . S
H467 C448 0.913 . S
H468 C486 0.951 . S
H469 C488 0.953 . S
H470 C490 0.950 . S
H471 C491 0.950 . S
H472 C493 0.950 . S
H473 C496 0.950 . S
H474 C497 0.950 . S
H475 C499 0.950 . S
H476 C500 0.950 . S
H477 C501 0.951 . S
H478 C503 0.953 . S
H479 C505 0.950 . S
H480 C506 0.950 . S
H481 C508 0.950 . S
H482 C511 0.950 . S
H483 C512 0.950 . S
H484 C514 0.950 . S
H485 C515 0.950 . S
C486 H468 0.951 . S
C486 C487 1.366 . S
C486 C488 1.388 . S
C487 C486 1.366 . S
C487 C491 1.385 . S
C488 H469 0.953 . S
C488 C486 1.388 . S
C488 C489 1.366 . S
C489 C488 1.366 . S
C489 C490 1.414 . S
C489 C492 1.499 . S
C490 H470 0.950 . S
C490 C489 1.414 . S
C490 C491 1.374 . S
C491 H471 0.950 . S
C491 C487 1.385 . S
C491 C490 1.374 . S
C492 C489 1.499 . S
C492 C493 1.373 . S
C492 C494 1.389 1_556 S
C493 H472 0.950 . S
C493 C492 1.373 . S
C493 C509 1.377 . S
C494 C492 1.389 1_554 S
C494 C495 1.524 . S
C494 C508 1.377 . S
C495 C494 1.524 . S
C495 C496 1.397 . S
C495 C500 1.363 . S
C496 H473 0.950 . S
C496 C495 1.397 . S
C496 C497 1.334 . S
C497 H474 0.950 . S
C497 C496 1.334 . S
C497 C498 1.287 . S
C498 C497 1.287 . S
C498 C499 1.524 . S
C498 H517 0.913 . S
C499 H475 0.950 . S
C499 C498 1.524 . S
C499 C500 1.415 . S
C500 H476 0.950 . S
C500 C495 1.363 . S
C500 C499 1.415 . S
C501 H477 0.951 . S
C501 C502 1.366 . S
C501 C503 1.388 . S
C502 C501 1.366 . S
C502 C506 1.385 . S
C503 H478 0.953 . S
C503 C501 1.388 . S
C503 C504 1.366 . S
C504 C503 1.366 . S
C504 C505 1.414 . S
C504 C507 1.499 . S
C505 H479 0.950 . S
C505 C504 1.414 . S
C505 C506 1.374 . S
C506 H480 0.950 . S
C506 C502 1.385 . S
C506 C505 1.374 . S
C507 C504 1.499 . S
C507 C508 1.373 . S
C507 C509 1.389 1_554 S
C508 H481 0.950 . S
C508 C494 1.377 . S
C508 C507 1.373 . S
C509 C493 1.377 . S
C509 C507 1.389 1_556 S
C509 C510 1.524 . S
C510 C509 1.524 . S
C510 C511 1.397 . S
C510 C515 1.363 . S
C511 H482 0.950 . S
C511 C510 1.397 . S
C511 C512 1.334 . S
C512 H483 0.950 . S
C512 C511 1.334 . S
C512 C513 1.287 . S
C513 C512 1.287 . S
C513 C514 1.524 . S
C513 H516 0.999 . S
C514 H484 0.950 . S
C514 C513 1.524 . S
C514 C515 1.415 . S
C515 H485 0.950 . S
C515 C510 1.363 . S
C515 C514 1.415 . S
H516 C513 0.999 . S
H517 C498 0.913 . S
H518 C536 0.951 . S
H519 C538 0.951 . S
H520 C540 0.950 . S
H521 C541 0.950 . S
H522 C543 0.950 . S
H523 C546 0.950 . S
H524 C547 0.950 . S
H525 C549 0.950 . S
H526 C550 0.950 . S
H527 C551 0.951 . S
H528 C553 0.951 . S
H529 C555 0.950 . S
H530 C556 0.950 . S
H531 C558 0.950 . S
H532 C561 0.950 . S
H533 C562 0.950 . S
H534 C564 0.950 . S
H535 C565 0.950 . S
C536 H518 0.951 . S
C536 C537 1.366 . S
C536 C538 1.388 . S
C537 C536 1.366 . S
C537 C541 1.385 . S
C538 H519 0.951 . S
C538 C536 1.388 . S
C538 C539 1.366 . S
C539 C538 1.366 . S
C539 C540 1.414 . S
C539 C542 1.499 . S
C540 H520 0.950 . S
C540 C539 1.414 . S
C540 C541 1.374 . S
C541 H521 0.950 . S
C541 C537 1.385 . S
C541 C540 1.374 . S
C542 C539 1.499 . S
C542 C543 1.373 . S
C542 C544 1.389 . S
C543 H522 0.950 . S
C543 C542 1.373 . S
C543 C559 1.377 . S
C544 C542 1.389 . S
C544 C545 1.524 . S
C544 C558 1.377 . S
C545 C544 1.524 . S
C545 C546 1.397 . S
C545 C550 1.363 . S
C546 H523 0.950 . S
C546 C545 1.397 . S
C546 C547 1.334 . S
C547 H524 0.950 . S
C547 C546 1.334 . S
C547 C548 1.287 . S
C548 C547 1.287 . S
C548 C549 1.524 . S
C548 H567 0.913 . S
C549 H525 0.950 . S
C549 C548 1.524 . S
C549 C550 1.415 . S
C550 H526 0.950 . S
C550 C545 1.363 . S
C550 C549 1.415 . S
C551 H527 0.951 . S
C551 C552 1.366 . S
C551 C553 1.388 . S
C552 C551 1.366 . S
C552 C556 1.385 . S
C553 H528 0.951 . S
C553 C551 1.388 . S
C553 C554 1.366 . S
C554 C553 1.366 . S
C554 C555 1.414 . S
C554 C557 1.499 . S
C555 H529 0.950 . S
C555 C554 1.414 . S
C555 C556 1.374 . S
C556 H530 0.950 . S
C556 C552 1.385 . S
C556 C555 1.374 . S
C557 C554 1.499 . S
C557 C558 1.373 . S
C557 C559 1.389 . S
C558 H531 0.950 . S
C558 C544 1.377 . S
C558 C557 1.373 . S
C559 C543 1.377 . S
C559 C557 1.389 . S
C559 C560 1.524 . S
C560 C559 1.524 . S
C560 C561 1.397 . S
C560 C565 1.363 . S
C561 H532 0.950 . S
C561 C560 1.397 . S
C561 C562 1.334 . S
C562 H533 0.950 . S
C562 C561 1.334 . S
C562 C563 1.287 . S
C563 C562 1.287 . S
C563 C564 1.524 . S
C563 H566 0.999 . S
C564 H534 0.950 . S
C564 C563 1.524 . S
C564 C565 1.415 . S
C565 H535 0.950 . S
C565 C560 1.363 . S
C565 C564 1.415 . S
H566 C563 0.999 . S
H567 C548 0.913 . S
H568 C586 0.951 . S
H569 C588 0.951 . S
H570 C590 0.950 . S
H571 C591 0.950 . S
H572 C593 0.950 . S
H573 C596 0.950 . S
H574 C597 0.950 . S
H575 C599 0.950 . S
H576 C600 0.950 . S
H577 C601 0.951 . S
H578 C603 0.951 . S
H579 C605 0.950 . S
H580 C606 0.950 . S
H581 C608 0.950 . S
H582 C611 0.950 . S
H583 C612 0.950 . S
H584 C614 0.950 . S
H585 C615 0.950 . S
C586 H568 0.951 . S
C586 C587 1.366 . S
C586 C588 1.388 . S
C587 C586 1.366 . S
C587 C591 1.385 . S
C588 H569 0.951 . S
C588 C586 1.388 . S
C588 C589 1.366 . S
C589 C588 1.366 . S
C589 C590 1.414 . S
C589 C592 1.499 . S
C590 H570 0.950 . S
C590 C589 1.414 . S
C590 C591 1.374 . S
C591 H571 0.950 . S
C591 C587 1.385 . S
C591 C590 1.374 . S
C592 C589 1.499 . S
C592 C593 1.373 . S
C592 C594 1.389 . S
C593 H572 0.950 . S
C593 C592 1.373 . S
C593 C609 1.377 . S
C594 C592 1.389 . S
C594 C595 1.524 . S
C594 C608 1.377 . S
C595 C594 1.524 . S
C595 C596 1.397 . S
C595 C600 1.363 . S
C596 H573 0.950 . S
C596 C595 1.397 . S
C596 C597 1.334 . S
C597 H574 0.950 . S
C597 C596 1.334 . S
C597 C598 1.287 . S
C598 C597 1.287 . S
C598 C599 1.524 . S
C598 H617 0.913 . S
C599 H575 0.950 . S
C599 C598 1.524 . S
C599 C600 1.415 . S
C600 H576 0.950 . S
C600 C595 1.363 . S
C600 C599 1.415 . S
C601 H577 0.951 . S
C601 C602 1.366 . S
C601 C603 1.388 . S
C602 C601 1.366 . S
C602 C606 1.385 . S
C603 H578 0.951 . S
C603 C601 1.388 . S
C603 C604 1.366 . S
C604 C603 1.366 . S
C604 C605 1.414 . S
C604 C607 1.499 . S
C605 H579 0.950 . S
C605 C604 1.414 . S
C605 C606 1.374 . S
C606 H580 0.950 . S
C606 C602 1.385 . S
C606 C605 1.374 . S
C607 C604 1.499 . S
C607 C608 1.373 . S
C607 C609 1.389 . S
C608 H581 0.950 . S
C608 C594 1.377 . S
C608 C607 1.373 . S
C609 C593 1.377 . S
C609 C607 1.389 . S
C609 C610 1.524 . S
C610 C609 1.524 . S
C610 C611 1.397 . S
C610 C615 1.363 . S
C611 H582 0.950 . S
C611 C610 1.397 . S
C611 C612 1.334 . S
C612 H583 0.950 . S
C612 C611 1.334 . S
C612 C613 1.287 . S
C613 C612 1.287 . S
C613 C614 1.524 . S
C613 H616 0.999 . S
C614 H584 0.950 . S
C614 C613 1.524 . S
C614 C615 1.415 . S
C615 H585 0.950 . S
C615 C610 1.363 . S
C615 C614 1.415 . S
H616 C613 0.999 . S
H617 C598 0.913 . S
H618 C636 0.951 . S
H619 C638 0.962 . S
H620 C640 0.950 . S
H621 C641 0.950 . S
H622 C643 0.950 . S
H623 C646 0.950 . S
H624 C647 0.950 . S
H625 C649 0.950 1_554 S
H626 C650 0.950 . S
H627 C651 0.951 . S
H628 C653 0.963 . S
H629 C655 0.950 . S
H630 C656 0.950 . S
H631 C658 0.950 . S
H632 C661 0.950 . S
H633 C662 0.950 . S
H634 C664 0.950 1_556 S
H635 C665 0.950 . S
C636 H618 0.951 . S
C636 C637 1.366 . S
C636 C638 1.388 . S
C637 C636 1.366 . S
C637 C641 1.385 . S
C638 H619 0.962 . S
C638 C636 1.388 . S
C638 C639 1.366 . S
C639 C638 1.366 . S
C639 C640 1.414 . S
C639 C642 1.499 . S
C640 H620 0.950 . S
C640 C639 1.414 . S
C640 C641 1.374 . S
C641 H621 0.950 . S
C641 C637 1.385 . S
C641 C640 1.374 . S
C642 C639 1.499 . S
C642 C643 1.373 . S
C642 C644 1.389 . S
C643 H622 0.950 . S
C643 C642 1.373 . S
C643 C659 1.377 1_556 S
C644 C642 1.389 . S
C644 C645 1.524 . S
C644 C658 1.377 1_556 S
C645 C644 1.524 . S
C645 C646 1.397 . S
C645 C650 1.363 1_556 S
C646 H623 0.950 . S
C646 C645 1.397 . S
C646 C647 1.334 . S
C647 H624 0.950 . S
C647 C646 1.334 . S
C647 C648 1.287 . S
C648 C647 1.287 . S
C648 C649 1.524 . S
C648 H667 0.913 . S
C649 H625 0.950 1_556 S
C649 C648 1.524 . S
C649 C650 1.415 1_556 S
C650 H626 0.950 . S
C650 C645 1.363 1_554 S
C650 C649 1.415 1_554 S
C651 H627 0.951 . S
C651 C652 1.366 . S
C651 C653 1.388 . S
C652 C651 1.366 . S
C652 C656 1.385 . S
C653 H628 0.963 . S
C653 C651 1.388 . S
C653 C654 1.366 . S
C654 C653 1.366 . S
C654 C655 1.414 . S
C654 C657 1.499 . S
C655 H629 0.950 . S
C655 C654 1.414 . S
C655 C656 1.374 . S
C656 H630 0.950 . S
C656 C652 1.385 . S
C656 C655 1.374 . S
C657 C654 1.499 . S
C657 C658 1.373 . S
C657 C659 1.389 . S
C658 H631 0.950 . S
C658 C644 1.377 1_554 S
C658 C657 1.373 . S
C659 C643 1.377 1_554 S
C659 C657 1.389 . S
C659 C660 1.524 . S
C660 C659 1.524 . S
C660 C661 1.397 . S
C660 C665 1.363 1_554 S
C661 H632 0.950 . S
C661 C660 1.397 . S
C661 C662 1.334 . S
C662 H633 0.950 . S
C662 C661 1.334 . S
C662 C663 1.287 . S
C663 C662 1.287 . S
C663 C664 1.524 . S
C663 H666 0.999 . S
C664 H634 0.950 1_554 S
C664 C663 1.524 . S
C664 C665 1.415 1_554 S
C665 H635 0.950 . S
C665 C660 1.363 1_556 S
C665 C664 1.415 1_556 S
H666 C663 0.999 . S
H667 C648 0.913 . S
H668 C686 0.951 . S
H669 C688 0.951 . S
H670 C690 0.950 . S
H671 C691 0.950 . S
H672 C693 0.950 . S
H673 C696 0.950 . S
H674 C697 0.950 . S
H675 C699 0.950 . S
H676 C700 0.950 . S
H677 C701 0.951 . S
H678 C703 0.951 . S
H679 C705 0.950 . S
H680 C706 0.950 . S
H681 C708 0.950 . S
H682 C711 0.950 . S
H683 C712 0.950 . S
H684 C714 0.950 . S
H685 C715 0.950 . S
C686 H668 0.951 . S
C686 C687 1.366 . S
C686 C688 1.388 . S
C687 C686 1.366 . S
C687 C691 1.385 . S
C688 H669 0.951 . S
C688 C686 1.388 . S
C688 C689 1.366 . S
C689 C688 1.366 . S
C689 C690 1.414 . S
C689 C692 1.499 . S
C690 H670 0.950 . S
C690 C689 1.414 . S
C690 C691 1.374 . S
C691 H671 0.950 . S
C691 C687 1.385 . S
C691 C690 1.374 . S
C692 C689 1.499 . S
C692 C693 1.373 . S
C692 C694 1.389 . S
C693 H672 0.950 . S
C693 C692 1.373 . S
C693 C709 1.377 . S
C694 C692 1.389 . S
C694 C695 1.524 . S
C694 C708 1.377 . S
C695 C694 1.524 . S
C695 C696 1.397 . S
C695 C700 1.363 . S
C696 H673 0.950 . S
C696 C695 1.397 . S
C696 C697 1.334 . S
C697 H674 0.950 . S
C697 C696 1.334 . S
C697 C698 1.287 . S
C698 C697 1.287 . S
C698 C699 1.524 . S
C698 H717 0.913 . S
C699 H675 0.950 . S
C699 C698 1.524 . S
C699 C700 1.415 . S
C700 H676 0.950 . S
C700 C695 1.363 . S
C700 C699 1.415 . S
C701 H677 0.951 . S
C701 C702 1.366 . S
C701 C703 1.388 . S
C702 C701 1.366 . S
C702 C706 1.385 . S
C703 H678 0.951 . S
C703 C701 1.388 . S
C703 C704 1.366 . S
C704 C703 1.366 . S
C704 C705 1.414 . S
C704 C707 1.499 . S
C705 H679 0.950 . S
C705 C704 1.414 . S
C705 C706 1.374 . S
C706 H680 0.950 . S
C706 C702 1.385 . S
C706 C705 1.374 . S
C707 C704 1.499 . S
C707 C708 1.373 . S
C707 C709 1.389 . S
C708 H681 0.950 . S
C708 C694 1.377 . S
C708 C707 1.373 . S
C709 C693 1.377 . S
C709 C707 1.389 . S
C709 C710 1.524 . S
C710 C709 1.524 . S
C710 C711 1.397 . S
C710 C715 1.363 . S
C711 H682 0.950 . S
C711 C710 1.397 . S
C711 C712 1.334 . S
C712 H683 0.950 . S
C712 C711 1.334 . S
C712 C713 1.287 . S
C713 C712 1.287 . S
C713 C714 1.524 . S
C713 H716 0.999 . S
C714 H684 0.950 . S
C714 C713 1.524 . S
C714 C715 1.415 . S
C715 H685 0.950 . S
C715 C710 1.363 . S
C715 C714 1.415 . S
H716 C713 0.999 . S
H717 C698 0.913 . S
H718 C736 0.951 . S
H719 C738 0.951 . S
H720 C740 0.950 . S
H721 C741 0.950 . S
H722 C743 0.950 . S
H723 C746 0.950 . S
H724 C747 0.950 . S
H725 C749 0.950 . S
H726 C750 0.950 . S
H727 C751 0.951 . S
H728 C753 0.951 . S
H729 C755 0.950 . S
H730 C756 0.950 . S
H731 C758 0.950 . S
H732 C761 0.950 . S
H733 C762 0.950 . S
H734 C764 0.950 . S
H735 C765 0.950 . S
C736 H718 0.951 . S
C736 C737 1.366 . S
C736 C738 1.388 . S
C737 C736 1.366 . S
C737 C741 1.385 . S
C738 H719 0.951 . S
C738 C736 1.388 . S
C738 C739 1.366 . S
C739 C738 1.366 . S
C739 C740 1.414 . S
C739 C742 1.499 . S
C740 H720 0.950 . S
C740 C739 1.414 . S
C740 C741 1.374 . S
C741 H721 0.950 . S
C741 C737 1.385 . S
C741 C740 1.374 . S
C742 C739 1.499 . S
C742 C743 1.373 . S
C742 C744 1.389 . S
C743 H722 0.950 . S
C743 C742 1.373 . S
C743 C759 1.377 . S
C744 C742 1.389 . S
C744 C745 1.524 . S
C744 C758 1.377 . S
C745 C744 1.524 . S
C745 C746 1.397 . S
C745 C750 1.363 . S
C746 H723 0.950 . S
C746 C745 1.397 . S
C746 C747 1.334 . S
C747 H724 0.950 . S
C747 C746 1.334 . S
C747 C748 1.287 . S
C748 C747 1.287 . S
C748 C749 1.524 . S
C748 H767 0.913 . S
C749 H725 0.950 . S
C749 C748 1.524 . S
C749 C750 1.415 . S
C750 H726 0.950 . S
C750 C745 1.363 . S
C750 C749 1.415 . S
C751 H727 0.951 . S
C751 C752 1.366 . S
C751 C753 1.388 . S
C752 C751 1.366 . S
C752 C756 1.385 . S
C753 H728 0.951 . S
C753 C751 1.388 . S
C753 C754 1.366 . S
C754 C753 1.366 . S
C754 C755 1.414 . S
C754 C757 1.499 . S
C755 H729 0.950 . S
C755 C754 1.414 . S
C755 C756 1.374 . S
C756 H730 0.950 . S
C756 C752 1.385 . S
C756 C755 1.374 . S
C757 C754 1.499 . S
C757 C758 1.373 . S
C757 C759 1.389 . S
C758 H731 0.950 . S
C758 C744 1.377 . S
C758 C757 1.373 . S
C759 C743 1.377 . S
C759 C757 1.389 . S
C759 C760 1.524 . S
C760 C759 1.524 . S
C760 C761 1.397 . S
C760 C765 1.363 . S
C761 H732 0.950 . S
C761 C760 1.397 . S
C761 C762 1.334 . S
C762 H733 0.950 . S
C762 C761 1.334 . S
C762 C763 1.287 . S
C763 C762 1.287 . S
C763 C764 1.524 . S
C763 H766 0.999 . S
C764 H734 0.950 . S
C764 C763 1.524 . S
C764 C765 1.415 . S
C765 H735 0.950 . S
C765 C760 1.363 . S
C765 C764 1.415 . S
H766 C763 0.999 . S
H767 C748 0.913 . S
H768 C786 0.951 . S
H769 C788 0.951 . S
H770 C790 0.950 . S
H771 C791 0.950 . S
H772 C793 0.950 . S
H773 C796 0.950 . S
H774 C797 0.950 . S
H775 C799 0.950 . S
H776 C800 0.950 . S
H777 C801 0.951 . S
H778 C803 0.951 . S
H779 C805 0.950 . S
H780 C806 0.950 . S
H781 C808 0.950 . S
H782 C811 0.950 . S
H783 C812 0.950 . S
H784 C814 0.950 . S
H785 C815 0.950 . S
C786 H768 0.951 . S
C786 C787 1.366 . S
C786 C788 1.388 . S
C787 C786 1.366 . S
C787 C791 1.385 . S
C788 H769 0.951 . S
C788 C786 1.388 . S
C788 C789 1.366 . S
C789 C788 1.366 . S
C789 C790 1.414 . S
C789 C792 1.499 . S
C790 H770 0.950 . S
C790 C789 1.414 . S
C790 C791 1.374 . S
C791 H771 0.950 . S
C791 C787 1.385 . S
C791 C790 1.374 . S
C792 C789 1.499 . S
C792 C793 1.373 . S
C792 C794 1.389 . S
C793 H772 0.950 . S
C793 C792 1.373 . S
C793 C809 1.377 . S
C794 C792 1.389 . S
C794 C795 1.524 . S
C794 C808 1.377 . S
C795 C794 1.524 . S
C795 C796 1.397 . S
C795 C800 1.363 . S
C796 H773 0.950 . S
C796 C795 1.397 . S
C796 C797 1.334 . S
C797 H774 0.950 . S
C797 C796 1.334 . S
C797 C798 1.287 . S
C798 C797 1.287 . S
C798 C799 1.524 . S
C798 H817 0.913 . S
C799 H775 0.950 . S
C799 C798 1.524 . S
C799 C800 1.415 . S
C800 H776 0.950 . S
C800 C795 1.363 . S
C800 C799 1.415 . S
C801 H777 0.951 . S
C801 C802 1.366 . S
C801 C803 1.388 . S
C802 C801 1.366 . S
C802 C806 1.385 . S
C803 H778 0.951 . S
C803 C801 1.388 . S
C803 C804 1.366 . S
C804 C803 1.366 . S
C804 C805 1.414 . S
C804 C807 1.499 . S
C805 H779 0.950 . S
C805 C804 1.414 . S
C805 C806 1.374 . S
C806 H780 0.950 . S
C806 C802 1.385 . S
C806 C805 1.374 . S
C807 C804 1.499 . S
C807 C808 1.373 . S
C807 C809 1.389 . S
C808 H781 0.950 . S
C808 C794 1.377 . S
C808 C807 1.373 . S
C809 C793 1.377 . S
C809 C807 1.389 . S
C809 C810 1.524 . S
C810 C809 1.524 . S
C810 C811 1.397 . S
C810 C815 1.363 . S
C811 H782 0.950 . S
C811 C810 1.397 . S
C811 C812 1.334 . S
C812 H783 0.950 . S
C812 C811 1.334 . S
C812 C813 1.287 . S
C813 C812 1.287 . S
C813 C814 1.524 . S
C813 H816 0.999 . S
C814 H784 0.950 . S
C814 C813 1.524 . S
C814 C815 1.415 . S
C815 H785 0.950 . S
C815 C810 1.363 . S
C815 C814 1.415 . S
H816 C813 0.999 . S
H817 C798 0.913 . S
H818 C836 0.951 . S
H819 C838 0.951 . S
H820 C840 0.950 . S
H821 C841 0.950 . S
H822 C843 0.950 . S
H823 C846 0.950 . S
H824 C847 0.950 . S
H825 C849 0.950 . S
H826 C850 0.950 . S
H827 C851 0.951 . S
H828 C853 0.951 . S
H829 C855 0.950 . S
H830 C856 0.950 . S
H831 C858 0.950 . S
H832 C861 0.950 . S
H833 C862 0.950 . S
H834 C864 0.950 . S
H835 C865 0.950 . S
C836 H818 0.951 . S
C836 C837 1.366 . S
C836 C838 1.388 . S
C837 C836 1.366 . S
C837 C841 1.385 . S
C838 H819 0.951 . S
C838 C836 1.388 . S
C838 C839 1.366 . S
C839 C838 1.366 . S
C839 C840 1.414 . S
C839 C842 1.499 . S
C840 H820 0.950 . S
C840 C839 1.414 . S
C840 C841 1.374 . S
C841 H821 0.950 . S
C841 C837 1.385 . S
C841 C840 1.374 . S
C842 C839 1.499 . S
C842 C843 1.373 . S
C842 C844 1.389 . S
C843 H822 0.950 . S
C843 C842 1.373 . S
C843 C859 1.377 . S
C844 C842 1.389 . S
C844 C845 1.524 . S
C844 C858 1.377 . S
C845 C844 1.524 . S
C845 C846 1.397 . S
C845 C850 1.363 . S
C846 H823 0.950 . S
C846 C845 1.397 . S
C846 C847 1.334 . S
C847 H824 0.950 . S
C847 C846 1.334 . S
C847 C848 1.287 . S
C848 C847 1.287 . S
C848 C849 1.524 . S
C848 H867 0.913 . S
C849 H825 0.950 . S
C849 C848 1.524 . S
C849 C850 1.415 . S
C850 H826 0.950 . S
C850 C845 1.363 . S
C850 C849 1.415 . S
C851 H827 0.951 . S
C851 C852 1.366 . S
C851 C853 1.388 . S
C852 C851 1.366 . S
C852 C856 1.385 . S
C853 H828 0.951 . S
C853 C851 1.388 . S
C853 C854 1.366 . S
C854 C853 1.366 . S
C854 C855 1.414 . S
C854 C857 1.499 . S
C855 H829 0.950 . S
C855 C854 1.414 . S
C855 C856 1.374 . S
C856 H830 0.950 . S
C856 C852 1.385 . S
C856 C855 1.374 . S
C857 C854 1.499 . S
C857 C858 1.373 . S
C857 C859 1.389 . S
C858 H831 0.950 . S
C858 C844 1.377 . S
C858 C857 1.373 . S
C859 C843 1.377 . S
C859 C857 1.389 . S
C859 C860 1.524 . S
C860 C859 1.524 . S
C860 C861 1.397 . S
C860 C865 1.363 . S
C861 H832 0.950 . S
C861 C860 1.397 . S
C861 C862 1.334 . S
C862 H833 0.950 . S
C862 C861 1.334 . S
C862 C863 1.287 . S
C863 C862 1.287 . S
C863 C864 1.524 . S
C863 H866 0.999 . S
C864 H834 0.950 . S
C864 C863 1.524 . S
C864 C865 1.415 . S
C865 H835 0.950 . S
C865 C860 1.363 . S
C865 C864 1.415 . S
H866 C863 0.999 . S
H867 C848 0.913 . S
H868 C886 0.951 . S
H869 C888 0.951 . S
H870 C890 0.950 . S
H871 C891 0.950 . S
H872 C893 0.950 . S
H873 C896 0.950 . S
H874 C897 0.950 . S
H875 C899 0.950 . S
H876 C900 0.950 . S
H877 C901 0.951 . S
H878 C903 0.951 . S
H879 C905 0.950 . S
H880 C906 0.950 . S
H881 C908 0.950 . S
H882 C911 0.950 . S
H883 C912 0.950 . S
H884 C914 0.950 . S
H885 C915 0.950 . S
C886 H868 0.951 . S
C886 C887 1.366 . S
C886 C888 1.388 . S
C887 C886 1.366 . S
C887 C891 1.385 . S
C888 H869 0.951 . S
C888 C886 1.388 . S
C888 C889 1.366 . S
C889 C888 1.366 . S
C889 C890 1.414 . S
C889 C892 1.499 . S
C890 H870 0.950 . S
C890 C889 1.414 . S
C890 C891 1.374 . S
C891 H871 0.950 . S
C891 C887 1.385 . S
C891 C890 1.374 . S
C892 C889 1.499 . S
C892 C893 1.373 . S
C892 C894 1.389 . S
C893 H872 0.950 . S
C893 C892 1.373 . S
C893 C909 1.377 . S
C894 C892 1.389 . S
C894 C895 1.524 . S
C894 C908 1.377 . S
C895 C894 1.524 . S
C895 C896 1.397 . S
C895 C900 1.363 . S
C896 H873 0.950 . S
C896 C895 1.397 . S
C896 C897 1.334 . S
C897 H874 0.950 . S
C897 C896 1.334 . S
C897 C898 1.287 . S
C898 C897 1.287 . S
C898 C899 1.524 . S
C898 H917 0.913 . S
C899 H875 0.950 . S
C899 C898 1.524 . S
C899 C900 1.415 . S
C900 H876 0.950 . S
C900 C895 1.363 . S
C900 C899 1.415 . S
C901 H877 0.951 . S
C901 C902 1.366 . S
C901 C903 1.388 . S
C902 C901 1.366 . S
C902 C906 1.385 . S
C903 H878 0.951 . S
C903 C901 1.388 . S
C903 C904 1.366 . S
C904 C903 1.366 . S
C904 C905 1.414 . S
C904 C907 1.499 . S
C905 H879 0.950 . S
C905 C904 1.414 . S
C905 C906 1.374 . S
C906 H880 0.950 . S
C906 C902 1.385 . S
C906 C905 1.374 . S
C907 C904 1.499 . S
C907 C908 1.373 . S
C907 C909 1.389 . S
C908 H881 0.950 . S
C908 C894 1.377 . S
C908 C907 1.373 . S
C909 C893 1.377 . S
C909 C907 1.389 . S
C909 C910 1.524 . S
C910 C909 1.524 . S
C910 C911 1.397 . S
C910 C915 1.363 . S
C911 H882 0.950 . S
C911 C910 1.397 . S
C911 C912 1.334 . S
C912 H883 0.950 . S
C912 C911 1.334 . S
C912 C913 1.287 . S
C913 C912 1.287 . S
C913 C914 1.524 . S
C913 H916 0.999 . S
C914 H884 0.950 . S
C914 C913 1.524 . S
C914 C915 1.415 . S
C915 H885 0.950 . S
C915 C910 1.363 . S
C915 C914 1.415 . S
H916 C913 0.999 . S
H917 C898 0.913 . S
H918 C936 0.951 . S
H919 C938 0.951 . S
H920 C940 0.950 . S
H921 C941 0.950 . S
H922 C943 0.950 . S
H923 C946 0.950 . S
H924 C947 0.950 . S
H925 C949 0.950 . S
H926 C950 0.950 . S
H927 C951 0.951 . S
H928 C953 0.951 . S
H929 C955 0.950 . S
H930 C956 0.950 . S
H931 C958 0.950 . S
H932 C961 0.950 . S
H933 C962 0.950 . S
H934 C964 0.950 . S
H935 C965 0.950 . S
C936 H918 0.951 . S
C936 C937 1.366 . S
C936 C938 1.388 . S
C937 C936 1.366 . S
C937 C941 1.385 . S
C938 H919 0.951 . S
C938 C936 1.388 . S
C938 C939 1.366 . S
C939 C938 1.366 . S
C939 C940 1.414 . S
C939 C942 1.499 . S
C940 H920 0.950 . S
C940 C939 1.414 . S
C940 C941 1.374 . S
C941 H921 0.950 . S
C941 C937 1.385 . S
C941 C940 1.374 . S
C942 C939 1.499 . S
C942 C943 1.373 . S
C942 C944 1.389 . S
C943 H922 0.950 . S
C943 C942 1.373 . S
C943 C959 1.377 . S
C944 C942 1.389 . S
C944 C945 1.524 . S
C944 C958 1.377 . S
C945 C944 1.524 . S
C945 C946 1.397 . S
C945 C950 1.363 . S
C946 H923 0.950 . S
C946 C945 1.397 . S
C946 C947 1.334 . S
C947 H924 0.950 . S
C947 C946 1.334 . S
C947 C948 1.287 . S
C948 C947 1.287 . S
C948 C949 1.524 . S
C948 H967 0.913 . S
C949 H925 0.950 . S
C949 C948 1.524 . S
C949 C950 1.415 . S
C950 H926 0.950 . S
C950 C945 1.363 . S
C950 C949 1.415 . S
C951 H927 0.951 . S
C951 C952 1.366 . S
C951 C953 1.388 . S
C952 C951 1.366 . S
C952 C956 1.385 . S
C953 H928 0.951 . S
C953 C951 1.388 . S
C953 C954 1.366 . S
C954 C953 1.366 . S
C954 C955 1.414 . S
C954 C957 1.499 . S
C955 H929 0.950 . S
C955 C954 1.414 . S
C955 C956 1.374 . S
C956 H930 0.950 . S
C956 C952 1.385 . S
C956 C955 1.374 . S
C957 C954 1.499 . S
C957 C958 1.373 . S
C957 C959 1.389 . S
C958 H931 0.950 . S
C958 C944 1.377 . S
C958 C957 1.373 . S
C959 C943 1.377 . S
C959 C957 1.389 . S
C959 C960 1.524 . S
C960 C959 1.524 . S
C960 C961 1.397 . S
C960 C965 1.363 . S
C961 H932 0.950 . S
C961 C960 1.397 . S
C961 C962 1.334 . S
C962 H933 0.950 . S
C962 C961 1.334 . S
C962 C963 1.287 . S
C963 C962 1.287 . S
C963 C964 1.524 . S
C963 H966 0.999 . S
C964 H934 0.950 . S
C964 C963 1.524 . S
C964 C965 1.415 . S
C965 H935 0.950 . S
C965 C960 1.363 . S
C965 C964 1.415 . S
H966 C963 0.999 . S
H967 C948 0.913 . S
H968 C986 0.951 . S
H969 C988 0.951 . S
H970 C990 0.950 . S
H971 C991 0.950 . S
H972 C993 0.950 . S
H973 C996 0.950 . S
H974 C997 0.950 . S
H975 C999 0.950 . S
H976 C1000 0.950 . S
H977 C1001 0.951 . S
H978 C1003 0.951 . S
H979 C1005 0.950 . S
H980 C1006 0.950 . S
H981 C1008 0.950 . S
H982 C1011 0.950 . S
H983 C1012 0.950 . S
H984 C1014 0.950 . S
H985 C1015 0.950 . S
C986 H968 0.951 . S
C986 C987 1.366 . S
C986 C988 1.388 . S
C987 C986 1.366 . S
C987 C991 1.385 . S
C988 H969 0.951 . S
C988 C986 1.388 . S
C988 C989 1.366 . S
C989 C988 1.366 . S
C989 C990 1.414 . S
C989 C992 1.499 . S
C990 H970 0.950 . S
C990 C989 1.414 . S
C990 C991 1.374 . S
C991 H971 0.950 . S
C991 C987 1.385 . S
C991 C990 1.374 . S
C992 C989 1.499 . S
C992 C993 1.373 . S
C992 C994 1.389 . S
C993 H972 0.950 . S
C993 C992 1.373 . S
C993 C1009 1.377 . S
C994 C992 1.389 . S
C994 C995 1.524 . S
C994 C1008 1.377 . S
C995 C994 1.524 . S
C995 C996 1.397 . S
C995 C1000 1.363 . S
C996 H973 0.950 . S
C996 C995 1.397 . S
C996 C997 1.334 . S
C997 H974 0.950 . S
C997 C996 1.334 . S
C997 C998 1.287 . S
C998 C997 1.287 . S
C998 C999 1.524 . S
C998 H1017 0.913 . S
C999 H975 0.950 . S
C999 C998 1.524 . S
C999 C1000 1.415 . S
C1000 H976 0.950 . S
C1000 C995 1.363 . S
C1000 C999 1.415 . S
C1001 H977 0.951 . S
C1001 C1002 1.366 . S
C1001 C1003 1.388 . S
C1002 C1001 1.366 . S
C1002 C1006 1.385 . S
C1003 H978 0.951 . S
C1003 C1001 1.388 . S
C1003 C1004 1.366 . S
C1004 C1003 1.366 . S
C1004 C1005 1.414 . S
C1004 C1007 1.499 . S
C1005 H979 0.950 . S
C1005 C1004 1.414 . S
C1005 C1006 1.374 . S
C1006 H980 0.950 . S
C1006 C1002 1.385 . S
C1006 C1005 1.374 . S
C1007 C1004 1.499 . S
C1007 C1008 1.373 . S
C1007 C1009 1.389 . S
C1008 H981 0.950 . S
C1008 C994 1.377 . S
C1008 C1007 1.373 . S
C1009 C993 1.377 . S
C1009 C1007 1.389 . S
C1009 C1010 1.524 . S
C1010 C1009 1.524 . S
C1010 C1011 1.397 . S
C1010 C1015 1.363 . S
C1011 H982 0.950 . S
C1011 C1010 1.397 . S
C1011 C1012 1.334 . S
C1012 H983 0.950 . S
C1012 C1011 1.334 . S
C1012 C1013 1.287 . S
C1013 C1012 1.287 . S
C1013 C1014 1.524 . S
C1013 H1016 0.999 . S
C1014 H984 0.950 . S
C1014 C1013 1.524 . S
C1014 C1015 1.415 . S
C1015 H985 0.950 . S
C1015 C1010 1.363 . S
C1015 C1014 1.415 . S
H1016 C1013 0.999 . S
H1017 C998 0.913 . S
H1018 C1036 0.951 . S
H1019 C1038 0.951 . S
H1020 C1040 0.950 . S
H1021 C1041 0.950 . S
H1022 C1043 0.950 . S
H1023 C1046 0.950 . S
H1024 C1047 0.950 . S
H1025 C1049 0.950 . S
H1026 C1050 0.950 . S
H1027 C1051 0.951 . S
H1028 C1053 0.951 . S
H1029 C1055 0.950 . S
H1030 C1056 0.950 . S
H1031 C1058 0.950 . S
H1032 C1061 0.950 . S
H1033 C1062 0.950 . S
H1034 C1064 0.950 . S
H1035 C1065 0.950 . S
C1036 H1018 0.951 . S
C1036 C1037 1.366 . S
C1036 C1038 1.388 . S
C1037 C1036 1.366 . S
C1037 C1041 1.385 . S
C1038 H1019 0.951 . S
C1038 C1036 1.388 . S
C1038 C1039 1.366 . S
C1039 C1038 1.366 . S
C1039 C1040 1.414 . S
C1039 C1042 1.499 . S
C1040 H1020 0.950 . S
C1040 C1039 1.414 . S
C1040 C1041 1.374 . S
C1041 H1021 0.950 . S
C1041 C1037 1.385 . S
C1041 C1040 1.374 . S
C1042 C1039 1.499 . S
C1042 C1043 1.373 . S
C1042 C1044 1.389 . S
C1043 H1022 0.950 . S
C1043 C1042 1.373 . S
C1043 C1059 1.377 . S
C1044 C1042 1.389 . S
C1044 C1045 1.524 . S
C1044 C1058 1.377 . S
C1045 C1044 1.524 . S
C1045 C1046 1.397 . S
C1045 C1050 1.363 . S
C1046 H1023 0.950 . S
C1046 C1045 1.397 . S
C1046 C1047 1.334 . S
C1047 H1024 0.950 . S
C1047 C1046 1.334 . S
C1047 C1048 1.287 . S
C1048 C1047 1.287 . S
C1048 C1049 1.524 . S
C1048 H1067 0.913 . S
C1049 H1025 0.950 . S
C1049 C1048 1.524 . S
C1049 C1050 1.415 . S
C1050 H1026 0.950 . S
C1050 C1045 1.363 . S
C1050 C1049 1.415 . S
C1051 H1027 0.951 . S
C1051 C1052 1.366 . S
C1051 C1053 1.388 . S
C1052 C1051 1.366 . S
C1052 C1056 1.385 . S
C1053 H1028 0.951 . S
C1053 C1051 1.388 . S
C1053 C1054 1.366 . S
C1054 C1053 1.366 . S
C1054 C1055 1.414 . S
C1054 C1057 1.499 . S
C1055 H1029 0.950 . S
C1055 C1054 1.414 . S
C1055 C1056 1.374 . S
C1056 H1030 0.950 . S
C1056 C1052 1.385 . S
C1056 C1055 1.374 . S
C1057 C1054 1.499 . S
C1057 C1058 1.373 . S
C1057 C1059 1.389 . S
C1058 H1031 0.950 . S
C1058 C1044 1.377 . S
C1058 C1057 1.373 . S
C1059 C1043 1.377 . S
C1059 C1057 1.389 . S
C1059 C1060 1.524 . S
C1060 C1059 1.524 . S
C1060 C1061 1.397 . S
C1060 C1065 1.363 . S
C1061 H1032 0.950 . S
C1061 C1060 1.397 . S
C1061 C1062 1.334 . S
C1062 H1033 0.950 . S
C1062 C1061 1.334 . S
C1062 C1063 1.287 . S
C1063 C1062 1.287 . S
C1063 C1064 1.524 . S
C1063 H1066 0.999 . S
C1064 H1034 0.950 . S
C1064 C1063 1.524 . S
C1064 C1065 1.415 . S
C1065 H1035 0.950 . S
C1065 C1060 1.363 . S
C1065 C1064 1.415 . S
H1066 C1063 0.999 . S
H1067 C1048 0.913 . S
H1068 C1086 0.951 . S
H1069 C1088 0.951 . S
H1070 C1090 0.950 . S
H1071 C1091 0.950 . S
H1072 C1093 0.950 . S
H1073 C1096 0.950 . S
H1074 C1097 0.950 . S
H1075 C1099 0.950 . S
H1076 C1100 0.950 . S
H1077 C1101 0.951 . S
H1078 C1103 0.951 . S
H1079 C1105 0.950 . S
H1080 C1106 0.950 . S
H1081 C1108 0.950 . S
H1082 C1111 0.950 . S
H1083 C1112 0.950 . S
H1084 C1114 0.950 . S
H1085 C1115 0.950 . S
C1086 H1068 0.951 . S
C1086 C1087 1.366 . S
C1086 C1088 1.388 . S
C1087 C1086 1.366 . S
C1087 C1091 1.385 . S
C1088 H1069 0.951 . S
C1088 C1086 1.388 . S
C1088 C1089 1.366 . S
C1089 C1088 1.366 . S
C1089 C1090 1.414 . S
C1089 C1092 1.499 . S
C1090 H1070 0.950 . S
C1090 C1089 1.414 . S
C1090 C1091 1.374 . S
C1091 H1071 0.950 . S
C1091 C1087 1.385 . S
C1091 C1090 1.374 . S
C1092 C1089 1.499 . S
C1092 C1093 1.373 . S
C1092 C1094 1.389 . S
C1093 H1072 0.950 . S
C1093 C1092 1.373 . S
C1093 C1109 1.377 . S
C1094 C1092 1.389 . S
C1094 C1095 1.524 . S
C1094 C1108 1.377 . S
C1095 C1094 1.524 . S
C1095 C1096 1.397 . S
C1095 C1100 1.363 . S
C1096 H1073 0.950 . S
C1096 C1095 1.397 . S
C1096 C1097 1.334 . S
C1097 H1074 0.950 . S
C1097 C1096 1.334 . S
C1097 C1098 1.287 . S
C1098 C1097 1.287 . S
C1098 C1099 1.524 . S
C1098 H1117 0.913 . S
C1099 H1075 0.950 . S
C1099 C1098 1.524 . S
C1099 C1100 1.415 . S
C1100 H1076 0.950 . S
C1100 C1095 1.363 . S
C1100 C1099 1.415 . S
C1101 H1077 0.951 . S
C1101 C1102 1.366 . S
C1101 C1103 1.388 . S
C1102 C1101 1.366 . S
C1102 C1106 1.385 . S
C1103 H1078 0.951 . S
C1103 C1101 1.388 . S
C1103 C1104 1.366 . S
C1104 C1103 1.366 . S
C1104 C1105 1.414 . S
C1104 C1107 1.499 . S
C1105 H1079 0.950 . S
C1105 C1104 1.414 . S
C1105 C1106 1.374 . S
C1106 H1080 0.950 . S
C1106 C1102 1.385 . S
C1106 C1105 1.374 . S
C1107 C1104 1.499 . S
C1107 C1108 1.373 . S
C1107 C1109 1.389 . S
C1108 H1081 0.950 . S
C1108 C1094 1.377 . S
C1108 C1107 1.373 . S
C1109 C1093 1.377 . S
C1109 C1107 1.389 . S
C1109 C1110 1.524 . S
C1110 C1109 1.524 . S
C1110 C1111 1.397 . S
C1110 C1115 1.363 . S
C1111 H1082 0.950 . S
C1111 C1110 1.397 . S
C1111 C1112 1.334 . S
C1112 H1083 0.950 . S
C1112 C1111 1.334 . S
C1112 C1113 1.287 . S
C1113 C1112 1.287 . S
C1113 C1114 1.524 . S
C1113 H1116 0.999 . S
C1114 H1084 0.950 . S
C1114 C1113 1.524 . S
C1114 C1115 1.415 . S
C1115 H1085 0.950 . S
C1115 C1110 1.363 . S
C1115 C1114 1.415 . S
H1116 C1113 0.999 . S
H1117 C1098 0.913 . S
H1118 C1136 0.951 . S
H1119 C1138 0.951 . S
H1120 C1140 0.950 . S
H1121 C1141 0.950 . S
H1122 C1143 0.950 . S
H1123 C1146 0.950 . S
H1124 C1147 0.950 . S
H1125 C1149 0.950 . S
H1126 C1150 0.950 1_455 S
H1127 C1151 0.951 . S
H1128 C1153 0.951 . S
H1129 C1155 0.950 . S
H1130 C1156 0.950 . S
H1131 C1158 0.950 . S
H1132 C1161 0.950 . S
H1133 C1162 0.950 . S
H1134 C1164 0.950 . S
H1135 C1165 0.950 1_655 S
C1136 H1118 0.951 . S
C1136 C1137 1.366 . S
C1136 C1138 1.388 . S
C1137 C1136 1.366 . S
C1137 C1141 1.385 . S
C1138 H1119 0.951 . S
C1138 C1136 1.388 . S
C1138 C1139 1.366 . S
C1139 C1138 1.366 . S
C1139 C1140 1.414 . S
C1139 C1142 1.499 . S
C1140 H1120 0.950 . S
C1140 C1139 1.414 . S
C1140 C1141 1.374 . S
C1141 H1121 0.950 . S
C1141 C1137 1.385 . S
C1141 C1140 1.374 . S
C1142 C1139 1.499 . S
C1142 C1143 1.373 . S
C1142 C1144 1.389 . S
C1143 H1122 0.950 . S
C1143 C1142 1.373 . S
C1143 C1159 1.377 1_655 S
C1144 C1142 1.389 . S
C1144 C1145 1.524 . S
C1144 C1158 1.377 1_655 S
C1145 C1144 1.524 . S
C1145 C1146 1.397 . S
C1145 C1150 1.363 . S
C1146 H1123 0.950 . S
C1146 C1145 1.397 . S
C1146 C1147 1.334 . S
C1147 H1124 0.950 . S
C1147 C1146 1.334 . S
C1147 C1148 1.287 . S
C1148 C1147 1.287 . S
C1148 C1149 1.524 . S
C1148 H1167 0.913 . S
C1149 H1125 0.950 . S
C1149 C1148 1.524 . S
C1149 C1150 1.415 . S
C1150 H1126 0.950 1_655 S
C1150 C1145 1.363 . S
C1150 C1149 1.415 . S
C1151 H1127 0.951 . S
C1151 C1152 1.366 . S
C1151 C1153 1.388 . S
C1152 C1151 1.366 . S
C1152 C1156 1.385 . S
C1153 H1128 0.951 . S
C1153 C1151 1.388 . S
C1153 C1154 1.366 . S
C1154 C1153 1.366 . S
C1154 C1155 1.414 . S
C1154 C1157 1.499 . S
C1155 H1129 0.950 . S
C1155 C1154 1.414 . S
C1155 C1156 1.374 . S
C1156 H1130 0.950 . S
C1156 C1152 1.385 . S
C1156 C1155 1.374 . S
C1157 C1154 1.499 . S
C1157 C1158 1.373 . S
C1157 C1159 1.389 . S
C1158 H1131 0.950 . S
C1158 C1144 1.377 1_455 S
C1158 C1157 1.373 . S
C1159 C1143 1.377 1_455 S
C1159 C1157 1.389 . S
C1159 C1160 1.524 . S
C1160 C1159 1.524 . S
C1160 C1161 1.397 . S
C1160 C1165 1.363 . S
C1161 H1132 0.950 . S
C1161 C1160 1.397 . S
C1161 C1162 1.334 . S
C1162 H1133 0.950 . S
C1162 C1161 1.334 . S
C1162 C1163 1.287 . S
C1163 C1162 1.287 . S
C1163 C1164 1.524 . S
C1163 H1166 0.999 . S
C1164 H1134 0.950 . S
C1164 C1163 1.524 . S
C1164 C1165 1.415 . S
C1165 H1135 0.950 1_455 S
C1165 C1160 1.363 . S
C1165 C1164 1.415 . S
H1166 C1163 0.999 . S
H1167 C1148 0.913 . S
H1168 C1186 0.951 . S
H1169 C1188 0.951 . S
H1170 C1190 0.962 . S
H1171 C1191 0.950 . S
H1172 C1193 0.950 . S
H1173 C1196 0.950 . S
H1174 C1197 0.950 . S
H1175 C1199 0.950 . S
H1176 C1200 0.950 . S
H1177 C1201 0.951 . S
H1178 C1203 0.951 . S
H1179 C1205 0.962 . S
H1180 C1206 0.950 . S
H1181 C1208 0.950 . S
H1182 C1211 0.950 . S
H1183 C1212 0.950 . S
H1184 C1214 0.950 . S
H1185 C1215 0.950 . S
C1186 H1168 0.951 . S
C1186 C1187 1.366 . S
C1186 C1188 1.388 . S
C1187 C1186 1.366 . S
C1187 C1191 1.385 . S
C1188 H1169 0.951 . S
C1188 C1186 1.388 . S
C1188 C1189 1.366 . S
C1189 C1188 1.366 . S
C1189 C1190 1.414 . S
C1189 C1192 1.499 . S
C1190 H1170 0.962 . S
C1190 C1189 1.414 . S
C1190 C1191 1.374 . S
C1191 H1171 0.950 . S
C1191 C1187 1.385 . S
C1191 C1190 1.374 . S
C1192 C1189 1.499 . S
C1192 C1193 1.373 1_545 S
C1192 C1194 1.389 . S
C1193 H1172 0.950 . S
C1193 C1192 1.373 1_565 S
C1193 C1209 1.377 . S
C1194 C1192 1.389 . S
C1194 C1195 1.524 . S
C1194 C1208 1.377 . S
C1195 C1194 1.524 . S
C1195 C1196 1.397 . S
C1195 C1200 1.363 . S
C1196 H1173 0.950 . S
C1196 C1195 1.397 . S
C1196 C1197 1.334 . S
C1197 H1174 0.950 . S
C1197 C1196 1.334 . S
C1197 C1198 1.287 . S
C1198 C1197 1.287 . S
C1198 C1199 1.524 . S
C1198 H1217 0.913 . S
C1199 H1175 0.950 . S
C1199 C1198 1.524 . S
C1199 C1200 1.415 . S
C1200 H1176 0.950 . S
C1200 C1195 1.363 . S
C1200 C1199 1.415 . S
C1201 H1177 0.951 . S
C1201 C1202 1.366 . S
C1201 C1203 1.388 . S
C1202 C1201 1.366 . S
C1202 C1206 1.385 . S
C1203 H1178 0.951 . S
C1203 C1201 1.388 . S
C1203 C1204 1.366 . S
C1204 C1203 1.366 . S
C1204 C1205 1.414 . S
C1204 C1207 1.499 . S
C1205 H1179 0.962 . S
C1205 C1204 1.414 . S
C1205 C1206 1.374 . S
C1206 H1180 0.950 . S
C1206 C1202 1.385 . S
C1206 C1205 1.374 . S
C1207 C1204 1.499 . S
C1207 C1208 1.373 1_565 S
C1207 C1209 1.389 . S
C1208 H1181 0.950 . S
C1208 C1194 1.377 . S
C1208 C1207 1.373 1_545 S
C1209 C1193 1.377 . S
C1209 C1207 1.389 . S
C1209 C1210 1.524 . S
C1210 C1209 1.524 . S
C1210 C1211 1.397 . S
C1210 C1215 1.363 . S
C1211 H1182 0.950 . S
C1211 C1210 1.397 . S
C1211 C1212 1.334 . S
C1212 H1183 0.950 . S
C1212 C1211 1.334 . S
C1212 C1213 1.287 . S
C1213 C1212 1.287 . S
C1213 C1214 1.524 . S
C1213 H1216 0.999 . S
C1214 H1184 0.950 . S
C1214 C1213 1.524 . S
C1214 C1215 1.415 . S
C1215 H1185 0.950 . S
C1215 C1210 1.363 . S
C1215 C1214 1.415 . S
H1216 C1213 0.999 . S
H1217 C1198 0.913 . S
H1218 C1236 0.951 . S
H1219 C1238 0.951 . S
H1220 C1240 0.950 . S
H1221 C1241 0.950 . S
H1222 C1243 0.950 . S
H1223 C1246 0.950 . S
H1224 C1247 0.950 . S
H1225 C1249 0.950 . S
H1226 C1250 0.950 . S
H1227 C1251 0.951 . S
H1228 C1253 0.951 . S
H1229 C1255 0.950 . S
H1230 C1256 0.950 . S
H1231 C1258 0.950 . S
H1232 C1261 0.950 . S
H1233 C1262 0.950 . S
H1234 C1264 0.950 . S
H1235 C1265 0.950 . S
C1236 H1218 0.951 . S
C1236 C1237 1.366 . S
C1236 C1238 1.388 . S
C1237 C1236 1.366 . S
C1237 C1241 1.385 . S
C1238 H1219 0.951 . S
C1238 C1236 1.388 . S
C1238 C1239 1.366 . S
C1239 C1238 1.366 . S
C1239 C1240 1.414 . S
C1239 C1242 1.499 . S
C1240 H1220 0.950 . S
C1240 C1239 1.414 . S
C1240 C1241 1.374 . S
C1241 H1221 0.950 . S
C1241 C1237 1.385 . S
C1241 C1240 1.374 . S
C1242 C1239 1.499 . S
C1242 C1243 1.373 . S
C1242 C1244 1.389 . S
C1243 H1222 0.950 . S
C1243 C1242 1.373 . S
C1243 C1259 1.377 . S
C1244 C1242 1.389 . S
C1244 C1245 1.524 . S
C1244 C1258 1.377 . S
C1245 C1244 1.524 . S
C1245 C1246 1.397 . S
C1245 C1250 1.363 . S
C1246 H1223 0.950 . S
C1246 C1245 1.397 . S
C1246 C1247 1.334 . S
C1247 H1224 0.950 . S
C1247 C1246 1.334 . S
C1247 C1248 1.287 . S
C1248 C1247 1.287 . S
C1248 C1249 1.524 . S
C1248 H1267 0.913 . S
C1249 H1225 0.950 . S
C1249 C1248 1.524 . S
C1249 C1250 1.415 . S
C1250 H1226 0.950 . S
C1250 C1245 1.363 . S
C1250 C1249 1.415 . S
C1251 H1227 0.951 . S
C1251 C1252 1.366 . S
C1251 C1253 1.388 . S
C1252 C1251 1.366 . S
C1252 C1256 1.385 . S
C1253 H1228 0.951 . S
C1253 C1251 1.388 . S
C1253 C1254 1.366 . S
C1254 C1253 1.366 . S
C1254 C1255 1.414 . S
C1254 C1257 1.499 . S
C1255 H1229 0.950 . S
C1255 C1254 1.414 . S
C1255 C1256 1.374 . S
C1256 H1230 0.950 . S
C1256 C1252 1.385 . S
C1256 C1255 1.374 . S
C1257 C1254 1.499 . S
C1257 C1258 1.373 . S
C1257 C1259 1.389 . S
C1258 H1231 0.950 . S
C1258 C1244 1.377 . S
C1258 C1257 1.373 . S
C1259 C1243 1.377 . S
C1259 C1257 1.389 . S
C1259 C1260 1.524 . S
C1260 C1259 1.524 . S
C1260 C1261 1.397 . S
C1260 C1265 1.363 . S
C1261 H1232 0.950 . S
C1261 C1260 1.397 . S
C1261 C1262 1.334 . S
C1262 H1233 0.950 . S
C1262 C1261 1.334 . S
C1262 C1263 1.287 . S
C1263 C1262 1.287 . S
C1263 C1264 1.524 . S
C1263 H1266 0.999 . S
C1264 H1234 0.950 . S
C1264 C1263 1.524 . S
C1264 C1265 1.415 . S
C1265 H1235 0.950 . S
C1265 C1260 1.363 . S
C1265 C1264 1.415 . S
H1266 C1263 0.999 . S
H1267 C1248 0.913 . S
H1268 C1286 0.951 . S
H1269 C1288 0.951 . S
H1270 C1290 0.950 . S
H1271 C1291 0.950 . S
H1272 C1293 0.950 . S
H1273 C1296 0.950 . S
H1274 C1297 0.950 . S
H1275 C1299 0.950 . S
H1276 C1300 0.950 . S
H1277 C1301 0.951 . S
H1278 C1303 0.951 . S
H1279 C1305 0.950 . S
H1280 C1306 0.950 . S
H1281 C1308 0.950 . S
H1282 C1311 0.950 . S
H1283 C1312 0.950 . S
H1284 C1314 0.950 . S
H1285 C1315 0.950 . S
C1286 H1268 0.951 . S
C1286 C1287 1.366 . S
C1286 C1288 1.388 . S
C1287 C1286 1.366 . S
C1287 C1291 1.385 . S
C1288 H1269 0.951 . S
C1288 C1286 1.388 . S
C1288 C1289 1.366 . S
C1289 C1288 1.366 . S
C1289 C1290 1.414 . S
C1289 C1292 1.499 . S
C1290 H1270 0.950 . S
C1290 C1289 1.414 . S
C1290 C1291 1.374 . S
C1291 H1271 0.950 . S
C1291 C1287 1.385 . S
C1291 C1290 1.374 . S
C1292 C1289 1.499 . S
C1292 C1293 1.373 . S
C1292 C1294 1.389 1_455 S
C1293 H1272 0.950 . S
C1293 C1292 1.373 . S
C1293 C1309 1.377 . S
C1294 C1292 1.389 1_655 S
C1294 C1295 1.524 . S
C1294 C1308 1.377 . S
C1295 C1294 1.524 . S
C1295 C1296 1.397 . S
C1295 C1300 1.363 . S
C1296 H1273 0.950 . S
C1296 C1295 1.397 . S
C1296 C1297 1.334 . S
C1297 H1274 0.950 . S
C1297 C1296 1.334 . S
C1297 C1298 1.287 . S
C1298 C1297 1.287 . S
C1298 C1299 1.524 . S
C1298 H1317 0.913 . S
C1299 H1275 0.950 . S
C1299 C1298 1.524 . S
C1299 C1300 1.415 . S
C1300 H1276 0.950 . S
C1300 C1295 1.363 . S
C1300 C1299 1.415 . S
C1301 H1277 0.951 . S
C1301 C1302 1.366 . S
C1301 C1303 1.388 . S
C1302 C1301 1.366 . S
C1302 C1306 1.385 . S
C1303 H1278 0.951 . S
C1303 C1301 1.388 . S
C1303 C1304 1.366 . S
C1304 C1303 1.366 . S
C1304 C1305 1.414 . S
C1304 C1307 1.499 . S
C1305 H1279 0.950 . S
C1305 C1304 1.414 . S
C1305 C1306 1.374 . S
C1306 H1280 0.950 . S
C1306 C1302 1.385 . S
C1306 C1305 1.374 . S
C1307 C1304 1.499 . S
C1307 C1308 1.373 . S
C1307 C1309 1.389 1_655 S
C1308 H1281 0.950 . S
C1308 C1294 1.377 . S
C1308 C1307 1.373 . S
C1309 C1293 1.377 . S
C1309 C1307 1.389 1_455 S
C1309 C1310 1.524 . S
C1310 C1309 1.524 . S
C1310 C1311 1.397 . S
C1310 C1315 1.363 1_556 S
C1311 H1282 0.950 . S
C1311 C1310 1.397 . S
C1311 C1312 1.334 . S
C1312 H1283 0.950 . S
C1312 C1311 1.334 . S
C1312 C1313 1.287 1_556 S
C1313 C1312 1.287 1_554 S
C1313 C1314 1.524 . S
C1313 H1316 0.999 . S
C1314 H1284 0.950 . S
C1314 C1313 1.524 . S
C1314 C1315 1.415 . S
C1315 H1285 0.950 . S
C1315 C1310 1.363 1_554 S
C1315 C1314 1.415 . S
H1316 C1313 0.999 . S
H1317 C1298 0.913 . S
H1318 C1336 0.951 . S
H1319 C1338 0.951 . S
H1320 C1340 0.950 . S
H1321 C1341 0.950 . S
H1322 C1343 0.950 . S
H1323 C1346 0.950 . S
H1324 C1347 0.950 . S
H1325 C1349 0.950 . S
H1326 C1350 0.950 . S
H1327 C1351 0.951 . S
H1328 C1353 0.951 . S
H1329 C1355 0.950 . S
H1330 C1356 0.950 . S
H1331 C1358 0.950 . S
H1332 C1361 0.950 . S
H1333 C1362 0.950 . S
H1334 C1364 0.950 . S
H1335 C1365 0.950 . S
C1336 H1318 0.951 . S
C1336 C1337 1.366 . S
C1336 C1338 1.388 . S
C1337 C1336 1.366 . S
C1337 C1341 1.385 . S
C1338 H1319 0.951 . S
C1338 C1336 1.388 . S
C1338 C1339 1.366 . S
C1339 C1338 1.366 . S
C1339 C1340 1.414 . S
C1339 C1342 1.499 . S
C1340 H1320 0.950 . S
C1340 C1339 1.414 . S
C1340 C1341 1.374 . S
C1341 H1321 0.950 . S
C1341 C1337 1.385 . S
C1341 C1340 1.374 . S
C1342 C1339 1.499 . S
C1342 C1343 1.373 1_565 S
C1342 C1344 1.389 . S
C1343 H1322 0.950 . S
C1343 C1342 1.373 1_545 S
C1343 C1359 1.377 . S
C1344 C1342 1.389 . S
C1344 C1345 1.524 . S
C1344 C1358 1.377 . S
C1345 C1344 1.524 . S
C1345 C1346 1.397 . S
C1345 C1350 1.363 . S
C1346 H1323 0.950 . S
C1346 C1345 1.397 . S
C1346 C1347 1.334 . S
C1347 H1324 0.950 . S
C1347 C1346 1.334 . S
C1347 C1348 1.287 . S
C1348 C1347 1.287 . S
C1348 C1349 1.524 . S
C1348 H1367 0.913 . S
C1349 H1325 0.950 . S
C1349 C1348 1.524 . S
C1349 C1350 1.415 . S
C1350 H1326 0.950 . S
C1350 C1345 1.363 . S
C1350 C1349 1.415 . S
C1351 H1327 0.951 . S
C1351 C1352 1.366 . S
C1351 C1353 1.388 . S
C1352 C1351 1.366 . S
C1352 C1356 1.385 . S
C1353 H1328 0.951 . S
C1353 C1351 1.388 . S
C1353 C1354 1.366 . S
C1354 C1353 1.366 . S
C1354 C1355 1.414 . S
C1354 C1357 1.499 . S
C1355 H1329 0.950 . S
C1355 C1354 1.414 . S
C1355 C1356 1.374 . S
C1356 H1330 0.950 . S
C1356 C1352 1.385 . S
C1356 C1355 1.374 . S
C1357 C1354 1.499 . S
C1357 C1358 1.373 1_545 S
C1357 C1359 1.389 . S
C1358 H1331 0.950 . S
C1358 C1344 1.377 . S
C1358 C1357 1.373 1_565 S
C1359 C1343 1.377 . S
C1359 C1357 1.389 . S
C1359 C1360 1.524 . S
C1360 C1359 1.524 . S
C1360 C1361 1.397 . S
C1360 C1365 1.363 . S
C1361 H1332 0.950 . S
C1361 C1360 1.397 . S
C1361 C1362 1.334 . S
C1362 H1333 0.950 . S
C1362 C1361 1.334 . S
C1362 C1363 1.287 . S
C1363 C1362 1.287 . S
C1363 C1364 1.524 . S
C1363 H1366 0.999 . S
C1364 H1334 0.950 . S
C1364 C1363 1.524 . S
C1364 C1365 1.415 . S
C1365 H1335 0.950 . S
C1365 C1360 1.363 . S
C1365 C1364 1.415 . S
H1366 C1363 0.999 . S
H1367 C1348 0.913 . S
C187 C103 0.988 . S
C202 C5 0.990 . S
C237 C19 0.990 . S
C252 C117 0.991 . S
C287 C33 0.990 . S
C302 C131 0.988 . S
C337 C47 0.991 . S
C352 C145 0.990 . S
C387 C159 0.991 . S
C402 C61 0.990 . S
C437 C89 0.989 . S
C452 C75 0.990 . S
C487 C144 1.227 . S
C502 C4 1.227 . S
C537 C18 1.228 . S
C552 C158 1.228 . S
C587 C32 1.227 . S
C602 C88 1.228 . S
C637 C102 1.227 . S
C652 C46 1.227 . S
C687 C116 1.228 . S
C702 C60 1.227 . S
C737 C130 1.228 . S
C752 C74 1.227 . S
C787 C11 1.606 . S
C802 C123 1.606 . S
C837 C25 1.606 . S
C852 C137 1.606 . S
C887 C151 1.606 . S
C902 C39 1.606 . S
C937 C53 1.606 . S
C952 C165 1.605 . S
C987 C95 1.605 . S
C1002 C67 1.606 . S
C1037 C109 1.606 . S
C1052 C81 1.606 . S
C1087 C54 1.042 . S
C1102 C12 1.042 . S
C1137 C68 1.042 . S
C1152 C26 1.043 . S
C1187 C40 1.042 . S
C1202 C82 1.042 . S
C1237 C96 1.042 . S
C1252 C138 1.043 . S
C1287 C110 1.042 . S
C1302 C152 1.042 . S
C1337 C166 1.043 . S
C1352 C124 1.043 . S
