# Generated by pormake.
# Topology whz, (6)-cn, num edge types: 1
# Building blocks:
#     Node 0, Type 0, BuildingBlock: VOLQOD_clean_sbu_1, # of connection points: 6
#     Node 1, Type 0, BuildingBlock: VOLQOD_clean_sbu_1, # of connection points: 6
#     Node 2, Type 0, BuildingBlock: VOLQOD_clean_sbu_1, # of connection points: 6
#     Node 3, Type 0, BuildingBlock: VOLQOD_clean_sbu_1, # of connection points: 6
#     Node 4, Type 0, BuildingBlock: VOLQOD_clean_sbu_1, # of connection points: 6
#     Node 5, Type 0, BuildingBlock: VOLQOD_clean_sbu_1, # of connection points: 6
#     Node 6, Type 0, BuildingBlock: VOLQOD_clean_sbu_1, # of connection points: 6
#     Node 7, Type 0, BuildingBlock: VOLQOD_clean_sbu_1, # of connection points: 6
#     Node 8, Type 0, BuildingBlock: VOLQOD_clean_sbu_1, # of connection points: 6
#     Node 9, Type 0, BuildingBlock: VOLQOD_clean_sbu_1, # of connection points: 6
#     Node 10, Type 0, BuildingBlock: VOLQOD_clean_sbu_1, # of connection points: 6
#     Node 11, Type 0, BuildingBlock: VOLQOD_clean_sbu_1, # of connection points: 6
#     Node 12, Type 0, BuildingBlock: VOLQOD_clean_sbu_1, # of connection points: 6
#     Node 13, Type 0, BuildingBlock: VOLQOD_clean_sbu_1, # of connection points: 6
#     Node 14, Type 0, BuildingBlock: VOLQOD_clean_sbu_1, # of connection points: 6
#     Node 15, Type 0, BuildingBlock: VOLQOD_clean_sbu_1, # of connection points: 6
#     Edge 16, Type (0, 0), BuildingBlock: TEMPAE_clean_linker_10, # of connection points: 2
#     Edge 17, Type (0, 0), BuildingBlock: TEMPAE_clean_linker_10, # of connection points: 2
#     Edge 18, Type (0, 0), BuildingBlock: TEMPAE_clean_linker_10, # of connection points: 2
#     Edge 19, Type (0, 0), BuildingBlock: TEMPAE_clean_linker_10, # of connection points: 2
#     Edge 20, Type (0, 0), BuildingBlock: TEMPAE_clean_linker_10, # of connection points: 2
#     Edge 21, Type (0, 0), BuildingBlock: TEMPAE_clean_linker_10, # of connection points: 2
#     Edge 22, Type (0, 0), BuildingBlock: TEMPAE_clean_linker_10, # of connection points: 2
#     Edge 23, Type (0, 0), BuildingBlock: TEMPAE_clean_linker_10, # of connection points: 2
#     Edge 24, Type (0, 0), BuildingBlock: TEMPAE_clean_linker_10, # of connection points: 2
#     Edge 25, Type (0, 0), BuildingBlock: TEMPAE_clean_linker_10, # of connection points: 2
#     Edge 26, Type (0, 0), BuildingBlock: TEMPAE_clean_linker_10, # of connection points: 2
#     Edge 27, Type (0, 0), BuildingBlock: TEMPAE_clean_linker_10, # of connection points: 2
#     Edge 28, Type (0, 0), BuildingBlock: TEMPAE_clean_linker_10, # of connection points: 2
#     Edge 29, Type (0, 0), BuildingBlock: TEMPAE_clean_linker_10, # of connection points: 2
#     Edge 30, Type (0, 0), BuildingBlock: TEMPAE_clean_linker_10, # of connection points: 2
#     Edge 31, Type (0, 0), BuildingBlock: TEMPAE_clean_linker_10, # of connection points: 2
#     Edge 32, Type (0, 0), BuildingBlock: TEMPAE_clean_linker_10, # of connection points: 2
#     Edge 33, Type (0, 0), BuildingBlock: TEMPAE_clean_linker_10, # of connection points: 2
#     Edge 34, Type (0, 0), BuildingBlock: TEMPAE_clean_linker_10, # of connection points: 2
#     Edge 35, Type (0, 0), BuildingBlock: TEMPAE_clean_linker_10, # of connection points: 2
#     Edge 36, Type (0, 0), BuildingBlock: TEMPAE_clean_linker_10, # of connection points: 2
#     Edge 37, Type (0, 0), BuildingBlock: TEMPAE_clean_linker_10, # of connection points: 2
#     Edge 38, Type (0, 0), BuildingBlock: TEMPAE_clean_linker_10, # of connection points: 2
#     Edge 39, Type (0, 0), BuildingBlock: TEMPAE_clean_linker_10, # of connection points: 2
#     Edge 40, Type (0, 0), BuildingBlock: TEMPAE_clean_linker_10, # of connection points: 2
#     Edge 41, Type (0, 0), BuildingBlock: TEMPAE_clean_linker_10, # of connection points: 2
#     Edge 42, Type (0, 0), BuildingBlock: TEMPAE_clean_linker_10, # of connection points: 2
#     Edge 43, Type (0, 0), BuildingBlock: TEMPAE_clean_linker_10, # of connection points: 2
#     Edge 44, Type (0, 0), BuildingBlock: TEMPAE_clean_linker_10, # of connection points: 2
#     Edge 45, Type (0, 0), BuildingBlock: TEMPAE_clean_linker_10, # of connection points: 2
#     Edge 46, Type (0, 0), BuildingBlock: TEMPAE_clean_linker_10, # of connection points: 2
#     Edge 47, Type (0, 0), BuildingBlock: TEMPAE_clean_linker_10, # of connection points: 2
#     Edge 48, Type (0, 0), BuildingBlock: TEMPAE_clean_linker_10, # of connection points: 2
#     Edge 49, Type (0, 0), BuildingBlock: TEMPAE_clean_linker_10, # of connection points: 2
#     Edge 50, Type (0, 0), BuildingBlock: TEMPAE_clean_linker_10, # of connection points: 2
#     Edge 51, Type (0, 0), BuildingBlock: TEMPAE_clean_linker_10, # of connection points: 2
#     Edge 52, Type (0, 0), BuildingBlock: TEMPAE_clean_linker_10, # of connection points: 2
#     Edge 53, Type (0, 0), BuildingBlock: TEMPAE_clean_linker_10, # of connection points: 2
#     Edge 54, Type (0, 0), BuildingBlock: TEMPAE_clean_linker_10, # of connection points: 2
#     Edge 55, Type (0, 0), BuildingBlock: TEMPAE_clean_linker_10, # of connection points: 2
#     Edge 56, Type (0, 0), BuildingBlock: TEMPAE_clean_linker_10, # of connection points: 2
#     Edge 57, Type (0, 0), BuildingBlock: TEMPAE_clean_linker_10, # of connection points: 2
#     Edge 58, Type (0, 0), BuildingBlock: TEMPAE_clean_linker_10, # of connection points: 2
#     Edge 59, Type (0, 0), BuildingBlock: TEMPAE_clean_linker_10, # of connection points: 2
#     Edge 60, Type (0, 0), BuildingBlock: TEMPAE_clean_linker_10, # of connection points: 2
#     Edge 61, Type (0, 0), BuildingBlock: TEMPAE_clean_linker_10, # of connection points: 2
#     Edge 62, Type (0, 0), BuildingBlock: TEMPAE_clean_linker_10, # of connection points: 2
#     Edge 63, Type (0, 0), BuildingBlock: TEMPAE_clean_linker_10, # of connection points: 2
# Relax obj value: 0.426
# Max RMSD: 0.199
# Mean RMSD: 0.199
data_MOF--net-whz--node1-VOLQOD_clean_sbu_1--edge1-TEMPAE_clean_linker_10
_symmetry_space_group_name_H-M    P1
_symmetry_Int_Tables_number       1
_symmetry_cell_setting            triclinic
loop_
_symmetry_equiv_pos_as_xyz
'x, y, z'
_cell_length_a     37.124195
_cell_length_b     37.144355
_cell_length_c     55.378705
_cell_angle_alpha  90.023968
_cell_angle_beta   90.014415
_cell_angle_gamma 90.044236
loop_
_atom_site_label
_atom_site_type_symbol
_atom_site_fract_x
_atom_site_fract_y
_atom_site_fract_z
_atom_type_partial_charge
O0 O 0.27311 0.13777 0.17967 0.0
Zn1 Zn 0.26329 0.13707 0.14446 0.0
O2 O 0.30346 0.11967 0.12593 0.0
Zn3 Zn 0.29141 0.07211 0.11327 0.0
Zn4 Zn 0.34411 0.11861 0.14788 0.0
Zn5 Zn 0.31378 0.1526 0.09992 0.0
O6 O 0.30012 0.07006 0.0769 0.0
O7 O 0.30679 0.12822 0.0681 0.0
O8 O 0.21932 0.1082 0.1393 0.0
O9 O 0.23818 0.06175 0.11765 0.0
O10 O 0.31718 0.03416 0.13329 0.0
O11 O 0.35321 0.06728 0.15658 0.0
O12 O 0.38798 0.14308 0.13403 0.0
O13 O 0.25255 0.18775 0.13571 0.0
O14 O 0.36473 0.16907 0.10153 0.0
O15 O 0.28429 0.19796 0.1025 0.0
C16 C 0.30234 0.14538 0.19041 0.0
C17 C 0.3035 0.09551 0.06151 0.0
C18 C 0.34034 0.03685 0.15027 0.0
C19 C 0.21314 0.0787 0.1285 0.0
C20 C 0.39113 0.16346 0.11565 0.0
C21 C 0.2622 0.20844 0.11862 0.0
O22 O 0.33245 0.14393 0.17943 0.0
O23 O 0.54957 0.49849 0.396 0.0
Zn24 Zn 0.5822 0.49807 0.36762 0.0
O25 O 0.60671 0.54367 0.36465 0.0
Zn26 Zn 0.65749 0.53536 0.35757 0.0
Zn27 Zn 0.59952 0.57213 0.39342 0.0
Zn28 Zn 0.58251 0.56684 0.33853 0.0
O29 O 0.66704 0.54664 0.32182 0.0
O30 O 0.61297 0.56504 0.30919 0.0
O31 O 0.61725 0.45921 0.37401 0.0
O32 O 0.67011 0.48309 0.36393 0.0
O33 O 0.68875 0.56209 0.38229 0.0
O34 O 0.64724 0.57874 0.40917 0.0
O35 O 0.57886 0.62109 0.3856 0.0
O36 O 0.55038 0.48667 0.33934 0.0
O37 O 0.57122 0.61752 0.34596 0.0
O38 O 0.53447 0.54316 0.3339 0.0
C39 C 0.54643 0.51882 0.41431 0.0
C40 C 0.64587 0.55755 0.30508 0.0
C41 C 0.68007 0.57522 0.40286 0.0
C42 C 0.65115 0.45683 0.37151 0.0
C43 C 0.56939 0.63508 0.36559 0.0
C44 C 0.52697 0.50981 0.33316 0.0
O45 O 0.56518 0.54741 0.41653 0.0
O46 O 0.21872 0.84989 0.67957 0.0
Zn47 Zn 0.23173 0.85689 0.64542 0.0
O48 O 0.19192 0.87483 0.62661 0.0
Zn49 Zn 0.2051 0.92253 0.61401 0.0
Zn50 Zn 0.14965 0.87647 0.64763 0.0
Zn51 Zn 0.18207 0.8419 0.60039 0.0
O52 O 0.19808 0.92451 0.57741 0.0
O53 O 0.1859 0.86718 0.56876 0.0
O54 O 0.27281 0.89035 0.64587 0.0
O55 O 0.25749 0.93493 0.62132 0.0
O56 O 0.17719 0.96037 0.63265 0.0
O57 O 0.13951 0.92804 0.65519 0.0
O58 O 0.10667 0.85063 0.63345 0.0
O59 O 0.24795 0.80889 0.6337 0.0
O60 O 0.13225 0.82253 0.60259 0.0
O61 O 0.21436 0.79843 0.60135 0.0
C62 C 0.18901 0.84691 0.69064 0.0
C63 C 0.19126 0.89957 0.56215 0.0
C64 C 0.15285 0.95825 0.64888 0.0
C65 C 0.27993 0.91994 0.63552 0.0
C66 C 0.10506 0.82845 0.61593 0.0
C67 C 0.23868 0.78875 0.6162 0.0
O68 O 0.15912 0.85292 0.68016 0.0
O69 O 0.93594 0.49099 0.90223 0.0
Zn70 Zn 0.90364 0.49247 0.87394 0.0
O71 O 0.88355 0.44603 0.8676 0.0
Zn72 Zn 0.83314 0.45252 0.85846 0.0
Zn73 Zn 0.88911 0.41655 0.89604 0.0
Zn74 Zn 0.91248 0.42669 0.84197 0.0
O75 O 0.82757 0.44168 0.82237 0.0
O76 O 0.88324 0.42525 0.81176 0.0
O77 O 0.86561 0.52743 0.88188 0.0
O78 O 0.81657 0.5038 0.86517 0.0
O79 O 0.80094 0.42363 0.88126 0.0
O80 O 0.84044 0.40784 0.90972 0.0
O81 O 0.91183 0.36899 0.88784 0.0
O82 O 0.93455 0.51036 0.84726 0.0
O83 O 0.92971 0.37733 0.84997 0.0
O84 O 0.95693 0.45726 0.83754 0.0
C85 C 0.93933 0.46958 0.9199 0.0
C86 C 0.85041 0.43145 0.80645 0.0
C87 C 0.80819 0.41029 0.902 0.0
C88 C 0.83245 0.5291 0.87649 0.0
C89 C 0.92759 0.35791 0.86882 0.0
C90 C 0.9602 0.4913 0.83909 0.0
O91 O 0.92132 0.4404 0.92108 0.0
O92 O 0.75305 0.79228 0.84862 0.0
Zn93 Zn 0.75247 0.82559 0.87645 0.0
O94 O 0.70676 0.84923 0.87899 0.0
Zn95 Zn 0.71558 0.89966 0.8869 0.0
Zn96 Zn 0.68071 0.84354 0.84898 0.0
Zn97 Zn 0.68197 0.82416 0.90437 0.0
O98 O 0.70246 0.90834 0.92222 0.0
O99 O 0.67908 0.85563 0.93356 0.0
O100 O 0.79122 0.86047 0.86988 0.0
O101 O 0.76817 0.91289 0.88134 0.0
O102 O 0.68956 0.93178 0.86281 0.0
O103 O 0.67455 0.89219 0.83421 0.0
O104 O 0.63158 0.82179 0.8547 0.0
O105 O 0.76418 0.79517 0.90493 0.0
O106 O 0.63313 0.80867 0.89384 0.0
O107 O 0.70828 0.77836 0.91236 0.0
C108 C 0.73464 0.79009 0.82938 0.0
C109 C 0.68824 0.88796 0.93824 0.0
C110 C 0.67745 0.92452 0.84175 0.0
C111 C 0.7941 0.89415 0.87307 0.0
C112 C 0.61701 0.80873 0.87358 0.0
C113 C 0.74195 0.77217 0.91309 0.0
O114 O 0.7071 0.80997 0.82597 0.0
O115 O 0.39443 0.47728 0.56923 0.0
Zn116 Zn 0.391 0.48481 0.60448 0.0
O117 O 0.37221 0.44334 0.62111 0.0
Zn118 Zn 0.32428 0.45561 0.63337 0.0
Zn119 Zn 0.37075 0.40402 0.59789 0.0
Zn120 Zn 0.40436 0.43033 0.64726 0.0
O121 O 0.32147 0.44582 0.66949 0.0
O122 O 0.37873 0.4348 0.67898 0.0
O123 O 0.36155 0.52825 0.60927 0.0
O124 O 0.31378 0.50903 0.62939 0.0
O125 O 0.28635 0.43016 0.61316 0.0
O126 O 0.31928 0.39449 0.58956 0.0
O127 O 0.39608 0.35948 0.60993 0.0
O128 O 0.4406 0.49578 0.61541 0.0
O129 O 0.42185 0.37977 0.64345 0.0
O130 O 0.44957 0.46048 0.64709 0.0
C131 C 0.39893 0.44883 0.55695 0.0
C132 C 0.34603 0.43976 0.68516 0.0
C133 C 0.28889 0.4071 0.59612 0.0
C134 C 0.33138 0.53424 0.61919 0.0
C135 C 0.41665 0.35485 0.62807 0.0
C136 C 0.46046 0.48466 0.63252 0.0
O137 O 0.39479 0.41778 0.56627 0.0
O138 O 0.73926 0.1963 0.3476 0.0
Zn139 Zn 0.74036 0.16171 0.37476 0.0
O140 O 0.7869 0.14004 0.37784 0.0
Zn141 Zn 0.78001 0.08906 0.38493 0.0
Zn142 Zn 0.81371 0.14787 0.34857 0.0
Zn143 Zn 0.80925 0.16615 0.40384 0.0
O144 O 0.79151 0.08064 0.42065 0.0
O145 O 0.81024 0.13468 0.43311 0.0
O146 O 0.70319 0.12563 0.36737 0.0
O147 O 0.72801 0.07398 0.37861 0.0
O148 O 0.80823 0.05868 0.36068 0.0
O149 O 0.82214 0.10022 0.33313 0.0
O150 O 0.86179 0.17074 0.35559 0.0
O151 O 0.72643 0.18966 0.40383 0.0
O152 O 0.85865 0.18285 0.39485 0.0
O153 O 0.78077 0.21124 0.4106 0.0
C154 C 0.75853 0.19989 0.32884 0.0
C155 C 0.80262 0.10179 0.43735 0.0
C156 C 0.82056 0.06747 0.33993 0.0
C157 C 0.70148 0.09182 0.37026 0.0
C158 C 0.8755 0.18357 0.37484 0.0
C159 C 0.74671 0.21488 0.41124 0.0
O160 O 0.78703 0.18129 0.32577 0.0
O161 O 0.09726 0.51308 0.07405 0.0
Zn162 Zn 0.10375 0.50758 0.10932 0.0
O163 O 0.12217 0.55064 0.12426 0.0
Zn164 Zn 0.17116 0.54086 0.13567 0.0
Zn165 Zn 0.12085 0.58853 0.10007 0.0
Zn166 Zn 0.09119 0.56416 0.15083 0.0
O167 O 0.17543 0.5517 0.17165 0.0
O168 O 0.11807 0.56038 0.18192 0.0
O169 O 0.13523 0.46563 0.11419 0.0
O170 O 0.18356 0.48788 0.13224 0.0
O171 O 0.20706 0.56665 0.11407 0.0
O172 O 0.17146 0.59844 0.08973 0.0
O173 O 0.09593 0.63336 0.11215 0.0
O174 O 0.05531 0.49556 0.12197 0.0
O175 O 0.07404 0.61465 0.14723 0.0
O176 O 0.04597 0.53411 0.15185 0.0
C177 C 0.09057 0.5407 0.06137 0.0
C178 C 0.15113 0.55687 0.18764 0.0
C179 C 0.20268 0.58779 0.09612 0.0
C180 C 0.16633 0.46144 0.12321 0.0
C181 C 0.07753 0.63891 0.13122 0.0
C182 C 0.03548 0.50807 0.13866 0.0
O183 O 0.09445 0.57235 0.06983 0.0
O184 O 0.77612 0.63314 0.67792 0.0
Zn185 Zn 0.76598 0.63342 0.64287 0.0
O186 O 0.80577 0.61612 0.62403 0.0
Zn187 Zn 0.79325 0.5686 0.61139 0.0
Zn188 Zn 0.84676 0.61477 0.64578 0.0
Zn189 Zn 0.81563 0.64942 0.59803 0.0
O190 O 0.80031 0.56709 0.57486 0.0
O191 O 0.80794 0.62518 0.56611 0.0
O192 O 0.72197 0.60462 0.63828 0.0
O193 O 0.74033 0.55771 0.6169 0.0
O194 O 0.82003 0.53046 0.63064 0.0
O195 O 0.85675 0.5633 0.65362 0.0
O196 O 0.89 0.6403 0.63202 0.0
O197 O 0.75535 0.68428 0.63465 0.0
O198 O 0.86664 0.66622 0.59951 0.0
O199 O 0.78602 0.69485 0.60104 0.0
C200 C 0.80535 0.63968 0.68892 0.0
C201 C 0.80377 0.59256 0.55948 0.0
C202 C 0.84382 0.53293 0.64723 0.0
C203 C 0.71562 0.57475 0.62802 0.0
C204 C 0.89302 0.66083 0.61371 0.0
C205 C 0.76452 0.70518 0.61757 0.0
O206 O 0.8355 0.63854 0.67799 0.0
O207 O 0.05835 0.98804 0.89953 0.0
Zn208 Zn 0.09191 0.98992 0.8718 0.0
O209 O 0.11056 0.03763 0.8675 0.0
Zn210 Zn 0.16177 0.0341 0.85969 0.0
Zn211 Zn 0.10192 0.06521 0.89646 0.0
Zn212 Zn 0.08257 0.05759 0.84166 0.0
O213 O 0.16905 0.04701 0.824 0.0
O214 O 0.11334 0.06168 0.81238 0.0
O215 O 0.13099 0.9558 0.87921 0.0
O216 O 0.1802 0.98329 0.86564 0.0
O217 O 0.19109 0.06328 0.88413 0.0
O218 O 0.14923 0.07511 0.91191 0.0
O219 O 0.07787 0.11243 0.88889 0.0
O220 O 0.06271 0.97301 0.84389 0.0
O221 O 0.06326 0.10582 0.85025 0.0
O222 O 0.03946 0.02612 0.83528 0.0
C223 C 0.05278 0.0085 0.91749 0.0
C224 C 0.14664 0.05715 0.80777 0.0
C225 C 0.18199 0.07481 0.90503 0.0
C226 C 0.16459 0.95619 0.87508 0.0
C227 C 0.0632 0.12412 0.86965 0.0
C228 C 0.03697 0.99196 0.83571 0.0
O229 O 0.06908 0.03854 0.91965 0.0
O230 O 0.72069 0.35191 0.17632 0.0
Zn231 Zn 0.73219 0.35642 0.14161 0.0
O232 O 0.69209 0.37454 0.12314 0.0
Zn233 Zn 0.70499 0.42205 0.11041 0.0
Zn234 Zn 0.65054 0.3767 0.14463 0.0
Zn235 Zn 0.68149 0.34172 0.09698 0.0
O236 O 0.6971 0.42417 0.07401 0.0
O237 O 0.68594 0.36672 0.06522 0.0
O238 O 0.77474 0.38795 0.13969 0.0
O239 O 0.75774 0.43334 0.1164 0.0
O240 O 0.67841 0.46024 0.12945 0.0
O241 O 0.64053 0.42832 0.15208 0.0
O242 O 0.60728 0.35075 0.13114 0.0
O243 O 0.74624 0.30739 0.13063 0.0
O244 O 0.63141 0.32304 0.09958 0.0
O245 O 0.71306 0.29772 0.09798 0.0
C246 C 0.69114 0.34877 0.18759 0.0
C247 C 0.69097 0.39919 0.05866 0.0
C248 C 0.65419 0.45837 0.14575 0.0
C249 C 0.78148 0.4175 0.12915 0.0
C250 C 0.60483 0.32887 0.11349 0.0
C251 C 0.73679 0.28746 0.11307 0.0
O252 O 0.66103 0.35375 0.17714 0.0
O253 O 0.40593 0.98384 0.41957 0.0
Zn254 Zn 0.38925 0.99051 0.38606 0.0
O255 O 0.3717 0.94631 0.3721 0.0
Zn256 Zn 0.32177 0.9539 0.3612 0.0
Zn257 Zn 0.3746 0.9089 0.39654 0.0
Zn258 Zn 0.40297 0.9326 0.34571 0.0
O259 O 0.31781 0.94339 0.32501 0.0
O260 O 0.37464 0.93053 0.31515 0.0
O261 O 0.35149 0.02735 0.38803 0.0
O262 O 0.30536 0.00546 0.36711 0.0
O263 O 0.28743 0.92524 0.38266 0.0
O264 O 0.3252 0.89804 0.40796 0.0
O265 O 0.39902 0.86428 0.38477 0.0
O266 O 0.43228 0.00929 0.36878 0.0
O267 O 0.42507 0.88438 0.35134 0.0
O268 O 0.4448 0.96667 0.34209 0.0
C269 C 0.4117 0.95647 0.43264 0.0
C270 C 0.34171 0.93483 0.30939 0.0
C271 C 0.29333 0.9058 0.40127 0.0
C272 C 0.31995 0.03037 0.37954 0.0
C273 C 0.42031 0.8599 0.36704 0.0
C274 C 0.45259 -0.0038 0.35252 0.0
O275 O 0.40314 0.92497 0.4257 0.0
O276 O 0.25307 0.3048 0.34825 0.0
Zn277 Zn 0.24892 0.33406 0.37819 0.0
O278 O 0.20178 0.35631 0.37948 0.0
Zn279 Zn 0.20791 0.40726 0.38668 0.0
Zn280 Zn 0.17587 0.3493 0.34947 0.0
Zn281 Zn 0.1763 0.33177 0.40478 0.0
O282 O 0.19547 0.41622 0.42218 0.0
O283 O 0.17446 0.36283 0.4341 0.0
O284 O 0.28858 0.36997 0.37698 0.0
O285 O 0.2597 0.4219 0.38098 0.0
O286 O 0.18091 0.4381 0.36238 0.0
O287 O 0.16856 0.39729 0.33405 0.0
O288 O 0.12697 0.32657 0.35505 0.0
O289 O 0.25757 0.29866 0.40452 0.0
O290 O 0.12705 0.31748 0.39469 0.0
O291 O 0.20085 0.28504 0.41228 0.0
C292 C 0.23389 0.30052 0.32948 0.0
C293 C 0.18276 0.39545 0.43854 0.0
C294 C 0.16989 0.42988 0.34123 0.0
C295 C 0.28856 0.40414 0.37753 0.0
C296 C 0.11162 0.31557 0.37425 0.0
C297 C 0.23408 0.27684 0.41254 0.0
O298 O 0.20385 0.3167 0.3269 0.0
O299 O 0.89153 0.97218 0.06709 0.0
Zn300 Zn 0.88857 0.98288 0.10208 0.0
O301 O 0.87054 0.94279 0.12057 0.0
Zn302 Zn 0.82272 0.9553 0.13277 0.0
Zn303 Zn 0.86917 0.90155 0.099 0.0
Zn304 Zn 0.9031 0.93245 0.14695 0.0
O305 O 0.82015 0.94742 0.16911 0.0
O306 O 0.87779 0.93859 0.17858 0.0
O307 O 0.8587 0.02643 0.1057 0.0
O308 O 0.8121 0.00832 0.12751 0.0
O309 O 0.78481 0.92855 0.11334 0.0
O310 O 0.81778 0.89121 0.09099 0.0
O311 O 0.8946 0.85833 0.11278 0.0
O312 O 0.9384 -0.00477 0.11222 0.0
O313 O 0.92115 0.88192 0.145 0.0
O314 O 0.94771 0.96329 0.14544 0.0
C315 C 0.8969 0.94259 0.05623 0.0
C316 C 0.84503 0.94296 0.18479 0.0
C317 C 0.78737 0.90427 0.09711 0.0
C318 C 0.82899 0.0329 0.11614 0.0
C319 C 0.91565 0.85552 0.13085 0.0
C320 C 0.95837 0.98603 0.12979 0.0
O321 O 0.89346 0.91255 0.06703 0.0
O322 O 0.24164 0.69187 0.84896 0.0
Zn323 Zn 0.24447 0.65928 0.8771 0.0
O324 O 0.29096 0.63667 0.87868 0.0
Zn325 Zn 0.28409 0.58566 0.88598 0.0
Zn326 Zn 0.31635 0.64412 0.84865 0.0
Zn327 Zn 0.31583 0.66171 0.90401 0.0
O328 O 0.29681 0.577 0.92151 0.0
O329 O 0.31796 0.63049 0.93321 0.0
O330 O 0.20613 0.62344 0.87173 0.0
O331 O 0.23186 0.57109 0.88045 0.0
O332 O 0.31122 0.55496 0.86131 0.0
O333 O 0.32413 0.59623 0.83336 0.0
O334 O 0.36494 0.66706 0.85425 0.0
O335 O 0.23366 0.6906 0.90539 0.0
O336 O 0.36484 0.67707 0.89381 0.0
O337 O 0.28979 0.70766 0.91168 0.0
C338 C 0.25978 0.69523 0.82969 0.0
C339 C 0.30961 0.59791 0.93779 0.0
C340 C 0.32279 0.56354 0.84033 0.0
C341 C 0.20466 0.58947 0.8738 0.0
C342 C 0.38019 0.6787 0.87332 0.0
C343 C 0.25617 0.71391 0.91282 0.0
O344 O 0.2884 0.677 0.82614 0.0
O345 O 0.57001 -0.00318 0.59138 0.0
Zn346 Zn 0.59322 -0.0035 0.62335 0.0
O347 O 0.61466 0.04275 0.63021 0.0
Zn348 Zn 0.66551 0.03511 0.63847 0.0
Zn349 Zn 0.60945 0.07452 0.60245 0.0
Zn350 Zn 0.58797 0.06301 0.65696 0.0
O351 O 0.67355 0.04712 0.67401 0.0
O352 O 0.61842 0.06155 0.68664 0.0
O353 O 0.62844 0.95685 0.62327 0.0
O354 O 0.67959 0.98259 0.63443 0.0
O355 O 0.69807 0.06146 0.61465 0.0
O356 O 0.65818 0.08438 0.58885 0.0
O357 O 0.58494 0.12132 0.61143 0.0
O358 O 0.55283 0.9839 0.64506 0.0
O359 O 0.57242 0.11329 0.65024 0.0
O360 O 0.54147 0.03609 0.66263 0.0
C361 C 0.56594 0.0198 0.57469 0.0
C362 C 0.65164 0.05565 0.69089 0.0
C363 C 0.69062 0.0783 0.59517 0.0
C364 C 0.66182 0.95488 0.62794 0.0
C365 C 0.57162 0.13253 0.63126 0.0
C366 C 0.53237 0.00396 0.65753 0.0
O367 O 0.57959 0.05119 0.57609 0.0
C368 C 0.32281 0.18915 0.22164 0.0
C369 C 0.29981 0.16104 0.21478 0.0
C370 C 0.31519 0.21008 0.24211 0.0
C371 C 0.28428 0.20214 0.25612 0.0
C372 C 0.26291 0.17176 0.25046 0.0
C373 C 0.27075 0.15175 0.22969 0.0
C374 C 0.33861 0.2423 0.24764 0.0
C375 C 0.23028 0.16186 0.26533 0.0
C376 C 0.27123 0.24811 0.31665 0.0
C377 C 0.24679 0.27553 0.31065 0.0
C378 C 0.2838 0.22397 0.29912 0.0
C379 C 0.27198 0.2277 0.27498 0.0
C380 C 0.24753 0.2555 0.26877 0.0
C381 C 0.23495 0.2789 0.28676 0.0
C382 C 0.30916 0.19417 0.30651 0.0
C383 C 0.2346 0.2605 0.24312 0.0
H384 H 0.34519 0.19647 0.21006 0.0
H385 H 0.25314 0.12974 0.2245 0.0
H386 H 0.32342 0.26733 0.24367 0.0
H387 H 0.34586 0.2429 0.26706 0.0
H388 H 0.36375 0.2424 0.23676 0.0
H389 H 0.21948 0.13492 0.26045 0.0
H390 H 0.23695 0.16199 0.28486 0.0
H391 H 0.20876 0.18211 0.26242 0.0
H392 H 0.28011 0.24511 0.3352 0.0
H393 H 0.21622 0.30015 0.28206 0.0
H394 H 0.33334 0.19402 0.29475 0.0
H395 H 0.29559 0.16776 0.30425 0.0
H396 H 0.318 0.19675 0.3256 0.0
H397 H 0.25797 0.26396 0.23085 0.0
H398 H 0.2166 0.2842 0.24116 0.0
H399 H 0.21976 0.23616 0.2371 0.0
C400 C 0.40314 0.48272 0.51854 0.0
C401 C 0.41333 0.45287 0.5324 0.0
C402 C 0.42179 0.4917 0.49742 0.0
C403 C 0.45185 0.47079 0.49045 0.0
C404 C 0.46089 0.43934 0.50359 0.0
C405 C 0.44117 0.43049 0.52436 0.0
C406 C 0.41067 0.52477 0.48344 0.0
C407 C 0.49287 0.41647 0.49666 0.0
C408 C 0.49301 0.48399 0.42847 0.0
C409 C 0.52127 0.50796 0.43359 0.0
C410 C 0.46998 0.47179 0.44678 0.0
C411 C 0.47562 0.48359 0.47074 0.0
C412 C 0.50394 0.50796 0.476 0.0
C413 C 0.52626 0.52012 0.45729 0.0
C414 C 0.4395 0.44655 0.44048 0.0
C415 C 0.511 0.52075 0.50147 0.0
H416 H 0.3814 0.49987 0.52475 0.0
H417 H 0.44918 0.40758 0.53523 0.0
H418 H 0.43114 0.54624 0.4859 0.0
H419 H 0.40918 0.51871 0.46385 0.0
H420 H 0.38416 0.53534 0.48947 0.0
H421 H 0.49446 0.39135 0.50749 0.0
H422 H 0.4916 0.4092 0.47725 0.0
H423 H 0.51804 0.43208 0.49947 0.0
H424 H 0.4888 0.4748 0.4101 0.0
H425 H 0.54821 0.53843 0.46133 0.0
H426 H 0.41342 0.46072 0.44276 0.0
H427 H 0.43925 0.42296 0.45275 0.0
H428 H 0.44135 0.43673 0.42163 0.0
H429 H 0.48703 0.53514 0.50852 0.0
H430 H 0.53461 0.53908 0.50258 0.0
H431 H 0.51585 0.49732 0.51346 0.0
C432 C 0.16769 0.80437 0.72223 0.0
C433 C 0.19032 0.8327 0.71536 0.0
C434 C 0.17536 0.78406 0.74298 0.0
C435 C 0.20593 0.79291 0.75713 0.0
C436 C 0.2266 0.82377 0.75148 0.0
C437 C 0.21874 0.8431 0.73047 0.0
C438 C 0.15266 0.75137 0.74854 0.0
C439 C 0.25882 0.83464 0.76647 0.0
C440 C 0.22151 0.74728 0.81743 0.0
C441 C 0.24656 0.72052 0.81115 0.0
C442 C 0.20772 0.77094 0.80003 0.0
C443 C 0.21914 0.76758 0.7758 0.0
C444 C 0.24437 0.74061 0.76934 0.0
C445 C 0.25797 0.71753 0.78716 0.0
C446 C 0.1814 0.79978 0.80766 0.0
C447 C 0.25703 0.73614 0.74358 0.0
H448 H 0.14587 0.79626 0.7104 0.0
H449 H 0.23604 0.86526 0.72513 0.0
H450 H 0.16821 0.72668 0.74424 0.0
H451 H 0.14585 0.75037 0.76803 0.0
H452 H 0.1273 0.75097 0.73788 0.0
H453 H 0.26872 0.86196 0.76169 0.0
H454 H 0.25212 0.83415 0.78598 0.0
H455 H 0.28102 0.81515 0.76349 0.0
H456 H 0.21282 0.74997 0.83604 0.0
H457 H 0.27714 0.69679 0.78222 0.0
H458 H 0.15729 0.79947 0.79583 0.0
H459 H 0.19418 0.82663 0.80573 0.0
H460 H 0.17255 0.7965 0.8267 0.0
H461 H 0.23358 0.73198 0.73146 0.0
H462 H 0.27576 0.71305 0.74143 0.0
H463 H 0.27098 0.76097 0.73753 0.0
C464 C 0.99358 0.50259 0.93423 0.0
C465 C 0.9645 0.47965 0.93935 0.0
C466 C 0.01678 0.51434 0.95255 0.0
C467 C 0.01045 0.50318 0.97657 0.0
C468 C 0.98129 0.47979 0.98183 0.0
C469 C 0.95882 0.46798 0.96306 0.0
C470 C 0.04816 0.53841 0.94612 0.0
C471 C 0.97347 0.46777 0.00735 0.0
C472 C 0.08331 0.504 0.02425 0.0
C473 C 0.07439 0.53495 0.03743 0.0
C474 C 0.06387 0.49435 0.00357 0.0
C475 C 0.03432 0.51576 0.99631 0.0
C476 C 0.02628 0.548 0.00888 0.0
C477 C 0.04676 0.55746 0.02922 0.0
C478 C 0.07389 0.46036 0.9902 0.0
C479 C 0.99484 0.5714 0.00166 0.0
H480 H -0.0017 0.5113 0.9158 0.0
H481 H 0.93622 0.45046 0.96704 0.0
H482 H 0.0737 0.52333 0.94853 0.0
H483 H 0.04675 0.54804 0.92716 0.0
H484 H 0.04923 0.56214 0.95826 0.0
H485 H 0.94937 0.45009 0.00844 0.0
H486 H -0.00308 0.45294 0.01476 0.0
H487 H 0.96902 0.4916 0.01907 0.0
H488 H 0.1049 0.48673 0.03054 0.0
H489 H 0.0397 0.58123 0.03955 0.0
H490 H 0.07618 0.46578 0.97056 0.0
H491 H 0.05242 0.43989 0.99263 0.0
H492 H 0.09974 0.44882 0.99669 0.0
H493 H -0.00331 0.57855 0.98225 0.0
H494 H 0.99347 0.5966 0.01242 0.0
H495 H 0.96933 0.55626 0.00421 0.0
C496 C 0.73511 0.76822 0.78667 0.0
C497 C 0.74652 0.76443 0.81063 0.0
C498 C 0.74798 0.7451 0.76861 0.0
C499 C 0.77246 0.7173 0.77477 0.0
C500 C 0.78365 0.71297 0.79899 0.0
C501 C 0.77058 0.73663 0.81663 0.0
C502 C 0.7356 0.75061 0.74288 0.0
C503 C 0.80914 0.68323 0.80632 0.0
C504 C 0.77364 0.64313 0.72825 0.0
C505 C 0.8027 0.6537 0.71372 0.0
C506 C 0.76506 0.66207 0.74932 0.0
C507 C 0.78574 0.6926 0.75572 0.0
C508 C 0.81684 0.70163 0.74217 0.0
C509 C 0.82515 0.68179 0.72133 0.0
C510 C 0.73228 0.65103 0.76367 0.0
C511 C 0.83965 0.7339 0.74858 0.0
H512 H 0.71669 0.78972 0.78194 0.0
H513 H 0.77921 0.73328 0.8352 0.0
H514 H 0.7592 0.75514 0.73097 0.0
H515 H 0.72162 0.72609 0.73629 0.0
H516 H 0.71701 0.77387 0.74105 0.0
H517 H 0.81831 0.68602 0.82533 0.0
H518 H 0.79548 0.65682 0.80432 0.0
H519 H 0.83314 0.68289 0.79438 0.0
H520 H 0.75649 0.62111 0.72246 0.0
H521 H 0.84754 0.69005 0.71004 0.0
H522 H 0.71041 0.67092 0.76077 0.0
H523 H 0.73842 0.65069 0.78327 0.0
H524 H 0.72218 0.62403 0.75828 0.0
H525 H 0.82422 0.75889 0.7449 0.0
H526 H 0.86507 0.7348 0.73802 0.0
H527 H 0.84637 0.73377 0.7681 0.0
C528 C 0.72124 0.34612 0.22741 0.0
C529 C 0.69277 0.33528 0.21248 0.0
C530 C 0.72883 0.3277 0.24885 0.0
C531 C 0.70795 0.29724 0.25506 0.0
C532 C 0.67741 0.28794 0.24101 0.0
C533 C 0.66993 0.30742 0.21989 0.0
C534 C 0.7609 0.33914 0.26379 0.0
C535 C 0.65451 0.25561 0.24713 0.0
C536 C 0.75874 0.22217 0.28633 0.0
C537 C 0.7466 0.22555 0.31015 0.0
C538 C 0.74597 0.24518 0.26822 0.0
C539 C 0.72089 0.27254 0.27419 0.0
C540 C 0.70891 0.27644 0.29827 0.0
C541 C 0.72184 0.2528 0.31598 0.0
C542 C 0.7591 0.24002 0.24263 0.0
C543 C 0.68283 0.30576 0.30539 0.0
H544 H 0.73868 0.36796 0.2217 0.0
H545 H 0.64803 0.29899 0.20822 0.0
H546 H 0.75396 0.33943 0.28327 0.0
H547 H 0.78311 0.31952 0.26128 0.0
H548 H 0.77088 0.36625 0.25857 0.0
H549 H 0.62939 0.25465 0.23623 0.0
H550 H 0.67011 0.23067 0.24363 0.0
H551 H 0.64724 0.25572 0.26655 0.0
H552 H 0.77767 0.20104 0.28174 0.0
H553 H 0.71263 0.25577 0.33445 0.0
H554 H 0.77323 0.26464 0.23639 0.0
H555 H 0.73586 0.23559 0.23037 0.0
H556 H 0.7778 0.21682 0.2409 0.0
H557 H 0.69648 0.33228 0.30421 0.0
H558 H 0.67261 0.30222 0.32409 0.0
H559 H 0.65952 0.30647 0.29287 0.0
C560 C 0.941 0.92192 0.02547 0.0
C561 C 0.91218 0.9443 0.03178 0.0
C562 C 0.96187 0.92938 0.00495 0.0
C563 C 0.95302 0.95937 0.99032 0.0
C564 C 0.92184 0.97986 0.99542 0.0
C565 C 0.90202 0.97235 0.01632 0.0
C566 C 0.99499 0.90697 6e-05 0.0
C567 C 0.91086 0.01128 0.97977 0.0
C568 C 0.02891 0.00995 0.95962 0.0
C569 C 0.02685 -0.00338 0.93602 0.0
C570 C 0.00523 -0.00237 0.97751 0.0
C571 C 0.97849 0.97188 0.97149 0.0
C572 C 0.97597 0.95866 0.94762 0.0
C573 C 0.00031 0.97109 0.93017 0.0
C574 C 0.009 0.01199 0.00292 0.0
C575 C 0.94731 0.93185 0.9404 0.0
H576 H 0.94896 0.90038 0.03755 0.0
H577 H 0.87949 0.98946 0.02118 0.0
H578 H -0.00398 0.8988 0.98081 0.0
H579 H 0.01943 0.92329 0.00377 0.0
H580 H -0.00408 0.88241 0.01149 0.0
H581 H 0.88343 0.02116 0.98425 0.0
H582 H 0.9302 0.03375 0.98233 0.0
H583 H 0.91155 0.00364 0.96041 0.0
H584 H 0.0495 0.02951 0.96421 0.0
H585 H -0.00168 0.96101 0.91183 0.0
H586 H 0.01306 0.98939 0.01573 0.0
H587 H 0.98392 0.02607 0.00833 0.0
H588 H 0.03192 0.03105 0.00476 0.0
H589 H 0.94627 0.90912 0.95337 0.0
H590 H 0.95189 0.92085 0.92201 0.0
H591 H 0.92056 0.94515 0.94074 0.0
C592 C 0.42432 0.99321 0.46893 0.0
C593 C 0.43089 0.96197 0.45549 0.0
C594 C 0.44548 0.00175 0.48903 0.0
C595 C 0.47447 0.97893 0.49532 0.0
C596 C 0.48073 0.94687 0.48212 0.0
C597 C 0.45843 0.93848 0.46245 0.0
C598 C 0.43735 0.0356 0.50314 0.0
C599 C 0.51181 0.92227 0.48816 0.0
C600 C 0.54993 0.02277 0.53094 0.0
C601 C 0.54287 0.00988 0.55418 0.0
C602 C 0.52832 0.01215 0.5114 0.0
C603 C 0.49852 0.98906 0.51553 0.0
C604 C 0.491 0.97653 0.53908 0.0
C605 C 0.51359 0.98674 0.55809 0.0
C606 C 0.53739 0.02549 0.48637 0.0
C607 C 0.45883 0.95283 0.54429 0.0
H608 H 0.40286 0.01127 0.46348 0.0
H609 H 0.46371 0.91458 0.45178 0.0
H610 H 0.43446 0.02924 0.52262 0.0
H611 H 0.46003 0.05487 0.50135 0.0
H612 H 0.41232 0.04902 0.49684 0.0
H613 H 0.51248 0.898 0.47644 0.0
H614 H 0.53759 0.93707 0.48601 0.0
H615 H 0.51013 0.91351 0.50727 0.0
H616 H 0.57272 0.0405 0.52799 0.0
H617 H 0.50792 0.97711 0.57618 0.0
H618 H 0.51496 0.04213 0.47929 0.0
H619 H 0.54074 0.00232 0.47391 0.0
H620 H 0.56244 0.04186 0.48609 0.0
H621 H 0.43372 0.96673 0.53872 0.0
H622 H 0.45664 0.94574 0.56372 0.0
H623 H 0.46062 0.92759 0.53364 0.0
C624 C 0.24396 0.06758 0.92253 0.0
C625 C 0.20973 0.08354 0.92333 0.0
C626 C 0.26702 0.0689 0.9427 0.0
C627 C 0.25536 0.08643 0.96403 0.0
C628 C 0.22199 0.10485 0.96418 0.0
C629 C 0.19972 0.10329 0.94383 0.0
C630 C 0.30272 0.04959 0.94165 0.0
C631 C 0.20859 0.12427 0.98643 0.0
C632 C 0.27917 0.05824 0.02759 0.0
C633 C 0.29909 0.08812 0.03539 0.0
C634 C 0.2673 0.05567 0.00357 0.0
C635 C 0.27597 0.08342 0.98699 0.0
C636 C 0.29931 0.11156 0.99416 0.0
C637 C 0.31037 0.11374 0.01835 0.0
C638 C 0.24261 0.02507 0.99661 0.0
C639 C 0.31005 0.1411 0.97689 0.0
H640 H 0.25185 0.05217 0.90677 0.0
H641 H 0.17348 0.11606 0.94446 0.0
H642 H 0.32413 0.06556 0.95066 0.0
H643 H 0.30048 0.02355 0.95134 0.0
H644 H 0.31105 0.04397 0.92276 0.0
H645 H 0.18292 0.13882 0.98313 0.0
H646 H 0.20419 0.1046 0.00122 0.0
H647 H 0.22899 0.14395 0.99278 0.0
H648 H 0.2705 0.03826 0.04062 0.0
H649 H 0.32634 0.13661 0.02416 0.0
H650 H 0.25086 0.01332 0.97905 0.0
H651 H 0.21475 0.03544 0.99447 0.0
H652 H 0.2423 0.00339 0.01042 0.0
H653 H 0.31651 0.1299 0.95883 0.0
H654 H 0.33368 0.15651 0.98361 0.0
H655 H 0.28723 0.16007 0.97464 0.0
C656 C 0.64143 0.58118 0.26321 0.0
C657 C 0.65738 0.5572 0.27961 0.0
C658 C 0.64331 0.57509 0.23825 0.0
C659 C 0.66071 0.54378 0.22966 0.0
C660 C 0.67994 0.52153 0.24602 0.0
C661 C 0.67834 0.52876 0.27088 0.0
C662 C 0.62379 0.60032 0.22139 0.0
C663 C 0.69904 0.48792 0.23758 0.0
C664 C 0.62135 0.48738 0.17963 0.0
C665 C 0.64873 0.48928 0.16224 0.0
C666 C 0.62349 0.50742 0.20099 0.0
C667 C 0.6534 0.53043 0.20482 0.0
C668 C 0.67839 0.53621 0.18594 0.0
C669 C 0.67582 0.51545 0.16478 0.0
C670 C 0.59576 0.5009 0.22048 0.0
C671 C 0.70981 0.56162 0.1889 0.0
H672 H 0.62556 0.60352 0.26996 0.0
H673 H 0.69062 0.51018 0.28353 0.0
H674 H 0.63869 0.60359 0.20416 0.0
H675 H 0.59687 0.58903 0.21707 0.0
H676 H 0.61984 0.62725 0.22972 0.0
H677 H 0.71584 0.47576 0.25204 0.0
H678 H 0.67881 0.4677 0.23169 0.0
H679 H 0.71649 0.49395 0.22185 0.0
H680 H 0.59997 0.46771 0.17758 0.0
H681 H 0.69697 0.51743 0.15136 0.0
H682 H 0.58536 0.52681 0.22756 0.0
H683 H 0.60847 0.48635 0.23578 0.0
H684 H 0.57261 0.48467 0.21388 0.0
H685 H 0.70202 0.58586 0.19938 0.0
H686 H 0.72071 0.57021 0.17113 0.0
H687 H 0.73166 0.54779 0.19892 0.0
C688 C 0.17281 0.88562 0.5199 0.0
C689 C 0.19301 0.9068 0.53596 0.0
C690 C 0.17972 0.88626 0.495 0.0
C691 C 0.20822 0.90776 0.48612 0.0
C692 C 0.22666 0.93141 0.50202 0.0
C693 C 0.21852 0.93093 0.52678 0.0
C694 C 0.15842 0.86181 0.47856 0.0
C695 C 0.25731 0.95479 0.49329 0.0
C696 C 0.27013 0.87355 0.43727 0.0
C697 C 0.2641 0.89863 0.41879 0.0
C698 C 0.25026 0.87469 0.45872 0.0
C699 C 0.22311 0.90111 0.46158 0.0
C700 C 0.21387 0.92354 0.44186 0.0
C701 C 0.23466 0.92218 0.42064 0.0
C702 C 0.26086 0.84992 0.47917 0.0
C703 C 0.18419 0.95109 0.44384 0.0
H704 H 0.15263 0.86728 0.52694 0.0
H705 H 0.23416 0.94732 0.53915 0.0
H706 H 0.15267 0.87522 0.46107 0.0
H707 H 0.17435 0.83723 0.47467 0.0
H708 H 0.13256 0.85343 0.48694 0.0
H709 H 0.2665 0.97408 0.50734 0.0
H710 H 0.28043 0.93749 0.48812 0.0
H711 H 0.24913 0.97016 0.47704 0.0
H712 H 0.2925 0.85492 0.4358 0.0
H713 H 0.22969 0.94161 0.40642 0.0
H714 H 0.23684 0.83599 0.48654 0.0
H715 H 0.27289 0.86597 0.49404 0.0
H716 H 0.28073 0.82927 0.47343 0.0
H717 H 0.16113 0.94047 0.45442 0.0
H718 H 0.1744 0.95956 0.42575 0.0
H719 H 0.19456 0.97529 0.45332 0.0
C720 C 0.87677 0.50507 0.68152 0.0
C721 C 0.85 0.50215 0.66375 0.0
C722 C 0.87507 0.48462 0.70271 0.0
C723 C 0.84637 0.45994 0.70595 0.0
C724 C 0.82223 0.45325 0.68667 0.0
C725 C 0.8242 0.47462 0.66575 0.0
C726 C 0.90178 0.49236 0.72266 0.0
C727 C 0.7923 0.42598 0.68895 0.0
C728 C 0.85918 0.40926 0.76438 0.0
C729 C 0.84081 0.43179 0.78058 0.0
C730 C 0.85802 0.4156 0.73941 0.0
C731 C 0.83902 0.44585 0.73062 0.0
C732 C 0.81774 0.46662 0.74671 0.0
C733 C 0.81855 0.45902 0.77153 0.0
C734 C 0.87968 0.39178 0.7228 0.0
C735 C 0.79705 0.49919 0.73811 0.0
H736 H 0.89724 0.52578 0.6799 0.0
H737 H 0.80356 0.4718 0.65202 0.0
H738 H 0.88775 0.5057 0.73793 0.0
H739 H 0.91357 0.46698 0.72959 0.0
H740 H 0.92406 0.51015 0.71656 0.0
H741 H 0.78243 0.41719 0.67094 0.0
H742 H 0.80126 0.40199 0.69926 0.0
H743 H 0.76938 0.43823 0.69882 0.0
H744 H 0.87609 0.38785 0.77134 0.0
H745 H 0.80439 0.47651 0.784 0.0
H746 H 0.90614 0.40456 0.71916 0.0
H747 H 0.86578 0.38801 0.70524 0.0
H748 H 0.88468 0.36496 0.73102 0.0
H749 H 0.81628 0.5205 0.73249 0.0
H750 H 0.77924 0.51035 0.75238 0.0
H751 H 0.78035 0.49228 0.72217 0.0
C752 C 0.72898 0.92279 0.07823 0.0
C753 C 0.75652 0.89715 0.08082 0.0
C754 C 0.70745 0.92347 0.05734 0.0
C755 C 0.71399 0.89819 0.03873 0.0
C756 C 0.73857 0.86965 0.04271 0.0
C757 C 0.75924 0.86929 0.06384 0.0
C758 C 0.68027 0.95329 0.0543 0.0
C759 C 0.74608 0.84171 0.02352 0.0
C760 C 0.66444 0.88234 0.98022 0.0
C761 C 0.68772 0.89933 0.96381 0.0
C762 C 0.67009 0.88507 0.00521 0.0
C763 C 0.70031 0.90437 0.01383 0.0
C764 C 0.72165 0.92454 0.99744 0.0
C765 C 0.7148 0.92209 0.97259 0.0
C766 C 0.64565 0.86464 0.02212 0.0
C767 C 0.75412 0.94563 0.00587 0.0
H768 H 0.72632 0.94424 0.09138 0.0
H769 H 0.77993 0.84894 0.06597 0.0
H770 H 0.69277 0.9758 0.04415 0.0
H771 H 0.65641 0.94397 0.04397 0.0
H772 H 0.67122 0.96387 0.07206 0.0
H773 H 0.76364 0.81968 0.03024 0.0
H774 H 0.72058 0.82973 0.01686 0.0
H775 H 0.75961 0.85468 0.0079 0.0
H776 H 0.64303 0.86516 0.9735 0.0
H777 H 0.7328 0.93536 0.96 0.0
H778 H 0.64193 0.87937 0.03937 0.0
H779 H 0.65786 0.83814 0.02635 0.0
H780 H 0.61883 0.85975 0.01382 0.0
H781 H 0.74691 0.96326 0.02128 0.0
H782 H 0.76571 0.96258 0.99127 0.0
H783 H 0.77524 0.92671 0.01221 0.0
C784 C 0.3511 0.5448 0.80169 0.0
C785 C 0.33109 0.53542 0.82221 0.0
C786 C 0.35298 0.52189 0.78169 0.0
C787 C 0.3346 0.48849 0.78221 0.0
C788 C 0.3167 0.47752 0.80357 0.0
C789 C 0.31507 0.50123 0.82339 0.0
C790 C 0.37277 0.53459 0.7594 0.0
C791 C 0.29739 0.44184 0.80501 0.0
C792 C 0.30766 0.4635 0.71868 0.0
C793 C 0.33787 0.44378 0.71123 0.0
C794 C 0.30446 0.47551 0.74261 0.0
C795 C 0.33191 0.4672 0.7595 0.0
C796 C 0.36025 0.44387 0.75274 0.0
C797 C 0.36305 0.43263 0.72861 0.0
C798 C 0.27361 0.50012 0.74913 0.0
C799 C 0.38944 0.43346 0.77037 0.0
H800 H 0.36396 0.57099 0.80078 0.0
H801 H 0.2995 0.4938 0.83918 0.0
H802 H 0.39262 0.51407 0.75354 0.0
H803 H 0.35335 0.5384 0.74437 0.0
H804 H 0.38721 0.56041 0.76242 0.0
H805 H 0.29178 0.434 0.82399 0.0
H806 H 0.27132 0.4438 0.7953 0.0
H807 H 0.31335 0.42023 0.79625 0.0
H808 H 0.28791 0.47201 0.70544 0.0
H809 H 0.38615 0.41678 0.72311 0.0
H810 H 0.2838 0.52809 0.75102 0.0
H811 H 0.26168 0.49222 0.7667 0.0
H812 H 0.2521 0.49993 0.73518 0.0
H813 H 0.40852 0.45625 0.77249 0.0
H814 H 0.40483 0.40962 0.76403 0.0
H815 H 0.37791 0.42751 0.78841 0.0
C816 C 0.81832 0.11089 0.48079 0.0
C817 C 0.8009 0.09036 0.46295 0.0
C818 C 0.80913 0.1073 0.50526 0.0
C819 C 0.78156 0.08299 0.51193 0.0
C820 C 0.76678 0.05947 0.49434 0.0
C821 C 0.77682 0.06329 0.47004 0.0
C822 C 0.82645 0.132 0.52353 0.0
C823 C 0.73755 0.03285 0.50074 0.0
C824 C 0.7503 0.06437 0.57614 0.0
C825 C 0.71918 0.08576 0.57719 0.0
C826 C 0.77255 0.0647 0.55555 0.0
C827 C 0.76325 0.08684 0.5357 0.0
C828 C 0.73365 0.11072 0.53763 0.0
C829 C 0.7121 0.10994 0.55836 0.0
C830 C 0.80432 0.03946 0.55445 0.0
C831 C 0.72301 0.13523 0.51705 0.0
H832 H 0.8375 0.13145 0.4755 0.0
H833 H 0.76339 0.04717 0.45641 0.0
H834 H 0.80802 0.15478 0.52741 0.0
H835 H 0.8315 0.11768 0.54078 0.0
H836 H 0.8523 0.14321 0.51676 0.0
H837 H 0.73242 0.01337 0.4859 0.0
H838 H 0.74481 0.01769 0.51728 0.0
H839 H 0.71217 0.04761 0.50452 0.0
H840 H 0.75595 0.04554 0.5906 0.0
H841 H 0.68834 0.12686 0.55919 0.0
H842 H 0.82756 0.05226 0.54522 0.0
H843 H 0.79677 0.01516 0.54395 0.0
H844 H 0.81286 0.03071 0.57275 0.0
H845 H 0.7464 0.15156 0.51112 0.0
H846 H 0.70076 0.15377 0.52206 0.0
H847 H 0.71415 0.1188 0.50139 0.0
C848 C 0.17964 0.49222 0.32509 0.0
C849 C 0.16291 0.45843 0.32322 0.0
C850 C 0.17937 0.51643 0.30555 0.0
C851 C 0.16203 0.50642 0.28378 0.0
C852 C 0.14302 0.4734 0.28249 0.0
C853 C 0.14367 0.4499 0.30221 0.0
C854 C 0.19951 0.55157 0.30777 0.0
C855 C 0.1237 0.46181 0.25974 0.0
C856 C 0.13509 0.56451 0.2311 0.0
C857 C 0.15997 0.55315 0.21359 0.0
C858 C 0.13766 0.55264 0.25507 0.0
C859 C 0.16551 0.52856 0.26154 0.0
C860 C 0.19294 0.52034 0.24462 0.0
C861 C 0.18994 0.53291 0.22081 0.0
C862 C 0.10852 0.56297 0.27276 0.0
C863 C 0.2234 0.49513 0.25091 0.0
H864 H 0.19472 0.49894 0.34124 0.0
H865 H 0.13036 0.42399 0.30076 0.0
H866 H 0.22598 0.54909 0.29863 0.0
H867 H 0.18458 0.57379 0.29889 0.0
H868 H 0.2044 0.55887 0.32695 0.0
H869 H 0.10876 0.43614 0.26214 0.0
H870 H 0.10436 0.48287 0.25397 0.0
H871 H 0.14349 0.45822 0.24491 0.0
H872 H 0.11221 0.58079 0.22575 0.0
H873 H 0.20943 0.52426 0.20744 0.0
H874 H 0.12002 0.5682 0.29092 0.0
H875 H 0.08909 0.5404 0.2745 0.0
H876 H 0.09353 0.58723 0.26672 0.0
H877 H 0.23503 0.50207 0.26877 0.0
H878 H 0.24519 0.49577 0.23717 0.0
H879 H 0.21289 0.4672 0.25207 0.0
C880 C 0.77748 0.55596 0.52589 0.0
C881 C 0.7984 0.58533 0.53341 0.0
C882 C 0.76506 0.55353 0.50198 0.0
C883 C 0.77425 0.58083 0.48518 0.0
C884 C 0.79842 0.60843 0.49209 0.0
C885 C 0.80995 0.61055 0.51619 0.0
C886 C 0.73937 0.52358 0.49536 0.0
C887 C 0.80973 0.63745 0.47459 0.0
C888 C 0.74152 0.56518 0.42079 0.0
C889 C 0.70792 0.58245 0.42144 0.0
C890 C 0.76458 0.56586 0.44099 0.0
C891 C 0.75355 0.58401 0.46224 0.0
C892 C 0.72079 0.60349 0.46232 0.0
C893 C 0.69856 0.60263 0.44192 0.0
C894 C 0.79966 0.54543 0.44003 0.0
C895 C 0.70802 0.62351 0.48449 0.0
H896 H 0.76853 0.53631 0.53906 0.0
H897 H 0.82663 0.63302 0.52179 0.0
H898 H 0.71182 0.53477 0.49329 0.0
H899 H 0.74705 0.51132 0.47785 0.0
H900 H 0.73856 0.50214 0.50933 0.0
H901 H 0.83376 0.65241 0.48112 0.0
H902 H 0.81581 0.62582 0.45659 0.0
H903 H 0.78734 0.65691 0.47227 0.0
H904 H 0.74895 0.54946 0.40506 0.0
H905 H 0.67286 0.61644 0.44247 0.0
H906 H 0.79681 0.51984 0.45018 0.0
H907 H 0.82165 0.56109 0.44864 0.0
H908 H 0.80755 0.53888 0.42119 0.0
H909 H 0.70328 0.60415 0.49942 0.0
H910 H 0.68267 0.63861 0.4812 0.0
H911 H 0.72892 0.64278 0.49065 0.0
C912 C 0.13918 0.08129 0.76616 0.0
C913 C 0.15735 0.05826 0.78213 0.0
C914 C 0.14039 0.07553 0.74113 0.0
C915 C 0.15928 0.04539 0.73206 0.0
C916 C 0.18069 0.02438 0.74793 0.0
C917 C 0.17979 0.03138 0.77283 0.0
C918 C 0.11869 0.09966 0.72476 0.0
C919 C 0.2014 0.99202 0.73901 0.0
C920 C 0.12032 0.98638 0.68325 0.0
C921 C 0.14679 0.9892 0.66529 0.0
C922 C 0.1225 0.00685 0.70443 0.0
C923 C 0.15135 0.03144 0.70744 0.0
C924 C 0.17507 0.03812 0.68795 0.0
C925 C 0.17263 0.01674 0.66705 0.0
C926 C 0.09616 -0.00082 0.7246 0.0
C927 C 0.20511 0.06532 0.68995 0.0
H928 H 0.12212 0.10243 0.77334 0.0
H929 H 0.1938 0.01352 0.78514 0.0
H930 H 0.13239 0.10355 0.70715 0.0
H931 H 0.09211 0.08708 0.72119 0.0
H932 H 0.11394 0.1264 0.73317 0.0
H933 H 0.21952 0.98082 0.75309 0.0
H934 H 0.18217 0.97065 0.73345 0.0
H935 H 0.21777 -0.00084 0.72297 0.0
H936 H 0.09979 0.96571 0.68181 0.0
H937 H 0.19301 0.01953 0.65315 0.0
H938 H 0.08453 0.02459 0.73161 0.0
H939 H 0.11047 0.98586 0.73976 0.0
H940 H 0.07375 0.98139 0.7187 0.0
H941 H 0.19668 0.08908 0.70071 0.0
H942 H 0.21416 0.07452 0.67186 0.0
H943 H 0.22846 0.05279 0.69919 0.0
C944 C 0.6786 0.38275 0.01575 0.0
C945 C 0.69418 0.4065 0.0325 0.0
C946 C 0.68822 0.38388 0.99126 0.0
C947 C 0.71459 0.40882 0.98353 0.0
C948 C 0.72773 0.43508 -9e-05 0.0
C949 C 0.7171 0.43379 0.02422 0.0
C950 C 0.67255 0.35632 0.9742 0.0
C951 C 0.75578 0.4623 0.99237 0.0
C952 C 0.78652 0.38056 0.93934 0.0
C953 C 0.77907 0.40267 0.91947 0.0
C954 C 0.7643 0.38068 0.95973 0.0
C955 C 0.73357 0.40323 0.96018 0.0
C956 C 0.72388 0.42288 0.93925 0.0
C957 C 0.74689 0.42246 0.91906 0.0
C958 C 0.77549 0.35889 0.98152 0.0
C959 C 0.69082 0.44646 0.93877 0.0
H960 H 0.6603 0.36198 0.02199 0.0
H961 H 0.72909 0.45231 0.03705 0.0
H962 H 0.6671 0.36839 0.95625 0.0
H963 H 0.69218 0.33415 0.97159 0.0
H964 H 0.64717 0.34458 0.98137 0.0
H965 H 0.75992 0.48346 0.00628 0.0
H966 H 0.78183 0.44838 0.98929 0.0
H967 H 0.74796 0.47542 0.97517 0.0
H968 H 0.81114 0.36486 0.9396 0.0
H969 H 0.74098 0.43966 0.90376 0.0
H970 H 0.75276 0.34204 0.98794 0.0
H971 H 0.78305 0.37731 0.99648 0.0
H972 H 0.79877 0.34102 0.97765 0.0
H973 H 0.66806 0.43359 0.94848 0.0
H974 H 0.68229 0.45254 0.91998 0.0
H975 H 0.69688 0.47231 0.94795 0.0
C976 C 0.37163 0.00963 0.18547 0.0
C977 C 0.3459 0.00628 0.16706 0.0
C978 C 0.36919 0.98904 0.20657 0.0
C979 C 0.34086 0.96375 0.20905 0.0
C980 C 0.31786 0.95674 0.18921 0.0
C981 C 0.3205 0.9783 0.1684 0.0
C982 C 0.39468 -0.00281 0.22715 0.0
C983 C 0.28843 0.92881 0.19067 0.0
C984 C 0.35255 0.91297 0.26749 0.0
C985 C 0.33296 0.93492 0.28339 0.0
C986 C 0.35213 0.91937 0.24252 0.0
C987 C 0.33269 0.94917 0.23347 0.0
C988 C 0.3102 0.96924 0.24921 0.0
C989 C 0.31027 0.96153 0.27402 0.0
C990 C 0.37503 0.89622 0.22623 0.0
C991 C 0.28902 0.00131 0.24033 0.0
H992 H 0.39182 0.03068 0.18437 0.0
H993 H 0.30069 0.97514 0.15417 0.0
H994 H 0.37953 0.00984 0.24221 0.0
H995 H 0.40686 0.97204 0.23415 0.0
H996 H 0.41673 0.01572 0.22169 0.0
H997 H 0.27985 0.91983 0.17241 0.0
H998 H 0.29728 0.90501 0.20122 0.0
H999 H 0.26467 0.94055 0.1999 0.0
H1000 H 0.3698 0.89203 0.27471 0.0
H1001 H 0.29518 0.97856 0.28629 0.0
H1002 H 0.40126 0.90972 0.22305 0.0
H1003 H 0.36188 0.89217 0.20844 0.0
H1004 H 0.38045 0.86951 0.23449 0.0
H1005 H 0.3079 0.0232 0.23519 0.0
H1006 H 0.27027 0.01183 0.25427 0.0
H1007 H 0.27324 0.99411 0.22402 0.0
C1008 C 0.2302 0.42661 0.57808 0.0
C1009 C 0.25794 0.40102 0.57973 0.0
C1010 C 0.20802 0.42825 0.55751 0.0
C1011 C 0.21409 0.40396 0.53824 0.0
C1012 C 0.23917 0.37556 0.54114 0.0
C1013 C 0.26051 0.37426 0.56196 0.0
C1014 C 0.1805 0.45795 0.55559 0.0
C1015 C 0.24622 0.34866 0.52121 0.0
C1016 C 0.16119 0.38908 0.48098 0.0
C1017 C 0.18329 0.40671 0.46414 0.0
C1018 C 0.16832 0.39127 0.50582 0.0
C1019 C 0.19879 0.41076 0.51384 0.0
C1020 C 0.21882 0.43166 0.49712 0.0
C1021 C 0.21055 0.42967 0.47243 0.0
C1022 C 0.14529 0.36997 0.52313 0.0
C1023 C 0.25145 0.45301 0.50492 0.0
H1024 H 0.22771 0.44727 0.59182 0.0
H1025 H 0.28141 0.35398 0.56332 0.0
H1026 H 0.19236 0.48097 0.5456 0.0
H1027 H 0.15625 0.44886 0.54557 0.0
H1028 H 0.17216 0.46773 0.57371 0.0
H1029 H 0.26452 0.32668 0.52706 0.0
H1030 H 0.22062 0.33651 0.51489 0.0
H1031 H 0.2587 0.3626 0.50557 0.0
H1032 H 0.13967 0.37172 0.47465 0.0
H1033 H 0.22765 0.44341 0.45951 0.0
H1034 H 0.14202 0.38444 0.54053 0.0
H1035 H 0.15847 0.34381 0.52698 0.0
H1036 H 0.11822 0.3644 0.51541 0.0
H1037 H 0.24504 0.46982 0.5209 0.0
H1038 H 0.26165 0.47079 0.49031 0.0
H1039 H 0.27333 0.43423 0.51018 0.0
C1040 C 0.86224 0.93689 0.22824 0.0
C1041 C 0.83699 0.94769 0.2108 0.0
C1042 C 0.85937 0.9484 0.2523 0.0
C1043 C 0.83091 0.97166 0.25893 0.0
C1044 C 0.80351 0.97977 0.24196 0.0
C1045 C 0.80676 0.96748 0.21809 0.0
C1046 C 0.88856 0.93825 0.27 0.0
C1047 C 0.77258 0.00437 0.24834 0.0
C1048 C 0.81338 0.00523 0.32281 0.0
C1049 C 0.82926 0.0395 0.32179 0.0
C1050 C 0.81527 0.98167 0.30293 0.0
C1051 C 0.83329 0.99287 0.28167 0.0
C1052 C 0.85152 0.02635 0.28131 0.0
C1053 C 0.8494 0.04911 0.30138 0.0
C1054 C 0.79614 0.94588 0.30419 0.0
C1055 C 0.87141 0.03928 0.25912 0.0
H1056 H 0.88537 0.92101 0.22284 0.0
H1057 H 0.78702 0.97575 0.20478 0.0
H1058 H 0.90743 0.9612 0.27217 0.0
H1059 H 0.87697 0.93223 0.28802 0.0
H1060 H 0.90418 0.91452 0.26373 0.0
H1061 H 0.75119 0.00414 0.23431 0.0
H1062 H 0.7605 -0.00352 0.26587 0.0
H1063 H 0.78273 0.03235 0.25025 0.0
H1064 H 0.79772 -0.00239 0.33852 0.0
H1065 H 0.86215 0.07536 0.30059 0.0
H1066 H 0.81249 0.92435 0.29567 0.0
H1067 H 0.77035 0.94763 0.29413 0.0
H1068 H 0.79003 0.93805 0.32311 0.0
H1069 H 0.89138 0.01888 0.25326 0.0
H1070 H 0.88571 0.06514 0.26226 0.0
H1071 H 0.85207 0.0431 0.24405 0.0
C1072 C 0.22842 0.6191 0.0604 0.0
C1073 C 0.23265 0.59372 0.07891 0.0
C1074 C 0.24958 0.6176 0.0395 0.0
C1075 C 0.276 0.59032 0.03718 0.0
C1076 C 0.28326 0.5673 0.05695 0.0
C1077 C 0.26138 0.56919 0.07764 0.0
C1078 C 0.24124 0.64315 0.01902 0.0
C1079 C 0.31197 0.53866 0.05554 0.0
C1080 C 0.28238 0.56317 0.97169 0.0
C1081 C 0.30891 0.58702 0.96347 0.0
C1082 C 0.27356 0.5614 0.9963 0.0
C1083 C 0.29218 0.58357 0.01302 0.0
C1084 C 0.32201 0.60413 0.00517 0.0
C1085 C 0.32984 0.60589 0.98041 0.0
C1086 C 0.24174 0.53877 0.00396 0.0
C1087 C 0.34345 0.62704 0.0225 0.0
H1088 H 0.20666 0.6385 0.06141 0.0
H1089 H 0.26501 0.54953 0.09189 0.0
H1090 H 0.26624 0.65626 0.01247 0.0
H1091 H 0.22953 0.62788 0.00367 0.0
H1092 H 0.22185 0.66447 0.0244 0.0
H1093 H 0.32047 0.52967 0.0738 0.0
H1094 H 0.30117 0.51496 0.04571 0.0
H1095 H 0.33596 0.54845 0.04555 0.0
H1096 H 0.26619 0.54843 0.95872 0.0
H1097 H 0.35083 0.62395 0.97418 0.0
H1098 H 0.21875 0.55666 0.00844 0.0
H1099 H 0.24831 0.52305 0.0204 0.0
H1100 H 0.23306 0.51986 0.98954 0.0
H1101 H 0.32855 0.65232 0.02619 0.0
H1102 H 0.37022 0.63426 0.01494 0.0
H1103 H 0.3474 0.61297 0.03998 0.0
C1104 C 0.69303 0.0314 0.72254 0.0
C1105 C 0.66288 0.05222 0.71646 0.0
C1106 C 0.69757 0.01835 0.74613 0.0
C1107 C 0.67147 0.02659 0.76396 0.0
C1108 C 0.64377 0.05146 0.75866 0.0
C1109 C 0.63973 0.06394 0.73492 0.0
C1110 C 0.72796 0.99246 0.75118 0.0
C1111 C 0.61603 0.06179 0.77733 0.0
C1112 C 0.65017 0.94659 0.80356 0.0
C1113 C 0.67057 0.95384 0.82428 0.0
C1114 C 0.64901 0.97096 0.78433 0.0
C1115 C 0.66875 0.00354 0.78582 0.0
C1116 C 0.68743 0.01222 0.80734 0.0
C1117 C 0.68814 0.98718 0.8264 0.0
C1118 C 0.62823 0.9608 0.76185 0.0
C1119 C 0.70842 0.04683 0.80976 0.0
H1120 H 0.71133 0.02256 0.70849 0.0
H1121 H 0.61678 0.08074 0.7305 0.0
H1122 H 0.74063 -0.00159 0.76887 0.0
H1123 H 0.71711 0.96463 0.75199 0.0
H1124 H 0.74902 0.99345 0.73694 0.0
H1125 H 0.60141 0.08672 0.77216 0.0
H1126 H 0.59606 0.03971 0.77913 0.0
H1127 H 0.62872 0.06588 0.79526 0.0
H1128 H 0.6362 0.92105 0.80192 0.0
H1129 H 0.7041 0.99291 0.84234 0.0
H1130 H 0.64713 0.95743 0.74648 0.0
H1131 H 0.60907 0.9825 0.75697 0.0
H1132 H 0.61286 0.93535 0.76411 0.0
H1133 H 0.73437 0.04417 0.79999 0.0
H1134 H 0.7144 0.05321 0.82895 0.0
H1135 H 0.69357 0.06973 0.80164 0.0
C1136 C 0.45415 0.17993 0.12745 0.0
C1137 C 0.42448 0.18461 0.1121 0.0
C1138 C 0.48388 0.20318 0.12623 0.0
C1139 C 0.48369 0.23189 0.10941 0.0
C1140 C 0.45447 0.23597 0.0933 0.0
C1141 C 0.42532 0.21215 0.09473 0.0
C1142 C 0.51497 0.19773 0.14343 0.0
C1143 C 0.45333 0.26636 0.07518 0.0
C1144 C 0.54166 0.31266 0.12502 0.0
C1145 C 0.5721 0.30656 0.11062 0.0
C1146 C 0.51226 0.28894 0.12438 0.0
C1147 C 0.51359 0.25831 0.10917 0.0
C1148 C 0.54374 0.25257 0.0941 0.0
C1149 C 0.57254 0.27689 0.09489 0.0
C1150 C 0.48016 0.29616 0.14042 0.0
C1151 C 0.54614 0.22008 0.07775 0.0
H1152 H 0.45378 0.15867 0.14086 0.0
H1153 H 0.40254 0.21605 0.08277 0.0
H1154 H 0.54068 0.19619 0.13327 0.0
H1155 H 0.51698 0.22108 0.15586 0.0
H1156 H 0.51195 0.17286 0.15438 0.0
H1157 H 0.4294 0.26475 0.06317 0.0
H1158 H 0.45271 0.29254 0.08482 0.0
H1159 H 0.47794 0.26614 0.06384 0.0
H1160 H 0.54107 0.33555 0.13716 0.0
H1161 H 0.59598 0.27184 0.08373 0.0
H1162 H 0.4773 0.27414 0.15381 0.0
H1163 H 0.45511 0.29668 0.12949 0.0
H1164 H 0.48258 0.32209 0.15029 0.0
H1165 H 0.54597 0.19514 0.08878 0.0
H1166 H 0.57091 0.22026 0.0665 0.0
H1167 H 0.52237 0.2189 0.06564 0.0
C1168 C 0.52985 0.67984 0.3455 0.0
C1169 C 0.55173 0.67061 0.36521 0.0
C1170 C 0.50925 0.71129 0.3457 0.0
C1171 C 0.5112 0.73448 0.36587 0.0
C1172 C 0.53435 0.7262 0.38542 0.0
C1173 C 0.55412 0.69403 0.38499 0.0
C1174 C 0.48441 0.71898 0.32469 0.0
C1175 C 0.53763 0.75093 0.40695 0.0
C1176 C 0.47698 0.82898 0.35539 0.0
C1177 C 0.44275 0.82735 0.36603 0.0
C1178 C 0.50003 0.79921 0.35585 0.0
C1179 C 0.4881 0.76686 0.36665 0.0
C1180 C 0.45338 0.76488 0.37715 0.0
C1181 C 0.43123 0.7954 0.37699 0.0
C1182 C 0.53716 0.8024 0.34489 0.0
C1183 C 0.43951 0.73045 0.3883 0.0
H1184 H 0.52761 0.66174 0.33021 0.0
H1185 H 0.5711 0.68703 0.4002 0.0
H1186 H 0.4561 0.71993 0.3311 0.0
H1187 H 0.49069 0.74567 0.31677 0.0
H1188 H 0.48646 0.69833 0.31024 0.0
H1189 H 0.55873 0.74187 0.41981 0.0
H1190 H 0.54414 0.77867 0.40091 0.0
H1191 H 0.51153 0.75219 0.41665 0.0
H1192 H 0.48618 0.8539 0.34726 0.0
H1193 H 0.40477 0.79419 0.38523 0.0
H1194 H 0.53986 0.78344 0.32953 0.0
H1195 H 0.55789 0.79493 0.35843 0.0
H1196 H 0.54292 0.83006 0.3383 0.0
H1197 H 0.43928 0.70869 0.37456 0.0
H1198 H 0.41185 0.73346 0.39568 0.0
H1199 H 0.45766 0.72171 0.40308 0.0
C1200 C 0.95593 0.67741 0.62565 0.0
C1201 C 0.92609 0.68256 0.61052 0.0
C1202 C 0.98531 0.70114 0.62499 0.0
C1203 C 0.98461 0.73083 0.60897 0.0
C1204 C 0.95524 0.73543 0.59303 0.0
C1205 C 0.92643 0.71111 0.59389 0.0
C1206 C 0.01657 0.6951 0.64197 0.0
C1207 C 0.95356 0.76685 0.57576 0.0
C1208 C 0.04188 0.81111 0.62685 0.0
C1209 C 0.07246 0.8061 0.61239 0.0
C1210 C 0.01262 0.78727 0.62547 0.0
C1211 C 0.01419 0.75765 0.60939 0.0
C1212 C 0.04443 0.75309 0.59422 0.0
C1213 C 0.0731 0.77748 0.5958 0.0
C1214 C 0.98045 0.79321 0.64167 0.0
C1215 C 0.04708 0.72173 0.57693 0.0
H1216 H 0.95595 0.65537 0.63847 0.0
H1217 H 0.90349 0.71541 0.58213 0.0
H1218 H 0.04224 0.69446 0.63172 0.0
H1219 H 0.01836 0.71775 0.65498 0.0
H1220 H 0.01393 0.66959 0.65228 0.0
H1221 H 0.92966 0.76555 0.56372 0.0
H1222 H 0.95251 0.79242 0.5861 0.0
H1223 H 0.97817 0.76774 0.56442 0.0
H1224 H 0.0411 0.83318 0.63966 0.0
H1225 H 0.0966 0.7733 0.58453 0.0
H1226 H 0.97787 0.77042 0.6545 0.0
H1227 H 0.95538 0.79402 0.63077 0.0
H1228 H 0.98257 0.8186 0.65218 0.0
H1229 H 0.04735 0.6961 0.58722 0.0
H1230 H 0.07175 0.72296 0.5656 0.0
H1231 H 0.02322 0.72101 0.56488 0.0
C1232 C 0.93563 0.29574 0.88511 0.0
C1233 C 0.9463 0.32299 0.86916 0.0
C1234 C 0.9542 0.26291 0.88593 0.0
C1235 C 0.98457 0.25778 0.87087 0.0
C1236 C -0.00432 0.28539 0.85494 0.0
C1237 C 0.97612 0.31753 0.85408 0.0
C1238 C 0.94118 0.23362 0.90271 0.0
C1239 C 0.02835 0.28108 0.83894 0.0
C1240 C 0.05227 0.18528 0.88692 0.0
C1241 C 0.04351 0.1585 0.8701 0.0
C1242 C 0.03321 0.21786 0.88745 0.0
C1243 C 0.00429 0.22318 0.87117 0.0
C1244 C 0.99494 0.19592 0.85448 0.0
C1245 C 0.01495 0.16405 0.85396 0.0
C1246 C 0.04434 0.24677 0.90513 0.0
C1247 C 0.9638 0.20041 0.83716 0.0
H1248 H 0.91253 0.29996 0.89675 0.0
H1249 H 0.98474 0.33877 0.84196 0.0
H1250 H 0.9346 0.20906 0.89217 0.0
H1251 H 0.96279 0.2263 0.91563 0.0
H1252 H 0.91694 0.24184 0.91309 0.0
H1253 H 0.03421 0.30576 0.82831 0.0
H1254 H 0.05232 0.2745 0.85006 0.0
H1255 H 0.02416 0.25839 0.82621 0.0
H1256 H 0.07437 0.18099 0.89939 0.0
H1257 H 0.00778 0.14314 0.84116 0.0
H1258 H 0.02135 0.25394 0.91697 0.0
H1259 H 0.05217 0.2715 0.89518 0.0
H1260 H 0.06732 0.23827 0.91665 0.0
H1261 H 0.93884 0.20694 0.84728 0.0
H1262 H 0.95892 0.17583 0.8262 0.0
H1263 H 0.9692 0.2232 0.82474 0.0
C1264 C 0.55601 0.8012 0.85506 0.0
C1265 C 0.58214 0.79009 0.8717 0.0
C1266 C 0.52278 0.78326 0.85352 0.0
C1267 C 0.51626 0.75299 0.86846 0.0
C1268 C 0.54311 0.74104 0.88469 0.0
C1269 C 0.57552 0.76007 0.88636 0.0
C1270 C 0.49432 0.79725 0.83646 0.0
C1271 C 0.53748 0.70838 0.90051 0.0
C1272 C 0.4221 0.7264 0.88712 0.0
C1273 C 0.41494 0.69757 0.87152 0.0
C1274 C 0.45441 0.74562 0.88556 0.0
C1275 C 0.48061 0.73505 0.86844 0.0
C1276 C 0.47352 0.706 0.85254 0.0
C1277 C 0.44038 0.68787 0.85404 0.0
C1278 C 0.46067 0.77698 0.90244 0.0
C1279 C 0.50128 0.69345 0.8345 0.0
H1280 H 0.56124 0.82439 0.84371 0.0
H1281 H 0.59603 0.75105 0.89893 0.0
H1282 H 0.48534 0.77554 0.82409 0.0
H1283 H 0.47039 0.80605 0.84692 0.0
H1284 H 0.50411 0.82031 0.8255 0.0
H1285 H 0.56219 0.70094 0.91067 0.0
H1286 H 0.51561 0.71372 0.91368 0.0
H1287 H 0.52902 0.685 0.88938 0.0
H1288 H 0.40211 0.73435 0.90037 0.0
H1289 H 0.43473 0.6656 0.84196 0.0
H1290 H 0.4687 0.80122 0.89204 0.0
H1291 H 0.48303 0.77063 0.91502 0.0
H1292 H 0.43636 0.78357 0.91328 0.0
H1293 H 0.50978 0.71613 0.8228 0.0
H1294 H 0.49106 0.67129 0.82288 0.0
H1295 H 0.52561 0.68384 0.84419 0.0
C1296 C 0.42845 0.29049 0.61709 0.0
C1297 C 0.43815 0.32149 0.62999 0.0
C1298 C 0.45039 0.25972 0.61748 0.0
C1299 C 0.48308 0.26036 0.63066 0.0
C1300 C 0.49293 0.29152 0.64377 0.0
C1301 C 0.47017 0.32156 0.64348 0.0
C1302 C 0.43868 0.22661 0.60372 0.0
C1303 C 0.52785 0.29338 0.65774 0.0
C1304 C 0.52526 0.17216 0.64995 0.0
C1305 C 0.55108 0.16661 0.6318 0.0
C1306 C 0.50284 0.20244 0.64968 0.0
C1307 C 0.50681 0.22822 0.6311 0.0
C1308 C 0.53344 0.22335 0.61308 0.0
C1309 C 0.55506 0.19234 0.6135 0.0
C1310 C 0.47437 0.20642 0.66899 0.0
C1311 C 0.5389 0.25076 0.59328 0.0
H1312 H 0.40374 0.2903 0.60665 0.0
H1313 H 0.4781 0.34558 0.65326 0.0
H1314 H 0.45886 0.22002 0.58963 0.0
H1315 H 0.43715 0.20319 0.61611 0.0
H1316 H 0.41203 0.23019 0.59491 0.0
H1317 H 0.53182 0.31989 0.66665 0.0
H1318 H 0.52841 0.27209 0.67178 0.0
H1319 H 0.5509 0.28837 0.64544 0.0
H1320 H 0.5217 0.15219 0.66401 0.0
H1321 H 0.57497 0.18819 0.59945 0.0
H1322 H 0.44731 0.20784 0.66053 0.0
H1323 H 0.4785 0.2319 0.67907 0.0
H1324 H 0.47461 0.18374 0.68205 0.0
H1325 H 0.51404 0.25308 0.58228 0.0
H1326 H 0.56163 0.2436 0.58115 0.0
H1327 H 0.54424 0.27764 0.60126 0.0
C1328 C 0.05064 0.30679 0.35586 0.0
C1329 C 0.0768 0.29674 0.37277 0.0
C1330 C 0.01742 0.2887 0.35483 0.0
C1331 C 0.01099 0.25929 0.37055 0.0
C1332 C 0.03787 0.24844 0.38711 0.0
C1333 C 0.07022 0.26765 0.38826 0.0
C1334 C 0.98894 0.30154 0.3374 0.0
C1335 C 0.03241 0.21664 0.40373 0.0
C1336 C 0.91672 0.23196 0.38881 0.0
C1337 C 0.91031 0.2025 0.37359 0.0
C1338 C 0.94886 0.25154 0.3873 0.0
C1339 C 0.97564 0.2407 0.37065 0.0
C1340 C 0.9694 0.21087 0.35527 0.0
C1341 C 0.93647 0.1924 0.35668 0.0
C1342 C 0.95422 0.28371 0.40362 0.0
C1343 C -0.0022 0.19797 0.33779 0.0
H1344 H 0.05583 0.32928 0.34388 0.0
H1345 H 0.09075 0.25945 0.40106 0.0
H1346 H 0.9806 0.27923 0.3253 0.0
H1347 H 0.96466 0.31017 0.34755 0.0
H1348 H -0.00159 0.32442 0.32615 0.0
H1349 H 0.05701 0.21017 0.4143 0.0
H1350 H 0.01018 0.22236 0.41655 0.0
H1351 H 0.02455 0.19251 0.39313 0.0
H1352 H 0.89622 0.24019 0.40162 0.0
H1353 H 0.93145 0.16962 0.34489 0.0
H1354 H 0.96189 0.30765 0.3928 0.0
H1355 H 0.97656 0.27837 0.41644 0.0
H1356 H 0.92964 0.29023 0.41419 0.0
H1357 H 0.00586 0.22014 0.32552 0.0
H1358 H 0.98838 0.17485 0.32672 0.0
H1359 H 0.02224 0.18964 0.34789 0.0
C1360 C 0.06082 0.70089 0.11735 0.0
C1361 C 0.05643 0.67247 0.13374 0.0
C1362 C 0.0381 0.73104 0.11811 0.0
C1363 C 0.01014 0.73251 0.13548 0.0
C1364 C 0.00617 0.7044 0.15246 0.0
C1365 C 0.02951 0.67485 0.15149 0.0
C1366 C 0.04344 0.76091 0.09997 0.0
C1367 C 0.9765 0.70494 0.17112 0.0
C1368 C 0.96789 0.82307 0.14895 0.0
C1369 C 0.93746 0.82253 0.13389 0.0
C1370 C 0.99164 0.79382 0.1498 0.0
C1371 C 0.98449 0.76308 0.13553 0.0
C1372 C 0.95312 0.76173 0.121 0.0
C1373 C 0.93006 0.79161 0.12023 0.0
C1374 C 0.02498 0.79629 0.16536 0.0
C1375 C 0.94434 0.72905 0.10587 0.0
H1376 H 0.08159 0.69931 0.10364 0.0
H1377 H 0.02577 0.65298 0.1642 0.0
H1378 H 0.01947 0.76285 0.08807 0.0
H1379 H 0.04626 0.78713 0.1094 0.0
H1380 H 0.06761 0.75658 0.08851 0.0
H1381 H 0.97783 0.6815 0.18354 0.0
H1382 H 0.978 0.72998 0.18199 0.0
H1383 H 0.94989 0.70478 0.16198 0.0
H1384 H 0.97399 0.84693 0.15947 0.0
H1385 H 0.90656 0.79096 0.10862 0.0
H1386 H 0.04937 0.79474 0.15382 0.0
H1387 H 0.02607 0.77327 0.17809 0.0
H1388 H 0.02606 0.82171 0.17592 0.0
H1389 H 0.96566 0.72494 0.09211 0.0
H1390 H 0.91801 0.7316 0.09649 0.0
H1391 H 0.94371 0.7046 0.11738 0.0
C1392 C 0.25901 0.26995 0.10019 0.0
C1393 C 0.24929 0.24606 0.11869 0.0
C1394 C 0.24791 0.30603 0.10079 0.0
C1395 C 0.22673 0.31837 0.12036 0.0
C1396 C 0.21718 0.29453 0.13919 0.0
C1397 C 0.22846 0.25866 0.13809 0.0
C1398 C 0.25839 0.33081 0.08035 0.0
C1399 C 0.1946 0.30677 0.16036 0.0
C1400 C 0.21643 0.41835 0.13269 0.0
C1401 C 0.18256 0.42513 0.12246 0.0
C1402 C 0.23158 0.38374 0.13181 0.0
C1403 C 0.21235 0.35552 0.12042 0.0
C1404 C 0.17839 0.36231 0.10985 0.0
C1405 C 0.16391 0.39697 0.11103 0.0
C1406 C 0.26786 0.37725 0.14332 0.0
C1407 C 0.15708 0.33284 0.09757 0.0
H1408 H 0.27526 0.26049 0.08523 0.0
H1409 H 0.22106 0.24052 0.15259 0.0
H1410 H 0.23387 0.3402 0.0708 0.0
H1411 H 0.27224 0.35501 0.08755 0.0
H1412 H 0.27639 0.31746 0.06706 0.0
H1413 H 0.19123 0.28535 0.17417 0.0
H1414 H 0.20711 0.33059 0.16908 0.0
H1415 H 0.16753 0.31504 0.15394 0.0
H1416 H 0.23102 0.43997 0.14148 0.0
H1417 H 0.13779 0.4019 0.10295 0.0
H1418 H 0.28671 0.36553 0.12991 0.0
H1419 H 0.26512 0.35747 0.15822 0.0
H1420 H 0.27991 0.40234 0.15069 0.0
H1421 H 0.17342 0.32026 0.08308 0.0
H1422 H 0.1316 0.34293 0.08952 0.0
H1423 H 0.1504 0.31141 0.11079 0.0
C1424 C 0.35548 0.40721 0.37654 0.0
C1425 C 0.32218 0.4232 0.37148 0.0
C1426 C 0.3877 0.42312 0.36884 0.0
C1427 C 0.38643 0.45527 0.3551 0.0
C1428 C 0.35283 0.4714 0.34976 0.0
C1429 C 0.32106 0.45545 0.35838 0.0
C1430 C 0.42284 0.40475 0.37493 0.0
C1431 C 0.35039 0.50475 0.33427 0.0
C1432 C 0.47031 0.51285 0.35585 0.0
C1433 C 0.48909 0.49955 0.33582 0.0
C1434 C 0.43646 0.49917 0.36204 0.0
C1435 C 0.42044 0.4726 0.34721 0.0
C1436 C 0.43853 0.4605 0.32615 0.0
C1437 C 0.47325 0.47352 0.32102 0.0
C1438 C 0.41891 0.51162 0.38521 0.0
C1439 C 0.42186 0.43286 0.30959 0.0
H1440 H 0.35636 0.38206 0.38647 0.0
H1441 H 0.29524 0.46739 0.35397 0.0
H1442 H 0.43121 0.38771 0.35947 0.0
H1443 H 0.4447 0.42445 0.37843 0.0
H1444 H 0.42007 0.387 0.39098 0.0
H1445 H 0.32208 0.51306 0.33093 0.0
H1446 H 0.36482 0.5274 0.34303 0.0
H1447 H 0.3637 0.4998 0.31663 0.0
H1448 H 0.48316 0.53244 0.36758 0.0
H1449 H 0.48816 0.46306 0.30572 0.0
H1450 H 0.41267 0.48812 0.39684 0.0
H1451 H 0.39307 0.52527 0.38116 0.0
H1452 H 0.43626 0.5305 0.39557 0.0
H1453 H 0.42324 0.40594 0.31819 0.0
H1454 H 0.43603 0.43146 0.29195 0.0
H1455 H 0.39302 0.43908 0.30633 0.0
C1456 C 0.27881 0.7404 0.63212 0.0
C1457 C 0.25383 0.752 0.61476 0.0
C1458 C 0.29068 0.70466 0.6327 0.0
C1459 C 0.27742 0.67994 0.61543 0.0
C1460 C 0.25282 0.69153 0.59753 0.0
C1461 C 0.24129 0.72748 0.5974 0.0
C1462 C 0.3171 0.69325 0.652 0.0
C1463 C 0.23839 0.66585 0.57871 0.0
C1464 C 0.33452 0.59744 0.60429 0.0
C1465 C 0.31671 0.57122 0.61814 0.0
C1466 C 0.3216 0.63272 0.60293 0.0
C1467 C 0.29015 0.64215 0.6158 0.0
C1468 C 0.27174 0.61587 0.62963 0.0
C1469 C 0.28523 0.58059 0.6306 0.0
C1470 C 0.34188 0.66002 0.58793 0.0
C1471 C 0.23814 0.62518 0.64365 0.0
H1472 H 0.28864 0.75909 0.64564 0.0
H1473 H 0.22191 0.73615 0.58397 0.0
H1474 H 0.30531 0.6713 0.66305 0.0
H1475 H 0.34195 0.68252 0.64352 0.0
H1476 H 0.32465 0.71581 0.66418 0.0
H1477 H 0.21958 0.6792 0.56594 0.0
H1478 H 0.26096 0.65402 0.56826 0.0
H1479 H 0.22403 0.64328 0.58764 0.0
H1480 H 0.35875 0.59048 0.59443 0.0
H1481 H 0.27131 0.56048 0.64129 0.0
H1482 H 0.35186 0.68209 0.59968 0.0
H1483 H 0.32364 0.67229 0.57437 0.0
H1484 H 0.36523 0.64797 0.57834 0.0
H1485 H 0.24443 0.64603 0.65738 0.0
H1486 H 0.22642 0.6014 0.65295 0.0
H1487 H 0.21753 0.63666 0.63136 0.0
C1488 C 0.00346 0.53924 0.85084 0.0
C1489 C -0.00342 0.50734 0.83805 0.0
C1490 C 0.03873 0.5508 0.85517 0.0
C1491 C 0.06785 0.53062 0.84582 0.0
C1492 C 0.06114 0.49973 0.83154 0.0
C1493 C 0.02549 0.48816 0.82805 0.0
C1494 C 0.04481 0.58376 0.87068 0.0
C1495 C 0.09159 0.47824 0.82068 0.0
C1496 C 0.15456 0.58354 0.84475 0.0
C1497 C 0.17156 0.57139 0.86581 0.0
C1498 C 0.12182 0.56876 0.83716 0.0
C1499 C 0.10519 0.54198 0.85144 0.0
C1500 C 0.12274 0.52885 0.87243 0.0
C1501 C 0.15623 0.54336 0.87917 0.0
C1502 C 0.10442 0.58278 0.81437 0.0
C1503 C 0.10539 0.50071 0.8883 0.0
H1504 H 0.98137 0.55412 0.85883 0.0
H1505 H 0.02033 0.46349 0.81817 0.0
H1506 H 0.05912 0.60473 0.86014 0.0
H1507 H 0.01922 0.59538 0.87755 0.0
H1508 H 0.06212 0.57684 0.88634 0.0
H1509 H 0.08174 0.45733 0.80793 0.0
H1510 H 0.11051 0.49628 0.81097 0.0
H1511 H 0.10702 0.46479 0.83525 0.0
H1512 H 0.16687 0.60489 0.83423 0.0
H1513 H 0.16958 0.53403 0.89541 0.0
H1514 H 0.08012 0.59868 0.81905 0.0
H1515 H 0.09556 0.56009 0.80276 0.0
H1516 H 0.12293 0.60024 0.80381 0.0
H1517 H 0.07875 0.51038 0.89466 0.0
H1518 H 0.12217 0.49403 0.90429 0.0
H1519 H 0.10064 0.47575 0.87778 0.0
C1520 C 0.79001 0.72575 0.91043 0.0
C1521 C 0.75454 0.7348 0.91669 0.0
C1522 C 0.7999 0.68991 0.9065 0.0
C1523 C 0.77393 0.66238 0.90955 0.0
C1524 C 0.73914 0.67094 0.91821 0.0
C1525 C 0.72975 0.70718 0.92158 0.0
C1526 C 0.83734 0.68184 0.89725 0.0
C1527 C 0.71115 0.64213 0.9224 0.0
C1528 C 0.79161 0.58134 0.86983 0.0
C1529 C 0.81208 0.56008 0.88545 0.0
C1530 C 0.7773 0.61423 0.87782 0.0
C1531 C 0.78293 0.62517 0.90209 0.0
C1532 C 0.80121 0.60223 0.91832 0.0
C1533 C 0.81609 0.57016 0.90968 0.0
C1534 C 0.75814 0.63826 0.85996 0.0
C1535 C 0.80694 0.61252 0.94443 0.0
H1536 H 0.80949 0.74682 0.90679 0.0
H1537 H 0.70236 0.71389 0.92663 0.0
H1538 H 0.8503 0.66079 0.90847 0.0
H1539 H 0.83562 0.6713 0.87852 0.0
H1540 H 0.85492 0.70606 0.8972 0.0
H1541 H 0.68786 0.6524 0.93294 0.0
H1542 H 0.70105 0.63221 0.90475 0.0
H1543 H 0.723 0.61882 0.93207 0.0
H1544 H 0.7887 0.57333 0.8511 0.0
H1545 H 0.83171 0.55327 0.92175 0.0
H1546 H 0.77316 0.66392 0.85792 0.0
H1547 H 0.73089 0.64508 0.86677 0.0
H1548 H 0.75544 0.62552 0.8419 0.0
H1549 H 0.82734 0.6343 0.94556 0.0
H1550 H 0.81649 0.58941 0.95543 0.0
H1551 H 0.78163 0.62298 0.95244 0.0
C1552 C 0.6689 0.52907 0.61654 0.0
C1553 C 0.67894 0.55957 0.62986 0.0
C1554 C 0.63378 0.51525 0.61805 0.0
C1555 C 0.60839 0.53228 0.63332 0.0
C1556 C 0.61861 0.56248 0.64724 0.0
C1557 C 0.65371 0.57581 0.64529 0.0
C1558 C 0.62359 0.48302 0.60289 0.0
C1559 C 0.59224 0.58128 0.66377 0.0
C1560 C 0.50965 0.52456 0.61769 0.0
C1561 C 0.49783 0.49818 0.63401 0.0
C1562 C 0.54562 0.53567 0.61723 0.0
C1563 C 0.5704 0.52018 0.63358 0.0
C1564 C 0.55868 0.49401 0.6504 0.0
C1565 C 0.52243 0.48328 0.65043 0.0
C1566 C 0.55716 0.56381 0.5991 0.0
C1567 C 0.58448 0.47717 0.66819 0.0
H1568 H 0.68828 0.51633 0.60466 0.0
H1569 H 0.66129 0.59918 0.65587 0.0
H1570 H 0.61181 0.46165 0.61444 0.0
H1571 H 0.60271 0.49086 0.58955 0.0
H1572 H 0.64701 0.47167 0.593 0.0
H1573 H 0.60513 0.6031 0.67445 0.0
H1574 H 0.57007 0.59314 0.65295 0.0
H1575 H 0.57995 0.56167 0.67643 0.0
H1576 H 0.49087 0.53628 0.60493 0.0
H1577 H 0.51355 0.46279 0.66303 0.0
H1578 H 0.57875 0.55289 0.58735 0.0
H1579 H 0.56842 0.58758 0.60861 0.0
H1580 H 0.53454 0.5729 0.58747 0.0
H1581 H 0.60658 0.46343 0.65835 0.0
H1582 H 0.57103 0.45729 0.68016 0.0
H1583 H 0.59699 0.49835 0.67957 0.0
C1584 C 0.69696 0.25807 0.40365 0.0
C1585 C 0.7313 0.2514 0.41326 0.0
C1586 C 0.68541 0.29319 0.39899 0.0
C1587 C 0.70823 0.32241 0.40485 0.0
C1588 C 0.74151 0.3161 0.41656 0.0
C1589 C 0.75288 0.28054 0.42041 0.0
C1590 C 0.64982 0.29883 0.38627 0.0
C1591 C 0.76591 0.34676 0.42385 0.0
C1592 C 0.69368 0.40547 0.36639 0.0
C1593 C 0.66882 0.42426 0.38051 0.0
C1594 C 0.70781 0.37256 0.37446 0.0
C1595 C 0.69765 0.35922 0.39749 0.0
C1596 C 0.67429 0.37945 0.41236 0.0
C1597 C 0.65962 0.41147 0.40348 0.0
C1598 C 0.73231 0.35134 0.35799 0.0
C1599 C 0.66376 0.36667 0.43727 0.0
H1600 H 0.68002 0.2358 0.39806 0.0
H1601 H 0.77936 0.27558 0.42796 0.0
H1602 H 0.63225 0.31675 0.3971 0.0
H1603 H 0.65444 0.31224 0.36863 0.0
H1604 H 0.63525 0.27315 0.38299 0.0
H1605 H 0.78781 0.33771 0.4361 0.0
H1606 H 0.77837 0.35869 0.4075 0.0
H1607 H 0.75032 0.36831 0.43296 0.0
H1608 H 0.70074 0.41568 0.34867 0.0
H1609 H 0.64075 0.42655 0.41449 0.0
H1610 H 0.72088 0.32415 0.35475 0.0
H1611 H 0.75891 0.34758 0.36673 0.0
H1612 H 0.73641 0.36481 0.3403 0.0
H1613 H 0.64592 0.34281 0.43576 0.0
H1614 H 0.64935 0.38779 0.44768 0.0
H1615 H 0.68798 0.35831 0.44759 0.0
C1616 C 0.83977 0.421 0.15119 0.0
C1617 C 0.81746 0.43365 0.13256 0.0
C1618 C 0.87455 0.43463 0.1544 0.0
C1619 C 0.88746 0.46137 0.13847 0.0
C1620 C 0.86479 0.47513 0.12008 0.0
C1621 C 0.82987 0.46118 0.1174 0.0
C1622 C 0.89788 0.41951 0.17433 0.0
C1623 C 0.87788 0.50359 0.10271 0.0
C1624 C 0.97252 0.51272 0.15458 0.0
C1625 C -0.00169 0.49425 0.14083 0.0
C1626 C 0.93621 0.50219 0.15419 0.0
C1627 C 0.92569 0.47254 0.13976 0.0
C1628 C 0.95177 0.45315 0.12647 0.0
C1629 C 0.98775 0.46419 0.12721 0.0
C1630 C 0.90902 0.52323 0.16873 0.0
C1631 C 0.94155 0.42116 0.11103 0.0
H1632 H 0.83018 0.4001 0.16324 0.0
H1633 H 0.81268 0.47115 0.10307 0.0
H1634 H 0.92076 0.40444 0.16635 0.0
H1635 H 0.90942 0.44163 0.18536 0.0
H1636 H 0.88272 0.40107 0.18642 0.0
H1637 H 0.85613 0.51328 0.09058 0.0
H1638 H 0.88903 0.5269 0.11278 0.0
H1639 H 0.89996 0.49247 0.09146 0.0
H1640 H 0.98046 0.53605 0.16507 0.0
H1641 H 0.00752 0.44963 0.11663 0.0
H1642 H 0.8939 0.50493 0.18089 0.0
H1643 H 0.88913 0.53588 0.15643 0.0
H1644 H 0.92182 0.54468 0.17979 0.0
H1645 H 0.92816 0.40035 0.12224 0.0
H1646 H 0.96524 0.40878 0.10201 0.0
H1647 H 0.92205 0.42958 0.09694 0.0
C1648 C 0.73436 0.75595 0.63886 0.0
C1649 C 0.75165 0.74282 0.61811 0.0
C1650 C 0.72268 0.79167 0.64025 0.0
C1651 C 0.72808 0.8148 0.62031 0.0
C1652 C 0.7459 0.80199 0.59941 0.0
C1653 C 0.75763 0.76608 0.59858 0.0
C1654 C 0.7039 0.80442 0.6629 0.0
C1655 C 0.75188 0.82597 0.57777 0.0
C1656 C 0.66059 0.89042 0.61561 0.0
C1657 C 0.67985 0.91961 0.62528 0.0
C1658 C 0.67644 0.85649 0.61324 0.0
C1659 C 0.71245 0.85148 0.62079 0.0
C1660 C 0.7324 0.88086 0.63012 0.0
C1661 C 0.71584 0.91471 0.63223 0.0
C1662 C 0.65429 0.82577 0.60319 0.0
C1663 C 0.77086 0.87631 0.63842 0.0
H1664 H 0.73002 0.73835 0.65419 0.0
H1665 H 0.77115 0.75618 0.58256 0.0
H1666 H 0.71702 0.82916 0.66989 0.0
H1667 H 0.67551 0.81132 0.65871 0.0
H1668 H 0.70407 0.78374 0.6774 0.0
H1669 H 0.7681 0.81257 0.56352 0.0
H1670 H 0.72553 0.83384 0.56994 0.0
H1671 H 0.76579 0.8511 0.58332 0.0
H1672 H 0.63285 0.89393 0.60998 0.0
H1673 H 0.73092 0.93715 0.63963 0.0
H1674 H 0.65057 0.80485 0.61726 0.0
H1675 H 0.66857 0.81298 0.58783 0.0
H1676 H 0.6273 0.83466 0.59691 0.0
H1677 H 0.77176 0.85768 0.65406 0.0
H1678 H 0.78336 0.90228 0.64382 0.0
H1679 H 0.7873 0.86407 0.62384 0.0
C1680 C 0.84479 0.93775 0.87834 0.0
C1681 C 0.82713 0.9117 0.86448 0.0
C1682 C 0.87814 0.95167 0.8708 0.0
C1683 C 0.89313 0.94005 0.84855 0.0
C1684 C 0.87418 0.91532 0.83391 0.0
C1685 C 0.84166 0.90099 0.84226 0.0
C1686 C 0.89797 0.97767 0.88704 0.0
C1687 C 0.88875 0.90313 0.80979 0.0
C1688 C 0.97157 -0.00458 0.8252 0.0
C1689 C 0.00094 0.9753 0.83367 0.0
C1690 C 0.93612 0.98349 0.82889 0.0
C1691 C 0.9301 0.9511 0.84171 0.0
C1692 C 0.95963 0.92965 0.84899 0.0
C1693 C 0.99469 0.94174 0.84453 0.0
C1694 C 0.90519 0.00641 0.82016 0.0
C1695 C 0.95426 0.89494 0.86277 0.0
H1696 H 0.83335 0.94596 0.89549 0.0
H1697 H 0.82752 0.88119 0.83139 0.0
H1698 H 0.92519 0.96709 0.89129 0.0
H1699 H 0.9017 0.00374 0.87761 0.0
H1700 H 0.88343 0.98265 0.90425 0.0
H1701 H 0.86866 0.88728 0.79937 0.0
H1702 H 0.89713 0.92668 0.79882 0.0
H1703 H 0.91296 0.88615 0.81259 0.0
H1704 H 0.9762 0.0213 0.8167 0.0
H1705 H 0.01716 0.92597 0.85117 0.0
H1706 H 0.89182 0.0193 0.83584 0.0
H1707 H 0.88473 0.98958 0.81087 0.0
H1708 H 0.91429 0.0279 0.80761 0.0
H1709 H 0.93863 0.90018 0.87948 0.0
H1710 H 0.98017 0.88205 0.86785 0.0
H1711 H 0.9385 0.87564 0.85173 0.0
C1712 C 0.78295 0.07938 0.12735 0.0
C1713 C 0.81415 0.06977 0.11465 0.0
C1714 C 0.76945 0.11463 0.12625 0.0
C1715 C 0.78759 0.14066 0.11206 0.0
C1716 C 0.81868 0.13097 0.09888 0.0
C1717 C 0.8316 0.09569 0.10035 0.0
C1718 C 0.73621 0.12419 0.14057 0.0
C1719 C 0.83869 0.15804 0.08354 0.0
C1720 C 0.7385 0.22614 0.09431 0.0
C1721 C 0.75151 0.25055 0.11157 0.0
C1722 C 0.75 0.19018 0.09422 0.0
C1723 C 0.77508 0.17851 0.11179 0.0
C1724 C 0.7888 0.20313 0.12897 0.0
C1725 C 0.7769 0.23886 0.12863 0.0
C1726 C 0.73502 0.16459 0.07555 0.0
C1727 C 0.81576 0.19163 0.1479 0.0
H1728 H 0.76929 0.05951 0.13838 0.0
H1729 H 0.85561 0.08852 0.09032 0.0
H1730 H 0.74297 0.14494 0.15426 0.0
H1731 H 0.71545 0.1359 0.12849 0.0
H1732 H 0.72447 0.1005 0.14995 0.0
H1733 H 0.86161 0.14575 0.07363 0.0
H1734 H 0.82012 0.17045 0.07024 0.0
H1735 H 0.84926 0.18004 0.09511 0.0
H1736 H 0.7188 0.2349 0.08111 0.0
H1737 H 0.78714 0.25749 0.14205 0.0
H1738 H 0.72078 0.14207 0.08462 0.0
H1739 H 0.75729 0.15267 0.06486 0.0
H1740 H 0.71598 0.17803 0.06298 0.0
H1741 H 0.80421 0.16975 0.15913 0.0
H1742 H 0.82379 0.21417 0.15996 0.0
H1743 H 0.84029 0.18076 0.1391 0.0
C1744 C 0.51443 -0.00461 0.33438 0.0
C1745 C 0.4886 0.01243 0.34895 0.0
C1746 C 0.55057 0.00654 0.33471 0.0
C1747 C 0.56099 0.03512 0.3501 0.0
C1748 C 0.53473 0.05364 0.36381 0.0
C1749 C 0.49884 0.04227 0.3629 0.0
C1750 C 0.57781 0.98677 0.31943 0.0
C1751 C 0.54478 0.0844 0.38038 0.0
C1752 C 0.65516 0.04363 0.37586 0.0
C1753 C 0.66789 0.07359 0.36316 0.0
C1754 C 0.62083 0.02951 0.37096 0.0
C1755 C 0.59939 0.04538 0.35263 0.0
C1756 C 0.61332 0.07397 0.33865 0.0
C1757 C 0.64727 0.08799 0.34426 0.0
C1758 C 0.60663 -0.00086 0.38637 0.0
C1759 C 0.59162 0.09108 0.31864 0.0
H1760 H 0.50678 0.97237 0.32348 0.0
H1761 H 0.4791 0.05579 0.37412 0.0
H1762 H 0.59468 0.00612 0.30919 0.0
H1763 H 0.59609 0.97109 0.33127 0.0
H1764 H 0.5648 0.96796 0.30648 0.0
H1765 H 0.52093 0.09652 0.38936 0.0
H1766 H 0.56358 0.07468 0.39453 0.0
H1767 H 0.55893 0.10577 0.37009 0.0
H1768 H 0.67117 0.0325 0.39042 0.0
H1769 H 0.65744 0.11081 0.33412 0.0
H1770 H 0.59565 0.97731 0.37485 0.0
H1771 H 0.58422 0.00918 0.3978 0.0
H1772 H 0.62773 0.98769 0.39834 0.0
H1773 H 0.57964 0.07013 0.30681 0.0
H1774 H 0.60818 0.10948 0.30737 0.0
H1775 H 0.5691 0.10677 0.32653 0.0
C1776 C 0.21804 0.2121 0.41844 0.0
C1777 C 0.24458 0.2388 0.41589 0.0
C1778 C 0.22632 0.17567 0.41475 0.0
C1779 C 0.26185 0.16594 0.40833 0.0
C1780 C 0.28928 0.19239 0.40763 0.0
C1781 C 0.28036 0.22847 0.41166 0.0
C1782 C 0.19661 0.14798 0.41624 0.0
C1783 C 0.32763 0.18297 0.40101 0.0
C1784 C 0.29919 0.07184 0.41124 0.0
C1785 C 0.29927 0.06212 0.3868 0.0
C1786 C 0.28455 0.10459 0.41879 0.0
C1787 C 0.27054 0.12848 0.40133 0.0
C1788 C 0.26885 0.11796 0.3767 0.0
C1789 C 0.28297 0.08446 0.36972 0.0
C1790 C 0.28622 0.11454 0.44522 0.0
C1791 C 0.25426 0.14301 0.35759 0.0
H1792 H 0.19033 0.21976 0.42184 0.0
H1793 H 0.30113 0.24883 0.40985 0.0
H1794 H 0.18984 0.13844 0.3978 0.0
H1795 H 0.20553 0.12423 0.4268 0.0
H1796 H 0.17181 0.15909 0.42463 0.0
H1797 H 0.34607 0.20643 0.40253 0.0
H1798 H 0.33783 0.16115 0.41284 0.0
H1799 H 0.32852 0.1729 0.38215 0.0
H1800 H 0.3116 0.05414 0.42441 0.0
H1801 H 0.28325 0.07674 0.35084 0.0
H1802 H 0.26015 0.12592 0.45132 0.0
H1803 H 0.3071 0.13553 0.44799 0.0
H1804 H 0.29298 0.09104 0.45677 0.0
H1805 H 0.22677 0.15207 0.36252 0.0
H1806 H 0.25325 0.13014 0.33948 0.0
H1807 H 0.27149 0.16738 0.35643 0.0
C1808 C 0.01943 0.98885 0.14895 0.0
C1809 C -0.00443 0.00016 0.13084 0.0
C1810 C 0.05542 0.00037 0.14903 0.0
C1811 C 0.06769 0.02367 0.13057 0.0
C1812 C 0.04373 0.03539 0.11237 0.0
C1813 C 0.00795 0.02357 0.11275 0.0
C1814 C 0.08034 0.98753 0.16879 0.0
C1815 C 0.0559 0.06035 0.09242 0.0
C1816 C 0.1491 0.08243 0.14178 0.0
C1817 C 0.17614 0.06398 0.12909 0.0
C1818 C 0.11385 0.06925 0.1427 0.0
C1819 C 0.10534 0.03683 0.13062 0.0
C1820 C 0.13243 0.01783 0.11793 0.0
C1821 C 0.16761 0.03165 0.11732 0.0
C1822 C 0.08559 0.09027 0.15637 0.0
C1823 C 0.12414 0.98316 0.1048 0.0
H1824 H 0.01014 0.97068 0.16294 0.0
H1825 H 0.98978 0.0324 0.09863 0.0
H1826 H 0.10369 0.97322 0.16079 0.0
H1827 H 0.09113 0.01093 0.17895 0.0
H1828 H 0.06665 0.96917 0.18169 0.0
H1829 H 0.03397 0.06645 0.0794 0.0
H1830 H 0.06573 0.08604 0.10024 0.0
H1831 H 0.07869 0.04811 0.0824 0.0
H1832 H 0.15539 0.10739 0.15101 0.0
H1833 H 0.18835 0.0172 0.10753 0.0
H1834 H 0.07283 0.07293 0.17026 0.0
H1835 H 0.06401 0.09903 0.14382 0.0
H1836 H 0.09692 0.11447 0.16541 0.0
H1837 H 0.11225 0.96332 0.11748 0.0
H1838 H 0.14848 0.97111 0.0964 0.0
H1839 H 0.1039 0.98819 0.09045 0.0
C1840 C 0.20487 0.90375 0.86797 0.0
C1841 C 0.18571 0.9257 0.8839 0.0
C1842 C 0.21939 0.87096 0.87597 0.0
C1843 C 0.21513 0.86075 0.9005 0.0
C1844 C 0.19809 0.88434 0.91694 0.0
C1845 C 0.18309 0.91637 0.90832 0.0
C1846 C 0.23725 0.84626 0.85792 0.0
C1847 C 0.1937 0.87477 0.94327 0.0
C1848 C 0.20811 0.76042 0.9103 0.0
C1849 C 0.24381 0.75145 0.91602 0.0
C1850 C 0.19817 0.79618 0.90609 0.0
C1851 C 0.22436 0.8237 0.90819 0.0
C1852 C 0.25952 0.81528 0.9162 0.0
C1853 C 0.26891 0.77914 0.91997 0.0
C1854 C 0.1603 0.80413 0.89762 0.0
C1855 C 0.28785 0.8441 0.91927 0.0
H1856 H 0.20657 0.91116 0.84906 0.0
H1857 H 0.16828 0.93373 0.92056 0.0
H1858 H 0.26473 0.83915 0.86415 0.0
H1859 H 0.22174 0.82079 0.85646 0.0
H1860 H 0.23919 0.85856 0.83968 0.0
H1861 H 0.18491 0.89823 0.95423 0.0
H1862 H 0.17323 0.85317 0.94512 0.0
H1863 H 0.21935 0.86432 0.95079 0.0
H1864 H 0.18843 0.7393 0.90736 0.0
H1865 H 0.2965 0.77251 0.92457 0.0
H1866 H 0.16105 0.81394 0.87869 0.0
H1867 H 0.14807 0.82569 0.90878 0.0
H1868 H 0.1426 0.78003 0.89839 0.0
H1869 H 0.29673 0.85363 0.90125 0.0
H1870 H 0.31182 0.834 0.92919 0.0
H1871 H 0.27672 0.86764 0.92908 0.0
C1872 C 0.33314 0.95794 0.62439 0.0
C1873 C 0.31441 0.93746 0.64146 0.0
C1874 C 0.36771 0.97127 0.62961 0.0
C1875 C 0.3832 0.96451 0.65259 0.0
C1876 C 0.36335 0.94575 0.67033 0.0
C1877 C 0.32934 0.93214 0.66446 0.0
C1878 C 0.38839 0.99084 0.61015 0.0
C1879 C 0.37867 0.93857 0.69514 0.0
C1880 C 0.48466 0.9572 0.65399 0.0
C1881 C 0.49484 0.99189 0.6614 0.0
C1882 C 0.44836 0.9478 0.65157 0.0
C1883 C 0.42151 0.97347 0.65716 0.0
C1884 C 0.43144 0.00759 0.66641 0.0
C1885 C 0.46809 0.01648 0.66836 0.0
C1886 C 0.43884 0.91103 0.64174 0.0
C1887 C 0.40341 0.03529 0.67305 0.0
H1888 H 0.32151 0.96209 0.60665 0.0
H1889 H 0.31453 0.91683 0.67787 0.0
H1890 H 0.39909 0.01668 0.61719 0.0
H1891 H 0.4118 0.97431 0.60446 0.0
H1892 H 0.37152 -0.00356 0.59401 0.0
H1893 H 0.35813 0.92756 0.70772 0.0
H1894 H 0.40104 0.91889 0.69374 0.0
H1895 H 0.38994 0.96364 0.703 0.0
H1896 H 0.50509 0.93789 0.64874 0.0
H1897 H 0.47567 0.04334 0.67412 0.0
H1898 H 0.42488 0.91397 0.62413 0.0
H1899 H 0.42007 0.89703 0.65417 0.0
H1900 H 0.46294 0.89378 0.63908 0.0
H1901 H 0.3897 0.04489 0.65646 0.0
H1902 H 0.41536 0.05888 0.68245 0.0
H1903 H 0.38251 0.0232 0.68486 0.0
loop_
_geom_bond_atom_site_label_1
_geom_bond_atom_site_label_2
_geom_bond_distance
_geom_bond_site_symmetry_2
_ccdc_geom_bond_type
O0 Zn1 1.953 . S
O0 C16 1.225 . S
Zn1 O0 1.953 . S
Zn1 O2 1.949 . S
Zn1 O8 1.919 . S
Zn1 O13 1.924 . S
O2 Zn1 1.949 . S
O2 Zn3 1.923 . S
O2 Zn4 1.950 . S
O2 Zn5 1.945 . S
Zn3 O2 1.923 . S
Zn3 O6 1.933 . S
Zn3 O9 1.941 . S
Zn3 O10 1.965 . S
Zn4 O2 1.950 . S
Zn4 O11 1.938 . S
Zn4 O12 1.906 . S
Zn4 O22 1.953 . S
Zn5 O2 1.945 . S
Zn5 O7 1.932 . S
Zn5 O14 1.977 . S
Zn5 O15 1.910 . S
O6 Zn3 1.933 . S
O6 C17 1.226 . S
O7 Zn5 1.932 . S
O7 C17 1.307 . S
O8 Zn1 1.919 . S
O8 C19 1.253 . S
O9 Zn3 1.941 . S
O9 C19 1.283 . S
O10 Zn3 1.965 . S
O10 C18 1.303 . S
O11 Zn4 1.938 . S
O11 C18 1.247 . S
O12 Zn4 1.906 . S
O12 C20 1.304 . S
O13 Zn1 1.924 . S
O13 C21 1.311 . S
O14 Zn5 1.977 . S
O14 C20 1.272 . S
O15 Zn5 1.910 . S
O15 C21 1.231 . S
C16 O0 1.225 . S
C16 O22 1.298 . S
C17 O6 1.226 . S
C17 O7 1.307 . S
C18 O10 1.303 . S
C18 O11 1.247 . S
C19 O8 1.253 . S
C19 O9 1.283 . S
C20 O12 1.304 . S
C20 O14 1.272 . S
C21 O13 1.311 . S
C21 O15 1.231 . S
O22 Zn4 1.953 . S
O22 C16 1.298 . S
O23 Zn24 1.953 . S
O23 C39 1.225 . S
Zn24 O23 1.953 . S
Zn24 O25 1.949 . S
Zn24 O31 1.919 . S
Zn24 O36 1.924 . S
O25 Zn24 1.949 . S
O25 Zn26 1.923 . S
O25 Zn27 1.950 . S
O25 Zn28 1.945 . S
Zn26 O25 1.923 . S
Zn26 O29 1.933 . S
Zn26 O32 1.941 . S
Zn26 O33 1.965 . S
Zn27 O25 1.950 . S
Zn27 O34 1.938 . S
Zn27 O35 1.906 . S
Zn27 O45 1.953 . S
Zn28 O25 1.945 . S
Zn28 O30 1.932 . S
Zn28 O37 1.977 . S
Zn28 O38 1.910 . S
O29 Zn26 1.933 . S
O29 C40 1.226 . S
O30 Zn28 1.932 . S
O30 C40 1.307 . S
O31 Zn24 1.919 . S
O31 C42 1.253 . S
O32 Zn26 1.941 . S
O32 C42 1.283 . S
O33 Zn26 1.965 . S
O33 C41 1.303 . S
O34 Zn27 1.938 . S
O34 C41 1.247 . S
O35 Zn27 1.906 . S
O35 C43 1.304 . S
O36 Zn24 1.924 . S
O36 C44 1.311 . S
O37 Zn28 1.977 . S
O37 C43 1.272 . S
O38 Zn28 1.910 . S
O38 C44 1.231 . S
C39 O23 1.225 . S
C39 O45 1.298 . S
C40 O29 1.226 . S
C40 O30 1.307 . S
C41 O33 1.303 . S
C41 O34 1.247 . S
C42 O31 1.253 . S
C42 O32 1.283 . S
C43 O35 1.304 . S
C43 O37 1.272 . S
C44 O36 1.311 . S
C44 O38 1.231 . S
O45 Zn27 1.953 . S
O45 C39 1.298 . S
O46 Zn47 1.953 . S
O46 C62 1.225 . S
Zn47 O46 1.953 . S
Zn47 O48 1.949 . S
Zn47 O54 1.919 . S
Zn47 O59 1.924 . S
O48 Zn47 1.949 . S
O48 Zn49 1.923 . S
O48 Zn50 1.950 . S
O48 Zn51 1.945 . S
Zn49 O48 1.923 . S
Zn49 O52 1.933 . S
Zn49 O55 1.941 . S
Zn49 O56 1.965 . S
Zn50 O48 1.950 . S
Zn50 O57 1.938 . S
Zn50 O58 1.906 . S
Zn50 O68 1.953 . S
Zn51 O48 1.945 . S
Zn51 O53 1.932 . S
Zn51 O60 1.977 . S
Zn51 O61 1.910 . S
O52 Zn49 1.933 . S
O52 C63 1.226 . S
O53 Zn51 1.932 . S
O53 C63 1.307 . S
O54 Zn47 1.919 . S
O54 C65 1.253 . S
O55 Zn49 1.941 . S
O55 C65 1.283 . S
O56 Zn49 1.965 . S
O56 C64 1.303 . S
O57 Zn50 1.938 . S
O57 C64 1.247 . S
O58 Zn50 1.906 . S
O58 C66 1.304 . S
O59 Zn47 1.924 . S
O59 C67 1.311 . S
O60 Zn51 1.977 . S
O60 C66 1.272 . S
O61 Zn51 1.910 . S
O61 C67 1.231 . S
C62 O46 1.225 . S
C62 O68 1.298 . S
C63 O52 1.226 . S
C63 O53 1.307 . S
C64 O56 1.303 . S
C64 O57 1.247 . S
C65 O54 1.253 . S
C65 O55 1.283 . S
C66 O58 1.304 . S
C66 O60 1.272 . S
C67 O59 1.311 . S
C67 O61 1.231 . S
O68 Zn50 1.953 . S
O68 C62 1.298 . S
O69 Zn70 1.953 . S
O69 C85 1.225 . S
Zn70 O69 1.953 . S
Zn70 O71 1.949 . S
Zn70 O77 1.919 . S
Zn70 O82 1.924 . S
O71 Zn70 1.949 . S
O71 Zn72 1.923 . S
O71 Zn73 1.950 . S
O71 Zn74 1.945 . S
Zn72 O71 1.923 . S
Zn72 O75 1.933 . S
Zn72 O78 1.941 . S
Zn72 O79 1.965 . S
Zn73 O71 1.950 . S
Zn73 O80 1.938 . S
Zn73 O81 1.906 . S
Zn73 O91 1.953 . S
Zn74 O71 1.945 . S
Zn74 O76 1.932 . S
Zn74 O83 1.977 . S
Zn74 O84 1.910 . S
O75 Zn72 1.933 . S
O75 C86 1.226 . S
O76 Zn74 1.932 . S
O76 C86 1.307 . S
O77 Zn70 1.919 . S
O77 C88 1.253 . S
O78 Zn72 1.941 . S
O78 C88 1.283 . S
O79 Zn72 1.965 . S
O79 C87 1.303 . S
O80 Zn73 1.938 . S
O80 C87 1.247 . S
O81 Zn73 1.906 . S
O81 C89 1.304 . S
O82 Zn70 1.924 . S
O82 C90 1.311 . S
O83 Zn74 1.977 . S
O83 C89 1.272 . S
O84 Zn74 1.910 . S
O84 C90 1.231 . S
C85 O69 1.225 . S
C85 O91 1.298 . S
C86 O75 1.226 . S
C86 O76 1.307 . S
C87 O79 1.303 . S
C87 O80 1.247 . S
C88 O77 1.253 . S
C88 O78 1.283 . S
C89 O81 1.304 . S
C89 O83 1.272 . S
C90 O82 1.311 . S
C90 O84 1.231 . S
O91 Zn73 1.953 . S
O91 C85 1.298 . S
O92 Zn93 1.953 . S
O92 C108 1.225 . S
Zn93 O92 1.953 . S
Zn93 O94 1.949 . S
Zn93 O100 1.919 . S
Zn93 O105 1.924 . S
O94 Zn93 1.949 . S
O94 Zn95 1.923 . S
O94 Zn96 1.950 . S
O94 Zn97 1.945 . S
Zn95 O94 1.923 . S
Zn95 O98 1.933 . S
Zn95 O101 1.941 . S
Zn95 O102 1.965 . S
Zn96 O94 1.950 . S
Zn96 O103 1.938 . S
Zn96 O104 1.906 . S
Zn96 O114 1.953 . S
Zn97 O94 1.945 . S
Zn97 O99 1.932 . S
Zn97 O106 1.977 . S
Zn97 O107 1.910 . S
O98 Zn95 1.933 . S
O98 C109 1.226 . S
O99 Zn97 1.932 . S
O99 C109 1.307 . S
O100 Zn93 1.919 . S
O100 C111 1.253 . S
O101 Zn95 1.941 . S
O101 C111 1.283 . S
O102 Zn95 1.965 . S
O102 C110 1.303 . S
O103 Zn96 1.938 . S
O103 C110 1.247 . S
O104 Zn96 1.906 . S
O104 C112 1.304 . S
O105 Zn93 1.924 . S
O105 C113 1.311 . S
O106 Zn97 1.977 . S
O106 C112 1.272 . S
O107 Zn97 1.910 . S
O107 C113 1.231 . S
C108 O92 1.225 . S
C108 O114 1.298 . S
C109 O98 1.226 . S
C109 O99 1.307 . S
C110 O102 1.303 . S
C110 O103 1.247 . S
C111 O100 1.253 . S
C111 O101 1.283 . S
C112 O104 1.304 . S
C112 O106 1.272 . S
C113 O105 1.311 . S
C113 O107 1.231 . S
O114 Zn96 1.953 . S
O114 C108 1.298 . S
O115 Zn116 1.953 . S
O115 C131 1.225 . S
Zn116 O115 1.953 . S
Zn116 O117 1.949 . S
Zn116 O123 1.919 . S
Zn116 O128 1.924 . S
O117 Zn116 1.949 . S
O117 Zn118 1.923 . S
O117 Zn119 1.950 . S
O117 Zn120 1.945 . S
Zn118 O117 1.923 . S
Zn118 O121 1.933 . S
Zn118 O124 1.941 . S
Zn118 O125 1.965 . S
Zn119 O117 1.950 . S
Zn119 O126 1.938 . S
Zn119 O127 1.906 . S
Zn119 O137 1.953 . S
Zn120 O117 1.945 . S
Zn120 O122 1.932 . S
Zn120 O129 1.977 . S
Zn120 O130 1.910 . S
O121 Zn118 1.933 . S
O121 C132 1.226 . S
O122 Zn120 1.932 . S
O122 C132 1.307 . S
O123 Zn116 1.919 . S
O123 C134 1.253 . S
O124 Zn118 1.941 . S
O124 C134 1.283 . S
O125 Zn118 1.965 . S
O125 C133 1.303 . S
O126 Zn119 1.938 . S
O126 C133 1.247 . S
O127 Zn119 1.906 . S
O127 C135 1.304 . S
O128 Zn116 1.924 . S
O128 C136 1.311 . S
O129 Zn120 1.977 . S
O129 C135 1.272 . S
O130 Zn120 1.910 . S
O130 C136 1.231 . S
C131 O115 1.225 . S
C131 O137 1.298 . S
C132 O121 1.226 . S
C132 O122 1.307 . S
C133 O125 1.303 . S
C133 O126 1.247 . S
C134 O123 1.253 . S
C134 O124 1.283 . S
C135 O127 1.304 . S
C135 O129 1.272 . S
C136 O128 1.311 . S
C136 O130 1.231 . S
O137 Zn119 1.953 . S
O137 C131 1.298 . S
O138 Zn139 1.953 . S
O138 C154 1.225 . S
Zn139 O138 1.953 . S
Zn139 O140 1.949 . S
Zn139 O146 1.919 . S
Zn139 O151 1.924 . S
O140 Zn139 1.949 . S
O140 Zn141 1.923 . S
O140 Zn142 1.950 . S
O140 Zn143 1.945 . S
Zn141 O140 1.923 . S
Zn141 O144 1.933 . S
Zn141 O147 1.941 . S
Zn141 O148 1.965 . S
Zn142 O140 1.950 . S
Zn142 O149 1.938 . S
Zn142 O150 1.906 . S
Zn142 O160 1.953 . S
Zn143 O140 1.945 . S
Zn143 O145 1.932 . S
Zn143 O152 1.977 . S
Zn143 O153 1.910 . S
O144 Zn141 1.933 . S
O144 C155 1.226 . S
O145 Zn143 1.932 . S
O145 C155 1.307 . S
O146 Zn139 1.919 . S
O146 C157 1.253 . S
O147 Zn141 1.941 . S
O147 C157 1.283 . S
O148 Zn141 1.965 . S
O148 C156 1.303 . S
O149 Zn142 1.938 . S
O149 C156 1.247 . S
O150 Zn142 1.906 . S
O150 C158 1.304 . S
O151 Zn139 1.924 . S
O151 C159 1.311 . S
O152 Zn143 1.977 . S
O152 C158 1.272 . S
O153 Zn143 1.910 . S
O153 C159 1.231 . S
C154 O138 1.225 . S
C154 O160 1.298 . S
C155 O144 1.226 . S
C155 O145 1.307 . S
C156 O148 1.303 . S
C156 O149 1.247 . S
C157 O146 1.253 . S
C157 O147 1.283 . S
C158 O150 1.304 . S
C158 O152 1.272 . S
C159 O151 1.311 . S
C159 O153 1.231 . S
O160 Zn142 1.953 . S
O160 C154 1.298 . S
O161 Zn162 1.953 . S
O161 C177 1.225 . S
Zn162 O161 1.953 . S
Zn162 O163 1.949 . S
Zn162 O169 1.919 . S
Zn162 O174 1.924 . S
O163 Zn162 1.949 . S
O163 Zn164 1.923 . S
O163 Zn165 1.950 . S
O163 Zn166 1.945 . S
Zn164 O163 1.923 . S
Zn164 O167 1.933 . S
Zn164 O170 1.941 . S
Zn164 O171 1.965 . S
Zn165 O163 1.950 . S
Zn165 O172 1.938 . S
Zn165 O173 1.906 . S
Zn165 O183 1.953 . S
Zn166 O163 1.945 . S
Zn166 O168 1.932 . S
Zn166 O175 1.977 . S
Zn166 O176 1.910 . S
O167 Zn164 1.933 . S
O167 C178 1.226 . S
O168 Zn166 1.932 . S
O168 C178 1.307 . S
O169 Zn162 1.919 . S
O169 C180 1.253 . S
O170 Zn164 1.941 . S
O170 C180 1.283 . S
O171 Zn164 1.965 . S
O171 C179 1.303 . S
O172 Zn165 1.938 . S
O172 C179 1.247 . S
O173 Zn165 1.906 . S
O173 C181 1.304 . S
O174 Zn162 1.924 . S
O174 C182 1.311 . S
O175 Zn166 1.977 . S
O175 C181 1.272 . S
O176 Zn166 1.910 . S
O176 C182 1.231 . S
C177 O161 1.225 . S
C177 O183 1.298 . S
C178 O167 1.226 . S
C178 O168 1.307 . S
C179 O171 1.303 . S
C179 O172 1.247 . S
C180 O169 1.253 . S
C180 O170 1.283 . S
C181 O173 1.304 . S
C181 O175 1.272 . S
C182 O174 1.311 . S
C182 O176 1.231 . S
O183 Zn165 1.953 . S
O183 C177 1.298 . S
O184 Zn185 1.953 . S
O184 C200 1.225 . S
Zn185 O184 1.953 . S
Zn185 O186 1.949 . S
Zn185 O192 1.919 . S
Zn185 O197 1.924 . S
O186 Zn185 1.949 . S
O186 Zn187 1.923 . S
O186 Zn188 1.950 . S
O186 Zn189 1.945 . S
Zn187 O186 1.923 . S
Zn187 O190 1.933 . S
Zn187 O193 1.941 . S
Zn187 O194 1.965 . S
Zn188 O186 1.950 . S
Zn188 O195 1.938 . S
Zn188 O196 1.906 . S
Zn188 O206 1.953 . S
Zn189 O186 1.945 . S
Zn189 O191 1.932 . S
Zn189 O198 1.977 . S
Zn189 O199 1.910 . S
O190 Zn187 1.933 . S
O190 C201 1.226 . S
O191 Zn189 1.932 . S
O191 C201 1.307 . S
O192 Zn185 1.919 . S
O192 C203 1.253 . S
O193 Zn187 1.941 . S
O193 C203 1.283 . S
O194 Zn187 1.965 . S
O194 C202 1.303 . S
O195 Zn188 1.938 . S
O195 C202 1.247 . S
O196 Zn188 1.906 . S
O196 C204 1.304 . S
O197 Zn185 1.924 . S
O197 C205 1.311 . S
O198 Zn189 1.977 . S
O198 C204 1.272 . S
O199 Zn189 1.910 . S
O199 C205 1.231 . S
C200 O184 1.225 . S
C200 O206 1.298 . S
C201 O190 1.226 . S
C201 O191 1.307 . S
C202 O194 1.303 . S
C202 O195 1.247 . S
C203 O192 1.253 . S
C203 O193 1.283 . S
C204 O196 1.304 . S
C204 O198 1.272 . S
C205 O197 1.311 . S
C205 O199 1.231 . S
O206 Zn188 1.953 . S
O206 C200 1.298 . S
O207 Zn208 1.953 . S
O207 C223 1.225 . S
Zn208 O207 1.953 . S
Zn208 O209 1.949 . S
Zn208 O215 1.919 1_545 S
Zn208 O220 1.924 1_545 S
O209 Zn208 1.949 . S
O209 Zn210 1.923 . S
O209 Zn211 1.950 . S
O209 Zn212 1.945 . S
Zn210 O209 1.923 . S
Zn210 O213 1.933 . S
Zn210 O216 1.941 1_545 S
Zn210 O217 1.965 . S
Zn211 O209 1.950 . S
Zn211 O218 1.938 . S
Zn211 O219 1.906 . S
Zn211 O229 1.953 . S
Zn212 O209 1.945 . S
Zn212 O214 1.932 . S
Zn212 O221 1.977 . S
Zn212 O222 1.910 . S
O213 Zn210 1.933 . S
O213 C224 1.226 . S
O214 Zn212 1.932 . S
O214 C224 1.307 . S
O215 Zn208 1.919 1_565 S
O215 C226 1.253 . S
O216 Zn210 1.941 1_565 S
O216 C226 1.283 . S
O217 Zn210 1.965 . S
O217 C225 1.303 . S
O218 Zn211 1.938 . S
O218 C225 1.247 . S
O219 Zn211 1.906 . S
O219 C227 1.304 . S
O220 Zn208 1.924 1_565 S
O220 C228 1.311 1_565 S
O221 Zn212 1.977 . S
O221 C227 1.272 . S
O222 Zn212 1.910 . S
O222 C228 1.231 . S
C223 O207 1.225 . S
C223 O229 1.298 . S
C224 O213 1.226 . S
C224 O214 1.307 . S
C225 O217 1.303 . S
C225 O218 1.247 . S
C226 O215 1.253 . S
C226 O216 1.283 . S
C227 O219 1.304 . S
C227 O221 1.272 . S
C228 O220 1.311 1_545 S
C228 O222 1.231 . S
O229 Zn211 1.953 . S
O229 C223 1.298 . S
O230 Zn231 1.953 . S
O230 C246 1.225 . S
Zn231 O230 1.953 . S
Zn231 O232 1.949 . S
Zn231 O238 1.919 . S
Zn231 O243 1.924 . S
O232 Zn231 1.949 . S
O232 Zn233 1.923 . S
O232 Zn234 1.950 . S
O232 Zn235 1.945 . S
Zn233 O232 1.923 . S
Zn233 O236 1.933 . S
Zn233 O239 1.941 . S
Zn233 O240 1.965 . S
Zn234 O232 1.950 . S
Zn234 O241 1.938 . S
Zn234 O242 1.906 . S
Zn234 O252 1.953 . S
Zn235 O232 1.945 . S
Zn235 O237 1.932 . S
Zn235 O244 1.977 . S
Zn235 O245 1.910 . S
O236 Zn233 1.933 . S
O236 C247 1.226 . S
O237 Zn235 1.932 . S
O237 C247 1.307 . S
O238 Zn231 1.919 . S
O238 C249 1.253 . S
O239 Zn233 1.941 . S
O239 C249 1.283 . S
O240 Zn233 1.965 . S
O240 C248 1.303 . S
O241 Zn234 1.938 . S
O241 C248 1.247 . S
O242 Zn234 1.906 . S
O242 C250 1.304 . S
O243 Zn231 1.924 . S
O243 C251 1.311 . S
O244 Zn235 1.977 . S
O244 C250 1.272 . S
O245 Zn235 1.910 . S
O245 C251 1.231 . S
C246 O230 1.225 . S
C246 O252 1.298 . S
C247 O236 1.226 . S
C247 O237 1.307 . S
C248 O240 1.303 . S
C248 O241 1.247 . S
C249 O238 1.253 . S
C249 O239 1.283 . S
C250 O242 1.304 . S
C250 O244 1.272 . S
C251 O243 1.311 . S
C251 O245 1.231 . S
O252 Zn234 1.953 . S
O252 C246 1.298 . S
O253 Zn254 1.953 . S
O253 C269 1.225 . S
Zn254 O253 1.953 . S
Zn254 O255 1.949 . S
Zn254 O261 1.919 1_565 S
Zn254 O266 1.924 1_565 S
O255 Zn254 1.949 . S
O255 Zn256 1.923 . S
O255 Zn257 1.950 . S
O255 Zn258 1.945 . S
Zn256 O255 1.923 . S
Zn256 O259 1.933 . S
Zn256 O262 1.941 1_565 S
Zn256 O263 1.965 . S
Zn257 O255 1.950 . S
Zn257 O264 1.938 . S
Zn257 O265 1.906 . S
Zn257 O275 1.953 . S
Zn258 O255 1.945 . S
Zn258 O260 1.932 . S
Zn258 O267 1.977 . S
Zn258 O268 1.910 . S
O259 Zn256 1.933 . S
O259 C270 1.226 . S
O260 Zn258 1.932 . S
O260 C270 1.307 . S
O261 Zn254 1.919 1_545 S
O261 C272 1.253 . S
O262 Zn256 1.941 1_545 S
O262 C272 1.283 . S
O263 Zn256 1.965 . S
O263 C271 1.303 . S
O264 Zn257 1.938 . S
O264 C271 1.247 . S
O265 Zn257 1.906 . S
O265 C273 1.304 . S
O266 Zn254 1.924 1_545 S
O266 C274 1.311 1_545 S
O267 Zn258 1.977 . S
O267 C273 1.272 . S
O268 Zn258 1.910 . S
O268 C274 1.231 . S
C269 O253 1.225 . S
C269 O275 1.298 . S
C270 O259 1.226 . S
C270 O260 1.307 . S
C271 O263 1.303 . S
C271 O264 1.247 . S
C272 O261 1.253 . S
C272 O262 1.283 . S
C273 O265 1.304 . S
C273 O267 1.272 . S
C274 O266 1.311 1_565 S
C274 O268 1.231 . S
O275 Zn257 1.953 . S
O275 C269 1.298 . S
O276 Zn277 1.953 . S
O276 C292 1.225 . S
Zn277 O276 1.953 . S
Zn277 O278 1.949 . S
Zn277 O284 1.919 . S
Zn277 O289 1.924 . S
O278 Zn277 1.949 . S
O278 Zn279 1.923 . S
O278 Zn280 1.950 . S
O278 Zn281 1.945 . S
Zn279 O278 1.923 . S
Zn279 O282 1.933 . S
Zn279 O285 1.941 . S
Zn279 O286 1.965 . S
Zn280 O278 1.950 . S
Zn280 O287 1.938 . S
Zn280 O288 1.906 . S
Zn280 O298 1.953 . S
Zn281 O278 1.945 . S
Zn281 O283 1.932 . S
Zn281 O290 1.977 . S
Zn281 O291 1.910 . S
O282 Zn279 1.933 . S
O282 C293 1.226 . S
O283 Zn281 1.932 . S
O283 C293 1.307 . S
O284 Zn277 1.919 . S
O284 C295 1.253 . S
O285 Zn279 1.941 . S
O285 C295 1.283 . S
O286 Zn279 1.965 . S
O286 C294 1.303 . S
O287 Zn280 1.938 . S
O287 C294 1.247 . S
O288 Zn280 1.906 . S
O288 C296 1.304 . S
O289 Zn277 1.924 . S
O289 C297 1.311 . S
O290 Zn281 1.977 . S
O290 C296 1.272 . S
O291 Zn281 1.910 . S
O291 C297 1.231 . S
C292 O276 1.225 . S
C292 O298 1.298 . S
C293 O282 1.226 . S
C293 O283 1.307 . S
C294 O286 1.303 . S
C294 O287 1.247 . S
C295 O284 1.253 . S
C295 O285 1.283 . S
C296 O288 1.304 . S
C296 O290 1.272 . S
C297 O289 1.311 . S
C297 O291 1.231 . S
O298 Zn280 1.953 . S
O298 C292 1.298 . S
O299 Zn300 1.953 . S
O299 C315 1.225 . S
Zn300 O299 1.953 . S
Zn300 O301 1.949 . S
Zn300 O307 1.919 1_565 S
Zn300 O312 1.924 1_565 S
O301 Zn300 1.949 . S
O301 Zn302 1.923 . S
O301 Zn303 1.950 . S
O301 Zn304 1.945 . S
Zn302 O301 1.923 . S
Zn302 O305 1.933 . S
Zn302 O308 1.941 1_565 S
Zn302 O309 1.965 . S
Zn303 O301 1.950 . S
Zn303 O310 1.938 . S
Zn303 O311 1.906 . S
Zn303 O321 1.953 . S
Zn304 O301 1.945 . S
Zn304 O306 1.932 . S
Zn304 O313 1.977 . S
Zn304 O314 1.910 . S
O305 Zn302 1.933 . S
O305 C316 1.226 . S
O306 Zn304 1.932 . S
O306 C316 1.307 . S
O307 Zn300 1.919 1_545 S
O307 C318 1.253 . S
O308 Zn302 1.941 1_545 S
O308 C318 1.283 . S
O309 Zn302 1.965 . S
O309 C317 1.303 . S
O310 Zn303 1.938 . S
O310 C317 1.247 . S
O311 Zn303 1.906 . S
O311 C319 1.304 . S
O312 Zn300 1.924 1_545 S
O312 C320 1.311 1_545 S
O313 Zn304 1.977 . S
O313 C319 1.272 . S
O314 Zn304 1.910 . S
O314 C320 1.231 . S
C315 O299 1.225 . S
C315 O321 1.298 . S
C316 O305 1.226 . S
C316 O306 1.307 . S
C317 O309 1.303 . S
C317 O310 1.247 . S
C318 O307 1.253 . S
C318 O308 1.283 . S
C319 O311 1.304 . S
C319 O313 1.272 . S
C320 O312 1.311 1_565 S
C320 O314 1.231 . S
O321 Zn303 1.953 . S
O321 C315 1.298 . S
O322 Zn323 1.953 . S
O322 C338 1.225 . S
Zn323 O322 1.953 . S
Zn323 O324 1.949 . S
Zn323 O330 1.919 . S
Zn323 O335 1.924 . S
O324 Zn323 1.949 . S
O324 Zn325 1.923 . S
O324 Zn326 1.950 . S
O324 Zn327 1.945 . S
Zn325 O324 1.923 . S
Zn325 O328 1.933 . S
Zn325 O331 1.941 . S
Zn325 O332 1.965 . S
Zn326 O324 1.950 . S
Zn326 O333 1.938 . S
Zn326 O334 1.906 . S
Zn326 O344 1.953 . S
Zn327 O324 1.945 . S
Zn327 O329 1.932 . S
Zn327 O336 1.977 . S
Zn327 O337 1.910 . S
O328 Zn325 1.933 . S
O328 C339 1.226 . S
O329 Zn327 1.932 . S
O329 C339 1.307 . S
O330 Zn323 1.919 . S
O330 C341 1.253 . S
O331 Zn325 1.941 . S
O331 C341 1.283 . S
O332 Zn325 1.965 . S
O332 C340 1.303 . S
O333 Zn326 1.938 . S
O333 C340 1.247 . S
O334 Zn326 1.906 . S
O334 C342 1.304 . S
O335 Zn323 1.924 . S
O335 C343 1.311 . S
O336 Zn327 1.977 . S
O336 C342 1.272 . S
O337 Zn327 1.910 . S
O337 C343 1.231 . S
C338 O322 1.225 . S
C338 O344 1.298 . S
C339 O328 1.226 . S
C339 O329 1.307 . S
C340 O332 1.303 . S
C340 O333 1.247 . S
C341 O330 1.253 . S
C341 O331 1.283 . S
C342 O334 1.304 . S
C342 O336 1.272 . S
C343 O335 1.311 . S
C343 O337 1.231 . S
O344 Zn326 1.953 . S
O344 C338 1.298 . S
O345 Zn346 1.953 . S
O345 C361 1.225 . S
Zn346 O345 1.953 . S
Zn346 O347 1.949 . S
Zn346 O353 1.919 1_545 S
Zn346 O358 1.924 1_545 S
O347 Zn346 1.949 . S
O347 Zn348 1.923 . S
O347 Zn349 1.950 . S
O347 Zn350 1.945 . S
Zn348 O347 1.923 . S
Zn348 O351 1.933 . S
Zn348 O354 1.941 1_545 S
Zn348 O355 1.965 . S
Zn349 O347 1.950 . S
Zn349 O356 1.938 . S
Zn349 O357 1.906 . S
Zn349 O367 1.953 . S
Zn350 O347 1.945 . S
Zn350 O352 1.932 . S
Zn350 O359 1.977 . S
Zn350 O360 1.910 . S
O351 Zn348 1.933 . S
O351 C362 1.226 . S
O352 Zn350 1.932 . S
O352 C362 1.307 . S
O353 Zn346 1.919 1_565 S
O353 C364 1.253 . S
O354 Zn348 1.941 1_565 S
O354 C364 1.283 . S
O355 Zn348 1.965 . S
O355 C363 1.303 . S
O356 Zn349 1.938 . S
O356 C363 1.247 . S
O357 Zn349 1.906 . S
O357 C365 1.304 . S
O358 Zn346 1.924 1_565 S
O358 C366 1.311 1_565 S
O359 Zn350 1.977 . S
O359 C365 1.272 . S
O360 Zn350 1.910 . S
O360 C366 1.231 . S
C361 O345 1.225 . S
C361 O367 1.298 . S
C362 O351 1.226 . S
C362 O352 1.307 . S
C363 O355 1.303 . S
C363 O356 1.247 . S
C364 O353 1.253 . S
C364 O354 1.283 . S
C365 O357 1.304 . S
C365 O359 1.272 . S
C366 O358 1.311 1_545 S
C366 O360 1.231 . S
O367 Zn349 1.953 . S
O367 C361 1.298 . S
C368 C369 1.391 . S
C368 C370 1.394 . S
C368 H384 0.931 . S
C369 C368 1.391 . S
C369 C373 1.376 . S
C370 C368 1.394 . S
C370 C371 1.369 . S
C370 C374 1.531 . S
C371 C370 1.369 . S
C371 C372 1.410 . S
C371 C379 1.503 . S
C372 C371 1.410 . S
C372 C373 1.392 . S
C372 C375 1.511 . S
C373 C369 1.376 . S
C373 C372 1.392 . S
C373 H385 0.929 . S
C374 C370 1.531 . S
C374 H386 0.960 . S
C374 H387 0.962 . S
C374 H388 0.960 . S
C375 C372 1.511 . S
C375 H389 0.961 . S
C375 H390 0.961 . S
C375 H391 0.961 . S
C376 C377 1.370 . S
C376 C378 1.363 . S
C376 H392 0.931 . S
C377 C376 1.370 . S
C377 C381 1.408 . S
C378 C376 1.363 . S
C378 C379 1.370 . S
C378 C382 1.524 . S
C379 C371 1.503 . S
C379 C378 1.370 . S
C379 C380 1.403 . S
C380 C379 1.403 . S
C380 C381 1.404 . S
C380 C383 1.539 . S
C381 C377 1.408 . S
C381 C380 1.404 . S
C381 H393 0.930 . S
C382 C378 1.524 . S
C382 H394 0.956 . S
C382 H395 0.961 . S
C382 H396 0.961 . S
C383 C380 1.539 . S
C383 H397 0.958 . S
C383 H398 0.961 . S
C383 H399 0.960 . S
H384 C368 0.931 . S
H385 C373 0.929 . S
H386 C374 0.960 . S
H387 C374 0.962 . S
H388 C374 0.960 . S
H389 C375 0.961 . S
H390 C375 0.961 . S
H391 C375 0.961 . S
H392 C376 0.931 . S
H393 C381 0.930 . S
H394 C382 0.956 . S
H395 C382 0.961 . S
H396 C382 0.961 . S
H397 C383 0.958 . S
H398 C383 0.961 . S
H399 C383 0.960 . S
C400 C401 1.391 . S
C400 C402 1.394 . S
C400 H416 0.931 . S
C401 C400 1.391 . S
C401 C405 1.376 . S
C402 C400 1.394 . S
C402 C403 1.369 . S
C402 C406 1.531 . S
C403 C402 1.369 . S
C403 C404 1.410 . S
C403 C411 1.503 . S
C404 C403 1.410 . S
C404 C405 1.392 . S
C404 C407 1.511 . S
C405 C401 1.376 . S
C405 C404 1.392 . S
C405 H417 0.929 . S
C406 C402 1.531 . S
C406 H418 0.960 . S
C406 H419 0.962 . S
C406 H420 0.960 . S
C407 C404 1.511 . S
C407 H421 0.961 . S
C407 H422 0.961 . S
C407 H423 0.961 . S
C408 C409 1.370 . S
C408 C410 1.363 . S
C408 H424 0.931 . S
C409 C408 1.370 . S
C409 C413 1.408 . S
C410 C408 1.363 . S
C410 C411 1.370 . S
C410 C414 1.524 . S
C411 C403 1.503 . S
C411 C410 1.370 . S
C411 C412 1.403 . S
C412 C411 1.403 . S
C412 C413 1.404 . S
C412 C415 1.539 . S
C413 C409 1.408 . S
C413 C412 1.404 . S
C413 H425 0.930 . S
C414 C410 1.524 . S
C414 H426 0.956 . S
C414 H427 0.961 . S
C414 H428 0.961 . S
C415 C412 1.539 . S
C415 H429 0.958 . S
C415 H430 0.961 . S
C415 H431 0.960 . S
H416 C400 0.931 . S
H417 C405 0.929 . S
H418 C406 0.960 . S
H419 C406 0.962 . S
H420 C406 0.960 . S
H421 C407 0.961 . S
H422 C407 0.961 . S
H423 C407 0.961 . S
H424 C408 0.931 . S
H425 C413 0.930 . S
H426 C414 0.956 . S
H427 C414 0.961 . S
H428 C414 0.961 . S
H429 C415 0.958 . S
H430 C415 0.961 . S
H431 C415 0.960 . S
C432 C433 1.391 . S
C432 C434 1.394 . S
C432 H448 0.931 . S
C433 C432 1.391 . S
C433 C437 1.376 . S
C434 C432 1.394 . S
C434 C435 1.369 . S
C434 C438 1.531 . S
C435 C434 1.369 . S
C435 C436 1.410 . S
C435 C443 1.503 . S
C436 C435 1.410 . S
C436 C437 1.392 . S
C436 C439 1.511 . S
C437 C433 1.376 . S
C437 C436 1.392 . S
C437 H449 0.929 . S
C438 C434 1.531 . S
C438 H450 0.960 . S
C438 H451 0.962 . S
C438 H452 0.960 . S
C439 C436 1.511 . S
C439 H453 0.961 . S
C439 H454 0.961 . S
C439 H455 0.961 . S
C440 C441 1.370 . S
C440 C442 1.363 . S
C440 H456 0.931 . S
C441 C440 1.370 . S
C441 C445 1.408 . S
C442 C440 1.363 . S
C442 C443 1.370 . S
C442 C446 1.524 . S
C443 C435 1.503 . S
C443 C442 1.370 . S
C443 C444 1.403 . S
C444 C443 1.403 . S
C444 C445 1.404 . S
C444 C447 1.539 . S
C445 C441 1.408 . S
C445 C444 1.404 . S
C445 H457 0.930 . S
C446 C442 1.524 . S
C446 H458 0.956 . S
C446 H459 0.961 . S
C446 H460 0.961 . S
C447 C444 1.539 . S
C447 H461 0.958 . S
C447 H462 0.961 . S
C447 H463 0.960 . S
H448 C432 0.931 . S
H449 C437 0.929 . S
H450 C438 0.960 . S
H451 C438 0.962 . S
H452 C438 0.960 . S
H453 C439 0.961 . S
H454 C439 0.961 . S
H455 C439 0.961 . S
H456 C440 0.931 . S
H457 C445 0.930 . S
H458 C446 0.956 . S
H459 C446 0.961 . S
H460 C446 0.961 . S
H461 C447 0.958 . S
H462 C447 0.961 . S
H463 C447 0.960 . S
C464 C465 1.391 . S
C464 C466 1.394 1_655 S
C464 H480 0.931 . S
C465 C464 1.391 . S
C465 C469 1.376 . S
C466 C464 1.394 1_455 S
C466 C467 1.369 1_455 S
C466 C470 1.531 . S
C467 C466 1.369 1_655 S
C467 C468 1.410 . S
C467 C475 1.503 1_656 S
C468 C467 1.410 . S
C468 C469 1.392 . S
C468 C471 1.511 1_556 S
C469 C465 1.376 . S
C469 C468 1.392 . S
C469 H481 0.929 . S
C470 C466 1.531 . S
C470 H482 0.960 . S
C470 H483 0.962 . S
C470 H484 0.960 . S
C471 C468 1.511 1_554 S
C471 H485 0.961 . S
C471 H486 0.961 . S
C471 H487 0.961 . S
C472 C473 1.370 . S
C472 C474 1.363 . S
C472 H488 0.931 . S
C473 C472 1.370 . S
C473 C477 1.408 . S
C474 C472 1.363 . S
C474 C475 1.370 . S
C474 C478 1.524 . S
C475 C467 1.503 1_454 S
C475 C474 1.370 . S
C475 C476 1.403 . S
C476 C475 1.403 . S
C476 C477 1.404 . S
C476 C479 1.539 1_455 S
C477 C473 1.408 . S
C477 C476 1.404 . S
C477 H489 0.930 . S
C478 C474 1.524 . S
C478 H490 0.956 1_554 S
C478 H491 0.961 . S
C478 H492 0.961 . S
C479 C476 1.539 1_655 S
C479 H493 0.958 1_554 S
C479 H494 0.961 . S
C479 H495 0.960 1_554 S
H480 C464 0.931 . S
H481 C469 0.929 . S
H482 C470 0.960 . S
H483 C470 0.962 . S
H484 C470 0.960 . S
H485 C471 0.961 . S
H486 C471 0.961 . S
H487 C471 0.961 . S
H488 C472 0.931 . S
H489 C477 0.930 . S
H490 C478 0.956 1_556 S
H491 C478 0.961 . S
H492 C478 0.961 . S
H493 C479 0.958 1_556 S
H494 C479 0.961 . S
H495 C479 0.960 1_556 S
C496 C497 1.391 . S
C496 C498 1.394 . S
C496 H512 0.931 . S
C497 C496 1.391 . S
C497 C501 1.376 . S
C498 C496 1.394 . S
C498 C499 1.369 . S
C498 C502 1.531 . S
C499 C498 1.369 . S
C499 C500 1.410 . S
C499 C507 1.503 . S
C500 C499 1.410 . S
C500 C501 1.392 . S
C500 C503 1.511 . S
C501 C497 1.376 . S
C501 C500 1.392 . S
C501 H513 0.929 . S
C502 C498 1.531 . S
C502 H514 0.960 . S
C502 H515 0.962 . S
C502 H516 0.960 . S
C503 C500 1.511 . S
C503 H517 0.961 . S
C503 H518 0.961 . S
C503 H519 0.961 . S
C504 C505 1.370 . S
C504 C506 1.363 . S
C504 H520 0.931 . S
C505 C504 1.370 . S
C505 C509 1.408 . S
C506 C504 1.363 . S
C506 C507 1.370 . S
C506 C510 1.524 . S
C507 C499 1.503 . S
C507 C506 1.370 . S
C507 C508 1.403 . S
C508 C507 1.403 . S
C508 C509 1.404 . S
C508 C511 1.539 . S
C509 C505 1.408 . S
C509 C508 1.404 . S
C509 H521 0.930 . S
C510 C506 1.524 . S
C510 H522 0.956 . S
C510 H523 0.961 . S
C510 H524 0.961 . S
C511 C508 1.539 . S
C511 H525 0.958 . S
C511 H526 0.961 . S
C511 H527 0.960 . S
H512 C496 0.931 . S
H513 C501 0.929 . S
H514 C502 0.960 . S
H515 C502 0.962 . S
H516 C502 0.960 . S
H517 C503 0.961 . S
H518 C503 0.961 . S
H519 C503 0.961 . S
H520 C504 0.931 . S
H521 C509 0.930 . S
H522 C510 0.956 . S
H523 C510 0.961 . S
H524 C510 0.961 . S
H525 C511 0.958 . S
H526 C511 0.961 . S
H527 C511 0.960 . S
C528 C529 1.391 . S
C528 C530 1.394 . S
C528 H544 0.931 . S
C529 C528 1.391 . S
C529 C533 1.376 . S
C530 C528 1.394 . S
C530 C531 1.369 . S
C530 C534 1.531 . S
C531 C530 1.369 . S
C531 C532 1.410 . S
C531 C539 1.503 . S
C532 C531 1.410 . S
C532 C533 1.392 . S
C532 C535 1.511 . S
C533 C529 1.376 . S
C533 C532 1.392 . S
C533 H545 0.929 . S
C534 C530 1.531 . S
C534 H546 0.960 . S
C534 H547 0.962 . S
C534 H548 0.960 . S
C535 C532 1.511 . S
C535 H549 0.961 . S
C535 H550 0.961 . S
C535 H551 0.961 . S
C536 C537 1.370 . S
C536 C538 1.363 . S
C536 H552 0.931 . S
C537 C536 1.370 . S
C537 C541 1.408 . S
C538 C536 1.363 . S
C538 C539 1.370 . S
C538 C542 1.524 . S
C539 C531 1.503 . S
C539 C538 1.370 . S
C539 C540 1.403 . S
C540 C539 1.403 . S
C540 C541 1.404 . S
C540 C543 1.539 . S
C541 C537 1.408 . S
C541 C540 1.404 . S
C541 H553 0.930 . S
C542 C538 1.524 . S
C542 H554 0.956 . S
C542 H555 0.961 . S
C542 H556 0.961 . S
C543 C540 1.539 . S
C543 H557 0.958 . S
C543 H558 0.961 . S
C543 H559 0.960 . S
H544 C528 0.931 . S
H545 C533 0.929 . S
H546 C534 0.960 . S
H547 C534 0.962 . S
H548 C534 0.960 . S
H549 C535 0.961 . S
H550 C535 0.961 . S
H551 C535 0.961 . S
H552 C536 0.931 . S
H553 C541 0.930 . S
H554 C542 0.956 . S
H555 C542 0.961 . S
H556 C542 0.961 . S
H557 C543 0.958 . S
H558 C543 0.961 . S
H559 C543 0.960 . S
C560 C561 1.391 . S
C560 C562 1.394 1_655 S
C560 H576 0.931 1_655 S
C561 C560 1.391 . S
C561 C565 1.376 . S
C562 C560 1.394 1_455 S
C562 C563 1.369 1_455 S
C562 C566 1.531 . S
C563 C562 1.369 1_655 S
C563 C564 1.410 . S
C563 C571 1.503 1_664 S
C564 C563 1.410 . S
C564 C565 1.392 . S
C564 C567 1.511 1_564 S
C565 C561 1.376 . S
C565 C564 1.392 . S
C565 H577 0.929 . S
C566 C562 1.531 . S
C566 H578 0.960 . S
C566 H579 0.962 . S
C566 H580 0.960 . S
C567 C564 1.511 1_546 S
C567 H581 0.961 . S
C567 H582 0.961 . S
C567 H583 0.961 1_545 S
C568 C569 1.370 . S
C568 C570 1.363 . S
C568 H584 0.931 . S
C569 C568 1.370 . S
C569 C573 1.408 . S
C570 C568 1.363 . S
C570 C571 1.370 . S
C570 C574 1.524 1_556 S
C571 C563 1.503 1_446 S
C571 C570 1.370 . S
C571 C572 1.403 1_545 S
C572 C571 1.403 1_565 S
C572 C573 1.404 1_565 S
C572 C575 1.539 1_455 S
C573 C569 1.408 . S
C573 C572 1.404 1_545 S
C573 H585 0.930 1_545 S
C574 C570 1.524 1_554 S
C574 H586 0.956 . S
C574 H587 0.961 1_455 S
C574 H588 0.961 . S
C575 C572 1.539 1_655 S
C575 H589 0.958 1_655 S
C575 H590 0.961 . S
C575 H591 0.960 . S
H576 C560 0.931 1_455 S
H577 C565 0.929 . S
H578 C566 0.960 . S
H579 C566 0.962 . S
H580 C566 0.960 . S
H581 C567 0.961 . S
H582 C567 0.961 . S
H583 C567 0.961 1_565 S
H584 C568 0.931 . S
H585 C573 0.930 1_565 S
H586 C574 0.956 . S
H587 C574 0.961 1_655 S
H588 C574 0.961 . S
H589 C575 0.958 1_455 S
H590 C575 0.961 . S
H591 C575 0.960 . S
C592 C593 1.391 . S
C592 C594 1.394 . S
C592 H608 0.931 . S
C593 C592 1.391 . S
C593 C597 1.376 . S
C594 C592 1.394 . S
C594 C595 1.369 . S
C594 C598 1.531 1_565 S
C595 C594 1.369 . S
C595 C596 1.410 . S
C595 C603 1.503 1_565 S
C596 C595 1.410 . S
C596 C597 1.392 . S
C596 C599 1.511 . S
C597 C593 1.376 . S
C597 C596 1.392 . S
C597 H609 0.929 . S
C598 C594 1.531 1_545 S
C598 H610 0.960 . S
C598 H611 0.962 . S
C598 H612 0.960 . S
C599 C596 1.511 . S
C599 H613 0.961 . S
C599 H614 0.961 . S
C599 H615 0.961 . S
C600 C601 1.370 . S
C600 C602 1.363 . S
C600 H616 0.931 . S
C601 C600 1.370 . S
C601 C605 1.408 . S
C602 C600 1.363 . S
C602 C603 1.370 . S
C602 C606 1.524 . S
C603 C595 1.503 1_545 S
C603 C602 1.370 . S
C603 C604 1.403 1_545 S
C604 C603 1.403 1_565 S
C604 C605 1.404 1_565 S
C604 C607 1.539 . S
C605 C601 1.408 . S
C605 C604 1.404 1_545 S
C605 H617 0.930 1_545 S
C606 C602 1.524 . S
C606 H618 0.956 . S
C606 H619 0.961 . S
C606 H620 0.961 . S
C607 C604 1.539 . S
C607 H621 0.958 . S
C607 H622 0.961 . S
C607 H623 0.960 . S
H608 C592 0.931 . S
H609 C597 0.929 . S
H610 C598 0.960 . S
H611 C598 0.962 . S
H612 C598 0.960 . S
H613 C599 0.961 . S
H614 C599 0.961 . S
H615 C599 0.961 . S
H616 C600 0.931 . S
H617 C605 0.930 1_565 S
H618 C606 0.956 . S
H619 C606 0.961 . S
H620 C606 0.961 . S
H621 C607 0.958 . S
H622 C607 0.961 . S
H623 C607 0.960 . S
C624 C625 1.391 . S
C624 C626 1.394 . S
C624 H640 0.931 . S
C625 C624 1.391 . S
C625 C629 1.376 . S
C626 C624 1.394 . S
C626 C627 1.369 . S
C626 C630 1.531 . S
C627 C626 1.369 . S
C627 C628 1.410 . S
C627 C635 1.503 . S
C628 C627 1.410 . S
C628 C629 1.392 . S
C628 C631 1.511 . S
C629 C625 1.376 . S
C629 C628 1.392 . S
C629 H641 0.929 . S
C630 C626 1.531 . S
C630 H642 0.960 . S
C630 H643 0.962 . S
C630 H644 0.960 . S
C631 C628 1.511 . S
C631 H645 0.961 . S
C631 H646 0.961 . S
C631 H647 0.961 . S
C632 C633 1.370 . S
C632 C634 1.363 . S
C632 H648 0.931 . S
C633 C632 1.370 . S
C633 C637 1.408 . S
C634 C632 1.363 . S
C634 C635 1.370 1_554 S
C634 C638 1.524 . S
C635 C627 1.503 . S
C635 C634 1.370 1_556 S
C635 C636 1.403 . S
C636 C635 1.403 . S
C636 C637 1.404 1_556 S
C636 C639 1.539 . S
C637 C633 1.408 . S
C637 C636 1.404 1_554 S
C637 H649 0.930 . S
C638 C634 1.524 . S
C638 H650 0.956 . S
C638 H651 0.961 . S
C638 H652 0.961 . S
C639 C636 1.539 . S
C639 H653 0.958 . S
C639 H654 0.961 . S
C639 H655 0.960 . S
H640 C624 0.931 . S
H641 C629 0.929 . S
H642 C630 0.960 . S
H643 C630 0.962 . S
H644 C630 0.960 . S
H645 C631 0.961 . S
H646 C631 0.961 . S
H647 C631 0.961 . S
H648 C632 0.931 . S
H649 C637 0.930 . S
H650 C638 0.956 . S
H651 C638 0.961 . S
H652 C638 0.961 . S
H653 C639 0.958 . S
H654 C639 0.961 . S
H655 C639 0.960 . S
C656 C657 1.391 . S
C656 C658 1.394 . S
C656 H672 0.931 . S
C657 C656 1.391 . S
C657 C661 1.376 . S
C658 C656 1.394 . S
C658 C659 1.369 . S
C658 C662 1.531 . S
C659 C658 1.369 . S
C659 C660 1.410 . S
C659 C667 1.503 . S
C660 C659 1.410 . S
C660 C661 1.392 . S
C660 C663 1.511 . S
C661 C657 1.376 . S
C661 C660 1.392 . S
C661 H673 0.929 . S
C662 C658 1.531 . S
C662 H674 0.960 . S
C662 H675 0.962 . S
C662 H676 0.960 . S
C663 C660 1.511 . S
C663 H677 0.961 . S
C663 H678 0.961 . S
C663 H679 0.961 . S
C664 C665 1.370 . S
C664 C666 1.363 . S
C664 H680 0.931 . S
C665 C664 1.370 . S
C665 C669 1.408 . S
C666 C664 1.363 . S
C666 C667 1.370 . S
C666 C670 1.524 . S
C667 C659 1.503 . S
C667 C666 1.370 . S
C667 C668 1.403 . S
C668 C667 1.403 . S
C668 C669 1.404 . S
C668 C671 1.539 . S
C669 C665 1.408 . S
C669 C668 1.404 . S
C669 H681 0.930 . S
C670 C666 1.524 . S
C670 H682 0.956 . S
C670 H683 0.961 . S
C670 H684 0.961 . S
C671 C668 1.539 . S
C671 H685 0.958 . S
C671 H686 0.961 . S
C671 H687 0.960 . S
H672 C656 0.931 . S
H673 C661 0.929 . S
H674 C662 0.960 . S
H675 C662 0.962 . S
H676 C662 0.960 . S
H677 C663 0.961 . S
H678 C663 0.961 . S
H679 C663 0.961 . S
H680 C664 0.931 . S
H681 C669 0.930 . S
H682 C670 0.956 . S
H683 C670 0.961 . S
H684 C670 0.961 . S
H685 C671 0.958 . S
H686 C671 0.961 . S
H687 C671 0.960 . S
C688 C689 1.391 . S
C688 C690 1.394 . S
C688 H704 0.931 . S
C689 C688 1.391 . S
C689 C693 1.376 . S
C690 C688 1.394 . S
C690 C691 1.369 . S
C690 C694 1.531 . S
C691 C690 1.369 . S
C691 C692 1.410 . S
C691 C699 1.503 . S
C692 C691 1.410 . S
C692 C693 1.392 . S
C692 C695 1.511 . S
C693 C689 1.376 . S
C693 C692 1.392 . S
C693 H705 0.929 . S
C694 C690 1.531 . S
C694 H706 0.960 . S
C694 H707 0.962 . S
C694 H708 0.960 . S
C695 C692 1.511 . S
C695 H709 0.961 . S
C695 H710 0.961 . S
C695 H711 0.961 . S
C696 C697 1.370 . S
C696 C698 1.363 . S
C696 H712 0.931 . S
C697 C696 1.370 . S
C697 C701 1.408 . S
C698 C696 1.363 . S
C698 C699 1.370 . S
C698 C702 1.524 . S
C699 C691 1.503 . S
C699 C698 1.370 . S
C699 C700 1.403 . S
C700 C699 1.403 . S
C700 C701 1.404 . S
C700 C703 1.539 . S
C701 C697 1.408 . S
C701 C700 1.404 . S
C701 H713 0.930 . S
C702 C698 1.524 . S
C702 H714 0.956 . S
C702 H715 0.961 . S
C702 H716 0.961 . S
C703 C700 1.539 . S
C703 H717 0.958 . S
C703 H718 0.961 . S
C703 H719 0.960 . S
H704 C688 0.931 . S
H705 C693 0.929 . S
H706 C694 0.960 . S
H707 C694 0.962 . S
H708 C694 0.960 . S
H709 C695 0.961 . S
H710 C695 0.961 . S
H711 C695 0.961 . S
H712 C696 0.931 . S
H713 C701 0.930 . S
H714 C702 0.956 . S
H715 C702 0.961 . S
H716 C702 0.961 . S
H717 C703 0.958 . S
H718 C703 0.961 . S
H719 C703 0.960 . S
C720 C721 1.391 . S
C720 C722 1.394 . S
C720 H736 0.931 . S
C721 C720 1.391 . S
C721 C725 1.376 . S
C722 C720 1.394 . S
C722 C723 1.369 . S
C722 C726 1.531 . S
C723 C722 1.369 . S
C723 C724 1.410 . S
C723 C731 1.503 . S
C724 C723 1.410 . S
C724 C725 1.392 . S
C724 C727 1.511 . S
C725 C721 1.376 . S
C725 C724 1.392 . S
C725 H737 0.929 . S
C726 C722 1.531 . S
C726 H738 0.960 . S
C726 H739 0.962 . S
C726 H740 0.960 . S
C727 C724 1.511 . S
C727 H741 0.961 . S
C727 H742 0.961 . S
C727 H743 0.961 . S
C728 C729 1.370 . S
C728 C730 1.363 . S
C728 H744 0.931 . S
C729 C728 1.370 . S
C729 C733 1.408 . S
C730 C728 1.363 . S
C730 C731 1.370 . S
C730 C734 1.524 . S
C731 C723 1.503 . S
C731 C730 1.370 . S
C731 C732 1.403 . S
C732 C731 1.403 . S
C732 C733 1.404 . S
C732 C735 1.539 . S
C733 C729 1.408 . S
C733 C732 1.404 . S
C733 H745 0.930 . S
C734 C730 1.524 . S
C734 H746 0.956 . S
C734 H747 0.961 . S
C734 H748 0.961 . S
C735 C732 1.539 . S
C735 H749 0.958 . S
C735 H750 0.961 . S
C735 H751 0.960 . S
H736 C720 0.931 . S
H737 C725 0.929 . S
H738 C726 0.960 . S
H739 C726 0.962 . S
H740 C726 0.960 . S
H741 C727 0.961 . S
H742 C727 0.961 . S
H743 C727 0.961 . S
H744 C728 0.931 . S
H745 C733 0.930 . S
H746 C734 0.956 . S
H747 C734 0.961 . S
H748 C734 0.961 . S
H749 C735 0.958 . S
H750 C735 0.961 . S
H751 C735 0.960 . S
C752 C753 1.391 . S
C752 C754 1.394 . S
C752 H768 0.931 . S
C753 C752 1.391 . S
C753 C757 1.376 . S
C754 C752 1.394 . S
C754 C755 1.369 . S
C754 C758 1.531 . S
C755 C754 1.369 . S
C755 C756 1.410 . S
C755 C763 1.503 . S
C756 C755 1.410 . S
C756 C757 1.392 . S
C756 C759 1.511 . S
C757 C753 1.376 . S
C757 C756 1.392 . S
C757 H769 0.929 . S
C758 C754 1.531 . S
C758 H770 0.960 . S
C758 H771 0.962 . S
C758 H772 0.960 . S
C759 C756 1.511 . S
C759 H773 0.961 . S
C759 H774 0.961 1_554 S
C759 H775 0.961 . S
C760 C761 1.370 . S
C760 C762 1.363 . S
C760 H776 0.931 . S
C761 C760 1.370 . S
C761 C765 1.408 . S
C762 C760 1.363 . S
C762 C763 1.370 1_556 S
C762 C766 1.524 . S
C763 C755 1.503 . S
C763 C762 1.370 1_554 S
C763 C764 1.403 1_554 S
C764 C763 1.403 1_556 S
C764 C765 1.404 . S
C764 C767 1.539 1_556 S
C765 C761 1.408 . S
C765 C764 1.404 . S
C765 H777 0.930 . S
C766 C762 1.524 . S
C766 H778 0.956 1_556 S
C766 H779 0.961 . S
C766 H780 0.961 . S
C767 C764 1.539 1_554 S
C767 H781 0.958 . S
C767 H782 0.961 1_554 S
C767 H783 0.960 . S
H768 C752 0.931 . S
H769 C757 0.929 . S
H770 C758 0.960 . S
H771 C758 0.962 . S
H772 C758 0.960 . S
H773 C759 0.961 . S
H774 C759 0.961 1_556 S
H775 C759 0.961 . S
H776 C760 0.931 . S
H777 C765 0.930 . S
H778 C766 0.956 1_554 S
H779 C766 0.961 . S
H780 C766 0.961 . S
H781 C767 0.958 . S
H782 C767 0.961 1_556 S
H783 C767 0.960 . S
C784 C785 1.391 . S
C784 C786 1.394 . S
C784 H800 0.931 . S
C785 C784 1.391 . S
C785 C789 1.376 . S
C786 C784 1.394 . S
C786 C787 1.369 . S
C786 C790 1.531 . S
C787 C786 1.369 . S
C787 C788 1.410 . S
C787 C795 1.503 . S
C788 C787 1.410 . S
C788 C789 1.392 . S
C788 C791 1.511 . S
C789 C785 1.376 . S
C789 C788 1.392 . S
C789 H801 0.929 . S
C790 C786 1.531 . S
C790 H802 0.960 . S
C790 H803 0.962 . S
C790 H804 0.960 . S
C791 C788 1.511 . S
C791 H805 0.961 . S
C791 H806 0.961 . S
C791 H807 0.961 . S
C792 C793 1.370 . S
C792 C794 1.363 . S
C792 H808 0.931 . S
C793 C792 1.370 . S
C793 C797 1.408 . S
C794 C792 1.363 . S
C794 C795 1.370 . S
C794 C798 1.524 . S
C795 C787 1.503 . S
C795 C794 1.370 . S
C795 C796 1.403 . S
C796 C795 1.403 . S
C796 C797 1.404 . S
C796 C799 1.539 . S
C797 C793 1.408 . S
C797 C796 1.404 . S
C797 H809 0.930 . S
C798 C794 1.524 . S
C798 H810 0.956 . S
C798 H811 0.961 . S
C798 H812 0.961 . S
C799 C796 1.539 . S
C799 H813 0.958 . S
C799 H814 0.961 . S
C799 H815 0.960 . S
H800 C784 0.931 . S
H801 C789 0.929 . S
H802 C790 0.960 . S
H803 C790 0.962 . S
H804 C790 0.960 . S
H805 C791 0.961 . S
H806 C791 0.961 . S
H807 C791 0.961 . S
H808 C792 0.931 . S
H809 C797 0.930 . S
H810 C798 0.956 . S
H811 C798 0.961 . S
H812 C798 0.961 . S
H813 C799 0.958 . S
H814 C799 0.961 . S
H815 C799 0.960 . S
C816 C817 1.391 . S
C816 C818 1.394 . S
C816 H832 0.931 . S
C817 C816 1.391 . S
C817 C821 1.376 . S
C818 C816 1.394 . S
C818 C819 1.369 . S
C818 C822 1.531 . S
C819 C818 1.369 . S
C819 C820 1.410 . S
C819 C827 1.503 . S
C820 C819 1.410 . S
C820 C821 1.392 . S
C820 C823 1.511 . S
C821 C817 1.376 . S
C821 C820 1.392 . S
C821 H833 0.929 . S
C822 C818 1.531 . S
C822 H834 0.960 . S
C822 H835 0.962 . S
C822 H836 0.960 . S
C823 C820 1.511 . S
C823 H837 0.961 . S
C823 H838 0.961 . S
C823 H839 0.961 . S
C824 C825 1.370 . S
C824 C826 1.363 . S
C824 H840 0.931 . S
C825 C824 1.370 . S
C825 C829 1.408 . S
C826 C824 1.363 . S
C826 C827 1.370 . S
C826 C830 1.524 . S
C827 C819 1.503 . S
C827 C826 1.370 . S
C827 C828 1.403 . S
C828 C827 1.403 . S
C828 C829 1.404 . S
C828 C831 1.539 . S
C829 C825 1.408 . S
C829 C828 1.404 . S
C829 H841 0.930 . S
C830 C826 1.524 . S
C830 H842 0.956 . S
C830 H843 0.961 . S
C830 H844 0.961 . S
C831 C828 1.539 . S
C831 H845 0.958 . S
C831 H846 0.961 . S
C831 H847 0.960 . S
H832 C816 0.931 . S
H833 C821 0.929 . S
H834 C822 0.960 . S
H835 C822 0.962 . S
H836 C822 0.960 . S
H837 C823 0.961 . S
H838 C823 0.961 . S
H839 C823 0.961 . S
H840 C824 0.931 . S
H841 C829 0.930 . S
H842 C830 0.956 . S
H843 C830 0.961 . S
H844 C830 0.961 . S
H845 C831 0.958 . S
H846 C831 0.961 . S
H847 C831 0.960 . S
C848 C849 1.391 . S
C848 C850 1.394 . S
C848 H864 0.931 . S
C849 C848 1.391 . S
C849 C853 1.376 . S
C850 C848 1.394 . S
C850 C851 1.369 . S
C850 C854 1.531 . S
C851 C850 1.369 . S
C851 C852 1.410 . S
C851 C859 1.503 . S
C852 C851 1.410 . S
C852 C853 1.392 . S
C852 C855 1.511 . S
C853 C849 1.376 . S
C853 C852 1.392 . S
C853 H865 0.929 . S
C854 C850 1.531 . S
C854 H866 0.960 . S
C854 H867 0.962 . S
C854 H868 0.960 . S
C855 C852 1.511 . S
C855 H869 0.961 . S
C855 H870 0.961 . S
C855 H871 0.961 . S
C856 C857 1.370 . S
C856 C858 1.363 . S
C856 H872 0.931 . S
C857 C856 1.370 . S
C857 C861 1.408 . S
C858 C856 1.363 . S
C858 C859 1.370 . S
C858 C862 1.524 . S
C859 C851 1.503 . S
C859 C858 1.370 . S
C859 C860 1.403 . S
C860 C859 1.403 . S
C860 C861 1.404 . S
C860 C863 1.539 . S
C861 C857 1.408 . S
C861 C860 1.404 . S
C861 H873 0.930 . S
C862 C858 1.524 . S
C862 H874 0.956 . S
C862 H875 0.961 . S
C862 H876 0.961 . S
C863 C860 1.539 . S
C863 H877 0.958 . S
C863 H878 0.961 . S
C863 H879 0.960 . S
H864 C848 0.931 . S
H865 C853 0.929 . S
H866 C854 0.960 . S
H867 C854 0.962 . S
H868 C854 0.960 . S
H869 C855 0.961 . S
H870 C855 0.961 . S
H871 C855 0.961 . S
H872 C856 0.931 . S
H873 C861 0.930 . S
H874 C862 0.956 . S
H875 C862 0.961 . S
H876 C862 0.961 . S
H877 C863 0.958 . S
H878 C863 0.961 . S
H879 C863 0.960 . S
C880 C881 1.391 . S
C880 C882 1.394 . S
C880 H896 0.931 . S
C881 C880 1.391 . S
C881 C885 1.376 . S
C882 C880 1.394 . S
C882 C883 1.369 . S
C882 C886 1.531 . S
C883 C882 1.369 . S
C883 C884 1.410 . S
C883 C891 1.503 . S
C884 C883 1.410 . S
C884 C885 1.392 . S
C884 C887 1.511 . S
C885 C881 1.376 . S
C885 C884 1.392 . S
C885 H897 0.929 . S
C886 C882 1.531 . S
C886 H898 0.960 . S
C886 H899 0.962 . S
C886 H900 0.960 . S
C887 C884 1.511 . S
C887 H901 0.961 . S
C887 H902 0.961 . S
C887 H903 0.961 . S
C888 C889 1.370 . S
C888 C890 1.363 . S
C888 H904 0.931 . S
C889 C888 1.370 . S
C889 C893 1.408 . S
C890 C888 1.363 . S
C890 C891 1.370 . S
C890 C894 1.524 . S
C891 C883 1.503 . S
C891 C890 1.370 . S
C891 C892 1.403 . S
C892 C891 1.403 . S
C892 C893 1.404 . S
C892 C895 1.539 . S
C893 C889 1.408 . S
C893 C892 1.404 . S
C893 H905 0.930 . S
C894 C890 1.524 . S
C894 H906 0.956 . S
C894 H907 0.961 . S
C894 H908 0.961 . S
C895 C892 1.539 . S
C895 H909 0.958 . S
C895 H910 0.961 . S
C895 H911 0.960 . S
H896 C880 0.931 . S
H897 C885 0.929 . S
H898 C886 0.960 . S
H899 C886 0.962 . S
H900 C886 0.960 . S
H901 C887 0.961 . S
H902 C887 0.961 . S
H903 C887 0.961 . S
H904 C888 0.931 . S
H905 C893 0.930 . S
H906 C894 0.956 . S
H907 C894 0.961 . S
H908 C894 0.961 . S
H909 C895 0.958 . S
H910 C895 0.961 . S
H911 C895 0.960 . S
C912 C913 1.391 . S
C912 C914 1.394 . S
C912 H928 0.931 . S
C913 C912 1.391 . S
C913 C917 1.376 . S
C914 C912 1.394 . S
C914 C915 1.369 . S
C914 C918 1.531 . S
C915 C914 1.369 . S
C915 C916 1.409 1_545 S
C915 C923 1.503 1_545 S
C916 C915 1.409 1_565 S
C916 C917 1.392 1_565 S
C916 C919 1.512 . S
C917 C913 1.376 . S
C917 C916 1.392 1_545 S
C917 H929 0.929 . S
C918 C914 1.531 . S
C918 H930 0.960 . S
C918 H931 0.962 . S
C918 H932 0.960 . S
C919 C916 1.512 . S
C919 H933 0.961 . S
C919 H934 0.961 . S
C919 H935 0.961 . S
C920 C921 1.370 . S
C920 C922 1.363 . S
C920 H936 0.931 . S
C921 C920 1.370 . S
C921 C925 1.408 . S
C922 C920 1.363 . S
C922 C923 1.370 . S
C922 C926 1.524 . S
C923 C915 1.503 1_565 S
C923 C922 1.370 . S
C923 C924 1.403 . S
C924 C923 1.403 . S
C924 C925 1.404 . S
C924 C927 1.539 1_565 S
C925 C921 1.408 . S
C925 C924 1.404 . S
C925 H937 0.930 . S
C926 C922 1.524 . S
C926 H938 0.956 . S
C926 H939 0.961 . S
C926 H940 0.961 . S
C927 C924 1.539 1_545 S
C927 H941 0.958 . S
C927 H942 0.961 . S
C927 H943 0.960 . S
H928 C912 0.931 . S
H929 C917 0.929 . S
H930 C918 0.960 . S
H931 C918 0.962 . S
H932 C918 0.960 . S
H933 C919 0.961 . S
H934 C919 0.961 . S
H935 C919 0.961 . S
H936 C920 0.931 . S
H937 C925 0.930 . S
H938 C926 0.956 . S
H939 C926 0.961 . S
H940 C926 0.961 . S
H941 C927 0.958 . S
H942 C927 0.961 . S
H943 C927 0.960 . S
C944 C945 1.391 . S
C944 C946 1.394 1_554 S
C944 H960 0.931 . S
C945 C944 1.391 . S
C945 C949 1.376 . S
C946 C944 1.394 1_556 S
C946 C947 1.369 . S
C946 C950 1.531 . S
C947 C946 1.369 . S
C947 C948 1.410 1_556 S
C947 C955 1.503 . S
C948 C947 1.410 1_554 S
C948 C949 1.392 . S
C948 C951 1.511 . S
C949 C945 1.376 . S
C949 C948 1.392 . S
C949 H961 0.929 . S
C950 C946 1.531 . S
C950 H962 0.960 . S
C950 H963 0.962 . S
C950 H964 0.960 . S
C951 C948 1.511 . S
C951 H965 0.961 . S
C951 H966 0.961 . S
C951 H967 0.961 . S
C952 C953 1.370 . S
C952 C954 1.363 . S
C952 H968 0.931 . S
C953 C952 1.370 . S
C953 C957 1.408 . S
C954 C952 1.363 . S
C954 C955 1.370 . S
C954 C958 1.524 . S
C955 C947 1.503 . S
C955 C954 1.370 . S
C955 C956 1.403 . S
C956 C955 1.403 . S
C956 C957 1.404 . S
C956 C959 1.539 . S
C957 C953 1.408 . S
C957 C956 1.404 . S
C957 H969 0.930 . S
C958 C954 1.524 . S
C958 H970 0.956 . S
C958 H971 0.961 1_556 S
C958 H972 0.961 . S
C959 C956 1.539 . S
C959 H973 0.958 . S
C959 H974 0.961 . S
C959 H975 0.960 . S
H960 C944 0.931 . S
H961 C949 0.929 . S
H962 C950 0.960 . S
H963 C950 0.962 . S
H964 C950 0.960 . S
H965 C951 0.961 . S
H966 C951 0.961 . S
H967 C951 0.961 . S
H968 C952 0.931 . S
H969 C957 0.930 . S
H970 C958 0.956 . S
H971 C958 0.961 1_554 S
H972 C958 0.961 . S
H973 C959 0.958 . S
H974 C959 0.961 . S
H975 C959 0.960 . S
C976 C977 1.391 . S
C976 C978 1.394 . S
C976 H992 0.931 . S
C977 C976 1.391 . S
C977 C981 1.376 . S
C978 C976 1.394 . S
C978 C979 1.369 . S
C978 C982 1.531 . S
C979 C978 1.369 . S
C979 C980 1.410 . S
C979 C987 1.503 . S
C980 C979 1.410 . S
C980 C981 1.392 . S
C980 C983 1.511 1_545 S
C981 C977 1.376 . S
C981 C980 1.392 . S
C981 H993 0.929 . S
C982 C978 1.531 . S
C982 H994 0.960 . S
C982 H995 0.962 . S
C982 H996 0.960 . S
C983 C980 1.511 1_565 S
C983 H997 0.961 . S
C983 H998 0.961 . S
C983 H999 0.961 1_565 S
C984 C985 1.370 . S
C984 C986 1.363 . S
C984 H1000 0.931 . S
C985 C984 1.370 . S
C985 C989 1.408 . S
C986 C984 1.363 . S
C986 C987 1.370 1_565 S
C986 C990 1.524 . S
C987 C979 1.503 . S
C987 C986 1.370 1_545 S
C987 C988 1.403 . S
C988 C987 1.403 . S
C988 C989 1.404 1_545 S
C988 C991 1.539 . S
C989 C985 1.408 . S
C989 C988 1.404 1_565 S
C989 H1001 0.930 1_565 S
C990 C986 1.524 . S
C990 H1002 0.956 . S
C990 H1003 0.961 . S
C990 H1004 0.961 . S
C991 C988 1.539 . S
C991 H1005 0.958 . S
C991 H1006 0.961 . S
C991 H1007 0.960 . S
H992 C976 0.931 . S
H993 C981 0.929 . S
H994 C982 0.960 . S
H995 C982 0.962 . S
H996 C982 0.960 . S
H997 C983 0.961 . S
H998 C983 0.961 . S
H999 C983 0.961 1_545 S
H1000 C984 0.931 . S
H1001 C989 0.930 1_545 S
H1002 C990 0.956 . S
H1003 C990 0.961 . S
H1004 C990 0.961 . S
H1005 C991 0.958 . S
H1006 C991 0.961 . S
H1007 C991 0.960 . S
C1008 C1009 1.391 . S
C1008 C1010 1.394 . S
C1008 H1024 0.931 . S
C1009 C1008 1.391 . S
C1009 C1013 1.376 . S
C1010 C1008 1.394 . S
C1010 C1011 1.369 . S
C1010 C1014 1.531 . S
C1011 C1010 1.369 . S
C1011 C1012 1.410 . S
C1011 C1019 1.503 . S
C1012 C1011 1.410 . S
C1012 C1013 1.392 . S
C1012 C1015 1.511 . S
C1013 C1009 1.376 . S
C1013 C1012 1.392 . S
C1013 H1025 0.929 . S
C1014 C1010 1.531 . S
C1014 H1026 0.960 . S
C1014 H1027 0.962 . S
C1014 H1028 0.960 . S
C1015 C1012 1.511 . S
C1015 H1029 0.961 . S
C1015 H1030 0.961 . S
C1015 H1031 0.961 . S
C1016 C1017 1.370 . S
C1016 C1018 1.363 . S
C1016 H1032 0.931 . S
C1017 C1016 1.370 . S
C1017 C1021 1.408 . S
C1018 C1016 1.363 . S
C1018 C1019 1.370 . S
C1018 C1022 1.524 . S
C1019 C1011 1.503 . S
C1019 C1018 1.370 . S
C1019 C1020 1.403 . S
C1020 C1019 1.403 . S
C1020 C1021 1.404 . S
C1020 C1023 1.539 . S
C1021 C1017 1.408 . S
C1021 C1020 1.404 . S
C1021 H1033 0.930 . S
C1022 C1018 1.524 . S
C1022 H1034 0.956 . S
C1022 H1035 0.961 . S
C1022 H1036 0.961 . S
C1023 C1020 1.539 . S
C1023 H1037 0.958 . S
C1023 H1038 0.961 . S
C1023 H1039 0.960 . S
H1024 C1008 0.931 . S
H1025 C1013 0.929 . S
H1026 C1014 0.960 . S
H1027 C1014 0.962 . S
H1028 C1014 0.960 . S
H1029 C1015 0.961 . S
H1030 C1015 0.961 . S
H1031 C1015 0.961 . S
H1032 C1016 0.931 . S
H1033 C1021 0.930 . S
H1034 C1022 0.956 . S
H1035 C1022 0.961 . S
H1036 C1022 0.961 . S
H1037 C1023 0.958 . S
H1038 C1023 0.961 . S
H1039 C1023 0.960 . S
C1040 C1041 1.391 . S
C1040 C1042 1.394 1_565 S
C1040 H1056 0.931 . S
C1041 C1040 1.391 . S
C1041 C1045 1.376 . S
C1042 C1040 1.394 1_545 S
C1042 C1043 1.369 . S
C1042 C1046 1.531 . S
C1043 C1042 1.369 . S
C1043 C1044 1.410 1_545 S
C1043 C1051 1.503 . S
C1044 C1043 1.410 1_565 S
C1044 C1045 1.392 . S
C1044 C1047 1.511 . S
C1045 C1041 1.376 . S
C1045 C1044 1.392 . S
C1045 H1057 0.929 . S
C1046 C1042 1.531 . S
C1046 H1058 0.960 . S
C1046 H1059 0.962 . S
C1046 H1060 0.960 . S
C1047 C1044 1.511 . S
C1047 H1061 0.961 . S
C1047 H1062 0.961 . S
C1047 H1063 0.961 . S
C1048 C1049 1.370 . S
C1048 C1050 1.363 . S
C1048 H1064 0.931 . S
C1049 C1048 1.370 . S
C1049 C1053 1.408 . S
C1050 C1048 1.363 . S
C1050 C1051 1.370 . S
C1050 C1054 1.524 1_545 S
C1051 C1043 1.503 . S
C1051 C1050 1.370 . S
C1051 C1052 1.403 . S
C1052 C1051 1.403 . S
C1052 C1053 1.404 . S
C1052 C1055 1.539 . S
C1053 C1049 1.408 . S
C1053 C1052 1.404 . S
C1053 H1065 0.930 . S
C1054 C1050 1.524 1_565 S
C1054 H1066 0.956 . S
C1054 H1067 0.961 . S
C1054 H1068 0.961 . S
C1055 C1052 1.539 . S
C1055 H1069 0.958 . S
C1055 H1070 0.961 . S
C1055 H1071 0.960 . S
H1056 C1040 0.931 . S
H1057 C1045 0.929 . S
H1058 C1046 0.960 . S
H1059 C1046 0.962 . S
H1060 C1046 0.960 . S
H1061 C1047 0.961 . S
H1062 C1047 0.961 . S
H1063 C1047 0.961 . S
H1064 C1048 0.931 . S
H1065 C1053 0.930 . S
H1066 C1054 0.956 . S
H1067 C1054 0.961 . S
H1068 C1054 0.961 . S
H1069 C1055 0.958 . S
H1070 C1055 0.961 . S
H1071 C1055 0.960 . S
C1072 C1073 1.391 . S
C1072 C1074 1.394 . S
C1072 H1088 0.931 . S
C1073 C1072 1.391 . S
C1073 C1077 1.376 . S
C1074 C1072 1.394 . S
C1074 C1075 1.369 . S
C1074 C1078 1.531 . S
C1075 C1074 1.369 . S
C1075 C1076 1.410 . S
C1075 C1083 1.509 . S
C1076 C1075 1.410 . S
C1076 C1077 1.392 . S
C1076 C1079 1.511 . S
C1077 C1073 1.376 . S
C1077 C1076 1.392 . S
C1077 H1089 0.929 . S
C1078 C1074 1.531 . S
C1078 H1090 0.960 1_554 S
C1078 H1091 0.962 . S
C1078 H1092 0.960 . S
C1079 C1076 1.511 . S
C1079 H1093 0.961 . S
C1079 H1094 0.961 . S
C1079 H1095 0.961 . S
C1080 C1081 1.370 . S
C1080 C1082 1.363 . S
C1080 H1096 0.931 . S
C1081 C1080 1.370 . S
C1081 C1085 1.408 . S
C1082 C1080 1.363 . S
C1082 C1083 1.370 1_556 S
C1082 C1086 1.524 1_556 S
C1083 C1075 1.509 . S
C1083 C1082 1.370 1_554 S
C1083 C1084 1.398 1_554 S
C1084 C1083 1.398 1_556 S
C1084 C1085 1.404 . S
C1084 C1087 1.539 . S
C1085 C1081 1.408 . S
C1085 C1084 1.404 . S
C1085 H1097 0.930 . S
C1086 C1082 1.524 1_554 S
C1086 H1098 0.956 . S
C1086 H1099 0.961 . S
C1086 H1100 0.961 . S
C1087 C1084 1.539 . S
C1087 H1101 0.958 . S
C1087 H1102 0.961 . S
C1087 H1103 0.990 . S
H1088 C1072 0.931 . S
H1089 C1077 0.929 . S
H1090 C1078 0.960 1_556 S
H1091 C1078 0.962 . S
H1092 C1078 0.960 . S
H1093 C1079 0.961 . S
H1094 C1079 0.961 . S
H1095 C1079 0.961 . S
H1096 C1080 0.931 . S
H1097 C1085 0.930 . S
H1098 C1086 0.956 . S
H1099 C1086 0.961 . S
H1100 C1086 0.961 . S
H1101 C1087 0.958 . S
H1102 C1087 0.961 . S
H1103 C1087 0.990 . S
C1104 C1105 1.391 . S
C1104 C1106 1.394 . S
C1104 H1120 0.931 . S
C1105 C1104 1.391 . S
C1105 C1109 1.376 . S
C1106 C1104 1.394 . S
C1106 C1107 1.369 . S
C1106 C1110 1.531 . S
C1107 C1106 1.369 . S
C1107 C1108 1.410 . S
C1107 C1115 1.503 1_545 S
C1108 C1107 1.410 . S
C1108 C1109 1.392 . S
C1108 C1111 1.511 1_545 S
C1109 C1105 1.376 . S
C1109 C1108 1.392 . S
C1109 H1121 0.929 . S
C1110 C1106 1.531 . S
C1110 H1122 0.960 . S
C1110 H1123 0.962 . S
C1110 H1124 0.960 . S
C1111 C1108 1.511 1_565 S
C1111 H1125 0.961 . S
C1111 H1126 0.961 . S
C1111 H1127 0.961 . S
C1112 C1113 1.370 . S
C1112 C1114 1.363 . S
C1112 H1128 0.931 . S
C1113 C1112 1.370 . S
C1113 C1117 1.408 . S
C1114 C1112 1.363 . S
C1114 C1115 1.370 . S
C1114 C1118 1.524 . S
C1115 C1107 1.503 1_565 S
C1115 C1114 1.370 . S
C1115 C1116 1.406 . S
C1116 C1115 1.406 . S
C1116 C1117 1.409 . S
C1116 C1119 1.532 1_565 S
C1117 C1113 1.408 . S
C1117 C1116 1.409 . S
C1117 H1129 0.930 . S
C1118 C1114 1.524 . S
C1118 H1130 0.956 . S
C1118 H1131 0.961 . S
C1118 H1132 0.961 . S
C1119 C1116 1.532 1_545 S
C1119 H1133 0.958 . S
C1119 H1134 0.961 . S
C1119 H1135 0.960 . S
H1120 C1104 0.931 . S
H1121 C1109 0.929 . S
H1122 C1110 0.960 . S
H1123 C1110 0.962 . S
H1124 C1110 0.960 . S
H1125 C1111 0.961 . S
H1126 C1111 0.961 . S
H1127 C1111 0.961 . S
H1128 C1112 0.931 . S
H1129 C1117 0.930 . S
H1130 C1118 0.956 . S
H1131 C1118 0.961 . S
H1132 C1118 0.961 . S
H1133 C1119 0.958 . S
H1134 C1119 0.961 . S
H1135 C1119 0.960 . S
C1136 C1137 1.391 . S
C1136 C1138 1.394 . S
C1136 H1152 0.931 . S
C1137 C1136 1.391 . S
C1137 C1141 1.376 . S
C1138 C1136 1.394 . S
C1138 C1139 1.369 . S
C1138 C1142 1.531 . S
C1139 C1138 1.369 . S
C1139 C1140 1.410 . S
C1139 C1147 1.503 . S
C1140 C1139 1.410 . S
C1140 C1141 1.392 . S
C1140 C1143 1.511 . S
C1141 C1137 1.376 . S
C1141 C1140 1.392 . S
C1141 H1153 0.929 . S
C1142 C1138 1.531 . S
C1142 H1154 0.960 . S
C1142 H1155 0.962 . S
C1142 H1156 0.960 . S
C1143 C1140 1.511 . S
C1143 H1157 0.961 . S
C1143 H1158 0.961 . S
C1143 H1159 0.961 . S
C1144 C1145 1.370 . S
C1144 C1146 1.363 . S
C1144 H1160 0.931 . S
C1145 C1144 1.370 . S
C1145 C1149 1.408 . S
C1146 C1144 1.363 . S
C1146 C1147 1.370 . S
C1146 C1150 1.524 . S
C1147 C1139 1.503 . S
C1147 C1146 1.370 . S
C1147 C1148 1.403 . S
C1148 C1147 1.403 . S
C1148 C1149 1.404 . S
C1148 C1151 1.539 . S
C1149 C1145 1.408 . S
C1149 C1148 1.404 . S
C1149 H1161 0.930 . S
C1150 C1146 1.524 . S
C1150 H1162 0.956 . S
C1150 H1163 0.961 . S
C1150 H1164 0.961 . S
C1151 C1148 1.539 . S
C1151 H1165 0.958 . S
C1151 H1166 0.961 . S
C1151 H1167 0.960 . S
H1152 C1136 0.931 . S
H1153 C1141 0.929 . S
H1154 C1142 0.960 . S
H1155 C1142 0.962 . S
H1156 C1142 0.960 . S
H1157 C1143 0.961 . S
H1158 C1143 0.961 . S
H1159 C1143 0.961 . S
H1160 C1144 0.931 . S
H1161 C1149 0.930 . S
H1162 C1150 0.956 . S
H1163 C1150 0.961 . S
H1164 C1150 0.961 . S
H1165 C1151 0.958 . S
H1166 C1151 0.961 . S
H1167 C1151 0.960 . S
C1168 C1169 1.391 . S
C1168 C1170 1.394 . S
C1168 H1184 0.931 . S
C1169 C1168 1.391 . S
C1169 C1173 1.376 . S
C1170 C1168 1.394 . S
C1170 C1171 1.369 . S
C1170 C1174 1.531 . S
C1171 C1170 1.369 . S
C1171 C1172 1.410 . S
C1171 C1179 1.503 . S
C1172 C1171 1.410 . S
C1172 C1173 1.392 . S
C1172 C1175 1.511 . S
C1173 C1169 1.376 . S
C1173 C1172 1.392 . S
C1173 H1185 0.929 . S
C1174 C1170 1.531 . S
C1174 H1186 0.960 . S
C1174 H1187 0.962 . S
C1174 H1188 0.960 . S
C1175 C1172 1.511 . S
C1175 H1189 0.961 . S
C1175 H1190 0.961 . S
C1175 H1191 0.961 . S
C1176 C1177 1.370 . S
C1176 C1178 1.363 . S
C1176 H1192 0.931 . S
C1177 C1176 1.370 . S
C1177 C1181 1.408 . S
C1178 C1176 1.363 . S
C1178 C1179 1.370 . S
C1178 C1182 1.524 . S
C1179 C1171 1.503 . S
C1179 C1178 1.370 . S
C1179 C1180 1.403 . S
C1180 C1179 1.403 . S
C1180 C1181 1.404 . S
C1180 C1183 1.539 . S
C1181 C1177 1.408 . S
C1181 C1180 1.404 . S
C1181 H1193 0.930 . S
C1182 C1178 1.524 . S
C1182 H1194 0.956 . S
C1182 H1195 0.961 . S
C1182 H1196 0.961 . S
C1183 C1180 1.539 . S
C1183 H1197 0.958 . S
C1183 H1198 0.961 . S
C1183 H1199 0.960 . S
H1184 C1168 0.931 . S
H1185 C1173 0.929 . S
H1186 C1174 0.960 . S
H1187 C1174 0.962 . S
H1188 C1174 0.960 . S
H1189 C1175 0.961 . S
H1190 C1175 0.961 . S
H1191 C1175 0.961 . S
H1192 C1176 0.931 . S
H1193 C1181 0.930 . S
H1194 C1182 0.956 . S
H1195 C1182 0.961 . S
H1196 C1182 0.961 . S
H1197 C1183 0.958 . S
H1198 C1183 0.961 . S
H1199 C1183 0.960 . S
C1200 C1201 1.391 . S
C1200 C1202 1.394 . S
C1200 H1216 0.931 . S
C1201 C1200 1.391 . S
C1201 C1205 1.376 . S
C1202 C1200 1.394 . S
C1202 C1203 1.369 . S
C1202 C1206 1.531 1_655 S
C1203 C1202 1.369 . S
C1203 C1204 1.410 . S
C1203 C1211 1.503 1_655 S
C1204 C1203 1.410 . S
C1204 C1205 1.392 . S
C1204 C1207 1.511 . S
C1205 C1201 1.376 . S
C1205 C1204 1.392 . S
C1205 H1217 0.929 . S
C1206 C1202 1.531 1_455 S
C1206 H1218 0.960 . S
C1206 H1219 0.962 . S
C1206 H1220 0.960 . S
C1207 C1204 1.511 . S
C1207 H1221 0.961 . S
C1207 H1222 0.961 . S
C1207 H1223 0.961 . S
C1208 C1209 1.370 . S
C1208 C1210 1.363 . S
C1208 H1224 0.931 . S
C1209 C1208 1.370 . S
C1209 C1213 1.408 . S
C1210 C1208 1.363 . S
C1210 C1211 1.370 . S
C1210 C1214 1.524 1_455 S
C1211 C1203 1.503 1_455 S
C1211 C1210 1.370 . S
C1211 C1212 1.403 . S
C1212 C1211 1.403 . S
C1212 C1213 1.404 . S
C1212 C1215 1.539 . S
C1213 C1209 1.408 . S
C1213 C1212 1.404 . S
C1213 H1225 0.930 . S
C1214 C1210 1.524 1_655 S
C1214 H1226 0.956 . S
C1214 H1227 0.961 . S
C1214 H1228 0.961 . S
C1215 C1212 1.539 . S
C1215 H1229 0.958 . S
C1215 H1230 0.961 . S
C1215 H1231 0.960 . S
H1216 C1200 0.931 . S
H1217 C1205 0.929 . S
H1218 C1206 0.960 . S
H1219 C1206 0.962 . S
H1220 C1206 0.960 . S
H1221 C1207 0.961 . S
H1222 C1207 0.961 . S
H1223 C1207 0.961 . S
H1224 C1208 0.931 . S
H1225 C1213 0.930 . S
H1226 C1214 0.956 . S
H1227 C1214 0.961 . S
H1228 C1214 0.961 . S
H1229 C1215 0.958 . S
H1230 C1215 0.961 . S
H1231 C1215 0.960 . S
C1232 C1233 1.391 . S
C1232 C1234 1.394 . S
C1232 H1248 0.931 . S
C1233 C1232 1.391 . S
C1233 C1237 1.376 . S
C1234 C1232 1.394 . S
C1234 C1235 1.369 . S
C1234 C1238 1.531 . S
C1235 C1234 1.369 . S
C1235 C1236 1.410 . S
C1235 C1243 1.503 1_655 S
C1236 C1235 1.410 . S
C1236 C1237 1.392 . S
C1236 C1239 1.511 1_655 S
C1237 C1233 1.376 . S
C1237 C1236 1.392 . S
C1237 H1249 0.929 . S
C1238 C1234 1.531 . S
C1238 H1250 0.960 . S
C1238 H1251 0.962 . S
C1238 H1252 0.960 . S
C1239 C1236 1.511 1_455 S
C1239 H1253 0.961 . S
C1239 H1254 0.961 . S
C1239 H1255 0.961 . S
C1240 C1241 1.370 . S
C1240 C1242 1.363 . S
C1240 H1256 0.931 . S
C1241 C1240 1.370 . S
C1241 C1245 1.408 . S
C1242 C1240 1.363 . S
C1242 C1243 1.370 . S
C1242 C1246 1.524 . S
C1243 C1235 1.503 1_455 S
C1243 C1242 1.370 . S
C1243 C1244 1.403 . S
C1244 C1243 1.403 . S
C1244 C1245 1.404 . S
C1244 C1247 1.539 1_455 S
C1245 C1241 1.408 . S
C1245 C1244 1.404 . S
C1245 H1257 0.930 . S
C1246 C1242 1.524 . S
C1246 H1258 0.956 . S
C1246 H1259 0.961 . S
C1246 H1260 0.961 . S
C1247 C1244 1.539 1_655 S
C1247 H1261 0.958 . S
C1247 H1262 0.961 . S
C1247 H1263 0.960 . S
H1248 C1232 0.931 . S
H1249 C1237 0.929 . S
H1250 C1238 0.960 . S
H1251 C1238 0.962 . S
H1252 C1238 0.960 . S
H1253 C1239 0.961 . S
H1254 C1239 0.961 . S
H1255 C1239 0.961 . S
H1256 C1240 0.931 . S
H1257 C1245 0.930 . S
H1258 C1246 0.956 . S
H1259 C1246 0.961 . S
H1260 C1246 0.961 . S
H1261 C1247 0.958 . S
H1262 C1247 0.961 . S
H1263 C1247 0.960 . S
C1264 C1265 1.391 . S
C1264 C1266 1.394 . S
C1264 H1280 0.931 . S
C1265 C1264 1.391 . S
C1265 C1269 1.376 . S
C1266 C1264 1.394 . S
C1266 C1267 1.369 . S
C1266 C1270 1.531 . S
C1267 C1266 1.369 . S
C1267 C1268 1.410 . S
C1267 C1275 1.503 . S
C1268 C1267 1.410 . S
C1268 C1269 1.392 . S
C1268 C1271 1.511 . S
C1269 C1265 1.376 . S
C1269 C1268 1.392 . S
C1269 H1281 0.929 . S
C1270 C1266 1.531 . S
C1270 H1282 0.960 . S
C1270 H1283 0.962 . S
C1270 H1284 0.960 . S
C1271 C1268 1.511 . S
C1271 H1285 0.961 . S
C1271 H1286 0.961 . S
C1271 H1287 0.961 . S
C1272 C1273 1.370 . S
C1272 C1274 1.363 . S
C1272 H1288 0.931 . S
C1273 C1272 1.370 . S
C1273 C1277 1.408 . S
C1274 C1272 1.363 . S
C1274 C1275 1.370 . S
C1274 C1278 1.524 . S
C1275 C1267 1.503 . S
C1275 C1274 1.370 . S
C1275 C1276 1.403 . S
C1276 C1275 1.403 . S
C1276 C1277 1.404 . S
C1276 C1279 1.539 . S
C1277 C1273 1.408 . S
C1277 C1276 1.404 . S
C1277 H1289 0.930 . S
C1278 C1274 1.524 . S
C1278 H1290 0.956 . S
C1278 H1291 0.961 . S
C1278 H1292 0.961 . S
C1279 C1276 1.539 . S
C1279 H1293 0.958 . S
C1279 H1294 0.961 . S
C1279 H1295 0.960 . S
H1280 C1264 0.931 . S
H1281 C1269 0.929 . S
H1282 C1270 0.960 . S
H1283 C1270 0.962 . S
H1284 C1270 0.960 . S
H1285 C1271 0.961 . S
H1286 C1271 0.961 . S
H1287 C1271 0.961 . S
H1288 C1272 0.931 . S
H1289 C1277 0.930 . S
H1290 C1278 0.956 . S
H1291 C1278 0.961 . S
H1292 C1278 0.961 . S
H1293 C1279 0.958 . S
H1294 C1279 0.961 . S
H1295 C1279 0.960 . S
C1296 C1297 1.391 . S
C1296 C1298 1.394 . S
C1296 H1312 0.931 . S
C1297 C1296 1.391 . S
C1297 C1301 1.376 . S
C1298 C1296 1.394 . S
C1298 C1299 1.369 . S
C1298 C1302 1.531 . S
C1299 C1298 1.369 . S
C1299 C1300 1.410 . S
C1299 C1307 1.503 . S
C1300 C1299 1.410 . S
C1300 C1301 1.392 . S
C1300 C1303 1.511 . S
C1301 C1297 1.376 . S
C1301 C1300 1.392 . S
C1301 H1313 0.929 . S
C1302 C1298 1.531 . S
C1302 H1314 0.960 . S
C1302 H1315 0.962 . S
C1302 H1316 0.960 . S
C1303 C1300 1.511 . S
C1303 H1317 0.961 . S
C1303 H1318 0.961 . S
C1303 H1319 0.961 . S
C1304 C1305 1.370 . S
C1304 C1306 1.363 . S
C1304 H1320 0.931 . S
C1305 C1304 1.370 . S
C1305 C1309 1.408 . S
C1306 C1304 1.363 . S
C1306 C1307 1.370 . S
C1306 C1310 1.524 . S
C1307 C1299 1.503 . S
C1307 C1306 1.370 . S
C1307 C1308 1.403 . S
C1308 C1307 1.403 . S
C1308 C1309 1.404 . S
C1308 C1311 1.539 . S
C1309 C1305 1.408 . S
C1309 C1308 1.404 . S
C1309 H1321 0.930 . S
C1310 C1306 1.524 . S
C1310 H1322 0.956 . S
C1310 H1323 0.961 . S
C1310 H1324 0.961 . S
C1311 C1308 1.539 . S
C1311 H1325 0.958 . S
C1311 H1326 0.961 . S
C1311 H1327 0.960 . S
H1312 C1296 0.931 . S
H1313 C1301 0.929 . S
H1314 C1302 0.960 . S
H1315 C1302 0.962 . S
H1316 C1302 0.960 . S
H1317 C1303 0.961 . S
H1318 C1303 0.961 . S
H1319 C1303 0.961 . S
H1320 C1304 0.931 . S
H1321 C1309 0.930 . S
H1322 C1310 0.956 . S
H1323 C1310 0.961 . S
H1324 C1310 0.961 . S
H1325 C1311 0.958 . S
H1326 C1311 0.961 . S
H1327 C1311 0.960 . S
C1328 C1329 1.391 . S
C1328 C1330 1.394 . S
C1328 H1344 0.931 . S
C1329 C1328 1.391 . S
C1329 C1333 1.376 . S
C1330 C1328 1.394 . S
C1330 C1331 1.369 . S
C1330 C1334 1.531 1_455 S
C1331 C1330 1.369 . S
C1331 C1332 1.410 . S
C1331 C1339 1.503 1_455 S
C1332 C1331 1.410 . S
C1332 C1333 1.392 . S
C1332 C1335 1.511 . S
C1333 C1329 1.376 . S
C1333 C1332 1.392 . S
C1333 H1345 0.929 . S
C1334 C1330 1.531 1_655 S
C1334 H1346 0.960 . S
C1334 H1347 0.962 . S
C1334 H1348 0.960 . S
C1335 C1332 1.511 . S
C1335 H1349 0.961 . S
C1335 H1350 0.961 . S
C1335 H1351 0.961 . S
C1336 C1337 1.370 . S
C1336 C1338 1.363 . S
C1336 H1352 0.931 . S
C1337 C1336 1.370 . S
C1337 C1341 1.408 . S
C1338 C1336 1.363 . S
C1338 C1339 1.370 . S
C1338 C1342 1.524 . S
C1339 C1331 1.503 1_655 S
C1339 C1338 1.370 . S
C1339 C1340 1.403 . S
C1340 C1339 1.403 . S
C1340 C1341 1.404 . S
C1340 C1343 1.539 . S
C1341 C1337 1.408 . S
C1341 C1340 1.404 . S
C1341 H1353 0.930 . S
C1342 C1338 1.524 . S
C1342 H1354 0.956 . S
C1342 H1355 0.961 1_655 S
C1342 H1356 0.961 . S
C1343 C1340 1.539 . S
C1343 H1357 0.958 . S
C1343 H1358 0.961 . S
C1343 H1359 0.960 1_655 S
H1344 C1328 0.931 . S
H1345 C1333 0.929 . S
H1346 C1334 0.960 . S
H1347 C1334 0.962 . S
H1348 C1334 0.960 . S
H1349 C1335 0.961 . S
H1350 C1335 0.961 . S
H1351 C1335 0.961 . S
H1352 C1336 0.931 . S
H1353 C1341 0.930 . S
H1354 C1342 0.956 . S
H1355 C1342 0.961 1_455 S
H1356 C1342 0.961 . S
H1357 C1343 0.958 . S
H1358 C1343 0.961 . S
H1359 C1343 0.960 1_455 S
C1360 C1361 1.391 . S
C1360 C1362 1.394 . S
C1360 H1376 0.931 . S
C1361 C1360 1.391 . S
C1361 C1365 1.376 . S
C1362 C1360 1.394 . S
C1362 C1363 1.369 . S
C1362 C1366 1.531 . S
C1363 C1362 1.369 . S
C1363 C1364 1.410 1_455 S
C1363 C1371 1.503 1_455 S
C1364 C1363 1.410 1_655 S
C1364 C1365 1.392 1_655 S
C1364 C1367 1.511 . S
C1365 C1361 1.376 . S
C1365 C1364 1.392 1_455 S
C1365 H1377 0.929 . S
C1366 C1362 1.531 . S
C1366 H1378 0.960 . S
C1366 H1379 0.962 . S
C1366 H1380 0.960 . S
C1367 C1364 1.511 . S
C1367 H1381 0.961 . S
C1367 H1382 0.961 . S
C1367 H1383 0.961 . S
C1368 C1369 1.370 . S
C1368 C1370 1.363 . S
C1368 H1384 0.931 . S
C1369 C1368 1.370 . S
C1369 C1373 1.408 . S
C1370 C1368 1.363 . S
C1370 C1371 1.370 . S
C1370 C1374 1.524 1_655 S
C1371 C1363 1.503 1_655 S
C1371 C1370 1.370 . S
C1371 C1372 1.403 . S
C1372 C1371 1.403 . S
C1372 C1373 1.404 . S
C1372 C1375 1.539 . S
C1373 C1369 1.408 . S
C1373 C1372 1.404 . S
C1373 H1385 0.930 . S
C1374 C1370 1.524 1_455 S
C1374 H1386 0.956 . S
C1374 H1387 0.961 . S
C1374 H1388 0.961 . S
C1375 C1372 1.539 . S
C1375 H1389 0.958 . S
C1375 H1390 0.961 . S
C1375 H1391 0.960 . S
H1376 C1360 0.931 . S
H1377 C1365 0.929 . S
H1378 C1366 0.960 . S
H1379 C1366 0.962 . S
H1380 C1366 0.960 . S
H1381 C1367 0.961 . S
H1382 C1367 0.961 . S
H1383 C1367 0.961 . S
H1384 C1368 0.931 . S
H1385 C1373 0.930 . S
H1386 C1374 0.956 . S
H1387 C1374 0.961 . S
H1388 C1374 0.961 . S
H1389 C1375 0.958 . S
H1390 C1375 0.961 . S
H1391 C1375 0.960 . S
C1392 C1393 1.391 . S
C1392 C1394 1.394 . S
C1392 H1408 0.931 . S
C1393 C1392 1.391 . S
C1393 C1397 1.376 . S
C1394 C1392 1.394 . S
C1394 C1395 1.369 . S
C1394 C1398 1.531 . S
C1395 C1394 1.369 . S
C1395 C1396 1.410 . S
C1395 C1403 1.503 . S
C1396 C1395 1.410 . S
C1396 C1397 1.392 . S
C1396 C1399 1.511 . S
C1397 C1393 1.376 . S
C1397 C1396 1.392 . S
C1397 H1409 0.929 . S
C1398 C1394 1.531 . S
C1398 H1410 0.960 . S
C1398 H1411 0.962 . S
C1398 H1412 0.960 . S
C1399 C1396 1.511 . S
C1399 H1413 0.961 . S
C1399 H1414 0.961 . S
C1399 H1415 0.961 . S
C1400 C1401 1.370 . S
C1400 C1402 1.363 . S
C1400 H1416 0.931 . S
C1401 C1400 1.370 . S
C1401 C1405 1.408 . S
C1402 C1400 1.363 . S
C1402 C1403 1.370 . S
C1402 C1406 1.524 . S
C1403 C1395 1.503 . S
C1403 C1402 1.370 . S
C1403 C1404 1.403 . S
C1404 C1403 1.403 . S
C1404 C1405 1.404 . S
C1404 C1407 1.539 . S
C1405 C1401 1.408 . S
C1405 C1404 1.404 . S
C1405 H1417 0.930 . S
C1406 C1402 1.524 . S
C1406 H1418 0.956 . S
C1406 H1419 0.961 . S
C1406 H1420 0.961 . S
C1407 C1404 1.539 . S
C1407 H1421 0.958 . S
C1407 H1422 0.961 . S
C1407 H1423 0.960 . S
H1408 C1392 0.931 . S
H1409 C1397 0.929 . S
H1410 C1398 0.960 . S
H1411 C1398 0.962 . S
H1412 C1398 0.960 . S
H1413 C1399 0.961 . S
H1414 C1399 0.961 . S
H1415 C1399 0.961 . S
H1416 C1400 0.931 . S
H1417 C1405 0.930 . S
H1418 C1406 0.956 . S
H1419 C1406 0.961 . S
H1420 C1406 0.961 . S
H1421 C1407 0.958 . S
H1422 C1407 0.961 . S
H1423 C1407 0.960 . S
C1424 C1425 1.391 . S
C1424 C1426 1.394 . S
C1424 H1440 0.931 . S
C1425 C1424 1.391 . S
C1425 C1429 1.376 . S
C1426 C1424 1.394 . S
C1426 C1427 1.369 . S
C1426 C1430 1.531 . S
C1427 C1426 1.369 . S
C1427 C1428 1.410 . S
C1427 C1435 1.503 . S
C1428 C1427 1.410 . S
C1428 C1429 1.392 . S
C1428 C1431 1.511 . S
C1429 C1425 1.376 . S
C1429 C1428 1.392 . S
C1429 H1441 0.929 . S
C1430 C1426 1.531 . S
C1430 H1442 0.960 . S
C1430 H1443 0.962 . S
C1430 H1444 0.960 . S
C1431 C1428 1.511 . S
C1431 H1445 0.961 . S
C1431 H1446 0.961 . S
C1431 H1447 0.961 . S
C1432 C1433 1.370 . S
C1432 C1434 1.363 . S
C1432 H1448 0.931 . S
C1433 C1432 1.370 . S
C1433 C1437 1.408 . S
C1434 C1432 1.363 . S
C1434 C1435 1.370 . S
C1434 C1438 1.524 . S
C1435 C1427 1.503 . S
C1435 C1434 1.370 . S
C1435 C1436 1.403 . S
C1436 C1435 1.403 . S
C1436 C1437 1.404 . S
C1436 C1439 1.539 . S
C1437 C1433 1.408 . S
C1437 C1436 1.404 . S
C1437 H1449 0.930 . S
C1438 C1434 1.524 . S
C1438 H1450 0.956 . S
C1438 H1451 0.961 . S
C1438 H1452 0.961 . S
C1439 C1436 1.539 . S
C1439 H1453 0.958 . S
C1439 H1454 0.961 . S
C1439 H1455 0.960 . S
H1440 C1424 0.931 . S
H1441 C1429 0.929 . S
H1442 C1430 0.960 . S
H1443 C1430 0.962 . S
H1444 C1430 0.960 . S
H1445 C1431 0.961 . S
H1446 C1431 0.961 . S
H1447 C1431 0.961 . S
H1448 C1432 0.931 . S
H1449 C1437 0.930 . S
H1450 C1438 0.956 . S
H1451 C1438 0.961 . S
H1452 C1438 0.961 . S
H1453 C1439 0.958 . S
H1454 C1439 0.961 . S
H1455 C1439 0.960 . S
C1456 C1457 1.391 . S
C1456 C1458 1.394 . S
C1456 H1472 0.931 . S
C1457 C1456 1.391 . S
C1457 C1461 1.376 . S
C1458 C1456 1.394 . S
C1458 C1459 1.369 . S
C1458 C1462 1.531 . S
C1459 C1458 1.369 . S
C1459 C1460 1.410 . S
C1459 C1467 1.503 . S
C1460 C1459 1.410 . S
C1460 C1461 1.392 . S
C1460 C1463 1.511 . S
C1461 C1457 1.376 . S
C1461 C1460 1.392 . S
C1461 H1473 0.929 . S
C1462 C1458 1.531 . S
C1462 H1474 0.960 . S
C1462 H1475 0.962 . S
C1462 H1476 0.960 . S
C1463 C1460 1.511 . S
C1463 H1477 0.961 . S
C1463 H1478 0.961 . S
C1463 H1479 0.961 . S
C1464 C1465 1.370 . S
C1464 C1466 1.363 . S
C1464 H1480 0.931 . S
C1465 C1464 1.370 . S
C1465 C1469 1.408 . S
C1466 C1464 1.363 . S
C1466 C1467 1.370 . S
C1466 C1470 1.524 . S
C1467 C1459 1.503 . S
C1467 C1466 1.370 . S
C1467 C1468 1.403 . S
C1468 C1467 1.403 . S
C1468 C1469 1.404 . S
C1468 C1471 1.539 . S
C1469 C1465 1.408 . S
C1469 C1468 1.404 . S
C1469 H1481 0.930 . S
C1470 C1466 1.524 . S
C1470 H1482 0.956 . S
C1470 H1483 0.961 . S
C1470 H1484 0.961 . S
C1471 C1468 1.539 . S
C1471 H1485 0.958 . S
C1471 H1486 0.961 . S
C1471 H1487 0.960 . S
H1472 C1456 0.931 . S
H1473 C1461 0.929 . S
H1474 C1462 0.960 . S
H1475 C1462 0.962 . S
H1476 C1462 0.960 . S
H1477 C1463 0.961 . S
H1478 C1463 0.961 . S
H1479 C1463 0.961 . S
H1480 C1464 0.931 . S
H1481 C1469 0.930 . S
H1482 C1470 0.956 . S
H1483 C1470 0.961 . S
H1484 C1470 0.961 . S
H1485 C1471 0.958 . S
H1486 C1471 0.961 . S
H1487 C1471 0.960 . S
C1488 C1489 1.391 . S
C1488 C1490 1.394 . S
C1488 H1504 0.931 . S
C1489 C1488 1.391 . S
C1489 C1493 1.376 . S
C1490 C1488 1.394 . S
C1490 C1491 1.369 . S
C1490 C1494 1.531 . S
C1491 C1490 1.369 . S
C1491 C1492 1.410 . S
C1491 C1499 1.503 . S
C1492 C1491 1.410 . S
C1492 C1493 1.392 . S
C1492 C1495 1.511 . S
C1493 C1489 1.376 . S
C1493 C1492 1.392 . S
C1493 H1505 0.929 . S
C1494 C1490 1.531 . S
C1494 H1506 0.960 . S
C1494 H1507 0.962 . S
C1494 H1508 0.960 . S
C1495 C1492 1.511 . S
C1495 H1509 0.961 . S
C1495 H1510 0.961 . S
C1495 H1511 0.961 . S
C1496 C1497 1.370 . S
C1496 C1498 1.363 . S
C1496 H1512 0.931 . S
C1497 C1496 1.370 . S
C1497 C1501 1.408 . S
C1498 C1496 1.363 . S
C1498 C1499 1.370 . S
C1498 C1502 1.524 . S
C1499 C1491 1.503 . S
C1499 C1498 1.370 . S
C1499 C1500 1.403 . S
C1500 C1499 1.403 . S
C1500 C1501 1.404 . S
C1500 C1503 1.539 . S
C1501 C1497 1.408 . S
C1501 C1500 1.404 . S
C1501 H1513 0.930 . S
C1502 C1498 1.524 . S
C1502 H1514 0.956 . S
C1502 H1515 0.961 . S
C1502 H1516 0.961 . S
C1503 C1500 1.539 . S
C1503 H1517 0.958 . S
C1503 H1518 0.961 . S
C1503 H1519 0.960 . S
H1504 C1488 0.931 . S
H1505 C1493 0.929 . S
H1506 C1494 0.960 . S
H1507 C1494 0.962 . S
H1508 C1494 0.960 . S
H1509 C1495 0.961 . S
H1510 C1495 0.961 . S
H1511 C1495 0.961 . S
H1512 C1496 0.931 . S
H1513 C1501 0.930 . S
H1514 C1502 0.956 . S
H1515 C1502 0.961 . S
H1516 C1502 0.961 . S
H1517 C1503 0.958 . S
H1518 C1503 0.961 . S
H1519 C1503 0.960 . S
C1520 C1521 1.391 . S
C1520 C1522 1.394 . S
C1520 H1536 0.931 . S
C1521 C1520 1.391 . S
C1521 C1525 1.376 . S
C1522 C1520 1.394 . S
C1522 C1523 1.369 . S
C1522 C1526 1.531 . S
C1523 C1522 1.369 . S
C1523 C1524 1.410 . S
C1523 C1531 1.503 . S
C1524 C1523 1.410 . S
C1524 C1525 1.392 . S
C1524 C1527 1.511 . S
C1525 C1521 1.376 . S
C1525 C1524 1.392 . S
C1525 H1537 0.929 . S
C1526 C1522 1.531 . S
C1526 H1538 0.960 . S
C1526 H1539 0.962 . S
C1526 H1540 0.960 . S
C1527 C1524 1.511 . S
C1527 H1541 0.961 . S
C1527 H1542 0.961 . S
C1527 H1543 0.961 . S
C1528 C1529 1.370 . S
C1528 C1530 1.363 . S
C1528 H1544 0.931 . S
C1529 C1528 1.370 . S
C1529 C1533 1.408 . S
C1530 C1528 1.363 . S
C1530 C1531 1.370 . S
C1530 C1534 1.524 . S
C1531 C1523 1.503 . S
C1531 C1530 1.370 . S
C1531 C1532 1.403 . S
C1532 C1531 1.403 . S
C1532 C1533 1.404 . S
C1532 C1535 1.539 . S
C1533 C1529 1.408 . S
C1533 C1532 1.404 . S
C1533 H1545 0.930 . S
C1534 C1530 1.524 . S
C1534 H1546 0.956 . S
C1534 H1547 0.961 . S
C1534 H1548 0.961 . S
C1535 C1532 1.539 . S
C1535 H1549 0.958 . S
C1535 H1550 0.961 . S
C1535 H1551 0.960 . S
H1536 C1520 0.931 . S
H1537 C1525 0.929 . S
H1538 C1526 0.960 . S
H1539 C1526 0.962 . S
H1540 C1526 0.960 . S
H1541 C1527 0.961 . S
H1542 C1527 0.961 . S
H1543 C1527 0.961 . S
H1544 C1528 0.931 . S
H1545 C1533 0.930 . S
H1546 C1534 0.956 . S
H1547 C1534 0.961 . S
H1548 C1534 0.961 . S
H1549 C1535 0.958 . S
H1550 C1535 0.961 . S
H1551 C1535 0.960 . S
C1552 C1553 1.391 . S
C1552 C1554 1.394 . S
C1552 H1568 0.931 . S
C1553 C1552 1.391 . S
C1553 C1557 1.376 . S
C1554 C1552 1.394 . S
C1554 C1555 1.369 . S
C1554 C1558 1.531 . S
C1555 C1554 1.369 . S
C1555 C1556 1.410 . S
C1555 C1563 1.503 . S
C1556 C1555 1.410 . S
C1556 C1557 1.392 . S
C1556 C1559 1.511 . S
C1557 C1553 1.376 . S
C1557 C1556 1.392 . S
C1557 H1569 0.929 . S
C1558 C1554 1.531 . S
C1558 H1570 0.960 . S
C1558 H1571 0.962 . S
C1558 H1572 0.960 . S
C1559 C1556 1.511 . S
C1559 H1573 0.961 . S
C1559 H1574 0.961 . S
C1559 H1575 0.961 . S
C1560 C1561 1.370 . S
C1560 C1562 1.363 . S
C1560 H1576 0.931 . S
C1561 C1560 1.370 . S
C1561 C1565 1.408 . S
C1562 C1560 1.363 . S
C1562 C1563 1.370 . S
C1562 C1566 1.524 . S
C1563 C1555 1.503 . S
C1563 C1562 1.370 . S
C1563 C1564 1.403 . S
C1564 C1563 1.403 . S
C1564 C1565 1.404 . S
C1564 C1567 1.539 . S
C1565 C1561 1.408 . S
C1565 C1564 1.404 . S
C1565 H1577 0.930 . S
C1566 C1562 1.524 . S
C1566 H1578 0.956 . S
C1566 H1579 0.961 . S
C1566 H1580 0.961 . S
C1567 C1564 1.539 . S
C1567 H1581 0.958 . S
C1567 H1582 0.961 . S
C1567 H1583 0.960 . S
H1568 C1552 0.931 . S
H1569 C1557 0.929 . S
H1570 C1558 0.960 . S
H1571 C1558 0.962 . S
H1572 C1558 0.960 . S
H1573 C1559 0.961 . S
H1574 C1559 0.961 . S
H1575 C1559 0.961 . S
H1576 C1560 0.931 . S
H1577 C1565 0.930 . S
H1578 C1566 0.956 . S
H1579 C1566 0.961 . S
H1580 C1566 0.961 . S
H1581 C1567 0.958 . S
H1582 C1567 0.961 . S
H1583 C1567 0.960 . S
C1584 C1585 1.391 . S
C1584 C1586 1.394 . S
C1584 H1600 0.931 . S
C1585 C1584 1.391 . S
C1585 C1589 1.376 . S
C1586 C1584 1.394 . S
C1586 C1587 1.369 . S
C1586 C1590 1.531 . S
C1587 C1586 1.369 . S
C1587 C1588 1.410 . S
C1587 C1595 1.503 . S
C1588 C1587 1.410 . S
C1588 C1589 1.392 . S
C1588 C1591 1.511 . S
C1589 C1585 1.376 . S
C1589 C1588 1.392 . S
C1589 H1601 0.929 . S
C1590 C1586 1.531 . S
C1590 H1602 0.960 . S
C1590 H1603 0.962 . S
C1590 H1604 0.960 . S
C1591 C1588 1.511 . S
C1591 H1605 0.961 . S
C1591 H1606 0.961 . S
C1591 H1607 0.961 . S
C1592 C1593 1.370 . S
C1592 C1594 1.363 . S
C1592 H1608 0.931 . S
C1593 C1592 1.370 . S
C1593 C1597 1.408 . S
C1594 C1592 1.363 . S
C1594 C1595 1.370 . S
C1594 C1598 1.524 . S
C1595 C1587 1.503 . S
C1595 C1594 1.370 . S
C1595 C1596 1.403 . S
C1596 C1595 1.403 . S
C1596 C1597 1.404 . S
C1596 C1599 1.539 . S
C1597 C1593 1.408 . S
C1597 C1596 1.404 . S
C1597 H1609 0.930 . S
C1598 C1594 1.524 . S
C1598 H1610 0.956 . S
C1598 H1611 0.961 . S
C1598 H1612 0.961 . S
C1599 C1596 1.539 . S
C1599 H1613 0.958 . S
C1599 H1614 0.961 . S
C1599 H1615 0.960 . S
H1600 C1584 0.931 . S
H1601 C1589 0.929 . S
H1602 C1590 0.960 . S
H1603 C1590 0.962 . S
H1604 C1590 0.960 . S
H1605 C1591 0.961 . S
H1606 C1591 0.961 . S
H1607 C1591 0.961 . S
H1608 C1592 0.931 . S
H1609 C1597 0.930 . S
H1610 C1598 0.956 . S
H1611 C1598 0.961 . S
H1612 C1598 0.961 . S
H1613 C1599 0.958 . S
H1614 C1599 0.961 . S
H1615 C1599 0.960 . S
C1616 C1617 1.391 . S
C1616 C1618 1.394 . S
C1616 H1632 0.931 . S
C1617 C1616 1.391 . S
C1617 C1621 1.376 . S
C1618 C1616 1.394 . S
C1618 C1619 1.369 . S
C1618 C1622 1.531 . S
C1619 C1618 1.369 . S
C1619 C1620 1.410 . S
C1619 C1627 1.503 . S
C1620 C1619 1.410 . S
C1620 C1621 1.392 . S
C1620 C1623 1.511 . S
C1621 C1617 1.376 . S
C1621 C1620 1.392 . S
C1621 H1633 0.929 . S
C1622 C1618 1.531 . S
C1622 H1634 0.960 . S
C1622 H1635 0.962 . S
C1622 H1636 0.960 . S
C1623 C1620 1.511 . S
C1623 H1637 0.961 . S
C1623 H1638 0.961 . S
C1623 H1639 0.961 . S
C1624 C1625 1.370 . S
C1624 C1626 1.363 . S
C1624 H1640 0.931 . S
C1625 C1624 1.370 . S
C1625 C1629 1.408 . S
C1626 C1624 1.363 . S
C1626 C1627 1.370 . S
C1626 C1630 1.524 . S
C1627 C1619 1.503 . S
C1627 C1626 1.370 . S
C1627 C1628 1.403 . S
C1628 C1627 1.403 . S
C1628 C1629 1.404 . S
C1628 C1631 1.539 . S
C1629 C1625 1.408 . S
C1629 C1628 1.404 . S
C1629 H1641 0.930 . S
C1630 C1626 1.524 . S
C1630 H1642 0.956 . S
C1630 H1643 0.961 . S
C1630 H1644 0.961 . S
C1631 C1628 1.539 . S
C1631 H1645 0.958 . S
C1631 H1646 0.961 . S
C1631 H1647 0.960 . S
H1632 C1616 0.931 . S
H1633 C1621 0.929 . S
H1634 C1622 0.960 . S
H1635 C1622 0.962 . S
H1636 C1622 0.960 . S
H1637 C1623 0.961 . S
H1638 C1623 0.961 . S
H1639 C1623 0.961 . S
H1640 C1624 0.931 . S
H1641 C1629 0.930 . S
H1642 C1630 0.956 . S
H1643 C1630 0.961 . S
H1644 C1630 0.961 . S
H1645 C1631 0.958 . S
H1646 C1631 0.961 . S
H1647 C1631 0.960 . S
C1648 C1649 1.391 . S
C1648 C1650 1.394 . S
C1648 H1664 0.931 . S
C1649 C1648 1.391 . S
C1649 C1653 1.376 . S
C1650 C1648 1.394 . S
C1650 C1651 1.369 . S
C1650 C1654 1.531 . S
C1651 C1650 1.369 . S
C1651 C1652 1.410 . S
C1651 C1659 1.503 . S
C1652 C1651 1.410 . S
C1652 C1653 1.392 . S
C1652 C1655 1.511 . S
C1653 C1649 1.376 . S
C1653 C1652 1.392 . S
C1653 H1665 0.929 . S
C1654 C1650 1.531 . S
C1654 H1666 0.960 . S
C1654 H1667 0.962 . S
C1654 H1668 0.960 . S
C1655 C1652 1.511 . S
C1655 H1669 0.961 . S
C1655 H1670 0.961 . S
C1655 H1671 0.961 . S
C1656 C1657 1.370 . S
C1656 C1658 1.363 . S
C1656 H1672 0.931 . S
C1657 C1656 1.370 . S
C1657 C1661 1.408 . S
C1658 C1656 1.363 . S
C1658 C1659 1.370 . S
C1658 C1662 1.524 . S
C1659 C1651 1.503 . S
C1659 C1658 1.370 . S
C1659 C1660 1.403 . S
C1660 C1659 1.403 . S
C1660 C1661 1.404 . S
C1660 C1663 1.539 . S
C1661 C1657 1.408 . S
C1661 C1660 1.404 . S
C1661 H1673 0.930 . S
C1662 C1658 1.524 . S
C1662 H1674 0.956 . S
C1662 H1675 0.961 . S
C1662 H1676 0.961 . S
C1663 C1660 1.539 . S
C1663 H1677 0.958 . S
C1663 H1678 0.961 . S
C1663 H1679 0.960 . S
H1664 C1648 0.931 . S
H1665 C1653 0.929 . S
H1666 C1654 0.960 . S
H1667 C1654 0.962 . S
H1668 C1654 0.960 . S
H1669 C1655 0.961 . S
H1670 C1655 0.961 . S
H1671 C1655 0.961 . S
H1672 C1656 0.931 . S
H1673 C1661 0.930 . S
H1674 C1662 0.956 . S
H1675 C1662 0.961 . S
H1676 C1662 0.961 . S
H1677 C1663 0.958 . S
H1678 C1663 0.961 . S
H1679 C1663 0.960 . S
C1680 C1681 1.391 . S
C1680 C1682 1.394 . S
C1680 H1696 0.931 . S
C1681 C1680 1.391 . S
C1681 C1685 1.376 . S
C1682 C1680 1.394 . S
C1682 C1683 1.369 . S
C1682 C1686 1.531 . S
C1683 C1682 1.369 . S
C1683 C1684 1.410 . S
C1683 C1691 1.503 . S
C1684 C1683 1.410 . S
C1684 C1685 1.392 . S
C1684 C1687 1.511 . S
C1685 C1681 1.376 . S
C1685 C1684 1.392 . S
C1685 H1697 0.929 . S
C1686 C1682 1.531 . S
C1686 H1698 0.960 . S
C1686 H1699 0.962 1_565 S
C1686 H1700 0.960 . S
C1687 C1684 1.511 . S
C1687 H1701 0.961 . S
C1687 H1702 0.961 . S
C1687 H1703 0.961 . S
C1688 C1689 1.370 . S
C1688 C1690 1.363 . S
C1688 H1704 0.931 1_565 S
C1689 C1688 1.370 . S
C1689 C1693 1.408 . S
C1690 C1688 1.363 . S
C1690 C1691 1.370 . S
C1690 C1694 1.524 . S
C1691 C1683 1.503 . S
C1691 C1690 1.370 . S
C1691 C1692 1.403 . S
C1692 C1691 1.403 . S
C1692 C1693 1.404 . S
C1692 C1695 1.539 . S
C1693 C1689 1.408 . S
C1693 C1692 1.404 . S
C1693 H1705 0.907 1_655 S
C1694 C1690 1.524 . S
C1694 H1706 0.956 . S
C1694 H1707 0.961 . S
C1694 H1708 0.961 . S
C1695 C1692 1.539 . S
C1695 H1709 0.958 . S
C1695 H1710 0.961 . S
C1695 H1711 0.960 . S
H1696 C1680 0.931 . S
H1697 C1685 0.929 . S
H1698 C1686 0.960 . S
H1699 C1686 0.962 1_545 S
H1700 C1686 0.960 . S
H1701 C1687 0.961 . S
H1702 C1687 0.961 . S
H1703 C1687 0.961 . S
H1704 C1688 0.931 1_545 S
H1705 C1693 0.907 1_455 S
H1706 C1694 0.956 . S
H1707 C1694 0.961 . S
H1708 C1694 0.961 . S
H1709 C1695 0.958 . S
H1710 C1695 0.961 . S
H1711 C1695 0.960 . S
C1712 C1713 1.391 . S
C1712 C1714 1.394 . S
C1712 H1728 0.931 . S
C1713 C1712 1.391 . S
C1713 C1717 1.376 . S
C1714 C1712 1.394 . S
C1714 C1715 1.369 . S
C1714 C1718 1.531 . S
C1715 C1714 1.369 . S
C1715 C1716 1.410 . S
C1715 C1723 1.503 . S
C1716 C1715 1.410 . S
C1716 C1717 1.392 . S
C1716 C1719 1.511 . S
C1717 C1713 1.376 . S
C1717 C1716 1.392 . S
C1717 H1729 0.929 . S
C1718 C1714 1.531 . S
C1718 H1730 0.960 . S
C1718 H1731 0.962 . S
C1718 H1732 0.960 . S
C1719 C1716 1.511 . S
C1719 H1733 0.961 . S
C1719 H1734 0.961 . S
C1719 H1735 0.961 . S
C1720 C1721 1.370 . S
C1720 C1722 1.363 . S
C1720 H1736 0.931 . S
C1721 C1720 1.370 . S
C1721 C1725 1.408 . S
C1722 C1720 1.363 . S
C1722 C1723 1.370 . S
C1722 C1726 1.524 . S
C1723 C1715 1.503 . S
C1723 C1722 1.370 . S
C1723 C1724 1.403 . S
C1724 C1723 1.403 . S
C1724 C1725 1.404 . S
C1724 C1727 1.539 . S
C1725 C1721 1.408 . S
C1725 C1724 1.404 . S
C1725 H1737 0.930 . S
C1726 C1722 1.524 . S
C1726 H1738 0.956 . S
C1726 H1739 0.961 . S
C1726 H1740 0.961 . S
C1727 C1724 1.539 . S
C1727 H1741 0.958 . S
C1727 H1742 0.961 . S
C1727 H1743 0.960 . S
H1728 C1712 0.931 . S
H1729 C1717 0.929 . S
H1730 C1718 0.960 . S
H1731 C1718 0.962 . S
H1732 C1718 0.960 . S
H1733 C1719 0.961 . S
H1734 C1719 0.961 . S
H1735 C1719 0.961 . S
H1736 C1720 0.931 . S
H1737 C1725 0.930 . S
H1738 C1726 0.956 . S
H1739 C1726 0.961 . S
H1740 C1726 0.961 . S
H1741 C1727 0.958 . S
H1742 C1727 0.961 . S
H1743 C1727 0.960 . S
C1744 C1745 1.391 1_565 S
C1744 C1746 1.388 1_565 S
C1744 H1760 0.931 . S
C1745 C1744 1.391 1_545 S
C1745 C1749 1.376 . S
C1746 C1744 1.388 1_545 S
C1746 C1747 1.382 . S
C1746 C1750 1.523 1_545 S
C1747 C1746 1.382 . S
C1747 C1748 1.410 . S
C1747 C1755 1.503 . S
C1748 C1747 1.410 . S
C1748 C1749 1.392 . S
C1748 C1751 1.511 . S
C1749 C1745 1.376 . S
C1749 C1748 1.392 . S
C1749 H1761 0.929 . S
C1750 C1746 1.523 1_565 S
C1750 H1762 0.960 . S
C1750 H1763 0.962 . S
C1750 H1764 0.960 . S
C1751 C1748 1.511 . S
C1751 H1765 0.961 . S
C1751 H1766 0.961 . S
C1751 H1767 0.961 . S
C1752 C1753 1.370 . S
C1752 C1754 1.363 . S
C1752 H1768 0.931 . S
C1753 C1752 1.370 . S
C1753 C1757 1.408 . S
C1754 C1752 1.363 . S
C1754 C1755 1.370 . S
C1754 C1758 1.524 . S
C1755 C1747 1.503 . S
C1755 C1754 1.370 . S
C1755 C1756 1.403 . S
C1756 C1755 1.403 . S
C1756 C1757 1.404 . S
C1756 C1759 1.539 . S
C1757 C1753 1.408 . S
C1757 C1756 1.404 . S
C1757 H1769 0.930 . S
C1758 C1754 1.524 . S
C1758 H1770 0.956 . S
C1758 H1771 0.961 . S
C1758 H1772 0.961 . S
C1759 C1756 1.539 . S
C1759 H1773 0.958 . S
C1759 H1774 0.961 . S
C1759 H1775 0.960 . S
H1760 C1744 0.931 . S
H1761 C1749 0.929 . S
H1762 C1750 0.960 . S
H1763 C1750 0.962 . S
H1764 C1750 0.960 . S
H1765 C1751 0.961 . S
H1766 C1751 0.961 . S
H1767 C1751 0.961 . S
H1768 C1752 0.931 . S
H1769 C1757 0.930 . S
H1770 C1758 0.956 . S
H1771 C1758 0.961 . S
H1772 C1758 0.961 . S
H1773 C1759 0.958 . S
H1774 C1759 0.961 . S
H1775 C1759 0.960 . S
C1776 C1777 1.391 . S
C1776 C1778 1.394 . S
C1776 H1792 0.931 . S
C1777 C1776 1.391 . S
C1777 C1781 1.376 . S
C1778 C1776 1.394 . S
C1778 C1779 1.369 . S
C1778 C1782 1.531 . S
C1779 C1778 1.369 . S
C1779 C1780 1.410 . S
C1779 C1787 1.503 . S
C1780 C1779 1.410 . S
C1780 C1781 1.392 . S
C1780 C1783 1.511 . S
C1781 C1777 1.376 . S
C1781 C1780 1.392 . S
C1781 H1793 0.929 . S
C1782 C1778 1.531 . S
C1782 H1794 0.960 . S
C1782 H1795 0.962 . S
C1782 H1796 0.960 . S
C1783 C1780 1.511 . S
C1783 H1797 0.961 . S
C1783 H1798 0.961 . S
C1783 H1799 0.961 . S
C1784 C1785 1.370 . S
C1784 C1786 1.363 . S
C1784 H1800 0.931 . S
C1785 C1784 1.370 . S
C1785 C1789 1.408 . S
C1786 C1784 1.363 . S
C1786 C1787 1.370 . S
C1786 C1790 1.524 . S
C1787 C1779 1.503 . S
C1787 C1786 1.370 . S
C1787 C1788 1.403 . S
C1788 C1787 1.403 . S
C1788 C1789 1.404 . S
C1788 C1791 1.539 . S
C1789 C1785 1.408 . S
C1789 C1788 1.404 . S
C1789 H1801 0.930 . S
C1790 C1786 1.524 . S
C1790 H1802 0.956 . S
C1790 H1803 0.961 . S
C1790 H1804 0.961 . S
C1791 C1788 1.539 . S
C1791 H1805 0.958 . S
C1791 H1806 0.961 . S
C1791 H1807 0.960 . S
H1792 C1776 0.931 . S
H1793 C1781 0.929 . S
H1794 C1782 0.960 . S
H1795 C1782 0.962 . S
H1796 C1782 0.960 . S
H1797 C1783 0.961 . S
H1798 C1783 0.961 . S
H1799 C1783 0.961 . S
H1800 C1784 0.931 . S
H1801 C1789 0.930 . S
H1802 C1790 0.956 . S
H1803 C1790 0.961 . S
H1804 C1790 0.961 . S
H1805 C1791 0.958 . S
H1806 C1791 0.961 . S
H1807 C1791 0.960 . S
C1808 C1809 1.391 1_565 S
C1808 C1810 1.385 1_565 S
C1808 H1824 0.931 . S
C1809 C1808 1.391 1_545 S
C1809 C1813 1.376 . S
C1810 C1808 1.385 1_545 S
C1810 C1811 1.387 . S
C1810 C1814 1.520 1_545 S
C1811 C1810 1.387 . S
C1811 C1812 1.410 . S
C1811 C1819 1.503 . S
C1812 C1811 1.410 . S
C1812 C1813 1.392 . S
C1812 C1815 1.511 . S
C1813 C1809 1.376 . S
C1813 C1812 1.392 . S
C1813 H1825 0.929 1_455 S
C1814 C1810 1.520 1_565 S
C1814 H1826 0.960 . S
C1814 H1827 0.962 . S
C1814 H1828 0.960 . S
C1815 C1812 1.511 . S
C1815 H1829 0.961 . S
C1815 H1830 0.961 . S
C1815 H1831 0.961 . S
C1816 C1817 1.370 . S
C1816 C1818 1.363 . S
C1816 H1832 0.931 . S
C1817 C1816 1.370 . S
C1817 C1821 1.408 . S
C1818 C1816 1.363 . S
C1818 C1819 1.370 . S
C1818 C1822 1.524 . S
C1819 C1811 1.503 . S
C1819 C1818 1.370 . S
C1819 C1820 1.403 . S
C1820 C1819 1.403 . S
C1820 C1821 1.404 . S
C1820 C1823 1.539 . S
C1821 C1817 1.408 . S
C1821 C1820 1.404 . S
C1821 H1833 0.930 . S
C1822 C1818 1.524 . S
C1822 H1834 0.956 . S
C1822 H1835 0.961 . S
C1822 H1836 0.961 . S
C1823 C1820 1.539 . S
C1823 H1837 0.958 . S
C1823 H1838 0.961 . S
C1823 H1839 0.960 . S
H1824 C1808 0.931 . S
H1825 C1813 0.929 1_655 S
H1826 C1814 0.960 . S
H1827 C1814 0.962 . S
H1828 C1814 0.960 . S
H1829 C1815 0.961 . S
H1830 C1815 0.961 . S
H1831 C1815 0.961 . S
H1832 C1816 0.931 . S
H1833 C1821 0.930 . S
H1834 C1822 0.956 . S
H1835 C1822 0.961 . S
H1836 C1822 0.961 . S
H1837 C1823 0.958 . S
H1838 C1823 0.961 . S
H1839 C1823 0.960 . S
C1840 C1841 1.391 . S
C1840 C1842 1.394 . S
C1840 H1856 0.931 . S
C1841 C1840 1.391 . S
C1841 C1845 1.376 . S
C1842 C1840 1.394 . S
C1842 C1843 1.369 . S
C1842 C1846 1.531 . S
C1843 C1842 1.369 . S
C1843 C1844 1.410 . S
C1843 C1851 1.503 . S
C1844 C1843 1.410 . S
C1844 C1845 1.392 . S
C1844 C1847 1.511 . S
C1845 C1841 1.376 . S
C1845 C1844 1.392 . S
C1845 H1857 0.929 . S
C1846 C1842 1.531 . S
C1846 H1858 0.960 . S
C1846 H1859 0.962 . S
C1846 H1860 0.960 . S
C1847 C1844 1.511 . S
C1847 H1861 0.961 . S
C1847 H1862 0.961 . S
C1847 H1863 0.961 . S
C1848 C1849 1.370 . S
C1848 C1850 1.363 . S
C1848 H1864 0.931 . S
C1849 C1848 1.370 . S
C1849 C1853 1.408 . S
C1850 C1848 1.363 . S
C1850 C1851 1.370 . S
C1850 C1854 1.524 . S
C1851 C1843 1.503 . S
C1851 C1850 1.370 . S
C1851 C1852 1.403 . S
C1852 C1851 1.403 . S
C1852 C1853 1.404 . S
C1852 C1855 1.539 . S
C1853 C1849 1.408 . S
C1853 C1852 1.404 . S
C1853 H1865 0.930 . S
C1854 C1850 1.524 . S
C1854 H1866 0.956 . S
C1854 H1867 0.961 . S
C1854 H1868 0.961 . S
C1855 C1852 1.539 . S
C1855 H1869 0.958 . S
C1855 H1870 0.961 . S
C1855 H1871 0.960 . S
H1856 C1840 0.931 . S
H1857 C1845 0.929 . S
H1858 C1846 0.960 . S
H1859 C1846 0.962 . S
H1860 C1846 0.960 . S
H1861 C1847 0.961 . S
H1862 C1847 0.961 . S
H1863 C1847 0.961 . S
H1864 C1848 0.931 . S
H1865 C1853 0.930 . S
H1866 C1854 0.956 . S
H1867 C1854 0.961 . S
H1868 C1854 0.961 . S
H1869 C1855 0.958 . S
H1870 C1855 0.961 . S
H1871 C1855 0.960 . S
C1872 C1873 1.391 . S
C1872 C1874 1.394 . S
C1872 H1888 0.931 . S
C1873 C1872 1.391 . S
C1873 C1877 1.376 . S
C1874 C1872 1.394 . S
C1874 C1875 1.369 . S
C1874 C1878 1.531 . S
C1875 C1874 1.369 . S
C1875 C1876 1.410 . S
C1875 C1883 1.503 . S
C1876 C1875 1.410 . S
C1876 C1877 1.392 . S
C1876 C1879 1.511 . S
C1877 C1873 1.376 . S
C1877 C1876 1.392 . S
C1877 H1889 0.929 . S
C1878 C1874 1.531 . S
C1878 H1890 0.960 . S
C1878 H1891 0.962 1_565 S
C1878 H1892 0.960 . S
C1879 C1876 1.511 . S
C1879 H1893 0.961 . S
C1879 H1894 0.961 . S
C1879 H1895 0.961 . S
C1880 C1881 1.370 1_545 S
C1880 C1882 1.363 1_545 S
C1880 H1896 0.931 . S
C1881 C1880 1.370 1_565 S
C1881 C1885 1.408 . S
C1882 C1880 1.363 1_565 S
C1882 C1883 1.370 . S
C1882 C1886 1.524 . S
C1883 C1875 1.503 . S
C1883 C1882 1.370 . S
C1883 C1884 1.403 . S
C1884 C1883 1.403 . S
C1884 C1885 1.404 . S
C1884 C1887 1.539 . S
C1885 C1881 1.408 . S
C1885 C1884 1.404 . S
C1885 H1897 0.930 . S
C1886 C1882 1.524 . S
C1886 H1898 0.956 1_565 S
C1886 H1899 0.961 . S
C1886 H1900 0.961 1_565 S
C1887 C1884 1.539 . S
C1887 H1901 0.958 . S
C1887 H1902 0.961 . S
C1887 H1903 0.960 . S
H1888 C1872 0.931 . S
H1889 C1877 0.929 . S
H1890 C1878 0.960 . S
H1891 C1878 0.962 1_545 S
H1892 C1878 0.960 . S
H1893 C1879 0.961 . S
H1894 C1879 0.961 . S
H1895 C1879 0.961 . S
H1896 C1880 0.931 . S
H1897 C1885 0.930 . S
H1898 C1886 0.956 1_545 S
H1899 C1886 0.961 . S
H1900 C1886 0.961 1_545 S
H1901 C1887 0.958 . S
H1902 C1887 0.961 . S
H1903 C1887 0.960 . S
C369 C16 0.951 . S
C377 C292 0.993 . S
C401 C131 0.947 . S
C409 C39 0.992 . S
C433 C62 0.948 . S
C441 C338 0.993 . S
C465 C85 0.950 . S
C473 C177 0.990 . S
C497 C108 0.985 . S
C505 C200 0.980 . S
C529 C246 1.013 . S
C537 C154 0.965 . S
C561 C315 1.013 . S
C569 C223 0.966 . S
C593 C269 1.012 . S
C601 C361 0.965 . S
C625 C225 1.606 . S
C633 C17 1.541 . S
C657 C40 1.561 . S
C665 C248 1.601 . S
C689 C63 1.548 . S
C697 C271 1.598 . S
C721 C202 1.587 . S
C729 C86 1.536 . S
C753 C317 1.602 . S
C761 C109 1.547 . S
C785 C340 1.605 . S
C793 C132 1.549 . S
C817 C155 1.515 . S
C825 C363 1.595 . S
C849 C294 1.593 . S
C857 C178 1.539 . S
C881 C201 1.519 . S
C889 C41 1.594 . S
C913 C224 1.565 . S
C921 C64 1.602 . S
C945 C247 1.564 . S
C953 C87 1.602 . S
C977 C18 1.584 . S
C985 C270 1.532 . S
C1009 C133 1.582 . S
C1017 C293 1.524 . S
C1041 C316 1.521 . S
C1049 C156 1.595 . S
C1073 C179 1.585 . S
C1081 C339 1.523 . S
C1105 C362 1.546 . S
C1113 C110 1.603 . S
C1137 C20 1.383 . S
C1145 C250 1.384 . S
C1169 C43 1.362 . S
C1177 C273 1.356 . S
C1201 C204 1.404 . S
C1209 C66 1.370 . S
C1233 C89 1.402 . S
C1241 C227 1.375 . S
C1265 C112 1.332 . S
C1273 C342 1.381 . S
C1297 C135 1.334 . S
C1305 C365 1.382 . S
C1329 C296 1.341 . S
C1337 C158 1.365 . S
C1361 C181 1.331 . S
C1369 C319 1.376 . S
C1393 C21 1.274 . S
C1401 C180 1.227 . S
C1425 C295 1.212 . S
C1433 C44 1.268 . S
C1457 C67 1.267 . S
C1465 C134 1.249 . S
C1489 C90 1.274 1_455 S
C1497 C341 1.243 . S
C1521 C113 1.277 . S
C1529 C88 1.228 . S
C1553 C203 1.223 . S
C1561 C136 1.274 . S
C1585 C159 1.254 . S
C1593 C42 1.234 . S
C1617 C249 1.216 . S
C1625 C182 1.265 1_655 S
C1649 C205 1.258 . S
C1657 C364 1.253 . S
C1681 C111 1.265 . S
C1689 C228 1.261 1_665 S
C1713 C318 1.257 . S
C1721 C251 1.261 . S
C1745 C274 1.276 1_545 S
C1753 C157 1.227 . S
C1777 C297 1.262 . S
C1785 C272 1.254 . S
C1809 C320 1.260 1_445 S
C1817 C19 1.254 . S
C1841 C226 1.246 . S
C1849 C343 1.273 . S
C1873 C65 1.212 . S
C1881 C366 1.266 1_565 S
