# Generated by pormake.
# Topology vmb, (5)-cn, num edge types: 1
# Building blocks:
#     Node 0, Type 0, BuildingBlock: XOMCOT_clean_sbu_1, # of connection points: 5
#     Node 1, Type 0, BuildingBlock: XOMCOT_clean_sbu_1, # of connection points: 5
#     Node 2, Type 0, BuildingBlock: XOMCOT_clean_sbu_1, # of connection points: 5
#     Node 3, Type 0, BuildingBlock: XOMCOT_clean_sbu_1, # of connection points: 5
#     Node 4, Type 0, BuildingBlock: XOMCOT_clean_sbu_1, # of connection points: 5
#     Node 5, Type 0, BuildingBlock: XOMCOT_clean_sbu_1, # of connection points: 5
#     Node 6, Type 0, BuildingBlock: XOMCOT_clean_sbu_1, # of connection points: 5
#     Node 7, Type 0, BuildingBlock: XOMCOT_clean_sbu_1, # of connection points: 5
#     Edge 8, Type (0, 0), BuildingBlock: OJICUG_clean_linker_0, # of connection points: 2
#     Edge 9, Type (0, 0), BuildingBlock: OJICUG_clean_linker_0, # of connection points: 2
#     Edge 10, Type (0, 0), BuildingBlock: OJICUG_clean_linker_0, # of connection points: 2
#     Edge 11, Type (0, 0), BuildingBlock: OJICUG_clean_linker_0, # of connection points: 2
#     Edge 12, Type (0, 0), BuildingBlock: OJICUG_clean_linker_0, # of connection points: 2
#     Edge 13, Type (0, 0), BuildingBlock: OJICUG_clean_linker_0, # of connection points: 2
#     Edge 14, Type (0, 0), BuildingBlock: OJICUG_clean_linker_0, # of connection points: 2
#     Edge 15, Type (0, 0), BuildingBlock: OJICUG_clean_linker_0, # of connection points: 2
#     Edge 16, Type (0, 0), BuildingBlock: OJICUG_clean_linker_0, # of connection points: 2
#     Edge 17, Type (0, 0), BuildingBlock: OJICUG_clean_linker_0, # of connection points: 2
#     Edge 18, Type (0, 0), BuildingBlock: OJICUG_clean_linker_0, # of connection points: 2
#     Edge 19, Type (0, 0), BuildingBlock: OJICUG_clean_linker_0, # of connection points: 2
#     Edge 20, Type (0, 0), BuildingBlock: OJICUG_clean_linker_0, # of connection points: 2
#     Edge 21, Type (0, 0), BuildingBlock: OJICUG_clean_linker_0, # of connection points: 2
#     Edge 22, Type (0, 0), BuildingBlock: OJICUG_clean_linker_0, # of connection points: 2
#     Edge 23, Type (0, 0), BuildingBlock: OJICUG_clean_linker_0, # of connection points: 2
#     Edge 24, Type (0, 0), BuildingBlock: OJICUG_clean_linker_0, # of connection points: 2
#     Edge 25, Type (0, 0), BuildingBlock: OJICUG_clean_linker_0, # of connection points: 2
#     Edge 26, Type (0, 0), BuildingBlock: OJICUG_clean_linker_0, # of connection points: 2
#     Edge 27, Type (0, 0), BuildingBlock: OJICUG_clean_linker_0, # of connection points: 2
# Relax obj value: 0.075
# Max RMSD: 0.116
# Mean RMSD: 0.116
data_MOF--net-vmb--node1-XOMCOT_clean_sbu_1--edge1-OJICUG_clean_linker_0
_symmetry_space_group_name_H-M    P1
_symmetry_Int_Tables_number       1
_symmetry_cell_setting            triclinic
loop_
_symmetry_equiv_pos_as_xyz
'x, y, z'
_cell_length_a     28.989883
_cell_length_b     37.972324
_cell_length_c     19.494875
_cell_angle_alpha  89.946243
_cell_angle_beta   118.55219
_cell_angle_gamma 90.243011
loop_
_atom_site_label
_atom_site_type_symbol
_atom_site_fract_x
_atom_site_fract_y
_atom_site_fract_z
_atom_type_partial_charge
C0 C 0.18602 0.06957 0.22999 0.0
C1 C 0.13366 0.06754 0.20941 0.0
N2 N 0.12878 0.05033 0.26612 0.0
N3 N 0.21465 0.05354 0.29928 0.0
C4 C 0.17865 0.04215 0.3201 0.0
H5 H 0.20227 0.08309 0.19756 0.0
Co6 Co 0.28849 0.05292 0.35112 0.0
C7 C 0.31966 0.02585 0.50912 0.0
O8 O 0.35649 0.0502 0.53681 0.0
N9 N 0.36358 0.05181 0.4016 0.0
C10 C 0.44897 0.06367 0.45013 0.0
C11 C 0.39922 0.07763 0.41527 0.0
C12 C 0.39322 0.02222 0.42743 0.0
N13 N 0.44534 0.02872 0.45797 0.0
O14 O 0.28747 0.01281 0.29099 0.0
H15 H 0.39066 0.10495 0.39988 0.0
H16 H 0.37661 -0.00367 0.42436 0.0
O17 O 0.28951 0.02325 0.43513 0.0
C18 C 0.28893 0.02415 0.23033 0.0
O19 O 0.2909 0.05832 0.2214 0.0
N20 N 0.28768 0.09478 0.40152 0.0
C21 C 0.28532 0.162 0.45679 0.0
C22 C 0.26982 0.13258 0.48453 0.0
C23 C 0.26987 0.09922 0.45444 0.0
C24 C 0.29737 0.12346 0.36835 0.0
C25 C 0.29783 0.15722 0.39639 0.0
H26 H 0.25471 0.07734 0.47298 0.0
H27 H 0.30501 0.11999 0.31964 0.0
H28 H 0.18884 0.02874 0.37444 0.0
H29 H 0.10189 0.07935 0.15816 0.0
H30 H 0.48494 0.07818 0.46634 0.0
H31 H 0.2579 0.13523 0.52911 0.0
H32 H 0.30713 0.17941 0.37016 0.0
C33 C 0.87974 0.06228 0.322 0.0
C34 C 0.93212 0.06067 0.34269 0.0
N35 N 0.93683 0.04639 0.2831 0.0
N36 N 0.8509 0.04887 0.24973 0.0
C37 C 0.88683 0.03942 0.22736 0.0
H38 H 0.8637 0.07391 0.35655 0.0
Co39 Co 0.77702 0.04942 0.19639 0.0
C40 C 0.7458 0.02247 0.03801 0.0
O41 O 0.71007 0.04732 1.0105 0.0
N42 N 0.70191 0.04956 0.14447 0.0
C43 C 0.61708 0.06302 0.09447 0.0
C44 C 0.66752 0.0761 0.13007 0.0
C45 C 0.67081 0.02047 0.11818 0.0
N46 N 0.61899 0.02792 0.0868 0.0
O47 O 0.77544 0.00928 0.25522 0.0
H48 H 0.67741 0.10335 0.14543 0.0
H49 H 0.68615 -0.00578 0.12158 0.0
O50 O 0.7755 0.01956 0.11208 0.0
C51 C 0.77286 0.02038 0.31518 0.0
O52 O 0.77117 0.05453 0.32458 0.0
N53 N 0.78045 0.09127 0.14741 0.0
C54 C 0.78834 0.15846 0.0959 0.0
C55 C 0.80166 0.1286 0.06689 0.0
C56 C 0.79879 0.09526 0.09497 0.0
C57 C 0.77229 0.1202 0.18135 0.0
C58 C 0.77454 0.15397 0.15514 0.0
H59 H 0.81268 0.07306 0.07572 0.0
H60 H 0.76359 0.11694 0.22911 0.0
H61 H 0.8765 0.02848 0.17061 0.0
H62 H 0.96405 0.07097 0.39613 0.0
H63 H 0.5818 0.07822 0.07763 0.0
H64 H 0.81545 0.13101 1.02434 0.0
H65 H 0.76514 0.17625 0.18076 0.0
C66 C 0.87591 0.89097 0.81542 0.0
C67 C 0.92831 0.89334 0.83641 0.0
N68 N 0.93324 0.91107 0.78031 0.0
N69 N 0.84734 0.90729 0.7465 0.0
C70 C 0.88338 0.91924 0.72634 0.0
H71 H 0.85959 0.87697 0.84719 0.0
Co72 Co 0.77358 0.90739 0.69388 0.0
C73 C 0.74278 0.93475 0.53599 0.0
O74 O 0.70636 0.91013 0.50802 0.0
N75 N 0.69857 0.90796 0.64266 0.0
C76 C 0.61326 0.8956 0.59311 0.0
C77 C 0.66318 0.88187 0.62803 0.0
C78 C 0.66866 0.93743 0.61722 0.0
N79 N 0.61658 0.93066 0.58616 0.0
O80 O 0.77367 0.94745 0.75402 0.0
H81 H 0.67207 0.85451 0.64277 0.0
H82 H 0.68506 0.96345 0.62099 0.0
O83 O 0.77259 0.9374 0.61009 0.0
C84 C 0.77256 0.9364 0.81518 0.0
O85 O 0.7713 0.90226 0.8252 0.0
N86 N 0.77546 0.86561 0.64351 0.0
C87 C 0.78292 0.79853 0.59115 0.0
C88 C 0.79676 0.82857 0.56292 0.0
C89 C 0.79426 0.8618 0.59161 0.0
C90 C 0.76639 0.83655 0.67634 0.0
C91 C 0.76865 0.80285 0.64991 0.0
H92 H 0.80882 0.88408 0.57329 0.0
H93 H 0.75777 0.8396 0.72421 0.0
H94 H 0.87321 0.93296 0.67236 0.0
H95 H 0.96008 0.88135 0.88739 0.0
H96 H 0.5774 0.88085 0.57623 0.0
H97 H 0.8097 0.82651 0.51937 0.0
H98 H 0.76045 0.78035 0.67663 0.0
C99 C 0.1816 0.9009 0.72281 0.0
C100 C 0.12929 0.90263 0.70241 0.0
N101 N 0.1249 0.9162 0.76286 0.0
N102 N 0.2107 0.91353 0.79575 0.0
C103 C 0.175 0.92264 0.81882 0.0
H104 H 0.19738 0.8897 0.68752 0.0
Co105 Co 0.28448 0.91245 0.84878 0.0
C106 C 0.31674 0.93957 1.00703 0.0
O107 O 0.35244 0.91469 0.03425 0.0
N108 N 0.35955 0.91174 0.90028 0.0
C109 C 0.44418 0.89773 0.95011 0.0
C110 C 0.39355 0.88492 0.91493 0.0
C111 C 0.39102 0.94067 0.92597 0.0
N112 N 0.44272 0.93291 0.9572 0.0
O113 O 0.28655 0.95235 0.79 0.0
H114 H 0.38318 0.85768 0.90004 0.0
H115 H 0.37601 0.96704 0.92233 0.0
O116 O 0.28668 0.94246 0.93307 0.0
C117 C 0.28933 0.941 0.7304 0.0
O118 O 0.29094 0.90682 0.7214 0.0
N119 N 0.2805 0.87089 0.89793 0.0
C120 C 0.2735 0.80396 0.95096 0.0
C121 C 0.26076 0.83388 0.9805 0.0
C122 C 0.26305 0.86711 0.95151 0.0
C123 C 0.2876 0.8419 0.86317 0.0
C124 C 0.28546 0.80823 0.88976 0.0
H125 H 0.24998 0.88942 0.97164 0.0
H126 H 0.29546 0.84504 0.81455 0.0
H127 H 0.18558 0.93294 0.87618 0.0
H128 H 0.09717 0.89286 0.64852 0.0
H129 H 0.47926 0.88228 0.96711 0.0
H130 H 0.24946 0.83175 1.02586 0.0
H131 H 0.29269 0.78575 0.86212 0.0
C132 C 0.69924 0.55286 0.25035 0.0
C133 C 0.64753 0.54943 0.2326 0.0
N134 N 0.64572 0.54207 0.29879 0.0
N135 N 0.7303 0.54734 0.3274 0.0
C136 C 0.69639 0.54096 0.35551 0.0
H137 H 0.71304 0.55983 0.20956 0.0
Co138 Co 0.80376 0.55036 0.37765 0.0
C139 C 0.83946 0.52228 0.53722 0.0
O140 O 0.87536 0.54723 0.56421 0.0
N141 N 0.87837 0.55279 0.42652 0.0
C142 C 0.96259 0.56804 0.4743 0.0
C143 C 0.91196 0.58031 0.44402 0.0
C144 C 0.90994 0.52417 0.44627 0.0
N145 N 0.96126 0.53263 0.47533 0.0
O146 O 0.80591 0.51051 0.31793 0.0
H147 H 0.90123 0.60769 0.43428 0.0
H148 H 0.89533 0.49744 0.43947 0.0
O149 O 0.80836 0.51989 0.46341 0.0
C150 C 0.80852 0.52139 0.25773 0.0
O151 O 0.81033 0.55551 0.24781 0.0
N152 N 0.79959 0.59188 0.42705 0.0
C153 C 0.79075 0.65899 0.47759 0.0
C154 C 0.78166 0.62891 0.51126 0.0
C155 C 0.7853 0.59554 0.48413 0.0
C156 C 0.80415 0.62092 0.3896 0.0
C157 C 0.80122 0.6547 0.41503 0.0
H158 H 0.77543 0.57308 0.50833 0.0
H159 H 0.8109 0.6177 0.33996 0.0
H160 H 0.70835 0.53587 0.4163 0.0
H161 H 0.61375 0.55357 0.17588 0.0
H162 H 0.99745 0.58401 0.49174 0.0
H163 H 0.77197 0.63109 0.55829 0.0
H164 H 0.80634 0.67726 0.38523 0.0
C165 C 0.3857 0.59108 0.28376 0.0
C166 C 0.43945 0.58849 0.31805 0.0
N167 N 0.45153 0.55682 0.30021 0.0
N168 N 0.36343 0.5614 0.24302 0.0
C169 C 0.4048 0.54046 0.25729 0.0
H170 H 0.36453 0.61377 0.28694 0.0
Co171 Co 0.29047 0.55292 0.17956 0.0
C172 C 0.33382 0.5238 0.07612 0.0
O173 O 0.37165 0.54739 0.09921 0.0
N174 N 0.21779 0.54405 0.11654 0.0
C175 C 0.13994 0.53752 1.0106 0.0
C176 C 0.19007 0.55003 0.03885 0.0
C177 C 0.18319 0.52713 0.13362 0.0
N178 N 0.1355 0.52291 0.06995 0.0
O179 O 0.29577 0.51256 0.24322 0.0
H180 H 0.20554 0.56082 1.00293 0.0
H181 H 0.19307 0.51704 0.19087 0.0
O182 O 0.30236 0.52384 0.10516 0.0
C183 C 0.30025 0.52289 0.30867 0.0
O184 O 0.30284 0.55689 0.32261 0.0
N185 N 0.28382 0.59527 0.12417 0.0
C186 C 0.27597 0.66372 0.06775 0.0
C187 C 0.28416 0.63535 0.02918 0.0
C188 C 0.28727 0.60132 0.0576 0.0
C189 C 0.27241 0.62239 0.15929 0.0
C190 C 0.26871 0.65692 0.13253 0.0
H191 H 0.28976 0.58036 1.0229 0.0
H192 H 0.26754 0.61718 0.21004 0.0
H193 H 0.40076 0.51422 0.23346 0.0
H194 H 0.46729 0.6093 0.34922 0.0
H195 H 0.11007 0.53705 0.94984 0.0
H196 H 0.28741 0.63938 0.97662 0.0
H197 H 0.26164 0.67811 0.16345 0.0
C198 C 0.38872 0.39725 0.81163 0.0
C199 C 0.44177 0.39812 0.83649 0.0
N200 N 0.4495 0.41111 0.77835 0.0
N201 N 0.36276 0.40966 0.73817 0.0
C202 C 0.40074 0.41793 0.71925 0.0
H203 H 0.37005 0.3875 0.84448 0.0
Co204 Co 0.28983 0.41147 0.6825 0.0
C205 C 0.26302 0.43943 0.52594 0.0
O206 O 0.22425 0.41651 0.49637 0.0
N207 N 0.21493 0.41357 0.62819 0.0
C208 C 0.12932 0.40152 0.57393 0.0
C209 C 0.17884 0.38744 0.60745 0.0
C210 C 0.18572 0.4434 0.60708 0.0
N211 N 0.13348 0.4368 0.57368 0.0
O212 O 0.29191 0.45182 0.7431 0.0
H213 H 0.18686 0.35972 0.61712 0.0
H214 H 0.20266 0.46954 0.61626 0.0
O215 O 0.29257 0.44104 0.60033 0.0
C216 C 0.28118 0.44249 0.79694 0.0
O217 O 0.26562 0.40992 0.79685 0.0
N218 N 0.29063 0.36938 0.63278 0.0
C219 C 0.29351 0.30166 0.58019 0.0
C220 C 0.30853 0.3308 0.55105 0.0
C221 C 0.3082 0.36442 0.57973 0.0
C222 C 0.28118 0.34102 0.66712 0.0
C223 C 0.28097 0.307 0.6404 0.0
H224 H 0.32326 0.386 0.56028 0.0
H225 H 0.27282 0.34501 0.71502 0.0
H226 H 0.39277 0.42841 0.66307 0.0
H227 H 0.4721 0.38868 0.89221 0.0
H228 H 0.09311 0.38678 0.55384 0.0
H229 H 0.32039 0.32773 0.50647 0.0
H230 H 0.27172 0.28507 0.66735 0.0
C231 C 0.70788 0.38991 0.75095 0.0
C232 C 0.65487 0.39176 0.72553 0.0
N233 N 0.64728 0.40885 0.77984 0.0
N234 N 0.73408 0.40594 0.82089 0.0
C235 C 0.69611 0.41721 0.83718 0.0
H236 H 0.7262 0.37638 0.72158 0.0
Co237 Co 0.80732 0.40619 0.87908 0.0
C238 C 0.83344 0.43331 0.03559 0.0
O239 O 0.86875 0.40825 0.06454 0.0
N240 N 0.88197 0.40677 0.93627 0.0
C241 C 0.96774 0.39511 0.99934 0.0
C242 C 0.91808 0.38072 0.96186 0.0
C243 C 0.9112 0.43668 0.95859 0.0
N244 N 0.96338 0.43039 0.99715 0.0
O245 O 0.81007 0.44632 0.82032 0.0
H246 H 0.90999 0.35291 0.95358 0.0
H247 H 0.89427 0.46277 0.94695 0.0
O248 O 0.8053 0.43636 0.96111 0.0
C249 C 0.81394 0.4354 0.76123 0.0
O250 O 0.81655 0.40131 0.75228 0.0
N251 N 0.80262 0.36449 0.92719 0.0
C252 C 0.79303 0.29746 0.97738 0.0
C253 C 0.77747 0.32728 1.0034 0.0
C254 C 0.78109 0.36055 0.9757 0.0
C255 C 0.81331 0.33555 0.89612 0.0
C256 C 0.81003 0.30182 0.92165 0.0
H257 H 0.7654 0.38275 0.99208 0.0
H258 H 0.82519 0.33881 0.85164 0.0
H259 H 0.70413 0.43047 0.89085 0.0
H260 H 0.62448 0.37977 0.67284 0.0
H261 H 1.00425 0.38064 1.02367 0.0
H262 H 0.76144 0.32482 0.04327 0.0
H263 H 0.82127 0.27947 0.89854 0.0
C264 C 0.27975 -0.00765 0.04053 0.0
C265 C 0.30692 0.96037 0.06291 0.0
H266 H 0.25287 0.03754 0.07654 0.0
C267 C 0.32482 0.94815 0.13981 0.0
H268 H 0.26524 0.00231 0.98173 0.0
C269 C 0.31671 0.96791 0.1937 0.0
C270 C 0.29145 0.00056 0.17204 0.0
H271 H 0.34535 0.92332 0.15861 0.0
H272 H 0.33198 0.95833 0.25294 0.0
C273 C 0.27262 0.01242 0.09481 0.0
C274 C 0.78822 0.00815 0.45017 0.0
C275 C 0.76957 -0.00344 0.37274 0.0
H276 H 0.79509 -0.00241 0.56283 0.0
C277 C 0.74399 0.96389 0.35032 0.0
H278 H 0.80823 0.03328 0.46908 0.0
C279 C 0.73542 0.94386 0.40363 0.0
C280 C 0.75319 0.9558 0.48075 0.0
H281 H 0.72886 0.95449 0.29095 0.0
H282 H 0.71463 0.91903 0.38422 0.0
C283 C 0.78067 -0.01219 0.50388 0.0
C284 C 0.78908 0.94877 0.95075 0.0
C285 C 0.77014 0.96031 0.87324 0.0
H286 H 0.79693 0.95948 0.06393 0.0
C287 C 0.74515 -0.00696 0.85128 0.0
H288 H 0.80866 0.92361 0.96936 0.0
C289 C 0.73744 0.0132 0.9051 0.0
C290 C 0.75546 0.00131 0.98229 0.0
H291 H 0.72982 0.00242 0.79188 0.0
H292 H 0.71707 0.03807 0.88601 0.0
C293 C 0.78235 0.96923 1.00495 0.0
C294 C 0.27397 0.9529 0.59541 0.0
C295 C 0.2928 0.96461 0.67277 0.0
H296 H 0.26701 0.96323 0.48264 0.0
C297 C 0.31864 -0.00281 0.69506 0.0
H298 H 0.25376 0.92783 0.57665 0.0
C299 C 0.32727 0.01705 0.64163 0.0
C300 C 0.30928 0.005 0.56456 0.0
H301 H 0.3339 0.00666 0.75442 0.0
H302 H 0.34825 0.04182 0.66087 0.0
C303 C 0.28157 0.97308 0.54157 0.0
C304 C 0.83292 0.46372 0.22091 0.0
C305 C 0.81051 0.49724 0.19956 0.0
H306 H 0.85831 0.41749 0.18592 0.0
C307 C 0.79316 0.50895 0.12247 0.0
H308 H 0.8469 0.45411 0.27987 0.0
C309 C 0.79903 0.48789 0.06821 0.0
C310 C 0.82347 0.45498 0.09042 0.0
H311 H 0.77546 0.53468 0.10422 0.0
H312 H 0.7859 0.49782 1.00969 0.0
C313 C 0.83979 0.44296 0.16711 0.0
C314 C 0.31853 0.50874 0.44453 0.0
C315 C 0.29649 0.49868 0.36549 0.0
H316 H 0.32584 0.49788 0.55741 0.0
C317 C 0.26578 0.46799 0.34076 0.0
H318 H 0.3424 0.53235 0.4653 0.0
C319 C 0.25533 0.44873 0.39323 0.0
C320 C 0.2761 0.4594 0.47185 0.0
H321 H 0.24784 0.4598 0.28019 0.0
H322 H 0.23039 0.42563 0.37179 0.0
C323 C 0.30892 0.48913 0.49732 0.0
C324 C 0.34378 0.51094 0.95737 0.0
C325 C 0.32042 0.50298 1.00454 0.0
H326 H 0.34875 0.49875 0.85351 0.0
C327 C 0.28205 0.47637 0.98008 0.0
H328 H 0.37307 0.53159 0.97392 0.0
C329 C 0.26826 0.45763 0.9112 0.0
C330 C 0.2919 0.46537 0.86444 0.0
H331 H 0.2629 0.46979 1.01446 0.0
H332 H 0.23928 0.43678 0.89485 0.0
C333 C 0.3294 0.4925 0.88776 0.0
C334 C 0.84134 0.49234 0.72492 0.0
C335 C 0.81655 0.45938 0.70319 0.0
H336 H 0.86893 0.53774 0.68972 0.0
C337 C 0.79771 0.44775 0.62572 0.0
H338 H 0.85662 0.50181 0.78428 0.0
C339 C 0.80409 0.46839 0.57126 0.0
C340 C 0.83064 0.50076 0.59358 0.0
H341 H 0.77831 0.42242 0.60727 0.0
H342 H 0.78941 0.45859 0.51227 0.0
C343 C 0.84881 0.51266 0.67085 0.0
C344 C 0.52225 0.94429 0.50005 0.0
C345 C 0.57342 0.95546 0.55371 0.0
H346 H 0.44183 0.95858 0.42711 0.0
C347 C 0.58138 -0.00883 0.57551 0.0
H348 H 0.51456 0.91716 0.48083 0.0
C349 C 0.53948 0.01498 0.54456 0.0
C350 C 0.48834 0.00383 0.49081 0.0
H351 H 0.61985 0.00073 0.61753 0.0
H352 H 0.54717 0.04211 0.56375 0.0
C353 C 0.48033 0.96811 0.46913 0.0
C354 C 0.48117 -0.00741 0.96808 0.0
C355 C 0.48716 0.95692 0.98995 0.0
H356 H 0.5181 0.04277 0.98009 0.0
C357 C 0.53764 0.945 0.04398 0.0
H358 H 0.44329 0.00269 0.92576 0.0
C359 C 0.58079 0.96807 0.07525 0.0
C360 C 0.57474 0.00377 0.05352 0.0
H361 H 0.54382 0.91788 0.06324 0.0
H362 H 0.61869 0.958 0.11758 0.0
C363 C 0.5243 0.01565 0.99934 0.0
C364 C 0.99751 0.47483 0.46704 0.0
C365 C 1.00507 0.50883 0.49915 0.0
H366 H 1.03228 0.4258 0.46381 0.0
C367 C 0.0562 0.51919 0.55449 0.0
H368 H 0.95903 0.46619 0.42302 0.0
C369 C 0.09849 0.49591 0.57805 0.0
C370 C 0.0907 0.46169 0.54679 0.0
H371 H 0.0634 0.54507 0.5809 0.0
H372 H 0.137 0.50446 0.62216 0.0
C373 C 1.0397 0.45163 0.49042 0.0
C374 C 0.09849 0.4707 0.10299 0.0
C375 C 0.0912 0.50223 0.06136 0.0
H376 H 0.06323 0.42303 0.11525 0.0
C377 C 0.04024 0.51121 1.0038 0.0
H378 H 0.13731 0.463 0.14735 0.0
C379 C 0.998 0.48835 0.98502 0.0
C380 C 1.00567 0.45579 1.02318 0.0
H381 H 1.03341 0.5355 0.97127 0.0
H382 H 0.95987 0.4955 0.93789 0.0
C383 C 0.05617 0.44764 0.08384 0.0
C384 C 0.08113 0.04276 0.34262 0.0
C385 C 0.08054 0.04542 0.27029 0.0
H386 H 1.0362 0.04035 0.40337 0.0
C387 C 1.03151 0.04541 0.20184 0.0
H388 H 0.11788 0.04275 0.39657 0.0
C389 C 0.98445 0.04441 0.2057 0.0
C390 C 0.98503 0.04342 0.2782 0.0
H391 H 1.02936 0.04677 0.14495 0.0
H392 H 0.94771 0.04577 0.15187 0.0
C393 C 1.03406 0.04178 0.34649 0.0
C394 C 0.07754 0.91709 0.84067 0.0
C395 C 0.07683 0.91894 0.76815 0.0
H396 H 1.03277 0.91377 0.90152 0.0
C397 C 1.02778 0.92117 0.70006 0.0
H398 H 0.11431 0.91526 0.89434 0.0
C399 C 0.98079 0.91987 0.70404 0.0
C400 C 0.98146 0.91632 0.7763 0.0
H401 H 1.02556 0.92329 0.64322 0.0
H402 H 0.94402 0.92032 0.65014 0.0
C403 C 1.03054 0.9158 0.84466 0.0
C404 C 0.50475 0.52873 0.24732 0.0
C405 C 0.50191 0.54719 0.30769 0.0
H406 H 0.5531 0.51272 0.1974 0.0
C407 C 0.54877 0.56007 0.37022 0.0
H408 H 0.46959 0.5186 0.1981 0.0
C409 C 0.59681 0.55641 0.37 0.0
C410 C 0.59877 0.54028 0.30664 0.0
H411 H 0.54789 0.57417 0.41781 0.0
H412 H 0.6318 0.56808 0.41694 0.0
C413 C 0.55254 0.52558 0.24654 0.0
C414 C 0.55013 0.41283 0.70855 0.0
C415 C 0.59757 0.41318 0.77941 0.0
H416 H 0.46619 0.41165 0.65236 0.0
C417 C 0.5952 0.41558 0.84959 0.0
H418 H 0.55034 0.41164 0.65325 0.0
C419 C 0.54672 0.41605 0.84901 0.0
C420 C 0.49927 0.41409 0.77827 0.0
H421 H 0.63072 0.41581 0.90528 0.0
H422 H 0.54655 0.41743 0.90431 0.0
C423 C 0.50166 0.41324 0.70796 0.0
C424 C 0.33133 0.25431 0.53264 0.0
C425 C 0.29169 0.2658 0.54913 0.0
H426 H 0.36077 0.21229 0.4918 0.0
C427 C 0.25006 0.24279 0.53563 0.0
H428 H 0.36434 0.27122 0.54363 0.0
C429 C 0.248 0.20904 0.50599 0.0
C430 C 0.28754 0.19761 0.4892 0.0
H431 H 0.21855 0.2511 0.54678 0.0
H432 H 0.21495 0.19215 0.49488 0.0
C433 C 0.32928 0.22057 0.50303 0.0
C434 C 0.80916 0.25675 0.0876 0.0
C435 C 0.79105 0.26196 1.00745 0.0
H436 H 0.82382 0.21993 0.17871 0.0
C437 C 0.77213 0.23295 0.95662 0.0
H438 H 0.82469 0.27855 0.12828 0.0
C439 C 0.77142 0.19938 0.98539 0.0
C440 C 0.78972 0.1941 0.06562 0.0
H441 H 0.75726 0.23625 0.8944 0.0
H442 H 0.75579 0.17764 0.94457 0.0
C443 C 0.80864 0.22317 0.11642 0.0
C444 C 0.82697 0.71999 0.51709 0.0
C445 C 0.7886 0.69469 0.50651 0.0
H446 H 0.85601 0.77227 0.55359 0.0
C447 C 0.74829 0.70377 0.52361 0.0
H448 H 0.8589 0.71356 0.50535 0.0
C449 C 0.74632 0.7375 0.55058 0.0
C450 C 0.78482 0.76283 0.56153 0.0
H451 H 0.71777 0.68497 0.51495 0.0
H452 H 0.71421 0.74386 0.56194 0.0
C453 C 0.8252 0.75365 0.5445 0.0
C454 C 0.31382 0.74448 0.99277 0.0
C455 C 0.27436 0.76844 0.98311 0.0
H456 H 0.34538 0.69283 0.02776 0.0
C457 C 0.23605 0.75804 1.00387 0.0
H458 H 0.3446 0.75192 0.97904 0.0
C459 C 0.23682 0.72415 0.03252 0.0
C460 C 0.2757 0.70008 0.04041 0.0
H461 H 0.20484 0.77577 0.99639 0.0
H462 H 0.20633 0.71651 0.0467 0.0
C463 C 0.31438 0.71067 1.02085 0.0
loop_
_geom_bond_atom_site_label_1
_geom_bond_atom_site_label_2
_geom_bond_distance
_geom_bond_site_symmetry_2
_ccdc_geom_bond_type
C0 C1 1.351 . S
C0 N3 1.368 . S
C0 H5 0.931 . S
C1 C0 1.351 . S
C1 N2 1.373 . S
C1 H29 0.930 . S
N2 C1 1.373 . S
N2 C4 1.340 . S
N3 C0 1.368 . S
N3 C4 1.321 . S
N3 Co6 2.135 . S
C4 N2 1.340 . S
C4 N3 1.321 . S
C4 H28 0.930 . S
H5 C0 0.931 . S
Co6 N3 2.135 . S
Co6 N9 2.121 . S
Co6 O14 2.055 . S
Co6 O17 2.039 . S
Co6 N20 2.140 . S
C7 O8 1.227 . S
C7 O17 1.265 . S
O8 C7 1.227 . S
N9 Co6 2.121 . S
N9 C11 1.375 . S
N9 C12 1.313 . S
C10 C11 1.338 . S
C10 N13 1.377 . S
C10 H30 0.930 . S
C11 N9 1.375 . S
C11 C10 1.338 . S
C11 H15 0.931 . S
C12 N9 1.313 . S
C12 N13 1.344 . S
C12 H16 0.930 . S
N13 C10 1.377 . S
N13 C12 1.344 . S
O14 Co6 2.055 . S
O14 C18 1.253 . S
H15 C11 0.931 . S
H16 C12 0.930 . S
O17 Co6 2.039 . S
O17 C7 1.265 . S
C18 O14 1.253 . S
C18 O19 1.227 . S
O19 C18 1.227 . S
N20 Co6 2.140 . S
N20 C23 1.346 . S
N20 C24 1.345 . S
C21 C22 1.387 . S
C21 C25 1.391 . S
C22 C21 1.387 . S
C22 C23 1.369 . S
C22 H31 0.929 . S
C23 N20 1.346 . S
C23 C22 1.369 . S
C23 H26 0.928 . S
C24 N20 1.345 . S
C24 C25 1.371 . S
C24 H27 0.931 . S
C25 C21 1.391 . S
C25 C24 1.371 . S
C25 H32 0.930 . S
H26 C23 0.928 . S
H27 C24 0.931 . S
H28 C4 0.930 . S
H29 C1 0.930 . S
H30 C10 0.930 . S
H31 C22 0.929 . S
H32 C25 0.930 . S
C33 C34 1.351 . S
C33 N36 1.368 . S
C33 H38 0.931 . S
C34 C33 1.351 . S
C34 N35 1.373 . S
C34 H62 0.930 . S
N35 C34 1.373 . S
N35 C37 1.340 . S
N36 C33 1.368 . S
N36 C37 1.321 . S
N36 Co39 2.135 . S
C37 N35 1.340 . S
C37 N36 1.321 . S
C37 H61 0.930 . S
H38 C33 0.931 . S
Co39 N36 2.135 . S
Co39 N42 2.121 . S
Co39 O47 2.055 . S
Co39 O50 2.039 . S
Co39 N53 2.140 . S
C40 O41 1.227 . S
C40 O50 1.265 1_556 S
O41 C40 1.227 . S
N42 Co39 2.121 . S
N42 C44 1.375 1_554 S
N42 C45 1.313 . S
C43 C44 1.338 . S
C43 N46 1.377 1_556 S
C43 H63 0.930 . S
C44 N42 1.375 1_556 S
C44 C43 1.338 . S
C44 H48 0.931 . S
C45 N42 1.313 . S
C45 N46 1.344 . S
C45 H49 0.930 . S
N46 C43 1.377 1_554 S
N46 C45 1.344 . S
O47 Co39 2.055 . S
O47 C51 1.253 . S
H48 C44 0.931 . S
H49 C45 0.930 . S
O50 Co39 2.039 . S
O50 C40 1.265 1_554 S
C51 O47 1.253 . S
C51 O52 1.227 . S
O52 C51 1.227 . S
N53 Co39 2.140 . S
N53 C56 1.346 . S
N53 C57 1.345 . S
C54 C55 1.387 . S
C54 C58 1.391 . S
C55 C54 1.387 . S
C55 C56 1.369 . S
C55 H64 0.929 . S
C56 N53 1.346 . S
C56 C55 1.369 . S
C56 H59 0.928 . S
C57 N53 1.345 . S
C57 C58 1.371 . S
C57 H60 0.931 . S
C58 C54 1.391 . S
C58 C57 1.371 . S
C58 H65 0.930 . S
H59 C56 0.928 . S
H60 C57 0.931 . S
H61 C37 0.930 . S
H62 C34 0.930 . S
H63 C43 0.930 . S
H64 C55 0.929 . S
H65 C58 0.930 . S
C66 C67 1.351 . S
C66 N69 1.368 . S
C66 H71 0.931 . S
C67 C66 1.351 . S
C67 N68 1.373 . S
C67 H95 0.930 . S
N68 C67 1.373 . S
N68 C70 1.340 . S
N69 C66 1.368 . S
N69 C70 1.321 . S
N69 Co72 2.135 . S
C70 N68 1.340 . S
C70 N69 1.321 . S
C70 H94 0.930 . S
H71 C66 0.931 . S
Co72 N69 2.135 . S
Co72 N75 2.121 . S
Co72 O80 2.055 . S
Co72 O83 2.039 . S
Co72 N86 2.140 . S
C73 O74 1.227 . S
C73 O83 1.265 . S
O74 C73 1.227 . S
N75 Co72 2.121 . S
N75 C77 1.375 . S
N75 C78 1.313 . S
C76 C77 1.338 . S
C76 N79 1.377 . S
C76 H96 0.930 . S
C77 N75 1.375 . S
C77 C76 1.338 . S
C77 H81 0.931 . S
C78 N75 1.313 . S
C78 N79 1.344 . S
C78 H82 0.930 . S
N79 C76 1.377 . S
N79 C78 1.344 . S
O80 Co72 2.055 . S
O80 C84 1.253 . S
H81 C77 0.931 . S
H82 C78 0.930 . S
O83 Co72 2.039 . S
O83 C73 1.265 . S
C84 O80 1.253 . S
C84 O85 1.227 . S
O85 C84 1.227 . S
N86 Co72 2.140 . S
N86 C89 1.346 . S
N86 C90 1.345 . S
C87 C88 1.387 . S
C87 C91 1.391 . S
C88 C87 1.387 . S
C88 C89 1.369 . S
C88 H97 0.929 . S
C89 N86 1.346 . S
C89 C88 1.369 . S
C89 H92 0.928 . S
C90 N86 1.345 . S
C90 C91 1.371 . S
C90 H93 0.931 . S
C91 C87 1.391 . S
C91 C90 1.371 . S
C91 H98 0.930 . S
H92 C89 0.928 . S
H93 C90 0.931 . S
H94 C70 0.930 . S
H95 C67 0.930 . S
H96 C76 0.930 . S
H97 C88 0.929 . S
H98 C91 0.930 . S
C99 C100 1.351 . S
C99 N102 1.368 . S
C99 H104 0.931 . S
C100 C99 1.351 . S
C100 N101 1.373 . S
C100 H128 0.930 . S
N101 C100 1.373 . S
N101 C103 1.340 . S
N102 C99 1.368 . S
N102 C103 1.321 . S
N102 Co105 2.135 . S
C103 N101 1.340 . S
C103 N102 1.321 . S
C103 H127 0.930 . S
H104 C99 0.931 . S
Co105 N102 2.135 . S
Co105 N108 2.121 . S
Co105 O113 2.055 . S
Co105 O116 2.039 . S
Co105 N119 2.140 . S
C106 O107 1.227 . S
C106 O116 1.265 1_554 S
O107 C106 1.227 . S
N108 Co105 2.121 . S
N108 C110 1.375 1_556 S
N108 C111 1.313 . S
C109 C110 1.338 . S
C109 N112 1.377 1_554 S
C109 H129 0.930 . S
C110 N108 1.375 1_554 S
C110 C109 1.338 . S
C110 H114 0.931 . S
C111 N108 1.313 . S
C111 N112 1.344 . S
C111 H115 0.930 . S
N112 C109 1.377 1_556 S
N112 C111 1.344 . S
O113 Co105 2.055 . S
O113 C117 1.253 . S
H114 C110 0.931 . S
H115 C111 0.930 . S
O116 Co105 2.039 . S
O116 C106 1.265 1_556 S
C117 O113 1.253 . S
C117 O118 1.227 . S
O118 C117 1.227 . S
N119 Co105 2.140 . S
N119 C122 1.346 . S
N119 C123 1.345 . S
C120 C121 1.387 . S
C120 C124 1.391 . S
C121 C120 1.387 . S
C121 C122 1.369 . S
C121 H130 0.929 . S
C122 N119 1.346 . S
C122 C121 1.369 . S
C122 H125 0.928 . S
C123 N119 1.345 . S
C123 C124 1.371 . S
C123 H126 0.931 . S
C124 C120 1.391 . S
C124 C123 1.371 . S
C124 H131 0.930 . S
H125 C122 0.928 . S
H126 C123 0.931 . S
H127 C103 0.930 . S
H128 C100 0.930 . S
H129 C109 0.930 . S
H130 C121 0.929 . S
H131 C124 0.930 . S
C132 C133 1.351 . S
C132 N135 1.368 . S
C132 H137 0.931 . S
C133 C132 1.351 . S
C133 N134 1.373 . S
C133 H161 0.930 . S
N134 C133 1.373 . S
N134 C136 1.340 . S
N135 C132 1.368 . S
N135 C136 1.321 . S
N135 Co138 2.135 . S
C136 N134 1.340 . S
C136 N135 1.321 . S
C136 H160 0.930 . S
H137 C132 0.931 . S
Co138 N135 2.135 . S
Co138 N141 2.121 . S
Co138 O146 2.055 . S
Co138 O149 2.039 . S
Co138 N152 2.140 . S
C139 O140 1.227 . S
C139 O149 1.265 . S
O140 C139 1.227 . S
N141 Co138 2.121 . S
N141 C143 1.375 . S
N141 C144 1.313 . S
C142 C143 1.338 . S
C142 N145 1.377 . S
C142 H162 0.930 . S
C143 N141 1.375 . S
C143 C142 1.338 . S
C143 H147 0.931 . S
C144 N141 1.313 . S
C144 N145 1.344 . S
C144 H148 0.930 . S
N145 C142 1.377 . S
N145 C144 1.344 . S
O146 Co138 2.055 . S
O146 C150 1.253 . S
H147 C143 0.931 . S
H148 C144 0.930 . S
O149 Co138 2.039 . S
O149 C139 1.265 . S
C150 O146 1.253 . S
C150 O151 1.227 . S
O151 C150 1.227 . S
N152 Co138 2.140 . S
N152 C155 1.346 . S
N152 C156 1.345 . S
C153 C154 1.387 . S
C153 C157 1.391 . S
C154 C153 1.387 . S
C154 C155 1.369 . S
C154 H163 0.929 . S
C155 N152 1.346 . S
C155 C154 1.369 . S
C155 H158 0.928 . S
C156 N152 1.345 . S
C156 C157 1.371 . S
C156 H159 0.931 . S
C157 C153 1.391 . S
C157 C156 1.371 . S
C157 H164 0.930 . S
H158 C155 0.928 . S
H159 C156 0.931 . S
H160 C136 0.930 . S
H161 C133 0.930 . S
H162 C142 0.930 . S
H163 C154 0.929 . S
H164 C157 0.930 . S
C165 C166 1.351 . S
C165 N168 1.368 . S
C165 H170 0.931 . S
C166 C165 1.351 . S
C166 N167 1.373 . S
C166 H194 0.930 . S
N167 C166 1.373 . S
N167 C169 1.340 . S
N168 C165 1.368 . S
N168 C169 1.321 . S
N168 Co171 2.135 . S
C169 N167 1.340 . S
C169 N168 1.321 . S
C169 H193 0.930 . S
H170 C165 0.931 . S
Co171 N168 2.135 . S
Co171 N174 2.121 . S
Co171 O179 2.055 . S
Co171 O182 2.039 . S
Co171 N185 2.140 . S
C172 O173 1.227 . S
C172 O182 1.265 1_556 S
O173 C172 1.227 . S
N174 Co171 2.121 . S
N174 C176 1.375 1_554 S
N174 C177 1.313 . S
C175 C176 1.338 . S
C175 N178 1.377 1_556 S
C175 H195 0.930 . S
C176 N174 1.375 1_556 S
C176 C175 1.338 . S
C176 H180 0.931 . S
C177 N174 1.313 . S
C177 N178 1.344 . S
C177 H181 0.930 . S
N178 C175 1.377 1_554 S
N178 C177 1.344 . S
O179 Co171 2.055 . S
O179 C183 1.253 . S
H180 C176 0.931 . S
H181 C177 0.930 . S
O182 Co171 2.039 . S
O182 C172 1.265 1_554 S
C183 O179 1.253 . S
C183 O184 1.227 . S
O184 C183 1.227 . S
N185 Co171 2.140 . S
N185 C188 1.346 . S
N185 C189 1.345 . S
C186 C187 1.387 . S
C186 C190 1.391 . S
C187 C186 1.387 . S
C187 C188 1.369 . S
C187 H196 0.929 . S
C188 N185 1.346 . S
C188 C187 1.369 . S
C188 H191 0.928 . S
C189 N185 1.345 . S
C189 C190 1.371 . S
C189 H192 0.931 . S
C190 C186 1.391 . S
C190 C189 1.371 . S
C190 H197 0.930 . S
H191 C188 0.928 . S
H192 C189 0.931 . S
H193 C169 0.930 . S
H194 C166 0.930 . S
H195 C175 0.930 . S
H196 C187 0.929 . S
H197 C190 0.930 . S
C198 C199 1.351 . S
C198 N201 1.368 . S
C198 H203 0.931 . S
C199 C198 1.351 . S
C199 N200 1.373 . S
C199 H227 0.930 . S
N200 C199 1.373 . S
N200 C202 1.340 . S
N201 C198 1.368 . S
N201 C202 1.321 . S
N201 Co204 2.135 . S
C202 N200 1.340 . S
C202 N201 1.321 . S
C202 H226 0.930 . S
H203 C198 0.931 . S
Co204 N201 2.135 . S
Co204 N207 2.121 . S
Co204 O212 2.055 . S
Co204 O215 2.039 . S
Co204 N218 2.140 . S
C205 O206 1.227 . S
C205 O215 1.265 . S
O206 C205 1.227 . S
N207 Co204 2.121 . S
N207 C209 1.375 . S
N207 C210 1.313 . S
C208 C209 1.338 . S
C208 N211 1.377 . S
C208 H228 0.930 . S
C209 N207 1.375 . S
C209 C208 1.338 . S
C209 H213 0.931 . S
C210 N207 1.313 . S
C210 N211 1.344 . S
C210 H214 0.930 . S
N211 C208 1.377 . S
N211 C210 1.344 . S
O212 Co204 2.055 . S
O212 C216 1.253 . S
H213 C209 0.931 . S
H214 C210 0.930 . S
O215 Co204 2.039 . S
O215 C205 1.265 . S
C216 O212 1.253 . S
C216 O217 1.227 . S
O217 C216 1.227 . S
N218 Co204 2.140 . S
N218 C221 1.346 . S
N218 C222 1.345 . S
C219 C220 1.387 . S
C219 C223 1.391 . S
C220 C219 1.387 . S
C220 C221 1.369 . S
C220 H229 0.929 . S
C221 N218 1.346 . S
C221 C220 1.369 . S
C221 H224 0.928 . S
C222 N218 1.345 . S
C222 C223 1.371 . S
C222 H225 0.931 . S
C223 C219 1.391 . S
C223 C222 1.371 . S
C223 H230 0.930 . S
H224 C221 0.928 . S
H225 C222 0.931 . S
H226 C202 0.930 . S
H227 C199 0.930 . S
H228 C208 0.930 . S
H229 C220 0.929 . S
H230 C223 0.930 . S
C231 C232 1.351 . S
C231 N234 1.368 . S
C231 H236 0.931 . S
C232 C231 1.351 . S
C232 N233 1.373 . S
C232 H260 0.930 . S
N233 C232 1.373 . S
N233 C235 1.340 . S
N234 C231 1.368 . S
N234 C235 1.321 . S
N234 Co237 2.135 . S
C235 N233 1.340 . S
C235 N234 1.321 . S
C235 H259 0.930 . S
H236 C231 0.931 . S
Co237 N234 2.135 . S
Co237 N240 2.121 . S
Co237 O245 2.055 . S
Co237 O248 2.039 . S
Co237 N251 2.140 . S
C238 O239 1.227 . S
C238 O248 1.265 1_554 S
O239 C238 1.227 . S
N240 Co237 2.121 . S
N240 C242 1.375 1_556 S
N240 C243 1.313 . S
C241 C242 1.338 . S
C241 N244 1.377 1_554 S
C241 H261 0.930 . S
C242 N240 1.375 1_554 S
C242 C241 1.338 . S
C242 H246 0.931 . S
C243 N240 1.313 . S
C243 N244 1.344 . S
C243 H247 0.930 . S
N244 C241 1.377 1_556 S
N244 C243 1.344 . S
O245 Co237 2.055 . S
O245 C249 1.253 . S
H246 C242 0.931 . S
H247 C243 0.930 . S
O248 Co237 2.039 . S
O248 C238 1.265 1_556 S
C249 O245 1.253 . S
C249 O250 1.227 . S
O250 C249 1.227 . S
N251 Co237 2.140 . S
N251 C254 1.346 . S
N251 C255 1.345 . S
C252 C253 1.387 . S
C252 C256 1.391 . S
C253 C252 1.387 . S
C253 C254 1.369 . S
C253 H262 0.929 . S
C254 N251 1.346 . S
C254 C253 1.369 . S
C254 H257 0.928 . S
C255 N251 1.345 . S
C255 C256 1.371 . S
C255 H258 0.931 . S
C256 C252 1.391 . S
C256 C255 1.371 . S
C256 H263 0.930 . S
H257 C254 0.928 . S
H258 C255 0.931 . S
H259 C235 0.930 . S
H260 C232 0.930 . S
H261 C241 0.930 . S
H262 C253 0.929 . S
H263 C256 0.930 . S
C264 C265 1.387 . S
C264 H268 0.950 . S
C264 C273 1.390 1_565 S
C265 C264 1.387 . S
C265 C267 1.387 1_565 S
H266 C273 0.950 . S
C267 C265 1.387 1_545 S
C267 C269 1.390 . S
C267 H271 0.951 . S
H268 C264 0.950 . S
C269 C267 1.390 . S
C269 C270 1.387 . S
C269 H272 0.950 . S
C270 C269 1.387 . S
C270 C273 1.387 . S
H271 C267 0.951 . S
H272 C269 0.950 . S
C273 C264 1.390 1_545 S
C273 H266 0.950 . S
C273 C270 1.387 . S
C274 C275 1.387 . S
C274 H278 0.950 . S
C274 C283 1.390 . S
C275 C274 1.387 . S
C275 C277 1.387 . S
H276 C283 0.950 . S
C277 C275 1.387 . S
C277 C279 1.390 1_545 S
C277 H281 0.948 1_545 S
H278 C274 0.950 . S
C279 C277 1.390 1_565 S
C279 C280 1.387 . S
C279 H282 0.950 . S
C280 C279 1.387 . S
C280 C283 1.387 1_565 S
H281 C277 0.948 1_565 S
H282 C279 0.950 . S
C283 C274 1.390 . S
C283 H276 0.950 . S
C283 C280 1.387 1_545 S
C284 C285 1.387 . S
C284 H288 0.950 . S
C284 C293 1.390 . S
C285 C284 1.387 . S
C285 C287 1.387 1_565 S
H286 C293 0.950 . S
C287 C285 1.387 1_545 S
C287 C289 1.390 . S
C287 H291 0.950 . S
H288 C284 0.950 . S
C289 C287 1.390 . S
C289 C290 1.387 . S
C289 H292 0.950 . S
C290 C289 1.387 . S
C290 C293 1.387 1_545 S
H291 C287 0.950 . S
H292 C289 0.950 . S
C293 C284 1.390 . S
C293 H286 0.950 . S
C293 C290 1.387 1_565 S
C294 C295 1.387 . S
C294 H298 0.950 . S
C294 C303 1.390 . S
C295 C294 1.387 . S
C295 C297 1.387 1_565 S
H296 C303 0.950 . S
C297 C295 1.387 1_545 S
C297 C299 1.390 . S
C297 H301 0.950 . S
H298 C294 0.950 . S
C299 C297 1.390 . S
C299 C300 1.387 . S
C299 H302 0.950 . S
C300 C299 1.387 . S
C300 C303 1.387 1_545 S
H301 C297 0.950 . S
H302 C299 0.950 . S
C303 C294 1.390 . S
C303 H296 0.950 . S
C303 C300 1.387 1_565 S
C304 C305 1.387 . S
C304 H308 0.950 . S
C304 C313 1.390 . S
C305 C304 1.387 . S
C305 C307 1.387 . S
H306 C313 0.950 . S
C307 C305 1.387 . S
C307 C309 1.390 . S
C307 H311 0.950 . S
H308 C304 0.950 . S
C309 C307 1.390 . S
C309 C310 1.387 . S
C309 H312 0.950 . S
C310 C309 1.387 . S
C310 C313 1.387 . S
H311 C307 0.950 . S
H312 C309 0.950 . S
C313 C304 1.390 . S
C313 H306 0.950 . S
C313 C310 1.387 . S
C314 C315 1.387 . S
C314 H318 0.950 . S
C314 C323 1.390 . S
C315 C314 1.387 . S
C315 C317 1.387 . S
H316 C323 0.950 . S
C317 C315 1.387 . S
C317 C319 1.390 . S
C317 H321 0.950 . S
H318 C314 0.950 . S
C319 C317 1.390 . S
C319 C320 1.387 . S
C319 H322 0.950 . S
C320 C319 1.387 . S
C320 C323 1.387 . S
H321 C317 0.950 . S
H322 C319 0.950 . S
C323 C314 1.390 . S
C323 H316 0.950 . S
C323 C320 1.387 . S
C324 C325 1.387 . S
C324 H328 0.950 . S
C324 C333 1.390 . S
C325 C324 1.387 . S
C325 C327 1.387 . S
H326 C333 0.950 . S
C327 C325 1.387 . S
C327 C329 1.390 . S
C327 H331 0.950 . S
H328 C324 0.950 . S
C329 C327 1.390 . S
C329 C330 1.387 . S
C329 H332 0.950 . S
C330 C329 1.387 . S
C330 C333 1.387 . S
H331 C327 0.950 . S
H332 C329 0.950 . S
C333 C324 1.390 . S
C333 H326 0.950 . S
C333 C330 1.387 . S
C334 C335 1.387 . S
C334 H338 0.950 . S
C334 C343 1.390 . S
C335 C334 1.387 . S
C335 C337 1.387 . S
H336 C343 0.950 . S
C337 C335 1.387 . S
C337 C339 1.390 . S
C337 H341 0.950 . S
H338 C334 0.950 . S
C339 C337 1.390 . S
C339 C340 1.387 . S
C339 H342 0.950 . S
C340 C339 1.387 . S
C340 C343 1.387 . S
H341 C337 0.950 . S
H342 C339 0.950 . S
C343 C334 1.390 . S
C343 H336 0.950 . S
C343 C340 1.387 . S
C344 C345 1.387 1_545 S
C344 H348 0.950 . S
C344 C353 1.390 . S
C345 C344 1.387 1_565 S
C345 C347 1.387 . S
H346 C353 0.950 . S
C347 C345 1.387 . S
C347 C349 1.390 . S
C347 H351 0.950 . S
H348 C344 0.950 . S
C349 C347 1.390 . S
C349 C350 1.387 1_565 S
C349 H352 0.950 . S
C350 C349 1.387 1_545 S
C350 C353 1.387 . S
H351 C347 0.950 . S
H352 C349 0.950 . S
C353 C344 1.390 . S
C353 H346 0.950 . S
C353 C350 1.387 . S
C354 C355 1.387 . S
C354 H358 0.950 . S
C354 C363 1.389 1_565 S
C355 C354 1.387 . S
C355 C357 1.388 1_556 S
H356 C363 0.950 . S
C357 C355 1.388 1_554 S
C357 C359 1.389 1_565 S
C357 H361 0.950 . S
H358 C354 0.950 . S
C359 C357 1.389 1_545 S
C359 C360 1.387 . S
C359 H362 0.950 . S
C360 C359 1.387 . S
C360 C363 1.388 1_554 S
H361 C357 0.950 . S
H362 C359 0.950 . S
C363 C354 1.389 1_545 S
C363 H356 0.950 . S
C363 C360 1.388 1_556 S
C364 C365 1.387 . S
C364 H368 0.950 . S
C364 C373 1.390 1_655 S
C365 C364 1.387 . S
C365 C367 1.387 . S
H366 C373 0.950 . S
C367 C365 1.387 . S
C367 C369 1.390 1_655 S
C367 H371 0.950 . S
H368 C364 0.950 . S
C369 C367 1.390 1_455 S
C369 C370 1.387 . S
C369 H372 0.950 . S
C370 C369 1.387 . S
C370 C373 1.387 . S
H371 C367 0.950 . S
H372 C369 0.950 . S
C373 C364 1.390 1_455 S
C373 H366 0.950 . S
C373 C370 1.387 . S
C374 C375 1.387 . S
C374 H378 0.950 . S
C374 C383 1.390 1_455 S
C375 C374 1.387 . S
C375 C377 1.387 1_554 S
H376 C383 0.950 . S
C377 C375 1.387 1_556 S
C377 C379 1.390 1_455 S
C377 H381 0.950 . S
H378 C374 0.950 . S
C379 C377 1.390 1_655 S
C379 C380 1.387 . S
C379 H382 0.950 . S
C380 C379 1.387 . S
C380 C383 1.387 1_556 S
H381 C377 0.950 . S
H382 C379 0.950 . S
C383 C374 1.390 1_655 S
C383 H376 0.950 . S
C383 C380 1.387 1_554 S
C384 C385 1.387 . S
C384 H388 0.950 . S
C384 C393 1.390 1_455 S
C385 C384 1.387 . S
C385 C387 1.387 . S
H386 C393 0.950 . S
C387 C385 1.387 . S
C387 C389 1.390 1_455 S
C387 H391 0.950 . S
H388 C384 0.950 . S
C389 C387 1.390 1_655 S
C389 C390 1.387 . S
C389 H392 0.950 . S
C390 C389 1.387 . S
C390 C393 1.387 . S
H391 C387 0.950 . S
H392 C389 0.950 . S
C393 C384 1.390 1_655 S
C393 H386 0.950 . S
C393 C390 1.387 . S
C394 C395 1.387 . S
C394 H398 0.950 . S
C394 C403 1.390 1_455 S
C395 C394 1.387 . S
C395 C397 1.387 . S
H396 C403 0.950 . S
C397 C395 1.387 . S
C397 C399 1.390 1_455 S
C397 H401 0.950 . S
H398 C394 0.950 . S
C399 C397 1.390 1_655 S
C399 C400 1.387 . S
C399 H402 0.950 . S
C400 C399 1.387 . S
C400 C403 1.387 . S
H401 C397 0.950 . S
H402 C399 0.950 . S
C403 C394 1.390 1_655 S
C403 H396 0.950 . S
C403 C400 1.387 . S
C404 C405 1.387 . S
C404 H408 0.950 . S
C404 C413 1.390 . S
C405 C404 1.387 . S
C405 C407 1.387 . S
H406 C413 0.950 . S
C407 C405 1.387 . S
C407 C409 1.390 . S
C407 H411 0.950 . S
H408 C404 0.950 . S
C409 C407 1.390 . S
C409 C410 1.387 . S
C409 H412 0.950 . S
C410 C409 1.387 . S
C410 C413 1.387 . S
H411 C407 0.950 . S
H412 C409 0.950 . S
C413 C404 1.390 . S
C413 H406 0.950 . S
C413 C410 1.387 . S
C414 C415 1.387 . S
C414 H418 0.950 . S
C414 C423 1.390 . S
C415 C414 1.387 . S
C415 C417 1.387 . S
H416 C423 0.950 . S
C417 C415 1.387 . S
C417 C419 1.390 . S
C417 H421 0.950 . S
H418 C414 0.950 . S
C419 C417 1.390 . S
C419 C420 1.387 . S
C419 H422 0.950 . S
C420 C419 1.387 . S
C420 C423 1.387 . S
H421 C417 0.950 . S
H422 C419 0.950 . S
C423 C414 1.390 . S
C423 H416 0.950 . S
C423 C420 1.387 . S
C424 C425 1.387 . S
C424 H428 0.950 . S
C424 C433 1.390 . S
C425 C424 1.387 . S
C425 C427 1.387 . S
H426 C433 0.950 . S
C427 C425 1.387 . S
C427 C429 1.390 . S
C427 H431 0.950 . S
H428 C424 0.950 . S
C429 C427 1.390 . S
C429 C430 1.387 . S
C429 H432 0.950 . S
C430 C429 1.387 . S
C430 C433 1.387 . S
H431 C427 0.950 . S
H432 C429 0.950 . S
C433 C424 1.390 . S
C433 H426 0.950 . S
C433 C430 1.387 . S
C434 C435 1.387 1_554 S
C434 H438 0.950 . S
C434 C443 1.390 . S
C435 C434 1.387 1_556 S
C435 C437 1.387 . S
H436 C443 0.950 . S
C437 C435 1.387 . S
C437 C439 1.390 . S
C437 H441 0.950 . S
H438 C434 0.950 . S
C439 C437 1.390 . S
C439 C440 1.387 1_556 S
C439 H442 0.950 . S
C440 C439 1.387 1_554 S
C440 C443 1.387 . S
H441 C437 0.950 . S
H442 C439 0.950 . S
C443 C434 1.390 . S
C443 H436 0.950 . S
C443 C440 1.387 . S
C444 C445 1.387 . S
C444 H448 0.950 . S
C444 C453 1.390 . S
C445 C444 1.387 . S
C445 C447 1.387 . S
H446 C453 0.950 . S
C447 C445 1.387 . S
C447 C449 1.390 . S
C447 H451 0.950 . S
H448 C444 0.950 . S
C449 C447 1.390 . S
C449 C450 1.387 . S
C449 H452 0.950 . S
C450 C449 1.387 . S
C450 C453 1.387 . S
H451 C447 0.950 . S
H452 C449 0.950 . S
C453 C444 1.390 . S
C453 H446 0.950 . S
C453 C450 1.387 . S
C454 C455 1.387 1_554 S
C454 H458 0.950 . S
C454 C463 1.390 . S
C455 C454 1.387 1_556 S
C455 C457 1.387 . S
H456 C463 0.950 . S
C457 C455 1.387 . S
C457 C459 1.390 . S
C457 H461 0.950 . S
H458 C454 0.950 . S
C459 C457 1.390 . S
C459 C460 1.387 1_556 S
C459 H462 0.950 . S
C460 C459 1.387 1_554 S
C460 C463 1.387 . S
H461 C457 0.950 . S
H462 C459 0.950 . S
C463 C454 1.390 . S
C463 H456 0.950 . S
C463 C460 1.387 . S
C265 C106 1.158 . S
C270 C18 1.176 . S
C275 C51 1.177 . S
C280 C73 1.161 . S
C285 C84 1.176 . S
C290 C40 1.158 . S
C295 C117 1.177 . S
C300 C7 1.161 . S
C305 C150 1.177 . S
C310 C238 1.161 . S
C315 C183 1.176 . S
C320 C205 1.158 . S
C325 C172 1.160 . S
C330 C216 1.177 . S
C335 C249 1.176 . S
C340 C139 1.158 . S
C345 N79 1.836 . S
C350 N13 1.836 . S
C355 N112 1.838 . S
C360 N46 1.838 . S
C365 N145 1.837 . S
C370 N211 1.837 . S
C375 N178 1.836 . S
C380 N244 1.836 . S
C385 N2 1.243 . S
C390 N35 1.243 . S
C395 N101 1.248 . S
C400 N68 1.248 . S
C405 N167 1.243 . S
C410 N134 1.243 . S
C415 N233 1.248 . S
C420 N200 1.248 . S
C425 C219 1.624 . S
C430 C21 1.624 . S
C435 C252 1.626 . S
C440 C54 1.626 . S
C445 C153 1.625 . S
C450 C87 1.625 . S
C455 C120 1.627 . S
C460 C186 1.627 . S
