# Generated by pormake.
# Topology sol, (6)-cn, num edge types: 1
# Building blocks:
#     Node 0, Type 0, BuildingBlock: OJICUG_clean_sbu_0, # of connection points: 6
#     Node 1, Type 0, BuildingBlock: OJICUG_clean_sbu_0, # of connection points: 6
#     Node 2, Type 0, BuildingBlock: OJICUG_clean_sbu_0, # of connection points: 6
#     Node 3, Type 0, BuildingBlock: OJICUG_clean_sbu_0, # of connection points: 6
#     Node 4, Type 0, BuildingBlock: OJICUG_clean_sbu_0, # of connection points: 6
#     Node 5, Type 0, BuildingBlock: OJICUG_clean_sbu_0, # of connection points: 6
#     Node 6, Type 0, BuildingBlock: OJICUG_clean_sbu_0, # of connection points: 6
#     Node 7, Type 0, BuildingBlock: OJICUG_clean_sbu_0, # of connection points: 6
#     Edge 8, Type (0, 0), BuildingBlock: XUDNAN_clean_linker_2, # of connection points: 2
#     Edge 9, Type (0, 0), BuildingBlock: XUDNAN_clean_linker_2, # of connection points: 2
#     Edge 10, Type (0, 0), BuildingBlock: XUDNAN_clean_linker_2, # of connection points: 2
#     Edge 11, Type (0, 0), BuildingBlock: XUDNAN_clean_linker_2, # of connection points: 2
#     Edge 12, Type (0, 0), BuildingBlock: XUDNAN_clean_linker_2, # of connection points: 2
#     Edge 13, Type (0, 0), BuildingBlock: XUDNAN_clean_linker_2, # of connection points: 2
#     Edge 14, Type (0, 0), BuildingBlock: XUDNAN_clean_linker_2, # of connection points: 2
#     Edge 15, Type (0, 0), BuildingBlock: XUDNAN_clean_linker_2, # of connection points: 2
#     Edge 16, Type (0, 0), BuildingBlock: XUDNAN_clean_linker_2, # of connection points: 2
#     Edge 17, Type (0, 0), BuildingBlock: XUDNAN_clean_linker_2, # of connection points: 2
#     Edge 18, Type (0, 0), BuildingBlock: XUDNAN_clean_linker_2, # of connection points: 2
#     Edge 19, Type (0, 0), BuildingBlock: XUDNAN_clean_linker_2, # of connection points: 2
#     Edge 20, Type (0, 0), BuildingBlock: XUDNAN_clean_linker_2, # of connection points: 2
#     Edge 21, Type (0, 0), BuildingBlock: XUDNAN_clean_linker_2, # of connection points: 2
#     Edge 22, Type (0, 0), BuildingBlock: XUDNAN_clean_linker_2, # of connection points: 2
#     Edge 23, Type (0, 0), BuildingBlock: XUDNAN_clean_linker_2, # of connection points: 2
#     Edge 24, Type (0, 0), BuildingBlock: XUDNAN_clean_linker_2, # of connection points: 2
#     Edge 25, Type (0, 0), BuildingBlock: XUDNAN_clean_linker_2, # of connection points: 2
#     Edge 26, Type (0, 0), BuildingBlock: XUDNAN_clean_linker_2, # of connection points: 2
#     Edge 27, Type (0, 0), BuildingBlock: XUDNAN_clean_linker_2, # of connection points: 2
#     Edge 28, Type (0, 0), BuildingBlock: XUDNAN_clean_linker_2, # of connection points: 2
#     Edge 29, Type (0, 0), BuildingBlock: XUDNAN_clean_linker_2, # of connection points: 2
#     Edge 30, Type (0, 0), BuildingBlock: XUDNAN_clean_linker_2, # of connection points: 2
#     Edge 31, Type (0, 0), BuildingBlock: XUDNAN_clean_linker_2, # of connection points: 2
# Relax obj value: 0.163
# Max RMSD: 0.156
# Mean RMSD: 0.156
data_MOF--net-sol--node1-OJICUG_clean_sbu_0--edge1-XUDNAN_clean_linker_2
_symmetry_space_group_name_H-M    P1
_symmetry_Int_Tables_number       1
_symmetry_cell_setting            triclinic
loop_
_symmetry_equiv_pos_as_xyz
'x, y, z'
_cell_length_a     34.540883
_cell_length_b     28.285484
_cell_length_c     30.216974
_cell_angle_alpha  90.024909
_cell_angle_beta   89.681582
_cell_angle_gamma 90.202595
loop_
_atom_site_label
_atom_site_type_symbol
_atom_site_fract_x
_atom_site_fract_y
_atom_site_fract_z
_atom_type_partial_charge
Sc0 Sc 0.21689 0.215 0.0625 0.0
Sc1 Sc 0.11631 0.21053 0.03985 0.0
Sc2 Sc 0.15394 0.15798 0.13641 0.0
O3 O 0.1624 0.19425 0.07928 0.0
C4 C 0.2323 0.11296 0.10086 0.0
C5 C 0.18109 0.18627 0.9679 0.0
C6 C 0.09282 0.10661 0.07343 0.0
C7 C 0.16806 0.30378 0.03268 0.0
C8 C 0.21882 0.23092 0.16758 0.0
C9 C 0.08388 0.23087 0.13684 0.0
O10 O 0.24088 0.14661 0.07479 0.0
O11 O 0.14566 0.18652 0.98011 0.0
O12 O 0.11602 0.10704 0.10594 0.0
O13 O 0.19849 0.28488 0.04785 0.0
O14 O 0.18996 0.2041 0.17468 0.0
O15 O 0.08302 0.23814 0.09527 0.0
O16 O 0.23239 0.2381 0.12888 0.0
O17 O 0.13636 0.28164 0.02741 0.0
O18 O 0.10673 0.20179 0.15486 0.0
O19 O 0.20878 0.19589 0.99409 0.0
O20 O 0.20195 0.112 0.12475 0.0
O21 O 0.08963 0.14137 0.04695 0.0
Sc22 Sc 0.33554 0.32212 0.6313 0.0
Sc23 Sc 0.38156 0.26313 0.54272 0.0
Sc24 Sc 0.28063 0.24985 0.56133 0.0
O25 O 0.33261 0.27843 0.57825 0.0
C26 C 0.27662 0.24321 0.66707 0.0
C27 C 0.41177 0.25962 0.64161 0.0
C28 C 0.33694 0.1644 0.54013 0.0
C29 C 0.39638 0.37249 0.56731 0.0
C30 C 0.25509 0.35307 0.58925 0.0
C31 C 0.31834 0.27648 0.46682 0.0
O32 O 0.30212 0.27513 0.67264 0.0
O33 O 0.41344 0.24432 0.60199 0.0
O34 O 0.30456 0.18132 0.55199 0.0
O35 O 0.3702 0.37401 0.59704 0.0
O36 O 0.25002 0.31525 0.5675 0.0
O37 O 0.35331 0.27939 0.48022 0.0
O38 O 0.28458 0.36038 0.61326 0.0
O39 O 0.40394 0.33497 0.54564 0.0
O40 O 0.2902 0.26574 0.49239 0.0
O41 O 0.38649 0.28872 0.6552 0.0
O42 O 0.26537 0.23029 0.62882 0.0
O43 O 0.36727 0.18927 0.53493 0.0
Sc44 Sc 0.66541 0.32041 0.89637 0.0
Sc45 Sc 0.62273 0.2612 0.98675 0.0
Sc46 Sc 0.72375 0.25357 0.96611 0.0
O47 O 0.6706 0.2785 0.95008 0.0
C48 C 0.72597 0.2465 0.85989 0.0
C49 C 0.58825 0.25864 0.89008 0.0
C50 C 0.6698 0.16467 0.98449 0.0
C51 C 0.60794 0.37077 0.96358 0.0
C52 C 0.74713 0.35457 0.93402 0.0
C53 C 0.68656 0.27369 0.0619 0.0
O54 O 0.69607 0.27186 0.85422 0.0
O55 O 0.589 0.24164 0.929 0.0
O56 O 0.70164 0.18342 0.97244 0.0
O57 O 0.63378 0.37275 0.93337 0.0
O58 O 0.75154 0.32157 0.96191 0.0
O59 O 0.65154 0.27709 0.04903 0.0
O60 O 0.71837 0.35726 0.90829 0.0
O61 O 0.6 0.33283 0.98466 0.0
O62 O 0.71443 0.26484 0.03557 0.0
O63 O 0.6126 0.28868 0.87601 0.0
O64 O 0.74013 0.23867 0.89803 0.0
O65 O 0.63908 0.18793 0.99209 0.0
Sc66 Sc 0.85715 0.15757 0.40087 0.0
Sc67 Sc 0.89547 0.23304 0.48331 0.0
Sc68 Sc 0.79504 0.22667 0.46581 0.0
O69 O 0.84925 0.20515 0.45036 0.0
C70 C 0.78808 0.21934 0.3609 0.0
C71 C 0.9211 0.23675 0.38215 0.0
C72 C 0.84155 0.32232 0.47343 0.0
C73 C 0.925 0.1271 0.46566 0.0
C74 C 0.78231 0.11724 0.45028 0.0
C75 C 0.83525 0.21698 0.56131 0.0
O76 O 0.81707 0.19213 0.35679 0.0
O77 O 0.92286 0.25326 0.42134 0.0
O78 O 0.81186 0.29877 0.46257 0.0
O79 O 0.8997 0.11636 0.43687 0.0
O80 O 0.77318 0.15604 0.46863 0.0
O81 O 0.87028 0.21598 0.5476 0.0
O82 O 0.81197 0.11217 0.42551 0.0
O83 O 0.9264 0.16747 0.48397 0.0
O84 O 0.80672 0.22283 0.53545 0.0
O85 O 0.90084 0.20105 0.37133 0.0
O86 O 0.77632 0.23398 0.3983 0.0
O87 O 0.87272 0.30362 0.48645 0.0
Sc88 Sc 0.78842 0.74991 0.93258 0.0
Sc89 Sc 0.88076 0.75181 0.98029 0.0
Sc90 Sc 0.85286 0.84195 0.90684 0.0
O91 O 0.84065 0.78169 0.94016 0.0
C92 C 0.79946 0.78971 0.83506 0.0
C93 C 0.84253 0.66197 0.93497 0.0
C94 C 0.92725 0.77757 0.89134 0.0
C95 C 0.80537 0.7363 0.037 0.0
C96 C 0.76774 0.85791 0.94572 0.0
C97 C 0.90289 0.86115 0.99314 0.0
O98 O 0.78312 0.76246 0.8627 0.0
O99 O 0.8648 0.68062 0.96327 0.0
O100 O 0.90592 0.81278 0.88186 0.0
O101 O 0.7857 0.73191 1.00172 0.0
O102 O 0.80033 0.87293 0.93138 0.0
O103 O 0.90429 0.81784 1.00401 0.0
O104 O 0.75832 0.81443 0.94779 0.0
O105 O 0.84078 0.74962 0.03665 0.0
O106 O 0.88351 0.87545 0.96027 0.0
O107 O 0.81528 0.68405 0.91619 0.0
O108 O 0.82534 0.81923 0.8464 0.0
O109 O 0.92169 0.75095 0.92504 0.0
Sc110 Sc 0.70262 0.72999 0.43314 0.0
Sc111 Sc 0.61191 0.72837 0.48404 0.0
Sc112 Sc 0.63653 0.64108 0.40599 0.0
O113 O 0.65047 0.69902 0.44146 0.0
C114 C 0.68807 0.69523 0.33409 0.0
C115 C 0.65186 0.81911 0.44149 0.0
C116 C 0.56216 0.70735 0.39874 0.0
C117 C 0.6874 0.74047 0.53834 0.0
C118 C 0.72375 0.62256 0.4371 0.0
C119 C 0.58911 0.61826 0.49307 0.0
O120 O 0.70751 0.71769 0.36276 0.0
O121 O 0.63048 0.79977 0.47065 0.0
O122 O 0.58139 0.67049 0.38862 0.0
O123 O 0.70611 0.74741 0.50247 0.0
O124 O 0.69145 0.60916 0.42092 0.0
O125 O 0.58647 0.66164 0.50369 0.0
O126 O 0.7318 0.66521 0.44664 0.0
O127 O 0.65254 0.72527 0.53883 0.0
O128 O 0.61029 0.60426 0.46118 0.0
O129 O 0.67607 0.79597 0.41848 0.0
O130 O 0.6596 0.66892 0.34469 0.0
O131 O 0.5707 0.73473 0.43079 0.0
Sc132 Sc 0.34213 0.63347 0.09608 0.0
Sc133 Sc 0.38706 0.72275 0.03247 0.0
Sc134 Sc 0.28571 0.72083 0.04472 0.0
O135 O 0.33829 0.69198 0.05748 0.0
C136 C 0.26927 0.61145 0.03451 0.0
C137 C 0.41097 0.61343 0.0279 0.0
C138 C 0.32987 0.72939 0.951 0.0
C139 C 0.40947 0.70004 0.13243 0.0
C140 C 0.27376 0.68992 0.14546 0.0
C141 C 0.33709 0.81171 0.05919 0.0
O142 O 0.29739 0.59884 0.05888 0.0
O143 O 0.41451 0.65677 0.01784 0.0
O144 O 0.30018 0.73226 0.97599 0.0
O145 O 0.38667 0.66476 0.13543 0.0
O146 O 0.26457 0.71354 0.11143 0.0
O147 O 0.36793 0.79367 0.0442 0.0
O148 O 0.30118 0.66 0.14506 0.0
O149 O 0.41277 0.7253 0.09766 0.0
O150 O 0.30552 0.78931 0.0636 0.0
O151 O 0.38493 0.59858 0.05446 0.0
O152 O 0.26086 0.6542 0.02633 0.0
O153 O 0.36391 0.72282 0.9659 0.0
Sc154 Sc 0.22046 0.74557 0.54484 0.0
Sc155 Sc 0.11955 0.75998 0.52974 0.0
Sc156 Sc 0.17113 0.83541 0.6012 0.0
O157 O 0.17038 0.78054 0.55831 0.0
C158 C 0.23221 0.76797 0.64776 0.0
C159 C 0.15993 0.66221 0.55318 0.0
C160 C 0.09455 0.77972 0.6301 0.0
C161 C 0.17865 0.74702 0.44963 0.0
C162 C 0.24778 0.8517 0.54287 0.0
C163 C 0.10971 0.87259 0.53109 0.0
O164 O 0.24142 0.74676 0.61219 0.0
O165 O 0.13158 0.68566 0.5382 0.0
O166 O 0.12116 0.81006 0.63663 0.0
O167 O 0.20691 0.73883 0.47535 0.0
O168 O 0.221 0.86531 0.56894 0.0
O169 O 0.09952 0.83175 0.5177 0.0
O170 O 0.25174 0.80936 0.52967 0.0
O171 O 0.14526 0.75913 0.4639 0.0
O172 O 0.13616 0.87873 0.5595 0.0
O173 O 0.19325 0.67981 0.55986 0.0
O174 O 0.20611 0.79939 0.64918 0.0
O175 O 0.09044 0.75757 0.59364 0.0
H176 H 0.09556 0.24989 0.22336 0.0
H177 H 0.01165 0.26643 0.1184 0.0
H178 H 0.96283 0.29178 0.17364 0.0
H179 H 0.03963 0.19308 0.29206 0.0
H180 H 0.05661 0.21844 0.34318 0.0
H181 H 0.08783 0.21752 0.29569 0.0
H182 H 0.0967 0.30826 0.30026 0.0
H183 H 0.06579 0.30949 0.34855 0.0
H184 H 0.0548 0.34606 0.30145 0.0
H185 H 0.92029 0.29297 0.23915 0.0
H186 H 0.88756 0.27073 0.30878 0.0
H187 H 0.99846 0.2534 0.37253 0.0
C188 C 0.06726 0.26053 0.21182 0.0
C189 C 0.05713 0.25601 0.16677 0.0
C190 C 0.01997 0.27001 0.15275 0.0
C191 C 0.99218 0.28459 0.18393 0.0
C192 C 1.00244 0.28579 0.22863 0.0
C193 C 0.03941 0.27487 0.24245 0.0
C194 C 0.04165 0.27075 0.29236 0.0
C195 C 0.0573 0.22206 0.30659 0.0
C196 C 0.06618 0.31106 0.3118 0.0
C197 C 0.99939 0.27654 0.30435 0.0
C198 C 0.97748 0.28689 0.26724 0.0
C199 C 0.93718 0.28665 0.26861 0.0
C200 C 0.91885 0.27381 0.30819 0.0
C201 C 0.94079 0.26136 0.34578 0.0
C202 C 0.98138 0.26454 0.34448 0.0
H203 H 0.45221 0.31993 0.69127 0.0
H204 H 0.4363 0.1705 0.66582 0.0
H205 H 0.47772 0.1517 0.73077 0.0
H206 H 0.55238 0.3133 0.72642 0.0
H207 H 0.5457 0.35961 0.76671 0.0
H208 H 0.51698 0.35888 0.71721 0.0
H209 H 0.45472 0.36085 0.76567 0.0
H210 H 0.48323 0.36009 0.81533 0.0
H211 H 0.44678 0.31536 0.80653 0.0
H212 H 0.51874 0.15148 0.80304 0.0
H213 H 0.5614 0.16979 0.86715 0.0
H214 H 0.5474 0.3194 0.8417 0.0
C215 C 0.45803 0.2832 0.69892 0.0
C216 C 0.44149 0.24658 0.67383 0.0
C217 C 0.44939 0.19893 0.68458 0.0
C218 C 0.47244 0.18808 0.72158 0.0
C219 C 0.48727 0.22541 0.74678 0.0
C220 C 0.48081 0.272 0.73512 0.0
C221 C 0.49957 0.30615 0.7667 0.0
C222 C 0.5305 0.33623 0.74284 0.0
C223 C 0.46925 0.33743 0.78992 0.0
C224 C 0.51751 0.27178 0.7985 0.0
C225 C 0.51015 0.22528 0.78706 0.0
C226 C 0.52464 0.18779 0.81213 0.0
C227 C 0.54839 0.19838 0.84868 0.0
C228 C 0.55728 0.24593 0.85914 0.0
C229 C 0.54081 0.28273 0.83437 0.0
H230 H 0.97569 0.83854 0.84913 0.0
H231 H 0.94504 0.6902 0.85839 0.0
H232 H 0.98555 0.67338 0.79221 0.0
H233 H 0.97263 0.84909 0.7356 0.0
H234 H 0.01382 0.88802 0.73025 0.0
H235 H 0.98589 0.88755 0.78068 0.0
H236 H 0.04744 0.86922 0.82618 0.0
H237 H 0.0758 0.87077 0.77598 0.0
H238 H 0.0771 0.81935 0.81114 0.0
H239 H 0.02232 0.67574 0.71858 0.0
H240 H 0.06096 0.69452 0.65135 0.0
H241 H 0.06993 0.8405 0.69407 0.0
C242 C 0.97845 0.80231 0.83791 0.0
C243 C 0.9576 0.76555 0.85881 0.0
C244 C 0.96141 0.71864 0.84314 0.0
C245 C 0.98402 0.70891 0.80538 0.0
C246 C 0.00312 0.74639 0.78447 0.0
C247 C 1.00138 0.79194 0.80099 0.0
C248 C 0.02393 0.82621 0.77228 0.0
C249 C 0.99747 0.86498 0.75361 0.0
C250 C 0.0581 0.84763 0.79793 0.0
C251 C 0.03776 0.79319 0.73623 0.0
C252 C 0.0253 0.74734 0.7435 0.0
C253 C 0.03279 0.71136 0.71302 0.0
C254 C 0.05437 0.72241 0.67476 0.0
C255 C 0.06852 0.76886 0.66773 0.0
C256 C 0.05983 0.80455 0.69885 0.0
H257 H 0.50922 0.64906 0.36209 0.0
H258 H 0.54829 0.7947 0.36421 0.0
H259 H 0.50909 0.8114 0.29761 0.0
H260 H 0.51607 0.63135 0.25279 0.0
H261 H 0.47329 0.59539 0.24626 0.0
H262 H 0.49766 0.59699 0.29861 0.0
H263 H 0.43457 0.62341 0.33828 0.0
H264 H 0.40953 0.62046 0.28617 0.0
H265 H 0.40872 0.67424 0.31815 0.0
H266 H 0.47566 0.80728 0.22303 0.0
H267 H 0.44274 0.78587 0.1531 0.0
H268 H 0.42533 0.64324 0.20248 0.0
C269 C 0.50817 0.6849 0.34952 0.0
C270 C 0.53129 0.72074 0.36812 0.0
C271 C 0.53004 0.76709 0.35067 0.0
C272 C 0.50813 0.77674 0.31273 0.0
C273 C 0.48719 0.73981 0.29362 0.0
C274 C 0.48614 0.69514 0.31228 0.0
C275 C 0.46383 0.66064 0.28399 0.0
C276 C 0.48925 0.61866 0.26957 0.0
C277 C 0.42697 0.64371 0.30808 0.0
C278 C 0.45418 0.69211 0.24535 0.0
C279 C 0.46759 0.73772 0.2514 0.0
C280 C 0.46428 0.77194 0.21838 0.0
C281 C 0.44601 0.75934 0.17862 0.0
C282 C 0.43138 0.71296 0.17245 0.0
C283 C 0.43577 0.67915 0.20634 0.0
H284 H 0.03553 0.09237 0.01114 0.0
H285 H 0.09068 0.0262 0.12411 0.0
H286 H 0.0453 0.95916 0.1188 0.0
H287 H 0.93777 0.05705 0.03809 0.0
H288 H 0.92429 0.04619 0.98144 0.0
H289 H 0.96089 0.08965 0.99396 0.0
H290 H 0.00942 0.04696 0.94198 0.0
H291 H 0.97281 0.00379 0.92887 0.0
H292 H 0.01891 0.98493 0.9501 0.0
H293 H 0.99423 0.89877 0.1013 0.0
H294 H 0.94408 0.84687 0.0694 0.0
H295 H 0.92166 0.95207 0.96812 0.0
C296 C 0.03823 0.06375 0.0347 0.0
C297 C 0.06684 0.06487 0.0681 0.0
C298 C 0.06916 0.02647 0.09819 0.0
C299 C 0.04335 0.98819 0.0956 0.0
C300 C 0.01524 -0.01141 0.06277 0.0
C301 C 0.01266 0.02515 0.03263 0.0
C302 C 0.98029 0.01627 0.9999 0.0
C303 C 0.94896 0.05458 1.00359 0.0
C304 C 0.99632 0.01277 0.95241 0.0
C305 C 0.96531 0.96886 0.0162 0.0
C306 C 0.98571 0.9537 0.05267 0.0
C307 C 0.97796 0.91034 0.07281 0.0
C308 C 0.94929 0.88112 0.05448 0.0
C309 C 0.92865 0.89527 0.0163 0.0
C310 C 0.93642 0.94028 0.99762 0.0
H311 H 0.57226 0.52645 0.46808 0.0
H312 H 0.54389 0.633 0.56655 0.0
H313 H 0.49172 0.58187 0.59541 0.0
H314 H 0.47661 0.49282 0.44407 0.0
H315 H 0.48646 0.43064 0.43779 0.0
H316 H 0.52398 0.47345 0.42666 0.0
H317 H 0.56893 0.43267 0.48325 0.0
H318 H 0.53182 0.38917 0.49398 0.0
H319 H 0.5519 0.42291 0.53902 0.0
H320 H 0.43917 0.52275 0.60966 0.0
H321 H 0.39398 0.4555 0.61402 0.0
H322 H 0.45637 0.38584 0.50719 0.0
C323 C 0.55574 0.53863 0.49641 0.0
C324 C 0.56244 0.58394 0.51503 0.0
C325 C 0.53956 0.59857 0.55165 0.0
C326 C 0.50969 0.5698 0.56824 0.0
C327 C 0.503 0.52625 0.5481 0.0
C328 C 0.52571 0.5103 0.51346 0.0
C329 C 0.51168 0.46243 0.49718 0.0
C330 C 0.49893 0.46502 0.44854 0.0
C331 C 0.54294 0.42455 0.50377 0.0
C332 C 0.4773 0.45428 0.52778 0.0
C333 C 0.47279 0.4917 0.55673 0.0
C334 C 0.44263 0.49302 0.58746 0.0
C335 C 0.41691 0.45461 0.58945 0.0
C336 C 0.42143 0.41502 0.56102 0.0
C337 C 0.45195 0.41537 0.52945 0.0
H338 H 0.42613 0.52077 0.05302 0.0
H339 H 0.46422 0.63177 0.96315 0.0
H340 H 0.51901 0.5827 0.93962 0.0
H341 H 0.51991 0.48437 0.08711 0.0
H342 H 0.50889 0.42205 0.08851 0.0
H343 H 0.47106 0.46465 0.09781 0.0
H344 H 0.43097 0.42821 0.03404 0.0
H345 H 0.46841 0.38502 0.02502 0.0
H346 H 0.45274 0.42195 0.98 0.0
H347 H 0.57172 0.52499 0.92855 0.0
H348 H 0.61584 0.45725 0.92401 0.0
H349 H 0.54423 0.38105 0.01911 0.0
C350 C 0.44563 0.53443 0.02789 0.0
C351 C 0.44074 0.58043 0.01019 0.0
C352 C 0.46721 0.59692 0.97753 0.0
C353 C 0.49862 0.56933 0.96392 0.0
C354 C 0.50327 0.52498 0.98292 0.0
C355 C 0.47731 0.50714 0.01365 0.0
C356 C 0.48941 0.45806 0.02854 0.0
C357 C 0.49782 0.45726 0.07846 0.0
C358 C 0.45855 0.42112 0.01615 0.0
C359 C 0.52627 0.45151 1.00155 0.0
C360 C 0.53371 0.49082 0.97576 0.0
C361 C 0.5661 0.49379 0.94831 0.0
C362 C 0.59114 0.45504 0.94615 0.0
C363 C 0.58368 0.41347 0.97108 0.0
C364 C 0.55097 0.41219 0.99968 0.0
H365 H 0.92666 0.02883 0.45797 0.0
H366 H 0.99655 0.15059 0.49473 0.0
H367 H 0.05183 0.09874 0.5087 0.0
H368 H 0.96476 0.95205 0.54219 0.0
H369 H 0.96415 0.89965 0.50823 0.0
H370 H 0.93001 0.94635 0.49818 0.0
H371 H 0.95341 0.95135 0.41674 0.0
H372 H 0.9879 0.90491 0.42668 0.0
H373 H 0.00406 0.96101 0.40502 0.0
H374 H 0.09946 0.03594 0.51941 0.0
H375 H 0.13575 0.96328 0.53427 0.0
H376 H 0.03642 0.87915 0.49414 0.0
C377 C 0.95367 0.04443 0.46881 0.0
C378 C 0.95711 0.09391 0.47525 0.0
C379 C 0.99289 0.11289 0.48988 0.0
C380 C 0.0247 0.08376 0.49758 0.0
C381 C 0.02049 0.03542 0.49091 0.0
C382 C 0.98589 0.01555 0.47744 0.0
C383 C 0.9891 0.96194 0.47562 0.0
C384 C 0.9603 0.93863 0.50799 0.0
C385 C 0.98327 0.94374 0.42818 0.0
C386 C 0.03072 0.95515 0.49053 0.0
C387 C 0.04823 -0.00173 0.49846 0.0
C388 C 0.08613 0.00187 0.51339 0.0
C389 C 0.10651 0.96027 0.52177 0.0
C390 C 0.08899 0.91536 0.51558 0.0
C391 C 0.05077 0.91287 0.49879 0.0
H392 H 0.34007 0.89161 0.01023 0.0
H393 H 0.3336 0.83831 0.14423 0.0
H394 H 0.32068 0.91871 0.17202 0.0
H395 H 0.37678 0.0185 0.04027 0.0
H396 H 0.34668 0.04322 0.99766 0.0
H397 H 0.36848 0.98593 0.98989 0.0
H398 H 0.30071 0.95023 0.97463 0.0
H399 H 0.27867 0.00682 0.98305 0.0
H400 H 0.26288 0.95683 0.01553 0.0
H401 H 0.29091 -0.00508 0.18245 0.0
H402 H 0.24959 0.06529 0.1758 0.0
H403 H 0.27504 0.0724 0.03531 0.0
C404 C 0.33793 0.89783 0.04553 0.0
C405 C 0.3383 0.85991 0.07548 0.0
C406 C 0.33383 0.86775 0.12127 0.0
C407 C 0.32676 0.91318 0.13724 0.0
C408 C 0.32434 0.94997 0.10678 0.0
C409 C 0.33039 0.94309 0.06184 0.0
C410 C 0.31906 0.98633 0.0355 0.0
C411 C 0.3549 0.0099 0.01461 0.0
C412 C 0.28851 0.9743 1.00016 0.0
C413 C 0.30234 0.01658 0.0721 0.0
C414 C 0.30673 -0.00452 0.11307 0.0
C415 C 0.28845 0.01275 0.15092 0.0
C416 C 0.26466 0.05222 0.14674 0.0
C417 C 0.25953 0.07387 0.10507 0.0
C418 C 0.27941 0.05677 0.06761 0.0
H419 H 0.19163 0.6143 0.62047 0.0
H420 H 0.11921 0.59701 0.50506 0.0
H421 H 0.12513 0.51004 0.51146 0.0
H422 H 0.25785 0.538 0.59296 0.0
H423 H 0.2677 0.51405 0.647 0.0
H424 H 0.24838 0.57247 0.64205 0.0
H425 H 0.19032 0.54994 0.69256 0.0
H426 H 0.20987 0.49126 0.69848 0.0
H427 H 0.16101 0.49909 0.67924 0.0
H428 H 0.15234 0.42876 0.51925 0.0
H429 H 0.19543 0.36027 0.52975 0.0
H430 H 0.24967 0.43172 0.64055 0.0
C431 C 0.17576 0.59198 0.5977 0.0
C432 C 0.15508 0.61173 0.56232 0.0
C433 C 0.13486 0.58209 0.53267 0.0
C434 C 0.13805 0.5328 0.53614 0.0
C435 C 0.16076 0.51428 0.57002 0.0
C436 C 0.17854 0.5431 0.60094 0.0
C437 C 0.20594 0.5158 0.62999 0.0
C438 C 0.24737 0.53629 0.62779 0.0
C439 C 0.19086 0.5139 0.67791 0.0
C440 C 0.20344 0.46796 0.6082 0.0
C441 C 0.17648 0.46722 0.57453 0.0
C442 C 0.17267 0.42844 0.54637 0.0
C443 C 0.19744 0.38984 0.55241 0.0
C444 C 0.22599 0.39084 0.58589 0.0
C445 C 0.22807 0.42985 0.61477 0.0
H446 H 0.78357 0.40711 0.99738 0.0
H447 H 0.77748 0.38202 0.85621 0.0
H448 H 0.81862 0.45155 0.84234 0.0
H449 H 0.76752 0.52043 0.99356 0.0
H450 H 0.79975 0.54023 0.03653 0.0
H451 H 0.78182 0.48072 0.03717 0.0
H452 H 0.85195 0.44864 0.03815 0.0
H453 H 0.87026 0.50844 0.03791 0.0
H454 H 0.88597 0.46717 0.9961 0.0
H455 H 0.8408 0.53236 0.8417 0.0
H456 H 0.84682 0.61813 0.85534 0.0
H457 H 0.84247 0.59318 0.99659 0.0
C458 C 0.79268 0.41526 0.96389 0.0
C459 C 0.77777 0.38972 0.92783 0.0
C460 C 0.78882 0.40163 0.88414 0.0
C461 C 0.81246 0.44071 0.87599 0.0
C462 C 0.82493 0.4673 0.91195 0.0
C463 C 0.81606 0.45478 0.95522 0.0
C464 C 0.82699 0.49387 0.98707 0.0
C465 C 0.79193 0.50974 0.01516 0.0
C466 C 0.86082 0.47861 0.01654 0.0
C467 C 0.83962 0.53174 0.9546 0.0
C468 C 0.83928 0.51517 0.91151 0.0
C469 C 0.84288 0.54544 0.87526 0.0
C470 C 0.84594 0.59398 0.88317 0.0
C471 C 0.84583 0.61135 0.92689 0.0
C472 C 0.84403 0.57996 0.96298 0.0
H473 H 0.77629 0.04217 0.3947 0.0
H474 H 0.72544 0.10423 0.51285 0.0
H475 H 0.67652 0.04027 0.51482 0.0
H476 H 0.68457 0.00069 0.34578 0.0
H477 H 0.7067 0.94764 0.32454 0.0
H478 H 0.73492 0.00107 0.32975 0.0
H479 H 0.78514 0.95703 0.37819 0.0
H480 H 0.75758 0.90354 0.37213 0.0
H481 H 0.7687 0.92547 0.42664 0.0
H482 H 0.63823 0.96565 0.50829 0.0
H483 H 0.61834 0.8826 0.49857 0.0
H484 H 0.69243 0.87241 0.38239 0.0
C485 C 0.75488 0.04242 0.42103 0.0
C486 C 0.75472 0.07783 0.45378 0.0
C487 C 0.72602 0.07721 0.48744 0.0
C488 C 0.69792 0.04142 0.48855 0.0
C489 C 0.69863 0.00732 0.45529 0.0
C490 C 0.72645 0.00756 0.42224 0.0
C491 C 0.72308 0.96497 0.3925 0.0
C492 C 0.71163 0.97949 0.34535 0.0
C493 C 0.76084 0.93605 0.39242 0.0
C494 C 0.69044 0.9392 0.41555 0.0
C495 C 0.676 0.96467 0.45102 0.0
C496 C 0.64871 0.94568 0.48014 0.0
C497 C 0.63753 0.89848 0.47427 0.0
C498 C 0.65415 0.871 0.43991 0.0
C499 C 0.67913 0.89257 0.40885 0.0
H500 H 0.72691 0.11415 0.02048 0.0
H501 H 0.61335 0.1006 0.96182 0.0
H502 H 0.62088 0.01339 0.96016 0.0
H503 H 0.77195 0.04009 0.95516 0.0
H504 H 0.80418 0.01471 0.99535 0.0
H505 H 0.78535 0.0729 1.00396 0.0
H506 H 0.75729 0.04762 0.08017 0.0
H507 H 0.77653 -0.01095 0.072 0.0
H508 H 0.72574 -0.00316 0.08384 0.0
H509 H 0.6472 0.93105 0.9498 0.0
H510 H 0.68948 0.86288 0.93159 0.0
H511 H 0.7856 0.93275 0.99603 0.0
C512 C 0.7031 0.09257 0.00873 0.0
C513 C 0.66971 0.11343 0.99115 0.0
C514 C 0.63904 0.08474 0.97578 0.0
C515 C 0.64307 0.03534 0.97487 0.0
C516 C 0.6775 0.01578 0.99043 0.0
C517 C 0.7067 0.04371 0.00783 0.0
C518 C 0.74309 0.01592 0.01616 0.0
C519 C 0.77814 0.03716 0.99113 0.0
C520 C 0.75111 0.01213 0.06601 0.0
C521 C 0.73109 0.96889 0.99726 0.0
C522 C 0.69281 0.96868 0.98395 0.0
C523 C 0.67685 0.93039 0.96115 0.0
C524 C 0.70097 0.892 0.95082 0.0
C525 C 0.74054 0.89327 0.96238 0.0
C526 C 0.75529 0.9313 0.98701 0.0
H527 H 0.73371 0.54361 0.38865 0.0
H528 H 0.78076 0.62128 0.49988 0.0
H529 H 0.82692 0.55614 0.51374 0.0
H530 H 0.73062 0.43721 0.43641 0.0
H531 H 0.74385 0.40337 0.3881 0.0
H532 H 0.72101 0.45975 0.38176 0.0
H533 H 0.77841 0.4886 0.33284 0.0
H534 H 0.80151 0.43195 0.33909 0.0
H535 H 0.82711 0.4853 0.35372 0.0
H536 H 0.859 0.47686 0.52294 0.0
H537 H 0.87292 0.39091 0.52695 0.0
H538 H 0.80491 0.36817 0.40873 0.0
C539 C 0.75426 0.54728 0.4154 0.0
C540 C 0.75369 0.58683 0.44349 0.0
C541 C 0.78101 0.59093 0.47801 0.0
C542 C 0.80739 0.55437 0.4859 0.0
C543 C 0.80645 0.51494 0.4582 0.0
C544 C 0.78084 0.51164 0.42325 0.0
C545 C 0.78215 0.46389 0.40133 0.0
C546 C 0.74206 0.43966 0.40201 0.0
C547 C 0.79827 0.46769 0.35394 0.0
C548 C 0.81035 0.43955 0.4314 0.0
C549 C 0.82503 0.46963 0.46332 0.0
C550 C 0.84848 0.45323 0.4975 0.0
C551 C 0.85615 0.40458 0.49964 0.0
C552 C 0.8396 0.37355 0.4683 0.0
C553 C 0.81773 0.3915 0.4331 0.0
H554 H 0.23187 0.34577 1.00007 0.0
H555 H 0.11179 0.37256 0.03351 0.0
H556 H 0.12212 0.45802 0.01905 0.0
H557 H 0.26949 0.43316 0.05686 0.0
H558 H 0.30804 0.44829 0.0189 0.0
H559 H 0.28845 0.38963 0.01896 0.0
H560 H 0.27291 0.39677 0.93533 0.0
H561 H 0.29274 0.45585 0.93501 0.0
H562 H 0.24411 0.44547 0.91588 0.0
H563 H 0.14919 0.54035 0.01685 0.0
H564 H 0.19037 0.61058 0.0307 0.0
H565 H 0.29263 0.52827 1.00075 0.0
C566 C 0.20746 0.36951 1.00321 0.0
C567 C 0.17121 0.35313 0.01826 0.0
C568 C 0.13979 0.38478 0.02185 0.0
C569 C 0.14538 0.43317 0.01343 0.0
C570 C 0.18224 0.44859 1.00055 0.0
C571 C 0.21261 0.41737 0.99494 0.0
C572 C 0.25071 0.44255 0.98803 0.0
C573 C 0.28088 0.42754 0.02277 0.0
C574 C 0.266 0.4347 0.94074 0.0
C575 C 0.23778 0.49286 0.9946 0.0
C576 C 0.19801 0.49604 0.99996 0.0
C577 C 0.18015 0.53849 0.01152 0.0
C578 C 0.20367 0.5781 0.01938 0.0
C579 C 0.2444 0.57419 0.01671 0.0
C580 C 0.26143 0.53177 1.00259 0.0
H581 H 0.2274 0.92968 0.49953 0.0
H582 H 0.32627 0.85625 0.55284 0.0
H583 H 0.36646 0.92838 0.54279 0.0
H584 H 0.28444 0.01252 0.42075 0.0
H585 H 0.25079 0.05942 0.43278 0.0
H586 H 0.23421 -0.00109 0.43131 0.0
H587 H 0.20608 0.00861 0.51042 0.0
H588 H 0.22307 0.06841 0.51269 0.0
H589 H 0.23762 0.02693 0.55465 0.0
H590 H 0.39011 0.01286 0.54419 0.0
H591 H 0.39504 0.09979 0.5547 0.0
H592 H 0.27999 0.116 0.50057 0.0
C593 C 0.25804 0.92837 0.50691 0.0
C594 C 0.2742 0.88804 0.52636 0.0
C595 C 0.31392 0.88704 0.53703 0.0
C596 C 0.33681 0.92776 0.53142 0.0
C597 C 0.31943 0.96831 0.51433 0.0
C598 C 0.28102 0.9684 0.50126 0.0
C599 C 0.26708 0.01751 0.49057 0.0
C600 C 0.25865 0.02237 0.44089 0.0
C601 C 0.23142 0.03111 0.5188 0.0
C602 C 0.30244 0.04559 0.50333 0.0
C603 C 0.33287 0.01688 0.51564 0.0
C604 C 0.36689 0.03565 0.53345 0.0
C605 C 0.36943 0.08486 0.53951 0.0
C606 C 0.33771 0.11402 0.52874 0.0
C607 C 0.30455 0.0942 0.50919 0.0
H608 H 0.24843 0.21142 0.9263 0.0
H609 H 0.13506 0.15103 0.90077 0.0
H610 H 0.14952 0.15172 0.82032 0.0
H611 H 0.24672 0.29153 0.8396 0.0
H612 H 0.29769 0.28767 0.82707 0.0
H613 H 0.28059 0.27587 0.88229 0.0
H614 H 0.3131 0.19342 0.88033 0.0
H615 H 0.33054 0.20509 0.82507 0.0
H616 H 0.30188 0.15298 0.83605 0.0
H617 H 0.1754 0.16498 0.7415 0.0
H618 H 0.20838 0.19253 0.67319 0.0
H619 H 0.303 0.24721 0.75229 0.0
C620 C 0.22691 0.19703 0.90407 0.0
C621 C 0.19075 0.18049 0.92012 0.0
C622 C 0.16311 0.16343 0.88944 0.0
C623 C 0.17111 0.16367 0.84365 0.0
C624 C 0.20678 0.18132 0.82903 0.0
C625 C 0.23417 0.19769 0.85852 0.0
C626 C 0.26875 0.21899 0.83475 0.0
C627 C 0.2737 0.27162 0.84663 0.0
C628 C 0.30576 0.19093 0.84464 0.0
C629 C 0.25645 0.21275 0.78715 0.0
C630 C 0.22091 0.19037 0.78429 0.0
C631 C 0.20336 0.18222 0.74347 0.0
C632 C 0.22236 0.19793 0.7048 0.0
C633 C 0.25831 0.22216 0.70722 0.0
C634 C 0.27558 0.22889 0.74909 0.0
H635 H 0.19118 0.23547 0.25243 0.0
H636 H 0.29176 0.27097 0.17224 0.0
H637 H 0.32714 0.29411 0.24003 0.0
H638 H 0.20323 0.32929 0.33611 0.0
H639 H 0.18702 0.29107 0.38024 0.0
H640 H 0.16868 0.2829 0.32505 0.0
H641 H 0.19082 0.19559 0.32637 0.0
H642 H 0.20941 0.20334 0.38136 0.0
H643 H 0.24075 0.18211 0.33786 0.0
H644 H 0.35385 0.3041 0.31859 0.0
H645 H 0.36807 0.30265 0.39885 0.0
H646 H 0.24899 0.26154 0.42556 0.0
C647 C 0.22041 0.24896 0.24882 0.0
C648 C 0.23864 0.25136 0.20684 0.0
C649 C 0.27701 0.2691 0.20391 0.0
C650 C 0.29737 0.28224 0.2423 0.0
C651 C 0.27882 0.27799 0.2833 0.0
C652 C 0.24097 0.26229 0.28657 0.0
C653 C 0.22807 0.25802 0.33434 0.0
C654 C 0.19478 0.29239 0.34452 0.0
C655 C 0.21662 0.20673 0.34562 0.0
C656 C 0.26486 0.2726 0.35768 0.0
C657 C 0.29385 0.28427 0.32789 0.0
C658 C 0.33113 0.29574 0.34214 0.0
C659 C 0.33897 0.29476 0.38785 0.0
C660 C 0.30969 0.28231 0.41884 0.0
C661 C 0.27207 0.27187 0.40314 0.0
H662 H 0.81175 0.21141 0.27424 0.0
H663 H 0.71676 0.26183 0.35605 0.0
H664 H 0.68125 0.28529 0.28883 0.0
H665 H 0.80617 0.30407 0.19146 0.0
H666 H 0.81813 0.26478 0.14648 0.0
H667 H 0.83625 0.25322 0.2012 0.0
H668 H 0.80569 0.16937 0.19918 0.0
H669 H 0.78757 0.18065 0.14449 0.0
H670 H 0.75472 0.16298 0.18802 0.0
H671 H 0.65429 0.29881 0.21135 0.0
H672 H 0.63969 0.30293 0.13121 0.0
H673 H 0.75375 0.24658 0.10177 0.0
C674 C 0.78351 0.22745 0.27815 0.0
C675 C 0.76704 0.2345 0.32056 0.0
C676 C 0.73008 0.25602 0.32399 0.0
C677 C 0.70964 0.2695 0.28597 0.0
C678 C 0.72666 0.26177 0.24468 0.0
C679 C 0.7629 0.24153 0.24065 0.0
C680 C 0.77473 0.23654 0.19261 0.0
C681 C 0.81097 0.26644 0.18235 0.0
C682 C 0.78103 0.18429 0.18037 0.0
C683 C 0.73926 0.25643 0.17016 0.0
C684 C 0.71175 0.27081 0.20058 0.0
C685 C 0.67584 0.28815 0.18724 0.0
C686 C 0.66777 0.29038 0.14165 0.0
C687 C 0.69561 0.2756 0.10996 0.0
C688 C 0.73192 0.25898 0.12483 0.0
H689 H 0.76595 0.23407 0.60181 0.0
H690 H 0.88392 0.19147 0.62991 0.0
H691 H 0.86735 0.18718 0.70984 0.0
H692 H 0.75515 0.30936 0.69329 0.0
H693 H 0.70478 0.29506 0.70198 0.0
H694 H 0.72557 0.29078 0.64744 0.0
H695 H 0.7032 0.20333 0.64247 0.0
H696 H 0.68248 0.2073 0.69719 0.0
H697 H 0.71759 0.16214 0.68477 0.0
H698 H 0.83738 0.19111 0.78774 0.0
H699 H 0.79902 0.20782 0.85526 0.0
H700 H 0.70167 0.2489 0.77375 0.0
C701 C 0.78839 0.22317 0.62446 0.0
C702 C 0.82626 0.21274 0.60934 0.0
C703 C 0.85469 0.1995 0.64058 0.0
C704 C 0.84547 0.19679 0.68601 0.0
C705 C 0.80776 0.20751 0.69959 0.0
C706 C 0.77981 0.22063 0.66955 0.0
C707 C 0.74212 0.23334 0.69222 0.0
C708 C 0.7313 0.2852 0.6832 0.0
C709 C 0.70943 0.1995 0.67834 0.0
C710 C 0.75315 0.22591 0.74001 0.0
C711 C 0.79094 0.21051 0.74377 0.0
C712 C 0.80771 0.20288 0.78503 0.0
C713 C 0.78559 0.21232 0.82325 0.0
C714 C 0.74721 0.22967 0.81998 0.0
C715 C 0.73079 0.23552 0.77762 0.0
H716 H 0.82278 0.7628 0.12405 0.0
H717 H 0.74108 0.68179 0.04531 0.0
H718 H 0.703 0.6641 0.11183 0.0
H719 H 0.81865 0.68547 0.22127 0.0
H720 H 0.82135 0.73341 0.26046 0.0
H721 H 0.84356 0.73941 0.20664 0.0
H722 H 0.80396 0.81553 0.19296 0.0
H723 H 0.78143 0.80956 0.2466 0.0
H724 H 0.75192 0.81354 0.19774 0.0
H725 H 0.67208 0.65613 0.18504 0.0
H726 H 0.65147 0.65553 0.26304 0.0
H727 H 0.75184 0.74091 0.29732 0.0
C728 C 0.79711 0.741 0.12098 0.0
C729 C 0.78498 0.72405 0.0791 0.0
C730 C 0.75098 0.69578 0.07666 0.0
C731 C 0.72902 0.68534 0.11437 0.0
C732 C 0.74117 0.70321 0.15479 0.0
C733 C 0.77445 0.73018 0.15868 0.0
C734 C 0.78033 0.74501 0.2066 0.0
C735 C 0.81822 0.7246 0.22482 0.0
C736 C 0.77935 0.79913 0.21123 0.0
C737 C 0.74515 0.7222 0.22856 0.0
C738 C 0.72306 0.69836 0.19783 0.0
C739 C 0.68918 0.67453 0.20957 0.0
C740 C 0.67766 0.67447 0.25408 0.0
C741 C 0.6999 0.69809 0.28665 0.0
C742 C 0.73403 0.72256 0.2734 0.0
H743 H 0.73785 0.74093 0.79836 0.0
H744 H 0.83446 0.83318 0.76449 0.0
H745 H 0.81527 0.83046 0.68623 0.0
H746 H 0.74277 0.6677 0.70048 0.0
H747 H 0.69101 0.66197 0.69512 0.0
H748 H 0.71214 0.67066 0.7489 0.0
H749 H 0.66883 0.7441 0.76123 0.0
H750 H 0.64763 0.73572 0.70744 0.0
H751 H 0.66992 0.79146 0.72132 0.0
H752 H 0.78689 0.81797 0.61249 0.0
H753 H 0.75065 0.79696 0.54591 0.0
H754 H 0.67057 0.71316 0.62526 0.0
C755 C 0.75505 0.76048 0.77449 0.0
C756 C 0.78778 0.78731 0.78781 0.0
C757 C 0.80929 0.8125 0.75539 0.0
C758 C 0.79863 0.81115 0.71075 0.0
C759 C 0.76626 0.78463 0.69888 0.0
C760 C 0.74467 0.75976 0.72963 0.0
C761 C 0.711 0.73429 0.70761 0.0
C762 C 0.71445 0.68046 0.71337 0.0
C763 C 0.67204 0.75249 0.72547 0.0
C764 C 0.71721 0.74871 0.65965 0.0
C765 C 0.74937 0.77768 0.6557 0.0
C766 C 0.76167 0.79533 0.61512 0.0
C767 C 0.74079 0.78293 0.57738 0.0
C768 C 0.70767 0.75312 0.58006 0.0
C769 C 0.69558 0.7361 0.62202 0.0
H770 H 0.21031 0.78839 0.73304 0.0
H771 H 0.30177 0.72196 0.65629 0.0
H772 H 0.33787 0.70638 0.7252 0.0
H773 H 0.27061 0.84462 0.81331 0.0
H774 H 0.2377 0.83397 0.85875 0.0
H775 H 0.21931 0.84001 0.8034 0.0
H776 H 0.18548 0.75837 0.8099 0.0
H777 H 0.20355 0.75218 0.86537 0.0
H778 H 0.21358 0.70721 0.82465 0.0
H779 H 0.36502 0.70054 0.8033 0.0
H780 H 0.37802 0.69908 0.88383 0.0
H781 H 0.26743 0.76692 0.90837 0.0
C782 C 0.23795 0.77058 0.7306 0.0
C783 C 0.25327 0.75665 0.68913 0.0
C784 C 0.28937 0.73294 0.68762 0.0
C785 C 0.31018 0.7241 0.72659 0.0
C786 C 0.29436 0.73876 0.76686 0.0
C787 C 0.25884 0.76104 0.76909 0.0
C788 C 0.24767 0.77226 0.81643 0.0
C789 C 0.2436 0.8259 0.82336 0.0
C790 C 0.21037 0.74592 0.82987 0.0
C791 C 0.28251 0.75304 0.84056 0.0
C792 C 0.30933 0.73419 0.8115 0.0
C793 C 0.3441 0.71501 0.82635 0.0
C794 C 0.35133 0.71454 0.87212 0.0
C795 C 0.32373 0.73268 0.9025 0.0
C796 C 0.28905 0.75241 0.88616 0.0
H797 H 0.2416 0.70725 0.40773 0.0
H798 H 0.13101 0.77388 0.38133 0.0
H799 H 0.1427 0.76466 0.30099 0.0
H800 H 0.29421 0.75849 0.31702 0.0
H801 H 0.32194 0.70591 0.30583 0.0
H802 H 0.30473 0.71764 0.3611 0.0
H803 H 0.27053 0.63597 0.36266 0.0
H804 H 0.28755 0.62414 0.30731 0.0
H805 H 0.23651 0.62105 0.31978 0.0
H806 H 0.16746 0.75035 0.22336 0.0
H807 H 0.20247 0.73074 0.15446 0.0
H808 H 0.29618 0.67107 0.23135 0.0
C809 C 0.21975 0.72004 0.38518 0.0
C810 C 0.18533 0.74151 0.40111 0.0
C811 C 0.15754 0.75732 0.37017 0.0
C812 C 0.16395 0.75224 0.32441 0.0
C813 C 0.19817 0.73095 0.30999 0.0
C814 C 0.22554 0.71493 0.33947 0.0
C815 C 0.25984 0.69314 0.31541 0.0
C816 C 0.29739 0.72044 0.32544 0.0
C817 C 0.26382 0.64045 0.32698 0.0
C818 C 0.24765 0.69973 0.26768 0.0
C819 C 0.21202 0.72171 0.26533 0.0
C820 C 0.19524 0.73287 0.22486 0.0
C821 C 0.21544 0.72161 0.18585 0.0
C822 C 0.25205 0.69905 0.1873 0.0
C823 C 0.26808 0.68769 0.22897 0.0
loop_
_geom_bond_atom_site_label_1
_geom_bond_atom_site_label_2
_geom_bond_distance
_geom_bond_site_symmetry_2
_ccdc_geom_bond_type
Sc0 O3 2.025 . S
Sc0 O10 2.105 . S
Sc0 O13 2.105 . S
Sc0 O16 2.105 . S
Sc0 O19 2.105 . S
Sc1 O3 2.025 . S
Sc1 O11 2.105 . S
Sc1 O15 2.105 . S
Sc1 O17 2.105 . S
Sc1 O21 2.105 . S
Sc2 O3 2.025 . S
Sc2 O12 2.105 . S
Sc2 O14 2.105 . S
Sc2 O18 2.105 . S
Sc2 O20 2.105 . S
O3 Sc0 2.025 . S
O3 Sc1 2.025 . S
O3 Sc2 2.025 . S
C4 O10 1.268 . S
C4 O20 1.268 . S
C5 O11 1.264 1_556 S
C5 O19 1.252 1_556 S
C6 O12 1.268 . S
C6 O21 1.268 . S
C7 O13 1.268 . S
C7 O17 1.268 . S
C8 O14 1.268 . S
C8 O16 1.268 . S
C9 O15 1.268 . S
C9 O18 1.268 . S
O10 Sc0 2.105 . S
O10 C4 1.268 . S
O11 Sc1 2.105 . S
O11 C5 1.264 1_554 S
O12 Sc2 2.105 . S
O12 C6 1.268 . S
O13 Sc0 2.105 . S
O13 C7 1.268 . S
O14 Sc2 2.105 . S
O14 C8 1.268 . S
O15 Sc1 2.105 . S
O15 C9 1.268 . S
O16 Sc0 2.105 . S
O16 C8 1.268 . S
O17 Sc1 2.105 . S
O17 C7 1.268 . S
O18 Sc2 2.105 . S
O18 C9 1.268 . S
O19 Sc0 2.105 . S
O19 C5 1.252 1_554 S
O20 Sc2 2.105 . S
O20 C4 1.268 . S
O21 Sc1 2.105 . S
O21 C6 1.268 . S
Sc22 O25 2.025 . S
Sc22 O32 2.105 . S
Sc22 O35 2.105 . S
Sc22 O38 2.105 . S
Sc22 O41 2.105 . S
Sc23 O25 2.025 . S
Sc23 O33 2.105 . S
Sc23 O37 2.105 . S
Sc23 O39 2.105 . S
Sc23 O43 2.105 . S
Sc24 O25 2.025 . S
Sc24 O34 2.105 . S
Sc24 O36 2.105 . S
Sc24 O40 2.105 . S
Sc24 O42 2.105 . S
O25 Sc22 2.025 . S
O25 Sc23 2.025 . S
O25 Sc24 2.025 . S
C26 O32 1.268 . S
C26 O42 1.268 . S
C27 O33 1.268 . S
C27 O41 1.268 . S
C28 O34 1.268 . S
C28 O43 1.268 . S
C29 O35 1.268 . S
C29 O39 1.268 . S
C30 O36 1.268 . S
C30 O38 1.268 . S
C31 O37 1.268 . S
C31 O40 1.268 . S
O32 Sc22 2.105 . S
O32 C26 1.268 . S
O33 Sc23 2.105 . S
O33 C27 1.268 . S
O34 Sc24 2.105 . S
O34 C28 1.268 . S
O35 Sc22 2.105 . S
O35 C29 1.268 . S
O36 Sc24 2.105 . S
O36 C30 1.268 . S
O37 Sc23 2.105 . S
O37 C31 1.268 . S
O38 Sc22 2.105 . S
O38 C30 1.268 . S
O39 Sc23 2.105 . S
O39 C29 1.268 . S
O40 Sc24 2.105 . S
O40 C31 1.268 . S
O41 Sc22 2.105 . S
O41 C27 1.268 . S
O42 Sc24 2.105 . S
O42 C26 1.268 . S
O43 Sc23 2.105 . S
O43 C28 1.268 . S
Sc44 O47 2.025 . S
Sc44 O54 2.105 . S
Sc44 O57 2.105 . S
Sc44 O60 2.105 . S
Sc44 O63 2.105 . S
Sc45 O47 2.025 . S
Sc45 O55 2.105 . S
Sc45 O59 2.105 . S
Sc45 O61 2.105 . S
Sc45 O65 2.105 . S
Sc46 O47 2.025 . S
Sc46 O56 2.105 . S
Sc46 O58 2.105 . S
Sc46 O62 2.105 . S
Sc46 O64 2.105 . S
O47 Sc44 2.025 . S
O47 Sc45 2.025 . S
O47 Sc46 2.025 . S
C48 O54 1.268 . S
C48 O64 1.268 . S
C49 O55 1.268 . S
C49 O63 1.268 . S
C50 O56 1.268 . S
C50 O65 1.268 . S
C51 O57 1.268 . S
C51 O61 1.268 . S
C52 O58 1.268 . S
C52 O60 1.268 . S
C53 O59 1.264 1_554 S
C53 O62 1.252 1_554 S
O54 Sc44 2.105 . S
O54 C48 1.268 . S
O55 Sc45 2.105 . S
O55 C49 1.268 . S
O56 Sc46 2.105 . S
O56 C50 1.268 . S
O57 Sc44 2.105 . S
O57 C51 1.268 . S
O58 Sc46 2.105 . S
O58 C52 1.268 . S
O59 Sc45 2.105 . S
O59 C53 1.264 1_556 S
O60 Sc44 2.105 . S
O60 C52 1.268 . S
O61 Sc45 2.105 . S
O61 C51 1.268 . S
O62 Sc46 2.105 . S
O62 C53 1.252 1_556 S
O63 Sc44 2.105 . S
O63 C49 1.268 . S
O64 Sc46 2.105 . S
O64 C48 1.268 . S
O65 Sc45 2.105 . S
O65 C50 1.268 . S
Sc66 O69 2.025 . S
Sc66 O76 2.105 . S
Sc66 O79 2.105 . S
Sc66 O82 2.105 . S
Sc66 O85 2.105 . S
Sc67 O69 2.025 . S
Sc67 O77 2.105 . S
Sc67 O81 2.105 . S
Sc67 O83 2.105 . S
Sc67 O87 2.105 . S
Sc68 O69 2.025 . S
Sc68 O78 2.105 . S
Sc68 O80 2.105 . S
Sc68 O84 2.105 . S
Sc68 O86 2.105 . S
O69 Sc66 2.025 . S
O69 Sc67 2.025 . S
O69 Sc68 2.025 . S
C70 O76 1.268 . S
C70 O86 1.268 . S
C71 O77 1.268 . S
C71 O85 1.268 . S
C72 O78 1.268 . S
C72 O87 1.268 . S
C73 O79 1.268 . S
C73 O83 1.268 . S
C74 O80 1.268 . S
C74 O82 1.268 . S
C75 O81 1.268 . S
C75 O84 1.268 . S
O76 Sc66 2.105 . S
O76 C70 1.268 . S
O77 Sc67 2.105 . S
O77 C71 1.268 . S
O78 Sc68 2.105 . S
O78 C72 1.268 . S
O79 Sc66 2.105 . S
O79 C73 1.268 . S
O80 Sc68 2.105 . S
O80 C74 1.268 . S
O81 Sc67 2.105 . S
O81 C75 1.268 . S
O82 Sc66 2.105 . S
O82 C74 1.268 . S
O83 Sc67 2.105 . S
O83 C73 1.268 . S
O84 Sc68 2.105 . S
O84 C75 1.268 . S
O85 Sc66 2.105 . S
O85 C71 1.268 . S
O86 Sc68 2.105 . S
O86 C70 1.268 . S
O87 Sc67 2.105 . S
O87 C72 1.268 . S
Sc88 O91 2.025 . S
Sc88 O98 2.105 . S
Sc88 O101 2.105 . S
Sc88 O104 2.105 . S
Sc88 O107 2.105 . S
Sc89 O91 2.025 . S
Sc89 O99 2.105 . S
Sc89 O103 2.105 . S
Sc89 O105 2.105 . S
Sc89 O109 2.105 . S
Sc90 O91 2.025 . S
Sc90 O100 2.105 . S
Sc90 O102 2.105 . S
Sc90 O106 2.105 . S
Sc90 O108 2.105 . S
O91 Sc88 2.025 . S
O91 Sc89 2.025 . S
O91 Sc90 2.025 . S
C92 O98 1.268 . S
C92 O108 1.268 . S
C93 O99 1.268 . S
C93 O107 1.268 . S
C94 O100 1.268 . S
C94 O109 1.268 . S
C95 O101 1.252 1_554 S
C95 O105 1.264 1_554 S
C96 O102 1.268 . S
C96 O104 1.268 . S
C97 O103 1.268 . S
C97 O106 1.268 . S
O98 Sc88 2.105 . S
O98 C92 1.268 . S
O99 Sc89 2.105 . S
O99 C93 1.268 . S
O100 Sc90 2.105 . S
O100 C94 1.268 . S
O101 Sc88 2.105 . S
O101 C95 1.252 1_556 S
O102 Sc90 2.105 . S
O102 C96 1.268 . S
O103 Sc89 2.105 . S
O103 C97 1.268 . S
O104 Sc88 2.105 . S
O104 C96 1.268 . S
O105 Sc89 2.105 . S
O105 C95 1.264 1_556 S
O106 Sc90 2.105 . S
O106 C97 1.268 . S
O107 Sc88 2.105 . S
O107 C93 1.268 . S
O108 Sc90 2.105 . S
O108 C92 1.268 . S
O109 Sc89 2.105 . S
O109 C94 1.268 . S
Sc110 O113 2.025 . S
Sc110 O120 2.105 . S
Sc110 O123 2.105 . S
Sc110 O126 2.105 . S
Sc110 O129 2.105 . S
Sc111 O113 2.025 . S
Sc111 O121 2.105 . S
Sc111 O125 2.105 . S
Sc111 O127 2.105 . S
Sc111 O131 2.105 . S
Sc112 O113 2.025 . S
Sc112 O122 2.105 . S
Sc112 O124 2.105 . S
Sc112 O128 2.105 . S
Sc112 O130 2.105 . S
O113 Sc110 2.025 . S
O113 Sc111 2.025 . S
O113 Sc112 2.025 . S
C114 O120 1.268 . S
C114 O130 1.268 . S
C115 O121 1.268 . S
C115 O129 1.268 . S
C116 O122 1.268 . S
C116 O131 1.268 . S
C117 O123 1.268 . S
C117 O127 1.268 . S
C118 O124 1.268 . S
C118 O126 1.268 . S
C119 O125 1.268 . S
C119 O128 1.268 . S
O120 Sc110 2.105 . S
O120 C114 1.268 . S
O121 Sc111 2.105 . S
O121 C115 1.268 . S
O122 Sc112 2.105 . S
O122 C116 1.268 . S
O123 Sc110 2.105 . S
O123 C117 1.268 . S
O124 Sc112 2.105 . S
O124 C118 1.268 . S
O125 Sc111 2.105 . S
O125 C119 1.268 . S
O126 Sc110 2.105 . S
O126 C118 1.268 . S
O127 Sc111 2.105 . S
O127 C117 1.268 . S
O128 Sc112 2.105 . S
O128 C119 1.268 . S
O129 Sc110 2.105 . S
O129 C115 1.268 . S
O130 Sc112 2.105 . S
O130 C114 1.268 . S
O131 Sc111 2.105 . S
O131 C116 1.268 . S
Sc132 O135 2.025 . S
Sc132 O142 2.105 . S
Sc132 O145 2.105 . S
Sc132 O148 2.105 . S
Sc132 O151 2.105 . S
Sc133 O135 2.025 . S
Sc133 O143 2.105 . S
Sc133 O147 2.105 . S
Sc133 O149 2.105 . S
Sc133 O153 2.105 . S
Sc134 O135 2.025 . S
Sc134 O144 2.105 . S
Sc134 O146 2.105 . S
Sc134 O150 2.105 . S
Sc134 O152 2.105 . S
O135 Sc132 2.025 . S
O135 Sc133 2.025 . S
O135 Sc134 2.025 . S
C136 O142 1.268 . S
C136 O152 1.268 . S
C137 O143 1.268 . S
C137 O151 1.268 . S
C138 O144 1.252 1_556 S
C138 O153 1.264 1_556 S
C139 O145 1.268 . S
C139 O149 1.268 . S
C140 O146 1.268 . S
C140 O148 1.268 . S
C141 O147 1.268 . S
C141 O150 1.268 . S
O142 Sc132 2.105 . S
O142 C136 1.268 . S
O143 Sc133 2.105 . S
O143 C137 1.268 . S
O144 Sc134 2.105 . S
O144 C138 1.252 1_554 S
O145 Sc132 2.105 . S
O145 C139 1.268 . S
O146 Sc134 2.105 . S
O146 C140 1.268 . S
O147 Sc133 2.105 . S
O147 C141 1.268 . S
O148 Sc132 2.105 . S
O148 C140 1.268 . S
O149 Sc133 2.105 . S
O149 C139 1.268 . S
O150 Sc134 2.105 . S
O150 C141 1.268 . S
O151 Sc132 2.105 . S
O151 C137 1.268 . S
O152 Sc134 2.105 . S
O152 C136 1.268 . S
O153 Sc133 2.105 . S
O153 C138 1.264 1_554 S
Sc154 O157 2.025 . S
Sc154 O164 2.105 . S
Sc154 O167 2.105 . S
Sc154 O170 2.105 . S
Sc154 O173 2.105 . S
Sc155 O157 2.025 . S
Sc155 O165 2.105 . S
Sc155 O169 2.105 . S
Sc155 O171 2.105 . S
Sc155 O175 2.105 . S
Sc156 O157 2.025 . S
Sc156 O166 2.105 . S
Sc156 O168 2.105 . S
Sc156 O172 2.105 . S
Sc156 O174 2.105 . S
O157 Sc154 2.025 . S
O157 Sc155 2.025 . S
O157 Sc156 2.025 . S
C158 O164 1.268 . S
C158 O174 1.268 . S
C159 O165 1.268 . S
C159 O173 1.268 . S
C160 O166 1.268 . S
C160 O175 1.268 . S
C161 O167 1.268 . S
C161 O171 1.268 . S
C162 O168 1.268 . S
C162 O170 1.268 . S
C163 O169 1.268 . S
C163 O172 1.268 . S
O164 Sc154 2.105 . S
O164 C158 1.268 . S
O165 Sc155 2.105 . S
O165 C159 1.268 . S
O166 Sc156 2.105 . S
O166 C160 1.268 . S
O167 Sc154 2.105 . S
O167 C161 1.268 . S
O168 Sc156 2.105 . S
O168 C162 1.268 . S
O169 Sc155 2.105 . S
O169 C163 1.268 . S
O170 Sc154 2.105 . S
O170 C162 1.268 . S
O171 Sc155 2.105 . S
O171 C161 1.268 . S
O172 Sc156 2.105 . S
O172 C163 1.268 . S
O173 Sc154 2.105 . S
O173 C159 1.268 . S
O174 Sc156 2.105 . S
O174 C158 1.268 . S
O175 Sc155 2.105 . S
O175 C160 1.268 . S
H176 C188 0.930 . S
H177 C190 0.930 . S
H178 C191 0.930 . S
H179 C195 0.959 . S
H180 C195 0.959 . S
H181 C195 0.961 . S
H182 C196 0.960 1_455 S
H183 C196 0.961 . S
H184 C196 0.959 . S
H185 C199 0.929 . S
H186 C200 0.931 . S
H187 C202 0.930 . S
C188 H176 0.930 . S
C188 C189 1.399 . S
C188 C193 1.399 . S
C189 C188 1.399 . S
C189 C190 1.376 . S
C190 H177 0.930 . S
C190 C189 1.376 . S
C190 C191 1.388 . S
C191 H178 0.930 . S
C191 C190 1.388 . S
C191 C192 1.390 . S
C192 C191 1.390 . S
C192 C193 1.394 . S
C192 C198 1.465 1_455 S
C193 C188 1.399 . S
C193 C192 1.394 . S
C193 C194 1.516 . S
C194 C193 1.516 . S
C194 C195 1.502 . S
C194 C196 1.561 1_455 S
C194 C197 1.526 1_455 S
C195 H179 0.959 . S
C195 H180 0.959 . S
C195 H181 0.961 . S
C195 C194 1.502 . S
C196 H182 0.960 1_655 S
C196 H183 0.961 . S
C196 H184 0.959 . S
C196 C194 1.561 1_655 S
C197 C194 1.526 1_655 S
C197 C198 1.396 . S
C197 C202 1.390 . S
C198 C192 1.465 1_655 S
C198 C197 1.396 . S
C198 C199 1.399 . S
C199 H185 0.929 . S
C199 C198 1.399 . S
C199 C200 1.385 . S
C200 H186 0.931 . S
C200 C199 1.385 . S
C200 C201 1.389 . S
C201 C200 1.389 . S
C201 C202 1.387 . S
C202 H187 0.930 . S
C202 C197 1.390 . S
C202 C201 1.387 . S
H203 C215 0.930 . S
H204 C217 0.930 . S
H205 C218 0.930 . S
H206 C222 0.959 . S
H207 C222 0.959 . S
H208 C222 0.961 . S
H209 C223 0.960 . S
H210 C223 0.961 . S
H211 C223 0.959 . S
H212 C226 0.929 . S
H213 C227 0.931 . S
H214 C229 0.930 . S
C215 H203 0.930 . S
C215 C216 1.399 . S
C215 C220 1.399 . S
C216 C215 1.399 . S
C216 C217 1.376 . S
C217 H204 0.930 . S
C217 C216 1.376 . S
C217 C218 1.388 . S
C218 H205 0.930 . S
C218 C217 1.388 . S
C218 C219 1.390 . S
C219 C218 1.390 . S
C219 C220 1.394 . S
C219 C225 1.465 . S
C220 C215 1.399 . S
C220 C219 1.394 . S
C220 C221 1.516 . S
C221 C220 1.516 . S
C221 C222 1.502 . S
C221 C223 1.561 . S
C221 C224 1.526 . S
C222 H206 0.959 . S
C222 H207 0.959 . S
C222 H208 0.961 . S
C222 C221 1.502 . S
C223 H209 0.960 . S
C223 H210 0.961 . S
C223 H211 0.959 . S
C223 C221 1.561 . S
C224 C221 1.526 . S
C224 C225 1.396 . S
C224 C229 1.390 . S
C225 C219 1.465 . S
C225 C224 1.396 . S
C225 C226 1.399 . S
C226 H212 0.929 . S
C226 C225 1.399 . S
C226 C227 1.385 . S
C227 H213 0.931 . S
C227 C226 1.385 . S
C227 C228 1.389 . S
C228 C227 1.389 . S
C228 C229 1.387 . S
C229 H214 0.930 . S
C229 C224 1.390 . S
C229 C228 1.387 . S
H230 C242 0.930 . S
H231 C244 0.930 . S
H232 C245 0.930 1_455 S
H233 C249 0.959 . S
H234 C249 0.959 . S
H235 C249 0.961 . S
H236 C250 0.960 1_655 S
H237 C250 0.961 . S
H238 C250 0.959 . S
H239 C253 0.929 . S
H240 C254 0.931 . S
H241 C256 0.930 . S
C242 H230 0.930 . S
C242 C243 1.399 . S
C242 C247 1.399 . S
C243 C242 1.399 . S
C243 C244 1.376 . S
C244 H231 0.930 . S
C244 C243 1.376 . S
C244 C245 1.388 . S
C245 H232 0.930 1_655 S
C245 C244 1.388 . S
C245 C246 1.390 . S
C246 C245 1.390 . S
C246 C247 1.394 . S
C246 C252 1.465 1_655 S
C247 C242 1.399 . S
C247 C246 1.394 . S
C247 C248 1.516 . S
C248 C247 1.516 . S
C248 C249 1.502 . S
C248 C250 1.561 1_655 S
C248 C251 1.526 1_655 S
C249 H233 0.959 . S
C249 H234 0.959 . S
C249 H235 0.961 . S
C249 C248 1.502 . S
C250 H236 0.960 1_455 S
C250 H237 0.961 . S
C250 H238 0.959 . S
C250 C248 1.561 1_455 S
C251 C248 1.526 1_455 S
C251 C252 1.396 . S
C251 C256 1.390 . S
C252 C246 1.465 1_455 S
C252 C251 1.396 . S
C252 C253 1.399 . S
C253 H239 0.929 . S
C253 C252 1.399 . S
C253 C254 1.385 . S
C254 H240 0.931 . S
C254 C253 1.385 . S
C254 C255 1.389 . S
C255 C254 1.389 . S
C255 C256 1.387 . S
C256 H241 0.930 . S
C256 C251 1.390 . S
C256 C255 1.387 . S
H257 C269 0.930 . S
H258 C271 0.930 . S
H259 C272 0.930 . S
H260 C276 0.959 . S
H261 C276 0.959 . S
H262 C276 0.961 . S
H263 C277 0.960 . S
H264 C277 0.961 . S
H265 C277 0.959 . S
H266 C280 0.929 . S
H267 C281 0.931 . S
H268 C283 0.930 . S
C269 H257 0.930 . S
C269 C270 1.399 . S
C269 C274 1.399 . S
C270 C269 1.399 . S
C270 C271 1.376 . S
C271 H258 0.930 . S
C271 C270 1.376 . S
C271 C272 1.388 . S
C272 H259 0.930 . S
C272 C271 1.388 . S
C272 C273 1.390 . S
C273 C272 1.390 . S
C273 C274 1.394 . S
C273 C279 1.465 . S
C274 C269 1.399 . S
C274 C273 1.394 . S
C274 C275 1.516 . S
C275 C274 1.516 . S
C275 C276 1.502 . S
C275 C277 1.561 . S
C275 C278 1.526 . S
C276 H260 0.959 . S
C276 H261 0.959 . S
C276 H262 0.961 . S
C276 C275 1.502 . S
C277 H263 0.960 . S
C277 H264 0.961 . S
C277 H265 0.959 . S
C277 C275 1.561 . S
C278 C275 1.526 . S
C278 C279 1.396 . S
C278 C283 1.390 . S
C279 C273 1.465 . S
C279 C278 1.396 . S
C279 C280 1.399 . S
C280 H266 0.929 . S
C280 C279 1.399 . S
C280 C281 1.385 . S
C281 H267 0.931 . S
C281 C280 1.385 . S
C281 C282 1.389 . S
C282 C281 1.389 . S
C282 C283 1.387 . S
C283 H268 0.930 . S
C283 C278 1.390 . S
C283 C282 1.387 . S
H284 C296 0.930 . S
H285 C298 0.930 . S
H286 C299 0.930 1_565 S
H287 C303 0.959 . S
H288 C303 0.959 . S
H289 C303 0.961 . S
H290 C304 0.960 . S
H291 C304 0.961 1_565 S
H292 C304 0.959 1_565 S
H293 C307 0.929 . S
H294 C308 0.931 . S
H295 C310 0.930 . S
C296 H284 0.930 . S
C296 C297 1.399 1_556 S
C296 C301 1.399 . S
C297 C296 1.399 1_554 S
C297 C298 1.376 . S
C298 H285 0.930 . S
C298 C297 1.376 . S
C298 C299 1.388 . S
C299 H286 0.930 1_545 S
C299 C298 1.388 . S
C299 C300 1.390 . S
C300 C299 1.390 . S
C300 C301 1.394 1_554 S
C300 C306 1.465 1_445 S
C301 C296 1.399 . S
C301 C300 1.394 1_556 S
C301 C302 1.516 . S
C302 C301 1.516 . S
C302 C303 1.502 1_455 S
C302 C304 1.561 . S
C302 C305 1.526 1_445 S
C303 H287 0.959 . S
C303 H288 0.959 . S
C303 H289 0.961 . S
C303 C302 1.502 1_655 S
C304 H290 0.960 . S
C304 H291 0.961 1_545 S
C304 H292 0.959 1_545 S
C304 C302 1.561 . S
C305 C302 1.526 1_665 S
C305 C306 1.396 1_556 S
C305 C310 1.390 . S
C306 C300 1.465 1_665 S
C306 C305 1.396 1_554 S
C306 C307 1.399 . S
C307 H293 0.929 . S
C307 C306 1.399 . S
C307 C308 1.385 . S
C308 H294 0.931 . S
C308 C307 1.385 . S
C308 C309 1.389 1_554 S
C309 C308 1.389 1_556 S
C309 C310 1.387 . S
C310 H295 0.930 . S
C310 C305 1.390 . S
C310 C309 1.387 . S
H311 C323 0.930 . S
H312 C325 0.930 . S
H313 C326 0.930 . S
H314 C330 0.959 . S
H315 C330 0.959 . S
H316 C330 0.961 . S
H317 C331 0.960 . S
H318 C331 0.961 . S
H319 C331 0.959 . S
H320 C334 0.929 . S
H321 C335 0.931 . S
H322 C337 0.930 . S
C323 H311 0.930 . S
C323 C324 1.399 . S
C323 C328 1.399 . S
C324 C323 1.399 . S
C324 C325 1.376 . S
C325 H312 0.930 . S
C325 C324 1.376 . S
C325 C326 1.388 . S
C326 H313 0.930 . S
C326 C325 1.388 . S
C326 C327 1.390 . S
C327 C326 1.390 . S
C327 C328 1.394 . S
C327 C333 1.465 . S
C328 C323 1.399 . S
C328 C327 1.394 . S
C328 C329 1.516 . S
C329 C328 1.516 . S
C329 C330 1.502 . S
C329 C331 1.561 . S
C329 C332 1.526 . S
C330 H314 0.959 . S
C330 H315 0.959 . S
C330 H316 0.961 . S
C330 C329 1.502 . S
C331 H317 0.960 . S
C331 H318 0.961 . S
C331 H319 0.959 . S
C331 C329 1.561 . S
C332 C329 1.526 . S
C332 C333 1.396 . S
C332 C337 1.390 . S
C333 C327 1.465 . S
C333 C332 1.396 . S
C333 C334 1.399 . S
C334 H320 0.929 . S
C334 C333 1.399 . S
C334 C335 1.385 . S
C335 H321 0.931 . S
C335 C334 1.385 . S
C335 C336 1.389 . S
C336 C335 1.389 . S
C336 C337 1.387 . S
C337 H322 0.930 . S
C337 C332 1.390 . S
C337 C336 1.387 . S
H338 C350 0.930 . S
H339 C352 0.930 . S
H340 C353 0.930 . S
H341 C357 0.959 . S
H342 C357 0.959 . S
H343 C357 0.961 . S
H344 C358 0.960 . S
H345 C358 0.961 . S
H346 C358 0.959 . S
H347 C361 0.929 . S
H348 C362 0.931 . S
H349 C364 0.930 . S
C350 H338 0.930 . S
C350 C351 1.399 . S
C350 C355 1.399 . S
C351 C350 1.399 . S
C351 C352 1.376 1_554 S
C352 H339 0.930 . S
C352 C351 1.376 1_556 S
C352 C353 1.388 . S
C353 H340 0.930 . S
C353 C352 1.388 . S
C353 C354 1.390 . S
C354 C353 1.390 . S
C354 C355 1.394 1_556 S
C354 C360 1.465 . S
C355 C350 1.399 . S
C355 C354 1.394 1_554 S
C355 C356 1.516 . S
C356 C355 1.516 . S
C356 C357 1.502 . S
C356 C358 1.561 . S
C356 C359 1.526 . S
C357 H341 0.959 . S
C357 H342 0.959 . S
C357 H343 0.961 . S
C357 C356 1.502 . S
C358 H344 0.960 . S
C358 H345 0.961 . S
C358 H346 0.959 . S
C358 C356 1.561 . S
C359 C356 1.526 . S
C359 C360 1.396 1_554 S
C359 C364 1.390 . S
C360 C354 1.465 . S
C360 C359 1.396 1_556 S
C360 C361 1.399 . S
C361 H347 0.929 . S
C361 C360 1.399 . S
C361 C362 1.385 . S
C362 H348 0.931 . S
C362 C361 1.385 . S
C362 C363 1.389 . S
C363 C362 1.389 . S
C363 C364 1.387 1_556 S
C364 H349 0.930 . S
C364 C359 1.390 . S
C364 C363 1.387 1_554 S
H365 C377 0.930 . S
H366 C379 0.930 . S
H367 C380 0.930 1_455 S
H368 C384 0.959 . S
H369 C384 0.959 . S
H370 C384 0.961 . S
H371 C385 0.960 1_655 S
H372 C385 0.961 . S
H373 C385 0.959 . S
H374 C388 0.929 1_545 S
H375 C389 0.931 . S
H376 C391 0.930 . S
C377 H365 0.930 . S
C377 C378 1.399 . S
C377 C382 1.399 . S
C378 C377 1.399 . S
C378 C379 1.376 . S
C379 H366 0.930 . S
C379 C378 1.376 . S
C379 C380 1.388 . S
C380 H367 0.930 1_655 S
C380 C379 1.388 . S
C380 C381 1.390 . S
C381 C380 1.390 . S
C381 C382 1.394 . S
C381 C387 1.465 1_645 S
C382 C377 1.399 . S
C382 C381 1.394 . S
C382 C383 1.516 1_545 S
C383 C382 1.516 1_565 S
C383 C384 1.502 . S
C383 C385 1.561 1_655 S
C383 C386 1.526 1_655 S
C384 H368 0.959 . S
C384 H369 0.959 . S
C384 H370 0.961 . S
C384 C383 1.502 . S
C385 H371 0.960 1_455 S
C385 H372 0.961 . S
C385 H373 0.959 . S
C385 C383 1.561 1_455 S
C386 C383 1.526 1_455 S
C386 C387 1.396 . S
C386 C391 1.390 . S
C387 C381 1.465 1_465 S
C387 C386 1.396 . S
C387 C388 1.399 . S
C388 H374 0.929 1_565 S
C388 C387 1.399 . S
C388 C389 1.385 . S
C389 H375 0.931 . S
C389 C388 1.385 . S
C389 C390 1.389 . S
C390 C389 1.389 . S
C390 C391 1.387 . S
C391 H376 0.930 . S
C391 C386 1.390 . S
C391 C390 1.387 . S
H392 C404 0.930 . S
H393 C406 0.930 . S
H394 C407 0.930 . S
H395 C411 0.967 . S
H396 C411 0.972 . S
H397 C411 0.948 1_565 S
H398 C412 0.960 1_556 S
H399 C412 0.961 1_556 S
H400 C412 0.959 . S
H401 C415 0.929 . S
H402 C416 0.931 . S
H403 C418 0.930 . S
C404 H392 0.930 . S
C404 C405 1.399 . S
C404 C409 1.399 . S
C405 C404 1.399 . S
C405 C406 1.376 . S
C406 H393 0.930 . S
C406 C405 1.376 . S
C406 C407 1.388 . S
C407 H394 0.930 . S
C407 C406 1.388 . S
C407 C408 1.390 . S
C408 C407 1.390 . S
C408 C409 1.394 . S
C408 C414 1.465 . S
C409 C404 1.399 . S
C409 C408 1.394 . S
C409 C410 1.516 . S
C410 C409 1.516 . S
C410 C411 1.494 1_565 S
C410 C412 1.561 . S
C410 C413 1.526 1_565 S
C411 H395 0.967 . S
C411 H396 0.972 . S
C411 H397 0.948 1_545 S
C411 C410 1.494 1_545 S
C412 H398 0.960 1_554 S
C412 H399 0.961 1_554 S
C412 H400 0.959 . S
C412 C410 1.561 . S
C413 C410 1.526 1_545 S
C413 C414 1.396 1_545 S
C413 C418 1.390 . S
C414 C408 1.465 . S
C414 C413 1.396 1_565 S
C414 C415 1.399 1_565 S
C415 H401 0.929 . S
C415 C414 1.399 1_545 S
C415 C416 1.385 . S
C416 H402 0.931 . S
C416 C415 1.385 . S
C416 C417 1.389 . S
C417 C416 1.389 . S
C417 C418 1.387 . S
C418 H403 0.930 . S
C418 C413 1.390 . S
C418 C417 1.387 . S
H419 C431 0.930 . S
H420 C433 0.930 . S
H421 C434 0.930 . S
H422 C438 0.959 . S
H423 C438 0.959 . S
H424 C438 0.961 . S
H425 C439 0.960 . S
H426 C439 0.961 . S
H427 C439 0.959 . S
H428 C442 0.929 . S
H429 C443 0.931 . S
H430 C445 0.930 . S
C431 H419 0.930 . S
C431 C432 1.399 . S
C431 C436 1.399 . S
C432 C431 1.399 . S
C432 C433 1.376 . S
C433 H420 0.930 . S
C433 C432 1.376 . S
C433 C434 1.388 . S
C434 H421 0.930 . S
C434 C433 1.388 . S
C434 C435 1.390 . S
C435 C434 1.390 . S
C435 C436 1.394 . S
C435 C441 1.465 . S
C436 C431 1.399 . S
C436 C435 1.394 . S
C436 C437 1.516 . S
C437 C436 1.516 . S
C437 C438 1.502 . S
C437 C439 1.561 . S
C437 C440 1.526 . S
C438 H422 0.959 . S
C438 H423 0.959 . S
C438 H424 0.961 . S
C438 C437 1.502 . S
C439 H425 0.960 . S
C439 H426 0.961 . S
C439 H427 0.959 . S
C439 C437 1.561 . S
C440 C437 1.526 . S
C440 C441 1.396 . S
C440 C445 1.390 . S
C441 C435 1.465 . S
C441 C440 1.396 . S
C441 C442 1.399 . S
C442 H428 0.929 . S
C442 C441 1.399 . S
C442 C443 1.385 . S
C443 H429 0.931 . S
C443 C442 1.385 . S
C443 C444 1.389 . S
C444 C443 1.389 . S
C444 C445 1.387 . S
C445 H430 0.930 . S
C445 C440 1.390 . S
C445 C444 1.387 . S
H446 C458 0.930 . S
H447 C460 0.930 . S
H448 C461 0.930 . S
H449 C465 0.959 . S
H450 C465 0.963 . S
H451 C465 0.961 . S
H452 C466 0.960 1_554 S
H453 C466 0.961 1_554 S
H454 C466 0.959 . S
H455 C469 0.929 . S
H456 C470 0.931 . S
H457 C472 0.930 . S
C458 H446 0.930 . S
C458 C459 1.399 . S
C458 C463 1.399 . S
C459 C458 1.399 . S
C459 C460 1.376 . S
C460 H447 0.930 . S
C460 C459 1.376 . S
C460 C461 1.388 . S
C461 H448 0.930 . S
C461 C460 1.388 . S
C461 C462 1.390 . S
C462 C461 1.390 . S
C462 C463 1.394 . S
C462 C468 1.465 . S
C463 C458 1.399 . S
C463 C462 1.394 . S
C463 C464 1.516 . S
C464 C463 1.516 . S
C464 C465 1.502 . S
C464 C466 1.561 . S
C464 C467 1.526 . S
C465 H449 0.959 . S
C465 H450 0.963 . S
C465 H451 0.961 . S
C465 C464 1.502 . S
C466 H452 0.960 1_556 S
C466 H453 0.961 1_556 S
C466 H454 0.959 . S
C466 C464 1.561 . S
C467 C464 1.526 . S
C467 C468 1.396 . S
C467 C472 1.390 . S
C468 C462 1.465 . S
C468 C467 1.396 . S
C468 C469 1.399 . S
C469 H455 0.929 . S
C469 C468 1.399 . S
C469 C470 1.385 . S
C470 H456 0.931 . S
C470 C469 1.385 . S
C470 C471 1.389 . S
C471 C470 1.389 . S
C471 C472 1.387 . S
C472 H457 0.930 . S
C472 C467 1.390 . S
C472 C471 1.387 . S
H473 C485 0.930 . S
H474 C487 0.930 . S
H475 C488 0.930 . S
H476 C492 0.965 . S
H477 C492 0.945 1_565 S
H478 C492 0.979 . S
H479 C493 0.960 . S
H480 C493 0.961 . S
H481 C493 0.959 . S
H482 C496 0.929 . S
H483 C497 0.931 . S
H484 C499 0.930 . S
C485 H473 0.930 . S
C485 C486 1.399 . S
C485 C490 1.399 . S
C486 C485 1.399 . S
C486 C487 1.376 . S
C487 H474 0.930 . S
C487 C486 1.376 . S
C487 C488 1.388 . S
C488 H475 0.930 . S
C488 C487 1.388 . S
C488 C489 1.390 1_545 S
C489 C488 1.390 1_565 S
C489 C490 1.394 1_565 S
C489 C495 1.465 . S
C490 C485 1.399 . S
C490 C489 1.394 1_545 S
C490 C491 1.516 1_545 S
C491 C490 1.516 1_565 S
C491 C492 1.493 1_565 S
C491 C493 1.561 . S
C491 C494 1.526 . S
C492 H476 0.965 . S
C492 H477 0.945 1_545 S
C492 H478 0.979 . S
C492 C491 1.493 1_545 S
C493 H479 0.960 . S
C493 H480 0.961 . S
C493 H481 0.959 . S
C493 C491 1.561 . S
C494 C491 1.526 . S
C494 C495 1.396 . S
C494 C499 1.390 . S
C495 C489 1.465 . S
C495 C494 1.396 . S
C495 C496 1.399 . S
C496 H482 0.929 . S
C496 C495 1.399 . S
C496 C497 1.385 . S
C497 H483 0.931 . S
C497 C496 1.385 . S
C497 C498 1.389 . S
C498 C497 1.389 . S
C498 C499 1.387 . S
C499 H484 0.930 . S
C499 C494 1.390 . S
C499 C498 1.387 . S
H500 C512 0.930 . S
H501 C514 0.930 . S
H502 C515 0.930 . S
H503 C519 0.959 . S
H504 C519 0.959 1_554 S
H505 C519 0.961 1_554 S
H506 C520 0.960 . S
H507 C520 0.961 1_565 S
H508 C520 0.959 1_565 S
H509 C523 0.929 . S
H510 C524 0.931 . S
H511 C526 0.930 . S
C512 H500 0.930 . S
C512 C513 1.399 . S
C512 C517 1.399 . S
C513 C512 1.399 . S
C513 C514 1.376 . S
C514 H501 0.930 . S
C514 C513 1.376 . S
C514 C515 1.388 . S
C515 H502 0.930 . S
C515 C514 1.388 . S
C515 C516 1.390 . S
C516 C515 1.390 . S
C516 C517 1.394 . S
C516 C522 1.452 1_545 S
C517 C512 1.399 . S
C517 C516 1.394 . S
C517 C518 1.516 . S
C518 C517 1.516 . S
C518 C519 1.502 . S
C518 C520 1.561 . S
C518 C521 1.526 1_545 S
C519 H503 0.959 . S
C519 H504 0.959 1_556 S
C519 H505 0.961 1_556 S
C519 C518 1.502 . S
C520 H506 0.960 . S
C520 H507 0.961 1_545 S
C520 H508 0.959 1_545 S
C520 C518 1.561 . S
C521 C518 1.526 1_565 S
C521 C522 1.400 . S
C521 C526 1.390 . S
C522 C516 1.452 1_565 S
C522 C521 1.400 . S
C522 C523 1.408 . S
C523 H509 0.929 . S
C523 C522 1.408 . S
C523 C524 1.385 . S
C524 H510 0.931 . S
C524 C523 1.385 . S
C524 C525 1.389 . S
C525 C524 1.389 . S
C525 C526 1.387 . S
C526 H511 0.930 . S
C526 C521 1.390 . S
C526 C525 1.387 . S
H527 C539 0.930 . S
H528 C541 0.930 . S
H529 C542 0.930 . S
H530 C546 0.959 . S
H531 C546 0.959 . S
H532 C546 0.961 . S
H533 C547 0.960 . S
H534 C547 0.961 . S
H535 C547 0.959 . S
H536 C550 0.929 . S
H537 C551 0.931 . S
H538 C553 0.930 . S
C539 H527 0.930 . S
C539 C540 1.399 . S
C539 C544 1.399 . S
C540 C539 1.399 . S
C540 C541 1.376 . S
C541 H528 0.930 . S
C541 C540 1.376 . S
C541 C542 1.388 . S
C542 H529 0.930 . S
C542 C541 1.388 . S
C542 C543 1.390 . S
C543 C542 1.390 . S
C543 C544 1.394 . S
C543 C549 1.465 . S
C544 C539 1.399 . S
C544 C543 1.394 . S
C544 C545 1.516 . S
C545 C544 1.516 . S
C545 C546 1.502 . S
C545 C547 1.561 . S
C545 C548 1.526 . S
C546 H530 0.959 . S
C546 H531 0.959 . S
C546 H532 0.961 . S
C546 C545 1.502 . S
C547 H533 0.960 . S
C547 H534 0.961 . S
C547 H535 0.959 . S
C547 C545 1.561 . S
C548 C545 1.526 . S
C548 C549 1.396 . S
C548 C553 1.390 . S
C549 C543 1.465 . S
C549 C548 1.396 . S
C549 C550 1.399 . S
C550 H536 0.929 . S
C550 C549 1.399 . S
C550 C551 1.385 . S
C551 H537 0.931 . S
C551 C550 1.385 . S
C551 C552 1.389 . S
C552 C551 1.389 . S
C552 C553 1.387 . S
C553 H538 0.930 . S
C553 C548 1.390 . S
C553 C552 1.387 . S
H554 C566 0.930 . S
H555 C568 0.930 . S
H556 C569 0.930 . S
H557 C573 0.959 . S
H558 C573 0.959 . S
H559 C573 0.961 . S
H560 C574 0.960 1_556 S
H561 C574 0.961 1_556 S
H562 C574 0.959 . S
H563 C577 0.929 . S
H564 C578 0.931 . S
H565 C580 0.930 . S
C566 H554 0.930 . S
C566 C567 1.399 . S
C566 C571 1.399 . S
C567 C566 1.399 . S
C567 C568 1.376 . S
C568 H555 0.930 . S
C568 C567 1.376 . S
C568 C569 1.388 . S
C569 H556 0.930 . S
C569 C568 1.388 . S
C569 C570 1.390 . S
C570 C569 1.390 . S
C570 C571 1.394 . S
C570 C576 1.465 . S
C571 C566 1.399 . S
C571 C570 1.394 . S
C571 C572 1.516 . S
C572 C571 1.516 . S
C572 C573 1.502 . S
C572 C574 1.561 . S
C572 C575 1.526 . S
C573 H557 0.959 . S
C573 H558 0.959 . S
C573 H559 0.961 . S
C573 C572 1.502 . S
C574 H560 0.960 1_554 S
C574 H561 0.961 1_554 S
C574 H562 0.959 . S
C574 C572 1.561 . S
C575 C572 1.526 . S
C575 C576 1.396 . S
C575 C580 1.390 . S
C576 C570 1.465 . S
C576 C575 1.396 . S
C576 C577 1.399 . S
C577 H563 0.929 . S
C577 C576 1.399 . S
C577 C578 1.385 . S
C578 H564 0.931 . S
C578 C577 1.385 . S
C578 C579 1.389 . S
C579 C578 1.389 . S
C579 C580 1.387 . S
C580 H565 0.930 . S
C580 C575 1.390 . S
C580 C579 1.387 . S
H581 C593 0.930 . S
H582 C595 0.930 . S
H583 C596 0.930 . S
H584 C600 0.959 1_565 S
H585 C600 0.959 . S
H586 C600 0.961 1_565 S
H587 C601 0.960 . S
H588 C601 0.961 . S
H589 C601 0.959 . S
H590 C604 0.929 . S
H591 C605 0.931 . S
H592 C607 0.930 . S
C593 H581 0.930 . S
C593 C594 1.399 . S
C593 C598 1.399 . S
C594 C593 1.399 . S
C594 C595 1.376 . S
C595 H582 0.930 . S
C595 C594 1.376 . S
C595 C596 1.388 . S
C596 H583 0.930 . S
C596 C595 1.388 . S
C596 C597 1.390 1_565 S
C597 C596 1.390 1_545 S
C597 C598 1.394 1_545 S
C597 C603 1.465 . S
C598 C593 1.399 . S
C598 C597 1.394 1_565 S
C598 C599 1.516 1_565 S
C599 C598 1.516 1_545 S
C599 C600 1.502 . S
C599 C601 1.561 . S
C599 C602 1.526 . S
C600 H584 0.959 1_545 S
C600 H585 0.959 . S
C600 H586 0.961 1_545 S
C600 C599 1.502 . S
C601 H587 0.960 . S
C601 H588 0.961 . S
C601 H589 0.959 . S
C601 C599 1.561 . S
C602 C599 1.526 . S
C602 C603 1.396 . S
C602 C607 1.390 . S
C603 C597 1.465 . S
C603 C602 1.396 . S
C603 C604 1.399 . S
C604 H590 0.929 . S
C604 C603 1.399 . S
C604 C605 1.385 . S
C605 H591 0.931 . S
C605 C604 1.385 . S
C605 C606 1.389 . S
C606 C605 1.389 . S
C606 C607 1.387 . S
C607 H592 0.930 . S
C607 C602 1.390 . S
C607 C606 1.387 . S
H608 C620 0.930 . S
H609 C622 0.930 . S
H610 C623 0.930 . S
H611 C627 0.959 . S
H612 C627 0.959 . S
H613 C627 0.961 . S
H614 C628 0.960 . S
H615 C628 0.961 . S
H616 C628 0.959 . S
H617 C631 0.929 . S
H618 C632 0.931 . S
H619 C634 0.930 . S
C620 H608 0.930 . S
C620 C621 1.399 . S
C620 C625 1.399 . S
C621 C620 1.399 . S
C621 C622 1.376 . S
C622 H609 0.930 . S
C622 C621 1.376 . S
C622 C623 1.388 . S
C623 H610 0.930 . S
C623 C622 1.388 . S
C623 C624 1.390 . S
C624 C623 1.390 . S
C624 C625 1.394 . S
C624 C630 1.465 . S
C625 C620 1.399 . S
C625 C624 1.394 . S
C625 C626 1.516 . S
C626 C625 1.516 . S
C626 C627 1.502 . S
C626 C628 1.561 . S
C626 C629 1.526 . S
C627 H611 0.959 . S
C627 H612 0.959 . S
C627 H613 0.961 . S
C627 C626 1.502 . S
C628 H614 0.960 . S
C628 H615 0.961 . S
C628 H616 0.959 . S
C628 C626 1.561 . S
C629 C626 1.526 . S
C629 C630 1.396 . S
C629 C634 1.390 . S
C630 C624 1.465 . S
C630 C629 1.396 . S
C630 C631 1.399 . S
C631 H617 0.929 . S
C631 C630 1.399 . S
C631 C632 1.385 . S
C632 H618 0.931 . S
C632 C631 1.385 . S
C632 C633 1.389 . S
C633 C632 1.389 . S
C633 C634 1.387 . S
C634 H619 0.930 . S
C634 C629 1.390 . S
C634 C633 1.387 . S
H635 C647 0.930 . S
H636 C649 0.930 . S
H637 C650 0.930 . S
H638 C654 0.959 . S
H639 C654 0.959 . S
H640 C654 0.961 . S
H641 C655 0.960 . S
H642 C655 0.961 . S
H643 C655 0.959 . S
H644 C658 0.929 . S
H645 C659 0.931 . S
H646 C661 0.930 . S
C647 H635 0.930 . S
C647 C648 1.399 . S
C647 C652 1.399 . S
C648 C647 1.399 . S
C648 C649 1.376 . S
C649 H636 0.930 . S
C649 C648 1.376 . S
C649 C650 1.388 . S
C650 H637 0.930 . S
C650 C649 1.388 . S
C650 C651 1.390 . S
C651 C650 1.390 . S
C651 C652 1.394 . S
C651 C657 1.465 . S
C652 C647 1.399 . S
C652 C651 1.394 . S
C652 C653 1.516 . S
C653 C652 1.516 . S
C653 C654 1.502 . S
C653 C655 1.561 . S
C653 C656 1.526 . S
C654 H638 0.959 . S
C654 H639 0.959 . S
C654 H640 0.961 . S
C654 C653 1.502 . S
C655 H641 0.960 . S
C655 H642 0.961 . S
C655 H643 0.959 . S
C655 C653 1.561 . S
C656 C653 1.526 . S
C656 C657 1.396 . S
C656 C661 1.390 . S
C657 C651 1.465 . S
C657 C656 1.396 . S
C657 C658 1.399 . S
C658 H644 0.929 . S
C658 C657 1.399 . S
C658 C659 1.385 . S
C659 H645 0.931 . S
C659 C658 1.385 . S
C659 C660 1.389 . S
C660 C659 1.389 . S
C660 C661 1.387 . S
C661 H646 0.930 . S
C661 C656 1.390 . S
C661 C660 1.387 . S
H662 C674 0.930 . S
H663 C676 0.930 . S
H664 C677 0.930 . S
H665 C681 0.959 . S
H666 C681 0.959 . S
H667 C681 0.961 . S
H668 C682 0.960 . S
H669 C682 0.961 . S
H670 C682 0.959 . S
H671 C685 0.929 . S
H672 C686 0.931 . S
H673 C688 0.930 . S
C674 H662 0.930 . S
C674 C675 1.399 . S
C674 C679 1.399 . S
C675 C674 1.399 . S
C675 C676 1.376 . S
C676 H663 0.930 . S
C676 C675 1.376 . S
C676 C677 1.388 . S
C677 H664 0.930 . S
C677 C676 1.388 . S
C677 C678 1.390 . S
C678 C677 1.390 . S
C678 C679 1.394 . S
C678 C684 1.465 . S
C679 C674 1.399 . S
C679 C678 1.394 . S
C679 C680 1.516 . S
C680 C679 1.516 . S
C680 C681 1.502 . S
C680 C682 1.561 . S
C680 C683 1.526 . S
C681 H665 0.959 . S
C681 H666 0.959 . S
C681 H667 0.961 . S
C681 C680 1.502 . S
C682 H668 0.960 . S
C682 H669 0.961 . S
C682 H670 0.959 . S
C682 C680 1.561 . S
C683 C680 1.526 . S
C683 C684 1.396 . S
C683 C688 1.390 . S
C684 C678 1.465 . S
C684 C683 1.396 . S
C684 C685 1.399 . S
C685 H671 0.929 . S
C685 C684 1.399 . S
C685 C686 1.385 . S
C686 H672 0.931 . S
C686 C685 1.385 . S
C686 C687 1.389 . S
C687 C686 1.389 . S
C687 C688 1.387 . S
C688 H673 0.930 . S
C688 C683 1.390 . S
C688 C687 1.387 . S
H689 C701 0.930 . S
H690 C703 0.930 . S
H691 C704 0.930 . S
H692 C708 0.959 . S
H693 C708 0.959 . S
H694 C708 0.961 . S
H695 C709 0.960 . S
H696 C709 0.961 . S
H697 C709 0.959 . S
H698 C712 0.929 . S
H699 C713 0.931 . S
H700 C715 0.930 . S
C701 H689 0.930 . S
C701 C702 1.399 . S
C701 C706 1.399 . S
C702 C701 1.399 . S
C702 C703 1.376 . S
C703 H690 0.930 . S
C703 C702 1.376 . S
C703 C704 1.388 . S
C704 H691 0.930 . S
C704 C703 1.388 . S
C704 C705 1.390 . S
C705 C704 1.390 . S
C705 C706 1.394 . S
C705 C711 1.465 . S
C706 C701 1.399 . S
C706 C705 1.394 . S
C706 C707 1.516 . S
C707 C706 1.516 . S
C707 C708 1.502 . S
C707 C709 1.561 . S
C707 C710 1.526 . S
C708 H692 0.959 . S
C708 H693 0.959 . S
C708 H694 0.961 . S
C708 C707 1.502 . S
C709 H695 0.960 . S
C709 H696 0.961 . S
C709 H697 0.959 . S
C709 C707 1.561 . S
C710 C707 1.526 . S
C710 C711 1.396 . S
C710 C715 1.390 . S
C711 C705 1.465 . S
C711 C710 1.396 . S
C711 C712 1.399 . S
C712 H698 0.929 . S
C712 C711 1.399 . S
C712 C713 1.385 . S
C713 H699 0.931 . S
C713 C712 1.385 . S
C713 C714 1.389 . S
C714 C713 1.389 . S
C714 C715 1.387 . S
C715 H700 0.930 . S
C715 C710 1.390 . S
C715 C714 1.387 . S
H716 C728 0.930 . S
H717 C730 0.930 . S
H718 C731 0.930 . S
H719 C735 0.959 . S
H720 C735 0.959 . S
H721 C735 0.961 . S
H722 C736 0.960 . S
H723 C736 0.961 . S
H724 C736 0.959 . S
H725 C739 0.929 . S
H726 C740 0.931 . S
H727 C742 0.930 . S
C728 H716 0.930 . S
C728 C729 1.399 . S
C728 C733 1.399 . S
C729 C728 1.399 . S
C729 C730 1.376 . S
C730 H717 0.930 . S
C730 C729 1.376 . S
C730 C731 1.388 . S
C731 H718 0.930 . S
C731 C730 1.388 . S
C731 C732 1.390 . S
C732 C731 1.390 . S
C732 C733 1.394 . S
C732 C738 1.465 . S
C733 C728 1.399 . S
C733 C732 1.394 . S
C733 C734 1.516 . S
C734 C733 1.516 . S
C734 C735 1.502 . S
C734 C736 1.561 . S
C734 C737 1.526 . S
C735 H719 0.959 . S
C735 H720 0.959 . S
C735 H721 0.961 . S
C735 C734 1.502 . S
C736 H722 0.960 . S
C736 H723 0.961 . S
C736 H724 0.959 . S
C736 C734 1.561 . S
C737 C734 1.526 . S
C737 C738 1.396 . S
C737 C742 1.390 . S
C738 C732 1.465 . S
C738 C737 1.396 . S
C738 C739 1.399 . S
C739 H725 0.929 . S
C739 C738 1.399 . S
C739 C740 1.385 . S
C740 H726 0.931 . S
C740 C739 1.385 . S
C740 C741 1.389 . S
C741 C740 1.389 . S
C741 C742 1.387 . S
C742 H727 0.930 . S
C742 C737 1.390 . S
C742 C741 1.387 . S
H743 C755 0.930 . S
H744 C757 0.930 . S
H745 C758 0.930 . S
H746 C762 0.959 . S
H747 C762 0.959 . S
H748 C762 0.961 . S
H749 C763 0.960 . S
H750 C763 0.961 . S
H751 C763 0.959 . S
H752 C766 0.929 . S
H753 C767 0.931 . S
H754 C769 0.930 . S
C755 H743 0.930 . S
C755 C756 1.399 . S
C755 C760 1.399 . S
C756 C755 1.399 . S
C756 C757 1.376 . S
C757 H744 0.930 . S
C757 C756 1.376 . S
C757 C758 1.388 . S
C758 H745 0.930 . S
C758 C757 1.388 . S
C758 C759 1.390 . S
C759 C758 1.390 . S
C759 C760 1.394 . S
C759 C765 1.465 . S
C760 C755 1.399 . S
C760 C759 1.394 . S
C760 C761 1.516 . S
C761 C760 1.516 . S
C761 C762 1.502 . S
C761 C763 1.561 . S
C761 C764 1.526 . S
C762 H746 0.959 . S
C762 H747 0.959 . S
C762 H748 0.961 . S
C762 C761 1.502 . S
C763 H749 0.960 . S
C763 H750 0.961 . S
C763 H751 0.959 . S
C763 C761 1.561 . S
C764 C761 1.526 . S
C764 C765 1.396 . S
C764 C769 1.390 . S
C765 C759 1.465 . S
C765 C764 1.396 . S
C765 C766 1.399 . S
C766 H752 0.929 . S
C766 C765 1.399 . S
C766 C767 1.385 . S
C767 H753 0.931 . S
C767 C766 1.385 . S
C767 C768 1.389 . S
C768 C767 1.389 . S
C768 C769 1.387 . S
C769 H754 0.930 . S
C769 C764 1.390 . S
C769 C768 1.387 . S
H770 C782 0.930 . S
H771 C784 0.930 . S
H772 C785 0.930 . S
H773 C789 0.959 . S
H774 C789 0.959 . S
H775 C789 0.961 . S
H776 C790 0.960 . S
H777 C790 0.961 . S
H778 C790 0.959 . S
H779 C793 0.929 . S
H780 C794 0.931 . S
H781 C796 0.930 . S
C782 H770 0.930 . S
C782 C783 1.399 . S
C782 C787 1.399 . S
C783 C782 1.399 . S
C783 C784 1.376 . S
C784 H771 0.930 . S
C784 C783 1.376 . S
C784 C785 1.388 . S
C785 H772 0.930 . S
C785 C784 1.388 . S
C785 C786 1.390 . S
C786 C785 1.390 . S
C786 C787 1.394 . S
C786 C792 1.465 . S
C787 C782 1.399 . S
C787 C786 1.394 . S
C787 C788 1.516 . S
C788 C787 1.516 . S
C788 C789 1.502 . S
C788 C790 1.561 . S
C788 C791 1.526 . S
C789 H773 0.959 . S
C789 H774 0.959 . S
C789 H775 0.961 . S
C789 C788 1.502 . S
C790 H776 0.960 . S
C790 H777 0.961 . S
C790 H778 0.959 . S
C790 C788 1.561 . S
C791 C788 1.526 . S
C791 C792 1.396 . S
C791 C796 1.390 . S
C792 C786 1.465 . S
C792 C791 1.396 . S
C792 C793 1.399 . S
C793 H779 0.929 . S
C793 C792 1.399 . S
C793 C794 1.385 . S
C794 H780 0.931 . S
C794 C793 1.385 . S
C794 C795 1.389 . S
C795 C794 1.389 . S
C795 C796 1.387 . S
C796 H781 0.930 . S
C796 C791 1.390 . S
C796 C795 1.387 . S
H797 C809 0.930 . S
H798 C811 0.930 . S
H799 C812 0.930 . S
H800 C816 0.959 . S
H801 C816 0.959 . S
H802 C816 0.961 . S
H803 C817 0.960 . S
H804 C817 0.961 . S
H805 C817 0.959 . S
H806 C820 0.929 . S
H807 C821 0.931 . S
H808 C823 0.930 . S
C809 H797 0.930 . S
C809 C810 1.399 . S
C809 C814 1.399 . S
C810 C809 1.399 . S
C810 C811 1.376 . S
C811 H798 0.930 . S
C811 C810 1.376 . S
C811 C812 1.388 . S
C812 H799 0.930 . S
C812 C811 1.388 . S
C812 C813 1.390 . S
C813 C812 1.390 . S
C813 C814 1.394 . S
C813 C819 1.465 . S
C814 C809 1.399 . S
C814 C813 1.394 . S
C814 C815 1.516 . S
C815 C814 1.516 . S
C815 C816 1.502 . S
C815 C817 1.561 . S
C815 C818 1.526 . S
C816 H800 0.959 . S
C816 H801 0.959 . S
C816 H802 0.961 . S
C816 C815 1.502 . S
C817 H803 0.960 . S
C817 H804 0.961 . S
C817 H805 0.959 . S
C817 C815 1.561 . S
C818 C815 1.526 . S
C818 C819 1.396 . S
C818 C823 1.390 . S
C819 C813 1.465 . S
C819 C818 1.396 . S
C819 C820 1.399 . S
C820 H806 0.929 . S
C820 C819 1.399 . S
C820 C821 1.385 . S
C821 H807 0.931 . S
C821 C820 1.385 . S
C821 C822 1.389 . S
C822 C821 1.389 . S
C822 C823 1.387 . S
C823 H808 0.930 . S
C823 C818 1.390 . S
C823 C822 1.387 . S
C189 C9 0.672 . S
C201 C71 0.667 . S
C216 C27 0.788 . S
C228 C49 0.791 . S
C243 C94 0.769 . S
C255 C160 0.792 . S
C270 C116 0.680 . S
C282 C139 0.658 . S
C297 C6 1.960 . S
C309 C97 1.987 . S
C324 C119 1.991 . S
C336 C29 1.951 . S
C351 C137 1.989 . S
C363 C51 1.951 . S
C378 C73 1.977 . S
C390 C163 1.960 . S
C405 C141 0.951 . S
C417 C4 0.920 . S
C432 C159 0.946 . S
C444 C30 0.996 . S
C459 C52 0.918 . S
C471 C93 1.000 . S
C486 C74 0.997 . S
C498 C115 0.895 . S
C513 C50 1.004 . S
C525 C96 0.913 . S
C540 C118 0.987 . S
C552 C72 0.929 . S
C567 C7 1.006 . S
C579 C136 0.916 . S
C594 C162 0.927 . S
C606 C28 0.972 . S
C621 C5 1.652 . S
C633 C26 1.665 . S
C648 C8 1.652 . S
C660 C31 1.650 . S
C675 C70 1.649 . S
C687 C53 1.617 . S
C702 C75 1.613 . S
C714 C48 1.637 . S
C729 C95 1.618 . S
C741 C114 1.645 . S
C756 C92 1.637 . S
C768 C117 1.596 . S
C783 C158 1.665 . S
C795 C138 1.667 . S
C810 C161 1.647 . S
C822 C140 1.656 . S
