# Generated by pormake.
# Topology uox, (4)-cn, num edge types: 1
# Building blocks:
#     Node 0, Type 0, BuildingBlock: QUQFOY_clean_sbu_3, # of connection points: 4
#     Node 1, Type 0, BuildingBlock: QUQFOY_clean_sbu_3, # of connection points: 4
#     Node 2, Type 0, BuildingBlock: QUQFOY_clean_sbu_3, # of connection points: 4
#     Node 3, Type 0, BuildingBlock: QUQFOY_clean_sbu_3, # of connection points: 4
#     Node 4, Type 0, BuildingBlock: QUQFOY_clean_sbu_3, # of connection points: 4
#     Node 5, Type 0, BuildingBlock: QUQFOY_clean_sbu_3, # of connection points: 4
#     Node 6, Type 0, BuildingBlock: QUQFOY_clean_sbu_3, # of connection points: 4
#     Node 7, Type 0, BuildingBlock: QUQFOY_clean_sbu_3, # of connection points: 4
#     Node 8, Type 0, BuildingBlock: QUQFOY_clean_sbu_3, # of connection points: 4
#     Node 9, Type 0, BuildingBlock: QUQFOY_clean_sbu_3, # of connection points: 4
#     Node 10, Type 0, BuildingBlock: QUQFOY_clean_sbu_3, # of connection points: 4
#     Node 11, Type 0, BuildingBlock: QUQFOY_clean_sbu_3, # of connection points: 4
#     Node 12, Type 0, BuildingBlock: QUQFOY_clean_sbu_3, # of connection points: 4
#     Node 13, Type 0, BuildingBlock: QUQFOY_clean_sbu_3, # of connection points: 4
#     Node 14, Type 0, BuildingBlock: QUQFOY_clean_sbu_3, # of connection points: 4
#     Node 15, Type 0, BuildingBlock: QUQFOY_clean_sbu_3, # of connection points: 4
#     Node 16, Type 0, BuildingBlock: QUQFOY_clean_sbu_3, # of connection points: 4
#     Node 17, Type 0, BuildingBlock: QUQFOY_clean_sbu_3, # of connection points: 4
#     Node 18, Type 0, BuildingBlock: QUQFOY_clean_sbu_3, # of connection points: 4
#     Node 19, Type 0, BuildingBlock: QUQFOY_clean_sbu_3, # of connection points: 4
#     Node 20, Type 0, BuildingBlock: QUQFOY_clean_sbu_3, # of connection points: 4
#     Node 21, Type 0, BuildingBlock: QUQFOY_clean_sbu_3, # of connection points: 4
#     Node 22, Type 0, BuildingBlock: QUQFOY_clean_sbu_3, # of connection points: 4
#     Node 23, Type 0, BuildingBlock: QUQFOY_clean_sbu_3, # of connection points: 4
#     Node 24, Type 0, BuildingBlock: QUQFOY_clean_sbu_3, # of connection points: 4
#     Node 25, Type 0, BuildingBlock: QUQFOY_clean_sbu_3, # of connection points: 4
#     Node 26, Type 0, BuildingBlock: QUQFOY_clean_sbu_3, # of connection points: 4
#     Node 27, Type 0, BuildingBlock: QUQFOY_clean_sbu_3, # of connection points: 4
#     Node 28, Type 0, BuildingBlock: QUQFOY_clean_sbu_3, # of connection points: 4
#     Node 29, Type 0, BuildingBlock: QUQFOY_clean_sbu_3, # of connection points: 4
#     Node 30, Type 0, BuildingBlock: QUQFOY_clean_sbu_3, # of connection points: 4
#     Node 31, Type 0, BuildingBlock: QUQFOY_clean_sbu_3, # of connection points: 4
#     Edge 32, Type (0, 0), BuildingBlock: AJUNOK_clean_linker_0, # of connection points: 2
#     Edge 33, Type (0, 0), BuildingBlock: AJUNOK_clean_linker_0, # of connection points: 2
#     Edge 34, Type (0, 0), BuildingBlock: AJUNOK_clean_linker_0, # of connection points: 2
#     Edge 35, Type (0, 0), BuildingBlock: AJUNOK_clean_linker_0, # of connection points: 2
#     Edge 36, Type (0, 0), BuildingBlock: AJUNOK_clean_linker_0, # of connection points: 2
#     Edge 37, Type (0, 0), BuildingBlock: AJUNOK_clean_linker_0, # of connection points: 2
#     Edge 38, Type (0, 0), BuildingBlock: AJUNOK_clean_linker_0, # of connection points: 2
#     Edge 39, Type (0, 0), BuildingBlock: AJUNOK_clean_linker_0, # of connection points: 2
#     Edge 40, Type (0, 0), BuildingBlock: AJUNOK_clean_linker_0, # of connection points: 2
#     Edge 41, Type (0, 0), BuildingBlock: AJUNOK_clean_linker_0, # of connection points: 2
#     Edge 42, Type (0, 0), BuildingBlock: AJUNOK_clean_linker_0, # of connection points: 2
#     Edge 43, Type (0, 0), BuildingBlock: AJUNOK_clean_linker_0, # of connection points: 2
#     Edge 44, Type (0, 0), BuildingBlock: AJUNOK_clean_linker_0, # of connection points: 2
#     Edge 45, Type (0, 0), BuildingBlock: AJUNOK_clean_linker_0, # of connection points: 2
#     Edge 46, Type (0, 0), BuildingBlock: AJUNOK_clean_linker_0, # of connection points: 2
#     Edge 47, Type (0, 0), BuildingBlock: AJUNOK_clean_linker_0, # of connection points: 2
#     Edge 48, Type (0, 0), BuildingBlock: AJUNOK_clean_linker_0, # of connection points: 2
#     Edge 49, Type (0, 0), BuildingBlock: AJUNOK_clean_linker_0, # of connection points: 2
#     Edge 50, Type (0, 0), BuildingBlock: AJUNOK_clean_linker_0, # of connection points: 2
#     Edge 51, Type (0, 0), BuildingBlock: AJUNOK_clean_linker_0, # of connection points: 2
#     Edge 52, Type (0, 0), BuildingBlock: AJUNOK_clean_linker_0, # of connection points: 2
#     Edge 53, Type (0, 0), BuildingBlock: AJUNOK_clean_linker_0, # of connection points: 2
#     Edge 54, Type (0, 0), BuildingBlock: AJUNOK_clean_linker_0, # of connection points: 2
#     Edge 55, Type (0, 0), BuildingBlock: AJUNOK_clean_linker_0, # of connection points: 2
#     Edge 56, Type (0, 0), BuildingBlock: AJUNOK_clean_linker_0, # of connection points: 2
#     Edge 57, Type (0, 0), BuildingBlock: AJUNOK_clean_linker_0, # of connection points: 2
#     Edge 58, Type (0, 0), BuildingBlock: AJUNOK_clean_linker_0, # of connection points: 2
#     Edge 59, Type (0, 0), BuildingBlock: AJUNOK_clean_linker_0, # of connection points: 2
#     Edge 60, Type (0, 0), BuildingBlock: AJUNOK_clean_linker_0, # of connection points: 2
#     Edge 61, Type (0, 0), BuildingBlock: AJUNOK_clean_linker_0, # of connection points: 2
#     Edge 62, Type (0, 0), BuildingBlock: AJUNOK_clean_linker_0, # of connection points: 2
#     Edge 63, Type (0, 0), BuildingBlock: AJUNOK_clean_linker_0, # of connection points: 2
#     Edge 64, Type (0, 0), BuildingBlock: AJUNOK_clean_linker_0, # of connection points: 2
#     Edge 65, Type (0, 0), BuildingBlock: AJUNOK_clean_linker_0, # of connection points: 2
#     Edge 66, Type (0, 0), BuildingBlock: AJUNOK_clean_linker_0, # of connection points: 2
#     Edge 67, Type (0, 0), BuildingBlock: AJUNOK_clean_linker_0, # of connection points: 2
#     Edge 68, Type (0, 0), BuildingBlock: AJUNOK_clean_linker_0, # of connection points: 2
#     Edge 69, Type (0, 0), BuildingBlock: AJUNOK_clean_linker_0, # of connection points: 2
#     Edge 70, Type (0, 0), BuildingBlock: AJUNOK_clean_linker_0, # of connection points: 2
#     Edge 71, Type (0, 0), BuildingBlock: AJUNOK_clean_linker_0, # of connection points: 2
#     Edge 72, Type (0, 0), BuildingBlock: AJUNOK_clean_linker_0, # of connection points: 2
#     Edge 73, Type (0, 0), BuildingBlock: AJUNOK_clean_linker_0, # of connection points: 2
#     Edge 74, Type (0, 0), BuildingBlock: AJUNOK_clean_linker_0, # of connection points: 2
#     Edge 75, Type (0, 0), BuildingBlock: AJUNOK_clean_linker_0, # of connection points: 2
#     Edge 76, Type (0, 0), BuildingBlock: AJUNOK_clean_linker_0, # of connection points: 2
#     Edge 77, Type (0, 0), BuildingBlock: AJUNOK_clean_linker_0, # of connection points: 2
#     Edge 78, Type (0, 0), BuildingBlock: AJUNOK_clean_linker_0, # of connection points: 2
#     Edge 79, Type (0, 0), BuildingBlock: AJUNOK_clean_linker_0, # of connection points: 2
#     Edge 80, Type (0, 0), BuildingBlock: AJUNOK_clean_linker_0, # of connection points: 2
#     Edge 81, Type (0, 0), BuildingBlock: AJUNOK_clean_linker_0, # of connection points: 2
#     Edge 82, Type (0, 0), BuildingBlock: AJUNOK_clean_linker_0, # of connection points: 2
#     Edge 83, Type (0, 0), BuildingBlock: AJUNOK_clean_linker_0, # of connection points: 2
#     Edge 84, Type (0, 0), BuildingBlock: AJUNOK_clean_linker_0, # of connection points: 2
#     Edge 85, Type (0, 0), BuildingBlock: AJUNOK_clean_linker_0, # of connection points: 2
#     Edge 86, Type (0, 0), BuildingBlock: AJUNOK_clean_linker_0, # of connection points: 2
#     Edge 87, Type (0, 0), BuildingBlock: AJUNOK_clean_linker_0, # of connection points: 2
#     Edge 88, Type (0, 0), BuildingBlock: AJUNOK_clean_linker_0, # of connection points: 2
#     Edge 89, Type (0, 0), BuildingBlock: AJUNOK_clean_linker_0, # of connection points: 2
#     Edge 90, Type (0, 0), BuildingBlock: AJUNOK_clean_linker_0, # of connection points: 2
#     Edge 91, Type (0, 0), BuildingBlock: AJUNOK_clean_linker_0, # of connection points: 2
#     Edge 92, Type (0, 0), BuildingBlock: AJUNOK_clean_linker_0, # of connection points: 2
#     Edge 93, Type (0, 0), BuildingBlock: AJUNOK_clean_linker_0, # of connection points: 2
#     Edge 94, Type (0, 0), BuildingBlock: AJUNOK_clean_linker_0, # of connection points: 2
#     Edge 95, Type (0, 0), BuildingBlock: AJUNOK_clean_linker_0, # of connection points: 2
# Relax obj value: 0.058
# Max RMSD: 0.086
# Mean RMSD: 0.086
data_MOF--net-uox--node1-QUQFOY_clean_sbu_3--edge1-AJUNOK_clean_linker_0
_symmetry_space_group_name_H-M    P1
_symmetry_Int_Tables_number       1
_symmetry_cell_setting            triclinic
loop_
_symmetry_equiv_pos_as_xyz
'x, y, z'
_cell_length_a     35.511142
_cell_length_b     35.403765
_cell_length_c     61.924761
_cell_angle_alpha  89.939971
_cell_angle_beta   89.776718
_cell_angle_gamma 90.046048
loop_
_atom_site_label
_atom_site_type_symbol
_atom_site_fract_x
_atom_site_fract_y
_atom_site_fract_z
_atom_type_partial_charge
C0 C 0.48605 0.04251 0.10557 0.0
O1 O 0.46769 0.03343 0.08879 0.0
Cd2 Cd 0.40435 0.00924 0.08832 0.0
O3 O 0.47158 0.03808 0.12427 0.0
Cd4 Cd 0.41163 0.01586 0.14035 0.0
C5 C 0.36098 0.08346 0.11346 0.0
O6 O 0.3992 0.96283 0.11623 0.0
O7 O 0.35499 0.97797 0.1388 0.0
O8 O 0.44008 0.9809 0.17013 0.0
C9 C 0.36708 0.95576 0.12433 0.0
O10 O 0.36586 0.06436 0.09627 0.0
C11 C 0.42648 0.00169 0.18491 0.0
O12 O 0.37579 0.07298 0.13121 0.0
O13 O 0.40741 0.03018 0.17896 0.0
C14 C 0.1733 0.23791 0.36143 0.0
O15 O 0.18285 0.22114 0.34413 0.0
Cd16 Cd 0.20796 0.15819 0.34222 0.0
O17 O 0.17726 0.22169 0.37966 0.0
Cd18 Cd 0.19997 0.16089 0.39444 0.0
C19 C 0.13466 0.1103 0.36605 0.0
O20 O 0.25347 0.15228 0.37025 0.0
O21 O 0.23985 0.10521 0.39113 0.0
O22 O 0.23341 0.18939 0.42467 0.0
C23 C 0.26137 0.11933 0.37689 0.0
O24 O 0.15427 0.1173 0.34926 0.0
C25 C 0.21346 0.17399 0.43927 0.0
O26 O 0.14384 0.12418 0.3843 0.0
O27 O 0.18608 0.15364 0.43307 0.0
C28 C 0.97331 0.93277 0.61159 0.0
O29 O -0.00941 0.94352 0.59468 0.0
Cd30 Cd 0.05479 0.96528 0.59462 0.0
O31 O -0.01049 0.93422 0.62987 0.0
Cd32 Cd 0.05093 0.95335 0.64498 0.0
C33 C 0.09776 0.88703 0.61604 0.0
O34 O 0.06555 0.0093 0.62336 0.0
O35 O 0.11183 0.98281 0.64016 0.0
O36 O 0.02693 -0.01144 0.67603 0.0
C37 C 0.09985 0.01034 0.62903 0.0
O38 O 0.09302 0.90871 0.59985 0.0
C39 C 0.03904 0.96555 0.6901 0.0
O40 O 0.08323 0.89523 0.6343 0.0
O41 O 0.05607 0.93641 0.68319 0.0
C42 C 0.28552 0.72453 0.86009 0.0
O43 O 0.27536 0.74196 0.84316 0.0
Cd44 Cd 0.25403 0.80649 0.84309 0.0
O45 O 0.28342 0.74063 0.87843 0.0
Cd46 Cd 0.2636 0.80187 0.8938 0.0
C47 C 0.33128 0.84893 0.86594 0.0
O48 O 0.20934 0.81807 0.87138 0.0
O49 O 0.23574 0.8634 0.88921 0.0
O50 O 0.22585 0.77719 0.92364 0.0
C51 C 0.20901 0.85244 0.87724 0.0
O52 O 0.31038 0.84427 0.84949 0.0
C53 C 0.24748 0.78896 0.93845 0.0
O54 O 0.3223 0.83429 0.88408 0.0
O55 O 0.27744 0.80572 0.93251 0.0
C56 C 0.48428 0.92942 0.35581 0.0
O57 O 0.46639 0.9388 0.3728 0.0
Cd58 Cd 0.4036 0.9645 0.3736 0.0
O59 O 0.4693 0.93337 0.33728 0.0
Cd60 Cd 0.40951 0.95535 0.32115 0.0
C61 C 0.3566 0.89103 0.34966 0.0
O62 O 0.39979 0.00913 0.34486 0.0
O63 O 0.35477 -0.00322 0.32256 0.0
O64 O 0.43907 -0.01272 0.29041 0.0
C65 C 0.3679 0.01785 0.33724 0.0
O66 O 0.3628 0.91089 0.3664 0.0
C67 C 0.42494 0.96574 0.2762 0.0
O68 O 0.37155 0.89983 0.33157 0.0
O69 O 0.40454 0.93864 0.28292 0.0
C70 C 0.2862 0.24335 0.60826 0.0
O71 O 0.27707 0.22606 0.62547 0.0
Cd72 Cd 0.2553 0.1617 0.62615 0.0
O73 O 0.28312 0.22703 0.59004 0.0
Cd74 Cd 0.26305 0.16513 0.57565 0.0
C75 C 0.33124 0.11819 0.60292 0.0
O76 O 0.20877 0.15107 0.59869 0.0
O77 O 0.23367 0.10428 0.58134 0.0
O78 O 0.22651 0.18777 0.54478 0.0
C79 C 0.20702 0.11666 0.59303 0.0
O80 O 0.31135 0.1231 0.61985 0.0
C81 C 0.2493 0.17557 0.53058 0.0
O82 O 0.32131 0.13262 0.58498 0.0
O83 O 0.27876 0.15912 0.53733 0.0
C84 C 0.97599 0.03659 0.86112 0.0
O85 O -0.00616 0.02501 0.87756 0.0
Cd86 Cd 0.05792 0.00333 0.87691 0.0
O87 O -0.00882 0.03516 0.84246 0.0
Cd88 Cd 0.05179 0.01506 0.8263 0.0
C89 C 0.09828 0.0824 0.85456 0.0
O90 O 0.0685 0.95981 0.84798 0.0
O91 O 0.11328 -0.01305 0.82999 0.0
O92 O 0.026 0.97906 0.79623 0.0
C93 C 0.10263 0.95966 0.84179 0.0
O94 O 0.09459 0.06069 0.87084 0.0
C95 C 0.03883 0.00066 0.78157 0.0
O96 O 0.08351 0.07374 0.83648 0.0
O97 O 0.05644 0.02997 0.78773 0.0
C98 C 0.17599 0.72858 0.11018 0.0
O99 O 0.18612 0.74712 0.12672 0.0
Cd100 Cd 0.21042 0.81043 0.12685 0.0
O101 O 0.17918 0.743 0.09138 0.0
Cd102 Cd 0.20072 0.80318 0.07471 0.0
C103 C 0.13558 0.85492 0.103 0.0
O104 O 0.25469 0.81499 0.09797 0.0
O105 O 0.23996 0.85947 0.07559 0.0
O106 O 0.23276 0.77409 0.04392 0.0
C107 C 0.26189 0.84729 0.09009 0.0
O108 O 0.15578 0.84972 0.11967 0.0
C109 C 0.2111 0.7882 0.02979 0.0
O110 O 0.14461 0.83988 0.08499 0.0
O111 O 0.18383 0.80817 0.0366 0.0
C112 C 0.47492 0.92803 0.85919 0.0
O113 O 0.49232 0.9369 0.87632 0.0
Cd114 Cd 0.55709 0.95693 0.87666 0.0
O115 O 0.49124 0.93085 0.84091 0.0
Cd116 Cd 0.55303 0.95001 0.82605 0.0
C117 C 0.59721 0.87933 0.85298 0.0
O118 O 0.56904 0.00353 0.8492 0.0
O119 O 0.61469 0.97755 0.8314 0.0
O120 O 0.5298 -0.01278 0.7955 0.0
C121 C 0.60341 0.00414 0.84349 0.0
O122 O 0.59346 0.89943 0.86991 0.0
C123 C 0.54167 0.96462 0.7811 0.0
O124 O 0.58303 0.89009 0.83514 0.0
O125 O 0.55839 0.93506 0.78761 0.0
C126 C 0.78437 0.73007 0.60777 0.0
O127 O 0.77285 0.74734 0.62448 0.0
Cd128 Cd 0.75125 0.81149 0.62476 0.0
O129 O 0.78326 0.74621 0.58937 0.0
Cd130 Cd 0.76348 0.80796 0.57425 0.0
C131 C 0.82965 0.85444 0.6032 0.0
O132 O 0.70773 0.82182 0.59599 0.0
O133 O 0.73407 0.869 0.57969 0.0
O134 O 0.72813 0.78445 0.54325 0.0
C135 C 0.70657 0.85641 0.59067 0.0
O136 O 0.80794 0.84955 0.61938 0.0
C137 C 0.75064 0.79739 0.5291 0.0
O138 O 0.82145 0.84022 0.5849 0.0
O139 O 0.77971 0.81447 0.53593 0.0
C140 C -0.01012 0.03464 0.35767 0.0
O141 O 0.97117 0.02564 0.37441 0.0
Cd142 Cd 0.90615 0.00639 0.37375 0.0
O143 O 0.97464 0.03331 0.3391 0.0
Cd144 Cd 0.91292 0.01729 0.32307 0.0
C145 C 0.86665 0.08543 0.35098 0.0
O146 O 0.8948 0.96269 0.345 0.0
O147 O 0.85072 -0.00956 0.32698 0.0
O148 O 0.93547 0.98065 0.29215 0.0
C149 C 0.8607 0.96316 0.33892 0.0
O150 O 0.86997 0.06388 0.36735 0.0
C151 C 0.92525 0.00447 0.27802 0.0
O152 O 0.88203 0.07667 0.33304 0.0
O153 O 0.91012 0.03469 0.28485 0.0
C154 C 0.67722 0.2453 0.1099 0.0
O155 O 0.68505 0.22642 0.12673 0.0
Cd156 Cd 0.70569 0.16174 0.1258 0.0
O157 O 0.68103 0.23043 0.0913 0.0
Cd158 Cd 0.70071 0.16898 0.07603 0.0
C159 C 0.62994 0.12171 0.10092 0.0
O160 O 0.7542 0.15254 0.09903 0.0
O161 O 0.72863 0.10713 0.08095 0.0
O162 O 0.73829 0.19338 0.04588 0.0
C163 C 0.75556 0.11851 0.09265 0.0
O164 O 0.64942 0.12422 0.11809 0.0
C165 C 0.71666 0.18081 0.03129 0.0
O166 O 0.64097 0.1378 0.08363 0.0
O167 O 0.68703 0.16388 0.03752 0.0
C168 C 0.4747 0.03954 0.61064 0.0
O169 O 0.49316 0.02937 0.59406 0.0
Cd170 Cd 0.55732 0.00855 0.59438 0.0
O171 O 0.48961 0.03747 0.6293 0.0
Cd172 Cd 0.5507 0.01742 0.64494 0.0
C173 C 0.59757 0.0863 0.61795 0.0
O174 O 0.56594 0.96293 0.62245 0.0
O175 O 0.61203 -0.01152 0.63979 0.0
O176 O 0.52583 0.98066 0.67521 0.0
C177 C 0.60011 0.96147 0.62825 0.0
O178 O 0.5942 0.06562 0.60124 0.0
C179 C 0.53915 0.00189 0.68981 0.0
O180 O 0.58229 0.07658 0.63576 0.0
O181 O 0.55657 0.03131 0.68357 0.0
C182 C 0.6773 0.72911 0.36099 0.0
O183 O 0.68777 0.74536 0.3437 0.0
Cd184 Cd 0.70725 0.81044 0.34242 0.0
O185 O 0.67853 0.74674 0.37889 0.0
Cd186 Cd 0.69717 0.80914 0.3931 0.0
C187 C 0.62854 0.85222 0.36443 0.0
O188 O 0.75154 0.82451 0.37037 0.0
O189 O 0.72459 0.87074 0.3872 0.0
O190 O 0.73457 0.78553 0.42316 0.0
C191 C 0.75162 0.85922 0.37552 0.0
O192 O 0.64976 0.84695 0.34809 0.0
C193 C 0.71338 0.79861 0.43789 0.0
O194 O 0.6377 0.83919 0.38289 0.0
O195 O 0.68374 0.81563 0.43185 0.0
C196 C -0.00849 0.93309 0.10892 0.0
O197 O 0.97477 0.9431 0.09177 0.0
Cd198 Cd 0.91002 0.96324 0.09165 0.0
O199 O 0.97452 0.93487 0.12702 0.0
Cd200 Cd 0.91264 0.95398 0.14167 0.0
C201 C 0.8681 0.88504 0.11392 0.0
O202 O 0.89759 0.00911 0.11941 0.0
O203 O 0.85135 0.98212 0.13626 0.0
O204 O 0.93747 -0.00956 0.17187 0.0
C205 C 0.8632 0.00976 0.12511 0.0
O206 O 0.8727 0.90603 0.09741 0.0
C207 C 0.92404 0.9692 0.18651 0.0
O208 O 0.88202 0.89452 0.13207 0.0
O209 O 0.90614 0.9401 0.18031 0.0
C210 C 0.78308 0.24034 0.86012 0.0
O211 O 0.77486 0.22132 0.84342 0.0
Cd212 Cd 0.75562 0.15604 0.84439 0.0
O213 O 0.78078 0.22529 0.87876 0.0
Cd214 Cd 0.76374 0.16368 0.89486 0.0
C215 C 0.83302 0.11666 0.86816 0.0
O216 O 0.70993 0.14562 0.87251 0.0
O217 O 0.73552 0.10172 0.89176 0.0
O218 O 0.728 0.18847 0.92556 0.0
C219 C 0.70922 0.11172 0.87923 0.0
O220 O 0.81272 0.11948 0.85132 0.0
C221 C 0.75135 0.17764 0.93974 0.0
O222 O 0.82294 0.13243 0.88573 0.0
O223 O 0.7807 0.16085 0.93301 0.0
C224 C -0.01206 0.54025 0.6073 0.0
O225 O 0.97049 0.53204 0.59008 0.0
Cd226 Cd 0.90623 0.51081 0.58938 0.0
O227 O 0.97177 0.53653 0.62557 0.0
Cd228 Cd 0.90981 0.51628 0.63979 0.0
C229 C 0.86339 0.5862 0.61368 0.0
O230 O 0.89545 0.46291 0.61623 0.0
O231 O 0.84882 0.48793 0.63364 0.0
O232 O 0.93177 0.47747 0.66988 0.0
C233 C 0.86108 0.46133 0.62187 0.0
O234 O 0.86809 0.56692 0.59653 0.0
C235 C 0.91946 0.49924 0.68455 0.0
O236 O 0.87783 0.57544 0.63145 0.0
O237 O 0.9037 0.52959 0.67844 0.0
C238 C 0.67311 0.73388 0.86106 0.0
O239 O 0.68434 0.71552 0.84466 0.0
Cd240 Cd 0.70763 0.65193 0.84528 0.0
O241 O 0.67527 0.71935 0.87987 0.0
Cd242 Cd 0.69699 0.65899 0.89608 0.0
C243 C 0.63043 0.61025 0.86857 0.0
O244 O 0.75275 0.64572 0.87369 0.0
O245 O 0.7309 0.60012 0.89302 0.0
O246 O 0.72226 0.69283 0.92759 0.0
C247 C 0.75631 0.612 0.88035 0.0
O248 O 0.65172 0.61334 0.85205 0.0
C249 C 0.70752 0.67039 0.94125 0.0
O250 O 0.63895 0.62655 0.88622 0.0
O251 O 0.68699 0.64407 0.93388 0.0
C252 C 0.47412 0.43258 0.11184 0.0
O253 O 0.49256 0.44477 0.09568 0.0
Cd254 Cd 0.55621 0.4675 0.09707 0.0
O255 O 0.48866 0.43343 0.13061 0.0
Cd256 Cd 0.54877 0.45366 0.1472 0.0
C257 C 0.59858 0.38896 0.11864 0.0
O258 O 0.56369 0.51055 0.1265 0.0
O259 O 0.60942 0.48426 0.14381 0.0
O260 O 0.52262 0.48792 0.17794 0.0
C261 C 0.59761 0.51202 0.13281 0.0
O262 O 0.59473 0.41118 0.10261 0.0
C263 C 0.53491 0.46524 0.19213 0.0
O264 O 0.58269 0.39634 0.13664 0.0
O265 O 0.55267 0.4364 0.18541 0.0
C266 C 0.78808 0.22946 0.35776 0.0
O267 O 0.77937 0.24755 0.34077 0.0
Cd268 Cd 0.7551 0.31127 0.34068 0.0
O269 O 0.78404 0.24459 0.37627 0.0
Cd270 Cd 0.76283 0.30478 0.3922 0.0
C271 C 0.82917 0.35619 0.36491 0.0
O272 O 0.70899 0.31733 0.36877 0.0
O273 O 0.72536 0.3616 0.39099 0.0
O274 O 0.72828 0.27517 0.42173 0.0
C275 C 0.70244 0.34954 0.37697 0.0
O276 O 0.80938 0.35095 0.34808 0.0
C277 C 0.74864 0.28883 0.4366 0.0
O278 O 0.81976 0.34101 0.38282 0.0
O279 O 0.77687 0.3085 0.4308 0.0
C280 C -0.0169 0.42695 0.85422 0.0
O281 O 0.9668 0.43849 0.87127 0.0
Cd282 Cd 0.90356 0.46259 0.87247 0.0
O283 O 0.96653 0.42925 0.83605 0.0
Cd284 Cd 0.9059 0.45139 0.82116 0.0
C285 C 0.85796 0.38592 0.85056 0.0
O286 O 0.89509 0.50679 0.84367 0.0
O287 O 0.847 0.48452 0.82661 0.0
O288 O 0.9316 0.48502 0.78994 0.0
C289 C 0.86084 0.5103 0.83835 0.0
O290 O 0.86386 0.40699 0.86687 0.0
C291 C 0.91725 0.46318 0.77596 0.0
O292 O 0.87197 0.3943 0.83218 0.0
O293 O 0.89818 0.43538 0.783 0.0
C294 C 0.78903 0.74093 0.1085 0.0
O295 O 0.77902 0.72462 0.12586 0.0
Cd296 Cd 0.75597 0.6609 0.12715 0.0
O297 O 0.78561 0.72407 0.09046 0.0
Cd298 Cd 0.76224 0.66263 0.07696 0.0
C299 C 0.83116 0.61667 0.10343 0.0
O300 O 0.70754 0.65149 0.10065 0.0
O301 O 0.73084 0.60341 0.08391 0.0
O302 O 0.73458 0.69476 0.04552 0.0
C303 C 0.70475 0.61691 0.09553 0.0
O304 O 0.81126 0.62126 0.12038 0.0
C305 C 0.74732 0.67108 0.03196 0.0
O306 O 0.82131 0.63153 0.08559 0.0
O307 O 0.76756 0.64451 0.03927 0.0
C308 C 0.47399 0.54355 0.36032 0.0
O309 O 0.49014 0.53402 0.37777 0.0
Cd310 Cd 0.55365 0.5099 0.37954 0.0
O311 O 0.49085 0.53954 0.34229 0.0
Cd312 Cd 0.55132 0.51695 0.32761 0.0
C313 C 0.59987 0.58418 0.35562 0.0
O314 O 0.5622 0.46359 0.35183 0.0
O315 O 0.60765 0.47908 0.33006 0.0
O316 O 0.52247 0.48224 0.29806 0.0
C317 C 0.59492 0.45691 0.34442 0.0
O318 O 0.59314 0.56471 0.37249 0.0
C319 C 0.53693 0.50229 0.28318 0.0
O320 O 0.5867 0.57414 0.33737 0.0
O321 O 0.55697 0.53023 0.28897 0.0
C322 C 0.6745 0.23098 0.60842 0.0
O323 O 0.68493 0.25034 0.62456 0.0
Cd324 Cd 0.70724 0.31424 0.6224 0.0
O325 O 0.67688 0.2447 0.58943 0.0
Cd326 Cd 0.69736 0.30455 0.57225 0.0
C327 C 0.63059 0.35529 0.59854 0.0
O328 O 0.75255 0.32034 0.59379 0.0
O329 O 0.72767 0.36563 0.57529 0.0
O330 O 0.73273 0.2775 0.54205 0.0
C331 C 0.7546 0.35406 0.58693 0.0
O332 O 0.65124 0.35232 0.61523 0.0
C333 C 0.71042 0.2893 0.52758 0.0
O334 O 0.63959 0.33859 0.58106 0.0
O335 O 0.68153 0.30731 0.53393 0.0
C336 C 0.97371 0.43345 0.35927 0.0
O337 O -0.00914 0.44306 0.37635 0.0
Cd338 Cd 0.05593 0.46231 0.37652 0.0
O339 O -0.00949 0.4347 0.34108 0.0
Cd340 Cd 0.05265 0.45158 0.32596 0.0
C341 C 0.09609 0.38284 0.35477 0.0
O342 O 0.06894 0.50648 0.34796 0.0
O343 O 0.11427 0.47944 0.33043 0.0
O344 O 0.02924 0.48728 0.29501 0.0
C345 C 0.10328 0.50663 0.34217 0.0
O346 O 0.0919 0.40428 0.3711 0.0
C347 C 0.04099 0.46415 0.28087 0.0
O348 O 0.08241 0.39212 0.33652 0.0
O349 O 0.05769 0.43479 0.2877 0.0
C350 C 0.28551 0.22914 0.10687 0.0
O351 O 0.27419 0.24666 0.12353 0.0
Cd352 Cd 0.25331 0.31086 0.12362 0.0
O353 O 0.28459 0.24516 0.08841 0.0
Cd354 Cd 0.26433 0.30725 0.07351 0.0
C355 C 0.3317 0.35273 0.10164 0.0
O356 O 0.20803 0.31979 0.09545 0.0
O357 O 0.23384 0.36748 0.07957 0.0
O358 O 0.23687 0.2774 0.04124 0.0
C359 C 0.20634 0.3544 0.09029 0.0
O360 O 0.31023 0.34886 0.11803 0.0
C361 C 0.25193 0.30051 0.02809 0.0
O362 O 0.32316 0.33768 0.08364 0.0
O363 O 0.27401 0.32503 0.03597 0.0
C364 C 0.48663 0.53292 0.85895 0.0
O365 O 0.46766 0.52122 0.87504 0.0
Cd366 Cd 0.4033 0.50044 0.87348 0.0
O367 O 0.47233 0.53267 0.84011 0.0
Cd368 Cd 0.41222 0.51505 0.82276 0.0
C369 C 0.36402 0.58065 0.85178 0.0
O370 O 0.3944 0.45906 0.84349 0.0
O371 O 0.3507 0.48636 0.82498 0.0
O372 O 0.43827 0.48077 0.79196 0.0
C373 C 0.3606 0.45901 0.83689 0.0
O374 O 0.36706 0.55812 0.86773 0.0
C375 C 0.4272 0.50428 0.77786 0.0
O376 O 0.37977 0.57306 0.83375 0.0
O377 O 0.41012 0.53345 0.7847 0.0
C378 C 0.17699 0.74363 0.60767 0.0
O379 O 0.18684 0.72596 0.62457 0.0
Cd380 Cd 0.20856 0.66158 0.62459 0.0
O381 O 0.17938 0.72781 0.58926 0.0
Cd382 Cd 0.1993 0.66667 0.57383 0.0
C383 C 0.13169 0.61915 0.60149 0.0
O384 O 0.25357 0.65102 0.59632 0.0
O385 O 0.22798 0.60542 0.57836 0.0
O386 O 0.23575 0.69217 0.54366 0.0
C387 C 0.25443 0.61669 0.59043 0.0
O388 O 0.15247 0.62342 0.61802 0.0
C389 C 0.21427 0.67943 0.52904 0.0
O390 O 0.14074 0.63427 0.5835 0.0
O391 O 0.18505 0.66172 0.53526 0.0
C392 C 0.97446 0.53771 0.11043 0.0
O393 O -0.00706 0.52797 0.09377 0.0
Cd394 Cd 0.0571 0.50704 0.09399 0.0
O395 O -0.01062 0.53523 0.12906 0.0
Cd396 Cd 0.0504 0.51507 0.14454 0.0
C397 C 0.09776 0.58417 0.11785 0.0
O398 O 0.06547 0.46079 0.12183 0.0
O399 O 0.11143 0.48575 0.13958 0.0
O400 O 0.02575 0.47814 0.17483 0.0
C401 C 0.09952 0.459 0.12785 0.0
O402 O 0.09426 0.56393 0.10097 0.0
C403 C 0.0388 0.49965 0.18938 0.0
O404 O 0.08246 0.57409 0.13558 0.0
O405 O 0.05597 0.52917 0.18309 0.0
C406 C 0.17486 0.22757 0.86093 0.0
O407 O 0.18654 0.24327 0.84372 0.0
Cd408 Cd 0.20659 0.30783 0.84191 0.0
O409 O 0.17545 0.24548 0.87876 0.0
Cd410 Cd 0.19544 0.30811 0.89244 0.0
C411 C 0.12676 0.34879 0.86306 0.0
O412 O 0.25107 0.32114 0.86989 0.0
O413 O 0.22444 0.36851 0.88563 0.0
O414 O 0.22332 0.27781 0.92438 0.0
C415 C 0.2516 0.35608 0.87443 0.0
O416 O 0.14861 0.34402 0.84693 0.0
C417 C 0.20952 0.3014 0.93765 0.0
O418 O 0.13562 0.33617 0.88164 0.0
O419 O 0.18798 0.32667 0.93003 0.0
C420 C 0.48743 0.4345 0.60639 0.0
O421 O 0.46905 0.44558 0.59003 0.0
Cd422 Cd 0.40471 0.4665 0.59125 0.0
O423 O 0.47253 0.4358 0.62512 0.0
Cd424 Cd 0.41217 0.45515 0.64184 0.0
C425 C 0.36448 0.38777 0.61431 0.0
O426 O 0.39504 0.51021 0.62015 0.0
O427 O 0.35065 0.48356 0.63869 0.0
O428 O 0.43865 0.49143 0.67162 0.0
C429 C 0.36107 0.5106 0.62663 0.0
O430 O 0.36797 0.40934 0.59795 0.0
C431 C 0.4266 0.46964 0.6864 0.0
O432 O 0.37992 0.39637 0.63221 0.0
O433 O 0.40903 0.4402 0.68043 0.0
C434 C 0.27951 0.74654 0.35776 0.0
O435 O 0.27074 0.72791 0.34101 0.0
Cd436 Cd 0.25187 0.66259 0.34184 0.0
O437 O 0.27793 0.73108 0.37632 0.0
Cd438 Cd 0.26171 0.6691 0.39234 0.0
C439 C 0.33064 0.62365 0.36472 0.0
O440 O 0.20752 0.65073 0.37041 0.0
O441 O 0.2353 0.60657 0.38847 0.0
O442 O 0.22531 0.6918 0.42336 0.0
C443 C 0.20808 0.61652 0.37658 0.0
O444 O 0.3095 0.62677 0.34825 0.0
C445 C 0.24899 0.6812 0.43741 0.0
O446 O 0.3212 0.63869 0.38263 0.0
O447 O 0.27892 0.66573 0.43048 0.0
C448 C 0.43179 0.01149 0.24577 0.0
C449 C 0.42936 0.97381 0.25291 0.0
C450 C 0.4316 0.02032 0.22368 0.0
C451 C 0.43016 -0.00827 0.20798 0.0
H452 H 0.43223 0.03444 0.25733 0.0
H453 H 0.43216 0.04975 0.21887 0.0
S454 S 0.42581 0.88855 0.21826 0.0
N455 N 0.4266 0.90769 0.24257 0.0
N456 N 0.42768 0.92418 0.20104 0.0
C457 C 0.42932 0.95388 0.21489 0.0
C458 C 0.42851 0.94495 0.23737 0.0
C459 C 0.2032 0.17694 0.50025 0.0
C460 C 0.2408 0.17833 0.50729 0.0
C461 C 0.19448 0.17604 0.47818 0.0
C462 C 0.22301 0.17763 0.46239 0.0
H463 H 0.18038 0.17519 0.51187 0.0
H464 H 0.16523 0.17386 0.47344 0.0
S465 S 0.3258 0.18353 0.47244 0.0
N466 N 0.30669 0.18224 0.49678 0.0
N467 N 0.2903 0.18188 0.45531 0.0
C468 C 0.26064 0.18039 0.46923 0.0
C469 C 0.26955 0.18036 0.49168 0.0
C470 C 0.03627 0.01987 0.74276 0.0
C471 C 0.03546 -0.00891 0.75842 0.0
C472 C 0.03587 0.01133 0.72066 0.0
C473 C 0.03568 0.97366 0.71343 0.0
H474 H 0.03755 0.04924 0.74762 0.0
H475 H 0.03709 0.03439 0.70916 0.0
S476 S 0.03235 0.88795 0.74784 0.0
N477 N 0.03293 0.9234 0.76514 0.0
N478 N 0.03338 0.9074 0.72359 0.0
C479 C 0.03426 0.94463 0.72889 0.0
C480 C 0.03379 0.95333 0.75139 0.0
C481 C 0.26574 0.78296 0.97723 0.0
C482 C 0.23734 0.78521 0.96153 0.0
C483 C 0.25682 0.78205 -0.00069 0.0
C484 C 0.21924 0.78444 0.00647 0.0
H485 H 0.2951 0.78224 0.97243 0.0
H486 H 0.27964 0.78103 0.01085 0.0
S487 S 0.13442 0.78964 0.97187 0.0
N488 N 0.17001 0.78828 0.95464 0.0
N489 N 0.15339 0.78789 -0.00385 0.0
C490 C 0.19055 0.78604 -0.00906 0.0
C491 C 0.19957 0.78605 0.96846 0.0
C492 C 0.53804 0.01118 0.75085 0.0
C493 C 0.538 0.97336 0.75785 0.0
C494 C 0.53784 0.02023 0.72879 0.0
C495 C 0.53655 -0.0082 0.71296 0.0
H496 H 0.53954 0.03398 0.76248 0.0
H497 H 0.53897 0.0497 0.7241 0.0
S498 S 0.53378 0.88843 0.72294 0.0
N499 N 0.53545 0.90733 0.74728 0.0
N500 N 0.53389 0.92428 0.70585 0.0
C501 C 0.53512 0.9539 0.71978 0.0
C502 C 0.53619 0.94469 0.74222 0.0
C503 C 0.69523 0.79584 0.47691 0.0
C504 C 0.72354 0.79564 0.46098 0.0
C505 C 0.7043 0.79496 0.49893 0.0
C506 C 0.74202 0.79488 0.50581 0.0
H507 H 0.66582 0.79681 0.47234 0.0
H508 H 0.68157 0.79559 0.51065 0.0
S509 S 0.82665 0.79349 0.47056 0.0
N510 N 0.79088 0.79411 0.4536 0.0
N511 N 0.80785 0.79369 0.49499 0.0
C512 C 0.77059 0.7943 0.49006 0.0
C513 C 0.76137 0.79431 0.46764 0.0
C514 C 0.926 0.95856 0.24747 0.0
C515 C 0.92833 -0.00385 0.25469 0.0
C516 C 0.92513 0.95003 0.22537 0.0
C517 C 0.92751 0.9787 0.20969 0.0
H518 H 0.92348 0.9356 0.25897 0.0
H519 H 0.92229 0.92076 0.22054 0.0
S520 S 0.93651 0.08152 0.22023 0.0
N521 N 0.93437 0.06217 0.24449 0.0
N522 N 0.93388 0.04614 0.20294 0.0
C523 C 0.93129 0.01631 0.21671 0.0
C524 C 0.93136 0.02504 0.23921 0.0
C525 C 0.70596 0.18304 0.97044 0.0
C526 C 0.74346 0.18208 0.96306 0.0
C527 C 0.69754 0.18338 -0.00743 0.0
C528 C 0.72631 0.18376 0.0081 0.0
H529 H 0.68288 0.1821 0.95906 0.0
H530 H 0.66826 0.18294 -0.00246 0.0
S531 S 0.82912 0.18403 -0.00286 0.0
N532 N 0.80963 0.18298 0.97297 0.0
N533 N 0.79382 0.18474 0.01457 0.0
C534 C 0.76393 0.18437 0.00093 0.0
C535 C 0.77251 0.1832 0.9784 0.0
C536 C 0.92411 0.5176 0.72336 0.0
C537 C 0.92172 0.48908 0.70766 0.0
C538 C 0.9241 0.50878 0.74544 0.0
C539 C 0.92062 0.4712 0.7526 0.0
H540 H 0.92585 0.54699 0.71857 0.0
H541 H 0.92555 0.53171 0.75698 0.0
S542 S 0.91407 0.38609 0.71795 0.0
N543 N 0.91691 0.42164 0.70073 0.0
N544 N 0.91562 0.40518 0.74225 0.0
C545 C 0.91859 0.44238 0.73706 0.0
C546 C 0.91951 0.45129 0.71457 0.0
C547 C 0.73081 0.6384 -0.00216 0.0
C548 C 0.73705 0.67243 0.00891 0.0
C549 C 0.72025 0.63829 0.97611 0.0
C550 C 0.7166 0.67218 0.96446 0.0
H551 H 0.7336 0.61157 0.00612 0.0
H552 H 0.71573 0.61135 0.96824 0.0
S553 S 0.73027 0.7689 -0.01406 0.0
N554 N 0.73839 0.74098 0.00681 0.0
N555 N 0.7201 0.74072 0.96551 0.0
C556 C 0.72308 0.70646 0.97525 0.0
C557 C 0.73284 0.70661 -0.00238 0.0
C558 C 0.53304 0.5207 0.24434 0.0
C559 C 0.53267 0.49226 0.26019 0.0
C560 C 0.53194 0.51164 0.22232 0.0
C561 C 0.53156 0.47381 0.21539 0.0
H562 H 0.53454 0.55016 0.24899 0.0
H563 H 0.53293 0.53444 0.21065 0.0
S564 S 0.52942 0.38891 0.25047 0.0
N565 N 0.53039 0.42477 0.26749 0.0
N566 N 0.52969 0.40777 0.22606 0.0
C567 C 0.53058 0.44513 0.23106 0.0
C568 C 0.53074 0.45436 0.25349 0.0
C569 C 0.7571 0.28403 0.49751 0.0
C570 C 0.71928 0.28498 0.50438 0.0
C571 C 0.76646 0.28444 0.4755 0.0
C572 C 0.73832 0.28469 0.4596 0.0
H573 H 0.77968 0.28459 0.50922 0.0
H574 H 0.79592 0.28505 0.47089 0.0
S575 S 0.63509 0.28486 0.46914 0.0
N576 N 0.65356 0.28491 0.49357 0.0
N577 N 0.6711 0.28439 0.45219 0.0
C578 C 0.70041 0.284 0.46625 0.0
C579 C 0.69089 0.28451 0.48865 0.0
C580 C 0.03679 0.50994 0.25031 0.0
C581 C 0.0374 0.47226 0.25754 0.0
C582 C 0.03666 0.51858 0.22821 0.0
C583 C 0.03609 0.48986 0.21256 0.0
H584 H 0.03773 0.53299 0.26179 0.0
H585 H 0.03727 0.54798 0.22336 0.0
S586 S 0.03524 0.38664 0.22311 0.0
N587 N 0.03626 0.40599 0.24735 0.0
N588 N 0.03484 0.42218 0.20582 0.0
C589 C 0.03531 0.45205 0.21958 0.0
C590 C 0.03631 0.44326 0.24208 0.0
C591 C 0.23384 0.26693 -0.00598 0.0
C592 C 0.24212 0.30078 0.00492 0.0
C593 C 0.22369 0.26712 0.9721 0.0
C594 C 0.22015 0.30126 0.96066 0.0
H595 H 0.23563 0.24014 0.00242 0.0
H596 H 0.21795 0.24049 0.96416 0.0
S597 S 0.2383 0.39747 0.98184 0.0
N598 N 0.24645 0.36922 0.00253 0.0
N599 N 0.22598 0.36961 0.9617 0.0
C600 C 0.228 0.33523 0.97143 0.0
C601 C 0.23937 0.33498 -0.00652 0.0
C602 C 0.43118 0.45874 0.74724 0.0
C603 C 0.43112 0.49637 0.75453 0.0
C604 C 0.43049 0.45029 0.72513 0.0
C605 C 0.43071 0.47915 0.70952 0.0
H606 H 0.43021 0.43559 0.75869 0.0
H607 H 0.42931 0.42094 0.72024 0.0
S608 S 0.43327 0.58227 0.72024 0.0
N609 N 0.4328 0.5627 0.74446 0.0
N610 N 0.43269 0.54689 0.70288 0.0
C611 C 0.43232 0.51689 0.71659 0.0
C612 C 0.43217 0.52548 0.73911 0.0
C613 C 0.19497 0.68192 0.4903 0.0
C614 C 0.22369 0.68328 0.50585 0.0
C615 C 0.20338 0.68289 0.46816 0.0
C616 C 0.24087 0.68428 0.46078 0.0
H617 H 0.16575 0.67977 0.49526 0.0
H618 H 0.18038 0.68115 0.45677 0.0
S619 S 0.32635 0.6896 0.49487 0.0
N620 N 0.2911 0.68769 0.51231 0.0
N621 N 0.30689 0.68839 0.4707 0.0
C622 C 0.26983 0.68634 0.47613 0.0
C623 C 0.26124 0.68617 0.49867 0.0
C624 C 0.33924 0.9204 0.09356 0.0
C625 C 0.34305 0.9254 0.11595 0.0
C626 C 0.31322 0.89445 0.08528 0.0
C627 C 0.29126 0.87187 0.09913 0.0
H628 H 0.35529 0.93776 0.08242 0.0
H629 H 0.30999 0.89228 0.06793 0.0
S630 S 0.29265 0.87276 0.15898 0.0
N631 N 0.32372 0.90522 0.15181 0.0
N632 N 0.27608 0.85511 0.13624 0.0
C633 C 0.29604 0.8755 0.12153 0.0
C634 C 0.32164 0.90269 0.12995 0.0
C635 C 0.3094 0.06833 0.37905 0.0
C636 C 0.29136 0.0965 0.36684 0.0
C637 C 0.33581 0.04409 0.36954 0.0
C638 C 0.34414 0.04663 0.34742 0.0
H639 H 0.30273 0.06472 0.39596 0.0
H640 H 0.34856 0.0222 0.37934 0.0
S641 S 0.30593 0.1161 0.30854 0.0
N642 N 0.28522 0.12666 0.33169 0.0
N643 N 0.33372 0.0798 0.31367 0.0
C644 C 0.32694 0.07497 0.3351 0.0
C645 C 0.30085 0.10034 0.34488 0.0
C646 C 0.16357 0.02755 0.61559 0.0
C647 C 0.12628 0.03838 0.62004 0.0
C648 C 0.18929 0.05306 0.60661 0.0
C649 C 0.17893 0.09061 0.6023 0.0
H650 H 0.17284 -0.00109 0.61872 0.0
H651 H 0.21768 0.0434 0.6033 0.0
S652 S 0.08493 0.13327 0.61141 0.0
N653 N 0.08011 0.08901 0.61946 0.0
N654 N 0.12908 0.13758 0.60323 0.0
C655 C 0.14191 0.10203 0.60694 0.0
C656 C 0.11538 0.07571 0.61561 0.0
C657 C 0.11891 0.89543 0.8557 0.0
C658 C 0.13007 0.9325 0.85058 0.0
C659 C 0.14481 0.86928 0.86398 0.0
C660 C 0.18232 0.87978 0.86798 0.0
H661 H 0.09012 0.88646 0.85306 0.0
H662 H 0.13527 0.8409 0.86765 0.0
S663 S 0.2255 0.9735 0.85745 0.0
N664 N 0.18121 0.97828 0.84994 0.0
N665 N 0.22947 0.92953 0.86602 0.0
C666 C 0.19372 0.91681 0.86304 0.0
C667 C 0.16768 0.9431 0.85419 0.0
C668 C 0.64613 0.0953 0.86408 0.0
C669 C 0.6823 0.08387 0.87055 0.0
C670 C 0.62028 0.06915 0.85572 0.0
C671 C 0.63027 0.03106 0.85298 0.0
H672 H 0.63762 0.12455 0.86568 0.0
H673 H 0.59262 0.07893 0.85097 0.0
S674 S 0.72133 -0.01323 0.86747 0.0
N675 N 0.72648 0.03169 0.87396 0.0
N676 N 0.67834 0.98297 0.85765 0.0
C677 C 0.66632 0.01931 0.85932 0.0
C678 C 0.69225 0.04563 0.86828 0.0
C679 C 0.66387 0.94463 0.61468 0.0
C680 C 0.62644 0.93384 0.61885 0.0
C681 C 0.68938 0.91948 0.60523 0.0
C682 C 0.67864 0.88235 0.60012 0.0
H683 H 0.67342 0.97295 0.61843 0.0
H684 H 0.71791 0.92906 0.60221 0.0
S685 S 0.58413 0.83998 0.60817 0.0
N686 N 0.57975 0.88372 0.61712 0.0
N687 N 0.62828 0.83583 0.59999 0.0
C688 C 0.64146 0.87099 0.60444 0.0
C689 C 0.61517 0.89694 0.61361 0.0
C690 C 0.81592 0.87412 0.36137 0.0
C691 C 0.77903 0.88595 0.36614 0.0
C692 C 0.84249 0.89942 0.35278 0.0
C693 C 0.83262 0.93698 0.34811 0.0
H694 H 0.82447 0.84531 0.36461 0.0
H695 H 0.87075 0.8894 0.3495 0.0
S696 S 0.73949 0.98172 0.35734 0.0
N697 N 0.734 0.9377 0.3656 0.0
N698 N 0.78354 -0.01515 0.34893 0.0
C699 C 0.79571 0.94901 0.35259 0.0
C700 C 0.76899 0.92358 0.36176 0.0
C701 C 0.77347 0.05393 0.10448 0.0
C702 C 0.78381 0.09176 0.10091 0.0
C703 C 0.79935 0.02778 0.11253 0.0
C704 C 0.83678 0.03827 0.11675 0.0
H705 H 0.74496 0.04454 0.10133 0.0
H706 H 0.79006 -0.00102 0.11518 0.0
S707 S 0.87821 0.13364 0.10971 0.0
N708 N 0.83387 0.13855 0.10222 0.0
N709 N 0.88309 0.08886 0.11669 0.0
C710 C 0.84769 0.07586 0.113 0.0
C711 C 0.82102 0.10278 0.10528 0.0
C712 C 0.77232 0.41836 0.59923 0.0
C713 C 0.78276 0.38069 0.59537 0.0
C714 C 0.79789 0.44412 0.60799 0.0
C715 C 0.83508 0.43338 0.61262 0.0
H716 H 0.74393 0.42786 0.5959 0.0
H717 H 0.78854 0.47279 0.61093 0.0
S718 S 0.87669 0.33837 0.60484 0.0
N719 N 0.83266 0.33381 0.5967 0.0
N720 N 0.88136 0.38284 0.61246 0.0
C721 C 0.84614 0.39601 0.60845 0.0
C722 C 0.81977 0.36946 0.60003 0.0
C723 C 0.83934 0.57532 0.84764 0.0
C724 C 0.83586 0.53608 0.85009 0.0
C725 C 0.8138 0.59988 0.85778 0.0
C726 C 0.78452 0.58589 0.87098 0.0
H727 H 0.86124 0.58698 0.83738 0.0
H728 H 0.8168 0.62997 0.85507 0.0
S729 S 0.76632 0.48484 0.88383 0.0
N730 N 0.80284 0.48412 0.86727 0.0
N731 N 0.75537 0.52985 0.88684 0.0
C732 C 0.78194 0.54651 0.87415 0.0
C733 C 0.8075 0.52169 0.86354 0.0
C734 C 0.68708 0.55417 0.11026 0.0
C735 C 0.67682 0.59164 0.10564 0.0
C736 C 0.66141 0.52898 0.11953 0.0
C737 C 0.62422 0.54005 0.12402 0.0
H738 H 0.71532 0.54421 0.10682 0.0
H739 H 0.67057 0.50033 0.12273 0.0
S740 S 0.5833 0.63505 0.11511 0.0
N741 N 0.62732 0.63897 0.10665 0.0
N742 N 0.57835 0.59096 0.12345 0.0
C743 C 0.61348 0.57741 0.11949 0.0
C744 C 0.64001 0.60342 0.1105 0.0
C745 C 0.66555 0.3774 0.34685 0.0
C746 C 0.67186 0.37379 0.36913 0.0
C747 C 0.63981 0.40397 0.33896 0.0
C748 C 0.61874 0.4267 0.35314 0.0
H749 H 0.68184 0.36088 0.33545 0.0
H750 H 0.63672 0.40713 0.32165 0.0
S751 S 0.6232 0.42609 0.41289 0.0
N752 N 0.65433 0.39406 0.40528 0.0
N753 N 0.60461 0.44283 0.39042 0.0
C754 C 0.62353 0.42208 0.37546 0.0
C755 C 0.65052 0.39588 0.38347 0.0
C756 C 0.11862 0.57137 0.35556 0.0
C757 C 0.13028 0.53431 0.35087 0.0
C758 C 0.14413 0.59815 0.36359 0.0
C759 C 0.18175 0.58834 0.36778 0.0
H760 H 0.08976 0.57987 0.35272 0.0
H761 H 0.13421 0.62651 0.36687 0.0
S762 S 0.22612 0.49488 0.35848 0.0
N763 N 0.18195 0.48924 0.3509 0.0
N764 N 0.22949 0.53917 0.36655 0.0
C765 C 0.19362 0.55129 0.36334 0.0
C766 C 0.16797 0.52436 0.35472 0.0
C767 C 0.18901 0.41704 0.10524 0.0
C768 C 0.17828 0.38001 0.09988 0.0
C769 C 0.1634 0.4421 0.11464 0.0
C770 C 0.12587 0.43136 0.11849 0.0
H771 H 0.2176 0.42663 0.10245 0.0
H772 H 0.17295 0.47034 0.11856 0.0
S773 S 0.08356 0.33775 0.10711 0.0
N774 N 0.12786 0.33359 0.09921 0.0
N775 N 0.07908 0.38137 0.11623 0.0
C776 C 0.11461 0.39455 0.11302 0.0
C777 C 0.14102 0.36865 0.10391 0.0
C778 C 0.3425 0.39554 0.85127 0.0
C779 C 0.33242 0.43278 0.84593 0.0
C780 C 0.31597 0.37044 0.86011 0.0
C781 C 0.27891 0.38222 0.86444 0.0
H782 H 0.37096 0.38566 0.84843 0.0
H783 H 0.3247 0.34192 0.86398 0.0
S784 S 0.23863 0.47705 0.85358 0.0
N785 N 0.28285 0.48016 0.84549 0.0
N786 N 0.23338 0.43345 0.86256 0.0
C787 C 0.26859 0.41945 0.85924 0.0
C788 C 0.29527 0.44465 0.84985 0.0
C789 C 0.34462 0.57443 0.61224 0.0
C790 C 0.33349 0.53752 0.61778 0.0
C791 C 0.31868 0.60031 0.60374 0.0
C792 C 0.28116 0.58966 0.59993 0.0
H793 H 0.37345 0.58346 0.6147 0.0
H794 H 0.32819 0.62856 0.59974 0.0
S795 S 0.23798 0.49637 0.6116 0.0
N796 N 0.28232 0.49181 0.61906 0.0
N797 N 0.23398 0.54004 0.60254 0.0
C798 C 0.26976 0.55282 0.6053 0.0
C799 C 0.29585 0.52683 0.61439 0.0
C800 C 0.33306 0.13651 0.09217 0.0
C801 C 0.33936 0.11928 0.11234 0.0
C802 C 0.31489 0.17148 0.09056 0.0
C803 C 0.30197 0.19069 0.10904 0.0
H804 H 0.34308 0.12339 0.07744 0.0
H805 H 0.31158 0.18378 0.07466 0.0
S806 S 0.3085 0.15612 0.16565 0.0
N807 N 0.3292 0.12296 0.15114 0.0
N808 N 0.29485 0.18856 0.1482 0.0
C809 C 0.30689 0.17313 0.12931 0.0
C810 C 0.32564 0.13755 0.13093 0.0
C811 C 0.07504 0.08367 0.38178 0.0
C812 C 0.09963 0.0875 0.36401 0.0
C813 C 0.0403 0.06519 0.37979 0.0
C814 C 0.02858 0.04993 0.35993 0.0
H815 H 0.08213 0.09592 0.39726 0.0
H816 H 0.02193 0.0641 0.39379 0.0
S817 S 0.0842 0.04813 0.30907 0.0
N818 N 0.11103 0.07125 0.32629 0.0
N819 N 0.04569 0.0369 0.32263 0.0
C820 C 0.05353 0.05201 0.34228 0.0
C821 C 0.08902 0.07065 0.3443 0.0
C822 C 0.12611 0.8282 0.63158 0.0
C823 C 0.11998 0.85168 0.61356 0.0
C824 C 0.14566 0.794 0.62963 0.0
C825 C 0.15972 0.78166 0.60957 0.0
H826 H 0.11533 0.83595 0.64735 0.0
H827 H 0.14882 0.77665 0.64393 0.0
S828 S 0.1539 0.83375 0.55761 0.0
N829 N 0.13158 0.86093 0.57509 0.0
N830 N 0.1681 0.79665 0.5715 0.0
C831 C 0.15479 0.80529 0.59151 0.0
C832 C 0.13501 0.84025 0.59349 0.0
C833 C 0.42307 0.89785 0.88066 0.0
C834 C 0.43672 0.91106 0.86065 0.0
C835 C 0.38886 0.87826 0.88222 0.0
C836 C 0.36666 0.87122 0.86387 0.0
H837 H 0.4394 0.90168 0.89523 0.0
H838 H 0.38007 0.86817 0.89797 0.0
S839 S 0.38828 0.90254 0.80782 0.0
N840 N 0.42427 0.9176 0.82221 0.0
N841 N 0.36003 0.88098 0.82509 0.0
C842 C 0.37937 0.88542 0.84383 0.0
C843 C 0.41432 0.90526 0.84224 0.0
C844 C 0.31063 0.79711 0.33571 0.0
C845 C 0.29501 0.78529 0.35552 0.0
C846 C 0.32951 0.83176 0.3338 0.0
C847 C 0.33337 0.85616 0.35161 0.0
H848 H 0.30956 0.77886 0.32169 0.0
H849 H 0.34203 0.83892 0.31835 0.0
S850 S 0.29316 0.84044 0.40646 0.0
N851 N 0.28168 0.80214 0.39282 0.0
N852 N 0.31676 0.8673 0.38932 0.0
C853 C 0.31613 0.84548 0.37126 0.0
C854 C 0.29709 0.81008 0.3732 0.0
C855 C 0.38273 0.0887 0.62466 0.0
C856 C 0.36667 0.0961 0.60435 0.0
C857 C 0.41704 0.0695 0.62653 0.0
C858 C 0.43671 0.05666 0.60818 0.0
H859 H 0.36917 0.09854 0.63931 0.0
H860 H 0.42849 0.06539 0.64255 0.0
S861 S 0.40506 0.06588 0.55124 0.0
N862 N 0.37189 0.087 0.56551 0.0
N863 N 0.43623 0.05082 0.56896 0.0
C864 C 0.42029 0.0627 0.58776 0.0
C865 C 0.38539 0.08246 0.58587 0.0
C866 C 0.129 0.13935 0.83817 0.0
C867 C 0.11954 0.11835 0.85672 0.0
C868 C 0.14789 0.17397 0.83969 0.0
C869 C 0.15788 0.18929 0.85985 0.0
H870 H 0.12154 0.12916 0.82226 0.0
H871 H 0.15386 0.18922 0.8249 0.0
S872 S 0.14125 0.14487 0.91341 0.0
N873 N 0.12292 0.11489 0.89597 0.0
N874 N 0.15826 0.17999 0.89879 0.0
C875 C 0.14936 0.16825 0.87855 0.0
C876 C 0.13028 0.13283 0.87699 0.0
C877 C 0.0789 0.88527 0.08626 0.0
C878 C 0.10038 0.87751 0.1048 0.0
C879 C 0.04445 0.90445 0.08766 0.0
C880 C 0.02986 0.91647 0.10767 0.0
H881 H 0.08839 0.87595 0.0705 0.0
H882 H 0.02866 0.90886 0.07294 0.0
S883 S 0.07617 0.90574 0.16101 0.0
N884 N 0.10532 0.88537 0.1438 0.0
N885 N 0.04068 0.9212 0.14636 0.0
C886 C 0.05158 0.91002 0.12628 0.0
C887 C 0.08676 0.89063 0.12487 0.0
C888 C 0.64829 0.79439 0.87644 0.0
C889 C 0.65558 0.77168 0.85827 0.0
C890 C 0.62993 0.82923 0.87449 0.0
C891 C 0.6178 0.84283 0.8543 0.0
H892 H 0.65658 0.78514 0.89241 0.0
H893 H 0.62482 0.84535 0.88907 0.0
S894 S 0.63061 0.79461 0.8015 0.0
N895 N 0.64973 0.76567 0.81924 0.0
N896 N 0.6152 0.83101 0.8156 0.0
C897 C 0.62535 0.82066 0.83591 0.0
C898 C 0.64425 0.7852 0.83788 0.0
C899 C 0.92227 0.90311 0.58957 0.0
C900 C 0.93528 0.91565 0.60977 0.0
C901 C 0.888 0.8838 0.5876 0.0
C902 C 0.8651 0.8764 0.60573 0.0
H903 H 0.93912 0.90732 0.57514 0.0
H904 H 0.8797 0.87425 0.5717 0.0
S905 S 0.88501 0.90583 0.66219 0.0
N906 N 0.92161 0.92107 0.64817 0.0
N907 N 0.85721 0.88498 0.64454 0.0
C908 C 0.87722 0.88985 0.62598 0.0
C909 C 0.91226 0.90938 0.62798 0.0
C910 C 0.82324 0.18043 0.33669 0.0
C911 C 0.80548 0.19151 0.35602 0.0
C912 C 0.84261 0.14604 0.33517 0.0
C913 C 0.84485 0.12115 0.35289 0.0
H914 H 0.82309 0.1989 0.32273 0.0
H915 H 0.85634 0.13924 0.32002 0.0
S916 S 0.79996 0.13542 0.40663 0.0
N917 N 0.78927 0.17384 0.39286 0.0
N918 N 0.82534 0.1092 0.39007 0.0
C919 C 0.82609 0.13138 0.37213 0.0
C920 C 0.80653 0.16651 0.37368 0.0
C921 C 0.58053 0.0849 0.12084 0.0
C922 C 0.59395 0.10021 0.10127 0.0
C923 C 0.54612 0.06564 0.12193 0.0
C924 C 0.52366 0.06061 0.10348 0.0
H925 H 0.59644 0.0882 0.13561 0.0
H926 H 0.53695 0.05493 0.13748 0.0
S927 S 0.54634 0.09412 0.04803 0.0
N928 N 0.58231 0.10814 0.06279 0.0
N929 N 0.51773 0.07191 0.06484 0.0
C930 C 0.53705 0.07504 0.08367 0.0
C931 C 0.57209 0.09485 0.08257 0.0
C932 C 0.64934 0.17025 0.59366 0.0
C933 C 0.65724 0.19313 0.61166 0.0
C934 C 0.63066 0.13563 0.59595 0.0
C935 C 0.61881 0.12239 0.61633 0.0
H936 H 0.65724 0.17929 0.57755 0.0
H937 H 0.62495 0.11948 0.58148 0.0
S938 S 0.63389 0.17072 0.66883 0.0
N939 N 0.65275 0.1994 0.65076 0.0
N940 N 0.61759 0.1344 0.65503 0.0
C941 C 0.62719 0.14458 0.63456 0.0
C942 C 0.64642 0.17984 0.63224 0.0
C943 C 0.53396 0.89716 0.3777 0.0
C944 C 0.52205 0.91179 0.35771 0.0
C945 C 0.56845 0.87828 0.37973 0.0
C946 C 0.59264 0.87338 0.36188 0.0
H947 H 0.51618 0.89955 0.39189 0.0
H948 H 0.57592 0.86713 0.39543 0.0
S949 S 0.57585 0.90892 0.30619 0.0
N950 N 0.53806 0.92178 0.3199 0.0
N951 N 0.60284 0.88654 0.32365 0.0
C952 C 0.58149 0.88877 0.34188 0.0
C953 C 0.54626 0.90787 0.33981 0.0
C954 C 0.82051 0.79256 0.12928 0.0
C955 C 0.80701 0.77876 0.10946 0.0
C956 C 0.83993 0.82693 0.13054 0.0
C957 C 0.84653 0.84917 0.11204 0.0
H958 H 0.81681 0.77633 0.14398 0.0
H959 H 0.85009 0.83589 0.14619 0.0
S960 S 0.8148 0.82692 0.05632 0.0
N961 N 0.8001 0.79084 0.07099 0.0
N962 N 0.83643 0.85546 0.07329 0.0
C963 C 0.83234 0.83616 0.09215 0.0
C964 C 0.81267 0.801 0.09087 0.0
C965 C 0.91662 0.06262 0.84535 0.0
C966 C 0.93844 0.05456 0.86371 0.0
C967 C 0.88249 0.08222 0.84703 0.0
C968 C 0.86877 0.09489 0.86712 0.0
H969 H 0.92611 0.05411 0.82944 0.0
H970 H 0.86708 0.08794 0.83232 0.0
S971 S 0.91451 0.08006 0.92033 0.0
N972 N 0.9433 0.05998 0.90281 0.0
N973 N 0.87927 0.09686 0.90594 0.0
C974 C 0.88995 0.08645 0.8857 0.0
C975 C 0.92467 0.06625 0.884 0.0
C976 C 0.81462 0.67311 0.59119 0.0
C977 C 0.80178 0.69205 0.6098 0.0
C978 C 0.8339 0.63872 0.59263 0.0
C979 C 0.84142 0.62182 0.61274 0.0
H980 H 0.81033 0.68519 0.57531 0.0
H981 H 0.84365 0.62571 0.5778 0.0
S982 S 0.81163 0.65823 0.66637 0.0
N983 N 0.79634 0.6901 0.64903 0.0
N984 N 0.83267 0.62557 0.65167 0.0
C985 C 0.82791 0.63985 0.63147 0.0
C986 C 0.80805 0.67484 0.63002 0.0
C987 C 0.5813 0.57789 0.84641 0.0
C988 C 0.59488 0.58837 0.86688 0.0
C989 C 0.54687 0.55908 0.84411 0.0
C990 C 0.52459 0.54964 0.86217 0.0
H991 H 0.59694 0.585 0.83191 0.0
H992 H 0.53744 0.55244 0.82793 0.0
S993 S 0.54859 0.5683 0.91956 0.0
N994 N 0.5842 0.58615 0.90571 0.0
N995 N 0.51955 0.55069 0.90141 0.0
C996 C 0.5384 0.5588 0.88283 0.0
C997 C 0.57344 0.57821 0.88516 0.0
C998 C 0.62583 0.32943 0.13398 0.0
C999 C 0.62105 0.35375 0.11619 0.0
C1000 C 0.6452 0.29514 0.13195 0.0
C1001 C 0.66046 0.28354 0.11202 0.0
H1002 H 0.61402 0.33654 0.1496 0.0
H1003 H 0.64721 0.27712 0.14604 0.0
S1004 S 0.65866 0.33809 0.06078 0.0
N1005 N 0.63542 0.36468 0.07816 0.0
N1006 N 0.67159 0.30023 0.07441 0.0
C1007 C 0.65702 0.30808 0.09424 0.0
C1008 C 0.63742 0.34313 0.09631 0.0
C1009 C 0.88689 0.38434 0.38176 0.0
C1010 C 0.86435 0.37892 0.36336 0.0
C1011 C 0.92148 0.40335 0.38046 0.0
C1012 C 0.9351 0.41753 0.36067 0.0
H1013 H 0.87822 0.37314 0.39729 0.0
H1014 H 0.9382 0.40576 0.39498 0.0
S1015 S 0.88555 0.41425 0.30802 0.0
N1016 N 0.85717 0.39195 0.32491 0.0
N1017 N 0.92213 0.42738 0.32255 0.0
C1018 C 0.91226 0.41366 0.3423 0.0
C1019 C 0.87694 0.39448 0.34362 0.0
C1020 C 0.83093 0.32615 0.83541 0.0
C1021 C 0.83584 0.35047 0.85316 0.0
C1022 C 0.81259 0.2913 0.83766 0.0
C1023 C 0.79851 0.27914 0.85778 0.0
H1024 H 0.84205 0.33361 0.81966 0.0
H1025 H 0.81055 0.27327 0.82359 0.0
S1026 S 0.8004 0.3337 0.90895 0.0
N1027 N 0.82234 0.36099 0.89131 0.0
N1028 N 0.78813 0.29546 0.89548 0.0
C1029 C 0.80183 0.30376 0.8755 0.0
C1030 C 0.82039 0.33938 0.87321 0.0
C1031 C 0.91699 0.56751 0.12661 0.0
C1032 C 0.93647 0.55484 0.10814 0.0
C1033 C 0.88271 0.58679 0.12492 0.0
C1034 C 0.8665 0.59446 0.10468 0.0
H1035 H 0.92858 0.56321 0.14257 0.0
H1036 H 0.8693 0.59652 0.13963 0.0
S1037 S 0.90426 0.56464 0.05135 0.0
N1038 N 0.93559 0.54935 0.06891 0.0
N1039 N 0.87129 0.5857 0.06579 0.0
C1040 C 0.885 0.58095 0.08609 0.0
C1041 C 0.91987 0.5611 0.0878 0.0
C1042 C 0.6322 0.63995 0.33873 0.0
C1043 C 0.62211 0.61967 0.35744 0.0
C1044 C 0.6512 0.67459 0.34002 0.0
C1045 C 0.66075 0.69058 0.36008 0.0
H1046 H 0.6249 0.62935 0.32289 0.0
H1047 H 0.6575 0.68938 0.32512 0.0
S1048 S 0.64298 0.64786 0.414 0.0
N1049 N 0.62485 0.61744 0.39675 0.0
N1050 N 0.66042 0.6824 0.39912 0.0
C1051 C 0.65189 0.67007 0.37893 0.0
C1052 C 0.63264 0.63471 0.37762 0.0
C1053 C 0.5805 0.38772 0.62012 0.0
C1054 C 0.59525 0.37759 0.59981 0.0
C1055 C 0.54625 0.40701 0.622 0.0
C1056 C 0.52532 0.41728 0.60365 0.0
H1057 H 0.59505 0.37995 0.63481 0.0
H1058 H 0.53586 0.41332 0.63807 0.0
S1059 S 0.55302 0.40007 0.54655 0.0
N1060 N 0.58732 0.38118 0.56085 0.0
N1061 N 0.52302 0.41754 0.56433 0.0
C1062 C 0.54038 0.4085 0.58317 0.0
C1063 C 0.57524 0.3886 0.58126 0.0
C1064 C 0.12375 0.32415 0.33864 0.0
C1065 C 0.11697 0.34663 0.35699 0.0
C1066 C 0.14265 0.28956 0.34021 0.0
C1067 C 0.15545 0.27578 0.36021 0.0
H1068 H 0.1142 0.33314 0.32286 0.0
H1069 H 0.14661 0.27323 0.3256 0.0
S1070 S 0.14652 0.32435 0.41312 0.0
N1071 N 0.12584 0.35303 0.39582 0.0
N1072 N 0.16124 0.28803 0.39872 0.0
C1073 C 0.14948 0.2982 0.37867 0.0
C1074 C 0.13032 0.33357 0.37707 0.0
C1075 C 0.38249 0.38129 0.12427 0.0
C1076 C 0.36711 0.37467 0.10371 0.0
C1077 C 0.41655 0.40078 0.12673 0.0
C1078 C 0.43658 0.41476 0.10874 0.0
H1079 H 0.36854 0.37066 0.13863 0.0
H1080 H 0.42746 0.40435 0.14291 0.0
S1081 S 0.40672 0.40766 0.0514 0.0
N1082 N 0.37337 0.38551 0.06506 0.0
N1083 N 0.43723 0.42229 0.06962 0.0
C1084 C 0.42088 0.40937 0.08809 0.0
C1085 C 0.38627 0.38927 0.08559 0.0
C1086 C 0.3158 0.67349 0.83811 0.0
C1087 C 0.30277 0.68646 0.85828 0.0
C1088 C 0.33522 0.63921 0.83616 0.0
C1089 C 0.34221 0.61624 0.85428 0.0
H1090 H 0.31187 0.69038 0.82369 0.0
H1091 H 0.34509 0.6309 0.82029 0.0
S1092 S 0.31172 0.63613 0.91066 0.0
N1093 N 0.29665 0.67273 0.89664 0.0
N1094 N 0.33294 0.60833 0.89305 0.0
C1095 C 0.32834 0.62835 0.8745 0.0
C1096 C 0.30872 0.6634 0.87647 0.0
C1097 C 0.0388 0.57293 0.58636 0.0
C1098 C 0.02607 0.55727 0.60598 0.0
C1099 C 0.07309 0.59238 0.58504 0.0
C1100 C 0.09629 0.59683 0.60325 0.0
H1101 H 0.02166 0.57115 0.57196 0.0
H1102 H 0.08112 0.60448 0.56962 0.0
S1103 S 0.07746 0.55803 0.65808 0.0
N1104 N 0.04047 0.54539 0.64375 0.0
N1105 N 0.10499 0.58169 0.64132 0.0
C1106 C 0.08453 0.5801 0.62283 0.0
C1107 C 0.04946 0.56042 0.62418 0.0
C1108 C 0.12911 0.63521 0.09626 0.0
C1109 C 0.11924 0.62015 0.11656 0.0
C1110 C 0.14808 0.66977 0.09442 0.0
C1111 C 0.15825 0.69075 0.1128 0.0
H1112 H 0.12156 0.62055 0.08155 0.0
H1113 H 0.15436 0.68027 0.07836 0.0
S1114 S 0.14107 0.6627 0.16988 0.0
N1115 N 0.12258 0.62815 0.15554 0.0
N1116 N 0.15828 0.69298 0.15213 0.0
C1117 C 0.14944 0.67554 0.13326 0.0
C1118 C 0.12992 0.64036 0.13513 0.0
C1119 C 0.07126 0.38335 0.87833 0.0
C1120 C 0.09072 0.3694 0.86019 0.0
C1121 C 0.03706 0.40264 0.87616 0.0
C1122 C 0.02064 0.4086 0.85576 0.0
H1123 H 0.08251 0.37943 0.89441 0.0
H1124 H 0.02318 0.41248 0.89071 0.0
S1125 S 0.06024 0.3776 0.80303 0.0
N1126 N 0.0911 0.36297 0.82105 0.0
N1127 N 0.02686 0.39908 0.81696 0.0
C1128 C 0.03998 0.39504 0.83743 0.0
C1129 C 0.07494 0.37551 0.83964 0.0
C1130 C 0.3174 0.29481 0.62938 0.0
C1131 C 0.30335 0.28154 0.60955 0.0
C1132 C 0.33671 0.32924 0.63077 0.0
C1133 C 0.34262 0.35206 0.61243 0.0
H1134 H 0.31436 0.27804 0.64392 0.0
H1135 H 0.34744 0.33776 0.64638 0.0
S1136 S 0.30896 0.33147 0.55686 0.0
N1137 N 0.29495 0.29487 0.57133 0.0
N1138 N 0.33104 0.35957 0.57388 0.0
C1139 C 0.32768 0.33966 0.59258 0.0
C1140 C 0.30814 0.30447 0.59116 0.0
C1141 C 0.42135 0.57423 0.38088 0.0
C1142 C 0.43634 0.56183 0.36104 0.0
C1143 C 0.38723 0.59403 0.38189 0.0
C1144 C 0.36646 0.60209 0.36311 0.0
H1145 H 0.43641 0.56931 0.39579 0.0
H1146 H 0.37721 0.60319 0.39757 0.0
S1147 S 0.39245 0.57438 0.30712 0.0
N1148 N 0.42702 0.55798 0.32216 0.0
N1149 N 0.36302 0.59507 0.32404 0.0
C1150 C 0.38072 0.58916 0.34318 0.0
C1151 C 0.41556 0.5691 0.34214 0.0
loop_
_geom_bond_atom_site_label_1
_geom_bond_atom_site_label_2
_geom_bond_distance
_geom_bond_site_symmetry_2
_ccdc_geom_bond_type
C0 O1 1.306 . S
C0 O3 1.160 . S
O1 C0 1.306 . S
O1 Cd2 2.228 . S
Cd2 O1 2.228 . S
Cd2 O6 2.273 . S
Cd2 O10 2.277 . S
O3 C0 1.160 . S
O3 Cd4 2.203 . S
Cd4 O3 2.203 . S
Cd4 O6 2.411 . S
Cd4 O7 2.333 . S
Cd4 O8 2.352 . S
Cd4 O12 2.277 . S
Cd4 O13 2.356 . S
C5 O10 1.209 . S
C5 O12 1.226 . S
O6 Cd2 2.273 . S
O6 Cd4 2.411 . S
O6 C9 1.322 . S
O7 Cd4 2.333 . S
O7 C9 1.218 . S
O8 Cd4 2.352 . S
O8 C11 1.258 . S
C9 O6 1.322 . S
C9 O7 1.218 . S
O10 Cd2 2.277 . S
O10 C5 1.209 . S
C11 O8 1.258 . S
C11 O13 1.282 . S
O12 Cd4 2.277 . S
O12 C5 1.226 . S
O13 Cd4 2.356 . S
O13 C11 1.282 . S
C14 O15 1.306 . S
C14 O17 1.160 . S
O15 C14 1.306 . S
O15 Cd16 2.228 . S
Cd16 O15 2.228 . S
Cd16 O20 2.273 . S
Cd16 O24 2.277 . S
O17 C14 1.160 . S
O17 Cd18 2.203 . S
Cd18 O17 2.203 . S
Cd18 O20 2.411 . S
Cd18 O21 2.333 . S
Cd18 O22 2.352 . S
Cd18 O26 2.277 . S
Cd18 O27 2.356 . S
C19 O24 1.209 . S
C19 O26 1.226 . S
O20 Cd16 2.273 . S
O20 Cd18 2.411 . S
O20 C23 1.320 . S
O21 Cd18 2.333 . S
O21 C23 1.214 . S
O22 Cd18 2.352 . S
O22 C25 1.258 . S
C23 O20 1.320 . S
C23 O21 1.214 . S
O24 Cd16 2.277 . S
O24 C19 1.209 . S
C25 O22 1.258 . S
C25 O27 1.282 . S
O26 Cd18 2.277 . S
O26 C19 1.226 . S
O27 Cd18 2.356 . S
O27 C25 1.282 . S
C28 O29 1.306 . S
C28 O31 1.160 . S
O29 C28 1.306 . S
O29 Cd30 2.228 . S
Cd30 O29 2.228 . S
Cd30 O34 2.273 . S
Cd30 O38 2.277 . S
O31 C28 1.160 . S
O31 Cd32 2.203 . S
Cd32 O31 2.203 . S
Cd32 O34 2.411 . S
Cd32 O35 2.333 . S
Cd32 O36 2.352 . S
Cd32 O40 2.277 . S
Cd32 O41 2.356 . S
C33 O38 1.209 . S
C33 O40 1.226 . S
O34 Cd30 2.273 . S
O34 Cd32 2.411 . S
O34 C37 1.321 . S
O35 Cd32 2.333 . S
O35 C37 1.218 . S
O36 Cd32 2.352 . S
O36 C39 1.258 . S
C37 O34 1.321 . S
C37 O35 1.218 . S
O38 Cd30 2.277 . S
O38 C33 1.209 . S
C39 O36 1.258 . S
C39 O41 1.282 . S
O40 Cd32 2.277 . S
O40 C33 1.226 . S
O41 Cd32 2.356 . S
O41 C39 1.282 . S
C42 O43 1.306 . S
C42 O45 1.160 . S
O43 C42 1.306 . S
O43 Cd44 2.228 . S
Cd44 O43 2.228 . S
Cd44 O48 2.273 . S
Cd44 O52 2.277 . S
O45 C42 1.160 . S
O45 Cd46 2.203 . S
Cd46 O45 2.203 . S
Cd46 O48 2.411 . S
Cd46 O49 2.333 . S
Cd46 O50 2.352 . S
Cd46 O54 2.277 . S
Cd46 O55 2.356 . S
C47 O52 1.209 . S
C47 O54 1.226 . S
O48 Cd44 2.273 . S
O48 Cd46 2.411 . S
O48 C51 1.320 . S
O49 Cd46 2.333 . S
O49 C51 1.214 . S
O50 Cd46 2.352 . S
O50 C53 1.258 . S
C51 O48 1.320 . S
C51 O49 1.214 . S
O52 Cd44 2.277 . S
O52 C47 1.209 . S
C53 O50 1.258 . S
C53 O55 1.282 . S
O54 Cd46 2.277 . S
O54 C47 1.226 . S
O55 Cd46 2.356 . S
O55 C53 1.282 . S
C56 O57 1.306 . S
C56 O59 1.160 . S
O57 C56 1.306 . S
O57 Cd58 2.228 . S
Cd58 O57 2.228 . S
Cd58 O62 2.273 . S
Cd58 O66 2.277 . S
O59 C56 1.160 . S
O59 Cd60 2.203 . S
Cd60 O59 2.203 . S
Cd60 O62 2.411 . S
Cd60 O63 2.333 . S
Cd60 O64 2.352 . S
Cd60 O68 2.277 . S
Cd60 O69 2.356 . S
C61 O66 1.209 . S
C61 O68 1.226 . S
O62 Cd58 2.273 . S
O62 Cd60 2.411 . S
O62 C65 1.322 . S
O63 Cd60 2.333 . S
O63 C65 1.218 . S
O64 Cd60 2.352 . S
O64 C67 1.258 . S
C65 O62 1.322 . S
C65 O63 1.218 . S
O66 Cd58 2.277 . S
O66 C61 1.209 . S
C67 O64 1.258 . S
C67 O69 1.282 . S
O68 Cd60 2.277 . S
O68 C61 1.226 . S
O69 Cd60 2.356 . S
O69 C67 1.282 . S
C70 O71 1.306 . S
C70 O73 1.160 . S
O71 C70 1.306 . S
O71 Cd72 2.228 . S
Cd72 O71 2.228 . S
Cd72 O76 2.273 . S
Cd72 O80 2.277 . S
O73 C70 1.160 . S
O73 Cd74 2.203 . S
Cd74 O73 2.203 . S
Cd74 O76 2.411 . S
Cd74 O77 2.333 . S
Cd74 O78 2.352 . S
Cd74 O82 2.277 . S
Cd74 O83 2.356 . S
C75 O80 1.209 . S
C75 O82 1.226 . S
O76 Cd72 2.273 . S
O76 Cd74 2.411 . S
O76 C79 1.320 . S
O77 Cd74 2.333 . S
O77 C79 1.214 . S
O78 Cd74 2.352 . S
O78 C81 1.258 . S
C79 O76 1.320 . S
C79 O77 1.214 . S
O80 Cd72 2.277 . S
O80 C75 1.209 . S
C81 O78 1.258 . S
C81 O83 1.282 . S
O82 Cd74 2.277 . S
O82 C75 1.226 . S
O83 Cd74 2.356 . S
O83 C81 1.282 . S
C84 O85 1.306 . S
C84 O87 1.160 . S
O85 C84 1.306 . S
O85 Cd86 2.228 . S
Cd86 O85 2.228 . S
Cd86 O90 2.273 . S
Cd86 O94 2.277 . S
O87 C84 1.160 . S
O87 Cd88 2.203 . S
Cd88 O87 2.203 . S
Cd88 O90 2.411 . S
Cd88 O91 2.333 . S
Cd88 O92 2.352 . S
Cd88 O96 2.277 . S
Cd88 O97 2.356 . S
C89 O94 1.209 . S
C89 O96 1.226 . S
O90 Cd86 2.273 . S
O90 Cd88 2.411 . S
O90 C93 1.321 . S
O91 Cd88 2.333 . S
O91 C93 1.217 . S
O92 Cd88 2.352 . S
O92 C95 1.258 . S
C93 O90 1.321 . S
C93 O91 1.217 . S
O94 Cd86 2.277 . S
O94 C89 1.209 . S
C95 O92 1.258 . S
C95 O97 1.282 . S
O96 Cd88 2.277 . S
O96 C89 1.226 . S
O97 Cd88 2.356 . S
O97 C95 1.282 . S
C98 O99 1.306 . S
C98 O101 1.160 . S
O99 C98 1.306 . S
O99 Cd100 2.228 . S
Cd100 O99 2.228 . S
Cd100 O104 2.273 . S
Cd100 O108 2.277 . S
O101 C98 1.160 . S
O101 Cd102 2.203 . S
Cd102 O101 2.203 . S
Cd102 O104 2.411 . S
Cd102 O105 2.333 . S
Cd102 O106 2.352 . S
Cd102 O110 2.277 . S
Cd102 O111 2.356 . S
C103 O108 1.209 . S
C103 O110 1.226 . S
O104 Cd100 2.273 . S
O104 Cd102 2.411 . S
O104 C107 1.320 . S
O105 Cd102 2.333 . S
O105 C107 1.214 . S
O106 Cd102 2.352 . S
O106 C109 1.258 . S
C107 O104 1.320 . S
C107 O105 1.214 . S
O108 Cd100 2.277 . S
O108 C103 1.209 . S
C109 O106 1.258 . S
C109 O111 1.282 . S
O110 Cd102 2.277 . S
O110 C103 1.226 . S
O111 Cd102 2.356 . S
O111 C109 1.282 . S
C112 O113 1.306 . S
C112 O115 1.160 . S
O113 C112 1.306 . S
O113 Cd114 2.228 . S
Cd114 O113 2.228 . S
Cd114 O118 2.273 . S
Cd114 O122 2.277 . S
O115 C112 1.160 . S
O115 Cd116 2.203 . S
Cd116 O115 2.203 . S
Cd116 O118 2.411 . S
Cd116 O119 2.333 . S
Cd116 O120 2.352 . S
Cd116 O124 2.277 . S
Cd116 O125 2.356 . S
C117 O122 1.209 . S
C117 O124 1.226 . S
O118 Cd114 2.273 . S
O118 Cd116 2.411 . S
O118 C121 1.322 . S
O119 Cd116 2.333 . S
O119 C121 1.218 . S
O120 Cd116 2.352 . S
O120 C123 1.258 . S
C121 O118 1.322 . S
C121 O119 1.218 . S
O122 Cd114 2.277 . S
O122 C117 1.209 . S
C123 O120 1.258 . S
C123 O125 1.282 . S
O124 Cd116 2.277 . S
O124 C117 1.226 . S
O125 Cd116 2.356 . S
O125 C123 1.282 . S
C126 O127 1.306 . S
C126 O129 1.160 . S
O127 C126 1.306 . S
O127 Cd128 2.228 . S
Cd128 O127 2.228 . S
Cd128 O132 2.273 . S
Cd128 O136 2.277 . S
O129 C126 1.160 . S
O129 Cd130 2.203 . S
Cd130 O129 2.203 . S
Cd130 O132 2.411 . S
Cd130 O133 2.333 . S
Cd130 O134 2.352 . S
Cd130 O138 2.277 . S
Cd130 O139 2.356 . S
C131 O136 1.209 . S
C131 O138 1.226 . S
O132 Cd128 2.273 . S
O132 Cd130 2.411 . S
O132 C135 1.320 . S
O133 Cd130 2.333 . S
O133 C135 1.214 . S
O134 Cd130 2.352 . S
O134 C137 1.258 . S
C135 O132 1.320 . S
C135 O133 1.214 . S
O136 Cd128 2.277 . S
O136 C131 1.209 . S
C137 O134 1.258 . S
C137 O139 1.282 . S
O138 Cd130 2.277 . S
O138 C131 1.226 . S
O139 Cd130 2.356 . S
O139 C137 1.282 . S
C140 O141 1.306 . S
C140 O143 1.160 . S
O141 C140 1.306 . S
O141 Cd142 2.228 . S
Cd142 O141 2.228 . S
Cd142 O146 2.273 . S
Cd142 O150 2.277 . S
O143 C140 1.160 . S
O143 Cd144 2.203 . S
Cd144 O143 2.203 . S
Cd144 O146 2.411 . S
Cd144 O147 2.333 . S
Cd144 O148 2.352 . S
Cd144 O152 2.277 . S
Cd144 O153 2.356 . S
C145 O150 1.209 . S
C145 O152 1.226 . S
O146 Cd142 2.273 . S
O146 Cd144 2.411 . S
O146 C149 1.321 . S
O147 Cd144 2.333 . S
O147 C149 1.218 . S
O148 Cd144 2.352 . S
O148 C151 1.258 . S
C149 O146 1.321 . S
C149 O147 1.218 . S
O150 Cd142 2.277 . S
O150 C145 1.209 . S
C151 O148 1.258 . S
C151 O153 1.282 . S
O152 Cd144 2.277 . S
O152 C145 1.226 . S
O153 Cd144 2.356 . S
O153 C151 1.282 . S
C154 O155 1.306 . S
C154 O157 1.160 . S
O155 C154 1.306 . S
O155 Cd156 2.228 . S
Cd156 O155 2.228 . S
Cd156 O160 2.273 . S
Cd156 O164 2.277 . S
O157 C154 1.160 . S
O157 Cd158 2.203 . S
Cd158 O157 2.203 . S
Cd158 O160 2.411 . S
Cd158 O161 2.333 . S
Cd158 O162 2.352 . S
Cd158 O166 2.277 . S
Cd158 O167 2.356 . S
C159 O164 1.209 . S
C159 O166 1.226 . S
O160 Cd156 2.273 . S
O160 Cd158 2.411 . S
O160 C163 1.320 . S
O161 Cd158 2.333 . S
O161 C163 1.214 . S
O162 Cd158 2.352 . S
O162 C165 1.258 . S
C163 O160 1.320 . S
C163 O161 1.214 . S
O164 Cd156 2.277 . S
O164 C159 1.209 . S
C165 O162 1.258 . S
C165 O167 1.282 . S
O166 Cd158 2.277 . S
O166 C159 1.226 . S
O167 Cd158 2.356 . S
O167 C165 1.282 . S
C168 O169 1.306 . S
C168 O171 1.160 . S
O169 C168 1.306 . S
O169 Cd170 2.228 . S
Cd170 O169 2.228 . S
Cd170 O174 2.273 . S
Cd170 O178 2.277 . S
O171 C168 1.160 . S
O171 Cd172 2.203 . S
Cd172 O171 2.203 . S
Cd172 O174 2.411 . S
Cd172 O175 2.333 . S
Cd172 O176 2.352 . S
Cd172 O180 2.277 . S
Cd172 O181 2.356 . S
C173 O178 1.209 . S
C173 O180 1.226 . S
O174 Cd170 2.273 . S
O174 Cd172 2.411 . S
O174 C177 1.322 . S
O175 Cd172 2.333 . S
O175 C177 1.218 . S
O176 Cd172 2.352 . S
O176 C179 1.258 . S
C177 O174 1.322 . S
C177 O175 1.218 . S
O178 Cd170 2.277 . S
O178 C173 1.209 . S
C179 O176 1.258 . S
C179 O181 1.282 . S
O180 Cd172 2.277 . S
O180 C173 1.226 . S
O181 Cd172 2.356 . S
O181 C179 1.282 . S
C182 O183 1.306 . S
C182 O185 1.160 . S
O183 C182 1.306 . S
O183 Cd184 2.228 . S
Cd184 O183 2.228 . S
Cd184 O188 2.273 . S
Cd184 O192 2.277 . S
O185 C182 1.160 . S
O185 Cd186 2.203 . S
Cd186 O185 2.203 . S
Cd186 O188 2.411 . S
Cd186 O189 2.333 . S
Cd186 O190 2.352 . S
Cd186 O194 2.277 . S
Cd186 O195 2.356 . S
C187 O192 1.209 . S
C187 O194 1.226 . S
O188 Cd184 2.273 . S
O188 Cd186 2.411 . S
O188 C191 1.320 . S
O189 Cd186 2.333 . S
O189 C191 1.214 . S
O190 Cd186 2.352 . S
O190 C193 1.258 . S
C191 O188 1.320 . S
C191 O189 1.214 . S
O192 Cd184 2.277 . S
O192 C187 1.209 . S
C193 O190 1.258 . S
C193 O195 1.282 . S
O194 Cd186 2.277 . S
O194 C187 1.226 . S
O195 Cd186 2.356 . S
O195 C193 1.282 . S
C196 O197 1.306 . S
C196 O199 1.160 . S
O197 C196 1.306 . S
O197 Cd198 2.228 . S
Cd198 O197 2.228 . S
Cd198 O202 2.273 . S
Cd198 O206 2.277 . S
O199 C196 1.160 . S
O199 Cd200 2.203 . S
Cd200 O199 2.203 . S
Cd200 O202 2.411 . S
Cd200 O203 2.333 . S
Cd200 O204 2.352 . S
Cd200 O208 2.277 . S
Cd200 O209 2.356 . S
C201 O206 1.209 . S
C201 O208 1.226 . S
O202 Cd198 2.273 . S
O202 Cd200 2.411 . S
O202 C205 1.321 . S
O203 Cd200 2.333 . S
O203 C205 1.217 . S
O204 Cd200 2.352 . S
O204 C207 1.258 . S
C205 O202 1.321 . S
C205 O203 1.217 . S
O206 Cd198 2.277 . S
O206 C201 1.209 . S
C207 O204 1.258 . S
C207 O209 1.282 . S
O208 Cd200 2.277 . S
O208 C201 1.226 . S
O209 Cd200 2.356 . S
O209 C207 1.282 . S
C210 O211 1.306 . S
C210 O213 1.160 . S
O211 C210 1.306 . S
O211 Cd212 2.228 . S
Cd212 O211 2.228 . S
Cd212 O216 2.273 . S
Cd212 O220 2.277 . S
O213 C210 1.160 . S
O213 Cd214 2.203 . S
Cd214 O213 2.203 . S
Cd214 O216 2.411 . S
Cd214 O217 2.333 . S
Cd214 O218 2.352 . S
Cd214 O222 2.277 . S
Cd214 O223 2.356 . S
C215 O220 1.209 . S
C215 O222 1.226 . S
O216 Cd212 2.273 . S
O216 Cd214 2.411 . S
O216 C219 1.320 . S
O217 Cd214 2.333 . S
O217 C219 1.214 . S
O218 Cd214 2.352 . S
O218 C221 1.258 . S
C219 O216 1.320 . S
C219 O217 1.214 . S
O220 Cd212 2.277 . S
O220 C215 1.209 . S
C221 O218 1.258 . S
C221 O223 1.282 . S
O222 Cd214 2.277 . S
O222 C215 1.226 . S
O223 Cd214 2.356 . S
O223 C221 1.282 . S
C224 O225 1.306 . S
C224 O227 1.160 . S
O225 C224 1.306 . S
O225 Cd226 2.228 . S
Cd226 O225 2.228 . S
Cd226 O230 2.273 . S
Cd226 O234 2.277 . S
O227 C224 1.160 . S
O227 Cd228 2.203 . S
Cd228 O227 2.203 . S
Cd228 O230 2.411 . S
Cd228 O231 2.333 . S
Cd228 O232 2.352 . S
Cd228 O236 2.277 . S
Cd228 O237 2.356 . S
C229 O234 1.209 . S
C229 O236 1.226 . S
O230 Cd226 2.273 . S
O230 Cd228 2.411 . S
O230 C233 1.320 . S
O231 Cd228 2.333 . S
O231 C233 1.214 . S
O232 Cd228 2.352 . S
O232 C235 1.258 . S
C233 O230 1.320 . S
C233 O231 1.214 . S
O234 Cd226 2.277 . S
O234 C229 1.209 . S
C235 O232 1.258 . S
C235 O237 1.282 . S
O236 Cd228 2.277 . S
O236 C229 1.226 . S
O237 Cd228 2.356 . S
O237 C235 1.282 . S
C238 O239 1.306 . S
C238 O241 1.160 . S
O239 C238 1.306 . S
O239 Cd240 2.228 . S
Cd240 O239 2.228 . S
Cd240 O244 2.273 . S
Cd240 O248 2.277 . S
O241 C238 1.160 . S
O241 Cd242 2.203 . S
Cd242 O241 2.203 . S
Cd242 O244 2.411 . S
Cd242 O245 2.333 . S
Cd242 O246 2.352 . S
Cd242 O250 2.277 . S
Cd242 O251 2.356 . S
C243 O248 1.209 . S
C243 O250 1.226 . S
O244 Cd240 2.273 . S
O244 Cd242 2.411 . S
O244 C247 1.320 . S
O245 Cd242 2.333 . S
O245 C247 1.214 . S
O246 Cd242 2.352 . S
O246 C249 1.258 . S
C247 O244 1.320 . S
C247 O245 1.214 . S
O248 Cd240 2.277 . S
O248 C243 1.209 . S
C249 O246 1.258 . S
C249 O251 1.282 . S
O250 Cd242 2.277 . S
O250 C243 1.226 . S
O251 Cd242 2.356 . S
O251 C249 1.282 . S
C252 O253 1.306 . S
C252 O255 1.160 . S
O253 C252 1.306 . S
O253 Cd254 2.228 . S
Cd254 O253 2.228 . S
Cd254 O258 2.273 . S
Cd254 O262 2.277 . S
O255 C252 1.160 . S
O255 Cd256 2.203 . S
Cd256 O255 2.203 . S
Cd256 O258 2.411 . S
Cd256 O259 2.333 . S
Cd256 O260 2.352 . S
Cd256 O264 2.277 . S
Cd256 O265 2.356 . S
C257 O262 1.209 . S
C257 O264 1.226 . S
O258 Cd254 2.273 . S
O258 Cd256 2.411 . S
O258 C261 1.320 . S
O259 Cd256 2.333 . S
O259 C261 1.214 . S
O260 Cd256 2.352 . S
O260 C263 1.258 . S
C261 O258 1.320 . S
C261 O259 1.214 . S
O262 Cd254 2.277 . S
O262 C257 1.209 . S
C263 O260 1.258 . S
C263 O265 1.282 . S
O264 Cd256 2.277 . S
O264 C257 1.226 . S
O265 Cd256 2.356 . S
O265 C263 1.282 . S
C266 O267 1.306 . S
C266 O269 1.160 . S
O267 C266 1.306 . S
O267 Cd268 2.228 . S
Cd268 O267 2.228 . S
Cd268 O272 2.273 . S
Cd268 O276 2.277 . S
O269 C266 1.160 . S
O269 Cd270 2.203 . S
Cd270 O269 2.203 . S
Cd270 O272 2.411 . S
Cd270 O273 2.333 . S
Cd270 O274 2.352 . S
Cd270 O278 2.277 . S
Cd270 O279 2.356 . S
C271 O276 1.209 . S
C271 O278 1.226 . S
O272 Cd268 2.273 . S
O272 Cd270 2.411 . S
O272 C275 1.320 . S
O273 Cd270 2.333 . S
O273 C275 1.214 . S
O274 Cd270 2.352 . S
O274 C277 1.258 . S
C275 O272 1.320 . S
C275 O273 1.214 . S
O276 Cd268 2.277 . S
O276 C271 1.209 . S
C277 O274 1.258 . S
C277 O279 1.282 . S
O278 Cd270 2.277 . S
O278 C271 1.226 . S
O279 Cd270 2.356 . S
O279 C277 1.282 . S
C280 O281 1.306 . S
C280 O283 1.160 . S
O281 C280 1.306 . S
O281 Cd282 2.228 . S
Cd282 O281 2.228 . S
Cd282 O286 2.273 . S
Cd282 O290 2.277 . S
O283 C280 1.160 . S
O283 Cd284 2.203 . S
Cd284 O283 2.203 . S
Cd284 O286 2.411 . S
Cd284 O287 2.333 . S
Cd284 O288 2.352 . S
Cd284 O292 2.277 . S
Cd284 O293 2.356 . S
C285 O290 1.209 . S
C285 O292 1.226 . S
O286 Cd282 2.273 . S
O286 Cd284 2.411 . S
O286 C289 1.320 . S
O287 Cd284 2.333 . S
O287 C289 1.214 . S
O288 Cd284 2.352 . S
O288 C291 1.258 . S
C289 O286 1.320 . S
C289 O287 1.214 . S
O290 Cd282 2.277 . S
O290 C285 1.209 . S
C291 O288 1.258 . S
C291 O293 1.282 . S
O292 Cd284 2.277 . S
O292 C285 1.226 . S
O293 Cd284 2.356 . S
O293 C291 1.282 . S
C294 O295 1.306 . S
C294 O297 1.160 . S
O295 C294 1.306 . S
O295 Cd296 2.228 . S
Cd296 O295 2.228 . S
Cd296 O300 2.273 . S
Cd296 O304 2.277 . S
O297 C294 1.160 . S
O297 Cd298 2.203 . S
Cd298 O297 2.203 . S
Cd298 O300 2.411 . S
Cd298 O301 2.333 . S
Cd298 O302 2.352 . S
Cd298 O306 2.277 . S
Cd298 O307 2.356 . S
C299 O304 1.209 . S
C299 O306 1.226 . S
O300 Cd296 2.273 . S
O300 Cd298 2.411 . S
O300 C303 1.320 . S
O301 Cd298 2.333 . S
O301 C303 1.214 . S
O302 Cd298 2.352 . S
O302 C305 1.258 . S
C303 O300 1.320 . S
C303 O301 1.214 . S
O304 Cd296 2.277 . S
O304 C299 1.209 . S
C305 O302 1.258 . S
C305 O307 1.282 . S
O306 Cd298 2.277 . S
O306 C299 1.226 . S
O307 Cd298 2.356 . S
O307 C305 1.282 . S
C308 O309 1.306 . S
C308 O311 1.160 . S
O309 C308 1.306 . S
O309 Cd310 2.228 . S
Cd310 O309 2.228 . S
Cd310 O314 2.273 . S
Cd310 O318 2.277 . S
O311 C308 1.160 . S
O311 Cd312 2.203 . S
Cd312 O311 2.203 . S
Cd312 O314 2.411 . S
Cd312 O315 2.333 . S
Cd312 O316 2.352 . S
Cd312 O320 2.277 . S
Cd312 O321 2.356 . S
C313 O318 1.209 . S
C313 O320 1.226 . S
O314 Cd310 2.273 . S
O314 Cd312 2.411 . S
O314 C317 1.320 . S
O315 Cd312 2.333 . S
O315 C317 1.214 . S
O316 Cd312 2.352 . S
O316 C319 1.258 . S
C317 O314 1.320 . S
C317 O315 1.214 . S
O318 Cd310 2.277 . S
O318 C313 1.209 . S
C319 O316 1.258 . S
C319 O321 1.282 . S
O320 Cd312 2.277 . S
O320 C313 1.226 . S
O321 Cd312 2.356 . S
O321 C319 1.282 . S
C322 O323 1.306 . S
C322 O325 1.160 . S
O323 C322 1.306 . S
O323 Cd324 2.228 . S
Cd324 O323 2.228 . S
Cd324 O328 2.273 . S
Cd324 O332 2.277 . S
O325 C322 1.160 . S
O325 Cd326 2.203 . S
Cd326 O325 2.203 . S
Cd326 O328 2.411 . S
Cd326 O329 2.333 . S
Cd326 O330 2.352 . S
Cd326 O334 2.277 . S
Cd326 O335 2.356 . S
C327 O332 1.209 . S
C327 O334 1.226 . S
O328 Cd324 2.273 . S
O328 Cd326 2.411 . S
O328 C331 1.320 . S
O329 Cd326 2.333 . S
O329 C331 1.214 . S
O330 Cd326 2.352 . S
O330 C333 1.258 . S
C331 O328 1.320 . S
C331 O329 1.214 . S
O332 Cd324 2.277 . S
O332 C327 1.209 . S
C333 O330 1.258 . S
C333 O335 1.282 . S
O334 Cd326 2.277 . S
O334 C327 1.226 . S
O335 Cd326 2.356 . S
O335 C333 1.282 . S
C336 O337 1.306 . S
C336 O339 1.160 . S
O337 C336 1.306 . S
O337 Cd338 2.228 . S
Cd338 O337 2.228 . S
Cd338 O342 2.273 . S
Cd338 O346 2.277 . S
O339 C336 1.160 . S
O339 Cd340 2.203 . S
Cd340 O339 2.203 . S
Cd340 O342 2.411 . S
Cd340 O343 2.333 . S
Cd340 O344 2.352 . S
Cd340 O348 2.277 . S
Cd340 O349 2.356 . S
C341 O346 1.209 . S
C341 O348 1.226 . S
O342 Cd338 2.273 . S
O342 Cd340 2.411 . S
O342 C345 1.320 . S
O343 Cd340 2.333 . S
O343 C345 1.214 . S
O344 Cd340 2.352 . S
O344 C347 1.258 . S
C345 O342 1.320 . S
C345 O343 1.214 . S
O346 Cd338 2.277 . S
O346 C341 1.209 . S
C347 O344 1.258 . S
C347 O349 1.282 . S
O348 Cd340 2.277 . S
O348 C341 1.226 . S
O349 Cd340 2.356 . S
O349 C347 1.282 . S
C350 O351 1.306 . S
C350 O353 1.160 . S
O351 C350 1.306 . S
O351 Cd352 2.228 . S
Cd352 O351 2.228 . S
Cd352 O356 2.273 . S
Cd352 O360 2.277 . S
O353 C350 1.160 . S
O353 Cd354 2.203 . S
Cd354 O353 2.203 . S
Cd354 O356 2.411 . S
Cd354 O357 2.333 . S
Cd354 O358 2.352 . S
Cd354 O362 2.277 . S
Cd354 O363 2.356 . S
C355 O360 1.209 . S
C355 O362 1.226 . S
O356 Cd352 2.273 . S
O356 Cd354 2.411 . S
O356 C359 1.320 . S
O357 Cd354 2.333 . S
O357 C359 1.214 . S
O358 Cd354 2.352 . S
O358 C361 1.258 . S
C359 O356 1.320 . S
C359 O357 1.214 . S
O360 Cd352 2.277 . S
O360 C355 1.209 . S
C361 O358 1.258 . S
C361 O363 1.282 . S
O362 Cd354 2.277 . S
O362 C355 1.226 . S
O363 Cd354 2.356 . S
O363 C361 1.282 . S
C364 O365 1.306 . S
C364 O367 1.160 . S
O365 C364 1.306 . S
O365 Cd366 2.228 . S
Cd366 O365 2.228 . S
Cd366 O370 2.273 . S
Cd366 O374 2.277 . S
O367 C364 1.160 . S
O367 Cd368 2.203 . S
Cd368 O367 2.203 . S
Cd368 O370 2.411 . S
Cd368 O371 2.333 . S
Cd368 O372 2.352 . S
Cd368 O376 2.277 . S
Cd368 O377 2.356 . S
C369 O374 1.209 . S
C369 O376 1.226 . S
O370 Cd366 2.273 . S
O370 Cd368 2.411 . S
O370 C373 1.320 . S
O371 Cd368 2.333 . S
O371 C373 1.214 . S
O372 Cd368 2.352 . S
O372 C375 1.258 . S
C373 O370 1.320 . S
C373 O371 1.214 . S
O374 Cd366 2.277 . S
O374 C369 1.209 . S
C375 O372 1.258 . S
C375 O377 1.282 . S
O376 Cd368 2.277 . S
O376 C369 1.226 . S
O377 Cd368 2.356 . S
O377 C375 1.282 . S
C378 O379 1.306 . S
C378 O381 1.160 . S
O379 C378 1.306 . S
O379 Cd380 2.228 . S
Cd380 O379 2.228 . S
Cd380 O384 2.273 . S
Cd380 O388 2.277 . S
O381 C378 1.160 . S
O381 Cd382 2.203 . S
Cd382 O381 2.203 . S
Cd382 O384 2.411 . S
Cd382 O385 2.333 . S
Cd382 O386 2.352 . S
Cd382 O390 2.277 . S
Cd382 O391 2.356 . S
C383 O388 1.209 . S
C383 O390 1.226 . S
O384 Cd380 2.273 . S
O384 Cd382 2.411 . S
O384 C387 1.320 . S
O385 Cd382 2.333 . S
O385 C387 1.214 . S
O386 Cd382 2.352 . S
O386 C389 1.258 . S
C387 O384 1.320 . S
C387 O385 1.214 . S
O388 Cd380 2.277 . S
O388 C383 1.209 . S
C389 O386 1.258 . S
C389 O391 1.282 . S
O390 Cd382 2.277 . S
O390 C383 1.226 . S
O391 Cd382 2.356 . S
O391 C389 1.282 . S
C392 O393 1.306 . S
C392 O395 1.160 . S
O393 C392 1.306 . S
O393 Cd394 2.228 . S
Cd394 O393 2.228 . S
Cd394 O398 2.273 . S
Cd394 O402 2.277 . S
O395 C392 1.160 . S
O395 Cd396 2.203 . S
Cd396 O395 2.203 . S
Cd396 O398 2.411 . S
Cd396 O399 2.333 . S
Cd396 O400 2.352 . S
Cd396 O404 2.277 . S
Cd396 O405 2.356 . S
C397 O402 1.209 . S
C397 O404 1.226 . S
O398 Cd394 2.273 . S
O398 Cd396 2.411 . S
O398 C401 1.320 . S
O399 Cd396 2.333 . S
O399 C401 1.214 . S
O400 Cd396 2.352 . S
O400 C403 1.258 . S
C401 O398 1.320 . S
C401 O399 1.214 . S
O402 Cd394 2.277 . S
O402 C397 1.209 . S
C403 O400 1.258 . S
C403 O405 1.282 . S
O404 Cd396 2.277 . S
O404 C397 1.226 . S
O405 Cd396 2.356 . S
O405 C403 1.282 . S
C406 O407 1.306 . S
C406 O409 1.160 . S
O407 C406 1.306 . S
O407 Cd408 2.228 . S
Cd408 O407 2.228 . S
Cd408 O412 2.273 . S
Cd408 O416 2.277 . S
O409 C406 1.160 . S
O409 Cd410 2.203 . S
Cd410 O409 2.203 . S
Cd410 O412 2.411 . S
Cd410 O413 2.333 . S
Cd410 O414 2.352 . S
Cd410 O418 2.277 . S
Cd410 O419 2.356 . S
C411 O416 1.209 . S
C411 O418 1.226 . S
O412 Cd408 2.273 . S
O412 Cd410 2.411 . S
O412 C415 1.320 . S
O413 Cd410 2.333 . S
O413 C415 1.214 . S
O414 Cd410 2.352 . S
O414 C417 1.258 . S
C415 O412 1.320 . S
C415 O413 1.214 . S
O416 Cd408 2.277 . S
O416 C411 1.209 . S
C417 O414 1.258 . S
C417 O419 1.282 . S
O418 Cd410 2.277 . S
O418 C411 1.226 . S
O419 Cd410 2.356 . S
O419 C417 1.282 . S
C420 O421 1.306 . S
C420 O423 1.160 . S
O421 C420 1.306 . S
O421 Cd422 2.228 . S
Cd422 O421 2.228 . S
Cd422 O426 2.273 . S
Cd422 O430 2.277 . S
O423 C420 1.160 . S
O423 Cd424 2.203 . S
Cd424 O423 2.203 . S
Cd424 O426 2.411 . S
Cd424 O427 2.333 . S
Cd424 O428 2.352 . S
Cd424 O432 2.277 . S
Cd424 O433 2.356 . S
C425 O430 1.209 . S
C425 O432 1.226 . S
O426 Cd422 2.273 . S
O426 Cd424 2.411 . S
O426 C429 1.320 . S
O427 Cd424 2.333 . S
O427 C429 1.214 . S
O428 Cd424 2.352 . S
O428 C431 1.258 . S
C429 O426 1.320 . S
C429 O427 1.214 . S
O430 Cd422 2.277 . S
O430 C425 1.209 . S
C431 O428 1.258 . S
C431 O433 1.282 . S
O432 Cd424 2.277 . S
O432 C425 1.226 . S
O433 Cd424 2.356 . S
O433 C431 1.282 . S
C434 O435 1.306 . S
C434 O437 1.160 . S
O435 C434 1.306 . S
O435 Cd436 2.228 . S
Cd436 O435 2.228 . S
Cd436 O440 2.273 . S
Cd436 O444 2.277 . S
O437 C434 1.160 . S
O437 Cd438 2.203 . S
Cd438 O437 2.203 . S
Cd438 O440 2.411 . S
Cd438 O441 2.333 . S
Cd438 O442 2.352 . S
Cd438 O446 2.277 . S
Cd438 O447 2.356 . S
C439 O444 1.209 . S
C439 O446 1.226 . S
O440 Cd436 2.273 . S
O440 Cd438 2.411 . S
O440 C443 1.320 . S
O441 Cd438 2.333 . S
O441 C443 1.214 . S
O442 Cd438 2.352 . S
O442 C445 1.258 . S
C443 O440 1.320 . S
C443 O441 1.214 . S
O444 Cd436 2.277 . S
O444 C439 1.209 . S
C445 O442 1.258 . S
C445 O447 1.282 . S
O446 Cd438 2.277 . S
O446 C439 1.226 . S
O447 Cd438 2.356 . S
O447 C445 1.282 . S
C448 C449 1.369 1_545 S
C448 C450 1.419 . S
C448 H452 0.930 . S
C449 C448 1.369 1_565 S
C449 C458 1.429 . S
C450 C448 1.419 . S
C450 C451 1.363 . S
C450 H453 0.929 . S
C451 C450 1.363 . S
C451 C457 1.428 1_545 S
H452 C448 0.930 . S
H453 C450 0.929 . S
S454 N455 1.613 . S
S454 N456 1.610 . S
N455 S454 1.613 . S
N455 C458 1.350 . S
N456 S454 1.610 . S
N456 C457 1.351 . S
C457 C451 1.428 1_565 S
C457 N456 1.351 . S
C457 C458 1.434 . S
C458 C449 1.429 . S
C458 N455 1.350 . S
C458 C457 1.434 . S
C459 C460 1.369 . S
C459 C461 1.419 . S
C459 H463 0.930 . S
C460 C459 1.369 . S
C460 C469 1.429 . S
C461 C459 1.419 . S
C461 C462 1.363 . S
C461 H464 0.929 . S
C462 C461 1.363 . S
C462 C468 1.428 . S
H463 C459 0.930 . S
H464 C461 0.929 . S
S465 N466 1.613 . S
S465 N467 1.610 . S
N466 S465 1.613 . S
N466 C469 1.350 . S
N467 S465 1.610 . S
N467 C468 1.351 . S
C468 C462 1.428 . S
C468 N467 1.351 . S
C468 C469 1.434 . S
C469 C460 1.429 . S
C469 N466 1.350 . S
C469 C468 1.434 . S
C470 C471 1.369 . S
C470 C472 1.419 . S
C470 H474 0.930 . S
C471 C470 1.369 . S
C471 C480 1.429 1_545 S
C472 C470 1.419 . S
C472 C473 1.363 1_545 S
C472 H475 0.929 . S
C473 C472 1.363 1_565 S
C473 C479 1.428 . S
H474 C470 0.930 . S
H475 C472 0.929 . S
S476 N477 1.613 . S
S476 N478 1.610 . S
N477 S476 1.613 . S
N477 C480 1.350 . S
N478 S476 1.610 . S
N478 C479 1.351 . S
C479 C473 1.428 . S
C479 N478 1.351 . S
C479 C480 1.434 . S
C480 C471 1.429 1_565 S
C480 N477 1.350 . S
C480 C479 1.434 . S
C481 C482 1.369 . S
C481 C483 1.419 1_556 S
C481 H485 0.930 . S
C482 C481 1.369 . S
C482 C491 1.429 . S
C483 C481 1.419 1_554 S
C483 C484 1.363 . S
C483 H486 0.929 . S
C484 C483 1.363 . S
C484 C490 1.428 . S
H485 C481 0.930 . S
H486 C483 0.929 . S
S487 N488 1.613 . S
S487 N489 1.610 1_556 S
N488 S487 1.613 . S
N488 C491 1.350 . S
N489 S487 1.610 1_554 S
N489 C490 1.351 . S
C490 C484 1.428 . S
C490 N489 1.351 . S
C490 C491 1.434 1_554 S
C491 C482 1.429 . S
C491 N488 1.350 . S
C491 C490 1.434 1_556 S
C492 C493 1.369 1_545 S
C492 C494 1.419 . S
C492 H496 0.930 . S
C493 C492 1.369 1_565 S
C493 C502 1.429 . S
C494 C492 1.419 . S
C494 C495 1.363 . S
C494 H497 0.929 . S
C495 C494 1.363 . S
C495 C501 1.428 1_545 S
H496 C492 0.930 . S
H497 C494 0.929 . S
S498 N499 1.613 . S
S498 N500 1.610 . S
N499 S498 1.613 . S
N499 C502 1.350 . S
N500 S498 1.610 . S
N500 C501 1.351 . S
C501 C495 1.428 1_565 S
C501 N500 1.351 . S
C501 C502 1.434 . S
C502 C493 1.429 . S
C502 N499 1.350 . S
C502 C501 1.434 . S
C503 C504 1.369 . S
C503 C505 1.419 . S
C503 H507 0.930 . S
C504 C503 1.369 . S
C504 C513 1.429 . S
C505 C503 1.419 . S
C505 C506 1.363 . S
C505 H508 0.929 . S
C506 C505 1.363 . S
C506 C512 1.428 . S
H507 C503 0.930 . S
H508 C505 0.929 . S
S509 N510 1.613 . S
S509 N511 1.610 . S
N510 S509 1.613 . S
N510 C513 1.350 . S
N511 S509 1.610 . S
N511 C512 1.351 . S
C512 C506 1.428 . S
C512 N511 1.351 . S
C512 C513 1.434 . S
C513 C504 1.429 . S
C513 N510 1.350 . S
C513 C512 1.434 . S
C514 C515 1.369 1_565 S
C514 C516 1.419 . S
C514 H518 0.930 . S
C515 C514 1.369 1_545 S
C515 C524 1.429 . S
C516 C514 1.419 . S
C516 C517 1.363 . S
C516 H519 0.929 . S
C517 C516 1.363 . S
C517 C523 1.428 1_565 S
H518 C514 0.930 . S
H519 C516 0.929 . S
S520 N521 1.613 . S
S520 N522 1.610 . S
N521 S520 1.613 . S
N521 C524 1.350 . S
N522 S520 1.610 . S
N522 C523 1.351 . S
C523 C517 1.428 1_545 S
C523 N522 1.351 . S
C523 C524 1.434 . S
C524 C515 1.429 . S
C524 N521 1.350 . S
C524 C523 1.434 . S
C525 C526 1.369 . S
C525 C527 1.419 1_556 S
C525 H529 0.930 . S
C526 C525 1.369 . S
C526 C535 1.429 . S
C527 C525 1.419 1_554 S
C527 C528 1.363 . S
C527 H530 0.929 . S
C528 C527 1.363 . S
C528 C534 1.428 . S
H529 C525 0.930 . S
H530 C527 0.929 . S
S531 N532 1.613 1_554 S
S531 N533 1.610 . S
N532 S531 1.613 1_556 S
N532 C535 1.350 . S
N533 S531 1.610 . S
N533 C534 1.351 . S
C534 C528 1.428 . S
C534 N533 1.351 . S
C534 C535 1.434 1_554 S
C535 C526 1.429 . S
C535 N532 1.350 . S
C535 C534 1.434 1_556 S
C536 C537 1.369 . S
C536 C538 1.419 . S
C536 H540 0.930 . S
C537 C536 1.369 . S
C537 C546 1.429 . S
C538 C536 1.419 . S
C538 C539 1.363 . S
C538 H541 0.929 . S
C539 C538 1.363 . S
C539 C545 1.428 . S
H540 C536 0.930 . S
H541 C538 0.929 . S
S542 N543 1.613 . S
S542 N544 1.610 . S
N543 S542 1.613 . S
N543 C546 1.350 . S
N544 S542 1.610 . S
N544 C545 1.351 . S
C545 C539 1.428 . S
C545 N544 1.351 . S
C545 C546 1.434 . S
C546 C537 1.429 . S
C546 N543 1.350 . S
C546 C545 1.434 . S
C547 C548 1.369 . S
C547 C549 1.419 1_554 S
C547 H551 0.930 . S
C548 C547 1.369 . S
C548 C557 1.429 . S
C549 C547 1.419 1_556 S
C549 C550 1.363 . S
C549 H552 0.929 . S
C550 C549 1.363 . S
C550 C556 1.428 . S
H551 C547 0.930 . S
H552 C549 0.929 . S
S553 N554 1.613 . S
S553 N555 1.610 1_554 S
N554 S553 1.613 . S
N554 C557 1.350 . S
N555 S553 1.610 1_556 S
N555 C556 1.351 . S
C556 C550 1.428 . S
C556 N555 1.351 . S
C556 C557 1.434 1_556 S
C557 C548 1.429 . S
C557 N554 1.350 . S
C557 C556 1.434 1_554 S
C558 C559 1.369 . S
C558 C560 1.419 . S
C558 H562 0.930 . S
C559 C558 1.369 . S
C559 C568 1.429 . S
C560 C558 1.419 . S
C560 C561 1.363 . S
C560 H563 0.929 . S
C561 C560 1.363 . S
C561 C567 1.428 . S
H562 C558 0.930 . S
H563 C560 0.929 . S
S564 N565 1.613 . S
S564 N566 1.610 . S
N565 S564 1.613 . S
N565 C568 1.350 . S
N566 S564 1.610 . S
N566 C567 1.351 . S
C567 C561 1.428 . S
C567 N566 1.351 . S
C567 C568 1.434 . S
C568 C559 1.429 . S
C568 N565 1.350 . S
C568 C567 1.434 . S
C569 C570 1.369 . S
C569 C571 1.419 . S
C569 H573 0.930 . S
C570 C569 1.369 . S
C570 C579 1.429 . S
C571 C569 1.419 . S
C571 C572 1.363 . S
C571 H574 0.929 . S
C572 C571 1.363 . S
C572 C578 1.428 . S
H573 C569 0.930 . S
H574 C571 0.929 . S
S575 N576 1.613 . S
S575 N577 1.610 . S
N576 S575 1.613 . S
N576 C579 1.350 . S
N577 S575 1.610 . S
N577 C578 1.351 . S
C578 C572 1.428 . S
C578 N577 1.351 . S
C578 C579 1.434 . S
C579 C570 1.429 . S
C579 N576 1.350 . S
C579 C578 1.434 . S
C580 C581 1.369 . S
C580 C582 1.419 . S
C580 H584 0.930 . S
C581 C580 1.369 . S
C581 C590 1.429 . S
C582 C580 1.419 . S
C582 C583 1.363 . S
C582 H585 0.929 . S
C583 C582 1.363 . S
C583 C589 1.428 . S
H584 C580 0.930 . S
H585 C582 0.929 . S
S586 N587 1.613 . S
S586 N588 1.610 . S
N587 S586 1.613 . S
N587 C590 1.350 . S
N588 S586 1.610 . S
N588 C589 1.351 . S
C589 C583 1.428 . S
C589 N588 1.351 . S
C589 C590 1.434 . S
C590 C581 1.429 . S
C590 N587 1.350 . S
C590 C589 1.434 . S
C591 C592 1.369 . S
C591 C593 1.419 1_554 S
C591 H595 0.930 . S
C592 C591 1.369 . S
C592 C601 1.429 . S
C593 C591 1.419 1_556 S
C593 C594 1.363 . S
C593 H596 0.929 . S
C594 C593 1.363 . S
C594 C600 1.428 . S
H595 C591 0.930 . S
H596 C593 0.929 . S
S597 N598 1.613 1_556 S
S597 N599 1.610 . S
N598 S597 1.613 1_554 S
N598 C601 1.350 . S
N599 S597 1.610 . S
N599 C600 1.351 . S
C600 C594 1.428 . S
C600 N599 1.351 . S
C600 C601 1.434 1_556 S
C601 C592 1.429 . S
C601 N598 1.350 . S
C601 C600 1.434 1_554 S
C602 C603 1.369 . S
C602 C604 1.419 . S
C602 H606 0.930 . S
C603 C602 1.369 . S
C603 C612 1.429 . S
C604 C602 1.419 . S
C604 C605 1.363 . S
C604 H607 0.929 . S
C605 C604 1.363 . S
C605 C611 1.428 . S
H606 C602 0.930 . S
H607 C604 0.929 . S
S608 N609 1.613 . S
S608 N610 1.610 . S
N609 S608 1.613 . S
N609 C612 1.350 . S
N610 S608 1.610 . S
N610 C611 1.351 . S
C611 C605 1.428 . S
C611 N610 1.351 . S
C611 C612 1.434 . S
C612 C603 1.429 . S
C612 N609 1.350 . S
C612 C611 1.434 . S
C613 C614 1.369 . S
C613 C615 1.419 . S
C613 H617 0.930 . S
C614 C613 1.369 . S
C614 C623 1.429 . S
C615 C613 1.419 . S
C615 C616 1.363 . S
C615 H618 0.929 . S
C616 C615 1.363 . S
C616 C622 1.428 . S
H617 C613 0.930 . S
H618 C615 0.929 . S
S619 N620 1.613 . S
S619 N621 1.610 . S
N620 S619 1.613 . S
N620 C623 1.350 . S
N621 S619 1.610 . S
N621 C622 1.351 . S
C622 C616 1.428 . S
C622 N621 1.351 . S
C622 C623 1.434 . S
C623 C614 1.429 . S
C623 N620 1.350 . S
C623 C622 1.434 . S
C624 C625 1.369 . S
C624 C626 1.419 . S
C624 H628 0.930 . S
C625 C624 1.369 . S
C625 C634 1.429 . S
C626 C624 1.419 . S
C626 C627 1.363 . S
C626 H629 0.929 . S
C627 C626 1.363 . S
C627 C633 1.428 . S
H628 C624 0.930 . S
H629 C626 0.929 . S
S630 N631 1.613 . S
S630 N632 1.610 . S
N631 S630 1.613 . S
N631 C634 1.350 . S
N632 S630 1.610 . S
N632 C633 1.351 . S
C633 C627 1.428 . S
C633 N632 1.351 . S
C633 C634 1.434 . S
C634 C625 1.429 . S
C634 N631 1.350 . S
C634 C633 1.434 . S
C635 C636 1.369 . S
C635 C637 1.419 . S
C635 H639 0.930 . S
C636 C635 1.369 . S
C636 C645 1.429 . S
C637 C635 1.419 . S
C637 C638 1.363 . S
C637 H640 0.929 . S
C638 C637 1.363 . S
C638 C644 1.428 . S
H639 C635 0.930 . S
H640 C637 0.929 . S
S641 N642 1.613 . S
S641 N643 1.610 . S
N642 S641 1.613 . S
N642 C645 1.350 . S
N643 S641 1.610 . S
N643 C644 1.351 . S
C644 C638 1.428 . S
C644 N643 1.351 . S
C644 C645 1.434 . S
C645 C636 1.429 . S
C645 N642 1.350 . S
C645 C644 1.434 . S
C646 C647 1.369 . S
C646 C648 1.419 . S
C646 H650 0.930 1_545 S
C647 C646 1.369 . S
C647 C656 1.429 . S
C648 C646 1.419 . S
C648 C649 1.363 . S
C648 H651 0.929 . S
C649 C648 1.363 . S
C649 C655 1.428 . S
H650 C646 0.930 1_565 S
H651 C648 0.929 . S
S652 N653 1.613 . S
S652 N654 1.610 . S
N653 S652 1.613 . S
N653 C656 1.350 . S
N654 S652 1.610 . S
N654 C655 1.351 . S
C655 C649 1.428 . S
C655 N654 1.351 . S
C655 C656 1.434 . S
C656 C647 1.429 . S
C656 N653 1.350 . S
C656 C655 1.434 . S
C657 C658 1.369 . S
C657 C659 1.419 . S
C657 H661 0.930 . S
C658 C657 1.369 . S
C658 C667 1.429 . S
C659 C657 1.419 . S
C659 C660 1.363 . S
C659 H662 0.929 . S
C660 C659 1.363 . S
C660 C666 1.428 . S
H661 C657 0.930 . S
H662 C659 0.929 . S
S663 N664 1.613 . S
S663 N665 1.610 1_545 S
N664 S663 1.613 . S
N664 C667 1.350 1_545 S
N665 S663 1.610 1_565 S
N665 C666 1.351 . S
C666 C660 1.428 . S
C666 N665 1.351 . S
C666 C667 1.434 . S
C667 C658 1.429 . S
C667 N664 1.350 1_565 S
C667 C666 1.434 . S
C668 C669 1.369 . S
C668 C670 1.419 . S
C668 H672 0.930 . S
C669 C668 1.369 . S
C669 C678 1.429 . S
C670 C668 1.419 . S
C670 C671 1.363 . S
C670 H673 0.929 . S
C671 C670 1.363 . S
C671 C677 1.428 . S
H672 C668 0.930 . S
H673 C670 0.929 . S
S674 N675 1.613 . S
S674 N676 1.610 1_545 S
N675 S674 1.613 . S
N675 C678 1.350 . S
N676 S674 1.610 1_565 S
N676 C677 1.351 1_565 S
C677 C671 1.428 . S
C677 N676 1.351 1_545 S
C677 C678 1.434 . S
C678 C669 1.429 . S
C678 N675 1.350 . S
C678 C677 1.434 . S
C679 C680 1.369 . S
C679 C681 1.419 . S
C679 H683 0.930 . S
C680 C679 1.369 . S
C680 C689 1.429 . S
C681 C679 1.419 . S
C681 C682 1.363 . S
C681 H684 0.929 . S
C682 C681 1.363 . S
C682 C688 1.428 . S
H683 C679 0.930 . S
H684 C681 0.929 . S
S685 N686 1.613 . S
S685 N687 1.610 . S
N686 S685 1.613 . S
N686 C689 1.350 . S
N687 S685 1.610 . S
N687 C688 1.351 . S
C688 C682 1.428 . S
C688 N687 1.351 . S
C688 C689 1.434 . S
C689 C680 1.429 . S
C689 N686 1.350 . S
C689 C688 1.434 . S
C690 C691 1.369 . S
C690 C692 1.419 . S
C690 H694 0.930 . S
C691 C690 1.369 . S
C691 C700 1.429 . S
C692 C690 1.419 . S
C692 C693 1.363 . S
C692 H695 0.929 . S
C693 C692 1.363 . S
C693 C699 1.428 . S
H694 C690 0.930 . S
H695 C692 0.929 . S
S696 N697 1.613 1_545 S
S696 N698 1.610 . S
N697 S696 1.613 1_565 S
N697 C700 1.350 . S
N698 S696 1.610 . S
N698 C699 1.351 1_545 S
C699 C693 1.428 . S
C699 N698 1.351 1_565 S
C699 C700 1.434 . S
C700 C691 1.429 . S
C700 N697 1.350 . S
C700 C699 1.434 . S
C701 C702 1.369 . S
C701 C703 1.419 . S
C701 H705 0.930 . S
C702 C701 1.369 . S
C702 C711 1.429 . S
C703 C701 1.419 . S
C703 C704 1.363 . S
C703 H706 0.929 1_545 S
C704 C703 1.363 . S
C704 C710 1.428 . S
H705 C701 0.930 . S
H706 C703 0.929 1_565 S
S707 N708 1.613 . S
S707 N709 1.610 . S
N708 S707 1.613 . S
N708 C711 1.350 . S
N709 S707 1.610 . S
N709 C710 1.351 . S
C710 C704 1.428 . S
C710 N709 1.351 . S
C710 C711 1.434 . S
C711 C702 1.429 . S
C711 N708 1.350 . S
C711 C710 1.434 . S
C712 C713 1.369 . S
C712 C714 1.419 . S
C712 H716 0.930 . S
C713 C712 1.369 . S
C713 C722 1.429 . S
C714 C712 1.419 . S
C714 C715 1.363 . S
C714 H717 0.929 . S
C715 C714 1.363 . S
C715 C721 1.428 . S
H716 C712 0.930 . S
H717 C714 0.929 . S
S718 N719 1.613 . S
S718 N720 1.610 . S
N719 S718 1.613 . S
N719 C722 1.350 . S
N720 S718 1.610 . S
N720 C721 1.351 . S
C721 C715 1.428 . S
C721 N720 1.351 . S
C721 C722 1.434 . S
C722 C713 1.429 . S
C722 N719 1.350 . S
C722 C721 1.434 . S
C723 C724 1.369 . S
C723 C725 1.419 . S
C723 H727 0.930 . S
C724 C723 1.369 . S
C724 C733 1.429 . S
C725 C723 1.419 . S
C725 C726 1.363 . S
C725 H728 0.929 . S
C726 C725 1.363 . S
C726 C732 1.428 . S
H727 C723 0.930 . S
H728 C725 0.929 . S
S729 N730 1.613 . S
S729 N731 1.610 . S
N730 S729 1.613 . S
N730 C733 1.350 . S
N731 S729 1.610 . S
N731 C732 1.351 . S
C732 C726 1.428 . S
C732 N731 1.351 . S
C732 C733 1.434 . S
C733 C724 1.429 . S
C733 N730 1.350 . S
C733 C732 1.434 . S
C734 C735 1.369 . S
C734 C736 1.419 . S
C734 H738 0.930 . S
C735 C734 1.369 . S
C735 C744 1.429 . S
C736 C734 1.419 . S
C736 C737 1.363 . S
C736 H739 0.929 . S
C737 C736 1.363 . S
C737 C743 1.428 . S
H738 C734 0.930 . S
H739 C736 0.929 . S
S740 N741 1.613 . S
S740 N742 1.610 . S
N741 S740 1.613 . S
N741 C744 1.350 . S
N742 S740 1.610 . S
N742 C743 1.351 . S
C743 C737 1.428 . S
C743 N742 1.351 . S
C743 C744 1.434 . S
C744 C735 1.429 . S
C744 N741 1.350 . S
C744 C743 1.434 . S
C745 C746 1.369 . S
C745 C747 1.419 . S
C745 H749 0.930 . S
C746 C745 1.369 . S
C746 C755 1.429 . S
C747 C745 1.419 . S
C747 C748 1.363 . S
C747 H750 0.929 . S
C748 C747 1.363 . S
C748 C754 1.428 . S
H749 C745 0.930 . S
H750 C747 0.929 . S
S751 N752 1.613 . S
S751 N753 1.610 . S
N752 S751 1.613 . S
N752 C755 1.350 . S
N753 S751 1.610 . S
N753 C754 1.351 . S
C754 C748 1.428 . S
C754 N753 1.351 . S
C754 C755 1.434 . S
C755 C746 1.429 . S
C755 N752 1.350 . S
C755 C754 1.434 . S
C756 C757 1.369 . S
C756 C758 1.419 . S
C756 H760 0.930 . S
C757 C756 1.369 . S
C757 C766 1.429 . S
C758 C756 1.419 . S
C758 C759 1.363 . S
C758 H761 0.929 . S
C759 C758 1.363 . S
C759 C765 1.428 . S
H760 C756 0.930 . S
H761 C758 0.929 . S
S762 N763 1.613 . S
S762 N764 1.610 . S
N763 S762 1.613 . S
N763 C766 1.350 . S
N764 S762 1.610 . S
N764 C765 1.351 . S
C765 C759 1.428 . S
C765 N764 1.351 . S
C765 C766 1.434 . S
C766 C757 1.429 . S
C766 N763 1.350 . S
C766 C765 1.434 . S
C767 C768 1.369 . S
C767 C769 1.419 . S
C767 H771 0.930 . S
C768 C767 1.369 . S
C768 C777 1.429 . S
C769 C767 1.419 . S
C769 C770 1.363 . S
C769 H772 0.929 . S
C770 C769 1.363 . S
C770 C776 1.428 . S
H771 C767 0.930 . S
H772 C769 0.929 . S
S773 N774 1.613 . S
S773 N775 1.610 . S
N774 S773 1.613 . S
N774 C777 1.350 . S
N775 S773 1.610 . S
N775 C776 1.351 . S
C776 C770 1.428 . S
C776 N775 1.351 . S
C776 C777 1.434 . S
C777 C768 1.429 . S
C777 N774 1.350 . S
C777 C776 1.434 . S
C778 C779 1.369 . S
C778 C780 1.419 . S
C778 H782 0.930 . S
C779 C778 1.369 . S
C779 C788 1.429 . S
C780 C778 1.419 . S
C780 C781 1.363 . S
C780 H783 0.929 . S
C781 C780 1.363 . S
C781 C787 1.428 . S
H782 C778 0.930 . S
H783 C780 0.929 . S
S784 N785 1.613 . S
S784 N786 1.610 . S
N785 S784 1.613 . S
N785 C788 1.350 . S
N786 S784 1.610 . S
N786 C787 1.351 . S
C787 C781 1.428 . S
C787 N786 1.351 . S
C787 C788 1.434 . S
C788 C779 1.429 . S
C788 N785 1.350 . S
C788 C787 1.434 . S
C789 C790 1.369 . S
C789 C791 1.419 . S
C789 H793 0.930 . S
C790 C789 1.369 . S
C790 C799 1.429 . S
C791 C789 1.419 . S
C791 C792 1.363 . S
C791 H794 0.929 . S
C792 C791 1.363 . S
C792 C798 1.428 . S
H793 C789 0.930 . S
H794 C791 0.929 . S
S795 N796 1.613 . S
S795 N797 1.610 . S
N796 S795 1.613 . S
N796 C799 1.350 . S
N797 S795 1.610 . S
N797 C798 1.351 . S
C798 C792 1.428 . S
C798 N797 1.351 . S
C798 C799 1.434 . S
C799 C790 1.429 . S
C799 N796 1.350 . S
C799 C798 1.434 . S
C800 C801 1.369 . S
C800 C802 1.419 . S
C800 H804 0.930 . S
C801 C800 1.369 . S
C801 C810 1.429 . S
C802 C800 1.419 . S
C802 C803 1.363 . S
C802 H805 0.929 . S
C803 C802 1.363 . S
C803 C809 1.428 . S
H804 C800 0.930 . S
H805 C802 0.929 . S
S806 N807 1.613 . S
S806 N808 1.610 . S
N807 S806 1.613 . S
N807 C810 1.350 . S
N808 S806 1.610 . S
N808 C809 1.351 . S
C809 C803 1.428 . S
C809 N808 1.351 . S
C809 C810 1.434 . S
C810 C801 1.429 . S
C810 N807 1.350 . S
C810 C809 1.434 . S
C811 C812 1.369 . S
C811 C813 1.419 . S
C811 H815 0.930 . S
C812 C811 1.369 . S
C812 C821 1.429 . S
C813 C811 1.419 . S
C813 C814 1.363 . S
C813 H816 0.929 . S
C814 C813 1.363 . S
C814 C820 1.428 . S
H815 C811 0.930 . S
H816 C813 0.929 . S
S817 N818 1.613 . S
S817 N819 1.610 . S
N818 S817 1.613 . S
N818 C821 1.350 . S
N819 S817 1.610 . S
N819 C820 1.351 . S
C820 C814 1.428 . S
C820 N819 1.351 . S
C820 C821 1.434 . S
C821 C812 1.429 . S
C821 N818 1.350 . S
C821 C820 1.434 . S
C822 C823 1.369 . S
C822 C824 1.419 . S
C822 H826 0.930 . S
C823 C822 1.369 . S
C823 C832 1.429 . S
C824 C822 1.419 . S
C824 C825 1.363 . S
C824 H827 0.929 . S
C825 C824 1.363 . S
C825 C831 1.428 . S
H826 C822 0.930 . S
H827 C824 0.929 . S
S828 N829 1.613 . S
S828 N830 1.610 . S
N829 S828 1.613 . S
N829 C832 1.350 . S
N830 S828 1.610 . S
N830 C831 1.351 . S
C831 C825 1.428 . S
C831 N830 1.351 . S
C831 C832 1.434 . S
C832 C823 1.429 . S
C832 N829 1.350 . S
C832 C831 1.434 . S
C833 C834 1.369 . S
C833 C835 1.419 . S
C833 H837 0.930 . S
C834 C833 1.369 . S
C834 C843 1.429 . S
C835 C833 1.419 . S
C835 C836 1.363 . S
C835 H838 0.929 . S
C836 C835 1.363 . S
C836 C842 1.428 . S
H837 C833 0.930 . S
H838 C835 0.929 . S
S839 N840 1.613 . S
S839 N841 1.610 . S
N840 S839 1.613 . S
N840 C843 1.350 . S
N841 S839 1.610 . S
N841 C842 1.351 . S
C842 C836 1.428 . S
C842 N841 1.351 . S
C842 C843 1.434 . S
C843 C834 1.429 . S
C843 N840 1.350 . S
C843 C842 1.434 . S
C844 C845 1.369 . S
C844 C846 1.419 . S
C844 H848 0.930 . S
C845 C844 1.369 . S
C845 C854 1.429 . S
C846 C844 1.419 . S
C846 C847 1.363 . S
C846 H849 0.929 . S
C847 C846 1.363 . S
C847 C853 1.428 . S
H848 C844 0.930 . S
H849 C846 0.929 . S
S850 N851 1.613 . S
S850 N852 1.610 . S
N851 S850 1.613 . S
N851 C854 1.350 . S
N852 S850 1.610 . S
N852 C853 1.351 . S
C853 C847 1.428 . S
C853 N852 1.351 . S
C853 C854 1.434 . S
C854 C845 1.429 . S
C854 N851 1.350 . S
C854 C853 1.434 . S
C855 C856 1.369 . S
C855 C857 1.419 . S
C855 H859 0.930 . S
C856 C855 1.369 . S
C856 C865 1.429 . S
C857 C855 1.419 . S
C857 C858 1.363 . S
C857 H860 0.929 . S
C858 C857 1.363 . S
C858 C864 1.428 . S
H859 C855 0.930 . S
H860 C857 0.929 . S
S861 N862 1.613 . S
S861 N863 1.610 . S
N862 S861 1.613 . S
N862 C865 1.350 . S
N863 S861 1.610 . S
N863 C864 1.351 . S
C864 C858 1.428 . S
C864 N863 1.351 . S
C864 C865 1.434 . S
C865 C856 1.429 . S
C865 N862 1.350 . S
C865 C864 1.434 . S
C866 C867 1.369 . S
C866 C868 1.419 . S
C866 H870 0.930 . S
C867 C866 1.369 . S
C867 C876 1.429 . S
C868 C866 1.419 . S
C868 C869 1.363 . S
C868 H871 0.929 . S
C869 C868 1.363 . S
C869 C875 1.428 . S
H870 C866 0.930 . S
H871 C868 0.929 . S
S872 N873 1.613 . S
S872 N874 1.610 . S
N873 S872 1.613 . S
N873 C876 1.350 . S
N874 S872 1.610 . S
N874 C875 1.351 . S
C875 C869 1.428 . S
C875 N874 1.351 . S
C875 C876 1.434 . S
C876 C867 1.429 . S
C876 N873 1.350 . S
C876 C875 1.434 . S
C877 C878 1.369 . S
C877 C879 1.419 . S
C877 H881 0.930 . S
C878 C877 1.369 . S
C878 C887 1.429 . S
C879 C877 1.419 . S
C879 C880 1.363 . S
C879 H882 0.929 . S
C880 C879 1.363 . S
C880 C886 1.428 . S
H881 C877 0.930 . S
H882 C879 0.929 . S
S883 N884 1.613 . S
S883 N885 1.610 . S
N884 S883 1.613 . S
N884 C887 1.350 . S
N885 S883 1.610 . S
N885 C886 1.351 . S
C886 C880 1.428 . S
C886 N885 1.351 . S
C886 C887 1.434 . S
C887 C878 1.429 . S
C887 N884 1.350 . S
C887 C886 1.434 . S
C888 C889 1.369 . S
C888 C890 1.419 . S
C888 H892 0.930 . S
C889 C888 1.369 . S
C889 C898 1.429 . S
C890 C888 1.419 . S
C890 C891 1.363 . S
C890 H893 0.929 . S
C891 C890 1.363 . S
C891 C897 1.428 . S
H892 C888 0.930 . S
H893 C890 0.929 . S
S894 N895 1.613 . S
S894 N896 1.610 . S
N895 S894 1.613 . S
N895 C898 1.350 . S
N896 S894 1.610 . S
N896 C897 1.351 . S
C897 C891 1.428 . S
C897 N896 1.351 . S
C897 C898 1.434 . S
C898 C889 1.429 . S
C898 N895 1.350 . S
C898 C897 1.434 . S
C899 C900 1.369 . S
C899 C901 1.419 . S
C899 H903 0.930 . S
C900 C899 1.369 . S
C900 C909 1.429 . S
C901 C899 1.419 . S
C901 C902 1.363 . S
C901 H904 0.929 . S
C902 C901 1.363 . S
C902 C908 1.428 . S
H903 C899 0.930 . S
H904 C901 0.929 . S
S905 N906 1.613 . S
S905 N907 1.610 . S
N906 S905 1.613 . S
N906 C909 1.350 . S
N907 S905 1.610 . S
N907 C908 1.351 . S
C908 C902 1.428 . S
C908 N907 1.351 . S
C908 C909 1.434 . S
C909 C900 1.429 . S
C909 N906 1.350 . S
C909 C908 1.434 . S
C910 C911 1.369 . S
C910 C912 1.419 . S
C910 H914 0.930 . S
C911 C910 1.369 . S
C911 C920 1.429 . S
C912 C910 1.419 . S
C912 C913 1.363 . S
C912 H915 0.929 . S
C913 C912 1.363 . S
C913 C919 1.428 . S
H914 C910 0.930 . S
H915 C912 0.929 . S
S916 N917 1.613 . S
S916 N918 1.610 . S
N917 S916 1.613 . S
N917 C920 1.350 . S
N918 S916 1.610 . S
N918 C919 1.351 . S
C919 C913 1.428 . S
C919 N918 1.351 . S
C919 C920 1.434 . S
C920 C911 1.429 . S
C920 N917 1.350 . S
C920 C919 1.434 . S
C921 C922 1.369 . S
C921 C923 1.419 . S
C921 H925 0.930 . S
C922 C921 1.369 . S
C922 C931 1.429 . S
C923 C921 1.419 . S
C923 C924 1.363 . S
C923 H926 0.929 . S
C924 C923 1.363 . S
C924 C930 1.428 . S
H925 C921 0.930 . S
H926 C923 0.929 . S
S927 N928 1.613 . S
S927 N929 1.610 . S
N928 S927 1.613 . S
N928 C931 1.350 . S
N929 S927 1.610 . S
N929 C930 1.351 . S
C930 C924 1.428 . S
C930 N929 1.351 . S
C930 C931 1.434 . S
C931 C922 1.429 . S
C931 N928 1.350 . S
C931 C930 1.434 . S
C932 C933 1.369 . S
C932 C934 1.419 . S
C932 H936 0.930 . S
C933 C932 1.369 . S
C933 C942 1.429 . S
C934 C932 1.419 . S
C934 C935 1.363 . S
C934 H937 0.929 . S
C935 C934 1.363 . S
C935 C941 1.428 . S
H936 C932 0.930 . S
H937 C934 0.929 . S
S938 N939 1.613 . S
S938 N940 1.610 . S
N939 S938 1.613 . S
N939 C942 1.350 . S
N940 S938 1.610 . S
N940 C941 1.351 . S
C941 C935 1.428 . S
C941 N940 1.351 . S
C941 C942 1.434 . S
C942 C933 1.429 . S
C942 N939 1.350 . S
C942 C941 1.434 . S
C943 C944 1.369 . S
C943 C945 1.419 . S
C943 H947 0.930 . S
C944 C943 1.369 . S
C944 C953 1.429 . S
C945 C943 1.419 . S
C945 C946 1.363 . S
C945 H948 0.929 . S
C946 C945 1.363 . S
C946 C952 1.428 . S
H947 C943 0.930 . S
H948 C945 0.929 . S
S949 N950 1.613 . S
S949 N951 1.610 . S
N950 S949 1.613 . S
N950 C953 1.350 . S
N951 S949 1.610 . S
N951 C952 1.351 . S
C952 C946 1.428 . S
C952 N951 1.351 . S
C952 C953 1.434 . S
C953 C944 1.429 . S
C953 N950 1.350 . S
C953 C952 1.434 . S
C954 C955 1.369 . S
C954 C956 1.419 . S
C954 H958 0.930 . S
C955 C954 1.369 . S
C955 C964 1.429 . S
C956 C954 1.419 . S
C956 C957 1.363 . S
C956 H959 0.929 . S
C957 C956 1.363 . S
C957 C963 1.428 . S
H958 C954 0.930 . S
H959 C956 0.929 . S
S960 N961 1.613 . S
S960 N962 1.610 . S
N961 S960 1.613 . S
N961 C964 1.350 . S
N962 S960 1.610 . S
N962 C963 1.351 . S
C963 C957 1.428 . S
C963 N962 1.351 . S
C963 C964 1.434 . S
C964 C955 1.429 . S
C964 N961 1.350 . S
C964 C963 1.434 . S
C965 C966 1.369 . S
C965 C967 1.419 . S
C965 H969 0.930 . S
C966 C965 1.369 . S
C966 C975 1.429 . S
C967 C965 1.419 . S
C967 C968 1.363 . S
C967 H970 0.929 . S
C968 C967 1.363 . S
C968 C974 1.428 . S
H969 C965 0.930 . S
H970 C967 0.929 . S
S971 N972 1.613 1_655 S
S971 N973 1.610 . S
N972 S971 1.613 1_455 S
N972 C975 1.350 1_455 S
N973 S971 1.610 . S
N973 C974 1.351 . S
C974 C968 1.428 . S
C974 N973 1.351 . S
C974 C975 1.434 . S
C975 C966 1.429 . S
C975 N972 1.350 1_655 S
C975 C974 1.434 . S
C976 C977 1.369 . S
C976 C978 1.419 . S
C976 H980 0.930 . S
C977 C976 1.369 . S
C977 C986 1.429 . S
C978 C976 1.419 . S
C978 C979 1.363 . S
C978 H981 0.929 . S
C979 C978 1.363 . S
C979 C985 1.428 . S
H980 C976 0.930 . S
H981 C978 0.929 . S
S982 N983 1.613 . S
S982 N984 1.610 . S
N983 S982 1.613 . S
N983 C986 1.350 . S
N984 S982 1.610 . S
N984 C985 1.351 . S
C985 C979 1.428 . S
C985 N984 1.351 . S
C985 C986 1.434 . S
C986 C977 1.429 . S
C986 N983 1.350 . S
C986 C985 1.434 . S
C987 C988 1.369 . S
C987 C989 1.419 . S
C987 H991 0.930 . S
C988 C987 1.369 . S
C988 C997 1.429 . S
C989 C987 1.419 . S
C989 C990 1.363 . S
C989 H992 0.929 . S
C990 C989 1.363 . S
C990 C996 1.428 . S
H991 C987 0.930 . S
H992 C989 0.929 . S
S993 N994 1.613 . S
S993 N995 1.610 . S
N994 S993 1.613 . S
N994 C997 1.350 . S
N995 S993 1.610 . S
N995 C996 1.351 . S
C996 C990 1.428 . S
C996 N995 1.351 . S
C996 C997 1.434 . S
C997 C988 1.429 . S
C997 N994 1.350 . S
C997 C996 1.434 . S
C998 C999 1.369 . S
C998 C1000 1.419 . S
C998 H1002 0.930 . S
C999 C998 1.369 . S
C999 C1008 1.429 . S
C1000 C998 1.419 . S
C1000 C1001 1.363 . S
C1000 H1003 0.929 . S
C1001 C1000 1.363 . S
C1001 C1007 1.428 . S
H1002 C998 0.930 . S
H1003 C1000 0.929 . S
S1004 N1005 1.613 . S
S1004 N1006 1.610 . S
N1005 S1004 1.613 . S
N1005 C1008 1.350 . S
N1006 S1004 1.610 . S
N1006 C1007 1.351 . S
C1007 C1001 1.428 . S
C1007 N1006 1.351 . S
C1007 C1008 1.434 . S
C1008 C999 1.429 . S
C1008 N1005 1.350 . S
C1008 C1007 1.434 . S
C1009 C1010 1.369 . S
C1009 C1011 1.419 . S
C1009 H1013 0.930 . S
C1010 C1009 1.369 . S
C1010 C1019 1.429 . S
C1011 C1009 1.419 . S
C1011 C1012 1.363 . S
C1011 H1014 0.929 . S
C1012 C1011 1.363 . S
C1012 C1018 1.428 . S
H1013 C1009 0.930 . S
H1014 C1011 0.929 . S
S1015 N1016 1.613 . S
S1015 N1017 1.610 . S
N1016 S1015 1.613 . S
N1016 C1019 1.350 . S
N1017 S1015 1.610 . S
N1017 C1018 1.351 . S
C1018 C1012 1.428 . S
C1018 N1017 1.351 . S
C1018 C1019 1.434 . S
C1019 C1010 1.429 . S
C1019 N1016 1.350 . S
C1019 C1018 1.434 . S
C1020 C1021 1.369 . S
C1020 C1022 1.419 . S
C1020 H1024 0.930 . S
C1021 C1020 1.369 . S
C1021 C1030 1.429 . S
C1022 C1020 1.419 . S
C1022 C1023 1.363 . S
C1022 H1025 0.929 . S
C1023 C1022 1.363 . S
C1023 C1029 1.428 . S
H1024 C1020 0.930 . S
H1025 C1022 0.929 . S
S1026 N1027 1.613 . S
S1026 N1028 1.610 . S
N1027 S1026 1.613 . S
N1027 C1030 1.350 . S
N1028 S1026 1.610 . S
N1028 C1029 1.351 . S
C1029 C1023 1.428 . S
C1029 N1028 1.351 . S
C1029 C1030 1.434 . S
C1030 C1021 1.429 . S
C1030 N1027 1.350 . S
C1030 C1029 1.434 . S
C1031 C1032 1.369 . S
C1031 C1033 1.419 . S
C1031 H1035 0.930 . S
C1032 C1031 1.369 . S
C1032 C1041 1.429 . S
C1033 C1031 1.419 . S
C1033 C1034 1.363 . S
C1033 H1036 0.929 . S
C1034 C1033 1.363 . S
C1034 C1040 1.428 . S
H1035 C1031 0.930 . S
H1036 C1033 0.929 . S
S1037 N1038 1.613 . S
S1037 N1039 1.610 . S
N1038 S1037 1.613 . S
N1038 C1041 1.350 . S
N1039 S1037 1.610 . S
N1039 C1040 1.351 . S
C1040 C1034 1.428 . S
C1040 N1039 1.351 . S
C1040 C1041 1.434 . S
C1041 C1032 1.429 . S
C1041 N1038 1.350 . S
C1041 C1040 1.434 . S
C1042 C1043 1.369 . S
C1042 C1044 1.419 . S
C1042 H1046 0.930 . S
C1043 C1042 1.369 . S
C1043 C1052 1.429 . S
C1044 C1042 1.419 . S
C1044 C1045 1.363 . S
C1044 H1047 0.929 . S
C1045 C1044 1.363 . S
C1045 C1051 1.428 . S
H1046 C1042 0.930 . S
H1047 C1044 0.929 . S
S1048 N1049 1.613 . S
S1048 N1050 1.610 . S
N1049 S1048 1.613 . S
N1049 C1052 1.350 . S
N1050 S1048 1.610 . S
N1050 C1051 1.351 . S
C1051 C1045 1.428 . S
C1051 N1050 1.351 . S
C1051 C1052 1.434 . S
C1052 C1043 1.429 . S
C1052 N1049 1.350 . S
C1052 C1051 1.434 . S
C1053 C1054 1.369 . S
C1053 C1055 1.419 . S
C1053 H1057 0.930 . S
C1054 C1053 1.369 . S
C1054 C1063 1.429 . S
C1055 C1053 1.419 . S
C1055 C1056 1.363 . S
C1055 H1058 0.929 . S
C1056 C1055 1.363 . S
C1056 C1062 1.428 . S
H1057 C1053 0.930 . S
H1058 C1055 0.929 . S
S1059 N1060 1.613 . S
S1059 N1061 1.610 . S
N1060 S1059 1.613 . S
N1060 C1063 1.350 . S
N1061 S1059 1.610 . S
N1061 C1062 1.351 . S
C1062 C1056 1.428 . S
C1062 N1061 1.351 . S
C1062 C1063 1.434 . S
C1063 C1054 1.429 . S
C1063 N1060 1.350 . S
C1063 C1062 1.434 . S
C1064 C1065 1.369 . S
C1064 C1066 1.419 . S
C1064 H1068 0.930 . S
C1065 C1064 1.369 . S
C1065 C1074 1.429 . S
C1066 C1064 1.419 . S
C1066 C1067 1.363 . S
C1066 H1069 0.929 . S
C1067 C1066 1.363 . S
C1067 C1073 1.428 . S
H1068 C1064 0.930 . S
H1069 C1066 0.929 . S
S1070 N1071 1.613 . S
S1070 N1072 1.610 . S
N1071 S1070 1.613 . S
N1071 C1074 1.350 . S
N1072 S1070 1.610 . S
N1072 C1073 1.351 . S
C1073 C1067 1.428 . S
C1073 N1072 1.351 . S
C1073 C1074 1.434 . S
C1074 C1065 1.429 . S
C1074 N1071 1.350 . S
C1074 C1073 1.434 . S
C1075 C1076 1.369 . S
C1075 C1077 1.419 . S
C1075 H1079 0.930 . S
C1076 C1075 1.369 . S
C1076 C1085 1.429 . S
C1077 C1075 1.419 . S
C1077 C1078 1.363 . S
C1077 H1080 0.929 . S
C1078 C1077 1.363 . S
C1078 C1084 1.428 . S
H1079 C1075 0.930 . S
H1080 C1077 0.929 . S
S1081 N1082 1.613 . S
S1081 N1083 1.610 . S
N1082 S1081 1.613 . S
N1082 C1085 1.350 . S
N1083 S1081 1.610 . S
N1083 C1084 1.351 . S
C1084 C1078 1.428 . S
C1084 N1083 1.351 . S
C1084 C1085 1.434 . S
C1085 C1076 1.429 . S
C1085 N1082 1.350 . S
C1085 C1084 1.434 . S
C1086 C1087 1.369 . S
C1086 C1088 1.419 . S
C1086 H1090 0.930 . S
C1087 C1086 1.369 . S
C1087 C1096 1.429 . S
C1088 C1086 1.419 . S
C1088 C1089 1.363 . S
C1088 H1091 0.929 . S
C1089 C1088 1.363 . S
C1089 C1095 1.428 . S
H1090 C1086 0.930 . S
H1091 C1088 0.929 . S
S1092 N1093 1.613 . S
S1092 N1094 1.610 . S
N1093 S1092 1.613 . S
N1093 C1096 1.350 . S
N1094 S1092 1.610 . S
N1094 C1095 1.351 . S
C1095 C1089 1.428 . S
C1095 N1094 1.351 . S
C1095 C1096 1.434 . S
C1096 C1087 1.429 . S
C1096 N1093 1.350 . S
C1096 C1095 1.434 . S
C1097 C1098 1.369 . S
C1097 C1099 1.419 . S
C1097 H1101 0.930 . S
C1098 C1097 1.369 . S
C1098 C1107 1.429 . S
C1099 C1097 1.419 . S
C1099 C1100 1.363 . S
C1099 H1102 0.929 . S
C1100 C1099 1.363 . S
C1100 C1106 1.428 . S
H1101 C1097 0.930 . S
H1102 C1099 0.929 . S
S1103 N1104 1.613 . S
S1103 N1105 1.610 . S
N1104 S1103 1.613 . S
N1104 C1107 1.350 . S
N1105 S1103 1.610 . S
N1105 C1106 1.351 . S
C1106 C1100 1.428 . S
C1106 N1105 1.351 . S
C1106 C1107 1.434 . S
C1107 C1098 1.429 . S
C1107 N1104 1.350 . S
C1107 C1106 1.434 . S
C1108 C1109 1.369 . S
C1108 C1110 1.419 . S
C1108 H1112 0.930 . S
C1109 C1108 1.369 . S
C1109 C1118 1.429 . S
C1110 C1108 1.419 . S
C1110 C1111 1.363 . S
C1110 H1113 0.929 . S
C1111 C1110 1.363 . S
C1111 C1117 1.428 . S
H1112 C1108 0.930 . S
H1113 C1110 0.929 . S
S1114 N1115 1.613 . S
S1114 N1116 1.610 . S
N1115 S1114 1.613 . S
N1115 C1118 1.350 . S
N1116 S1114 1.610 . S
N1116 C1117 1.351 . S
C1117 C1111 1.428 . S
C1117 N1116 1.351 . S
C1117 C1118 1.434 . S
C1118 C1109 1.429 . S
C1118 N1115 1.350 . S
C1118 C1117 1.434 . S
C1119 C1120 1.369 . S
C1119 C1121 1.419 . S
C1119 H1123 0.930 . S
C1120 C1119 1.369 . S
C1120 C1129 1.429 . S
C1121 C1119 1.419 . S
C1121 C1122 1.363 . S
C1121 H1124 0.929 . S
C1122 C1121 1.363 . S
C1122 C1128 1.428 . S
H1123 C1119 0.930 . S
H1124 C1121 0.929 . S
S1125 N1126 1.613 . S
S1125 N1127 1.605 1_455 S
N1126 S1125 1.613 . S
N1126 C1129 1.350 . S
N1127 S1125 1.605 1_655 S
N1127 C1128 1.343 1_655 S
C1128 C1122 1.428 . S
C1128 N1127 1.343 1_455 S
C1128 C1129 1.434 . S
C1129 C1120 1.429 . S
C1129 N1126 1.350 . S
C1129 C1128 1.434 . S
C1130 C1131 1.369 . S
C1130 C1132 1.419 . S
C1130 H1134 0.930 . S
C1131 C1130 1.369 . S
C1131 C1140 1.429 . S
C1132 C1130 1.419 . S
C1132 C1133 1.363 . S
C1132 H1135 0.929 . S
C1133 C1132 1.363 . S
C1133 C1139 1.428 . S
H1134 C1130 0.930 . S
H1135 C1132 0.929 . S
S1136 N1137 1.613 . S
S1136 N1138 1.610 . S
N1137 S1136 1.613 . S
N1137 C1140 1.350 . S
N1138 S1136 1.610 . S
N1138 C1139 1.351 . S
C1139 C1133 1.428 . S
C1139 N1138 1.351 . S
C1139 C1140 1.434 . S
C1140 C1131 1.429 . S
C1140 N1137 1.350 . S
C1140 C1139 1.434 . S
C1141 C1142 1.369 . S
C1141 C1143 1.419 . S
C1141 H1145 0.930 . S
C1142 C1141 1.369 . S
C1142 C1151 1.429 . S
C1143 C1141 1.419 . S
C1143 C1144 1.363 . S
C1143 H1146 0.929 . S
C1144 C1143 1.363 . S
C1144 C1150 1.428 . S
H1145 C1141 0.930 . S
H1146 C1143 0.929 . S
S1147 N1148 1.613 . S
S1147 N1149 1.610 . S
N1148 S1147 1.613 . S
N1148 C1151 1.350 . S
N1149 S1147 1.610 . S
N1149 C1150 1.351 . S
C1150 C1144 1.428 . S
C1150 N1149 1.351 . S
C1150 C1151 1.434 . S
C1151 C1142 1.429 . S
C1151 N1148 1.350 . S
C1151 C1150 1.434 . S
C449 C67 1.512 . S
C451 C11 1.514 . S
C460 C81 1.512 . S
C462 C25 1.515 . S
C471 C95 1.516 . S
C473 C39 1.513 . S
C482 C53 1.514 . S
C484 C109 1.512 . S
C493 C123 1.513 . S
C495 C179 1.515 . S
C504 C193 1.516 . S
C506 C137 1.514 . S
C515 C151 1.513 . S
C517 C207 1.515 . S
C526 C221 1.511 . S
C528 C165 1.514 . S
C537 C235 1.513 . S
C539 C291 1.512 . S
C548 C305 1.516 . S
C550 C249 1.514 . S
C559 C319 1.515 . S
C561 C263 1.513 . S
C570 C333 1.512 . S
C572 C277 1.514 . S
C581 C347 1.512 . S
C583 C403 1.515 . S
C592 C361 1.512 . S
C594 C417 1.513 . S
C603 C375 1.512 . S
C605 C431 1.515 . S
C614 C389 1.516 . S
C616 C445 1.514 . S
C625 C9 1.328 1_565 S
C627 C107 1.338 . S
C636 C23 1.339 . S
C638 C65 1.328 1_545 S
C647 C37 1.332 1_545 S
C649 C79 1.335 . S
C658 C93 1.328 1_565 S
C660 C51 1.337 . S
C669 C219 1.333 . S
C671 C121 1.332 1_545 S
C680 C177 1.331 1_565 S
C682 C135 1.336 . S
C691 C191 1.335 . S
C693 C149 1.330 1_565 S
C702 C163 1.335 . S
C704 C205 1.332 1_545 S
C713 C331 1.336 . S
C715 C233 1.337 . S
C724 C289 1.337 . S
C726 C247 1.334 . S
C735 C303 1.338 . S
C737 C261 1.334 . S
C746 C275 1.333 . S
C748 C317 1.338 . S
C757 C345 1.334 . S
C759 C443 1.336 . S
C768 C359 1.335 . S
C770 C401 1.337 . S
C779 C373 1.337 . S
C781 C415 1.334 . S
C790 C429 1.334 . S
C792 C387 1.336 . S
C801 C5 1.484 . S
C803 C350 1.466 . S
C812 C19 1.484 . S
C814 C140 1.466 1_455 S
C823 C33 1.484 . S
C825 C378 1.466 . S
C834 C112 1.466 . S
C836 C47 1.484 . S
C845 C434 1.465 . S
C847 C61 1.484 . S
C856 C75 1.484 . S
C858 C168 1.465 . S
C867 C89 1.483 . S
C869 C406 1.464 . S
C878 C103 1.483 . S
C880 C196 1.464 1_455 S
C889 C238 1.461 . S
C891 C117 1.483 . S
C900 C28 1.467 1_655 S
C902 C131 1.484 . S
C911 C266 1.467 . S
C913 C145 1.484 . S
C922 C159 1.483 . S
C924 C0 1.463 . S
C933 C322 1.461 . S
C935 C173 1.483 . S
C944 C56 1.467 . S
C946 C187 1.484 . S
C955 C294 1.467 . S
C957 C201 1.484 . S
C966 C84 1.461 1_655 S
C968 C215 1.483 . S
C977 C126 1.465 . S
C979 C229 1.484 . S
C988 C243 1.484 . S
C990 C364 1.463 . S
C999 C257 1.484 . S
C1001 C154 1.466 . S
C1010 C271 1.484 . S
C1012 C336 1.465 1_655 S
C1021 C285 1.484 . S
C1023 C210 1.466 . S
C1032 C392 1.465 1_655 S
C1034 C299 1.484 . S
C1043 C313 1.483 . S
C1045 C182 1.463 . S
C1054 C327 1.484 . S
C1056 C420 1.464 . S
C1065 C341 1.484 . S
C1067 C14 1.466 . S
C1076 C355 1.484 . S
C1078 C252 1.465 . S
C1087 C42 1.466 . S
C1089 C369 1.484 . S
C1098 C224 1.467 1_455 S
C1100 C383 1.484 . S
C1109 C397 1.483 . S
C1111 C98 1.462 . S
C1120 C411 1.483 . S
C1122 C280 1.463 1_455 S
C1131 C70 1.467 . S
C1133 C425 1.484 . S
C1142 C308 1.462 . S
C1144 C439 1.483 . S
