# Generated by pormake.
# Topology rob, (6)-cn, num edge types: 1
# Building blocks:
#     Node 0, Type 0, BuildingBlock: LEVNOQ01_clean_sbu_1, # of connection points: 6
#     Node 1, Type 0, BuildingBlock: LEVNOQ01_clean_sbu_1, # of connection points: 6
#     Node 2, Type 0, BuildingBlock: LEVNOQ01_clean_sbu_1, # of connection points: 6
#     Node 3, Type 0, BuildingBlock: LEVNOQ01_clean_sbu_1, # of connection points: 6
#     Edge 4, Type (0, 0), BuildingBlock: KIFKEQ_clean_linker_1, # of connection points: 2
#     Edge 5, Type (0, 0), BuildingBlock: KIFKEQ_clean_linker_1, # of connection points: 2
#     Edge 6, Type (0, 0), BuildingBlock: KIFKEQ_clean_linker_1, # of connection points: 2
#     Edge 7, Type (0, 0), BuildingBlock: KIFKEQ_clean_linker_1, # of connection points: 2
#     Edge 8, Type (0, 0), BuildingBlock: KIFKEQ_clean_linker_1, # of connection points: 2
#     Edge 9, Type (0, 0), BuildingBlock: KIFKEQ_clean_linker_1, # of connection points: 2
#     Edge 10, Type (0, 0), BuildingBlock: KIFKEQ_clean_linker_1, # of connection points: 2
#     Edge 11, Type (0, 0), BuildingBlock: KIFKEQ_clean_linker_1, # of connection points: 2
#     Edge 12, Type (0, 0), BuildingBlock: KIFKEQ_clean_linker_1, # of connection points: 2
#     Edge 13, Type (0, 0), BuildingBlock: KIFKEQ_clean_linker_1, # of connection points: 2
#     Edge 14, Type (0, 0), BuildingBlock: KIFKEQ_clean_linker_1, # of connection points: 2
#     Edge 15, Type (0, 0), BuildingBlock: KIFKEQ_clean_linker_1, # of connection points: 2
# Relax obj value: 0.201
# Max RMSD: 0.226
# Mean RMSD: 0.226
data_MOF--net-rob--node1-LEVNOQ01_clean_sbu_1--edge1-KIFKEQ_clean_linker_1
_symmetry_space_group_name_H-M    P1
_symmetry_Int_Tables_number       1
_symmetry_cell_setting            triclinic
loop_
_symmetry_equiv_pos_as_xyz
'x, y, z'
_cell_length_a     15.474229
_cell_length_b     27.916219
_cell_length_c     25.948905
_cell_angle_alpha  106.28
_cell_angle_beta   89.014587
_cell_angle_gamma 90.673322
loop_
_atom_site_label
_atom_site_type_symbol
_atom_site_fract_x
_atom_site_fract_y
_atom_site_fract_z
_atom_type_partial_charge
O0 O 0.02002 0.32307 0.07237 0.0
Mg1 Mg 0.14586 0.34888 0.09467 0.0
O2 O 0.07883 0.24882 0.04668 0.0
Mg3 Mg 0.2211 0.25286 0.01528 0.0
O4 O 0.23254 0.33976 0.03313 0.0
O5 O 0.18473 0.4145 0.08108 0.0
O6 O 0.36108 0.26039 0.98351 0.0
O7 O 0.17342 0.24849 0.92856 0.0
Mg8 Mg 0.30899 0.17097 0.94893 0.0
O9 O 0.20909 0.16417 0.99925 0.0
O10 O 0.43505 0.1931 0.97584 0.0
O11 O 0.26467 0.19184 0.88135 0.0
O12 O 0.28222 0.09953 0.94551 0.0
C13 C 0.25434 0.28606 0.14853 0.0
C14 C 0.01279 0.2763 0.06295 0.0
C15 C 0.23605 0.38828 0.04451 0.0
C16 C 0.43293 0.23766 0.97388 0.0
C17 C 0.20519 0.22327 0.88327 0.0
C18 C 0.22129 0.11605 0.98031 0.0
O19 O 0.20735 0.32457 0.15598 0.0
O20 O 0.26852 0.25683 0.10147 0.0
O21 O 0.53488 0.80894 0.03408 0.0
Mg22 Mg 0.65941 0.82739 0.06477 0.0
O23 O 0.59395 0.73794 0.03097 0.0
Mg24 Mg 0.73667 0.73981 0.99848 0.0
O25 O 0.76156 0.82737 0.01436 0.0
O26 O 0.6971 0.89692 0.06515 0.0
O27 O 0.87855 0.74185 0.96558 0.0
O28 O 0.68872 0.73643 0.91218 0.0
Mg29 Mg 0.81289 0.65326 0.9308 0.0
O30 O 0.71439 0.6522 0.98393 0.0
O31 O 0.94094 0.67031 0.95536 0.0
O32 O 0.77005 0.67499 0.86351 0.0
O33 O 0.77707 0.58361 0.93009 0.0
C34 C 0.7546 0.77031 0.12991 0.0
C35 C 0.52673 0.76507 0.03771 0.0
C36 C 0.75728 0.87604 0.03162 0.0
C37 C 0.9464 0.71524 0.95485 0.0
C38 C 0.71563 0.70936 0.86641 0.0
C39 C 0.71959 0.60358 0.96608 0.0
O40 O 0.69948 0.80432 0.1323 0.0
O41 O 0.78341 0.74355 0.08453 0.0
O42 O 0.03799 0.66712 0.45029 0.0
Mg43 Mg 0.16908 0.65212 0.43066 0.0
O44 O 0.10141 0.73933 0.46258 0.0
Mg45 Mg 0.2408 0.73818 0.49777 0.0
O46 O 0.26268 0.65026 0.48504 0.0
O47 O 0.20045 0.58243 0.42944 0.0
O48 O 0.38023 0.73823 0.5327 0.0
O49 O 0.18918 0.74379 0.58407 0.0
Mg50 Mg 0.31788 0.82941 0.56266 0.0
O51 O 0.21825 0.82495 0.5114 0.0
O52 O 0.44464 0.8087 0.53569 0.0
O53 O 0.27127 0.80685 0.62974 0.0
O54 O 0.27978 0.89718 0.55753 0.0
C55 C 0.27245 0.70691 0.36673 0.0
C56 C 0.03404 0.71209 0.44993 0.0
C57 C 0.25605 0.60167 0.4661 0.0
C58 C 0.44853 0.76513 0.5407 0.0
C59 C 0.21667 0.77218 0.62868 0.0
C60 C 0.22069 0.8737 0.52541 0.0
O61 O 0.21823 0.67177 0.36272 0.0
O62 O 0.29544 0.7347 0.41253 0.0
O63 O 0.52413 0.17058 0.4761 0.0
Mg64 Mg 0.65094 0.15324 0.44703 0.0
O65 O 0.59029 0.23895 0.47358 0.0
Mg66 Mg 0.73069 0.23694 0.50793 0.0
O67 O 0.75247 0.14928 0.49534 0.0
O68 O 0.68431 0.08253 0.4419 0.0
O69 O 0.87105 0.2364 0.54308 0.0
O70 O 0.67749 0.24364 0.59386 0.0
Mg71 Mg 0.80976 0.32429 0.5702 0.0
O72 O 0.709 0.32382 0.52037 0.0
O73 O 0.93542 0.30528 0.54018 0.0
O74 O 0.76987 0.30116 0.63849 0.0
O75 O 0.7734 0.39366 0.5701 0.0
C76 C 0.74812 0.20696 0.37823 0.0
C77 C 0.52088 0.21312 0.46827 0.0
C78 C 0.74395 0.10084 0.47615 0.0
C79 C 0.93963 0.26312 0.54881 0.0
C80 C 0.71064 0.26915 0.63802 0.0
C81 C 0.71454 0.37249 0.53647 0.0
O82 O 0.68705 0.17628 0.37824 0.0
O83 O 0.78433 0.23077 0.42199 0.0
H84 H 0.69998 0.50333 0.92234 0.0
H85 H 0.59168 0.62801 0.04365 0.0
H86 H 0.58387 0.44975 0.93788 0.0
H87 H 0.47416 0.57388 0.05942 0.0
H88 H 0.22751 0.47979 0.02798 0.0
H89 H 0.34752 0.53123 0.01145 0.0
H90 H 0.52331 0.40991 1.0024 0.0
H91 H 0.40277 0.3588 0.01949 0.0
C92 C 0.65177 0.51933 0.95287 0.0
C93 C 0.65422 0.57039 0.98118 0.0
C94 C 0.5851 0.48838 0.9618 0.0
C95 C 0.51898 0.50754 0.99933 0.0
C96 C 0.52308 0.55818 0.02926 0.0
C97 C 0.59029 0.58921 0.0204 0.0
C98 C 0.29161 0.46381 0.02133 0.0
C99 C 0.30556 0.41481 0.02369 0.0
C100 C 0.36054 0.49351 0.01263 0.0
C101 C 0.44526 0.47498 0.00626 0.0
C102 C 0.45877 0.42527 0.0067 0.0
C103 C 0.38962 0.39561 0.01564 0.0
H104 H 0.36752 0.62061 0.55156 0.0
H105 H 0.28562 0.5047 0.41232 0.0
H106 H 0.47739 0.56451 0.56855 0.0
H107 H 0.39503 0.44969 0.42805 0.0
H108 H 0.55518 0.3452 0.49325 0.0
H109 H 0.44022 0.39993 0.48089 0.0
H110 H 0.61098 0.52734 0.53472 0.0
H111 H 0.72384 0.47273 0.54891 0.0
C112 C 0.37323 0.58336 0.52456 0.0
C113 C 0.31833 0.5675 0.48043 0.0
C114 C 0.43626 0.55113 0.53406 0.0
C115 C 0.44586 0.50235 0.49945 0.0
C116 C 0.38927 0.48643 0.45615 0.0
C117 C 0.32634 0.51835 0.44699 0.0
C118 C 0.5681 0.3848 0.50185 0.0
C119 C 0.64848 0.40446 0.52202 0.0
C120 C 0.50226 0.41638 0.49486 0.0
C121 C 0.51563 0.46846 0.50725 0.0
C122 C 0.59716 0.48778 0.52599 0.0
C123 C 0.66246 0.45627 0.53348 0.0
H124 H 0.20454 0.0176 0.9264 0.0
H125 H 0.10122 0.13039 0.06227 0.0
H126 H 0.09472 0.95878 0.93874 0.0
H127 H -0.01214 0.07155 0.07365 0.0
H128 H 0.7427 0.97204 0.02799 0.0
H129 H 0.85899 0.02958 0.01997 0.0
H130 H 0.04498 0.91185 1.00313 0.0
H131 H 0.92836 0.85489 0.01326 0.0
C132 C 0.15852 0.0299 0.95927 0.0
C133 C 0.15993 0.07934 0.99262 0.0
C134 C 0.09547 -0.004 0.96626 0.0
C135 C 0.03182 0.01065 0.00661 0.0
C136 C 0.03499 0.0595 0.04138 0.0
C137 C 0.09913 0.09332 0.03474 0.0
C138 C 0.80836 0.95831 0.0219 0.0
C139 C 0.82633 0.90841 0.01929 0.0
C140 C 0.87499 0.9914 0.0179 0.0
C141 C 0.96119 0.97534 0.01108 0.0
C142 C 0.97906 0.9252 0.00767 0.0
C143 C 0.91232 0.89224 0.01233 0.0
H144 H 0.87588 0.12181 0.54871 0.0
H145 H 0.75677 0.00047 0.42954 0.0
H146 H -0.00891 0.06566 0.55884 0.0
H147 H 0.87038 0.94467 0.43962 0.0
H148 H 0.05003 0.84863 0.51061 0.0
H149 H 0.93133 0.90248 0.50091 0.0
H150 H 0.1139 0.0219 0.50577 0.0
H151 H 0.232 0.9677 0.51459 0.0
C152 C 0.87445 0.0833 0.52473 0.0
C153 C 0.80807 0.06608 0.48779 0.0
C154 C 0.94029 0.05106 0.53038 0.0
C155 C 0.94061 0.00065 0.49952 0.0
C156 C 0.87213 0.98306 0.46424 0.0
C157 C 0.80686 0.01528 0.45844 0.0
C158 C 0.06484 0.88572 0.5075 0.0
C159 C 0.15043 0.90341 0.51176 0.0
C160 C -0.00318 0.91692 0.50278 0.0
C161 C 0.0129 0.96678 0.50301 0.0
C162 C 0.09889 0.98407 0.50639 0.0
C163 C 0.16671 0.95282 0.5108 0.0
H164 H 0.42615 0.29655 0.4712 0.0
H165 H 0.48187 0.14732 0.37422 0.0
H166 H 0.35236 0.31334 0.39565 0.0
H167 H 0.41501 0.16431 0.29797 0.0
H168 H 0.25858 0.19532 0.16797 0.0
H169 H 0.30341 0.17664 0.24959 0.0
H170 H 0.37729 0.33154 0.31686 0.0
H171 H 0.32468 0.35024 0.23689 0.0
C172 C 0.42153 0.26722 0.43384 0.0
C173 C 0.45877 0.22058 0.42873 0.0
C174 C 0.38041 0.27688 0.39006 0.0
C175 C 0.37824 0.24054 0.33962 0.0
C176 C 0.41296 0.19322 0.33575 0.0
C177 C 0.45157 0.18327 0.3798 0.0
C178 C 0.28481 0.22514 0.20032 0.0
C179 C 0.28902 0.27406 0.19606 0.0
C180 C 0.31096 0.21456 0.24731 0.0
C181 C 0.34485 0.25239 0.29063 0.0
C182 C 0.34986 0.30135 0.28555 0.0
C183 C 0.32096 0.31212 0.23925 0.0
H184 H 0.4308 0.83243 0.11211 0.0
H185 H 0.46598 0.67413 0.0433 0.0
H186 H 0.36003 0.81746 0.18981 0.0
H187 H 0.39169 0.65844 0.12092 0.0
H188 H 0.39343 0.65593 0.2968 0.0
H189 H 0.4342 0.66749 0.20969 0.0
H190 H 0.25122 0.78841 0.23578 0.0
H191 H 0.21506 0.77812 0.32412 0.0
C192 C 0.42017 0.7941 0.11247 0.0
C193 C 0.45633 0.75439 0.07223 0.0
C194 C 0.37954 0.78545 0.15745 0.0
C195 C 0.37251 0.73678 0.16276 0.0
C196 C 0.39915 0.69661 0.11928 0.0
C197 C 0.44092 0.7054 0.07452 0.0
C198 C 0.36355 0.68548 0.28395 0.0
C199 C 0.30329 0.71711 0.3172 0.0
C200 C 0.38534 0.69157 0.23367 0.0
C201 C 0.34561 0.72873 0.21518 0.0
C202 C 0.28428 0.75996 0.24878 0.0
C203 C 0.26372 0.75434 0.29943 0.0
H204 H 0.74578 0.65071 0.76447 0.0
H205 H 0.61708 0.78624 0.85274 0.0
H206 H 0.69862 0.66335 0.68036 0.0
H207 H 0.56932 0.79862 0.76799 0.0
H208 H 0.55653 0.83106 0.60845 0.0
H209 H 0.6296 0.81747 0.6855 0.0
H210 H 0.56059 0.66116 0.63279 0.0
H211 H 0.48837 0.67469 0.55517 0.0
C212 C 0.70737 0.68329 0.76604 0.0
C213 C 0.68503 0.71746 0.81557 0.0
C214 C 0.68025 0.69038 0.71767 0.0
C215 C 0.63065 0.73205 0.71742 0.0
C216 C 0.60863 0.76648 0.76683 0.0
C217 C 0.63526 0.75918 0.81542 0.0
C218 C 0.55923 0.79342 0.61219 0.0
C219 C 0.51518 0.75397 0.57604 0.0
C220 C 0.60004 0.78586 0.65691 0.0
C221 C 0.59885 0.73858 0.66604 0.0
C222 C 0.56213 0.69817 0.62716 0.0
C223 C 0.5207 0.70585 0.58264 0.0
H224 H 0.80265 0.28429 0.7296 0.0
H225 H 0.54991 0.24048 0.66353 0.0
H226 H 0.74943 0.28143 0.81818 0.0
H227 H 0.49657 0.23879 0.7525 0.0
H228 H 0.41221 0.31071 0.92431 0.0
H229 H 0.48945 0.31842 0.8451 0.0
H230 H 0.67092 0.20697 0.85929 0.0
H231 H 0.59313 0.19865 0.93959 0.0
C232 C 0.73584 0.27386 0.73403 0.0
C233 C 0.68001 0.26291 0.68988 0.0
C234 C 0.70579 0.27213 0.78456 0.0
C235 C 0.61905 0.26047 0.79189 0.0
C236 C 0.56371 0.24832 0.74761 0.0
C237 C 0.59419 0.249 0.69682 0.0
C238 C 0.47068 0.28929 0.91247 0.0
C239 C 0.49621 0.25388 0.93855 0.0
C240 C 0.514 0.29324 0.86638 0.0
C241 C 0.5845 0.26247 0.84576 0.0
C242 C 0.61603 0.23077 0.87451 0.0
C243 C 0.57187 0.22631 0.92056 0.0
H244 H 0.741 0.8346 0.2304 0.0
H245 H 0.83572 0.6884 0.14492 0.0
H246 H 0.79078 0.82288 0.31469 0.0
H247 H 0.88479 0.67663 0.22979 0.0
H248 H 0.02334 0.79977 0.42313 0.0
H249 H 0.94282 0.81469 0.3498 0.0
H250 H 0.82101 0.67003 0.32156 0.0
H251 H 0.89928 0.65561 0.39678 0.0
C252 C 0.77198 0.7998 0.22959 0.0
C253 C 0.78482 0.76247 0.18083 0.0
C254 C 0.80039 0.79318 0.27793 0.0
C255 C 0.841 0.74877 0.27882 0.0
C256 C 0.85256 0.71101 0.23031 0.0
C257 C 0.82533 0.71794 0.18171 0.0
C258 C 0.97635 0.7721 0.40337 0.0
C259 C 0.96774 0.72664 0.41647 0.0
C260 C 0.93087 0.78044 0.3607 0.0
C261 C 0.8768 0.74315 0.32947 0.0
C262 C 0.86331 0.6991 0.34461 0.0
C263 C 0.90758 0.69113 0.38806 0.0
H264 H 0.91167 0.2186 0.34244 0.0
H265 H 0.64337 0.21301 0.2978 0.0
H266 H 0.95409 0.22694 0.25366 0.0
H267 H 0.68591 0.22324 0.20989 0.0
H268 H -0.01195 0.18134 0.07014 0.0
H269 H 0.91229 0.1605 0.1445 0.0
H270 H 0.79375 0.30557 0.18927 0.0
H271 H 0.87264 0.32745 0.11671 0.0
C272 C 0.86204 0.21964 0.31383 0.0
C273 C 0.77455 0.21516 0.32664 0.0
C274 C 0.88613 0.2239 0.26313 0.0
C275 C 0.82295 0.22502 0.22521 0.0
C276 C 0.73542 0.22184 0.23845 0.0
C277 C 0.71142 0.21618 0.28856 0.0
C278 C 0.94451 0.20831 0.095 0.0
C279 C 0.93997 0.25674 0.08917 0.0
C280 C 0.90112 0.19637 0.13744 0.0
C281 C 0.84957 0.23211 0.17309 0.0
C282 C 0.83423 0.27774 0.16242 0.0
C283 C 0.87915 0.29005 0.12066 0.0
H284 H -0.00838 0.17544 0.56564 0.0
H285 H 0.03201 0.33475 0.62064 0.0
H286 H 0.06163 0.16625 0.64606 0.0
H287 H 0.10305 0.32563 0.70033 0.0
H288 H 0.2472 0.16727 0.78196 0.0
H289 H 0.19861 0.17688 0.69685 0.0
H290 H 0.04429 0.30317 0.78155 0.0
H291 H 0.09338 0.29382 0.86742 0.0
C292 C 0.01708 0.20826 0.59427 0.0
C293 C 0.00486 0.25569 0.58704 0.0
C294 C 0.05737 0.20311 0.64032 0.0
C295 C 0.086 0.24543 0.68021 0.0
C296 C 0.0799 0.29246 0.67092 0.0
C297 C 0.04041 0.29751 0.62468 0.0
C298 C 0.20295 0.19724 0.78272 0.0
C299 C 0.17401 0.22976 0.83178 0.0
C300 C 0.17498 0.20256 0.73375 0.0
C301 C 0.11788 0.24081 0.73238 0.0
C302 C 0.08928 0.27367 0.7813 0.0
C303 C 0.11679 0.2681 0.8305 0.0
H304 H 0.13409 0.6907 0.64697 0.0
H305 H 0.236 0.83678 0.72811 0.0
H306 H 0.09078 0.67911 0.73396 0.0
H307 H 0.19289 0.825 0.81437 0.0
H308 H 0.96537 0.80399 0.93111 0.0
H309 H 0.04556 0.81849 0.85598 0.0
H310 H 0.15761 0.67195 0.82261 0.0
H311 H 0.07927 0.65784 0.89963 0.0
C312 C 0.14717 0.72024 0.68321 0.0
C313 C 0.18784 0.76474 0.68056 0.0
C314 C 0.12351 0.71336 0.73297 0.0
C315 C 0.13928 0.75105 0.78082 0.0
C316 C 0.18013 0.79537 0.77812 0.0
C317 C 0.20455 0.80204 0.72862 0.0
C318 C 0.01037 0.77582 0.90988 0.0
C319 C 0.01547 0.7298 0.92177 0.0
C320 C 0.05571 0.78392 0.86618 0.0
C321 C 0.1063 0.7459 0.83289 0.0
C322 C 0.11772 0.70152 0.84724 0.0
C323 C 0.07349 0.69375 0.89172 0.0
loop_
_geom_bond_atom_site_label_1
_geom_bond_atom_site_label_2
_geom_bond_distance
_geom_bond_site_symmetry_2
_ccdc_geom_bond_type
O0 Mg1 1.990 . S
O0 C14 1.253 . S
Mg1 O0 1.990 . S
Mg1 O4 2.180 . S
Mg1 O5 2.117 . S
Mg1 O19 2.030 . S
O2 Mg3 2.076 . S
O2 C14 1.260 . S
Mg3 O2 2.076 . S
Mg3 O4 2.099 . S
Mg3 O6 2.075 1_554 S
Mg3 O7 2.068 1_554 S
Mg3 O9 2.098 1_554 S
Mg3 O20 2.083 . S
O4 Mg1 2.180 . S
O4 Mg3 2.099 . S
O4 C15 1.279 . S
O5 Mg1 2.117 . S
O5 C15 1.250 . S
O6 Mg3 2.075 1_556 S
O6 C16 1.264 . S
O7 Mg3 2.068 1_556 S
O7 C17 1.260 . S
Mg8 O9 2.180 . S
Mg8 O10 2.030 . S
Mg8 O11 1.990 . S
Mg8 O12 2.117 . S
O9 Mg3 2.098 1_556 S
O9 Mg8 2.180 . S
O9 C18 1.279 . S
O10 Mg8 2.030 . S
O10 C16 1.248 . S
O11 Mg8 1.990 . S
O11 C17 1.253 . S
O12 Mg8 2.117 . S
O12 C18 1.250 . S
C13 O19 1.248 . S
C13 O20 1.264 . S
C14 O0 1.253 . S
C14 O2 1.260 . S
C15 O4 1.279 . S
C15 O5 1.250 . S
C16 O6 1.264 . S
C16 O10 1.248 . S
C17 O7 1.260 . S
C17 O11 1.253 . S
C18 O9 1.279 . S
C18 O12 1.250 . S
O19 Mg1 2.030 . S
O19 C13 1.248 . S
O20 Mg3 2.083 . S
O20 C13 1.264 . S
O21 Mg22 1.990 . S
O21 C35 1.253 . S
Mg22 O21 1.990 . S
Mg22 O25 2.180 . S
Mg22 O26 2.117 . S
Mg22 O40 2.030 . S
O23 Mg24 2.076 . S
O23 C35 1.260 . S
Mg24 O23 2.076 . S
Mg24 O25 2.099 . S
Mg24 O27 2.075 1_554 S
Mg24 O28 2.068 1_554 S
Mg24 O30 2.098 1_554 S
Mg24 O41 2.083 . S
O25 Mg22 2.180 . S
O25 Mg24 2.099 . S
O25 C36 1.279 . S
O26 Mg22 2.117 . S
O26 C36 1.250 . S
O27 Mg24 2.075 1_556 S
O27 C37 1.264 . S
O28 Mg24 2.068 1_556 S
O28 C38 1.260 . S
Mg29 O30 2.180 . S
Mg29 O31 2.030 . S
Mg29 O32 1.990 . S
Mg29 O33 2.117 . S
O30 Mg24 2.098 1_556 S
O30 Mg29 2.180 . S
O30 C39 1.279 . S
O31 Mg29 2.030 . S
O31 C37 1.248 . S
O32 Mg29 1.990 . S
O32 C38 1.253 . S
O33 Mg29 2.117 . S
O33 C39 1.250 . S
C34 O40 1.248 . S
C34 O41 1.264 . S
C35 O21 1.253 . S
C35 O23 1.260 . S
C36 O25 1.279 . S
C36 O26 1.250 . S
C37 O27 1.264 . S
C37 O31 1.248 . S
C38 O28 1.260 . S
C38 O32 1.253 . S
C39 O30 1.279 . S
C39 O33 1.250 . S
O40 Mg22 2.030 . S
O40 C34 1.248 . S
O41 Mg24 2.083 . S
O41 C34 1.264 . S
O42 Mg43 1.990 . S
O42 C56 1.253 . S
Mg43 O42 1.990 . S
Mg43 O46 2.180 . S
Mg43 O47 2.117 . S
Mg43 O61 2.030 . S
O44 Mg45 2.072 . S
O44 C56 1.260 . S
Mg45 O44 2.072 . S
Mg45 O46 2.099 . S
Mg45 O48 2.079 . S
Mg45 O49 2.072 . S
Mg45 O51 2.099 . S
Mg45 O62 2.079 . S
O46 Mg43 2.180 . S
O46 Mg45 2.099 . S
O46 C57 1.279 . S
O47 Mg43 2.117 . S
O47 C57 1.250 . S
O48 Mg45 2.079 . S
O48 C58 1.264 . S
O49 Mg45 2.072 . S
O49 C59 1.260 . S
Mg50 O51 2.180 . S
Mg50 O52 2.030 . S
Mg50 O53 1.990 . S
Mg50 O54 2.117 . S
O51 Mg45 2.099 . S
O51 Mg50 2.180 . S
O51 C60 1.279 . S
O52 Mg50 2.030 . S
O52 C58 1.248 . S
O53 Mg50 1.990 . S
O53 C59 1.253 . S
O54 Mg50 2.117 . S
O54 C60 1.250 . S
C55 O61 1.248 . S
C55 O62 1.264 . S
C56 O42 1.253 . S
C56 O44 1.260 . S
C57 O46 1.279 . S
C57 O47 1.250 . S
C58 O48 1.264 . S
C58 O52 1.248 . S
C59 O49 1.260 . S
C59 O53 1.253 . S
C60 O51 1.279 . S
C60 O54 1.250 . S
O61 Mg43 2.030 . S
O61 C55 1.248 . S
O62 Mg45 2.079 . S
O62 C55 1.264 . S
O63 Mg64 1.990 . S
O63 C77 1.253 . S
Mg64 O63 1.990 . S
Mg64 O67 2.180 . S
Mg64 O68 2.117 . S
Mg64 O82 2.030 . S
O65 Mg66 2.072 . S
O65 C77 1.260 . S
Mg66 O65 2.072 . S
Mg66 O67 2.099 . S
Mg66 O69 2.079 . S
Mg66 O70 2.072 . S
Mg66 O72 2.099 . S
Mg66 O83 2.079 . S
O67 Mg64 2.180 . S
O67 Mg66 2.099 . S
O67 C78 1.279 . S
O68 Mg64 2.117 . S
O68 C78 1.250 . S
O69 Mg66 2.079 . S
O69 C79 1.264 . S
O70 Mg66 2.072 . S
O70 C80 1.260 . S
Mg71 O72 2.180 . S
Mg71 O73 2.030 . S
Mg71 O74 1.990 . S
Mg71 O75 2.117 . S
O72 Mg66 2.099 . S
O72 Mg71 2.180 . S
O72 C81 1.279 . S
O73 Mg71 2.030 . S
O73 C79 1.248 . S
O74 Mg71 1.990 . S
O74 C80 1.253 . S
O75 Mg71 2.117 . S
O75 C81 1.250 . S
C76 O82 1.248 . S
C76 O83 1.264 . S
C77 O63 1.253 . S
C77 O65 1.260 . S
C78 O67 1.279 . S
C78 O68 1.250 . S
C79 O69 1.264 . S
C79 O73 1.248 . S
C80 O70 1.260 . S
C80 O74 1.253 . S
C81 O72 1.279 . S
C81 O75 1.250 . S
O82 Mg64 2.030 . S
O82 C76 1.248 . S
O83 Mg66 2.079 . S
O83 C76 1.264 . S
H84 C92 0.950 . S
H85 C97 0.950 . S
H86 C94 0.950 . S
H87 C96 0.950 . S
H88 C98 0.950 . S
H89 C100 0.950 . S
H90 C102 0.950 . S
H91 C103 0.950 . S
C92 H84 0.950 . S
C92 C93 1.386 . S
C92 C94 1.391 . S
C93 C92 1.386 . S
C93 C97 1.393 1_554 S
C94 H86 0.950 . S
C94 C92 1.391 . S
C94 C95 1.400 . S
C95 C94 1.400 . S
C95 C96 1.398 1_554 S
C95 C101 1.487 . S
C96 H87 0.950 . S
C96 C95 1.398 1_556 S
C96 C97 1.391 . S
C97 H85 0.950 . S
C97 C93 1.393 1_556 S
C97 C96 1.391 . S
C98 H88 0.950 . S
C98 C99 1.386 1_556 S
C98 C100 1.391 . S
C99 C98 1.386 1_554 S
C99 C103 1.393 . S
C100 H89 0.950 . S
C100 C98 1.391 . S
C100 C101 1.390 1_556 S
C101 C95 1.487 . S
C101 C100 1.390 1_554 S
C101 C102 1.412 . S
C102 H90 0.950 . S
C102 C101 1.412 . S
C102 C103 1.391 . S
C103 H91 0.950 . S
C103 C99 1.393 . S
C103 C102 1.391 . S
H104 C112 0.950 . S
H105 C117 0.950 . S
H106 C114 0.950 . S
H107 C116 0.950 . S
H108 C118 0.950 . S
H109 C120 0.950 . S
H110 C122 0.950 . S
H111 C123 0.950 . S
C112 H104 0.950 . S
C112 C113 1.386 . S
C112 C114 1.391 . S
C113 C112 1.386 . S
C113 C117 1.393 . S
C114 H106 0.950 . S
C114 C112 1.391 . S
C114 C115 1.400 . S
C115 C114 1.400 . S
C115 C116 1.398 . S
C115 C121 1.491 . S
C116 H107 0.950 . S
C116 C115 1.398 . S
C116 C117 1.391 . S
C117 H105 0.950 . S
C117 C113 1.393 . S
C117 C116 1.391 . S
C118 H108 0.950 . S
C118 C119 1.386 . S
C118 C120 1.391 . S
C119 C118 1.386 . S
C119 C123 1.393 . S
C120 H109 0.950 . S
C120 C118 1.391 . S
C120 C121 1.400 . S
C121 C115 1.491 . S
C121 C120 1.400 . S
C121 C122 1.398 . S
C122 H110 0.950 . S
C122 C121 1.398 . S
C122 C123 1.391 . S
C123 H111 0.950 . S
C123 C119 1.393 . S
C123 C122 1.391 . S
H124 C132 0.950 . S
H125 C137 0.950 . S
H126 C134 0.950 1_565 S
H127 C136 0.950 . S
H128 C138 0.950 . S
H129 C140 0.950 1_545 S
H130 C142 0.950 1_455 S
H131 C143 0.950 . S
C132 H124 0.950 . S
C132 C133 1.386 1_556 S
C132 C134 1.391 . S
C133 C132 1.386 1_554 S
C133 C137 1.393 . S
C134 H126 0.950 1_545 S
C134 C132 1.391 . S
C134 C135 1.400 1_556 S
C135 C134 1.400 1_554 S
C135 C136 1.398 1_455 S
C135 C141 1.488 1_445 S
C136 H127 0.950 . S
C136 C135 1.398 1_655 S
C136 C137 1.391 1_655 S
C137 H125 0.950 . S
C137 C133 1.393 . S
C137 C136 1.391 1_455 S
C138 H128 0.950 . S
C138 C139 1.393 . S
C138 C140 1.391 . S
C139 C138 1.393 . S
C139 C143 1.381 1_554 S
C140 H129 0.950 1_565 S
C140 C138 1.391 . S
C140 C141 1.409 . S
C141 C135 1.488 1_665 S
C141 C140 1.409 . S
C141 C142 1.392 1_554 S
C142 H130 0.950 1_655 S
C142 C141 1.392 1_556 S
C142 C143 1.391 . S
C143 H131 0.950 . S
C143 C139 1.381 1_556 S
C143 C142 1.391 . S
H144 C152 0.950 . S
H145 C157 0.950 . S
H146 C154 0.950 . S
H147 C156 0.950 1_565 S
H148 C158 0.950 . S
H149 C160 0.950 1_655 S
H150 C162 0.950 1_545 S
H151 C163 0.950 . S
C152 H144 0.950 . S
C152 C153 1.386 . S
C152 C154 1.391 . S
C153 C152 1.386 . S
C153 C157 1.393 . S
C154 H146 0.950 . S
C154 C152 1.391 . S
C154 C155 1.400 . S
C155 C154 1.400 . S
C155 C156 1.398 . S
C155 C161 1.491 1_645 S
C156 H147 0.950 1_545 S
C156 C155 1.398 . S
C156 C157 1.391 . S
C157 H145 0.950 . S
C157 C153 1.393 . S
C157 C156 1.391 . S
C158 H148 0.950 . S
C158 C159 1.386 . S
C158 C160 1.391 . S
C159 C158 1.386 . S
C159 C163 1.393 . S
C160 H149 0.950 1_455 S
C160 C158 1.391 . S
C160 C161 1.400 . S
C161 C155 1.491 1_465 S
C161 C160 1.400 . S
C161 C162 1.398 . S
C162 H150 0.950 1_565 S
C162 C161 1.398 . S
C162 C163 1.391 . S
C163 H151 0.950 . S
C163 C159 1.393 . S
C163 C162 1.391 . S
H164 C172 0.950 . S
H165 C177 0.950 . S
H166 C174 0.950 . S
H167 C176 0.950 . S
H168 C178 0.950 . S
H169 C180 0.950 . S
H170 C182 0.950 . S
H171 C183 0.950 . S
C172 H164 0.950 . S
C172 C173 1.386 . S
C172 C174 1.391 . S
C173 C172 1.386 . S
C173 C177 1.393 . S
C174 H166 0.950 . S
C174 C172 1.391 . S
C174 C175 1.400 . S
C175 C174 1.400 . S
C175 C176 1.398 . S
C175 C181 1.491 . S
C176 H167 0.950 . S
C176 C175 1.398 . S
C176 C177 1.391 . S
C177 H165 0.950 . S
C177 C173 1.393 . S
C177 C176 1.391 . S
C178 H168 0.950 . S
C178 C179 1.386 . S
C178 C180 1.391 . S
C179 C178 1.386 . S
C179 C183 1.393 . S
C180 H169 0.950 . S
C180 C178 1.391 . S
C180 C181 1.400 . S
C181 C175 1.491 . S
C181 C180 1.400 . S
C181 C182 1.398 . S
C182 H170 0.950 . S
C182 C181 1.398 . S
C182 C183 1.391 . S
C183 H171 0.950 . S
C183 C179 1.393 . S
C183 C182 1.391 . S
H184 C192 0.950 . S
H185 C197 0.950 . S
H186 C194 0.950 . S
H187 C196 0.950 . S
H188 C198 0.950 . S
H189 C200 0.950 . S
H190 C202 0.950 . S
H191 C203 0.950 . S
C192 H184 0.950 . S
C192 C193 1.386 . S
C192 C194 1.391 . S
C193 C192 1.386 . S
C193 C197 1.393 . S
C194 H186 0.950 . S
C194 C192 1.391 . S
C194 C195 1.400 . S
C195 C194 1.400 . S
C195 C196 1.398 . S
C195 C201 1.491 . S
C196 H187 0.950 . S
C196 C195 1.398 . S
C196 C197 1.391 . S
C197 H185 0.950 . S
C197 C193 1.393 . S
C197 C196 1.391 . S
C198 H188 0.950 . S
C198 C199 1.386 . S
C198 C200 1.391 . S
C199 C198 1.386 . S
C199 C203 1.393 . S
C200 H189 0.950 . S
C200 C198 1.391 . S
C200 C201 1.400 . S
C201 C195 1.491 . S
C201 C200 1.400 . S
C201 C202 1.398 . S
C202 H190 0.950 . S
C202 C201 1.398 . S
C202 C203 1.391 . S
C203 H191 0.950 . S
C203 C199 1.393 . S
C203 C202 1.391 . S
H204 C212 0.950 . S
H205 C217 0.950 . S
H206 C214 0.950 . S
H207 C216 0.950 . S
H208 C218 0.950 . S
H209 C220 0.950 . S
H210 C222 0.950 . S
H211 C223 0.950 . S
C212 H204 0.950 . S
C212 C213 1.386 . S
C212 C214 1.391 . S
C213 C212 1.386 . S
C213 C217 1.393 . S
C214 H206 0.950 . S
C214 C212 1.391 . S
C214 C215 1.400 . S
C215 C214 1.400 . S
C215 C216 1.398 . S
C215 C221 1.491 . S
C216 H207 0.950 . S
C216 C215 1.398 . S
C216 C217 1.391 . S
C217 H205 0.950 . S
C217 C213 1.393 . S
C217 C216 1.391 . S
C218 H208 0.950 . S
C218 C219 1.386 . S
C218 C220 1.391 . S
C219 C218 1.386 . S
C219 C223 1.393 . S
C220 H209 0.950 . S
C220 C218 1.391 . S
C220 C221 1.400 . S
C221 C215 1.491 . S
C221 C220 1.400 . S
C221 C222 1.398 . S
C222 H210 0.950 . S
C222 C221 1.398 . S
C222 C223 1.391 . S
C223 H211 0.950 . S
C223 C219 1.393 . S
C223 C222 1.391 . S
H224 C232 0.950 . S
H225 C237 0.950 . S
H226 C234 0.950 . S
H227 C236 0.950 . S
H228 C238 0.950 . S
H229 C240 0.950 . S
H230 C242 0.950 . S
H231 C243 0.950 . S
C232 H224 0.950 . S
C232 C233 1.386 . S
C232 C234 1.391 . S
C233 C232 1.386 . S
C233 C237 1.393 . S
C234 H226 0.950 . S
C234 C232 1.391 . S
C234 C235 1.400 . S
C235 C234 1.400 . S
C235 C236 1.398 . S
C235 C241 1.491 . S
C236 H227 0.950 . S
C236 C235 1.398 . S
C236 C237 1.391 . S
C237 H225 0.950 . S
C237 C233 1.393 . S
C237 C236 1.391 . S
C238 H228 0.950 . S
C238 C239 1.386 . S
C238 C240 1.391 . S
C239 C238 1.386 . S
C239 C243 1.393 . S
C240 H229 0.950 . S
C240 C238 1.391 . S
C240 C241 1.400 . S
C241 C235 1.491 . S
C241 C240 1.400 . S
C241 C242 1.398 . S
C242 H230 0.950 . S
C242 C241 1.398 . S
C242 C243 1.391 . S
C243 H231 0.950 . S
C243 C239 1.393 . S
C243 C242 1.391 . S
H244 C252 0.950 . S
H245 C257 0.950 1_455 S
H246 C254 0.950 . S
H247 C256 0.950 . S
H248 C258 0.950 . S
H249 C260 0.950 . S
H250 C262 0.950 . S
H251 C263 0.950 1_655 S
C252 H244 0.950 . S
C252 C253 1.386 . S
C252 C254 1.391 . S
C253 C252 1.386 . S
C253 C257 1.393 . S
C254 H246 0.950 . S
C254 C252 1.391 . S
C254 C255 1.400 . S
C255 C254 1.400 . S
C255 C256 1.398 1_655 S
C255 C261 1.491 1_655 S
C256 H247 0.950 . S
C256 C255 1.398 1_455 S
C256 C257 1.391 1_455 S
C257 H245 0.950 1_655 S
C257 C253 1.393 . S
C257 C256 1.391 1_655 S
C258 H248 0.950 . S
C258 C259 1.386 . S
C258 C260 1.391 . S
C259 C258 1.386 . S
C259 C263 1.393 . S
C260 H249 0.950 . S
C260 C258 1.391 . S
C260 C261 1.400 . S
C261 C255 1.491 1_455 S
C261 C260 1.400 . S
C261 C262 1.398 1_455 S
C262 H250 0.950 . S
C262 C261 1.398 1_655 S
C262 C263 1.391 1_655 S
C263 H251 0.950 1_455 S
C263 C259 1.393 . S
C263 C262 1.391 1_455 S
H264 C272 0.950 1_455 S
H265 C277 0.950 . S
H266 C274 0.950 . S
H267 C276 0.950 . S
H268 C278 0.950 1_655 S
H269 C280 0.950 . S
H270 C282 0.950 . S
H271 C283 0.950 . S
C272 H264 0.950 1_655 S
C272 C273 1.386 . S
C272 C274 1.391 1_655 S
C273 C272 1.386 . S
C273 C277 1.393 . S
C274 H266 0.950 . S
C274 C272 1.391 1_455 S
C274 C275 1.400 1_455 S
C275 C274 1.400 1_655 S
C275 C276 1.398 . S
C275 C281 1.491 1_655 S
C276 H267 0.950 . S
C276 C275 1.398 . S
C276 C277 1.391 . S
C277 H265 0.950 . S
C277 C273 1.393 . S
C277 C276 1.391 . S
C278 H268 0.950 1_455 S
C278 C279 1.386 . S
C278 C280 1.391 1_455 S
C279 C278 1.386 . S
C279 C283 1.393 . S
C280 H269 0.950 . S
C280 C278 1.391 1_655 S
C280 C281 1.400 1_655 S
C281 C275 1.491 1_455 S
C281 C280 1.400 1_455 S
C281 C282 1.398 . S
C282 H270 0.950 . S
C282 C281 1.398 . S
C282 C283 1.391 . S
C283 H271 0.950 . S
C283 C279 1.393 . S
C283 C282 1.391 . S
H284 C292 0.950 . S
H285 C297 0.950 1_455 S
H286 C294 0.950 . S
H287 C296 0.950 . S
H288 C298 0.950 . S
H289 C300 0.950 . S
H290 C302 0.950 . S
H291 C303 0.950 . S
C292 H284 0.950 . S
C292 C293 1.386 . S
C292 C294 1.391 . S
C293 C292 1.386 . S
C293 C297 1.393 . S
C294 H286 0.950 . S
C294 C292 1.391 . S
C294 C295 1.400 . S
C295 C294 1.400 . S
C295 C296 1.398 1_655 S
C295 C301 1.491 1_655 S
C296 H287 0.950 . S
C296 C295 1.398 1_455 S
C296 C297 1.391 1_455 S
C297 H285 0.950 1_655 S
C297 C293 1.393 . S
C297 C296 1.391 1_655 S
C298 H288 0.950 . S
C298 C299 1.386 . S
C298 C300 1.391 . S
C299 C298 1.386 . S
C299 C303 1.393 . S
C300 H289 0.950 . S
C300 C298 1.391 . S
C300 C301 1.400 . S
C301 C295 1.491 1_455 S
C301 C300 1.400 . S
C301 C302 1.398 1_455 S
C302 H290 0.950 . S
C302 C301 1.398 1_655 S
C302 C303 1.391 1_655 S
C303 H291 0.950 . S
C303 C299 1.393 . S
C303 C302 1.391 1_455 S
H304 C312 0.950 . S
H305 C317 0.950 . S
H306 C314 0.950 . S
H307 C316 0.950 . S
H308 C318 0.950 . S
H309 C320 0.950 1_455 S
H310 C322 0.950 . S
H311 C323 0.950 . S
C312 H304 0.950 . S
C312 C313 1.386 . S
C312 C314 1.391 . S
C313 C312 1.386 . S
C313 C317 1.393 . S
C314 H306 0.950 . S
C314 C312 1.391 . S
C314 C315 1.400 . S
C315 C314 1.400 . S
C315 C316 1.398 . S
C315 C321 1.491 1_455 S
C316 H307 0.950 . S
C316 C315 1.398 . S
C316 C317 1.391 . S
C317 H305 0.950 . S
C317 C313 1.393 . S
C317 C316 1.391 . S
C318 H308 0.950 . S
C318 C319 1.386 . S
C318 C320 1.391 . S
C319 C318 1.386 . S
C319 C323 1.393 . S
C320 H309 0.950 1_655 S
C320 C318 1.391 . S
C320 C321 1.400 . S
C321 C315 1.491 1_655 S
C321 C320 1.400 . S
C321 C322 1.398 . S
C322 H310 0.950 . S
C322 C321 1.398 . S
C322 C323 1.391 . S
C323 H311 0.950 . S
C323 C319 1.393 . S
C323 C322 1.391 . S
C93 C39 1.405 1_554 S
C99 C15 1.405 . S
C113 C57 1.414 . S
C119 C81 1.415 . S
C133 C18 1.415 1_554 S
C139 C36 1.429 . S
C153 C78 1.404 . S
C159 C60 1.404 . S
C173 C77 0.966 . S
C179 C13 0.938 . S
C193 C35 0.996 . S
C199 C55 0.982 . S
C213 C38 0.976 . S
C219 C58 1.009 . S
C233 C80 0.959 . S
C239 C16 0.991 . S
C253 C34 0.986 . S
C259 C56 1.006 . S
C273 C76 0.947 . S
C279 C14 0.987 . S
C293 C79 1.012 . S
C299 C17 1.003 . S
C313 C59 0.981 . S
C319 C37 0.971 . S
