# Generated by pormake.
# Topology sni, (6)-cn, num edge types: 1
# Building blocks:
#     Node 0, Type 0, BuildingBlock: IZENUY_clean_sbu_0, # of connection points: 6
#     Node 1, Type 0, BuildingBlock: IZENUY_clean_sbu_0, # of connection points: 6
#     Node 2, Type 0, BuildingBlock: IZENUY_clean_sbu_0, # of connection points: 6
#     Node 3, Type 0, BuildingBlock: IZENUY_clean_sbu_0, # of connection points: 6
#     Node 4, Type 0, BuildingBlock: IZENUY_clean_sbu_0, # of connection points: 6
#     Node 5, Type 0, BuildingBlock: IZENUY_clean_sbu_0, # of connection points: 6
#     Node 6, Type 0, BuildingBlock: IZENUY_clean_sbu_0, # of connection points: 6
#     Node 7, Type 0, BuildingBlock: IZENUY_clean_sbu_0, # of connection points: 6
#     Edge 8, Type (0, 0), BuildingBlock: UVAHIK_clean_linker_0, # of connection points: 2
#     Edge 9, Type (0, 0), BuildingBlock: UVAHIK_clean_linker_0, # of connection points: 2
#     Edge 10, Type (0, 0), BuildingBlock: UVAHIK_clean_linker_0, # of connection points: 2
#     Edge 11, Type (0, 0), BuildingBlock: UVAHIK_clean_linker_0, # of connection points: 2
#     Edge 12, Type (0, 0), BuildingBlock: UVAHIK_clean_linker_0, # of connection points: 2
#     Edge 13, Type (0, 0), BuildingBlock: UVAHIK_clean_linker_0, # of connection points: 2
#     Edge 14, Type (0, 0), BuildingBlock: UVAHIK_clean_linker_0, # of connection points: 2
#     Edge 15, Type (0, 0), BuildingBlock: UVAHIK_clean_linker_0, # of connection points: 2
#     Edge 16, Type (0, 0), BuildingBlock: UVAHIK_clean_linker_0, # of connection points: 2
#     Edge 17, Type (0, 0), BuildingBlock: UVAHIK_clean_linker_0, # of connection points: 2
#     Edge 18, Type (0, 0), BuildingBlock: UVAHIK_clean_linker_0, # of connection points: 2
#     Edge 19, Type (0, 0), BuildingBlock: UVAHIK_clean_linker_0, # of connection points: 2
#     Edge 20, Type (0, 0), BuildingBlock: UVAHIK_clean_linker_0, # of connection points: 2
#     Edge 21, Type (0, 0), BuildingBlock: UVAHIK_clean_linker_0, # of connection points: 2
#     Edge 22, Type (0, 0), BuildingBlock: UVAHIK_clean_linker_0, # of connection points: 2
#     Edge 23, Type (0, 0), BuildingBlock: UVAHIK_clean_linker_0, # of connection points: 2
#     Edge 24, Type (0, 0), BuildingBlock: UVAHIK_clean_linker_0, # of connection points: 2
#     Edge 25, Type (0, 0), BuildingBlock: UVAHIK_clean_linker_0, # of connection points: 2
#     Edge 26, Type (0, 0), BuildingBlock: UVAHIK_clean_linker_0, # of connection points: 2
#     Edge 27, Type (0, 0), BuildingBlock: UVAHIK_clean_linker_0, # of connection points: 2
#     Edge 28, Type (0, 0), BuildingBlock: UVAHIK_clean_linker_0, # of connection points: 2
#     Edge 29, Type (0, 0), BuildingBlock: UVAHIK_clean_linker_0, # of connection points: 2
#     Edge 30, Type (0, 0), BuildingBlock: UVAHIK_clean_linker_0, # of connection points: 2
#     Edge 31, Type (0, 0), BuildingBlock: UVAHIK_clean_linker_0, # of connection points: 2
# Relax obj value: 0.128
# Max RMSD: 0.110
# Mean RMSD: 0.110
data_MOF--net-sni--node1-IZENUY_clean_sbu_0--edge1-UVAHIK_clean_linker_0
_symmetry_space_group_name_H-M    P1
_symmetry_Int_Tables_number       1
_symmetry_cell_setting            triclinic
loop_
_symmetry_equiv_pos_as_xyz
'x, y, z'
_cell_length_a     52.898411
_cell_length_b     53.066965
_cell_length_c     25.845187
_cell_angle_alpha  90.055872
_cell_angle_beta   89.938495
_cell_angle_gamma 90.041244
loop_
_atom_site_label
_atom_site_type_symbol
_atom_site_fract_x
_atom_site_fract_y
_atom_site_fract_z
_atom_type_partial_charge
Fe0 Fe 0.6372 0.17731 0.98962 0.0
Fe1 Fe 0.67802 0.13585 0.9891 0.0
O2 O 0.64576 0.14498 0.99033 0.0
Fe3 Fe 0.62198 0.12164 0.99257 0.0
O4 O 0.60857 0.13233 0.93206 0.0
O5 O 0.60784 0.17253 0.95265 0.0
O6 O 0.65321 0.18227 0.92822 0.0
C7 C 0.67624 0.1774 0.92002 0.0
C8 C 0.60345 0.15881 0.06043 0.0
O9 O 0.68829 0.16259 0.94942 0.0
C10 C 0.65598 0.10141 0.05983 0.0
O11 O 0.66495 0.1878 0.02627 0.0
O12 O 0.68444 0.15286 0.04868 0.0
O13 O 0.59976 0.14047 0.03022 0.0
O14 O 0.62068 0.17466 0.05134 0.0
C15 C 0.65786 0.10073 0.92371 0.0
O16 O 0.67354 0.10737 0.02876 0.0
O17 O 0.63384 0.10959 0.0534 0.0
C18 C 0.68005 0.17602 0.05556 0.0
O19 O 0.67385 0.1182 0.92923 0.0
O20 O 0.63975 0.09836 0.95528 0.0
C21 C 0.60054 0.1544 0.92435 0.0
Fe22 Fe 0.8793 0.62012 0.98442 0.0
Fe23 Fe 0.86612 0.67628 0.99192 0.0
O24 O 0.85643 0.64432 0.98735 0.0
Fe25 Fe 0.82386 0.63625 0.98603 0.0
O26 O 0.82669 0.61755 0.04493 0.0
O27 O 0.86003 0.59676 0.0182 0.0
O28 O 0.89193 0.62887 0.04675 0.0
C29 C 0.90012 0.65045 0.05839 0.0
C30 C 0.84572 0.60222 0.91392 0.0
O31 O 0.89423 0.66961 0.03166 0.0
C32 C 0.82428 0.67756 0.92267 0.0
O33 O 0.90302 0.63881 0.95044 0.0
O34 O 0.88428 0.67452 0.93195 0.0
O35 O 0.828 0.60838 0.94445 0.0
O36 O 0.86798 0.60982 0.92183 0.0
C37 C 0.8256 0.67646 0.05823 0.0
O38 O 0.83964 0.68835 0.95322 0.0
O39 O 0.81895 0.65447 0.92763 0.0
C40 C 0.90136 0.65848 0.92323 0.0
O41 O 0.84888 0.68071 0.0521 0.0
O42 O 0.81367 0.66255 0.02688 0.0
C43 C 0.84216 0.59963 0.05011 0.0
Fe44 Fe 0.32338 0.86425 0.98965 0.0
Fe45 Fe 0.36498 0.82342 0.99154 0.0
O46 O 0.35575 0.8556 0.99267 0.0
Fe47 Fe 0.37909 0.87935 -0.00308 0.0
O48 O 0.36633 0.89053 0.0577 0.0
O49 O 0.32684 0.89224 0.03141 0.0
O50 O 0.31608 0.84654 0.04766 0.0
C51 C 0.32084 0.82349 0.05454 0.0
C52 C 0.34377 0.90055 0.92762 0.0
O53 O 0.33705 0.81214 0.02692 0.0
C54 C 0.40158 0.84761 0.92789 0.0
O55 O 0.3142 0.83788 0.94777 0.0
O56 O 0.34982 0.81834 0.92949 0.0
O57 O 0.36138 0.90283 0.96026 0.0
O58 O 0.32821 0.88263 0.93105 0.0
C59 C 0.39788 0.84189 0.06376 0.0
O60 O 0.3946 0.82911 0.95559 0.0
O61 O 0.39316 0.86946 0.93643 0.0
C62 C 0.32699 0.82317 0.91939 0.0
O63 O 0.38081 0.826 0.05391 0.0
O64 O 0.40137 0.86058 0.03443 0.0
C65 C 0.34393 0.89817 0.06361 0.0
Fe66 Fe 0.18016 0.36432 0.99172 0.0
Fe67 Fe 0.12475 0.38073 -0.00537 0.0
O68 O 0.14762 0.35646 0.9928 0.0
Fe69 Fe 0.13785 0.3245 0.99206 0.0
O70 O 0.15492 0.31781 0.05148 0.0
O71 O 0.19023 0.33666 0.02856 0.0
O72 O 0.17778 0.38101 0.05316 0.0
C73 C 0.16311 0.39939 0.0605 0.0
C74 C 0.17941 0.32526 0.9225 0.0
O75 O 0.14437 0.403 0.03113 0.0
C76 C 0.10298 0.34521 0.92664 0.0
O77 O 0.1759 0.39349 0.95434 0.0
O78 O 0.13564 0.39323 0.93334 0.0
O79 O 0.16431 0.3136 0.95208 0.0
O80 O 0.18482 0.34811 0.93052 0.0
C81 C 0.10404 0.34749 0.06302 0.0
O82 O 0.10084 0.36324 0.95831 0.0
O83 O 0.1201 0.32889 0.93235 0.0
C84 C 0.15799 0.40051 0.9252 0.0
O85 O 0.11249 0.36949 0.05597 0.0
O86 O 0.10964 0.32978 0.03215 0.0
C87 C 0.17822 0.32186 0.05808 0.0
Fe88 Fe 0.63821 0.82215 0.49069 0.0
Fe89 Fe 0.67978 0.86291 0.49045 0.0
O90 O 0.64731 0.85436 0.48878 0.0
Fe91 Fe 0.62386 0.878 0.48547 0.0
O92 O 0.60053 0.86067 0.52369 0.0
O93 O 0.62033 0.82671 0.55023 0.0
O94 O 0.6649 0.81223 0.53112 0.0
C95 C 0.67936 0.82454 0.56092 0.0
C96 C 0.6033 0.84353 0.41964 0.0
O97 O 0.68414 0.84747 0.55242 0.0
C98 C 0.66189 0.89591 0.41811 0.0
O99 O 0.65556 0.81546 0.43157 0.0
O100 O 0.6905 0.83495 0.45481 0.0
O101 O 0.61169 0.86558 0.42532 0.0
O102 O 0.60973 0.82616 0.45054 0.0
C103 C 0.65654 0.8998 0.55403 0.0
O104 O 0.67779 0.87899 0.42856 0.0
O105 O 0.6428 0.89967 0.4465 0.0
C106 C 0.67886 0.81975 0.42538 0.0
O107 O 0.67488 0.89247 0.52633 0.0
O108 O 0.63442 0.89201 0.54552 0.0
C109 C 0.60307 0.8429 0.55582 0.0
Fe110 Fe 0.13821 0.67662 0.49023 0.0
Fe111 Fe 0.18046 0.63657 0.48979 0.0
O112 O 0.14799 0.64467 0.49339 0.0
Fe113 Fe 0.12526 0.62043 0.50019 0.0
O114 O 0.11061 0.62878 0.43953 0.0
O115 O 0.10887 0.66965 0.45449 0.0
O116 O 0.15327 0.68114 0.42789 0.0
C117 C 0.17619 0.67682 0.418 0.0
C118 C 0.10539 0.65905 0.56374 0.0
O119 O 0.18922 0.66261 0.44679 0.0
C120 C 0.16113 0.6036 0.56659 0.0
O121 O 0.16594 0.68884 0.52525 0.0
O122 O 0.18768 0.655 0.54676 0.0
O123 O 0.10259 0.63933 0.53695 0.0
O124 O 0.12224 0.67492 0.5525 0.0
C125 C 0.16072 0.5989 0.43108 0.0
O126 O 0.17769 0.60896 0.5328 0.0
O127 O 0.13863 0.61093 0.56144 0.0
C128 C 0.18249 0.67801 0.55294 0.0
O129 O 0.17539 0.61761 0.43207 0.0
O130 O 0.14349 0.59652 0.46469 0.0
C131 C 0.10203 0.65035 0.42894 0.0
Fe132 Fe 0.36432 0.17763 0.48957 0.0
Fe133 Fe 0.32316 0.13648 0.49141 0.0
O134 O 0.35549 0.14536 0.49159 0.0
Fe135 Fe 0.37912 0.12189 0.49413 0.0
O136 O 0.40161 0.14092 0.53073 0.0
O137 O 0.38096 0.17536 0.55114 0.0
O138 O 0.33678 0.18873 0.52614 0.0
C139 C 0.32164 0.17736 0.5561 0.0
C140 C 0.40057 0.15396 0.42449 0.0
O141 O 0.31707 0.15418 0.55028 0.0
C142 C 0.3426 0.10035 0.42738 0.0
O143 O 0.3482 0.18216 0.42825 0.0
O144 O 0.31304 0.16281 0.45062 0.0
O145 O 0.39237 0.13201 0.43296 0.0
O146 O 0.39353 0.17232 0.45243 0.0
C147 C 0.34521 0.10257 0.56308 0.0
O148 O 0.32689 0.11808 0.43236 0.0
O149 O 0.36105 0.09835 0.45814 0.0
C150 C 0.32513 0.17727 0.42049 0.0
O151 O 0.32752 0.1085 0.53241 0.0
O152 O 0.36743 0.11036 0.55555 0.0
C153 C 0.39812 0.1595 0.56045 0.0
Fe154 Fe 0.86477 0.32298 0.49162 0.0
Fe155 Fe 0.87837 0.37905 0.49142 0.0
O156 O 0.85528 0.35503 0.49005 0.0
Fe157 Fe 0.82279 0.36325 0.48719 0.0
O158 O 0.81202 0.33611 0.52514 0.0
O159 O 0.84692 0.31733 0.55055 0.0
O160 O 0.89268 0.32849 0.53281 0.0
C161 C 0.89848 0.34677 0.5622 0.0
C162 C 0.82391 0.32328 0.42024 0.0
O163 O 0.88999 0.36857 0.5536 0.0
C164 C 0.84611 0.3987 0.42004 0.0
O165 O 0.88334 0.32629 0.4325 0.0
O166 O 0.90238 0.36101 0.457 0.0
O167 O 0.8187 0.34629 0.42678 0.0
O168 O 0.83862 0.31184 0.45096 0.0
C169 C 0.84023 0.39822 0.5562 0.0
O170 O 0.86819 0.39099 0.4293 0.0
O171 O 0.82773 0.39198 0.44842 0.0
C172 C 0.90066 0.34242 0.42671 0.0
O173 O 0.85878 0.40165 0.52625 0.0
O174 O 0.82462 0.38071 0.54784 0.0
C175 C 0.82358 0.32156 0.55588 0.0
C176 C 0.43213 0.13675 0.36139 0.0
C177 C 0.42152 0.15756 0.3871 0.0
C178 C 0.45333 0.13974 0.32982 0.0
C179 C 0.49015 0.18571 0.25477 0.0
H180 H 0.54274 0.13523 0.26774 0.0
C181 C 0.58155 0.18531 0.12812 0.0
C182 C 0.58604 0.16181 0.10475 0.0
C183 C 0.56352 0.18754 0.16778 0.0
C184 C 0.52824 0.1495 0.26371 0.0
H185 H 0.42435 0.19804 0.39806 0.0
H186 H 0.46141 0.20319 0.34257 0.0
H187 H 0.50621 0.13378 0.3251 0.0
H188 H 0.57606 0.12212 0.10598 0.0
H189 H 0.54506 0.12599 0.17446 0.0
H190 H 0.51203 0.20098 0.19224 0.0
C191 C 0.45329 0.18458 0.34711 0.0
C192 C 0.50728 0.1486 0.29639 0.0
C193 C 0.4321 0.18159 0.37897 0.0
C194 C 0.57289 0.14056 0.12285 0.0
C195 C 0.55525 0.14271 0.16251 0.0
C196 C 0.51119 0.18658 0.22186 0.0
C197 C 0.46439 0.1636 0.32298 0.0
C198 C 0.48768 0.16626 0.29137 0.0
C199 C 0.55016 0.16621 0.18516 0.0
C200 C 0.53008 0.16804 0.2251 0.0
H201 H 0.4244 0.118 0.36644 0.0
H202 H 0.46117 0.12328 0.31086 0.0
H203 H 0.47532 0.19958 0.25003 0.0
H204 H 0.59143 0.202 0.11491 0.0
H205 H 0.55999 0.20587 0.18476 0.0
C206 C 0.85956 0.56441 0.10245 0.0
C207 C 0.83927 0.58069 0.09175 0.0
C208 C 0.85766 0.54631 0.1411 0.0
C209 C 0.81348 0.50746 0.21365 0.0
H210 H 0.87142 0.49819 0.30353 0.0
C211 C 0.81909 0.43116 0.37582 0.0
C212 C 0.84247 0.41875 0.38084 0.0
C213 C 0.81648 0.45163 0.34212 0.0
C214 C 0.85516 0.50039 0.2785 0.0
H215 H 0.80096 0.59067 0.11354 0.0
H216 H 0.79754 0.55842 0.18159 0.0
H217 H 0.87047 0.53365 0.24397 0.0
H218 H 0.88107 0.4174 0.3524 0.0
H219 H 0.87642 0.45277 0.29349 0.0
H220 H 0.79846 0.47373 0.24765 0.0
C221 C 0.81492 0.55993 0.15959 0.0
C222 C 0.85457 0.52077 0.24458 0.0
C223 C 0.81691 0.5784 0.1209 0.0
C224 C 0.86287 0.42667 0.35 0.0
C225 C 0.86026 0.44707 0.31644 0.0
C226 C 0.81409 0.48693 0.24772 0.0
C227 C 0.8354 0.54384 0.17019 0.0
C228 C 0.83404 0.5242 0.21089 0.0
C229 C 0.8372 0.46012 0.31285 0.0
C230 C 0.83525 0.48286 0.27958 0.0
H231 H 0.87713 0.56568 0.08102 0.0
H232 H 0.87363 0.53396 0.1478 0.0
H233 H 0.79749 0.50959 0.1879 0.0
H234 H 0.80297 0.42551 0.39893 0.0
H235 H 0.79849 0.46131 0.34026 0.0
C236 C 0.57085 0.81543 0.37776 0.0
C237 C 0.58254 0.83919 0.38217 0.0
C238 C 0.54946 0.81227 0.3465 0.0
C239 C 0.4966 0.84888 0.29525 0.0
H240 H 0.48886 0.7961 0.19258 0.0
C241 C 0.42964 0.85902 0.12508 0.0
C242 C 0.41561 0.83826 0.10733 0.0
C243 C 0.4476 0.85617 0.16387 0.0
C244 C 0.49052 0.81062 0.22185 0.0
H245 H 0.58159 0.8779 0.35503 0.0
H246 H 0.54442 0.87235 0.30103 0.0
H247 H 0.52615 0.79642 0.24896 0.0
H248 H 0.40905 0.79823 0.11722 0.0
H249 H 0.44095 0.79317 0.18565 0.0
H250 H 0.4614 0.86341 0.268 0.0
C251 C 0.55157 0.85628 0.32228 0.0
C252 C 0.51188 0.81086 0.2539 0.0
C253 C 0.57298 0.8594 0.35303 0.0
C254 C 0.41959 0.81456 0.13018 0.0
C255 C 0.4379 0.81164 0.16903 0.0
C256 C 0.47529 0.84857 0.26361 0.0
C257 C 0.53928 0.83285 0.31953 0.0
C258 C 0.51547 0.83049 0.28971 0.0
C259 C 0.45212 0.83248 0.18609 0.0
C260 C 0.47241 0.82995 0.22538 0.0
H261 H 0.5778 0.79944 0.39952 0.0
H262 H 0.54036 0.79399 0.34489 0.0
H263 H 0.49859 0.86389 0.32341 0.0
H264 H 0.42695 0.87759 0.10858 0.0
H265 H 0.45847 0.87253 0.17549 0.0
C266 C 0.17803 0.41207 0.14886 0.0
C267 C 0.16918 0.41874 0.09953 0.0
C268 C 0.18121 0.43058 0.18704 0.0
C269 C 0.19316 0.49665 0.21107 0.0
H270 H 0.14602 0.4925 0.32557 0.0
C271 C 0.1738 0.58216 0.34442 0.0
C272 C 0.16574 0.57779 0.39533 0.0
C273 C 0.1771 0.56197 0.31011 0.0
C274 C 0.15983 0.49384 0.29479 0.0
H275 H 0.15801 0.44988 0.05039 0.0
H276 H 0.16454 0.48223 0.11646 0.0
H277 H 0.14854 0.45809 0.26362 0.0
H278 H 0.15618 0.54901 0.4514 0.0
H279 H 0.1634 0.51383 0.3931 0.0
H280 H 0.20502 0.53203 0.2423 0.0
C281 C 0.16857 0.46275 0.12583 0.0
C282 C 0.16112 0.47407 0.25914 0.0
C283 C 0.16472 0.44425 0.08825 0.0
C284 C 0.16199 0.55291 0.41198 0.0
C285 C 0.16596 0.53273 0.37826 0.0
C286 C 0.19236 0.5162 0.24743 0.0
C287 C 0.17636 0.45603 0.17577 0.0
C288 C 0.17747 0.47551 0.21659 0.0
C289 C 0.17306 0.53691 0.32644 0.0
C290 C 0.17533 0.51532 0.2894 0.0
H291 H 0.18147 0.3925 0.15845 0.0
H292 H 0.18717 0.42505 0.22547 0.0
H293 H 0.20592 0.49811 0.17838 0.0
H294 H 0.17673 0.60122 0.33067 0.0
H295 H 0.18215 0.56617 0.27047 0.0
C296 C 0.56852 0.86137 0.60925 0.0
C297 C 0.58434 0.84077 0.59826 0.0
C298 C 0.55047 0.85994 0.64836 0.0
C299 C 0.51127 0.81613 0.7219 0.0
H300 H 0.5019 0.8742 0.81114 0.0
C301 C 0.43509 0.82125 0.88486 0.0
C302 C 0.42229 0.84437 0.88976 0.0
C303 C 0.45579 0.81892 0.85135 0.0
C304 C 0.50413 0.8579 0.78628 0.0
H305 H 0.59364 0.80245 0.62015 0.0
H306 H 0.56162 0.79987 0.68889 0.0
H307 H 0.53719 0.87331 0.75065 0.0
H308 H 0.42064 0.88287 0.86163 0.0
H309 H 0.45636 0.87871 0.80308 0.0
H310 H 0.47779 0.80099 0.757 0.0
C311 C 0.56336 0.81711 0.6668 0.0
C312 C 0.5244 0.85736 0.75178 0.0
C313 C 0.58173 0.81863 0.62768 0.0
C314 C 0.43019 0.86485 0.85931 0.0
C315 C 0.45081 0.86252 0.82594 0.0
C316 C 0.49087 0.81669 0.75651 0.0
C317 C 0.54762 0.83783 0.67757 0.0
C318 C 0.52789 0.83674 0.71839 0.0
C319 C 0.46411 0.83966 0.82213 0.0
C320 C 0.48677 0.83787 0.78824 0.0
H321 H 0.57004 0.87878 0.58759 0.0
H322 H 0.5384 0.87609 0.65517 0.0
H323 H 0.51341 0.80006 0.69641 0.0
H324 H 0.42949 0.80508 0.9077 0.0
H325 H 0.46568 0.80108 0.84939 0.0
C326 C 0.14553 0.42396 0.84531 0.0
C327 C 0.16266 0.42022 0.88609 0.0
C328 C 0.14929 0.44349 0.80993 0.0
C329 C 0.17566 0.50602 0.80034 0.0
H330 H 0.17137 0.49604 0.65187 0.0
C331 C 0.15182 0.58373 0.65195 0.0
C332 C 0.16676 0.58486 0.60704 0.0
C333 C 0.15524 0.56435 0.68772 0.0
C334 C 0.17286 0.49903 0.69323 0.0
H335 H 0.19727 0.43381 0.92155 0.0
H336 H 0.20344 0.46833 0.86025 0.0
H337 H 0.16961 0.45957 0.70984 0.0
H338 H 0.19741 0.56704 0.56489 0.0
H339 H 0.20295 0.53272 0.62711 0.0
H340 H 0.17789 0.54556 0.78381 0.0
C341 C 0.18729 0.45597 0.85557 0.0
C342 C 0.17168 0.47825 0.72627 0.0
C343 C 0.18379 0.43617 0.8904 0.0
C344 C 0.18572 0.56669 0.59932 0.0
C345 C 0.1888 0.54702 0.63465 0.0
C346 C 0.17638 0.52684 0.76734 0.0
C347 C 0.16999 0.45987 0.81525 0.0
C348 C 0.17286 0.48161 0.78009 0.0
C349 C 0.17335 0.54552 0.67874 0.0
C350 C 0.17479 0.52351 0.71355 0.0
H351 H 0.12913 0.4119 0.84097 0.0
H352 H 0.13562 0.44625 0.77928 0.0
H353 H 0.17644 0.50906 0.84177 0.0
H354 H 0.13712 0.59755 0.65888 0.0
H355 H 0.143 0.56349 0.72131 0.0
C356 C 0.42882 0.14158 0.62286 0.0
C357 C 0.41563 0.16272 0.6045 0.0
C358 C 0.44639 0.14392 0.66254 0.0
C359 C 0.49027 0.18795 0.72198 0.0
H360 H 0.49464 0.1354 0.82583 0.0
C361 C 0.56914 0.18245 0.87962 0.0
C362 C 0.57957 0.15834 0.88723 0.0
C363 C 0.54797 0.1857 0.84786 0.0
C364 C 0.49373 0.15017 0.79698 0.0
H365 H 0.41019 0.20293 0.61411 0.0
H366 H 0.44153 0.20712 0.68395 0.0
H367 H 0.45831 0.13683 0.76812 0.0
H368 H 0.57642 0.11889 0.86577 0.0
H369 H 0.53969 0.1246 0.81054 0.0
H370 H 0.52612 0.20089 0.75038 0.0
C371 C 0.43806 0.18873 0.6672 0.0
C372 C 0.47289 0.15105 0.76408 0.0
C373 C 0.42009 0.18633 0.62753 0.0
C374 C 0.56882 0.1377 0.86116 0.0
C375 C 0.54763 0.14093 0.82976 0.0
C376 C 0.51119 0.18711 0.75513 0.0
C377 C 0.4514 0.16749 0.68495 0.0
C378 C 0.47129 0.16946 0.72518 0.0
C379 C 0.53672 0.16487 0.82342 0.0
C380 C 0.51346 0.16772 0.79191 0.0
H381 H 0.42569 0.12307 0.60628 0.0
H382 H 0.45658 0.12725 0.67477 0.0
H383 H 0.4896 0.20227 0.69216 0.0
H384 H 0.57701 0.19877 0.89899 0.0
H385 H 0.53996 0.20436 0.84365 0.0
C386 C 0.86173 0.57195 0.84728 0.0
C387 C 0.84131 0.58221 0.875 0.0
C388 C 0.85824 0.55094 0.81564 0.0
C389 C 0.81186 0.51341 0.74403 0.0
H390 H 0.86218 0.4609 0.76042 0.0
C391 C 0.81302 0.42067 0.62198 0.0
C392 C 0.83676 0.41619 0.59925 0.0
C393 C 0.81042 0.4391 0.66061 0.0
C394 C 0.84795 0.47536 0.75548 0.0
H395 H 0.8009 0.5793 0.88875 0.0
H396 H 0.79487 0.54258 0.83286 0.0
H397 H 0.86373 0.49805 0.81568 0.0
H398 H 0.87643 0.42669 0.60044 0.0
H399 H 0.87191 0.45839 0.66708 0.0
H400 H 0.79662 0.49089 0.68245 0.0
C401 C 0.81356 0.55078 0.83614 0.0
C402 C 0.8489 0.49666 0.78693 0.0
C403 C 0.81707 0.57177 0.86816 0.0
C404 C 0.85783 0.42983 0.61683 0.0
C405 C 0.8553 0.44787 0.65545 0.0
C406 C 0.81096 0.49204 0.71223 0.0
C407 C 0.83426 0.53979 0.8107 0.0
C408 C 0.83135 0.51623 0.78053 0.0
C409 C 0.83161 0.45287 0.67757 0.0
C410 C 0.82949 0.47319 0.71669 0.0
H411 H 0.88061 0.57961 0.85124 0.0
H412 H 0.87444 0.54315 0.79557 0.0
H413 H 0.79806 0.52822 0.73845 0.0
H414 H 0.79647 0.41042 0.60909 0.0
H415 H 0.79194 0.4426 0.67719 0.0
C416 C 0.92697 0.68751 0.86579 0.0
C417 C 0.92157 0.66323 0.88464 0.0
C418 C 0.94795 0.69152 0.83337 0.0
C419 C 0.00917 0.6617 0.80045 0.0
H420 H 0.00695 0.70098 0.67414 0.0
C421 C 0.07534 0.64351 0.63052 0.0
C422 C 0.08717 0.66397 0.60598 0.0
C423 C 0.05699 0.64749 0.66835 0.0
C424 C 0.00794 0.69033 0.70981 0.0
H425 H 0.93297 0.62396 0.88154 0.0
H426 H 0.96884 0.63085 0.82515 0.0
H427 H 0.97016 0.70047 0.73218 0.0
H428 H 0.08914 0.70472 0.60201 0.0
H429 H 0.0563 0.71172 0.66805 0.0
H430 H 0.04637 0.65064 0.77723 0.0
C431 C 0.95755 0.64696 0.83645 0.0
C432 C 0.98692 0.69003 0.74298 0.0
C433 C 0.93683 0.643 0.86862 0.0
C434 C 0.08041 0.68861 0.62053 0.0
C435 C 0.06157 0.69262 0.65795 0.0
C436 C 0.02998 0.66188 0.76733 0.0
C437 C 0.96379 0.6713 0.8194 0.0
C438 C 0.98703 0.67499 0.78778 0.0
C439 C 0.04971 0.67204 0.68216 0.0
C440 C 0.02932 0.67555 0.72093 0.0
H441 H 0.91553 0.70347 0.87739 0.0
H442 H 0.95222 0.71048 0.8206 0.0
H443 H 0.01014 0.65047 0.83538 0.0
H444 H 0.08021 0.62431 0.62027 0.0
H445 H 0.04801 0.63127 0.686 0.0
C446 C 0.31808 0.06954 0.60483 0.0
C447 C 0.34055 0.08375 0.60417 0.0
C448 C 0.3145 0.05056 0.64161 0.0
C449 C 0.33701 0.02823 0.76834 0.0
H450 H 0.31697 0.96191 0.72003 0.0
C451 C 0.35857 0.93998 0.8851 0.0
C452 C 0.34022 0.92091 0.88918 0.0
C453 C 0.35523 0.96009 0.85132 0.0
C454 C 0.32214 0.98041 0.73429 0.0
H455 H 0.37651 0.0897 0.64263 0.0
H456 H 0.3702 0.05672 0.70681 0.0
H457 H 0.31691 0.99752 0.65997 0.0
H458 H 0.30417 0.90772 0.85976 0.0
H459 H 0.29829 0.94322 0.8002 0.0
H460 H 0.34268 0.0112 0.84229 0.0
C461 C 0.35534 0.06027 0.67894 0.0
C462 C 0.32213 0.00078 0.69993 0.0
C463 C 0.35902 0.07906 0.64196 0.0
C464 C 0.31862 0.92215 0.85759 0.0
C465 C 0.31527 0.94242 0.82349 0.0
C466 C 0.33694 0.00796 0.80262 0.0
C467 C 0.33318 0.04564 0.67881 0.0
C468 C 0.3302 0.02474 0.71636 0.0
C469 C 0.33343 0.96177 0.82062 0.0
C470 C 0.3302 0.98369 0.78564 0.0
H471 H 0.30346 0.07269 0.57623 0.0
H472 H 0.29716 0.03969 0.64088 0.0
H473 H 0.34284 0.04659 0.78232 0.0
H474 H 0.37561 0.93953 0.90828 0.0
H475 H 0.36988 0.97431 0.84906 0.0
C476 C 0.92593 0.36407 0.63269 0.0
C477 C 0.91853 0.34357 0.6017 0.0
C478 C 0.94653 0.362 0.66608 0.0
C479 C 0.98807 0.31709 0.73401 0.0
H480 H 0.0339 0.37416 0.73571 0.0
C481 C 0.08071 0.32035 0.8568 0.0
C482 C 0.0838 0.34276 0.88522 0.0
C483 C 0.06177 0.31849 0.819 0.0
C484 C 0.02125 0.3581 0.73581 0.0
H485 H 0.92641 0.30442 0.58334 0.0
H486 H 0.96251 0.30089 0.64182 0.0
H487 H 0.99767 0.37445 0.67781 0.0
H488 H 0.06974 0.3809 0.89541 0.0
H489 H 0.03707 0.37762 0.83021 0.0
H490 H 0.01168 0.30096 0.7928 0.0
C491 C 0.95228 0.31854 0.64014 0.0
C492 C 1.00044 0.3583 0.70277 0.0
C493 C 0.93163 0.32061 0.60656 0.0
C494 C 0.06787 0.36329 0.87449 0.0
C495 C 0.04922 0.36151 0.83673 0.0
C496 C 0.00899 0.3169 0.76724 0.0
C497 C 0.96028 0.3394 0.66942 0.0
C498 C 0.98328 0.33808 0.70227 0.0
C499 C 0.04588 0.33913 0.80857 0.0
C500 C 0.02547 0.33767 0.76925 0.0
H501 H 0.91614 0.38196 0.6304 0.0
H502 H 0.95186 0.37825 0.68902 0.0
H503 H 0.97516 0.30124 0.73452 0.0
H504 H 0.09269 0.3042 0.86419 0.0
H505 H 0.05967 0.30103 0.79769 0.0
C506 C 0.64213 0.06292 0.87662 0.0
C507 C 0.66126 0.08099 0.88376 0.0
C508 C 0.64522 0.04326 0.84156 0.0
C509 C 0.67975 0.02266 0.72621 0.0
H510 H 0.65564 0.95698 0.77014 0.0
C511 C 0.68335 0.93321 0.59575 0.0
C512 C 0.66057 0.91954 0.5937 0.0
C513 C 0.68663 0.95247 0.63217 0.0
C514 C 0.6624 0.9752 0.75727 0.0
H515 H 0.69844 0.09296 0.85816 0.0
H516 H 0.70389 0.05821 0.7963 0.0
H517 H 0.656 0.99186 0.83139 0.0
H518 H 0.62355 0.91511 0.62884 0.0
H519 H 0.62934 0.94852 0.6923 0.0
H520 H 0.68576 0.00587 0.65164 0.0
C521 C 0.68649 0.05945 0.81827 0.0
C522 C 0.66261 0.99519 0.79229 0.0
C523 C 0.68338 0.07929 0.85368 0.0
C524 C 0.64132 0.92528 0.62929 0.0
C525 C 0.64469 0.94432 0.66589 0.0
C526 C 0.67963 0.00255 0.69105 0.0
C527 C 0.66755 0.04101 0.81256 0.0
C528 C 0.67059 0.01931 0.77681 0.0
C529 C 0.66732 0.95819 0.66762 0.0
C530 C 0.67031 0.9788 0.70595 0.0
H531 H 0.62466 0.06378 0.89846 0.0
H532 H 0.62999 0.02977 0.8371 0.0
H533 H 0.68593 0.04104 0.71312 0.0
H534 H 0.69854 0.92927 0.5688 0.0
H535 H 0.70431 0.96277 0.63283 0.0
C536 C 0.0718 0.31989 0.10603 0.0
C537 C 0.08486 0.34299 0.10374 0.0
C538 C 0.05274 0.31606 0.14267 0.0
C539 C 0.02851 0.33988 0.26707 0.0
H540 H 0.96382 0.31365 0.22103 0.0
C541 C 0.93844 0.35854 0.38004 0.0
C542 C 0.92099 0.33891 0.38795 0.0
C543 C 0.95871 0.35554 0.34639 0.0
C544 C 0.9819 0.32056 0.23465 0.0
H545 H 0.08852 0.37992 0.13902 0.0
H546 H 0.0553 0.37321 0.2029 0.0
H547 H 0.99958 0.3149 0.16088 0.0
H548 H 0.91072 0.30094 0.36506 0.0
H549 H 0.94657 0.29568 0.30537 0.0
H550 H 0.01084 0.34605 0.34035 0.0
C551 C 0.05989 0.35803 0.17646 0.0
C552 C 0.00235 0.32132 0.20027 0.0
C553 C 0.07882 0.36194 0.13965 0.0
C554 C 0.92391 0.31636 0.35994 0.0
C555 C 0.94437 0.31336 0.32584 0.0
C556 C 0.00817 0.33907 0.30133 0.0
C557 C 0.0465 0.33514 0.17809 0.0
C558 C 0.02566 0.33162 0.21581 0.0
C559 C 0.96219 0.33283 0.31953 0.0
C560 C 0.98445 0.33009 0.28508 0.0
H561 H 0.076 0.30485 0.07901 0.0
H562 H 0.0429 0.29815 0.14333 0.0
H563 H 0.04639 0.3474 0.28046 0.0
H564 H 0.93662 0.37635 0.40022 0.0
H565 H 0.9717 0.37114 0.34129 0.0
C566 C 0.68729 0.92896 0.37317 0.0
C567 C 0.66605 0.91319 0.37468 0.0
C568 C 0.68857 0.94862 0.33709 0.0
C569 C 0.64526 0.98702 0.25579 0.0
H570 H 0.70762 0.01438 0.20066 0.0
C571 C 0.64436 0.07969 0.1422 0.0
C572 C 0.66037 0.08168 0.09908 0.0
C573 C 0.64713 0.05982 0.17712 0.0
C574 C 0.68998 0.00685 0.21524 0.0
H575 H 0.63035 0.90414 0.33848 0.0
H576 H 0.63321 0.93714 0.27339 0.0
H577 H 0.70884 0.97658 0.25397 0.0
H578 H 0.69219 0.06476 0.05919 0.0
H579 H 0.69637 0.02949 0.11874 0.0
H580 H 0.6262 0.01629 0.21522 0.0
C581 C 0.6484 0.93538 0.30117 0.0
C582 C 0.69072 0.9853 0.24646 0.0
C583 C 0.64687 0.91624 0.33793 0.0
C584 C 0.67965 0.06378 0.09229 0.0
C585 C 0.68211 0.0436 0.12666 0.0
C586 C 0.64448 0.00822 0.22404 0.0
C587 C 0.66877 0.95249 0.30148 0.0
C588 C 0.66834 0.97508 0.26716 0.0
C589 C 0.66561 0.04111 0.16913 0.0
C590 C 0.66681 0.01857 0.20349 0.0
H591 H 0.70213 0.92704 0.40176 0.0
H592 H 0.70445 0.96145 0.33892 0.0
H593 H 0.62763 0.9802 0.27183 0.0
H594 H 0.62953 0.09341 0.14875 0.0
H595 H 0.63453 0.05902 0.21011 0.0
C596 C 0.92906 0.67637 0.11421 0.0
C597 C 0.91901 0.65278 0.10036 0.0
C598 C 0.94772 0.6782 0.15236 0.0
C599 C 0.97686 0.64234 0.26026 0.0
H600 H 0.0344 0.68619 0.23634 0.0
C601 C 0.07025 0.63068 0.36973 0.0
C602 C 0.08144 0.65251 0.39047 0.0
C603 C 0.04987 0.63248 0.33578 0.0
C604 C 0.0183 0.67409 0.24377 0.0
H605 H 0.92046 0.61263 0.11638 0.0
H606 H 0.95316 0.61577 0.18173 0.0
H607 H 0.99914 0.68626 0.17531 0.0
H608 H 0.0804 0.69339 0.39048 0.0
H609 H 0.0448 0.69648 0.33045 0.0
H610 H 0.99636 0.62967 0.32787 0.0
C611 C 0.9464 0.63295 0.16391 0.0
C612 C 0.99808 0.67416 0.20896 0.0
C613 C 0.92773 0.63113 0.12607 0.0
C614 C 0.07215 0.67622 0.37535 0.0
C615 C 0.05185 0.67801 0.3409 0.0
C616 C 0.99713 0.64213 0.29473 0.0
C617 C 0.95673 0.65647 0.17739 0.0
C618 C 0.97729 0.658 0.21641 0.0
C619 C 0.04032 0.65613 0.32138 0.0
C620 C 0.01821 0.65771 0.28643 0.0
H621 H 0.92266 0.69343 0.09536 0.0
H622 H 0.95506 0.69663 0.16229 0.0
H623 H 0.96091 0.63008 0.26782 0.0
H624 H 0.07695 0.61211 0.38033 0.0
H625 H 0.04159 0.61532 0.32066 0.0
C626 C 0.3562 0.92128 0.14414 0.0
C627 C 0.33853 0.91693 0.10459 0.0
C628 C 0.35202 0.94006 0.18099 0.0
C629 C 0.31951 0.0001 0.19976 0.0
H630 H 0.33777 0.98931 0.34327 0.0
C631 C 0.31681 0.0791 0.35756 0.0
C632 C 0.33838 0.07986 0.38932 0.0
C633 C 0.31295 0.05883 0.32353 0.0
C634 C 0.33263 0.99264 0.3033 0.0
H635 H 0.30231 0.9286 0.07336 0.0
H636 H 0.29512 0.9616 0.13784 0.0
H637 H 0.33783 0.95387 0.28327 0.0
H638 H 0.37311 0.06021 0.40899 0.0
H639 H 0.36645 0.02542 0.3501 0.0
H640 H 0.31509 0.03911 0.21968 0.0
C641 C 0.31223 0.95046 0.14005 0.0
C642 C 0.33266 0.97234 0.26898 0.0
C643 C 0.3163 0.93146 0.10337 0.0
C644 C 0.35612 0.06021 0.38563 0.0
C645 C 0.35224 0.04009 0.35203 0.0
C646 C 0.31954 0.0205 0.23419 0.0
C647 C 0.33014 0.95504 0.17904 0.0
C648 C 0.32678 0.97596 0.21656 0.0
C649 C 0.33051 0.03896 0.32101 0.0
C650 C 0.32683 0.01707 0.28598 0.0
H651 H 0.37349 0.91039 0.1463 0.0
H652 H 0.36632 0.94333 0.21021 0.0
H653 H 0.31501 0.00347 0.15949 0.0
H654 H 0.30281 0.09396 0.35938 0.0
H655 H 0.29604 0.05846 0.29995 0.0
C656 C 0.79164 0.3198 0.34926 0.0
C657 C 0.81042 0.30858 0.38001 0.0
C658 C 0.77793 0.3054 0.31364 0.0
C659 C 0.77902 0.24528 0.2409 0.0
H660 H 0.70653 0.25534 0.23348 0.0
C661 C 0.71339 0.17875 0.12474 0.0
C662 C 0.69451 0.19038 0.09487 0.0
C663 C 0.72752 0.1928 0.16033 0.0
C664 C 0.72678 0.25245 0.23472 0.0
H665 H 0.82993 0.27348 0.39632 0.0
H666 H 0.80595 0.24846 0.33461 0.0
H667 H 0.7317 0.28112 0.29211 0.0
H668 H 0.67548 0.22586 0.0797 0.0
H669 H 0.70017 0.25021 0.14114 0.0
H670 H 0.77408 0.21661 0.18343 0.0
C671 C 0.80192 0.26841 0.33775 0.0
C672 C 0.74122 0.26727 0.26824 0.0
C673 C 0.81558 0.28277 0.37338 0.0
C674 C 0.68986 0.21625 0.10198 0.0
C675 C 0.70393 0.23023 0.13751 0.0
C676 C 0.76458 0.23045 0.20733 0.0
C677 C 0.78276 0.27949 0.30784 0.0
C678 C 0.76751 0.26391 0.27165 0.0
C679 C 0.72301 0.21873 0.16693 0.0
C680 C 0.7383 0.23392 0.20374 0.0
H681 H 0.78724 0.33965 0.35318 0.0
H682 H 0.76354 0.31457 0.29061 0.0
H683 H 0.79928 0.24241 0.24218 0.0
H684 H 0.71741 0.15885 0.12038 0.0
H685 H 0.74189 0.18332 0.18289 0.0
C686 C 0.82286 0.70821 0.13044 0.0
C687 C 0.81125 0.68988 0.09912 0.0
C688 C 0.8087 0.72173 0.16687 0.0
C689 C 0.74296 0.74061 0.19585 0.0
H690 H 0.76962 0.75635 0.33173 0.0
C691 C 0.68198 0.78626 0.35667 0.0
C692 C 0.69355 0.80503 0.38694 0.0
C693 C 0.69626 0.77196 0.32175 0.0
C694 C 0.762 0.75233 0.29373 0.0
H695 H 0.77577 0.67083 0.08291 0.0
H696 H 0.75131 0.69412 0.14655 0.0
H697 H 0.79504 0.73171 0.27129 0.0
H698 H 0.72919 0.82374 0.40339 0.0
H699 H 0.75387 0.79906 0.34232 0.0
H700 H 0.70996 0.76128 0.21818 0.0
C701 C 0.77122 0.69844 0.1423 0.0
C702 C 0.77658 0.73821 0.25911 0.0
C703 C 0.78533 0.68497 0.10598 0.0
C704 C 0.71964 0.80935 0.38098 0.0
C705 C 0.73387 0.79507 0.34617 0.0
C706 C 0.72839 0.75473 0.23045 0.0
C707 C 0.78264 0.71718 0.17276 0.0
C708 C 0.76723 0.73219 0.20976 0.0
C709 C 0.72241 0.77611 0.31634 0.0
C710 C 0.73775 0.76079 0.27977 0.0
H711 H 0.84279 0.71247 0.12619 0.0
H712 H 0.81803 0.73617 0.1895 0.0
H713 H 0.73535 0.73666 0.15781 0.0
H714 H 0.66195 0.78242 0.3603 0.0
H715 H 0.68689 0.75734 0.29965 0.0
C716 C 0.28307 0.81881 0.11265 0.0
C717 C 0.30555 0.80885 0.09203 0.0
C718 C 0.26808 0.80446 0.14612 0.0
C719 C 0.25687 0.73828 0.18777 0.0
H720 H 0.22229 0.77012 0.3029 0.0
C721 C 0.21291 0.68309 0.35821 0.0
C722 C 0.18893 0.69073 0.3757 0.0
C723 C 0.22581 0.69709 0.32084 0.0
C724 C 0.23161 0.76103 0.27055 0.0
H725 H 0.33027 0.77626 0.09162 0.0
H726 H 0.30462 0.75158 0.1511 0.0
H727 H 0.24803 0.79564 0.24473 0.0
H728 H 0.15948 0.71884 0.36682 0.0
H729 H 0.18225 0.74348 0.30184 0.0
H730 H 0.24094 0.70355 0.21475 0.0
C731 C 0.2981 0.77018 0.14029 0.0
C732 C 0.24634 0.77564 0.23711 0.0
C733 C 0.31294 0.78442 0.10643 0.0
C734 C 0.17791 0.71243 0.35417 0.0
C735 C 0.19099 0.72663 0.31723 0.0
C736 C 0.24236 0.72365 0.22154 0.0
C737 C 0.27534 0.77991 0.16022 0.0
C738 C 0.25927 0.76445 0.19539 0.0
C739 C 0.21516 0.7192 0.30053 0.0
C740 C 0.22966 0.73486 0.26337 0.0
H741 H 0.27674 0.83753 0.10213 0.0
H742 H 0.25054 0.81248 0.16009 0.0
H743 H 0.26607 0.72906 0.15547 0.0
H744 H 0.22188 0.66641 0.37386 0.0
H745 H 0.24448 0.69102 0.30893 0.0
C746 C 0.32237 0.21021 0.3508 0.0
C747 C 0.31101 0.1908 0.37959 0.0
C748 C 0.30824 0.22397 0.31486 0.0
C749 C 0.24909 0.22239 0.23823 0.0
H750 H 0.25681 0.29505 0.23725 0.0
C751 C 0.18117 0.28782 0.12556 0.0
C752 C 0.19257 0.30738 0.09724 0.0
C753 C 0.19538 0.27357 0.1606 0.0
C754 C 0.25459 0.27476 0.23672 0.0
H755 H 0.27605 0.17014 0.3919 0.0
H756 H 0.25154 0.19418 0.32979 0.0
H757 H 0.28293 0.26969 0.29478 0.0
H758 H 0.22774 0.32762 0.08447 0.0
H759 H 0.25234 0.30279 0.145 0.0
H760 H 0.22069 0.22749 0.18019 0.0
C761 C 0.27137 0.1987 0.33465 0.0
C762 C 0.26962 0.26023 0.26956 0.0
C763 C 0.28543 0.18501 0.37056 0.0
C764 C 0.21831 0.31267 0.1055 0.0
C765 C 0.23244 0.29852 0.14051 0.0
C766 C 0.23404 0.23693 0.20538 0.0
C767 C 0.28251 0.21852 0.3068 0.0
C768 C 0.26705 0.23387 0.2707 0.0
C769 C 0.22121 0.27871 0.16823 0.0
C770 C 0.23665 0.26328 0.20421 0.0
H771 H 0.34205 0.21509 0.35664 0.0
H772 H 0.31746 0.23892 0.29344 0.0
H773 H 0.24685 0.2021 0.23774 0.0
H774 H 0.16137 0.28329 0.12024 0.0
H775 H 0.18613 0.2586 0.18187 0.0
C776 C 0.19026 0.71761 0.60367 0.0
C777 C 0.19764 0.69306 0.58997 0.0
C778 C 0.20489 0.73193 0.63787 0.0
C779 C 0.25549 0.72599 0.73696 0.0
H780 H 0.26229 0.79799 0.7153 0.0
C781 C 0.3246 0.78752 0.85559 0.0
C782 C 0.31405 0.80949 0.87706 0.0
C783 C 0.31134 0.77368 0.81835 0.0
C784 C 0.26047 0.77791 0.72189 0.0
H785 H 0.22632 0.66437 0.60129 0.0
H786 H 0.25209 0.68948 0.65962 0.0
H787 H 0.23712 0.77295 0.65515 0.0
H788 H 0.28174 0.83465 0.87479 0.0
H789 H 0.25882 0.81064 0.80942 0.0
H790 H 0.27916 0.73103 0.80336 0.0
C791 C 0.2347 0.69754 0.64502 0.0
C792 C 0.24594 0.76356 0.68762 0.0
C793 C 0.21996 0.68315 0.61129 0.0
C794 C 0.29035 0.81774 0.85923 0.0
C795 C 0.27726 0.80408 0.82158 0.0
C796 C 0.27023 0.74032 0.77087 0.0
C797 C 0.22738 0.72213 0.65881 0.0
C798 C 0.24313 0.73742 0.69488 0.0
C799 C 0.28745 0.78173 0.8013 0.0
C800 C 0.27274 0.76643 0.76386 0.0
H801 H 0.17309 0.72575 0.58822 0.0
H802 H 0.19839 0.7506 0.64828 0.0
H803 H 0.25343 0.70602 0.74439 0.0
H804 H 0.34281 0.78066 0.86846 0.0
H805 H 0.31974 0.75663 0.80298 0.0
C806 C 0.28824 0.18102 0.62498 0.0
C807 C 0.30736 0.19219 0.59494 0.0
C808 C 0.27426 0.19548 0.66011 0.0
C809 C 0.25623 0.26138 0.68879 0.0
H810 H 0.23886 0.23458 0.82371 0.0
C811 C 0.21208 0.32216 0.85195 0.0
C812 C 0.19295 0.31089 0.88184 0.0
C813 C 0.22569 0.30793 0.81581 0.0
C814 C 0.24332 0.24224 0.78595 0.0
H815 H 0.32715 0.22725 0.57924 0.0
H816 H 0.30304 0.25223 0.64076 0.0
H817 H 0.26344 0.20898 0.76365 0.0
H818 H 0.17263 0.27596 0.89588 0.0
H819 H 0.19616 0.25139 0.8328 0.0
H820 H 0.23617 0.29469 0.71125 0.0
C821 C 0.29849 0.23243 0.63651 0.0
C822 C 0.2574 0.22755 0.75153 0.0
C823 C 0.31243 0.21803 0.60144 0.0
C824 C 0.18737 0.28525 0.87389 0.0
C825 C 0.20096 0.27108 0.83791 0.0
C826 C 0.24218 0.27609 0.72326 0.0
C827 C 0.27912 0.22139 0.666 0.0
C828 C 0.26402 0.23694 0.70255 0.0
C829 C 0.22047 0.28215 0.80887 0.0
C830 C 0.23553 0.26667 0.77219 0.0
H831 H 0.28382 0.16119 0.62093 0.0
H832 H 0.2593 0.18644 0.68194 0.0
H833 H 0.26069 0.26904 0.65104 0.0
H834 H 0.21685 0.34186 0.85706 0.0
H835 H 0.24073 0.31698 0.79424 0.0
C836 C 0.82002 0.28843 0.62504 0.0
C837 C 0.80877 0.30743 0.59502 0.0
C838 C 0.80554 0.27441 0.66006 0.0
C839 C 0.7454 0.27529 0.73321 0.0
H840 H 0.75489 0.2029 0.73866 0.0
C841 C 0.67867 0.21026 0.85001 0.0
C842 C 0.69033 0.19126 0.8794 0.0
C843 C 0.69264 0.22415 0.81388 0.0
C844 C 0.75216 0.22312 0.73795 0.0
H845 H 0.77353 0.32692 0.57919 0.0
H846 H 0.7484 0.30244 0.63986 0.0
H847 H 0.78085 0.22815 0.68041 0.0
H848 H 0.72574 0.17163 0.89286 0.0
H849 H 0.74995 0.1959 0.83054 0.0
H850 H 0.71679 0.27028 0.79092 0.0
C851 C 0.76842 0.29846 0.63663 0.0
C852 C 0.76708 0.23759 0.70465 0.0
C853 C 0.78284 0.3124 0.60158 0.0
C854 C 0.7161 0.18613 0.871 0.0
C855 C 0.73 0.19996 0.83495 0.0
C856 C 0.7305 0.26082 0.76658 0.0
C857 C 0.77954 0.27917 0.66598 0.0
C858 C 0.7639 0.26385 0.70195 0.0
C859 C 0.71852 0.21927 0.80624 0.0
C860 C 0.73374 0.23456 0.76945 0.0
H861 H 0.83995 0.28415 0.62111 0.0
H862 H 0.81473 0.25988 0.68264 0.0
H863 H 0.7427 0.29551 0.73249 0.0
H864 H 0.65884 0.21465 0.85535 0.0
H865 H 0.68315 0.23869 0.79186 0.0
C866 C 0.7117 0.82304 0.63215 0.0
C867 C 0.69309 0.81092 0.60229 0.0
C868 C 0.72557 0.80956 0.66895 0.0
C869 C 0.72515 0.75049 0.74543 0.0
H870 H 0.79769 0.76073 0.7512 0.0
C871 C 0.79105 0.68222 0.85403 0.0
C872 C 0.81026 0.69298 0.88449 0.0
C873 C 0.7769 0.69714 0.82024 0.0
C874 C 0.77742 0.75784 0.75046 0.0
H875 H 0.67408 0.77523 0.58875 0.0
H876 H 0.69834 0.75184 0.65229 0.0
H877 H 0.77214 0.7864 0.69306 0.0
H878 H 0.82996 0.72783 0.90233 0.0
H879 H 0.80521 0.75378 0.84356 0.0
H880 H 0.73045 0.7218 0.80249 0.0
C881 C 0.7021 0.77178 0.64769 0.0
C882 C 0.76277 0.77259 0.71724 0.0
C883 C 0.68828 0.7852 0.61096 0.0
C884 C 0.81531 0.7189 0.87951 0.0
C885 C 0.8012 0.73378 0.84562 0.0
C886 C 0.7398 0.73573 0.77857 0.0
C887 C 0.72107 0.78371 0.6768 0.0
C888 C 0.73649 0.76897 0.71407 0.0
C889 C 0.78167 0.72313 0.81597 0.0
C890 C 0.76612 0.73911 0.78121 0.0
H891 H 0.71582 0.84285 0.62664 0.0
H892 H 0.73984 0.81938 0.69125 0.0
H893 H 0.7049 0.7475 0.74456 0.0
H894 H 0.7867 0.66232 0.8567 0.0
H895 H 0.76224 0.68829 0.7973 0.0
loop_
_geom_bond_atom_site_label_1
_geom_bond_atom_site_label_2
_geom_bond_distance
_geom_bond_site_symmetry_2
_ccdc_geom_bond_type
Fe0 O2 1.918 . S
Fe0 O5 1.997 1_554 S
Fe0 O6 2.002 1_554 S
Fe0 O11 1.976 . S
Fe0 O14 1.996 . S
Fe1 O2 1.918 . S
Fe1 O9 1.997 1_554 S
Fe1 O12 1.996 . S
Fe1 O16 1.976 . S
Fe1 O19 2.002 1_554 S
O2 Fe0 1.918 . S
O2 Fe1 1.918 . S
O2 Fe3 1.918 . S
Fe3 O2 1.918 . S
Fe3 O4 2.002 1_554 S
Fe3 O13 1.976 . S
Fe3 O17 1.996 . S
Fe3 O20 1.997 1_554 S
O4 Fe3 2.002 1_556 S
O4 C21 1.295 . S
O5 Fe0 1.997 1_556 S
O5 C21 1.235 . S
O6 Fe0 2.002 1_556 S
O6 C7 1.295 . S
C7 O6 1.295 . S
C7 O9 1.235 . S
C8 O13 1.287 . S
C8 O14 1.255 . S
O9 Fe1 1.997 1_556 S
O9 C7 1.235 . S
C10 O16 1.287 . S
C10 O17 1.255 . S
O11 Fe0 1.976 . S
O11 C18 1.287 . S
O12 Fe1 1.996 . S
O12 C18 1.255 . S
O13 Fe3 1.976 . S
O13 C8 1.287 . S
O14 Fe0 1.996 . S
O14 C8 1.255 . S
C15 O19 1.295 . S
C15 O20 1.235 . S
O16 Fe1 1.976 . S
O16 C10 1.287 . S
O17 Fe3 1.996 . S
O17 C10 1.255 . S
C18 O11 1.287 . S
C18 O12 1.255 . S
O19 Fe1 2.002 1_556 S
O19 C15 1.295 . S
O20 Fe3 1.997 1_556 S
O20 C15 1.235 . S
C21 O4 1.295 . S
C21 O5 1.235 . S
Fe22 O24 1.918 . S
Fe22 O27 1.997 1_556 S
Fe22 O28 2.002 1_556 S
Fe22 O33 1.976 . S
Fe22 O36 1.996 . S
Fe23 O24 1.918 . S
Fe23 O31 1.997 1_556 S
Fe23 O34 1.996 . S
Fe23 O38 1.976 . S
Fe23 O41 2.002 1_556 S
O24 Fe22 1.918 . S
O24 Fe23 1.918 . S
O24 Fe25 1.918 . S
Fe25 O24 1.918 . S
Fe25 O26 2.002 1_556 S
Fe25 O35 1.976 . S
Fe25 O39 1.996 . S
Fe25 O42 1.997 1_556 S
O26 Fe25 2.002 1_554 S
O26 C43 1.295 . S
O27 Fe22 1.997 1_554 S
O27 C43 1.235 . S
O28 Fe22 2.002 1_554 S
O28 C29 1.295 . S
C29 O28 1.295 . S
C29 O31 1.235 . S
C30 O35 1.287 . S
C30 O36 1.255 . S
O31 Fe23 1.997 1_554 S
O31 C29 1.235 . S
C32 O38 1.287 . S
C32 O39 1.255 . S
O33 Fe22 1.976 . S
O33 C40 1.287 . S
O34 Fe23 1.996 . S
O34 C40 1.255 . S
O35 Fe25 1.976 . S
O35 C30 1.287 . S
O36 Fe22 1.996 . S
O36 C30 1.255 . S
C37 O41 1.295 . S
C37 O42 1.235 . S
O38 Fe23 1.976 . S
O38 C32 1.287 . S
O39 Fe25 1.996 . S
O39 C32 1.255 . S
C40 O33 1.287 . S
C40 O34 1.255 . S
O41 Fe23 2.002 1_554 S
O41 C37 1.295 . S
O42 Fe25 1.997 1_554 S
O42 C37 1.235 . S
C43 O26 1.295 . S
C43 O27 1.235 . S
Fe44 O46 1.918 . S
Fe44 O49 1.997 1_556 S
Fe44 O50 2.002 1_556 S
Fe44 O55 1.976 . S
Fe44 O58 1.996 . S
Fe45 O46 1.918 . S
Fe45 O53 1.997 1_556 S
Fe45 O56 1.996 . S
Fe45 O60 1.976 . S
Fe45 O63 2.002 1_556 S
O46 Fe44 1.918 . S
O46 Fe45 1.918 . S
O46 Fe47 1.918 . S
Fe47 O46 1.918 . S
Fe47 O48 2.002 1_556 S
Fe47 O57 1.976 . S
Fe47 O61 1.996 . S
Fe47 O64 1.997 1_556 S
O48 Fe47 2.002 1_554 S
O48 C65 1.295 . S
O49 Fe44 1.997 1_554 S
O49 C65 1.235 . S
O50 Fe44 2.002 1_554 S
O50 C51 1.295 . S
C51 O50 1.295 . S
C51 O53 1.235 . S
C52 O57 1.287 . S
C52 O58 1.255 . S
O53 Fe45 1.997 1_554 S
O53 C51 1.235 . S
C54 O60 1.287 . S
C54 O61 1.255 . S
O55 Fe44 1.976 . S
O55 C62 1.287 . S
O56 Fe45 1.996 . S
O56 C62 1.255 . S
O57 Fe47 1.976 . S
O57 C52 1.287 . S
O58 Fe44 1.996 . S
O58 C52 1.255 . S
C59 O63 1.295 . S
C59 O64 1.235 . S
O60 Fe45 1.976 . S
O60 C54 1.287 . S
O61 Fe47 1.996 . S
O61 C54 1.255 . S
C62 O55 1.287 . S
C62 O56 1.255 . S
O63 Fe45 2.002 1_554 S
O63 C59 1.295 . S
O64 Fe47 1.997 1_554 S
O64 C59 1.235 . S
C65 O48 1.295 . S
C65 O49 1.235 . S
Fe66 O68 1.918 . S
Fe66 O71 1.997 1_556 S
Fe66 O72 2.002 1_556 S
Fe66 O77 1.976 . S
Fe66 O80 1.996 . S
Fe67 O68 1.918 . S
Fe67 O75 1.997 1_556 S
Fe67 O78 1.996 . S
Fe67 O82 1.976 . S
Fe67 O85 2.002 1_556 S
O68 Fe66 1.918 . S
O68 Fe67 1.918 . S
O68 Fe69 1.918 . S
Fe69 O68 1.918 . S
Fe69 O70 2.002 1_556 S
Fe69 O79 1.976 . S
Fe69 O83 1.996 . S
Fe69 O86 1.997 1_556 S
O70 Fe69 2.002 1_554 S
O70 C87 1.295 . S
O71 Fe66 1.997 1_554 S
O71 C87 1.235 . S
O72 Fe66 2.002 1_554 S
O72 C73 1.295 . S
C73 O72 1.295 . S
C73 O75 1.235 . S
C74 O79 1.287 . S
C74 O80 1.255 . S
O75 Fe67 1.997 1_554 S
O75 C73 1.235 . S
C76 O82 1.287 . S
C76 O83 1.255 . S
O77 Fe66 1.976 . S
O77 C84 1.287 . S
O78 Fe67 1.996 . S
O78 C84 1.255 . S
O79 Fe69 1.976 . S
O79 C74 1.287 . S
O80 Fe66 1.996 . S
O80 C74 1.255 . S
C81 O85 1.295 . S
C81 O86 1.235 . S
O82 Fe67 1.976 . S
O82 C76 1.287 . S
O83 Fe69 1.996 . S
O83 C76 1.255 . S
C84 O77 1.287 . S
C84 O78 1.255 . S
O85 Fe67 2.002 1_554 S
O85 C81 1.295 . S
O86 Fe69 1.997 1_554 S
O86 C81 1.235 . S
C87 O70 1.295 . S
C87 O71 1.235 . S
Fe88 O90 1.918 . S
Fe88 O93 1.997 . S
Fe88 O94 2.002 . S
Fe88 O99 1.976 . S
Fe88 O102 1.996 . S
Fe89 O90 1.918 . S
Fe89 O97 1.997 . S
Fe89 O100 1.996 . S
Fe89 O104 1.976 . S
Fe89 O107 2.002 . S
O90 Fe88 1.918 . S
O90 Fe89 1.918 . S
O90 Fe91 1.918 . S
Fe91 O90 1.918 . S
Fe91 O92 2.002 . S
Fe91 O101 1.976 . S
Fe91 O105 1.996 . S
Fe91 O108 1.997 . S
O92 Fe91 2.002 . S
O92 C109 1.295 . S
O93 Fe88 1.997 . S
O93 C109 1.235 . S
O94 Fe88 2.002 . S
O94 C95 1.295 . S
C95 O94 1.295 . S
C95 O97 1.235 . S
C96 O101 1.287 . S
C96 O102 1.255 . S
O97 Fe89 1.997 . S
O97 C95 1.235 . S
C98 O104 1.287 . S
C98 O105 1.255 . S
O99 Fe88 1.976 . S
O99 C106 1.287 . S
O100 Fe89 1.996 . S
O100 C106 1.255 . S
O101 Fe91 1.976 . S
O101 C96 1.287 . S
O102 Fe88 1.996 . S
O102 C96 1.255 . S
C103 O107 1.295 . S
C103 O108 1.235 . S
O104 Fe89 1.976 . S
O104 C98 1.287 . S
O105 Fe91 1.996 . S
O105 C98 1.255 . S
C106 O99 1.287 . S
C106 O100 1.255 . S
O107 Fe89 2.002 . S
O107 C103 1.295 . S
O108 Fe91 1.997 . S
O108 C103 1.235 . S
C109 O92 1.295 . S
C109 O93 1.235 . S
Fe110 O112 1.918 . S
Fe110 O115 1.997 . S
Fe110 O116 2.002 . S
Fe110 O121 1.976 . S
Fe110 O124 1.996 . S
Fe111 O112 1.918 . S
Fe111 O119 1.997 . S
Fe111 O122 1.996 . S
Fe111 O126 1.976 . S
Fe111 O129 2.002 . S
O112 Fe110 1.918 . S
O112 Fe111 1.918 . S
O112 Fe113 1.918 . S
Fe113 O112 1.918 . S
Fe113 O114 2.002 . S
Fe113 O123 1.976 . S
Fe113 O127 1.996 . S
Fe113 O130 1.997 . S
O114 Fe113 2.002 . S
O114 C131 1.295 . S
O115 Fe110 1.997 . S
O115 C131 1.235 . S
O116 Fe110 2.002 . S
O116 C117 1.295 . S
C117 O116 1.295 . S
C117 O119 1.235 . S
C118 O123 1.287 . S
C118 O124 1.255 . S
O119 Fe111 1.997 . S
O119 C117 1.235 . S
C120 O126 1.287 . S
C120 O127 1.255 . S
O121 Fe110 1.976 . S
O121 C128 1.287 . S
O122 Fe111 1.996 . S
O122 C128 1.255 . S
O123 Fe113 1.976 . S
O123 C118 1.287 . S
O124 Fe110 1.996 . S
O124 C118 1.255 . S
C125 O129 1.295 . S
C125 O130 1.235 . S
O126 Fe111 1.976 . S
O126 C120 1.287 . S
O127 Fe113 1.996 . S
O127 C120 1.255 . S
C128 O121 1.287 . S
C128 O122 1.255 . S
O129 Fe111 2.002 . S
O129 C125 1.295 . S
O130 Fe113 1.997 . S
O130 C125 1.235 . S
C131 O114 1.295 . S
C131 O115 1.235 . S
Fe132 O134 1.918 . S
Fe132 O137 1.997 . S
Fe132 O138 2.002 . S
Fe132 O143 1.976 . S
Fe132 O146 1.996 . S
Fe133 O134 1.918 . S
Fe133 O141 1.997 . S
Fe133 O144 1.996 . S
Fe133 O148 1.976 . S
Fe133 O151 2.002 . S
O134 Fe132 1.918 . S
O134 Fe133 1.918 . S
O134 Fe135 1.918 . S
Fe135 O134 1.918 . S
Fe135 O136 2.002 . S
Fe135 O145 1.976 . S
Fe135 O149 1.996 . S
Fe135 O152 1.997 . S
O136 Fe135 2.002 . S
O136 C153 1.295 . S
O137 Fe132 1.997 . S
O137 C153 1.235 . S
O138 Fe132 2.002 . S
O138 C139 1.295 . S
C139 O138 1.295 . S
C139 O141 1.235 . S
C140 O145 1.287 . S
C140 O146 1.255 . S
O141 Fe133 1.997 . S
O141 C139 1.235 . S
C142 O148 1.287 . S
C142 O149 1.255 . S
O143 Fe132 1.976 . S
O143 C150 1.287 . S
O144 Fe133 1.996 . S
O144 C150 1.255 . S
O145 Fe135 1.976 . S
O145 C140 1.287 . S
O146 Fe132 1.996 . S
O146 C140 1.255 . S
C147 O151 1.295 . S
C147 O152 1.235 . S
O148 Fe133 1.976 . S
O148 C142 1.287 . S
O149 Fe135 1.996 . S
O149 C142 1.255 . S
C150 O143 1.287 . S
C150 O144 1.255 . S
O151 Fe133 2.002 . S
O151 C147 1.295 . S
O152 Fe135 1.997 . S
O152 C147 1.235 . S
C153 O136 1.295 . S
C153 O137 1.235 . S
Fe154 O156 1.918 . S
Fe154 O159 1.997 . S
Fe154 O160 2.002 . S
Fe154 O165 1.976 . S
Fe154 O168 1.996 . S
Fe155 O156 1.918 . S
Fe155 O163 1.997 . S
Fe155 O166 1.996 . S
Fe155 O170 1.976 . S
Fe155 O173 2.002 . S
O156 Fe154 1.918 . S
O156 Fe155 1.918 . S
O156 Fe157 1.918 . S
Fe157 O156 1.918 . S
Fe157 O158 2.002 . S
Fe157 O167 1.976 . S
Fe157 O171 1.996 . S
Fe157 O174 1.997 . S
O158 Fe157 2.002 . S
O158 C175 1.295 . S
O159 Fe154 1.997 . S
O159 C175 1.235 . S
O160 Fe154 2.002 . S
O160 C161 1.295 . S
C161 O160 1.295 . S
C161 O163 1.235 . S
C162 O167 1.287 . S
C162 O168 1.255 . S
O163 Fe155 1.997 . S
O163 C161 1.235 . S
C164 O170 1.287 . S
C164 O171 1.255 . S
O165 Fe154 1.976 . S
O165 C172 1.287 . S
O166 Fe155 1.996 . S
O166 C172 1.255 . S
O167 Fe157 1.976 . S
O167 C162 1.287 . S
O168 Fe154 1.996 . S
O168 C162 1.255 . S
C169 O173 1.295 . S
C169 O174 1.235 . S
O170 Fe155 1.976 . S
O170 C164 1.287 . S
O171 Fe157 1.996 . S
O171 C164 1.255 . S
C172 O165 1.287 . S
C172 O166 1.255 . S
O173 Fe155 2.002 . S
O173 C169 1.295 . S
O174 Fe157 1.997 . S
O174 C169 1.235 . S
C175 O158 1.295 . S
C175 O159 1.235 . S
C176 C177 1.349 . S
C176 C178 1.327 . S
C176 H201 0.950 . S
C177 C176 1.349 . S
C177 C193 1.349 . S
C178 C176 1.327 . S
C178 C197 1.429 . S
C178 H202 0.950 . S
C179 C196 1.574 . S
C179 C198 1.368 . S
C179 H203 0.949 . S
H180 C184 0.949 . S
C181 C182 1.349 . S
C181 C183 1.327 . S
C181 H204 0.950 . S
C182 C181 1.349 . S
C182 C194 1.349 . S
C183 C181 1.327 . S
C183 C199 1.429 . S
C183 H205 0.950 . S
C184 H180 0.949 . S
C184 C192 1.574 . S
C184 C200 1.368 . S
H185 C193 0.950 . S
H186 C191 0.950 . S
H187 C192 0.949 . S
H188 C194 0.950 . S
H189 C195 0.950 . S
H190 C196 0.949 . S
C191 H186 0.950 . S
C191 C193 1.327 . S
C191 C197 1.429 . S
C192 C184 1.574 . S
C192 H187 0.949 . S
C192 C198 1.368 . S
C193 C177 1.349 . S
C193 H185 0.950 . S
C193 C191 1.327 . S
C194 C182 1.349 . S
C194 H188 0.950 . S
C194 C195 1.327 . S
C195 H189 0.950 . S
C195 C194 1.327 . S
C195 C199 1.429 . S
C196 C179 1.574 . S
C196 H190 0.949 . S
C196 C200 1.368 . S
C197 C178 1.429 . S
C197 C191 1.429 . S
C197 C198 1.523 . S
C198 C179 1.368 . S
C198 C192 1.368 . S
C198 C197 1.523 . S
C199 C183 1.429 . S
C199 C195 1.429 . S
C199 C200 1.523 . S
C200 C184 1.368 . S
C200 C196 1.368 . S
C200 C199 1.523 . S
H201 C176 0.950 . S
H202 C178 0.950 . S
H203 C179 0.949 . S
H204 C181 0.950 . S
H205 C183 0.950 . S
C206 C207 1.349 . S
C206 C208 1.327 . S
C206 H231 0.950 . S
C207 C206 1.349 . S
C207 C223 1.349 . S
C208 C206 1.327 . S
C208 C227 1.429 . S
C208 H232 0.950 . S
C209 C226 1.574 . S
C209 C228 1.368 . S
C209 H233 0.949 . S
H210 C214 0.949 . S
C211 C212 1.349 . S
C211 C213 1.327 . S
C211 H234 0.950 . S
C212 C211 1.349 . S
C212 C224 1.349 . S
C213 C211 1.327 . S
C213 C229 1.429 . S
C213 H235 0.950 . S
C214 H210 0.949 . S
C214 C222 1.574 . S
C214 C230 1.368 . S
H215 C223 0.950 . S
H216 C221 0.950 . S
H217 C222 0.949 . S
H218 C224 0.950 . S
H219 C225 0.950 . S
H220 C226 0.949 . S
C221 H216 0.950 . S
C221 C223 1.327 . S
C221 C227 1.429 . S
C222 C214 1.574 . S
C222 H217 0.949 . S
C222 C228 1.368 . S
C223 C207 1.349 . S
C223 H215 0.950 . S
C223 C221 1.327 . S
C224 C212 1.349 . S
C224 H218 0.950 . S
C224 C225 1.327 . S
C225 H219 0.950 . S
C225 C224 1.327 . S
C225 C229 1.429 . S
C226 C209 1.574 . S
C226 H220 0.949 . S
C226 C230 1.368 . S
C227 C208 1.429 . S
C227 C221 1.429 . S
C227 C228 1.523 . S
C228 C209 1.368 . S
C228 C222 1.368 . S
C228 C227 1.523 . S
C229 C213 1.429 . S
C229 C225 1.429 . S
C229 C230 1.523 . S
C230 C214 1.368 . S
C230 C226 1.368 . S
C230 C229 1.523 . S
H231 C206 0.950 . S
H232 C208 0.950 . S
H233 C209 0.949 . S
H234 C211 0.950 . S
H235 C213 0.950 . S
C236 C237 1.349 . S
C236 C238 1.327 . S
C236 H261 0.950 . S
C237 C236 1.349 . S
C237 C253 1.349 . S
C238 C236 1.327 . S
C238 C257 1.429 . S
C238 H262 0.950 . S
C239 C256 1.574 . S
C239 C258 1.368 . S
C239 H263 0.949 . S
H240 C244 0.949 . S
C241 C242 1.349 . S
C241 C243 1.327 . S
C241 H264 0.950 . S
C242 C241 1.349 . S
C242 C254 1.349 . S
C243 C241 1.327 . S
C243 C259 1.429 . S
C243 H265 0.950 . S
C244 H240 0.949 . S
C244 C252 1.574 . S
C244 C260 1.368 . S
H245 C253 0.950 . S
H246 C251 0.950 . S
H247 C252 0.949 . S
H248 C254 0.950 . S
H249 C255 0.950 . S
H250 C256 0.949 . S
C251 H246 0.950 . S
C251 C253 1.327 . S
C251 C257 1.429 . S
C252 C244 1.574 . S
C252 H247 0.949 . S
C252 C258 1.368 . S
C253 C237 1.349 . S
C253 H245 0.950 . S
C253 C251 1.327 . S
C254 C242 1.349 . S
C254 H248 0.950 . S
C254 C255 1.327 . S
C255 H249 0.950 . S
C255 C254 1.327 . S
C255 C259 1.429 . S
C256 C239 1.574 . S
C256 H250 0.949 . S
C256 C260 1.368 . S
C257 C238 1.429 . S
C257 C251 1.429 . S
C257 C258 1.523 . S
C258 C239 1.368 . S
C258 C252 1.368 . S
C258 C257 1.523 . S
C259 C243 1.429 . S
C259 C255 1.429 . S
C259 C260 1.523 . S
C260 C244 1.368 . S
C260 C256 1.368 . S
C260 C259 1.523 . S
H261 C236 0.950 . S
H262 C238 0.950 . S
H263 C239 0.949 . S
H264 C241 0.950 . S
H265 C243 0.950 . S
C266 C267 1.349 . S
C266 C268 1.327 . S
C266 H291 0.950 . S
C267 C266 1.349 . S
C267 C283 1.349 . S
C268 C266 1.327 . S
C268 C287 1.429 . S
C268 H292 0.950 . S
C269 C286 1.574 . S
C269 C288 1.368 . S
C269 H293 0.949 . S
H270 C274 0.949 . S
C271 C272 1.349 . S
C271 C273 1.327 . S
C271 H294 0.950 . S
C272 C271 1.349 . S
C272 C284 1.349 . S
C273 C271 1.327 . S
C273 C289 1.429 . S
C273 H295 0.950 . S
C274 H270 0.949 . S
C274 C282 1.574 . S
C274 C290 1.368 . S
H275 C283 0.950 . S
H276 C281 0.950 . S
H277 C282 0.949 . S
H278 C284 0.950 . S
H279 C285 0.950 . S
H280 C286 0.949 . S
C281 H276 0.950 . S
C281 C283 1.327 . S
C281 C287 1.429 . S
C282 C274 1.574 . S
C282 H277 0.949 . S
C282 C288 1.368 . S
C283 C267 1.349 . S
C283 H275 0.950 . S
C283 C281 1.327 . S
C284 C272 1.349 . S
C284 H278 0.950 . S
C284 C285 1.327 . S
C285 H279 0.950 . S
C285 C284 1.327 . S
C285 C289 1.429 . S
C286 C269 1.574 . S
C286 H280 0.949 . S
C286 C290 1.368 . S
C287 C268 1.429 . S
C287 C281 1.429 . S
C287 C288 1.523 . S
C288 C269 1.368 . S
C288 C282 1.368 . S
C288 C287 1.523 . S
C289 C273 1.429 . S
C289 C285 1.429 . S
C289 C290 1.523 . S
C290 C274 1.368 . S
C290 C286 1.368 . S
C290 C289 1.523 . S
H291 C266 0.950 . S
H292 C268 0.950 . S
H293 C269 0.949 . S
H294 C271 0.950 . S
H295 C273 0.950 . S
C296 C297 1.349 . S
C296 C298 1.327 . S
C296 H321 0.950 . S
C297 C296 1.349 . S
C297 C313 1.349 . S
C298 C296 1.327 . S
C298 C317 1.429 . S
C298 H322 0.950 . S
C299 C316 1.574 . S
C299 C318 1.368 . S
C299 H323 0.949 . S
H300 C304 0.949 . S
C301 C302 1.349 . S
C301 C303 1.327 . S
C301 H324 0.950 . S
C302 C301 1.349 . S
C302 C314 1.349 . S
C303 C301 1.327 . S
C303 C319 1.429 . S
C303 H325 0.950 . S
C304 H300 0.949 . S
C304 C312 1.574 . S
C304 C320 1.368 . S
H305 C313 0.950 . S
H306 C311 0.950 . S
H307 C312 0.949 . S
H308 C314 0.950 . S
H309 C315 0.950 . S
H310 C316 0.949 . S
C311 H306 0.950 . S
C311 C313 1.327 . S
C311 C317 1.429 . S
C312 C304 1.574 . S
C312 H307 0.949 . S
C312 C318 1.368 . S
C313 C297 1.349 . S
C313 H305 0.950 . S
C313 C311 1.327 . S
C314 C302 1.349 . S
C314 H308 0.950 . S
C314 C315 1.327 . S
C315 H309 0.950 . S
C315 C314 1.327 . S
C315 C319 1.429 . S
C316 C299 1.574 . S
C316 H310 0.949 . S
C316 C320 1.368 . S
C317 C298 1.429 . S
C317 C311 1.429 . S
C317 C318 1.523 . S
C318 C299 1.368 . S
C318 C312 1.368 . S
C318 C317 1.523 . S
C319 C303 1.429 . S
C319 C315 1.429 . S
C319 C320 1.523 . S
C320 C304 1.368 . S
C320 C316 1.368 . S
C320 C319 1.523 . S
H321 C296 0.950 . S
H322 C298 0.950 . S
H323 C299 0.949 . S
H324 C301 0.950 . S
H325 C303 0.950 . S
C326 C327 1.349 . S
C326 C328 1.327 . S
C326 H351 0.950 . S
C327 C326 1.349 . S
C327 C343 1.349 . S
C328 C326 1.327 . S
C328 C347 1.429 . S
C328 H352 0.950 . S
C329 C346 1.574 . S
C329 C348 1.368 . S
C329 H353 0.949 . S
H330 C334 0.949 . S
C331 C332 1.349 . S
C331 C333 1.327 . S
C331 H354 0.950 . S
C332 C331 1.349 . S
C332 C344 1.349 . S
C333 C331 1.327 . S
C333 C349 1.429 . S
C333 H355 0.950 . S
C334 H330 0.949 . S
C334 C342 1.574 . S
C334 C350 1.368 . S
H335 C343 0.950 . S
H336 C341 0.950 . S
H337 C342 0.949 . S
H338 C344 0.950 . S
H339 C345 0.950 . S
H340 C346 0.949 . S
C341 H336 0.950 . S
C341 C343 1.327 . S
C341 C347 1.429 . S
C342 C334 1.574 . S
C342 H337 0.949 . S
C342 C348 1.368 . S
C343 C327 1.349 . S
C343 H335 0.950 . S
C343 C341 1.327 . S
C344 C332 1.349 . S
C344 H338 0.950 . S
C344 C345 1.327 . S
C345 H339 0.950 . S
C345 C344 1.327 . S
C345 C349 1.429 . S
C346 C329 1.574 . S
C346 H340 0.949 . S
C346 C350 1.368 . S
C347 C328 1.429 . S
C347 C341 1.429 . S
C347 C348 1.523 . S
C348 C329 1.368 . S
C348 C342 1.368 . S
C348 C347 1.523 . S
C349 C333 1.429 . S
C349 C345 1.429 . S
C349 C350 1.523 . S
C350 C334 1.368 . S
C350 C346 1.368 . S
C350 C349 1.523 . S
H351 C326 0.950 . S
H352 C328 0.950 . S
H353 C329 0.949 . S
H354 C331 0.950 . S
H355 C333 0.950 . S
C356 C357 1.349 . S
C356 C358 1.327 . S
C356 H381 0.950 . S
C357 C356 1.349 . S
C357 C373 1.349 . S
C358 C356 1.327 . S
C358 C377 1.429 . S
C358 H382 0.950 . S
C359 C376 1.574 . S
C359 C378 1.368 . S
C359 H383 0.949 . S
H360 C364 0.949 . S
C361 C362 1.349 . S
C361 C363 1.327 . S
C361 H384 0.950 . S
C362 C361 1.349 . S
C362 C374 1.349 . S
C363 C361 1.327 . S
C363 C379 1.429 . S
C363 H385 0.950 . S
C364 H360 0.949 . S
C364 C372 1.574 . S
C364 C380 1.368 . S
H365 C373 0.950 . S
H366 C371 0.950 . S
H367 C372 0.949 . S
H368 C374 0.950 . S
H369 C375 0.950 . S
H370 C376 0.949 . S
C371 H366 0.950 . S
C371 C373 1.327 . S
C371 C377 1.429 . S
C372 C364 1.574 . S
C372 H367 0.949 . S
C372 C378 1.368 . S
C373 C357 1.349 . S
C373 H365 0.950 . S
C373 C371 1.327 . S
C374 C362 1.349 . S
C374 H368 0.950 . S
C374 C375 1.327 . S
C375 H369 0.950 . S
C375 C374 1.327 . S
C375 C379 1.429 . S
C376 C359 1.574 . S
C376 H370 0.949 . S
C376 C380 1.368 . S
C377 C358 1.429 . S
C377 C371 1.429 . S
C377 C378 1.523 . S
C378 C359 1.368 . S
C378 C372 1.368 . S
C378 C377 1.523 . S
C379 C363 1.429 . S
C379 C375 1.429 . S
C379 C380 1.523 . S
C380 C364 1.368 . S
C380 C376 1.368 . S
C380 C379 1.523 . S
H381 C356 0.950 . S
H382 C358 0.950 . S
H383 C359 0.949 . S
H384 C361 0.950 . S
H385 C363 0.950 . S
C386 C387 1.349 . S
C386 C388 1.327 . S
C386 H411 0.950 . S
C387 C386 1.349 . S
C387 C403 1.349 . S
C388 C386 1.327 . S
C388 C407 1.429 . S
C388 H412 0.950 . S
C389 C406 1.574 . S
C389 C408 1.368 . S
C389 H413 0.949 . S
H390 C394 0.949 . S
C391 C392 1.349 . S
C391 C393 1.327 . S
C391 H414 0.950 . S
C392 C391 1.349 . S
C392 C404 1.349 . S
C393 C391 1.327 . S
C393 C409 1.429 . S
C393 H415 0.950 . S
C394 H390 0.949 . S
C394 C402 1.574 . S
C394 C410 1.368 . S
H395 C403 0.950 . S
H396 C401 0.950 . S
H397 C402 0.949 . S
H398 C404 0.950 . S
H399 C405 0.950 . S
H400 C406 0.949 . S
C401 H396 0.950 . S
C401 C403 1.327 . S
C401 C407 1.429 . S
C402 C394 1.574 . S
C402 H397 0.949 . S
C402 C408 1.368 . S
C403 C387 1.349 . S
C403 H395 0.950 . S
C403 C401 1.327 . S
C404 C392 1.349 . S
C404 H398 0.950 . S
C404 C405 1.327 . S
C405 H399 0.950 . S
C405 C404 1.327 . S
C405 C409 1.429 . S
C406 C389 1.574 . S
C406 H400 0.949 . S
C406 C410 1.368 . S
C407 C388 1.429 . S
C407 C401 1.429 . S
C407 C408 1.523 . S
C408 C389 1.368 . S
C408 C402 1.368 . S
C408 C407 1.523 . S
C409 C393 1.429 . S
C409 C405 1.429 . S
C409 C410 1.523 . S
C410 C394 1.368 . S
C410 C406 1.368 . S
C410 C409 1.523 . S
H411 C386 0.950 . S
H412 C388 0.950 . S
H413 C389 0.949 . S
H414 C391 0.950 . S
H415 C393 0.950 . S
C416 C417 1.349 . S
C416 C418 1.327 . S
C416 H441 0.950 . S
C417 C416 1.349 . S
C417 C433 1.349 . S
C418 C416 1.327 . S
C418 C437 1.429 . S
C418 H442 0.950 . S
C419 C436 1.574 1_655 S
C419 C438 1.368 . S
C419 H443 0.949 . S
H420 C424 0.949 . S
C421 C422 1.349 . S
C421 C423 1.327 . S
C421 H444 0.950 . S
C422 C421 1.349 . S
C422 C434 1.349 . S
C423 C421 1.327 . S
C423 C439 1.429 . S
C423 H445 0.950 . S
C424 H420 0.949 . S
C424 C432 1.574 1_455 S
C424 C440 1.368 . S
H425 C433 0.950 . S
H426 C431 0.950 . S
H427 C432 0.949 . S
H428 C434 0.950 . S
H429 C435 0.950 . S
H430 C436 0.949 . S
C431 H426 0.950 . S
C431 C433 1.327 . S
C431 C437 1.429 . S
C432 C424 1.574 1_655 S
C432 H427 0.949 . S
C432 C438 1.368 . S
C433 C417 1.349 . S
C433 H425 0.950 . S
C433 C431 1.327 . S
C434 C422 1.349 . S
C434 H428 0.950 . S
C434 C435 1.327 . S
C435 H429 0.950 . S
C435 C434 1.327 . S
C435 C439 1.429 . S
C436 C419 1.574 1_455 S
C436 H430 0.949 . S
C436 C440 1.368 . S
C437 C418 1.429 . S
C437 C431 1.429 . S
C437 C438 1.523 . S
C438 C419 1.368 . S
C438 C432 1.368 . S
C438 C437 1.523 . S
C439 C423 1.429 . S
C439 C435 1.429 . S
C439 C440 1.523 . S
C440 C424 1.368 . S
C440 C436 1.368 . S
C440 C439 1.523 . S
H441 C416 0.950 . S
H442 C418 0.950 . S
H443 C419 0.949 . S
H444 C421 0.950 . S
H445 C423 0.950 . S
C446 C447 1.349 . S
C446 C448 1.327 . S
C446 H471 0.950 . S
C447 C446 1.349 . S
C447 C463 1.349 . S
C448 C446 1.327 . S
C448 C467 1.429 . S
C448 H472 0.950 . S
C449 C466 1.574 . S
C449 C468 1.368 . S
C449 H473 0.949 . S
H450 C454 0.949 . S
C451 C452 1.349 . S
C451 C453 1.327 . S
C451 H474 0.950 . S
C452 C451 1.349 . S
C452 C464 1.349 . S
C453 C451 1.327 . S
C453 C469 1.429 . S
C453 H475 0.950 . S
C454 H450 0.949 . S
C454 C462 1.574 . S
C454 C470 1.368 . S
H455 C463 0.950 . S
H456 C461 0.950 . S
H457 C462 0.949 . S
H458 C464 0.950 . S
H459 C465 0.950 . S
H460 C466 0.949 . S
C461 H456 0.950 . S
C461 C463 1.327 . S
C461 C467 1.429 . S
C462 C454 1.574 . S
C462 H457 0.949 . S
C462 C468 1.368 1_565 S
C463 C447 1.349 . S
C463 H455 0.950 . S
C463 C461 1.327 . S
C464 C452 1.349 . S
C464 H458 0.950 . S
C464 C465 1.327 . S
C465 H459 0.950 . S
C465 C464 1.327 . S
C465 C469 1.429 . S
C466 C449 1.574 . S
C466 H460 0.949 . S
C466 C470 1.368 1_545 S
C467 C448 1.429 . S
C467 C461 1.429 . S
C467 C468 1.523 . S
C468 C449 1.368 . S
C468 C462 1.368 1_545 S
C468 C467 1.523 . S
C469 C453 1.429 . S
C469 C465 1.429 . S
C469 C470 1.523 . S
C470 C454 1.368 . S
C470 C466 1.368 1_565 S
C470 C469 1.523 . S
H471 C446 0.950 . S
H472 C448 0.950 . S
H473 C449 0.949 . S
H474 C451 0.950 . S
H475 C453 0.950 . S
C476 C477 1.349 . S
C476 C478 1.327 . S
C476 H501 0.950 . S
C477 C476 1.349 . S
C477 C493 1.349 . S
C478 C476 1.327 . S
C478 C497 1.429 . S
C478 H502 0.950 . S
C479 C496 1.574 1_655 S
C479 C498 1.368 . S
C479 H503 0.949 . S
H480 C484 0.949 . S
C481 C482 1.349 . S
C481 C483 1.327 . S
C481 H504 0.950 . S
C482 C481 1.349 . S
C482 C494 1.349 . S
C483 C481 1.327 . S
C483 C499 1.429 . S
C483 H505 0.950 . S
C484 H480 0.949 . S
C484 C492 1.574 1_455 S
C484 C500 1.368 . S
H485 C493 0.950 . S
H486 C491 0.950 . S
H487 C492 0.949 . S
H488 C494 0.950 . S
H489 C495 0.950 . S
H490 C496 0.949 . S
C491 H486 0.950 . S
C491 C493 1.327 . S
C491 C497 1.429 . S
C492 C484 1.574 1_655 S
C492 H487 0.949 . S
C492 C498 1.368 . S
C493 C477 1.349 . S
C493 H485 0.950 . S
C493 C491 1.327 . S
C494 C482 1.349 . S
C494 H488 0.950 . S
C494 C495 1.327 . S
C495 H489 0.950 . S
C495 C494 1.327 . S
C495 C499 1.429 . S
C496 C479 1.574 1_455 S
C496 H490 0.949 . S
C496 C500 1.368 . S
C497 C478 1.429 . S
C497 C491 1.429 . S
C497 C498 1.523 . S
C498 C479 1.368 . S
C498 C492 1.368 . S
C498 C497 1.523 . S
C499 C483 1.429 . S
C499 C495 1.429 . S
C499 C500 1.523 . S
C500 C484 1.368 . S
C500 C496 1.368 . S
C500 C499 1.523 . S
H501 C476 0.950 . S
H502 C478 0.950 . S
H503 C479 0.949 . S
H504 C481 0.950 . S
H505 C483 0.950 . S
C506 C507 1.349 . S
C506 C508 1.327 . S
C506 H531 0.950 . S
C507 C506 1.349 . S
C507 C523 1.349 . S
C508 C506 1.327 . S
C508 C527 1.429 . S
C508 H532 0.950 . S
C509 C526 1.574 . S
C509 C528 1.368 . S
C509 H533 0.949 . S
H510 C514 0.949 . S
C511 C512 1.349 . S
C511 C513 1.327 . S
C511 H534 0.950 . S
C512 C511 1.349 . S
C512 C524 1.349 . S
C513 C511 1.327 . S
C513 C529 1.429 . S
C513 H535 0.950 . S
C514 H510 0.949 . S
C514 C522 1.574 . S
C514 C530 1.368 . S
H515 C523 0.950 . S
H516 C521 0.950 . S
H517 C522 0.949 . S
H518 C524 0.950 . S
H519 C525 0.950 . S
H520 C526 0.949 . S
C521 H516 0.950 . S
C521 C523 1.327 . S
C521 C527 1.429 . S
C522 C514 1.574 . S
C522 H517 0.949 . S
C522 C528 1.368 1_565 S
C523 C507 1.349 . S
C523 H515 0.950 . S
C523 C521 1.327 . S
C524 C512 1.349 . S
C524 H518 0.950 . S
C524 C525 1.327 . S
C525 H519 0.950 . S
C525 C524 1.327 . S
C525 C529 1.429 . S
C526 C509 1.574 . S
C526 H520 0.949 . S
C526 C530 1.368 1_545 S
C527 C508 1.429 . S
C527 C521 1.429 . S
C527 C528 1.523 . S
C528 C509 1.368 . S
C528 C522 1.368 1_545 S
C528 C527 1.523 . S
C529 C513 1.429 . S
C529 C525 1.429 . S
C529 C530 1.523 . S
C530 C514 1.368 . S
C530 C526 1.368 1_565 S
C530 C529 1.523 . S
H531 C506 0.950 . S
H532 C508 0.950 . S
H533 C509 0.949 . S
H534 C511 0.950 . S
H535 C513 0.950 . S
C536 C537 1.349 . S
C536 C538 1.327 . S
C536 H561 0.950 . S
C537 C536 1.349 . S
C537 C553 1.349 . S
C538 C536 1.327 . S
C538 C557 1.429 . S
C538 H562 0.950 . S
C539 C556 1.574 1_455 S
C539 C558 1.368 . S
C539 H563 0.949 . S
H540 C544 0.949 . S
C541 C542 1.349 . S
C541 C543 1.327 . S
C541 H564 0.950 . S
C542 C541 1.349 . S
C542 C554 1.349 . S
C543 C541 1.327 . S
C543 C559 1.429 . S
C543 H565 0.950 . S
C544 H540 0.949 . S
C544 C552 1.574 1_655 S
C544 C560 1.368 . S
H545 C553 0.950 . S
H546 C551 0.950 . S
H547 C552 0.949 . S
H548 C554 0.950 . S
H549 C555 0.950 . S
H550 C556 0.949 . S
C551 H546 0.950 . S
C551 C553 1.327 . S
C551 C557 1.429 . S
C552 C544 1.574 1_455 S
C552 H547 0.949 . S
C552 C558 1.368 . S
C553 C537 1.349 . S
C553 H545 0.950 . S
C553 C551 1.327 . S
C554 C542 1.349 . S
C554 H548 0.950 . S
C554 C555 1.327 . S
C555 H549 0.950 . S
C555 C554 1.327 . S
C555 C559 1.429 . S
C556 C539 1.574 1_655 S
C556 H550 0.949 . S
C556 C560 1.368 . S
C557 C538 1.429 . S
C557 C551 1.429 . S
C557 C558 1.523 . S
C558 C539 1.368 . S
C558 C552 1.368 . S
C558 C557 1.523 . S
C559 C543 1.429 . S
C559 C555 1.429 . S
C559 C560 1.523 . S
C560 C544 1.368 . S
C560 C556 1.368 . S
C560 C559 1.523 . S
H561 C536 0.950 . S
H562 C538 0.950 . S
H563 C539 0.949 . S
H564 C541 0.950 . S
H565 C543 0.950 . S
C566 C567 1.349 . S
C566 C568 1.327 . S
C566 H591 0.950 . S
C567 C566 1.349 . S
C567 C583 1.349 . S
C568 C566 1.327 . S
C568 C587 1.429 . S
C568 H592 0.950 . S
C569 C586 1.574 1_565 S
C569 C588 1.368 . S
C569 H593 0.949 . S
H570 C574 0.949 . S
C571 C572 1.349 . S
C571 C573 1.327 . S
C571 H594 0.950 . S
C572 C571 1.349 . S
C572 C584 1.349 . S
C573 C571 1.327 . S
C573 C589 1.429 . S
C573 H595 0.950 . S
C574 H570 0.949 . S
C574 C582 1.574 1_545 S
C574 C590 1.368 . S
H575 C583 0.950 . S
H576 C581 0.950 . S
H577 C582 0.949 . S
H578 C584 0.950 . S
H579 C585 0.950 . S
H580 C586 0.949 . S
C581 H576 0.950 . S
C581 C583 1.327 . S
C581 C587 1.429 . S
C582 C574 1.574 1_565 S
C582 H577 0.949 . S
C582 C588 1.368 . S
C583 C567 1.349 . S
C583 H575 0.950 . S
C583 C581 1.327 . S
C584 C572 1.349 . S
C584 H578 0.950 . S
C584 C585 1.327 . S
C585 H579 0.950 . S
C585 C584 1.327 . S
C585 C589 1.429 . S
C586 C569 1.574 1_545 S
C586 H580 0.949 . S
C586 C590 1.368 . S
C587 C568 1.429 . S
C587 C581 1.429 . S
C587 C588 1.523 . S
C588 C569 1.368 . S
C588 C582 1.368 . S
C588 C587 1.523 . S
C589 C573 1.429 . S
C589 C585 1.429 . S
C589 C590 1.523 . S
C590 C574 1.368 . S
C590 C586 1.368 . S
C590 C589 1.523 . S
H591 C566 0.950 . S
H592 C568 0.950 . S
H593 C569 0.949 . S
H594 C571 0.950 . S
H595 C573 0.950 . S
C596 C597 1.349 . S
C596 C598 1.327 . S
C596 H621 0.950 . S
C597 C596 1.349 . S
C597 C613 1.349 . S
C598 C596 1.327 . S
C598 C617 1.429 . S
C598 H622 0.950 . S
C599 C616 1.574 1_655 S
C599 C618 1.368 . S
C599 H623 0.949 . S
H600 C604 0.949 . S
C601 C602 1.349 . S
C601 C603 1.327 . S
C601 H624 0.950 . S
C602 C601 1.349 . S
C602 C614 1.349 . S
C603 C601 1.327 . S
C603 C619 1.429 . S
C603 H625 0.950 . S
C604 H600 0.949 . S
C604 C612 1.574 1_455 S
C604 C620 1.368 . S
H605 C613 0.950 . S
H606 C611 0.950 . S
H607 C612 0.949 . S
H608 C614 0.950 . S
H609 C615 0.950 . S
H610 C616 0.949 . S
C611 H606 0.950 . S
C611 C613 1.327 . S
C611 C617 1.429 . S
C612 C604 1.574 1_655 S
C612 H607 0.949 . S
C612 C618 1.368 . S
C613 C597 1.349 . S
C613 H605 0.950 . S
C613 C611 1.327 . S
C614 C602 1.349 . S
C614 H608 0.950 . S
C614 C615 1.327 . S
C615 H609 0.950 . S
C615 C614 1.327 . S
C615 C619 1.429 . S
C616 C599 1.574 1_455 S
C616 H610 0.949 . S
C616 C620 1.368 . S
C617 C598 1.429 . S
C617 C611 1.429 . S
C617 C618 1.523 . S
C618 C599 1.368 . S
C618 C612 1.368 . S
C618 C617 1.523 . S
C619 C603 1.429 . S
C619 C615 1.429 . S
C619 C620 1.523 . S
C620 C604 1.368 . S
C620 C616 1.368 . S
C620 C619 1.523 . S
H621 C596 0.950 . S
H622 C598 0.950 . S
H623 C599 0.949 . S
H624 C601 0.950 . S
H625 C603 0.950 . S
C626 C627 1.349 . S
C626 C628 1.327 . S
C626 H651 0.950 . S
C627 C626 1.349 . S
C627 C643 1.349 . S
C628 C626 1.327 . S
C628 C647 1.429 . S
C628 H652 0.950 . S
C629 C646 1.593 . S
C629 C648 1.348 1_545 S
C629 H653 0.950 . S
H630 C634 0.949 . S
C631 C632 1.349 . S
C631 C633 1.327 . S
C631 H654 0.950 . S
C632 C631 1.349 . S
C632 C644 1.349 . S
C633 C631 1.327 . S
C633 C649 1.429 . S
C633 H655 0.950 . S
C634 H630 0.949 . S
C634 C642 1.574 . S
C634 C650 1.368 1_565 S
H635 C643 0.950 . S
H636 C641 0.950 . S
H637 C642 0.949 . S
H638 C644 0.950 . S
H639 C645 0.950 . S
H640 C646 0.949 . S
C641 H636 0.950 . S
C641 C643 1.327 . S
C641 C647 1.429 . S
C642 C634 1.574 . S
C642 H637 0.949 . S
C642 C648 1.368 . S
C643 C627 1.349 . S
C643 H635 0.950 . S
C643 C641 1.327 . S
C644 C632 1.349 . S
C644 H638 0.950 . S
C644 C645 1.327 . S
C645 H639 0.950 . S
C645 C644 1.327 . S
C645 C649 1.429 . S
C646 C629 1.593 . S
C646 H640 0.949 . S
C646 C650 1.368 . S
C647 C628 1.429 . S
C647 C641 1.429 . S
C647 C648 1.523 . S
C648 C629 1.348 1_565 S
C648 C642 1.368 . S
C648 C647 1.523 . S
C649 C633 1.429 . S
C649 C645 1.429 . S
C649 C650 1.523 . S
C650 C634 1.368 1_545 S
C650 C646 1.368 . S
C650 C649 1.523 . S
H651 C626 0.950 . S
H652 C628 0.950 . S
H653 C629 0.950 . S
H654 C631 0.950 . S
H655 C633 0.950 . S
C656 C657 1.349 . S
C656 C658 1.327 . S
C656 H681 0.950 . S
C657 C656 1.349 . S
C657 C673 1.349 . S
C658 C656 1.327 . S
C658 C677 1.429 . S
C658 H682 0.950 . S
C659 C676 1.574 . S
C659 C678 1.368 . S
C659 H683 0.949 . S
H660 C664 0.949 . S
C661 C662 1.349 . S
C661 C663 1.327 . S
C661 H684 0.950 . S
C662 C661 1.349 . S
C662 C674 1.349 . S
C663 C661 1.327 . S
C663 C679 1.429 . S
C663 H685 0.950 . S
C664 H660 0.949 . S
C664 C672 1.574 . S
C664 C680 1.368 . S
H665 C673 0.950 . S
H666 C671 0.950 . S
H667 C672 0.949 . S
H668 C674 0.950 . S
H669 C675 0.950 . S
H670 C676 0.949 . S
C671 H666 0.950 . S
C671 C673 1.327 . S
C671 C677 1.429 . S
C672 C664 1.574 . S
C672 H667 0.949 . S
C672 C678 1.368 . S
C673 C657 1.349 . S
C673 H665 0.950 . S
C673 C671 1.327 . S
C674 C662 1.349 . S
C674 H668 0.950 . S
C674 C675 1.327 . S
C675 H669 0.950 . S
C675 C674 1.327 . S
C675 C679 1.429 . S
C676 C659 1.574 . S
C676 H670 0.949 . S
C676 C680 1.368 . S
C677 C658 1.429 . S
C677 C671 1.429 . S
C677 C678 1.523 . S
C678 C659 1.368 . S
C678 C672 1.368 . S
C678 C677 1.523 . S
C679 C663 1.429 . S
C679 C675 1.429 . S
C679 C680 1.523 . S
C680 C664 1.368 . S
C680 C676 1.368 . S
C680 C679 1.523 . S
H681 C656 0.950 . S
H682 C658 0.950 . S
H683 C659 0.949 . S
H684 C661 0.950 . S
H685 C663 0.950 . S
C686 C687 1.349 . S
C686 C688 1.327 . S
C686 H711 0.950 . S
C687 C686 1.349 . S
C687 C703 1.349 . S
C688 C686 1.327 . S
C688 C707 1.429 . S
C688 H712 0.950 . S
C689 C706 1.574 . S
C689 C708 1.368 . S
C689 H713 0.949 . S
H690 C694 0.949 . S
C691 C692 1.349 . S
C691 C693 1.327 . S
C691 H714 0.950 . S
C692 C691 1.349 . S
C692 C704 1.349 . S
C693 C691 1.327 . S
C693 C709 1.429 . S
C693 H715 0.950 . S
C694 H690 0.949 . S
C694 C702 1.574 . S
C694 C710 1.368 . S
H695 C703 0.950 . S
H696 C701 0.950 . S
H697 C702 0.949 . S
H698 C704 0.950 . S
H699 C705 0.950 . S
H700 C706 0.949 . S
C701 H696 0.950 . S
C701 C703 1.327 . S
C701 C707 1.429 . S
C702 C694 1.574 . S
C702 H697 0.949 . S
C702 C708 1.368 . S
C703 C687 1.349 . S
C703 H695 0.950 . S
C703 C701 1.327 . S
C704 C692 1.349 . S
C704 H698 0.950 . S
C704 C705 1.327 . S
C705 H699 0.950 . S
C705 C704 1.327 . S
C705 C709 1.429 . S
C706 C689 1.574 . S
C706 H700 0.949 . S
C706 C710 1.368 . S
C707 C688 1.429 . S
C707 C701 1.429 . S
C707 C708 1.523 . S
C708 C689 1.368 . S
C708 C702 1.368 . S
C708 C707 1.523 . S
C709 C693 1.429 . S
C709 C705 1.429 . S
C709 C710 1.523 . S
C710 C694 1.368 . S
C710 C706 1.368 . S
C710 C709 1.523 . S
H711 C686 0.950 . S
H712 C688 0.950 . S
H713 C689 0.949 . S
H714 C691 0.950 . S
H715 C693 0.950 . S
C716 C717 1.349 . S
C716 C718 1.327 . S
C716 H741 0.950 . S
C717 C716 1.349 . S
C717 C733 1.349 . S
C718 C716 1.327 . S
C718 C737 1.429 . S
C718 H742 0.950 . S
C719 C736 1.574 . S
C719 C738 1.368 . S
C719 H743 0.949 . S
H720 C724 0.949 . S
C721 C722 1.349 . S
C721 C723 1.327 . S
C721 H744 0.950 . S
C722 C721 1.349 . S
C722 C734 1.349 . S
C723 C721 1.327 . S
C723 C739 1.429 . S
C723 H745 0.950 . S
C724 H720 0.949 . S
C724 C732 1.574 . S
C724 C740 1.368 . S
H725 C733 0.950 . S
H726 C731 0.950 . S
H727 C732 0.949 . S
H728 C734 0.950 . S
H729 C735 0.950 . S
H730 C736 0.949 . S
C731 H726 0.950 . S
C731 C733 1.327 . S
C731 C737 1.429 . S
C732 C724 1.574 . S
C732 H727 0.949 . S
C732 C738 1.368 . S
C733 C717 1.349 . S
C733 H725 0.950 . S
C733 C731 1.327 . S
C734 C722 1.349 . S
C734 H728 0.950 . S
C734 C735 1.327 . S
C735 H729 0.950 . S
C735 C734 1.327 . S
C735 C739 1.429 . S
C736 C719 1.574 . S
C736 H730 0.949 . S
C736 C740 1.368 . S
C737 C718 1.429 . S
C737 C731 1.429 . S
C737 C738 1.523 . S
C738 C719 1.368 . S
C738 C732 1.368 . S
C738 C737 1.523 . S
C739 C723 1.429 . S
C739 C735 1.429 . S
C739 C740 1.523 . S
C740 C724 1.368 . S
C740 C736 1.368 . S
C740 C739 1.523 . S
H741 C716 0.950 . S
H742 C718 0.950 . S
H743 C719 0.949 . S
H744 C721 0.950 . S
H745 C723 0.950 . S
C746 C747 1.349 . S
C746 C748 1.327 . S
C746 H771 0.950 . S
C747 C746 1.349 . S
C747 C763 1.349 . S
C748 C746 1.327 . S
C748 C767 1.429 . S
C748 H772 0.950 . S
C749 C766 1.574 . S
C749 C768 1.368 . S
C749 H773 0.949 . S
H750 C754 0.949 . S
C751 C752 1.349 . S
C751 C753 1.327 . S
C751 H774 0.950 . S
C752 C751 1.349 . S
C752 C764 1.349 . S
C753 C751 1.327 . S
C753 C769 1.429 . S
C753 H775 0.950 . S
C754 H750 0.949 . S
C754 C762 1.574 . S
C754 C770 1.368 . S
H755 C763 0.950 . S
H756 C761 0.950 . S
H757 C762 0.949 . S
H758 C764 0.950 . S
H759 C765 0.950 . S
H760 C766 0.949 . S
C761 H756 0.950 . S
C761 C763 1.327 . S
C761 C767 1.429 . S
C762 C754 1.574 . S
C762 H757 0.949 . S
C762 C768 1.368 . S
C763 C747 1.349 . S
C763 H755 0.950 . S
C763 C761 1.327 . S
C764 C752 1.349 . S
C764 H758 0.950 . S
C764 C765 1.327 . S
C765 H759 0.950 . S
C765 C764 1.327 . S
C765 C769 1.429 . S
C766 C749 1.574 . S
C766 H760 0.949 . S
C766 C770 1.368 . S
C767 C748 1.429 . S
C767 C761 1.429 . S
C767 C768 1.523 . S
C768 C749 1.368 . S
C768 C762 1.368 . S
C768 C767 1.523 . S
C769 C753 1.429 . S
C769 C765 1.429 . S
C769 C770 1.523 . S
C770 C754 1.368 . S
C770 C766 1.368 . S
C770 C769 1.523 . S
H771 C746 0.950 . S
H772 C748 0.950 . S
H773 C749 0.949 . S
H774 C751 0.950 . S
H775 C753 0.950 . S
C776 C777 1.349 . S
C776 C778 1.327 . S
C776 H801 0.950 . S
C777 C776 1.349 . S
C777 C793 1.349 . S
C778 C776 1.327 . S
C778 C797 1.429 . S
C778 H802 0.950 . S
C779 C796 1.574 . S
C779 C798 1.368 . S
C779 H803 0.949 . S
H780 C784 0.949 . S
C781 C782 1.349 . S
C781 C783 1.327 . S
C781 H804 0.950 . S
C782 C781 1.349 . S
C782 C794 1.349 . S
C783 C781 1.327 . S
C783 C799 1.429 . S
C783 H805 0.950 . S
C784 H780 0.949 . S
C784 C792 1.574 . S
C784 C800 1.368 . S
H785 C793 0.950 . S
H786 C791 0.950 . S
H787 C792 0.949 . S
H788 C794 0.950 . S
H789 C795 0.950 . S
H790 C796 0.949 . S
C791 H786 0.950 . S
C791 C793 1.327 . S
C791 C797 1.429 . S
C792 C784 1.574 . S
C792 H787 0.949 . S
C792 C798 1.368 . S
C793 C777 1.349 . S
C793 H785 0.950 . S
C793 C791 1.327 . S
C794 C782 1.349 . S
C794 H788 0.950 . S
C794 C795 1.327 . S
C795 H789 0.950 . S
C795 C794 1.327 . S
C795 C799 1.429 . S
C796 C779 1.574 . S
C796 H790 0.949 . S
C796 C800 1.368 . S
C797 C778 1.429 . S
C797 C791 1.429 . S
C797 C798 1.523 . S
C798 C779 1.368 . S
C798 C792 1.368 . S
C798 C797 1.523 . S
C799 C783 1.429 . S
C799 C795 1.429 . S
C799 C800 1.523 . S
C800 C784 1.368 . S
C800 C796 1.368 . S
C800 C799 1.523 . S
H801 C776 0.950 . S
H802 C778 0.950 . S
H803 C779 0.949 . S
H804 C781 0.950 . S
H805 C783 0.950 . S
C806 C807 1.349 . S
C806 C808 1.327 . S
C806 H831 0.950 . S
C807 C806 1.349 . S
C807 C823 1.349 . S
C808 C806 1.327 . S
C808 C827 1.429 . S
C808 H832 0.950 . S
C809 C826 1.574 . S
C809 C828 1.368 . S
C809 H833 0.949 . S
H810 C814 0.949 . S
C811 C812 1.349 . S
C811 C813 1.327 . S
C811 H834 0.950 . S
C812 C811 1.349 . S
C812 C824 1.349 . S
C813 C811 1.327 . S
C813 C829 1.429 . S
C813 H835 0.950 . S
C814 H810 0.949 . S
C814 C822 1.574 . S
C814 C830 1.368 . S
H815 C823 0.950 . S
H816 C821 0.950 . S
H817 C822 0.949 . S
H818 C824 0.950 . S
H819 C825 0.950 . S
H820 C826 0.949 . S
C821 H816 0.950 . S
C821 C823 1.327 . S
C821 C827 1.429 . S
C822 C814 1.574 . S
C822 H817 0.949 . S
C822 C828 1.368 . S
C823 C807 1.349 . S
C823 H815 0.950 . S
C823 C821 1.327 . S
C824 C812 1.349 . S
C824 H818 0.950 . S
C824 C825 1.327 . S
C825 H819 0.950 . S
C825 C824 1.327 . S
C825 C829 1.429 . S
C826 C809 1.574 . S
C826 H820 0.949 . S
C826 C830 1.368 . S
C827 C808 1.429 . S
C827 C821 1.429 . S
C827 C828 1.523 . S
C828 C809 1.368 . S
C828 C822 1.368 . S
C828 C827 1.523 . S
C829 C813 1.429 . S
C829 C825 1.429 . S
C829 C830 1.523 . S
C830 C814 1.368 . S
C830 C826 1.368 . S
C830 C829 1.523 . S
H831 C806 0.950 . S
H832 C808 0.950 . S
H833 C809 0.949 . S
H834 C811 0.950 . S
H835 C813 0.950 . S
C836 C837 1.349 . S
C836 C838 1.327 . S
C836 H861 0.950 . S
C837 C836 1.349 . S
C837 C853 1.349 . S
C838 C836 1.327 . S
C838 C857 1.429 . S
C838 H862 0.950 . S
C839 C856 1.574 . S
C839 C858 1.368 . S
C839 H863 0.949 . S
H840 C844 0.949 . S
C841 C842 1.349 . S
C841 C843 1.327 . S
C841 H864 0.950 . S
C842 C841 1.349 . S
C842 C854 1.349 . S
C843 C841 1.327 . S
C843 C859 1.429 . S
C843 H865 0.950 . S
C844 H840 0.949 . S
C844 C852 1.574 . S
C844 C860 1.368 . S
H845 C853 0.950 . S
H846 C851 0.950 . S
H847 C852 0.949 . S
H848 C854 0.950 . S
H849 C855 0.950 . S
H850 C856 0.949 . S
C851 H846 0.950 . S
C851 C853 1.327 . S
C851 C857 1.429 . S
C852 C844 1.574 . S
C852 H847 0.949 . S
C852 C858 1.368 . S
C853 C837 1.349 . S
C853 H845 0.950 . S
C853 C851 1.327 . S
C854 C842 1.349 . S
C854 H848 0.950 . S
C854 C855 1.327 . S
C855 H849 0.950 . S
C855 C854 1.327 . S
C855 C859 1.429 . S
C856 C839 1.574 . S
C856 H850 0.949 . S
C856 C860 1.368 . S
C857 C838 1.429 . S
C857 C851 1.429 . S
C857 C858 1.523 . S
C858 C839 1.368 . S
C858 C852 1.368 . S
C858 C857 1.523 . S
C859 C843 1.429 . S
C859 C855 1.429 . S
C859 C860 1.523 . S
C860 C844 1.368 . S
C860 C856 1.368 . S
C860 C859 1.523 . S
H861 C836 0.950 . S
H862 C838 0.950 . S
H863 C839 0.949 . S
H864 C841 0.950 . S
H865 C843 0.950 . S
C866 C867 1.349 . S
C866 C868 1.327 . S
C866 H891 0.950 . S
C867 C866 1.349 . S
C867 C883 1.349 . S
C868 C866 1.327 . S
C868 C887 1.429 . S
C868 H892 0.950 . S
C869 C886 1.574 . S
C869 C888 1.368 . S
C869 H893 0.949 . S
H870 C874 0.949 . S
C871 C872 1.349 . S
C871 C873 1.327 . S
C871 H894 0.950 . S
C872 C871 1.349 . S
C872 C884 1.349 . S
C873 C871 1.327 . S
C873 C889 1.429 . S
C873 H895 0.950 . S
C874 H870 0.949 . S
C874 C882 1.574 . S
C874 C890 1.368 . S
H875 C883 0.950 . S
H876 C881 0.950 . S
H877 C882 0.949 . S
H878 C884 0.950 . S
H879 C885 0.950 . S
H880 C886 0.949 . S
C881 H876 0.950 . S
C881 C883 1.327 . S
C881 C887 1.429 . S
C882 C874 1.574 . S
C882 H877 0.949 . S
C882 C888 1.368 . S
C883 C867 1.349 . S
C883 H875 0.950 . S
C883 C881 1.327 . S
C884 C872 1.349 . S
C884 H878 0.950 . S
C884 C885 1.327 . S
C885 H879 0.950 . S
C885 C884 1.327 . S
C885 C889 1.429 . S
C886 C869 1.574 . S
C886 H880 0.949 . S
C886 C890 1.368 . S
C887 C868 1.429 . S
C887 C881 1.429 . S
C887 C888 1.523 . S
C888 C869 1.368 . S
C888 C882 1.368 . S
C888 C887 1.523 . S
C889 C873 1.429 . S
C889 C885 1.429 . S
C889 C890 1.523 . S
C890 C874 1.368 . S
C890 C886 1.368 . S
C890 C889 1.523 . S
H891 C866 0.950 . S
H892 C868 0.950 . S
H893 C869 0.949 . S
H894 C871 0.950 . S
H895 C873 0.950 . S
C177 C140 1.349 . S
C182 C8 1.349 . S
C207 C43 1.401 . S
C212 C164 1.408 . S
C237 C96 1.410 . S
C242 C59 1.403 . S
C267 C73 1.462 . S
C272 C125 1.462 . S
C297 C109 1.392 . S
C302 C54 1.398 . S
C327 C84 1.339 . S
C332 C120 1.339 . S
C357 C153 1.452 . S
C362 C21 1.452 . S
C387 C30 1.400 . S
C392 C169 1.393 . S
C417 C40 1.349 . S
C422 C118 1.349 . S
C447 C147 1.401 . S
C452 C52 1.408 . S
C477 C161 1.403 . S
C482 C76 1.410 . S
C507 C15 1.462 . S
C512 C103 1.462 . S
C537 C81 1.392 . S
C542 C172 1.398 . S
C567 C98 1.339 . S
C572 C10 1.339 . S
C597 C29 1.452 . S
C602 C131 1.452 . S
C627 C65 1.393 . S
C632 C142 1.400 . S
C657 C162 1.034 . S
C662 C18 1.034 . S
C687 C37 1.092 . S
C692 C106 1.096 . S
C717 C51 1.154 . S
C722 C117 1.154 . S
C747 C150 1.096 . S
C752 C87 1.092 . S
C777 C128 1.033 . S
C782 C62 1.033 . S
C807 C139 1.092 . S
C812 C74 1.096 . S
C837 C175 1.154 . S
C842 C7 1.154 . S
C867 C95 1.092 . S
C872 C32 1.096 . S
