# Generated by pormake.
# Topology wne, (6)-cn, num edge types: 1
# Building blocks:
#     Node 0, Type 0, BuildingBlock: MIDCAF_clean_sbu_0, # of connection points: 6
#     Node 1, Type 0, BuildingBlock: MIDCAF_clean_sbu_0, # of connection points: 6
#     Node 2, Type 0, BuildingBlock: MIDCAF_clean_sbu_0, # of connection points: 6
#     Node 3, Type 0, BuildingBlock: MIDCAF_clean_sbu_0, # of connection points: 6
#     Node 4, Type 0, BuildingBlock: MIDCAF_clean_sbu_0, # of connection points: 6
#     Node 5, Type 0, BuildingBlock: MIDCAF_clean_sbu_0, # of connection points: 6
#     Node 6, Type 0, BuildingBlock: MIDCAF_clean_sbu_0, # of connection points: 6
#     Node 7, Type 0, BuildingBlock: MIDCAF_clean_sbu_0, # of connection points: 6
#     Node 8, Type 0, BuildingBlock: MIDCAF_clean_sbu_0, # of connection points: 6
#     Node 9, Type 0, BuildingBlock: MIDCAF_clean_sbu_0, # of connection points: 6
#     Node 10, Type 0, BuildingBlock: MIDCAF_clean_sbu_0, # of connection points: 6
#     Node 11, Type 0, BuildingBlock: MIDCAF_clean_sbu_0, # of connection points: 6
#     Node 12, Type 0, BuildingBlock: MIDCAF_clean_sbu_0, # of connection points: 6
#     Node 13, Type 0, BuildingBlock: MIDCAF_clean_sbu_0, # of connection points: 6
#     Node 14, Type 0, BuildingBlock: MIDCAF_clean_sbu_0, # of connection points: 6
#     Node 15, Type 0, BuildingBlock: MIDCAF_clean_sbu_0, # of connection points: 6
#     Node 16, Type 0, BuildingBlock: MIDCAF_clean_sbu_0, # of connection points: 6
#     Node 17, Type 0, BuildingBlock: MIDCAF_clean_sbu_0, # of connection points: 6
#     Node 18, Type 0, BuildingBlock: MIDCAF_clean_sbu_0, # of connection points: 6
#     Node 19, Type 0, BuildingBlock: MIDCAF_clean_sbu_0, # of connection points: 6
#     Node 20, Type 0, BuildingBlock: MIDCAF_clean_sbu_0, # of connection points: 6
#     Node 21, Type 0, BuildingBlock: MIDCAF_clean_sbu_0, # of connection points: 6
#     Node 22, Type 0, BuildingBlock: MIDCAF_clean_sbu_0, # of connection points: 6
#     Node 23, Type 0, BuildingBlock: MIDCAF_clean_sbu_0, # of connection points: 6
#     Node 24, Type 0, BuildingBlock: MIDCAF_clean_sbu_0, # of connection points: 6
#     Node 25, Type 0, BuildingBlock: MIDCAF_clean_sbu_0, # of connection points: 6
#     Node 26, Type 0, BuildingBlock: MIDCAF_clean_sbu_0, # of connection points: 6
#     Node 27, Type 0, BuildingBlock: MIDCAF_clean_sbu_0, # of connection points: 6
#     Node 28, Type 0, BuildingBlock: MIDCAF_clean_sbu_0, # of connection points: 6
#     Node 29, Type 0, BuildingBlock: MIDCAF_clean_sbu_0, # of connection points: 6
#     Node 30, Type 0, BuildingBlock: MIDCAF_clean_sbu_0, # of connection points: 6
#     Node 31, Type 0, BuildingBlock: MIDCAF_clean_sbu_0, # of connection points: 6
#     Node 32, Type 0, BuildingBlock: MIDCAF_clean_sbu_0, # of connection points: 6
#     Node 33, Type 0, BuildingBlock: MIDCAF_clean_sbu_0, # of connection points: 6
#     Node 34, Type 0, BuildingBlock: MIDCAF_clean_sbu_0, # of connection points: 6
#     Node 35, Type 0, BuildingBlock: MIDCAF_clean_sbu_0, # of connection points: 6
#     Edge 36, Type (0, 0), BuildingBlock: EZIPEK_clean_linker_0, # of connection points: 2
#     Edge 37, Type (0, 0), BuildingBlock: EZIPEK_clean_linker_0, # of connection points: 2
#     Edge 38, Type (0, 0), BuildingBlock: EZIPEK_clean_linker_0, # of connection points: 2
#     Edge 39, Type (0, 0), BuildingBlock: EZIPEK_clean_linker_0, # of connection points: 2
#     Edge 40, Type (0, 0), BuildingBlock: EZIPEK_clean_linker_0, # of connection points: 2
#     Edge 41, Type (0, 0), BuildingBlock: EZIPEK_clean_linker_0, # of connection points: 2
#     Edge 42, Type (0, 0), BuildingBlock: EZIPEK_clean_linker_0, # of connection points: 2
#     Edge 43, Type (0, 0), BuildingBlock: EZIPEK_clean_linker_0, # of connection points: 2
#     Edge 44, Type (0, 0), BuildingBlock: EZIPEK_clean_linker_0, # of connection points: 2
#     Edge 45, Type (0, 0), BuildingBlock: EZIPEK_clean_linker_0, # of connection points: 2
#     Edge 46, Type (0, 0), BuildingBlock: EZIPEK_clean_linker_0, # of connection points: 2
#     Edge 47, Type (0, 0), BuildingBlock: EZIPEK_clean_linker_0, # of connection points: 2
#     Edge 48, Type (0, 0), BuildingBlock: EZIPEK_clean_linker_0, # of connection points: 2
#     Edge 49, Type (0, 0), BuildingBlock: EZIPEK_clean_linker_0, # of connection points: 2
#     Edge 50, Type (0, 0), BuildingBlock: EZIPEK_clean_linker_0, # of connection points: 2
#     Edge 51, Type (0, 0), BuildingBlock: EZIPEK_clean_linker_0, # of connection points: 2
#     Edge 52, Type (0, 0), BuildingBlock: EZIPEK_clean_linker_0, # of connection points: 2
#     Edge 53, Type (0, 0), BuildingBlock: EZIPEK_clean_linker_0, # of connection points: 2
#     Edge 54, Type (0, 0), BuildingBlock: EZIPEK_clean_linker_0, # of connection points: 2
#     Edge 55, Type (0, 0), BuildingBlock: EZIPEK_clean_linker_0, # of connection points: 2
#     Edge 56, Type (0, 0), BuildingBlock: EZIPEK_clean_linker_0, # of connection points: 2
#     Edge 57, Type (0, 0), BuildingBlock: EZIPEK_clean_linker_0, # of connection points: 2
#     Edge 58, Type (0, 0), BuildingBlock: EZIPEK_clean_linker_0, # of connection points: 2
#     Edge 59, Type (0, 0), BuildingBlock: EZIPEK_clean_linker_0, # of connection points: 2
#     Edge 60, Type (0, 0), BuildingBlock: EZIPEK_clean_linker_0, # of connection points: 2
#     Edge 61, Type (0, 0), BuildingBlock: EZIPEK_clean_linker_0, # of connection points: 2
#     Edge 62, Type (0, 0), BuildingBlock: EZIPEK_clean_linker_0, # of connection points: 2
#     Edge 63, Type (0, 0), BuildingBlock: EZIPEK_clean_linker_0, # of connection points: 2
#     Edge 64, Type (0, 0), BuildingBlock: EZIPEK_clean_linker_0, # of connection points: 2
#     Edge 65, Type (0, 0), BuildingBlock: EZIPEK_clean_linker_0, # of connection points: 2
#     Edge 66, Type (0, 0), BuildingBlock: EZIPEK_clean_linker_0, # of connection points: 2
#     Edge 67, Type (0, 0), BuildingBlock: EZIPEK_clean_linker_0, # of connection points: 2
#     Edge 68, Type (0, 0), BuildingBlock: EZIPEK_clean_linker_0, # of connection points: 2
#     Edge 69, Type (0, 0), BuildingBlock: EZIPEK_clean_linker_0, # of connection points: 2
#     Edge 70, Type (0, 0), BuildingBlock: EZIPEK_clean_linker_0, # of connection points: 2
#     Edge 71, Type (0, 0), BuildingBlock: EZIPEK_clean_linker_0, # of connection points: 2
#     Edge 72, Type (0, 0), BuildingBlock: EZIPEK_clean_linker_0, # of connection points: 2
#     Edge 73, Type (0, 0), BuildingBlock: EZIPEK_clean_linker_0, # of connection points: 2
#     Edge 74, Type (0, 0), BuildingBlock: EZIPEK_clean_linker_0, # of connection points: 2
#     Edge 75, Type (0, 0), BuildingBlock: EZIPEK_clean_linker_0, # of connection points: 2
#     Edge 76, Type (0, 0), BuildingBlock: EZIPEK_clean_linker_0, # of connection points: 2
#     Edge 77, Type (0, 0), BuildingBlock: EZIPEK_clean_linker_0, # of connection points: 2
#     Edge 78, Type (0, 0), BuildingBlock: EZIPEK_clean_linker_0, # of connection points: 2
#     Edge 79, Type (0, 0), BuildingBlock: EZIPEK_clean_linker_0, # of connection points: 2
#     Edge 80, Type (0, 0), BuildingBlock: EZIPEK_clean_linker_0, # of connection points: 2
#     Edge 81, Type (0, 0), BuildingBlock: EZIPEK_clean_linker_0, # of connection points: 2
#     Edge 82, Type (0, 0), BuildingBlock: EZIPEK_clean_linker_0, # of connection points: 2
#     Edge 83, Type (0, 0), BuildingBlock: EZIPEK_clean_linker_0, # of connection points: 2
#     Edge 84, Type (0, 0), BuildingBlock: EZIPEK_clean_linker_0, # of connection points: 2
#     Edge 85, Type (0, 0), BuildingBlock: EZIPEK_clean_linker_0, # of connection points: 2
#     Edge 86, Type (0, 0), BuildingBlock: EZIPEK_clean_linker_0, # of connection points: 2
#     Edge 87, Type (0, 0), BuildingBlock: EZIPEK_clean_linker_0, # of connection points: 2
#     Edge 88, Type (0, 0), BuildingBlock: EZIPEK_clean_linker_0, # of connection points: 2
#     Edge 89, Type (0, 0), BuildingBlock: EZIPEK_clean_linker_0, # of connection points: 2
#     Edge 90, Type (0, 0), BuildingBlock: EZIPEK_clean_linker_0, # of connection points: 2
#     Edge 91, Type (0, 0), BuildingBlock: EZIPEK_clean_linker_0, # of connection points: 2
#     Edge 92, Type (0, 0), BuildingBlock: EZIPEK_clean_linker_0, # of connection points: 2
#     Edge 93, Type (0, 0), BuildingBlock: EZIPEK_clean_linker_0, # of connection points: 2
#     Edge 94, Type (0, 0), BuildingBlock: EZIPEK_clean_linker_0, # of connection points: 2
#     Edge 95, Type (0, 0), BuildingBlock: EZIPEK_clean_linker_0, # of connection points: 2
#     Edge 96, Type (0, 0), BuildingBlock: EZIPEK_clean_linker_0, # of connection points: 2
#     Edge 97, Type (0, 0), BuildingBlock: EZIPEK_clean_linker_0, # of connection points: 2
#     Edge 98, Type (0, 0), BuildingBlock: EZIPEK_clean_linker_0, # of connection points: 2
#     Edge 99, Type (0, 0), BuildingBlock: EZIPEK_clean_linker_0, # of connection points: 2
#     Edge 100, Type (0, 0), BuildingBlock: EZIPEK_clean_linker_0, # of connection points: 2
#     Edge 101, Type (0, 0), BuildingBlock: EZIPEK_clean_linker_0, # of connection points: 2
#     Edge 102, Type (0, 0), BuildingBlock: EZIPEK_clean_linker_0, # of connection points: 2
#     Edge 103, Type (0, 0), BuildingBlock: EZIPEK_clean_linker_0, # of connection points: 2
#     Edge 104, Type (0, 0), BuildingBlock: EZIPEK_clean_linker_0, # of connection points: 2
#     Edge 105, Type (0, 0), BuildingBlock: EZIPEK_clean_linker_0, # of connection points: 2
#     Edge 106, Type (0, 0), BuildingBlock: EZIPEK_clean_linker_0, # of connection points: 2
#     Edge 107, Type (0, 0), BuildingBlock: EZIPEK_clean_linker_0, # of connection points: 2
#     Edge 108, Type (0, 0), BuildingBlock: EZIPEK_clean_linker_0, # of connection points: 2
#     Edge 109, Type (0, 0), BuildingBlock: EZIPEK_clean_linker_0, # of connection points: 2
#     Edge 110, Type (0, 0), BuildingBlock: EZIPEK_clean_linker_0, # of connection points: 2
#     Edge 111, Type (0, 0), BuildingBlock: EZIPEK_clean_linker_0, # of connection points: 2
#     Edge 112, Type (0, 0), BuildingBlock: EZIPEK_clean_linker_0, # of connection points: 2
#     Edge 113, Type (0, 0), BuildingBlock: EZIPEK_clean_linker_0, # of connection points: 2
#     Edge 114, Type (0, 0), BuildingBlock: EZIPEK_clean_linker_0, # of connection points: 2
#     Edge 115, Type (0, 0), BuildingBlock: EZIPEK_clean_linker_0, # of connection points: 2
#     Edge 116, Type (0, 0), BuildingBlock: EZIPEK_clean_linker_0, # of connection points: 2
#     Edge 117, Type (0, 0), BuildingBlock: EZIPEK_clean_linker_0, # of connection points: 2
#     Edge 118, Type (0, 0), BuildingBlock: EZIPEK_clean_linker_0, # of connection points: 2
#     Edge 119, Type (0, 0), BuildingBlock: EZIPEK_clean_linker_0, # of connection points: 2
#     Edge 120, Type (0, 0), BuildingBlock: EZIPEK_clean_linker_0, # of connection points: 2
#     Edge 121, Type (0, 0), BuildingBlock: EZIPEK_clean_linker_0, # of connection points: 2
#     Edge 122, Type (0, 0), BuildingBlock: EZIPEK_clean_linker_0, # of connection points: 2
#     Edge 123, Type (0, 0), BuildingBlock: EZIPEK_clean_linker_0, # of connection points: 2
#     Edge 124, Type (0, 0), BuildingBlock: EZIPEK_clean_linker_0, # of connection points: 2
#     Edge 125, Type (0, 0), BuildingBlock: EZIPEK_clean_linker_0, # of connection points: 2
#     Edge 126, Type (0, 0), BuildingBlock: EZIPEK_clean_linker_0, # of connection points: 2
#     Edge 127, Type (0, 0), BuildingBlock: EZIPEK_clean_linker_0, # of connection points: 2
#     Edge 128, Type (0, 0), BuildingBlock: EZIPEK_clean_linker_0, # of connection points: 2
#     Edge 129, Type (0, 0), BuildingBlock: EZIPEK_clean_linker_0, # of connection points: 2
#     Edge 130, Type (0, 0), BuildingBlock: EZIPEK_clean_linker_0, # of connection points: 2
#     Edge 131, Type (0, 0), BuildingBlock: EZIPEK_clean_linker_0, # of connection points: 2
#     Edge 132, Type (0, 0), BuildingBlock: EZIPEK_clean_linker_0, # of connection points: 2
#     Edge 133, Type (0, 0), BuildingBlock: EZIPEK_clean_linker_0, # of connection points: 2
#     Edge 134, Type (0, 0), BuildingBlock: EZIPEK_clean_linker_0, # of connection points: 2
#     Edge 135, Type (0, 0), BuildingBlock: EZIPEK_clean_linker_0, # of connection points: 2
#     Edge 136, Type (0, 0), BuildingBlock: EZIPEK_clean_linker_0, # of connection points: 2
#     Edge 137, Type (0, 0), BuildingBlock: EZIPEK_clean_linker_0, # of connection points: 2
#     Edge 138, Type (0, 0), BuildingBlock: EZIPEK_clean_linker_0, # of connection points: 2
#     Edge 139, Type (0, 0), BuildingBlock: EZIPEK_clean_linker_0, # of connection points: 2
#     Edge 140, Type (0, 0), BuildingBlock: EZIPEK_clean_linker_0, # of connection points: 2
#     Edge 141, Type (0, 0), BuildingBlock: EZIPEK_clean_linker_0, # of connection points: 2
#     Edge 142, Type (0, 0), BuildingBlock: EZIPEK_clean_linker_0, # of connection points: 2
#     Edge 143, Type (0, 0), BuildingBlock: EZIPEK_clean_linker_0, # of connection points: 2
# Relax obj value: 0.206
# Max RMSD: 0.143
# Mean RMSD: 0.143
data_MOF--net-wne--node1-MIDCAF_clean_sbu_0--edge1-EZIPEK_clean_linker_0
_symmetry_space_group_name_H-M    P1
_symmetry_Int_Tables_number       1
_symmetry_cell_setting            triclinic
loop_
_symmetry_equiv_pos_as_xyz
'x, y, z'
_cell_length_a     45.406733
_cell_length_b     45.416148
_cell_length_c     30.051395
_cell_angle_alpha  90.01241
_cell_angle_beta   89.90417
_cell_angle_gamma 120.03092
loop_
_atom_site_label
_atom_site_type_symbol
_atom_site_fract_x
_atom_site_fract_y
_atom_site_fract_z
_atom_type_partial_charge
Zn0 Zn 0.24246 0.14705 0.01366 0.0
Zn1 Zn 0.19921 0.22502 0.12473 0.0
Zn2 Zn 0.2331 0.17929 0.06866 0.0
C3 C 0.21222 0.18017 0.16096 0.0
C4 C 0.16153 0.17347 0.05471 0.0
O5 O 0.26956 0.21295 0.01553 0.0
O6 O 0.2588 0.17664 0.96082 0.0
C7 C 0.27904 0.1552 0.09541 0.0
O8 O 0.23858 0.18289 0.14135 0.0
O9 O 0.18807 0.1766 0.13667 0.0
O10 O 0.16141 0.1809 0.09549 0.0
O11 O 0.18412 0.1666 0.04097 0.0
O12 O 0.27878 0.1506 0.05393 0.0
O13 O 0.25814 0.16287 0.11335 0.0
O14 O 0.18449 0.1319 0.05408 0.0
O15 O 0.20073 0.10248 0.01317 0.0
C16 C 0.17805 0.10373 0.03599 0.0
O17 O 0.26461 0.23102 0.05029 0.0
O18 O 0.24601 0.25717 0.09611 0.0
C19 C 0.27418 0.20691 0.97487 0.0
C20 C 0.2679 0.2579 0.069 0.0
Zn21 Zn 0.82648 0.09368 0.02724 0.0
Zn22 Zn 0.7778 0.98096 0.08149 0.0
Zn23 Zn 0.79795 0.03614 0.05946 0.0
C24 C 0.79573 0.01051 0.15858 0.0
C25 C 0.81957 0.985 0.01966 0.0
O26 O 0.76188 0.03874 0.0105 0.0
O27 O 0.79738 0.08625 0.97524 0.0
C28 C 0.81114 0.09834 0.11626 0.0
O29 O 0.79342 0.03254 0.13383 0.0
O30 O 0.7981 0.98667 0.14069 0.0
O31 O 0.79153 0.96127 0.03358 0.0
O32 O 0.82946 0.01584 0.03117 0.0
O33 O 0.81836 0.11437 0.07992 0.0
O34 O 0.80495 0.06748 0.11774 0.0
O35 O 0.84958 0.04967 0.03288 0.0
O36 O 0.87376 0.1046 0.01814 0.0
C37 C 0.87593 0.07813 0.02173 0.0
O38 O 0.74521 0.0076 0.03445 0.0
O39 O 0.72955 0.96608 0.08322 0.0
C40 C 0.76823 0.06035 0.97884 0.0
C41 C 0.72171 0.98101 0.05436 0.0
Zn42 Zn 0.90824 0.75756 0.00291 0.0
Zn43 Zn 0.02216 0.80744 0.05028 0.0
Zn44 Zn 0.9497 0.76619 0.06356 0.0
C45 C 0.00385 0.8037 0.14025 0.0
C46 C 0.97873 0.83264 0.99641 0.0
O47 O 0.9412 0.72585 0.0172 0.0
O48 O 0.93449 0.74832 0.95664 0.0
C49 C 0.87491 0.72115 0.07807 0.0
O50 O 0.97834 0.77664 0.12454 0.0
O51 O 0.02691 0.82393 0.11374 0.0
O52 O 0.9806 0.81064 0.02037 0.0
O53 O 0.97988 0.8102 0.02054 0.0
O54 O 0.87305 0.71535 0.03676 0.0
O55 O 0.90061 0.74788 0.09343 0.0
O56 O 0.91933 0.78851 0.0872 0.0
O57 O 0.91202 0.80261 0.0199 0.0
C58 C 0.91419 0.80811 0.06151 0.0
O59 O 0.97288 0.74063 0.09625 0.0
O60 O 0.01905 0.76023 0.05429 0.0
C61 C 0.93934 0.72588 0.97478 0.0
C62 C -0.00198 0.73807 0.08143 0.0
Zn63 Zn 0.22256 0.19091 0.36332 0.0
Zn64 Zn 0.15163 0.25846 0.45224 0.0
Zn65 Zn 0.18358 0.24203 0.41333 0.0
C66 C 0.11222 0.1927 0.45359 0.0
C67 C 0.16295 0.29187 0.37553 0.0
O68 O 0.2372 0.27037 0.42557 0.0
O69 O 0.25489 0.23976 0.38649 0.0
C70 C 0.17196 0.1625 0.43602 0.0
O71 O 0.14265 0.19831 0.44818 0.0
O72 O 0.10642 0.21667 0.4468 0.0
O73 O 0.15932 0.29675 0.41584 0.0
O74 O 0.16724 0.26694 0.36394 0.0
O75 O 0.19245 0.15943 0.41006 0.0
O76 O 0.16787 0.18885 0.43635 0.0
O77 O 0.17753 0.24548 0.34026 0.0
O78 O 0.20421 0.2204 0.36008 0.0
C79 C 0.19189 0.22871 0.32884 0.0
O80 O 0.21983 0.28075 0.46061 0.0
O81 O 0.17914 0.27149 0.50809 0.0
C82 C 0.26088 0.26641 0.40809 0.0
C83 C 0.21058 0.28554 0.49929 0.0
Zn84 Zn 0.77923 0.00765 0.43125 0.0
Zn85 Zn 0.74043 0.89299 0.46424 0.0
Zn86 Zn 0.75553 0.94799 0.43819 0.0
C87 C 0.80657 0.92183 0.47576 0.0
C88 C 0.7206 0.88413 0.37697 0.0
O89 O 0.71925 0.96117 0.4684 0.0
O90 O 0.74 0.01246 0.43957 0.0
C91 C 0.82843 0.00855 0.47133 0.0
O92 O 0.80193 0.94418 0.45544 0.0
O93 O 0.78116 0.89531 0.49054 0.0
O94 O 0.72527 0.86858 0.40832 0.0
O95 O 0.73107 0.91612 0.37999 0.0
O96 O 0.81631 0.02809 0.47395 0.0
O97 O 0.81056 0.97853 0.45481 0.0
O98 O 0.7512 0.95328 0.36585 0.0
O99 O 0.79067 0.00764 0.36756 0.0
C100 C 0.77168 0.98117 0.34543 0.0
O101 O 0.71876 0.93509 0.49752 0.0
O102 O 0.70281 0.88091 0.50454 0.0
C103 C 0.71581 0.98675 0.45759 0.0
C104 C 0.70141 0.90635 0.51824 0.0
Zn105 Zn 0.99487 0.77903 0.41324 0.0
Zn106 Zn 0.13071 0.85647 0.46051 0.0
Zn107 Zn 0.04733 0.80968 0.42514 0.0
C108 C 0.07513 0.87848 0.46952 0.0
C109 C 0.1104 0.81927 0.38209 0.0
O110 O 0.03199 0.75681 0.44318 0.0
O111 O 0.98887 0.73543 0.39697 0.0
C112 C 0.98662 0.82803 0.41863 0.0
O113 O 0.04823 0.85178 0.45628 0.0
O114 O 0.10405 0.88066 0.46994 0.0
O115 O 0.11509 0.81399 0.42188 0.0
O116 O 0.08565 0.82428 0.37277 0.0
O117 O 0.97974 0.80882 0.38516 0.0
O118 O 0.01229 0.83248 0.44259 0.0
O119 O 0.05081 0.80894 0.35216 0.0
O120 O -0.00161 0.79924 0.35091 0.0
C121 C 0.02526 0.80574 0.32998 0.0
O122 O 0.05445 0.78172 0.4809 0.0
O123 O 0.1087 0.80481 0.46956 0.0
C124 C 0.01126 0.73244 0.41783 0.0
C125 C 0.08383 0.78942 0.49621 0.0
Zn126 Zn 0.73726 0.82529 0.98446 0.0
Zn127 Zn 0.80038 0.77776 0.9234 0.0
Zn128 Zn 0.76092 0.79978 0.93924 0.0
C129 C 0.78874 0.80288 0.84341 0.0
C130 C 0.83097 0.81747 0.99201 0.0
O131 O 0.71759 0.75947 0.98001 0.0
O132 O 0.71383 0.79254 0.03086 0.0
C133 C 0.71483 0.82024 0.89631 0.0
O134 O 0.76532 0.80383 0.86652 0.0
O135 O 0.81052 0.79764 0.86251 0.0
O136 O 0.83402 0.79503 0.97136 0.0
O137 O 0.80761 0.82427 0.9811 0.0
O138 O 0.70718 0.82157 0.93622 0.0
O139 O 0.73995 0.8159 0.88652 0.0
O140 O 0.80018 0.84965 0.96875 0.0
O141 O 0.77137 0.87214 -0.00183 0.0
C142 C 0.79926 0.87532 0.98562 0.0
O143 O 0.73077 0.74529 0.94886 0.0
O144 O 0.76625 0.72919 0.92337 0.0
C145 C 0.70452 0.76311 0.01631 0.0
C146 C 0.73657 0.72207 0.93419 0.0
Zn147 Zn 0.21287 0.01361 0.9218 0.0
Zn148 Zn 0.16065 0.90846 0.97803 0.0
Zn149 Zn 0.18706 0.95506 0.93356 0.0
C150 C 0.10967 0.9172 0.96677 0.0
C151 C 0.18149 0.892 0.89837 0.0
O152 O 0.2412 0.97577 0.94705 0.0
O153 O 0.25915 0.02337 0.90952 0.0
C154 C 0.17182 0.00761 0.98568 0.0
O155 O 0.13679 0.94579 0.95869 0.0
O156 O 0.1118 0.89108 0.97411 0.0
O157 O 0.17707 0.88541 0.93928 0.0
O158 O 0.1783 0.9169 0.88361 0.0
O159 O 0.20161 0.03067 0.97618 0.0
O160 O 0.15962 0.97798 0.96779 0.0
O161 O 0.18472 0.95589 0.86147 0.0
O162 O 0.18546 0.00438 0.8663 0.0
C163 C 0.18028 0.97897 0.84309 0.0
O164 O 0.22347 0.95429 0.98241 0.0
O165 O 0.18586 0.92533 0.0347 0.0
C166 C 0.26483 0.00106 0.92545 0.0
C167 C 0.21654 0.94224 0.02235 0.0
Zn168 Zn 0.13705 0.28569 0.95177 0.0
Zn169 Zn 0.97872 0.21201 0.93461 0.0
Zn170 Zn 0.0369 0.23243 0.91791 0.0
C171 C 0.98891 0.21136 0.83991 0.0
C172 C 0.98632 0.1634 0.97118 0.0
O173 O 0.06171 0.27506 0.97183 0.0
O174 O 0.11687 0.30539 0.99491 0.0
C175 C 0.09312 0.27031 0.86601 0.0
O176 O 0.02068 0.22939 0.84961 0.0
O177 O 0.96699 0.19885 0.87073 0.0
O178 O 0.96759 0.17599 0.97901 0.0
O179 O 0.01252 0.17934 0.9457 0.0
O180 O 0.09887 0.26538 0.90564 0.0
O181 O 0.0623 0.25239 0.85301 0.0
O182 O 0.04756 0.1932 0.94116 0.0
O183 O 0.09435 0.24044 0.93856 0.0
C184 C 0.0793 0.20916 0.94834 0.0
O185 O 0.03215 0.27332 0.94784 0.0
O186 O 0.97684 0.25296 0.94894 0.0
C187 C 0.08562 0.2977 -0.00256 0.0
C188 C 0.00659 0.27796 0.95116 0.0
Zn189 Zn 0.8388 0.74005 0.53547 0.0
Zn190 Zn 0.78054 0.79123 0.58118 0.0
Zn191 Zn 0.80499 0.75976 0.56428 0.0
C192 C 0.80745 0.78759 0.6583 0.0
C193 C 0.81784 0.82966 0.51922 0.0
O194 O 0.77086 0.72079 0.51699 0.0
O195 O 0.81382 0.7246 0.47792 0.0
C196 C 0.82127 0.7102 0.61563 0.0
O197 O 0.80484 0.76152 0.63756 0.0
O198 O 0.80621 0.81071 0.63662 0.0
O199 O 0.7882 0.82182 0.531 0.0
O200 O 0.83089 0.81173 0.53289 0.0
O201 O 0.82825 0.70412 0.57743 0.0
O202 O 0.81583 0.73526 0.62161 0.0
O203 O 0.85249 0.79933 0.52959 0.0
O204 O 0.88637 0.77822 0.53681 0.0
C205 C 0.88228 0.80256 0.52536 0.0
O206 O 0.75022 0.7277 0.54489 0.0
O207 O 0.73403 0.75503 0.59016 0.0
C208 C 0.78225 0.71346 0.48193 0.0
C209 C 0.72645 0.72964 0.56591 0.0
Zn210 Zn 0.25495 0.09264 0.54725 0.0
Zn211 Zn 0.19723 0.98123 0.57271 0.0
Zn212 Zn 0.22688 0.03836 0.56489 0.0
C213 C 0.2008 0.005 0.65535 0.0
C214 C 0.15702 0.98852 0.52241 0.0
O215 O 0.26245 0.04864 0.50417 0.0
O216 O 0.29857 0.1012 0.52165 0.0
C217 C 0.26655 0.09899 0.63199 0.0
O218 O 0.22769 0.02945 0.63708 0.0
O219 O 0.17778 0.98261 0.63112 0.0
O220 O 0.16956 0.9694 0.51863 0.0
O221 O 0.17282 0.01602 0.54533 0.0
O222 O 0.26308 0.11659 0.60253 0.0
O223 O 0.25403 0.06682 0.62586 0.0
O224 O 0.18792 0.05314 0.54653 0.0
O225 O 0.22306 0.09942 0.5101 0.0
C226 C 0.19338 0.0795 0.52401 0.0
O227 O 0.257 0.01805 0.53379 0.0
O228 O 0.23454 0.97237 0.57612 0.0
C229 C 0.28928 0.07729 0.49424 0.0
C230 C 0.25849 0.99309 0.55174 0.0
Zn231 Zn 0.99437 0.19608 0.60159 0.0
Zn232 Zn 0.90081 0.16543 0.50763 0.0
Zn233 Zn 0.94839 0.18681 0.55827 0.0
C234 C 0.92227 0.11972 0.50377 0.0
C235 C 0.87242 0.16305 0.58889 0.0
O236 O 0.97935 0.24088 0.55246 0.0
O237 O 0.02585 0.24385 0.57959 0.0
C238 C 0.00425 0.15708 0.55875 0.0
O239 O 0.94717 0.14401 0.52466 0.0
O240 O 0.89649 0.12181 0.49369 0.0
O241 O 0.86611 0.16394 0.54825 0.0
O242 O 0.90202 0.16839 0.6011 0.0
O243 O 0.00561 0.1595 0.60028 0.0
O244 O 0.98356 0.16416 0.53748 0.0
O245 O 0.93188 0.18206 0.63039 0.0
O246 O 0.9818 0.19729 0.66032 0.0
C247 C 0.95134 0.18942 0.66478 0.0
O248 O 0.95479 0.22992 0.5131 0.0
O249 O 0.91773 0.1996 0.46099 0.0
C250 C 0.01004 0.25862 0.56651 0.0
C251 C 0.94098 0.22795 0.47477 0.0
Zn252 Zn 0.92588 0.49028 0.36979 0.0
Zn253 Zn 0.87494 0.55294 0.40604 0.0
Zn254 Zn 0.90339 0.52144 0.4001 0.0
C255 C 0.87525 0.52967 0.49006 0.0
C256 C 0.83628 0.50763 0.34776 0.0
O257 O 0.94294 0.55271 0.34942 0.0
O258 O 0.9425 0.51148 0.3101 0.0
C259 C 0.95388 0.51124 0.45208 0.0
O260 O 0.89982 0.52706 0.47263 0.0
O261 O 0.85495 0.53343 0.46519 0.0
O262 O 0.84565 0.53866 0.35268 0.0
O263 O 0.85239 0.49488 0.36788 0.0
O264 O 0.96166 0.50707 0.41337 0.0
O265 O 0.92626 0.51206 0.45901 0.0
O266 O 0.8648 0.47316 0.36805 0.0
O267 O 0.8887 0.44216 0.37722 0.0
C268 C 0.86319 0.44412 0.36522 0.0
O269 O 0.93915 0.57304 0.37831 0.0
O270 O 0.91444 0.59904 0.4097 0.0
C271 C 0.95193 0.5426 0.31448 0.0
C272 C 0.94029 0.60031 0.39241 0.0
Zn273 Zn 0.50898 0.46434 0.36193 0.0
Zn274 Zn 0.4435 0.3022 0.44791 0.0
Zn275 Zn 0.47657 0.38898 0.41423 0.0
C276 C 0.47567 0.35405 0.50315 0.0
C277 C 0.50658 0.34242 0.39483 0.0
O278 O 0.44065 0.3924 0.36433 0.0
O279 O 0.46757 0.44092 0.32512 0.0
C280 C 0.49228 0.44568 0.46459 0.0
O281 O 0.46971 0.3772 0.48831 0.0
O282 O 0.48641 0.34087 0.47533 0.0
O283 O 0.49618 0.3335 0.4345 0.0
O284 O 0.5046 0.36761 0.37978 0.0
O285 O 0.49882 0.45295 0.42435 0.0
O286 O 0.48293 0.41538 0.47669 0.0
O287 O 0.52478 0.40611 0.3807 0.0
O288 O 0.54637 0.45626 0.34561 0.0
C289 C 0.54814 0.43046 0.35774 0.0
O290 O 0.42634 0.36383 0.39223 0.0
O291 O 0.40588 0.31381 0.42789 0.0
C292 C 0.44164 0.41208 0.33233 0.0
C293 C 0.40159 0.33575 0.40672 0.0
Zn294 Zn 0.67131 0.11732 0.4076 0.0
Zn295 Zn 0.56408 0.06823 0.34532 0.0
Zn296 Zn 0.61301 0.08995 0.39159 0.0
C297 C 0.58201 0.13414 0.35371 0.0
C298 C 0.54476 0.03906 0.43033 0.0
O299 O 0.63184 0.05359 0.3805 0.0
O300 O 0.68189 0.08123 0.41319 0.0
C301 C 0.6745 0.16355 0.35581 0.0
O302 O 0.60909 0.13379 0.36555 0.0
O303 O 0.5555 0.10668 0.3441 0.0
O304 O 0.53688 0.03261 0.38981 0.0
O305 O 0.57329 0.06508 0.44156 0.0
O306 O 0.69563 0.15414 0.36472 0.0
O307 O 0.64285 0.14438 0.36639 0.0
O308 O 0.60863 0.08996 0.46379 0.0
O309 O 0.66257 0.12963 0.46763 0.0
C310 C 0.63416 0.11184 0.48673 0.0
O311 O 0.61202 0.05144 0.34272 0.0
O312 O 0.5784 0.05345 0.29144 0.0
C313 C 0.65757 0.05375 0.39897 0.0
C314 C 0.59812 0.04298 0.30381 0.0
Zn315 Zn 0.87933 0.53659 0.76262 0.0
Zn316 Zn 0.81944 0.58684 0.81411 0.0
Zn317 Zn 0.84839 0.56572 0.77225 0.0
C318 C 0.77144 0.52302 0.81385 0.0
C319 C 0.83035 0.61353 0.72759 0.0
O320 O 0.90444 0.60222 0.78294 0.0
O321 O 0.92688 0.57029 0.76635 0.0
C322 C 0.83389 0.49374 0.81728 0.0
O323 O 0.79904 0.52339 0.80203 0.0
O324 O 0.77185 0.55067 0.81946 0.0
O325 O 0.82858 0.62098 0.76756 0.0
O326 O 0.83321 0.58739 0.71831 0.0
O327 O 0.86261 0.49932 0.80449 0.0
O328 O 0.82308 0.51412 0.80591 0.0
O329 O 0.84753 0.56305 0.69913 0.0
O330 O 0.86603 0.52648 0.69926 0.0
C331 C 0.85552 0.54339 0.67786 0.0
O332 O 0.88452 0.60768 0.81754 0.0
O333 O 0.84747 0.60405 0.86799 0.0
C334 C 0.93055 0.59932 0.7726 0.0
C335 C 0.87793 0.61657 0.85547 0.0
Zn336 Zn 0.43386 0.32023 0.71954 0.0
Zn337 Zn 0.40501 0.23069 0.81536 0.0
Zn338 Zn 0.42016 0.2732 0.75973 0.0
C339 C 0.47197 0.25831 0.81165 0.0
C340 C 0.37619 0.20055 0.73316 0.0
O341 O 0.38319 0.29092 0.77063 0.0
O342 O 0.41148 0.34366 0.74589 0.0
C343 C 0.494 0.33919 0.75036 0.0
O344 O 0.46751 0.28083 0.79171 0.0
O345 O 0.44675 0.2307 0.82397 0.0
O346 O 0.37157 0.19629 0.7746 0.0
O347 O 0.39921 0.2292 0.71733 0.0
O348 O 0.48396 0.3426 0.71287 0.0
O349 O 0.47361 0.31372 0.77496 0.0
O350 O 0.41918 0.26108 0.68669 0.0
O351 O 0.41238 0.30298 0.66339 0.0
C352 C 0.41612 0.27812 0.65442 0.0
O353 O 0.37886 0.26851 0.80679 0.0
O354 O 0.38703 0.24413 0.86519 0.0
C355 C 0.38447 0.31924 0.76152 0.0
C356 C 0.37214 0.25827 0.8476 0.0
Zn357 Zn 0.64731 0.11432 0.75788 0.0
Zn358 Zn 0.75733 0.16212 0.79052 0.0
Zn359 Zn 0.70494 0.13932 0.75806 0.0
C360 C 0.75002 0.21739 0.7813 0.0
C361 C 0.76418 0.14493 0.70561 0.0
O362 O 0.68318 0.08512 0.77786 0.0
O363 O 0.63202 0.06661 0.75024 0.0
C364 C 0.65857 0.16011 0.81359 0.0
O365 O 0.7192 0.19232 0.77992 0.0
O366 O 0.77405 0.2111 0.78317 0.0
O367 O 0.7739 0.14288 0.74421 0.0
O368 O 0.73796 0.14841 0.70069 0.0
O369 O 0.63763 0.12871 0.81497 0.0
O370 O 0.68538 0.17115 0.78902 0.0
O371 O 0.69144 0.13089 0.68764 0.0
O372 O 0.64653 0.13624 0.70045 0.0
C373 C 0.6662 0.13347 0.67309 0.0
O374 O 0.70733 0.10414 0.80954 0.0
O375 O 0.74941 0.14193 0.85081 0.0
C376 C 0.6547 0.06057 0.76325 0.0
C377 C 0.72564 0.11179 0.84517 0.0
Zn378 Zn 0.40927 0.1857 0.27055 0.0
Zn379 Zn 0.45984 0.11999 0.25846 0.0
Zn380 Zn 0.42989 0.1489 0.26477 0.0
C381 C 0.45889 0.141 0.17468 0.0
C382 C 0.49907 0.16388 0.31524 0.0
O383 O 0.38721 0.1203 0.31338 0.0
O384 O 0.37681 0.16223 0.3207 0.0
C385 C 0.38903 0.1657 0.19099 0.0
O386 O 0.43418 0.14308 0.19258 0.0
O387 O 0.4795 0.13732 0.19895 0.0
O388 O 0.48979 0.13295 0.30985 0.0
O389 O 0.48202 0.17634 0.29679 0.0
O390 O 0.38503 0.18328 0.21981 0.0
O391 O 0.40811 0.15265 0.19886 0.0
O392 O 0.46838 0.19783 0.29684 0.0
O393 O 0.44951 0.2311 0.27398 0.0
C394 C 0.47235 0.22787 0.29296 0.0
O395 O 0.39497 0.0981 0.29038 0.0
O396 O 0.42123 0.07449 0.2568 0.0
C397 C 0.37106 0.13323 0.33311 0.0
C398 C 0.39519 0.07161 0.27564 0.0
Zn399 Zn 0.82468 0.22978 0.32164 0.0
Zn400 Zn 0.88327 0.35101 0.17744 0.0
Zn401 Zn 0.84765 0.27328 0.26285 0.0
C402 C 0.85337 0.2816 0.17324 0.0
C403 C 0.832 0.33935 0.24606 0.0
O404 O 0.88975 0.27963 0.31057 0.0
O405 O 0.86067 0.24657 0.36686 0.0
C406 C 0.81941 0.19679 0.24048 0.0
O407 O 0.83786 0.25318 0.19333 0.0
O408 O 0.87092 0.30674 0.19728 0.0
O409 O 0.8403 0.34702 0.20538 0.0
O410 O 0.83426 0.3152 0.26618 0.0
O411 O 0.8191 0.19207 0.28192 0.0
O412 O 0.8269 0.22612 0.2249 0.0
O413 O 0.80726 0.28041 0.29011 0.0
O414 O 0.78474 0.23446 0.33227 0.0
C415 C 0.78319 0.25906 0.31535 0.0
O416 O 0.90192 0.2998 0.27178 0.0
O417 O 0.91406 0.33704 0.21639 0.0
C418 C 0.88885 0.26804 0.35022 0.0
C419 C 0.92359 0.32318 0.2459 0.0
Zn420 Zn 0.78207 0.59745 0.29776 0.0
Zn421 Zn 0.67327 0.54894 0.22963 0.0
Zn422 Zn 0.7241 0.57352 0.26006 0.0
C423 C 0.70688 0.55185 0.16193 0.0
C424 C 0.66138 0.50588 0.2906 0.0
O425 O 0.72609 0.60965 0.31012 0.0
O426 O 0.77081 0.61788 0.34928 0.0
C427 C 0.79091 0.62255 0.20922 0.0
O428 O 0.72745 0.57675 0.1869 0.0
O429 O 0.68135 0.52679 0.1792 0.0
O430 O 0.64434 0.51913 0.27736 0.0
O431 O 0.69327 0.52014 0.28157 0.0
O432 O 0.80655 0.62786 0.24576 0.0
O433 O 0.75938 0.59971 0.20619 0.0
O434 O 0.72595 0.52865 0.28367 0.0
O435 O 0.78 0.55264 0.30301 0.0
C436 C 0.75162 0.52616 0.29619 0.0
O437 O 0.69817 0.60086 0.28159 0.0
O438 O 0.67271 0.59114 0.21673 0.0
C439 C 0.74576 0.6224 0.34392 0.0
C440 C 0.68135 0.60744 0.25274 0.0
Zn441 Zn 0.43982 0.12285 0.90639 0.0
Zn442 Zn 0.50423 0.07097 0.86413 0.0
Zn443 Zn 0.47402 0.09715 0.89352 0.0
C444 C 0.55019 0.1384 0.8648 0.0
C445 C 0.48595 0.0492 0.95063 0.0
O446 O 0.42264 0.0604 0.87068 0.0
O447 O 0.39466 0.08159 0.90568 0.0
C448 C 0.48605 0.167 0.85116 0.0
O449 O 0.52182 0.13817 0.86611 0.0
O450 O 0.55052 0.11092 0.86849 0.0
O451 O 0.48929 0.03793 0.91373 0.0
O452 O 0.48438 0.07667 0.95229 0.0
O453 O 0.45499 0.15693 0.85786 0.0
O454 O 0.49906 0.14936 0.86566 0.0
O455 O 0.47462 0.1014 0.96763 0.0
O456 O 0.45917 0.14013 0.96626 0.0
C457 C 0.47138 0.12479 0.98769 0.0
O458 O 0.44331 0.05653 0.84229 0.0
O459 O 0.48361 0.05371 0.80474 0.0
C460 C 0.39462 0.05738 0.88517 0.0
C461 C 0.45281 0.04567 0.80849 0.0
Zn462 Zn 0.92189 0.43173 0.88133 0.0
Zn463 Zn 0.8769 0.32271 0.92461 0.0
Zn464 Zn 0.9021 0.37865 0.91111 0.0
C465 C 0.87329 0.3436 0.00262 0.0
C466 C 0.83872 0.32126 0.86187 0.0
O467 O 0.93801 0.38436 0.85371 0.0
O468 O 0.93687 0.42743 0.82204 0.0
C469 C 0.95401 0.44158 0.96162 0.0
O470 O 0.90019 0.36874 0.98501 0.0
O471 O 0.85051 0.32241 0.97712 0.0
O472 O 0.85269 0.30373 0.86888 0.0
O473 O 0.85043 0.35054 0.88084 0.0
O474 O 0.95828 0.45496 0.92377 0.0
O475 O 0.92845 0.41157 0.96888 0.0
O476 O 0.85696 0.38327 0.88821 0.0
O477 O 0.88328 0.43918 0.88628 0.0
C478 C 0.85592 0.41108 0.88512 0.0
O479 O 0.93922 0.36514 0.8878 0.0
O480 O 0.92003 0.32393 0.93726 0.0
C481 C 0.94507 0.40472 0.82013 0.0
C482 C 0.94394 0.34493 0.91293 0.0
Zn483 Zn 0.66779 0.54183 0.89741 0.0
Zn484 Zn 0.52454 0.46454 0.90734 0.0
Zn485 Zn 0.61107 0.51546 0.90827 0.0
C486 C 0.56671 0.44023 0.86357 0.0
C487 C 0.56302 0.48886 0.979 0.0
O488 O 0.62411 0.56444 0.8791 0.0
O489 O 0.678 0.58808 0.89841 0.0
C490 C 0.65725 0.49259 0.85094 0.0
O491 O 0.59409 0.46713 0.87569 0.0
O492 O 0.53717 0.43534 0.87246 0.0
O493 O 0.55712 0.46622 0.95115 0.0
O494 O 0.59277 0.51462 0.97684 0.0
O495 O 0.67605 0.52378 0.84255 0.0
O496 O 0.63203 0.48329 0.8782 0.0
O497 O 0.6311 0.52748 0.97549 0.0
O498 O 0.67846 0.5287 0.95523 0.0
C499 C 0.65954 0.52944 0.98552 0.0
O500 O 0.59054 0.53809 0.86077 0.0
O501 O 0.53406 0.50598 0.86831 0.0
C502 C 0.6531 0.59102 0.88656 0.0
C503 C 0.55998 0.52974 0.84865 0.0
Zn504 Zn 0.52616 0.87742 0.81614 0.0
Zn505 Zn 0.58479 0.79658 0.70587 0.0
Zn506 Zn 0.56395 0.84605 0.7505 0.0
C507 C 0.51968 0.77472 0.71817 0.0
C508 C 0.61498 0.82677 0.79037 0.0
O509 O 0.5914 0.89607 0.72835 0.0
O510 O 0.5682 0.91333 0.78024 0.0
C511 C 0.48432 0.82543 0.75316 0.0
O512 O 0.52286 0.80423 0.71675 0.0
O513 O 0.54109 0.77153 0.74097 0.0
O514 O 0.62238 0.8239 0.75028 0.0
O515 O 0.5893 0.83046 0.7997 0.0
O516 O 0.48726 0.83029 0.79478 0.0
O517 O 0.51008 0.82872 0.73094 0.0
O518 O 0.57228 0.85076 0.82448 0.0
O519 O 0.51819 0.82933 0.82492 0.0
C520 C 0.54522 0.8419 0.84717 0.0
O521 O 0.60037 0.87483 0.69617 0.0
O522 O 0.6264 0.84625 0.70742 0.0
C523 C 0.59001 0.91972 0.74961 0.0
C524 C 0.62364 0.86815 0.68458 0.0
Zn525 Zn 0.17735 0.76334 0.70169 0.0
Zn526 Zn 0.08155 0.647 0.7489 0.0
Zn527 Zn 0.13857 0.71565 0.74047 0.0
C528 C 0.11912 0.64962 0.81416 0.0
C529 C 0.14385 0.65838 0.71134 0.0
O530 O 0.11354 0.71529 0.67339 0.0
O531 O 0.14764 0.76996 0.66159 0.0
C532 C 0.17304 0.78719 0.78208 0.0
O533 O 0.13409 0.67919 0.79527 0.0
O534 O 0.09153 0.62615 0.79822 0.0
O535 O 0.1137 0.64903 0.69874 0.0
O536 O 0.15875 0.68305 0.73892 0.0
O537 O 0.19566 0.79518 0.7527 0.0
O538 O 0.14697 0.75744 0.78195 0.0
O539 O 0.19004 0.72008 0.73026 0.0
O540 O 0.20955 0.75263 0.67142 0.0
C541 C 0.21295 0.73432 0.70005 0.0
O542 O 0.08992 0.69712 0.70833 0.0
O543 O 0.07794 0.68657 0.77764 0.0
C544 C 0.1227 0.74212 0.64909 0.0
C545 C 0.06856 0.69012 0.73986 0.0
Zn546 Zn 0.22811 0.4064 0.68767 0.0
Zn547 Zn 0.33164 0.44576 0.74611 0.0
Zn548 Zn 0.27659 0.42309 0.73168 0.0
C549 C 0.30626 0.4488 0.82381 0.0
C550 C 0.33884 0.4893 0.69011 0.0
O551 O 0.27093 0.38532 0.67727 0.0
O552 O 0.23724 0.39142 0.62993 0.0
C553 C 0.2096 0.37425 0.77248 0.0
O554 O 0.28088 0.42277 0.8054 0.0
O555 O 0.33012 0.47008 0.79956 0.0
O556 O 0.3547 0.47319 0.69325 0.0
O557 O 0.30889 0.47674 0.70738 0.0
O558 O 0.20112 0.3703 0.73196 0.0
O559 O 0.23902 0.39863 0.78429 0.0
O560 O 0.27615 0.47045 0.71104 0.0
O561 O 0.22258 0.44647 0.69025 0.0
C562 C 0.24996 0.47288 0.70052 0.0
O563 O 0.29099 0.38528 0.71105 0.0
O564 O 0.33277 0.40436 0.75946 0.0
C565 C 0.25588 0.37896 0.63895 0.0
C566 C 0.31178 0.38062 0.73508 0.0
Zn567 Zn 0.5036 0.86086 0.02746 0.0
Zn568 Zn 0.48406 0.91623 0.14929 0.0
Zn569 Zn 0.51454 0.9055 0.08757 0.0
C570 C 0.43948 0.85174 0.12539 0.0
C571 C 0.49022 0.95558 0.07108 0.0
O572 O 0.56454 0.91978 0.09527 0.0
O573 O 0.55754 0.89055 0.03296 0.0
C574 C 0.48856 0.82094 0.0926 0.0
O575 O 0.46488 0.86078 0.09941 0.0
O576 O 0.44124 0.87164 0.15599 0.0
O577 O 0.48164 0.95183 0.11168 0.0
O578 O 0.5023 0.93829 0.05359 0.0
O579 O 0.48045 0.81446 0.05217 0.0
O580 O 0.49897 0.85136 0.10692 0.0
O581 O 0.52291 0.92051 0.01541 0.0
O582 O 0.47408 0.8784 0.00139 0.0
C583 C 0.50236 0.9005 0.98581 0.0
O584 O 0.55462 0.93706 0.13712 0.0
O585 O 0.52166 0.93362 0.19326 0.0
C586 C 0.57693 0.91171 0.06234 0.0
C587 C 0.55115 0.94433 0.17753 0.0
Zn588 Zn 0.10852 0.67177 0.05796 0.0
Zn589 Zn 0.0829 0.55095 0.16441 0.0
Zn590 Zn 0.09965 0.62292 0.09605 0.0
C591 C 0.14192 0.61489 0.15826 0.0
C592 C 0.06358 0.54458 0.06462 0.0
O593 O 0.06184 0.63781 0.11685 0.0
O594 O 0.08706 0.69117 0.09504 0.0
C595 C 0.17402 0.68889 0.07793 0.0
O596 O 0.14665 0.63647 0.12851 0.0
O597 O 0.11268 0.5999 0.17474 0.0
O598 O 0.06495 0.5332 0.10269 0.0
O599 O 0.07755 0.57668 0.05613 0.0
O600 O 0.15942 0.6995 0.05242 0.0
O601 O 0.15536 0.66192 0.10106 0.0
O602 O 0.09924 0.61254 0.02449 0.0
O603 O 0.08127 0.64676 0.00359 0.0
C604 C 0.09268 0.62753 0.99305 0.0
O605 O 0.05926 0.61059 0.14667 0.0
O606 O 0.05143 0.56646 0.18969 0.0
C607 C 0.06227 0.66627 0.11367 0.0
C608 C 0.04445 0.58947 0.17914 0.0
Zn609 Zn 0.32137 0.44219 0.0805 0.0
Zn610 Zn 0.42823 0.49985 0.13914 0.0
Zn611 Zn 0.37846 0.47041 0.0966 0.0
C612 C 0.40863 0.54562 0.13391 0.0
C613 C 0.44614 0.4872 0.05503 0.0
O614 O 0.36034 0.41672 0.11306 0.0
O615 O 0.31516 0.39717 0.07019 0.0
C616 C 0.31715 0.48161 0.13492 0.0
O617 O 0.38182 0.51764 0.12312 0.0
O618 O 0.43638 0.54622 0.13974 0.0
O619 O 0.45476 0.4905 0.09541 0.0
O620 O 0.417 0.4834 0.04401 0.0
O621 O 0.29648 0.45054 0.12803 0.0
O622 O 0.34844 0.49469 0.1221 0.0
O623 O 0.37861 0.47048 0.02318 0.0
O624 O 0.32889 0.46779 0.02446 0.0
C625 C 0.35456 0.47214 0.00262 0.0
O626 O 0.38057 0.4353 0.14867 0.0
O627 O 0.41614 0.47419 0.19558 0.0
C628 C 0.33653 0.39228 0.09054 0.0
C629 C 0.39544 0.44343 0.18707 0.0
Zn630 Zn 0.06935 0.50108 0.62663 0.0
Zn631 Zn 0.13042 0.45612 0.57619 0.0
Zn632 Zn 0.09477 0.47384 0.60221 0.0
C633 C 0.11788 0.47676 0.50237 0.0
C634 C 0.16921 0.49459 0.63719 0.0
O635 O 0.05567 0.44013 0.65444 0.0
O636 O 0.02389 0.46096 0.6368 0.0
C637 C 0.05994 0.50697 0.54509 0.0
O638 O 0.09259 0.47136 0.52764 0.0
O639 O 0.1448 0.48051 0.51967 0.0
O640 O 0.16465 0.46685 0.62181 0.0
O641 O 0.1478 0.50449 0.62841 0.0
O642 O 0.06831 0.5277 0.57677 0.0
O643 O 0.0684 0.48377 0.5463 0.0
O644 O 0.13091 0.52271 0.63482 0.0
O645 O 0.09574 0.53046 0.6771 0.0
C646 C 0.12563 0.54056 0.6637 0.0
O647 O 0.06926 0.42165 0.62478 0.0
O648 O 0.09405 0.40903 0.5709 0.0
C649 C 0.02803 0.44098 0.66103 0.0
C650 C 0.07094 0.39966 0.59972 0.0
Zn651 Zn 0.57652 0.70702 0.58823 0.0
Zn652 Zn 0.47945 0.52558 0.61287 0.0
Zn653 Zn 0.52675 0.61898 0.59795 0.0
C654 C 0.45389 0.58108 0.63218 0.0
C655 C 0.49932 0.56506 0.53879 0.0
O656 O 0.57096 0.62845 0.63299 0.0
O657 O 0.57723 0.6775 0.63617 0.0
C658 C 0.50718 0.67632 0.59568 0.0
O659 O 0.4793 0.61058 0.6236 0.0
O660 O 0.45541 0.55392 0.62702 0.0
O661 O 0.48102 0.5598 0.5723 0.0
O662 O 0.52313 0.59553 0.53339 0.0
O663 O 0.52841 0.68656 0.5643 0.0
O664 O 0.50231 0.64944 0.61661 0.0
O665 O 0.5408 0.63159 0.52661 0.0
O666 O 0.56869 0.68866 0.52549 0.0
C667 C 0.55561 0.66026 0.50545 0.0
O668 O 0.54207 0.59602 0.65541 0.0
O669 O 0.52112 0.53964 0.65132 0.0
C670 C 0.59162 0.66007 0.63158 0.0
C671 C 0.53847 0.56786 0.67158 0.0
Zn672 Zn 0.4284 0.9181 0.62871 0.0
Zn673 Zn 0.31793 0.86536 0.58185 0.0
Zn674 Zn 0.37616 0.89597 0.59645 0.0
C675 C 0.34982 0.86281 0.50404 0.0
C676 C 0.31654 0.82812 0.64676 0.0
O677 O 0.38376 0.93976 0.63804 0.0
O678 O 0.41851 0.93496 0.68475 0.0
C679 C 0.44203 0.94145 0.54538 0.0
O680 O 0.37501 0.88819 0.52363 0.0
O681 O 0.32283 0.84505 0.52602 0.0
O682 O 0.29462 0.83488 0.63215 0.0
O683 O 0.34786 0.84616 0.63415 0.0
O684 O 0.45319 0.95249 0.58371 0.0
O685 O 0.41268 0.91439 0.54068 0.0
O686 O 0.38186 0.85838 0.63775 0.0
O687 O 0.43686 0.87933 0.63019 0.0
C688 C 0.40842 0.85534 0.64256 0.0
O689 O 0.35923 0.93375 0.60526 0.0
O690 O 0.31033 0.90317 0.57077 0.0
C691 C 0.40028 0.94782 0.67512 0.0
C692 C 0.33292 0.93145 0.58565 0.0
Zn693 Zn 0.17248 0.41603 0.18102 0.0
Zn694 Zn 0.10534 0.46086 0.23233 0.0
Zn695 Zn 0.13978 0.43644 0.22179 0.0
C696 C 0.129 0.45652 0.31638 0.0
C697 C 0.15193 0.50803 0.18527 0.0
O698 O 0.10754 0.39521 0.17101 0.0
O699 O 0.14408 0.38426 0.13645 0.0
C700 C 0.16641 0.39798 0.27323 0.0
O701 O 0.13671 0.43655 0.29529 0.0
O702 O 0.11881 0.4736 0.29485 0.0
O703 O 0.12049 0.49697 0.18888 0.0
O704 O 0.16481 0.49009 0.19899 0.0
O705 O 0.17712 0.395 0.23572 0.0
O706 O 0.15198 0.41589 0.27805 0.0
O707 O 0.18956 0.47956 0.19612 0.0
O708 O 0.21276 0.45479 0.15812 0.0
C709 C 0.21464 0.48142 0.17353 0.0
O710 O 0.08679 0.39938 0.20141 0.0
O711 O 0.05952 0.42402 0.22924 0.0
C712 C 0.11436 0.37912 0.1408 0.0
C713 C 0.05894 0.398 0.21394 0.0
Zn714 Zn 0.5352 0.66033 0.26301 0.0
Zn715 Zn 0.59077 0.75747 0.18776 0.0
Zn716 Zn 0.56709 0.7098 0.22916 0.0
C717 C 0.52863 0.74535 0.19027 0.0
C718 C 0.62352 0.77853 0.26501 0.0
O719 O 0.59323 0.68132 0.21535 0.0
O720 O 0.57359 0.65379 0.27845 0.0
C721 C 0.49504 0.65087 0.19816 0.0
O722 O 0.52696 0.71661 0.19734 0.0
O723 O 0.55698 0.77225 0.1922 0.0
O724 O 0.63094 0.7846 0.22436 0.0
O725 O 0.59595 0.75141 0.27663 0.0
O726 O 0.50257 0.63098 0.21765 0.0
O727 O 0.51399 0.68324 0.20324 0.0
O728 O 0.57216 0.71615 0.30201 0.0
O729 O 0.51902 0.67747 0.31192 0.0
C730 C 0.54691 0.69961 0.32868 0.0
O731 O 0.60102 0.70521 0.18078 0.0
O732 O 0.59641 0.73805 0.13077 0.0
C733 C 0.59457 0.66279 0.24681 0.0
C734 C 0.60602 0.71722 0.14093 0.0
Zn735 Zn 0.34613 0.8881 0.23873 0.0
Zn736 Zn 0.23416 0.83172 0.19553 0.0
Zn737 Zn 0.28677 0.85956 0.22869 0.0
C738 C 0.25105 0.78776 0.17779 0.0
C739 C 0.22488 0.84264 0.2822 0.0
O740 O 0.3036 0.91323 0.21849 0.0
O741 O 0.35367 0.9338 0.25074 0.0
C742 C 0.34297 0.84913 0.17515 0.0
O743 O 0.27834 0.81598 0.18639 0.0
O744 O 0.22262 0.7839 0.18913 0.0
O745 O 0.21371 0.84325 0.24414 0.0
O746 O 0.25322 0.84295 0.28656 0.0
O747 O 0.36551 0.87892 0.18542 0.0
O748 O 0.31266 0.83639 0.19123 0.0
O749 O 0.2919 0.85632 0.30145 0.0
O750 O 0.34315 0.86279 0.29384 0.0
C751 C 0.31811 0.85663 0.31841 0.0
O752 O 0.27998 0.89622 0.18663 0.0
O753 O 0.242 0.85856 0.1407 0.0
C754 C 0.32988 0.93797 0.23686 0.0
C755 C 0.26242 0.88916 0.1505 0.0
C756 C 0.12611 0.05313 0.01377 0.0
C757 C 0.14806 0.07107 0.04896 0.0
C758 C 0.16033 0.02523 0.05871 0.0
C759 C 0.15082 0.01654 0.01363 0.0
N760 N 0.11646 0.01526 0.9517 0.0
N761 N 0.16758 0.06411 0.11955 0.0
C762 C 0.13003 0.02744 0.99259 0.0
C763 C 0.15735 0.05244 0.07744 0.0
N764 N 0.10207 0.06094 0.00143 0.0
N765 N 0.17425 0.00922 0.08149 0.0
H766 H 0.16674 0.0854 0.13114 0.0
H767 H 0.17543 0.05243 0.1427 0.0
H768 H 0.17564 0.98892 0.06739 0.0
H769 H 0.18355 0.01537 0.1138 0.0
H770 H 0.08393 0.04764 0.977 0.0
H771 H 0.09891 0.07885 0.01943 0.0
H772 H 0.10397 0.02506 0.93311 0.0
H773 H 0.11856 0.99578 0.93634 0.0
C774 C 0.96774 0.1226 0.03226 0.0
C775 C 0.97425 0.12839 0.98632 0.0
C776 C 0.91886 0.08048 0.96865 0.0
C777 C 0.90928 0.08109 0.0133 0.0
N778 N 0.92558 0.09151 0.08999 0.0
N779 N 0.96484 0.10343 0.91408 0.0
C780 C 0.93451 0.09775 0.0462 0.0
C781 C 0.95302 0.10311 0.95588 0.0
N782 N 0.99234 0.14355 0.06139 0.0
N783 N 0.89462 0.06096 0.93831 0.0
H784 H 0.98989 0.121 0.90524 0.0
H785 H 0.95106 0.08515 0.89005 0.0
H786 H 0.86957 0.04463 0.94806 0.0
H787 H 0.89907 0.06152 0.90425 0.0
H788 H 0.98921 0.1427 0.09575 0.0
H789 H 0.01639 0.16192 0.04994 0.0
H790 H 0.94256 0.1026 0.11621 0.0
H791 H 0.90089 0.07338 0.09953 0.0
C792 C 0.84437 0.81633 0.07128 0.0
C793 C 0.85336 0.83399 0.03018 0.0
C794 C 0.91266 0.86015 0.05057 0.0
C795 C 0.90343 0.83185 0.07844 0.0
N796 N 0.86436 0.79736 0.13473 0.0
N797 N 0.89533 0.88012 0.98615 0.0
C798 C 0.87048 0.81564 0.09652 0.0
C799 C 0.88741 0.85922 0.02214 0.0
N800 N 0.8111 0.79902 0.08382 0.0
N801 N 0.94556 0.8857 0.04937 0.0
H802 H 0.8764 0.87963 0.96594 0.0
H803 H 0.92021 0.89707 0.97629 0.0
H804 H 0.96315 0.88593 0.0718 0.0
H805 H 0.95407 0.90751 0.03003 0.0
H806 H 0.80224 0.78446 0.11264 0.0
H807 H 0.79267 0.80091 0.06531 0.0
H808 H 0.8406 0.78385 0.14983 0.0
H809 H 0.88424 0.79702 0.15174 0.0
C810 C 0.02721 0.13533 0.49785 0.0
C811 C 0.03279 0.15581 0.53596 0.0
C812 C 0.09339 0.17546 0.52855 0.0
C813 C 0.08823 0.16586 0.48357 0.0
N814 N 0.0497 0.13227 0.42575 0.0
N815 N 0.07505 0.2007 0.58387 0.0
C816 C 0.05484 0.14379 0.46845 0.0
C817 C 0.06692 0.17675 0.55137 0.0
N818 N -0.00349 0.10702 0.49149 0.0
N819 N 0.12466 0.18751 0.54719 0.0
H820 H 0.05794 0.20694 0.59786 0.0
H821 H 0.10012 0.21785 0.59275 0.0
H822 H 0.14456 0.18784 0.52953 0.0
H823 H 0.12933 0.19356 0.58089 0.0
H824 H 0.99157 0.09016 0.46524 0.0
H825 H 0.97847 0.09828 0.51688 0.0
H826 H 0.02555 0.11855 0.41165 0.0
H827 H 0.07014 0.13783 0.4046 0.0
C828 C 0.83387 0.89675 0.43671 0.0
C829 C 0.83811 0.92047 0.46965 0.0
C830 C 0.85626 0.89155 0.52154 0.0
C831 C 0.83792 0.86194 0.49525 0.0
N832 N 0.81104 0.8365 0.42538 0.0
N833 N 0.86942 0.94999 0.53391 0.0
C834 C 0.8286 0.86478 0.45107 0.0
C835 C 0.85565 0.92137 0.50866 0.0
N836 N 0.82911 0.9029 0.39375 0.0
N837 N 0.87139 0.88994 0.55994 0.0
H838 H 0.86905 0.9714 0.52249 0.0
H839 H 0.88175 0.95292 0.5641 0.0
H840 H 0.87187 0.868 0.56902 0.0
H841 H 0.8846 0.91033 0.58148 0.0
H842 H 0.82645 0.8867 0.36757 0.0
H843 H 0.83066 0.92589 0.38482 0.0
H844 H 0.8007 0.83675 0.39455 0.0
H845 H 0.80504 0.81243 0.43658 0.0
C846 C 0.09039 0.93596 0.44785 0.0
C847 C 0.07505 0.90988 0.48 0.0
C848 C 0.09729 0.95184 0.53907 0.0
C849 C 0.12164 0.97427 0.50828 0.0
N850 N 0.13647 0.99356 0.4333 0.0
N851 N 0.05587 0.89264 0.55476 0.0
C852 C 0.11551 0.96873 0.46227 0.0
C853 C 0.07486 0.91798 0.52525 0.0
N854 N 0.08311 0.92807 0.40396 0.0
N855 N 0.09837 0.96231 0.58183 0.0
H856 H 0.03924 0.86787 0.54395 0.0
H857 H 0.05678 0.89602 0.58908 0.0
H858 H 0.11576 0.98721 0.5914 0.0
H859 H 0.08089 0.94751 0.60622 0.0
H860 H 0.09291 0.94585 0.37834 0.0
H861 H 0.06515 0.90346 0.39398 0.0
H862 H 0.13553 0.99068 0.3989 0.0
H863 H 0.15528 0.01735 0.4448 0.0
C864 C 0.85705 0.96231 0.02389 0.0
C865 C 0.84167 0.97547 0.9958 0.0
C866 C 0.82644 0.92854 0.94488 0.0
C867 C 0.82832 0.90994 0.98139 0.0
N868 N 0.84974 0.90967 0.05433 0.0
N869 N 0.81773 0.97536 0.92477 0.0
C870 C 0.84642 0.92731 0.01996 0.0
C871 C 0.83009 0.96087 0.95341 0.0
N872 N 0.87752 0.98199 0.05748 0.0
N873 N 0.81726 0.91353 0.90407 0.0
H874 H 0.81856 -0.00182 0.93244 0.0
H875 H 0.80527 0.96403 0.8952 0.0
H876 H 0.81339 0.88912 0.89857 0.0
H877 H 0.81641 0.92618 0.87563 0.0
H878 H 0.89039 0.97412 0.0787 0.0
H879 H 0.88341 0.00726 0.061 0.0
H880 H 0.85999 0.92051 0.08509 0.0
H881 H 0.84044 0.88359 0.05215 0.0
C882 C 0.0647 0.90881 0.01808 0.0
C883 C 0.07665 0.91474 0.97393 0.0
C884 C 0.01924 0.87871 0.94556 0.0
C885 C 0.00952 0.8659 0.98927 0.0
N886 N 0.01724 0.87737 0.06818 0.0
N887 N 0.06623 0.91536 0.89611 0.0
C888 C 0.03035 0.88407 0.02608 0.0
C889 C 0.05382 0.90369 0.93774 0.0
N890 N 0.08738 0.92425 0.05192 0.0
N891 N 0.99586 0.8659 0.91203 0.0
H892 H 0.09165 0.934 0.89116 0.0
H893 H 0.0518 0.90744 0.86717 0.0
H894 H 0.97043 0.84778 0.91791 0.0
H895 H 0.00099 0.87408 0.87915 0.0
H896 H 0.0818 0.91845 0.08546 0.0
H897 H 0.11255 0.94294 0.04557 0.0
H898 H 0.02989 0.89223 0.09565 0.0
H899 H 0.99242 0.85833 0.07522 0.0
C900 C 0.12451 0.16176 0.98458 0.0
C901 C 0.14162 0.18174 0.02274 0.0
C902 C 0.11132 0.21286 0.01546 0.0
C903 C 0.09607 0.1953 0.97599 0.0
N904 N 0.09042 0.15566 0.91884 0.0
N905 N 0.16363 0.23742 0.0553 0.0
C906 C 0.10312 0.17025 0.9593 0.0
C907 C 0.13848 0.21046 0.03297 0.0
N908 N 0.12883 0.13533 0.97212 0.0
N909 N 0.10028 0.23236 0.03593 0.0
H910 H 0.18726 0.23946 0.06019 0.0
H911 H 0.16313 0.25981 0.06125 0.0
H912 H 0.07919 0.23339 0.02443 0.0
H913 H 0.10972 0.24407 0.0666 0.0
H914 H 0.11452 0.11788 0.94753 0.0
H915 H 0.14605 0.12996 0.98738 0.0
H916 H 0.09752 0.14008 0.90217 0.0
H917 H 0.07386 0.16065 0.90062 0.0
C918 C 0.96699 0.85687 0.47322 0.0
C919 C 0.95997 0.83588 0.43532 0.0
C920 C 0.89941 0.81564 0.44787 0.0
C921 C 0.90676 0.82623 0.49245 0.0
N922 N 0.94783 0.86167 0.54694 0.0
N923 N 0.91615 0.79708 0.38319 0.0
C924 C 0.94073 0.84886 0.50486 0.0
C925 C 0.92531 0.81649 0.42085 0.0
N926 N -0.00197 0.88511 0.47741 0.0
N927 N 0.86737 0.8036 0.43169 0.0
H928 H 0.93195 0.80247 0.35567 0.0
H929 H 0.89158 0.77663 0.37852 0.0
H930 H 0.84798 0.80269 0.45107 0.0
H931 H 0.86123 0.79809 0.39815 0.0
H932 H 0.00413 0.90268 0.50307 0.0
H933 H 0.01518 0.89282 0.45095 0.0
H934 H 0.97258 0.87592 0.55905 0.0
H935 H 0.92846 0.8568 0.56967 0.0
C936 C 0.14286 0.08056 0.49276 0.0
C937 C 0.16952 0.09284 0.52381 0.0
C938 C 0.18113 0.15066 0.51343 0.0
C939 C 0.16058 0.13947 0.47452 0.0
N940 N 0.11585 0.09434 0.43263 0.0
N941 N 0.20028 0.13438 0.57968 0.0
C942 C 0.13867 0.10433 0.46671 0.0
C943 C 0.18314 0.12616 0.54025 0.0
N944 N 0.12145 0.04652 0.48985 0.0
N945 N 0.20197 0.1846 0.52136 0.0
H946 H 0.20209 0.116 0.59849 0.0
H947 H 0.20957 0.15786 0.59528 0.0
H948 H 0.20148 0.20351 0.50233 0.0
H949 H 0.22074 0.19415 0.54575 0.0
H950 H 0.10066 0.03495 0.46854 0.0
H951 H 0.1231 0.03063 0.51337 0.0
H952 H 0.10081 0.06922 0.42246 0.0
H953 H 0.11235 0.11196 0.41444 0.0
C954 C 0.903 0.06423 0.53601 0.0
C955 C 0.91888 0.08611 0.49956 0.0
C956 C 0.88796 0.03907 0.44856 0.0
C957 C 0.86423 0.02251 0.48312 0.0
N958 N 0.8515 0.01393 0.56103 0.0
N959 N 0.93406 0.09351 0.4225 0.0
C960 C 0.87326 0.03275 0.52771 0.0
C961 C 0.91474 0.0727 0.45624 0.0
N962 N 0.91451 0.07524 0.57802 0.0
N963 N 0.8828 0.02364 0.40815 0.0
H964 H 0.95365 0.11829 0.42887 0.0
H965 H 0.93045 0.0866 0.38907 0.0
H966 H 0.86271 -0.00107 0.40309 0.0
H967 H 0.89958 0.03399 0.38147 0.0
H968 H 0.90468 0.06008 0.60624 0.0
H969 H 0.93599 0.09896 0.58365 0.0
H970 H 0.85466 0.02154 0.59419 0.0
H971 H 0.82971 0.99057 0.55451 0.0
C972 C 0.81606 0.38762 0.33802 0.0
C973 C 0.84309 0.42082 0.32921 0.0
C974 C 0.86078 0.40084 0.2663 0.0
C975 C 0.83329 0.36725 0.27321 0.0
N976 N 0.77743 0.33301 0.30459 0.0
N977 N 0.87912 0.46018 0.273 0.0
C978 C 0.80842 0.36171 0.30583 0.0
C979 C 0.86028 0.42773 0.28825 0.0
N980 N 0.7984 0.38087 0.37689 0.0
N981 N 0.88937 0.40707 0.24344 0.0
H982 H 0.88013 0.48061 0.28997 0.0
H983 H 0.89075 0.46588 0.24175 0.0
H984 H 0.8942 0.38787 0.23393 0.0
H985 H 0.91056 0.43137 0.24047 0.0
H986 H 0.78017 0.35632 0.3865 0.0
H987 H 0.80323 0.40012 0.39973 0.0
H988 H 0.75762 0.32885 0.32601 0.0
H989 H 0.77077 0.31588 0.27829 0.0
C990 C 0.61959 0.44586 0.28719 0.0
C991 C 0.6433 0.47324 0.31341 0.0
C992 C 0.60672 0.44975 0.37793 0.0
C993 C 0.57974 0.43078 0.34826 0.0
N994 N 0.55974 0.40433 0.27721 0.0
N995 N 0.66294 0.4993 0.385 0.0
C996 C 0.58617 0.42577 0.30383 0.0
C997 C 0.63859 0.4737 0.35981 0.0
N998 N 0.62856 0.44164 0.24536 0.0
N999 N 0.60069 0.44672 0.42263 0.0
H1000 H 0.68641 0.5172 0.37156 0.0
H1001 H 0.65956 0.50329 0.41828 0.0
H1002 H 0.57675 0.42945 0.4355 0.0
H1003 H 0.61972 0.45885 0.44636 0.0
H1004 H 0.61281 0.42149 0.22462 0.0
H1005 H 0.6532 0.45736 0.23326 0.0
H1006 H 0.56194 0.40194 0.24309 0.0
H1007 H 0.53521 0.38926 0.29 0.0
C1008 C 0.56034 0.19547 0.30801 0.0
C1009 C 0.53226 0.18506 0.33671 0.0
C1010 C 0.55897 0.1663 0.39118 0.0
C1011 C 0.57928 0.16515 0.3562 0.0
N1012 N 0.60702 0.18664 0.28626 0.0
N1013 N 0.5105 0.17316 0.41073 0.0
C1014 C 0.58341 0.18362 0.31668 0.0
C1015 C 0.53449 0.17608 0.38094 0.0
N1016 N 0.56216 0.21309 0.27047 0.0
N1017 N 0.56137 0.15513 0.43243 0.0
H1018 H 0.49241 0.17991 0.4018 0.0
H1019 H 0.50863 0.16462 0.44328 0.0
H1020 H 0.57926 0.14766 0.43914 0.0
H1021 H 0.54725 0.15483 0.45989 0.0
H1022 H 0.58232 0.22247 0.24801 0.0
H1023 H 0.54371 0.21976 0.26376 0.0
H1024 H 0.61005 0.1976 0.25496 0.0
H1025 H 0.62356 0.1776 0.29318 0.0
C1026 C 0.71514 0.48261 0.78305 0.0
C1027 C 0.73831 0.49126 0.81875 0.0
C1028 C 0.69059 0.46639 0.87085 0.0
C1029 C 0.6707 0.47017 0.83788 0.0
N1030 N 0.65791 0.46878 0.7608 0.0
N1031 N 0.74817 0.48442 0.89534 0.0
C1032 C 0.68065 0.47246 0.79292 0.0
C1033 C 0.72581 0.47966 0.86219 0.0
N1034 N 0.72707 0.48691 0.74048 0.0
N1035 N 0.67632 0.45336 0.91123 0.0
H1036 H 0.7739 0.49421 0.8885 0.0
H1037 H 0.74154 0.47949 0.92879 0.0
H1038 H 0.65059 0.44466 0.91718 0.0
H1039 H 0.68898 0.44889 0.93687 0.0
H1040 H 0.71183 0.48108 0.71235 0.0
H1041 H 0.75254 0.49471 0.73387 0.0
H1042 H 0.66344 0.47234 0.72696 0.0
H1043 H 0.63294 0.46184 0.7692 0.0
C1044 C 0.51999 0.22853 0.86431 0.0
C1045 C 0.50749 0.20148 0.83328 0.0
C1046 C 0.5065 0.23915 0.77669 0.0
C1047 C 0.5046 0.259 0.8114 0.0
N1048 N 0.52048 0.28067 0.88502 0.0
N1049 N 0.49391 0.18208 0.75765 0.0
C1050 C 0.51688 0.25735 0.85379 0.0
C1051 C 0.50375 0.20759 0.78809 0.0
N1052 N 0.53182 0.22505 0.9045 0.0
N1053 N 0.50544 0.24811 0.73375 0.0
H1054 H 0.49103 0.15848 0.76618 0.0
H1055 H 0.48743 0.18389 0.72495 0.0
H1056 H 0.50458 0.27012 0.72627 0.0
H1057 H 0.50782 0.23527 0.70649 0.0
H1058 H 0.54209 0.24416 0.92843 0.0
H1059 H 0.53361 0.20356 0.91208 0.0
H1060 H 0.52621 0.27958 0.91829 0.0
H1061 H 0.51664 0.30085 0.87676 0.0
C1062 C 0.75011 0.26498 0.82165 0.0
C1063 C 0.75921 0.25366 0.78336 0.0
C1064 C 0.81596 0.30312 0.78572 0.0
C1065 C 0.8098 0.30734 0.83093 0.0
N1066 N 0.76986 0.29762 0.88988 0.0
N1067 N 0.79317 0.27001 0.71765 0.0
C1068 C 0.77621 0.29061 0.848 0.0
C1069 C 0.78944 0.27644 0.76099 0.0
N1070 N 0.71668 0.25216 0.83099 0.0
N1071 N 0.84776 0.32269 0.76834 0.0
H1072 H 0.77329 0.24965 0.70077 0.0
H1073 H 0.81444 0.28527 0.69823 0.0
H1074 H 0.86743 0.34163 0.78708 0.0
H1075 H 0.85481 0.32015 0.73626 0.0
H1076 H 0.70763 0.26011 0.85758 0.0
H1077 H 0.69876 0.23711 0.80731 0.0
H1078 H 0.7464 0.28359 0.90568 0.0
H1079 H 0.78862 0.31712 0.90908 0.0
C1080 C 0.52101 0.28593 0.31289 0.0
C1081 C 0.49223 0.25449 0.32559 0.0
C1082 C 0.47148 0.28451 0.36774 0.0
C1083 C 0.50215 0.31521 0.36391 0.0
N1084 N 0.56008 0.34395 0.33697 0.0
N1085 N 0.44991 0.22573 0.38246 0.0
C1086 C 0.52859 0.31583 0.33779 0.0
C1087 C 0.47184 0.25457 0.36047 0.0
N1088 N 0.53992 0.28738 0.27692 0.0
N1089 N 0.44144 0.284 0.37151 0.0
H1090 H 0.44891 0.2026 0.37639 0.0
H1091 H 0.43626 0.22691 0.40977 0.0
H1092 H 0.44059 0.30649 0.36913 0.0
H1093 H 0.41815 0.26126 0.37184 0.0
H1094 H 0.55955 0.31024 0.26436 0.0
H1095 H 0.53431 0.26562 0.25874 0.0
H1096 H 0.58052 0.3447 0.32006 0.0
H1097 H 0.56585 0.36525 0.35623 0.0
C1098 C 0.69824 0.20435 0.29306 0.0
C1099 C 0.68804 0.19827 0.33816 0.0
C1100 C 0.73529 0.25374 0.35901 0.0
C1101 C 0.74923 0.25576 0.31637 0.0
N1102 N 0.73766 0.24458 0.23872 0.0
N1103 N 0.68756 0.22173 0.40943 0.0
C1104 C 0.72769 0.23555 0.2817 0.0
C1105 C 0.70302 0.22517 0.36931 0.0
N1106 N 0.68187 0.17908 0.2625 0.0
N1107 N 0.75496 0.2769 0.39045 0.0
H1108 H 0.66404 0.20037 0.41666 0.0
H1109 H 0.69651 0.24072 0.43354 0.0
H1110 H 0.77895 0.29729 0.38236 0.0
H1111 H 0.74805 0.27558 0.42374 0.0
H1112 H 0.69021 0.18055 0.22985 0.0
H1113 H 0.66028 0.15604 0.27088 0.0
H1114 H 0.72259 0.23157 0.21146 0.0
H1115 H 0.76008 0.26707 0.23117 0.0
C1116 C 0.77192 0.49155 0.26392 0.0
C1117 C 0.7504 0.4932 0.29605 0.0
C1118 C 0.77445 0.47288 0.35196 0.0
C1119 C 0.80387 0.48608 0.32494 0.0
N1120 N 0.82904 0.50208 0.25206 0.0
N1121 N 0.72048 0.47109 0.36412 0.0
C1122 C 0.80158 0.492 0.27912 0.0
C1123 C 0.74747 0.47785 0.33771 0.0
N1124 N 0.76624 0.49467 0.22016 0.0
N1125 N 0.77408 0.45873 0.3921 0.0
H1126 H 0.7009 0.47437 0.3518 0.0
H1127 H 0.71731 0.46203 0.39658 0.0
H1128 H 0.79427 0.45547 0.40213 0.0
H1129 H 0.75338 0.44848 0.41373 0.0
H1130 H 0.78062 0.49283 0.1944 0.0
H1131 H 0.74507 0.49642 0.21047 0.0
H1132 H 0.8301 0.51011 0.21933 0.0
H1133 H 0.85131 0.50367 0.26374 0.0
C1134 C 0.62548 0.18759 0.79861 0.0
C1135 C 0.64595 0.18235 0.82926 0.0
C1136 C 0.60803 0.17738 0.88936 0.0
C1137 C 0.58279 0.16962 0.85684 0.0
N1138 N 0.56834 0.1762 0.78233 0.0
N1139 N 0.6637 0.18377 0.90434 0.0
C1140 C 0.59226 0.17919 0.81212 0.0
C1141 C 0.64004 0.18238 0.87525 0.0
N1142 N 0.63681 0.19721 0.75612 0.0
N1143 N 0.59975 0.17653 0.93314 0.0
H1144 H 0.68706 0.18739 0.89298 0.0
H1145 H 0.66034 0.18142 0.93868 0.0
H1146 H 0.57562 0.17188 0.94258 0.0
H1147 H 0.61688 0.1823 0.95915 0.0
H1148 H 0.62362 0.20243 0.73203 0.0
H1149 H 0.66102 0.20241 0.74633 0.0
H1150 H 0.57227 0.17941 0.74813 0.0
H1151 H 0.544 0.16989 0.79275 0.0
C1152 C 0.82017 0.46332 0.88909 0.0
C1153 C 0.81319 0.46252 0.84314 0.0
C1154 C 0.81076 0.40814 0.83534 0.0
C1155 C 0.82429 0.41249 0.87885 0.0
N1156 N 0.82423 0.43232 0.95255 0.0
N1157 N 0.78616 0.42821 0.77927 0.0
C1158 C 0.82127 0.43526 0.90792 0.0
C1159 C 0.80181 0.43202 0.81924 0.0
N1160 N 0.83022 0.49242 0.9128 0.0
N1161 N 0.81057 0.38416 0.80806 0.0
H1162 H 0.78109 0.44683 0.76727 0.0
H1163 H 0.77594 0.40592 0.7606 0.0
H1164 H 0.81824 0.36751 0.81951 0.0
H1165 H 0.80433 0.38188 0.77442 0.0
H1166 H 0.83923 0.49577 0.94534 0.0
H1167 H 0.831 0.51379 0.89858 0.0
H1168 H 0.82116 0.44756 0.97589 0.0
H1169 H 0.82689 0.41242 0.96552 0.0
C1170 C 0.55786 0.42916 0.78575 0.0
C1171 C 0.56837 0.4212 0.82557 0.0
C1172 C 0.54589 0.36351 0.79917 0.0
C1173 C 0.52457 0.36867 0.76958 0.0
N1174 N 0.50787 0.40896 0.74146 0.0
N1175 N 0.57705 0.38187 0.86878 0.0
C1176 C 0.53046 0.40242 0.76315 0.0
C1177 C 0.56446 0.38874 0.83159 0.0
N1178 N 0.5702 0.46233 0.77408 0.0
N1179 N 0.54907 0.33545 0.79522 0.0
H1180 H 0.59126 0.40081 0.89206 0.0
H1181 H 0.57238 0.35754 0.87664 0.0
H1182 H 0.538 0.31882 0.76858 0.0
H1183 H 0.56593 0.33156 0.81444 0.0
H1184 H 0.56392 0.46945 0.74416 0.0
H1185 H 0.58924 0.4822 0.79259 0.0
H1186 H 0.51092 0.43325 0.73965 0.0
H1187 H 0.48391 0.39051 0.73074 0.0
C1188 C 0.48262 0.71576 0.68844 0.0
C1189 C 0.5046 0.75088 0.67995 0.0
C1190 C 0.51792 0.73714 0.60639 0.0
C1191 C 0.49948 0.70174 0.61766 0.0
N1192 N 0.4499 0.6596 0.65598 0.0
N1193 N 0.53076 0.79448 0.62339 0.0
C1194 C 0.47724 0.69165 0.65466 0.0
C1195 C 0.51834 0.76151 0.63659 0.0
N1196 N 0.46751 0.70539 0.72914 0.0
N1197 N 0.5352 0.74791 0.56708 0.0
H1198 H 0.52914 0.81266 0.64248 0.0
H1199 H 0.53876 0.80301 0.59106 0.0
H1200 H 0.52793 0.73288 0.53856 0.0
H1201 H 0.55563 0.77244 0.56237 0.0
H1202 H 0.45428 0.67993 0.73881 0.0
H1203 H 0.46949 0.7226 0.75364 0.0
H1204 H 0.43116 0.65136 0.68049 0.0
H1205 H 0.44386 0.6433 0.62881 0.0
C1206 C 0.26317 0.73675 0.66675 0.0
C1207 C 0.24746 0.73947 0.70579 0.0
C1208 C 0.29314 0.79696 0.71812 0.0
C1209 C 0.30445 0.79718 0.67403 0.0
N1210 N 0.30972 0.76539 0.61364 0.0
N1211 N 0.25773 0.76215 0.77943 0.0
C1212 C 0.29319 0.76602 0.65126 0.0
C1213 C 0.26708 0.7658 0.73583 0.0
N1214 N 0.24688 0.70748 0.6427 0.0
N1215 N 0.30454 0.8267 0.74083 0.0
H1216 H 0.23745 0.7393 0.79122 0.0
H1217 H 0.27173 0.78024 0.80361 0.0
H1218 H 0.32267 0.85004 0.72749 0.0
H1219 H 0.29462 0.82829 0.77143 0.0
H1220 H 0.25475 0.70407 0.61155 0.0
H1221 H 0.22483 0.68656 0.65502 0.0
H1222 H 0.30334 0.74336 0.59578 0.0
H1223 H 0.33157 0.78703 0.60228 0.0
C1224 C 0.19551 0.50324 0.71119 0.0
C1225 C 0.19862 0.51388 0.66631 0.0
C1226 C 0.25637 0.52389 0.66332 0.0
C1227 C 0.24936 0.50505 0.70307 0.0
N1228 N 0.22381 0.49528 0.77495 0.0
N1229 N 0.23507 0.54692 0.60656 0.0
C1230 C 0.22353 0.50284 0.73117 0.0
C1231 C 0.23074 0.52959 0.64532 0.0
N1232 N 0.16468 0.48915 0.73198 0.0
N1233 N 0.28597 0.53311 0.64155 0.0
H1234 H 0.21555 0.55018 0.59358 0.0
H1235 H 0.25795 0.55941 0.58916 0.0
H1236 H 0.30422 0.52892 0.6563 0.0
H1237 H 0.29235 0.54479 0.61048 0.0
H1238 H 0.15994 0.47754 0.7631 0.0
H1239 H 0.14349 0.48801 0.7167 0.0
H1240 H 0.20607 0.49416 0.79795 0.0
H1241 H 0.24383 0.49288 0.78806 0.0
C1242 C 0.3618 0.80651 0.17004 0.0
C1243 C 0.35293 0.82863 0.14801 0.0
C1244 C 0.38799 0.83151 0.08505 0.0
C1245 C 0.40591 0.82225 0.11447 0.0
N1246 N 0.3958 0.7786 0.16626 0.0
N1247 N 0.35207 0.85683 0.08047 0.0
C1248 C 0.38765 0.80172 0.15075 0.0
C1249 C 0.36337 0.83852 0.10335 0.0
N1250 N 0.34769 0.79265 0.21024 0.0
N1251 N 0.39719 0.83666 0.04143 0.0
H1252 H 0.33404 0.8621 0.09396 0.0
H1253 H 0.36136 0.86753 0.0493 0.0
H1254 H 0.41582 0.83156 0.02955 0.0
H1255 H 0.38461 0.84281 0.01746 0.0
H1256 H 0.35565 0.779 0.22975 0.0
H1257 H 0.32811 0.79536 0.22415 0.0
H1258 H 0.38281 0.76156 0.19194 0.0
H1259 H 0.41395 0.77493 0.14969 0.0
C1260 C 0.17713 0.59554 0.19751 0.0
C1261 C 0.16191 0.59736 0.15724 0.0
C1262 C 0.16625 0.54979 0.12675 0.0
C1263 C 0.17293 0.54319 0.17014 0.0
N1264 N 0.19704 0.56392 0.24182 0.0
N1265 N 0.15204 0.58367 0.07857 0.0
C1266 C 0.18355 0.56825 0.20351 0.0
C1267 C 0.16044 0.57739 0.11974 0.0
N1268 N 0.18378 0.61901 0.23016 0.0
N1269 N 0.16238 0.52735 0.09389 0.0
H1270 H 0.14808 0.60379 0.07164 0.0
H1271 H 0.15068 0.57015 0.05003 0.0
H1272 H 0.16673 0.5072 0.10009 0.0
H1273 H 0.15555 0.52851 0.06123 0.0
H1274 H 0.19348 0.61867 0.26134 0.0
H1275 H 0.18014 0.63974 0.22531 0.0
H1276 H 0.20491 0.58051 0.26873 0.0
H1277 H 0.20173 0.54375 0.2454 0.0
C1278 C 0.43276 0.61829 0.19965 0.0
C1279 C 0.46277 0.63592 0.17389 0.0
C1280 C 0.43138 0.60287 0.10962 0.0
C1281 C 0.40861 0.57773 0.13901 0.0
N1282 N 0.38157 0.56368 0.21029 0.0
N1283 N 0.49114 0.64377 0.10305 0.0
C1284 C 0.40622 0.58696 0.1831 0.0
C1285 C 0.46201 0.62913 0.12773 0.0
N1286 N 0.43134 0.62998 0.24095 0.0
N1287 N 0.42632 0.59787 0.065 0.0
H1288 H 0.51479 0.6605 0.11686 0.0
H1289 H 0.49203 0.63705 0.0701 0.0
H1290 H 0.40453 0.57667 0.05255 0.0
H1291 H 0.44206 0.61592 0.04164 0.0
H1292 H 0.40959 0.61887 0.2608 0.0
H1293 H 0.45138 0.65269 0.25334 0.0
H1294 H 0.38024 0.56711 0.24434 0.0
H1295 H 0.3634 0.54004 0.19808 0.0
C1296 C 0.16859 0.62145 0.72643 0.0
C1297 C 0.16022 0.63943 0.6953 0.0
C1298 C 0.15479 0.59966 0.63724 0.0
C1299 C 0.15121 0.57646 0.67126 0.0
N1300 N 0.1602 0.56614 0.74692 0.0
N1301 N 0.15355 0.65125 0.61939 0.0
C1302 C 0.16087 0.58801 0.71538 0.0
C1303 C 0.15684 0.6307 0.64975 0.0
N1304 N 0.18265 0.63577 0.76642 0.0
N1305 N 0.15427 0.5911 0.59356 0.0
H1306 H 0.15695 0.675 0.62829 0.0
H1307 H 0.14692 0.64473 0.58624 0.0
H1308 H 0.15349 0.56871 0.58383 0.0
H1309 H 0.15792 0.60742 0.56717 0.0
H1310 H 0.19073 0.62428 0.78959 0.0
H1311 H 0.18982 0.66083 0.77417 0.0
H1312 H 0.16331 0.57157 0.78082 0.0
H1313 H 0.1552 0.54182 0.73857 0.0
C1314 C 0.39445 0.55798 0.61249 0.0
C1315 C 0.42038 0.57612 0.64396 0.0
C1316 C 0.3796 0.5497 0.70416 0.0
C1317 C 0.35793 0.52443 0.67362 0.0
N1318 N 0.34023 0.50682 0.59844 0.0
N1319 N 0.43739 0.59504 0.71883 0.0
C1320 C 0.36345 0.5299 0.62737 0.0
C1321 C 0.41246 0.57477 0.68958 0.0
N1322 N 0.40105 0.56617 0.56854 0.0
N1323 N 0.36927 0.54819 0.74715 0.0
H1324 H 0.46146 0.61365 0.70789 0.0
H1325 H 0.43457 0.59299 0.75326 0.0
H1326 H 0.34499 0.52973 0.75758 0.0
H1327 H 0.38324 0.56662 0.77093 0.0
H1328 H 0.38302 0.55484 0.54346 0.0
H1329 H 0.42441 0.58647 0.55814 0.0
H1330 H 0.34401 0.50736 0.56421 0.0
H1331 H 0.31707 0.48661 0.60951 0.0
C1332 C 0.44017 0.84366 0.74391 0.0
C1333 C 0.45405 0.82291 0.73021 0.0
C1334 C 0.42119 0.80962 0.6613 0.0
C1335 C 0.40905 0.83137 0.67491 0.0
N1336 N 0.39341 0.85435 0.73647 0.0
N1337 N 0.44541 0.7753 0.68523 0.0
C1338 C 0.413 0.84211 0.71941 0.0
C1339 C 0.44053 0.80221 0.69178 0.0
N1340 N 0.455 0.868 0.77615 0.0
N1341 N 0.41531 0.79734 0.61891 0.0
H1342 H 0.45616 0.76757 0.70993 0.0
H1343 H 0.43486 0.75843 0.6587 0.0
H1344 H 0.40001 0.80175 0.59714 0.0
H1345 H 0.42648 0.7841 0.60545 0.0
H1346 H 0.44689 0.88525 0.78348 0.0
H1347 H 0.47792 0.87466 0.79143 0.0
H1348 H 0.39391 0.86054 0.76999 0.0
H1349 H 0.37426 0.85465 0.71791 0.0
C1350 C 0.26576 0.52436 0.13664 0.0
C1351 C 0.24924 0.51066 0.17739 0.0
C1352 C 0.29255 0.49719 0.19887 0.0
C1353 C 0.30393 0.50268 0.15409 0.0
N1354 N 0.31109 0.53293 0.08543 0.0
N1355 N 0.25677 0.50336 0.2543 0.0
C1356 C 0.29432 0.52095 0.12485 0.0
C1357 C 0.26737 0.50539 0.21141 0.0
N1358 N 0.25141 0.53686 0.10811 0.0
N1359 N 0.30388 0.48194 0.22788 0.0
H1360 H 0.23672 0.50754 0.26217 0.0
H1361 H 0.26916 0.50013 0.28138 0.0
H1362 H 0.32299 0.47658 0.21921 0.0
H1363 H 0.29383 0.47395 0.25965 0.0
H1364 H 0.26009 0.54525 0.07596 0.0
H1365 H 0.23021 0.53856 0.11786 0.0
H1366 H 0.30582 0.54702 0.06283 0.0
H1367 H 0.332 0.53045 0.07673 0.0
C1368 C 0.50478 0.74937 0.12073 0.0
C1369 C 0.50161 0.74776 0.16716 0.0
C1370 C 0.48305 0.78977 0.16613 0.0
C1371 C 0.4916 0.79528 0.11979 0.0
N1372 N 0.52254 0.78753 0.05886 0.0
N1373 N 0.47837 0.75693 0.23303 0.0
C1374 C 0.50496 0.7765 0.09816 0.0
C1375 C 0.48733 0.76483 0.18942 0.0
N1376 N 0.51106 0.72681 0.09892 0.0
N1377 N 0.4734 0.80971 0.18853 0.0
H1378 H 0.48171 0.73844 0.24925 0.0
H1379 H 0.46553 0.76619 0.25185 0.0
H1380 H 0.46996 0.82818 0.17334 0.0
H1381 H 0.46988 0.80903 0.22278 0.0
H1382 H 0.51093 0.72486 0.06434 0.0
H1383 H 0.51303 0.70807 0.11615 0.0
H1384 H 0.5352 0.77619 0.04417 0.0
H1385 H 0.52921 0.81085 0.04421 0.0
C1386 C 0.24773 0.77186 0.09877 0.0
C1387 C 0.25103 0.76455 0.14386 0.0
C1388 C 0.22463 0.70452 0.12596 0.0
C1389 C 0.21089 0.71118 0.08788 0.0
N1390 N 0.22449 0.74872 0.02558 0.0
N1391 N 0.24984 0.72536 0.19852 0.0
C1392 C 0.22805 0.74427 0.06973 0.0
C1393 C 0.24269 0.73132 0.15657 0.0
N1394 N 0.26042 0.80478 0.08549 0.0
N1395 N 0.22098 0.67317 0.13161 0.0
H1396 H 0.26384 0.74524 0.22073 0.0
H1397 H 0.24116 0.70102 0.21119 0.0
H1398 H 0.20983 0.65473 0.10677 0.0
H1399 H 0.23212 0.66711 0.15766 0.0
H1400 H 0.2561 0.81193 0.05439 0.0
H1401 H 0.27523 0.82523 0.10638 0.0
H1402 H 0.23695 0.7721 0.00938 0.0
H1403 H 0.21097 0.7279 0.0045 0.0
C1404 C 0.34076 0.18263 0.11016 0.0
C1405 C 0.30732 0.15606 0.12009 0.0
C1406 C 0.33027 0.12845 0.16674 0.0
C1407 C 0.36385 0.15441 0.15532 0.0
N1408 N 0.40108 0.20142 0.10908 0.0
N1409 N 0.27002 0.10023 0.15002 0.0
C1410 C 0.36892 0.17955 0.12386 0.0
C1411 C 0.30199 0.12769 0.14564 0.0
N1412 N 0.34547 0.21151 0.08953 0.0
N1413 N 0.32533 0.10681 0.20123 0.0
H1414 H 0.24849 0.09962 0.13676 0.0
H1415 H 0.26525 0.07733 0.16423 0.0
H1416 H 0.34537 0.10743 0.21883 0.0
H1417 H 0.30152 0.09022 0.21474 0.0
H1418 H 0.36922 0.23309 0.08489 0.0
H1419 H 0.32521 0.21503 0.08089 0.0
H1420 H 0.40657 0.21909 0.08375 0.0
H1421 H 0.42184 0.19941 0.11985 0.0
C1422 C 0.84497 0.14504 0.16833 0.0
C1423 C 0.81272 0.11755 0.15643 0.0
C1424 C 0.78457 0.14013 0.20358 0.0
C1425 C 0.81663 0.16982 0.21061 0.0
N1426 N 0.87746 0.20184 0.19892 0.0
N1427 N 0.75165 0.08821 0.16089 0.0
C1428 C 0.84693 0.17262 0.19288 0.0
C1429 C 0.78241 0.11456 0.17412 0.0
N1430 N 0.87368 0.14431 0.15629 0.0
N1431 N 0.75633 0.13657 0.22489 0.0
H1432 H 0.74948 0.06843 0.1409 0.0
H1433 H 0.72841 0.08647 0.16812 0.0
H1434 H 0.75676 0.1556 0.2448 0.0
H1435 H 0.73288 0.1142 0.22486 0.0
H1436 H 0.89805 0.162 0.16688 0.0
H1437 H 0.8727 0.12396 0.13881 0.0
H1438 H 0.89971 0.20712 0.18233 0.0
H1439 H 0.88039 0.22208 0.21854 0.0
C1440 C 0.83623 0.64262 0.15146 0.0
C1441 C 0.80902 0.64474 0.17103 0.0
C1442 C 0.82188 0.69413 0.12435 0.0
C1443 C 0.85144 0.69436 0.10889 0.0
N1444 N 0.88942 0.67158 0.11098 0.0
N1445 N 0.77768 0.67433 0.1805 0.0
C1446 C 0.85929 0.66925 0.12316 0.0
C1447 C 0.80205 0.67081 0.15838 0.0
N1448 N 0.83959 0.61479 0.15942 0.0
N1449 N 0.81271 0.71599 0.10627 0.0
H1450 H 0.76228 0.65734 0.20501 0.0
H1451 H 0.77411 0.69511 0.1766 0.0
H1452 H 0.82714 0.73376 0.08183 0.0
H1453 H 0.78966 0.71487 0.11296 0.0
H1454 H 0.85688 0.61003 0.14273 0.0
H1455 H 0.82286 0.59476 0.17988 0.0
H1456 H 0.89838 0.65638 0.12429 0.0
H1457 H 0.90686 0.69055 0.08997 0.0
C1458 C 0.13424 0.3399 0.30309 0.0
C1459 C 0.16313 0.37304 0.30656 0.0
C1460 C 0.19416 0.35088 0.3478 0.0
C1461 C 0.16534 0.31772 0.34422 0.0
N1462 N 0.10944 0.27912 0.31647 0.0
N1463 N 0.21866 0.41172 0.33498 0.0
C1464 C 0.13573 0.31177 0.32119 0.0
C1465 C 0.19258 0.37901 0.32993 0.0
N1466 N 0.10562 0.33569 0.28211 0.0
N1467 N 0.22308 0.35494 0.36768 0.0
H1468 H 0.21722 0.43252 0.32287 0.0
H1469 H 0.2407 0.41873 0.35303 0.0
H1470 H 0.22517 0.33441 0.37935 0.0
H1471 H 0.24566 0.37798 0.37056 0.0
H1472 H 0.08308 0.31268 0.27893 0.0
H1473 H 0.10369 0.35596 0.26916 0.0
H1474 H 0.08721 0.27215 0.29891 0.0
H1475 H 0.11055 0.2582 0.32869 0.0
C1476 C 0.6825 0.8151 0.293 0.0
C1477 C 0.64728 0.80423 0.29696 0.0
C1478 C 0.66092 0.8496 0.35088 0.0
C1479 C 0.69619 0.86241 0.34301 0.0
N1480 N 0.74073 0.86086 0.30191 0.0
N1481 N 0.60336 0.81501 0.32384 0.0
C1482 C 0.70697 0.84632 0.31227 0.0
C1483 C 0.63651 0.82254 0.32428 0.0
N1484 N 0.69242 0.79473 0.27232 0.0
N1485 N 0.65067 0.86189 0.38551 0.0
H1486 H 0.58449 0.79514 0.30531 0.0
H1487 H 0.59511 0.83017 0.33922 0.0
H1488 H 0.66766 0.88149 0.40614 0.0
H1489 H 0.62546 0.8508 0.396 0.0
H1490 H 0.71737 0.79951 0.27194 0.0
H1491 H 0.67491 0.77109 0.2596 0.0
H1492 H 0.75003 0.85192 0.27676 0.0
H1493 H 0.75907 0.88391 0.31576 0.0
C1494 C 0.19774 0.86593 0.33082 0.0
C1495 C 0.20153 0.83781 0.31884 0.0
C1496 C 0.14221 0.79851 0.33846 0.0
C1497 C 0.13852 0.82648 0.35161 0.0
N1498 N 0.16357 0.8864 0.36695 0.0
N1499 N 0.18053 0.77774 0.31877 0.0
C1500 C 0.16655 0.86016 0.34963 0.0
C1501 C 0.1747 0.80417 0.3255 0.0
N1502 N 0.22362 0.89814 0.32217 0.0
N1503 N 0.11433 0.76659 0.33796 0.0
H1504 H 0.20445 0.78169 0.30969 0.0
H1505 H 0.16292 0.75247 0.32584 0.0
H1506 H 0.09034 0.76194 0.3477 0.0
H1507 H 0.11425 0.74534 0.32486 0.0
H1508 H 0.22143 0.91981 0.32502 0.0
H1509 H 0.24716 0.90286 0.31018 0.0
H1510 H 0.18411 0.91078 0.37175 0.0
H1511 H 0.14053 0.88338 0.37846 0.0
C1512 C 0.69214 0.85395 0.86186 0.0
C1513 C 0.69254 0.82286 0.86325 0.0
C1514 C 0.63652 0.79299 0.82766 0.0
C1515 C 0.63695 0.82439 0.82443 0.0
N1516 N 0.66365 0.88432 0.83796 0.0
N1517 N 0.66503 0.76235 0.8513 0.0
C1518 C 0.66422 0.8547 0.84191 0.0
C1519 C 0.6648 0.79224 0.84671 0.0
N1520 N 0.71804 0.88239 0.88136 0.0
N1521 N 0.60855 0.76399 0.81273 0.0
H1522 H 0.68449 0.76075 0.86738 0.0
H1523 H 0.64632 0.7389 0.83946 0.0
H1524 H 0.58675 0.76382 0.80136 0.0
H1525 H 0.60597 0.73995 0.81249 0.0
H1526 H 0.71761 0.90475 0.88705 0.0
H1527 H 0.74007 0.88331 0.89327 0.0
H1528 H 0.68395 0.90835 0.84519 0.0
H1529 H 0.64221 0.88452 0.82642 0.0
C1530 C 0.1738 0.809 0.85918 0.0
C1531 C 0.17589 0.81405 0.81256 0.0
C1532 C 0.19367 0.87426 0.82372 0.0
C1533 C 0.18661 0.86796 0.86945 0.0
N1534 N 0.19269 0.83625 0.93028 0.0
N1535 N 0.18262 0.85045 0.74985 0.0
C1536 C 0.18286 0.83717 0.88754 0.0
C1537 C 0.18475 0.84651 0.79461 0.0
N1538 N 0.1636 0.77759 0.87678 0.0
N1539 N 0.2125 0.90691 0.80893 0.0
H1540 H 0.17311 0.83026 0.7274 0.0
H1541 H 0.18674 0.87307 0.73559 0.0
H1542 H 0.22257 0.92753 0.83067 0.0
H1543 H 0.22206 0.91305 0.77664 0.0
H1544 H 0.15678 0.77182 0.91011 0.0
H1545 H 0.15963 0.75668 0.85797 0.0
H1546 H 0.19265 0.8152 0.94412 0.0
H1547 H 0.20679 0.85811 0.94921 0.0
C1548 C 0.13427 0.33209 0.8514 0.0
C1549 C 0.12156 0.29737 0.83969 0.0
C1550 C 0.17341 0.31416 0.79625 0.0
C1551 C 0.18411 0.349 0.8037 0.0
N1552 N 0.17357 0.39162 0.83505 0.0
N1553 N 0.12763 0.25526 0.79867 0.0
C1554 C 0.16438 0.35813 0.83074 0.0
C1555 C 0.14077 0.2884 0.81136 0.0
N1556 N 0.1179 0.34012 0.88312 0.0
N1557 N 0.19501 0.3059 0.77519 0.0
H1558 H 0.10394 0.23589 0.8095 0.0
H1559 H 0.13877 0.24725 0.77485 0.0
H1560 H 0.21919 0.32433 0.76448 0.0
H1561 H 0.19047 0.28117 0.77182 0.0
H1562 H 0.12795 0.36423 0.89708 0.0
H1563 H 0.09511 0.322 0.89756 0.0
H1564 H 0.15804 0.39982 0.8494 0.0
H1565 H 0.19619 0.41135 0.82204 0.0
C1566 C 0.79491 0.65136 0.64585 0.0
C1567 C 0.81937 0.68655 0.65086 0.0
C1568 C 0.85475 0.67136 0.69567 0.0
C1569 C 0.82907 0.63654 0.69382 0.0
N1570 N 0.77255 0.59358 0.67247 0.0
N1571 N 0.86964 0.73037 0.68641 0.0
C1572 C 0.79853 0.62654 0.67029 0.0
C1573 C 0.84827 0.69663 0.678 0.0
N1574 N 0.76882 0.64162 0.61627 0.0
N1575 N 0.88578 0.67996 0.71323 0.0
H1576 H 0.86528 0.74927 0.67382 0.0
H1577 H 0.88965 0.73935 0.70901 0.0
H1578 H 0.89157 0.66163 0.72423 0.0
H1579 H 0.90664 0.70452 0.7127 0.0
H1580 H 0.75274 0.61649 0.60672 0.0
H1581 H 0.76456 0.65909 0.59922 0.0
H1582 H 0.74814 0.58559 0.66067 0.0
H1583 H 0.77488 0.57444 0.6884 0.0
C1584 C 0.32562 0.12243 0.66159 0.0
C1585 C 0.29261 0.11875 0.66568 0.0
C1586 C 0.31736 0.173 0.70518 0.0
C1587 C 0.34937 0.17469 0.70502 0.0
N1588 N 0.38299 0.14823 0.69075 0.0
N1589 N 0.25633 0.13778 0.69748 0.0
C1590 C 0.35314 0.14836 0.68596 0.0
C1591 C 0.2883 0.14306 0.69 0.0
N1592 N 0.33162 0.10362 0.63126 0.0
N1593 N 0.31504 0.20059 0.7184 0.0
H1594 H 0.23461 0.11639 0.68555 0.0
H1595 H 0.25123 0.15294 0.71848 0.0
H1596 H 0.33617 0.2234 0.72834 0.0
H1597 H 0.29301 0.20213 0.71533 0.0
H1598 H 0.35589 0.10787 0.62395 0.0
H1599 H 0.31306 0.08622 0.60996 0.0
H1600 H 0.38577 0.12759 0.68169 0.0
H1601 H 0.40423 0.16785 0.70654 0.0
C1602 C 0.84769 0.18582 0.6444 0.0
C1603 C 0.84523 0.15752 0.62102 0.0
C1604 C 0.78599 0.12187 0.64662 0.0
C1605 C 0.78837 0.15032 0.66923 0.0
N1606 N 0.81882 0.21017 0.68558 0.0
N1607 N 0.81166 0.09957 0.5956 0.0
C1608 C 0.81855 0.18256 0.66686 0.0
C1609 C 0.81417 0.1258 0.62086 0.0
N1610 N 0.87786 0.21591 0.64463 0.0
N1611 N 0.75712 0.09088 0.65119 0.0
H1612 H 0.83243 0.10065 0.57911 0.0
H1613 H 0.78892 0.0772 0.5895 0.0
H1614 H 0.73556 0.08784 0.66784 0.0
H1615 H 0.7547 0.06809 0.64002 0.0
H1616 H 0.88295 0.23648 0.66491 0.0
H1617 H 0.89884 0.21999 0.62574 0.0
H1618 H 0.83885 0.23505 0.68305 0.0
H1619 H 0.7975 0.20854 0.70108 0.0
C1620 C 0.01142 0.54031 0.48314 0.0
C1621 C 0.97758 0.51279 0.48668 0.0
C1622 C -0.00149 0.47813 0.52241 0.0
C1623 C 0.03269 0.50503 0.51589 0.0
N1624 N 0.07188 0.55938 0.48432 0.0
N1625 N 0.93827 0.45511 0.50738 0.0
C1626 C 0.03909 0.53549 0.49456 0.0
C1627 C 0.97095 0.48176 0.50637 0.0
N1628 N 0.01675 0.57094 0.46787 0.0
N1629 N 0.9922 0.44945 0.54506 0.0
H1630 H 0.91753 0.45785 0.4986 0.0
H1631 H 0.93168 0.43024 0.51526 0.0
H1632 H 0.01096 0.44359 0.55292 0.0
H1633 H 0.96833 0.43158 0.5571 0.0
H1634 H 0.04034 0.59312 0.46741 0.0
H1635 H -0.00336 0.57459 0.45878 0.0
H1636 H 0.07863 0.58118 0.46574 0.0
H1637 H 0.09238 0.55574 0.49127 0.0
C1638 C 0.47135 0.51318 0.49179 0.0
C1639 C 0.49967 0.53552 0.51821 0.0
C1640 C 0.52026 0.4946 0.51713 0.0
C1641 C 0.49108 0.47174 0.49259 0.0
N1642 N 0.43649 0.45644 0.46137 0.0
N1643 N 0.5494 0.54661 0.56029 0.0
C1644 C 0.46578 0.48019 0.48176 0.0
C1645 C 0.52373 0.526 0.53207 0.0
N1646 N 0.45052 0.52416 0.47496 0.0
N1647 N 0.54527 0.48677 0.52445 0.0
H1648 H 0.5536 0.57035 0.5703 0.0
H1649 H 0.56541 0.53955 0.57579 0.0
H1650 H 0.54246 0.46322 0.51591 0.0
H1651 H 0.56915 0.50386 0.53715 0.0
H1652 H 0.43135 0.51062 0.45189 0.0
H1653 H 0.4543 0.54843 0.48115 0.0
H1654 H 0.41563 0.45955 0.45553 0.0
H1655 H 0.43193 0.43214 0.45343 0.0
C1656 C 0.48878 0.01528 0.46833 0.0
C1657 C 0.51981 0.01521 0.46289 0.0
C1658 C 0.49615 0.96136 0.50386 0.0
C1659 C 0.46478 0.96097 0.50814 0.0
N1660 N 0.42891 0.98377 0.48868 0.0
N1661 N 0.55175 0.98607 0.46878 0.0
C1662 C 0.46037 0.98673 0.48824 0.0
C1663 C 0.52318 0.98764 0.47885 0.0
N1664 N 0.48696 0.04321 0.45543 0.0
N1665 N 0.50026 0.93698 0.52495 0.0
H1666 H 0.57248 0.00542 0.45182 0.0
H1667 H 0.55432 0.96491 0.47499 0.0
H1668 H 0.48018 0.91606 0.54072 0.0
H1669 H 0.5236 0.93809 0.52836 0.0
H1670 H 0.4662 0.04641 0.4617 0.0
H1671 H 0.5076 0.06472 0.44149 0.0
H1672 H 0.42283 -8e-05 0.47154 0.0
H1673 H 0.40795 0.96308 0.50332 0.0
C1674 C 0.45872 0.98261 0.0386 0.0
C1675 C 0.48976 0.98288 0.04545 0.0
C1676 C 0.52011 0.03331 -0.00138 0.0
C1677 C 0.48889 0.03234 0.99074 0.0
N1678 N 0.43184 0.01443 0.01445 0.0
N1679 N 0.55119 0.0138 0.04362 0.0
C1680 C 0.45921 0.00968 0.0145 0.0
C1681 C 0.52092 0.00992 0.02902 0.0
N1682 N 0.42865 0.95567 0.05283 0.0
N1683 N 0.54875 0.05614 0.97615 0.0
H1684 H 0.5527 -0.00234 0.06701 0.0
H1685 H 0.57477 0.03472 0.03593 0.0
H1686 H 0.54956 0.07541 0.95633 0.0
H1687 H 0.5712 0.05521 0.97575 0.0
H1688 H 0.40497 0.95252 0.04456 0.0
H1689 H 0.42714 0.93497 0.06991 0.0
H1690 H 0.41062 0.00073 0.03472 0.0
H1691 H 0.43229 0.03486 -0.00201 0.0
C1692 C 0.97483 0.48345 0.02336 0.0
C1693 C 0.98067 0.46227 0.99456 0.0
C1694 C 0.04212 0.49601 0.01026 0.0
C1695 C 0.03657 0.51925 0.03512 0.0
N1696 N -0.00178 0.53838 0.05938 0.0
N1697 N 0.02092 0.45281 0.95301 0.0
C1698 C 0.00304 0.51391 0.03988 0.0
C1699 C 0.01463 0.46963 0.98611 0.0
N1700 N 0.94221 0.47456 0.03448 0.0
N1701 N 0.07365 0.49915 0.00961 0.0
H1702 H 0.00172 0.4334 0.93423 0.0
H1703 H 0.04531 0.45982 0.9419 0.0
H1704 H 0.09471 0.51935 0.02483 0.0
H1705 H 0.07833 0.48069 0.99632 0.0
H1706 H 0.93614 0.48724 0.05845 0.0
H1707 H 0.92119 0.45244 0.02261 0.0
H1708 H 0.97497 0.53773 0.05955 0.0
H1709 H 0.01813 0.56102 0.07184 0.0
C1710 C 0.4749 0.45686 0.0281 0.0
C1711 C 0.47025 0.48525 0.02348 0.0
C1712 C 0.52553 0.51619 0.98554 0.0
C1713 C 0.53279 0.49001 -0.00274 0.0
N1714 N 0.5149 0.43658 0.03466 0.0
N1715 N 0.49173 0.54305 0.00025 0.0
C1716 C 0.50743 0.46054 0.0197 0.0
C1717 C 0.49567 0.51519 0.00261 0.0
N1718 N 0.44802 0.42639 0.04123 0.0
N1719 N 0.5459 0.54096 0.95622 0.0
H1720 H 0.46934 0.54233 0.0102 0.0
H1721 H 0.51114 0.56702 0.99057 0.0
H1722 H 0.56689 0.54167 0.94139 0.0
H1723 H 0.53991 0.55851 0.94296 0.0
H1724 H 0.44862 0.40377 0.04171 0.0
H1725 H 0.42396 0.4233 0.04731 0.0
H1726 H 0.49865 0.41626 0.05493 0.0
H1727 H 0.53873 0.43877 0.03048 0.0
C1728 C 0.28695 0.23161 0.89864 0.0
C1729 C 0.2977 0.23405 0.9435 0.0
C1730 C 0.35612 0.27272 0.91926 0.0
C1731 C 0.34646 0.26093 0.87525 0.0
N1732 N 0.30192 0.23374 0.82076 0.0
N1733 N 0.34337 0.26092 -0.00262 0.0
C1734 C 0.31153 0.24261 0.86392 0.0
C1735 C 0.33239 0.25672 0.95438 0.0
N1736 N 0.25315 0.21821 0.88968 0.0
N1737 N 0.38851 0.29841 0.92714 0.0
H1738 H 0.32712 0.25102 0.02442 0.0
H1739 H 0.36898 0.2734 0.00621 0.0
H1740 H 0.40596 0.31001 0.90122 0.0
H1741 H 0.39671 0.31028 0.95793 0.0
H1742 H 0.24369 0.2178 0.85801 0.0
H1743 H 0.23504 0.21067 0.91505 0.0
H1744 H 0.27709 0.21648 0.81119 0.0
H1745 H 0.3191 0.24329 0.79444 0.0
C1746 C 0.726 0.07763 0.95803 0.0
C1747 C 0.74179 0.05823 0.94808 0.0
C1748 C 0.73459 0.06354 0.8683 0.0
C1749 C 0.72205 0.08587 0.87826 0.0
N1750 N 0.69476 0.10448 0.93052 0.0
N1751 N 0.75085 0.02337 0.8965 0.0
C1752 C 0.71368 0.08928 0.92261 0.0
C1753 C 0.74208 0.04764 0.90394 0.0
N1754 N 0.72555 0.08734 0.00092 0.0
N1755 N 0.74155 0.05948 0.82523 0.0
H1756 H 0.75658 0.01196 0.9227 0.0
H1757 H 0.74944 0.0125 0.8655 0.0
H1758 H 0.73557 0.07005 0.79838 0.0
H1759 H 0.75429 0.0467 0.81611 0.0
H1760 H 0.71798 0.10469 0.01002 0.0
H1761 H 0.7345 0.07916 0.02736 0.0
H1762 H 0.68552 0.10562 0.96182 0.0
H1763 H 0.68567 0.11311 0.90465 0.0
C1764 C 0.90666 0.63601 0.92904 0.0
C1765 C 0.9044 0.64361 0.88391 0.0
C1766 C 0.94246 0.70385 0.89999 0.0
C1767 C 0.93632 0.69724 0.9462 0.0
N1768 N 0.91609 0.65495 0.00544 0.0
N1769 N 0.91986 0.68582 0.82605 0.0
C1770 C 0.92013 0.66272 0.96116 0.0
C1771 C 0.92268 0.6778 0.86902 0.0
N1772 N 0.89605 0.60315 0.94093 0.0
N1773 N 0.96715 0.73519 0.88591 0.0
H1774 H 0.90589 0.66757 0.80209 0.0
H1775 H 0.92973 0.71078 0.81503 0.0
H1776 H 0.98287 0.75414 0.90834 0.0
H1777 H 0.97446 0.74075 0.85267 0.0
H1778 H 0.89989 0.59608 0.9724 0.0
H1779 H 0.88649 0.58339 0.91771 0.0
H1780 H 0.89932 0.63071 0.01758 0.0
H1781 H 0.92967 0.67227 0.03036 0.0
C1782 C 0.22865 0.29578 0.5788 0.0
C1783 C 0.23481 0.30813 0.53437 0.0
C1784 C 0.26986 0.36625 0.56331 0.0
C1785 C 0.2565 0.35443 0.60645 0.0
N1786 N 0.22481 0.30759 0.65668 0.0
N1787 N 0.26453 0.35542 0.48378 0.0
C1788 C 0.23715 0.31899 0.61488 0.0
C1789 C 0.25722 0.34339 0.52639 0.0
N1790 N 0.21403 0.26161 0.5861 0.0
N1791 N 0.29444 0.39951 0.55797 0.0
H1792 H 0.25734 0.33965 0.45604 0.0
H1793 H 0.27691 0.38116 0.47572 0.0
H1794 H 0.3039 0.41633 0.58482 0.0
H1795 H 0.30759 0.40952 0.52833 0.0
H1796 H 0.21114 0.25081 0.6175 0.0
H1797 H 0.20782 0.24438 0.55998 0.0
H1798 H 0.20689 0.28244 0.66393 0.0
H1799 H 0.23137 0.32371 0.68407 0.0
C1800 C 0.66124 0.86381 0.62544 0.0
C1801 C 0.64422 0.88082 0.64198 0.0
C1802 C 0.66203 0.91451 0.57271 0.0
C1803 C 0.68441 0.90219 0.56245 0.0
N1804 N 0.71382 0.87439 0.59273 0.0
N1805 N 0.63868 0.93101 0.63349 0.0
C1806 C 0.68721 0.88037 0.59374 0.0
C1807 C 0.64755 0.90887 0.61634 0.0
N1808 N 0.65082 0.83069 0.63549 0.0
N1809 N 0.65266 0.9294 0.54081 0.0
H1810 H 0.63281 0.93058 0.66692 0.0
H1811 H 0.64244 0.95253 0.61615 0.0
H1812 H 0.66001 0.93044 0.50778 0.0
H1813 H 0.63451 0.93666 0.54654 0.0
H1814 H 0.66273 0.81812 0.62207 0.0
H1815 H 0.6272 0.81427 0.64956 0.0
H1816 H 0.71645 0.85903 0.6164 0.0
H1817 H 0.73488 0.88792 0.572 0.0
C1818 C 0.06396 0.74871 0.56482 0.0
C1819 C 0.08997 0.77453 0.53759 0.0
C1820 C 0.13245 0.76524 0.574 0.0
C1821 C 0.10822 0.74268 0.60464 0.0
N1822 N 0.04947 0.7049 0.62133 0.0
N1823 N 0.14958 0.81833 0.53878 0.0
C1824 C 0.07334 0.73195 0.59782 0.0
C1825 C 0.1245 0.78589 0.54824 0.0
N1826 N 0.03118 0.74213 0.56195 0.0
N1827 N 0.16407 0.76869 0.57196 0.0
H1828 H 0.14426 0.83701 0.52802 0.0
H1829 H 0.17477 0.82795 0.5487 0.0
H1830 H 0.17043 0.75331 0.59073 0.0
H1831 H 0.18218 0.78421 0.54845 0.0
H1832 H 0.01131 0.7246 0.58169 0.0
H1833 H 0.02404 0.75673 0.54323 0.0
H1834 H 0.02333 0.69374 0.61707 0.0
H1835 H 0.05642 0.69104 0.64166 0.0
C1836 C 0.62105 0.70184 0.06774 0.0
C1837 C 0.631 0.71559 0.11115 0.0
C1838 C 0.69013 0.73837 0.08994 0.0
C1839 C 0.68075 0.73443 0.04486 0.0
N1840 N 0.63689 0.70876 0.9894 0.0
N1841 N 0.67662 0.75345 0.16032 0.0
C1842 C 0.64599 0.71415 0.03314 0.0
C1843 C 0.66602 0.73482 0.12207 0.0
N1844 N 0.5879 0.67816 0.05971 0.0
N1845 N 0.72307 0.7493 0.10105 0.0
H1846 H 0.65991 0.75439 0.1832 0.0
H1847 H 0.70213 0.77073 0.1669 0.0
H1848 H 0.74067 0.75181 0.0768 0.0
H1849 H 0.73133 0.75192 0.13393 0.0
H1850 H 0.57943 0.66547 0.02947 0.0
H1851 H 0.56969 0.66914 0.08505 0.0
H1852 H 0.61175 0.69692 0.97857 0.0
H1853 H 0.65501 0.71718 0.96399 0.0
C1854 C 0.24336 0.95286 0.0969 0.0
C1855 C 0.24259 0.94247 0.05227 0.0
C1856 C 0.27317 0.91332 0.0747 0.0
C1857 C 0.26515 0.91568 0.11952 0.0
N1858 N 0.24541 0.94024 0.17491 0.0
N1859 N 0.25898 0.91415 -0.00252 0.0
C1860 C 0.25197 0.93705 0.13134 0.0
C1861 C 0.2591 0.92398 0.04049 0.0
N1862 N 0.23509 0.9773 0.10592 0.0
N1863 N 0.29364 0.90009 0.06525 0.0
H1864 H 0.25012 0.92216 0.97089 0.0
H1865 H 0.26649 0.89678 0.98827 0.0
H1866 H 0.30427 0.89255 0.09043 0.0
H1867 H 0.3028 0.89995 0.0335 0.0
H1868 H 0.23728 0.98788 0.13733 0.0
H1869 H 0.22936 0.98931 0.08053 0.0
H1870 H 0.2321 0.95222 0.18513 0.0
H1871 H 0.25216 0.92965 0.20094 0.0
C1872 C 0.08935 0.36907 0.066 0.0
C1873 C 0.08913 0.35564 0.10844 0.0
C1874 C 0.06743 0.29924 0.07561 0.0
C1875 C 0.07689 0.31473 0.0331 0.0
N1876 N 0.09072 0.36259 0.98592 0.0
N1877 N 0.07387 0.3076 0.15577 0.0
C1878 C 0.08539 0.34907 0.02765 0.0
C1879 C 0.07599 0.32031 0.11399 0.0
N1880 N 0.09466 0.40135 0.06291 0.0
N1881 N 0.0505 0.26465 0.07892 0.0
H1882 H 0.07879 0.32271 0.18408 0.0
H1883 H 0.06831 0.28281 0.16221 0.0
H1884 H 0.04224 0.24919 0.05075 0.0
H1885 H 0.04143 0.25152 0.10879 0.0
H1886 H 0.0933 0.41247 0.03328 0.0
H1887 H 0.09759 0.41592 0.09122 0.0
H1888 H 0.10046 0.38831 0.97929 0.0
H1889 H 0.08523 0.34746 0.95768 0.0
C1890 C 0.73797 0.65596 0.45352 0.0
C1891 C 0.75979 0.69133 0.44597 0.0
C1892 C 0.76144 0.6812 0.36631 0.0
C1893 C 0.74227 0.64579 0.37461 0.0
N1894 N 0.70291 0.59986 0.42097 0.0
N1895 N 0.78247 0.73829 0.39491 0.0
C1896 C 0.72699 0.63339 0.41656 0.0
C1897 C 0.7678 0.70411 0.40196 0.0
N1898 N 0.73033 0.64367 0.49595 0.0
N1899 N 0.77554 0.69271 0.32526 0.0
H1900 H 0.78702 0.75515 0.42105 0.0
H1901 H 0.78708 0.7494 0.36348 0.0
H1902 H 0.77077 0.67641 0.29834 0.0
H1903 H 0.7931 0.71804 0.31834 0.0
H1904 H 0.71786 0.61789 0.50382 0.0
H1905 H 0.73813 0.65945 0.52366 0.0
H1906 H 0.68874 0.58951 0.44986 0.0
H1907 H 0.69495 0.58317 0.39395 0.0
C1908 C 0.31073 0.0664 0.41869 0.0
C1909 C 0.30468 0.08722 0.44832 0.0
C1910 C 0.34269 0.13676 0.40411 0.0
C1911 C 0.34729 0.11636 0.37198 0.0
N1912 N 0.32149 0.05957 0.34145 0.0
N1913 N 0.30071 0.13853 0.45031 0.0
C1914 C 0.32728 0.08034 0.37698 0.0
C1915 C 0.31592 0.12113 0.4348 0.0
N1916 N 0.30155 0.03399 0.43005 0.0
N1917 N 0.36442 0.17089 0.40765 0.0
H1918 H 0.27865 0.127 0.46949 0.0
H1919 H 0.30737 0.16277 0.43881 0.0
H1920 H 0.38691 0.18357 0.38999 0.0
H1921 H 0.36232 0.18549 0.43296 0.0
H1922 H 0.30766 0.01874 0.41063 0.0
H1923 H 0.29058 0.02397 0.46069 0.0
H1924 H 0.30474 0.0334 0.34293 0.0
H1925 H 0.32964 0.06916 0.3095 0.0
C1926 C 0.93333 0.27734 0.45657 0.0
C1927 C 0.94851 0.25757 0.44592 0.0
C1928 C 0.94086 0.26353 0.36622 0.0
C1929 C 0.91976 0.27719 0.37744 0.0
N1930 N 0.90721 0.30949 0.42923 0.0
N1931 N 0.97904 0.24405 0.39265 0.0
C1932 C 0.9204 0.28878 0.42144 0.0
C1933 C 0.95703 0.25558 0.40111 0.0
N1934 N 0.9288 0.28248 0.50019 0.0
N1935 N 0.94299 0.25559 0.32298 0.0
H1936 H 0.9903 0.23785 0.41856 0.0
H1937 H 0.9881 0.2433 0.36108 0.0
H1938 H 0.9322 0.26215 0.29699 0.0
H1939 H 0.95485 0.24216 0.31287 0.0
H1940 H 0.91474 0.29352 0.51087 0.0
H1941 H 0.93913 0.27508 0.52589 0.0
H1942 H 0.90819 0.32058 0.4599 0.0
H1943 H 0.89773 0.31769 0.40331 0.0
C1944 C 0.03187 0.60461 0.25259 0.0
C1945 C 0.02043 0.59281 0.20901 0.0
C1946 C 0.96173 0.56222 0.23559 0.0
C1947 C 0.97415 0.56674 0.2798 0.0
N1948 N 0.02057 0.59505 0.33175 0.0
N1949 N 0.9749 0.56593 0.15655 0.0
C1950 C 0.00899 0.58968 0.2889 0.0
C1951 C 0.98529 0.57396 0.19963 0.0
N1952 N 0.06502 0.62915 0.2588 0.0
N1953 N 0.92749 0.54658 0.22854 0.0
H1954 H 0.99198 0.57652 0.13013 0.0
H1955 H 0.94999 0.54893 0.14709 0.0
H1956 H 0.91028 0.53907 0.25494 0.0
H1957 H 0.91641 0.54382 0.1974 0.0
H1958 H 0.07489 0.64094 0.2892 0.0
H1959 H 0.08181 0.63986 0.23204 0.0
H1960 H 0.04621 0.60846 0.34026 0.0
H1961 H 0.00453 0.58485 0.35918 0.0
C1962 C 0.38963 0.41018 0.30192 0.0
C1963 C 0.41461 0.40046 0.29803 0.0
C1964 C 0.41222 0.4024 0.21665 0.0
C1965 C 0.392 0.41798 0.22091 0.0
N1966 N 0.35229 0.42628 0.26392 0.0
N1967 N 0.44078 0.37591 0.25396 0.0
C1968 C 0.37722 0.41786 0.26254 0.0
C1969 C 0.4223 0.39209 0.25585 0.0
N1970 N 0.37976 0.4141 0.34338 0.0
N1971 N 0.4238 0.40002 0.17557 0.0
H1972 H 0.44837 0.3687 0.28281 0.0
H1973 H 0.44633 0.36742 0.22469 0.0
H1974 H 0.41574 0.4064 0.14649 0.0
H1975 H 0.44154 0.3923 0.1701 0.0
H1976 H 0.36371 0.42382 0.34956 0.0
H1977 H 0.38819 0.40748 0.37197 0.0
H1978 H 0.33918 0.4257 0.29262 0.0
H1979 H 0.34313 0.43158 0.23492 0.0
C1980 C 0.61126 0.02902 0.22882 0.0
C1981 C 0.60179 0.01887 0.2736 0.0
C1982 C 0.57982 0.95959 0.25087 0.0
C1983 C 0.58004 0.96905 0.20593 0.0
N1984 N 0.59976 0.01361 0.15095 0.0
N1985 N 0.57856 0.97382 0.32832 0.0
C1986 C 0.59797 0.0041 0.19436 0.0
C1987 C 0.58749 0.98401 0.28524 0.0
N1988 N 0.63218 0.0627 0.2195 0.0
N1989 N 0.57065 0.92671 0.26029 0.0
H1990 H 0.584 0.99079 0.35449 0.0
H1991 H 0.56443 0.94841 0.33788 0.0
H1992 H 0.56466 0.90879 0.23502 0.0
H1993 H 0.57229 0.91833 0.29197 0.0
H1994 H 0.64228 0.07184 0.18804 0.0
H1995 H 0.642 0.08106 0.2446 0.0
H1996 H 0.60832 0.03852 0.14079 0.0
H1997 H 0.59157 0.99617 0.125 0.0
C1998 C 0.38968 0.96422 0.74982 0.0
C1999 C 0.40151 0.97409 0.7057 0.0
C2000 C 0.43366 0.03363 0.72954 0.0
C2001 C 0.42835 0.02266 0.77447 0.0
N2002 N 0.39947 0.97782 0.82846 0.0
N2003 N 0.43269 0.01832 0.6519 0.0
C2004 C 0.405 0.98815 0.78504 0.0
C2005 C 0.42214 0.009 0.69482 0.0
N2006 N 0.36426 0.93166 0.75768 0.0
N2007 N 0.45012 0.06767 0.72044 0.0
H2008 H 0.42375 0.00108 0.62556 0.0
H2009 H 0.45119 0.04277 0.64257 0.0
H2010 H 0.45844 0.08594 0.74563 0.0
H2011 H 0.45266 0.07764 0.68856 0.0
H2012 H 0.35242 0.92307 0.78842 0.0
H2013 H 0.35288 0.91412 0.7319 0.0
H2014 H 0.38583 0.95245 0.83827 0.0
H2015 H 0.40995 0.99464 0.85503 0.0
C2016 C 0.97542 0.43017 0.70575 0.0
C2017 C 0.00362 0.42448 0.69982 0.0
C2018 C 0.99226 0.40147 0.77617 0.0
C2019 C 0.96167 0.40288 0.77787 0.0
N2020 N 0.91844 0.4055 0.7339 0.0
N2021 N 0.0291 0.39193 0.72756 0.0
C2022 C 0.95084 0.41137 0.73831 0.0
C2023 C 0.0089 0.40578 0.73418 0.0
N2024 N 0.97383 0.45664 0.68643 0.0
N2025 N 0.00713 0.39887 0.81414 0.0
H2026 H 0.03842 0.39091 0.69638 0.0
H2027 H 0.03198 0.37701 0.75163 0.0
H2028 H -0.0027 0.39829 0.84563 0.0
H2029 H 0.03087 0.40047 0.81411 0.0
H2030 H 0.95326 0.46051 0.69139 0.0
H2031 H 0.99497 0.47885 0.67532 0.0
H2032 H 0.90973 0.41034 0.70419 0.0
H2033 H 0.89995 0.39327 0.75832 0.0
C2034 C 0.57482 0.58455 0.74402 0.0
C2035 C 0.54405 0.56437 0.72022 0.0
C2036 C 0.52461 0.52219 0.77949 0.0
C2037 C 0.55375 0.5433 0.80593 0.0
N2038 N 0.59819 0.60115 0.81813 0.0
N2039 N 0.48409 0.52381 0.72973 0.0
C2040 C 0.57667 0.57653 0.78964 0.0
C2041 C 0.51702 0.53667 0.74301 0.0
N2042 N 0.60231 0.61061 0.7238 0.0
N2043 N 0.50555 0.48784 0.7858 0.0
H2044 H 0.47724 0.53524 0.70479 0.0
H2045 H 0.46372 0.50461 0.74742 0.0
H2046 H 0.51308 0.47411 0.80587 0.0
H2047 H 0.48506 0.47235 0.76522 0.0
H2048 H 0.62599 0.62395 0.73927 0.0
H2049 H 0.60192 0.61684 0.69074 0.0
H2050 H 0.61398 0.62632 0.80828 0.0
H2051 H 0.59579 0.59717 0.8524 0.0
C2052 C 0.21546 0.23999 0.25126 0.0
C2053 C 0.19313 0.21655 0.28319 0.0
C2054 C 0.18928 0.169 0.23861 0.0
C2055 C 0.21249 0.19261 0.20731 0.0
N2056 N 0.25399 0.25028 0.18987 0.0
N2057 N 0.15564 0.15883 0.30622 0.0
C2058 C 0.22727 0.22807 0.21535 0.0
C2059 C 0.17923 0.18097 0.27653 0.0
N2060 N 0.22505 0.27361 0.255 0.0
N2061 N 0.17758 0.1351 0.23207 0.0
H2062 H 0.14656 0.16701 0.33262 0.0
H2063 H 0.14362 0.1325 0.30409 0.0
H2064 H 0.18589 0.12621 0.2056 0.0
H2065 H 0.16124 0.11579 0.25343 0.0
H2066 H 0.23867 0.29167 0.23061 0.0
H2067 H 0.21674 0.28297 0.28088 0.0
H2068 H 0.26801 0.27638 0.19548 0.0
H2069 H 0.26438 0.24156 0.16611 0.0
C2070 C 0.81658 0.01003 0.23482 0.0
C2071 C 0.79043 0.00835 0.20747 0.0
C2072 C 0.74938 0.983 0.2692 0.0
C2073 C 0.77559 0.98416 0.29619 0.0
N2074 N 0.83193 0.9922 0.3029 0.0
N2075 N 0.7327 0.99629 0.19825 0.0
C2076 C 0.80863 0.99594 0.2784 0.0
C2077 C 0.75699 0.99577 0.22463 0.0
N2078 N 0.84928 0.02608 0.21918 0.0
N2079 N 0.71717 0.96896 0.28609 0.0
H2080 H 0.7373 0.00527 0.16565 0.0
H2081 H 0.70829 0.98953 0.20868 0.0
H2082 H 0.71103 0.95891 0.31806 0.0
H2083 H 0.69598 0.96527 0.26833 0.0
H2084 H 0.87032 0.03111 0.2384 0.0
H2085 H 0.85573 0.03727 0.18768 0.0
H2086 H 0.85566 -0.00239 0.29105 0.0
H2087 H 0.8262 0.98047 0.33407 0.0
C2088 C 0.03789 0.8365 0.20944 0.0
C2089 C 0.0085 0.80852 0.18988 0.0
C2090 C 0.99404 0.77868 0.26081 0.0
C2091 C 0.02363 0.80557 0.28064 0.0
N2092 N 0.07484 0.86001 0.27417 0.0
N2093 N 0.95051 0.76547 0.20658 0.0
C2094 C 0.04611 0.83445 0.25496 0.0
C2095 C 0.98409 0.78316 0.21825 0.0
N2096 N 0.0552 0.86643 0.18657 0.0
N2097 N 0.97537 0.7484 0.28248 0.0
H2098 H 0.94093 0.77231 0.17943 0.0
H2099 H 0.93154 0.74814 0.22779 0.0
H2100 H 0.98223 0.74352 0.31347 0.0
H2101 H 0.95542 0.72708 0.26733 0.0
H2102 H 0.076 0.88835 0.19887 0.0
H2103 H 0.04585 0.87114 0.15751 0.0
H2104 H 0.09435 0.88 0.25662 0.0
H2105 H 0.08032 0.86039 0.30784 0.0
C2106 C 0.82967 0.81514 0.73161 0.0
C2107 C 0.80315 0.78838 0.70709 0.0
C2108 C 0.76297 0.77808 0.76845 0.0
C2109 C 0.79007 0.80393 0.79372 0.0
N2110 N 0.84591 0.85309 0.79536 0.0
N2111 N 0.74412 0.74528 0.69976 0.0
C2112 C 0.82246 0.8243 0.77385 0.0
C2113 C 0.76964 0.76998 0.72499 0.0
N2114 N 0.86196 0.83118 0.71464 0.0
N2115 N 0.73096 0.76134 0.78611 0.0
H2116 H 0.74841 0.73718 0.66927 0.0
H2117 H 0.71851 0.73235 0.70824 0.0
H2118 H 0.72478 0.76851 0.81584 0.0
H2119 H 0.71009 0.74058 0.77184 0.0
H2120 H 0.88325 0.84906 0.73203 0.0
H2121 H 0.8679 0.82442 0.68412 0.0
H2122 H 0.86919 0.87092 0.78175 0.0
H2123 H 0.84048 0.86075 0.82558 0.0
C2124 C 0.17579 0.00955 0.77487 0.0
C2125 C 0.17637 0.98101 0.79364 0.0
C2126 C 0.19233 0.96864 0.72149 0.0
C2127 C 0.19639 -0.00043 0.70412 0.0
N2128 N 0.19079 0.04919 0.71314 0.0
N2129 N 0.16334 0.92434 0.7763 0.0
C2130 C 0.18781 0.02003 0.73055 0.0
C2131 C 0.17846 0.95777 0.76466 0.0
N2132 N 0.16017 0.02401 0.79768 0.0
N2133 N 0.20257 0.94997 0.69711 0.0
H2134 H 0.14938 0.91517 0.80567 0.0
H2135 H 0.1603 0.90542 0.75406 0.0
H2136 H 0.21401 0.95764 0.66589 0.0
H2137 H 0.20267 0.9287 0.70979 0.0
H2138 H 0.15682 0.04351 0.78526 0.0
H2139 H 0.14624 0.01319 0.82668 0.0
H2140 H 0.18865 0.06728 0.73193 0.0
H2141 H 0.19747 0.05632 0.68005 0.0
C2142 C 0.95905 0.22479 0.72786 0.0
C2143 C 0.94172 0.19139 0.71084 0.0
C2144 C 0.9528 0.17027 0.78027 0.0
C2145 C 0.97574 0.20455 0.79344 0.0
N2146 N 0.00434 0.26441 0.77558 0.0
N2147 N 0.91745 0.1317 0.72137 0.0
C2148 C 0.97962 0.23189 0.76633 0.0
C2149 C 0.93618 0.16382 0.73816 0.0
N2150 N 0.95828 0.25004 0.70427 0.0
N2151 N 0.94803 0.14399 0.80727 0.0
H2152 H 0.90482 0.12734 0.69093 0.0
H2153 H 0.91487 0.10992 0.73645 0.0
H2154 H 0.96278 0.14743 0.83547 0.0
H2155 H 0.92932 0.11878 0.80223 0.0
H2156 H 0.96818 0.27483 0.71587 0.0
H2157 H 0.94513 0.24499 0.67425 0.0
H2158 H 0.00957 0.28528 0.75583 0.0
H2159 H 0.02236 0.27014 0.80027 0.0
C2160 C 0.84553 0.50803 0.6097 0.0
C2161 C 0.85575 0.5407 0.62819 0.0
C2162 C 0.87843 0.56615 0.55492 0.0
C2163 C 0.87242 0.53408 0.53869 0.0
N2164 N 0.85455 0.4754 0.55272 0.0
N2165 N 0.8867 0.60192 0.61877 0.0
C2166 C 0.85742 0.50533 0.56684 0.0
C2167 C 0.87313 0.57008 0.60083 0.0
N2168 N 0.82342 0.47944 0.63279 0.0
N2169 N 0.8893 0.59309 0.5264 0.0
H2170 H 0.88397 0.60663 0.65192 0.0
H2171 H 0.90318 0.62401 0.60144 0.0
H2172 H 0.89672 0.59255 0.49373 0.0
H2173 H 0.88918 0.61534 0.53451 0.0
H2174 H 0.81284 0.45497 0.61977 0.0
H2175 H 0.81271 0.48049 0.6631 0.0
H2176 H 0.84708 0.45448 0.5735 0.0
H2177 H 0.86263 0.47257 0.5213 0.0
C2178 C 0.48073 0.32524 0.57169 0.0
C2179 C 0.45969 0.33262 0.54391 0.0
C2180 C 0.40948 0.28235 0.57543 0.0
C2181 C 0.42972 0.28012 0.60906 0.0
N2182 N 0.48492 0.29419 0.63534 0.0
N2183 N 0.40289 0.31878 0.52302 0.0
C2184 C 0.46558 0.29935 0.60504 0.0
C2185 C 0.42369 0.31103 0.54648 0.0
N2186 N 0.51526 0.34305 0.56605 0.0
N2187 N 0.37596 0.25791 0.57378 0.0
H2188 H 0.41246 0.34089 0.50448 0.0
H2189 H 0.37649 0.3055 0.52579 0.0
H2190 H 0.36577 0.23765 0.59635 0.0
H2191 H 0.35961 0.25607 0.54829 0.0
H2192 H 0.53186 0.33658 0.5811 0.0
H2193 H 0.52746 0.36405 0.54494 0.0
H2194 H 0.51103 0.31 0.63918 0.0
H2195 H 0.47416 0.27364 0.65731 0.0
C2196 C 0.61917 0.08934 0.56638 0.0
C2197 C 0.63356 0.11696 0.53584 0.0
C2198 C 0.6697 0.15519 0.59542 0.0
C2199 C 0.65566 0.1277 0.62567 0.0
N2200 N 0.60864 0.0718 0.64335 0.0
N2201 N 0.66175 0.17779 0.52634 0.0
C2202 C 0.62776 0.09577 0.61224 0.0
C2203 C 0.6554 0.15046 0.55217 0.0
N2204 N 0.59841 0.05679 0.5521 0.0
N2205 N 0.69675 0.18574 0.6078 0.0
H2206 H 0.64996 0.17493 0.49557 0.0
H2207 H 0.67532 0.20285 0.53746 0.0
H2208 H 0.70739 0.1902 0.63957 0.0
H2209 H 0.71018 0.20569 0.58556 0.0
H2210 H 0.59192 0.03555 0.5719 0.0
H2211 H 0.58864 0.05054 0.52016 0.0
H2212 H 0.58582 0.04978 0.63601 0.0
H2213 H 0.61379 0.07525 0.67719 0.0
C2214 C 0.45853 0.10722 0.10971 0.0
C2215 C 0.46175 0.13801 0.12606 0.0
C2216 C 0.48283 0.1644 0.05293 0.0
C2217 C 0.47767 0.13265 0.03655 0.0
N2218 N 0.48247 0.08449 0.05816 0.0
N2219 N 0.48089 0.19743 0.11596 0.0
C2220 C 0.47159 0.1068 0.06723 0.0
C2221 C 0.47507 0.1672 0.09838 0.0
N2222 N 0.44291 0.07821 0.1347 0.0
N2223 N 0.49696 0.19204 0.02532 0.0
H2224 H 0.47536 0.19987 0.14901 0.0
H2225 H 0.49107 0.22019 0.09849 0.0
H2226 H 0.50738 0.19154 0.99454 0.0
H2227 H 0.49995 0.21569 0.03303 0.0
H2228 H 0.4377 0.05462 0.12233 0.0
H2229 H 0.43221 0.0772 0.16581 0.0
H2230 H 0.4807 0.06636 0.08095 0.0
H2231 H 0.49908 0.08898 0.03183 0.0
C2232 C 0.87683 0.29123 0.09728 0.0
C2233 C 0.85052 0.28798 0.12526 0.0
C2234 C 0.84122 0.32559 0.07502 0.0
C2235 C 0.87052 0.33205 0.04996 0.0
N2236 N 0.91953 0.32511 0.0428 0.0
N2237 N 0.80414 0.29758 0.13892 0.0
C2238 C 0.88927 0.31604 0.06284 0.0
C2239 C 0.83151 0.3038 0.11329 0.0
N2240 N 0.8892 0.26963 0.1031 0.0
N2241 N 0.82298 0.3406 0.06197 0.0
H2242 H 0.79601 0.28014 0.16512 0.0
H2243 H 0.78959 0.30921 0.13475 0.0
H2244 H 0.83099 0.3582 0.03596 0.0
H2245 H 0.8003 0.33604 0.0765 0.0
H2246 H 0.90637 0.26826 0.08136 0.0
H2247 H 0.87922 0.25057 0.12733 0.0
H2248 H 0.93584 0.31658 0.05321 0.0
H2249 H 0.92995 0.34427 0.01918 0.0
C2250 C 0.70046 0.57732 0.09203 0.0
C2251 C 0.70742 0.55349 0.11302 0.0
C2252 C 0.68259 0.51405 0.05075 0.0
C2253 C 0.67329 0.5366 0.03102 0.0
N2254 N 0.67343 0.5899 0.03102 0.0
N2255 N 0.71504 0.50514 0.10806 0.0
C2256 C 0.68241 0.56845 0.051 0.0
C2257 C 0.70182 0.52383 0.09056 0.0
N2258 N 0.71178 0.60855 0.11096 0.0
N2259 N 0.67123 0.48251 0.03272 0.0
H2260 H 0.72974 0.51272 0.13699 0.0
H2261 H 0.71432 0.48441 0.09223 0.0
H2262 H 0.65592 0.47402 0.00441 0.0
H2263 H 0.67443 0.46362 0.04761 0.0
H2264 H 0.70945 0.62815 0.09679 0.0
H2265 H 0.72653 0.61636 0.13957 0.0
H2266 H 0.67558 0.61155 0.04585 0.0
H2267 H 0.66238 0.58563 -0.00039 0.0
C2268 C 0.51177 0.83851 0.91291 0.0
C2269 C 0.54347 0.85725 0.89126 0.0
C2270 C 0.55073 0.90833 0.93171 0.0
C2271 C 0.51617 0.88957 0.94661 0.0
N2272 N 0.46128 0.84085 0.92853 0.0
N2273 N 0.59497 0.9112 0.88269 0.0
C2274 C 0.49587 0.8558 0.93052 0.0
C2275 C 0.56376 0.89258 0.90177 0.0
N2276 N 0.49544 0.80384 0.91315 0.0
N2277 N 0.57075 0.94129 0.94488 0.0
H2278 H 0.60679 0.89981 0.86615 0.0
H2279 H 0.60912 0.93763 0.88375 0.0
H2280 H 0.56081 0.95522 0.95969 0.0
H2281 H 0.59707 0.95483 0.94105 0.0
H2282 H 0.47262 0.78914 0.93027 0.0
H2283 H 0.50673 0.79055 0.90002 0.0
H2284 H 0.446 0.81674 0.91485 0.0
H2285 H 0.4487 0.85449 0.93374 0.0
C2286 C 0.10405 0.60448 0.92142 0.0
C2287 C 0.10906 0.63266 0.94808 0.0
C2288 C 0.14469 0.67109 0.8881 0.0
C2289 C 0.12977 0.64379 0.8586 0.0
N2290 N 0.10897 0.58456 0.84748 0.0
N2291 N 0.1375 0.69498 0.95504 0.0
C2292 C 0.11437 0.61032 0.87577 0.0
C2293 C 0.13088 0.66664 0.93136 0.0
N2294 N 0.0882 0.57242 0.93886 0.0
N2295 N 0.1721 0.70102 0.87476 0.0
H2296 H 0.12917 0.695 0.98699 0.0
H2297 H 0.14975 0.7193 0.94131 0.0
H2298 H 0.18331 0.70349 0.84358 0.0
H2299 H 0.18616 0.7213 0.89629 0.0
H2300 H 0.08512 0.551 0.92222 0.0
H2301 H 0.07837 0.56708 0.97091 0.0
H2302 H 0.09623 0.5589 0.85576 0.0
H2303 H 0.11847 0.58963 0.81498 0.0
C2304 C 0.33668 0.49196 0.93575 0.0
C2305 C 0.35145 0.47316 0.95321 0.0
C2306 C 0.32839 0.43367 0.8905 0.0
C2307 C 0.31383 0.45236 0.87236 0.0
N2308 N 0.30759 0.50191 0.87459 0.0
N2309 N 0.37263 0.43531 0.93712 0.0
C2310 C 0.31906 0.48237 0.8942 0.0
C2311 C 0.35078 0.4468 0.92751 0.0
N2312 N 0.33935 0.51881 0.95962 0.0
N2313 N 0.32081 0.4032 0.87228 0.0
H2314 H 0.39131 0.44651 0.96149 0.0
H2315 H 0.37524 0.41794 0.91725 0.0
H2316 H 0.30407 0.39278 0.84576 0.0
H2317 H 0.32811 0.38689 0.88643 0.0
H2318 H 0.3261 0.53141 0.95229 0.0
H2319 H 0.35473 0.52807 0.98784 0.0
H2320 H 0.31366 0.52602 0.88559 0.0
H2321 H 0.29257 0.49419 0.84596 0.0
C2322 C 0.13916 0.50059 0.42697 0.0
C2323 C 0.11555 0.4728 0.45326 0.0
C2324 C 0.10935 0.43306 0.39345 0.0
C2325 C 0.13079 0.46092 0.36569 0.0
N2326 N 0.16825 0.52115 0.35604 0.0
N2327 N 0.07368 0.41335 0.45932 0.0
C2328 C 0.14637 0.49473 0.38268 0.0
C2329 C 0.09917 0.43929 0.43565 0.0
N2330 N 0.15508 0.5325 0.44513 0.0
N2331 N 0.09972 0.40068 0.38037 0.0
H2332 H 0.06548 0.41711 0.49004 0.0
H2333 H 0.05837 0.38895 0.44673 0.0
H2334 H 0.10819 0.39526 0.351 0.0
H2335 H 0.08662 0.37944 0.40074 0.0
H2336 H 0.17513 0.5538 0.43029 0.0
H2337 H 0.14826 0.53759 0.47618 0.0
H2338 H 0.17774 0.5467 0.36347 0.0
H2339 H 0.17694 0.51732 0.32561 0.0
C2340 C 0.58235 0.70018 0.39418 0.0
C2341 C 0.55127 0.69614 0.37754 0.0
C2342 C 0.52084 0.65992 0.44184 0.0
C2343 C 0.55164 0.66257 0.45695 0.0
N2344 N 0.60996 0.67923 0.44395 0.0
N2345 N 0.49399 0.68264 0.39384 0.0
C2346 C 0.5818 0.68074 0.43167 0.0
C2347 C 0.52131 0.67891 0.40391 0.0
N2348 N 0.61256 0.72485 0.37706 0.0
N2349 N 0.49109 0.63901 0.46363 0.0
H2350 H 0.49497 0.69881 0.36846 0.0
H2351 H 0.47209 0.67309 0.41323 0.0
H2352 H 0.48988 0.62466 0.49133 0.0
H2353 H 0.46723 0.6333 0.452 0.0
H2354 H 0.63619 0.7304 0.38941 0.0
H2355 H 0.61402 0.74343 0.35549 0.0
H2356 H 0.63208 0.68919 0.4249 0.0
H2357 H 0.60972 0.66486 0.47125 0.0
C2358 C 0.32011 0.82672 0.43643 0.0
C2359 C 0.34758 0.85726 0.45447 0.0
C2360 C 0.35253 0.88679 0.38484 0.0
C2361 C 0.32406 0.85718 0.36712 0.0
N2362 N 0.2806 0.79863 0.37489 0.0
N2363 N 0.39979 0.90772 0.43564 0.0
C2364 C 0.30775 0.82689 0.39263 0.0
C2365 C 0.36675 0.88494 0.42583 0.0
N2366 N 0.30758 0.79732 0.46051 0.0
N2367 N 0.36581 0.91705 0.36271 0.0
H2368 H 0.41252 0.90282 0.46072 0.0
H2369 H 0.4158 0.92753 0.41448 0.0
H2370 H 0.35567 0.91969 0.33293 0.0
H2371 H 0.38441 0.94 0.37634 0.0
H2372 H 0.28785 0.77381 0.45035 0.0
H2373 H 0.31925 0.79603 0.48978 0.0
H2374 H 0.26616 0.77583 0.39179 0.0
H2375 H 0.27138 0.79844 0.34305 0.0
C2376 C 0.30741 0.3124 0.03004 0.0
C2377 C 0.30043 0.29004 0.06604 0.0
C2378 C 0.33131 0.33696 0.11707 0.0
C2379 C 0.33515 0.35957 0.08231 0.0
N2380 N 0.34283 0.37008 0.00339 0.0
N2381 N 0.32264 0.28103 0.13385 0.0
C2382 C 0.3291 0.34759 0.03769 0.0
C2383 C 0.31874 0.30249 0.10608 0.0
N2384 N 0.29151 0.30054 0.99019 0.0
N2385 N 0.33586 0.34705 0.16039 0.0
H2386 H 0.3137 0.25569 0.12501 0.0
H2387 H 0.33727 0.28932 0.16273 0.0
H2388 H 0.34212 0.3715 0.16974 0.0
H2389 H 0.33043 0.33021 0.18683 0.0
H2390 H 0.29354 0.31644 0.96394 0.0
H2391 H 0.27498 0.2747 0.98459 0.0
H2392 H 0.34077 0.36257 0.97022 0.0
H2393 H 0.35925 0.39592 0.00935 0.0
C2394 C 0.63141 0.91222 0.04595 0.0
C2395 C 0.61404 0.93026 0.05461 0.0
C2396 C 0.66803 0.98401 0.05516 0.0
C2397 C 0.68523 0.96614 0.04463 0.0
N2398 N 0.68259 0.91509 0.01696 0.0
N2399 N 0.61495 0.98389 0.05018 0.0
C2400 C 0.66653 0.93081 0.03537 0.0
C2401 C 0.63204 0.96639 0.05381 0.0
N2402 N 0.61503 0.87763 0.0503 0.0
N2403 N 0.68561 0.01694 0.06943 0.0
H2404 H 0.58859 0.97182 0.04681 0.0
H2405 H 0.62729 0.01018 0.0457 0.0
H2406 H 0.712 0.03041 0.07252 0.0
H2407 H 0.67365 0.02974 0.08187 0.0
H2408 H 0.62754 0.86369 0.04863 0.0
H2409 H 0.5896 0.86315 0.05987 0.0
H2410 H 0.66972 0.88991 0.00616 0.0
H2411 H 0.70833 0.92842 0.00828 0.0
C2412 C 0.0038 0.68725 0.0629 0.0
C2413 C 0.00313 0.70952 0.09566 0.0
C2414 C 0.02752 0.6875 0.15031 0.0
C2415 C 0.03077 0.66798 0.11633 0.0
N2416 N 0.00908 0.63756 0.04799 0.0
N2417 N 0.00353 0.72202 0.17416 0.0
C2418 C 0.01376 0.66346 0.07551 0.0
C2419 C 0.01097 0.70642 0.14081 0.0
N2420 N -0.00306 0.6901 0.01937 0.0
N2421 N 0.04208 0.6893 0.19065 0.0
H2422 H 0.99136 0.73582 0.1685 0.0
H2423 H 0.00646 0.71864 0.20779 0.0
H2424 H 0.05297 0.67432 0.19788 0.0
H2425 H 0.04431 0.706 0.21587 0.0
H2426 H 0.00075 0.67709 0.99351 0.0
H2427 H 0.98929 0.70702 0.00861 0.0
H2428 H 0.99476 0.63137 0.01888 0.0
H2429 H 0.01665 0.62016 0.05713 0.0
C2430 C 0.35037 0.3318 0.44128 0.0
C2431 C 0.36685 0.32981 0.40248 0.0
C2432 C 0.31266 0.30289 0.36423 0.0
C2433 C 0.29612 0.29474 0.40636 0.0
N2434 N 0.30018 0.30106 0.48649 0.0
N2435 N 0.36446 0.31659 0.32452 0.0
C2436 C 0.31499 0.30977 0.44545 0.0
C2437 C 0.34836 0.31696 0.36272 0.0
N2438 N 0.36847 0.35489 0.47351 0.0
N2439 N 0.29407 0.29668 0.32618 0.0
H2440 H 0.39079 0.32712 0.32274 0.0
H2441 H 0.35156 0.30443 0.29552 0.0
H2442 H 0.26787 0.28725 0.32704 0.0
H2443 H 0.305 0.30419 0.29471 0.0
H2444 H 0.35709 0.35868 0.50143 0.0
H2445 H 0.39421 0.37265 0.46915 0.0
H2446 H 0.31414 0.30956 0.51588 0.0
H2447 H 0.27466 0.28304 0.49115 0.0
C2448 C 0.67445 0.0037 0.48134 0.0
C2449 C 0.68235 0.98412 0.45269 0.0
C2450 C 0.6598 -0.00027 0.38886 0.0
C2451 C 0.65544 0.02233 0.41658 0.0
N2452 N 0.64486 0.03523 0.49064 0.0
N2453 N 0.66875 0.95141 0.38555 0.0
C2454 C 0.6575 0.02008 0.46358 0.0
C2455 C 0.6692 0.97732 0.40884 0.0
N2456 N 0.68616 0.00922 0.52406 0.0
N2457 N 0.65842 0.00198 0.34376 0.0
H2458 H 0.6774 0.93618 0.39974 0.0
H2459 H 0.6571 0.9435 0.35457 0.0
H2460 H 0.653 0.01936 0.32858 0.0
H2461 H 0.66468 0.9882 0.32179 0.0
H2462 H 0.68463 0.02647 0.54545 0.0
H2463 H 0.69881 0.99727 0.5371 0.0
H2464 H 0.64382 0.03282 0.52516 0.0
H2465 H 0.63248 0.04741 0.47769 0.0
C2466 C 0.00939 0.67958 0.4437 0.0
C2467 C 0.01337 0.70159 0.40861 0.0
C2468 C 0.98485 0.65372 0.35733 0.0
C2469 C 0.97258 0.63234 0.39507 0.0
N2470 N 0.97598 0.6227 0.47348 0.0
N2471 N 0.01872 0.71171 0.32988 0.0
C2472 C 0.98658 0.64442 0.43797 0.0
C2473 C 0.00639 0.6891 0.36435 0.0
N2474 N 0.02754 0.69247 0.48173 0.0
N2475 N 0.97324 0.64062 0.31593 0.0
H2476 H 0.03346 0.73783 0.33551 0.0
H2477 H 0.01582 0.70499 0.29643 0.0
H2478 H 0.95667 0.61475 0.31069 0.0
H2479 H 0.97947 0.65496 0.28689 0.0
H2480 H 0.02724 0.67764 0.50834 0.0
H2481 H 0.04631 0.71795 0.48342 0.0
H2482 H 0.9823 0.63066 0.50632 0.0
H2483 H 0.95956 0.59657 0.47004 0.0
C2484 C 0.68361 0.64839 0.85698 0.0
C2485 C 0.65881 0.62572 0.88694 0.0
C2486 C 0.68162 0.66761 0.9465 0.0
C2487 C 0.70807 0.68983 0.91767 0.0
N2488 N 0.72922 0.70544 0.84209 0.0
N2489 N 0.6254 0.61802 0.95201 0.0
C2490 C 0.7073 0.68163 0.8716 0.0
C2491 C 0.65459 0.63727 0.92873 0.0
N2492 N 0.68576 0.63682 0.8158 0.0
N2493 N 0.68373 0.67395 0.99113 0.0
H2494 H 0.60566 0.59613 0.93794 0.0
H2495 H 0.61962 0.62574 0.98182 0.0
H2496 H 0.70471 0.69472 0.00556 0.0
H2497 H 0.66618 0.65716 0.01413 0.0
H2498 H 0.70583 0.65011 0.79371 0.0
H2499 H 0.66742 0.61271 0.80469 0.0
H2500 H 0.72888 0.70129 0.80801 0.0
H2501 H 0.74609 0.73051 0.85095 0.0
C2502 C 0.3041 0.00682 0.86403 0.0
C2503 C 0.29586 0.00125 0.91025 0.0
C2504 C 0.35144 0.00777 0.92399 0.0
C2505 C 0.36254 0.02497 0.88313 0.0
N2506 N 0.34962 0.03515 0.80973 0.0
N2507 N 0.31236 0.99573 0.98489 0.0
C2508 C 0.33864 0.02166 0.85108 0.0
C2509 C 0.31921 0.00021 0.94044 0.0
N2510 N 0.27911 -0.00131 0.83321 0.0
N2511 N 0.37285 0.00109 0.94783 0.0
H2512 H 0.29009 0.99313 -0.00155 0.0
H2513 H 0.33004 -0.00242 0.00844 0.0
H2514 H 0.39667 0.00719 0.93507 0.0
H2515 H 0.36536 0.98651 0.97681 0.0
H2516 H 0.28339 0.00015 0.79901 0.0
H2517 H 0.25351 0.98747 0.84202 0.0
H2518 H 0.33407 0.03715 0.78592 0.0
H2519 H 0.37504 0.04525 0.80028 0.0
C2520 C 0.98689 0.331 0.8835 0.0
C2521 C 0.97672 0.34597 0.91674 0.0
C2522 C 0.00294 0.32878 0.97403 0.0
C2523 C 0.01053 0.31143 0.94126 0.0
N2524 N 0.02527 0.31079 0.86446 0.0
N2525 N 0.9891 0.37285 0.98862 0.0
C2526 C 0.00848 0.31832 0.8958 0.0
C2527 C 0.9904 0.35021 0.96018 0.0
N2528 N 0.97315 0.32534 0.84186 0.0
N2529 N 0.00451 0.32232 0.01796 0.0
H2530 H 0.97779 0.38703 0.9794 0.0
H2531 H 0.00091 0.37869 0.01966 0.0
H2532 H 0.01226 0.3054 0.02859 0.0
H2533 H 0.99619 0.33216 0.04313 0.0
H2534 H 0.97718 0.31099 0.81806 0.0
H2535 H 0.95635 0.3335 0.83218 0.0
H2536 H 0.02744 0.31922 0.83171 0.0
H2537 H 0.03999 0.29989 0.8727 0.0
C2538 C 0.67715 0.67238 0.5864 0.0
C2539 C 0.68987 0.70374 0.56379 0.0
C2540 C 0.64175 0.70759 0.58927 0.0
C2541 C 0.62525 0.67381 0.60696 0.0
N2542 N 0.62717 0.62038 0.60733 0.0
N2543 N 0.67601 0.74254 0.52832 0.0
C2544 C 0.64242 0.65461 0.60028 0.0
C2545 C 0.66809 0.717 0.55804 0.0
N2546 N 0.69852 0.66081 0.59824 0.0
N2547 N 0.6372 0.73267 0.60699 0.0
H2548 H 0.69662 0.75072 0.50652 0.0
H2549 H 0.66019 0.7528 0.52341 0.0
H2550 H 0.62496 0.73015 0.63726 0.0
H2551 H 0.65038 0.75763 0.59514 0.0
H2552 H 0.69112 0.63993 0.61917 0.0
H2553 H 0.72426 0.67401 0.5902 0.0
H2554 H 0.63924 0.60665 0.59931 0.0
H2555 H 0.60202 0.60466 0.61618 0.0
C2556 C 0.32037 0.96268 0.52916 0.0
C2557 C 0.32939 0.96119 0.57396 0.0
C2558 C 0.30667 -0.00224 0.59539 0.0
C2559 C 0.28991 0.99117 0.55347 0.0
N2560 N 0.27713 0.96256 0.48255 0.0
N2561 N 0.33244 0.9785 0.65028 0.0
C2562 C 0.29647 0.97321 0.52024 0.0
C2563 C 0.32406 0.98012 0.60711 0.0
N2564 N 0.33271 0.9515 0.49576 0.0
N2565 N 0.30357 0.01881 0.62507 0.0
H2566 H 0.34478 0.96542 0.6597 0.0
H2567 H 0.32564 0.98848 0.67699 0.0
H2568 H 0.28865 0.02977 0.61848 0.0
H2569 H 0.31746 0.02714 0.65448 0.0
H2570 H 0.3288 0.95417 0.46216 0.0
H2571 H 0.3494 0.94246 0.50199 0.0
H2572 H 0.27856 0.94616 0.45951 0.0
H2573 H 0.2577 0.9679 0.47619 0.0
C2574 C 0.02643 0.34906 0.56288 0.0
C2575 C 0.04644 0.36317 0.60138 0.0
C2576 C 0.03713 0.30724 0.6215 0.0
C2577 C 0.02358 0.29498 0.57806 0.0
N2578 N 0.01281 0.30804 0.5042 0.0
N2579 N 0.07431 0.35673 0.66556 0.0
C2580 C 0.01982 0.31679 0.54792 0.0
C2581 C 0.05258 0.34251 0.63049 0.0
N2582 N 0.01502 0.36724 0.53981 0.0
N2583 N 0.03416 0.28548 0.65481 0.0
H2584 H 0.08521 0.38242 0.6738 0.0
H2585 H 0.08308 0.34349 0.68455 0.0
H2586 H 0.02069 0.25923 0.6516 0.0
H2587 H 0.04166 0.29339 0.68743 0.0
H2588 H -0.00161 0.35722 0.51294 0.0
H2589 H 0.01976 0.39107 0.55072 0.0
H2590 H 0.01244 0.32442 0.4802 0.0
H2591 H 0.01158 0.28615 0.49125 0.0
C2592 C 0.98258 0.65822 0.78229 0.0
C2593 C 0.96315 0.62862 0.75668 0.0
C2594 C 0.01237 0.64425 0.70873 0.0
C2595 C 0.0314 0.67468 0.73356 0.0
N2596 N 0.02983 0.71603 0.78214 0.0
N2597 N 0.95616 0.60231 0.68436 0.0
C2598 C 0.01438 0.68378 0.76551 0.0
C2599 C 0.97685 0.62482 0.71586 0.0
N2600 N 0.97309 0.66026 0.82456 0.0
N2601 N 0.0278 0.63185 0.68162 0.0
H2602 H 0.96507 0.60036 0.65309 0.0
H2603 H 0.92975 0.58877 0.68765 0.0
H2604 H 0.05381 0.64434 0.67548 0.0
H2605 H 0.01464 0.60765 0.66751 0.0
H2606 H 0.98815 0.68044 0.84576 0.0
H2607 H 0.95246 0.63966 0.83971 0.0
H2608 H 0.01755 0.72427 0.80395 0.0
H2609 H 0.05345 0.73496 0.7703 0.0
C2610 C 0.34159 0.31964 0.71135 0.0
C2611 C 0.35273 0.32014 0.75554 0.0
C2612 C 0.31215 0.33627 0.78048 0.0
C2613 C 0.31198 0.34835 0.73712 0.0
N2614 N 0.32484 0.34899 0.65913 0.0
N2615 N 0.34737 0.32816 0.8337 0.0
C2616 C 0.32528 0.33843 0.70143 0.0
C2617 C 0.33697 0.32728 0.79097 0.0
N2618 N 0.34659 0.3013 0.67948 0.0
N2619 N 0.28994 0.33538 0.8116 0.0
H2620 H 0.36706 0.32356 0.84155 0.0
H2621 H 0.33814 0.33589 0.86037 0.0
H2622 H 0.27183 0.34227 0.80353 0.0
H2623 H 0.28777 0.32507 0.84325 0.0
H2624 H 0.33779 0.2991 0.64694 0.0
H2625 H 0.35501 0.28449 0.68804 0.0
H2626 H 0.33747 0.3451 0.63276 0.0
H2627 H 0.31337 0.36321 0.65124 0.0
C2628 C 0.64963 0.00567 0.79019 0.0
C2629 C 0.64884 0.02605 0.75534 0.0
C2630 C 0.61594 0.97564 0.70929 0.0
C2631 C 0.61687 0.9555 0.74436 0.0
N2632 N 0.64762 0.95291 0.80766 0.0
N2633 N 0.64405 0.03169 0.6761 0.0
C2634 C 0.63849 0.97122 0.78115 0.0
C2635 C 0.63643 0.01141 0.71275 0.0
N2636 N 0.65745 0.0178 0.83256 0.0
N2637 N 0.59438 0.96101 0.67424 0.0
H2638 H 0.6603 0.05798 0.67779 0.0
H2639 H 0.6373 0.02203 0.64393 0.0
H2640 H 0.57929 0.93469 0.67084 0.0
H2641 H 0.59046 0.97515 0.65006 0.0
H2642 H 0.65572 0.00255 0.85952 0.0
H2643 H 0.66207 0.04194 0.84116 0.0
H2644 H 0.66515 0.96374 0.83351 0.0
H2645 H 0.64025 0.92786 0.79972 0.0
C2646 C 0.35348 0.01443 0.30423 0.0
C2647 C 0.36397 0.03885 0.26997 0.0
C2648 C 0.33881 0.99448 0.21326 0.0
C2649 C 0.33147 0.97028 0.24718 0.0
N2650 N 0.31998 0.95493 0.32457 0.0
N2651 N 0.35869 0.05333 0.19445 0.0
C2652 C 0.33434 0.9796 0.29271 0.0
C2653 C 0.35288 0.02904 0.22547 0.0
N2654 N 0.36438 0.02448 0.3468 0.0
N2655 N 0.33592 0.98503 0.1696 0.0
H2656 H 0.37209 0.07918 0.20196 0.0
H2657 H 0.34855 0.04787 0.16247 0.0
H2658 H 0.32673 0.95993 0.15985 0.0
H2659 H 0.34432 0.00207 0.14309 0.0
H2660 H 0.36098 0.00768 0.37251 0.0
H2661 H 0.37799 0.0501 0.35584 0.0
H2662 H 0.31904 0.96004 0.35816 0.0
H2663 H 0.30652 0.92913 0.31647 0.0
C2664 C 0.97023 0.32567 0.20071 0.0
C2665 C 0.95872 0.32968 0.24291 0.0
C2666 C 0.0172 0.35967 0.2683 0.0
C2667 C 0.02791 0.36553 0.22321 0.0
N2668 N 0.01486 0.3526 0.14575 0.0
N2669 N 0.9714 0.34895 0.31896 0.0
C2670 C 0.00472 0.34723 0.18909 0.0
C2671 C 0.98214 0.34524 0.27799 0.0
N2672 N 0.94795 0.30172 0.17194 0.0
N2673 N 0.04092 0.37001 0.30127 0.0
H2674 H 0.94584 0.33963 0.3265 0.0
H2675 H 0.98799 0.36315 0.34446 0.0
H2676 H 0.06678 0.38102 0.29393 0.0
H2677 H 0.03468 0.36462 0.33481 0.0
H2678 H 0.95548 0.29617 0.14179 0.0
H2679 H 0.92283 0.28496 0.18127 0.0
H2680 H -0.00217 0.34246 0.11936 0.0
H2681 H 0.04003 0.3691 0.13663 0.0
C2682 C 0.60606 0.61573 0.25913 0.0
C2683 C 0.6189 0.65026 0.24734 0.0
C2684 C 0.67691 0.65971 0.24934 0.0
C2685 C 0.66368 0.62587 0.26409 0.0
N2686 N 0.61762 0.57561 0.29673 0.0
N2687 N 0.66713 0.70703 0.24105 0.0
C2688 C 0.62885 0.60537 0.274 0.0
C2689 C 0.65459 0.67293 0.245 0.0
N2690 N 0.57229 0.59247 0.25405 0.0
N2691 N 0.71063 0.67888 0.23922 0.0
H2692 H 0.65127 0.71734 0.24018 0.0
H2693 H 0.69293 0.72503 0.24276 0.0
H2694 H 0.72761 0.67036 0.24604 0.0
H2695 H 0.72125 0.70231 0.22309 0.0
H2696 H 0.5623 0.56644 0.2588 0.0
H2697 H 0.55505 0.59867 0.24012 0.0
H2698 H 0.59258 0.5607 0.30762 0.0
H2699 H 0.63439 0.56813 0.30894 0.0
loop_
_geom_bond_atom_site_label_1
_geom_bond_atom_site_label_2
_geom_bond_distance
_geom_bond_site_symmetry_2
_ccdc_geom_bond_type
Zn0 O6 1.920 1_554 S
Zn0 O12 1.898 . S
Zn0 O15 1.905 . S
Zn1 O9 1.905 . S
Zn1 O10 1.898 . S
Zn1 O18 1.920 . S
Zn2 O5 2.080 . S
Zn2 O8 2.114 . S
Zn2 O11 2.120 . S
Zn2 O13 2.120 . S
Zn2 O14 2.114 . S
Zn2 O17 2.080 . S
C3 O8 1.166 . S
C3 O9 1.182 . S
C4 O10 1.167 . S
C4 O11 1.299 . S
O5 Zn2 2.080 . S
O5 C19 1.305 1_554 S
O6 Zn0 1.920 1_556 S
O6 C19 1.234 . S
C7 O12 1.167 . S
C7 O13 1.299 . S
O8 Zn2 2.114 . S
O8 C3 1.166 . S
O9 Zn1 1.905 . S
O9 C3 1.182 . S
O10 Zn1 1.898 . S
O10 C4 1.167 . S
O11 Zn2 2.120 . S
O11 C4 1.299 . S
O12 Zn0 1.898 . S
O12 C7 1.167 . S
O13 Zn2 2.120 . S
O13 C7 1.299 . S
O14 Zn2 2.114 . S
O14 C16 1.166 . S
O15 Zn0 1.905 . S
O15 C16 1.182 . S
C16 O14 1.166 . S
C16 O15 1.182 . S
O17 Zn2 2.080 . S
O17 C20 1.305 . S
O18 Zn1 1.920 . S
O18 C20 1.234 . S
C19 O5 1.305 1_556 S
C19 O6 1.234 . S
C20 O17 1.305 . S
C20 O18 1.234 . S
Zn21 O27 1.920 1_554 S
Zn21 O33 1.898 . S
Zn21 O36 1.905 . S
Zn22 O30 1.905 . S
Zn22 O31 1.898 . S
Zn22 O39 1.920 . S
Zn23 O26 2.080 . S
Zn23 O29 2.114 . S
Zn23 O32 2.120 . S
Zn23 O34 2.120 . S
Zn23 O35 2.114 . S
Zn23 O38 2.080 . S
C24 O29 1.166 . S
C24 O30 1.182 1_545 S
C25 O31 1.167 . S
C25 O32 1.299 1_565 S
O26 Zn23 2.080 . S
O26 C40 1.305 1_554 S
O27 Zn21 1.920 1_556 S
O27 C40 1.234 . S
C28 O33 1.167 . S
C28 O34 1.299 . S
O29 Zn23 2.114 . S
O29 C24 1.166 . S
O30 Zn22 1.905 . S
O30 C24 1.182 1_565 S
O31 Zn22 1.898 . S
O31 C25 1.167 . S
O32 Zn23 2.120 . S
O32 C25 1.299 1_545 S
O33 Zn21 1.898 . S
O33 C28 1.167 . S
O34 Zn23 2.120 . S
O34 C28 1.299 . S
O35 Zn23 2.114 . S
O35 C37 1.166 . S
O36 Zn21 1.905 . S
O36 C37 1.182 . S
C37 O35 1.166 . S
C37 O36 1.182 . S
O38 Zn23 2.080 . S
O38 C41 1.305 1_545 S
O39 Zn22 1.920 . S
O39 C41 1.234 . S
C40 O26 1.305 1_556 S
C40 O27 1.234 . S
C41 O38 1.305 1_565 S
C41 O39 1.234 . S
Zn42 O48 1.920 1_554 S
Zn42 O54 1.898 . S
Zn42 O57 1.905 . S
Zn43 O51 1.905 . S
Zn43 O52 1.898 . S
Zn43 O60 1.920 . S
Zn44 O47 2.080 . S
Zn44 O50 2.114 . S
Zn44 O53 2.120 . S
Zn44 O55 2.120 . S
Zn44 O56 2.114 . S
Zn44 O59 2.080 . S
C45 O50 1.166 . S
C45 O51 1.182 1_655 S
C46 O52 1.167 . S
C46 O53 1.299 1_455 S
O47 Zn44 2.080 . S
O47 C61 1.305 1_554 S
O48 Zn42 1.920 1_556 S
O48 C61 1.234 . S
C49 O54 1.167 . S
C49 O55 1.299 . S
O50 Zn44 2.114 . S
O50 C45 1.166 . S
O51 Zn43 1.905 . S
O51 C45 1.182 1_455 S
O52 Zn43 1.898 . S
O52 C46 1.167 . S
O53 Zn44 2.120 . S
O53 C46 1.299 1_655 S
O54 Zn42 1.898 . S
O54 C49 1.167 . S
O55 Zn44 2.120 . S
O55 C49 1.299 . S
O56 Zn44 2.114 . S
O56 C58 1.166 . S
O57 Zn42 1.905 . S
O57 C58 1.182 . S
C58 O56 1.166 . S
C58 O57 1.182 . S
O59 Zn44 2.080 . S
O59 C62 1.305 1_655 S
O60 Zn43 1.920 . S
O60 C62 1.234 . S
C61 O47 1.305 1_556 S
C61 O48 1.234 . S
C62 O59 1.305 1_455 S
C62 O60 1.234 . S
Zn63 O69 1.920 . S
Zn63 O75 1.898 . S
Zn63 O78 1.905 . S
Zn64 O72 1.905 . S
Zn64 O73 1.898 . S
Zn64 O81 1.920 . S
Zn65 O68 2.080 . S
Zn65 O71 2.114 . S
Zn65 O74 2.120 . S
Zn65 O76 2.120 . S
Zn65 O77 2.114 . S
Zn65 O80 2.080 . S
C66 O71 1.166 . S
C66 O72 1.182 . S
C67 O73 1.167 . S
C67 O74 1.299 . S
O68 Zn65 2.080 . S
O68 C82 1.305 . S
O69 Zn63 1.920 . S
O69 C82 1.234 . S
C70 O75 1.167 . S
C70 O76 1.299 . S
O71 Zn65 2.114 . S
O71 C66 1.166 . S
O72 Zn64 1.905 . S
O72 C66 1.182 . S
O73 Zn64 1.898 . S
O73 C67 1.167 . S
O74 Zn65 2.120 . S
O74 C67 1.299 . S
O75 Zn63 1.898 . S
O75 C70 1.167 . S
O76 Zn65 2.120 . S
O76 C70 1.299 . S
O77 Zn65 2.114 . S
O77 C79 1.166 . S
O78 Zn63 1.905 . S
O78 C79 1.182 . S
C79 O77 1.166 . S
C79 O78 1.182 . S
O80 Zn65 2.080 . S
O80 C83 1.305 . S
O81 Zn64 1.920 . S
O81 C83 1.234 . S
C82 O68 1.305 . S
C82 O69 1.234 . S
C83 O80 1.305 . S
C83 O81 1.234 . S
Zn84 O90 1.920 . S
Zn84 O96 1.898 . S
Zn84 O99 1.905 . S
Zn85 O93 1.905 . S
Zn85 O94 1.898 . S
Zn85 O102 1.920 . S
Zn86 O89 2.080 . S
Zn86 O92 2.114 . S
Zn86 O95 2.120 . S
Zn86 O97 2.120 . S
Zn86 O98 2.114 . S
Zn86 O101 2.080 . S
C87 O92 1.166 . S
C87 O93 1.182 . S
C88 O94 1.167 . S
C88 O95 1.299 . S
O89 Zn86 2.080 . S
O89 C103 1.305 1_565 S
O90 Zn84 1.920 . S
O90 C103 1.234 . S
C91 O96 1.167 . S
C91 O97 1.299 1_545 S
O92 Zn86 2.114 . S
O92 C87 1.166 . S
O93 Zn85 1.905 . S
O93 C87 1.182 . S
O94 Zn85 1.898 . S
O94 C88 1.167 . S
O95 Zn86 2.120 . S
O95 C88 1.299 . S
O96 Zn84 1.898 . S
O96 C91 1.167 . S
O97 Zn86 2.120 . S
O97 C91 1.299 1_565 S
O98 Zn86 2.114 . S
O98 C100 1.166 . S
O99 Zn84 1.905 . S
O99 C100 1.182 1_545 S
C100 O98 1.166 . S
C100 O99 1.182 1_565 S
O101 Zn86 2.080 . S
O101 C104 1.305 . S
O102 Zn85 1.920 . S
O102 C104 1.234 . S
C103 O89 1.305 1_545 S
C103 O90 1.234 . S
C104 O101 1.305 . S
C104 O102 1.234 . S
Zn105 O111 1.920 . S
Zn105 O117 1.898 . S
Zn105 O120 1.905 . S
Zn106 O114 1.905 . S
Zn106 O115 1.898 . S
Zn106 O123 1.920 . S
Zn107 O110 2.080 . S
Zn107 O113 2.114 . S
Zn107 O116 2.120 . S
Zn107 O118 2.120 . S
Zn107 O119 2.114 . S
Zn107 O122 2.080 . S
C108 O113 1.166 . S
C108 O114 1.182 . S
C109 O115 1.167 . S
C109 O116 1.299 . S
O110 Zn107 2.080 . S
O110 C124 1.305 1_455 S
O111 Zn105 1.920 . S
O111 C124 1.234 . S
C112 O117 1.167 . S
C112 O118 1.299 1_655 S
O113 Zn107 2.114 . S
O113 C108 1.166 . S
O114 Zn106 1.905 . S
O114 C108 1.182 . S
O115 Zn106 1.898 . S
O115 C109 1.167 . S
O116 Zn107 2.120 . S
O116 C109 1.299 . S
O117 Zn105 1.898 . S
O117 C112 1.167 . S
O118 Zn107 2.120 . S
O118 C112 1.299 1_455 S
O119 Zn107 2.114 . S
O119 C121 1.166 . S
O120 Zn105 1.905 . S
O120 C121 1.182 1_655 S
C121 O119 1.166 . S
C121 O120 1.182 1_455 S
O122 Zn107 2.080 . S
O122 C125 1.305 . S
O123 Zn106 1.920 . S
O123 C125 1.234 . S
C124 O110 1.305 1_655 S
C124 O111 1.234 . S
C125 O122 1.305 . S
C125 O123 1.234 . S
Zn126 O132 1.920 1_556 S
Zn126 O138 1.898 . S
Zn126 O141 1.905 . S
Zn127 O135 1.905 . S
Zn127 O136 1.898 . S
Zn127 O144 1.920 . S
Zn128 O131 2.080 . S
Zn128 O134 2.114 . S
Zn128 O137 2.120 . S
Zn128 O139 2.120 . S
Zn128 O140 2.114 . S
Zn128 O143 2.080 . S
C129 O134 1.166 . S
C129 O135 1.182 . S
C130 O136 1.167 . S
C130 O137 1.299 . S
O131 Zn128 2.080 . S
O131 C145 1.305 1_556 S
O132 Zn126 1.920 1_554 S
O132 C145 1.234 . S
C133 O138 1.167 . S
C133 O139 1.299 . S
O134 Zn128 2.114 . S
O134 C129 1.166 . S
O135 Zn127 1.905 . S
O135 C129 1.182 . S
O136 Zn127 1.898 . S
O136 C130 1.167 . S
O137 Zn128 2.120 . S
O137 C130 1.299 . S
O138 Zn126 1.898 . S
O138 C133 1.167 . S
O139 Zn128 2.120 . S
O139 C133 1.299 . S
O140 Zn128 2.114 . S
O140 C142 1.166 . S
O141 Zn126 1.905 . S
O141 C142 1.182 . S
C142 O140 1.166 . S
C142 O141 1.182 . S
O143 Zn128 2.080 . S
O143 C146 1.305 . S
O144 Zn127 1.920 . S
O144 C146 1.234 . S
C145 O131 1.305 1_554 S
C145 O132 1.234 . S
C146 O143 1.305 . S
C146 O144 1.234 . S
Zn147 O153 1.920 . S
Zn147 O159 1.898 . S
Zn147 O162 1.905 . S
Zn148 O156 1.905 . S
Zn148 O157 1.898 . S
Zn148 O165 1.920 1_556 S
Zn149 O152 2.080 . S
Zn149 O155 2.114 . S
Zn149 O158 2.120 . S
Zn149 O160 2.120 . S
Zn149 O161 2.114 . S
Zn149 O164 2.080 . S
C150 O155 1.166 . S
C150 O156 1.182 . S
C151 O157 1.167 . S
C151 O158 1.299 . S
O152 Zn149 2.080 . S
O152 C166 1.305 1_565 S
O153 Zn147 1.920 . S
O153 C166 1.234 . S
C154 O159 1.167 . S
C154 O160 1.299 1_545 S
O155 Zn149 2.114 . S
O155 C150 1.166 . S
O156 Zn148 1.905 . S
O156 C150 1.182 . S
O157 Zn148 1.898 . S
O157 C151 1.167 . S
O158 Zn149 2.120 . S
O158 C151 1.299 . S
O159 Zn147 1.898 . S
O159 C154 1.167 . S
O160 Zn149 2.120 . S
O160 C154 1.299 1_565 S
O161 Zn149 2.114 . S
O161 C163 1.166 . S
O162 Zn147 1.905 . S
O162 C163 1.182 1_545 S
C163 O161 1.166 . S
C163 O162 1.182 1_565 S
O164 Zn149 2.080 . S
O164 C167 1.305 1_556 S
O165 Zn148 1.920 1_554 S
O165 C167 1.234 . S
C166 O152 1.305 1_545 S
C166 O153 1.234 . S
C167 O164 1.305 1_554 S
C167 O165 1.234 . S
Zn168 O174 1.920 1_556 S
Zn168 O180 1.898 . S
Zn168 O183 1.905 . S
Zn169 O177 1.905 . S
Zn169 O178 1.898 . S
Zn169 O186 1.920 . S
Zn170 O173 2.080 . S
Zn170 O176 2.114 . S
Zn170 O179 2.120 . S
Zn170 O181 2.120 . S
Zn170 O182 2.114 . S
Zn170 O185 2.080 . S
C171 O176 1.166 . S
C171 O177 1.182 1_455 S
C172 O178 1.167 . S
C172 O179 1.299 1_655 S
O173 Zn170 2.080 . S
O173 C187 1.305 1_556 S
O174 Zn168 1.920 1_554 S
O174 C187 1.234 . S
C175 O180 1.167 . S
C175 O181 1.299 . S
O176 Zn170 2.114 . S
O176 C171 1.166 . S
O177 Zn169 1.905 . S
O177 C171 1.182 1_655 S
O178 Zn169 1.898 . S
O178 C172 1.167 . S
O179 Zn170 2.120 . S
O179 C172 1.299 1_455 S
O180 Zn168 1.898 . S
O180 C175 1.167 . S
O181 Zn170 2.120 . S
O181 C175 1.299 . S
O182 Zn170 2.114 . S
O182 C184 1.166 . S
O183 Zn168 1.905 . S
O183 C184 1.182 . S
C184 O182 1.166 . S
C184 O183 1.182 . S
O185 Zn170 2.080 . S
O185 C188 1.305 1_455 S
O186 Zn169 1.920 . S
O186 C188 1.234 . S
C187 O173 1.305 1_554 S
C187 O174 1.234 . S
C188 O185 1.305 1_655 S
C188 O186 1.234 . S
Zn189 O195 1.920 . S
Zn189 O201 1.898 . S
Zn189 O204 1.905 . S
Zn190 O198 1.905 . S
Zn190 O199 1.898 . S
Zn190 O207 1.920 . S
Zn191 O194 2.080 . S
Zn191 O197 2.114 . S
Zn191 O200 2.120 . S
Zn191 O202 2.120 . S
Zn191 O203 2.114 . S
Zn191 O206 2.080 . S
C192 O197 1.166 . S
C192 O198 1.182 . S
C193 O199 1.167 . S
C193 O200 1.299 . S
O194 Zn191 2.080 . S
O194 C208 1.305 . S
O195 Zn189 1.920 . S
O195 C208 1.234 . S
C196 O201 1.167 . S
C196 O202 1.299 . S
O197 Zn191 2.114 . S
O197 C192 1.166 . S
O198 Zn190 1.905 . S
O198 C192 1.182 . S
O199 Zn190 1.898 . S
O199 C193 1.167 . S
O200 Zn191 2.120 . S
O200 C193 1.299 . S
O201 Zn189 1.898 . S
O201 C196 1.167 . S
O202 Zn191 2.120 . S
O202 C196 1.299 . S
O203 Zn191 2.114 . S
O203 C205 1.166 . S
O204 Zn189 1.905 . S
O204 C205 1.182 . S
C205 O203 1.166 . S
C205 O204 1.182 . S
O206 Zn191 2.080 . S
O206 C209 1.305 . S
O207 Zn190 1.920 . S
O207 C209 1.234 . S
C208 O194 1.305 . S
C208 O195 1.234 . S
C209 O206 1.305 . S
C209 O207 1.234 . S
Zn210 O216 1.920 . S
Zn210 O222 1.898 . S
Zn210 O225 1.905 . S
Zn211 O219 1.905 . S
Zn211 O220 1.898 . S
Zn211 O228 1.920 . S
Zn212 O215 2.080 . S
Zn212 O218 2.114 . S
Zn212 O221 2.120 . S
Zn212 O223 2.120 . S
Zn212 O224 2.114 . S
Zn212 O227 2.080 . S
C213 O218 1.166 . S
C213 O219 1.182 1_545 S
C214 O220 1.167 . S
C214 O221 1.299 1_565 S
O215 Zn212 2.080 . S
O215 C229 1.305 . S
O216 Zn210 1.920 . S
O216 C229 1.234 . S
C217 O222 1.167 . S
C217 O223 1.299 . S
O218 Zn212 2.114 . S
O218 C213 1.166 . S
O219 Zn211 1.905 . S
O219 C213 1.182 1_565 S
O220 Zn211 1.898 . S
O220 C214 1.167 . S
O221 Zn212 2.120 . S
O221 C214 1.299 1_545 S
O222 Zn210 1.898 . S
O222 C217 1.167 . S
O223 Zn212 2.120 . S
O223 C217 1.299 . S
O224 Zn212 2.114 . S
O224 C226 1.166 . S
O225 Zn210 1.905 . S
O225 C226 1.182 . S
C226 O224 1.166 . S
C226 O225 1.182 . S
O227 Zn212 2.080 . S
O227 C230 1.305 1_545 S
O228 Zn211 1.920 . S
O228 C230 1.234 . S
C229 O215 1.305 . S
C229 O216 1.234 . S
C230 O227 1.305 1_565 S
C230 O228 1.234 . S
Zn231 O237 1.920 . S
Zn231 O243 1.898 . S
Zn231 O246 1.905 . S
Zn232 O240 1.905 . S
Zn232 O241 1.898 . S
Zn232 O249 1.920 . S
Zn233 O236 2.080 . S
Zn233 O239 2.114 . S
Zn233 O242 2.120 . S
Zn233 O244 2.120 . S
Zn233 O245 2.114 . S
Zn233 O248 2.080 . S
C234 O239 1.166 . S
C234 O240 1.182 . S
C235 O241 1.167 . S
C235 O242 1.299 . S
O236 Zn233 2.080 . S
O236 C250 1.305 1_655 S
O237 Zn231 1.920 . S
O237 C250 1.234 . S
C238 O243 1.167 . S
C238 O244 1.299 1_455 S
O239 Zn233 2.114 . S
O239 C234 1.166 . S
O240 Zn232 1.905 . S
O240 C234 1.182 . S
O241 Zn232 1.898 . S
O241 C235 1.167 . S
O242 Zn233 2.120 . S
O242 C235 1.299 . S
O243 Zn231 1.898 . S
O243 C238 1.167 . S
O244 Zn233 2.120 . S
O244 C238 1.299 1_655 S
O245 Zn233 2.114 . S
O245 C247 1.166 . S
O246 Zn231 1.905 . S
O246 C247 1.182 1_455 S
C247 O245 1.166 . S
C247 O246 1.182 1_655 S
O248 Zn233 2.080 . S
O248 C251 1.305 . S
O249 Zn232 1.920 . S
O249 C251 1.234 . S
C250 O236 1.305 1_455 S
C250 O237 1.234 . S
C251 O248 1.305 . S
C251 O249 1.234 . S
Zn252 O258 1.920 . S
Zn252 O264 1.898 . S
Zn252 O267 1.905 . S
Zn253 O261 1.905 . S
Zn253 O262 1.898 . S
Zn253 O270 1.920 . S
Zn254 O257 2.080 . S
Zn254 O260 2.114 . S
Zn254 O263 2.120 . S
Zn254 O265 2.120 . S
Zn254 O266 2.114 . S
Zn254 O269 2.080 . S
C255 O260 1.166 . S
C255 O261 1.182 . S
C256 O262 1.167 . S
C256 O263 1.299 . S
O257 Zn254 2.080 . S
O257 C271 1.305 . S
O258 Zn252 1.920 . S
O258 C271 1.234 . S
C259 O264 1.167 . S
C259 O265 1.299 . S
O260 Zn254 2.114 . S
O260 C255 1.166 . S
O261 Zn253 1.905 . S
O261 C255 1.182 . S
O262 Zn253 1.898 . S
O262 C256 1.167 . S
O263 Zn254 2.120 . S
O263 C256 1.299 . S
O264 Zn252 1.898 . S
O264 C259 1.167 . S
O265 Zn254 2.120 . S
O265 C259 1.299 . S
O266 Zn254 2.114 . S
O266 C268 1.166 . S
O267 Zn252 1.905 . S
O267 C268 1.182 . S
C268 O266 1.166 . S
C268 O267 1.182 . S
O269 Zn254 2.080 . S
O269 C272 1.305 . S
O270 Zn253 1.920 . S
O270 C272 1.234 . S
C271 O257 1.305 . S
C271 O258 1.234 . S
C272 O269 1.305 . S
C272 O270 1.234 . S
Zn273 O279 1.920 . S
Zn273 O285 1.898 . S
Zn273 O288 1.905 . S
Zn274 O282 1.905 . S
Zn274 O283 1.898 . S
Zn274 O291 1.920 . S
Zn275 O278 2.080 . S
Zn275 O281 2.114 . S
Zn275 O284 2.120 . S
Zn275 O286 2.120 . S
Zn275 O287 2.114 . S
Zn275 O290 2.080 . S
C276 O281 1.166 . S
C276 O282 1.182 . S
C277 O283 1.167 . S
C277 O284 1.299 . S
O278 Zn275 2.080 . S
O278 C292 1.305 . S
O279 Zn273 1.920 . S
O279 C292 1.234 . S
C280 O285 1.167 . S
C280 O286 1.299 . S
O281 Zn275 2.114 . S
O281 C276 1.166 . S
O282 Zn274 1.905 . S
O282 C276 1.182 . S
O283 Zn274 1.898 . S
O283 C277 1.167 . S
O284 Zn275 2.120 . S
O284 C277 1.299 . S
O285 Zn273 1.898 . S
O285 C280 1.167 . S
O286 Zn275 2.120 . S
O286 C280 1.299 . S
O287 Zn275 2.114 . S
O287 C289 1.166 . S
O288 Zn273 1.905 . S
O288 C289 1.182 . S
C289 O287 1.166 . S
C289 O288 1.182 . S
O290 Zn275 2.080 . S
O290 C293 1.305 . S
O291 Zn274 1.920 . S
O291 C293 1.234 . S
C292 O278 1.305 . S
C292 O279 1.234 . S
C293 O290 1.305 . S
C293 O291 1.234 . S
Zn294 O300 1.920 . S
Zn294 O306 1.898 . S
Zn294 O309 1.905 . S
Zn295 O303 1.905 . S
Zn295 O304 1.898 . S
Zn295 O312 1.920 . S
Zn296 O299 2.080 . S
Zn296 O302 2.114 . S
Zn296 O305 2.120 . S
Zn296 O307 2.120 . S
Zn296 O308 2.114 . S
Zn296 O311 2.080 . S
C297 O302 1.166 . S
C297 O303 1.182 . S
C298 O304 1.167 . S
C298 O305 1.299 . S
O299 Zn296 2.080 . S
O299 C313 1.305 . S
O300 Zn294 1.920 . S
O300 C313 1.234 . S
C301 O306 1.167 . S
C301 O307 1.299 . S
O302 Zn296 2.114 . S
O302 C297 1.166 . S
O303 Zn295 1.905 . S
O303 C297 1.182 . S
O304 Zn295 1.898 . S
O304 C298 1.167 . S
O305 Zn296 2.120 . S
O305 C298 1.299 . S
O306 Zn294 1.898 . S
O306 C301 1.167 . S
O307 Zn296 2.120 . S
O307 C301 1.299 . S
O308 Zn296 2.114 . S
O308 C310 1.166 . S
O309 Zn294 1.905 . S
O309 C310 1.182 . S
C310 O308 1.166 . S
C310 O309 1.182 . S
O311 Zn296 2.080 . S
O311 C314 1.305 . S
O312 Zn295 1.920 . S
O312 C314 1.234 . S
C313 O299 1.305 . S
C313 O300 1.234 . S
C314 O311 1.305 . S
C314 O312 1.234 . S
Zn315 O321 1.920 . S
Zn315 O327 1.898 . S
Zn315 O330 1.905 . S
Zn316 O324 1.905 . S
Zn316 O325 1.898 . S
Zn316 O333 1.920 . S
Zn317 O320 2.080 . S
Zn317 O323 2.114 . S
Zn317 O326 2.120 . S
Zn317 O328 2.120 . S
Zn317 O329 2.114 . S
Zn317 O332 2.080 . S
C318 O323 1.166 . S
C318 O324 1.182 . S
C319 O325 1.167 . S
C319 O326 1.299 . S
O320 Zn317 2.080 . S
O320 C334 1.305 . S
O321 Zn315 1.920 . S
O321 C334 1.234 . S
C322 O327 1.167 . S
C322 O328 1.299 . S
O323 Zn317 2.114 . S
O323 C318 1.166 . S
O324 Zn316 1.905 . S
O324 C318 1.182 . S
O325 Zn316 1.898 . S
O325 C319 1.167 . S
O326 Zn317 2.120 . S
O326 C319 1.299 . S
O327 Zn315 1.898 . S
O327 C322 1.167 . S
O328 Zn317 2.120 . S
O328 C322 1.299 . S
O329 Zn317 2.114 . S
O329 C331 1.166 . S
O330 Zn315 1.905 . S
O330 C331 1.182 . S
C331 O329 1.166 . S
C331 O330 1.182 . S
O332 Zn317 2.080 . S
O332 C335 1.305 . S
O333 Zn316 1.920 . S
O333 C335 1.234 . S
C334 O320 1.305 . S
C334 O321 1.234 . S
C335 O332 1.305 . S
C335 O333 1.234 . S
Zn336 O342 1.920 . S
Zn336 O348 1.898 . S
Zn336 O351 1.905 . S
Zn337 O345 1.905 . S
Zn337 O346 1.898 . S
Zn337 O354 1.920 . S
Zn338 O341 2.080 . S
Zn338 O344 2.114 . S
Zn338 O347 2.120 . S
Zn338 O349 2.120 . S
Zn338 O350 2.114 . S
Zn338 O353 2.080 . S
C339 O344 1.166 . S
C339 O345 1.182 . S
C340 O346 1.167 . S
C340 O347 1.299 . S
O341 Zn338 2.080 . S
O341 C355 1.305 . S
O342 Zn336 1.920 . S
O342 C355 1.234 . S
C343 O348 1.167 . S
C343 O349 1.299 . S
O344 Zn338 2.114 . S
O344 C339 1.166 . S
O345 Zn337 1.905 . S
O345 C339 1.182 . S
O346 Zn337 1.898 . S
O346 C340 1.167 . S
O347 Zn338 2.120 . S
O347 C340 1.299 . S
O348 Zn336 1.898 . S
O348 C343 1.167 . S
O349 Zn338 2.120 . S
O349 C343 1.299 . S
O350 Zn338 2.114 . S
O350 C352 1.166 . S
O351 Zn336 1.905 . S
O351 C352 1.182 . S
C352 O350 1.166 . S
C352 O351 1.182 . S
O353 Zn338 2.080 . S
O353 C356 1.305 . S
O354 Zn337 1.920 . S
O354 C356 1.234 . S
C355 O341 1.305 . S
C355 O342 1.234 . S
C356 O353 1.305 . S
C356 O354 1.234 . S
Zn357 O363 1.920 . S
Zn357 O369 1.898 . S
Zn357 O372 1.905 . S
Zn358 O366 1.905 . S
Zn358 O367 1.898 . S
Zn358 O375 1.920 . S
Zn359 O362 2.080 . S
Zn359 O365 2.114 . S
Zn359 O368 2.120 . S
Zn359 O370 2.120 . S
Zn359 O371 2.114 . S
Zn359 O374 2.080 . S
C360 O365 1.166 . S
C360 O366 1.182 . S
C361 O367 1.167 . S
C361 O368 1.299 . S
O362 Zn359 2.080 . S
O362 C376 1.305 . S
O363 Zn357 1.920 . S
O363 C376 1.234 . S
C364 O369 1.167 . S
C364 O370 1.299 . S
O365 Zn359 2.114 . S
O365 C360 1.166 . S
O366 Zn358 1.905 . S
O366 C360 1.182 . S
O367 Zn358 1.898 . S
O367 C361 1.167 . S
O368 Zn359 2.120 . S
O368 C361 1.299 . S
O369 Zn357 1.898 . S
O369 C364 1.167 . S
O370 Zn359 2.120 . S
O370 C364 1.299 . S
O371 Zn359 2.114 . S
O371 C373 1.166 . S
O372 Zn357 1.905 . S
O372 C373 1.182 . S
C373 O371 1.166 . S
C373 O372 1.182 . S
O374 Zn359 2.080 . S
O374 C377 1.305 . S
O375 Zn358 1.920 . S
O375 C377 1.234 . S
C376 O362 1.305 . S
C376 O363 1.234 . S
C377 O374 1.305 . S
C377 O375 1.234 . S
Zn378 O384 1.920 . S
Zn378 O390 1.898 . S
Zn378 O393 1.905 . S
Zn379 O387 1.905 . S
Zn379 O388 1.898 . S
Zn379 O396 1.920 . S
Zn380 O383 2.080 . S
Zn380 O386 2.114 . S
Zn380 O389 2.120 . S
Zn380 O391 2.120 . S
Zn380 O392 2.114 . S
Zn380 O395 2.080 . S
C381 O386 1.166 . S
C381 O387 1.182 . S
C382 O388 1.167 . S
C382 O389 1.299 . S
O383 Zn380 2.080 . S
O383 C397 1.305 . S
O384 Zn378 1.920 . S
O384 C397 1.234 . S
C385 O390 1.167 . S
C385 O391 1.299 . S
O386 Zn380 2.114 . S
O386 C381 1.166 . S
O387 Zn379 1.905 . S
O387 C381 1.182 . S
O388 Zn379 1.898 . S
O388 C382 1.167 . S
O389 Zn380 2.120 . S
O389 C382 1.299 . S
O390 Zn378 1.898 . S
O390 C385 1.167 . S
O391 Zn380 2.120 . S
O391 C385 1.299 . S
O392 Zn380 2.114 . S
O392 C394 1.166 . S
O393 Zn378 1.905 . S
O393 C394 1.182 . S
C394 O392 1.166 . S
C394 O393 1.182 . S
O395 Zn380 2.080 . S
O395 C398 1.305 . S
O396 Zn379 1.920 . S
O396 C398 1.234 . S
C397 O383 1.305 . S
C397 O384 1.234 . S
C398 O395 1.305 . S
C398 O396 1.234 . S
Zn399 O405 1.920 . S
Zn399 O411 1.898 . S
Zn399 O414 1.905 . S
Zn400 O408 1.905 . S
Zn400 O409 1.898 . S
Zn400 O417 1.920 . S
Zn401 O404 2.080 . S
Zn401 O407 2.114 . S
Zn401 O410 2.120 . S
Zn401 O412 2.120 . S
Zn401 O413 2.114 . S
Zn401 O416 2.080 . S
C402 O407 1.166 . S
C402 O408 1.182 . S
C403 O409 1.167 . S
C403 O410 1.299 . S
O404 Zn401 2.080 . S
O404 C418 1.305 . S
O405 Zn399 1.920 . S
O405 C418 1.234 . S
C406 O411 1.167 . S
C406 O412 1.299 . S
O407 Zn401 2.114 . S
O407 C402 1.166 . S
O408 Zn400 1.905 . S
O408 C402 1.182 . S
O409 Zn400 1.898 . S
O409 C403 1.167 . S
O410 Zn401 2.120 . S
O410 C403 1.299 . S
O411 Zn399 1.898 . S
O411 C406 1.167 . S
O412 Zn401 2.120 . S
O412 C406 1.299 . S
O413 Zn401 2.114 . S
O413 C415 1.166 . S
O414 Zn399 1.905 . S
O414 C415 1.182 . S
C415 O413 1.166 . S
C415 O414 1.182 . S
O416 Zn401 2.080 . S
O416 C419 1.305 . S
O417 Zn400 1.920 . S
O417 C419 1.234 . S
C418 O404 1.305 . S
C418 O405 1.234 . S
C419 O416 1.305 . S
C419 O417 1.234 . S
Zn420 O426 1.920 . S
Zn420 O432 1.898 . S
Zn420 O435 1.905 . S
Zn421 O429 1.905 . S
Zn421 O430 1.898 . S
Zn421 O438 1.920 . S
Zn422 O425 2.080 . S
Zn422 O428 2.114 . S
Zn422 O431 2.120 . S
Zn422 O433 2.120 . S
Zn422 O434 2.114 . S
Zn422 O437 2.080 . S
C423 O428 1.166 . S
C423 O429 1.182 . S
C424 O430 1.167 . S
C424 O431 1.299 . S
O425 Zn422 2.080 . S
O425 C439 1.305 . S
O426 Zn420 1.920 . S
O426 C439 1.234 . S
C427 O432 1.167 . S
C427 O433 1.299 . S
O428 Zn422 2.114 . S
O428 C423 1.166 . S
O429 Zn421 1.905 . S
O429 C423 1.182 . S
O430 Zn421 1.898 . S
O430 C424 1.167 . S
O431 Zn422 2.120 . S
O431 C424 1.299 . S
O432 Zn420 1.898 . S
O432 C427 1.167 . S
O433 Zn422 2.120 . S
O433 C427 1.299 . S
O434 Zn422 2.114 . S
O434 C436 1.166 . S
O435 Zn420 1.905 . S
O435 C436 1.182 . S
C436 O434 1.166 . S
C436 O435 1.182 . S
O437 Zn422 2.080 . S
O437 C440 1.305 . S
O438 Zn421 1.920 . S
O438 C440 1.234 . S
C439 O425 1.305 . S
C439 O426 1.234 . S
C440 O437 1.305 . S
C440 O438 1.234 . S
Zn441 O447 1.920 . S
Zn441 O453 1.898 . S
Zn441 O456 1.908 . S
Zn442 O450 1.905 . S
Zn442 O451 1.898 . S
Zn442 O459 1.920 . S
Zn443 O446 2.080 . S
Zn443 O449 2.114 . S
Zn443 O452 2.120 . S
Zn443 O454 2.120 . S
Zn443 O455 2.114 . S
Zn443 O458 2.080 . S
C444 O449 1.166 . S
C444 O450 1.182 . S
C445 O451 1.167 . S
C445 O452 1.299 . S
O446 Zn443 2.080 . S
O446 C460 1.305 . S
O447 Zn441 1.920 . S
O447 C460 1.234 . S
C448 O453 1.167 . S
C448 O454 1.299 . S
O449 Zn443 2.114 . S
O449 C444 1.166 . S
O450 Zn442 1.905 . S
O450 C444 1.182 . S
O451 Zn442 1.898 . S
O451 C445 1.167 . S
O452 Zn443 2.120 . S
O452 C445 1.299 . S
O453 Zn441 1.898 . S
O453 C448 1.167 . S
O454 Zn443 2.120 . S
O454 C448 1.299 . S
O455 Zn443 2.114 . S
O455 C457 1.166 . S
O456 Zn441 1.908 . S
O456 C457 1.183 . S
C457 O455 1.166 . S
C457 O456 1.183 . S
O458 Zn443 2.080 . S
O458 C461 1.305 . S
O459 Zn442 1.920 . S
O459 C461 1.234 . S
C460 O446 1.305 . S
C460 O447 1.234 . S
C461 O458 1.305 . S
C461 O459 1.234 . S
Zn462 O468 1.920 . S
Zn462 O474 1.898 . S
Zn462 O477 1.905 . S
Zn463 O471 1.908 . S
Zn463 O472 1.898 . S
Zn463 O480 1.920 . S
Zn464 O467 2.080 . S
Zn464 O470 2.114 . S
Zn464 O473 2.120 . S
Zn464 O475 2.120 . S
Zn464 O476 2.114 . S
Zn464 O479 2.080 . S
C465 O470 1.166 . S
C465 O471 1.183 . S
C466 O472 1.167 . S
C466 O473 1.299 . S
O467 Zn464 2.080 . S
O467 C481 1.305 . S
O468 Zn462 1.920 . S
O468 C481 1.234 . S
C469 O474 1.167 . S
C469 O475 1.299 . S
O470 Zn464 2.114 . S
O470 C465 1.166 . S
O471 Zn463 1.908 . S
O471 C465 1.183 . S
O472 Zn463 1.898 . S
O472 C466 1.167 . S
O473 Zn464 2.120 . S
O473 C466 1.299 . S
O474 Zn462 1.898 . S
O474 C469 1.167 . S
O475 Zn464 2.120 . S
O475 C469 1.299 . S
O476 Zn464 2.114 . S
O476 C478 1.166 . S
O477 Zn462 1.905 . S
O477 C478 1.182 . S
C478 O476 1.166 . S
C478 O477 1.182 . S
O479 Zn464 2.080 . S
O479 C482 1.305 . S
O480 Zn463 1.920 . S
O480 C482 1.234 . S
C481 O467 1.305 . S
C481 O468 1.234 . S
C482 O479 1.305 . S
C482 O480 1.234 . S
Zn483 O489 1.920 . S
Zn483 O495 1.898 . S
Zn483 O498 1.908 . S
Zn484 O492 1.905 . S
Zn484 O493 1.898 . S
Zn484 O501 1.920 . S
Zn485 O488 2.080 . S
Zn485 O491 2.114 . S
Zn485 O494 2.120 . S
Zn485 O496 2.120 . S
Zn485 O497 2.114 . S
Zn485 O500 2.080 . S
C486 O491 1.166 . S
C486 O492 1.182 . S
C487 O493 1.167 . S
C487 O494 1.299 . S
O488 Zn485 2.080 . S
O488 C502 1.305 . S
O489 Zn483 1.920 . S
O489 C502 1.234 . S
C490 O495 1.167 . S
C490 O496 1.299 . S
O491 Zn485 2.114 . S
O491 C486 1.166 . S
O492 Zn484 1.905 . S
O492 C486 1.182 . S
O493 Zn484 1.898 . S
O493 C487 1.167 . S
O494 Zn485 2.120 . S
O494 C487 1.299 . S
O495 Zn483 1.898 . S
O495 C490 1.167 . S
O496 Zn485 2.120 . S
O496 C490 1.299 . S
O497 Zn485 2.114 . S
O497 C499 1.166 . S
O498 Zn483 1.908 . S
O498 C499 1.183 . S
C499 O497 1.166 . S
C499 O498 1.183 . S
O500 Zn485 2.080 . S
O500 C503 1.305 . S
O501 Zn484 1.920 . S
O501 C503 1.234 . S
C502 O488 1.305 . S
C502 O489 1.234 . S
C503 O500 1.305 . S
C503 O501 1.234 . S
Zn504 O510 1.920 . S
Zn504 O516 1.898 . S
Zn504 O519 1.905 . S
Zn505 O513 1.905 . S
Zn505 O514 1.898 . S
Zn505 O522 1.920 . S
Zn506 O509 2.080 . S
Zn506 O512 2.114 . S
Zn506 O515 2.120 . S
Zn506 O517 2.120 . S
Zn506 O518 2.114 . S
Zn506 O521 2.080 . S
C507 O512 1.166 . S
C507 O513 1.182 . S
C508 O514 1.167 . S
C508 O515 1.299 . S
O509 Zn506 2.080 . S
O509 C523 1.305 . S
O510 Zn504 1.920 . S
O510 C523 1.234 . S
C511 O516 1.167 . S
C511 O517 1.299 . S
O512 Zn506 2.114 . S
O512 C507 1.166 . S
O513 Zn505 1.905 . S
O513 C507 1.182 . S
O514 Zn505 1.898 . S
O514 C508 1.167 . S
O515 Zn506 2.120 . S
O515 C508 1.299 . S
O516 Zn504 1.898 . S
O516 C511 1.167 . S
O517 Zn506 2.120 . S
O517 C511 1.299 . S
O518 Zn506 2.114 . S
O518 C520 1.166 . S
O519 Zn504 1.905 . S
O519 C520 1.182 . S
C520 O518 1.166 . S
C520 O519 1.182 . S
O521 Zn506 2.080 . S
O521 C524 1.305 . S
O522 Zn505 1.920 . S
O522 C524 1.234 . S
C523 O509 1.305 . S
C523 O510 1.234 . S
C524 O521 1.305 . S
C524 O522 1.234 . S
Zn525 O531 1.920 . S
Zn525 O537 1.898 . S
Zn525 O540 1.905 . S
Zn526 O534 1.905 . S
Zn526 O535 1.898 . S
Zn526 O543 1.920 . S
Zn527 O530 2.080 . S
Zn527 O533 2.114 . S
Zn527 O536 2.120 . S
Zn527 O538 2.120 . S
Zn527 O539 2.114 . S
Zn527 O542 2.080 . S
C528 O533 1.166 . S
C528 O534 1.182 . S
C529 O535 1.167 . S
C529 O536 1.299 . S
O530 Zn527 2.080 . S
O530 C544 1.305 . S
O531 Zn525 1.920 . S
O531 C544 1.234 . S
C532 O537 1.167 . S
C532 O538 1.299 . S
O533 Zn527 2.114 . S
O533 C528 1.166 . S
O534 Zn526 1.905 . S
O534 C528 1.182 . S
O535 Zn526 1.898 . S
O535 C529 1.167 . S
O536 Zn527 2.120 . S
O536 C529 1.299 . S
O537 Zn525 1.898 . S
O537 C532 1.167 . S
O538 Zn527 2.120 . S
O538 C532 1.299 . S
O539 Zn527 2.114 . S
O539 C541 1.166 . S
O540 Zn525 1.905 . S
O540 C541 1.182 . S
C541 O539 1.166 . S
C541 O540 1.182 . S
O542 Zn527 2.080 . S
O542 C545 1.305 . S
O543 Zn526 1.920 . S
O543 C545 1.234 . S
C544 O530 1.305 . S
C544 O531 1.234 . S
C545 O542 1.305 . S
C545 O543 1.234 . S
Zn546 O552 1.920 . S
Zn546 O558 1.898 . S
Zn546 O561 1.905 . S
Zn547 O555 1.905 . S
Zn547 O556 1.898 . S
Zn547 O564 1.920 . S
Zn548 O551 2.080 . S
Zn548 O554 2.114 . S
Zn548 O557 2.120 . S
Zn548 O559 2.120 . S
Zn548 O560 2.114 . S
Zn548 O563 2.080 . S
C549 O554 1.166 . S
C549 O555 1.182 . S
C550 O556 1.167 . S
C550 O557 1.299 . S
O551 Zn548 2.080 . S
O551 C565 1.305 . S
O552 Zn546 1.920 . S
O552 C565 1.234 . S
C553 O558 1.167 . S
C553 O559 1.299 . S
O554 Zn548 2.114 . S
O554 C549 1.166 . S
O555 Zn547 1.905 . S
O555 C549 1.182 . S
O556 Zn547 1.898 . S
O556 C550 1.167 . S
O557 Zn548 2.120 . S
O557 C550 1.299 . S
O558 Zn546 1.898 . S
O558 C553 1.167 . S
O559 Zn548 2.120 . S
O559 C553 1.299 . S
O560 Zn548 2.114 . S
O560 C562 1.166 . S
O561 Zn546 1.905 . S
O561 C562 1.182 . S
C562 O560 1.166 . S
C562 O561 1.182 . S
O563 Zn548 2.080 . S
O563 C566 1.305 . S
O564 Zn547 1.920 . S
O564 C566 1.234 . S
C565 O551 1.305 . S
C565 O552 1.234 . S
C566 O563 1.305 . S
C566 O564 1.234 . S
Zn567 O573 1.920 . S
Zn567 O579 1.898 . S
Zn567 O582 1.908 . S
Zn568 O576 1.905 . S
Zn568 O577 1.898 . S
Zn568 O585 1.920 . S
Zn569 O572 2.080 . S
Zn569 O575 2.114 . S
Zn569 O578 2.120 . S
Zn569 O580 2.120 . S
Zn569 O581 2.114 . S
Zn569 O584 2.080 . S
C570 O575 1.166 . S
C570 O576 1.182 . S
C571 O577 1.167 . S
C571 O578 1.299 . S
O572 Zn569 2.080 . S
O572 C586 1.305 . S
O573 Zn567 1.920 . S
O573 C586 1.234 . S
C574 O579 1.167 . S
C574 O580 1.299 . S
O575 Zn569 2.114 . S
O575 C570 1.166 . S
O576 Zn568 1.905 . S
O576 C570 1.182 . S
O577 Zn568 1.898 . S
O577 C571 1.167 . S
O578 Zn569 2.120 . S
O578 C571 1.299 . S
O579 Zn567 1.898 . S
O579 C574 1.167 . S
O580 Zn569 2.120 . S
O580 C574 1.299 . S
O581 Zn569 2.114 . S
O581 C583 1.166 . S
O582 Zn567 1.908 . S
O582 C583 1.183 . S
C583 O581 1.166 . S
C583 O582 1.183 . S
O584 Zn569 2.080 . S
O584 C587 1.305 . S
O585 Zn568 1.920 . S
O585 C587 1.234 . S
C586 O572 1.305 . S
C586 O573 1.234 . S
C587 O584 1.305 . S
C587 O585 1.234 . S
Zn588 O594 1.920 . S
Zn588 O600 1.898 . S
Zn588 O603 1.908 . S
Zn589 O597 1.905 . S
Zn589 O598 1.898 . S
Zn589 O606 1.920 . S
Zn590 O593 2.080 . S
Zn590 O596 2.114 . S
Zn590 O599 2.120 . S
Zn590 O601 2.120 . S
Zn590 O602 2.114 . S
Zn590 O605 2.080 . S
C591 O596 1.166 . S
C591 O597 1.182 . S
C592 O598 1.167 . S
C592 O599 1.299 . S
O593 Zn590 2.080 . S
O593 C607 1.305 . S
O594 Zn588 1.920 . S
O594 C607 1.234 . S
C595 O600 1.167 . S
C595 O601 1.299 . S
O596 Zn590 2.114 . S
O596 C591 1.166 . S
O597 Zn589 1.905 . S
O597 C591 1.182 . S
O598 Zn589 1.898 . S
O598 C592 1.167 . S
O599 Zn590 2.120 . S
O599 C592 1.299 . S
O600 Zn588 1.898 . S
O600 C595 1.167 . S
O601 Zn590 2.120 . S
O601 C595 1.299 . S
O602 Zn590 2.114 . S
O602 C604 1.166 . S
O603 Zn588 1.908 . S
O603 C604 1.183 . S
C604 O602 1.166 . S
C604 O603 1.183 . S
O605 Zn590 2.080 . S
O605 C608 1.305 . S
O606 Zn589 1.920 . S
O606 C608 1.234 . S
C607 O593 1.305 . S
C607 O594 1.234 . S
C608 O605 1.305 . S
C608 O606 1.234 . S
Zn609 O615 1.920 . S
Zn609 O621 1.898 . S
Zn609 O624 1.908 . S
Zn610 O618 1.905 . S
Zn610 O619 1.898 . S
Zn610 O627 1.920 . S
Zn611 O614 2.080 . S
Zn611 O617 2.114 . S
Zn611 O620 2.120 . S
Zn611 O622 2.120 . S
Zn611 O623 2.114 . S
Zn611 O626 2.080 . S
C612 O617 1.166 . S
C612 O618 1.182 . S
C613 O619 1.167 . S
C613 O620 1.299 . S
O614 Zn611 2.080 . S
O614 C628 1.305 . S
O615 Zn609 1.920 . S
O615 C628 1.234 . S
C616 O621 1.167 . S
C616 O622 1.299 . S
O617 Zn611 2.114 . S
O617 C612 1.166 . S
O618 Zn610 1.905 . S
O618 C612 1.182 . S
O619 Zn610 1.898 . S
O619 C613 1.167 . S
O620 Zn611 2.120 . S
O620 C613 1.299 . S
O621 Zn609 1.898 . S
O621 C616 1.167 . S
O622 Zn611 2.120 . S
O622 C616 1.299 . S
O623 Zn611 2.114 . S
O623 C625 1.166 . S
O624 Zn609 1.908 . S
O624 C625 1.183 . S
C625 O623 1.166 . S
C625 O624 1.183 . S
O626 Zn611 2.080 . S
O626 C629 1.305 . S
O627 Zn610 1.920 . S
O627 C629 1.234 . S
C628 O614 1.305 . S
C628 O615 1.234 . S
C629 O626 1.305 . S
C629 O627 1.234 . S
Zn630 O636 1.920 . S
Zn630 O642 1.898 . S
Zn630 O645 1.905 . S
Zn631 O639 1.905 . S
Zn631 O640 1.898 . S
Zn631 O648 1.920 . S
Zn632 O635 2.080 . S
Zn632 O638 2.114 . S
Zn632 O641 2.120 . S
Zn632 O643 2.120 . S
Zn632 O644 2.114 . S
Zn632 O647 2.080 . S
C633 O638 1.166 . S
C633 O639 1.182 . S
C634 O640 1.167 . S
C634 O641 1.299 . S
O635 Zn632 2.080 . S
O635 C649 1.305 . S
O636 Zn630 1.920 . S
O636 C649 1.234 . S
C637 O642 1.167 . S
C637 O643 1.299 . S
O638 Zn632 2.114 . S
O638 C633 1.166 . S
O639 Zn631 1.905 . S
O639 C633 1.182 . S
O640 Zn631 1.898 . S
O640 C634 1.167 . S
O641 Zn632 2.120 . S
O641 C634 1.299 . S
O642 Zn630 1.898 . S
O642 C637 1.167 . S
O643 Zn632 2.120 . S
O643 C637 1.299 . S
O644 Zn632 2.114 . S
O644 C646 1.166 . S
O645 Zn630 1.905 . S
O645 C646 1.182 . S
C646 O644 1.166 . S
C646 O645 1.182 . S
O647 Zn632 2.080 . S
O647 C650 1.305 . S
O648 Zn631 1.920 . S
O648 C650 1.234 . S
C649 O635 1.305 . S
C649 O636 1.234 . S
C650 O647 1.305 . S
C650 O648 1.234 . S
Zn651 O657 1.920 . S
Zn651 O663 1.898 . S
Zn651 O666 1.905 . S
Zn652 O660 1.905 . S
Zn652 O661 1.898 . S
Zn652 O669 1.920 . S
Zn653 O656 2.080 . S
Zn653 O659 2.114 . S
Zn653 O662 2.120 . S
Zn653 O664 2.120 . S
Zn653 O665 2.114 . S
Zn653 O668 2.080 . S
C654 O659 1.166 . S
C654 O660 1.182 . S
C655 O661 1.167 . S
C655 O662 1.299 . S
O656 Zn653 2.080 . S
O656 C670 1.305 . S
O657 Zn651 1.920 . S
O657 C670 1.234 . S
C658 O663 1.167 . S
C658 O664 1.299 . S
O659 Zn653 2.114 . S
O659 C654 1.166 . S
O660 Zn652 1.905 . S
O660 C654 1.182 . S
O661 Zn652 1.898 . S
O661 C655 1.167 . S
O662 Zn653 2.120 . S
O662 C655 1.299 . S
O663 Zn651 1.898 . S
O663 C658 1.167 . S
O664 Zn653 2.120 . S
O664 C658 1.299 . S
O665 Zn653 2.114 . S
O665 C667 1.166 . S
O666 Zn651 1.905 . S
O666 C667 1.182 . S
C667 O665 1.166 . S
C667 O666 1.182 . S
O668 Zn653 2.080 . S
O668 C671 1.305 . S
O669 Zn652 1.920 . S
O669 C671 1.234 . S
C670 O656 1.305 . S
C670 O657 1.234 . S
C671 O668 1.305 . S
C671 O669 1.234 . S
Zn672 O678 1.920 . S
Zn672 O684 1.898 . S
Zn672 O687 1.905 . S
Zn673 O681 1.905 . S
Zn673 O682 1.898 . S
Zn673 O690 1.920 . S
Zn674 O677 2.080 . S
Zn674 O680 2.114 . S
Zn674 O683 2.120 . S
Zn674 O685 2.120 . S
Zn674 O686 2.114 . S
Zn674 O689 2.080 . S
C675 O680 1.166 . S
C675 O681 1.182 . S
C676 O682 1.167 . S
C676 O683 1.299 . S
O677 Zn674 2.080 . S
O677 C691 1.305 . S
O678 Zn672 1.920 . S
O678 C691 1.234 . S
C679 O684 1.167 . S
C679 O685 1.299 . S
O680 Zn674 2.114 . S
O680 C675 1.166 . S
O681 Zn673 1.905 . S
O681 C675 1.182 . S
O682 Zn673 1.898 . S
O682 C676 1.167 . S
O683 Zn674 2.120 . S
O683 C676 1.299 . S
O684 Zn672 1.898 . S
O684 C679 1.167 . S
O685 Zn674 2.120 . S
O685 C679 1.299 . S
O686 Zn674 2.114 . S
O686 C688 1.166 . S
O687 Zn672 1.905 . S
O687 C688 1.182 . S
C688 O686 1.166 . S
C688 O687 1.182 . S
O689 Zn674 2.080 . S
O689 C692 1.305 . S
O690 Zn673 1.920 . S
O690 C692 1.234 . S
C691 O677 1.305 . S
C691 O678 1.234 . S
C692 O689 1.305 . S
C692 O690 1.234 . S
Zn693 O699 1.920 . S
Zn693 O705 1.898 . S
Zn693 O708 1.905 . S
Zn694 O702 1.905 . S
Zn694 O703 1.898 . S
Zn694 O711 1.920 . S
Zn695 O698 2.080 . S
Zn695 O701 2.114 . S
Zn695 O704 2.120 . S
Zn695 O706 2.120 . S
Zn695 O707 2.114 . S
Zn695 O710 2.080 . S
C696 O701 1.166 . S
C696 O702 1.182 . S
C697 O703 1.167 . S
C697 O704 1.299 . S
O698 Zn695 2.080 . S
O698 C712 1.305 . S
O699 Zn693 1.920 . S
O699 C712 1.234 . S
C700 O705 1.167 . S
C700 O706 1.299 . S
O701 Zn695 2.114 . S
O701 C696 1.166 . S
O702 Zn694 1.905 . S
O702 C696 1.182 . S
O703 Zn694 1.898 . S
O703 C697 1.167 . S
O704 Zn695 2.120 . S
O704 C697 1.299 . S
O705 Zn693 1.898 . S
O705 C700 1.167 . S
O706 Zn695 2.120 . S
O706 C700 1.299 . S
O707 Zn695 2.114 . S
O707 C709 1.166 . S
O708 Zn693 1.905 . S
O708 C709 1.182 . S
C709 O707 1.166 . S
C709 O708 1.182 . S
O710 Zn695 2.080 . S
O710 C713 1.305 . S
O711 Zn694 1.920 . S
O711 C713 1.234 . S
C712 O698 1.305 . S
C712 O699 1.234 . S
C713 O710 1.305 . S
C713 O711 1.234 . S
Zn714 O720 1.920 . S
Zn714 O726 1.898 . S
Zn714 O729 1.905 . S
Zn715 O723 1.905 . S
Zn715 O724 1.898 . S
Zn715 O732 1.920 . S
Zn716 O719 2.080 . S
Zn716 O722 2.114 . S
Zn716 O725 2.120 . S
Zn716 O727 2.120 . S
Zn716 O728 2.114 . S
Zn716 O731 2.080 . S
C717 O722 1.166 . S
C717 O723 1.182 . S
C718 O724 1.167 . S
C718 O725 1.299 . S
O719 Zn716 2.080 . S
O719 C733 1.305 . S
O720 Zn714 1.920 . S
O720 C733 1.234 . S
C721 O726 1.167 . S
C721 O727 1.299 . S
O722 Zn716 2.114 . S
O722 C717 1.166 . S
O723 Zn715 1.905 . S
O723 C717 1.182 . S
O724 Zn715 1.898 . S
O724 C718 1.167 . S
O725 Zn716 2.120 . S
O725 C718 1.299 . S
O726 Zn714 1.898 . S
O726 C721 1.167 . S
O727 Zn716 2.120 . S
O727 C721 1.299 . S
O728 Zn716 2.114 . S
O728 C730 1.166 . S
O729 Zn714 1.905 . S
O729 C730 1.182 . S
C730 O728 1.166 . S
C730 O729 1.182 . S
O731 Zn716 2.080 . S
O731 C734 1.305 . S
O732 Zn715 1.920 . S
O732 C734 1.234 . S
C733 O719 1.305 . S
C733 O720 1.234 . S
C734 O731 1.305 . S
C734 O732 1.234 . S
Zn735 O741 1.920 . S
Zn735 O747 1.898 . S
Zn735 O750 1.905 . S
Zn736 O744 1.905 . S
Zn736 O745 1.898 . S
Zn736 O753 1.920 . S
Zn737 O740 2.080 . S
Zn737 O743 2.114 . S
Zn737 O746 2.120 . S
Zn737 O748 2.120 . S
Zn737 O749 2.114 . S
Zn737 O752 2.080 . S
C738 O743 1.166 . S
C738 O744 1.182 . S
C739 O745 1.167 . S
C739 O746 1.299 . S
O740 Zn737 2.080 . S
O740 C754 1.305 . S
O741 Zn735 1.920 . S
O741 C754 1.234 . S
C742 O747 1.167 . S
C742 O748 1.299 . S
O743 Zn737 2.114 . S
O743 C738 1.166 . S
O744 Zn736 1.905 . S
O744 C738 1.182 . S
O745 Zn736 1.898 . S
O745 C739 1.167 . S
O746 Zn737 2.120 . S
O746 C739 1.299 . S
O747 Zn735 1.898 . S
O747 C742 1.167 . S
O748 Zn737 2.120 . S
O748 C742 1.299 . S
O749 Zn737 2.114 . S
O749 C751 1.166 . S
O750 Zn735 1.905 . S
O750 C751 1.182 . S
C751 O749 1.166 . S
C751 O750 1.182 . S
O752 Zn737 2.080 . S
O752 C755 1.305 . S
O753 Zn736 1.920 . S
O753 C755 1.234 . S
C754 O740 1.305 . S
C754 O741 1.234 . S
C755 O752 1.305 . S
C755 O753 1.234 . S
C756 C757 1.363 1_556 S
C756 C762 1.379 . S
C756 N764 1.356 . S
C757 C756 1.363 1_554 S
C757 C763 1.363 . S
C758 C759 1.363 1_554 S
C758 C763 1.379 . S
C758 N765 1.356 . S
C759 C758 1.363 1_556 S
C759 C762 1.363 . S
N760 C762 1.356 . S
N760 H772 0.984 . S
N760 H773 0.985 . S
N761 C763 1.356 . S
N761 H766 0.984 . S
N761 H767 0.985 . S
C762 C756 1.379 . S
C762 C759 1.363 . S
C762 N760 1.356 . S
C763 C757 1.363 . S
C763 C758 1.379 . S
C763 N761 1.356 . S
N764 C756 1.356 . S
N764 H770 0.984 . S
N764 H771 0.984 . S
N765 C758 1.356 . S
N765 H768 0.984 . S
N765 H769 0.985 . S
H766 N761 0.984 . S
H767 N761 0.985 . S
H768 N765 0.984 . S
H769 N765 0.985 . S
H770 N764 0.984 . S
H771 N764 0.984 . S
H772 N760 0.984 . S
H773 N760 0.985 . S
C774 C775 1.363 1_554 S
C774 C780 1.379 . S
C774 N782 1.372 . S
C775 C774 1.363 1_556 S
C775 C781 1.363 . S
C776 C777 1.363 1_556 S
C776 C781 1.379 . S
C776 N783 1.356 . S
C777 C776 1.363 1_554 S
C777 C780 1.363 . S
N778 C780 1.356 . S
N778 H790 0.984 . S
N778 H791 0.985 . S
N779 C781 1.356 . S
N779 H784 0.984 . S
N779 H785 0.985 . S
C780 C774 1.379 . S
C780 C777 1.363 . S
C780 N778 1.356 . S
C781 C775 1.363 . S
C781 C776 1.379 . S
C781 N779 1.356 . S
N782 C774 1.372 . S
N782 H788 0.976 1_655 S
N782 H789 0.977 1_655 S
N783 C776 1.356 . S
N783 H786 0.984 . S
N783 H787 0.985 . S
H784 N779 0.984 . S
H785 N779 0.985 . S
H786 N783 0.984 . S
H787 N783 0.985 . S
H788 N782 0.976 1_455 S
H789 N782 0.977 1_455 S
H790 N778 0.984 . S
H791 N778 0.985 . S
C792 C793 1.363 1_554 S
C792 C798 1.379 . S
C792 N800 1.356 1_554 S
C793 C792 1.363 1_556 S
C793 C799 1.363 . S
C794 C795 1.356 1_556 S
C794 C799 1.385 . S
C794 N801 1.354 1_556 S
C795 C794 1.356 1_554 S
C795 C798 1.363 . S
N796 C798 1.356 . S
N796 H808 0.984 . S
N796 H809 0.985 . S
N797 C799 1.356 . S
N797 H802 0.984 . S
N797 H803 0.985 . S
C798 C792 1.379 . S
C798 C795 1.363 . S
C798 N796 1.356 . S
C799 C793 1.363 . S
C799 C794 1.385 . S
C799 N797 1.356 . S
N800 C792 1.356 1_556 S
N800 H806 0.984 1_556 S
N800 H807 0.984 . S
N801 C794 1.354 1_554 S
N801 H804 0.984 . S
N801 H805 0.985 1_554 S
H802 N797 0.984 . S
H803 N797 0.985 . S
H804 N801 0.984 . S
H805 N801 0.985 1_556 S
H806 N800 0.984 1_554 S
H807 N800 0.984 . S
H808 N796 0.984 . S
H809 N796 0.985 . S
C810 C811 1.363 . S
C810 C816 1.379 . S
C810 N818 1.331 1_455 S
C811 C810 1.363 . S
C811 C817 1.363 . S
C812 C813 1.363 . S
C812 C817 1.379 . S
C812 N819 1.356 . S
C813 C812 1.363 . S
C813 C816 1.363 . S
N814 C816 1.356 . S
N814 H826 0.984 . S
N814 H827 0.985 . S
N815 C817 1.356 . S
N815 H820 0.984 . S
N815 H821 0.985 . S
C816 C810 1.379 . S
C816 C813 1.363 . S
C816 N814 1.356 . S
C817 C811 1.363 . S
C817 C812 1.379 . S
C817 N815 1.356 . S
N818 C810 1.331 1_655 S
N818 H824 0.982 . S
N818 H825 1.013 . S
N819 C812 1.356 . S
N819 H822 0.984 . S
N819 H823 0.985 . S
H820 N815 0.984 . S
H821 N815 0.985 . S
H822 N819 0.984 . S
H823 N819 0.985 . S
H824 N818 0.982 . S
H825 N818 1.013 . S
H826 N814 0.984 . S
H827 N814 0.985 . S
C828 C829 1.363 . S
C828 C834 1.379 . S
C828 N836 1.356 . S
C829 C828 1.363 . S
C829 C835 1.363 . S
C830 C831 1.363 . S
C830 C835 1.379 . S
C830 N837 1.356 . S
C831 C830 1.363 . S
C831 C834 1.363 . S
N832 C834 1.356 . S
N832 H844 0.984 . S
N832 H845 0.985 . S
N833 C835 1.356 . S
N833 H838 0.984 . S
N833 H839 0.985 . S
C834 C828 1.379 . S
C834 C831 1.363 . S
C834 N832 1.356 . S
C835 C829 1.363 . S
C835 C830 1.379 . S
C835 N833 1.356 . S
N836 C828 1.356 . S
N836 H842 0.984 . S
N836 H843 0.984 . S
N837 C830 1.356 . S
N837 H840 0.984 . S
N837 H841 0.985 . S
H838 N833 0.984 . S
H839 N833 0.985 . S
H840 N837 0.984 . S
H841 N837 0.985 . S
H842 N836 0.984 . S
H843 N836 0.984 . S
H844 N832 0.984 . S
H845 N832 0.985 . S
C846 C847 1.363 . S
C846 C852 1.379 . S
C846 N854 1.356 . S
C847 C846 1.363 . S
C847 C853 1.363 . S
C848 C849 1.363 . S
C848 C853 1.379 . S
C848 N855 1.356 . S
C849 C848 1.363 . S
C849 C852 1.363 . S
N850 C852 1.356 . S
N850 H862 0.984 . S
N850 H863 0.989 . S
N851 C853 1.356 . S
N851 H856 0.984 . S
N851 H857 0.985 . S
C852 C846 1.379 . S
C852 C849 1.363 . S
C852 N850 1.356 . S
C853 C847 1.363 . S
C853 C848 1.379 . S
C853 N851 1.356 . S
N854 C846 1.356 . S
N854 H860 0.984 . S
N854 H861 0.984 . S
N855 C848 1.356 . S
N855 H858 0.984 . S
N855 H859 0.985 . S
H856 N851 0.984 . S
H857 N851 0.985 . S
H858 N855 0.984 . S
H859 N855 0.985 . S
H860 N854 0.984 . S
H861 N854 0.984 . S
H862 N850 0.984 . S
H863 N850 0.989 . S
C864 C865 1.363 . S
C864 C870 1.379 . S
C864 N872 1.356 . S
C865 C864 1.363 . S
C865 C871 1.363 1_554 S
C866 C867 1.363 . S
C866 C871 1.379 . S
C866 N873 1.356 . S
C867 C866 1.363 . S
C867 C870 1.363 1_556 S
N868 C870 1.356 . S
N868 H880 0.984 . S
N868 H881 0.985 . S
N869 C871 1.356 . S
N869 H874 0.984 1_565 S
N869 H875 0.985 . S
C870 C864 1.379 . S
C870 C867 1.363 1_554 S
C870 N868 1.356 . S
C871 C865 1.363 1_556 S
C871 C866 1.379 . S
C871 N869 1.356 . S
N872 C864 1.356 . S
N872 H878 0.984 . S
N872 H879 0.984 . S
N873 C866 1.356 . S
N873 H876 0.984 . S
N873 H877 0.985 . S
H874 N869 0.984 1_545 S
H875 N869 0.985 . S
H876 N873 0.984 . S
H877 N873 0.985 . S
H878 N872 0.984 . S
H879 N872 0.984 . S
H880 N868 0.984 . S
H881 N868 0.985 . S
C882 C883 1.363 1_554 S
C882 C888 1.379 . S
C882 N890 1.356 . S
C883 C882 1.363 1_556 S
C883 C889 1.363 . S
C884 C885 1.363 1_556 S
C884 C889 1.379 . S
C884 N891 1.323 1_455 S
C885 C884 1.363 1_554 S
C885 C888 1.363 . S
N886 C888 1.356 . S
N886 H898 0.984 . S
N886 H899 0.985 . S
N887 C889 1.356 . S
N887 H892 0.984 . S
N887 H893 0.985 . S
C888 C882 1.379 . S
C888 C885 1.363 . S
C888 N886 1.356 . S
C889 C883 1.363 . S
C889 C884 1.379 . S
C889 N887 1.356 . S
N890 C882 1.356 . S
N890 H896 0.984 . S
N890 H897 0.984 . S
N891 C884 1.323 1_655 S
N891 H894 0.998 . S
N891 H895 1.006 . S
H892 N887 0.984 . S
H893 N887 0.985 . S
H894 N891 0.998 . S
H895 N891 1.006 . S
H896 N890 0.984 . S
H897 N890 0.984 . S
H898 N886 0.984 . S
H899 N886 0.985 . S
C900 C901 1.363 1_556 S
C900 C906 1.379 . S
C900 N908 1.356 . S
C901 C900 1.363 1_554 S
C901 C907 1.363 . S
C902 C903 1.363 1_554 S
C902 C907 1.379 . S
C902 N909 1.356 . S
C903 C902 1.363 1_556 S
C903 C906 1.363 . S
N904 C906 1.356 . S
N904 H916 0.984 . S
N904 H917 0.985 . S
N905 C907 1.356 . S
N905 H910 0.984 . S
N905 H911 0.985 . S
C906 C900 1.379 . S
C906 C903 1.363 . S
C906 N904 1.356 . S
C907 C901 1.363 . S
C907 C902 1.379 . S
C907 N905 1.356 . S
N908 C900 1.356 . S
N908 H914 0.984 . S
N908 H915 0.984 . S
N909 C902 1.356 . S
N909 H912 0.984 . S
N909 H913 0.985 . S
H910 N905 0.984 . S
H911 N905 0.985 . S
H912 N909 0.984 . S
H913 N909 0.985 . S
H914 N908 0.984 . S
H915 N908 0.984 . S
H916 N904 0.984 . S
H917 N904 0.985 . S
C918 C919 1.363 . S
C918 C924 1.379 . S
C918 N926 1.356 1_655 S
C919 C918 1.363 . S
C919 C925 1.363 . S
C920 C921 1.363 . S
C920 C925 1.379 . S
C920 N927 1.356 . S
C921 C920 1.363 . S
C921 C924 1.363 . S
N922 C924 1.356 . S
N922 H934 0.984 . S
N922 H935 0.985 . S
N923 C925 1.356 . S
N923 H928 0.984 . S
N923 H929 0.985 . S
C924 C918 1.379 . S
C924 C921 1.363 . S
C924 N922 1.356 . S
C925 C919 1.363 . S
C925 C920 1.379 . S
C925 N923 1.356 . S
N926 C918 1.356 1_455 S
N926 H932 0.984 . S
N926 H933 0.984 . S
N927 C920 1.356 . S
N927 H930 0.984 . S
N927 H931 0.985 . S
H928 N923 0.984 . S
H929 N923 0.985 . S
H930 N927 0.984 . S
H931 N927 0.985 . S
H932 N926 0.984 . S
H933 N926 0.984 . S
H934 N922 0.984 . S
H935 N922 0.985 . S
C936 C937 1.363 . S
C936 C942 1.379 . S
C936 N944 1.356 . S
C937 C936 1.363 . S
C937 C943 1.363 . S
C938 C939 1.363 . S
C938 C943 1.379 . S
C938 N945 1.356 . S
C939 C938 1.363 . S
C939 C942 1.363 . S
N940 C942 1.356 . S
N940 H952 0.984 . S
N940 H953 0.985 . S
N941 C943 1.356 . S
N941 H946 0.984 . S
N941 H947 0.985 . S
C942 C936 1.379 . S
C942 C939 1.363 . S
C942 N940 1.356 . S
C943 C937 1.363 . S
C943 C938 1.379 . S
C943 N941 1.356 . S
N944 C936 1.356 . S
N944 H950 0.984 . S
N944 H951 0.984 . S
N945 C938 1.356 . S
N945 H948 0.984 . S
N945 H949 0.985 . S
H946 N941 0.984 . S
H947 N941 0.985 . S
H948 N945 0.984 . S
H949 N945 0.985 . S
H950 N944 0.984 . S
H951 N944 0.984 . S
H952 N940 0.984 . S
H953 N940 0.985 . S
C954 C955 1.363 . S
C954 C960 1.379 . S
C954 N962 1.356 . S
C955 C954 1.363 . S
C955 C961 1.363 . S
C956 C957 1.363 . S
C956 C961 1.379 . S
C956 N963 1.356 . S
C957 C956 1.363 . S
C957 C960 1.363 . S
N958 C960 1.356 . S
N958 H970 0.984 . S
N958 H971 0.985 1_545 S
N959 C961 1.356 . S
N959 H964 0.984 . S
N959 H965 0.985 . S
C960 C954 1.379 . S
C960 C957 1.363 . S
C960 N958 1.356 . S
C961 C955 1.363 . S
C961 C956 1.379 . S
C961 N959 1.356 . S
N962 C954 1.356 . S
N962 H968 0.984 . S
N962 H969 0.984 . S
N963 C956 1.356 . S
N963 H966 0.984 . S
N963 H967 0.985 . S
H964 N959 0.984 . S
H965 N959 0.985 . S
H966 N963 0.984 . S
H967 N963 0.985 . S
H968 N962 0.984 . S
H969 N962 0.984 . S
H970 N958 0.984 . S
H971 N958 0.985 1_565 S
C972 C973 1.363 . S
C972 C978 1.379 . S
C972 N980 1.356 . S
C973 C972 1.363 . S
C973 C979 1.363 . S
C974 C975 1.363 . S
C974 C979 1.379 . S
C974 N981 1.356 . S
C975 C974 1.363 . S
C975 C978 1.363 . S
N976 C978 1.356 . S
N976 H988 0.984 . S
N976 H989 0.985 . S
N977 C979 1.356 . S
N977 H982 0.984 . S
N977 H983 0.985 . S
C978 C972 1.379 . S
C978 C975 1.363 . S
C978 N976 1.356 . S
C979 C973 1.363 . S
C979 C974 1.379 . S
C979 N977 1.356 . S
N980 C972 1.356 . S
N980 H986 0.984 . S
N980 H987 0.984 . S
N981 C974 1.356 . S
N981 H984 0.984 . S
N981 H985 0.985 . S
H982 N977 0.984 . S
H983 N977 0.985 . S
H984 N981 0.984 . S
H985 N981 0.985 . S
H986 N980 0.984 . S
H987 N980 0.984 . S
H988 N976 0.984 . S
H989 N976 0.985 . S
C990 C991 1.363 . S
C990 C996 1.379 . S
C990 N998 1.356 . S
C991 C990 1.363 . S
C991 C997 1.363 . S
C992 C993 1.363 . S
C992 C997 1.379 . S
C992 N999 1.356 . S
C993 C992 1.363 . S
C993 C996 1.363 . S
N994 C996 1.356 . S
N994 H1006 0.984 . S
N994 H1007 0.985 . S
N995 C997 1.356 . S
N995 H1000 0.984 . S
N995 H1001 0.985 . S
C996 C990 1.379 . S
C996 C993 1.363 . S
C996 N994 1.356 . S
C997 C991 1.363 . S
C997 C992 1.379 . S
C997 N995 1.356 . S
N998 C990 1.356 . S
N998 H1004 0.984 . S
N998 H1005 0.984 . S
N999 C992 1.356 . S
N999 H1002 0.984 . S
N999 H1003 0.985 . S
H1000 N995 0.984 . S
H1001 N995 0.985 . S
H1002 N999 0.984 . S
H1003 N999 0.985 . S
H1004 N998 0.984 . S
H1005 N998 0.984 . S
H1006 N994 0.984 . S
H1007 N994 0.985 . S
C1008 C1009 1.363 . S
C1008 C1014 1.379 . S
C1008 N1016 1.356 . S
C1009 C1008 1.363 . S
C1009 C1015 1.363 . S
C1010 C1011 1.363 . S
C1010 C1015 1.379 . S
C1010 N1017 1.356 . S
C1011 C1010 1.363 . S
C1011 C1014 1.363 . S
N1012 C1014 1.356 . S
N1012 H1024 0.984 . S
N1012 H1025 0.985 . S
N1013 C1015 1.356 . S
N1013 H1018 0.984 . S
N1013 H1019 0.985 . S
C1014 C1008 1.379 . S
C1014 C1011 1.363 . S
C1014 N1012 1.356 . S
C1015 C1009 1.363 . S
C1015 C1010 1.379 . S
C1015 N1013 1.356 . S
N1016 C1008 1.356 . S
N1016 H1022 0.984 . S
N1016 H1023 0.984 . S
N1017 C1010 1.356 . S
N1017 H1020 0.984 . S
N1017 H1021 0.985 . S
H1018 N1013 0.984 . S
H1019 N1013 0.985 . S
H1020 N1017 0.984 . S
H1021 N1017 0.985 . S
H1022 N1016 0.984 . S
H1023 N1016 0.984 . S
H1024 N1012 0.984 . S
H1025 N1012 0.985 . S
C1026 C1027 1.363 . S
C1026 C1032 1.379 . S
C1026 N1034 1.356 . S
C1027 C1026 1.363 . S
C1027 C1033 1.363 . S
C1028 C1029 1.363 . S
C1028 C1033 1.379 . S
C1028 N1035 1.356 . S
C1029 C1028 1.363 . S
C1029 C1032 1.363 . S
N1030 C1032 1.356 . S
N1030 H1042 0.984 . S
N1030 H1043 0.985 . S
N1031 C1033 1.356 . S
N1031 H1036 0.984 . S
N1031 H1037 0.985 . S
C1032 C1026 1.379 . S
C1032 C1029 1.363 . S
C1032 N1030 1.356 . S
C1033 C1027 1.363 . S
C1033 C1028 1.379 . S
C1033 N1031 1.356 . S
N1034 C1026 1.356 . S
N1034 H1040 0.984 . S
N1034 H1041 0.984 . S
N1035 C1028 1.356 . S
N1035 H1038 0.984 . S
N1035 H1039 0.985 . S
H1036 N1031 0.984 . S
H1037 N1031 0.985 . S
H1038 N1035 0.984 . S
H1039 N1035 0.985 . S
H1040 N1034 0.984 . S
H1041 N1034 0.984 . S
H1042 N1030 0.984 . S
H1043 N1030 0.985 . S
C1044 C1045 1.363 . S
C1044 C1050 1.379 . S
C1044 N1052 1.356 . S
C1045 C1044 1.363 . S
C1045 C1051 1.363 . S
C1046 C1047 1.363 . S
C1046 C1051 1.379 . S
C1046 N1053 1.356 . S
C1047 C1046 1.363 . S
C1047 C1050 1.363 . S
N1048 C1050 1.356 . S
N1048 H1060 0.984 . S
N1048 H1061 0.985 . S
N1049 C1051 1.356 . S
N1049 H1054 0.984 . S
N1049 H1055 0.985 . S
C1050 C1044 1.379 . S
C1050 C1047 1.363 . S
C1050 N1048 1.356 . S
C1051 C1045 1.363 . S
C1051 C1046 1.379 . S
C1051 N1049 1.356 . S
N1052 C1044 1.356 . S
N1052 H1058 0.984 . S
N1052 H1059 0.984 . S
N1053 C1046 1.356 . S
N1053 H1056 0.984 . S
N1053 H1057 0.985 . S
H1054 N1049 0.984 . S
H1055 N1049 0.985 . S
H1056 N1053 0.984 . S
H1057 N1053 0.985 . S
H1058 N1052 0.984 . S
H1059 N1052 0.984 . S
H1060 N1048 0.984 . S
H1061 N1048 0.985 . S
C1062 C1063 1.363 . S
C1062 C1068 1.379 . S
C1062 N1070 1.356 . S
C1063 C1062 1.363 . S
C1063 C1069 1.363 . S
C1064 C1065 1.363 . S
C1064 C1069 1.379 . S
C1064 N1071 1.356 . S
C1065 C1064 1.363 . S
C1065 C1068 1.363 . S
N1066 C1068 1.356 . S
N1066 H1078 0.984 . S
N1066 H1079 0.985 . S
N1067 C1069 1.356 . S
N1067 H1072 0.984 . S
N1067 H1073 0.985 . S
C1068 C1062 1.379 . S
C1068 C1065 1.363 . S
C1068 N1066 1.356 . S
C1069 C1063 1.363 . S
C1069 C1064 1.379 . S
C1069 N1067 1.356 . S
N1070 C1062 1.356 . S
N1070 H1076 0.984 . S
N1070 H1077 0.984 . S
N1071 C1064 1.356 . S
N1071 H1074 0.984 . S
N1071 H1075 0.985 . S
H1072 N1067 0.984 . S
H1073 N1067 0.985 . S
H1074 N1071 0.984 . S
H1075 N1071 0.985 . S
H1076 N1070 0.984 . S
H1077 N1070 0.984 . S
H1078 N1066 0.984 . S
H1079 N1066 0.985 . S
C1080 C1081 1.363 . S
C1080 C1086 1.379 . S
C1080 N1088 1.356 . S
C1081 C1080 1.363 . S
C1081 C1087 1.363 . S
C1082 C1083 1.363 . S
C1082 C1087 1.379 . S
C1082 N1089 1.356 . S
C1083 C1082 1.363 . S
C1083 C1086 1.363 . S
N1084 C1086 1.356 . S
N1084 H1096 0.984 . S
N1084 H1097 0.985 . S
N1085 C1087 1.356 . S
N1085 H1090 0.984 . S
N1085 H1091 0.985 . S
C1086 C1080 1.379 . S
C1086 C1083 1.363 . S
C1086 N1084 1.356 . S
C1087 C1081 1.363 . S
C1087 C1082 1.379 . S
C1087 N1085 1.356 . S
N1088 C1080 1.356 . S
N1088 H1094 0.984 . S
N1088 H1095 0.984 . S
N1089 C1082 1.356 . S
N1089 H1092 0.984 . S
N1089 H1093 0.985 . S
H1090 N1085 0.984 . S
H1091 N1085 0.985 . S
H1092 N1089 0.984 . S
H1093 N1089 0.985 . S
H1094 N1088 0.984 . S
H1095 N1088 0.984 . S
H1096 N1084 0.984 . S
H1097 N1084 0.985 . S
C1098 C1099 1.363 . S
C1098 C1104 1.379 . S
C1098 N1106 1.356 . S
C1099 C1098 1.363 . S
C1099 C1105 1.363 . S
C1100 C1101 1.363 . S
C1100 C1105 1.379 . S
C1100 N1107 1.356 . S
C1101 C1100 1.363 . S
C1101 C1104 1.363 . S
N1102 C1104 1.356 . S
N1102 H1114 0.984 . S
N1102 H1115 0.985 . S
N1103 C1105 1.356 . S
N1103 H1108 0.984 . S
N1103 H1109 0.985 . S
C1104 C1098 1.379 . S
C1104 C1101 1.363 . S
C1104 N1102 1.356 . S
C1105 C1099 1.363 . S
C1105 C1100 1.379 . S
C1105 N1103 1.356 . S
N1106 C1098 1.356 . S
N1106 H1112 0.984 . S
N1106 H1113 0.984 . S
N1107 C1100 1.356 . S
N1107 H1110 0.984 . S
N1107 H1111 0.985 . S
H1108 N1103 0.984 . S
H1109 N1103 0.985 . S
H1110 N1107 0.984 . S
H1111 N1107 0.985 . S
H1112 N1106 0.984 . S
H1113 N1106 0.984 . S
H1114 N1102 0.984 . S
H1115 N1102 0.985 . S
C1116 C1117 1.363 . S
C1116 C1122 1.379 . S
C1116 N1124 1.356 . S
C1117 C1116 1.363 . S
C1117 C1123 1.363 . S
C1118 C1119 1.363 . S
C1118 C1123 1.379 . S
C1118 N1125 1.356 . S
C1119 C1118 1.363 . S
C1119 C1122 1.363 . S
N1120 C1122 1.356 . S
N1120 H1132 0.984 . S
N1120 H1133 0.985 . S
N1121 C1123 1.356 . S
N1121 H1126 0.984 . S
N1121 H1127 0.985 . S
C1122 C1116 1.379 . S
C1122 C1119 1.363 . S
C1122 N1120 1.356 . S
C1123 C1117 1.363 . S
C1123 C1118 1.379 . S
C1123 N1121 1.356 . S
N1124 C1116 1.356 . S
N1124 H1130 0.984 . S
N1124 H1131 0.984 . S
N1125 C1118 1.356 . S
N1125 H1128 0.984 . S
N1125 H1129 0.985 . S
H1126 N1121 0.984 . S
H1127 N1121 0.985 . S
H1128 N1125 0.984 . S
H1129 N1125 0.985 . S
H1130 N1124 0.984 . S
H1131 N1124 0.984 . S
H1132 N1120 0.984 . S
H1133 N1120 0.985 . S
C1134 C1135 1.363 . S
C1134 C1140 1.379 . S
C1134 N1142 1.356 . S
C1135 C1134 1.363 . S
C1135 C1141 1.363 . S
C1136 C1137 1.363 . S
C1136 C1141 1.379 . S
C1136 N1143 1.356 . S
C1137 C1136 1.363 . S
C1137 C1140 1.363 . S
N1138 C1140 1.356 . S
N1138 H1150 0.984 . S
N1138 H1151 0.985 . S
N1139 C1141 1.356 . S
N1139 H1144 0.984 . S
N1139 H1145 0.985 . S
C1140 C1134 1.379 . S
C1140 C1137 1.363 . S
C1140 N1138 1.356 . S
C1141 C1135 1.363 . S
C1141 C1136 1.379 . S
C1141 N1139 1.356 . S
N1142 C1134 1.356 . S
N1142 H1148 0.984 . S
N1142 H1149 0.984 . S
N1143 C1136 1.356 . S
N1143 H1146 0.984 . S
N1143 H1147 0.985 . S
H1144 N1139 0.984 . S
H1145 N1139 0.985 . S
H1146 N1143 0.984 . S
H1147 N1143 0.985 . S
H1148 N1142 0.984 . S
H1149 N1142 0.984 . S
H1150 N1138 0.984 . S
H1151 N1138 0.985 . S
C1152 C1153 1.363 . S
C1152 C1158 1.379 . S
C1152 N1160 1.356 . S
C1153 C1152 1.363 . S
C1153 C1159 1.363 . S
C1154 C1155 1.363 . S
C1154 C1159 1.379 . S
C1154 N1161 1.356 . S
C1155 C1154 1.363 . S
C1155 C1158 1.363 . S
N1156 C1158 1.356 . S
N1156 H1168 0.984 . S
N1156 H1169 0.985 . S
N1157 C1159 1.356 . S
N1157 H1162 0.984 . S
N1157 H1163 0.985 . S
C1158 C1152 1.379 . S
C1158 C1155 1.363 . S
C1158 N1156 1.356 . S
C1159 C1153 1.363 . S
C1159 C1154 1.379 . S
C1159 N1157 1.356 . S
N1160 C1152 1.356 . S
N1160 H1166 0.984 . S
N1160 H1167 0.984 . S
N1161 C1154 1.356 . S
N1161 H1164 0.984 . S
N1161 H1165 0.985 . S
H1162 N1157 0.984 . S
H1163 N1157 0.985 . S
H1164 N1161 0.984 . S
H1165 N1161 0.985 . S
H1166 N1160 0.984 . S
H1167 N1160 0.984 . S
H1168 N1156 0.984 . S
H1169 N1156 0.985 . S
C1170 C1171 1.363 . S
C1170 C1176 1.379 . S
C1170 N1178 1.356 . S
C1171 C1170 1.363 . S
C1171 C1177 1.363 . S
C1172 C1173 1.363 . S
C1172 C1177 1.379 . S
C1172 N1179 1.356 . S
C1173 C1172 1.363 . S
C1173 C1176 1.363 . S
N1174 C1176 1.356 . S
N1174 H1186 0.984 . S
N1174 H1187 0.985 . S
N1175 C1177 1.356 . S
N1175 H1180 0.984 . S
N1175 H1181 0.985 . S
C1176 C1170 1.379 . S
C1176 C1173 1.363 . S
C1176 N1174 1.356 . S
C1177 C1171 1.363 . S
C1177 C1172 1.379 . S
C1177 N1175 1.356 . S
N1178 C1170 1.356 . S
N1178 H1184 0.984 . S
N1178 H1185 0.984 . S
N1179 C1172 1.356 . S
N1179 H1182 0.984 . S
N1179 H1183 0.985 . S
H1180 N1175 0.984 . S
H1181 N1175 0.985 . S
H1182 N1179 0.984 . S
H1183 N1179 0.985 . S
H1184 N1178 0.984 . S
H1185 N1178 0.984 . S
H1186 N1174 0.984 . S
H1187 N1174 0.985 . S
C1188 C1189 1.363 . S
C1188 C1194 1.379 . S
C1188 N1196 1.356 . S
C1189 C1188 1.363 . S
C1189 C1195 1.363 . S
C1190 C1191 1.363 . S
C1190 C1195 1.379 . S
C1190 N1197 1.356 . S
C1191 C1190 1.363 . S
C1191 C1194 1.363 . S
N1192 C1194 1.356 . S
N1192 H1204 0.984 . S
N1192 H1205 0.985 . S
N1193 C1195 1.356 . S
N1193 H1198 0.984 . S
N1193 H1199 0.985 . S
C1194 C1188 1.379 . S
C1194 C1191 1.363 . S
C1194 N1192 1.356 . S
C1195 C1189 1.363 . S
C1195 C1190 1.379 . S
C1195 N1193 1.356 . S
N1196 C1188 1.356 . S
N1196 H1202 0.984 . S
N1196 H1203 0.984 . S
N1197 C1190 1.356 . S
N1197 H1200 0.984 . S
N1197 H1201 0.985 . S
H1198 N1193 0.984 . S
H1199 N1193 0.985 . S
H1200 N1197 0.984 . S
H1201 N1197 0.985 . S
H1202 N1196 0.984 . S
H1203 N1196 0.984 . S
H1204 N1192 0.984 . S
H1205 N1192 0.985 . S
C1206 C1207 1.363 . S
C1206 C1212 1.379 . S
C1206 N1214 1.356 . S
C1207 C1206 1.363 . S
C1207 C1213 1.363 . S
C1208 C1209 1.363 . S
C1208 C1213 1.379 . S
C1208 N1215 1.356 . S
C1209 C1208 1.363 . S
C1209 C1212 1.363 . S
N1210 C1212 1.356 . S
N1210 H1222 0.984 . S
N1210 H1223 0.985 . S
N1211 C1213 1.356 . S
N1211 H1216 0.984 . S
N1211 H1217 0.985 . S
C1212 C1206 1.379 . S
C1212 C1209 1.363 . S
C1212 N1210 1.356 . S
C1213 C1207 1.363 . S
C1213 C1208 1.379 . S
C1213 N1211 1.356 . S
N1214 C1206 1.356 . S
N1214 H1220 0.984 . S
N1214 H1221 0.984 . S
N1215 C1208 1.356 . S
N1215 H1218 0.984 . S
N1215 H1219 0.985 . S
H1216 N1211 0.984 . S
H1217 N1211 0.985 . S
H1218 N1215 0.984 . S
H1219 N1215 0.985 . S
H1220 N1214 0.984 . S
H1221 N1214 0.984 . S
H1222 N1210 0.984 . S
H1223 N1210 0.985 . S
C1224 C1225 1.363 . S
C1224 C1230 1.379 . S
C1224 N1232 1.356 . S
C1225 C1224 1.363 . S
C1225 C1231 1.363 . S
C1226 C1227 1.363 . S
C1226 C1231 1.379 . S
C1226 N1233 1.356 . S
C1227 C1226 1.363 . S
C1227 C1230 1.363 . S
N1228 C1230 1.356 . S
N1228 H1240 0.984 . S
N1228 H1241 0.985 . S
N1229 C1231 1.356 . S
N1229 H1234 0.984 . S
N1229 H1235 0.985 . S
C1230 C1224 1.379 . S
C1230 C1227 1.363 . S
C1230 N1228 1.356 . S
C1231 C1225 1.363 . S
C1231 C1226 1.379 . S
C1231 N1229 1.356 . S
N1232 C1224 1.356 . S
N1232 H1238 0.984 . S
N1232 H1239 0.984 . S
N1233 C1226 1.356 . S
N1233 H1236 0.984 . S
N1233 H1237 0.985 . S
H1234 N1229 0.984 . S
H1235 N1229 0.985 . S
H1236 N1233 0.984 . S
H1237 N1233 0.985 . S
H1238 N1232 0.984 . S
H1239 N1232 0.984 . S
H1240 N1228 0.984 . S
H1241 N1228 0.985 . S
C1242 C1243 1.363 . S
C1242 C1248 1.379 . S
C1242 N1250 1.356 . S
C1243 C1242 1.363 . S
C1243 C1249 1.363 . S
C1244 C1245 1.363 . S
C1244 C1249 1.379 . S
C1244 N1251 1.356 . S
C1245 C1244 1.363 . S
C1245 C1248 1.363 . S
N1246 C1248 1.356 . S
N1246 H1258 0.984 . S
N1246 H1259 0.985 . S
N1247 C1249 1.356 . S
N1247 H1252 0.984 . S
N1247 H1253 0.985 . S
C1248 C1242 1.379 . S
C1248 C1245 1.363 . S
C1248 N1246 1.356 . S
C1249 C1243 1.363 . S
C1249 C1244 1.379 . S
C1249 N1247 1.356 . S
N1250 C1242 1.356 . S
N1250 H1256 0.984 . S
N1250 H1257 0.984 . S
N1251 C1244 1.356 . S
N1251 H1254 0.984 . S
N1251 H1255 0.985 . S
H1252 N1247 0.984 . S
H1253 N1247 0.985 . S
H1254 N1251 0.984 . S
H1255 N1251 0.985 . S
H1256 N1250 0.984 . S
H1257 N1250 0.984 . S
H1258 N1246 0.984 . S
H1259 N1246 0.985 . S
C1260 C1261 1.363 . S
C1260 C1266 1.379 . S
C1260 N1268 1.356 . S
C1261 C1260 1.363 . S
C1261 C1267 1.363 . S
C1262 C1263 1.363 . S
C1262 C1267 1.379 . S
C1262 N1269 1.356 . S
C1263 C1262 1.363 . S
C1263 C1266 1.363 . S
N1264 C1266 1.356 . S
N1264 H1276 0.984 . S
N1264 H1277 0.985 . S
N1265 C1267 1.356 . S
N1265 H1270 0.984 . S
N1265 H1271 0.985 . S
C1266 C1260 1.379 . S
C1266 C1263 1.363 . S
C1266 N1264 1.356 . S
C1267 C1261 1.363 . S
C1267 C1262 1.379 . S
C1267 N1265 1.356 . S
N1268 C1260 1.356 . S
N1268 H1274 0.984 . S
N1268 H1275 0.984 . S
N1269 C1262 1.356 . S
N1269 H1272 0.984 . S
N1269 H1273 0.985 . S
H1270 N1265 0.984 . S
H1271 N1265 0.985 . S
H1272 N1269 0.984 . S
H1273 N1269 0.985 . S
H1274 N1268 0.984 . S
H1275 N1268 0.984 . S
H1276 N1264 0.984 . S
H1277 N1264 0.985 . S
C1278 C1279 1.363 . S
C1278 C1284 1.379 . S
C1278 N1286 1.356 . S
C1279 C1278 1.363 . S
C1279 C1285 1.363 . S
C1280 C1281 1.363 . S
C1280 C1285 1.379 . S
C1280 N1287 1.356 . S
C1281 C1280 1.363 . S
C1281 C1284 1.363 . S
N1282 C1284 1.356 . S
N1282 H1294 0.984 . S
N1282 H1295 0.985 . S
N1283 C1285 1.356 . S
N1283 H1288 0.984 . S
N1283 H1289 0.985 . S
C1284 C1278 1.379 . S
C1284 C1281 1.363 . S
C1284 N1282 1.356 . S
C1285 C1279 1.363 . S
C1285 C1280 1.379 . S
C1285 N1283 1.356 . S
N1286 C1278 1.356 . S
N1286 H1292 0.984 . S
N1286 H1293 0.984 . S
N1287 C1280 1.356 . S
N1287 H1290 0.984 . S
N1287 H1291 0.985 . S
H1288 N1283 0.984 . S
H1289 N1283 0.985 . S
H1290 N1287 0.984 . S
H1291 N1287 0.985 . S
H1292 N1286 0.984 . S
H1293 N1286 0.984 . S
H1294 N1282 0.984 . S
H1295 N1282 0.985 . S
C1296 C1297 1.363 . S
C1296 C1302 1.379 . S
C1296 N1304 1.356 . S
C1297 C1296 1.363 . S
C1297 C1303 1.363 . S
C1298 C1299 1.363 . S
C1298 C1303 1.379 . S
C1298 N1305 1.356 . S
C1299 C1298 1.363 . S
C1299 C1302 1.363 . S
N1300 C1302 1.356 . S
N1300 H1312 0.984 . S
N1300 H1313 0.985 . S
N1301 C1303 1.356 . S
N1301 H1306 0.984 . S
N1301 H1307 0.985 . S
C1302 C1296 1.379 . S
C1302 C1299 1.363 . S
C1302 N1300 1.356 . S
C1303 C1297 1.363 . S
C1303 C1298 1.379 . S
C1303 N1301 1.356 . S
N1304 C1296 1.356 . S
N1304 H1310 0.984 . S
N1304 H1311 0.984 . S
N1305 C1298 1.356 . S
N1305 H1308 0.984 . S
N1305 H1309 0.985 . S
H1306 N1301 0.984 . S
H1307 N1301 0.985 . S
H1308 N1305 0.984 . S
H1309 N1305 0.985 . S
H1310 N1304 0.984 . S
H1311 N1304 0.984 . S
H1312 N1300 0.984 . S
H1313 N1300 0.985 . S
C1314 C1315 1.363 . S
C1314 C1320 1.379 . S
C1314 N1322 1.356 . S
C1315 C1314 1.363 . S
C1315 C1321 1.363 . S
C1316 C1317 1.363 . S
C1316 C1321 1.379 . S
C1316 N1323 1.356 . S
C1317 C1316 1.363 . S
C1317 C1320 1.363 . S
N1318 C1320 1.356 . S
N1318 H1330 0.984 . S
N1318 H1331 0.985 . S
N1319 C1321 1.356 . S
N1319 H1324 0.984 . S
N1319 H1325 0.985 . S
C1320 C1314 1.379 . S
C1320 C1317 1.363 . S
C1320 N1318 1.356 . S
C1321 C1315 1.363 . S
C1321 C1316 1.379 . S
C1321 N1319 1.356 . S
N1322 C1314 1.356 . S
N1322 H1328 0.984 . S
N1322 H1329 0.984 . S
N1323 C1316 1.356 . S
N1323 H1326 0.984 . S
N1323 H1327 0.985 . S
H1324 N1319 0.984 . S
H1325 N1319 0.985 . S
H1326 N1323 0.984 . S
H1327 N1323 0.985 . S
H1328 N1322 0.984 . S
H1329 N1322 0.984 . S
H1330 N1318 0.984 . S
H1331 N1318 0.985 . S
C1332 C1333 1.363 . S
C1332 C1338 1.379 . S
C1332 N1340 1.356 . S
C1333 C1332 1.363 . S
C1333 C1339 1.363 . S
C1334 C1335 1.363 . S
C1334 C1339 1.379 . S
C1334 N1341 1.356 . S
C1335 C1334 1.363 . S
C1335 C1338 1.363 . S
N1336 C1338 1.356 . S
N1336 H1348 0.984 . S
N1336 H1349 0.985 . S
N1337 C1339 1.356 . S
N1337 H1342 0.984 . S
N1337 H1343 0.985 . S
C1338 C1332 1.379 . S
C1338 C1335 1.363 . S
C1338 N1336 1.356 . S
C1339 C1333 1.363 . S
C1339 C1334 1.379 . S
C1339 N1337 1.356 . S
N1340 C1332 1.356 . S
N1340 H1346 0.984 . S
N1340 H1347 0.984 . S
N1341 C1334 1.356 . S
N1341 H1344 0.984 . S
N1341 H1345 0.985 . S
H1342 N1337 0.984 . S
H1343 N1337 0.985 . S
H1344 N1341 0.984 . S
H1345 N1341 0.985 . S
H1346 N1340 0.984 . S
H1347 N1340 0.984 . S
H1348 N1336 0.984 . S
H1349 N1336 0.985 . S
C1350 C1351 1.363 . S
C1350 C1356 1.379 . S
C1350 N1358 1.356 . S
C1351 C1350 1.363 . S
C1351 C1357 1.363 . S
C1352 C1353 1.363 . S
C1352 C1357 1.379 . S
C1352 N1359 1.356 . S
C1353 C1352 1.363 . S
C1353 C1356 1.363 . S
N1354 C1356 1.356 . S
N1354 H1366 0.984 . S
N1354 H1367 0.985 . S
N1355 C1357 1.356 . S
N1355 H1360 0.984 . S
N1355 H1361 0.985 . S
C1356 C1350 1.379 . S
C1356 C1353 1.363 . S
C1356 N1354 1.356 . S
C1357 C1351 1.363 . S
C1357 C1352 1.379 . S
C1357 N1355 1.356 . S
N1358 C1350 1.356 . S
N1358 H1364 0.984 . S
N1358 H1365 0.984 . S
N1359 C1352 1.356 . S
N1359 H1362 0.984 . S
N1359 H1363 0.985 . S
H1360 N1355 0.984 . S
H1361 N1355 0.985 . S
H1362 N1359 0.984 . S
H1363 N1359 0.985 . S
H1364 N1358 0.984 . S
H1365 N1358 0.984 . S
H1366 N1354 0.984 . S
H1367 N1354 0.985 . S
C1368 C1369 1.363 . S
C1368 C1374 1.379 . S
C1368 N1376 1.356 . S
C1369 C1368 1.363 . S
C1369 C1375 1.363 . S
C1370 C1371 1.363 . S
C1370 C1375 1.379 . S
C1370 N1377 1.356 . S
C1371 C1370 1.363 . S
C1371 C1374 1.363 . S
N1372 C1374 1.356 . S
N1372 H1384 0.984 . S
N1372 H1385 0.985 . S
N1373 C1375 1.356 . S
N1373 H1378 0.984 . S
N1373 H1379 0.985 . S
C1374 C1368 1.379 . S
C1374 C1371 1.363 . S
C1374 N1372 1.356 . S
C1375 C1369 1.363 . S
C1375 C1370 1.379 . S
C1375 N1373 1.356 . S
N1376 C1368 1.356 . S
N1376 H1382 0.984 . S
N1376 H1383 0.984 . S
N1377 C1370 1.356 . S
N1377 H1380 0.984 . S
N1377 H1381 0.985 . S
H1378 N1373 0.984 . S
H1379 N1373 0.985 . S
H1380 N1377 0.984 . S
H1381 N1377 0.985 . S
H1382 N1376 0.984 . S
H1383 N1376 0.984 . S
H1384 N1372 0.984 . S
H1385 N1372 0.985 . S
C1386 C1387 1.363 . S
C1386 C1392 1.379 . S
C1386 N1394 1.356 . S
C1387 C1386 1.363 . S
C1387 C1393 1.363 . S
C1388 C1389 1.363 . S
C1388 C1393 1.379 . S
C1388 N1395 1.356 . S
C1389 C1388 1.363 . S
C1389 C1392 1.363 . S
N1390 C1392 1.356 . S
N1390 H1402 0.984 . S
N1390 H1403 0.985 . S
N1391 C1393 1.356 . S
N1391 H1396 0.984 . S
N1391 H1397 0.985 . S
C1392 C1386 1.379 . S
C1392 C1389 1.363 . S
C1392 N1390 1.356 . S
C1393 C1387 1.363 . S
C1393 C1388 1.379 . S
C1393 N1391 1.356 . S
N1394 C1386 1.356 . S
N1394 H1400 0.984 . S
N1394 H1401 0.984 . S
N1395 C1388 1.356 . S
N1395 H1398 0.984 . S
N1395 H1399 0.985 . S
H1396 N1391 0.984 . S
H1397 N1391 0.985 . S
H1398 N1395 0.984 . S
H1399 N1395 0.985 . S
H1400 N1394 0.984 . S
H1401 N1394 0.984 . S
H1402 N1390 0.984 . S
H1403 N1390 0.985 . S
C1404 C1405 1.363 . S
C1404 C1410 1.379 . S
C1404 N1412 1.356 . S
C1405 C1404 1.363 . S
C1405 C1411 1.363 . S
C1406 C1407 1.363 . S
C1406 C1411 1.379 . S
C1406 N1413 1.356 . S
C1407 C1406 1.363 . S
C1407 C1410 1.363 . S
N1408 C1410 1.356 . S
N1408 H1420 0.984 . S
N1408 H1421 0.985 . S
N1409 C1411 1.356 . S
N1409 H1414 0.984 . S
N1409 H1415 0.985 . S
C1410 C1404 1.379 . S
C1410 C1407 1.363 . S
C1410 N1408 1.356 . S
C1411 C1405 1.363 . S
C1411 C1406 1.379 . S
C1411 N1409 1.356 . S
N1412 C1404 1.356 . S
N1412 H1418 0.984 . S
N1412 H1419 0.984 . S
N1413 C1406 1.356 . S
N1413 H1416 0.984 . S
N1413 H1417 0.985 . S
H1414 N1409 0.984 . S
H1415 N1409 0.985 . S
H1416 N1413 0.984 . S
H1417 N1413 0.985 . S
H1418 N1412 0.984 . S
H1419 N1412 0.984 . S
H1420 N1408 0.984 . S
H1421 N1408 0.985 . S
C1422 C1423 1.363 . S
C1422 C1428 1.379 . S
C1422 N1430 1.356 . S
C1423 C1422 1.363 . S
C1423 C1429 1.363 . S
C1424 C1425 1.363 . S
C1424 C1429 1.379 . S
C1424 N1431 1.356 . S
C1425 C1424 1.363 . S
C1425 C1428 1.363 . S
N1426 C1428 1.356 . S
N1426 H1438 0.984 . S
N1426 H1439 0.985 . S
N1427 C1429 1.356 . S
N1427 H1432 0.984 . S
N1427 H1433 0.985 . S
C1428 C1422 1.379 . S
C1428 C1425 1.363 . S
C1428 N1426 1.356 . S
C1429 C1423 1.363 . S
C1429 C1424 1.379 . S
C1429 N1427 1.356 . S
N1430 C1422 1.356 . S
N1430 H1436 0.984 . S
N1430 H1437 0.984 . S
N1431 C1424 1.356 . S
N1431 H1434 0.984 . S
N1431 H1435 0.985 . S
H1432 N1427 0.984 . S
H1433 N1427 0.985 . S
H1434 N1431 0.984 . S
H1435 N1431 0.985 . S
H1436 N1430 0.984 . S
H1437 N1430 0.984 . S
H1438 N1426 0.984 . S
H1439 N1426 0.985 . S
C1440 C1441 1.363 . S
C1440 C1446 1.379 . S
C1440 N1448 1.356 . S
C1441 C1440 1.363 . S
C1441 C1447 1.363 . S
C1442 C1443 1.363 . S
C1442 C1447 1.379 . S
C1442 N1449 1.356 . S
C1443 C1442 1.363 . S
C1443 C1446 1.363 . S
N1444 C1446 1.356 . S
N1444 H1456 0.984 . S
N1444 H1457 0.985 . S
N1445 C1447 1.356 . S
N1445 H1450 0.984 . S
N1445 H1451 0.985 . S
C1446 C1440 1.379 . S
C1446 C1443 1.363 . S
C1446 N1444 1.356 . S
C1447 C1441 1.363 . S
C1447 C1442 1.379 . S
C1447 N1445 1.356 . S
N1448 C1440 1.356 . S
N1448 H1454 0.984 . S
N1448 H1455 0.984 . S
N1449 C1442 1.356 . S
N1449 H1452 0.984 . S
N1449 H1453 0.985 . S
H1450 N1445 0.984 . S
H1451 N1445 0.985 . S
H1452 N1449 0.984 . S
H1453 N1449 0.985 . S
H1454 N1448 0.984 . S
H1455 N1448 0.984 . S
H1456 N1444 0.984 . S
H1457 N1444 0.985 . S
C1458 C1459 1.363 . S
C1458 C1464 1.379 . S
C1458 N1466 1.356 . S
C1459 C1458 1.363 . S
C1459 C1465 1.363 . S
C1460 C1461 1.363 . S
C1460 C1465 1.379 . S
C1460 N1467 1.356 . S
C1461 C1460 1.363 . S
C1461 C1464 1.363 . S
N1462 C1464 1.356 . S
N1462 H1474 0.984 . S
N1462 H1475 0.985 . S
N1463 C1465 1.356 . S
N1463 H1468 0.984 . S
N1463 H1469 0.985 . S
C1464 C1458 1.379 . S
C1464 C1461 1.363 . S
C1464 N1462 1.356 . S
C1465 C1459 1.363 . S
C1465 C1460 1.379 . S
C1465 N1463 1.356 . S
N1466 C1458 1.356 . S
N1466 H1472 0.984 . S
N1466 H1473 0.984 . S
N1467 C1460 1.356 . S
N1467 H1470 0.984 . S
N1467 H1471 0.985 . S
H1468 N1463 0.984 . S
H1469 N1463 0.985 . S
H1470 N1467 0.984 . S
H1471 N1467 0.985 . S
H1472 N1466 0.984 . S
H1473 N1466 0.984 . S
H1474 N1462 0.984 . S
H1475 N1462 0.985 . S
C1476 C1477 1.363 . S
C1476 C1482 1.379 . S
C1476 N1484 1.356 . S
C1477 C1476 1.363 . S
C1477 C1483 1.363 . S
C1478 C1479 1.363 . S
C1478 C1483 1.379 . S
C1478 N1485 1.356 . S
C1479 C1478 1.363 . S
C1479 C1482 1.363 . S
N1480 C1482 1.356 . S
N1480 H1492 0.984 . S
N1480 H1493 0.985 . S
N1481 C1483 1.356 . S
N1481 H1486 0.984 . S
N1481 H1487 0.985 . S
C1482 C1476 1.379 . S
C1482 C1479 1.363 . S
C1482 N1480 1.356 . S
C1483 C1477 1.363 . S
C1483 C1478 1.379 . S
C1483 N1481 1.356 . S
N1484 C1476 1.356 . S
N1484 H1490 0.984 . S
N1484 H1491 0.984 . S
N1485 C1478 1.356 . S
N1485 H1488 0.984 . S
N1485 H1489 0.985 . S
H1486 N1481 0.984 . S
H1487 N1481 0.985 . S
H1488 N1485 0.984 . S
H1489 N1485 0.985 . S
H1490 N1484 0.984 . S
H1491 N1484 0.984 . S
H1492 N1480 0.984 . S
H1493 N1480 0.985 . S
C1494 C1495 1.363 . S
C1494 C1500 1.379 . S
C1494 N1502 1.356 . S
C1495 C1494 1.363 . S
C1495 C1501 1.363 . S
C1496 C1497 1.363 . S
C1496 C1501 1.379 . S
C1496 N1503 1.356 . S
C1497 C1496 1.363 . S
C1497 C1500 1.363 . S
N1498 C1500 1.356 . S
N1498 H1510 0.984 . S
N1498 H1511 0.985 . S
N1499 C1501 1.356 . S
N1499 H1504 0.984 . S
N1499 H1505 0.985 . S
C1500 C1494 1.379 . S
C1500 C1497 1.363 . S
C1500 N1498 1.356 . S
C1501 C1495 1.363 . S
C1501 C1496 1.379 . S
C1501 N1499 1.356 . S
N1502 C1494 1.356 . S
N1502 H1508 0.984 . S
N1502 H1509 0.984 . S
N1503 C1496 1.356 . S
N1503 H1506 0.984 . S
N1503 H1507 0.985 . S
H1504 N1499 0.984 . S
H1505 N1499 0.985 . S
H1506 N1503 0.984 . S
H1507 N1503 0.985 . S
H1508 N1502 0.984 . S
H1509 N1502 0.984 . S
H1510 N1498 0.984 . S
H1511 N1498 0.985 . S
C1512 C1513 1.363 . S
C1512 C1518 1.379 . S
C1512 N1520 1.356 . S
C1513 C1512 1.363 . S
C1513 C1519 1.363 . S
C1514 C1515 1.363 . S
C1514 C1519 1.379 . S
C1514 N1521 1.356 . S
C1515 C1514 1.363 . S
C1515 C1518 1.363 . S
N1516 C1518 1.356 . S
N1516 H1528 0.984 . S
N1516 H1529 0.985 . S
N1517 C1519 1.356 . S
N1517 H1522 0.984 . S
N1517 H1523 0.985 . S
C1518 C1512 1.379 . S
C1518 C1515 1.363 . S
C1518 N1516 1.356 . S
C1519 C1513 1.363 . S
C1519 C1514 1.379 . S
C1519 N1517 1.356 . S
N1520 C1512 1.356 . S
N1520 H1526 0.984 . S
N1520 H1527 0.984 . S
N1521 C1514 1.356 . S
N1521 H1524 0.984 . S
N1521 H1525 0.985 . S
H1522 N1517 0.984 . S
H1523 N1517 0.985 . S
H1524 N1521 0.984 . S
H1525 N1521 0.985 . S
H1526 N1520 0.984 . S
H1527 N1520 0.984 . S
H1528 N1516 0.984 . S
H1529 N1516 0.985 . S
C1530 C1531 1.363 . S
C1530 C1536 1.379 . S
C1530 N1538 1.356 . S
C1531 C1530 1.363 . S
C1531 C1537 1.363 . S
C1532 C1533 1.363 . S
C1532 C1537 1.379 . S
C1532 N1539 1.356 . S
C1533 C1532 1.363 . S
C1533 C1536 1.363 . S
N1534 C1536 1.356 . S
N1534 H1546 0.984 . S
N1534 H1547 0.985 . S
N1535 C1537 1.356 . S
N1535 H1540 0.984 . S
N1535 H1541 0.985 . S
C1536 C1530 1.379 . S
C1536 C1533 1.363 . S
C1536 N1534 1.356 . S
C1537 C1531 1.363 . S
C1537 C1532 1.379 . S
C1537 N1535 1.356 . S
N1538 C1530 1.356 . S
N1538 H1544 0.984 . S
N1538 H1545 0.984 . S
N1539 C1532 1.356 . S
N1539 H1542 0.984 . S
N1539 H1543 0.985 . S
H1540 N1535 0.984 . S
H1541 N1535 0.985 . S
H1542 N1539 0.984 . S
H1543 N1539 0.985 . S
H1544 N1538 0.984 . S
H1545 N1538 0.984 . S
H1546 N1534 0.984 . S
H1547 N1534 0.985 . S
C1548 C1549 1.363 . S
C1548 C1554 1.379 . S
C1548 N1556 1.356 . S
C1549 C1548 1.363 . S
C1549 C1555 1.363 . S
C1550 C1551 1.363 . S
C1550 C1555 1.379 . S
C1550 N1557 1.356 . S
C1551 C1550 1.363 . S
C1551 C1554 1.363 . S
N1552 C1554 1.356 . S
N1552 H1564 0.984 . S
N1552 H1565 0.985 . S
N1553 C1555 1.356 . S
N1553 H1558 0.984 . S
N1553 H1559 0.985 . S
C1554 C1548 1.379 . S
C1554 C1551 1.363 . S
C1554 N1552 1.356 . S
C1555 C1549 1.363 . S
C1555 C1550 1.379 . S
C1555 N1553 1.356 . S
N1556 C1548 1.356 . S
N1556 H1562 0.984 . S
N1556 H1563 0.984 . S
N1557 C1550 1.356 . S
N1557 H1560 0.984 . S
N1557 H1561 0.985 . S
H1558 N1553 0.984 . S
H1559 N1553 0.985 . S
H1560 N1557 0.984 . S
H1561 N1557 0.985 . S
H1562 N1556 0.984 . S
H1563 N1556 0.984 . S
H1564 N1552 0.984 . S
H1565 N1552 0.985 . S
C1566 C1567 1.363 . S
C1566 C1572 1.379 . S
C1566 N1574 1.356 . S
C1567 C1566 1.363 . S
C1567 C1573 1.363 . S
C1568 C1569 1.363 . S
C1568 C1573 1.379 . S
C1568 N1575 1.356 . S
C1569 C1568 1.363 . S
C1569 C1572 1.363 . S
N1570 C1572 1.356 . S
N1570 H1582 0.984 . S
N1570 H1583 0.985 . S
N1571 C1573 1.356 . S
N1571 H1576 0.984 . S
N1571 H1577 0.985 . S
C1572 C1566 1.379 . S
C1572 C1569 1.363 . S
C1572 N1570 1.356 . S
C1573 C1567 1.363 . S
C1573 C1568 1.379 . S
C1573 N1571 1.356 . S
N1574 C1566 1.356 . S
N1574 H1580 0.984 . S
N1574 H1581 0.984 . S
N1575 C1568 1.356 . S
N1575 H1578 0.984 . S
N1575 H1579 0.985 . S
H1576 N1571 0.984 . S
H1577 N1571 0.985 . S
H1578 N1575 0.984 . S
H1579 N1575 0.985 . S
H1580 N1574 0.984 . S
H1581 N1574 0.984 . S
H1582 N1570 0.984 . S
H1583 N1570 0.985 . S
C1584 C1585 1.363 . S
C1584 C1590 1.379 . S
C1584 N1592 1.356 . S
C1585 C1584 1.363 . S
C1585 C1591 1.363 . S
C1586 C1587 1.363 . S
C1586 C1591 1.379 . S
C1586 N1593 1.356 . S
C1587 C1586 1.363 . S
C1587 C1590 1.363 . S
N1588 C1590 1.356 . S
N1588 H1600 0.984 . S
N1588 H1601 0.985 . S
N1589 C1591 1.356 . S
N1589 H1594 0.984 . S
N1589 H1595 0.985 . S
C1590 C1584 1.379 . S
C1590 C1587 1.363 . S
C1590 N1588 1.356 . S
C1591 C1585 1.363 . S
C1591 C1586 1.379 . S
C1591 N1589 1.356 . S
N1592 C1584 1.356 . S
N1592 H1598 0.984 . S
N1592 H1599 0.984 . S
N1593 C1586 1.356 . S
N1593 H1596 0.984 . S
N1593 H1597 0.985 . S
H1594 N1589 0.984 . S
H1595 N1589 0.985 . S
H1596 N1593 0.984 . S
H1597 N1593 0.985 . S
H1598 N1592 0.984 . S
H1599 N1592 0.984 . S
H1600 N1588 0.984 . S
H1601 N1588 0.985 . S
C1602 C1603 1.363 . S
C1602 C1608 1.379 . S
C1602 N1610 1.356 . S
C1603 C1602 1.363 . S
C1603 C1609 1.363 . S
C1604 C1605 1.363 . S
C1604 C1609 1.379 . S
C1604 N1611 1.356 . S
C1605 C1604 1.363 . S
C1605 C1608 1.363 . S
N1606 C1608 1.356 . S
N1606 H1618 0.984 . S
N1606 H1619 0.985 . S
N1607 C1609 1.356 . S
N1607 H1612 0.984 . S
N1607 H1613 0.985 . S
C1608 C1602 1.379 . S
C1608 C1605 1.363 . S
C1608 N1606 1.356 . S
C1609 C1603 1.363 . S
C1609 C1604 1.379 . S
C1609 N1607 1.356 . S
N1610 C1602 1.356 . S
N1610 H1616 0.984 . S
N1610 H1617 0.984 . S
N1611 C1604 1.356 . S
N1611 H1614 0.984 . S
N1611 H1615 0.985 . S
H1612 N1607 0.984 . S
H1613 N1607 0.985 . S
H1614 N1611 0.984 . S
H1615 N1611 0.985 . S
H1616 N1610 0.984 . S
H1617 N1610 0.984 . S
H1618 N1606 0.984 . S
H1619 N1606 0.985 . S
C1620 C1621 1.363 1_455 S
C1620 C1626 1.379 . S
C1620 N1628 1.356 1_455 S
C1621 C1620 1.363 1_655 S
C1621 C1627 1.363 . S
C1622 C1623 1.363 1_655 S
C1622 C1627 1.379 . S
C1622 N1629 1.356 1_655 S
C1623 C1622 1.363 1_455 S
C1623 C1626 1.363 . S
N1624 C1626 1.356 . S
N1624 H1636 0.984 . S
N1624 H1637 0.985 . S
N1625 C1627 1.356 . S
N1625 H1630 0.984 . S
N1625 H1631 0.985 . S
C1626 C1620 1.379 . S
C1626 C1623 1.363 . S
C1626 N1624 1.356 . S
C1627 C1621 1.363 . S
C1627 C1622 1.379 . S
C1627 N1625 1.356 . S
N1628 C1620 1.356 1_655 S
N1628 H1634 0.984 1_655 S
N1628 H1635 0.984 . S
N1629 C1622 1.356 1_455 S
N1629 H1632 0.984 . S
N1629 H1633 0.985 1_455 S
H1630 N1625 0.984 . S
H1631 N1625 0.985 . S
H1632 N1629 0.984 . S
H1633 N1629 0.985 1_655 S
H1634 N1628 0.984 1_455 S
H1635 N1628 0.984 . S
H1636 N1624 0.984 . S
H1637 N1624 0.985 . S
C1638 C1639 1.363 . S
C1638 C1644 1.379 . S
C1638 N1646 1.356 . S
C1639 C1638 1.363 . S
C1639 C1645 1.363 . S
C1640 C1641 1.363 . S
C1640 C1645 1.379 . S
C1640 N1647 1.356 . S
C1641 C1640 1.363 . S
C1641 C1644 1.363 . S
N1642 C1644 1.356 . S
N1642 H1654 0.984 . S
N1642 H1655 0.985 . S
N1643 C1645 1.356 . S
N1643 H1648 0.984 . S
N1643 H1649 0.985 . S
C1644 C1638 1.379 . S
C1644 C1641 1.363 . S
C1644 N1642 1.356 . S
C1645 C1639 1.363 . S
C1645 C1640 1.379 . S
C1645 N1643 1.356 . S
N1646 C1638 1.356 . S
N1646 H1652 0.984 . S
N1646 H1653 0.984 . S
N1647 C1640 1.356 . S
N1647 H1650 0.984 . S
N1647 H1651 0.985 . S
H1648 N1643 0.984 . S
H1649 N1643 0.985 . S
H1650 N1647 0.984 . S
H1651 N1647 0.985 . S
H1652 N1646 0.984 . S
H1653 N1646 0.984 . S
H1654 N1642 0.984 . S
H1655 N1642 0.985 . S
C1656 C1657 1.363 . S
C1656 C1662 1.379 1_545 S
C1656 N1664 1.356 . S
C1657 C1656 1.363 . S
C1657 C1663 1.363 . S
C1658 C1659 1.363 . S
C1658 C1663 1.379 1_565 S
C1658 N1665 1.356 . S
C1659 C1658 1.363 . S
C1659 C1662 1.363 . S
N1660 C1662 1.356 . S
N1660 H1672 0.984 . S
N1660 H1673 0.985 . S
N1661 C1663 1.356 . S
N1661 H1666 0.984 . S
N1661 H1667 0.985 . S
C1662 C1656 1.379 1_565 S
C1662 C1659 1.363 . S
C1662 N1660 1.356 . S
C1663 C1657 1.363 . S
C1663 C1658 1.379 1_545 S
C1663 N1661 1.356 . S
N1664 C1656 1.356 . S
N1664 H1670 0.984 . S
N1664 H1671 0.984 . S
N1665 C1658 1.356 . S
N1665 H1668 0.984 . S
N1665 H1669 0.985 . S
H1666 N1661 0.984 . S
H1667 N1661 0.985 . S
H1668 N1665 0.984 . S
H1669 N1665 0.985 . S
H1670 N1664 0.984 . S
H1671 N1664 0.984 . S
H1672 N1660 0.984 . S
H1673 N1660 0.985 . S
C1674 C1675 1.363 . S
C1674 C1680 1.379 1_565 S
C1674 N1682 1.356 . S
C1675 C1674 1.363 . S
C1675 C1681 1.363 1_554 S
C1676 C1677 1.363 . S
C1676 C1681 1.379 1_545 S
C1676 N1683 1.356 . S
C1677 C1676 1.363 . S
C1677 C1680 1.363 1_556 S
N1678 C1680 1.356 . S
N1678 H1690 0.984 . S
N1678 H1691 0.985 . S
N1679 C1681 1.356 . S
N1679 H1684 0.984 . S
N1679 H1685 0.985 . S
C1680 C1674 1.379 1_545 S
C1680 C1677 1.363 1_554 S
C1680 N1678 1.356 . S
C1681 C1675 1.363 1_556 S
C1681 C1676 1.379 1_565 S
C1681 N1679 1.356 . S
N1682 C1674 1.356 . S
N1682 H1688 0.984 . S
N1682 H1689 0.984 . S
N1683 C1676 1.356 . S
N1683 H1686 0.984 . S
N1683 H1687 0.985 . S
H1684 N1679 0.984 . S
H1685 N1679 0.985 . S
H1686 N1683 0.984 . S
H1687 N1683 0.985 . S
H1688 N1682 0.984 . S
H1689 N1682 0.984 . S
H1690 N1678 0.984 . S
H1691 N1678 0.985 . S
C1692 C1693 1.363 1_554 S
C1692 C1698 1.379 . S
C1692 N1700 1.356 . S
C1693 C1692 1.363 1_556 S
C1693 C1699 1.363 1_655 S
C1694 C1695 1.363 1_556 S
C1694 C1699 1.379 . S
C1694 N1701 1.356 . S
C1695 C1694 1.363 1_554 S
C1695 C1698 1.363 1_455 S
N1696 C1698 1.356 1_455 S
N1696 H1708 0.984 1_455 S
N1696 H1709 0.985 . S
N1697 C1699 1.356 1_655 S
N1697 H1702 0.984 . S
N1697 H1703 0.985 1_655 S
C1698 C1692 1.379 . S
C1698 C1695 1.363 1_655 S
C1698 N1696 1.356 1_655 S
C1699 C1693 1.363 1_455 S
C1699 C1694 1.379 . S
C1699 N1697 1.356 1_455 S
N1700 C1692 1.356 . S
N1700 H1706 0.984 . S
N1700 H1707 0.984 1_554 S
N1701 C1694 1.356 . S
N1701 H1704 0.984 1_556 S
N1701 H1705 0.985 . S
H1702 N1697 0.984 . S
H1703 N1697 0.985 1_455 S
H1704 N1701 0.984 1_554 S
H1705 N1701 0.985 . S
H1706 N1700 0.984 . S
H1707 N1700 0.984 1_556 S
H1708 N1696 0.984 1_655 S
H1709 N1696 0.985 . S
C1710 C1711 1.363 . S
C1710 C1716 1.379 . S
C1710 N1718 1.356 . S
C1711 C1710 1.363 . S
C1711 C1717 1.363 1_554 S
C1712 C1713 1.363 . S
C1712 C1717 1.379 . S
C1712 N1719 1.356 . S
C1713 C1712 1.363 . S
C1713 C1716 1.363 1_556 S
N1714 C1716 1.356 . S
N1714 H1726 0.984 . S
N1714 H1727 0.985 1_554 S
N1715 C1717 1.356 . S
N1715 H1720 0.984 1_556 S
N1715 H1721 0.985 . S
C1716 C1710 1.379 . S
C1716 C1713 1.363 1_554 S
C1716 N1714 1.356 . S
C1717 C1711 1.363 1_556 S
C1717 C1712 1.379 . S
C1717 N1715 1.356 . S
N1718 C1710 1.356 . S
N1718 H1724 0.984 . S
N1718 H1725 0.984 . S
N1719 C1712 1.356 . S
N1719 H1722 0.984 . S
N1719 H1723 0.985 . S
H1720 N1715 0.984 1_554 S
H1721 N1715 0.985 . S
H1722 N1719 0.984 . S
H1723 N1719 0.985 . S
H1724 N1718 0.984 . S
H1725 N1718 0.984 . S
H1726 N1714 0.984 . S
H1727 N1714 0.985 1_556 S
C1728 C1729 1.363 . S
C1728 C1734 1.379 . S
C1728 N1736 1.356 . S
C1729 C1728 1.363 . S
C1729 C1735 1.363 . S
C1730 C1731 1.363 . S
C1730 C1735 1.379 . S
C1730 N1737 1.356 . S
C1731 C1730 1.363 . S
C1731 C1734 1.363 . S
N1732 C1734 1.356 . S
N1732 H1744 0.984 . S
N1732 H1745 0.985 . S
N1733 C1735 1.356 1_554 S
N1733 H1738 0.984 . S
N1733 H1739 0.985 . S
C1734 C1728 1.379 . S
C1734 C1731 1.363 . S
C1734 N1732 1.356 . S
C1735 C1729 1.363 . S
C1735 C1730 1.379 . S
C1735 N1733 1.356 1_556 S
N1736 C1728 1.356 . S
N1736 H1742 0.984 . S
N1736 H1743 0.984 . S
N1737 C1730 1.356 . S
N1737 H1740 0.984 . S
N1737 H1741 0.985 . S
H1738 N1733 0.984 . S
H1739 N1733 0.985 . S
H1740 N1737 0.984 . S
H1741 N1737 0.985 . S
H1742 N1736 0.984 . S
H1743 N1736 0.984 . S
H1744 N1732 0.984 . S
H1745 N1732 0.985 . S
C1746 C1747 1.363 . S
C1746 C1752 1.379 . S
C1746 N1754 1.356 1_556 S
C1747 C1746 1.363 . S
C1747 C1753 1.363 . S
C1748 C1749 1.363 . S
C1748 C1753 1.379 . S
C1748 N1755 1.356 . S
C1749 C1748 1.363 . S
C1749 C1752 1.363 . S
N1750 C1752 1.356 . S
N1750 H1762 0.984 . S
N1750 H1763 0.985 . S
N1751 C1753 1.356 . S
N1751 H1756 0.984 . S
N1751 H1757 0.985 . S
C1752 C1746 1.379 . S
C1752 C1749 1.363 . S
C1752 N1750 1.356 . S
C1753 C1747 1.363 . S
C1753 C1748 1.379 . S
C1753 N1751 1.356 . S
N1754 C1746 1.356 1_554 S
N1754 H1760 0.984 . S
N1754 H1761 0.984 . S
N1755 C1748 1.356 . S
N1755 H1758 0.984 . S
N1755 H1759 0.985 . S
H1756 N1751 0.984 . S
H1757 N1751 0.985 . S
H1758 N1755 0.984 . S
H1759 N1755 0.985 . S
H1760 N1754 0.984 . S
H1761 N1754 0.984 . S
H1762 N1750 0.984 . S
H1763 N1750 0.985 . S
C1764 C1765 1.363 . S
C1764 C1770 1.379 . S
C1764 N1772 1.356 . S
C1765 C1764 1.363 . S
C1765 C1771 1.363 . S
C1766 C1767 1.363 . S
C1766 C1771 1.379 . S
C1766 N1773 1.356 . S
C1767 C1766 1.363 . S
C1767 C1770 1.363 . S
N1768 C1770 1.371 . S
N1768 H1780 0.979 1_556 S
N1768 H1781 0.976 1_556 S
N1769 C1771 1.356 . S
N1769 H1774 0.984 . S
N1769 H1775 0.985 . S
C1770 C1764 1.379 . S
C1770 C1767 1.363 . S
C1770 N1768 1.371 . S
C1771 C1765 1.363 . S
C1771 C1766 1.379 . S
C1771 N1769 1.356 . S
N1772 C1764 1.356 . S
N1772 H1778 0.984 . S
N1772 H1779 0.984 . S
N1773 C1766 1.356 . S
N1773 H1776 0.984 . S
N1773 H1777 0.985 . S
H1774 N1769 0.984 . S
H1775 N1769 0.985 . S
H1776 N1773 0.984 . S
H1777 N1773 0.985 . S
H1778 N1772 0.984 . S
H1779 N1772 0.984 . S
H1780 N1768 0.979 1_554 S
H1781 N1768 0.976 1_554 S
C1782 C1783 1.363 . S
C1782 C1788 1.379 . S
C1782 N1790 1.356 . S
C1783 C1782 1.363 . S
C1783 C1789 1.363 . S
C1784 C1785 1.363 . S
C1784 C1789 1.379 . S
C1784 N1791 1.356 . S
C1785 C1784 1.363 . S
C1785 C1788 1.363 . S
N1786 C1788 1.356 . S
N1786 H1798 0.984 . S
N1786 H1799 0.985 . S
N1787 C1789 1.356 . S
N1787 H1792 0.984 . S
N1787 H1793 0.985 . S
C1788 C1782 1.379 . S
C1788 C1785 1.363 . S
C1788 N1786 1.356 . S
C1789 C1783 1.363 . S
C1789 C1784 1.379 . S
C1789 N1787 1.356 . S
N1790 C1782 1.356 . S
N1790 H1796 0.984 . S
N1790 H1797 0.984 . S
N1791 C1784 1.356 . S
N1791 H1794 0.984 . S
N1791 H1795 0.985 . S
H1792 N1787 0.984 . S
H1793 N1787 0.985 . S
H1794 N1791 0.984 . S
H1795 N1791 0.985 . S
H1796 N1790 0.984 . S
H1797 N1790 0.984 . S
H1798 N1786 0.984 . S
H1799 N1786 0.985 . S
C1800 C1801 1.363 . S
C1800 C1806 1.379 . S
C1800 N1808 1.356 . S
C1801 C1800 1.363 . S
C1801 C1807 1.363 . S
C1802 C1803 1.363 . S
C1802 C1807 1.379 . S
C1802 N1809 1.356 . S
C1803 C1802 1.363 . S
C1803 C1806 1.363 . S
N1804 C1806 1.356 . S
N1804 H1816 0.984 . S
N1804 H1817 0.985 . S
N1805 C1807 1.356 . S
N1805 H1810 0.984 . S
N1805 H1811 0.985 . S
C1806 C1800 1.379 . S
C1806 C1803 1.363 . S
C1806 N1804 1.356 . S
C1807 C1801 1.363 . S
C1807 C1802 1.379 . S
C1807 N1805 1.356 . S
N1808 C1800 1.356 . S
N1808 H1814 0.984 . S
N1808 H1815 0.984 . S
N1809 C1802 1.356 . S
N1809 H1812 0.984 . S
N1809 H1813 0.985 . S
H1810 N1805 0.984 . S
H1811 N1805 0.985 . S
H1812 N1809 0.984 . S
H1813 N1809 0.985 . S
H1814 N1808 0.984 . S
H1815 N1808 0.984 . S
H1816 N1804 0.984 . S
H1817 N1804 0.985 . S
C1818 C1819 1.363 . S
C1818 C1824 1.379 . S
C1818 N1826 1.356 . S
C1819 C1818 1.363 . S
C1819 C1825 1.363 . S
C1820 C1821 1.363 . S
C1820 C1825 1.379 . S
C1820 N1827 1.356 . S
C1821 C1820 1.363 . S
C1821 C1824 1.363 . S
N1822 C1824 1.356 . S
N1822 H1834 0.984 . S
N1822 H1835 0.985 . S
N1823 C1825 1.356 . S
N1823 H1828 0.984 . S
N1823 H1829 0.985 . S
C1824 C1818 1.379 . S
C1824 C1821 1.363 . S
C1824 N1822 1.356 . S
C1825 C1819 1.363 . S
C1825 C1820 1.379 . S
C1825 N1823 1.356 . S
N1826 C1818 1.356 . S
N1826 H1832 0.984 . S
N1826 H1833 0.984 . S
N1827 C1820 1.356 . S
N1827 H1830 0.984 . S
N1827 H1831 0.985 . S
H1828 N1823 0.984 . S
H1829 N1823 0.985 . S
H1830 N1827 0.984 . S
H1831 N1827 0.985 . S
H1832 N1826 0.984 . S
H1833 N1826 0.984 . S
H1834 N1822 0.984 . S
H1835 N1822 0.985 . S
C1836 C1837 1.363 . S
C1836 C1842 1.379 . S
C1836 N1844 1.356 . S
C1837 C1836 1.363 . S
C1837 C1843 1.363 . S
C1838 C1839 1.363 . S
C1838 C1843 1.379 . S
C1838 N1845 1.356 . S
C1839 C1838 1.363 . S
C1839 C1842 1.363 . S
N1840 C1842 1.356 . S
N1840 H1852 0.984 . S
N1840 H1853 0.983 . S
N1841 C1843 1.356 . S
N1841 H1846 0.984 . S
N1841 H1847 0.985 . S
C1842 C1836 1.379 . S
C1842 C1839 1.363 . S
C1842 N1840 1.356 . S
C1843 C1837 1.363 . S
C1843 C1838 1.379 . S
C1843 N1841 1.356 . S
N1844 C1836 1.356 . S
N1844 H1850 0.984 . S
N1844 H1851 0.984 . S
N1845 C1838 1.356 . S
N1845 H1848 0.984 . S
N1845 H1849 0.985 . S
H1846 N1841 0.984 . S
H1847 N1841 0.985 . S
H1848 N1845 0.984 . S
H1849 N1845 0.985 . S
H1850 N1844 0.984 . S
H1851 N1844 0.984 . S
H1852 N1840 0.984 . S
H1853 N1840 0.983 . S
C1854 C1855 1.363 . S
C1854 C1860 1.379 . S
C1854 N1862 1.356 . S
C1855 C1854 1.363 . S
C1855 C1861 1.363 . S
C1856 C1857 1.363 . S
C1856 C1861 1.379 . S
C1856 N1863 1.356 . S
C1857 C1856 1.363 . S
C1857 C1860 1.363 . S
N1858 C1860 1.356 . S
N1858 H1870 0.984 . S
N1858 H1871 0.985 . S
N1859 C1861 1.356 . S
N1859 H1864 0.984 . S
N1859 H1865 0.985 . S
C1860 C1854 1.379 . S
C1860 C1857 1.363 . S
C1860 N1858 1.356 . S
C1861 C1855 1.363 . S
C1861 C1856 1.379 . S
C1861 N1859 1.356 . S
N1862 C1854 1.356 . S
N1862 H1868 0.984 . S
N1862 H1869 0.984 . S
N1863 C1856 1.356 . S
N1863 H1866 0.984 . S
N1863 H1867 0.985 . S
H1864 N1859 0.984 . S
H1865 N1859 0.985 . S
H1866 N1863 0.984 . S
H1867 N1863 0.985 . S
H1868 N1862 0.984 . S
H1869 N1862 0.984 . S
H1870 N1858 0.984 . S
H1871 N1858 0.985 . S
C1872 C1873 1.363 . S
C1872 C1878 1.379 . S
C1872 N1880 1.356 . S
C1873 C1872 1.363 . S
C1873 C1879 1.363 . S
C1874 C1875 1.363 . S
C1874 C1879 1.379 . S
C1874 N1881 1.356 . S
C1875 C1874 1.363 . S
C1875 C1878 1.363 . S
N1876 C1878 1.356 . S
N1876 H1888 0.984 . S
N1876 H1889 0.985 1_554 S
N1877 C1879 1.356 . S
N1877 H1882 0.984 . S
N1877 H1883 0.985 . S
C1878 C1872 1.379 . S
C1878 C1875 1.363 . S
C1878 N1876 1.356 . S
C1879 C1873 1.363 . S
C1879 C1874 1.379 . S
C1879 N1877 1.356 . S
N1880 C1872 1.356 . S
N1880 H1886 0.984 . S
N1880 H1887 0.984 . S
N1881 C1874 1.356 . S
N1881 H1884 0.984 . S
N1881 H1885 0.985 . S
H1882 N1877 0.984 . S
H1883 N1877 0.985 . S
H1884 N1881 0.984 . S
H1885 N1881 0.985 . S
H1886 N1880 0.984 . S
H1887 N1880 0.984 . S
H1888 N1876 0.984 . S
H1889 N1876 0.985 1_556 S
C1890 C1891 1.363 . S
C1890 C1896 1.379 . S
C1890 N1898 1.356 . S
C1891 C1890 1.363 . S
C1891 C1897 1.363 . S
C1892 C1893 1.363 . S
C1892 C1897 1.379 . S
C1892 N1899 1.356 . S
C1893 C1892 1.363 . S
C1893 C1896 1.363 . S
N1894 C1896 1.356 . S
N1894 H1906 0.984 . S
N1894 H1907 0.985 . S
N1895 C1897 1.356 . S
N1895 H1900 0.984 . S
N1895 H1901 0.985 . S
C1896 C1890 1.379 . S
C1896 C1893 1.363 . S
C1896 N1894 1.356 . S
C1897 C1891 1.363 . S
C1897 C1892 1.379 . S
C1897 N1895 1.356 . S
N1898 C1890 1.356 . S
N1898 H1904 0.984 . S
N1898 H1905 0.984 . S
N1899 C1892 1.356 . S
N1899 H1902 0.984 . S
N1899 H1903 0.985 . S
H1900 N1895 0.984 . S
H1901 N1895 0.985 . S
H1902 N1899 0.984 . S
H1903 N1899 0.985 . S
H1904 N1898 0.984 . S
H1905 N1898 0.984 . S
H1906 N1894 0.984 . S
H1907 N1894 0.985 . S
C1908 C1909 1.363 . S
C1908 C1914 1.379 . S
C1908 N1916 1.356 . S
C1909 C1908 1.363 . S
C1909 C1915 1.363 . S
C1910 C1911 1.363 . S
C1910 C1915 1.379 . S
C1910 N1917 1.356 . S
C1911 C1910 1.363 . S
C1911 C1914 1.363 . S
N1912 C1914 1.356 . S
N1912 H1924 0.984 . S
N1912 H1925 0.985 . S
N1913 C1915 1.356 . S
N1913 H1918 0.984 . S
N1913 H1919 0.985 . S
C1914 C1908 1.379 . S
C1914 C1911 1.363 . S
C1914 N1912 1.356 . S
C1915 C1909 1.363 . S
C1915 C1910 1.379 . S
C1915 N1913 1.356 . S
N1916 C1908 1.356 . S
N1916 H1922 0.984 . S
N1916 H1923 0.984 . S
N1917 C1910 1.356 . S
N1917 H1920 0.984 . S
N1917 H1921 0.985 . S
H1918 N1913 0.984 . S
H1919 N1913 0.985 . S
H1920 N1917 0.984 . S
H1921 N1917 0.985 . S
H1922 N1916 0.984 . S
H1923 N1916 0.984 . S
H1924 N1912 0.984 . S
H1925 N1912 0.985 . S
C1926 C1927 1.363 . S
C1926 C1932 1.379 . S
C1926 N1934 1.356 . S
C1927 C1926 1.363 . S
C1927 C1933 1.363 . S
C1928 C1929 1.363 . S
C1928 C1933 1.379 . S
C1928 N1935 1.356 . S
C1929 C1928 1.363 . S
C1929 C1932 1.363 . S
N1930 C1932 1.356 . S
N1930 H1942 0.984 . S
N1930 H1943 0.985 . S
N1931 C1933 1.356 . S
N1931 H1936 0.984 . S
N1931 H1937 0.985 . S
C1932 C1926 1.379 . S
C1932 C1929 1.363 . S
C1932 N1930 1.356 . S
C1933 C1927 1.363 . S
C1933 C1928 1.379 . S
C1933 N1931 1.356 . S
N1934 C1926 1.356 . S
N1934 H1940 0.984 . S
N1934 H1941 0.984 . S
N1935 C1928 1.356 . S
N1935 H1938 0.984 . S
N1935 H1939 0.985 . S
H1936 N1931 0.984 . S
H1937 N1931 0.985 . S
H1938 N1935 0.984 . S
H1939 N1935 0.985 . S
H1940 N1934 0.984 . S
H1941 N1934 0.984 . S
H1942 N1930 0.984 . S
H1943 N1930 0.985 . S
C1944 C1945 1.363 . S
C1944 C1950 1.379 . S
C1944 N1952 1.356 . S
C1945 C1944 1.363 . S
C1945 C1951 1.363 1_455 S
C1946 C1947 1.363 . S
C1946 C1951 1.379 . S
C1946 N1953 1.356 . S
C1947 C1946 1.363 . S
C1947 C1950 1.363 1_655 S
N1948 C1950 1.356 . S
N1948 H1960 0.984 . S
N1948 H1961 0.985 1_455 S
N1949 C1951 1.356 . S
N1949 H1954 0.984 1_655 S
N1949 H1955 0.985 . S
C1950 C1944 1.379 . S
C1950 C1947 1.363 1_455 S
C1950 N1948 1.356 . S
C1951 C1945 1.363 1_655 S
C1951 C1946 1.379 . S
C1951 N1949 1.356 . S
N1952 C1944 1.356 . S
N1952 H1958 0.984 . S
N1952 H1959 0.984 . S
N1953 C1946 1.356 . S
N1953 H1956 0.984 . S
N1953 H1957 0.985 . S
H1954 N1949 0.984 1_455 S
H1955 N1949 0.985 . S
H1956 N1953 0.984 . S
H1957 N1953 0.985 . S
H1958 N1952 0.984 . S
H1959 N1952 0.984 . S
H1960 N1948 0.984 . S
H1961 N1948 0.985 1_655 S
C1962 C1963 1.363 . S
C1962 C1968 1.379 . S
C1962 N1970 1.356 . S
C1963 C1962 1.363 . S
C1963 C1969 1.363 . S
C1964 C1965 1.363 . S
C1964 C1969 1.379 . S
C1964 N1971 1.356 . S
C1965 C1964 1.363 . S
C1965 C1968 1.363 . S
N1966 C1968 1.356 . S
N1966 H1978 0.984 . S
N1966 H1979 0.985 . S
N1967 C1969 1.356 . S
N1967 H1972 0.984 . S
N1967 H1973 0.985 . S
C1968 C1962 1.379 . S
C1968 C1965 1.363 . S
C1968 N1966 1.356 . S
C1969 C1963 1.363 . S
C1969 C1964 1.379 . S
C1969 N1967 1.356 . S
N1970 C1962 1.356 . S
N1970 H1976 0.984 . S
N1970 H1977 0.984 . S
N1971 C1964 1.356 . S
N1971 H1974 0.984 . S
N1971 H1975 0.985 . S
H1972 N1967 0.984 . S
H1973 N1967 0.985 . S
H1974 N1971 0.984 . S
H1975 N1971 0.985 . S
H1976 N1970 0.984 . S
H1977 N1970 0.984 . S
H1978 N1966 0.984 . S
H1979 N1966 0.985 . S
C1980 C1981 1.363 . S
C1980 C1986 1.379 . S
C1980 N1988 1.356 . S
C1981 C1980 1.363 . S
C1981 C1987 1.363 1_545 S
C1982 C1983 1.363 . S
C1982 C1987 1.379 . S
C1982 N1989 1.356 . S
C1983 C1982 1.363 . S
C1983 C1986 1.363 1_565 S
N1984 C1986 1.356 . S
N1984 H1996 0.984 . S
N1984 H1997 0.985 1_545 S
N1985 C1987 1.356 . S
N1985 H1990 0.984 1_565 S
N1985 H1991 0.985 . S
C1986 C1980 1.379 . S
C1986 C1983 1.363 1_545 S
C1986 N1984 1.356 . S
C1987 C1981 1.363 1_565 S
C1987 C1982 1.379 . S
C1987 N1985 1.356 . S
N1988 C1980 1.356 . S
N1988 H1994 0.984 . S
N1988 H1995 0.984 . S
N1989 C1982 1.356 . S
N1989 H1992 0.984 . S
N1989 H1993 0.985 . S
H1990 N1985 0.984 1_545 S
H1991 N1985 0.985 . S
H1992 N1989 0.984 . S
H1993 N1989 0.985 . S
H1994 N1988 0.984 . S
H1995 N1988 0.984 . S
H1996 N1984 0.984 . S
H1997 N1984 0.985 1_565 S
C1998 C1999 1.363 . S
C1998 C2004 1.379 . S
C1998 N2006 1.356 . S
C1999 C1998 1.363 . S
C1999 C2005 1.363 1_565 S
C2000 C2001 1.363 . S
C2000 C2005 1.379 . S
C2000 N2007 1.356 . S
C2001 C2000 1.363 . S
C2001 C2004 1.363 1_545 S
N2002 C2004 1.347 1_545 S
N2002 H2014 0.980 1_545 S
N2002 H2015 0.998 . S
N2003 C2005 1.347 1_565 S
N2003 H2008 0.998 . S
N2003 H2009 0.980 1_565 S
C2004 C1998 1.379 . S
C2004 C2001 1.363 1_565 S
C2004 N2002 1.347 1_565 S
C2005 C1999 1.363 1_545 S
C2005 C2000 1.379 . S
C2005 N2003 1.347 1_545 S
N2006 C1998 1.356 . S
N2006 H2012 0.984 . S
N2006 H2013 0.984 . S
N2007 C2000 1.356 . S
N2007 H2010 0.984 . S
N2007 H2011 0.985 . S
H2008 N2003 0.998 . S
H2009 N2003 0.980 1_545 S
H2010 N2007 0.984 . S
H2011 N2007 0.985 . S
H2012 N2006 0.984 . S
H2013 N2006 0.984 . S
H2014 N2002 0.980 1_565 S
H2015 N2002 0.998 . S
C2016 C2017 1.363 . S
C2016 C2022 1.379 1_455 S
C2016 N2024 1.356 . S
C2017 C2016 1.363 . S
C2017 C2023 1.363 . S
C2018 C2019 1.363 . S
C2018 C2023 1.379 1_655 S
C2018 N2025 1.356 . S
C2019 C2018 1.363 . S
C2019 C2022 1.363 . S
N2020 C2022 1.356 . S
N2020 H2032 0.984 . S
N2020 H2033 0.985 . S
N2021 C2023 1.356 . S
N2021 H2026 0.984 . S
N2021 H2027 0.985 . S
C2022 C2016 1.379 1_655 S
C2022 C2019 1.363 . S
C2022 N2020 1.356 . S
C2023 C2017 1.363 . S
C2023 C2018 1.379 1_455 S
C2023 N2021 1.356 . S
N2024 C2016 1.356 . S
N2024 H2030 0.984 . S
N2024 H2031 0.984 . S
N2025 C2018 1.356 . S
N2025 H2028 0.984 . S
N2025 H2029 0.985 . S
H2026 N2021 0.984 . S
H2027 N2021 0.985 . S
H2028 N2025 0.984 . S
H2029 N2025 0.985 . S
H2030 N2024 0.984 . S
H2031 N2024 0.984 . S
H2032 N2020 0.984 . S
H2033 N2020 0.985 . S
C2034 C2035 1.363 . S
C2034 C2040 1.379 . S
C2034 N2042 1.356 . S
C2035 C2034 1.363 . S
C2035 C2041 1.363 . S
C2036 C2037 1.363 . S
C2036 C2041 1.379 . S
C2036 N2043 1.356 . S
C2037 C2036 1.363 . S
C2037 C2040 1.363 . S
N2038 C2040 1.356 . S
N2038 H2050 0.984 . S
N2038 H2051 0.985 . S
N2039 C2041 1.356 . S
N2039 H2044 0.984 . S
N2039 H2045 0.985 . S
C2040 C2034 1.379 . S
C2040 C2037 1.363 . S
C2040 N2038 1.356 . S
C2041 C2035 1.363 . S
C2041 C2036 1.379 . S
C2041 N2039 1.356 . S
N2042 C2034 1.356 . S
N2042 H2048 0.984 . S
N2042 H2049 0.984 . S
N2043 C2036 1.356 . S
N2043 H2046 0.984 . S
N2043 H2047 0.985 . S
H2044 N2039 0.984 . S
H2045 N2039 0.985 . S
H2046 N2043 0.984 . S
H2047 N2043 0.985 . S
H2048 N2042 0.984 . S
H2049 N2042 0.984 . S
H2050 N2038 0.984 . S
H2051 N2038 0.985 . S
C2052 C2053 1.363 . S
C2052 C2058 1.379 . S
C2052 N2060 1.356 . S
C2053 C2052 1.363 . S
C2053 C2059 1.363 . S
C2054 C2055 1.363 . S
C2054 C2059 1.379 . S
C2054 N2061 1.356 . S
C2055 C2054 1.363 . S
C2055 C2058 1.363 . S
N2056 C2058 1.356 . S
N2056 H2068 0.984 . S
N2056 H2069 0.985 . S
N2057 C2059 1.356 . S
N2057 H2062 0.984 . S
N2057 H2063 0.985 . S
C2058 C2052 1.379 . S
C2058 C2055 1.363 . S
C2058 N2056 1.356 . S
C2059 C2053 1.363 . S
C2059 C2054 1.379 . S
C2059 N2057 1.356 . S
N2060 C2052 1.356 . S
N2060 H2066 0.984 . S
N2060 H2067 0.984 . S
N2061 C2054 1.356 . S
N2061 H2064 0.984 . S
N2061 H2065 0.985 . S
H2062 N2057 0.984 . S
H2063 N2057 0.985 . S
H2064 N2061 0.984 . S
H2065 N2061 0.985 . S
H2066 N2060 0.984 . S
H2067 N2060 0.984 . S
H2068 N2056 0.984 . S
H2069 N2056 0.985 . S
C2070 C2071 1.363 . S
C2070 C2076 1.379 . S
C2070 N2078 1.356 . S
C2071 C2070 1.363 . S
C2071 C2077 1.363 1_545 S
C2072 C2073 1.363 . S
C2072 C2077 1.379 . S
C2072 N2079 1.356 . S
C2073 C2072 1.363 . S
C2073 C2076 1.363 1_565 S
N2074 C2076 1.356 . S
N2074 H2086 0.984 . S
N2074 H2087 0.985 . S
N2075 C2077 1.356 . S
N2075 H2080 0.984 . S
N2075 H2081 0.985 . S
C2076 C2070 1.379 . S
C2076 C2073 1.363 1_545 S
C2076 N2074 1.356 . S
C2077 C2071 1.363 1_565 S
C2077 C2072 1.379 . S
C2077 N2075 1.356 . S
N2078 C2070 1.356 . S
N2078 H2084 0.984 . S
N2078 H2085 0.984 . S
N2079 C2072 1.356 . S
N2079 H2082 0.984 . S
N2079 H2083 0.985 . S
H2080 N2075 0.984 . S
H2081 N2075 0.985 . S
H2082 N2079 0.984 . S
H2083 N2079 0.985 . S
H2084 N2078 0.984 . S
H2085 N2078 0.984 . S
H2086 N2074 0.984 . S
H2087 N2074 0.985 . S
C2088 C2089 1.363 1_455 S
C2088 C2094 1.379 . S
C2088 N2096 1.356 . S
C2089 C2088 1.363 1_655 S
C2089 C2095 1.363 . S
C2090 C2091 1.363 1_655 S
C2090 C2095 1.379 . S
C2090 N2097 1.356 . S
C2091 C2090 1.363 1_455 S
C2091 C2094 1.363 . S
N2092 C2094 1.356 . S
N2092 H2104 0.984 . S
N2092 H2105 0.985 . S
N2093 C2095 1.356 . S
N2093 H2098 0.984 . S
N2093 H2099 0.985 . S
C2094 C2088 1.379 . S
C2094 C2091 1.363 . S
C2094 N2092 1.356 . S
C2095 C2089 1.363 . S
C2095 C2090 1.379 . S
C2095 N2093 1.356 . S
N2096 C2088 1.356 . S
N2096 H2102 0.984 . S
N2096 H2103 0.984 . S
N2097 C2090 1.356 . S
N2097 H2100 0.984 . S
N2097 H2101 0.985 . S
H2098 N2093 0.984 . S
H2099 N2093 0.985 . S
H2100 N2097 0.984 . S
H2101 N2097 0.985 . S
H2102 N2096 0.984 . S
H2103 N2096 0.984 . S
H2104 N2092 0.984 . S
H2105 N2092 0.985 . S
C2106 C2107 1.363 . S
C2106 C2112 1.379 . S
C2106 N2114 1.356 . S
C2107 C2106 1.363 . S
C2107 C2113 1.363 . S
C2108 C2109 1.363 . S
C2108 C2113 1.379 . S
C2108 N2115 1.356 . S
C2109 C2108 1.363 . S
C2109 C2112 1.363 . S
N2110 C2112 1.356 . S
N2110 H2122 0.984 . S
N2110 H2123 0.985 . S
N2111 C2113 1.356 . S
N2111 H2116 0.984 . S
N2111 H2117 0.985 . S
C2112 C2106 1.379 . S
C2112 C2109 1.363 . S
C2112 N2110 1.356 . S
C2113 C2107 1.363 . S
C2113 C2108 1.379 . S
C2113 N2111 1.356 . S
N2114 C2106 1.356 . S
N2114 H2120 0.984 . S
N2114 H2121 0.984 . S
N2115 C2108 1.356 . S
N2115 H2118 0.984 . S
N2115 H2119 0.985 . S
H2116 N2111 0.984 . S
H2117 N2111 0.985 . S
H2118 N2115 0.984 . S
H2119 N2115 0.985 . S
H2120 N2114 0.984 . S
H2121 N2114 0.984 . S
H2122 N2110 0.984 . S
H2123 N2110 0.985 . S
C2124 C2125 1.363 1_545 S
C2124 C2130 1.379 . S
C2124 N2132 1.356 . S
C2125 C2124 1.363 1_565 S
C2125 C2131 1.363 . S
C2126 C2127 1.363 1_565 S
C2126 C2131 1.379 . S
C2126 N2133 1.356 . S
C2127 C2126 1.363 1_545 S
C2127 C2130 1.363 . S
N2128 C2130 1.356 . S
N2128 H2140 0.984 . S
N2128 H2141 0.985 . S
N2129 C2131 1.356 . S
N2129 H2134 0.984 . S
N2129 H2135 0.985 . S
C2130 C2124 1.379 . S
C2130 C2127 1.363 . S
C2130 N2128 1.356 . S
C2131 C2125 1.363 . S
C2131 C2126 1.379 . S
C2131 N2129 1.356 . S
N2132 C2124 1.356 . S
N2132 H2138 0.984 . S
N2132 H2139 0.984 . S
N2133 C2126 1.356 . S
N2133 H2136 0.984 . S
N2133 H2137 0.985 . S
H2134 N2129 0.984 . S
H2135 N2129 0.985 . S
H2136 N2133 0.984 . S
H2137 N2133 0.985 . S
H2138 N2132 0.984 . S
H2139 N2132 0.984 . S
H2140 N2128 0.984 . S
H2141 N2128 0.985 . S
C2142 C2143 1.363 . S
C2142 C2148 1.379 1_655 S
C2142 N2150 1.356 . S
C2143 C2142 1.363 . S
C2143 C2149 1.363 . S
C2144 C2145 1.363 . S
C2144 C2149 1.379 1_455 S
C2144 N2151 1.356 . S
C2145 C2144 1.363 . S
C2145 C2148 1.363 . S
N2146 C2148 1.356 . S
N2146 H2158 0.984 . S
N2146 H2159 0.985 . S
N2147 C2149 1.356 . S
N2147 H2152 0.984 . S
N2147 H2153 0.985 . S
C2148 C2142 1.379 1_455 S
C2148 C2145 1.363 . S
C2148 N2146 1.356 . S
C2149 C2143 1.363 . S
C2149 C2144 1.379 1_655 S
C2149 N2147 1.356 . S
N2150 C2142 1.356 . S
N2150 H2156 0.984 . S
N2150 H2157 0.984 . S
N2151 C2144 1.356 . S
N2151 H2154 0.984 . S
N2151 H2155 0.985 . S
H2152 N2147 0.984 . S
H2153 N2147 0.985 . S
H2154 N2151 0.984 . S
H2155 N2151 0.985 . S
H2156 N2150 0.984 . S
H2157 N2150 0.984 . S
H2158 N2146 0.984 . S
H2159 N2146 0.985 . S
C2160 C2161 1.363 . S
C2160 C2166 1.379 . S
C2160 N2168 1.356 . S
C2161 C2160 1.363 . S
C2161 C2167 1.363 . S
C2162 C2163 1.363 . S
C2162 C2167 1.379 . S
C2162 N2169 1.356 . S
C2163 C2162 1.363 . S
C2163 C2166 1.363 . S
N2164 C2166 1.356 . S
N2164 H2176 0.984 . S
N2164 H2177 0.985 . S
N2165 C2167 1.356 . S
N2165 H2170 0.984 . S
N2165 H2171 0.985 . S
C2166 C2160 1.379 . S
C2166 C2163 1.363 . S
C2166 N2164 1.356 . S
C2167 C2161 1.363 . S
C2167 C2162 1.379 . S
C2167 N2165 1.356 . S
N2168 C2160 1.356 . S
N2168 H2174 0.984 . S
N2168 H2175 0.984 . S
N2169 C2162 1.356 . S
N2169 H2172 0.984 . S
N2169 H2173 0.985 . S
H2170 N2165 0.984 . S
H2171 N2165 0.985 . S
H2172 N2169 0.984 . S
H2173 N2169 0.985 . S
H2174 N2168 0.984 . S
H2175 N2168 0.984 . S
H2176 N2164 0.984 . S
H2177 N2164 0.985 . S
C2178 C2179 1.363 . S
C2178 C2184 1.379 . S
C2178 N2186 1.356 . S
C2179 C2178 1.363 . S
C2179 C2185 1.363 . S
C2180 C2181 1.363 . S
C2180 C2185 1.379 . S
C2180 N2187 1.356 . S
C2181 C2180 1.363 . S
C2181 C2184 1.363 . S
N2182 C2184 1.356 . S
N2182 H2194 0.984 . S
N2182 H2195 0.985 . S
N2183 C2185 1.356 . S
N2183 H2188 0.984 . S
N2183 H2189 0.985 . S
C2184 C2178 1.379 . S
C2184 C2181 1.363 . S
C2184 N2182 1.356 . S
C2185 C2179 1.363 . S
C2185 C2180 1.379 . S
C2185 N2183 1.356 . S
N2186 C2178 1.356 . S
N2186 H2192 0.984 . S
N2186 H2193 0.984 . S
N2187 C2180 1.356 . S
N2187 H2190 0.984 . S
N2187 H2191 0.985 . S
H2188 N2183 0.984 . S
H2189 N2183 0.985 . S
H2190 N2187 0.984 . S
H2191 N2187 0.985 . S
H2192 N2186 0.984 . S
H2193 N2186 0.984 . S
H2194 N2182 0.984 . S
H2195 N2182 0.985 . S
C2196 C2197 1.363 . S
C2196 C2202 1.379 . S
C2196 N2204 1.356 . S
C2197 C2196 1.363 . S
C2197 C2203 1.363 . S
C2198 C2199 1.363 . S
C2198 C2203 1.379 . S
C2198 N2205 1.356 . S
C2199 C2198 1.363 . S
C2199 C2202 1.363 . S
N2200 C2202 1.356 . S
N2200 H2212 0.984 . S
N2200 H2213 0.985 . S
N2201 C2203 1.356 . S
N2201 H2206 0.984 . S
N2201 H2207 0.985 . S
C2202 C2196 1.379 . S
C2202 C2199 1.363 . S
C2202 N2200 1.356 . S
C2203 C2197 1.363 . S
C2203 C2198 1.379 . S
C2203 N2201 1.356 . S
N2204 C2196 1.356 . S
N2204 H2210 0.984 . S
N2204 H2211 0.984 . S
N2205 C2198 1.356 . S
N2205 H2208 0.984 . S
N2205 H2209 0.985 . S
H2206 N2201 0.984 . S
H2207 N2201 0.985 . S
H2208 N2205 0.984 . S
H2209 N2205 0.985 . S
H2210 N2204 0.984 . S
H2211 N2204 0.984 . S
H2212 N2200 0.984 . S
H2213 N2200 0.985 . S
C2214 C2215 1.363 . S
C2214 C2220 1.379 . S
C2214 N2222 1.356 . S
C2215 C2214 1.363 . S
C2215 C2221 1.363 . S
C2216 C2217 1.363 . S
C2216 C2221 1.379 . S
C2216 N2223 1.356 . S
C2217 C2216 1.363 . S
C2217 C2220 1.363 . S
N2218 C2220 1.356 . S
N2218 H2230 0.984 . S
N2218 H2231 0.985 . S
N2219 C2221 1.356 . S
N2219 H2224 0.984 . S
N2219 H2225 0.985 . S
C2220 C2214 1.379 . S
C2220 C2217 1.363 . S
C2220 N2218 1.356 . S
C2221 C2215 1.363 . S
C2221 C2216 1.379 . S
C2221 N2219 1.356 . S
N2222 C2214 1.356 . S
N2222 H2228 0.984 . S
N2222 H2229 0.984 . S
N2223 C2216 1.356 . S
N2223 H2226 0.984 1_554 S
N2223 H2227 0.985 . S
H2224 N2219 0.984 . S
H2225 N2219 0.985 . S
H2226 N2223 0.984 1_556 S
H2227 N2223 0.985 . S
H2228 N2222 0.984 . S
H2229 N2222 0.984 . S
H2230 N2218 0.984 . S
H2231 N2218 0.985 . S
C2232 C2233 1.363 . S
C2232 C2238 1.379 . S
C2232 N2240 1.356 . S
C2233 C2232 1.363 . S
C2233 C2239 1.363 . S
C2234 C2235 1.363 . S
C2234 C2239 1.379 . S
C2234 N2241 1.356 . S
C2235 C2234 1.363 . S
C2235 C2238 1.363 . S
N2236 C2238 1.356 . S
N2236 H2248 0.984 . S
N2236 H2249 0.985 1_554 S
N2237 C2239 1.356 . S
N2237 H2242 0.984 . S
N2237 H2243 0.985 . S
C2238 C2232 1.379 . S
C2238 C2235 1.363 . S
C2238 N2236 1.356 . S
C2239 C2233 1.363 . S
C2239 C2234 1.379 . S
C2239 N2237 1.356 . S
N2240 C2232 1.356 . S
N2240 H2246 0.984 . S
N2240 H2247 0.984 . S
N2241 C2234 1.356 . S
N2241 H2244 0.984 . S
N2241 H2245 0.985 . S
H2242 N2237 0.984 . S
H2243 N2237 0.985 . S
H2244 N2241 0.984 . S
H2245 N2241 0.985 . S
H2246 N2240 0.984 . S
H2247 N2240 0.984 . S
H2248 N2236 0.984 . S
H2249 N2236 0.985 1_556 S
C2250 C2251 1.363 . S
C2250 C2256 1.379 . S
C2250 N2258 1.356 . S
C2251 C2250 1.363 . S
C2251 C2257 1.363 . S
C2252 C2253 1.363 . S
C2252 C2257 1.379 . S
C2252 N2259 1.356 . S
C2253 C2252 1.363 . S
C2253 C2256 1.363 . S
N2254 C2256 1.356 . S
N2254 H2266 0.984 . S
N2254 H2267 0.985 . S
N2255 C2257 1.356 . S
N2255 H2260 0.984 . S
N2255 H2261 0.985 . S
C2256 C2250 1.379 . S
C2256 C2253 1.363 . S
C2256 N2254 1.356 . S
C2257 C2251 1.363 . S
C2257 C2252 1.379 . S
C2257 N2255 1.356 . S
N2258 C2250 1.356 . S
N2258 H2264 0.984 . S
N2258 H2265 0.984 . S
N2259 C2252 1.356 . S
N2259 H2262 0.984 . S
N2259 H2263 0.985 . S
H2260 N2255 0.984 . S
H2261 N2255 0.985 . S
H2262 N2259 0.984 . S
H2263 N2259 0.985 . S
H2264 N2258 0.984 . S
H2265 N2258 0.984 . S
H2266 N2254 0.984 . S
H2267 N2254 0.985 . S
C2268 C2269 1.363 . S
C2268 C2274 1.379 . S
C2268 N2276 1.356 . S
C2269 C2268 1.363 . S
C2269 C2275 1.363 . S
C2270 C2271 1.363 . S
C2270 C2275 1.379 . S
C2270 N2277 1.356 . S
C2271 C2270 1.363 . S
C2271 C2274 1.363 . S
N2272 C2274 1.356 . S
N2272 H2284 0.984 . S
N2272 H2285 0.985 . S
N2273 C2275 1.356 . S
N2273 H2278 0.984 . S
N2273 H2279 0.985 . S
C2274 C2268 1.379 . S
C2274 C2271 1.363 . S
C2274 N2272 1.356 . S
C2275 C2269 1.363 . S
C2275 C2270 1.379 . S
C2275 N2273 1.356 . S
N2276 C2268 1.356 . S
N2276 H2282 0.984 . S
N2276 H2283 0.984 . S
N2277 C2270 1.356 . S
N2277 H2280 1.005 . S
N2277 H2281 0.985 . S
H2278 N2273 0.984 . S
H2279 N2273 0.985 . S
H2280 N2277 1.005 . S
H2281 N2277 0.985 . S
H2282 N2276 0.984 . S
H2283 N2276 0.984 . S
H2284 N2272 0.984 . S
H2285 N2272 0.985 . S
C2286 C2287 1.363 . S
C2286 C2292 1.379 . S
C2286 N2294 1.356 . S
C2287 C2286 1.363 . S
C2287 C2293 1.363 . S
C2288 C2289 1.363 . S
C2288 C2293 1.379 . S
C2288 N2295 1.356 . S
C2289 C2288 1.363 . S
C2289 C2292 1.363 . S
N2290 C2292 1.356 . S
N2290 H2302 0.984 . S
N2290 H2303 0.985 . S
N2291 C2293 1.356 . S
N2291 H2296 0.984 1_556 S
N2291 H2297 0.985 1_556 S
C2292 C2286 1.379 . S
C2292 C2289 1.363 . S
C2292 N2290 1.356 . S
C2293 C2287 1.363 . S
C2293 C2288 1.379 . S
C2293 N2291 1.356 . S
N2294 C2286 1.356 . S
N2294 H2300 0.984 . S
N2294 H2301 0.984 . S
N2295 C2288 1.356 . S
N2295 H2298 0.984 . S
N2295 H2299 0.985 . S
H2296 N2291 0.984 1_554 S
H2297 N2291 0.985 1_554 S
H2298 N2295 0.984 . S
H2299 N2295 0.985 . S
H2300 N2294 0.984 . S
H2301 N2294 0.984 . S
H2302 N2290 0.984 . S
H2303 N2290 0.985 . S
C2304 C2305 1.363 . S
C2304 C2310 1.379 . S
C2304 N2312 1.356 . S
C2305 C2304 1.363 . S
C2305 C2311 1.363 . S
C2306 C2307 1.363 . S
C2306 C2311 1.379 . S
C2306 N2313 1.356 . S
C2307 C2306 1.363 . S
C2307 C2310 1.363 . S
N2308 C2310 1.356 . S
N2308 H2320 0.984 . S
N2308 H2321 0.985 . S
N2309 C2311 1.356 . S
N2309 H2314 0.984 . S
N2309 H2315 0.985 . S
C2310 C2304 1.379 . S
C2310 C2307 1.363 . S
C2310 N2308 1.356 . S
C2311 C2305 1.363 . S
C2311 C2306 1.379 . S
C2311 N2309 1.356 . S
N2312 C2304 1.356 . S
N2312 H2318 0.984 . S
N2312 H2319 0.984 . S
N2313 C2306 1.356 . S
N2313 H2316 0.984 . S
N2313 H2317 0.985 . S
H2314 N2309 0.984 . S
H2315 N2309 0.985 . S
H2316 N2313 0.984 . S
H2317 N2313 0.985 . S
H2318 N2312 0.984 . S
H2319 N2312 0.984 . S
H2320 N2308 0.984 . S
H2321 N2308 0.985 . S
C2322 C2323 1.363 . S
C2322 C2328 1.379 . S
C2322 N2330 1.356 . S
C2323 C2322 1.363 . S
C2323 C2329 1.363 . S
C2324 C2325 1.363 . S
C2324 C2329 1.379 . S
C2324 N2331 1.356 . S
C2325 C2324 1.363 . S
C2325 C2328 1.363 . S
N2326 C2328 1.356 . S
N2326 H2338 0.984 . S
N2326 H2339 0.985 . S
N2327 C2329 1.356 . S
N2327 H2332 0.984 . S
N2327 H2333 0.985 . S
C2328 C2322 1.379 . S
C2328 C2325 1.363 . S
C2328 N2326 1.356 . S
C2329 C2323 1.363 . S
C2329 C2324 1.379 . S
C2329 N2327 1.356 . S
N2330 C2322 1.356 . S
N2330 H2336 0.984 . S
N2330 H2337 0.984 . S
N2331 C2324 1.356 . S
N2331 H2334 0.984 . S
N2331 H2335 0.985 . S
H2332 N2327 0.984 . S
H2333 N2327 0.985 . S
H2334 N2331 0.984 . S
H2335 N2331 0.985 . S
H2336 N2330 0.984 . S
H2337 N2330 0.984 . S
H2338 N2326 0.984 . S
H2339 N2326 0.985 . S
C2340 C2341 1.363 . S
C2340 C2346 1.379 . S
C2340 N2348 1.356 . S
C2341 C2340 1.363 . S
C2341 C2347 1.363 . S
C2342 C2343 1.363 . S
C2342 C2347 1.379 . S
C2342 N2349 1.356 . S
C2343 C2342 1.363 . S
C2343 C2346 1.363 . S
N2344 C2346 1.356 . S
N2344 H2356 0.984 . S
N2344 H2357 0.985 . S
N2345 C2347 1.356 . S
N2345 H2350 0.984 . S
N2345 H2351 0.985 . S
C2346 C2340 1.379 . S
C2346 C2343 1.363 . S
C2346 N2344 1.356 . S
C2347 C2341 1.363 . S
C2347 C2342 1.379 . S
C2347 N2345 1.356 . S
N2348 C2340 1.356 . S
N2348 H2354 0.984 . S
N2348 H2355 0.984 . S
N2349 C2342 1.356 . S
N2349 H2352 0.984 . S
N2349 H2353 0.985 . S
H2350 N2345 0.984 . S
H2351 N2345 0.985 . S
H2352 N2349 0.984 . S
H2353 N2349 0.985 . S
H2354 N2348 0.984 . S
H2355 N2348 0.984 . S
H2356 N2344 0.984 . S
H2357 N2344 0.985 . S
C2358 C2359 1.363 . S
C2358 C2364 1.379 . S
C2358 N2366 1.356 . S
C2359 C2358 1.363 . S
C2359 C2365 1.363 . S
C2360 C2361 1.363 . S
C2360 C2365 1.379 . S
C2360 N2367 1.356 . S
C2361 C2360 1.363 . S
C2361 C2364 1.363 . S
N2362 C2364 1.356 . S
N2362 H2374 0.984 . S
N2362 H2375 0.985 . S
N2363 C2365 1.356 . S
N2363 H2368 0.984 . S
N2363 H2369 0.985 . S
C2364 C2358 1.379 . S
C2364 C2361 1.363 . S
C2364 N2362 1.356 . S
C2365 C2359 1.363 . S
C2365 C2360 1.379 . S
C2365 N2363 1.356 . S
N2366 C2358 1.356 . S
N2366 H2372 0.984 . S
N2366 H2373 0.984 . S
N2367 C2360 1.356 . S
N2367 H2370 0.984 . S
N2367 H2371 0.985 . S
H2368 N2363 0.984 . S
H2369 N2363 0.985 . S
H2370 N2367 0.984 . S
H2371 N2367 0.985 . S
H2372 N2366 0.984 . S
H2373 N2366 0.984 . S
H2374 N2362 0.984 . S
H2375 N2362 0.985 . S
C2376 C2377 1.363 . S
C2376 C2382 1.379 . S
C2376 N2384 1.356 . S
C2377 C2376 1.363 . S
C2377 C2383 1.363 . S
C2378 C2379 1.363 . S
C2378 C2383 1.379 . S
C2378 N2385 1.356 . S
C2379 C2378 1.363 . S
C2379 C2382 1.363 . S
N2380 C2382 1.356 . S
N2380 H2392 0.984 . S
N2380 H2393 0.985 . S
N2381 C2383 1.356 . S
N2381 H2386 0.984 . S
N2381 H2387 0.985 . S
C2382 C2376 1.379 . S
C2382 C2379 1.363 . S
C2382 N2380 1.356 . S
C2383 C2377 1.363 . S
C2383 C2378 1.379 . S
C2383 N2381 1.356 . S
N2384 C2376 1.356 . S
N2384 H2390 0.984 1_554 S
N2384 H2391 0.984 . S
N2385 C2378 1.356 . S
N2385 H2388 0.984 . S
N2385 H2389 0.985 . S
H2386 N2381 0.984 . S
H2387 N2381 0.985 . S
H2388 N2385 0.984 . S
H2389 N2385 0.985 . S
H2390 N2384 0.984 1_556 S
H2391 N2384 0.984 . S
H2392 N2380 0.984 . S
H2393 N2380 0.985 . S
C2394 C2395 1.363 . S
C2394 C2400 1.379 . S
C2394 N2402 1.356 . S
C2395 C2394 1.363 . S
C2395 C2401 1.363 . S
C2396 C2397 1.363 1_545 S
C2396 C2401 1.379 1_545 S
C2396 N2403 1.356 . S
C2397 C2396 1.363 1_565 S
C2397 C2400 1.363 . S
N2398 C2400 1.356 . S
N2398 H2410 0.984 . S
N2398 H2411 0.985 . S
N2399 C2401 1.356 . S
N2399 H2404 0.984 . S
N2399 H2405 0.985 1_565 S
C2400 C2394 1.379 . S
C2400 C2397 1.363 . S
C2400 N2398 1.356 . S
C2401 C2395 1.363 . S
C2401 C2396 1.379 1_565 S
C2401 N2399 1.356 . S
N2402 C2394 1.356 . S
N2402 H2408 0.984 . S
N2402 H2409 0.984 . S
N2403 C2396 1.356 . S
N2403 H2406 0.984 . S
N2403 H2407 0.985 . S
H2404 N2399 0.984 . S
H2405 N2399 0.985 1_545 S
H2406 N2403 0.984 . S
H2407 N2403 0.985 . S
H2408 N2402 0.984 . S
H2409 N2402 0.984 . S
H2410 N2398 0.984 . S
H2411 N2398 0.985 . S
C2412 C2413 1.363 . S
C2412 C2418 1.379 . S
C2412 N2420 1.356 1_455 S
C2413 C2412 1.363 . S
C2413 C2419 1.363 . S
C2414 C2415 1.363 . S
C2414 C2419 1.379 . S
C2414 N2421 1.356 . S
C2415 C2414 1.363 . S
C2415 C2418 1.363 . S
N2416 C2418 1.356 . S
N2416 H2428 0.984 . S
N2416 H2429 0.985 . S
N2417 C2419 1.356 . S
N2417 H2422 0.984 . S
N2417 H2423 0.985 . S
C2418 C2412 1.379 . S
C2418 C2415 1.363 . S
C2418 N2416 1.356 . S
C2419 C2413 1.363 . S
C2419 C2414 1.379 . S
C2419 N2417 1.356 . S
N2420 C2412 1.356 1_655 S
N2420 H2426 0.984 . S
N2420 H2427 0.984 . S
N2421 C2414 1.356 . S
N2421 H2424 0.984 . S
N2421 H2425 0.985 . S
H2422 N2417 0.984 . S
H2423 N2417 0.985 . S
H2424 N2421 0.984 . S
H2425 N2421 0.985 . S
H2426 N2420 0.984 . S
H2427 N2420 0.984 . S
H2428 N2416 0.984 . S
H2429 N2416 0.985 . S
C2430 C2431 1.363 . S
C2430 C2436 1.379 . S
C2430 N2438 1.356 . S
C2431 C2430 1.363 . S
C2431 C2437 1.363 . S
C2432 C2433 1.363 . S
C2432 C2437 1.379 . S
C2432 N2439 1.356 . S
C2433 C2432 1.363 . S
C2433 C2436 1.363 . S
N2434 C2436 1.356 . S
N2434 H2446 0.984 . S
N2434 H2447 0.985 . S
N2435 C2437 1.356 . S
N2435 H2440 0.984 . S
N2435 H2441 0.985 . S
C2436 C2430 1.379 . S
C2436 C2433 1.363 . S
C2436 N2434 1.356 . S
C2437 C2431 1.363 . S
C2437 C2432 1.379 . S
C2437 N2435 1.356 . S
N2438 C2430 1.356 . S
N2438 H2444 0.984 . S
N2438 H2445 0.984 . S
N2439 C2432 1.356 . S
N2439 H2442 0.984 . S
N2439 H2443 0.985 . S
H2440 N2435 0.984 . S
H2441 N2435 0.985 . S
H2442 N2439 0.984 . S
H2443 N2439 0.985 . S
H2444 N2438 0.984 . S
H2445 N2438 0.984 . S
H2446 N2434 0.984 . S
H2447 N2434 0.985 . S
C2448 C2449 1.363 . S
C2448 C2454 1.379 . S
C2448 N2456 1.356 . S
C2449 C2448 1.363 . S
C2449 C2455 1.363 . S
C2450 C2451 1.363 . S
C2450 C2455 1.379 . S
C2450 N2457 1.356 . S
C2451 C2450 1.363 . S
C2451 C2454 1.363 . S
N2452 C2454 1.356 . S
N2452 H2464 0.984 . S
N2452 H2465 0.985 . S
N2453 C2455 1.356 . S
N2453 H2458 0.984 . S
N2453 H2459 0.985 . S
C2454 C2448 1.379 . S
C2454 C2451 1.363 . S
C2454 N2452 1.356 . S
C2455 C2449 1.363 . S
C2455 C2450 1.379 . S
C2455 N2453 1.356 . S
N2456 C2448 1.356 . S
N2456 H2462 0.984 . S
N2456 H2463 0.984 1_545 S
N2457 C2450 1.356 . S
N2457 H2460 0.984 . S
N2457 H2461 0.985 . S
H2458 N2453 0.984 . S
H2459 N2453 0.985 . S
H2460 N2457 0.984 . S
H2461 N2457 0.985 . S
H2462 N2456 0.984 . S
H2463 N2456 0.984 1_565 S
H2464 N2452 0.984 . S
H2465 N2452 0.985 . S
C2466 C2467 1.363 . S
C2466 C2472 1.379 . S
C2466 N2474 1.356 1_655 S
C2467 C2466 1.363 . S
C2467 C2473 1.363 . S
C2468 C2469 1.363 . S
C2468 C2473 1.379 . S
C2468 N2475 1.356 . S
C2469 C2468 1.363 . S
C2469 C2472 1.363 . S
N2470 C2472 1.356 . S
N2470 H2482 0.984 . S
N2470 H2483 0.985 . S
N2471 C2473 1.356 . S
N2471 H2476 0.984 . S
N2471 H2477 0.985 . S
C2472 C2466 1.379 . S
C2472 C2469 1.363 . S
C2472 N2470 1.356 . S
C2473 C2467 1.363 . S
C2473 C2468 1.379 . S
C2473 N2471 1.356 . S
N2474 C2466 1.356 1_455 S
N2474 H2480 0.984 . S
N2474 H2481 0.984 . S
N2475 C2468 1.356 . S
N2475 H2478 0.984 . S
N2475 H2479 0.985 . S
H2476 N2471 0.984 . S
H2477 N2471 0.985 . S
H2478 N2475 0.984 . S
H2479 N2475 0.985 . S
H2480 N2474 0.984 . S
H2481 N2474 0.984 . S
H2482 N2470 0.984 . S
H2483 N2470 0.985 . S
C2484 C2485 1.363 . S
C2484 C2490 1.379 . S
C2484 N2492 1.356 . S
C2485 C2484 1.363 . S
C2485 C2491 1.363 . S
C2486 C2487 1.363 . S
C2486 C2491 1.379 . S
C2486 N2493 1.356 . S
C2487 C2486 1.363 . S
C2487 C2490 1.363 . S
N2488 C2490 1.356 . S
N2488 H2500 0.984 . S
N2488 H2501 0.985 . S
N2489 C2491 1.356 . S
N2489 H2494 0.984 . S
N2489 H2495 0.985 . S
C2490 C2484 1.379 . S
C2490 C2487 1.363 . S
C2490 N2488 1.356 . S
C2491 C2485 1.363 . S
C2491 C2486 1.379 . S
C2491 N2489 1.356 . S
N2492 C2484 1.356 . S
N2492 H2498 0.984 . S
N2492 H2499 0.984 . S
N2493 C2486 1.356 . S
N2493 H2496 0.984 . S
N2493 H2497 0.985 1_556 S
H2494 N2489 0.984 . S
H2495 N2489 0.985 . S
H2496 N2493 0.984 . S
H2497 N2493 0.985 1_554 S
H2498 N2492 0.984 . S
H2499 N2492 0.984 . S
H2500 N2488 0.984 . S
H2501 N2488 0.985 . S
C2502 C2503 1.363 . S
C2502 C2508 1.379 . S
C2502 N2510 1.356 . S
C2503 C2502 1.363 . S
C2503 C2509 1.363 . S
C2504 C2505 1.363 . S
C2504 C2509 1.379 . S
C2504 N2511 1.356 . S
C2505 C2504 1.363 . S
C2505 C2508 1.363 . S
N2506 C2508 1.356 . S
N2506 H2518 0.984 . S
N2506 H2519 0.985 . S
N2507 C2509 1.356 1_565 S
N2507 H2512 0.984 . S
N2507 H2513 0.985 . S
C2508 C2502 1.379 . S
C2508 C2505 1.363 . S
C2508 N2506 1.356 . S
C2509 C2503 1.363 . S
C2509 C2504 1.379 . S
C2509 N2507 1.356 1_545 S
N2510 C2502 1.356 . S
N2510 H2516 0.984 . S
N2510 H2517 0.984 . S
N2511 C2504 1.356 . S
N2511 H2514 0.984 . S
N2511 H2515 0.983 1_545 S
H2512 N2507 0.984 . S
H2513 N2507 0.985 . S
H2514 N2511 0.984 . S
H2515 N2511 0.983 1_565 S
H2516 N2510 0.984 . S
H2517 N2510 0.984 . S
H2518 N2506 0.984 . S
H2519 N2506 0.985 . S
C2520 C2521 1.363 . S
C2520 C2526 1.379 . S
C2520 N2528 1.356 . S
C2521 C2520 1.363 . S
C2521 C2527 1.363 . S
C2522 C2523 1.363 . S
C2522 C2527 1.379 . S
C2522 N2529 1.341 1_655 S
C2523 C2522 1.363 . S
C2523 C2526 1.363 . S
N2524 C2526 1.356 . S
N2524 H2536 0.984 . S
N2524 H2537 0.985 . S
N2525 C2527 1.356 . S
N2525 H2530 0.984 . S
N2525 H2531 0.974 1_556 S
C2526 C2520 1.379 . S
C2526 C2523 1.363 . S
C2526 N2524 1.356 . S
C2527 C2521 1.363 . S
C2527 C2522 1.379 . S
C2527 N2525 1.356 . S
N2528 C2520 1.356 . S
N2528 H2534 0.984 . S
N2528 H2535 0.984 . S
N2529 C2522 1.341 1_455 S
N2529 H2532 1.004 . S
N2529 H2533 0.980 1_556 S
H2530 N2525 0.984 . S
H2531 N2525 0.974 1_554 S
H2532 N2529 1.004 . S
H2533 N2529 0.980 1_554 S
H2534 N2528 0.984 . S
H2535 N2528 0.984 . S
H2536 N2524 0.984 . S
H2537 N2524 0.985 . S
C2538 C2539 1.363 . S
C2538 C2544 1.379 . S
C2538 N2546 1.356 . S
C2539 C2538 1.363 . S
C2539 C2545 1.363 . S
C2540 C2541 1.363 . S
C2540 C2545 1.379 . S
C2540 N2547 1.356 . S
C2541 C2540 1.363 . S
C2541 C2544 1.363 . S
N2542 C2544 1.356 . S
N2542 H2554 0.984 . S
N2542 H2555 0.985 . S
N2543 C2545 1.356 . S
N2543 H2548 0.984 . S
N2543 H2549 0.985 . S
C2544 C2538 1.379 . S
C2544 C2541 1.363 . S
C2544 N2542 1.356 . S
C2545 C2539 1.363 . S
C2545 C2540 1.379 . S
C2545 N2543 1.356 . S
N2546 C2538 1.356 . S
N2546 H2552 0.984 . S
N2546 H2553 0.984 . S
N2547 C2540 1.356 . S
N2547 H2550 0.984 . S
N2547 H2551 0.985 . S
H2548 N2543 0.984 . S
H2549 N2543 0.985 . S
H2550 N2547 0.984 . S
H2551 N2547 0.985 . S
H2552 N2546 0.984 . S
H2553 N2546 0.984 . S
H2554 N2542 0.984 . S
H2555 N2542 0.985 . S
C2556 C2557 1.363 . S
C2556 C2562 1.379 . S
C2556 N2564 1.356 . S
C2557 C2556 1.363 . S
C2557 C2563 1.363 . S
C2558 C2559 1.363 . S
C2558 C2563 1.379 . S
C2558 N2565 1.356 . S
C2559 C2558 1.363 . S
C2559 C2562 1.363 . S
N2560 C2562 1.340 1_545 S
N2560 H2572 0.980 . S
N2560 H2573 1.005 . S
N2561 C2563 1.356 . S
N2561 H2566 0.984 . S
N2561 H2567 0.985 . S
C2562 C2556 1.379 . S
C2562 C2559 1.363 . S
C2562 N2560 1.340 1_565 S
C2563 C2557 1.363 . S
C2563 C2558 1.379 . S
C2563 N2561 1.356 . S
N2564 C2556 1.356 . S
N2564 H2570 0.984 . S
N2564 H2571 0.984 . S
N2565 C2558 1.356 . S
N2565 H2568 0.984 . S
N2565 H2569 0.985 . S
H2566 N2561 0.984 . S
H2567 N2561 0.985 . S
H2568 N2565 0.984 . S
H2569 N2565 0.985 . S
H2570 N2564 0.984 . S
H2571 N2564 0.984 . S
H2572 N2560 0.980 . S
H2573 N2560 1.005 . S
C2574 C2575 1.363 . S
C2574 C2580 1.379 . S
C2574 N2582 1.356 . S
C2575 C2574 1.363 . S
C2575 C2581 1.363 . S
C2576 C2577 1.363 . S
C2576 C2581 1.379 . S
C2576 N2583 1.356 . S
C2577 C2576 1.363 . S
C2577 C2580 1.363 . S
N2578 C2580 1.356 . S
N2578 H2590 0.984 . S
N2578 H2591 0.985 1_455 S
N2579 C2581 1.356 . S
N2579 H2584 0.984 . S
N2579 H2585 0.985 . S
C2580 C2574 1.379 . S
C2580 C2577 1.363 . S
C2580 N2578 1.356 . S
C2581 C2575 1.363 . S
C2581 C2576 1.379 . S
C2581 N2579 1.356 . S
N2582 C2574 1.356 . S
N2582 H2588 0.984 . S
N2582 H2589 0.984 . S
N2583 C2576 1.356 . S
N2583 H2586 0.984 . S
N2583 H2587 0.985 . S
H2584 N2579 0.984 . S
H2585 N2579 0.985 . S
H2586 N2583 0.984 . S
H2587 N2583 0.985 . S
H2588 N2582 0.984 . S
H2589 N2582 0.984 . S
H2590 N2578 0.984 . S
H2591 N2578 0.985 1_655 S
C2592 C2593 1.363 . S
C2592 C2598 1.379 1_655 S
C2592 N2600 1.356 . S
C2593 C2592 1.363 . S
C2593 C2599 1.363 . S
C2594 C2595 1.363 . S
C2594 C2599 1.379 1_455 S
C2594 N2601 1.356 . S
C2595 C2594 1.363 . S
C2595 C2598 1.363 . S
N2596 C2598 1.356 . S
N2596 H2608 0.984 . S
N2596 H2609 0.985 . S
N2597 C2599 1.356 . S
N2597 H2602 0.984 . S
N2597 H2603 0.985 . S
C2598 C2592 1.379 1_455 S
C2598 C2595 1.363 . S
C2598 N2596 1.356 . S
C2599 C2593 1.363 . S
C2599 C2594 1.379 1_655 S
C2599 N2597 1.356 . S
N2600 C2592 1.356 . S
N2600 H2606 0.984 . S
N2600 H2607 0.984 . S
N2601 C2594 1.356 . S
N2601 H2604 0.984 . S
N2601 H2605 0.985 . S
H2602 N2597 0.984 . S
H2603 N2597 0.985 . S
H2604 N2601 0.984 . S
H2605 N2601 0.985 . S
H2606 N2600 0.984 . S
H2607 N2600 0.984 . S
H2608 N2596 0.984 . S
H2609 N2596 0.985 . S
C2610 C2611 1.363 . S
C2610 C2616 1.379 . S
C2610 N2618 1.356 . S
C2611 C2610 1.363 . S
C2611 C2617 1.363 . S
C2612 C2613 1.363 . S
C2612 C2617 1.379 . S
C2612 N2619 1.356 . S
C2613 C2612 1.363 . S
C2613 C2616 1.363 . S
N2614 C2616 1.356 . S
N2614 H2626 0.984 . S
N2614 H2627 0.985 . S
N2615 C2617 1.356 . S
N2615 H2620 0.984 . S
N2615 H2621 0.985 . S
C2616 C2610 1.379 . S
C2616 C2613 1.363 . S
C2616 N2614 1.356 . S
C2617 C2611 1.363 . S
C2617 C2612 1.379 . S
C2617 N2615 1.356 . S
N2618 C2610 1.356 . S
N2618 H2624 0.984 . S
N2618 H2625 0.984 . S
N2619 C2612 1.356 . S
N2619 H2622 0.984 . S
N2619 H2623 0.985 . S
H2620 N2615 0.984 . S
H2621 N2615 0.985 . S
H2622 N2619 0.984 . S
H2623 N2619 0.985 . S
H2624 N2618 0.984 . S
H2625 N2618 0.984 . S
H2626 N2614 0.984 . S
H2627 N2614 0.985 . S
C2628 C2629 1.363 . S
C2628 C2634 1.379 1_545 S
C2628 N2636 1.356 . S
C2629 C2628 1.363 . S
C2629 C2635 1.363 . S
C2630 C2631 1.363 . S
C2630 C2635 1.379 1_565 S
C2630 N2637 1.356 . S
C2631 C2630 1.363 . S
C2631 C2634 1.363 . S
N2632 C2634 1.356 . S
N2632 H2644 0.984 . S
N2632 H2645 0.985 . S
N2633 C2635 1.356 . S
N2633 H2638 0.984 . S
N2633 H2639 0.985 . S
C2634 C2628 1.379 1_565 S
C2634 C2631 1.363 . S
C2634 N2632 1.356 . S
C2635 C2629 1.363 . S
C2635 C2630 1.379 1_545 S
C2635 N2633 1.356 . S
N2636 C2628 1.356 . S
N2636 H2642 0.984 . S
N2636 H2643 0.984 . S
N2637 C2630 1.356 . S
N2637 H2640 0.984 . S
N2637 H2641 0.985 . S
H2638 N2633 0.984 . S
H2639 N2633 0.985 . S
H2640 N2637 0.984 . S
H2641 N2637 0.985 . S
H2642 N2636 0.984 . S
H2643 N2636 0.984 . S
H2644 N2632 0.984 . S
H2645 N2632 0.985 . S
C2646 C2647 1.363 . S
C2646 C2652 1.379 1_545 S
C2646 N2654 1.356 . S
C2647 C2646 1.363 . S
C2647 C2653 1.363 . S
C2648 C2649 1.363 . S
C2648 C2653 1.379 1_565 S
C2648 N2655 1.356 . S
C2649 C2648 1.363 . S
C2649 C2652 1.363 . S
N2650 C2652 1.356 . S
N2650 H2662 0.984 . S
N2650 H2663 0.985 . S
N2651 C2653 1.356 . S
N2651 H2656 0.984 . S
N2651 H2657 0.985 . S
C2652 C2646 1.379 1_565 S
C2652 C2649 1.363 . S
C2652 N2650 1.356 . S
C2653 C2647 1.363 . S
C2653 C2648 1.379 1_545 S
C2653 N2651 1.356 . S
N2654 C2646 1.356 . S
N2654 H2660 0.984 . S
N2654 H2661 0.984 . S
N2655 C2648 1.356 . S
N2655 H2658 0.984 . S
N2655 H2659 0.985 . S
H2656 N2651 0.984 . S
H2657 N2651 0.985 . S
H2658 N2655 0.984 . S
H2659 N2655 0.985 . S
H2660 N2654 0.984 . S
H2661 N2654 0.984 . S
H2662 N2650 0.984 . S
H2663 N2650 0.985 . S
C2664 C2665 1.363 . S
C2664 C2670 1.379 1_655 S
C2664 N2672 1.356 . S
C2665 C2664 1.363 . S
C2665 C2671 1.363 . S
C2666 C2667 1.363 . S
C2666 C2671 1.379 1_455 S
C2666 N2673 1.356 . S
C2667 C2666 1.363 . S
C2667 C2670 1.363 . S
N2668 C2670 1.356 . S
N2668 H2680 0.984 . S
N2668 H2681 0.985 . S
N2669 C2671 1.356 . S
N2669 H2674 0.984 . S
N2669 H2675 0.985 . S
C2670 C2664 1.379 1_455 S
C2670 C2667 1.363 . S
C2670 N2668 1.356 . S
C2671 C2665 1.363 . S
C2671 C2666 1.379 1_655 S
C2671 N2669 1.356 . S
N2672 C2664 1.356 . S
N2672 H2678 0.984 . S
N2672 H2679 0.984 . S
N2673 C2666 1.356 . S
N2673 H2676 0.984 . S
N2673 H2677 0.985 . S
H2674 N2669 0.984 . S
H2675 N2669 0.985 . S
H2676 N2673 0.984 . S
H2677 N2673 0.985 . S
H2678 N2672 0.984 . S
H2679 N2672 0.984 . S
H2680 N2668 0.984 . S
H2681 N2668 0.985 . S
C2682 C2683 1.363 . S
C2682 C2688 1.379 . S
C2682 N2690 1.356 . S
C2683 C2682 1.363 . S
C2683 C2689 1.363 . S
C2684 C2685 1.363 . S
C2684 C2689 1.379 . S
C2684 N2691 1.356 . S
C2685 C2684 1.363 . S
C2685 C2688 1.363 . S
N2686 C2688 1.356 . S
N2686 H2698 0.984 . S
N2686 H2699 0.985 . S
N2687 C2689 1.356 . S
N2687 H2692 0.984 . S
N2687 H2693 0.985 . S
C2688 C2682 1.379 . S
C2688 C2685 1.363 . S
C2688 N2686 1.356 . S
C2689 C2683 1.363 . S
C2689 C2684 1.379 . S
C2689 N2687 1.356 . S
N2690 C2682 1.356 . S
N2690 H2696 0.984 . S
N2690 H2697 0.984 . S
N2691 C2684 1.356 . S
N2691 H2694 0.984 . S
N2691 H2695 0.985 . S
H2692 N2687 0.984 . S
H2693 N2687 0.985 . S
H2694 N2691 0.984 . S
H2695 N2691 0.985 . S
H2696 N2690 0.984 . S
H2697 N2690 0.984 . S
H2698 N2686 0.984 . S
H2699 N2686 0.985 . S
C757 C16 1.039 . S
C759 C154 1.115 . S
C775 C172 1.115 . S
C777 C37 1.039 . S
C793 C130 1.114 . S
C795 C58 1.039 . S
C811 C238 1.115 . S
C813 C66 1.039 . S
C829 C87 1.039 . S
C831 C193 1.114 . S
C847 C108 1.039 . S
C849 C214 1.115 . S
C865 C25 1.115 . S
C867 C142 1.039 . S
C883 C150 1.039 . S
C885 C46 1.115 . S
C901 C4 1.114 . S
C903 C184 1.039 . S
C919 C112 1.115 . S
C921 C205 1.039 . S
C937 C226 1.039 . S
C939 C70 1.114 . S
C955 C234 1.039 . S
C957 C91 1.115 . S
C973 C268 1.039 . S
C975 C403 1.115 . S
C991 C424 1.114 . S
C993 C289 1.039 . S
C1009 C382 1.115 . S
C1011 C297 1.039 . S
C1027 C318 1.039 . S
C1029 C490 1.115 . S
C1045 C448 1.114 . S
C1047 C339 1.039 . S
C1063 C360 1.039 . S
C1065 C466 1.115 . S
C1081 C394 1.039 . S
C1083 C277 1.115 . S
C1099 C301 1.115 . S
C1101 C415 1.039 . S
C1117 C436 1.039 . S
C1119 C256 1.115 . S
C1135 C364 1.115 . S
C1137 C444 1.039 . S
C1153 C322 1.115 . S
C1155 C478 1.039 . S
C1171 C486 1.039 . S
C1173 C343 1.114 . S
C1189 C507 1.039 . S
C1191 C658 1.115 . S
C1207 C541 1.039 . S
C1209 C676 1.115 . S
C1225 C634 1.115 . S
C1227 C562 1.039 . S
C1243 C742 1.115 . S
C1245 C570 1.039 . S
C1261 C591 1.039 . S
C1263 C697 1.115 . S
C1279 C721 1.114 . S
C1281 C612 1.039 . S
C1297 C529 1.115 . S
C1299 C646 1.039 . S
C1315 C654 1.039 . S
C1317 C550 1.114 . S
C1333 C511 1.115 . S
C1335 C688 1.039 . S
C1351 C709 1.039 . S
C1353 C616 1.115 . S
C1369 C717 1.039 . S
C1371 C574 1.114 . S
C1387 C738 1.039 . S
C1389 C595 1.115 . S
C1405 C7 1.372 . S
C1407 C385 1.372 . S
C1423 C28 1.372 . S
C1425 C406 1.372 . S
C1441 C427 1.372 . S
C1443 C49 1.372 . S
C1459 C700 1.372 . S
C1461 C67 1.372 . S
C1477 C718 1.372 . S
C1479 C88 1.372 . S
C1495 C739 1.372 . S
C1497 C109 1.372 . S
C1513 C133 1.372 . S
C1515 C508 1.372 . S
C1531 C532 1.372 . S
C1533 C151 1.372 . S
C1549 C175 1.372 . S
C1551 C553 1.372 . S
C1567 C196 1.372 . S
C1569 C319 1.372 . S
C1585 C217 1.372 . S
C1587 C340 1.372 . S
C1603 C235 1.372 . S
C1605 C361 1.372 . S
C1621 C259 1.372 . S
C1623 C637 1.372 . S
C1639 C655 1.372 . S
C1641 C280 1.372 . S
C1657 C298 1.372 . S
C1659 C679 1.372 . S
C1675 C571 1.372 . S
C1677 C445 1.372 . S
C1693 C469 1.372 . S
C1695 C592 1.372 . S
C1711 C613 1.372 . S
C1713 C487 1.372 . S
C1729 C19 1.547 . S
C1731 C356 1.547 . S
C1747 C40 1.547 . S
C1749 C377 1.547 . S
C1765 C335 1.547 . S
C1767 C61 1.547 . S
C1783 C83 1.547 . S
C1785 C565 1.547 . S
C1801 C524 1.547 . S
C1803 C104 1.547 . S
C1819 C125 1.547 . S
C1821 C544 1.547 . S
C1837 C734 1.547 . S
C1839 C145 1.547 . S
C1855 C167 1.547 . S
C1857 C755 1.547 . S
C1873 C712 1.547 . S
C1875 C187 1.547 . S
C1891 C208 1.547 . S
C1893 C439 1.547 . S
C1909 C229 1.547 . S
C1911 C397 1.547 . S
C1927 C251 1.547 . S
C1929 C418 1.547 . S
C1945 C608 1.547 . S
C1947 C271 1.547 . S
C1963 C292 1.547 . S
C1965 C629 1.547 . S
C1981 C314 1.547 . S
C1983 C587 1.547 . S
C1999 C691 1.547 . S
C2001 C461 1.547 . S
C2017 C649 1.547 . S
C2019 C481 1.547 . S
C2035 C671 1.547 . S
C2037 C503 1.547 . S
C2053 C79 1.369 . S
C2055 C3 1.369 . S
C2071 C24 1.369 . S
C2073 C100 1.369 . S
C2089 C45 1.369 . S
C2091 C121 1.369 . S
C2107 C192 1.369 . S
C2109 C129 1.369 . S
C2125 C163 1.369 . S
C2127 C213 1.369 . S
C2143 C247 1.369 . S
C2145 C171 1.369 . S
C2161 C331 1.369 . S
C2163 C255 1.369 . S
C2179 C276 1.369 . S
C2181 C352 1.369 . S
C2197 C310 1.369 . S
C2199 C373 1.369 . S
C2215 C381 1.369 . S
C2217 C457 1.369 1_554 S
C2233 C402 1.369 . S
C2235 C465 1.369 1_554 S
C2251 C423 1.369 . S
C2253 C499 1.369 1_554 S
C2269 C520 1.369 . S
C2271 C583 1.369 1_556 S
C2287 C604 1.369 1_556 S
C2289 C528 1.369 . S
C2305 C625 1.369 1_556 S
C2307 C549 1.369 . S
C2323 C633 1.369 . S
C2325 C696 1.369 . S
C2341 C730 1.369 . S
C2343 C667 1.369 . S
C2359 C675 1.369 . S
C2361 C751 1.369 . S
C2377 C20 1.265 . S
C2379 C628 1.265 . S
C2395 C586 1.265 . S
C2397 C41 1.265 . S
C2413 C62 1.265 . S
C2415 C607 1.265 . S
C2431 C293 1.265 . S
C2433 C82 1.265 . S
C2449 C103 1.265 . S
C2451 C313 1.265 . S
C2467 C124 1.265 . S
C2469 C272 1.265 . S
C2485 C502 1.265 . S
C2487 C146 1.265 . S
C2503 C166 1.265 . S
C2505 C460 1.265 . S
C2521 C482 1.265 . S
C2523 C188 1.265 . S
C2539 C209 1.265 . S
C2541 C670 1.265 . S
C2557 C692 1.265 . S
C2559 C230 1.265 . S
C2575 C650 1.265 . S
C2577 C250 1.265 . S
C2593 C334 1.265 . S
C2595 C545 1.265 . S
C2611 C355 1.265 . S
C2613 C566 1.265 . S
C2629 C376 1.265 . S
C2631 C523 1.265 . S
C2647 C398 1.265 . S
C2649 C754 1.265 . S
C2665 C419 1.265 . S
C2667 C713 1.265 . S
C2683 C733 1.265 . S
C2685 C440 1.265 . S
