# Generated by pormake.
# Topology umw, (4)-cn, num edge types: 1
# Building blocks:
#     Node 0, Type 0, BuildingBlock: CEKHIL_clean_sbu_0, # of connection points: 4
#     Node 1, Type 0, BuildingBlock: CEKHIL_clean_sbu_0, # of connection points: 4
#     Node 2, Type 0, BuildingBlock: CEKHIL_clean_sbu_0, # of connection points: 4
#     Node 3, Type 0, BuildingBlock: CEKHIL_clean_sbu_0, # of connection points: 4
#     Node 4, Type 0, BuildingBlock: CEKHIL_clean_sbu_0, # of connection points: 4
#     Node 5, Type 0, BuildingBlock: CEKHIL_clean_sbu_0, # of connection points: 4
#     Node 6, Type 0, BuildingBlock: CEKHIL_clean_sbu_0, # of connection points: 4
#     Node 7, Type 0, BuildingBlock: CEKHIL_clean_sbu_0, # of connection points: 4
#     Edge 8, Type (0, 0), BuildingBlock: FUNLAD_clean_linker_0, # of connection points: 2
#     Edge 9, Type (0, 0), BuildingBlock: FUNLAD_clean_linker_0, # of connection points: 2
#     Edge 10, Type (0, 0), BuildingBlock: FUNLAD_clean_linker_0, # of connection points: 2
#     Edge 11, Type (0, 0), BuildingBlock: FUNLAD_clean_linker_0, # of connection points: 2
#     Edge 12, Type (0, 0), BuildingBlock: FUNLAD_clean_linker_0, # of connection points: 2
#     Edge 13, Type (0, 0), BuildingBlock: FUNLAD_clean_linker_0, # of connection points: 2
#     Edge 14, Type (0, 0), BuildingBlock: FUNLAD_clean_linker_0, # of connection points: 2
#     Edge 15, Type (0, 0), BuildingBlock: FUNLAD_clean_linker_0, # of connection points: 2
#     Edge 16, Type (0, 0), BuildingBlock: FUNLAD_clean_linker_0, # of connection points: 2
#     Edge 17, Type (0, 0), BuildingBlock: FUNLAD_clean_linker_0, # of connection points: 2
#     Edge 18, Type (0, 0), BuildingBlock: FUNLAD_clean_linker_0, # of connection points: 2
#     Edge 19, Type (0, 0), BuildingBlock: FUNLAD_clean_linker_0, # of connection points: 2
#     Edge 20, Type (0, 0), BuildingBlock: FUNLAD_clean_linker_0, # of connection points: 2
#     Edge 21, Type (0, 0), BuildingBlock: FUNLAD_clean_linker_0, # of connection points: 2
#     Edge 22, Type (0, 0), BuildingBlock: FUNLAD_clean_linker_0, # of connection points: 2
#     Edge 23, Type (0, 0), BuildingBlock: FUNLAD_clean_linker_0, # of connection points: 2
# Relax obj value: 0.135
# Max RMSD: 0.105
# Mean RMSD: 0.105
data_MOF--net-umw--node1-CEKHIL_clean_sbu_0--edge1-FUNLAD_clean_linker_0
_symmetry_space_group_name_H-M    P1
_symmetry_Int_Tables_number       1
_symmetry_cell_setting            triclinic
loop_
_symmetry_equiv_pos_as_xyz
'x, y, z'
_cell_length_a     47.41422
_cell_length_b     47.407331
_cell_length_c     29.880193
_cell_angle_alpha  89.927863
_cell_angle_beta   90.020077
_cell_angle_gamma 89.974845
loop_
_atom_site_label
_atom_site_type_symbol
_atom_site_fract_x
_atom_site_fract_y
_atom_site_fract_z
_atom_type_partial_charge
Co0 Co 0.41184 0.19076 0.28551 0.0
O1 O 0.39839 0.2293 0.28977 0.0
O2 O 0.37453 0.19168 0.31162 0.0
C3 C 0.42977 0.19279 0.21535 0.0
O4 O 0.41762 0.14795 0.28623 0.0
Co5 Co 0.47589 0.17709 0.27395 0.0
O6 O 0.46311 0.13721 0.27337 0.0
C7 C 0.45485 0.2019 0.357 0.0
C8 C 0.37584 0.219 0.30843 0.0
C9 C 0.43766 0.12987 0.28069 0.0
O10 O 0.42954 0.19453 0.34667 0.0
O11 O 0.47557 0.20029 0.32975 0.0
O12 O 0.40274 0.18927 0.22089 0.0
O13 O 0.44384 0.19773 0.2512 0.0
Co14 Co 0.81975 0.41387 0.53302 0.0
O15 O 0.78111 0.40088 0.5391 0.0
O16 O 0.81875 0.37762 0.56252 0.0
C17 C 0.81746 0.42919 0.4614 0.0
O18 O 0.86259 0.41894 0.53257 0.0
Co19 Co 0.83502 0.47684 0.51479 0.0
O20 O 0.87452 0.46309 0.51267 0.0
C21 C 0.81045 0.4599 0.60066 0.0
C22 C 0.79145 0.37891 0.55951 0.0
C23 C 0.88118 0.43793 0.52349 0.0
O24 O 0.81636 0.43389 0.59238 0.0
O25 O 0.81316 0.47959 0.5717 0.0
O26 O 0.82076 0.40237 0.46946 0.0
O27 O 0.81301 0.4447 0.4959 0.0
Co28 Co 0.59973 0.82106 0.78927 0.0
O29 O 0.61031 0.78164 0.79065 0.0
O30 O 0.63711 0.81667 0.81455 0.0
C31 C 0.58115 0.822 0.71954 0.0
O32 O 0.59684 0.86414 0.79274 0.0
Co33 Co 0.53651 0.83906 0.78016 0.0
O34 O 0.552 0.87789 0.78105 0.0
C35 C 0.55684 0.8115 0.86196 0.0
C36 C 0.63364 0.78964 0.80967 0.0
C37 C 0.57788 0.88349 0.78842 0.0
O38 O 0.5825 0.81674 0.85059 0.0
O39 O 0.53582 0.81575 0.83594 0.0
O40 O 0.60839 0.8236 0.72464 0.0
O41 O 0.56703 0.81716 0.75538 0.0
Co42 Co 0.19303 0.60139 0.03366 0.0
O43 O 0.23112 0.61578 0.03912 0.0
O44 O 0.19267 0.6385 0.06042 0.0
C45 C 0.1964 0.58404 0.96332 0.0
O46 O 0.15043 0.59451 0.03318 0.0
Co47 Co 0.18065 0.53738 0.02025 0.0
O48 O 0.14075 0.54953 0.01507 0.0
C49 C 0.20438 0.55801 0.10454 0.0
C50 C 0.22003 0.63788 0.05798 0.0
C51 C 0.13282 0.57453 0.02449 0.0
O52 O 0.19684 0.58334 0.0945 0.0
O53 O 0.20297 0.53745 0.07698 0.0
O54 O 0.19185 0.6109 0.96922 0.0
O55 O 0.2013 0.56987 -0.00086 0.0
Co56 Co 0.42036 0.8128 0.31105 0.0
O57 O 0.40796 0.77476 0.29934 0.0
O58 O 0.38396 0.81305 0.28109 0.0
C59 C 0.43528 0.80462 0.38169 0.0
O60 O 0.42563 0.85546 0.31842 0.0
Co61 Co 0.483 0.82657 0.33441 0.0
O62 O 0.46765 0.86412 0.35044 0.0
C63 C 0.46683 0.81126 0.24193 0.0
C64 C 0.38587 0.78566 0.28033 0.0
C65 C 0.44359 0.87237 0.33656 0.0
O66 O 0.44044 0.81331 0.25162 0.0
O67 O 0.48653 0.81348 0.27105 0.0
O68 O 0.40871 0.80994 0.37439 0.0
O69 O 0.4509 0.80289 0.34678 0.0
Co70 Co 0.19666 0.42209 0.55145 0.0
O71 O 0.23496 0.4124 0.53556 0.0
O72 O 0.1978 0.38579 0.52132 0.0
C73 C 0.20654 0.4373 0.62153 0.0
O74 O 0.15411 0.42433 0.56327 0.0
Co75 Co 0.17906 0.48338 0.57885 0.0
O76 O 0.14403 0.46471 0.59929 0.0
C77 C 0.1881 0.46869 0.48342 0.0
C78 C 0.22492 0.38945 0.51803 0.0
C79 C 0.13682 0.44059 0.58439 0.0
O80 O 0.19185 0.44238 0.49256 0.0
O81 O 0.18451 0.48785 0.51302 0.0
O82 O 0.20316 0.41043 0.61414 0.0
O83 O 0.20565 0.45312 0.58671 0.0
Co84 Co 0.59048 0.19804 0.80473 0.0
O85 O 0.59852 0.23639 0.78683 0.0
O86 O 0.62767 0.2005 0.77767 0.0
C87 C 0.5723 0.20937 0.87237 0.0
O88 O 0.59042 0.15576 0.81941 0.0
Co89 Co 0.52986 0.17715 0.82852 0.0
O90 O 0.54992 0.14418 0.85384 0.0
C91 C 0.54704 0.1847 0.73369 0.0
C92 C 0.62257 0.22724 0.77199 0.0
C93 C 0.57481 0.13812 0.84099 0.0
O94 O 0.57266 0.19057 0.74462 0.0
O95 O 0.52724 0.18032 0.76198 0.0
O96 O 0.59951 0.2069 0.86771 0.0
O97 O 0.5577 0.20628 0.83656 0.0
Co98 Co 0.81682 0.59041 0.05276 0.0
O99 O 0.77965 0.60424 0.03717 0.0
O100 O 0.81958 0.62598 0.02101 0.0
C101 C 0.80633 0.57771 0.12388 0.0
O102 O 0.85896 0.58387 0.06356 0.0
Co103 Co 0.82825 0.52829 0.08313 0.0
O104 O 0.86618 0.54268 0.09901 0.0
C105 C 0.81856 0.54177 0.98735 0.0
C106 C 0.79221 0.62557 0.01847 0.0
C107 C 0.87524 0.566 0.08339 0.0
O108 O 0.81862 0.56855 -0.00513 0.0
O109 O 0.81994 0.52307 0.01821 0.0
O110 O 0.81259 0.60388 0.11496 0.0
O111 O 0.80492 0.56123 0.08995 0.0
C112 C 0.44812 0.1961 0.43922 0.0
C113 C 0.46167 0.20958 0.40339 0.0
C114 C 0.45912 0.19839 0.48242 0.0
C115 C 0.48358 0.21446 0.49026 0.0
C116 C 0.49535 0.23014 0.45523 0.0
C117 C 0.48468 0.22747 0.41197 0.0
C118 C 0.49833 0.21358 0.53374 0.0
C119 C 0.50122 0.18924 0.55639 0.0
C120 C 0.51582 0.18699 0.59995 0.0
C121 C 0.50692 0.16596 0.6297 0.0
C122 C 0.5182 0.16447 0.67261 0.0
C123 C 0.53907 0.1836 0.68625 0.0
H124 H 0.54595 0.221 0.58981 0.0
C125 C 0.54956 0.20338 0.65555 0.0
C126 C 0.53789 0.2052 0.61262 0.0
H127 H 0.56573 0.21829 0.6654 0.0
H128 H 0.43029 0.1823 0.43345 0.0
H129 H 0.44911 0.18679 0.50932 0.0
H130 H 0.51391 0.243 0.46076 0.0
H131 H 0.49525 0.23838 0.38486 0.0
H132 H 0.50824 0.2328 0.54569 0.0
H133 H 0.49144 0.17019 0.5434 0.0
H134 H 0.49033 0.15138 0.62041 0.0
H135 H 0.51002 0.14879 0.69562 0.0
C136 C 0.80775 0.45091 0.68314 0.0
C137 C 0.80209 0.46836 0.64625 0.0
C138 C 0.80368 0.461 0.72655 0.0
C139 C 0.79384 0.48867 0.73363 0.0
C140 C 0.78601 0.50517 0.69683 0.0
C141 C 0.79027 0.49521 0.65351 0.0
C142 C 0.79307 0.50146 0.77871 0.0
C143 C 0.81285 0.49546 0.80944 0.0
C144 C 0.81394 0.50851 0.85426 0.0
C145 C 0.8266 0.4931 0.88879 0.0
C146 C 0.82822 0.50421 0.9317 0.0
C147 C 0.81759 0.53126 0.94099 0.0
H148 H 0.79464 0.54868 0.83674 0.0
C149 C 0.80569 0.54723 0.90618 0.0
C150 C 0.80374 0.53588 0.86304 0.0
H151 H 0.7975 0.56819 0.91243 0.0
H152 H 0.81648 0.42999 0.6786 0.0
H153 H 0.80885 0.44734 0.75444 0.0
H154 H 0.77795 0.52636 0.70152 0.0
H155 H 0.78514 0.50898 0.6257 0.0
H156 H 0.7771 0.51732 0.78547 0.0
H157 H 0.82895 0.47985 0.8019 0.0
H158 H 0.83496 0.47217 0.88271 0.0
H159 H 0.83792 0.49151 0.95766 0.0
C160 C 0.50405 0.80721 0.18333 0.0
C161 C 0.47534 0.80628 0.19502 0.0
C162 C 0.51256 0.80281 0.13934 0.0
C163 C 0.49256 0.79703 0.10586 0.0
C164 C 0.46385 0.79612 0.11742 0.0
C165 C 0.45528 0.80063 0.16161 0.0
C166 C 0.50068 0.79413 0.05819 0.0
C167 C 0.52702 0.78777 0.04443 0.0
C168 C 0.53555 0.78987 -0.00308 0.0
C169 C 0.56306 0.79863 0.98654 0.0
C170 C 0.57059 0.80459 0.9423 0.0
C171 C 0.55066 0.80173 0.90782 0.0
H172 H 0.49538 0.77693 0.96863 0.0
C173 C 0.5238 0.79091 0.91798 0.0
C174 C 0.51635 0.78491 0.96203 0.0
H175 H 0.50819 0.7877 0.892 0.0
H176 H 0.52011 0.81181 0.20805 0.0
H177 H 0.53476 0.80486 0.13184 0.0
H178 H 0.44798 0.79207 0.09213 0.0
H179 H 0.433 0.79974 0.16948 0.0
H180 H 0.48443 0.79878 0.03364 0.0
H181 H 0.54348 0.78322 0.06859 0.0
H182 H 0.57835 0.8022 0.0129 0.0
H183 H 0.59155 0.81257 0.93545 0.0
C184 C 0.206 0.46603 0.40476 0.0
C185 C 0.18795 0.47811 0.4366 0.0
C186 C 0.20825 0.47801 0.36209 0.0
C187 C 0.19219 0.50201 0.35083 0.0
C188 C 0.17298 0.51287 0.38191 0.0
C189 C 0.17107 0.50124 0.42451 0.0
C190 C 0.1945 0.51632 0.30708 0.0
C191 C 0.21819 0.51668 0.28246 0.0
C192 C 0.21882 0.53062 0.2383 0.0
C193 C 0.23238 0.51704 0.20278 0.0
C194 C 0.22904 0.52706 0.15924 0.0
C195 C 0.21253 0.55113 0.15077 0.0
H196 H 0.19446 0.56747 0.2576 0.0
C197 C 0.20129 0.56633 0.18685 0.0
C198 C 0.20432 0.55606 0.23039 0.0
H199 H 0.18872 0.58509 0.18125 0.0
H200 H 0.21912 0.44811 0.41337 0.0
H201 H 0.22255 0.46853 0.33824 0.0
H202 H 0.16004 0.53101 0.37372 0.0
H203 H 0.15668 0.51069 0.44835 0.0
H204 H 0.17602 0.52774 0.29536 0.0
H205 H 0.23675 0.50506 0.29318 0.0
H206 H 0.24403 0.49768 0.20831 0.0
H207 H 0.23837 0.51523 0.13199 0.0
C208 C 0.35711 0.26692 0.32923 0.0
C209 C 0.35385 0.23744 0.32862 0.0
C210 C 0.33759 0.28411 0.3516 0.0
C211 C 0.31434 0.27219 0.37418 0.0
C212 C 0.31062 0.24281 0.37212 0.0
C213 C 0.33016 0.22563 0.34987 0.0
C214 C 0.29344 0.28958 0.39971 0.0
C215 C 0.29941 0.31521 0.41713 0.0
C216 C 0.27942 0.33288 0.44403 0.0
C217 C 0.29033 0.35636 0.46693 0.0
C218 C 0.27271 0.37427 0.49144 0.0
C219 C 0.24353 0.36932 0.49377 0.0
H220 H 0.24055 0.3103 0.429 0.0
C221 C 0.23246 0.34573 0.47128 0.0
C222 C 0.25014 0.32774 0.44659 0.0
H223 H 0.21003 0.34141 0.47213 0.0
H224 H 0.375 0.27675 0.31297 0.0
H225 H 0.34082 0.30668 0.35085 0.0
H226 H 0.29281 0.23297 0.38863 0.0
H227 H 0.32692 0.20302 0.34999 0.0
H228 H 0.27308 0.28003 0.40629 0.0
H229 H 0.32058 0.32352 0.41306 0.0
H230 H 0.31268 0.36104 0.46568 0.0
H231 H 0.28202 0.39224 0.50823 0.0
C232 C 0.74366 0.36026 0.58148 0.0
C233 C 0.77317 0.35741 0.5813 0.0
C234 C 0.72667 0.34096 0.60478 0.0
C235 C 0.73886 0.31837 0.62876 0.0
C236 C 0.76831 0.31515 0.62737 0.0
C237 C 0.78525 0.33444 0.60417 0.0
C238 C 0.72177 0.29751 0.65492 0.0
C239 C 0.69558 0.30281 0.67071 0.0
C240 C 0.67823 0.28266 0.69792 0.0
C241 C 0.65358 0.29291 0.71839 0.0
C242 C 0.63594 0.27504 0.74299 0.0
C243 C 0.64237 0.24626 0.74786 0.0
H244 H 0.70323 0.24465 0.68746 0.0
C245 C 0.66714 0.23588 0.72788 0.0
C246 C 0.68484 0.2538 0.70307 0.0
H247 H 0.67263 0.21377 0.73072 0.0
H248 H 0.73364 0.37761 0.564 0.0
H249 H 0.70406 0.3438 0.60353 0.0
H250 H 0.77837 0.29787 0.645 0.0
H251 H 0.80791 0.33152 0.60471 0.0
H252 H 0.73198 0.27771 0.66317 0.0
H253 H 0.68645 0.32348 0.66487 0.0
H254 H 0.64775 0.31492 0.71511 0.0
H255 H 0.61703 0.28381 0.75781 0.0
C256 C 0.74667 0.64571 0.98942 0.0
C257 C 0.77612 0.64774 -0.00592 0.0
C258 C 0.73153 0.66606 0.96525 0.0
C259 C 0.7455 0.68896 0.94489 0.0
C260 C 0.77486 0.69125 0.95041 0.0
C261 C 0.79002 0.67084 0.97446 0.0
C262 C 0.73012 0.71126 0.91905 0.0
C263 C 0.70495 0.70697 0.89888 0.0
C264 C 0.68871 0.72891 0.87351 0.0
C265 C 0.66592 0.72013 0.84681 0.0
C266 C 0.64874 0.73977 0.8248 0.0
C267 C 0.6538 0.76885 0.82897 0.0
H268 H 0.71108 0.766 0.89765 0.0
C269 C 0.67697 0.77775 0.85477 0.0
C270 C 0.69418 0.75807 0.8769 0.0
H271 H 0.68134 0.80001 0.85902 0.0
H272 H 0.73524 0.62832 0.00439 0.0
H273 H 0.70885 0.6639 0.96327 0.0
H274 H 0.78621 0.70878 0.93564 0.0
H275 H 0.81266 0.67314 0.97751 0.0
H276 H 0.74064 0.73143 0.91523 0.0
H277 H 0.69578 0.686 0.89994 0.0
H278 H 0.66103 0.69791 0.84351 0.0
H279 H 0.63104 0.73212 0.80537 0.0
C280 C 0.26718 0.65697 0.08173 0.0
C281 C 0.23771 0.65995 0.07949 0.0
C282 C 0.28361 0.67634 0.1057 0.0
C283 C 0.27093 0.69918 0.12821 0.0
C284 C 0.2416 0.70273 0.1244 0.0
C285 C 0.22516 0.68329 0.1006 0.0
C286 C 0.28756 0.71973 0.15551 0.0
C287 C 0.3122 0.71305 0.17566 0.0
C288 C 0.32928 0.73258 0.20419 0.0
C289 C 0.35095 0.72096 0.23049 0.0
C290 C 0.36864 0.73815 0.25609 0.0
C291 C 0.36527 0.7676 0.25608 0.0
H292 H 0.30951 0.77216 0.18448 0.0
C293 C 0.34331 0.77939 0.23047 0.0
C294 C 0.32553 0.76212 0.20471 0.0
H295 H 0.34028 0.80203 0.22944 0.0
H296 H 0.27757 0.63934 0.06563 0.0
H297 H 0.30623 0.67333 0.10633 0.0
H298 H 0.23123 0.72026 0.14083 0.0
H299 H 0.20252 0.6863 0.09947 0.0
H300 H 0.27822 0.74031 0.16113 0.0
H301 H 0.32003 0.69161 0.17261 0.0
H302 H 0.3545 0.69838 0.23088 0.0
H303 H 0.38534 0.7283 0.27529 0.0
C304 C 0.41769 0.91574 0.30952 0.0
C305 C 0.43755 0.90313 0.33832 0.0
C306 C 0.41539 0.94525 0.30683 0.0
C307 C 0.43277 0.96267 0.33329 0.0
C308 C 0.4514 0.94989 0.36371 0.0
C309 C 0.45378 0.9206 0.36622 0.0
C310 C 0.43457 0.99388 0.32758 0.0
C311 C 0.4159 0.01014 0.30523 0.0
C312 C 0.42125 0.04077 0.29757 0.0
C313 C 0.39878 0.06011 0.29707 0.0
C314 C 0.40385 0.08907 0.29116 0.0
C315 C 0.43151 0.09917 0.28482 0.0
H316 H 0.46647 0.03646 0.28842 0.0
C317 C 0.45377 0.07954 0.28369 0.0
C318 C 0.44873 0.05081 0.28992 0.0
H319 H 0.47533 0.08633 0.27845 0.0
H320 H 0.40493 0.90289 0.28744 0.0
H321 H 0.40098 0.95415 0.28257 0.0
H322 H 0.46498 0.96265 0.38468 0.0
H323 H 0.46907 0.91167 0.38917 0.0
H324 H 0.45279 1.00408 0.3426 0.0
H325 H 0.39621 1.00129 0.29322 0.0
H326 H 0.37735 0.05289 0.30222 0.0
H327 H 0.38616 0.10351 0.29192 0.0
C328 C 0.93191 0.4526 0.5267 0.0
C329 C 0.91164 0.43096 0.52807 0.0
C330 C 0.96041 0.44672 0.53378 0.0
C331 C 0.96951 0.419 0.54231 0.0
C332 C 0.94954 0.39713 0.54194 0.0
C333 C 0.92083 0.40306 0.53537 0.0
C334 C 0.99982 0.41282 0.55096 0.0
C335 C 0.01598 0.43072 0.57484 0.0
C336 C 0.04703 0.4282 0.5814 0.0
C337 C 0.05961 0.44514 0.61431 0.0
C338 C 0.08887 0.44756 0.61717 0.0
C339 C 0.10645 0.43312 0.58704 0.0
H340 H 0.05577 0.39914 0.52688 0.0
C341 C 0.09405 0.41458 0.55599 0.0
C342 C 0.06458 0.41221 0.55303 0.0
H343 H 0.10698 0.40325 0.53214 0.0
H344 H 0.92578 0.4743 0.52086 0.0
H345 H 0.97535 0.46397 0.53237 0.0
H346 H 0.95607 0.37554 0.54783 0.0
H347 H 0.90584 0.38583 0.53632 0.0
H348 H 0.00851 0.39316 0.53848 0.0
H349 H 1.00586 0.44884 0.5903 0.0
H350 H 0.04671 0.4576 0.63678 0.0
H351 H 0.09768 0.4618 0.64181 0.0
C352 C 0.56438 0.93415 0.79796 0.0
C353 C 0.58573 0.91367 0.79404 0.0
C354 C 0.57103 0.96244 0.80489 0.0
C355 C 0.59926 0.97123 0.80809 0.0
C356 C 0.62074 0.95107 0.80283 0.0
C357 C 0.61407 0.92248 0.79638 0.0
C358 C 0.60615 1.00154 0.81536 0.0
C359 C 0.59004 0.01784 0.84212 0.0
C360 C 0.59171 0.04915 0.84591 0.0
C361 C 0.57529 0.06223 0.87905 0.0
C362 C 0.57146 0.09141 0.87925 0.0
C363 C 0.58408 0.1084 0.84636 0.0
H364 H 0.61867 0.05718 0.78838 0.0
C365 C 0.60232 0.09571 0.81516 0.0
C366 C 0.606 0.06631 0.81473 0.0
H367 H 0.61224 0.10823 0.78922 0.0
H368 H 0.54232 0.92836 0.7961 0.0
H369 H 0.55392 0.97751 0.80723 0.0
H370 H 0.64268 0.95737 0.80449 0.0
H371 H 0.63105 0.90733 0.79319 0.0
H372 H 0.62441 0.01024 0.7984 0.0
H373 H 0.57352 0.00763 0.8615 0.0
H374 H 0.56413 0.04968 0.90368 0.0
H375 H 0.5575 0.10053 0.90402 0.0
C376 C 0.91869 0.59218 0.05769 0.0
C377 C 0.9062 0.57107 0.08431 0.0
C378 C 0.94814 0.594 0.05373 0.0
C379 C 0.96569 0.57479 0.07659 0.0
C380 C 0.95316 0.55469 0.10479 0.0
C381 C 0.92389 0.55287 0.10872 0.0
C382 C 0.99673 0.57298 0.06915 0.0
C383 C 0.01286 0.59333 0.05065 0.0
C384 C 0.04346 0.58883 0.04179 0.0
C385 C 0.06256 0.61132 0.0459 0.0
C386 C 0.09157 0.60698 0.0395 0.0
C387 C 0.10199 0.5801 0.02812 0.0
H388 H 0.03958 0.54467 0.02364 0.0
C389 C 0.0826 0.55796 0.0221 0.0
C390 C 0.05378 0.56225 0.02879 0.0
H391 H 0.08966 0.53704 0.01282 0.0
H392 H 0.90573 0.60651 0.03829 0.0
H393 H 0.95685 0.60958 0.03118 0.0
H394 H 0.96607 0.53965 0.12293 0.0
H395 H 0.91514 0.53648 0.12983 0.0
H396 H 0.0069 0.55356 0.07988 0.0
H397 H 1.00396 0.61392 0.04338 0.0
H398 H 0.05513 0.6321 0.05524 0.0
H399 H 0.10582 0.62458 0.04415 0.0
C400 C 0.56588 0.19809 0.95407 0.0
C401 C 0.55752 0.2127 0.91543 0.0
C402 C 0.54821 0.19757 0.99181 0.0
C403 C 0.52208 0.2119 0.99137 0.0
C404 C 0.51478 0.22778 0.95355 0.0
C405 C 0.53209 0.2279 0.91588 0.0
C406 C 0.50176 0.21095 0.02929 0.0
C407 C 0.4995 0.18888 0.05742 0.0
C408 C 0.47945 0.18827 0.09567 0.0
C409 C 0.48745 0.17362 0.13433 0.0
C410 C 0.47051 0.17422 0.17241 0.0
C411 C 0.4447 0.18878 0.17247 0.0
H412 H 0.44577 0.21276 0.06504 0.0
C413 C 0.43563 0.202 0.13297 0.0
C414 C 0.45299 0.20194 0.09483 0.0
H415 H 0.41586 0.21345 0.13223 0.0
H416 H 0.5853 0.18604 0.95435 0.0
H417 H 0.55495 0.18579 0.02095 0.0
H418 H 0.49504 0.2393 0.95244 0.0
H419 H 0.52517 0.23934 0.88643 0.0
H420 H 0.4875 0.22874 0.03303 0.0
H421 H 0.51374 0.17108 0.05385 0.0
H422 H 0.50746 0.16259 0.13575 0.0
H423 H 0.47804 0.16369 0.20214 0.0
C424 C 0.79235 0.53904 0.1749 0.0
C425 C 0.80572 0.56526 0.16919 0.0
C426 C 0.79509 0.52398 0.21472 0.0
C427 C 0.81156 0.53466 0.24988 0.0
C428 C 0.82363 0.56167 0.24523 0.0
C429 C 0.82082 0.57686 0.20509 0.0
C430 C 0.81604 0.51831 0.29185 0.0
C431 C 0.81532 0.48976 0.29371 0.0
C432 C 0.81874 0.47318 0.33582 0.0
C433 C 0.80843 0.44531 0.33797 0.0
C434 C 0.80939 0.42997 0.37819 0.0
C435 C 0.82059 0.44238 0.41687 0.0
H436 H 0.84133 0.50528 0.37348 0.0
C437 C 0.83239 0.46949 0.41392 0.0
C438 C 0.83176 0.48459 0.37393 0.0
H439 H 0.84183 0.4794 0.44279 0.0
H440 H 0.78021 0.52973 0.14796 0.0
H441 H 0.78432 0.50395 0.2176 0.0
H442 H 0.83603 0.57061 0.27215 0.0
H443 H 0.83145 0.59696 0.20149 0.0
H444 H 0.82025 0.53048 0.32181 0.0
H445 H 0.8113 0.47782 0.26341 0.0
H446 H 0.79869 0.43575 0.3089 0.0
H447 H 0.80013 0.4091 0.37957 0.0
C448 C 0.57344 0.81223 0.638 0.0
C449 C 0.56626 0.82706 0.67695 0.0
C450 C 0.55554 0.81305 0.60057 0.0
C451 C 0.53048 0.82911 0.60149 0.0
C452 C 0.52452 0.84537 0.63939 0.0
C453 C 0.54194 0.84399 0.67695 0.0
C454 C 0.50982 0.82902 0.56407 0.0
C455 C 0.50415 0.80566 0.54015 0.0
C456 C 0.48362 0.80459 0.50246 0.0
C457 C 0.48741 0.78368 0.46991 0.0
C458 C 0.47032 0.7829 0.43202 0.0
C459 C 0.44853 0.8026 0.42615 0.0
H460 H 0.45668 0.83951 0.52281 0.0
C461 C 0.44334 0.82253 0.45982 0.0
C462 C 0.46085 0.82361 0.49775 0.0
H463 H 0.42684 0.83812 0.45571 0.0
H464 H 0.59198 0.79888 0.63735 0.0
H465 H 0.56113 0.80085 0.57128 0.0
H466 H 0.5056 0.85818 0.64077 0.0
H467 H 0.5359 0.85567 0.70645 0.0
H468 H 0.49816 0.84833 0.55781 0.0
H469 H 0.51584 0.78646 0.54741 0.0
H470 H 0.50446 0.76854 0.47284 0.0
H471 H 0.47478 0.76738 0.40637 0.0
C472 C 0.19038 0.53993 0.9194 0.0
C473 C 0.19414 0.56935 0.91976 0.0
C474 C 0.19014 0.52487 0.87945 0.0
C475 C 0.19431 0.53872 0.8384 0.0
C476 C 0.1971 0.56835 0.8385 0.0
C477 C 0.19693 0.58357 0.87881 0.0
C478 C 0.19599 0.52308 0.79515 0.0
C479 C 0.20017 0.49487 0.79183 0.0
C480 C 0.20293 0.47979 0.74839 0.0
C481 C 0.19611 0.45091 0.74574 0.0
C482 C 0.19808 0.43637 0.70494 0.0
C483 C 0.20712 0.45053 0.66629 0.0
H484 H 0.21982 0.51526 0.71086 0.0
C485 C 0.21505 0.47904 0.66952 0.0
C486 C 0.2131 0.49347 0.70996 0.0
H487 H 0.22255 0.49047 0.64044 0.0
H488 H 0.18775 0.52821 0.95014 0.0
H489 H 0.18666 0.5024 0.88143 0.0
H490 H 0.20002 0.5797 0.80735 0.0
H491 H 0.19982 0.60623 0.87801 0.0
H492 H 0.19418 0.5356 0.76485 0.0
H493 H 0.20161 0.48193 0.82163 0.0
H494 H 0.18864 0.43974 0.77508 0.0
H495 H 0.19182 0.41443 0.70342 0.0
loop_
_geom_bond_atom_site_label_1
_geom_bond_atom_site_label_2
_geom_bond_distance
_geom_bond_site_symmetry_2
_ccdc_geom_bond_type
Co0 O1 2.216 . S
Co0 O2 2.091 . S
Co0 O4 2.004 . S
Co0 O10 2.021 . S
Co0 O12 2.137 . S
Co0 O13 2.244 . S
O1 Co0 2.216 . S
O1 C8 1.247 . S
O2 Co0 2.091 . S
O2 C8 1.261 . S
C3 O12 1.247 . S
C3 O13 1.272 . S
O4 Co0 2.004 . S
O4 C9 1.259 . S
Co5 O6 2.061 . S
Co5 O11 2.052 . S
Co5 O13 2.135 . S
O6 Co5 2.061 . S
O6 C9 1.235 . S
C7 O10 1.238 . S
C7 O11 1.241 . S
C8 O1 1.247 . S
C8 O2 1.261 . S
C9 O4 1.259 . S
C9 O6 1.235 . S
O10 Co0 2.021 . S
O10 C7 1.238 . S
O11 Co5 2.052 . S
O11 C7 1.241 . S
O12 Co0 2.137 . S
O12 C3 1.247 . S
O13 Co0 2.244 . S
O13 C3 1.272 . S
O13 Co5 2.135 . S
Co14 O15 2.216 . S
Co14 O16 2.091 . S
Co14 O18 2.004 . S
Co14 O24 2.021 . S
Co14 O26 2.137 . S
Co14 O27 2.244 . S
O15 Co14 2.216 . S
O15 C22 1.247 . S
O16 Co14 2.091 . S
O16 C22 1.261 . S
C17 O26 1.247 . S
C17 O27 1.272 . S
O18 Co14 2.004 . S
O18 C23 1.259 . S
Co19 O20 2.061 . S
Co19 O25 2.052 . S
Co19 O27 2.135 . S
O20 Co19 2.061 . S
O20 C23 1.235 . S
C21 O24 1.238 . S
C21 O25 1.241 . S
C22 O15 1.247 . S
C22 O16 1.261 . S
C23 O18 1.259 . S
C23 O20 1.235 . S
O24 Co14 2.021 . S
O24 C21 1.238 . S
O25 Co19 2.052 . S
O25 C21 1.241 . S
O26 Co14 2.137 . S
O26 C17 1.247 . S
O27 Co14 2.244 . S
O27 C17 1.272 . S
O27 Co19 2.135 . S
Co28 O29 2.216 . S
Co28 O30 2.091 . S
Co28 O32 2.004 . S
Co28 O38 2.021 . S
Co28 O40 2.137 . S
Co28 O41 2.244 . S
O29 Co28 2.216 . S
O29 C36 1.247 . S
O30 Co28 2.091 . S
O30 C36 1.261 . S
C31 O40 1.247 . S
C31 O41 1.272 . S
O32 Co28 2.004 . S
O32 C37 1.259 . S
Co33 O34 2.061 . S
Co33 O39 2.052 . S
Co33 O41 2.135 . S
O34 Co33 2.061 . S
O34 C37 1.235 . S
C35 O38 1.238 . S
C35 O39 1.241 . S
C36 O29 1.247 . S
C36 O30 1.261 . S
C37 O32 1.259 . S
C37 O34 1.235 . S
O38 Co28 2.021 . S
O38 C35 1.238 . S
O39 Co33 2.052 . S
O39 C35 1.241 . S
O40 Co28 2.137 . S
O40 C31 1.247 . S
O41 Co28 2.244 . S
O41 C31 1.272 . S
O41 Co33 2.135 . S
Co42 O43 2.216 . S
Co42 O44 2.091 . S
Co42 O46 2.004 . S
Co42 O52 2.021 . S
Co42 O54 2.137 1_554 S
Co42 O55 2.244 . S
O43 Co42 2.216 . S
O43 C50 1.247 . S
O44 Co42 2.091 . S
O44 C50 1.261 . S
C45 O54 1.247 . S
C45 O55 1.272 1_556 S
O46 Co42 2.004 . S
O46 C51 1.259 . S
Co47 O48 2.061 . S
Co47 O53 2.052 . S
Co47 O55 2.135 . S
O48 Co47 2.061 . S
O48 C51 1.235 . S
C49 O52 1.238 . S
C49 O53 1.241 . S
C50 O43 1.247 . S
C50 O44 1.261 . S
C51 O46 1.259 . S
C51 O48 1.235 . S
O52 Co42 2.021 . S
O52 C49 1.238 . S
O53 Co47 2.052 . S
O53 C49 1.241 . S
O54 Co42 2.137 1_556 S
O54 C45 1.247 . S
O55 Co42 2.244 . S
O55 C45 1.272 1_554 S
O55 Co47 2.135 . S
Co56 O57 2.216 . S
Co56 O58 2.091 . S
Co56 O60 2.004 . S
Co56 O66 2.021 . S
Co56 O68 2.137 . S
Co56 O69 2.244 . S
O57 Co56 2.216 . S
O57 C64 1.247 . S
O58 Co56 2.091 . S
O58 C64 1.261 . S
C59 O68 1.247 . S
C59 O69 1.272 . S
O60 Co56 2.004 . S
O60 C65 1.259 . S
Co61 O62 2.061 . S
Co61 O67 2.052 . S
Co61 O69 2.135 . S
O62 Co61 2.061 . S
O62 C65 1.235 . S
C63 O66 1.238 . S
C63 O67 1.241 . S
C64 O57 1.247 . S
C64 O58 1.261 . S
C65 O60 1.259 . S
C65 O62 1.235 . S
O66 Co56 2.021 . S
O66 C63 1.238 . S
O67 Co61 2.052 . S
O67 C63 1.241 . S
O68 Co56 2.137 . S
O68 C59 1.247 . S
O69 Co56 2.244 . S
O69 C59 1.272 . S
O69 Co61 2.135 . S
Co70 O71 2.216 . S
Co70 O72 2.091 . S
Co70 O74 2.004 . S
Co70 O80 2.021 . S
Co70 O82 2.137 . S
Co70 O83 2.244 . S
O71 Co70 2.216 . S
O71 C78 1.247 . S
O72 Co70 2.091 . S
O72 C78 1.261 . S
C73 O82 1.247 . S
C73 O83 1.272 . S
O74 Co70 2.004 . S
O74 C79 1.259 . S
Co75 O76 2.061 . S
Co75 O81 2.052 . S
Co75 O83 2.135 . S
O76 Co75 2.061 . S
O76 C79 1.235 . S
C77 O80 1.238 . S
C77 O81 1.241 . S
C78 O71 1.247 . S
C78 O72 1.261 . S
C79 O74 1.259 . S
C79 O76 1.235 . S
O80 Co70 2.021 . S
O80 C77 1.238 . S
O81 Co75 2.052 . S
O81 C77 1.241 . S
O82 Co70 2.137 . S
O82 C73 1.247 . S
O83 Co70 2.244 . S
O83 C73 1.272 . S
O83 Co75 2.135 . S
Co84 O85 2.216 . S
Co84 O86 2.091 . S
Co84 O88 2.004 . S
Co84 O94 2.021 . S
Co84 O96 2.137 . S
Co84 O97 2.244 . S
O85 Co84 2.216 . S
O85 C92 1.247 . S
O86 Co84 2.091 . S
O86 C92 1.261 . S
C87 O96 1.247 . S
C87 O97 1.272 . S
O88 Co84 2.004 . S
O88 C93 1.259 . S
Co89 O90 2.061 . S
Co89 O95 2.052 . S
Co89 O97 2.135 . S
O90 Co89 2.061 . S
O90 C93 1.235 . S
C91 O94 1.238 . S
C91 O95 1.241 . S
C92 O85 1.247 . S
C92 O86 1.261 . S
C93 O88 1.259 . S
C93 O90 1.235 . S
O94 Co84 2.021 . S
O94 C91 1.238 . S
O95 Co89 2.052 . S
O95 C91 1.241 . S
O96 Co84 2.137 . S
O96 C87 1.247 . S
O97 Co84 2.244 . S
O97 C87 1.272 . S
O97 Co89 2.135 . S
Co98 O99 2.216 . S
Co98 O100 2.091 . S
Co98 O102 2.004 . S
Co98 O108 2.021 1_554 S
Co98 O110 2.137 . S
Co98 O111 2.244 . S
O99 Co98 2.216 . S
O99 C106 1.247 . S
O100 Co98 2.091 . S
O100 C106 1.261 . S
C101 O110 1.247 . S
C101 O111 1.272 . S
O102 Co98 2.004 . S
O102 C107 1.259 . S
Co103 O104 2.061 . S
Co103 O109 2.052 1_554 S
Co103 O111 2.135 . S
O104 Co103 2.061 . S
O104 C107 1.235 . S
C105 O108 1.238 . S
C105 O109 1.241 . S
C106 O99 1.247 . S
C106 O100 1.261 . S
C107 O102 1.259 . S
C107 O104 1.235 . S
O108 Co98 2.021 1_556 S
O108 C105 1.238 . S
O109 Co103 2.052 1_556 S
O109 C105 1.241 . S
O110 Co98 2.137 . S
O110 C101 1.247 . S
O111 Co98 2.244 . S
O111 C101 1.272 . S
O111 Co103 2.135 . S
C112 C113 1.386 . S
C112 C114 1.383 . S
C112 H128 0.951 . S
C113 C112 1.386 . S
C113 C117 1.383 . S
C114 C112 1.383 . S
C114 C115 1.402 . S
C114 H129 0.951 . S
C115 C114 1.402 . S
C115 C116 1.375 . S
C115 C118 1.481 . S
C116 C115 1.375 . S
C116 C117 1.367 . S
C116 H130 0.951 . S
C117 C113 1.383 . S
C117 C116 1.367 . S
C117 H131 0.950 . S
C118 C115 1.481 . S
C118 C119 1.297 . S
C118 H132 0.950 . S
C119 C118 1.297 . S
C119 C120 1.479 . S
C119 H133 0.950 . S
C120 C119 1.479 . S
C120 C121 1.375 . S
C120 C126 1.404 . S
C121 C120 1.375 . S
C121 C122 1.369 . S
C121 H134 0.950 . S
C122 C121 1.369 . S
C122 C123 1.392 . S
C122 H135 0.951 . S
C123 C122 1.392 . S
C123 C125 1.384 . S
H124 C126 0.949 . S
C125 C123 1.384 . S
C125 C126 1.385 . S
C125 H127 0.950 . S
C126 C120 1.404 . S
C126 H124 0.949 . S
C126 C125 1.385 . S
H127 C125 0.950 . S
H128 C112 0.951 . S
H129 C114 0.951 . S
H130 C116 0.951 . S
H131 C117 0.950 . S
H132 C118 0.950 . S
H133 C119 0.950 . S
H134 C121 0.950 . S
H135 C122 0.951 . S
C136 C137 1.386 . S
C136 C138 1.383 . S
C136 H152 0.951 . S
C137 C136 1.386 . S
C137 C141 1.383 . S
C138 C136 1.383 . S
C138 C139 1.402 . S
C138 H153 0.951 . S
C139 C138 1.402 . S
C139 C140 1.375 . S
C139 C142 1.481 . S
C140 C139 1.375 . S
C140 C141 1.367 . S
C140 H154 0.951 . S
C141 C137 1.383 . S
C141 C140 1.367 . S
C141 H155 0.950 . S
C142 C139 1.481 . S
C142 C143 1.297 . S
C142 H156 0.950 . S
C143 C142 1.297 . S
C143 C144 1.479 . S
C143 H157 0.950 . S
C144 C143 1.479 . S
C144 C145 1.375 . S
C144 C150 1.404 . S
C145 C144 1.375 . S
C145 C146 1.369 . S
C145 H158 0.950 . S
C146 C145 1.369 . S
C146 C147 1.392 . S
C146 H159 0.951 . S
C147 C146 1.392 . S
C147 C149 1.384 . S
H148 C150 0.949 . S
C149 C147 1.384 . S
C149 C150 1.385 . S
C149 H151 0.950 . S
C150 C144 1.404 . S
C150 H148 0.949 . S
C150 C149 1.385 . S
H151 C149 0.950 . S
H152 C136 0.951 . S
H153 C138 0.951 . S
H154 C140 0.951 . S
H155 C141 0.950 . S
H156 C142 0.950 . S
H157 C143 0.950 . S
H158 C145 0.950 . S
H159 C146 0.951 . S
C160 C161 1.386 . S
C160 C162 1.383 . S
C160 H176 0.951 . S
C161 C160 1.386 . S
C161 C165 1.383 . S
C162 C160 1.383 . S
C162 C163 1.402 . S
C162 H177 0.951 . S
C163 C162 1.402 . S
C163 C164 1.375 . S
C163 C166 1.481 . S
C164 C163 1.375 . S
C164 C165 1.367 . S
C164 H178 0.951 . S
C165 C161 1.383 . S
C165 C164 1.367 . S
C165 H179 0.950 . S
C166 C163 1.481 . S
C166 C167 1.297 . S
C166 H180 0.950 . S
C167 C166 1.297 . S
C167 C168 1.479 . S
C167 H181 0.950 . S
C168 C167 1.479 . S
C168 C169 1.375 1_554 S
C168 C174 1.404 1_554 S
C169 C168 1.375 1_556 S
C169 C170 1.369 . S
C169 H182 0.950 1_556 S
C170 C169 1.369 . S
C170 C171 1.392 . S
C170 H183 0.951 . S
C171 C170 1.392 . S
C171 C173 1.384 . S
H172 C174 0.949 . S
C173 C171 1.384 . S
C173 C174 1.385 . S
C173 H175 0.950 . S
C174 C168 1.404 1_556 S
C174 H172 0.949 . S
C174 C173 1.385 . S
H175 C173 0.950 . S
H176 C160 0.951 . S
H177 C162 0.951 . S
H178 C164 0.951 . S
H179 C165 0.950 . S
H180 C166 0.950 . S
H181 C167 0.950 . S
H182 C169 0.950 1_554 S
H183 C170 0.951 . S
C184 C185 1.386 . S
C184 C186 1.383 . S
C184 H200 0.951 . S
C185 C184 1.386 . S
C185 C189 1.383 . S
C186 C184 1.383 . S
C186 C187 1.402 . S
C186 H201 0.951 . S
C187 C186 1.402 . S
C187 C188 1.375 . S
C187 C190 1.481 . S
C188 C187 1.375 . S
C188 C189 1.367 . S
C188 H202 0.951 . S
C189 C185 1.383 . S
C189 C188 1.367 . S
C189 H203 0.950 . S
C190 C187 1.481 . S
C190 C191 1.297 . S
C190 H204 0.950 . S
C191 C190 1.297 . S
C191 C192 1.479 . S
C191 H205 0.950 . S
C192 C191 1.479 . S
C192 C193 1.375 . S
C192 C198 1.404 . S
C193 C192 1.375 . S
C193 C194 1.369 . S
C193 H206 0.950 . S
C194 C193 1.369 . S
C194 C195 1.392 . S
C194 H207 0.951 . S
C195 C194 1.392 . S
C195 C197 1.384 . S
H196 C198 0.949 . S
C197 C195 1.384 . S
C197 C198 1.385 . S
C197 H199 0.950 . S
C198 C192 1.404 . S
C198 H196 0.949 . S
C198 C197 1.385 . S
H199 C197 0.950 . S
H200 C184 0.951 . S
H201 C186 0.951 . S
H202 C188 0.951 . S
H203 C189 0.950 . S
H204 C190 0.950 . S
H205 C191 0.950 . S
H206 C193 0.950 . S
H207 C194 0.951 . S
C208 C209 1.386 . S
C208 C210 1.383 . S
C208 H224 0.951 . S
C209 C208 1.386 . S
C209 C213 1.383 . S
C210 C208 1.383 . S
C210 C211 1.402 . S
C210 H225 0.951 . S
C211 C210 1.402 . S
C211 C212 1.375 . S
C211 C214 1.481 . S
C212 C211 1.375 . S
C212 C213 1.367 . S
C212 H226 0.951 . S
C213 C209 1.383 . S
C213 C212 1.367 . S
C213 H227 0.950 . S
C214 C211 1.481 . S
C214 C215 1.297 . S
C214 H228 0.950 . S
C215 C214 1.297 . S
C215 C216 1.479 . S
C215 H229 0.950 . S
C216 C215 1.479 . S
C216 C217 1.375 . S
C216 C222 1.404 . S
C217 C216 1.375 . S
C217 C218 1.369 . S
C217 H230 0.950 . S
C218 C217 1.369 . S
C218 C219 1.392 . S
C218 H231 0.951 . S
C219 C218 1.392 . S
C219 C221 1.384 . S
H220 C222 0.949 . S
C221 C219 1.384 . S
C221 C222 1.385 . S
C221 H223 0.950 . S
C222 C216 1.404 . S
C222 H220 0.949 . S
C222 C221 1.385 . S
H223 C221 0.950 . S
H224 C208 0.951 . S
H225 C210 0.951 . S
H226 C212 0.951 . S
H227 C213 0.950 . S
H228 C214 0.950 . S
H229 C215 0.950 . S
H230 C217 0.950 . S
H231 C218 0.951 . S
C232 C233 1.386 . S
C232 C234 1.383 . S
C232 H248 0.951 . S
C233 C232 1.386 . S
C233 C237 1.383 . S
C234 C232 1.383 . S
C234 C235 1.402 . S
C234 H249 0.951 . S
C235 C234 1.402 . S
C235 C236 1.375 . S
C235 C238 1.481 . S
C236 C235 1.375 . S
C236 C237 1.367 . S
C236 H250 0.951 . S
C237 C233 1.383 . S
C237 C236 1.367 . S
C237 H251 0.950 . S
C238 C235 1.481 . S
C238 C239 1.297 . S
C238 H252 0.950 . S
C239 C238 1.297 . S
C239 C240 1.479 . S
C239 H253 0.950 . S
C240 C239 1.479 . S
C240 C241 1.375 . S
C240 C246 1.404 . S
C241 C240 1.375 . S
C241 C242 1.369 . S
C241 H254 0.950 . S
C242 C241 1.369 . S
C242 C243 1.392 . S
C242 H255 0.951 . S
C243 C242 1.392 . S
C243 C245 1.384 . S
H244 C246 0.949 . S
C245 C243 1.384 . S
C245 C246 1.385 . S
C245 H247 0.950 . S
C246 C240 1.404 . S
C246 H244 0.949 . S
C246 C245 1.385 . S
H247 C245 0.950 . S
H248 C232 0.951 . S
H249 C234 0.951 . S
H250 C236 0.951 . S
H251 C237 0.950 . S
H252 C238 0.950 . S
H253 C239 0.950 . S
H254 C241 0.950 . S
H255 C242 0.951 . S
C256 C257 1.386 1_556 S
C256 C258 1.383 . S
C256 H272 0.951 . S
C257 C256 1.386 1_554 S
C257 C261 1.383 . S
C258 C256 1.383 . S
C258 C259 1.402 . S
C258 H273 0.951 . S
C259 C258 1.402 . S
C259 C260 1.375 1_556 S
C259 C262 1.481 . S
C260 C259 1.375 1_554 S
C260 C261 1.367 . S
C260 H274 0.951 . S
C261 C257 1.383 . S
C261 C260 1.367 . S
C261 H275 0.950 . S
C262 C259 1.481 . S
C262 C263 1.297 . S
C262 H276 0.950 . S
C263 C262 1.297 . S
C263 C264 1.479 . S
C263 H277 0.950 . S
C264 C263 1.479 . S
C264 C265 1.375 . S
C264 C270 1.404 . S
C265 C264 1.375 . S
C265 C266 1.369 . S
C265 H278 0.950 . S
C266 C265 1.369 . S
C266 C267 1.392 . S
C266 H279 0.951 . S
C267 C266 1.392 . S
C267 C269 1.384 . S
H268 C270 0.949 . S
C269 C267 1.384 . S
C269 C270 1.385 . S
C269 H271 0.950 . S
C270 C264 1.404 . S
C270 H268 0.949 . S
C270 C269 1.385 . S
H271 C269 0.950 . S
H272 C256 0.951 . S
H273 C258 0.951 . S
H274 C260 0.951 . S
H275 C261 0.950 . S
H276 C262 0.950 . S
H277 C263 0.950 . S
H278 C265 0.950 . S
H279 C266 0.951 . S
C280 C281 1.386 . S
C280 C282 1.383 . S
C280 H296 0.951 . S
C281 C280 1.386 . S
C281 C285 1.383 . S
C282 C280 1.383 . S
C282 C283 1.402 . S
C282 H297 0.951 . S
C283 C282 1.402 . S
C283 C284 1.375 . S
C283 C286 1.481 . S
C284 C283 1.375 . S
C284 C285 1.367 . S
C284 H298 0.951 . S
C285 C281 1.383 . S
C285 C284 1.367 . S
C285 H299 0.950 . S
C286 C283 1.481 . S
C286 C287 1.297 . S
C286 H300 0.950 . S
C287 C286 1.297 . S
C287 C288 1.479 . S
C287 H301 0.950 . S
C288 C287 1.479 . S
C288 C289 1.375 . S
C288 C294 1.404 . S
C289 C288 1.375 . S
C289 C290 1.369 . S
C289 H302 0.950 . S
C290 C289 1.369 . S
C290 C291 1.392 . S
C290 H303 0.951 . S
C291 C290 1.392 . S
C291 C293 1.384 . S
H292 C294 0.949 . S
C293 C291 1.384 . S
C293 C294 1.385 . S
C293 H295 0.950 . S
C294 C288 1.404 . S
C294 H292 0.949 . S
C294 C293 1.385 . S
H295 C293 0.950 . S
H296 C280 0.951 . S
H297 C282 0.951 . S
H298 C284 0.951 . S
H299 C285 0.950 . S
H300 C286 0.950 . S
H301 C287 0.950 . S
H302 C289 0.950 . S
H303 C290 0.951 . S
C304 C305 1.386 . S
C304 C306 1.383 . S
C304 H320 0.951 . S
C305 C304 1.386 . S
C305 C309 1.383 . S
C306 C304 1.383 . S
C306 C307 1.402 . S
C306 H321 0.951 . S
C307 C306 1.402 . S
C307 C308 1.375 . S
C307 C310 1.481 . S
C308 C307 1.375 . S
C308 C309 1.367 . S
C308 H322 0.951 . S
C309 C305 1.383 . S
C309 C308 1.367 . S
C309 H323 0.950 . S
C310 C307 1.481 . S
C310 C311 1.297 1_565 S
C310 H324 0.950 . S
C311 C310 1.297 1_545 S
C311 C312 1.479 . S
C311 H325 0.950 . S
C312 C311 1.479 . S
C312 C313 1.375 . S
C312 C318 1.404 . S
C313 C312 1.375 . S
C313 C314 1.369 . S
C313 H326 0.950 . S
C314 C313 1.369 . S
C314 C315 1.392 . S
C314 H327 0.951 . S
C315 C314 1.392 . S
C315 C317 1.384 . S
H316 C318 0.949 . S
C317 C315 1.384 . S
C317 C318 1.385 . S
C317 H319 0.950 . S
C318 C312 1.404 . S
C318 H316 0.949 . S
C318 C317 1.385 . S
H319 C317 0.950 . S
H320 C304 0.951 . S
H321 C306 0.951 . S
H322 C308 0.951 . S
H323 C309 0.950 . S
H324 C310 0.950 . S
H325 C311 0.950 . S
H326 C313 0.950 . S
H327 C314 0.951 . S
C328 C329 1.386 . S
C328 C330 1.383 . S
C328 H344 0.951 . S
C329 C328 1.386 . S
C329 C333 1.383 . S
C330 C328 1.383 . S
C330 C331 1.402 . S
C330 H345 0.951 . S
C331 C330 1.402 . S
C331 C332 1.375 . S
C331 C334 1.481 . S
C332 C331 1.375 . S
C332 C333 1.367 . S
C332 H346 0.951 . S
C333 C329 1.383 . S
C333 C332 1.367 . S
C333 H347 0.950 . S
C334 C331 1.481 . S
C334 C335 1.297 1_655 S
C334 H348 0.950 . S
C335 C334 1.297 1_455 S
C335 C336 1.479 . S
C335 H349 0.950 . S
C336 C335 1.479 . S
C336 C337 1.375 . S
C336 C342 1.404 . S
C337 C336 1.375 . S
C337 C338 1.369 . S
C337 H350 0.950 . S
C338 C337 1.369 . S
C338 C339 1.392 . S
C338 H351 0.951 . S
C339 C338 1.392 . S
C339 C341 1.384 . S
H340 C342 0.949 . S
C341 C339 1.384 . S
C341 C342 1.385 . S
C341 H343 0.950 . S
C342 C336 1.404 . S
C342 H340 0.949 . S
C342 C341 1.385 . S
H343 C341 0.950 . S
H344 C328 0.951 . S
H345 C330 0.951 . S
H346 C332 0.951 . S
H347 C333 0.950 . S
H348 C334 0.950 . S
H349 C335 0.950 . S
H350 C337 0.950 . S
H351 C338 0.951 . S
C352 C353 1.386 . S
C352 C354 1.383 . S
C352 H368 0.951 . S
C353 C352 1.386 . S
C353 C357 1.383 . S
C354 C352 1.383 . S
C354 C355 1.402 . S
C354 H369 0.951 . S
C355 C354 1.402 . S
C355 C356 1.375 . S
C355 C358 1.481 . S
C356 C355 1.375 . S
C356 C357 1.367 . S
C356 H370 0.951 . S
C357 C353 1.383 . S
C357 C356 1.367 . S
C357 H371 0.950 . S
C358 C355 1.481 . S
C358 C359 1.297 1_565 S
C358 H372 0.950 . S
C359 C358 1.297 1_545 S
C359 C360 1.479 . S
C359 H373 0.950 . S
C360 C359 1.479 . S
C360 C361 1.375 . S
C360 C366 1.404 . S
C361 C360 1.375 . S
C361 C362 1.369 . S
C361 H374 0.950 . S
C362 C361 1.369 . S
C362 C363 1.392 . S
C362 H375 0.951 . S
C363 C362 1.392 . S
C363 C365 1.384 . S
H364 C366 0.949 . S
C365 C363 1.384 . S
C365 C366 1.385 . S
C365 H367 0.950 . S
C366 C360 1.404 . S
C366 H364 0.949 . S
C366 C365 1.385 . S
H367 C365 0.950 . S
H368 C352 0.951 . S
H369 C354 0.951 . S
H370 C356 0.951 . S
H371 C357 0.950 . S
H372 C358 0.950 . S
H373 C359 0.950 . S
H374 C361 0.950 . S
H375 C362 0.951 . S
C376 C377 1.386 . S
C376 C378 1.383 . S
C376 H392 0.951 . S
C377 C376 1.386 . S
C377 C381 1.383 . S
C378 C376 1.383 . S
C378 C379 1.402 . S
C378 H393 0.951 . S
C379 C378 1.402 . S
C379 C380 1.375 . S
C379 C382 1.481 . S
C380 C379 1.375 . S
C380 C381 1.367 . S
C380 H394 0.951 . S
C381 C377 1.383 . S
C381 C380 1.367 . S
C381 H395 0.950 . S
C382 C379 1.481 . S
C382 C383 1.297 1_655 S
C382 H396 0.950 . S
C383 C382 1.297 1_455 S
C383 C384 1.479 . S
C383 H397 0.950 . S
C384 C383 1.479 . S
C384 C385 1.375 . S
C384 C390 1.404 . S
C385 C384 1.375 . S
C385 C386 1.369 . S
C385 H398 0.950 . S
C386 C385 1.369 . S
C386 C387 1.392 . S
C386 H399 0.951 . S
C387 C386 1.392 . S
C387 C389 1.384 . S
H388 C390 0.949 . S
C389 C387 1.384 . S
C389 C390 1.385 . S
C389 H391 0.950 . S
C390 C384 1.404 . S
C390 H388 0.949 . S
C390 C389 1.385 . S
H391 C389 0.950 . S
H392 C376 0.951 . S
H393 C378 0.951 . S
H394 C380 0.951 . S
H395 C381 0.950 . S
H396 C382 0.950 . S
H397 C383 0.950 . S
H398 C385 0.950 . S
H399 C386 0.951 . S
C400 C401 1.386 . S
C400 C402 1.383 . S
C400 H416 0.951 . S
C401 C400 1.386 . S
C401 C405 1.383 . S
C402 C400 1.383 . S
C402 C403 1.402 . S
C402 H417 0.951 1_556 S
C403 C402 1.402 . S
C403 C404 1.375 . S
C403 C406 1.481 1_556 S
C404 C403 1.375 . S
C404 C405 1.367 . S
C404 H418 0.951 . S
C405 C401 1.383 . S
C405 C404 1.367 . S
C405 H419 0.950 . S
C406 C403 1.481 1_554 S
C406 C407 1.297 . S
C406 H420 0.950 . S
C407 C406 1.297 . S
C407 C408 1.479 . S
C407 H421 0.950 . S
C408 C407 1.479 . S
C408 C409 1.375 . S
C408 C414 1.404 . S
C409 C408 1.375 . S
C409 C410 1.369 . S
C409 H422 0.950 . S
C410 C409 1.369 . S
C410 C411 1.392 . S
C410 H423 0.951 . S
C411 C410 1.392 . S
C411 C413 1.384 . S
H412 C414 0.949 . S
C413 C411 1.384 . S
C413 C414 1.385 . S
C413 H415 0.950 . S
C414 C408 1.404 . S
C414 H412 0.949 . S
C414 C413 1.385 . S
H415 C413 0.950 . S
H416 C400 0.951 . S
H417 C402 0.951 1_554 S
H418 C404 0.951 . S
H419 C405 0.950 . S
H420 C406 0.950 . S
H421 C407 0.950 . S
H422 C409 0.950 . S
H423 C410 0.951 . S
C424 C425 1.386 . S
C424 C426 1.383 . S
C424 H440 0.951 . S
C425 C424 1.386 . S
C425 C429 1.383 . S
C426 C424 1.383 . S
C426 C427 1.402 . S
C426 H441 0.951 . S
C427 C426 1.402 . S
C427 C428 1.375 . S
C427 C430 1.481 . S
C428 C427 1.375 . S
C428 C429 1.367 . S
C428 H442 0.951 . S
C429 C425 1.383 . S
C429 C428 1.367 . S
C429 H443 0.950 . S
C430 C427 1.481 . S
C430 C431 1.297 . S
C430 H444 0.950 . S
C431 C430 1.297 . S
C431 C432 1.479 . S
C431 H445 0.950 . S
C432 C431 1.479 . S
C432 C433 1.375 . S
C432 C438 1.404 . S
C433 C432 1.375 . S
C433 C434 1.369 . S
C433 H446 0.950 . S
C434 C433 1.369 . S
C434 C435 1.392 . S
C434 H447 0.951 . S
C435 C434 1.392 . S
C435 C437 1.384 . S
H436 C438 0.949 . S
C437 C435 1.384 . S
C437 C438 1.385 . S
C437 H439 0.950 . S
C438 C432 1.404 . S
C438 H436 0.949 . S
C438 C437 1.385 . S
H439 C437 0.950 . S
H440 C424 0.951 . S
H441 C426 0.951 . S
H442 C428 0.951 . S
H443 C429 0.950 . S
H444 C430 0.950 . S
H445 C431 0.950 . S
H446 C433 0.950 . S
H447 C434 0.951 . S
C448 C449 1.386 . S
C448 C450 1.383 . S
C448 H464 0.951 . S
C449 C448 1.386 . S
C449 C453 1.383 . S
C450 C448 1.383 . S
C450 C451 1.402 . S
C450 H465 0.951 . S
C451 C450 1.402 . S
C451 C452 1.375 . S
C451 C454 1.481 . S
C452 C451 1.375 . S
C452 C453 1.367 . S
C452 H466 0.951 . S
C453 C449 1.383 . S
C453 C452 1.367 . S
C453 H467 0.950 . S
C454 C451 1.481 . S
C454 C455 1.297 . S
C454 H468 0.950 . S
C455 C454 1.297 . S
C455 C456 1.479 . S
C455 H469 0.950 . S
C456 C455 1.479 . S
C456 C457 1.375 . S
C456 C462 1.404 . S
C457 C456 1.375 . S
C457 C458 1.369 . S
C457 H470 0.950 . S
C458 C457 1.369 . S
C458 C459 1.392 . S
C458 H471 0.951 . S
C459 C458 1.392 . S
C459 C461 1.384 . S
H460 C462 0.949 . S
C461 C459 1.384 . S
C461 C462 1.385 . S
C461 H463 0.950 . S
C462 C456 1.404 . S
C462 H460 0.949 . S
C462 C461 1.385 . S
H463 C461 0.950 . S
H464 C448 0.951 . S
H465 C450 0.951 . S
H466 C452 0.951 . S
H467 C453 0.950 . S
H468 C454 0.950 . S
H469 C455 0.950 . S
H470 C457 0.950 . S
H471 C458 0.951 . S
C472 C473 1.386 . S
C472 C474 1.383 . S
C472 H488 0.951 . S
C473 C472 1.386 . S
C473 C477 1.383 . S
C474 C472 1.383 . S
C474 C475 1.402 . S
C474 H489 0.951 . S
C475 C474 1.402 . S
C475 C476 1.375 . S
C475 C478 1.481 . S
C476 C475 1.375 . S
C476 C477 1.367 . S
C476 H490 0.951 . S
C477 C473 1.383 . S
C477 C476 1.367 . S
C477 H491 0.950 . S
C478 C475 1.481 . S
C478 C479 1.297 . S
C478 H492 0.950 . S
C479 C478 1.297 . S
C479 C480 1.479 . S
C479 H493 0.950 . S
C480 C479 1.479 . S
C480 C481 1.375 . S
C480 C486 1.404 . S
C481 C480 1.375 . S
C481 C482 1.369 . S
C481 H494 0.950 . S
C482 C481 1.369 . S
C482 C483 1.392 . S
C482 H495 0.951 . S
C483 C482 1.392 . S
C483 C485 1.384 . S
H484 C486 0.949 . S
C485 C483 1.384 . S
C485 C486 1.385 . S
C485 H487 0.950 . S
C486 C480 1.404 . S
C486 H484 0.949 . S
C486 C485 1.385 . S
H487 C485 0.950 . S
H488 C472 0.951 . S
H489 C474 0.951 . S
H490 C476 0.951 . S
H491 C477 0.950 . S
H492 C478 0.950 . S
H493 C479 0.950 . S
H494 C481 0.950 . S
H495 C482 0.951 . S
C113 C7 0.563 . S
C123 C91 0.597 . S
C137 C21 0.537 . S
C147 C105 0.554 . S
C161 C63 0.600 . S
C171 C35 0.644 . S
C185 C77 0.534 . S
C195 C49 0.496 . S
C209 C8 1.519 . S
C219 C78 1.482 . S
C233 C22 1.505 . S
C243 C92 1.494 . S
C257 C106 1.532 . S
C267 C36 1.495 . S
C281 C50 1.532 . S
C291 C64 1.494 . S
C305 C65 1.491 . S
C315 C9 1.512 . S
C329 C23 1.516 . S
C339 C79 1.489 . S
C353 C37 1.516 . S
C363 C93 1.489 . S
C377 C107 1.484 . S
C387 C51 1.497 . S
C401 C87 1.529 . S
C411 C3 1.522 . S
C425 C101 1.511 . S
C435 C17 1.514 . S
C449 C31 1.517 . S
C459 C59 1.524 . S
C473 C45 1.520 . S
C483 C73 1.497 . S
