# Generated by pormake.
# Topology unp, (4)-cn, num edge types: 1
# Building blocks:
#     Node 0, Type 0, BuildingBlock: QUQFOY_clean_sbu_1, # of connection points: 4
#     Node 1, Type 0, BuildingBlock: QUQFOY_clean_sbu_1, # of connection points: 4
#     Node 2, Type 0, BuildingBlock: QUQFOY_clean_sbu_1, # of connection points: 4
#     Node 3, Type 0, BuildingBlock: QUQFOY_clean_sbu_1, # of connection points: 4
#     Node 4, Type 0, BuildingBlock: QUQFOY_clean_sbu_1, # of connection points: 4
#     Node 5, Type 0, BuildingBlock: QUQFOY_clean_sbu_1, # of connection points: 4
#     Node 6, Type 0, BuildingBlock: QUQFOY_clean_sbu_1, # of connection points: 4
#     Node 7, Type 0, BuildingBlock: QUQFOY_clean_sbu_1, # of connection points: 4
#     Node 8, Type 0, BuildingBlock: QUQFOY_clean_sbu_1, # of connection points: 4
#     Node 9, Type 0, BuildingBlock: QUQFOY_clean_sbu_1, # of connection points: 4
#     Node 10, Type 0, BuildingBlock: QUQFOY_clean_sbu_1, # of connection points: 4
#     Node 11, Type 0, BuildingBlock: QUQFOY_clean_sbu_1, # of connection points: 4
#     Node 12, Type 0, BuildingBlock: QUQFOY_clean_sbu_1, # of connection points: 4
#     Node 13, Type 0, BuildingBlock: QUQFOY_clean_sbu_1, # of connection points: 4
#     Node 14, Type 0, BuildingBlock: QUQFOY_clean_sbu_1, # of connection points: 4
#     Node 15, Type 0, BuildingBlock: QUQFOY_clean_sbu_1, # of connection points: 4
#     Node 16, Type 0, BuildingBlock: QUQFOY_clean_sbu_1, # of connection points: 4
#     Node 17, Type 0, BuildingBlock: QUQFOY_clean_sbu_1, # of connection points: 4
#     Edge 18, Type (0, 0), BuildingBlock: TEMPAE_clean_linker_10, # of connection points: 2
#     Edge 19, Type (0, 0), BuildingBlock: TEMPAE_clean_linker_10, # of connection points: 2
#     Edge 20, Type (0, 0), BuildingBlock: TEMPAE_clean_linker_10, # of connection points: 2
#     Edge 21, Type (0, 0), BuildingBlock: TEMPAE_clean_linker_10, # of connection points: 2
#     Edge 22, Type (0, 0), BuildingBlock: TEMPAE_clean_linker_10, # of connection points: 2
#     Edge 23, Type (0, 0), BuildingBlock: TEMPAE_clean_linker_10, # of connection points: 2
#     Edge 24, Type (0, 0), BuildingBlock: TEMPAE_clean_linker_10, # of connection points: 2
#     Edge 25, Type (0, 0), BuildingBlock: TEMPAE_clean_linker_10, # of connection points: 2
#     Edge 26, Type (0, 0), BuildingBlock: TEMPAE_clean_linker_10, # of connection points: 2
#     Edge 27, Type (0, 0), BuildingBlock: TEMPAE_clean_linker_10, # of connection points: 2
#     Edge 28, Type (0, 0), BuildingBlock: TEMPAE_clean_linker_10, # of connection points: 2
#     Edge 29, Type (0, 0), BuildingBlock: TEMPAE_clean_linker_10, # of connection points: 2
#     Edge 30, Type (0, 0), BuildingBlock: TEMPAE_clean_linker_10, # of connection points: 2
#     Edge 31, Type (0, 0), BuildingBlock: TEMPAE_clean_linker_10, # of connection points: 2
#     Edge 32, Type (0, 0), BuildingBlock: TEMPAE_clean_linker_10, # of connection points: 2
#     Edge 33, Type (0, 0), BuildingBlock: TEMPAE_clean_linker_10, # of connection points: 2
#     Edge 34, Type (0, 0), BuildingBlock: TEMPAE_clean_linker_10, # of connection points: 2
#     Edge 35, Type (0, 0), BuildingBlock: TEMPAE_clean_linker_10, # of connection points: 2
#     Edge 36, Type (0, 0), BuildingBlock: TEMPAE_clean_linker_10, # of connection points: 2
#     Edge 37, Type (0, 0), BuildingBlock: TEMPAE_clean_linker_10, # of connection points: 2
#     Edge 38, Type (0, 0), BuildingBlock: TEMPAE_clean_linker_10, # of connection points: 2
#     Edge 39, Type (0, 0), BuildingBlock: TEMPAE_clean_linker_10, # of connection points: 2
#     Edge 40, Type (0, 0), BuildingBlock: TEMPAE_clean_linker_10, # of connection points: 2
#     Edge 41, Type (0, 0), BuildingBlock: TEMPAE_clean_linker_10, # of connection points: 2
#     Edge 42, Type (0, 0), BuildingBlock: TEMPAE_clean_linker_10, # of connection points: 2
#     Edge 43, Type (0, 0), BuildingBlock: TEMPAE_clean_linker_10, # of connection points: 2
#     Edge 44, Type (0, 0), BuildingBlock: TEMPAE_clean_linker_10, # of connection points: 2
#     Edge 45, Type (0, 0), BuildingBlock: TEMPAE_clean_linker_10, # of connection points: 2
#     Edge 46, Type (0, 0), BuildingBlock: TEMPAE_clean_linker_10, # of connection points: 2
#     Edge 47, Type (0, 0), BuildingBlock: TEMPAE_clean_linker_10, # of connection points: 2
#     Edge 48, Type (0, 0), BuildingBlock: TEMPAE_clean_linker_10, # of connection points: 2
#     Edge 49, Type (0, 0), BuildingBlock: TEMPAE_clean_linker_10, # of connection points: 2
#     Edge 50, Type (0, 0), BuildingBlock: TEMPAE_clean_linker_10, # of connection points: 2
#     Edge 51, Type (0, 0), BuildingBlock: TEMPAE_clean_linker_10, # of connection points: 2
#     Edge 52, Type (0, 0), BuildingBlock: TEMPAE_clean_linker_10, # of connection points: 2
#     Edge 53, Type (0, 0), BuildingBlock: TEMPAE_clean_linker_10, # of connection points: 2
# Relax obj value: 0.373
# Max RMSD: 0.180
# Mean RMSD: 0.180
data_MOF--net-unp--node1-QUQFOY_clean_sbu_1--edge1-TEMPAE_clean_linker_10
_symmetry_space_group_name_H-M    P1
_symmetry_Int_Tables_number       1
_symmetry_cell_setting            triclinic
loop_
_symmetry_equiv_pos_as_xyz
'x, y, z'
_cell_length_a     48.606872
_cell_length_b     48.621958
_cell_length_c     73.47243
_cell_angle_alpha  90.034679
_cell_angle_beta   89.987553
_cell_angle_gamma 119.97612
loop_
_atom_site_label
_atom_site_type_symbol
_atom_site_fract_x
_atom_site_fract_y
_atom_site_fract_z
_atom_type_partial_charge
O0 O 0.17236 0.12758 0.13064 0.0
Cd1 Cd 0.17406 0.17065 0.13084 0.0
Cd2 Cd 0.16429 0.16087 0.09354 0.0
O3 O 0.16331 0.11944 0.10118 0.0
O4 O 0.19605 0.19069 0.15395 0.0
O5 O 0.21568 0.21057 0.12676 0.0
C6 C 0.21903 0.21182 0.14425 0.0
C7 C 0.18235 0.17742 0.0637 0.0
C8 C 0.16693 0.1102 0.11671 0.0
C9 C 0.1149 0.16644 0.11603 0.0
O10 O 0.12506 0.1644 0.10045 0.0
O11 O 0.13076 0.16896 0.13032 0.0
O12 O 0.15653 0.15147 0.06712 0.0
O13 O 0.19854 0.19467 0.07732 0.0
O14 O 0.86427 0.03961 0.12117 0.0
Cd15 Cd 0.82167 -0.00063 0.12661 0.0
Cd16 Cd 0.8254 0.9845 0.09133 0.0
O17 O 0.87106 0.02227 0.09479 0.0
O18 O 0.80703 0.01 0.14939 0.0
O19 O 0.78012 0.99851 0.12352 0.0
C20 C 0.78293 0.00704 0.1404 0.0
C21 C 0.80458 0.98086 0.06204 0.0
C22 C 0.88162 0.04264 0.10756 0.0
C23 C 0.8205 0.93821 0.11972 0.0
O24 O 0.81641 0.94238 0.1031 0.0
O25 O 0.82442 0.95897 0.13154 0.0
O26 O 0.826 0.97341 0.06534 0.0
O27 O 0.79431 0.99029 0.07549 0.0
O28 O 0.95811 0.82605 0.13383 0.0
Cd29 Cd 0.99813 0.82261 0.13755 0.0
Cd30 Cd 0.00932 0.83817 0.10194 0.0
O31 O 0.97108 0.84532 0.10605 0.0
O32 O 0.98918 0.79483 0.15903 0.0
O33 O 0.99768 0.78226 0.13136 0.0
C34 C 0.99061 0.77459 0.14827 0.0
C35 C 0.01166 0.81996 0.0727 0.0
C36 C 0.95276 0.83777 0.11977 0.0
C37 C 0.05922 0.88052 0.12903 0.0
O38 O 0.05249 0.87183 0.11255 0.0
O39 O 0.03985 0.86476 0.14166 0.0
O40 O 0.01836 0.84868 0.0757 0.0
O41 O 0.0035 0.80092 0.08642 0.0
O42 O 0.12902 0.16001 0.86271 0.0
Cd43 Cd 0.17381 0.1685 0.8695 0.0
Cd44 Cd 0.15488 0.1696 0.90256 0.0
O45 O 0.12371 0.17932 0.88871 0.0
O46 O 0.20573 0.19518 0.85089 0.0
O47 O 0.20328 0.21188 0.87873 0.0
C48 C 0.21603 0.21791 0.86272 0.0
C49 C 0.17216 0.19235 0.93143 0.0
C50 C 0.11384 0.16921 0.87273 0.0
C51 C 0.15946 0.11251 0.89013 0.0
O52 O 0.14663 0.12353 0.90076 0.0
O53 O 0.1767 0.12935 0.87704 0.0
O54 O 0.14297 0.17169 0.92822 0.0
O55 O 0.19194 0.20105 0.91804 0.0
O56 O 0.83188 0.95999 0.86242 0.0
Cd57 Cd 0.82441 0.99815 0.86189 0.0
Cd58 Cd 0.83094 0.99552 0.89891 0.0
O59 O 0.82596 0.952 0.89204 0.0
O60 O 0.79984 0.993 0.8394 0.0
O61 O 0.78126 0.99197 0.86715 0.0
C62 C 0.77675 0.98928 0.84974 0.0
C63 C 0.81579 0.99831 0.92897 0.0
C64 C 0.82956 0.94345 0.8763 0.0
C65 C 0.88206 0.0514 0.87628 0.0
O66 O 0.87271 0.0357 0.89104 0.0
O67 O 0.86454 0.04203 0.86223 0.0
O68 O 0.84111 0.99737 0.92526 0.0
O69 O 0.79826 0.99739 0.91554 0.0
O70 O 0.03177 0.86319 0.8748 0.0
Cd71 Cd 0.99371 0.81749 0.87365 0.0
Cd72 Cd 0.99593 0.82587 0.91061 0.0
O73 O 0.03881 0.86562 0.90451 0.0
O74 O -0.00061 0.79941 0.85069 0.0
O75 O -0.00014 0.78022 0.87801 0.0
C76 C 0.00293 0.77945 0.86056 0.0
C77 C 0.9926 0.80643 0.94029 0.0
C78 C 0.04756 0.87791 0.88883 0.0
C79 C 0.94046 0.82194 0.88812 0.0
O80 O 0.95598 0.82776 0.90291 0.0
O81 O 0.94975 0.8139 0.87399 0.0
O82 O 0.99292 0.83252 0.93705 0.0
O83 O 0.99455 0.79087 0.92661 0.0
O84 O 0.83498 0.46051 0.4477 0.0
Cd85 Cd 0.83983 0.50316 0.45599 0.0
Cd86 Cd 0.81668 0.50345 0.42326 0.0
O87 O 0.80346 0.45592 0.42498 0.0
O88 O 0.86741 0.51463 0.47783 0.0
O89 O 0.88096 0.54422 0.45294 0.0
C90 C 0.88806 0.53945 0.46914 0.0
C91 C 0.83524 0.52551 0.39444 0.0
C92 C 0.81573 0.44392 0.43525 0.0
C93 C 0.78176 0.50969 0.45424 0.0
O94 O 0.78863 0.5165 0.43756 0.0
O95 O 0.79831 0.50177 0.46398 0.0
O96 O 0.80553 0.50699 0.3977 0.0
O97 O 0.85486 0.53262 0.40782 0.0
O98 O 0.53464 0.37153 0.47091 0.0
Cd99 Cd 0.49026 0.33158 0.4732 0.0
Cd100 Cd 0.49747 0.32753 0.43591 0.0
O101 O 0.54011 0.36794 0.44134 0.0
O102 O 0.47237 0.33849 0.49586 0.0
O103 O 0.45102 0.33433 0.46858 0.0
C104 C 0.45095 0.33927 0.48587 0.0
C105 C 0.47875 0.32493 0.40606 0.0
C106 C 0.55097 0.38191 0.45645 0.0
C107 C 0.49139 0.27427 0.4608 0.0
O108 O 0.49388 0.28586 0.44499 0.0
O109 O 0.48872 0.28837 0.47469 0.0
O110 O 0.5029 0.3218 0.40961 0.0
O111 O 0.46468 0.32973 0.41955 0.0
O112 O 0.62462 0.16059 0.47513 0.0
Cd113 Cd 0.66177 0.15402 0.4681 0.0
Cd114 Cd 0.64226 0.1524 0.43407 0.0
O115 O 0.60234 0.14615 0.44806 0.0
O116 O 0.66825 0.12759 0.48631 0.0
O117 O 0.64983 0.11144 0.45829 0.0
C118 C 0.65683 0.10528 0.4742 0.0
C119 C 0.63489 0.12822 0.40547 0.0
C120 C 0.60145 0.1538 0.46453 0.0
C121 C 0.70452 0.20941 0.44654 0.0
O122 O 0.68245 0.19717 0.43475 0.0
O123 O 0.7027 0.19465 0.46114 0.0
O124 O 0.62802 0.15016 0.40844 0.0
O125 O 0.64503 0.11883 0.41899 0.0
O126 O 0.79365 0.49767 0.2005 0.0
Cd127 Cd 0.83704 0.50067 0.19736 0.0
Cd128 Cd 0.8319 0.4859 0.23327 0.0
O129 O 0.78669 0.47855 0.22834 0.0
O130 O 0.85628 0.52764 0.17563 0.0
O131 O 0.87689 0.54113 0.20336 0.0
C132 C 0.87778 0.54824 0.18632 0.0
C133 C 0.85017 0.50417 0.26287 0.0
C134 C 0.77626 0.48603 0.21444 0.0
C135 C 0.84004 0.44293 0.20702 0.0
O136 O 0.84201 0.45221 0.22338 0.0
O137 O 0.83642 0.45822 0.19412 0.0
O138 O 0.82855 0.4754 0.25959 0.0
O139 O 0.86218 0.52313 0.24919 0.0
O140 O 0.48722 0.28527 0.21387 0.0
Cd141 Cd 0.48444 0.32533 0.20857 0.0
Cd142 Cd 0.50363 0.34051 0.24371 0.0
O143 O 0.51144 0.30267 0.24022 0.0
O144 O 0.45865 0.31449 0.18602 0.0
O145 O 0.44376 0.32602 0.21209 0.0
C146 C 0.43769 0.31744 0.19523 0.0
C147 C 0.48703 0.34445 0.27313 0.0
C148 C 0.50164 0.2823 0.22745 0.0
C149 C 0.54427 0.38672 0.21505 0.0
O150 O 0.53648 0.38254 0.23175 0.0
O151 O 0.52723 0.36588 0.20332 0.0
O152 O 0.51577 0.35167 0.26964 0.0
O153 O 0.46712 0.33508 0.25978 0.0
O154 O 0.7068 0.1959 0.20686 0.0
Cd155 Cd 0.66547 0.15282 0.20627 0.0
Cd156 Cd 0.66444 0.16272 0.24361 0.0
O157 O 0.70533 0.20402 0.23628 0.0
O158 O 0.66819 0.13342 0.18306 0.0
O159 O 0.66715 0.11279 0.21012 0.0
C160 C 0.6698 0.11204 0.19263 0.0
C161 C 0.66443 0.14558 0.27351 0.0
C162 C 0.71851 0.21324 0.22083 0.0
C163 C 0.6103 0.15744 0.2204 0.0
O164 O 0.62215 0.15964 0.23611 0.0
O165 O 0.62387 0.1546 0.2063 0.0
O166 O 0.66514 0.17179 0.27004 0.0
O167 O 0.6638 0.12848 0.25992 0.0
O168 O 0.50545 0.79077 0.7839 0.0
Cd169 Cd 0.50883 0.83414 0.78823 0.0
Cd170 Cd 0.48998 0.82937 0.75275 0.0
O171 O 0.48249 0.78416 0.75717 0.0
O172 O 0.53448 0.84992 0.81079 0.0
O173 O 0.5499 0.87481 0.78429 0.0
C174 C 0.55576 0.87306 0.80128 0.0
C175 C 0.50596 0.8471 0.72287 0.0
C176 C 0.49148 0.77346 0.77023 0.0
C177 C 0.44937 0.83655 0.78075 0.0
O178 O 0.4567 0.83868 0.76401 0.0
O179 O 0.4664 0.83327 0.79273 0.0
O180 O 0.47806 0.82414 0.72662 0.0
O181 O 0.5252 0.86115 0.73622 0.0
O182 O 0.20099 0.70501 0.79434 0.0
Cd183 Cd 0.15657 0.66539 0.79742 0.0
Cd184 Cd 0.16325 0.65799 0.76067 0.0
O185 O 0.20671 0.69783 0.76524 0.0
O186 O 0.13974 0.6739 0.82003 0.0
O187 O 0.11719 0.66805 0.79299 0.0
C188 C 0.11787 0.6741 0.81017 0.0
C189 C 0.14314 0.6549 0.73117 0.0
C190 C 0.21757 0.71342 0.77991 0.0
C191 C 0.15721 0.60674 0.78692 0.0
O192 O 0.15904 0.61656 0.7707 0.0
O193 O 0.15519 0.62238 0.80021 0.0
O194 O 0.16657 0.65041 0.73436 0.0
O195 O 0.13046 0.6611 0.74483 0.0
O196 O 0.29139 0.49484 0.81242 0.0
Cd197 Cd 0.32851 0.48699 0.80771 0.0
Cd198 Cd 0.31429 0.48619 0.77224 0.0
O199 O 0.27372 0.48228 0.78426 0.0
O200 O 0.33207 0.46027 0.82692 0.0
O201 O 0.31711 0.44418 0.79842 0.0
C202 C 0.3222 0.43803 0.81481 0.0
C203 C 0.30765 0.46359 0.74317 0.0
C204 C 0.2704 0.48938 0.80047 0.0
C205 C 0.37632 0.54113 0.78714 0.0
O206 O 0.35641 0.52934 0.77418 0.0
O207 O 0.37101 0.52679 0.80226 0.0
O208 O 0.30343 0.48722 0.74626 0.0
O209 O 0.31497 0.45175 0.75679 0.0
O210 O 0.46103 0.82593 0.52174 0.0
Cd211 Cd 0.50624 0.83517 0.52816 0.0
Cd212 Cd 0.48854 0.83739 0.56153 0.0
O213 O 0.45673 0.84616 0.54765 0.0
O214 O 0.53788 0.86184 0.50941 0.0
O215 O 0.53556 0.87874 0.53722 0.0
C216 C 0.54826 0.88465 0.52119 0.0
C217 C 0.50544 0.86124 0.59016 0.0
C218 C 0.44622 0.83542 0.53185 0.0
C219 C 0.49391 0.78043 0.54961 0.0
O220 O 0.48132 0.79159 0.56033 0.0
O221 O 0.51001 0.79668 0.53605 0.0
O222 O 0.4764 0.84011 0.58704 0.0
O223 O 0.52537 0.86967 0.57686 0.0
O224 O 0.16487 0.62571 0.53454 0.0
Cd225 Cd 0.15714 0.66348 0.53163 0.0
Cd226 Cd 0.16704 0.66811 0.56879 0.0
O227 O 0.16433 0.62484 0.56455 0.0
O228 O 0.13185 0.65485 0.50902 0.0
O229 O 0.11406 0.65807 0.53628 0.0
C230 C 0.10908 0.65286 0.519 0.0
C231 C 0.1521 0.67382 0.5984 0.0
C232 C 0.16565 0.61289 0.54943 0.0
C233 C 0.21547 0.72011 0.54318 0.0
O234 O 0.20732 0.70777 0.55893 0.0
O235 O 0.19723 0.70731 0.52964 0.0
O236 O 0.17844 0.67469 0.59507 0.0
O237 O 0.13364 0.66985 0.58483 0.0
O238 O 0.36827 0.53139 0.54455 0.0
Cd239 Cd 0.33032 0.48589 0.54725 0.0
Cd240 Cd 0.34114 0.50101 0.58233 0.0
O241 O 0.38452 0.53624 0.57288 0.0
O242 O 0.3307 0.46341 0.52481 0.0
O243 O 0.33767 0.44966 0.55251 0.0
C244 C 0.3368 0.44558 0.53507 0.0
C245 C 0.34076 0.48183 0.61169 0.0
C246 C 0.38869 0.54698 0.55676 0.0
C247 C 0.28302 0.49723 0.56394 0.0
O248 O 0.30293 0.50754 0.57696 0.0
O249 O 0.28698 0.48297 0.55059 0.0
O250 O 0.34744 0.51057 0.60879 0.0
O251 O 0.33448 0.46343 0.59779 0.0
C252 C 0.39531 0.28679 0.1726 0.0
C253 C 0.40668 0.30865 0.18697 0.0
C254 C 0.36462 0.27519 0.16569 0.0
C255 C 0.34513 0.2865 0.17296 0.0
C256 C 0.35715 0.31001 0.18676 0.0
C257 C 0.38766 0.3204 0.19387 0.0
C258 C 0.3525 0.24955 0.1513 0.0
C259 C 0.3375 0.32347 0.19435 0.0
C260 C 0.27201 0.26183 0.14382 0.0
C261 C 0.24958 0.23433 0.1529 0.0
C262 C 0.30269 0.28076 0.15101 0.0
C263 C 0.3113 0.27122 0.16723 0.0
C264 C 0.28823 0.24428 0.17684 0.0
C265 C 0.25753 0.22648 0.16969 0.0
C266 C 0.32629 0.31003 0.14076 0.0
C267 C 0.29656 0.23277 0.19394 0.0
H268 H 0.40988 0.27753 0.16729 0.0
H269 H 0.39655 0.33755 0.20488 0.0
H270 H 0.33191 0.22757 0.1567 0.0
H271 H 0.34414 0.25695 0.13923 0.0
H272 H 0.37093 0.24385 0.14684 0.0
H273 H 0.3519 0.34486 0.20286 0.0
H274 H 0.32636 0.32981 0.18316 0.0
H275 H 0.31805 0.30534 0.20287 0.0
H276 H 0.26584 0.26814 0.13092 0.0
H277 H 0.24031 0.20518 0.17673 0.0
H278 H 0.34352 0.30518 0.13362 0.0
H279 H 0.33993 0.33005 0.15029 0.0
H280 H 0.31448 0.31741 0.13049 0.0
H281 H 0.31386 0.22493 0.1906 0.0
H282 H 0.27542 0.21261 0.20037 0.0
H283 H 0.308 0.25227 0.20401 0.0
C284 C 0.72998 0.00415 0.14216 0.0
C285 C 0.76082 0.01578 0.14891 0.0
C286 C 0.71 0.01455 0.14949 0.0
C287 C 0.72166 0.03793 0.16336 0.0
C288 C 0.75252 0.0491 0.17048 0.0
C289 C 0.7715 0.03751 0.16336 0.0
C290 C 0.67682 0.00124 0.14203 0.0
C291 C 0.76624 0.07461 0.18494 0.0
C292 C 0.69397 0.09788 0.16712 0.0
C293 C 0.67813 0.08978 0.1839 0.0
C294 C 0.70698 0.08024 0.15984 0.0
C295 C 0.70322 0.05322 0.16931 0.0
C296 C 0.68511 0.04348 0.18556 0.0
C297 C 0.67323 0.06224 0.19285 0.0
C298 C 0.72677 0.09196 0.14273 0.0
C299 C 0.67957 0.01415 0.19567 0.0
H300 H 0.72157 0.98711 0.1311 0.0
H301 H 0.79539 0.04668 0.16855 0.0
H302 H 0.65946 0.99476 0.15331 0.0
H303 H 0.67544 0.01952 0.13369 0.0
H304 H 0.66973 0.97997 0.13339 0.0
H305 H 0.79036 0.08015 0.1893 0.0
H306 H 0.7677 0.09669 0.17966 0.0
H307 H 0.75056 0.06716 0.19706 0.0
H308 H 0.69795 0.11922 0.16016 0.0
H309 H 0.66073 0.05573 0.20575 0.0
H310 H 0.71863 0.07259 0.13256 0.0
H311 H 0.7519 0.09971 0.14598 0.0
H312 H 0.72579 0.11223 0.13644 0.0
H313 H 0.67306 0.99419 0.18607 0.0
H314 H 0.66053 0.0067 0.20605 0.0
H315 H 0.70175 0.01893 0.20267 0.0
C316 C 0.92921 0.5996 0.18873 0.0
C317 C 0.9007 0.58019 0.1795 0.0
C318 C 0.94919 0.63126 0.18335 0.0
C319 C 0.9397 0.64393 0.16888 0.0
C320 C 0.91149 0.62401 0.15913 0.0
C321 C 0.89262 0.59225 0.16438 0.0
C322 C 0.97971 0.65146 0.1936 0.0
C323 C 0.90005 0.63672 0.14393 0.0
C324 C 0.96095 0.73007 0.16984 0.0
C325 C 0.98141 0.74247 0.15487 0.0
C326 C 0.94817 0.69827 0.17497 0.0
C327 C 0.95686 0.67863 0.16524 0.0
C328 C 0.97923 0.69159 0.15089 0.0
C329 C 0.99083 0.7233 0.14564 0.0
C330 C 0.92378 0.68524 0.19005 0.0
C331 C 0.98996 0.67168 0.14066 0.0
H332 H 0.93565 0.5902 0.20032 0.0
H333 H 0.87051 0.57735 0.15726 0.0
H334 H -0.00056 0.66568 0.18401 0.0
H335 H 0.977 0.66833 0.20255 0.0
H336 H 0.98634 0.63688 0.2022 0.0
H337 H 0.87835 0.61777 0.1372 0.0
H338 H 0.89466 0.65478 0.14944 0.0
H339 H 0.91883 0.6486 0.13349 0.0
H340 H 0.95348 0.74477 0.17697 0.0
H341 H 0.00691 0.73295 0.13416 0.0
H342 H 0.93084 0.67363 0.20058 0.0
H343 H 0.90056 0.66689 0.18446 0.0
H344 H 0.92054 0.70396 0.19669 0.0
H345 H 0.99559 0.65758 0.15027 0.0
H346 H 0.01119 0.68646 0.13211 0.0
H347 H 0.97055 0.6547 0.13167 0.0
C348 C 0.32975 0.40041 0.83442 0.0
C349 C 0.31379 0.40555 0.82011 0.0
C350 C 0.31901 0.3697 0.8412 0.0
C351 C 0.29092 0.34393 0.83399 0.0
C352 C 0.27547 0.34893 0.81907 0.0
C353 C 0.28748 0.37965 0.81209 0.0
C354 C 0.3369 0.36508 0.85656 0.0
C355 C 0.24499 0.32227 0.81129 0.0
C356 C 0.261 0.25675 0.84335 0.0
C357 C 0.23908 0.25071 0.85733 0.0
C358 C 0.27987 0.28759 0.83644 0.0
C359 C 0.27561 0.3125 0.84317 0.0
C360 C 0.25428 0.30664 0.85775 0.0
C361 C 0.2367 0.27589 0.86487 0.0
C362 C 0.30336 0.29321 0.82146 0.0
C363 C 0.24841 0.33233 0.86503 0.0
H364 H 0.35029 0.42047 0.84051 0.0
H365 H 0.275 0.38369 0.80112 0.0
H366 H 0.32348 0.36088 0.86944 0.0
H367 H 0.33944 0.34395 0.85401 0.0
H368 H 0.3609 0.38614 0.85844 0.0
H369 H 0.23665 0.32987 0.79924 0.0
H370 H 0.24821 0.30208 0.80725 0.0
H371 H 0.22613 0.31342 0.82184 0.0
H372 H 0.26299 0.23727 0.8376 0.0
H373 H 0.21955 0.27118 0.87557 0.0
H374 H 0.32633 0.31511 0.82417 0.0
H375 H 0.29416 0.29661 0.80834 0.0
H376 H 0.30768 0.27295 0.81994 0.0
H377 H 0.27104 0.35319 0.86942 0.0
H378 H 0.2317 0.32406 0.87673 0.0
H379 H 0.23835 0.34042 0.85408 0.0
C380 C 0.73656 0.96231 0.82543 0.0
C381 C 0.74519 0.97922 0.84186 0.0
C382 C 0.70545 0.94858 0.8188 0.0
C383 C 0.68266 0.95275 0.82853 0.0
C384 C 0.6918 0.97163 0.84449 0.0
C385 C 0.72289 0.98418 0.85118 0.0
C386 C 0.69654 0.92789 0.80201 0.0
C387 C 0.66845 0.97756 0.85486 0.0
C388 C 0.60607 0.92571 0.80223 0.0
C389 C 0.58691 0.89521 0.80938 0.0
C390 C 0.63672 0.94572 0.80916 0.0
C391 C 0.64873 0.93436 0.82303 0.0
C392 C 0.62911 0.90383 0.83055 0.0
C393 C 0.59826 0.88487 0.82383 0.0
C394 C 0.65655 0.97858 0.8013 0.0
C395 C 0.64124 0.89043 0.845 0.0
H396 H 0.75371 0.95826 0.81824 0.0
H397 H 0.72961 0.99751 0.86381 0.0
H398 H 0.679 0.90302 0.80569 0.0
H399 H 0.68516 0.93579 0.7918 0.0
H400 H 0.71739 0.9282 0.7956 0.0
H401 H 0.68044 0.99676 0.86512 0.0
H402 H 0.65482 0.98405 0.84539 0.0
H403 H 0.65115 0.95557 0.86203 0.0
H404 H 0.59717 0.93384 0.79117 0.0
H405 H 0.58355 0.86121 0.82932 0.0
H406 H 0.67596 0.9795 0.79289 0.0
H407 H 0.66776 0.99632 0.81236 0.0
H408 H 0.64227 0.98548 0.79263 0.0
H409 H 0.66146 0.88845 0.83952 0.0
H410 H 0.62265 0.8666 0.84973 0.0
H411 H 0.65014 0.90657 0.8569 0.0
C412 C 0.06617 0.67385 0.81055 0.0
C413 C 0.09608 0.68366 0.8182 0.0
C414 C 0.04651 0.6849 0.81754 0.0
C415 C 0.05766 0.70718 0.83199 0.0
C416 C 0.08764 0.71667 0.83993 0.0
C417 C 0.10622 0.70437 0.83313 0.0
C418 C 0.01421 0.67337 0.80918 0.0
C419 C 0.10087 0.74107 0.855 0.0
C420 C 0.03093 0.76792 0.83604 0.0
C421 C 0.01316 0.75842 0.85216 0.0
C422 C 0.04463 0.75076 0.82897 0.0
C423 C 0.03954 0.72282 0.83791 0.0
C424 C 0.01986 0.71197 0.85354 0.0
C425 C 0.00737 0.73027 0.8607 0.0
C426 C 0.06618 0.7637 0.81259 0.0
C427 C 0.01295 0.68167 0.86305 0.0
H428 H 0.05821 0.65762 0.79909 0.0
H429 H 0.12945 0.71218 0.83899 0.0
H430 H 0.99591 0.66615 0.81997 0.0
H431 H 0.01421 0.69288 0.80137 0.0
H432 H 0.00734 0.65297 0.79984 0.0
H433 H 0.12437 0.74547 0.85988 0.0
H434 H 0.10352 0.76385 0.85009 0.0
H435 H 0.08427 0.73321 0.86671 0.0
H436 H 0.03562 0.7898 0.82946 0.0
H437 H 0.99339 0.72275 0.87309 0.0
H438 H 0.05855 0.74533 0.80183 0.0
H439 H 0.09077 0.77031 0.81654 0.0
H440 H 0.06655 0.78497 0.80676 0.0
H441 H 0.00634 0.6623 0.85301 0.0
H442 H 0.99348 0.67401 0.87317 0.0
H443 H 0.03456 0.68525 0.87024 0.0
C444 C 0.9307 0.54901 0.49124 0.0
C445 C 0.91961 0.56052 0.47723 0.0
C446 C 0.96153 0.56728 0.49814 0.0
C447 C 0.98153 0.59818 0.4912 0.0
C448 C 0.96995 0.61056 0.47767 0.0
C449 C 0.93921 0.59136 0.47063 0.0
C450 C 0.97314 0.55289 0.51229 0.0
C451 C 0.9903 0.64373 0.47032 0.0
C452 C 0.05487 0.64704 0.52019 0.0
C453 C 0.0775 0.64244 0.51096 0.0
C454 C 0.0239 0.63448 0.51329 0.0
C455 C 0.01527 0.61616 0.49712 0.0
C456 C 0.03837 0.61236 0.48748 0.0
C457 C 0.06929 0.62589 0.4944 0.0
C458 C 0.00015 0.6398 0.52366 0.0
C459 C 0.03 0.59243 0.4704 0.0
H460 H 0.91569 0.52513 0.49634 0.0
H461 H 0.93059 0.60043 0.45991 0.0
H462 H 0.99336 0.55099 0.50672 0.0
H463 H 0.98192 0.56839 0.52447 0.0
H464 H 0.9543 0.52889 0.51661 0.0
H465 H 0.97659 0.65113 0.46149 0.0
H466 H 0.00092 0.66096 0.48168 0.0
H467 H 0.01016 0.64495 0.46224 0.0
H468 H 0.06122 0.66007 0.53291 0.0
H469 H 0.08666 0.62216 0.48724 0.0
H470 H 0.98233 0.6173 0.53017 0.0
H471 H 0.98718 0.6472 0.51425 0.0
H472 H 0.01165 0.65813 0.53443 0.0
H473 H 0.01248 0.56737 0.47372 0.0
H474 H 0.05109 0.59316 0.46404 0.0
H475 H 0.01878 0.60066 0.46029 0.0
C476 C 0.34142 0.39657 0.53623 0.0
C477 C 0.34605 0.42367 0.5269 0.0
C478 C 0.35353 0.3778 0.52928 0.0
C479 C 0.37183 0.38728 0.5131 0.0
C480 C 0.37563 0.41409 0.50336 0.0
C481 C 0.36217 0.43159 0.51022 0.0
C482 C 0.34784 0.34861 0.53962 0.0
C483 C 0.39581 0.42567 0.48638 0.0
C484 C 0.43955 0.37043 0.50824 0.0
C485 C 0.42899 0.34859 0.49387 0.0
C486 C 0.42081 0.38264 0.51488 0.0
C487 C 0.39021 0.37178 0.50744 0.0
C488 C 0.37866 0.3483 0.49362 0.0
C489 C 0.39854 0.33747 0.48668 0.0
C490 C 0.4345 0.40841 0.5292 0.0
C491 C 0.34569 0.33521 0.48589 0.0
H492 H 0.3287 0.39029 0.54906 0.0
H493 H 0.36597 0.4527 0.50306 0.0
H494 H 0.34121 0.32846 0.53015 0.0
H495 H 0.36996 0.35337 0.54667 0.0
H496 H 0.3288 0.34144 0.54998 0.0
H497 H 0.39521 0.44607 0.48 0.0
H498 H 0.42082 0.43315 0.48984 0.0
H499 H 0.38771 0.40629 0.47623 0.0
H500 H 0.46323 0.37925 0.51369 0.0
H501 H 0.3903 0.32036 0.47565 0.0
H502 H 0.41878 0.40119 0.54129 0.0
H503 H 0.43599 0.4304 0.52374 0.0
H504 H 0.45859 0.414 0.53365 0.0
H505 H 0.3281 0.32889 0.49702 0.0
H506 H 0.33863 0.31387 0.47732 0.0
H507 H 0.34466 0.35353 0.47741 0.0
C508 C 0.62181 0.04699 0.47115 0.0
C509 C 0.64839 0.07262 0.47917 0.0
C510 C 0.60951 0.01614 0.47797 0.0
C511 C 0.62487 0.0107 0.49276 0.0
C512 C 0.65324 0.03614 0.49994 0.0
C513 C 0.66433 0.067 0.49329 0.0
C514 C 0.57878 0.98984 0.4702 0.0
C515 C 0.67103 0.03104 0.51518 0.0
C516 C 0.56983 0.9428 0.52348 0.0
C517 C 0.57161 0.91737 0.5158 0.0
C518 C 0.58794 0.97358 0.51648 0.0
C519 C 0.60915 0.9792 0.50188 0.0
C520 C 0.61276 0.95399 0.49499 0.0
C521 C 0.59341 0.92315 0.50179 0.0
C522 C 0.58276 -0.00038 0.52394 0.0
C523 C 0.63608 0.95931 0.47996 0.0
H524 H 0.60932 0.05134 0.46031 0.0
H525 H 0.68506 0.08682 0.49941 0.0
H526 H 0.58155 0.96942 0.46609 0.0
H527 H 0.55998 0.98124 0.48079 0.0
H528 H 0.57061 0.99773 0.45821 0.0
H529 H 0.69527 0.05177 0.51695 0.0
H530 H 0.65787 0.02718 0.52813 0.0
H531 H 0.67296 0.00958 0.51258 0.0
H532 H 0.5528 0.93831 0.53422 0.0
H533 H 0.59496 0.90349 0.49594 0.0
H534 H 0.57293 0.00813 0.5131 0.0
H535 H 0.60565 0.02016 0.52834 0.0
H536 H 0.56614 0.99153 0.53568 0.0
H537 H 0.62704 0.96309 0.46689 0.0
H538 H 0.63991 0.93875 0.47833 0.0
H539 H 0.65929 0.98091 0.48271 0.0
C540 C 0.06808 0.16764 0.1031 0.0
C541 C 0.08186 0.15982 0.11748 0.0
C542 C 0.03502 0.1545 0.10201 0.0
C543 C 0.01538 0.13213 0.11525 0.0
C544 C 0.02936 0.1261 0.13053 0.0
C545 C 0.06253 0.14046 0.1316 0.0
C546 C 0.02109 0.16262 0.08593 0.0
C547 C 0.00934 0.10199 0.1448 0.0
C548 C 0.92566 0.09585 0.11759 0.0
C549 C 0.91541 0.0677 0.10769 0.0
C550 C 0.95819 0.11806 0.11939 0.0
C551 C 0.98085 0.1113 0.11167 0.0
C552 C 0.97051 0.08325 0.10129 0.0
C553 C 0.93793 0.06208 0.09918 0.0
C554 C 0.96827 0.14825 0.12995 0.0
C555 C 0.99385 0.07476 0.09311 0.0
H556 H 0.08304 0.18282 0.09222 0.0
H557 H 0.07311 0.13418 0.14267 0.0
H558 H 0.01213 0.14303 0.07585 0.0
H559 H 0.00074 0.16543 0.09022 0.0
H560 H 0.03903 0.18479 0.07912 0.0
H561 H 0.02361 0.10261 0.15676 0.0
H562 H 0.99001 0.10606 0.14954 0.0
H563 H 0.99806 0.07784 0.13876 0.0
H564 H 0.90826 0.10032 0.1241 0.0
H565 H 0.93012 0.04023 0.09165 0.0
H566 H 0.98701 0.16901 0.12248 0.0
H567 H 0.97845 0.14702 0.14323 0.0
H568 H 0.94803 0.15226 0.13259 0.0
H569 H 0.01026 0.09378 0.08374 0.0
H570 H 0.98188 0.05202 0.08546 0.0
H571 H 0.00846 0.07271 0.10406 0.0
C572 C 0.85051 0.91878 0.1379 0.0
C573 C 0.82817 0.91315 0.12423 0.0
C574 C 0.86625 0.90123 0.13859 0.0
C575 C 0.85876 0.87691 0.12562 0.0
C576 C 0.83342 0.86857 0.11328 0.0
C577 C 0.81869 0.8871 0.11256 0.0
C578 C 0.89329 0.91113 0.15189 0.0
C579 C 0.8238 0.84196 0.09974 0.0
C580 C 0.92889 0.86988 0.10913 0.0
C581 C 0.92674 0.84522 0.12 0.0
C582 C 0.90652 0.87993 0.11064 0.0
C583 C 0.88081 0.86434 0.12297 0.0
C584 C 0.87755 0.83831 0.13329 0.0
C585 C 0.90088 0.82937 0.1319 0.0
C586 C 0.91118 0.90813 0.09956 0.0
C587 C 0.84995 0.82045 0.14611 0.0
H588 H 0.85801 0.9389 0.14696 0.0
H589 H 0.80117 0.88242 0.10208 0.0
H590 H 0.89199 0.89014 0.15863 0.0
H591 H 0.91617 0.92347 0.14441 0.0
H592 H 0.89342 0.92745 0.16252 0.0
H593 H 0.79992 0.83417 0.09392 0.0
H594 H 0.8412 0.85017 0.08841 0.0
H595 H 0.82368 0.82126 0.10617 0.0
H596 H 0.94891 0.88233 0.1 0.0
H597 H 0.899 0.81011 0.14023 0.0
H598 H 0.91396 0.92745 0.10878 0.0
H599 H 0.89002 0.90142 0.09096 0.0
H600 H 0.93239 0.91754 0.0906 0.0
H601 H 0.85272 0.8355 0.15809 0.0
H602 H 0.84828 0.79805 0.151 0.0
H603 H 0.82729 0.81474 0.13934 0.0
C604 C 0.17483 0.06916 0.13276 0.0
C605 C 0.16026 0.07727 0.11895 0.0
C606 C 0.16557 0.03722 0.13617 0.0
C607 C 0.14013 0.01298 0.12611 0.0
C608 C 0.12598 0.02124 0.11185 0.0
C609 C 0.13668 0.05328 0.10822 0.0
C610 C 0.18228 0.02956 0.15091 0.0
C611 C 0.09827 0.99625 0.10102 0.0
C612 C 0.11269 0.92592 0.12129 0.0
C613 C 0.08593 0.91271 0.13264 0.0
C614 C 0.13334 0.95889 0.12074 0.0
C615 C 0.1261 0.97896 0.13116 0.0
C616 C 0.10092 0.96549 0.14393 0.0
C617 C 0.08144 0.93239 0.14474 0.0
C618 C 0.16111 0.9723 0.10778 0.0
C619 C 0.09209 0.98595 0.15516 0.0
H620 H 0.19322 0.08774 0.14101 0.0
H621 H 0.12518 0.05949 0.09765 0.0
H622 H 0.16846 0.02407 0.16372 0.0
H623 H 0.1844 0.00854 0.14725 0.0
H624 H 0.2064 0.04996 0.15359 0.0
H625 H 0.08969 0.00673 0.09059 0.0
H626 H 0.10516 0.98036 0.09405 0.0
H627 H 0.07827 0.98135 0.11031 0.0
H628 H 0.11638 0.91066 0.11205 0.0
H629 H 0.06069 0.92225 0.15349 0.0
H630 H 0.18202 0.9932 0.11385 0.0
H631 H 0.15473 0.98026 0.09513 0.0
H632 H 0.16784 0.9543 0.10403 0.0
H633 H 0.11334 0.0053 0.16192 0.0
H634 H 0.0741 0.97204 0.16573 0.0
H635 H 0.0822 0.99715 0.1461 0.0
C636 C 0.09549 0.92584 0.90129 0.0
C637 C 0.07319 0.91138 0.88728 0.0
C638 C 0.11586 0.95889 0.90164 0.0
C639 C 0.11306 0.97787 0.88798 0.0
C640 C 0.09212 0.96316 0.87316 0.0
C641 C 0.07275 0.93004 0.87286 0.0
C642 C 0.13879 0.9736 0.91728 0.0
C643 C 0.08798 0.9825 0.85845 0.0
C644 C 0.12302 0.0576 0.90109 0.0
C645 C 0.15067 0.07872 0.89162 0.0
C646 C 0.1112 0.0248 0.90048 0.0
C647 C 0.1279 0.01278 0.89056 0.0
C648 C 0.15699 0.03407 0.88198 0.0
C649 C 0.16782 0.06685 0.88237 0.0
C650 C 0.07982 0.00294 0.9096 0.0
C651 C 0.17601 0.02221 0.87182 0.0
H652 H 0.0962 0.91146 0.91235 0.0
H653 H 0.05554 0.91903 0.862 0.0
H654 H 0.16201 0.9931 0.91241 0.0
H655 H 0.12918 0.98393 0.92715 0.0
H656 H 0.14272 0.95581 0.92455 0.0
H657 H 0.07301 0.96748 0.84704 0.0
H658 H 0.07657 0.99537 0.86433 0.0
H659 H 0.11135 0.00053 0.85293 0.0
H660 H 0.10956 0.06653 0.90823 0.0
H661 H 0.18935 0.08309 0.87515 0.0
H662 H 0.08251 0.98695 0.91927 0.0
H663 H 0.06213 0.98778 0.8992 0.0
H664 H 0.07024 0.01616 0.91713 0.0
H665 H 0.17752 0.00363 0.8798 0.0
H666 H 0.20045 0.04168 0.86876 0.0
H667 H 0.16405 0.01132 0.85877 0.0
C668 C 0.06257 0.13554 0.85683 0.0
C669 C 0.08164 0.16229 0.86753 0.0
C670 C 0.02958 0.12285 0.85608 0.0
C671 C 0.01556 0.13789 0.86582 0.0
C672 C 0.03522 0.16713 0.87471 0.0
C673 C 0.06805 0.17872 0.87576 0.0
C674 C 0.00954 0.09146 0.84656 0.0
C675 C 0.02135 0.18473 0.88446 0.0
C676 C 0.92598 0.09815 0.85985 0.0
C677 C 0.91537 0.07765 0.8749 0.0
C678 C 0.95854 0.11971 0.85727 0.0
C679 C 0.98089 0.11987 0.8697 0.0
C680 C 0.97011 0.10027 0.88534 0.0
C681 C 0.93754 0.07983 0.88788 0.0
C682 C 0.96896 0.14117 0.84084 0.0
C683 C 0.99306 0.0993 0.89887 0.0
H684 H 0.07296 0.12276 0.85043 0.0
H685 H 0.08282 0.1997 0.88384 0.0
H686 H 0.99679 0.0726 0.85688 0.0
H687 H 0.99139 0.09233 0.83783 0.0
H688 H 0.02406 0.08468 0.838 0.0
H689 H 0.03954 0.20996 0.88691 0.0
H690 H 0.00148 0.18384 0.87654 0.0
H691 H 0.01176 0.17336 0.89783 0.0
H692 H 0.90897 0.0968 0.84984 0.0
H693 H 0.92963 0.06412 0.89956 0.0
H694 H 0.97674 0.13072 0.82997 0.0
H695 H 0.98932 0.16493 0.84419 0.0
H696 H 0.94929 0.14412 0.83534 0.0
H697 H 0.00819 0.09135 0.89195 0.0
H698 H 0.98075 0.08301 0.91043 0.0
H699 H 0.00901 0.12336 0.90442 0.0
C700 C 0.91698 0.8544 0.89821 0.0
C701 C 0.91532 0.83053 0.88676 0.0
C702 C 0.89763 0.86769 0.89533 0.0
C703 C 0.87502 0.85596 0.88108 0.0
C704 C 0.8714 0.8301 0.87036 0.0
C705 C 0.89217 0.81814 0.87305 0.0
C706 C 0.90301 0.8958 0.9068 0.0
C707 C 0.84655 0.8159 0.85562 0.0
C708 C 0.821 0.89055 0.88619 0.0
C709 C 0.83593 0.91692 0.87463 0.0
C710 C 0.83119 0.86814 0.88691 0.0
C711 C 0.85788 0.87324 0.87652 0.0
C712 C 0.87168 0.8988 0.864 0.0
C713 C 0.86009 0.91999 0.86296 0.0
C714 C 0.81474 0.84024 0.89967 0.0
C715 C 0.90068 0.90566 0.85299 0.0
H716 H 0.93496 0.86428 0.90876 0.0
H717 H 0.89066 0.79955 0.86423 0.0
H718 H 0.91031 0.91684 0.89796 0.0
H719 H 0.88071 0.89075 0.91373 0.0
H720 H 0.92162 0.90199 0.91733 0.0
H721 H 0.84129 0.79157 0.85196 0.0
H722 H 0.82419 0.81493 0.85991 0.0
H723 H 0.85525 0.83085 0.84323 0.0
H724 H 0.80203 0.88798 0.89506 0.0
H725 H 0.87172 0.94047 0.85408 0.0
H726 H 0.82892 0.8451 0.9123 0.0
H727 H 0.8126 0.81849 0.89338 0.0
H728 H 0.79068 0.83564 0.90347 0.0
H729 H 0.92116 0.91278 0.86228 0.0
H730 H 0.90708 0.925 0.84294 0.0
H731 H 0.89673 0.8841 0.84562 0.0
C732 C 0.73375 0.47864 0.47333 0.0
C733 C 0.75022 0.50311 0.4607 0.0
C734 C 0.70065 0.46402 0.475 0.0
C735 C 0.68386 0.47487 0.46419 0.0
C736 C 0.70092 0.50245 0.45341 0.0
C737 C 0.73394 0.51598 0.45154 0.0
C738 C 0.68346 0.43458 0.4866 0.0
C739 C 0.68402 0.51579 0.44245 0.0
C740 C 0.60646 0.40926 0.44499 0.0
C741 C 0.58418 0.40824 0.45746 0.0
C742 C 0.63883 0.43133 0.44688 0.0
C743 C 0.64916 0.45374 0.46127 0.0
C744 C 0.62655 0.45411 0.47328 0.0
C745 C 0.59431 0.43087 0.47147 0.0
C746 C 0.66211 0.42962 0.43393 0.0
C747 C 0.63637 0.4783 0.48836 0.0
H748 H 0.74617 0.46861 0.48052 0.0
H749 H 0.74663 0.53523 0.44196 0.0
H750 H 0.66476 0.43528 0.49488 0.0
H751 H 0.67164 0.41339 0.47765 0.0
H752 H 0.69987 0.43164 0.49587 0.0
H753 H 0.70045 0.54072 0.43828 0.0
H754 H 0.67391 0.50133 0.42997 0.0
H755 H 0.6641 0.51487 0.45035 0.0
H756 H 0.59879 0.39169 0.43422 0.0
H757 H 0.57709 0.43028 0.48107 0.0
H758 H 0.67909 0.42511 0.44166 0.0
H759 H 0.67611 0.45257 0.42674 0.0
H760 H 0.65016 0.41057 0.42359 0.0
H761 H 0.64557 0.4708 0.50001 0.0
H762 H 0.61602 0.48065 0.49327 0.0
H763 H 0.65556 0.50193 0.4838 0.0
C764 C 0.51602 0.24336 0.44985 0.0
C765 C 0.49749 0.24752 0.46298 0.0
C766 C 0.52744 0.22243 0.45272 0.0
C767 C 0.51902 0.20401 0.46883 0.0
C768 C 0.49817 0.20615 0.48151 0.0
C769 C 0.48825 0.22852 0.47865 0.0
C770 C 0.55029 0.22172 0.43899 0.0
C771 C 0.4873 0.18592 0.49844 0.0
C772 C 0.54608 0.14443 0.46227 0.0
C773 C 0.57641 0.16078 0.47009 0.0
C774 C 0.5249 0.15603 0.46396 0.0
C775 C 0.53505 0.18543 0.47282 0.0
C776 C 0.56449 0.20036 0.48216 0.0
C777 C 0.58458 0.18748 0.48095 0.0
C778 C 0.49277 0.13826 0.45495 0.0
C779 C 0.57644 0.23187 0.49165 0.0
H780 H 0.52345 0.25806 0.43774 0.0
H781 H 0.47373 0.23147 0.4888 0.0
H782 H 0.5733 0.22851 0.44567 0.0
H783 H 0.54073 0.19739 0.43349 0.0
H784 H 0.55489 0.2381 0.42738 0.0
H785 H 0.46352 0.18145 0.5028 0.0
H786 H 0.4862 0.16279 0.49634 0.0
H787 H 0.50417 0.1986 0.50968 0.0
H788 H 0.53949 0.12344 0.45412 0.0
H789 H 0.60801 0.20014 0.48705 0.0
H790 H 0.49365 0.14908 0.44153 0.0
H791 H 0.47448 0.13966 0.46332 0.0
H792 H 0.48543 0.1129 0.45273 0.0
H793 H 0.58128 0.25052 0.4814 0.0
H794 H 0.59861 0.23907 0.49945 0.0
H795 H 0.5582 0.23081 0.50112 0.0
C796 C 0.82488 0.39786 0.43843 0.0
C797 C 0.80456 0.40964 0.43423 0.0
C798 C 0.81337 0.365 0.43914 0.0
C799 C 0.78058 0.34364 0.43638 0.0
C800 C 0.76014 0.35554 0.43183 0.0
C801 C 0.77254 0.38839 0.43046 0.0
C802 C 0.8361 0.35317 0.44326 0.0
C803 C 0.72486 0.33368 0.4293 0.0
C804 C 0.74115 0.25535 0.4271 0.0
C805 C 0.72955 0.24285 0.44441 0.0
C806 C 0.76039 0.28823 0.42452 0.0
C807 C 0.76684 0.30899 0.43946 0.0
C808 C 0.75646 0.2963 0.45712 0.0
C809 C 0.7384 0.2633 0.45941 0.0
C810 C 0.77222 0.30077 0.40563 0.0
C811 C 0.76199 0.31755 0.47334 0.0
H812 H 0.84971 0.41436 0.44125 0.0
H813 H 0.75675 0.39751 0.4274 0.0
H814 H 0.83163 0.34301 0.45717 0.0
H815 H 0.83234 0.33399 0.43364 0.0
H816 H 0.86128 0.37246 0.44242 0.0
H817 H 0.71227 0.3468 0.42588 0.0
H818 H 0.72043 0.31638 0.41827 0.0
H819 H 0.7144 0.31993 0.44196 0.0
H820 H 0.73441 0.23948 0.4155 0.0
H821 H 0.72913 0.25364 0.47277 0.0
H822 H 0.79731 0.32027 0.40608 0.0
H823 H 0.75789 0.31061 0.39981 0.0
H824 H 0.77042 0.28187 0.39637 0.0
H825 H 0.78745 0.33581 0.47446 0.0
H826 H 0.75438 0.30402 0.48631 0.0
H827 H 0.74847 0.33021 0.47154 0.0
C828 C 0.76762 0.25422 0.20488 0.0
C829 C 0.74484 0.24615 0.21864 0.0
C830 C 0.7902 0.28615 0.20139 0.0
C831 C 0.78882 0.31043 0.2113 0.0
C832 C 0.76637 0.30224 0.22554 0.0
C833 C 0.74512 0.2702 0.22926 0.0
C834 C 0.81463 0.29376 0.18668 0.0
C835 C 0.76348 0.32728 0.23621 0.0
C836 C 0.84813 0.39777 0.21545 0.0
C837 C 0.8345 0.41059 0.20387 0.0
C838 C 0.8359 0.36483 0.21634 0.0
C839 C 0.80858 0.34439 0.20605 0.0
C840 C 0.79669 0.35743 0.1931 0.0
C841 C 0.81024 0.39048 0.19193 0.0
C842 C 0.85044 0.35187 0.22949 0.0
C843 C 0.76734 0.33658 0.18202 0.0
H844 H 0.76753 0.2356 0.19672 0.0
H845 H 0.72735 0.26404 0.23979 0.0
H846 H 0.80636 0.29924 0.17384 0.0
H847 H 0.83773 0.31478 0.19036 0.0
H848 H 0.81836 0.27335 0.18404 0.0
H849 H 0.7445 0.31685 0.24669 0.0
H850 H 0.78625 0.34346 0.24308 0.0
H851 H 0.75811 0.34186 0.22682 0.0
H852 H 0.86713 0.41334 0.22457 0.0
H853 H 0.79955 0.40032 0.18303 0.0
H854 H 0.85054 0.33087 0.22363 0.0
H855 H 0.83615 0.34418 0.24217 0.0
H856 H 0.87515 0.37005 0.23313 0.0
H857 H 0.76932 0.31716 0.1754 0.0
H858 H 0.76303 0.35016 0.17134 0.0
H859 H 0.74635 0.32547 0.19115 0.0
C860 C 0.72012 0.45391 0.22466 0.0
C861 C 0.74286 0.4787 0.21398 0.0
C862 C 0.6878 0.44419 0.22311 0.0
C863 C 0.67802 0.46028 0.21094 0.0
C864 C 0.70104 0.48638 0.20077 0.0
C865 C 0.73321 0.49497 0.20217 0.0
C866 C 0.66402 0.41588 0.23403 0.0
C867 C 0.69166 0.50476 0.18813 0.0
C868 C 0.59314 0.4065 0.1963 0.0
C869 C 0.57677 0.41195 0.21027 0.0
C870 C 0.6264 0.42408 0.19535 0.0
C871 C 0.64349 0.4482 0.20837 0.0
C872 C 0.62679 0.45648 0.22097 0.0
C873 C 0.59357 0.43794 0.22194 0.0
C874 C 0.64321 0.41425 0.18178 0.0
C875 C 0.64408 0.48292 0.23457 0.0
H876 H 0.72743 0.44115 0.23372 0.0
H877 H 0.75079 0.51433 0.19398 0.0
H878 H 0.64987 0.42271 0.24284 0.0
H879 H 0.64723 0.39693 0.22471 0.0
H880 H 0.67555 0.40593 0.24278 0.0
H881 H 0.71257 0.52716 0.18339 0.0
H882 H 0.67936 0.49006 0.17604 0.0
H883 H 0.67483 0.51056 0.19498 0.0
H884 H 0.58033 0.38646 0.18722 0.0
H885 H 0.58097 0.4425 0.23263 0.0
H886 H 0.6535 0.40142 0.18899 0.0
H887 H 0.66305 0.43529 0.17515 0.0
H888 H 0.62685 0.39837 0.17106 0.0
H889 H 0.65325 0.47445 0.24579 0.0
H890 H 0.62819 0.49083 0.24055 0.0
H891 H 0.66471 0.50358 0.22815 0.0
C892 C 0.4926 0.22915 0.21733 0.0
C893 C 0.51037 0.25722 0.22733 0.0
C894 C 0.50283 0.20684 0.21564 0.0
C895 C 0.53205 0.21343 0.22356 0.0
C896 C 0.54966 0.24142 0.234 0.0
C897 C 0.53833 0.26269 0.23599 0.0
C898 C 0.48284 0.17673 0.20499 0.0
C899 C 0.58126 0.24971 0.2424 0.0
C900 C 0.56209 0.15656 0.23276 0.0
C901 C 0.58405 0.16424 0.21859 0.0
C902 C 0.54235 0.16994 0.23356 0.0
C903 C 0.54559 0.19237 0.22023 0.0
C904 C 0.56594 0.19825 0.20513 0.0
C905 C 0.5846 0.18367 0.20436 0.0
C906 C 0.51995 0.162 0.24945 0.0
C907 C 0.57057 0.22241 0.19078 0.0
H908 H 0.47085 0.22477 0.2107 0.0
H909 H 0.55228 0.28448 0.24359 0.0
H910 H 0.4946 0.17786 0.19186 0.0
H911 H 0.4804 0.15588 0.21256 0.0
H912 H 0.45876 0.17295 0.20208 0.0
H913 H 0.59202 0.27248 0.25004 0.0
H914 H 0.57834 0.23066 0.25185 0.0
H915 H 0.59809 0.25161 0.2316 0.0
H916 H 0.56148 0.14134 0.24372 0.0
H917 H 0.60173 0.18985 0.19345 0.0
H918 H 0.49696 0.15935 0.24493 0.0
H919 H 0.53044 0.1816 0.25953 0.0
H920 H 0.51539 0.13979 0.25635 0.0
H921 H 0.54737 0.2186 0.18586 0.0
H922 H 0.58435 0.22157 0.17894 0.0
H923 H 0.58354 0.24657 0.1968 0.0
C924 C 0.27332 0.73755 0.76922 0.0
C925 C 0.25107 0.73913 0.78063 0.0
C926 C 0.30584 0.75902 0.77112 0.0
C927 C 0.31636 0.78345 0.78435 0.0
C928 C 0.29385 0.78637 0.79518 0.0
C929 C 0.26142 0.7637 0.79346 0.0
C930 C 0.329 0.75454 0.75951 0.0
C931 C 0.30397 0.81278 0.80891 0.0
C932 C 0.3999 0.80817 0.79894 0.0
C933 C 0.41742 0.83077 0.78556 0.0
C934 C 0.36678 0.7943 0.79982 0.0
C935 C 0.35107 0.80412 0.78741 0.0
C936 C 0.36916 0.82991 0.77555 0.0
C937 C 0.40216 0.84255 0.77449 0.0
C938 C 0.34846 0.76662 0.81252 0.0
C939 C 0.35343 0.84218 0.76279 0.0
H940 H 0.26545 0.71845 0.75939 0.0
H941 H 0.24421 0.76507 0.80223 0.0
H942 H 0.34382 0.77621 0.75137 0.0
H943 H 0.34523 0.75059 0.76835 0.0
H944 H 0.31688 0.73408 0.75004 0.0
H945 H 0.28384 0.81616 0.81299 0.0
H946 H 0.31309 0.80698 0.8213 0.0
H947 H 0.32336 0.83551 0.80342 0.0
H948 H 0.4116 0.79893 0.8075 0.0
H949 H 0.41572 0.86031 0.76427 0.0
H950 H 0.33651 0.74431 0.80448 0.0
H951 H 0.32975 0.76895 0.81978 0.0
H952 H 0.36411 0.76445 0.82275 0.0
H953 H 0.34349 0.82597 0.75095 0.0
H954 H 0.37056 0.86627 0.75763 0.0
H955 H 0.33352 0.84301 0.76967 0.0
C956 C 0.25285 0.52491 0.81378 0.0
C957 C 0.24519 0.49703 0.80426 0.0
C958 C 0.23261 0.5377 0.81334 0.0
C959 C 0.20348 0.52147 0.80373 0.0
C960 C 0.19395 0.49129 0.79607 0.0
C961 C 0.21534 0.47978 0.79597 0.0
C962 C 0.24405 0.57019 0.82144 0.0
C963 C 0.16223 0.4723 0.78676 0.0
C964 C 0.15473 0.56298 0.80646 0.0
C965 C 0.16379 0.58055 0.79025 0.0
C966 C 0.16539 0.54154 0.81052 0.0
C967 C 0.18683 0.53897 0.7985 0.0
C968 C 0.19509 0.5559 0.78185 0.0
C969 C 0.18291 0.57585 0.77779 0.0
C970 C 0.15467 0.52278 0.82797 0.0
C971 C 0.21856 0.55471 0.76881 0.0
H972 H 0.276 0.53831 0.82014 0.0
H973 H 0.20925 0.45799 0.78878 0.0
H974 H 0.24892 0.58753 0.81034 0.0
H975 H 0.22551 0.57002 0.83029 0.0
H976 H 0.26608 0.57856 0.82958 0.0
H977 H 0.1553 0.44688 0.7855 0.0
H978 H 0.14344 0.47411 0.79436 0.0
H979 H 0.16348 0.48183 0.77288 0.0
H980 H 0.1398 0.56639 0.8161 0.0
H981 H 0.19025 0.58951 0.76529 0.0
H982 H 0.17202 0.53605 0.83892 0.0
H983 H 0.15304 0.49928 0.82651 0.0
H984 H 0.13119 0.5191 0.83236 0.0
H985 H 0.24162 0.5629 0.77579 0.0
H986 H 0.22282 0.56978 0.75659 0.0
H987 H 0.20983 0.53 0.76421 0.0
C988 C 0.4507 0.71741 0.76471 0.0
C989 C 0.48128 0.73939 0.77073 0.0
C990 C 0.43828 0.6848 0.76731 0.0
C991 C 0.45743 0.67381 0.77544 0.0
C992 C 0.48911 0.69583 0.78049 0.0
C993 C 0.50043 0.72854 0.77851 0.0
C994 C 0.40404 0.6623 0.76224 0.0
C995 C 0.51072 0.68496 0.78841 0.0
C996 C 0.40865 0.59543 0.79964 0.0
C997 C 0.40281 0.57395 0.78545 0.0
C998 C 0.4281 0.62818 0.79692 0.0
C999 C 0.44302 0.63949 0.77983 0.0
C1000 C 0.43975 0.61759 0.76611 0.0
C1001 C 0.41897 0.58502 0.76891 0.0
C1002 C 0.43008 0.65066 0.81174 0.0
C1003 C 0.45654 0.62863 0.74805 0.0
H1004 H 0.43577 0.72585 0.75888 0.0
H1005 H 0.52416 0.74561 0.78309 0.0
H1006 H 0.40259 0.64456 0.75223 0.0
H1007 H 0.39051 0.6491 0.77449 0.0
H1008 H 0.39229 0.67482 0.75631 0.0
H1009 H 0.53598 0.70419 0.78827 0.0
H1010 H 0.50382 0.6773 0.8027 0.0
H1011 H 0.50852 0.66429 0.78072 0.0
H1012 H 0.39587 0.58684 0.81237 0.0
H1013 H 0.41457 0.56832 0.75798 0.0
H1014 H 0.41756 0.66331 0.80724 0.0
H1015 H 0.45513 0.66885 0.81442 0.0
H1016 H 0.41918 0.6381 0.82468 0.0
H1017 H 0.44406 0.63774 0.73948 0.0
H1018 H 0.45705 0.60903 0.74056 0.0
H1019 H 0.48128 0.6483 0.75001 0.0
C1020 C 0.50324 0.73531 0.54207 0.0
C1021 C 0.48644 0.74711 0.55177 0.0
C1022 C 0.49363 0.70281 0.54249 0.0
C1023 C 0.46612 0.68163 0.55242 0.0
C1024 C 0.44986 0.69366 0.56277 0.0
C1025 C 0.46045 0.72624 0.56249 0.0
C1026 C 0.51216 0.69102 0.53176 0.0
C1027 C 0.42018 0.6719 0.57339 0.0
C1028 C 0.41074 0.59665 0.53843 0.0
C1029 C 0.41394 0.58008 0.55314 0.0
C1030 C 0.42938 0.62979 0.53727 0.0
C1031 C 0.4523 0.64666 0.55092 0.0
C1032 C 0.458 0.62974 0.56468 0.0
C1033 C 0.43845 0.59662 0.56577 0.0
C1034 C 0.4223 0.64687 0.52245 0.0
C1035 C 0.48303 0.64678 0.57907 0.0
H1036 H 0.52352 0.75135 0.53387 0.0
H1037 H 0.44729 0.73511 0.57001 0.0
H1038 H 0.5156 0.6737 0.53985 0.0
H1039 H 0.4987 0.6786 0.51934 0.0
H1040 H 0.53577 0.71076 0.52753 0.0
H1041 H 0.41083 0.68515 0.58111 0.0
H1042 H 0.4014 0.65525 0.56394 0.0
H1043 H 0.42504 0.65744 0.58313 0.0
H1044 H 0.39195 0.58408 0.52857 0.0
H1045 H 0.44137 0.58392 0.57704 0.0
H1046 H 0.44454 0.66502 0.51586 0.0
H1047 H 0.41066 0.65939 0.5285 0.0
H1048 H 0.40635 0.63033 0.51181 0.0
H1049 H 0.50502 0.66633 0.57298 0.0
H1050 H 0.48897 0.63038 0.58633 0.0
H1051 H 0.47419 0.65745 0.58921 0.0
C1052 C 0.27194 0.75056 0.55292 0.0
C1053 C 0.2485 0.74614 0.54025 0.0
C1054 C 0.30422 0.77027 0.54905 0.0
C1055 C 0.3134 0.78695 0.53232 0.0
C1056 C 0.28982 0.7847 0.52011 0.0
C1057 C 0.25758 0.7638 0.52405 0.0
C1058 C 0.32849 0.7715 0.5624 0.0
C1059 C 0.29854 0.80315 0.50252 0.0
C1060 C 0.40113 0.84599 0.53463 0.0
C1061 C 0.41372 0.82808 0.52715 0.0
C1062 C 0.36828 0.83455 0.53441 0.0
C1063 C 0.34762 0.80398 0.52724 0.0
C1064 C 0.36049 0.78718 0.51821 0.0
C1065 C 0.39349 0.79973 0.51802 0.0
C1066 C 0.35558 0.85396 0.54327 0.0
C1067 C 0.33938 0.75434 0.51055 0.0
H1068 H 0.26522 0.73699 0.56545 0.0
H1069 H 0.23957 0.76069 0.51425 0.0
H1070 H 0.34286 0.76231 0.55583 0.0
H1071 H 0.345 0.79636 0.56655 0.0
H1072 H 0.31736 0.75728 0.57485 0.0
H1073 H 0.27847 0.80554 0.49715 0.0
H1074 H 0.31948 0.8272 0.50434 0.0
H1075 H 0.30473 0.79054 0.49215 0.0
H1076 H 0.4168 0.86816 0.54151 0.0
H1077 H 0.40314 0.78578 0.51225 0.0
H1078 H 0.34734 0.84501 0.55725 0.0
H1079 H 0.33499 0.85189 0.53556 0.0
H1080 H 0.3741 0.87943 0.54423 0.0
H1081 H 0.32754 0.73741 0.52191 0.0
H1082 H 0.35293 0.74589 0.50236 0.0
H1083 H 0.32052 0.75391 0.50188 0.0
C1084 C 0.23113 0.48976 0.55224 0.0
C1085 C 0.2583 0.50644 0.5631 0.0
C1086 C 0.20981 0.50108 0.54979 0.0
C1087 C 0.21663 0.53034 0.55779 0.0
C1088 C 0.24354 0.54669 0.56919 0.0
C1089 C 0.26368 0.53425 0.57194 0.0
C1090 C 0.18066 0.48232 0.53817 0.0
C1091 C 0.25218 0.57834 0.57767 0.0
C1092 C 0.19347 0.58637 0.53621 0.0
C1093 C 0.17281 0.58676 0.54937 0.0
C1094 C 0.20641 0.56642 0.53813 0.0
C1095 C 0.19757 0.54563 0.55325 0.0
C1096 C 0.17422 0.54367 0.56554 0.0
C1097 C 0.16259 0.56478 0.56368 0.0
C1098 C 0.23177 0.56984 0.52493 0.0
C1099 C 0.16314 0.52084 0.58136 0.0
H1100 H 0.2268 0.46813 0.54547 0.0
H1101 H 0.28476 0.5474 0.58024 0.0
H1102 H 0.15959 0.48152 0.54459 0.0
H1103 H 0.18421 0.49399 0.52474 0.0
H1104 H 0.1756 0.45763 0.5359 0.0
H1105 H 0.27388 0.5879 0.58624 0.0
H1106 H 0.25629 0.59588 0.56683 0.0
H1107 H 0.23237 0.57605 0.58625 0.0
H1108 H 0.20152 0.60346 0.52518 0.0
H1109 H 0.14631 0.56482 0.57376 0.0
H1110 H 0.22674 0.54628 0.51992 0.0
H1111 H 0.25505 0.58086 0.53202 0.0
H1112 H 0.23383 0.58486 0.51304 0.0
H1113 H 0.15962 0.49739 0.57709 0.0
H1114 H 0.14059 0.51749 0.58723 0.0
H1115 H 0.18146 0.53016 0.59221 0.0
C1116 C 0.20669 0.21862 0.03917 0.0
C1117 C 0.19183 0.18676 0.04462 0.0
C1118 C 0.21023 0.22665 0.02056 0.0
C1119 C 0.19901 0.20221 0.0073 0.0
C1120 C 0.18638 0.17026 0.01288 0.0
C1121 C 0.18269 0.16295 0.03144 0.0
C1122 C 0.22383 0.26096 0.01517 0.0
C1123 C 0.17466 0.14344 0.99925 0.0
C1124 C 0.16019 0.20174 0.9629 0.0
C1125 C 0.18242 0.20307 0.95028 0.0
C1126 C 0.16674 0.20482 0.98158 0.0
C1127 C 0.19606 0.20874 0.98782 0.0
C1128 C 0.2197 0.21295 0.97504 0.0
C1129 C 0.21264 0.21024 0.95633 0.0
C1130 C 0.14107 0.20088 0.99468 0.0
C1131 C 0.2513 0.21736 0.98112 0.0
H1132 H 0.21373 0.23706 0.04937 0.0
H1133 H 0.17158 0.13832 0.03567 0.0
H1134 H 0.23979 0.26687 0.00323 0.0
H1135 H 0.20418 0.26513 0.01124 0.0
H1136 H 0.2372 0.27731 0.02653 0.0
H1137 H 0.16881 0.12052 0.00575 0.0
H1138 H 0.15299 0.14051 0.99242 0.0
H1139 H 0.19283 0.1489 0.98858 0.0
H1140 H 0.13695 0.19666 0.95822 0.0
H1141 H 0.22991 0.21134 0.94658 0.0
H1142 H 0.15113 0.21898 0.00563 0.0
H1143 H 0.13049 0.17716 0.00121 0.0
H1144 H 0.12181 0.20283 0.98775 0.0
H1145 H 0.26062 0.23361 0.99298 0.0
H1146 H 0.26916 0.22689 0.97 0.0
H1147 H 0.24819 0.19409 0.9854 0.0
C1148 C 0.77597 0.98416 0.95413 0.0
C1149 C 0.80758 -0.0002 0.94815 0.0
C1150 C 0.76885 0.98119 0.97287 0.0
C1151 C 0.79396 0.99461 0.98572 0.0
C1152 C 0.82574 0.01256 0.97956 0.0
C1153 C 0.83213 0.01463 0.96089 0.0
C1154 C 0.7347 0.96184 0.97887 0.0
C1155 C 0.85327 0.02785 0.99272 0.0
C1156 C 0.78785 0.00361 0.03663 0.0
C1157 C 0.79412 0.98019 0.04311 0.0
C1158 C 0.78504 0.00721 0.01783 0.0
C1159 C 0.78812 0.98657 0.00542 0.0
C1160 C 0.79128 0.96099 0.01213 0.0
C1161 C 0.7946 0.95835 0.03088 0.0
C1162 C 0.78164 0.03473 0.01124 0.0
C1163 C 0.79397 0.93798 0.99946 0.0
H1164 H 0.75696 0.97266 0.94427 0.0
H1165 H 0.85658 0.02712 0.95625 0.0
H1166 H 0.73 0.93817 0.98353 0.0
H1167 H 0.7298 0.97334 0.9905 0.0
H1168 H 0.71797 0.95832 0.96763 0.0
H1169 H 0.87605 0.04396 0.98576 0.0
H1170 H 0.84886 0.04162 0.0032 0.0
H1171 H 0.85585 0.00915 0.99985 0.0
H1172 H 0.78749 0.02055 0.0461 0.0
H1173 H 0.79903 0.93996 0.03592 0.0
H1174 H 0.76501 0.02763 0.99955 0.0
H1175 H 0.80509 0.05402 0.00651 0.0
H1176 H 0.77309 0.04435 0.02221 0.0
H1177 H 0.77552 0.92975 0.9887 0.0
H1178 H 0.79159 0.91692 0.0068 0.0
H1179 H 0.81749 0.9501 0.99264 0.0
C1180 C 0.00966 0.7837 0.96557 0.0
C1181 C 0.99068 0.79588 0.95927 0.0
C1182 C 0.01287 0.78041 0.98438 0.0
C1183 C 0.99635 0.78909 0.99692 0.0
C1184 C 0.97482 0.79842 0.99039 0.0
C1185 C 0.97256 0.80204 0.97166 0.0
C1186 C 0.03593 0.77026 0.99078 0.0
C1187 C 0.95618 0.80728 0.00321 0.0
C1188 C 0.99132 0.77833 0.04824 0.0
C1189 C 0.01209 0.80958 0.05386 0.0
C1190 C 0.98755 0.77031 0.02962 0.0
C1191 C 0.00524 0.79409 0.01653 0.0
C1192 C 0.02829 0.82489 0.02237 0.0
C1193 C 0.03124 0.83228 0.04093 0.0
C1194 C 0.96291 0.73718 0.02396 0.0
C1195 C 0.0481 0.85089 0.00894 0.0
H1196 H 0.0237 0.77897 0.95595 0.0
H1197 H 0.95755 0.81106 0.96672 0.0
H1198 H 0.05844 0.79154 0.99497 0.0
H1199 H 0.02647 0.75437 0.00277 0.0
H1200 H 0.0414 0.75791 0.97985 0.0
H1201 H 0.93747 0.80983 0.99602 0.0
H1202 H 0.9448 0.78912 0.01403 0.0
H1203 H 0.97252 0.8302 0.00993 0.0
H1204 H 0.97654 0.76068 0.05823 0.0
H1205 H 0.04772 0.85635 0.04528 0.0
H1206 H 0.97152 0.72882 0.01241 0.0
H1207 H 0.9412 0.73725 0.01938 0.0
H1208 H 0.95632 0.72007 0.0354 0.0
H1209 H 0.05857 0.8422 0.99858 0.0
H1210 H 0.06762 0.87213 0.0157 0.0
H1211 H 0.03278 0.85823 0.00169 0.0
C1212 C 0.8721 0.54681 0.28682 0.0
C1213 C 0.85898 0.51479 0.28192 0.0
C1214 C 0.87514 0.5558 0.30527 0.0
C1215 C 0.86489 0.53219 0.31896 0.0
C1216 C 0.854 0.50023 0.314 0.0
C1217 C 0.85112 0.49196 0.29558 0.0
C1218 C 0.88727 0.59016 0.31 0.0
C1219 C 0.84316 0.47426 0.32812 0.0
C1220 C 0.87667 0.54302 0.37 0.0
C1221 C 0.846 0.5353 0.3755 0.0
C1222 C 0.88442 0.54508 0.3514 0.0
C1223 C 0.86094 0.53934 0.33817 0.0
C1224 C 0.83104 0.53471 0.34377 0.0
C1225 C 0.82393 0.53265 0.36236 0.0
C1226 C 0.91673 0.55062 0.34599 0.0
C1227 C 0.80541 0.52893 0.33015 0.0
H1228 H 0.87833 0.56458 0.2763 0.0
H1229 H 0.84145 0.46723 0.29186 0.0
H1230 H 0.86688 0.59349 0.31341 0.0
H1231 H 0.90305 0.59732 0.32209 0.0
H1232 H 0.90042 0.60616 0.29848 0.0
H1233 H 0.83829 0.45127 0.32213 0.0
H1234 H 0.86139 0.48102 0.33891 0.0
H1235 H 0.8211 0.47077 0.33472 0.0
H1236 H 0.8939 0.54526 0.38012 0.0
H1237 H 0.80035 0.52721 0.36656 0.0
H1238 H 0.92584 0.56624 0.33386 0.0
H1239 H 0.91488 0.52759 0.34238 0.0
H1240 H 0.93419 0.56144 0.35725 0.0
H1241 H 0.81513 0.5467 0.31904 0.0
H1242 H 0.7852 0.52991 0.33655 0.0
H1243 H 0.7962 0.50512 0.32392 0.0
C1244 C 0.44699 0.32357 0.2984 0.0
C1245 C 0.47755 0.34526 0.29214 0.0
C1246 C 0.44022 0.31998 0.31717 0.0
C1247 C 0.46452 0.33879 0.32977 0.0
C1248 C 0.49444 0.36274 0.32331 0.0
C1249 C 0.50064 0.36548 0.30459 0.0
C1250 C 0.40798 0.29433 0.32349 0.0
C1251 C 0.52091 0.38375 0.33621 0.0
C1252 C 0.45562 0.34224 0.38102 0.0
C1253 C 0.46889 0.32401 0.38696 0.0
C1254 C 0.45181 0.34568 0.3623 0.0
C1255 C 0.46118 0.33022 0.34942 0.0
C1256 C 0.47205 0.30969 0.35554 0.0
C1257 C 0.47601 0.30707 0.37419 0.0
C1258 C 0.44 0.36765 0.35635 0.0
C1259 C 0.4818 0.29225 0.34234 0.0
H1260 H 0.42906 0.30793 0.28877 0.0
H1261 H 0.52417 0.38262 0.29975 0.0
H1262 H 0.40964 0.27346 0.32805 0.0
H1263 H 0.39962 0.30256 0.33523 0.0
H1264 H 0.39005 0.28657 0.31243 0.0
H1265 H 0.54107 0.40383 0.32905 0.0
H1266 H 0.51205 0.39348 0.3469 0.0
H1267 H 0.52993 0.3695 0.34309 0.0
H1268 H 0.45006 0.35533 0.39089 0.0
H1269 H 0.48582 0.29255 0.37878 0.0
H1270 H 0.42347 0.3575 0.34466 0.0
H1271 H 0.46046 0.39052 0.35183 0.0
H1272 H 0.42779 0.3726 0.36759 0.0
H1273 H 0.46322 0.27994 0.33183 0.0
H1274 H 0.48614 0.27446 0.34926 0.0
H1275 H 0.50394 0.30952 0.33525 0.0
C1276 C 0.65714 0.10975 0.38072 0.0
C1277 C 0.63422 0.11718 0.38667 0.0
C1278 C 0.66191 0.10741 0.36202 0.0
C1279 C 0.643 0.1122 0.34916 0.0
C1280 C 0.6176 0.11624 0.35527 0.0
C1281 C 0.61375 0.11902 0.37395 0.0
C1282 C 0.68913 0.10293 0.35609 0.0
C1283 C 0.59636 0.12073 0.34207 0.0
C1284 C 0.67742 0.15915 0.30604 0.0
C1285 C 0.66338 0.13572 0.29261 0.0
C1286 C 0.67282 0.15134 0.32454 0.0
C1287 C 0.65311 0.11927 0.32978 0.0
C1288 C 0.64038 0.0952 0.31629 0.0
C1289 C 0.64588 0.10373 0.29777 0.0
C1290 C 0.68745 0.17777 0.33843 0.0
C1291 C 0.61922 0.06079 0.32132 0.0
H1292 H 0.67303 0.10833 0.39054 0.0
H1293 H 0.59573 0.12436 0.37856 0.0
H1294 H 0.68245 0.08699 0.34409 0.0
H1295 H 0.7095 0.12625 0.35206 0.0
H1296 H 0.69706 0.09302 0.3672 0.0
H1297 H 0.57494 0.11858 0.34885 0.0
H1298 H 0.60975 0.14468 0.33584 0.0
H1299 H 0.58866 0.10303 0.33091 0.0
H1300 H 0.6913 0.18388 0.30205 0.0
H1301 H 0.63493 0.08558 0.28737 0.0
H1302 H 0.69967 0.17193 0.34922 0.0
H1303 H 0.6685 0.18061 0.34506 0.0
H1304 H 0.70483 0.20085 0.33221 0.0
H1305 H 0.62873 0.05437 0.3333 0.0
H1306 H 0.61643 0.04469 0.30985 0.0
H1307 H 0.59536 0.05678 0.32505 0.0
C1308 C 0.49403 0.87574 0.62043 0.0
C1309 C 0.51535 0.87286 0.60888 0.0
C1310 C 0.49913 0.87909 0.63926 0.0
C1311 C 0.52571 0.87855 0.64673 0.0
C1312 C 0.54881 0.87855 0.63496 0.0
C1313 C 0.54348 0.876 0.61606 0.0
C1314 C 0.47433 0.87995 0.65125 0.0
C1315 C 0.57741 0.87786 0.64234 0.0
C1316 C 0.53431 0.88745 0.69829 0.0
C1317 C 0.51513 0.85579 0.70371 0.0
C1318 C 0.53932 0.89547 0.67969 0.0
C1319 C 0.52533 0.87112 0.66641 0.0
C1320 C 0.50773 0.83899 0.67199 0.0
C1321 C 0.50254 0.83181 0.69053 0.0
C1322 C 0.55791 0.92998 0.67429 0.0
C1323 C 0.49296 0.81213 0.65835 0.0
H1324 H 0.47243 0.87367 0.61482 0.0
H1325 H 0.55995 0.87369 0.6071 0.0
H1326 H 0.45952 0.85631 0.65762 0.0
H1327 H 0.48568 0.89755 0.66236 0.0
H1328 H 0.45847 0.88592 0.64342 0.0
H1329 H 0.59608 0.88453 0.6318 0.0
H1330 H 0.58771 0.89407 0.65415 0.0
H1331 H 0.57002 0.85348 0.64712 0.0
H1332 H 0.544 0.906 0.70853 0.0
H1333 H 0.48807 0.80726 0.69475 0.0
H1334 H 0.54121 0.93778 0.66956 0.0
H1335 H 0.57427 0.93354 0.66285 0.0
H1336 H 0.57187 0.94536 0.68585 0.0
H1337 H 0.47362 0.81313 0.65091 0.0
H1338 H 0.48285 0.78848 0.66494 0.0
H1339 H 0.51087 0.81445 0.64818 0.0
C1340 C 0.11215 0.65727 0.6236 0.0
C1341 C 0.14345 0.67581 0.61741 0.0
C1342 C 0.10535 0.65404 0.64237 0.0
C1343 C 0.13042 0.67011 0.65505 0.0
C1344 C 0.16151 0.69113 0.64866 0.0
C1345 C 0.16767 0.69344 0.62995 0.0
C1346 C 0.07191 0.63146 0.64861 0.0
C1347 C 0.18888 0.70929 0.66162 0.0
C1348 C 0.12302 0.67547 0.70626 0.0
C1349 C 0.13281 0.65433 0.71222 0.0
C1350 C 0.11971 0.6794 0.68754 0.0
C1351 C 0.12591 0.6614 0.67469 0.0
C1352 C 0.13293 0.63799 0.68086 0.0
C1353 C 0.13662 0.63501 0.69952 0.0
C1354 C 0.11216 0.70455 0.68154 0.0
C1355 C 0.13908 0.61777 0.6677 0.0
H1356 H 0.0934 0.64358 0.6139 0.0
H1357 H 0.19184 0.70811 0.62514 0.0
H1358 H 0.07024 0.60886 0.65303 0.0
H1359 H 0.06545 0.6413 0.66043 0.0
H1360 H 0.05436 0.62608 0.63754 0.0
H1361 H 0.21047 0.72768 0.65453 0.0
H1362 H 0.18228 0.72098 0.67236 0.0
H1363 H 0.19484 0.69257 0.66844 0.0
H1364 H 0.1201 0.69046 0.71608 0.0
H1365 H 0.14378 0.61834 0.70415 0.0
H1366 H 0.09546 0.69616 0.66986 0.0
H1367 H 0.13433 0.72586 0.67699 0.0
H1368 H 0.10172 0.71169 0.69277 0.0
H1369 H 0.12032 0.60764 0.65712 0.0
H1370 H 0.14005 0.59799 0.67466 0.0
H1371 H 0.16211 0.6327 0.66071 0.0
C1372 C 0.35602 0.49284 0.6442 0.0
C1373 C 0.33884 0.47065 0.63059 0.0
C1374 C 0.35061 0.48463 0.66263 0.0
C1375 C 0.32706 0.45349 0.66761 0.0
C1376 C 0.31131 0.43027 0.65391 0.0
C1377 C 0.31751 0.43912 0.63547 0.0
C1378 C 0.36844 0.51007 0.67674 0.0
C1379 C 0.28623 0.39679 0.65866 0.0
C1380 C 0.3267 0.44136 0.71862 0.0
C1381 C 0.3068 0.45291 0.72425 0.0
C1382 C 0.33161 0.4386 0.69997 0.0
C1383 C 0.31601 0.44736 0.68686 0.0
C1384 C 0.29347 0.45589 0.69261 0.0
C1385 C 0.28932 0.45877 0.71123 0.0
C1386 C 0.35555 0.42907 0.69441 0.0
C1387 C 0.27583 0.46488 0.67913 0.0
H1388 H 0.37288 0.51714 0.64044 0.0
H1389 H 0.30421 0.42189 0.62495 0.0
H1390 H 0.35195 0.51655 0.68338 0.0
H1391 H 0.37804 0.50118 0.68749 0.0
H1392 H 0.3884 0.53188 0.67071 0.0
H1393 H 0.28131 0.38025 0.64708 0.0
H1394 H 0.29345 0.38803 0.67065 0.0
H1395 H 0.26386 0.39641 0.66222 0.0
H1396 H 0.34022 0.43676 0.72867 0.0
H1397 H 0.27356 0.46727 0.71558 0.0
H1398 H 0.37828 0.45066 0.69088 0.0
H1399 H 0.34739 0.41357 0.6822 0.0
H1400 H 0.3602 0.41651 0.70556 0.0
H1401 H 0.29255 0.48822 0.67297 0.0
H1402 H 0.25615 0.46667 0.68563 0.0
H1403 H 0.2659 0.44723 0.66795 0.0
loop_
_geom_bond_atom_site_label_1
_geom_bond_atom_site_label_2
_geom_bond_distance
_geom_bond_site_symmetry_2
_ccdc_geom_bond_type
O0 Cd1 2.223 . S
O0 C8 1.315 . S
Cd1 O0 2.223 . S
Cd1 O4 2.297 . S
Cd1 O5 2.439 . S
Cd1 O11 2.240 . S
Cd2 O3 2.240 . S
Cd2 O10 2.223 . S
Cd2 O12 2.297 . S
Cd2 O13 2.439 . S
O3 Cd2 2.240 . S
O3 C8 1.279 . S
O4 Cd1 2.297 . S
O4 C6 1.247 . S
O5 Cd1 2.439 . S
O5 C6 1.208 . S
C6 O4 1.247 . S
C6 O5 1.208 . S
C7 O12 1.247 . S
C7 O13 1.208 . S
C8 O0 1.315 . S
C8 O3 1.279 . S
C9 O10 1.315 . S
C9 O11 1.279 . S
O10 Cd2 2.223 . S
O10 C9 1.315 . S
O11 Cd1 2.240 . S
O11 C9 1.279 . S
O12 Cd2 2.297 . S
O12 C7 1.247 . S
O13 Cd2 2.439 . S
O13 C7 1.208 . S
O14 Cd15 2.223 1_545 S
O14 C22 1.315 . S
Cd15 O14 2.223 1_565 S
Cd15 O18 2.297 1_565 S
Cd15 O19 2.439 1_565 S
Cd15 O25 2.240 . S
Cd16 O17 2.240 . S
Cd16 O24 2.223 1_545 S
Cd16 O26 2.297 1_545 S
Cd16 O27 2.439 1_545 S
O17 Cd16 2.240 . S
O17 C22 1.279 . S
O18 Cd15 2.297 1_545 S
O18 C20 1.247 . S
O19 Cd15 2.439 1_545 S
O19 C20 1.208 . S
C20 O18 1.247 . S
C20 O19 1.208 . S
C21 O26 1.247 . S
C21 O27 1.208 . S
C22 O14 1.315 . S
C22 O17 1.279 . S
C23 O24 1.315 . S
C23 O25 1.279 . S
O24 Cd16 2.223 1_565 S
O24 C23 1.315 . S
O25 Cd15 2.240 . S
O25 C23 1.279 . S
O26 Cd16 2.297 1_565 S
O26 C21 1.247 . S
O27 Cd16 2.439 1_565 S
O27 C21 1.208 . S
O28 Cd29 2.223 1_655 S
O28 C36 1.315 . S
Cd29 O28 2.223 1_455 S
Cd29 O32 2.297 1_455 S
Cd29 O33 2.439 1_455 S
Cd29 O39 2.240 . S
Cd30 O31 2.240 . S
Cd30 O38 2.223 1_655 S
Cd30 O40 2.297 1_655 S
Cd30 O41 2.439 1_655 S
O31 Cd30 2.240 . S
O31 C36 1.279 . S
O32 Cd29 2.297 1_655 S
O32 C34 1.247 . S
O33 Cd29 2.439 1_655 S
O33 C34 1.208 . S
C34 O32 1.247 . S
C34 O33 1.208 . S
C35 O40 1.247 . S
C35 O41 1.208 . S
C36 O28 1.315 . S
C36 O31 1.279 . S
C37 O38 1.315 . S
C37 O39 1.279 . S
O38 Cd30 2.223 1_455 S
O38 C37 1.315 . S
O39 Cd29 2.240 . S
O39 C37 1.279 . S
O40 Cd30 2.297 1_455 S
O40 C35 1.247 . S
O41 Cd30 2.439 1_455 S
O41 C35 1.208 . S
O42 Cd43 2.223 . S
O42 C50 1.315 . S
Cd43 O42 2.223 . S
Cd43 O46 2.297 . S
Cd43 O47 2.439 . S
Cd43 O53 2.240 . S
Cd44 O45 2.240 . S
Cd44 O52 2.223 . S
Cd44 O54 2.297 . S
Cd44 O55 2.439 . S
O45 Cd44 2.240 . S
O45 C50 1.279 . S
O46 Cd43 2.297 . S
O46 C48 1.247 . S
O47 Cd43 2.439 . S
O47 C48 1.208 . S
C48 O46 1.247 . S
C48 O47 1.208 . S
C49 O54 1.247 . S
C49 O55 1.208 . S
C50 O42 1.315 . S
C50 O45 1.279 . S
C51 O52 1.315 . S
C51 O53 1.279 . S
O52 Cd44 2.223 . S
O52 C51 1.315 . S
O53 Cd43 2.240 . S
O53 C51 1.279 . S
O54 Cd44 2.297 . S
O54 C49 1.247 . S
O55 Cd44 2.439 . S
O55 C49 1.208 . S
O56 Cd57 2.223 1_565 S
O56 C64 1.315 . S
Cd57 O56 2.223 1_545 S
Cd57 O60 2.297 1_545 S
Cd57 O61 2.439 1_545 S
Cd57 O67 2.240 . S
Cd58 O59 2.240 . S
Cd58 O66 2.223 1_565 S
Cd58 O68 2.297 1_565 S
Cd58 O69 2.439 1_565 S
O59 Cd58 2.240 . S
O59 C64 1.279 . S
O60 Cd57 2.297 1_565 S
O60 C62 1.247 . S
O61 Cd57 2.439 1_565 S
O61 C62 1.208 . S
C62 O60 1.247 . S
C62 O61 1.208 . S
C63 O68 1.247 . S
C63 O69 1.208 . S
C64 O56 1.315 . S
C64 O59 1.279 . S
C65 O66 1.315 . S
C65 O67 1.279 . S
O66 Cd58 2.223 1_545 S
O66 C65 1.315 . S
O67 Cd57 2.240 . S
O67 C65 1.279 . S
O68 Cd58 2.297 1_545 S
O68 C63 1.247 . S
O69 Cd58 2.439 1_545 S
O69 C63 1.208 . S
O70 Cd71 2.223 1_455 S
O70 C78 1.315 . S
Cd71 O70 2.223 1_655 S
Cd71 O74 2.297 1_655 S
Cd71 O75 2.439 1_655 S
Cd71 O81 2.240 . S
Cd72 O73 2.240 . S
Cd72 O80 2.223 1_455 S
Cd72 O82 2.297 1_455 S
Cd72 O83 2.439 1_455 S
O73 Cd72 2.240 . S
O73 C78 1.279 . S
O74 Cd71 2.297 1_455 S
O74 C76 1.247 . S
O75 Cd71 2.439 1_455 S
O75 C76 1.208 . S
C76 O74 1.247 . S
C76 O75 1.208 . S
C77 O82 1.247 . S
C77 O83 1.208 . S
C78 O70 1.315 . S
C78 O73 1.279 . S
C79 O80 1.315 . S
C79 O81 1.279 . S
O80 Cd72 2.223 1_655 S
O80 C79 1.315 . S
O81 Cd71 2.240 . S
O81 C79 1.279 . S
O82 Cd72 2.297 1_655 S
O82 C77 1.247 . S
O83 Cd72 2.439 1_655 S
O83 C77 1.208 . S
O84 Cd85 2.223 . S
O84 C92 1.315 . S
Cd85 O84 2.223 . S
Cd85 O88 2.297 . S
Cd85 O89 2.439 . S
Cd85 O95 2.240 . S
Cd86 O87 2.240 . S
Cd86 O94 2.223 . S
Cd86 O96 2.297 . S
Cd86 O97 2.439 . S
O87 Cd86 2.240 . S
O87 C92 1.279 . S
O88 Cd85 2.297 . S
O88 C90 1.247 . S
O89 Cd85 2.439 . S
O89 C90 1.208 . S
C90 O88 1.247 . S
C90 O89 1.208 . S
C91 O96 1.247 . S
C91 O97 1.208 . S
C92 O84 1.315 . S
C92 O87 1.279 . S
C93 O94 1.315 . S
C93 O95 1.279 . S
O94 Cd86 2.223 . S
O94 C93 1.315 . S
O95 Cd85 2.240 . S
O95 C93 1.279 . S
O96 Cd86 2.297 . S
O96 C91 1.247 . S
O97 Cd86 2.439 . S
O97 C91 1.208 . S
O98 Cd99 2.223 . S
O98 C106 1.315 . S
Cd99 O98 2.223 . S
Cd99 O102 2.297 . S
Cd99 O103 2.439 . S
Cd99 O109 2.240 . S
Cd100 O101 2.240 . S
Cd100 O108 2.223 . S
Cd100 O110 2.297 . S
Cd100 O111 2.439 . S
O101 Cd100 2.240 . S
O101 C106 1.279 . S
O102 Cd99 2.297 . S
O102 C104 1.247 . S
O103 Cd99 2.439 . S
O103 C104 1.208 . S
C104 O102 1.247 . S
C104 O103 1.208 . S
C105 O110 1.247 . S
C105 O111 1.208 . S
C106 O98 1.315 . S
C106 O101 1.279 . S
C107 O108 1.315 . S
C107 O109 1.279 . S
O108 Cd100 2.223 . S
O108 C107 1.315 . S
O109 Cd99 2.240 . S
O109 C107 1.279 . S
O110 Cd100 2.297 . S
O110 C105 1.247 . S
O111 Cd100 2.439 . S
O111 C105 1.208 . S
O112 Cd113 2.223 . S
O112 C120 1.315 . S
Cd113 O112 2.223 . S
Cd113 O116 2.297 . S
Cd113 O117 2.439 . S
Cd113 O123 2.240 . S
Cd114 O115 2.240 . S
Cd114 O122 2.223 . S
Cd114 O124 2.297 . S
Cd114 O125 2.439 . S
O115 Cd114 2.240 . S
O115 C120 1.279 . S
O116 Cd113 2.297 . S
O116 C118 1.247 . S
O117 Cd113 2.439 . S
O117 C118 1.208 . S
C118 O116 1.247 . S
C118 O117 1.208 . S
C119 O124 1.247 . S
C119 O125 1.208 . S
C120 O112 1.315 . S
C120 O115 1.279 . S
C121 O122 1.315 . S
C121 O123 1.279 . S
O122 Cd114 2.223 . S
O122 C121 1.315 . S
O123 Cd113 2.240 . S
O123 C121 1.279 . S
O124 Cd114 2.297 . S
O124 C119 1.247 . S
O125 Cd114 2.439 . S
O125 C119 1.208 . S
O126 Cd127 2.223 . S
O126 C134 1.315 . S
Cd127 O126 2.223 . S
Cd127 O130 2.297 . S
Cd127 O131 2.439 . S
Cd127 O137 2.240 . S
Cd128 O129 2.240 . S
Cd128 O136 2.223 . S
Cd128 O138 2.297 . S
Cd128 O139 2.439 . S
O129 Cd128 2.240 . S
O129 C134 1.279 . S
O130 Cd127 2.297 . S
O130 C132 1.247 . S
O131 Cd127 2.439 . S
O131 C132 1.208 . S
C132 O130 1.247 . S
C132 O131 1.208 . S
C133 O138 1.247 . S
C133 O139 1.208 . S
C134 O126 1.315 . S
C134 O129 1.279 . S
C135 O136 1.315 . S
C135 O137 1.279 . S
O136 Cd128 2.223 . S
O136 C135 1.315 . S
O137 Cd127 2.240 . S
O137 C135 1.279 . S
O138 Cd128 2.297 . S
O138 C133 1.247 . S
O139 Cd128 2.439 . S
O139 C133 1.208 . S
O140 Cd141 2.223 . S
O140 C148 1.315 . S
Cd141 O140 2.223 . S
Cd141 O144 2.297 . S
Cd141 O145 2.439 . S
Cd141 O151 2.240 . S
Cd142 O143 2.240 . S
Cd142 O150 2.223 . S
Cd142 O152 2.297 . S
Cd142 O153 2.439 . S
O143 Cd142 2.240 . S
O143 C148 1.279 . S
O144 Cd141 2.297 . S
O144 C146 1.247 . S
O145 Cd141 2.439 . S
O145 C146 1.208 . S
C146 O144 1.247 . S
C146 O145 1.208 . S
C147 O152 1.247 . S
C147 O153 1.208 . S
C148 O140 1.315 . S
C148 O143 1.279 . S
C149 O150 1.315 . S
C149 O151 1.279 . S
O150 Cd142 2.223 . S
O150 C149 1.315 . S
O151 Cd141 2.240 . S
O151 C149 1.279 . S
O152 Cd142 2.297 . S
O152 C147 1.247 . S
O153 Cd142 2.439 . S
O153 C147 1.208 . S
O154 Cd155 2.223 . S
O154 C162 1.315 . S
Cd155 O154 2.223 . S
Cd155 O158 2.297 . S
Cd155 O159 2.439 . S
Cd155 O165 2.240 . S
Cd156 O157 2.240 . S
Cd156 O164 2.223 . S
Cd156 O166 2.297 . S
Cd156 O167 2.439 . S
O157 Cd156 2.240 . S
O157 C162 1.279 . S
O158 Cd155 2.297 . S
O158 C160 1.247 . S
O159 Cd155 2.439 . S
O159 C160 1.208 . S
C160 O158 1.247 . S
C160 O159 1.208 . S
C161 O166 1.247 . S
C161 O167 1.208 . S
C162 O154 1.315 . S
C162 O157 1.279 . S
C163 O164 1.315 . S
C163 O165 1.279 . S
O164 Cd156 2.223 . S
O164 C163 1.315 . S
O165 Cd155 2.240 . S
O165 C163 1.279 . S
O166 Cd156 2.297 . S
O166 C161 1.247 . S
O167 Cd156 2.439 . S
O167 C161 1.208 . S
O168 Cd169 2.223 . S
O168 C176 1.315 . S
Cd169 O168 2.223 . S
Cd169 O172 2.297 . S
Cd169 O173 2.439 . S
Cd169 O179 2.240 . S
Cd170 O171 2.240 . S
Cd170 O178 2.223 . S
Cd170 O180 2.297 . S
Cd170 O181 2.439 . S
O171 Cd170 2.240 . S
O171 C176 1.279 . S
O172 Cd169 2.297 . S
O172 C174 1.247 . S
O173 Cd169 2.439 . S
O173 C174 1.208 . S
C174 O172 1.247 . S
C174 O173 1.208 . S
C175 O180 1.247 . S
C175 O181 1.208 . S
C176 O168 1.315 . S
C176 O171 1.279 . S
C177 O178 1.315 . S
C177 O179 1.279 . S
O178 Cd170 2.223 . S
O178 C177 1.315 . S
O179 Cd169 2.240 . S
O179 C177 1.279 . S
O180 Cd170 2.297 . S
O180 C175 1.247 . S
O181 Cd170 2.439 . S
O181 C175 1.208 . S
O182 Cd183 2.223 . S
O182 C190 1.315 . S
Cd183 O182 2.223 . S
Cd183 O186 2.297 . S
Cd183 O187 2.439 . S
Cd183 O193 2.240 . S
Cd184 O185 2.240 . S
Cd184 O192 2.223 . S
Cd184 O194 2.297 . S
Cd184 O195 2.439 . S
O185 Cd184 2.240 . S
O185 C190 1.279 . S
O186 Cd183 2.297 . S
O186 C188 1.247 . S
O187 Cd183 2.439 . S
O187 C188 1.208 . S
C188 O186 1.247 . S
C188 O187 1.208 . S
C189 O194 1.247 . S
C189 O195 1.208 . S
C190 O182 1.315 . S
C190 O185 1.279 . S
C191 O192 1.315 . S
C191 O193 1.279 . S
O192 Cd184 2.223 . S
O192 C191 1.315 . S
O193 Cd183 2.240 . S
O193 C191 1.279 . S
O194 Cd184 2.297 . S
O194 C189 1.247 . S
O195 Cd184 2.439 . S
O195 C189 1.208 . S
O196 Cd197 2.223 . S
O196 C204 1.315 . S
Cd197 O196 2.223 . S
Cd197 O200 2.297 . S
Cd197 O201 2.439 . S
Cd197 O207 2.240 . S
Cd198 O199 2.240 . S
Cd198 O206 2.223 . S
Cd198 O208 2.297 . S
Cd198 O209 2.439 . S
O199 Cd198 2.240 . S
O199 C204 1.279 . S
O200 Cd197 2.297 . S
O200 C202 1.247 . S
O201 Cd197 2.439 . S
O201 C202 1.208 . S
C202 O200 1.247 . S
C202 O201 1.208 . S
C203 O208 1.247 . S
C203 O209 1.208 . S
C204 O196 1.315 . S
C204 O199 1.279 . S
C205 O206 1.315 . S
C205 O207 1.279 . S
O206 Cd198 2.223 . S
O206 C205 1.315 . S
O207 Cd197 2.240 . S
O207 C205 1.279 . S
O208 Cd198 2.297 . S
O208 C203 1.247 . S
O209 Cd198 2.439 . S
O209 C203 1.208 . S
O210 Cd211 2.223 . S
O210 C218 1.315 . S
Cd211 O210 2.223 . S
Cd211 O214 2.297 . S
Cd211 O215 2.439 . S
Cd211 O221 2.240 . S
Cd212 O213 2.240 . S
Cd212 O220 2.223 . S
Cd212 O222 2.297 . S
Cd212 O223 2.439 . S
O213 Cd212 2.240 . S
O213 C218 1.279 . S
O214 Cd211 2.297 . S
O214 C216 1.247 . S
O215 Cd211 2.439 . S
O215 C216 1.208 . S
C216 O214 1.247 . S
C216 O215 1.208 . S
C217 O222 1.247 . S
C217 O223 1.208 . S
C218 O210 1.315 . S
C218 O213 1.279 . S
C219 O220 1.315 . S
C219 O221 1.279 . S
O220 Cd212 2.223 . S
O220 C219 1.315 . S
O221 Cd211 2.240 . S
O221 C219 1.279 . S
O222 Cd212 2.297 . S
O222 C217 1.247 . S
O223 Cd212 2.439 . S
O223 C217 1.208 . S
O224 Cd225 2.223 . S
O224 C232 1.315 . S
Cd225 O224 2.223 . S
Cd225 O228 2.297 . S
Cd225 O229 2.439 . S
Cd225 O235 2.240 . S
Cd226 O227 2.240 . S
Cd226 O234 2.223 . S
Cd226 O236 2.297 . S
Cd226 O237 2.439 . S
O227 Cd226 2.240 . S
O227 C232 1.279 . S
O228 Cd225 2.297 . S
O228 C230 1.247 . S
O229 Cd225 2.439 . S
O229 C230 1.208 . S
C230 O228 1.247 . S
C230 O229 1.208 . S
C231 O236 1.247 . S
C231 O237 1.208 . S
C232 O224 1.315 . S
C232 O227 1.279 . S
C233 O234 1.315 . S
C233 O235 1.279 . S
O234 Cd226 2.223 . S
O234 C233 1.315 . S
O235 Cd225 2.240 . S
O235 C233 1.279 . S
O236 Cd226 2.297 . S
O236 C231 1.247 . S
O237 Cd226 2.439 . S
O237 C231 1.208 . S
O238 Cd239 2.223 . S
O238 C246 1.315 . S
Cd239 O238 2.223 . S
Cd239 O242 2.297 . S
Cd239 O243 2.439 . S
Cd239 O249 2.240 . S
Cd240 O241 2.240 . S
Cd240 O248 2.223 . S
Cd240 O250 2.297 . S
Cd240 O251 2.439 . S
O241 Cd240 2.240 . S
O241 C246 1.279 . S
O242 Cd239 2.297 . S
O242 C244 1.247 . S
O243 Cd239 2.439 . S
O243 C244 1.208 . S
C244 O242 1.247 . S
C244 O243 1.208 . S
C245 O250 1.247 . S
C245 O251 1.208 . S
C246 O238 1.315 . S
C246 O241 1.279 . S
C247 O248 1.315 . S
C247 O249 1.279 . S
O248 Cd240 2.223 . S
O248 C247 1.315 . S
O249 Cd239 2.240 . S
O249 C247 1.279 . S
O250 Cd240 2.297 . S
O250 C245 1.247 . S
O251 Cd240 2.439 . S
O251 C245 1.208 . S
C252 C253 1.391 . S
C252 C254 1.394 . S
C252 H268 0.931 . S
C253 C252 1.391 . S
C253 C257 1.376 . S
C254 C252 1.394 . S
C254 C255 1.369 . S
C254 C258 1.531 . S
C255 C254 1.369 . S
C255 C256 1.410 . S
C255 C263 1.503 . S
C256 C255 1.410 . S
C256 C257 1.392 . S
C256 C259 1.511 . S
C257 C253 1.376 . S
C257 C256 1.392 . S
C257 H269 0.929 . S
C258 C254 1.531 . S
C258 H270 0.960 . S
C258 H271 0.962 . S
C258 H272 0.960 . S
C259 C256 1.511 . S
C259 H273 0.961 . S
C259 H274 0.961 . S
C259 H275 0.961 . S
C260 C261 1.370 . S
C260 C262 1.363 . S
C260 H276 0.931 . S
C261 C260 1.370 . S
C261 C265 1.408 . S
C262 C260 1.363 . S
C262 C263 1.370 . S
C262 C266 1.524 . S
C263 C255 1.503 . S
C263 C262 1.370 . S
C263 C264 1.403 . S
C264 C263 1.403 . S
C264 C265 1.404 . S
C264 C267 1.539 . S
C265 C261 1.408 . S
C265 C264 1.404 . S
C265 H277 0.930 . S
C266 C262 1.524 . S
C266 H278 0.956 . S
C266 H279 0.961 . S
C266 H280 0.961 . S
C267 C264 1.539 . S
C267 H281 0.958 . S
C267 H282 0.961 . S
C267 H283 0.960 . S
H268 C252 0.931 . S
H269 C257 0.929 . S
H270 C258 0.960 . S
H271 C258 0.962 . S
H272 C258 0.960 . S
H273 C259 0.961 . S
H274 C259 0.961 . S
H275 C259 0.961 . S
H276 C260 0.931 . S
H277 C265 0.930 . S
H278 C266 0.956 . S
H279 C266 0.961 . S
H280 C266 0.961 . S
H281 C267 0.958 . S
H282 C267 0.961 . S
H283 C267 0.960 . S
C284 C285 1.391 . S
C284 C286 1.394 . S
C284 H300 0.931 . S
C285 C284 1.391 . S
C285 C289 1.376 . S
C286 C284 1.394 . S
C286 C287 1.369 . S
C286 C290 1.531 . S
C287 C286 1.369 . S
C287 C288 1.410 . S
C287 C295 1.503 . S
C288 C287 1.410 . S
C288 C289 1.392 . S
C288 C291 1.511 . S
C289 C285 1.376 . S
C289 C288 1.392 . S
C289 H301 0.929 . S
C290 C286 1.531 . S
C290 H302 0.960 . S
C290 H303 0.962 . S
C290 H304 0.960 . S
C291 C288 1.511 . S
C291 H305 0.961 . S
C291 H306 0.961 . S
C291 H307 0.961 . S
C292 C293 1.370 . S
C292 C294 1.363 . S
C292 H308 0.931 . S
C293 C292 1.370 . S
C293 C297 1.408 . S
C294 C292 1.363 . S
C294 C295 1.370 . S
C294 C298 1.524 . S
C295 C287 1.503 . S
C295 C294 1.370 . S
C295 C296 1.403 . S
C296 C295 1.403 . S
C296 C297 1.404 . S
C296 C299 1.539 . S
C297 C293 1.408 . S
C297 C296 1.404 . S
C297 H309 0.930 . S
C298 C294 1.524 . S
C298 H310 0.956 . S
C298 H311 0.961 . S
C298 H312 0.961 . S
C299 C296 1.539 . S
C299 H313 0.958 . S
C299 H314 0.961 . S
C299 H315 0.960 . S
H300 C284 0.931 . S
H301 C289 0.929 . S
H302 C290 0.960 . S
H303 C290 0.962 . S
H304 C290 0.960 . S
H305 C291 0.961 . S
H306 C291 0.961 . S
H307 C291 0.961 . S
H308 C292 0.931 . S
H309 C297 0.930 . S
H310 C298 0.956 . S
H311 C298 0.961 . S
H312 C298 0.961 . S
H313 C299 0.958 . S
H314 C299 0.961 . S
H315 C299 0.960 . S
C316 C317 1.391 . S
C316 C318 1.394 . S
C316 H332 0.931 . S
C317 C316 1.391 . S
C317 C321 1.376 . S
C318 C316 1.394 . S
C318 C319 1.369 . S
C318 C322 1.531 . S
C319 C318 1.369 . S
C319 C320 1.410 . S
C319 C327 1.503 . S
C320 C319 1.410 . S
C320 C321 1.392 . S
C320 C323 1.511 . S
C321 C317 1.376 . S
C321 C320 1.392 . S
C321 H333 0.929 . S
C322 C318 1.531 . S
C322 H334 0.960 . S
C322 H335 0.962 . S
C322 H336 0.960 . S
C323 C320 1.511 . S
C323 H337 0.961 . S
C323 H338 0.961 . S
C323 H339 0.961 . S
C324 C325 1.370 . S
C324 C326 1.363 . S
C324 H340 0.931 . S
C325 C324 1.370 . S
C325 C329 1.408 . S
C326 C324 1.363 . S
C326 C327 1.370 . S
C326 C330 1.524 . S
C327 C319 1.503 . S
C327 C326 1.370 . S
C327 C328 1.403 . S
C328 C327 1.403 . S
C328 C329 1.404 . S
C328 C331 1.539 . S
C329 C325 1.408 . S
C329 C328 1.404 . S
C329 H341 0.930 . S
C330 C326 1.524 . S
C330 H342 0.956 . S
C330 H343 0.961 . S
C330 H344 0.961 . S
C331 C328 1.539 . S
C331 H345 0.958 . S
C331 H346 0.961 . S
C331 H347 0.960 . S
H332 C316 0.931 . S
H333 C321 0.929 . S
H334 C322 0.960 . S
H335 C322 0.962 . S
H336 C322 0.960 . S
H337 C323 0.961 . S
H338 C323 0.961 . S
H339 C323 0.961 . S
H340 C324 0.931 . S
H341 C329 0.930 . S
H342 C330 0.956 . S
H343 C330 0.961 . S
H344 C330 0.961 . S
H345 C331 0.958 . S
H346 C331 0.961 . S
H347 C331 0.960 . S
C348 C349 1.391 . S
C348 C350 1.394 . S
C348 H364 0.931 . S
C349 C348 1.391 . S
C349 C353 1.376 . S
C350 C348 1.394 . S
C350 C351 1.369 . S
C350 C354 1.531 . S
C351 C350 1.369 . S
C351 C352 1.410 . S
C351 C359 1.503 . S
C352 C351 1.410 . S
C352 C353 1.392 . S
C352 C355 1.511 . S
C353 C349 1.376 . S
C353 C352 1.392 . S
C353 H365 0.929 . S
C354 C350 1.531 . S
C354 H366 0.960 . S
C354 H367 0.962 . S
C354 H368 0.960 . S
C355 C352 1.511 . S
C355 H369 0.961 . S
C355 H370 0.961 . S
C355 H371 0.961 . S
C356 C357 1.370 . S
C356 C358 1.363 . S
C356 H372 0.931 . S
C357 C356 1.370 . S
C357 C361 1.408 . S
C358 C356 1.363 . S
C358 C359 1.370 . S
C358 C362 1.524 . S
C359 C351 1.503 . S
C359 C358 1.370 . S
C359 C360 1.403 . S
C360 C359 1.403 . S
C360 C361 1.404 . S
C360 C363 1.539 . S
C361 C357 1.408 . S
C361 C360 1.404 . S
C361 H373 0.930 . S
C362 C358 1.524 . S
C362 H374 0.956 . S
C362 H375 0.961 . S
C362 H376 0.961 . S
C363 C360 1.539 . S
C363 H377 0.958 . S
C363 H378 0.961 . S
C363 H379 0.960 . S
H364 C348 0.931 . S
H365 C353 0.929 . S
H366 C354 0.960 . S
H367 C354 0.962 . S
H368 C354 0.960 . S
H369 C355 0.961 . S
H370 C355 0.961 . S
H371 C355 0.961 . S
H372 C356 0.931 . S
H373 C361 0.930 . S
H374 C362 0.956 . S
H375 C362 0.961 . S
H376 C362 0.961 . S
H377 C363 0.958 . S
H378 C363 0.961 . S
H379 C363 0.960 . S
C380 C381 1.391 . S
C380 C382 1.394 . S
C380 H396 0.931 . S
C381 C380 1.391 . S
C381 C385 1.376 . S
C382 C380 1.394 . S
C382 C383 1.369 . S
C382 C386 1.531 . S
C383 C382 1.369 . S
C383 C384 1.410 . S
C383 C391 1.503 . S
C384 C383 1.410 . S
C384 C385 1.392 . S
C384 C387 1.511 . S
C385 C381 1.376 . S
C385 C384 1.392 . S
C385 H397 0.929 . S
C386 C382 1.531 . S
C386 H398 0.960 . S
C386 H399 0.962 . S
C386 H400 0.960 . S
C387 C384 1.511 . S
C387 H401 0.961 . S
C387 H402 0.961 . S
C387 H403 0.961 . S
C388 C389 1.370 . S
C388 C390 1.363 . S
C388 H404 0.931 . S
C389 C388 1.370 . S
C389 C393 1.408 . S
C390 C388 1.363 . S
C390 C391 1.370 . S
C390 C394 1.524 . S
C391 C383 1.503 . S
C391 C390 1.370 . S
C391 C392 1.403 . S
C392 C391 1.403 . S
C392 C393 1.404 . S
C392 C395 1.539 . S
C393 C389 1.408 . S
C393 C392 1.404 . S
C393 H405 0.930 . S
C394 C390 1.524 . S
C394 H406 0.956 . S
C394 H407 0.961 . S
C394 H408 0.961 . S
C395 C392 1.539 . S
C395 H409 0.958 . S
C395 H410 0.961 . S
C395 H411 0.960 . S
H396 C380 0.931 . S
H397 C385 0.929 . S
H398 C386 0.960 . S
H399 C386 0.962 . S
H400 C386 0.960 . S
H401 C387 0.961 . S
H402 C387 0.961 . S
H403 C387 0.961 . S
H404 C388 0.931 . S
H405 C393 0.930 . S
H406 C394 0.956 . S
H407 C394 0.961 . S
H408 C394 0.961 . S
H409 C395 0.958 . S
H410 C395 0.961 . S
H411 C395 0.960 . S
C412 C413 1.391 . S
C412 C414 1.394 . S
C412 H428 0.931 . S
C413 C412 1.391 . S
C413 C417 1.376 . S
C414 C412 1.394 . S
C414 C415 1.369 . S
C414 C418 1.531 . S
C415 C414 1.369 . S
C415 C416 1.410 . S
C415 C423 1.503 . S
C416 C415 1.410 . S
C416 C417 1.392 . S
C416 C419 1.511 . S
C417 C413 1.376 . S
C417 C416 1.392 . S
C417 H429 0.929 . S
C418 C414 1.531 . S
C418 H430 0.960 . S
C418 H431 0.962 . S
C418 H432 0.960 . S
C419 C416 1.511 . S
C419 H433 0.961 . S
C419 H434 0.961 . S
C419 H435 0.961 . S
C420 C421 1.370 . S
C420 C422 1.363 . S
C420 H436 0.931 . S
C421 C420 1.370 . S
C421 C425 1.408 . S
C422 C420 1.363 . S
C422 C423 1.370 . S
C422 C426 1.524 . S
C423 C415 1.503 . S
C423 C422 1.370 . S
C423 C424 1.403 . S
C424 C423 1.403 . S
C424 C425 1.404 . S
C424 C427 1.539 . S
C425 C421 1.408 . S
C425 C424 1.404 . S
C425 H437 0.930 . S
C426 C422 1.524 . S
C426 H438 0.956 . S
C426 H439 0.961 . S
C426 H440 0.961 . S
C427 C424 1.539 . S
C427 H441 0.958 . S
C427 H442 0.961 . S
C427 H443 0.960 . S
H428 C412 0.931 . S
H429 C417 0.929 . S
H430 C418 0.960 . S
H431 C418 0.962 . S
H432 C418 0.960 . S
H433 C419 0.961 . S
H434 C419 0.961 . S
H435 C419 0.961 . S
H436 C420 0.931 . S
H437 C425 0.930 . S
H438 C426 0.956 . S
H439 C426 0.961 . S
H440 C426 0.961 . S
H441 C427 0.958 . S
H442 C427 0.961 . S
H443 C427 0.960 . S
C444 C445 1.391 . S
C444 C446 1.394 . S
C444 H460 0.931 . S
C445 C444 1.391 . S
C445 C449 1.376 . S
C446 C444 1.394 . S
C446 C447 1.369 . S
C446 C450 1.531 . S
C447 C446 1.369 . S
C447 C448 1.410 . S
C447 C455 1.503 1_655 S
C448 C447 1.410 . S
C448 C449 1.392 . S
C448 C451 1.511 1_655 S
C449 C445 1.376 . S
C449 C448 1.392 . S
C449 H461 0.929 . S
C450 C446 1.531 . S
C450 H462 0.960 . S
C450 H463 0.962 . S
C450 H464 0.960 . S
C451 C448 1.511 1_455 S
C451 H465 0.961 . S
C451 H466 0.961 . S
C451 H467 0.961 . S
C452 C453 1.370 . S
C452 C454 1.363 . S
C452 H468 0.931 . S
C453 C452 1.370 . S
C453 C457 1.408 . S
C454 C452 1.363 . S
C454 C455 1.370 . S
C454 C458 1.524 . S
C455 C447 1.503 1_455 S
C455 C454 1.370 . S
C455 C456 1.403 . S
C456 C455 1.403 . S
C456 C457 1.404 . S
C456 C459 1.539 . S
C457 C453 1.408 . S
C457 C456 1.404 . S
C457 H469 0.930 . S
C458 C454 1.524 . S
C458 H470 0.956 1_455 S
C458 H471 0.961 . S
C458 H472 0.961 . S
C459 C456 1.539 . S
C459 H473 0.958 . S
C459 H474 0.961 . S
C459 H475 0.984 . S
H460 C444 0.931 . S
H461 C449 0.929 . S
H462 C450 0.960 . S
H463 C450 0.962 . S
H464 C450 0.960 . S
H465 C451 0.961 . S
H466 C451 0.961 . S
H467 C451 0.961 . S
H468 C452 0.931 . S
H469 C457 0.930 . S
H470 C458 0.956 1_655 S
H471 C458 0.961 . S
H472 C458 0.961 . S
H473 C459 0.958 . S
H474 C459 0.961 . S
H475 C459 0.984 . S
C476 C477 1.391 . S
C476 C478 1.394 . S
C476 H492 0.931 . S
C477 C476 1.391 . S
C477 C481 1.376 . S
C478 C476 1.394 . S
C478 C479 1.369 . S
C478 C482 1.531 . S
C479 C478 1.369 . S
C479 C480 1.410 . S
C479 C487 1.503 . S
C480 C479 1.410 . S
C480 C481 1.392 . S
C480 C483 1.511 . S
C481 C477 1.376 . S
C481 C480 1.392 . S
C481 H493 0.929 . S
C482 C478 1.531 . S
C482 H494 0.960 . S
C482 H495 0.962 . S
C482 H496 0.960 . S
C483 C480 1.511 . S
C483 H497 0.961 . S
C483 H498 0.961 . S
C483 H499 0.961 . S
C484 C485 1.370 . S
C484 C486 1.363 . S
C484 H500 0.931 . S
C485 C484 1.370 . S
C485 C489 1.408 . S
C486 C484 1.363 . S
C486 C487 1.370 . S
C486 C490 1.524 . S
C487 C479 1.503 . S
C487 C486 1.370 . S
C487 C488 1.403 . S
C488 C487 1.403 . S
C488 C489 1.404 . S
C488 C491 1.539 . S
C489 C485 1.408 . S
C489 C488 1.404 . S
C489 H501 0.930 . S
C490 C486 1.524 . S
C490 H502 0.956 . S
C490 H503 0.961 . S
C490 H504 0.961 . S
C491 C488 1.539 . S
C491 H505 0.958 . S
C491 H506 0.961 . S
C491 H507 0.960 . S
H492 C476 0.931 . S
H493 C481 0.929 . S
H494 C482 0.960 . S
H495 C482 0.962 . S
H496 C482 0.960 . S
H497 C483 0.961 . S
H498 C483 0.961 . S
H499 C483 0.961 . S
H500 C484 0.931 . S
H501 C489 0.930 . S
H502 C490 0.956 . S
H503 C490 0.961 . S
H504 C490 0.961 . S
H505 C491 0.958 . S
H506 C491 0.961 . S
H507 C491 0.960 . S
C508 C509 1.391 . S
C508 C510 1.394 . S
C508 H524 0.931 . S
C509 C508 1.391 . S
C509 C513 1.376 . S
C510 C508 1.394 . S
C510 C511 1.369 . S
C510 C514 1.531 1_545 S
C511 C510 1.369 . S
C511 C512 1.410 . S
C511 C519 1.503 1_545 S
C512 C511 1.410 . S
C512 C513 1.392 . S
C512 C515 1.511 . S
C513 C509 1.376 . S
C513 C512 1.392 . S
C513 H525 0.929 . S
C514 C510 1.531 1_565 S
C514 H526 0.960 . S
C514 H527 0.974 . S
C514 H528 0.960 1_565 S
C515 C512 1.511 . S
C515 H529 0.961 . S
C515 H530 0.961 . S
C515 H531 0.961 . S
C516 C517 1.370 . S
C516 C518 1.363 . S
C516 H532 0.931 . S
C517 C516 1.370 . S
C517 C521 1.408 . S
C518 C516 1.363 . S
C518 C519 1.370 . S
C518 C522 1.524 1_565 S
C519 C511 1.503 1_565 S
C519 C518 1.370 . S
C519 C520 1.403 . S
C520 C519 1.403 . S
C520 C521 1.404 . S
C520 C523 1.539 . S
C521 C517 1.408 . S
C521 C520 1.404 . S
C521 H533 0.930 . S
C522 C518 1.524 1_545 S
C522 H534 0.956 . S
C522 H535 0.961 . S
C522 H536 0.958 1_545 S
C523 C520 1.539 . S
C523 H537 0.958 . S
C523 H538 0.961 . S
C523 H539 0.960 . S
H524 C508 0.931 . S
H525 C513 0.929 . S
H526 C514 0.960 . S
H527 C514 0.974 . S
H528 C514 0.960 1_545 S
H529 C515 0.961 . S
H530 C515 0.961 . S
H531 C515 0.961 . S
H532 C516 0.931 . S
H533 C521 0.930 . S
H534 C522 0.956 . S
H535 C522 0.961 . S
H536 C522 0.958 1_565 S
H537 C523 0.958 . S
H538 C523 0.961 . S
H539 C523 0.960 . S
C540 C541 1.391 . S
C540 C542 1.394 . S
C540 H556 0.931 . S
C541 C540 1.391 . S
C541 C545 1.376 . S
C542 C540 1.394 . S
C542 C543 1.369 . S
C542 C546 1.531 . S
C543 C542 1.369 . S
C543 C544 1.410 . S
C543 C551 1.503 1_455 S
C544 C543 1.410 . S
C544 C545 1.392 . S
C544 C547 1.511 . S
C545 C541 1.376 . S
C545 C544 1.392 . S
C545 H557 0.929 . S
C546 C542 1.531 . S
C546 H558 0.960 1_455 S
C546 H559 0.962 . S
C546 H560 0.960 . S
C547 C544 1.511 . S
C547 H561 0.961 . S
C547 H562 0.972 . S
C547 H563 0.961 . S
C548 C549 1.370 . S
C548 C550 1.363 . S
C548 H564 0.931 . S
C549 C548 1.370 . S
C549 C553 1.408 . S
C550 C548 1.363 . S
C550 C551 1.370 . S
C550 C554 1.524 . S
C551 C543 1.503 1_655 S
C551 C550 1.370 . S
C551 C552 1.403 . S
C552 C551 1.403 . S
C552 C553 1.404 . S
C552 C555 1.539 . S
C553 C549 1.408 . S
C553 C552 1.404 . S
C553 H565 0.930 . S
C554 C550 1.524 . S
C554 H566 0.956 . S
C554 H567 0.961 1_655 S
C554 H568 0.961 . S
C555 C552 1.539 . S
C555 H569 0.958 . S
C555 H570 0.961 . S
C555 H571 0.960 . S
H556 C540 0.931 . S
H557 C545 0.929 . S
H558 C546 0.960 1_655 S
H559 C546 0.962 . S
H560 C546 0.960 . S
H561 C547 0.961 . S
H562 C547 0.972 . S
H563 C547 0.961 . S
H564 C548 0.931 . S
H565 C553 0.930 . S
H566 C554 0.956 . S
H567 C554 0.961 1_455 S
H568 C554 0.961 . S
H569 C555 0.958 . S
H570 C555 0.961 . S
H571 C555 0.960 . S
C572 C573 1.391 . S
C572 C574 1.394 . S
C572 H588 0.931 . S
C573 C572 1.391 . S
C573 C577 1.376 . S
C574 C572 1.394 . S
C574 C575 1.369 . S
C574 C578 1.531 . S
C575 C574 1.369 . S
C575 C576 1.410 . S
C575 C583 1.503 . S
C576 C575 1.410 . S
C576 C577 1.392 . S
C576 C579 1.511 . S
C577 C573 1.376 . S
C577 C576 1.392 . S
C577 H589 0.929 . S
C578 C574 1.531 . S
C578 H590 0.960 . S
C578 H591 0.962 . S
C578 H592 0.960 . S
C579 C576 1.511 . S
C579 H593 0.961 . S
C579 H594 0.961 . S
C579 H595 0.961 . S
C580 C581 1.370 . S
C580 C582 1.363 . S
C580 H596 0.931 . S
C581 C580 1.370 . S
C581 C585 1.408 . S
C582 C580 1.363 . S
C582 C583 1.370 . S
C582 C586 1.524 . S
C583 C575 1.503 . S
C583 C582 1.370 . S
C583 C584 1.403 . S
C584 C583 1.403 . S
C584 C585 1.404 . S
C584 C587 1.539 . S
C585 C581 1.408 . S
C585 C584 1.404 . S
C585 H597 0.930 . S
C586 C582 1.524 . S
C586 H598 0.956 . S
C586 H599 0.961 . S
C586 H600 0.961 . S
C587 C584 1.539 . S
C587 H601 0.958 . S
C587 H602 0.961 . S
C587 H603 0.960 . S
H588 C572 0.931 . S
H589 C577 0.929 . S
H590 C578 0.960 . S
H591 C578 0.962 . S
H592 C578 0.960 . S
H593 C579 0.961 . S
H594 C579 0.961 . S
H595 C579 0.961 . S
H596 C580 0.931 . S
H597 C585 0.930 . S
H598 C586 0.956 . S
H599 C586 0.961 . S
H600 C586 0.961 . S
H601 C587 0.958 . S
H602 C587 0.961 . S
H603 C587 0.960 . S
C604 C605 1.391 . S
C604 C606 1.394 . S
C604 H620 0.931 . S
C605 C604 1.391 . S
C605 C609 1.376 . S
C606 C604 1.394 . S
C606 C607 1.369 . S
C606 C610 1.531 . S
C607 C606 1.369 . S
C607 C608 1.410 . S
C607 C615 1.503 1_545 S
C608 C607 1.410 . S
C608 C609 1.392 . S
C608 C611 1.511 . S
C609 C605 1.376 . S
C609 C608 1.392 . S
C609 H621 0.929 . S
C610 C606 1.531 . S
C610 H622 0.960 1_545 S
C610 H623 0.962 . S
C610 H624 0.960 . S
C611 C608 1.511 . S
C611 H625 0.961 . S
C611 H626 0.961 1_545 S
C611 H627 0.961 . S
C612 C613 1.370 . S
C612 C614 1.363 . S
C612 H628 0.931 . S
C613 C612 1.370 . S
C613 C617 1.408 . S
C614 C612 1.363 . S
C614 C615 1.370 . S
C614 C618 1.524 . S
C615 C607 1.503 1_565 S
C615 C614 1.370 . S
C615 C616 1.403 . S
C616 C615 1.403 . S
C616 C617 1.404 . S
C616 C619 1.539 . S
C617 C613 1.408 . S
C617 C616 1.404 . S
C617 H629 0.930 . S
C618 C614 1.524 . S
C618 H630 0.956 1_565 S
C618 H631 0.961 1_565 S
C618 H632 0.961 . S
C619 C616 1.539 . S
C619 H633 0.958 . S
C619 H634 0.961 . S
C619 H635 0.960 . S
H620 C604 0.931 . S
H621 C609 0.929 . S
H622 C610 0.960 1_565 S
H623 C610 0.962 . S
H624 C610 0.960 . S
H625 C611 0.961 . S
H626 C611 0.961 1_565 S
H627 C611 0.961 . S
H628 C612 0.931 . S
H629 C617 0.930 . S
H630 C618 0.956 1_545 S
H631 C618 0.961 1_545 S
H632 C618 0.961 . S
H633 C619 0.958 . S
H634 C619 0.961 . S
H635 C619 0.960 . S
C636 C637 1.391 . S
C636 C638 1.394 . S
C636 H652 0.931 . S
C637 C636 1.391 . S
C637 C641 1.376 . S
C638 C636 1.394 . S
C638 C639 1.369 . S
C638 C642 1.531 . S
C639 C638 1.369 . S
C639 C640 1.410 . S
C639 C647 1.503 1_565 S
C640 C639 1.410 . S
C640 C641 1.392 . S
C640 C643 1.511 . S
C641 C637 1.376 . S
C641 C640 1.392 . S
C641 H653 0.929 . S
C642 C638 1.531 . S
C642 H654 0.960 . S
C642 H655 0.962 . S
C642 H656 0.960 . S
C643 C640 1.511 . S
C643 H657 0.961 . S
C643 H658 0.961 1_565 S
C643 H659 0.961 . S
C644 C645 1.370 . S
C644 C646 1.363 . S
C644 H660 0.931 . S
C645 C644 1.370 . S
C645 C649 1.408 . S
C646 C644 1.363 . S
C646 C647 1.370 . S
C646 C650 1.524 . S
C647 C639 1.503 1_545 S
C647 C646 1.370 . S
C647 C648 1.403 . S
C648 C647 1.403 . S
C648 C649 1.404 . S
C648 C651 1.539 . S
C649 C645 1.408 . S
C649 C648 1.404 . S
C649 H661 0.930 . S
C650 C646 1.524 . S
C650 H662 0.956 1_545 S
C650 H663 0.961 1_545 S
C650 H664 0.961 . S
C651 C648 1.539 . S
C651 H665 0.958 . S
C651 H666 0.961 . S
C651 H667 0.960 . S
H652 C636 0.931 . S
H653 C641 0.929 . S
H654 C642 0.960 . S
H655 C642 0.962 . S
H656 C642 0.960 . S
H657 C643 0.961 . S
H658 C643 0.961 1_545 S
H659 C643 0.961 . S
H660 C644 0.931 . S
H661 C649 0.930 . S
H662 C650 0.956 1_565 S
H663 C650 0.961 1_565 S
H664 C650 0.961 . S
H665 C651 0.958 . S
H666 C651 0.961 . S
H667 C651 0.960 . S
C668 C669 1.391 . S
C668 C670 1.394 . S
C668 H684 0.931 . S
C669 C668 1.391 . S
C669 C673 1.376 . S
C670 C668 1.394 . S
C670 C671 1.369 . S
C670 C674 1.531 . S
C671 C670 1.369 . S
C671 C672 1.410 . S
C671 C679 1.503 1_455 S
C672 C671 1.410 . S
C672 C673 1.392 . S
C672 C675 1.511 . S
C673 C669 1.376 . S
C673 C672 1.392 . S
C673 H685 0.929 . S
C674 C670 1.531 . S
C674 H686 0.960 1_455 S
C674 H687 0.962 . S
C674 H688 0.960 . S
C675 C672 1.511 . S
C675 H689 0.961 . S
C675 H690 0.961 1_455 S
C675 H691 0.961 . S
C676 C677 1.370 . S
C676 C678 1.363 . S
C676 H692 0.931 . S
C677 C676 1.370 . S
C677 C681 1.408 . S
C678 C676 1.363 . S
C678 C679 1.370 . S
C678 C682 1.524 . S
C679 C671 1.503 1_655 S
C679 C678 1.370 . S
C679 C680 1.403 . S
C680 C679 1.403 . S
C680 C681 1.404 . S
C680 C683 1.539 . S
C681 C677 1.408 . S
C681 C680 1.404 . S
C681 H693 0.930 . S
C682 C678 1.524 . S
C682 H694 0.956 . S
C682 H695 0.961 . S
C682 H696 0.961 . S
C683 C680 1.539 . S
C683 H697 0.958 . S
C683 H698 0.961 . S
C683 H699 0.960 1_655 S
H684 C668 0.931 . S
H685 C673 0.929 . S
H686 C674 0.960 1_655 S
H687 C674 0.962 . S
H688 C674 0.960 . S
H689 C675 0.961 . S
H690 C675 0.961 1_655 S
H691 C675 0.961 . S
H692 C676 0.931 . S
H693 C681 0.930 . S
H694 C682 0.956 . S
H695 C682 0.961 . S
H696 C682 0.961 . S
H697 C683 0.958 . S
H698 C683 0.961 . S
H699 C683 0.960 1_455 S
C700 C701 1.391 . S
C700 C702 1.394 . S
C700 H716 0.931 . S
C701 C700 1.391 . S
C701 C705 1.376 . S
C702 C700 1.394 . S
C702 C703 1.369 . S
C702 C706 1.531 . S
C703 C702 1.369 . S
C703 C704 1.410 . S
C703 C711 1.503 . S
C704 C703 1.410 . S
C704 C705 1.392 . S
C704 C707 1.511 . S
C705 C701 1.376 . S
C705 C704 1.392 . S
C705 H717 0.929 . S
C706 C702 1.531 . S
C706 H718 0.960 . S
C706 H719 0.962 . S
C706 H720 0.960 . S
C707 C704 1.511 . S
C707 H721 0.961 . S
C707 H722 0.961 . S
C707 H723 0.961 . S
C708 C709 1.370 . S
C708 C710 1.363 . S
C708 H724 0.931 . S
C709 C708 1.370 . S
C709 C713 1.408 . S
C710 C708 1.363 . S
C710 C711 1.370 . S
C710 C714 1.524 . S
C711 C703 1.503 . S
C711 C710 1.370 . S
C711 C712 1.403 . S
C712 C711 1.403 . S
C712 C713 1.404 . S
C712 C715 1.539 . S
C713 C709 1.408 . S
C713 C712 1.404 . S
C713 H725 0.930 . S
C714 C710 1.524 . S
C714 H726 0.956 . S
C714 H727 0.961 . S
C714 H728 0.961 . S
C715 C712 1.539 . S
C715 H729 0.958 . S
C715 H730 0.961 . S
C715 H731 0.960 . S
H716 C700 0.931 . S
H717 C705 0.929 . S
H718 C706 0.960 . S
H719 C706 0.962 . S
H720 C706 0.960 . S
H721 C707 0.961 . S
H722 C707 0.961 . S
H723 C707 0.961 . S
H724 C708 0.931 . S
H725 C713 0.930 . S
H726 C714 0.956 . S
H727 C714 0.961 . S
H728 C714 0.961 . S
H729 C715 0.958 . S
H730 C715 0.961 . S
H731 C715 0.960 . S
C732 C733 1.391 . S
C732 C734 1.394 . S
C732 H748 0.931 . S
C733 C732 1.391 . S
C733 C737 1.376 . S
C734 C732 1.394 . S
C734 C735 1.369 . S
C734 C738 1.531 . S
C735 C734 1.369 . S
C735 C736 1.410 . S
C735 C743 1.503 . S
C736 C735 1.410 . S
C736 C737 1.392 . S
C736 C739 1.511 . S
C737 C733 1.376 . S
C737 C736 1.392 . S
C737 H749 0.929 . S
C738 C734 1.531 . S
C738 H750 0.960 . S
C738 H751 0.962 . S
C738 H752 0.960 . S
C739 C736 1.511 . S
C739 H753 0.961 . S
C739 H754 0.961 . S
C739 H755 0.961 . S
C740 C741 1.370 . S
C740 C742 1.363 . S
C740 H756 0.931 . S
C741 C740 1.370 . S
C741 C745 1.408 . S
C742 C740 1.363 . S
C742 C743 1.370 . S
C742 C746 1.524 . S
C743 C735 1.503 . S
C743 C742 1.370 . S
C743 C744 1.403 . S
C744 C743 1.403 . S
C744 C745 1.404 . S
C744 C747 1.539 . S
C745 C741 1.408 . S
C745 C744 1.404 . S
C745 H757 0.930 . S
C746 C742 1.524 . S
C746 H758 0.956 . S
C746 H759 0.961 . S
C746 H760 0.961 . S
C747 C744 1.539 . S
C747 H761 0.958 . S
C747 H762 0.961 . S
C747 H763 0.960 . S
H748 C732 0.931 . S
H749 C737 0.929 . S
H750 C738 0.960 . S
H751 C738 0.962 . S
H752 C738 0.960 . S
H753 C739 0.961 . S
H754 C739 0.961 . S
H755 C739 0.961 . S
H756 C740 0.931 . S
H757 C745 0.930 . S
H758 C746 0.956 . S
H759 C746 0.961 . S
H760 C746 0.961 . S
H761 C747 0.958 . S
H762 C747 0.961 . S
H763 C747 0.960 . S
C764 C765 1.391 . S
C764 C766 1.394 . S
C764 H780 0.931 . S
C765 C764 1.391 . S
C765 C769 1.376 . S
C766 C764 1.394 . S
C766 C767 1.369 . S
C766 C770 1.531 . S
C767 C766 1.369 . S
C767 C768 1.410 . S
C767 C775 1.503 . S
C768 C767 1.410 . S
C768 C769 1.392 . S
C768 C771 1.511 . S
C769 C765 1.376 . S
C769 C768 1.392 . S
C769 H781 0.929 . S
C770 C766 1.531 . S
C770 H782 0.960 . S
C770 H783 0.962 . S
C770 H784 0.960 . S
C771 C768 1.511 . S
C771 H785 0.961 . S
C771 H786 0.961 . S
C771 H787 0.961 . S
C772 C773 1.370 . S
C772 C774 1.363 . S
C772 H788 0.931 . S
C773 C772 1.370 . S
C773 C777 1.408 . S
C774 C772 1.363 . S
C774 C775 1.370 . S
C774 C778 1.524 . S
C775 C767 1.503 . S
C775 C774 1.370 . S
C775 C776 1.403 . S
C776 C775 1.403 . S
C776 C777 1.404 . S
C776 C779 1.539 . S
C777 C773 1.408 . S
C777 C776 1.404 . S
C777 H789 0.930 . S
C778 C774 1.524 . S
C778 H790 0.956 . S
C778 H791 0.961 . S
C778 H792 0.961 . S
C779 C776 1.539 . S
C779 H793 0.958 . S
C779 H794 0.961 . S
C779 H795 0.960 . S
H780 C764 0.931 . S
H781 C769 0.929 . S
H782 C770 0.960 . S
H783 C770 0.962 . S
H784 C770 0.960 . S
H785 C771 0.961 . S
H786 C771 0.961 . S
H787 C771 0.961 . S
H788 C772 0.931 . S
H789 C777 0.930 . S
H790 C778 0.956 . S
H791 C778 0.961 . S
H792 C778 0.961 . S
H793 C779 0.958 . S
H794 C779 0.961 . S
H795 C779 0.960 . S
C796 C797 1.391 . S
C796 C798 1.394 . S
C796 H812 0.931 . S
C797 C796 1.391 . S
C797 C801 1.376 . S
C798 C796 1.394 . S
C798 C799 1.369 . S
C798 C802 1.531 . S
C799 C798 1.369 . S
C799 C800 1.410 . S
C799 C807 1.503 . S
C800 C799 1.410 . S
C800 C801 1.392 . S
C800 C803 1.511 . S
C801 C797 1.376 . S
C801 C800 1.392 . S
C801 H813 0.929 . S
C802 C798 1.531 . S
C802 H814 0.960 . S
C802 H815 0.962 . S
C802 H816 0.960 . S
C803 C800 1.511 . S
C803 H817 0.961 . S
C803 H818 0.961 . S
C803 H819 0.961 . S
C804 C805 1.370 . S
C804 C806 1.363 . S
C804 H820 0.931 . S
C805 C804 1.370 . S
C805 C809 1.408 . S
C806 C804 1.363 . S
C806 C807 1.370 . S
C806 C810 1.524 . S
C807 C799 1.503 . S
C807 C806 1.370 . S
C807 C808 1.403 . S
C808 C807 1.403 . S
C808 C809 1.404 . S
C808 C811 1.539 . S
C809 C805 1.408 . S
C809 C808 1.404 . S
C809 H821 0.930 . S
C810 C806 1.524 . S
C810 H822 0.956 . S
C810 H823 0.961 . S
C810 H824 0.961 . S
C811 C808 1.539 . S
C811 H825 0.958 . S
C811 H826 0.961 . S
C811 H827 0.960 . S
H812 C796 0.931 . S
H813 C801 0.929 . S
H814 C802 0.960 . S
H815 C802 0.962 . S
H816 C802 0.960 . S
H817 C803 0.961 . S
H818 C803 0.961 . S
H819 C803 0.961 . S
H820 C804 0.931 . S
H821 C809 0.930 . S
H822 C810 0.956 . S
H823 C810 0.961 . S
H824 C810 0.961 . S
H825 C811 0.958 . S
H826 C811 0.961 . S
H827 C811 0.960 . S
C828 C829 1.391 . S
C828 C830 1.394 . S
C828 H844 0.931 . S
C829 C828 1.391 . S
C829 C833 1.376 . S
C830 C828 1.394 . S
C830 C831 1.369 . S
C830 C834 1.531 . S
C831 C830 1.369 . S
C831 C832 1.410 . S
C831 C839 1.503 . S
C832 C831 1.410 . S
C832 C833 1.392 . S
C832 C835 1.511 . S
C833 C829 1.376 . S
C833 C832 1.392 . S
C833 H845 0.929 . S
C834 C830 1.531 . S
C834 H846 0.960 . S
C834 H847 0.962 . S
C834 H848 0.960 . S
C835 C832 1.511 . S
C835 H849 0.961 . S
C835 H850 0.961 . S
C835 H851 0.961 . S
C836 C837 1.370 . S
C836 C838 1.363 . S
C836 H852 0.931 . S
C837 C836 1.370 . S
C837 C841 1.408 . S
C838 C836 1.363 . S
C838 C839 1.370 . S
C838 C842 1.524 . S
C839 C831 1.503 . S
C839 C838 1.370 . S
C839 C840 1.403 . S
C840 C839 1.403 . S
C840 C841 1.404 . S
C840 C843 1.539 . S
C841 C837 1.408 . S
C841 C840 1.404 . S
C841 H853 0.930 . S
C842 C838 1.524 . S
C842 H854 0.956 . S
C842 H855 0.961 . S
C842 H856 0.961 . S
C843 C840 1.539 . S
C843 H857 0.958 . S
C843 H858 0.961 . S
C843 H859 0.960 . S
H844 C828 0.931 . S
H845 C833 0.929 . S
H846 C834 0.960 . S
H847 C834 0.962 . S
H848 C834 0.960 . S
H849 C835 0.961 . S
H850 C835 0.961 . S
H851 C835 0.961 . S
H852 C836 0.931 . S
H853 C841 0.930 . S
H854 C842 0.956 . S
H855 C842 0.961 . S
H856 C842 0.961 . S
H857 C843 0.958 . S
H858 C843 0.961 . S
H859 C843 0.960 . S
C860 C861 1.391 . S
C860 C862 1.394 . S
C860 H876 0.931 . S
C861 C860 1.391 . S
C861 C865 1.376 . S
C862 C860 1.394 . S
C862 C863 1.369 . S
C862 C866 1.531 . S
C863 C862 1.369 . S
C863 C864 1.410 . S
C863 C871 1.503 . S
C864 C863 1.410 . S
C864 C865 1.392 . S
C864 C867 1.511 . S
C865 C861 1.376 . S
C865 C864 1.392 . S
C865 H877 0.929 . S
C866 C862 1.531 . S
C866 H878 0.960 . S
C866 H879 0.962 . S
C866 H880 0.960 . S
C867 C864 1.511 . S
C867 H881 0.961 . S
C867 H882 0.961 . S
C867 H883 0.961 . S
C868 C869 1.370 . S
C868 C870 1.363 . S
C868 H884 0.931 . S
C869 C868 1.370 . S
C869 C873 1.408 . S
C870 C868 1.363 . S
C870 C871 1.370 . S
C870 C874 1.524 . S
C871 C863 1.503 . S
C871 C870 1.370 . S
C871 C872 1.403 . S
C872 C871 1.403 . S
C872 C873 1.404 . S
C872 C875 1.539 . S
C873 C869 1.408 . S
C873 C872 1.404 . S
C873 H885 0.930 . S
C874 C870 1.524 . S
C874 H886 0.956 . S
C874 H887 0.961 . S
C874 H888 0.961 . S
C875 C872 1.539 . S
C875 H889 0.958 . S
C875 H890 0.961 . S
C875 H891 0.960 . S
H876 C860 0.931 . S
H877 C865 0.929 . S
H878 C866 0.960 . S
H879 C866 0.962 . S
H880 C866 0.960 . S
H881 C867 0.961 . S
H882 C867 0.961 . S
H883 C867 0.961 . S
H884 C868 0.931 . S
H885 C873 0.930 . S
H886 C874 0.956 . S
H887 C874 0.961 . S
H888 C874 0.961 . S
H889 C875 0.958 . S
H890 C875 0.961 . S
H891 C875 0.960 . S
C892 C893 1.391 . S
C892 C894 1.394 . S
C892 H908 0.931 . S
C893 C892 1.391 . S
C893 C897 1.376 . S
C894 C892 1.394 . S
C894 C895 1.369 . S
C894 C898 1.531 . S
C895 C894 1.369 . S
C895 C896 1.410 . S
C895 C903 1.503 . S
C896 C895 1.410 . S
C896 C897 1.392 . S
C896 C899 1.511 . S
C897 C893 1.376 . S
C897 C896 1.392 . S
C897 H909 0.929 . S
C898 C894 1.531 . S
C898 H910 0.960 . S
C898 H911 0.962 . S
C898 H912 0.960 . S
C899 C896 1.511 . S
C899 H913 0.961 . S
C899 H914 0.961 . S
C899 H915 0.961 . S
C900 C901 1.370 . S
C900 C902 1.363 . S
C900 H916 0.931 . S
C901 C900 1.370 . S
C901 C905 1.408 . S
C902 C900 1.363 . S
C902 C903 1.370 . S
C902 C906 1.524 . S
C903 C895 1.503 . S
C903 C902 1.370 . S
C903 C904 1.403 . S
C904 C903 1.403 . S
C904 C905 1.404 . S
C904 C907 1.539 . S
C905 C901 1.408 . S
C905 C904 1.404 . S
C905 H917 0.930 . S
C906 C902 1.524 . S
C906 H918 0.956 . S
C906 H919 0.961 . S
C906 H920 0.961 . S
C907 C904 1.539 . S
C907 H921 0.958 . S
C907 H922 0.961 . S
C907 H923 0.960 . S
H908 C892 0.931 . S
H909 C897 0.929 . S
H910 C898 0.960 . S
H911 C898 0.962 . S
H912 C898 0.960 . S
H913 C899 0.961 . S
H914 C899 0.961 . S
H915 C899 0.961 . S
H916 C900 0.931 . S
H917 C905 0.930 . S
H918 C906 0.956 . S
H919 C906 0.961 . S
H920 C906 0.961 . S
H921 C907 0.958 . S
H922 C907 0.961 . S
H923 C907 0.960 . S
C924 C925 1.391 . S
C924 C926 1.394 . S
C924 H940 0.931 . S
C925 C924 1.391 . S
C925 C929 1.376 . S
C926 C924 1.394 . S
C926 C927 1.369 . S
C926 C930 1.531 . S
C927 C926 1.369 . S
C927 C928 1.410 . S
C927 C935 1.503 . S
C928 C927 1.410 . S
C928 C929 1.392 . S
C928 C931 1.511 . S
C929 C925 1.376 . S
C929 C928 1.392 . S
C929 H941 0.929 . S
C930 C926 1.531 . S
C930 H942 0.960 . S
C930 H943 0.962 . S
C930 H944 0.960 . S
C931 C928 1.511 . S
C931 H945 0.961 . S
C931 H946 0.961 . S
C931 H947 0.961 . S
C932 C933 1.370 . S
C932 C934 1.363 . S
C932 H948 0.931 . S
C933 C932 1.370 . S
C933 C937 1.408 . S
C934 C932 1.363 . S
C934 C935 1.370 . S
C934 C938 1.524 . S
C935 C927 1.503 . S
C935 C934 1.370 . S
C935 C936 1.403 . S
C936 C935 1.403 . S
C936 C937 1.404 . S
C936 C939 1.539 . S
C937 C933 1.408 . S
C937 C936 1.404 . S
C937 H949 0.930 . S
C938 C934 1.524 . S
C938 H950 0.956 . S
C938 H951 0.961 . S
C938 H952 0.961 . S
C939 C936 1.539 . S
C939 H953 0.958 . S
C939 H954 0.961 . S
C939 H955 0.960 . S
H940 C924 0.931 . S
H941 C929 0.929 . S
H942 C930 0.960 . S
H943 C930 0.962 . S
H944 C930 0.960 . S
H945 C931 0.961 . S
H946 C931 0.961 . S
H947 C931 0.961 . S
H948 C932 0.931 . S
H949 C937 0.930 . S
H950 C938 0.956 . S
H951 C938 0.961 . S
H952 C938 0.961 . S
H953 C939 0.958 . S
H954 C939 0.961 . S
H955 C939 0.960 . S
C956 C957 1.391 . S
C956 C958 1.394 . S
C956 H972 0.931 . S
C957 C956 1.391 . S
C957 C961 1.376 . S
C958 C956 1.394 . S
C958 C959 1.369 . S
C958 C962 1.531 . S
C959 C958 1.369 . S
C959 C960 1.410 . S
C959 C967 1.503 . S
C960 C959 1.410 . S
C960 C961 1.392 . S
C960 C963 1.511 . S
C961 C957 1.376 . S
C961 C960 1.392 . S
C961 H973 0.929 . S
C962 C958 1.531 . S
C962 H974 0.960 . S
C962 H975 0.962 . S
C962 H976 0.960 . S
C963 C960 1.511 . S
C963 H977 0.961 . S
C963 H978 0.961 . S
C963 H979 0.961 . S
C964 C965 1.370 . S
C964 C966 1.363 . S
C964 H980 0.931 . S
C965 C964 1.370 . S
C965 C969 1.408 . S
C966 C964 1.363 . S
C966 C967 1.370 . S
C966 C970 1.524 . S
C967 C959 1.503 . S
C967 C966 1.370 . S
C967 C968 1.403 . S
C968 C967 1.403 . S
C968 C969 1.404 . S
C968 C971 1.539 . S
C969 C965 1.408 . S
C969 C968 1.404 . S
C969 H981 0.930 . S
C970 C966 1.524 . S
C970 H982 0.956 . S
C970 H983 0.961 . S
C970 H984 0.961 . S
C971 C968 1.539 . S
C971 H985 0.958 . S
C971 H986 0.961 . S
C971 H987 0.960 . S
H972 C956 0.931 . S
H973 C961 0.929 . S
H974 C962 0.960 . S
H975 C962 0.962 . S
H976 C962 0.960 . S
H977 C963 0.961 . S
H978 C963 0.961 . S
H979 C963 0.961 . S
H980 C964 0.931 . S
H981 C969 0.930 . S
H982 C970 0.956 . S
H983 C970 0.961 . S
H984 C970 0.961 . S
H985 C971 0.958 . S
H986 C971 0.961 . S
H987 C971 0.960 . S
C988 C989 1.391 . S
C988 C990 1.394 . S
C988 H1004 0.931 . S
C989 C988 1.391 . S
C989 C993 1.376 . S
C990 C988 1.394 . S
C990 C991 1.369 . S
C990 C994 1.531 . S
C991 C990 1.369 . S
C991 C992 1.410 . S
C991 C999 1.503 . S
C992 C991 1.410 . S
C992 C993 1.392 . S
C992 C995 1.511 . S
C993 C989 1.376 . S
C993 C992 1.392 . S
C993 H1005 0.929 . S
C994 C990 1.531 . S
C994 H1006 0.960 . S
C994 H1007 0.962 . S
C994 H1008 0.960 . S
C995 C992 1.511 . S
C995 H1009 0.961 . S
C995 H1010 0.961 . S
C995 H1011 0.961 . S
C996 C997 1.370 . S
C996 C998 1.363 . S
C996 H1012 0.931 . S
C997 C996 1.370 . S
C997 C1001 1.408 . S
C998 C996 1.363 . S
C998 C999 1.370 . S
C998 C1002 1.524 . S
C999 C991 1.503 . S
C999 C998 1.370 . S
C999 C1000 1.403 . S
C1000 C999 1.403 . S
C1000 C1001 1.404 . S
C1000 C1003 1.539 . S
C1001 C997 1.408 . S
C1001 C1000 1.404 . S
C1001 H1013 0.930 . S
C1002 C998 1.524 . S
C1002 H1014 0.956 . S
C1002 H1015 0.961 . S
C1002 H1016 0.961 . S
C1003 C1000 1.539 . S
C1003 H1017 0.958 . S
C1003 H1018 0.961 . S
C1003 H1019 0.960 . S
H1004 C988 0.931 . S
H1005 C993 0.929 . S
H1006 C994 0.960 . S
H1007 C994 0.962 . S
H1008 C994 0.960 . S
H1009 C995 0.961 . S
H1010 C995 0.961 . S
H1011 C995 0.961 . S
H1012 C996 0.931 . S
H1013 C1001 0.930 . S
H1014 C1002 0.956 . S
H1015 C1002 0.961 . S
H1016 C1002 0.961 . S
H1017 C1003 0.958 . S
H1018 C1003 0.961 . S
H1019 C1003 0.960 . S
C1020 C1021 1.391 . S
C1020 C1022 1.394 . S
C1020 H1036 0.931 . S
C1021 C1020 1.391 . S
C1021 C1025 1.376 . S
C1022 C1020 1.394 . S
C1022 C1023 1.369 . S
C1022 C1026 1.531 . S
C1023 C1022 1.369 . S
C1023 C1024 1.410 . S
C1023 C1031 1.503 . S
C1024 C1023 1.410 . S
C1024 C1025 1.392 . S
C1024 C1027 1.511 . S
C1025 C1021 1.376 . S
C1025 C1024 1.392 . S
C1025 H1037 0.929 . S
C1026 C1022 1.531 . S
C1026 H1038 0.960 . S
C1026 H1039 0.962 . S
C1026 H1040 0.960 . S
C1027 C1024 1.511 . S
C1027 H1041 0.961 . S
C1027 H1042 0.961 . S
C1027 H1043 0.961 . S
C1028 C1029 1.370 . S
C1028 C1030 1.363 . S
C1028 H1044 0.931 . S
C1029 C1028 1.370 . S
C1029 C1033 1.408 . S
C1030 C1028 1.363 . S
C1030 C1031 1.370 . S
C1030 C1034 1.524 . S
C1031 C1023 1.503 . S
C1031 C1030 1.370 . S
C1031 C1032 1.403 . S
C1032 C1031 1.403 . S
C1032 C1033 1.404 . S
C1032 C1035 1.539 . S
C1033 C1029 1.408 . S
C1033 C1032 1.404 . S
C1033 H1045 0.930 . S
C1034 C1030 1.524 . S
C1034 H1046 0.956 . S
C1034 H1047 0.961 . S
C1034 H1048 0.961 . S
C1035 C1032 1.539 . S
C1035 H1049 0.958 . S
C1035 H1050 0.961 . S
C1035 H1051 0.960 . S
H1036 C1020 0.931 . S
H1037 C1025 0.929 . S
H1038 C1026 0.960 . S
H1039 C1026 0.962 . S
H1040 C1026 0.960 . S
H1041 C1027 0.961 . S
H1042 C1027 0.961 . S
H1043 C1027 0.961 . S
H1044 C1028 0.931 . S
H1045 C1033 0.930 . S
H1046 C1034 0.956 . S
H1047 C1034 0.961 . S
H1048 C1034 0.961 . S
H1049 C1035 0.958 . S
H1050 C1035 0.961 . S
H1051 C1035 0.960 . S
C1052 C1053 1.391 . S
C1052 C1054 1.394 . S
C1052 H1068 0.931 . S
C1053 C1052 1.391 . S
C1053 C1057 1.376 . S
C1054 C1052 1.394 . S
C1054 C1055 1.369 . S
C1054 C1058 1.531 . S
C1055 C1054 1.369 . S
C1055 C1056 1.410 . S
C1055 C1063 1.503 . S
C1056 C1055 1.410 . S
C1056 C1057 1.392 . S
C1056 C1059 1.511 . S
C1057 C1053 1.376 . S
C1057 C1056 1.392 . S
C1057 H1069 0.929 . S
C1058 C1054 1.531 . S
C1058 H1070 0.960 . S
C1058 H1071 0.962 . S
C1058 H1072 0.960 . S
C1059 C1056 1.511 . S
C1059 H1073 0.961 . S
C1059 H1074 0.961 . S
C1059 H1075 0.961 . S
C1060 C1061 1.370 . S
C1060 C1062 1.363 . S
C1060 H1076 0.931 . S
C1061 C1060 1.370 . S
C1061 C1065 1.408 . S
C1062 C1060 1.363 . S
C1062 C1063 1.370 . S
C1062 C1066 1.524 . S
C1063 C1055 1.503 . S
C1063 C1062 1.370 . S
C1063 C1064 1.403 . S
C1064 C1063 1.403 . S
C1064 C1065 1.404 . S
C1064 C1067 1.539 . S
C1065 C1061 1.408 . S
C1065 C1064 1.404 . S
C1065 H1077 0.930 . S
C1066 C1062 1.524 . S
C1066 H1078 0.956 . S
C1066 H1079 0.961 . S
C1066 H1080 0.961 . S
C1067 C1064 1.539 . S
C1067 H1081 0.958 . S
C1067 H1082 0.961 . S
C1067 H1083 0.960 . S
H1068 C1052 0.931 . S
H1069 C1057 0.929 . S
H1070 C1058 0.960 . S
H1071 C1058 0.962 . S
H1072 C1058 0.960 . S
H1073 C1059 0.961 . S
H1074 C1059 0.961 . S
H1075 C1059 0.961 . S
H1076 C1060 0.931 . S
H1077 C1065 0.930 . S
H1078 C1066 0.956 . S
H1079 C1066 0.961 . S
H1080 C1066 0.961 . S
H1081 C1067 0.958 . S
H1082 C1067 0.961 . S
H1083 C1067 0.960 . S
C1084 C1085 1.391 . S
C1084 C1086 1.394 . S
C1084 H1100 0.931 . S
C1085 C1084 1.391 . S
C1085 C1089 1.376 . S
C1086 C1084 1.394 . S
C1086 C1087 1.369 . S
C1086 C1090 1.531 . S
C1087 C1086 1.369 . S
C1087 C1088 1.410 . S
C1087 C1095 1.503 . S
C1088 C1087 1.410 . S
C1088 C1089 1.392 . S
C1088 C1091 1.511 . S
C1089 C1085 1.376 . S
C1089 C1088 1.392 . S
C1089 H1101 0.929 . S
C1090 C1086 1.531 . S
C1090 H1102 0.960 . S
C1090 H1103 0.962 . S
C1090 H1104 0.960 . S
C1091 C1088 1.511 . S
C1091 H1105 0.961 . S
C1091 H1106 0.961 . S
C1091 H1107 0.961 . S
C1092 C1093 1.370 . S
C1092 C1094 1.363 . S
C1092 H1108 0.931 . S
C1093 C1092 1.370 . S
C1093 C1097 1.408 . S
C1094 C1092 1.363 . S
C1094 C1095 1.370 . S
C1094 C1098 1.524 . S
C1095 C1087 1.503 . S
C1095 C1094 1.370 . S
C1095 C1096 1.403 . S
C1096 C1095 1.403 . S
C1096 C1097 1.404 . S
C1096 C1099 1.539 . S
C1097 C1093 1.408 . S
C1097 C1096 1.404 . S
C1097 H1109 0.930 . S
C1098 C1094 1.524 . S
C1098 H1110 0.956 . S
C1098 H1111 0.961 . S
C1098 H1112 0.961 . S
C1099 C1096 1.539 . S
C1099 H1113 0.958 . S
C1099 H1114 0.961 . S
C1099 H1115 0.960 . S
H1100 C1084 0.931 . S
H1101 C1089 0.929 . S
H1102 C1090 0.960 . S
H1103 C1090 0.962 . S
H1104 C1090 0.960 . S
H1105 C1091 0.961 . S
H1106 C1091 0.961 . S
H1107 C1091 0.961 . S
H1108 C1092 0.931 . S
H1109 C1097 0.930 . S
H1110 C1098 0.956 . S
H1111 C1098 0.961 . S
H1112 C1098 0.961 . S
H1113 C1099 0.958 . S
H1114 C1099 0.961 . S
H1115 C1099 0.960 . S
C1116 C1117 1.391 . S
C1116 C1118 1.394 . S
C1116 H1132 0.931 . S
C1117 C1116 1.391 . S
C1117 C1121 1.376 . S
C1118 C1116 1.394 . S
C1118 C1119 1.369 . S
C1118 C1122 1.531 . S
C1119 C1118 1.369 . S
C1119 C1120 1.410 . S
C1119 C1127 1.503 1_554 S
C1120 C1119 1.410 . S
C1120 C1121 1.392 . S
C1120 C1123 1.511 . S
C1121 C1117 1.376 . S
C1121 C1120 1.392 . S
C1121 H1133 0.929 . S
C1122 C1118 1.531 . S
C1122 H1134 0.960 1_554 S
C1122 H1135 0.946 1_554 S
C1122 H1136 0.960 . S
C1123 C1120 1.511 . S
C1123 H1137 0.961 . S
C1123 H1138 0.961 . S
C1123 H1139 0.961 . S
C1124 C1125 1.370 . S
C1124 C1126 1.363 . S
C1124 H1140 0.931 . S
C1125 C1124 1.370 . S
C1125 C1129 1.408 . S
C1126 C1124 1.363 . S
C1126 C1127 1.370 . S
C1126 C1130 1.524 . S
C1127 C1119 1.503 1_556 S
C1127 C1126 1.370 . S
C1127 C1128 1.403 . S
C1128 C1127 1.403 . S
C1128 C1129 1.404 . S
C1128 C1131 1.539 . S
C1129 C1125 1.408 . S
C1129 C1128 1.404 . S
C1129 H1141 0.930 . S
C1130 C1126 1.524 . S
C1130 H1142 0.956 . S
C1130 H1143 0.961 1_556 S
C1130 H1144 0.961 . S
C1131 C1128 1.539 . S
C1131 H1145 0.958 . S
C1131 H1146 0.961 . S
C1131 H1147 0.960 1_556 S
H1132 C1116 0.931 . S
H1133 C1121 0.929 . S
H1134 C1122 0.960 1_556 S
H1135 C1122 0.946 1_556 S
H1136 C1122 0.960 . S
H1137 C1123 0.961 . S
H1138 C1123 0.961 . S
H1139 C1123 0.961 . S
H1140 C1124 0.931 . S
H1141 C1129 0.930 . S
H1142 C1130 0.956 . S
H1143 C1130 0.961 1_554 S
H1144 C1130 0.961 . S
H1145 C1131 0.958 . S
H1146 C1131 0.961 . S
H1147 C1131 0.960 1_554 S
C1148 C1149 1.391 1_565 S
C1148 C1150 1.394 . S
C1148 H1164 0.931 . S
C1149 C1148 1.391 1_545 S
C1149 C1153 1.376 . S
C1150 C1148 1.394 . S
C1150 C1151 1.369 . S
C1150 C1154 1.531 . S
C1151 C1150 1.369 . S
C1151 C1152 1.410 1_565 S
C1151 C1159 1.503 1_556 S
C1152 C1151 1.410 1_545 S
C1152 C1153 1.392 . S
C1152 C1155 1.511 . S
C1153 C1149 1.376 . S
C1153 C1152 1.392 . S
C1153 H1165 0.929 . S
C1154 C1150 1.531 . S
C1154 H1166 0.960 . S
C1154 H1167 0.962 . S
C1154 H1168 0.960 . S
C1155 C1152 1.511 . S
C1155 H1169 0.961 . S
C1155 H1170 0.961 1_556 S
C1155 H1171 0.961 . S
C1156 C1157 1.372 . S
C1156 C1158 1.363 1_565 S
C1156 H1172 0.929 1_565 S
C1157 C1156 1.372 . S
C1157 C1161 1.408 . S
C1158 C1156 1.363 1_545 S
C1158 C1159 1.370 1_545 S
C1158 C1162 1.524 . S
C1159 C1151 1.503 1_554 S
C1159 C1158 1.370 1_565 S
C1159 C1160 1.403 . S
C1160 C1159 1.403 . S
C1160 C1161 1.404 . S
C1160 C1163 1.539 . S
C1161 C1157 1.408 . S
C1161 C1160 1.404 . S
C1161 H1173 0.930 . S
C1162 C1158 1.524 . S
C1162 H1174 0.956 . S
C1162 H1175 0.961 . S
C1162 H1176 0.961 . S
C1163 C1160 1.539 . S
C1163 H1177 0.958 . S
C1163 H1178 0.961 . S
C1163 H1179 0.960 1_554 S
H1164 C1148 0.931 . S
H1165 C1153 0.929 . S
H1166 C1154 0.960 . S
H1167 C1154 0.962 . S
H1168 C1154 0.960 . S
H1169 C1155 0.961 . S
H1170 C1155 0.961 1_554 S
H1171 C1155 0.961 . S
H1172 C1156 0.929 1_545 S
H1173 C1161 0.930 . S
H1174 C1162 0.956 . S
H1175 C1162 0.961 . S
H1176 C1162 0.961 . S
H1177 C1163 0.958 . S
H1178 C1163 0.961 . S
H1179 C1163 0.960 1_556 S
C1180 C1181 1.391 1_455 S
C1180 C1182 1.394 . S
C1180 H1196 0.931 . S
C1181 C1180 1.391 1_655 S
C1181 C1185 1.376 . S
C1182 C1180 1.394 . S
C1182 C1183 1.369 1_455 S
C1182 C1186 1.531 . S
C1183 C1182 1.369 1_655 S
C1183 C1184 1.410 . S
C1183 C1191 1.503 1_656 S
C1184 C1183 1.410 . S
C1184 C1185 1.392 . S
C1184 C1187 1.511 . S
C1185 C1181 1.376 . S
C1185 C1184 1.392 . S
C1185 H1197 0.929 . S
C1186 C1182 1.531 . S
C1186 H1198 0.960 . S
C1186 H1199 0.962 . S
C1186 H1200 0.960 . S
C1187 C1184 1.511 . S
C1187 H1201 0.961 . S
C1187 H1202 0.961 1_556 S
C1187 H1203 0.961 . S
C1188 C1189 1.370 . S
C1188 C1190 1.363 1_455 S
C1188 H1204 0.931 . S
C1189 C1188 1.370 . S
C1189 C1193 1.408 . S
C1190 C1188 1.363 1_655 S
C1190 C1191 1.370 1_655 S
C1190 C1194 1.524 . S
C1191 C1183 1.503 1_454 S
C1191 C1190 1.370 1_455 S
C1191 C1192 1.403 . S
C1192 C1191 1.403 . S
C1192 C1193 1.404 . S
C1192 C1195 1.539 . S
C1193 C1189 1.408 . S
C1193 C1192 1.404 . S
C1193 H1205 0.930 . S
C1194 C1190 1.524 . S
C1194 H1206 0.964 1_655 S
C1194 H1207 0.961 . S
C1194 H1208 0.961 . S
C1195 C1192 1.539 . S
C1195 H1209 0.958 . S
C1195 H1210 0.961 . S
C1195 H1211 0.952 1_554 S
H1196 C1180 0.931 . S
H1197 C1185 0.929 . S
H1198 C1186 0.960 . S
H1199 C1186 0.962 . S
H1200 C1186 0.960 . S
H1201 C1187 0.961 . S
H1202 C1187 0.961 1_554 S
H1203 C1187 0.961 . S
H1204 C1188 0.931 . S
H1205 C1193 0.930 . S
H1206 C1194 0.964 1_455 S
H1207 C1194 0.961 . S
H1208 C1194 0.961 . S
H1209 C1195 0.958 . S
H1210 C1195 0.961 . S
H1211 C1195 0.952 1_556 S
C1212 C1213 1.391 . S
C1212 C1214 1.394 . S
C1212 H1228 0.931 . S
C1213 C1212 1.391 . S
C1213 C1217 1.376 . S
C1214 C1212 1.394 . S
C1214 C1215 1.369 . S
C1214 C1218 1.531 . S
C1215 C1214 1.369 . S
C1215 C1216 1.410 . S
C1215 C1223 1.503 . S
C1216 C1215 1.410 . S
C1216 C1217 1.392 . S
C1216 C1219 1.511 . S
C1217 C1213 1.376 . S
C1217 C1216 1.392 . S
C1217 H1229 0.929 . S
C1218 C1214 1.531 . S
C1218 H1230 0.960 . S
C1218 H1231 0.962 . S
C1218 H1232 0.960 . S
C1219 C1216 1.511 . S
C1219 H1233 0.961 . S
C1219 H1234 0.961 . S
C1219 H1235 0.961 . S
C1220 C1221 1.370 . S
C1220 C1222 1.363 . S
C1220 H1236 0.931 . S
C1221 C1220 1.370 . S
C1221 C1225 1.408 . S
C1222 C1220 1.363 . S
C1222 C1223 1.370 . S
C1222 C1226 1.524 . S
C1223 C1215 1.503 . S
C1223 C1222 1.370 . S
C1223 C1224 1.403 . S
C1224 C1223 1.403 . S
C1224 C1225 1.404 . S
C1224 C1227 1.539 . S
C1225 C1221 1.408 . S
C1225 C1224 1.404 . S
C1225 H1237 0.930 . S
C1226 C1222 1.524 . S
C1226 H1238 0.956 . S
C1226 H1239 0.961 . S
C1226 H1240 0.961 . S
C1227 C1224 1.539 . S
C1227 H1241 0.958 . S
C1227 H1242 0.961 . S
C1227 H1243 0.960 . S
H1228 C1212 0.931 . S
H1229 C1217 0.929 . S
H1230 C1218 0.960 . S
H1231 C1218 0.962 . S
H1232 C1218 0.960 . S
H1233 C1219 0.961 . S
H1234 C1219 0.961 . S
H1235 C1219 0.961 . S
H1236 C1220 0.931 . S
H1237 C1225 0.930 . S
H1238 C1226 0.956 . S
H1239 C1226 0.961 . S
H1240 C1226 0.961 . S
H1241 C1227 0.958 . S
H1242 C1227 0.961 . S
H1243 C1227 0.960 . S
C1244 C1245 1.391 . S
C1244 C1246 1.394 . S
C1244 H1260 0.931 . S
C1245 C1244 1.391 . S
C1245 C1249 1.376 . S
C1246 C1244 1.394 . S
C1246 C1247 1.369 . S
C1246 C1250 1.531 . S
C1247 C1246 1.369 . S
C1247 C1248 1.410 . S
C1247 C1255 1.503 . S
C1248 C1247 1.410 . S
C1248 C1249 1.392 . S
C1248 C1251 1.511 . S
C1249 C1245 1.376 . S
C1249 C1248 1.392 . S
C1249 H1261 0.929 . S
C1250 C1246 1.531 . S
C1250 H1262 0.960 . S
C1250 H1263 0.962 . S
C1250 H1264 0.960 . S
C1251 C1248 1.511 . S
C1251 H1265 0.961 . S
C1251 H1266 0.961 . S
C1251 H1267 0.961 . S
C1252 C1253 1.370 . S
C1252 C1254 1.363 . S
C1252 H1268 0.931 . S
C1253 C1252 1.370 . S
C1253 C1257 1.408 . S
C1254 C1252 1.363 . S
C1254 C1255 1.370 . S
C1254 C1258 1.524 . S
C1255 C1247 1.503 . S
C1255 C1254 1.370 . S
C1255 C1256 1.403 . S
C1256 C1255 1.403 . S
C1256 C1257 1.404 . S
C1256 C1259 1.539 . S
C1257 C1253 1.408 . S
C1257 C1256 1.404 . S
C1257 H1269 0.930 . S
C1258 C1254 1.524 . S
C1258 H1270 0.956 . S
C1258 H1271 0.961 . S
C1258 H1272 0.961 . S
C1259 C1256 1.539 . S
C1259 H1273 0.958 . S
C1259 H1274 0.961 . S
C1259 H1275 0.960 . S
H1260 C1244 0.931 . S
H1261 C1249 0.929 . S
H1262 C1250 0.960 . S
H1263 C1250 0.962 . S
H1264 C1250 0.960 . S
H1265 C1251 0.961 . S
H1266 C1251 0.961 . S
H1267 C1251 0.961 . S
H1268 C1252 0.931 . S
H1269 C1257 0.930 . S
H1270 C1258 0.956 . S
H1271 C1258 0.961 . S
H1272 C1258 0.961 . S
H1273 C1259 0.958 . S
H1274 C1259 0.961 . S
H1275 C1259 0.960 . S
C1276 C1277 1.391 . S
C1276 C1278 1.394 . S
C1276 H1292 0.931 . S
C1277 C1276 1.391 . S
C1277 C1281 1.376 . S
C1278 C1276 1.394 . S
C1278 C1279 1.369 . S
C1278 C1282 1.531 . S
C1279 C1278 1.369 . S
C1279 C1280 1.410 . S
C1279 C1287 1.503 . S
C1280 C1279 1.410 . S
C1280 C1281 1.392 . S
C1280 C1283 1.511 . S
C1281 C1277 1.376 . S
C1281 C1280 1.392 . S
C1281 H1293 0.929 . S
C1282 C1278 1.531 . S
C1282 H1294 0.960 . S
C1282 H1295 0.962 . S
C1282 H1296 0.960 . S
C1283 C1280 1.511 . S
C1283 H1297 0.961 . S
C1283 H1298 0.961 . S
C1283 H1299 0.961 . S
C1284 C1285 1.370 . S
C1284 C1286 1.363 . S
C1284 H1300 0.931 . S
C1285 C1284 1.370 . S
C1285 C1289 1.408 . S
C1286 C1284 1.363 . S
C1286 C1287 1.370 . S
C1286 C1290 1.524 . S
C1287 C1279 1.503 . S
C1287 C1286 1.370 . S
C1287 C1288 1.403 . S
C1288 C1287 1.403 . S
C1288 C1289 1.404 . S
C1288 C1291 1.539 . S
C1289 C1285 1.408 . S
C1289 C1288 1.404 . S
C1289 H1301 0.930 . S
C1290 C1286 1.524 . S
C1290 H1302 0.956 . S
C1290 H1303 0.961 . S
C1290 H1304 0.961 . S
C1291 C1288 1.539 . S
C1291 H1305 0.958 . S
C1291 H1306 0.961 . S
C1291 H1307 0.960 . S
H1292 C1276 0.931 . S
H1293 C1281 0.929 . S
H1294 C1282 0.960 . S
H1295 C1282 0.962 . S
H1296 C1282 0.960 . S
H1297 C1283 0.961 . S
H1298 C1283 0.961 . S
H1299 C1283 0.961 . S
H1300 C1284 0.931 . S
H1301 C1289 0.930 . S
H1302 C1290 0.956 . S
H1303 C1290 0.961 . S
H1304 C1290 0.961 . S
H1305 C1291 0.958 . S
H1306 C1291 0.961 . S
H1307 C1291 0.960 . S
C1308 C1309 1.391 . S
C1308 C1310 1.394 . S
C1308 H1324 0.931 . S
C1309 C1308 1.391 . S
C1309 C1313 1.376 . S
C1310 C1308 1.394 . S
C1310 C1311 1.369 . S
C1310 C1314 1.531 . S
C1311 C1310 1.369 . S
C1311 C1312 1.410 . S
C1311 C1319 1.503 . S
C1312 C1311 1.410 . S
C1312 C1313 1.392 . S
C1312 C1315 1.511 . S
C1313 C1309 1.376 . S
C1313 C1312 1.392 . S
C1313 H1325 0.929 . S
C1314 C1310 1.531 . S
C1314 H1326 0.960 . S
C1314 H1327 0.962 . S
C1314 H1328 0.960 . S
C1315 C1312 1.511 . S
C1315 H1329 0.961 . S
C1315 H1330 0.961 . S
C1315 H1331 0.961 . S
C1316 C1317 1.370 . S
C1316 C1318 1.363 . S
C1316 H1332 0.931 . S
C1317 C1316 1.370 . S
C1317 C1321 1.408 . S
C1318 C1316 1.363 . S
C1318 C1319 1.370 . S
C1318 C1322 1.524 . S
C1319 C1311 1.503 . S
C1319 C1318 1.370 . S
C1319 C1320 1.403 . S
C1320 C1319 1.403 . S
C1320 C1321 1.404 . S
C1320 C1323 1.539 . S
C1321 C1317 1.408 . S
C1321 C1320 1.404 . S
C1321 H1333 0.930 . S
C1322 C1318 1.524 . S
C1322 H1334 0.956 . S
C1322 H1335 0.961 . S
C1322 H1336 0.961 . S
C1323 C1320 1.539 . S
C1323 H1337 0.958 . S
C1323 H1338 0.961 . S
C1323 H1339 0.960 . S
H1324 C1308 0.931 . S
H1325 C1313 0.929 . S
H1326 C1314 0.960 . S
H1327 C1314 0.962 . S
H1328 C1314 0.960 . S
H1329 C1315 0.961 . S
H1330 C1315 0.961 . S
H1331 C1315 0.961 . S
H1332 C1316 0.931 . S
H1333 C1321 0.930 . S
H1334 C1322 0.956 . S
H1335 C1322 0.961 . S
H1336 C1322 0.961 . S
H1337 C1323 0.958 . S
H1338 C1323 0.961 . S
H1339 C1323 0.960 . S
C1340 C1341 1.391 . S
C1340 C1342 1.394 . S
C1340 H1356 0.931 . S
C1341 C1340 1.391 . S
C1341 C1345 1.376 . S
C1342 C1340 1.394 . S
C1342 C1343 1.369 . S
C1342 C1346 1.531 . S
C1343 C1342 1.369 . S
C1343 C1344 1.410 . S
C1343 C1351 1.503 . S
C1344 C1343 1.410 . S
C1344 C1345 1.392 . S
C1344 C1347 1.511 . S
C1345 C1341 1.376 . S
C1345 C1344 1.392 . S
C1345 H1357 0.929 . S
C1346 C1342 1.531 . S
C1346 H1358 0.960 . S
C1346 H1359 0.962 . S
C1346 H1360 0.960 . S
C1347 C1344 1.511 . S
C1347 H1361 0.961 . S
C1347 H1362 0.961 . S
C1347 H1363 0.961 . S
C1348 C1349 1.370 . S
C1348 C1350 1.363 . S
C1348 H1364 0.931 . S
C1349 C1348 1.370 . S
C1349 C1353 1.408 . S
C1350 C1348 1.363 . S
C1350 C1351 1.370 . S
C1350 C1354 1.524 . S
C1351 C1343 1.503 . S
C1351 C1350 1.370 . S
C1351 C1352 1.403 . S
C1352 C1351 1.403 . S
C1352 C1353 1.404 . S
C1352 C1355 1.539 . S
C1353 C1349 1.408 . S
C1353 C1352 1.404 . S
C1353 H1365 0.930 . S
C1354 C1350 1.524 . S
C1354 H1366 0.956 . S
C1354 H1367 0.961 . S
C1354 H1368 0.961 . S
C1355 C1352 1.539 . S
C1355 H1369 0.958 . S
C1355 H1370 0.961 . S
C1355 H1371 0.960 . S
H1356 C1340 0.931 . S
H1357 C1345 0.929 . S
H1358 C1346 0.960 . S
H1359 C1346 0.962 . S
H1360 C1346 0.960 . S
H1361 C1347 0.961 . S
H1362 C1347 0.961 . S
H1363 C1347 0.961 . S
H1364 C1348 0.931 . S
H1365 C1353 0.930 . S
H1366 C1354 0.956 . S
H1367 C1354 0.961 . S
H1368 C1354 0.961 . S
H1369 C1355 0.958 . S
H1370 C1355 0.961 . S
H1371 C1355 0.960 . S
C1372 C1373 1.391 . S
C1372 C1374 1.394 . S
C1372 H1388 0.931 . S
C1373 C1372 1.391 . S
C1373 C1377 1.376 . S
C1374 C1372 1.394 . S
C1374 C1375 1.369 . S
C1374 C1378 1.531 . S
C1375 C1374 1.369 . S
C1375 C1376 1.410 . S
C1375 C1383 1.503 . S
C1376 C1375 1.410 . S
C1376 C1377 1.392 . S
C1376 C1379 1.511 . S
C1377 C1373 1.376 . S
C1377 C1376 1.392 . S
C1377 H1389 0.929 . S
C1378 C1374 1.531 . S
C1378 H1390 0.960 . S
C1378 H1391 0.962 . S
C1378 H1392 0.960 . S
C1379 C1376 1.511 . S
C1379 H1393 0.961 . S
C1379 H1394 0.961 . S
C1379 H1395 0.961 . S
C1380 C1381 1.370 . S
C1380 C1382 1.363 . S
C1380 H1396 0.931 . S
C1381 C1380 1.370 . S
C1381 C1385 1.408 . S
C1382 C1380 1.363 . S
C1382 C1383 1.370 . S
C1382 C1386 1.524 . S
C1383 C1375 1.503 . S
C1383 C1382 1.370 . S
C1383 C1384 1.403 . S
C1384 C1383 1.403 . S
C1384 C1385 1.404 . S
C1384 C1387 1.539 . S
C1385 C1381 1.408 . S
C1385 C1384 1.404 . S
C1385 H1397 0.930 . S
C1386 C1382 1.524 . S
C1386 H1398 0.956 . S
C1386 H1399 0.961 . S
C1386 H1400 0.961 . S
C1387 C1384 1.539 . S
C1387 H1401 0.958 . S
C1387 H1402 0.961 . S
C1387 H1403 0.960 . S
H1388 C1372 0.931 . S
H1389 C1377 0.929 . S
H1390 C1378 0.960 . S
H1391 C1378 0.962 . S
H1392 C1378 0.960 . S
H1393 C1379 0.961 . S
H1394 C1379 0.961 . S
H1395 C1379 0.961 . S
H1396 C1380 0.931 . S
H1397 C1385 0.930 . S
H1398 C1386 0.956 . S
H1399 C1386 0.961 . S
H1400 C1386 0.961 . S
H1401 C1387 0.958 . S
H1402 C1387 0.961 . S
H1403 C1387 0.960 . S
C253 C146 1.152 . S
C261 C6 1.133 . S
C285 C20 1.121 . S
C293 C160 1.144 . S
C317 C132 1.119 . S
C325 C34 1.145 . S
C349 C202 1.125 . S
C357 C48 1.145 . S
C381 C62 1.153 . S
C389 C174 1.132 . S
C413 C188 1.125 . S
C421 C76 1.142 . S
C445 C90 1.139 . S
C453 C230 1.139 . S
C477 C244 1.125 . S
C485 C104 1.142 . S
C509 C118 1.149 . S
C517 C216 1.132 . S
C541 C9 1.136 . S
C549 C22 1.210 . S
C573 C23 1.211 . S
C581 C36 1.223 . S
C605 C8 1.219 . S
C613 C37 1.170 . S
C637 C78 1.229 . S
C645 C51 1.188 . S
C669 C50 1.197 . S
C677 C65 1.166 . S
C701 C79 1.148 . S
C709 C64 1.217 . S
C733 C93 1.199 . S
C741 C106 1.223 . S
C765 C107 1.148 . S
C773 C120 1.217 . S
C797 C92 1.218 . S
C805 C121 1.169 . S
C829 C162 1.216 . S
C837 C135 1.168 . S
C861 C134 1.197 . S
C869 C149 1.166 . S
C893 C148 1.222 . S
C901 C163 1.173 . S
C925 C190 1.220 . S
C933 C177 1.192 . S
C957 C204 1.198 . S
C965 C191 1.168 . S
C989 C176 1.209 . S
C997 C205 1.184 . S
C1021 C219 1.140 . S
C1029 C246 1.210 . S
C1053 C233 1.179 . S
C1061 C218 1.221 . S
C1085 C247 1.158 . S
C1093 C232 1.210 . S
C1117 C7 1.671 . S
C1125 C49 1.664 . S
C1149 C63 1.602 . S
C1157 C21 1.640 . S
C1181 C77 1.606 . S
C1189 C35 1.635 . S
C1213 C133 1.603 . S
C1221 C91 1.644 . S
C1245 C147 1.607 . S
C1253 C105 1.649 . S
C1277 C119 1.634 . S
C1285 C161 1.661 . S
C1309 C217 1.617 . S
C1317 C175 1.631 . S
C1341 C231 1.605 . S
C1349 C189 1.647 . S
C1373 C245 1.610 . S
C1381 C203 1.632 . S
