# Generated by pormake.
# Topology wgl, (5)-cn, num edge types: 1
# Building blocks:
#     Node 0, Type 0, BuildingBlock: XOMCOT_clean_sbu_1, # of connection points: 5
#     Node 1, Type 0, BuildingBlock: XOMCOT_clean_sbu_1, # of connection points: 5
#     Node 2, Type 0, BuildingBlock: XOMCOT_clean_sbu_1, # of connection points: 5
#     Node 3, Type 0, BuildingBlock: XOMCOT_clean_sbu_1, # of connection points: 5
#     Node 4, Type 0, BuildingBlock: XOMCOT_clean_sbu_1, # of connection points: 5
#     Node 5, Type 0, BuildingBlock: XOMCOT_clean_sbu_1, # of connection points: 5
#     Node 6, Type 0, BuildingBlock: XOMCOT_clean_sbu_1, # of connection points: 5
#     Node 7, Type 0, BuildingBlock: XOMCOT_clean_sbu_1, # of connection points: 5
#     Node 8, Type 0, BuildingBlock: XOMCOT_clean_sbu_1, # of connection points: 5
#     Node 9, Type 0, BuildingBlock: XOMCOT_clean_sbu_1, # of connection points: 5
#     Node 10, Type 0, BuildingBlock: XOMCOT_clean_sbu_1, # of connection points: 5
#     Node 11, Type 0, BuildingBlock: XOMCOT_clean_sbu_1, # of connection points: 5
#     Node 12, Type 0, BuildingBlock: XOMCOT_clean_sbu_1, # of connection points: 5
#     Node 13, Type 0, BuildingBlock: XOMCOT_clean_sbu_1, # of connection points: 5
#     Node 14, Type 0, BuildingBlock: XOMCOT_clean_sbu_1, # of connection points: 5
#     Node 15, Type 0, BuildingBlock: XOMCOT_clean_sbu_1, # of connection points: 5
#     Node 16, Type 0, BuildingBlock: XOMCOT_clean_sbu_1, # of connection points: 5
#     Node 17, Type 0, BuildingBlock: XOMCOT_clean_sbu_1, # of connection points: 5
#     Node 18, Type 0, BuildingBlock: XOMCOT_clean_sbu_1, # of connection points: 5
#     Node 19, Type 0, BuildingBlock: XOMCOT_clean_sbu_1, # of connection points: 5
#     Node 20, Type 0, BuildingBlock: XOMCOT_clean_sbu_1, # of connection points: 5
#     Node 21, Type 0, BuildingBlock: XOMCOT_clean_sbu_1, # of connection points: 5
#     Node 22, Type 0, BuildingBlock: XOMCOT_clean_sbu_1, # of connection points: 5
#     Node 23, Type 0, BuildingBlock: XOMCOT_clean_sbu_1, # of connection points: 5
#     Node 24, Type 0, BuildingBlock: XOMCOT_clean_sbu_1, # of connection points: 5
#     Node 25, Type 0, BuildingBlock: XOMCOT_clean_sbu_1, # of connection points: 5
#     Node 26, Type 0, BuildingBlock: XOMCOT_clean_sbu_1, # of connection points: 5
#     Node 27, Type 0, BuildingBlock: XOMCOT_clean_sbu_1, # of connection points: 5
#     Node 28, Type 0, BuildingBlock: XOMCOT_clean_sbu_1, # of connection points: 5
#     Node 29, Type 0, BuildingBlock: XOMCOT_clean_sbu_1, # of connection points: 5
#     Node 30, Type 0, BuildingBlock: XOMCOT_clean_sbu_1, # of connection points: 5
#     Node 31, Type 0, BuildingBlock: XOMCOT_clean_sbu_1, # of connection points: 5
#     Edge 32, Type (0, 0), BuildingBlock: ZUJKAS_clean_linker_0, # of connection points: 2
#     Edge 33, Type (0, 0), BuildingBlock: ZUJKAS_clean_linker_0, # of connection points: 2
#     Edge 34, Type (0, 0), BuildingBlock: ZUJKAS_clean_linker_0, # of connection points: 2
#     Edge 35, Type (0, 0), BuildingBlock: ZUJKAS_clean_linker_0, # of connection points: 2
#     Edge 36, Type (0, 0), BuildingBlock: ZUJKAS_clean_linker_0, # of connection points: 2
#     Edge 37, Type (0, 0), BuildingBlock: ZUJKAS_clean_linker_0, # of connection points: 2
#     Edge 38, Type (0, 0), BuildingBlock: ZUJKAS_clean_linker_0, # of connection points: 2
#     Edge 39, Type (0, 0), BuildingBlock: ZUJKAS_clean_linker_0, # of connection points: 2
#     Edge 40, Type (0, 0), BuildingBlock: ZUJKAS_clean_linker_0, # of connection points: 2
#     Edge 41, Type (0, 0), BuildingBlock: ZUJKAS_clean_linker_0, # of connection points: 2
#     Edge 42, Type (0, 0), BuildingBlock: ZUJKAS_clean_linker_0, # of connection points: 2
#     Edge 43, Type (0, 0), BuildingBlock: ZUJKAS_clean_linker_0, # of connection points: 2
#     Edge 44, Type (0, 0), BuildingBlock: ZUJKAS_clean_linker_0, # of connection points: 2
#     Edge 45, Type (0, 0), BuildingBlock: ZUJKAS_clean_linker_0, # of connection points: 2
#     Edge 46, Type (0, 0), BuildingBlock: ZUJKAS_clean_linker_0, # of connection points: 2
#     Edge 47, Type (0, 0), BuildingBlock: ZUJKAS_clean_linker_0, # of connection points: 2
#     Edge 48, Type (0, 0), BuildingBlock: ZUJKAS_clean_linker_0, # of connection points: 2
#     Edge 49, Type (0, 0), BuildingBlock: ZUJKAS_clean_linker_0, # of connection points: 2
#     Edge 50, Type (0, 0), BuildingBlock: ZUJKAS_clean_linker_0, # of connection points: 2
#     Edge 51, Type (0, 0), BuildingBlock: ZUJKAS_clean_linker_0, # of connection points: 2
#     Edge 52, Type (0, 0), BuildingBlock: ZUJKAS_clean_linker_0, # of connection points: 2
#     Edge 53, Type (0, 0), BuildingBlock: ZUJKAS_clean_linker_0, # of connection points: 2
#     Edge 54, Type (0, 0), BuildingBlock: ZUJKAS_clean_linker_0, # of connection points: 2
#     Edge 55, Type (0, 0), BuildingBlock: ZUJKAS_clean_linker_0, # of connection points: 2
#     Edge 56, Type (0, 0), BuildingBlock: ZUJKAS_clean_linker_0, # of connection points: 2
#     Edge 57, Type (0, 0), BuildingBlock: ZUJKAS_clean_linker_0, # of connection points: 2
#     Edge 58, Type (0, 0), BuildingBlock: ZUJKAS_clean_linker_0, # of connection points: 2
#     Edge 59, Type (0, 0), BuildingBlock: ZUJKAS_clean_linker_0, # of connection points: 2
#     Edge 60, Type (0, 0), BuildingBlock: ZUJKAS_clean_linker_0, # of connection points: 2
#     Edge 61, Type (0, 0), BuildingBlock: ZUJKAS_clean_linker_0, # of connection points: 2
#     Edge 62, Type (0, 0), BuildingBlock: ZUJKAS_clean_linker_0, # of connection points: 2
#     Edge 63, Type (0, 0), BuildingBlock: ZUJKAS_clean_linker_0, # of connection points: 2
#     Edge 64, Type (0, 0), BuildingBlock: ZUJKAS_clean_linker_0, # of connection points: 2
#     Edge 65, Type (0, 0), BuildingBlock: ZUJKAS_clean_linker_0, # of connection points: 2
#     Edge 66, Type (0, 0), BuildingBlock: ZUJKAS_clean_linker_0, # of connection points: 2
#     Edge 67, Type (0, 0), BuildingBlock: ZUJKAS_clean_linker_0, # of connection points: 2
#     Edge 68, Type (0, 0), BuildingBlock: ZUJKAS_clean_linker_0, # of connection points: 2
#     Edge 69, Type (0, 0), BuildingBlock: ZUJKAS_clean_linker_0, # of connection points: 2
#     Edge 70, Type (0, 0), BuildingBlock: ZUJKAS_clean_linker_0, # of connection points: 2
#     Edge 71, Type (0, 0), BuildingBlock: ZUJKAS_clean_linker_0, # of connection points: 2
#     Edge 72, Type (0, 0), BuildingBlock: ZUJKAS_clean_linker_0, # of connection points: 2
#     Edge 73, Type (0, 0), BuildingBlock: ZUJKAS_clean_linker_0, # of connection points: 2
#     Edge 74, Type (0, 0), BuildingBlock: ZUJKAS_clean_linker_0, # of connection points: 2
#     Edge 75, Type (0, 0), BuildingBlock: ZUJKAS_clean_linker_0, # of connection points: 2
#     Edge 76, Type (0, 0), BuildingBlock: ZUJKAS_clean_linker_0, # of connection points: 2
#     Edge 77, Type (0, 0), BuildingBlock: ZUJKAS_clean_linker_0, # of connection points: 2
#     Edge 78, Type (0, 0), BuildingBlock: ZUJKAS_clean_linker_0, # of connection points: 2
#     Edge 79, Type (0, 0), BuildingBlock: ZUJKAS_clean_linker_0, # of connection points: 2
#     Edge 80, Type (0, 0), BuildingBlock: ZUJKAS_clean_linker_0, # of connection points: 2
#     Edge 81, Type (0, 0), BuildingBlock: ZUJKAS_clean_linker_0, # of connection points: 2
#     Edge 82, Type (0, 0), BuildingBlock: ZUJKAS_clean_linker_0, # of connection points: 2
#     Edge 83, Type (0, 0), BuildingBlock: ZUJKAS_clean_linker_0, # of connection points: 2
#     Edge 84, Type (0, 0), BuildingBlock: ZUJKAS_clean_linker_0, # of connection points: 2
#     Edge 85, Type (0, 0), BuildingBlock: ZUJKAS_clean_linker_0, # of connection points: 2
#     Edge 86, Type (0, 0), BuildingBlock: ZUJKAS_clean_linker_0, # of connection points: 2
#     Edge 87, Type (0, 0), BuildingBlock: ZUJKAS_clean_linker_0, # of connection points: 2
#     Edge 88, Type (0, 0), BuildingBlock: ZUJKAS_clean_linker_0, # of connection points: 2
#     Edge 89, Type (0, 0), BuildingBlock: ZUJKAS_clean_linker_0, # of connection points: 2
#     Edge 90, Type (0, 0), BuildingBlock: ZUJKAS_clean_linker_0, # of connection points: 2
#     Edge 91, Type (0, 0), BuildingBlock: ZUJKAS_clean_linker_0, # of connection points: 2
#     Edge 92, Type (0, 0), BuildingBlock: ZUJKAS_clean_linker_0, # of connection points: 2
#     Edge 93, Type (0, 0), BuildingBlock: ZUJKAS_clean_linker_0, # of connection points: 2
#     Edge 94, Type (0, 0), BuildingBlock: ZUJKAS_clean_linker_0, # of connection points: 2
#     Edge 95, Type (0, 0), BuildingBlock: ZUJKAS_clean_linker_0, # of connection points: 2
#     Edge 96, Type (0, 0), BuildingBlock: ZUJKAS_clean_linker_0, # of connection points: 2
#     Edge 97, Type (0, 0), BuildingBlock: ZUJKAS_clean_linker_0, # of connection points: 2
#     Edge 98, Type (0, 0), BuildingBlock: ZUJKAS_clean_linker_0, # of connection points: 2
#     Edge 99, Type (0, 0), BuildingBlock: ZUJKAS_clean_linker_0, # of connection points: 2
#     Edge 100, Type (0, 0), BuildingBlock: ZUJKAS_clean_linker_0, # of connection points: 2
#     Edge 101, Type (0, 0), BuildingBlock: ZUJKAS_clean_linker_0, # of connection points: 2
#     Edge 102, Type (0, 0), BuildingBlock: ZUJKAS_clean_linker_0, # of connection points: 2
#     Edge 103, Type (0, 0), BuildingBlock: ZUJKAS_clean_linker_0, # of connection points: 2
#     Edge 104, Type (0, 0), BuildingBlock: ZUJKAS_clean_linker_0, # of connection points: 2
#     Edge 105, Type (0, 0), BuildingBlock: ZUJKAS_clean_linker_0, # of connection points: 2
#     Edge 106, Type (0, 0), BuildingBlock: ZUJKAS_clean_linker_0, # of connection points: 2
#     Edge 107, Type (0, 0), BuildingBlock: ZUJKAS_clean_linker_0, # of connection points: 2
#     Edge 108, Type (0, 0), BuildingBlock: ZUJKAS_clean_linker_0, # of connection points: 2
#     Edge 109, Type (0, 0), BuildingBlock: ZUJKAS_clean_linker_0, # of connection points: 2
#     Edge 110, Type (0, 0), BuildingBlock: ZUJKAS_clean_linker_0, # of connection points: 2
#     Edge 111, Type (0, 0), BuildingBlock: ZUJKAS_clean_linker_0, # of connection points: 2
# Relax obj value: 0.054
# Max RMSD: 0.094
# Mean RMSD: 0.094
data_MOF--net-wgl--node1-XOMCOT_clean_sbu_1--edge1-ZUJKAS_clean_linker_0
_symmetry_space_group_name_H-M    P1
_symmetry_Int_Tables_number       1
_symmetry_cell_setting            triclinic
loop_
_symmetry_equiv_pos_as_xyz
'x, y, z'
_cell_length_a     71.591613
_cell_length_b     71.598978
_cell_length_c     67.682164
_cell_angle_alpha  90.023565
_cell_angle_beta   89.97799
_cell_angle_gamma 89.947489
loop_
_atom_site_label
_atom_site_type_symbol
_atom_site_fract_x
_atom_site_fract_y
_atom_site_fract_z
_atom_type_partial_charge
C0 C 0.28972 0.36439 0.17 0.0
C1 C 0.27519 0.37682 0.17042 0.0
N2 N 0.26272 0.37175 0.15656 0.0
N3 N 0.2866 0.35143 0.15592 0.0
C4 C 0.26998 0.35633 0.14783 0.0
H5 H 0.30162 0.36451 0.17981 0.0
Co6 Co 0.30249 0.3309 0.15298 0.0
C7 C 0.30006 0.31878 0.11077 0.0
O8 O 0.31756 0.31347 0.11176 0.0
N9 N 0.31908 0.30981 0.15115 0.0
C10 C 0.34461 0.29199 0.1489 0.0
C11 C 0.33761 0.30969 0.14696 0.0
C12 C 0.31534 0.29166 0.15551 0.0
N13 N 0.33066 0.28062 0.15448 0.0
O14 O 0.28397 0.31526 0.16521 0.0
H15 H 0.34582 0.32148 0.14224 0.0
H16 H 0.30176 0.28657 0.15989 0.0
O17 O 0.29224 0.32601 0.12604 0.0
C18 C 0.28651 0.31644 0.18386 0.0
O19 O 0.29968 0.32767 0.19031 0.0
N20 N 0.32108 0.34706 0.14358 0.0
C21 C 0.35306 0.36808 0.13635 0.0
C22 C 0.33983 0.36523 0.12132 0.0
C23 C 0.32365 0.35481 0.12533 0.0
C24 C 0.33287 0.35135 0.15871 0.0
C25 C 0.34898 0.36166 0.15541 0.0
H26 H 0.31353 0.3528 0.11373 0.0
H27 H 0.33025 0.34571 0.17327 0.0
H28 H 0.26301 0.34841 0.13639 0.0
H29 H 0.27382 0.38865 0.18028 0.0
H30 H 0.35892 0.28784 0.1462 0.0
H31 H 0.34224 0.37043 0.10651 0.0
H32 H 0.35846 0.36412 0.16761 0.0
C33 C 0.90359 0.03168 0.44316 0.0
C34 C 0.89188 0.01657 0.44265 0.0
N35 N 0.89106 0.01027 0.42394 0.0
N36 N 0.91037 0.03492 0.42491 0.0
C37 C 0.90229 0.02174 0.41335 0.0
H38 H 0.90695 0.03985 0.4561 0.0
Co39 Co 0.92745 0.05405 0.42045 0.0
C40 C 0.94143 0.05066 0.37882 0.0
O41 O 0.94429 0.06877 0.37878 0.0
N42 N 0.94496 0.07367 0.41709 0.0
C43 C 0.95924 0.10127 0.41588 0.0
C44 C 0.94228 0.09237 0.41717 0.0
C45 C 0.96376 0.07167 0.41595 0.0
N46 N 0.97276 0.08822 0.41519 0.0
O47 O 0.94632 0.03988 0.43457 0.0
H48 H 0.92899 0.09935 0.41846 0.0
H49 H 0.97074 0.05827 0.41554 0.0
O50 O 0.93462 0.04282 0.39433 0.0
C51 C 0.94763 0.04698 0.45187 0.0
O52 O 0.93662 0.06111 0.45624 0.0
N53 N 0.90819 0.06856 0.40932 0.0
C54 C 0.88228 0.09623 0.39969 0.0
C55 C 0.88974 0.08453 0.38499 0.0
C56 C 0.90241 0.07043 0.39018 0.0
C57 C 0.89962 0.0785 0.42391 0.0
C58 C 0.88677 0.09251 0.41945 0.0
H59 H 0.90762 0.06144 0.3787 0.0
H60 H 0.90382 0.0764 0.4391 0.0
H61 H 0.90474 0.02041 0.39764 0.0
H62 H 0.88428 0.01081 0.45507 0.0
H63 H 0.96145 0.11622 0.41606 0.0
H64 H 0.88608 0.0865 0.36961 0.0
H65 H 0.88132 0.10108 0.43132 0.0
C66 C 0.22692 0.6528 0.67165 0.0
C67 C 0.24004 0.63882 0.67274 0.0
N68 N 0.25212 0.64088 0.65763 0.0
N69 N 0.23066 0.66377 0.65598 0.0
C70 C 0.2461 0.65614 0.64767 0.0
H71 H 0.21512 0.65459 0.68145 0.0
Co72 Co 0.21582 0.68399 0.64832 0.0
C73 C 0.23666 0.6997 0.6146 0.0
O74 O 0.23678 0.71601 0.62351 0.0
N75 N 0.20058 0.7042 0.64057 0.0
C76 C 0.1826 0.72266 0.6222 0.0
C77 C 0.1927 0.70636 0.62259 0.0
C78 C 0.19493 0.71941 0.65089 0.0
N79 N 0.18402 0.7309 0.64001 0.0
O80 O 0.23266 0.70087 0.66185 0.0
H81 H 0.19441 0.69684 0.61033 0.0
H82 H 0.19854 0.72205 0.66612 0.0
O83 O 0.22928 0.68569 0.62324 0.0
C84 C 0.22679 0.70159 0.6797 0.0
O85 O 0.21215 0.69144 0.68435 0.0
N86 N 0.19846 0.66739 0.63772 0.0
C87 C 0.16909 0.64354 0.6284 0.0
C88 C 0.18337 0.64692 0.61462 0.0
C89 C 0.19823 0.65876 0.61971 0.0
C90 C 0.18468 0.66423 0.65114 0.0
C91 C 0.16996 0.65227 0.64687 0.0
H92 H 0.20928 0.66112 0.60914 0.0
H93 H 0.18515 0.67118 0.66532 0.0
H94 H 0.25279 0.66159 0.63456 0.0
H95 H 0.24025 0.62763 0.68349 0.0
H96 H 0.17519 0.72824 0.60957 0.0
H97 H 0.18308 0.64038 0.60019 0.0
H98 H 0.15909 0.65018 0.65779 0.0
C99 C 0.61389 0.98703 0.92887 0.0
C100 C 0.62618 1.00166 0.92851 0.0
N101 N 0.62533 0.00975 0.91058 0.0
N102 N 0.60516 0.98574 0.91129 0.0
C103 C 0.61255 0.99973 0.90028 0.0
H104 H 0.61147 0.97787 0.94128 0.0
Co105 Co 0.58671 0.96775 0.90727 0.0
C106 C 0.57301 0.97116 0.86546 0.0
O107 O 0.56802 0.95354 0.86609 0.0
N108 N 0.56786 0.94925 0.90446 0.0
C109 C 0.55222 0.92238 0.90401 0.0
C110 C 0.56961 0.93045 0.90438 0.0
C111 C 0.54913 0.95215 0.90419 0.0
N112 N 0.53929 0.93604 0.90402 0.0
O113 O 0.56889 0.98363 0.92085 0.0
H114 H 0.58258 0.9228 0.90481 0.0
H115 H 0.54282 0.96587 0.90459 0.0
O116 O 0.58063 0.97867 0.88073 0.0
C117 C 0.56809 0.97743 0.93858 0.0
O118 O 0.57856 0.96295 0.94306 0.0
N119 N 0.60494 0.95153 0.89686 0.0
C120 C 0.62899 0.92164 0.88945 0.0
C121 C 0.62227 0.93271 0.87384 0.0
C122 C 0.61038 0.94785 0.87788 0.0
C123 C 0.61288 0.94209 0.91217 0.0
C124 C 0.62486 0.92712 0.90884 0.0
H125 H 0.60538 0.95609 0.8657 0.0
H126 H 0.6089 0.94547 0.92716 0.0
H127 H 0.60845 1.00274 0.88523 0.0
H128 H 0.63525 1.0059 0.94049 0.0
H129 H 0.5494 0.90754 0.90379 0.0
H130 H 0.62547 0.92923 0.85864 0.0
H131 H 0.63025 0.91944 0.92139 0.0
C132 C 0.29546 0.65154 0.35112 0.0
C133 C 0.28297 0.63721 0.34836 0.0
N134 N 0.2679 0.64041 0.3598 0.0
N135 N 0.28833 0.66382 0.36421 0.0
C136 C 0.27151 0.65665 0.36929 0.0
H137 H 0.30892 0.65295 0.34403 0.0
Co138 Co 0.3002 0.68577 0.37221 0.0
C139 C 0.27705 0.6984 0.40559 0.0
O140 O 0.27458 0.71433 0.39631 0.0
N141 N 0.31222 0.70774 0.3804 0.0
C142 C 0.32625 0.72853 0.39973 0.0
C143 C 0.31995 0.71049 0.39837 0.0
C144 C 0.31426 0.72428 0.37098 0.0
N145 N 0.3226 0.73724 0.38253 0.0
O146 O 0.28146 0.70038 0.35856 0.0
H147 H 0.32053 0.70016 0.41 0.0
H148 H 0.30918 0.72702 0.35623 0.0
O149 O 0.28638 0.68541 0.39721 0.0
C150 C 0.28588 0.70016 0.34024 0.0
O151 O 0.30072 0.69058 0.33491 0.0
N152 N 0.31955 0.67159 0.38298 0.0
C153 C 0.35133 0.65091 0.3924 0.0
C154 C 0.33522 0.6498 0.40425 0.0
C155 C 0.31927 0.66017 0.39913 0.0
C156 C 0.33508 0.6729 0.37149 0.0
C157 C 0.35109 0.66275 0.37592 0.0
H158 H 0.30674 0.65881 0.40792 0.0
H159 H 0.3349 0.68185 0.35861 0.0
H160 H 0.26201 0.66332 0.37954 0.0
H161 H 0.28501 0.62517 0.33892 0.0
H162 H 0.33293 0.73478 0.41246 0.0
H163 H 0.33484 0.64071 0.41703 0.0
H164 H 0.36325 0.66426 0.36653 0.0
C165 C 0.61702 0.03648 0.60584 0.0
C166 C 0.62852 0.02122 0.60519 0.0
N167 N 0.62537 0.0108 0.6214 0.0
N168 N 0.60657 0.0359 0.62239 0.0
C169 C 0.61203 0.02006 0.63173 0.0
H170 H 0.61614 0.04724 0.59469 0.0
Co171 Co 0.58817 0.0539 0.62675 0.0
C172 C 0.57503 0.05053 0.6687 0.0
O173 O 0.57042 0.06826 0.66824 0.0
N174 N 0.56934 0.07255 0.62987 0.0
C175 C 0.55413 0.09963 0.63263 0.0
C176 C 0.57135 0.09124 0.63212 0.0
C177 C 0.55055 0.0701 0.62892 0.0
N178 N 0.54104 0.08634 0.63053 0.0
O179 O 0.5703 0.03802 0.61352 0.0
H180 H 0.58438 0.09867 0.63332 0.0
H181 H 0.54388 0.05666 0.62716 0.0
O182 O 0.58234 0.04292 0.6533 0.0
C183 C 0.56993 0.04337 0.59549 0.0
O184 O 0.58071 0.05742 0.59042 0.0
N185 N 0.60654 0.06999 0.63701 0.0
C186 C 0.63075 0.09953 0.64501 0.0
C187 C 0.6249 0.08752 0.66022 0.0
C188 C 0.61292 0.07255 0.65585 0.0
C189 C 0.61364 0.08036 0.62191 0.0
C190 C 0.62568 0.09518 0.62556 0.0
H191 H 0.60859 0.06351 0.6677 0.0
H192 H 0.60887 0.07792 0.607 0.0
H193 H 0.60603 0.01512 0.64543 0.0
H194 H 0.63852 0.01806 0.59366 0.0
H195 H 0.55147 0.11447 0.63388 0.0
H196 H 0.62886 0.09011 0.67541 0.0
H197 H 0.63037 0.10364 0.61325 0.0
C198 C 0.24057 0.35598 0.85346 0.0
C199 C 0.25474 0.36857 0.85617 0.0
N200 N 0.25845 0.3697 0.87562 0.0
N201 N 0.23529 0.34896 0.87107 0.0
C202 C 0.24631 0.3578 0.88442 0.0
H203 H 0.23439 0.35237 0.83942 0.0
Co204 Co 0.21643 0.33098 0.87344 0.0
C205 C 0.22094 0.3133 0.91404 0.0
O206 O 0.20472 0.30491 0.91259 0.0
N207 N 0.19724 0.31283 0.87462 0.0
C208 C 0.16965 0.29861 0.87289 0.0
C209 C 0.17859 0.31558 0.87357 0.0
C210 C 0.19921 0.29401 0.87399 0.0
N211 N 0.18264 0.28501 0.87318 0.0
O212 O 0.23194 0.31327 0.85929 0.0
H213 H 0.17177 0.32903 0.87289 0.0
H214 H 0.21262 0.28704 0.87404 0.0
O215 O 0.22683 0.3235 0.89973 0.0
C216 C 0.22642 0.31337 0.84131 0.0
O217 O 0.21245 0.32444 0.83659 0.0
N218 N 0.20056 0.34904 0.88478 0.0
C219 C 0.16986 0.37213 0.89226 0.0
C220 C 0.17746 0.36091 0.90729 0.0
C221 C 0.19293 0.3495 0.90328 0.0
C222 C 0.19435 0.361 0.87057 0.0
C223 C 0.17918 0.37276 0.87403 0.0
H224 H 0.19772 0.34033 0.91474 0.0
H225 H 0.20037 0.36046 0.85593 0.0
H226 H 0.24556 0.35549 0.90018 0.0
H227 H 0.26154 0.37657 0.84467 0.0
H228 H 0.15469 0.29653 0.87229 0.0
H229 H 0.17081 0.35995 0.92162 0.0
H230 H 0.17422 0.38156 0.86213 0.0
C231 C 0.90412 0.98355 0.11954 0.0
C232 C 0.89039 0.99684 0.12 0.0
N233 N 0.8908 1.00536 0.13774 0.0
N234 N 0.91342 0.98357 0.13683 0.0
C235 C 0.90502 0.9971 0.14772 0.0
H236 H 0.90696 0.9742 0.10737 0.0
Co237 Co 0.93245 0.9662 0.14107 0.0
C238 C 0.94562 0.97012 0.18283 0.0
O239 O 0.95053 0.95247 0.18244 0.0
N240 N 0.95192 0.94801 0.14412 0.0
C241 C 0.9676 0.92117 0.14644 0.0
C242 C 0.95031 0.92939 0.14719 0.0
C243 C 0.97059 0.95058 0.14171 0.0
N244 N 0.98041 0.93445 0.14276 0.0
O245 O 0.94973 0.98249 0.12751 0.0
H246 H 0.93751 0.92191 0.14987 0.0
H247 H 0.97689 0.96397 0.13857 0.0
O248 O 0.93821 0.97754 0.16741 0.0
C249 C 0.95059 0.97679 0.10962 0.0
O250 O 0.94066 0.96205 0.10477 0.0
N251 N 0.9146 0.94984 0.15165 0.0
C252 C 0.88893 0.92161 0.1602 0.0
C253 C 0.89485 0.93408 0.17499 0.0
C254 C 0.90751 0.94838 0.17033 0.0
C255 C 0.90788 0.93879 0.13689 0.0
C256 C 0.89531 0.92448 0.14084 0.0
H257 H 0.91148 0.95806 0.18176 0.0
H258 H 0.91316 0.94052 0.12203 0.0
H259 H 0.90889 1.00048 0.16274 0.0
H260 H 0.88086 1.00003 0.10805 0.0
H261 H 0.97041 0.90643 0.1484 0.0
H262 H 0.88982 0.93277 0.19001 0.0
H263 H 0.89133 0.91524 0.1289 0.0
C264 C 0.72263 0.65057 0.85931 0.0
C265 C 0.73556 0.63651 0.85879 0.0
N266 N 0.74737 0.6387 0.8741 0.0
N267 N 0.72607 0.66182 0.87482 0.0
C268 C 0.74136 0.65431 0.88361 0.0
H269 H 0.71142 0.65254 0.84883 0.0
Co270 Co 0.71083 0.68259 0.87906 0.0
C271 C 0.71695 0.69618 0.92038 0.0
O272 O 0.69984 0.70274 0.92017 0.0
N273 N 0.69479 0.70384 0.88199 0.0
C274 C 0.66977 0.72225 0.88474 0.0
C275 C 0.67616 0.70423 0.88547 0.0
C276 C 0.69926 0.72212 0.87931 0.0
N277 N 0.68425 0.73354 0.88069 0.0
O278 O 0.72843 0.69788 0.86468 0.0
H279 H 0.66741 0.69238 0.88864 0.0
H280 H 0.71318 0.72699 0.87594 0.0
O281 O 0.72336 0.68779 0.90499 0.0
C282 C 0.72331 0.69805 0.84658 0.0
O283 O 0.70833 0.6885 0.84173 0.0
N284 N 0.69298 0.66673 0.89072 0.0
C285 C 0.66206 0.64555 0.90198 0.0
C286 C 0.67619 0.64978 0.91568 0.0
C287 C 0.69178 0.66019 0.90965 0.0
C288 C 0.68037 0.66106 0.87688 0.0
C289 C 0.66474 0.65068 0.8822 0.0
H290 H 0.70257 0.66304 0.92031 0.0
H291 H 0.68189 0.66568 0.86176 0.0
H292 H 0.74787 0.66007 0.89667 0.0
H293 H 0.73638 0.62572 0.84762 0.0
H294 H 0.65549 0.72666 0.88716 0.0
H295 H 0.67492 0.64564 0.93101 0.0
H296 H 0.65456 0.64714 0.87097 0.0
C297 C 0.11585 0.97193 0.62727 0.0
C298 C 0.12992 0.98474 0.62475 0.0
N299 N 0.124 1.00136 0.63163 0.0
N300 N 0.10105 0.98029 0.63595 0.0
C301 C 0.10633 0.99837 0.63793 0.0
H302 H 0.11656 0.95742 0.62303 0.0
Co303 Co 0.07777 0.96945 0.64252 0.0
C304 C 0.09006 0.98763 0.68065 0.0
O305 O 0.10773 0.98453 0.67652 0.0
N306 N 0.05471 0.95892 0.64874 0.0
C307 C 0.03083 0.9474 0.66573 0.0
C308 C 0.04891 0.95363 0.66687 0.0
C309 C 0.03998 0.95555 0.63676 0.0
N310 N 0.02517 0.94869 0.6468 0.0
O311 O 0.06508 0.98983 0.6295 0.0
H312 H 0.05722 0.95438 0.68017 0.0
H313 H 0.03994 0.95851 0.62109 0.0
O314 O 0.07739 0.98246 0.66843 0.0
C315 C 0.06631 0.987 0.61088 0.0
O316 O 0.07623 0.97269 0.60471 0.0
N317 N 0.08959 0.94797 0.65268 0.0
C318 C 0.10443 0.91239 0.6594 0.0
C319 C 0.10296 0.92538 0.67489 0.0
C320 C 0.09519 0.94307 0.6713 0.0
C321 C 0.09053 0.93531 0.63771 0.0
C322 C 0.09805 0.91761 0.64064 0.0
H323 H 0.09321 0.95227 0.68367 0.0
H324 H 0.08546 0.93912 0.62321 0.0
H325 H 0.09748 0.00906 0.64431 0.0
H326 H 0.14371 0.98187 0.61891 0.0
H327 H 0.02251 0.94224 0.67792 0.0
H328 H 0.10728 0.92173 0.68972 0.0
H329 H 0.09899 0.90815 0.62818 0.0
C330 C 0.7889 0.36563 0.35618 0.0
C331 C 0.77593 0.37967 0.35642 0.0
N332 N 0.7667 0.37907 0.37375 0.0
N333 N 0.78798 0.35594 0.3732 0.0
C334 C 0.77424 0.36443 0.3837 0.0
H335 H 0.7986 0.36279 0.34432 0.0
Co336 Co 0.80447 0.33616 0.37761 0.0
C337 C 0.80069 0.32434 0.41958 0.0
O338 O 0.81862 0.32043 0.4193 0.0
N339 N 0.82148 0.31592 0.38085 0.0
C340 C 0.84692 0.29796 0.38075 0.0
C341 C 0.84036 0.31595 0.37985 0.0
C342 C 0.81702 0.29755 0.38241 0.0
N343 N 0.83223 0.28636 0.38224 0.0
O344 O 0.78758 0.31943 0.36403 0.0
H345 H 0.84913 0.32804 0.37821 0.0
H346 H 0.80282 0.29243 0.38302 0.0
O347 O 0.79291 0.33094 0.40395 0.0
C348 C 0.79333 0.31865 0.34615 0.0
O349 O 0.80826 0.32834 0.34144 0.0
N350 N 0.82169 0.35337 0.38815 0.0
C351 C 0.851 0.37792 0.39646 0.0
C352 C 0.83796 0.3731 0.41115 0.0
C353 C 0.82309 0.36107 0.40657 0.0
C354 C 0.83314 0.35935 0.37339 0.0
C355 C 0.84804 0.37124 0.37724 0.0
H356 H 0.81288 0.35814 0.41785 0.0
H357 H 0.83131 0.3539 0.35862 0.0
H358 H 0.77014 0.36025 0.39843 0.0
H359 H 0.77342 0.38948 0.34455 0.0
H360 H 0.86144 0.29376 0.3802 0.0
H361 H 0.83922 0.37854 0.42602 0.0
H362 H 0.85761 0.37443 0.36533 0.0
C363 C 0.402 0.04512 0.11004 0.0
C364 C 0.3879 0.0322 0.10825 0.0
N365 N 0.39141 0.01797 0.12076 0.0
N366 N 0.41445 0.0391 0.12353 0.0
C367 C 0.40763 0.02251 0.12984 0.0
H368 H 0.40298 0.05827 0.10223 0.0
Co369 Co 0.43568 0.05239 0.13121 0.0
C370 C 0.45141 0.02972 0.16343 0.0
O371 O 0.4674 0.02929 0.15391 0.0
N372 N 0.45704 0.0659 0.13904 0.0
C373 C 0.47705 0.08168 0.15779 0.0
C374 C 0.45991 0.07313 0.15722 0.0
C375 C 0.47265 0.07038 0.12878 0.0
N376 N 0.4851 0.07995 0.13989 0.0
O377 O 0.45112 0.03533 0.1162 0.0
H378 H 0.45023 0.07201 0.16943 0.0
H379 H 0.47485 0.0668 0.11345 0.0
O380 O 0.43736 0.03779 0.15554 0.0
C381 C 0.45083 0.04132 0.0984 0.0
O382 O 0.4409 0.05636 0.09466 0.0
N383 N 0.42042 0.07004 0.14358 0.0
C384 C 0.39805 0.09919 0.15709 0.0
C385 C 0.39637 0.08126 0.16531 0.0
C386 C 0.40784 0.06676 0.15835 0.0
C387 C 0.42171 0.08721 0.13507 0.0
C388 C 0.4109 0.10204 0.1418 0.0
H389 H 0.40639 0.05292 0.16454 0.0
H390 H 0.43126 0.08937 0.12289 0.0
H391 H 0.41439 0.01392 0.14086 0.0
H392 H 0.37571 0.03347 0.0989 0.0
H393 H 0.48326 0.08822 0.17061 0.0
H394 H 0.3864 0.07854 0.17699 0.0
H395 H 0.4123 0.11558 0.13481 0.0
C396 C 0.72633 0.37119 0.67216 0.0
C397 C 0.74098 0.38346 0.67248 0.0
N398 N 0.75395 0.37753 0.65949 0.0
N399 N 0.72982 0.35752 0.65896 0.0
C400 C 0.74682 0.36177 0.65138 0.0
H401 H 0.71404 0.37196 0.6814 0.0
Co402 Co 0.71379 0.33716 0.65611 0.0
C403 C 0.71856 0.32231 0.61511 0.0
O404 O 0.70123 0.31639 0.61577 0.0
N405 N 0.69722 0.31633 0.65442 0.0
C406 C 0.67199 0.29812 0.65326 0.0
C407 C 0.67844 0.3161 0.65207 0.0
C408 C 0.70172 0.29804 0.65689 0.0
N409 N 0.68662 0.28673 0.65645 0.0
O410 O 0.73122 0.32186 0.67059 0.0
H411 H 0.66963 0.32803 0.6494 0.0
H412 H 0.71579 0.29307 0.65934 0.0
O413 O 0.72551 0.33074 0.63018 0.0
C414 C 0.72733 0.32351 0.68894 0.0
O415 O 0.71389 0.33507 0.694 0.0
N416 N 0.69611 0.35314 0.6443 0.0
C417 C 0.66692 0.37692 0.63343 0.0
C418 C 0.68033 0.37126 0.6195 0.0
C419 C 0.69513 0.35965 0.62534 0.0
C420 C 0.68385 0.35946 0.65819 0.0
C421 C 0.66908 0.37113 0.65307 0.0
H422 H 0.7057 0.35616 0.61462 0.0
H423 H 0.68512 0.35467 0.67328 0.0
H424 H 0.75409 0.35317 0.6407 0.0
H425 H 0.74201 0.39582 0.68162 0.0
H426 H 0.65759 0.29379 0.65169 0.0
H427 H 0.67949 0.3759 0.6043 0.0
H428 H 0.65908 0.37505 0.66435 0.0
C429 C 0.403 0.98031 0.42896 0.0
C430 C 0.39078 0.99504 0.42949 0.0
N431 N 0.39392 1.00586 0.41357 0.0
N432 N 0.41394 0.98174 0.41284 0.0
C433 C 0.408 0.99743 0.40357 0.0
H434 H 0.40391 0.96919 0.43972 0.0
Co435 Co 0.43281 0.96442 0.40826 0.0
C436 C 0.44387 0.96754 0.36622 0.0
O437 O 0.44635 0.94938 0.36654 0.0
N438 N 0.45233 0.94648 0.4047 0.0
C439 C 0.46911 0.92041 0.40109 0.0
C440 C 0.45142 0.92769 0.40239 0.0
C441 C 0.47095 0.95008 0.40486 0.0
N442 N 0.48138 0.93449 0.40274 0.0
O443 O 0.45014 0.98041 0.4221 0.0
H444 H 0.43891 0.91944 0.40145 0.0
H445 H 0.47685 0.96391 0.40638 0.0
O446 O 0.43867 0.97599 0.38205 0.0
C447 C 0.45044 0.97474 0.44001 0.0
O448 O 0.43988 0.9604 0.44468 0.0
N449 N 0.41478 0.9483 0.39729 0.0
C450 C 0.38897 0.92089 0.38661 0.0
C451 C 0.39355 0.93536 0.37347 0.0
C452 C 0.40611 0.9493 0.37932 0.0
C453 C 0.40892 0.93556 0.41089 0.0
C454 C 0.39638 0.92152 0.40578 0.0
H455 H 0.40869 0.96077 0.36939 0.0
H456 H 0.41494 0.93569 0.42555 0.0
H457 H 0.41405 1.00276 0.39005 0.0
H458 H 0.38018 0.99746 0.44062 0.0
H459 H 0.47267 0.90578 0.39953 0.0
H460 H 0.38744 0.93593 0.35884 0.0
H461 H 0.39317 0.91082 0.41656 0.0
C462 C 0.79651 0.6512 0.1774 0.0
C463 C 0.78318 0.6376 0.17891 0.0
N464 N 0.77054 0.64012 0.1644 0.0
N465 N 0.79245 0.66246 0.16207 0.0
C466 C 0.77646 0.65544 0.15439 0.0
H467 H 0.80843 0.6529 0.18703 0.0
Co468 Co 0.80779 0.68272 0.15644 0.0
C469 C 0.80238 0.69253 0.11422 0.0
O470 O 0.82041 0.69566 0.11359 0.0
N471 N 0.82393 0.70368 0.15185 0.0
C472 C 0.84853 0.72208 0.14616 0.0
C473 C 0.84228 0.704 0.14687 0.0
C474 C 0.81955 0.72203 0.15414 0.0
N475 N 0.83426 0.73341 0.15085 0.0
O476 O 0.79062 0.69881 0.1704 0.0
H477 H 0.85086 0.69206 0.14347 0.0
H478 H 0.80584 0.7271 0.15814 0.0
O479 O 0.79494 0.68699 0.1305 0.0
C480 C 0.79608 0.69927 0.18838 0.0
O481 O 0.81112 0.68973 0.1931 0.0
N482 N 0.82511 0.66592 0.14545 0.0
C483 C 0.85297 0.64013 0.13581 0.0
C484 C 0.83785 0.64325 0.12298 0.0
C485 C 0.82376 0.65591 0.12831 0.0
C486 C 0.8389 0.66197 0.15866 0.0
C487 C 0.85314 0.6495 0.15402 0.0
H488 H 0.81176 0.65734 0.1188 0.0
H489 H 0.83916 0.66916 0.17272 0.0
H490 H 0.7694 0.66136 0.14172 0.0
H491 H 0.78271 0.6269 0.19018 0.0
H492 H 0.86266 0.72651 0.14292 0.0
H493 H 0.83677 0.63577 0.10912 0.0
H494 H 0.86444 0.64763 0.16446 0.0
C495 C 0.11454 0.03171 0.94286 0.0
C496 C 0.12758 0.01769 0.94258 0.0
N497 N 0.12767 0.00986 0.92446 0.0
N498 N 0.10634 0.03295 0.92501 0.0
C499 C 0.11467 0.01949 0.91403 0.0
H500 H 0.11139 0.04065 0.9553 0.0
Co501 Co 0.08766 0.05044 0.91962 0.0
C502 C 0.0699 0.02596 0.88831 0.0
O503 O 0.05707 0.0188 0.89992 0.0
N504 N 0.06894 0.06814 0.91492 0.0
C505 C 0.05367 0.09514 0.9155 0.0
C506 C 0.07078 0.08671 0.91764 0.0
C507 C 0.05054 0.06559 0.91132 0.0
N508 N 0.04088 0.08183 0.91168 0.0
O509 O 0.07031 0.03599 0.93514 0.0
H510 H 0.08362 0.09366 0.92169 0.0
H511 H 0.04415 0.05201 0.90971 0.0
O512 O 0.08163 0.03768 0.89515 0.0
C513 C 0.06914 0.04335 0.9523 0.0
O514 O 0.07909 0.05841 0.95585 0.0
N515 N 0.10492 0.0655 0.90612 0.0
C516 C 0.12647 0.09501 0.89172 0.0
C517 C 0.1136 0.08582 0.87944 0.0
C518 C 0.10286 0.07114 0.88695 0.0
C519 C 0.11804 0.07358 0.91792 0.0
C520 C 0.12902 0.08827 0.911 0.0
H521 H 0.09198 0.06534 0.87776 0.0
H522 H 0.11904 0.06956 0.93327 0.0
H523 H 0.11117 0.01671 0.89876 0.0
H524 H 0.13657 0.01387 0.95478 0.0
H525 H 0.05084 0.10991 0.9171 0.0
H526 H 0.11121 0.09049 0.86444 0.0
H527 H 0.13847 0.09512 0.92118 0.0
C528 C 0.78805 0.86376 0.67482 0.0
C529 C 0.77359 0.87628 0.67524 0.0
N530 N 0.76151 0.87187 0.66073 0.0
N531 N 0.78532 0.85142 0.66007 0.0
C532 C 0.76899 0.85673 0.65162 0.0
H533 H 0.7998 0.86355 0.68483 0.0
Co534 Co 0.80191 0.83168 0.65636 0.0
C535 C 0.79703 0.81725 0.61525 0.0
O536 O 0.81464 0.81217 0.6155 0.0
N537 N 0.81914 0.81149 0.65389 0.0
C538 C 0.84495 0.79413 0.65225 0.0
C539 C 0.83795 0.81195 0.65193 0.0
C540 C 0.81518 0.79299 0.6553 0.0
N541 N 0.83065 0.78216 0.65451 0.0
O542 O 0.7853 0.81555 0.67098 0.0
H543 H 0.84642 0.82426 0.65024 0.0
H544 H 0.80123 0.78754 0.65724 0.0
O545 O 0.78992 0.82521 0.63055 0.0
C546 C 0.79025 0.81609 0.68912 0.0
O547 O 0.80436 0.82691 0.69392 0.0
N548 N 0.81873 0.84847 0.64439 0.0
C549 C 0.8468 0.87333 0.63309 0.0
C550 C 0.8334 0.86724 0.61938 0.0
C551 C 0.81914 0.8551 0.62546 0.0
C552 C 0.83087 0.85529 0.65811 0.0
C553 C 0.84511 0.86751 0.65277 0.0
H554 H 0.80854 0.85133 0.61491 0.0
H555 H 0.82998 0.85046 0.67321 0.0
H556 H 0.76251 0.84943 0.63943 0.0
H557 H 0.77221 0.88789 0.68538 0.0
H558 H 0.85952 0.79033 0.65076 0.0
H559 H 0.83385 0.87193 0.60418 0.0
H560 H 0.8551 0.8718 0.66388 0.0
C561 C 0.39445 0.54359 0.93548 0.0
C562 C 0.38026 0.53083 0.93762 0.0
N563 N 0.38434 0.51565 0.92663 0.0
N564 N 0.40747 0.53658 0.92317 0.0
C565 C 0.40098 0.51953 0.91803 0.0
H566 H 0.39516 0.55723 0.94231 0.0
Co567 Co 0.42924 0.54903 0.91563 0.0
C568 C 0.44266 0.52609 0.88236 0.0
O569 O 0.45852 0.52354 0.89175 0.0
N570 N 0.45104 0.56164 0.90792 0.0
C571 C 0.47119 0.57771 0.88965 0.0
C572 C 0.45391 0.56947 0.89002 0.0
C573 C 0.46684 0.5653 0.91818 0.0
N574 N 0.47934 0.57508 0.90736 0.0
O575 O 0.44403 0.5306 0.92927 0.0
H576 H 0.44404 0.56916 0.87793 0.0
H577 H 0.46909 0.56114 0.93335 0.0
O578 O 0.42961 0.5354 0.89065 0.0
C579 C 0.44368 0.53509 0.94755 0.0
O580 O 0.43385 0.54982 0.95272 0.0
N581 N 0.41476 0.56803 0.90463 0.0
C582 C 0.39332 0.59903 0.89422 0.0
C583 C 0.39196 0.58229 0.88344 0.0
C584 C 0.40273 0.56678 0.88904 0.0
C585 C 0.41622 0.58413 0.9152 0.0
C586 C 0.40577 0.5998 0.91019 0.0
H587 H 0.40112 0.55376 0.88117 0.0
H588 H 0.42556 0.58472 0.92775 0.0
H589 H 0.40838 0.51011 0.90828 0.0
H590 H 0.36769 0.53281 0.94626 0.0
H591 H 0.47741 0.58484 0.87718 0.0
H592 H 0.38236 0.58105 0.87116 0.0
H593 H 0.40751 0.61246 0.91875 0.0
C594 C 0.72073 0.1527 0.17256 0.0
C595 C 0.73287 0.13807 0.17536 0.0
N596 N 0.74888 0.14176 0.16559 0.0
N597 N 0.72893 0.16565 0.16106 0.0
C598 C 0.74611 0.15868 0.15709 0.0
H599 H 0.70682 0.15392 0.17866 0.0
Co600 Co 0.71776 0.18821 0.15376 0.0
C601 C 0.7413 0.20135 0.12085 0.0
O602 O 0.74371 0.21721 0.1303 0.0
N603 N 0.7064 0.21085 0.14645 0.0
C604 C 0.6915 0.23242 0.12886 0.0
C605 C 0.69892 0.21474 0.1286 0.0
C606 C 0.70333 0.22642 0.15732 0.0
N607 N 0.69428 0.23977 0.14694 0.0
O608 O 0.73663 0.20176 0.16828 0.0
H609 H 0.69888 0.20528 0.11613 0.0
H610 H 0.70735 0.22788 0.17264 0.0
O611 O 0.73193 0.18831 0.12903 0.0
C612 C 0.73187 0.20107 0.18649 0.0
O613 O 0.71673 0.19167 0.19113 0.0
N614 N 0.69827 0.17503 0.14184 0.0
C615 C 0.6663 0.15639 0.12909 0.0
C616 C 0.6836 0.15321 0.11982 0.0
C617 C 0.69953 0.16277 0.12644 0.0
C618 C 0.68171 0.17783 0.1513 0.0
C619 C 0.66555 0.16885 0.14504 0.0
H620 H 0.71285 0.1601 0.11946 0.0
H621 H 0.68112 0.18711 0.1639 0.0
H622 H 0.75629 0.16584 0.14804 0.0
H623 H 0.73015 0.12581 0.18424 0.0
H624 H 0.68482 0.23943 0.11658 0.0
H625 H 0.68476 0.14351 0.1076 0.0
H626 H 0.65263 0.17133 0.15295 0.0
C627 C 0.11778 0.48108 0.42214 0.0
C628 C 0.13152 0.49434 0.42084 0.0
N629 N 0.13132 0.50156 0.40247 0.0
N630 N 0.10874 0.4799 0.40474 0.0
C631 C 0.11728 0.49258 0.39296 0.0
H632 H 0.11479 0.47257 0.43493 0.0
Co633 Co 0.0899 0.46241 0.40079 0.0
C634 C 0.07645 0.46636 0.35932 0.0
O635 O 0.07311 0.44834 0.35931 0.0
N636 N 0.07054 0.44429 0.39778 0.0
C637 C 0.05416 0.41797 0.39452 0.0
C638 C 0.07175 0.42554 0.39532 0.0
C639 C 0.05188 0.44759 0.39857 0.0
N640 N 0.04169 0.43184 0.39667 0.0
O641 O 0.07273 0.47825 0.41518 0.0
H642 H 0.08445 0.41756 0.39402 0.0
H643 H 0.04577 0.46131 0.40032 0.0
O644 O 0.08325 0.47406 0.3749 0.0
C645 C 0.07199 0.47205 0.43289 0.0
O646 O 0.08202 0.45722 0.43722 0.0
N647 N 0.10768 0.44642 0.38935 0.0
C648 C 0.13336 0.41864 0.37911 0.0
C649 C 0.12759 0.43202 0.36516 0.0
C650 C 0.11496 0.44608 0.37069 0.0
C651 C 0.11453 0.43473 0.40346 0.0
C652 C 0.12703 0.42055 0.39863 0.0
H653 H 0.1112 0.45652 0.35995 0.0
H654 H 0.10935 0.43577 0.41843 0.0
H655 H 0.11372 0.49478 0.3776 0.0
H656 H 0.14094 0.49834 0.43261 0.0
H657 H 0.05079 0.4033 0.39291 0.0
H658 H 0.1327 0.4316 0.35011 0.0
H659 H 0.13095 0.41068 0.41001 0.0
C660 C 0.79382 0.15247 0.85489 0.0
C661 C 0.77994 0.13935 0.8537 0.0
N662 N 0.76668 0.14359 0.86711 0.0
N663 N 0.78952 0.16502 0.86902 0.0
C664 C 0.77287 0.15924 0.87629 0.0
H665 H 0.80631 0.15291 0.84591 0.0
Co666 Co 0.80472 0.18563 0.87435 0.0
C667 C 0.80201 0.19066 0.91798 0.0
O668 O 0.82021 0.19246 0.91841 0.0
N669 N 0.8206 0.20698 0.87903 0.0
C670 C 0.84509 0.2252 0.88587 0.0
C671 C 0.83831 0.20735 0.88614 0.0
C672 C 0.81717 0.22519 0.87454 0.0
N673 N 0.83188 0.23649 0.87839 0.0
O674 O 0.78602 0.2018 0.86303 0.0
H675 H 0.84605 0.19555 0.89172 0.0
H676 H 0.8043 0.23016 0.8681 0.0
O677 O 0.7937 0.18795 0.90142 0.0
C678 C 0.78902 0.20146 0.84439 0.0
O679 O 0.80271 0.19091 0.83781 0.0
N680 N 0.82356 0.169 0.88243 0.0
C681 C 0.85466 0.14629 0.88856 0.0
C682 C 0.83941 0.14566 0.90165 0.0
C683 C 0.82371 0.15692 0.89806 0.0
C684 C 0.83731 0.16814 0.86853 0.0
C685 C 0.8531 0.15719 0.87146 0.0
H686 H 0.81185 0.15602 0.90789 0.0
H687 H 0.8363 0.17672 0.85542 0.0
H688 H 0.76528 0.16654 0.88778 0.0
H689 H 0.77978 0.12744 0.84385 0.0
H690 H 0.85872 0.22949 0.89106 0.0
H691 H 0.83979 0.13693 0.9147 0.0
H692 H 0.86414 0.15745 0.86051 0.0
C693 C 0.12104 0.53894 0.10496 0.0
C694 C 0.13313 0.5241 0.10463 0.0
N695 N 0.1283 0.5122 0.11914 0.0
N696 N 0.10857 0.53659 0.11966 0.0
C697 C 0.11335 0.52013 0.12815 0.0
H698 H 0.12114 0.55061 0.09485 0.0
Co699 Co 0.08892 0.55332 0.1232 0.0
C700 C 0.07436 0.5486 0.16431 0.0
O701 O 0.06931 0.56622 0.16403 0.0
N702 N 0.06876 0.57063 0.12561 0.0
C703 C 0.05143 0.59639 0.1284 0.0
C704 C 0.06926 0.58942 0.12791 0.0
C705 C 0.05023 0.56669 0.12454 0.0
N706 N 0.03946 0.58211 0.12624 0.0
O707 O 0.07277 0.53674 0.10862 0.0
H708 H 0.08157 0.5979 0.1294 0.0
H709 H 0.04467 0.55274 0.12285 0.0
O710 O 0.08237 0.54147 0.14906 0.0
C711 C 0.07324 0.54212 0.09062 0.0
O712 O 0.084 0.55639 0.08621 0.0
N713 N 0.10569 0.5702 0.13505 0.0
C714 C 0.12714 0.60074 0.14656 0.0
C715 C 0.12225 0.58693 0.16034 0.0
C716 C 0.11169 0.57149 0.15418 0.0
C717 C 0.11237 0.58226 0.12118 0.0
C718 C 0.12288 0.59776 0.12662 0.0
H719 H 0.10814 0.56098 0.16492 0.0
H720 H 0.10819 0.58065 0.10593 0.0
H721 H 0.10575 0.51382 0.14023 0.0
H722 H 0.14469 0.52228 0.09448 0.0
H723 H 0.04759 0.61096 0.12986 0.0
H724 H 0.12582 0.58846 0.1758 0.0
H725 H 0.12693 0.60777 0.11541 0.0
C726 C 0.73122 0.86104 0.35511 0.0
C727 C 0.74441 0.87485 0.35556 0.0
N728 N 0.75252 0.87489 0.37353 0.0
N729 N 0.73094 0.85211 0.37261 0.0
C730 C 0.7441 0.86085 0.38363 0.0
H731 H 0.72218 0.85785 0.34279 0.0
Co732 Co 0.71386 0.83297 0.37704 0.0
C733 C 0.71713 0.82113 0.41899 0.0
O734 O 0.69905 0.81812 0.41865 0.0
N735 N 0.69615 0.81327 0.38039 0.0
C736 C 0.67008 0.79641 0.38254 0.0
C737 C 0.6773 0.81412 0.38158 0.0
C738 C 0.6999 0.79468 0.3807 0.0
N739 N 0.68428 0.7841 0.38182 0.0
O740 O 0.73028 0.81578 0.36342 0.0
H741 H 0.66896 0.82663 0.38188 0.0
H742 H 0.71385 0.78898 0.3797 0.0
O743 O 0.72529 0.82729 0.40336 0.0
C744 C 0.7245 0.81474 0.34557 0.0
O745 O 0.70944 0.82424 0.34079 0.0
N746 N 0.69735 0.85077 0.38768 0.0
C747 C 0.66954 0.87683 0.39672 0.0
C748 C 0.68305 0.87181 0.41085 0.0
C749 C 0.69713 0.859 0.4059 0.0
C750 C 0.68553 0.85689 0.37331 0.0
C751 C 0.6713 0.86952 0.37757 0.0
H752 H 0.70777 0.85596 0.41669 0.0
H753 H 0.68655 0.85106 0.35861 0.0
H754 H 0.74712 0.8573 0.39884 0.0
H755 H 0.74781 0.88408 0.34343 0.0
H756 H 0.65541 0.79297 0.38378 0.0
H757 H 0.68276 0.87772 0.42558 0.0
H758 H 0.66136 0.87288 0.36607 0.0
C759 C 0.39333 0.46601 0.62509 0.0
C760 C 0.37887 0.47804 0.62085 0.0
N761 N 0.38495 0.49569 0.62332 0.0
N762 N 0.40845 0.47597 0.63058 0.0
C763 C 0.40308 0.49401 0.62865 0.0
H764 H 0.39266 0.45094 0.62457 0.0
Co765 Co 0.43198 0.46661 0.6383 0.0
C766 C 0.42002 0.48988 0.67425 0.0
O767 O 0.40249 0.49115 0.66877 0.0
N768 N 0.45542 0.45743 0.64568 0.0
C769 C 0.47889 0.44683 0.66396 0.0
C770 C 0.46056 0.45247 0.66412 0.0
C771 C 0.47079 0.45443 0.63448 0.0
N772 N 0.48535 0.44811 0.64532 0.0
O773 O 0.44406 0.48644 0.62379 0.0
H774 H 0.4515 0.45283 0.67691 0.0
H775 H 0.4714 0.45708 0.61877 0.0
O776 O 0.4318 0.48115 0.66335 0.0
C777 C 0.44342 0.48186 0.60553 0.0
O778 O 0.4346 0.46641 0.60076 0.0
N779 N 0.4207 0.44568 0.65025 0.0
C780 C 0.40565 0.41124 0.6612 0.0
C781 C 0.40105 0.42751 0.6717 0.0
C782 C 0.40888 0.44466 0.66608 0.0
C783 C 0.42505 0.42999 0.63981 0.0
C784 C 0.4179 0.41264 0.64516 0.0
H785 H 0.40501 0.45691 0.67425 0.0
H786 H 0.43406 0.43103 0.62703 0.0
H787 H 0.41214 0.50569 0.63196 0.0
H788 H 0.36474 0.474 0.61712 0.0
H789 H 0.48677 0.44191 0.67658 0.0
H790 H 0.39151 0.42696 0.68411 0.0
H791 H 0.42152 0.40047 0.63643 0.0
C792 C 0.22555 0.14449 0.35383 0.0
C793 C 0.24008 0.13204 0.35427 0.0
N794 N 0.25236 0.13766 0.36811 0.0
N795 N 0.22845 0.15798 0.36737 0.0
C796 C 0.24494 0.15344 0.37594 0.0
H797 H 0.2137 0.1439 0.34396 0.0
Co798 Co 0.21238 0.17836 0.36996 0.0
C799 C 0.21578 0.19223 0.41141 0.0
O800 O 0.19835 0.19782 0.41044 0.0
N801 N 0.19583 0.19928 0.37156 0.0
C802 C 0.17083 0.21773 0.37446 0.0
C803 C 0.17704 0.19963 0.37407 0.0
C804 C 0.20053 0.21762 0.37021 0.0
N805 N 0.18559 0.22902 0.37199 0.0
O806 O 0.23025 0.19382 0.35652 0.0
H807 H 0.16808 0.18773 0.37611 0.0
H808 H 0.21467 0.22265 0.36848 0.0
O809 O 0.22328 0.18434 0.39632 0.0
C810 C 0.22701 0.19244 0.33803 0.0
O811 O 0.21383 0.18091 0.33224 0.0
N812 N 0.19427 0.16231 0.38079 0.0
C813 C 0.16262 0.14186 0.39092 0.0
C814 C 0.17635 0.14577 0.40514 0.0
C815 C 0.19235 0.15581 0.39967 0.0
C816 C 0.1822 0.15661 0.36644 0.0
C817 C 0.16617 0.14661 0.3712 0.0
H818 H 0.20283 0.15855 0.41072 0.0
H819 H 0.18435 0.16112 0.35136 0.0
H820 H 0.25163 0.16178 0.38724 0.0
H821 H 0.24144 0.11971 0.34513 0.0
H822 H 0.15651 0.22227 0.37634 0.0
H823 H 0.1744 0.14182 0.42044 0.0
H824 H 0.15625 0.14328 0.35963 0.0
C825 C 0.60747 0.49311 0.11485 0.0
C826 C 0.61893 0.50834 0.11595 0.0
N827 N 0.62073 0.5131 0.13505 0.0
N828 N 0.60174 0.48828 0.13314 0.0
C829 C 0.61035 0.50061 0.14531 0.0
H830 H 0.60363 0.486 0.1014 0.0
Co831 Co 0.58469 0.46876 0.13676 0.0
C832 C 0.56636 0.47447 0.17697 0.0
O833 O 0.55739 0.45858 0.17545 0.0
N834 N 0.56742 0.44882 0.13886 0.0
C835 C 0.55444 0.42062 0.13668 0.0
C836 C 0.57098 0.43029 0.13824 0.0
C837 C 0.54859 0.44996 0.13717 0.0
N838 N 0.54033 0.43306 0.13595 0.0
O839 O 0.56622 0.48301 0.12226 0.0
H840 H 0.58472 0.42406 0.13802 0.0
H841 H 0.54107 0.46304 0.13633 0.0
O842 O 0.57707 0.47985 0.16282 0.0
C843 C 0.56586 0.47674 0.10455 0.0
O844 O 0.577 0.46274 0.10008 0.0
N845 N 0.60346 0.45417 0.14869 0.0
C846 C 0.62794 0.42493 0.15767 0.0
C847 C 0.61545 0.43182 0.17195 0.0
C848 C 0.60335 0.44655 0.1672 0.0
C849 C 0.61648 0.44863 0.13521 0.0
C850 C 0.62898 0.43426 0.13946 0.0
H851 H 0.59308 0.45058 0.17795 0.0
H852 H 0.61631 0.45451 0.12051 0.0
H853 H 0.60885 0.50067 0.16121 0.0
H854 H 0.62568 0.51529 0.10367 0.0
H855 H 0.55302 0.40561 0.13578 0.0
H856 H 0.61403 0.42508 0.18618 0.0
H857 H 0.63871 0.42986 0.12812 0.0
C858 C 0.28621 0.86157 0.84823 0.0
C859 C 0.27193 0.87432 0.84854 0.0
N860 N 0.26353 0.87355 0.86635 0.0
N861 N 0.287 0.8527 0.86574 0.0
C862 C 0.27304 0.86033 0.87659 0.0
H863 H 0.29561 0.85904 0.83602 0.0
Co864 Co 0.30491 0.83441 0.8705 0.0
C865 C 0.30245 0.82395 0.91308 0.0
O866 O 0.32049 0.82069 0.91259 0.0
N867 N 0.32338 0.81557 0.8743 0.0
C868 C 0.35013 0.79973 0.87619 0.0
C869 C 0.34222 0.81712 0.87454 0.0
C870 C 0.32032 0.79692 0.87575 0.0
N871 N 0.33635 0.78701 0.87684 0.0
O872 O 0.28899 0.81612 0.85779 0.0
H873 H 0.35005 0.82991 0.87335 0.0
H874 H 0.30657 0.79069 0.87594 0.0
O875 O 0.29408 0.82937 0.89728 0.0
C876 C 0.29552 0.81425 0.84028 0.0
O877 O 0.31005 0.82442 0.83531 0.0
N878 N 0.32112 0.85309 0.87995 0.0
C879 C 0.35103 0.87718 0.88665 0.0
C880 C 0.33875 0.87251 0.90209 0.0
C881 C 0.32353 0.86067 0.89832 0.0
C882 C 0.33149 0.85943 0.86447 0.0
C883 C 0.34658 0.87131 0.86748 0.0
H884 H 0.31415 0.85746 0.91027 0.0
H885 H 0.32883 0.85411 0.8498 0.0
H886 H 0.26983 0.8562 0.89159 0.0
H887 H 0.26832 0.88373 0.83664 0.0
H888 H 0.36494 0.79666 0.8762 0.0
H889 H 0.34128 0.87729 0.91703 0.0
H890 H 0.35516 0.87522 0.85497 0.0
C891 C 0.90684 0.53188 0.59942 0.0
C892 C 0.89509 0.51682 0.59961 0.0
N893 N 0.89695 0.50805 0.61708 0.0
N894 N 0.91622 0.53274 0.61665 0.0
C895 C 0.90979 0.51806 0.6273 0.0
H896 H 0.90852 0.54159 0.58734 0.0
Co897 Co 0.93435 0.55105 0.62027 0.0
C898 C 0.94755 0.54929 0.66216 0.0
O899 O 0.95122 0.56722 0.66106 0.0
N900 N 0.95293 0.5699 0.62255 0.0
C901 C 0.9683 0.59689 0.6208 0.0
C902 C 0.951 0.58864 0.62104 0.0
C903 C 0.97168 0.56723 0.62329 0.0
N904 N 0.98132 0.5834 0.62209 0.0
O905 O 0.95239 0.53515 0.60717 0.0
H906 H 0.93802 0.59614 0.61967 0.0
H907 H 0.97819 0.5536 0.62395 0.0
O908 O 0.9407 0.54087 0.64702 0.0
C909 C 0.95303 0.54061 0.58918 0.0
O910 O 0.94238 0.55476 0.58406 0.0
N911 N 0.91582 0.56712 0.63037 0.0
C912 C 0.89066 0.59602 0.63795 0.0
C913 C 0.89699 0.58448 0.65335 0.0
C914 C 0.90939 0.5698 0.64918 0.0
C915 C 0.90814 0.57686 0.61511 0.0
C916 C 0.89569 0.59142 0.61855 0.0
H917 H 0.91387 0.561 0.66116 0.0
H918 H 0.9127 0.57408 0.60017 0.0
H919 H 0.91465 0.51453 0.64196 0.0
H920 H 0.88572 0.51272 0.58783 0.0
H921 H 0.97107 0.6117 0.61951 0.0
H922 H 0.89302 0.58719 0.66852 0.0
H923 H 0.89058 0.59945 0.60611 0.0
C924 C 0.22425 0.87005 0.16857 0.0
C925 C 0.23722 0.88414 0.16983 0.0
N926 N 0.25143 0.88013 0.15748 0.0
N927 N 0.23024 0.85711 0.15556 0.0
C928 C 0.24684 0.86366 0.14896 0.0
H929 H 0.2112 0.86927 0.1766 0.0
Co930 Co 0.21717 0.8353 0.14943 0.0
C931 C 0.23743 0.82004 0.11524 0.0
O932 O 0.23877 0.80414 0.12483 0.0
N933 N 0.20389 0.81343 0.14324 0.0
C934 C 0.18691 0.7926 0.12685 0.0
C935 C 0.19485 0.81002 0.12611 0.0
C936 C 0.20117 0.79786 0.15419 0.0
N937 N 0.19091 0.78493 0.14452 0.0
O938 O 0.23605 0.82052 0.16264 0.0
H939 H 0.19426 0.81955 0.11373 0.0
H940 H 0.20648 0.79604 0.16901 0.0
O941 O 0.22967 0.83403 0.12363 0.0
C942 C 0.23266 0.82152 0.18118 0.0
O943 O 0.21871 0.83211 0.18702 0.0
N944 N 0.19777 0.8497 0.13903 0.0
C945 C 0.16599 0.87009 0.12911 0.0
C946 C 0.18265 0.87245 0.11841 0.0
C947 C 0.19852 0.86195 0.12359 0.0
C948 C 0.18189 0.84784 0.14992 0.0
C949 C 0.16578 0.85765 0.14504 0.0
H950 H 0.21138 0.86383 0.11545 0.0
H951 H 0.18176 0.83856 0.16253 0.0
H952 H 0.2555 0.85641 0.13832 0.0
H953 H 0.2361 0.89656 0.17888 0.0
H954 H 0.17916 0.78592 0.11508 0.0
H955 H 0.18332 0.88213 0.10615 0.0
H956 H 0.15331 0.85575 0.15388 0.0
C957 C 0.91335 0.49222 0.92452 0.0
C958 C 0.90138 0.50711 0.92399 0.0
N959 N 0.89837 0.51167 0.90499 0.0
N960 N 0.9182 0.48738 0.90595 0.0
C961 C 0.90858 0.49936 0.89423 0.0
H962 H 0.91808 0.48525 0.93774 0.0
Co963 Co 0.93507 0.46789 0.90138 0.0
C964 C 0.95012 0.4721 0.85983 0.0
O965 O 0.95603 0.45475 0.86018 0.0
N966 N 0.95225 0.44793 0.89813 0.0
C967 C 0.96544 0.41974 0.89819 0.0
C968 C 0.94881 0.42937 0.89841 0.0
C969 C 0.97116 0.44911 0.89802 0.0
N970 N 0.97953 0.43219 0.89802 0.0
O971 O 0.95427 0.4821 0.91492 0.0
H972 H 0.93517 0.42304 0.89944 0.0
H973 H 0.97866 0.46221 0.89791 0.0
O974 O 0.94165 0.47889 0.87499 0.0
C975 C 0.9556 0.47548 0.93244 0.0
O976 O 0.94491 0.46121 0.93711 0.0
N977 N 0.9156 0.45336 0.8908 0.0
C978 C 0.89023 0.42457 0.88352 0.0
C979 C 0.89945 0.43353 0.86783 0.0
C980 C 0.91205 0.44805 0.87177 0.0
C981 C 0.90545 0.44601 0.90594 0.0
C982 C 0.8927 0.43166 0.90265 0.0
H983 H 0.91938 0.45419 0.85955 0.0
H984 H 0.90825 0.45046 0.92092 0.0
H985 H 0.90915 0.4992 0.87826 0.0
H986 H 0.895 0.51386 0.93663 0.0
H987 H 0.96698 0.40472 0.89893 0.0
H988 H 0.89782 0.42866 0.85278 0.0
H989 H 0.8855 0.42558 0.91517 0.0
C990 C 0.29552 0.14387 0.66548 0.0
C991 C 0.28201 0.13074 0.66934 0.0
N992 N 0.2654 0.13764 0.66357 0.0
N993 N 0.28758 0.159 0.65705 0.0
C994 C 0.26909 0.15496 0.65664 0.0
H995 H 0.31024 0.14227 0.66853 0.0
Co996 Co 0.29973 0.18111 0.64894 0.0
C997 C 0.27772 0.16976 0.61241 0.0
O998 O 0.2781 0.15198 0.61716 0.0
N999 N 0.31171 0.20309 0.64121 0.0
C1000 C 0.32492 0.22478 0.62239 0.0
C1001 C 0.3173 0.20721 0.62268 0.0
C1002 C 0.31638 0.21829 0.65203 0.0
N1003 N 0.32429 0.23178 0.64084 0.0
O1004 O 0.28101 0.19568 0.66263 0.0
H1005 H 0.31597 0.19801 0.6101 0.0
H1006 H 0.31372 0.21959 0.66771 0.0
O1007 O 0.28555 0.18183 0.6237 0.0
C1008 C 0.28518 0.19493 0.681 0.0
O1009 O 0.29967 0.18479 0.68624 0.0
N1010 N 0.31961 0.16725 0.63806 0.0
C1011 C 0.35268 0.14781 0.63013 0.0
C1012 C 0.33852 0.1491 0.61581 0.0
C1013 C 0.32208 0.15903 0.62001 0.0
C1014 C 0.33354 0.16675 0.65173 0.0
C1015 C 0.35008 0.15709 0.64815 0.0
H1016 H 0.31178 0.16021 0.60855 0.0
H1017 H 0.33164 0.17379 0.66572 0.0
H1018 H 0.25861 0.16434 0.65077 0.0
H1019 H 0.28437 0.11688 0.67522 0.0
H1020 H 0.33072 0.23177 0.60961 0.0
H1021 H 0.34002 0.14238 0.60157 0.0
H1022 H 0.36081 0.15709 0.65943 0.0
C1023 C 0.60548 0.52673 0.43926 0.0
C1024 C 0.61739 0.51181 0.43792 0.0
N1025 N 0.61999 0.50782 0.4187 0.0
N1026 N 0.60026 0.53214 0.421 0.0
C1027 C 0.60959 0.52047 0.40864 0.0
H1028 H 0.60108 0.53333 0.45283 0.0
Co1029 Co 0.58363 0.552 0.41729 0.0
C1030 C 0.57007 0.55062 0.37527 0.0
O1031 O 0.56643 0.56856 0.37626 0.0
N1032 N 0.56665 0.57229 0.41476 0.0
C1033 C 0.55364 0.60056 0.41506 0.0
C1034 C 0.57017 0.59082 0.41563 0.0
C1035 C 0.54774 0.57125 0.41381 0.0
N1036 N 0.53948 0.58823 0.41401 0.0
O1037 O 0.56414 0.53759 0.43008 0.0
H1038 H 0.58379 0.59713 0.41687 0.0
H1039 H 0.54016 0.5582 0.41334 0.0
O1040 O 0.57695 0.54224 0.39042 0.0
C1041 C 0.56321 0.54341 0.44794 0.0
O1042 O 0.5744 0.55708 0.45325 0.0
N1043 N 0.60343 0.56663 0.40756 0.0
C1044 C 0.62901 0.59534 0.4011 0.0
C1045 C 0.62149 0.58531 0.38513 0.0
C1046 C 0.60882 0.57075 0.38869 0.0
C1047 C 0.6123 0.57472 0.42316 0.0
C1048 C 0.62503 0.58917 0.4203 0.0
H1049 H 0.60311 0.56344 0.37621 0.0
H1050 H 0.60838 0.57087 0.43804 0.0
H1051 H 0.60871 0.52114 0.39269 0.0
H1052 H 0.62402 0.50469 0.45017 0.0
H1053 H 0.55223 0.6156 0.41539 0.0
H1054 H 0.62453 0.5893 0.37004 0.0
H1055 H 0.631 0.59606 0.43307 0.0
H1056 H 0.28266 0.32296 0.22295 0.0
H1057 H 0.27197 0.30147 0.24838 0.0
H1058 H 0.25802 0.2609 0.20365 0.0
H1059 H 0.26907 0.28248 0.17785 0.0
H1060 H 0.23852 0.28398 0.25591 0.0
H1061 H 0.29444 0.23235 0.23937 0.0
H1062 H 0.2945 0.25566 0.22924 0.0
H1063 H 0.27946 0.2381 0.21896 0.0
C1064 C 0.27713 0.30954 0.21843 0.0
C1065 C 0.27688 0.30434 0.19838 0.0
C1066 C 0.271 0.29727 0.23303 0.0
C1067 C 0.26456 0.27943 0.228 0.0
C1068 C 0.26331 0.27448 0.2079 0.0
H1069 H 0.22955 0.18579 0.2988 0.0
H1070 H 0.23956 0.20716 0.2729 0.0
C1071 C 0.26942 0.28688 0.19316 0.0
C1072 C 0.25989 0.26602 0.24405 0.0
H1073 H 0.27326 0.22461 0.26483 0.0
C1074 C 0.24609 0.27098 0.25786 0.0
C1075 C 0.26994 0.24917 0.24669 0.0
C1076 C 0.28553 0.2435 0.23291 0.0
C1077 C 0.24185 0.25943 0.27404 0.0
C1078 C 0.25191 0.24259 0.27669 0.0
C1079 C 0.26567 0.2376 0.26286 0.0
C1080 C 0.24745 0.22933 0.29292 0.0
C1081 C 0.22633 0.26513 0.28789 0.0
C1082 C 0.24914 0.23442 0.31293 0.0
C1083 C 0.24345 0.22211 0.32793 0.0
C1084 C 0.23597 0.20456 0.32305 0.0
C1085 C 0.23514 0.19926 0.30306 0.0
C1086 C 0.24088 0.21146 0.28819 0.0
H1087 H 0.21737 0.27624 0.28144 0.0
H1088 H 0.2174 0.25297 0.29168 0.0
H1089 H 0.23247 0.27059 0.30179 0.0
H1090 H 0.25451 0.24805 0.31693 0.0
H1091 H 0.24419 0.2266 0.34319 0.0
H1092 H 0.03148 1.00316 0.61458 0.0
H1093 H 0.01166 0.01452 0.58733 0.0
H1094 H 0.05666 1.00478 0.54621 0.0
H1095 H 0.07635 0.99368 0.57315 0.0
H1096 H 0.03789 0.03792 0.53887 0.0
H1097 H 0.98871 0.97832 0.54649 0.0
H1098 H 0.99188 0.99218 0.56838 0.0
H1099 H 0.01111 0.97888 0.55872 0.0
C1100 C 0.03724 1.00395 0.59981 0.0
C1101 C 0.05545 0.99756 0.59598 0.0
C1102 C 0.02584 0.01016 0.5842 0.0
C1103 C 0.03255 0.01012 0.56463 0.0
C1104 C 0.0511 1.00481 0.5611 0.0
H1105 H 0.96903 0.01463 0.45286 0.0
H1106 H 0.99062 1.00487 0.4794 0.0
C1107 C 0.06237 0.99852 0.57655 0.0
C1108 C 0.02033 0.01496 0.54756 0.0
H1109 H 0.98151 1.00092 0.52207 0.0
C1110 C 0.02555 0.02984 0.53524 0.0
C1111 C 1.00447 1.00413 0.54251 0.0
C1112 C 0.99873 0.98737 0.55458 0.0
C1113 C 0.01513 0.03446 0.51832 0.0
C1114 C 0.99896 0.02402 0.51362 0.0
C1115 C 0.99392 0.00889 0.52568 0.0
C1116 C 0.98632 0.02963 0.49722 0.0
C1117 C 0.02157 0.05046 0.50552 0.0
C1118 C 0.97674 0.04662 0.4985 0.0
C1119 C 0.96449 0.05211 0.48359 0.0
C1120 C 0.96142 0.04074 0.4669 0.0
C1121 C 0.97113 0.02371 0.46546 0.0
C1122 C 0.98339 0.01812 0.48062 0.0
H1123 H 0.03655 0.05376 0.50799 0.0
H1124 H 0.01944 0.04726 0.48962 0.0
H1125 H 0.01327 0.0631 0.50917 0.0
H1126 H 0.97857 0.05562 0.51123 0.0
H1127 H 0.95734 0.06535 0.48526 0.0
H1128 H 0.2608 0.79708 0.83862 0.0
H1129 H 0.24896 0.77696 0.81176 0.0
H1130 H 0.30196 0.78139 0.78186 0.0
H1131 H 0.31376 0.80102 0.80827 0.0
H1132 H 0.24649 0.78689 0.77094 0.0
H1133 H 0.29239 0.72526 0.78078 0.0
H1134 H 0.28913 0.7426 0.79985 0.0
H1135 H 0.30501 0.74688 0.77976 0.0
C1136 C 0.26995 0.79347 0.82646 0.0
C1137 C 0.28818 0.8007 0.82559 0.0
C1138 C 0.26318 0.78206 0.8111 0.0
C1139 C 0.27467 0.77748 0.79488 0.0
C1140 C 0.29294 0.78441 0.79432 0.0
H1141 H 0.26123 0.71941 0.68102 0.0
H1142 H 0.27336 0.73897 0.70823 0.0
C1143 C 0.29961 0.7958 0.80945 0.0
C1144 C 0.26754 0.76643 0.77783 0.0
H1145 H 0.27645 0.7276 0.74988 0.0
C1146 C 0.25291 0.77383 0.76645 0.0
C1147 C 0.27611 0.74952 0.77179 0.0
C1148 C 0.29141 0.74049 0.78378 0.0
C1149 C 0.24682 0.76494 0.74907 0.0
C1150 C 0.25543 0.74807 0.743 0.0
C1151 C 0.27005 0.74066 0.75437 0.0
C1152 C 0.24826 0.73706 0.72597 0.0
C1153 C 0.23138 0.77382 0.73716 0.0
C1154 C 0.23027 0.72949 0.72698 0.0
C1155 C 0.22347 0.71837 0.7117 0.0
C1156 C 0.23444 0.71444 0.69492 0.0
C1157 C 0.25242 0.72224 0.69369 0.0
C1158 C 0.25936 0.73334 0.70923 0.0
H1159 H 0.22991 0.78894 0.74053 0.0
H1160 H 0.23391 0.77214 0.72107 0.0
H1161 H 0.21795 0.76691 0.74081 0.0
H1162 H 0.22156 0.7319 0.73982 0.0
H1163 H 0.20951 0.71271 0.71319 0.0
H1164 H 0.47765 0.0133 0.09998 0.0
H1165 H 0.49746 1.00226 0.07248 0.0
H1166 H 0.46955 0.04023 0.03288 0.0
H1167 H 0.44992 0.05115 0.05976 0.0
H1168 H 0.48578 0.98711 0.03336 0.0
H1169 H 0.52604 0.05313 0.02718 0.0
H1170 H 0.51299 0.04695 0.04907 0.0
H1171 H 0.50109 0.05593 0.02773 0.0
C1172 C 0.4757 0.01917 0.08538 0.0
C1173 C 0.46227 0.0332 0.08217 0.0
C1174 C 0.48703 0.0129 0.06971 0.0
C1175 C 0.48519 0.0207 0.05071 0.0
C1176 C 0.47148 0.03428 0.04746 0.0
H1177 H 0.54159 1.00575 0.93588 0.0
H1178 H 0.52047 0.0166 0.96238 0.0
C1179 C 0.4602 0.04045 0.06293 0.0
C1180 C 0.49739 0.0148 0.03403 0.0
H1181 H 0.52994 0.03111 1.00128 0.0
C1182 C 0.49553 0.99667 0.02643 0.0
C1183 C 0.5099 0.02739 0.02481 0.0
C1184 C 0.5128 0.0469 0.03266 0.0
C1185 C 0.50573 0.99086 1.00975 0.0
C1186 C 0.51837 1.0034 1.00061 0.0
C1187 C 0.52014 0.02157 1.00815 0.0
C1188 C 0.53102 0.99733 0.98436 0.0
C1189 C 0.5027 0.97138 1.00185 0.0
C1190 C 0.54416 0.98328 0.98805 0.0
C1191 C 0.55613 0.9772 0.97314 0.0
C1192 C 0.55541 0.98502 0.95405 0.0
C1193 C 0.54248 0.99941 0.95037 0.0
C1194 C 0.53041 1.00558 0.96548 0.0
H1195 H 0.48901 0.96562 1.00662 0.0
H1196 H 0.50335 0.97116 0.98546 0.0
H1197 H 0.51382 0.96205 1.00761 0.0
H1198 H 0.54521 0.977 1.00257 0.0
H1199 H 0.56597 0.96621 0.9767 0.0
H1200 H 0.24772 0.78618 0.1769 0.0
H1201 H 0.25664 0.76485 0.20394 0.0
H1202 H 0.24645 0.80863 0.24634 0.0
H1203 H 0.23755 0.82974 0.2197 0.0
H1204 H 0.28396 0.76802 0.23627 0.0
H1205 H 0.21086 0.76592 0.26352 0.0
H1206 H 0.21691 0.77419 0.23914 0.0
H1207 H 0.22017 0.78901 0.2603 0.0
C1208 C 0.24787 0.79133 0.19195 0.0
C1209 C 0.24189 0.8096 0.19619 0.0
C1210 C 0.25279 0.77911 0.20739 0.0
C1211 C 0.25175 0.78503 0.22721 0.0
C1212 C 0.24694 0.80361 0.23125 0.0
H1213 H 0.2691 0.73476 0.3439 0.0
H1214 H 0.25991 0.75553 0.31648 0.0
C1215 C 0.24199 0.81571 0.21596 0.0
C1216 C 0.25506 0.77186 0.24388 0.0
H1217 H 0.2339 0.75229 0.28424 0.0
C1218 C 0.273 0.76445 0.24666 0.0
C1219 C 0.24076 0.76735 0.25756 0.0
C1220 C 0.22104 0.77438 0.25496 0.0
C1221 C 0.27712 0.75296 0.26296 0.0
C1222 C 0.26282 0.74842 0.27664 0.0
C1223 C 0.24487 0.75582 0.27383 0.0
C1224 C 0.26619 0.73544 0.29348 0.0
C1225 C 0.29691 0.74611 0.26562 0.0
C1226 C 0.27183 0.71703 0.28973 0.0
C1227 C 0.277 0.70528 0.30523 0.0
C1228 C 0.27641 0.71152 0.32493 0.0
C1229 C 0.26951 0.72952 0.32889 0.0
C1230 C 0.26442 0.74142 0.31323 0.0
H1231 H 0.30704 0.75483 0.25729 0.0
H1232 H 0.30093 0.7461 0.28146 0.0
H1233 H 0.298 0.73159 0.25999 0.0
H1234 H 0.27283 0.71192 0.2747 0.0
H1235 H 0.28214 0.69143 0.30173 0.0
H1236 H 0.47876 1.00092 0.43626 0.0
H1237 H 0.49936 0.01255 0.46275 0.0
H1238 H 0.46982 0.97874 0.50515 0.0
H1239 H 0.44951 0.96715 0.47919 0.0
H1240 H 0.48977 0.03114 0.49937 0.0
H1241 H 0.52456 0.96313 0.51312 0.0
H1242 H 0.51144 0.96787 0.49089 0.0
H1243 H 0.49951 0.962 0.51343 0.0
C1244 C 0.47666 0.99606 0.45124 0.0
C1245 C 0.46258 0.98299 0.45553 0.0
C1246 C 0.48844 1.00266 0.46635 0.0
C1247 C 0.48636 0.99619 0.48587 0.0
C1248 C 0.472 0.98358 0.49016 0.0
H1249 H 0.54137 0.0175 0.59993 0.0
H1250 H 0.52032 1.00583 0.57383 0.0
C1251 C 0.46032 0.97703 0.47522 0.0
C1252 C 0.49889 1.00262 0.50203 0.0
H1253 H 0.52954 0.98692 0.53709 0.0
C1254 C 0.49858 0.02152 0.50752 0.0
C1255 C 0.51022 0.98999 0.51282 0.0
C1256 C 0.51163 0.96964 0.50719 0.0
C1257 C 0.50907 0.02806 0.52366 0.0
C1258 C 0.52042 0.01544 0.53442 0.0
C1259 C 0.52071 0.99654 0.52897 0.0
C1260 C 0.53315 0.02192 0.55039 0.0
C1261 C 0.50769 0.04842 0.52926 0.0
C1262 C 0.54755 0.03438 0.54578 0.0
C1263 C 0.55948 0.04093 0.56049 0.0
C1264 C 0.55745 0.03514 0.58026 0.0
C1265 C 0.5433 0.02224 0.58487 0.0
C1266 C 0.53126 0.01562 0.57 0.0
H1267 H 0.49472 0.05492 0.52343 0.0
H1268 H 0.508 0.05021 0.54556 0.0
H1269 H 0.51977 0.05605 0.52292 0.0
H1270 H 0.54957 0.03909 0.53072 0.0
H1271 H 0.57032 0.05069 0.55625 0.0
H1272 H 0.28423 0.18723 0.72002 0.0
H1273 H 0.27333 0.20707 0.74686 0.0
H1274 H 0.25417 0.24788 0.70462 0.0
H1275 H 0.26506 0.22779 0.67737 0.0
H1276 H 0.28678 0.24271 0.75445 0.0
H1277 H 0.2099 0.24341 0.74326 0.0
H1278 H 0.2249 0.2262 0.73189 0.0
H1279 H 0.2236 0.24942 0.72194 0.0
C1280 C 0.27742 0.2003 0.71634 0.0
C1281 C 0.27553 0.20595 0.69653 0.0
C1282 C 0.27124 0.21165 0.73176 0.0
C1283 C 0.26293 0.22898 0.72784 0.0
C1284 C 0.26032 0.23444 0.70803 0.0
H1285 H 0.22443 0.31911 0.80193 0.0
H1286 H 0.23425 0.2985 0.77532 0.0
C1287 C 0.2665 0.22296 0.69245 0.0
C1288 C 0.25818 0.24156 0.74465 0.0
H1289 H 0.22193 0.26335 0.76805 0.0
C1290 C 0.27258 0.24721 0.75746 0.0
C1291 C 0.23968 0.24736 0.74861 0.0
C1292 C 0.22356 0.2412 0.73584 0.0
C1293 C 0.26905 0.25875 0.77387 0.0
C1294 C 0.25053 0.26455 0.77786 0.0
C1295 C 0.23613 0.25886 0.76506 0.0
C1296 C 0.24583 0.27734 0.79454 0.0
C1297 C 0.28525 0.26504 0.78647 0.0
C1298 C 0.24932 0.27252 0.81439 0.0
C1299 C 0.2438 0.28448 0.82984 0.0
C1300 C 0.23451 0.30132 0.82563 0.0
C1301 C 0.23145 0.30619 0.80575 0.0
C1302 C 0.23703 0.29439 0.79045 0.0
H1303 H 0.29883 0.26316 0.77878 0.0
H1304 H 0.28374 0.27996 0.79067 0.0
H1305 H 0.28559 0.25661 0.80023 0.0
H1306 H 0.25582 0.25929 0.81797 0.0
H1307 H 0.24616 0.28026 0.845 0.0
H1308 H 0.06772 0.05504 0.9904 0.0
H1309 H 0.04806 0.04368 1.01706 0.0
H1310 H 0.02315 1.00352 0.97758 0.0
H1311 H 0.04324 0.01473 0.95055 0.0
H1312 H 0.01023 0.04363 0.02005 0.0
H1313 H 0.03768 0.97122 0.0247 0.0
H1314 H 0.04939 0.98934 1.01092 0.0
H1315 H 0.02934 0.97777 1.00066 0.0
C1316 C 0.05815 0.04371 0.98728 0.0
C1317 C 0.05712 0.03575 0.96828 0.0
C1318 C 0.04687 0.03726 1.00262 0.0
C1319 C 0.03424 0.02263 0.99946 0.0
C1320 C 0.03305 0.01461 0.98049 0.0
H1321 H 0.95165 0.96807 0.0707 0.0
H1322 H 0.97224 0.9801 0.04525 0.0
C1323 C 0.04446 0.02106 0.96503 0.0
C1324 C 0.02218 0.01626 1.01608 0.0
H1325 H 0.01141 0.97843 0.04464 0.0
C1326 C 0.01054 0.02939 0.02547 0.0
C1327 C 0.02269 0.99772 0.02328 0.0
C1328 C 0.03556 0.98321 1.01452 0.0
C1329 C 0.99911 0.02438 0.04153 0.0
C1330 C 0.99948 1.0058 0.04857 0.0
C1331 C 0.01121 0.99271 0.03928 0.0
C1332 C 0.98681 0.99922 0.06454 0.0
C1333 C 0.98633 0.03885 0.05048 0.0
C1334 C 0.98804 1.00604 0.08402 0.0
C1335 C 0.97614 0.99913 0.09886 0.0
C1336 C 0.96289 0.98526 0.09439 0.0
C1337 C 0.96169 0.9787 0.0748 0.0
C1338 C 0.9735 0.98554 0.06013 0.0
H1339 H 0.98515 0.0515 0.04105 0.0
H1340 H 0.97214 0.03299 0.05283 0.0
H1341 H 0.99191 0.04316 0.06507 0.0
H1342 H 0.9984 0.01646 0.08781 0.0
H1343 H 0.97749 1.00439 0.11379 0.0
H1344 H 0.71985 0.69392 0.80703 0.0
H1345 H 0.73184 0.7139 0.78091 0.0
H1346 H 0.75924 0.74841 0.82431 0.0
H1347 H 0.74731 0.72811 0.85085 0.0
H1348 H 0.72411 0.75117 0.77579 0.0
H1349 H 0.80052 0.73961 0.78335 0.0
H1350 H 0.78349 0.7245 0.7948 0.0
H1351 H 0.78881 0.7468 0.80558 0.0
C1352 C 0.7286 0.70564 0.81112 0.0
C1353 C 0.73261 0.70942 0.83108 0.0
C1354 C 0.73542 0.71708 0.79609 0.0
C1355 C 0.7465 0.73264 0.80055 0.0
C1356 C 0.75095 0.73631 0.82046 0.0
H1357 H 0.79452 0.8199 0.72868 0.0
H1358 H 0.7831 0.79971 0.7549 0.0
C1359 C 0.74413 0.72472 0.83563 0.0
C1360 C 0.75251 0.74526 0.78424 0.0
H1361 H 0.79082 0.76243 0.76025 0.0
C1362 C 0.73871 0.75361 0.77237 0.0
C1363 C 0.77154 0.7484 0.77972 0.0
C1364 C 0.78699 0.73926 0.79139 0.0
C1365 C 0.7434 0.76519 0.75633 0.0
C1366 C 0.76242 0.7683 0.75178 0.0
C1367 C 0.77623 0.75998 0.76367 0.0
C1368 C 0.7684 0.78087 0.7354 0.0
C1369 C 0.72794 0.77436 0.74469 0.0
C1370 C 0.76381 0.77715 0.71554 0.0
C1371 C 0.77031 0.78884 0.70032 0.0
C1372 C 0.78164 0.80433 0.70474 0.0
C1373 C 0.7859 0.80807 0.72466 0.0
C1374 C 0.7794 0.7965 0.73975 0.0
H1375 H 0.71443 0.77407 0.75278 0.0
H1376 H 0.73147 0.7891 0.74122 0.0
H1377 H 0.72604 0.76678 0.73053 0.0
H1378 H 0.75557 0.76499 0.71177 0.0
H1379 H 0.76694 0.78548 0.68513 0.0
H1380 H 0.7714 0.28697 0.35021 0.0
H1381 H 0.76119 0.26594 0.32337 0.0
H1382 H 0.78579 0.30296 0.28042 0.0
H1383 H 0.79598 0.32366 0.30676 0.0
H1384 H 0.73884 0.27249 0.28851 0.0
H1385 H 0.8114 0.25281 0.26877 0.0
H1386 H 0.80555 0.26407 0.29184 0.0
H1387 H 0.80757 0.27757 0.26954 0.0
C1388 C 0.77436 0.29067 0.33502 0.0
C1389 C 0.78466 0.30686 0.33063 0.0
C1390 C 0.76864 0.27864 0.31971 0.0
C1391 C 0.77318 0.28265 0.29991 0.0
C1392 C 0.78258 0.29929 0.29558 0.0
H1393 H 0.75369 0.23285 0.18344 0.0
H1394 H 0.76442 0.25271 0.21099 0.0
C1395 C 0.78831 0.31117 0.31071 0.0
C1396 C 0.76837 0.2696 0.28355 0.0
H1397 H 0.78771 0.24437 0.24571 0.0
C1398 C 0.74951 0.26619 0.27928 0.0
C1399 C 0.78233 0.2615 0.27137 0.0
C1400 C 0.80285 0.26401 0.27568 0.0
C1401 C 0.74423 0.25527 0.26293 0.0
C1402 C 0.75818 0.2473 0.25067 0.0
C1403 C 0.77704 0.25062 0.255 0.0
C1404 C 0.75335 0.23475 0.2339 0.0
C1405 C 0.72371 0.25265 0.25864 0.0
C1406 C 0.74433 0.21778 0.23767 0.0
C1407 C 0.73834 0.2065 0.22211 0.0
C1408 C 0.74131 0.21183 0.20234 0.0
C1409 C 0.7513 0.22833 0.19849 0.0
C1410 C 0.7573 0.23972 0.21421 0.0
H1411 H 0.71501 0.26335 0.26617 0.0
H1412 H 0.72095 0.25331 0.24251 0.0
H1413 H 0.71927 0.23871 0.26402 0.0
H1414 H 0.74152 0.21343 0.25272 0.0
H1415 H 0.73086 0.19378 0.22561 0.0
H1416 H 0.74582 0.28977 0.68522 0.0
H1417 H 0.75573 0.26903 0.71232 0.0
H1418 H 0.73792 0.31019 0.75487 0.0
H1419 H 0.72794 0.33069 0.72818 0.0
H1420 H 0.78091 0.27429 0.74445 0.0
H1421 H 0.70851 0.26376 0.77148 0.0
H1422 H 0.7136 0.27363 0.74753 0.0
H1423 H 0.71516 0.28784 0.76938 0.0
C1424 C 0.74429 0.29445 0.70035 0.0
C1425 C 0.73595 0.31179 0.70455 0.0
C1426 C 0.74984 0.28257 0.71582 0.0
C1427 C 0.7471 0.28787 0.73565 0.0
C1428 C 0.73969 0.30557 0.73974 0.0
H1429 H 0.77147 0.23548 0.85043 0.0
H1430 H 0.76045 0.25707 0.8245 0.0
C1431 C 0.7341 0.31733 0.72441 0.0
C1432 C 0.75178 0.275 0.7522 0.0
H1433 H 0.7329 0.25239 0.79205 0.0
C1434 C 0.7704 0.26942 0.75479 0.0
C1435 C 0.73806 0.26875 0.7658 0.0
C1436 C 0.71768 0.27364 0.76336 0.0
C1437 C 0.77572 0.25799 0.77071 0.0
C1438 C 0.762 0.2517 0.78426 0.0
C1439 C 0.7434 0.25733 0.78176 0.0
C1440 C 0.76668 0.23829 0.80028 0.0
C1441 C 0.79605 0.25287 0.77305 0.0
C1442 C 0.77299 0.22038 0.79533 0.0
C1443 C 0.77918 0.20816 0.80997 0.0
C1444 C 0.77908 0.21347 0.82999 0.0
C1445 C 0.77164 0.23099 0.83516 0.0
C1446 C 0.76546 0.24334 0.82035 0.0
H1447 H 0.8053 0.26255 0.76476 0.0
H1448 H 0.8002 0.25299 0.78885 0.0
H1449 H 0.79834 0.23856 0.76721 0.0
H1450 H 0.77365 0.21602 0.78001 0.0
H1451 H 0.78462 0.19468 0.80549 0.0
H1452 H 0.74999 0.78583 0.34974 0.0
H1453 H 0.76289 0.7661 0.3231 0.0
H1454 H 0.7321 0.798 0.28001 0.0
H1455 H 0.71944 0.81757 0.3061 0.0
H1456 H 0.7417 0.74431 0.29513 0.0
H1457 H 0.78509 0.79733 0.25703 0.0
H1458 H 0.77683 0.80034 0.28205 0.0
H1459 H 0.76152 0.80478 0.26152 0.0
C1460 C 0.74622 0.78874 0.33456 0.0
C1461 C 0.73371 0.80328 0.33007 0.0
C1462 C 0.75352 0.77745 0.31937 0.0
C1463 C 0.74865 0.78075 0.29951 0.0
C1464 C 0.73635 0.79539 0.29512 0.0
H1465 H 0.77104 0.72857 0.18443 0.0
H1466 H 0.75819 0.7481 0.21123 0.0
C1467 C 0.72902 0.8065 0.31016 0.0
C1468 C 0.75549 0.76852 0.28326 0.0
H1469 H 0.77896 0.76928 0.23923 0.0
C1470 C 0.75001 0.74971 0.28301 0.0
C1471 C 0.76608 0.77565 0.26728 0.0
C1472 C 0.77288 0.79559 0.267 0.0
C1473 C 0.75457 0.73792 0.26708 0.0
C1474 C 0.76518 0.74505 0.2511 0.0
C1475 C 0.77067 0.76386 0.25136 0.0
C1476 C 0.77191 0.73286 0.23475 0.0
C1477 C 0.74766 0.71802 0.26733 0.0
C1478 C 0.78388 0.71792 0.23904 0.0
C1479 C 0.79116 0.70688 0.2239 0.0
C1480 C 0.78675 0.71049 0.20399 0.0
C1481 C 0.77455 0.72533 0.19961 0.0
C1482 C 0.7673 0.73652 0.21489 0.0
H1483 H 0.73533 0.71638 0.27715 0.0
H1484 H 0.74384 0.71324 0.25225 0.0
H1485 H 0.75891 0.70879 0.27299 0.0
H1486 H 0.78797 0.71503 0.25414 0.0
H1487 H 0.80052 0.69559 0.22787 0.0
H1488 H 0.43844 0.53667 0.98704 0.0
H1489 H 0.45914 0.52572 1.01306 0.0
H1490 H 0.49561 0.50131 0.96936 0.0
H1491 H 0.4749 0.51271 0.9429 0.0
H1492 H 0.47155 0.49132 0.02437 0.0
H1493 H 0.53071 0.53584 0.9998 0.0
H1494 H 0.5074 0.53849 0.99007 0.0
H1495 H 0.52212 0.51981 0.98152 0.0
C1496 C 0.45079 0.52884 0.98288 0.0
C1497 C 0.45512 0.5257 0.96286 0.0
C1498 C 0.4626 0.52255 0.99783 0.0
C1499 C 0.47912 0.51301 0.99321 0.0
C1500 C 0.48311 0.509 0.97326 0.0
H1501 H 0.56898 0.4712 0.06517 0.0
H1502 H 0.54761 0.48059 0.03911 0.0
C1503 C 0.47119 0.51532 0.95817 0.0
C1504 C 0.49222 0.50797 1.00944 0.0
H1505 H 0.53604 0.51637 0.02739 0.0
C1506 C 0.48566 0.49678 0.02503 0.0
C1507 C 0.51056 0.51529 1.01042 0.0
C1508 C 0.51813 0.52816 0.99468 0.0
C1509 C 0.49701 0.49247 0.04137 0.0
C1510 C 0.51534 0.49976 0.0423 0.0
C1511 C 0.52193 0.51091 0.02671 0.0
C1512 C 0.5284 0.49488 0.05858 0.0
C1513 C 0.48945 0.47981 0.05728 0.0
C1514 C 0.52493 0.50011 0.07831 0.0
C1515 C 0.53729 0.49477 0.09345 0.0
C1516 C 0.55322 0.48407 0.08902 0.0
C1517 C 0.55678 0.47931 0.06918 0.0
C1518 C 0.54458 0.4847 0.05418 0.0
H1519 H 0.47654 0.47249 0.05252 0.0
H1520 H 0.50003 0.4692 0.06157 0.0
H1521 H 0.48609 0.48824 0.07058 0.0
H1522 H 0.51264 0.50823 0.082 0.0
H1523 H 0.53417 0.49862 0.10857 0.0
H1524 H 0.95404 0.5492 0.55024 0.0
H1525 H 0.97462 0.53715 0.52478 0.0
H1526 H 1.00141 0.50142 0.56751 0.0
H1527 H 0.98046 0.51348 0.59349 0.0
H1528 H 0.01329 0.53911 0.52317 0.0
H1529 H 0.98843 0.46556 0.52179 0.0
H1530 H 0.97544 0.48404 0.5337 0.0
H1531 H 0.99566 0.47425 0.54551 0.0
C1532 C 0.96422 0.53872 0.55439 0.0
C1533 C 0.96555 0.5323 0.57401 0.0
C1534 C 0.97603 0.53186 0.53971 0.0
C1535 C 0.98949 0.51831 0.54413 0.0
C1536 C 0.99092 0.51171 0.56368 0.0
H1537 H 0.07163 0.46273 0.47168 0.0
H1538 H 0.05174 0.47466 0.49784 0.0
C1539 C 0.979 0.51862 0.57853 0.0
C1540 C 1.00206 0.5116 0.52809 0.0
H1541 H 0.01341 0.47325 0.50053 0.0
C1542 C 0.01334 0.52469 0.51823 0.0
C1543 C 1.00202 0.49284 0.52155 0.0
C1544 C 0.98965 0.47833 0.53103 0.0
C1545 C 0.02474 0.5195 0.5022 0.0
C1546 C 0.02463 0.50075 0.4956 0.0
C1547 C 0.0134 0.48765 0.50551 0.0
C1548 C 0.03685 0.49414 0.47922 0.0
C1549 C 0.03711 0.53402 0.49276 0.0
C1550 C 0.03519 0.50113 0.45984 0.0
C1551 C 0.04672 0.49431 0.44461 0.0
C1552 C 0.05999 0.48031 0.44855 0.0
C1553 C 0.06157 0.47348 0.46799 0.0
C1554 C 0.05015 0.48027 0.48307 0.0
H1555 H 0.0387 0.54657 0.50227 0.0
H1556 H 0.05118 0.5282 0.48961 0.0
H1557 H 0.03083 0.53851 0.47855 0.0
H1558 H 0.0248 0.51165 0.45643 0.0
H1559 H 0.04506 0.49976 0.42979 0.0
H1560 H 0.07417 0.55061 0.0516 0.0
H1561 H 0.05428 0.53909 0.02527 0.0
H1562 H 0.02588 0.50313 0.06658 0.0
H1563 H 0.0457 0.51505 0.09351 0.0
H1564 H 0.04964 0.50446 1.0102 0.0
H1565 H 0.98258 0.53073 0.0408 0.0
H1566 H 1.00495 0.53776 0.05058 0.0
H1567 H 0.99525 0.51541 0.05699 0.0
C1568 C 0.06371 0.54024 0.05525 0.0
C1569 C 0.06148 0.53384 0.07478 0.0
C1570 C 0.05234 0.53363 0.04006 0.0
C1571 C 0.03838 0.52044 0.0439 0.0
C1572 C 0.03632 0.51361 0.0633 0.0
H1573 H 0.95782 0.46467 0.97072 0.0
H1574 H 0.97823 0.47625 0.99654 0.0
C1575 C 0.04775 0.5203 0.07866 0.0
C1576 C 0.02619 0.51406 0.02738 0.0
H1577 H 0.98089 0.51273 1.01151 0.0
C1578 C 0.0346 0.5063 1.01048 0.0
C1579 C 1.00658 0.51663 0.02764 0.0
C1580 C 0.99677 0.52574 0.04487 0.0
C1581 C 0.02395 0.50074 0.99403 0.0
C1582 C 1.00436 0.50319 0.99436 0.0
C1583 C 0.99594 0.51097 1.01123 0.0
C1584 C 0.99216 0.49649 0.97803 0.0
C1585 C 0.03368 0.49184 0.97663 0.0
C1586 C 0.99308 0.50409 0.95886 0.0
C1587 C 0.98126 0.49745 0.9438 0.0
C1588 C 0.96838 0.48311 0.94775 0.0
C1589 C 0.96756 0.47569 0.96701 0.0
C1590 C 0.97923 0.48232 0.98191 0.0
H1591 H 0.04828 0.48776 0.98019 0.0
H1592 H 0.02597 0.47926 0.97159 0.0
H1593 H 0.03407 0.50192 0.96419 0.0
H1594 H 1.00282 0.51524 0.95559 0.0
H1595 H 0.98222 0.50348 0.92917 0.0
H1596 H 0.56605 0.54708 0.48754 0.0
H1597 H 0.54429 0.53714 0.51294 0.0
H1598 H 0.5087 0.51285 0.46842 0.0
H1599 H 0.53089 0.52267 0.44256 0.0
H1600 H 0.50806 0.5478 0.51765 0.0
H1601 H 0.51295 0.47077 0.50884 0.0
H1602 H 0.52954 0.48655 0.4977 0.0
H1603 H 0.50688 0.48339 0.48681 0.0
C1604 C 0.55368 0.5395 0.48303 0.0
C1605 C 0.55021 0.53568 0.46295 0.0
C1606 C 0.5412 0.53385 0.49765 0.0
C1607 C 0.52486 0.5242 0.4927 0.0
C1608 C 0.52137 0.52005 0.47267 0.0
H1609 H 0.43583 0.48111 0.56644 0.0
H1610 H 0.45488 0.49285 0.53936 0.0
C1611 C 0.53403 0.52566 0.45789 0.0
C1612 C 0.51149 0.51911 0.5087 0.0
H1613 H 0.4914 0.48209 0.53238 0.0
C1614 C 0.50439 0.53342 0.52084 0.0
C1615 C 0.50676 0.50036 0.51296 0.0
C1616 C 0.51452 0.48433 0.50103 0.0
C1617 C 0.49266 0.52951 0.53701 0.0
C1618 C 0.48806 0.51076 0.54134 0.0
C1619 C 0.49498 0.49647 0.52909 0.0
C1620 C 0.47569 0.50556 0.55817 0.0
C1621 C 0.48506 0.54549 0.54912 0.0
C1622 C 0.48078 0.50917 0.57792 0.0
C1623 C 0.46974 0.50252 0.59361 0.0
C1624 C 0.45359 0.492 0.58973 0.0
C1625 C 0.44824 0.48909 0.56996 0.0
C1626 C 0.45915 0.49576 0.55441 0.0
H1627 H 0.48623 0.55903 0.54119 0.0
H1628 H 0.47019 0.5431 0.553 0.0
H1629 H 0.49314 0.54659 0.56306 0.0
H1630 H 0.49364 0.51648 0.58121 0.0
H1631 H 0.47435 0.50476 0.60866 0.0
H1632 H 0.36154 0.26259 0.16737 0.0
H1633 H 0.36535 0.22924 0.17268 0.0
H1634 H 0.30731 0.22038 0.15852 0.0
H1635 H 0.30351 0.25398 0.1524 0.0
H1636 H 0.34796 0.20451 0.19836 0.0
H1637 H 0.33433 0.18574 0.11973 0.0
H1638 H 0.33835 0.20953 0.12738 0.0
H1639 H 0.31637 0.1985 0.13251 0.0
C1640 C 0.34958 0.25361 0.16517 0.0
C1641 C 0.33231 0.26098 0.15903 0.0
C1642 C 0.35174 0.23452 0.16845 0.0
C1643 C 0.33671 0.22226 0.16573 0.0
C1644 C 0.3192 0.22955 0.16038 0.0
H1645 H 0.3599 0.10121 0.15877 0.0
H1646 H 0.34094 0.12945 0.16432 0.0
C1647 C 0.31701 0.24878 0.15704 0.0
C1648 C 0.34002 0.20187 0.16779 0.0
H1649 H 0.34549 0.16211 0.14046 0.0
C1650 C 0.34708 0.19514 0.1858 0.0
C1651 C 0.33877 0.1896 0.15143 0.0
C1652 C 0.33166 0.19613 0.1316 0.0
C1653 C 0.35391 0.17683 0.18756 0.0
C1654 C 0.35382 0.165 0.17085 0.0
C1655 C 0.34553 0.17125 0.15325 0.0
C1656 C 0.36462 0.14732 0.17037 0.0
C1657 C 0.36181 0.1705 0.20709 0.0
C1658 C 0.38414 0.14799 0.17214 0.0
C1659 C 0.3949 0.13204 0.16884 0.0
C1660 C 0.38636 0.11505 0.16378 0.0
C1661 C 0.36677 0.11411 0.16289 0.0
C1662 C 0.35597 0.13021 0.16596 0.0
H1663 H 0.35562 0.17846 0.21958 0.0
H1664 H 0.35932 0.15537 0.2095 0.0
H1665 H 0.37711 0.17297 0.2072 0.0
H1666 H 0.39114 0.1611 0.17514 0.0
H1667 H 0.40998 0.13312 0.16954 0.0
H1668 H 0.99059 0.11771 0.39891 0.0
H1669 H 0.02418 0.12366 0.39866 0.0
H1670 H 0.03373 0.07209 0.42999 0.0
H1671 H 1.00004 0.06603 0.43027 0.0
H1672 H 0.04788 0.12756 0.43098 0.0
H1673 H 0.06993 0.06812 0.38328 0.0
H1674 H 0.04589 0.07553 0.38517 0.0
H1675 H 0.05635 0.06218 0.40471 0.0
C1676 C 0.99982 0.10764 0.40577 0.0
C1677 C 0.99264 0.09138 0.41456 0.0
C1678 C 0.01902 0.11103 0.40557 0.0
C1679 C 0.03148 0.09823 0.41412 0.0
C1680 C 0.0244 0.08197 0.42294 0.0
H1681 H 0.15449 0.11237 0.41565 0.0
H1682 H 0.12327 0.10032 0.42422 0.0
C1683 C 1.00515 0.07852 0.42308 0.0
C1684 C 0.05178 0.10235 0.41408 0.0
H1685 H 0.09358 0.0883 0.39465 0.0
C1686 C 0.05789 0.11886 0.4232 0.0
C1687 C 0.06486 0.09092 0.40405 0.0
C1688 C 0.059 0.07326 0.3936 0.0
C1689 C 0.07659 0.12458 0.422 0.0
C1690 C 0.08947 0.11359 0.41126 0.0
C1691 C 0.08362 0.09664 0.40292 0.0
C1692 C 0.10838 0.12063 0.40656 0.0
C1693 C 0.08237 0.14261 0.43178 0.0
C1694 C 0.11022 0.13587 0.39374 0.0
C1695 C 0.12785 0.14264 0.38878 0.0
C1696 C 0.14406 0.13431 0.39653 0.0
C1697 C 0.14223 0.11908 0.40951 0.0
C1698 C 0.12447 0.11217 0.41435 0.0
H1699 H 0.07234 0.14686 0.44349 0.0
H1700 H 0.09651 0.14132 0.43839 0.0
H1701 H 0.08282 0.15386 0.42052 0.0
H1702 H 0.09797 0.14249 0.38746 0.0
H1703 H 0.12878 0.15456 0.37898 0.0
H1704 H 0.09128 0.87934 0.64494 0.0
H1705 H 0.10637 0.84878 0.64611 0.0
H1706 H 0.1506 0.87156 0.68194 0.0
H1707 H 0.13567 0.90247 0.68059 0.0
H1708 H 0.14545 0.84422 0.6318 0.0
H1709 H 0.13409 0.82053 0.70931 0.0
H1710 H 0.11886 0.83735 0.69758 0.0
H1711 H 0.14188 0.84413 0.70506 0.0
C1712 C 0.10417 0.87788 0.65317 0.0
C1713 C 0.11241 0.8934 0.66246 0.0
C1714 C 0.11271 0.86037 0.65392 0.0
C1715 C 0.12956 0.85793 0.66412 0.0
C1716 C 0.13747 0.87315 0.67416 0.0
H1717 H 0.19776 0.75556 0.66692 0.0
H1718 H 0.18556 0.78687 0.67421 0.0
C1719 C 0.12892 0.89077 0.67339 0.0
C1720 C 0.13947 0.83981 0.66261 0.0
H1721 H 0.14995 0.79987 0.68792 0.0
C1722 C 0.14655 0.83457 0.6441 0.0
C1723 C 0.14105 0.82738 0.67874 0.0
C1724 C 0.13354 0.83247 0.69884 0.0
C1725 C 0.15481 0.81703 0.64114 0.0
C1726 C 0.15562 0.8042 0.65702 0.0
C1727 C 0.14918 0.80969 0.67575 0.0
C1728 C 0.16226 0.78477 0.654 0.0
C1729 C 0.16257 0.81239 0.62098 0.0
C1730 C 0.15287 0.77303 0.64072 0.0
C1731 C 0.15977 0.75522 0.63654 0.0
C1732 C 0.17615 0.74868 0.64567 0.0
C1733 C 0.18508 0.76015 0.65968 0.0
C1734 C 0.17817 0.77805 0.66382 0.0
H1735 H 0.16583 0.82521 0.61241 0.0
H1736 H 0.17544 0.80379 0.62217 0.0
H1737 H 0.15201 0.80431 0.61256 0.0
H1738 H 0.1403 0.77776 0.63334 0.0
H1739 H 0.15232 0.74661 0.62603 0.0
H1740 H 0.51287 0.96104 0.89217 0.0
H1741 H 0.47896 0.95677 0.89264 0.0
H1742 H 0.48623 0.90148 0.91668 0.0
H1743 H 0.5199 0.90589 0.91708 0.0
H1744 H 0.45885 0.9317 0.87268 0.0
H1745 H 0.44587 0.92136 0.95231 0.0
H1746 H 0.46763 0.9306 0.94301 0.0
H1747 H 0.46366 0.90576 0.94361 0.0
C1748 C 0.50726 0.94811 0.89792 0.0
C1749 C 0.51922 0.93381 0.90457 0.0
C1750 C 0.48785 0.94567 0.89811 0.0
C1751 C 0.48 0.92894 0.90505 0.0
C1752 C 0.49189 0.9147 0.91174 0.0
H1753 H 0.38486 0.86856 0.87094 0.0
H1754 H 0.41462 0.88419 0.876 0.0
C1755 C 0.51124 0.91714 0.91163 0.0
C1756 C 0.45953 0.92563 0.90385 0.0
H1757 H 0.42247 0.90867 0.93012 0.0
C1758 C 0.45083 0.92701 0.88533 0.0
C1759 C 0.44889 0.91986 0.9204 0.0
C1760 C 0.45696 0.91951 0.94098 0.0
C1761 C 0.43217 0.92158 0.88267 0.0
C1762 C 0.42206 0.91421 0.89885 0.0
C1763 C 0.43032 0.91404 0.91765 0.0
C1764 C 0.40368 0.905 0.8961 0.0
C1765 C 0.42359 0.92341 0.8624 0.0
C1766 C 0.38768 0.91108 0.9063 0.0
C1767 C 0.37047 0.90208 0.90343 0.0
C1768 C 0.36907 0.88687 0.89035 0.0
C1769 C 0.38529 0.88059 0.88064 0.0
C1770 C 0.40235 0.88951 0.88352 0.0
H1771 H 0.43045 0.93466 0.85373 0.0
H1772 H 0.42551 0.91011 0.85422 0.0
H1773 H 0.4084 0.92644 0.86333 0.0
H1774 H 0.38847 0.92288 0.91628 0.0
H1775 H 0.35826 0.9072 0.91117 0.0
H1776 H 0.39021 0.90198 0.35145 0.0
H1777 H 0.37453 0.87262 0.34319 0.0
H1778 H 0.34691 0.8732 0.39983 0.0
H1779 H 0.36184 0.90282 0.40781 0.0
H1780 H 0.37993 0.84067 0.36256 0.0
H1781 H 0.30465 0.857 0.36504 0.0
H1782 H 0.32226 0.875 0.36364 0.0
H1783 H 0.31601 0.86487 0.38711 0.0
C1784 C 0.38032 0.89617 0.36187 0.0
C1785 C 0.37736 0.90471 0.38034 0.0
C1786 C 0.37146 0.87932 0.35717 0.0
C1787 C 0.35937 0.87076 0.37078 0.0
C1788 C 0.35582 0.87968 0.38888 0.0
H1789 H 0.32224 0.76605 0.40828 0.0
H1790 H 0.33002 0.7986 0.40146 0.0
C1791 C 0.3646 0.89652 0.39355 0.0
C1792 C 0.35222 0.85157 0.36726 0.0
H1793 H 0.31307 0.82461 0.37143 0.0
C1794 C 0.36524 0.83721 0.36398 0.0
C1795 C 0.33305 0.84703 0.36906 0.0
C1796 C 0.3182 0.86185 0.37119 0.0
C1797 C 0.35979 0.81837 0.36383 0.0
C1798 C 0.34082 0.81382 0.36693 0.0
C1799 C 0.32763 0.82818 0.36915 0.0
C1800 C 0.33485 0.79428 0.37025 0.0
C1801 C 0.37448 0.8034 0.36156 0.0
C1802 C 0.33471 0.78113 0.35486 0.0
C1803 C 0.33026 0.76242 0.35874 0.0
C1804 C 0.32607 0.75661 0.37809 0.0
C1805 C 0.32576 0.76999 0.3933 0.0
C1806 C 0.33004 0.78863 0.3894 0.0
H1807 H 0.38884 0.80925 0.36106 0.0
H1808 H 0.37359 0.79333 0.37401 0.0
H1809 H 0.37196 0.79553 0.34769 0.0
H1810 H 0.33829 0.78529 0.33995 0.0
H1811 H 0.33063 0.75242 0.34674 0.0
H1812 H 0.3734 0.146 0.59592 0.0
H1813 H 0.40381 0.13093 0.59122 0.0
H1814 H 0.40267 0.11178 0.65162 0.0
H1815 H 0.37202 0.12587 0.6561 0.0
H1816 H 0.43503 0.13981 0.60933 0.0
H1817 H 0.42105 0.06555 0.62497 0.0
H1818 H 0.40251 0.08215 0.62058 0.0
H1819 H 0.41272 0.07988 0.64481 0.0
C1820 C 0.37938 0.13813 0.60803 0.0
C1821 C 0.37029 0.13726 0.62644 0.0
C1822 C 0.39683 0.12961 0.60535 0.0
C1823 C 0.40547 0.11999 0.62098 0.0
C1824 C 0.39616 0.1187 0.63917 0.0
H1825 H 0.52095 0.11284 0.64929 0.0
H1826 H 0.48781 0.11979 0.64496 0.0
C1827 C 0.37872 0.12707 0.64182 0.0
C1828 C 0.42496 0.113 0.61908 0.0
H1829 H 0.4531 0.07574 0.62968 0.0
C1830 C 0.43891 0.12569 0.61345 0.0
C1831 C 0.4301 0.09449 0.62411 0.0
C1832 C 0.41575 0.07971 0.62873 0.0
C1833 C 0.45787 0.12073 0.6138 0.0
C1834 C 0.46309 0.10273 0.62047 0.0
C1835 C 0.44912 0.08966 0.62496 0.0
C1836 C 0.48296 0.09765 0.62379 0.0
C1837 C 0.47213 0.13493 0.60717 0.0
C1838 C 0.49107 0.0823 0.61408 0.0
C1839 C 0.51005 0.07817 0.61673 0.0
C1840 C 0.52118 0.08935 0.62911 0.0
C1841 C 0.51281 0.10423 0.63935 0.0
C1842 C 0.49389 0.10825 0.63683 0.0
H1843 H 0.46594 0.14514 0.59669 0.0
H1844 H 0.47721 0.14282 0.62022 0.0
H1845 H 0.48428 0.1281 0.59995 0.0
H1846 H 0.48284 0.07382 0.60409 0.0
H1847 H 0.51614 0.06667 0.60857 0.0
H1848 H 0.15235 0.26682 0.85861 0.0
H1849 H 0.14624 0.2333 0.85966 0.0
H1850 H 0.19976 0.22413 0.88719 0.0
H1851 H 0.20572 0.25773 0.88688 0.0
H1852 H 0.16589 0.20317 0.84346 0.0
H1853 H 0.16353 0.19894 0.92544 0.0
H1854 H 0.16284 0.22088 0.91238 0.0
H1855 H 0.18461 0.2087 0.91545 0.0
C1856 C 0.16278 0.25774 0.86507 0.0
C1857 C 0.17946 0.26508 0.87286 0.0
C1858 C 0.15932 0.23854 0.86549 0.0
C1859 C 0.17242 0.22624 0.87376 0.0
C1860 C 0.18931 0.2334 0.88104 0.0
H1861 H 0.16229 0.10689 0.89921 0.0
H1862 H 0.17538 0.13793 0.89298 0.0
C1863 C 0.19278 0.25263 0.88066 0.0
C1864 C 0.16814 0.206 0.87505 0.0
H1865 H 0.1602 0.17071 0.90791 0.0
C1866 C 0.16471 0.19604 0.85754 0.0
C1867 C 0.16664 0.19671 0.89344 0.0
C1868 C 0.16943 0.20684 0.91278 0.0
C1869 C 0.15973 0.17706 0.85794 0.0
C1870 C 0.15788 0.16789 0.87634 0.0
C1871 C 0.16171 0.17774 0.89381 0.0
C1872 C 0.15085 0.14846 0.87801 0.0
C1873 C 0.15655 0.16698 0.83866 0.0
C1874 C 0.13279 0.14401 0.87149 0.0
C1875 C 0.12524 0.12634 0.87511 0.0
C1876 C 0.13556 0.11275 0.88544 0.0
C1877 C 0.1539 0.11706 0.89137 0.0
C1878 C 0.16143 0.13477 0.88776 0.0
H1879 H 0.16382 0.17403 0.82622 0.0
H1880 H 0.16144 0.15228 0.8395 0.0
H1881 H 0.14138 0.16688 0.83531 0.0
H1882 H 0.12419 0.15448 0.86436 0.0
H1883 H 0.11095 0.1237 0.87069 0.0
H1884 H 0.13197 0.85554 0.12082 0.0
H1885 H 0.10219 0.87217 0.1186 0.0
H1886 H 0.13088 0.92469 0.12559 0.0
H1887 H 0.16091 0.90796 0.12767 0.0
H1888 H 0.10061 0.91749 0.15317 0.0
H1889 H 0.07875 0.90626 0.07559 0.0
H1890 H 0.08697 0.88544 0.0876 0.0
H1891 H 0.10281 0.90453 0.08349 0.0
C1892 C 0.13196 0.87066 0.12139 0.0
C1893 C 0.14869 0.8805 0.12431 0.0
C1894 C 0.11496 0.88015 0.12006 0.0
C1895 C 0.11433 0.89967 0.12175 0.0
C1896 C 0.1311 0.90963 0.12408 0.0
H1897 H 1.00853 0.95999 0.14606 0.0
H1898 H 0.04183 0.95477 0.13967 0.0
C1899 C 0.14821 0.90011 0.12515 0.0
C1900 C 0.09594 0.90918 0.12303 0.0
H1901 H 0.05442 0.91369 0.09872 0.0
C1902 C 0.09059 0.91707 0.14116 0.0
C1903 C 0.08294 0.90854 0.10735 0.0
C1904 C 0.08817 0.90089 0.08734 0.0
C1905 C 0.07217 0.9232 0.14446 0.0
C1906 C 0.05889 0.92173 0.12903 0.0
C1907 C 0.06457 0.91475 0.11057 0.0
C1908 C 0.03869 0.92553 0.13228 0.0
C1909 C 0.06682 0.93008 0.16477 0.0
C1910 C 0.02578 0.91101 0.12974 0.0
C1911 C 1.00679 0.91399 0.13312 0.0
C1912 C 1.00014 0.9316 0.13917 0.0
C1913 C 0.01308 0.94626 0.14141 0.0
C1914 C 0.03217 0.94325 0.13794 0.0
H1915 H 0.07771 0.92688 0.17596 0.0
H1916 H 0.0649 0.94545 0.16432 0.0
H1917 H 0.05344 0.92371 0.16962 0.0
H1918 H 0.03045 0.89723 0.12527 0.0
H1919 H 0.99732 0.90244 0.13077 0.0
H1920 H 0.65443 0.75366 0.86836 0.0
H1921 H 0.65195 0.7874 0.86586 0.0
H1922 H 0.70969 0.79297 0.88303 0.0
H1923 H 0.71208 0.75891 0.88635 0.0
H1924 H 0.68767 0.8159 0.90397 0.0
H1925 H 0.66977 0.82418 0.82529 0.0
H1926 H 0.65442 0.80761 0.83666 0.0
H1927 H 0.67907 0.80264 0.83509 0.0
C1928 C 0.66664 0.76198 0.87164 0.0
C1929 C 0.68342 0.75351 0.87776 0.0
C1930 C 0.66529 0.78133 0.86985 0.0
C1931 C 0.68073 0.79277 0.87385 0.0
C1932 C 0.69764 0.78441 0.87964 0.0
H1933 H 0.65654 0.91379 0.86203 0.0
H1934 H 0.67285 0.88385 0.85713 0.0
C1935 C 0.69901 0.76494 0.88147 0.0
C1936 C 0.6784 0.81341 0.87379 0.0
H1937 H 0.65874 0.84892 0.84725 0.0
C1938 C 0.68176 0.82321 0.8914 0.0
C1939 C 0.67104 0.82313 0.85731 0.0
C1940 C 0.66858 0.81385 0.83747 0.0
C1941 C 0.67654 0.84201 0.89346 0.0
C1942 C 0.66739 0.85114 0.87763 0.0
C1943 C 0.66545 0.84183 0.85951 0.0
C1944 C 0.65795 0.86944 0.88039 0.0
C1945 C 0.68039 0.85175 0.9128 0.0
C1946 C 0.64386 0.8711 0.89467 0.0
C1947 C 0.63456 0.888 0.89743 0.0
C1948 C 0.63903 0.90372 0.8859 0.0
C1949 C 0.65282 0.90196 0.87119 0.0
C1950 C 0.66219 0.88492 0.86843 0.0
H1951 H 0.69274 0.84561 0.92033 0.0
H1952 H 0.68285 0.86692 0.91061 0.0
H1953 H 0.66818 0.85 0.92273 0.0
H1954 H 0.63988 0.85919 0.9036 0.0
H1955 H 0.62363 0.88866 0.90847 0.0
H1956 H 0.99246 0.95142 0.66643 0.0
H1957 H 0.96175 0.94135 0.65505 0.0
H1958 H 0.98529 0.92579 0.59875 0.0
H1959 H 0.01635 0.93569 0.61023 0.0
H1960 H 0.94028 0.95259 0.61964 0.0
H1961 H 0.96009 0.87724 0.62166 0.0
H1962 H 0.97353 0.89478 0.6345 0.0
H1963 H 0.97471 0.89318 0.60809 0.0
C1964 C 0.99115 0.94583 0.65164 0.0
C1965 C 1.00688 0.94408 0.63934 0.0
C1966 C 0.97356 0.94024 0.64509 0.0
C1967 C 0.97129 0.93268 0.62615 0.0
C1968 C 0.98681 0.93147 0.6135 0.0
H1969 H 0.86908 0.86944 0.60041 0.0
H1970 H 0.89845 0.88579 0.59346 0.0
C1971 C 1.00448 0.9372 0.62002 0.0
C1972 C 0.95278 0.92524 0.6204 0.0
H1973 H 0.92848 0.88437 0.61728 0.0
C1974 C 0.93771 0.93768 0.61874 0.0
C1975 C 0.94951 0.90581 0.61909 0.0
C1976 C 0.96523 0.89187 0.62099 0.0
C1977 C 0.91931 0.93117 0.6167 0.0
C1978 C 0.91589 0.9117 0.61683 0.0
C1979 C 0.93109 0.89929 0.61724 0.0
C1980 C 0.89678 0.90389 0.61902 0.0
C1981 C 0.9037 0.94522 0.61486 0.0
C1982 C 0.88592 0.90882 0.63549 0.0
C1983 C 0.86915 0.89961 0.63942 0.0
C1984 C 0.86294 0.88508 0.62708 0.0
C1985 C 0.8734 0.88069 0.61009 0.0
C1986 C 0.89023 0.88994 0.60616 0.0
H1987 H 0.90867 0.95824 0.60764 0.0
H1988 H 0.8918 0.93954 0.60623 0.0
H1989 H 0.89864 0.949 0.62983 0.0
H1990 H 0.89083 0.91921 0.64589 0.0
H1991 H 0.86135 0.90343 0.65252 0.0
H1992 H 0.85061 0.10966 0.41764 0.0
H1993 H 0.8359 0.14019 0.41262 0.0
H1994 H 0.87522 0.15218 0.36602 0.0
H1995 H 0.88975 0.12167 0.37078 0.0
H1996 H 0.85262 0.17283 0.41854 0.0
H1997 H 0.82797 0.17098 0.34125 0.0
H1998 H 0.83471 0.15012 0.35442 0.0
H1999 H 0.85214 0.16464 0.34293 0.0
C2000 C 0.85587 0.11868 0.40606 0.0
C2001 C 0.87133 0.11323 0.39459 0.0
C2002 C 0.84744 0.13611 0.40319 0.0
C2003 C 0.85428 0.14845 0.38878 0.0
C2004 C 0.86931 0.14276 0.37685 0.0
H2005 H 0.85787 0.26434 0.36439 0.0
H2006 H 0.86029 0.23037 0.36621 0.0
C2007 C 0.87765 0.12528 0.37961 0.0
C2008 C 0.84716 0.16796 0.38766 0.0
H2009 H 0.83264 0.20166 0.35537 0.0
C2010 C 0.84788 0.17902 0.40481 0.0
C2011 C 0.84096 0.17609 0.36975 0.0
C2012 C 0.83871 0.16477 0.35111 0.0
C2013 C 0.84352 0.19815 0.40431 0.0
C2014 C 0.83818 0.20643 0.38621 0.0
C2015 C 0.83679 0.19527 0.36922 0.0
C2016 C 0.83566 0.22691 0.38433 0.0
C2017 C 0.84557 0.2096 0.42291 0.0
C2018 C 0.82081 0.23622 0.39367 0.0
C2019 C 0.8194 0.25574 0.39269 0.0
C2020 C 0.8329 0.26622 0.38245 0.0
C2021 C 0.84746 0.25673 0.37271 0.0
C2022 C 0.84877 0.23729 0.37359 0.0
H2023 H 0.85229 0.20159 0.43504 0.0
H2024 H 0.85398 0.22232 0.41996 0.0
H2025 H 0.83155 0.21417 0.42801 0.0
H2026 H 0.81045 0.22842 0.40191 0.0
H2027 H 0.80806 0.26265 0.40035 0.0
H2028 H 0.50441 0.1086 0.15618 0.0
H2029 H 0.5363 0.11813 0.14868 0.0
H2030 H 0.53971 0.07599 0.10333 0.0
H2031 H 0.50774 0.06602 0.11101 0.0
H2032 H 0.56859 0.09281 0.1503 0.0
H2033 H 0.55796 0.12641 0.07691 0.0
H2034 H 0.53903 0.1233 0.09425 0.0
H2035 H 0.5481 0.1036 0.08101 0.0
C2036 C 0.51188 0.10126 0.14465 0.0
C2037 C 0.50349 0.08641 0.13433 0.0
C2038 C 0.5301 0.10681 0.14031 0.0
C2039 C 0.54033 0.0978 0.12544 0.0
C2040 C 0.53196 0.08325 0.11474 0.0
H2041 H 0.66174 0.11896 0.12192 0.0
H2042 H 0.63206 0.10224 0.11752 0.0
C2043 C 0.51367 0.07761 0.11912 0.0
C2044 C 0.56001 0.10331 0.12196 0.0
H2045 H 0.58816 0.12788 0.09059 0.0
C2046 C 0.573 0.10022 0.13712 0.0
C2047 C 0.56559 0.11304 0.10478 0.0
C2048 C 0.552 0.11693 0.08827 0.0
C2049 C 0.59129 0.10716 0.13589 0.0
C2050 C 0.59678 0.11731 0.11893 0.0
C2051 C 0.58395 0.11993 0.10347 0.0
C2052 C 0.61498 0.12718 0.11818 0.0
C2053 C 0.60429 0.10443 0.15321 0.0
C2054 C 0.61525 0.14674 0.11909 0.0
C2055 C 0.63209 0.15627 0.12153 0.0
C2056 C 0.64904 0.14642 0.12303 0.0
C2057 C 0.6489 0.1269 0.12078 0.0
C2058 C 0.63197 0.11734 0.11841 0.0
H2059 H 0.59693 0.09879 0.16638 0.0
H2060 H 0.61548 0.09446 0.14905 0.0
H2061 H 0.61101 0.11785 0.15733 0.0
H2062 H 0.60231 0.15461 0.11888 0.0
H2063 H 0.6318 0.17134 0.12297 0.0
H2064 H 0.65745 0.26652 0.67023 0.0
H2065 H 0.65513 0.23272 0.67242 0.0
H2066 H 0.71194 0.22735 0.65196 0.0
H2067 H 0.71414 0.26141 0.64897 0.0
H2068 H 0.68897 0.20505 0.63172 0.0
H2069 H 0.67476 0.19492 0.71101 0.0
H2070 H 0.65893 0.21179 0.70092 0.0
H2071 H 0.68363 0.21667 0.7013 0.0
C2072 C 0.66949 0.25822 0.66618 0.0
C2073 C 0.68593 0.26674 0.65922 0.0
C2074 C 0.66825 0.23884 0.6678 0.0
C2075 C 0.68348 0.22745 0.66275 0.0
C2076 C 0.70008 0.23587 0.65617 0.0
H2077 H 0.65982 0.10596 0.67101 0.0
H2078 H 0.67644 0.13563 0.6765 0.0
C2079 C 0.70133 0.25535 0.65452 0.0
C2080 C 0.68114 0.20683 0.66242 0.0
H2081 H 0.66263 0.17073 0.68898 0.0
C2082 C 0.68364 0.19746 0.64439 0.0
C2083 C 0.67454 0.19674 0.679 0.0
C2084 C 0.67302 0.20554 0.69919 0.0
C2085 C 0.67827 0.17875 0.6421 0.0
C2086 C 0.66984 0.16927 0.65813 0.0
C2087 C 0.66879 0.17811 0.6766 0.0
C2088 C 0.66006 0.15121 0.65527 0.0
C2089 C 0.68107 0.16949 0.62228 0.0
C2090 C 0.64506 0.15032 0.64201 0.0
C2091 C 0.63559 0.13359 0.63895 0.0
C2092 C 0.64083 0.11728 0.64912 0.0
C2093 C 0.65551 0.11827 0.66291 0.0
C2094 C 0.66505 0.13515 0.66598 0.0
H2095 H 0.69294 0.17585 0.61414 0.0
H2096 H 0.68369 0.15428 0.62392 0.0
H2097 H 0.6683 0.17143 0.6132 0.0
H2098 H 0.64058 0.16267 0.63407 0.0
H2099 H 0.62399 0.1335 0.62869 0.0
H2100 H 0.65196 0.90319 0.37378 0.0
H2101 H 0.62163 0.91747 0.37961 0.0
H2102 H 0.61963 0.89251 0.43758 0.0
H2103 H 0.64945 0.87703 0.43128 0.0
H2104 H 0.58934 0.8849 0.41906 0.0
H2105 H 0.60098 0.96036 0.40936 0.0
H2106 H 0.60958 0.94803 0.3882 0.0
H2107 H 0.62009 0.94411 0.41207 0.0
C2108 C 0.64517 0.9008 0.38785 0.0
C2109 C 0.65308 0.88865 0.40191 0.0
C2110 C 0.62791 0.9093 0.39132 0.0
C2111 C 0.61833 0.90628 0.40913 0.0
C2112 C 0.62675 0.89512 0.42372 0.0
H2113 H 0.50565 0.95456 0.42501 0.0
H2114 H 0.53938 0.94891 0.42848 0.0
C2115 C 0.64392 0.88638 0.42015 0.0
C2116 C 0.59862 0.9126 0.41135 0.0
H2117 H 0.56925 0.94948 0.40316 0.0
C2118 C 0.58505 0.89913 0.41594 0.0
C2119 C 0.59287 0.93121 0.4076 0.0
C2120 C 0.60671 0.94676 0.40426 0.0
C2121 C 0.56595 0.90347 0.41586 0.0
C2122 C 0.56014 0.92164 0.41038 0.0
C2123 C 0.57368 0.93543 0.40691 0.0
C2124 C 0.5401 0.9262 0.40737 0.0
C2125 C 0.55219 0.88843 0.42153 0.0
C2126 C 0.52948 0.9158 0.39384 0.0
C2127 C 0.51033 0.91891 0.39198 0.0
C2128 C 0.50141 0.93272 0.40331 0.0
C2129 C 0.5122 0.94387 0.41605 0.0
C2130 C 0.53142 0.9406 0.41809 0.0
H2131 H 0.55871 0.87789 0.43142 0.0
H2132 H 0.53978 0.89439 0.42909 0.0
H2133 H 0.54746 0.88106 0.40801 0.0
H2134 H 0.53598 0.90503 0.38494 0.0
H2135 H 0.50241 0.91038 0.38178 0.0
H2136 H 0.86087 0.90623 0.13788 0.0
H2137 H 0.84696 0.87546 0.14177 0.0
H2138 H 0.87599 0.86842 0.19712 0.0
H2139 H 0.89094 0.89879 0.19268 0.0
H2140 H 0.88264 0.84018 0.1745 0.0
H2141 H 0.80652 0.85141 0.1727 0.0
H2142 H 0.81715 0.8623 0.15171 0.0
H2143 H 0.82275 0.8704 0.17624 0.0
C2144 C 0.86417 0.89825 0.15102 0.0
C2145 C 0.8773 0.9049 0.1648 0.0
C2146 C 0.85592 0.88072 0.1534 0.0
C2147 C 0.86024 0.86959 0.16985 0.0
C2148 C 0.87236 0.87674 0.18432 0.0
H2149 H 0.81584 0.75467 0.17779 0.0
H2150 H 0.82087 0.78807 0.18434 0.0
C2151 C 0.88081 0.89421 0.18184 0.0
C2152 C 0.85431 0.84967 0.1704 0.0
H2153 H 0.81722 0.82063 0.16216 0.0
C2154 C 0.86825 0.83597 0.17219 0.0
C2155 C 0.83553 0.84401 0.16763 0.0
C2156 C 0.81964 0.85784 0.16719 0.0
C2157 C 0.86413 0.81692 0.17024 0.0
C2158 C 0.84564 0.81137 0.16578 0.0
C2159 C 0.83147 0.82492 0.16514 0.0
C2160 C 0.84112 0.79168 0.16089 0.0
C2161 C 0.87974 0.80293 0.17279 0.0
C2162 C 0.85025 0.78285 0.14508 0.0
C2163 C 0.84748 0.76388 0.14142 0.0
C2164 C 0.83529 0.75337 0.15328 0.0
C2165 C 0.82527 0.76245 0.16838 0.0
C2166 C 0.82819 0.78148 0.17218 0.0
H2167 H 0.89112 0.80862 0.18218 0.0
H2168 H 0.87459 0.78978 0.17955 0.0
H2169 H 0.8858 0.7996 0.15812 0.0
H2170 H 0.85986 0.79057 0.13581 0.0
H2171 H 0.85508 0.75733 0.12944 0.0
H2172 H 0.01616 0.06013 0.89163 0.0
H2173 H 0.98238 0.06527 0.88847 0.0
H2174 H 0.98674 0.11445 0.92495 0.0
H2175 H 0.02018 0.10918 0.9286 0.0
H2176 H 0.95589 0.0913 0.93439 0.0
H2177 H 0.96018 0.10742 0.85401 0.0
H2178 H 0.96966 0.08538 0.86186 0.0
H2179 H 0.9806 0.10671 0.86961 0.0
C2180 C 0.00987 0.07193 0.89912 0.0
C2181 C 0.02094 0.08438 0.91015 0.0
C2182 C 0.9906 0.07491 0.8972 0.0
C2183 C 0.9821 0.09037 0.9063 0.0
C2184 C 0.99302 0.10247 0.91775 0.0
H2185 H 0.88985 0.15985 0.88463 0.0
H2186 H 0.91935 0.14343 0.88923 0.0
C2187 C 0.01221 0.09955 0.91963 0.0
C2188 C 0.962 0.0946 0.90345 0.0
H2189 H 0.93097 0.11085 0.86924 0.0
C2190 C 0.95031 0.09531 0.92011 0.0
C2191 C 0.95485 0.09994 0.88481 0.0
C2192 C 0.96693 0.09999 0.86652 0.0
C2193 C 0.93184 0.10188 0.91875 0.0
C2194 C 0.92489 0.10771 0.9002 0.0
C2195 C 0.93635 0.10629 0.88342 0.0
C2196 C 0.90665 0.11736 0.89816 0.0
C2197 C 0.92025 0.10347 0.93729 0.0
C2198 C 0.88965 0.1082 0.90185 0.0
C2199 C 0.87263 0.11762 0.89921 0.0
C2200 C 0.87242 0.13627 0.89266 0.0
C2201 C 0.88952 0.1454 0.88934 0.0
C2202 C 0.9064 0.13605 0.89201 0.0
H2203 H 0.92865 0.10103 0.95084 0.0
H2204 H 0.91371 0.11751 0.93827 0.0
H2205 H 0.90887 0.09297 0.93684 0.0
H2206 H 0.88953 0.0937 0.9064 0.0
H2207 H 0.85968 0.1102 0.90175 0.0
H2208 H 0.86177 0.60192 0.66432 0.0
H2209 H 0.84456 0.63121 0.66999 0.0
H2210 H 0.87881 0.65875 0.62644 0.0
H2211 H 0.89593 0.6299 0.6208 0.0
H2212 H 0.85741 0.66575 0.68242 0.0
H2213 H 0.82649 0.6722 0.60807 0.0
H2214 H 0.83646 0.65062 0.617 0.0
H2215 H 0.85122 0.66845 0.60656 0.0
C2216 C 0.86557 0.61424 0.65596 0.0
C2217 C 0.87999 0.61348 0.64185 0.0
C2218 C 0.85569 0.63091 0.65915 0.0
C2219 C 0.86007 0.64702 0.64823 0.0
C2220 C 0.87475 0.64635 0.63454 0.0
H2221 H 0.8604 0.76212 0.66727 0.0
H2222 H 0.86362 0.72835 0.66792 0.0
C2223 C 0.88454 0.6298 0.63135 0.0
C2224 C 0.85014 0.66496 0.65155 0.0
H2225 H 0.83034 0.70114 0.62628 0.0
C2226 C 0.85111 0.67334 0.67026 0.0
C2227 C 0.8415 0.67473 0.63583 0.0
C2228 C 0.83866 0.66593 0.6158 0.0
C2229 C 0.84504 0.6918 0.67325 0.0
C2230 C 0.83823 0.70223 0.65698 0.0
C2231 C 0.83585 0.6933 0.63869 0.0
C2232 C 0.83543 0.72277 0.658 0.0
C2233 C 0.84641 0.70006 0.6937 0.0
C2234 C 0.81862 0.73103 0.65174 0.0
C2235 C 0.81685 0.75051 0.65095 0.0
C2236 C 0.83193 0.76209 0.65624 0.0
C2237 C 0.84859 0.75371 0.6628 0.0
C2238 C 0.85035 0.73432 0.66354 0.0
H2239 H 0.84488 0.68908 0.70518 0.0
H2240 H 0.86039 0.70649 0.69561 0.0
H2241 H 0.8356 0.71095 0.69617 0.0
H2242 H 0.80699 0.72239 0.64717 0.0
H2243 H 0.80389 0.75646 0.64566 0.0
H2244 H 0.65639 0.6161 0.92759 0.0
H2245 H 0.62638 0.60164 0.93655 0.0
H2246 H 0.5975 0.64091 0.89913 0.0
H2247 H 0.62709 0.65557 0.89054 0.0
H2248 H 0.58109 0.6359 0.93715 0.0
H2249 H 0.59498 0.56839 0.89872 0.0
H2250 H 0.61184 0.57641 0.91651 0.0
H2251 H 0.60869 0.58904 0.89387 0.0
C2252 C 0.64361 0.62169 0.92141 0.0
C2253 C 0.64414 0.63681 0.90814 0.0
C2254 C 0.62651 0.61335 0.92642 0.0
C2255 C 0.60975 0.62007 0.9183 0.0
C2256 C 0.61027 0.63544 0.90549 0.0
H2257 H 0.49664 0.60646 0.89516 0.0
H2258 H 0.52857 0.61608 0.9024 0.0
C2259 C 0.62723 0.6437 0.90046 0.0
C2260 C 0.59147 0.61122 0.92262 0.0
H2261 H 0.56464 0.57345 0.91065 0.0
C2262 C 0.57758 0.6221 0.93169 0.0
C2263 C 0.58694 0.59316 0.91561 0.0
C2264 C 0.6013 0.58101 0.90553 0.0
C2265 C 0.55906 0.61581 0.933 0.0
C2266 C 0.55426 0.59831 0.92477 0.0
C2267 C 0.56837 0.58688 0.9169 0.0
C2268 C 0.5345 0.5928 0.92178 0.0
C2269 C 0.54464 0.62823 0.94259 0.0
C2270 C 0.52724 0.57638 0.93015 0.0
C2271 C 0.50887 0.57081 0.92598 0.0
C2272 C 0.49767 0.5814 0.91308 0.0
C2273 C 0.50497 0.59792 0.90498 0.0
C2274 C 0.52317 0.60354 0.90927 0.0
H2275 H 0.55115 0.63787 0.95345 0.0
H2276 H 0.53777 0.63685 0.93106 0.0
H2277 H 0.53374 0.61987 0.95019 0.0
H2278 H 0.53583 0.56781 0.9397 0.0
H2279 H 0.50366 0.55794 0.93228 0.0
H2280 H 0.63477 0.39762 0.13036 0.0
H2281 H 0.64967 0.36748 0.13525 0.0
H2282 H 0.65826 0.38026 0.19679 0.0
H2283 H 0.64381 0.41106 0.19195 0.0
H2284 H 0.68769 0.35921 0.15277 0.0
H2285 H 0.62662 0.32951 0.19311 0.0
H2286 H 0.62427 0.34967 0.17727 0.0
H2287 H 0.63587 0.35183 0.20061 0.0
C2288 C 0.64022 0.39438 0.14488 0.0
C2289 C 0.63819 0.40699 0.16072 0.0
C2290 C 0.64862 0.37701 0.14766 0.0
C2291 C 0.655 0.37165 0.16636 0.0
C2292 C 0.6533 0.38415 0.18224 0.0
H2293 H 0.71211 0.2619 0.17354 0.0
H2294 H 0.70394 0.29423 0.18232 0.0
C2295 C 0.64498 0.4017 0.17945 0.0
C2296 C 0.66272 0.35261 0.16899 0.0
H2297 H 0.65017 0.30863 0.18326 0.0
C2298 C 0.67975 0.34819 0.15984 0.0
C2299 C 0.65218 0.3383 0.17806 0.0
C2300 C 0.63367 0.34239 0.18781 0.0
C2301 C 0.68615 0.32966 0.1588 0.0
C2302 C 0.67521 0.31524 0.16714 0.0
C2303 C 0.65856 0.31976 0.17701 0.0
C2304 C 0.67957 0.29531 0.16346 0.0
C2305 C 0.70398 0.32544 0.14778 0.0
C2306 C 0.66834 0.28515 0.15034 0.0
C2307 C 0.67297 0.26682 0.1453 0.0
C2308 C 0.68887 0.25819 0.15339 0.0
C2309 C 0.69974 0.26816 0.16713 0.0
C2310 C 0.69517 0.28663 0.17207 0.0
H2311 H 0.70994 0.33805 0.14058 0.0
H2312 H 0.7145 0.31976 0.1582 0.0
H2313 H 0.70141 0.31467 0.13628 0.0
H2314 H 0.65622 0.29159 0.14359 0.0
H2315 H 0.66416 0.25942 0.13494 0.0
H2316 H 0.02045 0.40832 0.37529 0.0
H2317 H 0.98683 0.4032 0.37844 0.0
H2318 H 0.98422 0.44503 0.4243 0.0
H2319 H 0.01786 0.45062 0.4206 0.0
H2320 H 0.96855 0.39032 0.40897 0.0
H2321 H 0.94055 0.46063 0.39131 0.0
H2322 H 0.96461 0.45435 0.38699 0.0
H2323 H 0.95687 0.46053 0.41142 0.0
C2324 C 0.01263 0.41654 0.38588 0.0
C2325 C 0.0217 0.42988 0.39766 0.0
C2326 C 0.99343 0.41363 0.38769 0.0
C2327 C 0.98287 0.42383 0.40148 0.0
C2328 C 0.9919 0.4373 0.4132 0.0
H2329 H 0.87285 0.37626 0.42984 0.0
H2330 H 0.90388 0.3898 0.43448 0.0
C2331 C 0.01112 0.44045 0.41114 0.0
C2332 C 0.9627 0.41946 0.40414 0.0
H2333 H 0.91875 0.43807 0.40235 0.0
C2334 C 0.95766 0.40079 0.40756 0.0
C2335 C 0.94847 0.4331 0.40224 0.0
C2336 C 0.95284 0.45324 0.3976 0.0
C2337 C 0.93889 0.39524 0.40852 0.0
C2338 C 0.92463 0.40888 0.40683 0.0
C2339 C 0.92966 0.42765 0.4039 0.0
C2340 C 0.90454 0.40362 0.40604 0.0
C2341 C 0.93462 0.37465 0.41032 0.0
C2342 C 0.89395 0.40814 0.38927 0.0
C2343 C 0.87598 0.4009 0.38684 0.0
C2344 C 0.86826 0.38876 0.40102 0.0
C2345 C 0.87832 0.38547 0.41855 0.0
C2346 C 0.89622 0.39298 0.4211 0.0
H2347 H 0.94688 0.36586 0.40644 0.0
H2348 H 0.93072 0.37143 0.42582 0.0
H2349 H 0.92281 0.37063 0.40058 0.0
H2350 H 0.89991 0.41655 0.37755 0.0
H2351 H 0.86844 0.40424 0.37343 0.0
H2352 H 0.89103 0.39345 0.90658 0.0
H2353 H 0.87511 0.36387 0.90145 0.0
H2354 H 0.84987 0.38539 0.84827 0.0
H2355 H 0.86592 0.41536 0.85334 0.0
H2356 H 0.83764 0.35526 0.89877 0.0
H2357 H 0.87522 0.33745 0.82922 0.0
H2358 H 0.88258 0.3563 0.84509 0.0
H2359 H 0.86254 0.35913 0.82943 0.0
C2360 C 0.88187 0.39209 0.89393 0.0
C2361 C 0.87967 0.40688 0.88044 0.0
C2362 C 0.87283 0.37508 0.89097 0.0
C2363 C 0.86139 0.37233 0.87441 0.0
C2364 C 0.85886 0.3871 0.861 0.0
H2365 H 0.80395 0.26238 0.87563 0.0
H2366 H 0.80763 0.29623 0.8716 0.0
C2367 C 0.86801 0.40421 0.86393 0.0
C2368 C 0.85271 0.35369 0.87132 0.0
H2369 H 0.85549 0.31459 0.84254 0.0
C2370 C 0.84127 0.34643 0.88632 0.0
C2371 C 0.85755 0.3422 0.85509 0.0
C2372 C 0.87024 0.34903 0.83882 0.0
C2373 C 0.83537 0.32771 0.88611 0.0
C2374 C 0.84074 0.31602 0.87021 0.0
C2375 C 0.85133 0.32359 0.85467 0.0
C2376 C 0.83786 0.29546 0.87079 0.0
C2377 C 0.82449 0.32033 0.90355 0.0
C2378 C 0.85352 0.28369 0.87085 0.0
C2379 C 0.85146 0.26443 0.87285 0.0
C2380 C 0.83365 0.25635 0.87495 0.0
C2381 C 0.81787 0.26808 0.87413 0.0
C2382 C 0.81996 0.28747 0.87201 0.0
H2383 H 0.82445 0.33028 0.91615 0.0
H2384 H 0.8098 0.31789 0.89906 0.0
H2385 H 0.8304 0.30684 0.90868 0.0
H2386 H 0.86747 0.28948 0.8698 0.0
H2387 H 0.86393 0.2559 0.87285 0.0
H2388 H 0.86997 0.63672 0.09965 0.0
H2389 H 0.89913 0.62036 0.09212 0.0
H2390 H 0.90187 0.60054 0.15224 0.0
H2391 H 0.87233 0.61587 0.15952 0.0
H2392 H 0.931 0.62929 0.10758 0.0
H2393 H 0.91966 0.55494 0.1245 0.0
H2394 H 0.9005 0.57114 0.12171 0.0
H2395 H 0.91241 0.56892 0.14507 0.0
C2396 C 0.87643 0.62832 0.11107 0.0
C2397 C 0.8689 0.62781 0.13026 0.0
C2398 C 0.89318 0.61905 0.10677 0.0
C2399 C 0.90269 0.60905 0.12155 0.0
C2400 C 0.89467 0.60776 0.14042 0.0
H2401 H 0.01786 0.60657 0.14609 0.0
H2402 H 0.98428 0.61126 0.14247 0.0
C2403 C 0.87789 0.61685 0.14467 0.0
C2404 C 0.92211 0.60234 0.11823 0.0
H2405 H 0.9518 0.56607 0.12801 0.0
C2406 C 0.93542 0.61531 0.11164 0.0
C2407 C 0.928 0.58404 0.12322 0.0
C2408 C 0.91431 0.56894 0.1288 0.0
C2409 C 0.9545 0.61092 0.11117 0.0
C2410 C 0.96053 0.59323 0.11795 0.0
C2411 C 0.94718 0.57977 0.12322 0.0
C2412 C 0.98063 0.58914 0.12102 0.0
C2413 C 0.96807 0.62546 0.1038 0.0
C2414 C 0.98958 0.57452 0.1109 0.0
C2415 C 0.00887 0.57172 0.11308 0.0
C2416 C 0.01941 0.58352 0.1254 0.0
C2417 C 0.01018 0.59755 0.13616 0.0
C2418 C 0.991 0.60025 0.13408 0.0
H2419 H 0.96121 0.63535 0.09343 0.0
H2420 H 0.97336 0.63367 0.11654 0.0
H2421 H 0.98017 0.61892 0.0962 0.0
H2422 H 0.98177 0.56568 0.10088 0.0
H2423 H 0.01563 0.56083 0.10458 0.0
H2424 H 0.71111 0.75859 0.39149 0.0
H2425 H 0.70802 0.72453 0.39144 0.0
H2426 H 0.65078 0.72979 0.37244 0.0
H2427 H 0.65397 0.7635 0.37146 0.0
H2428 H 0.68591 0.7031 0.41318 0.0
H2429 H 0.66861 0.69043 0.335 0.0
H2430 H 0.67772 0.71251 0.34352 0.0
H2431 H 0.65308 0.70754 0.3452 0.0
C2432 C 0.69798 0.75251 0.38692 0.0
C2433 C 0.68279 0.76394 0.38152 0.0
C2434 C 0.69621 0.73301 0.38699 0.0
C2435 C 0.67927 0.72453 0.38156 0.0
C2436 C 0.66415 0.73591 0.37617 0.0
H2437 H 0.6247 0.62777 0.42147 0.0
H2438 H 0.64032 0.65748 0.4162 0.0
C2439 C 0.66592 0.75531 0.37597 0.0
C2440 C 0.67675 0.70394 0.38287 0.0
H2441 H 0.65788 0.66684 0.35822 0.0
C2442 C 0.68013 0.6951 0.40103 0.0
C2443 C 0.66963 0.69329 0.36693 0.0
C2444 C 0.66727 0.70142 0.34652 0.0
C2445 C 0.67533 0.6763 0.40408 0.0
C2446 C 0.66645 0.66621 0.38873 0.0
C2447 C 0.66435 0.67464 0.37014 0.0
C2448 C 0.65774 0.64764 0.3922 0.0
C2449 C 0.67957 0.66757 0.42386 0.0
C2450 C 0.66182 0.63225 0.38003 0.0
C2451 C 0.65272 0.61511 0.38292 0.0
C2452 C 0.63939 0.61311 0.39806 0.0
C2453 C 0.63528 0.62863 0.41006 0.0
C2454 C 0.64426 0.64567 0.4071 0.0
H2455 H 0.69198 0.67417 0.4308 0.0
H2456 H 0.66753 0.66978 0.43392 0.0
H2457 H 0.68215 0.65232 0.4225 0.0
H2458 H 0.67202 0.6335 0.36827 0.0
H2459 H 0.65615 0.60345 0.3734 0.0
H2460 H 0.64432 0.37252 0.60108 0.0
H2461 H 0.61435 0.38802 0.5947 0.0
H2462 H 0.62159 0.42134 0.64725 0.0
H2463 H 0.65167 0.40645 0.65328 0.0
H2464 H 0.58463 0.38567 0.6188 0.0
H2465 H 0.60229 0.46012 0.6096 0.0
H2466 H 0.61967 0.44189 0.60798 0.0
H2467 H 0.61262 0.45097 0.63168 0.0
C2468 C 0.63978 0.38357 0.61091 0.0
C2469 C 0.65032 0.38819 0.62775 0.0
C2470 C 0.6226 0.39234 0.60731 0.0
C2471 C 0.61578 0.40601 0.62036 0.0
C2472 C 0.62669 0.41116 0.6367 0.0
H2473 H 0.51724 0.45134 0.66633 0.0
H2474 H 0.54857 0.44178 0.65623 0.0
C2475 C 0.64381 0.40245 0.64029 0.0
C2476 C 0.59643 0.41333 0.61845 0.0
H2477 H 0.57083 0.45353 0.62132 0.0
C2478 C 0.58159 0.40051 0.61883 0.0
C2479 C 0.59244 0.4327 0.61845 0.0
C2480 C 0.60763 0.44718 0.61669 0.0
C2481 C 0.56298 0.40652 0.62061 0.0
C2482 C 0.55913 0.42585 0.6219 0.0
C2483 C 0.57385 0.4387 0.62043 0.0
C2484 C 0.54025 0.43281 0.62702 0.0
C2485 C 0.54765 0.39216 0.62234 0.0
C2486 C 0.52523 0.43123 0.61379 0.0
C2487 C 0.50722 0.43669 0.61956 0.0
C2488 C 0.50398 0.44367 0.6387 0.0
C2489 C 0.51921 0.4457 0.65164 0.0
C2490 C 0.53714 0.44039 0.64583 0.0
H2491 H 0.55321 0.37769 0.62324 0.0
H2492 H 0.53901 0.39494 0.63565 0.0
H2493 H 0.53838 0.3931 0.60924 0.0
H2494 H 0.52739 0.42553 0.59914 0.0
H2495 H 0.49577 0.43492 0.6093 0.0
H2496 H 0.13183 0.39847 0.34457 0.0
H2497 H 0.1461 0.3681 0.33798 0.0
H2498 H 0.17377 0.37 0.39452 0.0
H2499 H 0.16071 0.40091 0.40061 0.0
H2500 H 0.19509 0.35215 0.36786 0.0
H2501 H 0.12271 0.32423 0.36523 0.0
H2502 H 0.12777 0.34116 0.34646 0.0
H2503 H 0.12768 0.34802 0.37204 0.0
C2504 C 0.14142 0.39275 0.35535 0.0
C2505 C 0.14471 0.402 0.37338 0.0
C2506 C 0.14938 0.37522 0.35166 0.0
C2507 C 0.16045 0.36645 0.36607 0.0
C2508 C 0.16504 0.37633 0.38329 0.0
H2509 H 0.16501 0.25127 0.39536 0.0
H2510 H 0.16122 0.28505 0.39265 0.0
C2511 C 0.15735 0.39396 0.38686 0.0
C2512 C 0.16576 0.34642 0.36429 0.0
H2513 H 0.14706 0.30265 0.36164 0.0
C2514 C 0.18462 0.3413 0.36635 0.0
C2515 C 0.15205 0.33226 0.36261 0.0
C2516 C 0.13141 0.33662 0.36164 0.0
C2517 C 0.19008 0.32242 0.36726 0.0
C2518 C 0.17633 0.30831 0.36561 0.0
C2519 C 0.15759 0.31348 0.36289 0.0
C2520 C 0.18056 0.28813 0.36826 0.0
C2521 C 0.21035 0.31778 0.37088 0.0
C2522 C 0.19306 0.27859 0.35576 0.0
C2523 C 0.19545 0.25921 0.35755 0.0
C2524 C 0.18508 0.2491 0.37156 0.0
C2525 C 0.173 0.25874 0.38432 0.0
C2526 C 0.17085 0.27803 0.38277 0.0
H2527 H 0.21827 0.33005 0.37641 0.0
H2528 H 0.21175 0.30624 0.38173 0.0
H2529 H 0.21686 0.31321 0.3568 0.0
H2530 H 0.20044 0.28598 0.34421 0.0
H2531 H 0.2047 0.25201 0.34743 0.0
H2532 H 0.52464 0.4022 0.11949 0.0
H2533 H 0.49142 0.39543 0.11612 0.0
H2534 H 0.47796 0.44864 0.14241 0.0
H2535 H 0.51119 0.45523 0.14657 0.0
H2536 H 0.45873 0.42048 0.15914 0.0
H2537 H 0.45255 0.41521 0.07788 0.0
H2538 H 0.47079 0.40055 0.08739 0.0
H2539 H 0.47259 0.42553 0.08985 0.0
C2540 C 0.51467 0.41247 0.12462 0.0
C2541 C 0.52068 0.42926 0.13335 0.0
C2542 C 0.49564 0.4087 0.12237 0.0
C2543 C 0.48219 0.4217 0.12862 0.0
C2544 C 0.4881 0.43851 0.13725 0.0
H2545 H 0.36101 0.39999 0.11516 0.0
H2546 H 0.39168 0.41531 0.11183 0.0
C2547 C 0.50713 0.44228 0.13954 0.0
C2548 C 0.46202 0.41699 0.12771 0.0
H2549 H 0.42783 0.40089 0.09687 0.0
C2550 C 0.45191 0.41651 0.14546 0.0
C2551 C 0.453 0.41208 0.10983 0.0
C2552 C 0.46274 0.41355 0.09013 0.0
C2553 C 0.43338 0.41023 0.14598 0.0
C2554 C 0.42483 0.40399 0.12835 0.0
C2555 C 0.43452 0.40548 0.1104 0.0
C2556 C 0.40653 0.39439 0.12874 0.0
C2557 C 0.42322 0.40989 0.16552 0.0
C2558 C 0.40495 0.37733 0.13872 0.0
C2559 C 0.38765 0.36864 0.14059 0.0
C2560 C 0.37151 0.37679 0.13247 0.0
C2561 C 0.37322 0.39344 0.1216 0.0
C2562 C 0.39066 0.4022 0.11975 0.0
H2563 H 0.4295 0.41981 0.17626 0.0
H2564 H 0.40822 0.41343 0.16361 0.0
H2565 H 0.42414 0.39565 0.17192 0.0
H2566 H 0.41711 0.37088 0.14539 0.0
H2567 H 0.38687 0.35558 0.14862 0.0
H2568 H 0.36436 0.76762 0.89396 0.0
H2569 H 0.36962 0.73396 0.89253 0.0
H2570 H 0.31886 0.72714 0.85901 0.0
H2571 H 0.31348 0.76099 0.86045 0.0
H2572 H 0.32299 0.70035 0.88829 0.0
H2573 H 0.38758 0.70567 0.84387 0.0
H2574 H 0.3887 0.71978 0.86574 0.0
H2575 H 0.37167 0.72503 0.84697 0.0
C2576 C 0.35435 0.75898 0.88621 0.0
C2577 C 0.33861 0.76699 0.87716 0.0
C2578 C 0.3574 0.73975 0.88536 0.0
C2579 C 0.34488 0.72809 0.87524 0.0
C2580 C 0.32878 0.73591 0.86675 0.0
H2581 H 0.38605 0.61365 0.85749 0.0
H2582 H 0.37067 0.64345 0.84993 0.0
C2583 C 0.32567 0.75522 0.86767 0.0
C2584 C 0.34873 0.70776 0.87382 0.0
H2585 H 0.38299 0.67677 0.86132 0.0
C2586 C 0.33597 0.69513 0.88212 0.0
C2587 C 0.36543 0.70089 0.8653 0.0
C2588 C 0.37903 0.71354 0.85477 0.0
C2589 C 0.34006 0.67596 0.8833 0.0
C2590 C 0.35752 0.66934 0.87635 0.0
C2591 C 0.3697 0.68182 0.86688 0.0
C2592 C 0.36428 0.65009 0.8804 0.0
C2593 C 0.32572 0.66305 0.89222 0.0
C2594 C 0.36558 0.64378 0.89998 0.0
C2595 C 0.3742 0.62678 0.90429 0.0
C2596 C 0.38199 0.61578 0.88915 0.0
C2597 C 0.38008 0.62174 0.86946 0.0
C2598 C 0.37138 0.6388 0.86514 0.0
H2599 H 0.31134 0.66845 0.88985 0.0
H2600 H 0.32669 0.64877 0.88588 0.0
H2601 H 0.32804 0.66215 0.90841 0.0
H2602 H 0.36064 0.65237 0.91207 0.0
H2603 H 0.37522 0.62249 0.91959 0.0
H2604 H 0.15635 0.61374 0.64924 0.0
H2605 H 0.12628 0.5979 0.64543 0.0
H2606 H 0.11424 0.63189 0.59434 0.0
H2607 H 0.14464 0.64726 0.59777 0.0
H2608 H 0.09415 0.6149 0.64969 0.0
H2609 H 0.0949 0.58264 0.57545 0.0
H2610 H 0.1159 0.59092 0.58732 0.0
H2611 H 0.10077 0.60696 0.57449 0.0
C2612 C 0.14748 0.61739 0.63686 0.0
C2613 C 0.15277 0.63164 0.62374 0.0
C2614 C 0.1303 0.60839 0.63471 0.0
C2615 C 0.11799 0.61357 0.61952 0.0
C2616 C 0.12364 0.62728 0.60588 0.0
H2617 H 0.99996 0.61013 0.60192 0.0
H2618 H 0.03372 0.61523 0.60118 0.0
C2619 C 0.14098 0.63611 0.60787 0.0
C2620 C 0.09851 0.60635 0.61949 0.0
H2621 H 0.06458 0.58734 0.5902 0.0
C2622 C 0.08782 0.60857 0.63677 0.0
C2623 C 0.09016 0.59814 0.60263 0.0
C2624 C 0.1011 0.59435 0.584 0.0
C2625 C 0.06893 0.60341 0.63744 0.0
C2626 C 0.06048 0.5958 0.62041 0.0
C2627 C 0.07116 0.5932 0.60323 0.0
C2628 C 0.04023 0.59166 0.6199 0.0
C2629 C 0.05791 0.60676 0.65612 0.0
C2630 C 0.03277 0.57655 0.6305 0.0
C2631 C 0.01343 0.5736 0.63097 0.0
C2632 C 1.00128 0.58582 0.62099 0.0
C2633 C 0.00891 0.60068 0.61006 0.0
C2634 C 0.0282 0.60351 0.60946 0.0
H2635 H 0.06597 0.6148 0.66727 0.0
H2636 H 0.04483 0.61447 0.65273 0.0
H2637 H 0.05393 0.59314 0.66271 0.0
H2638 H 0.04189 0.56723 0.63862 0.0
H2639 H 1.00796 0.56209 0.63955 0.0
H2640 H 0.15691 0.60741 0.17143 0.0
H2641 H 0.17045 0.63803 0.18001 0.0
H2642 H 0.12879 0.66532 0.14416 0.0
H2643 H 0.11531 0.63513 0.13571 0.0
H2644 H 0.18436 0.66522 0.1517 0.0
H2645 H 0.12697 0.6941 0.19711 0.0
H2646 H 0.1298 0.66934 0.19275 0.0
H2647 H 0.11877 0.68391 0.17448 0.0
C2648 C 0.15059 0.62 0.16561 0.0
C2649 C 0.13517 0.61891 0.15278 0.0
C2650 C 0.15832 0.63742 0.17047 0.0
C2651 C 0.15045 0.65393 0.16292 0.0
C2652 C 0.13489 0.65279 0.15042 0.0
H2653 H 0.16017 0.7655 0.13399 0.0
H2654 H 0.15253 0.73337 0.14278 0.0
C2655 C 0.12733 0.63551 0.14543 0.0
C2656 C 0.1589 0.67246 0.16676 0.0
H2657 H 0.14692 0.71664 0.18088 0.0
C2658 C 0.17647 0.6764 0.15858 0.0
C2659 C 0.14856 0.68698 0.17578 0.0
C2660 C 0.13005 0.68335 0.18571 0.0
C2661 C 0.18325 0.69481 0.15769 0.0
C2662 C 0.17223 0.70952 0.16542 0.0
C2663 C 0.15529 0.70535 0.17487 0.0
C2664 C 0.17673 0.72938 0.16144 0.0
C2665 C 0.20147 0.69857 0.14721 0.0
C2666 C 0.19272 0.73793 0.16932 0.0
C2667 C 0.19719 0.75637 0.16422 0.0
C2668 C 0.18574 0.76649 0.15111 0.0
C2669 C 0.16945 0.758 0.14381 0.0
C2670 C 0.16499 0.73968 0.14895 0.0
H2671 H 0.20717 0.68587 0.13994 0.0
H2672 H 0.19959 0.70961 0.13586 0.0
H2673 H 0.21193 0.70365 0.15804 0.0
H2674 H 0.20185 0.73028 0.17919 0.0
H2675 H 0.20986 0.7625 0.17005 0.0
H2676 H 1.00717 0.45451 0.91233 0.0
H2677 H 0.04056 0.44732 0.9139 0.0
H2678 H 0.03024 0.39348 0.88758 0.0
H2679 H 0.99693 0.40062 0.88564 0.0
H2680 H 0.05361 0.39292 0.92218 0.0
H2681 H 0.07704 0.4447 0.86609 0.0
H2682 H 0.06265 0.45342 0.88584 0.0
H2683 H 0.053 0.43738 0.86821 0.0
C2684 C 0.012 0.44124 0.90661 0.0
C2685 C 0.9993 0.42817 0.89876 0.0
C2686 C 0.0311 0.43714 0.9076 0.0
C2687 C 0.03788 0.41992 0.90073 0.0
C2688 C 0.02528 0.40684 0.893 0.0
H2689 H 0.14207 0.37536 0.86481 0.0
H2690 H 0.11115 0.38892 0.86884 0.0
C2691 C 1.00622 0.41093 0.89197 0.0
C2692 C 0.05808 0.41537 0.90159 0.0
H2693 H 0.10028 0.42617 0.88101 0.0
C2694 C 0.06388 0.40029 0.91336 0.0
C2695 C 0.07137 0.42498 0.88996 0.0
C2696 C 0.06579 0.44095 0.87667 0.0
C2697 C 0.08258 0.39432 0.9135 0.0
C2698 C 0.09582 0.40377 0.90166 0.0
C2699 C 0.0901 0.41908 0.8902 0.0
C2700 C 0.1152 0.39676 0.89938 0.0
C2701 C 0.0879 0.37747 0.92564 0.0
C2702 C 0.12791 0.39693 0.91518 0.0
C2703 C 0.14585 0.38934 0.91287 0.0
C2704 C 0.15137 0.38147 0.8947 0.0
C2705 C 0.13858 0.38166 0.87888 0.0
C2706 C 0.12078 0.38929 0.88118 0.0
H2707 H 0.07548 0.37011 0.93166 0.0
H2708 H 0.09614 0.36747 0.91659 0.0
H2709 H 0.09676 0.38195 0.93821 0.0
H2710 H 0.12391 0.40282 0.9293 0.0
H2711 H 0.15535 0.3896 0.92531 0.0
H2712 H 0.36866 0.4029 0.66551 0.0
H2713 H 0.35467 0.37176 0.66775 0.0
H2714 H 0.40968 0.34716 0.66999 0.0
H2715 H 0.42364 0.37821 0.66706 0.0
H2716 H 0.38999 0.33149 0.64231 0.0
H2717 H 0.34645 0.33328 0.70977 0.0
H2718 H 0.34099 0.35218 0.69339 0.0
H2719 H 0.36381 0.35087 0.70451 0.0
C2720 C 0.37771 0.39086 0.667 0.0
C2721 C 0.39721 0.39291 0.66606 0.0
C2722 C 0.36972 0.37305 0.66838 0.0
C2723 C 0.38109 0.35705 0.66925 0.0
C2724 C 0.40059 0.35925 0.66935 0.0
H2725 H 0.33953 0.24144 0.67616 0.0
H2726 H 0.35335 0.27182 0.6848 0.0
C2727 C 0.40856 0.37698 0.66768 0.0
C2728 C 0.37285 0.33803 0.66758 0.0
H2729 H 0.33946 0.30886 0.68636 0.0
C2730 C 0.37911 0.3265 0.65214 0.0
C2731 C 0.35877 0.33136 0.68048 0.0
C2732 C 0.35225 0.3425 0.69809 0.0
C2733 C 0.37135 0.30881 0.64886 0.0
C2734 C 0.35651 0.3026 0.66099 0.0
C2735 C 0.35065 0.31377 0.67689 0.0
C2736 C 0.34664 0.2848 0.65681 0.0
C2737 C 0.37918 0.29692 0.63238 0.0
C2738 C 0.33775 0.28227 0.63855 0.0
C2739 C 0.33002 0.26502 0.63359 0.0
C2740 C 0.33079 0.24996 0.64688 0.0
C2741 C 0.33876 0.25279 0.66564 0.0
C2742 C 0.34666 0.2701 0.67056 0.0
H2743 H 0.39369 0.30107 0.62857 0.0
H2744 H 0.37915 0.28189 0.63644 0.0
H2745 H 0.37045 0.29874 0.61898 0.0
H2746 H 0.33713 0.29356 0.62792 0.0
H2747 H 0.32357 0.2634 0.61923 0.0
H2748 H 0.37244 0.63081 0.36654 0.0
H2749 H 0.40311 0.61688 0.37228 0.0
H2750 H 0.40005 0.63259 0.43371 0.0
H2751 H 0.36919 0.64663 0.42802 0.0
H2752 H 0.43336 0.63805 0.38515 0.0
H2753 H 0.41998 0.57836 0.43565 0.0
H2754 H 0.40178 0.58907 0.42104 0.0
H2755 H 0.40995 0.60029 0.44313 0.0
C2756 C 0.37818 0.63109 0.38134 0.0
C2757 C 0.3685 0.63998 0.3968 0.0
C2758 C 0.39568 0.62307 0.38461 0.0
C2759 C 0.40386 0.62365 0.40342 0.0
C2760 C 0.39388 0.63173 0.41914 0.0
H2761 H 0.52244 0.61951 0.42789 0.0
H2762 H 0.48934 0.62737 0.42585 0.0
C2763 C 0.37627 0.63976 0.41587 0.0
C2764 C 0.42354 0.61749 0.40591 0.0
H2765 H 0.45177 0.58634 0.42988 0.0
C2766 C 0.43736 0.62671 0.3949 0.0
C2767 C 0.42872 0.60263 0.41854 0.0
C2768 C 0.41435 0.59186 0.43017 0.0
C2769 C 0.45623 0.62161 0.3963 0.0
C2770 C 0.46148 0.60702 0.40923 0.0
C2771 C 0.44768 0.5976 0.42008 0.0
C2772 C 0.48134 0.60156 0.41161 0.0
C2773 C 0.47042 0.63174 0.38377 0.0
C2774 C 0.48776 0.58425 0.40464 0.0
C2775 C 0.50679 0.57974 0.40561 0.0
C2776 C 0.51972 0.59245 0.41367 0.0
C2777 C 0.51304 0.60954 0.42117 0.0
C2778 C 0.49407 0.61403 0.42015 0.0
H2779 H 0.46372 0.63974 0.37161 0.0
H2780 H 0.47826 0.64173 0.39316 0.0
H2781 H 0.4806 0.62177 0.37728 0.0
H2782 H 0.47812 0.57444 0.39798 0.0
H2783 H 0.51139 0.56652 0.39959 0.0
H2784 H 0.26501 0.33191 0.10007 0.0
H2785 H 0.25081 0.33114 0.06692 0.0
H2786 H 0.30004 0.30402 0.044 0.0
H2787 H 0.314 0.30433 0.07665 0.0
H2788 H 0.26312 0.34649 0.03104 0.0
H2789 H 0.259 0.26954 0.02498 0.0
H2790 H 0.26332 0.28124 0.04815 0.0
H2791 H 0.2821 0.27745 0.0309 0.0
C2792 C 0.27269 0.32561 0.08799 0.0
C2793 C 0.2906 0.31805 0.09116 0.0
C2794 C 0.26461 0.32526 0.06903 0.0
C2795 C 0.27423 0.31724 0.05297 0.0
C2796 C 0.29213 0.30989 0.05615 0.0
H2797 H 0.253 0.33198 0.92578 0.0
H2798 H 0.26627 0.33348 0.95922 0.0
C2799 C 0.30014 0.31018 0.07494 0.0
C2800 C 0.26593 0.31661 0.03275 0.0
H2801 H 0.25551 0.28666 0.99499 0.0
C2802 C 0.2613 0.33341 0.0232 0.0
C2803 C 0.26341 0.29954 0.02251 0.0
C2804 C 0.26704 0.28091 0.03223 0.0
C2805 C 0.2546 0.33361 1.00361 0.0
C2806 C 0.2528 0.31657 0.99311 0.0
C2807 C 0.25713 0.29977 1.00284 0.0
C2808 C 0.24535 0.31559 0.9725 0.0
C2809 C 0.24914 0.35205 0.9945 0.0
C2810 C 0.22966 0.30448 0.96856 0.0
C2811 C 0.22227 0.3034 0.9495 0.0
C2812 C 0.2303 0.31342 0.93374 0.0
C2813 C 0.24635 0.32419 0.93753 0.0
C2814 C 0.25384 0.3252 0.95673 0.0
H2815 H 0.24674 0.36295 1.00592 0.0
H2816 H 0.26059 0.35693 0.98473 0.0
H2817 H 0.23628 0.35063 0.98546 0.0
H2818 H 0.22289 0.29682 0.98035 0.0
H2819 H 0.20995 0.29488 0.94726 0.0
H2820 H 0.92972 1.00396 0.19374 0.0
H2821 H 0.92952 0.01808 0.22694 0.0
H2822 H 0.96239 0.97212 0.24898 0.0
H2823 H 0.963 0.9583 0.21623 0.0
H2824 H 0.91573 1.00351 0.26244 0.0
H2825 H 0.99164 0.01652 0.26906 0.0
H2826 H 0.98065 0.01116 0.24575 0.0
H2827 H 0.9865 0.99274 0.26277 0.0
C2828 C 0.93713 0.99705 0.2056 0.0
C2829 C 0.94644 0.98002 0.2022 0.0
C2830 C 0.93692 1.00506 0.22461 0.0
C2831 C 0.94615 0.99629 0.24048 0.0
C2832 C 0.95549 0.9794 0.237 0.0
H2833 H 0.92793 0.0158 0.36793 0.0
H2834 H 0.92887 1.0017 0.33476 0.0
C2835 C 0.95573 0.97144 0.21816 0.0
C2836 C 0.94574 1.00429 0.26086 0.0
H2837 H 0.97405 0.01778 0.29895 0.0
C2838 C 0.92846 1.00677 0.27039 0.0
C2839 C 0.96234 1.00863 0.27126 0.0
C2840 C 0.98132 1.00731 0.26163 0.0
C2841 C 0.92737 0.01319 0.29006 0.0
C2842 C 0.94402 0.01691 0.30068 0.0
C2843 C 0.96126 0.01465 0.29102 0.0
C2844 C 0.94396 0.02459 0.32123 0.0
C2845 C 0.90837 0.01633 0.29912 0.0
C2846 C 0.95278 0.04171 0.32496 0.0
C2847 C 0.95248 0.04959 0.34382 0.0
C2848 C 0.94335 0.04062 0.35962 0.0
C2849 C 0.93506 0.02311 0.35614 0.0
C2850 C 0.93539 0.01515 0.3371 0.0
H2851 H 0.89726 0.01719 0.28771 0.0
H2852 H 0.90501 1.00449 0.30907 0.0
H2853 H 0.90815 0.02938 0.308 0.0
H2854 H 0.9596 0.04924 0.31311 0.0
H2855 H 0.95916 0.06302 0.34589 0.0
H2856 H 0.24116 0.66796 0.5922 0.0
H2857 H 0.24913 0.66588 0.55705 0.0
H2858 H 0.25288 0.72592 0.55406 0.0
H2859 H 0.24543 0.72807 0.58916 0.0
H2860 H 0.23096 0.67877 0.52532 0.0
H2861 H 0.30065 0.71192 0.52724 0.0
H2862 H 0.28864 0.70474 0.5494 0.0
H2863 H 0.28312 0.72673 0.53786 0.0
C2864 C 0.2439 0.68071 0.58412 0.0
C2865 C 0.24275 0.69818 0.5936 0.0
C2866 C 0.24843 0.6795 0.56398 0.0
C2867 C 0.25194 0.69572 0.55285 0.0
C2868 C 0.25079 0.71315 0.56233 0.0
H2869 H 0.26431 0.72594 0.43019 0.0
H2870 H 0.25801 0.72394 0.46563 0.0
C2871 C 0.24642 0.71437 0.58247 0.0
C2872 C 0.25597 0.69453 0.5312 0.0
H2873 H 0.28625 0.7094 0.49536 0.0
C2874 C 0.24318 0.68527 0.51883 0.0
C2875 C 0.27195 0.70293 0.52261 0.0
C2876 C 0.28696 0.71196 0.535 0.0
C2877 C 0.2456 0.68477 0.49817 0.0
C2878 C 0.26122 0.69373 0.48961 0.0
C2879 C 0.27419 0.70266 0.50195 0.0
C2880 C 0.26412 0.69444 0.46784 0.0
C2881 C 0.2312 0.67514 0.48552 0.0
C2882 C 0.26955 0.67847 0.45722 0.0
C2883 C 0.27328 0.67957 0.43688 0.0
C2884 C 0.27156 0.69667 0.42675 0.0
C2885 C 0.2657 0.71252 0.43741 0.0
C2886 C 0.26215 0.71143 0.45773 0.0
H2887 H 0.21869 0.67091 0.49415 0.0
H2888 H 0.22673 0.68447 0.47329 0.0
H2889 H 0.23746 0.66245 0.4788 0.0
H2890 H 0.27129 0.66524 0.46475 0.0
H2891 H 0.27777 0.6671 0.42918 0.0
H2892 H 0.55604 0.95877 0.83204 0.0
H2893 H 0.557 0.97203 0.79905 0.0
H2894 H 0.58894 0.01871 0.82084 0.0
H2895 H 0.58847 1.00512 0.85423 0.0
H2896 H 0.54387 1.00361 0.78427 0.0
H2897 H 0.62082 1.0021 0.77452 0.0
H2898 H 0.60925 0.99044 0.79475 0.0
H2899 H 0.6131 0.01524 0.7956 0.0
C2900 C 0.56331 0.97189 0.82997 0.0
C2901 C 0.57232 0.98077 0.84591 0.0
C2902 C 0.56382 0.97947 0.81097 0.0
C2903 C 0.57334 0.99621 0.80723 0.0
C2904 C 0.58189 1.00553 0.82319 0.0
H2905 H 0.55766 0.06279 0.70196 0.0
H2906 H 0.55756 0.04894 0.73469 0.0
C2907 C 0.58144 0.99786 0.84235 0.0
C2908 C 0.57387 1.00372 0.7866 0.0
H2909 H 0.60319 0.01636 0.74891 0.0
C2910 C 0.55688 1.00638 0.77659 0.0
C2911 C 0.5908 1.007 0.7763 0.0
C2912 C 0.60955 1.00339 0.78573 0.0
C2913 C 0.55631 0.0124 0.75681 0.0
C2914 C 0.5732 0.01635 0.74674 0.0
C2915 C 0.59023 0.01343 0.7566 0.0
C2916 C 0.57335 0.02441 0.72637 0.0
C2917 C 0.53755 0.01418 0.74681 0.0
C2918 C 0.58259 0.01546 0.71061 0.0
C2919 C 0.58279 0.02348 0.69161 0.0
C2920 C 0.57389 0.0407 0.6881 0.0
C2921 C 0.56463 0.04949 0.70396 0.0
C2922 C 0.56445 0.04153 0.72279 0.0
H2923 H 0.52689 1.0052 0.75401 0.0
H2924 H 0.53269 0.02886 0.7479 0.0
H2925 H 0.53842 0.01034 0.73094 0.0
H2926 H 0.58966 1.00227 0.71302 0.0
H2927 H 0.59019 0.0164 0.67983 0.0
H2928 H 0.81456 0.70735 0.07968 0.0
H2929 H 0.79941 0.70742 0.04766 0.0
H2930 H 0.75121 0.68027 0.07274 0.0
H2931 H 0.76667 0.67975 0.10533 0.0
H2932 H 0.76279 0.66448 0.03642 0.0
H2933 H 0.7574 0.74128 0.02961 0.0
H2934 H 0.78075 0.73377 0.03499 0.0
H2935 H 0.76246 0.7299 0.05278 0.0
C2936 C 0.80067 0.70145 0.0786 0.0
C2937 C 0.79183 0.6936 0.09525 0.0
C2938 C 0.79197 0.70161 0.06016 0.0
C2939 C 0.77404 0.69413 0.05773 0.0
C2940 C 0.76503 0.68624 0.07426 0.0
H2941 H 0.707 0.71475 0.95375 0.0
H2942 H 0.72093 0.71316 0.98637 0.0
C2943 C 0.77381 0.68606 0.09291 0.0
C2944 C 0.76516 0.69441 0.03776 0.0
H2945 H 0.75369 0.72379 0.99984 0.0
C2946 C 0.76063 0.67745 0.02847 0.0
C2947 C 0.76224 0.71132 0.02735 0.0
C2948 C 0.76579 0.7301 0.03676 0.0
C2949 C 0.75359 0.67694 1.009 0.0
C2950 C 0.75137 0.69384 0.99833 0.0
C2951 C 0.75564 0.71079 1.00779 0.0
C2952 C 0.74335 0.69454 0.97792 0.0
C2953 C 0.74826 0.65834 1.0002 0.0
C2954 C 0.75145 0.68486 0.96191 0.0
C2955 C 0.74336 0.68567 0.94294 0.0
C2956 C 0.72709 0.69627 0.93964 0.0
C2957 C 0.71945 0.70633 0.95562 0.0
C2958 C 0.72743 0.70546 0.97441 0.0
H2959 H 0.74635 0.6475 1.01176 0.0
H2960 H 0.73515 0.65948 0.99152 0.0
H2961 H 0.75953 0.65358 0.99013 0.0
H2962 H 0.76401 0.67669 0.96405 0.0
H2963 H 0.74963 0.67776 0.93102 0.0
H2964 H 0.09792 0.03309 0.86197 0.0
H2965 H 0.09821 0.02739 0.82645 0.0
H2966 H 0.04323 1.00311 0.83011 0.0
H2967 H 0.04294 1.00853 0.86594 0.0
H2968 H 0.06637 0.98276 0.80626 0.0
H2969 H 0.07066 0.05725 0.78511 0.0
H2970 H 0.08908 0.05059 0.80162 0.0
H2971 H 0.06519 0.04989 0.80994 0.0
C2972 C 0.08583 0.02659 0.85528 0.0
C2973 C 0.07031 0.02147 0.86684 0.0
C2974 C 0.08597 0.02344 0.83488 0.0
C2975 C 0.07054 0.01528 0.82544 0.0
C2976 C 0.05523 0.00961 0.837 0.0
H2977 H 0.05588 0.98596 0.69937 0.0
H2978 H 0.04913 0.99314 0.73413 0.0
C2979 C 0.0551 0.01269 0.8575 0.0
C2980 C 0.07065 0.01241 0.80359 0.0
H2981 H 0.07792 0.03502 0.75973 0.0
C2982 C 0.06862 0.99422 0.79607 0.0
C2983 C 0.07349 0.02737 0.79021 0.0
C2984 C 0.07453 0.04739 0.7971 0.0
C2985 C 0.07022 0.99051 0.7757 0.0
C2986 C 0.07377 1.00538 0.76245 0.0
C2987 C 0.07527 0.02362 0.7699 0.0
C2988 C 0.07723 1.00213 0.74103 0.0
C2989 C 0.06887 0.9706 0.76855 0.0
C2990 C 0.09508 1.00536 0.7332 0.0
C2991 C 0.09898 1.00126 0.71341 0.0
C2992 C 0.08506 0.99398 0.70091 0.0
C2993 C 0.06694 0.99151 0.70856 0.0
C2994 C 0.06309 0.99548 0.72847 0.0
H2995 H 0.06909 0.96042 0.78093 0.0
H2996 H 0.05561 0.96874 0.7603 0.0
H2997 H 0.08056 0.96733 0.75832 0.0
H2998 H 0.10618 0.01059 0.74256 0.0
H2999 H 0.11305 1.00346 0.70802 0.0
H3000 H 0.75163 0.33947 0.6039 0.0
H3001 H 0.76566 0.33991 0.57072 0.0
H3002 H 0.72126 0.30472 0.54917 0.0
H3003 H 0.7076 0.30379 0.58201 0.0
H3004 H 0.75383 0.29319 0.53514 0.0
H3005 H 0.7478 0.36964 0.52341 0.0
H3006 H 0.76108 0.36327 0.54488 0.0
H3007 H 0.73658 0.35786 0.54377 0.0
C3008 C 0.74499 0.33169 0.59212 0.0
C3009 C 0.72842 0.32166 0.5957 0.0
C3010 C 0.75289 0.33214 0.57307 0.0
C3011 C 0.74431 0.32267 0.55723 0.0
C3012 C 0.72811 0.31226 0.561 0.0
H3013 H 0.76561 0.33774 0.42981 0.0
H3014 H 0.75101 0.33716 0.46278 0.0
C3015 C 0.7203 0.31176 0.5799 0.0
C3016 C 0.75209 0.32318 0.53671 0.0
H3017 H 0.76365 0.35238 0.49855 0.0
C3018 C 0.75595 0.30616 0.52718 0.0
C3019 C 0.75453 0.34005 0.52605 0.0
C3020 C 0.74963 0.35875 0.53494 0.0
C3021 C 0.76238 0.30553 0.50755 0.0
C3022 C 0.76549 0.32241 0.49713 0.0
C3023 C 0.76136 0.33944 0.50651 0.0
C3024 C 0.7739 0.32259 0.47692 0.0
C3025 C 0.76549 0.2867 0.49805 0.0
C3026 C 0.7916 0.31471 0.47386 0.0
C3027 C 0.79984 0.31492 0.45516 0.0
C3028 C 0.79074 0.32321 0.43891 0.0
C3029 C 0.77295 0.33112 0.44191 0.0
C3030 C 0.76465 0.33088 0.46078 0.0
H3031 H 0.75708 0.27566 0.50537 0.0
H3032 H 0.76188 0.28698 0.4821 0.0
H3033 H 0.78043 0.2828 0.4995 0.0
H3034 H 0.79923 0.30858 0.48606 0.0
H3035 H 0.81357 0.30875 0.45355 0.0
H3036 H 0.45278 1.00399 0.35597 0.0
H3037 H 0.45426 0.017 0.32224 0.0
H3038 H 0.43434 0.96463 0.29878 0.0
H3039 H 0.43356 0.95159 0.33185 0.0
H3040 H 0.46355 0.97524 0.27901 0.0
H3041 H 0.41496 0.03545 0.28453 0.0
H3042 H 0.43387 0.03601 0.30193 0.0
H3043 H 0.4166 0.01785 0.30352 0.0
C3044 C 0.44857 0.99541 0.34356 0.0
C3045 C 0.4433 0.97671 0.34655 0.0
C3046 C 0.44931 1.00285 0.3243 0.0
C3047 C 0.44435 0.99183 0.30783 0.0
C3048 C 0.43842 0.97342 0.31108 0.0
H3049 H 0.42026 0.02388 0.18632 0.0
H3050 H 0.4191 0.01511 0.22132 0.0
C3051 C 0.438 0.96596 0.33008 0.0
C3052 C 0.44619 0.99863 0.28703 0.0
H3053 H 0.43124 0.03182 0.25426 0.0
C3054 C 0.45647 0.98765 0.27365 0.0
C3055 C 0.43682 0.01469 0.27986 0.0
C3056 C 0.42479 0.02662 0.29313 0.0
C3057 C 0.4574 0.99198 0.25343 0.0
C3058 C 0.44839 1.00826 0.2463 0.0
C3059 C 0.43825 0.0194 0.25967 0.0
C3060 C 0.44911 0.01372 0.225 0.0
C3061 C 0.46746 0.97859 0.23985 0.0
C3062 C 0.46633 0.016 0.21531 0.0
C3063 C 0.46701 0.02064 0.19523 0.0
C3064 C 0.45049 0.02355 0.1844 0.0
C3065 C 0.43325 0.02161 0.19417 0.0
C3066 C 0.43257 0.0167 0.21423 0.0
H3067 H 0.46836 0.96437 0.24635 0.0
H3068 H 0.46037 0.97754 0.2253 0.0
H3069 H 0.48194 0.98361 0.23742 0.0
H3070 H 0.47931 0.01435 0.22332 0.0
H3071 H 0.48055 0.02236 0.18831 0.0
H3072 H 0.76432 0.83501 0.60389 0.0
H3073 H 0.75028 0.83531 0.57067 0.0
H3074 H 0.79373 0.79856 0.54975 0.0
H3075 H 0.80744 0.79784 0.58257 0.0
H3076 H 0.76591 0.84716 0.535 0.0
H3077 H 0.74742 0.77228 0.53006 0.0
H3078 H 0.75353 0.78333 0.55312 0.0
H3079 H 0.7715 0.77581 0.53628 0.0
C3080 C 0.77064 0.82672 0.59229 0.0
C3081 C 0.78696 0.81632 0.59601 0.0
C3082 C 0.7627 0.82701 0.57326 0.0
C3083 C 0.77081 0.81677 0.55769 0.0
C3084 C 0.78695 0.80628 0.56151 0.0
H3085 H 0.75258 0.83326 0.42965 0.0
H3086 H 0.76655 0.83249 0.46289 0.0
C3087 C 0.79484 0.80597 0.58038 0.0
C3088 C 0.76294 0.81732 0.53726 0.0
H3089 H 0.74745 0.78929 0.49979 0.0
C3090 C 0.76174 0.83453 0.52734 0.0
C3091 C 0.75742 0.80087 0.52722 0.0
C3092 C 0.75734 0.78206 0.53728 0.0
C3093 C 0.75541 0.83568 0.50764 0.0
C3094 C 0.75047 0.81913 0.4974 0.0
C3095 C 0.75149 0.80198 0.50744 0.0
C3096 C 0.74273 0.81931 0.47687 0.0
C3097 C 0.75365 0.85466 0.49815 0.0
C3098 C 0.72506 0.81156 0.47342 0.0
C3099 C 0.71724 0.81174 0.45453 0.0
C3100 C 0.72683 0.8197 0.43843 0.0
C3101 C 0.74479 0.82705 0.44169 0.0
C3102 C 0.75269 0.82681 0.46075 0.0
H3103 H 0.75364 0.86605 0.5093 0.0
H3104 H 0.7657 0.85693 0.48811 0.0
H3105 H 0.74064 0.85566 0.48928 0.0
H3106 H 0.71709 0.80559 0.48548 0.0
H3107 H 0.70343 0.80583 0.45268 0.0
H3108 H 0.46926 0.51004 0.85858 0.0
H3109 H 0.46746 0.50419 0.82298 0.0
H3110 H 0.41064 0.5241 0.82246 0.0
H3111 H 0.41229 0.53005 0.85798 0.0
H3112 H 0.44294 0.48185 0.80024 0.0
H3113 H 0.4364 0.55677 0.78059 0.0
H3114 H 0.44377 0.54905 0.80476 0.0
H3115 H 0.41942 0.54889 0.79825 0.0
C3116 C 0.45631 0.51306 0.85095 0.0
C3117 C 0.44098 0.52072 0.86118 0.0
C3118 C 0.45533 0.50972 0.83056 0.0
C3119 C 0.43906 0.51408 0.81995 0.0
C3120 C 0.4235 0.52104 0.83024 0.0
H3121 H 0.39793 0.50779 0.70113 0.0
H3122 H 0.40434 0.51373 0.73592 0.0
C3123 C 0.42444 0.52435 0.85061 0.0
C3124 C 0.43835 0.51148 0.79812 0.0
H3125 H 0.43105 0.53488 0.75478 0.0
C3126 C 0.44051 0.49345 0.79027 0.0
C3127 C 0.43527 0.52665 0.7851 0.0
C3128 C 0.43375 0.54646 0.79253 0.0
C3129 C 0.43893 0.49007 0.76984 0.0
C3130 C 0.43546 0.5052 0.75685 0.0
C3131 C 0.43371 0.52328 0.7647 0.0
C3132 C 0.43236 0.50244 0.73526 0.0
C3133 C 0.44024 0.47023 0.76243 0.0
C3134 C 0.4462 0.49459 0.72304 0.0
C3135 C 0.44257 0.49114 0.70298 0.0
C3136 C 0.42503 0.49551 0.69476 0.0
C3137 C 0.41155 0.5041 0.7069 0.0
C3138 C 0.41519 0.50753 0.72686 0.0
H3139 H 0.43875 0.45992 0.77459 0.0
H3140 H 0.42932 0.46741 0.75117 0.0
H3141 H 0.45408 0.46805 0.75543 0.0
H3142 H 0.45973 0.49095 0.72905 0.0
H3143 H 0.45334 0.48468 0.69406 0.0
H3144 H 0.75393 0.22901 0.09639 0.0
H3145 H 0.76118 0.22695 0.06121 0.0
H3146 H 0.74924 0.16793 0.06217 0.0
H3147 H 0.74135 0.17003 0.09731 0.0
H3148 H 0.78704 0.20917 0.04202 0.0
H3149 H 0.71907 0.18284 1.015 0.0
H3150 H 0.72228 0.1913 0.03988 0.0
H3151 H 0.72908 0.16786 0.0334 0.0
C3152 C 0.75284 0.21556 0.08916 0.0
C3153 C 0.74699 0.19969 0.09974 0.0
C3154 C 0.75694 0.21441 0.06896 0.0
C3155 C 0.75539 0.19737 0.05877 0.0
C3156 C 0.75 0.18138 0.06942 0.0
H3157 H 0.81458 0.17356 0.95083 0.0
H3158 H 0.8017 0.17484 0.98412 0.0
C3159 C 0.74569 0.18256 0.08963 0.0
C3160 C 0.76024 0.1963 0.03728 0.0
H3161 H 0.74455 0.18156 0.99206 0.0
C3162 C 0.77764 0.20324 0.03113 0.0
C3163 C 0.74792 0.18891 0.02284 0.0
C3164 C 0.72847 0.18249 0.02806 0.0
C3165 C 0.78325 0.20257 1.01124 0.0
C3166 C 0.77141 0.19417 0.99699 0.0
C3167 C 0.75376 0.18774 1.00296 0.0
C3168 C 0.7776 0.19144 0.9761 0.0
C3169 C 0.8018 0.21111 1.0057 0.0
C3170 C 0.7677 0.19923 0.96009 0.0
C3171 C 0.77492 0.19814 0.94074 0.0
C3172 C 0.79218 0.18938 0.93724 0.0
C3173 C 0.8014 0.18069 0.95311 0.0
C3174 C 0.7941 0.18151 0.97221 0.0
H3175 H 0.80612 0.22198 1.01649 0.0
H3176 H 0.81269 0.20007 1.0057 0.0
H3177 H 0.8013 0.21751 0.99077 0.0
H3178 H 0.75482 0.20678 0.96267 0.0
H3179 H 0.76753 0.20496 0.92878 0.0
H3180 H 0.08982 0.5014 0.34911 0.0
H3181 H 0.0889 0.51604 0.31619 0.0
H3182 H 0.05921 0.46834 0.29335 0.0
H3183 H 0.05969 0.45396 0.32582 0.0
H3184 H 0.10362 0.50301 0.28053 0.0
H3185 H 0.027 0.51096 0.27402 0.0
H3186 H 0.03832 0.50598 0.29724 0.0
H3187 H 0.03372 0.48747 0.27989 0.0
C3188 C 0.08284 0.4942 0.33713 0.0
C3189 C 0.07477 0.47652 0.3402 0.0
C3190 C 0.08242 0.50253 0.31829 0.0
C3191 C 0.07377 0.49341 0.30229 0.0
C3192 C 0.06562 0.47587 0.30546 0.0
H3193 H 0.09073 0.51503 0.17525 0.0
H3194 H 0.09086 0.50088 0.20838 0.0
C3195 C 0.06602 0.46761 0.32413 0.0
C3196 C 0.07362 0.50171 0.28206 0.0
H3197 H 0.04446 0.5136 0.2441 0.0
C3198 C 0.09069 0.50547 0.27261 0.0
C3199 C 0.05675 0.50503 0.2717 0.0
C3200 C 0.03791 0.50233 0.2813 0.0
C3201 C 0.09134 0.51216 0.25303 0.0
C3202 C 0.07447 0.51481 0.24242 0.0
C3203 C 0.05742 0.5113 0.25203 0.0
C3204 C 0.07401 0.52255 0.22192 0.0
C3205 C 0.11008 0.51671 0.24405 0.0
C3206 C 0.06388 0.53894 0.21822 0.0
C3207 C 0.06355 0.54682 0.19936 0.0
C3208 C 0.07336 0.53856 0.18356 0.0
C3209 C 0.08304 0.52177 0.18705 0.0
C3210 C 0.08331 0.5138 0.20606 0.0
H3211 H 0.12106 0.51837 0.25552 0.0
H3212 H 0.11438 0.50515 0.23411 0.0
H3213 H 0.10937 0.52974 0.2352 0.0
H3214 H 0.05648 0.54593 0.23008 0.0
H3215 H 0.05582 0.55969 0.19731 0.0
H3216 H 0.28766 0.20032 0.59012 0.0
H3217 H 0.28027 0.20608 0.55536 0.0
H3218 H 0.2454 0.15697 0.55452 0.0
H3219 H 0.25358 0.15061 0.58888 0.0
H3220 H 0.26616 0.15699 0.52325 0.0
H3221 H 0.23549 0.22778 0.52998 0.0
H3222 H 0.259 0.22661 0.539 0.0
H3223 H 0.24082 0.21364 0.55126 0.0
C3224 C 0.27825 0.19088 0.5826 0.0
C3225 C 0.27124 0.17498 0.5923 0.0
C3226 C 0.27393 0.19424 0.56269 0.0
C3227 C 0.26207 0.1821 0.55221 0.0
C3228 C 0.25464 0.16654 0.56214 0.0
H3229 H 0.20019 0.20168 0.44665 0.0
H3230 H 0.21362 0.19955 0.47941 0.0
C3231 C 0.25925 0.16297 0.58186 0.0
C3232 C 0.25783 0.18502 0.53079 0.0
H3233 H 0.24037 0.21645 0.49755 0.0
C3234 C 0.26049 0.17001 0.51765 0.0
C3235 C 0.25041 0.20197 0.52336 0.0
C3236 C 0.24608 0.21835 0.53666 0.0
C3237 C 0.25547 0.17125 0.49758 0.0
C3238 C 0.2482 0.18825 0.49012 0.0
C3239 C 0.24608 0.20344 0.50314 0.0
C3240 C 0.24078 0.19006 0.46955 0.0
C3241 C 0.25718 0.15399 0.48488 0.0
C3242 C 0.25157 0.18569 0.45274 0.0
C3243 C 0.24372 0.18658 0.4337 0.0
C3244 C 0.22506 0.19224 0.43111 0.0
C3245 C 0.21461 0.19725 0.44793 0.0
C3246 C 0.22231 0.19608 0.46682 0.0
H3247 H 0.25847 0.14111 0.49392 0.0
H3248 H 0.24489 0.15247 0.475 0.0
H3249 H 0.26988 0.15511 0.47557 0.0
H3250 H 0.26602 0.18149 0.45432 0.0
H3251 H 0.25221 0.18274 0.42108 0.0
H3252 H 0.58147 0.51509 0.36394 0.0
H3253 H 0.58109 0.50187 0.33036 0.0
H3254 H 0.55654 0.55277 0.30829 0.0
H3255 H 0.55627 0.56566 0.34142 0.0
H3256 H 0.5396 0.5241 0.29259 0.0
H3257 H 0.61602 0.51336 0.28523 0.0
H3258 H 0.6058 0.50119 0.30574 0.0
H3259 H 0.60587 0.52631 0.30543 0.0
C3260 C 0.57587 0.52337 0.35193 0.0
C3261 C 0.56897 0.54148 0.35548 0.0
C3262 C 0.57586 0.51589 0.33267 0.0
C3263 C 0.56913 0.52645 0.31659 0.0
C3264 C 0.56191 0.54432 0.3203 0.0
H3265 H 0.58708 0.50495 0.18971 0.0
H3266 H 0.58779 0.51838 0.22319 0.0
C3267 C 0.56179 0.5517 0.33939 0.0
C3268 C 0.5691 0.51909 0.29588 0.0
H3269 H 0.59712 0.50219 0.25893 0.0
C3270 C 0.55222 0.51933 0.28528 0.0
C3271 C 0.58559 0.5132 0.28606 0.0
C3272 C 0.60439 0.51364 0.2961 0.0
C3273 C 0.55129 0.51375 0.26539 0.0
C3274 C 0.56761 0.50717 0.25579 0.0
C3275 C 0.58458 0.50713 0.26625 0.0
C3276 C 0.5671 0.49952 0.23524 0.0
C3277 C 0.53283 0.51535 0.25475 0.0
C3278 C 0.55532 0.48445 0.2308 0.0
C3279 C 0.55476 0.47693 0.21177 0.0
C3280 C 0.56618 0.48404 0.19657 0.0
C3281 C 0.57801 0.49919 0.20096 0.0
C3282 C 0.5785 0.5068 0.22014 0.0
H3283 H 0.52369 0.52605 0.26169 0.0
H3284 H 0.53482 0.51904 0.23895 0.0
H3285 H 0.52544 0.50176 0.25554 0.0
H3286 H 0.5467 0.47825 0.2422 0.0
H3287 H 0.54553 0.46522 0.20914 0.0
H3288 H 0.31922 0.82913 0.94847 0.0
H3289 H 0.30548 0.82878 0.98123 0.0
H3290 H 0.25105 0.81926 0.95591 0.0
H3291 H 0.26484 0.82035 0.92248 0.0
H3292 H 0.24891 0.84315 0.987 0.0
H3293 H 0.29097 0.78234 1.0099 0.0
H3294 H 0.30581 0.80086 1.00156 0.0
H3295 H 0.28981 0.78993 0.98454 0.0
C3296 C 0.3043 0.82688 0.94973 0.0
C3297 C 0.29319 0.82437 0.93278 0.0
C3298 C 0.29646 0.82661 0.9686 0.0
C3299 C 0.27731 0.82334 0.97122 0.0
C3300 C 0.26593 0.82154 0.95433 0.0
H3301 H 0.24101 0.79091 0.08959 0.0
H3302 H 0.24845 0.79186 0.05446 0.0
C3303 C 0.2738 0.82213 0.93523 0.0
C3304 C 0.26958 0.82177 0.9917 0.0
H3305 H 0.27764 0.80054 0.03611 0.0
C3306 C 0.25502 0.83367 0.99769 0.0
C3307 C 0.27722 0.80915 1.00567 0.0
C3308 C 0.29166 0.79472 1.00002 0.0
C3309 C 0.24841 0.83377 1.01735 0.0
C3310 C 0.25702 0.82208 0.03165 0.0
C3311 C 0.27115 0.80977 0.02541 0.0
C3312 C 0.2515 0.82193 0.05304 0.0
C3313 C 0.23206 0.84619 0.0224 0.0
C3314 C 0.25073 0.83849 0.06428 0.0
C3315 C 0.24609 0.83798 0.08446 0.0
C3316 C 0.24266 0.82086 0.09398 0.0
C3317 C 0.24374 0.80433 0.08281 0.0
C3318 C 0.24797 0.80487 0.06263 0.0
H3319 H 0.22335 0.84911 1.00917 0.0
H3320 H 0.22306 0.83979 0.03392 0.0
H3321 H 0.23733 0.85976 0.02801 0.0
H3322 H 0.25399 0.85181 0.05758 0.0
H3323 H 0.24547 0.85096 0.09267 0.0
H3324 H 0.93585 0.51396 0.67373 0.0
H3325 H 0.93625 0.5009 0.70737 0.0
H3326 H 0.96159 0.55153 0.72905 0.0
H3327 H 0.96176 0.56429 0.69585 0.0
H3328 H 0.97825 0.5223 0.74473 0.0
H3329 H 0.90163 0.51358 0.75267 0.0
H3330 H 0.91146 0.50121 0.73205 0.0
H3331 H 0.91197 0.52632 0.73243 0.0
C3332 C 0.94162 0.52222 0.68566 0.0
C3333 C 0.94869 0.54023 0.68199 0.0
C3334 C 0.94165 0.51483 0.70495 0.0
C3335 C 0.9486 0.52537 0.72094 0.0
C3336 C 0.95604 0.54311 0.71711 0.0
H3337 H 0.93127 0.50411 0.84805 0.0
H3338 H 0.931 0.51809 0.8148 0.0
C3339 C 0.9561 0.55042 0.69799 0.0
C3340 C 0.94861 0.5181 0.74168 0.0
H3341 H 0.92043 0.50198 0.77885 0.0
C3342 C 0.96557 0.51788 0.75214 0.0
C3343 C 0.93205 0.51267 0.75163 0.0
C3344 C 0.9132 0.5136 0.74172 0.0
C3345 C 0.9665 0.51221 0.77202 0.0
C3346 C 0.95008 0.50611 0.78174 0.0
C3347 C 0.93305 0.50658 0.77143 0.0
C3348 C 0.95056 0.4983 0.80221 0.0
C3349 C 0.98509 0.51313 0.78249 0.0
C3350 C 0.9616 0.48258 0.80627 0.0
C3351 C 0.96187 0.47471 0.82514 0.0
C3352 C 0.95094 0.48218 0.84056 0.0
C3353 C 0.93998 0.49809 0.83662 0.0
C3354 C 0.93972 0.506 0.81757 0.0
H3355 H 0.99457 0.52344 0.77544 0.0
H3356 H 0.98333 0.51694 0.79829 0.0
H3357 H 0.99195 0.49925 0.78171 0.0
H3358 H 0.9698 0.47611 0.79468 0.0
H3359 H 0.97045 0.46245 0.82751 0.0
H3360 H 0.23947 0.38621 0.18378 0.0
H3361 H 0.21249 0.40632 0.17784 0.0
H3362 H 0.21973 0.39934 0.11498 0.0
H3363 H 0.2467 0.37879 0.12101 0.0
H3364 H 0.21488 0.4393 0.15923 0.0
H3365 H 0.16346 0.39461 0.12033 0.0
H3366 H 0.18325 0.38509 0.13347 0.0
H3367 H 0.18619 0.39467 0.1091 0.0
C3368 C 0.2351 0.38872 0.16869 0.0
C3369 C 0.24523 0.38107 0.15283 0.0
C3370 C 0.21967 0.40018 0.16531 0.0
C3371 C 0.21399 0.40434 0.14598 0.0
C3372 C 0.22359 0.39607 0.13005 0.0
H3373 H 0.1455 0.48915 0.09325 0.0
H3374 H 0.16465 0.46191 0.10097 0.0
C3375 C 0.23901 0.38438 0.13347 0.0
C3376 C 0.19936 0.41881 0.14271 0.0
H3377 H 0.15746 0.42745 0.12025 0.0
C3378 C 0.20223 0.43662 0.15089 0.0
C3379 C 0.18288 0.41537 0.13177 0.0
C3380 C 0.17863 0.39635 0.12331 0.0
C3381 C 0.18935 0.45117 0.14806 0.0
C3382 C 0.17295 0.4478 0.13698 0.0
C3383 C 0.16997 0.42997 0.12888 0.0
C3384 C 0.15954 0.46306 0.13243 0.0
C3385 C 0.19375 0.47024 0.15638 0.0
C3386 C 0.14979 0.47246 0.1475 0.0
C3387 C 0.13884 0.48819 0.14312 0.0
C3388 C 0.13754 0.49477 0.1236 0.0
C3389 C 0.14655 0.48469 0.10848 0.0
C3390 C 0.15738 0.46901 0.11284 0.0
H3391 H 0.20858 0.47144 0.16102 0.0
H3392 H 0.19076 0.48131 0.14533 0.0
H3393 H 0.18484 0.47284 0.16951 0.0
H3394 H 0.15104 0.46792 0.16271 0.0
H3395 H 0.13206 0.49563 0.15506 0.0
H3396 H 0.88505 0.97814 0.44359 0.0
H3397 H 0.86357 0.95307 0.43455 0.0
H3398 H 0.84988 0.98221 0.38067 0.0
H3399 H 0.87185 1.00718 0.38955 0.0
H3400 H 0.82699 0.95574 0.43055 0.0
H3401 H 0.85656 0.93015 0.35993 0.0
H3402 H 0.86934 0.94546 0.37623 0.0
H3403 H 0.85206 0.95479 0.35961 0.0
C3404 C 0.87763 0.97906 0.42969 0.0
C3405 C 0.88007 0.99462 0.41728 0.0
C3406 C 0.86536 0.96473 0.42453 0.0
C3407 C 0.85514 0.96561 0.40686 0.0
C3408 C 0.85789 0.98094 0.39416 0.0
H3409 H 0.7596 0.90957 0.35926 0.0
H3410 H 0.78515 0.93025 0.36825 0.0
C3411 C 0.8704 0.99524 0.39924 0.0
C3412 C 0.84071 0.95117 0.4026 0.0
H3413 H 0.82549 0.92025 0.36765 0.0
C3414 C 0.82682 0.94783 0.41688 0.0
C3415 C 0.84045 0.94078 0.3848 0.0
C3416 C 0.85551 0.94282 0.36935 0.0
C3417 C 0.81245 0.93483 0.41362 0.0
C3418 C 0.81195 0.92484 0.39564 0.0
C3419 C 0.82593 0.92795 0.38145 0.0
C3420 C 0.79636 0.912 0.39072 0.0
C3421 C 0.79753 0.93226 0.42913 0.0
C3422 C 0.79408 0.89484 0.4005 0.0
C3423 C 0.77948 0.88274 0.39523 0.0
C3424 C 0.76695 0.88763 0.38005 0.0
C3425 C 0.76916 0.90506 0.37067 0.0
C3426 C 0.78374 0.91701 0.37585 0.0
H3427 H 0.79851 0.94286 0.44108 0.0
H3428 H 0.78344 0.93312 0.42232 0.0
H3429 H 0.79897 0.9182 0.43585 0.0
H3430 H 0.80377 0.89068 0.41198 0.0
H3431 H 0.77829 0.86943 0.40267 0.0
H3432 H 0.27204 0.61939 0.68294 0.0
H3433 H 0.29622 0.59667 0.67463 0.0
H3434 H 0.2915 0.61148 0.6131 0.0
H3435 H 0.26711 0.63424 0.6213 0.0
H3436 H 0.29157 0.56607 0.64994 0.0
H3437 H 0.34832 0.61224 0.62264 0.0
H3438 H 0.32887 0.62089 0.63698 0.0
H3439 H 0.32592 0.6157 0.61121 0.0
C3440 C 0.27612 0.61787 0.66763 0.0
C3441 C 0.2675 0.6286 0.65278 0.0
C3442 C 0.29004 0.60493 0.66292 0.0
C3443 C 0.29579 0.60244 0.64327 0.0
C3444 C 0.28754 0.61338 0.62841 0.0
H3445 H 0.35316 0.50184 0.60249 0.0
H3446 H 0.33185 0.52841 0.60577 0.0
C3447 C 0.27358 0.6264 0.63313 0.0
C3448 C 0.30954 0.58755 0.6384 0.0
H3449 H 0.35311 0.57959 0.61942 0.0
C3450 C 0.30501 0.56903 0.64323 0.0
C3451 C 0.32713 0.59145 0.6298 0.0
C3452 C 0.333 0.61115 0.62498 0.0
C3453 C 0.31755 0.55431 0.63971 0.0
C3454 C 0.33503 0.55814 0.63082 0.0
C3455 C 0.33963 0.57666 0.62604 0.0
C3456 C 0.34888 0.54307 0.62712 0.0
C3457 C 0.31216 0.53482 0.646 0.0
C3458 C 0.36589 0.54283 0.63742 0.0
C3459 C 0.37811 0.52765 0.63559 0.0
C3460 C 0.37357 0.51239 0.62335 0.0
C3461 C 0.35693 0.51316 0.61231 0.0
C3462 C 0.34474 0.52835 0.61415 0.0
H3463 H 0.30023 0.53489 0.65651 0.0
H3464 H 0.30796 0.52665 0.63279 0.0
H3465 H 0.32414 0.52757 0.65306 0.0
H3466 H 0.36937 0.55406 0.6475 0.0
H3467 H 0.39067 0.52751 0.64446 0.0
H3468 H 0.63935 0.01686 0.87397 0.0
H3469 H 0.66138 0.04194 0.86519 0.0
H3470 H 0.65778 0.06361 0.9245 0.0
H3471 H 0.63598 0.03879 0.93327 0.0
H3472 H 0.65955 0.08256 0.8683 0.0
H3473 H 0.71385 0.05189 0.91703 0.0
H3474 H 0.69336 0.0391 0.90945 0.0
H3475 H 0.69185 0.05603 0.929 0.0
C3476 C 0.64306 0.02717 0.88499 0.0
C3477 C 0.63621 0.02567 0.9044 0.0
C3478 C 0.65567 0.04143 0.88 0.0
C3479 C 0.66155 0.05438 0.89434 0.0
C3480 C 0.65381 0.05352 0.91335 0.0
H3481 H 0.74749 0.14041 0.90163 0.0
H3482 H 0.72046 0.1202 0.908 0.0
C3483 C 0.64135 0.03931 0.91833 0.0
C3484 C 0.67634 0.06832 0.88994 0.0
H3485 H 0.7202 0.08181 0.90378 0.0
C3486 C 0.67285 0.08237 0.87596 0.0
C3487 C 0.69367 0.06808 0.90001 0.0
C3488 C 0.69854 0.05289 0.91459 0.0
C3489 C 0.68611 0.09641 0.87208 0.0
C3490 C 0.70342 0.0962 0.88223 0.0
C3491 C 0.70688 0.0821 0.89615 0.0
C3492 C 0.71856 0.10985 0.87801 0.0
C3493 C 0.68131 0.11156 0.85745 0.0
C3494 C 0.72642 0.11085 0.85906 0.0
C3495 C 0.74176 0.12239 0.85541 0.0
C3496 C 0.74977 0.13311 0.87066 0.0
C3497 C 0.74159 0.13247 0.88954 0.0
C3498 C 0.7262 0.12086 0.89321 0.0
H3499 H 0.66596 0.11301 0.85557 0.0
H3500 H 0.68711 0.12524 0.86213 0.0
H3501 H 0.68737 0.10794 0.84285 0.0
H3502 H 0.72104 0.10226 0.84718 0.0
H3503 H 0.74752 0.12271 0.84063 0.0
H3504 H 0.12477 0.5271 0.37345 0.0
H3505 H 0.1462 0.55174 0.36216 0.0
H3506 H 0.18773 0.53251 0.40356 0.0
H3507 H 0.16682 0.50781 0.41441 0.0
H3508 H 0.16258 0.58071 0.3847 0.0
H3509 H 0.21688 0.53523 0.35186 0.0
H3510 H 0.1937 0.52691 0.35758 0.0
H3511 H 0.2111 0.5286 0.37668 0.0
C3512 C 0.13857 0.52799 0.3799 0.0
C3513 C 0.14402 0.51551 0.3949 0.0
C3514 C 0.15075 0.54213 0.37355 0.0
C3515 C 0.16865 0.54385 0.38188 0.0
C3516 C 0.17412 0.53131 0.39669 0.0
H3517 H 0.24616 0.63559 0.39228 0.0
H3518 H 0.22048 0.6133 0.39616 0.0
C3519 C 0.16202 0.51728 0.40305 0.0
C3520 C 0.18161 0.55899 0.37574 0.0
H3521 H 0.22612 0.56655 0.35953 0.0
C3522 C 0.17639 0.57766 0.37894 0.0
C3523 C 0.19954 0.55503 0.368 0.0
C3524 C 0.20559 0.53536 0.36313 0.0
C3525 C 0.18893 0.59242 0.37538 0.0
C3526 C 0.20727 0.58835 0.36877 0.0
C3527 C 0.21216 0.56972 0.36482 0.0
C3528 C 0.22176 0.60305 0.36608 0.0
C3529 C 0.18238 0.6122 0.37868 0.0
C3530 C 0.23123 0.60462 0.34799 0.0
C3531 C 0.24602 0.61719 0.34583 0.0
C3532 C 0.25173 0.6285 0.36172 0.0
C3533 C 0.24195 0.62726 0.3797 0.0
C3534 C 0.22721 0.61456 0.3819 0.0
H3535 H 0.16693 0.6133 0.37762 0.0
H3536 H 0.18652 0.61675 0.39373 0.0
H3537 H 0.18873 0.62192 0.36781 0.0
H3538 H 0.22732 0.59591 0.33557 0.0
H3539 H 0.25309 0.61797 0.33172 0.0
H3540 H 0.63672 0.9846 0.59542 0.0
H3541 H 0.65636 0.95749 0.60219 0.0
H3542 H 0.65513 0.97045 0.66441 0.0
H3543 H 0.63527 0.99777 0.65762 0.0
H3544 H 0.69143 0.96032 0.61863 0.0
H3545 H 0.64652 0.91374 0.66375 0.0
H3546 H 0.63717 0.93265 0.64911 0.0
H3547 H 0.64798 0.93738 0.67253 0.0
C3548 C 0.64046 0.98158 0.61058 0.0
C3549 C 0.63463 0.99343 0.62598 0.0
C3550 C 0.65163 0.96603 0.61443 0.0
C3551 C 0.6572 0.96187 0.63379 0.0
C3552 C 0.65076 0.9732 0.64937 0.0
H3553 H 0.7395 0.89047 0.68657 0.0
H3554 H 0.71322 0.91083 0.67883 0.0
C3555 C 0.63945 0.98881 0.64551 0.0
C3556 C 0.67113 0.94679 0.6372 0.0
H3557 H 0.67872 0.90568 0.66156 0.0
C3558 C 0.68859 0.94828 0.62788 0.0
C3559 C 0.66742 0.93113 0.64931 0.0
C3560 C 0.64871 0.92847 0.65914 0.0
C3561 C 0.70262 0.93484 0.63071 0.0
C3562 C 0.69898 0.91919 0.64289 0.0
C3563 C 0.68145 0.91759 0.65209 0.0
C3564 C 0.71373 0.90518 0.64744 0.0
C3565 C 0.72147 0.93791 0.62123 0.0
C3566 C 0.72244 0.89469 0.63245 0.0
C3567 C 0.7377 0.88309 0.63683 0.0
C3568 C 0.74445 0.88179 0.65629 0.0
C3569 C 0.73497 0.8915 0.67136 0.0
C3570 C 0.7198 0.90304 0.66699 0.0
H3571 H 0.72327 0.95254 0.61612 0.0
H3572 H 0.73292 0.93453 0.6317 0.0
H3573 H 0.72285 0.92861 0.60819 0.0
H3574 H 0.71773 0.89584 0.6173 0.0
H3575 H 0.74465 0.87577 0.62492 0.0
H3576 H 0.38404 0.49163 0.89544 0.0
H3577 H 0.36329 0.46485 0.89066 0.0
H3578 H 0.33772 0.47547 0.94723 0.0
H3579 H 0.35849 0.50209 0.95224 0.0
H3580 H 0.35751 0.43222 0.91451 0.0
H3581 H 0.29325 0.47554 0.90849 0.0
H3582 H 0.31639 0.48535 0.90648 0.0
H3583 H 0.30707 0.47934 0.93028 0.0
C3584 C 0.37417 0.48817 0.90698 0.0
C3585 C 0.37285 0.4992 0.92415 0.0
C3586 C 0.36225 0.47289 0.90418 0.0
C3587 C 0.34874 0.46836 0.91844 0.0
C3588 C 0.34776 0.47895 0.93584 0.0
H3589 H 0.25718 0.38649 0.91168 0.0
H3590 H 0.27981 0.40911 0.92493 0.0
C3591 C 0.35965 0.49421 0.93865 0.0
C3592 C 0.3355 0.45271 0.91496 0.0
H3593 H 0.28937 0.44289 0.90725 0.0
C3594 C 0.3426 0.43453 0.91299 0.0
C3595 C 0.31603 0.45573 0.91314 0.0
C3596 C 0.30767 0.47504 0.91454 0.0
C3597 C 0.33078 0.4193 0.90908 0.0
C3598 C 0.31137 0.42239 0.90669 0.0
C3599 C 0.30422 0.44051 0.90918 0.0
C3600 C 0.2985 0.40743 0.89985 0.0
C3601 C 0.33919 0.40003 0.90757 0.0
C3602 C 0.30152 0.39893 0.88145 0.0
C3603 C 0.2887 0.3861 0.87394 0.0
C3604 C 0.27243 0.38152 0.88454 0.0
C3605 C 0.26963 0.38962 0.90324 0.0
C3606 C 0.2825 0.4026 0.91076 0.0
H3607 H 0.35248 0.39905 0.91599 0.0
H3608 H 0.32941 0.38921 0.91316 0.0
H3609 H 0.34234 0.39693 0.89186 0.0
H3610 H 0.31354 0.40265 0.87257 0.0
H3611 H 0.2914 0.37995 0.85961 0.0
H3612 H 0.85514 0.01053 0.12583 0.0
H3613 H 0.83479 0.03682 0.13335 0.0
H3614 H 0.87675 0.05976 0.17199 0.0
H3615 H 0.89762 0.03335 0.16416 0.0
H3616 H 0.83747 0.05978 0.18684 0.0
H3617 H 0.84486 0.09099 0.11231 0.0
H3618 H 0.83956 0.06647 0.11203 0.0
H3619 H 0.86138 0.07434 0.12218 0.0
C3620 C 0.8602 0.02118 0.13583 0.0
C3621 C 0.87821 0.01999 0.14407 0.0
C3622 C 0.84848 0.0362 0.14015 0.0
C3623 C 0.8544 0.05044 0.15287 0.0
C3624 C 0.872 0.04897 0.16196 0.0
H3625 H 0.78473 0.15211 0.15729 0.0
H3626 H 0.81227 0.13177 0.15587 0.0
C3627 C 0.88386 0.03386 0.15756 0.0
C3628 C 0.84198 0.06676 0.1563 0.0
H3629 H 0.81867 0.1012 0.1315 0.0
C3630 C 0.83358 0.06906 0.17486 0.0
C3631 C 0.83708 0.07901 0.14072 0.0
C3632 C 0.84631 0.07774 0.12072 0.0
C3633 C 0.8196 0.0826 0.17793 0.0
C3634 C 0.81376 0.09396 0.16194 0.0
C3635 C 0.82298 0.09239 0.14371 0.0
C3636 C 0.79725 0.10655 0.16337 0.0
C3637 C 0.81102 0.08441 0.19819 0.0
C3638 C 0.77959 0.0991 0.16764 0.0
C3639 C 0.76384 0.11061 0.16827 0.0
C3640 C 0.76528 0.12993 0.1646 0.0
C3641 C 0.783 0.13734 0.16008 0.0
C3642 C 0.7988 0.12574 0.1594 0.0
H3643 H 0.82066 0.07927 0.20985 0.0
H3644 H 0.80725 0.09914 0.20148 0.0
H3645 H 0.79811 0.07586 0.19885 0.0
H3646 H 0.77792 0.08425 0.17015 0.0
H3647 H 0.75046 0.10424 0.17133 0.0
H3648 H 0.89496 0.54587 0.92097 0.0
H3649 H 0.8705 0.56889 0.91407 0.0
H3650 H 0.84894 0.53356 0.86783 0.0
H3651 H 0.87362 0.51042 0.87469 0.0
H3652 H 0.85803 0.58716 0.87478 0.0
H3653 H 0.8065 0.54118 0.9126 0.0
H3654 H 0.83133 0.53913 0.91678 0.0
H3655 H 0.82138 0.53083 0.89413 0.0
C3656 C 0.88519 0.54318 0.9091 0.0
C3657 C 0.88607 0.52634 0.89843 0.0
C3658 C 0.87128 0.55634 0.90515 0.0
C3659 C 0.85784 0.55284 0.89059 0.0
C3660 C 0.85919 0.53647 0.87918 0.0
H3661 H 0.75133 0.60228 0.86413 0.0
H3662 H 0.77872 0.58272 0.8683 0.0
C3663 C 0.87331 0.52334 0.883 0.0
C3664 C 0.84165 0.56565 0.88857 0.0
H3665 H 0.79539 0.56966 0.90002 0.0
C3666 C 0.84429 0.58338 0.88021 0.0
C3667 C 0.82385 0.56069 0.89587 0.0
C3668 C 0.82046 0.54198 0.90548 0.0
C3669 C 0.82941 0.59615 0.87848 0.0
C3670 C 0.81154 0.59122 0.88587 0.0
C3671 C 0.80905 0.5735 0.89442 0.0
C3672 C 0.79491 0.60361 0.88378 0.0
C3673 C 0.83285 0.61453 0.86823 0.0
C3674 C 0.79459 0.62189 0.89144 0.0
C3675 C 0.77886 0.63338 0.88876 0.0
C3676 C 0.76312 0.62671 0.87849 0.0
C3677 C 0.76331 0.60814 0.87162 0.0
C3678 C 0.77897 0.59681 0.87415 0.0
H3679 H 0.84571 0.61413 0.85905 0.0
H3680 H 0.82087 0.61838 0.85863 0.0
H3681 H 0.83463 0.62565 0.87949 0.0
H3682 H 0.8065 0.62732 0.89944 0.0
H3683 H 0.7792 0.64755 0.89431 0.0
H3684 H 0.15197 0.01294 0.60775 0.0
H3685 H 0.17354 0.03881 0.6137 0.0
H3686 H 0.14336 0.05324 0.6667 0.0
H3687 H 0.12162 0.02739 0.66073 0.0
H3688 H 0.15498 0.08467 0.64489 0.0
H3689 H 0.21337 0.03498 0.65673 0.0
H3690 H 0.20203 0.03223 0.63327 0.0
H3691 H 0.18931 0.02758 0.65566 0.0
C3692 C 0.14986 0.02169 0.62061 0.0
C3693 C 0.1352 0.01798 0.63387 0.0
C3694 C 0.16221 0.03645 0.62401 0.0
C3695 C 0.16031 0.04771 0.64088 0.0
C3696 C 0.14514 0.04468 0.65364 0.0
H3697 H 0.25324 0.11109 0.68883 0.0
H3698 H 0.22612 0.09073 0.68458 0.0
C3699 C 0.13268 0.02994 0.65016 0.0
C3700 C 0.17471 0.06198 0.64565 0.0
H3701 H 0.22135 0.06704 0.65471 0.0
C3702 C 0.16948 0.08085 0.64712 0.0
C3703 C 0.19358 0.05694 0.64892 0.0
C3704 C 0.19993 0.03682 0.64877 0.0
C3705 C 0.18272 0.09484 0.65131 0.0
C3706 C 0.20173 0.08985 0.65379 0.0
C3707 C 0.20682 0.07093 0.65269 0.0
C3708 C 0.21671 0.10383 0.65754 0.0
C3709 C 0.17617 0.11478 0.65334 0.0
C3710 C 0.22032 0.11824 0.64397 0.0
C3711 C 0.23578 0.13 0.64647 0.0
C3712 C 0.24808 0.12739 0.66244 0.0
C3713 C 0.2441 0.11334 0.67631 0.0
C3714 C 0.22859 0.10172 0.6739 0.0
H3715 H 0.16103 0.11552 0.65687 0.0
H3716 H 0.18407 0.12224 0.66504 0.0
H3717 H 0.17843 0.12218 0.63914 0.0
H3718 H 0.21167 0.1199 0.63097 0.0
H3719 H 0.23865 0.14049 0.63536 0.0
H3720 H 0.64359 0.50974 0.38738 0.0
H3721 H 0.66768 0.48659 0.37851 0.0
H3722 H 0.64814 0.45037 0.42498 0.0
H3723 H 0.62426 0.47335 0.43382 0.0
H3724 H 0.6956 0.47362 0.40782 0.0
H3725 H 0.65415 0.4154 0.37583 0.0
H3726 H 0.64563 0.43916 0.37667 0.0
H3727 H 0.64551 0.42506 0.3986 0.0
C3728 C 0.6442 0.49663 0.39532 0.0
C3729 C 0.63212 0.49333 0.4113 0.0
C3730 C 0.65799 0.48348 0.39035 0.0
C3731 C 0.65963 0.46671 0.40103 0.0
C3732 C 0.64702 0.46309 0.4164 0.0
H3733 H 0.73816 0.37249 0.39955 0.0
H3734 H 0.71232 0.39385 0.40766 0.0
C3735 C 0.63345 0.47626 0.4215 0.0
C3736 C 0.67542 0.45367 0.39741 0.0
H3737 H 0.686 0.40919 0.38281 0.0
C3738 C 0.69354 0.45958 0.4022 0.0
C3739 C 0.67264 0.43524 0.39049 0.0
C3740 C 0.65347 0.42829 0.38495 0.0
C3741 C 0.70895 0.44752 0.40041 0.0
C3742 C 0.70626 0.42917 0.3931 0.0
C3743 C 0.68808 0.42321 0.38845 0.0
C3744 C 0.72225 0.41637 0.38909 0.0
C3745 C 0.7279 0.45447 0.40682 0.0
C3746 C 0.7364 0.42188 0.37602 0.0
C3747 C 0.75116 0.40986 0.37158 0.0
C3748 C 0.75207 0.39181 0.3798 0.0
C3749 C 0.73799 0.38632 0.39308 0.0
C3750 C 0.72315 0.39846 0.39761 0.0
H3751 H 0.72667 0.46586 0.4179 0.0
H3752 H 0.73645 0.44304 0.41327 0.0
H3753 H 0.73541 0.46017 0.39381 0.0
H3754 H 0.73589 0.43544 0.36895 0.0
H3755 H 0.76184 0.41476 0.36154 0.0
H3756 H 0.36825 1.00114 0.0946 0.0
H3757 H 0.34641 0.97558 0.10122 0.0
H3758 H 0.36577 0.97277 0.16141 0.0
H3759 H 0.38762 0.99848 0.15497 0.0
H3760 H 0.35738 0.93555 0.12498 0.0
H3761 H 0.30378 0.98436 0.15522 0.0
H3762 H 0.31998 0.99174 0.13629 0.0
H3763 H 0.32815 0.98782 0.16095 0.0
C3764 C 0.36791 0.99508 0.10924 0.0
C3765 C 0.37962 1.00195 0.12429 0.0
C3766 C 0.35552 0.98039 0.11295 0.0
C3767 C 0.35451 0.97234 0.13178 0.0
C3768 C 0.36644 0.97879 0.14674 0.0
H3769 H 0.26911 0.90215 0.18395 0.0
H3770 H 0.29525 0.92325 0.17773 0.0
C3771 C 0.37894 0.99343 0.14302 0.0
C3772 C 0.34023 0.95791 0.13603 0.0
H3773 H 0.29598 0.95257 0.15387 0.0
C3774 C 0.34395 0.93918 0.13134 0.0
C3775 C 0.32281 0.96276 0.14436 0.0
C3776 C 0.31825 0.98274 0.14953 0.0
C3777 C 0.33066 0.92509 0.13492 0.0
C3778 C 0.31303 0.92998 0.14297 0.0
C3779 C 0.30944 0.94877 0.1477 0.0
C3780 C 0.29809 0.91595 0.14684 0.0
C3781 C 0.33581 0.9051 0.13047 0.0
C3782 C 0.29097 0.90464 0.13161 0.0
C3783 C 0.27606 0.89241 0.1352 0.0
C3784 C 0.26775 0.89151 0.15401 0.0
C3785 C 0.27506 0.90267 0.16926 0.0
C3786 C 0.29005 0.91471 0.16572 0.0
H3787 H 0.3512 0.90311 0.1301 0.0
H3788 H 0.3298 0.89542 0.1416 0.0
H3789 H 0.33023 0.90123 0.11573 0.0
H3790 H 0.29657 0.90564 0.11679 0.0
H3791 H 0.27057 0.88417 0.12311 0.0
H3792 H 0.77304 0.37876 0.62482 0.0
H3793 H 0.80127 0.3972 0.61792 0.0
H3794 H 0.80261 0.41541 0.67864 0.0
H3795 H 0.77491 0.39682 0.68565 0.0
H3796 H 0.80318 0.4356 0.6221 0.0
H3797 H 0.85706 0.40233 0.66908 0.0
H3798 H 0.83535 0.39091 0.66292 0.0
H3799 H 0.83613 0.40802 0.68238 0.0
C3800 C 0.77965 0.38635 0.63675 0.0
C3801 C 0.77166 0.38646 0.65572 0.0
C3802 C 0.79572 0.39694 0.6328 0.0
C3803 C 0.8042 0.40755 0.64782 0.0
C3804 C 0.79658 0.4071 0.6669 0.0
H3805 H 0.88344 0.49959 0.65353 0.0
H3806 H 0.86193 0.47383 0.66157 0.0
C3807 C 0.78056 0.39664 0.67082 0.0
C3808 C 0.81979 0.42056 0.64329 0.0
H3809 H 0.86398 0.43311 0.6572 0.0
C3810 C 0.81656 0.4349 0.62958 0.0
C3811 C 0.83717 0.41979 0.65326 0.0
C3812 C 0.84173 0.40433 0.6676 0.0
C3813 C 0.83 0.44873 0.62592 0.0
C3814 C 0.84734 0.44804 0.63596 0.0
C3815 C 0.85067 0.43364 0.64958 0.0
C3816 C 0.86216 0.46207 0.6321 0.0
C3817 C 0.82533 0.46428 0.61169 0.0
C3818 C 0.86998 0.46348 0.61318 0.0
C3819 C 0.88212 0.47809 0.60862 0.0
C3820 C 0.88685 0.49154 0.62291 0.0
C3821 C 0.88004 0.48941 0.64226 0.0
C3822 C 0.86773 0.47477 0.64682 0.0
H3823 H 0.81004 0.4654 0.60909 0.0
H3824 H 0.8305 0.47792 0.61727 0.0
H3825 H 0.83217 0.46147 0.59728 0.0
H3826 H 0.86621 0.4536 0.60173 0.0
H3827 H 0.88746 0.47916 0.5937 0.0
H3828 H 0.27439 0.11767 0.34349 0.0
H3829 H 0.30148 0.09877 0.35237 0.0
H3830 H 0.29724 0.11789 0.41262 0.0
H3831 H 0.26966 0.13661 0.40386 0.0
H3832 H 0.33638 0.10724 0.36962 0.0
H3833 H 0.29347 0.06063 0.41716 0.0
H3834 H 0.28318 0.07704 0.40011 0.0
H3835 H 0.29256 0.08505 0.42321 0.0
C3836 C 0.27918 0.11787 0.35865 0.0
C3837 C 0.26964 0.12838 0.37306 0.0
C3838 C 0.29479 0.10717 0.36366 0.0
C3839 C 0.30121 0.10666 0.38321 0.0
C3840 C 0.29233 0.11785 0.39749 0.0
H3841 H 0.38013 0.03126 0.43913 0.0
H3842 H 0.35944 0.05741 0.43157 0.0
C3843 C 0.27667 0.12865 0.39246 0.0
C3844 C 0.3165 0.09358 0.38861 0.0
H3845 H 0.32549 0.05383 0.41478 0.0
C3846 C 0.33407 0.09561 0.37959 0.0
C3847 C 0.31341 0.07834 0.4015 0.0
C3848 C 0.29462 0.07495 0.41096 0.0
C3849 C 0.34866 0.08287 0.38322 0.0
C3850 C 0.34547 0.0675 0.39591 0.0
C3851 C 0.32796 0.06562 0.40508 0.0
C3852 C 0.35991 0.05303 0.39995 0.0
C3853 C 0.36739 0.08612 0.37362 0.0
C3854 C 0.36741 0.04201 0.38465 0.0
C3855 C 0.37937 0.02702 0.38897 0.0
C3856 C 0.38377 0.02264 0.40867 0.0
C3857 C 0.37677 0.03412 0.42383 0.0
C3858 C 0.36499 0.04912 0.41953 0.0
H3859 H 0.36915 0.10093 0.36908 0.0
H3860 H 0.37898 0.08228 0.38374 0.0
H3861 H 0.36849 0.07731 0.36018 0.0
H3862 H 0.36341 0.0445 0.36946 0.0
H3863 H 0.38441 0.0183 0.37703 0.0
H3864 H 0.73841 0.64986 0.14523 0.0
H3865 H 0.71023 0.63059 0.14141 0.0
H3866 H 0.7372 0.5855 0.17244 0.0
H3867 H 0.76537 0.60415 0.17574 0.0
H3868 H 0.70899 0.59102 0.12399 0.0
H3869 H 0.68569 0.59618 0.20217 0.0
H3870 H 0.70067 0.6134 0.19077 0.0
H3871 H 0.71007 0.59126 0.19822 0.0
C3872 C 0.73841 0.6358 0.15107 0.0
C3873 C 0.75415 0.62873 0.16106 0.0
C3874 C 0.72226 0.62487 0.149 0.0
C3875 C 0.72155 0.6068 0.15703 0.0
C3876 C 0.73733 0.59957 0.16654 0.0
H3877 H 0.64659 0.51227 0.16418 0.0
H3878 H 0.67025 0.53652 0.1706 0.0
C3879 C 0.75344 0.61035 0.16846 0.0
C3880 C 0.70463 0.59504 0.15512 0.0
H3881 H 0.67043 0.57367 0.18213 0.0
C3882 C 0.70037 0.5874 0.13661 0.0
C3883 C 0.69366 0.59016 0.17171 0.0
C3884 C 0.69759 0.59824 0.19186 0.0
C3885 C 0.68573 0.57454 0.13432 0.0
C3886 C 0.67468 0.56962 0.15093 0.0
C3887 C 0.67883 0.57747 0.16942 0.0
C3888 C 0.659 0.5561 0.1493 0.0
C3889 C 0.68276 0.56577 0.11427 0.0
C3890 C 0.64433 0.55945 0.13603 0.0
C3891 C 0.63106 0.54564 0.1323 0.0
C3892 C 0.63191 0.52837 0.14209 0.0
C3893 C 0.64563 0.52555 0.15659 0.0
C3894 C 0.65915 0.53933 0.16014 0.0
H3895 H 0.69539 0.56697 0.10481 0.0
H3896 H 0.67906 0.55077 0.11563 0.0
H3897 H 0.67115 0.57307 0.10663 0.0
H3898 H 0.64359 0.57248 0.12794 0.0
H3899 H 0.62049 0.54813 0.12117 0.0
H3900 H 0.14497 0.98401 0.94747 0.0
H3901 H 0.16689 0.96001 0.93702 0.0
H3902 H 0.15859 0.97586 0.8762 0.0
H3903 H 0.13726 1.00071 0.88663 0.0
H3904 H 0.16352 0.92977 0.91406 0.0
H3905 H 0.21466 0.97849 0.88037 0.0
H3906 H 0.19541 0.9865 0.89535 0.0
H3907 H 0.1917 0.98022 0.86991 0.0
C3908 C 0.14793 0.98267 0.93186 0.0
C3909 C 0.13954 0.99467 0.91796 0.0
C3910 C 0.16038 0.96874 0.92589 0.0
C3911 C 0.16475 0.96634 0.90586 0.0
C3912 C 0.15584 0.97774 0.89181 0.0
H3913 H 0.23746 0.89014 0.84317 0.0
H3914 H 0.21309 0.91185 0.85342 0.0
C3915 C 0.14344 0.99183 0.89779 0.0
C3916 C 0.17874 0.952 0.89991 0.0
H3917 H 0.22046 0.94614 0.8761 0.0
C3918 C 0.17599 0.93337 0.9058 0.0
C3919 C 0.19512 0.9567 0.88926 0.0
C3920 C 0.19954 0.97658 0.88351 0.0
C3921 C 0.189 0.91932 0.90111 0.0
C3922 C 0.20521 0.92403 0.8903 0.0
C3923 C 0.20797 0.9426 0.88437 0.0
C3924 C 0.21935 0.90986 0.88457 0.0
C3925 C 0.18523 0.89949 0.90742 0.0
C3926 C 0.23092 0.9014 0.89874 0.0
C3927 C 0.24513 0.88906 0.89291 0.0
C3928 C 0.24803 0.88503 0.87277 0.0
C3929 C 0.23598 0.89318 0.85875 0.0
C3930 C 0.22191 0.90553 0.86457 0.0
H3931 H 0.17068 0.89759 0.91276 0.0
H3932 H 0.18778 0.8897 0.89497 0.0
H3933 H 0.19491 0.89567 0.91957 0.0
H3934 H 0.22929 0.90472 0.91426 0.0
H3935 H 0.2542 0.88318 0.90408 0.0
loop_
_geom_bond_atom_site_label_1
_geom_bond_atom_site_label_2
_geom_bond_distance
_geom_bond_site_symmetry_2
_ccdc_geom_bond_type
C0 C1 1.351 . S
C0 N3 1.368 . S
C0 H5 0.931 . S
C1 C0 1.351 . S
C1 N2 1.373 . S
C1 H29 0.930 . S
N2 C1 1.373 . S
N2 C4 1.340 . S
N3 C0 1.368 . S
N3 C4 1.321 . S
N3 Co6 2.135 . S
C4 N2 1.340 . S
C4 N3 1.321 . S
C4 H28 0.930 . S
H5 C0 0.931 . S
Co6 N3 2.135 . S
Co6 N9 2.121 . S
Co6 O14 2.055 . S
Co6 O17 2.039 . S
Co6 N20 2.140 . S
C7 O8 1.227 . S
C7 O17 1.265 . S
O8 C7 1.227 . S
N9 Co6 2.121 . S
N9 C11 1.375 . S
N9 C12 1.313 . S
C10 C11 1.338 . S
C10 N13 1.377 . S
C10 H30 0.930 . S
C11 N9 1.375 . S
C11 C10 1.338 . S
C11 H15 0.931 . S
C12 N9 1.313 . S
C12 N13 1.344 . S
C12 H16 0.930 . S
N13 C10 1.377 . S
N13 C12 1.344 . S
O14 Co6 2.055 . S
O14 C18 1.253 . S
H15 C11 0.931 . S
H16 C12 0.930 . S
O17 Co6 2.039 . S
O17 C7 1.265 . S
C18 O14 1.253 . S
C18 O19 1.227 . S
O19 C18 1.227 . S
N20 Co6 2.140 . S
N20 C23 1.346 . S
N20 C24 1.345 . S
C21 C22 1.387 . S
C21 C25 1.391 . S
C22 C21 1.387 . S
C22 C23 1.369 . S
C22 H31 0.929 . S
C23 N20 1.346 . S
C23 C22 1.369 . S
C23 H26 0.928 . S
C24 N20 1.345 . S
C24 C25 1.371 . S
C24 H27 0.931 . S
C25 C21 1.391 . S
C25 C24 1.371 . S
C25 H32 0.930 . S
H26 C23 0.928 . S
H27 C24 0.931 . S
H28 C4 0.930 . S
H29 C1 0.930 . S
H30 C10 0.930 . S
H31 C22 0.929 . S
H32 C25 0.930 . S
C33 C34 1.351 . S
C33 N36 1.368 . S
C33 H38 0.931 . S
C34 C33 1.351 . S
C34 N35 1.373 . S
C34 H62 0.930 . S
N35 C34 1.373 . S
N35 C37 1.340 . S
N36 C33 1.368 . S
N36 C37 1.321 . S
N36 Co39 2.135 . S
C37 N35 1.340 . S
C37 N36 1.321 . S
C37 H61 0.930 . S
H38 C33 0.931 . S
Co39 N36 2.135 . S
Co39 N42 2.121 . S
Co39 O47 2.055 . S
Co39 O50 2.039 . S
Co39 N53 2.140 . S
C40 O41 1.227 . S
C40 O50 1.265 . S
O41 C40 1.227 . S
N42 Co39 2.121 . S
N42 C44 1.375 . S
N42 C45 1.313 . S
C43 C44 1.338 . S
C43 N46 1.377 . S
C43 H63 0.930 . S
C44 N42 1.375 . S
C44 C43 1.338 . S
C44 H48 0.931 . S
C45 N42 1.313 . S
C45 N46 1.344 . S
C45 H49 0.930 . S
N46 C43 1.377 . S
N46 C45 1.344 . S
O47 Co39 2.055 . S
O47 C51 1.253 . S
H48 C44 0.931 . S
H49 C45 0.930 . S
O50 Co39 2.039 . S
O50 C40 1.265 . S
C51 O47 1.253 . S
C51 O52 1.227 . S
O52 C51 1.227 . S
N53 Co39 2.140 . S
N53 C56 1.346 . S
N53 C57 1.345 . S
C54 C55 1.387 . S
C54 C58 1.391 . S
C55 C54 1.387 . S
C55 C56 1.369 . S
C55 H64 0.929 . S
C56 N53 1.346 . S
C56 C55 1.369 . S
C56 H59 0.928 . S
C57 N53 1.345 . S
C57 C58 1.371 . S
C57 H60 0.931 . S
C58 C54 1.391 . S
C58 C57 1.371 . S
C58 H65 0.930 . S
H59 C56 0.928 . S
H60 C57 0.931 . S
H61 C37 0.930 . S
H62 C34 0.930 . S
H63 C43 0.930 . S
H64 C55 0.929 . S
H65 C58 0.930 . S
C66 C67 1.351 . S
C66 N69 1.368 . S
C66 H71 0.931 . S
C67 C66 1.351 . S
C67 N68 1.373 . S
C67 H95 0.930 . S
N68 C67 1.373 . S
N68 C70 1.340 . S
N69 C66 1.368 . S
N69 C70 1.321 . S
N69 Co72 2.135 . S
C70 N68 1.340 . S
C70 N69 1.321 . S
C70 H94 0.930 . S
H71 C66 0.931 . S
Co72 N69 2.135 . S
Co72 N75 2.121 . S
Co72 O80 2.055 . S
Co72 O83 2.039 . S
Co72 N86 2.140 . S
C73 O74 1.227 . S
C73 O83 1.265 . S
O74 C73 1.227 . S
N75 Co72 2.121 . S
N75 C77 1.375 . S
N75 C78 1.313 . S
C76 C77 1.338 . S
C76 N79 1.377 . S
C76 H96 0.930 . S
C77 N75 1.375 . S
C77 C76 1.338 . S
C77 H81 0.931 . S
C78 N75 1.313 . S
C78 N79 1.344 . S
C78 H82 0.930 . S
N79 C76 1.377 . S
N79 C78 1.344 . S
O80 Co72 2.055 . S
O80 C84 1.253 . S
H81 C77 0.931 . S
H82 C78 0.930 . S
O83 Co72 2.039 . S
O83 C73 1.265 . S
C84 O80 1.253 . S
C84 O85 1.227 . S
O85 C84 1.227 . S
N86 Co72 2.140 . S
N86 C89 1.346 . S
N86 C90 1.345 . S
C87 C88 1.387 . S
C87 C91 1.391 . S
C88 C87 1.387 . S
C88 C89 1.369 . S
C88 H97 0.929 . S
C89 N86 1.346 . S
C89 C88 1.369 . S
C89 H92 0.928 . S
C90 N86 1.345 . S
C90 C91 1.371 . S
C90 H93 0.931 . S
C91 C87 1.391 . S
C91 C90 1.371 . S
C91 H98 0.930 . S
H92 C89 0.928 . S
H93 C90 0.931 . S
H94 C70 0.930 . S
H95 C67 0.930 . S
H96 C76 0.930 . S
H97 C88 0.929 . S
H98 C91 0.930 . S
C99 C100 1.351 . S
C99 N102 1.368 . S
C99 H104 0.931 . S
C100 C99 1.351 . S
C100 N101 1.373 . S
C100 H128 0.930 . S
N101 C100 1.373 . S
N101 C103 1.340 . S
N102 C99 1.368 . S
N102 C103 1.321 . S
N102 Co105 2.135 . S
C103 N101 1.340 . S
C103 N102 1.321 . S
C103 H127 0.930 . S
H104 C99 0.931 . S
Co105 N102 2.135 . S
Co105 N108 2.121 . S
Co105 O113 2.055 . S
Co105 O116 2.039 . S
Co105 N119 2.140 . S
C106 O107 1.227 . S
C106 O116 1.265 . S
O107 C106 1.227 . S
N108 Co105 2.121 . S
N108 C110 1.375 . S
N108 C111 1.313 . S
C109 C110 1.338 . S
C109 N112 1.377 . S
C109 H129 0.930 . S
C110 N108 1.375 . S
C110 C109 1.338 . S
C110 H114 0.931 . S
C111 N108 1.313 . S
C111 N112 1.344 . S
C111 H115 0.930 . S
N112 C109 1.377 . S
N112 C111 1.344 . S
O113 Co105 2.055 . S
O113 C117 1.253 . S
H114 C110 0.931 . S
H115 C111 0.930 . S
O116 Co105 2.039 . S
O116 C106 1.265 . S
C117 O113 1.253 . S
C117 O118 1.227 . S
O118 C117 1.227 . S
N119 Co105 2.140 . S
N119 C122 1.346 . S
N119 C123 1.345 . S
C120 C121 1.387 . S
C120 C124 1.391 . S
C121 C120 1.387 . S
C121 C122 1.369 . S
C121 H130 0.929 . S
C122 N119 1.346 . S
C122 C121 1.369 . S
C122 H125 0.928 . S
C123 N119 1.345 . S
C123 C124 1.371 . S
C123 H126 0.931 . S
C124 C120 1.391 . S
C124 C123 1.371 . S
C124 H131 0.930 . S
H125 C122 0.928 . S
H126 C123 0.931 . S
H127 C103 0.930 . S
H128 C100 0.930 . S
H129 C109 0.930 . S
H130 C121 0.929 . S
H131 C124 0.930 . S
C132 C133 1.351 . S
C132 N135 1.368 . S
C132 H137 0.931 . S
C133 C132 1.351 . S
C133 N134 1.373 . S
C133 H161 0.930 . S
N134 C133 1.373 . S
N134 C136 1.340 . S
N135 C132 1.368 . S
N135 C136 1.321 . S
N135 Co138 2.135 . S
C136 N134 1.340 . S
C136 N135 1.321 . S
C136 H160 0.930 . S
H137 C132 0.931 . S
Co138 N135 2.135 . S
Co138 N141 2.121 . S
Co138 O146 2.055 . S
Co138 O149 2.039 . S
Co138 N152 2.140 . S
C139 O140 1.227 . S
C139 O149 1.265 . S
O140 C139 1.227 . S
N141 Co138 2.121 . S
N141 C143 1.375 . S
N141 C144 1.313 . S
C142 C143 1.338 . S
C142 N145 1.377 . S
C142 H162 0.930 . S
C143 N141 1.375 . S
C143 C142 1.338 . S
C143 H147 0.931 . S
C144 N141 1.313 . S
C144 N145 1.344 . S
C144 H148 0.930 . S
N145 C142 1.377 . S
N145 C144 1.344 . S
O146 Co138 2.055 . S
O146 C150 1.253 . S
H147 C143 0.931 . S
H148 C144 0.930 . S
O149 Co138 2.039 . S
O149 C139 1.265 . S
C150 O146 1.253 . S
C150 O151 1.227 . S
O151 C150 1.227 . S
N152 Co138 2.140 . S
N152 C155 1.346 . S
N152 C156 1.345 . S
C153 C154 1.387 . S
C153 C157 1.391 . S
C154 C153 1.387 . S
C154 C155 1.369 . S
C154 H163 0.929 . S
C155 N152 1.346 . S
C155 C154 1.369 . S
C155 H158 0.928 . S
C156 N152 1.345 . S
C156 C157 1.371 . S
C156 H159 0.931 . S
C157 C153 1.391 . S
C157 C156 1.371 . S
C157 H164 0.930 . S
H158 C155 0.928 . S
H159 C156 0.931 . S
H160 C136 0.930 . S
H161 C133 0.930 . S
H162 C142 0.930 . S
H163 C154 0.929 . S
H164 C157 0.930 . S
C165 C166 1.351 . S
C165 N168 1.368 . S
C165 H170 0.931 . S
C166 C165 1.351 . S
C166 N167 1.373 . S
C166 H194 0.930 . S
N167 C166 1.373 . S
N167 C169 1.340 . S
N168 C165 1.368 . S
N168 C169 1.321 . S
N168 Co171 2.135 . S
C169 N167 1.340 . S
C169 N168 1.321 . S
C169 H193 0.930 . S
H170 C165 0.931 . S
Co171 N168 2.135 . S
Co171 N174 2.121 . S
Co171 O179 2.055 . S
Co171 O182 2.039 . S
Co171 N185 2.140 . S
C172 O173 1.227 . S
C172 O182 1.265 . S
O173 C172 1.227 . S
N174 Co171 2.121 . S
N174 C176 1.375 . S
N174 C177 1.313 . S
C175 C176 1.338 . S
C175 N178 1.377 . S
C175 H195 0.930 . S
C176 N174 1.375 . S
C176 C175 1.338 . S
C176 H180 0.931 . S
C177 N174 1.313 . S
C177 N178 1.344 . S
C177 H181 0.930 . S
N178 C175 1.377 . S
N178 C177 1.344 . S
O179 Co171 2.055 . S
O179 C183 1.253 . S
H180 C176 0.931 . S
H181 C177 0.930 . S
O182 Co171 2.039 . S
O182 C172 1.265 . S
C183 O179 1.253 . S
C183 O184 1.227 . S
O184 C183 1.227 . S
N185 Co171 2.140 . S
N185 C188 1.346 . S
N185 C189 1.345 . S
C186 C187 1.387 . S
C186 C190 1.391 . S
C187 C186 1.387 . S
C187 C188 1.369 . S
C187 H196 0.929 . S
C188 N185 1.346 . S
C188 C187 1.369 . S
C188 H191 0.928 . S
C189 N185 1.345 . S
C189 C190 1.371 . S
C189 H192 0.931 . S
C190 C186 1.391 . S
C190 C189 1.371 . S
C190 H197 0.930 . S
H191 C188 0.928 . S
H192 C189 0.931 . S
H193 C169 0.930 . S
H194 C166 0.930 . S
H195 C175 0.930 . S
H196 C187 0.929 . S
H197 C190 0.930 . S
C198 C199 1.351 . S
C198 N201 1.368 . S
C198 H203 0.931 . S
C199 C198 1.351 . S
C199 N200 1.373 . S
C199 H227 0.930 . S
N200 C199 1.373 . S
N200 C202 1.340 . S
N201 C198 1.368 . S
N201 C202 1.321 . S
N201 Co204 2.135 . S
C202 N200 1.340 . S
C202 N201 1.321 . S
C202 H226 0.930 . S
H203 C198 0.931 . S
Co204 N201 2.135 . S
Co204 N207 2.121 . S
Co204 O212 2.055 . S
Co204 O215 2.039 . S
Co204 N218 2.140 . S
C205 O206 1.227 . S
C205 O215 1.265 . S
O206 C205 1.227 . S
N207 Co204 2.121 . S
N207 C209 1.375 . S
N207 C210 1.313 . S
C208 C209 1.338 . S
C208 N211 1.377 . S
C208 H228 0.930 . S
C209 N207 1.375 . S
C209 C208 1.338 . S
C209 H213 0.931 . S
C210 N207 1.313 . S
C210 N211 1.344 . S
C210 H214 0.930 . S
N211 C208 1.377 . S
N211 C210 1.344 . S
O212 Co204 2.055 . S
O212 C216 1.253 . S
H213 C209 0.931 . S
H214 C210 0.930 . S
O215 Co204 2.039 . S
O215 C205 1.265 . S
C216 O212 1.253 . S
C216 O217 1.227 . S
O217 C216 1.227 . S
N218 Co204 2.140 . S
N218 C221 1.346 . S
N218 C222 1.345 . S
C219 C220 1.387 . S
C219 C223 1.391 . S
C220 C219 1.387 . S
C220 C221 1.369 . S
C220 H229 0.929 . S
C221 N218 1.346 . S
C221 C220 1.369 . S
C221 H224 0.928 . S
C222 N218 1.345 . S
C222 C223 1.371 . S
C222 H225 0.931 . S
C223 C219 1.391 . S
C223 C222 1.371 . S
C223 H230 0.930 . S
H224 C221 0.928 . S
H225 C222 0.931 . S
H226 C202 0.930 . S
H227 C199 0.930 . S
H228 C208 0.930 . S
H229 C220 0.929 . S
H230 C223 0.930 . S
C231 C232 1.351 . S
C231 N234 1.368 . S
C231 H236 0.931 . S
C232 C231 1.351 . S
C232 N233 1.373 . S
C232 H260 0.930 . S
N233 C232 1.373 . S
N233 C235 1.340 . S
N234 C231 1.368 . S
N234 C235 1.321 . S
N234 Co237 2.135 . S
C235 N233 1.340 . S
C235 N234 1.321 . S
C235 H259 0.930 . S
H236 C231 0.931 . S
Co237 N234 2.135 . S
Co237 N240 2.121 . S
Co237 O245 2.055 . S
Co237 O248 2.039 . S
Co237 N251 2.140 . S
C238 O239 1.227 . S
C238 O248 1.265 . S
O239 C238 1.227 . S
N240 Co237 2.121 . S
N240 C242 1.375 . S
N240 C243 1.313 . S
C241 C242 1.338 . S
C241 N244 1.377 . S
C241 H261 0.930 . S
C242 N240 1.375 . S
C242 C241 1.338 . S
C242 H246 0.931 . S
C243 N240 1.313 . S
C243 N244 1.344 . S
C243 H247 0.930 . S
N244 C241 1.377 . S
N244 C243 1.344 . S
O245 Co237 2.055 . S
O245 C249 1.253 . S
H246 C242 0.931 . S
H247 C243 0.930 . S
O248 Co237 2.039 . S
O248 C238 1.265 . S
C249 O245 1.253 . S
C249 O250 1.227 . S
O250 C249 1.227 . S
N251 Co237 2.140 . S
N251 C254 1.346 . S
N251 C255 1.345 . S
C252 C253 1.387 . S
C252 C256 1.391 . S
C253 C252 1.387 . S
C253 C254 1.369 . S
C253 H262 0.929 . S
C254 N251 1.346 . S
C254 C253 1.369 . S
C254 H257 0.928 . S
C255 N251 1.345 . S
C255 C256 1.371 . S
C255 H258 0.931 . S
C256 C252 1.391 . S
C256 C255 1.371 . S
C256 H263 0.930 . S
H257 C254 0.928 . S
H258 C255 0.931 . S
H259 C235 0.930 . S
H260 C232 0.930 . S
H261 C241 0.930 . S
H262 C253 0.929 . S
H263 C256 0.930 . S
C264 C265 1.351 . S
C264 N267 1.368 . S
C264 H269 0.931 . S
C265 C264 1.351 . S
C265 N266 1.373 . S
C265 H293 0.930 . S
N266 C265 1.373 . S
N266 C268 1.340 . S
N267 C264 1.368 . S
N267 C268 1.321 . S
N267 Co270 2.135 . S
C268 N266 1.340 . S
C268 N267 1.321 . S
C268 H292 0.930 . S
H269 C264 0.931 . S
Co270 N267 2.135 . S
Co270 N273 2.121 . S
Co270 O278 2.055 . S
Co270 O281 2.039 . S
Co270 N284 2.140 . S
C271 O272 1.227 . S
C271 O281 1.265 . S
O272 C271 1.227 . S
N273 Co270 2.121 . S
N273 C275 1.375 . S
N273 C276 1.313 . S
C274 C275 1.338 . S
C274 N277 1.377 . S
C274 H294 0.930 . S
C275 N273 1.375 . S
C275 C274 1.338 . S
C275 H279 0.931 . S
C276 N273 1.313 . S
C276 N277 1.344 . S
C276 H280 0.930 . S
N277 C274 1.377 . S
N277 C276 1.344 . S
O278 Co270 2.055 . S
O278 C282 1.253 . S
H279 C275 0.931 . S
H280 C276 0.930 . S
O281 Co270 2.039 . S
O281 C271 1.265 . S
C282 O278 1.253 . S
C282 O283 1.227 . S
O283 C282 1.227 . S
N284 Co270 2.140 . S
N284 C287 1.346 . S
N284 C288 1.345 . S
C285 C286 1.387 . S
C285 C289 1.391 . S
C286 C285 1.387 . S
C286 C287 1.369 . S
C286 H295 0.929 . S
C287 N284 1.346 . S
C287 C286 1.369 . S
C287 H290 0.928 . S
C288 N284 1.345 . S
C288 C289 1.371 . S
C288 H291 0.931 . S
C289 C285 1.391 . S
C289 C288 1.371 . S
C289 H296 0.930 . S
H290 C287 0.928 . S
H291 C288 0.931 . S
H292 C268 0.930 . S
H293 C265 0.930 . S
H294 C274 0.930 . S
H295 C286 0.929 . S
H296 C289 0.930 . S
C297 C298 1.351 . S
C297 N300 1.368 . S
C297 H302 0.931 . S
C298 C297 1.351 . S
C298 N299 1.373 . S
C298 H326 0.930 . S
N299 C298 1.373 . S
N299 C301 1.340 . S
N300 C297 1.368 . S
N300 C301 1.321 . S
N300 Co303 2.135 . S
C301 N299 1.340 . S
C301 N300 1.321 . S
C301 H325 0.930 . S
H302 C297 0.931 . S
Co303 N300 2.135 . S
Co303 N306 2.121 . S
Co303 O311 2.055 . S
Co303 O314 2.039 . S
Co303 N317 2.140 . S
C304 O305 1.227 . S
C304 O314 1.265 . S
O305 C304 1.227 . S
N306 Co303 2.121 . S
N306 C308 1.375 . S
N306 C309 1.313 . S
C307 C308 1.338 . S
C307 N310 1.377 . S
C307 H327 0.930 . S
C308 N306 1.375 . S
C308 C307 1.338 . S
C308 H312 0.931 . S
C309 N306 1.313 . S
C309 N310 1.344 . S
C309 H313 0.930 . S
N310 C307 1.377 . S
N310 C309 1.344 . S
O311 Co303 2.055 . S
O311 C315 1.253 . S
H312 C308 0.931 . S
H313 C309 0.930 . S
O314 Co303 2.039 . S
O314 C304 1.265 . S
C315 O311 1.253 . S
C315 O316 1.227 . S
O316 C315 1.227 . S
N317 Co303 2.140 . S
N317 C320 1.346 . S
N317 C321 1.345 . S
C318 C319 1.387 . S
C318 C322 1.391 . S
C319 C318 1.387 . S
C319 C320 1.369 . S
C319 H328 0.929 . S
C320 N317 1.346 . S
C320 C319 1.369 . S
C320 H323 0.928 . S
C321 N317 1.345 . S
C321 C322 1.371 . S
C321 H324 0.931 . S
C322 C318 1.391 . S
C322 C321 1.371 . S
C322 H329 0.930 . S
H323 C320 0.928 . S
H324 C321 0.931 . S
H325 C301 0.930 . S
H326 C298 0.930 . S
H327 C307 0.930 . S
H328 C319 0.929 . S
H329 C322 0.930 . S
C330 C331 1.351 . S
C330 N333 1.368 . S
C330 H335 0.931 . S
C331 C330 1.351 . S
C331 N332 1.373 . S
C331 H359 0.930 . S
N332 C331 1.373 . S
N332 C334 1.340 . S
N333 C330 1.368 . S
N333 C334 1.321 . S
N333 Co336 2.135 . S
C334 N332 1.340 . S
C334 N333 1.321 . S
C334 H358 0.930 . S
H335 C330 0.931 . S
Co336 N333 2.135 . S
Co336 N339 2.121 . S
Co336 O344 2.055 . S
Co336 O347 2.039 . S
Co336 N350 2.140 . S
C337 O338 1.227 . S
C337 O347 1.265 . S
O338 C337 1.227 . S
N339 Co336 2.121 . S
N339 C341 1.375 . S
N339 C342 1.313 . S
C340 C341 1.338 . S
C340 N343 1.377 . S
C340 H360 0.930 . S
C341 N339 1.375 . S
C341 C340 1.338 . S
C341 H345 0.931 . S
C342 N339 1.313 . S
C342 N343 1.344 . S
C342 H346 0.930 . S
N343 C340 1.377 . S
N343 C342 1.344 . S
O344 Co336 2.055 . S
O344 C348 1.253 . S
H345 C341 0.931 . S
H346 C342 0.930 . S
O347 Co336 2.039 . S
O347 C337 1.265 . S
C348 O344 1.253 . S
C348 O349 1.227 . S
O349 C348 1.227 . S
N350 Co336 2.140 . S
N350 C353 1.346 . S
N350 C354 1.345 . S
C351 C352 1.387 . S
C351 C355 1.391 . S
C352 C351 1.387 . S
C352 C353 1.369 . S
C352 H361 0.929 . S
C353 N350 1.346 . S
C353 C352 1.369 . S
C353 H356 0.928 . S
C354 N350 1.345 . S
C354 C355 1.371 . S
C354 H357 0.931 . S
C355 C351 1.391 . S
C355 C354 1.371 . S
C355 H362 0.930 . S
H356 C353 0.928 . S
H357 C354 0.931 . S
H358 C334 0.930 . S
H359 C331 0.930 . S
H360 C340 0.930 . S
H361 C352 0.929 . S
H362 C355 0.930 . S
C363 C364 1.351 . S
C363 N366 1.368 . S
C363 H368 0.931 . S
C364 C363 1.351 . S
C364 N365 1.373 . S
C364 H392 0.930 . S
N365 C364 1.373 . S
N365 C367 1.340 . S
N366 C363 1.368 . S
N366 C367 1.321 . S
N366 Co369 2.135 . S
C367 N365 1.340 . S
C367 N366 1.321 . S
C367 H391 0.930 . S
H368 C363 0.931 . S
Co369 N366 2.135 . S
Co369 N372 2.121 . S
Co369 O377 2.055 . S
Co369 O380 2.039 . S
Co369 N383 2.140 . S
C370 O371 1.227 . S
C370 O380 1.265 . S
O371 C370 1.227 . S
N372 Co369 2.121 . S
N372 C374 1.375 . S
N372 C375 1.313 . S
C373 C374 1.338 . S
C373 N376 1.377 . S
C373 H393 0.930 . S
C374 N372 1.375 . S
C374 C373 1.338 . S
C374 H378 0.931 . S
C375 N372 1.313 . S
C375 N376 1.344 . S
C375 H379 0.930 . S
N376 C373 1.377 . S
N376 C375 1.344 . S
O377 Co369 2.055 . S
O377 C381 1.253 . S
H378 C374 0.931 . S
H379 C375 0.930 . S
O380 Co369 2.039 . S
O380 C370 1.265 . S
C381 O377 1.253 . S
C381 O382 1.227 . S
O382 C381 1.227 . S
N383 Co369 2.140 . S
N383 C386 1.346 . S
N383 C387 1.345 . S
C384 C385 1.387 . S
C384 C388 1.391 . S
C385 C384 1.387 . S
C385 C386 1.369 . S
C385 H394 0.929 . S
C386 N383 1.346 . S
C386 C385 1.369 . S
C386 H389 0.928 . S
C387 N383 1.345 . S
C387 C388 1.371 . S
C387 H390 0.931 . S
C388 C384 1.391 . S
C388 C387 1.371 . S
C388 H395 0.930 . S
H389 C386 0.928 . S
H390 C387 0.931 . S
H391 C367 0.930 . S
H392 C364 0.930 . S
H393 C373 0.930 . S
H394 C385 0.929 . S
H395 C388 0.930 . S
C396 C397 1.351 . S
C396 N399 1.368 . S
C396 H401 0.931 . S
C397 C396 1.351 . S
C397 N398 1.373 . S
C397 H425 0.930 . S
N398 C397 1.373 . S
N398 C400 1.340 . S
N399 C396 1.368 . S
N399 C400 1.321 . S
N399 Co402 2.135 . S
C400 N398 1.340 . S
C400 N399 1.321 . S
C400 H424 0.930 . S
H401 C396 0.931 . S
Co402 N399 2.135 . S
Co402 N405 2.121 . S
Co402 O410 2.055 . S
Co402 O413 2.039 . S
Co402 N416 2.140 . S
C403 O404 1.227 . S
C403 O413 1.265 . S
O404 C403 1.227 . S
N405 Co402 2.121 . S
N405 C407 1.375 . S
N405 C408 1.313 . S
C406 C407 1.338 . S
C406 N409 1.377 . S
C406 H426 0.930 . S
C407 N405 1.375 . S
C407 C406 1.338 . S
C407 H411 0.931 . S
C408 N405 1.313 . S
C408 N409 1.344 . S
C408 H412 0.930 . S
N409 C406 1.377 . S
N409 C408 1.344 . S
O410 Co402 2.055 . S
O410 C414 1.253 . S
H411 C407 0.931 . S
H412 C408 0.930 . S
O413 Co402 2.039 . S
O413 C403 1.265 . S
C414 O410 1.253 . S
C414 O415 1.227 . S
O415 C414 1.227 . S
N416 Co402 2.140 . S
N416 C419 1.346 . S
N416 C420 1.345 . S
C417 C418 1.387 . S
C417 C421 1.391 . S
C418 C417 1.387 . S
C418 C419 1.369 . S
C418 H427 0.929 . S
C419 N416 1.346 . S
C419 C418 1.369 . S
C419 H422 0.928 . S
C420 N416 1.345 . S
C420 C421 1.371 . S
C420 H423 0.931 . S
C421 C417 1.391 . S
C421 C420 1.371 . S
C421 H428 0.930 . S
H422 C419 0.928 . S
H423 C420 0.931 . S
H424 C400 0.930 . S
H425 C397 0.930 . S
H426 C406 0.930 . S
H427 C418 0.929 . S
H428 C421 0.930 . S
C429 C430 1.351 . S
C429 N432 1.368 . S
C429 H434 0.931 . S
C430 C429 1.351 . S
C430 N431 1.373 . S
C430 H458 0.930 . S
N431 C430 1.373 . S
N431 C433 1.340 . S
N432 C429 1.368 . S
N432 C433 1.321 . S
N432 Co435 2.135 . S
C433 N431 1.340 . S
C433 N432 1.321 . S
C433 H457 0.930 . S
H434 C429 0.931 . S
Co435 N432 2.135 . S
Co435 N438 2.121 . S
Co435 O443 2.055 . S
Co435 O446 2.039 . S
Co435 N449 2.140 . S
C436 O437 1.227 . S
C436 O446 1.265 . S
O437 C436 1.227 . S
N438 Co435 2.121 . S
N438 C440 1.375 . S
N438 C441 1.313 . S
C439 C440 1.338 . S
C439 N442 1.377 . S
C439 H459 0.930 . S
C440 N438 1.375 . S
C440 C439 1.338 . S
C440 H444 0.931 . S
C441 N438 1.313 . S
C441 N442 1.344 . S
C441 H445 0.930 . S
N442 C439 1.377 . S
N442 C441 1.344 . S
O443 Co435 2.055 . S
O443 C447 1.253 . S
H444 C440 0.931 . S
H445 C441 0.930 . S
O446 Co435 2.039 . S
O446 C436 1.265 . S
C447 O443 1.253 . S
C447 O448 1.227 . S
O448 C447 1.227 . S
N449 Co435 2.140 . S
N449 C452 1.346 . S
N449 C453 1.345 . S
C450 C451 1.387 . S
C450 C454 1.391 . S
C451 C450 1.387 . S
C451 C452 1.369 . S
C451 H460 0.929 . S
C452 N449 1.346 . S
C452 C451 1.369 . S
C452 H455 0.928 . S
C453 N449 1.345 . S
C453 C454 1.371 . S
C453 H456 0.931 . S
C454 C450 1.391 . S
C454 C453 1.371 . S
C454 H461 0.930 . S
H455 C452 0.928 . S
H456 C453 0.931 . S
H457 C433 0.930 . S
H458 C430 0.930 . S
H459 C439 0.930 . S
H460 C451 0.929 . S
H461 C454 0.930 . S
C462 C463 1.351 . S
C462 N465 1.368 . S
C462 H467 0.931 . S
C463 C462 1.351 . S
C463 N464 1.373 . S
C463 H491 0.930 . S
N464 C463 1.373 . S
N464 C466 1.340 . S
N465 C462 1.368 . S
N465 C466 1.321 . S
N465 Co468 2.135 . S
C466 N464 1.340 . S
C466 N465 1.321 . S
C466 H490 0.930 . S
H467 C462 0.931 . S
Co468 N465 2.135 . S
Co468 N471 2.121 . S
Co468 O476 2.055 . S
Co468 O479 2.039 . S
Co468 N482 2.140 . S
C469 O470 1.227 . S
C469 O479 1.265 . S
O470 C469 1.227 . S
N471 Co468 2.121 . S
N471 C473 1.375 . S
N471 C474 1.313 . S
C472 C473 1.338 . S
C472 N475 1.377 . S
C472 H492 0.930 . S
C473 N471 1.375 . S
C473 C472 1.338 . S
C473 H477 0.931 . S
C474 N471 1.313 . S
C474 N475 1.344 . S
C474 H478 0.930 . S
N475 C472 1.377 . S
N475 C474 1.344 . S
O476 Co468 2.055 . S
O476 C480 1.253 . S
H477 C473 0.931 . S
H478 C474 0.930 . S
O479 Co468 2.039 . S
O479 C469 1.265 . S
C480 O476 1.253 . S
C480 O481 1.227 . S
O481 C480 1.227 . S
N482 Co468 2.140 . S
N482 C485 1.346 . S
N482 C486 1.345 . S
C483 C484 1.387 . S
C483 C487 1.391 . S
C484 C483 1.387 . S
C484 C485 1.369 . S
C484 H493 0.929 . S
C485 N482 1.346 . S
C485 C484 1.369 . S
C485 H488 0.928 . S
C486 N482 1.345 . S
C486 C487 1.371 . S
C486 H489 0.931 . S
C487 C483 1.391 . S
C487 C486 1.371 . S
C487 H494 0.930 . S
H488 C485 0.928 . S
H489 C486 0.931 . S
H490 C466 0.930 . S
H491 C463 0.930 . S
H492 C472 0.930 . S
H493 C484 0.929 . S
H494 C487 0.930 . S
C495 C496 1.351 . S
C495 N498 1.368 . S
C495 H500 0.931 . S
C496 C495 1.351 . S
C496 N497 1.373 . S
C496 H524 0.930 . S
N497 C496 1.373 . S
N497 C499 1.340 . S
N498 C495 1.368 . S
N498 C499 1.321 . S
N498 Co501 2.135 . S
C499 N497 1.340 . S
C499 N498 1.321 . S
C499 H523 0.930 . S
H500 C495 0.931 . S
Co501 N498 2.135 . S
Co501 N504 2.121 . S
Co501 O509 2.055 . S
Co501 O512 2.039 . S
Co501 N515 2.140 . S
C502 O503 1.227 . S
C502 O512 1.265 . S
O503 C502 1.227 . S
N504 Co501 2.121 . S
N504 C506 1.375 . S
N504 C507 1.313 . S
C505 C506 1.338 . S
C505 N508 1.377 . S
C505 H525 0.930 . S
C506 N504 1.375 . S
C506 C505 1.338 . S
C506 H510 0.931 . S
C507 N504 1.313 . S
C507 N508 1.344 . S
C507 H511 0.930 . S
N508 C505 1.377 . S
N508 C507 1.344 . S
O509 Co501 2.055 . S
O509 C513 1.253 . S
H510 C506 0.931 . S
H511 C507 0.930 . S
O512 Co501 2.039 . S
O512 C502 1.265 . S
C513 O509 1.253 . S
C513 O514 1.227 . S
O514 C513 1.227 . S
N515 Co501 2.140 . S
N515 C518 1.346 . S
N515 C519 1.345 . S
C516 C517 1.387 . S
C516 C520 1.391 . S
C517 C516 1.387 . S
C517 C518 1.369 . S
C517 H526 0.929 . S
C518 N515 1.346 . S
C518 C517 1.369 . S
C518 H521 0.928 . S
C519 N515 1.345 . S
C519 C520 1.371 . S
C519 H522 0.931 . S
C520 C516 1.391 . S
C520 C519 1.371 . S
C520 H527 0.930 . S
H521 C518 0.928 . S
H522 C519 0.931 . S
H523 C499 0.930 . S
H524 C496 0.930 . S
H525 C505 0.930 . S
H526 C517 0.929 . S
H527 C520 0.930 . S
C528 C529 1.351 . S
C528 N531 1.368 . S
C528 H533 0.931 . S
C529 C528 1.351 . S
C529 N530 1.373 . S
C529 H557 0.930 . S
N530 C529 1.373 . S
N530 C532 1.340 . S
N531 C528 1.368 . S
N531 C532 1.321 . S
N531 Co534 2.135 . S
C532 N530 1.340 . S
C532 N531 1.321 . S
C532 H556 0.930 . S
H533 C528 0.931 . S
Co534 N531 2.135 . S
Co534 N537 2.121 . S
Co534 O542 2.055 . S
Co534 O545 2.039 . S
Co534 N548 2.140 . S
C535 O536 1.227 . S
C535 O545 1.265 . S
O536 C535 1.227 . S
N537 Co534 2.121 . S
N537 C539 1.375 . S
N537 C540 1.313 . S
C538 C539 1.338 . S
C538 N541 1.377 . S
C538 H558 0.930 . S
C539 N537 1.375 . S
C539 C538 1.338 . S
C539 H543 0.931 . S
C540 N537 1.313 . S
C540 N541 1.344 . S
C540 H544 0.930 . S
N541 C538 1.377 . S
N541 C540 1.344 . S
O542 Co534 2.055 . S
O542 C546 1.253 . S
H543 C539 0.931 . S
H544 C540 0.930 . S
O545 Co534 2.039 . S
O545 C535 1.265 . S
C546 O542 1.253 . S
C546 O547 1.227 . S
O547 C546 1.227 . S
N548 Co534 2.140 . S
N548 C551 1.346 . S
N548 C552 1.345 . S
C549 C550 1.387 . S
C549 C553 1.391 . S
C550 C549 1.387 . S
C550 C551 1.369 . S
C550 H559 0.929 . S
C551 N548 1.346 . S
C551 C550 1.369 . S
C551 H554 0.928 . S
C552 N548 1.345 . S
C552 C553 1.371 . S
C552 H555 0.931 . S
C553 C549 1.391 . S
C553 C552 1.371 . S
C553 H560 0.930 . S
H554 C551 0.928 . S
H555 C552 0.931 . S
H556 C532 0.930 . S
H557 C529 0.930 . S
H558 C538 0.930 . S
H559 C550 0.929 . S
H560 C553 0.930 . S
C561 C562 1.351 . S
C561 N564 1.368 . S
C561 H566 0.931 . S
C562 C561 1.351 . S
C562 N563 1.373 . S
C562 H590 0.930 . S
N563 C562 1.373 . S
N563 C565 1.340 . S
N564 C561 1.368 . S
N564 C565 1.321 . S
N564 Co567 2.135 . S
C565 N563 1.340 . S
C565 N564 1.321 . S
C565 H589 0.930 . S
H566 C561 0.931 . S
Co567 N564 2.135 . S
Co567 N570 2.121 . S
Co567 O575 2.055 . S
Co567 O578 2.039 . S
Co567 N581 2.140 . S
C568 O569 1.227 . S
C568 O578 1.265 . S
O569 C568 1.227 . S
N570 Co567 2.121 . S
N570 C572 1.375 . S
N570 C573 1.313 . S
C571 C572 1.338 . S
C571 N574 1.377 . S
C571 H591 0.930 . S
C572 N570 1.375 . S
C572 C571 1.338 . S
C572 H576 0.931 . S
C573 N570 1.313 . S
C573 N574 1.344 . S
C573 H577 0.930 . S
N574 C571 1.377 . S
N574 C573 1.344 . S
O575 Co567 2.055 . S
O575 C579 1.253 . S
H576 C572 0.931 . S
H577 C573 0.930 . S
O578 Co567 2.039 . S
O578 C568 1.265 . S
C579 O575 1.253 . S
C579 O580 1.227 . S
O580 C579 1.227 . S
N581 Co567 2.140 . S
N581 C584 1.346 . S
N581 C585 1.345 . S
C582 C583 1.387 . S
C582 C586 1.391 . S
C583 C582 1.387 . S
C583 C584 1.369 . S
C583 H592 0.929 . S
C584 N581 1.346 . S
C584 C583 1.369 . S
C584 H587 0.928 . S
C585 N581 1.345 . S
C585 C586 1.371 . S
C585 H588 0.931 . S
C586 C582 1.391 . S
C586 C585 1.371 . S
C586 H593 0.930 . S
H587 C584 0.928 . S
H588 C585 0.931 . S
H589 C565 0.930 . S
H590 C562 0.930 . S
H591 C571 0.930 . S
H592 C583 0.929 . S
H593 C586 0.930 . S
C594 C595 1.351 . S
C594 N597 1.368 . S
C594 H599 0.931 . S
C595 C594 1.351 . S
C595 N596 1.373 . S
C595 H623 0.930 . S
N596 C595 1.373 . S
N596 C598 1.340 . S
N597 C594 1.368 . S
N597 C598 1.321 . S
N597 Co600 2.135 . S
C598 N596 1.340 . S
C598 N597 1.321 . S
C598 H622 0.930 . S
H599 C594 0.931 . S
Co600 N597 2.135 . S
Co600 N603 2.121 . S
Co600 O608 2.055 . S
Co600 O611 2.039 . S
Co600 N614 2.140 . S
C601 O602 1.227 . S
C601 O611 1.265 . S
O602 C601 1.227 . S
N603 Co600 2.121 . S
N603 C605 1.375 . S
N603 C606 1.313 . S
C604 C605 1.338 . S
C604 N607 1.377 . S
C604 H624 0.930 . S
C605 N603 1.375 . S
C605 C604 1.338 . S
C605 H609 0.931 . S
C606 N603 1.313 . S
C606 N607 1.344 . S
C606 H610 0.930 . S
N607 C604 1.377 . S
N607 C606 1.344 . S
O608 Co600 2.055 . S
O608 C612 1.253 . S
H609 C605 0.931 . S
H610 C606 0.930 . S
O611 Co600 2.039 . S
O611 C601 1.265 . S
C612 O608 1.253 . S
C612 O613 1.227 . S
O613 C612 1.227 . S
N614 Co600 2.140 . S
N614 C617 1.346 . S
N614 C618 1.345 . S
C615 C616 1.387 . S
C615 C619 1.391 . S
C616 C615 1.387 . S
C616 C617 1.369 . S
C616 H625 0.929 . S
C617 N614 1.346 . S
C617 C616 1.369 . S
C617 H620 0.928 . S
C618 N614 1.345 . S
C618 C619 1.371 . S
C618 H621 0.931 . S
C619 C615 1.391 . S
C619 C618 1.371 . S
C619 H626 0.930 . S
H620 C617 0.928 . S
H621 C618 0.931 . S
H622 C598 0.930 . S
H623 C595 0.930 . S
H624 C604 0.930 . S
H625 C616 0.929 . S
H626 C619 0.930 . S
C627 C628 1.351 . S
C627 N630 1.368 . S
C627 H632 0.931 . S
C628 C627 1.351 . S
C628 N629 1.373 . S
C628 H656 0.930 . S
N629 C628 1.373 . S
N629 C631 1.340 . S
N630 C627 1.368 . S
N630 C631 1.321 . S
N630 Co633 2.135 . S
C631 N629 1.340 . S
C631 N630 1.321 . S
C631 H655 0.930 . S
H632 C627 0.931 . S
Co633 N630 2.135 . S
Co633 N636 2.121 . S
Co633 O641 2.055 . S
Co633 O644 2.039 . S
Co633 N647 2.140 . S
C634 O635 1.227 . S
C634 O644 1.265 . S
O635 C634 1.227 . S
N636 Co633 2.121 . S
N636 C638 1.375 . S
N636 C639 1.313 . S
C637 C638 1.338 . S
C637 N640 1.377 . S
C637 H657 0.930 . S
C638 N636 1.375 . S
C638 C637 1.338 . S
C638 H642 0.931 . S
C639 N636 1.313 . S
C639 N640 1.344 . S
C639 H643 0.930 . S
N640 C637 1.377 . S
N640 C639 1.344 . S
O641 Co633 2.055 . S
O641 C645 1.253 . S
H642 C638 0.931 . S
H643 C639 0.930 . S
O644 Co633 2.039 . S
O644 C634 1.265 . S
C645 O641 1.253 . S
C645 O646 1.227 . S
O646 C645 1.227 . S
N647 Co633 2.140 . S
N647 C650 1.346 . S
N647 C651 1.345 . S
C648 C649 1.387 . S
C648 C652 1.391 . S
C649 C648 1.387 . S
C649 C650 1.369 . S
C649 H658 0.929 . S
C650 N647 1.346 . S
C650 C649 1.369 . S
C650 H653 0.928 . S
C651 N647 1.345 . S
C651 C652 1.371 . S
C651 H654 0.931 . S
C652 C648 1.391 . S
C652 C651 1.371 . S
C652 H659 0.930 . S
H653 C650 0.928 . S
H654 C651 0.931 . S
H655 C631 0.930 . S
H656 C628 0.930 . S
H657 C637 0.930 . S
H658 C649 0.929 . S
H659 C652 0.930 . S
C660 C661 1.351 . S
C660 N663 1.368 . S
C660 H665 0.931 . S
C661 C660 1.351 . S
C661 N662 1.373 . S
C661 H689 0.930 . S
N662 C661 1.373 . S
N662 C664 1.340 . S
N663 C660 1.368 . S
N663 C664 1.321 . S
N663 Co666 2.135 . S
C664 N662 1.340 . S
C664 N663 1.321 . S
C664 H688 0.930 . S
H665 C660 0.931 . S
Co666 N663 2.135 . S
Co666 N669 2.121 . S
Co666 O674 2.055 . S
Co666 O677 2.039 . S
Co666 N680 2.140 . S
C667 O668 1.227 . S
C667 O677 1.265 . S
O668 C667 1.227 . S
N669 Co666 2.121 . S
N669 C671 1.375 . S
N669 C672 1.313 . S
C670 C671 1.338 . S
C670 N673 1.377 . S
C670 H690 0.930 . S
C671 N669 1.375 . S
C671 C670 1.338 . S
C671 H675 0.931 . S
C672 N669 1.313 . S
C672 N673 1.344 . S
C672 H676 0.930 . S
N673 C670 1.377 . S
N673 C672 1.344 . S
O674 Co666 2.055 . S
O674 C678 1.253 . S
H675 C671 0.931 . S
H676 C672 0.930 . S
O677 Co666 2.039 . S
O677 C667 1.265 . S
C678 O674 1.253 . S
C678 O679 1.227 . S
O679 C678 1.227 . S
N680 Co666 2.140 . S
N680 C683 1.346 . S
N680 C684 1.345 . S
C681 C682 1.387 . S
C681 C685 1.391 . S
C682 C681 1.387 . S
C682 C683 1.369 . S
C682 H691 0.929 . S
C683 N680 1.346 . S
C683 C682 1.369 . S
C683 H686 0.928 . S
C684 N680 1.345 . S
C684 C685 1.371 . S
C684 H687 0.931 . S
C685 C681 1.391 . S
C685 C684 1.371 . S
C685 H692 0.930 . S
H686 C683 0.928 . S
H687 C684 0.931 . S
H688 C664 0.930 . S
H689 C661 0.930 . S
H690 C670 0.930 . S
H691 C682 0.929 . S
H692 C685 0.930 . S
C693 C694 1.351 . S
C693 N696 1.368 . S
C693 H698 0.931 . S
C694 C693 1.351 . S
C694 N695 1.373 . S
C694 H722 0.930 . S
N695 C694 1.373 . S
N695 C697 1.340 . S
N696 C693 1.368 . S
N696 C697 1.321 . S
N696 Co699 2.135 . S
C697 N695 1.340 . S
C697 N696 1.321 . S
C697 H721 0.930 . S
H698 C693 0.931 . S
Co699 N696 2.135 . S
Co699 N702 2.121 . S
Co699 O707 2.055 . S
Co699 O710 2.039 . S
Co699 N713 2.140 . S
C700 O701 1.227 . S
C700 O710 1.265 . S
O701 C700 1.227 . S
N702 Co699 2.121 . S
N702 C704 1.375 . S
N702 C705 1.313 . S
C703 C704 1.338 . S
C703 N706 1.377 . S
C703 H723 0.930 . S
C704 N702 1.375 . S
C704 C703 1.338 . S
C704 H708 0.931 . S
C705 N702 1.313 . S
C705 N706 1.344 . S
C705 H709 0.930 . S
N706 C703 1.377 . S
N706 C705 1.344 . S
O707 Co699 2.055 . S
O707 C711 1.253 . S
H708 C704 0.931 . S
H709 C705 0.930 . S
O710 Co699 2.039 . S
O710 C700 1.265 . S
C711 O707 1.253 . S
C711 O712 1.227 . S
O712 C711 1.227 . S
N713 Co699 2.140 . S
N713 C716 1.346 . S
N713 C717 1.345 . S
C714 C715 1.387 . S
C714 C718 1.391 . S
C715 C714 1.387 . S
C715 C716 1.369 . S
C715 H724 0.929 . S
C716 N713 1.346 . S
C716 C715 1.369 . S
C716 H719 0.928 . S
C717 N713 1.345 . S
C717 C718 1.371 . S
C717 H720 0.931 . S
C718 C714 1.391 . S
C718 C717 1.371 . S
C718 H725 0.930 . S
H719 C716 0.928 . S
H720 C717 0.931 . S
H721 C697 0.930 . S
H722 C694 0.930 . S
H723 C703 0.930 . S
H724 C715 0.929 . S
H725 C718 0.930 . S
C726 C727 1.351 . S
C726 N729 1.368 . S
C726 H731 0.931 . S
C727 C726 1.351 . S
C727 N728 1.373 . S
C727 H755 0.930 . S
N728 C727 1.373 . S
N728 C730 1.340 . S
N729 C726 1.368 . S
N729 C730 1.321 . S
N729 Co732 2.135 . S
C730 N728 1.340 . S
C730 N729 1.321 . S
C730 H754 0.930 . S
H731 C726 0.931 . S
Co732 N729 2.135 . S
Co732 N735 2.121 . S
Co732 O740 2.055 . S
Co732 O743 2.039 . S
Co732 N746 2.140 . S
C733 O734 1.227 . S
C733 O743 1.265 . S
O734 C733 1.227 . S
N735 Co732 2.121 . S
N735 C737 1.375 . S
N735 C738 1.313 . S
C736 C737 1.338 . S
C736 N739 1.377 . S
C736 H756 0.930 . S
C737 N735 1.375 . S
C737 C736 1.338 . S
C737 H741 0.931 . S
C738 N735 1.313 . S
C738 N739 1.344 . S
C738 H742 0.930 . S
N739 C736 1.377 . S
N739 C738 1.344 . S
O740 Co732 2.055 . S
O740 C744 1.253 . S
H741 C737 0.931 . S
H742 C738 0.930 . S
O743 Co732 2.039 . S
O743 C733 1.265 . S
C744 O740 1.253 . S
C744 O745 1.227 . S
O745 C744 1.227 . S
N746 Co732 2.140 . S
N746 C749 1.346 . S
N746 C750 1.345 . S
C747 C748 1.387 . S
C747 C751 1.391 . S
C748 C747 1.387 . S
C748 C749 1.369 . S
C748 H757 0.929 . S
C749 N746 1.346 . S
C749 C748 1.369 . S
C749 H752 0.928 . S
C750 N746 1.345 . S
C750 C751 1.371 . S
C750 H753 0.931 . S
C751 C747 1.391 . S
C751 C750 1.371 . S
C751 H758 0.930 . S
H752 C749 0.928 . S
H753 C750 0.931 . S
H754 C730 0.930 . S
H755 C727 0.930 . S
H756 C736 0.930 . S
H757 C748 0.929 . S
H758 C751 0.930 . S
C759 C760 1.351 . S
C759 N762 1.368 . S
C759 H764 0.931 . S
C760 C759 1.351 . S
C760 N761 1.373 . S
C760 H788 0.930 . S
N761 C760 1.373 . S
N761 C763 1.340 . S
N762 C759 1.368 . S
N762 C763 1.321 . S
N762 Co765 2.135 . S
C763 N761 1.340 . S
C763 N762 1.321 . S
C763 H787 0.930 . S
H764 C759 0.931 . S
Co765 N762 2.135 . S
Co765 N768 2.121 . S
Co765 O773 2.055 . S
Co765 O776 2.039 . S
Co765 N779 2.140 . S
C766 O767 1.227 . S
C766 O776 1.265 . S
O767 C766 1.227 . S
N768 Co765 2.121 . S
N768 C770 1.375 . S
N768 C771 1.313 . S
C769 C770 1.338 . S
C769 N772 1.377 . S
C769 H789 0.930 . S
C770 N768 1.375 . S
C770 C769 1.338 . S
C770 H774 0.931 . S
C771 N768 1.313 . S
C771 N772 1.344 . S
C771 H775 0.930 . S
N772 C769 1.377 . S
N772 C771 1.344 . S
O773 Co765 2.055 . S
O773 C777 1.253 . S
H774 C770 0.931 . S
H775 C771 0.930 . S
O776 Co765 2.039 . S
O776 C766 1.265 . S
C777 O773 1.253 . S
C777 O778 1.227 . S
O778 C777 1.227 . S
N779 Co765 2.140 . S
N779 C782 1.346 . S
N779 C783 1.345 . S
C780 C781 1.387 . S
C780 C784 1.391 . S
C781 C780 1.387 . S
C781 C782 1.369 . S
C781 H790 0.929 . S
C782 N779 1.346 . S
C782 C781 1.369 . S
C782 H785 0.928 . S
C783 N779 1.345 . S
C783 C784 1.371 . S
C783 H786 0.931 . S
C784 C780 1.391 . S
C784 C783 1.371 . S
C784 H791 0.930 . S
H785 C782 0.928 . S
H786 C783 0.931 . S
H787 C763 0.930 . S
H788 C760 0.930 . S
H789 C769 0.930 . S
H790 C781 0.929 . S
H791 C784 0.930 . S
C792 C793 1.351 . S
C792 N795 1.368 . S
C792 H797 0.931 . S
C793 C792 1.351 . S
C793 N794 1.373 . S
C793 H821 0.930 . S
N794 C793 1.373 . S
N794 C796 1.340 . S
N795 C792 1.368 . S
N795 C796 1.321 . S
N795 Co798 2.135 . S
C796 N794 1.340 . S
C796 N795 1.321 . S
C796 H820 0.930 . S
H797 C792 0.931 . S
Co798 N795 2.135 . S
Co798 N801 2.121 . S
Co798 O806 2.055 . S
Co798 O809 2.039 . S
Co798 N812 2.140 . S
C799 O800 1.227 . S
C799 O809 1.265 . S
O800 C799 1.227 . S
N801 Co798 2.121 . S
N801 C803 1.375 . S
N801 C804 1.313 . S
C802 C803 1.338 . S
C802 N805 1.377 . S
C802 H822 0.930 . S
C803 N801 1.375 . S
C803 C802 1.338 . S
C803 H807 0.931 . S
C804 N801 1.313 . S
C804 N805 1.344 . S
C804 H808 0.930 . S
N805 C802 1.377 . S
N805 C804 1.344 . S
O806 Co798 2.055 . S
O806 C810 1.253 . S
H807 C803 0.931 . S
H808 C804 0.930 . S
O809 Co798 2.039 . S
O809 C799 1.265 . S
C810 O806 1.253 . S
C810 O811 1.227 . S
O811 C810 1.227 . S
N812 Co798 2.140 . S
N812 C815 1.346 . S
N812 C816 1.345 . S
C813 C814 1.387 . S
C813 C817 1.391 . S
C814 C813 1.387 . S
C814 C815 1.369 . S
C814 H823 0.929 . S
C815 N812 1.346 . S
C815 C814 1.369 . S
C815 H818 0.928 . S
C816 N812 1.345 . S
C816 C817 1.371 . S
C816 H819 0.931 . S
C817 C813 1.391 . S
C817 C816 1.371 . S
C817 H824 0.930 . S
H818 C815 0.928 . S
H819 C816 0.931 . S
H820 C796 0.930 . S
H821 C793 0.930 . S
H822 C802 0.930 . S
H823 C814 0.929 . S
H824 C817 0.930 . S
C825 C826 1.351 . S
C825 N828 1.368 . S
C825 H830 0.931 . S
C826 C825 1.351 . S
C826 N827 1.373 . S
C826 H854 0.930 . S
N827 C826 1.373 . S
N827 C829 1.340 . S
N828 C825 1.368 . S
N828 C829 1.321 . S
N828 Co831 2.135 . S
C829 N827 1.340 . S
C829 N828 1.321 . S
C829 H853 0.930 . S
H830 C825 0.931 . S
Co831 N828 2.135 . S
Co831 N834 2.121 . S
Co831 O839 2.055 . S
Co831 O842 2.039 . S
Co831 N845 2.140 . S
C832 O833 1.227 . S
C832 O842 1.265 . S
O833 C832 1.227 . S
N834 Co831 2.121 . S
N834 C836 1.375 . S
N834 C837 1.313 . S
C835 C836 1.338 . S
C835 N838 1.377 . S
C835 H855 0.930 . S
C836 N834 1.375 . S
C836 C835 1.338 . S
C836 H840 0.931 . S
C837 N834 1.313 . S
C837 N838 1.344 . S
C837 H841 0.930 . S
N838 C835 1.377 . S
N838 C837 1.344 . S
O839 Co831 2.055 . S
O839 C843 1.253 . S
H840 C836 0.931 . S
H841 C837 0.930 . S
O842 Co831 2.039 . S
O842 C832 1.265 . S
C843 O839 1.253 . S
C843 O844 1.227 . S
O844 C843 1.227 . S
N845 Co831 2.140 . S
N845 C848 1.346 . S
N845 C849 1.345 . S
C846 C847 1.387 . S
C846 C850 1.391 . S
C847 C846 1.387 . S
C847 C848 1.369 . S
C847 H856 0.929 . S
C848 N845 1.346 . S
C848 C847 1.369 . S
C848 H851 0.928 . S
C849 N845 1.345 . S
C849 C850 1.371 . S
C849 H852 0.931 . S
C850 C846 1.391 . S
C850 C849 1.371 . S
C850 H857 0.930 . S
H851 C848 0.928 . S
H852 C849 0.931 . S
H853 C829 0.930 . S
H854 C826 0.930 . S
H855 C835 0.930 . S
H856 C847 0.929 . S
H857 C850 0.930 . S
C858 C859 1.351 . S
C858 N861 1.368 . S
C858 H863 0.931 . S
C859 C858 1.351 . S
C859 N860 1.373 . S
C859 H887 0.930 . S
N860 C859 1.373 . S
N860 C862 1.340 . S
N861 C858 1.368 . S
N861 C862 1.321 . S
N861 Co864 2.135 . S
C862 N860 1.340 . S
C862 N861 1.321 . S
C862 H886 0.930 . S
H863 C858 0.931 . S
Co864 N861 2.135 . S
Co864 N867 2.121 . S
Co864 O872 2.055 . S
Co864 O875 2.039 . S
Co864 N878 2.140 . S
C865 O866 1.227 . S
C865 O875 1.265 . S
O866 C865 1.227 . S
N867 Co864 2.121 . S
N867 C869 1.375 . S
N867 C870 1.313 . S
C868 C869 1.338 . S
C868 N871 1.377 . S
C868 H888 0.930 . S
C869 N867 1.375 . S
C869 C868 1.338 . S
C869 H873 0.931 . S
C870 N867 1.313 . S
C870 N871 1.344 . S
C870 H874 0.930 . S
N871 C868 1.377 . S
N871 C870 1.344 . S
O872 Co864 2.055 . S
O872 C876 1.253 . S
H873 C869 0.931 . S
H874 C870 0.930 . S
O875 Co864 2.039 . S
O875 C865 1.265 . S
C876 O872 1.253 . S
C876 O877 1.227 . S
O877 C876 1.227 . S
N878 Co864 2.140 . S
N878 C881 1.346 . S
N878 C882 1.345 . S
C879 C880 1.387 . S
C879 C883 1.391 . S
C880 C879 1.387 . S
C880 C881 1.369 . S
C880 H889 0.929 . S
C881 N878 1.346 . S
C881 C880 1.369 . S
C881 H884 0.928 . S
C882 N878 1.345 . S
C882 C883 1.371 . S
C882 H885 0.931 . S
C883 C879 1.391 . S
C883 C882 1.371 . S
C883 H890 0.930 . S
H884 C881 0.928 . S
H885 C882 0.931 . S
H886 C862 0.930 . S
H887 C859 0.930 . S
H888 C868 0.930 . S
H889 C880 0.929 . S
H890 C883 0.930 . S
C891 C892 1.351 . S
C891 N894 1.368 . S
C891 H896 0.931 . S
C892 C891 1.351 . S
C892 N893 1.373 . S
C892 H920 0.930 . S
N893 C892 1.373 . S
N893 C895 1.340 . S
N894 C891 1.368 . S
N894 C895 1.321 . S
N894 Co897 2.135 . S
C895 N893 1.340 . S
C895 N894 1.321 . S
C895 H919 0.930 . S
H896 C891 0.931 . S
Co897 N894 2.135 . S
Co897 N900 2.121 . S
Co897 O905 2.055 . S
Co897 O908 2.039 . S
Co897 N911 2.140 . S
C898 O899 1.227 . S
C898 O908 1.265 . S
O899 C898 1.227 . S
N900 Co897 2.121 . S
N900 C902 1.375 . S
N900 C903 1.313 . S
C901 C902 1.338 . S
C901 N904 1.377 . S
C901 H921 0.930 . S
C902 N900 1.375 . S
C902 C901 1.338 . S
C902 H906 0.931 . S
C903 N900 1.313 . S
C903 N904 1.344 . S
C903 H907 0.930 . S
N904 C901 1.377 . S
N904 C903 1.344 . S
O905 Co897 2.055 . S
O905 C909 1.253 . S
H906 C902 0.931 . S
H907 C903 0.930 . S
O908 Co897 2.039 . S
O908 C898 1.265 . S
C909 O905 1.253 . S
C909 O910 1.227 . S
O910 C909 1.227 . S
N911 Co897 2.140 . S
N911 C914 1.346 . S
N911 C915 1.345 . S
C912 C913 1.387 . S
C912 C916 1.391 . S
C913 C912 1.387 . S
C913 C914 1.369 . S
C913 H922 0.929 . S
C914 N911 1.346 . S
C914 C913 1.369 . S
C914 H917 0.928 . S
C915 N911 1.345 . S
C915 C916 1.371 . S
C915 H918 0.931 . S
C916 C912 1.391 . S
C916 C915 1.371 . S
C916 H923 0.930 . S
H917 C914 0.928 . S
H918 C915 0.931 . S
H919 C895 0.930 . S
H920 C892 0.930 . S
H921 C901 0.930 . S
H922 C913 0.929 . S
H923 C916 0.930 . S
C924 C925 1.351 . S
C924 N927 1.368 . S
C924 H929 0.931 . S
C925 C924 1.351 . S
C925 N926 1.373 . S
C925 H953 0.930 . S
N926 C925 1.373 . S
N926 C928 1.340 . S
N927 C924 1.368 . S
N927 C928 1.321 . S
N927 Co930 2.135 . S
C928 N926 1.340 . S
C928 N927 1.321 . S
C928 H952 0.930 . S
H929 C924 0.931 . S
Co930 N927 2.135 . S
Co930 N933 2.121 . S
Co930 O938 2.055 . S
Co930 O941 2.039 . S
Co930 N944 2.140 . S
C931 O932 1.227 . S
C931 O941 1.265 . S
O932 C931 1.227 . S
N933 Co930 2.121 . S
N933 C935 1.375 . S
N933 C936 1.313 . S
C934 C935 1.338 . S
C934 N937 1.377 . S
C934 H954 0.930 . S
C935 N933 1.375 . S
C935 C934 1.338 . S
C935 H939 0.931 . S
C936 N933 1.313 . S
C936 N937 1.344 . S
C936 H940 0.930 . S
N937 C934 1.377 . S
N937 C936 1.344 . S
O938 Co930 2.055 . S
O938 C942 1.253 . S
H939 C935 0.931 . S
H940 C936 0.930 . S
O941 Co930 2.039 . S
O941 C931 1.265 . S
C942 O938 1.253 . S
C942 O943 1.227 . S
O943 C942 1.227 . S
N944 Co930 2.140 . S
N944 C947 1.346 . S
N944 C948 1.345 . S
C945 C946 1.387 . S
C945 C949 1.391 . S
C946 C945 1.387 . S
C946 C947 1.369 . S
C946 H955 0.929 . S
C947 N944 1.346 . S
C947 C946 1.369 . S
C947 H950 0.928 . S
C948 N944 1.345 . S
C948 C949 1.371 . S
C948 H951 0.931 . S
C949 C945 1.391 . S
C949 C948 1.371 . S
C949 H956 0.930 . S
H950 C947 0.928 . S
H951 C948 0.931 . S
H952 C928 0.930 . S
H953 C925 0.930 . S
H954 C934 0.930 . S
H955 C946 0.929 . S
H956 C949 0.930 . S
C957 C958 1.351 . S
C957 N960 1.368 . S
C957 H962 0.931 . S
C958 C957 1.351 . S
C958 N959 1.373 . S
C958 H986 0.930 . S
N959 C958 1.373 . S
N959 C961 1.340 . S
N960 C957 1.368 . S
N960 C961 1.321 . S
N960 Co963 2.135 . S
C961 N959 1.340 . S
C961 N960 1.321 . S
C961 H985 0.930 . S
H962 C957 0.931 . S
Co963 N960 2.135 . S
Co963 N966 2.121 . S
Co963 O971 2.055 . S
Co963 O974 2.039 . S
Co963 N977 2.140 . S
C964 O965 1.227 . S
C964 O974 1.265 . S
O965 C964 1.227 . S
N966 Co963 2.121 . S
N966 C968 1.375 . S
N966 C969 1.313 . S
C967 C968 1.338 . S
C967 N970 1.377 . S
C967 H987 0.930 . S
C968 N966 1.375 . S
C968 C967 1.338 . S
C968 H972 0.931 . S
C969 N966 1.313 . S
C969 N970 1.344 . S
C969 H973 0.930 . S
N970 C967 1.377 . S
N970 C969 1.344 . S
O971 Co963 2.055 . S
O971 C975 1.253 . S
H972 C968 0.931 . S
H973 C969 0.930 . S
O974 Co963 2.039 . S
O974 C964 1.265 . S
C975 O971 1.253 . S
C975 O976 1.227 . S
O976 C975 1.227 . S
N977 Co963 2.140 . S
N977 C980 1.346 . S
N977 C981 1.345 . S
C978 C979 1.387 . S
C978 C982 1.391 . S
C979 C978 1.387 . S
C979 C980 1.369 . S
C979 H988 0.929 . S
C980 N977 1.346 . S
C980 C979 1.369 . S
C980 H983 0.928 . S
C981 N977 1.345 . S
C981 C982 1.371 . S
C981 H984 0.931 . S
C982 C978 1.391 . S
C982 C981 1.371 . S
C982 H989 0.930 . S
H983 C980 0.928 . S
H984 C981 0.931 . S
H985 C961 0.930 . S
H986 C958 0.930 . S
H987 C967 0.930 . S
H988 C979 0.929 . S
H989 C982 0.930 . S
C990 C991 1.351 . S
C990 N993 1.368 . S
C990 H995 0.931 . S
C991 C990 1.351 . S
C991 N992 1.373 . S
C991 H1019 0.930 . S
N992 C991 1.373 . S
N992 C994 1.340 . S
N993 C990 1.368 . S
N993 C994 1.321 . S
N993 Co996 2.135 . S
C994 N992 1.340 . S
C994 N993 1.321 . S
C994 H1018 0.930 . S
H995 C990 0.931 . S
Co996 N993 2.135 . S
Co996 N999 2.121 . S
Co996 O1004 2.055 . S
Co996 O1007 2.039 . S
Co996 N1010 2.140 . S
C997 O998 1.227 . S
C997 O1007 1.265 . S
O998 C997 1.227 . S
N999 Co996 2.121 . S
N999 C1001 1.375 . S
N999 C1002 1.313 . S
C1000 C1001 1.338 . S
C1000 N1003 1.377 . S
C1000 H1020 0.930 . S
C1001 N999 1.375 . S
C1001 C1000 1.338 . S
C1001 H1005 0.931 . S
C1002 N999 1.313 . S
C1002 N1003 1.344 . S
C1002 H1006 0.930 . S
N1003 C1000 1.377 . S
N1003 C1002 1.344 . S
O1004 Co996 2.055 . S
O1004 C1008 1.253 . S
H1005 C1001 0.931 . S
H1006 C1002 0.930 . S
O1007 Co996 2.039 . S
O1007 C997 1.265 . S
C1008 O1004 1.253 . S
C1008 O1009 1.227 . S
O1009 C1008 1.227 . S
N1010 Co996 2.140 . S
N1010 C1013 1.346 . S
N1010 C1014 1.345 . S
C1011 C1012 1.387 . S
C1011 C1015 1.391 . S
C1012 C1011 1.387 . S
C1012 C1013 1.369 . S
C1012 H1021 0.929 . S
C1013 N1010 1.346 . S
C1013 C1012 1.369 . S
C1013 H1016 0.928 . S
C1014 N1010 1.345 . S
C1014 C1015 1.371 . S
C1014 H1017 0.931 . S
C1015 C1011 1.391 . S
C1015 C1014 1.371 . S
C1015 H1022 0.930 . S
H1016 C1013 0.928 . S
H1017 C1014 0.931 . S
H1018 C994 0.930 . S
H1019 C991 0.930 . S
H1020 C1000 0.930 . S
H1021 C1012 0.929 . S
H1022 C1015 0.930 . S
C1023 C1024 1.351 . S
C1023 N1026 1.368 . S
C1023 H1028 0.931 . S
C1024 C1023 1.351 . S
C1024 N1025 1.373 . S
C1024 H1052 0.930 . S
N1025 C1024 1.373 . S
N1025 C1027 1.340 . S
N1026 C1023 1.368 . S
N1026 C1027 1.321 . S
N1026 Co1029 2.135 . S
C1027 N1025 1.340 . S
C1027 N1026 1.321 . S
C1027 H1051 0.930 . S
H1028 C1023 0.931 . S
Co1029 N1026 2.135 . S
Co1029 N1032 2.121 . S
Co1029 O1037 2.055 . S
Co1029 O1040 2.039 . S
Co1029 N1043 2.140 . S
C1030 O1031 1.227 . S
C1030 O1040 1.265 . S
O1031 C1030 1.227 . S
N1032 Co1029 2.121 . S
N1032 C1034 1.375 . S
N1032 C1035 1.313 . S
C1033 C1034 1.338 . S
C1033 N1036 1.377 . S
C1033 H1053 0.930 . S
C1034 N1032 1.375 . S
C1034 C1033 1.338 . S
C1034 H1038 0.931 . S
C1035 N1032 1.313 . S
C1035 N1036 1.344 . S
C1035 H1039 0.930 . S
N1036 C1033 1.377 . S
N1036 C1035 1.344 . S
O1037 Co1029 2.055 . S
O1037 C1041 1.253 . S
H1038 C1034 0.931 . S
H1039 C1035 0.930 . S
O1040 Co1029 2.039 . S
O1040 C1030 1.265 . S
C1041 O1037 1.253 . S
C1041 O1042 1.227 . S
O1042 C1041 1.227 . S
N1043 Co1029 2.140 . S
N1043 C1046 1.346 . S
N1043 C1047 1.345 . S
C1044 C1045 1.387 . S
C1044 C1048 1.391 . S
C1045 C1044 1.387 . S
C1045 C1046 1.369 . S
C1045 H1054 0.929 . S
C1046 N1043 1.346 . S
C1046 C1045 1.369 . S
C1046 H1049 0.928 . S
C1047 N1043 1.345 . S
C1047 C1048 1.371 . S
C1047 H1050 0.931 . S
C1048 C1044 1.391 . S
C1048 C1047 1.371 . S
C1048 H1055 0.930 . S
H1049 C1046 0.928 . S
H1050 C1047 0.931 . S
H1051 C1027 0.930 . S
H1052 C1024 0.930 . S
H1053 C1033 0.930 . S
H1054 C1045 0.929 . S
H1055 C1048 0.930 . S
H1056 C1064 0.929 . S
H1057 C1066 0.930 . S
H1058 C1068 0.930 . S
H1059 C1071 0.929 . S
H1060 C1074 0.930 . S
H1061 C1076 0.960 . S
H1062 C1076 0.960 . S
H1063 C1076 0.960 . S
C1064 H1056 0.929 . S
C1064 C1065 1.377 . S
C1064 C1066 1.384 . S
C1065 C1064 1.377 . S
C1065 C1071 1.390 . S
C1066 H1057 0.930 . S
C1066 C1064 1.384 . S
C1066 C1067 1.372 . S
C1067 C1066 1.372 . S
C1067 C1068 1.400 . S
C1067 C1072 1.490 . S
C1068 H1058 0.930 . S
C1068 C1067 1.400 . S
C1068 C1071 1.386 . S
H1069 C1085 0.930 . S
H1070 C1086 0.931 . S
C1071 H1059 0.929 . S
C1071 C1065 1.390 . S
C1071 C1068 1.386 . S
C1072 C1067 1.490 . S
C1072 C1074 1.395 . S
C1072 C1075 1.403 . S
H1073 C1079 0.930 . S
C1074 H1060 0.930 . S
C1074 C1072 1.395 . S
C1074 C1077 1.403 . S
C1075 C1072 1.403 . S
C1075 C1076 1.524 . S
C1075 C1079 1.400 . S
C1076 H1061 0.960 . S
C1076 H1062 0.960 . S
C1076 H1063 0.960 . S
C1076 C1075 1.524 . S
C1077 C1074 1.403 . S
C1077 C1078 1.392 . S
C1077 C1081 1.495 . S
C1078 C1077 1.392 . S
C1078 C1079 1.385 . S
C1078 C1080 1.478 . S
C1079 H1073 0.930 . S
C1079 C1075 1.400 . S
C1079 C1078 1.385 . S
C1080 C1078 1.478 . S
C1080 C1082 1.381 . S
C1080 C1086 1.383 . S
C1081 C1077 1.495 . S
C1081 H1087 0.959 . S
C1081 H1088 0.961 . S
C1081 H1089 0.960 . S
C1082 C1080 1.381 . S
C1082 C1083 1.394 . S
C1082 H1090 0.930 . S
C1083 C1082 1.394 . S
C1083 C1084 1.383 . S
C1083 H1091 0.929 . S
C1084 C1083 1.383 . S
C1084 C1085 1.377 . S
C1085 H1069 0.930 . S
C1085 C1084 1.377 . S
C1085 C1086 1.379 . S
C1086 H1070 0.931 . S
C1086 C1080 1.383 . S
C1086 C1085 1.379 . S
H1087 C1081 0.959 . S
H1088 C1081 0.961 . S
H1089 C1081 0.960 . S
H1090 C1082 0.930 . S
H1091 C1083 0.929 . S
H1092 C1100 0.929 1_545 S
H1093 C1102 0.930 . S
H1094 C1104 0.930 . S
H1095 C1107 0.929 . S
H1096 C1110 0.930 . S
H1097 C1112 0.960 . S
H1098 C1112 0.960 . S
H1099 C1112 0.960 . S
C1100 H1092 0.929 1_565 S
C1100 C1101 1.377 . S
C1100 C1102 1.384 1_565 S
C1101 C1100 1.377 . S
C1101 C1107 1.390 . S
C1102 H1093 0.930 . S
C1102 C1100 1.384 1_545 S
C1102 C1103 1.372 1_545 S
C1103 C1102 1.372 1_565 S
C1103 C1104 1.400 . S
C1103 C1108 1.490 . S
C1104 H1094 0.930 . S
C1104 C1103 1.400 . S
C1104 C1107 1.386 . S
H1105 C1121 0.930 1_565 S
H1106 C1122 0.931 . S
C1107 H1095 0.929 . S
C1107 C1101 1.390 . S
C1107 C1104 1.386 . S
C1108 C1103 1.490 . S
C1108 C1110 1.395 1_565 S
C1108 C1111 1.403 1_455 S
H1109 C1115 0.930 . S
C1110 H1096 0.930 . S
C1110 C1108 1.395 1_545 S
C1110 C1113 1.403 . S
C1111 C1108 1.403 1_655 S
C1111 C1112 1.524 . S
C1111 C1115 1.400 . S
C1112 H1097 0.960 . S
C1112 H1098 0.960 . S
C1112 H1099 0.960 . S
C1112 C1111 1.524 . S
C1113 C1110 1.403 . S
C1113 C1114 1.392 1_455 S
C1113 C1117 1.495 . S
C1114 C1113 1.392 1_655 S
C1114 C1115 1.385 1_545 S
C1114 C1116 1.478 . S
C1115 H1109 0.930 . S
C1115 C1111 1.400 . S
C1115 C1114 1.385 1_565 S
C1116 C1114 1.478 . S
C1116 C1118 1.381 . S
C1116 C1122 1.383 1_545 S
C1117 C1113 1.495 . S
C1117 H1123 0.959 . S
C1117 H1124 0.961 . S
C1117 H1125 0.960 . S
C1118 C1116 1.381 . S
C1118 C1119 1.394 . S
C1118 H1126 0.930 . S
C1119 C1118 1.394 . S
C1119 C1120 1.383 . S
C1119 H1127 0.929 . S
C1120 C1119 1.383 . S
C1120 C1121 1.377 . S
C1121 H1105 0.930 1_545 S
C1121 C1120 1.377 . S
C1121 C1122 1.379 1_545 S
C1122 H1106 0.931 . S
C1122 C1116 1.383 1_565 S
C1122 C1121 1.379 1_565 S
H1123 C1117 0.959 . S
H1124 C1117 0.961 . S
H1125 C1117 0.960 . S
H1126 C1118 0.930 . S
H1127 C1119 0.929 . S
H1128 C1136 0.929 . S
H1129 C1138 0.930 . S
H1130 C1140 0.930 . S
H1131 C1143 0.929 . S
H1132 C1146 0.930 . S
H1133 C1148 0.960 . S
H1134 C1148 0.960 . S
H1135 C1148 0.960 . S
C1136 H1128 0.929 . S
C1136 C1137 1.377 . S
C1136 C1138 1.384 . S
C1137 C1136 1.377 . S
C1137 C1143 1.390 . S
C1138 H1129 0.930 . S
C1138 C1136 1.384 . S
C1138 C1139 1.372 . S
C1139 C1138 1.372 . S
C1139 C1140 1.400 . S
C1139 C1144 1.490 . S
C1140 H1130 0.930 . S
C1140 C1139 1.400 . S
C1140 C1143 1.386 . S
H1141 C1157 0.930 . S
H1142 C1158 0.931 . S
C1143 H1131 0.929 . S
C1143 C1137 1.390 . S
C1143 C1140 1.386 . S
C1144 C1139 1.490 . S
C1144 C1146 1.395 . S
C1144 C1147 1.403 . S
H1145 C1151 0.930 . S
C1146 H1132 0.930 . S
C1146 C1144 1.395 . S
C1146 C1149 1.403 . S
C1147 C1144 1.403 . S
C1147 C1148 1.524 . S
C1147 C1151 1.400 . S
C1148 H1133 0.960 . S
C1148 H1134 0.960 . S
C1148 H1135 0.960 . S
C1148 C1147 1.524 . S
C1149 C1146 1.403 . S
C1149 C1150 1.392 . S
C1149 C1153 1.495 . S
C1150 C1149 1.392 . S
C1150 C1151 1.385 . S
C1150 C1152 1.478 . S
C1151 H1145 0.930 . S
C1151 C1147 1.400 . S
C1151 C1150 1.385 . S
C1152 C1150 1.478 . S
C1152 C1154 1.381 . S
C1152 C1158 1.383 . S
C1153 C1149 1.495 . S
C1153 H1159 0.959 . S
C1153 H1160 0.961 . S
C1153 H1161 0.960 . S
C1154 C1152 1.381 . S
C1154 C1155 1.394 . S
C1154 H1162 0.930 . S
C1155 C1154 1.394 . S
C1155 C1156 1.383 . S
C1155 H1163 0.929 . S
C1156 C1155 1.383 . S
C1156 C1157 1.377 . S
C1157 H1141 0.930 . S
C1157 C1156 1.377 . S
C1157 C1158 1.379 . S
C1158 H1142 0.931 . S
C1158 C1152 1.383 . S
C1158 C1157 1.379 . S
H1159 C1153 0.959 . S
H1160 C1153 0.961 . S
H1161 C1153 0.960 . S
H1162 C1154 0.930 . S
H1163 C1155 0.929 . S
H1164 C1172 0.929 1_565 S
H1165 C1174 0.930 . S
H1166 C1176 0.930 . S
H1167 C1179 0.929 . S
H1168 C1182 0.930 . S
H1169 C1184 0.960 . S
H1170 C1184 0.960 . S
H1171 C1184 0.960 . S
C1172 H1164 0.929 1_545 S
C1172 C1173 1.377 . S
C1172 C1174 1.384 1_545 S
C1173 C1172 1.377 . S
C1173 C1179 1.390 . S
C1174 H1165 0.930 . S
C1174 C1172 1.384 1_565 S
C1174 C1175 1.372 1_565 S
C1175 C1174 1.372 1_545 S
C1175 C1176 1.400 . S
C1175 C1180 1.490 . S
C1176 H1166 0.930 . S
C1176 C1175 1.400 . S
C1176 C1179 1.386 . S
H1177 C1193 0.930 1_545 S
H1178 C1194 0.931 . S
C1179 H1167 0.929 . S
C1179 C1173 1.390 . S
C1179 C1176 1.386 . S
C1180 C1175 1.490 . S
C1180 C1182 1.395 1_545 S
C1180 C1183 1.403 . S
H1181 C1187 0.940 . S
C1182 H1168 0.930 . S
C1182 C1180 1.395 1_565 S
C1182 C1185 1.403 1_554 S
C1183 C1180 1.403 . S
C1183 C1184 1.524 . S
C1183 C1187 1.417 1_554 S
C1184 H1169 0.960 . S
C1184 H1170 0.960 . S
C1184 H1171 0.960 . S
C1184 C1183 1.524 . S
C1185 C1182 1.403 1_556 S
C1185 C1186 1.392 . S
C1185 C1189 1.495 . S
C1186 C1185 1.392 . S
C1186 C1187 1.362 1_565 S
C1186 C1188 1.478 . S
C1187 H1181 0.940 . S
C1187 C1183 1.417 1_556 S
C1187 C1186 1.362 1_545 S
C1188 C1186 1.478 . S
C1188 C1190 1.381 . S
C1188 C1194 1.383 1_565 S
C1189 C1185 1.495 . S
C1189 H1195 0.959 . S
C1189 H1196 0.961 . S
C1189 H1197 0.960 . S
C1190 C1188 1.381 . S
C1190 C1191 1.394 . S
C1190 H1198 0.930 . S
C1191 C1190 1.394 . S
C1191 C1192 1.383 . S
C1191 H1199 0.929 . S
C1192 C1191 1.383 . S
C1192 C1193 1.377 . S
C1193 H1177 0.930 1_565 S
C1193 C1192 1.377 . S
C1193 C1194 1.379 1_565 S
C1194 H1178 0.931 . S
C1194 C1188 1.383 1_545 S
C1194 C1193 1.379 1_545 S
H1195 C1189 0.959 . S
H1196 C1189 0.961 . S
H1197 C1189 0.960 . S
H1198 C1190 0.930 . S
H1199 C1191 0.929 . S
H1200 C1208 0.929 . S
H1201 C1210 0.930 . S
H1202 C1212 0.930 . S
H1203 C1215 0.929 . S
H1204 C1218 0.930 . S
H1205 C1220 0.960 . S
H1206 C1220 0.960 . S
H1207 C1220 0.960 . S
C1208 H1200 0.929 . S
C1208 C1209 1.377 . S
C1208 C1210 1.384 . S
C1209 C1208 1.377 . S
C1209 C1215 1.390 . S
C1210 H1201 0.930 . S
C1210 C1208 1.384 . S
C1210 C1211 1.372 . S
C1211 C1210 1.372 . S
C1211 C1212 1.400 . S
C1211 C1216 1.490 . S
C1212 H1202 0.930 . S
C1212 C1211 1.400 . S
C1212 C1215 1.386 . S
H1213 C1229 0.930 . S
H1214 C1230 0.931 . S
C1215 H1203 0.929 . S
C1215 C1209 1.390 . S
C1215 C1212 1.386 . S
C1216 C1211 1.490 . S
C1216 C1218 1.395 . S
C1216 C1219 1.403 . S
H1217 C1223 0.930 . S
C1218 H1204 0.930 . S
C1218 C1216 1.395 . S
C1218 C1221 1.403 . S
C1219 C1216 1.403 . S
C1219 C1220 1.524 . S
C1219 C1223 1.400 . S
C1220 H1205 0.960 . S
C1220 H1206 0.960 . S
C1220 H1207 0.960 . S
C1220 C1219 1.524 . S
C1221 C1218 1.403 . S
C1221 C1222 1.392 . S
C1221 C1225 1.495 . S
C1222 C1221 1.392 . S
C1222 C1223 1.385 . S
C1222 C1224 1.478 . S
C1223 H1217 0.930 . S
C1223 C1219 1.400 . S
C1223 C1222 1.385 . S
C1224 C1222 1.478 . S
C1224 C1226 1.381 . S
C1224 C1230 1.383 . S
C1225 C1221 1.495 . S
C1225 H1231 0.959 . S
C1225 H1232 0.961 . S
C1225 H1233 0.960 . S
C1226 C1224 1.381 . S
C1226 C1227 1.394 . S
C1226 H1234 0.930 . S
C1227 C1226 1.394 . S
C1227 C1228 1.383 . S
C1227 H1235 0.929 . S
C1228 C1227 1.383 . S
C1228 C1229 1.377 . S
C1229 H1213 0.930 . S
C1229 C1228 1.377 . S
C1229 C1230 1.379 . S
C1230 H1214 0.931 . S
C1230 C1224 1.383 . S
C1230 C1229 1.379 . S
H1231 C1225 0.959 . S
H1232 C1225 0.961 . S
H1233 C1225 0.960 . S
H1234 C1226 0.930 . S
H1235 C1227 0.929 . S
H1236 C1244 0.929 . S
H1237 C1246 0.930 1_545 S
H1238 C1248 0.930 . S
H1239 C1251 0.929 . S
H1240 C1254 0.930 . S
H1241 C1256 0.960 . S
H1242 C1256 0.960 . S
H1243 C1256 0.960 . S
C1244 H1236 0.929 . S
C1244 C1245 1.377 . S
C1244 C1246 1.384 . S
C1245 C1244 1.377 . S
C1245 C1251 1.390 . S
C1246 H1237 0.930 1_565 S
C1246 C1244 1.384 . S
C1246 C1247 1.372 . S
C1247 C1246 1.372 . S
C1247 C1248 1.400 . S
C1247 C1252 1.490 . S
C1248 H1238 0.930 . S
C1248 C1247 1.400 . S
C1248 C1251 1.386 . S
H1249 C1265 0.930 . S
H1250 C1266 0.931 . S
C1251 H1239 0.929 . S
C1251 C1245 1.390 . S
C1251 C1248 1.386 . S
C1252 C1247 1.490 . S
C1252 C1254 1.395 1_565 S
C1252 C1255 1.403 . S
H1253 C1259 0.930 . S
C1254 H1240 0.930 . S
C1254 C1252 1.395 1_545 S
C1254 C1257 1.403 . S
C1255 C1252 1.403 . S
C1255 C1256 1.524 . S
C1255 C1259 1.400 . S
C1256 H1241 0.960 . S
C1256 H1242 0.960 . S
C1256 H1243 0.960 . S
C1256 C1255 1.524 . S
C1257 C1254 1.403 . S
C1257 C1258 1.392 . S
C1257 C1261 1.495 . S
C1258 C1257 1.392 . S
C1258 C1259 1.385 1_545 S
C1258 C1260 1.478 . S
C1259 H1253 0.930 . S
C1259 C1255 1.400 . S
C1259 C1258 1.385 1_565 S
C1260 C1258 1.478 . S
C1260 C1262 1.381 . S
C1260 C1266 1.383 . S
C1261 C1257 1.495 . S
C1261 H1267 0.959 . S
C1261 H1268 0.961 . S
C1261 H1269 0.960 . S
C1262 C1260 1.381 . S
C1262 C1263 1.394 . S
C1262 H1270 0.930 . S
C1263 C1262 1.394 . S
C1263 C1264 1.383 . S
C1263 H1271 0.929 . S
C1264 C1263 1.383 . S
C1264 C1265 1.377 . S
C1265 H1249 0.930 . S
C1265 C1264 1.377 . S
C1265 C1266 1.379 . S
C1266 H1250 0.931 . S
C1266 C1260 1.383 . S
C1266 C1265 1.379 . S
H1267 C1261 0.959 . S
H1268 C1261 0.961 . S
H1269 C1261 0.960 . S
H1270 C1262 0.930 . S
H1271 C1263 0.929 . S
H1272 C1280 0.929 . S
H1273 C1282 0.930 . S
H1274 C1284 0.930 . S
H1275 C1287 0.929 . S
H1276 C1290 0.930 . S
H1277 C1292 0.960 . S
H1278 C1292 0.960 . S
H1279 C1292 0.960 . S
C1280 H1272 0.929 . S
C1280 C1281 1.377 . S
C1280 C1282 1.384 . S
C1281 C1280 1.377 . S
C1281 C1287 1.390 . S
C1282 H1273 0.930 . S
C1282 C1280 1.384 . S
C1282 C1283 1.372 . S
C1283 C1282 1.372 . S
C1283 C1284 1.400 . S
C1283 C1288 1.490 . S
C1284 H1274 0.930 . S
C1284 C1283 1.400 . S
C1284 C1287 1.386 . S
H1285 C1301 0.930 . S
H1286 C1302 0.931 . S
C1287 H1275 0.929 . S
C1287 C1281 1.390 . S
C1287 C1284 1.386 . S
C1288 C1283 1.490 . S
C1288 C1290 1.395 . S
C1288 C1291 1.403 . S
H1289 C1295 0.930 . S
C1290 H1276 0.930 . S
C1290 C1288 1.395 . S
C1290 C1293 1.403 . S
C1291 C1288 1.403 . S
C1291 C1292 1.524 . S
C1291 C1295 1.400 . S
C1292 H1277 0.960 . S
C1292 H1278 0.960 . S
C1292 H1279 0.960 . S
C1292 C1291 1.524 . S
C1293 C1290 1.403 . S
C1293 C1294 1.392 . S
C1293 C1297 1.495 . S
C1294 C1293 1.392 . S
C1294 C1295 1.385 . S
C1294 C1296 1.478 . S
C1295 H1289 0.930 . S
C1295 C1291 1.400 . S
C1295 C1294 1.385 . S
C1296 C1294 1.478 . S
C1296 C1298 1.381 . S
C1296 C1302 1.383 . S
C1297 C1293 1.495 . S
C1297 H1303 0.959 . S
C1297 H1304 0.961 . S
C1297 H1305 0.960 . S
C1298 C1296 1.381 . S
C1298 C1299 1.394 . S
C1298 H1306 0.930 . S
C1299 C1298 1.394 . S
C1299 C1300 1.383 . S
C1299 H1307 0.929 . S
C1300 C1299 1.383 . S
C1300 C1301 1.377 . S
C1301 H1285 0.930 . S
C1301 C1300 1.377 . S
C1301 C1302 1.379 . S
C1302 H1286 0.931 . S
C1302 C1296 1.383 . S
C1302 C1301 1.379 . S
H1303 C1297 0.959 . S
H1304 C1297 0.961 . S
H1305 C1297 0.960 . S
H1306 C1298 0.930 . S
H1307 C1299 0.929 . S
H1308 C1316 0.929 . S
H1309 C1318 0.930 . S
H1310 C1320 0.930 1_655 S
H1311 C1323 0.929 . S
H1312 C1326 0.929 . S
H1313 C1328 0.960 . S
H1314 C1328 0.963 1_455 S
H1315 C1328 0.960 . S
C1316 H1308 0.929 . S
C1316 C1317 1.377 . S
C1316 C1318 1.384 . S
C1317 C1316 1.377 . S
C1317 C1323 1.390 . S
C1318 H1309 0.930 . S
C1318 C1316 1.384 . S
C1318 C1319 1.372 . S
C1319 C1318 1.372 . S
C1319 C1320 1.400 . S
C1319 C1324 1.490 . S
C1320 H1310 0.930 1_455 S
C1320 C1319 1.400 . S
C1320 C1323 1.386 . S
H1321 C1337 0.930 . S
H1322 C1338 0.931 1_545 S
C1323 H1311 0.929 . S
C1323 C1317 1.390 . S
C1323 C1320 1.386 . S
C1324 C1319 1.490 . S
C1324 C1326 1.352 1_556 S
C1324 C1327 1.403 1_445 S
H1325 C1331 0.930 . S
C1326 H1312 0.929 . S
C1326 C1324 1.352 1_554 S
C1326 C1329 1.449 . S
C1327 C1324 1.403 1_665 S
C1327 C1328 1.524 . S
C1327 C1331 1.400 1_556 S
C1328 H1313 0.960 . S
C1328 H1314 0.963 1_655 S
C1328 H1315 0.960 . S
C1328 C1327 1.524 . S
C1329 C1326 1.449 . S
C1329 C1330 1.392 1_445 S
C1329 C1333 1.495 . S
C1330 C1329 1.392 1_665 S
C1330 C1331 1.385 . S
C1330 C1332 1.478 . S
C1331 H1325 0.930 . S
C1331 C1327 1.400 1_554 S
C1331 C1330 1.385 . S
C1332 C1330 1.478 . S
C1332 C1334 1.381 . S
C1332 C1338 1.383 . S
C1333 C1329 1.495 . S
C1333 H1339 0.959 . S
C1333 H1340 0.961 . S
C1333 H1341 0.960 . S
C1334 C1332 1.381 . S
C1334 C1335 1.394 . S
C1334 H1342 0.930 1_655 S
C1335 C1334 1.394 . S
C1335 C1336 1.383 . S
C1335 H1343 0.929 . S
C1336 C1335 1.383 . S
C1336 C1337 1.377 . S
C1337 H1321 0.930 . S
C1337 C1336 1.377 . S
C1337 C1338 1.379 . S
C1338 H1322 0.931 1_565 S
C1338 C1332 1.383 . S
C1338 C1337 1.379 . S
H1339 C1333 0.959 . S
H1340 C1333 0.961 . S
H1341 C1333 0.960 . S
H1342 C1334 0.930 1_455 S
H1343 C1335 0.929 . S
H1344 C1352 0.929 . S
H1345 C1354 0.930 . S
H1346 C1356 0.930 . S
H1347 C1359 0.929 . S
H1348 C1362 0.930 . S
H1349 C1364 0.960 . S
H1350 C1364 0.960 . S
H1351 C1364 0.960 . S
C1352 H1344 0.929 . S
C1352 C1353 1.377 . S
C1352 C1354 1.384 . S
C1353 C1352 1.377 . S
C1353 C1359 1.390 . S
C1354 H1345 0.930 . S
C1354 C1352 1.384 . S
C1354 C1355 1.372 . S
C1355 C1354 1.372 . S
C1355 C1356 1.400 . S
C1355 C1360 1.490 . S
C1356 H1346 0.930 . S
C1356 C1355 1.400 . S
C1356 C1359 1.386 . S
H1357 C1373 0.930 . S
H1358 C1374 0.931 . S
C1359 H1347 0.929 . S
C1359 C1353 1.390 . S
C1359 C1356 1.386 . S
C1360 C1355 1.490 . S
C1360 C1362 1.395 . S
C1360 C1363 1.403 . S
H1361 C1367 0.930 . S
C1362 H1348 0.930 . S
C1362 C1360 1.395 . S
C1362 C1365 1.403 . S
C1363 C1360 1.403 . S
C1363 C1364 1.524 . S
C1363 C1367 1.400 . S
C1364 H1349 0.960 . S
C1364 H1350 0.960 . S
C1364 H1351 0.960 . S
C1364 C1363 1.524 . S
C1365 C1362 1.403 . S
C1365 C1366 1.392 . S
C1365 C1369 1.495 . S
C1366 C1365 1.392 . S
C1366 C1367 1.385 . S
C1366 C1368 1.478 . S
C1367 H1361 0.930 . S
C1367 C1363 1.400 . S
C1367 C1366 1.385 . S
C1368 C1366 1.478 . S
C1368 C1370 1.381 . S
C1368 C1374 1.383 . S
C1369 C1365 1.495 . S
C1369 H1375 0.959 . S
C1369 H1376 0.961 . S
C1369 H1377 0.960 . S
C1370 C1368 1.381 . S
C1370 C1371 1.394 . S
C1370 H1378 0.930 . S
C1371 C1370 1.394 . S
C1371 C1372 1.383 . S
C1371 H1379 0.929 . S
C1372 C1371 1.383 . S
C1372 C1373 1.377 . S
C1373 H1357 0.930 . S
C1373 C1372 1.377 . S
C1373 C1374 1.379 . S
C1374 H1358 0.931 . S
C1374 C1368 1.383 . S
C1374 C1373 1.379 . S
H1375 C1369 0.959 . S
H1376 C1369 0.961 . S
H1377 C1369 0.960 . S
H1378 C1370 0.930 . S
H1379 C1371 0.929 . S
H1380 C1388 0.929 . S
H1381 C1390 0.930 . S
H1382 C1392 0.930 . S
H1383 C1395 0.929 . S
H1384 C1398 0.930 . S
H1385 C1400 0.960 . S
H1386 C1400 0.960 . S
H1387 C1400 0.960 . S
C1388 H1380 0.929 . S
C1388 C1389 1.377 . S
C1388 C1390 1.384 . S
C1389 C1388 1.377 . S
C1389 C1395 1.390 . S
C1390 H1381 0.930 . S
C1390 C1388 1.384 . S
C1390 C1391 1.372 . S
C1391 C1390 1.372 . S
C1391 C1392 1.400 . S
C1391 C1396 1.490 . S
C1392 H1382 0.930 . S
C1392 C1391 1.400 . S
C1392 C1395 1.386 . S
H1393 C1409 0.930 . S
H1394 C1410 0.931 . S
C1395 H1383 0.929 . S
C1395 C1389 1.390 . S
C1395 C1392 1.386 . S
C1396 C1391 1.490 . S
C1396 C1398 1.395 . S
C1396 C1399 1.403 . S
H1397 C1403 0.930 . S
C1398 H1384 0.930 . S
C1398 C1396 1.395 . S
C1398 C1401 1.403 . S
C1399 C1396 1.403 . S
C1399 C1400 1.524 . S
C1399 C1403 1.400 . S
C1400 H1385 0.960 . S
C1400 H1386 0.960 . S
C1400 H1387 0.960 . S
C1400 C1399 1.524 . S
C1401 C1398 1.403 . S
C1401 C1402 1.392 . S
C1401 C1405 1.495 . S
C1402 C1401 1.392 . S
C1402 C1403 1.385 . S
C1402 C1404 1.478 . S
C1403 H1397 0.930 . S
C1403 C1399 1.400 . S
C1403 C1402 1.385 . S
C1404 C1402 1.478 . S
C1404 C1406 1.381 . S
C1404 C1410 1.383 . S
C1405 C1401 1.495 . S
C1405 H1411 0.959 . S
C1405 H1412 0.961 . S
C1405 H1413 0.960 . S
C1406 C1404 1.381 . S
C1406 C1407 1.394 . S
C1406 H1414 0.930 . S
C1407 C1406 1.394 . S
C1407 C1408 1.383 . S
C1407 H1415 0.929 . S
C1408 C1407 1.383 . S
C1408 C1409 1.377 . S
C1409 H1393 0.930 . S
C1409 C1408 1.377 . S
C1409 C1410 1.379 . S
C1410 H1394 0.931 . S
C1410 C1404 1.383 . S
C1410 C1409 1.379 . S
H1411 C1405 0.959 . S
H1412 C1405 0.961 . S
H1413 C1405 0.960 . S
H1414 C1406 0.930 . S
H1415 C1407 0.929 . S
H1416 C1424 0.929 . S
H1417 C1426 0.930 . S
H1418 C1428 0.930 . S
H1419 C1431 0.929 . S
H1420 C1434 0.930 . S
H1421 C1436 0.960 . S
H1422 C1436 0.960 . S
H1423 C1436 0.960 . S
C1424 H1416 0.929 . S
C1424 C1425 1.377 . S
C1424 C1426 1.384 . S
C1425 C1424 1.377 . S
C1425 C1431 1.390 . S
C1426 H1417 0.930 . S
C1426 C1424 1.384 . S
C1426 C1427 1.372 . S
C1427 C1426 1.372 . S
C1427 C1428 1.400 . S
C1427 C1432 1.490 . S
C1428 H1418 0.930 . S
C1428 C1427 1.400 . S
C1428 C1431 1.386 . S
H1429 C1445 0.930 . S
H1430 C1446 0.931 . S
C1431 H1419 0.929 . S
C1431 C1425 1.390 . S
C1431 C1428 1.386 . S
C1432 C1427 1.490 . S
C1432 C1434 1.395 . S
C1432 C1435 1.403 . S
H1433 C1439 0.930 . S
C1434 H1420 0.930 . S
C1434 C1432 1.395 . S
C1434 C1437 1.403 . S
C1435 C1432 1.403 . S
C1435 C1436 1.524 . S
C1435 C1439 1.400 . S
C1436 H1421 0.960 . S
C1436 H1422 0.960 . S
C1436 H1423 0.960 . S
C1436 C1435 1.524 . S
C1437 C1434 1.403 . S
C1437 C1438 1.392 . S
C1437 C1441 1.495 . S
C1438 C1437 1.392 . S
C1438 C1439 1.385 . S
C1438 C1440 1.478 . S
C1439 H1433 0.930 . S
C1439 C1435 1.400 . S
C1439 C1438 1.385 . S
C1440 C1438 1.478 . S
C1440 C1442 1.381 . S
C1440 C1446 1.383 . S
C1441 C1437 1.495 . S
C1441 H1447 0.959 . S
C1441 H1448 0.961 . S
C1441 H1449 0.960 . S
C1442 C1440 1.381 . S
C1442 C1443 1.394 . S
C1442 H1450 0.930 . S
C1443 C1442 1.394 . S
C1443 C1444 1.383 . S
C1443 H1451 0.929 . S
C1444 C1443 1.383 . S
C1444 C1445 1.377 . S
C1445 H1429 0.930 . S
C1445 C1444 1.377 . S
C1445 C1446 1.379 . S
C1446 H1430 0.931 . S
C1446 C1440 1.383 . S
C1446 C1445 1.379 . S
H1447 C1441 0.959 . S
H1448 C1441 0.961 . S
H1449 C1441 0.960 . S
H1450 C1442 0.930 . S
H1451 C1443 0.929 . S
H1452 C1460 0.929 . S
H1453 C1462 0.930 . S
H1454 C1464 0.930 . S
H1455 C1467 0.929 . S
H1456 C1470 0.930 . S
H1457 C1472 0.960 . S
H1458 C1472 0.960 . S
H1459 C1472 0.960 . S
C1460 H1452 0.929 . S
C1460 C1461 1.377 . S
C1460 C1462 1.384 . S
C1461 C1460 1.377 . S
C1461 C1467 1.390 . S
C1462 H1453 0.930 . S
C1462 C1460 1.384 . S
C1462 C1463 1.372 . S
C1463 C1462 1.372 . S
C1463 C1464 1.400 . S
C1463 C1468 1.490 . S
C1464 H1454 0.930 . S
C1464 C1463 1.400 . S
C1464 C1467 1.386 . S
H1465 C1481 0.930 . S
H1466 C1482 0.931 . S
C1467 H1455 0.929 . S
C1467 C1461 1.390 . S
C1467 C1464 1.386 . S
C1468 C1463 1.490 . S
C1468 C1470 1.395 . S
C1468 C1471 1.403 . S
H1469 C1475 0.930 . S
C1470 H1456 0.930 . S
C1470 C1468 1.395 . S
C1470 C1473 1.403 . S
C1471 C1468 1.403 . S
C1471 C1472 1.524 . S
C1471 C1475 1.400 . S
C1472 H1457 0.960 . S
C1472 H1458 0.960 . S
C1472 H1459 0.960 . S
C1472 C1471 1.524 . S
C1473 C1470 1.403 . S
C1473 C1474 1.392 . S
C1473 C1477 1.495 . S
C1474 C1473 1.392 . S
C1474 C1475 1.385 . S
C1474 C1476 1.478 . S
C1475 H1469 0.930 . S
C1475 C1471 1.400 . S
C1475 C1474 1.385 . S
C1476 C1474 1.478 . S
C1476 C1478 1.381 . S
C1476 C1482 1.383 . S
C1477 C1473 1.495 . S
C1477 H1483 0.959 . S
C1477 H1484 0.961 . S
C1477 H1485 0.960 . S
C1478 C1476 1.381 . S
C1478 C1479 1.394 . S
C1478 H1486 0.930 . S
C1479 C1478 1.394 . S
C1479 C1480 1.383 . S
C1479 H1487 0.929 . S
C1480 C1479 1.383 . S
C1480 C1481 1.377 . S
C1481 H1465 0.930 . S
C1481 C1480 1.377 . S
C1481 C1482 1.379 . S
C1482 H1466 0.931 . S
C1482 C1476 1.383 . S
C1482 C1481 1.379 . S
H1483 C1477 0.959 . S
H1484 C1477 0.961 . S
H1485 C1477 0.960 . S
H1486 C1478 0.930 . S
H1487 C1479 0.929 . S
H1488 C1496 0.929 . S
H1489 C1498 0.930 . S
H1490 C1500 0.930 . S
H1491 C1503 0.929 . S
H1492 C1506 0.929 . S
H1493 C1508 0.960 . S
H1494 C1508 0.960 . S
H1495 C1508 0.960 . S
C1496 H1488 0.929 . S
C1496 C1497 1.377 . S
C1496 C1498 1.384 . S
C1497 C1496 1.377 . S
C1497 C1503 1.390 . S
C1498 H1489 0.930 . S
C1498 C1496 1.384 . S
C1498 C1499 1.372 . S
C1499 C1498 1.372 . S
C1499 C1500 1.400 . S
C1499 C1504 1.490 . S
C1500 H1490 0.930 . S
C1500 C1499 1.400 . S
C1500 C1503 1.386 . S
H1501 C1517 0.930 . S
H1502 C1518 0.931 . S
C1503 H1491 0.929 . S
C1503 C1497 1.390 . S
C1503 C1500 1.386 . S
C1504 C1499 1.490 . S
C1504 C1506 1.352 1_556 S
C1504 C1507 1.403 . S
H1505 C1511 0.930 . S
C1506 H1492 0.929 . S
C1506 C1504 1.352 1_554 S
C1506 C1509 1.448 . S
C1507 C1504 1.403 . S
C1507 C1508 1.524 . S
C1507 C1511 1.400 1_556 S
C1508 H1493 0.960 . S
C1508 H1494 0.960 . S
C1508 H1495 0.960 . S
C1508 C1507 1.524 . S
C1509 C1506 1.448 . S
C1509 C1510 1.392 . S
C1509 C1513 1.495 . S
C1510 C1509 1.392 . S
C1510 C1511 1.385 . S
C1510 C1512 1.478 . S
C1511 H1505 0.930 . S
C1511 C1507 1.400 1_554 S
C1511 C1510 1.385 . S
C1512 C1510 1.478 . S
C1512 C1514 1.381 . S
C1512 C1518 1.383 . S
C1513 C1509 1.495 . S
C1513 H1519 0.959 . S
C1513 H1520 0.961 . S
C1513 H1521 0.960 . S
C1514 C1512 1.381 . S
C1514 C1515 1.394 . S
C1514 H1522 0.930 . S
C1515 C1514 1.394 . S
C1515 C1516 1.383 . S
C1515 H1523 0.929 . S
C1516 C1515 1.383 . S
C1516 C1517 1.377 . S
C1517 H1501 0.930 . S
C1517 C1516 1.377 . S
C1517 C1518 1.379 . S
C1518 H1502 0.931 . S
C1518 C1512 1.383 . S
C1518 C1517 1.379 . S
H1519 C1513 0.959 . S
H1520 C1513 0.961 . S
H1521 C1513 0.960 . S
H1522 C1514 0.930 . S
H1523 C1515 0.929 . S
H1524 C1532 0.929 . S
H1525 C1534 0.930 . S
H1526 C1536 0.930 . S
H1527 C1539 0.929 . S
H1528 C1542 0.930 . S
H1529 C1544 0.960 . S
H1530 C1544 0.960 . S
H1531 C1544 0.960 . S
C1532 H1524 0.929 . S
C1532 C1533 1.377 . S
C1532 C1534 1.384 . S
C1533 C1532 1.377 . S
C1533 C1539 1.390 . S
C1534 H1525 0.930 . S
C1534 C1532 1.384 . S
C1534 C1535 1.372 . S
C1535 C1534 1.372 . S
C1535 C1536 1.400 . S
C1535 C1540 1.490 . S
C1536 H1526 0.930 . S
C1536 C1535 1.400 . S
C1536 C1539 1.386 . S
H1537 C1553 0.930 . S
H1538 C1554 0.931 . S
C1539 H1527 0.929 . S
C1539 C1533 1.390 . S
C1539 C1536 1.386 . S
C1540 C1535 1.490 . S
C1540 C1542 1.395 1_655 S
C1540 C1543 1.403 . S
H1541 C1547 0.930 . S
C1542 H1528 0.930 . S
C1542 C1540 1.395 1_455 S
C1542 C1545 1.403 . S
C1543 C1540 1.403 . S
C1543 C1544 1.524 . S
C1543 C1547 1.400 . S
C1544 H1529 0.960 . S
C1544 H1530 0.960 . S
C1544 H1531 0.960 . S
C1544 C1543 1.524 . S
C1545 C1542 1.403 . S
C1545 C1546 1.392 . S
C1545 C1549 1.495 . S
C1546 C1545 1.392 . S
C1546 C1547 1.385 1_455 S
C1546 C1548 1.478 . S
C1547 H1541 0.930 . S
C1547 C1543 1.400 . S
C1547 C1546 1.385 1_655 S
C1548 C1546 1.478 . S
C1548 C1550 1.381 . S
C1548 C1554 1.383 . S
C1549 C1545 1.495 . S
C1549 H1555 0.959 . S
C1549 H1556 0.961 . S
C1549 H1557 0.960 . S
C1550 C1548 1.381 . S
C1550 C1551 1.394 . S
C1550 H1558 0.930 . S
C1551 C1550 1.394 . S
C1551 C1552 1.383 . S
C1551 H1559 0.929 . S
C1552 C1551 1.383 . S
C1552 C1553 1.377 . S
C1553 H1537 0.930 . S
C1553 C1552 1.377 . S
C1553 C1554 1.379 . S
C1554 H1538 0.931 . S
C1554 C1548 1.383 . S
C1554 C1553 1.379 . S
H1555 C1549 0.959 . S
H1556 C1549 0.961 . S
H1557 C1549 0.960 . S
H1558 C1550 0.930 . S
H1559 C1551 0.929 . S
H1560 C1568 0.929 . S
H1561 C1570 0.930 . S
H1562 C1572 0.930 . S
H1563 C1575 0.929 . S
H1564 C1578 0.932 . S
H1565 C1580 0.960 . S
H1566 C1580 0.960 . S
H1567 C1580 0.960 . S
C1568 H1560 0.929 . S
C1568 C1569 1.377 . S
C1568 C1570 1.384 . S
C1569 C1568 1.377 . S
C1569 C1575 1.390 . S
C1570 H1561 0.930 . S
C1570 C1568 1.384 . S
C1570 C1571 1.372 . S
C1571 C1570 1.372 . S
C1571 C1572 1.400 . S
C1571 C1576 1.490 . S
C1572 H1562 0.930 . S
C1572 C1571 1.400 . S
C1572 C1575 1.386 . S
H1573 C1589 0.930 . S
H1574 C1590 0.931 . S
C1575 H1563 0.929 . S
C1575 C1569 1.390 . S
C1575 C1572 1.386 . S
C1576 C1571 1.490 . S
C1576 C1578 1.395 1_554 S
C1576 C1579 1.403 1_455 S
H1577 C1583 0.930 . S
C1578 H1564 0.932 . S
C1578 C1576 1.395 1_556 S
C1578 C1581 1.403 . S
C1579 C1576 1.403 1_655 S
C1579 C1580 1.524 . S
C1579 C1583 1.400 1_554 S
C1580 H1565 0.960 . S
C1580 H1566 0.960 . S
C1580 H1567 0.960 . S
C1580 C1579 1.524 . S
C1581 C1578 1.403 . S
C1581 C1582 1.392 1_455 S
C1581 C1585 1.495 . S
C1582 C1581 1.392 1_655 S
C1582 C1583 1.385 . S
C1582 C1584 1.478 . S
C1583 H1577 0.930 . S
C1583 C1579 1.400 1_556 S
C1583 C1582 1.385 . S
C1584 C1582 1.478 . S
C1584 C1586 1.381 . S
C1584 C1590 1.383 . S
C1585 C1581 1.495 . S
C1585 H1591 0.959 . S
C1585 H1592 0.961 . S
C1585 H1593 0.960 . S
C1586 C1584 1.381 . S
C1586 C1587 1.394 . S
C1586 H1594 0.930 . S
C1587 C1586 1.394 . S
C1587 C1588 1.383 . S
C1587 H1595 0.929 . S
C1588 C1587 1.383 . S
C1588 C1589 1.377 . S
C1589 H1573 0.930 . S
C1589 C1588 1.377 . S
C1589 C1590 1.379 . S
C1590 H1574 0.931 . S
C1590 C1584 1.383 . S
C1590 C1589 1.379 . S
H1591 C1585 0.959 . S
H1592 C1585 0.961 . S
H1593 C1585 0.960 . S
H1594 C1586 0.930 . S
H1595 C1587 0.929 . S
H1596 C1604 0.929 . S
H1597 C1606 0.930 . S
H1598 C1608 0.930 . S
H1599 C1611 0.929 . S
H1600 C1614 0.930 . S
H1601 C1616 0.960 . S
H1602 C1616 0.960 . S
H1603 C1616 0.960 . S
C1604 H1596 0.929 . S
C1604 C1605 1.377 . S
C1604 C1606 1.384 . S
C1605 C1604 1.377 . S
C1605 C1611 1.390 . S
C1606 H1597 0.930 . S
C1606 C1604 1.384 . S
C1606 C1607 1.372 . S
C1607 C1606 1.372 . S
C1607 C1608 1.400 . S
C1607 C1612 1.490 . S
C1608 H1598 0.930 . S
C1608 C1607 1.400 . S
C1608 C1611 1.386 . S
H1609 C1625 0.930 . S
H1610 C1626 0.931 . S
C1611 H1599 0.929 . S
C1611 C1605 1.390 . S
C1611 C1608 1.386 . S
C1612 C1607 1.490 . S
C1612 C1614 1.395 . S
C1612 C1615 1.403 . S
H1613 C1619 0.930 . S
C1614 H1600 0.930 . S
C1614 C1612 1.395 . S
C1614 C1617 1.403 . S
C1615 C1612 1.403 . S
C1615 C1616 1.524 . S
C1615 C1619 1.400 . S
C1616 H1601 0.960 . S
C1616 H1602 0.960 . S
C1616 H1603 0.960 . S
C1616 C1615 1.524 . S
C1617 C1614 1.403 . S
C1617 C1618 1.392 . S
C1617 C1621 1.495 . S
C1618 C1617 1.392 . S
C1618 C1619 1.385 . S
C1618 C1620 1.478 . S
C1619 H1613 0.930 . S
C1619 C1615 1.400 . S
C1619 C1618 1.385 . S
C1620 C1618 1.478 . S
C1620 C1622 1.381 . S
C1620 C1626 1.383 . S
C1621 C1617 1.495 . S
C1621 H1627 0.959 . S
C1621 H1628 0.961 . S
C1621 H1629 0.960 . S
C1622 C1620 1.381 . S
C1622 C1623 1.394 . S
C1622 H1630 0.930 . S
C1623 C1622 1.394 . S
C1623 C1624 1.383 . S
C1623 H1631 0.929 . S
C1624 C1623 1.383 . S
C1624 C1625 1.377 . S
C1625 H1609 0.930 . S
C1625 C1624 1.377 . S
C1625 C1626 1.379 . S
C1626 H1610 0.931 . S
C1626 C1620 1.383 . S
C1626 C1625 1.379 . S
H1627 C1621 0.959 . S
H1628 C1621 0.961 . S
H1629 C1621 0.960 . S
H1630 C1622 0.930 . S
H1631 C1623 0.929 . S
H1632 C1640 0.929 . S
H1633 C1642 0.930 . S
H1634 C1644 0.930 . S
H1635 C1647 0.929 . S
H1636 C1650 0.930 . S
H1637 C1652 0.960 . S
H1638 C1652 0.960 . S
H1639 C1652 0.960 . S
C1640 H1632 0.929 . S
C1640 C1641 1.377 . S
C1640 C1642 1.384 . S
C1641 C1640 1.377 . S
C1641 C1647 1.390 . S
C1642 H1633 0.930 . S
C1642 C1640 1.384 . S
C1642 C1643 1.372 . S
C1643 C1642 1.372 . S
C1643 C1644 1.400 . S
C1643 C1648 1.490 . S
C1644 H1634 0.930 . S
C1644 C1643 1.400 . S
C1644 C1647 1.386 . S
H1645 C1661 0.930 . S
H1646 C1662 0.931 . S
C1647 H1635 0.929 . S
C1647 C1641 1.390 . S
C1647 C1644 1.386 . S
C1648 C1643 1.490 . S
C1648 C1650 1.395 . S
C1648 C1651 1.403 . S
H1649 C1655 0.930 . S
C1650 H1636 0.930 . S
C1650 C1648 1.395 . S
C1650 C1653 1.403 . S
C1651 C1648 1.403 . S
C1651 C1652 1.524 . S
C1651 C1655 1.400 . S
C1652 H1637 0.960 . S
C1652 H1638 0.960 . S
C1652 H1639 0.960 . S
C1652 C1651 1.524 . S
C1653 C1650 1.403 . S
C1653 C1654 1.392 . S
C1653 C1657 1.495 . S
C1654 C1653 1.392 . S
C1654 C1655 1.385 . S
C1654 C1656 1.478 . S
C1655 H1649 0.930 . S
C1655 C1651 1.400 . S
C1655 C1654 1.385 . S
C1656 C1654 1.478 . S
C1656 C1658 1.381 . S
C1656 C1662 1.383 . S
C1657 C1653 1.495 . S
C1657 H1663 0.959 . S
C1657 H1664 0.961 . S
C1657 H1665 0.960 . S
C1658 C1656 1.381 . S
C1658 C1659 1.394 . S
C1658 H1666 0.930 . S
C1659 C1658 1.394 . S
C1659 C1660 1.383 . S
C1659 H1667 0.929 . S
C1660 C1659 1.383 . S
C1660 C1661 1.377 . S
C1661 H1645 0.930 . S
C1661 C1660 1.377 . S
C1661 C1662 1.379 . S
C1662 H1646 0.931 . S
C1662 C1656 1.383 . S
C1662 C1661 1.379 . S
H1663 C1657 0.959 . S
H1664 C1657 0.961 . S
H1665 C1657 0.960 . S
H1666 C1658 0.930 . S
H1667 C1659 0.929 . S
H1668 C1676 0.929 1_655 S
H1669 C1678 0.930 . S
H1670 C1680 0.930 . S
H1671 C1683 0.929 . S
H1672 C1686 0.930 . S
H1673 C1688 0.960 . S
H1674 C1688 0.960 . S
H1675 C1688 0.960 . S
C1676 H1668 0.929 1_455 S
C1676 C1677 1.377 . S
C1676 C1678 1.384 . S
C1677 C1676 1.377 . S
C1677 C1683 1.390 . S
C1678 H1669 0.930 . S
C1678 C1676 1.384 . S
C1678 C1679 1.372 . S
C1679 C1678 1.372 . S
C1679 C1680 1.400 . S
C1679 C1684 1.490 . S
C1680 H1670 0.930 . S
C1680 C1679 1.400 . S
C1680 C1683 1.386 . S
H1681 C1697 0.930 . S
H1682 C1698 0.931 . S
C1683 H1671 0.929 . S
C1683 C1677 1.390 . S
C1683 C1680 1.386 . S
C1684 C1679 1.490 . S
C1684 C1686 1.395 . S
C1684 C1687 1.403 . S
H1685 C1691 0.930 . S
C1686 H1672 0.930 . S
C1686 C1684 1.395 . S
C1686 C1689 1.403 . S
C1687 C1684 1.403 . S
C1687 C1688 1.524 . S
C1687 C1691 1.400 . S
C1688 H1673 0.960 . S
C1688 H1674 0.960 . S
C1688 H1675 0.960 . S
C1688 C1687 1.524 . S
C1689 C1686 1.403 . S
C1689 C1690 1.392 . S
C1689 C1693 1.495 . S
C1690 C1689 1.392 . S
C1690 C1691 1.385 . S
C1690 C1692 1.478 . S
C1691 H1685 0.930 . S
C1691 C1687 1.400 . S
C1691 C1690 1.385 . S
C1692 C1690 1.478 . S
C1692 C1694 1.381 . S
C1692 C1698 1.383 . S
C1693 C1689 1.495 . S
C1693 H1699 0.959 . S
C1693 H1700 0.961 . S
C1693 H1701 0.960 . S
C1694 C1692 1.381 . S
C1694 C1695 1.394 . S
C1694 H1702 0.930 . S
C1695 C1694 1.394 . S
C1695 C1696 1.383 . S
C1695 H1703 0.929 . S
C1696 C1695 1.383 . S
C1696 C1697 1.377 . S
C1697 H1681 0.930 . S
C1697 C1696 1.377 . S
C1697 C1698 1.379 . S
C1698 H1682 0.931 . S
C1698 C1692 1.383 . S
C1698 C1697 1.379 . S
H1699 C1693 0.959 . S
H1700 C1693 0.961 . S
H1701 C1693 0.960 . S
H1702 C1694 0.930 . S
H1703 C1695 0.929 . S
H1704 C1712 0.929 . S
H1705 C1714 0.930 . S
H1706 C1716 0.930 . S
H1707 C1719 0.929 . S
H1708 C1722 0.930 . S
H1709 C1724 0.960 . S
H1710 C1724 0.960 . S
H1711 C1724 0.960 . S
C1712 H1704 0.929 . S
C1712 C1713 1.377 . S
C1712 C1714 1.384 . S
C1713 C1712 1.377 . S
C1713 C1719 1.390 . S
C1714 H1705 0.930 . S
C1714 C1712 1.384 . S
C1714 C1715 1.372 . S
C1715 C1714 1.372 . S
C1715 C1716 1.400 . S
C1715 C1720 1.490 . S
C1716 H1706 0.930 . S
C1716 C1715 1.400 . S
C1716 C1719 1.386 . S
H1717 C1733 0.930 . S
H1718 C1734 0.931 . S
C1719 H1707 0.929 . S
C1719 C1713 1.390 . S
C1719 C1716 1.386 . S
C1720 C1715 1.490 . S
C1720 C1722 1.395 . S
C1720 C1723 1.403 . S
H1721 C1727 0.930 . S
C1722 H1708 0.930 . S
C1722 C1720 1.395 . S
C1722 C1725 1.403 . S
C1723 C1720 1.403 . S
C1723 C1724 1.524 . S
C1723 C1727 1.400 . S
C1724 H1709 0.960 . S
C1724 H1710 0.960 . S
C1724 H1711 0.960 . S
C1724 C1723 1.524 . S
C1725 C1722 1.403 . S
C1725 C1726 1.392 . S
C1725 C1729 1.495 . S
C1726 C1725 1.392 . S
C1726 C1727 1.385 . S
C1726 C1728 1.478 . S
C1727 H1721 0.930 . S
C1727 C1723 1.400 . S
C1727 C1726 1.385 . S
C1728 C1726 1.478 . S
C1728 C1730 1.381 . S
C1728 C1734 1.383 . S
C1729 C1725 1.495 . S
C1729 H1735 0.959 . S
C1729 H1736 0.961 . S
C1729 H1737 0.960 . S
C1730 C1728 1.381 . S
C1730 C1731 1.394 . S
C1730 H1738 0.930 . S
C1731 C1730 1.394 . S
C1731 C1732 1.383 . S
C1731 H1739 0.929 . S
C1732 C1731 1.383 . S
C1732 C1733 1.377 . S
C1733 H1717 0.930 . S
C1733 C1732 1.377 . S
C1733 C1734 1.379 . S
C1734 H1718 0.931 . S
C1734 C1728 1.383 . S
C1734 C1733 1.379 . S
H1735 C1729 0.959 . S
H1736 C1729 0.961 . S
H1737 C1729 0.960 . S
H1738 C1730 0.930 . S
H1739 C1731 0.929 . S
H1740 C1748 0.929 . S
H1741 C1750 0.930 . S
H1742 C1752 0.930 . S
H1743 C1755 0.929 . S
H1744 C1758 0.930 . S
H1745 C1760 0.960 . S
H1746 C1760 0.960 . S
H1747 C1760 0.960 . S
C1748 H1740 0.929 . S
C1748 C1749 1.377 . S
C1748 C1750 1.384 . S
C1749 C1748 1.377 . S
C1749 C1755 1.390 . S
C1750 H1741 0.930 . S
C1750 C1748 1.384 . S
C1750 C1751 1.372 . S
C1751 C1750 1.372 . S
C1751 C1752 1.400 . S
C1751 C1756 1.490 . S
C1752 H1742 0.930 . S
C1752 C1751 1.400 . S
C1752 C1755 1.386 . S
H1753 C1769 0.930 . S
H1754 C1770 0.931 . S
C1755 H1743 0.929 . S
C1755 C1749 1.390 . S
C1755 C1752 1.386 . S
C1756 C1751 1.490 . S
C1756 C1758 1.395 . S
C1756 C1759 1.403 . S
H1757 C1763 0.930 . S
C1758 H1744 0.930 . S
C1758 C1756 1.395 . S
C1758 C1761 1.403 . S
C1759 C1756 1.403 . S
C1759 C1760 1.524 . S
C1759 C1763 1.400 . S
C1760 H1745 0.960 . S
C1760 H1746 0.960 . S
C1760 H1747 0.960 . S
C1760 C1759 1.524 . S
C1761 C1758 1.403 . S
C1761 C1762 1.392 . S
C1761 C1765 1.495 . S
C1762 C1761 1.392 . S
C1762 C1763 1.385 . S
C1762 C1764 1.478 . S
C1763 H1757 0.930 . S
C1763 C1759 1.400 . S
C1763 C1762 1.385 . S
C1764 C1762 1.478 . S
C1764 C1766 1.381 . S
C1764 C1770 1.383 . S
C1765 C1761 1.495 . S
C1765 H1771 0.959 . S
C1765 H1772 0.961 . S
C1765 H1773 0.960 . S
C1766 C1764 1.381 . S
C1766 C1767 1.394 . S
C1766 H1774 0.930 . S
C1767 C1766 1.394 . S
C1767 C1768 1.383 . S
C1767 H1775 0.929 . S
C1768 C1767 1.383 . S
C1768 C1769 1.377 . S
C1769 H1753 0.930 . S
C1769 C1768 1.377 . S
C1769 C1770 1.379 . S
C1770 H1754 0.931 . S
C1770 C1764 1.383 . S
C1770 C1769 1.379 . S
H1771 C1765 0.959 . S
H1772 C1765 0.961 . S
H1773 C1765 0.960 . S
H1774 C1766 0.930 . S
H1775 C1767 0.929 . S
H1776 C1784 0.929 . S
H1777 C1786 0.930 . S
H1778 C1788 0.930 . S
H1779 C1791 0.929 . S
H1780 C1794 0.930 . S
H1781 C1796 0.960 . S
H1782 C1796 0.960 . S
H1783 C1796 0.960 . S
C1784 H1776 0.929 . S
C1784 C1785 1.377 . S
C1784 C1786 1.384 . S
C1785 C1784 1.377 . S
C1785 C1791 1.390 . S
C1786 H1777 0.930 . S
C1786 C1784 1.384 . S
C1786 C1787 1.372 . S
C1787 C1786 1.372 . S
C1787 C1788 1.400 . S
C1787 C1792 1.490 . S
C1788 H1778 0.930 . S
C1788 C1787 1.400 . S
C1788 C1791 1.386 . S
H1789 C1805 0.930 . S
H1790 C1806 0.931 . S
C1791 H1779 0.929 . S
C1791 C1785 1.390 . S
C1791 C1788 1.386 . S
C1792 C1787 1.490 . S
C1792 C1794 1.395 . S
C1792 C1795 1.403 . S
H1793 C1799 0.930 . S
C1794 H1780 0.930 . S
C1794 C1792 1.395 . S
C1794 C1797 1.403 . S
C1795 C1792 1.403 . S
C1795 C1796 1.524 . S
C1795 C1799 1.400 . S
C1796 H1781 0.960 . S
C1796 H1782 0.960 . S
C1796 H1783 0.960 . S
C1796 C1795 1.524 . S
C1797 C1794 1.403 . S
C1797 C1798 1.392 . S
C1797 C1801 1.495 . S
C1798 C1797 1.392 . S
C1798 C1799 1.385 . S
C1798 C1800 1.478 . S
C1799 H1793 0.930 . S
C1799 C1795 1.400 . S
C1799 C1798 1.385 . S
C1800 C1798 1.478 . S
C1800 C1802 1.381 . S
C1800 C1806 1.383 . S
C1801 C1797 1.495 . S
C1801 H1807 0.959 . S
C1801 H1808 0.961 . S
C1801 H1809 0.960 . S
C1802 C1800 1.381 . S
C1802 C1803 1.394 . S
C1802 H1810 0.930 . S
C1803 C1802 1.394 . S
C1803 C1804 1.383 . S
C1803 H1811 0.929 . S
C1804 C1803 1.383 . S
C1804 C1805 1.377 . S
C1805 H1789 0.930 . S
C1805 C1804 1.377 . S
C1805 C1806 1.379 . S
C1806 H1790 0.931 . S
C1806 C1800 1.383 . S
C1806 C1805 1.379 . S
H1807 C1801 0.959 . S
H1808 C1801 0.961 . S
H1809 C1801 0.960 . S
H1810 C1802 0.930 . S
H1811 C1803 0.929 . S
H1812 C1820 0.929 . S
H1813 C1822 0.930 . S
H1814 C1824 0.930 . S
H1815 C1827 0.929 . S
H1816 C1830 0.930 . S
H1817 C1832 0.960 . S
H1818 C1832 0.960 . S
H1819 C1832 0.960 . S
C1820 H1812 0.929 . S
C1820 C1821 1.377 . S
C1820 C1822 1.384 . S
C1821 C1820 1.377 . S
C1821 C1827 1.390 . S
C1822 H1813 0.930 . S
C1822 C1820 1.384 . S
C1822 C1823 1.372 . S
C1823 C1822 1.372 . S
C1823 C1824 1.400 . S
C1823 C1828 1.490 . S
C1824 H1814 0.930 . S
C1824 C1823 1.400 . S
C1824 C1827 1.386 . S
H1825 C1841 0.930 . S
H1826 C1842 0.931 . S
C1827 H1815 0.929 . S
C1827 C1821 1.390 . S
C1827 C1824 1.386 . S
C1828 C1823 1.490 . S
C1828 C1830 1.395 . S
C1828 C1831 1.403 . S
H1829 C1835 0.930 . S
C1830 H1816 0.930 . S
C1830 C1828 1.395 . S
C1830 C1833 1.403 . S
C1831 C1828 1.403 . S
C1831 C1832 1.524 . S
C1831 C1835 1.400 . S
C1832 H1817 0.960 . S
C1832 H1818 0.960 . S
C1832 H1819 0.960 . S
C1832 C1831 1.524 . S
C1833 C1830 1.403 . S
C1833 C1834 1.392 . S
C1833 C1837 1.495 . S
C1834 C1833 1.392 . S
C1834 C1835 1.385 . S
C1834 C1836 1.478 . S
C1835 H1829 0.930 . S
C1835 C1831 1.400 . S
C1835 C1834 1.385 . S
C1836 C1834 1.478 . S
C1836 C1838 1.381 . S
C1836 C1842 1.383 . S
C1837 C1833 1.495 . S
C1837 H1843 0.959 . S
C1837 H1844 0.961 . S
C1837 H1845 0.960 . S
C1838 C1836 1.381 . S
C1838 C1839 1.394 . S
C1838 H1846 0.930 . S
C1839 C1838 1.394 . S
C1839 C1840 1.383 . S
C1839 H1847 0.929 . S
C1840 C1839 1.383 . S
C1840 C1841 1.377 . S
C1841 H1825 0.930 . S
C1841 C1840 1.377 . S
C1841 C1842 1.379 . S
C1842 H1826 0.931 . S
C1842 C1836 1.383 . S
C1842 C1841 1.379 . S
H1843 C1837 0.959 . S
H1844 C1837 0.961 . S
H1845 C1837 0.960 . S
H1846 C1838 0.930 . S
H1847 C1839 0.929 . S
H1848 C1856 0.929 . S
H1849 C1858 0.930 . S
H1850 C1860 0.930 . S
H1851 C1863 0.929 . S
H1852 C1866 0.930 . S
H1853 C1868 0.960 . S
H1854 C1868 0.960 . S
H1855 C1868 0.960 . S
C1856 H1848 0.929 . S
C1856 C1857 1.377 . S
C1856 C1858 1.384 . S
C1857 C1856 1.377 . S
C1857 C1863 1.390 . S
C1858 H1849 0.930 . S
C1858 C1856 1.384 . S
C1858 C1859 1.372 . S
C1859 C1858 1.372 . S
C1859 C1860 1.400 . S
C1859 C1864 1.490 . S
C1860 H1850 0.930 . S
C1860 C1859 1.400 . S
C1860 C1863 1.386 . S
H1861 C1877 0.930 . S
H1862 C1878 0.931 . S
C1863 H1851 0.929 . S
C1863 C1857 1.390 . S
C1863 C1860 1.386 . S
C1864 C1859 1.490 . S
C1864 C1866 1.395 . S
C1864 C1867 1.403 . S
H1865 C1871 0.930 . S
C1866 H1852 0.930 . S
C1866 C1864 1.395 . S
C1866 C1869 1.403 . S
C1867 C1864 1.403 . S
C1867 C1868 1.524 . S
C1867 C1871 1.400 . S
C1868 H1853 0.960 . S
C1868 H1854 0.960 . S
C1868 H1855 0.960 . S
C1868 C1867 1.524 . S
C1869 C1866 1.403 . S
C1869 C1870 1.392 . S
C1869 C1873 1.495 . S
C1870 C1869 1.392 . S
C1870 C1871 1.385 . S
C1870 C1872 1.478 . S
C1871 H1865 0.930 . S
C1871 C1867 1.400 . S
C1871 C1870 1.385 . S
C1872 C1870 1.478 . S
C1872 C1874 1.381 . S
C1872 C1878 1.383 . S
C1873 C1869 1.495 . S
C1873 H1879 0.959 . S
C1873 H1880 0.961 . S
C1873 H1881 0.960 . S
C1874 C1872 1.381 . S
C1874 C1875 1.394 . S
C1874 H1882 0.930 . S
C1875 C1874 1.394 . S
C1875 C1876 1.383 . S
C1875 H1883 0.929 . S
C1876 C1875 1.383 . S
C1876 C1877 1.377 . S
C1877 H1861 0.930 . S
C1877 C1876 1.377 . S
C1877 C1878 1.379 . S
C1878 H1862 0.931 . S
C1878 C1872 1.383 . S
C1878 C1877 1.379 . S
H1879 C1873 0.959 . S
H1880 C1873 0.961 . S
H1881 C1873 0.960 . S
H1882 C1874 0.930 . S
H1883 C1875 0.929 . S
H1884 C1892 0.929 . S
H1885 C1894 0.930 . S
H1886 C1896 0.930 . S
H1887 C1899 0.929 . S
H1888 C1902 0.930 . S
H1889 C1904 0.960 . S
H1890 C1904 0.960 . S
H1891 C1904 0.960 . S
C1892 H1884 0.929 . S
C1892 C1893 1.377 . S
C1892 C1894 1.384 . S
C1893 C1892 1.377 . S
C1893 C1899 1.390 . S
C1894 H1885 0.930 . S
C1894 C1892 1.384 . S
C1894 C1895 1.372 . S
C1895 C1894 1.372 . S
C1895 C1896 1.400 . S
C1895 C1900 1.490 . S
C1896 H1886 0.930 . S
C1896 C1895 1.400 . S
C1896 C1899 1.386 . S
H1897 C1913 0.930 . S
H1898 C1914 0.931 . S
C1899 H1887 0.929 . S
C1899 C1893 1.390 . S
C1899 C1896 1.386 . S
C1900 C1895 1.490 . S
C1900 C1902 1.395 . S
C1900 C1903 1.403 . S
H1901 C1907 0.930 . S
C1902 H1888 0.930 . S
C1902 C1900 1.395 . S
C1902 C1905 1.403 . S
C1903 C1900 1.403 . S
C1903 C1904 1.524 . S
C1903 C1907 1.400 . S
C1904 H1889 0.960 . S
C1904 H1890 0.960 . S
C1904 H1891 0.960 . S
C1904 C1903 1.524 . S
C1905 C1902 1.403 . S
C1905 C1906 1.392 . S
C1905 C1909 1.495 . S
C1906 C1905 1.392 . S
C1906 C1907 1.385 . S
C1906 C1908 1.478 . S
C1907 H1901 0.930 . S
C1907 C1903 1.400 . S
C1907 C1906 1.385 . S
C1908 C1906 1.478 . S
C1908 C1910 1.381 . S
C1908 C1914 1.383 . S
C1909 C1905 1.495 . S
C1909 H1915 0.959 . S
C1909 H1916 0.961 . S
C1909 H1917 0.960 . S
C1910 C1908 1.381 . S
C1910 C1911 1.394 . S
C1910 H1918 0.930 . S
C1911 C1910 1.394 . S
C1911 C1912 1.383 . S
C1911 H1919 0.929 1_455 S
C1912 C1911 1.383 . S
C1912 C1913 1.377 . S
C1913 H1897 0.930 . S
C1913 C1912 1.377 . S
C1913 C1914 1.379 . S
C1914 H1898 0.931 . S
C1914 C1908 1.383 . S
C1914 C1913 1.379 . S
H1915 C1909 0.959 . S
H1916 C1909 0.961 . S
H1917 C1909 0.960 . S
H1918 C1910 0.930 . S
H1919 C1911 0.929 1_655 S
H1920 C1928 0.929 . S
H1921 C1930 0.930 . S
H1922 C1932 0.930 . S
H1923 C1935 0.929 . S
H1924 C1938 0.930 . S
H1925 C1940 0.960 . S
H1926 C1940 0.960 . S
H1927 C1940 0.960 . S
C1928 H1920 0.929 . S
C1928 C1929 1.377 . S
C1928 C1930 1.384 . S
C1929 C1928 1.377 . S
C1929 C1935 1.390 . S
C1930 H1921 0.930 . S
C1930 C1928 1.384 . S
C1930 C1931 1.372 . S
C1931 C1930 1.372 . S
C1931 C1932 1.400 . S
C1931 C1936 1.490 . S
C1932 H1922 0.930 . S
C1932 C1931 1.400 . S
C1932 C1935 1.386 . S
H1933 C1949 0.930 . S
H1934 C1950 0.931 . S
C1935 H1923 0.929 . S
C1935 C1929 1.390 . S
C1935 C1932 1.386 . S
C1936 C1931 1.490 . S
C1936 C1938 1.395 . S
C1936 C1939 1.403 . S
H1937 C1943 0.930 . S
C1938 H1924 0.930 . S
C1938 C1936 1.395 . S
C1938 C1941 1.403 . S
C1939 C1936 1.403 . S
C1939 C1940 1.524 . S
C1939 C1943 1.400 . S
C1940 H1925 0.960 . S
C1940 H1926 0.960 . S
C1940 H1927 0.960 . S
C1940 C1939 1.524 . S
C1941 C1938 1.403 . S
C1941 C1942 1.392 . S
C1941 C1945 1.495 . S
C1942 C1941 1.392 . S
C1942 C1943 1.385 . S
C1942 C1944 1.478 . S
C1943 H1937 0.930 . S
C1943 C1939 1.400 . S
C1943 C1942 1.385 . S
C1944 C1942 1.478 . S
C1944 C1946 1.381 . S
C1944 C1950 1.383 . S
C1945 C1941 1.495 . S
C1945 H1951 0.959 . S
C1945 H1952 0.961 . S
C1945 H1953 0.960 . S
C1946 C1944 1.381 . S
C1946 C1947 1.394 . S
C1946 H1954 0.930 . S
C1947 C1946 1.394 . S
C1947 C1948 1.383 . S
C1947 H1955 0.929 . S
C1948 C1947 1.383 . S
C1948 C1949 1.377 . S
C1949 H1933 0.930 . S
C1949 C1948 1.377 . S
C1949 C1950 1.379 . S
C1950 H1934 0.931 . S
C1950 C1944 1.383 . S
C1950 C1949 1.379 . S
H1951 C1945 0.959 . S
H1952 C1945 0.961 . S
H1953 C1945 0.960 . S
H1954 C1946 0.930 . S
H1955 C1947 0.929 . S
H1956 C1964 0.929 . S
H1957 C1966 0.930 . S
H1958 C1968 0.930 . S
H1959 C1971 0.929 . S
H1960 C1974 0.930 . S
H1961 C1976 0.960 . S
H1962 C1976 0.960 . S
H1963 C1976 0.960 . S
C1964 H1956 0.929 . S
C1964 C1965 1.377 . S
C1964 C1966 1.384 . S
C1965 C1964 1.377 . S
C1965 C1971 1.390 . S
C1966 H1957 0.930 . S
C1966 C1964 1.384 . S
C1966 C1967 1.372 . S
C1967 C1966 1.372 . S
C1967 C1968 1.400 . S
C1967 C1972 1.490 . S
C1968 H1958 0.930 . S
C1968 C1967 1.400 . S
C1968 C1971 1.386 . S
H1969 C1985 0.930 . S
H1970 C1986 0.931 . S
C1971 H1959 0.929 . S
C1971 C1965 1.390 . S
C1971 C1968 1.386 . S
C1972 C1967 1.490 . S
C1972 C1974 1.395 . S
C1972 C1975 1.403 . S
H1973 C1979 0.930 . S
C1974 H1960 0.930 . S
C1974 C1972 1.395 . S
C1974 C1977 1.403 . S
C1975 C1972 1.403 . S
C1975 C1976 1.524 . S
C1975 C1979 1.400 . S
C1976 H1961 0.960 . S
C1976 H1962 0.960 . S
C1976 H1963 0.960 . S
C1976 C1975 1.524 . S
C1977 C1974 1.403 . S
C1977 C1978 1.392 . S
C1977 C1981 1.495 . S
C1978 C1977 1.392 . S
C1978 C1979 1.385 . S
C1978 C1980 1.478 . S
C1979 H1973 0.930 . S
C1979 C1975 1.400 . S
C1979 C1978 1.385 . S
C1980 C1978 1.478 . S
C1980 C1982 1.381 . S
C1980 C1986 1.383 . S
C1981 C1977 1.495 . S
C1981 H1987 0.959 . S
C1981 H1988 0.961 . S
C1981 H1989 0.960 . S
C1982 C1980 1.381 . S
C1982 C1983 1.394 . S
C1982 H1990 0.930 . S
C1983 C1982 1.394 . S
C1983 C1984 1.383 . S
C1983 H1991 0.929 . S
C1984 C1983 1.383 . S
C1984 C1985 1.377 . S
C1985 H1969 0.930 . S
C1985 C1984 1.377 . S
C1985 C1986 1.379 . S
C1986 H1970 0.931 . S
C1986 C1980 1.383 . S
C1986 C1985 1.379 . S
H1987 C1981 0.959 . S
H1988 C1981 0.961 . S
H1989 C1981 0.960 . S
H1990 C1982 0.930 . S
H1991 C1983 0.929 . S
H1992 C2000 0.929 . S
H1993 C2002 0.930 . S
H1994 C2004 0.930 . S
H1995 C2007 0.929 . S
H1996 C2010 0.930 . S
H1997 C2012 0.960 . S
H1998 C2012 0.960 . S
H1999 C2012 0.960 . S
C2000 H1992 0.929 . S
C2000 C2001 1.377 . S
C2000 C2002 1.384 . S
C2001 C2000 1.377 . S
C2001 C2007 1.390 . S
C2002 H1993 0.930 . S
C2002 C2000 1.384 . S
C2002 C2003 1.372 . S
C2003 C2002 1.372 . S
C2003 C2004 1.400 . S
C2003 C2008 1.490 . S
C2004 H1994 0.930 . S
C2004 C2003 1.400 . S
C2004 C2007 1.386 . S
H2005 C2021 0.930 . S
H2006 C2022 0.931 . S
C2007 H1995 0.929 . S
C2007 C2001 1.390 . S
C2007 C2004 1.386 . S
C2008 C2003 1.490 . S
C2008 C2010 1.395 . S
C2008 C2011 1.403 . S
H2009 C2015 0.930 . S
C2010 H1996 0.930 . S
C2010 C2008 1.395 . S
C2010 C2013 1.403 . S
C2011 C2008 1.403 . S
C2011 C2012 1.524 . S
C2011 C2015 1.400 . S
C2012 H1997 0.960 . S
C2012 H1998 0.960 . S
C2012 H1999 0.960 . S
C2012 C2011 1.524 . S
C2013 C2010 1.403 . S
C2013 C2014 1.392 . S
C2013 C2017 1.495 . S
C2014 C2013 1.392 . S
C2014 C2015 1.385 . S
C2014 C2016 1.478 . S
C2015 H2009 0.930 . S
C2015 C2011 1.400 . S
C2015 C2014 1.385 . S
C2016 C2014 1.478 . S
C2016 C2018 1.381 . S
C2016 C2022 1.383 . S
C2017 C2013 1.495 . S
C2017 H2023 0.959 . S
C2017 H2024 0.961 . S
C2017 H2025 0.960 . S
C2018 C2016 1.381 . S
C2018 C2019 1.394 . S
C2018 H2026 0.930 . S
C2019 C2018 1.394 . S
C2019 C2020 1.383 . S
C2019 H2027 0.929 . S
C2020 C2019 1.383 . S
C2020 C2021 1.377 . S
C2021 H2005 0.930 . S
C2021 C2020 1.377 . S
C2021 C2022 1.379 . S
C2022 H2006 0.931 . S
C2022 C2016 1.383 . S
C2022 C2021 1.379 . S
H2023 C2017 0.959 . S
H2024 C2017 0.961 . S
H2025 C2017 0.960 . S
H2026 C2018 0.930 . S
H2027 C2019 0.929 . S
H2028 C2036 0.929 . S
H2029 C2038 0.930 . S
H2030 C2040 0.930 . S
H2031 C2043 0.929 . S
H2032 C2046 0.930 . S
H2033 C2048 0.960 . S
H2034 C2048 0.960 . S
H2035 C2048 0.960 . S
C2036 H2028 0.929 . S
C2036 C2037 1.377 . S
C2036 C2038 1.384 . S
C2037 C2036 1.377 . S
C2037 C2043 1.390 . S
C2038 H2029 0.930 . S
C2038 C2036 1.384 . S
C2038 C2039 1.372 . S
C2039 C2038 1.372 . S
C2039 C2040 1.400 . S
C2039 C2044 1.490 . S
C2040 H2030 0.930 . S
C2040 C2039 1.400 . S
C2040 C2043 1.386 . S
H2041 C2057 0.930 . S
H2042 C2058 0.931 . S
C2043 H2031 0.929 . S
C2043 C2037 1.390 . S
C2043 C2040 1.386 . S
C2044 C2039 1.490 . S
C2044 C2046 1.395 . S
C2044 C2047 1.403 . S
H2045 C2051 0.930 . S
C2046 H2032 0.930 . S
C2046 C2044 1.395 . S
C2046 C2049 1.403 . S
C2047 C2044 1.403 . S
C2047 C2048 1.524 . S
C2047 C2051 1.400 . S
C2048 H2033 0.960 . S
C2048 H2034 0.960 . S
C2048 H2035 0.960 . S
C2048 C2047 1.524 . S
C2049 C2046 1.403 . S
C2049 C2050 1.392 . S
C2049 C2053 1.495 . S
C2050 C2049 1.392 . S
C2050 C2051 1.385 . S
C2050 C2052 1.478 . S
C2051 H2045 0.930 . S
C2051 C2047 1.400 . S
C2051 C2050 1.385 . S
C2052 C2050 1.478 . S
C2052 C2054 1.381 . S
C2052 C2058 1.383 . S
C2053 C2049 1.495 . S
C2053 H2059 0.959 . S
C2053 H2060 0.961 . S
C2053 H2061 0.960 . S
C2054 C2052 1.381 . S
C2054 C2055 1.394 . S
C2054 H2062 0.930 . S
C2055 C2054 1.394 . S
C2055 C2056 1.383 . S
C2055 H2063 0.929 . S
C2056 C2055 1.383 . S
C2056 C2057 1.377 . S
C2057 H2041 0.930 . S
C2057 C2056 1.377 . S
C2057 C2058 1.379 . S
C2058 H2042 0.931 . S
C2058 C2052 1.383 . S
C2058 C2057 1.379 . S
H2059 C2053 0.959 . S
H2060 C2053 0.961 . S
H2061 C2053 0.960 . S
H2062 C2054 0.930 . S
H2063 C2055 0.929 . S
H2064 C2072 0.929 . S
H2065 C2074 0.930 . S
H2066 C2076 0.930 . S
H2067 C2079 0.929 . S
H2068 C2082 0.930 . S
H2069 C2084 0.960 . S
H2070 C2084 0.960 . S
H2071 C2084 0.960 . S
C2072 H2064 0.929 . S
C2072 C2073 1.377 . S
C2072 C2074 1.384 . S
C2073 C2072 1.377 . S
C2073 C2079 1.390 . S
C2074 H2065 0.930 . S
C2074 C2072 1.384 . S
C2074 C2075 1.372 . S
C2075 C2074 1.372 . S
C2075 C2076 1.400 . S
C2075 C2080 1.490 . S
C2076 H2066 0.930 . S
C2076 C2075 1.400 . S
C2076 C2079 1.386 . S
H2077 C2093 0.930 . S
H2078 C2094 0.931 . S
C2079 H2067 0.929 . S
C2079 C2073 1.390 . S
C2079 C2076 1.386 . S
C2080 C2075 1.490 . S
C2080 C2082 1.395 . S
C2080 C2083 1.403 . S
H2081 C2087 0.930 . S
C2082 H2068 0.930 . S
C2082 C2080 1.395 . S
C2082 C2085 1.403 . S
C2083 C2080 1.403 . S
C2083 C2084 1.524 . S
C2083 C2087 1.400 . S
C2084 H2069 0.960 . S
C2084 H2070 0.960 . S
C2084 H2071 0.960 . S
C2084 C2083 1.524 . S
C2085 C2082 1.403 . S
C2085 C2086 1.392 . S
C2085 C2089 1.495 . S
C2086 C2085 1.392 . S
C2086 C2087 1.385 . S
C2086 C2088 1.478 . S
C2087 H2081 0.930 . S
C2087 C2083 1.400 . S
C2087 C2086 1.385 . S
C2088 C2086 1.478 . S
C2088 C2090 1.381 . S
C2088 C2094 1.383 . S
C2089 C2085 1.495 . S
C2089 H2095 0.959 . S
C2089 H2096 0.961 . S
C2089 H2097 0.960 . S
C2090 C2088 1.381 . S
C2090 C2091 1.394 . S
C2090 H2098 0.930 . S
C2091 C2090 1.394 . S
C2091 C2092 1.383 . S
C2091 H2099 0.929 . S
C2092 C2091 1.383 . S
C2092 C2093 1.377 . S
C2093 H2077 0.930 . S
C2093 C2092 1.377 . S
C2093 C2094 1.379 . S
C2094 H2078 0.931 . S
C2094 C2088 1.383 . S
C2094 C2093 1.379 . S
H2095 C2089 0.959 . S
H2096 C2089 0.961 . S
H2097 C2089 0.960 . S
H2098 C2090 0.930 . S
H2099 C2091 0.929 . S
H2100 C2108 0.929 . S
H2101 C2110 0.930 . S
H2102 C2112 0.930 . S
H2103 C2115 0.929 . S
H2104 C2118 0.930 . S
H2105 C2120 0.960 . S
H2106 C2120 0.960 . S
H2107 C2120 0.960 . S
C2108 H2100 0.929 . S
C2108 C2109 1.377 . S
C2108 C2110 1.384 . S
C2109 C2108 1.377 . S
C2109 C2115 1.390 . S
C2110 H2101 0.930 . S
C2110 C2108 1.384 . S
C2110 C2111 1.372 . S
C2111 C2110 1.372 . S
C2111 C2112 1.400 . S
C2111 C2116 1.490 . S
C2112 H2102 0.930 . S
C2112 C2111 1.400 . S
C2112 C2115 1.386 . S
H2113 C2129 0.930 . S
H2114 C2130 0.931 . S
C2115 H2103 0.929 . S
C2115 C2109 1.390 . S
C2115 C2112 1.386 . S
C2116 C2111 1.490 . S
C2116 C2118 1.395 . S
C2116 C2119 1.403 . S
H2117 C2123 0.930 . S
C2118 H2104 0.930 . S
C2118 C2116 1.395 . S
C2118 C2121 1.403 . S
C2119 C2116 1.403 . S
C2119 C2120 1.524 . S
C2119 C2123 1.400 . S
C2120 H2105 0.960 . S
C2120 H2106 0.960 . S
C2120 H2107 0.960 . S
C2120 C2119 1.524 . S
C2121 C2118 1.403 . S
C2121 C2122 1.392 . S
C2121 C2125 1.495 . S
C2122 C2121 1.392 . S
C2122 C2123 1.385 . S
C2122 C2124 1.478 . S
C2123 H2117 0.930 . S
C2123 C2119 1.400 . S
C2123 C2122 1.385 . S
C2124 C2122 1.478 . S
C2124 C2126 1.381 . S
C2124 C2130 1.383 . S
C2125 C2121 1.495 . S
C2125 H2131 0.959 . S
C2125 H2132 0.961 . S
C2125 H2133 0.960 . S
C2126 C2124 1.381 . S
C2126 C2127 1.394 . S
C2126 H2134 0.930 . S
C2127 C2126 1.394 . S
C2127 C2128 1.383 . S
C2127 H2135 0.929 . S
C2128 C2127 1.383 . S
C2128 C2129 1.377 . S
C2129 H2113 0.930 . S
C2129 C2128 1.377 . S
C2129 C2130 1.379 . S
C2130 H2114 0.931 . S
C2130 C2124 1.383 . S
C2130 C2129 1.379 . S
H2131 C2125 0.959 . S
H2132 C2125 0.961 . S
H2133 C2125 0.960 . S
H2134 C2126 0.930 . S
H2135 C2127 0.929 . S
H2136 C2144 0.929 . S
H2137 C2146 0.930 . S
H2138 C2148 0.930 . S
H2139 C2151 0.929 . S
H2140 C2154 0.930 . S
H2141 C2156 0.960 . S
H2142 C2156 0.960 . S
H2143 C2156 0.960 . S
C2144 H2136 0.929 . S
C2144 C2145 1.377 . S
C2144 C2146 1.384 . S
C2145 C2144 1.377 . S
C2145 C2151 1.390 . S
C2146 H2137 0.930 . S
C2146 C2144 1.384 . S
C2146 C2147 1.372 . S
C2147 C2146 1.372 . S
C2147 C2148 1.400 . S
C2147 C2152 1.490 . S
C2148 H2138 0.930 . S
C2148 C2147 1.400 . S
C2148 C2151 1.386 . S
H2149 C2165 0.930 . S
H2150 C2166 0.931 . S
C2151 H2139 0.929 . S
C2151 C2145 1.390 . S
C2151 C2148 1.386 . S
C2152 C2147 1.490 . S
C2152 C2154 1.395 . S
C2152 C2155 1.403 . S
H2153 C2159 0.930 . S
C2154 H2140 0.930 . S
C2154 C2152 1.395 . S
C2154 C2157 1.403 . S
C2155 C2152 1.403 . S
C2155 C2156 1.524 . S
C2155 C2159 1.400 . S
C2156 H2141 0.960 . S
C2156 H2142 0.960 . S
C2156 H2143 0.960 . S
C2156 C2155 1.524 . S
C2157 C2154 1.403 . S
C2157 C2158 1.392 . S
C2157 C2161 1.495 . S
C2158 C2157 1.392 . S
C2158 C2159 1.385 . S
C2158 C2160 1.478 . S
C2159 H2153 0.930 . S
C2159 C2155 1.400 . S
C2159 C2158 1.385 . S
C2160 C2158 1.478 . S
C2160 C2162 1.381 . S
C2160 C2166 1.383 . S
C2161 C2157 1.495 . S
C2161 H2167 0.959 . S
C2161 H2168 0.961 . S
C2161 H2169 0.960 . S
C2162 C2160 1.381 . S
C2162 C2163 1.394 . S
C2162 H2170 0.930 . S
C2163 C2162 1.394 . S
C2163 C2164 1.383 . S
C2163 H2171 0.929 . S
C2164 C2163 1.383 . S
C2164 C2165 1.377 . S
C2165 H2149 0.930 . S
C2165 C2164 1.377 . S
C2165 C2166 1.379 . S
C2166 H2150 0.931 . S
C2166 C2160 1.383 . S
C2166 C2165 1.379 . S
H2167 C2161 0.959 . S
H2168 C2161 0.961 . S
H2169 C2161 0.960 . S
H2170 C2162 0.930 . S
H2171 C2163 0.929 . S
H2172 C2180 0.929 . S
H2173 C2182 0.930 . S
H2174 C2184 0.930 . S
H2175 C2187 0.929 1_455 S
H2176 C2190 0.930 . S
H2177 C2192 0.960 . S
H2178 C2192 0.960 . S
H2179 C2192 0.960 . S
C2180 H2172 0.929 . S
C2180 C2181 1.377 . S
C2180 C2182 1.384 . S
C2181 C2180 1.377 . S
C2181 C2187 1.390 . S
C2182 H2173 0.930 . S
C2182 C2180 1.384 . S
C2182 C2183 1.372 . S
C2183 C2182 1.372 . S
C2183 C2184 1.400 . S
C2183 C2188 1.490 . S
C2184 H2174 0.930 . S
C2184 C2183 1.400 . S
C2184 C2187 1.386 . S
H2185 C2201 0.930 . S
H2186 C2202 0.931 . S
C2187 H2175 0.929 1_655 S
C2187 C2181 1.390 . S
C2187 C2184 1.386 . S
C2188 C2183 1.490 . S
C2188 C2190 1.395 . S
C2188 C2191 1.403 . S
H2189 C2195 0.930 . S
C2190 H2176 0.930 . S
C2190 C2188 1.395 . S
C2190 C2193 1.403 . S
C2191 C2188 1.403 . S
C2191 C2192 1.524 . S
C2191 C2195 1.400 . S
C2192 H2177 0.960 . S
C2192 H2178 0.960 . S
C2192 H2179 0.960 . S
C2192 C2191 1.524 . S
C2193 C2190 1.403 . S
C2193 C2194 1.392 . S
C2193 C2197 1.495 . S
C2194 C2193 1.392 . S
C2194 C2195 1.385 . S
C2194 C2196 1.478 . S
C2195 H2189 0.930 . S
C2195 C2191 1.400 . S
C2195 C2194 1.385 . S
C2196 C2194 1.478 . S
C2196 C2198 1.381 . S
C2196 C2202 1.383 . S
C2197 C2193 1.495 . S
C2197 H2203 0.959 . S
C2197 H2204 0.961 . S
C2197 H2205 0.960 . S
C2198 C2196 1.381 . S
C2198 C2199 1.394 . S
C2198 H2206 0.930 . S
C2199 C2198 1.394 . S
C2199 C2200 1.383 . S
C2199 H2207 0.929 . S
C2200 C2199 1.383 . S
C2200 C2201 1.377 . S
C2201 H2185 0.930 . S
C2201 C2200 1.377 . S
C2201 C2202 1.379 . S
C2202 H2186 0.931 . S
C2202 C2196 1.383 . S
C2202 C2201 1.379 . S
H2203 C2197 0.959 . S
H2204 C2197 0.961 . S
H2205 C2197 0.960 . S
H2206 C2198 0.930 . S
H2207 C2199 0.929 . S
H2208 C2216 0.929 . S
H2209 C2218 0.930 . S
H2210 C2220 0.930 . S
H2211 C2223 0.929 . S
H2212 C2226 0.930 . S
H2213 C2228 0.960 . S
H2214 C2228 0.960 . S
H2215 C2228 0.960 . S
C2216 H2208 0.929 . S
C2216 C2217 1.377 . S
C2216 C2218 1.384 . S
C2217 C2216 1.377 . S
C2217 C2223 1.390 . S
C2218 H2209 0.930 . S
C2218 C2216 1.384 . S
C2218 C2219 1.372 . S
C2219 C2218 1.372 . S
C2219 C2220 1.400 . S
C2219 C2224 1.490 . S
C2220 H2210 0.930 . S
C2220 C2219 1.400 . S
C2220 C2223 1.386 . S
H2221 C2237 0.930 . S
H2222 C2238 0.931 . S
C2223 H2211 0.929 . S
C2223 C2217 1.390 . S
C2223 C2220 1.386 . S
C2224 C2219 1.490 . S
C2224 C2226 1.395 . S
C2224 C2227 1.403 . S
H2225 C2231 0.930 . S
C2226 H2212 0.930 . S
C2226 C2224 1.395 . S
C2226 C2229 1.403 . S
C2227 C2224 1.403 . S
C2227 C2228 1.524 . S
C2227 C2231 1.400 . S
C2228 H2213 0.960 . S
C2228 H2214 0.960 . S
C2228 H2215 0.960 . S
C2228 C2227 1.524 . S
C2229 C2226 1.403 . S
C2229 C2230 1.392 . S
C2229 C2233 1.495 . S
C2230 C2229 1.392 . S
C2230 C2231 1.385 . S
C2230 C2232 1.478 . S
C2231 H2225 0.930 . S
C2231 C2227 1.400 . S
C2231 C2230 1.385 . S
C2232 C2230 1.478 . S
C2232 C2234 1.381 . S
C2232 C2238 1.383 . S
C2233 C2229 1.495 . S
C2233 H2239 0.959 . S
C2233 H2240 0.961 . S
C2233 H2241 0.960 . S
C2234 C2232 1.381 . S
C2234 C2235 1.394 . S
C2234 H2242 0.930 . S
C2235 C2234 1.394 . S
C2235 C2236 1.383 . S
C2235 H2243 0.929 . S
C2236 C2235 1.383 . S
C2236 C2237 1.377 . S
C2237 H2221 0.930 . S
C2237 C2236 1.377 . S
C2237 C2238 1.379 . S
C2238 H2222 0.931 . S
C2238 C2232 1.383 . S
C2238 C2237 1.379 . S
H2239 C2233 0.959 . S
H2240 C2233 0.961 . S
H2241 C2233 0.960 . S
H2242 C2234 0.930 . S
H2243 C2235 0.929 . S
H2244 C2252 0.929 . S
H2245 C2254 0.930 . S
H2246 C2256 0.930 . S
H2247 C2259 0.929 . S
H2248 C2262 0.930 . S
H2249 C2264 0.960 . S
H2250 C2264 0.960 . S
H2251 C2264 0.960 . S
C2252 H2244 0.929 . S
C2252 C2253 1.377 . S
C2252 C2254 1.384 . S
C2253 C2252 1.377 . S
C2253 C2259 1.390 . S
C2254 H2245 0.930 . S
C2254 C2252 1.384 . S
C2254 C2255 1.372 . S
C2255 C2254 1.372 . S
C2255 C2256 1.400 . S
C2255 C2260 1.490 . S
C2256 H2246 0.930 . S
C2256 C2255 1.400 . S
C2256 C2259 1.386 . S
H2257 C2273 0.930 . S
H2258 C2274 0.931 . S
C2259 H2247 0.929 . S
C2259 C2253 1.390 . S
C2259 C2256 1.386 . S
C2260 C2255 1.490 . S
C2260 C2262 1.395 . S
C2260 C2263 1.403 . S
H2261 C2267 0.930 . S
C2262 H2248 0.930 . S
C2262 C2260 1.395 . S
C2262 C2265 1.403 . S
C2263 C2260 1.403 . S
C2263 C2264 1.524 . S
C2263 C2267 1.400 . S
C2264 H2249 0.960 . S
C2264 H2250 0.960 . S
C2264 H2251 0.960 . S
C2264 C2263 1.524 . S
C2265 C2262 1.403 . S
C2265 C2266 1.392 . S
C2265 C2269 1.495 . S
C2266 C2265 1.392 . S
C2266 C2267 1.385 . S
C2266 C2268 1.478 . S
C2267 H2261 0.930 . S
C2267 C2263 1.400 . S
C2267 C2266 1.385 . S
C2268 C2266 1.478 . S
C2268 C2270 1.381 . S
C2268 C2274 1.383 . S
C2269 C2265 1.495 . S
C2269 H2275 0.959 . S
C2269 H2276 0.961 . S
C2269 H2277 0.960 . S
C2270 C2268 1.381 . S
C2270 C2271 1.394 . S
C2270 H2278 0.930 . S
C2271 C2270 1.394 . S
C2271 C2272 1.383 . S
C2271 H2279 0.929 . S
C2272 C2271 1.383 . S
C2272 C2273 1.377 . S
C2273 H2257 0.930 . S
C2273 C2272 1.377 . S
C2273 C2274 1.379 . S
C2274 H2258 0.931 . S
C2274 C2268 1.383 . S
C2274 C2273 1.379 . S
H2275 C2269 0.959 . S
H2276 C2269 0.961 . S
H2277 C2269 0.960 . S
H2278 C2270 0.930 . S
H2279 C2271 0.929 . S
H2280 C2288 0.929 . S
H2281 C2290 0.930 . S
H2282 C2292 0.930 . S
H2283 C2295 0.929 . S
H2284 C2298 0.930 . S
H2285 C2300 0.960 . S
H2286 C2300 0.960 . S
H2287 C2300 0.960 . S
C2288 H2280 0.929 . S
C2288 C2289 1.377 . S
C2288 C2290 1.384 . S
C2289 C2288 1.377 . S
C2289 C2295 1.390 . S
C2290 H2281 0.930 . S
C2290 C2288 1.384 . S
C2290 C2291 1.372 . S
C2291 C2290 1.372 . S
C2291 C2292 1.400 . S
C2291 C2296 1.490 . S
C2292 H2282 0.930 . S
C2292 C2291 1.400 . S
C2292 C2295 1.386 . S
H2293 C2309 0.930 . S
H2294 C2310 0.931 . S
C2295 H2283 0.929 . S
C2295 C2289 1.390 . S
C2295 C2292 1.386 . S
C2296 C2291 1.490 . S
C2296 C2298 1.395 . S
C2296 C2299 1.403 . S
H2297 C2303 0.930 . S
C2298 H2284 0.930 . S
C2298 C2296 1.395 . S
C2298 C2301 1.403 . S
C2299 C2296 1.403 . S
C2299 C2300 1.524 . S
C2299 C2303 1.400 . S
C2300 H2285 0.960 . S
C2300 H2286 0.960 . S
C2300 H2287 0.960 . S
C2300 C2299 1.524 . S
C2301 C2298 1.403 . S
C2301 C2302 1.392 . S
C2301 C2305 1.495 . S
C2302 C2301 1.392 . S
C2302 C2303 1.385 . S
C2302 C2304 1.478 . S
C2303 H2297 0.930 . S
C2303 C2299 1.400 . S
C2303 C2302 1.385 . S
C2304 C2302 1.478 . S
C2304 C2306 1.381 . S
C2304 C2310 1.383 . S
C2305 C2301 1.495 . S
C2305 H2311 0.959 . S
C2305 H2312 0.961 . S
C2305 H2313 0.960 . S
C2306 C2304 1.381 . S
C2306 C2307 1.394 . S
C2306 H2314 0.930 . S
C2307 C2306 1.394 . S
C2307 C2308 1.383 . S
C2307 H2315 0.929 . S
C2308 C2307 1.383 . S
C2308 C2309 1.377 . S
C2309 H2293 0.930 . S
C2309 C2308 1.377 . S
C2309 C2310 1.379 . S
C2310 H2294 0.931 . S
C2310 C2304 1.383 . S
C2310 C2309 1.379 . S
H2311 C2305 0.959 . S
H2312 C2305 0.961 . S
H2313 C2305 0.960 . S
H2314 C2306 0.930 . S
H2315 C2307 0.929 . S
H2316 C2324 0.929 . S
H2317 C2326 0.930 . S
H2318 C2328 0.930 . S
H2319 C2331 0.929 . S
H2320 C2334 0.930 . S
H2321 C2336 0.960 . S
H2322 C2336 0.960 . S
H2323 C2336 0.960 . S
C2324 H2316 0.929 . S
C2324 C2325 1.377 . S
C2324 C2326 1.384 . S
C2325 C2324 1.377 . S
C2325 C2331 1.390 . S
C2326 H2317 0.930 . S
C2326 C2324 1.384 . S
C2326 C2327 1.372 . S
C2327 C2326 1.372 . S
C2327 C2328 1.400 . S
C2327 C2332 1.490 . S
C2328 H2318 0.930 . S
C2328 C2327 1.400 . S
C2328 C2331 1.386 . S
H2329 C2345 0.930 . S
H2330 C2346 0.931 . S
C2331 H2319 0.929 . S
C2331 C2325 1.390 . S
C2331 C2328 1.386 . S
C2332 C2327 1.490 . S
C2332 C2334 1.395 . S
C2332 C2335 1.403 . S
H2333 C2339 0.930 . S
C2334 H2320 0.930 . S
C2334 C2332 1.395 . S
C2334 C2337 1.403 . S
C2335 C2332 1.403 . S
C2335 C2336 1.524 . S
C2335 C2339 1.400 . S
C2336 H2321 0.960 . S
C2336 H2322 0.960 . S
C2336 H2323 0.960 . S
C2336 C2335 1.524 . S
C2337 C2334 1.403 . S
C2337 C2338 1.392 . S
C2337 C2341 1.495 . S
C2338 C2337 1.392 . S
C2338 C2339 1.385 . S
C2338 C2340 1.478 . S
C2339 H2333 0.930 . S
C2339 C2335 1.400 . S
C2339 C2338 1.385 . S
C2340 C2338 1.478 . S
C2340 C2342 1.381 . S
C2340 C2346 1.383 . S
C2341 C2337 1.495 . S
C2341 H2347 0.959 . S
C2341 H2348 0.961 . S
C2341 H2349 0.960 . S
C2342 C2340 1.381 . S
C2342 C2343 1.394 . S
C2342 H2350 0.930 . S
C2343 C2342 1.394 . S
C2343 C2344 1.383 . S
C2343 H2351 0.929 . S
C2344 C2343 1.383 . S
C2344 C2345 1.377 . S
C2345 H2329 0.930 . S
C2345 C2344 1.377 . S
C2345 C2346 1.379 . S
C2346 H2330 0.931 . S
C2346 C2340 1.383 . S
C2346 C2345 1.379 . S
H2347 C2341 0.959 . S
H2348 C2341 0.961 . S
H2349 C2341 0.960 . S
H2350 C2342 0.930 . S
H2351 C2343 0.929 . S
H2352 C2360 0.929 . S
H2353 C2362 0.930 . S
H2354 C2364 0.930 . S
H2355 C2367 0.929 . S
H2356 C2370 0.930 . S
H2357 C2372 0.960 . S
H2358 C2372 0.960 . S
H2359 C2372 0.960 . S
C2360 H2352 0.929 . S
C2360 C2361 1.377 . S
C2360 C2362 1.384 . S
C2361 C2360 1.377 . S
C2361 C2367 1.390 . S
C2362 H2353 0.930 . S
C2362 C2360 1.384 . S
C2362 C2363 1.372 . S
C2363 C2362 1.372 . S
C2363 C2364 1.400 . S
C2363 C2368 1.490 . S
C2364 H2354 0.930 . S
C2364 C2363 1.400 . S
C2364 C2367 1.386 . S
H2365 C2381 0.930 . S
H2366 C2382 0.931 . S
C2367 H2355 0.929 . S
C2367 C2361 1.390 . S
C2367 C2364 1.386 . S
C2368 C2363 1.490 . S
C2368 C2370 1.395 . S
C2368 C2371 1.403 . S
H2369 C2375 0.930 . S
C2370 H2356 0.930 . S
C2370 C2368 1.395 . S
C2370 C2373 1.403 . S
C2371 C2368 1.403 . S
C2371 C2372 1.524 . S
C2371 C2375 1.400 . S
C2372 H2357 0.960 . S
C2372 H2358 0.960 . S
C2372 H2359 0.960 . S
C2372 C2371 1.524 . S
C2373 C2370 1.403 . S
C2373 C2374 1.392 . S
C2373 C2377 1.495 . S
C2374 C2373 1.392 . S
C2374 C2375 1.385 . S
C2374 C2376 1.478 . S
C2375 H2369 0.930 . S
C2375 C2371 1.400 . S
C2375 C2374 1.385 . S
C2376 C2374 1.478 . S
C2376 C2378 1.381 . S
C2376 C2382 1.383 . S
C2377 C2373 1.495 . S
C2377 H2383 0.959 . S
C2377 H2384 0.961 . S
C2377 H2385 0.960 . S
C2378 C2376 1.381 . S
C2378 C2379 1.394 . S
C2378 H2386 0.930 . S
C2379 C2378 1.394 . S
C2379 C2380 1.383 . S
C2379 H2387 0.929 . S
C2380 C2379 1.383 . S
C2380 C2381 1.377 . S
C2381 H2365 0.930 . S
C2381 C2380 1.377 . S
C2381 C2382 1.379 . S
C2382 H2366 0.931 . S
C2382 C2376 1.383 . S
C2382 C2381 1.379 . S
H2383 C2377 0.959 . S
H2384 C2377 0.961 . S
H2385 C2377 0.960 . S
H2386 C2378 0.930 . S
H2387 C2379 0.929 . S
H2388 C2396 0.929 . S
H2389 C2398 0.930 . S
H2390 C2400 0.930 . S
H2391 C2403 0.929 . S
H2392 C2406 0.930 . S
H2393 C2408 0.960 . S
H2394 C2408 0.960 . S
H2395 C2408 0.960 . S
C2396 H2388 0.929 . S
C2396 C2397 1.377 . S
C2396 C2398 1.384 . S
C2397 C2396 1.377 . S
C2397 C2403 1.390 . S
C2398 H2389 0.930 . S
C2398 C2396 1.384 . S
C2398 C2399 1.372 . S
C2399 C2398 1.372 . S
C2399 C2400 1.400 . S
C2399 C2404 1.490 . S
C2400 H2390 0.930 . S
C2400 C2399 1.400 . S
C2400 C2403 1.386 . S
H2401 C2417 0.930 . S
H2402 C2418 0.931 . S
C2403 H2391 0.929 . S
C2403 C2397 1.390 . S
C2403 C2400 1.386 . S
C2404 C2399 1.490 . S
C2404 C2406 1.395 . S
C2404 C2407 1.403 . S
H2405 C2411 0.930 . S
C2406 H2392 0.930 . S
C2406 C2404 1.395 . S
C2406 C2409 1.403 . S
C2407 C2404 1.403 . S
C2407 C2408 1.524 . S
C2407 C2411 1.400 . S
C2408 H2393 0.960 . S
C2408 H2394 0.960 . S
C2408 H2395 0.960 . S
C2408 C2407 1.524 . S
C2409 C2406 1.403 . S
C2409 C2410 1.392 . S
C2409 C2413 1.495 . S
C2410 C2409 1.392 . S
C2410 C2411 1.385 . S
C2410 C2412 1.478 . S
C2411 H2405 0.930 . S
C2411 C2407 1.400 . S
C2411 C2410 1.385 . S
C2412 C2410 1.478 . S
C2412 C2414 1.381 . S
C2412 C2418 1.383 . S
C2413 C2409 1.495 . S
C2413 H2419 0.959 . S
C2413 H2420 0.961 . S
C2413 H2421 0.960 . S
C2414 C2412 1.381 . S
C2414 C2415 1.394 . S
C2414 H2422 0.930 . S
C2415 C2414 1.394 . S
C2415 C2416 1.383 . S
C2415 H2423 0.929 . S
C2416 C2415 1.383 . S
C2416 C2417 1.377 . S
C2417 H2401 0.930 . S
C2417 C2416 1.377 . S
C2417 C2418 1.379 . S
C2418 H2402 0.931 . S
C2418 C2412 1.383 . S
C2418 C2417 1.379 . S
H2419 C2413 0.959 . S
H2420 C2413 0.961 . S
H2421 C2413 0.960 . S
H2422 C2414 0.930 . S
H2423 C2415 0.929 . S
H2424 C2432 0.929 . S
H2425 C2434 0.930 . S
H2426 C2436 0.930 . S
H2427 C2439 0.929 . S
H2428 C2442 0.930 . S
H2429 C2444 0.960 . S
H2430 C2444 0.960 . S
H2431 C2444 0.960 . S
C2432 H2424 0.929 . S
C2432 C2433 1.377 . S
C2432 C2434 1.384 . S
C2433 C2432 1.377 . S
C2433 C2439 1.390 . S
C2434 H2425 0.930 . S
C2434 C2432 1.384 . S
C2434 C2435 1.372 . S
C2435 C2434 1.372 . S
C2435 C2436 1.400 . S
C2435 C2440 1.490 . S
C2436 H2426 0.930 . S
C2436 C2435 1.400 . S
C2436 C2439 1.386 . S
H2437 C2453 0.930 . S
H2438 C2454 0.931 . S
C2439 H2427 0.929 . S
C2439 C2433 1.390 . S
C2439 C2436 1.386 . S
C2440 C2435 1.490 . S
C2440 C2442 1.395 . S
C2440 C2443 1.403 . S
H2441 C2447 0.930 . S
C2442 H2428 0.930 . S
C2442 C2440 1.395 . S
C2442 C2445 1.403 . S
C2443 C2440 1.403 . S
C2443 C2444 1.524 . S
C2443 C2447 1.400 . S
C2444 H2429 0.960 . S
C2444 H2430 0.960 . S
C2444 H2431 0.960 . S
C2444 C2443 1.524 . S
C2445 C2442 1.403 . S
C2445 C2446 1.392 . S
C2445 C2449 1.495 . S
C2446 C2445 1.392 . S
C2446 C2447 1.385 . S
C2446 C2448 1.478 . S
C2447 H2441 0.930 . S
C2447 C2443 1.400 . S
C2447 C2446 1.385 . S
C2448 C2446 1.478 . S
C2448 C2450 1.381 . S
C2448 C2454 1.383 . S
C2449 C2445 1.495 . S
C2449 H2455 0.959 . S
C2449 H2456 0.961 . S
C2449 H2457 0.960 . S
C2450 C2448 1.381 . S
C2450 C2451 1.394 . S
C2450 H2458 0.930 . S
C2451 C2450 1.394 . S
C2451 C2452 1.383 . S
C2451 H2459 0.929 . S
C2452 C2451 1.383 . S
C2452 C2453 1.377 . S
C2453 H2437 0.930 . S
C2453 C2452 1.377 . S
C2453 C2454 1.379 . S
C2454 H2438 0.931 . S
C2454 C2448 1.383 . S
C2454 C2453 1.379 . S
H2455 C2449 0.959 . S
H2456 C2449 0.961 . S
H2457 C2449 0.960 . S
H2458 C2450 0.930 . S
H2459 C2451 0.929 . S
H2460 C2468 0.929 . S
H2461 C2470 0.930 . S
H2462 C2472 0.930 . S
H2463 C2475 0.929 . S
H2464 C2478 0.930 . S
H2465 C2480 0.960 . S
H2466 C2480 0.960 . S
H2467 C2480 0.960 . S
C2468 H2460 0.929 . S
C2468 C2469 1.377 . S
C2468 C2470 1.384 . S
C2469 C2468 1.377 . S
C2469 C2475 1.390 . S
C2470 H2461 0.930 . S
C2470 C2468 1.384 . S
C2470 C2471 1.372 . S
C2471 C2470 1.372 . S
C2471 C2472 1.400 . S
C2471 C2476 1.490 . S
C2472 H2462 0.930 . S
C2472 C2471 1.400 . S
C2472 C2475 1.386 . S
H2473 C2489 0.930 . S
H2474 C2490 0.931 . S
C2475 H2463 0.929 . S
C2475 C2469 1.390 . S
C2475 C2472 1.386 . S
C2476 C2471 1.490 . S
C2476 C2478 1.395 . S
C2476 C2479 1.403 . S
H2477 C2483 0.930 . S
C2478 H2464 0.930 . S
C2478 C2476 1.395 . S
C2478 C2481 1.403 . S
C2479 C2476 1.403 . S
C2479 C2480 1.524 . S
C2479 C2483 1.400 . S
C2480 H2465 0.960 . S
C2480 H2466 0.960 . S
C2480 H2467 0.960 . S
C2480 C2479 1.524 . S
C2481 C2478 1.403 . S
C2481 C2482 1.392 . S
C2481 C2485 1.495 . S
C2482 C2481 1.392 . S
C2482 C2483 1.385 . S
C2482 C2484 1.478 . S
C2483 H2477 0.930 . S
C2483 C2479 1.400 . S
C2483 C2482 1.385 . S
C2484 C2482 1.478 . S
C2484 C2486 1.381 . S
C2484 C2490 1.383 . S
C2485 C2481 1.495 . S
C2485 H2491 0.959 . S
C2485 H2492 0.961 . S
C2485 H2493 0.960 . S
C2486 C2484 1.381 . S
C2486 C2487 1.394 . S
C2486 H2494 0.930 . S
C2487 C2486 1.394 . S
C2487 C2488 1.383 . S
C2487 H2495 0.929 . S
C2488 C2487 1.383 . S
C2488 C2489 1.377 . S
C2489 H2473 0.930 . S
C2489 C2488 1.377 . S
C2489 C2490 1.379 . S
C2490 H2474 0.931 . S
C2490 C2484 1.383 . S
C2490 C2489 1.379 . S
H2491 C2485 0.959 . S
H2492 C2485 0.961 . S
H2493 C2485 0.960 . S
H2494 C2486 0.930 . S
H2495 C2487 0.929 . S
H2496 C2504 0.929 . S
H2497 C2506 0.930 . S
H2498 C2508 0.930 . S
H2499 C2511 0.929 . S
H2500 C2514 0.930 . S
H2501 C2516 0.960 . S
H2502 C2516 0.960 . S
H2503 C2516 0.960 . S
C2504 H2496 0.929 . S
C2504 C2505 1.377 . S
C2504 C2506 1.384 . S
C2505 C2504 1.377 . S
C2505 C2511 1.390 . S
C2506 H2497 0.930 . S
C2506 C2504 1.384 . S
C2506 C2507 1.372 . S
C2507 C2506 1.372 . S
C2507 C2508 1.400 . S
C2507 C2512 1.490 . S
C2508 H2498 0.930 . S
C2508 C2507 1.400 . S
C2508 C2511 1.386 . S
H2509 C2525 0.930 . S
H2510 C2526 0.931 . S
C2511 H2499 0.929 . S
C2511 C2505 1.390 . S
C2511 C2508 1.386 . S
C2512 C2507 1.490 . S
C2512 C2514 1.395 . S
C2512 C2515 1.403 . S
H2513 C2519 0.930 . S
C2514 H2500 0.930 . S
C2514 C2512 1.395 . S
C2514 C2517 1.403 . S
C2515 C2512 1.403 . S
C2515 C2516 1.524 . S
C2515 C2519 1.400 . S
C2516 H2501 0.960 . S
C2516 H2502 0.960 . S
C2516 H2503 0.960 . S
C2516 C2515 1.524 . S
C2517 C2514 1.403 . S
C2517 C2518 1.392 . S
C2517 C2521 1.495 . S
C2518 C2517 1.392 . S
C2518 C2519 1.385 . S
C2518 C2520 1.478 . S
C2519 H2513 0.930 . S
C2519 C2515 1.400 . S
C2519 C2518 1.385 . S
C2520 C2518 1.478 . S
C2520 C2522 1.381 . S
C2520 C2526 1.383 . S
C2521 C2517 1.495 . S
C2521 H2527 0.959 . S
C2521 H2528 0.961 . S
C2521 H2529 0.960 . S
C2522 C2520 1.381 . S
C2522 C2523 1.394 . S
C2522 H2530 0.930 . S
C2523 C2522 1.394 . S
C2523 C2524 1.383 . S
C2523 H2531 0.929 . S
C2524 C2523 1.383 . S
C2524 C2525 1.377 . S
C2525 H2509 0.930 . S
C2525 C2524 1.377 . S
C2525 C2526 1.379 . S
C2526 H2510 0.931 . S
C2526 C2520 1.383 . S
C2526 C2525 1.379 . S
H2527 C2521 0.959 . S
H2528 C2521 0.961 . S
H2529 C2521 0.960 . S
H2530 C2522 0.930 . S
H2531 C2523 0.929 . S
H2532 C2540 0.929 . S
H2533 C2542 0.930 . S
H2534 C2544 0.930 . S
H2535 C2547 0.929 . S
H2536 C2550 0.930 . S
H2537 C2552 0.960 . S
H2538 C2552 0.960 . S
H2539 C2552 0.960 . S
C2540 H2532 0.929 . S
C2540 C2541 1.377 . S
C2540 C2542 1.384 . S
C2541 C2540 1.377 . S
C2541 C2547 1.390 . S
C2542 H2533 0.930 . S
C2542 C2540 1.384 . S
C2542 C2543 1.372 . S
C2543 C2542 1.372 . S
C2543 C2544 1.400 . S
C2543 C2548 1.490 . S
C2544 H2534 0.930 . S
C2544 C2543 1.400 . S
C2544 C2547 1.386 . S
H2545 C2561 0.930 . S
H2546 C2562 0.931 . S
C2547 H2535 0.929 . S
C2547 C2541 1.390 . S
C2547 C2544 1.386 . S
C2548 C2543 1.490 . S
C2548 C2550 1.395 . S
C2548 C2551 1.403 . S
H2549 C2555 0.930 . S
C2550 H2536 0.930 . S
C2550 C2548 1.395 . S
C2550 C2553 1.403 . S
C2551 C2548 1.403 . S
C2551 C2552 1.524 . S
C2551 C2555 1.400 . S
C2552 H2537 0.960 . S
C2552 H2538 0.960 . S
C2552 H2539 0.960 . S
C2552 C2551 1.524 . S
C2553 C2550 1.403 . S
C2553 C2554 1.392 . S
C2553 C2557 1.495 . S
C2554 C2553 1.392 . S
C2554 C2555 1.385 . S
C2554 C2556 1.478 . S
C2555 H2549 0.930 . S
C2555 C2551 1.400 . S
C2555 C2554 1.385 . S
C2556 C2554 1.478 . S
C2556 C2558 1.381 . S
C2556 C2562 1.383 . S
C2557 C2553 1.495 . S
C2557 H2563 0.959 . S
C2557 H2564 0.961 . S
C2557 H2565 0.960 . S
C2558 C2556 1.381 . S
C2558 C2559 1.394 . S
C2558 H2566 0.930 . S
C2559 C2558 1.394 . S
C2559 C2560 1.383 . S
C2559 H2567 0.929 . S
C2560 C2559 1.383 . S
C2560 C2561 1.377 . S
C2561 H2545 0.930 . S
C2561 C2560 1.377 . S
C2561 C2562 1.379 . S
C2562 H2546 0.931 . S
C2562 C2556 1.383 . S
C2562 C2561 1.379 . S
H2563 C2557 0.959 . S
H2564 C2557 0.961 . S
H2565 C2557 0.960 . S
H2566 C2558 0.930 . S
H2567 C2559 0.929 . S
H2568 C2576 0.929 . S
H2569 C2578 0.930 . S
H2570 C2580 0.930 . S
H2571 C2583 0.929 . S
H2572 C2586 0.930 . S
H2573 C2588 0.960 . S
H2574 C2588 0.960 . S
H2575 C2588 0.960 . S
C2576 H2568 0.929 . S
C2576 C2577 1.377 . S
C2576 C2578 1.384 . S
C2577 C2576 1.377 . S
C2577 C2583 1.390 . S
C2578 H2569 0.930 . S
C2578 C2576 1.384 . S
C2578 C2579 1.372 . S
C2579 C2578 1.372 . S
C2579 C2580 1.400 . S
C2579 C2584 1.490 . S
C2580 H2570 0.930 . S
C2580 C2579 1.400 . S
C2580 C2583 1.386 . S
H2581 C2597 0.930 . S
H2582 C2598 0.931 . S
C2583 H2571 0.929 . S
C2583 C2577 1.390 . S
C2583 C2580 1.386 . S
C2584 C2579 1.490 . S
C2584 C2586 1.395 . S
C2584 C2587 1.403 . S
H2585 C2591 0.930 . S
C2586 H2572 0.930 . S
C2586 C2584 1.395 . S
C2586 C2589 1.403 . S
C2587 C2584 1.403 . S
C2587 C2588 1.524 . S
C2587 C2591 1.400 . S
C2588 H2573 0.960 . S
C2588 H2574 0.960 . S
C2588 H2575 0.960 . S
C2588 C2587 1.524 . S
C2589 C2586 1.403 . S
C2589 C2590 1.392 . S
C2589 C2593 1.495 . S
C2590 C2589 1.392 . S
C2590 C2591 1.385 . S
C2590 C2592 1.478 . S
C2591 H2585 0.930 . S
C2591 C2587 1.400 . S
C2591 C2590 1.385 . S
C2592 C2590 1.478 . S
C2592 C2594 1.381 . S
C2592 C2598 1.383 . S
C2593 C2589 1.495 . S
C2593 H2599 0.959 . S
C2593 H2600 0.961 . S
C2593 H2601 0.960 . S
C2594 C2592 1.381 . S
C2594 C2595 1.394 . S
C2594 H2602 0.930 . S
C2595 C2594 1.394 . S
C2595 C2596 1.383 . S
C2595 H2603 0.929 . S
C2596 C2595 1.383 . S
C2596 C2597 1.377 . S
C2597 H2581 0.930 . S
C2597 C2596 1.377 . S
C2597 C2598 1.379 . S
C2598 H2582 0.931 . S
C2598 C2592 1.383 . S
C2598 C2597 1.379 . S
H2599 C2593 0.959 . S
H2600 C2593 0.961 . S
H2601 C2593 0.960 . S
H2602 C2594 0.930 . S
H2603 C2595 0.929 . S
H2604 C2612 0.929 . S
H2605 C2614 0.930 . S
H2606 C2616 0.930 . S
H2607 C2619 0.929 . S
H2608 C2622 0.930 . S
H2609 C2624 0.960 . S
H2610 C2624 0.960 . S
H2611 C2624 0.960 . S
C2612 H2604 0.929 . S
C2612 C2613 1.377 . S
C2612 C2614 1.384 . S
C2613 C2612 1.377 . S
C2613 C2619 1.390 . S
C2614 H2605 0.930 . S
C2614 C2612 1.384 . S
C2614 C2615 1.372 . S
C2615 C2614 1.372 . S
C2615 C2616 1.400 . S
C2615 C2620 1.490 . S
C2616 H2606 0.930 . S
C2616 C2615 1.400 . S
C2616 C2619 1.386 . S
H2617 C2633 0.930 . S
H2618 C2634 0.931 . S
C2619 H2607 0.929 . S
C2619 C2613 1.390 . S
C2619 C2616 1.386 . S
C2620 C2615 1.490 . S
C2620 C2622 1.395 . S
C2620 C2623 1.403 . S
H2621 C2627 0.930 . S
C2622 H2608 0.930 . S
C2622 C2620 1.395 . S
C2622 C2625 1.403 . S
C2623 C2620 1.403 . S
C2623 C2624 1.524 . S
C2623 C2627 1.400 . S
C2624 H2609 0.960 . S
C2624 H2610 0.960 . S
C2624 H2611 0.960 . S
C2624 C2623 1.524 . S
C2625 C2622 1.403 . S
C2625 C2626 1.392 . S
C2625 C2629 1.495 . S
C2626 C2625 1.392 . S
C2626 C2627 1.385 . S
C2626 C2628 1.478 . S
C2627 H2621 0.930 . S
C2627 C2623 1.400 . S
C2627 C2626 1.385 . S
C2628 C2626 1.478 . S
C2628 C2630 1.381 . S
C2628 C2634 1.383 . S
C2629 C2625 1.495 . S
C2629 H2635 0.959 . S
C2629 H2636 0.961 . S
C2629 H2637 0.960 . S
C2630 C2628 1.381 . S
C2630 C2631 1.394 . S
C2630 H2638 0.930 . S
C2631 C2630 1.394 . S
C2631 C2632 1.383 . S
C2631 H2639 0.929 . S
C2632 C2631 1.383 . S
C2632 C2633 1.377 . S
C2633 H2617 0.930 . S
C2633 C2632 1.377 . S
C2633 C2634 1.379 . S
C2634 H2618 0.931 . S
C2634 C2628 1.383 . S
C2634 C2633 1.379 . S
H2635 C2629 0.959 . S
H2636 C2629 0.961 . S
H2637 C2629 0.960 . S
H2638 C2630 0.930 . S
H2639 C2631 0.929 . S
H2640 C2648 0.929 . S
H2641 C2650 0.930 . S
H2642 C2652 0.930 . S
H2643 C2655 0.929 . S
H2644 C2658 0.930 . S
H2645 C2660 0.960 . S
H2646 C2660 0.960 . S
H2647 C2660 0.960 . S
C2648 H2640 0.929 . S
C2648 C2649 1.377 . S
C2648 C2650 1.384 . S
C2649 C2648 1.377 . S
C2649 C2655 1.390 . S
C2650 H2641 0.930 . S
C2650 C2648 1.384 . S
C2650 C2651 1.372 . S
C2651 C2650 1.372 . S
C2651 C2652 1.400 . S
C2651 C2656 1.490 . S
C2652 H2642 0.930 . S
C2652 C2651 1.400 . S
C2652 C2655 1.386 . S
H2653 C2669 0.930 . S
H2654 C2670 0.931 . S
C2655 H2643 0.929 . S
C2655 C2649 1.390 . S
C2655 C2652 1.386 . S
C2656 C2651 1.490 . S
C2656 C2658 1.395 . S
C2656 C2659 1.403 . S
H2657 C2663 0.930 . S
C2658 H2644 0.930 . S
C2658 C2656 1.395 . S
C2658 C2661 1.403 . S
C2659 C2656 1.403 . S
C2659 C2660 1.524 . S
C2659 C2663 1.400 . S
C2660 H2645 0.960 . S
C2660 H2646 0.960 . S
C2660 H2647 0.960 . S
C2660 C2659 1.524 . S
C2661 C2658 1.403 . S
C2661 C2662 1.392 . S
C2661 C2665 1.495 . S
C2662 C2661 1.392 . S
C2662 C2663 1.385 . S
C2662 C2664 1.478 . S
C2663 H2657 0.930 . S
C2663 C2659 1.400 . S
C2663 C2662 1.385 . S
C2664 C2662 1.478 . S
C2664 C2666 1.381 . S
C2664 C2670 1.383 . S
C2665 C2661 1.495 . S
C2665 H2671 0.959 . S
C2665 H2672 0.961 . S
C2665 H2673 0.960 . S
C2666 C2664 1.381 . S
C2666 C2667 1.394 . S
C2666 H2674 0.930 . S
C2667 C2666 1.394 . S
C2667 C2668 1.383 . S
C2667 H2675 0.929 . S
C2668 C2667 1.383 . S
C2668 C2669 1.377 . S
C2669 H2653 0.930 . S
C2669 C2668 1.377 . S
C2669 C2670 1.379 . S
C2670 H2654 0.931 . S
C2670 C2664 1.383 . S
C2670 C2669 1.379 . S
H2671 C2665 0.959 . S
H2672 C2665 0.961 . S
H2673 C2665 0.960 . S
H2674 C2666 0.930 . S
H2675 C2667 0.929 . S
H2676 C2684 0.929 . S
H2677 C2686 0.930 . S
H2678 C2688 0.930 . S
H2679 C2691 0.929 1_655 S
H2680 C2694 0.930 . S
H2681 C2696 0.960 . S
H2682 C2696 0.960 . S
H2683 C2696 0.960 . S
C2684 H2676 0.929 . S
C2684 C2685 1.377 . S
C2684 C2686 1.384 . S
C2685 C2684 1.377 . S
C2685 C2691 1.390 . S
C2686 H2677 0.930 . S
C2686 C2684 1.384 . S
C2686 C2687 1.372 . S
C2687 C2686 1.372 . S
C2687 C2688 1.400 . S
C2687 C2692 1.490 . S
C2688 H2678 0.930 . S
C2688 C2687 1.400 . S
C2688 C2691 1.386 . S
H2689 C2705 0.930 . S
H2690 C2706 0.931 . S
C2691 H2679 0.929 1_455 S
C2691 C2685 1.390 . S
C2691 C2688 1.386 . S
C2692 C2687 1.490 . S
C2692 C2694 1.395 . S
C2692 C2695 1.403 . S
H2693 C2699 0.930 . S
C2694 H2680 0.930 . S
C2694 C2692 1.395 . S
C2694 C2697 1.403 . S
C2695 C2692 1.403 . S
C2695 C2696 1.524 . S
C2695 C2699 1.400 . S
C2696 H2681 0.960 . S
C2696 H2682 0.960 . S
C2696 H2683 0.960 . S
C2696 C2695 1.524 . S
C2697 C2694 1.403 . S
C2697 C2698 1.392 . S
C2697 C2701 1.495 . S
C2698 C2697 1.392 . S
C2698 C2699 1.385 . S
C2698 C2700 1.478 . S
C2699 H2693 0.930 . S
C2699 C2695 1.400 . S
C2699 C2698 1.385 . S
C2700 C2698 1.478 . S
C2700 C2702 1.381 . S
C2700 C2706 1.383 . S
C2701 C2697 1.495 . S
C2701 H2707 0.959 . S
C2701 H2708 0.961 . S
C2701 H2709 0.960 . S
C2702 C2700 1.381 . S
C2702 C2703 1.394 . S
C2702 H2710 0.930 . S
C2703 C2702 1.394 . S
C2703 C2704 1.383 . S
C2703 H2711 0.929 . S
C2704 C2703 1.383 . S
C2704 C2705 1.377 . S
C2705 H2689 0.930 . S
C2705 C2704 1.377 . S
C2705 C2706 1.379 . S
C2706 H2690 0.931 . S
C2706 C2700 1.383 . S
C2706 C2705 1.379 . S
H2707 C2701 0.959 . S
H2708 C2701 0.961 . S
H2709 C2701 0.960 . S
H2710 C2702 0.930 . S
H2711 C2703 0.929 . S
H2712 C2720 0.929 . S
H2713 C2722 0.930 . S
H2714 C2724 0.930 . S
H2715 C2727 0.929 . S
H2716 C2730 0.930 . S
H2717 C2732 0.960 . S
H2718 C2732 0.960 . S
H2719 C2732 0.960 . S
C2720 H2712 0.929 . S
C2720 C2721 1.377 . S
C2720 C2722 1.384 . S
C2721 C2720 1.377 . S
C2721 C2727 1.390 . S
C2722 H2713 0.930 . S
C2722 C2720 1.384 . S
C2722 C2723 1.372 . S
C2723 C2722 1.372 . S
C2723 C2724 1.400 . S
C2723 C2728 1.490 . S
C2724 H2714 0.930 . S
C2724 C2723 1.400 . S
C2724 C2727 1.386 . S
H2725 C2741 0.930 . S
H2726 C2742 0.931 . S
C2727 H2715 0.929 . S
C2727 C2721 1.390 . S
C2727 C2724 1.386 . S
C2728 C2723 1.490 . S
C2728 C2730 1.395 . S
C2728 C2731 1.403 . S
H2729 C2735 0.930 . S
C2730 H2716 0.930 . S
C2730 C2728 1.395 . S
C2730 C2733 1.403 . S
C2731 C2728 1.403 . S
C2731 C2732 1.524 . S
C2731 C2735 1.400 . S
C2732 H2717 0.960 . S
C2732 H2718 0.960 . S
C2732 H2719 0.960 . S
C2732 C2731 1.524 . S
C2733 C2730 1.403 . S
C2733 C2734 1.392 . S
C2733 C2737 1.495 . S
C2734 C2733 1.392 . S
C2734 C2735 1.385 . S
C2734 C2736 1.478 . S
C2735 H2729 0.930 . S
C2735 C2731 1.400 . S
C2735 C2734 1.385 . S
C2736 C2734 1.478 . S
C2736 C2738 1.381 . S
C2736 C2742 1.383 . S
C2737 C2733 1.495 . S
C2737 H2743 0.959 . S
C2737 H2744 0.961 . S
C2737 H2745 0.960 . S
C2738 C2736 1.381 . S
C2738 C2739 1.394 . S
C2738 H2746 0.930 . S
C2739 C2738 1.394 . S
C2739 C2740 1.383 . S
C2739 H2747 0.929 . S
C2740 C2739 1.383 . S
C2740 C2741 1.377 . S
C2741 H2725 0.930 . S
C2741 C2740 1.377 . S
C2741 C2742 1.379 . S
C2742 H2726 0.931 . S
C2742 C2736 1.383 . S
C2742 C2741 1.379 . S
H2743 C2737 0.959 . S
H2744 C2737 0.961 . S
H2745 C2737 0.960 . S
H2746 C2738 0.930 . S
H2747 C2739 0.929 . S
H2748 C2756 0.929 . S
H2749 C2758 0.930 . S
H2750 C2760 0.930 . S
H2751 C2763 0.929 . S
H2752 C2766 0.930 . S
H2753 C2768 0.960 . S
H2754 C2768 0.960 . S
H2755 C2768 0.960 . S
C2756 H2748 0.929 . S
C2756 C2757 1.377 . S
C2756 C2758 1.384 . S
C2757 C2756 1.377 . S
C2757 C2763 1.390 . S
C2758 H2749 0.930 . S
C2758 C2756 1.384 . S
C2758 C2759 1.372 . S
C2759 C2758 1.372 . S
C2759 C2760 1.400 . S
C2759 C2764 1.490 . S
C2760 H2750 0.930 . S
C2760 C2759 1.400 . S
C2760 C2763 1.386 . S
H2761 C2777 0.930 . S
H2762 C2778 0.931 . S
C2763 H2751 0.929 . S
C2763 C2757 1.390 . S
C2763 C2760 1.386 . S
C2764 C2759 1.490 . S
C2764 C2766 1.395 . S
C2764 C2767 1.403 . S
H2765 C2771 0.930 . S
C2766 H2752 0.930 . S
C2766 C2764 1.395 . S
C2766 C2769 1.403 . S
C2767 C2764 1.403 . S
C2767 C2768 1.524 . S
C2767 C2771 1.400 . S
C2768 H2753 0.960 . S
C2768 H2754 0.960 . S
C2768 H2755 0.960 . S
C2768 C2767 1.524 . S
C2769 C2766 1.403 . S
C2769 C2770 1.392 . S
C2769 C2773 1.495 . S
C2770 C2769 1.392 . S
C2770 C2771 1.385 . S
C2770 C2772 1.478 . S
C2771 H2765 0.930 . S
C2771 C2767 1.400 . S
C2771 C2770 1.385 . S
C2772 C2770 1.478 . S
C2772 C2774 1.381 . S
C2772 C2778 1.383 . S
C2773 C2769 1.495 . S
C2773 H2779 0.959 . S
C2773 H2780 0.961 . S
C2773 H2781 0.960 . S
C2774 C2772 1.381 . S
C2774 C2775 1.394 . S
C2774 H2782 0.930 . S
C2775 C2774 1.394 . S
C2775 C2776 1.383 . S
C2775 H2783 0.929 . S
C2776 C2775 1.383 . S
C2776 C2777 1.377 . S
C2777 H2761 0.930 . S
C2777 C2776 1.377 . S
C2777 C2778 1.379 . S
C2778 H2762 0.931 . S
C2778 C2772 1.383 . S
C2778 C2777 1.379 . S
H2779 C2773 0.959 . S
H2780 C2773 0.961 . S
H2781 C2773 0.960 . S
H2782 C2774 0.930 . S
H2783 C2775 0.929 . S
H2784 C2792 0.929 . S
H2785 C2794 0.930 . S
H2786 C2796 0.930 . S
H2787 C2799 0.929 . S
H2788 C2802 0.930 . S
H2789 C2804 0.960 1_556 S
H2790 C2804 0.960 . S
H2791 C2804 0.960 . S
C2792 H2784 0.929 . S
C2792 C2793 1.377 . S
C2792 C2794 1.384 . S
C2793 C2792 1.377 . S
C2793 C2799 1.390 . S
C2794 H2785 0.930 . S
C2794 C2792 1.384 . S
C2794 C2795 1.372 . S
C2795 C2794 1.372 . S
C2795 C2796 1.400 . S
C2795 C2800 1.490 . S
C2796 H2786 0.930 . S
C2796 C2795 1.400 . S
C2796 C2799 1.386 . S
H2797 C2813 0.930 . S
H2798 C2814 0.931 . S
C2799 H2787 0.929 . S
C2799 C2793 1.390 . S
C2799 C2796 1.386 . S
C2800 C2795 1.490 . S
C2800 C2802 1.395 . S
C2800 C2803 1.403 . S
H2801 C2807 0.930 . S
C2802 H2788 0.930 . S
C2802 C2800 1.395 . S
C2802 C2805 1.403 1_554 S
C2803 C2800 1.403 . S
C2803 C2804 1.524 . S
C2803 C2807 1.400 1_554 S
C2804 H2789 0.960 1_554 S
C2804 H2790 0.960 . S
C2804 H2791 0.960 . S
C2804 C2803 1.524 . S
C2805 C2802 1.403 1_556 S
C2805 C2806 1.392 . S
C2805 C2809 1.495 . S
C2806 C2805 1.392 . S
C2806 C2807 1.385 . S
C2806 C2808 1.478 . S
C2807 H2801 0.930 . S
C2807 C2803 1.400 1_556 S
C2807 C2806 1.385 . S
C2808 C2806 1.478 . S
C2808 C2810 1.381 . S
C2808 C2814 1.383 . S
C2809 C2805 1.495 . S
C2809 H2815 0.959 1_556 S
C2809 H2816 0.961 . S
C2809 H2817 0.960 . S
C2810 C2808 1.381 . S
C2810 C2811 1.394 . S
C2810 H2818 0.930 . S
C2811 C2810 1.394 . S
C2811 C2812 1.383 . S
C2811 H2819 0.929 . S
C2812 C2811 1.383 . S
C2812 C2813 1.377 . S
C2813 H2797 0.930 . S
C2813 C2812 1.377 . S
C2813 C2814 1.379 . S
C2814 H2798 0.931 . S
C2814 C2808 1.383 . S
C2814 C2813 1.379 . S
H2815 C2809 0.959 1_554 S
H2816 C2809 0.961 . S
H2817 C2809 0.960 . S
H2818 C2810 0.930 . S
H2819 C2811 0.929 . S
H2820 C2828 0.929 1_545 S
H2821 C2830 0.980 . S
H2822 C2832 0.930 . S
H2823 C2835 0.929 . S
H2824 C2838 0.930 . S
H2825 C2840 0.960 . S
H2826 C2840 0.960 . S
H2827 C2840 0.960 . S
C2828 H2820 0.929 1_565 S
C2828 C2829 1.377 . S
C2828 C2830 1.368 1_565 S
C2829 C2828 1.377 . S
C2829 C2835 1.390 . S
C2830 H2821 0.980 . S
C2830 C2828 1.368 1_545 S
C2830 C2831 1.340 1_545 S
C2831 C2830 1.340 1_565 S
C2831 C2832 1.400 . S
C2831 C2836 1.490 . S
C2832 H2822 0.930 . S
C2832 C2831 1.400 . S
C2832 C2835 1.386 . S
H2833 C2849 0.919 1_565 S
H2834 C2850 0.931 1_565 S
C2835 H2823 0.929 . S
C2835 C2829 1.390 . S
C2835 C2832 1.386 . S
C2836 C2831 1.490 . S
C2836 C2838 1.395 1_565 S
C2836 C2839 1.403 . S
H2837 C2843 0.930 . S
C2838 H2824 0.930 . S
C2838 C2836 1.395 1_545 S
C2838 C2841 1.403 . S
C2839 C2836 1.403 . S
C2839 C2840 1.524 . S
C2839 C2843 1.400 . S
C2840 H2825 0.960 . S
C2840 H2826 0.960 . S
C2840 H2827 0.960 . S
C2840 C2839 1.524 . S
C2841 C2838 1.403 . S
C2841 C2842 1.392 . S
C2841 C2845 1.495 . S
C2842 C2841 1.392 . S
C2842 C2843 1.385 1_545 S
C2842 C2844 1.478 . S
C2843 H2837 0.930 . S
C2843 C2839 1.400 . S
C2843 C2842 1.385 1_565 S
C2844 C2842 1.478 . S
C2844 C2846 1.381 . S
C2844 C2850 1.383 . S
C2845 C2841 1.495 . S
C2845 H2851 0.959 . S
C2845 H2852 0.961 . S
C2845 H2853 0.960 . S
C2846 C2844 1.381 . S
C2846 C2847 1.394 . S
C2846 H2854 0.930 . S
C2847 C2846 1.394 . S
C2847 C2848 1.383 . S
C2847 H2855 0.929 . S
C2848 C2847 1.383 . S
C2848 C2849 1.377 . S
C2849 H2833 0.919 1_545 S
C2849 C2848 1.377 . S
C2849 C2850 1.379 . S
C2850 H2834 0.931 1_545 S
C2850 C2844 1.383 . S
C2850 C2849 1.379 . S
H2851 C2845 0.959 . S
H2852 C2845 0.961 . S
H2853 C2845 0.960 . S
H2854 C2846 0.930 . S
H2855 C2847 0.929 . S
H2856 C2864 0.929 . S
H2857 C2866 0.930 . S
H2858 C2868 0.930 . S
H2859 C2871 0.929 . S
H2860 C2874 0.930 . S
H2861 C2876 0.960 . S
H2862 C2876 0.960 . S
H2863 C2876 0.960 . S
C2864 H2856 0.929 . S
C2864 C2865 1.377 . S
C2864 C2866 1.384 . S
C2865 C2864 1.377 . S
C2865 C2871 1.390 . S
C2866 H2857 0.930 . S
C2866 C2864 1.384 . S
C2866 C2867 1.372 . S
C2867 C2866 1.372 . S
C2867 C2868 1.400 . S
C2867 C2872 1.490 . S
C2868 H2858 0.930 . S
C2868 C2867 1.400 . S
C2868 C2871 1.386 . S
H2869 C2885 0.930 . S
H2870 C2886 0.931 . S
C2871 H2859 0.929 . S
C2871 C2865 1.390 . S
C2871 C2868 1.386 . S
C2872 C2867 1.490 . S
C2872 C2874 1.395 . S
C2872 C2875 1.403 . S
H2873 C2879 0.930 . S
C2874 H2860 0.930 . S
C2874 C2872 1.395 . S
C2874 C2877 1.403 . S
C2875 C2872 1.403 . S
C2875 C2876 1.524 . S
C2875 C2879 1.400 . S
C2876 H2861 0.960 . S
C2876 H2862 0.960 . S
C2876 H2863 0.960 . S
C2876 C2875 1.524 . S
C2877 C2874 1.403 . S
C2877 C2878 1.392 . S
C2877 C2881 1.495 . S
C2878 C2877 1.392 . S
C2878 C2879 1.385 . S
C2878 C2880 1.478 . S
C2879 H2873 0.930 . S
C2879 C2875 1.400 . S
C2879 C2878 1.385 . S
C2880 C2878 1.478 . S
C2880 C2882 1.381 . S
C2880 C2886 1.383 . S
C2881 C2877 1.495 . S
C2881 H2887 0.959 . S
C2881 H2888 0.961 . S
C2881 H2889 0.960 . S
C2882 C2880 1.381 . S
C2882 C2883 1.394 . S
C2882 H2890 0.930 . S
C2883 C2882 1.394 . S
C2883 C2884 1.383 . S
C2883 H2891 0.929 . S
C2884 C2883 1.383 . S
C2884 C2885 1.377 . S
C2885 H2869 0.930 . S
C2885 C2884 1.377 . S
C2885 C2886 1.379 . S
C2886 H2870 0.931 . S
C2886 C2880 1.383 . S
C2886 C2885 1.379 . S
H2887 C2881 0.959 . S
H2888 C2881 0.961 . S
H2889 C2881 0.960 . S
H2890 C2882 0.930 . S
H2891 C2883 0.929 . S
H2892 C2900 0.929 . S
H2893 C2902 0.930 . S
H2894 C2904 0.930 . S
H2895 C2907 0.929 1_545 S
H2896 C2910 0.930 . S
H2897 C2912 0.960 . S
H2898 C2912 0.960 . S
H2899 C2912 0.960 . S
C2900 H2892 0.929 . S
C2900 C2901 1.377 . S
C2900 C2902 1.384 . S
C2901 C2900 1.377 . S
C2901 C2907 1.390 . S
C2902 H2893 0.930 . S
C2902 C2900 1.384 . S
C2902 C2903 1.372 . S
C2903 C2902 1.372 . S
C2903 C2904 1.400 1_565 S
C2903 C2908 1.490 . S
C2904 H2894 0.930 . S
C2904 C2903 1.400 1_545 S
C2904 C2907 1.386 1_545 S
H2905 C2921 0.930 . S
H2906 C2922 0.931 . S
C2907 H2895 0.929 1_565 S
C2907 C2901 1.390 . S
C2907 C2904 1.386 1_565 S
C2908 C2903 1.490 . S
C2908 C2910 1.395 . S
C2908 C2911 1.403 1_565 S
H2909 C2915 0.930 . S
C2910 H2896 0.930 . S
C2910 C2908 1.395 . S
C2910 C2913 1.403 . S
C2911 C2908 1.403 1_545 S
C2911 C2912 1.524 . S
C2911 C2915 1.400 . S
C2912 H2897 0.960 . S
C2912 H2898 0.960 . S
C2912 H2899 0.960 . S
C2912 C2911 1.524 . S
C2913 C2910 1.403 . S
C2913 C2914 1.392 1_565 S
C2913 C2917 1.495 . S
C2914 C2913 1.392 1_545 S
C2914 C2915 1.385 . S
C2914 C2916 1.478 . S
C2915 H2909 0.930 . S
C2915 C2911 1.400 . S
C2915 C2914 1.385 . S
C2916 C2914 1.478 . S
C2916 C2918 1.381 1_545 S
C2916 C2922 1.383 . S
C2917 C2913 1.495 . S
C2917 H2923 0.959 . S
C2917 H2924 0.961 . S
C2917 H2925 0.960 . S
C2918 C2916 1.381 1_565 S
C2918 C2919 1.394 1_565 S
C2918 H2926 0.930 . S
C2919 C2918 1.394 1_545 S
C2919 C2920 1.383 . S
C2919 H2927 0.929 1_545 S
C2920 C2919 1.383 . S
C2920 C2921 1.377 . S
C2921 H2905 0.930 . S
C2921 C2920 1.377 . S
C2921 C2922 1.379 . S
C2922 H2906 0.931 . S
C2922 C2916 1.383 . S
C2922 C2921 1.379 . S
H2923 C2917 0.959 . S
H2924 C2917 0.961 . S
H2925 C2917 0.960 . S
H2926 C2918 0.930 . S
H2927 C2919 0.929 1_565 S
H2928 C2936 0.929 . S
H2929 C2938 0.930 . S
H2930 C2940 0.930 . S
H2931 C2943 0.929 . S
H2932 C2946 0.930 . S
H2933 C2948 0.960 . S
H2934 C2948 0.960 . S
H2935 C2948 0.960 . S
C2936 H2928 0.929 . S
C2936 C2937 1.377 . S
C2936 C2938 1.384 . S
C2937 C2936 1.377 . S
C2937 C2943 1.390 . S
C2938 H2929 0.930 . S
C2938 C2936 1.384 . S
C2938 C2939 1.372 . S
C2939 C2938 1.372 . S
C2939 C2940 1.400 . S
C2939 C2944 1.490 . S
C2940 H2930 0.930 . S
C2940 C2939 1.400 . S
C2940 C2943 1.386 . S
H2941 C2957 0.930 . S
H2942 C2958 0.931 . S
C2943 H2931 0.929 . S
C2943 C2937 1.390 . S
C2943 C2940 1.386 . S
C2944 C2939 1.490 . S
C2944 C2946 1.395 . S
C2944 C2947 1.403 . S
H2945 C2951 0.930 . S
C2946 H2932 0.930 . S
C2946 C2944 1.395 . S
C2946 C2949 1.403 1_554 S
C2947 C2944 1.403 . S
C2947 C2948 1.524 . S
C2947 C2951 1.400 1_554 S
C2948 H2933 0.960 . S
C2948 H2934 0.960 . S
C2948 H2935 0.960 . S
C2948 C2947 1.524 . S
C2949 C2946 1.403 1_556 S
C2949 C2950 1.392 . S
C2949 C2953 1.495 . S
C2950 C2949 1.392 . S
C2950 C2951 1.385 . S
C2950 C2952 1.478 . S
C2951 H2945 0.930 . S
C2951 C2947 1.400 1_556 S
C2951 C2950 1.385 . S
C2952 C2950 1.478 . S
C2952 C2954 1.381 . S
C2952 C2958 1.383 . S
C2953 C2949 1.495 . S
C2953 H2959 0.959 . S
C2953 H2960 0.961 . S
C2953 H2961 0.960 . S
C2954 C2952 1.381 . S
C2954 C2955 1.394 . S
C2954 H2962 0.930 . S
C2955 C2954 1.394 . S
C2955 C2956 1.383 . S
C2955 H2963 0.929 . S
C2956 C2955 1.383 . S
C2956 C2957 1.377 . S
C2957 H2941 0.930 . S
C2957 C2956 1.377 . S
C2957 C2958 1.379 . S
C2958 H2942 0.931 . S
C2958 C2952 1.383 . S
C2958 C2957 1.379 . S
H2959 C2953 0.959 . S
H2960 C2953 0.961 . S
H2961 C2953 0.960 . S
H2962 C2954 0.930 . S
H2963 C2955 0.929 . S
H2964 C2972 0.929 1_565 S
H2965 C2974 0.930 . S
H2966 C2976 0.930 . S
H2967 C2979 0.929 . S
H2968 C2982 0.930 . S
H2969 C2984 0.960 . S
H2970 C2984 0.960 . S
H2971 C2984 0.960 . S
C2972 H2964 0.929 1_545 S
C2972 C2973 1.377 . S
C2972 C2974 1.384 1_545 S
C2973 C2972 1.377 . S
C2973 C2979 1.390 . S
C2974 H2965 0.930 . S
C2974 C2972 1.384 1_565 S
C2974 C2975 1.372 1_565 S
C2975 C2974 1.372 1_545 S
C2975 C2976 1.400 . S
C2975 C2980 1.490 . S
C2976 H2966 0.930 . S
C2976 C2975 1.400 . S
C2976 C2979 1.386 . S
H2977 C2993 0.904 1_545 S
H2978 C2994 0.931 1_545 S
C2979 H2967 0.929 . S
C2979 C2973 1.390 . S
C2979 C2976 1.386 . S
C2980 C2975 1.490 . S
C2980 C2982 1.395 1_545 S
C2980 C2983 1.403 . S
H2981 C2987 0.930 . S
C2982 H2968 0.930 . S
C2982 C2980 1.395 1_565 S
C2982 C2985 1.403 . S
C2983 C2980 1.403 . S
C2983 C2984 1.524 . S
C2983 C2987 1.400 . S
C2984 H2969 0.960 . S
C2984 H2970 0.960 . S
C2984 H2971 0.960 . S
C2984 C2983 1.524 . S
C2985 C2982 1.403 . S
C2985 C2986 1.392 . S
C2985 C2989 1.495 . S
C2986 C2985 1.392 . S
C2986 C2987 1.385 1_565 S
C2986 C2988 1.478 . S
C2987 H2981 0.930 . S
C2987 C2983 1.400 . S
C2987 C2986 1.385 1_545 S
C2988 C2986 1.478 . S
C2988 C2990 1.381 . S
C2988 C2994 1.383 . S
C2989 C2985 1.495 . S
C2989 H2995 0.959 . S
C2989 H2996 0.961 . S
C2989 H2997 0.960 . S
C2990 C2988 1.381 . S
C2990 C2991 1.394 . S
C2990 H2998 0.930 . S
C2991 C2990 1.394 . S
C2991 C2992 1.383 . S
C2991 H2999 0.929 . S
C2992 C2991 1.383 . S
C2992 C2993 1.377 . S
C2993 H2977 0.904 1_565 S
C2993 C2992 1.377 . S
C2993 C2994 1.379 . S
C2994 H2978 0.931 1_565 S
C2994 C2988 1.383 . S
C2994 C2993 1.379 . S
H2995 C2989 0.959 . S
H2996 C2989 0.961 . S
H2997 C2989 0.960 . S
H2998 C2990 0.930 . S
H2999 C2991 0.929 . S
H3000 C3008 0.929 . S
H3001 C3010 0.930 . S
H3002 C3012 0.930 . S
H3003 C3015 0.929 . S
H3004 C3018 0.930 . S
H3005 C3020 0.960 . S
H3006 C3020 0.960 . S
H3007 C3020 0.960 . S
C3008 H3000 0.929 . S
C3008 C3009 1.377 . S
C3008 C3010 1.384 . S
C3009 C3008 1.377 . S
C3009 C3015 1.390 . S
C3010 H3001 0.930 . S
C3010 C3008 1.384 . S
C3010 C3011 1.372 . S
C3011 C3010 1.372 . S
C3011 C3012 1.400 . S
C3011 C3016 1.490 . S
C3012 H3002 0.930 . S
C3012 C3011 1.400 . S
C3012 C3015 1.386 . S
H3013 C3029 0.930 . S
H3014 C3030 0.931 . S
C3015 H3003 0.929 . S
C3015 C3009 1.390 . S
C3015 C3012 1.386 . S
C3016 C3011 1.490 . S
C3016 C3018 1.395 . S
C3016 C3019 1.403 . S
H3017 C3023 0.930 . S
C3018 H3004 0.930 . S
C3018 C3016 1.395 . S
C3018 C3021 1.403 . S
C3019 C3016 1.403 . S
C3019 C3020 1.524 . S
C3019 C3023 1.400 . S
C3020 H3005 0.960 . S
C3020 H3006 0.960 . S
C3020 H3007 0.960 . S
C3020 C3019 1.524 . S
C3021 C3018 1.403 . S
C3021 C3022 1.392 . S
C3021 C3025 1.495 . S
C3022 C3021 1.392 . S
C3022 C3023 1.385 . S
C3022 C3024 1.478 . S
C3023 H3017 0.930 . S
C3023 C3019 1.400 . S
C3023 C3022 1.385 . S
C3024 C3022 1.478 . S
C3024 C3026 1.381 . S
C3024 C3030 1.383 . S
C3025 C3021 1.495 . S
C3025 H3031 0.959 . S
C3025 H3032 0.961 . S
C3025 H3033 0.960 . S
C3026 C3024 1.381 . S
C3026 C3027 1.394 . S
C3026 H3034 0.930 . S
C3027 C3026 1.394 . S
C3027 C3028 1.383 . S
C3027 H3035 0.929 . S
C3028 C3027 1.383 . S
C3028 C3029 1.377 . S
C3029 H3013 0.930 . S
C3029 C3028 1.377 . S
C3029 C3030 1.379 . S
C3030 H3014 0.931 . S
C3030 C3024 1.383 . S
C3030 C3029 1.379 . S
H3031 C3025 0.959 . S
H3032 C3025 0.961 . S
H3033 C3025 0.960 . S
H3034 C3026 0.930 . S
H3035 C3027 0.929 . S
H3036 C3044 0.929 . S
H3037 C3046 0.930 1_545 S
H3038 C3048 0.930 . S
H3039 C3051 0.929 . S
H3040 C3054 0.930 . S
H3041 C3056 0.960 . S
H3042 C3056 0.960 . S
H3043 C3056 0.960 . S
C3044 H3036 0.929 . S
C3044 C3045 1.377 . S
C3044 C3046 1.384 . S
C3045 C3044 1.377 . S
C3045 C3051 1.390 . S
C3046 H3037 0.930 1_565 S
C3046 C3044 1.384 . S
C3046 C3047 1.372 . S
C3047 C3046 1.372 . S
C3047 C3048 1.400 . S
C3047 C3052 1.490 . S
C3048 H3038 0.930 . S
C3048 C3047 1.400 . S
C3048 C3051 1.386 . S
H3049 C3065 0.930 . S
H3050 C3066 0.931 1_565 S
C3051 H3039 0.929 . S
C3051 C3045 1.390 . S
C3051 C3048 1.386 . S
C3052 C3047 1.490 . S
C3052 C3054 1.395 . S
C3052 C3055 1.403 1_565 S
H3053 C3059 0.930 . S
C3054 H3040 0.930 . S
C3054 C3052 1.395 . S
C3054 C3057 1.403 . S
C3055 C3052 1.403 1_545 S
C3055 C3056 1.524 . S
C3055 C3059 1.400 . S
C3056 H3041 0.960 . S
C3056 H3042 0.960 . S
C3056 H3043 0.960 . S
C3056 C3055 1.524 . S
C3057 C3054 1.403 . S
C3057 C3058 1.392 1_565 S
C3057 C3061 1.495 . S
C3058 C3057 1.392 1_545 S
C3058 C3059 1.385 . S
C3058 C3060 1.478 . S
C3059 H3053 0.930 . S
C3059 C3055 1.400 . S
C3059 C3058 1.385 . S
C3060 C3058 1.478 . S
C3060 C3062 1.381 . S
C3060 C3066 1.383 . S
C3061 C3057 1.495 . S
C3061 H3067 0.959 . S
C3061 H3068 0.961 . S
C3061 H3069 0.960 . S
C3062 C3060 1.381 . S
C3062 C3063 1.394 . S
C3062 H3070 0.930 . S
C3063 C3062 1.394 . S
C3063 C3064 1.383 . S
C3063 H3071 0.929 . S
C3064 C3063 1.383 . S
C3064 C3065 1.377 . S
C3065 H3049 0.930 . S
C3065 C3064 1.377 . S
C3065 C3066 1.379 . S
C3066 H3050 0.931 1_545 S
C3066 C3060 1.383 . S
C3066 C3065 1.379 . S
H3067 C3061 0.959 . S
H3068 C3061 0.961 . S
H3069 C3061 0.960 . S
H3070 C3062 0.930 . S
H3071 C3063 0.929 . S
H3072 C3080 0.929 . S
H3073 C3082 0.930 . S
H3074 C3084 0.930 . S
H3075 C3087 0.929 . S
H3076 C3090 0.930 . S
H3077 C3092 0.960 . S
H3078 C3092 0.960 . S
H3079 C3092 0.960 . S
C3080 H3072 0.929 . S
C3080 C3081 1.377 . S
C3080 C3082 1.384 . S
C3081 C3080 1.377 . S
C3081 C3087 1.390 . S
C3082 H3073 0.930 . S
C3082 C3080 1.384 . S
C3082 C3083 1.372 . S
C3083 C3082 1.372 . S
C3083 C3084 1.400 . S
C3083 C3088 1.490 . S
C3084 H3074 0.930 . S
C3084 C3083 1.400 . S
C3084 C3087 1.386 . S
H3085 C3101 0.930 . S
H3086 C3102 0.931 . S
C3087 H3075 0.929 . S
C3087 C3081 1.390 . S
C3087 C3084 1.386 . S
C3088 C3083 1.490 . S
C3088 C3090 1.395 . S
C3088 C3091 1.403 . S
H3089 C3095 0.930 . S
C3090 H3076 0.930 . S
C3090 C3088 1.395 . S
C3090 C3093 1.403 . S
C3091 C3088 1.403 . S
C3091 C3092 1.524 . S
C3091 C3095 1.400 . S
C3092 H3077 0.960 . S
C3092 H3078 0.960 . S
C3092 H3079 0.960 . S
C3092 C3091 1.524 . S
C3093 C3090 1.403 . S
C3093 C3094 1.392 . S
C3093 C3097 1.495 . S
C3094 C3093 1.392 . S
C3094 C3095 1.385 . S
C3094 C3096 1.478 . S
C3095 H3089 0.930 . S
C3095 C3091 1.400 . S
C3095 C3094 1.385 . S
C3096 C3094 1.478 . S
C3096 C3098 1.381 . S
C3096 C3102 1.383 . S
C3097 C3093 1.495 . S
C3097 H3103 0.959 . S
C3097 H3104 0.961 . S
C3097 H3105 0.960 . S
C3098 C3096 1.381 . S
C3098 C3099 1.394 . S
C3098 H3106 0.930 . S
C3099 C3098 1.394 . S
C3099 C3100 1.383 . S
C3099 H3107 0.929 . S
C3100 C3099 1.383 . S
C3100 C3101 1.377 . S
C3101 H3085 0.930 . S
C3101 C3100 1.377 . S
C3101 C3102 1.379 . S
C3102 H3086 0.931 . S
C3102 C3096 1.383 . S
C3102 C3101 1.379 . S
H3103 C3097 0.959 . S
H3104 C3097 0.961 . S
H3105 C3097 0.960 . S
H3106 C3098 0.930 . S
H3107 C3099 0.929 . S
H3108 C3116 0.929 . S
H3109 C3118 0.930 . S
H3110 C3120 0.930 . S
H3111 C3123 0.929 . S
H3112 C3126 0.930 . S
H3113 C3128 0.960 . S
H3114 C3128 0.960 . S
H3115 C3128 0.960 . S
C3116 H3108 0.929 . S
C3116 C3117 1.377 . S
C3116 C3118 1.384 . S
C3117 C3116 1.377 . S
C3117 C3123 1.390 . S
C3118 H3109 0.930 . S
C3118 C3116 1.384 . S
C3118 C3119 1.372 . S
C3119 C3118 1.372 . S
C3119 C3120 1.400 . S
C3119 C3124 1.490 . S
C3120 H3110 0.930 . S
C3120 C3119 1.400 . S
C3120 C3123 1.386 . S
H3121 C3137 0.930 . S
H3122 C3138 0.931 . S
C3123 H3111 0.929 . S
C3123 C3117 1.390 . S
C3123 C3120 1.386 . S
C3124 C3119 1.490 . S
C3124 C3126 1.395 . S
C3124 C3127 1.403 . S
H3125 C3131 0.930 . S
C3126 H3112 0.930 . S
C3126 C3124 1.395 . S
C3126 C3129 1.403 . S
C3127 C3124 1.403 . S
C3127 C3128 1.524 . S
C3127 C3131 1.400 . S
C3128 H3113 0.960 . S
C3128 H3114 0.960 . S
C3128 H3115 0.960 . S
C3128 C3127 1.524 . S
C3129 C3126 1.403 . S
C3129 C3130 1.392 . S
C3129 C3133 1.495 . S
C3130 C3129 1.392 . S
C3130 C3131 1.385 . S
C3130 C3132 1.478 . S
C3131 H3125 0.930 . S
C3131 C3127 1.400 . S
C3131 C3130 1.385 . S
C3132 C3130 1.478 . S
C3132 C3134 1.381 . S
C3132 C3138 1.383 . S
C3133 C3129 1.495 . S
C3133 H3139 0.959 . S
C3133 H3140 0.961 . S
C3133 H3141 0.960 . S
C3134 C3132 1.381 . S
C3134 C3135 1.394 . S
C3134 H3142 0.930 . S
C3135 C3134 1.394 . S
C3135 C3136 1.383 . S
C3135 H3143 0.929 . S
C3136 C3135 1.383 . S
C3136 C3137 1.377 . S
C3137 H3121 0.930 . S
C3137 C3136 1.377 . S
C3137 C3138 1.379 . S
C3138 H3122 0.931 . S
C3138 C3132 1.383 . S
C3138 C3137 1.379 . S
H3139 C3133 0.959 . S
H3140 C3133 0.961 . S
H3141 C3133 0.960 . S
H3142 C3134 0.930 . S
H3143 C3135 0.929 . S
H3144 C3152 0.929 . S
H3145 C3154 0.930 . S
H3146 C3156 0.930 . S
H3147 C3159 0.929 . S
H3148 C3162 0.930 . S
H3149 C3164 0.960 1_556 S
H3150 C3164 0.960 . S
H3151 C3164 0.960 . S
C3152 H3144 0.929 . S
C3152 C3153 1.377 . S
C3152 C3154 1.384 . S
C3153 C3152 1.377 . S
C3153 C3159 1.390 . S
C3154 H3145 0.930 . S
C3154 C3152 1.384 . S
C3154 C3155 1.372 . S
C3155 C3154 1.372 . S
C3155 C3156 1.400 . S
C3155 C3160 1.490 . S
C3156 H3146 0.930 . S
C3156 C3155 1.400 . S
C3156 C3159 1.386 . S
H3157 C3173 0.930 . S
H3158 C3174 0.931 . S
C3159 H3147 0.929 . S
C3159 C3153 1.390 . S
C3159 C3156 1.386 . S
C3160 C3155 1.490 . S
C3160 C3162 1.395 . S
C3160 C3163 1.403 . S
H3161 C3167 0.930 . S
C3162 H3148 0.930 . S
C3162 C3160 1.395 . S
C3162 C3165 1.403 1_554 S
C3163 C3160 1.403 . S
C3163 C3164 1.524 . S
C3163 C3167 1.400 1_554 S
C3164 H3149 0.960 1_554 S
C3164 H3150 0.960 . S
C3164 H3151 0.960 . S
C3164 C3163 1.524 . S
C3165 C3162 1.403 1_556 S
C3165 C3166 1.392 . S
C3165 C3169 1.495 . S
C3166 C3165 1.392 . S
C3166 C3167 1.385 . S
C3166 C3168 1.478 . S
C3167 H3161 0.930 . S
C3167 C3163 1.400 1_556 S
C3167 C3166 1.385 . S
C3168 C3166 1.478 . S
C3168 C3170 1.381 . S
C3168 C3174 1.383 . S
C3169 C3165 1.495 . S
C3169 H3175 0.959 1_556 S
C3169 H3176 0.961 . S
C3169 H3177 0.960 . S
C3170 C3168 1.381 . S
C3170 C3171 1.394 . S
C3170 H3178 0.930 . S
C3171 C3170 1.394 . S
C3171 C3172 1.383 . S
C3171 H3179 0.929 . S
C3172 C3171 1.383 . S
C3172 C3173 1.377 . S
C3173 H3157 0.930 . S
C3173 C3172 1.377 . S
C3173 C3174 1.379 . S
C3174 H3158 0.931 . S
C3174 C3168 1.383 . S
C3174 C3173 1.379 . S
H3175 C3169 0.959 1_554 S
H3176 C3169 0.961 . S
H3177 C3169 0.960 . S
H3178 C3170 0.930 . S
H3179 C3171 0.929 . S
H3180 C3188 0.929 . S
H3181 C3190 0.930 . S
H3182 C3192 0.930 . S
H3183 C3195 0.929 . S
H3184 C3198 0.930 . S
H3185 C3200 0.960 . S
H3186 C3200 0.960 . S
H3187 C3200 0.960 . S
C3188 H3180 0.929 . S
C3188 C3189 1.377 . S
C3188 C3190 1.384 . S
C3189 C3188 1.377 . S
C3189 C3195 1.390 . S
C3190 H3181 0.930 . S
C3190 C3188 1.384 . S
C3190 C3191 1.372 . S
C3191 C3190 1.372 . S
C3191 C3192 1.400 . S
C3191 C3196 1.490 . S
C3192 H3182 0.930 . S
C3192 C3191 1.400 . S
C3192 C3195 1.386 . S
H3193 C3209 0.930 . S
H3194 C3210 0.931 . S
C3195 H3183 0.929 . S
C3195 C3189 1.390 . S
C3195 C3192 1.386 . S
C3196 C3191 1.490 . S
C3196 C3198 1.395 . S
C3196 C3199 1.403 . S
H3197 C3203 0.930 . S
C3198 H3184 0.930 . S
C3198 C3196 1.395 . S
C3198 C3201 1.403 . S
C3199 C3196 1.403 . S
C3199 C3200 1.524 . S
C3199 C3203 1.400 . S
C3200 H3185 0.960 . S
C3200 H3186 0.960 . S
C3200 H3187 0.960 . S
C3200 C3199 1.524 . S
C3201 C3198 1.403 . S
C3201 C3202 1.392 . S
C3201 C3205 1.495 . S
C3202 C3201 1.392 . S
C3202 C3203 1.385 . S
C3202 C3204 1.478 . S
C3203 H3197 0.930 . S
C3203 C3199 1.400 . S
C3203 C3202 1.385 . S
C3204 C3202 1.478 . S
C3204 C3206 1.381 . S
C3204 C3210 1.383 . S
C3205 C3201 1.495 . S
C3205 H3211 0.959 . S
C3205 H3212 0.961 . S
C3205 H3213 0.960 . S
C3206 C3204 1.381 . S
C3206 C3207 1.394 . S
C3206 H3214 0.930 . S
C3207 C3206 1.394 . S
C3207 C3208 1.383 . S
C3207 H3215 0.929 . S
C3208 C3207 1.383 . S
C3208 C3209 1.377 . S
C3209 H3193 0.930 . S
C3209 C3208 1.377 . S
C3209 C3210 1.379 . S
C3210 H3194 0.931 . S
C3210 C3204 1.383 . S
C3210 C3209 1.379 . S
H3211 C3205 0.959 . S
H3212 C3205 0.961 . S
H3213 C3205 0.960 . S
H3214 C3206 0.930 . S
H3215 C3207 0.929 . S
H3216 C3224 0.929 . S
H3217 C3226 0.930 . S
H3218 C3228 0.930 . S
H3219 C3231 0.929 . S
H3220 C3234 0.930 . S
H3221 C3236 0.960 . S
H3222 C3236 0.960 . S
H3223 C3236 0.960 . S
C3224 H3216 0.929 . S
C3224 C3225 1.377 . S
C3224 C3226 1.384 . S
C3225 C3224 1.377 . S
C3225 C3231 1.390 . S
C3226 H3217 0.930 . S
C3226 C3224 1.384 . S
C3226 C3227 1.372 . S
C3227 C3226 1.372 . S
C3227 C3228 1.400 . S
C3227 C3232 1.490 . S
C3228 H3218 0.930 . S
C3228 C3227 1.400 . S
C3228 C3231 1.386 . S
H3229 C3245 0.930 . S
H3230 C3246 0.931 . S
C3231 H3219 0.929 . S
C3231 C3225 1.390 . S
C3231 C3228 1.386 . S
C3232 C3227 1.490 . S
C3232 C3234 1.395 . S
C3232 C3235 1.403 . S
H3233 C3239 0.930 . S
C3234 H3220 0.930 . S
C3234 C3232 1.395 . S
C3234 C3237 1.403 . S
C3235 C3232 1.403 . S
C3235 C3236 1.524 . S
C3235 C3239 1.400 . S
C3236 H3221 0.960 . S
C3236 H3222 0.960 . S
C3236 H3223 0.960 . S
C3236 C3235 1.524 . S
C3237 C3234 1.403 . S
C3237 C3238 1.392 . S
C3237 C3241 1.495 . S
C3238 C3237 1.392 . S
C3238 C3239 1.385 . S
C3238 C3240 1.478 . S
C3239 H3233 0.930 . S
C3239 C3235 1.400 . S
C3239 C3238 1.385 . S
C3240 C3238 1.478 . S
C3240 C3242 1.381 . S
C3240 C3246 1.383 . S
C3241 C3237 1.495 . S
C3241 H3247 0.959 . S
C3241 H3248 0.961 . S
C3241 H3249 0.960 . S
C3242 C3240 1.381 . S
C3242 C3243 1.394 . S
C3242 H3250 0.930 . S
C3243 C3242 1.394 . S
C3243 C3244 1.383 . S
C3243 H3251 0.929 . S
C3244 C3243 1.383 . S
C3244 C3245 1.377 . S
C3245 H3229 0.930 . S
C3245 C3244 1.377 . S
C3245 C3246 1.379 . S
C3246 H3230 0.931 . S
C3246 C3240 1.383 . S
C3246 C3245 1.379 . S
H3247 C3241 0.959 . S
H3248 C3241 0.961 . S
H3249 C3241 0.960 . S
H3250 C3242 0.930 . S
H3251 C3243 0.929 . S
H3252 C3260 0.929 . S
H3253 C3262 0.930 . S
H3254 C3264 0.930 . S
H3255 C3267 0.929 . S
H3256 C3270 0.930 . S
H3257 C3272 0.960 . S
H3258 C3272 0.960 . S
H3259 C3272 0.960 . S
C3260 H3252 0.929 . S
C3260 C3261 1.377 . S
C3260 C3262 1.384 . S
C3261 C3260 1.377 . S
C3261 C3267 1.390 . S
C3262 H3253 0.930 . S
C3262 C3260 1.384 . S
C3262 C3263 1.372 . S
C3263 C3262 1.372 . S
C3263 C3264 1.400 . S
C3263 C3268 1.490 . S
C3264 H3254 0.930 . S
C3264 C3263 1.400 . S
C3264 C3267 1.386 . S
H3265 C3281 0.930 . S
H3266 C3282 0.931 . S
C3267 H3255 0.929 . S
C3267 C3261 1.390 . S
C3267 C3264 1.386 . S
C3268 C3263 1.490 . S
C3268 C3270 1.395 . S
C3268 C3271 1.403 . S
H3269 C3275 0.930 . S
C3270 H3256 0.930 . S
C3270 C3268 1.395 . S
C3270 C3273 1.403 . S
C3271 C3268 1.403 . S
C3271 C3272 1.524 . S
C3271 C3275 1.400 . S
C3272 H3257 0.960 . S
C3272 H3258 0.960 . S
C3272 H3259 0.960 . S
C3272 C3271 1.524 . S
C3273 C3270 1.403 . S
C3273 C3274 1.392 . S
C3273 C3277 1.495 . S
C3274 C3273 1.392 . S
C3274 C3275 1.385 . S
C3274 C3276 1.478 . S
C3275 H3269 0.930 . S
C3275 C3271 1.400 . S
C3275 C3274 1.385 . S
C3276 C3274 1.478 . S
C3276 C3278 1.381 . S
C3276 C3282 1.383 . S
C3277 C3273 1.495 . S
C3277 H3283 0.959 . S
C3277 H3284 0.961 . S
C3277 H3285 0.960 . S
C3278 C3276 1.381 . S
C3278 C3279 1.394 . S
C3278 H3286 0.930 . S
C3279 C3278 1.394 . S
C3279 C3280 1.383 . S
C3279 H3287 0.929 . S
C3280 C3279 1.383 . S
C3280 C3281 1.377 . S
C3281 H3265 0.930 . S
C3281 C3280 1.377 . S
C3281 C3282 1.379 . S
C3282 H3266 0.931 . S
C3282 C3276 1.383 . S
C3282 C3281 1.379 . S
H3283 C3277 0.959 . S
H3284 C3277 0.961 . S
H3285 C3277 0.960 . S
H3286 C3278 0.930 . S
H3287 C3279 0.929 . S
H3288 C3296 0.929 . S
H3289 C3298 0.930 . S
H3290 C3300 0.930 . S
H3291 C3303 0.929 . S
H3292 C3306 0.930 . S
H3293 C3308 0.960 1_554 S
H3294 C3308 0.960 . S
H3295 C3308 0.960 . S
C3296 H3288 0.929 . S
C3296 C3297 1.377 . S
C3296 C3298 1.384 . S
C3297 C3296 1.377 . S
C3297 C3303 1.390 . S
C3298 H3289 0.930 . S
C3298 C3296 1.384 . S
C3298 C3299 1.372 . S
C3299 C3298 1.372 . S
C3299 C3300 1.400 . S
C3299 C3304 1.490 . S
C3300 H3290 0.930 . S
C3300 C3299 1.400 . S
C3300 C3303 1.386 . S
H3301 C3317 0.930 . S
H3302 C3318 0.931 . S
C3303 H3291 0.929 . S
C3303 C3297 1.390 . S
C3303 C3300 1.386 . S
C3304 C3299 1.490 . S
C3304 C3306 1.395 . S
C3304 C3307 1.403 . S
H3305 C3311 0.930 . S
C3306 H3292 0.930 . S
C3306 C3304 1.395 . S
C3306 C3309 1.403 1_556 S
C3307 C3304 1.403 . S
C3307 C3308 1.524 . S
C3307 C3311 1.400 1_556 S
C3308 H3293 0.960 1_556 S
C3308 H3294 0.960 . S
C3308 H3295 0.960 . S
C3308 C3307 1.524 . S
C3309 C3306 1.403 1_554 S
C3309 C3310 1.392 . S
C3309 C3313 1.495 . S
C3310 C3309 1.392 . S
C3310 C3311 1.385 . S
C3310 C3312 1.478 . S
C3311 H3305 0.930 . S
C3311 C3307 1.400 1_554 S
C3311 C3310 1.385 . S
C3312 C3310 1.478 . S
C3312 C3314 1.381 . S
C3312 C3318 1.383 . S
C3313 C3309 1.495 . S
C3313 H3319 0.959 1_554 S
C3313 H3320 0.961 . S
C3313 H3321 0.960 . S
C3314 C3312 1.381 . S
C3314 C3315 1.394 . S
C3314 H3322 0.930 . S
C3315 C3314 1.394 . S
C3315 C3316 1.383 . S
C3315 H3323 0.929 . S
C3316 C3315 1.383 . S
C3316 C3317 1.377 . S
C3317 H3301 0.930 . S
C3317 C3316 1.377 . S
C3317 C3318 1.379 . S
C3318 H3302 0.931 . S
C3318 C3312 1.383 . S
C3318 C3317 1.379 . S
H3319 C3313 0.959 1_556 S
H3320 C3313 0.961 . S
H3321 C3313 0.960 . S
H3322 C3314 0.930 . S
H3323 C3315 0.929 . S
H3324 C3332 0.929 . S
H3325 C3334 0.930 . S
H3326 C3336 0.930 . S
H3327 C3339 0.929 . S
H3328 C3342 0.930 . S
H3329 C3344 0.960 . S
H3330 C3344 0.960 . S
H3331 C3344 0.960 . S
C3332 H3324 0.929 . S
C3332 C3333 1.377 . S
C3332 C3334 1.384 . S
C3333 C3332 1.377 . S
C3333 C3339 1.390 . S
C3334 H3325 0.930 . S
C3334 C3332 1.384 . S
C3334 C3335 1.372 . S
C3335 C3334 1.372 . S
C3335 C3336 1.400 . S
C3335 C3340 1.490 . S
C3336 H3326 0.930 . S
C3336 C3335 1.400 . S
C3336 C3339 1.386 . S
H3337 C3353 0.930 . S
H3338 C3354 0.931 . S
C3339 H3327 0.929 . S
C3339 C3333 1.390 . S
C3339 C3336 1.386 . S
C3340 C3335 1.490 . S
C3340 C3342 1.395 . S
C3340 C3343 1.403 . S
H3341 C3347 0.930 . S
C3342 H3328 0.930 . S
C3342 C3340 1.395 . S
C3342 C3345 1.403 . S
C3343 C3340 1.403 . S
C3343 C3344 1.524 . S
C3343 C3347 1.400 . S
C3344 H3329 0.960 . S
C3344 H3330 0.960 . S
C3344 H3331 0.960 . S
C3344 C3343 1.524 . S
C3345 C3342 1.403 . S
C3345 C3346 1.392 . S
C3345 C3349 1.495 . S
C3346 C3345 1.392 . S
C3346 C3347 1.385 . S
C3346 C3348 1.478 . S
C3347 H3341 0.930 . S
C3347 C3343 1.400 . S
C3347 C3346 1.385 . S
C3348 C3346 1.478 . S
C3348 C3350 1.381 . S
C3348 C3354 1.383 . S
C3349 C3345 1.495 . S
C3349 H3355 0.959 . S
C3349 H3356 0.961 . S
C3349 H3357 0.960 . S
C3350 C3348 1.381 . S
C3350 C3351 1.394 . S
C3350 H3358 0.930 . S
C3351 C3350 1.394 . S
C3351 C3352 1.383 . S
C3351 H3359 0.929 . S
C3352 C3351 1.383 . S
C3352 C3353 1.377 . S
C3353 H3337 0.930 . S
C3353 C3352 1.377 . S
C3353 C3354 1.379 . S
C3354 H3338 0.931 . S
C3354 C3348 1.383 . S
C3354 C3353 1.379 . S
H3355 C3349 0.959 . S
H3356 C3349 0.961 . S
H3357 C3349 0.960 . S
H3358 C3350 0.930 . S
H3359 C3351 0.929 . S
H3360 C3368 0.929 . S
H3361 C3370 0.930 . S
H3362 C3372 0.930 . S
H3363 C3375 0.929 . S
H3364 C3378 0.930 . S
H3365 C3380 0.960 . S
H3366 C3380 0.960 . S
H3367 C3380 0.960 . S
C3368 H3360 0.929 . S
C3368 C3369 1.377 . S
C3368 C3370 1.384 . S
C3369 C3368 1.377 . S
C3369 C3375 1.390 . S
C3370 H3361 0.930 . S
C3370 C3368 1.384 . S
C3370 C3371 1.372 . S
C3371 C3370 1.372 . S
C3371 C3372 1.400 . S
C3371 C3376 1.490 . S
C3372 H3362 0.930 . S
C3372 C3371 1.400 . S
C3372 C3375 1.386 . S
H3373 C3389 0.930 . S
H3374 C3390 0.931 . S
C3375 H3363 0.929 . S
C3375 C3369 1.390 . S
C3375 C3372 1.386 . S
C3376 C3371 1.490 . S
C3376 C3378 1.395 . S
C3376 C3379 1.403 . S
H3377 C3383 0.930 . S
C3378 H3364 0.930 . S
C3378 C3376 1.395 . S
C3378 C3381 1.403 . S
C3379 C3376 1.403 . S
C3379 C3380 1.524 . S
C3379 C3383 1.400 . S
C3380 H3365 0.960 . S
C3380 H3366 0.960 . S
C3380 H3367 0.960 . S
C3380 C3379 1.524 . S
C3381 C3378 1.403 . S
C3381 C3382 1.392 . S
C3381 C3385 1.495 . S
C3382 C3381 1.392 . S
C3382 C3383 1.385 . S
C3382 C3384 1.478 . S
C3383 H3377 0.930 . S
C3383 C3379 1.400 . S
C3383 C3382 1.385 . S
C3384 C3382 1.478 . S
C3384 C3386 1.381 . S
C3384 C3390 1.383 . S
C3385 C3381 1.495 . S
C3385 H3391 0.959 . S
C3385 H3392 0.961 . S
C3385 H3393 0.960 . S
C3386 C3384 1.381 . S
C3386 C3387 1.394 . S
C3386 H3394 0.930 . S
C3387 C3386 1.394 . S
C3387 C3388 1.383 . S
C3387 H3395 0.929 . S
C3388 C3387 1.383 . S
C3388 C3389 1.377 . S
C3389 H3373 0.930 . S
C3389 C3388 1.377 . S
C3389 C3390 1.379 . S
C3390 H3374 0.931 . S
C3390 C3384 1.383 . S
C3390 C3389 1.379 . S
H3391 C3385 0.959 . S
H3392 C3385 0.961 . S
H3393 C3385 0.960 . S
H3394 C3386 0.930 . S
H3395 C3387 0.929 . S
H3396 C3404 0.929 . S
H3397 C3406 0.930 . S
H3398 C3408 0.930 . S
H3399 C3411 0.879 1_545 S
H3400 C3414 0.930 . S
H3401 C3416 0.960 . S
H3402 C3416 0.960 . S
H3403 C3416 0.960 . S
C3404 H3396 0.929 . S
C3404 C3405 1.377 . S
C3404 C3406 1.384 . S
C3405 C3404 1.377 . S
C3405 C3411 1.390 . S
C3406 H3397 0.930 . S
C3406 C3404 1.384 . S
C3406 C3407 1.372 . S
C3407 C3406 1.372 . S
C3407 C3408 1.400 . S
C3407 C3412 1.490 . S
C3408 H3398 0.930 . S
C3408 C3407 1.400 . S
C3408 C3411 1.386 . S
H3409 C3425 0.930 . S
H3410 C3426 0.931 . S
C3411 H3399 0.879 1_565 S
C3411 C3405 1.390 . S
C3411 C3408 1.386 . S
C3412 C3407 1.490 . S
C3412 C3414 1.395 . S
C3412 C3415 1.403 . S
H3413 C3419 0.930 . S
C3414 H3400 0.930 . S
C3414 C3412 1.395 . S
C3414 C3417 1.403 . S
C3415 C3412 1.403 . S
C3415 C3416 1.524 . S
C3415 C3419 1.400 . S
C3416 H3401 0.960 . S
C3416 H3402 0.960 . S
C3416 H3403 0.960 . S
C3416 C3415 1.524 . S
C3417 C3414 1.403 . S
C3417 C3418 1.392 . S
C3417 C3421 1.495 . S
C3418 C3417 1.392 . S
C3418 C3419 1.385 . S
C3418 C3420 1.478 . S
C3419 H3413 0.930 . S
C3419 C3415 1.400 . S
C3419 C3418 1.385 . S
C3420 C3418 1.478 . S
C3420 C3422 1.381 . S
C3420 C3426 1.383 . S
C3421 C3417 1.495 . S
C3421 H3427 0.959 . S
C3421 H3428 0.961 . S
C3421 H3429 0.960 . S
C3422 C3420 1.381 . S
C3422 C3423 1.394 . S
C3422 H3430 0.930 . S
C3423 C3422 1.394 . S
C3423 C3424 1.383 . S
C3423 H3431 0.929 . S
C3424 C3423 1.383 . S
C3424 C3425 1.377 . S
C3425 H3409 0.930 . S
C3425 C3424 1.377 . S
C3425 C3426 1.379 . S
C3426 H3410 0.931 . S
C3426 C3420 1.383 . S
C3426 C3425 1.379 . S
H3427 C3421 0.959 . S
H3428 C3421 0.961 . S
H3429 C3421 0.960 . S
H3430 C3422 0.930 . S
H3431 C3423 0.929 . S
H3432 C3440 0.929 . S
H3433 C3442 0.930 . S
H3434 C3444 0.930 . S
H3435 C3447 0.929 . S
H3436 C3450 0.930 . S
H3437 C3452 0.960 . S
H3438 C3452 0.960 . S
H3439 C3452 0.960 . S
C3440 H3432 0.929 . S
C3440 C3441 1.377 . S
C3440 C3442 1.384 . S
C3441 C3440 1.377 . S
C3441 C3447 1.390 . S
C3442 H3433 0.930 . S
C3442 C3440 1.384 . S
C3442 C3443 1.372 . S
C3443 C3442 1.372 . S
C3443 C3444 1.400 . S
C3443 C3448 1.490 . S
C3444 H3434 0.930 . S
C3444 C3443 1.400 . S
C3444 C3447 1.386 . S
H3445 C3461 0.930 . S
H3446 C3462 0.931 . S
C3447 H3435 0.929 . S
C3447 C3441 1.390 . S
C3447 C3444 1.386 . S
C3448 C3443 1.490 . S
C3448 C3450 1.395 . S
C3448 C3451 1.403 . S
H3449 C3455 0.930 . S
C3450 H3436 0.930 . S
C3450 C3448 1.395 . S
C3450 C3453 1.403 . S
C3451 C3448 1.403 . S
C3451 C3452 1.524 . S
C3451 C3455 1.400 . S
C3452 H3437 0.960 . S
C3452 H3438 0.960 . S
C3452 H3439 0.960 . S
C3452 C3451 1.524 . S
C3453 C3450 1.403 . S
C3453 C3454 1.392 . S
C3453 C3457 1.495 . S
C3454 C3453 1.392 . S
C3454 C3455 1.385 . S
C3454 C3456 1.478 . S
C3455 H3449 0.930 . S
C3455 C3451 1.400 . S
C3455 C3454 1.385 . S
C3456 C3454 1.478 . S
C3456 C3458 1.381 . S
C3456 C3462 1.383 . S
C3457 C3453 1.495 . S
C3457 H3463 0.959 . S
C3457 H3464 0.961 . S
C3457 H3465 0.960 . S
C3458 C3456 1.381 . S
C3458 C3459 1.394 . S
C3458 H3466 0.930 . S
C3459 C3458 1.394 . S
C3459 C3460 1.383 . S
C3459 H3467 0.929 . S
C3460 C3459 1.383 . S
C3460 C3461 1.377 . S
C3461 H3445 0.930 . S
C3461 C3460 1.377 . S
C3461 C3462 1.379 . S
C3462 H3446 0.931 . S
C3462 C3456 1.383 . S
C3462 C3461 1.379 . S
H3463 C3457 0.959 . S
H3464 C3457 0.961 . S
H3465 C3457 0.960 . S
H3466 C3458 0.930 . S
H3467 C3459 0.929 . S
H3468 C3476 0.929 . S
H3469 C3478 0.930 . S
H3470 C3480 0.930 . S
H3471 C3483 0.929 . S
H3472 C3486 0.930 . S
H3473 C3488 0.960 . S
H3474 C3488 0.960 . S
H3475 C3488 0.960 . S
C3476 H3468 0.929 . S
C3476 C3477 1.377 . S
C3476 C3478 1.384 . S
C3477 C3476 1.377 . S
C3477 C3483 1.390 . S
C3478 H3469 0.930 . S
C3478 C3476 1.384 . S
C3478 C3479 1.372 . S
C3479 C3478 1.372 . S
C3479 C3480 1.400 . S
C3479 C3484 1.490 . S
C3480 H3470 0.930 . S
C3480 C3479 1.400 . S
C3480 C3483 1.386 . S
H3481 C3497 0.930 . S
H3482 C3498 0.931 . S
C3483 H3471 0.929 . S
C3483 C3477 1.390 . S
C3483 C3480 1.386 . S
C3484 C3479 1.490 . S
C3484 C3486 1.395 . S
C3484 C3487 1.403 . S
H3485 C3491 0.930 . S
C3486 H3472 0.930 . S
C3486 C3484 1.395 . S
C3486 C3489 1.403 . S
C3487 C3484 1.403 . S
C3487 C3488 1.524 . S
C3487 C3491 1.400 . S
C3488 H3473 0.960 . S
C3488 H3474 0.960 . S
C3488 H3475 0.960 . S
C3488 C3487 1.524 . S
C3489 C3486 1.403 . S
C3489 C3490 1.392 . S
C3489 C3493 1.495 . S
C3490 C3489 1.392 . S
C3490 C3491 1.385 . S
C3490 C3492 1.478 . S
C3491 H3485 0.930 . S
C3491 C3487 1.400 . S
C3491 C3490 1.385 . S
C3492 C3490 1.478 . S
C3492 C3494 1.381 . S
C3492 C3498 1.383 . S
C3493 C3489 1.495 . S
C3493 H3499 0.959 . S
C3493 H3500 0.961 . S
C3493 H3501 0.960 . S
C3494 C3492 1.381 . S
C3494 C3495 1.394 . S
C3494 H3502 0.930 . S
C3495 C3494 1.394 . S
C3495 C3496 1.383 . S
C3495 H3503 0.929 . S
C3496 C3495 1.383 . S
C3496 C3497 1.377 . S
C3497 H3481 0.930 . S
C3497 C3496 1.377 . S
C3497 C3498 1.379 . S
C3498 H3482 0.931 . S
C3498 C3492 1.383 . S
C3498 C3497 1.379 . S
H3499 C3493 0.959 . S
H3500 C3493 0.961 . S
H3501 C3493 0.960 . S
H3502 C3494 0.930 . S
H3503 C3495 0.929 . S
H3504 C3512 0.929 . S
H3505 C3514 0.930 . S
H3506 C3516 0.930 . S
H3507 C3519 0.929 . S
H3508 C3522 0.930 . S
H3509 C3524 0.960 . S
H3510 C3524 0.960 . S
H3511 C3524 0.960 . S
C3512 H3504 0.929 . S
C3512 C3513 1.377 . S
C3512 C3514 1.384 . S
C3513 C3512 1.377 . S
C3513 C3519 1.390 . S
C3514 H3505 0.930 . S
C3514 C3512 1.384 . S
C3514 C3515 1.372 . S
C3515 C3514 1.372 . S
C3515 C3516 1.400 . S
C3515 C3520 1.490 . S
C3516 H3506 0.930 . S
C3516 C3515 1.400 . S
C3516 C3519 1.386 . S
H3517 C3533 0.930 . S
H3518 C3534 0.931 . S
C3519 H3507 0.929 . S
C3519 C3513 1.390 . S
C3519 C3516 1.386 . S
C3520 C3515 1.490 . S
C3520 C3522 1.395 . S
C3520 C3523 1.403 . S
H3521 C3527 0.930 . S
C3522 H3508 0.930 . S
C3522 C3520 1.395 . S
C3522 C3525 1.403 . S
C3523 C3520 1.403 . S
C3523 C3524 1.524 . S
C3523 C3527 1.400 . S
C3524 H3509 0.960 . S
C3524 H3510 0.960 . S
C3524 H3511 0.960 . S
C3524 C3523 1.524 . S
C3525 C3522 1.403 . S
C3525 C3526 1.392 . S
C3525 C3529 1.495 . S
C3526 C3525 1.392 . S
C3526 C3527 1.385 . S
C3526 C3528 1.478 . S
C3527 H3521 0.930 . S
C3527 C3523 1.400 . S
C3527 C3526 1.385 . S
C3528 C3526 1.478 . S
C3528 C3530 1.381 . S
C3528 C3534 1.383 . S
C3529 C3525 1.495 . S
C3529 H3535 0.959 . S
C3529 H3536 0.961 . S
C3529 H3537 0.960 . S
C3530 C3528 1.381 . S
C3530 C3531 1.394 . S
C3530 H3538 0.930 . S
C3531 C3530 1.394 . S
C3531 C3532 1.383 . S
C3531 H3539 0.929 . S
C3532 C3531 1.383 . S
C3532 C3533 1.377 . S
C3533 H3517 0.930 . S
C3533 C3532 1.377 . S
C3533 C3534 1.379 . S
C3534 H3518 0.931 . S
C3534 C3528 1.383 . S
C3534 C3533 1.379 . S
H3535 C3529 0.959 . S
H3536 C3529 0.961 . S
H3537 C3529 0.960 . S
H3538 C3530 0.930 . S
H3539 C3531 0.929 . S
H3540 C3548 0.929 . S
H3541 C3550 0.930 . S
H3542 C3552 0.930 . S
H3543 C3555 0.929 . S
H3544 C3558 0.930 . S
H3545 C3560 0.960 . S
H3546 C3560 0.960 . S
H3547 C3560 0.960 . S
C3548 H3540 0.929 . S
C3548 C3549 1.377 . S
C3548 C3550 1.384 . S
C3549 C3548 1.377 . S
C3549 C3555 1.390 . S
C3550 H3541 0.930 . S
C3550 C3548 1.384 . S
C3550 C3551 1.372 . S
C3551 C3550 1.372 . S
C3551 C3552 1.400 . S
C3551 C3556 1.490 . S
C3552 H3542 0.930 . S
C3552 C3551 1.400 . S
C3552 C3555 1.386 . S
H3553 C3569 0.930 . S
H3554 C3570 0.931 . S
C3555 H3543 0.929 . S
C3555 C3549 1.390 . S
C3555 C3552 1.386 . S
C3556 C3551 1.490 . S
C3556 C3558 1.395 . S
C3556 C3559 1.403 . S
H3557 C3563 0.930 . S
C3558 H3544 0.930 . S
C3558 C3556 1.395 . S
C3558 C3561 1.403 . S
C3559 C3556 1.403 . S
C3559 C3560 1.524 . S
C3559 C3563 1.400 . S
C3560 H3545 0.960 . S
C3560 H3546 0.960 . S
C3560 H3547 0.960 . S
C3560 C3559 1.524 . S
C3561 C3558 1.403 . S
C3561 C3562 1.392 . S
C3561 C3565 1.495 . S
C3562 C3561 1.392 . S
C3562 C3563 1.385 . S
C3562 C3564 1.478 . S
C3563 H3557 0.930 . S
C3563 C3559 1.400 . S
C3563 C3562 1.385 . S
C3564 C3562 1.478 . S
C3564 C3566 1.381 . S
C3564 C3570 1.383 . S
C3565 C3561 1.495 . S
C3565 H3571 0.959 . S
C3565 H3572 0.961 . S
C3565 H3573 0.960 . S
C3566 C3564 1.381 . S
C3566 C3567 1.394 . S
C3566 H3574 0.930 . S
C3567 C3566 1.394 . S
C3567 C3568 1.383 . S
C3567 H3575 0.929 . S
C3568 C3567 1.383 . S
C3568 C3569 1.377 . S
C3569 H3553 0.930 . S
C3569 C3568 1.377 . S
C3569 C3570 1.379 . S
C3570 H3554 0.931 . S
C3570 C3564 1.383 . S
C3570 C3569 1.379 . S
H3571 C3565 0.959 . S
H3572 C3565 0.961 . S
H3573 C3565 0.960 . S
H3574 C3566 0.930 . S
H3575 C3567 0.929 . S
H3576 C3584 0.929 . S
H3577 C3586 0.930 . S
H3578 C3588 0.930 . S
H3579 C3591 0.929 . S
H3580 C3594 0.930 . S
H3581 C3596 0.960 . S
H3582 C3596 0.960 . S
H3583 C3596 0.960 . S
C3584 H3576 0.929 . S
C3584 C3585 1.377 . S
C3584 C3586 1.384 . S
C3585 C3584 1.377 . S
C3585 C3591 1.390 . S
C3586 H3577 0.930 . S
C3586 C3584 1.384 . S
C3586 C3587 1.372 . S
C3587 C3586 1.372 . S
C3587 C3588 1.400 . S
C3587 C3592 1.490 . S
C3588 H3578 0.930 . S
C3588 C3587 1.400 . S
C3588 C3591 1.386 . S
H3589 C3605 0.930 . S
H3590 C3606 0.931 . S
C3591 H3579 0.929 . S
C3591 C3585 1.390 . S
C3591 C3588 1.386 . S
C3592 C3587 1.490 . S
C3592 C3594 1.395 . S
C3592 C3595 1.403 . S
H3593 C3599 0.930 . S
C3594 H3580 0.930 . S
C3594 C3592 1.395 . S
C3594 C3597 1.403 . S
C3595 C3592 1.403 . S
C3595 C3596 1.524 . S
C3595 C3599 1.400 . S
C3596 H3581 0.960 . S
C3596 H3582 0.960 . S
C3596 H3583 0.960 . S
C3596 C3595 1.524 . S
C3597 C3594 1.403 . S
C3597 C3598 1.392 . S
C3597 C3601 1.495 . S
C3598 C3597 1.392 . S
C3598 C3599 1.385 . S
C3598 C3600 1.478 . S
C3599 H3593 0.930 . S
C3599 C3595 1.400 . S
C3599 C3598 1.385 . S
C3600 C3598 1.478 . S
C3600 C3602 1.381 . S
C3600 C3606 1.383 . S
C3601 C3597 1.495 . S
C3601 H3607 0.959 . S
C3601 H3608 0.961 . S
C3601 H3609 0.960 . S
C3602 C3600 1.381 . S
C3602 C3603 1.394 . S
C3602 H3610 0.930 . S
C3603 C3602 1.394 . S
C3603 C3604 1.383 . S
C3603 H3611 0.929 . S
C3604 C3603 1.383 . S
C3604 C3605 1.377 . S
C3605 H3589 0.930 . S
C3605 C3604 1.377 . S
C3605 C3606 1.379 . S
C3606 H3590 0.931 . S
C3606 C3600 1.383 . S
C3606 C3605 1.379 . S
H3607 C3601 0.959 . S
H3608 C3601 0.961 . S
H3609 C3601 0.960 . S
H3610 C3602 0.930 . S
H3611 C3603 0.929 . S
H3612 C3620 0.929 1_565 S
H3613 C3622 0.930 . S
H3614 C3624 0.930 . S
H3615 C3627 0.929 . S
H3616 C3630 0.930 . S
H3617 C3632 0.960 . S
H3618 C3632 0.960 . S
H3619 C3632 0.960 . S
C3620 H3612 0.929 1_545 S
C3620 C3621 1.377 . S
C3620 C3622 1.384 . S
C3621 C3620 1.377 . S
C3621 C3627 1.390 . S
C3622 H3613 0.930 . S
C3622 C3620 1.384 . S
C3622 C3623 1.372 . S
C3623 C3622 1.372 . S
C3623 C3624 1.400 . S
C3623 C3628 1.490 . S
C3624 H3614 0.930 . S
C3624 C3623 1.400 . S
C3624 C3627 1.386 . S
H3625 C3641 0.930 . S
H3626 C3642 0.931 . S
C3627 H3615 0.929 . S
C3627 C3621 1.390 . S
C3627 C3624 1.386 . S
C3628 C3623 1.490 . S
C3628 C3630 1.395 . S
C3628 C3631 1.403 . S
H3629 C3635 0.930 . S
C3630 H3616 0.930 . S
C3630 C3628 1.395 . S
C3630 C3633 1.403 . S
C3631 C3628 1.403 . S
C3631 C3632 1.524 . S
C3631 C3635 1.400 . S
C3632 H3617 0.960 . S
C3632 H3618 0.960 . S
C3632 H3619 0.960 . S
C3632 C3631 1.524 . S
C3633 C3630 1.403 . S
C3633 C3634 1.392 . S
C3633 C3637 1.495 . S
C3634 C3633 1.392 . S
C3634 C3635 1.385 . S
C3634 C3636 1.478 . S
C3635 H3629 0.930 . S
C3635 C3631 1.400 . S
C3635 C3634 1.385 . S
C3636 C3634 1.478 . S
C3636 C3638 1.381 . S
C3636 C3642 1.383 . S
C3637 C3633 1.495 . S
C3637 H3643 0.959 . S
C3637 H3644 0.961 . S
C3637 H3645 0.960 . S
C3638 C3636 1.381 . S
C3638 C3639 1.394 . S
C3638 H3646 0.930 . S
C3639 C3638 1.394 . S
C3639 C3640 1.383 . S
C3639 H3647 0.929 . S
C3640 C3639 1.383 . S
C3640 C3641 1.377 . S
C3641 H3625 0.930 . S
C3641 C3640 1.377 . S
C3641 C3642 1.379 . S
C3642 H3626 0.931 . S
C3642 C3636 1.383 . S
C3642 C3641 1.379 . S
H3643 C3637 0.959 . S
H3644 C3637 0.961 . S
H3645 C3637 0.960 . S
H3646 C3638 0.930 . S
H3647 C3639 0.929 . S
H3648 C3656 0.929 . S
H3649 C3658 0.930 . S
H3650 C3660 0.930 . S
H3651 C3663 0.929 . S
H3652 C3666 0.930 . S
H3653 C3668 0.960 . S
H3654 C3668 0.960 . S
H3655 C3668 0.960 . S
C3656 H3648 0.929 . S
C3656 C3657 1.377 . S
C3656 C3658 1.384 . S
C3657 C3656 1.377 . S
C3657 C3663 1.390 . S
C3658 H3649 0.930 . S
C3658 C3656 1.384 . S
C3658 C3659 1.372 . S
C3659 C3658 1.372 . S
C3659 C3660 1.400 . S
C3659 C3664 1.490 . S
C3660 H3650 0.930 . S
C3660 C3659 1.400 . S
C3660 C3663 1.386 . S
H3661 C3677 0.930 . S
H3662 C3678 0.931 . S
C3663 H3651 0.929 . S
C3663 C3657 1.390 . S
C3663 C3660 1.386 . S
C3664 C3659 1.490 . S
C3664 C3666 1.395 . S
C3664 C3667 1.403 . S
H3665 C3671 0.930 . S
C3666 H3652 0.930 . S
C3666 C3664 1.395 . S
C3666 C3669 1.403 . S
C3667 C3664 1.403 . S
C3667 C3668 1.524 . S
C3667 C3671 1.400 . S
C3668 H3653 0.960 . S
C3668 H3654 0.960 . S
C3668 H3655 0.960 . S
C3668 C3667 1.524 . S
C3669 C3666 1.403 . S
C3669 C3670 1.392 . S
C3669 C3673 1.495 . S
C3670 C3669 1.392 . S
C3670 C3671 1.385 . S
C3670 C3672 1.478 . S
C3671 H3665 0.930 . S
C3671 C3667 1.400 . S
C3671 C3670 1.385 . S
C3672 C3670 1.478 . S
C3672 C3674 1.381 . S
C3672 C3678 1.383 . S
C3673 C3669 1.495 . S
C3673 H3679 0.959 . S
C3673 H3680 0.961 . S
C3673 H3681 0.960 . S
C3674 C3672 1.381 . S
C3674 C3675 1.394 . S
C3674 H3682 0.930 . S
C3675 C3674 1.394 . S
C3675 C3676 1.383 . S
C3675 H3683 0.929 . S
C3676 C3675 1.383 . S
C3676 C3677 1.377 . S
C3677 H3661 0.930 . S
C3677 C3676 1.377 . S
C3677 C3678 1.379 . S
C3678 H3662 0.931 . S
C3678 C3672 1.383 . S
C3678 C3677 1.379 . S
H3679 C3673 0.959 . S
H3680 C3673 0.961 . S
H3681 C3673 0.960 . S
H3682 C3674 0.930 . S
H3683 C3675 0.929 . S
H3684 C3692 0.929 . S
H3685 C3694 0.930 . S
H3686 C3696 0.930 . S
H3687 C3699 0.929 . S
H3688 C3702 0.930 . S
H3689 C3704 0.960 . S
H3690 C3704 0.960 . S
H3691 C3704 0.960 . S
C3692 H3684 0.929 . S
C3692 C3693 1.377 . S
C3692 C3694 1.384 . S
C3693 C3692 1.377 . S
C3693 C3699 1.390 . S
C3694 H3685 0.930 . S
C3694 C3692 1.384 . S
C3694 C3695 1.372 . S
C3695 C3694 1.372 . S
C3695 C3696 1.400 . S
C3695 C3700 1.490 . S
C3696 H3686 0.930 . S
C3696 C3695 1.400 . S
C3696 C3699 1.386 . S
H3697 C3713 0.930 . S
H3698 C3714 0.931 . S
C3699 H3687 0.929 . S
C3699 C3693 1.390 . S
C3699 C3696 1.386 . S
C3700 C3695 1.490 . S
C3700 C3702 1.395 . S
C3700 C3703 1.403 . S
H3701 C3707 0.930 . S
C3702 H3688 0.930 . S
C3702 C3700 1.395 . S
C3702 C3705 1.403 . S
C3703 C3700 1.403 . S
C3703 C3704 1.524 . S
C3703 C3707 1.400 . S
C3704 H3689 0.960 . S
C3704 H3690 0.960 . S
C3704 H3691 0.960 . S
C3704 C3703 1.524 . S
C3705 C3702 1.403 . S
C3705 C3706 1.392 . S
C3705 C3709 1.495 . S
C3706 C3705 1.392 . S
C3706 C3707 1.385 . S
C3706 C3708 1.478 . S
C3707 H3701 0.930 . S
C3707 C3703 1.400 . S
C3707 C3706 1.385 . S
C3708 C3706 1.478 . S
C3708 C3710 1.381 . S
C3708 C3714 1.383 . S
C3709 C3705 1.495 . S
C3709 H3715 0.959 . S
C3709 H3716 0.961 . S
C3709 H3717 0.960 . S
C3710 C3708 1.381 . S
C3710 C3711 1.394 . S
C3710 H3718 0.930 . S
C3711 C3710 1.394 . S
C3711 C3712 1.383 . S
C3711 H3719 0.929 . S
C3712 C3711 1.383 . S
C3712 C3713 1.377 . S
C3713 H3697 0.930 . S
C3713 C3712 1.377 . S
C3713 C3714 1.379 . S
C3714 H3698 0.931 . S
C3714 C3708 1.383 . S
C3714 C3713 1.379 . S
H3715 C3709 0.959 . S
H3716 C3709 0.961 . S
H3717 C3709 0.960 . S
H3718 C3710 0.930 . S
H3719 C3711 0.929 . S
H3720 C3728 0.929 . S
H3721 C3730 0.930 . S
H3722 C3732 0.930 . S
H3723 C3735 0.929 . S
H3724 C3738 0.930 . S
H3725 C3740 0.960 . S
H3726 C3740 0.960 . S
H3727 C3740 0.960 . S
C3728 H3720 0.929 . S
C3728 C3729 1.377 . S
C3728 C3730 1.384 . S
C3729 C3728 1.377 . S
C3729 C3735 1.390 . S
C3730 H3721 0.930 . S
C3730 C3728 1.384 . S
C3730 C3731 1.372 . S
C3731 C3730 1.372 . S
C3731 C3732 1.400 . S
C3731 C3736 1.490 . S
C3732 H3722 0.930 . S
C3732 C3731 1.400 . S
C3732 C3735 1.386 . S
H3733 C3749 0.930 . S
H3734 C3750 0.931 . S
C3735 H3723 0.929 . S
C3735 C3729 1.390 . S
C3735 C3732 1.386 . S
C3736 C3731 1.490 . S
C3736 C3738 1.395 . S
C3736 C3739 1.403 . S
H3737 C3743 0.930 . S
C3738 H3724 0.930 . S
C3738 C3736 1.395 . S
C3738 C3741 1.403 . S
C3739 C3736 1.403 . S
C3739 C3740 1.524 . S
C3739 C3743 1.400 . S
C3740 H3725 0.960 . S
C3740 H3726 0.960 . S
C3740 H3727 0.960 . S
C3740 C3739 1.524 . S
C3741 C3738 1.403 . S
C3741 C3742 1.392 . S
C3741 C3745 1.495 . S
C3742 C3741 1.392 . S
C3742 C3743 1.385 . S
C3742 C3744 1.478 . S
C3743 H3737 0.930 . S
C3743 C3739 1.400 . S
C3743 C3742 1.385 . S
C3744 C3742 1.478 . S
C3744 C3746 1.381 . S
C3744 C3750 1.383 . S
C3745 C3741 1.495 . S
C3745 H3751 0.959 . S
C3745 H3752 0.961 . S
C3745 H3753 0.960 . S
C3746 C3744 1.381 . S
C3746 C3747 1.394 . S
C3746 H3754 0.930 . S
C3747 C3746 1.394 . S
C3747 C3748 1.383 . S
C3747 H3755 0.929 . S
C3748 C3747 1.383 . S
C3748 C3749 1.377 . S
C3749 H3733 0.930 . S
C3749 C3748 1.377 . S
C3749 C3750 1.379 . S
C3750 H3734 0.931 . S
C3750 C3744 1.383 . S
C3750 C3749 1.379 . S
H3751 C3745 0.959 . S
H3752 C3745 0.961 . S
H3753 C3745 0.960 . S
H3754 C3746 0.930 . S
H3755 C3747 0.929 . S
H3756 C3764 0.929 . S
H3757 C3766 0.930 . S
H3758 C3768 0.930 . S
H3759 C3771 0.929 . S
H3760 C3774 0.930 . S
H3761 C3776 0.960 . S
H3762 C3776 0.960 . S
H3763 C3776 0.960 . S
C3764 H3756 0.929 . S
C3764 C3765 1.377 . S
C3764 C3766 1.384 . S
C3765 C3764 1.377 . S
C3765 C3771 1.390 . S
C3766 H3757 0.930 . S
C3766 C3764 1.384 . S
C3766 C3767 1.372 . S
C3767 C3766 1.372 . S
C3767 C3768 1.400 . S
C3767 C3772 1.490 . S
C3768 H3758 0.930 . S
C3768 C3767 1.400 . S
C3768 C3771 1.386 . S
H3769 C3785 0.930 . S
H3770 C3786 0.931 . S
C3771 H3759 0.929 . S
C3771 C3765 1.390 . S
C3771 C3768 1.386 . S
C3772 C3767 1.490 . S
C3772 C3774 1.395 . S
C3772 C3775 1.403 . S
H3773 C3779 0.930 . S
C3774 H3760 0.930 . S
C3774 C3772 1.395 . S
C3774 C3777 1.403 . S
C3775 C3772 1.403 . S
C3775 C3776 1.524 . S
C3775 C3779 1.400 . S
C3776 H3761 0.960 . S
C3776 H3762 0.960 . S
C3776 H3763 0.960 . S
C3776 C3775 1.524 . S
C3777 C3774 1.403 . S
C3777 C3778 1.392 . S
C3777 C3781 1.495 . S
C3778 C3777 1.392 . S
C3778 C3779 1.385 . S
C3778 C3780 1.478 . S
C3779 H3773 0.930 . S
C3779 C3775 1.400 . S
C3779 C3778 1.385 . S
C3780 C3778 1.478 . S
C3780 C3782 1.381 . S
C3780 C3786 1.383 . S
C3781 C3777 1.495 . S
C3781 H3787 0.959 . S
C3781 H3788 0.961 . S
C3781 H3789 0.960 . S
C3782 C3780 1.381 . S
C3782 C3783 1.394 . S
C3782 H3790 0.930 . S
C3783 C3782 1.394 . S
C3783 C3784 1.383 . S
C3783 H3791 0.929 . S
C3784 C3783 1.383 . S
C3784 C3785 1.377 . S
C3785 H3769 0.930 . S
C3785 C3784 1.377 . S
C3785 C3786 1.379 . S
C3786 H3770 0.931 . S
C3786 C3780 1.383 . S
C3786 C3785 1.379 . S
H3787 C3781 0.959 . S
H3788 C3781 0.961 . S
H3789 C3781 0.960 . S
H3790 C3782 0.930 . S
H3791 C3783 0.929 . S
H3792 C3800 0.929 . S
H3793 C3802 0.930 . S
H3794 C3804 0.930 . S
H3795 C3807 0.929 . S
H3796 C3810 0.930 . S
H3797 C3812 0.960 . S
H3798 C3812 0.960 . S
H3799 C3812 0.960 . S
C3800 H3792 0.929 . S
C3800 C3801 1.377 . S
C3800 C3802 1.384 . S
C3801 C3800 1.377 . S
C3801 C3807 1.390 . S
C3802 H3793 0.930 . S
C3802 C3800 1.384 . S
C3802 C3803 1.372 . S
C3803 C3802 1.372 . S
C3803 C3804 1.400 . S
C3803 C3808 1.490 . S
C3804 H3794 0.930 . S
C3804 C3803 1.400 . S
C3804 C3807 1.386 . S
H3805 C3821 0.930 . S
H3806 C3822 0.931 . S
C3807 H3795 0.929 . S
C3807 C3801 1.390 . S
C3807 C3804 1.386 . S
C3808 C3803 1.490 . S
C3808 C3810 1.395 . S
C3808 C3811 1.403 . S
H3809 C3815 0.930 . S
C3810 H3796 0.930 . S
C3810 C3808 1.395 . S
C3810 C3813 1.403 . S
C3811 C3808 1.403 . S
C3811 C3812 1.524 . S
C3811 C3815 1.400 . S
C3812 H3797 0.960 . S
C3812 H3798 0.960 . S
C3812 H3799 0.960 . S
C3812 C3811 1.524 . S
C3813 C3810 1.403 . S
C3813 C3814 1.392 . S
C3813 C3817 1.495 . S
C3814 C3813 1.392 . S
C3814 C3815 1.385 . S
C3814 C3816 1.478 . S
C3815 H3809 0.930 . S
C3815 C3811 1.400 . S
C3815 C3814 1.385 . S
C3816 C3814 1.478 . S
C3816 C3818 1.381 . S
C3816 C3822 1.383 . S
C3817 C3813 1.495 . S
C3817 H3823 0.959 . S
C3817 H3824 0.961 . S
C3817 H3825 0.960 . S
C3818 C3816 1.381 . S
C3818 C3819 1.394 . S
C3818 H3826 0.930 . S
C3819 C3818 1.394 . S
C3819 C3820 1.383 . S
C3819 H3827 0.929 . S
C3820 C3819 1.383 . S
C3820 C3821 1.377 . S
C3821 H3805 0.930 . S
C3821 C3820 1.377 . S
C3821 C3822 1.379 . S
C3822 H3806 0.931 . S
C3822 C3816 1.383 . S
C3822 C3821 1.379 . S
H3823 C3817 0.959 . S
H3824 C3817 0.961 . S
H3825 C3817 0.960 . S
H3826 C3818 0.930 . S
H3827 C3819 0.929 . S
H3828 C3836 0.929 . S
H3829 C3838 0.930 . S
H3830 C3840 0.930 . S
H3831 C3843 0.929 . S
H3832 C3846 0.930 . S
H3833 C3848 0.960 . S
H3834 C3848 0.960 . S
H3835 C3848 0.960 . S
C3836 H3828 0.929 . S
C3836 C3837 1.377 . S
C3836 C3838 1.384 . S
C3837 C3836 1.377 . S
C3837 C3843 1.390 . S
C3838 H3829 0.930 . S
C3838 C3836 1.384 . S
C3838 C3839 1.372 . S
C3839 C3838 1.372 . S
C3839 C3840 1.400 . S
C3839 C3844 1.490 . S
C3840 H3830 0.930 . S
C3840 C3839 1.400 . S
C3840 C3843 1.386 . S
H3841 C3857 0.930 . S
H3842 C3858 0.931 . S
C3843 H3831 0.929 . S
C3843 C3837 1.390 . S
C3843 C3840 1.386 . S
C3844 C3839 1.490 . S
C3844 C3846 1.395 . S
C3844 C3847 1.403 . S
H3845 C3851 0.930 . S
C3846 H3832 0.930 . S
C3846 C3844 1.395 . S
C3846 C3849 1.403 . S
C3847 C3844 1.403 . S
C3847 C3848 1.524 . S
C3847 C3851 1.400 . S
C3848 H3833 0.960 . S
C3848 H3834 0.960 . S
C3848 H3835 0.960 . S
C3848 C3847 1.524 . S
C3849 C3846 1.403 . S
C3849 C3850 1.392 . S
C3849 C3853 1.495 . S
C3850 C3849 1.392 . S
C3850 C3851 1.385 . S
C3850 C3852 1.478 . S
C3851 H3845 0.930 . S
C3851 C3847 1.400 . S
C3851 C3850 1.385 . S
C3852 C3850 1.478 . S
C3852 C3854 1.381 . S
C3852 C3858 1.383 . S
C3853 C3849 1.495 . S
C3853 H3859 0.959 . S
C3853 H3860 0.961 . S
C3853 H3861 0.960 . S
C3854 C3852 1.381 . S
C3854 C3855 1.394 . S
C3854 H3862 0.930 . S
C3855 C3854 1.394 . S
C3855 C3856 1.383 . S
C3855 H3863 0.929 . S
C3856 C3855 1.383 . S
C3856 C3857 1.377 . S
C3857 H3841 0.930 . S
C3857 C3856 1.377 . S
C3857 C3858 1.379 . S
C3858 H3842 0.931 . S
C3858 C3852 1.383 . S
C3858 C3857 1.379 . S
H3859 C3853 0.959 . S
H3860 C3853 0.961 . S
H3861 C3853 0.960 . S
H3862 C3854 0.930 . S
H3863 C3855 0.929 . S
H3864 C3872 0.929 . S
H3865 C3874 0.930 . S
H3866 C3876 0.930 . S
H3867 C3879 0.929 . S
H3868 C3882 0.930 . S
H3869 C3884 0.960 . S
H3870 C3884 0.960 . S
H3871 C3884 0.960 . S
C3872 H3864 0.929 . S
C3872 C3873 1.377 . S
C3872 C3874 1.384 . S
C3873 C3872 1.377 . S
C3873 C3879 1.390 . S
C3874 H3865 0.930 . S
C3874 C3872 1.384 . S
C3874 C3875 1.372 . S
C3875 C3874 1.372 . S
C3875 C3876 1.400 . S
C3875 C3880 1.490 . S
C3876 H3866 0.930 . S
C3876 C3875 1.400 . S
C3876 C3879 1.386 . S
H3877 C3893 0.930 . S
H3878 C3894 0.931 . S
C3879 H3867 0.929 . S
C3879 C3873 1.390 . S
C3879 C3876 1.386 . S
C3880 C3875 1.490 . S
C3880 C3882 1.395 . S
C3880 C3883 1.403 . S
H3881 C3887 0.930 . S
C3882 H3868 0.930 . S
C3882 C3880 1.395 . S
C3882 C3885 1.403 . S
C3883 C3880 1.403 . S
C3883 C3884 1.524 . S
C3883 C3887 1.400 . S
C3884 H3869 0.960 . S
C3884 H3870 0.960 . S
C3884 H3871 0.960 . S
C3884 C3883 1.524 . S
C3885 C3882 1.403 . S
C3885 C3886 1.392 . S
C3885 C3889 1.495 . S
C3886 C3885 1.392 . S
C3886 C3887 1.385 . S
C3886 C3888 1.478 . S
C3887 H3881 0.930 . S
C3887 C3883 1.400 . S
C3887 C3886 1.385 . S
C3888 C3886 1.478 . S
C3888 C3890 1.381 . S
C3888 C3894 1.383 . S
C3889 C3885 1.495 . S
C3889 H3895 0.959 . S
C3889 H3896 0.961 . S
C3889 H3897 0.960 . S
C3890 C3888 1.381 . S
C3890 C3891 1.394 . S
C3890 H3898 0.930 . S
C3891 C3890 1.394 . S
C3891 C3892 1.383 . S
C3891 H3899 0.929 . S
C3892 C3891 1.383 . S
C3892 C3893 1.377 . S
C3893 H3877 0.930 . S
C3893 C3892 1.377 . S
C3893 C3894 1.379 . S
C3894 H3878 0.931 . S
C3894 C3888 1.383 . S
C3894 C3893 1.379 . S
H3895 C3889 0.959 . S
H3896 C3889 0.961 . S
H3897 C3889 0.960 . S
H3898 C3890 0.930 . S
H3899 C3891 0.929 . S
H3900 C3908 0.929 . S
H3901 C3910 0.930 . S
H3902 C3912 0.930 . S
H3903 C3915 0.929 . S
H3904 C3918 0.930 . S
H3905 C3920 0.960 . S
H3906 C3920 0.960 . S
H3907 C3920 0.960 . S
C3908 H3900 0.929 . S
C3908 C3909 1.377 . S
C3908 C3910 1.384 . S
C3909 C3908 1.377 . S
C3909 C3915 1.390 . S
C3910 H3901 0.930 . S
C3910 C3908 1.384 . S
C3910 C3911 1.372 . S
C3911 C3910 1.372 . S
C3911 C3912 1.400 . S
C3911 C3916 1.490 . S
C3912 H3902 0.930 . S
C3912 C3911 1.400 . S
C3912 C3915 1.386 . S
H3913 C3929 0.930 . S
H3914 C3930 0.931 . S
C3915 H3903 0.929 . S
C3915 C3909 1.390 . S
C3915 C3912 1.386 . S
C3916 C3911 1.490 . S
C3916 C3918 1.395 . S
C3916 C3919 1.403 . S
H3917 C3923 0.930 . S
C3918 H3904 0.930 . S
C3918 C3916 1.395 . S
C3918 C3921 1.403 . S
C3919 C3916 1.403 . S
C3919 C3920 1.524 . S
C3919 C3923 1.400 . S
C3920 H3905 0.960 . S
C3920 H3906 0.960 . S
C3920 H3907 0.960 . S
C3920 C3919 1.524 . S
C3921 C3918 1.403 . S
C3921 C3922 1.392 . S
C3921 C3925 1.495 . S
C3922 C3921 1.392 . S
C3922 C3923 1.385 . S
C3922 C3924 1.478 . S
C3923 H3917 0.930 . S
C3923 C3919 1.400 . S
C3923 C3922 1.385 . S
C3924 C3922 1.478 . S
C3924 C3926 1.381 . S
C3924 C3930 1.383 . S
C3925 C3921 1.495 . S
C3925 H3931 0.959 . S
C3925 H3932 0.961 . S
C3925 H3933 0.960 . S
C3926 C3924 1.381 . S
C3926 C3927 1.394 . S
C3926 H3934 0.930 . S
C3927 C3926 1.394 . S
C3927 C3928 1.383 . S
C3927 H3935 0.929 . S
C3928 C3927 1.383 . S
C3928 C3929 1.377 . S
C3929 H3913 0.930 . S
C3929 C3928 1.377 . S
C3929 C3930 1.379 . S
C3930 H3914 0.931 . S
C3930 C3924 1.383 . S
C3930 C3929 1.379 . S
H3931 C3925 0.959 . S
H3932 C3925 0.961 . S
H3933 C3925 0.960 . S
H3934 C3926 0.930 . S
H3935 C3927 0.929 . S
C1065 C18 1.540 . S
C1084 C810 1.530 . S
C1101 C315 1.541 . S
C1120 C51 1.533 . S
C1137 C876 1.541 . S
C1156 C84 1.536 . S
C1173 C381 1.541 . S
C1192 C117 1.534 . S
C1209 C942 1.540 . S
C1228 C150 1.531 . S
C1245 C447 1.539 . S
C1264 C183 1.530 . S
C1281 C1008 1.539 . S
C1300 C216 1.537 . S
C1317 C513 1.542 . S
C1336 C249 1.541 . S
C1353 C282 1.541 . S
C1372 C546 1.544 . S
C1389 C348 1.539 . S
C1408 C612 1.534 . S
C1425 C414 1.539 . S
C1444 C678 1.531 . S
C1461 C744 1.541 . S
C1480 C480 1.543 . S
C1497 C579 1.539 . S
C1516 C843 1.540 . S
C1533 C909 1.540 . S
C1552 C645 1.543 . S
C1569 C711 1.539 . S
C1588 C975 1.537 . S
C1605 C1041 1.540 . S
C1624 C777 1.542 . S
C1641 N13 1.304 . S
C1660 C384 1.322 . S
C1677 N46 1.303 1_455 S
C1696 C813 1.320 . S
C1713 C318 1.331 . S
C1732 N79 1.282 . S
C1749 N112 1.308 . S
C1768 C879 1.332 . S
C1785 C450 1.334 . S
C1804 N145 1.321 . S
C1821 C1011 1.335 . S
C1840 N178 1.328 . S
C1857 N211 1.306 . S
C1876 C516 1.326 . S
C1893 C945 1.331 . S
C1912 N244 1.288 1_455 S
C1929 N277 1.311 . S
C1948 C120 1.336 . S
C1965 N310 1.303 1_655 S
C1984 C549 1.337 . S
C2001 C54 1.334 . S
C2020 N343 1.281 . S
C2037 N376 1.311 . S
C2056 C615 1.335 . S
C2073 N409 1.312 . S
C2092 C186 1.329 . S
C2109 C747 1.335 . S
C2128 N442 1.295 . S
C2145 C252 1.334 . S
C2164 N475 1.319 . S
C2181 N508 1.303 1_655 S
C2200 C681 1.333 . S
C2217 C912 1.335 . S
C2236 N541 1.327 . S
C2253 C285 1.335 . S
C2272 N574 1.328 . S
C2289 C846 1.331 . S
C2308 N607 1.281 . S
C2325 N640 1.304 1_655 S
C2344 C351 1.325 . S
C2361 C978 1.331 . S
C2380 N673 1.280 . S
C2397 C483 1.334 . S
C2416 N706 1.315 1_655 S
C2433 N739 1.312 . S
C2452 C1044 1.340 . S
C2469 C417 1.333 . S
C2488 N772 1.303 . S
C2505 C648 1.331 . S
C2524 N805 1.300 . S
C2541 N838 1.312 . S
C2560 C21 1.332 . S
C2577 N871 1.303 . S
C2596 C582 1.335 . S
C2613 C87 1.335 . S
C2632 N904 1.287 1_455 S
C2649 C714 1.333 . S
C2668 N937 1.286 . S
C2685 N970 1.305 1_455 S
C2704 C219 1.325 . S
C2721 C780 1.335 . S
C2740 N1003 1.285 . S
C2757 C153 1.335 . S
C2776 N1036 1.285 . S
C2793 C7 0.930 . S
C2812 C205 0.920 . S
C2829 C238 0.932 . S
C2848 C40 0.906 . S
C2865 C73 0.928 . S
C2884 C139 0.923 . S
C2901 C106 0.923 . S
C2920 C172 0.950 . S
C2937 C469 0.930 . S
C2956 C271 0.914 . S
C2973 C502 0.924 . S
C2992 C304 0.930 . S
C3009 C403 0.925 . S
C3028 C337 0.938 . S
C3045 C436 0.931 . S
C3064 C370 0.949 . S
C3081 C535 0.933 . S
C3100 C733 0.904 . S
C3117 C568 0.930 . S
C3136 C766 0.920 . S
C3153 C601 0.927 . S
C3172 C667 0.932 . S
C3189 C634 0.932 . S
C3208 C700 0.908 . S
C3225 C997 0.933 . S
C3244 C799 0.932 . S
C3261 C1030 0.923 . S
C3280 C832 0.915 . S
C3297 C865 0.924 . S
C3316 C931 0.905 . S
C3333 C898 0.925 . S
C3352 C964 0.938 . S
C3369 N2 1.756 . S
C3388 N695 1.773 . S
C3405 N35 1.758 1_565 S
C3424 N728 1.774 . S
C3441 N68 1.756 . S
C3460 N761 1.774 . S
C3477 N101 1.764 1_545 S
C3496 N662 1.744 . S
C3513 N629 1.763 . S
C3532 N134 1.753 . S
C3549 N167 1.756 1_565 S
C3568 N530 1.770 . S
C3585 N563 1.763 . S
C3604 N200 1.757 . S
C3621 N233 1.761 1_545 S
C3640 N596 1.744 . S
C3657 N959 1.757 . S
C3676 N266 1.738 . S
C3693 N299 1.760 1_545 S
C3712 N992 1.747 . S
C3729 N1025 1.763 . S
C3748 N332 1.772 . S
C3765 N365 1.760 1_565 S
C3784 N926 1.748 . S
C3801 N398 1.761 . S
C3820 N893 1.765 . S
C3837 N794 1.761 . S
C3856 N431 1.755 1_545 S
C3873 N464 1.758 . S
C3892 N827 1.748 . S
C3909 N497 1.758 1_565 S
C3928 N860 1.742 . S
