# Generated by pormake.
# Topology whk, (6)-cn, num edge types: 1
# Building blocks:
#     Node 0, Type 0, BuildingBlock: UKALOJ_clean_sbu_0, # of connection points: 6
#     Node 1, Type 0, BuildingBlock: UKALOJ_clean_sbu_0, # of connection points: 6
#     Node 2, Type 0, BuildingBlock: UKALOJ_clean_sbu_0, # of connection points: 6
#     Node 3, Type 0, BuildingBlock: UKALOJ_clean_sbu_0, # of connection points: 6
#     Node 4, Type 0, BuildingBlock: UKALOJ_clean_sbu_0, # of connection points: 6
#     Node 5, Type 0, BuildingBlock: UKALOJ_clean_sbu_0, # of connection points: 6
#     Node 6, Type 0, BuildingBlock: UKALOJ_clean_sbu_0, # of connection points: 6
#     Node 7, Type 0, BuildingBlock: UKALOJ_clean_sbu_0, # of connection points: 6
#     Node 8, Type 0, BuildingBlock: UKALOJ_clean_sbu_0, # of connection points: 6
#     Node 9, Type 0, BuildingBlock: UKALOJ_clean_sbu_0, # of connection points: 6
#     Node 10, Type 0, BuildingBlock: UKALOJ_clean_sbu_0, # of connection points: 6
#     Node 11, Type 0, BuildingBlock: UKALOJ_clean_sbu_0, # of connection points: 6
#     Node 12, Type 0, BuildingBlock: UKALOJ_clean_sbu_0, # of connection points: 6
#     Node 13, Type 0, BuildingBlock: UKALOJ_clean_sbu_0, # of connection points: 6
#     Node 14, Type 0, BuildingBlock: UKALOJ_clean_sbu_0, # of connection points: 6
#     Node 15, Type 0, BuildingBlock: UKALOJ_clean_sbu_0, # of connection points: 6
#     Edge 16, Type (0, 0), BuildingBlock: ZUJKAS_clean_linker_0, # of connection points: 2
#     Edge 17, Type (0, 0), BuildingBlock: ZUJKAS_clean_linker_0, # of connection points: 2
#     Edge 18, Type (0, 0), BuildingBlock: ZUJKAS_clean_linker_0, # of connection points: 2
#     Edge 19, Type (0, 0), BuildingBlock: ZUJKAS_clean_linker_0, # of connection points: 2
#     Edge 20, Type (0, 0), BuildingBlock: ZUJKAS_clean_linker_0, # of connection points: 2
#     Edge 21, Type (0, 0), BuildingBlock: ZUJKAS_clean_linker_0, # of connection points: 2
#     Edge 22, Type (0, 0), BuildingBlock: ZUJKAS_clean_linker_0, # of connection points: 2
#     Edge 23, Type (0, 0), BuildingBlock: ZUJKAS_clean_linker_0, # of connection points: 2
#     Edge 24, Type (0, 0), BuildingBlock: ZUJKAS_clean_linker_0, # of connection points: 2
#     Edge 25, Type (0, 0), BuildingBlock: ZUJKAS_clean_linker_0, # of connection points: 2
#     Edge 26, Type (0, 0), BuildingBlock: ZUJKAS_clean_linker_0, # of connection points: 2
#     Edge 27, Type (0, 0), BuildingBlock: ZUJKAS_clean_linker_0, # of connection points: 2
#     Edge 28, Type (0, 0), BuildingBlock: ZUJKAS_clean_linker_0, # of connection points: 2
#     Edge 29, Type (0, 0), BuildingBlock: ZUJKAS_clean_linker_0, # of connection points: 2
#     Edge 30, Type (0, 0), BuildingBlock: ZUJKAS_clean_linker_0, # of connection points: 2
#     Edge 31, Type (0, 0), BuildingBlock: ZUJKAS_clean_linker_0, # of connection points: 2
#     Edge 32, Type (0, 0), BuildingBlock: ZUJKAS_clean_linker_0, # of connection points: 2
#     Edge 33, Type (0, 0), BuildingBlock: ZUJKAS_clean_linker_0, # of connection points: 2
#     Edge 34, Type (0, 0), BuildingBlock: ZUJKAS_clean_linker_0, # of connection points: 2
#     Edge 35, Type (0, 0), BuildingBlock: ZUJKAS_clean_linker_0, # of connection points: 2
#     Edge 36, Type (0, 0), BuildingBlock: ZUJKAS_clean_linker_0, # of connection points: 2
#     Edge 37, Type (0, 0), BuildingBlock: ZUJKAS_clean_linker_0, # of connection points: 2
#     Edge 38, Type (0, 0), BuildingBlock: ZUJKAS_clean_linker_0, # of connection points: 2
#     Edge 39, Type (0, 0), BuildingBlock: ZUJKAS_clean_linker_0, # of connection points: 2
#     Edge 40, Type (0, 0), BuildingBlock: ZUJKAS_clean_linker_0, # of connection points: 2
#     Edge 41, Type (0, 0), BuildingBlock: ZUJKAS_clean_linker_0, # of connection points: 2
#     Edge 42, Type (0, 0), BuildingBlock: ZUJKAS_clean_linker_0, # of connection points: 2
#     Edge 43, Type (0, 0), BuildingBlock: ZUJKAS_clean_linker_0, # of connection points: 2
#     Edge 44, Type (0, 0), BuildingBlock: ZUJKAS_clean_linker_0, # of connection points: 2
#     Edge 45, Type (0, 0), BuildingBlock: ZUJKAS_clean_linker_0, # of connection points: 2
#     Edge 46, Type (0, 0), BuildingBlock: ZUJKAS_clean_linker_0, # of connection points: 2
#     Edge 47, Type (0, 0), BuildingBlock: ZUJKAS_clean_linker_0, # of connection points: 2
#     Edge 48, Type (0, 0), BuildingBlock: ZUJKAS_clean_linker_0, # of connection points: 2
#     Edge 49, Type (0, 0), BuildingBlock: ZUJKAS_clean_linker_0, # of connection points: 2
#     Edge 50, Type (0, 0), BuildingBlock: ZUJKAS_clean_linker_0, # of connection points: 2
#     Edge 51, Type (0, 0), BuildingBlock: ZUJKAS_clean_linker_0, # of connection points: 2
#     Edge 52, Type (0, 0), BuildingBlock: ZUJKAS_clean_linker_0, # of connection points: 2
#     Edge 53, Type (0, 0), BuildingBlock: ZUJKAS_clean_linker_0, # of connection points: 2
#     Edge 54, Type (0, 0), BuildingBlock: ZUJKAS_clean_linker_0, # of connection points: 2
#     Edge 55, Type (0, 0), BuildingBlock: ZUJKAS_clean_linker_0, # of connection points: 2
#     Edge 56, Type (0, 0), BuildingBlock: ZUJKAS_clean_linker_0, # of connection points: 2
#     Edge 57, Type (0, 0), BuildingBlock: ZUJKAS_clean_linker_0, # of connection points: 2
#     Edge 58, Type (0, 0), BuildingBlock: ZUJKAS_clean_linker_0, # of connection points: 2
#     Edge 59, Type (0, 0), BuildingBlock: ZUJKAS_clean_linker_0, # of connection points: 2
#     Edge 60, Type (0, 0), BuildingBlock: ZUJKAS_clean_linker_0, # of connection points: 2
#     Edge 61, Type (0, 0), BuildingBlock: ZUJKAS_clean_linker_0, # of connection points: 2
#     Edge 62, Type (0, 0), BuildingBlock: ZUJKAS_clean_linker_0, # of connection points: 2
#     Edge 63, Type (0, 0), BuildingBlock: ZUJKAS_clean_linker_0, # of connection points: 2
# Relax obj value: 0.432
# Max RMSD: 0.273
# Mean RMSD: 0.273
data_MOF--net-whk--node1-UKALOJ_clean_sbu_0--edge1-ZUJKAS_clean_linker_0
_symmetry_space_group_name_H-M    P1
_symmetry_Int_Tables_number       1
_symmetry_cell_setting            triclinic
loop_
_symmetry_equiv_pos_as_xyz
'x, y, z'
_cell_length_a     48.073896
_cell_length_b     48.101563
_cell_length_c     67.799002
_cell_angle_alpha  89.997698
_cell_angle_beta   89.998683
_cell_angle_gamma 89.995386
loop_
_atom_site_label
_atom_site_type_symbol
_atom_site_fract_x
_atom_site_fract_y
_atom_site_fract_z
_atom_type_partial_charge
Zn0 Zn 0.54936 0.18203 0.37761 0.0
O1 O 0.55604 0.16494 0.34976 0.0
C2 C 0.50747 0.13776 0.38595 0.0
Zn3 Zn 0.56798 0.14458 0.39182 0.0
C4 C 0.56679 0.14098 0.34779 0.0
O5 O 0.57403 0.12732 0.36305 0.0
C6 C 0.54991 0.18673 0.42133 0.0
O7 O 0.60721 0.16378 0.38962 0.0
O8 O 0.58917 0.20129 0.37656 0.0
N9 N 0.58622 0.11037 0.40454 0.0
C10 C 0.60804 0.1086 0.41698 0.0
C11 C 0.59495 0.06716 0.41081 0.0
N12 N 0.57806 0.08458 0.40076 0.0
N13 N 0.61404 0.08183 0.42093 0.0
C14 C 0.51001 0.23219 0.37029 0.0
C15 C 0.53367 0.25649 0.35005 0.0
N16 N 0.53269 0.2172 0.36537 0.0
N17 N 0.54722 0.23225 0.35267 0.0
N18 N 0.51037 0.25712 0.36109 0.0
H19 H 0.47927 0.20145 0.37686 0.0
H20 H 0.46848 0.23564 0.3829 0.0
H21 H 0.49389 0.218 0.39815 0.0
C22 C 0.48663 0.22147 0.38285 0.0
C23 C 0.62282 0.13285 0.42616 0.0
H24 H 0.61027 0.15204 0.42566 0.0
H25 H 0.64261 0.13648 0.4182 0.0
H26 H 0.62808 0.12812 0.44174 0.0
O27 O 0.56128 0.16289 0.4203 0.0
O28 O 0.54277 0.19896 0.40557 0.0
C29 C 0.61036 0.18802 0.3826 0.0
O30 O 0.5104 0.16186 0.37854 0.0
O31 O 0.52847 0.12543 0.39325 0.0
Zn32 Zn 0.34998 0.57006 0.39354 0.0
O33 O 0.32993 0.60844 0.39005 0.0
C34 C 0.30674 0.55407 0.4231 0.0
Zn35 Zn 0.31297 0.5503 0.37958 0.0
C36 C 0.30628 0.61118 0.382 0.0
O37 O 0.29341 0.5897 0.37603 0.0
C38 C 0.35778 0.50966 0.3901 0.0
O39 O 0.33173 0.55467 0.35182 0.0
O40 O 0.36797 0.57525 0.36511 0.0
N41 N 0.27925 0.53166 0.36683 0.0
C42 C 0.26204 0.5117 0.37359 0.0
C43 C 0.24544 0.52603 0.34627 0.0
N44 N 0.26899 0.54042 0.34979 0.0
N45 N 0.24054 0.50801 0.36107 0.0
C46 C 0.38403 0.61222 0.4183 0.0
C47 C 0.42598 0.59979 0.41319 0.0
N48 N 0.38324 0.58992 0.40624 0.0
N49 N 0.40934 0.58223 0.40308 0.0
N50 N 0.41055 0.61899 0.42264 0.0
H51 H 0.34029 0.61317 0.42643 0.0
H52 H 0.35463 0.64561 0.41834 0.0
H53 H 0.36302 0.63258 0.44239 0.0
C54 C 0.35897 0.62645 0.42687 0.0
C55 C 0.26686 0.49486 0.3919 0.0
H56 H 0.25902 0.47335 0.38987 0.0
H57 H 0.25538 0.50432 0.40435 0.0
H58 H 0.28913 0.49413 0.39587 0.0
O59 O 0.33339 0.51142 0.38294 0.0
O60 O 0.37007 0.53147 0.39609 0.0
C61 C 0.35528 0.56633 0.34989 0.0
O62 O 0.33112 0.5642 0.42192 0.0
O63 O 0.29442 0.54656 0.40744 0.0
Zn64 Zn 0.94421 0.31472 0.38087 0.0
O65 O 0.93648 0.33037 0.35245 0.0
C66 C 0.98541 0.35998 0.3878 0.0
Zn67 Zn 0.9249 0.35265 0.39393 0.0
C68 C 0.92565 0.35422 0.34998 0.0
O69 O 0.91877 0.36861 0.36497 0.0
C70 C 0.94386 0.31268 0.42476 0.0
O71 O 0.88596 0.33266 0.39196 0.0
O72 O 0.90497 0.29449 0.38065 0.0
N73 N 0.90598 0.38708 0.40584 0.0
C74 C 0.88395 0.3889 0.41809 0.0
C75 C 0.89623 0.43034 0.41113 0.0
N76 N 0.91363 0.41287 0.40157 0.0
N77 N 0.8773 0.41568 0.42142 0.0
C78 C 0.98253 0.26326 0.37525 0.0
C79 C 0.96335 0.24278 0.35094 0.0
N80 N 0.96152 0.27961 0.36901 0.0
N81 N 0.94975 0.26693 0.35383 0.0
N82 N 0.98389 0.23977 0.36431 0.0
H83 H 0.00399 0.29358 0.39326 0.0
H84 H 0.02322 0.26209 0.38864 0.0
H85 H 0.99436 0.26222 0.40557 0.0
C86 C 0.00225 0.27084 0.39152 0.0
C87 C 0.86952 0.36474 0.42769 0.0
H88 H 0.88238 0.34575 0.42761 0.0
H89 H 0.84985 0.36047 0.41975 0.0
H90 H 0.86407 0.36996 0.44316 0.0
O91 O 0.9315 0.33586 0.42277 0.0
O92 O 0.95183 0.29955 0.40953 0.0
C93 C 0.88342 0.30783 0.38591 0.0
O94 O 0.98266 0.33561 0.38081 0.0
O95 O 0.96434 0.37237 0.39501 0.0
Zn96 Zn 0.14494 0.92529 0.39248 0.0
O97 O 0.16551 0.88729 0.38915 0.0
C98 C 0.18849 0.94201 0.4217 0.0
Zn99 Zn 0.18136 0.94567 0.37822 0.0
C100 C 0.18916 0.88487 0.38108 0.0
O101 O 0.20144 0.90647 0.37471 0.0
C102 C 0.13606 0.98559 0.38884 0.0
O103 O 0.16245 0.94101 0.35067 0.0
O104 O 0.12677 0.91961 0.36403 0.0
N105 N 0.2147 0.96459 0.36522 0.0
C106 C 0.23166 0.98491 0.37174 0.0
C107 C 0.24875 0.96975 0.3448 0.0
N108 N 0.22525 0.95533 0.3484 0.0
N109 N 0.25331 0.98831 0.35931 0.0
C110 C 0.11158 0.88679 0.4205 0.0
C111 C 0.07041 0.88902 0.40891 0.0
N112 N 0.11215 0.90486 0.40529 0.0
N113 N 0.08654 0.90622 0.39811 0.0
N114 N 0.08563 0.87678 0.42314 0.0
H115 H 0.13474 0.85514 0.436 0.0
H116 H 0.13789 0.88967 0.44583 0.0
H117 H 0.15614 0.88042 0.42376 0.0
C118 C 0.1366 0.87743 0.432 0.0
C119 C 0.22648 0.00236 0.38971 0.0
H120 H 0.23388 0.02393 0.38722 0.0
H121 H 0.23818 0.9937 0.40233 0.0
H122 H 0.20423 0.00277 0.39371 0.0
O123 O 0.16042 0.9842 0.38159 0.0
O124 O 0.12416 0.96362 0.39496 0.0
C125 C 0.13914 0.92888 0.34879 0.0
O126 O 0.16423 0.9315 0.42081 0.0
O127 O 0.20023 0.94984 0.40589 0.0
Zn128 Zn 0.05091 0.81209 0.12108 0.0
O129 O 0.05678 0.82801 0.1495 0.0
C130 C 0.00964 0.85704 0.11318 0.0
Zn131 Zn 0.07008 0.84974 0.10761 0.0
C132 C 0.06814 0.85163 0.1518 0.0
O133 O 0.07596 0.86536 0.13673 0.0
C134 C 0.05294 0.80934 0.07692 0.0
O135 O 0.10913 0.82951 0.10933 0.0
O136 O 0.09027 0.7925 0.12268 0.0
N137 N 0.08865 0.88458 0.09626 0.0
C138 C 0.11042 0.88736 0.0839 0.0
C139 C 0.09667 0.92821 0.09122 0.0
N140 N 0.08012 0.91 0.10079 0.0
N141 N 0.11606 0.91445 0.08073 0.0
C142 C 0.01183 0.76116 0.12587 0.0
C143 C 0.03153 0.73883 0.14915 0.0
N144 N 0.0332 0.77687 0.13235 0.0
N145 N 0.04527 0.76304 0.14691 0.0
N146 N 0.01063 0.73697 0.13597 0.0
H147 H 0.98841 0.79256 0.11003 0.0
H148 H 0.97098 0.75992 0.11259 0.0
H149 H -0.00055 0.76368 0.09556 0.0
C150 C 0.99151 0.7699 0.11022 0.0
C151 C 0.12527 0.86375 0.07398 0.0
H152 H 0.11272 0.84454 0.07384 0.0
H153 H 0.14493 0.8596 0.08198 0.0
H154 H 0.13063 0.86937 0.05856 0.0
O155 O 0.06374 0.83332 0.07876 0.0
O156 O 0.04539 0.79623 0.09227 0.0
C157 C 0.11167 0.80525 0.11648 0.0
O158 O 0.01236 0.83264 0.12005 0.0
O159 O 0.03084 0.86963 0.10642 0.0
Zn160 Zn 0.68354 0.04899 0.12159 0.0
O161 O 0.66476 0.0534 0.14928 0.0
C162 C 0.63811 0.0093 0.11069 0.0
Zn163 Zn 0.64707 0.06932 0.10738 0.0
C164 C 0.64135 0.06535 0.15112 0.0
O165 O 0.62895 0.07448 0.13585 0.0
C166 C 0.69052 0.05312 0.07804 0.0
O167 O 0.66757 0.10712 0.1111 0.0
O168 O 0.7037 0.08801 0.12535 0.0
N169 N 0.61429 0.09007 0.09488 0.0
C170 C 0.61368 0.10848 0.07988 0.0
C171 C 0.57264 0.10634 0.09172 0.0
N172 N 0.58877 0.08876 0.1022 0.0
N173 N 0.58779 0.11878 0.07753 0.0
C174 C 0.73362 0.00942 0.12764 0.0
C175 C 0.7506 0.02366 0.15487 0.0
N176 N 0.71679 0.02972 0.13437 0.0
N177 N 0.72728 0.03843 0.15136 0.0
N178 N 0.7551 0.00546 0.14012 0.0
H179 H 0.73575 0.97087 0.11155 0.0
H180 H 0.74022 0.00157 0.09693 0.0
H181 H 0.70619 0.99233 0.10536 0.0
C182 C 0.72845 0.99255 0.10939 0.0
C183 C 0.63865 0.11788 0.06833 0.0
H184 H 0.63684 0.14021 0.06444 0.0
H185 H 0.63982 0.10575 0.05445 0.0
H186 H 0.65823 0.11477 0.07651 0.0
O187 O 0.66626 0.0636 0.07899 0.0
O188 O 0.70229 0.04516 0.0938 0.0
C189 C 0.69118 0.1096 0.11921 0.0
O190 O 0.66243 0.01059 0.11802 0.0
O191 O 0.6263 0.03129 0.10457 0.0
Zn192 Zn 0.42785 0.64471 0.10894 0.0
O193 O 0.38865 0.66442 0.11079 0.0
C194 C 0.44475 0.68687 0.07924 0.0
Zn195 Zn 0.44678 0.68189 0.12319 0.0
C196 C 0.38581 0.68827 0.11854 0.0
O197 O 0.40703 0.70082 0.12525 0.0
C198 C 0.48852 0.63781 0.11438 0.0
O199 O 0.44133 0.66456 0.15108 0.0
O200 O 0.42171 0.62776 0.13783 0.0
N201 N 0.4639 0.71676 0.13537 0.0
C202 C 0.48473 0.73338 0.12916 0.0
C203 C 0.465 0.75375 0.15332 0.0
N204 N 0.45182 0.72937 0.15047 0.0
N205 N 0.48556 0.75695 0.14 0.0
C206 C 0.3885 0.60761 0.08394 0.0
C207 C 0.40278 0.56667 0.09047 0.0
N208 N 0.40988 0.61016 0.09667 0.0
N209 N 0.41872 0.58469 0.10072 0.0
N210 N 0.38346 0.58059 0.08003 0.0
H211 H 0.35349 0.63472 0.08208 0.0
H212 H 0.36889 0.6265 0.05871 0.0
H213 H 0.38565 0.65088 0.07499 0.0
C214 C 0.37353 0.63142 0.07436 0.0
C215 C 0.50492 0.72604 0.11307 0.0
H216 H 0.50856 0.70348 0.11225 0.0
H217 H 0.52523 0.73645 0.1155 0.0
H218 H 0.49651 0.73281 0.09866 0.0
O219 O 0.48579 0.66203 0.12158 0.0
O220 O 0.46728 0.62532 0.10759 0.0
C221 C 0.42988 0.64094 0.15307 0.0
O222 O 0.43443 0.66257 0.08039 0.0
O223 O 0.45191 0.69927 0.09496 0.0
Zn224 Zn 0.81417 0.44399 0.12187 0.0
O225 O 0.83321 0.44058 0.14959 0.0
C226 C 0.85907 0.48408 0.11049 0.0
Zn227 Zn 0.85119 0.42383 0.10823 0.0
C228 C 0.85661 0.42871 0.1518 0.0
O229 O 0.86927 0.41909 0.13679 0.0
C230 C 0.80763 0.43911 0.07852 0.0
O231 O 0.83097 0.3859 0.11218 0.0
O232 O 0.79456 0.40484 0.1262 0.0
N233 N 0.88403 0.40317 0.09564 0.0
C234 C 0.88448 0.38492 0.08053 0.0
C235 C 0.92578 0.38741 0.09185 0.0
N236 N 0.90972 0.40468 0.10265 0.0
N237 N 0.91043 0.37498 0.07777 0.0
C238 C 0.76348 0.483 0.12747 0.0
C239 C 0.74741 0.47004 0.15529 0.0
N240 N 0.78072 0.46325 0.13449 0.0
N241 N 0.7708 0.45534 0.15184 0.0
N242 N 0.74229 0.48741 0.14014 0.0
H243 H 0.76005 0.52049 0.11022 0.0
H244 H 0.75648 0.48875 0.09657 0.0
H245 H 0.79024 0.49962 0.10463 0.0
C246 C 0.768 0.49894 0.10871 0.0
C247 C 0.85934 0.37534 0.06923 0.0
H248 H 0.83994 0.37797 0.0777 0.0
H249 H 0.86139 0.35311 0.06511 0.0
H250 H 0.85759 0.3877 0.05548 0.0
O251 O 0.8321 0.42923 0.07981 0.0
O252 O 0.79526 0.44681 0.0941 0.0
C253 C 0.80735 0.38329 0.12027 0.0
O254 O 0.83464 0.48257 0.11761 0.0
O255 O 0.87155 0.46206 0.1051 0.0
Zn256 Zn 0.44638 0.81322 0.62485 0.0
O257 O 0.43974 0.83099 0.65252 0.0
C258 C 0.48696 0.85862 0.61559 0.0
Zn259 Zn 0.42682 0.85006 0.61048 0.0
C260 C 0.42873 0.85487 0.6543 0.0
O261 O 0.42106 0.86808 0.63895 0.0
C262 C 0.44486 0.80732 0.58122 0.0
O263 O 0.38833 0.82971 0.61363 0.0
O264 O 0.40739 0.79269 0.62669 0.0
N265 N 0.40692 0.88307 0.59739 0.0
C266 C 0.38477 0.88347 0.58516 0.0
C267 C 0.39669 0.92559 0.59002 0.0
N268 N 0.4143 0.90929 0.60039 0.0
N269 N 0.3778 0.90981 0.58056 0.0
C270 C 0.48626 0.76335 0.63182 0.0
C271 C 0.46628 0.74224 0.65554 0.0
N272 N 0.46464 0.77926 0.63761 0.0
N273 N 0.45242 0.7662 0.65247 0.0
N274 N 0.48745 0.73978 0.64263 0.0
H275 H 0.51039 0.79402 0.61594 0.0
H276 H 0.52718 0.76102 0.61871 0.0
H277 H 0.49895 0.76516 0.60153 0.0
C278 C 0.50688 0.7714 0.61619 0.0
C279 C 0.37081 0.85824 0.57665 0.0
H280 H 0.35136 0.85412 0.58491 0.0
H281 H 0.36508 0.86202 0.56102 0.0
H282 H 0.3841 0.83958 0.57743 0.0
O283 O 0.43329 0.83105 0.58223 0.0
O284 O 0.4528 0.79555 0.59699 0.0
C285 C 0.38582 0.80554 0.62089 0.0
O286 O 0.48451 0.83467 0.62331 0.0
O287 O 0.46569 0.87042 0.60822 0.0
Zn288 Zn 0.64636 0.42548 0.60653 0.0
O289 O 0.66868 0.38779 0.60696 0.0
C290 C 0.68672 0.44617 0.57682 0.0
Zn291 Zn 0.68285 0.44595 0.6207 0.0
C292 C 0.69251 0.38577 0.61484 0.0
O293 O 0.70375 0.40713 0.62239 0.0
C294 C 0.63623 0.48526 0.61281 0.0
O295 O 0.66597 0.43915 0.64872 0.0
O296 O 0.63083 0.41682 0.63534 0.0
N297 N 0.71717 0.4644 0.63277 0.0
C298 C 0.7302 0.48839 0.62827 0.0
C299 C 0.75674 0.4658 0.64768 0.0
N300 N 0.7336 0.4505 0.64495 0.0
N301 N 0.75525 0.4896 0.63726 0.0
C302 C 0.61157 0.38422 0.58138 0.0
C303 C 0.56982 0.39432 0.58917 0.0
N304 N 0.61277 0.40554 0.59427 0.0
N305 N 0.58678 0.41181 0.59907 0.0
N306 N 0.58496 0.37661 0.57816 0.0
H307 H 0.65429 0.38577 0.57106 0.0
H308 H 0.64201 0.3522 0.5788 0.0
H309 H 0.63079 0.36629 0.55565 0.0
C310 C 0.63618 0.37166 0.57111 0.0
C311 C 0.7171 0.51149 0.61663 0.0
H312 H 0.69829 0.51868 0.62456 0.0
H313 H 0.73084 0.52981 0.6151 0.0
H314 H 0.71072 0.50392 0.60187 0.0
O315 O 0.66113 0.48406 0.61904 0.0
O316 O 0.6243 0.46335 0.60666 0.0
C317 C 0.64339 0.4257 0.65064 0.0
O318 O 0.66283 0.4349 0.57801 0.0
O319 O 0.69957 0.45253 0.59253 0.0
Zn320 Zn 0.06956 0.64565 0.6106 0.0
O321 O 0.10822 0.66527 0.61392 0.0
C322 C 0.05464 0.68879 0.58073 0.0
Zn323 Zn 0.05074 0.68337 0.62424 0.0
C324 C 0.11153 0.68898 0.62174 0.0
O325 O 0.0904 0.70225 0.62791 0.0
C326 C 0.00917 0.63922 0.61363 0.0
O327 O 0.05433 0.66498 0.65209 0.0
O328 O 0.07432 0.62808 0.63929 0.0
N329 N 0.03239 0.7175 0.63661 0.0
C330 C 0.01278 0.73486 0.62952 0.0
C331 C 0.0265 0.75144 0.65701 0.0
N332 N 0.04078 0.72775 0.65374 0.0
N333 N 0.00894 0.75643 0.64194 0.0
C334 C 0.10728 0.6111 0.58282 0.0
C335 C 0.10464 0.57015 0.59471 0.0
N336 N 0.0894 0.61215 0.59814 0.0
N337 N 0.0878 0.58668 0.60552 0.0
N338 N 0.11688 0.585 0.58028 0.0
H339 H 0.13893 0.63331 0.56657 0.0
H340 H 0.10406 0.63747 0.55753 0.0
H341 H 0.11491 0.65541 0.57938 0.0
C342 C 0.11688 0.63581 0.57107 0.0
C343 C 0.99643 0.73014 0.61096 0.0
H344 H 0.97498 0.73837 0.6126 0.0
H345 H 0.00651 0.7413 0.59861 0.0
H346 H 0.9954 0.70786 0.60711 0.0
O347 O 0.0116 0.66364 0.62062 0.0
O348 O 0.0307 0.62607 0.60802 0.0
C349 C 0.06547 0.64125 0.65433 0.0
O350 O 0.06397 0.66414 0.58208 0.0
O351 O 0.04772 0.70163 0.5963 0.0
Zn352 Zn 0.84893 0.06791 0.6047 0.0
O353 O 0.82831 0.10647 0.60527 0.0
C354 C 0.80489 0.04942 0.57683 0.0
Zn355 Zn 0.81254 0.04989 0.62048 0.0
C356 C 0.80535 0.11005 0.61413 0.0
O357 O 0.79362 0.08953 0.62247 0.0
C358 C 0.85644 0.00779 0.61158 0.0
O359 O 0.83226 0.05675 0.64752 0.0
O360 O 0.86776 0.07648 0.63263 0.0
N361 N 0.77897 0.03292 0.63453 0.0
C362 C 0.7614 0.01268 0.62874 0.0
C363 C 0.74507 0.02985 0.65531 0.0
N364 N 0.7689 0.04344 0.65113 0.0
N365 N 0.73986 0.01058 0.64139 0.0
C366 C 0.89067 0.1118 0.58868 0.0
C367 C 0.91149 0.0891 0.56614 0.0
N368 N 0.88159 0.08531 0.5897 0.0
N369 N 0.89479 0.07118 0.5758 0.0
N370 N 0.90919 0.11481 0.57385 0.0
H371 H 0.87751 0.12549 0.61749 0.0
H372 H 0.89966 0.1497 0.60437 0.0
H373 H 0.86397 0.14539 0.59721 0.0
C374 C 0.88256 0.13435 0.60283 0.0
C375 C 0.76575 0.99414 0.61121 0.0
H376 H 0.78797 0.99254 0.60722 0.0
H377 H 0.75747 0.97303 0.61423 0.0
H378 H 0.75437 0.00267 0.59838 0.0
O379 O 0.83227 0.01072 0.61888 0.0
O380 O 0.86884 0.02878 0.60433 0.0
C381 C 0.85572 0.06883 0.64847 0.0
O382 O 0.82944 0.05922 0.57711 0.0
O383 O 0.79298 0.04372 0.59303 0.0
Zn384 Zn 0.94609 0.18503 0.87566 0.0
O385 O 0.94205 0.16729 0.8476 0.0
C386 C 0.98697 0.13999 0.88577 0.0
Zn387 Zn 0.92647 0.14723 0.88868 0.0
C388 C 0.93094 0.14361 0.84499 0.0
O389 O 0.922 0.13001 0.85982 0.0
C390 C 0.94189 0.18952 0.91918 0.0
O391 O 0.88807 0.16744 0.88497 0.0
O392 O 0.90688 0.20485 0.87226 0.0
N393 N 0.90619 0.11378 0.90096 0.0
C394 C 0.88384 0.11303 0.913 0.0
C395 C 0.89631 0.07109 0.90805 0.0
N396 N 0.9139 0.08767 0.8979 0.0
N397 N 0.87706 0.08657 0.91743 0.0
C398 C 0.98556 0.23554 0.87073 0.0
C399 C 0.97201 0.25315 0.84353 0.0
N400 N 0.96523 0.21902 0.86364 0.0
N401 N 0.95695 0.22991 0.84668 0.0
N402 N 0.98997 0.25721 0.85849 0.0
H403 H 0.00201 0.20757 0.89294 0.0
H404 H 0.02385 0.237 0.88721 0.0
H405 H 0.99286 0.24151 0.90156 0.0
C406 C 0.00205 0.22987 0.88909 0.0
C407 C 0.86956 0.13805 0.92159 0.0
H408 H 0.88252 0.15692 0.92081 0.0
H409 H 0.85001 0.14193 0.91338 0.0
H410 H 0.86397 0.13415 0.93723 0.0
O411 O 0.93171 0.16526 0.91736 0.0
O412 O 0.94965 0.20253 0.90386 0.0
C413 C 0.88534 0.19154 0.87762 0.0
O414 O 0.98471 0.16443 0.87882 0.0
O415 O 0.9653 0.12718 0.89154 0.0
Zn416 Zn 0.3461 0.92911 0.89396 0.0
O417 O 0.32632 0.89031 0.8913 0.0
C418 C 0.30144 0.94674 0.92172 0.0
Zn419 Zn 0.30993 0.94797 0.87837 0.0
C420 C 0.30329 0.88713 0.88247 0.0
O421 O 0.29119 0.90817 0.8751 0.0
C422 C 0.35344 0.9897 0.88913 0.0
O423 O 0.33005 0.94296 0.85151 0.0
O424 O 0.36548 0.92242 0.86586 0.0
N425 N 0.27675 0.96533 0.86424 0.0
C426 C 0.26078 0.98763 0.86839 0.0
C427 C 0.24166 0.96622 0.84444 0.0
N428 N 0.26496 0.95223 0.84923 0.0
N429 N 0.23866 0.98862 0.85616 0.0
C430 C 0.37913 0.89203 0.92328 0.0
C431 C 0.42058 0.89446 0.91227 0.0
N432 N 0.37883 0.90991 0.90793 0.0
N433 N 0.40463 0.91142 0.90115 0.0
N434 N 0.40508 0.88221 0.92636 0.0
H435 H 0.35537 0.86007 0.93795 0.0
H436 H 0.35261 0.89418 0.94854 0.0
H437 H 0.3344 0.88621 0.92623 0.0
C438 C 0.35384 0.88255 0.93444 0.0
C439 C 0.26557 0.00728 0.88525 0.0
H440 H 0.27092 0.02808 0.87932 0.0
H441 H 0.24622 0.00944 0.89406 0.0
H442 H 0.28274 0.00053 0.89493 0.0
O443 O 0.32946 0.98713 0.88141 0.0
O444 O 0.36577 0.96833 0.89592 0.0
C445 C 0.35359 0.93118 0.85027 0.0
O446 O 0.32587 0.9366 0.92162 0.0
O447 O 0.28985 0.95274 0.90547 0.0
Zn448 Zn 0.5701 0.35127 0.89158 0.0
O449 O 0.6085 0.3309 0.88791 0.0
C450 C 0.55444 0.309 0.92185 0.0
Zn451 Zn 0.55028 0.31374 0.8783 0.0
C452 C 0.61102 0.30687 0.88041 0.0
O453 O 0.58937 0.29382 0.87495 0.0
C454 C 0.50959 0.35887 0.88832 0.0
O455 O 0.55457 0.33151 0.85029 0.0
O456 O 0.57485 0.36849 0.86279 0.0
N457 N 0.53115 0.27972 0.86627 0.0
C458 C 0.511 0.26305 0.87344 0.0
C459 C 0.52478 0.24529 0.84635 0.0
N460 N 0.53957 0.26874 0.84937 0.0
N461 N 0.50685 0.24118 0.86133 0.0
C462 C 0.61299 0.38535 0.91568 0.0
C463 C 0.6007 0.42736 0.91072 0.0
N464 N 0.59037 0.38468 0.90389 0.0
N465 N 0.58274 0.41082 0.90085 0.0
N466 N 0.62001 0.41179 0.91994 0.0
H467 H 0.61421 0.34163 0.92383 0.0
H468 H 0.64649 0.35611 0.91531 0.0
H469 H 0.63404 0.36445 0.93947 0.0
C470 C 0.62748 0.36034 0.92405 0.0
C471 C 0.49443 0.26876 0.89176 0.0
H472 H 0.49397 0.29117 0.8953 0.0
H473 H 0.4728 0.26109 0.89001 0.0
H474 H 0.50393 0.25767 0.90437 0.0
O475 O 0.51175 0.33443 0.88135 0.0
O476 O 0.53128 0.37148 0.89428 0.0
C477 C 0.56596 0.35509 0.84786 0.0
O478 O 0.56474 0.33323 0.9202 0.0
O479 O 0.5466 0.29623 0.90646 0.0
Zn480 Zn 0.18868 0.549 0.87673 0.0
O481 O 0.16693 0.55472 0.85055 0.0
C482 C 0.14628 0.50632 0.88739 0.0
Zn483 Zn 0.15304 0.56686 0.8934 0.0
C484 C 0.14327 0.56643 0.85005 0.0
O485 O 0.13207 0.57471 0.86605 0.0
C486 C 0.19927 0.54896 0.9198 0.0
O487 O 0.17278 0.60581 0.89191 0.0
O488 O 0.20653 0.58917 0.87369 0.0
N489 N 0.1214 0.58404 0.90961 0.0
C490 C 0.11176 0.61035 0.91044 0.0
C491 C 0.09482 0.58861 0.93501 0.0
N492 N 0.11061 0.5705 0.92479 0.0
N493 N 0.09533 0.61391 0.92645 0.0
C494 C 0.2378 0.51041 0.86506 0.0
C495 C 0.25598 0.5328 0.84119 0.0
N496 N 0.22145 0.53264 0.8615 0.0
N497 N 0.23265 0.54636 0.84654 0.0
N498 N 0.25955 0.51005 0.85249 0.0
H499 H 0.22885 0.46948 0.87564 0.0
H500 H 0.25353 0.48831 0.89025 0.0
H501 H 0.21691 0.49636 0.89177 0.0
C502 C 0.2339 0.49026 0.88175 0.0
C503 C 0.11716 0.63199 0.89498 0.0
H504 H 0.12021 0.62219 0.88036 0.0
H505 H 0.09957 0.64689 0.89417 0.0
H506 H 0.13629 0.64372 0.89867 0.0
O507 O 0.17467 0.55863 0.9203 0.0
O508 O 0.21033 0.54364 0.90326 0.0
C509 C 0.19501 0.60965 0.88222 0.0
O510 O 0.17004 0.5094 0.87945 0.0
O511 O 0.13391 0.52733 0.89466 0.0
H512 H 0.5449 0.16051 0.31351 0.0
H513 H 0.55338 0.14368 0.28015 0.0
H514 H 0.60707 0.07952 0.30313 0.0
H515 H 0.59811 0.09588 0.33678 0.0
H516 H 0.60319 0.14277 0.26192 0.0
H517 H 0.55928 0.03615 0.26455 0.0
H518 H 0.55206 0.06186 0.28326 0.0
H519 H 0.58439 0.04306 0.28352 0.0
C520 C 0.55831 0.14263 0.31153 0.0
C521 C 0.57093 0.12956 0.32778 0.0
C522 C 0.56308 0.13301 0.29244 0.0
C523 C 0.5806 0.11018 0.28917 0.0
C524 C 0.59297 0.09679 0.30536 0.0
H525 H 0.66011 0.04369 0.18583 0.0
H526 H 0.64307 0.05358 0.21903 0.0
C527 C 0.588 0.10627 0.32455 0.0
C528 C 0.58744 0.10194 0.2687 0.0
H529 H 0.58632 0.04769 0.2362 0.0
C530 C 0.59927 0.12205 0.25625 0.0
C531 C 0.58235 0.07487 0.26137 0.0
C532 C 0.56858 0.05279 0.2738 0.0
C533 C 0.60658 0.11572 0.23676 0.0
C534 C 0.60171 0.08864 0.22951 0.0
C535 C 0.58988 0.06847 0.24188 0.0
C536 C 0.60997 0.08073 0.20931 0.0
C537 C 0.62008 0.13784 0.2242 0.0
C538 C 0.5965 0.09229 0.19288 0.0
C539 C 0.60614 0.08668 0.17384 0.0
C540 C 0.62945 0.06949 0.171 0.0
C541 C 0.64222 0.05718 0.18751 0.0
C542 C 0.63248 0.06269 0.20649 0.0
H543 H 0.62681 0.15607 0.23306 0.0
H544 H 0.63844 0.12927 0.21633 0.0
H545 H 0.605 0.14514 0.21294 0.0
H546 H 0.57891 0.1061 0.19484 0.0
H547 H 0.59581 0.09638 0.16142 0.0
H548 H 0.45318 0.6594 0.18719 0.0
H549 H 0.44477 0.64262 0.22057 0.0
H550 H 0.38857 0.58044 0.1979 0.0
H551 H 0.39743 0.59673 0.16422 0.0
H552 H 0.39519 0.64335 0.23916 0.0
H553 H 0.43539 0.53531 0.23607 0.0
H554 H 0.44325 0.56083 0.21735 0.0
H555 H 0.41031 0.54312 0.21725 0.0
C556 C 0.43925 0.64194 0.18924 0.0
C557 C 0.42588 0.62943 0.17307 0.0
C558 C 0.43451 0.63236 0.20834 0.0
C559 C 0.41629 0.61011 0.21171 0.0
C560 C 0.4032 0.59724 0.19559 0.0
H561 H 0.33564 0.54548 0.31517 0.0
H562 H 0.35272 0.5551 0.28193 0.0
C563 C 0.40813 0.60669 0.17638 0.0
C564 C 0.40944 0.60203 0.23221 0.0
H565 H 0.40894 0.5476 0.26456 0.0
C566 C 0.39844 0.62247 0.24476 0.0
C567 C 0.41366 0.57476 0.23944 0.0
C568 C 0.42654 0.55229 0.2269 0.0
C569 C 0.39105 0.6163 0.26425 0.0
C570 C 0.39502 0.58901 0.27142 0.0
C571 C 0.40606 0.56852 0.25895 0.0
C572 C 0.38662 0.58127 0.29162 0.0
C573 C 0.37841 0.6388 0.27692 0.0
C574 C 0.4005 0.59237 0.30804 0.0
C575 C 0.39083 0.58692 0.32709 0.0
C576 C 0.36708 0.57035 0.32997 0.0
C577 C 0.35387 0.5585 0.31346 0.0
C578 C 0.36363 0.56385 0.29446 0.0
H579 H 0.37217 0.65727 0.26812 0.0
H580 H 0.35987 0.63082 0.28488 0.0
H581 H 0.39385 0.64559 0.2881 0.0
H582 H 0.41846 0.60568 0.30606 0.0
H583 H 0.40152 0.59625 0.3395 0.0
H584 H 0.89808 0.40157 0.33888 0.0
H585 H 0.88917 0.41791 0.30522 0.0
H586 H 0.93375 0.34746 0.28188 0.0
H587 H 0.94279 0.33092 0.31535 0.0
H588 H 0.94662 0.40282 0.26435 0.0
H589 H 0.83397 0.37615 0.267 0.0
H590 H 0.8474 0.39654 0.2871 0.0
H591 H 0.85896 0.36137 0.2839 0.0
C592 C 0.90608 0.38961 0.32659 0.0
C593 C 0.92097 0.36485 0.32979 0.0
C594 C 0.90094 0.39895 0.30741 0.0
C595 C 0.91066 0.38373 0.29116 0.0
C596 C 0.92609 0.35943 0.29428 0.0
H597 H 0.89883 0.39428 0.16371 0.0
H598 H 0.91391 0.38519 0.19761 0.0
C599 C 0.93111 0.34999 0.31342 0.0
C600 C 0.90401 0.39258 0.27084 0.0
H601 H 0.85046 0.39752 0.23808 0.0
C602 C 0.92562 0.40177 0.25855 0.0
C603 C 0.8766 0.39109 0.26343 0.0
C604 C 0.85283 0.38059 0.27593 0.0
C605 C 0.92043 0.40987 0.23899 0.0
C606 C 0.89302 0.40806 0.23149 0.0
C607 C 0.87145 0.39895 0.24387 0.0
C608 C 0.88601 0.41525 0.21082 0.0
C609 C 0.94421 0.42074 0.22669 0.0
C610 C 0.86522 0.43497 0.20701 0.0
C611 C 0.8563 0.43988 0.18775 0.0
C612 C 0.86806 0.42518 0.17188 0.0
C613 C 0.88952 0.40606 0.17562 0.0
C614 C 0.89827 0.40096 0.19498 0.0
H615 H 0.96155 0.42841 0.23605 0.0
H616 H 0.9524 0.40366 0.21734 0.0
H617 H 0.93729 0.43787 0.21687 0.0
H618 H 0.85545 0.44619 0.21901 0.0
H619 H 0.83981 0.45485 0.18535 0.0
H620 H 0.15529 0.95438 0.31488 0.0
H621 H 0.13893 0.9452 0.28147 0.0
H622 H 0.08087 0.88462 0.30398 0.0
H623 H 0.09671 0.8942 0.33765 0.0
H624 H 0.14352 0.8957 0.26303 0.0
H625 H 0.0327 0.92774 0.2655 0.0
H626 H 0.05741 0.93757 0.28431 0.0
H627 H 0.04215 0.90344 0.28445 0.0
C628 C 0.13876 0.93936 0.31278 0.0
C629 C 0.12735 0.92491 0.32889 0.0
C630 C 0.12942 0.93419 0.29367 0.0
C631 C 0.10853 0.91443 0.29026 0.0
C632 C 0.0966 0.9004 0.30633 0.0
H633 H 0.04992 0.82944 0.18652 0.0
H634 H 0.05889 0.84647 0.21987 0.0
C635 C 0.10578 0.90576 0.32554 0.0
C636 C 0.10117 0.9069 0.26974 0.0
H637 H 0.04717 0.90195 0.23721 0.0
C638 C 0.12249 0.89732 0.25734 0.0
C639 C 0.0737 0.90895 0.2624 0.0
C640 C 0.0502 0.92023 0.27479 0.0
C641 C 0.11704 0.88927 0.23787 0.0
C642 C 0.08959 0.89109 0.23059 0.0
C643 C 0.06821 0.90069 0.24292 0.0
C644 C 0.08268 0.88217 0.21035 0.0
C645 C 0.14055 0.87825 0.22535 0.0
C646 C 0.09276 0.89695 0.19402 0.0
C647 C 0.08769 0.88732 0.17491 0.0
C648 C 0.0725 0.86271 0.17189 0.0
C649 C 0.06186 0.84837 0.18833 0.0
C650 C 0.06684 0.8581 0.2074 0.0
H651 H 0.15934 0.87342 0.23426 0.0
H652 H 0.13402 0.85915 0.21739 0.0
H653 H 0.14631 0.89409 0.21417 0.0
H654 H 0.10484 0.91574 0.19608 0.0
H655 H 0.09605 0.89889 0.16255 0.0
H656 H 0.34017 0.95839 0.81654 0.0
H657 H 0.35705 0.94912 0.78331 0.0
H658 H 0.41177 0.88563 0.80594 0.0
H659 H 0.39531 0.89522 0.83958 0.0
H660 H 0.43575 0.91955 0.77596 0.0
H661 H 0.33213 0.87887 0.75417 0.0
H662 H 0.33117 0.9134 0.76417 0.0
H663 H 0.34167 0.8848 0.77956 0.0
C664 C 0.35595 0.94257 0.81452 0.0
C665 C 0.36614 0.92721 0.83062 0.0
C666 C 0.36551 0.93728 0.7955 0.0
C667 C 0.38512 0.91627 0.79217 0.0
C668 C 0.39643 0.90179 0.80827 0.0
H669 H 0.44953 0.83512 0.68892 0.0
H670 H 0.44089 0.85265 0.7221 0.0
C671 C 0.38703 0.90727 0.82743 0.0
C672 C 0.39271 0.9087 0.77175 0.0
H673 H 0.36512 0.88486 0.72857 0.0
C674 C 0.42038 0.91189 0.76559 0.0
C675 C 0.37254 0.89867 0.75831 0.0
C676 C 0.34277 0.89346 0.76439 0.0
C677 C 0.42834 0.90567 0.74616 0.0
C678 C 0.4081 0.89585 0.73274 0.0
C679 C 0.38047 0.89271 0.7389 0.0
C680 C 0.41531 0.88708 0.71252 0.0
C681 C 0.45821 0.9099 0.74005 0.0
C682 C 0.40356 0.90057 0.69616 0.0
C683 C 0.40841 0.89058 0.6771 0.0
C684 C 0.42475 0.8667 0.6742 0.0
C685 C 0.43678 0.85353 0.69065 0.0
C686 C 0.43208 0.86363 0.70962 0.0
H687 H 0.46948 0.92376 0.75043 0.0
H688 H 0.46898 0.88949 0.73986 0.0
H689 H 0.45944 0.91887 0.72498 0.0
H690 H 0.39033 0.91858 0.69819 0.0
H691 H 0.39884 0.90114 0.66473 0.0
H692 H 0.59854 0.39869 0.83587 0.0
H693 H 0.60766 0.4135 0.80192 0.0
H694 H 0.55066 0.3512 0.78043 0.0
H695 H 0.54195 0.33589 0.81416 0.0
H696 H 0.60046 0.34888 0.76208 0.0
H697 H 0.56197 0.45757 0.76253 0.0
H698 H 0.58663 0.45036 0.78174 0.0
H699 H 0.55349 0.43301 0.78176 0.0
C700 C 0.58766 0.38844 0.82392 0.0
C701 C 0.56963 0.36606 0.82768 0.0
C702 C 0.59275 0.39703 0.80454 0.0
C703 C 0.57958 0.38365 0.78868 0.0
C704 C 0.56099 0.36184 0.79247 0.0
H705 H 0.59816 0.39406 0.66073 0.0
H706 H 0.58081 0.38431 0.69401 0.0
C707 C 0.55607 0.35311 0.81176 0.0
C708 C 0.58681 0.39071 0.76805 0.0
H709 H 0.5894 0.44393 0.73478 0.0
C710 C 0.59777 0.3696 0.75605 0.0
C711 C 0.58332 0.41776 0.76026 0.0
C712 C 0.57046 0.44093 0.77217 0.0
C713 C 0.60594 0.37494 0.73658 0.0
C714 C 0.60282 0.40205 0.72889 0.0
C715 C 0.59169 0.42315 0.74079 0.0
C716 C 0.61213 0.40904 0.70874 0.0
C717 C 0.61859 0.35177 0.72453 0.0
C718 C 0.63508 0.42658 0.70611 0.0
C719 C 0.64507 0.43212 0.6872 0.0
C720 C 0.63212 0.42036 0.67056 0.0
C721 C 0.60866 0.40332 0.67324 0.0
C722 C 0.59875 0.39769 0.69221 0.0
H723 H 0.6242 0.33353 0.73377 0.0
H724 H 0.6034 0.34485 0.71323 0.0
H725 H 0.63753 0.35914 0.71674 0.0
H726 H 0.64562 0.43553 0.71873 0.0
H727 H 0.66308 0.44547 0.68565 0.0
H728 H 0.04572 0.66295 0.68874 0.0
H729 H 0.05463 0.64654 0.72222 0.0
H730 H 0.10159 0.57747 0.69911 0.0
H731 H 0.09295 0.59381 0.66541 0.0
H732 H 0.04433 0.59309 0.74119 0.0
H733 H 0.15633 0.62112 0.73548 0.0
H734 H 0.13056 0.63385 0.71835 0.0
H735 H 0.14321 0.59884 0.71634 0.0
C736 C 0.05779 0.64413 0.69072 0.0
C737 C 0.06892 0.62983 0.67442 0.0
C738 C 0.06273 0.63476 0.70987 0.0
C739 C 0.07899 0.61104 0.71307 0.0
C740 C 0.08923 0.59604 0.69686 0.0
H741 H 0.15509 0.53979 0.81584 0.0
H742 H 0.13635 0.54916 0.78316 0.0
C743 C 0.08424 0.60536 0.67766 0.0
C744 C 0.08658 0.60306 0.7334 0.0
H745 H 0.14179 0.59932 0.76481 0.0
C746 C 0.06561 0.59436 0.74642 0.0
C747 C 0.11432 0.60507 0.74011 0.0
C748 C 0.13744 0.61543 0.72695 0.0
C749 C 0.07184 0.58697 0.76598 0.0
C750 C 0.09963 0.58889 0.77265 0.0
C751 C 0.1205 0.59779 0.75961 0.0
C752 C 0.10802 0.58127 0.79293 0.0
C753 C 0.0488 0.57666 0.77919 0.0
C754 C 0.09792 0.59593 0.80937 0.0
C755 C 0.10852 0.59048 0.82823 0.0
C756 C 0.12963 0.57059 0.83077 0.0
C757 C 0.13902 0.55543 0.81434 0.0
C758 C 0.12829 0.5607 0.79564 0.0
H759 H 0.03031 0.56997 0.77058 0.0
H760 H 0.05599 0.55897 0.78839 0.0
H761 H 0.04227 0.5937 0.7892 0.0
H762 H 0.08264 0.61227 0.80753 0.0
H763 H 0.10101 0.60254 0.84062 0.0
H764 H 0.83824 0.04927 0.68405 0.0
H765 H 0.85695 0.06015 0.71658 0.0
H766 H 0.92031 0.11125 0.68992 0.0
H767 H 0.90162 0.10055 0.65709 0.0
H768 H 0.91332 0.05303 0.73215 0.0
H769 H 0.8774 0.16306 0.72921 0.0
H770 H 0.8641 0.13674 0.71274 0.0
H771 H 0.89817 0.15095 0.70888 0.0
C772 C 0.85624 0.06274 0.68503 0.0
C773 C 0.86832 0.07425 0.66798 0.0
C774 C 0.86695 0.06882 0.70365 0.0
C775 C 0.8898 0.08665 0.70561 0.0
C776 C 0.90246 0.09763 0.68865 0.0
H777 H 0.95547 0.16343 0.81165 0.0
H778 H 0.94853 0.14772 0.77782 0.0
C779 C 0.89182 0.09145 0.66994 0.0
C780 C 0.89941 0.09454 0.72554 0.0
H781 H 0.90003 0.14853 0.75811 0.0
C782 C 0.91064 0.07394 0.73784 0.0
C783 C 0.89576 0.1218 0.73283 0.0
C784 C 0.88304 0.14447 0.72035 0.0
C785 C 0.91835 0.07993 0.75736 0.0
C786 C 0.91408 0.10706 0.76482 0.0
C787 C 0.90327 0.12774 0.75236 0.0
C788 C 0.92014 0.11458 0.78557 0.0
C789 C 0.93122 0.05724 0.76972 0.0
C790 C 0.90661 0.10101 0.80122 0.0
C791 C 0.91068 0.10984 0.82067 0.0
C792 C 0.92803 0.13266 0.82473 0.0
C793 C 0.94186 0.14587 0.80903 0.0
C794 C 0.93795 0.13691 0.78967 0.0
H795 H 0.94061 0.04074 0.76038 0.0
H796 H 0.94751 0.06568 0.77967 0.0
H797 H 0.91484 0.04745 0.77893 0.0
H798 H 0.89225 0.08414 0.79836 0.0
H799 H 0.89962 0.09936 0.83244 0.0
H800 H 0.45905 0.15756 0.3701 0.0
H801 H 0.41496 0.13303 0.36644 0.0
H802 H 0.45 0.06105 0.39504 0.0
H803 H 0.49433 0.0855 0.39894 0.0
H804 H 0.42236 0.05151 0.35722 0.0
H805 H 0.35789 0.11141 0.41048 0.0
H806 H 0.37781 0.1317 0.39324 0.0
H807 H 0.39545 0.11107 0.41141 0.0
C808 C 0.45735 0.13671 0.37593 0.0
C809 C 0.4802 0.12359 0.38495 0.0
C810 C 0.4321 0.12273 0.3738 0.0
C811 C 0.42925 0.09539 0.38062 0.0
C812 C 0.45186 0.08223 0.38976 0.0
H813 H 0.28433 0.99211 0.39236 0.0
H814 H 0.32677 0.01928 0.39691 0.0
C815 C 0.47712 0.09626 0.39201 0.0
C816 C 0.403 0.08013 0.37741 0.0
H817 H 0.33439 0.0789 0.39022 0.0
C818 C 0.4031 0.05743 0.36442 0.0
C819 C 0.37806 0.08796 0.38692 0.0
C820 C 0.37715 0.11173 0.40142 0.0
C821 C 0.37872 0.04238 0.36057 0.0
C822 C 0.35369 0.05045 0.36987 0.0
C823 C 0.35363 0.07302 0.38298 0.0
C824 C 0.32759 0.03481 0.36698 0.0
C825 C 0.37994 0.01767 0.3469 0.0
C826 C 0.31399 0.03474 0.34866 0.0
C827 C 0.28942 0.01956 0.34615 0.0
C828 C 0.27806 0.00458 0.36198 0.0
C829 C 0.29194 0.0045 0.38021 0.0
C830 C 0.31635 0.0197 0.38274 0.0
H831 H 0.40168 0.01125 0.34371 0.0
H832 H 0.36861 -0.00028 0.35336 0.0
H833 H 0.36971 0.02307 0.33274 0.0
H834 H 0.32237 0.04642 0.33636 0.0
H835 H 0.27916 0.0196 0.33193 0.0
H836 H 0.4136 0.50178 0.38798 0.0
H837 H 0.4383 0.45795 0.38344 0.0
H838 H 0.36064 0.41326 0.38775 0.0
H839 H 0.33562 0.45738 0.39103 0.0
H840 H 0.44609 0.41464 0.40428 0.0
H841 H 0.38832 0.38171 0.33762 0.0
H842 H 0.38415 0.41573 0.34833 0.0
H843 H 0.36571 0.38633 0.35837 0.0
C844 C 0.40181 0.48258 0.38804 0.0
C845 C 0.3727 0.48292 0.38969 0.0
C846 C 0.41594 0.45753 0.38541 0.0
C847 C 0.40129 0.43228 0.38474 0.0
C848 C 0.37231 0.4325 0.38747 0.0
H849 H 0.49039 0.27558 0.39611 0.0
H850 H 0.46227 0.31694 0.40177 0.0
C851 C 0.35806 0.45766 0.38957 0.0
C852 C 0.41657 0.40592 0.38118 0.0
H853 H 0.41832 0.34807 0.35204 0.0
C854 C 0.44008 0.40016 0.39278 0.0
C855 C 0.4091 0.38725 0.36591 0.0
C856 C 0.38564 0.3932 0.35172 0.0
C857 C 0.4563 0.37637 0.38957 0.0
C858 C 0.44797 0.35697 0.375 0.0
C859 C 0.42452 0.36274 0.36336 0.0
C860 C 0.46349 0.33078 0.37137 0.0
C861 C 0.48268 0.37293 0.40142 0.0
C862 C 0.47235 0.3239 0.35222 0.0
C863 C 0.48718 0.29938 0.3488 0.0
C864 C 0.49341 0.2813 0.36444 0.0
C865 C 0.48479 0.28839 0.38361 0.0
C866 C 0.46936 0.31248 0.38695 0.0
H867 H 0.49079 0.39332 0.40655 0.0
H868 H 0.47822 0.36022 0.41471 0.0
H869 H 0.4992 0.36248 0.39271 0.0
H870 H 0.4681 0.33769 0.33995 0.0
H871 H 0.49401 0.29457 0.33397 0.0
H872 H 0.99758 0.41412 0.39685 0.0
H873 H 0.042 0.43814 0.39215 0.0
H874 H 0.07892 0.36219 0.3708 0.0
H875 H 0.03478 0.33793 0.37555 0.0
H876 H 0.11202 0.39203 0.3985 0.0
H877 H 0.07408 0.45864 0.33716 0.0
H878 H 0.05336 0.45976 0.35922 0.0
H879 H 0.05567 0.42802 0.34535 0.0
C880 C 0.01519 0.40248 0.39128 0.0
C881 C 0.01261 0.37417 0.38645 0.0
C882 C 0.04047 0.41627 0.38849 0.0
C883 C 0.06352 0.402 0.38083 0.0
C884 C 0.06128 0.37357 0.3766 0.0
H885 H 0.21547 0.47612 0.33368 0.0
H886 H 0.17269 0.44862 0.33796 0.0
C887 C 0.03603 0.35978 0.37932 0.0
C888 C 0.08999 0.41669 0.3771 0.0
H889 H 0.11919 0.46845 0.34958 0.0
C890 C 0.11366 0.40868 0.38778 0.0
C891 C 0.09206 0.43807 0.36285 0.0
C892 C 0.06753 0.44654 0.35033 0.0
C893 C 0.13928 0.42203 0.38494 0.0
C894 C 0.1411 0.44408 0.3712 0.0
C895 C 0.11761 0.45162 0.36017 0.0
C896 C 0.16702 0.46017 0.36856 0.0
C897 C 0.16424 0.41236 0.39656 0.0
C898 C 0.17752 0.47607 0.3842 0.0
C899 C 0.2017 0.49169 0.38174 0.0
C900 C 0.21591 0.49152 0.36364 0.0
C901 C 0.20503 0.47614 0.34783 0.0
C902 C 0.18073 0.46052 0.35028 0.0
H903 H 0.16121 0.39105 0.40252 0.0
H904 H 0.18329 0.41257 0.3873 0.0
H905 H 0.1676 0.42663 0.4092 0.0
H906 H 0.16674 0.47674 0.39822 0.0
H907 H 0.20888 0.50444 0.39384 0.0
H908 H 0.08039 0.99262 0.38467 0.0
H909 H 0.0553 0.03623 0.38002 0.0
H910 H 0.13173 0.08193 0.38828 0.0
H911 H 0.15723 0.03809 0.39154 0.0
H912 H 0.04479 0.07788 0.40125 0.0
H913 H 0.10738 0.11648 0.33854 0.0
H914 H 0.11157 0.08191 0.34831 0.0
H915 H 0.12859 0.11105 0.35991 0.0
C916 C 0.0918 0.012 0.38555 0.0
C917 C 0.12073 0.01207 0.38834 0.0
C918 C 0.07747 0.03693 0.38285 0.0
C919 C 0.09169 0.06244 0.38327 0.0
C920 C 0.12043 0.06255 0.3871 0.0
H921 H 0.00083 0.21641 0.39896 0.0
H922 H 0.02859 0.17481 0.4031 0.0
C923 C 0.13493 0.03753 0.38922 0.0
C924 C 0.07622 0.08877 0.37993 0.0
H925 H 0.07653 0.14916 0.35345 0.0
C926 C 0.05167 0.09335 0.39067 0.0
C927 C 0.08474 0.10877 0.36581 0.0
C928 C 0.10933 0.10416 0.35234 0.0
C929 C 0.03556 0.11732 0.38785 0.0
C930 C 0.04507 0.13813 0.37469 0.0
C931 C 0.06944 0.13345 0.36377 0.0
C932 C 0.03003 0.16483 0.37198 0.0
C933 C 0.00813 0.11948 0.39859 0.0
C934 C 0.02292 0.17418 0.353 0.0
C935 C 0.00838 0.19912 0.35051 0.0
C936 C 0.00061 0.21516 0.36694 0.0
C937 C 0.00766 0.20561 0.38589 0.0
C938 C 0.02284 0.18116 0.38834 0.0
H939 H -0.00045 0.09858 0.40203 0.0
H940 H 0.01134 0.13043 0.41282 0.0
H941 H 0.99246 0.13107 0.38981 0.0
H942 H 0.02825 0.16199 0.34011 0.0
H943 H 0.00295 0.2058 0.33576 0.0
H944 H 0.99723 0.91084 0.10337 0.0
H945 H 0.95274 0.93482 0.10786 0.0
H946 H 0.91615 0.85925 0.13016 0.0
H947 H 0.96035 0.83504 0.12564 0.0
H948 H 0.88272 0.88876 0.10225 0.0
H949 H 0.92147 0.95598 0.16303 0.0
H950 H 0.94192 0.95672 0.14084 0.0
H951 H 0.9397 0.92519 0.15495 0.0
C952 C 0.97967 0.89927 0.10909 0.0
C953 C 0.98236 0.87109 0.11427 0.0
C954 C 0.95435 0.91303 0.11175 0.0
C955 C 0.9314 0.89886 0.11964 0.0
C956 C 0.93373 0.87054 0.12416 0.0
H957 H 0.77998 0.97316 0.16735 0.0
H958 H 0.82256 0.94539 0.16287 0.0
C959 C 0.95901 0.85677 0.12156 0.0
C960 C 0.905 0.9136 0.12343 0.0
H961 H 0.87616 0.96553 0.15095 0.0
C962 C 0.88122 0.9055 0.11292 0.0
C963 C 0.90313 0.93508 0.1376 0.0
C964 C 0.92782 0.94368 0.14991 0.0
C965 C 0.85563 0.91886 0.11588 0.0
C966 C 0.85399 0.94098 0.12956 0.0
C967 C 0.8776 0.94862 0.14041 0.0
C968 C 0.82815 0.95711 0.1323 0.0
C969 C 0.83053 0.90916 0.10443 0.0
C970 C 0.8177 0.97316 0.11673 0.0
C971 C 0.79366 0.98894 0.11931 0.0
C972 C 0.77954 0.98876 0.13744 0.0
C973 C 0.79036 0.97318 0.15317 0.0
C974 C 0.81453 0.95741 0.15062 0.0
H975 H 0.83352 0.88789 0.09841 0.0
H976 H 0.81162 0.9093 0.11384 0.0
H977 H 0.82691 0.92348 0.09186 0.0
H978 H 0.82842 0.97385 0.10269 0.0
H979 H 0.78654 0.00186 0.10727 0.0
H980 H 0.50495 0.79152 0.16807 0.0
H981 H 0.52984 0.83546 0.163 0.0
H982 H 0.52782 0.82195 0.10007 0.0
H983 H 0.50045 0.7802 0.10499 0.0
H984 H 0.57768 0.84766 0.14869 0.0
H985 H 0.49947 0.89835 0.10123 0.0
H986 H 0.49252 0.86606 0.11375 0.0
H987 H 0.51044 0.86628 0.09035 0.0
C988 C 0.50975 0.79813 0.15318 0.0
C989 C 0.50156 0.78188 0.13699 0.0
C990 C 0.52403 0.82312 0.15029 0.0
C991 C 0.53042 0.83224 0.13112 0.0
C992 C 0.52262 0.81577 0.11498 0.0
H993 H 0.65857 0.95652 0.10789 0.0
H994 H 0.63257 0.91308 0.11195 0.0
C995 C 0.50768 0.7913 0.11785 0.0
C996 C 0.54557 0.85872 0.12795 0.0
H997 H 0.54521 0.9182 0.10059 0.0
C998 C 0.57042 0.86324 0.13833 0.0
C999 C 0.53585 0.87934 0.11473 0.0
C1000 C 0.50795 0.87738 0.10459 0.0
C1001 C 0.58604 0.88759 0.13566 0.0
C1002 C 0.57729 0.90731 0.12142 0.0
C1003 C 0.55224 0.90291 0.11124 0.0
C1004 C 0.59299 0.93327 0.11745 0.0
C1005 C 0.6112 0.89214 0.14859 0.0
C1006 C 0.57912 0.95896 0.11785 0.0
C1007 C 0.59369 0.9836 0.11467 0.0
C1008 C 0.62251 0.98306 0.11143 0.0
C1009 C 0.63636 0.9574 0.11053 0.0
C1010 C 0.62158 0.93265 0.11312 0.0
H1011 H 0.6096 0.88021 0.16258 0.0
H1012 H 0.63006 0.88476 0.14074 0.0
H1013 H 0.61393 0.91446 0.15228 0.0
H1014 H 0.55707 0.96004 0.12107 0.0
H1015 H 0.58258 0.00316 0.11559 0.0
H1016 H 0.53818 0.65953 0.12648 0.0
H1017 H 0.58249 0.63515 0.13016 0.0
H1018 H 0.54505 0.56 0.10786 0.0
H1019 H 0.50054 0.58413 0.10419 0.0
H1020 H 0.57477 0.5543 0.14442 0.0
H1021 H 0.63682 0.6079 0.08658 0.0
H1022 H 0.61868 0.63028 0.10349 0.0
H1023 H 0.59925 0.60852 0.08696 0.0
C1024 C 0.53941 0.6379 0.12214 0.0
C1025 C 0.51584 0.62376 0.11503 0.0
C1026 C 0.56477 0.62405 0.1242 0.0
C1027 C 0.56701 0.59588 0.11914 0.0
C1028 C 0.54368 0.58179 0.11178 0.0
H1029 H 0.7101 0.49005 0.10757 0.0
H1030 H 0.66794 0.51772 0.10311 0.0
C1031 C 0.51832 0.59564 0.10964 0.0
C1032 C 0.59333 0.58074 0.12243 0.0
H1033 H 0.6611 0.57709 0.10771 0.0
C1034 C 0.59367 0.55924 0.13642 0.0
C1035 C 0.61782 0.58725 0.11187 0.0
C1036 C 0.61824 0.60959 0.09626 0.0
C1037 C 0.618 0.54405 0.14018 0.0
C1038 C 0.64259 0.5508 0.12981 0.0
C1039 C 0.64222 0.57222 0.11576 0.0
C1040 C 0.66856 0.53489 0.13259 0.0
C1041 C 0.61711 0.52053 0.1549 0.0
C1042 C 0.6829 0.53556 0.15062 0.0
C1043 C 0.70726 0.52003 0.15309 0.0
C1044 C 0.71771 0.50394 0.13748 0.0
C1045 C 0.70315 0.50318 0.11953 0.0
C1046 C 0.67892 0.51871 0.11705 0.0
H1047 H 0.59544 0.5146 0.15876 0.0
H1048 H 0.62805 0.50196 0.14903 0.0
H1049 H 0.62786 0.52705 0.16863 0.0
H1050 H 0.67528 0.5481 0.16274 0.0
H1051 H 0.71808 0.52066 0.16709 0.0
H1052 H 0.99426 0.71607 0.10058 0.0
H1053 H 0.96468 0.67604 0.09488 0.0
H1054 H 0.96407 0.65893 0.15739 0.0
H1055 H 0.99113 0.70126 0.16331 0.0
H1056 H 0.97329 0.62549 0.09929 0.0
H1057 H 0.88391 0.65034 0.14738 0.0
H1058 H 0.91083 0.67535 0.14214 0.0
H1059 H 0.91556 0.64975 0.1613 0.0
C1060 C 0.98663 0.70475 0.11322 0.0
C1061 C 0.99365 0.71281 0.13251 0.0
C1062 C 0.9702 0.68137 0.10991 0.0
C1063 C 0.96133 0.66482 0.12574 0.0
C1064 C 0.96955 0.67199 0.14498 0.0
H1065 H 0.91469 0.49286 0.11285 0.0
H1066 H 0.9387 0.53735 0.11531 0.0
C1067 C 0.98531 0.69595 0.14835 0.0
C1068 C 0.94484 0.63931 0.12187 0.0
H1069 H 0.88765 0.60297 0.13672 0.0
C1070 C 0.95435 0.62079 0.10732 0.0
C1071 C 0.91979 0.63333 0.132 0.0
C1072 C 0.90678 0.65343 0.1464 0.0
C1073 C 0.93989 0.5963 0.1029 0.0
C1074 C 0.91604 0.58931 0.11409 0.0
C1075 C 0.90614 0.6081 0.12831 0.0
C1076 C 0.90151 0.56232 0.11174 0.0
C1077 C 0.95013 0.57858 0.08601 0.0
C1078 C 0.87244 0.56143 0.10959 0.0
C1079 C 0.85857 0.53594 0.10884 0.0
C1080 C 0.8736 0.51096 0.10989 0.0
C1081 C 0.90267 0.51185 0.11164 0.0
C1082 C 0.91644 0.53729 0.11291 0.0
H1083 H 0.96102 0.5914 0.07477 0.0
H1084 H 0.9653 0.56313 0.09167 0.0
H1085 H 0.9328 0.56736 0.07868 0.0
H1086 H 0.86045 0.58046 0.10874 0.0
H1087 H 0.83611 0.53576 0.10753 0.0
H1088 H 0.7143 0.98024 0.66947 0.0
H1089 H 0.67145 0.95263 0.66555 0.0
H1090 H 0.66573 0.97888 0.60485 0.0
H1091 H 0.7079 0.00668 0.60887 0.0
H1092 H 0.61731 0.97149 0.65276 0.0
H1093 H 0.66263 0.89257 0.60234 0.0
H1094 H 0.68375 0.91501 0.61757 0.0
H1095 H 0.66872 0.928 0.59513 0.0
C1096 C 0.70381 0.97991 0.65533 0.0
C1097 C 0.71478 0.99468 0.63927 0.0
C1098 C 0.6795 0.96423 0.65309 0.0
C1099 C 0.66592 0.96324 0.63476 0.0
C1100 C 0.6764 0.97874 0.61893 0.0
H1101 H 0.49844 0.9123 0.60484 0.0
H1102 H 0.54223 0.93747 0.60949 0.0
C1103 C 0.70056 0.99441 0.62118 0.0
C1104 C 0.64043 0.94653 0.63213 0.0
H1105 H 0.61336 0.89266 0.6056 0.0
C1106 C 0.61642 0.95414 0.64256 0.0
C1107 C 0.63953 0.92382 0.61891 0.0
C1108 C 0.66507 0.91413 0.60795 0.0
C1109 C 0.59123 0.93997 0.63973 0.0
C1110 C 0.5901 0.91789 0.62598 0.0
C1111 C 0.61428 0.90985 0.61593 0.0
C1112 C 0.56409 0.90244 0.62218 0.0
C1113 C 0.56609 0.94856 0.65158 0.0
C1114 C 0.5623 0.87423 0.62715 0.0
C1115 C 0.53743 0.85978 0.62445 0.0
C1116 C 0.51394 0.87328 0.6166 0.0
C1117 C 0.51613 0.90133 0.61096 0.0
C1118 C 0.54103 0.91579 0.61374 0.0
H1119 H 0.57189 0.96149 0.66452 0.0
H1120 H 0.55195 0.96096 0.6421 0.0
H1121 H 0.55445 0.93005 0.65685 0.0
H1122 H 0.57998 0.86356 0.63356 0.0
H1123 H 0.53649 0.83818 0.6289 0.0
H1124 H 0.58115 0.49208 0.62015 0.0
H1125 H 0.55621 0.53583 0.62496 0.0
H1126 H 0.63141 0.5815 0.61221 0.0
H1127 H 0.65671 0.53768 0.60843 0.0
H1128 H 0.60762 0.60286 0.64273 0.0
H1129 H 0.5266 0.5889 0.58573 0.0
H1130 H 0.52598 0.561 0.60321 0.0
H1131 H 0.55607 0.56591 0.58772 0.0
C1132 C 0.59222 0.51149 0.61815 0.0
C1133 C 0.62079 0.51161 0.6139 0.0
C1134 C 0.57794 0.53649 0.62079 0.0
C1135 C 0.59177 0.56202 0.61857 0.0
C1136 C 0.62028 0.56208 0.61399 0.0
H1137 H 0.50247 0.71696 0.60762 0.0
H1138 H 0.5301 0.67534 0.60248 0.0
C1139 C 0.63471 0.53708 0.61181 0.0
C1140 C 0.5769 0.58862 0.62189 0.0
H1141 H 0.51855 0.62484 0.60936 0.0
C1142 C 0.58827 0.6078 0.63527 0.0
C1143 C 0.55184 0.59525 0.612 0.0
C1144 C 0.5396 0.57679 0.59621 0.0
C1145 C 0.57523 0.63332 0.63914 0.0
C1146 C 0.54944 0.6393 0.63001 0.0
C1147 C 0.53816 0.62017 0.61655 0.0
C1148 C 0.53419 0.66566 0.63354 0.0
C1149 C 0.5897 0.6538 0.65253 0.0
C1150 C 0.52715 0.67423 0.65272 0.0
C1151 C 0.51235 0.69891 0.65571 0.0
C1152 C 0.50396 0.71519 0.63958 0.0
C1153 C 0.51009 0.70594 0.62041 0.0
C1154 C 0.52541 0.68173 0.61744 0.0
H1155 H 0.61248 0.64996 0.6531 0.0
H1156 H 0.58619 0.67554 0.64763 0.0
H1157 H 0.58147 0.65149 0.66774 0.0
H1158 H 0.53272 0.66167 0.66537 0.0
H1159 H 0.50722 0.70521 0.67061 0.0
H1160 H -0.00178 0.5838 0.61452 0.0
H1161 H 0.95281 0.56138 0.61662 0.0
H1162 H 0.91267 0.64153 0.61324 0.0
H1163 H 0.95825 0.66418 0.61227 0.0
H1164 H 0.88953 0.61287 0.64058 0.0
H1165 H 0.89728 0.54463 0.57545 0.0
H1166 H 0.92566 0.53807 0.59189 0.0
H1167 H 0.92234 0.57166 0.58028 0.0
C1168 C 0.97969 0.5966 0.61397 0.0
C1169 C 0.9817 0.62569 0.61313 0.0
C1170 C 0.95372 0.58375 0.61503 0.0
C1171 C 0.92924 0.59969 0.61462 0.0
C1172 C 0.93124 0.62878 0.61348 0.0
H1173 H 0.77215 0.5114 0.60247 0.0
H1174 H 0.81184 0.54197 0.59696 0.0
C1175 C 0.95726 0.64169 0.61288 0.0
C1176 C 0.90169 0.58606 0.6166 0.0
H1177 H 0.86295 0.53174 0.59964 0.0
C1178 C 0.88353 0.59538 0.63142 0.0
C1179 C 0.89353 0.56359 0.60443 0.0
C1180 C 0.91064 0.55415 0.58699 0.0
C1181 C 0.85788 0.58233 0.63482 0.0
C1182 C 0.85074 0.5585 0.62366 0.0
C1183 C 0.86853 0.54973 0.60844 0.0
C1184 C 0.82511 0.54215 0.6275 0.0
C1185 C 0.83865 0.59456 0.65013 0.0
C1186 C 0.81919 0.53201 0.64649 0.0
C1187 C 0.79571 0.51554 0.64978 0.0
C1188 C 0.77799 0.5085 0.63411 0.0
C1189 C 0.78446 0.51786 0.61503 0.0
C1190 C 0.80749 0.5349 0.61181 0.0
H1191 H 0.84233 0.61722 0.65196 0.0
H1192 H 0.81647 0.59133 0.64619 0.0
H1193 H 0.84272 0.58452 0.66458 0.0
H1194 H 0.83305 0.53627 0.6587 0.0
H1195 H 0.79159 0.50784 0.66451 0.0
H1196 H 0.91017 0.99567 0.60153 0.0
H1197 H 0.93466 0.95159 0.60625 0.0
H1198 H 0.85978 0.91464 0.62944 0.0
H1199 H 0.83501 0.95854 0.62471 0.0
H1200 H 0.94049 0.92371 0.64361 0.0
H1201 H 0.88768 0.8586 0.5871 0.0
H1202 H 0.88678 0.89614 0.58658 0.0
H1203 H 0.86513 0.87736 0.60355 0.0
C1204 C 0.89879 0.97808 0.6074 0.0
C1205 C 0.87065 0.9806 0.61276 0.0
C1206 C 0.91284 0.95297 0.61013 0.0
C1207 C 0.89895 0.92991 0.61807 0.0
C1208 C 0.87074 0.93214 0.62306 0.0
H1209 H 0.97589 0.78136 0.66871 0.0
H1210 H 0.94818 0.82387 0.66382 0.0
C1211 C 0.85667 0.95726 0.6204 0.0
C1212 C 0.91434 0.90392 0.62199 0.0
H1213 H 0.91896 0.8357 0.60864 0.0
C1214 C 0.93582 0.90443 0.636 0.0
C1215 C 0.90816 0.87895 0.61194 0.0
C1216 C 0.88584 0.8776 0.59633 0.0
C1217 C 0.95134 0.88049 0.64026 0.0
C1218 C 0.94497 0.85544 0.63036 0.0
C1219 C 0.92354 0.85495 0.61631 0.0
C1220 C 0.96133 0.82986 0.63357 0.0
C1221 C 0.97483 0.88227 0.65497 0.0
C1222 C 0.97763 0.81925 0.61819 0.0
C1223 C 0.99332 0.79521 0.62098 0.0
C1224 C 0.9926 0.78108 0.6391 0.0
C1225 C 0.9765 0.79186 0.65459 0.0
C1226 C 0.96081 0.81604 0.65181 0.0
H1227 H 0.98035 0.90414 0.6585 0.0
H1228 H 0.96851 0.8718 0.66885 0.0
H1229 H 0.99363 0.87152 0.64926 0.0
H1230 H 0.97852 0.82984 0.60409 0.0
H1231 H 0.00645 0.78797 0.60909 0.0
H1232 H 0.99785 0.08494 0.89214 0.0
H1233 H 0.04243 0.06102 0.88801 0.0
H1234 H 0.08224 0.13907 0.87464 0.0
H1235 H 0.03781 0.16324 0.87864 0.0
H1236 H 0.0748 0.06636 0.84991 0.0
H1237 H 0.13283 0.0982 0.91734 0.0
H1238 H 0.09526 0.09767 0.91638 0.0
H1239 H 0.11414 0.12469 0.90404 0.0
C1240 C 0.01616 0.0971 0.88865 0.0
C1241 C 0.0143 0.12596 0.88565 0.0
C1242 C 0.04155 0.08339 0.88625 0.0
C1243 C 0.0655 0.09837 0.88111 0.0
C1244 C 0.06397 0.12727 0.87879 0.0
H1245 H 0.23573 0.04477 0.85761 0.0
H1246 H 0.19357 0.07279 0.86265 0.0
C1247 C 0.03856 0.14098 0.88102 0.0
C1248 C 0.0916 0.08349 0.8767 0.0
H1249 H 0.15717 0.0714 0.89386 0.0
C1250 C 0.09284 0.06738 0.8595 0.0
C1251 C 0.11507 0.08531 0.88914 0.0
C1252 C 0.11444 0.10226 0.90785 0.0
C1253 C 0.11709 0.05291 0.85436 0.0
C1254 C 0.14039 0.05405 0.86708 0.0
C1255 C 0.13925 0.07055 0.88416 0.0
C1256 C 0.16575 0.0374 0.86334 0.0
C1257 C 0.11761 0.03691 0.83521 0.0
C1258 C 0.16403 0.00833 0.86211 0.0
C1259 C 0.18797 0.99248 0.85922 0.0
C1260 C 0.21408 0.00536 0.85788 0.0
C1261 C 0.21584 0.03444 0.85896 0.0
C1262 C 0.19182 0.05037 0.86174 0.0
H1263 H 0.10208 0.04512 0.82456 0.0
H1264 H 0.13851 0.03769 0.82825 0.0
H1265 H 0.11235 0.01484 0.83817 0.0
H1266 H 0.14423 0.99785 0.86377 0.0
H1267 H 0.18626 0.97004 0.85862 0.0
H1268 H 0.40688 0.00148 0.90015 0.0
H1269 H 0.43147 0.04572 0.89658 0.0
H1270 H 0.35704 0.08361 0.8734 0.0
H1271 H 0.33219 0.03957 0.87702 0.0
H1272 H 0.4384 0.07429 0.86006 0.0
H1273 H 0.38415 0.13895 0.91607 0.0
H1274 H 0.38278 0.10142 0.9162 0.0
H1275 H 0.36183 0.12083 0.89913 0.0
C1276 C 0.39561 0.01931 0.89457 0.0
C1277 C 0.36758 0.017 0.88885 0.0
C1278 C 0.40971 0.04453 0.89249 0.0
C1279 C 0.39599 0.06791 0.88485 0.0
C1280 C 0.36787 0.06588 0.87958 0.0
H1281 H 0.47417 0.2158 0.83455 0.0
H1282 H 0.44619 0.17354 0.83962 0.0
C1283 C 0.35375 0.04066 0.88159 0.0
C1284 C 0.41157 0.09394 0.88132 0.0
H1285 H 0.41553 0.16222 0.89471 0.0
C1286 C 0.43345 0.09353 0.86763 0.0
C1287 C 0.40506 0.11889 0.89131 0.0
C1288 C 0.38233 0.12016 0.90663 0.0
C1289 C 0.44899 0.11754 0.86357 0.0
C1290 C 0.4422 0.1426 0.87333 0.0
C1291 C 0.42043 0.14298 0.88712 0.0
C1292 C 0.45837 0.16835 0.87014 0.0
C1293 C 0.47289 0.1158 0.8492 0.0
C1294 C 0.47414 0.17942 0.88564 0.0
C1295 C 0.48998 0.20336 0.88275 0.0
C1296 C 0.48996 0.21692 0.8644 0.0
C1297 C 0.47426 0.20577 0.84885 0.0
C1298 C 0.45841 0.18171 0.85172 0.0
H1299 H 0.47886 0.09394 0.84602 0.0
H1300 H 0.46675 0.1258 0.83511 0.0
H1301 H 0.49137 0.127 0.855 0.0
H1302 H 0.4746 0.16921 0.89989 0.0
H1303 H 0.5028 0.21085 0.89473 0.0
H1304 H 0.49924 0.41415 0.89415 0.0
H1305 H 0.45525 0.43865 0.88873 0.0
H1306 H 0.41489 0.36092 0.87523 0.0
H1307 H 0.45871 0.33619 0.88054 0.0
H1308 H 0.4251 0.43402 0.85037 0.0
H1309 H 0.36233 0.40238 0.91563 0.0
H1310 H 0.39992 0.40178 0.91567 0.0
H1311 H 0.38087 0.37537 0.90278 0.0
C1312 C 0.4809 0.40219 0.89039 0.0
C1313 C 0.48245 0.37325 0.88772 0.0
C1314 C 0.45585 0.41623 0.88724 0.0
C1315 C 0.43193 0.40152 0.88167 0.0
C1316 C 0.43312 0.37255 0.87972 0.0
H1317 H 0.2634 0.45399 0.85276 0.0
H1318 H 0.30573 0.42652 0.8585 0.0
C1319 C 0.45819 0.3585 0.88271 0.0
C1320 C 0.40629 0.41667 0.87641 0.0
H1321 H 0.33943 0.42844 0.89098 0.0
C1322 C 0.40635 0.43292 0.85924 0.0
C1323 C 0.3819 0.41477 0.88792 0.0
C1324 C 0.38108 0.39779 0.90662 0.0
C1325 C 0.38249 0.44734 0.85318 0.0
C1326 C 0.35819 0.44596 0.86492 0.0
C1327 C 0.35809 0.42944 0.88201 0.0
C1328 C 0.33297 0.46229 0.86016 0.0
C1329 C 0.3834 0.46346 0.8341 0.0
C1330 C 0.33433 0.4914 0.8591 0.0
C1331 C 0.31028 0.50695 0.85579 0.0
C1332 C 0.28443 0.4937 0.85385 0.0
C1333 C 0.2831 0.46458 0.85454 0.0
C1334 C 0.3072 0.44897 0.85773 0.0
H1335 H 0.39987 0.45547 0.82409 0.0
H1336 H 0.36313 0.46254 0.82628 0.0
H1337 H 0.38819 0.48556 0.83734 0.0
H1338 H 0.35386 0.50215 0.86137 0.0
H1339 H 0.31164 0.52942 0.85551 0.0
H1340 H 0.09323 0.4938 0.89883 0.0
H1341 H 0.06877 0.44962 0.89458 0.0
H1342 H 0.14285 0.41304 0.86984 0.0
H1343 H 0.16759 0.45706 0.87409 0.0
H1344 H 0.06182 0.42256 0.85702 0.0
H1345 H 0.11612 0.35608 0.91203 0.0
H1346 H 0.11705 0.3936 0.91299 0.0
H1347 H 0.13812 0.37525 0.89543 0.0
C1348 C 0.10447 0.47626 0.89275 0.0
C1349 C 0.13234 0.47895 0.88677 0.0
C1350 C 0.09043 0.45109 0.89028 0.0
C1351 C 0.10408 0.42813 0.88199 0.0
C1352 C 0.13209 0.43047 0.87649 0.0
H1353 H 0.02333 0.28132 0.83154 0.0
H1354 H 0.05246 0.32288 0.83634 0.0
C1355 C 0.14614 0.45566 0.87888 0.0
C1356 C 0.08849 0.40225 0.87807 0.0
H1357 H 0.08371 0.33386 0.891 0.0
C1358 C 0.06659 0.40313 0.8644 0.0
C1359 C 0.09481 0.37706 0.88781 0.0
C1360 C 0.11766 0.3753 0.90301 0.0
C1361 C 0.05072 0.37939 0.86022 0.0
C1362 C 0.05716 0.35415 0.86985 0.0
C1363 C 0.07907 0.35325 0.88352 0.0
C1364 C 0.04032 0.32883 0.86679 0.0
C1365 C 0.02678 0.38161 0.84592 0.0
C1366 C 0.02414 0.31849 0.88234 0.0
C1367 C 0.00762 0.29499 0.87959 0.0
C1368 C 0.00737 0.28114 0.86136 0.0
C1369 C 0.02345 0.29159 0.84575 0.0
C1370 C 0.03997 0.31523 0.84848 0.0
H1371 H 0.02144 0.40357 0.84255 0.0
H1372 H 0.03248 0.37114 0.8319 0.0
H1373 H 0.00803 0.37108 0.85191 0.0
H1374 H 0.02391 0.32893 0.8965 0.0
H1375 H 0.99453 0.28805 0.89159 0.0
H1376 H 0.62478 0.24079 0.37112 0.0
H1377 H 0.67163 0.26099 0.37022 0.0
H1378 H 0.7061 0.1835 0.39078 0.0
H1379 H 0.65971 0.16303 0.39142 0.0
H1380 H 0.72217 0.23488 0.41233 0.0
H1381 H 0.7372 0.23952 0.33093 0.0
H1382 H 0.70487 0.25268 0.34059 0.0
H1383 H 0.71248 0.21627 0.3424 0.0
C1384 C 0.64235 0.22802 0.37535 0.0
C1385 C 0.63848 0.20038 0.38155 0.0
C1386 C 0.66905 0.23956 0.37477 0.0
C1387 C 0.69219 0.22363 0.38037 0.0
C1388 C 0.68842 0.19607 0.38643 0.0
H1389 H 0.87021 0.25447 0.37516 0.0
H1390 H 0.82369 0.23359 0.37355 0.0
C1391 C 0.66186 0.18448 0.38689 0.0
C1392 C 0.72034 0.23585 0.38061 0.0
H1393 H 0.77272 0.2589 0.3508 0.0
C1394 C 0.73325 0.24016 0.3989 0.0
C1395 C 0.73468 0.24241 0.36302 0.0
C1396 C 0.7218 0.23738 0.34306 0.0
C1397 C 0.76015 0.25128 0.40008 0.0
C1398 C 0.77435 0.25817 0.38252 0.0
C1399 C 0.76161 0.25357 0.3642 0.0
C1400 C 0.80228 0.2708 0.38302 0.0
C1401 C 0.77335 0.25553 0.42004 0.0
C1402 C 0.80536 0.29862 0.38867 0.0
C1403 C 0.83173 0.31062 0.38949 0.0
C1404 C 0.85554 0.29493 0.38482 0.0
C1405 C 0.85231 0.26706 0.37895 0.0
C1406 C 0.82581 0.25512 0.37799 0.0
H1407 H 0.7613 0.24535 0.43202 0.0
H1408 H 0.79489 0.24718 0.42011 0.0
H1409 H 0.77457 0.27812 0.42324 0.0
H1410 H 0.78731 0.31105 0.39241 0.0
H1411 H 0.83339 0.33224 0.3937 0.0
H1412 H 0.25347 0.62551 0.37032 0.0
H1413 H 0.23409 0.67259 0.36769 0.0
H1414 H 0.31301 0.70714 0.38537 0.0
H1415 H 0.33247 0.66056 0.38798 0.0
H1416 H 0.267 0.72669 0.40711 0.0
H1417 H 0.25012 0.73417 0.32614 0.0
H1418 H 0.23588 0.70381 0.33788 0.0
H1419 H 0.2729 0.70861 0.33712 0.0
C1420 C 0.26671 0.64317 0.3735 0.0
C1421 C 0.2944 0.6393 0.37958 0.0
C1422 C 0.25567 0.67 0.37189 0.0
C1423 C 0.27223 0.69326 0.3762 0.0
C1424 C 0.29993 0.68943 0.38198 0.0
H1425 H 0.23795 0.87042 0.36262 0.0
H1426 H 0.25886 0.82388 0.36077 0.0
C1427 C 0.31094 0.66275 0.38358 0.0
C1428 C 0.26047 0.72163 0.37589 0.0
H1429 H 0.23261 0.77118 0.34573 0.0
C1430 C 0.25953 0.73645 0.39369 0.0
C1431 C 0.25109 0.73432 0.35831 0.0
C1432 C 0.25269 0.71957 0.33871 0.0
C1433 C 0.24899 0.76357 0.39445 0.0
C1434 C 0.23893 0.77601 0.37698 0.0
C1435 C 0.24029 0.76143 0.35909 0.0
C1436 C 0.22601 0.80382 0.37728 0.0
C1437 C 0.24877 0.7788 0.41392 0.0
C1438 C 0.20058 0.80764 0.38696 0.0
C1439 C 0.18865 0.83398 0.38804 0.0
C1440 C 0.20195 0.85704 0.37943 0.0
C1441 C 0.22729 0.85309 0.36946 0.0
C1442 C 0.23919 0.82658 0.36833 0.0
H1443 H 0.26273 0.76884 0.42491 0.0
H1444 H 0.25524 0.80079 0.41194 0.0
H1445 H 0.22733 0.77873 0.41998 0.0
H1446 H 0.19003 0.79021 0.39379 0.0
H1447 H 0.16907 0.83624 0.39579 0.0
H1448 H 0.36744 0.7264 0.14544 0.0
H1449 H 0.32036 0.7456 0.14839 0.0
H1450 H 0.29503 0.69907 0.09702 0.0
H1451 H 0.34155 0.67923 0.09447 0.0
H1452 H 0.29052 0.77702 0.12496 0.0
H1453 H 0.23479 0.67755 0.13444 0.0
H1454 H 0.27219 0.67993 0.13567 0.0
H1455 H 0.25485 0.67732 0.11217 0.0
C1456 C 0.35174 0.72023 0.13485 0.0
C1457 C 0.35797 0.70097 0.11991 0.0
C1458 C 0.32487 0.73115 0.13656 0.0
C1459 C 0.30393 0.72317 0.12326 0.0
C1460 C 0.3105 0.70471 0.10792 0.0
H1461 H 0.1564 0.81408 0.09275 0.0
H1462 H 0.20293 0.79434 0.09596 0.0
C1463 C 0.33715 0.69348 0.1064 0.0
C1464 C 0.27546 0.73483 0.12488 0.0
H1465 H 0.20684 0.71668 0.12459 0.0
C1466 C 0.27222 0.76382 0.12513 0.0
C1467 C 0.25157 0.71764 0.12558 0.0
C1468 C 0.25353 0.6864 0.12718 0.0
C1469 C 0.24575 0.77609 0.12521 0.0
C1470 C 0.22188 0.75888 0.1243 0.0
C1471 C 0.22512 0.7299 0.12492 0.0
C1472 C 0.19344 0.77047 0.1222 0.0
C1473 C 0.24374 0.80736 0.12644 0.0
C1474 C 0.17218 0.76253 0.13526 0.0
C1475 C 0.14534 0.77334 0.13315 0.0
C1476 C 0.13944 0.79247 0.11806 0.0
C1477 C 0.16056 0.79991 0.10478 0.0
C1478 C 0.18721 0.78876 0.10669 0.0
H1479 H 0.26227 0.81637 0.13387 0.0
H1480 H 0.24287 0.81611 0.11131 0.0
H1481 H 0.22484 0.81401 0.13459 0.0
H1482 H 0.17642 0.74822 0.14723 0.0
H1483 H 0.1294 0.76725 0.14359 0.0
H1484 H 0.83076 0.33425 0.10927 0.0
H1485 H 0.81066 0.28791 0.11148 0.0
H1486 H 0.73667 0.322 0.13808 0.0
H1487 H 0.75677 0.36887 0.1361 0.0
H1488 H 0.75963 0.27108 0.15637 0.0
H1489 H 0.74502 0.26352 0.07522 0.0
H1490 H 0.7794 0.27335 0.08293 0.0
H1491 H 0.75061 0.29622 0.08767 0.0
C1492 C 0.81023 0.33202 0.11567 0.0
C1493 C 0.79522 0.35528 0.12238 0.0
C1494 C 0.79881 0.30549 0.11689 0.0
C1495 C 0.77215 0.30172 0.12472 0.0
C1496 C 0.7573 0.32467 0.13194 0.0
H1497 H 0.66831 0.15864 0.10773 0.0
H1498 H 0.68804 0.20501 0.11071 0.0
C1499 C 0.76875 0.35136 0.13074 0.0
C1500 C 0.7596 0.27377 0.12467 0.0
H1501 H 0.73788 0.22236 0.09371 0.0
C1502 C 0.75471 0.26039 0.14272 0.0
C1503 C 0.75315 0.26013 0.1068 0.0
C1504 C 0.75706 0.27407 0.08703 0.0
C1505 C 0.74382 0.23333 0.14333 0.0
C1506 C 0.73803 0.21946 0.12541 0.0
C1507 C 0.74263 0.23304 0.1074 0.0
C1508 C 0.72595 0.19128 0.12486 0.0
C1509 C 0.73818 0.21995 0.16305 0.0
C1510 C 0.74086 0.16819 0.13182 0.0
C1511 C 0.72962 0.14146 0.13015 0.0
C1512 C 0.7034 0.13757 0.1214 0.0
C1513 C 0.68857 0.16086 0.11455 0.0
C1514 C 0.69977 0.18742 0.11624 0.0
H1515 H 0.73828 0.2354 0.17523 0.0
H1516 H 0.7178 0.2091 0.16294 0.0
H1517 H 0.75456 0.20428 0.16612 0.0
H1518 H 0.76135 0.17079 0.1382 0.0
H1519 H 0.74152 0.1239 0.13551 0.0
H1520 H 0.1595 0.66659 0.60755 0.0
H1521 H 0.20634 0.68576 0.6095 0.0
H1522 H 0.17494 0.75695 0.64109 0.0
H1523 H 0.12768 0.73782 0.63933 0.0
H1524 H 0.22306 0.73825 0.59419 0.0
H1525 H 0.24183 0.72858 0.67487 0.0
H1526 H 0.21494 0.70929 0.66224 0.0
H1527 H 0.20994 0.74543 0.66778 0.0
C1528 C 0.16247 0.68626 0.61504 0.0
C1529 C 0.13985 0.7007 0.62332 0.0
C1530 C 0.18928 0.69715 0.61612 0.0
C1531 C 0.19406 0.72256 0.62561 0.0
C1532 C 0.17164 0.73706 0.63398 0.0
H1533 H 0.33585 0.83036 0.61399 0.0
H1534 H 0.28974 0.8094 0.61548 0.0
C1535 C 0.14469 0.7262 0.63285 0.0
C1536 C 0.22243 0.73433 0.62582 0.0
H1537 H 0.27626 0.75209 0.65615 0.0
C1538 C 0.23472 0.74127 0.60772 0.0
C1539 C 0.23759 0.73787 0.64351 0.0
C1540 C 0.22559 0.72973 0.66323 0.0
C1541 C 0.26173 0.7521 0.60684 0.0
C1542 C 0.27666 0.75626 0.62455 0.0
C1543 C 0.26459 0.74892 0.64265 0.0
C1544 C 0.3046 0.76891 0.62445 0.0
C1545 C 0.27422 0.75888 0.58699 0.0
C1546 C 0.32812 0.75312 0.62939 0.0
C1547 C 0.35466 0.76499 0.62839 0.0
C1548 C 0.35793 0.79284 0.62253 0.0
C1549 C 0.33414 0.80871 0.61814 0.0
C1550 C 0.30775 0.79683 0.61906 0.0
H1551 H 0.26248 0.74904 0.57472 0.0
H1552 H 0.27385 0.78173 0.58476 0.0
H1553 H 0.29622 0.75192 0.58626 0.0
H1554 H 0.32597 0.73153 0.63366 0.0
H1555 H 0.37257 0.75229 0.63198 0.0
H1556 H 0.76827 0.13007 0.64117 0.0
H1557 H 0.74987 0.17747 0.64341 0.0
H1558 H 0.7958 0.20025 0.59116 0.0
H1559 H 0.81473 0.15325 0.58914 0.0
H1560 H 0.80135 0.23865 0.61975 0.0
H1561 H 0.68985 0.21196 0.6099 0.0
H1562 H 0.70607 0.19454 0.63028 0.0
H1563 H 0.71738 0.18725 0.60552 0.0
C1564 C 0.77423 0.14517 0.63009 0.0
C1565 C 0.79295 0.13804 0.61501 0.0
C1566 C 0.76367 0.17218 0.63136 0.0
C1567 C 0.77122 0.19228 0.61732 0.0
C1568 C 0.78976 0.18508 0.60218 0.0
H1569 H 0.68819 0.34412 0.5881 0.0
H1570 H 0.70867 0.29781 0.58981 0.0
C1571 C 0.80056 0.15823 0.60104 0.0
C1572 C 0.76022 0.22098 0.6184 0.0
H1573 H 0.70025 0.25882 0.61742 0.0
C1574 C 0.77924 0.24311 0.61926 0.0
C1575 C 0.73139 0.22668 0.61758 0.0
C1576 C 0.70997 0.20389 0.61558 0.0
C1577 C 0.77023 0.27085 0.61905 0.0
C1578 C 0.74138 0.27653 0.6185 0.0
C1579 C 0.72237 0.25438 0.61795 0.0
C1580 C 0.73033 0.3052 0.61731 0.0
C1581 C 0.7917 0.29374 0.61869 0.0
C1582 C 0.73593 0.32487 0.63211 0.0
C1583 C 0.72436 0.35152 0.63104 0.0
C1584 C 0.70659 0.3586 0.61538 0.0
C1585 C 0.70133 0.339 0.60052 0.0
C1586 C 0.71312 0.31259 0.60145 0.0
H1587 H 0.81244 0.28591 0.61403 0.0
H1588 H 0.78538 0.31073 0.60855 0.0
H1589 H 0.79387 0.30257 0.63372 0.0
H1590 H 0.74872 0.31944 0.64468 0.0
H1591 H 0.72857 0.36625 0.64275 0.0
H1592 H 0.83585 0.16545 0.88359 0.0
H1593 H 0.78931 0.18528 0.88166 0.0
H1594 H 0.82408 0.26432 0.86457 0.0
H1595 H 0.87111 0.24464 0.86663 0.0
H1596 H 0.77097 0.23275 0.90424 0.0
H1597 H 0.76136 0.2476 0.82309 0.0
H1598 H 0.78639 0.22411 0.83394 0.0
H1599 H 0.79245 0.2609 0.83449 0.0
C1600 C 0.83372 0.18708 0.87947 0.0
C1601 C 0.85722 0.20357 0.87549 0.0
C1602 C 0.80707 0.19831 0.87827 0.0
C1603 C 0.80333 0.22615 0.87287 0.0
C1604 C 0.82662 0.24265 0.86853 0.0
H1605 H 0.6609 0.33255 0.88591 0.0
H1606 H 0.70727 0.31223 0.88341 0.0
C1607 C 0.85342 0.23143 0.8698 0.0
C1608 C 0.77503 0.23805 0.87284 0.0
H1609 H 0.72444 0.26458 0.84291 0.0
C1610 C 0.76077 0.23968 0.89085 0.0
C1611 C 0.76184 0.24685 0.85528 0.0
C1612 C 0.77612 0.24467 0.83553 0.0
C1613 C 0.73365 0.25026 0.8918 0.0
C1614 C 0.7206 0.25931 0.87431 0.0
C1615 C 0.73469 0.25752 0.85625 0.0
C1616 C 0.69255 0.27157 0.87479 0.0
C1617 C 0.71903 0.25183 0.91146 0.0
C1618 C 0.66908 0.25532 0.8706 0.0
C1619 C 0.64242 0.26676 0.87223 0.0
C1620 C 0.639 0.29462 0.87805 0.0
C1621 C 0.66275 0.3109 0.88176 0.0
C1622 C 0.68927 0.29944 0.8802 0.0
H1623 H 0.73115 0.24172 0.92343 0.0
H1624 H 0.71561 0.27395 0.91545 0.0
H1625 H 0.6983 0.24173 0.91046 0.0
H1626 H 0.67139 0.2337 0.86643 0.0
H1627 H 0.62455 0.25374 0.86919 0.0
H1628 H 0.31573 0.84167 0.90459 0.0
H1629 H 0.29684 0.79488 0.90146 0.0
H1630 H 0.24535 0.8218 0.85295 0.0
H1631 H 0.26344 0.8692 0.85655 0.0
H1632 H 0.21677 0.7896 0.8768 0.0
H1633 H 0.31684 0.73772 0.8613 0.0
H1634 H 0.31849 0.75643 0.88412 0.0
H1635 H 0.31327 0.77504 0.86133 0.0
C1636 C 0.30042 0.83765 0.89322 0.0
C1637 C 0.29119 0.85905 0.88072 0.0
C1638 C 0.28982 0.81081 0.89134 0.0
C1639 C 0.27029 0.80461 0.8766 0.0
C1640 C 0.26063 0.82605 0.8643 0.0
H1641 H 0.22968 0.62988 0.85367 0.0
H1642 H 0.24678 0.67764 0.85024 0.0
C1643 C 0.27093 0.8531 0.86639 0.0
C1644 C 0.25934 0.77593 0.87458 0.0
H1645 H 0.27952 0.708 0.87212 0.0
C1646 C 0.23047 0.77178 0.87552 0.0
C1647 C 0.27714 0.75267 0.87243 0.0
C1648 C 0.30812 0.75572 0.86951 0.0
C1649 C 0.21901 0.74496 0.87526 0.0
C1650 C 0.23698 0.72164 0.87474 0.0
C1651 C 0.26575 0.72583 0.87289 0.0
C1652 C 0.22648 0.69277 0.87667 0.0
C1653 C 0.18775 0.74201 0.8754 0.0
C1654 C 0.20993 0.68525 0.89287 0.0
C1655 C 0.19988 0.65817 0.8947 0.0
C1656 C 0.20673 0.63789 0.88061 0.0
C1657 C 0.2241 0.64512 0.86475 0.0
C1658 C 0.2338 0.67239 0.86276 0.0
H1659 H 0.17752 0.76056 0.86886 0.0
H1660 H 0.18093 0.7233 0.86712 0.0
H1661 H 0.18043 0.74015 0.89086 0.0
H1662 H 0.20486 0.7003 0.90419 0.0
H1663 H 0.18692 0.65306 0.90726 0.0
H1664 H 0.66857 0.09152 0.41598 0.0
H1665 H 0.70613 0.07897 0.43877 0.0
H1666 H 0.64675 0.0367 0.47596 0.0
H1667 H 0.60936 0.04884 0.45279 0.0
H1668 H 0.70905 0.09686 0.47575 0.0
H1669 H 0.70999 0.98186 0.47643 0.0
H1670 H 0.69219 0.0016 0.45762 0.0
H1671 H 0.67601 0.99569 0.4812 0.0
C1672 C 0.6638 0.07914 0.42887 0.0
C1673 C 0.63628 0.07123 0.43285 0.0
C1674 C 0.68516 0.07192 0.44183 0.0
C1675 C 0.67935 0.05667 0.45901 0.0
C1676 C 0.6519 0.04787 0.46258 0.0
H1677 H 0.75074 0.03387 0.57204 0.0
H1678 H 0.72368 0.03312 0.54171 0.0
C1679 C 0.63055 0.05488 0.44947 0.0
C1680 C 0.7013 0.0528 0.47415 0.0
H1681 H 0.73236 0.00455 0.50385 0.0
C1682 C 0.71451 0.07661 0.48164 0.0
C1683 C 0.70838 0.02639 0.48186 0.0
C1684 C 0.69609 -9e-05 0.47372 0.0
C1685 C 0.73369 0.07488 0.49716 0.0
C1686 C 0.74005 0.04859 0.5053 0.0
C1687 C 0.72745 0.02467 0.49752 0.0
C1688 C 0.75777 0.04599 0.52304 0.0
C1689 C 0.74608 0.10131 0.50536 0.0
C1690 C 0.78614 0.05286 0.52249 0.0
C1691 C 0.80186 0.05313 0.53988 0.0
C1692 C 0.78938 0.04651 0.55806 0.0
C1693 C 0.76117 0.03873 0.55834 0.0
C1694 C 0.74559 0.03835 0.54099 0.0
H1695 H 0.7357 0.12019 0.49944 0.0
H1696 H 0.74449 0.10158 0.5217 0.0
H1697 H 0.76846 0.10232 0.50142 0.0
H1698 H 0.79594 0.05863 0.5087 0.0
H1699 H 0.82353 0.05919 0.53915 0.0
H1700 H 0.47016 0.75751 0.57472 0.0
H1701 H 0.46975 0.72973 0.54484 0.0
H1702 H 0.42307 0.79366 0.51496 0.0
H1703 H 0.42401 0.82225 0.54494 0.0
H1704 H 0.42049 0.71119 0.52849 0.0
H1705 H 0.48212 0.77129 0.47373 0.0
H1706 H 0.48439 0.7776 0.49996 0.0
H1707 H 0.4551 0.79025 0.4862 0.0
C1708 C 0.46041 0.76613 0.56173 0.0
C1709 C 0.44722 0.79223 0.56226 0.0
C1710 C 0.46013 0.7501 0.54463 0.0
C1711 C 0.44658 0.75968 0.52765 0.0
C1712 C 0.43411 0.7861 0.52781 0.0
H1713 H 0.39644 0.67326 0.42132 0.0
H1714 H 0.4074 0.70864 0.4462 0.0
C1715 C 0.43454 0.80234 0.54498 0.0
C1716 C 0.44313 0.74057 0.5107 0.0
H1717 H 0.45886 0.73099 0.46203 0.0
C1718 C 0.429 0.71548 0.51398 0.0
C1719 C 0.45406 0.74635 0.49178 0.0
C1720 C 0.46997 0.77273 0.48763 0.0
C1721 C 0.42542 0.69597 0.49887 0.0
C1722 C 0.4367 0.70149 0.48002 0.0
C1723 C 0.45051 0.72675 0.47659 0.0
C1724 C 0.43342 0.68141 0.46366 0.0
C1725 C 0.40911 0.66981 0.50312 0.0
C1726 C 0.44527 0.65478 0.46489 0.0
C1727 C 0.4388 0.63455 0.45081 0.0
C1728 C 0.42034 0.6407 0.43541 0.0
C1729 C 0.41007 0.6679 0.43344 0.0
C1730 C 0.41653 0.68813 0.44749 0.0
H1731 H 0.39664 0.67164 0.51685 0.0
H1732 H 0.39488 0.6648 0.49071 0.0
H1733 H 0.42376 0.65216 0.50495 0.0
H1734 H 0.4587 0.64937 0.47713 0.0
H1735 H 0.44709 0.61375 0.45246 0.0
H1736 H 0.8807 0.45011 0.45263 0.0
H1737 H 0.84273 0.46144 0.47567 0.0
H1738 H 0.78511 0.41612 0.43898 0.0
H1739 H 0.82309 0.40464 0.41622 0.0
H1740 H 0.78882 0.48681 0.47198 0.0
H1741 H 0.78273 0.37487 0.49207 0.0
H1742 H 0.8113 0.38912 0.47809 0.0
H1743 H 0.77858 0.38217 0.46626 0.0
C1744 C 0.85977 0.44314 0.44941 0.0
C1745 C 0.85466 0.42618 0.43299 0.0
C1746 C 0.83817 0.44952 0.4625 0.0
C1747 C 0.81127 0.43909 0.45921 0.0
C1748 C 0.80584 0.42385 0.44199 0.0
H1749 H 0.67104 0.42579 0.5407 0.0
H1750 H 0.69797 0.42735 0.51 0.0
C1751 C 0.82742 0.41734 0.42904 0.0
C1752 C 0.78948 0.4422 0.47449 0.0
H1753 H 0.75052 0.40486 0.50718 0.0
C1754 C 0.78031 0.46893 0.47964 0.0
C1755 C 0.77845 0.41878 0.48442 0.0
C1756 C 0.78838 0.38961 0.48011 0.0
C1757 C 0.76038 0.47286 0.49455 0.0
C1758 C 0.74975 0.44946 0.50471 0.0
C1759 C 0.75852 0.42274 0.49925 0.0
C1760 C 0.73143 0.45209 0.52219 0.0
C1761 C 0.75089 0.50199 0.49928 0.0
C1762 C 0.74116 0.46573 0.53911 0.0
C1763 C 0.72591 0.46484 0.5566 0.0
C1764 C 0.70066 0.45012 0.55757 0.0
C1765 C 0.69035 0.43738 0.5404 0.0
C1766 C 0.70572 0.43823 0.52287 0.0
H1767 H 0.75387 0.51616 0.48651 0.0
H1768 H 0.72864 0.50234 0.50366 0.0
H1769 H 0.76342 0.51018 0.51175 0.0
H1770 H 0.76121 0.476 0.53906 0.0
H1771 H 0.73445 0.47489 0.56955 0.0
H1772 H 0.06461 0.6676 0.54367 0.0
H1773 H 0.0647 0.69331 0.51234 0.0
H1774 H 0.04145 0.76817 0.5432 0.0
H1775 H 0.04158 0.74305 0.57427 0.0
H1776 H 0.01173 0.75842 0.50674 0.0
H1777 H 0.12709 0.75101 0.49976 0.0
H1778 H 0.10787 0.71918 0.5027 0.0
H1779 H 0.10938 0.74363 0.52264 0.0
C1780 C 0.05934 0.68949 0.54373 0.0
C1781 C 0.05304 0.70324 0.56149 0.0
C1782 C 0.0594 0.70411 0.52584 0.0
C1783 C 0.05316 0.73263 0.52552 0.0
C1784 C 0.04612 0.74612 0.54313 0.0
H1785 H 0.09452 0.87644 0.46234 0.0
H1786 H 0.08417 0.8384 0.48522 0.0
C1787 C 0.04617 0.73165 0.56091 0.0
C1788 C 0.05558 0.74931 0.50728 0.0
H1789 H 0.1038 0.78007 0.47749 0.0
C1790 C 0.03175 0.76276 0.50002 0.0
C1791 C 0.0818 0.75507 0.49877 0.0
C1792 C 0.10811 0.74166 0.50635 0.0
C1793 C 0.03364 0.7827 0.48495 0.0
C1794 C 0.06 0.7892 0.47702 0.0
C1795 C 0.08363 0.7749 0.48367 0.0
C1796 C 0.06403 0.81269 0.46328 0.0
C1797 C 0.0078 0.79781 0.47832 0.0
C1798 C 0.05562 0.81094 0.4435 0.0
C1799 C 0.06171 0.83262 0.43041 0.0
C1800 C 0.07647 0.85607 0.43694 0.0
C1801 C 0.08373 0.85823 0.45692 0.0
C1802 C 0.07773 0.83663 0.46996 0.0
H1803 H 0.9892 0.79183 0.48707 0.0
H1804 H 0.01091 0.82062 0.47959 0.0
H1805 H 0.00372 0.79306 0.46257 0.0
H1806 H 0.04511 0.79253 0.4381 0.0
H1807 H 0.05594 0.83062 0.41504 0.0
H1808 H 0.25283 0.9748 0.92661 0.0
H1809 H 0.22414 0.97739 0.95616 0.0
H1810 H 0.28515 0.92968 0.98827 0.0
H1811 H 0.31439 0.92737 0.9587 0.0
H1812 H 0.2027 0.93066 0.97375 0.0
H1813 H 0.26506 0.99149 0.02747 0.0
H1814 H 0.27218 0.9917 0.0013 0.0
H1815 H 0.2833 0.96296 0.01628 0.0
C1816 C 0.26042 0.96519 0.94002 0.0
C1817 C 0.28581 0.95066 0.94028 0.0
C1818 C 0.244 0.96678 0.95691 0.0
C1819 C 0.2526 0.95393 0.97443 0.0
C1820 C 0.27838 0.94021 0.97499 0.0
H1821 H 0.17085 0.90265 0.08065 0.0
H1822 H 0.2046 0.9162 0.05531 0.0
C1823 C 0.29498 0.93873 0.95806 0.0
C1824 C 0.23311 0.95231 0.99128 0.0
H1825 H 0.22516 0.96792 0.0401 0.0
C1826 C 0.20747 0.93908 0.9882 0.0
C1827 C 0.23953 0.96317 0.01012 0.0
C1828 C 0.26641 0.97835 0.01402 0.0
C1829 C 0.18828 0.93581 0.00356 0.0
C1830 C 0.19469 0.94655 0.02243 0.0
C1831 C 0.22026 0.95995 0.02554 0.0
C1832 C 0.17569 0.94227 0.0393 0.0
C1833 C 0.16171 0.91999 0.9996 0.0
C1834 C 0.14867 0.95339 0.0391 0.0
C1835 C 0.12935 0.94539 0.05343 0.0
C1836 C 0.13686 0.92618 0.06805 0.0
C1837 C 0.16449 0.91685 0.06912 0.0
C1838 C 0.18377 0.92478 0.05481 0.0
H1839 H 0.16269 0.90811 0.98556 0.0
H1840 H 0.15717 0.90526 0.0118 0.0
H1841 H 0.14414 0.93487 0.99855 0.0
H1842 H 0.14221 0.96729 0.02739 0.0
H1843 H 0.10818 0.95297 0.05251 0.0
H1844 H 0.5591 0.16519 0.08659 0.0
H1845 H 0.54839 0.20404 0.06416 0.0
H1846 H 0.58553 0.15872 0.01598 0.0
H1847 H 0.5959 0.12 0.03828 0.0
H1848 H 0.60628 0.21522 0.02284 0.0
H1849 H 0.49079 0.20818 0.01739 0.0
H1850 H 0.50645 0.20738 0.04153 0.0
H1851 H 0.51187 0.17893 0.02489 0.0
C1852 C 0.56446 0.1635 0.07112 0.0
C1853 C 0.57868 0.13998 0.06411 0.0
C1854 C 0.55842 0.1856 0.05838 0.0
C1855 C 0.56631 0.18421 0.03848 0.0
C1856 C 0.57949 0.16022 0.03135 0.0
H1857 H 0.53783 0.2559 0.92904 0.0
H1858 H 0.53857 0.23086 0.96012 0.0
C1859 C 0.58548 0.13822 0.04404 0.0
C1860 C 0.56221 0.20807 0.02505 0.0
H1861 H 0.51309 0.24157 0.9976 0.0
C1862 C 0.5859 0.22139 0.01753 0.0
C1863 C 0.53558 0.21591 0.01826 0.0
C1864 C 0.50961 0.20188 0.02579 0.0
C1865 C 0.58378 0.2415 0.00263 0.0
C1866 C 0.5572 0.24862 0.99527 0.0
C1867 C 0.5334 0.23619 0.00344 0.0
C1868 C 0.55408 0.26553 0.97718 0.0
C1869 C 0.61004 0.2537 0.99403 0.0
C1870 C 0.56211 0.29358 0.97654 0.0
C1871 C 0.5616 0.30816 0.95864 0.0
C1872 C 0.55299 0.29484 0.9412 0.0
C1873 C 0.54421 0.26698 0.94215 0.0
C1874 C 0.54465 0.25256 0.95995 0.0
H1875 H 0.62905 0.2432 0.99965 0.0
H1876 H 0.60979 0.25208 0.97769 0.0
H1877 H 0.61134 0.27606 0.99793 0.0
H1878 H 0.56927 0.304 0.98976 0.0
H1879 H 0.56848 0.3296 0.95839 0.0
H1880 H 0.24913 0.52265 0.92353 0.0
H1881 H 0.27845 0.51971 0.9528 0.0
H1882 H 0.21638 0.56374 0.98649 0.0
H1883 H 0.18656 0.56639 0.95725 0.0
H1884 H 0.29898 0.56555 0.9716 0.0
H1885 H 0.23832 0.50094 0.02397 0.0
H1886 H 0.23082 0.50206 0.99787 0.0
H1887 H 0.21916 0.5296 0.01378 0.0
C1888 C 0.24147 0.53136 0.93723 0.0
C1889 C 0.21557 0.54491 0.93806 0.0
C1890 C 0.25826 0.52959 0.95395 0.0
C1891 C 0.2495 0.54126 0.97185 0.0
C1892 C 0.22329 0.55407 0.97292 0.0
H1893 H 0.32847 0.59142 0.07921 0.0
H1894 H 0.29572 0.57793 0.0532 0.0
C1895 C 0.20636 0.55574 0.95617 0.0
C1896 C 0.26905 0.54257 0.9887 0.0
H1897 H 0.27707 0.5258 0.03731 0.0
C1898 C 0.29435 0.55655 0.9859 0.0
C1899 C 0.26284 0.53094 0.00734 0.0
C1900 C 0.23642 0.51481 0.01094 0.0
C1901 C 0.31333 0.55993 0.00139 0.0
C1902 C 0.30703 0.54856 0.0201 0.0
C1903 C 0.28187 0.5343 0.02289 0.0
C1904 C 0.32565 0.55306 0.03716 0.0
C1905 C 0.33949 0.57656 0.99779 0.0
C1906 C 0.35294 0.54264 0.03713 0.0
C1907 C 0.37168 0.55059 0.05186 0.0
C1908 C 0.36332 0.56908 0.06671 0.0
C1909 C 0.33548 0.5778 0.06752 0.0
C1910 C 0.31677 0.56989 0.05283 0.0
H1911 H 0.33841 0.58863 0.98383 0.0
H1912 H 0.34339 0.59121 0.01014 0.0
H1913 H 0.3575 0.56221 0.99678 0.0
H1914 H 0.36001 0.52924 0.0253 0.0
H1915 H 0.39302 0.54348 0.05112 0.0
H1916 H 0.90108 0.37455 0.03863 0.0
H1917 H 0.91083 0.33632 0.01579 0.0
H1918 H 0.95073 0.29066 0.06266 0.0
H1919 H 0.94046 0.32895 0.08571 0.0
H1920 H 0.97922 0.29139 0.02346 0.0
H1921 H 0.86833 0.25973 0.02047 0.0
H1922 H 0.87405 0.29628 0.01673 0.0
H1923 H 0.8824 0.28084 0.04013 0.0
C1924 C 0.91187 0.35632 0.04401 0.0
C1925 C 0.91946 0.35425 0.06394 0.0
C1926 C 0.91747 0.33458 0.03101 0.0
C1927 C 0.93093 0.31049 0.03769 0.0
C1928 C 0.94005 0.30901 0.05733 0.0
H1929 H 0.92647 0.16883 0.95539 0.0
H1930 H 0.92687 0.19356 0.9871 0.0
C1931 C 0.93434 0.33082 0.0704 0.0
C1932 C 0.93469 0.28681 0.02407 0.0
H1933 H 0.89777 0.24256 0.99475 0.0
C1934 C 0.96152 0.28032 0.01741 0.0
C1935 C 0.91158 0.27208 0.01652 0.0
C1936 C 0.88246 0.27734 0.02394 0.0
C1937 C 0.96562 0.26073 0.00233 0.0
C1938 C 0.94226 0.24764 0.99366 0.0
C1939 C 0.91564 0.25274 0.00132 0.0
C1940 C 0.9445 0.2314 0.97518 0.0
C1941 C 0.99484 0.25479 0.99543 0.0
C1942 C 0.95402 0.24457 0.95804 0.0
C1943 C 0.95361 0.23069 0.94001 0.0
C1944 C 0.94369 0.20325 0.93868 0.0
C1945 C 0.93444 0.18988 0.95594 0.0
C1946 C 0.93469 0.20394 0.97405 0.0
H1947 H 0.01024 0.2588 0.00732 0.0
H1948 H 0.99704 0.23292 0.99041 0.0
H1949 H -9e-05 0.2687 0.98288 0.0
H1950 H 0.96088 0.26602 0.95845 0.0
H1951 H 0.96034 0.24187 0.92703 0.0
H1952 H 0.3829 0.94303 0.54888 0.0
H1953 H 0.34659 0.95313 0.52431 0.0
H1954 H 0.28717 0.90695 0.55893 0.0
H1955 H 0.32342 0.89707 0.58347 0.0
H1956 H 0.31757 0.90619 0.50507 0.0
H1957 H 0.24546 0.98033 0.54198 0.0
H1958 H 0.28151 0.9768 0.54916 0.0
H1959 H 0.25677 0.95061 0.55599 0.0
C1960 C 0.36191 0.93568 0.55137 0.0
C1961 C 0.35585 0.91906 0.5678 0.0
C1962 C 0.34127 0.94134 0.53739 0.0
C1963 C 0.31422 0.93088 0.5399 0.0
C1964 C 0.30783 0.91546 0.55685 0.0
H1965 H 0.17205 0.92467 0.45869 0.0
H1966 H 0.20104 0.92205 0.48851 0.0
C1967 C 0.32851 0.90963 0.57072 0.0
C1968 C 0.29367 0.93332 0.52376 0.0
H1969 H 0.23186 0.96317 0.51069 0.0
C1970 C 0.29887 0.9187 0.50627 0.0
C1971 C 0.26907 0.94922 0.52558 0.0
C1972 C 0.26276 0.96532 0.54412 0.0
C1973 C 0.28021 0.91968 0.49042 0.0
C1974 C 0.25603 0.93634 0.49192 0.0
C1975 C 0.25046 0.95052 0.50959 0.0
C1976 C 0.23733 0.94031 0.47479 0.0
C1977 C 0.28647 0.90265 0.47224 0.0
C1978 C 0.24788 0.9522 0.45749 0.0
C1979 C 0.23162 0.95343 0.44052 0.0
C1980 C 0.2042 0.94323 0.4405 0.0
C1981 C 0.19311 0.9326 0.45817 0.0
C1982 C 0.20959 0.93115 0.47522 0.0
H1983 H 0.30078 0.88513 0.47559 0.0
H1984 H 0.26712 0.8941 0.46567 0.0
H1985 H 0.29672 0.91607 0.46109 0.0
H1986 H 0.26908 0.95982 0.45694 0.0
H1987 H 0.24102 0.96155 0.42724 0.0
H1988 H 0.60163 0.32307 0.57776 0.0
H1989 H 0.5893 0.28781 0.55317 0.0
H1990 H 0.53168 0.34525 0.52635 0.0
H1991 H 0.54478 0.38089 0.55067 0.0
H1992 H 0.53859 0.26287 0.54073 0.0
H1993 H 0.58768 0.32712 0.48211 0.0
H1994 H 0.59254 0.33415 0.50801 0.0
H1995 H 0.56086 0.34433 0.49593 0.0
C1996 C 0.5864 0.3281 0.56656 0.0
C1997 C 0.57475 0.35484 0.5656 0.0
C1998 C 0.57915 0.30791 0.55269 0.0
C1999 C 0.56003 0.31415 0.53772 0.0
C2000 C 0.54688 0.34024 0.53759 0.0
H2001 H 0.51867 0.23274 0.4285 0.0
H2002 H 0.5181 0.26118 0.45818 0.0
C2003 C 0.55419 0.36047 0.55148 0.0
C2004 C 0.55559 0.29412 0.52145 0.0
H2005 H 0.5661 0.28555 0.47208 0.0
C2006 C 0.54449 0.26778 0.52569 0.0
C2007 C 0.56366 0.30055 0.50191 0.0
C2008 C 0.57708 0.32795 0.49666 0.0
C2009 C 0.54076 0.24783 0.51076 0.0
C2010 C 0.54872 0.25436 0.49123 0.0
C2011 C 0.55985 0.28068 0.48706 0.0
C2012 C 0.54583 0.23448 0.47468 0.0
C2013 C 0.52799 0.22013 0.51592 0.0
C2014 C 0.56115 0.20961 0.47425 0.0
C2015 C 0.56142 0.19308 0.45723 0.0
C2016 C 0.54662 0.20143 0.44035 0.0
C2017 C 0.53039 0.22573 0.4412 0.0
C2018 C 0.53001 0.24205 0.45817 0.0
H2019 H 0.51692 0.22084 0.53029 0.0
H2020 H 0.51316 0.21336 0.50431 0.0
H2021 H 0.54469 0.20427 0.51699 0.0
H2022 H 0.57393 0.20365 0.48671 0.0
H2023 H 0.57425 0.17457 0.45698 0.0
H2024 H 0.25328 0.53763 0.42933 0.0
H2025 H 0.2273 0.53775 0.46005 0.0
H2026 H 0.29962 0.56768 0.49108 0.0
H2027 H 0.32618 0.56747 0.4601 0.0
H2028 H 0.23715 0.51127 0.49744 0.0
H2029 H 0.23826 0.62706 0.50094 0.0
H2030 H 0.2476 0.60835 0.47884 0.0
H2031 H 0.2713 0.60965 0.49927 0.0
C2032 C 0.26398 0.54372 0.44267 0.0
C2033 C 0.29192 0.5524 0.44222 0.0
C2034 C 0.24901 0.54382 0.46026 0.0
C2035 C 0.26148 0.55282 0.47779 0.0
C2036 C 0.28958 0.56083 0.47763 0.0
H2037 H 0.1634 0.55569 0.58814 0.0
H2038 H 0.2012 0.54498 0.56478 0.0
C2039 C 0.30471 0.56065 0.45995 0.0
C2040 C 0.24411 0.55542 0.49572 0.0
H2041 H 0.2107 0.60359 0.52408 0.0
C2042 C 0.23171 0.53138 0.50355 0.0
C2043 C 0.23688 0.58175 0.50344 0.0
C2044 C 0.24899 0.60827 0.49519 0.0
C2045 C 0.21152 0.53309 0.51849 0.0
C2046 C 0.20371 0.55948 0.52574 0.0
C2047 C 0.21685 0.5834 0.51844 0.0
C2048 C 0.18026 0.56311 0.53962 0.0
C2049 C 0.19765 0.5069 0.52575 0.0
C2050 C 0.15595 0.57632 0.53308 0.0
C2051 C 0.13453 0.58227 0.54629 0.0
C2052 C 0.13721 0.57544 0.56631 0.0
C2053 C 0.16099 0.56107 0.57273 0.0
C2054 C 0.18249 0.55504 0.55946 0.0
H2055 H 0.20392 0.48834 0.51706 0.0
H2056 H 0.20334 0.50335 0.54141 0.0
H2057 H 0.17468 0.50912 0.52501 0.0
H2058 H 0.15379 0.58252 0.51779 0.0
H2059 H 0.11611 0.59285 0.541 0.0
H2060 H 0.87922 0.16128 0.56641 0.0
H2061 H 0.893 0.20028 0.54564 0.0
H2062 H 0.97375 0.16309 0.53727 0.0
H2063 H 0.96002 0.12392 0.55845 0.0
H2064 H 0.93924 0.23951 0.54512 0.0
H2065 H 0.93794 0.16611 0.48163 0.0
H2066 H 0.92322 0.15734 0.5053 0.0
H2067 H 0.96025 0.1568 0.50184 0.0
C2068 C 0.90032 0.16195 0.56093 0.0
C2069 C 0.91881 0.13983 0.56442 0.0
C2070 C 0.90808 0.18416 0.54886 0.0
C2071 C 0.93431 0.18447 0.53985 0.0
C2072 C 0.95333 0.16311 0.54402 0.0
H2073 H 0.98561 0.27876 0.43703 0.0
H2074 H 0.98694 0.25069 0.46702 0.0
C2075 C 0.94555 0.14086 0.55612 0.0
C2076 C 0.94036 0.20551 0.52449 0.0
H2077 H 0.94796 0.21274 0.47475 0.0
C2078 C 0.94142 0.23373 0.52974 0.0
C2079 C 0.94297 0.19784 0.50444 0.0
C2080 C 0.94084 0.16793 0.49784 0.0
C2081 C 0.94508 0.25455 0.5154 0.0
C2082 C 0.94715 0.24687 0.4953 0.0
C2083 C 0.94653 0.2186 0.49016 0.0
C2084 C 0.9488 0.26753 0.47908 0.0
C2085 C 0.94684 0.28447 0.52191 0.0
C2086 C 0.92734 0.28694 0.4761 0.0
C2087 C 0.92666 0.30314 0.45894 0.0
C2088 C 0.94712 0.29972 0.44435 0.0
C2089 C 0.96929 0.28137 0.44784 0.0
C2090 C 0.97015 0.26546 0.46503 0.0
H2091 H 0.9537 0.28616 0.53751 0.0
H2092 H 0.96143 0.29646 0.51249 0.0
H2093 H 0.92593 0.29412 0.52075 0.0
H2094 H 0.91032 0.28851 0.4865 0.0
H2095 H 0.90923 0.31702 0.45655 0.0
H2096 H 0.82252 0.09934 0.91563 0.0
H2097 H 0.78728 0.08928 0.94087 0.0
H2098 H 0.84776 0.04183 0.97365 0.0
H2099 H 0.88311 0.05226 0.94847 0.0
H2100 H 0.76746 0.03606 0.95938 0.0
H2101 H 0.8224 0.10872 0.00995 0.0
H2102 H 0.82824 0.10855 0.98364 0.0
H2103 H 0.84353 0.08212 0.99887 0.0
C2104 C 0.8281 0.08659 0.92817 0.0
C2105 C 0.85552 0.077 0.93044 0.0
C2106 C 0.808 0.0807 0.94245 0.0
C2107 C 0.81508 0.06515 0.95921 0.0
C2108 C 0.84202 0.05408 0.96087 0.0
H2109 H 0.74358 0.03505 0.0725 0.0
H2110 H 0.77107 0.0361 0.04251 0.0
C2111 C 0.86209 0.05989 0.94652 0.0
C2112 C 0.79512 0.06264 0.97572 0.0
H2113 H 0.78433 0.084 0.02306 0.0
C2114 C 0.77102 0.04652 0.97333 0.0
C2115 C 0.79978 0.07664 0.99374 0.0
C2116 C 0.82474 0.09519 0.99677 0.0
C2117 C 0.75185 0.04324 0.98884 0.0
C2118 C 0.75679 0.05689 0.007 0.0
C2119 C 0.78064 0.07345 0.00916 0.0
C2120 C 0.73839 0.05349 0.02439 0.0
C2121 C 0.72696 0.02462 0.98591 0.0
C2122 C 0.7106 0.06258 0.02417 0.0
C2123 C 0.69451 0.06164 0.04142 0.0
C2124 C 0.70608 0.05184 0.05917 0.0
C2125 C 0.73375 0.04231 0.05912 0.0
C2126 C 0.74964 0.04306 0.04196 0.0
H2127 H 0.72943 0.01093 0.97283 0.0
H2128 H 0.7234 0.01144 0.99912 0.0
H2129 H 0.70818 0.03764 0.98364 0.0
H2130 H 0.70165 0.07122 0.01086 0.0
H2131 H 0.67333 0.06927 0.04097 0.0
H2132 H 0.4359 0.83694 0.91788 0.0
H2133 H 0.44677 0.79814 0.94027 0.0
H2134 H 0.40512 0.84107 0.98768 0.0
H2135 H 0.39467 0.87984 0.96544 0.0
H2136 H 0.47538 0.79693 0.97756 0.0
H2137 H 0.36506 0.76468 0.98407 0.0
H2138 H 0.37732 0.78747 0.96476 0.0
H2139 H 0.37065 0.80093 0.98905 0.0
C2140 C 0.4294 0.83809 0.93315 0.0
C2141 C 0.41389 0.86095 0.9399 0.0
C2142 C 0.43548 0.81597 0.94587 0.0
C2143 C 0.4261 0.81647 0.96547 0.0
C2144 C 0.41187 0.83996 0.97245 0.0
H2145 H 0.46519 0.73888 0.07268 0.0
H2146 H 0.46359 0.76581 0.04245 0.0
C2147 C 0.40587 0.86204 0.95978 0.0
C2148 C 0.43085 0.79247 0.97873 0.0
H2149 H 0.39645 0.74631 0.00816 0.0
C2150 C 0.45818 0.78556 0.98406 0.0
C2151 C 0.4084 0.77729 0.98685 0.0
C2152 C 0.3787 0.78273 0.98076 0.0
C2153 C 0.46355 0.76497 0.99825 0.0
C2154 C 0.44097 0.75124 0.00745 0.0
C2155 C 0.41375 0.75698 0.00121 0.0
C2156 C 0.44482 0.7332 0.02497 0.0
C2157 C 0.49332 0.75849 0.00355 0.0
C2158 C 0.43459 0.70584 0.02531 0.0
C2159 C 0.43554 0.69017 0.04274 0.0
C2160 C 0.44644 0.70179 0.06015 0.0
C2161 C 0.4571 0.72901 0.05955 0.0
C2162 C 0.45629 0.74451 0.04219 0.0
H2163 H 0.50761 0.76336 0.99114 0.0
H2164 H 0.4996 0.77144 0.01634 0.0
H2165 H 0.49589 0.73628 0.00763 0.0
H2166 H 0.42534 0.69684 0.01221 0.0
H2167 H 0.42694 0.66936 0.04272 0.0
H2168 H 0.75371 0.454 0.07218 0.0
H2169 H 0.7282 0.45431 0.0412 0.0
H2170 H 0.80167 0.42696 0.01034 0.0
H2171 H 0.82778 0.42696 0.0415 0.0
H2172 H 0.74023 0.48306 0.00396 0.0
H2173 H 0.74011 0.36743 0.99853 0.0
H2174 H 0.74792 0.38528 0.02129 0.0
H2175 H 0.77313 0.38446 0.0018 0.0
C2176 C 0.76472 0.44851 0.05882 0.0
C2177 C 0.79288 0.44056 0.05935 0.0
C2178 C 0.75002 0.44864 0.04111 0.0
C2179 C 0.76301 0.44055 0.02354 0.0
C2180 C 0.79125 0.43309 0.02382 0.0
H2181 H 0.67419 0.3999 0.91496 0.0
H2182 H 0.71214 0.41038 0.93797 0.0
C2183 C 0.80611 0.4331 0.04161 0.0
C2184 C 0.74625 0.43875 0.00528 0.0
H2185 H 0.71445 0.39201 0.97493 0.0
C2186 C 0.73483 0.46321 0.99741 0.0
C2187 C 0.7393 0.41282 0.99682 0.0
C2188 C 0.75054 0.3859 0.00502 0.0
C2189 C 0.71618 0.46238 0.98147 0.0
C2190 C 0.70827 0.43634 0.97355 0.0
C2191 C 0.72049 0.41198 0.98101 0.0
C2192 C 0.68625 0.4335 0.95832 0.0
C2193 C 0.70514 0.4894 0.97332 0.0
C2194 C 0.65919 0.44343 0.9619 0.0
C2195 C 0.63762 0.43758 0.94868 0.0
C2196 C 0.64269 0.42127 0.93193 0.0
C2197 C 0.66988 0.41225 0.92796 0.0
C2198 C 0.69148 0.41828 0.94104 0.0
H2199 H 0.71979 0.50681 0.97616 0.0
H2200 H 0.70133 0.48797 0.9572 0.0
H2201 H 0.68519 0.49448 0.98073 0.0
H2202 H 0.65446 0.45462 0.97534 0.0
H2203 H 0.6167 0.44448 0.95202 0.0
H2204 H 0.02752 0.7602 0.0679 0.0
H2205 H 0.03031 0.73419 0.03715 0.0
H2206 H 0.07873 0.8 0.01107 0.0
H2207 H 0.07574 0.82662 0.04188 0.0
H2208 H 0.01825 0.75149 0.99365 0.0
H2209 H 0.12768 0.72489 0.01341 0.0
H2210 H 0.10286 0.73625 0.0317 0.0
H2211 H 0.11707 0.76077 0.01452 0.0
C2212 C 0.0382 0.76957 0.05555 0.0
C2213 C 0.05142 0.79553 0.05741 0.0
C2214 C 0.03973 0.75462 0.03795 0.0
C2215 C 0.05476 0.76517 0.02193 0.0
C2216 C 0.06699 0.79159 0.02333 0.0
H2217 H 0.12188 0.66384 0.92766 0.0
H2218 H 0.10905 0.70413 0.94717 0.0
C2219 C 0.06524 0.80674 0.04093 0.0
C2220 C 0.05998 0.74709 0.0047 0.0
H2221 H 0.1089 0.70362 0.98543 0.0
C2222 C 0.03814 0.74124 0.99162 0.0
C2223 C 0.08592 0.73377 0.00222 0.0
C2224 C 0.10981 0.73899 0.0162 0.0
C2225 C 0.04157 0.72214 0.9761 0.0
C2226 C 0.06727 0.70804 0.97403 0.0
C2227 C 0.08923 0.71446 0.98693 0.0
C2228 C 0.07179 0.68557 0.95931 0.0
C2229 C 0.01769 0.7174 0.96207 0.0
C2230 C 0.05479 0.66181 0.95918 0.0
C2231 C 0.06166 0.63892 0.9474 0.0
C2232 C 0.08579 0.63919 0.93569 0.0
C2233 C 0.10243 0.66325 0.93559 0.0
C2234 C 0.09535 0.68625 0.9471 0.0
H2235 H 0.00384 0.73587 0.96136 0.0
H2236 H 0.0252 0.7126 0.94696 0.0
H2237 H 0.00507 0.6996 0.96739 0.0
H2238 H 0.037 0.66035 0.96891 0.0
H2239 H 0.04878 0.62048 0.94807 0.0
loop_
_geom_bond_atom_site_label_1
_geom_bond_atom_site_label_2
_geom_bond_distance
_geom_bond_site_symmetry_2
_ccdc_geom_bond_type
Zn0 O1 2.055 . S
Zn0 O8 2.046 . S
Zn0 N16 2.036 . S
Zn0 O28 2.053 . S
Zn0 O30 2.066 . S
O1 Zn0 2.055 . S
O1 C4 1.259 . S
C2 O30 1.256 . S
C2 O31 1.244 . S
Zn3 O5 2.046 . S
Zn3 O7 2.055 . S
Zn3 N9 2.036 . S
Zn3 O27 2.066 . S
Zn3 O31 2.053 . S
C4 O1 1.259 . S
C4 O5 1.254 . S
O5 Zn3 2.046 . S
O5 C4 1.254 . S
C6 O27 1.256 . S
C6 O28 1.244 . S
O7 Zn3 2.055 . S
O7 C29 1.259 . S
O8 Zn0 2.046 . S
O8 C29 1.254 . S
N9 Zn3 2.036 . S
N9 C10 1.298 . S
N9 N12 1.398 . S
C10 N9 1.298 . S
C10 N13 1.367 . S
C10 C23 1.481 . S
C11 N12 1.299 . S
C11 N13 1.379 . S
N12 N9 1.398 . S
N12 C11 1.299 . S
N13 C10 1.367 . S
N13 C11 1.379 . S
C14 N16 1.298 . S
C14 N18 1.367 . S
C14 C22 1.481 . S
C15 N17 1.299 . S
C15 N18 1.379 . S
N16 Zn0 2.036 . S
N16 C14 1.298 . S
N16 N17 1.398 . S
N17 C15 1.299 . S
N17 N16 1.398 . S
N18 C14 1.367 . S
N18 C15 1.379 . S
H19 C22 0.980 . S
H20 C22 0.981 . S
H21 C22 0.981 . S
C22 C14 1.481 . S
C22 H19 0.980 . S
C22 H20 0.981 . S
C22 H21 0.981 . S
C23 C10 1.481 . S
C23 H24 0.980 . S
C23 H25 0.981 . S
C23 H26 0.981 . S
H24 C23 0.980 . S
H25 C23 0.981 . S
H26 C23 0.981 . S
O27 Zn3 2.066 . S
O27 C6 1.256 . S
O28 Zn0 2.053 . S
O28 C6 1.244 . S
C29 O7 1.259 . S
C29 O8 1.254 . S
O30 Zn0 2.066 . S
O30 C2 1.256 . S
O31 C2 1.244 . S
O31 Zn3 2.053 . S
Zn32 O33 2.055 . S
Zn32 O40 2.046 . S
Zn32 N48 2.036 . S
Zn32 O60 2.053 . S
Zn32 O62 2.066 . S
O33 Zn32 2.055 . S
O33 C36 1.259 . S
C34 O62 1.256 . S
C34 O63 1.244 . S
Zn35 O37 2.046 . S
Zn35 O39 2.055 . S
Zn35 N41 2.036 . S
Zn35 O59 2.066 . S
Zn35 O63 2.053 . S
C36 O33 1.259 . S
C36 O37 1.254 . S
O37 Zn35 2.046 . S
O37 C36 1.254 . S
C38 O59 1.256 . S
C38 O60 1.244 . S
O39 Zn35 2.055 . S
O39 C61 1.259 . S
O40 Zn32 2.046 . S
O40 C61 1.254 . S
N41 Zn35 2.036 . S
N41 C42 1.298 . S
N41 N44 1.398 . S
C42 N41 1.298 . S
C42 N45 1.367 . S
C42 C55 1.481 . S
C43 N44 1.299 . S
C43 N45 1.379 . S
N44 N41 1.398 . S
N44 C43 1.299 . S
N45 C42 1.367 . S
N45 C43 1.379 . S
C46 N48 1.298 . S
C46 N50 1.367 . S
C46 C54 1.481 . S
C47 N49 1.299 . S
C47 N50 1.379 . S
N48 Zn32 2.036 . S
N48 C46 1.298 . S
N48 N49 1.398 . S
N49 C47 1.299 . S
N49 N48 1.398 . S
N50 C46 1.367 . S
N50 C47 1.379 . S
H51 C54 0.980 . S
H52 C54 0.981 . S
H53 C54 0.981 . S
C54 C46 1.481 . S
C54 H51 0.980 . S
C54 H52 0.981 . S
C54 H53 0.981 . S
C55 C42 1.481 . S
C55 H56 0.980 . S
C55 H57 0.981 . S
C55 H58 0.981 . S
H56 C55 0.980 . S
H57 C55 0.981 . S
H58 C55 0.981 . S
O59 Zn35 2.066 . S
O59 C38 1.256 . S
O60 Zn32 2.053 . S
O60 C38 1.244 . S
C61 O39 1.259 . S
C61 O40 1.254 . S
O62 Zn32 2.066 . S
O62 C34 1.256 . S
O63 C34 1.244 . S
O63 Zn35 2.053 . S
Zn64 O65 2.055 . S
Zn64 O72 2.046 . S
Zn64 N80 2.036 . S
Zn64 O92 2.053 . S
Zn64 O94 2.066 . S
O65 Zn64 2.055 . S
O65 C68 1.259 . S
C66 O94 1.256 . S
C66 O95 1.244 . S
Zn67 O69 2.046 . S
Zn67 O71 2.055 . S
Zn67 N73 2.036 . S
Zn67 O91 2.066 . S
Zn67 O95 2.053 . S
C68 O65 1.259 . S
C68 O69 1.254 . S
O69 Zn67 2.046 . S
O69 C68 1.254 . S
C70 O91 1.256 . S
C70 O92 1.244 . S
O71 Zn67 2.055 . S
O71 C93 1.259 . S
O72 Zn64 2.046 . S
O72 C93 1.254 . S
N73 Zn67 2.036 . S
N73 C74 1.298 . S
N73 N76 1.398 . S
C74 N73 1.298 . S
C74 N77 1.367 . S
C74 C87 1.481 . S
C75 N76 1.299 . S
C75 N77 1.379 . S
N76 N73 1.398 . S
N76 C75 1.299 . S
N77 C74 1.367 . S
N77 C75 1.379 . S
C78 N80 1.298 . S
C78 N82 1.367 . S
C78 C86 1.481 . S
C79 N81 1.299 . S
C79 N82 1.379 . S
N80 Zn64 2.036 . S
N80 C78 1.298 . S
N80 N81 1.398 . S
N81 C79 1.299 . S
N81 N80 1.398 . S
N82 C78 1.367 . S
N82 C79 1.379 . S
H83 C86 0.980 . S
H84 C86 0.981 . S
H85 C86 0.981 1_455 S
C86 C78 1.481 . S
C86 H83 0.980 . S
C86 H84 0.981 . S
C86 H85 0.981 1_655 S
C87 C74 1.481 . S
C87 H88 0.980 . S
C87 H89 0.981 . S
C87 H90 0.981 . S
H88 C87 0.980 . S
H89 C87 0.981 . S
H90 C87 0.981 . S
O91 Zn67 2.066 . S
O91 C70 1.256 . S
O92 Zn64 2.053 . S
O92 C70 1.244 . S
C93 O71 1.259 . S
C93 O72 1.254 . S
O94 Zn64 2.066 . S
O94 C66 1.256 . S
O95 C66 1.244 . S
O95 Zn67 2.053 . S
Zn96 O97 2.055 . S
Zn96 O104 2.046 . S
Zn96 N112 2.036 . S
Zn96 O124 2.053 . S
Zn96 O126 2.066 . S
O97 Zn96 2.055 . S
O97 C100 1.259 . S
C98 O126 1.256 . S
C98 O127 1.244 . S
Zn99 O101 2.046 . S
Zn99 O103 2.055 . S
Zn99 N105 2.036 . S
Zn99 O123 2.066 . S
Zn99 O127 2.053 . S
C100 O97 1.259 . S
C100 O101 1.254 . S
O101 Zn99 2.046 . S
O101 C100 1.254 . S
C102 O123 1.256 . S
C102 O124 1.244 . S
O103 Zn99 2.055 . S
O103 C125 1.259 . S
O104 Zn96 2.046 . S
O104 C125 1.254 . S
N105 Zn99 2.036 . S
N105 C106 1.298 . S
N105 N108 1.398 . S
C106 N105 1.298 . S
C106 N109 1.367 . S
C106 C119 1.481 . S
C107 N108 1.299 . S
C107 N109 1.379 . S
N108 N105 1.398 . S
N108 C107 1.299 . S
N109 C106 1.367 . S
N109 C107 1.379 . S
C110 N112 1.298 . S
C110 N114 1.367 . S
C110 C118 1.481 . S
C111 N113 1.299 . S
C111 N114 1.379 . S
N112 Zn96 2.036 . S
N112 C110 1.298 . S
N112 N113 1.398 . S
N113 C111 1.299 . S
N113 N112 1.398 . S
N114 C110 1.367 . S
N114 C111 1.379 . S
H115 C118 0.980 . S
H116 C118 0.981 . S
H117 C118 0.981 . S
C118 C110 1.481 . S
C118 H115 0.980 . S
C118 H116 0.981 . S
C118 H117 0.981 . S
C119 C106 1.481 . S
C119 H120 0.980 . S
C119 H121 0.981 . S
C119 H122 0.981 1_565 S
H120 C119 0.980 . S
H121 C119 0.981 . S
H122 C119 0.981 1_545 S
O123 Zn99 2.066 . S
O123 C102 1.256 . S
O124 Zn96 2.053 . S
O124 C102 1.244 . S
C125 O103 1.259 . S
C125 O104 1.254 . S
O126 Zn96 2.066 . S
O126 C98 1.256 . S
O127 C98 1.244 . S
O127 Zn99 2.053 . S
Zn128 O129 2.055 . S
Zn128 O136 2.046 . S
Zn128 N144 2.036 . S
Zn128 O156 2.053 . S
Zn128 O158 2.066 . S
O129 Zn128 2.055 . S
O129 C132 1.259 . S
C130 O158 1.256 . S
C130 O159 1.244 . S
Zn131 O133 2.046 . S
Zn131 O135 2.055 . S
Zn131 N137 2.036 . S
Zn131 O155 2.066 . S
Zn131 O159 2.053 . S
C132 O129 1.259 . S
C132 O133 1.254 . S
O133 Zn131 2.046 . S
O133 C132 1.254 . S
C134 O155 1.256 . S
C134 O156 1.244 . S
O135 Zn131 2.055 . S
O135 C157 1.259 . S
O136 Zn128 2.046 . S
O136 C157 1.254 . S
N137 Zn131 2.036 . S
N137 C138 1.298 . S
N137 N140 1.398 . S
C138 N137 1.298 . S
C138 N141 1.367 . S
C138 C151 1.481 . S
C139 N140 1.299 . S
C139 N141 1.379 . S
N140 N137 1.398 . S
N140 C139 1.299 . S
N141 C138 1.367 . S
N141 C139 1.379 . S
C142 N144 1.298 . S
C142 N146 1.367 . S
C142 C150 1.481 . S
C143 N145 1.299 . S
C143 N146 1.379 . S
N144 Zn128 2.036 . S
N144 C142 1.298 . S
N144 N145 1.398 . S
N145 C143 1.299 . S
N145 N144 1.398 . S
N146 C142 1.367 . S
N146 C143 1.379 . S
H147 C150 0.980 . S
H148 C150 0.981 . S
H149 C150 0.981 1_655 S
C150 C142 1.481 . S
C150 H147 0.980 . S
C150 H148 0.981 . S
C150 H149 0.981 1_455 S
C151 C138 1.481 . S
C151 H152 0.980 . S
C151 H153 0.981 . S
C151 H154 0.981 . S
H152 C151 0.980 . S
H153 C151 0.981 . S
H154 C151 0.981 . S
O155 Zn131 2.066 . S
O155 C134 1.256 . S
O156 Zn128 2.053 . S
O156 C134 1.244 . S
C157 O135 1.259 . S
C157 O136 1.254 . S
O158 Zn128 2.066 . S
O158 C130 1.256 . S
O159 C130 1.244 . S
O159 Zn131 2.053 . S
Zn160 O161 2.055 . S
Zn160 O168 2.046 . S
Zn160 N176 2.036 . S
Zn160 O188 2.053 . S
Zn160 O190 2.066 . S
O161 Zn160 2.055 . S
O161 C164 1.259 . S
C162 O190 1.256 . S
C162 O191 1.244 . S
Zn163 O165 2.046 . S
Zn163 O167 2.055 . S
Zn163 N169 2.036 . S
Zn163 O187 2.066 . S
Zn163 O191 2.053 . S
C164 O161 1.259 . S
C164 O165 1.254 . S
O165 Zn163 2.046 . S
O165 C164 1.254 . S
C166 O187 1.256 . S
C166 O188 1.244 . S
O167 Zn163 2.055 . S
O167 C189 1.259 . S
O168 Zn160 2.046 . S
O168 C189 1.254 . S
N169 Zn163 2.036 . S
N169 C170 1.298 . S
N169 N172 1.398 . S
C170 N169 1.298 . S
C170 N173 1.367 . S
C170 C183 1.481 . S
C171 N172 1.299 . S
C171 N173 1.379 . S
N172 N169 1.398 . S
N172 C171 1.299 . S
N173 C170 1.367 . S
N173 C171 1.379 . S
C174 N176 1.298 . S
C174 N178 1.367 . S
C174 C182 1.481 . S
C175 N177 1.299 . S
C175 N178 1.379 . S
N176 Zn160 2.036 . S
N176 C174 1.298 . S
N176 N177 1.398 . S
N177 C175 1.299 . S
N177 N176 1.398 . S
N178 C174 1.367 . S
N178 C175 1.379 . S
H179 C182 0.980 . S
H180 C182 0.981 . S
H181 C182 0.981 1_565 S
C182 C174 1.481 . S
C182 H179 0.980 . S
C182 H180 0.981 . S
C182 H181 0.981 1_545 S
C183 C170 1.481 . S
C183 H184 0.980 . S
C183 H185 0.981 . S
C183 H186 0.981 . S
H184 C183 0.980 . S
H185 C183 0.981 . S
H186 C183 0.981 . S
O187 Zn163 2.066 . S
O187 C166 1.256 . S
O188 Zn160 2.053 . S
O188 C166 1.244 . S
C189 O167 1.259 . S
C189 O168 1.254 . S
O190 Zn160 2.066 . S
O190 C162 1.256 . S
O191 C162 1.244 . S
O191 Zn163 2.053 . S
Zn192 O193 2.055 . S
Zn192 O200 2.046 . S
Zn192 N208 2.036 . S
Zn192 O220 2.053 . S
Zn192 O222 2.066 . S
O193 Zn192 2.055 . S
O193 C196 1.259 . S
C194 O222 1.256 . S
C194 O223 1.244 . S
Zn195 O197 2.046 . S
Zn195 O199 2.055 . S
Zn195 N201 2.036 . S
Zn195 O219 2.066 . S
Zn195 O223 2.053 . S
C196 O193 1.259 . S
C196 O197 1.254 . S
O197 Zn195 2.046 . S
O197 C196 1.254 . S
C198 O219 1.256 . S
C198 O220 1.244 . S
O199 Zn195 2.055 . S
O199 C221 1.259 . S
O200 Zn192 2.046 . S
O200 C221 1.254 . S
N201 Zn195 2.036 . S
N201 C202 1.298 . S
N201 N204 1.398 . S
C202 N201 1.298 . S
C202 N205 1.367 . S
C202 C215 1.481 . S
C203 N204 1.299 . S
C203 N205 1.379 . S
N204 N201 1.398 . S
N204 C203 1.299 . S
N205 C202 1.367 . S
N205 C203 1.379 . S
C206 N208 1.298 . S
C206 N210 1.367 . S
C206 C214 1.481 . S
C207 N209 1.299 . S
C207 N210 1.379 . S
N208 Zn192 2.036 . S
N208 C206 1.298 . S
N208 N209 1.398 . S
N209 C207 1.299 . S
N209 N208 1.398 . S
N210 C206 1.367 . S
N210 C207 1.379 . S
H211 C214 0.980 . S
H212 C214 0.981 . S
H213 C214 0.981 . S
C214 C206 1.481 . S
C214 H211 0.980 . S
C214 H212 0.981 . S
C214 H213 0.981 . S
C215 C202 1.481 . S
C215 H216 0.980 . S
C215 H217 0.981 . S
C215 H218 0.981 . S
H216 C215 0.980 . S
H217 C215 0.981 . S
H218 C215 0.981 . S
O219 Zn195 2.066 . S
O219 C198 1.256 . S
O220 Zn192 2.053 . S
O220 C198 1.244 . S
C221 O199 1.259 . S
C221 O200 1.254 . S
O222 Zn192 2.066 . S
O222 C194 1.256 . S
O223 C194 1.244 . S
O223 Zn195 2.053 . S
Zn224 O225 2.055 . S
Zn224 O232 2.046 . S
Zn224 N240 2.036 . S
Zn224 O252 2.053 . S
Zn224 O254 2.066 . S
O225 Zn224 2.055 . S
O225 C228 1.259 . S
C226 O254 1.256 . S
C226 O255 1.244 . S
Zn227 O229 2.046 . S
Zn227 O231 2.055 . S
Zn227 N233 2.036 . S
Zn227 O251 2.066 . S
Zn227 O255 2.053 . S
C228 O225 1.259 . S
C228 O229 1.254 . S
O229 Zn227 2.046 . S
O229 C228 1.254 . S
C230 O251 1.256 . S
C230 O252 1.244 . S
O231 Zn227 2.055 . S
O231 C253 1.259 . S
O232 Zn224 2.046 . S
O232 C253 1.254 . S
N233 Zn227 2.036 . S
N233 C234 1.298 . S
N233 N236 1.398 . S
C234 N233 1.298 . S
C234 N237 1.367 . S
C234 C247 1.481 . S
C235 N236 1.299 . S
C235 N237 1.379 . S
N236 N233 1.398 . S
N236 C235 1.299 . S
N237 C234 1.367 . S
N237 C235 1.379 . S
C238 N240 1.298 . S
C238 N242 1.367 . S
C238 C246 1.481 . S
C239 N241 1.299 . S
C239 N242 1.379 . S
N240 Zn224 2.036 . S
N240 C238 1.298 . S
N240 N241 1.398 . S
N241 C239 1.299 . S
N241 N240 1.398 . S
N242 C238 1.367 . S
N242 C239 1.379 . S
H243 C246 0.980 . S
H244 C246 0.981 . S
H245 C246 0.981 . S
C246 C238 1.481 . S
C246 H243 0.980 . S
C246 H244 0.981 . S
C246 H245 0.981 . S
C247 C234 1.481 . S
C247 H248 0.980 . S
C247 H249 0.981 . S
C247 H250 0.981 . S
H248 C247 0.980 . S
H249 C247 0.981 . S
H250 C247 0.981 . S
O251 Zn227 2.066 . S
O251 C230 1.256 . S
O252 Zn224 2.053 . S
O252 C230 1.244 . S
C253 O231 1.259 . S
C253 O232 1.254 . S
O254 Zn224 2.066 . S
O254 C226 1.256 . S
O255 C226 1.244 . S
O255 Zn227 2.053 . S
Zn256 O257 2.055 . S
Zn256 O264 2.046 . S
Zn256 N272 2.036 . S
Zn256 O284 2.053 . S
Zn256 O286 2.066 . S
O257 Zn256 2.055 . S
O257 C260 1.259 . S
C258 O286 1.256 . S
C258 O287 1.244 . S
Zn259 O261 2.046 . S
Zn259 O263 2.055 . S
Zn259 N265 2.036 . S
Zn259 O283 2.066 . S
Zn259 O287 2.053 . S
C260 O257 1.259 . S
C260 O261 1.254 . S
O261 Zn259 2.046 . S
O261 C260 1.254 . S
C262 O283 1.256 . S
C262 O284 1.244 . S
O263 Zn259 2.055 . S
O263 C285 1.259 . S
O264 Zn256 2.046 . S
O264 C285 1.254 . S
N265 Zn259 2.036 . S
N265 C266 1.298 . S
N265 N268 1.398 . S
C266 N265 1.298 . S
C266 N269 1.367 . S
C266 C279 1.481 . S
C267 N268 1.299 . S
C267 N269 1.379 . S
N268 N265 1.398 . S
N268 C267 1.299 . S
N269 C266 1.367 . S
N269 C267 1.379 . S
C270 N272 1.298 . S
C270 N274 1.367 . S
C270 C278 1.481 . S
C271 N273 1.299 . S
C271 N274 1.379 . S
N272 Zn256 2.036 . S
N272 C270 1.298 . S
N272 N273 1.398 . S
N273 C271 1.299 . S
N273 N272 1.398 . S
N274 C270 1.367 . S
N274 C271 1.379 . S
H275 C278 0.980 . S
H276 C278 0.981 . S
H277 C278 0.981 . S
C278 C270 1.481 . S
C278 H275 0.980 . S
C278 H276 0.981 . S
C278 H277 0.981 . S
C279 C266 1.481 . S
C279 H280 0.980 . S
C279 H281 0.981 . S
C279 H282 0.981 . S
H280 C279 0.980 . S
H281 C279 0.981 . S
H282 C279 0.981 . S
O283 Zn259 2.066 . S
O283 C262 1.256 . S
O284 Zn256 2.053 . S
O284 C262 1.244 . S
C285 O263 1.259 . S
C285 O264 1.254 . S
O286 Zn256 2.066 . S
O286 C258 1.256 . S
O287 C258 1.244 . S
O287 Zn259 2.053 . S
Zn288 O289 2.055 . S
Zn288 O296 2.046 . S
Zn288 N304 2.036 . S
Zn288 O316 2.053 . S
Zn288 O318 2.066 . S
O289 Zn288 2.055 . S
O289 C292 1.259 . S
C290 O318 1.256 . S
C290 O319 1.244 . S
Zn291 O293 2.046 . S
Zn291 O295 2.055 . S
Zn291 N297 2.036 . S
Zn291 O315 2.066 . S
Zn291 O319 2.053 . S
C292 O289 1.259 . S
C292 O293 1.254 . S
O293 Zn291 2.046 . S
O293 C292 1.254 . S
C294 O315 1.256 . S
C294 O316 1.244 . S
O295 Zn291 2.055 . S
O295 C317 1.259 . S
O296 Zn288 2.046 . S
O296 C317 1.254 . S
N297 Zn291 2.036 . S
N297 C298 1.298 . S
N297 N300 1.398 . S
C298 N297 1.298 . S
C298 N301 1.367 . S
C298 C311 1.481 . S
C299 N300 1.299 . S
C299 N301 1.379 . S
N300 N297 1.398 . S
N300 C299 1.299 . S
N301 C298 1.367 . S
N301 C299 1.379 . S
C302 N304 1.298 . S
C302 N306 1.367 . S
C302 C310 1.481 . S
C303 N305 1.299 . S
C303 N306 1.379 . S
N304 Zn288 2.036 . S
N304 C302 1.298 . S
N304 N305 1.398 . S
N305 C303 1.299 . S
N305 N304 1.398 . S
N306 C302 1.367 . S
N306 C303 1.379 . S
H307 C310 0.980 . S
H308 C310 0.981 . S
H309 C310 0.981 . S
C310 C302 1.481 . S
C310 H307 0.980 . S
C310 H308 0.981 . S
C310 H309 0.981 . S
C311 C298 1.481 . S
C311 H312 0.980 . S
C311 H313 0.981 . S
C311 H314 0.981 . S
H312 C311 0.980 . S
H313 C311 0.981 . S
H314 C311 0.981 . S
O315 Zn291 2.066 . S
O315 C294 1.256 . S
O316 Zn288 2.053 . S
O316 C294 1.244 . S
C317 O295 1.259 . S
C317 O296 1.254 . S
O318 Zn288 2.066 . S
O318 C290 1.256 . S
O319 C290 1.244 . S
O319 Zn291 2.053 . S
Zn320 O321 2.055 . S
Zn320 O328 2.046 . S
Zn320 N336 2.036 . S
Zn320 O348 2.053 . S
Zn320 O350 2.066 . S
O321 Zn320 2.055 . S
O321 C324 1.259 . S
C322 O350 1.256 . S
C322 O351 1.244 . S
Zn323 O325 2.046 . S
Zn323 O327 2.055 . S
Zn323 N329 2.036 . S
Zn323 O347 2.066 . S
Zn323 O351 2.053 . S
C324 O321 1.259 . S
C324 O325 1.254 . S
O325 Zn323 2.046 . S
O325 C324 1.254 . S
C326 O347 1.256 . S
C326 O348 1.244 . S
O327 Zn323 2.055 . S
O327 C349 1.259 . S
O328 Zn320 2.046 . S
O328 C349 1.254 . S
N329 Zn323 2.036 . S
N329 C330 1.298 . S
N329 N332 1.398 . S
C330 N329 1.298 . S
C330 N333 1.367 . S
C330 C343 1.481 . S
C331 N332 1.299 . S
C331 N333 1.379 . S
N332 N329 1.398 . S
N332 C331 1.299 . S
N333 C330 1.367 . S
N333 C331 1.379 . S
C334 N336 1.298 . S
C334 N338 1.367 . S
C334 C342 1.481 . S
C335 N337 1.299 . S
C335 N338 1.379 . S
N336 Zn320 2.036 . S
N336 C334 1.298 . S
N336 N337 1.398 . S
N337 C335 1.299 . S
N337 N336 1.398 . S
N338 C334 1.367 . S
N338 C335 1.379 . S
H339 C342 0.980 . S
H340 C342 0.981 . S
H341 C342 0.981 . S
C342 C334 1.481 . S
C342 H339 0.980 . S
C342 H340 0.981 . S
C342 H341 0.981 . S
C343 C330 1.481 . S
C343 H344 0.980 . S
C343 H345 0.981 . S
C343 H346 0.981 1_455 S
H344 C343 0.980 . S
H345 C343 0.981 . S
H346 C343 0.981 1_655 S
O347 Zn323 2.066 . S
O347 C326 1.256 . S
O348 Zn320 2.053 . S
O348 C326 1.244 . S
C349 O327 1.259 . S
C349 O328 1.254 . S
O350 Zn320 2.066 . S
O350 C322 1.256 . S
O351 C322 1.244 . S
O351 Zn323 2.053 . S
Zn352 O353 2.055 . S
Zn352 O360 2.046 . S
Zn352 N368 2.036 . S
Zn352 O380 2.053 . S
Zn352 O382 2.066 . S
O353 Zn352 2.055 . S
O353 C356 1.259 . S
C354 O382 1.256 . S
C354 O383 1.244 . S
Zn355 O357 2.046 . S
Zn355 O359 2.055 . S
Zn355 N361 2.036 . S
Zn355 O379 2.066 . S
Zn355 O383 2.053 . S
C356 O353 1.259 . S
C356 O357 1.254 . S
O357 Zn355 2.046 . S
O357 C356 1.254 . S
C358 O379 1.256 . S
C358 O380 1.244 . S
O359 Zn355 2.055 . S
O359 C381 1.259 . S
O360 Zn352 2.046 . S
O360 C381 1.254 . S
N361 Zn355 2.036 . S
N361 C362 1.298 . S
N361 N364 1.398 . S
C362 N361 1.298 . S
C362 N365 1.367 . S
C362 C375 1.481 . S
C363 N364 1.299 . S
C363 N365 1.379 . S
N364 N361 1.398 . S
N364 C363 1.299 . S
N365 C362 1.367 . S
N365 C363 1.379 . S
C366 N368 1.298 . S
C366 N370 1.367 . S
C366 C374 1.481 . S
C367 N369 1.299 . S
C367 N370 1.379 . S
N368 Zn352 2.036 . S
N368 C366 1.298 . S
N368 N369 1.398 . S
N369 C367 1.299 . S
N369 N368 1.398 . S
N370 C366 1.367 . S
N370 C367 1.379 . S
H371 C374 0.980 . S
H372 C374 0.981 . S
H373 C374 0.981 . S
C374 C366 1.481 . S
C374 H371 0.980 . S
C374 H372 0.981 . S
C374 H373 0.981 . S
C375 C362 1.481 . S
C375 H376 0.980 . S
C375 H377 0.981 . S
C375 H378 0.981 1_545 S
H376 C375 0.980 . S
H377 C375 0.981 . S
H378 C375 0.981 1_565 S
O379 Zn355 2.066 . S
O379 C358 1.256 . S
O380 Zn352 2.053 . S
O380 C358 1.244 . S
C381 O359 1.259 . S
C381 O360 1.254 . S
O382 Zn352 2.066 . S
O382 C354 1.256 . S
O383 C354 1.244 . S
O383 Zn355 2.053 . S
Zn384 O385 2.055 . S
Zn384 O392 2.046 . S
Zn384 N400 2.036 . S
Zn384 O412 2.053 . S
Zn384 O414 2.066 . S
O385 Zn384 2.055 . S
O385 C388 1.259 . S
C386 O414 1.256 . S
C386 O415 1.244 . S
Zn387 O389 2.046 . S
Zn387 O391 2.055 . S
Zn387 N393 2.036 . S
Zn387 O411 2.066 . S
Zn387 O415 2.053 . S
C388 O385 1.259 . S
C388 O389 1.254 . S
O389 Zn387 2.046 . S
O389 C388 1.254 . S
C390 O411 1.256 . S
C390 O412 1.244 . S
O391 Zn387 2.055 . S
O391 C413 1.259 . S
O392 Zn384 2.046 . S
O392 C413 1.254 . S
N393 Zn387 2.036 . S
N393 C394 1.298 . S
N393 N396 1.398 . S
C394 N393 1.298 . S
C394 N397 1.367 . S
C394 C407 1.481 . S
C395 N396 1.299 . S
C395 N397 1.379 . S
N396 N393 1.398 . S
N396 C395 1.299 . S
N397 C394 1.367 . S
N397 C395 1.379 . S
C398 N400 1.298 . S
C398 N402 1.367 . S
C398 C406 1.481 . S
C399 N401 1.299 . S
C399 N402 1.379 . S
N400 Zn384 2.036 . S
N400 C398 1.298 . S
N400 N401 1.398 . S
N401 C399 1.299 . S
N401 N400 1.398 . S
N402 C398 1.367 . S
N402 C399 1.379 . S
H403 C406 0.980 . S
H404 C406 0.981 . S
H405 C406 0.981 1_455 S
C406 C398 1.481 . S
C406 H403 0.980 . S
C406 H404 0.981 . S
C406 H405 0.981 1_655 S
C407 C394 1.481 . S
C407 H408 0.980 . S
C407 H409 0.981 . S
C407 H410 0.981 . S
H408 C407 0.980 . S
H409 C407 0.981 . S
H410 C407 0.981 . S
O411 Zn387 2.066 . S
O411 C390 1.256 . S
O412 Zn384 2.053 . S
O412 C390 1.244 . S
C413 O391 1.259 . S
C413 O392 1.254 . S
O414 Zn384 2.066 . S
O414 C386 1.256 . S
O415 C386 1.244 . S
O415 Zn387 2.053 . S
Zn416 O417 2.055 . S
Zn416 O424 2.046 . S
Zn416 N432 2.036 . S
Zn416 O444 2.053 . S
Zn416 O446 2.066 . S
O417 Zn416 2.055 . S
O417 C420 1.259 . S
C418 O446 1.256 . S
C418 O447 1.244 . S
Zn419 O421 2.046 . S
Zn419 O423 2.055 . S
Zn419 N425 2.036 . S
Zn419 O443 2.066 . S
Zn419 O447 2.053 . S
C420 O417 1.259 . S
C420 O421 1.254 . S
O421 Zn419 2.046 . S
O421 C420 1.254 . S
C422 O443 1.256 . S
C422 O444 1.244 . S
O423 Zn419 2.055 . S
O423 C445 1.259 . S
O424 Zn416 2.046 . S
O424 C445 1.254 . S
N425 Zn419 2.036 . S
N425 C426 1.298 . S
N425 N428 1.398 . S
C426 N425 1.298 . S
C426 N429 1.367 . S
C426 C439 1.481 . S
C427 N428 1.299 . S
C427 N429 1.379 . S
N428 N425 1.398 . S
N428 C427 1.299 . S
N429 C426 1.367 . S
N429 C427 1.379 . S
C430 N432 1.298 . S
C430 N434 1.367 . S
C430 C438 1.481 . S
C431 N433 1.299 . S
C431 N434 1.379 . S
N432 Zn416 2.036 . S
N432 C430 1.298 . S
N432 N433 1.398 . S
N433 C431 1.299 . S
N433 N432 1.398 . S
N434 C430 1.367 . S
N434 C431 1.379 . S
H435 C438 0.980 . S
H436 C438 0.981 . S
H437 C438 0.981 . S
C438 C430 1.481 . S
C438 H435 0.980 . S
C438 H436 0.981 . S
C438 H437 0.981 . S
C439 C426 1.481 . S
C439 H440 0.980 . S
C439 H441 0.981 . S
C439 H442 0.981 1_565 S
H440 C439 0.980 . S
H441 C439 0.981 . S
H442 C439 0.981 1_545 S
O443 Zn419 2.066 . S
O443 C422 1.256 . S
O444 Zn416 2.053 . S
O444 C422 1.244 . S
C445 O423 1.259 . S
C445 O424 1.254 . S
O446 Zn416 2.066 . S
O446 C418 1.256 . S
O447 C418 1.244 . S
O447 Zn419 2.053 . S
Zn448 O449 2.055 . S
Zn448 O456 2.046 . S
Zn448 N464 2.036 . S
Zn448 O476 2.053 . S
Zn448 O478 2.066 . S
O449 Zn448 2.055 . S
O449 C452 1.259 . S
C450 O478 1.256 . S
C450 O479 1.244 . S
Zn451 O453 2.046 . S
Zn451 O455 2.055 . S
Zn451 N457 2.036 . S
Zn451 O475 2.066 . S
Zn451 O479 2.053 . S
C452 O449 1.259 . S
C452 O453 1.254 . S
O453 Zn451 2.046 . S
O453 C452 1.254 . S
C454 O475 1.256 . S
C454 O476 1.244 . S
O455 Zn451 2.055 . S
O455 C477 1.259 . S
O456 Zn448 2.046 . S
O456 C477 1.254 . S
N457 Zn451 2.036 . S
N457 C458 1.298 . S
N457 N460 1.398 . S
C458 N457 1.298 . S
C458 N461 1.367 . S
C458 C471 1.481 . S
C459 N460 1.299 . S
C459 N461 1.379 . S
N460 N457 1.398 . S
N460 C459 1.299 . S
N461 C458 1.367 . S
N461 C459 1.379 . S
C462 N464 1.298 . S
C462 N466 1.367 . S
C462 C470 1.481 . S
C463 N465 1.299 . S
C463 N466 1.379 . S
N464 Zn448 2.036 . S
N464 C462 1.298 . S
N464 N465 1.398 . S
N465 C463 1.299 . S
N465 N464 1.398 . S
N466 C462 1.367 . S
N466 C463 1.379 . S
H467 C470 0.980 . S
H468 C470 0.981 . S
H469 C470 0.981 . S
C470 C462 1.481 . S
C470 H467 0.980 . S
C470 H468 0.981 . S
C470 H469 0.981 . S
C471 C458 1.481 . S
C471 H472 0.980 . S
C471 H473 0.981 . S
C471 H474 0.981 . S
H472 C471 0.980 . S
H473 C471 0.981 . S
H474 C471 0.981 . S
O475 Zn451 2.066 . S
O475 C454 1.256 . S
O476 Zn448 2.053 . S
O476 C454 1.244 . S
C477 O455 1.259 . S
C477 O456 1.254 . S
O478 Zn448 2.066 . S
O478 C450 1.256 . S
O479 C450 1.244 . S
O479 Zn451 2.053 . S
Zn480 O481 2.055 . S
Zn480 O488 2.046 . S
Zn480 N496 2.036 . S
Zn480 O508 2.053 . S
Zn480 O510 2.066 . S
O481 Zn480 2.055 . S
O481 C484 1.259 . S
C482 O510 1.256 . S
C482 O511 1.244 . S
Zn483 O485 2.046 . S
Zn483 O487 2.055 . S
Zn483 N489 2.036 . S
Zn483 O507 2.066 . S
Zn483 O511 2.053 . S
C484 O481 1.259 . S
C484 O485 1.254 . S
O485 Zn483 2.046 . S
O485 C484 1.254 . S
C486 O507 1.256 . S
C486 O508 1.244 . S
O487 Zn483 2.055 . S
O487 C509 1.259 . S
O488 Zn480 2.046 . S
O488 C509 1.254 . S
N489 Zn483 2.036 . S
N489 C490 1.298 . S
N489 N492 1.398 . S
C490 N489 1.298 . S
C490 N493 1.367 . S
C490 C503 1.481 . S
C491 N492 1.299 . S
C491 N493 1.379 . S
N492 N489 1.398 . S
N492 C491 1.299 . S
N493 C490 1.367 . S
N493 C491 1.379 . S
C494 N496 1.298 . S
C494 N498 1.367 . S
C494 C502 1.481 . S
C495 N497 1.299 . S
C495 N498 1.379 . S
N496 Zn480 2.036 . S
N496 C494 1.298 . S
N496 N497 1.398 . S
N497 C495 1.299 . S
N497 N496 1.398 . S
N498 C494 1.367 . S
N498 C495 1.379 . S
H499 C502 0.980 . S
H500 C502 0.981 . S
H501 C502 0.981 . S
C502 C494 1.481 . S
C502 H499 0.980 . S
C502 H500 0.981 . S
C502 H501 0.981 . S
C503 C490 1.481 . S
C503 H504 0.980 . S
C503 H505 0.981 . S
C503 H506 0.981 . S
H504 C503 0.980 . S
H505 C503 0.981 . S
H506 C503 0.981 . S
O507 Zn483 2.066 . S
O507 C486 1.256 . S
O508 Zn480 2.053 . S
O508 C486 1.244 . S
C509 O487 1.259 . S
C509 O488 1.254 . S
O510 Zn480 2.066 . S
O510 C482 1.256 . S
O511 C482 1.244 . S
O511 Zn483 2.053 . S
H512 C520 0.929 . S
H513 C522 0.930 . S
H514 C524 0.930 . S
H515 C527 0.929 . S
H516 C530 0.930 . S
H517 C532 0.960 . S
H518 C532 0.960 . S
H519 C532 0.960 . S
C520 H512 0.929 . S
C520 C521 1.377 . S
C520 C522 1.384 . S
C521 C520 1.377 . S
C521 C527 1.390 . S
C522 H513 0.930 . S
C522 C520 1.384 . S
C522 C523 1.372 . S
C523 C522 1.372 . S
C523 C524 1.400 . S
C523 C528 1.490 . S
C524 H514 0.930 . S
C524 C523 1.400 . S
C524 C527 1.386 . S
H525 C541 0.930 . S
H526 C542 0.931 . S
C527 H515 0.929 . S
C527 C521 1.390 . S
C527 C524 1.386 . S
C528 C523 1.490 . S
C528 C530 1.395 . S
C528 C531 1.403 . S
H529 C535 0.930 . S
C530 H516 0.930 . S
C530 C528 1.395 . S
C530 C533 1.403 . S
C531 C528 1.403 . S
C531 C532 1.524 . S
C531 C535 1.400 . S
C532 H517 0.960 . S
C532 H518 0.960 . S
C532 H519 0.960 . S
C532 C531 1.524 . S
C533 C530 1.403 . S
C533 C534 1.392 . S
C533 C537 1.495 . S
C534 C533 1.392 . S
C534 C535 1.385 . S
C534 C536 1.478 . S
C535 H529 0.930 . S
C535 C531 1.400 . S
C535 C534 1.385 . S
C536 C534 1.478 . S
C536 C538 1.381 . S
C536 C542 1.383 . S
C537 C533 1.495 . S
C537 H543 0.959 . S
C537 H544 0.961 . S
C537 H545 0.960 . S
C538 C536 1.381 . S
C538 C539 1.394 . S
C538 H546 0.930 . S
C539 C538 1.394 . S
C539 C540 1.383 . S
C539 H547 0.929 . S
C540 C539 1.383 . S
C540 C541 1.377 . S
C541 H525 0.930 . S
C541 C540 1.377 . S
C541 C542 1.379 . S
C542 H526 0.931 . S
C542 C536 1.383 . S
C542 C541 1.379 . S
H543 C537 0.959 . S
H544 C537 0.961 . S
H545 C537 0.960 . S
H546 C538 0.930 . S
H547 C539 0.929 . S
H548 C556 0.929 . S
H549 C558 0.930 . S
H550 C560 0.930 . S
H551 C563 0.929 . S
H552 C566 0.930 . S
H553 C568 0.960 . S
H554 C568 0.960 . S
H555 C568 0.960 . S
C556 H548 0.929 . S
C556 C557 1.377 . S
C556 C558 1.384 . S
C557 C556 1.377 . S
C557 C563 1.390 . S
C558 H549 0.930 . S
C558 C556 1.384 . S
C558 C559 1.372 . S
C559 C558 1.372 . S
C559 C560 1.400 . S
C559 C564 1.490 . S
C560 H550 0.930 . S
C560 C559 1.400 . S
C560 C563 1.386 . S
H561 C577 0.930 . S
H562 C578 0.931 . S
C563 H551 0.929 . S
C563 C557 1.390 . S
C563 C560 1.386 . S
C564 C559 1.490 . S
C564 C566 1.395 . S
C564 C567 1.403 . S
H565 C571 0.930 . S
C566 H552 0.930 . S
C566 C564 1.395 . S
C566 C569 1.403 . S
C567 C564 1.403 . S
C567 C568 1.524 . S
C567 C571 1.400 . S
C568 H553 0.960 . S
C568 H554 0.960 . S
C568 H555 0.960 . S
C568 C567 1.524 . S
C569 C566 1.403 . S
C569 C570 1.392 . S
C569 C573 1.495 . S
C570 C569 1.392 . S
C570 C571 1.385 . S
C570 C572 1.478 . S
C571 H565 0.930 . S
C571 C567 1.400 . S
C571 C570 1.385 . S
C572 C570 1.478 . S
C572 C574 1.381 . S
C572 C578 1.383 . S
C573 C569 1.495 . S
C573 H579 0.959 . S
C573 H580 0.961 . S
C573 H581 0.960 . S
C574 C572 1.381 . S
C574 C575 1.394 . S
C574 H582 0.930 . S
C575 C574 1.394 . S
C575 C576 1.383 . S
C575 H583 0.929 . S
C576 C575 1.383 . S
C576 C577 1.377 . S
C577 H561 0.930 . S
C577 C576 1.377 . S
C577 C578 1.379 . S
C578 H562 0.931 . S
C578 C572 1.383 . S
C578 C577 1.379 . S
H579 C573 0.959 . S
H580 C573 0.961 . S
H581 C573 0.960 . S
H582 C574 0.930 . S
H583 C575 0.929 . S
H584 C592 0.929 . S
H585 C594 0.930 . S
H586 C596 0.930 . S
H587 C599 0.929 . S
H588 C602 0.930 . S
H589 C604 0.960 . S
H590 C604 0.960 . S
H591 C604 0.960 . S
C592 H584 0.929 . S
C592 C593 1.377 . S
C592 C594 1.384 . S
C593 C592 1.377 . S
C593 C599 1.390 . S
C594 H585 0.930 . S
C594 C592 1.384 . S
C594 C595 1.372 . S
C595 C594 1.372 . S
C595 C596 1.400 . S
C595 C600 1.490 . S
C596 H586 0.930 . S
C596 C595 1.400 . S
C596 C599 1.386 . S
H597 C613 0.930 . S
H598 C614 0.931 . S
C599 H587 0.929 . S
C599 C593 1.390 . S
C599 C596 1.386 . S
C600 C595 1.490 . S
C600 C602 1.395 . S
C600 C603 1.403 . S
H601 C607 0.930 . S
C602 H588 0.930 . S
C602 C600 1.395 . S
C602 C605 1.403 . S
C603 C600 1.403 . S
C603 C604 1.524 . S
C603 C607 1.400 . S
C604 H589 0.960 . S
C604 H590 0.960 . S
C604 H591 0.960 . S
C604 C603 1.524 . S
C605 C602 1.403 . S
C605 C606 1.392 . S
C605 C609 1.495 . S
C606 C605 1.392 . S
C606 C607 1.385 . S
C606 C608 1.478 . S
C607 H601 0.930 . S
C607 C603 1.400 . S
C607 C606 1.385 . S
C608 C606 1.478 . S
C608 C610 1.381 . S
C608 C614 1.383 . S
C609 C605 1.495 . S
C609 H615 0.959 . S
C609 H616 0.961 . S
C609 H617 0.960 . S
C610 C608 1.381 . S
C610 C611 1.394 . S
C610 H618 0.930 . S
C611 C610 1.394 . S
C611 C612 1.383 . S
C611 H619 0.929 . S
C612 C611 1.383 . S
C612 C613 1.377 . S
C613 H597 0.930 . S
C613 C612 1.377 . S
C613 C614 1.379 . S
C614 H598 0.931 . S
C614 C608 1.383 . S
C614 C613 1.379 . S
H615 C609 0.959 . S
H616 C609 0.961 . S
H617 C609 0.960 . S
H618 C610 0.930 . S
H619 C611 0.929 . S
H620 C628 0.929 . S
H621 C630 0.930 . S
H622 C632 0.930 . S
H623 C635 0.929 . S
H624 C638 0.930 . S
H625 C640 0.960 . S
H626 C640 0.960 . S
H627 C640 0.960 . S
C628 H620 0.929 . S
C628 C629 1.377 . S
C628 C630 1.384 . S
C629 C628 1.377 . S
C629 C635 1.390 . S
C630 H621 0.930 . S
C630 C628 1.384 . S
C630 C631 1.372 . S
C631 C630 1.372 . S
C631 C632 1.400 . S
C631 C636 1.490 . S
C632 H622 0.930 . S
C632 C631 1.400 . S
C632 C635 1.386 . S
H633 C649 0.930 . S
H634 C650 0.931 . S
C635 H623 0.929 . S
C635 C629 1.390 . S
C635 C632 1.386 . S
C636 C631 1.490 . S
C636 C638 1.395 . S
C636 C639 1.403 . S
H637 C643 0.930 . S
C638 H624 0.930 . S
C638 C636 1.395 . S
C638 C641 1.403 . S
C639 C636 1.403 . S
C639 C640 1.524 . S
C639 C643 1.400 . S
C640 H625 0.960 . S
C640 H626 0.960 . S
C640 H627 0.960 . S
C640 C639 1.524 . S
C641 C638 1.403 . S
C641 C642 1.392 . S
C641 C645 1.495 . S
C642 C641 1.392 . S
C642 C643 1.385 . S
C642 C644 1.478 . S
C643 H637 0.930 . S
C643 C639 1.400 . S
C643 C642 1.385 . S
C644 C642 1.478 . S
C644 C646 1.381 . S
C644 C650 1.383 . S
C645 C641 1.495 . S
C645 H651 0.959 . S
C645 H652 0.961 . S
C645 H653 0.960 . S
C646 C644 1.381 . S
C646 C647 1.394 . S
C646 H654 0.930 . S
C647 C646 1.394 . S
C647 C648 1.383 . S
C647 H655 0.929 . S
C648 C647 1.383 . S
C648 C649 1.377 . S
C649 H633 0.930 . S
C649 C648 1.377 . S
C649 C650 1.379 . S
C650 H634 0.931 . S
C650 C644 1.383 . S
C650 C649 1.379 . S
H651 C645 0.959 . S
H652 C645 0.961 . S
H653 C645 0.960 . S
H654 C646 0.930 . S
H655 C647 0.929 . S
H656 C664 0.929 . S
H657 C666 0.930 . S
H658 C668 0.930 . S
H659 C671 0.929 . S
H660 C674 0.930 . S
H661 C676 0.960 . S
H662 C676 0.960 . S
H663 C676 0.960 . S
C664 H656 0.929 . S
C664 C665 1.377 . S
C664 C666 1.384 . S
C665 C664 1.377 . S
C665 C671 1.390 . S
C666 H657 0.930 . S
C666 C664 1.384 . S
C666 C667 1.372 . S
C667 C666 1.372 . S
C667 C668 1.400 . S
C667 C672 1.490 . S
C668 H658 0.930 . S
C668 C667 1.400 . S
C668 C671 1.386 . S
H669 C685 0.930 . S
H670 C686 0.931 . S
C671 H659 0.929 . S
C671 C665 1.390 . S
C671 C668 1.386 . S
C672 C667 1.490 . S
C672 C674 1.395 . S
C672 C675 1.403 . S
H673 C679 0.930 . S
C674 H660 0.930 . S
C674 C672 1.395 . S
C674 C677 1.403 . S
C675 C672 1.403 . S
C675 C676 1.524 . S
C675 C679 1.400 . S
C676 H661 0.960 . S
C676 H662 0.960 . S
C676 H663 0.960 . S
C676 C675 1.524 . S
C677 C674 1.403 . S
C677 C678 1.392 . S
C677 C681 1.495 . S
C678 C677 1.392 . S
C678 C679 1.385 . S
C678 C680 1.478 . S
C679 H673 0.930 . S
C679 C675 1.400 . S
C679 C678 1.385 . S
C680 C678 1.478 . S
C680 C682 1.381 . S
C680 C686 1.383 . S
C681 C677 1.495 . S
C681 H687 0.959 . S
C681 H688 0.961 . S
C681 H689 0.960 . S
C682 C680 1.381 . S
C682 C683 1.394 . S
C682 H690 0.930 . S
C683 C682 1.394 . S
C683 C684 1.383 . S
C683 H691 0.929 . S
C684 C683 1.383 . S
C684 C685 1.377 . S
C685 H669 0.930 . S
C685 C684 1.377 . S
C685 C686 1.379 . S
C686 H670 0.931 . S
C686 C680 1.383 . S
C686 C685 1.379 . S
H687 C681 0.959 . S
H688 C681 0.961 . S
H689 C681 0.960 . S
H690 C682 0.930 . S
H691 C683 0.929 . S
H692 C700 0.929 . S
H693 C702 0.930 . S
H694 C704 0.930 . S
H695 C707 0.929 . S
H696 C710 0.930 . S
H697 C712 0.960 . S
H698 C712 0.960 . S
H699 C712 0.960 . S
C700 H692 0.929 . S
C700 C701 1.377 . S
C700 C702 1.384 . S
C701 C700 1.377 . S
C701 C707 1.390 . S
C702 H693 0.930 . S
C702 C700 1.384 . S
C702 C703 1.372 . S
C703 C702 1.372 . S
C703 C704 1.400 . S
C703 C708 1.490 . S
C704 H694 0.930 . S
C704 C703 1.400 . S
C704 C707 1.386 . S
H705 C721 0.930 . S
H706 C722 0.931 . S
C707 H695 0.929 . S
C707 C701 1.390 . S
C707 C704 1.386 . S
C708 C703 1.490 . S
C708 C710 1.395 . S
C708 C711 1.403 . S
H709 C715 0.930 . S
C710 H696 0.930 . S
C710 C708 1.395 . S
C710 C713 1.403 . S
C711 C708 1.403 . S
C711 C712 1.524 . S
C711 C715 1.400 . S
C712 H697 0.960 . S
C712 H698 0.960 . S
C712 H699 0.960 . S
C712 C711 1.524 . S
C713 C710 1.403 . S
C713 C714 1.392 . S
C713 C717 1.495 . S
C714 C713 1.392 . S
C714 C715 1.385 . S
C714 C716 1.478 . S
C715 H709 0.930 . S
C715 C711 1.400 . S
C715 C714 1.385 . S
C716 C714 1.478 . S
C716 C718 1.381 . S
C716 C722 1.383 . S
C717 C713 1.495 . S
C717 H723 0.959 . S
C717 H724 0.961 . S
C717 H725 0.960 . S
C718 C716 1.381 . S
C718 C719 1.394 . S
C718 H726 0.930 . S
C719 C718 1.394 . S
C719 C720 1.383 . S
C719 H727 0.929 . S
C720 C719 1.383 . S
C720 C721 1.377 . S
C721 H705 0.930 . S
C721 C720 1.377 . S
C721 C722 1.379 . S
C722 H706 0.931 . S
C722 C716 1.383 . S
C722 C721 1.379 . S
H723 C717 0.959 . S
H724 C717 0.961 . S
H725 C717 0.960 . S
H726 C718 0.930 . S
H727 C719 0.929 . S
H728 C736 0.929 . S
H729 C738 0.930 . S
H730 C740 0.930 . S
H731 C743 0.929 . S
H732 C746 0.930 . S
H733 C748 0.960 . S
H734 C748 0.960 . S
H735 C748 0.960 . S
C736 H728 0.929 . S
C736 C737 1.377 . S
C736 C738 1.384 . S
C737 C736 1.377 . S
C737 C743 1.390 . S
C738 H729 0.930 . S
C738 C736 1.384 . S
C738 C739 1.372 . S
C739 C738 1.372 . S
C739 C740 1.400 . S
C739 C744 1.490 . S
C740 H730 0.930 . S
C740 C739 1.400 . S
C740 C743 1.386 . S
H741 C757 0.930 . S
H742 C758 0.931 . S
C743 H731 0.929 . S
C743 C737 1.390 . S
C743 C740 1.386 . S
C744 C739 1.490 . S
C744 C746 1.395 . S
C744 C747 1.403 . S
H745 C751 0.930 . S
C746 H732 0.930 . S
C746 C744 1.395 . S
C746 C749 1.403 . S
C747 C744 1.403 . S
C747 C748 1.524 . S
C747 C751 1.400 . S
C748 H733 0.960 . S
C748 H734 0.960 . S
C748 H735 0.960 . S
C748 C747 1.524 . S
C749 C746 1.403 . S
C749 C750 1.392 . S
C749 C753 1.495 . S
C750 C749 1.392 . S
C750 C751 1.385 . S
C750 C752 1.478 . S
C751 H745 0.930 . S
C751 C747 1.400 . S
C751 C750 1.385 . S
C752 C750 1.478 . S
C752 C754 1.381 . S
C752 C758 1.383 . S
C753 C749 1.495 . S
C753 H759 0.959 . S
C753 H760 0.961 . S
C753 H761 0.960 . S
C754 C752 1.381 . S
C754 C755 1.394 . S
C754 H762 0.930 . S
C755 C754 1.394 . S
C755 C756 1.383 . S
C755 H763 0.929 . S
C756 C755 1.383 . S
C756 C757 1.377 . S
C757 H741 0.930 . S
C757 C756 1.377 . S
C757 C758 1.379 . S
C758 H742 0.931 . S
C758 C752 1.383 . S
C758 C757 1.379 . S
H759 C753 0.959 . S
H760 C753 0.961 . S
H761 C753 0.960 . S
H762 C754 0.930 . S
H763 C755 0.929 . S
H764 C772 0.929 . S
H765 C774 0.930 . S
H766 C776 0.930 . S
H767 C779 0.929 . S
H768 C782 0.930 . S
H769 C784 0.960 . S
H770 C784 0.960 . S
H771 C784 0.960 . S
C772 H764 0.929 . S
C772 C773 1.377 . S
C772 C774 1.384 . S
C773 C772 1.377 . S
C773 C779 1.390 . S
C774 H765 0.930 . S
C774 C772 1.384 . S
C774 C775 1.372 . S
C775 C774 1.372 . S
C775 C776 1.400 . S
C775 C780 1.490 . S
C776 H766 0.930 . S
C776 C775 1.400 . S
C776 C779 1.386 . S
H777 C793 0.930 . S
H778 C794 0.931 . S
C779 H767 0.929 . S
C779 C773 1.390 . S
C779 C776 1.386 . S
C780 C775 1.490 . S
C780 C782 1.395 . S
C780 C783 1.403 . S
H781 C787 0.930 . S
C782 H768 0.930 . S
C782 C780 1.395 . S
C782 C785 1.403 . S
C783 C780 1.403 . S
C783 C784 1.524 . S
C783 C787 1.400 . S
C784 H769 0.960 . S
C784 H770 0.960 . S
C784 H771 0.960 . S
C784 C783 1.524 . S
C785 C782 1.403 . S
C785 C786 1.392 . S
C785 C789 1.495 . S
C786 C785 1.392 . S
C786 C787 1.385 . S
C786 C788 1.478 . S
C787 H781 0.930 . S
C787 C783 1.400 . S
C787 C786 1.385 . S
C788 C786 1.478 . S
C788 C790 1.381 . S
C788 C794 1.383 . S
C789 C785 1.495 . S
C789 H795 0.959 . S
C789 H796 0.961 . S
C789 H797 0.960 . S
C790 C788 1.381 . S
C790 C791 1.394 . S
C790 H798 0.930 . S
C791 C790 1.394 . S
C791 C792 1.383 . S
C791 H799 0.929 . S
C792 C791 1.383 . S
C792 C793 1.377 . S
C793 H777 0.930 . S
C793 C792 1.377 . S
C793 C794 1.379 . S
C794 H778 0.931 . S
C794 C788 1.383 . S
C794 C793 1.379 . S
H795 C789 0.959 . S
H796 C789 0.961 . S
H797 C789 0.960 . S
H798 C790 0.930 . S
H799 C791 0.929 . S
H800 C808 0.929 . S
H801 C810 0.930 . S
H802 C812 0.930 . S
H803 C815 0.929 . S
H804 C818 0.930 . S
H805 C820 0.960 . S
H806 C820 0.960 . S
H807 C820 0.960 . S
C808 H800 0.929 . S
C808 C809 1.377 . S
C808 C810 1.384 . S
C809 C808 1.377 . S
C809 C815 1.390 . S
C810 H801 0.930 . S
C810 C808 1.384 . S
C810 C811 1.372 . S
C811 C810 1.372 . S
C811 C812 1.400 . S
C811 C816 1.490 . S
C812 H802 0.930 . S
C812 C811 1.400 . S
C812 C815 1.386 . S
H813 C829 0.930 . S
H814 C830 0.931 . S
C815 H803 0.929 . S
C815 C809 1.390 . S
C815 C812 1.386 . S
C816 C811 1.490 . S
C816 C818 1.395 . S
C816 C819 1.403 . S
H817 C823 0.930 . S
C818 H804 0.930 . S
C818 C816 1.395 . S
C818 C821 1.403 . S
C819 C816 1.403 . S
C819 C820 1.524 . S
C819 C823 1.400 . S
C820 H805 0.960 . S
C820 H806 0.960 . S
C820 H807 0.960 . S
C820 C819 1.524 . S
C821 C818 1.403 . S
C821 C822 1.392 . S
C821 C825 1.495 . S
C822 C821 1.392 . S
C822 C823 1.385 . S
C822 C824 1.478 . S
C823 H817 0.930 . S
C823 C819 1.400 . S
C823 C822 1.385 . S
C824 C822 1.478 . S
C824 C826 1.381 . S
C824 C830 1.383 . S
C825 C821 1.495 . S
C825 H831 0.959 . S
C825 H832 0.961 . S
C825 H833 0.960 . S
C826 C824 1.381 . S
C826 C827 1.394 . S
C826 H834 0.930 . S
C827 C826 1.394 . S
C827 C828 1.383 . S
C827 H835 0.929 . S
C828 C827 1.383 . S
C828 C829 1.377 . S
C829 H813 0.930 . S
C829 C828 1.377 . S
C829 C830 1.379 . S
C830 H814 0.931 . S
C830 C824 1.383 . S
C830 C829 1.379 . S
H831 C825 0.959 . S
H832 C825 0.961 . S
H833 C825 0.960 . S
H834 C826 0.930 . S
H835 C827 0.929 . S
H836 C844 0.929 . S
H837 C846 0.930 . S
H838 C848 0.930 . S
H839 C851 0.929 . S
H840 C854 0.930 . S
H841 C856 0.960 . S
H842 C856 0.960 . S
H843 C856 0.960 . S
C844 H836 0.929 . S
C844 C845 1.377 . S
C844 C846 1.384 . S
C845 C844 1.377 . S
C845 C851 1.390 . S
C846 H837 0.930 . S
C846 C844 1.384 . S
C846 C847 1.372 . S
C847 C846 1.372 . S
C847 C848 1.400 . S
C847 C852 1.490 . S
C848 H838 0.930 . S
C848 C847 1.400 . S
C848 C851 1.386 . S
H849 C865 0.930 . S
H850 C866 0.931 . S
C851 H839 0.929 . S
C851 C845 1.390 . S
C851 C848 1.386 . S
C852 C847 1.490 . S
C852 C854 1.395 . S
C852 C855 1.403 . S
H853 C859 0.930 . S
C854 H840 0.930 . S
C854 C852 1.395 . S
C854 C857 1.403 . S
C855 C852 1.403 . S
C855 C856 1.524 . S
C855 C859 1.400 . S
C856 H841 0.960 . S
C856 H842 0.960 . S
C856 H843 0.960 . S
C856 C855 1.524 . S
C857 C854 1.403 . S
C857 C858 1.392 . S
C857 C861 1.495 . S
C858 C857 1.392 . S
C858 C859 1.385 . S
C858 C860 1.478 . S
C859 H853 0.930 . S
C859 C855 1.400 . S
C859 C858 1.385 . S
C860 C858 1.478 . S
C860 C862 1.381 . S
C860 C866 1.383 . S
C861 C857 1.495 . S
C861 H867 0.959 . S
C861 H868 0.961 . S
C861 H869 0.960 . S
C862 C860 1.381 . S
C862 C863 1.394 . S
C862 H870 0.930 . S
C863 C862 1.394 . S
C863 C864 1.383 . S
C863 H871 0.929 . S
C864 C863 1.383 . S
C864 C865 1.377 . S
C865 H849 0.930 . S
C865 C864 1.377 . S
C865 C866 1.379 . S
C866 H850 0.931 . S
C866 C860 1.383 . S
C866 C865 1.379 . S
H867 C861 0.959 . S
H868 C861 0.961 . S
H869 C861 0.960 . S
H870 C862 0.930 . S
H871 C863 0.929 . S
H872 C880 0.929 . S
H873 C882 0.930 . S
H874 C884 0.930 . S
H875 C887 0.929 1_655 S
H876 C890 0.930 . S
H877 C892 0.960 . S
H878 C892 0.960 . S
H879 C892 0.960 . S
C880 H872 0.929 . S
C880 C881 1.377 . S
C880 C882 1.384 . S
C881 C880 1.377 . S
C881 C887 1.390 . S
C882 H873 0.930 . S
C882 C880 1.384 . S
C882 C883 1.372 . S
C883 C882 1.372 . S
C883 C884 1.400 . S
C883 C888 1.490 . S
C884 H874 0.930 . S
C884 C883 1.400 . S
C884 C887 1.386 . S
H885 C901 0.930 . S
H886 C902 0.931 . S
C887 H875 0.929 1_455 S
C887 C881 1.390 . S
C887 C884 1.386 . S
C888 C883 1.490 . S
C888 C890 1.395 . S
C888 C891 1.403 . S
H889 C895 0.930 . S
C890 H876 0.930 . S
C890 C888 1.395 . S
C890 C893 1.403 . S
C891 C888 1.403 . S
C891 C892 1.524 . S
C891 C895 1.400 . S
C892 H877 0.960 . S
C892 H878 0.960 . S
C892 H879 0.960 . S
C892 C891 1.524 . S
C893 C890 1.403 . S
C893 C894 1.392 . S
C893 C897 1.495 . S
C894 C893 1.392 . S
C894 C895 1.385 . S
C894 C896 1.478 . S
C895 H889 0.930 . S
C895 C891 1.400 . S
C895 C894 1.385 . S
C896 C894 1.478 . S
C896 C898 1.381 . S
C896 C902 1.383 . S
C897 C893 1.495 . S
C897 H903 0.959 . S
C897 H904 0.961 . S
C897 H905 0.960 . S
C898 C896 1.381 . S
C898 C899 1.394 . S
C898 H906 0.930 . S
C899 C898 1.394 . S
C899 C900 1.383 . S
C899 H907 0.929 . S
C900 C899 1.383 . S
C900 C901 1.377 . S
C901 H885 0.930 . S
C901 C900 1.377 . S
C901 C902 1.379 . S
C902 H886 0.931 . S
C902 C896 1.383 . S
C902 C901 1.379 . S
H903 C897 0.959 . S
H904 C897 0.961 . S
H905 C897 0.960 . S
H906 C898 0.930 . S
H907 C899 0.929 . S
H908 C916 0.929 1_565 S
H909 C918 0.930 . S
H910 C920 0.930 . S
H911 C923 0.929 . S
H912 C926 0.930 . S
H913 C928 0.960 . S
H914 C928 0.960 . S
H915 C928 0.960 . S
C916 H908 0.929 1_545 S
C916 C917 1.377 . S
C916 C918 1.384 . S
C917 C916 1.377 . S
C917 C923 1.390 . S
C918 H909 0.930 . S
C918 C916 1.384 . S
C918 C919 1.372 . S
C919 C918 1.372 . S
C919 C920 1.400 . S
C919 C924 1.490 . S
C920 H910 0.930 . S
C920 C919 1.400 . S
C920 C923 1.386 . S
H921 C937 0.930 . S
H922 C938 0.931 . S
C923 H911 0.929 . S
C923 C917 1.390 . S
C923 C920 1.386 . S
C924 C919 1.490 . S
C924 C926 1.395 . S
C924 C927 1.403 . S
H925 C931 0.930 . S
C926 H912 0.930 . S
C926 C924 1.395 . S
C926 C929 1.403 . S
C927 C924 1.403 . S
C927 C928 1.524 . S
C927 C931 1.400 . S
C928 H913 0.960 . S
C928 H914 0.960 . S
C928 H915 0.960 . S
C928 C927 1.524 . S
C929 C926 1.403 . S
C929 C930 1.392 . S
C929 C933 1.495 . S
C930 C929 1.392 . S
C930 C931 1.385 . S
C930 C932 1.478 . S
C931 H925 0.930 . S
C931 C927 1.400 . S
C931 C930 1.385 . S
C932 C930 1.478 . S
C932 C934 1.381 . S
C932 C938 1.383 . S
C933 C929 1.495 . S
C933 H939 0.959 . S
C933 H940 0.961 . S
C933 H941 0.960 . S
C934 C932 1.381 . S
C934 C935 1.394 . S
C934 H942 0.930 . S
C935 C934 1.394 . S
C935 C936 1.383 . S
C935 H943 0.911 1_455 S
C936 C935 1.383 . S
C936 C937 1.377 . S
C937 H921 0.930 . S
C937 C936 1.377 . S
C937 C938 1.379 . S
C938 H922 0.931 . S
C938 C932 1.383 . S
C938 C937 1.379 . S
H939 C933 0.959 . S
H940 C933 0.961 . S
H941 C933 0.960 . S
H942 C934 0.930 . S
H943 C935 0.911 1_655 S
H944 C952 0.929 . S
H945 C954 0.930 . S
H946 C956 0.930 . S
H947 C959 0.929 . S
H948 C962 0.930 . S
H949 C964 0.960 . S
H950 C964 0.960 . S
H951 C964 0.960 . S
C952 H944 0.929 . S
C952 C953 1.377 . S
C952 C954 1.384 . S
C953 C952 1.377 . S
C953 C959 1.390 . S
C954 H945 0.930 . S
C954 C952 1.384 . S
C954 C955 1.372 . S
C955 C954 1.372 . S
C955 C956 1.400 . S
C955 C960 1.490 . S
C956 H946 0.930 . S
C956 C955 1.400 . S
C956 C959 1.386 . S
H957 C973 0.930 . S
H958 C974 0.931 . S
C959 H947 0.929 . S
C959 C953 1.390 . S
C959 C956 1.386 . S
C960 C955 1.490 . S
C960 C962 1.395 . S
C960 C963 1.403 . S
H961 C967 0.930 . S
C962 H948 0.930 . S
C962 C960 1.395 . S
C962 C965 1.403 . S
C963 C960 1.403 . S
C963 C964 1.524 . S
C963 C967 1.400 . S
C964 H949 0.960 . S
C964 H950 0.960 . S
C964 H951 0.960 . S
C964 C963 1.524 . S
C965 C962 1.403 . S
C965 C966 1.392 . S
C965 C969 1.495 . S
C966 C965 1.392 . S
C966 C967 1.385 . S
C966 C968 1.478 . S
C967 H961 0.930 . S
C967 C963 1.400 . S
C967 C966 1.385 . S
C968 C966 1.478 . S
C968 C970 1.381 . S
C968 C974 1.383 . S
C969 C965 1.495 . S
C969 H975 0.959 . S
C969 H976 0.961 . S
C969 H977 0.960 . S
C970 C968 1.381 . S
C970 C971 1.394 . S
C970 H978 0.930 . S
C971 C970 1.394 . S
C971 C972 1.383 . S
C971 H979 0.929 . S
C972 C971 1.383 . S
C972 C973 1.377 . S
C973 H957 0.930 . S
C973 C972 1.377 . S
C973 C974 1.379 . S
C974 H958 0.931 . S
C974 C968 1.383 . S
C974 C973 1.379 . S
H975 C969 0.959 . S
H976 C969 0.961 . S
H977 C969 0.960 . S
H978 C970 0.930 . S
H979 C971 0.929 . S
H980 C988 0.929 . S
H981 C990 0.930 . S
H982 C992 0.930 . S
H983 C995 0.929 . S
H984 C998 0.930 . S
H985 C1000 0.960 . S
H986 C1000 0.960 . S
H987 C1000 0.960 . S
C988 H980 0.929 . S
C988 C989 1.377 . S
C988 C990 1.384 . S
C989 C988 1.377 . S
C989 C995 1.390 . S
C990 H981 0.930 . S
C990 C988 1.384 . S
C990 C991 1.372 . S
C991 C990 1.372 . S
C991 C992 1.400 . S
C991 C996 1.490 . S
C992 H982 0.930 . S
C992 C991 1.400 . S
C992 C995 1.386 . S
H993 C1009 0.930 . S
H994 C1010 0.931 . S
C995 H983 0.929 . S
C995 C989 1.390 . S
C995 C992 1.386 . S
C996 C991 1.490 . S
C996 C998 1.395 . S
C996 C999 1.403 . S
H997 C1003 0.930 . S
C998 H984 0.930 . S
C998 C996 1.395 . S
C998 C1001 1.403 . S
C999 C996 1.403 . S
C999 C1000 1.524 . S
C999 C1003 1.400 . S
C1000 H985 0.960 . S
C1000 H986 0.960 . S
C1000 H987 0.960 . S
C1000 C999 1.524 . S
C1001 C998 1.403 . S
C1001 C1002 1.392 . S
C1001 C1005 1.495 . S
C1002 C1001 1.392 . S
C1002 C1003 1.385 . S
C1002 C1004 1.478 . S
C1003 H997 0.930 . S
C1003 C999 1.400 . S
C1003 C1002 1.385 . S
C1004 C1002 1.478 . S
C1004 C1006 1.381 . S
C1004 C1010 1.383 . S
C1005 C1001 1.495 . S
C1005 H1011 0.959 . S
C1005 H1012 0.961 . S
C1005 H1013 0.960 . S
C1006 C1004 1.381 . S
C1006 C1007 1.394 . S
C1006 H1014 0.930 . S
C1007 C1006 1.394 . S
C1007 C1008 1.383 . S
C1007 H1015 0.929 1_565 S
C1008 C1007 1.383 . S
C1008 C1009 1.377 . S
C1009 H993 0.930 . S
C1009 C1008 1.377 . S
C1009 C1010 1.379 . S
C1010 H994 0.931 . S
C1010 C1004 1.383 . S
C1010 C1009 1.379 . S
H1011 C1005 0.959 . S
H1012 C1005 0.961 . S
H1013 C1005 0.960 . S
H1014 C1006 0.930 . S
H1015 C1007 0.929 1_545 S
H1016 C1024 0.929 . S
H1017 C1026 0.930 . S
H1018 C1028 0.930 . S
H1019 C1031 0.929 . S
H1020 C1034 0.930 . S
H1021 C1036 0.960 . S
H1022 C1036 0.960 . S
H1023 C1036 0.960 . S
C1024 H1016 0.929 . S
C1024 C1025 1.377 . S
C1024 C1026 1.384 . S
C1025 C1024 1.377 . S
C1025 C1031 1.390 . S
C1026 H1017 0.930 . S
C1026 C1024 1.384 . S
C1026 C1027 1.372 . S
C1027 C1026 1.372 . S
C1027 C1028 1.400 . S
C1027 C1032 1.490 . S
C1028 H1018 0.930 . S
C1028 C1027 1.400 . S
C1028 C1031 1.386 . S
H1029 C1045 0.930 . S
H1030 C1046 0.931 . S
C1031 H1019 0.929 . S
C1031 C1025 1.390 . S
C1031 C1028 1.386 . S
C1032 C1027 1.490 . S
C1032 C1034 1.395 . S
C1032 C1035 1.403 . S
H1033 C1039 0.930 . S
C1034 H1020 0.930 . S
C1034 C1032 1.395 . S
C1034 C1037 1.403 . S
C1035 C1032 1.403 . S
C1035 C1036 1.524 . S
C1035 C1039 1.400 . S
C1036 H1021 0.960 . S
C1036 H1022 0.960 . S
C1036 H1023 0.960 . S
C1036 C1035 1.524 . S
C1037 C1034 1.403 . S
C1037 C1038 1.392 . S
C1037 C1041 1.495 . S
C1038 C1037 1.392 . S
C1038 C1039 1.385 . S
C1038 C1040 1.478 . S
C1039 H1033 0.930 . S
C1039 C1035 1.400 . S
C1039 C1038 1.385 . S
C1040 C1038 1.478 . S
C1040 C1042 1.381 . S
C1040 C1046 1.383 . S
C1041 C1037 1.495 . S
C1041 H1047 0.959 . S
C1041 H1048 0.961 . S
C1041 H1049 0.960 . S
C1042 C1040 1.381 . S
C1042 C1043 1.394 . S
C1042 H1050 0.930 . S
C1043 C1042 1.394 . S
C1043 C1044 1.383 . S
C1043 H1051 0.929 . S
C1044 C1043 1.383 . S
C1044 C1045 1.377 . S
C1045 H1029 0.930 . S
C1045 C1044 1.377 . S
C1045 C1046 1.379 . S
C1046 H1030 0.931 . S
C1046 C1040 1.383 . S
C1046 C1045 1.379 . S
H1047 C1041 0.959 . S
H1048 C1041 0.961 . S
H1049 C1041 0.960 . S
H1050 C1042 0.930 . S
H1051 C1043 0.929 . S
H1052 C1060 0.929 . S
H1053 C1062 0.930 . S
H1054 C1064 0.930 . S
H1055 C1067 0.929 1_455 S
H1056 C1070 0.930 . S
H1057 C1072 0.960 . S
H1058 C1072 0.960 . S
H1059 C1072 0.960 . S
C1060 H1052 0.929 . S
C1060 C1061 1.377 . S
C1060 C1062 1.384 . S
C1061 C1060 1.377 . S
C1061 C1067 1.390 . S
C1062 H1053 0.930 . S
C1062 C1060 1.384 . S
C1062 C1063 1.372 . S
C1063 C1062 1.372 . S
C1063 C1064 1.400 . S
C1063 C1068 1.490 . S
C1064 H1054 0.930 . S
C1064 C1063 1.400 . S
C1064 C1067 1.386 . S
H1065 C1081 0.930 . S
H1066 C1082 0.931 . S
C1067 H1055 0.929 1_655 S
C1067 C1061 1.390 . S
C1067 C1064 1.386 . S
C1068 C1063 1.490 . S
C1068 C1070 1.395 . S
C1068 C1071 1.403 . S
H1069 C1075 0.930 . S
C1070 H1056 0.930 . S
C1070 C1068 1.395 . S
C1070 C1073 1.403 . S
C1071 C1068 1.403 . S
C1071 C1072 1.524 . S
C1071 C1075 1.400 . S
C1072 H1057 0.960 . S
C1072 H1058 0.960 . S
C1072 H1059 0.960 . S
C1072 C1071 1.524 . S
C1073 C1070 1.403 . S
C1073 C1074 1.392 . S
C1073 C1077 1.495 . S
C1074 C1073 1.392 . S
C1074 C1075 1.385 . S
C1074 C1076 1.478 . S
C1075 H1069 0.930 . S
C1075 C1071 1.400 . S
C1075 C1074 1.385 . S
C1076 C1074 1.478 . S
C1076 C1078 1.381 . S
C1076 C1082 1.383 . S
C1077 C1073 1.495 . S
C1077 H1083 0.959 . S
C1077 H1084 0.961 . S
C1077 H1085 0.960 . S
C1078 C1076 1.381 . S
C1078 C1079 1.394 . S
C1078 H1086 0.930 . S
C1079 C1078 1.394 . S
C1079 C1080 1.383 . S
C1079 H1087 0.929 . S
C1080 C1079 1.383 . S
C1080 C1081 1.377 . S
C1081 H1065 0.930 . S
C1081 C1080 1.377 . S
C1081 C1082 1.379 . S
C1082 H1066 0.931 . S
C1082 C1076 1.383 . S
C1082 C1081 1.379 . S
H1083 C1077 0.959 . S
H1084 C1077 0.961 . S
H1085 C1077 0.960 . S
H1086 C1078 0.930 . S
H1087 C1079 0.929 . S
H1088 C1096 0.929 . S
H1089 C1098 0.930 . S
H1090 C1100 0.930 . S
H1091 C1103 0.929 . S
H1092 C1106 0.930 . S
H1093 C1108 0.960 . S
H1094 C1108 0.960 . S
H1095 C1108 0.960 . S
C1096 H1088 0.929 . S
C1096 C1097 1.377 . S
C1096 C1098 1.384 . S
C1097 C1096 1.377 . S
C1097 C1103 1.390 . S
C1098 H1089 0.930 . S
C1098 C1096 1.384 . S
C1098 C1099 1.372 . S
C1099 C1098 1.372 . S
C1099 C1100 1.400 . S
C1099 C1104 1.490 . S
C1100 H1090 0.930 . S
C1100 C1099 1.400 . S
C1100 C1103 1.386 . S
H1101 C1117 0.930 . S
H1102 C1118 0.931 . S
C1103 H1091 0.929 . S
C1103 C1097 1.390 . S
C1103 C1100 1.386 . S
C1104 C1099 1.490 . S
C1104 C1106 1.395 . S
C1104 C1107 1.403 . S
H1105 C1111 0.930 . S
C1106 H1092 0.930 . S
C1106 C1104 1.395 . S
C1106 C1109 1.403 . S
C1107 C1104 1.403 . S
C1107 C1108 1.524 . S
C1107 C1111 1.400 . S
C1108 H1093 0.960 . S
C1108 H1094 0.960 . S
C1108 H1095 0.960 . S
C1108 C1107 1.524 . S
C1109 C1106 1.403 . S
C1109 C1110 1.392 . S
C1109 C1113 1.495 . S
C1110 C1109 1.392 . S
C1110 C1111 1.385 . S
C1110 C1112 1.478 . S
C1111 H1105 0.930 . S
C1111 C1107 1.400 . S
C1111 C1110 1.385 . S
C1112 C1110 1.478 . S
C1112 C1114 1.381 . S
C1112 C1118 1.383 . S
C1113 C1109 1.495 . S
C1113 H1119 0.959 . S
C1113 H1120 0.961 . S
C1113 H1121 0.960 . S
C1114 C1112 1.381 . S
C1114 C1115 1.394 . S
C1114 H1122 0.930 . S
C1115 C1114 1.394 . S
C1115 C1116 1.383 . S
C1115 H1123 0.929 . S
C1116 C1115 1.383 . S
C1116 C1117 1.377 . S
C1117 H1101 0.930 . S
C1117 C1116 1.377 . S
C1117 C1118 1.379 . S
C1118 H1102 0.931 . S
C1118 C1112 1.383 . S
C1118 C1117 1.379 . S
H1119 C1113 0.959 . S
H1120 C1113 0.961 . S
H1121 C1113 0.960 . S
H1122 C1114 0.930 . S
H1123 C1115 0.929 . S
H1124 C1132 0.929 . S
H1125 C1134 0.930 . S
H1126 C1136 0.930 . S
H1127 C1139 0.929 . S
H1128 C1142 0.930 . S
H1129 C1144 0.960 . S
H1130 C1144 0.960 . S
H1131 C1144 0.960 . S
C1132 H1124 0.929 . S
C1132 C1133 1.377 . S
C1132 C1134 1.384 . S
C1133 C1132 1.377 . S
C1133 C1139 1.390 . S
C1134 H1125 0.930 . S
C1134 C1132 1.384 . S
C1134 C1135 1.372 . S
C1135 C1134 1.372 . S
C1135 C1136 1.400 . S
C1135 C1140 1.490 . S
C1136 H1126 0.930 . S
C1136 C1135 1.400 . S
C1136 C1139 1.386 . S
H1137 C1153 0.930 . S
H1138 C1154 0.931 . S
C1139 H1127 0.929 . S
C1139 C1133 1.390 . S
C1139 C1136 1.386 . S
C1140 C1135 1.490 . S
C1140 C1142 1.395 . S
C1140 C1143 1.403 . S
H1141 C1147 0.930 . S
C1142 H1128 0.930 . S
C1142 C1140 1.395 . S
C1142 C1145 1.403 . S
C1143 C1140 1.403 . S
C1143 C1144 1.524 . S
C1143 C1147 1.400 . S
C1144 H1129 0.960 . S
C1144 H1130 0.960 . S
C1144 H1131 0.960 . S
C1144 C1143 1.524 . S
C1145 C1142 1.403 . S
C1145 C1146 1.392 . S
C1145 C1149 1.495 . S
C1146 C1145 1.392 . S
C1146 C1147 1.385 . S
C1146 C1148 1.478 . S
C1147 H1141 0.930 . S
C1147 C1143 1.400 . S
C1147 C1146 1.385 . S
C1148 C1146 1.478 . S
C1148 C1150 1.381 . S
C1148 C1154 1.383 . S
C1149 C1145 1.495 . S
C1149 H1155 0.959 . S
C1149 H1156 0.961 . S
C1149 H1157 0.960 . S
C1150 C1148 1.381 . S
C1150 C1151 1.394 . S
C1150 H1158 0.930 . S
C1151 C1150 1.394 . S
C1151 C1152 1.383 . S
C1151 H1159 0.929 . S
C1152 C1151 1.383 . S
C1152 C1153 1.377 . S
C1153 H1137 0.930 . S
C1153 C1152 1.377 . S
C1153 C1154 1.379 . S
C1154 H1138 0.931 . S
C1154 C1148 1.383 . S
C1154 C1153 1.379 . S
H1155 C1149 0.959 . S
H1156 C1149 0.961 . S
H1157 C1149 0.960 . S
H1158 C1150 0.930 . S
H1159 C1151 0.929 . S
H1160 C1168 0.929 1_455 S
H1161 C1170 0.930 . S
H1162 C1172 0.930 . S
H1163 C1175 0.929 . S
H1164 C1178 0.930 . S
H1165 C1180 0.960 . S
H1166 C1180 0.960 . S
H1167 C1180 0.960 . S
C1168 H1160 0.929 1_655 S
C1168 C1169 1.377 . S
C1168 C1170 1.384 . S
C1169 C1168 1.377 . S
C1169 C1175 1.390 . S
C1170 H1161 0.930 . S
C1170 C1168 1.384 . S
C1170 C1171 1.372 . S
C1171 C1170 1.372 . S
C1171 C1172 1.400 . S
C1171 C1176 1.490 . S
C1172 H1162 0.930 . S
C1172 C1171 1.400 . S
C1172 C1175 1.386 . S
H1173 C1189 0.930 . S
H1174 C1190 0.931 . S
C1175 H1163 0.929 . S
C1175 C1169 1.390 . S
C1175 C1172 1.386 . S
C1176 C1171 1.490 . S
C1176 C1178 1.395 . S
C1176 C1179 1.403 . S
H1177 C1183 0.930 . S
C1178 H1164 0.930 . S
C1178 C1176 1.395 . S
C1178 C1181 1.403 . S
C1179 C1176 1.403 . S
C1179 C1180 1.524 . S
C1179 C1183 1.400 . S
C1180 H1165 0.960 . S
C1180 H1166 0.960 . S
C1180 H1167 0.960 . S
C1180 C1179 1.524 . S
C1181 C1178 1.403 . S
C1181 C1182 1.392 . S
C1181 C1185 1.495 . S
C1182 C1181 1.392 . S
C1182 C1183 1.385 . S
C1182 C1184 1.478 . S
C1183 H1177 0.930 . S
C1183 C1179 1.400 . S
C1183 C1182 1.385 . S
C1184 C1182 1.478 . S
C1184 C1186 1.381 . S
C1184 C1190 1.383 . S
C1185 C1181 1.495 . S
C1185 H1191 0.959 . S
C1185 H1192 0.961 . S
C1185 H1193 0.960 . S
C1186 C1184 1.381 . S
C1186 C1187 1.394 . S
C1186 H1194 0.930 . S
C1187 C1186 1.394 . S
C1187 C1188 1.383 . S
C1187 H1195 0.929 . S
C1188 C1187 1.383 . S
C1188 C1189 1.377 . S
C1189 H1173 0.930 . S
C1189 C1188 1.377 . S
C1189 C1190 1.379 . S
C1190 H1174 0.931 . S
C1190 C1184 1.383 . S
C1190 C1189 1.379 . S
H1191 C1185 0.959 . S
H1192 C1185 0.961 . S
H1193 C1185 0.960 . S
H1194 C1186 0.930 . S
H1195 C1187 0.929 . S
H1196 C1204 0.932 1_545 S
H1197 C1206 0.930 . S
H1198 C1208 0.930 . S
H1199 C1211 0.929 . S
H1200 C1214 0.930 . S
H1201 C1216 0.960 . S
H1202 C1216 0.960 . S
H1203 C1216 0.960 . S
C1204 H1196 0.932 1_565 S
C1204 C1205 1.377 . S
C1204 C1206 1.384 . S
C1205 C1204 1.377 . S
C1205 C1211 1.390 . S
C1206 H1197 0.930 . S
C1206 C1204 1.384 . S
C1206 C1207 1.372 . S
C1207 C1206 1.372 . S
C1207 C1208 1.400 . S
C1207 C1212 1.490 . S
C1208 H1198 0.930 . S
C1208 C1207 1.400 . S
C1208 C1211 1.386 . S
H1209 C1225 0.930 . S
H1210 C1226 0.931 . S
C1211 H1199 0.929 . S
C1211 C1205 1.390 . S
C1211 C1208 1.386 . S
C1212 C1207 1.490 . S
C1212 C1214 1.395 . S
C1212 C1215 1.403 . S
H1213 C1219 0.930 . S
C1214 H1200 0.930 . S
C1214 C1212 1.395 . S
C1214 C1217 1.403 . S
C1215 C1212 1.403 . S
C1215 C1216 1.524 . S
C1215 C1219 1.400 . S
C1216 H1201 0.960 . S
C1216 H1202 0.960 . S
C1216 H1203 0.960 . S
C1216 C1215 1.524 . S
C1217 C1214 1.403 . S
C1217 C1218 1.392 . S
C1217 C1221 1.495 . S
C1218 C1217 1.392 . S
C1218 C1219 1.385 . S
C1218 C1220 1.478 . S
C1219 H1213 0.930 . S
C1219 C1215 1.400 . S
C1219 C1218 1.385 . S
C1220 C1218 1.478 . S
C1220 C1222 1.381 . S
C1220 C1226 1.383 . S
C1221 C1217 1.495 . S
C1221 H1227 0.959 . S
C1221 H1228 0.961 . S
C1221 H1229 0.960 . S
C1222 C1220 1.381 . S
C1222 C1223 1.394 . S
C1222 H1230 0.930 . S
C1223 C1222 1.394 . S
C1223 C1224 1.383 . S
C1223 H1231 0.929 1_655 S
C1224 C1223 1.383 . S
C1224 C1225 1.377 . S
C1225 H1209 0.930 . S
C1225 C1224 1.377 . S
C1225 C1226 1.379 . S
C1226 H1210 0.931 . S
C1226 C1220 1.383 . S
C1226 C1225 1.379 . S
H1227 C1221 0.959 . S
H1228 C1221 0.961 . S
H1229 C1221 0.960 . S
H1230 C1222 0.930 . S
H1231 C1223 0.929 1_455 S
H1232 C1240 0.929 . S
H1233 C1242 0.930 . S
H1234 C1244 0.930 . S
H1235 C1247 0.929 . S
H1236 C1250 0.930 . S
H1237 C1252 0.960 . S
H1238 C1252 0.960 . S
H1239 C1252 0.960 . S
C1240 H1232 0.929 . S
C1240 C1241 1.377 . S
C1240 C1242 1.384 . S
C1241 C1240 1.377 . S
C1241 C1247 1.390 . S
C1242 H1233 0.930 . S
C1242 C1240 1.384 . S
C1242 C1243 1.372 . S
C1243 C1242 1.372 . S
C1243 C1244 1.400 . S
C1243 C1248 1.490 . S
C1244 H1234 0.930 . S
C1244 C1243 1.400 . S
C1244 C1247 1.386 . S
H1245 C1261 0.930 . S
H1246 C1262 0.931 . S
C1247 H1235 0.929 . S
C1247 C1241 1.390 . S
C1247 C1244 1.386 . S
C1248 C1243 1.490 . S
C1248 C1250 1.395 . S
C1248 C1251 1.403 . S
H1249 C1255 0.930 . S
C1250 H1236 0.930 . S
C1250 C1248 1.395 . S
C1250 C1253 1.403 . S
C1251 C1248 1.403 . S
C1251 C1252 1.524 . S
C1251 C1255 1.400 . S
C1252 H1237 0.960 . S
C1252 H1238 0.960 . S
C1252 H1239 0.960 . S
C1252 C1251 1.524 . S
C1253 C1250 1.403 . S
C1253 C1254 1.392 . S
C1253 C1257 1.495 . S
C1254 C1253 1.392 . S
C1254 C1255 1.385 . S
C1254 C1256 1.478 . S
C1255 H1249 0.930 . S
C1255 C1251 1.400 . S
C1255 C1254 1.385 . S
C1256 C1254 1.478 . S
C1256 C1258 1.381 . S
C1256 C1262 1.383 . S
C1257 C1253 1.495 . S
C1257 H1263 0.959 . S
C1257 H1264 0.961 . S
C1257 H1265 0.960 . S
C1258 C1256 1.381 . S
C1258 C1259 1.394 . S
C1258 H1266 0.930 . S
C1259 C1258 1.394 . S
C1259 C1260 1.383 . S
C1259 H1267 0.929 . S
C1260 C1259 1.383 . S
C1260 C1261 1.377 . S
C1261 H1245 0.930 . S
C1261 C1260 1.377 . S
C1261 C1262 1.379 . S
C1262 H1246 0.931 . S
C1262 C1256 1.383 . S
C1262 C1261 1.379 . S
H1263 C1257 0.959 . S
H1264 C1257 0.961 . S
H1265 C1257 0.960 . S
H1266 C1258 0.930 . S
H1267 C1259 0.929 . S
H1268 C1276 0.929 . S
H1269 C1278 0.930 . S
H1270 C1280 0.930 . S
H1271 C1283 0.929 . S
H1272 C1286 0.930 . S
H1273 C1288 0.960 . S
H1274 C1288 0.960 . S
H1275 C1288 0.960 . S
C1276 H1268 0.929 . S
C1276 C1277 1.377 . S
C1276 C1278 1.384 . S
C1277 C1276 1.377 . S
C1277 C1283 1.390 . S
C1278 H1269 0.930 . S
C1278 C1276 1.384 . S
C1278 C1279 1.372 . S
C1279 C1278 1.372 . S
C1279 C1280 1.400 . S
C1279 C1284 1.490 . S
C1280 H1270 0.930 . S
C1280 C1279 1.400 . S
C1280 C1283 1.386 . S
H1281 C1297 0.930 . S
H1282 C1298 0.931 . S
C1283 H1271 0.929 . S
C1283 C1277 1.390 . S
C1283 C1280 1.386 . S
C1284 C1279 1.490 . S
C1284 C1286 1.395 . S
C1284 C1287 1.403 . S
H1285 C1291 0.930 . S
C1286 H1272 0.930 . S
C1286 C1284 1.395 . S
C1286 C1289 1.403 . S
C1287 C1284 1.403 . S
C1287 C1288 1.524 . S
C1287 C1291 1.400 . S
C1288 H1273 0.960 . S
C1288 H1274 0.960 . S
C1288 H1275 0.960 . S
C1288 C1287 1.524 . S
C1289 C1286 1.403 . S
C1289 C1290 1.392 . S
C1289 C1293 1.495 . S
C1290 C1289 1.392 . S
C1290 C1291 1.385 . S
C1290 C1292 1.478 . S
C1291 H1285 0.930 . S
C1291 C1287 1.400 . S
C1291 C1290 1.385 . S
C1292 C1290 1.478 . S
C1292 C1294 1.381 . S
C1292 C1298 1.383 . S
C1293 C1289 1.495 . S
C1293 H1299 0.959 . S
C1293 H1300 0.961 . S
C1293 H1301 0.960 . S
C1294 C1292 1.381 . S
C1294 C1295 1.394 . S
C1294 H1302 0.930 . S
C1295 C1294 1.394 . S
C1295 C1296 1.383 . S
C1295 H1303 0.929 . S
C1296 C1295 1.383 . S
C1296 C1297 1.377 . S
C1297 H1281 0.930 . S
C1297 C1296 1.377 . S
C1297 C1298 1.379 . S
C1298 H1282 0.931 . S
C1298 C1292 1.383 . S
C1298 C1297 1.379 . S
H1299 C1293 0.959 . S
H1300 C1293 0.961 . S
H1301 C1293 0.960 . S
H1302 C1294 0.930 . S
H1303 C1295 0.929 . S
H1304 C1312 0.929 . S
H1305 C1314 0.930 . S
H1306 C1316 0.930 . S
H1307 C1319 0.929 . S
H1308 C1322 0.930 . S
H1309 C1324 0.960 . S
H1310 C1324 0.960 . S
H1311 C1324 0.960 . S
C1312 H1304 0.929 . S
C1312 C1313 1.377 . S
C1312 C1314 1.384 . S
C1313 C1312 1.377 . S
C1313 C1319 1.390 . S
C1314 H1305 0.930 . S
C1314 C1312 1.384 . S
C1314 C1315 1.372 . S
C1315 C1314 1.372 . S
C1315 C1316 1.400 . S
C1315 C1320 1.490 . S
C1316 H1306 0.930 . S
C1316 C1315 1.400 . S
C1316 C1319 1.386 . S
H1317 C1333 0.930 . S
H1318 C1334 0.931 . S
C1319 H1307 0.929 . S
C1319 C1313 1.390 . S
C1319 C1316 1.386 . S
C1320 C1315 1.490 . S
C1320 C1322 1.395 . S
C1320 C1323 1.403 . S
H1321 C1327 0.930 . S
C1322 H1308 0.930 . S
C1322 C1320 1.395 . S
C1322 C1325 1.403 . S
C1323 C1320 1.403 . S
C1323 C1324 1.524 . S
C1323 C1327 1.400 . S
C1324 H1309 0.960 . S
C1324 H1310 0.960 . S
C1324 H1311 0.960 . S
C1324 C1323 1.524 . S
C1325 C1322 1.403 . S
C1325 C1326 1.392 . S
C1325 C1329 1.495 . S
C1326 C1325 1.392 . S
C1326 C1327 1.385 . S
C1326 C1328 1.478 . S
C1327 H1321 0.930 . S
C1327 C1323 1.400 . S
C1327 C1326 1.385 . S
C1328 C1326 1.478 . S
C1328 C1330 1.381 . S
C1328 C1334 1.383 . S
C1329 C1325 1.495 . S
C1329 H1335 0.959 . S
C1329 H1336 0.961 . S
C1329 H1337 0.960 . S
C1330 C1328 1.381 . S
C1330 C1331 1.394 . S
C1330 H1338 0.930 . S
C1331 C1330 1.394 . S
C1331 C1332 1.383 . S
C1331 H1339 0.929 . S
C1332 C1331 1.383 . S
C1332 C1333 1.377 . S
C1333 H1317 0.930 . S
C1333 C1332 1.377 . S
C1333 C1334 1.379 . S
C1334 H1318 0.931 . S
C1334 C1328 1.383 . S
C1334 C1333 1.379 . S
H1335 C1329 0.959 . S
H1336 C1329 0.961 . S
H1337 C1329 0.960 . S
H1338 C1330 0.930 . S
H1339 C1331 0.929 . S
H1340 C1348 0.929 . S
H1341 C1350 0.930 . S
H1342 C1352 0.930 . S
H1343 C1355 0.929 . S
H1344 C1358 0.930 . S
H1345 C1360 0.960 . S
H1346 C1360 0.960 . S
H1347 C1360 0.960 . S
C1348 H1340 0.929 . S
C1348 C1349 1.377 . S
C1348 C1350 1.384 . S
C1349 C1348 1.377 . S
C1349 C1355 1.390 . S
C1350 H1341 0.930 . S
C1350 C1348 1.384 . S
C1350 C1351 1.372 . S
C1351 C1350 1.372 . S
C1351 C1352 1.400 . S
C1351 C1356 1.490 . S
C1352 H1342 0.930 . S
C1352 C1351 1.400 . S
C1352 C1355 1.386 . S
H1353 C1369 0.930 . S
H1354 C1370 0.931 . S
C1355 H1343 0.929 . S
C1355 C1349 1.390 . S
C1355 C1352 1.386 . S
C1356 C1351 1.490 . S
C1356 C1358 1.395 . S
C1356 C1359 1.403 . S
H1357 C1363 0.930 . S
C1358 H1344 0.930 . S
C1358 C1356 1.395 . S
C1358 C1361 1.403 . S
C1359 C1356 1.403 . S
C1359 C1360 1.524 . S
C1359 C1363 1.400 . S
C1360 H1345 0.960 . S
C1360 H1346 0.960 . S
C1360 H1347 0.960 . S
C1360 C1359 1.524 . S
C1361 C1358 1.403 . S
C1361 C1362 1.392 . S
C1361 C1365 1.495 . S
C1362 C1361 1.392 . S
C1362 C1363 1.385 . S
C1362 C1364 1.478 . S
C1363 H1357 0.930 . S
C1363 C1359 1.400 . S
C1363 C1362 1.385 . S
C1364 C1362 1.478 . S
C1364 C1366 1.381 . S
C1364 C1370 1.383 . S
C1365 C1361 1.495 . S
C1365 H1371 0.959 . S
C1365 H1372 0.961 . S
C1365 H1373 0.960 . S
C1366 C1364 1.381 . S
C1366 C1367 1.394 . S
C1366 H1374 0.930 . S
C1367 C1366 1.394 . S
C1367 C1368 1.383 . S
C1367 H1375 0.929 . S
C1368 C1367 1.383 . S
C1368 C1369 1.377 . S
C1369 H1353 0.930 . S
C1369 C1368 1.377 . S
C1369 C1370 1.379 . S
C1370 H1354 0.931 . S
C1370 C1364 1.383 . S
C1370 C1369 1.379 . S
H1371 C1365 0.959 . S
H1372 C1365 0.961 . S
H1373 C1365 0.960 . S
H1374 C1366 0.930 . S
H1375 C1367 0.929 . S
H1376 C1384 0.929 . S
H1377 C1386 0.930 . S
H1378 C1388 0.930 . S
H1379 C1391 0.929 . S
H1380 C1394 0.930 . S
H1381 C1396 0.960 . S
H1382 C1396 0.960 . S
H1383 C1396 0.960 . S
C1384 H1376 0.929 . S
C1384 C1385 1.377 . S
C1384 C1386 1.384 . S
C1385 C1384 1.377 . S
C1385 C1391 1.390 . S
C1386 H1377 0.930 . S
C1386 C1384 1.384 . S
C1386 C1387 1.372 . S
C1387 C1386 1.372 . S
C1387 C1388 1.400 . S
C1387 C1392 1.490 . S
C1388 H1378 0.930 . S
C1388 C1387 1.400 . S
C1388 C1391 1.386 . S
H1389 C1405 0.930 . S
H1390 C1406 0.931 . S
C1391 H1379 0.929 . S
C1391 C1385 1.390 . S
C1391 C1388 1.386 . S
C1392 C1387 1.490 . S
C1392 C1394 1.395 . S
C1392 C1395 1.403 . S
H1393 C1399 0.930 . S
C1394 H1380 0.930 . S
C1394 C1392 1.395 . S
C1394 C1397 1.403 . S
C1395 C1392 1.403 . S
C1395 C1396 1.524 . S
C1395 C1399 1.400 . S
C1396 H1381 0.960 . S
C1396 H1382 0.960 . S
C1396 H1383 0.960 . S
C1396 C1395 1.524 . S
C1397 C1394 1.403 . S
C1397 C1398 1.392 . S
C1397 C1401 1.495 . S
C1398 C1397 1.392 . S
C1398 C1399 1.385 . S
C1398 C1400 1.478 . S
C1399 H1393 0.930 . S
C1399 C1395 1.400 . S
C1399 C1398 1.385 . S
C1400 C1398 1.478 . S
C1400 C1402 1.381 . S
C1400 C1406 1.383 . S
C1401 C1397 1.495 . S
C1401 H1407 0.959 . S
C1401 H1408 0.961 . S
C1401 H1409 0.960 . S
C1402 C1400 1.381 . S
C1402 C1403 1.394 . S
C1402 H1410 0.930 . S
C1403 C1402 1.394 . S
C1403 C1404 1.383 . S
C1403 H1411 0.929 . S
C1404 C1403 1.383 . S
C1404 C1405 1.377 . S
C1405 H1389 0.930 . S
C1405 C1404 1.377 . S
C1405 C1406 1.379 . S
C1406 H1390 0.931 . S
C1406 C1400 1.383 . S
C1406 C1405 1.379 . S
H1407 C1401 0.959 . S
H1408 C1401 0.961 . S
H1409 C1401 0.960 . S
H1410 C1402 0.930 . S
H1411 C1403 0.929 . S
H1412 C1420 0.929 . S
H1413 C1422 0.930 . S
H1414 C1424 0.930 . S
H1415 C1427 0.929 . S
H1416 C1430 0.930 . S
H1417 C1432 0.960 . S
H1418 C1432 0.960 . S
H1419 C1432 0.960 . S
C1420 H1412 0.929 . S
C1420 C1421 1.377 . S
C1420 C1422 1.384 . S
C1421 C1420 1.377 . S
C1421 C1427 1.390 . S
C1422 H1413 0.930 . S
C1422 C1420 1.384 . S
C1422 C1423 1.372 . S
C1423 C1422 1.372 . S
C1423 C1424 1.400 . S
C1423 C1428 1.490 . S
C1424 H1414 0.930 . S
C1424 C1423 1.400 . S
C1424 C1427 1.386 . S
H1425 C1441 0.930 . S
H1426 C1442 0.931 . S
C1427 H1415 0.929 . S
C1427 C1421 1.390 . S
C1427 C1424 1.386 . S
C1428 C1423 1.490 . S
C1428 C1430 1.395 . S
C1428 C1431 1.403 . S
H1429 C1435 0.930 . S
C1430 H1416 0.930 . S
C1430 C1428 1.395 . S
C1430 C1433 1.403 . S
C1431 C1428 1.403 . S
C1431 C1432 1.524 . S
C1431 C1435 1.400 . S
C1432 H1417 0.960 . S
C1432 H1418 0.960 . S
C1432 H1419 0.960 . S
C1432 C1431 1.524 . S
C1433 C1430 1.403 . S
C1433 C1434 1.392 . S
C1433 C1437 1.495 . S
C1434 C1433 1.392 . S
C1434 C1435 1.385 . S
C1434 C1436 1.478 . S
C1435 H1429 0.930 . S
C1435 C1431 1.400 . S
C1435 C1434 1.385 . S
C1436 C1434 1.478 . S
C1436 C1438 1.381 . S
C1436 C1442 1.383 . S
C1437 C1433 1.495 . S
C1437 H1443 0.959 . S
C1437 H1444 0.961 . S
C1437 H1445 0.960 . S
C1438 C1436 1.381 . S
C1438 C1439 1.394 . S
C1438 H1446 0.930 . S
C1439 C1438 1.394 . S
C1439 C1440 1.383 . S
C1439 H1447 0.929 . S
C1440 C1439 1.383 . S
C1440 C1441 1.377 . S
C1441 H1425 0.930 . S
C1441 C1440 1.377 . S
C1441 C1442 1.379 . S
C1442 H1426 0.931 . S
C1442 C1436 1.383 . S
C1442 C1441 1.379 . S
H1443 C1437 0.959 . S
H1444 C1437 0.961 . S
H1445 C1437 0.960 . S
H1446 C1438 0.930 . S
H1447 C1439 0.929 . S
H1448 C1456 0.929 . S
H1449 C1458 0.930 . S
H1450 C1460 0.930 . S
H1451 C1463 0.929 . S
H1452 C1466 0.930 . S
H1453 C1468 0.960 . S
H1454 C1468 0.960 . S
H1455 C1468 0.960 . S
C1456 H1448 0.929 . S
C1456 C1457 1.377 . S
C1456 C1458 1.384 . S
C1457 C1456 1.377 . S
C1457 C1463 1.390 . S
C1458 H1449 0.930 . S
C1458 C1456 1.384 . S
C1458 C1459 1.372 . S
C1459 C1458 1.372 . S
C1459 C1460 1.400 . S
C1459 C1464 1.490 . S
C1460 H1450 0.930 . S
C1460 C1459 1.400 . S
C1460 C1463 1.386 . S
H1461 C1477 0.930 . S
H1462 C1478 0.931 . S
C1463 H1451 0.929 . S
C1463 C1457 1.390 . S
C1463 C1460 1.386 . S
C1464 C1459 1.490 . S
C1464 C1466 1.395 . S
C1464 C1467 1.403 . S
H1465 C1471 0.930 . S
C1466 H1452 0.930 . S
C1466 C1464 1.395 . S
C1466 C1469 1.403 . S
C1467 C1464 1.403 . S
C1467 C1468 1.524 . S
C1467 C1471 1.400 . S
C1468 H1453 0.960 . S
C1468 H1454 0.960 . S
C1468 H1455 0.960 . S
C1468 C1467 1.524 . S
C1469 C1466 1.403 . S
C1469 C1470 1.392 . S
C1469 C1473 1.495 . S
C1470 C1469 1.392 . S
C1470 C1471 1.385 . S
C1470 C1472 1.478 . S
C1471 H1465 0.930 . S
C1471 C1467 1.400 . S
C1471 C1470 1.385 . S
C1472 C1470 1.478 . S
C1472 C1474 1.381 . S
C1472 C1478 1.383 . S
C1473 C1469 1.495 . S
C1473 H1479 0.959 . S
C1473 H1480 0.961 . S
C1473 H1481 0.960 . S
C1474 C1472 1.381 . S
C1474 C1475 1.394 . S
C1474 H1482 0.930 . S
C1475 C1474 1.394 . S
C1475 C1476 1.383 . S
C1475 H1483 0.929 . S
C1476 C1475 1.383 . S
C1476 C1477 1.377 . S
C1477 H1461 0.930 . S
C1477 C1476 1.377 . S
C1477 C1478 1.379 . S
C1478 H1462 0.931 . S
C1478 C1472 1.383 . S
C1478 C1477 1.379 . S
H1479 C1473 0.959 . S
H1480 C1473 0.961 . S
H1481 C1473 0.960 . S
H1482 C1474 0.930 . S
H1483 C1475 0.929 . S
H1484 C1492 0.929 . S
H1485 C1494 0.930 . S
H1486 C1496 0.930 . S
H1487 C1499 0.929 . S
H1488 C1502 0.930 . S
H1489 C1504 0.960 . S
H1490 C1504 0.960 . S
H1491 C1504 0.960 . S
C1492 H1484 0.929 . S
C1492 C1493 1.377 . S
C1492 C1494 1.384 . S
C1493 C1492 1.377 . S
C1493 C1499 1.390 . S
C1494 H1485 0.930 . S
C1494 C1492 1.384 . S
C1494 C1495 1.372 . S
C1495 C1494 1.372 . S
C1495 C1496 1.400 . S
C1495 C1500 1.490 . S
C1496 H1486 0.930 . S
C1496 C1495 1.400 . S
C1496 C1499 1.386 . S
H1497 C1513 0.930 . S
H1498 C1514 0.931 . S
C1499 H1487 0.929 . S
C1499 C1493 1.390 . S
C1499 C1496 1.386 . S
C1500 C1495 1.490 . S
C1500 C1502 1.395 . S
C1500 C1503 1.403 . S
H1501 C1507 0.930 . S
C1502 H1488 0.930 . S
C1502 C1500 1.395 . S
C1502 C1505 1.403 . S
C1503 C1500 1.403 . S
C1503 C1504 1.524 . S
C1503 C1507 1.400 . S
C1504 H1489 0.960 . S
C1504 H1490 0.960 . S
C1504 H1491 0.960 . S
C1504 C1503 1.524 . S
C1505 C1502 1.403 . S
C1505 C1506 1.392 . S
C1505 C1509 1.495 . S
C1506 C1505 1.392 . S
C1506 C1507 1.385 . S
C1506 C1508 1.478 . S
C1507 H1501 0.930 . S
C1507 C1503 1.400 . S
C1507 C1506 1.385 . S
C1508 C1506 1.478 . S
C1508 C1510 1.381 . S
C1508 C1514 1.383 . S
C1509 C1505 1.495 . S
C1509 H1515 0.959 . S
C1509 H1516 0.961 . S
C1509 H1517 0.960 . S
C1510 C1508 1.381 . S
C1510 C1511 1.394 . S
C1510 H1518 0.930 . S
C1511 C1510 1.394 . S
C1511 C1512 1.383 . S
C1511 H1519 0.929 . S
C1512 C1511 1.383 . S
C1512 C1513 1.377 . S
C1513 H1497 0.930 . S
C1513 C1512 1.377 . S
C1513 C1514 1.379 . S
C1514 H1498 0.931 . S
C1514 C1508 1.383 . S
C1514 C1513 1.379 . S
H1515 C1509 0.959 . S
H1516 C1509 0.961 . S
H1517 C1509 0.960 . S
H1518 C1510 0.930 . S
H1519 C1511 0.929 . S
H1520 C1528 0.929 . S
H1521 C1530 0.930 . S
H1522 C1532 0.930 . S
H1523 C1535 0.929 . S
H1524 C1538 0.930 . S
H1525 C1540 0.960 . S
H1526 C1540 0.960 . S
H1527 C1540 0.960 . S
C1528 H1520 0.929 . S
C1528 C1529 1.377 . S
C1528 C1530 1.384 . S
C1529 C1528 1.377 . S
C1529 C1535 1.390 . S
C1530 H1521 0.930 . S
C1530 C1528 1.384 . S
C1530 C1531 1.372 . S
C1531 C1530 1.372 . S
C1531 C1532 1.400 . S
C1531 C1536 1.490 . S
C1532 H1522 0.930 . S
C1532 C1531 1.400 . S
C1532 C1535 1.386 . S
H1533 C1549 0.930 . S
H1534 C1550 0.931 . S
C1535 H1523 0.929 . S
C1535 C1529 1.390 . S
C1535 C1532 1.386 . S
C1536 C1531 1.490 . S
C1536 C1538 1.395 . S
C1536 C1539 1.403 . S
H1537 C1543 0.930 . S
C1538 H1524 0.930 . S
C1538 C1536 1.395 . S
C1538 C1541 1.403 . S
C1539 C1536 1.403 . S
C1539 C1540 1.524 . S
C1539 C1543 1.400 . S
C1540 H1525 0.960 . S
C1540 H1526 0.960 . S
C1540 H1527 0.960 . S
C1540 C1539 1.524 . S
C1541 C1538 1.403 . S
C1541 C1542 1.392 . S
C1541 C1545 1.495 . S
C1542 C1541 1.392 . S
C1542 C1543 1.385 . S
C1542 C1544 1.478 . S
C1543 H1537 0.930 . S
C1543 C1539 1.400 . S
C1543 C1542 1.385 . S
C1544 C1542 1.478 . S
C1544 C1546 1.381 . S
C1544 C1550 1.383 . S
C1545 C1541 1.495 . S
C1545 H1551 0.959 . S
C1545 H1552 0.961 . S
C1545 H1553 0.960 . S
C1546 C1544 1.381 . S
C1546 C1547 1.394 . S
C1546 H1554 0.930 . S
C1547 C1546 1.394 . S
C1547 C1548 1.383 . S
C1547 H1555 0.929 . S
C1548 C1547 1.383 . S
C1548 C1549 1.377 . S
C1549 H1533 0.930 . S
C1549 C1548 1.377 . S
C1549 C1550 1.379 . S
C1550 H1534 0.931 . S
C1550 C1544 1.383 . S
C1550 C1549 1.379 . S
H1551 C1545 0.959 . S
H1552 C1545 0.961 . S
H1553 C1545 0.960 . S
H1554 C1546 0.930 . S
H1555 C1547 0.929 . S
H1556 C1564 0.929 . S
H1557 C1566 0.930 . S
H1558 C1568 0.930 . S
H1559 C1571 0.929 . S
H1560 C1574 0.930 . S
H1561 C1576 0.960 . S
H1562 C1576 0.960 . S
H1563 C1576 0.960 . S
C1564 H1556 0.929 . S
C1564 C1565 1.377 . S
C1564 C1566 1.384 . S
C1565 C1564 1.377 . S
C1565 C1571 1.390 . S
C1566 H1557 0.930 . S
C1566 C1564 1.384 . S
C1566 C1567 1.372 . S
C1567 C1566 1.372 . S
C1567 C1568 1.400 . S
C1567 C1572 1.490 . S
C1568 H1558 0.930 . S
C1568 C1567 1.400 . S
C1568 C1571 1.386 . S
H1569 C1585 0.930 . S
H1570 C1586 0.931 . S
C1571 H1559 0.929 . S
C1571 C1565 1.390 . S
C1571 C1568 1.386 . S
C1572 C1567 1.490 . S
C1572 C1574 1.395 . S
C1572 C1575 1.403 . S
H1573 C1579 0.930 . S
C1574 H1560 0.930 . S
C1574 C1572 1.395 . S
C1574 C1577 1.403 . S
C1575 C1572 1.403 . S
C1575 C1576 1.524 . S
C1575 C1579 1.400 . S
C1576 H1561 0.960 . S
C1576 H1562 0.960 . S
C1576 H1563 0.960 . S
C1576 C1575 1.524 . S
C1577 C1574 1.403 . S
C1577 C1578 1.392 . S
C1577 C1581 1.495 . S
C1578 C1577 1.392 . S
C1578 C1579 1.385 . S
C1578 C1580 1.478 . S
C1579 H1573 0.930 . S
C1579 C1575 1.400 . S
C1579 C1578 1.385 . S
C1580 C1578 1.478 . S
C1580 C1582 1.381 . S
C1580 C1586 1.383 . S
C1581 C1577 1.495 . S
C1581 H1587 0.959 . S
C1581 H1588 0.961 . S
C1581 H1589 0.960 . S
C1582 C1580 1.381 . S
C1582 C1583 1.394 . S
C1582 H1590 0.930 . S
C1583 C1582 1.394 . S
C1583 C1584 1.383 . S
C1583 H1591 0.929 . S
C1584 C1583 1.383 . S
C1584 C1585 1.377 . S
C1585 H1569 0.930 . S
C1585 C1584 1.377 . S
C1585 C1586 1.379 . S
C1586 H1570 0.931 . S
C1586 C1580 1.383 . S
C1586 C1585 1.379 . S
H1587 C1581 0.959 . S
H1588 C1581 0.961 . S
H1589 C1581 0.960 . S
H1590 C1582 0.930 . S
H1591 C1583 0.929 . S
H1592 C1600 0.929 . S
H1593 C1602 0.930 . S
H1594 C1604 0.930 . S
H1595 C1607 0.929 . S
H1596 C1610 0.930 . S
H1597 C1612 0.960 . S
H1598 C1612 0.960 . S
H1599 C1612 0.960 . S
C1600 H1592 0.929 . S
C1600 C1601 1.377 . S
C1600 C1602 1.384 . S
C1601 C1600 1.377 . S
C1601 C1607 1.390 . S
C1602 H1593 0.930 . S
C1602 C1600 1.384 . S
C1602 C1603 1.372 . S
C1603 C1602 1.372 . S
C1603 C1604 1.400 . S
C1603 C1608 1.490 . S
C1604 H1594 0.930 . S
C1604 C1603 1.400 . S
C1604 C1607 1.386 . S
H1605 C1621 0.930 . S
H1606 C1622 0.931 . S
C1607 H1595 0.929 . S
C1607 C1601 1.390 . S
C1607 C1604 1.386 . S
C1608 C1603 1.490 . S
C1608 C1610 1.395 . S
C1608 C1611 1.403 . S
H1609 C1615 0.930 . S
C1610 H1596 0.930 . S
C1610 C1608 1.395 . S
C1610 C1613 1.403 . S
C1611 C1608 1.403 . S
C1611 C1612 1.524 . S
C1611 C1615 1.400 . S
C1612 H1597 0.960 . S
C1612 H1598 0.960 . S
C1612 H1599 0.960 . S
C1612 C1611 1.524 . S
C1613 C1610 1.403 . S
C1613 C1614 1.392 . S
C1613 C1617 1.495 . S
C1614 C1613 1.392 . S
C1614 C1615 1.385 . S
C1614 C1616 1.478 . S
C1615 H1609 0.930 . S
C1615 C1611 1.400 . S
C1615 C1614 1.385 . S
C1616 C1614 1.478 . S
C1616 C1618 1.381 . S
C1616 C1622 1.383 . S
C1617 C1613 1.495 . S
C1617 H1623 0.959 . S
C1617 H1624 0.961 . S
C1617 H1625 0.960 . S
C1618 C1616 1.381 . S
C1618 C1619 1.394 . S
C1618 H1626 0.930 . S
C1619 C1618 1.394 . S
C1619 C1620 1.383 . S
C1619 H1627 0.929 . S
C1620 C1619 1.383 . S
C1620 C1621 1.377 . S
C1621 H1605 0.930 . S
C1621 C1620 1.377 . S
C1621 C1622 1.379 . S
C1622 H1606 0.931 . S
C1622 C1616 1.383 . S
C1622 C1621 1.379 . S
H1623 C1617 0.959 . S
H1624 C1617 0.961 . S
H1625 C1617 0.960 . S
H1626 C1618 0.930 . S
H1627 C1619 0.929 . S
H1628 C1636 0.929 . S
H1629 C1638 0.930 . S
H1630 C1640 0.930 . S
H1631 C1643 0.929 . S
H1632 C1646 0.930 . S
H1633 C1648 0.960 . S
H1634 C1648 0.960 . S
H1635 C1648 0.960 . S
C1636 H1628 0.929 . S
C1636 C1637 1.377 . S
C1636 C1638 1.384 . S
C1637 C1636 1.377 . S
C1637 C1643 1.390 . S
C1638 H1629 0.930 . S
C1638 C1636 1.384 . S
C1638 C1639 1.372 . S
C1639 C1638 1.372 . S
C1639 C1640 1.400 . S
C1639 C1644 1.490 . S
C1640 H1630 0.930 . S
C1640 C1639 1.400 . S
C1640 C1643 1.386 . S
H1641 C1657 0.930 . S
H1642 C1658 0.931 . S
C1643 H1631 0.929 . S
C1643 C1637 1.390 . S
C1643 C1640 1.386 . S
C1644 C1639 1.490 . S
C1644 C1646 1.395 . S
C1644 C1647 1.403 . S
H1645 C1651 0.930 . S
C1646 H1632 0.930 . S
C1646 C1644 1.395 . S
C1646 C1649 1.403 . S
C1647 C1644 1.403 . S
C1647 C1648 1.524 . S
C1647 C1651 1.400 . S
C1648 H1633 0.960 . S
C1648 H1634 0.960 . S
C1648 H1635 0.960 . S
C1648 C1647 1.524 . S
C1649 C1646 1.403 . S
C1649 C1650 1.392 . S
C1649 C1653 1.495 . S
C1650 C1649 1.392 . S
C1650 C1651 1.385 . S
C1650 C1652 1.478 . S
C1651 H1645 0.930 . S
C1651 C1647 1.400 . S
C1651 C1650 1.385 . S
C1652 C1650 1.478 . S
C1652 C1654 1.381 . S
C1652 C1658 1.383 . S
C1653 C1649 1.495 . S
C1653 H1659 0.959 . S
C1653 H1660 0.961 . S
C1653 H1661 0.960 . S
C1654 C1652 1.381 . S
C1654 C1655 1.394 . S
C1654 H1662 0.930 . S
C1655 C1654 1.394 . S
C1655 C1656 1.383 . S
C1655 H1663 0.929 . S
C1656 C1655 1.383 . S
C1656 C1657 1.377 . S
C1657 H1641 0.930 . S
C1657 C1656 1.377 . S
C1657 C1658 1.379 . S
C1658 H1642 0.931 . S
C1658 C1652 1.383 . S
C1658 C1657 1.379 . S
H1659 C1653 0.959 . S
H1660 C1653 0.961 . S
H1661 C1653 0.960 . S
H1662 C1654 0.930 . S
H1663 C1655 0.929 . S
H1664 C1672 0.929 . S
H1665 C1674 0.930 . S
H1666 C1676 0.930 . S
H1667 C1679 0.929 . S
H1668 C1682 0.930 . S
H1669 C1684 0.960 . S
H1670 C1684 0.960 . S
H1671 C1684 0.960 . S
C1672 H1664 0.929 . S
C1672 C1673 1.377 . S
C1672 C1674 1.384 . S
C1673 C1672 1.377 . S
C1673 C1679 1.390 . S
C1674 H1665 0.930 . S
C1674 C1672 1.384 . S
C1674 C1675 1.372 . S
C1675 C1674 1.372 . S
C1675 C1676 1.400 . S
C1675 C1680 1.490 . S
C1676 H1666 0.930 . S
C1676 C1675 1.400 . S
C1676 C1679 1.386 . S
H1677 C1693 0.930 . S
H1678 C1694 0.931 . S
C1679 H1667 0.929 . S
C1679 C1673 1.390 . S
C1679 C1676 1.386 . S
C1680 C1675 1.490 . S
C1680 C1682 1.395 . S
C1680 C1683 1.403 . S
H1681 C1687 0.930 . S
C1682 H1668 0.930 . S
C1682 C1680 1.395 . S
C1682 C1685 1.403 . S
C1683 C1680 1.403 . S
C1683 C1684 1.524 . S
C1683 C1687 1.400 . S
C1684 H1669 0.960 . S
C1684 H1670 0.960 . S
C1684 H1671 0.960 . S
C1684 C1683 1.524 . S
C1685 C1682 1.403 . S
C1685 C1686 1.392 . S
C1685 C1689 1.495 . S
C1686 C1685 1.392 . S
C1686 C1687 1.385 . S
C1686 C1688 1.478 . S
C1687 H1681 0.930 . S
C1687 C1683 1.400 . S
C1687 C1686 1.385 . S
C1688 C1686 1.478 . S
C1688 C1690 1.381 . S
C1688 C1694 1.383 . S
C1689 C1685 1.495 . S
C1689 H1695 0.959 . S
C1689 H1696 0.961 . S
C1689 H1697 0.960 . S
C1690 C1688 1.381 . S
C1690 C1691 1.394 . S
C1690 H1698 0.930 . S
C1691 C1690 1.394 . S
C1691 C1692 1.383 . S
C1691 H1699 0.929 . S
C1692 C1691 1.383 . S
C1692 C1693 1.377 . S
C1693 H1677 0.930 . S
C1693 C1692 1.377 . S
C1693 C1694 1.379 . S
C1694 H1678 0.931 . S
C1694 C1688 1.383 . S
C1694 C1693 1.379 . S
H1695 C1689 0.959 . S
H1696 C1689 0.961 . S
H1697 C1689 0.960 . S
H1698 C1690 0.930 . S
H1699 C1691 0.929 . S
H1700 C1708 0.929 . S
H1701 C1710 0.930 . S
H1702 C1712 0.930 . S
H1703 C1715 0.929 . S
H1704 C1718 0.930 . S
H1705 C1720 0.960 . S
H1706 C1720 0.960 . S
H1707 C1720 0.960 . S
C1708 H1700 0.929 . S
C1708 C1709 1.377 . S
C1708 C1710 1.384 . S
C1709 C1708 1.377 . S
C1709 C1715 1.390 . S
C1710 H1701 0.930 . S
C1710 C1708 1.384 . S
C1710 C1711 1.372 . S
C1711 C1710 1.372 . S
C1711 C1712 1.400 . S
C1711 C1716 1.490 . S
C1712 H1702 0.930 . S
C1712 C1711 1.400 . S
C1712 C1715 1.386 . S
H1713 C1729 0.930 . S
H1714 C1730 0.931 . S
C1715 H1703 0.929 . S
C1715 C1709 1.390 . S
C1715 C1712 1.386 . S
C1716 C1711 1.490 . S
C1716 C1718 1.395 . S
C1716 C1719 1.403 . S
H1717 C1723 0.930 . S
C1718 H1704 0.930 . S
C1718 C1716 1.395 . S
C1718 C1721 1.403 . S
C1719 C1716 1.403 . S
C1719 C1720 1.524 . S
C1719 C1723 1.400 . S
C1720 H1705 0.960 . S
C1720 H1706 0.960 . S
C1720 H1707 0.960 . S
C1720 C1719 1.524 . S
C1721 C1718 1.403 . S
C1721 C1722 1.392 . S
C1721 C1725 1.495 . S
C1722 C1721 1.392 . S
C1722 C1723 1.385 . S
C1722 C1724 1.478 . S
C1723 H1717 0.930 . S
C1723 C1719 1.400 . S
C1723 C1722 1.385 . S
C1724 C1722 1.478 . S
C1724 C1726 1.381 . S
C1724 C1730 1.383 . S
C1725 C1721 1.495 . S
C1725 H1731 0.959 . S
C1725 H1732 0.961 . S
C1725 H1733 0.960 . S
C1726 C1724 1.381 . S
C1726 C1727 1.394 . S
C1726 H1734 0.930 . S
C1727 C1726 1.394 . S
C1727 C1728 1.383 . S
C1727 H1735 0.929 . S
C1728 C1727 1.383 . S
C1728 C1729 1.377 . S
C1729 H1713 0.930 . S
C1729 C1728 1.377 . S
C1729 C1730 1.379 . S
C1730 H1714 0.931 . S
C1730 C1724 1.383 . S
C1730 C1729 1.379 . S
H1731 C1725 0.959 . S
H1732 C1725 0.961 . S
H1733 C1725 0.960 . S
H1734 C1726 0.930 . S
H1735 C1727 0.929 . S
H1736 C1744 0.929 . S
H1737 C1746 0.930 . S
H1738 C1748 0.930 . S
H1739 C1751 0.929 . S
H1740 C1754 0.930 . S
H1741 C1756 0.960 . S
H1742 C1756 0.960 . S
H1743 C1756 0.960 . S
C1744 H1736 0.929 . S
C1744 C1745 1.377 . S
C1744 C1746 1.384 . S
C1745 C1744 1.377 . S
C1745 C1751 1.390 . S
C1746 H1737 0.930 . S
C1746 C1744 1.384 . S
C1746 C1747 1.372 . S
C1747 C1746 1.372 . S
C1747 C1748 1.400 . S
C1747 C1752 1.490 . S
C1748 H1738 0.930 . S
C1748 C1747 1.400 . S
C1748 C1751 1.386 . S
H1749 C1765 0.930 . S
H1750 C1766 0.931 . S
C1751 H1739 0.929 . S
C1751 C1745 1.390 . S
C1751 C1748 1.386 . S
C1752 C1747 1.490 . S
C1752 C1754 1.395 . S
C1752 C1755 1.403 . S
H1753 C1759 0.930 . S
C1754 H1740 0.930 . S
C1754 C1752 1.395 . S
C1754 C1757 1.403 . S
C1755 C1752 1.403 . S
C1755 C1756 1.524 . S
C1755 C1759 1.400 . S
C1756 H1741 0.960 . S
C1756 H1742 0.960 . S
C1756 H1743 0.960 . S
C1756 C1755 1.524 . S
C1757 C1754 1.403 . S
C1757 C1758 1.392 . S
C1757 C1761 1.495 . S
C1758 C1757 1.392 . S
C1758 C1759 1.385 . S
C1758 C1760 1.478 . S
C1759 H1753 0.930 . S
C1759 C1755 1.400 . S
C1759 C1758 1.385 . S
C1760 C1758 1.478 . S
C1760 C1762 1.381 . S
C1760 C1766 1.383 . S
C1761 C1757 1.495 . S
C1761 H1767 0.959 . S
C1761 H1768 0.961 . S
C1761 H1769 0.960 . S
C1762 C1760 1.381 . S
C1762 C1763 1.394 . S
C1762 H1770 0.930 . S
C1763 C1762 1.394 . S
C1763 C1764 1.383 . S
C1763 H1771 0.929 . S
C1764 C1763 1.383 . S
C1764 C1765 1.377 . S
C1765 H1749 0.930 . S
C1765 C1764 1.377 . S
C1765 C1766 1.379 . S
C1766 H1750 0.931 . S
C1766 C1760 1.383 . S
C1766 C1765 1.379 . S
H1767 C1761 0.959 . S
H1768 C1761 0.961 . S
H1769 C1761 0.960 . S
H1770 C1762 0.930 . S
H1771 C1763 0.929 . S
H1772 C1780 0.929 . S
H1773 C1782 0.930 . S
H1774 C1784 0.930 . S
H1775 C1787 0.929 . S
H1776 C1790 0.930 . S
H1777 C1792 0.960 . S
H1778 C1792 0.960 . S
H1779 C1792 0.960 . S
C1780 H1772 0.929 . S
C1780 C1781 1.377 . S
C1780 C1782 1.384 . S
C1781 C1780 1.377 . S
C1781 C1787 1.390 . S
C1782 H1773 0.930 . S
C1782 C1780 1.384 . S
C1782 C1783 1.372 . S
C1783 C1782 1.372 . S
C1783 C1784 1.400 . S
C1783 C1788 1.490 . S
C1784 H1774 0.930 . S
C1784 C1783 1.400 . S
C1784 C1787 1.386 . S
H1785 C1801 0.930 . S
H1786 C1802 0.931 . S
C1787 H1775 0.929 . S
C1787 C1781 1.390 . S
C1787 C1784 1.386 . S
C1788 C1783 1.490 . S
C1788 C1790 1.395 . S
C1788 C1791 1.403 . S
H1789 C1795 0.930 . S
C1790 H1776 0.930 . S
C1790 C1788 1.395 . S
C1790 C1793 1.403 . S
C1791 C1788 1.403 . S
C1791 C1792 1.524 . S
C1791 C1795 1.400 . S
C1792 H1777 0.960 . S
C1792 H1778 0.960 . S
C1792 H1779 0.960 . S
C1792 C1791 1.524 . S
C1793 C1790 1.403 . S
C1793 C1794 1.392 . S
C1793 C1797 1.495 . S
C1794 C1793 1.392 . S
C1794 C1795 1.385 . S
C1794 C1796 1.478 . S
C1795 H1789 0.930 . S
C1795 C1791 1.400 . S
C1795 C1794 1.385 . S
C1796 C1794 1.478 . S
C1796 C1798 1.381 . S
C1796 C1802 1.383 . S
C1797 C1793 1.495 . S
C1797 H1803 0.959 . S
C1797 H1804 0.961 . S
C1797 H1805 0.960 . S
C1798 C1796 1.381 . S
C1798 C1799 1.394 . S
C1798 H1806 0.930 . S
C1799 C1798 1.394 . S
C1799 C1800 1.383 . S
C1799 H1807 0.929 . S
C1800 C1799 1.383 . S
C1800 C1801 1.377 . S
C1801 H1785 0.930 . S
C1801 C1800 1.377 . S
C1801 C1802 1.379 . S
C1802 H1786 0.931 . S
C1802 C1796 1.383 . S
C1802 C1801 1.379 . S
H1803 C1797 0.959 . S
H1804 C1797 0.961 . S
H1805 C1797 0.960 . S
H1806 C1798 0.930 . S
H1807 C1799 0.929 . S
H1808 C1816 0.929 . S
H1809 C1818 0.930 . S
H1810 C1820 0.930 . S
H1811 C1823 0.929 . S
H1812 C1826 0.930 . S
H1813 C1828 0.960 . S
H1814 C1828 0.960 1_556 S
H1815 C1828 0.960 1_556 S
C1816 H1808 0.929 . S
C1816 C1817 1.377 . S
C1816 C1818 1.384 . S
C1817 C1816 1.377 . S
C1817 C1823 1.390 . S
C1818 H1809 0.930 . S
C1818 C1816 1.384 . S
C1818 C1819 1.372 . S
C1819 C1818 1.372 . S
C1819 C1820 1.400 . S
C1819 C1824 1.490 . S
C1820 H1810 0.930 . S
C1820 C1819 1.400 . S
C1820 C1823 1.386 . S
H1821 C1837 0.930 . S
H1822 C1838 0.931 . S
C1823 H1811 0.929 . S
C1823 C1817 1.390 . S
C1823 C1820 1.386 . S
C1824 C1819 1.490 . S
C1824 C1826 1.395 . S
C1824 C1827 1.403 . S
H1825 C1831 0.930 . S
C1826 H1812 0.930 . S
C1826 C1824 1.395 . S
C1826 C1829 1.403 . S
C1827 C1824 1.403 . S
C1827 C1828 1.524 1_556 S
C1827 C1831 1.400 1_556 S
C1828 H1813 0.960 . S
C1828 H1814 0.960 1_554 S
C1828 H1815 0.960 1_554 S
C1828 C1827 1.524 1_554 S
C1829 C1826 1.403 . S
C1829 C1830 1.392 1_556 S
C1829 C1833 1.495 . S
C1830 C1829 1.392 1_554 S
C1830 C1831 1.385 . S
C1830 C1832 1.478 . S
C1831 H1825 0.930 . S
C1831 C1827 1.400 1_554 S
C1831 C1830 1.385 . S
C1832 C1830 1.478 . S
C1832 C1834 1.381 . S
C1832 C1838 1.383 . S
C1833 C1829 1.495 . S
C1833 H1839 0.959 . S
C1833 H1840 0.961 . S
C1833 H1841 0.960 . S
C1834 C1832 1.381 . S
C1834 C1835 1.394 . S
C1834 H1842 0.930 . S
C1835 C1834 1.394 . S
C1835 C1836 1.383 . S
C1835 H1843 0.929 . S
C1836 C1835 1.383 . S
C1836 C1837 1.377 . S
C1837 H1821 0.930 . S
C1837 C1836 1.377 . S
C1837 C1838 1.379 . S
C1838 H1822 0.931 . S
C1838 C1832 1.383 . S
C1838 C1837 1.379 . S
H1839 C1833 0.959 . S
H1840 C1833 0.961 . S
H1841 C1833 0.960 . S
H1842 C1834 0.930 . S
H1843 C1835 0.929 . S
H1844 C1852 0.929 . S
H1845 C1854 0.930 . S
H1846 C1856 0.930 . S
H1847 C1859 0.929 . S
H1848 C1862 0.930 . S
H1849 C1864 0.960 . S
H1850 C1864 0.962 . S
H1851 C1864 0.960 . S
C1852 H1844 0.929 . S
C1852 C1853 1.377 . S
C1852 C1854 1.384 . S
C1853 C1852 1.377 . S
C1853 C1859 1.390 . S
C1854 H1845 0.930 . S
C1854 C1852 1.384 . S
C1854 C1855 1.372 . S
C1855 C1854 1.372 . S
C1855 C1856 1.400 . S
C1855 C1860 1.490 . S
C1856 H1846 0.930 . S
C1856 C1855 1.400 . S
C1856 C1859 1.386 . S
H1857 C1873 0.930 . S
H1858 C1874 0.931 . S
C1859 H1847 0.929 . S
C1859 C1853 1.390 . S
C1859 C1856 1.386 . S
C1860 C1855 1.490 . S
C1860 C1862 1.395 . S
C1860 C1863 1.403 1_554 S
H1861 C1867 0.930 . S
C1862 H1848 0.930 . S
C1862 C1860 1.395 . S
C1862 C1865 1.374 1_554 S
C1863 C1860 1.403 1_556 S
C1863 C1864 1.524 . S
C1863 C1867 1.400 . S
C1864 H1849 0.960 . S
C1864 H1850 0.962 . S
C1864 H1851 0.960 . S
C1864 C1863 1.524 . S
C1865 C1862 1.374 1_556 S
C1865 C1866 1.427 . S
C1865 C1869 1.491 1_556 S
C1866 C1865 1.427 . S
C1866 C1867 1.385 . S
C1866 C1868 1.478 . S
C1867 H1861 0.930 . S
C1867 C1863 1.400 . S
C1867 C1866 1.385 . S
C1868 C1866 1.478 . S
C1868 C1870 1.381 . S
C1868 C1874 1.383 . S
C1869 C1865 1.491 1_554 S
C1869 H1875 0.959 . S
C1869 H1876 0.961 1_554 S
C1869 H1877 0.960 1_554 S
C1870 C1868 1.381 . S
C1870 C1871 1.394 . S
C1870 H1878 0.930 . S
C1871 C1870 1.394 . S
C1871 C1872 1.383 . S
C1871 H1879 0.929 . S
C1872 C1871 1.383 . S
C1872 C1873 1.377 . S
C1873 H1857 0.930 . S
C1873 C1872 1.377 . S
C1873 C1874 1.379 . S
C1874 H1858 0.931 . S
C1874 C1868 1.383 . S
C1874 C1873 1.379 . S
H1875 C1869 0.959 . S
H1876 C1869 0.961 1_556 S
H1877 C1869 0.960 1_556 S
H1878 C1870 0.930 . S
H1879 C1871 0.929 . S
H1880 C1888 0.929 . S
H1881 C1890 0.930 . S
H1882 C1892 0.930 . S
H1883 C1895 0.929 . S
H1884 C1898 0.930 . S
H1885 C1900 0.960 1_554 S
H1886 C1900 0.960 . S
H1887 C1900 0.960 . S
C1888 H1880 0.929 . S
C1888 C1889 1.377 . S
C1888 C1890 1.384 . S
C1889 C1888 1.377 . S
C1889 C1895 1.390 . S
C1890 H1881 0.930 . S
C1890 C1888 1.384 . S
C1890 C1891 1.372 . S
C1891 C1890 1.372 . S
C1891 C1892 1.400 . S
C1891 C1896 1.490 . S
C1892 H1882 0.930 . S
C1892 C1891 1.400 . S
C1892 C1895 1.386 . S
H1893 C1909 0.930 . S
H1894 C1910 0.931 . S
C1895 H1883 0.929 . S
C1895 C1889 1.390 . S
C1895 C1892 1.386 . S
C1896 C1891 1.490 . S
C1896 C1898 1.395 . S
C1896 C1899 1.403 . S
H1897 C1903 0.930 . S
C1898 H1884 0.930 . S
C1898 C1896 1.395 . S
C1898 C1901 1.403 . S
C1899 C1896 1.403 . S
C1899 C1900 1.524 . S
C1899 C1903 1.400 1_556 S
C1900 H1885 0.960 1_556 S
C1900 H1886 0.960 . S
C1900 H1887 0.960 . S
C1900 C1899 1.524 . S
C1901 C1898 1.403 . S
C1901 C1902 1.392 1_556 S
C1901 C1905 1.500 . S
C1902 C1901 1.392 1_554 S
C1902 C1903 1.385 . S
C1902 C1904 1.478 . S
C1903 H1897 0.930 . S
C1903 C1899 1.400 1_554 S
C1903 C1902 1.385 . S
C1904 C1902 1.478 . S
C1904 C1906 1.381 . S
C1904 C1910 1.383 . S
C1905 C1901 1.500 . S
C1905 H1911 0.996 . S
C1905 H1912 0.924 1_556 S
C1905 H1913 0.957 1_556 S
C1906 C1904 1.381 . S
C1906 C1907 1.394 . S
C1906 H1914 0.930 . S
C1907 C1906 1.394 . S
C1907 C1908 1.383 . S
C1907 H1915 0.929 . S
C1908 C1907 1.383 . S
C1908 C1909 1.377 . S
C1909 H1893 0.930 . S
C1909 C1908 1.377 . S
C1909 C1910 1.379 . S
C1910 H1894 0.931 . S
C1910 C1904 1.383 . S
C1910 C1909 1.379 . S
H1911 C1905 0.996 . S
H1912 C1905 0.924 1_554 S
H1913 C1905 0.957 1_554 S
H1914 C1906 0.930 . S
H1915 C1907 0.929 . S
H1916 C1924 0.929 . S
H1917 C1926 0.930 . S
H1918 C1928 0.930 . S
H1919 C1931 0.929 . S
H1920 C1934 0.930 . S
H1921 C1936 0.960 . S
H1922 C1936 0.960 . S
H1923 C1936 0.960 . S
C1924 H1916 0.929 . S
C1924 C1925 1.377 . S
C1924 C1926 1.384 . S
C1925 C1924 1.377 . S
C1925 C1931 1.390 . S
C1926 H1917 0.930 . S
C1926 C1924 1.384 . S
C1926 C1927 1.372 . S
C1927 C1926 1.372 . S
C1927 C1928 1.400 . S
C1927 C1932 1.490 . S
C1928 H1918 0.930 . S
C1928 C1927 1.400 . S
C1928 C1931 1.386 . S
H1929 C1945 0.930 . S
H1930 C1946 0.931 . S
C1931 H1919 0.929 . S
C1931 C1925 1.390 . S
C1931 C1928 1.386 . S
C1932 C1927 1.490 . S
C1932 C1934 1.395 1_554 S
C1932 C1935 1.403 . S
H1933 C1939 0.930 . S
C1934 H1920 0.930 . S
C1934 C1932 1.395 1_556 S
C1934 C1937 1.403 . S
C1935 C1932 1.403 . S
C1935 C1936 1.524 . S
C1935 C1939 1.400 1_554 S
C1936 H1921 0.960 . S
C1936 H1922 0.960 . S
C1936 H1923 0.960 . S
C1936 C1935 1.524 . S
C1937 C1934 1.403 . S
C1937 C1938 1.392 . S
C1937 C1941 1.495 . S
C1938 C1937 1.392 . S
C1938 C1939 1.385 . S
C1938 C1940 1.478 . S
C1939 H1933 0.930 . S
C1939 C1935 1.400 1_556 S
C1939 C1938 1.385 . S
C1940 C1938 1.478 . S
C1940 C1942 1.381 . S
C1940 C1946 1.383 . S
C1941 C1937 1.495 . S
C1941 H1947 0.959 . S
C1941 H1948 0.961 . S
C1941 H1949 0.960 . S
C1942 C1940 1.381 . S
C1942 C1943 1.394 . S
C1942 H1950 0.930 . S
C1943 C1942 1.394 . S
C1943 C1944 1.383 . S
C1943 H1951 0.929 . S
C1944 C1943 1.383 . S
C1944 C1945 1.377 . S
C1945 H1929 0.930 . S
C1945 C1944 1.377 . S
C1945 C1946 1.379 . S
C1946 H1930 0.931 . S
C1946 C1940 1.383 . S
C1946 C1945 1.379 . S
H1947 C1941 0.959 . S
H1948 C1941 0.961 . S
H1949 C1941 0.960 . S
H1950 C1942 0.930 . S
H1951 C1943 0.929 . S
H1952 C1960 0.929 . S
H1953 C1962 0.930 . S
H1954 C1964 0.930 . S
H1955 C1967 0.929 . S
H1956 C1970 0.930 . S
H1957 C1972 0.960 . S
H1958 C1972 0.960 . S
H1959 C1972 0.960 . S
C1960 H1952 0.929 . S
C1960 C1961 1.377 . S
C1960 C1962 1.384 . S
C1961 C1960 1.377 . S
C1961 C1967 1.390 . S
C1962 H1953 0.930 . S
C1962 C1960 1.384 . S
C1962 C1963 1.372 . S
C1963 C1962 1.372 . S
C1963 C1964 1.400 . S
C1963 C1968 1.490 . S
C1964 H1954 0.930 . S
C1964 C1963 1.400 . S
C1964 C1967 1.386 . S
H1965 C1981 0.930 . S
H1966 C1982 0.931 . S
C1967 H1955 0.929 . S
C1967 C1961 1.390 . S
C1967 C1964 1.386 . S
C1968 C1963 1.490 . S
C1968 C1970 1.395 . S
C1968 C1971 1.403 . S
H1969 C1975 0.930 . S
C1970 H1956 0.930 . S
C1970 C1968 1.395 . S
C1970 C1973 1.403 . S
C1971 C1968 1.403 . S
C1971 C1972 1.524 . S
C1971 C1975 1.400 . S
C1972 H1957 0.960 . S
C1972 H1958 0.960 . S
C1972 H1959 0.960 . S
C1972 C1971 1.524 . S
C1973 C1970 1.403 . S
C1973 C1974 1.392 . S
C1973 C1977 1.495 . S
C1974 C1973 1.392 . S
C1974 C1975 1.385 . S
C1974 C1976 1.478 . S
C1975 H1969 0.930 . S
C1975 C1971 1.400 . S
C1975 C1974 1.385 . S
C1976 C1974 1.478 . S
C1976 C1978 1.381 . S
C1976 C1982 1.383 . S
C1977 C1973 1.495 . S
C1977 H1983 0.959 . S
C1977 H1984 0.961 . S
C1977 H1985 0.960 . S
C1978 C1976 1.381 . S
C1978 C1979 1.394 . S
C1978 H1986 0.930 . S
C1979 C1978 1.394 . S
C1979 C1980 1.383 . S
C1979 H1987 0.929 . S
C1980 C1979 1.383 . S
C1980 C1981 1.377 . S
C1981 H1965 0.930 . S
C1981 C1980 1.377 . S
C1981 C1982 1.379 . S
C1982 H1966 0.931 . S
C1982 C1976 1.383 . S
C1982 C1981 1.379 . S
H1983 C1977 0.959 . S
H1984 C1977 0.961 . S
H1985 C1977 0.960 . S
H1986 C1978 0.930 . S
H1987 C1979 0.929 . S
H1988 C1996 0.929 . S
H1989 C1998 0.930 . S
H1990 C2000 0.930 . S
H1991 C2003 0.929 . S
H1992 C2006 0.930 . S
H1993 C2008 0.960 . S
H1994 C2008 0.960 . S
H1995 C2008 0.960 . S
C1996 H1988 0.929 . S
C1996 C1997 1.377 . S
C1996 C1998 1.384 . S
C1997 C1996 1.377 . S
C1997 C2003 1.390 . S
C1998 H1989 0.930 . S
C1998 C1996 1.384 . S
C1998 C1999 1.372 . S
C1999 C1998 1.372 . S
C1999 C2000 1.400 . S
C1999 C2004 1.490 . S
C2000 H1990 0.930 . S
C2000 C1999 1.400 . S
C2000 C2003 1.386 . S
H2001 C2017 0.930 . S
H2002 C2018 0.931 . S
C2003 H1991 0.929 . S
C2003 C1997 1.390 . S
C2003 C2000 1.386 . S
C2004 C1999 1.490 . S
C2004 C2006 1.395 . S
C2004 C2007 1.403 . S
H2005 C2011 0.930 . S
C2006 H1992 0.930 . S
C2006 C2004 1.395 . S
C2006 C2009 1.403 . S
C2007 C2004 1.403 . S
C2007 C2008 1.524 . S
C2007 C2011 1.400 . S
C2008 H1993 0.960 . S
C2008 H1994 0.960 . S
C2008 H1995 0.960 . S
C2008 C2007 1.524 . S
C2009 C2006 1.403 . S
C2009 C2010 1.392 . S
C2009 C2013 1.495 . S
C2010 C2009 1.392 . S
C2010 C2011 1.385 . S
C2010 C2012 1.478 . S
C2011 H2005 0.930 . S
C2011 C2007 1.400 . S
C2011 C2010 1.385 . S
C2012 C2010 1.478 . S
C2012 C2014 1.381 . S
C2012 C2018 1.383 . S
C2013 C2009 1.495 . S
C2013 H2019 0.959 . S
C2013 H2020 0.961 . S
C2013 H2021 0.960 . S
C2014 C2012 1.381 . S
C2014 C2015 1.394 . S
C2014 H2022 0.930 . S
C2015 C2014 1.394 . S
C2015 C2016 1.383 . S
C2015 H2023 0.929 . S
C2016 C2015 1.383 . S
C2016 C2017 1.377 . S
C2017 H2001 0.930 . S
C2017 C2016 1.377 . S
C2017 C2018 1.379 . S
C2018 H2002 0.931 . S
C2018 C2012 1.383 . S
C2018 C2017 1.379 . S
H2019 C2013 0.959 . S
H2020 C2013 0.961 . S
H2021 C2013 0.960 . S
H2022 C2014 0.930 . S
H2023 C2015 0.929 . S
H2024 C2032 0.929 . S
H2025 C2034 0.930 . S
H2026 C2036 0.930 . S
H2027 C2039 0.929 . S
H2028 C2042 0.930 . S
H2029 C2044 0.960 . S
H2030 C2044 0.960 . S
H2031 C2044 0.960 . S
C2032 H2024 0.929 . S
C2032 C2033 1.377 . S
C2032 C2034 1.384 . S
C2033 C2032 1.377 . S
C2033 C2039 1.390 . S
C2034 H2025 0.930 . S
C2034 C2032 1.384 . S
C2034 C2035 1.372 . S
C2035 C2034 1.372 . S
C2035 C2036 1.400 . S
C2035 C2040 1.490 . S
C2036 H2026 0.930 . S
C2036 C2035 1.400 . S
C2036 C2039 1.386 . S
H2037 C2053 0.930 . S
H2038 C2054 0.931 . S
C2039 H2027 0.929 . S
C2039 C2033 1.390 . S
C2039 C2036 1.386 . S
C2040 C2035 1.490 . S
C2040 C2042 1.395 . S
C2040 C2043 1.403 . S
H2041 C2047 0.930 . S
C2042 H2028 0.930 . S
C2042 C2040 1.395 . S
C2042 C2045 1.403 . S
C2043 C2040 1.403 . S
C2043 C2044 1.524 . S
C2043 C2047 1.400 . S
C2044 H2029 0.960 . S
C2044 H2030 0.960 . S
C2044 H2031 0.960 . S
C2044 C2043 1.524 . S
C2045 C2042 1.403 . S
C2045 C2046 1.392 . S
C2045 C2049 1.495 . S
C2046 C2045 1.392 . S
C2046 C2047 1.385 . S
C2046 C2048 1.478 . S
C2047 H2041 0.930 . S
C2047 C2043 1.400 . S
C2047 C2046 1.385 . S
C2048 C2046 1.478 . S
C2048 C2050 1.381 . S
C2048 C2054 1.383 . S
C2049 C2045 1.495 . S
C2049 H2055 0.959 . S
C2049 H2056 0.961 . S
C2049 H2057 0.960 . S
C2050 C2048 1.381 . S
C2050 C2051 1.394 . S
C2050 H2058 0.930 . S
C2051 C2050 1.394 . S
C2051 C2052 1.383 . S
C2051 H2059 0.929 . S
C2052 C2051 1.383 . S
C2052 C2053 1.377 . S
C2053 H2037 0.930 . S
C2053 C2052 1.377 . S
C2053 C2054 1.379 . S
C2054 H2038 0.931 . S
C2054 C2048 1.383 . S
C2054 C2053 1.379 . S
H2055 C2049 0.959 . S
H2056 C2049 0.961 . S
H2057 C2049 0.960 . S
H2058 C2050 0.930 . S
H2059 C2051 0.929 . S
H2060 C2068 0.929 . S
H2061 C2070 0.930 . S
H2062 C2072 0.930 . S
H2063 C2075 0.929 . S
H2064 C2078 0.930 . S
H2065 C2080 0.960 . S
H2066 C2080 0.960 . S
H2067 C2080 0.960 . S
C2068 H2060 0.929 . S
C2068 C2069 1.377 . S
C2068 C2070 1.384 . S
C2069 C2068 1.377 . S
C2069 C2075 1.390 . S
C2070 H2061 0.930 . S
C2070 C2068 1.384 . S
C2070 C2071 1.372 . S
C2071 C2070 1.372 . S
C2071 C2072 1.400 . S
C2071 C2076 1.490 . S
C2072 H2062 0.930 . S
C2072 C2071 1.400 . S
C2072 C2075 1.386 . S
H2073 C2089 0.930 . S
H2074 C2090 0.931 . S
C2075 H2063 0.929 . S
C2075 C2069 1.390 . S
C2075 C2072 1.386 . S
C2076 C2071 1.490 . S
C2076 C2078 1.395 . S
C2076 C2079 1.403 . S
H2077 C2083 0.930 . S
C2078 H2064 0.930 . S
C2078 C2076 1.395 . S
C2078 C2081 1.403 . S
C2079 C2076 1.403 . S
C2079 C2080 1.524 . S
C2079 C2083 1.400 . S
C2080 H2065 0.960 . S
C2080 H2066 0.960 . S
C2080 H2067 0.960 . S
C2080 C2079 1.524 . S
C2081 C2078 1.403 . S
C2081 C2082 1.392 . S
C2081 C2085 1.495 . S
C2082 C2081 1.392 . S
C2082 C2083 1.385 . S
C2082 C2084 1.478 . S
C2083 H2077 0.930 . S
C2083 C2079 1.400 . S
C2083 C2082 1.385 . S
C2084 C2082 1.478 . S
C2084 C2086 1.381 . S
C2084 C2090 1.383 . S
C2085 C2081 1.495 . S
C2085 H2091 0.959 . S
C2085 H2092 0.961 . S
C2085 H2093 0.960 . S
C2086 C2084 1.381 . S
C2086 C2087 1.394 . S
C2086 H2094 0.930 . S
C2087 C2086 1.394 . S
C2087 C2088 1.383 . S
C2087 H2095 0.929 . S
C2088 C2087 1.383 . S
C2088 C2089 1.377 . S
C2089 H2073 0.930 . S
C2089 C2088 1.377 . S
C2089 C2090 1.379 . S
C2090 H2074 0.931 . S
C2090 C2084 1.383 . S
C2090 C2089 1.379 . S
H2091 C2085 0.959 . S
H2092 C2085 0.961 . S
H2093 C2085 0.960 . S
H2094 C2086 0.930 . S
H2095 C2087 0.929 . S
H2096 C2104 0.929 . S
H2097 C2106 0.930 . S
H2098 C2108 0.930 . S
H2099 C2111 0.929 . S
H2100 C2114 0.930 . S
H2101 C2116 0.960 . S
H2102 C2116 0.960 . S
H2103 C2116 0.960 . S
C2104 H2096 0.929 . S
C2104 C2105 1.377 . S
C2104 C2106 1.384 . S
C2105 C2104 1.377 . S
C2105 C2111 1.390 . S
C2106 H2097 0.930 . S
C2106 C2104 1.384 . S
C2106 C2107 1.372 . S
C2107 C2106 1.372 . S
C2107 C2108 1.400 . S
C2107 C2112 1.490 . S
C2108 H2098 0.930 . S
C2108 C2107 1.400 . S
C2108 C2111 1.386 . S
H2109 C2125 0.930 . S
H2110 C2126 0.931 . S
C2111 H2099 0.929 . S
C2111 C2105 1.390 . S
C2111 C2108 1.386 . S
C2112 C2107 1.490 . S
C2112 C2114 1.395 . S
C2112 C2115 1.403 1_556 S
H2113 C2119 0.930 . S
C2114 H2100 0.930 . S
C2114 C2112 1.395 . S
C2114 C2117 1.402 1_556 S
C2115 C2112 1.403 1_554 S
C2115 C2116 1.524 . S
C2115 C2119 1.400 . S
C2116 H2101 0.960 . S
C2116 H2102 0.960 . S
C2116 H2103 0.960 . S
C2116 C2115 1.524 . S
C2117 C2114 1.402 1_554 S
C2117 C2118 1.394 . S
C2117 C2121 1.495 1_554 S
C2118 C2117 1.394 . S
C2118 C2119 1.385 . S
C2118 C2120 1.478 . S
C2119 H2113 0.930 . S
C2119 C2115 1.400 . S
C2119 C2118 1.385 . S
C2120 C2118 1.478 . S
C2120 C2122 1.381 . S
C2120 C2126 1.383 . S
C2121 C2117 1.495 1_556 S
C2121 H2127 0.959 . S
C2121 H2128 0.961 1_556 S
C2121 H2129 0.960 1_556 S
C2122 C2120 1.381 . S
C2122 C2123 1.394 . S
C2122 H2130 0.930 . S
C2123 C2122 1.394 . S
C2123 C2124 1.383 . S
C2123 H2131 0.929 . S
C2124 C2123 1.383 . S
C2124 C2125 1.377 . S
C2125 H2109 0.930 . S
C2125 C2124 1.377 . S
C2125 C2126 1.379 . S
C2126 H2110 0.931 . S
C2126 C2120 1.383 . S
C2126 C2125 1.379 . S
H2127 C2121 0.959 . S
H2128 C2121 0.961 1_554 S
H2129 C2121 0.960 1_554 S
H2130 C2122 0.930 . S
H2131 C2123 0.929 . S
H2132 C2140 0.929 . S
H2133 C2142 0.930 . S
H2134 C2144 0.930 . S
H2135 C2147 0.929 . S
H2136 C2150 0.930 . S
H2137 C2152 0.960 . S
H2138 C2152 0.960 . S
H2139 C2152 0.960 . S
C2140 H2132 0.929 . S
C2140 C2141 1.377 . S
C2140 C2142 1.384 . S
C2141 C2140 1.377 . S
C2141 C2147 1.390 . S
C2142 H2133 0.930 . S
C2142 C2140 1.384 . S
C2142 C2143 1.372 . S
C2143 C2142 1.372 . S
C2143 C2144 1.400 . S
C2143 C2148 1.490 . S
C2144 H2134 0.930 . S
C2144 C2143 1.400 . S
C2144 C2147 1.386 . S
H2145 C2161 0.930 . S
H2146 C2162 0.931 . S
C2147 H2135 0.929 . S
C2147 C2141 1.390 . S
C2147 C2144 1.386 . S
C2148 C2143 1.490 . S
C2148 C2150 1.395 . S
C2148 C2151 1.403 . S
H2149 C2155 0.930 . S
C2150 H2136 0.930 . S
C2150 C2148 1.395 . S
C2150 C2153 1.403 1_556 S
C2151 C2148 1.403 . S
C2151 C2152 1.524 . S
C2151 C2155 1.400 1_556 S
C2152 H2137 0.960 . S
C2152 H2138 0.960 . S
C2152 H2139 0.960 . S
C2152 C2151 1.524 . S
C2153 C2150 1.403 1_554 S
C2153 C2154 1.392 . S
C2153 C2157 1.495 . S
C2154 C2153 1.392 . S
C2154 C2155 1.385 . S
C2154 C2156 1.478 . S
C2155 H2149 0.930 . S
C2155 C2151 1.400 1_554 S
C2155 C2154 1.385 . S
C2156 C2154 1.478 . S
C2156 C2158 1.381 . S
C2156 C2162 1.383 . S
C2157 C2153 1.495 . S
C2157 H2163 0.959 . S
C2157 H2164 0.961 . S
C2157 H2165 0.960 . S
C2158 C2156 1.381 . S
C2158 C2159 1.394 . S
C2158 H2166 0.930 . S
C2159 C2158 1.394 . S
C2159 C2160 1.383 . S
C2159 H2167 0.929 . S
C2160 C2159 1.383 . S
C2160 C2161 1.377 . S
C2161 H2145 0.930 . S
C2161 C2160 1.377 . S
C2161 C2162 1.379 . S
C2162 H2146 0.931 . S
C2162 C2156 1.383 . S
C2162 C2161 1.379 . S
H2163 C2157 0.959 . S
H2164 C2157 0.961 . S
H2165 C2157 0.960 . S
H2166 C2158 0.930 . S
H2167 C2159 0.929 . S
H2168 C2176 0.929 . S
H2169 C2178 0.930 . S
H2170 C2180 0.930 . S
H2171 C2183 0.929 . S
H2172 C2186 0.930 . S
H2173 C2188 0.960 . S
H2174 C2188 0.960 . S
H2175 C2188 0.960 . S
C2176 H2168 0.929 . S
C2176 C2177 1.377 . S
C2176 C2178 1.384 . S
C2177 C2176 1.377 . S
C2177 C2183 1.390 . S
C2178 H2169 0.930 . S
C2178 C2176 1.384 . S
C2178 C2179 1.372 . S
C2179 C2178 1.372 . S
C2179 C2180 1.400 . S
C2179 C2184 1.490 . S
C2180 H2170 0.930 . S
C2180 C2179 1.400 . S
C2180 C2183 1.386 . S
H2181 C2197 0.930 . S
H2182 C2198 0.931 . S
C2183 H2171 0.929 . S
C2183 C2177 1.390 . S
C2183 C2180 1.386 . S
C2184 C2179 1.490 . S
C2184 C2186 1.395 . S
C2184 C2187 1.403 . S
H2185 C2191 0.930 . S
C2186 H2172 0.930 . S
C2186 C2184 1.395 . S
C2186 C2189 1.403 1_554 S
C2187 C2184 1.403 . S
C2187 C2188 1.524 . S
C2187 C2191 1.400 1_554 S
C2188 H2173 0.960 . S
C2188 H2174 0.960 . S
C2188 H2175 0.960 . S
C2188 C2187 1.524 . S
C2189 C2186 1.403 1_556 S
C2189 C2190 1.392 . S
C2189 C2193 1.495 . S
C2190 C2189 1.392 . S
C2190 C2191 1.385 . S
C2190 C2192 1.478 . S
C2191 H2185 0.930 . S
C2191 C2187 1.400 1_556 S
C2191 C2190 1.385 . S
C2192 C2190 1.478 . S
C2192 C2194 1.381 . S
C2192 C2198 1.383 . S
C2193 C2189 1.495 . S
C2193 H2199 0.959 . S
C2193 H2200 0.961 . S
C2193 H2201 0.960 . S
C2194 C2192 1.381 . S
C2194 C2195 1.394 . S
C2194 H2202 0.930 . S
C2195 C2194 1.394 . S
C2195 C2196 1.383 . S
C2195 H2203 0.929 . S
C2196 C2195 1.383 . S
C2196 C2197 1.377 . S
C2197 H2181 0.930 . S
C2197 C2196 1.377 . S
C2197 C2198 1.379 . S
C2198 H2182 0.931 . S
C2198 C2192 1.383 . S
C2198 C2197 1.379 . S
H2199 C2193 0.959 . S
H2200 C2193 0.961 . S
H2201 C2193 0.960 . S
H2202 C2194 0.930 . S
H2203 C2195 0.929 . S
H2204 C2212 0.929 . S
H2205 C2214 0.930 . S
H2206 C2216 0.930 . S
H2207 C2219 0.929 . S
H2208 C2222 0.930 . S
H2209 C2224 0.960 . S
H2210 C2224 0.960 . S
H2211 C2224 0.960 . S
C2212 H2204 0.929 . S
C2212 C2213 1.377 . S
C2212 C2214 1.384 . S
C2213 C2212 1.377 . S
C2213 C2219 1.390 . S
C2214 H2205 0.930 . S
C2214 C2212 1.384 . S
C2214 C2215 1.372 . S
C2215 C2214 1.372 . S
C2215 C2216 1.400 . S
C2215 C2220 1.490 . S
C2216 H2206 0.930 . S
C2216 C2215 1.400 . S
C2216 C2219 1.386 . S
H2217 C2233 0.930 . S
H2218 C2234 0.931 . S
C2219 H2207 0.929 . S
C2219 C2213 1.390 . S
C2219 C2216 1.386 . S
C2220 C2215 1.490 . S
C2220 C2222 1.395 . S
C2220 C2223 1.403 . S
H2221 C2227 0.935 . S
C2222 H2208 0.930 . S
C2222 C2220 1.395 . S
C2222 C2225 1.403 1_554 S
C2223 C2220 1.403 . S
C2223 C2224 1.524 . S
C2223 C2227 1.400 . S
C2224 H2209 0.960 . S
C2224 H2210 0.960 . S
C2224 H2211 0.960 . S
C2224 C2223 1.524 . S
C2225 C2222 1.403 1_556 S
C2225 C2226 1.392 . S
C2225 C2229 1.495 . S
C2226 C2225 1.392 . S
C2226 C2227 1.385 1_556 S
C2226 C2228 1.478 . S
C2227 H2221 0.935 . S
C2227 C2223 1.400 . S
C2227 C2226 1.385 1_554 S
C2228 C2226 1.478 . S
C2228 C2230 1.381 . S
C2228 C2234 1.383 . S
C2229 C2225 1.495 . S
C2229 H2235 0.959 . S
C2229 H2236 0.961 . S
C2229 H2237 0.960 . S
C2230 C2228 1.381 . S
C2230 C2231 1.394 . S
C2230 H2238 0.930 . S
C2231 C2230 1.394 . S
C2231 C2232 1.383 . S
C2231 H2239 0.929 . S
C2232 C2231 1.383 . S
C2232 C2233 1.377 . S
C2233 H2217 0.930 . S
C2233 C2232 1.377 . S
C2233 C2234 1.379 . S
C2234 H2218 0.931 . S
C2234 C2228 1.383 . S
C2234 C2233 1.379 . S
H2235 C2229 0.959 . S
H2236 C2229 0.961 . S
H2237 C2229 0.960 . S
H2238 C2230 0.930 . S
H2239 C2231 0.929 . S
C521 C4 1.610 . S
C540 C164 1.581 . S
C557 C221 1.610 . S
C576 C61 1.590 . S
C593 C68 1.602 . S
C612 C228 1.624 . S
C629 C125 1.609 . S
C648 C132 1.595 . S
C665 C445 1.608 . S
C684 C260 1.622 . S
C701 C477 1.606 . S
C720 C317 1.579 . S
C737 C349 1.601 . S
C756 C484 1.608 . S
C773 C381 1.602 . S
C792 C388 1.616 . S
C809 C2 1.865 . S
C828 N109 1.639 1_545 S
C845 C38 1.864 . S
C864 N18 1.622 . S
C881 C66 1.868 1_455 S
C900 N45 1.683 . S
C917 C102 1.864 1_545 S
C936 N82 1.625 1_455 S
C953 C130 1.867 1_655 S
C972 N178 1.657 1_565 S
C989 N205 1.657 . S
C1008 C162 1.853 1_565 S
C1025 C198 1.866 . S
C1044 N242 1.667 . S
C1061 N146 1.671 1_655 S
C1080 C226 1.874 . S
C1097 N365 1.671 1_565 S
C1116 C258 1.856 . S
C1133 C294 1.868 . S
C1152 N274 1.688 . S
C1169 C326 1.869 1_655 S
C1188 N301 1.657 . S
C1205 C358 1.869 1_565 S
C1224 N333 1.648 1_655 S
C1241 C386 1.869 1_455 S
C1260 N429 1.640 1_545 S
C1277 C422 1.869 1_545 S
C1296 N461 1.637 . S
C1313 C454 1.869 . S
C1332 N498 1.641 . S
C1349 C482 1.868 . S
C1368 N402 1.627 1_455 S
C1385 C29 0.750 . S
C1404 C93 0.729 . S
C1421 C36 0.750 . S
C1440 C100 0.729 . S
C1457 C196 0.743 . S
C1476 C157 0.708 . S
C1493 C253 0.745 . S
C1512 C189 0.768 . S
C1529 C324 0.749 . S
C1548 C285 0.786 . S
C1565 C356 0.753 . S
C1584 C292 0.783 . S
C1601 C413 0.740 . S
C1620 C452 0.722 . S
C1637 C420 0.740 . S
C1656 C509 0.718 . S
C1673 N13 1.044 . S
C1692 C354 1.041 . S
C1709 C262 1.047 . S
C1728 N50 1.022 . S
C1745 N77 1.037 . S
C1764 C290 1.047 . S
C1781 C322 1.046 . S
C1800 N114 1.045 . S
C1817 C418 1.047 . S
C1836 N141 1.023 . S
C1853 N173 1.042 . S
C1872 C450 1.046 . S
C1889 C486 1.046 . S
C1908 N210 1.024 . S
C1925 N237 1.038 . S
C1944 C390 1.042 . S
C1961 N269 1.041 . S
C1980 C98 1.037 . S
C1997 N306 1.039 . S
C2016 C6 1.050 . S
C2033 C34 1.045 . S
C2052 N338 1.031 . S
C2069 N370 1.037 . S
C2088 C70 1.047 . S
C2105 N397 1.038 . S
C2124 C166 1.049 . S
C2141 N434 1.043 . S
C2160 C194 1.047 . S
C2177 C230 1.045 . S
C2196 N466 1.053 . S
C2213 C134 1.045 . S
C2232 N493 1.055 . S
