# Generated by pormake.
# Topology lcy-e, (6)-cn, num edge types: 1
# Building blocks:
#     Node 0, Type 0, BuildingBlock: BETDEL_clean_sbu_0, # of connection points: 6
#     Node 1, Type 0, BuildingBlock: BETDEL_clean_sbu_0, # of connection points: 6
#     Node 2, Type 0, BuildingBlock: BETDEL_clean_sbu_0, # of connection points: 6
#     Node 3, Type 0, BuildingBlock: BETDEL_clean_sbu_0, # of connection points: 6
#     Node 4, Type 0, BuildingBlock: BETDEL_clean_sbu_0, # of connection points: 6
#     Node 5, Type 0, BuildingBlock: BETDEL_clean_sbu_0, # of connection points: 6
#     Node 6, Type 0, BuildingBlock: BETDEL_clean_sbu_0, # of connection points: 6
#     Node 7, Type 0, BuildingBlock: BETDEL_clean_sbu_0, # of connection points: 6
#     Node 8, Type 0, BuildingBlock: BETDEL_clean_sbu_0, # of connection points: 6
#     Node 9, Type 0, BuildingBlock: BETDEL_clean_sbu_0, # of connection points: 6
#     Node 10, Type 0, BuildingBlock: BETDEL_clean_sbu_0, # of connection points: 6
#     Node 11, Type 0, BuildingBlock: BETDEL_clean_sbu_0, # of connection points: 6
#     Edge 12, Type (0, 0), BuildingBlock: OJICUG_clean_linker_0, # of connection points: 2
#     Edge 13, Type (0, 0), BuildingBlock: OJICUG_clean_linker_0, # of connection points: 2
#     Edge 14, Type (0, 0), BuildingBlock: OJICUG_clean_linker_0, # of connection points: 2
#     Edge 15, Type (0, 0), BuildingBlock: OJICUG_clean_linker_0, # of connection points: 2
#     Edge 16, Type (0, 0), BuildingBlock: OJICUG_clean_linker_0, # of connection points: 2
#     Edge 17, Type (0, 0), BuildingBlock: OJICUG_clean_linker_0, # of connection points: 2
#     Edge 18, Type (0, 0), BuildingBlock: OJICUG_clean_linker_0, # of connection points: 2
#     Edge 19, Type (0, 0), BuildingBlock: OJICUG_clean_linker_0, # of connection points: 2
#     Edge 20, Type (0, 0), BuildingBlock: OJICUG_clean_linker_0, # of connection points: 2
#     Edge 21, Type (0, 0), BuildingBlock: OJICUG_clean_linker_0, # of connection points: 2
#     Edge 22, Type (0, 0), BuildingBlock: OJICUG_clean_linker_0, # of connection points: 2
#     Edge 23, Type (0, 0), BuildingBlock: OJICUG_clean_linker_0, # of connection points: 2
#     Edge 24, Type (0, 0), BuildingBlock: OJICUG_clean_linker_0, # of connection points: 2
#     Edge 25, Type (0, 0), BuildingBlock: OJICUG_clean_linker_0, # of connection points: 2
#     Edge 26, Type (0, 0), BuildingBlock: OJICUG_clean_linker_0, # of connection points: 2
#     Edge 27, Type (0, 0), BuildingBlock: OJICUG_clean_linker_0, # of connection points: 2
#     Edge 28, Type (0, 0), BuildingBlock: OJICUG_clean_linker_0, # of connection points: 2
#     Edge 29, Type (0, 0), BuildingBlock: OJICUG_clean_linker_0, # of connection points: 2
#     Edge 30, Type (0, 0), BuildingBlock: OJICUG_clean_linker_0, # of connection points: 2
#     Edge 31, Type (0, 0), BuildingBlock: OJICUG_clean_linker_0, # of connection points: 2
#     Edge 32, Type (0, 0), BuildingBlock: OJICUG_clean_linker_0, # of connection points: 2
#     Edge 33, Type (0, 0), BuildingBlock: OJICUG_clean_linker_0, # of connection points: 2
#     Edge 34, Type (0, 0), BuildingBlock: OJICUG_clean_linker_0, # of connection points: 2
#     Edge 35, Type (0, 0), BuildingBlock: OJICUG_clean_linker_0, # of connection points: 2
#     Edge 36, Type (0, 0), BuildingBlock: OJICUG_clean_linker_0, # of connection points: 2
#     Edge 37, Type (0, 0), BuildingBlock: OJICUG_clean_linker_0, # of connection points: 2
#     Edge 38, Type (0, 0), BuildingBlock: OJICUG_clean_linker_0, # of connection points: 2
#     Edge 39, Type (0, 0), BuildingBlock: OJICUG_clean_linker_0, # of connection points: 2
#     Edge 40, Type (0, 0), BuildingBlock: OJICUG_clean_linker_0, # of connection points: 2
#     Edge 41, Type (0, 0), BuildingBlock: OJICUG_clean_linker_0, # of connection points: 2
#     Edge 42, Type (0, 0), BuildingBlock: OJICUG_clean_linker_0, # of connection points: 2
#     Edge 43, Type (0, 0), BuildingBlock: OJICUG_clean_linker_0, # of connection points: 2
#     Edge 44, Type (0, 0), BuildingBlock: OJICUG_clean_linker_0, # of connection points: 2
#     Edge 45, Type (0, 0), BuildingBlock: OJICUG_clean_linker_0, # of connection points: 2
#     Edge 46, Type (0, 0), BuildingBlock: OJICUG_clean_linker_0, # of connection points: 2
#     Edge 47, Type (0, 0), BuildingBlock: OJICUG_clean_linker_0, # of connection points: 2
# Relax obj value: 0.221
# Max RMSD: 0.285
# Mean RMSD: 0.273
data_MOF--net-lcy-e--node1-BETDEL_clean_sbu_0--edge1-OJICUG_clean_linker_0
_symmetry_space_group_name_H-M    P1
_symmetry_Int_Tables_number       1
_symmetry_cell_setting            triclinic
loop_
_symmetry_equiv_pos_as_xyz
'x, y, z'
_cell_length_a     28.055897
_cell_length_b     27.31876
_cell_length_c     28.323303
_cell_angle_alpha  90.380341
_cell_angle_beta   92.212211
_cell_angle_gamma 88.101598
loop_
_atom_site_label
_atom_site_type_symbol
_atom_site_fract_x
_atom_site_fract_y
_atom_site_fract_z
_atom_type_partial_charge
Dy0 Dy 0.11841 0.26504 0.45896 0.0
C1 C 0.14822 0.09079 0.56915 0.0
C2 C 0.12134 0.3211 0.38132 0.0
Dy3 Dy 0.14968 0.18094 0.52971 0.0
O4 O 0.12869 0.27426 0.38333 0.0
O5 O 0.11155 0.33918 0.42299 0.0
O6 O 0.05168 0.2338 0.42723 0.0
O7 O 0.09211 0.19363 0.47686 0.0
C8 C 0.05622 0.19211 0.44843 0.0
C9 C 0.19218 0.26758 0.54429 0.0
O10 O 0.20245 0.16142 0.47539 0.0
O11 O 0.18558 0.22979 0.42841 0.0
O12 O 0.16768 0.12863 0.58931 0.0
O13 O 0.13104 0.10217 0.52735 0.0
O14 O 0.18796 0.23538 0.57768 0.0
O15 O 0.17904 0.24878 0.50542 0.0
O16 O 0.09192 0.29449 0.52885 0.0
O17 O 0.08718 0.21743 0.56307 0.0
C18 C 0.21082 0.18869 0.43841 0.0
C19 C 0.07883 0.26541 0.56358 0.0
Dy20 Dy 0.98889 0.86379 0.69475 0.0
C21 C 0.16119 0.86276 0.82018 0.0
C22 C 0.91538 0.88848 0.633 0.0
Dy23 Dy 0.07604 0.87082 0.77079 0.0
O24 O 0.92124 0.84628 0.65398 0.0
O25 O 0.94769 0.91802 0.64856 0.0
O26 O 0.01747 0.80089 0.65155 0.0
O27 O 0.05761 0.82899 0.70777 0.0
C28 C 0.05759 0.79679 0.67575 0.0
C29 C 0.99186 0.91806 0.79057 0.0
O30 O 0.10253 0.91752 0.71432 0.0
O31 O 0.0369 0.91637 0.66086 0.0
O32 O 0.13375 0.90218 0.81808 0.0
O33 O 0.14177 0.82774 0.79578 0.0
O34 O 0.02177 0.90007 0.82281 0.0
O35 O 0.01057 0.91294 0.75116 0.0
O36 O 0.96571 0.82406 0.76034 0.0
O37 O 0.04186 0.80327 0.79111 0.0
C38 C 0.07992 0.93126 0.67452 0.0
C39 C 0.99507 0.8008 0.79191 0.0
Dy40 Dy 0.36783 0.8161 0.03352 0.0
C41 C 0.36227 0.67888 0.87761 0.0
C42 C 0.3949 0.88052 0.10252 0.0
Dy43 Dy 0.37977 0.73452 0.95628 0.0
O44 O 0.42321 0.85023 0.08086 0.0
O45 O 0.35078 0.87365 0.08849 0.0
O46 O 0.30562 0.85241 0.99668 0.0
O47 O 0.35649 0.81271 0.95666 0.0
C48 C 0.31543 0.83399 0.95565 0.0
C49 C 0.42406 0.71848 0.04269 0.0
O50 O 0.44446 0.7737 0.93963 0.0
O51 O 0.43885 0.82959 1.00178 0.0
O52 O 0.37398 0.72443 0.8772 0.0
O53 O 0.36179 0.66331 0.92094 0.0
O54 O 0.43832 0.6962 1.00452 0.0
O55 O 0.386 0.74058 0.03192 0.0
O56 O 0.32198 0.75365 0.05658 0.0
O57 O 0.30512 0.72923 0.98034 0.0
C58 C 0.46165 0.8097 0.9657 0.0
C59 C 0.29733 0.72591 0.0258 0.0
Dy60 Dy 0.53459 0.14879 0.20298 0.0
C61 C 0.37851 0.14639 0.32954 0.0
C62 C 0.60334 0.124 0.14012 0.0
Dy63 Dy 0.4574 0.13364 0.27571 0.0
O64 O 0.58683 0.16844 0.14757 0.0
O65 O 0.58484 0.09446 0.16952 0.0
O66 O 0.50101 0.21634 0.17339 0.0
O67 O 0.45715 0.1628 0.20238 0.0
C68 C 0.45858 0.20645 0.18651 0.0
C69 C 0.54492 0.08567 0.29063 0.0
O70 O 0.43351 0.07546 0.22772 0.0
O71 O 0.49925 0.07771 0.18053 0.0
O72 O 0.42118 0.13408 0.34611 0.0
O73 O 0.37926 0.15105 0.28408 0.0
O74 O 0.50508 0.06815 0.30447 0.0
O75 O 0.53507 0.12714 0.27469 0.0
O76 O 0.55701 0.19343 0.26899 0.0
O77 O 0.47992 0.21002 0.28773 0.0
C78 C 0.45931 0.05741 0.19358 0.0
C79 C 0.52544 0.2174 0.29591 0.0
Dy80 Dy 0.62196 0.22416 0.58553 0.0
C81 C 0.59466 0.38719 0.45321 0.0
C82 C 0.6482 0.15047 0.64749 0.0
Dy83 Dy 0.61901 0.31014 0.51175 0.0
O84 O 0.60748 0.15423 0.62386 0.0
O85 O 0.67521 0.18549 0.63526 0.0
O86 O 0.56142 0.25421 0.62483 0.0
O87 O 0.60349 0.30283 0.58757 0.0
C88 C 0.56539 0.29838 0.60967 0.0
C89 C 0.67117 0.22696 0.49168 0.0
O90 O 0.68127 0.3335 0.55466 0.0
O91 O 0.69482 0.25814 0.59196 0.0
O92 O 0.59826 0.34154 0.44021 0.0
O93 O 0.60452 0.39082 0.49832 0.0
O94 O 0.68081 0.26942 0.47439 0.0
O95 O 0.63357 0.23197 0.51266 0.0
O96 O 0.57312 0.20096 0.52278 0.0
O97 O 0.54665 0.27918 0.51062 0.0
C98 C 0.70842 0.30268 0.58034 0.0
C99 C 0.54424 0.23281 0.4987 0.0
Dy100 Dy 0.93966 0.37711 0.73993 0.0
C101 C 0.04795 0.37858 0.91789 0.0
C102 C 0.8891 0.36154 0.65747 0.0
Dy103 Dy 1.00374 0.36919 0.83112 0.0
O104 O 0.89313 0.40402 0.67814 0.0
O105 O 0.91566 0.32924 0.68019 0.0
O106 O 0.87982 0.4131 0.77861 0.0
O107 O 0.95005 0.42255 0.80331 0.0
C108 C 0.90674 0.42971 0.81284 0.0
C109 C 0.03318 0.31695 0.7552 0.0
O110 O 0.94123 0.3286 0.85344 0.0
O111 O 0.90792 0.31545 0.77825 0.0
O112 O 0.04348 0.33726 0.89532 0.0
O113 O 0.02847 0.41402 0.89307 0.0
O114 O 0.06241 0.33608 0.78642 0.0
O115 O 0.9913 0.32396 0.76856 0.0
O116 O 0.00733 0.41455 0.72052 0.0
O117 O 0.02991 0.43488 0.79731 0.0
C118 C 0.91067 0.30685 0.82428 0.0
C119 C 0.03625 0.43701 0.75157 0.0
Dy120 Dy 0.8591 0.75072 0.0634 0.0
C121 C 0.84691 0.58425 0.93877 0.0
C122 C 0.85959 0.82863 0.12488 0.0
Dy123 Dy 0.84232 0.66978 0.98896 0.0
O124 O 0.89503 0.79749 0.11955 0.0
O125 O 0.82562 0.81907 0.09406 0.0
O126 O 0.88408 0.69388 0.11561 0.0
O127 O 0.89743 0.68303 0.04429 0.0
C128 C 0.90218 0.66408 0.08481 0.0
C129 C 0.80261 0.76025 0.9695 0.0
O130 O 0.79038 0.64669 0.04109 0.0
O131 O 0.79085 0.71816 0.08613 0.0
O132 O 0.82402 0.62401 0.92445 0.0
O133 O 0.86531 0.59094 0.98089 0.0
O134 O 0.81874 0.73034 0.93749 0.0
O135 O 0.80577 0.73862 1.00854 0.0
O136 O 0.90363 0.77233 1.001 0.0
O137 O 0.9123 0.69445 0.96915 0.0
C138 C 0.77317 0.67483 0.0749 0.0
C139 C 0.92204 0.74111 0.96936 0.0
Dy140 Dy 0.54849 0.60098 0.24456 0.0
C141 C 0.43563 0.6181 0.40917 0.0
C142 C 0.60797 0.61841 0.17336 0.0
Dy143 Dy 0.47455 0.62473 0.32327 0.0
O144 O 0.59599 0.57453 0.18571 0.0
O145 O 0.5858 0.65114 0.19824 0.0
O146 O 0.59547 0.55703 0.29559 0.0
O147 O 0.52256 0.56313 0.30558 0.0
C148 C 0.56193 0.54897 0.32465 0.0
C149 C 0.46135 0.67372 0.24115 0.0
O150 O 0.53019 0.6771 0.34679 0.0
O151 O 0.58297 0.66133 0.28668 0.0
O152 O 0.41429 0.63877 0.37235 0.0
O153 O 0.47822 0.60234 0.39911 0.0
O154 O 0.42665 0.66711 0.26974 0.0
O155 O 0.49992 0.6596 0.2614 0.0
O156 O 0.47832 0.571 0.21454 0.0
O157 O 0.44164 0.56199 0.28625 0.0
C158 C 0.56987 0.68576 0.325 0.0
C159 C 0.44257 0.55572 0.24002 0.0
Dy160 Dy 0.24765 0.43062 0.13479 0.0
C161 C 0.07566 0.55358 0.12872 0.0
C162 C 0.32255 0.36502 0.14924 0.0
Dy163 Dy 0.16324 0.5089 0.14123 0.0
O164 O 0.30858 0.3827 0.10812 0.0
O165 O 0.29787 0.38581 0.18192 0.0
O166 O 0.19793 0.37752 0.09927 0.0
O167 O 0.18528 0.45231 0.09121 0.0
C168 C 0.16821 0.41109 0.08288 0.0
C169 C 0.24516 0.52885 0.18932 0.0
O170 O 0.13965 0.45558 0.19351 0.0
O171 O 0.20864 0.40566 0.19724 0.0
O172 O 0.10943 0.56929 0.15722 0.0
O173 O 0.08977 0.51385 0.10748 0.0
O174 O 0.21587 0.56292 0.17195 0.0
O175 O 0.22675 0.4878 0.18343 0.0
O176 O 0.27382 0.49851 0.09756 0.0
O177 O 0.19844 0.53156 0.07713 0.0
C178 C 0.16581 0.41901 0.21191 0.0
C179 C 0.24531 0.53156 0.07448 0.0
Dy180 Dy 0.69725 0.96608 0.88566 0.0
C181 C 0.8092 0.14087 0.88243 0.0
C182 C 0.6301 0.90327 0.90984 0.0
Dy183 Dy 0.76946 0.05302 0.89394 0.0
O184 O 0.67214 0.88873 0.89552 0.0
O185 O 0.62546 0.95053 0.90943 0.0
O186 O 0.65613 0.99031 0.81926 0.0
O187 O 0.70975 0.03234 0.848 0.0
C188 C 0.67936 0.03001 0.81413 0.0
C189 C 0.78991 0.97113 0.94581 0.0
O190 O 0.71748 0.08155 0.94599 0.0
O191 O 0.67487 0.01026 0.95028 0.0
O192 O 0.82788 0.10598 0.90902 0.0
O193 O 0.76916 0.1277 0.8627 0.0
O194 O 0.82273 0.99821 0.92892 0.0
O195 O 0.75005 0.99132 0.93619 0.0
O196 O 0.76502 0.93603 0.85109 0.0
O197 O 0.79307 0.01215 0.83064 0.0
C198 C 0.68469 0.05532 0.96537 0.0
C199 C 0.79522 0.96374 0.82803 0.0
Dy200 Dy 0.7403 0.92985 0.38857 0.0
C201 C 0.91239 0.05138 0.39836 0.0
C202 C 0.67906 0.85695 0.36817 0.0
Dy203 Dy 0.82898 1.00303 0.38077 0.0
O204 O 0.66642 0.89794 0.38925 0.0
O205 O 0.72365 0.85728 0.35804 0.0
O206 O 0.76887 0.88828 0.45225 0.0
O207 O 0.80926 0.9408 0.42277 0.0
C208 C 0.80856 0.91085 0.45642 0.0
C209 C 0.74484 0.02846 0.33359 0.0
O210 O 0.851 0.946 0.32816 0.0
O211 O 0.77614 0.91109 0.31992 0.0
O212 O 0.88409 0.05692 0.36103 0.0
O213 O 0.89567 0.01834 0.42543 0.0
O214 O 0.77702 0.05991 0.3463 0.0
O215 O 0.76217 0.98648 0.34256 0.0
O216 O 0.71397 1.00054 0.42338 0.0
O217 O 0.78989 0.02948 0.44266 0.0
C218 C 0.82031 0.91728 0.30557 0.0
C219 C 0.74289 0.03349 0.44353 0.0
Dy220 Dy 0.32648 0.47845 0.65844 0.0
C221 C 0.18905 0.63489 0.64579 0.0
C222 C 0.39674 0.41077 0.64391 0.0
Dy223 Dy 0.2495 0.55585 0.63626 0.0
O224 O 0.3824 0.42408 0.68536 0.0
O225 O 0.37034 0.43159 0.61077 0.0
O226 O 0.3443 0.50661 0.72906 0.0
O227 O 0.31989 0.55668 0.67512 0.0
C228 C 0.32994 0.55114 0.71921 0.0
C229 C 0.24286 0.46868 0.58739 0.0
O230 O 0.29883 0.58292 0.58483 0.0
O231 O 0.35496 0.51971 0.59689 0.0
O232 O 0.17706 0.59314 0.62729 0.0
O233 O 0.23395 0.63359 0.65822 0.0
O234 O 0.22613 0.51028 0.57022 0.0
O235 O 0.25632 0.47687 0.62885 0.0
O236 O 0.26028 0.45001 0.69214 0.0
O237 O 0.22883 0.52716 0.70551 0.0
C238 C 0.33886 0.55972 0.57429 0.0
C239 C 0.22896 0.47983 0.71341 0.0
C240 C 0.19285 0.35732 0.52085 0.0
C241 C 0.20788 0.31889 0.55161 0.0
H242 H 0.1909 0.43532 0.50779 0.0
C243 C 0.23729 0.33008 0.59094 0.0
H244 H 0.17054 0.34972 0.49002 0.0
C245 C 0.25057 0.37825 0.59993 0.0
C246 C 0.23324 0.41748 0.57116 0.0
H247 H 0.25014 0.30146 0.61497 0.0
H248 H 0.27379 0.38471 0.63053 0.0
C249 C 0.20476 0.40632 0.53086 0.0
C250 C 0.86495 0.97064 0.77583 0.0
C251 C 0.8402 0.94303 0.80836 0.0
H252 H 0.93179 0.98351 0.74398 0.0
C253 C 0.86484 0.90375 0.83083 0.0
H254 H 0.84708 1.00111 0.75741 0.0
C255 C 0.91441 0.89734 0.82715 0.0
C256 C 0.93957 0.92617 0.79623 0.0
H257 H 0.84642 0.88008 0.85372 0.0
H258 H 0.9329 0.86996 0.84875 0.0
C259 C 0.91373 0.96133 0.76885 0.0
C260 C 0.31502 0.64662 0.06717 0.0
C261 C 0.28281 0.67709 0.04051 0.0
H262 H 0.33129 0.57446 0.09421 0.0
C263 C 0.24241 0.65649 0.01895 0.0
H264 H 0.34783 0.66079 0.08216 0.0
C265 C 0.23256 0.60746 0.02667 0.0
C266 C 0.26356 0.57738 0.05521 0.0
H267 H 0.21832 0.67844 0.99626 0.0
H268 H 0.19966 0.59347 1.01146 0.0
C269 C 0.30604 0.59693 0.07344 0.0
C270 C 0.63284 0.10064 0.29328 0.0
C271 C 0.5957 0.06802 0.3003 0.0
H272 H 0.70757 0.11466 0.29972 0.0
C273 C 0.60862 0.02053 0.31597 0.0
H274 H 0.62533 0.13706 0.27997 0.0
C275 C 0.65721 0.00682 0.32491 0.0
C276 C 0.69366 0.0408 0.32047 0.0
H277 H 0.58142 0.99402 0.32096 0.0
H278 H 0.66625 0.96995 0.33614 0.0
C279 C 0.68064 0.08774 0.30428 0.0
C280 C 0.67009 0.13601 0.49851 0.0
C281 C 0.69183 0.17787 0.48098 0.0
H282 H 0.66757 0.05741 0.49887 0.0
C283 C 0.73093 0.1715 0.45235 0.0
H284 H 0.64055 0.13945 0.52178 0.0
C285 C 0.74749 0.1242 0.44103 0.0
C286 C 0.72436 0.0825 0.45693 0.0
H287 H 0.74848 0.20283 0.43863 0.0
H288 H 0.77814 0.12033 0.41906 0.0
C289 C 0.68542 0.0888 0.48564 0.0
C290 C 0.11323 0.47553 0.77333 0.0
C291 C 0.08383 0.45303 0.73857 0.0
H292 H 0.18316 0.49945 0.79334 0.0
C293 C 0.10395 0.43755 0.69621 0.0
H294 H 0.09894 0.48854 0.8063 0.0
C295 C 0.15299 0.44145 0.69015 0.0
C296 C 0.1823 0.4625 0.72567 0.0
H297 H 0.08225 0.42088 0.66848 0.0
H298 H 0.16759 0.42996 0.65685 0.0
C299 C 0.16176 0.48053 0.76674 0.0
C300 C 0.83615 0.89121 0.94439 0.0
C301 C 0.79565 0.91828 0.95768 0.0
H302 H 0.86687 0.82044 0.93088 0.0
C303 C 0.75809 0.89322 0.97737 0.0
H304 H 0.86609 0.90953 0.93029 0.0
C305 C 0.76074 0.84196 0.98222 0.0
C306 C 0.79963 0.81457 0.96492 0.0
H307 H 0.7264 0.9132 0.98842 0.0
H308 H 0.73163 0.82362 0.99792 0.0
C309 C 0.83689 0.83993 0.94541 0.0
C310 C 0.37355 0.50125 0.23036 0.0
C311 C 0.39611 0.54399 0.21748 0.0
H312 H 0.30788 0.46344 0.23223 0.0
C313 C 0.36848 0.58201 0.1958 0.0
H314 H 0.39352 0.47242 0.24926 0.0
C315 C 0.31911 0.57796 0.1884 0.0
C316 C 0.2967 0.5349 0.20042 0.0
H317 H 0.38443 0.61621 0.18737 0.0
H318 H 0.29851 0.60853 0.17311 0.0
C319 C 0.32447 0.49647 0.22127 0.0
C320 C 0.56667 0.19337 0.37257 0.0
C321 C 0.53714 0.22687 0.34655 0.0
H322 H 0.58945 0.166 0.44068 0.0
C323 C 0.50761 0.25972 0.37144 0.0
H324 H 0.58864 0.16642 0.35476 0.0
C325 C 0.50745 0.25902 0.42083 0.0
C326 C 0.5365 0.22511 0.44694 0.0
H327 H 0.48325 0.28491 0.35247 0.0
H328 H 0.48502 0.28569 0.43876 0.0
C329 C 0.56599 0.19212 0.42204 0.0
C330 C 0.0221 0.26834 0.6293 0.0
C331 C 0.06331 0.28568 0.60927 0.0
H332 H 0.9811 0.26343 0.69144 0.0
C333 C 0.09579 0.31142 0.63827 0.0
H334 H 0.99773 0.24617 0.60846 0.0
C335 C 0.08718 0.31954 0.68628 0.0
C336 C 0.04498 0.30402 0.70578 0.0
H337 H 0.1291 0.32292 0.6245 0.0
H338 H 0.11352 0.33803 0.70814 0.0
C339 C 0.01283 0.27783 0.67686 0.0
C340 C 1.00073 0.79685 0.87991 0.0
C341 C 0.97686 0.7838 0.83693 0.0
H342 H 1.00104 0.79575 0.95599 0.0
C343 C 0.93491 0.758 0.83832 0.0
H344 H 0.03304 0.81749 0.87985 0.0
C345 C 0.91792 0.74424 0.8818 0.0
C346 C 0.94102 0.75827 0.92478 0.0
H347 H 0.91581 0.74782 0.80596 0.0
H348 H 0.8863 0.72265 0.8817 0.0
C349 C 0.9824 0.78506 0.92354 0.0
C350 C 0.48173 0.66325 0.15507 0.0
C351 C 0.45534 0.68734 0.19035 0.0
H352 H 0.49279 0.65336 0.08064 0.0
C353 C 0.42154 0.72363 0.1764 0.0
H354 H 0.50728 0.63436 0.16411 0.0
C355 C 0.41404 0.73525 0.12862 0.0
C356 C 0.43882 0.70967 0.09308 0.0
H357 H 0.40081 0.74307 0.20249 0.0
H358 H 0.38765 0.76372 0.11959 0.0
C359 C 0.47335 0.67396 0.10691 0.0
C360 C 0.15008 0.32136 0.30065 0.0
C361 C 0.12858 0.34756 0.33754 0.0
H362 H 0.17848 0.32375 0.23201 0.0
C363 C 0.11593 0.39723 0.33159 0.0
H364 H 0.16021 0.28289 0.30411 0.0
C365 C 0.12571 0.42048 0.28924 0.0
C366 C 0.14901 0.39427 0.25337 0.0
H367 H 0.0992 0.41793 0.35956 0.0
H368 H 0.11697 0.4592 0.28534 0.0
C369 C 0.16057 0.34457 0.25923 0.0
C370 C 0.88888 0.94022 0.56318 0.0
C371 C 0.88629 0.89655 0.58909 0.0
H372 H 0.86624 0.97952 0.50021 0.0
C373 C 0.86008 0.85805 0.56985 0.0
H374 H 0.90931 0.97038 0.57713 0.0
C375 C 0.83702 0.86284 0.52566 0.0
C376 C 0.83939 0.90624 0.49957 0.0
H377 H 0.85795 0.8238 0.58861 0.0
H378 H 0.81673 0.8324 0.51201 0.0
C379 C 0.86534 0.94513 0.5187 0.0
C380 C 0.32271 0.5725 0.8029 0.0
C381 C 0.33001 0.58861 0.75681 0.0
H382 H 0.32754 0.58817 0.87679 0.0
C383 C 0.34431 0.63668 0.74993 0.0
H384 H 0.3113 0.53564 0.80915 0.0
C385 C 0.35395 0.66703 0.78926 0.0
C386 C 0.34935 0.64938 0.8355 0.0
H387 H 0.35052 0.6497 0.71473 0.0
H388 H 0.36649 0.70352 0.78362 0.0
C389 C 0.33232 0.60242 0.84174 0.0
C390 C 0.64622 0.14022 0.06547 0.0
C391 C 0.62762 0.10701 0.09706 0.0
H392 H 0.67893 0.15005 0.99898 0.0
C393 C 0.62759 0.05706 0.08475 0.0
H394 H 0.6462 0.17898 0.07375 0.0
C395 C 0.64491 0.04069 0.04156 0.0
C396 C 0.66359 0.07371 1.0098 0.0
H397 H 0.61297 0.03055 0.10803 0.0
H398 H 0.64416 1.00192 0.03337 0.0
C399 C 0.66453 0.12365 0.02249 0.0
C400 C 0.70004 0.1227 0.71748 0.0
C401 C 0.65852 0.11773 0.68842 0.0
H402 H 0.73969 0.0988 0.78019 0.0
C403 C 0.62481 0.08398 0.70115 0.0
H404 H 0.72662 0.14864 0.70862 0.0
C405 C 0.63204 0.05621 0.74221 0.0
C406 C 0.67301 0.06158 0.77181 0.0
H407 H 0.59239 0.07951 0.67974 0.0
H408 H 0.6051 0.03062 0.75099 0.0
C409 C 0.70726 0.0948 0.75885 0.0
C410 C 0.11198 0.44179 0.01888 0.0
C411 C 0.13286 0.40216 0.04425 0.0
H412 H 0.06814 0.46511 0.95941 0.0
C413 C 0.12307 0.35416 0.02951 0.0
H414 H 0.11963 0.47914 0.02872 0.0
C415 C 0.09431 0.34605 0.9889 0.0
C416 C 0.07467 0.38587 0.96292 0.0
H417 H 0.13891 0.32295 0.04841 0.0
H418 H 0.08837 0.30882 0.97729 0.0
C419 C 0.08283 0.43372 0.97887 0.0
C420 C 0.87935 0.88453 0.24702 0.0
C421 C 0.8322 0.89728 0.25849 0.0
H422 H 0.92529 0.85241 0.19527 0.0
C423 C 0.7955 0.89186 0.22382 0.0
H424 H 0.90839 0.88874 0.27289 0.0
C425 C 0.80532 0.87285 0.17925 0.0
C426 C 0.85194 0.85767 0.16844 0.0
H427 H 0.75891 0.90224 0.23114 0.0
H428 H 0.77586 0.86803 0.15395 0.0
C429 C 0.88906 0.8642 0.20253 0.0
C430 C 0.34398 0.61263 0.50293 0.0
C431 C 0.36554 0.57803 0.53435 0.0
H432 H 0.34932 0.65241 0.43843 0.0
C433 C 0.41174 0.55955 0.52581 0.0
H434 H 0.30837 0.6276 0.50841 0.0
C435 C 0.43531 0.57435 0.48601 0.0
C436 C 0.41288 0.60738 0.45374 0.0
H437 H 0.42943 0.53304 0.54938 0.0
H438 H 0.47047 0.55861 0.47971 0.0
C439 C 0.36732 0.62692 0.46282 0.0
C440 C 0.29206 0.14827 0.42975 0.0
C441 C 0.25305 0.17599 0.41004 0.0
H442 H 0.36283 0.11801 0.42018 0.0
C443 C 0.25574 0.19327 0.36363 0.0
H444 H 0.29135 0.13479 0.46558 0.0
C445 C 0.29627 0.18288 0.33749 0.0
C446 C 0.33554 0.15598 0.35749 0.0
H447 H 0.22643 0.21474 0.34741 0.0
H448 H 0.29718 0.19669 0.30177 0.0
C449 C 0.33312 0.13887 0.40392 0.0
C450 C 0.10392 0.01387 0.57248 0.0
C451 C 0.13729 0.0454 0.59337 0.0
H452 H 0.05931 0.95299 0.58194 0.0
C453 C 0.15526 0.03619 0.63941 0.0
H454 H 0.08943 0.02027 0.53695 0.0
C455 C 0.13831 0.99735 0.66506 0.0
C456 C 0.10259 0.96767 0.64524 0.0
H457 H 0.18096 0.0601 0.65621 0.0
H458 H 0.15152 0.99218 0.70118 0.0
C459 C 0.08645 0.97553 0.59831 0.0
C460 C 0.23285 0.81296 0.84979 0.0
C461 C 0.20586 0.85735 0.84917 0.0
H462 H 0.29007 0.77072 0.88404 0.0
C463 C 0.22006 0.89571 0.87903 0.0
H464 H 0.22263 0.78282 0.82693 0.0
C465 C 0.25844 0.88875 0.91127 0.0
C466 C 0.28384 0.8436 0.91386 0.0
H467 H 0.20012 0.93035 0.87911 0.0
H468 H 0.26693 0.9181 0.9358 0.0
C469 C 0.2718 0.80617 0.88193 0.0
C470 C 0.39521 0.99836 0.17314 0.0
C471 C 0.44305 0.0119 0.17034 0.0
H472 H 0.34238 0.946 0.15393 0.0
C473 C 0.4752 0.98051 0.14713 0.0
H474 H 0.36952 0.02175 0.19087 0.0
C475 C 0.45978 0.93659 0.12704 0.0
C476 C 0.41175 0.92365 0.12905 0.0
H477 H 0.51233 0.98963 0.14483 0.0
H478 H 0.48526 0.9134 0.10879 0.0
C479 C 0.37962 0.95488 0.15231 0.0
C480 C 0.83792 0.2976 0.62215 0.0
C481 C 0.84729 0.34756 0.62808 0.0
H482 H 0.7862 0.24422 0.60358 0.0
C483 C 0.812 0.38273 0.61441 0.0
H484 H 0.86447 0.26961 0.63252 0.0
C485 C 0.76712 0.36809 0.59766 0.0
C486 C 0.75668 0.31808 0.59507 0.0
H487 H 0.81818 0.42144 0.61899 0.0
H488 H 0.73999 0.396 0.58873 0.0
C489 C 0.79288 0.28299 0.60626 0.0
C490 C 0.914 0.4742 0.89007 0.0
C491 C 0.88944 0.4668 0.84676 0.0
H492 H 0.91879 0.5165 0.9539 0.0
C493 C 0.84847 0.49608 0.83534 0.0
H494 H 0.94508 0.45163 0.89998 0.0
C495 C 0.83367 0.53367 0.86578 0.0
C496 C 0.85885 0.54167 0.9087 0.0
H497 H 0.82878 0.49105 0.8021 0.0
H498 H 0.80305 0.5569 0.85544 0.0
C499 C 0.89857 0.51098 0.92104 0.0
C500 C 0.69995 0.69468 0.11879 0.0
C501 C 0.73006 0.65932 0.09826 0.0
H502 H 0.63705 0.70929 0.15681 0.0
C503 C 0.71778 0.60972 0.09932 0.0
H504 H 0.7079 0.7332 0.11787 0.0
C505 C 0.67693 0.59572 0.12223 0.0
C506 C 0.64753 0.63131 0.14353 0.0
H507 H 0.74032 0.58169 0.08346 0.0
H508 H 0.66902 0.55727 0.12422 0.0
C509 C 0.65901 0.68089 0.14073 0.0
C510 C 0.57712 0.42041 0.3721 0.0
C511 C 0.5832 0.42875 0.42094 0.0
H512 H 0.56551 0.45242 0.30341 0.0
C513 C 0.57965 0.47711 0.4382 0.0
H514 H 0.57956 0.38358 0.35777 0.0
C515 C 0.57128 0.51645 0.40701 0.0
C516 C 0.5664 0.50794 0.3582 0.0
H517 H 0.58408 0.48459 0.47569 0.0
H518 H 0.5697 0.55349 0.42088 0.0
C519 C 0.569 0.45967 0.34102 0.0
C520 C 0.38489 0.3044 0.12218 0.0
C521 C 0.35537 0.32213 0.15766 0.0
H522 H 0.4404 0.25284 0.10373 0.0
C523 C 0.35603 0.29734 0.20122 0.0
H524 H 0.38479 0.32238 0.08821 0.0
C525 C 0.38677 0.25651 0.20962 0.0
C526 C 0.41775 0.2402 0.1748 0.0
H527 H 0.33316 0.30988 0.22909 0.0
H528 H 0.38824 0.23966 0.24415 0.0
C529 C 0.41619 0.26424 0.13091 0.0
C530 C 0.83978 0.25462 0.81806 0.0
C531 C 0.88158 0.26818 0.84283 0.0
H532 H 0.78355 0.20384 0.81203 0.0
C533 C 0.89737 0.24185 0.88327 0.0
H534 H 0.82674 0.27451 0.78694 0.0
C535 C 0.87308 0.20091 0.89719 0.0
C536 C 0.83227 0.18647 0.87136 0.0
H537 H 0.92966 0.25148 0.90288 0.0
H538 H 0.8868 0.17994 0.92737 0.0
C539 C 0.81506 0.21432 0.83248 0.0
C540 C 0.00914 0.60974 0.15305 0.0
C541 C 0.02912 0.57851 0.1192 0.0
H542 H 0.95189 0.65986 0.16931 0.0
C543 C 0.005 0.57223 0.07531 0.0
H544 H 0.02705 0.61483 0.18722 0.0
C545 C 0.96264 0.59886 0.0645 0.0
C546 C 0.94297 0.63088 0.09801 0.0
H547 H 0.01991 0.54828 0.04861 0.0
H548 H 0.94604 0.59537 0.02959 0.0
C549 C 0.96599 0.63515 0.14282 0.0
C550 C 0.6044 0.80916 0.37675 0.0
C551 C 0.64979 0.81387 0.35848 0.0
H552 H 0.54348 0.76405 0.38132 0.0
C553 C 0.66931 0.77529 0.33158 0.0
H554 H 0.58879 0.83822 0.39793 0.0
C555 C 0.64392 0.73319 0.32234 0.0
C556 C 0.59829 0.72829 0.33992 0.0
H557 H 0.70438 0.77765 0.31719 0.0
H558 H 0.66 0.70466 0.30081 0.0
C559 C 0.57885 0.76651 0.36768 0.0
C560 C 0.50935 0.335 0.66485 0.0
C561 C 0.52963 0.33633 0.62035 0.0
H562 H 0.4508 0.35732 0.70705 0.0
C563 C 0.50747 0.36453 0.58422 0.0
H564 H 0.52582 0.31286 0.69302 0.0
C565 C 0.46362 0.38849 0.59176 0.0
C566 C 0.44226 0.38506 0.63572 0.0
H567 H 0.52221 0.3654 0.54948 0.0
H568 H 0.44617 0.40912 0.56309 0.0
C569 C 0.46618 0.35959 0.67265 0.0
C570 C 0.11008 0.67702 0.63303 0.0
C571 C 0.15624 0.6769 0.65349 0.0
H572 H 0.04305 0.71547 0.62408 0.0
C573 C 0.1704 0.71676 0.68187 0.0
H574 H 0.09838 0.64679 0.61101 0.0
C575 C 0.13842 0.75612 0.6899 0.0
C576 C 0.09225 0.75609 0.66922 0.0
H577 H 0.20598 0.71732 0.6981 0.0
H578 H 0.14991 0.78664 0.71154 0.0
C579 C 0.07851 0.71638 0.64057 0.0
C580 C 0.53645 0.80804 0.91891 0.0
C581 C 0.50805 0.8297 0.95396 0.0
H582 H 0.59903 0.81389 0.87774 0.0
C583 C 0.52396 0.87179 0.97753 0.0
H584 H 0.52541 0.77519 0.9005 0.0
C585 C 0.56554 0.89344 0.96451 0.0
C586 C 0.59261 0.87333 0.9281 0.0
H587 H 0.50352 0.88921 1.00503 0.0
H588 H 0.57574 0.92713 0.98203 0.0
C589 C 0.57877 0.82966 0.9062 0.0
C590 C 0.97931 0.07906 0.45442 0.0
C591 C 0.95347 0.08276 0.41067 0.0
H592 H 0.03291 0.11051 0.50137 0.0
C593 C 0.96484 0.11966 0.37938 0.0
H594 H 0.97123 0.05093 0.47938 0.0
C595 C 0.99944 0.15333 0.39196 0.0
C596 C 0.02419 0.1512 0.43615 0.0
H597 H 0.94591 0.12356 0.34547 0.0
H598 H 0.00612 0.18199 0.36703 0.0
C599 C 0.01467 0.11298 0.46704 0.0
loop_
_geom_bond_atom_site_label_1
_geom_bond_atom_site_label_2
_geom_bond_distance
_geom_bond_site_symmetry_2
_ccdc_geom_bond_type
Dy0 O4 2.398 . S
Dy0 O5 2.491 . S
Dy0 O6 2.403 . S
Dy0 O7 2.664 . S
Dy0 O11 2.326 . S
Dy0 O15 2.310 . S
Dy0 O16 2.351 . S
C1 O12 1.185 . S
C1 O13 1.355 . S
C2 O4 1.185 . S
C2 O5 1.355 . S
Dy3 O7 2.310 . S
Dy3 O10 2.351 . S
Dy3 O12 2.398 . S
Dy3 O13 2.491 . S
Dy3 O14 2.403 . S
Dy3 O15 2.664 . S
Dy3 O17 2.326 . S
O4 Dy0 2.398 . S
O4 C2 1.185 . S
O5 Dy0 2.491 . S
O5 C2 1.355 . S
O6 Dy0 2.403 . S
O6 C8 1.254 . S
O7 Dy0 2.664 . S
O7 Dy3 2.310 . S
O7 C8 1.268 . S
C8 O6 1.254 . S
C8 O7 1.268 . S
C9 O14 1.254 . S
C9 O15 1.268 . S
O10 Dy3 2.351 . S
O10 C18 1.249 . S
O11 Dy0 2.326 . S
O11 C18 1.267 . S
O12 C1 1.185 . S
O12 Dy3 2.398 . S
O13 C1 1.355 . S
O13 Dy3 2.491 . S
O14 Dy3 2.403 . S
O14 C9 1.254 . S
O15 Dy0 2.310 . S
O15 Dy3 2.664 . S
O15 C9 1.268 . S
O16 Dy0 2.351 . S
O16 C19 1.249 . S
O17 Dy3 2.326 . S
O17 C19 1.267 . S
C18 O10 1.249 . S
C18 O11 1.267 . S
C19 O16 1.249 . S
C19 O17 1.267 . S
Dy20 O24 2.398 . S
Dy20 O25 2.491 . S
Dy20 O26 2.403 1_655 S
Dy20 O27 2.664 1_655 S
Dy20 O31 2.326 1_655 S
Dy20 O35 2.310 . S
Dy20 O36 2.351 . S
C21 O32 1.185 . S
C21 O33 1.355 . S
C22 O24 1.185 . S
C22 O25 1.355 . S
Dy23 O27 2.310 . S
Dy23 O30 2.351 . S
Dy23 O32 2.398 . S
Dy23 O33 2.491 . S
Dy23 O34 2.403 . S
Dy23 O35 2.664 1_455 S
Dy23 O37 2.326 . S
O24 Dy20 2.398 . S
O24 C22 1.185 . S
O25 Dy20 2.491 . S
O25 C22 1.355 . S
O26 Dy20 2.403 1_455 S
O26 C28 1.254 . S
O27 Dy20 2.664 1_455 S
O27 Dy23 2.310 . S
O27 C28 1.268 . S
C28 O26 1.254 . S
C28 O27 1.268 . S
C29 O34 1.254 1_655 S
C29 O35 1.268 . S
O30 Dy23 2.351 . S
O30 C38 1.249 . S
O31 Dy20 2.326 1_455 S
O31 C38 1.267 . S
O32 C21 1.185 . S
O32 Dy23 2.398 . S
O33 C21 1.355 . S
O33 Dy23 2.491 . S
O34 Dy23 2.403 . S
O34 C29 1.254 1_455 S
O35 Dy20 2.310 . S
O35 Dy23 2.664 1_655 S
O35 C29 1.268 . S
O36 Dy20 2.351 . S
O36 C39 1.249 . S
O37 Dy23 2.326 . S
O37 C39 1.267 1_455 S
C38 O30 1.249 . S
C38 O31 1.267 . S
C39 O36 1.249 . S
C39 O37 1.267 1_655 S
Dy40 O44 2.398 . S
Dy40 O45 2.491 . S
Dy40 O46 2.403 1_554 S
Dy40 O47 2.664 1_554 S
Dy40 O51 2.326 1_554 S
Dy40 O55 2.310 . S
Dy40 O56 2.351 . S
C41 O52 1.185 . S
C41 O53 1.355 . S
C42 O44 1.185 . S
C42 O45 1.355 . S
Dy43 O47 2.310 . S
Dy43 O50 2.351 . S
Dy43 O52 2.398 . S
Dy43 O53 2.491 . S
Dy43 O54 2.403 . S
Dy43 O55 2.664 1_556 S
Dy43 O57 2.326 . S
O44 Dy40 2.398 . S
O44 C42 1.185 . S
O45 Dy40 2.491 . S
O45 C42 1.355 . S
O46 Dy40 2.403 1_556 S
O46 C48 1.254 . S
O47 Dy40 2.664 1_556 S
O47 Dy43 2.310 . S
O47 C48 1.268 . S
C48 O46 1.254 . S
C48 O47 1.268 . S
C49 O54 1.254 1_554 S
C49 O55 1.268 . S
O50 Dy43 2.351 . S
O50 C58 1.249 . S
O51 Dy40 2.326 1_556 S
O51 C58 1.267 . S
O52 C41 1.185 . S
O52 Dy43 2.398 . S
O53 C41 1.355 . S
O53 Dy43 2.491 . S
O54 Dy43 2.403 . S
O54 C49 1.254 1_556 S
O55 Dy40 2.310 . S
O55 Dy43 2.664 1_554 S
O55 C49 1.268 . S
O56 Dy40 2.351 . S
O56 C59 1.246 1_554 S
O57 Dy43 2.326 . S
O57 C59 1.271 . S
C58 O50 1.249 . S
C58 O51 1.267 . S
C59 O56 1.246 1_556 S
C59 O57 1.271 . S
Dy60 O64 2.398 . S
Dy60 O65 2.491 . S
Dy60 O66 2.403 . S
Dy60 O67 2.664 . S
Dy60 O71 2.326 . S
Dy60 O75 2.310 . S
Dy60 O76 2.351 . S
C61 O72 1.185 . S
C61 O73 1.355 . S
C62 O64 1.185 . S
C62 O65 1.355 . S
Dy63 O67 2.310 . S
Dy63 O70 2.351 . S
Dy63 O72 2.398 . S
Dy63 O73 2.491 . S
Dy63 O74 2.403 . S
Dy63 O75 2.664 . S
Dy63 O77 2.326 . S
O64 Dy60 2.398 . S
O64 C62 1.185 . S
O65 Dy60 2.491 . S
O65 C62 1.355 . S
O66 Dy60 2.403 . S
O66 C68 1.254 . S
O67 Dy60 2.664 . S
O67 Dy63 2.310 . S
O67 C68 1.268 . S
C68 O66 1.254 . S
C68 O67 1.268 . S
C69 O74 1.254 . S
C69 O75 1.268 . S
O70 Dy63 2.351 . S
O70 C78 1.249 . S
O71 Dy60 2.326 . S
O71 C78 1.267 . S
O72 C61 1.185 . S
O72 Dy63 2.398 . S
O73 C61 1.355 . S
O73 Dy63 2.491 . S
O74 Dy63 2.403 . S
O74 C69 1.254 . S
O75 Dy60 2.310 . S
O75 Dy63 2.664 . S
O75 C69 1.268 . S
O76 Dy60 2.351 . S
O76 C79 1.249 . S
O77 Dy63 2.326 . S
O77 C79 1.267 . S
C78 O70 1.249 . S
C78 O71 1.267 . S
C79 O76 1.249 . S
C79 O77 1.267 . S
Dy80 O84 2.398 . S
Dy80 O85 2.491 . S
Dy80 O86 2.403 . S
Dy80 O87 2.664 . S
Dy80 O91 2.326 . S
Dy80 O95 2.310 . S
Dy80 O96 2.351 . S
C81 O92 1.185 . S
C81 O93 1.355 . S
C82 O84 1.185 . S
C82 O85 1.355 . S
Dy83 O87 2.310 . S
Dy83 O90 2.351 . S
Dy83 O92 2.398 . S
Dy83 O93 2.491 . S
Dy83 O94 2.403 . S
Dy83 O95 2.664 . S
Dy83 O97 2.326 . S
O84 Dy80 2.398 . S
O84 C82 1.185 . S
O85 Dy80 2.491 . S
O85 C82 1.355 . S
O86 Dy80 2.403 . S
O86 C88 1.254 . S
O87 Dy80 2.664 . S
O87 Dy83 2.310 . S
O87 C88 1.268 . S
C88 O86 1.254 . S
C88 O87 1.268 . S
C89 O94 1.254 . S
C89 O95 1.268 . S
O90 Dy83 2.351 . S
O90 C98 1.249 . S
O91 Dy80 2.326 . S
O91 C98 1.267 . S
O92 C81 1.185 . S
O92 Dy83 2.398 . S
O93 C81 1.355 . S
O93 Dy83 2.491 . S
O94 Dy83 2.403 . S
O94 C89 1.254 . S
O95 Dy80 2.310 . S
O95 Dy83 2.664 . S
O95 C89 1.268 . S
O96 Dy80 2.351 . S
O96 C99 1.249 . S
O97 Dy83 2.326 . S
O97 C99 1.267 . S
C98 O90 1.249 . S
C98 O91 1.267 . S
C99 O96 1.249 . S
C99 O97 1.267 . S
Dy100 O104 2.398 . S
Dy100 O105 2.491 . S
Dy100 O106 2.403 . S
Dy100 O107 2.664 . S
Dy100 O111 2.326 . S
Dy100 O115 2.310 . S
Dy100 O116 2.351 1_655 S
C101 O112 1.185 . S
C101 O113 1.355 . S
C102 O104 1.185 . S
C102 O105 1.355 . S
Dy103 O107 2.310 1_455 S
Dy103 O110 2.351 1_455 S
Dy103 O112 2.398 . S
Dy103 O113 2.491 . S
Dy103 O114 2.403 . S
Dy103 O115 2.664 1_455 S
Dy103 O117 2.326 . S
O104 Dy100 2.398 . S
O104 C102 1.185 . S
O105 Dy100 2.491 . S
O105 C102 1.355 . S
O106 Dy100 2.403 . S
O106 C108 1.254 . S
O107 Dy100 2.664 . S
O107 Dy103 2.310 1_655 S
O107 C108 1.268 . S
C108 O106 1.254 . S
C108 O107 1.268 . S
C109 O114 1.254 . S
C109 O115 1.268 1_455 S
O110 Dy103 2.351 1_655 S
O110 C118 1.249 . S
O111 Dy100 2.326 . S
O111 C118 1.267 . S
O112 C101 1.185 . S
O112 Dy103 2.398 . S
O113 C101 1.355 . S
O113 Dy103 2.491 . S
O114 Dy103 2.403 . S
O114 C109 1.254 . S
O115 Dy100 2.310 . S
O115 Dy103 2.664 1_655 S
O115 C109 1.268 1_655 S
O116 Dy100 2.351 1_455 S
O116 C119 1.249 . S
O117 Dy103 2.326 . S
O117 C119 1.267 . S
C118 O110 1.249 . S
C118 O111 1.267 . S
C119 O116 1.249 . S
C119 O117 1.267 . S
Dy120 O124 2.398 . S
Dy120 O125 2.491 . S
Dy120 O126 2.403 . S
Dy120 O127 2.664 . S
Dy120 O131 2.326 . S
Dy120 O135 2.310 . S
Dy120 O136 2.351 1_554 S
C121 O132 1.185 . S
C121 O133 1.355 . S
C122 O124 1.185 . S
C122 O125 1.355 . S
Dy123 O127 2.310 1_556 S
Dy123 O130 2.351 1_556 S
Dy123 O132 2.398 . S
Dy123 O133 2.491 . S
Dy123 O134 2.403 . S
Dy123 O135 2.664 1_556 S
Dy123 O137 2.326 . S
O124 Dy120 2.398 . S
O124 C122 1.185 . S
O125 Dy120 2.491 . S
O125 C122 1.355 . S
O126 Dy120 2.403 . S
O126 C128 1.254 . S
O127 Dy120 2.664 . S
O127 Dy123 2.310 1_554 S
O127 C128 1.268 . S
C128 O126 1.254 . S
C128 O127 1.268 . S
C129 O134 1.254 . S
C129 O135 1.268 1_556 S
O130 Dy123 2.351 1_554 S
O130 C138 1.249 . S
O131 Dy120 2.326 . S
O131 C138 1.267 . S
O132 C121 1.185 . S
O132 Dy123 2.398 . S
O133 C121 1.355 . S
O133 Dy123 2.491 . S
O134 Dy123 2.403 . S
O134 C129 1.254 . S
O135 Dy120 2.310 . S
O135 Dy123 2.664 1_554 S
O135 C129 1.268 1_554 S
O136 Dy120 2.351 1_556 S
O136 C139 1.249 . S
O137 Dy123 2.326 . S
O137 C139 1.267 . S
C138 O130 1.249 . S
C138 O131 1.267 . S
C139 O136 1.249 . S
C139 O137 1.267 . S
Dy140 O144 2.398 . S
Dy140 O145 2.491 . S
Dy140 O146 2.403 . S
Dy140 O147 2.664 . S
Dy140 O151 2.326 . S
Dy140 O155 2.310 . S
Dy140 O156 2.351 . S
C141 O152 1.185 . S
C141 O153 1.355 . S
C142 O144 1.185 . S
C142 O145 1.355 . S
Dy143 O147 2.310 . S
Dy143 O150 2.351 . S
Dy143 O152 2.398 . S
Dy143 O153 2.491 . S
Dy143 O154 2.403 . S
Dy143 O155 2.664 . S
Dy143 O157 2.326 . S
O144 Dy140 2.398 . S
O144 C142 1.185 . S
O145 Dy140 2.491 . S
O145 C142 1.355 . S
O146 Dy140 2.403 . S
O146 C148 1.254 . S
O147 Dy140 2.664 . S
O147 Dy143 2.310 . S
O147 C148 1.268 . S
C148 O146 1.254 . S
C148 O147 1.268 . S
C149 O154 1.254 . S
C149 O155 1.268 . S
O150 Dy143 2.351 . S
O150 C158 1.249 . S
O151 Dy140 2.326 . S
O151 C158 1.267 . S
O152 C141 1.185 . S
O152 Dy143 2.398 . S
O153 C141 1.355 . S
O153 Dy143 2.491 . S
O154 Dy143 2.403 . S
O154 C149 1.254 . S
O155 Dy140 2.310 . S
O155 Dy143 2.664 . S
O155 C149 1.268 . S
O156 Dy140 2.351 . S
O156 C159 1.249 . S
O157 Dy143 2.326 . S
O157 C159 1.267 . S
C158 O150 1.249 . S
C158 O151 1.267 . S
C159 O156 1.249 . S
C159 O157 1.267 . S
Dy160 O164 2.398 . S
Dy160 O165 2.491 . S
Dy160 O166 2.403 . S
Dy160 O167 2.664 . S
Dy160 O171 2.326 . S
Dy160 O175 2.310 . S
Dy160 O176 2.351 . S
C161 O172 1.185 . S
C161 O173 1.355 . S
C162 O164 1.185 . S
C162 O165 1.355 . S
Dy163 O167 2.310 . S
Dy163 O170 2.351 . S
Dy163 O172 2.398 . S
Dy163 O173 2.491 . S
Dy163 O174 2.403 . S
Dy163 O175 2.664 . S
Dy163 O177 2.326 . S
O164 Dy160 2.398 . S
O164 C162 1.185 . S
O165 Dy160 2.491 . S
O165 C162 1.355 . S
O166 Dy160 2.403 . S
O166 C168 1.254 . S
O167 Dy160 2.664 . S
O167 Dy163 2.310 . S
O167 C168 1.268 . S
C168 O166 1.254 . S
C168 O167 1.268 . S
C169 O174 1.254 . S
C169 O175 1.268 . S
O170 Dy163 2.351 . S
O170 C178 1.249 . S
O171 Dy160 2.326 . S
O171 C178 1.267 . S
O172 C161 1.185 . S
O172 Dy163 2.398 . S
O173 C161 1.355 . S
O173 Dy163 2.491 . S
O174 Dy163 2.403 . S
O174 C169 1.254 . S
O175 Dy160 2.310 . S
O175 Dy163 2.664 . S
O175 C169 1.268 . S
O176 Dy160 2.351 . S
O176 C179 1.249 . S
O177 Dy163 2.326 . S
O177 C179 1.267 . S
C178 O170 1.249 . S
C178 O171 1.267 . S
C179 O176 1.249 . S
C179 O177 1.267 . S
Dy180 O184 2.398 . S
Dy180 O185 2.491 . S
Dy180 O186 2.403 1_565 S
Dy180 O187 2.664 1_565 S
Dy180 O191 2.326 1_565 S
Dy180 O195 2.310 . S
Dy180 O196 2.351 . S
C181 O192 1.185 . S
C181 O193 1.355 . S
C182 O184 1.185 . S
C182 O185 1.355 . S
Dy183 O187 2.310 . S
Dy183 O190 2.351 . S
Dy183 O192 2.398 . S
Dy183 O193 2.491 . S
Dy183 O194 2.403 . S
Dy183 O195 2.664 1_545 S
Dy183 O197 2.326 . S
O184 Dy180 2.398 . S
O184 C182 1.185 . S
O185 Dy180 2.491 . S
O185 C182 1.355 . S
O186 Dy180 2.403 1_545 S
O186 C188 1.254 . S
O187 Dy180 2.664 1_545 S
O187 Dy183 2.310 . S
O187 C188 1.268 . S
C188 O186 1.254 . S
C188 O187 1.268 . S
C189 O194 1.254 1_565 S
C189 O195 1.268 . S
O190 Dy183 2.351 . S
O190 C198 1.249 . S
O191 Dy180 2.326 1_545 S
O191 C198 1.267 . S
O192 C181 1.185 . S
O192 Dy183 2.398 . S
O193 C181 1.355 . S
O193 Dy183 2.491 . S
O194 Dy183 2.403 . S
O194 C189 1.254 1_545 S
O195 Dy180 2.310 . S
O195 Dy183 2.664 1_565 S
O195 C189 1.268 . S
O196 Dy180 2.351 . S
O196 C199 1.249 . S
O197 Dy183 2.326 . S
O197 C199 1.267 1_545 S
C198 O190 1.249 . S
C198 O191 1.267 . S
C199 O196 1.249 . S
C199 O197 1.267 1_565 S
Dy200 O204 2.398 . S
Dy200 O205 2.491 . S
Dy200 O206 2.403 . S
Dy200 O207 2.664 . S
Dy200 O211 2.326 . S
Dy200 O215 2.310 . S
Dy200 O216 2.351 1_565 S
C201 O212 1.185 . S
C201 O213 1.355 . S
C202 O204 1.185 . S
C202 O205 1.355 . S
Dy203 O207 2.310 1_545 S
Dy203 O210 2.351 1_545 S
Dy203 O212 2.398 . S
Dy203 O213 2.491 . S
Dy203 O214 2.403 . S
Dy203 O215 2.664 1_545 S
Dy203 O217 2.326 . S
O204 Dy200 2.398 . S
O204 C202 1.185 . S
O205 Dy200 2.491 . S
O205 C202 1.355 . S
O206 Dy200 2.403 . S
O206 C208 1.254 . S
O207 Dy200 2.664 . S
O207 Dy203 2.310 1_565 S
O207 C208 1.268 . S
C208 O206 1.254 . S
C208 O207 1.268 . S
C209 O214 1.254 . S
C209 O215 1.268 1_545 S
O210 Dy203 2.351 1_565 S
O210 C218 1.249 . S
O211 Dy200 2.326 . S
O211 C218 1.267 . S
O212 C201 1.185 . S
O212 Dy203 2.398 . S
O213 C201 1.355 . S
O213 Dy203 2.491 . S
O214 Dy203 2.403 . S
O214 C209 1.254 . S
O215 Dy200 2.310 . S
O215 Dy203 2.664 1_565 S
O215 C209 1.268 1_565 S
O216 Dy200 2.351 1_545 S
O216 C219 1.249 . S
O217 Dy203 2.326 . S
O217 C219 1.267 . S
C218 O210 1.249 . S
C218 O211 1.267 . S
C219 O216 1.249 . S
C219 O217 1.267 . S
Dy220 O224 2.398 . S
Dy220 O225 2.491 . S
Dy220 O226 2.403 . S
Dy220 O227 2.664 . S
Dy220 O231 2.326 . S
Dy220 O235 2.310 . S
Dy220 O236 2.351 . S
C221 O232 1.185 . S
C221 O233 1.355 . S
C222 O224 1.185 . S
C222 O225 1.355 . S
Dy223 O227 2.310 . S
Dy223 O230 2.351 . S
Dy223 O232 2.398 . S
Dy223 O233 2.491 . S
Dy223 O234 2.403 . S
Dy223 O235 2.664 . S
Dy223 O237 2.326 . S
O224 Dy220 2.398 . S
O224 C222 1.185 . S
O225 Dy220 2.491 . S
O225 C222 1.355 . S
O226 Dy220 2.403 . S
O226 C228 1.254 . S
O227 Dy220 2.664 . S
O227 Dy223 2.310 . S
O227 C228 1.268 . S
C228 O226 1.254 . S
C228 O227 1.268 . S
C229 O234 1.254 . S
C229 O235 1.268 . S
O230 Dy223 2.351 . S
O230 C238 1.249 . S
O231 Dy220 2.326 . S
O231 C238 1.267 . S
O232 C221 1.185 . S
O232 Dy223 2.398 . S
O233 C221 1.355 . S
O233 Dy223 2.491 . S
O234 Dy223 2.403 . S
O234 C229 1.254 . S
O235 Dy220 2.310 . S
O235 Dy223 2.664 . S
O235 C229 1.268 . S
O236 Dy220 2.351 . S
O236 C239 1.249 . S
O237 Dy223 2.326 . S
O237 C239 1.267 . S
C238 O230 1.249 . S
C238 O231 1.267 . S
C239 O236 1.249 . S
C239 O237 1.267 . S
C240 C241 1.387 . S
C240 H244 0.950 . S
C240 C249 1.390 . S
C241 C240 1.387 . S
C241 C243 1.387 . S
H242 C249 0.950 . S
C243 C241 1.387 . S
C243 C245 1.390 . S
C243 H247 0.950 . S
H244 C240 0.950 . S
C245 C243 1.390 . S
C245 C246 1.387 . S
C245 H248 0.950 . S
C246 C245 1.387 . S
C246 C249 1.387 . S
H247 C243 0.950 . S
H248 C245 0.950 . S
C249 C240 1.390 . S
C249 H242 0.950 . S
C249 C246 1.387 . S
C250 C251 1.387 . S
C250 H254 0.950 1_565 S
C250 C259 1.390 . S
C251 C250 1.387 . S
C251 C253 1.387 . S
H252 C259 0.950 . S
C253 C251 1.387 . S
C253 C255 1.390 . S
C253 H257 0.950 . S
H254 C250 0.950 1_545 S
C255 C253 1.390 . S
C255 C256 1.387 . S
C255 H258 0.950 . S
C256 C255 1.387 . S
C256 C259 1.387 . S
H257 C253 0.950 . S
H258 C255 0.950 . S
C259 C250 1.390 . S
C259 H252 0.950 . S
C259 C256 1.387 . S
C260 C261 1.387 . S
C260 H264 0.950 . S
C260 C269 1.390 . S
C261 C260 1.387 . S
C261 C263 1.387 1_554 S
H262 C269 0.950 . S
C263 C261 1.387 1_556 S
C263 C265 1.390 . S
C263 H267 0.950 . S
H264 C260 0.950 . S
C265 C263 1.390 . S
C265 C266 1.387 1_556 S
C265 H268 0.950 . S
C266 C265 1.387 1_554 S
C266 C269 1.387 . S
H267 C263 0.950 . S
H268 C265 0.950 . S
C269 C260 1.390 . S
C269 H262 0.950 . S
C269 C266 1.387 . S
C270 C271 1.387 . S
C270 H274 0.950 . S
C270 C279 1.390 . S
C271 C270 1.387 . S
C271 C273 1.387 . S
H272 C279 0.950 . S
C273 C271 1.387 . S
C273 C275 1.390 . S
C273 H277 0.950 1_545 S
H274 C270 0.950 . S
C275 C273 1.390 . S
C275 C276 1.387 . S
C275 H278 0.950 1_545 S
C276 C275 1.387 . S
C276 C279 1.387 . S
H277 C273 0.950 1_565 S
H278 C275 0.950 1_565 S
C279 C270 1.390 . S
C279 H272 0.950 . S
C279 C276 1.387 . S
C280 C281 1.387 . S
C280 H284 0.950 . S
C280 C289 1.390 . S
C281 C280 1.387 . S
C281 C283 1.387 . S
H282 C289 0.950 . S
C283 C281 1.387 . S
C283 C285 1.390 . S
C283 H287 0.950 . S
H284 C280 0.950 . S
C285 C283 1.390 . S
C285 C286 1.387 . S
C285 H288 0.950 . S
C286 C285 1.387 . S
C286 C289 1.387 . S
H287 C283 0.950 . S
H288 C285 0.950 . S
C289 C280 1.390 . S
C289 H282 0.950 . S
C289 C286 1.387 . S
C290 C291 1.387 . S
C290 H294 0.950 . S
C290 C299 1.390 . S
C291 C290 1.387 . S
C291 C293 1.387 . S
H292 C299 0.950 . S
C293 C291 1.387 . S
C293 C295 1.390 . S
C293 H297 0.950 . S
H294 C290 0.950 . S
C295 C293 1.390 . S
C295 C296 1.387 . S
C295 H298 0.950 . S
C296 C295 1.387 . S
C296 C299 1.387 . S
H297 C293 0.950 . S
H298 C295 0.950 . S
C299 C290 1.390 . S
C299 H292 0.950 . S
C299 C296 1.387 . S
C300 C301 1.387 . S
C300 H304 0.950 . S
C300 C309 1.390 . S
C301 C300 1.387 . S
C301 C303 1.387 . S
H302 C309 0.950 . S
C303 C301 1.387 . S
C303 C305 1.390 . S
C303 H307 0.950 . S
H304 C300 0.950 . S
C305 C303 1.390 . S
C305 C306 1.387 . S
C305 H308 0.950 1_556 S
C306 C305 1.387 . S
C306 C309 1.387 . S
H307 C303 0.950 . S
H308 C305 0.950 1_554 S
C309 C300 1.390 . S
C309 H302 0.950 . S
C309 C306 1.387 . S
C310 C311 1.387 . S
C310 H314 0.950 . S
C310 C319 1.390 . S
C311 C310 1.387 . S
C311 C313 1.387 . S
H312 C319 0.950 . S
C313 C311 1.387 . S
C313 C315 1.390 . S
C313 H317 0.950 . S
H314 C310 0.950 . S
C315 C313 1.390 . S
C315 C316 1.387 . S
C315 H318 0.950 . S
C316 C315 1.387 . S
C316 C319 1.387 . S
H317 C313 0.950 . S
H318 C315 0.950 . S
C319 C310 1.390 . S
C319 H312 0.950 . S
C319 C316 1.387 . S
C320 C321 1.387 . S
C320 H324 0.950 . S
C320 C329 1.390 . S
C321 C320 1.387 . S
C321 C323 1.387 . S
H322 C329 0.950 . S
C323 C321 1.387 . S
C323 C325 1.390 . S
C323 H327 0.950 . S
H324 C320 0.950 . S
C325 C323 1.390 . S
C325 C326 1.387 . S
C325 H328 0.950 . S
C326 C325 1.387 . S
C326 C329 1.387 . S
H327 C323 0.950 . S
H328 C325 0.950 . S
C329 C320 1.390 . S
C329 H322 0.950 . S
C329 C326 1.387 . S
C330 C331 1.387 1_655 S
C330 H334 0.950 . S
C330 C339 1.390 . S
C331 C330 1.387 1_455 S
C331 C333 1.387 . S
H332 C339 0.950 . S
C333 C331 1.387 . S
C333 C335 1.390 . S
C333 H337 0.950 . S
H334 C330 0.950 . S
C335 C333 1.390 . S
C335 C336 1.387 . S
C335 H338 0.950 . S
C336 C335 1.387 . S
C336 C339 1.387 1_455 S
H337 C333 0.950 . S
H338 C335 0.950 . S
C339 C330 1.390 . S
C339 H332 0.950 . S
C339 C336 1.387 1_655 S
C340 C341 1.387 1_455 S
C340 H344 0.950 . S
C340 C349 1.390 . S
C341 C340 1.387 1_655 S
C341 C343 1.387 . S
H342 C349 0.950 . S
C343 C341 1.387 . S
C343 C345 1.390 . S
C343 H347 0.950 . S
H344 C340 0.950 . S
C345 C343 1.390 . S
C345 C346 1.387 . S
C345 H348 0.950 . S
C346 C345 1.387 . S
C346 C349 1.387 1_655 S
H347 C343 0.950 . S
H348 C345 0.950 . S
C349 C340 1.390 . S
C349 H342 0.950 . S
C349 C346 1.387 1_455 S
C350 C351 1.387 . S
C350 H354 0.950 . S
C350 C359 1.390 . S
C351 C350 1.387 . S
C351 C353 1.387 . S
H352 C359 0.950 . S
C353 C351 1.387 . S
C353 C355 1.390 . S
C353 H357 0.950 . S
H354 C350 0.950 . S
C355 C353 1.390 . S
C355 C356 1.387 . S
C355 H358 0.950 . S
C356 C355 1.387 . S
C356 C359 1.387 . S
H357 C353 0.950 . S
H358 C355 0.950 . S
C359 C350 1.390 . S
C359 H352 0.950 . S
C359 C356 1.387 . S
C360 C361 1.387 . S
C360 H364 0.950 . S
C360 C369 1.390 . S
C361 C360 1.387 . S
C361 C363 1.387 . S
H362 C369 0.950 . S
C363 C361 1.387 . S
C363 C365 1.390 . S
C363 H367 0.950 . S
H364 C360 0.950 . S
C365 C363 1.390 . S
C365 C366 1.387 . S
C365 H368 0.950 . S
C366 C365 1.387 . S
C366 C369 1.387 . S
H367 C363 0.950 . S
H368 C365 0.950 . S
C369 C360 1.390 . S
C369 H362 0.950 . S
C369 C366 1.387 . S
C370 C371 1.387 . S
C370 H374 0.950 . S
C370 C379 1.390 . S
C371 C370 1.387 . S
C371 C373 1.387 . S
H372 C379 0.950 . S
C373 C371 1.387 . S
C373 C375 1.390 . S
C373 H377 0.950 . S
H374 C370 0.950 . S
C375 C373 1.390 . S
C375 C376 1.387 . S
C375 H378 0.950 . S
C376 C375 1.387 . S
C376 C379 1.387 . S
H377 C373 0.950 . S
H378 C375 0.950 . S
C379 C370 1.390 . S
C379 H372 0.950 . S
C379 C376 1.387 . S
C380 C381 1.387 . S
C380 H384 0.950 . S
C380 C389 1.390 . S
C381 C380 1.387 . S
C381 C383 1.387 . S
H382 C389 0.950 . S
C383 C381 1.387 . S
C383 C385 1.390 . S
C383 H387 0.950 . S
H384 C380 0.950 . S
C385 C383 1.390 . S
C385 C386 1.387 . S
C385 H388 0.950 . S
C386 C385 1.387 . S
C386 C389 1.387 . S
H387 C383 0.950 . S
H388 C385 0.950 . S
C389 C380 1.390 . S
C389 H382 0.950 . S
C389 C386 1.387 . S
C390 C391 1.387 . S
C390 H394 0.950 . S
C390 C399 1.390 1_554 S
C391 C390 1.387 . S
C391 C393 1.387 . S
H392 C399 0.950 . S
C393 C391 1.387 . S
C393 C395 1.390 . S
C393 H397 0.950 . S
H394 C390 0.950 . S
C395 C393 1.390 . S
C395 C396 1.387 1_554 S
C395 H398 0.950 1_545 S
C396 C395 1.387 1_556 S
C396 C399 1.387 . S
H397 C393 0.950 . S
H398 C395 0.950 1_565 S
C399 C390 1.390 1_556 S
C399 H392 0.950 . S
C399 C396 1.387 . S
C400 C401 1.387 . S
C400 H404 0.950 . S
C400 C409 1.390 . S
C401 C400 1.387 . S
C401 C403 1.387 . S
H402 C409 0.950 . S
C403 C401 1.387 . S
C403 C405 1.390 . S
C403 H407 0.950 . S
H404 C400 0.950 . S
C405 C403 1.390 . S
C405 C406 1.387 . S
C405 H408 0.950 . S
C406 C405 1.387 . S
C406 C409 1.387 . S
H407 C403 0.950 . S
H408 C405 0.950 . S
C409 C400 1.390 . S
C409 H402 0.950 . S
C409 C406 1.387 . S
C410 C411 1.387 1_556 S
C410 H414 0.950 . S
C410 C419 1.390 . S
C411 C410 1.387 1_554 S
C411 C413 1.387 . S
H412 C419 0.950 . S
C413 C411 1.387 . S
C413 C415 1.390 1_554 S
C413 H417 0.950 . S
H414 C410 0.950 . S
C415 C413 1.390 1_556 S
C415 C416 1.387 . S
C415 H418 0.950 . S
C416 C415 1.387 . S
C416 C419 1.387 . S
H417 C413 0.950 . S
H418 C415 0.950 . S
C419 C410 1.390 . S
C419 H412 0.950 . S
C419 C416 1.387 . S
C420 C421 1.387 . S
C420 H424 0.950 . S
C420 C429 1.390 . S
C421 C420 1.387 . S
C421 C423 1.387 . S
H422 C429 0.950 . S
C423 C421 1.387 . S
C423 C425 1.390 . S
C423 H427 0.950 . S
H424 C420 0.950 . S
C425 C423 1.390 . S
C425 C426 1.387 . S
C425 H428 0.950 . S
C426 C425 1.387 . S
C426 C429 1.387 . S
H427 C423 0.950 . S
H428 C425 0.950 . S
C429 C420 1.390 . S
C429 H422 0.950 . S
C429 C426 1.387 . S
C430 C431 1.387 . S
C430 H434 0.950 . S
C430 C439 1.390 . S
C431 C430 1.387 . S
C431 C433 1.387 . S
H432 C439 0.950 . S
C433 C431 1.387 . S
C433 C435 1.390 . S
C433 H437 0.950 . S
H434 C430 0.950 . S
C435 C433 1.390 . S
C435 C436 1.387 . S
C435 H438 0.950 . S
C436 C435 1.387 . S
C436 C439 1.387 . S
H437 C433 0.950 . S
H438 C435 0.950 . S
C439 C430 1.390 . S
C439 H432 0.950 . S
C439 C436 1.387 . S
C440 C441 1.387 . S
C440 H444 0.950 . S
C440 C449 1.390 . S
C441 C440 1.387 . S
C441 C443 1.387 . S
H442 C449 0.950 . S
C443 C441 1.387 . S
C443 C445 1.390 . S
C443 H447 0.950 . S
H444 C440 0.950 . S
C445 C443 1.390 . S
C445 C446 1.387 . S
C445 H448 0.950 . S
C446 C445 1.387 . S
C446 C449 1.387 . S
H447 C443 0.950 . S
H448 C445 0.950 . S
C449 C440 1.390 . S
C449 H442 0.950 . S
C449 C446 1.387 . S
C450 C451 1.387 . S
C450 H454 0.950 . S
C450 C459 1.390 . S
C451 C450 1.387 . S
C451 C453 1.387 . S
H452 C459 0.950 1_565 S
C453 C451 1.387 . S
C453 C455 1.390 . S
C453 H457 0.950 . S
H454 C450 0.950 . S
C455 C453 1.390 . S
C455 C456 1.387 1_545 S
C455 H458 0.950 1_545 S
C456 C455 1.387 1_565 S
C456 C459 1.387 1_565 S
H457 C453 0.950 . S
H458 C455 0.950 1_565 S
C459 C450 1.390 . S
C459 H452 0.950 1_545 S
C459 C456 1.387 1_545 S
C460 C461 1.387 . S
C460 H464 0.950 . S
C460 C469 1.390 . S
C461 C460 1.387 . S
C461 C463 1.387 . S
H462 C469 0.950 . S
C463 C461 1.387 . S
C463 C465 1.390 . S
C463 H467 0.950 . S
H464 C460 0.950 . S
C465 C463 1.390 . S
C465 C466 1.387 . S
C465 H468 0.950 . S
C466 C465 1.387 . S
C466 C469 1.387 . S
H467 C463 0.950 . S
H468 C465 0.950 . S
C469 C460 1.390 . S
C469 H462 0.950 . S
C469 C466 1.387 . S
C470 C471 1.387 1_565 S
C470 H474 0.950 . S
C470 C479 1.390 . S
C471 C470 1.387 1_545 S
C471 C473 1.387 . S
H472 C479 0.950 . S
C473 C471 1.387 . S
C473 C475 1.390 1_545 S
C473 H477 0.950 . S
H474 C470 0.950 . S
C475 C473 1.390 1_565 S
C475 C476 1.387 . S
C475 H478 0.950 . S
C476 C475 1.387 . S
C476 C479 1.387 . S
H477 C473 0.950 . S
H478 C475 0.950 . S
C479 C470 1.390 . S
C479 H472 0.950 . S
C479 C476 1.387 . S
C480 C481 1.387 . S
C480 H484 0.950 . S
C480 C489 1.390 . S
C481 C480 1.387 . S
C481 C483 1.387 . S
H482 C489 0.950 . S
C483 C481 1.387 . S
C483 C485 1.390 . S
C483 H487 0.950 . S
H484 C480 0.950 . S
C485 C483 1.390 . S
C485 C486 1.387 . S
C485 H488 0.950 . S
C486 C485 1.387 . S
C486 C489 1.387 . S
H487 C483 0.950 . S
H488 C485 0.950 . S
C489 C480 1.390 . S
C489 H482 0.950 . S
C489 C486 1.387 . S
C490 C491 1.387 . S
C490 H494 0.950 . S
C490 C499 1.390 . S
C491 C490 1.387 . S
C491 C493 1.387 . S
H492 C499 0.950 . S
C493 C491 1.387 . S
C493 C495 1.390 . S
C493 H497 0.950 . S
H494 C490 0.950 . S
C495 C493 1.390 . S
C495 C496 1.387 . S
C495 H498 0.950 . S
C496 C495 1.387 . S
C496 C499 1.387 . S
H497 C493 0.950 . S
H498 C495 0.950 . S
C499 C490 1.390 . S
C499 H492 0.950 . S
C499 C496 1.387 . S
C500 C501 1.387 . S
C500 H504 0.950 . S
C500 C509 1.390 . S
C501 C500 1.387 . S
C501 C503 1.387 . S
H502 C509 0.950 . S
C503 C501 1.387 . S
C503 C505 1.390 . S
C503 H507 0.950 . S
H504 C500 0.950 . S
C505 C503 1.390 . S
C505 C506 1.387 . S
C505 H508 0.950 . S
C506 C505 1.387 . S
C506 C509 1.387 . S
H507 C503 0.950 . S
H508 C505 0.950 . S
C509 C500 1.390 . S
C509 H502 0.950 . S
C509 C506 1.387 . S
C510 C511 1.387 . S
C510 H514 0.950 . S
C510 C519 1.390 . S
C511 C510 1.387 . S
C511 C513 1.387 . S
H512 C519 0.950 . S
C513 C511 1.387 . S
C513 C515 1.390 . S
C513 H517 0.950 . S
H514 C510 0.950 . S
C515 C513 1.390 . S
C515 C516 1.387 . S
C515 H518 0.950 . S
C516 C515 1.387 . S
C516 C519 1.387 . S
H517 C513 0.950 . S
H518 C515 0.950 . S
C519 C510 1.390 . S
C519 H512 0.950 . S
C519 C516 1.387 . S
C520 C521 1.387 . S
C520 H524 0.950 . S
C520 C529 1.390 . S
C521 C520 1.387 . S
C521 C523 1.387 . S
H522 C529 0.950 . S
C523 C521 1.387 . S
C523 C525 1.390 . S
C523 H527 0.950 . S
H524 C520 0.950 . S
C525 C523 1.390 . S
C525 C526 1.387 . S
C525 H528 0.950 . S
C526 C525 1.387 . S
C526 C529 1.387 . S
H527 C523 0.950 . S
H528 C525 0.950 . S
C529 C520 1.390 . S
C529 H522 0.950 . S
C529 C526 1.387 . S
C530 C531 1.387 . S
C530 H534 0.950 . S
C530 C539 1.390 . S
C531 C530 1.387 . S
C531 C533 1.387 . S
H532 C539 0.950 . S
C533 C531 1.387 . S
C533 C535 1.390 . S
C533 H537 0.950 . S
H534 C530 0.950 . S
C535 C533 1.390 . S
C535 C536 1.387 . S
C535 H538 0.950 . S
C536 C535 1.387 . S
C536 C539 1.387 . S
H537 C533 0.950 . S
H538 C535 0.950 . S
C539 C530 1.390 . S
C539 H532 0.950 . S
C539 C536 1.387 . S
C540 C541 1.387 . S
C540 H544 0.950 . S
C540 C549 1.390 . S
C541 C540 1.387 . S
C541 C543 1.387 . S
H542 C549 0.950 . S
C543 C541 1.387 . S
C543 C545 1.390 . S
C543 H547 0.950 . S
H544 C540 0.950 . S
C545 C543 1.390 . S
C545 C546 1.387 1_455 S
C545 H548 0.950 1_455 S
C546 C545 1.387 1_655 S
C546 C549 1.387 1_655 S
H547 C543 0.950 . S
H548 C545 0.950 1_655 S
C549 C540 1.390 . S
C549 H542 0.950 . S
C549 C546 1.387 1_455 S
C550 C551 1.387 . S
C550 H554 0.950 . S
C550 C559 1.390 . S
C551 C550 1.387 . S
C551 C553 1.387 . S
H552 C559 0.950 . S
C553 C551 1.387 . S
C553 C555 1.390 . S
C553 H557 0.950 . S
H554 C550 0.950 . S
C555 C553 1.390 . S
C555 C556 1.387 . S
C555 H558 0.950 . S
C556 C555 1.387 . S
C556 C559 1.387 . S
H557 C553 0.950 . S
H558 C555 0.950 . S
C559 C550 1.390 . S
C559 H552 0.950 . S
C559 C556 1.387 . S
C560 C561 1.387 . S
C560 H564 0.950 . S
C560 C569 1.390 . S
C561 C560 1.387 . S
C561 C563 1.387 . S
H562 C569 0.950 . S
C563 C561 1.387 . S
C563 C565 1.390 . S
C563 H567 0.950 . S
H564 C560 0.950 . S
C565 C563 1.390 . S
C565 C566 1.387 . S
C565 H568 0.950 . S
C566 C565 1.387 . S
C566 C569 1.387 . S
H567 C563 0.950 . S
H568 C565 0.950 . S
C569 C560 1.390 . S
C569 H562 0.950 . S
C569 C566 1.387 . S
C570 C571 1.387 . S
C570 H574 0.950 . S
C570 C579 1.390 . S
C571 C570 1.387 . S
C571 C573 1.387 . S
H572 C579 0.950 . S
C573 C571 1.387 . S
C573 C575 1.390 . S
C573 H577 0.950 . S
H574 C570 0.950 . S
C575 C573 1.390 . S
C575 C576 1.387 . S
C575 H578 0.950 . S
C576 C575 1.387 . S
C576 C579 1.387 . S
H577 C573 0.950 . S
H578 C575 0.950 . S
C579 C570 1.390 . S
C579 H572 0.950 . S
C579 C576 1.387 . S
C580 C581 1.387 . S
C580 H584 0.950 . S
C580 C589 1.390 . S
C581 C580 1.387 . S
C581 C583 1.387 . S
H582 C589 0.950 . S
C583 C581 1.387 . S
C583 C585 1.390 . S
C583 H587 0.950 . S
H584 C580 0.950 . S
C585 C583 1.390 . S
C585 C586 1.387 . S
C585 H588 0.950 . S
C586 C585 1.387 . S
C586 C589 1.387 . S
H587 C583 0.950 . S
H588 C585 0.950 . S
C589 C580 1.390 . S
C589 H582 0.950 . S
C589 C586 1.387 . S
C590 C591 1.387 . S
C590 H594 0.950 . S
C590 C599 1.390 . S
C591 C590 1.387 . S
C591 C593 1.387 . S
H592 C599 0.952 . S
C593 C591 1.387 . S
C593 C595 1.390 . S
C593 H597 0.950 . S
H594 C590 0.950 . S
C595 C593 1.390 . S
C595 C596 1.387 1_655 S
C595 H598 0.950 1_655 S
C596 C595 1.387 1_455 S
C596 C599 1.387 1_455 S
H597 C593 0.950 . S
H598 C595 0.950 1_455 S
C599 C590 1.390 . S
C599 H592 0.952 . S
C599 C596 1.387 1_655 S
C241 C9 1.511 . S
C246 C229 1.515 . S
C251 C199 1.541 . S
C256 C29 1.650 . S
C261 C59 1.406 1_554 S
C266 C179 1.409 . S
C271 C69 1.920 . S
C276 C209 1.915 . S
C281 C89 1.644 . S
C286 C219 1.563 . S
C291 C119 1.364 . S
C296 C239 1.370 . S
C301 C189 1.750 . S
C306 C129 1.756 . S
C311 C159 1.545 . S
C316 C169 1.685 . S
C321 C79 1.657 . S
C326 C99 1.669 . S
C331 C19 1.587 . S
C336 C109 1.698 . S
C341 C39 1.456 . S
C346 C139 1.443 . S
C351 C149 1.803 . S
C356 C49 1.801 . S
C361 C2 1.656 . S
C366 C178 1.616 . S
C371 C22 1.566 . S
C376 C208 1.479 . S
C381 C228 1.602 . S
C386 C41 1.584 . S
C391 C62 1.458 . S
C396 C198 1.435 . S
C401 C82 1.396 . S
C406 C188 1.364 . S
C411 C168 1.408 . S
C416 C101 1.418 . S
C421 C218 1.330 . S
C426 C122 1.343 . S
C431 C238 2.107 . S
C436 C141 1.977 . S
C441 C18 1.738 . S
C446 C61 1.633 . S
C451 C1 1.645 . S
C456 C38 1.729 . S
C461 C21 1.468 . S
C466 C48 1.487 . S
C471 C78 1.410 . S
C476 C42 1.442 . S
C481 C102 1.414 . S
C486 C98 1.412 . S
C491 C108 1.632 . S
C496 C121 1.641 . S
C501 C138 1.554 . S
C506 C142 1.585 . S
C511 C81 1.298 . S
C516 C148 1.294 . S
C521 C162 0.943 . S
C526 C68 0.924 . S
C531 C118 1.466 . S
C536 C181 1.384 . S
C541 C161 1.390 . S
C546 C128 1.403 . S
C551 C202 1.574 . S
C556 C158 1.567 . S
C561 C88 1.211 . S
C566 C222 1.283 . S
C571 C221 1.530 . S
C576 C28 1.545 . S
C581 C58 1.493 . S
C586 C182 1.521 . S
C591 C201 1.551 . S
C596 C8 1.545 . S
