# Generated by pormake.
# Topology unl, (4)-cn, num edge types: 1
# Building blocks:
#     Node 0, Type 0, BuildingBlock: AZAVOO_clean_sbu_0, # of connection points: 4
#     Node 1, Type 0, BuildingBlock: AZAVOO_clean_sbu_0, # of connection points: 4
#     Node 2, Type 0, BuildingBlock: AZAVOO_clean_sbu_0, # of connection points: 4
#     Node 3, Type 0, BuildingBlock: AZAVOO_clean_sbu_0, # of connection points: 4
#     Node 4, Type 0, BuildingBlock: AZAVOO_clean_sbu_0, # of connection points: 4
#     Node 5, Type 0, BuildingBlock: AZAVOO_clean_sbu_0, # of connection points: 4
#     Node 6, Type 0, BuildingBlock: AZAVOO_clean_sbu_0, # of connection points: 4
#     Node 7, Type 0, BuildingBlock: AZAVOO_clean_sbu_0, # of connection points: 4
#     Node 8, Type 0, BuildingBlock: AZAVOO_clean_sbu_0, # of connection points: 4
#     Node 9, Type 0, BuildingBlock: AZAVOO_clean_sbu_0, # of connection points: 4
#     Node 10, Type 0, BuildingBlock: AZAVOO_clean_sbu_0, # of connection points: 4
#     Node 11, Type 0, BuildingBlock: AZAVOO_clean_sbu_0, # of connection points: 4
#     Node 12, Type 0, BuildingBlock: AZAVOO_clean_sbu_0, # of connection points: 4
#     Node 13, Type 0, BuildingBlock: AZAVOO_clean_sbu_0, # of connection points: 4
#     Node 14, Type 0, BuildingBlock: AZAVOO_clean_sbu_0, # of connection points: 4
#     Node 15, Type 0, BuildingBlock: AZAVOO_clean_sbu_0, # of connection points: 4
#     Node 16, Type 0, BuildingBlock: AZAVOO_clean_sbu_0, # of connection points: 4
#     Node 17, Type 0, BuildingBlock: AZAVOO_clean_sbu_0, # of connection points: 4
#     Node 18, Type 0, BuildingBlock: AZAVOO_clean_sbu_0, # of connection points: 4
#     Node 19, Type 0, BuildingBlock: AZAVOO_clean_sbu_0, # of connection points: 4
#     Node 20, Type 0, BuildingBlock: AZAVOO_clean_sbu_0, # of connection points: 4
#     Node 21, Type 0, BuildingBlock: AZAVOO_clean_sbu_0, # of connection points: 4
#     Node 22, Type 0, BuildingBlock: AZAVOO_clean_sbu_0, # of connection points: 4
#     Node 23, Type 0, BuildingBlock: AZAVOO_clean_sbu_0, # of connection points: 4
#     Node 24, Type 0, BuildingBlock: AZAVOO_clean_sbu_0, # of connection points: 4
#     Node 25, Type 0, BuildingBlock: AZAVOO_clean_sbu_0, # of connection points: 4
#     Node 26, Type 0, BuildingBlock: AZAVOO_clean_sbu_0, # of connection points: 4
#     Node 27, Type 0, BuildingBlock: AZAVOO_clean_sbu_0, # of connection points: 4
#     Node 28, Type 0, BuildingBlock: AZAVOO_clean_sbu_0, # of connection points: 4
#     Node 29, Type 0, BuildingBlock: AZAVOO_clean_sbu_0, # of connection points: 4
#     Node 30, Type 0, BuildingBlock: AZAVOO_clean_sbu_0, # of connection points: 4
#     Node 31, Type 0, BuildingBlock: AZAVOO_clean_sbu_0, # of connection points: 4
#     Node 32, Type 0, BuildingBlock: AZAVOO_clean_sbu_0, # of connection points: 4
#     Node 33, Type 0, BuildingBlock: AZAVOO_clean_sbu_0, # of connection points: 4
#     Node 34, Type 0, BuildingBlock: AZAVOO_clean_sbu_0, # of connection points: 4
#     Node 35, Type 0, BuildingBlock: AZAVOO_clean_sbu_0, # of connection points: 4
#     Edge 36, Type (0, 0), BuildingBlock: CIFDUS_clean_linker_0, # of connection points: 2
#     Edge 37, Type (0, 0), BuildingBlock: CIFDUS_clean_linker_0, # of connection points: 2
#     Edge 38, Type (0, 0), BuildingBlock: CIFDUS_clean_linker_0, # of connection points: 2
#     Edge 39, Type (0, 0), BuildingBlock: CIFDUS_clean_linker_0, # of connection points: 2
#     Edge 40, Type (0, 0), BuildingBlock: CIFDUS_clean_linker_0, # of connection points: 2
#     Edge 41, Type (0, 0), BuildingBlock: CIFDUS_clean_linker_0, # of connection points: 2
#     Edge 42, Type (0, 0), BuildingBlock: CIFDUS_clean_linker_0, # of connection points: 2
#     Edge 43, Type (0, 0), BuildingBlock: CIFDUS_clean_linker_0, # of connection points: 2
#     Edge 44, Type (0, 0), BuildingBlock: CIFDUS_clean_linker_0, # of connection points: 2
#     Edge 45, Type (0, 0), BuildingBlock: CIFDUS_clean_linker_0, # of connection points: 2
#     Edge 46, Type (0, 0), BuildingBlock: CIFDUS_clean_linker_0, # of connection points: 2
#     Edge 47, Type (0, 0), BuildingBlock: CIFDUS_clean_linker_0, # of connection points: 2
#     Edge 48, Type (0, 0), BuildingBlock: CIFDUS_clean_linker_0, # of connection points: 2
#     Edge 49, Type (0, 0), BuildingBlock: CIFDUS_clean_linker_0, # of connection points: 2
#     Edge 50, Type (0, 0), BuildingBlock: CIFDUS_clean_linker_0, # of connection points: 2
#     Edge 51, Type (0, 0), BuildingBlock: CIFDUS_clean_linker_0, # of connection points: 2
#     Edge 52, Type (0, 0), BuildingBlock: CIFDUS_clean_linker_0, # of connection points: 2
#     Edge 53, Type (0, 0), BuildingBlock: CIFDUS_clean_linker_0, # of connection points: 2
#     Edge 54, Type (0, 0), BuildingBlock: CIFDUS_clean_linker_0, # of connection points: 2
#     Edge 55, Type (0, 0), BuildingBlock: CIFDUS_clean_linker_0, # of connection points: 2
#     Edge 56, Type (0, 0), BuildingBlock: CIFDUS_clean_linker_0, # of connection points: 2
#     Edge 57, Type (0, 0), BuildingBlock: CIFDUS_clean_linker_0, # of connection points: 2
#     Edge 58, Type (0, 0), BuildingBlock: CIFDUS_clean_linker_0, # of connection points: 2
#     Edge 59, Type (0, 0), BuildingBlock: CIFDUS_clean_linker_0, # of connection points: 2
#     Edge 60, Type (0, 0), BuildingBlock: CIFDUS_clean_linker_0, # of connection points: 2
#     Edge 61, Type (0, 0), BuildingBlock: CIFDUS_clean_linker_0, # of connection points: 2
#     Edge 62, Type (0, 0), BuildingBlock: CIFDUS_clean_linker_0, # of connection points: 2
#     Edge 63, Type (0, 0), BuildingBlock: CIFDUS_clean_linker_0, # of connection points: 2
#     Edge 64, Type (0, 0), BuildingBlock: CIFDUS_clean_linker_0, # of connection points: 2
#     Edge 65, Type (0, 0), BuildingBlock: CIFDUS_clean_linker_0, # of connection points: 2
#     Edge 66, Type (0, 0), BuildingBlock: CIFDUS_clean_linker_0, # of connection points: 2
#     Edge 67, Type (0, 0), BuildingBlock: CIFDUS_clean_linker_0, # of connection points: 2
#     Edge 68, Type (0, 0), BuildingBlock: CIFDUS_clean_linker_0, # of connection points: 2
#     Edge 69, Type (0, 0), BuildingBlock: CIFDUS_clean_linker_0, # of connection points: 2
#     Edge 70, Type (0, 0), BuildingBlock: CIFDUS_clean_linker_0, # of connection points: 2
#     Edge 71, Type (0, 0), BuildingBlock: CIFDUS_clean_linker_0, # of connection points: 2
#     Edge 72, Type (0, 0), BuildingBlock: CIFDUS_clean_linker_0, # of connection points: 2
#     Edge 73, Type (0, 0), BuildingBlock: CIFDUS_clean_linker_0, # of connection points: 2
#     Edge 74, Type (0, 0), BuildingBlock: CIFDUS_clean_linker_0, # of connection points: 2
#     Edge 75, Type (0, 0), BuildingBlock: CIFDUS_clean_linker_0, # of connection points: 2
#     Edge 76, Type (0, 0), BuildingBlock: CIFDUS_clean_linker_0, # of connection points: 2
#     Edge 77, Type (0, 0), BuildingBlock: CIFDUS_clean_linker_0, # of connection points: 2
#     Edge 78, Type (0, 0), BuildingBlock: CIFDUS_clean_linker_0, # of connection points: 2
#     Edge 79, Type (0, 0), BuildingBlock: CIFDUS_clean_linker_0, # of connection points: 2
#     Edge 80, Type (0, 0), BuildingBlock: CIFDUS_clean_linker_0, # of connection points: 2
#     Edge 81, Type (0, 0), BuildingBlock: CIFDUS_clean_linker_0, # of connection points: 2
#     Edge 82, Type (0, 0), BuildingBlock: CIFDUS_clean_linker_0, # of connection points: 2
#     Edge 83, Type (0, 0), BuildingBlock: CIFDUS_clean_linker_0, # of connection points: 2
#     Edge 84, Type (0, 0), BuildingBlock: CIFDUS_clean_linker_0, # of connection points: 2
#     Edge 85, Type (0, 0), BuildingBlock: CIFDUS_clean_linker_0, # of connection points: 2
#     Edge 86, Type (0, 0), BuildingBlock: CIFDUS_clean_linker_0, # of connection points: 2
#     Edge 87, Type (0, 0), BuildingBlock: CIFDUS_clean_linker_0, # of connection points: 2
#     Edge 88, Type (0, 0), BuildingBlock: CIFDUS_clean_linker_0, # of connection points: 2
#     Edge 89, Type (0, 0), BuildingBlock: CIFDUS_clean_linker_0, # of connection points: 2
#     Edge 90, Type (0, 0), BuildingBlock: CIFDUS_clean_linker_0, # of connection points: 2
#     Edge 91, Type (0, 0), BuildingBlock: CIFDUS_clean_linker_0, # of connection points: 2
#     Edge 92, Type (0, 0), BuildingBlock: CIFDUS_clean_linker_0, # of connection points: 2
#     Edge 93, Type (0, 0), BuildingBlock: CIFDUS_clean_linker_0, # of connection points: 2
#     Edge 94, Type (0, 0), BuildingBlock: CIFDUS_clean_linker_0, # of connection points: 2
#     Edge 95, Type (0, 0), BuildingBlock: CIFDUS_clean_linker_0, # of connection points: 2
#     Edge 96, Type (0, 0), BuildingBlock: CIFDUS_clean_linker_0, # of connection points: 2
#     Edge 97, Type (0, 0), BuildingBlock: CIFDUS_clean_linker_0, # of connection points: 2
#     Edge 98, Type (0, 0), BuildingBlock: CIFDUS_clean_linker_0, # of connection points: 2
#     Edge 99, Type (0, 0), BuildingBlock: CIFDUS_clean_linker_0, # of connection points: 2
#     Edge 100, Type (0, 0), BuildingBlock: CIFDUS_clean_linker_0, # of connection points: 2
#     Edge 101, Type (0, 0), BuildingBlock: CIFDUS_clean_linker_0, # of connection points: 2
#     Edge 102, Type (0, 0), BuildingBlock: CIFDUS_clean_linker_0, # of connection points: 2
#     Edge 103, Type (0, 0), BuildingBlock: CIFDUS_clean_linker_0, # of connection points: 2
#     Edge 104, Type (0, 0), BuildingBlock: CIFDUS_clean_linker_0, # of connection points: 2
#     Edge 105, Type (0, 0), BuildingBlock: CIFDUS_clean_linker_0, # of connection points: 2
#     Edge 106, Type (0, 0), BuildingBlock: CIFDUS_clean_linker_0, # of connection points: 2
#     Edge 107, Type (0, 0), BuildingBlock: CIFDUS_clean_linker_0, # of connection points: 2
# Relax obj value: 0.205
# Max RMSD: 0.223
# Mean RMSD: 0.216
data_MOF--net-unl--node1-AZAVOO_clean_sbu_0--edge1-CIFDUS_clean_linker_0
_symmetry_space_group_name_H-M    P1
_symmetry_Int_Tables_number       1
_symmetry_cell_setting            triclinic
loop_
_symmetry_equiv_pos_as_xyz
'x, y, z'
_cell_length_a     56.712771
_cell_length_b     56.088707
_cell_length_c     32.941569
_cell_angle_alpha  90.70473
_cell_angle_beta   90.088345
_cell_angle_gamma 120.45449
loop_
_atom_site_label
_atom_site_type_symbol
_atom_site_fract_x
_atom_site_fract_y
_atom_site_fract_z
_atom_type_partial_charge
Mg0 Mg 0.19 0.10063 0.08615 0.0
O1 O 0.16548 0.1031 0.13867 0.0
O2 O 0.12152 0.08339 0.12126 0.0
Mg3 Mg 0.11823 0.06935 0.05503 0.0
C4 C 0.1409 0.09595 0.14709 0.0
C5 C 0.23385 0.13284 0.15365 0.0
O6 O 0.224 0.14945 0.14988 0.0
O7 O 0.17291 0.0544 0.09386 0.0
O8 O 0.13043 0.03724 0.06964 0.0
O9 O 0.19704 0.141 0.06258 0.0
O10 O 0.16196 0.10023 0.04483 0.0
C11 C 0.14967 0.03394 0.08326 0.0
C12 C 0.17452 0.12674 0.04203 0.0
O13 O 0.22452 0.11136 0.13099 0.0
Mg14 Mg 0.93952 0.11135 0.17397 0.0
O15 O 0.90299 0.07562 0.14104 0.0
O16 O 0.87132 0.04796 0.18532 0.0
Mg17 Mg 0.88624 0.06958 0.24715 0.0
C18 C 0.88018 0.05406 0.14911 0.0
C19 C 0.97559 0.13099 0.09602 0.0
O20 O 0.98725 0.11926 0.11537 0.0
O21 O 0.91493 0.13258 0.18024 0.0
O22 O 0.88167 0.10547 0.2229 0.0
O23 O 0.9559 0.08325 0.18275 0.0
O24 O 0.92901 0.08816 0.22665 0.0
C25 C 0.89315 0.12636 0.19966 0.0
C26 C 0.94102 0.07501 0.21502 0.0
O27 O 0.95561 0.13154 0.11247 0.0
Mg28 Mg 0.91093 0.81945 0.163 0.0
O29 O 0.93924 0.82114 0.11163 0.0
O30 O 0.96634 0.80648 0.13635 0.0
Mg31 Mg 0.95581 0.7955 0.20301 0.0
C32 C 0.95842 0.81568 0.10727 0.0
C33 C 0.8799 0.84534 0.12226 0.0
O34 O 0.89028 0.86131 0.15464 0.0
O35 O 0.88519 0.7723 0.15748 0.0
O36 O 0.91341 0.75981 0.18473 0.0
O37 O 0.94243 0.86239 0.1836 0.0
O38 O 0.94023 0.82415 0.20521 0.0
C39 C 0.8904 0.75375 0.169 0.0
C40 C 0.95291 0.85072 0.20481 0.0
O41 O 0.88426 0.82541 0.11691 0.0
Mg42 Mg 0.09028 0.20138 0.35353 0.0
O43 O 0.1118 0.1931 0.40549 0.0
O44 O 0.15295 0.202 0.38486 0.0
Mg45 Mg 0.15662 0.21381 0.3177 0.0
C46 C 0.1347 0.19462 0.41222 0.0
C47 C 0.03474 0.1821 0.39515 0.0
O48 O 0.02722 0.16496 0.36388 0.0
O49 O 0.11909 0.24776 0.36141 0.0
O50 O 0.15825 0.2546 0.33476 0.0
O51 O 0.07116 0.15762 0.33211 0.0
O52 O 0.11153 0.19138 0.3121 0.0
C53 C 0.14383 0.26383 0.35064 0.0
C54 C 0.09321 0.16545 0.31142 0.0
O55 O 0.05974 0.20089 0.39886 0.0
Mg56 Mg 0.81037 0.88238 0.31917 0.0
O57 O 0.81134 0.91631 0.36012 0.0
O58 O 0.8038 0.94459 0.32222 0.0
Mg59 Mg 0.79522 0.92684 0.25741 0.0
C60 C 0.80891 0.93762 0.35642 0.0
C61 C 0.82999 0.85384 0.37818 0.0
O62 O 0.84754 0.86094 0.34835 0.0
O63 O 0.76402 0.86058 0.3178 0.0
O64 O 0.75581 0.88851 0.28006 0.0
O65 O 0.8543 0.91048 0.3064 0.0
O66 O 0.82052 0.90801 0.26912 0.0
C67 C 0.74746 0.86672 0.30113 0.0
C68 C 0.84634 0.92002 0.27714 0.0
O69 O 0.81079 0.85921 0.37542 0.0
Mg70 Mg 0.11068 0.91455 0.42069 0.0
O71 O 0.08259 0.92065 0.37577 0.0
O72 O 0.06095 0.93952 0.40802 0.0
Mg73 Mg 0.08785 0.95988 0.46353 0.0
C74 C 0.06436 0.92776 0.37689 0.0
C75 C 0.11246 0.87417 0.35255 0.0
O76 O 0.0869 0.85724 0.3626 0.0
O77 O 0.14889 0.95773 0.41427 0.0
O78 O 0.12008 0.97184 0.41585 0.0
O79 O 0.07277 0.879 0.44613 0.0
O80 O 0.09087 0.92181 0.47002 0.0
C81 C 0.1438 0.97653 0.42439 0.0
C82 C 0.07144 0.89636 0.47096 0.0
O83 O 0.1257 0.89777 0.36995 0.0
Mg84 Mg 0.79751 0.91626 0.89312 0.0
O85 O 0.80635 0.88853 0.93341 0.0
O86 O 0.79557 0.84972 0.89918 0.0
Mg87 Mg 0.77837 0.85197 0.83744 0.0
C88 C 0.80485 0.86507 0.93092 0.0
C89 C 0.81947 0.96986 0.94208 0.0
O90 O 0.82761 0.9785 0.90503 0.0
O91 O 0.75137 0.8898 0.90414 0.0
O92 O 0.74217 0.85228 0.86725 0.0
O93 O 0.83915 0.93322 0.8655 0.0
O94 O 0.80124 0.89734 0.84126 0.0
C95 C 0.73445 0.86577 0.88968 0.0
C96 C 0.82731 0.91315 0.83921 0.0
O97 O 0.80474 0.94405 0.9479 0.0
Mg98 Mg 0.09261 0.8994 0.85298 0.0
O99 O 0.11976 0.92254 0.90788 0.0
O100 O 0.16279 0.94994 0.88779 0.0
Mg101 Mg 0.1629 0.94585 0.81842 0.0
C102 C 0.14486 0.93991 0.91571 0.0
C103 C 0.06491 0.8597 0.9262 0.0
O104 O 0.08955 0.86311 0.92885 0.0
O105 O 0.1116 0.87169 0.84976 0.0
O106 O 0.15301 0.90149 0.82577 0.0
O107 O 0.08464 0.93446 0.84378 0.0
O108 O 0.11912 0.93226 0.81666 0.0
C109 C 0.13515 0.87731 0.83717 0.0
C110 C 0.1072 0.94622 0.82357 0.0
O111 O 0.05936 0.8708 0.89709 0.0
Mg112 Mg 0.09487 0.19845 0.81325 0.0
O113 O 0.06625 0.18568 0.86685 0.0
O114 O 0.03291 0.19502 0.85818 0.0
Mg115 Mg 0.04065 0.21421 0.79453 0.0
C116 C 0.04504 0.18557 0.87957 0.0
C117 C 0.14435 0.20841 0.87334 0.0
O118 O 0.15578 0.23498 0.8663 0.0
O119 O 0.11399 0.24381 0.83181 0.0
O120 O 0.08047 0.25231 0.81666 0.0
O121 O 0.06733 0.15732 0.78289 0.0
O122 O 0.06458 0.19495 0.77473 0.0
C123 C 0.10477 0.26034 0.82912 0.0
C124 C 0.05521 0.16921 0.76661 0.0
O125 O 0.12249 0.19122 0.85468 0.0
Mg126 Mg 0.88555 0.80026 0.65723 0.0
O127 O 0.86061 0.80231 0.60373 0.0
O128 O 0.81842 0.78923 0.62499 0.0
Mg129 Mg 0.81612 0.77863 0.6923 0.0
C130 C 0.83645 0.79778 0.59719 0.0
C131 C 0.94128 0.82839 0.61575 0.0
O132 O 0.94415 0.84601 0.64467 0.0
O133 O 0.86298 0.75295 0.65282 0.0
O134 O 0.82203 0.74198 0.67749 0.0
O135 O 0.89764 0.8437 0.6756 0.0
O136 O 0.86061 0.80627 0.69706 0.0
C137 C 0.83877 0.73502 0.66375 0.0
C138 C 0.87503 0.83279 0.69558 0.0
O139 O 0.91884 0.80551 0.61295 0.0
Mg140 Mg 0.20754 0.12989 0.6753 0.0
O141 O 0.19464 0.09552 0.62806 0.0
O142 O 0.20118 0.06208 0.65127 0.0
Mg143 Mg 0.21857 0.0756 0.71581 0.0
C144 C 0.19356 0.07241 0.62343 0.0
C145 C 0.18149 0.15083 0.61294 0.0
O146 O 0.15981 0.13199 0.63202 0.0
O147 O 0.25257 0.14498 0.66154 0.0
O148 O 0.25736 0.11132 0.68873 0.0
O149 O 0.1653 0.10627 0.70171 0.0
O150 O 0.20013 0.10191 0.72135 0.0
C151 C 0.26718 0.13427 0.67025 0.0
C152 C 0.17446 0.09354 0.72334 0.0
O153 O 0.20503 0.15608 0.62473 0.0
Mg154 Mg 0.87042 0.07183 0.61766 0.0
O155 O 0.90129 0.09984 0.56977 0.0
O156 O 0.93029 0.14083 0.59836 0.0
Mg157 Mg 0.91837 0.13922 0.66487 0.0
C158 C 0.92188 0.12436 0.56774 0.0
C159 C 0.83983 0.01678 0.57026 0.0
O160 O 0.84628 0.00951 0.60441 0.0
O161 O 0.84743 0.09591 0.61405 0.0
O162 O 0.8784 0.13556 0.64438 0.0
O163 O 0.89945 0.05757 0.6364 0.0
O164 O 0.89932 0.09391 0.66289 0.0
C165 C 0.85525 0.12043 0.62705 0.0
C166 C 0.91074 0.07915 0.66004 0.0
O167 O 0.84533 0.04162 0.56666 0.0
Mg168 Mg 0.86428 0.43354 0.39906 0.0
O169 O 0.84364 0.4314 0.45921 0.0
O170 O 0.79834 0.40731 0.45095 0.0
Mg171 Mg 0.78965 0.39444 0.38414 0.0
C172 C 0.81955 0.42117 0.47326 0.0
C173 C 0.90742 0.43569 0.46235 0.0
O174 O 0.8872 0.41096 0.47131 0.0
O175 O 0.85312 0.38826 0.40147 0.0
O176 O 0.80814 0.36672 0.38896 0.0
O177 O 0.86359 0.47189 0.38298 0.0
O178 O 0.83029 0.42938 0.3682 0.0
C179 C 0.83009 0.36621 0.39525 0.0
C180 C 0.83942 0.45556 0.36799 0.0
O181 O 0.90439 0.44915 0.43402 0.0
Mg182 Mg 0.58629 0.43111 0.519 0.0
O183 O 0.55453 0.39675 0.47785 0.0
O184 O 0.52107 0.36432 0.51514 0.0
Mg185 Mg 0.53105 0.37938 0.58139 0.0
C186 C 0.5321 0.37382 0.48083 0.0
C187 C 0.62889 0.46535 0.45163 0.0
O188 O 0.64392 0.45865 0.4737 0.0
O189 O 0.55711 0.44726 0.52728 0.0
O190 O 0.52387 0.41511 0.56541 0.0
O191 O 0.60686 0.40636 0.52541 0.0
O192 O 0.57502 0.40384 0.567 0.0
C193 C 0.53442 0.43775 0.54593 0.0
C194 C 0.59061 0.39457 0.55561 0.0
O195 O 0.60458 0.45746 0.46268 0.0
Mg196 Mg 0.56306 0.14658 0.49436 0.0
O197 O 0.59295 0.15321 0.44321 0.0
O198 O 0.62146 0.13917 0.46362 0.0
Mg199 Mg 0.61046 0.1248 0.52941 0.0
C200 C 0.61291 0.14925 0.43667 0.0
C201 C 0.53387 0.17222 0.44368 0.0
O202 O 0.54908 0.19412 0.46665 0.0
O203 O 0.54075 0.1002 0.48284 0.0
O204 O 0.56931 0.08768 0.50834 0.0
O205 O 0.59156 0.18905 0.51998 0.0
O206 O 0.59238 0.15143 0.53662 0.0
C207 C 0.5465 0.08166 0.49186 0.0
C208 C 0.60305 0.17781 0.53989 0.0
O209 O 0.53514 0.15047 0.44858 0.0
Mg210 Mg 0.76905 0.51836 0.68967 0.0
O211 O 0.79735 0.51758 0.73939 0.0
O212 O 0.83703 0.52893 0.70955 0.0
Mg213 Mg 0.8342 0.53601 0.64204 0.0
C214 C 0.82185 0.52212 0.74089 0.0
C215 C 0.71377 0.50035 0.72535 0.0
O216 O 0.70894 0.48835 0.68935 0.0
O217 O 0.79307 0.56556 0.68942 0.0
O218 O 0.83126 0.57455 0.65692 0.0
O219 O 0.75341 0.47392 0.67433 0.0
O220 O 0.78969 0.50896 0.64643 0.0
C221 C 0.81616 0.58256 0.67388 0.0
C222 C 0.77401 0.48264 0.6501 0.0
O223 O 0.73849 0.51632 0.73641 0.0
Mg224 Mg 0.48738 0.20186 0.65025 0.0
O225 O 0.49224 0.23736 0.69093 0.0
O226 O 0.48843 0.26866 0.65478 0.0
Mg227 Mg 0.47759 0.25074 0.59002 0.0
C228 C 0.49257 0.26021 0.68839 0.0
C229 C 0.50478 0.17452 0.71713 0.0
O230 O 0.52561 0.18321 0.69238 0.0
O231 O 0.4413 0.18406 0.65008 0.0
O232 O 0.43692 0.2151 0.61391 0.0
O233 O 0.53181 0.22756 0.63645 0.0
O234 O 0.49896 0.22758 0.60003 0.0
C235 C 0.42657 0.19294 0.63454 0.0
C236 C 0.52463 0.23815 0.60766 0.0
O237 O 0.48519 0.17833 0.70776 0.0
Mg238 Mg 0.75439 0.21015 0.77216 0.0
O239 O 0.73002 0.21326 0.71944 0.0
O240 O 0.71325 0.24018 0.73714 0.0
Mg241 Mg 0.72611 0.25377 0.80313 0.0
C242 C 0.71631 0.22492 0.71121 0.0
C243 C 0.75628 0.16637 0.71509 0.0
O244 O 0.73062 0.15235 0.72648 0.0
O245 O 0.79045 0.25431 0.76379 0.0
O246 O 0.77141 0.27808 0.78775 0.0
O247 O 0.71613 0.17451 0.79833 0.0
O248 O 0.73196 0.21843 0.81356 0.0
C249 C 0.79205 0.27712 0.7744 0.0
C250 C 0.71371 0.19304 0.81868 0.0
O251 O 0.77153 0.19095 0.72854 0.0
Mg252 Mg 0.44441 0.24716 0.21553 0.0
O253 O 0.45705 0.22638 0.26257 0.0
O254 O 0.44164 0.1823 0.24618 0.0
Mg255 Mg 0.41751 0.17437 0.18673 0.0
C256 C 0.4549 0.20314 0.26986 0.0
C257 C 0.48302 0.30252 0.26195 0.0
O258 O 0.49913 0.30501 0.23167 0.0
O259 O 0.40033 0.22562 0.23888 0.0
O260 O 0.38624 0.18245 0.21732 0.0
O261 O 0.48111 0.25535 0.17765 0.0
O262 O 0.43997 0.21855 0.17132 0.0
C263 C 0.38163 0.20022 0.23445 0.0
C264 C 0.46496 0.23173 0.16015 0.0
O265 O 0.45867 0.28214 0.26204 0.0
Mg266 Mg 0.75588 0.21406 0.17938 0.0
O267 O 0.78711 0.2462 0.22421 0.0
O268 O 0.82668 0.27243 0.19242 0.0
Mg269 Mg 0.8204 0.25789 0.12593 0.0
C270 C 0.8121 0.26568 0.22439 0.0
C271 C 0.70719 0.19212 0.23965 0.0
O272 O 0.70035 0.20539 0.214 0.0
O273 O 0.77883 0.19021 0.18419 0.0
O274 O 0.81645 0.21822 0.14943 0.0
O275 O 0.74264 0.24419 0.16058 0.0
O276 O 0.77625 0.24119 0.13214 0.0
C277 C 0.80207 0.19627 0.16959 0.0
C278 C 0.76287 0.25399 0.1356 0.0
O279 O 0.72868 0.19096 0.23308 0.0
Mg280 Mg 0.74416 0.53776 0.16809 0.0
O281 O 0.72149 0.53154 0.22776 0.0
O282 O 0.68878 0.54221 0.22193 0.0
Mg283 Mg 0.69131 0.5564 0.15599 0.0
C284 C 0.70195 0.53367 0.24282 0.0
C285 C 0.76719 0.51277 0.22548 0.0
O286 O 0.74074 0.4951 0.22477 0.0
O287 O 0.76658 0.58422 0.17739 0.0
O288 O 0.73415 0.59491 0.16631 0.0
O289 O 0.71397 0.49472 0.14798 0.0
O290 O 0.70944 0.53112 0.13705 0.0
C291 C 0.75902 0.602 0.17377 0.0
C292 C 0.69933 0.50473 0.13467 0.0
O293 O 0.77669 0.53386 0.20299 0.0
Mg294 Mg 0.53438 0.11591 0.01107 0.0
O295 O 0.51472 0.12149 0.95399 0.0
O296 O 0.4725 0.11222 0.96844 0.0
Mg297 Mg 0.4658 0.10152 0.03619 0.0
C298 C 0.49206 0.11934 0.94339 0.0
C299 C 0.59053 0.13592 0.97487 0.0
O300 O 0.59546 0.15451 0.00336 0.0
O301 O 0.50775 0.06956 0.00598 0.0
O302 O 0.46649 0.06099 0.02539 0.0
O303 O 0.55131 0.16021 0.02818 0.0
O304 O 0.51066 0.12618 0.0468 0.0
C305 C 0.48277 0.05269 0.01425 0.0
C306 C 0.52827 0.15233 0.04603 0.0
O307 O 0.56652 0.11532 0.97105 0.0
Mg308 Mg 0.88085 0.44234 0.98987 0.0
O309 O 0.87324 0.41294 0.93649 0.0
O310 O 0.88578 0.38242 0.95253 0.0
Mg311 Mg 0.90139 0.39227 0.01844 0.0
C312 C 0.87627 0.39253 0.92718 0.0
C313 C 0.85055 0.46891 0.948 0.0
O314 O 0.83312 0.45493 0.97677 0.0
O315 O 0.92704 0.46515 0.97682 0.0
O316 O 0.93692 0.43344 0.99801 0.0
O317 O 0.83945 0.41176 0.01581 0.0
O318 O 0.87799 0.41302 0.03044 0.0
C319 C 0.94425 0.45727 0.98384 0.0
C320 C 0.852 0.40128 0.03479 0.0
O321 O 0.87301 0.46901 0.94637 0.0
Mg322 Mg 0.54529 0.41861 0.92782 0.0
O323 O 0.58506 0.44875 0.89533 0.0
O324 O 0.61047 0.48549 0.93537 0.0
Mg325 Mg 0.58528 0.48046 0.99195 0.0
C326 C 0.60691 0.47182 0.90244 0.0
C327 C 0.52477 0.36887 0.86957 0.0
O328 O 0.52751 0.35903 0.90413 0.0
O329 O 0.52631 0.44523 0.91322 0.0
O330 O 0.55226 0.48165 0.95382 0.0
O331 O 0.56821 0.40113 0.95962 0.0
O332 O 0.56344 0.43529 0.98386 0.0
C333 C 0.53296 0.46909 0.92777 0.0
C334 C 0.57415 0.41999 0.98725 0.0
O335 O 0.52978 0.39365 0.86879 0.0
Mg336 Mg 0.53818 0.77107 0.74582 0.0
O337 O 0.51147 0.76703 0.80027 0.0
O338 O 0.46809 0.74749 0.77908 0.0
Mg339 Mg 0.46717 0.74119 0.71034 0.0
C340 C 0.48616 0.7577 0.80725 0.0
C341 C 0.58274 0.7979 0.81495 0.0
O342 O 0.57244 0.81417 0.81834 0.0
O343 O 0.52212 0.72463 0.74268 0.0
O344 O 0.48046 0.70916 0.71613 0.0
O345 O 0.54475 0.81315 0.7314 0.0
O346 O 0.51056 0.77362 0.70768 0.0
C347 C 0.49958 0.70511 0.728 0.0
C348 C 0.52247 0.8001 0.70999 0.0
O349 O 0.57287 0.77848 0.78847 0.0
Mg350 Mg 0.25728 0.77463 0.81263 0.0
O351 O 0.22336 0.73816 0.77695 0.0
O352 O 0.18919 0.71105 0.81819 0.0
Mg353 Mg 0.20092 0.73207 0.88105 0.0
C354 C 0.20005 0.71677 0.78308 0.0
C355 C 0.3008 0.79995 0.74465 0.0
O356 O 0.31406 0.79408 0.77174 0.0
O357 O 0.23134 0.79479 0.81319 0.0
O358 O 0.1976 0.76839 0.85573 0.0
O359 O 0.27515 0.74844 0.82863 0.0
O360 O 0.24471 0.75227 0.86577 0.0
C361 C 0.20938 0.78895 0.8319 0.0
C362 C 0.25903 0.74068 0.85961 0.0
O363 O 0.27675 0.79476 0.75262 0.0
Mg364 Mg 0.23612 0.48053 0.82879 0.0
O365 O 0.26359 0.48392 0.77592 0.0
O366 O 0.29572 0.47496 0.79677 0.0
Mg367 Mg 0.28965 0.46735 0.86529 0.0
C368 C 0.2841 0.481 0.7688 0.0
C369 C 0.20194 0.49939 0.77688 0.0
O370 O 0.21528 0.52146 0.80033 0.0
O371 O 0.21636 0.43368 0.8274 0.0
O372 O 0.24922 0.42706 0.85274 0.0
O373 O 0.2637 0.52533 0.84573 0.0
O374 O 0.26827 0.49105 0.8689 0.0
C375 C 0.22496 0.41776 0.83909 0.0
C376 C 0.27736 0.51719 0.86724 0.0
O377 O 0.20533 0.47892 0.78232 0.0
Mg378 Mg 0.41196 0.83411 0.02147 0.0
O379 O 0.43925 0.83316 0.07256 0.0
O380 O 0.48042 0.84672 0.04634 0.0
Mg381 Mg 0.47949 0.8555 0.97893 0.0
C382 C 0.46395 0.83859 0.07623 0.0
C383 C 0.35563 0.81173 0.06182 0.0
O384 O 0.34926 0.7956 0.0295 0.0
O385 O 0.43452 0.88132 0.0248 0.0
O386 O 0.47425 0.89232 0.99554 0.0
O387 O 0.39871 0.79037 0.00261 0.0
O388 O 0.43506 0.82752 0.97911 0.0
C389 C 0.45808 0.89924 0.0117 0.0
C390 C 0.42034 0.80102 0.98025 0.0
O391 O 0.38045 0.83044 0.06766 0.0
Mg392 Mg 0.17004 0.55325 0.98651 0.0
O393 O 0.17243 0.58534 0.03212 0.0
O394 O 0.16331 0.61525 0.00218 0.0
Mg395 Mg 0.15541 0.60204 0.93496 0.0
C396 C 0.1694 0.60635 0.03366 0.0
C397 C 0.19225 0.53294 0.05642 0.0
O398 O 0.2152 0.55097 0.03907 0.0
O399 O 0.12362 0.53248 0.98639 0.0
O400 O 0.116 0.56255 0.95323 0.0
O401 O 0.21418 0.58158 0.97155 0.0
O402 O 0.17951 0.5812 0.93994 0.0
C403 C 0.10734 0.53966 0.97153 0.0
C404 C 0.20547 0.59237 0.94529 0.0
O405 O 0.16969 0.52804 0.04078 0.0
Mg406 Mg 0.45952 0.5887 0.06251 0.0
O407 O 0.42538 0.58384 0.01879 0.0
O408 O 0.39816 0.59709 0.04838 0.0
Mg409 Mg 0.42353 0.62305 0.10267 0.0
C410 C 0.40395 0.58601 0.0188 0.0
C411 C 0.46399 0.55178 0.9927 0.0
O412 O 0.43775 0.53566 0.99959 0.0
O413 O 0.48962 0.63404 0.04752 0.0
O414 O 0.45587 0.64077 0.05441 0.0
O415 O 0.42829 0.55072 0.09354 0.0
O416 O 0.43776 0.59271 0.11248 0.0
C417 C 0.4804 0.64833 0.0634 0.0
C418 C 0.4234 0.56632 0.11717 0.0
O419 O 0.47742 0.57426 0.01289 0.0
Mg420 Mg 0.12362 0.57466 0.53254 0.0
O421 O 0.13328 0.55314 0.58268 0.0
O422 O 0.12462 0.51154 0.56187 0.0
Mg423 Mg 0.10841 0.50624 0.49646 0.0
C424 C 0.13284 0.53056 0.58904 0.0
C425 C 0.1472 0.63155 0.57482 0.0
O426 O 0.16006 0.63821 0.53997 0.0
O427 O 0.07747 0.54746 0.54239 0.0
O428 O 0.07025 0.50699 0.51728 0.0
O429 O 0.16574 0.59062 0.50727 0.0
O430 O 0.12909 0.5514 0.48822 0.0
C431 C 0.06145 0.522 0.53277 0.0
C432 C 0.15493 0.56825 0.48519 0.0
O433 O 0.12883 0.60654 0.58044 0.0
Mg434 Mg 0.41557 0.53861 0.50574 0.0
O435 O 0.43663 0.56856 0.55875 0.0
O436 O 0.47783 0.60255 0.54025 0.0
Mg437 Mg 0.48177 0.59596 0.4722 0.0
C438 C 0.45934 0.5904 0.56694 0.0
C439 C 0.3646 0.5092 0.56031 0.0
O440 O 0.35804 0.52375 0.53687 0.0
O441 O 0.44527 0.52231 0.51282 0.0
O442 O 0.48362 0.55758 0.48796 0.0
O443 O 0.39672 0.56377 0.48632 0.0
O444 O 0.43688 0.57119 0.46568 0.0
C445 C 0.47036 0.5333 0.50248 0.0
C446 C 0.41915 0.57904 0.46698 0.0
O447 O 0.38634 0.5087 0.55282 0.0
Mg448 Mg 0.43168 0.85277 0.47452 0.0
O449 O 0.40432 0.84738 0.52824 0.0
O450 O 0.37403 0.86013 0.51286 0.0
Mg451 Mg 0.38259 0.87395 0.44632 0.0
C452 C 0.38448 0.85081 0.53794 0.0
C453 C 0.48387 0.86462 0.52868 0.0
O454 O 0.49782 0.88743 0.50797 0.0
O455 O 0.45453 0.89921 0.48478 0.0
O456 O 0.42459 0.91137 0.46421 0.0
O457 O 0.40182 0.8099 0.4529 0.0
O458 O 0.40042 0.84723 0.4356 0.0
C459 C 0.4482 0.91759 0.47776 0.0
C460 C 0.38916 0.82067 0.43501 0.0
O461 O 0.459 0.84772 0.51958 0.0
Mg462 Mg 0.26755 0.49424 0.34426 0.0
O463 O 0.24765 0.49819 0.28649 0.0
O464 O 0.20353 0.48366 0.29644 0.0
Mg465 Mg 0.1952 0.47099 0.36337 0.0
C466 C 0.22446 0.49351 0.27354 0.0
C467 C 0.32566 0.52603 0.30944 0.0
O468 O 0.32681 0.54255 0.33895 0.0
O469 O 0.24582 0.44684 0.33513 0.0
O470 O 0.20326 0.43571 0.35165 0.0
O471 O 0.27724 0.53677 0.36514 0.0
O472 O 0.23881 0.49818 0.37855 0.0
C473 C 0.22076 0.4288 0.34184 0.0
C474 C 0.25301 0.52474 0.38045 0.0
O475 O 0.30414 0.50243 0.3053 0.0
Mg476 Mg 0.52248 0.77291 0.34263 0.0
O477 O 0.51259 0.74156 0.29187 0.0
O478 O 0.52512 0.71097 0.30749 0.0
Mg479 Mg 0.54357 0.72341 0.37185 0.0
C480 C 0.5146 0.72052 0.28295 0.0
C481 C 0.48946 0.79378 0.29345 0.0
O482 O 0.4707 0.77756 0.31929 0.0
O483 O 0.56812 0.79481 0.32563 0.0
O484 O 0.57853 0.76345 0.34663 0.0
O485 O 0.48197 0.74308 0.37129 0.0
O486 O 0.52105 0.74506 0.38489 0.0
C487 C 0.58541 0.78682 0.33111 0.0
C488 C 0.49512 0.73316 0.39004 0.0
O489 O 0.51348 0.79756 0.29677 0.0
Mg490 Mg 0.20446 0.74946 0.28883 0.0
O491 O 0.23992 0.77763 0.24759 0.0
O492 O 0.26753 0.81789 0.27888 0.0
Mg493 Mg 0.24764 0.81657 0.33978 0.0
C494 C 0.26146 0.80149 0.24841 0.0
C495 C 0.18861 0.70029 0.22945 0.0
O496 O 0.20099 0.69492 0.2586 0.0
O497 O 0.18198 0.77298 0.27594 0.0
O498 O 0.20987 0.81288 0.30842 0.0
O499 O 0.23213 0.73647 0.3174 0.0
O500 O 0.22758 0.77111 0.34001 0.0
C501 C 0.18838 0.79743 0.28731 0.0
C502 C 0.23992 0.75726 0.34217 0.0
O503 O 0.18524 0.72092 0.23359 0.0
H504 H 0.18981 0.02532 0.05709 0.0
H505 H 0.10395 0.98264 0.08571 0.0
H506 H 0.09594 0.94439 0.04046 0.0
H507 H 0.11106 0.93043 0.97978 0.0
H508 H 0.19605 0.97662 0.94539 0.0
H509 H 0.20672 0.00583 0.00593 0.0
C510 C 0.16958 0.00705 0.05495 0.0
C511 C 0.14738 0.00702 0.07399 0.0
C512 C 0.16482 0.98618 0.02655 0.0
C513 C 0.1213 0.98321 0.07098 0.0
C514 C 0.11666 0.96154 0.04461 0.0
C515 C 0.13207 0.9464 0.986 0.0
C516 C 0.15254 0.95194 0.95729 0.0
C517 C 0.13788 0.96391 0.01998 0.0
C518 C 0.17973 0.97233 0.96641 0.0
C519 C 0.18587 0.9891 0.00106 0.0
H520 H 0.01783 0.13344 0.05403 0.0
H521 H 0.95491 0.15494 0.04612 0.0
H522 H 0.97055 0.17358 0.9784 0.0
H523 H 0.00219 0.18367 0.92113 0.0
H524 H 0.06502 0.16194 0.93048 0.0
H525 H 0.04923 0.14355 0.99768 0.0
C526 C 0.00751 0.14221 0.03759 0.0
C527 C 0.98523 0.14276 0.05522 0.0
C528 C 0.01657 0.15286 0.99873 0.0
C529 C 0.97215 0.15426 0.03335 0.0
C530 C 0.98106 0.16491 0.99456 0.0
C531 C 0.01239 0.17488 0.93783 0.0
C532 C 0.03476 0.17424 0.92048 0.0
C533 C 0.00325 0.16429 0.97687 0.0
C534 C 0.04775 0.16279 0.9428 0.0
C535 C 0.03876 0.15222 0.98139 0.0
H536 H 0.825 0.89123 0.00391 0.0
H537 H 0.8094 0.81881 0.93432 0.0
H538 H 0.83034 0.80586 0.98783 0.0
H539 H 0.85496 0.8161 0.05301 0.0
H540 H 0.87054 0.88852 0.12247 0.0
H541 H 0.84767 0.90031 0.07042 0.0
C542 C 0.826 0.87251 1.00047 0.0
C543 C 0.81572 0.85615 0.9649 0.0
C544 C 0.8382 0.86519 0.0313 0.0
C545 C 0.81714 0.83188 0.96124 0.0
C546 C 0.82919 0.82445 0.99183 0.0
C547 C 0.85325 0.83439 0.05688 0.0
C548 C 0.86463 0.85146 0.09154 0.0
C549 C 0.84009 0.84112 0.02676 0.0
C550 C 0.86207 0.87502 0.09609 0.0
C551 C 0.849 0.88182 0.06629 0.0
H552 H 0.97011 0.17197 0.55532 0.0
H553 H 0.90988 0.0966 0.49466 0.0
H554 H 0.93865 0.1091 0.43457 0.0
H555 H 0.98232 0.13959 0.4013 0.0
H556 H 0.04316 0.21405 0.46307 0.0
H557 H 0.01252 0.20377 0.52055 0.0
C558 C 0.96305 0.15837 0.52884 0.0
C559 C 0.93789 0.13327 0.52974 0.0
C560 C 0.97988 0.16544 0.49462 0.0
C561 C 0.92919 0.11598 0.49501 0.0
C562 C 0.94565 0.12309 0.4606 0.0
C563 C 0.9888 0.15376 0.42712 0.0
C564 C 0.0151 0.17746 0.42795 0.0
C565 C 0.97126 0.14749 0.46038 0.0
C566 C 0.0231 0.19558 0.46168 0.0
C567 C 0.0056 0.1897 0.49462 0.0
H568 H 0.79597 0.83353 0.44317 0.0
H569 H 0.8727 0.84648 0.39677 0.0
H570 H 0.88081 0.82902 0.45947 0.0
H571 H 0.86732 0.81221 0.5287 0.0
H572 H 0.79046 0.79891 0.57521 0.0
H573 H 0.78119 0.8141 0.51118 0.0
C574 C 0.8144 0.83239 0.44668 0.0
C575 C 0.83377 0.84151 0.41537 0.0
C576 C 0.81897 0.82228 0.48289 0.0
C577 C 0.85744 0.83969 0.42036 0.0
C578 C 0.86215 0.82973 0.45627 0.0
C579 C 0.84843 0.81243 0.52481 0.0
C580 C 0.82974 0.80457 0.55696 0.0
C581 C 0.84322 0.82128 0.48793 0.0
C582 C 0.80528 0.80484 0.5511 0.0
C583 C 0.79997 0.81362 0.51448 0.0
H584 H 0.13818 0.01815 0.45513 0.0
H585 H 0.18081 0.97374 0.47531 0.0
H586 H 0.19979 -0.00064 0.53892 0.0
H587 H 0.20275 0.03311 0.59029 0.0
H588 H 0.16099 0.07824 0.56862 0.0
H589 H 0.1431 0.05347 0.5043 0.0
C590 C 0.15176 0.01419 0.47334 0.0
C591 C 0.1578 0.99388 0.46067 0.0
C592 C 0.16257 0.02894 0.50983 0.0
C593 C 0.17571 0.98921 0.48434 0.0
C594 C 0.18649 0.00376 0.52086 0.0
C595 C 0.18968 0.03744 0.57151 0.0
C596 C 0.18303 0.0573 0.58441 0.0
C597 C 0.17973 0.02339 0.53419 0.0
C598 C 0.16641 0.06303 0.55945 0.0
C599 C 0.15615 0.04888 0.52264 0.0
H600 H 0.88389 0.0663 0.06935 0.0
H601 H 0.84051 -0.00058 0.15297 0.0
H602 H 0.81643 0.96764 0.0962 0.0
H603 H 0.80977 0.95844 0.02258 0.0
H604 H 0.85345 0.02571 0.93951 0.0
H605 H 0.87514 0.05779 0.99645 0.0
C606 C 0.86909 0.04478 0.0752 0.0
C607 C 0.86414 0.03519 0.11526 0.0
C608 C 0.85537 0.0267 0.04254 0.0
C609 C 0.84464 0.00734 0.12238 0.0
C610 C 0.83094 0.98915 0.08994 0.0
C611 C 0.82381 0.98017 0.01693 0.0
C612 C 0.83013 0.98959 0.9768 0.0
C613 C 0.8364 -0.00146 0.04985 0.0
C614 C 0.8483 0.01784 0.97005 0.0
C615 C 0.86079 0.03622 0.00259 0.0
H616 H 0.00114 0.80859 0.08789 0.0
H617 H 0.94914 0.83687 0.03842 0.0
H618 H 0.9762 0.85089 0.97649 0.0
H619 H 0.01662 0.85825 0.93849 0.0
H620 H 0.06916 0.83109 0.98929 0.0
H621 H 0.0397 0.81334 0.04839 0.0
C622 C 0.9955 0.81759 0.0635 0.0
C623 C 0.9732 0.82183 0.06812 0.0
C624 C 0.01133 0.82594 0.02817 0.0
C625 C 0.96624 0.83344 0.03592 0.0
C626 C 0.98175 0.84153 1.00045 0.0
C627 C 0.02145 0.84813 0.96223 0.0
C628 C 0.0452 0.84618 0.95952 0.0
C629 C 0.00463 0.83833 0.99655 0.0
C630 C 0.05112 0.83304 0.99064 0.0
C631 C 0.0343 0.8229 0.02453 0.0
H632 H 0.11648 0.15925 0.9101 0.0
H633 H 0.19465 0.23505 0.91146 0.0
H634 H 0.21044 0.21729 0.96651 0.0
H635 H 0.20223 0.17912 0.01232 0.0
H636 H 0.1236 0.10375 0.00861 0.0
H637 H 0.10767 0.12274 0.95689 0.0
C638 C 0.13707 0.17193 0.92218 0.0
C639 C 0.15453 0.19826 0.90631 0.0
C640 C 0.14582 0.16175 0.95373 0.0
C641 C 0.1809 0.2146 0.92299 0.0
C642 C 0.18989 0.20448 0.95449 0.0
C643 C 0.1815 0.16704 1.00056 0.0
C644 C 0.16416 0.13998 0.01439 0.0
C645 C 0.17253 0.17796 0.96994 0.0
C646 C 0.13743 0.12453 0.99863 0.0
C647 C 0.12829 0.13534 0.96882 0.0
H648 H 0.98664 0.87856 0.60728 0.0
H649 H 0.94524 0.79579 0.55637 0.0
H650 H 0.98169 0.80953 0.5064 0.0
H651 H 0.0256 0.84528 0.47752 0.0
H652 H 0.06584 0.92799 0.5289 0.0
H653 H 0.0294 0.91401 0.57811 0.0
C654 C 0.98556 0.86342 0.58539 0.0
C655 C 0.96332 0.83614 0.58574 0.0
C656 C 0.00633 0.87151 0.55665 0.0
C657 C 0.96219 0.81692 0.55684 0.0
C658 C 0.983 0.82478 0.52824 0.0
C659 C 0.02632 0.86024 0.4994 0.0
C660 C 0.04844 0.88765 0.49943 0.0
C661 C 0.0052 0.85205 0.52786 0.0
C662 C 0.04905 0.9068 0.52798 0.0
C663 C 0.02824 0.89881 0.55631 0.0
H664 H 0.18297 0.20265 0.44321 0.0
H665 H 0.09772 0.16878 0.47253 0.0
H666 H 0.10509 0.15357 0.5378 0.0
H667 H 0.13506 0.14798 0.58535 0.0
H668 H 0.2204 0.18209 0.55704 0.0
H669 H 0.21366 0.1993 0.49281 0.0
C670 C 0.16601 0.19201 0.46391 0.0
C671 C 0.13978 0.18672 0.4527 0.0
C672 C 0.17037 0.18335 0.50163 0.0
C673 C 0.11813 0.17314 0.48018 0.0
C674 C 0.12229 0.16437 0.51758 0.0
C675 C 0.15226 0.15933 0.56528 0.0
C676 C 0.17815 0.16357 0.5759 0.0
C677 C 0.14823 0.1691 0.52842 0.0
C678 C 0.20024 0.17853 0.54965 0.0
C679 C 0.19638 0.18829 0.51282 0.0
H680 H 0.83137 0.02725 0.49254 0.0
H681 H 0.82691 0.96287 0.56839 0.0
H682 H 0.8162 0.9325 0.50917 0.0
H683 H 0.81071 0.92507 0.43551 0.0
H684 H 0.81522 0.98935 0.35933 0.0
H685 H 0.82326 0.0188 0.41903 0.0
C686 C 0.82774 0.00647 0.49621 0.0
C687 C 0.83012 0.99746 0.53489 0.0
C688 C 0.82183 0.98913 0.4619 0.0
C689 C 0.82533 0.97043 0.53901 0.0
C690 C 0.81928 0.95304 0.50511 0.0
C691 C 0.81339 0.9455 0.43189 0.0
C692 C 0.81257 0.95501 0.39287 0.0
C693 C 0.81796 0.96234 0.46634 0.0
C694 C 0.81579 0.98145 0.38893 0.0
C695 C 0.82042 0.99835 0.42309 0.0
H696 H 0.78721 0.25904 0.29747 0.0
H697 H 0.86363 0.31015 0.23608 0.0
H698 H 0.87968 0.34309 0.29275 0.0
H699 H 0.86788 0.36202 0.35145 0.0
H700 H 0.78968 0.3132 0.40875 0.0
H701 H 0.77901 0.27423 0.36325 0.0
C702 C 0.8076 0.27709 0.29676 0.0
C703 C 0.82382 0.2825 0.26196 0.0
C704 C 0.81645 0.29639 0.32897 0.0
C705 C 0.85041 0.30573 0.26204 0.0
C706 C 0.85967 0.32461 0.29452 0.0
C707 C 0.84907 0.34241 0.35523 0.0
C708 C 0.82942 0.34054 0.38296 0.0
C709 C 0.84231 0.32084 0.32712 0.0
C710 C 0.80505 0.31509 0.38743 0.0
C711 C 0.79877 0.29298 0.36098 0.0
H712 H 0.67852 0.48239 0.4177 0.0
H713 H 0.60326 0.4826 0.39916 0.0
H714 H 0.61994 0.50552 0.33421 0.0
H715 H 0.65495 0.52332 0.28095 0.0
H716 H 0.72963 0.52184 0.2993 0.0
H717 H 0.71414 0.50181 0.36599 0.0
C718 C 0.66579 0.48758 0.39962 0.0
C719 C 0.63961 0.48063 0.41329 0.0
C720 C 0.67539 0.50053 0.36212 0.0
C721 C 0.62346 0.48759 0.38938 0.0
C722 C 0.63298 0.50071 0.35218 0.0
C723 C 0.66799 0.51894 0.29972 0.0
C724 C 0.69339 0.52405 0.28491 0.0
C725 C 0.65879 0.50699 0.338 0.0
C726 C 0.70992 0.51805 0.30969 0.0
C727 C 0.70108 0.50654 0.34791 0.0
H728 H 0.52694 0.2153 0.42381 0.0
H729 H 0.50116 0.13085 0.39017 0.0
H730 H 0.47367 0.13257 0.33456 0.0
H731 H 0.45819 0.15848 0.29386 0.0
H732 H 0.48429 0.24309 0.32727 0.0
H733 H 0.51022 0.24072 0.3845 0.0
C734 C 0.51523 0.19723 0.40444 0.0
C735 C 0.51626 0.17306 0.41112 0.0
C736 C 0.49951 0.19835 0.37232 0.0
C737 C 0.50085 0.1498 0.38573 0.0
C738 C 0.4851 0.15074 0.35384 0.0
C739 C 0.4694 0.17637 0.31376 0.0
C740 C 0.4693 0.20093 0.306 0.0
C741 C 0.48446 0.17498 0.34662 0.0
C742 C 0.48399 0.22389 0.33228 0.0
C743 C 0.4989 0.2226 0.36509 0.0
H744 H 0.60476 0.45296 0.82526 0.0
H745 H 0.65981 0.51412 0.91248 0.0
H746 H 0.69761 0.529 0.86509 0.0
H747 H 0.71555 0.52324 0.79988 0.0
H748 H 0.66 0.46229 0.71282 0.0
H749 H 0.62204 0.44889 0.75912 0.0
C750 C 0.62498 0.46964 0.83391 0.0
C751 C 0.62939 0.48224 0.87253 0.0
C752 C 0.64665 0.47811 0.80656 0.0
C753 C 0.65575 0.50401 0.88297 0.0
C754 C 0.67745 0.5125 0.85592 0.0
C755 C 0.69511 0.50713 0.79098 0.0
C756 C 0.69073 0.4937 0.75301 0.0
C757 C 0.67322 0.49948 0.8178 0.0
C758 C 0.66406 0.47297 0.74187 0.0
C759 C 0.64227 0.46522 0.76837 0.0
H760 H 0.46596 0.15583 0.77624 0.0
H761 H 0.54462 0.16577 0.74699 0.0
H762 H 0.54701 0.1485 0.81352 0.0
H763 H 0.52788 0.13257 0.88101 0.0
H764 H 0.44932 0.12272 0.91083 0.0
H765 H 0.44579 0.13779 0.84302 0.0
C766 C 0.48355 0.15406 0.78429 0.0
C767 C 0.50514 0.16226 0.75662 0.0
C768 C 0.48488 0.14419 0.82279 0.0
C769 C 0.52773 0.15972 0.76763 0.0
C770 C 0.52915 0.14986 0.80574 0.0
C771 C 0.50988 0.13355 0.87273 0.0
C772 C 0.48899 0.12663 0.90126 0.0
C773 C 0.50801 0.14235 0.83373 0.0
C774 C 0.46577 0.12793 0.88966 0.0
C775 C 0.46374 0.13661 0.85085 0.0
H776 H 0.88319 0.35201 0.8921 0.0
H777 H 0.84718 0.40271 0.87095 0.0
H778 H 0.82332 0.37484 0.81127 0.0
H779 H 0.8051 0.33063 0.77492 0.0
H780 H 0.83887 0.27837 0.79802 0.0
H781 H 0.87216 0.31299 0.84526 0.0
C782 C 0.87052 0.35728 0.87402 0.0
C783 C 0.86631 0.37888 0.88688 0.0
C784 C 0.8565 0.34092 0.83979 0.0
C785 C 0.85039 0.38586 0.86241 0.0
C786 C 0.83672 0.36994 0.82812 0.0
C787 C 0.82054 0.32737 0.78898 0.0
C788 C 0.81901 0.30168 0.78389 0.0
C789 C 0.83855 0.34664 0.8178 0.0
C790 C 0.83942 0.29787 0.80161 0.0
C791 C 0.85815 0.31746 0.82934 0.0
H792 H 0.55094 0.38612 0.4035 0.0
H793 H 0.48263 0.3258 0.47326 0.0
H794 H 0.46059 0.29959 0.41121 0.0
H795 H 0.46139 0.29293 0.33759 0.0
H796 H 0.53044 0.35231 0.26828 0.0
H797 H 0.55134 0.37995 0.32984 0.0
C798 C 0.53119 0.36728 0.40525 0.0
C799 C 0.51854 0.35796 0.44315 0.0
C800 C 0.51869 0.3522 0.36951 0.0
C801 C 0.49293 0.33347 0.44462 0.0
C802 C 0.48026 0.31847 0.40912 0.0
C803 C 0.48084 0.31211 0.33583 0.0
C804 C 0.4943 0.32061 0.29836 0.0
C805 C 0.49301 0.32757 0.37145 0.0
C806 C 0.51966 0.34532 0.29673 0.0
C807 C 0.53166 0.36109 0.33193 0.0
H808 H 0.66172 0.19297 0.26311 0.0
H809 H 0.71693 0.16555 0.30091 0.0
H810 H 0.69224 0.14922 0.36468 0.0
H811 H 0.65598 0.14423 0.41073 0.0
H812 H 0.60114 0.17216 0.37266 0.0
H813 H 0.62473 0.18672 0.30806 0.0
C814 C 0.6683 0.18328 0.28515 0.0
C815 C 0.69122 0.18059 0.27721 0.0
C816 C 0.65415 0.17412 0.32186 0.0
C817 C 0.69938 0.16793 0.30619 0.0
C818 C 0.6853 0.15863 0.34274 0.0
C819 C 0.64909 0.15341 0.3883 0.0
C820 C 0.62683 0.15716 0.39682 0.0
C821 C 0.66282 0.16186 0.35108 0.0
C822 C 0.61822 0.16904 0.36717 0.0
C823 C 0.63171 0.17741 0.33011 0.0
H824 H 0.85713 0.50094 0.32158 0.0
H825 H 0.78459 0.4338 0.37416 0.0
H826 H 0.75597 0.44645 0.33563 0.0
H827 H 0.75135 0.47416 0.2834 0.0
H828 H 0.82333 0.54098 0.22878 0.0
H829 H 0.85246 0.53107 0.27188 0.0
C830 C 0.83509 0.48948 0.32505 0.0
C831 C 0.82288 0.46622 0.35009 0.0
C832 C 0.8187 0.49661 0.30213 0.0
C833 C 0.79436 0.45135 0.35431 0.0
C834 C 0.77799 0.45864 0.33239 0.0
C835 C 0.77341 0.48664 0.28088 0.0
C836 C 0.78515 0.50802 0.25254 0.0
C837 C 0.78991 0.48074 0.30543 0.0
C838 C 0.81379 0.52424 0.25017 0.0
C839 C 0.83044 0.5186 0.27481 0.0
H840 H 0.63596 0.18445 0.96008 0.0
H841 H 0.59175 0.09898 0.92073 0.0
H842 H 0.62587 0.10889 0.868 0.0
H843 H 0.66838 0.14242 0.83284 0.0
H844 H 0.71042 0.22807 0.87231 0.0
H845 H 0.67683 0.21749 0.92482 0.0
C846 C 0.63386 0.16789 0.94024 0.0
C847 C 0.61156 0.14102 0.94448 0.0
C848 C 0.65302 0.17384 0.90965 0.0
C849 C 0.60888 0.11987 0.91809 0.0
C850 C 0.62831 0.12553 0.88791 0.0
C851 C 0.67001 0.15872 0.85281 0.0
C852 C 0.6918 0.18599 0.84841 0.0
C853 C 0.65044 0.15253 0.88325 0.0
C854 C 0.69372 0.20693 0.87458 0.0
C855 C 0.67461 0.20092 0.90492 0.0
H856 H 0.8806 0.49691 0.88248 0.0
H857 H 0.80254 0.46879 0.93953 0.0
H858 H 0.78741 0.48463 0.88178 0.0
H859 H 0.795 0.50313 0.81273 0.0
H860 H 0.873 0.53059 0.75562 0.0
H861 H 0.88939 0.51852 0.81581 0.0
C862 C 0.86037 0.49449 0.88253 0.0
C863 C 0.84267 0.48143 0.91517 0.0
C864 C 0.85166 0.50339 0.84903 0.0
C865 C 0.81658 0.47864 0.91475 0.0
C866 C 0.80785 0.48764 0.88165 0.0
C867 C 0.81569 0.50677 0.81355 0.0
C868 C 0.83256 0.51751 0.77936 0.0
C869 C 0.82501 0.49953 0.84824 0.0
C870 C 0.85939 0.52216 0.78123 0.0
C871 C 0.86884 0.51523 0.81569 0.0
H872 H 0.51595 0.31684 0.86182 0.0
H873 H 0.5178 0.38262 0.79266 0.0
H874 H 0.50778 0.35477 0.73042 0.0
H875 H 0.49928 0.31195 0.69557 0.0
H876 H 0.49809 0.24674 0.76569 0.0
H877 H 0.50717 0.27429 0.8275 0.0
C878 C 0.51406 0.32511 0.8332 0.0
C879 C 0.5176 0.35177 0.83197 0.0
C880 C 0.50851 0.30912 0.7976 0.0
C881 C 0.51513 0.36213 0.79452 0.0
C882 C 0.50945 0.34624 0.75889 0.0
C883 C 0.50092 0.30372 0.72436 0.0
C884 C 0.49797 0.27725 0.72579 0.0
C885 C 0.50622 0.31973 0.76005 0.0
C886 C 0.5003 0.26702 0.76347 0.0
C887 C 0.50546 0.28275 0.79897 0.0
H888 H 0.50727 0.62619 0.60544 0.0
H889 H 0.41961 0.58395 0.61948 0.0
H890 H 0.42492 0.6123 0.67926 0.0
H891 H 0.45386 0.65496 0.71827 0.0
H892 H 0.54143 0.69766 0.70406 0.0
H893 H 0.53684 0.66257 0.65501 0.0
C894 C 0.48939 0.62286 0.62209 0.0
C895 C 0.46309 0.60358 0.6074 0.0
C896 C 0.49256 0.63929 0.6565 0.0
C897 C 0.44009 0.59894 0.62981 0.0
C898 C 0.44309 0.61518 0.66401 0.0
C899 C 0.47199 0.65597 0.70559 0.0
C900 C 0.49785 0.67917 0.71398 0.0
C901 C 0.46914 0.63626 0.67641 0.0
C902 C 0.52125 0.68007 0.69795 0.0
C903 C 0.51861 0.66023 0.66935 0.0
H904 H 0.33648 0.84462 0.56668 0.0
H905 H 0.40685 0.83903 0.60239 0.0
H906 H 0.38757 0.82375 0.66948 0.0
H907 H 0.35028 0.81051 0.71749 0.0
H908 H 0.27931 0.81497 0.68218 0.0
H909 H 0.29936 0.83222 0.61567 0.0
C910 C 0.34769 0.84026 0.58923 0.0
C911 C 0.37306 0.84294 0.57931 0.0
C912 C 0.33636 0.83117 0.62786 0.0
C913 C 0.38722 0.83705 0.60895 0.0
C914 C 0.37623 0.8283 0.64744 0.0
C915 C 0.33921 0.81535 0.69536 0.0
C916 C 0.31331 0.81139 0.70485 0.0
C917 C 0.35073 0.82504 0.65711 0.0
C918 C 0.29928 0.81778 0.6757 0.0
C919 C 0.31072 0.82764 0.63762 0.0
H920 H 0.13776 0.48684 0.61364 0.0
H921 H 0.15251 0.56703 0.65319 0.0
H922 H 0.17369 0.56371 0.71553 0.0
H923 H 0.19046 0.53943 0.75725 0.0
H924 H 0.17617 0.45943 0.71794 0.0
H925 H 0.15226 0.46129 0.65744 0.0
C926 C 0.1454 0.50351 0.636 0.0
C927 C 0.14366 0.52723 0.62836 0.0
C928 C 0.15777 0.50159 0.6719 0.0
C929 C 0.15363 0.54855 0.65794 0.0
C930 C 0.16581 0.54672 0.69371 0.0
C931 C 0.18195 0.52228 0.73564 0.0
C932 C 0.18531 0.49942 0.74209 0.0
C933 C 0.16837 0.52354 0.70074 0.0
C934 C 0.17398 0.47734 0.71378 0.0
C935 C 0.16034 0.4784 0.67906 0.0
H936 H 0.36074 0.84391 0.1278 0.0
H937 H 0.30251 0.7697 0.06273 0.0
H938 H 0.26783 0.76097 0.11336 0.0
H939 H 0.25463 0.77307 0.17762 0.0
H940 H 0.31268 0.84725 0.24299 0.0
H941 H 0.34664 0.85741 0.19042 0.0
C942 C 0.34043 0.82588 0.1246 0.0
C943 C 0.33434 0.80739 0.09165 0.0
C944 C 0.3205 0.82096 0.15384 0.0
C945 C 0.30784 0.78425 0.08782 0.0
C946 C 0.28795 0.77921 0.11679 0.0
C947 C 0.27462 0.79161 0.18031 0.0
C948 C 0.28106 0.80925 0.21445 0.0
C949 C 0.29415 0.79725 0.15014 0.0
C950 C 0.30708 0.83325 0.21713 0.0
C951 C 0.3266 0.83904 0.18713 0.0
H952 H 0.23665 0.53738 0.09491 0.0
H953 H 0.14939 0.5016 0.10687 0.0
H954 H 0.15143 0.48546 0.17468 0.0
H955 H 0.17842 0.48356 0.23195 0.0
H956 H 0.26575 0.51953 0.21905 0.0
H957 H 0.26312 0.53345 0.15034 0.0
C958 C 0.21801 0.52589 0.11218 0.0
C959 C 0.19295 0.52087 0.09587 0.0
C960 C 0.21934 0.51681 0.15117 0.0
C961 C 0.16899 0.50578 0.11865 0.0
C962 C 0.17015 0.49662 0.15752 0.0
C963 C 0.19687 0.49435 0.21409 0.0
C964 C 0.22225 0.50061 0.23097 0.0
C965 C 0.19528 0.50236 0.17434 0.0
C966 C 0.2459 0.51445 0.2071 0.0
C967 C 0.24447 0.52248 0.1677 0.0
H968 H 0.52927 0.68793 0.24058 0.0
H969 H 0.47815 0.72439 0.23396 0.0
H970 H 0.46339 0.70539 0.16569 0.0
H971 H 0.46548 0.67927 0.10734 0.0
H972 H 0.51731 0.64364 0.11228 0.0
H973 H 0.53149 0.66172 0.18141 0.0
C974 C 0.51473 0.6915 0.22429 0.0
C975 C 0.50481 0.7075 0.24241 0.0
C976 C 0.50661 0.68088 0.18458 0.0
C977 C 0.4862 0.71222 0.22072 0.0
C978 C 0.47773 0.70138 0.18162 0.0
C979 C 0.47983 0.67539 0.12358 0.0
C980 C 0.49012 0.65997 0.10474 0.0
C981 C 0.48793 0.68587 0.16318 0.0
C982 C 0.50901 0.65543 0.126 0.0
C983 C 0.51707 0.66568 0.16563 0.0
H984 H 0.13087 0.62243 0.65375 0.0
H985 H 0.18601 0.68627 0.57262 0.0
H986 H 0.20652 0.71843 0.62985 0.0
H987 H 0.21084 0.72758 0.70303 0.0
H988 H 0.15604 0.66397 0.78467 0.0
H989 H 0.13336 0.63259 0.72701 0.0
C990 C 0.14713 0.64348 0.6485 0.0
C991 C 0.15699 0.65184 0.60892 0.0
C992 C 0.1591 0.66183 0.68164 0.0
C993 C 0.17808 0.67921 0.60273 0.0
C994 C 0.18991 0.69762 0.63547 0.0
C995 C 0.1939 0.70687 0.70831 0.0
C996 C 0.18536 0.69808 0.7482 0.0
C997 C 0.18095 0.68898 0.67509 0.0
C998 C 0.16311 0.67128 0.75432 0.0
C999 C 0.15013 0.6533 0.72136 0.0
H1000 H 0.32424 0.47236 0.73916 0.0
H1001 H 0.26762 0.49858 0.7035 0.0
H1002 H 0.28591 0.5071 0.63505 0.0
H1003 H 0.31955 0.50975 0.58633 0.0
H1004 H 0.37679 0.48431 0.62142 0.0
H1005 H 0.35631 0.47241 0.68876 0.0
C1006 C 0.31583 0.47986 0.71642 0.0
C1007 C 0.29473 0.48505 0.72677 0.0
C1008 C 0.32646 0.48478 0.67689 0.0
C1009 C 0.28394 0.49452 0.69665 0.0
C1010 C 0.29437 0.4994 0.65737 0.0
C1011 C 0.32739 0.50129 0.60849 0.0
C1012 C 0.3498 0.49811 0.59885 0.0
C1013 C 0.31584 0.49493 0.6473 0.0
C1014 C 0.35956 0.487 0.62798 0.0
C1015 C 0.34796 0.48034 0.66661 0.0
H1016 H 0.55135 0.8451 0.66341 0.0
H1017 H 0.46961 0.78647 0.70193 0.0
H1018 H 0.45051 0.80268 0.65004 0.0
H1019 H 0.45687 0.82956 0.58936 0.0
H1020 H 0.53825 0.88756 0.54834 0.0
H1021 H 0.5578 0.87565 0.60564 0.0
C1022 C 0.52942 0.83651 0.66103 0.0
C1023 C 0.51181 0.81454 0.68605 0.0
C1024 C 0.51857 0.84538 0.63022 0.0
C1025 C 0.48344 0.80319 0.68257 0.0
C1026 C 0.47254 0.81238 0.65286 0.0
C1027 C 0.47891 0.83966 0.5929 0.0
C1028 C 0.49611 0.85898 0.56421 0.0
C1029 C 0.48988 0.8327 0.62563 0.0
C1030 C 0.5246 0.87238 0.56982 0.0
C1031 C 0.53576 0.8656 0.60257 0.0
H1032 H 0.32862 0.49888 0.24187 0.0
H1033 H 0.37122 0.57721 0.30648 0.0
H1034 H 0.40441 0.5967 0.25204 0.0
H1035 H 0.42081 0.59211 0.18534 0.0
H1036 H 0.37989 0.51359 0.12152 0.0
H1037 H 0.34644 0.49367 0.17617 0.0
C1038 C 0.3453 0.52013 0.24422 0.0
C1039 C 0.34729 0.53654 0.27821 0.0
C1040 C 0.36445 0.53131 0.21271 0.0
C1041 C 0.3691 0.56405 0.28072 0.0
C1042 C 0.38808 0.57531 0.24948 0.0
C1043 C 0.40446 0.57068 0.18328 0.0
C1044 C 0.40261 0.55441 0.14931 0.0
C1045 C 0.38576 0.55925 0.21515 0.0
C1046 C 0.38164 0.52655 0.14735 0.0
C1047 C 0.36257 0.51515 0.17861 0.0
H1048 H 0.52069 0.82008 0.22793 0.0
H1049 H 0.44057 0.79068 0.27851 0.0
H1050 H 0.42599 0.80321 0.21659 0.0
H1051 H 0.43503 0.81973 0.14644 0.0
H1052 H 0.51498 0.84817 0.09559 0.0
H1053 H 0.53046 0.83883 0.15925 0.0
C1054 C 0.50013 0.8167 0.22565 0.0
C1055 C 0.48174 0.80432 0.25781 0.0
C1056 C 0.49172 0.82357 0.18971 0.0
C1057 C 0.45516 0.80007 0.25421 0.0
C1058 C 0.44675 0.80718 0.21874 0.0
C1059 C 0.4559 0.82408 0.14929 0.0
C1060 C 0.47368 0.83446 0.11598 0.0
C1061 C 0.4647 0.81847 0.186 0.0
C1062 C 0.50071 0.84004 0.1205 0.0
C1063 C 0.50964 0.83471 0.15696 0.0
H1064 H 0.19355 0.65567 0.21203 0.0
H1065 H 0.16774 0.70905 0.15978 0.0
H1066 H 0.15929 0.6846 0.09461 0.0
H1067 H 0.16069 0.64899 0.05188 0.0
H1068 H 0.18671 0.59592 0.10504 0.0
H1069 H 0.19367 0.61946 0.17027 0.0
C1070 C 0.18591 0.6619 0.1865 0.0
C1071 C 0.18135 0.68421 0.19083 0.0
C1072 C 0.18129 0.64792 0.14912 0.0
C1073 C 0.1714 0.69192 0.15737 0.0
C1074 C 0.16665 0.67801 0.12001 0.0
C1075 C 0.16786 0.64255 0.07772 0.0
C1076 C 0.17324 0.62074 0.07333 0.0
C1077 C 0.17179 0.65615 0.11542 0.0
C1078 C 0.1824 0.61262 0.10732 0.0
C1079 C 0.1864 0.62607 0.14476 0.0
H1080 H 0.14045 0.16628 0.29577 0.0
H1081 H 0.05373 0.12002 0.27139 0.0
H1082 H 0.06032 0.09159 0.2209 0.0
H1083 H 0.09154 0.08415 0.17794 0.0
H1084 H 0.17837 0.13047 0.20354 0.0
H1085 H 0.17087 0.15435 0.25965 0.0
C1086 C 0.12303 0.14987 0.27958 0.0
C1087 C 0.09678 0.14562 0.28642 0.0
C1088 C 0.12699 0.13371 0.25073 0.0
C1089 C 0.07418 0.12372 0.26631 0.0
C1090 C 0.07795 0.10758 0.23735 0.0
C1091 C 0.10878 0.09913 0.19619 0.0
C1092 C 0.13552 0.10593 0.18583 0.0
C1093 C 0.10439 0.113 0.2284 0.0
C1094 C 0.15758 0.12504 0.21034 0.0
C1095 C 0.15335 0.13884 0.24244 0.0
H1096 H 0.88819 0.9652 0.31306 0.0
H1097 H 0.84665 0.93345 0.19824 0.0
H1098 H 0.87633 0.97829 0.16694 0.0
H1099 H 0.91121 0.02746 0.17399 0.0
H1100 H 0.94724 0.06103 0.29123 0.0
H1101 H 0.92326 0.0145 0.32001 0.0
C1102 C 0.88604 0.96808 0.28104 0.0
C1103 C 0.86559 0.94621 0.25773 0.0
C1104 C 0.90228 0.99419 0.26387 0.0
C1105 C 0.86239 0.95013 0.21656 0.0
C1106 C 0.87932 0.97569 0.19873 0.0
C1107 C 0.9142 0.02435 0.2056 0.0
C1108 C 0.93122 0.04722 0.23049 0.0
C1109 C 0.89898 0.99797 0.22228 0.0
C1110 C 0.93452 0.04342 0.27161 0.0
C1111 C 0.92066 0.01694 0.28802 0.0
H1112 H 0.9671 0.89506 0.2537 0.0
H1113 H 0.99587 0.84221 0.20755 0.0
H1114 H 0.03482 0.86357 0.25443 0.0
H1115 H 0.05773 0.89359 0.31322 0.0
H1116 H 0.02765 0.9448 0.36248 0.0
H1117 H 0.99242 0.92804 0.30957 0.0
C1118 C 0.98227 0.88871 0.25349 0.0
C1119 C 0.97858 0.86691 0.22782 0.0
C1120 C 0.00419 0.90058 0.28136 0.0
C1121 C -0.00191 0.85857 0.22778 0.0
C1122 C 0.02038 0.87084 0.25446 0.0
C1123 C 0.04375 0.90143 0.31212 0.0
C1124 C 0.04519 0.92021 0.34208 0.0
C1125 C 0.02315 0.89125 0.28224 0.0
C1126 C 0.02685 0.93011 0.34007 0.0
C1127 C 0.00667 0.92055 0.3098 0.0
H1128 H 0.90154 0.87677 0.74712 0.0
H1129 H 0.82524 0.82656 0.68306 0.0
H1130 H 0.80486 0.84981 0.71898 0.0
H1131 H 0.8072 0.88067 0.77302 0.0
H1132 H 0.88198 0.9294 0.84139 0.0
H1133 H 0.90485 0.91106 0.79882 0.0
C1134 C 0.88062 0.87139 0.74074 0.0
C1135 C 0.86464 0.84978 0.71315 0.0
C1136 C 0.86883 0.88445 0.76237 0.0
C1137 C 0.83761 0.84273 0.7049 0.0
C1138 C 0.82602 0.85609 0.72527 0.0
C1139 C 0.82857 0.88744 0.77854 0.0
C1140 C 0.84277 0.90591 0.81069 0.0
C1141 C 0.84117 0.87632 0.75489 0.0
C1142 C 0.8706 0.91503 0.81688 0.0
C1143 C 0.8836 0.90444 0.79271 0.0
H1144 H 0.18876 0.06964 0.78087 0.0
H1145 H 0.11886 0.05937 0.7136 0.0
H1146 H 0.0905 0.01321 0.74228 0.0
H1147 H 0.08719 0.97379 0.7812 0.0
H1148 H 0.15859 0.98495 0.84493 0.0
H1149 H 0.18478 0.03259 0.82294 0.0
C1150 C 0.16727 0.05741 0.77262 0.0
C1151 C 0.15602 0.06768 0.74471 0.0
C1152 C 0.15144 0.03087 0.78835 0.0
C1153 C 0.12801 0.05184 0.73499 0.0
C1154 C 0.11185 0.02539 0.75118 0.0
C1155 C 0.10836 0.98691 0.7906 0.0
C1156 C 0.12119 0.97583 0.81399 0.0
C1157 C 0.12355 0.01439 0.77709 0.0
C1158 C 0.14855 0.99283 0.82612 0.0
C1159 C 0.1635 0.02015 0.81373 0.0
H1160 H 0.95406 0.12958 0.65185 0.0
H1161 H 0.92863 0.05134 0.7074 0.0
H1162 H 0.9728 0.07169 0.74385 0.0
H1163 H 0.01702 0.11363 0.76432 0.0
H1164 H 0.03917 0.19175 0.70944 0.0
H1165 H 0.99767 0.16969 0.66853 0.0
C1166 C 0.95801 0.11703 0.67216 0.0
C1167 C 0.93803 0.08939 0.67793 0.0
C1168 C 0.98281 0.12897 0.69325 0.0
C1169 C 0.94384 0.07287 0.70286 0.0
C1170 C 0.96895 0.08454 0.72379 0.0
C1171 C 0.01276 0.12562 0.74308 0.0
C1172 C 0.0309 0.15431 0.74023 0.0
C1173 C 0.98837 0.11284 0.71995 0.0
C1174 C 0.0253 0.16972 0.71261 0.0
C1175 C 0.00163 0.15715 0.6891 0.0
H1176 H 0.8225 0.48866 0.62694 0.0
H1177 H 0.73538 0.43308 0.61836 0.0
H1178 H 0.74207 0.40578 0.56602 0.0
H1179 H 0.77225 0.40255 0.51556 0.0
H1180 H 0.85952 0.45874 0.52428 0.0
H1181 H 0.85322 0.48067 0.58417 0.0
C1182 C 0.80504 0.47044 0.61387 0.0
C1183 C 0.77849 0.46327 0.62548 0.0
C1184 C 0.80905 0.45506 0.58369 0.0
C1185 C 0.75603 0.43906 0.60952 0.0
C1186 C 0.75983 0.42356 0.57947 0.0
C1187 C 0.78995 0.41922 0.53101 0.0
C1188 C 0.81622 0.42945 0.51472 0.0
C1189 C 0.78619 0.43207 0.56518 0.0
C1190 C 0.83899 0.45068 0.5357 0.0
C1191 C 0.83543 0.46337 0.5699 0.0
H1192 H 0.55163 0.2852 0.65103 0.0
H1193 H 0.53823 0.25219 0.52906 0.0
H1194 H 0.56232 0.29916 0.50193 0.0
H1195 H 0.58142 0.34922 0.51295 0.0
H1196 H 0.58784 0.38112 0.63462 0.0
H1197 H 0.57248 0.33524 0.66221 0.0
C1198 C 0.55481 0.28846 0.61862 0.0
C1199 C 0.54385 0.2656 0.59194 0.0
C1200 C 0.56711 0.31535 0.60336 0.0
C1201 C 0.54703 0.26972 0.54996 0.0
C1202 C 0.56058 0.29649 0.53453 0.0
C1203 C 0.58017 0.34614 0.54551 0.0
C1204 C 0.58608 0.36834 0.57192 0.0
C1205 C 0.56993 0.31944 0.5609 0.0
C1206 C 0.5836 0.36419 0.61396 0.0
C1207 C 0.57474 0.33801 0.62965 0.0
H1208 H 0.64479 0.16885 0.55522 0.0
H1209 H 0.61474 0.22368 0.58482 0.0
H1210 H 0.6495 0.24555 0.63855 0.0
H1211 H 0.68454 0.24488 0.68216 0.0
H1212 H 0.71374 0.18913 0.65207 0.0
H1213 H 0.6832 0.17187 0.59339 0.0
C1214 C 0.64589 0.18562 0.57331 0.0
C1215 C 0.62688 0.19421 0.56681 0.0
C1216 C 0.66565 0.19779 0.60423 0.0
C1217 C 0.62915 0.21667 0.58947 0.0
C1218 C 0.64888 0.22902 0.62033 0.0
C1219 C 0.68453 0.22924 0.66247 0.0
C1220 C 0.70112 0.21801 0.67209 0.0
C1221 C 0.66667 0.21913 0.62881 0.0
C1222 C 0.70105 0.198 0.64581 0.0
C1223 C 0.68351 0.18802 0.61221 0.0
H1224 H 0.47952 0.14961 0.0475 0.0
H1225 H 0.56372 0.20089 0.08459 0.0
H1226 H 0.55243 0.23217 0.1211 0.0
H1227 H 0.51729 0.24227 0.14742 0.0
H1228 H 0.43338 0.19024 0.10803 0.0
H1229 H 0.44588 0.16204 0.06744 0.0
C1230 C 0.49536 0.16757 0.06364 0.0
C1231 C 0.52218 0.17265 0.06428 0.0
C1232 C 0.48875 0.18532 0.08423 0.0
C1233 C 0.5428 0.19655 0.08403 0.0
C1234 C 0.53635 0.21435 0.10497 0.0
C1235 C 0.50192 0.22503 0.12942 0.0
C1236 C 0.47439 0.21803 0.1314 0.0
C1237 C 0.50922 0.20861 0.106 0.0
C1238 C 0.45466 0.19574 0.10771 0.0
C1239 C 0.46173 0.17956 0.08439 0.0
H1240 H 0.79686 0.36248 0.03621 0.0
H1241 H 0.87505 0.3832 0.08846 0.0
H1242 H 0.85384 0.34032 0.12549 0.0
H1243 H 0.81413 0.29632 0.14082 0.0
H1244 H 0.73528 0.27329 0.09059 0.0
H1245 H 0.75541 0.31796 0.05565 0.0
C1246 C 0.80911 0.35761 0.05592 0.0
C1247 C 0.8376 0.37583 0.05893 0.0
C1248 C 0.79671 0.33257 0.07741 0.0
C1249 C 0.85321 0.36936 0.08486 0.0
C1250 C 0.84111 0.34486 0.10626 0.0
C1251 C 0.80138 0.30086 0.12194 0.0
C1252 C 0.77355 0.28139 0.11734 0.0
C1253 C 0.81307 0.32616 0.10218 0.0
C1254 C 0.75692 0.28805 0.09422 0.0
C1255 C 0.76845 0.31348 0.07419 0.0
H1256 H 0.58349 0.45149 0.05413 0.0
H1257 H 0.61357 0.40525 0.98898 0.0
H1258 H 0.65404 0.42503 0.03349 0.0
H1259 H 0.6835 0.46034 0.08492 0.0
H1260 H 0.65414 0.50888 0.14512 0.0
H1261 H 0.61075 0.48352 0.10836 0.0
C1262 C 0.5988 0.44557 0.04977 0.0
C1263 C 0.59588 0.42741 0.01786 0.0
C1264 C 0.62227 0.45775 0.07429 0.0
C1265 C 0.61548 0.41934 0.01325 0.0
C1266 C 0.63868 0.43079 0.03849 0.0
C1267 C 0.66734 0.46493 0.09038 0.0
C1268 C 0.67201 0.48669 0.11704 0.0
C1269 C 0.6427 0.45074 0.06821 0.0
C1270 C 0.65114 0.49265 0.12398 0.0
C1271 C 0.62632 0.47807 0.10314 0.0
H1272 H 0.47075 0.80863 0.96787 0.0
H1273 H 0.38586 0.75509 0.93594 0.0
H1274 H 0.39873 0.73369 0.88169 0.0
H1275 H 0.43452 0.73579 0.83705 0.0
H1276 H 0.51954 0.79012 0.86917 0.0
H1277 H 0.50622 0.80546 0.92986 0.0
C1278 C 0.45511 0.79207 0.94929 0.0
C1279 C 0.42751 0.78384 0.955 0.0
C1280 C 0.4627 0.78023 0.918 0.0
C1281 C 0.40727 0.76175 0.93183 0.0
C1282 C 0.41464 0.74971 0.90064 0.0
C1283 C 0.45014 0.75062 0.85769 0.0
C1284 C 0.47799 0.76225 0.84799 0.0
C1285 C 0.44236 0.75962 0.89242 0.0
C1286 C 0.49796 0.78102 0.87554 0.0
C1287 C 0.49038 0.78994 0.91023 0.0
H1288 H 0.26469 0.69702 0.83683 0.0
H1289 H 0.24169 0.73087 0.93724 0.0
H1290 H 0.22703 0.68878 0.97561 0.0
H1291 H 0.21568 0.64054 0.97733 0.0
H1292 H 0.23423 0.60457 0.87513 0.0
H1293 H 0.25632 0.64936 0.84085 0.0
C1294 C 0.25699 0.69532 0.86741 0.0
C1295 C 0.2541 0.71685 0.88419 0.0
C1296 C 0.24776 0.67065 0.88881 0.0
C1297 C 0.24386 0.7144 0.92366 0.0
C1298 C 0.23549 0.69038 0.9456 0.0
C1299 C 0.22508 0.64279 0.94791 0.0
C1300 C 0.22365 0.61972 0.92864 0.0
C1301 C 0.23659 0.66811 0.928 0.0
C1302 C 0.23556 0.62241 0.89048 0.0
C1303 C 0.24791 0.64788 0.87086 0.0
H1304 H 0.36363 0.59642 0.99688 0.0
H1305 H 0.40075 0.54834 0.96273 0.0
H1306 H 0.36629 0.52481 0.90974 0.0
H1307 H 0.32356 0.51514 0.87692 0.0
H1308 H 0.28619 0.56295 0.90973 0.0
H1309 H 0.32325 0.58997 0.95869 0.0
C1310 C 0.36426 0.58091 0.97768 0.0
C1311 C 0.38449 0.57384 0.98427 0.0
C1312 C 0.34442 0.56751 0.94698 0.0
C1313 C 0.38534 0.55408 0.95859 0.0
C1314 C 0.36561 0.54056 0.92825 0.0
C1315 C 0.3236 0.53152 0.8947 0.0
C1316 C 0.30201 0.53674 0.8905 0.0
C1317 C 0.34474 0.54667 0.92281 0.0
C1318 C 0.30269 0.55863 0.9126 0.0
C1319 C 0.32372 0.57387 0.94079 0.0
H1320 H 0.21023 0.58833 0.48776 0.0
H1321 H 0.13604 0.53187 0.42244 0.0
H1322 H 0.16098 0.51622 0.38067 0.0
H1323 H 0.2027 0.51595 0.36584 0.0
H1324 H 0.27678 0.56925 0.43265 0.0
H1325 H 0.2535 0.58972 0.4696 0.0
C1326 C 0.19969 0.57281 0.46412 0.0
C1327 C 0.17129 0.56098 0.45858 0.0
C1328 C 0.21413 0.56345 0.44045 0.0
C1329 C 0.15782 0.54097 0.42776 0.0
C1330 C 0.17205 0.53206 0.40371 0.0
C1331 C 0.21365 0.53179 0.38879 0.0
C1332 C 0.24102 0.54051 0.39755 0.0
C1333 C 0.19999 0.54265 0.41045 0.0
C1334 C 0.25554 0.56217 0.4257 0.0
C1335 C 0.24218 0.57365 0.447 0.0
H1336 H 0.4639 0.62664 0.48787 0.0
H1337 H 0.39033 0.59342 0.41583 0.0
H1338 H 0.40593 0.63954 0.38783 0.0
H1339 H 0.44315 0.68863 0.37961 0.0
H1340 H 0.51679 0.71974 0.45191 0.0
H1341 H 0.49855 0.67516 0.48431 0.0
C1342 C 0.45135 0.62946 0.46595 0.0
C1343 C 0.42646 0.60677 0.45308 0.0
C1344 C 0.46052 0.65569 0.45014 0.0
C1345 C 0.40976 0.61076 0.42584 0.0
C1346 C 0.41872 0.63705 0.40981 0.0
C1347 C 0.45486 0.68568 0.403 0.0
C1348 C 0.48136 0.70731 0.41315 0.0
C1349 C 0.44441 0.65961 0.42113 0.0
C1350 C 0.49646 0.70328 0.44334 0.0
C1351 C 0.4861 0.67781 0.46185 0.0
H1352 H 0.34551 0.82617 0.44872 0.0
H1353 H 0.37077 0.77556 0.38485 0.0
H1354 H 0.32548 0.74933 0.35217 0.0
H1355 H 0.27999 0.74377 0.33788 0.0
H1356 H 0.25559 0.79465 0.40391 0.0
H1357 H 0.29929 0.81786 0.43971 0.0
C1358 C 0.34114 0.80953 0.42747 0.0
C1359 C 0.36145 0.80319 0.41823 0.0
C1360 C 0.31525 0.79466 0.40922 0.0
C1361 C 0.35532 0.78084 0.392 0.0
C1362 C 0.32953 0.76596 0.37331 0.0
C1363 C 0.28413 0.75965 0.36053 0.0
C1364 C 0.2648 0.76787 0.36761 0.0
C1365 C 0.30947 0.77306 0.38112 0.0
C1366 C 0.27034 0.78833 0.39726 0.0
C1367 C 0.29532 0.80162 0.41784 0.0
H1368 H 0.26863 0.18309 0.18837 0.0
H1369 H 0.25111 0.09872 0.18133 0.0
H1370 H 0.29348 0.1118 0.21779 0.0
H1371 H 0.33874 0.14817 0.23948 0.0
H1372 H 0.35898 0.23341 0.23936 0.0
H1373 H 0.31189 0.21892 0.22013 0.0
C1374 C 0.27385 0.1675 0.19554 0.0
C1375 C 0.25711 0.14011 0.18134 0.0
C1376 C 0.29875 0.17535 0.21539 0.0
C1377 C 0.26397 0.12006 0.19116 0.0
C1378 C 0.28814 0.12749 0.21214 0.0
C1379 C 0.33269 0.16358 0.23635 0.0
C1380 C 0.35253 0.19185 0.23966 0.0
C1381 C 0.30622 0.15526 0.22266 0.0
C1382 C 0.34421 0.2115 0.2366 0.0
C1383 C 0.31735 0.20324 0.22495 0.0
H1384 H 0.85222 0.20665 0.14786 0.0
H1385 H 0.7798 0.14725 0.21128 0.0
H1386 H 0.80202 0.12068 0.22747 0.0
H1387 H 0.84224 0.11469 0.2234 0.0
H1388 H 0.9142 0.17517 0.15998 0.0
H1389 H 0.89178 0.20119 0.14444 0.0
C1390 C 0.84107 0.18784 0.16513 0.0
C1391 C 0.81428 0.17894 0.17822 0.0
C1392 C 0.85398 0.17301 0.17462 0.0
C1393 C 0.80039 0.15454 0.20069 0.0
C1394 C 0.81313 0.13942 0.21007 0.0
C1395 C 0.8531 0.13368 0.20646 0.0
C1396 C 0.87992 0.14293 0.19291 0.0
C1397 C 0.83999 0.14855 0.19729 0.0
C1398 C 0.89358 0.1675 0.17077 0.0
C1399 C 0.88076 0.18239 0.16176 0.0
H1400 H 0.81415 0.62451 0.17612 0.0
H1401 H 0.75148 0.64659 0.1719 0.0
H1402 H 0.78653 0.69544 0.16765 0.0
H1403 H 0.83513 0.73197 0.16506 0.0
H1404 H 0.89729 0.7092 0.16967 0.0
H1405 H 0.86219 0.66053 0.1732 0.0
C1406 C 0.80806 0.63995 0.17459 0.0
C1407 C 0.78016 0.63179 0.17448 0.0
C1408 C 0.82824 0.66792 0.1717 0.0
C1409 C 0.77278 0.65221 0.17215 0.0
C1410 C 0.79282 0.68018 0.16954 0.0
C1411 C 0.84095 0.71632 0.16634 0.0
C1412 C 0.86879 0.72423 0.16701 0.0
C1413 C 0.82062 0.68827 0.16902 0.0
C1414 C 0.87602 0.70371 0.16919 0.0
C1415 C 0.85596 0.67585 0.17134 0.0
H1416 H 0.17293 0.38748 0.37012 0.0
H1417 H 0.24727 0.40255 0.31169 0.0
H1418 H 0.23042 0.3527 0.31069 0.0
H1419 H 0.19396 0.30489 0.32526 0.0
H1420 H 0.12014 0.29119 0.38423 0.0
H1421 H 0.13771 0.34076 0.38633 0.0
C1422 C 0.18555 0.38003 0.35693 0.0
C1423 C 0.21127 0.39881 0.34061 0.0
C1424 C 0.17588 0.3516 0.35673 0.0
C1425 C 0.22736 0.38859 0.32429 0.0
C1426 C 0.21774 0.3601 0.32376 0.0
C1427 C 0.18176 0.31272 0.33883 0.0
C1428 C 0.15564 0.29418 0.35443 0.0
C1429 C 0.19195 0.3414 0.33979 0.0
C1430 C 0.14022 0.30483 0.37189 0.0
C1431 C 0.15022 0.33322 0.37305 0.0
H1432 H 0.62663 0.77662 0.34355 0.0
H1433 H 0.61016 0.838 0.29517 0.0
H1434 H 0.65887 0.86785 0.28035 0.0
H1435 H 0.70624 0.87679 0.28293 0.0
H1436 H 0.72163 0.81508 0.33319 0.0
H1437 H 0.67299 0.78505 0.34541 0.0
C1438 C 0.63349 0.79647 0.32961 0.0
C1439 C 0.61463 0.80501 0.32056 0.0
C1440 C 0.66137 0.8135 0.32159 0.0
C1441 C 0.62416 0.83088 0.30254 0.0
C1442 C 0.65202 0.84796 0.29408 0.0
C1443 C 0.69895 0.85671 0.29636 0.0
C1444 C 0.71768 0.84828 0.30715 0.0
C1445 C 0.67083 0.83953 0.30372 0.0
C1446 C 0.7078 0.82222 0.32471 0.0
C1447 C 0.67995 0.80498 0.3317 0.0
H1448 H 0.20006 0.85015 0.28071 0.0
H1449 H 0.13245 0.7663 0.28516 0.0
H1450 H 0.10115 0.78325 0.2999 0.0
H1451 H 0.09512 0.8216 0.32467 0.0
H1452 H 0.16379 0.9052 0.32246 0.0
H1453 H 0.1924 0.88867 0.29336 0.0
C1454 C 0.17833 0.83561 0.28376 0.0
C1455 C 0.16864 0.80706 0.28259 0.0
C1456 C 0.16071 0.84547 0.29348 0.0
C1457 C 0.14042 0.78841 0.28598 0.0
C1458 C 0.12257 0.7981 0.29492 0.0
C1459 C 0.11616 0.83626 0.31695 0.0
C1460 C 0.12747 0.86452 0.32678 0.0
C1461 C 0.13277 0.82655 0.30083 0.0
C1462 C 0.15468 0.88327 0.31605 0.0
C1463 C 0.17111 0.87385 0.29938 0.0
H1464 H 0.69407 0.81306 0.87559 0.0
H1465 H 0.70775 0.89382 0.90867 0.0
H1466 H 0.65981 0.87829 0.89354 0.0
H1467 H 0.61661 0.84436 0.85946 0.0
H1468 H 0.60479 0.76489 0.82226 0.0
H1469 H 0.64939 0.77737 0.85041 0.0
C1470 C 0.68648 0.82715 0.88032 0.0
C1471 C 0.70462 0.85472 0.89241 0.0
C1472 C 0.65931 0.81846 0.87 0.0
C1473 C 0.69429 0.87252 0.89918 0.0
C1474 C 0.66692 0.86373 0.8901 0.0
C1475 C 0.62359 0.8296 0.85818 0.0
C1476 C 0.60762 0.80395 0.83802 0.0
C1477 C 0.64963 0.83716 0.87363 0.0
C1478 C 0.61686 0.78496 0.83695 0.0
C1479 C 0.64237 0.79205 0.85309 0.0
H1480 H 0.16204 0.78235 0.86392 0.0
H1481 H 0.22977 0.83579 0.78706 0.0
H1482 H 0.21153 0.86655 0.78013 0.0
H1483 H 0.17799 0.87951 0.79817 0.0
H1484 H 0.1103 0.82714 0.87552 0.0
H1485 H 0.1268 0.79442 0.87944 0.0
C1486 C 0.17279 0.80067 0.84554 0.0
C1487 C 0.19742 0.80683 0.82636 0.0
C1488 C 0.16223 0.81842 0.84171 0.0
C1489 C 0.2109 0.83056 0.80238 0.0
C1490 C 0.20049 0.8482 0.79836 0.0
C1491 C 0.1667 0.86091 0.81586 0.0
C1492 C 0.14309 0.85592 0.83689 0.0
C1493 C 0.17641 0.8425 0.81828 0.0
C1494 C 0.12855 0.83148 0.85908 0.0
C1495 C 0.13806 0.81286 0.86148 0.0
H1496 H 0.16947 0.39049 0.83558 0.0
H1497 H 0.23795 0.37715 0.8425 0.0
H1498 H 0.2067 0.32723 0.84334 0.0
H1499 H 0.16006 0.28738 0.8398 0.0
H1500 H 0.09162 0.30088 0.83326 0.0
H1501 H 0.1228 0.35072 0.83528 0.0
C1502 C 0.17758 0.37667 0.83706 0.0
C1503 C 0.20599 0.38753 0.83858 0.0
C1504 C 0.15952 0.34801 0.83799 0.0
C1505 C 0.21614 0.36933 0.84117 0.0
C1506 C 0.1983 0.34077 0.84174 0.0
C1507 C 0.1519 0.30118 0.83939 0.0
C1508 C 0.12352 0.29032 0.83615 0.0
C1509 C 0.16996 0.32988 0.84003 0.0
C1510 C 0.11338 0.3086 0.83555 0.0
C1511 C 0.1312 0.33716 0.83653 0.0
H1512 H 0.87067 0.71174 0.65382 0.0
H1513 H 0.78734 0.69126 0.67487 0.0
H1514 H 0.77335 0.64271 0.68174 0.0
H1515 H 0.78463 0.60599 0.68281 0.0
H1516 H 0.86765 0.62598 0.66082 0.0
H1517 H 0.88184 0.67471 0.65378 0.0
C1518 C 0.8494 0.69664 0.65949 0.0
C1519 C 0.83015 0.70526 0.66384 0.0
C1520 C 0.84143 0.66864 0.66378 0.0
C1521 C 0.80268 0.68533 0.67146 0.0
C1522 C 0.79461 0.6575 0.67555 0.0
C1523 C 0.80588 0.62103 0.67687 0.0
C1524 C 0.82505 0.61233 0.6726 0.0
C1525 C 0.81384 0.64896 0.67218 0.0
C1526 C 0.85245 0.63209 0.66431 0.0
C1527 C 0.86059 0.65998 0.66014 0.0
H1528 H 0.30348 0.11735 0.68512 0.0
H1529 H 0.29698 0.18333 0.63006 0.0
H1530 H 0.34553 0.20675 0.61294 0.0
H1531 H 0.38989 0.2089 0.61504 0.0
H1532 H 0.396 0.14299 0.67121 0.0
H1533 H 0.34729 0.11908 0.68628 0.0
C1534 C 0.31255 0.13684 0.6693 0.0
C1535 C 0.2965 0.14856 0.65902 0.0
C1536 C 0.3404 0.15021 0.65972 0.0
C1537 C 0.30878 0.17383 0.63846 0.0
C1538 C 0.33655 0.18723 0.62863 0.0
C1539 C 0.38059 0.18922 0.63037 0.0
C1540 C 0.3967 0.17781 0.64198 0.0
C1541 C 0.35257 0.17566 0.6393 0.0
C1542 C 0.38421 0.15233 0.66197 0.0
C1543 C 0.35633 0.13863 0.67064 0.0
H1544 H 0.80064 0.09259 0.6425 0.0
H1545 H 0.86846 0.17322 0.61424 0.0
H1546 H 0.84219 0.19467 0.63515 0.0
H1547 H 0.8032 0.19125 0.67201 0.0
H1548 H 0.73554 0.11099 0.70238 0.0
H1549 H 0.75829 0.08868 0.67 0.0
C1550 C 0.80921 0.11471 0.63956 0.0
C1551 C 0.83646 0.13136 0.6272 0.0
C1552 C 0.79428 0.12706 0.65301 0.0
C1553 C 0.84752 0.16005 0.62391 0.0
C1554 C 0.83261 0.17236 0.63618 0.0
C1555 C 0.79328 0.16886 0.67106 0.0
C1556 C 0.76804 0.15284 0.69031 0.0
C1557 C 0.80652 0.15621 0.65262 0.0
C1558 C 0.75514 0.12383 0.68813 0.0
C1559 C 0.76816 0.11104 0.66966 0.0
H1560 H 0.02181 0.4681 0.53754 0.0
H1561 H 0.03405 0.55004 0.52429 0.0
H1562 H 0.98631 0.53027 0.50325 0.0
H1563 H 0.94314 0.48977 0.4794 0.0
H1564 H 0.93061 0.40787 0.49431 0.0
H1565 H 0.97649 0.42752 0.52376 0.0
C1566 C 0.01383 0.48162 0.531 0.0
C1567 C 0.03152 0.51048 0.53194 0.0
C1568 C 0.98652 0.47011 0.51836 0.0
C1569 C 0.02087 0.52776 0.52389 0.0
C1570 C 0.99365 0.51646 0.51135 0.0
C1571 C 0.95044 0.47628 0.48945 0.0
C1572 C 0.93387 0.44749 0.48397 0.0
C1573 C 0.97665 0.4877 0.50688 0.0
C1574 C 0.94316 0.43012 0.49795 0.0
C1575 C 0.96936 0.44133 0.51475 0.0
H1576 H 0.45452 0.4856 0.54434 0.0
H1577 H 0.51987 0.54692 0.4712 0.0
H1578 H 0.54542 0.52328 0.47913 0.0
H1579 H 0.54952 0.4854 0.50615 0.0
H1580 H 0.48483 0.42366 0.57952 0.0
H1581 H 0.45897 0.44739 0.5723 0.0
C1582 C 0.47429 0.49371 0.53006 0.0
C1583 C 0.48515 0.51803 0.50724 0.0
C1584 C 0.48916 0.48005 0.53486 0.0
C1585 C 0.51094 0.52833 0.48911 0.0
C1586 C 0.52566 0.51482 0.49357 0.0
C1587 C 0.52982 0.47711 0.52075 0.0
C1588 C 0.51922 0.45276 0.54331 0.0
C1589 C 0.51501 0.49073 0.51639 0.0
C1590 C 0.49358 0.4424 0.56196 0.0
C1591 C 0.47871 0.45592 0.55779 0.0
H1592 H 0.54944 0.03653 0.51328 0.0
H1593 H 0.49635 0.06037 0.45497 0.0
H1594 H 0.46118 0.01181 0.44624 0.0
H1595 H 0.44535 0.96268 0.45557 0.0
H1596 H 0.4985 0.93896 0.51394 0.0
H1597 H 0.53371 0.98748 0.52235 0.0
C1598 C 0.53025 0.03118 0.49848 0.0
C1599 C 0.52563 0.05216 0.48481 0.0
C1600 C 0.51003 0.00323 0.49374 0.0
C1601 C 0.50054 0.04471 0.46581 0.0
C1602 C 0.48035 0.01693 0.46086 0.0
C1603 C 0.46457 0.96807 0.47031 0.0
C1604 C 0.46919 0.94712 0.4841 0.0
C1605 C 0.48483 0.99603 0.47489 0.0
C1606 C 0.49434 0.95458 0.50292 0.0
C1607 C 0.51453 0.98236 0.50774 0.0
H1608 H 0.51322 0.02855 0.00177 0.0
H1609 H 0.43066 0.00926 0.02641 0.0
H1610 H 0.41581 0.96007 0.02941 0.0
H1611 H 0.42645 0.92254 0.02515 0.0
H1612 H 0.5094 0.94289 1.00072 0.0
H1613 H 0.52385 0.99171 0.99802 0.0
C1614 C 0.49191 0.01367 0.00758 0.0
C1615 C 0.4731 0.02268 0.01372 0.0
C1616 C 0.48359 0.98557 0.00968 0.0
C1617 C 0.44561 0.00296 0.02146 0.0
C1618 C 0.4371 0.97481 0.02332 0.0
C1619 C 0.44773 0.93768 0.01958 0.0
C1620 C 0.46677 0.92898 0.01314 0.0
C1621 C 0.45596 0.96589 0.01768 0.0
C1622 C 0.49424 0.9489 0.00566 0.0
C1623 C 0.50256 0.97688 0.00402 0.0
H1624 H 0.9852 0.44767 0.00197 0.0
H1625 H 0.97014 0.50935 0.95084 0.0
H1626 H 0.01944 0.54021 0.94206 0.0
H1627 H 0.06666 0.54966 0.94999 0.0
H1628 H 0.08069 0.4876 0.00246 0.0
H1629 H 0.03161 0.45683 0.00966 0.0
C1630 C 0.99251 0.46781 0.98872 0.0
C1631 C 0.97388 0.47612 0.97703 0.0
C1632 C 0.02068 0.48539 0.98413 0.0
C1633 C 0.98397 0.50239 0.9601 0.0
C1634 C 0.01215 0.52004 0.95511 0.0
C1635 C 0.05902 0.52939 0.96293 0.0
C1636 C 0.07745 0.52101 0.97566 0.0
C1637 C 0.03068 0.51176 0.9672 0.0
C1638 C 0.06709 0.49467 0.99247 0.0
C1639 C 0.03899 0.47702 0.99657 0.0
H1640 H 0.54921 0.52316 0.92495 0.0
H1641 H 0.47747 0.4419 0.9166 0.0
H1642 H 0.44832 0.46164 0.9298 0.0
H1643 H 0.44454 0.50059 0.95797 0.0
H1644 H 0.51721 0.58128 0.96949 0.0
H1645 H 0.54459 0.56325 0.94049 0.0
C1646 C 0.52712 0.5099 0.92473 0.0
C1647 C 0.51549 0.48113 0.92058 0.0
C1648 C 0.51069 0.52125 0.93388 0.0
C1649 C 0.48688 0.46414 0.91976 0.0
C1650 C 0.47024 0.47539 0.92789 0.0
C1651 C 0.46625 0.51436 0.95328 0.0
C1652 C 0.47893 0.54206 0.96699 0.0
C1653 C 0.48208 0.50371 0.93728 0.0
C1654 C 0.50701 0.55973 0.96008 0.0
C1655 C 0.52273 0.54945 0.94345 0.0
loop_
_geom_bond_atom_site_label_1
_geom_bond_atom_site_label_2
_geom_bond_distance
_geom_bond_site_symmetry_2
_ccdc_geom_bond_type
Mg0 O1 2.028 . S
Mg0 O7 1.986 . S
Mg0 O9 2.114 . S
Mg0 O10 2.251 . S
Mg0 O13 2.010 . S
O1 Mg0 2.028 . S
O1 C4 1.250 . S
O2 Mg3 2.028 . S
O2 C4 1.248 . S
Mg3 O2 2.028 . S
Mg3 O8 2.032 . S
Mg3 O10 2.079 . S
C4 O1 1.250 . S
C4 O2 1.248 . S
C5 O6 1.264 . S
C5 O13 1.249 . S
O6 C5 1.264 . S
O7 Mg0 1.986 . S
O7 C11 1.246 . S
O8 Mg3 2.032 . S
O8 C11 1.259 . S
O9 Mg0 2.114 . S
O9 C12 1.252 . S
O10 Mg0 2.251 . S
O10 Mg3 2.079 . S
O10 C12 1.273 . S
C11 O7 1.246 . S
C11 O8 1.259 . S
C12 O9 1.252 . S
C12 O10 1.273 . S
O13 Mg0 2.010 . S
O13 C5 1.249 . S
Mg14 O15 2.028 . S
Mg14 O21 1.986 . S
Mg14 O23 2.114 . S
Mg14 O24 2.251 . S
Mg14 O27 2.010 . S
O15 Mg14 2.028 . S
O15 C18 1.250 . S
O16 Mg17 2.028 . S
O16 C18 1.248 . S
Mg17 O16 2.028 . S
Mg17 O22 2.032 . S
Mg17 O24 2.079 . S
C18 O15 1.250 . S
C18 O16 1.248 . S
C19 O20 1.264 . S
C19 O27 1.249 . S
O20 C19 1.264 . S
O21 Mg14 1.986 . S
O21 C25 1.246 . S
O22 Mg17 2.032 . S
O22 C25 1.259 . S
O23 Mg14 2.114 . S
O23 C26 1.252 . S
O24 Mg14 2.251 . S
O24 Mg17 2.079 . S
O24 C26 1.273 . S
C25 O21 1.246 . S
C25 O22 1.259 . S
C26 O23 1.252 . S
C26 O24 1.273 . S
O27 Mg14 2.010 . S
O27 C19 1.249 . S
Mg28 O29 2.028 . S
Mg28 O35 1.986 . S
Mg28 O37 2.114 . S
Mg28 O38 2.251 . S
Mg28 O41 2.010 . S
O29 Mg28 2.028 . S
O29 C32 1.250 . S
O30 Mg31 2.028 . S
O30 C32 1.248 . S
Mg31 O30 2.028 . S
Mg31 O36 2.032 . S
Mg31 O38 2.079 . S
C32 O29 1.250 . S
C32 O30 1.248 . S
C33 O34 1.264 . S
C33 O41 1.249 . S
O34 C33 1.264 . S
O35 Mg28 1.986 . S
O35 C39 1.246 . S
O36 Mg31 2.032 . S
O36 C39 1.259 . S
O37 Mg28 2.114 . S
O37 C40 1.252 . S
O38 Mg28 2.251 . S
O38 Mg31 2.079 . S
O38 C40 1.273 . S
C39 O35 1.246 . S
C39 O36 1.259 . S
C40 O37 1.252 . S
C40 O38 1.273 . S
O41 Mg28 2.010 . S
O41 C33 1.249 . S
Mg42 O43 2.028 . S
Mg42 O49 1.986 . S
Mg42 O51 2.114 . S
Mg42 O52 2.251 . S
Mg42 O55 2.010 . S
O43 Mg42 2.028 . S
O43 C46 1.250 . S
O44 Mg45 2.028 . S
O44 C46 1.248 . S
Mg45 O44 2.028 . S
Mg45 O50 2.032 . S
Mg45 O52 2.079 . S
C46 O43 1.250 . S
C46 O44 1.248 . S
C47 O48 1.264 . S
C47 O55 1.249 . S
O48 C47 1.264 . S
O49 Mg42 1.986 . S
O49 C53 1.246 . S
O50 Mg45 2.032 . S
O50 C53 1.259 . S
O51 Mg42 2.114 . S
O51 C54 1.252 . S
O52 Mg42 2.251 . S
O52 Mg45 2.079 . S
O52 C54 1.273 . S
C53 O49 1.246 . S
C53 O50 1.259 . S
C54 O51 1.252 . S
C54 O52 1.273 . S
O55 Mg42 2.010 . S
O55 C47 1.249 . S
Mg56 O57 2.028 . S
Mg56 O63 1.986 . S
Mg56 O65 2.114 . S
Mg56 O66 2.251 . S
Mg56 O69 2.010 . S
O57 Mg56 2.028 . S
O57 C60 1.250 . S
O58 Mg59 2.028 . S
O58 C60 1.248 . S
Mg59 O58 2.028 . S
Mg59 O64 2.032 . S
Mg59 O66 2.079 . S
C60 O57 1.250 . S
C60 O58 1.248 . S
C61 O62 1.264 . S
C61 O69 1.249 . S
O62 C61 1.264 . S
O63 Mg56 1.986 . S
O63 C67 1.246 . S
O64 Mg59 2.032 . S
O64 C67 1.259 . S
O65 Mg56 2.114 . S
O65 C68 1.252 . S
O66 Mg56 2.251 . S
O66 Mg59 2.079 . S
O66 C68 1.273 . S
C67 O63 1.246 . S
C67 O64 1.259 . S
C68 O65 1.252 . S
C68 O66 1.273 . S
O69 Mg56 2.010 . S
O69 C61 1.249 . S
Mg70 O71 2.028 . S
Mg70 O77 1.986 . S
Mg70 O79 2.114 . S
Mg70 O80 2.251 . S
Mg70 O83 2.010 . S
O71 Mg70 2.028 . S
O71 C74 1.250 . S
O72 Mg73 2.028 . S
O72 C74 1.248 . S
Mg73 O72 2.028 . S
Mg73 O78 2.032 . S
Mg73 O80 2.079 . S
C74 O71 1.250 . S
C74 O72 1.248 . S
C75 O76 1.264 . S
C75 O83 1.249 . S
O76 C75 1.264 . S
O77 Mg70 1.986 . S
O77 C81 1.246 . S
O78 Mg73 2.032 . S
O78 C81 1.259 . S
O79 Mg70 2.114 . S
O79 C82 1.252 . S
O80 Mg70 2.251 . S
O80 Mg73 2.079 . S
O80 C82 1.273 . S
C81 O77 1.246 . S
C81 O78 1.259 . S
C82 O79 1.252 . S
C82 O80 1.273 . S
O83 Mg70 2.010 . S
O83 C75 1.249 . S
Mg84 O85 2.028 . S
Mg84 O91 1.986 . S
Mg84 O93 2.114 . S
Mg84 O94 2.251 . S
Mg84 O97 2.010 . S
O85 Mg84 2.028 . S
O85 C88 1.250 . S
O86 Mg87 2.028 . S
O86 C88 1.248 . S
Mg87 O86 2.028 . S
Mg87 O92 2.032 . S
Mg87 O94 2.079 . S
C88 O85 1.250 . S
C88 O86 1.248 . S
C89 O90 1.264 . S
C89 O97 1.249 . S
O90 C89 1.264 . S
O91 Mg84 1.986 . S
O91 C95 1.246 . S
O92 Mg87 2.032 . S
O92 C95 1.259 . S
O93 Mg84 2.114 . S
O93 C96 1.252 . S
O94 Mg84 2.251 . S
O94 Mg87 2.079 . S
O94 C96 1.273 . S
C95 O91 1.246 . S
C95 O92 1.259 . S
C96 O93 1.252 . S
C96 O94 1.273 . S
O97 Mg84 2.010 . S
O97 C89 1.249 . S
Mg98 O99 2.028 . S
Mg98 O105 1.986 . S
Mg98 O107 2.114 . S
Mg98 O108 2.251 . S
Mg98 O111 2.010 . S
O99 Mg98 2.028 . S
O99 C102 1.250 . S
O100 Mg101 2.028 . S
O100 C102 1.248 . S
Mg101 O100 2.028 . S
Mg101 O106 2.032 . S
Mg101 O108 2.079 . S
C102 O99 1.250 . S
C102 O100 1.248 . S
C103 O104 1.264 . S
C103 O111 1.249 . S
O104 C103 1.264 . S
O105 Mg98 1.986 . S
O105 C109 1.246 . S
O106 Mg101 2.032 . S
O106 C109 1.259 . S
O107 Mg98 2.114 . S
O107 C110 1.252 . S
O108 Mg98 2.251 . S
O108 Mg101 2.079 . S
O108 C110 1.273 . S
C109 O105 1.246 . S
C109 O106 1.259 . S
C110 O107 1.252 . S
C110 O108 1.273 . S
O111 Mg98 2.010 . S
O111 C103 1.249 . S
Mg112 O113 2.028 . S
Mg112 O119 1.986 . S
Mg112 O121 2.114 . S
Mg112 O122 2.251 . S
Mg112 O125 2.010 . S
O113 Mg112 2.028 . S
O113 C116 1.250 . S
O114 Mg115 2.028 . S
O114 C116 1.248 . S
Mg115 O114 2.028 . S
Mg115 O120 2.032 . S
Mg115 O122 2.079 . S
C116 O113 1.250 . S
C116 O114 1.248 . S
C117 O118 1.264 . S
C117 O125 1.249 . S
O118 C117 1.264 . S
O119 Mg112 1.986 . S
O119 C123 1.246 . S
O120 Mg115 2.032 . S
O120 C123 1.259 . S
O121 Mg112 2.114 . S
O121 C124 1.252 . S
O122 Mg112 2.251 . S
O122 Mg115 2.079 . S
O122 C124 1.273 . S
C123 O119 1.246 . S
C123 O120 1.259 . S
C124 O121 1.252 . S
C124 O122 1.273 . S
O125 Mg112 2.010 . S
O125 C117 1.249 . S
Mg126 O127 2.028 . S
Mg126 O133 1.986 . S
Mg126 O135 2.114 . S
Mg126 O136 2.251 . S
Mg126 O139 2.010 . S
O127 Mg126 2.028 . S
O127 C130 1.250 . S
O128 Mg129 2.028 . S
O128 C130 1.248 . S
Mg129 O128 2.028 . S
Mg129 O134 2.032 . S
Mg129 O136 2.079 . S
C130 O127 1.250 . S
C130 O128 1.248 . S
C131 O132 1.264 . S
C131 O139 1.249 . S
O132 C131 1.264 . S
O133 Mg126 1.986 . S
O133 C137 1.246 . S
O134 Mg129 2.032 . S
O134 C137 1.259 . S
O135 Mg126 2.114 . S
O135 C138 1.252 . S
O136 Mg126 2.251 . S
O136 Mg129 2.079 . S
O136 C138 1.273 . S
C137 O133 1.246 . S
C137 O134 1.259 . S
C138 O135 1.252 . S
C138 O136 1.273 . S
O139 Mg126 2.010 . S
O139 C131 1.249 . S
Mg140 O141 2.028 . S
Mg140 O147 1.986 . S
Mg140 O149 2.114 . S
Mg140 O150 2.251 . S
Mg140 O153 2.010 . S
O141 Mg140 2.028 . S
O141 C144 1.250 . S
O142 Mg143 2.028 . S
O142 C144 1.248 . S
Mg143 O142 2.028 . S
Mg143 O148 2.032 . S
Mg143 O150 2.079 . S
C144 O141 1.250 . S
C144 O142 1.248 . S
C145 O146 1.264 . S
C145 O153 1.249 . S
O146 C145 1.264 . S
O147 Mg140 1.986 . S
O147 C151 1.246 . S
O148 Mg143 2.032 . S
O148 C151 1.259 . S
O149 Mg140 2.114 . S
O149 C152 1.252 . S
O150 Mg140 2.251 . S
O150 Mg143 2.079 . S
O150 C152 1.273 . S
C151 O147 1.246 . S
C151 O148 1.259 . S
C152 O149 1.252 . S
C152 O150 1.273 . S
O153 Mg140 2.010 . S
O153 C145 1.249 . S
Mg154 O155 2.028 . S
Mg154 O161 1.986 . S
Mg154 O163 2.114 . S
Mg154 O164 2.251 . S
Mg154 O167 2.010 . S
O155 Mg154 2.028 . S
O155 C158 1.250 . S
O156 Mg157 2.028 . S
O156 C158 1.248 . S
Mg157 O156 2.028 . S
Mg157 O162 2.032 . S
Mg157 O164 2.079 . S
C158 O155 1.250 . S
C158 O156 1.248 . S
C159 O160 1.264 . S
C159 O167 1.249 . S
O160 C159 1.264 . S
O161 Mg154 1.986 . S
O161 C165 1.246 . S
O162 Mg157 2.032 . S
O162 C165 1.259 . S
O163 Mg154 2.114 . S
O163 C166 1.252 . S
O164 Mg154 2.251 . S
O164 Mg157 2.079 . S
O164 C166 1.273 . S
C165 O161 1.246 . S
C165 O162 1.259 . S
C166 O163 1.252 . S
C166 O164 1.273 . S
O167 Mg154 2.010 . S
O167 C159 1.249 . S
Mg168 O169 2.028 . S
Mg168 O175 1.986 . S
Mg168 O177 2.114 . S
Mg168 O178 2.251 . S
Mg168 O181 2.010 . S
O169 Mg168 2.028 . S
O169 C172 1.250 . S
O170 Mg171 2.028 . S
O170 C172 1.248 . S
Mg171 O170 2.028 . S
Mg171 O176 2.032 . S
Mg171 O178 2.079 . S
C172 O169 1.250 . S
C172 O170 1.248 . S
C173 O174 1.264 . S
C173 O181 1.249 . S
O174 C173 1.264 . S
O175 Mg168 1.986 . S
O175 C179 1.246 . S
O176 Mg171 2.032 . S
O176 C179 1.259 . S
O177 Mg168 2.114 . S
O177 C180 1.252 . S
O178 Mg168 2.251 . S
O178 Mg171 2.079 . S
O178 C180 1.273 . S
C179 O175 1.246 . S
C179 O176 1.259 . S
C180 O177 1.252 . S
C180 O178 1.273 . S
O181 Mg168 2.010 . S
O181 C173 1.249 . S
Mg182 O183 2.028 . S
Mg182 O189 1.986 . S
Mg182 O191 2.114 . S
Mg182 O192 2.251 . S
Mg182 O195 2.010 . S
O183 Mg182 2.028 . S
O183 C186 1.250 . S
O184 Mg185 2.028 . S
O184 C186 1.248 . S
Mg185 O184 2.028 . S
Mg185 O190 2.032 . S
Mg185 O192 2.079 . S
C186 O183 1.250 . S
C186 O184 1.248 . S
C187 O188 1.264 . S
C187 O195 1.249 . S
O188 C187 1.264 . S
O189 Mg182 1.986 . S
O189 C193 1.246 . S
O190 Mg185 2.032 . S
O190 C193 1.259 . S
O191 Mg182 2.114 . S
O191 C194 1.252 . S
O192 Mg182 2.251 . S
O192 Mg185 2.079 . S
O192 C194 1.273 . S
C193 O189 1.246 . S
C193 O190 1.259 . S
C194 O191 1.252 . S
C194 O192 1.273 . S
O195 Mg182 2.010 . S
O195 C187 1.249 . S
Mg196 O197 2.028 . S
Mg196 O203 1.986 . S
Mg196 O205 2.114 . S
Mg196 O206 2.251 . S
Mg196 O209 2.010 . S
O197 Mg196 2.028 . S
O197 C200 1.250 . S
O198 Mg199 2.028 . S
O198 C200 1.248 . S
Mg199 O198 2.028 . S
Mg199 O204 2.032 . S
Mg199 O206 2.079 . S
C200 O197 1.250 . S
C200 O198 1.248 . S
C201 O202 1.264 . S
C201 O209 1.249 . S
O202 C201 1.264 . S
O203 Mg196 1.986 . S
O203 C207 1.246 . S
O204 Mg199 2.032 . S
O204 C207 1.259 . S
O205 Mg196 2.114 . S
O205 C208 1.252 . S
O206 Mg196 2.251 . S
O206 Mg199 2.079 . S
O206 C208 1.273 . S
C207 O203 1.246 . S
C207 O204 1.259 . S
C208 O205 1.252 . S
C208 O206 1.273 . S
O209 Mg196 2.010 . S
O209 C201 1.249 . S
Mg210 O211 2.028 . S
Mg210 O217 1.986 . S
Mg210 O219 2.114 . S
Mg210 O220 2.251 . S
Mg210 O223 2.010 . S
O211 Mg210 2.028 . S
O211 C214 1.250 . S
O212 Mg213 2.028 . S
O212 C214 1.248 . S
Mg213 O212 2.028 . S
Mg213 O218 2.032 . S
Mg213 O220 2.079 . S
C214 O211 1.250 . S
C214 O212 1.248 . S
C215 O216 1.264 . S
C215 O223 1.249 . S
O216 C215 1.264 . S
O217 Mg210 1.986 . S
O217 C221 1.246 . S
O218 Mg213 2.032 . S
O218 C221 1.259 . S
O219 Mg210 2.114 . S
O219 C222 1.252 . S
O220 Mg210 2.251 . S
O220 Mg213 2.079 . S
O220 C222 1.273 . S
C221 O217 1.246 . S
C221 O218 1.259 . S
C222 O219 1.252 . S
C222 O220 1.273 . S
O223 Mg210 2.010 . S
O223 C215 1.249 . S
Mg224 O225 2.028 . S
Mg224 O231 1.986 . S
Mg224 O233 2.114 . S
Mg224 O234 2.251 . S
Mg224 O237 2.010 . S
O225 Mg224 2.028 . S
O225 C228 1.250 . S
O226 Mg227 2.028 . S
O226 C228 1.248 . S
Mg227 O226 2.028 . S
Mg227 O232 2.032 . S
Mg227 O234 2.079 . S
C228 O225 1.250 . S
C228 O226 1.248 . S
C229 O230 1.264 . S
C229 O237 1.249 . S
O230 C229 1.264 . S
O231 Mg224 1.986 . S
O231 C235 1.246 . S
O232 Mg227 2.032 . S
O232 C235 1.259 . S
O233 Mg224 2.114 . S
O233 C236 1.252 . S
O234 Mg224 2.251 . S
O234 Mg227 2.079 . S
O234 C236 1.273 . S
C235 O231 1.246 . S
C235 O232 1.259 . S
C236 O233 1.252 . S
C236 O234 1.273 . S
O237 Mg224 2.010 . S
O237 C229 1.249 . S
Mg238 O239 2.028 . S
Mg238 O245 1.986 . S
Mg238 O247 2.114 . S
Mg238 O248 2.251 . S
Mg238 O251 2.010 . S
O239 Mg238 2.028 . S
O239 C242 1.250 . S
O240 Mg241 2.028 . S
O240 C242 1.248 . S
Mg241 O240 2.028 . S
Mg241 O246 2.032 . S
Mg241 O248 2.079 . S
C242 O239 1.250 . S
C242 O240 1.248 . S
C243 O244 1.264 . S
C243 O251 1.249 . S
O244 C243 1.264 . S
O245 Mg238 1.986 . S
O245 C249 1.246 . S
O246 Mg241 2.032 . S
O246 C249 1.259 . S
O247 Mg238 2.114 . S
O247 C250 1.252 . S
O248 Mg238 2.251 . S
O248 Mg241 2.079 . S
O248 C250 1.273 . S
C249 O245 1.246 . S
C249 O246 1.259 . S
C250 O247 1.252 . S
C250 O248 1.273 . S
O251 Mg238 2.010 . S
O251 C243 1.249 . S
Mg252 O253 2.028 . S
Mg252 O259 1.986 . S
Mg252 O261 2.114 . S
Mg252 O262 2.251 . S
Mg252 O265 2.010 . S
O253 Mg252 2.028 . S
O253 C256 1.250 . S
O254 Mg255 2.028 . S
O254 C256 1.248 . S
Mg255 O254 2.028 . S
Mg255 O260 2.032 . S
Mg255 O262 2.079 . S
C256 O253 1.250 . S
C256 O254 1.248 . S
C257 O258 1.264 . S
C257 O265 1.249 . S
O258 C257 1.264 . S
O259 Mg252 1.986 . S
O259 C263 1.246 . S
O260 Mg255 2.032 . S
O260 C263 1.259 . S
O261 Mg252 2.114 . S
O261 C264 1.252 . S
O262 Mg252 2.251 . S
O262 Mg255 2.079 . S
O262 C264 1.273 . S
C263 O259 1.246 . S
C263 O260 1.259 . S
C264 O261 1.252 . S
C264 O262 1.273 . S
O265 Mg252 2.010 . S
O265 C257 1.249 . S
Mg266 O267 2.028 . S
Mg266 O273 1.986 . S
Mg266 O275 2.114 . S
Mg266 O276 2.251 . S
Mg266 O279 2.010 . S
O267 Mg266 2.028 . S
O267 C270 1.250 . S
O268 Mg269 2.028 . S
O268 C270 1.248 . S
Mg269 O268 2.028 . S
Mg269 O274 2.032 . S
Mg269 O276 2.079 . S
C270 O267 1.250 . S
C270 O268 1.248 . S
C271 O272 1.264 . S
C271 O279 1.249 . S
O272 C271 1.264 . S
O273 Mg266 1.986 . S
O273 C277 1.246 . S
O274 Mg269 2.032 . S
O274 C277 1.259 . S
O275 Mg266 2.114 . S
O275 C278 1.252 . S
O276 Mg266 2.251 . S
O276 Mg269 2.079 . S
O276 C278 1.273 . S
C277 O273 1.246 . S
C277 O274 1.259 . S
C278 O275 1.252 . S
C278 O276 1.273 . S
O279 Mg266 2.010 . S
O279 C271 1.249 . S
Mg280 O281 2.028 . S
Mg280 O287 1.986 . S
Mg280 O289 2.114 . S
Mg280 O290 2.251 . S
Mg280 O293 2.010 . S
O281 Mg280 2.028 . S
O281 C284 1.250 . S
O282 Mg283 2.028 . S
O282 C284 1.248 . S
Mg283 O282 2.028 . S
Mg283 O288 2.032 . S
Mg283 O290 2.079 . S
C284 O281 1.250 . S
C284 O282 1.248 . S
C285 O286 1.264 . S
C285 O293 1.249 . S
O286 C285 1.264 . S
O287 Mg280 1.986 . S
O287 C291 1.246 . S
O288 Mg283 2.032 . S
O288 C291 1.259 . S
O289 Mg280 2.114 . S
O289 C292 1.252 . S
O290 Mg280 2.251 . S
O290 Mg283 2.079 . S
O290 C292 1.273 . S
C291 O287 1.246 . S
C291 O288 1.259 . S
C292 O289 1.252 . S
C292 O290 1.273 . S
O293 Mg280 2.010 . S
O293 C285 1.249 . S
Mg294 O295 2.028 . S
Mg294 O301 1.986 . S
Mg294 O303 2.114 1_556 S
Mg294 O304 2.251 1_556 S
Mg294 O307 2.010 . S
O295 Mg294 2.028 . S
O295 C298 1.250 . S
O296 Mg297 2.028 . S
O296 C298 1.248 . S
Mg297 O296 2.028 . S
Mg297 O302 2.032 . S
Mg297 O304 2.079 1_556 S
C298 O295 1.250 . S
C298 O296 1.248 . S
C299 O300 1.264 . S
C299 O307 1.249 . S
O300 C299 1.264 . S
O301 Mg294 1.986 . S
O301 C305 1.246 . S
O302 Mg297 2.032 . S
O302 C305 1.259 . S
O303 Mg294 2.114 1_554 S
O303 C306 1.252 . S
O304 Mg294 2.251 1_554 S
O304 Mg297 2.079 1_554 S
O304 C306 1.273 . S
C305 O301 1.246 . S
C305 O302 1.259 . S
C306 O303 1.252 . S
C306 O304 1.273 . S
O307 Mg294 2.010 . S
O307 C299 1.249 . S
Mg308 O309 2.028 . S
Mg308 O315 1.986 . S
Mg308 O317 2.114 . S
Mg308 O318 2.251 1_556 S
Mg308 O321 2.010 . S
O309 Mg308 2.028 . S
O309 C312 1.250 . S
O310 Mg311 2.028 . S
O310 C312 1.248 . S
Mg311 O310 2.028 . S
Mg311 O316 2.032 . S
Mg311 O318 2.079 1_556 S
C312 O309 1.250 . S
C312 O310 1.248 . S
C313 O314 1.264 . S
C313 O321 1.249 . S
O314 C313 1.264 . S
O315 Mg308 1.986 . S
O315 C319 1.246 . S
O316 Mg311 2.032 . S
O316 C319 1.259 . S
O317 Mg308 2.114 . S
O317 C320 1.252 1_556 S
O318 Mg308 2.251 1_554 S
O318 Mg311 2.079 1_554 S
O318 C320 1.273 . S
C319 O315 1.246 . S
C319 O316 1.259 . S
C320 O317 1.252 1_554 S
C320 O318 1.273 . S
O321 Mg308 2.010 . S
O321 C313 1.249 . S
Mg322 O323 2.028 . S
Mg322 O329 1.986 . S
Mg322 O331 2.114 . S
Mg322 O332 2.260 . S
Mg322 O335 2.010 . S
O323 Mg322 2.028 . S
O323 C326 1.250 . S
O324 Mg325 2.028 . S
O324 C326 1.248 . S
Mg325 O324 2.028 . S
Mg325 O330 2.032 . S
Mg325 O332 2.085 . S
C326 O323 1.250 . S
C326 O324 1.248 . S
C327 O328 1.264 . S
C327 O335 1.249 . S
O328 C327 1.264 . S
O329 Mg322 1.986 . S
O329 C333 1.246 . S
O330 Mg325 2.032 . S
O330 C333 1.259 . S
O331 Mg322 2.114 . S
O331 C334 1.252 1_556 S
O332 Mg322 2.260 . S
O332 Mg325 2.085 . S
O332 C334 1.269 1_556 S
C333 O329 1.246 . S
C333 O330 1.259 . S
C334 O331 1.252 1_554 S
C334 O332 1.269 1_554 S
O335 Mg322 2.010 . S
O335 C327 1.249 . S
Mg336 O337 2.028 . S
Mg336 O343 1.986 . S
Mg336 O345 2.114 . S
Mg336 O346 2.251 . S
Mg336 O349 2.010 . S
O337 Mg336 2.028 . S
O337 C340 1.250 . S
O338 Mg339 2.028 . S
O338 C340 1.248 . S
Mg339 O338 2.028 . S
Mg339 O344 2.032 . S
Mg339 O346 2.079 . S
C340 O337 1.250 . S
C340 O338 1.248 . S
C341 O342 1.264 . S
C341 O349 1.249 . S
O342 C341 1.264 . S
O343 Mg336 1.986 . S
O343 C347 1.246 . S
O344 Mg339 2.032 . S
O344 C347 1.259 . S
O345 Mg336 2.114 . S
O345 C348 1.252 . S
O346 Mg336 2.251 . S
O346 Mg339 2.079 . S
O346 C348 1.273 . S
C347 O343 1.246 . S
C347 O344 1.259 . S
C348 O345 1.252 . S
C348 O346 1.273 . S
O349 Mg336 2.010 . S
O349 C341 1.249 . S
Mg350 O351 2.028 . S
Mg350 O357 1.986 . S
Mg350 O359 2.114 . S
Mg350 O360 2.251 . S
Mg350 O363 2.010 . S
O351 Mg350 2.028 . S
O351 C354 1.250 . S
O352 Mg353 2.028 . S
O352 C354 1.248 . S
Mg353 O352 2.028 . S
Mg353 O358 2.032 . S
Mg353 O360 2.079 . S
C354 O351 1.250 . S
C354 O352 1.248 . S
C355 O356 1.264 . S
C355 O363 1.249 . S
O356 C355 1.264 . S
O357 Mg350 1.986 . S
O357 C361 1.246 . S
O358 Mg353 2.032 . S
O358 C361 1.259 . S
O359 Mg350 2.114 . S
O359 C362 1.252 . S
O360 Mg350 2.251 . S
O360 Mg353 2.079 . S
O360 C362 1.273 . S
C361 O357 1.246 . S
C361 O358 1.259 . S
C362 O359 1.252 . S
C362 O360 1.273 . S
O363 Mg350 2.010 . S
O363 C355 1.249 . S
Mg364 O365 2.028 . S
Mg364 O371 1.986 . S
Mg364 O373 2.114 . S
Mg364 O374 2.251 . S
Mg364 O377 2.010 . S
O365 Mg364 2.028 . S
O365 C368 1.250 . S
O366 Mg367 2.028 . S
O366 C368 1.248 . S
Mg367 O366 2.028 . S
Mg367 O372 2.032 . S
Mg367 O374 2.079 . S
C368 O365 1.250 . S
C368 O366 1.248 . S
C369 O370 1.264 . S
C369 O377 1.249 . S
O370 C369 1.264 . S
O371 Mg364 1.986 . S
O371 C375 1.246 . S
O372 Mg367 2.032 . S
O372 C375 1.259 . S
O373 Mg364 2.114 . S
O373 C376 1.252 . S
O374 Mg364 2.251 . S
O374 Mg367 2.079 . S
O374 C376 1.273 . S
C375 O371 1.246 . S
C375 O372 1.259 . S
C376 O373 1.252 . S
C376 O374 1.273 . S
O377 Mg364 2.010 . S
O377 C369 1.249 . S
Mg378 O379 2.028 . S
Mg378 O385 1.986 . S
Mg378 O387 2.114 1_554 S
Mg378 O388 2.251 1_554 S
Mg378 O391 2.010 . S
O379 Mg378 2.028 . S
O379 C382 1.250 . S
O380 Mg381 2.028 . S
O380 C382 1.248 . S
Mg381 O380 2.028 . S
Mg381 O386 2.032 . S
Mg381 O388 2.079 1_554 S
C382 O379 1.250 . S
C382 O380 1.248 . S
C383 O384 1.264 . S
C383 O391 1.249 . S
O384 C383 1.264 . S
O385 Mg378 1.986 . S
O385 C389 1.246 . S
O386 Mg381 2.032 . S
O386 C389 1.259 . S
O387 Mg378 2.114 1_556 S
O387 C390 1.252 . S
O388 Mg378 2.251 1_556 S
O388 Mg381 2.079 1_556 S
O388 C390 1.273 . S
C389 O385 1.246 . S
C389 O386 1.259 . S
C390 O387 1.252 . S
C390 O388 1.273 . S
O391 Mg378 2.010 . S
O391 C383 1.249 . S
Mg392 O393 2.028 . S
Mg392 O399 1.986 . S
Mg392 O401 2.114 1_554 S
Mg392 O402 2.251 1_554 S
Mg392 O405 2.010 . S
O393 Mg392 2.028 . S
O393 C396 1.250 . S
O394 Mg395 2.028 . S
O394 C396 1.248 . S
Mg395 O394 2.028 . S
Mg395 O400 2.032 . S
Mg395 O402 2.079 1_554 S
C396 O393 1.250 . S
C396 O394 1.248 . S
C397 O398 1.264 . S
C397 O405 1.249 . S
O398 C397 1.264 . S
O399 Mg392 1.986 . S
O399 C403 1.246 . S
O400 Mg395 2.032 . S
O400 C403 1.259 . S
O401 Mg392 2.114 1_556 S
O401 C404 1.252 . S
O402 Mg392 2.251 1_556 S
O402 Mg395 2.079 1_556 S
O402 C404 1.273 . S
C403 O399 1.246 . S
C403 O400 1.259 . S
C404 O401 1.252 . S
C404 O402 1.273 . S
O405 Mg392 2.010 . S
O405 C397 1.249 . S
Mg406 O407 2.028 . S
Mg406 O413 1.986 . S
Mg406 O415 2.114 . S
Mg406 O416 2.251 . S
Mg406 O419 2.010 . S
O407 Mg406 2.028 . S
O407 C410 1.250 1_554 S
O408 Mg409 2.028 . S
O408 C410 1.248 1_554 S
Mg409 O408 2.028 . S
Mg409 O414 2.032 . S
Mg409 O416 2.079 . S
C410 O407 1.250 1_556 S
C410 O408 1.248 1_556 S
C411 O412 1.264 . S
C411 O419 1.249 . S
O412 C411 1.264 . S
O413 Mg406 1.986 . S
O413 C417 1.246 . S
O414 Mg409 2.032 . S
O414 C417 1.259 . S
O415 Mg406 2.114 . S
O415 C418 1.252 . S
O416 Mg406 2.251 . S
O416 Mg409 2.079 . S
O416 C418 1.273 . S
C417 O413 1.246 . S
C417 O414 1.259 . S
C418 O415 1.252 . S
C418 O416 1.273 . S
O419 Mg406 2.010 . S
O419 C411 1.249 . S
Mg420 O421 2.028 . S
Mg420 O427 1.986 . S
Mg420 O429 2.114 . S
Mg420 O430 2.251 . S
Mg420 O433 2.010 . S
O421 Mg420 2.028 . S
O421 C424 1.250 . S
O422 Mg423 2.028 . S
O422 C424 1.248 . S
Mg423 O422 2.028 . S
Mg423 O428 2.032 . S
Mg423 O430 2.079 . S
C424 O421 1.250 . S
C424 O422 1.248 . S
C425 O426 1.264 . S
C425 O433 1.249 . S
O426 C425 1.264 . S
O427 Mg420 1.986 . S
O427 C431 1.246 . S
O428 Mg423 2.032 . S
O428 C431 1.259 . S
O429 Mg420 2.114 . S
O429 C432 1.252 . S
O430 Mg420 2.251 . S
O430 Mg423 2.079 . S
O430 C432 1.273 . S
C431 O427 1.246 . S
C431 O428 1.259 . S
C432 O429 1.252 . S
C432 O430 1.273 . S
O433 Mg420 2.010 . S
O433 C425 1.249 . S
Mg434 O435 2.028 . S
Mg434 O441 1.986 . S
Mg434 O443 2.114 . S
Mg434 O444 2.251 . S
Mg434 O447 2.010 . S
O435 Mg434 2.028 . S
O435 C438 1.250 . S
O436 Mg437 2.028 . S
O436 C438 1.248 . S
Mg437 O436 2.028 . S
Mg437 O442 2.032 . S
Mg437 O444 2.079 . S
C438 O435 1.250 . S
C438 O436 1.248 . S
C439 O440 1.264 . S
C439 O447 1.249 . S
O440 C439 1.264 . S
O441 Mg434 1.986 . S
O441 C445 1.246 . S
O442 Mg437 2.032 . S
O442 C445 1.259 . S
O443 Mg434 2.114 . S
O443 C446 1.252 . S
O444 Mg434 2.251 . S
O444 Mg437 2.079 . S
O444 C446 1.273 . S
C445 O441 1.246 . S
C445 O442 1.259 . S
C446 O443 1.252 . S
C446 O444 1.273 . S
O447 Mg434 2.010 . S
O447 C439 1.249 . S
Mg448 O449 2.028 . S
Mg448 O455 1.986 . S
Mg448 O457 2.114 . S
Mg448 O458 2.251 . S
Mg448 O461 2.010 . S
O449 Mg448 2.028 . S
O449 C452 1.250 . S
O450 Mg451 2.028 . S
O450 C452 1.248 . S
Mg451 O450 2.028 . S
Mg451 O456 2.032 . S
Mg451 O458 2.079 . S
C452 O449 1.250 . S
C452 O450 1.248 . S
C453 O454 1.264 . S
C453 O461 1.249 . S
O454 C453 1.264 . S
O455 Mg448 1.986 . S
O455 C459 1.246 . S
O456 Mg451 2.032 . S
O456 C459 1.259 . S
O457 Mg448 2.114 . S
O457 C460 1.252 . S
O458 Mg448 2.251 . S
O458 Mg451 2.079 . S
O458 C460 1.273 . S
C459 O455 1.246 . S
C459 O456 1.259 . S
C460 O457 1.252 . S
C460 O458 1.273 . S
O461 Mg448 2.010 . S
O461 C453 1.249 . S
Mg462 O463 2.028 . S
Mg462 O469 1.986 . S
Mg462 O471 2.114 . S
Mg462 O472 2.251 . S
Mg462 O475 2.010 . S
O463 Mg462 2.028 . S
O463 C466 1.250 . S
O464 Mg465 2.028 . S
O464 C466 1.248 . S
Mg465 O464 2.028 . S
Mg465 O470 2.032 . S
Mg465 O472 2.079 . S
C466 O463 1.250 . S
C466 O464 1.248 . S
C467 O468 1.264 . S
C467 O475 1.249 . S
O468 C467 1.264 . S
O469 Mg462 1.986 . S
O469 C473 1.246 . S
O470 Mg465 2.032 . S
O470 C473 1.259 . S
O471 Mg462 2.114 . S
O471 C474 1.252 . S
O472 Mg462 2.251 . S
O472 Mg465 2.079 . S
O472 C474 1.273 . S
C473 O469 1.246 . S
C473 O470 1.259 . S
C474 O471 1.252 . S
C474 O472 1.273 . S
O475 Mg462 2.010 . S
O475 C467 1.249 . S
Mg476 O477 2.028 . S
Mg476 O483 1.986 . S
Mg476 O485 2.114 . S
Mg476 O486 2.251 . S
Mg476 O489 2.010 . S
O477 Mg476 2.028 . S
O477 C480 1.250 . S
O478 Mg479 2.028 . S
O478 C480 1.248 . S
Mg479 O478 2.028 . S
Mg479 O484 2.032 . S
Mg479 O486 2.079 . S
C480 O477 1.250 . S
C480 O478 1.248 . S
C481 O482 1.264 . S
C481 O489 1.249 . S
O482 C481 1.264 . S
O483 Mg476 1.986 . S
O483 C487 1.246 . S
O484 Mg479 2.032 . S
O484 C487 1.259 . S
O485 Mg476 2.114 . S
O485 C488 1.252 . S
O486 Mg476 2.251 . S
O486 Mg479 2.079 . S
O486 C488 1.273 . S
C487 O483 1.246 . S
C487 O484 1.259 . S
C488 O485 1.252 . S
C488 O486 1.273 . S
O489 Mg476 2.010 . S
O489 C481 1.249 . S
Mg490 O491 2.028 . S
Mg490 O497 1.986 . S
Mg490 O499 2.114 . S
Mg490 O500 2.251 . S
Mg490 O503 2.010 . S
O491 Mg490 2.028 . S
O491 C494 1.250 . S
O492 Mg493 2.028 . S
O492 C494 1.248 . S
Mg493 O492 2.028 . S
Mg493 O498 2.032 . S
Mg493 O500 2.079 . S
C494 O491 1.250 . S
C494 O492 1.248 . S
C495 O496 1.264 . S
C495 O503 1.249 . S
O496 C495 1.264 . S
O497 Mg490 1.986 . S
O497 C501 1.246 . S
O498 Mg493 2.032 . S
O498 C501 1.259 . S
O499 Mg490 2.114 . S
O499 C502 1.252 . S
O500 Mg490 2.251 . S
O500 Mg493 2.079 . S
O500 C502 1.273 . S
C501 O497 1.246 . S
C501 O498 1.259 . S
C502 O499 1.252 . S
C502 O500 1.273 . S
O503 Mg490 2.010 . S
O503 C495 1.249 . S
H504 C510 0.930 . S
H505 C513 0.930 . S
H506 C514 0.930 . S
H507 C515 0.930 . S
H508 C518 0.930 . S
H509 C519 0.931 1_545 S
C510 H504 0.930 . S
C510 C511 1.355 . S
C510 C512 1.415 . S
C511 C510 1.355 . S
C511 C513 1.419 . S
C512 C510 1.415 . S
C512 C517 1.425 1_545 S
C512 C519 1.409 1_544 S
C513 H505 0.930 . S
C513 C511 1.419 . S
C513 C514 1.362 1_545 S
C514 H506 0.930 . S
C514 C513 1.362 1_565 S
C514 C517 1.409 . S
C515 H507 0.930 . S
C515 C516 1.355 . S
C515 C517 1.415 1_556 S
C516 C515 1.355 . S
C516 C518 1.419 . S
C517 C512 1.425 1_565 S
C517 C514 1.409 . S
C517 C515 1.415 1_554 S
C518 H508 0.930 . S
C518 C516 1.419 . S
C518 C519 1.362 . S
C519 H509 0.931 1_565 S
C519 C512 1.409 1_566 S
C519 C518 1.362 . S
H520 C526 0.930 . S
H521 C529 0.930 . S
H522 C530 0.930 . S
H523 C531 0.930 . S
H524 C534 0.930 . S
H525 C535 0.930 . S
C526 H520 0.930 . S
C526 C527 1.355 1_455 S
C526 C528 1.415 . S
C527 C526 1.355 1_655 S
C527 C529 1.419 . S
C528 C526 1.415 . S
C528 C533 1.425 1_554 S
C528 C535 1.409 . S
C529 H521 0.930 . S
C529 C527 1.419 . S
C529 C530 1.362 1_554 S
C530 H522 0.930 . S
C530 C529 1.362 1_556 S
C530 C533 1.409 1_655 S
C531 H523 0.930 . S
C531 C532 1.355 . S
C531 C533 1.415 . S
C532 C531 1.355 . S
C532 C534 1.419 . S
C533 C528 1.425 1_556 S
C533 C530 1.409 1_455 S
C533 C531 1.415 . S
C534 H524 0.930 . S
C534 C532 1.419 . S
C534 C535 1.362 1_556 S
C535 H525 0.930 . S
C535 C528 1.409 . S
C535 C534 1.362 1_554 S
H536 C542 0.930 1_554 S
H537 C545 0.930 . S
H538 C546 0.930 . S
H539 C547 0.930 . S
H540 C550 0.930 . S
H541 C551 0.930 . S
C542 H536 0.930 1_556 S
C542 C543 1.355 . S
C542 C544 1.415 1_556 S
C543 C542 1.355 . S
C543 C545 1.419 . S
C544 C542 1.415 1_554 S
C544 C549 1.425 . S
C544 C551 1.409 . S
C545 H537 0.930 . S
C545 C543 1.419 . S
C545 C546 1.362 . S
C546 H538 0.930 . S
C546 C545 1.362 . S
C546 C549 1.409 1_556 S
C547 H539 0.930 . S
C547 C548 1.355 . S
C547 C549 1.415 . S
C548 C547 1.355 . S
C548 C550 1.419 . S
C549 C544 1.425 . S
C549 C546 1.409 1_554 S
C549 C547 1.415 . S
C550 H540 0.930 . S
C550 C548 1.419 . S
C550 C551 1.362 . S
C551 H541 0.930 . S
C551 C544 1.409 . S
C551 C550 1.362 . S
H552 C558 0.930 . S
H553 C561 0.930 . S
H554 C562 0.930 . S
H555 C563 0.930 1_655 S
H556 C566 0.930 . S
H557 C567 0.930 . S
C558 H552 0.930 . S
C558 C559 1.355 . S
C558 C560 1.415 . S
C559 C558 1.355 . S
C559 C561 1.419 . S
C560 C558 1.415 . S
C560 C565 1.425 . S
C560 C567 1.409 1_655 S
C561 H553 0.930 . S
C561 C559 1.419 . S
C561 C562 1.362 . S
C562 H554 0.930 . S
C562 C561 1.362 . S
C562 C565 1.409 . S
C563 H555 0.930 1_455 S
C563 C564 1.355 . S
C563 C565 1.415 1_455 S
C564 C563 1.355 . S
C564 C566 1.419 . S
C565 C560 1.425 . S
C565 C562 1.409 . S
C565 C563 1.415 1_655 S
C566 H556 0.930 . S
C566 C564 1.419 . S
C566 C567 1.362 . S
C567 H557 0.930 . S
C567 C560 1.409 1_455 S
C567 C566 1.362 . S
H568 C574 0.930 . S
H569 C577 0.930 . S
H570 C578 0.930 . S
H571 C579 0.930 . S
H572 C582 0.930 . S
H573 C583 0.930 . S
C574 H568 0.930 . S
C574 C575 1.355 . S
C574 C576 1.415 . S
C575 C574 1.355 . S
C575 C577 1.419 . S
C576 C574 1.415 . S
C576 C581 1.425 . S
C576 C583 1.409 . S
C577 H569 0.930 . S
C577 C575 1.419 . S
C577 C578 1.362 . S
C578 H570 0.930 . S
C578 C577 1.362 . S
C578 C581 1.409 . S
C579 H571 0.930 . S
C579 C580 1.355 . S
C579 C581 1.415 . S
C580 C579 1.355 . S
C580 C582 1.419 . S
C581 C576 1.425 . S
C581 C578 1.409 . S
C581 C579 1.415 . S
C582 H572 0.930 . S
C582 C580 1.419 . S
C582 C583 1.362 . S
C583 H573 0.930 . S
C583 C576 1.409 . S
C583 C582 1.362 . S
H584 C590 0.931 . S
H585 C593 0.930 . S
H586 C594 0.930 . S
H587 C595 0.930 . S
H588 C598 0.930 . S
H589 C599 0.930 . S
C590 H584 0.931 . S
C590 C591 1.352 1_545 S
C590 C592 1.416 . S
C591 C590 1.352 1_565 S
C591 C593 1.419 . S
C592 C590 1.416 . S
C592 C597 1.425 . S
C592 C599 1.409 . S
C593 H585 0.930 . S
C593 C591 1.419 . S
C593 C594 1.362 . S
C594 H586 0.930 . S
C594 C593 1.362 . S
C594 C597 1.409 1_565 S
C595 H587 0.930 . S
C595 C596 1.355 . S
C595 C597 1.415 . S
C596 C595 1.355 . S
C596 C598 1.419 . S
C597 C592 1.425 . S
C597 C594 1.409 1_545 S
C597 C595 1.415 . S
C598 H588 0.930 . S
C598 C596 1.419 . S
C598 C599 1.362 . S
C599 H589 0.930 . S
C599 C592 1.409 . S
C599 C598 1.362 . S
H600 C606 0.930 . S
H601 C609 0.930 . S
H602 C610 0.930 1_565 S
H603 C611 0.930 . S
H604 C614 0.930 . S
H605 C615 0.930 . S
C606 H600 0.930 . S
C606 C607 1.355 . S
C606 C608 1.415 1_554 S
C607 C606 1.355 . S
C607 C609 1.419 . S
C608 C606 1.415 1_556 S
C608 C613 1.425 . S
C608 C615 1.409 . S
C609 H601 0.930 . S
C609 C607 1.419 . S
C609 C610 1.362 . S
C610 H602 0.930 1_545 S
C610 C609 1.362 . S
C610 C613 1.409 1_554 S
C611 H603 0.930 . S
C611 C612 1.355 . S
C611 C613 1.415 1_565 S
C612 C611 1.355 . S
C612 C614 1.419 . S
C613 C608 1.425 . S
C613 C610 1.409 1_556 S
C613 C611 1.415 1_545 S
C614 H604 0.930 . S
C614 C612 1.419 . S
C614 C615 1.362 1_565 S
C615 H605 0.930 . S
C615 C608 1.409 . S
C615 C614 1.362 1_545 S
H616 C622 0.930 . S
H617 C625 0.930 . S
H618 C626 0.930 1_455 S
H619 C627 0.930 . S
H620 C630 0.930 . S
H621 C631 0.930 . S
C622 H616 0.930 . S
C622 C623 1.355 . S
C622 C624 1.415 1_554 S
C623 C622 1.355 . S
C623 C625 1.419 . S
C624 C622 1.415 1_556 S
C624 C629 1.428 . S
C624 C631 1.409 . S
C625 H617 0.930 . S
C625 C623 1.419 . S
C625 C626 1.362 . S
C626 H618 0.930 1_655 S
C626 C625 1.362 . S
C626 C629 1.414 1_554 S
C627 H619 0.930 . S
C627 C628 1.355 . S
C627 C629 1.407 1_455 S
C628 C627 1.355 . S
C628 C630 1.419 . S
C629 C624 1.428 . S
C629 C626 1.414 1_556 S
C629 C627 1.407 1_655 S
C630 H620 0.930 . S
C630 C628 1.419 . S
C630 C631 1.362 1_455 S
C631 H621 0.930 . S
C631 C624 1.409 . S
C631 C630 1.362 1_655 S
H632 C638 0.930 . S
H633 C641 0.930 . S
H634 C642 0.930 . S
H635 C643 0.930 1_556 S
H636 C646 0.930 . S
H637 C647 0.930 . S
C638 H632 0.930 . S
C638 C639 1.355 . S
C638 C640 1.415 . S
C639 C638 1.355 . S
C639 C641 1.419 . S
C640 C638 1.415 . S
C640 C645 1.425 . S
C640 C647 1.409 1_556 S
C641 H633 0.930 . S
C641 C639 1.419 . S
C641 C642 1.362 . S
C642 H634 0.930 . S
C642 C641 1.362 . S
C642 C645 1.409 . S
C643 H635 0.930 1_554 S
C643 C644 1.355 . S
C643 C645 1.415 1_554 S
C644 C643 1.355 . S
C644 C646 1.419 . S
C645 C640 1.425 . S
C645 C642 1.409 . S
C645 C643 1.415 1_556 S
C646 H636 0.930 . S
C646 C644 1.419 . S
C646 C647 1.362 . S
C647 H637 0.930 . S
C647 C640 1.409 1_554 S
C647 C646 1.362 . S
H648 C654 0.945 . S
H649 C657 0.930 . S
H650 C658 0.930 . S
H651 C659 0.930 . S
H652 C662 0.930 . S
H653 C663 0.930 . S
C654 H648 0.945 . S
C654 C655 1.355 . S
C654 C656 1.415 1_655 S
C655 C654 1.355 . S
C655 C657 1.419 . S
C656 C654 1.415 1_455 S
C656 C661 1.417 1_455 S
C656 C663 1.409 . S
C657 H649 0.930 . S
C657 C655 1.419 . S
C657 C658 1.362 . S
C658 H650 0.930 . S
C658 C657 1.362 . S
C658 C661 1.425 . S
C659 H651 0.930 . S
C659 C660 1.355 . S
C659 C661 1.407 1_455 S
C660 C659 1.355 . S
C660 C662 1.419 . S
C661 C656 1.417 1_655 S
C661 C658 1.425 . S
C661 C659 1.407 1_655 S
C662 H652 0.930 . S
C662 C660 1.419 . S
C662 C663 1.362 . S
C663 H653 0.930 . S
C663 C656 1.409 . S
C663 C662 1.362 . S
H664 C670 0.930 . S
H665 C673 0.930 . S
H666 C674 0.930 . S
H667 C675 0.930 . S
H668 C678 0.930 . S
H669 C679 0.930 . S
C670 H664 0.930 . S
C670 C671 1.355 . S
C670 C672 1.415 . S
C671 C670 1.355 . S
C671 C673 1.419 . S
C672 C670 1.415 . S
C672 C677 1.425 . S
C672 C679 1.409 . S
C673 H665 0.930 . S
C673 C671 1.419 . S
C673 C674 1.362 . S
C674 H666 0.930 . S
C674 C673 1.362 . S
C674 C677 1.409 . S
C675 H667 0.930 . S
C675 C676 1.355 . S
C675 C677 1.415 . S
C676 C675 1.355 . S
C676 C678 1.419 . S
C677 C672 1.425 . S
C677 C674 1.409 . S
C677 C675 1.415 . S
C678 H668 0.930 . S
C678 C676 1.419 . S
C678 C679 1.362 . S
C679 H669 0.930 . S
C679 C672 1.409 . S
C679 C678 1.362 . S
H680 C686 0.930 . S
H681 C689 0.930 . S
H682 C690 0.930 . S
H683 C691 0.930 . S
H684 C694 0.930 . S
H685 C695 0.930 1_545 S
C686 H680 0.930 . S
C686 C687 1.355 . S
C686 C688 1.415 1_545 S
C687 C686 1.355 . S
C687 C689 1.419 . S
C688 C686 1.415 1_565 S
C688 C693 1.425 . S
C688 C695 1.409 . S
C689 H681 0.930 . S
C689 C687 1.419 . S
C689 C690 1.362 1_545 S
C690 H682 0.930 . S
C690 C689 1.362 1_565 S
C690 C693 1.409 . S
C691 H683 0.930 . S
C691 C692 1.355 . S
C691 C693 1.415 . S
C692 C691 1.355 . S
C692 C694 1.419 . S
C693 C688 1.425 . S
C693 C690 1.409 . S
C693 C691 1.415 . S
C694 H684 0.930 . S
C694 C692 1.419 . S
C694 C695 1.362 . S
C695 H685 0.930 1_565 S
C695 C688 1.409 . S
C695 C694 1.362 . S
H696 C702 0.930 . S
H697 C705 0.930 . S
H698 C706 0.930 . S
H699 C707 0.930 . S
H700 C710 0.930 . S
H701 C711 0.930 . S
C702 H696 0.930 . S
C702 C703 1.355 . S
C702 C704 1.415 . S
C703 C702 1.355 . S
C703 C705 1.419 . S
C704 C702 1.415 . S
C704 C709 1.425 . S
C704 C711 1.409 . S
C705 H697 0.930 . S
C705 C703 1.419 . S
C705 C706 1.362 . S
C706 H698 0.930 . S
C706 C705 1.362 . S
C706 C709 1.409 . S
C707 H699 0.930 . S
C707 C708 1.355 . S
C707 C709 1.415 . S
C708 C707 1.355 . S
C708 C710 1.419 . S
C709 C704 1.425 . S
C709 C706 1.409 . S
C709 C707 1.415 . S
C710 H700 0.930 . S
C710 C708 1.419 . S
C710 C711 1.362 . S
C711 H701 0.930 . S
C711 C704 1.409 . S
C711 C710 1.362 . S
H712 C718 0.930 . S
H713 C721 0.930 . S
H714 C722 0.930 . S
H715 C723 0.930 . S
H716 C726 0.930 . S
H717 C727 0.930 . S
C718 H712 0.930 . S
C718 C719 1.355 . S
C718 C720 1.415 . S
C719 C718 1.355 . S
C719 C721 1.419 . S
C720 C718 1.415 . S
C720 C725 1.425 . S
C720 C727 1.409 . S
C721 H713 0.930 . S
C721 C719 1.419 . S
C721 C722 1.362 . S
C722 H714 0.930 . S
C722 C721 1.362 . S
C722 C725 1.409 . S
C723 H715 0.930 . S
C723 C724 1.355 . S
C723 C725 1.415 . S
C724 C723 1.355 . S
C724 C726 1.419 . S
C725 C720 1.425 . S
C725 C722 1.409 . S
C725 C723 1.415 . S
C726 H716 0.930 . S
C726 C724 1.419 . S
C726 C727 1.362 . S
C727 H717 0.930 . S
C727 C720 1.409 . S
C727 C726 1.362 . S
H728 C734 0.930 . S
H729 C737 0.930 . S
H730 C738 0.930 . S
H731 C739 0.930 . S
H732 C742 0.930 . S
H733 C743 0.930 . S
C734 H728 0.930 . S
C734 C735 1.355 . S
C734 C736 1.415 . S
C735 C734 1.355 . S
C735 C737 1.419 . S
C736 C734 1.415 . S
C736 C741 1.425 . S
C736 C743 1.409 . S
C737 H729 0.930 . S
C737 C735 1.419 . S
C737 C738 1.362 . S
C738 H730 0.930 . S
C738 C737 1.362 . S
C738 C741 1.409 . S
C739 H731 0.930 . S
C739 C740 1.355 . S
C739 C741 1.415 . S
C740 C739 1.355 . S
C740 C742 1.419 . S
C741 C736 1.425 . S
C741 C738 1.409 . S
C741 C739 1.415 . S
C742 H732 0.930 . S
C742 C740 1.419 . S
C742 C743 1.362 . S
C743 H733 0.930 . S
C743 C736 1.409 . S
C743 C742 1.362 . S
H744 C750 0.930 . S
H745 C753 0.930 . S
H746 C754 0.930 . S
H747 C755 0.930 . S
H748 C758 0.930 . S
H749 C759 0.930 . S
C750 H744 0.930 . S
C750 C751 1.355 . S
C750 C752 1.415 . S
C751 C750 1.355 . S
C751 C753 1.419 . S
C752 C750 1.415 . S
C752 C757 1.425 . S
C752 C759 1.409 . S
C753 H745 0.930 . S
C753 C751 1.419 . S
C753 C754 1.362 . S
C754 H746 0.930 . S
C754 C753 1.362 . S
C754 C757 1.409 . S
C755 H747 0.930 . S
C755 C756 1.355 . S
C755 C757 1.415 . S
C756 C755 1.355 . S
C756 C758 1.419 . S
C757 C752 1.425 . S
C757 C754 1.409 . S
C757 C755 1.415 . S
C758 H748 0.930 . S
C758 C756 1.419 . S
C758 C759 1.362 . S
C759 H749 0.930 . S
C759 C752 1.409 . S
C759 C758 1.362 . S
H760 C766 0.930 . S
H761 C769 0.930 . S
H762 C770 0.930 . S
H763 C771 0.930 . S
H764 C774 0.930 . S
H765 C775 0.930 . S
C766 H760 0.930 . S
C766 C767 1.355 . S
C766 C768 1.415 . S
C767 C766 1.355 . S
C767 C769 1.419 . S
C768 C766 1.415 . S
C768 C773 1.425 . S
C768 C775 1.409 . S
C769 H761 0.930 . S
C769 C767 1.419 . S
C769 C770 1.362 . S
C770 H762 0.930 . S
C770 C769 1.362 . S
C770 C773 1.409 . S
C771 H763 0.930 . S
C771 C772 1.355 . S
C771 C773 1.415 . S
C772 C771 1.355 . S
C772 C774 1.419 . S
C773 C768 1.425 . S
C773 C770 1.409 . S
C773 C771 1.415 . S
C774 H764 0.930 . S
C774 C772 1.419 . S
C774 C775 1.362 . S
C775 H765 0.930 . S
C775 C768 1.409 . S
C775 C774 1.362 . S
H776 C782 0.930 . S
H777 C785 0.930 . S
H778 C786 0.930 . S
H779 C787 0.930 . S
H780 C790 0.930 . S
H781 C791 0.930 . S
C782 H776 0.930 . S
C782 C783 1.355 . S
C782 C784 1.415 . S
C783 C782 1.355 . S
C783 C785 1.419 . S
C784 C782 1.415 . S
C784 C789 1.425 . S
C784 C791 1.409 . S
C785 H777 0.930 . S
C785 C783 1.419 . S
C785 C786 1.362 . S
C786 H778 0.930 . S
C786 C785 1.362 . S
C786 C789 1.409 . S
C787 H779 0.930 . S
C787 C788 1.355 . S
C787 C789 1.415 . S
C788 C787 1.355 . S
C788 C790 1.419 . S
C789 C784 1.425 . S
C789 C786 1.409 . S
C789 C787 1.415 . S
C790 H780 0.930 . S
C790 C788 1.419 . S
C790 C791 1.362 . S
C791 H781 0.930 . S
C791 C784 1.409 . S
C791 C790 1.362 . S
H792 C798 0.930 . S
H793 C801 0.930 . S
H794 C802 0.930 . S
H795 C803 0.930 . S
H796 C806 0.930 . S
H797 C807 0.930 . S
C798 H792 0.930 . S
C798 C799 1.355 . S
C798 C800 1.415 . S
C799 C798 1.355 . S
C799 C801 1.419 . S
C800 C798 1.415 . S
C800 C805 1.425 . S
C800 C807 1.409 . S
C801 H793 0.930 . S
C801 C799 1.419 . S
C801 C802 1.362 . S
C802 H794 0.930 . S
C802 C801 1.362 . S
C802 C805 1.409 . S
C803 H795 0.930 . S
C803 C804 1.355 . S
C803 C805 1.415 . S
C804 C803 1.355 . S
C804 C806 1.419 . S
C805 C800 1.425 . S
C805 C802 1.409 . S
C805 C803 1.415 . S
C806 H796 0.930 . S
C806 C804 1.419 . S
C806 C807 1.362 . S
C807 H797 0.930 . S
C807 C800 1.409 . S
C807 C806 1.362 . S
H808 C814 0.930 . S
H809 C817 0.930 . S
H810 C818 0.930 . S
H811 C819 0.930 . S
H812 C822 0.930 . S
H813 C823 0.930 . S
C814 H808 0.930 . S
C814 C815 1.355 . S
C814 C816 1.415 . S
C815 C814 1.355 . S
C815 C817 1.419 . S
C816 C814 1.415 . S
C816 C821 1.425 . S
C816 C823 1.409 . S
C817 H809 0.930 . S
C817 C815 1.419 . S
C817 C818 1.362 . S
C818 H810 0.930 . S
C818 C817 1.362 . S
C818 C821 1.409 . S
C819 H811 0.930 . S
C819 C820 1.355 . S
C819 C821 1.415 . S
C820 C819 1.355 . S
C820 C822 1.419 . S
C821 C816 1.425 . S
C821 C818 1.409 . S
C821 C819 1.415 . S
C822 H812 0.930 . S
C822 C820 1.419 . S
C822 C823 1.362 . S
C823 H813 0.930 . S
C823 C816 1.409 . S
C823 C822 1.362 . S
H824 C830 0.930 . S
H825 C833 0.930 . S
H826 C834 0.930 . S
H827 C835 0.930 . S
H828 C838 0.930 . S
H829 C839 0.930 . S
C830 H824 0.930 . S
C830 C831 1.355 . S
C830 C832 1.415 . S
C831 C830 1.355 . S
C831 C833 1.419 . S
C832 C830 1.415 . S
C832 C837 1.425 . S
C832 C839 1.409 . S
C833 H825 0.930 . S
C833 C831 1.419 . S
C833 C834 1.362 . S
C834 H826 0.930 . S
C834 C833 1.362 . S
C834 C837 1.409 . S
C835 H827 0.930 . S
C835 C836 1.355 . S
C835 C837 1.415 . S
C836 C835 1.355 . S
C836 C838 1.419 . S
C837 C832 1.425 . S
C837 C834 1.409 . S
C837 C835 1.415 . S
C838 H828 0.930 . S
C838 C836 1.419 . S
C838 C839 1.362 . S
C839 H829 0.930 . S
C839 C832 1.409 . S
C839 C838 1.362 . S
H840 C846 0.930 . S
H841 C849 0.930 . S
H842 C850 0.930 . S
H843 C851 0.930 . S
H844 C854 0.930 . S
H845 C855 0.930 . S
C846 H840 0.930 . S
C846 C847 1.355 . S
C846 C848 1.415 . S
C847 C846 1.355 . S
C847 C849 1.419 . S
C848 C846 1.415 . S
C848 C853 1.425 . S
C848 C855 1.409 . S
C849 H841 0.930 . S
C849 C847 1.419 . S
C849 C850 1.362 . S
C850 H842 0.930 . S
C850 C849 1.362 . S
C850 C853 1.409 . S
C851 H843 0.930 . S
C851 C852 1.355 . S
C851 C853 1.415 . S
C852 C851 1.355 . S
C852 C854 1.419 . S
C853 C848 1.425 . S
C853 C850 1.409 . S
C853 C851 1.415 . S
C854 H844 0.930 . S
C854 C852 1.419 . S
C854 C855 1.362 . S
C855 H845 0.930 . S
C855 C848 1.409 . S
C855 C854 1.362 . S
H856 C862 0.930 . S
H857 C865 0.930 . S
H858 C866 0.930 . S
H859 C867 0.930 . S
H860 C870 0.930 . S
H861 C871 0.930 . S
C862 H856 0.930 . S
C862 C863 1.355 . S
C862 C864 1.415 . S
C863 C862 1.355 . S
C863 C865 1.419 . S
C864 C862 1.415 . S
C864 C869 1.425 . S
C864 C871 1.409 . S
C865 H857 0.930 . S
C865 C863 1.419 . S
C865 C866 1.362 . S
C866 H858 0.930 . S
C866 C865 1.362 . S
C866 C869 1.409 . S
C867 H859 0.930 . S
C867 C868 1.355 . S
C867 C869 1.415 . S
C868 C867 1.355 . S
C868 C870 1.419 . S
C869 C864 1.425 . S
C869 C866 1.409 . S
C869 C867 1.415 . S
C870 H860 0.930 . S
C870 C868 1.419 . S
C870 C871 1.362 . S
C871 H861 0.930 . S
C871 C864 1.409 . S
C871 C870 1.362 . S
H872 C878 0.930 . S
H873 C881 0.930 . S
H874 C882 0.930 . S
H875 C883 0.930 . S
H876 C886 0.930 . S
H877 C887 0.930 . S
C878 H872 0.930 . S
C878 C879 1.355 . S
C878 C880 1.415 . S
C879 C878 1.355 . S
C879 C881 1.419 . S
C880 C878 1.415 . S
C880 C885 1.425 . S
C880 C887 1.409 . S
C881 H873 0.930 . S
C881 C879 1.419 . S
C881 C882 1.362 . S
C882 H874 0.930 . S
C882 C881 1.362 . S
C882 C885 1.409 . S
C883 H875 0.930 . S
C883 C884 1.355 . S
C883 C885 1.415 . S
C884 C883 1.355 . S
C884 C886 1.419 . S
C885 C880 1.425 . S
C885 C882 1.409 . S
C885 C883 1.415 . S
C886 H876 0.930 . S
C886 C884 1.419 . S
C886 C887 1.362 . S
C887 H877 0.930 . S
C887 C880 1.409 . S
C887 C886 1.362 . S
H888 C894 0.930 . S
H889 C897 0.930 . S
H890 C898 0.930 . S
H891 C899 0.930 . S
H892 C902 0.930 . S
H893 C903 0.930 . S
C894 H888 0.930 . S
C894 C895 1.355 . S
C894 C896 1.415 . S
C895 C894 1.355 . S
C895 C897 1.419 . S
C896 C894 1.415 . S
C896 C901 1.425 . S
C896 C903 1.409 . S
C897 H889 0.930 . S
C897 C895 1.419 . S
C897 C898 1.362 . S
C898 H890 0.930 . S
C898 C897 1.362 . S
C898 C901 1.409 . S
C899 H891 0.930 . S
C899 C900 1.355 . S
C899 C901 1.415 . S
C900 C899 1.355 . S
C900 C902 1.419 . S
C901 C896 1.425 . S
C901 C898 1.409 . S
C901 C899 1.415 . S
C902 H892 0.930 . S
C902 C900 1.419 . S
C902 C903 1.362 . S
C903 H893 0.930 . S
C903 C896 1.409 . S
C903 C902 1.362 . S
H904 C910 0.930 . S
H905 C913 0.930 . S
H906 C914 0.930 . S
H907 C915 0.930 . S
H908 C918 0.930 . S
H909 C919 0.930 . S
C910 H904 0.930 . S
C910 C911 1.355 . S
C910 C912 1.415 . S
C911 C910 1.355 . S
C911 C913 1.419 . S
C912 C910 1.415 . S
C912 C917 1.425 . S
C912 C919 1.409 . S
C913 H905 0.930 . S
C913 C911 1.419 . S
C913 C914 1.362 . S
C914 H906 0.930 . S
C914 C913 1.362 . S
C914 C917 1.409 . S
C915 H907 0.930 . S
C915 C916 1.355 . S
C915 C917 1.415 . S
C916 C915 1.355 . S
C916 C918 1.419 . S
C917 C912 1.425 . S
C917 C914 1.409 . S
C917 C915 1.415 . S
C918 H908 0.930 . S
C918 C916 1.419 . S
C918 C919 1.362 . S
C919 H909 0.930 . S
C919 C912 1.409 . S
C919 C918 1.362 . S
H920 C926 0.930 . S
H921 C929 0.930 . S
H922 C930 0.930 . S
H923 C931 0.930 . S
H924 C934 0.930 . S
H925 C935 0.930 . S
C926 H920 0.930 . S
C926 C927 1.355 . S
C926 C928 1.415 . S
C927 C926 1.355 . S
C927 C929 1.419 . S
C928 C926 1.415 . S
C928 C933 1.425 . S
C928 C935 1.409 . S
C929 H921 0.930 . S
C929 C927 1.419 . S
C929 C930 1.362 . S
C930 H922 0.930 . S
C930 C929 1.362 . S
C930 C933 1.409 . S
C931 H923 0.930 . S
C931 C932 1.355 . S
C931 C933 1.415 . S
C932 C931 1.355 . S
C932 C934 1.419 . S
C933 C928 1.425 . S
C933 C930 1.409 . S
C933 C931 1.415 . S
C934 H924 0.930 . S
C934 C932 1.419 . S
C934 C935 1.362 . S
C935 H925 0.930 . S
C935 C928 1.409 . S
C935 C934 1.362 . S
H936 C942 0.930 . S
H937 C945 0.930 . S
H938 C946 0.930 . S
H939 C947 0.930 . S
H940 C950 0.930 . S
H941 C951 0.930 . S
C942 H936 0.930 . S
C942 C943 1.355 . S
C942 C944 1.415 . S
C943 C942 1.355 . S
C943 C945 1.419 . S
C944 C942 1.415 . S
C944 C949 1.425 . S
C944 C951 1.409 . S
C945 H937 0.930 . S
C945 C943 1.419 . S
C945 C946 1.362 . S
C946 H938 0.930 . S
C946 C945 1.362 . S
C946 C949 1.409 . S
C947 H939 0.930 . S
C947 C948 1.355 . S
C947 C949 1.415 . S
C948 C947 1.355 . S
C948 C950 1.419 . S
C949 C944 1.425 . S
C949 C946 1.409 . S
C949 C947 1.415 . S
C950 H940 0.930 . S
C950 C948 1.419 . S
C950 C951 1.362 . S
C951 H941 0.930 . S
C951 C944 1.409 . S
C951 C950 1.362 . S
H952 C958 0.930 . S
H953 C961 0.930 . S
H954 C962 0.930 . S
H955 C963 0.930 . S
H956 C966 0.930 . S
H957 C967 0.930 . S
C958 H952 0.930 . S
C958 C959 1.355 . S
C958 C960 1.415 . S
C959 C958 1.355 . S
C959 C961 1.419 . S
C960 C958 1.415 . S
C960 C965 1.425 . S
C960 C967 1.409 . S
C961 H953 0.930 . S
C961 C959 1.419 . S
C961 C962 1.362 . S
C962 H954 0.930 . S
C962 C961 1.362 . S
C962 C965 1.409 . S
C963 H955 0.930 . S
C963 C964 1.355 . S
C963 C965 1.415 . S
C964 C963 1.355 . S
C964 C966 1.419 . S
C965 C960 1.425 . S
C965 C962 1.409 . S
C965 C963 1.415 . S
C966 H956 0.930 . S
C966 C964 1.419 . S
C966 C967 1.362 . S
C967 H957 0.930 . S
C967 C960 1.409 . S
C967 C966 1.362 . S
H968 C974 0.930 . S
H969 C977 0.930 . S
H970 C978 0.930 . S
H971 C979 0.930 . S
H972 C982 0.930 . S
H973 C983 0.930 . S
C974 H968 0.930 . S
C974 C975 1.355 . S
C974 C976 1.415 . S
C975 C974 1.355 . S
C975 C977 1.419 . S
C976 C974 1.415 . S
C976 C981 1.425 . S
C976 C983 1.409 . S
C977 H969 0.930 . S
C977 C975 1.419 . S
C977 C978 1.362 . S
C978 H970 0.930 . S
C978 C977 1.362 . S
C978 C981 1.409 . S
C979 H971 0.930 . S
C979 C980 1.355 . S
C979 C981 1.415 . S
C980 C979 1.355 . S
C980 C982 1.419 . S
C981 C976 1.425 . S
C981 C978 1.409 . S
C981 C979 1.415 . S
C982 H972 0.930 . S
C982 C980 1.419 . S
C982 C983 1.362 . S
C983 H973 0.930 . S
C983 C976 1.409 . S
C983 C982 1.362 . S
H984 C990 0.930 . S
H985 C993 0.930 . S
H986 C994 0.930 . S
H987 C995 0.930 . S
H988 C998 0.930 . S
H989 C999 0.930 . S
C990 H984 0.930 . S
C990 C991 1.355 . S
C990 C992 1.415 . S
C991 C990 1.355 . S
C991 C993 1.419 . S
C992 C990 1.415 . S
C992 C997 1.425 . S
C992 C999 1.409 . S
C993 H985 0.930 . S
C993 C991 1.419 . S
C993 C994 1.362 . S
C994 H986 0.930 . S
C994 C993 1.362 . S
C994 C997 1.409 . S
C995 H987 0.930 . S
C995 C996 1.355 . S
C995 C997 1.415 . S
C996 C995 1.355 . S
C996 C998 1.419 . S
C997 C992 1.425 . S
C997 C994 1.409 . S
C997 C995 1.415 . S
C998 H988 0.930 . S
C998 C996 1.419 . S
C998 C999 1.362 . S
C999 H989 0.930 . S
C999 C992 1.409 . S
C999 C998 1.362 . S
H1000 C1006 0.930 . S
H1001 C1009 0.930 . S
H1002 C1010 0.930 . S
H1003 C1011 0.930 . S
H1004 C1014 0.930 . S
H1005 C1015 0.930 . S
C1006 H1000 0.930 . S
C1006 C1007 1.355 . S
C1006 C1008 1.415 . S
C1007 C1006 1.355 . S
C1007 C1009 1.419 . S
C1008 C1006 1.415 . S
C1008 C1013 1.425 . S
C1008 C1015 1.409 . S
C1009 H1001 0.930 . S
C1009 C1007 1.419 . S
C1009 C1010 1.362 . S
C1010 H1002 0.930 . S
C1010 C1009 1.362 . S
C1010 C1013 1.409 . S
C1011 H1003 0.930 . S
C1011 C1012 1.355 . S
C1011 C1013 1.415 . S
C1012 C1011 1.355 . S
C1012 C1014 1.419 . S
C1013 C1008 1.425 . S
C1013 C1010 1.409 . S
C1013 C1011 1.415 . S
C1014 H1004 0.930 . S
C1014 C1012 1.419 . S
C1014 C1015 1.362 . S
C1015 H1005 0.930 . S
C1015 C1008 1.409 . S
C1015 C1014 1.362 . S
H1016 C1022 0.930 . S
H1017 C1025 0.930 . S
H1018 C1026 0.930 . S
H1019 C1027 0.930 . S
H1020 C1030 0.930 . S
H1021 C1031 0.930 . S
C1022 H1016 0.930 . S
C1022 C1023 1.355 . S
C1022 C1024 1.415 . S
C1023 C1022 1.355 . S
C1023 C1025 1.419 . S
C1024 C1022 1.415 . S
C1024 C1029 1.425 . S
C1024 C1031 1.409 . S
C1025 H1017 0.930 . S
C1025 C1023 1.419 . S
C1025 C1026 1.362 . S
C1026 H1018 0.930 . S
C1026 C1025 1.362 . S
C1026 C1029 1.409 . S
C1027 H1019 0.930 . S
C1027 C1028 1.355 . S
C1027 C1029 1.415 . S
C1028 C1027 1.355 . S
C1028 C1030 1.419 . S
C1029 C1024 1.425 . S
C1029 C1026 1.409 . S
C1029 C1027 1.415 . S
C1030 H1020 0.930 . S
C1030 C1028 1.419 . S
C1030 C1031 1.362 . S
C1031 H1021 0.930 . S
C1031 C1024 1.409 . S
C1031 C1030 1.362 . S
H1032 C1038 0.930 . S
H1033 C1041 0.930 . S
H1034 C1042 0.930 . S
H1035 C1043 0.930 . S
H1036 C1046 0.930 . S
H1037 C1047 0.930 . S
C1038 H1032 0.930 . S
C1038 C1039 1.355 . S
C1038 C1040 1.415 . S
C1039 C1038 1.355 . S
C1039 C1041 1.419 . S
C1040 C1038 1.415 . S
C1040 C1045 1.425 . S
C1040 C1047 1.409 . S
C1041 H1033 0.930 . S
C1041 C1039 1.419 . S
C1041 C1042 1.362 . S
C1042 H1034 0.930 . S
C1042 C1041 1.362 . S
C1042 C1045 1.409 . S
C1043 H1035 0.930 . S
C1043 C1044 1.355 . S
C1043 C1045 1.415 . S
C1044 C1043 1.355 . S
C1044 C1046 1.419 . S
C1045 C1040 1.425 . S
C1045 C1042 1.409 . S
C1045 C1043 1.415 . S
C1046 H1036 0.930 . S
C1046 C1044 1.419 . S
C1046 C1047 1.362 . S
C1047 H1037 0.930 . S
C1047 C1040 1.409 . S
C1047 C1046 1.362 . S
H1048 C1054 0.930 . S
H1049 C1057 0.930 . S
H1050 C1058 0.930 . S
H1051 C1059 0.930 . S
H1052 C1062 0.930 . S
H1053 C1063 0.930 . S
C1054 H1048 0.930 . S
C1054 C1055 1.355 . S
C1054 C1056 1.415 . S
C1055 C1054 1.355 . S
C1055 C1057 1.419 . S
C1056 C1054 1.415 . S
C1056 C1061 1.425 . S
C1056 C1063 1.409 . S
C1057 H1049 0.930 . S
C1057 C1055 1.419 . S
C1057 C1058 1.362 . S
C1058 H1050 0.930 . S
C1058 C1057 1.362 . S
C1058 C1061 1.409 . S
C1059 H1051 0.930 . S
C1059 C1060 1.355 . S
C1059 C1061 1.415 . S
C1060 C1059 1.355 . S
C1060 C1062 1.419 . S
C1061 C1056 1.425 . S
C1061 C1058 1.409 . S
C1061 C1059 1.415 . S
C1062 H1052 0.930 . S
C1062 C1060 1.419 . S
C1062 C1063 1.362 . S
C1063 H1053 0.930 . S
C1063 C1056 1.409 . S
C1063 C1062 1.362 . S
H1064 C1070 0.930 . S
H1065 C1073 0.930 . S
H1066 C1074 0.930 . S
H1067 C1075 0.930 . S
H1068 C1078 0.930 . S
H1069 C1079 0.930 . S
C1070 H1064 0.930 . S
C1070 C1071 1.355 . S
C1070 C1072 1.415 . S
C1071 C1070 1.355 . S
C1071 C1073 1.419 . S
C1072 C1070 1.415 . S
C1072 C1077 1.425 . S
C1072 C1079 1.409 . S
C1073 H1065 0.930 . S
C1073 C1071 1.419 . S
C1073 C1074 1.362 . S
C1074 H1066 0.930 . S
C1074 C1073 1.362 . S
C1074 C1077 1.409 . S
C1075 H1067 0.930 . S
C1075 C1076 1.355 . S
C1075 C1077 1.415 . S
C1076 C1075 1.355 . S
C1076 C1078 1.419 . S
C1077 C1072 1.425 . S
C1077 C1074 1.409 . S
C1077 C1075 1.415 . S
C1078 H1068 0.930 . S
C1078 C1076 1.419 . S
C1078 C1079 1.362 . S
C1079 H1069 0.930 . S
C1079 C1072 1.409 . S
C1079 C1078 1.362 . S
H1080 C1086 0.930 . S
H1081 C1089 0.930 . S
H1082 C1090 0.930 . S
H1083 C1091 0.930 . S
H1084 C1094 0.930 . S
H1085 C1095 0.930 . S
C1086 H1080 0.930 . S
C1086 C1087 1.355 . S
C1086 C1088 1.415 . S
C1087 C1086 1.355 . S
C1087 C1089 1.419 . S
C1088 C1086 1.415 . S
C1088 C1093 1.425 . S
C1088 C1095 1.409 . S
C1089 H1081 0.930 . S
C1089 C1087 1.419 . S
C1089 C1090 1.362 . S
C1090 H1082 0.930 . S
C1090 C1089 1.362 . S
C1090 C1093 1.409 . S
C1091 H1083 0.930 . S
C1091 C1092 1.355 . S
C1091 C1093 1.415 . S
C1092 C1091 1.355 . S
C1092 C1094 1.419 . S
C1093 C1088 1.425 . S
C1093 C1090 1.409 . S
C1093 C1091 1.415 . S
C1094 H1084 0.930 . S
C1094 C1092 1.419 . S
C1094 C1095 1.362 . S
C1095 H1085 0.930 . S
C1095 C1088 1.409 . S
C1095 C1094 1.362 . S
H1096 C1102 0.930 . S
H1097 C1105 0.930 . S
H1098 C1106 0.930 . S
H1099 C1107 0.930 . S
H1100 C1110 0.930 . S
H1101 C1111 0.930 . S
C1102 H1096 0.930 . S
C1102 C1103 1.355 . S
C1102 C1104 1.432 . S
C1103 C1102 1.355 . S
C1103 C1105 1.419 . S
C1104 C1102 1.432 . S
C1104 C1109 1.443 1_565 S
C1104 C1111 1.383 1_565 S
C1105 H1097 0.930 . S
C1105 C1103 1.419 . S
C1105 C1106 1.362 . S
C1106 H1098 0.930 . S
C1106 C1105 1.362 . S
C1106 C1109 1.384 1_565 S
C1107 H1099 0.930 . S
C1107 C1108 1.355 . S
C1107 C1109 1.432 . S
C1108 C1107 1.355 . S
C1108 C1110 1.419 . S
C1109 C1104 1.443 1_545 S
C1109 C1106 1.384 1_545 S
C1109 C1107 1.432 . S
C1110 H1100 0.930 . S
C1110 C1108 1.419 . S
C1110 C1111 1.362 . S
C1111 H1101 0.930 . S
C1111 C1104 1.383 1_545 S
C1111 C1110 1.362 . S
H1112 C1118 0.930 . S
H1113 C1121 0.930 . S
H1114 C1122 0.890 1_455 S
H1115 C1123 0.930 . S
H1116 C1126 0.930 . S
H1117 C1127 0.930 . S
C1118 H1112 0.930 . S
C1118 C1119 1.355 . S
C1118 C1120 1.377 1_655 S
C1119 C1118 1.355 . S
C1119 C1121 1.419 . S
C1120 C1118 1.377 1_455 S
C1120 C1125 1.461 . S
C1120 C1127 1.414 . S
C1121 H1113 0.930 . S
C1121 C1119 1.419 . S
C1121 C1122 1.406 . S
C1122 H1114 0.890 1_655 S
C1122 C1121 1.406 . S
C1122 C1125 1.406 1_655 S
C1123 H1115 0.930 . S
C1123 C1124 1.355 . S
C1123 C1125 1.415 . S
C1124 C1123 1.355 . S
C1124 C1126 1.419 . S
C1125 C1120 1.461 . S
C1125 C1122 1.406 1_455 S
C1125 C1123 1.415 . S
C1126 H1116 0.930 . S
C1126 C1124 1.419 . S
C1126 C1127 1.362 . S
C1127 H1117 0.930 . S
C1127 C1120 1.414 . S
C1127 C1126 1.362 . S
H1128 C1134 0.930 . S
H1129 C1137 0.930 . S
H1130 C1138 0.930 . S
H1131 C1139 0.930 . S
H1132 C1142 0.930 . S
H1133 C1143 0.930 . S
C1134 H1128 0.930 . S
C1134 C1135 1.355 . S
C1134 C1136 1.415 . S
C1135 C1134 1.355 . S
C1135 C1137 1.419 . S
C1136 C1134 1.415 . S
C1136 C1141 1.425 . S
C1136 C1143 1.409 . S
C1137 H1129 0.930 . S
C1137 C1135 1.419 . S
C1137 C1138 1.362 . S
C1138 H1130 0.930 . S
C1138 C1137 1.362 . S
C1138 C1141 1.409 . S
C1139 H1131 0.930 . S
C1139 C1140 1.355 . S
C1139 C1141 1.415 . S
C1140 C1139 1.355 . S
C1140 C1142 1.419 . S
C1141 C1136 1.425 . S
C1141 C1138 1.409 . S
C1141 C1139 1.415 . S
C1142 H1132 0.930 . S
C1142 C1140 1.419 . S
C1142 C1143 1.362 . S
C1143 H1133 0.930 . S
C1143 C1136 1.409 . S
C1143 C1142 1.362 . S
H1144 C1150 0.930 . S
H1145 C1153 0.930 . S
H1146 C1154 0.930 . S
H1147 C1155 0.930 . S
H1148 C1158 0.930 . S
H1149 C1159 0.930 . S
C1150 H1144 0.930 . S
C1150 C1151 1.355 . S
C1150 C1152 1.415 . S
C1151 C1150 1.355 . S
C1151 C1153 1.419 . S
C1152 C1150 1.415 . S
C1152 C1157 1.425 1_545 S
C1152 C1159 1.409 . S
C1153 H1145 0.930 . S
C1153 C1151 1.419 . S
C1153 C1154 1.362 1_545 S
C1154 H1146 0.930 . S
C1154 C1153 1.362 1_565 S
C1154 C1157 1.409 . S
C1155 H1147 0.930 . S
C1155 C1156 1.355 . S
C1155 C1157 1.415 . S
C1156 C1155 1.355 . S
C1156 C1158 1.419 . S
C1157 C1152 1.425 1_565 S
C1157 C1154 1.409 . S
C1157 C1155 1.415 . S
C1158 H1148 0.930 . S
C1158 C1156 1.419 . S
C1158 C1159 1.362 1_565 S
C1159 H1149 0.930 . S
C1159 C1152 1.409 . S
C1159 C1158 1.362 1_545 S
H1160 C1166 0.930 . S
H1161 C1169 0.930 . S
H1162 C1170 0.930 . S
H1163 C1171 0.930 . S
H1164 C1174 0.930 . S
H1165 C1175 0.930 . S
C1166 H1160 0.930 . S
C1166 C1167 1.355 . S
C1166 C1168 1.407 1_655 S
C1167 C1166 1.355 . S
C1167 C1169 1.419 . S
C1168 C1166 1.407 1_455 S
C1168 C1173 1.427 1_455 S
C1168 C1175 1.415 . S
C1169 H1161 0.930 . S
C1169 C1167 1.419 . S
C1169 C1170 1.362 . S
C1170 H1162 0.930 . S
C1170 C1169 1.362 . S
C1170 C1173 1.409 . S
C1171 H1163 0.930 . S
C1171 C1172 1.355 . S
C1171 C1173 1.415 1_455 S
C1172 C1171 1.355 . S
C1172 C1174 1.419 . S
C1173 C1168 1.427 1_655 S
C1173 C1170 1.409 . S
C1173 C1171 1.415 1_655 S
C1174 H1164 0.930 . S
C1174 C1172 1.419 . S
C1174 C1175 1.362 . S
C1175 H1165 0.930 . S
C1175 C1168 1.415 . S
C1175 C1174 1.362 . S
H1176 C1182 0.930 . S
H1177 C1185 0.930 . S
H1178 C1186 0.930 . S
H1179 C1187 0.930 . S
H1180 C1190 0.930 . S
H1181 C1191 0.930 . S
C1182 H1176 0.930 . S
C1182 C1183 1.355 . S
C1182 C1184 1.415 . S
C1183 C1182 1.355 . S
C1183 C1185 1.419 . S
C1184 C1182 1.415 . S
C1184 C1189 1.425 . S
C1184 C1191 1.409 . S
C1185 H1177 0.930 . S
C1185 C1183 1.419 . S
C1185 C1186 1.362 . S
C1186 H1178 0.930 . S
C1186 C1185 1.362 . S
C1186 C1189 1.409 . S
C1187 H1179 0.930 . S
C1187 C1188 1.355 . S
C1187 C1189 1.415 . S
C1188 C1187 1.355 . S
C1188 C1190 1.419 . S
C1189 C1184 1.425 . S
C1189 C1186 1.409 . S
C1189 C1187 1.415 . S
C1190 H1180 0.930 . S
C1190 C1188 1.419 . S
C1190 C1191 1.362 . S
C1191 H1181 0.930 . S
C1191 C1184 1.409 . S
C1191 C1190 1.362 . S
H1192 C1198 0.930 . S
H1193 C1201 0.930 . S
H1194 C1202 0.930 . S
H1195 C1203 0.930 . S
H1196 C1206 0.930 . S
H1197 C1207 0.930 . S
C1198 H1192 0.930 . S
C1198 C1199 1.355 . S
C1198 C1200 1.415 . S
C1199 C1198 1.355 . S
C1199 C1201 1.419 . S
C1200 C1198 1.415 . S
C1200 C1205 1.425 . S
C1200 C1207 1.409 . S
C1201 H1193 0.930 . S
C1201 C1199 1.419 . S
C1201 C1202 1.362 . S
C1202 H1194 0.930 . S
C1202 C1201 1.362 . S
C1202 C1205 1.409 . S
C1203 H1195 0.930 . S
C1203 C1204 1.355 . S
C1203 C1205 1.415 . S
C1204 C1203 1.355 . S
C1204 C1206 1.419 . S
C1205 C1200 1.425 . S
C1205 C1202 1.409 . S
C1205 C1203 1.415 . S
C1206 H1196 0.930 . S
C1206 C1204 1.419 . S
C1206 C1207 1.362 . S
C1207 H1197 0.930 . S
C1207 C1200 1.409 . S
C1207 C1206 1.362 . S
H1208 C1214 0.930 . S
H1209 C1217 0.930 . S
H1210 C1218 0.930 . S
H1211 C1219 0.930 . S
H1212 C1222 0.930 . S
H1213 C1223 0.930 . S
C1214 H1208 0.930 . S
C1214 C1215 1.355 . S
C1214 C1216 1.415 . S
C1215 C1214 1.355 . S
C1215 C1217 1.419 . S
C1216 C1214 1.415 . S
C1216 C1221 1.425 . S
C1216 C1223 1.409 . S
C1217 H1209 0.930 . S
C1217 C1215 1.419 . S
C1217 C1218 1.362 . S
C1218 H1210 0.930 . S
C1218 C1217 1.362 . S
C1218 C1221 1.409 . S
C1219 H1211 0.930 . S
C1219 C1220 1.355 . S
C1219 C1221 1.415 . S
C1220 C1219 1.355 . S
C1220 C1222 1.419 . S
C1221 C1216 1.425 . S
C1221 C1218 1.409 . S
C1221 C1219 1.415 . S
C1222 H1212 0.930 . S
C1222 C1220 1.419 . S
C1222 C1223 1.362 . S
C1223 H1213 0.930 . S
C1223 C1216 1.409 . S
C1223 C1222 1.362 . S
H1224 C1230 0.930 . S
H1225 C1233 0.930 . S
H1226 C1234 0.930 . S
H1227 C1235 0.930 . S
H1228 C1238 0.930 . S
H1229 C1239 0.930 . S
C1230 H1224 0.930 . S
C1230 C1231 1.355 . S
C1230 C1232 1.415 . S
C1231 C1230 1.355 . S
C1231 C1233 1.419 . S
C1232 C1230 1.415 . S
C1232 C1237 1.425 . S
C1232 C1239 1.409 . S
C1233 H1225 0.930 . S
C1233 C1231 1.419 . S
C1233 C1234 1.362 . S
C1234 H1226 0.930 . S
C1234 C1233 1.362 . S
C1234 C1237 1.409 . S
C1235 H1227 0.930 . S
C1235 C1236 1.355 . S
C1235 C1237 1.415 . S
C1236 C1235 1.355 . S
C1236 C1238 1.419 . S
C1237 C1232 1.425 . S
C1237 C1234 1.409 . S
C1237 C1235 1.415 . S
C1238 H1228 0.930 . S
C1238 C1236 1.419 . S
C1238 C1239 1.362 . S
C1239 H1229 0.930 . S
C1239 C1232 1.409 . S
C1239 C1238 1.362 . S
H1240 C1246 0.930 . S
H1241 C1249 0.930 . S
H1242 C1250 0.930 . S
H1243 C1251 0.930 . S
H1244 C1254 0.930 . S
H1245 C1255 0.930 . S
C1246 H1240 0.930 . S
C1246 C1247 1.355 . S
C1246 C1248 1.415 . S
C1247 C1246 1.355 . S
C1247 C1249 1.419 . S
C1248 C1246 1.415 . S
C1248 C1253 1.425 . S
C1248 C1255 1.409 . S
C1249 H1241 0.930 . S
C1249 C1247 1.419 . S
C1249 C1250 1.362 . S
C1250 H1242 0.930 . S
C1250 C1249 1.362 . S
C1250 C1253 1.409 . S
C1251 H1243 0.930 . S
C1251 C1252 1.355 . S
C1251 C1253 1.415 . S
C1252 C1251 1.355 . S
C1252 C1254 1.419 . S
C1253 C1248 1.425 . S
C1253 C1250 1.409 . S
C1253 C1251 1.415 . S
C1254 H1244 0.930 . S
C1254 C1252 1.419 . S
C1254 C1255 1.362 . S
C1255 H1245 0.930 . S
C1255 C1248 1.409 . S
C1255 C1254 1.362 . S
H1256 C1262 0.930 . S
H1257 C1265 0.930 1_556 S
H1258 C1266 0.930 . S
H1259 C1267 0.930 . S
H1260 C1270 0.930 . S
H1261 C1271 0.930 . S
C1262 H1256 0.930 . S
C1262 C1263 1.355 . S
C1262 C1264 1.415 . S
C1263 C1262 1.355 . S
C1263 C1265 1.419 . S
C1264 C1262 1.415 . S
C1264 C1269 1.425 . S
C1264 C1271 1.409 . S
C1265 H1257 0.930 1_554 S
C1265 C1263 1.419 . S
C1265 C1266 1.362 . S
C1266 H1258 0.930 . S
C1266 C1265 1.362 . S
C1266 C1269 1.409 . S
C1267 H1259 0.930 . S
C1267 C1268 1.355 . S
C1267 C1269 1.415 . S
C1268 C1267 1.355 . S
C1268 C1270 1.419 . S
C1269 C1264 1.425 . S
C1269 C1266 1.409 . S
C1269 C1267 1.415 . S
C1270 H1260 0.930 . S
C1270 C1268 1.419 . S
C1270 C1271 1.362 . S
C1271 H1261 0.930 . S
C1271 C1264 1.409 . S
C1271 C1270 1.362 . S
H1272 C1278 0.930 . S
H1273 C1281 0.930 . S
H1274 C1282 0.930 . S
H1275 C1283 0.930 . S
H1276 C1286 0.930 . S
H1277 C1287 0.930 . S
C1278 H1272 0.930 . S
C1278 C1279 1.355 . S
C1278 C1280 1.415 . S
C1279 C1278 1.355 . S
C1279 C1281 1.419 . S
C1280 C1278 1.415 . S
C1280 C1285 1.425 . S
C1280 C1287 1.409 . S
C1281 H1273 0.930 . S
C1281 C1279 1.419 . S
C1281 C1282 1.362 . S
C1282 H1274 0.930 . S
C1282 C1281 1.362 . S
C1282 C1285 1.409 . S
C1283 H1275 0.930 . S
C1283 C1284 1.355 . S
C1283 C1285 1.415 . S
C1284 C1283 1.355 . S
C1284 C1286 1.419 . S
C1285 C1280 1.425 . S
C1285 C1282 1.409 . S
C1285 C1283 1.415 . S
C1286 H1276 0.930 . S
C1286 C1284 1.419 . S
C1286 C1287 1.362 . S
C1287 H1277 0.930 . S
C1287 C1280 1.409 . S
C1287 C1286 1.362 . S
H1288 C1294 0.930 . S
H1289 C1297 0.930 . S
H1290 C1298 0.930 . S
H1291 C1299 0.930 . S
H1292 C1302 0.930 . S
H1293 C1303 0.930 . S
C1294 H1288 0.930 . S
C1294 C1295 1.355 . S
C1294 C1296 1.415 . S
C1295 C1294 1.355 . S
C1295 C1297 1.419 . S
C1296 C1294 1.415 . S
C1296 C1301 1.425 . S
C1296 C1303 1.409 . S
C1297 H1289 0.930 . S
C1297 C1295 1.419 . S
C1297 C1298 1.362 . S
C1298 H1290 0.930 . S
C1298 C1297 1.362 . S
C1298 C1301 1.409 . S
C1299 H1291 0.930 . S
C1299 C1300 1.355 . S
C1299 C1301 1.415 . S
C1300 C1299 1.355 . S
C1300 C1302 1.419 . S
C1301 C1296 1.425 . S
C1301 C1298 1.409 . S
C1301 C1299 1.415 . S
C1302 H1292 0.930 . S
C1302 C1300 1.419 . S
C1302 C1303 1.362 . S
C1303 H1293 0.930 . S
C1303 C1296 1.409 . S
C1303 C1302 1.362 . S
H1304 C1310 0.930 . S
H1305 C1313 0.930 . S
H1306 C1314 0.930 . S
H1307 C1315 0.930 . S
H1308 C1318 0.930 . S
H1309 C1319 0.930 . S
C1310 H1304 0.930 . S
C1310 C1311 1.355 . S
C1310 C1312 1.415 . S
C1311 C1310 1.355 . S
C1311 C1313 1.419 . S
C1312 C1310 1.415 . S
C1312 C1317 1.425 . S
C1312 C1319 1.409 . S
C1313 H1305 0.930 . S
C1313 C1311 1.419 . S
C1313 C1314 1.362 . S
C1314 H1306 0.930 . S
C1314 C1313 1.362 . S
C1314 C1317 1.409 . S
C1315 H1307 0.930 . S
C1315 C1316 1.355 . S
C1315 C1317 1.415 . S
C1316 C1315 1.355 . S
C1316 C1318 1.419 . S
C1317 C1312 1.425 . S
C1317 C1314 1.409 . S
C1317 C1315 1.415 . S
C1318 H1308 0.930 . S
C1318 C1316 1.419 . S
C1318 C1319 1.362 . S
C1319 H1309 0.930 . S
C1319 C1312 1.409 . S
C1319 C1318 1.362 . S
H1320 C1326 0.930 . S
H1321 C1329 0.930 . S
H1322 C1330 0.930 . S
H1323 C1331 0.930 . S
H1324 C1334 0.930 . S
H1325 C1335 0.930 . S
C1326 H1320 0.930 . S
C1326 C1327 1.355 . S
C1326 C1328 1.415 . S
C1327 C1326 1.355 . S
C1327 C1329 1.419 . S
C1328 C1326 1.415 . S
C1328 C1333 1.425 . S
C1328 C1335 1.409 . S
C1329 H1321 0.930 . S
C1329 C1327 1.419 . S
C1329 C1330 1.362 . S
C1330 H1322 0.930 . S
C1330 C1329 1.362 . S
C1330 C1333 1.409 . S
C1331 H1323 0.930 . S
C1331 C1332 1.355 . S
C1331 C1333 1.415 . S
C1332 C1331 1.355 . S
C1332 C1334 1.419 . S
C1333 C1328 1.425 . S
C1333 C1330 1.409 . S
C1333 C1331 1.415 . S
C1334 H1324 0.930 . S
C1334 C1332 1.419 . S
C1334 C1335 1.362 . S
C1335 H1325 0.930 . S
C1335 C1328 1.409 . S
C1335 C1334 1.362 . S
H1336 C1342 0.930 . S
H1337 C1345 0.930 . S
H1338 C1346 0.930 . S
H1339 C1347 0.930 . S
H1340 C1350 0.930 . S
H1341 C1351 0.930 . S
C1342 H1336 0.930 . S
C1342 C1343 1.355 . S
C1342 C1344 1.415 . S
C1343 C1342 1.355 . S
C1343 C1345 1.419 . S
C1344 C1342 1.415 . S
C1344 C1349 1.425 . S
C1344 C1351 1.409 . S
C1345 H1337 0.930 . S
C1345 C1343 1.419 . S
C1345 C1346 1.362 . S
C1346 H1338 0.930 . S
C1346 C1345 1.362 . S
C1346 C1349 1.409 . S
C1347 H1339 0.930 . S
C1347 C1348 1.355 . S
C1347 C1349 1.415 . S
C1348 C1347 1.355 . S
C1348 C1350 1.419 . S
C1349 C1344 1.425 . S
C1349 C1346 1.409 . S
C1349 C1347 1.415 . S
C1350 H1340 0.930 . S
C1350 C1348 1.419 . S
C1350 C1351 1.362 . S
C1351 H1341 0.930 . S
C1351 C1344 1.409 . S
C1351 C1350 1.362 . S
H1352 C1358 0.930 . S
H1353 C1361 0.930 . S
H1354 C1362 0.930 . S
H1355 C1363 0.930 . S
H1356 C1366 0.930 . S
H1357 C1367 0.930 . S
C1358 H1352 0.930 . S
C1358 C1359 1.355 . S
C1358 C1360 1.415 . S
C1359 C1358 1.355 . S
C1359 C1361 1.419 . S
C1360 C1358 1.415 . S
C1360 C1365 1.425 . S
C1360 C1367 1.409 . S
C1361 H1353 0.930 . S
C1361 C1359 1.419 . S
C1361 C1362 1.362 . S
C1362 H1354 0.930 . S
C1362 C1361 1.362 . S
C1362 C1365 1.409 . S
C1363 H1355 0.930 . S
C1363 C1364 1.355 . S
C1363 C1365 1.415 . S
C1364 C1363 1.355 . S
C1364 C1366 1.419 . S
C1365 C1360 1.425 . S
C1365 C1362 1.409 . S
C1365 C1363 1.415 . S
C1366 H1356 0.930 . S
C1366 C1364 1.419 . S
C1366 C1367 1.362 . S
C1367 H1357 0.930 . S
C1367 C1360 1.409 . S
C1367 C1366 1.362 . S
H1368 C1374 0.930 . S
H1369 C1377 0.930 . S
H1370 C1378 0.930 . S
H1371 C1379 0.930 . S
H1372 C1382 0.930 . S
H1373 C1383 0.930 . S
C1374 H1368 0.930 . S
C1374 C1375 1.355 . S
C1374 C1376 1.415 . S
C1375 C1374 1.355 . S
C1375 C1377 1.419 . S
C1376 C1374 1.415 . S
C1376 C1381 1.425 . S
C1376 C1383 1.409 . S
C1377 H1369 0.930 . S
C1377 C1375 1.419 . S
C1377 C1378 1.362 . S
C1378 H1370 0.930 . S
C1378 C1377 1.362 . S
C1378 C1381 1.409 . S
C1379 H1371 0.930 . S
C1379 C1380 1.355 . S
C1379 C1381 1.415 . S
C1380 C1379 1.355 . S
C1380 C1382 1.419 . S
C1381 C1376 1.425 . S
C1381 C1378 1.409 . S
C1381 C1379 1.415 . S
C1382 H1372 0.930 . S
C1382 C1380 1.419 . S
C1382 C1383 1.362 . S
C1383 H1373 0.930 . S
C1383 C1376 1.409 . S
C1383 C1382 1.362 . S
H1384 C1390 0.930 . S
H1385 C1393 0.930 . S
H1386 C1394 0.930 . S
H1387 C1395 0.930 . S
H1388 C1398 0.930 . S
H1389 C1399 0.930 . S
C1390 H1384 0.930 . S
C1390 C1391 1.355 . S
C1390 C1392 1.415 . S
C1391 C1390 1.355 . S
C1391 C1393 1.419 . S
C1392 C1390 1.415 . S
C1392 C1397 1.425 . S
C1392 C1399 1.409 . S
C1393 H1385 0.930 . S
C1393 C1391 1.419 . S
C1393 C1394 1.362 . S
C1394 H1386 0.930 . S
C1394 C1393 1.362 . S
C1394 C1397 1.409 . S
C1395 H1387 0.930 . S
C1395 C1396 1.355 . S
C1395 C1397 1.415 . S
C1396 C1395 1.355 . S
C1396 C1398 1.419 . S
C1397 C1392 1.425 . S
C1397 C1394 1.409 . S
C1397 C1395 1.415 . S
C1398 H1388 0.930 . S
C1398 C1396 1.419 . S
C1398 C1399 1.362 . S
C1399 H1389 0.930 . S
C1399 C1392 1.409 . S
C1399 C1398 1.362 . S
H1400 C1406 0.930 . S
H1401 C1409 0.930 . S
H1402 C1410 0.930 . S
H1403 C1411 0.930 . S
H1404 C1414 0.930 . S
H1405 C1415 0.930 . S
C1406 H1400 0.930 . S
C1406 C1407 1.355 . S
C1406 C1408 1.415 . S
C1407 C1406 1.355 . S
C1407 C1409 1.419 . S
C1408 C1406 1.415 . S
C1408 C1413 1.425 . S
C1408 C1415 1.409 . S
C1409 H1401 0.930 . S
C1409 C1407 1.419 . S
C1409 C1410 1.362 . S
C1410 H1402 0.930 . S
C1410 C1409 1.362 . S
C1410 C1413 1.409 . S
C1411 H1403 0.930 . S
C1411 C1412 1.355 . S
C1411 C1413 1.415 . S
C1412 C1411 1.355 . S
C1412 C1414 1.419 . S
C1413 C1408 1.425 . S
C1413 C1410 1.409 . S
C1413 C1411 1.415 . S
C1414 H1404 0.930 . S
C1414 C1412 1.419 . S
C1414 C1415 1.362 . S
C1415 H1405 0.930 . S
C1415 C1408 1.409 . S
C1415 C1414 1.362 . S
H1416 C1422 0.930 . S
H1417 C1425 0.930 . S
H1418 C1426 0.930 . S
H1419 C1427 0.930 . S
H1420 C1430 0.930 . S
H1421 C1431 0.930 . S
C1422 H1416 0.930 . S
C1422 C1423 1.355 . S
C1422 C1424 1.415 . S
C1423 C1422 1.355 . S
C1423 C1425 1.419 . S
C1424 C1422 1.415 . S
C1424 C1429 1.425 . S
C1424 C1431 1.409 . S
C1425 H1417 0.930 . S
C1425 C1423 1.419 . S
C1425 C1426 1.362 . S
C1426 H1418 0.930 . S
C1426 C1425 1.362 . S
C1426 C1429 1.409 . S
C1427 H1419 0.930 . S
C1427 C1428 1.355 . S
C1427 C1429 1.415 . S
C1428 C1427 1.355 . S
C1428 C1430 1.419 . S
C1429 C1424 1.425 . S
C1429 C1426 1.409 . S
C1429 C1427 1.415 . S
C1430 H1420 0.930 . S
C1430 C1428 1.419 . S
C1430 C1431 1.362 . S
C1431 H1421 0.930 . S
C1431 C1424 1.409 . S
C1431 C1430 1.362 . S
H1432 C1438 0.930 . S
H1433 C1441 0.930 . S
H1434 C1442 0.930 . S
H1435 C1443 0.930 . S
H1436 C1446 0.930 . S
H1437 C1447 0.930 . S
C1438 H1432 0.930 . S
C1438 C1439 1.355 . S
C1438 C1440 1.415 . S
C1439 C1438 1.355 . S
C1439 C1441 1.419 . S
C1440 C1438 1.415 . S
C1440 C1445 1.425 . S
C1440 C1447 1.409 . S
C1441 H1433 0.930 . S
C1441 C1439 1.419 . S
C1441 C1442 1.362 . S
C1442 H1434 0.930 . S
C1442 C1441 1.362 . S
C1442 C1445 1.409 . S
C1443 H1435 0.930 . S
C1443 C1444 1.355 . S
C1443 C1445 1.415 . S
C1444 C1443 1.355 . S
C1444 C1446 1.419 . S
C1445 C1440 1.425 . S
C1445 C1442 1.409 . S
C1445 C1443 1.415 . S
C1446 H1436 0.930 . S
C1446 C1444 1.419 . S
C1446 C1447 1.362 . S
C1447 H1437 0.930 . S
C1447 C1440 1.409 . S
C1447 C1446 1.362 . S
H1448 C1454 0.930 . S
H1449 C1457 0.930 . S
H1450 C1458 0.930 . S
H1451 C1459 0.930 . S
H1452 C1462 0.930 . S
H1453 C1463 0.930 . S
C1454 H1448 0.930 . S
C1454 C1455 1.355 . S
C1454 C1456 1.415 . S
C1455 C1454 1.355 . S
C1455 C1457 1.419 . S
C1456 C1454 1.415 . S
C1456 C1461 1.425 . S
C1456 C1463 1.409 . S
C1457 H1449 0.930 . S
C1457 C1455 1.419 . S
C1457 C1458 1.362 . S
C1458 H1450 0.930 . S
C1458 C1457 1.362 . S
C1458 C1461 1.409 . S
C1459 H1451 0.930 . S
C1459 C1460 1.355 . S
C1459 C1461 1.415 . S
C1460 C1459 1.355 . S
C1460 C1462 1.419 . S
C1461 C1456 1.425 . S
C1461 C1458 1.409 . S
C1461 C1459 1.415 . S
C1462 H1452 0.930 . S
C1462 C1460 1.419 . S
C1462 C1463 1.362 . S
C1463 H1453 0.930 . S
C1463 C1456 1.409 . S
C1463 C1462 1.362 . S
H1464 C1470 0.930 . S
H1465 C1473 0.930 . S
H1466 C1474 0.930 . S
H1467 C1475 0.930 . S
H1468 C1478 0.930 . S
H1469 C1479 0.930 . S
C1470 H1464 0.930 . S
C1470 C1471 1.355 . S
C1470 C1472 1.415 . S
C1471 C1470 1.355 . S
C1471 C1473 1.419 . S
C1472 C1470 1.415 . S
C1472 C1477 1.425 . S
C1472 C1479 1.409 . S
C1473 H1465 0.930 . S
C1473 C1471 1.419 . S
C1473 C1474 1.362 . S
C1474 H1466 0.930 . S
C1474 C1473 1.362 . S
C1474 C1477 1.409 . S
C1475 H1467 0.930 . S
C1475 C1476 1.355 . S
C1475 C1477 1.415 . S
C1476 C1475 1.355 . S
C1476 C1478 1.419 . S
C1477 C1472 1.425 . S
C1477 C1474 1.409 . S
C1477 C1475 1.415 . S
C1478 H1468 0.930 . S
C1478 C1476 1.419 . S
C1478 C1479 1.362 . S
C1479 H1469 0.930 . S
C1479 C1472 1.409 . S
C1479 C1478 1.362 . S
H1480 C1486 0.930 . S
H1481 C1489 0.930 . S
H1482 C1490 0.930 . S
H1483 C1491 0.930 . S
H1484 C1494 0.930 . S
H1485 C1495 0.930 . S
C1486 H1480 0.930 . S
C1486 C1487 1.355 . S
C1486 C1488 1.415 . S
C1487 C1486 1.355 . S
C1487 C1489 1.419 . S
C1488 C1486 1.415 . S
C1488 C1493 1.425 . S
C1488 C1495 1.409 . S
C1489 H1481 0.930 . S
C1489 C1487 1.419 . S
C1489 C1490 1.362 . S
C1490 H1482 0.930 . S
C1490 C1489 1.362 . S
C1490 C1493 1.409 . S
C1491 H1483 0.930 . S
C1491 C1492 1.355 . S
C1491 C1493 1.415 . S
C1492 C1491 1.355 . S
C1492 C1494 1.419 . S
C1493 C1488 1.425 . S
C1493 C1490 1.409 . S
C1493 C1491 1.415 . S
C1494 H1484 0.930 . S
C1494 C1492 1.419 . S
C1494 C1495 1.362 . S
C1495 H1485 0.930 . S
C1495 C1488 1.409 . S
C1495 C1494 1.362 . S
H1496 C1502 0.930 . S
H1497 C1505 0.930 . S
H1498 C1506 0.930 . S
H1499 C1507 0.930 . S
H1500 C1510 0.930 . S
H1501 C1511 0.930 . S
C1502 H1496 0.930 . S
C1502 C1503 1.355 . S
C1502 C1504 1.415 . S
C1503 C1502 1.355 . S
C1503 C1505 1.419 . S
C1504 C1502 1.415 . S
C1504 C1509 1.425 . S
C1504 C1511 1.409 . S
C1505 H1497 0.930 . S
C1505 C1503 1.419 . S
C1505 C1506 1.362 . S
C1506 H1498 0.930 . S
C1506 C1505 1.362 . S
C1506 C1509 1.409 . S
C1507 H1499 0.930 . S
C1507 C1508 1.355 . S
C1507 C1509 1.415 . S
C1508 C1507 1.355 . S
C1508 C1510 1.419 . S
C1509 C1504 1.425 . S
C1509 C1506 1.409 . S
C1509 C1507 1.415 . S
C1510 H1500 0.930 . S
C1510 C1508 1.419 . S
C1510 C1511 1.362 . S
C1511 H1501 0.930 . S
C1511 C1504 1.409 . S
C1511 C1510 1.362 . S
H1512 C1518 0.930 . S
H1513 C1521 0.930 . S
H1514 C1522 0.930 . S
H1515 C1523 0.930 . S
H1516 C1526 0.930 . S
H1517 C1527 0.930 . S
C1518 H1512 0.930 . S
C1518 C1519 1.355 . S
C1518 C1520 1.415 . S
C1519 C1518 1.355 . S
C1519 C1521 1.419 . S
C1520 C1518 1.415 . S
C1520 C1525 1.425 . S
C1520 C1527 1.409 . S
C1521 H1513 0.930 . S
C1521 C1519 1.419 . S
C1521 C1522 1.362 . S
C1522 H1514 0.930 . S
C1522 C1521 1.362 . S
C1522 C1525 1.409 . S
C1523 H1515 0.930 . S
C1523 C1524 1.355 . S
C1523 C1525 1.415 . S
C1524 C1523 1.355 . S
C1524 C1526 1.419 . S
C1525 C1520 1.425 . S
C1525 C1522 1.409 . S
C1525 C1523 1.415 . S
C1526 H1516 0.930 . S
C1526 C1524 1.419 . S
C1526 C1527 1.362 . S
C1527 H1517 0.930 . S
C1527 C1520 1.409 . S
C1527 C1526 1.362 . S
H1528 C1534 0.930 . S
H1529 C1537 0.930 . S
H1530 C1538 0.930 . S
H1531 C1539 0.930 . S
H1532 C1542 0.930 . S
H1533 C1543 0.930 . S
C1534 H1528 0.930 . S
C1534 C1535 1.355 . S
C1534 C1536 1.415 . S
C1535 C1534 1.355 . S
C1535 C1537 1.419 . S
C1536 C1534 1.415 . S
C1536 C1541 1.425 . S
C1536 C1543 1.409 . S
C1537 H1529 0.930 . S
C1537 C1535 1.419 . S
C1537 C1538 1.362 . S
C1538 H1530 0.930 . S
C1538 C1537 1.362 . S
C1538 C1541 1.409 . S
C1539 H1531 0.930 . S
C1539 C1540 1.355 . S
C1539 C1541 1.415 . S
C1540 C1539 1.355 . S
C1540 C1542 1.419 . S
C1541 C1536 1.425 . S
C1541 C1538 1.409 . S
C1541 C1539 1.415 . S
C1542 H1532 0.930 . S
C1542 C1540 1.419 . S
C1542 C1543 1.362 . S
C1543 H1533 0.930 . S
C1543 C1536 1.409 . S
C1543 C1542 1.362 . S
H1544 C1550 0.930 . S
H1545 C1553 0.930 . S
H1546 C1554 0.930 . S
H1547 C1555 0.930 . S
H1548 C1558 0.930 . S
H1549 C1559 0.930 . S
C1550 H1544 0.930 . S
C1550 C1551 1.355 . S
C1550 C1552 1.415 . S
C1551 C1550 1.355 . S
C1551 C1553 1.419 . S
C1552 C1550 1.415 . S
C1552 C1557 1.425 . S
C1552 C1559 1.409 . S
C1553 H1545 0.930 . S
C1553 C1551 1.419 . S
C1553 C1554 1.362 . S
C1554 H1546 0.930 . S
C1554 C1553 1.362 . S
C1554 C1557 1.409 . S
C1555 H1547 0.930 . S
C1555 C1556 1.355 . S
C1555 C1557 1.415 . S
C1556 C1555 1.355 . S
C1556 C1558 1.419 . S
C1557 C1552 1.425 . S
C1557 C1554 1.409 . S
C1557 C1555 1.415 . S
C1558 H1548 0.930 . S
C1558 C1556 1.419 . S
C1558 C1559 1.362 . S
C1559 H1549 0.930 . S
C1559 C1552 1.409 . S
C1559 C1558 1.362 . S
H1560 C1566 0.930 . S
H1561 C1569 0.930 . S
H1562 C1570 0.930 1_655 S
H1563 C1571 0.930 . S
H1564 C1574 0.930 . S
H1565 C1575 0.927 1_455 S
C1566 H1560 0.930 . S
C1566 C1567 1.355 . S
C1566 C1568 1.415 . S
C1567 C1566 1.355 . S
C1567 C1569 1.419 . S
C1568 C1566 1.415 . S
C1568 C1573 1.425 1_455 S
C1568 C1575 1.408 1_455 S
C1569 H1561 0.930 . S
C1569 C1567 1.419 . S
C1569 C1570 1.362 . S
C1570 H1562 0.930 1_455 S
C1570 C1569 1.362 . S
C1570 C1573 1.409 1_455 S
C1571 H1563 0.930 . S
C1571 C1572 1.355 . S
C1571 C1573 1.415 . S
C1572 C1571 1.355 . S
C1572 C1574 1.419 . S
C1573 C1568 1.425 1_655 S
C1573 C1570 1.409 1_655 S
C1573 C1571 1.415 . S
C1574 H1564 0.930 . S
C1574 C1572 1.419 . S
C1574 C1575 1.367 . S
C1575 H1565 0.927 1_655 S
C1575 C1568 1.408 1_655 S
C1575 C1574 1.367 . S
H1576 C1582 0.930 . S
H1577 C1585 0.930 . S
H1578 C1586 0.930 . S
H1579 C1587 0.930 . S
H1580 C1590 0.930 . S
H1581 C1591 0.930 . S
C1582 H1576 0.930 . S
C1582 C1583 1.355 . S
C1582 C1584 1.415 . S
C1583 C1582 1.355 . S
C1583 C1585 1.419 . S
C1584 C1582 1.415 . S
C1584 C1589 1.425 . S
C1584 C1591 1.409 . S
C1585 H1577 0.930 . S
C1585 C1583 1.419 . S
C1585 C1586 1.362 . S
C1586 H1578 0.930 . S
C1586 C1585 1.362 . S
C1586 C1589 1.409 . S
C1587 H1579 0.930 . S
C1587 C1588 1.355 . S
C1587 C1589 1.415 . S
C1588 C1587 1.355 . S
C1588 C1590 1.419 . S
C1589 C1584 1.425 . S
C1589 C1586 1.409 . S
C1589 C1587 1.415 . S
C1590 H1580 0.930 . S
C1590 C1588 1.419 . S
C1590 C1591 1.362 . S
C1591 H1581 0.930 . S
C1591 C1584 1.409 . S
C1591 C1590 1.362 . S
H1592 C1598 0.930 . S
H1593 C1601 0.930 . S
H1594 C1602 0.930 . S
H1595 C1603 0.930 . S
H1596 C1606 0.930 . S
H1597 C1607 0.930 . S
C1598 H1592 0.930 . S
C1598 C1599 1.355 . S
C1598 C1600 1.415 . S
C1599 C1598 1.355 . S
C1599 C1601 1.419 . S
C1600 C1598 1.415 . S
C1600 C1605 1.425 . S
C1600 C1607 1.409 1_545 S
C1601 H1593 0.930 . S
C1601 C1599 1.419 . S
C1601 C1602 1.362 . S
C1602 H1594 0.930 . S
C1602 C1601 1.362 . S
C1602 C1605 1.409 . S
C1603 H1595 0.930 . S
C1603 C1604 1.355 . S
C1603 C1605 1.415 1_565 S
C1604 C1603 1.355 . S
C1604 C1606 1.419 . S
C1605 C1600 1.425 . S
C1605 C1602 1.409 . S
C1605 C1603 1.415 1_545 S
C1606 H1596 0.930 . S
C1606 C1604 1.419 . S
C1606 C1607 1.362 . S
C1607 H1597 0.930 . S
C1607 C1600 1.409 1_565 S
C1607 C1606 1.362 . S
H1608 C1614 0.930 . S
H1609 C1617 0.930 . S
H1610 C1618 0.930 . S
H1611 C1619 0.930 . S
H1612 C1622 0.930 . S
H1613 C1623 0.930 1_545 S
C1614 H1608 0.930 . S
C1614 C1615 1.355 1_554 S
C1614 C1616 1.415 . S
C1615 C1614 1.355 1_556 S
C1615 C1617 1.419 . S
C1616 C1614 1.415 . S
C1616 C1621 1.425 1_544 S
C1616 C1623 1.409 1_545 S
C1617 H1609 0.930 . S
C1617 C1615 1.419 . S
C1617 C1618 1.362 1_545 S
C1618 H1610 0.930 . S
C1618 C1617 1.362 1_565 S
C1618 C1621 1.409 . S
C1619 H1611 0.930 . S
C1619 C1620 1.355 1_556 S
C1619 C1621 1.415 . S
C1620 C1619 1.355 1_554 S
C1620 C1622 1.419 . S
C1621 C1616 1.425 1_566 S
C1621 C1618 1.409 . S
C1621 C1619 1.415 . S
C1622 H1612 0.930 . S
C1622 C1620 1.419 . S
C1622 C1623 1.362 . S
C1623 H1613 0.930 1_565 S
C1623 C1616 1.409 1_565 S
C1623 C1622 1.362 . S
H1624 C1630 0.930 . S
H1625 C1633 0.930 . S
H1626 C1634 0.930 . S
H1627 C1635 0.930 . S
H1628 C1638 0.930 . S
H1629 C1639 0.930 . S
C1630 H1624 0.930 . S
C1630 C1631 1.355 . S
C1630 C1632 1.415 . S
C1631 C1630 1.355 . S
C1631 C1633 1.419 1_556 S
C1632 C1630 1.415 . S
C1632 C1637 1.420 1_556 S
C1632 C1639 1.409 1_655 S
C1633 H1625 0.930 . S
C1633 C1631 1.419 1_554 S
C1633 C1634 1.362 . S
C1634 H1626 0.930 . S
C1634 C1633 1.362 . S
C1634 C1637 1.440 . S
C1635 H1627 0.930 . S
C1635 C1636 1.355 . S
C1635 C1637 1.390 1_455 S
C1636 C1635 1.355 . S
C1636 C1638 1.419 1_554 S
C1637 C1632 1.420 1_554 S
C1637 C1634 1.440 . S
C1637 C1635 1.390 1_655 S
C1638 H1628 0.930 . S
C1638 C1636 1.419 1_556 S
C1638 C1639 1.362 . S
C1639 H1629 0.930 . S
C1639 C1632 1.409 1_455 S
C1639 C1638 1.362 . S
H1640 C1646 0.930 . S
H1641 C1649 0.930 . S
H1642 C1650 0.930 . S
H1643 C1651 0.929 1_556 S
H1644 C1654 0.930 . S
H1645 C1655 0.930 . S
C1646 H1640 0.930 . S
C1646 C1647 1.355 . S
C1646 C1648 1.415 . S
C1647 C1646 1.355 . S
C1647 C1649 1.419 . S
C1648 C1646 1.415 . S
C1648 C1653 1.425 . S
C1648 C1655 1.409 1_556 S
C1649 H1641 0.930 . S
C1649 C1647 1.419 . S
C1649 C1650 1.362 . S
C1650 H1642 0.930 . S
C1650 C1649 1.362 . S
C1650 C1653 1.409 . S
C1651 H1643 0.929 1_554 S
C1651 C1652 1.358 . S
C1651 C1653 1.412 1_554 S
C1652 C1651 1.358 . S
C1652 C1654 1.419 . S
C1653 C1648 1.425 . S
C1653 C1650 1.409 . S
C1653 C1651 1.412 1_556 S
C1654 H1644 0.930 . S
C1654 C1652 1.419 . S
C1654 C1655 1.362 . S
C1655 H1645 0.930 . S
C1655 C1648 1.409 1_554 S
C1655 C1654 1.362 . S
C511 C11 1.149 . S
C516 C102 1.194 . S
C527 C19 1.216 . S
C532 C116 1.281 . S
C543 C88 1.223 . S
C548 C33 1.097 . S
C559 C158 1.232 . S
C564 C47 1.208 . S
C575 C61 1.149 . S
C580 C130 1.243 . S
C591 C81 1.126 . S
C596 C144 1.231 . S
C607 C18 1.094 . S
C612 C89 1.078 . S
C623 C32 1.194 . S
C628 C103 1.082 . S
C639 C117 0.983 . S
C644 C12 1.111 . S
C655 C131 1.118 . S
C660 C82 1.129 . S
C671 C46 1.228 . S
C676 C145 1.152 . S
C687 C159 0.985 . S
C692 C60 1.101 . S
C703 C270 1.192 . S
C708 C179 1.155 . S
C719 C187 1.194 . S
C724 C284 1.278 . S
C735 C201 1.100 . S
C740 C256 1.225 . S
C751 C326 1.221 . S
C756 C215 1.192 . S
C767 C229 1.152 . S
C772 C298 1.243 . S
C783 C312 1.225 . S
C788 C249 1.172 . S
C799 C186 1.117 . S
C804 C257 1.111 . S
C815 C271 1.107 . S
C820 C200 1.217 . S
C831 C180 1.105 . S
C836 C285 1.089 . S
C847 C299 1.116 . S
C852 C250 1.120 . S
C863 C313 1.082 . S
C868 C214 1.197 . S
C879 C327 1.112 . S
C884 C228 1.118 . S
C895 C438 1.227 . S
C900 C347 1.163 . S
C911 C452 1.276 . S
C916 C355 1.184 . S
C927 C424 1.241 . S
C932 C369 1.212 . S
C943 C383 1.123 . S
C948 C494 1.203 . S
C959 C397 1.148 . S
C964 C466 1.264 . S
C975 C480 1.211 . S
C980 C417 1.203 . S
C991 C425 1.026 . S
C996 C354 1.080 . S
C1007 C368 1.194 . S
C1012 C439 1.083 . S
C1023 C348 1.113 . S
C1028 C453 0.984 . S
C1039 C467 0.984 . S
C1044 C418 1.113 . S
C1055 C481 1.183 . S
C1060 C382 1.200 . S
C1071 C495 1.113 . S
C1076 C396 1.123 . S
C1087 C54 1.557 . S
C1092 C4 1.489 . S
C1103 C68 1.542 . S
C1108 C26 1.529 . S
C1119 C40 1.492 . S
C1124 C74 1.395 . S
C1135 C138 1.406 . S
C1140 C96 1.422 . S
C1151 C152 1.486 . S
C1156 C110 1.476 . S
C1167 C166 1.461 . S
C1172 C124 1.444 . S
C1183 C222 1.500 . S
C1188 C172 1.392 . S
C1199 C236 1.523 . S
C1204 C194 1.497 . S
C1215 C208 1.548 . S
C1220 C242 1.484 . S
C1231 C306 1.467 . S
C1236 C264 1.454 . S
C1247 C320 1.540 . S
C1252 C278 1.538 . S
C1263 C334 1.404 . S
C1268 C292 1.402 . S
C1279 C390 1.556 . S
C1284 C340 1.490 . S
C1295 C362 1.543 . S
C1300 C404 1.532 . S
C1311 C410 1.458 . S
C1316 C376 1.544 . S
C1327 C432 1.451 . S
C1332 C474 1.467 . S
C1343 C446 1.532 . S
C1348 C488 1.508 . S
C1359 C460 1.459 . S
C1364 C502 1.432 . S
C1375 C5 1.251 . S
C1380 C263 1.425 . S
C1391 C277 1.425 . S
C1396 C25 1.427 . S
C1407 C291 1.449 . S
C1412 C39 1.448 . S
C1423 C473 1.425 . S
C1428 C53 1.425 . S
C1439 C487 1.437 . S
C1444 C67 1.439 . S
C1455 C501 1.434 . S
C1460 C75 1.217 . S
C1471 C95 1.427 . S
C1476 C341 1.246 . S
C1487 C361 1.423 . S
C1492 C109 1.422 . S
C1503 C375 1.401 . S
C1508 C123 1.402 . S
C1519 C137 1.425 . S
C1524 C221 1.423 . S
C1535 C151 1.413 . S
C1540 C235 1.416 . S
C1551 C165 1.398 . S
C1556 C243 1.222 . S
C1567 C431 1.434 . S
C1572 C173 1.195 . S
C1583 C445 1.417 . S
C1588 C193 1.419 . S
C1599 C207 1.443 . S
C1604 C459 1.444 . S
C1615 C305 1.445 . S
C1620 C389 1.444 . S
C1631 C319 1.395 . S
C1636 C403 1.398 . S
C1647 C333 1.425 . S
C1652 C411 1.251 . S
