# Generated by pormake.
# Topology swl, (7)-cn, num edge types: 1
# Building blocks:
#     Node 0, Type 0, BuildingBlock: HICVOG_clean_sbu_0, # of connection points: 7
#     Node 1, Type 0, BuildingBlock: HICVOG_clean_sbu_0, # of connection points: 7
#     Node 2, Type 0, BuildingBlock: HICVOG_clean_sbu_0, # of connection points: 7
#     Node 3, Type 0, BuildingBlock: HICVOG_clean_sbu_0, # of connection points: 7
#     Node 4, Type 0, BuildingBlock: HICVOG_clean_sbu_0, # of connection points: 7
#     Node 5, Type 0, BuildingBlock: HICVOG_clean_sbu_0, # of connection points: 7
#     Node 6, Type 0, BuildingBlock: HICVOG_clean_sbu_0, # of connection points: 7
#     Node 7, Type 0, BuildingBlock: HICVOG_clean_sbu_0, # of connection points: 7
#     Node 8, Type 0, BuildingBlock: HICVOG_clean_sbu_0, # of connection points: 7
#     Node 9, Type 0, BuildingBlock: HICVOG_clean_sbu_0, # of connection points: 7
#     Node 10, Type 0, BuildingBlock: HICVOG_clean_sbu_0, # of connection points: 7
#     Node 11, Type 0, BuildingBlock: HICVOG_clean_sbu_0, # of connection points: 7
#     Node 12, Type 0, BuildingBlock: HICVOG_clean_sbu_0, # of connection points: 7
#     Node 13, Type 0, BuildingBlock: HICVOG_clean_sbu_0, # of connection points: 7
#     Node 14, Type 0, BuildingBlock: HICVOG_clean_sbu_0, # of connection points: 7
#     Node 15, Type 0, BuildingBlock: HICVOG_clean_sbu_0, # of connection points: 7
#     Edge 16, Type (0, 0), BuildingBlock: AJUNOK_clean_linker_0, # of connection points: 2
#     Edge 17, Type (0, 0), BuildingBlock: AJUNOK_clean_linker_0, # of connection points: 2
#     Edge 18, Type (0, 0), BuildingBlock: AJUNOK_clean_linker_0, # of connection points: 2
#     Edge 19, Type (0, 0), BuildingBlock: AJUNOK_clean_linker_0, # of connection points: 2
#     Edge 20, Type (0, 0), BuildingBlock: AJUNOK_clean_linker_0, # of connection points: 2
#     Edge 21, Type (0, 0), BuildingBlock: AJUNOK_clean_linker_0, # of connection points: 2
#     Edge 22, Type (0, 0), BuildingBlock: AJUNOK_clean_linker_0, # of connection points: 2
#     Edge 23, Type (0, 0), BuildingBlock: AJUNOK_clean_linker_0, # of connection points: 2
#     Edge 24, Type (0, 0), BuildingBlock: AJUNOK_clean_linker_0, # of connection points: 2
#     Edge 25, Type (0, 0), BuildingBlock: AJUNOK_clean_linker_0, # of connection points: 2
#     Edge 26, Type (0, 0), BuildingBlock: AJUNOK_clean_linker_0, # of connection points: 2
#     Edge 27, Type (0, 0), BuildingBlock: AJUNOK_clean_linker_0, # of connection points: 2
#     Edge 28, Type (0, 0), BuildingBlock: AJUNOK_clean_linker_0, # of connection points: 2
#     Edge 29, Type (0, 0), BuildingBlock: AJUNOK_clean_linker_0, # of connection points: 2
#     Edge 30, Type (0, 0), BuildingBlock: AJUNOK_clean_linker_0, # of connection points: 2
#     Edge 31, Type (0, 0), BuildingBlock: AJUNOK_clean_linker_0, # of connection points: 2
#     Edge 32, Type (0, 0), BuildingBlock: AJUNOK_clean_linker_0, # of connection points: 2
#     Edge 33, Type (0, 0), BuildingBlock: AJUNOK_clean_linker_0, # of connection points: 2
#     Edge 34, Type (0, 0), BuildingBlock: AJUNOK_clean_linker_0, # of connection points: 2
#     Edge 35, Type (0, 0), BuildingBlock: AJUNOK_clean_linker_0, # of connection points: 2
#     Edge 36, Type (0, 0), BuildingBlock: AJUNOK_clean_linker_0, # of connection points: 2
#     Edge 37, Type (0, 0), BuildingBlock: AJUNOK_clean_linker_0, # of connection points: 2
#     Edge 38, Type (0, 0), BuildingBlock: AJUNOK_clean_linker_0, # of connection points: 2
#     Edge 39, Type (0, 0), BuildingBlock: AJUNOK_clean_linker_0, # of connection points: 2
#     Edge 40, Type (0, 0), BuildingBlock: AJUNOK_clean_linker_0, # of connection points: 2
#     Edge 41, Type (0, 0), BuildingBlock: AJUNOK_clean_linker_0, # of connection points: 2
#     Edge 42, Type (0, 0), BuildingBlock: AJUNOK_clean_linker_0, # of connection points: 2
#     Edge 43, Type (0, 0), BuildingBlock: AJUNOK_clean_linker_0, # of connection points: 2
#     Edge 44, Type (0, 0), BuildingBlock: AJUNOK_clean_linker_0, # of connection points: 2
#     Edge 45, Type (0, 0), BuildingBlock: AJUNOK_clean_linker_0, # of connection points: 2
#     Edge 46, Type (0, 0), BuildingBlock: AJUNOK_clean_linker_0, # of connection points: 2
#     Edge 47, Type (0, 0), BuildingBlock: AJUNOK_clean_linker_0, # of connection points: 2
#     Edge 48, Type (0, 0), BuildingBlock: AJUNOK_clean_linker_0, # of connection points: 2
#     Edge 49, Type (0, 0), BuildingBlock: AJUNOK_clean_linker_0, # of connection points: 2
#     Edge 50, Type (0, 0), BuildingBlock: AJUNOK_clean_linker_0, # of connection points: 2
#     Edge 51, Type (0, 0), BuildingBlock: AJUNOK_clean_linker_0, # of connection points: 2
#     Edge 52, Type (0, 0), BuildingBlock: AJUNOK_clean_linker_0, # of connection points: 2
#     Edge 53, Type (0, 0), BuildingBlock: AJUNOK_clean_linker_0, # of connection points: 2
#     Edge 54, Type (0, 0), BuildingBlock: AJUNOK_clean_linker_0, # of connection points: 2
#     Edge 55, Type (0, 0), BuildingBlock: AJUNOK_clean_linker_0, # of connection points: 2
#     Edge 56, Type (0, 0), BuildingBlock: AJUNOK_clean_linker_0, # of connection points: 2
#     Edge 57, Type (0, 0), BuildingBlock: AJUNOK_clean_linker_0, # of connection points: 2
#     Edge 58, Type (0, 0), BuildingBlock: AJUNOK_clean_linker_0, # of connection points: 2
#     Edge 59, Type (0, 0), BuildingBlock: AJUNOK_clean_linker_0, # of connection points: 2
#     Edge 60, Type (0, 0), BuildingBlock: AJUNOK_clean_linker_0, # of connection points: 2
#     Edge 61, Type (0, 0), BuildingBlock: AJUNOK_clean_linker_0, # of connection points: 2
#     Edge 62, Type (0, 0), BuildingBlock: AJUNOK_clean_linker_0, # of connection points: 2
#     Edge 63, Type (0, 0), BuildingBlock: AJUNOK_clean_linker_0, # of connection points: 2
#     Edge 64, Type (0, 0), BuildingBlock: AJUNOK_clean_linker_0, # of connection points: 2
#     Edge 65, Type (0, 0), BuildingBlock: AJUNOK_clean_linker_0, # of connection points: 2
#     Edge 66, Type (0, 0), BuildingBlock: AJUNOK_clean_linker_0, # of connection points: 2
#     Edge 67, Type (0, 0), BuildingBlock: AJUNOK_clean_linker_0, # of connection points: 2
#     Edge 68, Type (0, 0), BuildingBlock: AJUNOK_clean_linker_0, # of connection points: 2
#     Edge 69, Type (0, 0), BuildingBlock: AJUNOK_clean_linker_0, # of connection points: 2
#     Edge 70, Type (0, 0), BuildingBlock: AJUNOK_clean_linker_0, # of connection points: 2
#     Edge 71, Type (0, 0), BuildingBlock: AJUNOK_clean_linker_0, # of connection points: 2
# Relax obj value: 0.091
# Max RMSD: 0.189
# Mean RMSD: 0.189
data_MOF--net-swl--node1-HICVOG_clean_sbu_0--edge1-AJUNOK_clean_linker_0
_symmetry_space_group_name_H-M    P1
_symmetry_Int_Tables_number       1
_symmetry_cell_setting            triclinic
loop_
_symmetry_equiv_pos_as_xyz
'x, y, z'
_cell_length_a     14.26166
_cell_length_b     62.936504
_cell_length_c     36.985762
_cell_angle_alpha  90.468529
_cell_angle_beta   90.062386
_cell_angle_gamma 90.208357
loop_
_atom_site_label
_atom_site_type_symbol
_atom_site_fract_x
_atom_site_fract_y
_atom_site_fract_z
_atom_type_partial_charge
Zn0 Zn 0.02976 0.12976 0.5272 0.0
C1 C 0.21016 0.15541 0.45654 0.0
N2 N 0.14333 0.15144 0.43208 0.0
C3 C 0.07212 0.1446 0.45259 0.0
N4 N 0.09409 0.14408 0.48801 0.0
N5 N 0.18116 0.15116 0.49032 0.0
C6 C 0.42981 0.14724 0.52994 0.0
O7 O 0.38483 0.13022 0.5408 0.0
O8 O 0.88665 0.12941 0.52138 0.0
Zn9 Zn 0.24015 0.16344 0.53238 0.0
N10 N 0.08331 0.10131 0.52896 0.0
C11 C 0.2289 0.08305 0.5324 0.0
C12 C 0.17847 0.1018 0.52973 0.0
C13 C 0.03571 0.08252 0.53146 0.0
N14 N 0.1821 0.06436 0.53471 0.0
C15 C 0.08675 0.06335 0.53431 0.0
O16 O 0.20933 0.14926 0.57996 0.0
C17 C 0.13104 0.14534 0.59524 0.0
O18 O 0.05659 0.14178 0.57704 0.0
H19 H 0.21484 0.11681 0.52886 0.0
H20 H 0.95993 0.08268 0.5324 0.0
C21 C 0.23188 0.21055 0.5379 0.0
C22 C 0.18029 0.22966 0.54062 0.0
C23 C 0.03885 0.20967 0.54081 0.0
C24 C 0.08978 0.19096 0.5378 0.0
N25 N 0.18496 0.19164 0.53644 0.0
N26 N 0.08507 0.22849 0.5422 0.0
H27 H 0.30771 0.2106 0.53757 0.0
C28 C 0.83901 0.14624 0.51624 0.0
O29 O 0.88368 0.1644 0.51294 0.0
O30 O 0.38312 0.16424 0.52516 0.0
H31 H 0.05369 0.17589 0.53666 0.0
H32 H 0.30474 0.08333 0.53309 0.0
H33 H 0.96308 0.20926 0.54203 0.0
Zn34 Zn 0.02198 0.15844 0.81995 0.0
C35 C 0.20025 0.13317 0.89182 0.0
N36 N 0.13399 0.13689 0.91651 0.0
C37 C 0.06273 0.14399 0.89629 0.0
N38 N 0.08426 0.14481 0.86071 0.0
N39 N 0.1709 0.13763 0.85823 0.0
C40 C 0.42396 0.14008 0.8142 0.0
O41 O 0.38403 0.15603 0.79753 0.0
O42 O 0.87834 0.15888 0.82443 0.0
Zn43 Zn 0.23026 0.1257 0.81611 0.0
N44 N 0.07828 0.18679 0.81608 0.0
C45 C 0.22515 0.20465 0.8106 0.0
C46 C 0.17345 0.18609 0.81502 0.0
C47 C 0.03217 0.20563 0.81258 0.0
N48 N 0.17973 0.22339 0.80739 0.0
C49 C 0.08455 0.22461 0.80844 0.0
O50 O 0.20355 0.1406 0.7692 0.0
C51 C 0.12529 0.14304 0.75316 0.0
O52 O 0.04896 0.14505 0.77079 0.0
H53 H 0.20903 0.17108 0.81704 0.0
H54 H 0.95633 0.20574 0.81218 0.0
C55 C 0.22089 0.07912 0.80494 0.0
C56 C 0.16976 0.05998 0.80049 0.0
C57 C 0.0279 0.07909 0.80807 0.0
C58 C 0.0784 0.0979 0.81185 0.0
N59 N 0.17362 0.09765 0.81039 0.0
N60 N 0.07453 0.06065 0.80252 0.0
H61 H 0.29672 0.07932 0.80457 0.0
C62 C 0.83113 0.14271 0.83442 0.0
O63 O 0.87626 0.12545 0.84375 0.0
O64 O 0.37268 0.12455 0.82417 0.0
H65 H 0.04179 0.11268 0.81593 0.0
H66 H 0.3009 0.20416 0.8095 0.0
H67 H 0.95212 0.07913 0.8094 0.0
Zn68 Zn 0.99137 0.91345 0.56887 0.0
C69 C 0.82282 0.89307 0.64703 0.0
N70 N 0.8931 0.89983 0.6684 0.0
C71 C 0.95994 0.90458 0.64441 0.0
N72 N 0.9313 0.90111 0.61021 0.0
N73 N 0.84497 0.89355 0.61163 0.0
C74 C 0.59173 0.89556 0.58606 0.0
O75 O 0.63759 0.91315 0.59376 0.0
O76 O 0.1341 0.91461 0.57723 0.0
Zn77 Zn 0.78189 0.87971 0.57099 0.0
N78 N 0.93334 0.94135 0.56332 0.0
C79 C 0.78497 0.95846 0.55936 0.0
C80 C 0.83816 0.94024 0.56406 0.0
C81 C 0.97799 0.96027 0.55779 0.0
N82 N 0.82894 0.97723 0.55373 0.0
C83 C 0.92407 0.97885 0.55262 0.0
O84 O 0.8109 0.89236 0.52156 0.0
C85 C 0.88885 0.89443 0.50494 0.0
O86 O 0.9651 0.89826 0.52178 0.0
H87 H 0.80363 0.92517 0.56788 0.0
H88 H 0.05378 0.96072 0.55666 0.0
C89 C 0.79052 0.83239 0.56348 0.0
C90 C 0.84304 0.81359 0.55791 0.0
C91 C 0.98357 0.83382 0.56112 0.0
C92 C 0.93176 0.85224 0.56606 0.0
N93 N 0.83664 0.85134 0.56734 0.0
N94 N 0.93823 0.81503 0.55712 0.0
H95 H 0.71465 0.83208 0.56356 0.0
C96 C 0.18411 0.89884 0.56726 0.0
O97 O 0.14277 0.88285 0.55058 0.0
O98 O 0.63821 0.87911 0.57672 0.0
H99 H 0.96716 0.86735 0.56822 0.0
H100 H 0.7092 0.95768 0.55993 0.0
H101 H 0.0593 0.83445 0.55992 0.0
Zn102 Zn 0.78089 0.90578 0.28341 0.0
C103 C 0.94847 0.8867 0.20406 0.0
N104 N 0.87743 0.8935 0.18341 0.0
C105 C 0.81095 0.89756 0.2079 0.0
N106 N 0.84002 0.89352 0.24169 0.0
N107 N 0.92681 0.88647 0.23959 0.0
C108 C 0.18013 0.88878 0.26524 0.0
O109 O 0.13518 0.90614 0.25636 0.0
O110 O 0.63855 0.90681 0.27535 0.0
Zn111 Zn 0.98943 0.87347 0.28054 0.0
N112 N 0.83739 0.9338 0.28733 0.0
C113 C 0.98262 0.95257 0.28907 0.0
C114 C 0.93268 0.93363 0.28656 0.0
C115 C 0.78947 0.95239 0.29051 0.0
N116 N 0.93527 0.97111 0.2921 0.0
C117 C 0.83989 0.97171 0.29268 0.0
O118 O 0.96332 0.88741 0.32924 0.0
C119 C 0.88744 0.88975 0.34704 0.0
O120 O 0.80872 0.89177 0.33113 0.0
H121 H 0.96977 0.9188 0.2841 0.0
H122 H 0.71374 0.95201 0.29191 0.0
C123 C 0.97942 0.82669 0.28934 0.0
C124 C 0.92758 0.80769 0.2937 0.0
C125 C 0.78629 0.82728 0.28956 0.0
C126 C 0.83755 0.84594 0.28575 0.0
N127 N 0.93277 0.84539 0.28529 0.0
N128 N 0.83229 0.80866 0.29336 0.0
H129 H 0.05524 0.82665 0.28884 0.0
C130 C 0.58731 0.89128 0.28531 0.0
O131 O 0.62722 0.87536 0.30209 0.0
O132 O 0.13277 0.87263 0.27526 0.0
H133 H 0.80157 0.86088 0.28337 0.0
H134 H 0.05847 0.95258 0.2886 0.0
H135 H 0.71047 0.82759 0.28981 0.0
Zn136 Zn 0.22564 0.65793 1.01754 0.0
C137 C 0.05662 0.62552 0.94997 0.0
N138 N 0.12946 0.62686 0.92723 0.0
C139 C 0.19578 0.63583 0.94794 0.0
N140 N 0.16617 0.63991 0.98173 0.0
N141 N 0.07858 0.63315 0.98307 0.0
C142 C 0.8278 0.6401 1.01074 0.0
O143 O 0.87574 0.65767 1.00575 0.0
O144 O 0.36899 0.65804 1.01073 0.0
Zn145 Zn 0.01557 0.62435 1.02636 0.0
N146 N 0.17265 0.6862 1.01121 0.0
C147 C 0.03782 0.70637 0.99533 0.0
C148 C 0.08273 0.68692 0.99899 0.0
C149 C 0.21973 0.70439 1.02002 0.0
N150 N 0.08441 0.72447 1.00417 0.0
C151 C 0.17449 0.72415 1.01629 0.0
O152 O 0.04527 0.6412 0.07216 0.0
C153 C 0.12252 0.64628 0.08749 0.0
O154 O 0.19672 0.64998 0.06934 0.0
H155 H 0.04536 0.67251 0.99254 0.0
H156 H 0.29042 0.70339 1.03051 0.0
C157 C 0.02427 0.57761 1.03614 0.0
C158 C 0.07641 0.55885 1.04174 0.0
C159 C 0.21572 0.57945 1.04609 0.0
C160 C 0.16438 0.59779 1.04015 0.0
N161 N 0.07 0.59665 1.0354 0.0
N162 N 0.17073 0.56049 0.04677 0.0
H163 H 0.94892 0.57722 1.03288 0.0
C164 C 0.41653 0.64098 1.0134 0.0
O165 O 0.372 0.62318 1.02036 0.0
O166 O 0.87236 0.62333 1.01939 0.0
H167 H 0.19958 0.61295 1.03913 0.0
H168 H 0.9662 0.70706 0.98575 0.0
H169 H 0.29085 0.58023 0.04999 0.0
Zn170 Zn 0.02361 0.65738 0.31334 0.0
C171 C 0.20032 0.63192 0.38475 0.0
N172 N 0.13341 0.63631 0.409 0.0
C173 C 0.06279 0.64286 0.38792 0.0
N174 N 0.08496 0.6426 0.35252 0.0
N175 N 0.17179 0.6355 0.35073 0.0
C176 C 0.42432 0.63805 0.30919 0.0
O177 O 0.38268 0.65442 0.29443 0.0
O178 O 0.87949 0.65776 0.31845 0.0
Zn179 Zn 0.23149 0.62285 0.30923 0.0
N180 N 0.08059 0.68558 0.31436 0.0
C181 C 0.22819 0.7034 0.31617 0.0
C182 C 0.17581 0.68476 0.31553 0.0
C183 C 0.0352 0.70459 0.31293 0.0
N184 N 0.18346 0.7223 0.31482 0.0
C185 C 0.08834 0.72362 0.31307 0.0
O186 O 0.20426 0.63728 0.26171 0.0
C187 C 0.1295 0.64287 0.24549 0.0
O188 O 0.05353 0.64661 0.26259 0.0
H189 H 0.2111 0.66965 0.31564 0.0
H190 H 0.9594 0.70485 0.31177 0.0
C191 C 0.21761 0.57563 0.30153 0.0
C192 C 0.16333 0.55677 0.29971 0.0
C193 C 0.02472 0.57732 0.3045 0.0
C194 C 0.0782 0.59581 0.30588 0.0
N195 N 0.17336 0.59474 0.30492 0.0
N196 N 0.06832 0.55831 0.30146 0.0
H197 H 0.29342 0.5751 0.30062 0.0
C198 C 0.8326 0.64127 0.32725 0.0
O199 O 0.87812 0.62375 0.33479 0.0
O200 O 0.37447 0.62192 0.31749 0.0
H201 H 0.04396 0.61103 0.30773 0.0
H202 H 0.30395 0.70286 0.31731 0.0
H203 H 0.949 0.57805 0.30561 0.0
Zn204 Zn 0.77763 0.3759 0.06598 0.0
C205 C 0.95561 0.4001 0.14036 0.0
N206 N 0.88832 0.39591 0.16437 0.0
C207 C 0.81769 0.389 0.14329 0.0
N208 N 0.84028 0.38886 0.1078 0.0
N209 N 0.9271 0.39614 0.10633 0.0
C210 C 0.17703 0.39346 0.06488 0.0
O211 O 0.13249 0.37724 0.0503 0.0
O212 O 0.63423 0.37545 0.07112 0.0
Zn213 Zn 0.98688 0.40861 0.06525 0.0
N214 N 0.83093 0.34746 0.06113 0.0
C215 C 0.97563 0.32891 0.0565 0.0
C216 C 0.92612 0.34773 0.06059 0.0
C217 C 0.78251 0.32884 0.05731 0.0
N218 N 0.92792 0.31037 0.05309 0.0
C219 C 0.83251 0.30959 0.05323 0.0
O220 O 0.96196 0.39366 1.01806 0.0
C221 C 0.88552 0.39135 1.00066 0.0
O222 O 0.80717 0.38926 1.01696 0.0
H223 H 0.9633 0.36257 0.06327 0.0
H224 H 0.70681 0.3291 0.0582 0.0
C225 C 0.97227 0.45525 0.05582 0.0
C226 C 0.91844 0.47375 0.05035 0.0
C227 C 0.77927 0.45318 0.05401 0.0
C228 C 0.83242 0.43501 0.05934 0.0
N229 N 0.92762 0.43624 0.05995 0.0
N230 N 0.82334 0.47206 0.0496 0.0
H231 H 0.04811 0.45587 0.05615 0.0
C232 C 0.58601 0.39162 0.08049 0.0
O233 O 0.63005 0.40935 0.08892 0.0
O234 O 0.1297 0.40995 0.07333 0.0
H235 H 0.79785 0.41992 0.06266 0.0
H236 H 0.05147 0.329 0.05606 0.0
H237 H 0.70352 0.45229 0.05331 0.0
Zn238 Zn 0.78283 0.40795 0.77603 0.0
C239 C 0.95719 0.38127 0.70373 0.0
N240 N 0.89038 0.38527 0.67947 0.0
C241 C 0.82039 0.39254 0.70032 0.0
N242 N 0.84336 0.39329 0.73572 0.0
N243 N 0.92977 0.38595 0.73752 0.0
C244 C 0.18408 0.3889 0.78051 0.0
O245 O 0.14314 0.40529 0.79594 0.0
O246 O 0.63884 0.40817 0.77173 0.0
Zn247 Zn 0.99084 0.37446 0.77901 0.0
N248 N 0.83917 0.43636 0.77701 0.0
C249 C 0.98542 0.45471 0.77415 0.0
C250 C 0.93387 0.43596 0.77276 0.0
C251 C 0.79374 0.45508 0.78338 0.0
N252 N 0.94068 0.47328 0.78059 0.0
C253 C 0.84626 0.47419 0.78557 0.0
O254 O 0.9658 0.38998 0.82566 0.0
C255 C 0.88947 0.39316 0.84263 0.0
O256 O 0.8123 0.39611 0.82594 0.0
H257 H 0.96972 0.42108 0.76896 0.0
H258 H 0.71872 0.45497 0.78769 0.0
C259 C 0.97789 0.32773 0.78807 0.0
C260 C 0.92431 0.30904 0.79275 0.0
C261 C 0.78478 0.32935 0.7895 0.0
C262 C 0.8377 0.34773 0.78542 0.0
N263 N 0.93287 0.34669 0.78476 0.0
N264 N 0.82914 0.31052 0.79318 0.0
H265 H 0.05374 0.32729 0.78783 0.0
C266 C 0.59212 0.3916 0.76274 0.0
O267 O 0.6378 0.37417 0.75435 0.0
O268 O 0.1334 0.37306 0.77099 0.0
H269 H 0.80303 0.36283 0.78291 0.0
H270 H 0.06072 0.45448 0.77066 0.0
H271 H 0.70901 0.33003 0.78999 0.0
Zn272 Zn 0.73287 0.15913 1.03485 0.0
C273 C 0.56274 0.14394 0.95437 0.0
N274 N 0.63437 0.15155 0.93489 0.0
C275 C 0.70194 0.1535 0.9597 0.0
N276 N 0.67351 0.14736 0.99259 0.0
N277 N 0.5853 0.14111 0.98948 0.0
C278 C 0.33473 0.14247 1.0167 0.0
O279 O 0.38185 0.15975 1.00858 0.0
O280 O 0.87602 0.16077 1.02792 0.0
Zn281 Zn 0.52382 0.12246 1.02397 0.0
N282 N 0.67525 0.1869 1.04042 0.0
C283 C 0.52783 0.20403 0.04768 0.0
C284 C 0.58074 0.1856 1.04458 0.0
C285 C 0.71972 0.20611 1.03974 0.0
N286 N 0.57163 0.22316 0.04693 0.0
C287 C 0.66627 0.22489 1.04316 0.0
O288 O 0.56595 0.12712 0.07614 0.0
C289 C 0.63411 0.13422 0.09512 0.0
O290 O 0.70236 0.14433 0.08117 0.0
H291 H 0.54674 0.17024 1.04532 0.0
H292 H 0.79498 0.20672 1.03616 0.0
C293 C 0.52651 0.07565 1.02618 0.0
C294 C 0.55812 0.0554 1.01481 0.0
C295 C 0.65892 0.0719 0.97242 0.0
C296 C 0.62803 0.09178 0.98378 0.0
N297 N 0.56181 0.09343 1.01017 0.0
N298 N 0.62349 0.05427 0.98812 0.0
H299 H 0.47423 0.07728 0.04719 0.0
C300 C 0.92702 0.14506 1.03695 0.0
O301 O 0.88623 0.12847 0.05155 0.0
O302 O 0.37974 0.12545 1.02343 0.0
H303 H 0.65722 0.10572 0.97136 0.0
H304 H 0.45249 0.20316 0.05077 0.0
H305 H 0.71113 0.07049 0.95135 0.0
Zn306 Zn 0.73834 0.12103 0.31757 0.0
C307 C 0.57141 0.14294 0.39504 0.0
N308 N 0.64206 0.13677 0.41645 0.0
C309 C 0.70852 0.13175 0.39242 0.0
N310 N 0.67965 0.13463 0.35822 0.0
N311 N 0.59309 0.14187 0.35962 0.0
C312 C 0.33937 0.13915 0.33462 0.0
O313 O 0.38446 0.12182 0.34361 0.0
O314 O 0.88112 0.12003 0.32565 0.0
Zn315 Zn 0.52998 0.15429 0.31839 0.0
N316 N 0.67967 0.09313 0.31509 0.0
C317 C 0.53188 0.07538 0.31354 0.0
C318 C 0.58447 0.09394 0.31636 0.0
C319 C 0.7249 0.07425 0.31089 0.0
N320 N 0.5765 0.0566 0.30915 0.0
C321 C 0.67165 0.05537 0.3076 0.0
O322 O 0.55627 0.13954 0.27003 0.0
C323 C 0.63185 0.13566 0.25275 0.0
O324 O 0.71032 0.13373 0.2689 0.0
H325 H 0.54944 0.109 0.31906 0.0
H326 H 0.80065 0.07404 0.30927 0.0
C327 C 0.54156 0.20148 0.31229 0.0
C328 C 0.59488 0.22034 0.30852 0.0
C329 C 0.73401 0.19984 0.30646 0.0
C330 C 0.68146 0.18138 0.31027 0.0
N331 N 0.58663 0.1824 0.31328 0.0
N332 N 0.68973 0.21881 0.30572 0.0
H333 H 0.46599 0.20197 0.31476 0.0
C334 C 0.93231 0.13521 0.31414 0.0
O335 O 0.8922 0.15049 0.29582 0.0
O336 O 0.38657 0.15527 0.3243 0.0
H337 H 0.71617 0.16621 0.31096 0.0
H338 H 0.45611 0.0759 0.31451 0.0
H339 H 0.8095 0.19913 0.304 0.0
Zn340 Zn 0.48656 0.90894 0.07676 0.0
C341 C 0.30901 0.87671 0.14059 0.0
N342 N 0.37714 0.87849 0.1652 0.0
C343 C 0.44772 0.88678 0.14594 0.0
N344 N 0.42393 0.89027 0.11115 0.0
N345 N 0.33618 0.88367 0.10794 0.0
C346 C 0.08733 0.88816 0.06745 0.0
O347 O 0.13293 0.90571 0.05965 0.0
O348 O 0.63098 0.90646 0.07877 0.0
Zn349 Zn 0.27748 0.87231 0.065 0.0
N350 N 0.44772 0.9379 0.09017 0.0
C351 C 0.3516 0.95988 0.12751 0.0
C352 C 0.38354 0.93988 0.11722 0.0
C353 C 0.48032 0.95541 0.07262 0.0
N354 N 0.38356 0.97726 0.10996 0.0
C355 C 0.44649 0.97575 0.08244 0.0
O356 O 0.30941 0.88767 1.01953 0.0
C357 C 0.37677 0.89798 1.00541 0.0
O358 O 0.44651 0.90467 1.02402 0.0
H359 H 0.3569 0.92609 0.13096 0.0
H360 H 0.53223 0.95345 0.05158 0.0
C361 C 0.28932 0.8256 0.05229 0.0
C362 C 0.34294 0.80685 0.04803 0.0
C363 C 0.48208 0.82709 0.05708 0.0
C364 C 0.42923 0.84547 0.06038 0.0
N365 N 0.33421 0.84445 0.0586 0.0
N366 N 0.4379 0.80833 0.05102 0.0
H367 H 0.21377 0.82542 0.04984 0.0
C368 C 0.67756 0.88923 0.08077 0.0
O369 O 0.63189 0.87112 0.08238 0.0
O370 O 0.134 0.87102 0.07073 0.0
H371 H 0.46362 0.8606 0.06406 0.0
H372 H 0.30114 0.96158 0.14915 0.0
H373 H 0.55775 0.82772 0.05887 0.0
Zn374 Zn 0.28263 0.91011 0.77853 0.0
C375 C 0.4614 0.88203 0.70963 0.0
N376 N 0.39395 0.88505 0.68512 0.0
C377 C 0.32322 0.89254 0.70529 0.0
N378 N 0.34599 0.89433 0.74056 0.0
N379 N 0.43309 0.88746 0.74316 0.0
C380 C 0.68215 0.89281 0.78029 0.0
O381 O 0.63771 0.91053 0.78774 0.0
O382 O 0.13951 0.90995 0.77279 0.0
Zn383 Zn 0.4923 0.87698 0.78628 0.0
N384 N 0.33579 0.93861 0.77713 0.0
C385 C 0.48093 0.95741 0.77698 0.0
C386 C 0.43099 0.93842 0.77702 0.0
C387 C 0.28775 0.9573 0.7782 0.0
N388 N 0.43362 0.97601 0.77789 0.0
C389 C 0.33827 0.97667 0.77866 0.0
O390 O 0.46377 0.89326 0.83275 0.0
C391 C 0.38586 0.89786 0.8478 0.0
O392 O 0.31118 0.90057 0.82945 0.0
H393 H 0.46779 0.92352 0.77737 0.0
H394 H 0.2119 0.95703 0.77881 0.0
C395 C 0.48234 0.83015 0.79459 0.0
C396 C 0.43044 0.81111 0.79857 0.0
C397 C 0.28978 0.83115 0.80009 0.0
C398 C 0.34099 0.84976 0.79564 0.0
N399 N 0.43594 0.84903 0.79305 0.0
N400 N 0.33547 0.81235 0.80144 0.0
H401 H 0.55806 0.8301 0.79319 0.0
C402 C 0.09176 0.89287 0.76936 0.0
O403 O 0.13617 0.87463 0.76829 0.0
O404 O 0.63494 0.87557 0.77882 0.0
H405 H 0.30527 0.8648 0.79418 0.0
H406 H 0.55678 0.95739 0.77678 0.0
H407 H 0.21418 0.8316 0.8023 0.0
Zn408 Zn 0.5239 0.63069 0.52241 0.0
C409 C 0.7004 0.65613 0.4494 0.0
N410 N 0.63192 0.65242 0.42542 0.0
C411 C 0.56188 0.64537 0.44637 0.0
N412 N 0.58595 0.64454 0.48167 0.0
N413 N 0.67296 0.65171 0.48333 0.0
C414 C 0.92352 0.64714 0.52226 0.0
O415 O 0.87878 0.63018 0.53349 0.0
O416 O 0.38089 0.62999 0.51658 0.0
Zn417 Zn 0.73424 0.66323 0.52554 0.0
N418 N 0.57718 0.60217 0.52552 0.0
C419 C 0.72131 0.58323 0.5261 0.0
C420 C 0.67212 0.60214 0.52308 0.0
C421 C 0.52887 0.58383 0.53195 0.0
N422 N 0.67358 0.56493 0.53174 0.0
C423 C 0.57846 0.56443 0.53472 0.0
O424 O 0.70748 0.64762 0.57207 0.0
C425 C 0.63059 0.64465 0.58887 0.0
O426 O 0.55242 0.64343 0.57211 0.0
H427 H 0.7094 0.61686 0.51944 0.0
H428 H 0.45382 0.58456 0.53574 0.0
C429 C 0.72751 0.71004 0.53629 0.0
C430 C 0.67703 0.72921 0.54081 0.0
C431 C 0.53438 0.70974 0.53759 0.0
C432 C 0.58426 0.69101 0.53271 0.0
N433 N 0.67953 0.69139 0.5322 0.0
N434 N 0.58169 0.72831 0.54154 0.0
H435 H 0.80333 0.70984 0.53659 0.0
C436 C 0.33286 0.64654 0.50975 0.0
O437 O 0.37704 0.66465 0.50501 0.0
O438 O 0.87672 0.66412 0.51737 0.0
H439 H 0.54718 0.67616 0.52948 0.0
H440 H 0.797 0.5831 0.52429 0.0
H441 H 0.45855 0.70954 0.5382 0.0
Zn442 Zn 0.52318 0.65996 0.81244 0.0
C443 C 0.6944 0.63706 0.88808 0.0
N444 N 0.62571 0.64272 0.91072 0.0
C445 C 0.55781 0.64864 0.88781 0.0
N446 N 0.58408 0.6466 0.853 0.0
N447 N 0.6706 0.63927 0.85321 0.0
C448 C 0.92324 0.64068 0.81347 0.0
O449 O 0.88023 0.65721 0.79987 0.0
O450 O 0.37939 0.66064 0.81873 0.0
Zn451 Zn 0.73133 0.62414 0.81431 0.0
N452 N 0.58007 0.68814 0.81068 0.0
C453 C 0.72865 0.70544 0.80774 0.0
C454 C 0.67522 0.68702 0.8101 0.0
C455 C 0.53557 0.70726 0.80875 0.0
N456 N 0.68486 0.72443 0.80546 0.0
C457 C 0.58973 0.72603 0.80569 0.0
O458 O 0.69992 0.63475 0.76427 0.0
C459 C 0.62789 0.641 0.74694 0.0
O460 O 0.55388 0.64737 0.76306 0.0
H461 H 0.70936 0.67178 0.81105 0.0
H462 H 0.45973 0.70777 0.80866 0.0
C463 C 0.7273 0.57705 0.8105 0.0
C464 C 0.67876 0.55741 0.81132 0.0
C465 C 0.5369 0.57583 0.82283 0.0
C466 C 0.58484 0.59508 0.82188 0.0
N467 N 0.67888 0.59545 0.81598 0.0
N468 N 0.58468 0.55753 0.81741 0.0
H469 H 0.80153 0.5778 0.80464 0.0
C470 C 0.33358 0.64323 0.82119 0.0
O471 O 0.38012 0.6253 0.81986 0.0
O472 O 0.87445 0.62436 0.82155 0.0
H473 H 0.54695 0.60971 0.82532 0.0
H474 H 0.80442 0.70467 0.80735 0.0
H475 H 0.46203 0.57543 0.82749 0.0
Zn476 Zn 0.48646 0.41451 0.56639 0.0
C477 C 0.31981 0.39214 0.6433 0.0
N478 N 0.39015 0.39889 0.66464 0.0
C479 C 0.45615 0.40406 0.64069 0.0
N480 N 0.42742 0.40074 0.60651 0.0
N481 N 0.34133 0.393 0.60779 0.0
C482 C 0.08727 0.39589 0.58243 0.0
O483 O 0.13336 0.41284 0.59342 0.0
O484 O 0.6295 0.41542 0.57437 0.0
Zn485 Zn 0.27784 0.38064 0.5657 0.0
N486 N 0.42798 0.44243 0.56478 0.0
C487 C 0.27948 0.45956 0.56709 0.0
C488 C 0.33312 0.44123 0.56782 0.0
C489 C 0.47172 0.46152 0.56009 0.0
N490 N 0.32252 0.47853 0.5624 0.0
C491 C 0.41713 0.48022 0.55849 0.0
O492 O 0.30515 0.39514 0.51761 0.0
C493 C 0.38246 0.39802 0.50095 0.0
O494 O 0.45896 0.40133 0.51789 0.0
H495 H 0.29909 0.42602 0.57043 0.0
H496 H 0.54705 0.46202 0.55675 0.0
C497 C 0.28876 0.33351 0.55502 0.0
C498 C 0.34198 0.31482 0.54948 0.0
C499 C 0.48161 0.33539 0.55204 0.0
C500 C 0.42909 0.35366 0.55762 0.0
N501 N 0.33402 0.35253 0.55916 0.0
N502 N 0.43706 0.31648 0.54822 0.0
H503 H 0.21294 0.333 0.55549 0.0
C504 C 0.67975 0.40005 0.56283 0.0
O505 O 0.63858 0.3846 0.54468 0.0
O506 O 0.13372 0.37996 0.57068 0.0
H507 H 0.46399 0.36879 0.56045 0.0
H508 H 0.20402 0.45874 0.56974 0.0
H509 H 0.5573 0.3362 0.5507 0.0
Zn510 Zn 0.27561 0.40525 0.27372 0.0
C511 C 0.45674 0.37677 0.20544 0.0
N512 N 0.38937 0.37981 0.18088 0.0
C513 C 0.31896 0.3874 0.20119 0.0
N514 N 0.34196 0.3892 0.23646 0.0
N515 N 0.4289 0.38221 0.23894 0.0
C516 C 0.6709 0.39014 0.28722 0.0
O517 O 0.61565 0.40517 0.29965 0.0
O518 O 0.13324 0.40144 0.26703 0.0
Zn519 Zn 0.48933 0.37109 0.28103 0.0
N520 N 0.32227 0.43448 0.26952 0.0
C521 C 0.46357 0.4543 0.26226 0.0
C522 C 0.41653 0.435 0.26405 0.0
C523 C 0.27296 0.45286 0.27426 0.0
N524 N 0.41515 0.47252 0.26722 0.0
C525 C 0.3212 0.4726 0.27364 0.0
O526 O 0.45295 0.38522 0.32756 0.0
C527 C 0.38105 0.39281 0.34323 0.0
O528 O 0.30715 0.39776 0.32581 0.0
H529 H 0.45561 0.42044 0.26176 0.0
H530 H 0.19806 0.45203 0.27846 0.0
C531 C 0.48492 0.32389 0.28853 0.0
C532 C 0.43374 0.30476 0.29291 0.0
C533 C 0.2917 0.32426 0.29047 0.0
C534 C 0.34221 0.34303 0.28692 0.0
N535 N 0.43748 0.34259 0.28579 0.0
N536 N 0.33841 0.30567 0.29341 0.0
H537 H 0.56063 0.32397 0.28696 0.0
C538 C 0.0747 0.40805 0.29048 0.0
O539 O 0.1064 0.41872 0.31865 0.0
O540 O 0.63356 0.37271 0.27659 0.0
H541 H 0.30558 0.35798 0.28515 0.0
H542 H 0.53845 0.4548 0.25768 0.0
H543 H 0.21587 0.32445 0.29115 0.0
C544 C 0.22126 0.28748 0.56657 0.0
C545 C 0.29891 0.29338 0.5455 0.0
C546 C 0.18487 0.26676 0.56503 0.0
C547 C 0.2248 0.25103 0.54254 0.0
H548 H 0.18962 0.29876 0.58507 0.0
H549 H 0.12528 0.26297 0.58198 0.0
S550 S 0.42373 0.25887 0.47942 0.0
N551 N 0.41151 0.2821 0.49987 0.0
N552 N 0.34233 0.24328 0.49678 0.0
C553 C 0.3014 0.2568 0.52082 0.0
C554 C 0.33856 0.27791 0.52238 0.0
C555 C 0.04833 1.00645 0.56479 0.0
C556 C 0.96662 1.00012 0.54631 0.0
C557 C 0.08517 0.027 0.56091 0.0
C558 C 0.04184 0.04214 0.53855 0.0
H559 H 0.08306 0.99566 0.58307 0.0
H560 H 0.14792 0.03113 0.57599 0.0
S561 S 0.83065 0.03294 0.4818 0.0
N562 N 0.84585 1.01032 0.50331 0.0
N563 N 0.91597 0.0488 0.49578 0.0
C564 C 0.96094 0.03592 0.51942 0.0
C565 C 0.92323 1.01498 0.5234 0.0
C566 C 0.17634 0.02084 0.81055 0.0
C567 C 0.21495 0.03905 0.79426 0.0
C568 C 0.21432 1.0006 0.80456 0.0
C569 C 0.29221 0.99773 0.7818 0.0
H570 H 0.11687 0.02228 0.8286 0.0
H571 H 0.184 0.98725 0.81873 0.0
S572 S 0.41314 0.03977 0.72937 0.0
N573 N 0.3309 0.05257 0.75205 0.0
N574 N 0.40302 1.0146 0.74104 0.0
C575 C 0.3301 1.01572 0.76462 0.0
C576 C 0.29138 0.03634 0.77074 0.0
C577 C 0.07966 0.26053 0.78006 0.0
C578 C 0.04074 0.24585 0.80449 0.0
C579 C 0.0435 0.28115 0.77677 0.0
C580 C 0.96718 0.28786 0.79792 0.0
H581 H 0.13822 0.25599 0.76307 0.0
H582 H 0.07423 0.29171 0.75702 0.0
S583 S 0.84714 0.2566 0.86889 0.0
N584 N 0.92702 0.24031 0.85229 0.0
N585 N 0.85787 0.27878 0.84576 0.0
C586 C 0.92895 0.27353 0.82294 0.0
C587 C 0.96596 0.25261 0.82633 0.0
C588 C 0.72039 0.78608 0.57233 0.0
C589 C 0.7992 0.79235 0.55223 0.0
C590 C 0.6829 0.76551 0.56876 0.0
C591 C 0.72282 0.75035 0.54513 0.0
H592 H 0.68854 0.79695 0.59152 0.0
H593 H 0.62234 0.76138 0.58496 0.0
S594 S 0.92437 0.75952 0.48378 0.0
N595 N 0.91273 0.78214 0.50623 0.0
N596 N 0.84154 0.74367 0.49935 0.0
C597 C 0.80058 0.75655 0.52438 0.0
C598 C 0.83883 0.77747 0.52801 0.0
C599 C 0.83504 1.00837 0.31858 0.0
C600 C 0.79374 0.99268 0.29625 0.0
C601 C 0.79652 0.02874 0.32169 0.0
C602 C 0.7153 0.03424 0.30244 0.0
H603 H 0.8974 1.00481 0.33412 0.0
H604 H 0.82955 0.04008 0.33989 0.0
S605 S 0.58508 0.99973 0.2376 0.0
N606 N 0.67076 0.98458 0.25259 0.0
N607 N 0.59743 0.02276 0.25878 0.0
C608 C 0.67401 0.01882 0.27957 0.0
C609 C 0.7134 0.99808 0.27635 0.0
C610 C 0.93162 0.76866 0.2818 0.0
C611 C 0.97196 0.78665 0.29865 0.0
C612 C 0.96771 0.74824 0.28722 0.0
C613 C 0.04525 0.74498 0.30999 0.0
H614 H 0.87198 0.77039 0.2639 0.0
H615 H 0.93592 0.73503 0.27273 0.0
S616 S 0.1707 0.78649 0.3634 0.0
N617 N 0.08962 0.79966 0.34103 0.0
N618 N 0.15804 0.76136 0.35114 0.0
C619 C 0.08517 0.7628 0.32757 0.0
C620 C 0.04846 0.7836 0.32196 0.0
C621 C 0.17037 0.76034 1.0443 0.0
C622 C 0.22077 0.74461 1.0254 0.0
C623 C 0.20965 0.7804 0.05161 0.0
C624 C 0.30053 0.78565 1.03971 0.0
H625 H 0.09996 0.75707 0.05378 0.0
H626 H 0.16859 0.79167 0.06709 0.0
S627 S 0.45892 0.75036 0.98662 0.0
N628 N 0.36446 0.73578 0.99367 0.0
N629 N 0.43835 0.77342 1.00662 0.0
C630 C 0.35128 0.77 1.0204 0.0
C631 C 0.31145 0.74953 1.01338 0.0
C632 C 0.06973 0.52245 0.06758 0.0
C633 C 0.0333 0.5374 1.04316 0.0
C634 C 0.0344 0.50168 0.06909 0.0
C635 C 0.96122 0.49504 1.04618 0.0
H636 H 0.12555 0.5269 0.08607 0.0
H637 H 0.06297 0.49095 0.089 0.0
S638 S 0.8479 0.52711 0.97467 0.0
N639 N 0.92497 0.54345 0.99346 0.0
N640 N 0.85703 0.50454 0.99684 0.0
C641 C 0.92525 0.50965 1.02113 0.0
C642 C 0.96161 0.53079 1.01945 0.0
C643 C 0.27701 0.53207 0.26944 0.0
C644 C 0.20522 0.53537 0.29479 0.0
C645 C 0.3114 0.51161 0.26227 0.0
C646 C 0.27574 0.49358 0.28014 0.0
H647 H 0.30544 0.5453 0.25439 0.0
H648 H 0.36657 0.50993 0.24235 0.0
S649 S 0.09236 0.49409 0.35134 0.0
N650 N 0.10187 0.51915 0.33898 0.0
N651 N 0.16829 0.48082 0.32628 0.0
C652 C 0.20479 0.49674 0.30603 0.0
C653 C 0.16923 0.51759 0.31313 0.0
C654 C 0.83133 0.27068 0.06568 0.0
C655 C 0.78659 0.28837 0.05021 0.0
C656 C 0.79362 0.25015 0.06256 0.0
C657 C 0.70942 0.24641 1.04379 0.0
H658 H 0.89593 0.27271 0.08078 0.0
H659 H 0.82964 0.23723 0.07578 0.0
S660 S 0.56826 0.28675 0.99548 0.0
N661 N 0.65632 0.3004 1.01318 0.0
N662 N 0.58433 0.2619 1.00798 0.0
C663 C 0.66438 0.26386 1.02773 0.0
C664 C 0.70312 0.2848 1.03075 0.0
C665 C 0.67674 0.52081 0.78469 0.0
C666 C 0.72484 0.5366 0.8047 0.0
C667 C 0.71515 0.50056 0.77907 0.0
C668 C 0.80315 0.49522 0.79346 0.0
H669 H 0.60888 0.52419 0.77291 0.0
H670 H 0.67634 0.4892 0.76271 0.0
S671 S 0.95376 0.5301 0.85091 0.0
N672 N 0.86239 0.54499 0.841 0.0
N673 N 0.93517 0.50707 0.83037 0.0
C674 C 0.85138 0.51076 0.81406 0.0
C675 C 0.81219 0.5314 0.81973 0.0
C676 C 0.51088 0.03383 0.06884 0.0
C677 C 0.52486 0.03527 1.03132 0.0
C678 C 0.48697 1.01443 0.08493 0.0
C679 C 0.47645 0.99565 0.06424 0.0
H680 H 0.52072 0.04765 0.0861 0.0
H681 H 0.47762 1.01411 0.11399 0.0
S682 S 0.49629 0.99139 0.96438 0.0
N683 N 0.52112 1.0165 0.97358 0.0
N684 N 0.47484 0.9802 1.00374 0.0
C685 C 0.48826 0.99697 1.02658 0.0
C686 C 0.51281 1.01671 1.0102 0.0
C687 C 0.47046 0.2451 0.28606 0.0
C688 C 0.55201 0.24176 0.30653 0.0
C689 C 0.43441 0.26561 0.28138 0.0
C690 C 0.47846 0.28361 0.29688 0.0
H691 H 0.43544 0.23188 0.27276 0.0
H692 H 0.37166 0.26738 0.26516 0.0
S693 S 0.68896 0.28308 0.35592 0.0
N694 N 0.67307 0.25796 0.34415 0.0
N695 N 0.60433 0.2964 0.33587 0.0
C696 C 0.55903 0.28042 0.31805 0.0
C697 C 0.59593 0.25954 0.32272 0.0
C698 C 0.4349 0.77415 0.82278 0.0
C699 C 0.47437 0.78973 0.80012 0.0
C700 C 0.47072 0.75343 0.82394 0.0
C701 C 0.54745 0.74745 0.80242 0.0
H702 H 0.37608 0.77805 0.84008 0.0
H703 H 0.43939 0.74219 0.84243 0.0
S704 S 0.67039 0.78138 0.73568 0.0
N705 N 0.59007 0.79708 0.75354 0.0
N706 N 0.65855 0.75833 0.75623 0.0
C707 C 0.58665 0.76272 0.77918 0.0
C708 C 0.5499 0.78379 0.77788 0.0
C709 C 0.58198 0.52799 0.56128 0.0
C710 C 0.53276 0.54349 0.54153 0.0
C711 C 0.54539 0.50751 0.5664 0.0
C712 C 0.45799 0.5016 0.55183 0.0
H713 H 0.64965 0.53172 0.57311 0.0
H714 H 0.58533 0.49639 0.58239 0.0
S715 S 0.30283 0.53551 0.49604 0.0
N716 N 0.39305 0.55092 0.50618 0.0
N717 N 0.32434 0.51261 0.51569 0.0
C718 C 0.40812 0.51684 0.53187 0.0
C719 C 0.44532 0.53771 0.52675 0.0
C720 C 0.21019 0.1454 0.65581 0.0
C721 C 0.12677 0.14475 0.63544 0.0
C722 C 0.20875 0.14478 0.69366 0.0
C723 C 0.12379 0.14361 0.71295 0.0
H724 H 0.27767 0.14629 0.64249 0.0
H725 H 0.27521 0.14534 0.70785 0.0
S726 S 0.88504 0.14158 0.67268 0.0
N727 N 0.95616 0.14291 0.63761 0.0
N728 N 0.95358 0.14177 0.70865 0.0
C729 C 0.03962 0.143 0.69299 0.0
C730 C 0.04108 0.14354 0.65434 0.0
C731 C 0.80633 0.89226 0.4071 0.0
C732 C 0.89036 0.89047 0.38729 0.0
C733 C 0.80652 0.89334 0.44498 0.0
C734 C 0.89075 0.89278 0.46479 0.0
H735 H 0.73937 0.89292 0.39332 0.0
H736 H 0.73985 0.89485 0.45875 0.0
S737 S 0.1303 0.88743 0.42625 0.0
N738 N 0.06044 0.88766 0.39068 0.0
N739 N 0.06077 0.88967 0.46168 0.0
C740 C 0.9754 0.89076 0.44541 0.0
C741 C 0.9752 0.8896 0.40679 0.0
C742 C 0.04335 0.64614 0.14814 0.0
C743 C 0.12676 0.6467 0.12778 0.0
C744 C 0.04501 0.64524 0.18603 0.0
C745 C 0.13016 0.64463 0.20532 0.0
H746 H 0.97578 0.64625 0.13474 0.0
H747 H 0.97867 0.64463 0.20023 0.0
S748 S 0.36885 0.64646 0.16518 0.0
N749 N 0.29745 0.64715 0.13008 0.0
N750 N 0.30048 0.64539 0.20108 0.0
C751 C 0.21424 0.64552 0.18538 0.0
C752 C 0.21257 0.6466 0.14676 0.0
C753 C 0.80464 0.3932 0.94035 0.0
C754 C 0.88822 0.39158 0.96043 0.0
C755 C 0.80573 0.39391 0.90243 0.0
C756 C 0.89042 0.39293 0.8829 0.0
H757 H 0.73756 0.39409 0.95398 0.0
H758 H 0.73933 0.39513 0.88837 0.0
S759 S 0.12927 0.38831 0.92254 0.0
N760 N 0.05843 0.38877 0.95773 0.0
N761 N 0.06054 0.39017 0.88683 0.0
C762 C 0.97464 0.39125 0.90268 0.0
C763 C 0.97352 0.39056 0.94126 0.0
C764 C 0.71469 0.13533 0.15518 0.0
C765 C 0.63153 0.13244 0.13516 0.0
C766 C 0.71396 0.13598 0.19302 0.0
C767 C 0.62986 0.13402 0.21263 0.0
H768 H 0.78121 0.13741 0.1415 0.0
H769 H 0.77998 0.13854 0.20693 0.0
S770 S 0.39292 0.12514 0.17338 0.0
N771 N 0.46277 0.12676 0.13793 0.0
N772 N 0.46131 0.12809 0.20912 0.0
C773 C 0.54625 0.13061 0.19305 0.0
C774 C 0.54714 0.12974 0.15438 0.0
C775 C 0.46225 0.90179 0.94649 0.0
C776 C 0.37701 0.90038 0.96548 0.0
C777 C 0.46444 0.90126 0.90852 0.0
C778 C 0.38139 0.89957 0.88796 0.0
H779 H 0.52818 0.90251 0.96104 0.0
H780 H 0.53202 0.90192 0.89523 0.0
S781 S 0.13909 0.8972 0.92479 0.0
N782 N 0.20703 0.89852 0.96088 0.0
N783 N 0.21079 0.89763 0.88982 0.0
C784 C 0.29538 0.89901 0.9067 0.0
C785 C 0.29329 0.89938 0.94531 0.0
C786 C 0.54808 0.6453 0.64885 0.0
C787 C 0.63185 0.64313 0.62905 0.0
C788 C 0.5475 0.64448 0.68676 0.0
C789 C 0.63054 0.64125 0.70663 0.0
H790 H 0.48219 0.64794 0.63502 0.0
H791 H 0.48107 0.64642 0.70054 0.0
S792 S 0.86876 0.63395 0.66778 0.0
N793 N 0.80018 0.63712 0.63229 0.0
N794 N 0.79919 0.63555 0.7033 0.0
C795 C 0.71479 0.63876 0.68713 0.0
C796 C 0.71543 0.63972 0.6485 0.0
C797 C 0.29894 0.39668 0.40301 0.0
C798 C 0.383 0.39507 0.38327 0.0
C799 C 0.29932 0.39768 0.44095 0.0
C800 C 0.38383 0.39733 0.46072 0.0
H801 H 0.23202 0.39677 0.38912 0.0
H802 H 0.23264 0.39869 0.45484 0.0
S803 S 0.62383 0.39423 0.42182 0.0
N804 N 0.55349 0.3939 0.3864 0.0
N805 N 0.55431 0.39574 0.45734 0.0
C806 C 0.46857 0.39612 0.44123 0.0
C807 C 0.46812 0.395 0.40266 0.0
C808 C 0.43531 0.16656 0.40764 0.0
C809 C 0.4789 0.14668 0.40988 0.0
C810 C 0.34929 0.17005 0.42502 0.0
C811 C 0.30739 0.15387 0.44544 0.0
H812 H 0.46759 0.17929 0.39247 0.0
H813 H 0.3145 0.1852 0.42191 0.0
S814 S 0.39058 0.09859 0.45571 0.0
N815 N 0.47277 0.11047 0.4318 0.0
N816 N 0.31109 0.11697 0.46399 0.0
C817 C 0.35043 0.13396 0.44728 0.0
C818 C 0.43676 0.13041 0.42968 0.0
C819 C 0.93058 0.12162 0.44399 0.0
C820 C 0.98059 0.14033 0.43677 0.0
C821 C 0.84302 0.11799 0.42774 0.0
C822 C 0.80636 0.13267 0.4031 0.0
H823 H 0.95867 0.10996 0.46242 0.0
H824 H 0.80299 0.10401 0.43502 0.0
S825 S 0.91098 0.18405 0.37603 0.0
N826 N 0.98791 0.17359 0.40396 0.0
N827 N 0.82456 0.16663 0.37323 0.0
C828 C 0.85708 0.15112 0.39529 0.0
C829 C 0.94453 0.15493 0.41205 0.0
C830 C 0.33455 0.11821 0.92552 0.0
C831 C 0.29813 0.13379 0.90255 0.0
C832 C 0.4214 0.12128 0.94254 0.0
C833 C 0.47154 0.14026 0.9377 0.0
H834 H 0.29467 0.10392 0.93101 0.0
H835 H 0.44859 0.10893 0.95968 0.0
S836 S 0.40213 0.18633 0.88214 0.0
N837 N 0.31611 0.16897 0.87703 0.0
N838 N 0.47887 0.1748 0.9089 0.0
C839 C 0.43574 0.15579 0.9146 0.0
C840 C 0.3486 0.1526 0.89717 0.0
C841 C 0.93851 0.13295 0.93754 0.0
C842 C 0.97173 0.14798 0.91275 0.0
C843 C 0.85329 0.1358 0.95504 0.0
C844 C 0.79934 0.15389 0.94858 0.0
H845 H 0.97772 0.11857 0.94282 0.0
H846 H 0.82749 0.12329 0.97243 0.0
S847 S 0.85908 0.19873 0.88922 0.0
N848 N 0.94933 0.18248 0.88535 0.0
N849 N 0.78467 0.18734 0.91723 0.0
C850 C 0.83264 0.16934 0.92479 0.0
C851 C 0.92045 0.16656 0.9072 0.0
C852 C 0.60204 0.86651 0.68008 0.0
C853 C 0.55838 0.88356 0.69802 0.0
C854 C 0.68798 0.86951 0.66233 0.0
C855 C 0.72973 0.88972 0.66168 0.0
H856 H 0.56886 0.851 0.67926 0.0
H857 H 0.72179 0.85612 0.64923 0.0
S858 S 0.63633 0.93974 0.70019 0.0
N859 N 0.55844 0.92143 0.71105 0.0
N860 N 0.71987 0.92702 0.67816 0.0
C861 C 0.68567 0.90682 0.67889 0.0
C862 C 0.59946 0.90377 0.69688 0.0
C863 C 0.1836 0.91568 0.69516 0.0
C864 C 0.23171 0.89654 0.68936 0.0
C865 C 0.09627 0.91905 0.67869 0.0
C866 C 0.05778 0.90365 0.65527 0.0
H867 H 0.21306 0.92788 0.71262 0.0
H868 H 0.05788 0.93345 0.68483 0.0
S869 S 0.1569 0.85096 0.63221 0.0
N870 N 0.23526 0.86214 0.65916 0.0
N871 N 0.0722 0.86856 0.62821 0.0
C872 C 0.10652 0.88473 0.64894 0.0
C873 C 0.19384 0.88122 0.66585 0.0
C874 C 0.58894 0.90951 0.15772 0.0
C875 C 0.53917 0.89046 0.16244 0.0
C876 C 0.67616 0.91256 0.17448 0.0
C877 C 0.71311 0.89692 0.19719 0.0
H878 H 0.5611 0.92194 0.14092 0.0
H879 H 0.71575 0.92691 0.16908 0.0
S880 S 0.60955 0.84438 0.21781 0.0
N881 N 0.53254 0.85588 0.19114 0.0
N882 N 0.69555 0.86175 0.22277 0.0
C883 C 0.66279 0.87811 0.20264 0.0
C884 C 0.57548 0.8749 0.18537 0.0
C885 C 0.16108 0.89538 0.14769 0.0
C886 C 0.21203 0.87664 0.15234 0.0
C887 C 0.07589 0.8983 0.16509 0.0
C888 C 0.03999 0.88274 0.18825 0.0
H889 H 0.18906 0.90827 0.13166 0.0
H890 H 0.03869 0.91308 0.16098 0.0
S891 S 0.14567 0.83063 0.20858 0.0
N892 N 0.2218 0.84223 0.18136 0.0
N893 N 0.05793 0.84751 0.21353 0.0
C894 C 0.089 0.86373 0.19272 0.0
C895 C 0.17659 0.86079 0.17502 0.0
C896 C 0.34068 0.62302 0.92118 0.0
C897 C 0.28831 0.64028 0.93382 0.0
C898 C 0.42645 0.62626 0.9044 0.0
C899 C 0.46126 0.64686 0.8993 0.0
H900 H 0.31528 0.60689 0.92448 0.0
H901 H 0.46691 0.61253 0.89597 0.0
S902 S 0.34667 0.69733 0.92491 0.0
N903 N 0.27285 0.67866 0.93828 0.0
N904 N 0.43704 0.68479 0.90674 0.0
C905 C 0.40887 0.66434 0.91097 0.0
C906 C 0.32103 0.66102 0.92824 0.0
C907 C 0.89705 0.61135 0.93567 0.0
C908 C 0.96315 0.62787 0.93498 0.0
C909 C 0.8094 0.61398 0.91909 0.0
C910 C 0.78843 0.63288 0.90084 0.0
H911 H 0.91289 0.59658 0.9492 0.0
H912 H 0.75767 0.60138 0.92078 0.0
S913 S 0.9378 0.6807 0.89258 0.0
N914 N 1.00188 0.66366 0.91551 0.0
N915 N 0.83769 0.66837 0.88412 0.0
C916 C 0.85412 0.64933 0.90004 0.0
C917 C 0.94191 0.64683 0.91713 0.0
C918 C 0.43143 0.65573 0.40754 0.0
C919 C 0.47021 0.64064 0.43088 0.0
C920 C 0.34622 0.65191 0.39034 0.0
C921 C 0.29795 0.63279 0.39566 0.0
H922 H 0.46648 0.67079 0.40307 0.0
H923 H 0.31603 0.66436 0.37398 0.0
S924 S 0.37662 0.58704 0.44928 0.0
N925 N 0.46053 0.60494 0.45486 0.0
N926 N 0.29643 0.59805 0.42329 0.0
C927 C 0.3372 0.61725 0.41776 0.0
C928 C 0.42483 0.62108 0.43513 0.0
C929 C 0.84042 0.67039 0.41742 0.0
C930 C 0.79736 0.65427 0.43764 0.0
C931 C 0.92709 0.66679 0.40049 0.0
C932 C 0.97039 0.64687 0.40296 0.0
H933 H 0.80625 0.68561 0.41423 0.0
H934 H 0.96006 0.67948 0.38545 0.0
S935 S 0.87985 0.59896 0.44868 0.0
N936 N 0.8001 0.61738 0.45629 0.0
N937 N 0.963 0.61074 0.42513 0.0
C938 C 0.92722 0.63069 0.42263 0.0
C939 C 0.84013 0.63432 0.4397 0.0
C940 C 0.60635 0.39533 0.2016 0.0
C941 C 0.55428 0.3769 0.19429 0.0
C942 C 0.69126 0.39893 0.18434 0.0
C943 C 0.7264 0.3843 0.15898 0.0
H944 H 0.57915 0.40758 0.21941 0.0
H945 H 0.72883 0.41355 0.19034 0.0
S946 S 0.6212 0.33244 0.13381 0.0
N947 N 0.54458 0.3433 0.16183 0.0
N948 N 0.70879 0.34961 0.1305 0.0
C949 C 0.67736 0.36532 0.15262 0.0
C950 C 0.58964 0.36178 0.16993 0.0
C951 C 0.09332 0.41429 0.17413 0.0
C952 C 0.05318 0.39872 0.15146 0.0
C953 C 0.18046 0.41077 0.19064 0.0
C954 C 0.22707 0.39138 0.18551 0.0
H955 H 0.05639 0.42898 0.17962 0.0
H956 H 0.211 0.4231 0.20755 0.0
S957 S 0.14596 0.34499 0.13163 0.0
N958 N 0.06311 0.36296 0.12668 0.0
N959 N 0.22637 0.35635 0.15748 0.0
C960 C 0.18715 0.37578 0.16305 0.0
C961 C 0.09974 0.3794 0.14621 0.0
C962 C 0.67878 0.4152 0.69184 0.0
C963 C 0.72834 0.3964 0.68491 0.0
C964 C 0.59118 0.4185 0.67559 0.0
C965 C 0.55394 0.40337 0.65135 0.0
H966 H 0.7073 0.42717 0.71 0.0
H967 H 0.55158 0.43261 0.68254 0.0
S968 S 0.6563 0.35143 0.62573 0.0
N969 N 0.73397 0.36245 0.65317 0.0
N970 N 0.57048 0.36881 0.62255 0.0
C971 C 0.60385 0.38476 0.64405 0.0
C972 C 0.69137 0.38129 0.66075 0.0
C973 C 0.10712 0.39944 0.7001 0.0
C974 C 0.05444 0.38113 0.69269 0.0
C975 C 0.19303 0.40263 0.68348 0.0
C976 C 0.22819 0.38775 0.6586 0.0
H977 H 0.07996 0.41182 0.71767 0.0
H978 H 0.23135 0.41714 0.68956 0.0
S979 S 0.1196 0.33647 0.6324 0.0
N980 N 0.04302 0.34757 0.66017 0.0
N981 N 0.20882 0.35323 0.62967 0.0
C982 C 0.17797 0.369 0.65183 0.0
C983 C 0.08941 0.36582 0.66862 0.0
C984 C 0.58521 0.16533 0.51936 0.0
C985 C 0.53331 0.14647 0.52379 0.0
C986 C 0.68342 0.16501 0.51593 0.0
C987 C 0.73422 0.14582 0.51657 0.0
H988 H 0.55007 0.18056 0.51943 0.0
H989 H 0.71984 0.18007 0.51359 0.0
S990 S 0.63091 0.09173 0.52269 0.0
N991 N 0.54006 0.10782 0.52548 0.0
N992 N 0.72359 0.10728 0.51853 0.0
C993 C 0.68277 0.12677 0.51917 0.0
C994 C 0.58282 0.12708 0.52291 0.0
C995 C 0.5823 0.15701 0.8064 0.0
C996 C 0.52697 0.14076 0.8216 0.0
C997 C 0.67976 0.15793 0.81171 0.0
C998 C 0.72661 0.14262 0.83246 0.0
H999 H 0.55047 0.16902 0.78961 0.0
H1000 H 0.7189 0.17046 0.79857 0.0
S1001 S 0.6135 0.09835 0.88221 0.0
N1002 N 0.52599 0.11001 0.861 0.0
N1003 N 0.70873 0.11181 0.87122 0.0
C1004 C 0.67181 0.1268 0.84918 0.0
C1005 C 0.57234 0.12584 0.8437 0.0
C1006 C 0.43882 0.88054 0.56339 0.0
C1007 C 0.4871 0.89569 0.58457 0.0
C1008 C 0.34126 0.88166 0.5584 0.0
C1009 C 0.28725 0.89795 0.5744 0.0
H1010 H 0.47695 0.86803 0.54959 0.0
H1011 H 0.30833 0.86978 0.5412 0.0
S1012 S 0.37785 0.93984 0.63664 0.0
N1013 N 0.472 0.92634 0.62461 0.0
N1014 N 0.28909 0.92844 0.61521 0.0
C1015 C 0.33407 0.91267 0.59698 0.0
C1016 C 0.43364 0.91153 0.60206 0.0
C1017 C 0.42907 0.87423 0.29275 0.0
C1018 C 0.48434 0.89059 0.27784 0.0
C1019 C 0.3316 0.87334 0.28745 0.0
C1020 C 0.28469 0.88878 0.26701 0.0
H1021 H 0.46094 0.86212 0.30932 0.0
H1022 H 0.29249 0.86074 0.30041 0.0
S1023 S 0.39767 0.9334 0.21808 0.0
N1024 N 0.48523 0.92159 0.23902 0.0
N1025 N 0.30248 0.91985 0.22882 0.0
C1026 C 0.33945 0.9047 0.25053 0.0
C1027 C 0.43893 0.90563 0.25601 0.0
C1028 C 0.67072 0.62244 1.01948 0.0
C1029 C 0.72301 0.64026 1.00849 0.0
C1030 C 0.57216 0.62277 1.02028 0.0
C1031 C 0.52108 0.64096 1.01026 0.0
H1032 H 0.70608 0.60819 1.0283 0.0
H1033 H 0.53593 0.6087 1.02963 0.0
S1034 S 0.62339 0.69108 0.97535 0.0
N1035 N 0.71521 0.67609 0.98424 0.0
N1036 N 0.53072 0.67676 0.98641 0.0
C1037 C 0.57224 0.65865 0.99798 0.0
C1038 C 0.67276 0.65828 0.9969 0.0
C1039 C 0.58217 0.65509 0.30021 0.0
C1040 C 0.52774 0.63885 0.31594 0.0
C1041 C 0.67987 0.65619 0.30501 0.0
C1042 C 0.7279 0.64107 0.32576 0.0
H1043 H 0.5494 0.66695 0.28335 0.0
H1044 H 0.71827 0.66868 0.29145 0.0
S1045 S 0.6177 0.59697 0.3769 0.0
N1046 N 0.52909 0.60835 0.35589 0.0
N1047 N 0.71219 0.61046 0.36508 0.0
C1048 C 0.67409 0.62524 0.34294 0.0
C1049 C 0.57439 0.62411 0.33798 0.0
C1050 C 0.33154 0.41045 0.08193 0.0
C1051 C 0.28046 0.39228 0.07122 0.0
C1052 C 0.42968 0.40991 0.08584 0.0
C1053 C 0.48121 0.39115 0.07937 0.0
H1054 H 0.29583 0.42538 0.08657 0.0
H1055 H 0.46547 0.42451 0.09327 0.0
S1056 S 0.38019 0.33847 0.05508 0.0
N1057 N 0.2888 0.35444 0.05716 0.0
N1058 N 0.47207 0.35348 0.06473 0.0
C1059 C 0.43054 0.37263 0.07032 0.0
C1060 C 0.3307 0.37318 0.06619 0.0
C1061 C 0.4399 0.40668 0.78524 0.0
C1062 C 0.48755 0.39137 0.76441 0.0
C1063 C 0.34224 0.40573 0.78996 0.0
C1064 C 0.28749 0.38945 0.77401 0.0
H1065 H 0.47853 0.41925 0.79888 0.0
H1066 H 0.30975 0.41776 0.80683 0.0
S1067 S 0.3765 0.34694 0.71301 0.0
N1068 N 0.47127 0.36043 0.72496 0.0
N1069 N 0.28815 0.3586 0.73398 0.0
C1070 C 0.3338 0.37446 0.75198 0.0
C1071 C 0.43348 0.37544 0.74714 0.0
C1072 C 0.08562 0.12863 1.04573 0.0
C1073 C 0.03054 0.14482 1.03043 0.0
C1074 C 0.1831 0.12776 1.0405 0.0
C1075 C 0.23038 0.14308 1.0198 0.0
H1076 H 0.05345 0.11653 0.06233 0.0
H1077 H 0.2219 0.11517 0.05347 0.0
S1078 S 0.11857 0.18755 0.97051 0.0
N1079 N 0.03064 0.17579 0.99148 0.0
N1080 N 0.21348 0.17412 0.98157 0.0
C1081 C 0.17611 0.15906 1.00345 0.0
C1082 C 0.07654 0.15994 1.00878 0.0
C1083 C 0.0903 0.1521 0.30492 0.0
C1084 C 0.03531 0.1363 0.32165 0.0
C1085 C 0.18769 0.15341 0.31035 0.0
C1086 C 0.23482 0.13896 0.33271 0.0
H1087 H 0.05828 0.16342 0.28686 0.0
H1088 H 0.22662 0.16549 0.29596 0.0
S1089 S 0.12276 0.09638 0.38683 0.0
N1090 N 0.03504 0.10706 0.36426 0.0
N1091 N 0.21763 0.10957 0.37453 0.0
C1092 C 0.18039 0.12365 0.35089 0.0
C1093 C 0.08098 0.12231 0.34535 0.0
C1094 C 0.83176 0.87017 0.07408 0.0
C1095 C 0.78242 0.88931 0.0797 0.0
C1096 C 0.9301 0.86983 0.0709 0.0
C1097 C 0.98356 0.88864 0.07304 0.0
H1098 H 0.79409 0.85527 0.07138 0.0
H1099 H 0.96419 0.85475 0.06588 0.0
S1100 S 0.89031 0.94264 0.09235 0.0
N1101 N 0.79616 0.92734 0.09061 0.0
N1102 N 0.98004 0.92677 0.08454 0.0
C1103 C 0.93551 0.90779 0.0801 0.0
C1104 C 0.83542 0.90812 0.08345 0.0
C1105 C 0.93574 0.87412 0.77222 0.0
C1106 C 0.98703 0.89323 0.76898 0.0
C1107 C 0.83735 0.87404 0.77489 0.0
C1108 C 0.78583 0.89307 0.77458 0.0
H1109 H 0.97186 0.85905 0.77361 0.0
H1110 H 0.80174 0.85895 0.77818 0.0
S1111 S 0.88502 0.94721 0.76175 0.0
N1112 N 0.97748 0.93153 0.76206 0.0
N1113 N 0.79355 0.93146 0.76741 0.0
C1114 C 0.83592 0.91221 0.7697 0.0
C1115 C 0.93605 0.91228 0.76682 0.0
C1116 C 0.07848 0.66526 0.511 0.0
C1117 C 0.02705 0.64641 0.51622 0.0
C1118 C 0.17676 0.66504 0.5079 0.0
C1119 C 0.22811 0.64595 0.50979 0.0
H1120 H 0.04291 0.68042 0.51019 0.0
H1121 H 0.21278 0.68009 0.50487 0.0
S1122 S 0.1263 0.59184 0.51831 0.0
N1123 N 0.03484 0.60782 0.51977 0.0
N1124 N 0.21862 0.60747 0.51385 0.0
C1125 C 0.17719 0.62688 0.51321 0.0
C1126 C 0.07712 0.62709 0.51646 0.0
C1127 C 0.07829 0.65974 0.80937 0.0
C1128 C 0.02734 0.64129 0.81856 0.0
C1129 C 0.1767 0.66055 0.81163 0.0
C1130 C 0.22889 0.64287 0.82288 0.0
H1131 H 0.04211 0.67369 0.79968 0.0
H1132 H 0.21218 0.67495 0.80333 0.0
S1133 S 0.12974 0.5915 0.85426 0.0
N1134 N 0.03703 0.60553 0.84264 0.0
N1135 N 0.22136 0.60689 0.8464 0.0
C1136 C 0.17877 0.62461 0.83367 0.0
C1137 C 0.07839 0.62386 0.83167 0.0
C1138 C 0.93432 0.38161 0.55831 0.0
C1139 C 0.98259 0.39622 0.58057 0.0
C1140 C 0.83687 0.38295 0.55315 0.0
C1141 C 0.78289 0.39895 0.57001 0.0
H1142 H 0.97237 0.36933 0.54389 0.0
H1143 H 0.80397 0.37147 0.53518 0.0
S1144 S 0.8733 0.43946 0.63487 0.0
N1145 N 0.96731 0.42604 0.62243 0.0
N1146 N 0.78475 0.42863 0.6125 0.0
C1147 C 0.82967 0.41314 0.59355 0.0
C1148 C 0.9291 0.41175 0.59889 0.0
C1149 C 0.90838 0.41513 0.30823 0.0
C1150 C 0.97223 0.4033 0.28731 0.0
C1151 C 0.81198 0.41069 0.30764 0.0
C1152 C 0.77436 0.39399 0.2865 0.0
H1153 H 0.93293 0.42803 0.32539 0.0
H1154 H 0.76667 0.42038 0.32445 0.0
S1155 S 0.91077 0.35805 0.22647 0.0
N1156 N 0.99048 0.37417 0.24419 0.0
N1157 N 0.80916 0.36558 0.24367 0.0
C1158 C 0.83711 0.38198 0.26525 0.0
C1159 C 0.9358 0.38673 0.26544 0.0
loop_
_geom_bond_atom_site_label_1
_geom_bond_atom_site_label_2
_geom_bond_distance
_geom_bond_site_symmetry_2
_ccdc_geom_bond_type
Zn0 N4 2.017 1_655 S
Zn0 O8 2.023 . S
Zn0 N10 2.118 1_655 S
Zn0 O18 1.974 1_655 S
C1 N2 1.334 . S
C1 N5 1.336 . S
N2 C1 1.334 . S
N2 C3 1.334 . S
C3 N2 1.334 . S
C3 N4 1.336 . S
N4 Zn0 2.017 1_455 S
N4 C3 1.336 . S
N4 N5 1.354 . S
N5 C1 1.336 . S
N5 N4 1.354 . S
N5 Zn9 2.020 . S
C6 O7 1.244 . S
C6 O30 1.257 . S
O7 C6 1.244 . S
O8 Zn0 2.023 . S
O8 C28 1.257 . S
Zn9 N5 2.020 . S
Zn9 O16 1.975 . S
Zn9 N25 2.119 . S
Zn9 O30 2.019 . S
N10 Zn0 2.118 1_455 S
N10 C12 1.334 . S
N10 C13 1.328 1_455 S
C11 C12 1.391 . S
C11 N14 1.329 . S
C11 H32 0.930 . S
C12 N10 1.334 . S
C12 C11 1.391 . S
C12 H19 0.930 . S
C13 N10 1.328 1_655 S
C13 C15 1.392 . S
C13 H20 0.930 . S
N14 C11 1.329 . S
N14 C15 1.328 1_455 S
C15 C13 1.392 . S
C15 N14 1.328 1_655 S
O16 Zn9 1.975 . S
O16 C17 1.252 . S
C17 O16 1.252 . S
C17 O18 1.252 . S
O18 Zn0 1.974 1_455 S
O18 C17 1.252 . S
H19 C12 0.930 . S
H20 C13 0.930 . S
C21 C22 1.392 . S
C21 N25 1.328 . S
C21 H27 0.930 . S
C22 C21 1.392 . S
C22 N26 1.331 . S
C23 C24 1.391 . S
C23 N26 1.329 . S
C23 H33 0.930 . S
C24 C23 1.391 . S
C24 N25 1.334 . S
C24 H31 0.930 . S
N25 Zn9 2.119 . S
N25 C21 1.328 . S
N25 C24 1.334 . S
N26 C22 1.331 . S
N26 C23 1.329 . S
H27 C21 0.930 . S
C28 O8 1.257 . S
C28 O29 1.244 . S
O29 C28 1.244 . S
O30 C6 1.257 . S
O30 Zn9 2.019 . S
H31 C24 0.930 . S
H32 C11 0.930 . S
H33 C23 0.930 . S
Zn34 N38 2.017 1_655 S
Zn34 O42 2.023 . S
Zn34 N44 2.118 1_655 S
Zn34 O52 1.974 1_655 S
C35 N36 1.334 . S
C35 N39 1.336 . S
N36 C35 1.334 . S
N36 C37 1.334 . S
C37 N36 1.334 . S
C37 N38 1.336 . S
N38 Zn34 2.017 1_455 S
N38 C37 1.336 . S
N38 N39 1.354 . S
N39 C35 1.336 . S
N39 N38 1.354 . S
N39 Zn43 2.020 . S
C40 O41 1.244 . S
C40 O64 1.257 . S
O41 C40 1.244 . S
O42 Zn34 2.023 . S
O42 C62 1.257 . S
Zn43 N39 2.020 . S
Zn43 O50 1.975 . S
Zn43 N59 2.119 . S
Zn43 O64 2.019 . S
N44 Zn34 2.118 1_455 S
N44 C46 1.334 . S
N44 C47 1.328 1_455 S
C45 C46 1.391 . S
C45 N48 1.329 . S
C45 H66 0.930 . S
C46 N44 1.334 . S
C46 C45 1.391 . S
C46 H53 0.930 . S
C47 N44 1.328 1_655 S
C47 C49 1.392 . S
C47 H54 0.930 . S
N48 C45 1.329 . S
N48 C49 1.328 1_455 S
C49 C47 1.392 . S
C49 N48 1.328 1_655 S
O50 Zn43 1.975 . S
O50 C51 1.252 . S
C51 O50 1.252 . S
C51 O52 1.252 . S
O52 Zn34 1.974 1_455 S
O52 C51 1.252 . S
H53 C46 0.930 . S
H54 C47 0.930 . S
C55 C56 1.392 . S
C55 N59 1.328 . S
C55 H61 0.930 . S
C56 C55 1.392 . S
C56 N60 1.331 . S
C57 C58 1.391 . S
C57 N60 1.329 . S
C57 H67 0.930 . S
C58 C57 1.391 . S
C58 N59 1.334 . S
C58 H65 0.930 . S
N59 Zn43 2.119 . S
N59 C55 1.328 . S
N59 C58 1.334 . S
N60 C56 1.331 . S
N60 C57 1.329 . S
H61 C55 0.930 . S
C62 O42 1.257 . S
C62 O63 1.244 . S
O63 C62 1.244 . S
O64 C40 1.257 . S
O64 Zn43 2.019 . S
H65 C58 0.930 . S
H66 C45 0.930 . S
H67 C57 0.930 . S
Zn68 N72 2.017 1_455 S
Zn68 O76 2.023 . S
Zn68 N78 2.118 1_455 S
Zn68 O86 1.974 1_455 S
C69 N70 1.334 . S
C69 N73 1.336 . S
N70 C69 1.334 . S
N70 C71 1.334 . S
C71 N70 1.334 . S
C71 N72 1.336 . S
N72 Zn68 2.017 1_655 S
N72 C71 1.336 . S
N72 N73 1.354 . S
N73 C69 1.336 . S
N73 N72 1.354 . S
N73 Zn77 2.020 . S
C74 O75 1.244 . S
C74 O98 1.257 . S
O75 C74 1.244 . S
O76 Zn68 2.023 . S
O76 C96 1.257 . S
Zn77 N73 2.020 . S
Zn77 O84 1.975 . S
Zn77 N93 2.119 . S
Zn77 O98 2.019 . S
N78 Zn68 2.118 1_655 S
N78 C80 1.334 . S
N78 C81 1.328 1_655 S
C79 C80 1.391 . S
C79 N82 1.329 . S
C79 H100 0.930 . S
C80 N78 1.334 . S
C80 C79 1.391 . S
C80 H87 0.930 . S
C81 N78 1.328 1_455 S
C81 C83 1.392 . S
C81 H88 0.930 . S
N82 C79 1.329 . S
N82 C83 1.328 1_655 S
C83 C81 1.392 . S
C83 N82 1.328 1_455 S
O84 Zn77 1.975 . S
O84 C85 1.252 . S
C85 O84 1.252 . S
C85 O86 1.252 . S
O86 Zn68 1.974 1_655 S
O86 C85 1.252 . S
H87 C80 0.930 . S
H88 C81 0.930 . S
C89 C90 1.392 . S
C89 N93 1.328 . S
C89 H95 0.930 . S
C90 C89 1.392 . S
C90 N94 1.331 . S
C91 C92 1.391 . S
C91 N94 1.329 . S
C91 H101 0.930 . S
C92 C91 1.391 . S
C92 N93 1.334 . S
C92 H99 0.930 . S
N93 Zn77 2.119 . S
N93 C89 1.328 . S
N93 C92 1.334 . S
N94 C90 1.331 . S
N94 C91 1.329 . S
H95 C89 0.930 . S
C96 O76 1.257 . S
C96 O97 1.244 . S
O97 C96 1.244 . S
O98 C74 1.257 . S
O98 Zn77 2.019 . S
H99 C92 0.930 . S
H100 C79 0.930 . S
H101 C91 0.930 . S
Zn102 N106 2.020 . S
Zn102 O110 2.019 . S
Zn102 N112 2.119 . S
Zn102 O120 1.975 . S
C103 N104 1.334 . S
C103 N107 1.336 . S
N104 C103 1.334 . S
N104 C105 1.334 . S
C105 N104 1.334 . S
C105 N106 1.336 . S
N106 Zn102 2.020 . S
N106 C105 1.336 . S
N106 N107 1.354 . S
N107 C103 1.336 . S
N107 N106 1.354 . S
N107 Zn111 2.017 1_655 S
C108 O109 1.244 . S
C108 O132 1.257 . S
O109 C108 1.244 . S
O110 Zn102 2.019 . S
O110 C130 1.257 . S
Zn111 N107 2.017 1_455 S
Zn111 O118 1.974 1_455 S
Zn111 N127 2.118 1_455 S
Zn111 O132 2.023 . S
N112 Zn102 2.119 . S
N112 C114 1.334 . S
N112 C115 1.328 . S
C113 C114 1.391 . S
C113 N116 1.329 . S
C113 H134 0.930 . S
C114 N112 1.334 . S
C114 C113 1.391 . S
C114 H121 0.930 . S
C115 N112 1.328 . S
C115 C117 1.392 . S
C115 H122 0.930 . S
N116 C113 1.329 . S
N116 C117 1.331 . S
C117 C115 1.392 . S
C117 N116 1.331 . S
O118 Zn111 1.974 1_655 S
O118 C119 1.252 . S
C119 O118 1.252 . S
C119 O120 1.252 . S
O120 Zn102 1.975 . S
O120 C119 1.252 . S
H121 C114 0.930 . S
H122 C115 0.930 . S
C123 C124 1.392 . S
C123 N127 1.328 1_455 S
C123 H129 0.930 . S
C124 C123 1.392 . S
C124 N128 1.328 1_455 S
C125 C126 1.391 . S
C125 N128 1.329 . S
C125 H135 0.930 . S
C126 C125 1.391 . S
C126 N127 1.334 . S
C126 H133 0.930 . S
N127 Zn111 2.118 1_655 S
N127 C123 1.328 1_655 S
N127 C126 1.334 . S
N128 C124 1.328 1_655 S
N128 C125 1.329 . S
H129 C123 0.930 . S
C130 O110 1.257 . S
C130 O131 1.244 . S
O131 C130 1.244 . S
O132 C108 1.257 . S
O132 Zn111 2.023 . S
H133 C126 0.930 . S
H134 C113 0.930 . S
H135 C125 0.930 . S
Zn136 N140 2.020 . S
Zn136 O144 2.019 1_556 S
Zn136 N146 2.119 . S
Zn136 O154 1.975 1_556 S
C137 N138 1.334 . S
C137 N141 1.336 . S
N138 C137 1.334 . S
N138 C139 1.334 . S
C139 N138 1.334 . S
C139 N140 1.336 . S
N140 Zn136 2.020 . S
N140 C139 1.336 . S
N140 N141 1.354 . S
N141 C137 1.336 . S
N141 N140 1.354 . S
N141 Zn145 2.017 1_455 S
C142 O143 1.244 . S
C142 O166 1.257 1_556 S
O143 C142 1.244 . S
O144 Zn136 2.019 1_554 S
O144 C164 1.257 1_554 S
Zn145 N141 2.017 1_655 S
Zn145 O152 1.974 1_656 S
Zn145 N161 2.118 1_655 S
Zn145 O166 2.023 1_556 S
N146 Zn136 2.119 . S
N146 C148 1.334 . S
N146 C149 1.328 . S
C147 C148 1.390 1_554 S
C147 N150 1.329 . S
C147 H168 0.930 . S
C148 N146 1.334 . S
C148 C147 1.390 1_556 S
C148 H155 0.930 . S
C149 N146 1.328 . S
C149 C151 1.392 1_556 S
C149 H156 0.930 . S
N150 C147 1.329 . S
N150 C151 1.331 . S
C151 C149 1.392 1_554 S
C151 N150 1.331 . S
O152 Zn145 1.974 1_454 S
O152 C153 1.252 . S
C153 O152 1.252 . S
C153 O154 1.252 . S
O154 Zn136 1.975 1_554 S
O154 C153 1.252 . S
H155 C148 0.930 . S
H156 C149 0.930 . S
C157 C158 1.392 1_556 S
C157 N161 1.328 1_655 S
C157 H163 0.930 . S
C158 C157 1.392 1_554 S
C158 N162 1.328 1_655 S
C159 C160 1.390 1_554 S
C159 N162 1.329 . S
C159 H169 0.930 . S
C160 C159 1.390 1_556 S
C160 N161 1.334 . S
C160 H167 0.930 . S
N161 Zn145 2.118 1_455 S
N161 C157 1.328 1_455 S
N161 C160 1.334 . S
N162 C158 1.328 1_455 S
N162 C159 1.329 . S
H163 C157 0.930 . S
C164 O144 1.257 1_556 S
C164 O165 1.244 . S
O165 C164 1.244 . S
O166 C142 1.257 1_554 S
O166 Zn145 2.023 1_554 S
H167 C160 0.930 . S
H168 C147 0.930 . S
H169 C159 0.930 . S
Zn170 N174 2.017 1_655 S
Zn170 O178 2.023 . S
Zn170 N180 2.118 1_655 S
Zn170 O188 1.974 1_655 S
C171 N172 1.334 . S
C171 N175 1.336 . S
N172 C171 1.334 . S
N172 C173 1.334 . S
C173 N172 1.334 . S
C173 N174 1.336 . S
N174 Zn170 2.017 1_455 S
N174 C173 1.336 . S
N174 N175 1.354 . S
N175 C171 1.336 . S
N175 N174 1.354 . S
N175 Zn179 2.020 . S
C176 O177 1.244 . S
C176 O200 1.257 . S
O177 C176 1.244 . S
O178 Zn170 2.023 . S
O178 C198 1.257 . S
Zn179 N175 2.020 . S
Zn179 O186 1.975 . S
Zn179 N195 2.119 . S
Zn179 O200 2.019 . S
N180 Zn170 2.118 1_455 S
N180 C182 1.334 . S
N180 C183 1.328 1_455 S
C181 C182 1.391 . S
C181 N184 1.329 . S
C181 H202 0.930 . S
C182 N180 1.334 . S
C182 C181 1.391 . S
C182 H189 0.930 . S
C183 N180 1.328 1_655 S
C183 C185 1.392 . S
C183 H190 0.930 . S
N184 C181 1.329 . S
N184 C185 1.328 1_455 S
C185 C183 1.392 . S
C185 N184 1.328 1_655 S
O186 Zn179 1.975 . S
O186 C187 1.252 . S
C187 O186 1.252 . S
C187 O188 1.252 . S
O188 Zn170 1.974 1_455 S
O188 C187 1.252 . S
H189 C182 0.930 . S
H190 C183 0.930 . S
C191 C192 1.392 . S
C191 N195 1.328 . S
C191 H197 0.930 . S
C192 C191 1.392 . S
C192 N196 1.331 . S
C193 C194 1.391 . S
C193 N196 1.329 . S
C193 H203 0.930 . S
C194 C193 1.391 . S
C194 N195 1.334 . S
C194 H201 0.930 . S
N195 Zn179 2.119 . S
N195 C191 1.328 . S
N195 C194 1.334 . S
N196 C192 1.331 . S
N196 C193 1.329 . S
H197 C191 0.930 . S
C198 O178 1.257 . S
C198 O199 1.244 . S
O199 C198 1.244 . S
O200 C176 1.257 . S
O200 Zn179 2.019 . S
H201 C194 0.930 . S
H202 C181 0.930 . S
H203 C193 0.930 . S
Zn204 N208 2.020 . S
Zn204 O212 2.019 1_554 S
Zn204 N214 2.119 . S
Zn204 O222 1.975 1_554 S
C205 N206 1.334 . S
C205 N209 1.336 . S
N206 C205 1.334 . S
N206 C207 1.334 . S
C207 N206 1.334 . S
C207 N208 1.336 . S
N208 Zn204 2.020 . S
N208 C207 1.336 . S
N208 N209 1.354 . S
N209 C205 1.336 . S
N209 N208 1.354 . S
N209 Zn213 2.017 1_655 S
C210 O211 1.244 . S
C210 O234 1.257 1_554 S
O211 C210 1.244 . S
O212 Zn204 2.019 1_556 S
O212 C232 1.257 1_556 S
Zn213 N209 2.017 1_455 S
Zn213 O220 1.974 1_454 S
Zn213 N229 2.118 1_455 S
Zn213 O234 2.023 1_554 S
N214 Zn204 2.119 . S
N214 C216 1.334 . S
N214 C217 1.328 . S
C215 C216 1.390 1_556 S
C215 N218 1.329 . S
C215 H236 0.930 . S
C216 N214 1.334 . S
C216 C215 1.390 1_554 S
C216 H223 0.930 . S
C217 N214 1.328 . S
C217 C219 1.392 1_554 S
C217 H224 0.930 . S
N218 C215 1.329 . S
N218 C219 1.331 . S
C219 C217 1.392 1_556 S
C219 N218 1.331 . S
O220 Zn213 1.974 1_656 S
O220 C221 1.252 . S
C221 O220 1.252 . S
C221 O222 1.252 . S
O222 Zn204 1.975 1_556 S
O222 C221 1.252 . S
H223 C216 0.930 . S
H224 C217 0.930 . S
C225 C226 1.392 1_554 S
C225 N229 1.328 1_455 S
C225 H231 0.930 . S
C226 C225 1.392 1_556 S
C226 N230 1.328 1_455 S
C227 C228 1.390 1_556 S
C227 N230 1.329 . S
C227 H237 0.930 . S
C228 C227 1.390 1_554 S
C228 N229 1.334 . S
C228 H235 0.930 . S
N229 Zn213 2.118 1_655 S
N229 C225 1.328 1_655 S
N229 C228 1.334 . S
N230 C226 1.328 1_655 S
N230 C227 1.329 . S
H231 C225 0.930 . S
C232 O212 1.257 1_554 S
C232 O233 1.244 . S
O233 C232 1.244 . S
O234 C210 1.257 1_556 S
O234 Zn213 2.023 1_556 S
H235 C228 0.930 . S
H236 C215 0.930 . S
H237 C227 0.930 . S
Zn238 N242 2.020 . S
Zn238 O246 2.019 . S
Zn238 N248 2.119 . S
Zn238 O256 1.975 . S
C239 N240 1.334 . S
C239 N243 1.336 . S
N240 C239 1.334 . S
N240 C241 1.334 . S
C241 N240 1.334 . S
C241 N242 1.336 . S
N242 Zn238 2.020 . S
N242 C241 1.336 . S
N242 N243 1.354 . S
N243 C239 1.336 . S
N243 N242 1.354 . S
N243 Zn247 2.017 1_655 S
C244 O245 1.244 . S
C244 O268 1.257 . S
O245 C244 1.244 . S
O246 Zn238 2.019 . S
O246 C266 1.257 . S
Zn247 N243 2.017 1_455 S
Zn247 O254 1.974 1_455 S
Zn247 N263 2.118 1_455 S
Zn247 O268 2.023 . S
N248 Zn238 2.119 . S
N248 C250 1.334 . S
N248 C251 1.328 . S
C249 C250 1.391 . S
C249 N252 1.329 . S
C249 H270 0.930 . S
C250 N248 1.334 . S
C250 C249 1.391 . S
C250 H257 0.930 . S
C251 N248 1.328 . S
C251 C253 1.392 . S
C251 H258 0.930 . S
N252 C249 1.329 . S
N252 C253 1.331 . S
C253 C251 1.392 . S
C253 N252 1.331 . S
O254 Zn247 1.974 1_655 S
O254 C255 1.252 . S
C255 O254 1.252 . S
C255 O256 1.252 . S
O256 Zn238 1.975 . S
O256 C255 1.252 . S
H257 C250 0.930 . S
H258 C251 0.930 . S
C259 C260 1.392 . S
C259 N263 1.328 1_455 S
C259 H265 0.930 . S
C260 C259 1.392 . S
C260 N264 1.328 1_455 S
C261 C262 1.391 . S
C261 N264 1.329 . S
C261 H271 0.930 . S
C262 C261 1.391 . S
C262 N263 1.334 . S
C262 H269 0.930 . S
N263 Zn247 2.118 1_655 S
N263 C259 1.328 1_655 S
N263 C262 1.334 . S
N264 C260 1.328 1_655 S
N264 C261 1.329 . S
H265 C259 0.930 . S
C266 O246 1.257 . S
C266 O267 1.244 . S
O267 C266 1.244 . S
O268 C244 1.257 . S
O268 Zn247 2.023 . S
H269 C262 0.930 . S
H270 C249 0.930 . S
H271 C261 0.930 . S
Zn272 N276 2.020 . S
Zn272 O280 2.019 1_556 S
Zn272 N282 2.119 . S
Zn272 O290 1.975 1_556 S
C273 N274 1.334 . S
C273 N277 1.336 . S
N274 C273 1.334 . S
N274 C275 1.334 . S
C275 N274 1.334 . S
C275 N276 1.336 . S
N276 Zn272 2.020 . S
N276 C275 1.336 . S
N276 N277 1.354 . S
N277 C273 1.336 . S
N277 N276 1.354 . S
N277 Zn281 2.020 . S
C278 O279 1.244 . S
C278 O302 1.257 1_556 S
O279 C278 1.244 . S
O280 Zn272 2.019 1_554 S
O280 C300 1.257 1_554 S
Zn281 N277 2.020 . S
Zn281 O288 1.975 1_556 S
Zn281 N297 2.119 . S
Zn281 O302 2.019 1_556 S
N282 Zn272 2.119 . S
N282 C284 1.334 . S
N282 C285 1.328 . S
C283 C284 1.390 1_554 S
C283 N286 1.329 . S
C283 H304 0.930 . S
C284 N282 1.334 . S
C284 C283 1.390 1_556 S
C284 H291 0.930 . S
C285 N282 1.328 . S
C285 C287 1.392 1_556 S
C285 H292 0.930 . S
N286 C283 1.329 . S
N286 C287 1.331 . S
C287 C285 1.392 1_554 S
C287 N286 1.331 . S
O288 Zn281 1.975 1_554 S
O288 C289 1.252 . S
C289 O288 1.252 . S
C289 O290 1.252 . S
O290 Zn272 1.975 1_554 S
O290 C289 1.252 . S
H291 C284 0.930 . S
H292 C285 0.930 . S
C293 C294 1.392 1_556 S
C293 N297 1.328 . S
C293 H299 0.930 . S
C294 C293 1.392 1_554 S
C294 N298 1.331 . S
C295 C296 1.390 1_554 S
C295 N298 1.329 . S
C295 H305 0.930 . S
C296 C295 1.390 1_556 S
C296 N297 1.334 . S
C296 H303 0.930 . S
N297 Zn281 2.119 . S
N297 C293 1.328 . S
N297 C296 1.334 . S
N298 C294 1.331 . S
N298 C295 1.329 . S
H299 C293 0.930 . S
C300 O280 1.257 1_556 S
C300 O301 1.244 . S
O301 C300 1.244 . S
O302 C278 1.257 1_554 S
O302 Zn281 2.019 1_554 S
H303 C296 0.930 . S
H304 C283 0.930 . S
H305 C295 0.930 . S
Zn306 N310 2.020 . S
Zn306 O314 2.019 . S
Zn306 N316 2.119 . S
Zn306 O324 1.975 . S
C307 N308 1.334 . S
C307 N311 1.336 . S
N308 C307 1.334 . S
N308 C309 1.334 . S
C309 N308 1.334 . S
C309 N310 1.336 . S
N310 Zn306 2.020 . S
N310 C309 1.336 . S
N310 N311 1.354 . S
N311 C307 1.336 . S
N311 N310 1.354 . S
N311 Zn315 2.020 . S
C312 O313 1.244 . S
C312 O336 1.257 . S
O313 C312 1.244 . S
O314 Zn306 2.019 . S
O314 C334 1.257 . S
Zn315 N311 2.020 . S
Zn315 O322 1.975 . S
Zn315 N331 2.119 . S
Zn315 O336 2.019 . S
N316 Zn306 2.119 . S
N316 C318 1.334 . S
N316 C319 1.328 . S
C317 C318 1.391 . S
C317 N320 1.329 . S
C317 H338 0.930 . S
C318 N316 1.334 . S
C318 C317 1.391 . S
C318 H325 0.930 . S
C319 N316 1.328 . S
C319 C321 1.392 . S
C319 H326 0.930 . S
N320 C317 1.329 . S
N320 C321 1.331 . S
C321 C319 1.392 . S
C321 N320 1.331 . S
O322 Zn315 1.975 . S
O322 C323 1.252 . S
C323 O322 1.252 . S
C323 O324 1.252 . S
O324 Zn306 1.975 . S
O324 C323 1.252 . S
H325 C318 0.930 . S
H326 C319 0.930 . S
C327 C328 1.392 . S
C327 N331 1.328 . S
C327 H333 0.930 . S
C328 C327 1.392 . S
C328 N332 1.331 . S
C329 C330 1.391 . S
C329 N332 1.329 . S
C329 H339 0.930 . S
C330 C329 1.391 . S
C330 N331 1.334 . S
C330 H337 0.930 . S
N331 Zn315 2.119 . S
N331 C327 1.328 . S
N331 C330 1.334 . S
N332 C328 1.331 . S
N332 C329 1.329 . S
H333 C327 0.930 . S
C334 O314 1.257 . S
C334 O335 1.244 . S
O335 C334 1.244 . S
O336 C312 1.257 . S
O336 Zn315 2.019 . S
H337 C330 0.930 . S
H338 C317 0.930 . S
H339 C329 0.930 . S
Zn340 N344 2.020 . S
Zn340 O348 2.019 1_554 S
Zn340 N350 2.119 . S
Zn340 O358 1.975 1_554 S
C341 N342 1.334 . S
C341 N345 1.336 . S
N342 C341 1.334 . S
N342 C343 1.334 . S
C343 N342 1.334 . S
C343 N344 1.336 . S
N344 Zn340 2.020 . S
N344 C343 1.336 . S
N344 N345 1.354 . S
N345 C341 1.336 . S
N345 N344 1.354 . S
N345 Zn349 2.020 . S
C346 O347 1.244 . S
C346 O370 1.257 1_554 S
O347 C346 1.244 . S
O348 Zn340 2.019 1_556 S
O348 C368 1.257 1_556 S
Zn349 N345 2.020 . S
Zn349 O356 1.975 1_554 S
Zn349 N365 2.119 . S
Zn349 O370 2.019 1_554 S
N350 Zn340 2.119 . S
N350 C352 1.334 . S
N350 C353 1.328 . S
C351 C352 1.390 1_556 S
C351 N354 1.329 . S
C351 H372 0.930 . S
C352 N350 1.334 . S
C352 C351 1.390 1_554 S
C352 H359 0.930 . S
C353 N350 1.328 . S
C353 C355 1.392 1_554 S
C353 H360 0.930 . S
N354 C351 1.329 . S
N354 C355 1.331 . S
C355 C353 1.392 1_556 S
C355 N354 1.331 . S
O356 Zn349 1.975 1_556 S
O356 C357 1.252 . S
C357 O356 1.252 . S
C357 O358 1.252 . S
O358 Zn340 1.975 1_556 S
O358 C357 1.252 . S
H359 C352 0.930 . S
H360 C353 0.930 . S
C361 C362 1.392 1_554 S
C361 N365 1.328 . S
C361 H367 0.930 . S
C362 C361 1.392 1_556 S
C362 N366 1.331 . S
C363 C364 1.390 1_556 S
C363 N366 1.329 . S
C363 H373 0.930 . S
C364 C363 1.390 1_554 S
C364 N365 1.334 . S
C364 H371 0.930 . S
N365 Zn349 2.119 . S
N365 C361 1.328 . S
N365 C364 1.334 . S
N366 C362 1.331 . S
N366 C363 1.329 . S
H367 C361 0.930 . S
C368 O348 1.257 1_554 S
C368 O369 1.244 . S
O369 C368 1.244 . S
O370 C346 1.257 1_556 S
O370 Zn349 2.019 1_556 S
H371 C364 0.930 . S
H372 C351 0.930 . S
H373 C363 0.930 . S
Zn374 N378 2.020 . S
Zn374 O382 2.019 . S
Zn374 N384 2.119 . S
Zn374 O392 1.975 . S
C375 N376 1.334 . S
C375 N379 1.336 . S
N376 C375 1.334 . S
N376 C377 1.334 . S
C377 N376 1.334 . S
C377 N378 1.336 . S
N378 Zn374 2.020 . S
N378 C377 1.336 . S
N378 N379 1.354 . S
N379 C375 1.336 . S
N379 N378 1.354 . S
N379 Zn383 2.020 . S
C380 O381 1.244 . S
C380 O404 1.257 . S
O381 C380 1.244 . S
O382 Zn374 2.019 . S
O382 C402 1.257 . S
Zn383 N379 2.020 . S
Zn383 O390 1.975 . S
Zn383 N399 2.119 . S
Zn383 O404 2.019 . S
N384 Zn374 2.119 . S
N384 C386 1.334 . S
N384 C387 1.328 . S
C385 C386 1.391 . S
C385 N388 1.329 . S
C385 H406 0.930 . S
C386 N384 1.334 . S
C386 C385 1.391 . S
C386 H393 0.930 . S
C387 N384 1.328 . S
C387 C389 1.392 . S
C387 H394 0.930 . S
N388 C385 1.329 . S
N388 C389 1.331 . S
C389 C387 1.392 . S
C389 N388 1.331 . S
O390 Zn383 1.975 . S
O390 C391 1.252 . S
C391 O390 1.252 . S
C391 O392 1.252 . S
O392 Zn374 1.975 . S
O392 C391 1.252 . S
H393 C386 0.930 . S
H394 C387 0.930 . S
C395 C396 1.392 . S
C395 N399 1.328 . S
C395 H401 0.930 . S
C396 C395 1.392 . S
C396 N400 1.331 . S
C397 C398 1.391 . S
C397 N400 1.329 . S
C397 H407 0.930 . S
C398 C397 1.391 . S
C398 N399 1.334 . S
C398 H405 0.930 . S
N399 Zn383 2.119 . S
N399 C395 1.328 . S
N399 C398 1.334 . S
N400 C396 1.331 . S
N400 C397 1.329 . S
H401 C395 0.930 . S
C402 O382 1.257 . S
C402 O403 1.244 . S
O403 C402 1.244 . S
O404 C380 1.257 . S
O404 Zn383 2.019 . S
H405 C398 0.930 . S
H406 C385 0.930 . S
H407 C397 0.930 . S
Zn408 N412 2.020 . S
Zn408 O416 2.019 . S
Zn408 N418 2.119 . S
Zn408 O426 1.975 . S
C409 N410 1.334 . S
C409 N413 1.336 . S
N410 C409 1.334 . S
N410 C411 1.334 . S
C411 N410 1.334 . S
C411 N412 1.336 . S
N412 Zn408 2.020 . S
N412 C411 1.336 . S
N412 N413 1.354 . S
N413 C409 1.336 . S
N413 N412 1.354 . S
N413 Zn417 2.020 . S
C414 O415 1.244 . S
C414 O438 1.257 . S
O415 C414 1.244 . S
O416 Zn408 2.019 . S
O416 C436 1.257 . S
Zn417 N413 2.020 . S
Zn417 O424 1.975 . S
Zn417 N433 2.119 . S
Zn417 O438 2.019 . S
N418 Zn408 2.119 . S
N418 C420 1.334 . S
N418 C421 1.328 . S
C419 C420 1.391 . S
C419 N422 1.329 . S
C419 H440 0.930 . S
C420 N418 1.334 . S
C420 C419 1.391 . S
C420 H427 0.930 . S
C421 N418 1.328 . S
C421 C423 1.392 . S
C421 H428 0.930 . S
N422 C419 1.329 . S
N422 C423 1.331 . S
C423 C421 1.392 . S
C423 N422 1.331 . S
O424 Zn417 1.975 . S
O424 C425 1.252 . S
C425 O424 1.252 . S
C425 O426 1.252 . S
O426 Zn408 1.975 . S
O426 C425 1.252 . S
H427 C420 0.930 . S
H428 C421 0.930 . S
C429 C430 1.392 . S
C429 N433 1.328 . S
C429 H435 0.930 . S
C430 C429 1.392 . S
C430 N434 1.331 . S
C431 C432 1.391 . S
C431 N434 1.329 . S
C431 H441 0.930 . S
C432 C431 1.391 . S
C432 N433 1.334 . S
C432 H439 0.930 . S
N433 Zn417 2.119 . S
N433 C429 1.328 . S
N433 C432 1.334 . S
N434 C430 1.331 . S
N434 C431 1.329 . S
H435 C429 0.930 . S
C436 O416 1.257 . S
C436 O437 1.244 . S
O437 C436 1.244 . S
O438 C414 1.257 . S
O438 Zn417 2.019 . S
H439 C432 0.930 . S
H440 C419 0.930 . S
H441 C431 0.930 . S
Zn442 N446 2.020 . S
Zn442 O450 2.019 . S
Zn442 N452 2.119 . S
Zn442 O460 1.975 . S
C443 N444 1.334 . S
C443 N447 1.336 . S
N444 C443 1.334 . S
N444 C445 1.334 . S
C445 N444 1.334 . S
C445 N446 1.336 . S
N446 Zn442 2.020 . S
N446 C445 1.336 . S
N446 N447 1.354 . S
N447 C443 1.336 . S
N447 N446 1.354 . S
N447 Zn451 2.020 . S
C448 O449 1.244 . S
C448 O472 1.257 . S
O449 C448 1.244 . S
O450 Zn442 2.019 . S
O450 C470 1.257 . S
Zn451 N447 2.020 . S
Zn451 O458 1.975 . S
Zn451 N467 2.119 . S
Zn451 O472 2.019 . S
N452 Zn442 2.119 . S
N452 C454 1.334 . S
N452 C455 1.328 . S
C453 C454 1.391 . S
C453 N456 1.329 . S
C453 H474 0.930 . S
C454 N452 1.334 . S
C454 C453 1.391 . S
C454 H461 0.930 . S
C455 N452 1.328 . S
C455 C457 1.392 . S
C455 H462 0.930 . S
N456 C453 1.329 . S
N456 C457 1.331 . S
C457 C455 1.392 . S
C457 N456 1.331 . S
O458 Zn451 1.975 . S
O458 C459 1.252 . S
C459 O458 1.252 . S
C459 O460 1.252 . S
O460 Zn442 1.975 . S
O460 C459 1.252 . S
H461 C454 0.930 . S
H462 C455 0.930 . S
C463 C464 1.392 . S
C463 N467 1.328 . S
C463 H469 0.930 . S
C464 C463 1.392 . S
C464 N468 1.331 . S
C465 C466 1.391 . S
C465 N468 1.329 . S
C465 H475 0.930 . S
C466 C465 1.391 . S
C466 N467 1.334 . S
C466 H473 0.930 . S
N467 Zn451 2.119 . S
N467 C463 1.328 . S
N467 C466 1.334 . S
N468 C464 1.331 . S
N468 C465 1.329 . S
H469 C463 0.930 . S
C470 O450 1.257 . S
C470 O471 1.244 . S
O471 C470 1.244 . S
O472 C448 1.257 . S
O472 Zn451 2.019 . S
H473 C466 0.930 . S
H474 C453 0.930 . S
H475 C465 0.930 . S
Zn476 N480 2.020 . S
Zn476 O484 2.019 . S
Zn476 N486 2.119 . S
Zn476 O494 1.975 . S
C477 N478 1.334 . S
C477 N481 1.336 . S
N478 C477 1.334 . S
N478 C479 1.334 . S
C479 N478 1.334 . S
C479 N480 1.336 . S
N480 Zn476 2.020 . S
N480 C479 1.336 . S
N480 N481 1.354 . S
N481 C477 1.336 . S
N481 N480 1.354 . S
N481 Zn485 2.020 . S
C482 O483 1.244 . S
C482 O506 1.257 . S
O483 C482 1.244 . S
O484 Zn476 2.019 . S
O484 C504 1.257 . S
Zn485 N481 2.020 . S
Zn485 O492 1.975 . S
Zn485 N501 2.119 . S
Zn485 O506 2.019 . S
N486 Zn476 2.119 . S
N486 C488 1.334 . S
N486 C489 1.328 . S
C487 C488 1.391 . S
C487 N490 1.329 . S
C487 H508 0.930 . S
C488 N486 1.334 . S
C488 C487 1.391 . S
C488 H495 0.930 . S
C489 N486 1.328 . S
C489 C491 1.392 . S
C489 H496 0.930 . S
N490 C487 1.329 . S
N490 C491 1.331 . S
C491 C489 1.392 . S
C491 N490 1.331 . S
O492 Zn485 1.975 . S
O492 C493 1.252 . S
C493 O492 1.252 . S
C493 O494 1.252 . S
O494 Zn476 1.975 . S
O494 C493 1.252 . S
H495 C488 0.930 . S
H496 C489 0.930 . S
C497 C498 1.392 . S
C497 N501 1.328 . S
C497 H503 0.930 . S
C498 C497 1.392 . S
C498 N502 1.331 . S
C499 C500 1.391 . S
C499 N502 1.329 . S
C499 H509 0.930 . S
C500 C499 1.391 . S
C500 N501 1.334 . S
C500 H507 0.930 . S
N501 Zn485 2.119 . S
N501 C497 1.328 . S
N501 C500 1.334 . S
N502 C498 1.331 . S
N502 C499 1.329 . S
H503 C497 0.930 . S
C504 O484 1.257 . S
C504 O505 1.244 . S
O505 C504 1.244 . S
O506 C482 1.257 . S
O506 Zn485 2.019 . S
H507 C500 0.930 . S
H508 C487 0.930 . S
H509 C499 0.930 . S
Zn510 N514 2.020 . S
Zn510 O518 2.019 . S
Zn510 N520 2.119 . S
Zn510 O528 1.975 . S
C511 N512 1.334 . S
C511 N515 1.336 . S
N512 C511 1.334 . S
N512 C513 1.334 . S
C513 N512 1.334 . S
C513 N514 1.336 . S
N514 Zn510 2.020 . S
N514 C513 1.336 . S
N514 N515 1.354 . S
N515 C511 1.336 . S
N515 N514 1.354 . S
N515 Zn519 2.020 . S
C516 O517 1.244 . S
C516 O540 1.257 . S
O517 C516 1.244 . S
O518 Zn510 2.019 . S
O518 C538 1.257 . S
Zn519 N515 2.020 . S
Zn519 O526 1.975 . S
Zn519 N535 2.119 . S
Zn519 O540 2.019 . S
N520 Zn510 2.119 . S
N520 C522 1.334 . S
N520 C523 1.328 . S
C521 C522 1.391 . S
C521 N524 1.329 . S
C521 H542 0.930 . S
C522 N520 1.334 . S
C522 C521 1.391 . S
C522 H529 0.930 . S
C523 N520 1.328 . S
C523 C525 1.392 . S
C523 H530 0.930 . S
N524 C521 1.329 . S
N524 C525 1.331 . S
C525 C523 1.392 . S
C525 N524 1.331 . S
O526 Zn519 1.975 . S
O526 C527 1.252 . S
C527 O526 1.252 . S
C527 O528 1.252 . S
O528 Zn510 1.975 . S
O528 C527 1.252 . S
H529 C522 0.930 . S
H530 C523 0.930 . S
C531 C532 1.392 . S
C531 N535 1.328 . S
C531 H537 0.930 . S
C532 C531 1.392 . S
C532 N536 1.331 . S
C533 C534 1.391 . S
C533 N536 1.329 . S
C533 H543 0.930 . S
C534 C533 1.391 . S
C534 N535 1.334 . S
C534 H541 0.930 . S
N535 Zn519 2.119 . S
N535 C531 1.328 . S
N535 C534 1.334 . S
N536 C532 1.331 . S
N536 C533 1.329 . S
H537 C531 0.930 . S
C538 O518 1.257 . S
C538 O539 1.244 . S
O539 C538 1.244 . S
O540 C516 1.257 . S
O540 Zn519 2.019 . S
H541 C534 0.930 . S
H542 C521 0.930 . S
H543 C533 0.930 . S
C544 C545 1.369 . S
C544 C546 1.419 . S
C544 H548 0.930 . S
C545 C544 1.369 . S
C545 C554 1.429 . S
C546 C544 1.419 . S
C546 C547 1.363 . S
C546 H549 0.929 . S
C547 C546 1.363 . S
C547 C553 1.428 . S
H548 C544 0.930 . S
H549 C546 0.929 . S
S550 N551 1.613 . S
S550 N552 1.610 . S
N551 S550 1.613 . S
N551 C554 1.350 . S
N552 S550 1.610 . S
N552 C553 1.351 . S
C553 C547 1.428 . S
C553 N552 1.351 . S
C553 C554 1.434 . S
C554 C545 1.429 . S
C554 N551 1.350 . S
C554 C553 1.434 . S
C555 C556 1.369 . S
C555 C557 1.419 1_465 S
C555 H559 0.930 . S
C556 C555 1.369 . S
C556 C565 1.429 . S
C557 C555 1.419 1_645 S
C557 C558 1.363 . S
C557 H560 0.929 . S
C558 C557 1.363 . S
C558 C564 1.428 . S
H559 C555 0.930 . S
H560 C557 0.929 . S
S561 N562 1.613 1_645 S
S561 N563 1.610 . S
N562 S561 1.613 1_465 S
N562 C565 1.350 . S
N563 S561 1.610 . S
N563 C564 1.351 . S
C564 C558 1.428 . S
C564 N563 1.351 . S
C564 C565 1.434 1_645 S
C565 C556 1.429 . S
C565 N562 1.350 . S
C565 C564 1.434 1_465 S
C566 C567 1.369 . S
C566 C568 1.419 1_545 S
C566 H570 0.930 . S
C567 C566 1.369 . S
C567 C576 1.429 . S
C568 C566 1.419 1_565 S
C568 C569 1.363 . S
C568 H571 0.929 . S
C569 C568 1.363 . S
C569 C575 1.428 . S
H570 C566 0.930 . S
H571 C568 0.929 . S
S572 N573 1.613 1_565 S
S572 N574 1.610 . S
N573 S572 1.613 1_545 S
N573 C576 1.350 . S
N574 S572 1.610 . S
N574 C575 1.351 . S
C575 C569 1.428 . S
C575 N574 1.351 . S
C575 C576 1.434 1_565 S
C576 C567 1.429 . S
C576 N573 1.350 . S
C576 C575 1.434 1_545 S
C577 C578 1.369 1_455 S
C577 C579 1.419 . S
C577 H581 0.930 . S
C578 C577 1.369 1_655 S
C578 C587 1.429 . S
C579 C577 1.419 . S
C579 C580 1.363 . S
C579 H582 0.929 . S
C580 C579 1.363 . S
C580 C586 1.428 1_455 S
H581 C577 0.930 . S
H582 C579 0.929 . S
S583 N584 1.613 . S
S583 N585 1.610 . S
N584 S583 1.613 . S
N584 C587 1.350 . S
N585 S583 1.610 . S
N585 C586 1.351 . S
C586 C580 1.428 1_655 S
C586 N585 1.351 . S
C586 C587 1.434 . S
C587 C578 1.429 . S
C587 N584 1.350 . S
C587 C586 1.434 . S
C588 C589 1.369 . S
C588 C590 1.419 . S
C588 H592 0.930 . S
C589 C588 1.369 . S
C589 C598 1.429 . S
C590 C588 1.419 . S
C590 C591 1.363 . S
C590 H593 0.929 . S
C591 C590 1.363 . S
C591 C597 1.428 . S
H592 C588 0.930 . S
H593 C590 0.929 . S
S594 N595 1.613 . S
S594 N596 1.610 . S
N595 S594 1.613 . S
N595 C598 1.350 . S
N596 S594 1.610 . S
N596 C597 1.351 . S
C597 C591 1.428 . S
C597 N596 1.351 . S
C597 C598 1.434 . S
C598 C589 1.429 . S
C598 N595 1.350 . S
C598 C597 1.434 . S
C599 C600 1.369 . S
C599 C601 1.419 1_565 S
C599 H603 0.930 . S
C600 C599 1.369 . S
C600 C609 1.429 . S
C601 C599 1.419 1_545 S
C601 C602 1.363 . S
C601 H604 0.929 . S
C602 C601 1.363 . S
C602 C608 1.428 . S
H603 C599 0.930 . S
H604 C601 0.929 . S
S605 N606 1.613 . S
S605 N607 1.610 1_565 S
N606 S605 1.613 . S
N606 C609 1.350 . S
N607 S605 1.610 1_545 S
N607 C608 1.351 . S
C608 C602 1.428 . S
C608 N607 1.351 . S
C608 C609 1.434 1_545 S
C609 C600 1.429 . S
C609 N606 1.350 . S
C609 C608 1.434 1_565 S
C610 C611 1.369 1_655 S
C610 C612 1.419 . S
C610 H614 0.930 . S
C611 C610 1.369 1_455 S
C611 C620 1.429 . S
C612 C610 1.419 . S
C612 C613 1.363 . S
C612 H615 0.929 . S
C613 C612 1.363 . S
C613 C619 1.428 1_655 S
H614 C610 0.930 . S
H615 C612 0.929 . S
S616 N617 1.613 . S
S616 N618 1.610 . S
N617 S616 1.613 . S
N617 C620 1.350 . S
N618 S616 1.610 . S
N618 C619 1.351 . S
C619 C613 1.428 1_455 S
C619 N618 1.351 . S
C619 C620 1.434 . S
C620 C611 1.429 . S
C620 N617 1.350 . S
C620 C619 1.434 . S
C621 C622 1.369 . S
C621 C623 1.419 . S
C621 H625 0.930 . S
C622 C621 1.369 . S
C622 C631 1.429 1_554 S
C623 C621 1.419 . S
C623 C624 1.363 1_554 S
C623 H626 0.929 . S
C624 C623 1.363 1_556 S
C624 C630 1.428 . S
H625 C621 0.930 . S
H626 C623 0.929 . S
S627 N628 1.613 . S
S627 N629 1.610 . S
N628 S627 1.613 . S
N628 C631 1.350 . S
N629 S627 1.610 . S
N629 C630 1.351 . S
C630 C624 1.428 . S
C630 N629 1.351 . S
C630 C631 1.434 . S
C631 C622 1.429 1_556 S
C631 N628 1.350 . S
C631 C630 1.434 . S
C632 C633 1.369 1_455 S
C632 C634 1.419 . S
C632 H636 0.930 . S
C633 C632 1.369 1_655 S
C633 C642 1.429 1_554 S
C634 C632 1.419 . S
C634 C635 1.363 1_554 S
C634 H637 0.929 . S
C635 C634 1.363 1_556 S
C635 C641 1.428 1_455 S
H636 C632 0.930 . S
H637 C634 0.929 . S
S638 N639 1.613 . S
S638 N640 1.610 . S
N639 S638 1.613 . S
N639 C642 1.350 . S
N640 S638 1.610 . S
N640 C641 1.351 . S
C641 C635 1.428 1_655 S
C641 N640 1.351 . S
C641 C642 1.434 . S
C642 C633 1.429 1_556 S
C642 N639 1.350 . S
C642 C641 1.434 . S
C643 C644 1.369 . S
C643 C645 1.419 . S
C643 H647 0.930 . S
C644 C643 1.369 . S
C644 C653 1.429 . S
C645 C643 1.419 . S
C645 C646 1.363 . S
C645 H648 0.929 . S
C646 C645 1.363 . S
C646 C652 1.428 . S
H647 C643 0.930 . S
H648 C645 0.929 . S
S649 N650 1.613 . S
S649 N651 1.610 . S
N650 S649 1.613 . S
N650 C653 1.350 . S
N651 S649 1.610 . S
N651 C652 1.351 . S
C652 C646 1.428 . S
C652 N651 1.351 . S
C652 C653 1.434 . S
C653 C644 1.429 . S
C653 N650 1.350 . S
C653 C652 1.434 . S
C654 C655 1.369 1_554 S
C654 C656 1.419 . S
C654 H658 0.930 . S
C655 C654 1.369 1_556 S
C655 C664 1.429 . S
C656 C654 1.419 . S
C656 C657 1.363 . S
C656 H659 0.929 . S
C657 C656 1.363 . S
C657 C663 1.428 1_554 S
H658 C654 0.930 . S
H659 C656 0.929 . S
S660 N661 1.613 . S
S660 N662 1.610 . S
N661 S660 1.613 . S
N661 C664 1.350 . S
N662 S660 1.610 . S
N662 C663 1.351 . S
C663 C657 1.428 1_556 S
C663 N662 1.351 . S
C663 C664 1.434 . S
C664 C655 1.429 . S
C664 N661 1.350 . S
C664 C663 1.434 . S
C665 C666 1.369 . S
C665 C667 1.419 . S
C665 H669 0.930 . S
C666 C665 1.369 . S
C666 C675 1.429 . S
C667 C665 1.419 . S
C667 C668 1.363 . S
C667 H670 0.929 . S
C668 C667 1.363 . S
C668 C674 1.428 . S
H669 C665 0.930 . S
H670 C667 0.929 . S
S671 N672 1.613 . S
S671 N673 1.610 . S
N672 S671 1.613 . S
N672 C675 1.350 . S
N673 S671 1.610 . S
N673 C674 1.351 . S
C674 C668 1.428 . S
C674 N673 1.351 . S
C674 C675 1.434 . S
C675 C666 1.429 . S
C675 N672 1.350 . S
C675 C674 1.434 . S
C676 C677 1.369 . S
C676 C678 1.419 1_545 S
C676 H680 0.930 . S
C677 C676 1.369 . S
C677 C686 1.429 1_554 S
C678 C676 1.419 1_565 S
C678 C679 1.363 1_554 S
C678 H681 0.929 . S
C679 C678 1.363 1_556 S
C679 C685 1.428 . S
H680 C676 0.930 . S
H681 C678 0.929 . S
S682 N683 1.613 . S
S682 N684 1.610 1_545 S
N683 S682 1.613 . S
N683 C686 1.350 . S
N684 S682 1.610 1_565 S
N684 C685 1.351 . S
C685 C679 1.428 . S
C685 N684 1.351 . S
C685 C686 1.434 1_565 S
C686 C677 1.429 1_556 S
C686 N683 1.350 . S
C686 C685 1.434 1_545 S
C687 C688 1.369 . S
C687 C689 1.419 . S
C687 H691 0.930 . S
C688 C687 1.369 . S
C688 C697 1.429 . S
C689 C687 1.419 . S
C689 C690 1.363 . S
C689 H692 0.929 . S
C690 C689 1.363 . S
C690 C696 1.428 . S
H691 C687 0.930 . S
H692 C689 0.929 . S
S693 N694 1.613 . S
S693 N695 1.610 . S
N694 S693 1.613 . S
N694 C697 1.350 . S
N695 S693 1.610 . S
N695 C696 1.351 . S
C696 C690 1.428 . S
C696 N695 1.351 . S
C696 C697 1.434 . S
C697 C688 1.429 . S
C697 N694 1.350 . S
C697 C696 1.434 . S
C698 C699 1.369 . S
C698 C700 1.419 . S
C698 H702 0.930 . S
C699 C698 1.369 . S
C699 C708 1.429 . S
C700 C698 1.419 . S
C700 C701 1.363 . S
C700 H703 0.929 . S
C701 C700 1.363 . S
C701 C707 1.428 . S
H702 C698 0.930 . S
H703 C700 0.929 . S
S704 N705 1.613 . S
S704 N706 1.610 . S
N705 S704 1.613 . S
N705 C708 1.350 . S
N706 S704 1.610 . S
N706 C707 1.351 . S
C707 C701 1.428 . S
C707 N706 1.351 . S
C707 C708 1.434 . S
C708 C699 1.429 . S
C708 N705 1.350 . S
C708 C707 1.434 . S
C709 C710 1.369 . S
C709 C711 1.419 . S
C709 H713 0.930 . S
C710 C709 1.369 . S
C710 C719 1.429 . S
C711 C709 1.419 . S
C711 C712 1.363 . S
C711 H714 0.929 . S
C712 C711 1.363 . S
C712 C718 1.428 . S
H713 C709 0.930 . S
H714 C711 0.929 . S
S715 N716 1.613 . S
S715 N717 1.610 . S
N716 S715 1.613 . S
N716 C719 1.350 . S
N717 S715 1.610 . S
N717 C718 1.351 . S
C718 C712 1.428 . S
C718 N717 1.351 . S
C718 C719 1.434 . S
C719 C710 1.429 . S
C719 N716 1.350 . S
C719 C718 1.434 . S
C720 C721 1.369 . S
C720 C722 1.419 . S
C720 H724 0.930 . S
C721 C720 1.369 . S
C721 C730 1.429 . S
C722 C720 1.419 . S
C722 C723 1.363 . S
C722 H725 0.929 . S
C723 C722 1.363 . S
C723 C729 1.428 . S
H724 C720 0.930 . S
H725 C722 0.929 . S
S726 N727 1.613 . S
S726 N728 1.610 . S
N727 S726 1.613 . S
N727 C730 1.350 . S
N728 S726 1.610 . S
N728 C729 1.351 . S
C729 C723 1.428 . S
C729 N728 1.351 . S
C729 C730 1.434 . S
C730 C721 1.429 . S
C730 N727 1.350 . S
C730 C729 1.434 . S
C731 C732 1.369 . S
C731 C733 1.419 . S
C731 H735 0.930 . S
C732 C731 1.369 . S
C732 C741 1.429 . S
C733 C731 1.419 . S
C733 C734 1.363 . S
C733 H736 0.929 . S
C734 C733 1.363 . S
C734 C740 1.428 . S
H735 C731 0.930 . S
H736 C733 0.929 . S
S737 N738 1.613 . S
S737 N739 1.610 . S
N738 S737 1.613 . S
N738 C741 1.350 1_455 S
N739 S737 1.610 . S
N739 C740 1.351 1_455 S
C740 C734 1.428 . S
C740 N739 1.351 1_655 S
C740 C741 1.434 . S
C741 C732 1.429 . S
C741 N738 1.350 1_655 S
C741 C740 1.434 . S
C742 C743 1.369 . S
C742 C744 1.419 . S
C742 H746 0.930 1_455 S
C743 C742 1.369 . S
C743 C752 1.429 . S
C744 C742 1.419 . S
C744 C745 1.363 . S
C744 H747 0.929 1_455 S
C745 C744 1.363 . S
C745 C751 1.428 . S
H746 C742 0.930 1_655 S
H747 C744 0.929 1_655 S
S748 N749 1.613 . S
S748 N750 1.610 . S
N749 S748 1.613 . S
N749 C752 1.350 . S
N750 S748 1.610 . S
N750 C751 1.351 . S
C751 C745 1.428 . S
C751 N750 1.351 . S
C751 C752 1.434 . S
C752 C743 1.429 . S
C752 N749 1.350 . S
C752 C751 1.434 . S
C753 C754 1.369 . S
C753 C755 1.419 . S
C753 H757 0.930 . S
C754 C753 1.369 . S
C754 C763 1.429 . S
C755 C753 1.419 . S
C755 C756 1.363 . S
C755 H758 0.929 . S
C756 C755 1.363 . S
C756 C762 1.428 . S
H757 C753 0.930 . S
H758 C755 0.929 . S
S759 N760 1.613 1_455 S
S759 N761 1.610 1_455 S
N760 S759 1.613 1_655 S
N760 C763 1.350 . S
N761 S759 1.610 1_655 S
N761 C762 1.351 . S
C762 C756 1.428 . S
C762 N761 1.351 . S
C762 C763 1.434 . S
C763 C754 1.429 . S
C763 N760 1.350 . S
C763 C762 1.434 . S
C764 C765 1.369 . S
C764 C766 1.419 . S
C764 H768 0.930 . S
C765 C764 1.369 . S
C765 C774 1.429 . S
C766 C764 1.419 . S
C766 C767 1.363 . S
C766 H769 0.929 . S
C767 C766 1.363 . S
C767 C773 1.428 . S
H768 C764 0.930 . S
H769 C766 0.929 . S
S770 N771 1.613 . S
S770 N772 1.610 . S
N771 S770 1.613 . S
N771 C774 1.350 . S
N772 S770 1.610 . S
N772 C773 1.351 . S
C773 C767 1.428 . S
C773 N772 1.351 . S
C773 C774 1.434 . S
C774 C765 1.429 . S
C774 N771 1.350 . S
C774 C773 1.434 . S
C775 C776 1.369 . S
C775 C777 1.419 . S
C775 H779 0.930 . S
C776 C775 1.369 . S
C776 C785 1.429 . S
C777 C775 1.419 . S
C777 C778 1.363 . S
C777 H780 0.929 . S
C778 C777 1.363 . S
C778 C784 1.428 . S
H779 C775 0.930 . S
H780 C777 0.929 . S
S781 N782 1.613 . S
S781 N783 1.610 . S
N782 S781 1.613 . S
N782 C785 1.350 . S
N783 S781 1.610 . S
N783 C784 1.351 . S
C784 C778 1.428 . S
C784 N783 1.351 . S
C784 C785 1.434 . S
C785 C776 1.429 . S
C785 N782 1.350 . S
C785 C784 1.434 . S
C786 C787 1.369 . S
C786 C788 1.419 . S
C786 H790 0.930 . S
C787 C786 1.369 . S
C787 C796 1.429 . S
C788 C786 1.419 . S
C788 C789 1.363 . S
C788 H791 0.929 . S
C789 C788 1.363 . S
C789 C795 1.428 . S
H790 C786 0.930 . S
H791 C788 0.929 . S
S792 N793 1.613 . S
S792 N794 1.610 . S
N793 S792 1.613 . S
N793 C796 1.350 . S
N794 S792 1.610 . S
N794 C795 1.351 . S
C795 C789 1.428 . S
C795 N794 1.351 . S
C795 C796 1.434 . S
C796 C787 1.429 . S
C796 N793 1.350 . S
C796 C795 1.434 . S
C797 C798 1.369 . S
C797 C799 1.419 . S
C797 H801 0.930 . S
C798 C797 1.369 . S
C798 C807 1.429 . S
C799 C797 1.419 . S
C799 C800 1.363 . S
C799 H802 0.929 . S
C800 C799 1.363 . S
C800 C806 1.428 . S
H801 C797 0.930 . S
H802 C799 0.929 . S
S803 N804 1.613 . S
S803 N805 1.610 . S
N804 S803 1.613 . S
N804 C807 1.350 . S
N805 S803 1.610 . S
N805 C806 1.351 . S
C806 C800 1.428 . S
C806 N805 1.351 . S
C806 C807 1.434 . S
C807 C798 1.429 . S
C807 N804 1.350 . S
C807 C806 1.434 . S
C808 C809 1.369 . S
C808 C810 1.419 . S
C808 H812 0.930 . S
C809 C808 1.369 . S
C809 C818 1.429 . S
C810 C808 1.419 . S
C810 C811 1.363 . S
C810 H813 0.929 . S
C811 C810 1.363 . S
C811 C817 1.428 . S
H812 C808 0.930 . S
H813 C810 0.929 . S
S814 N815 1.613 . S
S814 N816 1.610 . S
N815 S814 1.613 . S
N815 C818 1.350 . S
N816 S814 1.610 . S
N816 C817 1.351 . S
C817 C811 1.428 . S
C817 N816 1.351 . S
C817 C818 1.434 . S
C818 C809 1.429 . S
C818 N815 1.350 . S
C818 C817 1.434 . S
C819 C820 1.369 . S
C819 C821 1.419 . S
C819 H823 0.930 . S
C820 C819 1.369 . S
C820 C829 1.429 . S
C821 C819 1.419 . S
C821 C822 1.363 . S
C821 H824 0.929 . S
C822 C821 1.363 . S
C822 C828 1.428 . S
H823 C819 0.930 . S
H824 C821 0.929 . S
S825 N826 1.613 . S
S825 N827 1.610 . S
N826 S825 1.613 . S
N826 C829 1.350 . S
N827 S825 1.610 . S
N827 C828 1.351 . S
C828 C822 1.428 . S
C828 N827 1.351 . S
C828 C829 1.434 . S
C829 C820 1.429 . S
C829 N826 1.350 . S
C829 C828 1.434 . S
C830 C831 1.369 . S
C830 C832 1.419 . S
C830 H834 0.930 . S
C831 C830 1.369 . S
C831 C840 1.429 . S
C832 C830 1.419 . S
C832 C833 1.363 . S
C832 H835 0.929 . S
C833 C832 1.363 . S
C833 C839 1.428 . S
H834 C830 0.930 . S
H835 C832 0.929 . S
S836 N837 1.613 . S
S836 N838 1.610 . S
N837 S836 1.613 . S
N837 C840 1.350 . S
N838 S836 1.610 . S
N838 C839 1.351 . S
C839 C833 1.428 . S
C839 N838 1.351 . S
C839 C840 1.434 . S
C840 C831 1.429 . S
C840 N837 1.350 . S
C840 C839 1.434 . S
C841 C842 1.369 . S
C841 C843 1.419 . S
C841 H845 0.930 . S
C842 C841 1.369 . S
C842 C851 1.429 . S
C843 C841 1.419 . S
C843 C844 1.363 . S
C843 H846 0.929 . S
C844 C843 1.363 . S
C844 C850 1.428 . S
H845 C841 0.930 . S
H846 C843 0.929 . S
S847 N848 1.613 . S
S847 N849 1.610 . S
N848 S847 1.613 . S
N848 C851 1.350 . S
N849 S847 1.610 . S
N849 C850 1.351 . S
C850 C844 1.428 . S
C850 N849 1.351 . S
C850 C851 1.434 . S
C851 C842 1.429 . S
C851 N848 1.350 . S
C851 C850 1.434 . S
C852 C853 1.369 . S
C852 C854 1.419 . S
C852 H856 0.930 . S
C853 C852 1.369 . S
C853 C862 1.429 . S
C854 C852 1.419 . S
C854 C855 1.363 . S
C854 H857 0.929 . S
C855 C854 1.363 . S
C855 C861 1.428 . S
H856 C852 0.930 . S
H857 C854 0.929 . S
S858 N859 1.613 . S
S858 N860 1.610 . S
N859 S858 1.613 . S
N859 C862 1.350 . S
N860 S858 1.610 . S
N860 C861 1.351 . S
C861 C855 1.428 . S
C861 N860 1.351 . S
C861 C862 1.434 . S
C862 C853 1.429 . S
C862 N859 1.350 . S
C862 C861 1.434 . S
C863 C864 1.369 . S
C863 C865 1.419 . S
C863 H867 0.930 . S
C864 C863 1.369 . S
C864 C873 1.429 . S
C865 C863 1.419 . S
C865 C866 1.363 . S
C865 H868 0.929 . S
C866 C865 1.363 . S
C866 C872 1.428 . S
H867 C863 0.930 . S
H868 C865 0.929 . S
S869 N870 1.613 1_655 S
S869 N871 1.610 . S
N870 S869 1.613 1_455 S
N870 C873 1.350 . S
N871 S869 1.610 . S
N871 C872 1.351 1_655 S
C872 C866 1.428 . S
C872 N871 1.351 1_455 S
C872 C873 1.434 . S
C873 C864 1.429 . S
C873 N870 1.350 . S
C873 C872 1.434 . S
C874 C875 1.369 . S
C874 C876 1.419 . S
C874 H878 0.930 . S
C875 C874 1.369 . S
C875 C884 1.429 . S
C876 C874 1.419 . S
C876 C877 1.363 . S
C876 H879 0.929 . S
C877 C876 1.363 . S
C877 C883 1.428 . S
H878 C874 0.930 . S
H879 C876 0.929 . S
S880 N881 1.613 . S
S880 N882 1.610 . S
N881 S880 1.613 . S
N881 C884 1.350 . S
N882 S880 1.610 . S
N882 C883 1.351 . S
C883 C877 1.428 . S
C883 N882 1.351 . S
C883 C884 1.434 . S
C884 C875 1.429 . S
C884 N881 1.350 . S
C884 C883 1.434 . S
C885 C886 1.369 . S
C885 C887 1.419 . S
C885 H889 0.930 . S
C886 C885 1.369 . S
C886 C895 1.429 . S
C887 C885 1.419 . S
C887 C888 1.363 . S
C887 H890 0.929 1_455 S
C888 C887 1.363 . S
C888 C894 1.428 . S
H889 C885 0.930 . S
H890 C887 0.929 1_655 S
S891 N892 1.613 . S
S891 N893 1.610 . S
N892 S891 1.613 . S
N892 C895 1.350 . S
N893 S891 1.610 . S
N893 C894 1.351 . S
C894 C888 1.428 . S
C894 N893 1.351 . S
C894 C895 1.434 . S
C895 C886 1.429 . S
C895 N892 1.350 . S
C895 C894 1.434 . S
C896 C897 1.369 . S
C896 C898 1.419 . S
C896 H900 0.930 . S
C897 C896 1.369 . S
C897 C906 1.429 . S
C898 C896 1.419 . S
C898 C899 1.363 . S
C898 H901 0.929 . S
C899 C898 1.363 . S
C899 C905 1.428 . S
H900 C896 0.930 . S
H901 C898 0.929 . S
S902 N903 1.613 . S
S902 N904 1.610 . S
N903 S902 1.613 . S
N903 C906 1.350 . S
N904 S902 1.610 . S
N904 C905 1.351 . S
C905 C899 1.428 . S
C905 N904 1.351 . S
C905 C906 1.434 . S
C906 C897 1.429 . S
C906 N903 1.350 . S
C906 C905 1.434 . S
C907 C908 1.369 . S
C907 C909 1.419 . S
C907 H911 0.930 . S
C908 C907 1.369 . S
C908 C917 1.429 . S
C909 C907 1.419 . S
C909 C910 1.363 . S
C909 H912 0.929 . S
C910 C909 1.363 . S
C910 C916 1.428 . S
H911 C907 0.930 . S
H912 C909 0.929 . S
S913 N914 1.613 1_655 S
S913 N915 1.610 . S
N914 S913 1.613 1_455 S
N914 C917 1.350 1_455 S
N915 S913 1.610 . S
N915 C916 1.351 . S
C916 C910 1.428 . S
C916 N915 1.351 . S
C916 C917 1.434 . S
C917 C908 1.429 . S
C917 N914 1.350 1_655 S
C917 C916 1.434 . S
C918 C919 1.369 . S
C918 C920 1.419 . S
C918 H922 0.930 . S
C919 C918 1.369 . S
C919 C928 1.429 . S
C920 C918 1.419 . S
C920 C921 1.363 . S
C920 H923 0.929 . S
C921 C920 1.363 . S
C921 C927 1.428 . S
H922 C918 0.930 . S
H923 C920 0.929 . S
S924 N925 1.613 . S
S924 N926 1.610 . S
N925 S924 1.613 . S
N925 C928 1.350 . S
N926 S924 1.610 . S
N926 C927 1.351 . S
C927 C921 1.428 . S
C927 N926 1.351 . S
C927 C928 1.434 . S
C928 C919 1.429 . S
C928 N925 1.350 . S
C928 C927 1.434 . S
C929 C930 1.369 . S
C929 C931 1.419 . S
C929 H933 0.930 . S
C930 C929 1.369 . S
C930 C939 1.429 . S
C931 C929 1.419 . S
C931 C932 1.363 . S
C931 H934 0.929 . S
C932 C931 1.363 . S
C932 C938 1.428 . S
H933 C929 0.930 . S
H934 C931 0.929 . S
S935 N936 1.613 . S
S935 N937 1.610 . S
N936 S935 1.613 . S
N936 C939 1.350 . S
N937 S935 1.610 . S
N937 C938 1.351 . S
C938 C932 1.428 . S
C938 N937 1.351 . S
C938 C939 1.434 . S
C939 C930 1.429 . S
C939 N936 1.350 . S
C939 C938 1.434 . S
C940 C941 1.369 . S
C940 C942 1.419 . S
C940 H944 0.930 . S
C941 C940 1.369 . S
C941 C950 1.429 . S
C942 C940 1.419 . S
C942 C943 1.363 . S
C942 H945 0.929 . S
C943 C942 1.363 . S
C943 C949 1.428 . S
H944 C940 0.930 . S
H945 C942 0.929 . S
S946 N947 1.613 . S
S946 N948 1.610 . S
N947 S946 1.613 . S
N947 C950 1.350 . S
N948 S946 1.610 . S
N948 C949 1.351 . S
C949 C943 1.428 . S
C949 N948 1.351 . S
C949 C950 1.434 . S
C950 C941 1.429 . S
C950 N947 1.350 . S
C950 C949 1.434 . S
C951 C952 1.369 . S
C951 C953 1.419 . S
C951 H955 0.930 1_455 S
C952 C951 1.369 . S
C952 C961 1.429 . S
C953 C951 1.419 . S
C953 C954 1.363 . S
C953 H956 0.929 . S
C954 C953 1.363 . S
C954 C960 1.428 . S
H955 C951 0.930 1_655 S
H956 C953 0.929 . S
S957 N958 1.613 . S
S957 N959 1.610 . S
N958 S957 1.613 . S
N958 C961 1.350 . S
N959 S957 1.610 . S
N959 C960 1.351 . S
C960 C954 1.428 . S
C960 N959 1.351 . S
C960 C961 1.434 . S
C961 C952 1.429 . S
C961 N958 1.350 . S
C961 C960 1.434 . S
C962 C963 1.369 . S
C962 C964 1.419 . S
C962 H966 0.930 . S
C963 C962 1.369 . S
C963 C972 1.429 . S
C964 C962 1.419 . S
C964 C965 1.363 . S
C964 H967 0.929 . S
C965 C964 1.363 . S
C965 C971 1.428 . S
H966 C962 0.930 . S
H967 C964 0.929 . S
S968 N969 1.613 . S
S968 N970 1.610 . S
N969 S968 1.613 . S
N969 C972 1.350 . S
N970 S968 1.610 . S
N970 C971 1.351 . S
C971 C965 1.428 . S
C971 N970 1.351 . S
C971 C972 1.434 . S
C972 C963 1.429 . S
C972 N969 1.350 . S
C972 C971 1.434 . S
C973 C974 1.369 . S
C973 C975 1.419 . S
C973 H977 0.930 . S
C974 C973 1.369 . S
C974 C983 1.429 . S
C975 C973 1.419 . S
C975 C976 1.363 . S
C975 H978 0.929 . S
C976 C975 1.363 . S
C976 C982 1.428 . S
H977 C973 0.930 . S
H978 C975 0.929 . S
S979 N980 1.613 . S
S979 N981 1.610 1_655 S
N980 S979 1.613 . S
N980 C983 1.350 1_655 S
N981 S979 1.610 1_455 S
N981 C982 1.351 . S
C982 C976 1.428 . S
C982 N981 1.351 . S
C982 C983 1.434 . S
C983 C974 1.429 . S
C983 N980 1.350 1_455 S
C983 C982 1.434 . S
C984 C985 1.369 . S
C984 C986 1.419 . S
C984 H988 0.930 . S
C985 C984 1.369 . S
C985 C994 1.429 . S
C986 C984 1.419 . S
C986 C987 1.363 . S
C986 H989 0.929 . S
C987 C986 1.363 . S
C987 C993 1.428 . S
H988 C984 0.930 . S
H989 C986 0.929 . S
S990 N991 1.613 . S
S990 N992 1.610 . S
N991 S990 1.613 . S
N991 C994 1.350 . S
N992 S990 1.610 . S
N992 C993 1.351 . S
C993 C987 1.428 . S
C993 N992 1.351 . S
C993 C994 1.434 . S
C994 C985 1.429 . S
C994 N991 1.350 . S
C994 C993 1.434 . S
C995 C996 1.369 . S
C995 C997 1.419 . S
C995 H999 0.930 . S
C996 C995 1.369 . S
C996 C1005 1.429 . S
C997 C995 1.419 . S
C997 C998 1.363 . S
C997 H1000 0.929 . S
C998 C997 1.363 . S
C998 C1004 1.428 . S
H999 C995 0.930 . S
H1000 C997 0.929 . S
S1001 N1002 1.613 . S
S1001 N1003 1.610 . S
N1002 S1001 1.613 . S
N1002 C1005 1.350 . S
N1003 S1001 1.610 . S
N1003 C1004 1.351 . S
C1004 C998 1.428 . S
C1004 N1003 1.351 . S
C1004 C1005 1.434 . S
C1005 C996 1.429 . S
C1005 N1002 1.350 . S
C1005 C1004 1.434 . S
C1006 C1007 1.369 . S
C1006 C1008 1.419 . S
C1006 H1010 0.930 . S
C1007 C1006 1.369 . S
C1007 C1016 1.429 . S
C1008 C1006 1.419 . S
C1008 C1009 1.363 . S
C1008 H1011 0.929 . S
C1009 C1008 1.363 . S
C1009 C1015 1.428 . S
H1010 C1006 0.930 . S
H1011 C1008 0.929 . S
S1012 N1013 1.613 . S
S1012 N1014 1.610 . S
N1013 S1012 1.613 . S
N1013 C1016 1.350 . S
N1014 S1012 1.610 . S
N1014 C1015 1.351 . S
C1015 C1009 1.428 . S
C1015 N1014 1.351 . S
C1015 C1016 1.434 . S
C1016 C1007 1.429 . S
C1016 N1013 1.350 . S
C1016 C1015 1.434 . S
C1017 C1018 1.369 . S
C1017 C1019 1.419 . S
C1017 H1021 0.930 . S
C1018 C1017 1.369 . S
C1018 C1027 1.429 . S
C1019 C1017 1.419 . S
C1019 C1020 1.363 . S
C1019 H1022 0.929 . S
C1020 C1019 1.363 . S
C1020 C1026 1.428 . S
H1021 C1017 0.930 . S
H1022 C1019 0.929 . S
S1023 N1024 1.613 . S
S1023 N1025 1.610 . S
N1024 S1023 1.613 . S
N1024 C1027 1.350 . S
N1025 S1023 1.610 . S
N1025 C1026 1.351 . S
C1026 C1020 1.428 . S
C1026 N1025 1.351 . S
C1026 C1027 1.434 . S
C1027 C1018 1.429 . S
C1027 N1024 1.350 . S
C1027 C1026 1.434 . S
C1028 C1029 1.371 1_556 S
C1028 C1030 1.419 . S
C1028 H1032 0.930 . S
C1029 C1028 1.371 1_554 S
C1029 C1038 1.427 . S
C1030 C1028 1.419 . S
C1030 C1031 1.361 . S
C1030 H1033 0.929 . S
C1031 C1030 1.361 . S
C1031 C1037 1.431 1_556 S
H1032 C1028 0.930 . S
H1033 C1030 0.929 . S
S1034 N1035 1.613 . S
S1034 N1036 1.610 . S
N1035 S1034 1.613 . S
N1035 C1038 1.350 . S
N1036 S1034 1.610 . S
N1036 C1037 1.351 . S
C1037 C1031 1.431 1_554 S
C1037 N1036 1.351 . S
C1037 C1038 1.434 . S
C1038 C1029 1.427 . S
C1038 N1035 1.350 . S
C1038 C1037 1.434 . S
C1039 C1040 1.369 . S
C1039 C1041 1.419 . S
C1039 H1043 0.930 . S
C1040 C1039 1.369 . S
C1040 C1049 1.429 . S
C1041 C1039 1.419 . S
C1041 C1042 1.363 . S
C1041 H1044 0.929 . S
C1042 C1041 1.363 . S
C1042 C1048 1.428 . S
H1043 C1039 0.930 . S
H1044 C1041 0.929 . S
S1045 N1046 1.613 . S
S1045 N1047 1.610 . S
N1046 S1045 1.613 . S
N1046 C1049 1.350 . S
N1047 S1045 1.610 . S
N1047 C1048 1.351 . S
C1048 C1042 1.428 . S
C1048 N1047 1.351 . S
C1048 C1049 1.434 . S
C1049 C1040 1.429 . S
C1049 N1046 1.350 . S
C1049 C1048 1.434 . S
C1050 C1051 1.367 . S
C1050 C1052 1.419 . S
C1050 H1054 0.930 . S
C1051 C1050 1.367 . S
C1051 C1060 1.430 1_554 S
C1052 C1050 1.419 . S
C1052 C1053 1.363 . S
C1052 H1055 0.929 . S
C1053 C1052 1.363 . S
C1053 C1059 1.428 1_554 S
H1054 C1050 0.930 . S
H1055 C1052 0.929 . S
S1056 N1057 1.613 . S
S1056 N1058 1.610 . S
N1057 S1056 1.613 . S
N1057 C1060 1.350 . S
N1058 S1056 1.610 . S
N1058 C1059 1.351 . S
C1059 C1053 1.428 1_556 S
C1059 N1058 1.351 . S
C1059 C1060 1.434 . S
C1060 C1051 1.430 1_556 S
C1060 N1057 1.350 . S
C1060 C1059 1.434 . S
C1061 C1062 1.369 . S
C1061 C1063 1.419 . S
C1061 H1065 0.930 . S
C1062 C1061 1.369 . S
C1062 C1071 1.429 . S
C1063 C1061 1.419 . S
C1063 C1064 1.363 . S
C1063 H1066 0.929 . S
C1064 C1063 1.363 . S
C1064 C1070 1.428 . S
H1065 C1061 0.930 . S
H1066 C1063 0.929 . S
S1067 N1068 1.613 . S
S1067 N1069 1.610 . S
N1068 S1067 1.613 . S
N1068 C1071 1.350 . S
N1069 S1067 1.610 . S
N1069 C1070 1.351 . S
C1070 C1064 1.428 . S
C1070 N1069 1.351 . S
C1070 C1071 1.434 . S
C1071 C1062 1.429 . S
C1071 N1068 1.350 . S
C1071 C1070 1.434 . S
C1072 C1073 1.367 1_554 S
C1072 C1074 1.419 . S
C1072 H1076 0.930 . S
C1073 C1072 1.367 1_556 S
C1073 C1082 1.431 . S
C1074 C1072 1.419 . S
C1074 C1075 1.361 1_554 S
C1074 H1077 0.929 . S
C1075 C1074 1.361 1_556 S
C1075 C1081 1.431 . S
H1076 C1072 0.930 . S
H1077 C1074 0.929 . S
S1078 N1079 1.613 . S
S1078 N1080 1.610 . S
N1079 S1078 1.613 . S
N1079 C1082 1.350 . S
N1080 S1078 1.610 . S
N1080 C1081 1.351 . S
C1081 C1075 1.431 . S
C1081 N1080 1.351 . S
C1081 C1082 1.434 . S
C1082 C1073 1.431 . S
C1082 N1079 1.350 . S
C1082 C1081 1.434 . S
C1083 C1084 1.369 . S
C1083 C1085 1.419 . S
C1083 H1087 0.930 . S
C1084 C1083 1.369 . S
C1084 C1093 1.429 . S
C1085 C1083 1.419 . S
C1085 C1086 1.363 . S
C1085 H1088 0.929 . S
C1086 C1085 1.363 . S
C1086 C1092 1.428 . S
H1087 C1083 0.930 . S
H1088 C1085 0.929 . S
S1089 N1090 1.613 . S
S1089 N1091 1.610 . S
N1090 S1089 1.613 . S
N1090 C1093 1.350 . S
N1091 S1089 1.610 . S
N1091 C1092 1.351 . S
C1092 C1086 1.428 . S
C1092 N1091 1.351 . S
C1092 C1093 1.434 . S
C1093 C1084 1.429 . S
C1093 N1090 1.350 . S
C1093 C1092 1.434 . S
C1094 C1095 1.357 1_556 S
C1094 C1096 1.419 . S
C1094 H1098 0.930 . S
C1095 C1094 1.357 1_554 S
C1095 C1104 1.441 . S
C1096 C1094 1.419 . S
C1096 C1097 1.352 1_556 S
C1096 H1099 0.929 . S
C1097 C1096 1.352 1_554 S
C1097 C1103 1.440 . S
H1098 C1094 0.930 . S
H1099 C1096 0.929 . S
S1100 N1101 1.613 . S
S1100 N1102 1.610 . S
N1101 S1100 1.613 . S
N1101 C1104 1.350 . S
N1102 S1100 1.610 . S
N1102 C1103 1.351 . S
C1103 C1097 1.440 . S
C1103 N1102 1.351 . S
C1103 C1104 1.434 . S
C1104 C1095 1.441 . S
C1104 N1101 1.350 . S
C1104 C1103 1.434 . S
C1105 C1106 1.369 . S
C1105 C1107 1.419 . S
C1105 H1109 0.930 . S
C1106 C1105 1.369 . S
C1106 C1115 1.429 . S
C1107 C1105 1.419 . S
C1107 C1108 1.363 . S
C1107 H1110 0.929 . S
C1108 C1107 1.363 . S
C1108 C1114 1.428 . S
H1109 C1105 0.930 . S
H1110 C1107 0.929 . S
S1111 N1112 1.613 . S
S1111 N1113 1.610 . S
N1112 S1111 1.613 . S
N1112 C1115 1.350 . S
N1113 S1111 1.610 . S
N1113 C1114 1.351 . S
C1114 C1108 1.428 . S
C1114 N1113 1.351 . S
C1114 C1115 1.434 . S
C1115 C1106 1.429 . S
C1115 N1112 1.350 . S
C1115 C1114 1.434 . S
C1116 C1117 1.369 . S
C1116 C1118 1.419 . S
C1116 H1120 0.930 . S
C1117 C1116 1.369 . S
C1117 C1126 1.429 . S
C1118 C1116 1.419 . S
C1118 C1119 1.363 . S
C1118 H1121 0.929 . S
C1119 C1118 1.363 . S
C1119 C1125 1.428 . S
H1120 C1116 0.930 . S
H1121 C1118 0.929 . S
S1122 N1123 1.613 . S
S1122 N1124 1.610 . S
N1123 S1122 1.613 . S
N1123 C1126 1.350 . S
N1124 S1122 1.610 . S
N1124 C1125 1.351 . S
C1125 C1119 1.428 . S
C1125 N1124 1.351 . S
C1125 C1126 1.434 . S
C1126 C1117 1.429 . S
C1126 N1123 1.350 . S
C1126 C1125 1.434 . S
C1127 C1128 1.369 . S
C1127 C1129 1.419 . S
C1127 H1131 0.930 . S
C1128 C1127 1.369 . S
C1128 C1137 1.429 . S
C1129 C1127 1.419 . S
C1129 C1130 1.363 . S
C1129 H1132 0.929 . S
C1130 C1129 1.363 . S
C1130 C1136 1.428 . S
H1131 C1127 0.930 . S
H1132 C1129 0.929 . S
S1133 N1134 1.613 . S
S1133 N1135 1.610 . S
N1134 S1133 1.613 . S
N1134 C1137 1.350 . S
N1135 S1133 1.610 . S
N1135 C1136 1.351 . S
C1136 C1130 1.428 . S
C1136 N1135 1.351 . S
C1136 C1137 1.434 . S
C1137 C1128 1.429 . S
C1137 N1134 1.350 . S
C1137 C1136 1.434 . S
C1138 C1139 1.369 . S
C1138 C1140 1.419 . S
C1138 H1142 0.930 . S
C1139 C1138 1.369 . S
C1139 C1148 1.429 . S
C1140 C1138 1.419 . S
C1140 C1141 1.363 . S
C1140 H1143 0.929 . S
C1141 C1140 1.363 . S
C1141 C1147 1.428 . S
H1142 C1138 0.930 . S
H1143 C1140 0.929 . S
S1144 N1145 1.613 . S
S1144 N1146 1.610 . S
N1145 S1144 1.613 . S
N1145 C1148 1.350 . S
N1146 S1144 1.610 . S
N1146 C1147 1.351 . S
C1147 C1141 1.428 . S
C1147 N1146 1.351 . S
C1147 C1148 1.434 . S
C1148 C1139 1.429 . S
C1148 N1145 1.350 . S
C1148 C1147 1.434 . S
C1149 C1150 1.369 . S
C1149 C1151 1.419 . S
C1149 H1153 0.930 . S
C1150 C1149 1.369 . S
C1150 C1159 1.429 . S
C1151 C1149 1.419 . S
C1151 C1152 1.363 . S
C1151 H1154 0.929 . S
C1152 C1151 1.363 . S
C1152 C1158 1.428 . S
H1153 C1149 0.930 . S
H1154 C1151 0.929 . S
S1155 N1156 1.613 . S
S1155 N1157 1.610 . S
N1156 S1155 1.613 . S
N1156 C1159 1.350 . S
N1157 S1155 1.610 . S
N1157 C1158 1.351 . S
C1158 C1152 1.428 . S
C1158 N1157 1.351 . S
C1158 C1159 1.434 . S
C1159 C1150 1.429 . S
C1159 N1156 1.350 . S
C1159 C1158 1.434 . S
C545 C498 1.599 . S
C547 C22 1.605 . S
C556 C83 1.605 . S
C558 C15 1.601 . S
C567 C56 1.603 . S
C569 C389 1.601 . S
C578 C49 1.608 . S
C580 C260 1.598 . S
C589 C90 1.600 . S
C591 C430 1.604 . S
C600 C117 1.600 . S
C602 C321 1.603 . S
C611 C124 1.608 . S
C613 C185 1.598 . S
C622 C151 1.606 . S
C624 C362 1.599 . S
C633 C158 1.608 . S
C635 C226 1.598 . S
C644 C192 1.601 . S
C646 C525 1.603 . S
C655 C219 1.607 . S
C657 C287 1.598 . S
C666 C464 1.609 . S
C668 C253 1.597 . S
C677 C294 1.597 . S
C679 C355 1.606 . S
C688 C328 1.597 . S
C690 C532 1.606 . S
C699 C396 1.604 . S
C701 C457 1.600 . S
C710 C423 1.609 . S
C712 C491 1.597 . S
C721 C17 1.786 . S
C723 C51 1.786 . S
C732 C119 1.786 . S
C734 C85 1.786 . S
C743 C153 1.786 . S
C745 C187 1.786 . S
C754 C221 1.786 . S
C756 C255 1.786 . S
C765 C289 1.786 . S
C767 C323 1.786 . S
C776 C357 1.786 . S
C778 C391 1.786 . S
C787 C425 1.786 . S
C789 C459 1.786 . S
C798 C527 1.786 . S
C800 C493 1.786 . S
C809 C307 1.803 . S
C811 C1 1.805 . S
C820 C3 1.804 1_655 S
C822 C309 1.804 . S
C831 C35 1.805 . S
C833 C273 1.803 . S
C842 C37 1.809 1_655 S
C844 C275 1.809 . S
C853 C375 1.807 . S
C855 C69 1.804 . S
C864 C377 1.805 . S
C866 C71 1.803 1_455 S
C875 C343 1.803 . S
C877 C105 1.806 . S
C886 C341 1.807 . S
C888 C103 1.809 1_455 S
C897 C139 1.809 . S
C899 C445 1.805 . S
C908 C137 1.803 1_655 S
C910 C443 1.805 . S
C919 C411 1.810 . S
C921 C171 1.807 . S
C930 C409 1.805 . S
C932 C173 1.803 1_655 S
C941 C511 1.805 . S
C943 C207 1.809 . S
C952 C205 1.806 1_455 S
C954 C513 1.804 . S
C963 C241 1.804 . S
C965 C479 1.804 . S
C974 C239 1.807 1_455 S
C976 C477 1.809 . S
C985 C6 1.527 . S
C987 C28 1.527 . S
C996 C40 1.525 . S
C998 C62 1.526 . S
C1007 C74 1.525 . S
C1009 C96 1.526 . S
C1018 C130 1.527 . S
C1020 C108 1.527 . S
C1029 C142 1.527 1_554 S
C1031 C164 1.527 . S
C1040 C176 1.527 . S
C1042 C198 1.527 . S
C1051 C210 1.527 . S
C1053 C232 1.527 . S
C1062 C266 1.526 . S
C1064 C244 1.526 . S
C1073 C300 1.527 1_455 S
C1075 C278 1.527 . S
C1084 C334 1.525 1_455 S
C1086 C312 1.526 . S
C1095 C368 1.527 . S
C1097 C346 1.527 1_655 S
C1106 C402 1.527 1_655 S
C1108 C380 1.527 . S
C1117 C414 1.527 1_455 S
C1119 C436 1.527 . S
C1128 C448 1.526 1_455 S
C1130 C470 1.526 . S
C1139 C482 1.526 1_655 S
C1141 C504 1.526 . S
C1150 C538 1.525 1_655 S
C1152 C516 1.526 . S
